# Generated by pormake.
# Topology anh, (6,3)-cn, num edge types: 1
# Building blocks:
#     Node 0, Type 0, BuildingBlock: MIFKUJ_clean_sbu_0, # of connection points: 6
#     Node 1, Type 0, BuildingBlock: MIFKUJ_clean_sbu_0, # of connection points: 6
#     Node 2, Type 0, BuildingBlock: MIFKUJ_clean_sbu_0, # of connection points: 6
#     Node 3, Type 1, BuildingBlock: BETDIP_clean_linker_0, # of connection points: 3
#     Node 4, Type 1, BuildingBlock: BETDIP_clean_linker_0, # of connection points: 3
#     Node 5, Type 1, BuildingBlock: BETDIP_clean_linker_0, # of connection points: 3
#     Node 6, Type 1, BuildingBlock: BETDIP_clean_linker_0, # of connection points: 3
#     Node 7, Type 1, BuildingBlock: BETDIP_clean_linker_0, # of connection points: 3
#     Node 8, Type 1, BuildingBlock: BETDIP_clean_linker_0, # of connection points: 3
#     Edge 9, Type (0, 1), BuildingBlock: EZIPEK_clean_linker_0, # of connection points: 2
#     Edge 10, Type (0, 1), BuildingBlock: EZIPEK_clean_linker_0, # of connection points: 2
#     Edge 11, Type (0, 1), BuildingBlock: EZIPEK_clean_linker_0, # of connection points: 2
#     Edge 12, Type (0, 1), BuildingBlock: EZIPEK_clean_linker_0, # of connection points: 2
#     Edge 13, Type (0, 1), BuildingBlock: EZIPEK_clean_linker_0, # of connection points: 2
#     Edge 14, Type (0, 1), BuildingBlock: EZIPEK_clean_linker_0, # of connection points: 2
#     Edge 15, Type (0, 1), BuildingBlock: EZIPEK_clean_linker_0, # of connection points: 2
#     Edge 16, Type (0, 1), BuildingBlock: EZIPEK_clean_linker_0, # of connection points: 2
#     Edge 17, Type (0, 1), BuildingBlock: EZIPEK_clean_linker_0, # of connection points: 2
#     Edge 18, Type (0, 1), BuildingBlock: EZIPEK_clean_linker_0, # of connection points: 2
#     Edge 19, Type (0, 1), BuildingBlock: EZIPEK_clean_linker_0, # of connection points: 2
#     Edge 20, Type (0, 1), BuildingBlock: EZIPEK_clean_linker_0, # of connection points: 2
#     Edge 21, Type (0, 1), BuildingBlock: EZIPEK_clean_linker_0, # of connection points: 2
#     Edge 22, Type (0, 1), BuildingBlock: EZIPEK_clean_linker_0, # of connection points: 2
#     Edge 23, Type (0, 1), BuildingBlock: EZIPEK_clean_linker_0, # of connection points: 2
#     Edge 24, Type (0, 1), BuildingBlock: EZIPEK_clean_linker_0, # of connection points: 2
#     Edge 25, Type (0, 1), BuildingBlock: EZIPEK_clean_linker_0, # of connection points: 2
#     Edge 26, Type (0, 1), BuildingBlock: EZIPEK_clean_linker_0, # of connection points: 2
# Relax obj value: 0.083
# Max RMSD: 0.188
# Mean RMSD: 0.120
data_MOF--net-anh--node1-MIFKUJ_clean_sbu_0--node2-BETDIP_clean_linker_0--edge1-EZIPEK_clean_linker_0
_symmetry_space_group_name_H-M    P1
_symmetry_Int_Tables_number       1
_symmetry_cell_setting            triclinic
loop_
_symmetry_equiv_pos_as_xyz
'x, y, z'
_cell_length_a     24.688917
_cell_length_b     24.103263
_cell_length_c     33.875908
_cell_angle_alpha  97.879989
_cell_angle_beta   90.747749
_cell_angle_gamma 119.89904
loop_
_atom_site_label
_atom_site_type_symbol
_atom_site_fract_x
_atom_site_fract_y
_atom_site_fract_z
_atom_type_partial_charge
Zn0 Zn 0.08391 0.55992 0.15345 0.0
Zn1 Zn 0.89147 0.49261 0.16599 0.0
C2 C 0.18985 0.54629 0.16875 0.0
O3 O 0.18695 0.57186 0.20492 0.0
C4 C 0.81202 0.53925 0.14598 0.0
O5 O 0.8059 0.50139 0.11236 0.0
O6 O 0.14055 0.65707 0.1596 0.0
O7 O 0.02424 0.53416 0.10496 0.0
O8 O 0.92367 0.50173 0.11204 0.0
C9 C 0.15881 0.68509 0.12918 0.0
O10 O 0.13461 0.65205 0.0931 0.0
O11 O 0.14629 0.53014 0.14149 0.0
C12 C 0.7843 0.38277 0.18955 0.0
O13 O 0.79686 0.42465 0.22236 0.0
O14 O 0.81992 0.39946 0.16144 0.0
O15 O 0.95221 0.51357 0.21388 0.0
O16 O 0.05107 0.53926 0.20696 0.0
O17 O 0.84978 0.54676 0.17487 0.0
C18 C 0.96884 0.5147 0.09059 0.0
C19 C 0.00595 0.52705 0.22859 0.0
Zn20 Zn 0.54224 0.12045 0.49065 0.0
Zn21 Zn 0.47067 0.93451 0.49062 0.0
C22 C 0.66932 0.2233 0.50745 0.0
O23 O 0.64118 0.25078 0.52736 0.0
C24 C 0.34382 0.83625 0.48431 0.0
O25 O 0.35928 0.82705 0.44808 0.0
O26 O 0.52512 0.19207 0.48706 0.0
O27 O 0.50296 0.05979 0.43895 0.0
O28 O 0.4609 0.9534 0.43613 0.0
C29 C 0.52657 0.21341 0.45463 0.0
O30 O 0.53371 0.18441 0.42104 0.0
O31 O 0.63728 0.16339 0.49227 0.0
C32 C 0.50896 0.85158 0.51311 0.0
O33 O 0.49753 0.87268 0.54805 0.0
O34 O 0.50326 0.87372 0.48248 0.0
O35 O 0.53148 0.00932 0.5323 0.0
O36 O 0.51006 0.08783 0.54169 0.0
O37 O 0.38437 0.883 0.51007 0.0
C38 C 0.47487 0.00241 0.41962 0.0
C39 C 0.51284 0.04214 0.5543 0.0
Zn40 Zn 0.58054 0.49975 0.83296 0.0
Zn41 Zn 0.44407 0.53438 0.81872 0.0
C42 C 0.56772 0.37476 0.81647 0.0
O43 O 0.60844 0.4056 0.79164 0.0
C44 C 0.4597 0.65646 0.80736 0.0
O45 O 0.42041 0.61763 0.77631 0.0
O46 O 0.67391 0.53489 0.83698 0.0
O47 O 0.55628 0.50595 0.77746 0.0
O48 O 0.47117 0.51284 0.76625 0.0
C49 C 0.70897 0.55483 0.8089 0.0
O50 O 0.6866 0.56061 0.7753 0.0
O51 O 0.54504 0.40434 0.83808 0.0
C52 C 0.32869 0.51447 0.84047 0.0
O53 O 0.36597 0.54786 0.87339 0.0
O54 O 0.3508 0.49703 0.81088 0.0
O55 O 0.45917 0.49904 0.86554 0.0
O56 O 0.56124 0.54502 0.88066 0.0
O57 O 0.47992 0.63305 0.83139 0.0
C58 C 0.5171 0.50784 0.75379 0.0
C59 C 0.5073 0.53248 0.89049 0.0
H60 H 0.41111 0.98742 0.13619 0.0
H61 H 0.51324 0.07873 0.25273 0.0
H62 H 0.34463 0.89363 0.23916 0.0
H63 H 0.52967 0.17033 0.22541 0.0
C64 C 0.54664 0.15773 0.19816 0.0
C65 C 0.4162 0.98737 0.168 0.0
C66 C 0.37183 0.93422 0.18488 0.0
C67 C 0.46691 0.0406 0.19243 0.0
C68 C 0.47348 0.0393 0.23355 0.0
C69 C 0.42942 0.98662 0.25024 0.0
C70 C 0.37859 0.93447 0.22602 0.0
N71 N 0.51198 0.09419 0.17542 0.0
H72 H 0.58209 0.51701 0.47247 0.0
H73 H 0.5896 0.60973 0.59161 0.0
H74 H 0.53217 0.40706 0.56919 0.0
H75 H 0.49639 0.59799 0.53089 0.0
C76 C 0.54044 0.63539 0.52225 0.0
C77 C 0.57795 0.51507 0.50413 0.0
C78 C 0.55986 0.45698 0.51842 0.0
C79 C 0.58704 0.56948 0.5305 0.0
C80 C 0.58189 0.56694 0.57142 0.0
C81 C 0.56085 0.50828 0.58572 0.0
C82 C 0.5492 0.45305 0.55878 0.0
N83 N 0.58981 0.6224 0.51531 0.0
H84 H 0.97803 0.54903 0.81168 0.0
H85 H 0.03881 0.51838 0.92244 0.0
H86 H 0.87563 0.53677 0.91538 0.0
H87 H 0.13324 0.57539 0.89952 0.0
C88 C 0.1235 0.5514 0.86857 0.0
C89 C 0.97208 0.54267 0.84269 0.0
C90 C 0.92143 0.54332 0.86088 0.0
C91 C 0.01543 0.53462 0.86478 0.0
C92 C 0.00698 0.52615 0.90493 0.0
C93 C 0.95714 0.52744 0.92312 0.0
C94 C 0.91421 0.53563 0.90109 0.0
N95 N 0.06657 0.5341 0.84627 0.0
H96 H 0.06748 0.57506 0.5186 0.0
H97 H 0.96998 0.45441 0.40616 0.0
H98 H 0.12275 0.64843 0.40824 0.0
H99 H 0.88598 0.44439 0.44444 0.0
C100 C 0.89968 0.43004 0.47013 0.0
C101 C 0.06127 0.56813 0.48623 0.0
C102 C 0.1035 0.61688 0.46547 0.0
C103 C 0.01084 0.51058 0.46488 0.0
C104 C 0.00583 0.50056 0.4228 0.0
C105 C 0.04447 0.55058 0.40195 0.0
C106 C 0.0923 0.60922 0.42384 0.0
N107 N 0.96406 0.46387 0.4855 0.0
H108 H 0.52918 0.07873 0.84185 0.0
H109 H 0.50947 0.96009 0.72872 0.0
H110 H 0.52897 0.14729 0.73092 0.0
H111 H 0.44074 0.88041 0.76785 0.0
C112 C 0.47817 0.89622 0.79138 0.0
C113 C 0.52611 0.07128 0.80944 0.0
C114 C 0.52949 0.1198 0.78879 0.0
C115 C 0.51758 0.01259 0.78795 0.0
C116 C 0.51421 0.00394 0.74583 0.0
C117 C 0.51857 0.05252 0.72546 0.0
C118 C 0.52586 0.10992 0.74693 0.0
N119 N 0.51361 0.96315 0.80865 0.0
H120 H 0.46629 0.57373 0.17423 0.0
H121 H 0.57171 0.58386 0.07265 0.0
H122 H 0.38403 0.54901 0.05545 0.0
H123 H 0.64994 0.67935 0.13326 0.0
C124 C 0.64022 0.63675 0.14604 0.0
C125 C 0.46964 0.57164 0.14225 0.0
C126 C 0.41891 0.56154 0.11678 0.0
C127 C 0.5257 0.58205 0.12662 0.0
C128 C 0.52961 0.57872 0.08518 0.0
C129 C 0.47834 0.56565 0.05949 0.0
C130 C 0.42338 0.5581 0.07533 0.0
N131 N 0.57706 0.59295 0.15238 0.0
C132 C 0.30507 0.61082 0.16101 0.0
C133 C 0.24921 0.54931 0.15782 0.0
C134 C 0.30513 0.49533 0.12892 0.0
C135 C 0.36134 0.55659 0.13328 0.0
N136 N 0.41779 0.6718 0.15777 0.0
N137 N 0.19736 0.43269 0.14497 0.0
C138 C 0.36224 0.614 0.15097 0.0
C139 C 0.24956 0.49141 0.1434 0.0
N140 N 0.30273 0.66647 0.17143 0.0
N141 N 0.30484 0.44103 0.11042 0.0
H142 H 0.15606 0.42825 0.15546 0.0
H143 H 0.19609 0.38855 0.13886 0.0
H144 H 0.34538 0.44132 0.10182 0.0
H145 H 0.26422 0.39628 0.10175 0.0
H146 H 0.34019 0.71284 0.17087 0.0
H147 H 0.26171 0.66686 0.17765 0.0
H148 H 0.4235 0.71378 0.17515 0.0
H149 H 0.45988 0.67736 0.14815 0.0
C150 C 0.7793 0.31154 0.53117 0.0
C151 C 0.73568 0.26514 0.49921 0.0
C152 C 0.81419 0.31519 0.4523 0.0
C153 C 0.85101 0.36901 0.48272 0.0
N154 N 0.86748 0.42039 0.55159 0.0
N155 N 0.71065 0.22658 0.42756 0.0
C156 C 0.83407 0.36736 0.52255 0.0
C157 C 0.75318 0.26693 0.4593 0.0
N158 N 0.76828 0.30193 0.56976 0.0
N159 N 0.8377 0.31043 0.41649 0.0
H160 H 0.66469 0.19133 0.43019 0.0
H161 H 0.71927 0.23207 0.39791 0.0
H162 H 0.88267 0.34473 0.41074 0.0
H163 H 0.81562 0.26928 0.39445 0.0
H164 H 0.8008 0.33108 0.59421 0.0
H165 H 0.72932 0.26061 0.57681 0.0
H166 H 0.85272 0.42464 0.57994 0.0
H167 H 0.90775 0.46217 0.54657 0.0
C168 C 0.42659 0.73821 0.82814 0.0
C169 C 0.47416 0.72498 0.81531 0.0
C170 C 0.53392 0.8336 0.79694 0.0
C171 C 0.48429 0.84487 0.80734 0.0
N172 N 0.39234 0.81707 0.84211 0.0
N173 N 0.57911 0.76381 0.79671 0.0
C174 C 0.43355 0.79999 0.8261 0.0
C175 C 0.53019 0.77435 0.80308 0.0
N176 N 0.37366 0.69058 0.84084 0.0
N177 N 0.58253 0.87775 0.77894 0.0
H178 H 0.57689 0.72052 0.80053 0.0
H179 H 0.62328 0.79921 0.79078 0.0
H180 H 0.58736 0.92219 0.77518 0.0
H181 H 0.61668 0.86969 0.76631 0.0
H182 H 0.33342 0.69326 0.84565 0.0
H183 H 0.3694 0.6468 0.84541 0.0
H184 H 0.35696 0.78918 0.85915 0.0
H185 H 0.39711 0.86241 0.8412 0.0
C186 C 0.73122 0.55942 0.17937 0.0
C187 C 0.77397 0.5714 0.14961 0.0
C188 C 0.72951 0.62684 0.11749 0.0
C189 C 0.68925 0.61823 0.14864 0.0
N190 N 0.66577 0.5935 0.21514 0.0
N191 N 0.82483 0.63091 0.09676 0.0
C192 C 0.6943 0.58969 0.18141 0.0
C193 C 0.77656 0.6097 0.12069 0.0
N194 N 0.72318 0.51656 0.20439 0.0
N195 N 0.72094 0.64786 0.08371 0.0
H196 H 0.86083 0.62032 0.09883 0.0
H197 H 0.83273 0.66442 0.07792 0.0
H198 H 0.68672 0.66017 0.07924 0.0
H199 H 0.74419 0.64747 0.05833 0.0
H200 H 0.6875 0.50057 0.22345 0.0
H201 H 0.74831 0.49236 0.20355 0.0
H202 H 0.67277 0.57874 0.2413 0.0
H203 H 0.641 0.6182 0.21857 0.0
C204 C 0.22841 0.79318 0.48657 0.0
C205 C 0.28171 0.78775 0.49501 0.0
C206 C 0.21486 0.67189 0.49689 0.0
C207 C 0.1615 0.67608 0.48565 0.0
N208 N 0.1146 0.74202 0.4817 0.0
N209 N 0.32506 0.72965 0.52197 0.0
C210 C 0.16747 0.73759 0.48485 0.0
C211 C 0.27449 0.72958 0.5051 0.0
N212 N 0.23641 0.85058 0.47833 0.0
N213 N 0.20963 0.61267 0.49668 0.0
H214 H 0.36889 0.77182 0.52853 0.0
H215 H 0.32216 0.69012 0.53304 0.0
H216 H 0.16692 0.56918 0.49126 0.0
H217 H 0.24811 0.60625 0.49953 0.0
H218 H 0.20009 0.85614 0.46743 0.0
H219 H 0.28052 0.89252 0.48118 0.0
H220 H 0.11516 0.78578 0.48369 0.0
H221 H 0.06974 0.7016 0.48064 0.0
C222 C 0.49285 0.25412 0.812 0.0
C223 C 0.55436 0.30869 0.8211 0.0
C224 C 0.59807 0.23663 0.82029 0.0
C225 C 0.53701 0.18228 0.80945 0.0
N226 N 0.4253 0.13708 0.80574 0.0
N227 N 0.6622 0.35196 0.84573 0.0
C228 C 0.48401 0.19051 0.80927 0.0
C229 C 0.60589 0.29979 0.82922 0.0
N230 N 0.44368 0.26279 0.80315 0.0
N231 N 0.64882 0.22813 0.81986 0.0
H232 H 0.66886 0.39854 0.85332 0.0
H233 H 0.70029 0.34826 0.85542 0.0
H234 H 0.64448 0.18234 0.81504 0.0
H235 H 0.69504 0.26621 0.8223 0.0
H236 H 0.39916 0.22497 0.79164 0.0
H237 H 0.44813 0.30841 0.80498 0.0
H238 H 0.38456 0.13943 0.80876 0.0
H239 H 0.41804 0.09017 0.80348 0.0
C240 C 0.48399 0.73869 0.48513 0.0
C241 C 0.52459 0.79965 0.50942 0.0
C242 C 0.58385 0.7554 0.53754 0.0
C243 C 0.54317 0.6947 0.5133 0.0
N244 N 0.46649 0.63246 0.45682 0.0
N245 N 0.62217 0.87102 0.55029 0.0
C246 C 0.49721 0.68779 0.48464 0.0
C247 C 0.57756 0.80961 0.53292 0.0
N248 N 0.43066 0.72788 0.4646 0.0
N249 N 0.62578 0.76043 0.56656 0.0
H250 H 0.61916 0.91186 0.54701 0.0
H251 H 0.6648 0.88219 0.56463 0.0
H252 H 0.63255 0.72211 0.57048 0.0
H253 H 0.65106 0.80135 0.58841 0.0
H254 H 0.39547 0.68213 0.45071 0.0
H255 H 0.41871 0.76349 0.46393 0.0
H256 H 0.4368 0.62693 0.43262 0.0
H257 H 0.47567 0.59444 0.45572 0.0
C258 C 0.81981 0.61371 0.83977 0.0
C259 C 0.7717 0.56155 0.8126 0.0
C260 C 0.82812 0.50195 0.8109 0.0
C261 C 0.87565 0.55343 0.83885 0.0
N262 N 0.92612 0.66486 0.87142 0.0
N263 N 0.73938 0.46663 0.76263 0.0
C264 C 0.87461 0.61173 0.85036 0.0
C265 C 0.77922 0.50936 0.79473 0.0
N266 N 0.812 0.66395 0.85633 0.0
N267 N 0.82723 0.44444 0.80186 0.0
H268 H 0.70351 0.47112 0.74972 0.0
H269 H 0.74589 0.43088 0.74627 0.0
H270 H 0.86235 0.43705 0.81286 0.0
H271 H 0.78936 0.40251 0.78582 0.0
H272 H 0.84166 0.69964 0.87993 0.0
H273 H 0.77385 0.6683 0.84737 0.0
H274 H 0.9305 0.71047 0.87801 0.0
H275 H 0.96704 0.66462 0.8792 0.0
C276 C 0.2716 0.76607 0.12344 0.0
C277 C 0.21159 0.75302 0.13468 0.0
C278 C 0.25651 0.86705 0.16534 0.0
C279 C 0.31743 0.87678 0.16049 0.0
N280 N 0.38455 0.83647 0.13586 0.0
N281 N 0.14508 0.79037 0.16457 0.0
C282 C 0.32544 0.827 0.13898 0.0
C283 C 0.20342 0.80359 0.15478 0.0
N284 N 0.27744 0.71983 0.09874 0.0
N285 N 0.24993 0.91888 0.18004 0.0
H286 H 0.10472 0.74547 0.15503 0.0
H287 H 0.13673 0.82273 0.18334 0.0
H288 H 0.28831 0.96583 0.18767 0.0
H289 H 0.20689 0.91677 0.18147 0.0
H290 H 0.31858 0.7289 0.08594 0.0
H291 H 0.24016 0.67308 0.08881 0.0
H292 H 0.39375 0.79968 0.1252 0.0
H293 H 0.42509 0.88077 0.14612 0.0
C294 C 0.59396 0.3328 0.46187 0.0
C295 C 0.53278 0.27773 0.45731 0.0
C296 C 0.48893 0.3467 0.47932 0.0
C297 C 0.55076 0.39896 0.49134 0.0
N298 N 0.66289 0.44333 0.49497 0.0
N299 N 0.42123 0.23036 0.45881 0.0
C300 C 0.60364 0.39298 0.48208 0.0
C301 C 0.47979 0.2843 0.46455 0.0
N302 N 0.64276 0.32704 0.44761 0.0
N303 N 0.43943 0.35709 0.48234 0.0
H304 H 0.41333 0.18472 0.44596 0.0
H305 H 0.38104 0.23019 0.46787 0.0
H306 H 0.44529 0.40265 0.49306 0.0
H307 H 0.3935 0.32239 0.47131 0.0
H308 H 0.68762 0.36632 0.44705 0.0
H309 H 0.63691 0.28337 0.43274 0.0
H310 H 0.70288 0.43923 0.49371 0.0
H311 H 0.67204 0.48866 0.50934 0.0
C312 C 0.22662 0.47747 0.86989 0.0
C313 C 0.26368 0.50286 0.83823 0.0
C314 C 0.19937 0.54867 0.82067 0.0
C315 C 0.16477 0.52658 0.85376 0.0
N316 N 0.13223 0.45451 0.90232 0.0
N317 N 0.27025 0.5403 0.77481 0.0
C318 C 0.17414 0.4858 0.87594 0.0
C319 C 0.24485 0.53071 0.81054 0.0
N320 N 0.24283 0.44678 0.89468 0.0
N321 N 0.19194 0.59027 0.8006 0.0
H322 H 0.30133 0.5251 0.76539 0.0
H323 H 0.25464 0.55591 0.75235 0.0
H324 H 0.1588 0.6042 0.80692 0.0
H325 H 0.22173 0.61479 0.77973 0.0
H326 H 0.22329 0.4346 0.92143 0.0
H327 H 0.27767 0.43507 0.8888 0.0
H328 H 0.13321 0.4199 0.91713 0.0
H329 H 0.09263 0.4588 0.90663 0.0
C330 C 0.67091 0.31128 0.16388 0.0
C331 C 0.72546 0.31895 0.18427 0.0
C332 C 0.66355 0.21085 0.20284 0.0
C333 C 0.60814 0.20744 0.18738 0.0
N334 N 0.55696 0.25226 0.15308 0.0
N335 N 0.77567 0.27713 0.22249 0.0
C336 C 0.6113 0.25669 0.16735 0.0
C337 C 0.72243 0.26862 0.20319 0.0
N338 N 0.67628 0.35642 0.14137 0.0
N339 N 0.65957 0.15866 0.2171 0.0
H340 H 0.81994 0.31692 0.221 0.0
H341 H 0.77611 0.24639 0.2411 0.0
H342 H 0.61702 0.11595 0.21737 0.0
H343 H 0.69826 0.1553 0.2258 0.0
H344 H 0.63964 0.35114 0.12272 0.0
H345 H 0.71899 0.39758 0.139 0.0
H346 H 0.55485 0.28969 0.14245 0.0
H347 H 0.51292 0.21135 0.15342 0.0
C348 C 0.97319 0.57547 0.03598 0.0
C349 C 0.95869 0.51583 0.04793 0.0
C350 C 0.92982 0.46142 0.97822 0.0
C351 C 0.95205 0.52262 0.96607 0.0
N352 N 0.00018 0.63907 0.9824 0.0
N353 N 0.92633 0.40254 0.03173 0.0
C354 C 0.97462 0.57999 -0.00532 0.0
C355 C 0.93738 0.45869 0.01943 0.0
N356 N -0.01514 0.62752 0.06417 0.0
N357 N 0.90073 0.40609 0.95031 0.0
H358 H 0.92965 0.39858 0.06184 0.0
H359 H 0.91757 0.36104 0.01222 0.0
H360 H 0.89457 0.4067 0.91986 0.0
H361 H 0.8782 0.35954 0.95746 0.0
H362 H -0.01107 0.6701 0.05718 0.0
H363 H -0.01471 0.62632 0.09484 0.0
H364 H 0.0243 0.68311 0.00186 0.0
H365 H 0.00129 0.64449 0.95236 0.0
C366 C 0.48843 0.96872 0.3489 0.0
C367 C 0.4591 0.99308 0.37618 0.0
C368 C 0.41026 0.01337 0.32077 0.0
C369 C 0.43712 0.9861 0.29349 0.0
N370 N 0.49224 0.92745 0.2802 0.0
N371 N 0.38324 0.02714 0.38856 0.0
C372 C 0.47312 0.96034 0.30716 0.0
C373 C 0.41743 0.01218 0.36224 0.0
N374 N 0.53344 0.95702 0.36281 0.0
N375 N 0.3792 0.04173 0.30707 0.0
H376 H 0.38674 0.02597 0.41912 0.0
H377 H 0.34748 0.03516 0.37981 0.0
H378 H 0.37102 0.0414 0.27672 0.0
H379 H 0.3651 0.06927 0.32575 0.0
H380 H 0.5616 0.94643 0.34435 0.0
H381 H 0.54652 0.96303 0.39318 0.0
H382 H 0.51249 0.90127 0.28838 0.0
H383 H 0.48338 0.92193 0.24929 0.0
C384 C 0.55095 0.46757 0.69139 0.0
C385 C 0.52604 0.50528 0.71033 0.0
C386 C 0.51027 0.53014 0.64523 0.0
C387 C 0.54697 0.50435 0.62828 0.0
N388 N 0.61548 0.46198 0.63993 0.0
N389 N 0.50105 0.5897 0.7051 0.0
C390 C 0.57132 0.47688 0.65267 0.0
C391 C 0.51086 0.54151 0.68728 0.0
N392 N 0.55252 0.42079 0.70913 0.0
N393 N 0.47365 0.54243 0.6215 0.0
H394 H 0.50909 0.60594 0.73587 0.0
H395 H 0.49383 0.61952 0.68878 0.0
H396 H 0.46802 0.53009 0.59038 0.0
H397 H 0.44322 0.55736 0.63316 0.0
H398 H 0.56679 0.38969 0.69487 0.0
H399 H 0.5316 0.40724 0.73536 0.0
H400 H 0.6377 0.44665 0.65846 0.0
H401 H 0.63495 0.47196 0.61286 0.0
C402 C 0.57217 0.06841 0.62111 0.0
C403 C 0.51387 0.04178 0.59784 0.0
C404 C 0.45812 0.02067 0.65831 0.0
C405 C 0.51609 0.04422 0.68122 0.0
N406 N 0.62674 0.08104 0.68469 0.0
N407 N 0.40086 0.98604 0.59251 0.0
C408 C 0.57265 0.06498 0.66262 0.0
C409 C 0.45662 0.01598 0.61596 0.0
N410 N 0.62715 0.10005 0.60394 0.0
N411 N 0.4049 0.00457 0.67727 0.0
H412 H 0.39815 0.98424 0.56157 0.0
H413 H 0.35729 0.95954 0.60313 0.0
H414 H 0.40375 0.00477 0.70807 0.0
H415 H 0.3626 -0.00556 0.66305 0.0
H416 H 0.67107 0.1269 0.62015 0.0
H417 H 0.6289 0.10431 0.5737 0.0
H418 H 0.66792 0.08954 0.67215 0.0
H419 H 0.62928 0.08098 0.71544 0.0
C420 C 0.51436 0.60286 0.95423 0.0
C421 C 0.49868 0.54065 0.93357 0.0
C422 C 0.46815 0.49456 -0.00469 0.0
C423 C 0.48171 0.55628 0.01561 0.0
N424 N 0.50979 0.66711 0.01464 0.0
N425 N 0.45614 0.42591 0.93243 0.0
C426 C 0.50246 0.60989 -0.00492 0.0
C427 C 0.47404 0.48601 0.95353 0.0
N428 N 0.54177 0.65532 0.93487 0.0
N429 N 0.45145 0.44469 0.01641 0.0
H430 H 0.46413 0.41824 0.90257 0.0
H431 H 0.4307 0.38288 0.94371 0.0
H432 H 0.4436 0.44811 0.0466 0.0
H433 H 0.44833 0.40081 0.00487 0.0
H434 H 0.56051 0.70311 0.94902 0.0
H435 H 0.54945 0.6516 0.90466 0.0
H436 H 0.51851 0.70621 0.00064 0.0
H437 H 0.50294 0.67426 0.04481 0.0
C438 C 0.07773 0.56959 0.29371 0.0
C439 C 0.01671 0.53045 0.27275 0.0
C440 C 0.97348 0.51326 0.33736 0.0
C441 C 0.03465 0.54191 0.35728 0.0
N442 N 0.14372 0.57584 0.34914 0.0
N443 N 0.90999 0.44462 0.27711 0.0
C444 C 0.08654 0.56319 0.33386 0.0
C445 C 0.96538 0.49592 0.2952 0.0
N446 N 0.12651 0.61602 0.27714 0.0
N447 N 0.92343 0.50505 0.35782 0.0
H448 H 0.90466 0.42428 0.24713 0.0
H449 H 0.87306 0.41679 0.29337 0.0
H450 H 0.92795 0.52327 0.38816 0.0
H451 H 0.87906 0.48757 0.34328 0.0
H452 H 0.17028 0.64704 0.29315 0.0
H453 H 0.12125 0.63041 0.25044 0.0
H454 H 0.1813 0.58771 0.33167 0.0
H455 H 0.15099 0.56659 0.37734 0.0
loop_
_geom_bond_atom_site_label_1
_geom_bond_atom_site_label_2
_geom_bond_distance
_geom_bond_site_symmetry_2
_ccdc_geom_bond_type
Zn0 O6 1.969 . S
Zn0 O7 1.965 . S
Zn0 O11 2.024 . S
Zn0 O16 1.969 . S
Zn1 O8 1.969 . S
Zn1 O14 1.969 . S
Zn1 O15 1.965 . S
Zn1 O17 2.024 . S
C2 O3 1.229 . S
C2 O11 1.058 . S
O3 C2 1.229 . S
C4 O5 1.229 . S
C4 O17 1.058 . S
O5 C4 1.229 . S
O6 Zn0 1.969 . S
O6 C9 1.267 . S
O7 Zn0 1.965 . S
O7 C18 1.260 . S
O8 Zn1 1.969 . S
O8 C18 1.258 1_655 S
C9 O6 1.267 . S
C9 O10 1.228 . S
O10 C9 1.228 . S
O11 Zn0 2.024 . S
O11 C2 1.058 . S
C12 O13 1.228 . S
C12 O14 1.267 . S
O13 C12 1.228 . S
O14 Zn1 1.969 . S
O14 C12 1.267 . S
O15 Zn1 1.965 . S
O15 C19 1.260 1_655 S
O16 Zn0 1.969 . S
O16 C19 1.258 . S
O17 Zn1 2.024 . S
O17 C4 1.058 . S
C18 O7 1.260 . S
C18 O8 1.258 1_455 S
C19 O15 1.260 1_455 S
C19 O16 1.258 . S
Zn20 O26 1.969 . S
Zn20 O27 1.965 . S
Zn20 O31 2.024 . S
Zn20 O36 1.969 . S
Zn21 O28 1.969 . S
Zn21 O34 1.969 . S
Zn21 O35 1.965 1_565 S
Zn21 O37 2.024 . S
C22 O23 1.229 . S
C22 O31 1.058 . S
O23 C22 1.229 . S
C24 O25 1.229 . S
C24 O37 1.058 . S
O25 C24 1.229 . S
O26 Zn20 1.969 . S
O26 C29 1.267 . S
O27 Zn20 1.965 . S
O27 C38 1.260 . S
O28 Zn21 1.969 . S
O28 C38 1.258 1_565 S
C29 O26 1.267 . S
C29 O30 1.228 . S
O30 C29 1.228 . S
O31 Zn20 2.024 . S
O31 C22 1.058 . S
C32 O33 1.228 . S
C32 O34 1.267 . S
O33 C32 1.228 . S
O34 Zn21 1.969 . S
O34 C32 1.267 . S
O35 Zn21 1.965 1_545 S
O35 C39 1.260 . S
O36 Zn20 1.969 . S
O36 C39 1.258 . S
O37 Zn21 2.024 . S
O37 C24 1.058 . S
C38 O27 1.260 . S
C38 O28 1.258 1_545 S
C39 O35 1.260 . S
C39 O36 1.258 . S
Zn40 O46 1.969 . S
Zn40 O47 1.965 . S
Zn40 O51 2.024 . S
Zn40 O56 1.969 . S
Zn41 O48 1.969 . S
Zn41 O54 1.969 . S
Zn41 O55 1.965 . S
Zn41 O57 2.024 . S
C42 O43 1.229 . S
C42 O51 1.058 . S
O43 C42 1.229 . S
C44 O45 1.229 . S
C44 O57 1.058 . S
O45 C44 1.229 . S
O46 Zn40 1.969 . S
O46 C49 1.267 . S
O47 Zn40 1.965 . S
O47 C58 1.260 . S
O48 Zn41 1.969 . S
O48 C58 1.258 . S
C49 O46 1.267 . S
C49 O50 1.228 . S
O50 C49 1.228 . S
O51 Zn40 2.024 . S
O51 C42 1.058 . S
C52 O53 1.228 . S
C52 O54 1.267 . S
O53 C52 1.228 . S
O54 Zn41 1.969 . S
O54 C52 1.267 . S
O55 Zn41 1.965 . S
O55 C59 1.260 . S
O56 Zn40 1.969 . S
O56 C59 1.258 . S
O57 Zn41 2.024 . S
O57 C44 1.058 . S
C58 O47 1.260 . S
C58 O48 1.258 . S
C59 O55 1.260 . S
C59 O56 1.258 . S
H60 C65 0.930 . S
H61 C68 0.930 . S
H62 C70 0.930 . S
H63 C64 1.016 . S
C64 H63 1.016 . S
C64 N71 1.286 . S
C65 H60 0.930 . S
C65 C66 1.397 1_545 S
C65 C67 1.361 . S
C66 C65 1.397 1_565 S
C66 C70 1.390 . S
C67 C65 1.361 . S
C67 C68 1.393 . S
C67 N71 1.413 . S
C68 H61 0.930 . S
C68 C67 1.393 . S
C68 C69 1.399 . S
C69 C68 1.399 . S
C69 C70 1.381 1_545 S
C70 H62 0.930 . S
C70 C66 1.390 . S
C70 C69 1.381 1_565 S
N71 C64 1.286 . S
N71 C67 1.413 . S
H72 C77 0.930 . S
H73 C80 0.930 . S
H74 C82 0.930 . S
H75 C76 1.016 . S
C76 H75 1.016 . S
C76 N83 1.286 . S
C77 H72 0.930 . S
C77 C78 1.397 . S
C77 C79 1.361 . S
C78 C77 1.397 . S
C78 C82 1.390 . S
C79 C77 1.361 . S
C79 C80 1.393 . S
C79 N83 1.413 . S
C80 H73 0.930 . S
C80 C79 1.393 . S
C80 C81 1.399 . S
C81 C80 1.399 . S
C81 C82 1.381 . S
C82 H74 0.930 . S
C82 C78 1.390 . S
C82 C81 1.381 . S
N83 C76 1.286 . S
N83 C79 1.413 . S
H84 C89 0.930 . S
H85 C92 0.930 . S
H86 C94 0.930 . S
H87 C88 1.016 . S
C88 H87 1.016 . S
C88 N95 1.286 . S
C89 H84 0.930 . S
C89 C90 1.397 . S
C89 C91 1.361 1_655 S
C90 C89 1.397 . S
C90 C94 1.390 . S
C91 C89 1.361 1_455 S
C91 C92 1.393 . S
C91 N95 1.413 . S
C92 H85 0.930 . S
C92 C91 1.393 . S
C92 C93 1.399 . S
C93 C92 1.399 . S
C93 C94 1.381 1_455 S
C94 H86 0.930 . S
C94 C90 1.390 . S
C94 C93 1.381 1_655 S
N95 C88 1.286 . S
N95 C91 1.413 . S
H96 C101 0.930 . S
H97 C104 0.930 . S
H98 C106 0.930 . S
H99 C100 1.016 . S
C100 H99 1.016 . S
C100 N107 1.286 . S
C101 H96 0.930 . S
C101 C102 1.397 . S
C101 C103 1.361 . S
C102 C101 1.397 . S
C102 C106 1.390 . S
C103 C101 1.361 . S
C103 C104 1.393 1_455 S
C103 N107 1.413 1_455 S
C104 H97 0.930 . S
C104 C103 1.393 1_655 S
C104 C105 1.399 1_655 S
C105 C104 1.399 1_455 S
C105 C106 1.381 . S
C106 H98 0.930 . S
C106 C102 1.390 . S
C106 C105 1.381 . S
N107 C100 1.286 . S
N107 C103 1.413 1_655 S
H108 C113 0.930 . S
H109 C116 0.930 1_565 S
H110 C118 0.930 . S
H111 C112 1.016 . S
C112 H111 1.016 . S
C112 N119 1.286 . S
C113 H108 0.930 . S
C113 C114 1.397 . S
C113 C115 1.361 . S
C114 C113 1.397 . S
C114 C118 1.390 . S
C115 C113 1.361 . S
C115 C116 1.393 . S
C115 N119 1.413 1_545 S
C116 H109 0.930 1_545 S
C116 C115 1.393 . S
C116 C117 1.399 . S
C117 C116 1.399 . S
C117 C118 1.381 . S
C118 H110 0.930 . S
C118 C114 1.390 . S
C118 C117 1.381 . S
N119 C112 1.286 . S
N119 C115 1.413 1_565 S
H120 C125 0.930 . S
H121 C128 0.930 . S
H122 C130 0.930 . S
H123 C124 1.016 . S
C124 H123 1.016 . S
C124 N131 1.286 . S
C125 H120 0.930 . S
C125 C126 1.397 . S
C125 C127 1.361 . S
C126 C125 1.397 . S
C126 C130 1.390 . S
C127 C125 1.361 . S
C127 C128 1.393 . S
C127 N131 1.413 . S
C128 H121 0.930 . S
C128 C127 1.393 . S
C128 C129 1.399 . S
C129 C128 1.399 . S
C129 C130 1.381 . S
C130 H122 0.930 . S
C130 C126 1.390 . S
C130 C129 1.381 . S
N131 C124 1.286 . S
N131 C127 1.413 . S
C132 C133 1.363 . S
C132 C138 1.379 . S
C132 N140 1.356 . S
C133 C132 1.363 . S
C133 C139 1.363 . S
C134 C135 1.363 . S
C134 C139 1.379 . S
C134 N141 1.356 . S
C135 C134 1.363 . S
C135 C138 1.363 . S
N136 C138 1.356 . S
N136 H148 0.984 . S
N136 H149 0.985 . S
N137 C139 1.356 . S
N137 H142 0.984 . S
N137 H143 0.985 . S
C138 C132 1.379 . S
C138 C135 1.363 . S
C138 N136 1.356 . S
C139 C133 1.363 . S
C139 C134 1.379 . S
C139 N137 1.356 . S
N140 C132 1.356 . S
N140 H146 0.984 . S
N140 H147 0.984 . S
N141 C134 1.356 . S
N141 H144 0.984 . S
N141 H145 0.985 . S
H142 N137 0.984 . S
H143 N137 0.985 . S
H144 N141 0.984 . S
H145 N141 0.985 . S
H146 N140 0.984 . S
H147 N140 0.984 . S
H148 N136 0.984 . S
H149 N136 0.985 . S
C150 C151 1.363 . S
C150 C156 1.379 . S
C150 N158 1.356 . S
C151 C150 1.363 . S
C151 C157 1.363 . S
C152 C153 1.363 . S
C152 C157 1.379 . S
C152 N159 1.356 . S
C153 C152 1.363 . S
C153 C156 1.363 . S
N154 C156 1.356 . S
N154 H166 0.984 . S
N154 H167 0.985 . S
N155 C157 1.356 . S
N155 H160 0.984 . S
N155 H161 0.985 . S
C156 C150 1.379 . S
C156 C153 1.363 . S
C156 N154 1.356 . S
C157 C151 1.363 . S
C157 C152 1.379 . S
C157 N155 1.356 . S
N158 C150 1.356 . S
N158 H164 0.984 . S
N158 H165 0.984 . S
N159 C152 1.356 . S
N159 H162 0.984 . S
N159 H163 0.985 . S
H160 N155 0.984 . S
H161 N155 0.985 . S
H162 N159 0.984 . S
H163 N159 0.985 . S
H164 N158 0.984 . S
H165 N158 0.984 . S
H166 N154 0.984 . S
H167 N154 0.985 . S
C168 C169 1.363 . S
C168 C174 1.379 . S
C168 N176 1.356 . S
C169 C168 1.363 . S
C169 C175 1.363 . S
C170 C171 1.363 . S
C170 C175 1.379 . S
C170 N177 1.356 . S
C171 C170 1.363 . S
C171 C174 1.363 . S
N172 C174 1.356 . S
N172 H184 0.984 . S
N172 H185 0.985 . S
N173 C175 1.356 . S
N173 H178 0.984 . S
N173 H179 0.985 . S
C174 C168 1.379 . S
C174 C171 1.363 . S
C174 N172 1.356 . S
C175 C169 1.363 . S
C175 C170 1.379 . S
C175 N173 1.356 . S
N176 C168 1.356 . S
N176 H182 0.984 . S
N176 H183 0.984 . S
N177 C170 1.356 . S
N177 H180 0.984 . S
N177 H181 0.985 . S
H178 N173 0.984 . S
H179 N173 0.985 . S
H180 N177 0.984 . S
H181 N177 0.985 . S
H182 N176 0.984 . S
H183 N176 0.984 . S
H184 N172 0.984 . S
H185 N172 0.985 . S
C186 C187 1.363 . S
C186 C192 1.379 . S
C186 N194 1.356 . S
C187 C186 1.363 . S
C187 C193 1.363 . S
C188 C189 1.363 . S
C188 C193 1.379 . S
C188 N195 1.356 . S
C189 C188 1.363 . S
C189 C192 1.363 . S
N190 C192 1.356 . S
N190 H202 0.984 . S
N190 H203 0.985 . S
N191 C193 1.356 . S
N191 H196 0.984 . S
N191 H197 0.985 . S
C192 C186 1.379 . S
C192 C189 1.363 . S
C192 N190 1.356 . S
C193 C187 1.363 . S
C193 C188 1.379 . S
C193 N191 1.356 . S
N194 C186 1.356 . S
N194 H200 0.984 . S
N194 H201 0.984 . S
N195 C188 1.356 . S
N195 H198 0.984 . S
N195 H199 0.985 . S
H196 N191 0.984 . S
H197 N191 0.985 . S
H198 N195 0.984 . S
H199 N195 0.985 . S
H200 N194 0.984 . S
H201 N194 0.984 . S
H202 N190 0.984 . S
H203 N190 0.985 . S
C204 C205 1.363 . S
C204 C210 1.379 . S
C204 N212 1.356 . S
C205 C204 1.363 . S
C205 C211 1.363 . S
C206 C207 1.363 . S
C206 C211 1.379 . S
C206 N213 1.356 . S
C207 C206 1.363 . S
C207 C210 1.363 . S
N208 C210 1.356 . S
N208 H220 0.984 . S
N208 H221 0.985 . S
N209 C211 1.356 . S
N209 H214 0.984 . S
N209 H215 0.985 . S
C210 C204 1.379 . S
C210 C207 1.363 . S
C210 N208 1.356 . S
C211 C205 1.363 . S
C211 C206 1.379 . S
C211 N209 1.356 . S
N212 C204 1.356 . S
N212 H218 0.984 . S
N212 H219 0.984 . S
N213 C206 1.356 . S
N213 H216 0.984 . S
N213 H217 0.985 . S
H214 N209 0.984 . S
H215 N209 0.985 . S
H216 N213 0.984 . S
H217 N213 0.985 . S
H218 N212 0.984 . S
H219 N212 0.984 . S
H220 N208 0.984 . S
H221 N208 0.985 . S
C222 C223 1.363 . S
C222 C228 1.379 . S
C222 N230 1.356 . S
C223 C222 1.363 . S
C223 C229 1.363 . S
C224 C225 1.363 . S
C224 C229 1.379 . S
C224 N231 1.356 . S
C225 C224 1.363 . S
C225 C228 1.363 . S
N226 C228 1.356 . S
N226 H238 0.984 . S
N226 H239 0.985 . S
N227 C229 1.356 . S
N227 H232 0.984 . S
N227 H233 0.985 . S
C228 C222 1.379 . S
C228 C225 1.363 . S
C228 N226 1.356 . S
C229 C223 1.363 . S
C229 C224 1.379 . S
C229 N227 1.356 . S
N230 C222 1.356 . S
N230 H236 0.984 . S
N230 H237 0.984 . S
N231 C224 1.356 . S
N231 H234 0.984 . S
N231 H235 0.985 . S
H232 N227 0.984 . S
H233 N227 0.985 . S
H234 N231 0.984 . S
H235 N231 0.985 . S
H236 N230 0.984 . S
H237 N230 0.984 . S
H238 N226 0.984 . S
H239 N226 0.985 . S
C240 C241 1.363 . S
C240 C246 1.379 . S
C240 N248 1.356 . S
C241 C240 1.363 . S
C241 C247 1.363 . S
C242 C243 1.363 . S
C242 C247 1.379 . S
C242 N249 1.356 . S
C243 C242 1.363 . S
C243 C246 1.363 . S
N244 C246 1.356 . S
N244 H256 0.984 . S
N244 H257 0.985 . S
N245 C247 1.356 . S
N245 H250 0.984 . S
N245 H251 0.985 . S
C246 C240 1.379 . S
C246 C243 1.363 . S
C246 N244 1.356 . S
C247 C241 1.363 . S
C247 C242 1.379 . S
C247 N245 1.356 . S
N248 C240 1.356 . S
N248 H254 0.984 . S
N248 H255 0.984 . S
N249 C242 1.356 . S
N249 H252 0.984 . S
N249 H253 0.985 . S
H250 N245 0.984 . S
H251 N245 0.985 . S
H252 N249 0.984 . S
H253 N249 0.985 . S
H254 N248 0.984 . S
H255 N248 0.984 . S
H256 N244 0.984 . S
H257 N244 0.985 . S
C258 C259 1.363 . S
C258 C264 1.379 . S
C258 N266 1.356 . S
C259 C258 1.363 . S
C259 C265 1.363 . S
C260 C261 1.363 . S
C260 C265 1.379 . S
C260 N267 1.356 . S
C261 C260 1.363 . S
C261 C264 1.363 . S
N262 C264 1.356 . S
N262 H274 0.984 . S
N262 H275 0.985 . S
N263 C265 1.356 . S
N263 H268 0.984 . S
N263 H269 0.985 . S
C264 C258 1.379 . S
C264 C261 1.363 . S
C264 N262 1.356 . S
C265 C259 1.363 . S
C265 C260 1.379 . S
C265 N263 1.356 . S
N266 C258 1.356 . S
N266 H272 0.984 . S
N266 H273 0.984 . S
N267 C260 1.356 . S
N267 H270 0.984 . S
N267 H271 0.985 . S
H268 N263 0.984 . S
H269 N263 0.985 . S
H270 N267 0.984 . S
H271 N267 0.985 . S
H272 N266 0.984 . S
H273 N266 0.984 . S
H274 N262 0.984 . S
H275 N262 0.985 . S
C276 C277 1.363 . S
C276 C282 1.379 . S
C276 N284 1.356 . S
C277 C276 1.363 . S
C277 C283 1.363 . S
C278 C279 1.363 . S
C278 C283 1.379 . S
C278 N285 1.356 . S
C279 C278 1.363 . S
C279 C282 1.363 . S
N280 C282 1.356 . S
N280 H292 0.984 . S
N280 H293 0.985 . S
N281 C283 1.356 . S
N281 H286 0.984 . S
N281 H287 0.985 . S
C282 C276 1.379 . S
C282 C279 1.363 . S
C282 N280 1.356 . S
C283 C277 1.363 . S
C283 C278 1.379 . S
C283 N281 1.356 . S
N284 C276 1.356 . S
N284 H290 0.984 . S
N284 H291 0.984 . S
N285 C278 1.356 . S
N285 H288 0.984 . S
N285 H289 0.985 . S
H286 N281 0.984 . S
H287 N281 0.985 . S
H288 N285 0.984 . S
H289 N285 0.985 . S
H290 N284 0.984 . S
H291 N284 0.984 . S
H292 N280 0.984 . S
H293 N280 0.985 . S
C294 C295 1.363 . S
C294 C300 1.379 . S
C294 N302 1.356 . S
C295 C294 1.363 . S
C295 C301 1.363 . S
C296 C297 1.363 . S
C296 C301 1.379 . S
C296 N303 1.356 . S
C297 C296 1.363 . S
C297 C300 1.363 . S
N298 C300 1.356 . S
N298 H310 0.984 . S
N298 H311 0.985 . S
N299 C301 1.356 . S
N299 H304 0.984 . S
N299 H305 0.985 . S
C300 C294 1.379 . S
C300 C297 1.363 . S
C300 N298 1.356 . S
C301 C295 1.363 . S
C301 C296 1.379 . S
C301 N299 1.356 . S
N302 C294 1.356 . S
N302 H308 0.984 . S
N302 H309 0.984 . S
N303 C296 1.356 . S
N303 H306 0.984 . S
N303 H307 0.985 . S
H304 N299 0.984 . S
H305 N299 0.985 . S
H306 N303 0.984 . S
H307 N303 0.985 . S
H308 N302 0.984 . S
H309 N302 0.984 . S
H310 N298 0.984 . S
H311 N298 0.985 . S
C312 C313 1.363 . S
C312 C318 1.379 . S
C312 N320 1.356 . S
C313 C312 1.363 . S
C313 C319 1.363 . S
C314 C315 1.363 . S
C314 C319 1.379 . S
C314 N321 1.356 . S
C315 C314 1.363 . S
C315 C318 1.363 . S
N316 C318 1.356 . S
N316 H328 0.984 . S
N316 H329 0.985 . S
N317 C319 1.356 . S
N317 H322 0.984 . S
N317 H323 0.985 . S
C318 C312 1.379 . S
C318 C315 1.363 . S
C318 N316 1.356 . S
C319 C313 1.363 . S
C319 C314 1.379 . S
C319 N317 1.356 . S
N320 C312 1.356 . S
N320 H326 0.984 . S
N320 H327 0.984 . S
N321 C314 1.356 . S
N321 H324 0.984 . S
N321 H325 0.985 . S
H322 N317 0.984 . S
H323 N317 0.985 . S
H324 N321 0.984 . S
H325 N321 0.985 . S
H326 N320 0.984 . S
H327 N320 0.984 . S
H328 N316 0.984 . S
H329 N316 0.985 . S
C330 C331 1.363 . S
C330 C336 1.379 . S
C330 N338 1.356 . S
C331 C330 1.363 . S
C331 C337 1.363 . S
C332 C333 1.363 . S
C332 C337 1.379 . S
C332 N339 1.356 . S
C333 C332 1.363 . S
C333 C336 1.363 . S
N334 C336 1.356 . S
N334 H346 0.984 . S
N334 H347 0.985 . S
N335 C337 1.356 . S
N335 H340 0.984 . S
N335 H341 0.985 . S
C336 C330 1.379 . S
C336 C333 1.363 . S
C336 N334 1.356 . S
C337 C331 1.363 . S
C337 C332 1.379 . S
C337 N335 1.356 . S
N338 C330 1.356 . S
N338 H344 0.984 . S
N338 H345 0.984 . S
N339 C332 1.356 . S
N339 H342 0.984 . S
N339 H343 0.985 . S
H340 N335 0.984 . S
H341 N335 0.985 . S
H342 N339 0.984 . S
H343 N339 0.985 . S
H344 N338 0.984 . S
H345 N338 0.984 . S
H346 N334 0.984 . S
H347 N334 0.985 . S
C348 C349 1.363 . S
C348 C354 1.379 . S
C348 N356 1.356 . S
C349 C348 1.363 . S
C349 C355 1.363 . S
C350 C351 1.363 . S
C350 C355 1.379 1_556 S
C350 N357 1.356 . S
C351 C350 1.363 . S
C351 C354 1.363 1_556 S
N352 C354 1.356 1_556 S
N352 H364 0.984 . S
N352 H365 0.985 . S
N353 C355 1.356 . S
N353 H358 0.984 . S
N353 H359 0.985 . S
C354 C348 1.379 . S
C354 C351 1.363 1_554 S
C354 N352 1.356 1_554 S
C355 C349 1.363 . S
C355 C350 1.379 1_554 S
C355 N353 1.356 . S
N356 C348 1.356 . S
N356 H362 0.984 . S
N356 H363 0.984 . S
N357 C350 1.356 . S
N357 H360 0.984 . S
N357 H361 0.985 . S
H358 N353 0.984 . S
H359 N353 0.985 . S
H360 N357 0.984 . S
H361 N357 0.985 . S
H362 N356 0.984 . S
H363 N356 0.984 . S
H364 N352 0.984 . S
H365 N352 0.985 . S
C366 C367 1.363 1_565 S
C366 C372 1.379 . S
C366 N374 1.356 . S
C367 C366 1.363 1_545 S
C367 C373 1.363 . S
C368 C369 1.363 . S
C368 C373 1.379 . S
C368 N375 1.356 . S
C369 C368 1.363 . S
C369 C372 1.363 1_545 S
N370 C372 1.356 . S
N370 H382 0.984 . S
N370 H383 0.985 . S
N371 C373 1.356 . S
N371 H376 0.984 . S
N371 H377 0.985 . S
C372 C366 1.379 . S
C372 C369 1.363 1_565 S
C372 N370 1.356 . S
C373 C367 1.363 . S
C373 C368 1.379 . S
C373 N371 1.356 . S
N374 C366 1.356 . S
N374 H380 0.984 . S
N374 H381 0.984 . S
N375 C368 1.356 . S
N375 H378 0.984 . S
N375 H379 0.985 . S
H376 N371 0.984 . S
H377 N371 0.985 . S
H378 N375 0.984 . S
H379 N375 0.985 . S
H380 N374 0.984 . S
H381 N374 0.984 . S
H382 N370 0.984 . S
H383 N370 0.985 . S
C384 C385 1.363 . S
C384 C390 1.379 . S
C384 N392 1.356 . S
C385 C384 1.363 . S
C385 C391 1.363 . S
C386 C387 1.363 . S
C386 C391 1.379 . S
C386 N393 1.356 . S
C387 C386 1.363 . S
C387 C390 1.363 . S
N388 C390 1.356 . S
N388 H400 0.984 . S
N388 H401 0.985 . S
N389 C391 1.356 . S
N389 H394 0.984 . S
N389 H395 0.985 . S
C390 C384 1.379 . S
C390 C387 1.363 . S
C390 N388 1.356 . S
C391 C385 1.363 . S
C391 C386 1.379 . S
C391 N389 1.356 . S
N392 C384 1.356 . S
N392 H398 0.984 . S
N392 H399 0.984 . S
N393 C386 1.356 . S
N393 H396 0.984 . S
N393 H397 0.985 . S
H394 N389 0.984 . S
H395 N389 0.985 . S
H396 N393 0.984 . S
H397 N393 0.985 . S
H398 N392 0.984 . S
H399 N392 0.984 . S
H400 N388 0.984 . S
H401 N388 0.985 . S
C402 C403 1.363 . S
C402 C408 1.379 . S
C402 N410 1.356 . S
C403 C402 1.363 . S
C403 C409 1.363 1_545 S
C404 C405 1.363 1_565 S
C404 C409 1.379 . S
C404 N411 1.356 . S
C405 C404 1.363 1_545 S
C405 C408 1.363 . S
N406 C408 1.356 . S
N406 H418 0.984 . S
N406 H419 0.985 . S
N407 C409 1.356 . S
N407 H412 0.984 . S
N407 H413 0.985 . S
C408 C402 1.379 . S
C408 C405 1.363 . S
C408 N406 1.356 . S
C409 C403 1.363 1_565 S
C409 C404 1.379 . S
C409 N407 1.356 . S
N410 C402 1.356 . S
N410 H416 0.984 . S
N410 H417 0.984 . S
N411 C404 1.356 . S
N411 H414 0.984 . S
N411 H415 0.985 . S
H412 N407 0.984 . S
H413 N407 0.985 . S
H414 N411 0.984 . S
H415 N411 0.985 . S
H416 N410 0.984 . S
H417 N410 0.984 . S
H418 N406 0.984 . S
H419 N406 0.985 . S
C420 C421 1.363 . S
C420 C426 1.379 1_556 S
C420 N428 1.356 . S
C421 C420 1.363 . S
C421 C427 1.363 . S
C422 C423 1.363 1_556 S
C422 C427 1.379 . S
C422 N429 1.356 1_556 S
C423 C422 1.363 1_554 S
C423 C426 1.363 . S
N424 C426 1.356 . S
N424 H436 0.984 . S
N424 H437 0.985 . S
N425 C427 1.356 . S
N425 H430 0.984 . S
N425 H431 0.985 . S
C426 C420 1.379 1_554 S
C426 C423 1.363 . S
C426 N424 1.356 . S
C427 C421 1.363 . S
C427 C422 1.379 . S
C427 N425 1.356 . S
N428 C420 1.356 . S
N428 H434 0.984 . S
N428 H435 0.984 . S
N429 C422 1.356 1_554 S
N429 H432 0.984 . S
N429 H433 0.985 . S
H430 N425 0.984 . S
H431 N425 0.985 . S
H432 N429 0.984 . S
H433 N429 0.985 . S
H434 N428 0.984 . S
H435 N428 0.984 . S
H436 N424 0.984 . S
H437 N424 0.985 . S
C438 C439 1.363 . S
C438 C444 1.379 . S
C438 N446 1.356 . S
C439 C438 1.363 . S
C439 C445 1.363 1_455 S
C440 C441 1.363 1_655 S
C440 C445 1.379 . S
C440 N447 1.356 . S
C441 C440 1.363 1_455 S
C441 C444 1.363 . S
N442 C444 1.356 . S
N442 H454 0.984 . S
N442 H455 0.985 . S
N443 C445 1.356 . S
N443 H448 0.984 . S
N443 H449 0.985 . S
C444 C438 1.379 . S
C444 C441 1.363 . S
C444 N442 1.356 . S
C445 C439 1.363 1_655 S
C445 C440 1.379 . S
C445 N443 1.356 . S
N446 C438 1.356 . S
N446 H452 0.984 . S
N446 H453 0.984 . S
N447 C440 1.356 . S
N447 H450 0.984 . S
N447 H451 0.985 . S
H448 N443 0.984 . S
H449 N443 0.985 . S
H450 N447 0.984 . S
H451 N447 0.985 . S
H452 N446 0.984 . S
H453 N446 0.984 . S
H454 N442 0.984 . S
H455 N442 0.985 . S
C133 C2 1.618 . S
C135 C126 1.710 . S
C151 C22 1.503 . S
C153 C100 1.558 . S
C169 C44 1.516 . S
C171 C112 1.555 . S
C187 C4 1.402 . S
C189 C124 1.428 . S
C207 C102 1.540 . S
C205 C24 1.454 . S
C225 C114 1.528 . S
C223 C42 1.422 . S
C241 C32 1.432 . S
C243 C76 1.391 . S
C259 C49 1.497 . S
C261 C90 1.518 . S
C277 C9 1.205 . S
C279 C66 1.236 . S
C297 C78 1.284 . S
C295 C29 1.211 . S
C315 C88 1.194 . S
C313 C52 1.182 . S
C331 C12 1.337 . S
C333 C64 1.347 . S
C351 C93 1.499 . S
C349 C18 1.474 . S
C367 C38 1.473 . S
C369 C69 1.471 . S
C385 C58 1.455 . S
C387 C81 1.490 . S
C405 C117 1.524 . S
C403 C39 1.508 . S
C423 C129 1.586 . S
C421 C59 1.574 . S
C439 C19 1.501 . S
C441 C105 1.523 . S
