# Generated by pormake.
# Topology ptr, (4,4)-cn, num edge types: 1
# Building blocks:
#     Node 0, Type 0, BuildingBlock: KUFVIS_clean_sbu_0, # of connection points: 4
#     Node 1, Type 0, BuildingBlock: KUFVIS_clean_sbu_0, # of connection points: 4
#     Node 2, Type 0, BuildingBlock: KUFVIS_clean_sbu_0, # of connection points: 4
#     Node 3, Type 0, BuildingBlock: KUFVIS_clean_sbu_0, # of connection points: 4
#     Node 4, Type 0, BuildingBlock: KUFVIS_clean_sbu_0, # of connection points: 4
#     Node 5, Type 0, BuildingBlock: KUFVIS_clean_sbu_0, # of connection points: 4
#     Node 6, Type 0, BuildingBlock: KUFVIS_clean_sbu_0, # of connection points: 4
#     Node 7, Type 0, BuildingBlock: KUFVIS_clean_sbu_0, # of connection points: 4
#     Node 8, Type 0, BuildingBlock: KUFVIS_clean_sbu_0, # of connection points: 4
#     Node 9, Type 0, BuildingBlock: KUFVIS_clean_sbu_0, # of connection points: 4
#     Node 10, Type 0, BuildingBlock: KUFVIS_clean_sbu_0, # of connection points: 4
#     Node 11, Type 0, BuildingBlock: KUFVIS_clean_sbu_0, # of connection points: 4
#     Node 12, Type 0, BuildingBlock: KUFVIS_clean_sbu_0, # of connection points: 4
#     Node 13, Type 0, BuildingBlock: KUFVIS_clean_sbu_0, # of connection points: 4
#     Node 14, Type 0, BuildingBlock: KUFVIS_clean_sbu_0, # of connection points: 4
#     Node 15, Type 0, BuildingBlock: KUFVIS_clean_sbu_0, # of connection points: 4
#     Node 16, Type 0, BuildingBlock: KUFVIS_clean_sbu_0, # of connection points: 4
#     Node 17, Type 0, BuildingBlock: KUFVIS_clean_sbu_0, # of connection points: 4
#     Node 18, Type 1, BuildingBlock: NAWXER_clean_linker_0, # of connection points: 4
#     Node 19, Type 1, BuildingBlock: NAWXER_clean_linker_0, # of connection points: 4
#     Node 20, Type 1, BuildingBlock: NAWXER_clean_linker_0, # of connection points: 4
#     Node 21, Type 1, BuildingBlock: NAWXER_clean_linker_0, # of connection points: 4
#     Node 22, Type 1, BuildingBlock: NAWXER_clean_linker_0, # of connection points: 4
#     Node 23, Type 1, BuildingBlock: NAWXER_clean_linker_0, # of connection points: 4
#     Node 24, Type 1, BuildingBlock: NAWXER_clean_linker_0, # of connection points: 4
#     Node 25, Type 1, BuildingBlock: NAWXER_clean_linker_0, # of connection points: 4
#     Node 26, Type 1, BuildingBlock: NAWXER_clean_linker_0, # of connection points: 4
#     Node 27, Type 1, BuildingBlock: NAWXER_clean_linker_0, # of connection points: 4
#     Node 28, Type 1, BuildingBlock: NAWXER_clean_linker_0, # of connection points: 4
#     Node 29, Type 1, BuildingBlock: NAWXER_clean_linker_0, # of connection points: 4
#     Node 30, Type 1, BuildingBlock: NAWXER_clean_linker_0, # of connection points: 4
#     Node 31, Type 1, BuildingBlock: NAWXER_clean_linker_0, # of connection points: 4
#     Node 32, Type 1, BuildingBlock: NAWXER_clean_linker_0, # of connection points: 4
#     Node 33, Type 1, BuildingBlock: NAWXER_clean_linker_0, # of connection points: 4
#     Node 34, Type 1, BuildingBlock: NAWXER_clean_linker_0, # of connection points: 4
#     Node 35, Type 1, BuildingBlock: NAWXER_clean_linker_0, # of connection points: 4
#     Edge 36, Type (0, 1), None
#     Edge 37, Type (0, 1), None
#     Edge 38, Type (0, 1), None
#     Edge 39, Type (0, 1), None
#     Edge 40, Type (0, 1), None
#     Edge 41, Type (0, 1), None
#     Edge 42, Type (0, 1), None
#     Edge 43, Type (0, 1), None
#     Edge 44, Type (0, 1), None
#     Edge 45, Type (0, 1), None
#     Edge 46, Type (0, 1), None
#     Edge 47, Type (0, 1), None
#     Edge 48, Type (0, 1), None
#     Edge 49, Type (0, 1), None
#     Edge 50, Type (0, 1), None
#     Edge 51, Type (0, 1), None
#     Edge 52, Type (0, 1), None
#     Edge 53, Type (0, 1), None
#     Edge 54, Type (0, 1), None
#     Edge 55, Type (0, 1), None
#     Edge 56, Type (0, 1), None
#     Edge 57, Type (0, 1), None
#     Edge 58, Type (0, 1), None
#     Edge 59, Type (0, 1), None
#     Edge 60, Type (0, 1), None
#     Edge 61, Type (0, 1), None
#     Edge 62, Type (0, 1), None
#     Edge 63, Type (0, 1), None
#     Edge 64, Type (0, 1), None
#     Edge 65, Type (0, 1), None
#     Edge 66, Type (0, 1), None
#     Edge 67, Type (0, 1), None
#     Edge 68, Type (0, 1), None
#     Edge 69, Type (0, 1), None
#     Edge 70, Type (0, 1), None
#     Edge 71, Type (0, 1), None
#     Edge 72, Type (0, 1), None
#     Edge 73, Type (0, 1), None
#     Edge 74, Type (0, 1), None
#     Edge 75, Type (0, 1), None
#     Edge 76, Type (0, 1), None
#     Edge 77, Type (0, 1), None
#     Edge 78, Type (0, 1), None
#     Edge 79, Type (0, 1), None
#     Edge 80, Type (0, 1), None
#     Edge 81, Type (0, 1), None
#     Edge 82, Type (0, 1), None
#     Edge 83, Type (0, 1), None
#     Edge 84, Type (0, 1), None
#     Edge 85, Type (0, 1), None
#     Edge 86, Type (0, 1), None
#     Edge 87, Type (0, 1), None
#     Edge 88, Type (0, 1), None
#     Edge 89, Type (0, 1), None
#     Edge 90, Type (0, 1), None
#     Edge 91, Type (0, 1), None
#     Edge 92, Type (0, 1), None
#     Edge 93, Type (0, 1), None
#     Edge 94, Type (0, 1), None
#     Edge 95, Type (0, 1), None
#     Edge 96, Type (0, 1), None
#     Edge 97, Type (0, 1), None
#     Edge 98, Type (0, 1), None
#     Edge 99, Type (0, 1), None
#     Edge 100, Type (0, 1), None
#     Edge 101, Type (0, 1), None
#     Edge 102, Type (0, 1), None
#     Edge 103, Type (0, 1), None
#     Edge 104, Type (0, 1), None
#     Edge 105, Type (0, 1), None
#     Edge 106, Type (0, 1), None
#     Edge 107, Type (0, 1), None
# Relax obj value: 0.038
# Max RMSD: 0.170
# Mean RMSD: 0.065
data_MOF--net-ptr--node1-KUFVIS_clean_sbu_0--node2-NAWXER_clean_linker_0--edge1-none
_symmetry_space_group_name_H-M    P1
_symmetry_Int_Tables_number       1
_symmetry_cell_setting            triclinic
loop_
_symmetry_equiv_pos_as_xyz
'x, y, z'
_cell_length_a     46.985399
_cell_length_b     46.809074
_cell_length_c     33.876265
_cell_angle_alpha  89.573025
_cell_angle_beta   90.520075
_cell_angle_gamma 119.25544
loop_
_atom_site_label
_atom_site_type_symbol
_atom_site_fract_x
_atom_site_fract_y
_atom_site_fract_z
_atom_type_partial_charge
Mn0 Mn 0.99095 0.33745 1.00467 0.0
Mn1 Mn 0.06399 0.40655 1.01067 0.0
C2 C 0.00203 0.38103 0.96276 0.0
C3 C 0.95821 0.28522 0.97954 0.0
C4 C 0.00878 0.38962 0.06839 0.0
O5 O 0.01802 0.32291 0.03823 0.0
O6 O 0.0663 0.3693 0.03495 0.0
C7 C 0.0996 0.38577 0.95666 0.0
N8 N 0.09024 0.40797 0.96715 0.0
C9 C 0.11926 0.4431 0.91261 0.0
C10 C 0.12961 0.42084 0.90152 0.0
C11 C 0.1196 0.39198 0.92356 0.0
C12 C 0.09936 0.43557 0.94588 0.0
H13 H 0.09173 0.36343 0.97331 0.0
C14 C 0.04853 0.33948 0.04555 0.0
O15 O 0.95073 0.29454 1.01196 0.0
O16 O 0.98528 0.30564 0.96251 0.0
N17 N 0.06629 0.44518 0.98832 0.0
C18 C 0.05331 0.46352 1.00224 0.0
C19 C 0.06044 0.49293 0.9831 0.0
C20 C 0.08126 0.50343 0.95027 0.0
C21 C 0.09493 0.48454 0.93708 0.0
C22 C 0.0871 0.45556 0.9575 0.0
H23 H 0.03748 0.45567 0.02759 0.0
O24 O 0.97234 0.35817 0.96886 0.0
O25 O 0.02479 0.37726 0.98029 0.0
O26 O 0.98781 0.36324 0.05156 0.0
O27 O 0.03804 0.40718 0.05613 0.0
C28 C 0.11545 0.49298 0.90396 0.0
C29 C 0.12749 0.47219 0.89162 0.0
H30 H 0.14495 0.42551 0.87594 0.0
H31 H 0.12723 0.37453 0.91499 0.0
H32 H 0.04981 0.50731 0.99375 0.0
H33 H 0.08658 0.52588 0.93513 0.0
H34 H 0.12174 0.51517 0.88743 0.0
H35 H 0.14287 0.47869 0.86578 0.0
Mn36 Mn 0.65046 0.65424 0.03421 0.0
Mn37 Mn 0.65578 0.58499 0.02588 0.0
C38 C 0.62015 0.61026 0.07596 0.0
C39 C 0.66835 0.7066 0.05914 0.0
C40 C 0.61331 0.60056 0.97218 0.0
O41 O 0.69098 0.66933 0.99977 0.0
O42 O 0.69136 0.6216 0.99691 0.0
C43 C 0.71646 0.60916 0.07323 0.0
N44 N 0.68477 0.58621 0.06663 0.0
C45 C 0.68513 0.55429 0.12243 0.0
C46 C 0.71783 0.57749 0.12973 0.0
C47 C 0.73351 0.60511 0.10509 0.0
C48 C 0.66931 0.55989 0.09055 0.0
H49 H 0.72859 0.63042 0.05437 0.0
C50 C 0.70301 0.65175 0.98775 0.0
O51 O 0.65107 0.69675 0.02702 0.0
O52 O 0.67656 0.68665 0.07596 0.0
N53 N 0.62347 0.54658 0.05167 0.0
C54 C 0.59292 0.52531 0.03842 0.0
C55 C 0.57468 0.49533 0.05789 0.0
C56 C 0.58773 0.48758 0.09113 0.0
C57 C 0.61957 0.50946 0.10358 0.0
C58 C 0.63706 0.53851 0.08206 0.0
H59 H 0.58287 0.53079 0.01254 0.0
O60 O 0.61276 0.63328 0.07064 0.0
O61 O 0.64632 0.61421 0.05798 0.0
O62 O 0.6207 0.6281 0.98787 0.0
O63 O 0.62496 0.58225 0.98385 0.0
C64 C 0.63496 0.50323 0.13578 0.0
C65 C 0.66765 0.52579 0.14542 0.0
H66 H 0.73112 0.57435 0.15413 0.0
H67 H 0.75871 0.62317 0.11059 0.0
H68 H 0.55104 0.47799 0.04644 0.0
H69 H 0.57349 0.46438 0.10614 0.0
H70 H 0.62195 0.48108 0.15317 0.0
H71 H 0.67924 0.52077 0.17026 0.0
Mn72 Mn 0.33766 0.98785 0.03067 0.0
Mn73 Mn 0.41056 0.05686 0.02404 0.0
C74 C 0.37964 0.99559 0.07326 0.0
C75 C 0.28518 0.95944 0.05716 0.0
C76 C 0.38696 0.00074 0.96566 0.0
O77 O 0.32751 0.01832 0.99684 0.0
O78 O 0.37578 0.06487 1.00245 0.0
C79 C 0.39993 0.09856 0.08059 0.0
N80 N 0.41774 0.08446 0.06852 0.0
C81 C 0.45658 0.10984 0.12129 0.0
C82 C 0.43877 0.12483 0.13416 0.0
C83 C 0.41027 0.11907 0.11379 0.0
C84 C 0.44508 0.08966 0.08804 0.0
H85 H 0.378 0.09414 0.065 0.0
C86 C 0.34597 0.04901 0.99092 0.0
O87 O 0.29251 0.95034 0.02441 0.0
O88 O 0.30775 0.98609 0.07314 0.0
N89 N 0.44658 0.05258 0.0439 0.0
C90 C 0.46012 0.0351 0.02873 0.0
C91 C 0.4885 0.03763 0.04614 0.0
C92 C 0.50287 0.05836 0.07866 0.0
C93 C 0.48872 0.07639 0.09347 0.0
C94 C 0.46055 0.07303 0.07473 0.0
H95 H 0.44934 0.0193 1.00358 0.0
O96 O 0.35531 0.9665 0.06731 0.0
O97 O 0.37852 0.01934 0.05453 0.0
O98 O 0.36101 0.98074 0.98381 0.0
O99 O 0.40596 0.02995 0.97729 0.0
C100 C 0.50111 0.0971 0.12652 0.0
C101 C 0.48499 0.11372 0.14051 0.0
H102 H 0.44661 0.14059 0.15981 0.0
H103 H 0.39631 0.13042 0.12366 0.0
H104 H 0.49927 0.02363 0.03455 0.0
H105 H 0.52464 0.06009 0.09216 0.0
H106 H 0.52273 0.10001 0.14178 0.0
H107 H 0.49446 0.12918 0.16631 0.0
Mn108 Mn 0.99864 0.66048 1.00691 0.0
Mn109 Mn 0.07065 0.6608 1.00713 0.0
C110 C 0.00758 0.62979 0.96073 0.0
C111 C 0.9665 0.68315 0.98632 0.0
C112 C 0.01519 0.61696 0.06083 0.0
O113 O 0.02643 0.69915 0.04243 0.0
O114 O 0.07172 0.6945 0.04332 0.0
C115 C 0.10707 0.72561 0.9682 0.0
N116 N 0.09763 0.69308 0.96933 0.0
C117 C 0.12796 0.69762 0.91055 0.0
C118 C 0.13817 0.7312 0.9089 0.0
C119 C 0.12759 0.74523 0.93779 0.0
C120 C 0.10736 0.67929 0.94142 0.0
H121 H 0.099 0.73651 0.9903 0.0
C122 C 0.05511 0.70779 0.05485 0.0
O123 O 0.95921 0.66477 0.01767 0.0
O124 O 0.99313 0.68947 0.96823 0.0
N125 N 0.07499 0.6302 0.97428 0.0
C126 C 0.06351 0.59765 0.98063 0.0
C127 C 0.07168 0.57992 0.95427 0.0
C128 C 0.09269 0.59595 0.9226 0.0
C129 C 0.10515 0.62972 0.91744 0.0
C130 C 0.09586 0.6461 0.94446 0.0
H131 H 0.04748 0.58515 1.00499 0.0
O132 O 0.97837 0.62393 0.96889 0.0
O133 O 0.03148 0.65485 0.97859 0.0
O134 O 0.9961 0.62821 0.05093 0.0
O135 O 0.04328 0.62681 0.04542 0.0
C136 C 0.12602 0.64767 0.88624 0.0
C137 C 0.13733 0.68159 0.88271 0.0
H138 H 0.15405 0.74643 0.88553 0.0
H139 H 0.13527 0.7711 0.93665 0.0
H140 H 0.06119 0.55387 0.95799 0.0
H141 H 0.09871 0.58204 0.90216 0.0
H142 H 0.1334 0.63561 0.86471 0.0
H143 H 0.15324 0.69512 0.85851 0.0
Mn144 Mn 0.33634 0.34735 0.02876 0.0
Mn145 Mn 0.4104 0.35242 0.02436 0.0
C146 C 0.37685 0.38107 0.0721 0.0
C147 C 0.28428 0.32277 0.056 0.0
C148 C 0.38757 0.38687 0.96623 0.0
O149 O 0.32751 0.30771 0.99509 0.0
O150 O 0.37719 0.3116 0.99887 0.0
C151 C 0.39764 0.29669 0.07699 0.0
N152 N 0.41577 0.32901 0.0676 0.0
C153 C 0.45199 0.33848 0.12265 0.0
C154 C 0.43391 0.30521 0.1327 0.0
C155 C 0.40656 0.28426 0.10984 0.0
C156 C 0.44204 0.34941 0.08946 0.0
H157 H 0.37652 0.28057 0.05959 0.0
C158 C 0.34732 0.29713 0.98761 0.0
O159 O 0.29031 0.33876 0.0228 0.0
O160 O 0.30757 0.3192 0.07153 0.0
N161 N 0.44505 0.39065 0.04801 0.0
C162 C 0.45813 0.42246 0.03623 0.0
C163 C 0.48444 0.44686 0.05748 0.0
C164 C 0.49748 0.43818 0.08992 0.0
C165 C 0.48416 0.40525 0.10088 0.0
C166 C 0.45773 0.38202 0.07886 0.0
H167 H 0.44817 0.42922 1.01131 0.0
O168 O 0.35214 0.38545 0.06494 0.0
O169 O 0.37711 0.3568 0.05388 0.0
O170 O 0.35987 0.37845 0.98193 0.0
O171 O 0.40743 0.37768 0.97925 0.0
C172 C 0.49517 0.39473 0.13382 0.0
C173 C 0.47906 0.36135 0.14473 0.0
H174 H 0.4406 0.29557 0.15815 0.0
H175 H 0.39235 0.2586 0.11757 0.0
H176 H 0.49452 0.47232 0.04905 0.0
H177 H 0.51742 0.45706 0.10662 0.0
H178 H 0.5155 0.41222 0.1515 0.0
H179 H 0.48734 0.35363 0.17054 0.0
Mn180 Mn 0.65153 0.00208 1.00923 0.0
Mn181 Mn 0.58089 0.93052 0.01957 0.0
C182 C 0.60812 0.98993 0.96687 0.0
C183 C 0.7037 0.03376 0.98309 0.0
C184 C 0.6006 0.98877 0.07317 0.0
O185 O 0.6651 0.97499 0.0445 0.0
O186 O 0.6172 0.92768 0.04614 0.0
C187 C 0.59791 0.88915 0.97039 0.0
N188 N 0.57747 0.90119 0.9786 0.0
C189 C 0.54132 0.87059 0.92541 0.0
C190 C 0.56188 0.85768 0.9165 0.0
C191 C 0.59034 0.86708 0.93903 0.0
C192 C 0.55014 0.89248 0.95698 0.0
H193 H 0.61982 0.89639 0.98764 0.0
C194 C 0.64734 0.94526 0.0555 0.0
O195 O 0.69475 0.04227 0.01498 0.0
O196 O 0.68302 0.00596 0.96738 0.0
N197 N 0.54319 0.92932 0.9959 0.0
C198 C 0.52645 0.94468 1.00772 0.0
C199 C 0.49755 0.9383 0.98792 0.0
C200 C 0.4859 0.91584 0.95661 0.0
C201 C 0.50316 0.8998 0.94556 0.0
C202 C 0.53172 0.90702 0.96653 0.0
H203 H 0.5352 0.96184 0.0319 0.0
O204 O 0.6312 0.01985 0.97165 0.0
O205 O 0.61124 0.96757 0.98652 0.0
O206 O 0.62698 0.00832 0.05548 0.0
O207 O 0.58195 0.95921 0.06252 0.0
C208 C 0.49353 0.87741 0.91406 0.0
C209 C 0.51266 0.86292 0.9039 0.0
H210 H 0.55616 0.8407 0.8923 0.0
H211 H 0.60639 0.85733 0.93222 0.0
H212 H 0.48433 0.95074 0.99669 0.0
H213 H 0.46379 0.91125 0.94113 0.0
H214 H 0.47168 0.87151 0.89714 0.0
H215 H 0.50521 0.84605 0.87932 0.0
Mn216 Mn 0.65343 0.67005 0.3421 0.0
Mn217 Mn 0.72338 0.74213 0.34608 0.0
C218 C 0.66064 0.71167 0.29918 0.0
C219 C 0.62368 0.61775 0.31597 0.0
C220 C 0.66888 0.72129 0.40588 0.0
O221 O 0.68385 0.65904 0.37432 0.0
O222 O 0.73059 0.70702 0.36868 0.0
C223 C 0.76327 0.72862 0.28997 0.0
N224 N 0.75027 0.74757 0.3016 0.0
C225 C 0.77639 0.78558 0.24829 0.0
C226 C 0.79032 0.76664 0.23594 0.0
C227 C 0.78364 0.73798 0.25681 0.0
C228 C 0.75652 0.77517 0.28175 0.0
H229 H 0.75807 0.70653 0.30588 0.0
C230 C 0.71451 0.6771 0.37995 0.0
O231 O 0.61563 0.62505 0.34948 0.0
O232 O 0.64991 0.63998 0.29922 0.0
N233 N 0.71994 0.77824 0.32501 0.0
C234 C 0.70141 0.79131 0.3379 0.0
C235 C 0.70295 0.81843 0.31814 0.0
C236 C 0.7241 0.83225 0.28602 0.0
C237 C 0.7435 0.81889 0.27383 0.0
C238 C 0.74056 0.79152 0.2943 0.0
H239 H 0.68503 0.78067 0.36249 0.0
O240 O 0.63167 0.68795 0.30684 0.0
O241 O 0.68475 0.71029 0.3167 0.0
O242 O 0.64835 0.69454 0.38938 0.0
O243 O 0.69764 0.73969 0.39289 0.0
C244 C 0.76422 0.83049 0.24085 0.0
C245 C 0.78068 0.81385 0.22809 0.0
H246 H 0.80582 0.77362 0.21018 0.0
H247 H 0.7941 0.72311 0.24727 0.0
H248 H 0.68768 0.8285 0.32738 0.0
H249 H 0.72458 0.85259 0.27025 0.0
H250 H 0.76688 0.85158 0.22437 0.0
H251 H 0.79591 0.8225 0.20211 0.0
Mn252 Mn 0.3181 0.98763 0.36999 0.0
Mn253 Mn 0.31918 0.91593 0.36399 0.0
C254 C 0.2865 0.94513 0.41287 0.0
C255 C 0.33771 0.04058 0.39384 0.0
C256 C 0.28073 0.9347 0.30765 0.0
O257 O 0.35845 4e-05 0.33624 0.0
O258 O 0.35697 0.95121 0.33599 0.0
C259 C 0.37799 0.93526 0.41347 0.0
N260 N 0.34591 0.91428 0.40578 0.0
C261 C 0.34222 0.88018 0.46115 0.0
C262 C 0.3753 0.90129 0.46955 0.0
C263 C 0.39322 0.929 0.44566 0.0
C264 C 0.32839 0.8877 0.42872 0.0
H265 H 0.39179 0.95659 0.39519 0.0
C266 C 0.36967 0.98131 0.32577 0.0
O267 O 0.3209 0.03097 0.36137 0.0
O268 O 0.34479 0.02008 0.41147 0.0
N269 N 0.28418 0.87892 0.38909 0.0
C270 C 0.25239 0.86151 0.37744 0.0
C271 C 0.23093 0.83339 0.39867 0.0
C272 C 0.24255 0.82295 0.43096 0.0
C273 C 0.27559 0.84075 0.44166 0.0
C274 C 0.2958 0.86866 0.41946 0.0
H275 H 0.24337 0.86933 0.35253 0.0
O276 O 0.28011 0.9687 0.40619 0.0
O277 O 0.31203 0.94735 0.395 0.0
O278 O 0.28831 0.96218 0.32348 0.0
O279 O 0.29082 0.91543 0.32038 0.0
C280 C 0.28909 0.83241 0.47411 0.0
C281 C 0.32236 0.85217 0.48393 0.0
H282 H 0.38712 0.89658 0.49438 0.0
H283 H 0.41871 0.94549 0.45205 0.0
H284 H 0.20545 0.82009 0.3903 0.0
H285 H 0.22589 0.80153 0.44771 0.0
H286 H 0.27399 0.81109 0.49201 0.0
H287 H 0.33238 0.84572 0.5092 0.0
Mn288 Mn 0.0066 0.32653 0.36373 0.0
Mn289 Mn 0.07893 0.39562 0.35308 0.0
C290 C 0.05001 0.33549 0.40426 0.0
C291 C 0.95557 0.29861 0.39356 0.0
C292 C 0.05438 0.33786 0.297 0.0
O293 O 0.99484 0.35589 0.33019 0.0
O294 O 0.04336 0.40251 0.33124 0.0
C295 C 0.06848 0.43856 0.40783 0.0
N296 N 0.0864 0.42441 0.39639 0.0
C297 C 0.12532 0.45088 0.44881 0.0
C298 C 0.10743 0.46598 0.46096 0.0
C299 C 0.07883 0.45971 0.44044 0.0
C300 C 0.11386 0.43013 0.41604 0.0
H301 H 0.04641 0.43367 0.39223 0.0
C302 C 0.01305 0.38619 0.32184 0.0
O303 O 0.96117 0.28875 0.36025 0.0
O304 O 0.97874 0.32552 0.40812 0.0
N305 N 0.11557 0.39248 0.37303 0.0
C306 C 0.12919 0.37482 0.35865 0.0
C307 C 0.15757 0.37768 0.37648 0.0
C308 C 0.17184 0.39889 0.40863 0.0
C309 C 0.15764 0.41715 0.42256 0.0
C310 C 0.12949 0.41345 0.40343 0.0
H311 H 0.11841 0.35854 0.3339 0.0
O312 O 0.02577 0.30617 0.39945 0.0
O313 O 0.04807 0.35878 0.38541 0.0
O314 O 0.02844 0.31862 0.31577 0.0
O315 O 0.07388 0.36727 0.30763 0.0
C316 C 0.16995 0.43837 0.45517 0.0
C317 C 0.15376 0.45516 0.46835 0.0
H318 H 0.11525 0.48219 0.4862 0.0
H319 H 0.06479 0.47112 0.44978 0.0
H320 H 0.16837 0.3635 0.36556 0.0
H321 H 0.19354 0.40078 0.42255 0.0
H322 H 0.19156 0.44157 0.4707 0.0
H323 H 0.16319 0.47105 0.4938 0.0
Mn324 Mn 0.66458 0.98978 0.34267 0.0
Mn325 Mn 0.73812 0.99353 0.34828 0.0
C326 C 0.67607 0.95771 0.30088 0.0
C327 C 0.63135 0.0098 0.31754 0.0
C328 C 0.68269 0.95333 0.40494 0.0
O329 O 0.69113 0.03071 0.37632 0.0
O330 O 0.73934 0.03178 0.37406 0.0
C331 C 0.77176 0.05115 0.29554 0.0
N332 N 0.7636 0.01974 0.30501 0.0
C333 C 0.79277 0.01595 0.24911 0.0
C334 C 0.80185 0.0484 0.23904 0.0
C335 C 0.79114 0.06601 0.26225 0.0
C336 C 0.77308 0.00235 0.28234 0.0
H337 H 0.76339 0.06471 0.31311 0.0
C338 C 0.72151 0.04402 0.38432 0.0
O339 O 0.62421 0.99294 0.3501 0.0
O340 O 0.65846 0.01616 0.30055 0.0
N341 N 0.74215 0.95881 0.32465 0.0
C342 C 0.73296 0.92858 0.3399 0.0
C343 C 0.74354 0.90862 0.32184 0.0
C344 C 0.76313 0.91969 0.288 0.0
C345 C 0.77264 0.95103 0.27312 0.0
C346 C 0.76236 0.97033 0.29328 0.0
H347 H 0.71846 0.92011 0.36634 0.0
O348 O 0.64632 0.9512 0.30685 0.0
O349 O 0.69865 0.98388 0.31815 0.0
O350 O 0.66191 0.96018 0.38918 0.0
O351 O 0.71215 0.96522 0.39291 0.0
C352 C 0.79269 0.96423 0.23977 0.0
C353 C 0.80246 0.99657 0.22751 0.0
H354 H 0.81694 0.05998 0.2135 0.0
H355 H 0.79783 0.09098 0.25452 0.0
H356 H 0.73727 0.88516 0.33474 0.0
H357 H 0.77156 0.90438 0.27427 0.0
H358 H 0.8008 0.94975 0.22341 0.0
H359 H 0.81774 0.00642 0.20172 0.0
Mn360 Mn 0.00716 0.67093 0.36522 0.0
Mn361 Mn 0.07548 0.66414 0.36133 0.0
C362 C 0.04885 0.69907 0.40996 0.0
C363 C 0.9546 0.65343 0.3887 0.0
C364 C 0.06544 0.7111 0.30947 0.0
O365 O 0.99267 0.63154 0.32914 0.0
O366 O 0.04093 0.63278 0.32547 0.0
C367 C 0.045 0.59853 0.39887 0.0
N368 N 0.06918 0.63035 0.39808 0.0
C369 C 0.09474 0.62231 0.45577 0.0
C370 C 0.0702 0.58942 0.45707 0.0
C371 C 0.04518 0.57751 0.42855 0.0
C372 C 0.09313 0.64213 0.42565 0.0
H373 H 0.0257 0.58924 0.37705 0.0
C374 C 0.01117 0.62146 0.31499 0.0
O375 O 0.96523 0.67144 0.35713 0.0
O376 O 0.97366 0.64403 0.40513 0.0
N377 N 0.11196 0.69227 0.39367 0.0
C378 C 0.13478 0.72403 0.38688 0.0
C379 C 0.16184 0.73945 0.41221 0.0
C380 C 0.16568 0.72195 0.44371 0.0
C381 C 0.14255 0.68891 0.44923 0.0
C382 C 0.11612 0.67476 0.42288 0.0
H383 H 0.13215 0.73758 0.36254 0.0
O384 O 0.02681 0.70748 0.40319 0.0
O385 O 0.04523 0.673 0.39165 0.0
O386 O 0.03607 0.70182 0.32038 0.0
O387 O 0.08298 0.69956 0.32412 0.0
C388 C 0.14472 0.66943 0.47974 0.0
C389 C 0.12074 0.63619 0.48313 0.0
H390 H 0.07032 0.5731 0.47984 0.0
H391 H 0.02611 0.55218 0.42941 0.0
H392 H 0.1797 0.76471 0.40734 0.0
H393 H 0.18656 0.73406 0.46328 0.0
H394 H 0.16475 0.67977 0.50074 0.0
H395 H 0.12263 0.62146 0.50673 0.0
Mn396 Mn 0.31811 0.33527 0.34565 0.0
Mn397 Mn 0.24697 0.2644 0.35712 0.0
C398 C 0.27397 0.32382 0.30493 0.0
C399 C 0.36952 0.3667 0.31751 0.0
C400 C 0.2682 0.32272 0.41086 0.0
O401 O 0.33207 0.30749 0.37905 0.0
O402 O 0.2833 0.26142 0.38338 0.0
C403 C 0.26322 0.22239 0.30804 0.0
N404 N 0.24304 0.23472 0.31634 0.0
C405 C 0.20641 0.20395 0.26358 0.0
C406 C 0.2267 0.19075 0.2546 0.0
C407 C 0.25527 0.20009 0.27687 0.0
C408 C 0.21559 0.22605 0.29498 0.0
H409 H 0.28522 0.22957 0.32508 0.0
C410 C 0.31382 0.2782 0.39124 0.0
O411 O 0.36201 0.37496 0.35064 0.0
O412 O 0.34795 0.33935 0.30177 0.0
N413 N 0.20926 0.26337 0.33372 0.0
C414 C 0.19286 0.2791 0.34548 0.0
C415 C 0.16394 0.27287 0.32586 0.0
C416 C 0.15191 0.25019 0.29479 0.0
C417 C 0.16884 0.23379 0.28378 0.0
C418 C 0.19744 0.24088 0.30456 0.0
H419 H 0.20192 0.29645 0.36945 0.0
O420 O 0.29714 0.35368 0.30992 0.0
O421 O 0.27721 0.30121 0.32372 0.0
O422 O 0.295 0.34154 0.39348 0.0
O423 O 0.24857 0.29352 0.3998 0.0
C424 C 0.15884 0.2112 0.25248 0.0
C425 C 0.17767 0.19638 0.2423 0.0
H426 H 0.2207 0.1736 0.23053 0.0
H427 H 0.27113 0.19012 0.27 0.0
H428 H 0.15099 0.28559 0.33458 0.0
H429 H 0.12978 0.24572 0.27945 0.0
H430 H 0.13694 0.20539 0.23571 0.0
H431 H 0.16995 0.17937 0.21786 0.0
Mn432 Mn 0.31751 0.0023 0.67824 0.0
Mn433 Mn 0.38765 0.07422 0.68227 0.0
C434 C 0.32512 0.0439 0.63497 0.0
C435 C 0.28738 0.94989 0.65256 0.0
C436 C 0.33312 0.05356 0.74199 0.0
O437 O 0.34785 0.99118 0.71063 0.0
O438 O 0.39474 0.03901 0.70475 0.0
C439 C 0.42783 0.06098 0.62632 0.0
N440 N 0.4147 0.07982 0.63791 0.0
C441 C 0.44123 0.11819 0.58505 0.0
C442 C 0.45529 0.09936 0.57273 0.0
C443 C 0.44847 0.07058 0.59339 0.0
C444 C 0.42111 0.10756 0.61828 0.0
H445 H 0.42254 0.0388 0.64209 0.0
C446 C 0.37856 0.00912 0.71611 0.0
O447 O 0.27948 0.95753 0.68592 0.0
O448 O 0.31365 0.97187 0.6356 0.0
N449 N 0.38421 0.11034 0.66126 0.0
C450 C 0.3654 0.12316 0.67392 0.0
C451 C 0.3669 0.15026 0.65415 0.0
C452 C 0.38828 0.16429 0.62228 0.0
C453 C 0.40796 0.15118 0.61035 0.0
C454 C 0.40501 0.1238 0.63076 0.0
H455 H 0.34883 0.11234 0.6983 0.0
O456 O 0.29605 0.02037 0.64269 0.0
O457 O 0.34908 0.04239 0.65273 0.0
O458 O 0.31249 0.02696 0.72534 0.0
O459 O 0.36194 0.07178 0.72911 0.0
C460 C 0.42895 0.16303 0.57761 0.0
C461 C 0.44562 0.14655 0.565 0.0
H462 H 0.47099 0.10652 0.54715 0.0
H463 H 0.45904 0.0558 0.58389 0.0
H464 H 0.35144 0.16016 0.6632 0.0
H465 H 0.38873 0.18461 0.60651 0.0
H466 H 0.43163 0.18415 0.5612 0.0
H467 H 0.46104 0.15538 0.5392 0.0
Mn468 Mn 0.98511 0.32219 0.70369 0.0
Mn469 Mn 0.99106 0.25336 0.69868 0.0
C470 C 0.95358 0.27836 0.74507 0.0
C471 C 0.00184 0.37414 0.7292 0.0
C472 C 0.9482 0.26673 0.64332 0.0
O473 O 0.02692 0.33781 0.67176 0.0
O474 O 0.02508 0.2892 0.66691 0.0
C475 C 0.05333 0.28115 0.74348 0.0
N476 N 0.0218 0.25717 0.73856 0.0
C477 C 0.02523 0.22774 0.79529 0.0
C478 C 0.0578 0.25202 0.80084 0.0
C479 C 0.07186 0.2789 0.77489 0.0
C480 C 0.00791 0.23151 0.76372 0.0
H481 H 0.06424 0.30186 0.72363 0.0
C482 C 0.03756 0.31951 0.6582 0.0
O483 O 0.9864 0.36517 0.6957 0.0
O484 O 0.00881 0.35368 0.74687 0.0
N485 N 0.9605 0.21553 0.72696 0.0
C486 C 0.92957 0.19339 0.71593 0.0
C487 C 0.91262 0.1642 0.73729 0.0
C488 C 0.92737 0.15801 0.77005 0.0
C489 C 0.95957 0.18077 0.78024 0.0
C490 C 0.97566 0.20904 0.75699 0.0
H491 H 0.9181 0.19773 0.6906 0.0
O492 O 0.94586 0.3009 0.73772 0.0
O493 O 0.98064 0.28259 0.72917 0.0
O494 O 0.95729 0.29578 0.65566 0.0
O495 O 0.9586 0.24826 0.65815 0.0
C496 C 0.97652 0.17632 0.81209 0.0
C497 C 0.00927 0.19993 0.81981 0.0
H498 H 0.07221 0.25029 0.82493 0.0
H499 H 0.09695 0.2978 0.77904 0.0
H500 H 0.88859 0.14635 0.7277 0.0
H501 H 0.91403 0.13546 0.78663 0.0
H502 H 0.96463 0.15483 0.83079 0.0
H503 H 0.02204 0.19632 0.84445 0.0
Mn504 Mn 0.67569 0.65793 0.69581 0.0
Mn505 Mn 0.74801 0.72737 0.68688 0.0
C506 C 0.7185 0.66716 0.73765 0.0
C507 C 0.6238 0.62919 0.72397 0.0
C508 C 0.7244 0.67023 0.63002 0.0
O509 O 0.66434 0.6874 0.66163 0.0
O510 O 0.71259 0.73423 0.66501 0.0
C511 C 0.73705 0.76968 0.7421 0.0
N512 N 0.75515 0.75576 0.73051 0.0
C513 C 0.79414 0.78242 0.78281 0.0
C514 C 0.77605 0.79726 0.79514 0.0
C515 C 0.74732 0.79076 0.77477 0.0
C516 C 0.78271 0.76166 0.75005 0.0
H517 H 0.71492 0.76464 0.72656 0.0
C518 C 0.68255 0.71795 0.65448 0.0
O519 O 0.63075 0.61981 0.69115 0.0
O520 O 0.64632 0.65635 0.73899 0.0
N521 N 0.78457 0.72412 0.70698 0.0
C522 C 0.79839 0.70671 0.69242 0.0
C523 C 0.82699 0.70991 0.70999 0.0
C524 C 0.84126 0.73118 0.74207 0.0
C525 C 0.82683 0.74914 0.75623 0.0
C526 C 0.79847 0.74514 0.73734 0.0
H527 H 0.78766 0.69045 0.66763 0.0
O528 O 0.69451 0.63775 0.73252 0.0
O529 O 0.71665 0.6903 0.71845 0.0
O530 O 0.69859 0.65046 0.64862 0.0
O531 O 0.74342 0.69963 0.64101 0.0
C532 C 0.83914 0.77043 0.78879 0.0
C533 C 0.82275 0.78697 0.80215 0.0
H534 H 0.78383 0.81345 0.8204 0.0
H535 H 0.73314 0.80197 0.78425 0.0
H536 H 0.83803 0.69601 0.69887 0.0
H537 H 0.86316 0.73338 0.75573 0.0
H538 H 0.86091 0.77386 0.80415 0.0
H539 H 0.83217 0.80288 0.82758 0.0
Mn540 Mn 0.32825 0.32095 0.67768 0.0
Mn541 Mn 0.40176 0.32459 0.68336 0.0
C542 C 0.33987 0.28898 0.63573 0.0
C543 C 0.29545 0.34154 0.65257 0.0
C544 C 0.34627 0.28448 0.73996 0.0
O545 O 0.35474 0.36172 0.71167 0.0
O546 O 0.40288 0.36272 0.70898 0.0
C547 C 0.43538 0.38212 0.63049 0.0
N548 N 0.42731 0.35076 0.64012 0.0
C549 C 0.45693 0.34706 0.58467 0.0
C550 C 0.46593 0.37945 0.57443 0.0
C551 C 0.45493 0.39699 0.59733 0.0
C552 C 0.43703 0.33343 0.61771 0.0
H553 H 0.42682 0.39562 0.64785 0.0
C554 C 0.38514 0.37497 0.7195 0.0
O555 O 0.28793 0.32434 0.68489 0.0
O556 O 0.32254 0.34769 0.63572 0.0
N557 N 0.4059 0.28988 0.65993 0.0
C558 C 0.39694 0.2598 0.67551 0.0
C559 C 0.40802 0.24004 0.65801 0.0
C560 C 0.4278 0.25111 0.62432 0.0
C561 C 0.43705 0.28229 0.60909 0.0
C562 C 0.42635 0.30144 0.62878 0.0
H563 H 0.38234 0.25136 0.70187 0.0
O564 O 0.31009 0.2825 0.64151 0.0
O565 O 0.36235 0.31502 0.65324 0.0
O566 O 0.3254 0.29115 0.72408 0.0
O567 O 0.37573 0.2964 0.72796 0.0
C568 C 0.45733 0.29551 0.57593 0.0
C569 C 0.46696 0.32777 0.56344 0.0
H570 H 0.48117 0.39106 0.54901 0.0
H571 H 0.46155 0.42192 0.58948 0.0
H572 H 0.40202 0.21677 0.67128 0.0
H573 H 0.4366 0.23595 0.61104 0.0
H574 H 0.46575 0.28113 0.55992 0.0
H575 H 0.48242 0.33765 0.5378 0.0
Mn576 Mn 0.67164 0.01371 0.69562 0.0
Mn577 Mn 0.74485 0.0167 0.69134 0.0
C578 C 0.71279 0.047 0.73889 0.0
C579 C 0.61949 0.99103 0.7222 0.0
C580 C 0.7237 0.05262 0.63349 0.0
O581 O 0.66136 0.9734 0.66236 0.0
O582 O 0.71106 0.97735 0.66414 0.0
C583 C 0.72875 0.95879 0.74157 0.0
N584 N 0.74833 0.99116 0.73342 0.0
C585 C 0.78376 0.99711 0.78817 0.0
C586 C 0.76422 0.96373 0.79687 0.0
C587 C 0.73652 0.94452 0.77354 0.0
C588 C 0.77493 0.00988 0.75574 0.0
H589 H 0.70734 0.944 0.72387 0.0
C590 C 0.68106 0.96298 0.65356 0.0
O591 O 0.62631 0.0068 0.68882 0.0
O592 O 0.64207 0.98664 0.73847 0.0
N593 N 0.78023 0.05329 0.71662 0.0
C594 C 0.7945 0.08557 0.70663 0.0
C595 C 0.82109 0.10849 0.72894 0.0
C596 C 0.83326 0.09783 0.76046 0.0
C597 C 0.81876 0.06443 0.76948 0.0
C598 C 0.79202 0.04277 0.7466 0.0
H599 H 0.78516 0.0938 0.68244 0.0
O600 O 0.68871 0.05229 0.73129 0.0
O601 O 0.71214 0.02207 0.72111 0.0
O602 O 0.69571 0.04385 0.64846 0.0
O603 O 0.74369 0.04386 0.64727 0.0
C604 C 0.8287 0.05202 0.80159 0.0
C605 C 0.81119 0.01836 0.81094 0.0
H606 H 0.77 0.9527 0.82167 0.0
H607 H 0.72116 0.91881 0.78026 0.0
H608 H 0.83194 0.13433 0.72212 0.0
H609 H 0.85323 0.11551 0.7783 0.0
H610 H 0.84923 0.06828 0.8199 0.0
H611 H 0.81863 0.00919 0.83618 0.0
Mn612 Mn 0.98462 0.67238 0.67694 0.0
Mn613 Mn 0.91087 0.60494 0.68914 0.0
C614 C 0.94136 0.66378 0.6362 0.0
C615 C 0.03595 0.69988 0.64772 0.0
C616 C 0.93717 0.66357 0.74351 0.0
O617 O 0.99565 0.64224 0.70995 0.0
O618 O 0.94545 0.59788 0.71362 0.0
C619 C 0.92028 0.55895 0.63865 0.0
N620 N 0.90293 0.57422 0.648 0.0
C621 C 0.86335 0.54539 0.59697 0.0
C622 C 0.8807 0.5292 0.58691 0.0
C623 C 0.90933 0.53609 0.60777 0.0
C624 C 0.87539 0.56784 0.62808 0.0
H625 H 0.94228 0.56421 0.65466 0.0
C626 C 0.97611 0.61297 0.72129 0.0
O627 O 0.03025 0.70956 0.68104 0.0
O628 O 0.01255 0.67334 0.63254 0.0
N629 N 0.87502 0.60837 0.66705 0.0
C630 C 0.86246 0.62774 0.67867 0.0
C631 C 0.83435 0.62473 0.65987 0.0
C632 C 0.8193 0.60165 0.62963 0.0
C633 C 0.83251 0.58179 0.61844 0.0
C634 C 0.86046 0.58577 0.63838 0.0
H635 H 0.87388 0.64545 0.70199 0.0
O636 O 0.96575 0.69303 0.64116 0.0
O637 O 0.94274 0.64039 0.65556 0.0
O638 O 0.96379 0.68133 0.72523 0.0
O639 O 0.91613 0.63481 0.73265 0.0
C640 C 0.81952 0.55876 0.58763 0.0
C641 C 0.83497 0.54063 0.57685 0.0
H642 H 0.87242 0.51167 0.563 0.0
H643 H 0.92292 0.5238 0.60006 0.0
H644 H 0.8243 0.64015 0.66863 0.0
H645 H 0.79779 0.59959 0.61499 0.0
H646 H 0.79802 0.55526 0.57154 0.0
H647 H 0.82509 0.52342 0.55266 0.0
C648 C 0.26034 0.33398 0.11446 0.0
C649 C 0.25565 0.31579 0.07993 0.0
C650 C 0.23389 0.32843 0.13801 0.0
C651 C 0.20229 0.30343 0.12854 0.0
C652 C 0.22418 0.29147 0.06952 0.0
C653 C 0.19771 0.28523 0.09379 0.0
C654 C 0.17344 0.29929 0.15095 0.0
C655 C 0.24079 0.2945 0.24534 0.0
C656 C 0.24783 0.317 0.27611 0.0
C657 C 0.21605 0.28867 0.21783 0.0
C658 C 0.19877 0.30607 0.22018 0.0
C659 C 0.23133 0.33503 0.27766 0.0
C660 C 0.20682 0.32936 0.25029 0.0
C661 C 0.17177 0.3004 0.19264 0.0
C662 C 0.06106 0.29349 0.26492 0.0
C663 C 0.06477 0.32514 0.26343 0.0
C664 C 0.07748 0.28421 0.23796 0.0
C665 C 0.09697 0.30602 0.20838 0.0
C666 C 0.083 0.34632 0.2326 0.0
C667 C 0.0988 0.33678 0.20519 0.0
C668 C 0.12055 0.29969 0.18691 0.0
C669 C 0.09883 0.33746 0.06261 0.0
C670 C 0.06522 0.32478 0.06811 0.0
C671 C 0.11662 0.32809 0.08717 0.0
C672 C 0.10144 0.30587 0.11819 0.0
C673 C 0.04937 0.30102 0.09764 0.0
C674 C 0.06742 0.29161 0.12262 0.0
C675 C 0.1225 0.2993 0.14539 0.0
H676 H 0.2845 0.35321 0.12265 0.0
H677 H 0.23819 0.34437 0.16295 0.0
H678 H 0.22011 0.27725 0.04291 0.0
H679 H 0.1735 0.26642 0.08513 0.0
H680 H 0.25416 0.2812 0.24287 0.0
H681 H 0.2102 0.27039 0.1952 0.0
H682 H 0.23695 0.35307 0.30058 0.0
H683 H 0.19416 0.34337 0.25264 0.0
H684 H 0.04757 0.27685 0.28867 0.0
H685 H 0.07633 0.26064 0.24144 0.0
H686 H 0.08636 0.3709 0.23085 0.0
H687 H 0.1143 0.3543 0.18322 0.0
H688 H 0.11178 0.35557 0.03992 0.0
H689 H 0.14273 0.33942 0.08274 0.0
H690 H 0.02344 0.29083 0.10248 0.0
H691 H 0.05493 0.27372 0.14564 0.0
N692 N 0.14858 0.29857 0.12938 0.0
N693 N 0.14518 0.30012 0.20863 0.0
C694 C 0.64153 0.91135 0.11451 0.0
C695 C 0.66078 0.93001 0.08272 0.0
C696 C 0.65145 0.89338 0.13828 0.0
C697 C 0.68076 0.89342 0.13067 0.0
C698 C 0.6908 0.93124 0.07587 0.0
C699 C 0.70048 0.91257 0.09936 0.0
C700 C 0.68802 0.87015 0.15237 0.0
C701 C 0.70068 0.94786 0.24055 0.0
C702 C 0.68206 0.93606 0.27504 0.0
C703 C 0.70294 0.92609 0.21412 0.0
C704 C 0.6856 0.89207 0.22115 0.0
C705 C 0.66512 0.9023 0.28224 0.0
C706 C 0.66707 0.88063 0.25587 0.0
C707 C 0.68699 0.86779 0.19406 0.0
C708 C 0.68729 0.74329 0.23792 0.0
C709 C 0.66479 0.73577 0.2685 0.0
C710 C 0.69263 0.768 0.21062 0.0
C711 C 0.67438 0.78443 0.21242 0.0
C712 C 0.64485 0.75025 0.26858 0.0
C713 C 0.64969 0.77441 0.24094 0.0
C714 C 0.68325 0.815 0.18993 0.0
C715 C 0.64889 0.74416 0.08276 0.0
C716 C 0.6746 0.73724 0.07846 0.0
C717 C 0.65316 0.77092 0.10523 0.0
C718 C 0.6834 0.79156 0.12294 0.0
C719 C 0.70519 0.75851 0.09509 0.0
C720 C 0.70981 0.78612 0.11617 0.0
C721 C 0.68693 0.81849 0.14856 0.0
H722 H 0.61828 0.91002 0.12041 0.0
H723 H 0.63542 0.87825 0.1616 0.0
H724 H 0.70587 0.94523 0.05128 0.0
H725 H 0.72295 0.91252 0.09264 0.0
H726 H 0.71321 0.97382 0.23391 0.0
H727 H 0.71828 0.93593 0.18841 0.0
H728 H 0.65007 0.89263 0.30827 0.0
H729 H 0.65347 0.85467 0.26245 0.0
H730 H 0.70184 0.73116 0.23631 0.0
H731 H 0.71272 0.77572 0.19056 0.0
H732 H 0.6265 0.74394 0.29114 0.0
H733 H 0.63501 0.7864 0.24301 0.0
H734 H 0.62505 0.72802 0.07024 0.0
H735 H 0.63266 0.77509 0.10954 0.0
H736 H 0.72539 0.75372 0.09188 0.0
H737 H 0.73361 0.80243 0.12865 0.0
N738 N 0.68841 0.84559 0.1313 0.0
N739 N 0.6841 0.84007 0.21066 0.0
C740 C 0.0931 0.73416 0.11138 0.0
C741 C 0.07055 0.73444 0.08405 0.0
C742 C 0.11018 0.76043 0.13691 0.0
C743 C 0.10529 0.78766 0.13541 0.0
C744 C 0.06462 0.7611 0.08364 0.0
C745 C 0.0823 0.78781 0.10876 0.0
C746 C 0.12775 0.81753 0.15722 0.0
C747 C 0.06303 0.74813 0.25592 0.0
C748 C 0.08104 0.7374 0.27923 0.0
C749 C 0.07888 0.77366 0.22835 0.0
C750 C 0.11294 0.78904 0.22424 0.0
C751 C 0.115 0.75246 0.27387 0.0
C752 C 0.13068 0.77805 0.2471 0.0
C753 C 0.13136 0.818 0.19859 0.0
C754 C 0.23136 0.92963 0.27269 0.0
C755 C 0.25777 0.92348 0.27391 0.0
C756 C 0.20663 0.91427 0.24442 0.0
C757 C 0.20859 0.89353 0.21618 0.0
C758 C 0.26038 0.90387 0.24449 0.0
C759 C 0.23609 0.88923 0.21566 0.0
C760 C 0.17914 0.87046 0.19427 0.0
C761 C 0.23494 0.90532 0.06723 0.0
C762 C 0.25433 0.93821 0.07824 0.0
C763 C 0.20897 0.88372 0.09092 0.0
C764 C 0.20161 0.89447 0.12612 0.0
C765 C 0.24587 0.9495 0.11215 0.0
C766 C 0.21952 0.92795 0.13556 0.0
C767 C 0.17595 0.87002 0.15267 0.0
H768 H 0.09804 0.71385 0.11248 0.0
H769 H 0.12837 0.76015 0.15655 0.0
H770 H 0.0475 0.76199 0.0627 0.0
H771 H 0.07866 0.80891 0.10673 0.0
H772 H 0.03684 0.73697 0.2591 0.0
H773 H 0.06475 0.78195 0.21111 0.0
H774 H 0.12984 0.74495 0.29091 0.0
H775 H 0.15696 0.78947 0.24436 0.0
H776 H 0.22868 0.94447 0.29518 0.0
H777 H 0.18518 0.91722 0.24581 0.0
H778 H 0.28059 0.89887 0.24469 0.0
H779 H 0.23763 0.87269 0.19466 0.0
H780 H 0.24076 0.89582 0.0413 0.0
H781 H 0.19548 0.8582 0.08243 0.0
H782 H 0.26009 0.97483 0.12116 0.0
H783 H 0.2136 0.9375 0.16131 0.0
N784 N 0.15011 0.84353 0.13593 0.0
N785 N 0.15678 0.84453 0.2153 0.0
C786 C 0.3461 0.08468 0.80499 0.0
C787 C 0.32305 0.06626 0.7758 0.0
C788 C 0.33936 0.10259 0.83253 0.0
C789 C 0.30953 0.10265 0.83125 0.0
C790 C 0.29243 0.06475 0.77594 0.0
C791 C 0.28591 0.08324 0.80314 0.0
C792 C 0.30553 0.12697 0.85471 0.0
C793 C 0.30753 0.05329 0.9414 0.0
C794 C 0.33348 0.06803 0.96868 0.0
C795 C 0.29891 0.0727 0.91765 0.0
C796 C 0.31612 0.10705 0.92104 0.0
C797 C 0.34972 0.10224 0.9727 0.0
C798 C 0.34114 0.12138 0.94934 0.0
C799 C 0.30906 0.12916 0.89623 0.0
C800 C 0.31021 0.2559 0.93715 0.0
C801 C 0.33618 0.26676 0.96444 0.0
C802 C 0.30206 0.22837 0.91352 0.0
C803 C 0.31957 0.21124 0.9173 0.0
C804 C 0.35332 0.24929 0.96811 0.0
C805 C 0.34501 0.22186 0.94505 0.0
C806 C 0.3114 0.18139 0.89431 0.0
C807 C 0.35774 0.26047 0.80039 0.0
C808 C 0.33532 0.25982 0.77218 0.0
C809 C 0.34832 0.23523 0.82815 0.0
C810 C 0.31645 0.20859 0.8279 0.0
C811 C 0.30302 0.23377 0.77303 0.0
C812 C 0.29381 0.20811 0.80028 0.0
C813 C 0.30855 0.17959 0.85283 0.0
H814 H 0.36997 0.08645 0.80538 0.0
H815 H 0.35826 0.11796 0.85332 0.0
H816 H 0.27445 0.05119 0.75334 0.0
H817 H 0.26296 0.08341 0.80125 0.0
H818 H 0.29458 0.02698 0.93761 0.0
H819 H 0.27903 0.06094 0.89666 0.0
H820 H 0.36963 0.11448 0.99358 0.0
H821 H 0.35483 0.14773 0.95283 0.0
H822 H 0.2967 0.26901 0.93353 0.0
H823 H 0.282 0.22031 0.89269 0.0
H824 H 0.37339 0.25684 0.98886 0.0
H825 H 0.35888 0.20909 0.94864 0.0
H826 H 0.38279 0.28014 0.80044 0.0
H827 H 0.36639 0.23578 0.84871 0.0
H828 H 0.28528 0.23239 0.75138 0.0
H829 H 0.26927 0.18752 0.7992 0.0
N830 N 0.30534 0.15227 0.83469 0.0
N831 N 0.31142 0.1561 0.91408 0.0
C832 C 0.94252 0.23074 0.94957 0.0
C833 C 0.93461 0.25507 0.95948 0.0
C834 C 0.9203 0.20321 0.92809 0.0
C835 C 0.89093 0.20086 0.9144 0.0
C836 C 0.90449 0.25175 0.94756 0.0
C837 C 0.88296 0.22501 0.92481 0.0
C838 C 0.86736 0.17269 0.89095 0.0
C839 C 0.89836 0.23539 0.76522 0.0
C840 C 0.9322 0.25082 0.77115 0.0
C841 C 0.87721 0.21099 0.79105 0.0
C842 C 0.88923 0.2014 0.82383 0.0
C843 C 0.94447 0.24206 0.80424 0.0
C844 C 0.92328 0.21692 0.82967 0.0
C845 C 0.86551 0.17391 0.84928 0.0
C846 C 0.74984 0.10034 0.77032 0.0
C847 C 0.73646 0.06626 0.76984 0.0
C848 C 0.77334 0.11905 0.79851 0.0
C849 C 0.78369 0.10405 0.82705 0.0
C850 C 0.74451 0.05092 0.80021 0.0
C851 C 0.76853 0.06969 0.82807 0.0
C852 C 0.8133 0.12515 0.85078 0.0
C853 C 0.75426 0.04615 0.94537 0.0
C854 C 0.734 0.0568 0.96257 0.0
C855 C 0.78174 0.0681 0.92375 0.0
C856 C 0.78805 0.10032 0.91692 0.0
C857 C 0.7417 0.08964 0.95796 0.0
C858 C 0.76827 0.11111 0.93496 0.0
C859 C 0.8157 0.1234 0.89223 0.0
H860 H 0.96572 0.233 0.95852 0.0
H861 H 0.92643 0.18434 0.92104 0.0
H862 H 0.89809 0.27041 0.95476 0.0
H863 H 0.86008 0.2232 0.91517 0.0
H864 H 0.8882 0.24222 0.74041 0.0
H865 H 0.85122 0.19964 0.78531 0.0
H866 H 0.97046 0.25438 0.81015 0.0
H867 H 0.93381 0.20914 0.85288 0.0
H868 H 0.74312 0.11262 0.74789 0.0
H869 H 0.78443 0.14548 0.797 0.0
H870 H 0.7333 0.02448 0.80131 0.0
H871 H 0.77674 0.05721 0.84807 0.0
H872 H 0.74893 0.021 0.94885 0.0
H873 H 0.79757 0.05971 0.9115 0.0
H874 H 0.72638 0.0984 0.97087 0.0
H875 H 0.77317 0.13608 0.93082 0.0
N876 N 0.84238 0.14762 0.9107 0.0
N877 N 0.83839 0.15011 0.83133 0.0
C878 C 0.75774 0.69726 0.9656 0.0
C879 C 0.73126 0.66551 0.96082 0.0
C880 C 0.78603 0.70766 0.9429 0.0
C881 C 0.78773 0.6868 0.91449 0.0
C882 C 0.73296 0.64508 0.93182 0.0
C883 C 0.76081 0.65559 0.90893 0.0
C884 C 0.81839 0.69581 0.89328 0.0
C885 C 0.76065 0.65625 0.76713 0.0
C886 C 0.74327 0.6734 0.76797 0.0
C887 C 0.78492 0.66275 0.79517 0.0
C888 C 0.79161 0.68587 0.82512 0.0
C889 C 0.74858 0.69524 0.79897 0.0
C890 C 0.77281 0.70165 0.82731 0.0
C891 C 0.81971 0.69434 0.85177 0.0
C892 C 0.91319 0.65702 0.81042 0.0
C893 C 0.92843 0.67712 0.77759 0.0
C894 C 0.89816 0.66658 0.83883 0.0
C895 C 0.89766 0.69615 0.83453 0.0
C896 C 0.93023 0.7079 0.77497 0.0
C897 C 0.91449 0.71712 0.80295 0.0
C898 C 0.87327 0.70092 0.85647 0.0
C899 C 0.95361 0.71526 0.93703 0.0
C900 C 0.94362 0.69285 0.96863 0.0
C901 C 0.93077 0.71998 0.91537 0.0
C902 C 0.89741 0.70179 0.92432 0.0
C903 C 0.91069 0.67688 0.97974 0.0
C904 C 0.8878 0.68128 0.95775 0.0
C905 C 0.87212 0.70226 0.89811 0.0
H906 H 0.75715 0.71334 0.98801 0.0
H907 H 0.80675 0.73172 0.94795 0.0
H908 H 0.71291 0.62049 0.92742 0.0
H909 H 0.76175 0.63879 0.88783 0.0
H910 H 0.75625 0.63869 0.74398 0.0
H911 H 0.79885 0.64997 0.79309 0.0
H912 H 0.7345 0.70786 0.80071 0.0
H913 H 0.77762 0.71974 0.84988 0.0
H914 H 0.91136 0.63308 0.81294 0.0
H915 H 0.88467 0.64966 0.86238 0.0
H916 H 0.94143 0.72359 0.74964 0.0
H917 H 0.91377 0.73972 0.79866 0.0
H918 H 0.97894 0.7283 0.92813 0.0
H919 H 0.93913 0.73704 0.89084 0.0
H920 H 0.90226 0.65952 1.00399 0.0
H921 H 0.8623 0.66723 0.96569 0.0
N922 N 0.84468 0.69976 0.91483 0.0
N923 N 0.84715 0.69722 0.83524 0.0
C924 C 0.71808 0.63801 0.42887 0.0
C925 C 0.73309 0.66383 0.40148 0.0
C926 C 0.73702 0.62861 0.45215 0.0
C927 C 0.77116 0.64482 0.44813 0.0
C928 C 0.76705 0.67894 0.39659 0.0
C929 C 0.78576 0.66945 0.41944 0.0
C930 C 0.79264 0.63757 0.47368 0.0
C931 C 0.7524 0.68036 0.56503 0.0
C932 C 0.73491 0.65846 0.59565 0.0
C933 C 0.76811 0.67178 0.53644 0.0
C934 C 0.76688 0.64124 0.53813 0.0
C935 C 0.73183 0.62706 0.59577 0.0
C936 C 0.74813 0.61872 0.56754 0.0
C937 C 0.79052 0.63592 0.51526 0.0
C938 C 0.903 0.6777 0.60116 0.0
C939 C 0.91731 0.65769 0.60472 0.0
C940 C 0.87957 0.67144 0.57192 0.0
C941 C 0.87025 0.6453 0.5454 0.0
C942 C 0.9097 0.63292 0.57682 0.0
C943 C 0.88574 0.6262 0.54798 0.0
C944 C 0.84188 0.63684 0.51906 0.0
C945 C 0.90535 0.61851 0.42958 0.0
C946 C 0.92436 0.64764 0.4085 0.0
C947 C 0.87856 0.61456 0.45162 0.0
C948 C 0.87163 0.64041 0.4549 0.0
C949 C 0.91608 0.67266 0.40974 0.0
C950 C 0.89008 0.66915 0.43296 0.0
C951 C 0.8431 0.63657 0.47736 0.0
H952 H 0.69194 0.62588 0.43325 0.0
H953 H 0.72508 0.60904 0.4735 0.0
H954 H 0.77941 0.69869 0.37553 0.0
H955 H 0.81198 0.68229 0.41553 0.0
H956 H 0.75524 0.70477 0.5643 0.0
H957 H 0.78311 0.68989 0.51469 0.0
H958 H 0.71889 0.60989 0.61931 0.0
H959 H 0.74746 0.5953 0.56986 0.0
H960 H 0.90916 0.6975 0.62176 0.0
H961 H 0.86802 0.68659 0.57069 0.0
H962 H 0.92147 0.61799 0.57822 0.0
H963 H 0.87821 0.605 0.52959 0.0
H964 H 0.91107 0.59873 0.42876 0.0
H965 H 0.86324 0.5913 0.46596 0.0
H966 H 0.93047 0.69544 0.39394 0.0
H967 H 0.88445 0.68899 0.43398 0.0
N968 N 0.81867 0.63744 0.45652 0.0
N969 N 0.81533 0.6359 0.53605 0.0
C970 C 0.30775 0.24349 0.44956 0.0
C971 C 0.32716 0.26257 0.41809 0.0
C972 C 0.31764 0.22542 0.47313 0.0
C973 C 0.34716 0.22581 0.46577 0.0
C974 C 0.35732 0.26405 0.41139 0.0
C975 C 0.36702 0.24531 0.43475 0.0
C976 C 0.35459 0.20271 0.48762 0.0
C977 C 0.36511 0.27958 0.57573 0.0
C978 C 0.34606 0.2675 0.60986 0.0
C979 C 0.36798 0.25807 0.54946 0.0
C980 C 0.35083 0.22402 0.55626 0.0
C981 C 0.32927 0.2337 0.61683 0.0
C982 C 0.33182 0.21227 0.59059 0.0
C983 C 0.35287 0.20003 0.52928 0.0
C984 C 0.35246 0.0753 0.57382 0.0
C985 C 0.32958 0.06785 0.60392 0.0
C986 C 0.35829 0.10007 0.54637 0.0
C987 C 0.34012 0.11661 0.54748 0.0
C988 C 0.30967 0.08238 0.60323 0.0
C989 C 0.31496 0.10656 0.57539 0.0
C990 C 0.34953 0.14741 0.52514 0.0
C991 C 0.31816 0.0784 0.41593 0.0
C992 C 0.34378 0.07118 0.41309 0.0
C993 C 0.32181 0.10479 0.43866 0.0
C994 C 0.35138 0.1248 0.45813 0.0
C995 C 0.37378 0.0919 0.4314 0.0
C996 C 0.37786 0.11921 0.45273 0.0
C997 C 0.35413 0.15134 0.48389 0.0
H998 H 0.28441 0.24197 0.45545 0.0
H999 H 0.30149 0.21002 0.4962 0.0
H1000 H 0.37255 0.27838 0.38709 0.0
H1001 H 0.38966 0.24555 0.42821 0.0
H1002 H 0.37755 0.30557 0.56927 0.0
H1003 H 0.38367 0.26815 0.52408 0.0
H1004 H 0.31393 0.22381 0.64259 0.0
H1005 H 0.31833 0.18628 0.59698 0.0
H1006 H 0.36698 0.06312 0.57274 0.0
H1007 H 0.3787 0.10776 0.52687 0.0
H1008 H 0.29102 0.07612 0.62537 0.0
H1009 H 0.3003 0.11858 0.57692 0.0
H1010 H 0.29475 0.06269 0.40213 0.0
H1011 H 0.30132 0.10914 0.4418 0.0
H1012 H 0.39391 0.08688 0.42935 0.0
H1013 H 0.40124 0.13515 0.46644 0.0
N1014 N 0.35566 0.17848 0.46662 0.0
N1015 N 0.34983 0.17224 0.54581 0.0
C1016 C 0.77187 0.0954 0.40152 0.0
C1017 C 0.7381 0.07523 0.40641 0.0
C1018 C 0.78931 0.12285 0.425 0.0
C1019 C 0.77367 0.1309 0.45444 0.0
C1020 C 0.72186 0.08413 0.43431 0.0
C1021 C 0.73957 0.1118 0.4583 0.0
C1022 C 0.79436 0.15837 0.48132 0.0
C1023 C 0.73012 0.10291 0.59882 0.0
C1024 C 0.73513 0.07568 0.59976 0.0
C1025 C 0.74693 0.12826 0.57157 0.0
C1026 C 0.7681 0.12621 0.54413 0.0
C1027 C 0.75508 0.073 0.57099 0.0
C1028 C 0.77126 0.09795 0.54327 0.0
C1029 C 0.79196 0.15582 0.52282 0.0
C1030 C 0.91104 0.27102 0.5915 0.0
C1031 C 0.92281 0.25243 0.61184 0.0
C1032 C 0.88563 0.25613 0.56357 0.0
C1033 C 0.87154 0.22244 0.55607 0.0
C1034 C 0.90894 0.21891 0.60313 0.0
C1035 C 0.8835 0.20413 0.57604 0.0
C1036 C 0.84359 0.20467 0.52894 0.0
C1037 C 0.93256 0.26357 0.45254 0.0
C1038 C 0.92732 0.27704 0.41797 0.0
C1039 C 0.9063 0.24154 0.47544 0.0
C1040 C 0.87417 0.23371 0.46538 0.0
C1041 C 0.89542 0.26873 0.40692 0.0
C1042 C 0.86909 0.24747 0.43064 0.0
C1043 C 0.84546 0.20825 0.48731 0.0
H1044 H 0.78518 0.08954 0.38007 0.0
H1045 H 0.81549 0.13705 0.42112 0.0
H1046 H 0.69583 0.06909 0.43865 0.0
H1047 H 0.72674 0.11788 0.48017 0.0
H1048 H 0.71518 0.10573 0.62094 0.0
H1049 H 0.74472 0.1502 0.5732 0.0
H1050 H 0.75937 0.05226 0.5711 0.0
H1051 H 0.78801 0.09619 0.52295 0.0
H1052 H 0.92117 0.2969 0.59742 0.0
H1053 H 0.87664 0.27064 0.54848 0.0
H1054 H 0.91723 0.20365 0.61781 0.0
H1055 H 0.87307 0.17812 0.57056 0.0
H1056 H 0.95704 0.26912 0.46101 0.0
H1057 H 0.91138 0.22976 0.49989 0.0
H1058 H 0.89088 0.27866 0.38012 0.0
H1059 H 0.84461 0.24132 0.42146 0.0
N1060 N 0.82065 0.18487 0.46545 0.0
N1061 N 0.81674 0.17891 0.54473 0.0
C1062 C 0.97677 0.58081 0.11446 0.0
C1063 C 0.00433 0.5901 0.09047 0.0
C1064 C 0.96708 0.55489 0.14169 0.0
C1065 C 0.98454 0.53768 0.14476 0.0
C1066 C 0.02184 0.57298 0.09447 0.0
C1067 C 0.01192 0.54705 0.12089 0.0
C1068 C 0.97518 0.50953 0.17184 0.0
C1069 C 0.01979 0.59643 0.25515 0.0
C1070 C 0.99862 0.5955 0.28479 0.0
C1071 C 0.01049 0.57 0.22977 0.0
C1072 C 0.97983 0.54201 0.23356 0.0
C1073 C 0.96721 0.56828 0.28727 0.0
C1074 C 0.95806 0.54145 0.26214 0.0
C1075 C 0.97345 0.51166 0.21318 0.0
C1076 C 0.01402 0.43803 0.30227 0.0
C1077 C -0.00049 0.40387 0.29876 0.0
C1078 C 0.00457 0.45588 0.2776 0.0
C1079 C 0.98067 0.44019 0.24829 0.0
C1080 C 0.97439 0.38778 0.27075 0.0
C1081 C 0.96514 0.40584 0.24552 0.0
C1082 C 0.97361 0.46079 0.22072 0.0
C1083 C 0.96567 0.39531 0.10495 0.0
C1084 C 0.99823 0.40205 0.10215 0.0
C1085 C 0.95695 0.41166 0.13265 0.0
C1086 C 0.98035 0.43419 0.15875 0.0
C1087 C 0.02124 0.42341 0.12971 0.0
C1088 C 0.01231 0.4392 0.15791 0.0
C1089 C 0.97386 0.45804 0.17928 0.0
H1090 H 0.9628 0.59354 0.11224 0.0
H1091 H 0.94581 0.548 0.1598 0.0
H1092 H 0.04322 0.57928 0.07684 0.0
H1093 H 0.02598 0.53437 0.12291 0.0
H1094 H 0.04414 0.61718 0.25254 0.0
H1095 H 0.02809 0.57067 0.20882 0.0
H1096 H 0.95057 0.56689 0.31009 0.0
H1097 H 0.93454 0.51976 0.26604 0.0
H1098 H 0.0333 0.45119 0.32366 0.0
H1099 H 0.01695 0.48229 0.28055 0.0
H1100 H 0.96282 0.36147 0.2673 0.0
H1101 H 0.9462 0.39305 0.22367 0.0
H1102 H 0.94744 0.37913 0.08402 0.0
H1103 H 0.93235 0.40807 0.13227 0.0
H1104 H 0.04646 0.42898 0.12841 0.0
H1105 H 0.0309 0.45709 0.1772 0.0
N1106 N 0.97478 0.48255 0.1567 0.0
N1107 N 0.97288 0.48729 0.23589 0.0
C1108 C 0.40823 0.38638 0.1342 0.0
C1109 C 0.40057 0.40095 0.10247 0.0
C1110 C 0.43178 0.40594 0.16213 0.0
C1111 C 0.4472 0.44023 0.15896 0.0
C1112 C 0.41408 0.435 0.10114 0.0
C1113 C 0.43743 0.45447 0.12888 0.0
C1114 C 0.47603 0.46198 0.18311 0.0
C1115 C 0.39272 0.40898 0.26536 0.0
C1116 C 0.39773 0.39054 0.2946 0.0
C1117 C 0.41886 0.43224 0.24332 0.0
C1118 C 0.45048 0.43684 0.24924 0.0
C1119 C 0.4294 0.39589 0.3019 0.0
C1120 C 0.45564 0.41891 0.27929 0.0
C1121 C 0.47806 0.46067 0.22461 0.0
C1122 C 0.58731 0.59512 0.25847 0.0
C1123 C 0.60038 0.58936 0.29299 0.0
C1124 C 0.5646 0.56908 0.2359 0.0
C1125 C 0.55574 0.53667 0.24623 0.0
C1126 C 0.59058 0.55712 0.30473 0.0
C1127 C 0.5685 0.53088 0.28129 0.0
C1128 C 0.53072 0.50898 0.22282 0.0
C1129 C 0.61004 0.5732 0.13481 0.0
C1130 C 0.59857 0.58196 0.10089 0.0
C1131 C 0.58802 0.54894 0.16071 0.0
C1132 C 0.5541 0.53432 0.15406 0.0
C1133 C 0.56493 0.5667 0.09376 0.0
C1134 C 0.54306 0.54318 0.11977 0.0
C1135 C 0.5292 0.50914 0.18091 0.0
H1136 H 0.39677 0.35997 0.13663 0.0
H1137 H 0.439 0.39433 0.18485 0.0
H1138 H 0.40758 0.4466 0.07762 0.0
H1139 H 0.44869 0.48086 0.12606 0.0
H1140 H 0.36851 0.40561 0.25983 0.0
H1141 H 0.41427 0.4466 0.22158 0.0
H1142 H 0.43375 0.38212 0.32472 0.0
H1143 H 0.47987 0.42239 0.28487 0.0
H1144 H 0.59408 0.6199 0.24946 0.0
H1145 H 0.55373 0.57441 0.2106 0.0
H1146 H 0.60023 0.55229 0.33158 0.0
H1147 H 0.56131 0.50608 0.29055 0.0
H1148 H 0.63589 0.58537 0.14154 0.0
H1149 H 0.59754 0.54199 0.186 0.0
H1150 H 0.55543 0.57347 0.06822 0.0
H1151 H 0.51723 0.53243 0.11333 0.0
N1152 N 0.50171 0.48577 0.1634 0.0
N1153 N 0.50537 0.48432 0.24284 0.0
C1154 C 0.42425 0.02532 0.30102 0.0
C1155 C 0.39755 0.9935 0.29837 0.0
C1156 C 0.45159 0.03477 0.27687 0.0
C1157 C 0.45203 0.01287 0.24901 0.0
C1158 C 0.39805 0.97193 0.27006 0.0
C1159 C 0.4249 0.98154 0.24559 0.0
C1160 C 0.48176 0.02098 0.22627 0.0
C1161 C 0.42094 0.98269 0.10121 0.0
C1162 C 0.4044 0.00065 0.1032 0.0
C1163 C 0.44529 0.98808 0.1287 0.0
C1164 C 0.45297 0.01092 0.15926 0.0
C1165 C 0.41054 0.02207 0.13493 0.0
C1166 C 0.43489 0.0274 0.16272 0.0
C1167 C 0.48164 0.01877 0.18472 0.0
C1168 C 0.57346 0.97996 0.13852 0.0
C1169 C 0.58964 0.00091 0.10664 0.0
C1170 C 0.55821 0.98909 0.16711 0.0
C1171 C 0.55845 0.01909 0.16395 0.0
C1172 C 0.59178 0.03189 0.10499 0.0
C1173 C 0.57581 0.04068 0.13311 0.0
C1174 C 0.53489 0.02432 0.18697 0.0
C1175 C 0.61736 0.03897 0.26504 0.0
C1176 C 0.60802 0.01816 0.29818 0.0
C1177 C 0.59415 0.04314 0.24336 0.0
C1178 C 0.56102 0.0259 0.25381 0.0
C1179 C 0.57536 0.00292 0.31034 0.0
C1180 C 0.55211 0.0067 0.28834 0.0
C1181 C 0.53516 0.02638 0.22862 0.0
H1182 H 0.4245 0.04233 0.32271 0.0
H1183 H 0.47253 0.05895 0.28023 0.0
H1184 H 0.37772 0.94731 0.26715 0.0
H1185 H 0.42492 0.96403 0.22486 0.0
H1186 H 0.41587 0.96539 0.07752 0.0
H1187 H 0.45861 0.97477 0.12559 0.0
H1188 H 0.3971 0.03529 0.13762 0.0
H1189 H 0.44045 0.04534 0.18571 0.0
H1190 H 0.57148 0.95594 0.14043 0.0
H1191 H 0.54433 0.97178 0.19014 0.0
H1192 H 0.60383 0.04833 0.0805 0.0
H1193 H 0.57568 0.06366 0.12976 0.0
H1194 H 0.64247 0.05143 0.25528 0.0
H1195 H 0.6021 0.05932 0.21798 0.0
H1196 H 0.5674 0.9868 0.33579 0.0
H1197 H 0.52685 0.99338 0.29748 0.0
N1198 N 0.50852 0.02472 0.24657 0.0
N1199 N 0.5083 0.02079 0.16694 0.0
C1200 C 0.59516 0.00258 0.78001 0.0
C1201 C 0.59064 0.98483 0.74516 0.0
C1202 C 0.56845 0.9978 0.80253 0.0
C1203 C 0.53671 0.97391 0.79173 0.0
C1204 C 0.55902 0.96192 0.73319 0.0
C1205 C 0.53225 0.95635 0.75648 0.0
C1206 C 0.50783 0.96963 0.81417 0.0
C1207 C 0.57435 0.96102 0.9073 0.0
C1208 C 0.58158 0.98309 0.93864 0.0
C1209 C 0.54956 0.95575 0.88006 0.0
C1210 C 0.53246 0.97329 0.88328 0.0
C1211 C 0.56514 0.00113 0.94112 0.0
C1212 C 0.54061 0.99601 0.91406 0.0
C1213 C 0.50563 0.96852 0.85594 0.0
C1214 C 0.39484 0.95803 0.93113 0.0
C1215 C 0.39776 0.98936 0.93124 0.0
C1216 C 0.41153 0.95006 0.90307 0.0
C1217 C 0.4305 0.97289 0.87404 0.0
C1218 C 0.41545 0.01156 0.90096 0.0
C1219 C 0.43153 0.00334 0.8725 0.0
C1220 C 0.45444 0.96789 0.85143 0.0
C1221 C 0.43113 0.01091 0.73258 0.0
C1222 C 0.39716 0.99577 0.73751 0.0
C1223 C 0.4499 0.00147 0.75541 0.0
C1224 C 0.43537 0.97685 0.78413 0.0
C1225 C 0.38221 0.96989 0.76484 0.0
C1226 C 0.40121 0.96053 0.78808 0.0
C1227 C 0.45693 0.96984 0.80991 0.0
H1228 H 0.61943 0.02085 0.78931 0.0
H1229 H 0.57273 0.0133 0.82793 0.0
H1230 H 0.55509 0.94816 0.70621 0.0
H1231 H 0.50797 0.93843 0.74683 0.0
H1232 H 0.58767 0.94774 0.9041 0.0
H1233 H 0.54362 0.93791 0.85684 0.0
H1234 H 0.57092 0.01887 0.96447 0.0
H1235 H 0.52808 0.01011 0.91711 0.0
H1236 H 0.38175 0.94064 0.95442 0.0
H1237 H 0.41102 0.9267 0.90526 0.0
H1238 H 0.41816 0.03592 0.90045 0.0
H1239 H 0.44666 0.02164 0.85102 0.0
H1240 H 0.44346 0.03067 0.71154 0.0
H1241 H 0.47612 0.01439 0.75151 0.0
H1242 H 0.35607 0.95772 0.76923 0.0
H1243 H 0.38929 0.94093 0.80939 0.0
N1244 N 0.4833 0.97016 0.79309 0.0
N1245 N 0.47883 0.96731 0.87253 0.0
C1246 C 0.96757 0.57331 0.77508 0.0
C1247 C 0.98838 0.59536 0.74649 0.0
C1248 C 0.9776 0.55511 0.7982 0.0
C1249 C 0.00856 0.55828 0.79308 0.0
C1250 C 0.01975 0.59913 0.74182 0.0
C1251 C 0.0296 0.58026 0.76462 0.0
C1252 C 0.01747 0.537 0.81635 0.0
C1253 C 0.02972 0.61828 0.89921 0.0
C1254 C 0.01125 0.60728 0.93387 0.0
C1255 C 0.03164 0.59581 0.87364 0.0
C1256 C 0.01452 0.56202 0.88212 0.0
C1257 C 0.99305 0.57357 0.94128 0.0
C1258 C 0.99494 0.55124 0.91599 0.0
C1259 C 0.01795 0.53746 0.858 0.0
C1260 C 0.02818 0.41644 0.90342 0.0
C1261 C 0.0079 0.40854 0.93653 0.0
C1262 C 0.03231 0.44205 0.8781 0.0
C1263 C 0.0151 0.45915 0.88473 0.0
C1264 C 0.99039 0.42518 0.94273 0.0
C1265 C 0.99417 0.45036 0.91739 0.0
C1266 C 0.01852 0.48661 0.85913 0.0
C1267 C 0.98481 0.39917 0.78123 0.0
C1268 C 0.00586 0.4033 0.75001 0.0
C1269 C 0.98844 0.42616 0.80251 0.0
C1270 C 0.01403 0.45771 0.79394 0.0
C1271 C 0.0305 0.43485 0.73998 0.0
C1272 C 0.03457 0.46195 0.76187 0.0
C1273 C 0.01837 0.48628 0.81727 0.0
H1274 H 0.94335 0.57003 0.77959 0.0
H1275 H 0.96088 0.53803 0.81969 0.0
H1276 H 0.03618 0.61585 0.71986 0.0
H1277 H 0.05353 0.5828 0.76012 0.0
H1278 H 0.04301 0.64418 0.89227 0.0
H1279 H 0.04736 0.60499 0.84817 0.0
H1280 H 0.97786 0.5645 0.96729 0.0
H1281 H 0.98119 0.5254 0.92317 0.0
H1282 H 0.04099 0.40303 0.89736 0.0
H1283 H 0.04911 0.44859 0.8537 0.0
H1284 H 0.97398 0.41891 0.96755 0.0
H1285 H 0.98038 0.46284 0.92324 0.0
H1286 H 0.96538 0.37498 0.78904 0.0
H1287 H 0.97135 0.42231 0.8259 0.0
H1288 H 0.04685 0.43844 0.71579 0.0
H1289 H 0.05402 0.48613 0.75418 0.0
N1290 N 0.01796 0.5116 0.79757 0.0
N1291 N 0.01856 0.51232 0.87745 0.0
C1292 C 0.58534 0.61903 0.78031 0.0
C1293 C 0.59336 0.60793 0.74584 0.0
C1294 C 0.55839 0.59767 0.80316 0.0
C1295 C 0.53933 0.56455 0.79249 0.0
C1296 C 0.57351 0.57527 0.73435 0.0
C1297 C 0.54698 0.5539 0.75738 0.0
C1298 C 0.51077 0.54065 0.81614 0.0
C1299 C 0.59008 0.56828 0.91023 0.0
C1300 C 0.58868 0.58826 0.94004 0.0
C1301 C 0.56526 0.55427 0.88185 0.0
C1302 C 0.53829 0.5595 0.88317 0.0
C1303 C 0.56232 0.59458 0.94033 0.0
C1304 C 0.53704 0.57983 0.91252 0.0
C1305 C 0.50954 0.53976 0.85788 0.0
C1306 C 0.41817 0.40695 0.90329 0.0
C1307 C 0.3993 0.41039 0.9329 0.0
C1308 C 0.4354 0.43222 0.87631 0.0
C1309 C 0.43434 0.46161 0.87854 0.0
C1310 C 0.39671 0.43904 0.93378 0.0
C1311 C 0.4145 0.46468 0.90712 0.0
C1312 C 0.45786 0.49047 0.85549 0.0
C1313 C 0.38616 0.41573 0.76917 0.0
C1314 C 0.40203 0.4062 0.74145 0.0
C1315 C 0.4043 0.44363 0.79271 0.0
C1316 C 0.43842 0.46222 0.7886 0.0
C1317 C 0.43585 0.4258 0.73649 0.0
C1318 C 0.45368 0.45331 0.75959 0.0
C1319 C 0.45959 0.4907 0.81388 0.0
H1320 H 0.60007 0.64416 0.78985 0.0
H1321 H 0.55252 0.60721 0.82897 0.0
H1322 H 0.57904 0.56584 0.70814 0.0
H1323 H 0.53279 0.52867 0.74796 0.0
H1324 H 0.6101 0.56301 0.90929 0.0
H1325 H 0.56636 0.53811 0.85992 0.0
H1326 H 0.56045 0.60962 0.96319 0.0
H1327 H 0.51614 0.58366 0.91446 0.0
H1328 H 0.42082 0.38524 0.90216 0.0
H1329 H 0.45108 0.42953 0.85517 0.0
H1330 H 0.38284 0.44257 0.95676 0.0
H1331 H 0.41381 0.48737 0.90978 0.0
H1332 H 0.3601 0.40111 0.77357 0.0
H1333 H 0.39178 0.45038 0.81427 0.0
H1334 H 0.44893 0.41949 0.7152 0.0
H1335 H 0.47987 0.46705 0.7555 0.0
N1336 N 0.48564 0.51606 0.79621 0.0
N1337 N 0.48294 0.51504 0.87574 0.0
C1338 C 0.68176 0.75275 0.46862 0.0
C1339 C 0.6587 0.73401 0.43959 0.0
C1340 C 0.67489 0.77069 0.49596 0.0
C1341 C 0.64492 0.77046 0.49465 0.0
C1342 C 0.62797 0.73224 0.43969 0.0
C1343 C 0.62131 0.75074 0.4667 0.0
C1344 C 0.64064 0.79461 0.51807 0.0
C1345 C 0.6435 0.72124 0.60496 0.0
C1346 C 0.66946 0.7364 0.63218 0.0
C1347 C 0.63441 0.74026 0.58112 0.0
C1348 C 0.65113 0.77462 0.58443 0.0
C1349 C 0.68521 0.7706 0.63604 0.0
C1350 C 0.67616 0.78934 0.61265 0.0
C1351 C 0.64361 0.79644 0.55965 0.0
C1352 C 0.64408 0.92251 0.60222 0.0
C1353 C 0.66979 0.93287 0.62983 0.0
C1354 C 0.63616 0.89536 0.5779 0.0
C1355 C 0.65363 0.87816 0.58137 0.0
C1356 C 0.68687 0.91532 0.63312 0.0
C1357 C 0.6788 0.88833 0.60941 0.0
C1358 C 0.64561 0.84852 0.55802 0.0
C1359 C 0.69375 0.92835 0.46488 0.0
C1360 C 0.6715 0.92835 0.43686 0.0
C1361 C 0.68396 0.90281 0.49232 0.0
C1362 C 0.65188 0.8765 0.49191 0.0
C1363 C 0.63902 0.90261 0.43756 0.0
C1364 C 0.62945 0.87665 0.46446 0.0
C1365 C 0.64353 0.8472 0.51648 0.0
H1366 H 0.70572 0.75473 0.46902 0.0
H1367 H 0.69376 0.78627 0.51667 0.0
H1368 H 0.60998 0.71843 0.41721 0.0
H1369 H 0.59825 0.75066 0.46481 0.0
H1370 H 0.63096 0.69491 0.60126 0.0
H1371 H 0.61458 0.7282 0.56015 0.0
H1372 H 0.70513 0.78317 0.65684 0.0
H1373 H 0.68952 0.81571 0.61605 0.0
H1374 H 0.63067 0.93574 0.59885 0.0
H1375 H 0.6163 0.88765 0.55683 0.0
H1376 H 0.70676 0.9225 0.65405 0.0
H1377 H 0.69266 0.87552 0.61277 0.0
H1378 H 0.71892 0.94775 0.46504 0.0
H1379 H 0.70185 0.90288 0.51277 0.0
H1380 H 0.6214 0.9017 0.41605 0.0
H1381 H 0.60475 0.85633 0.46325 0.0
N1382 N 0.64069 0.82008 0.49816 0.0
N1383 N 0.64545 0.82309 0.57764 0.0
C1384 C 0.08437 0.70847 0.46975 0.0
C1385 C 0.07649 0.72029 0.43551 0.0
C1386 C 0.10899 0.73022 0.49537 0.0
C1387 C 0.12482 0.76418 0.48792 0.0
C1388 C 0.09256 0.75401 0.42795 0.0
C1389 C 0.11653 0.77564 0.45364 0.0
C1390 C 0.15029 0.78867 0.51444 0.0
C1391 C 0.06084 0.73377 0.58838 0.0
C1392 C 0.06501 0.72128 0.62436 0.0
C1393 C 0.08783 0.75589 0.5666 0.0
C1394 C 0.11966 0.76454 0.57911 0.0
C1395 C 0.09666 0.73102 0.6382 0.0
C1396 C 0.1238 0.75226 0.61552 0.0
C1397 C 0.14856 0.78852 0.55624 0.0
C1398 C 0.24906 0.92625 0.59685 0.0
C1399 C 0.26402 0.92119 0.63009 0.0
C1400 C 0.22721 0.89986 0.57399 0.0
C1401 C 0.221 0.86799 0.58293 0.0
C1402 C 0.2567 0.88931 0.64055 0.0
C1403 C 0.23532 0.8628 0.61696 0.0
C1404 C 0.19827 0.83999 0.55814 0.0
C1405 C 0.2778 0.90992 0.47304 0.0
C1406 C 0.26528 0.91846 0.43992 0.0
C1407 C 0.25671 0.88484 0.49868 0.0
C1408 C 0.22278 0.86866 0.49198 0.0
C1409 C 0.23144 0.90326 0.43431 0.0
C1410 C 0.2105 0.87843 0.45972 0.0
C1411 C 0.19933 0.84052 0.51639 0.0
H1412 H 0.07148 0.68256 0.47668 0.0
H1413 H 0.1154 0.72055 0.521 0.0
H1414 H 0.08636 0.7637 0.40212 0.0
H1415 H 0.12818 0.80158 0.44697 0.0
H1416 H 0.0366 0.72731 0.57778 0.0
H1417 H 0.08366 0.7665 0.54018 0.0
H1418 H 0.10036 0.72205 0.66628 0.0
H1419 H 0.14805 0.75923 0.62651 0.0
H1420 H 0.25405 0.95071 0.58878 0.0
H1421 H 0.21522 0.90447 0.54929 0.0
H1422 H 0.26791 0.88502 0.66633 0.0
H1423 H 0.23027 0.83833 0.62498 0.0
H1424 H 0.30382 0.92228 0.47873 0.0
H1425 H 0.26695 0.87768 0.52305 0.0
H1426 H 0.22118 0.9101 0.40961 0.0
H1427 H 0.18449 0.86668 0.45396 0.0
N1428 N 0.17551 0.81469 0.49667 0.0
N1429 N 0.17303 0.81393 0.57631 0.0
C1430 C 0.26055 0.3669 0.4415 0.0
C1431 C 0.25767 0.33563 0.44394 0.0
C1432 C 0.24454 0.37638 0.46877 0.0
C1433 C 0.22644 0.3552 0.49956 0.0
C1434 C 0.24072 0.31506 0.47577 0.0
C1435 C 0.22546 0.32489 0.50355 0.0
C1436 C 0.20306 0.36132 0.52172 0.0
C1437 C 0.2399 0.33586 0.64474 0.0
C1438 C 0.27279 0.35094 0.63346 0.0
C1439 C 0.21739 0.3409 0.62276 0.0
C1440 C 0.22732 0.36119 0.58915 0.0
C1441 C 0.28311 0.37286 0.60137 0.0
C1442 C 0.26067 0.37826 0.57975 0.0
C1443 C 0.20235 0.36277 0.56335 0.0
C1444 C 0.06446 0.31212 0.59945 0.0
C1445 C 0.06495 0.33255 0.62998 0.0
C1446 C 0.09146 0.32167 0.57524 0.0
C1447 C 0.11973 0.35186 0.58101 0.0
C1448 C 0.0927 0.36342 0.63488 0.0
C1449 C 0.12014 0.3728 0.61087 0.0
C1450 C 0.14976 0.35925 0.55921 0.0
C1451 C 0.08142 0.363 0.46534 0.0
C1452 C 0.0752 0.34127 0.43391 0.0
C1453 C 0.10538 0.36808 0.49362 0.0
C1454 C 0.12295 0.35102 0.49099 0.0
C1455 C 0.09148 0.32305 0.4325 0.0
C1456 C 0.11541 0.32817 0.46047 0.0
C1457 C 0.15072 0.35784 0.5176 0.0
H1458 H 0.27311 0.383 0.41694 0.0
H1459 H 0.24496 0.39956 0.46472 0.0
H1460 H 0.23809 0.29079 0.47819 0.0
H1461 H 0.21099 0.30787 0.52654 0.0
H1462 H 0.23121 0.31892 0.6694 0.0
H1463 H 0.19192 0.32767 0.63103 0.0
H1464 H 0.30841 0.38525 0.59235 0.0
H1465 H 0.26935 0.39516 0.55508 0.0
H1466 H 0.04336 0.2882 0.59496 0.0
H1467 H 0.09075 0.30472 0.55312 0.0
H1468 H 0.0938 0.37947 0.65841 0.0
H1469 H 0.14191 0.39602 0.61617 0.0
H1470 H 0.06812 0.37639 0.46763 0.0
H1471 H 0.11086 0.38602 0.5166 0.0
H1472 H 0.08633 0.30549 0.40909 0.0
H1473 H 0.12834 0.31442 0.45796 0.0
N1474 N 0.17742 0.35918 0.50077 0.0
N1475 N 0.17567 0.36175 0.58041 0.0
loop_
_geom_bond_atom_site_label_1
_geom_bond_atom_site_label_2
_geom_bond_distance
_geom_bond_site_symmetry_2
_ccdc_geom_bond_type
Mn0 O5 2.095 1_655 S
Mn0 O15 2.162 . S
Mn0 O16 2.297 1_554 S
Mn0 O24 2.385 1_554 S
Mn0 O25 2.209 1_654 S
Mn0 O26 2.094 . S
Mn1 O6 2.121 . S
Mn1 N8 2.257 1_554 S
Mn1 N17 2.282 1_554 S
Mn1 O25 2.215 1_554 S
Mn1 O27 2.117 . S
C2 O24 1.234 1_455 S
C2 O25 1.283 . S
C3 O15 1.281 1_556 S
C3 O16 1.236 . S
C4 O26 1.240 . S
C4 O27 1.264 1_655 S
O5 Mn0 2.095 1_455 S
O5 C14 1.250 . S
O6 Mn1 2.121 . S
O6 C14 1.258 . S
C7 N8 1.326 . S
C7 C11 1.460 . S
C7 H13 0.929 . S
N8 Mn1 2.257 1_556 S
N8 C7 1.326 . S
N8 C12 1.362 . S
C9 C10 1.258 . S
C9 C12 1.431 . S
C9 C29 1.449 . S
C10 C9 1.258 . S
C10 C11 1.477 . S
C10 H30 0.931 . S
C11 C7 1.460 . S
C11 C10 1.477 . S
C11 H31 0.930 . S
C12 N8 1.362 . S
C12 C9 1.431 . S
C12 C22 1.476 . S
H13 C7 0.929 . S
C14 O5 1.250 . S
C14 O6 1.258 . S
O15 Mn0 2.162 . S
O15 C3 1.281 1_554 S
O16 Mn0 2.297 1_556 S
O16 C3 1.236 . S
N17 Mn1 2.282 1_556 S
N17 C18 1.328 1_556 S
N17 C22 1.318 . S
C18 N17 1.328 1_554 S
C18 C19 1.457 1_554 S
C18 H23 0.929 . S
C19 C18 1.457 1_556 S
C19 C20 1.291 . S
C19 H32 0.931 . S
C20 C19 1.291 . S
C20 C21 1.373 . S
C20 H33 0.929 . S
C21 C20 1.373 . S
C21 C22 1.396 . S
C21 C28 1.403 . S
C22 C12 1.476 . S
C22 N17 1.318 . S
C22 C21 1.396 . S
H23 C18 0.929 . S
O24 Mn0 2.385 1_556 S
O24 C2 1.234 1_655 S
O25 Mn0 2.209 1_456 S
O25 Mn1 2.215 1_556 S
O25 C2 1.283 . S
O26 Mn0 2.094 . S
O26 C4 1.240 . S
O27 Mn1 2.117 . S
O27 C4 1.264 1_455 S
C28 C21 1.403 . S
C28 C29 1.399 . S
C28 H34 0.929 . S
C29 C9 1.449 . S
C29 C28 1.399 . S
C29 H35 0.930 . S
H30 C10 0.931 . S
H31 C11 0.930 . S
H32 C19 0.931 . S
H33 C20 0.929 . S
H34 C28 0.929 . S
H35 C29 0.930 . S
Mn36 O41 2.095 1_554 S
Mn36 O51 2.162 . S
Mn36 O52 2.297 . S
Mn36 O60 2.385 . S
Mn36 O61 2.209 . S
Mn36 O62 2.094 1_554 S
Mn37 O42 2.121 . S
Mn37 N44 2.257 1_556 S
Mn37 N53 2.282 1_556 S
Mn37 O61 2.215 1_556 S
Mn37 O63 2.117 . S
C38 O60 1.234 . S
C38 O61 1.283 . S
C39 O51 1.281 . S
C39 O52 1.236 . S
C40 O62 1.240 . S
C40 O63 1.264 . S
O41 Mn36 2.095 1_556 S
O41 C50 1.250 . S
O42 Mn37 2.121 . S
O42 C50 1.258 . S
C43 N44 1.326 . S
C43 C47 1.460 . S
C43 H49 0.929 . S
N44 Mn37 2.257 1_554 S
N44 C43 1.326 . S
N44 C48 1.362 . S
C45 C46 1.258 . S
C45 C48 1.431 . S
C45 C65 1.449 . S
C46 C45 1.258 . S
C46 C47 1.477 . S
C46 H66 0.931 . S
C47 C43 1.460 . S
C47 C46 1.477 . S
C47 H67 0.930 . S
C48 N44 1.362 . S
C48 C45 1.431 . S
C48 C58 1.476 . S
H49 C43 0.929 . S
C50 O41 1.250 . S
C50 O42 1.258 . S
O51 Mn36 2.162 . S
O51 C39 1.281 . S
O52 Mn36 2.297 . S
O52 C39 1.236 . S
N53 Mn37 2.282 1_554 S
N53 C54 1.328 . S
N53 C58 1.318 . S
C54 N53 1.328 . S
C54 C55 1.457 . S
C54 H59 0.929 1_554 S
C55 C54 1.457 . S
C55 C56 1.291 . S
C55 H68 0.931 . S
C56 C55 1.291 . S
C56 C57 1.373 . S
C56 H69 0.929 . S
C57 C56 1.373 . S
C57 C58 1.396 . S
C57 C64 1.403 . S
C58 C48 1.476 . S
C58 N53 1.318 . S
C58 C57 1.396 . S
H59 C54 0.929 1_556 S
O60 Mn36 2.385 . S
O60 C38 1.234 . S
O61 Mn36 2.209 . S
O61 Mn37 2.215 1_554 S
O61 C38 1.283 . S
O62 Mn36 2.094 1_556 S
O62 C40 1.240 . S
O63 Mn37 2.117 . S
O63 C40 1.264 . S
C64 C57 1.403 . S
C64 C65 1.399 . S
C64 H70 0.929 . S
C65 C45 1.449 . S
C65 C64 1.399 . S
C65 H71 0.930 . S
H66 C46 0.931 . S
H67 C47 0.930 . S
H68 C55 0.931 . S
H69 C56 0.929 . S
H70 C64 0.929 . S
H71 C65 0.930 . S
Mn72 O77 2.095 1_564 S
Mn72 O87 2.162 . S
Mn72 O88 2.297 . S
Mn72 O96 2.385 . S
Mn72 O97 2.209 1_565 S
Mn72 O98 2.094 1_554 S
Mn73 O78 2.121 . S
Mn73 N80 2.257 1_556 S
Mn73 N89 2.282 1_556 S
Mn73 O97 2.215 1_556 S
Mn73 O99 2.117 . S
C74 O96 1.234 1_545 S
C74 O97 1.283 . S
C75 O87 1.281 . S
C75 O88 1.236 . S
C76 O98 1.240 . S
C76 O99 1.264 1_565 S
O77 Mn72 2.095 1_546 S
O77 C86 1.250 . S
O78 Mn73 2.121 . S
O78 C86 1.258 . S
C79 N80 1.326 . S
C79 C83 1.460 . S
C79 H85 0.929 . S
N80 Mn73 2.257 1_554 S
N80 C79 1.326 . S
N80 C84 1.362 . S
C81 C82 1.258 . S
C81 C84 1.431 . S
C81 C101 1.449 . S
C82 C81 1.258 . S
C82 C83 1.477 . S
C82 H102 0.931 . S
C83 C79 1.460 . S
C83 C82 1.477 . S
C83 H103 0.930 . S
C84 N80 1.362 . S
C84 C81 1.431 . S
C84 C94 1.476 . S
H85 C79 0.929 . S
C86 O77 1.250 . S
C86 O78 1.258 . S
O87 Mn72 2.162 . S
O87 C75 1.281 . S
O88 Mn72 2.297 . S
O88 C75 1.236 . S
N89 Mn73 2.282 1_554 S
N89 C90 1.328 . S
N89 C94 1.318 . S
C90 N89 1.328 . S
C90 C91 1.457 . S
C90 H95 0.929 1_554 S
C91 C90 1.457 . S
C91 C92 1.291 . S
C91 H104 0.931 . S
C92 C91 1.291 . S
C92 C93 1.373 . S
C92 H105 0.929 . S
C93 C92 1.373 . S
C93 C94 1.396 . S
C93 C100 1.403 . S
C94 C84 1.476 . S
C94 N89 1.318 . S
C94 C93 1.396 . S
H95 C90 0.929 1_556 S
O96 Mn72 2.385 . S
O96 C74 1.234 1_565 S
O97 Mn72 2.209 1_545 S
O97 Mn73 2.215 1_554 S
O97 C74 1.283 . S
O98 Mn72 2.094 1_556 S
O98 C76 1.240 . S
O99 Mn73 2.117 . S
O99 C76 1.264 1_545 S
C100 C93 1.403 . S
C100 C101 1.399 . S
C100 H106 0.929 . S
C101 C81 1.449 . S
C101 C100 1.399 . S
C101 H107 0.930 . S
H102 C82 0.931 . S
H103 C83 0.930 . S
H104 C91 0.931 . S
H105 C92 0.929 . S
H106 C100 0.929 . S
H107 C101 0.930 . S
Mn108 O113 2.095 1_655 S
Mn108 O123 2.162 . S
Mn108 O124 2.297 1_554 S
Mn108 O132 2.385 1_554 S
Mn108 O133 2.209 1_654 S
Mn108 O134 2.094 . S
Mn109 O114 2.121 . S
Mn109 N116 2.257 1_554 S
Mn109 N125 2.282 1_554 S
Mn109 O133 2.215 1_554 S
Mn109 O135 2.117 . S
C110 O132 1.234 1_455 S
C110 O133 1.283 . S
C111 O123 1.281 1_556 S
C111 O124 1.236 . S
C112 O134 1.240 . S
C112 O135 1.264 1_655 S
O113 Mn108 2.095 1_455 S
O113 C122 1.250 . S
O114 Mn109 2.121 . S
O114 C122 1.258 . S
C115 N116 1.326 . S
C115 C119 1.460 . S
C115 H121 0.929 . S
N116 Mn109 2.257 1_556 S
N116 C115 1.326 . S
N116 C120 1.362 . S
C117 C118 1.258 . S
C117 C120 1.431 . S
C117 C137 1.449 . S
C118 C117 1.258 . S
C118 C119 1.477 . S
C118 H138 0.931 . S
C119 C115 1.460 . S
C119 C118 1.477 . S
C119 H139 0.930 . S
C120 N116 1.362 . S
C120 C117 1.431 . S
C120 C130 1.476 . S
H121 C115 0.929 . S
C122 O113 1.250 . S
C122 O114 1.258 . S
O123 Mn108 2.162 . S
O123 C111 1.281 1_554 S
O124 Mn108 2.297 1_556 S
O124 C111 1.236 . S
N125 Mn109 2.282 1_556 S
N125 C126 1.328 1_556 S
N125 C130 1.318 . S
C126 N125 1.328 1_554 S
C126 C127 1.457 1_554 S
C126 H131 0.929 . S
C127 C126 1.457 1_556 S
C127 C128 1.291 . S
C127 H140 0.931 . S
C128 C127 1.291 . S
C128 C129 1.373 . S
C128 H141 0.929 . S
C129 C128 1.373 . S
C129 C130 1.396 . S
C129 C136 1.403 . S
C130 C120 1.476 . S
C130 N125 1.318 . S
C130 C129 1.396 . S
H131 C126 0.929 . S
O132 Mn108 2.385 1_556 S
O132 C110 1.234 1_655 S
O133 Mn108 2.209 1_456 S
O133 Mn109 2.215 1_556 S
O133 C110 1.283 . S
O134 Mn108 2.094 . S
O134 C112 1.240 . S
O135 Mn109 2.117 . S
O135 C112 1.264 1_455 S
C136 C129 1.403 . S
C136 C137 1.399 . S
C136 H142 0.929 . S
C137 C117 1.449 . S
C137 C136 1.399 . S
C137 H143 0.930 . S
H138 C118 0.931 . S
H139 C119 0.930 . S
H140 C127 0.931 . S
H141 C128 0.929 . S
H142 C136 0.929 . S
H143 C137 0.930 . S
Mn144 O149 2.095 1_554 S
Mn144 O159 2.162 . S
Mn144 O160 2.297 . S
Mn144 O168 2.385 . S
Mn144 O169 2.209 . S
Mn144 O170 2.094 1_554 S
Mn145 O150 2.121 . S
Mn145 N152 2.257 1_556 S
Mn145 N161 2.282 1_556 S
Mn145 O169 2.215 1_556 S
Mn145 O171 2.117 . S
C146 O168 1.234 . S
C146 O169 1.283 . S
C147 O159 1.281 . S
C147 O160 1.236 . S
C148 O170 1.240 . S
C148 O171 1.264 . S
O149 Mn144 2.095 1_556 S
O149 C158 1.250 . S
O150 Mn145 2.121 . S
O150 C158 1.258 . S
C151 N152 1.326 . S
C151 C155 1.460 . S
C151 H157 0.929 . S
N152 Mn145 2.257 1_554 S
N152 C151 1.326 . S
N152 C156 1.362 . S
C153 C154 1.258 . S
C153 C156 1.431 . S
C153 C173 1.449 . S
C154 C153 1.258 . S
C154 C155 1.477 . S
C154 H174 0.931 . S
C155 C151 1.460 . S
C155 C154 1.477 . S
C155 H175 0.930 . S
C156 N152 1.362 . S
C156 C153 1.431 . S
C156 C166 1.476 . S
H157 C151 0.929 . S
C158 O149 1.250 . S
C158 O150 1.258 . S
O159 Mn144 2.162 . S
O159 C147 1.281 . S
O160 Mn144 2.297 . S
O160 C147 1.236 . S
N161 Mn145 2.282 1_554 S
N161 C162 1.328 . S
N161 C166 1.318 . S
C162 N161 1.328 . S
C162 C163 1.457 . S
C162 H167 0.929 1_554 S
C163 C162 1.457 . S
C163 C164 1.291 . S
C163 H176 0.931 . S
C164 C163 1.291 . S
C164 C165 1.373 . S
C164 H177 0.929 . S
C165 C164 1.373 . S
C165 C166 1.396 . S
C165 C172 1.403 . S
C166 C156 1.476 . S
C166 N161 1.318 . S
C166 C165 1.396 . S
H167 C162 0.929 1_556 S
O168 Mn144 2.385 . S
O168 C146 1.234 . S
O169 Mn144 2.209 . S
O169 Mn145 2.215 1_554 S
O169 C146 1.283 . S
O170 Mn144 2.094 1_556 S
O170 C148 1.240 . S
O171 Mn145 2.117 . S
O171 C148 1.264 . S
C172 C165 1.403 . S
C172 C173 1.399 . S
C172 H178 0.929 . S
C173 C153 1.449 . S
C173 C172 1.399 . S
C173 H179 0.930 . S
H174 C154 0.931 . S
H175 C155 0.930 . S
H176 C163 0.931 . S
H177 C164 0.929 . S
H178 C172 0.929 . S
H179 C173 0.930 . S
Mn180 O185 2.095 1_545 S
Mn180 O195 2.162 . S
Mn180 O196 2.297 1_554 S
Mn180 O204 2.385 1_554 S
Mn180 O205 2.209 1_544 S
Mn180 O206 2.094 . S
Mn181 O186 2.121 . S
Mn181 N188 2.257 1_554 S
Mn181 N197 2.282 1_554 S
Mn181 O205 2.215 1_554 S
Mn181 O207 2.117 . S
C182 O204 1.234 1_565 S
C182 O205 1.283 . S
C183 O195 1.281 1_556 S
C183 O196 1.236 . S
C184 O206 1.240 . S
C184 O207 1.264 1_545 S
O185 Mn180 2.095 1_565 S
O185 C194 1.250 . S
O186 Mn181 2.121 . S
O186 C194 1.258 . S
C187 N188 1.326 . S
C187 C191 1.460 . S
C187 H193 0.929 . S
N188 Mn181 2.257 1_556 S
N188 C187 1.326 . S
N188 C192 1.362 . S
C189 C190 1.258 . S
C189 C192 1.431 . S
C189 C209 1.449 . S
C190 C189 1.258 . S
C190 C191 1.477 . S
C190 H210 0.931 . S
C191 C187 1.460 . S
C191 C190 1.477 . S
C191 H211 0.930 . S
C192 N188 1.362 . S
C192 C189 1.431 . S
C192 C202 1.476 . S
H193 C187 0.929 . S
C194 O185 1.250 . S
C194 O186 1.258 . S
O195 Mn180 2.162 . S
O195 C183 1.281 1_554 S
O196 Mn180 2.297 1_556 S
O196 C183 1.236 . S
N197 Mn181 2.282 1_556 S
N197 C198 1.328 1_556 S
N197 C202 1.318 . S
C198 N197 1.328 1_554 S
C198 C199 1.457 1_554 S
C198 H203 0.929 . S
C199 C198 1.457 1_556 S
C199 C200 1.291 . S
C199 H212 0.931 . S
C200 C199 1.291 . S
C200 C201 1.373 . S
C200 H213 0.929 . S
C201 C200 1.373 . S
C201 C202 1.396 . S
C201 C208 1.403 . S
C202 C192 1.476 . S
C202 N197 1.318 . S
C202 C201 1.396 . S
H203 C198 0.929 . S
O204 Mn180 2.385 1_556 S
O204 C182 1.234 1_545 S
O205 Mn180 2.209 1_566 S
O205 Mn181 2.215 1_556 S
O205 C182 1.283 . S
O206 Mn180 2.094 . S
O206 C184 1.240 . S
O207 Mn181 2.117 . S
O207 C184 1.264 1_565 S
C208 C201 1.403 . S
C208 C209 1.399 . S
C208 H214 0.929 . S
C209 C189 1.449 . S
C209 C208 1.399 . S
C209 H215 0.930 . S
H210 C190 0.931 . S
H211 C191 0.930 . S
H212 C199 0.931 . S
H213 C200 0.929 . S
H214 C208 0.929 . S
H215 C209 0.930 . S
Mn216 O221 2.095 . S
Mn216 O231 2.162 . S
Mn216 O232 2.297 . S
Mn216 O240 2.385 . S
Mn216 O241 2.209 . S
Mn216 O242 2.094 . S
Mn217 O222 2.121 . S
Mn217 N224 2.257 . S
Mn217 N233 2.282 . S
Mn217 O241 2.215 . S
Mn217 O243 2.117 . S
C218 O240 1.234 . S
C218 O241 1.283 . S
C219 O231 1.281 . S
C219 O232 1.236 . S
C220 O242 1.240 . S
C220 O243 1.264 . S
O221 Mn216 2.095 . S
O221 C230 1.250 . S
O222 Mn217 2.121 . S
O222 C230 1.258 . S
C223 N224 1.326 . S
C223 C227 1.460 . S
C223 H229 0.929 . S
N224 Mn217 2.257 . S
N224 C223 1.326 . S
N224 C228 1.362 . S
C225 C226 1.258 . S
C225 C228 1.431 . S
C225 C245 1.449 . S
C226 C225 1.258 . S
C226 C227 1.477 . S
C226 H246 0.931 . S
C227 C223 1.460 . S
C227 C226 1.477 . S
C227 H247 0.930 . S
C228 N224 1.362 . S
C228 C225 1.431 . S
C228 C238 1.476 . S
H229 C223 0.929 . S
C230 O221 1.250 . S
C230 O222 1.258 . S
O231 Mn216 2.162 . S
O231 C219 1.281 . S
O232 Mn216 2.297 . S
O232 C219 1.236 . S
N233 Mn217 2.282 . S
N233 C234 1.328 . S
N233 C238 1.318 . S
C234 N233 1.328 . S
C234 C235 1.457 . S
C234 H239 0.929 . S
C235 C234 1.457 . S
C235 C236 1.291 . S
C235 H248 0.931 . S
C236 C235 1.291 . S
C236 C237 1.373 . S
C236 H249 0.929 . S
C237 C236 1.373 . S
C237 C238 1.396 . S
C237 C244 1.403 . S
C238 C228 1.476 . S
C238 N233 1.318 . S
C238 C237 1.396 . S
H239 C234 0.929 . S
O240 Mn216 2.385 . S
O240 C218 1.234 . S
O241 Mn216 2.209 . S
O241 Mn217 2.215 . S
O241 C218 1.283 . S
O242 Mn216 2.094 . S
O242 C220 1.240 . S
O243 Mn217 2.117 . S
O243 C220 1.264 . S
C244 C237 1.403 . S
C244 C245 1.399 . S
C244 H250 0.929 . S
C245 C225 1.449 . S
C245 C244 1.399 . S
C245 H251 0.930 . S
H246 C226 0.931 . S
H247 C227 0.930 . S
H248 C235 0.931 . S
H249 C236 0.929 . S
H250 C244 0.929 . S
H251 C245 0.930 . S
Mn252 O257 2.095 . S
Mn252 O267 2.162 1_565 S
Mn252 O268 2.297 1_565 S
Mn252 O276 2.385 . S
Mn252 O277 2.209 . S
Mn252 O278 2.094 . S
Mn253 O258 2.121 . S
Mn253 N260 2.257 . S
Mn253 N269 2.282 . S
Mn253 O277 2.215 . S
Mn253 O279 2.117 . S
C254 O276 1.234 . S
C254 O277 1.283 . S
C255 O267 1.281 . S
C255 O268 1.236 . S
C256 O278 1.240 . S
C256 O279 1.264 . S
O257 Mn252 2.095 . S
O257 C266 1.250 . S
O258 Mn253 2.121 . S
O258 C266 1.258 . S
C259 N260 1.326 . S
C259 C263 1.460 . S
C259 H265 0.929 . S
N260 Mn253 2.257 . S
N260 C259 1.326 . S
N260 C264 1.362 . S
C261 C262 1.258 . S
C261 C264 1.431 . S
C261 C281 1.449 . S
C262 C261 1.258 . S
C262 C263 1.477 . S
C262 H282 0.931 . S
C263 C259 1.460 . S
C263 C262 1.477 . S
C263 H283 0.930 . S
C264 N260 1.362 . S
C264 C261 1.431 . S
C264 C274 1.476 . S
H265 C259 0.929 . S
C266 O257 1.250 . S
C266 O258 1.258 . S
O267 Mn252 2.162 1_545 S
O267 C255 1.281 . S
O268 Mn252 2.297 1_545 S
O268 C255 1.236 . S
N269 Mn253 2.282 . S
N269 C270 1.328 . S
N269 C274 1.318 . S
C270 N269 1.328 . S
C270 C271 1.457 . S
C270 H275 0.929 . S
C271 C270 1.457 . S
C271 C272 1.291 . S
C271 H284 0.931 . S
C272 C271 1.291 . S
C272 C273 1.373 . S
C272 H285 0.929 . S
C273 C272 1.373 . S
C273 C274 1.396 . S
C273 C280 1.403 . S
C274 C264 1.476 . S
C274 N269 1.318 . S
C274 C273 1.396 . S
H275 C270 0.929 . S
O276 Mn252 2.385 . S
O276 C254 1.234 . S
O277 Mn252 2.209 . S
O277 Mn253 2.215 . S
O277 C254 1.283 . S
O278 Mn252 2.094 . S
O278 C256 1.240 . S
O279 Mn253 2.117 . S
O279 C256 1.264 . S
C280 C273 1.403 . S
C280 C281 1.399 . S
C280 H286 0.929 . S
C281 C261 1.449 . S
C281 C280 1.399 . S
C281 H287 0.930 . S
H282 C262 0.931 . S
H283 C263 0.930 . S
H284 C271 0.931 . S
H285 C272 0.929 . S
H286 C280 0.929 . S
H287 C281 0.930 . S
Mn288 O293 2.095 . S
Mn288 O303 2.162 1_455 S
Mn288 O304 2.297 1_455 S
Mn288 O312 2.385 . S
Mn288 O313 2.209 . S
Mn288 O314 2.094 . S
Mn289 O294 2.121 . S
Mn289 N296 2.257 . S
Mn289 N305 2.282 . S
Mn289 O313 2.215 . S
Mn289 O315 2.117 . S
C290 O312 1.234 . S
C290 O313 1.283 . S
C291 O303 1.281 . S
C291 O304 1.236 . S
C292 O314 1.240 . S
C292 O315 1.264 . S
O293 Mn288 2.095 . S
O293 C302 1.250 . S
O294 Mn289 2.121 . S
O294 C302 1.258 . S
C295 N296 1.326 . S
C295 C299 1.460 . S
C295 H301 0.929 . S
N296 Mn289 2.257 . S
N296 C295 1.326 . S
N296 C300 1.362 . S
C297 C298 1.258 . S
C297 C300 1.431 . S
C297 C317 1.449 . S
C298 C297 1.258 . S
C298 C299 1.477 . S
C298 H318 0.931 . S
C299 C295 1.460 . S
C299 C298 1.477 . S
C299 H319 0.930 . S
C300 N296 1.362 . S
C300 C297 1.431 . S
C300 C310 1.476 . S
H301 C295 0.929 . S
C302 O293 1.250 . S
C302 O294 1.258 . S
O303 Mn288 2.162 1_655 S
O303 C291 1.281 . S
O304 Mn288 2.297 1_655 S
O304 C291 1.236 . S
N305 Mn289 2.282 . S
N305 C306 1.328 . S
N305 C310 1.318 . S
C306 N305 1.328 . S
C306 C307 1.457 . S
C306 H311 0.929 . S
C307 C306 1.457 . S
C307 C308 1.291 . S
C307 H320 0.931 . S
C308 C307 1.291 . S
C308 C309 1.373 . S
C308 H321 0.929 . S
C309 C308 1.373 . S
C309 C310 1.396 . S
C309 C316 1.403 . S
C310 C300 1.476 . S
C310 N305 1.318 . S
C310 C309 1.396 . S
H311 C306 0.929 . S
O312 Mn288 2.385 . S
O312 C290 1.234 . S
O313 Mn288 2.209 . S
O313 Mn289 2.215 . S
O313 C290 1.283 . S
O314 Mn288 2.094 . S
O314 C292 1.240 . S
O315 Mn289 2.117 . S
O315 C292 1.264 . S
C316 C309 1.403 . S
C316 C317 1.399 . S
C316 H322 0.929 . S
C317 C297 1.449 . S
C317 C316 1.399 . S
C317 H323 0.930 . S
H318 C298 0.931 . S
H319 C299 0.930 . S
H320 C307 0.931 . S
H321 C308 0.929 . S
H322 C316 0.929 . S
H323 C317 0.930 . S
Mn324 O329 2.095 1_565 S
Mn324 O339 2.162 . S
Mn324 O340 2.297 1_565 S
Mn324 O348 2.385 . S
Mn324 O349 2.209 . S
Mn324 O350 2.094 . S
Mn325 O330 2.121 1_565 S
Mn325 N332 2.257 1_565 S
Mn325 N341 2.282 . S
Mn325 O349 2.215 . S
Mn325 O351 2.117 . S
C326 O348 1.234 . S
C326 O349 1.283 . S
C327 O339 1.281 . S
C327 O340 1.236 1_565 S
C328 O350 1.240 . S
C328 O351 1.264 . S
O329 Mn324 2.095 1_545 S
O329 C338 1.250 . S
O330 Mn325 2.121 1_545 S
O330 C338 1.258 . S
C331 N332 1.326 . S
C331 C335 1.460 . S
C331 H337 0.929 . S
N332 Mn325 2.257 1_545 S
N332 C331 1.326 . S
N332 C336 1.362 1_545 S
C333 C334 1.258 1_565 S
C333 C336 1.431 . S
C333 C353 1.449 . S
C334 C333 1.258 1_545 S
C334 C335 1.477 . S
C334 H354 0.931 . S
C335 C331 1.460 . S
C335 C334 1.477 . S
C335 H355 0.930 . S
C336 N332 1.362 1_565 S
C336 C333 1.431 . S
C336 C346 1.476 . S
H337 C331 0.929 . S
C338 O329 1.250 . S
C338 O330 1.258 . S
O339 Mn324 2.162 . S
O339 C327 1.281 . S
O340 Mn324 2.297 1_545 S
O340 C327 1.236 1_545 S
N341 Mn325 2.282 . S
N341 C342 1.328 . S
N341 C346 1.318 . S
C342 N341 1.328 . S
C342 C343 1.457 . S
C342 H347 0.929 . S
C343 C342 1.457 . S
C343 C344 1.291 . S
C343 H356 0.931 . S
C344 C343 1.291 . S
C344 C345 1.373 . S
C344 H357 0.929 . S
C345 C344 1.373 . S
C345 C346 1.396 . S
C345 C352 1.403 . S
C346 C336 1.476 . S
C346 N341 1.318 . S
C346 C345 1.396 . S
H347 C342 0.929 . S
O348 Mn324 2.385 . S
O348 C326 1.234 . S
O349 Mn324 2.209 . S
O349 Mn325 2.215 . S
O349 C326 1.283 . S
O350 Mn324 2.094 . S
O350 C328 1.240 . S
O351 Mn325 2.117 . S
O351 C328 1.264 . S
C352 C345 1.403 . S
C352 C353 1.399 . S
C352 H358 0.929 . S
C353 C333 1.449 . S
C353 C352 1.399 . S
C353 H359 0.930 . S
H354 C334 0.931 . S
H355 C335 0.930 . S
H356 C343 0.931 . S
H357 C344 0.929 . S
H358 C352 0.929 . S
H359 C353 0.930 . S
Mn360 O365 2.095 . S
Mn360 O375 2.162 1_455 S
Mn360 O376 2.297 1_455 S
Mn360 O384 2.385 . S
Mn360 O385 2.209 . S
Mn360 O386 2.094 . S
Mn361 O366 2.121 . S
Mn361 N368 2.257 . S
Mn361 N377 2.282 . S
Mn361 O385 2.215 . S
Mn361 O387 2.117 . S
C362 O384 1.234 . S
C362 O385 1.283 . S
C363 O375 1.281 . S
C363 O376 1.236 . S
C364 O386 1.240 . S
C364 O387 1.264 . S
O365 Mn360 2.095 . S
O365 C374 1.250 . S
O366 Mn361 2.121 . S
O366 C374 1.258 . S
C367 N368 1.326 . S
C367 C371 1.460 . S
C367 H373 0.929 . S
N368 Mn361 2.257 . S
N368 C367 1.326 . S
N368 C372 1.362 . S
C369 C370 1.258 . S
C369 C372 1.431 . S
C369 C389 1.449 . S
C370 C369 1.258 . S
C370 C371 1.477 . S
C370 H390 0.931 . S
C371 C367 1.460 . S
C371 C370 1.477 . S
C371 H391 0.930 . S
C372 N368 1.362 . S
C372 C369 1.431 . S
C372 C382 1.476 . S
H373 C367 0.929 . S
C374 O365 1.250 . S
C374 O366 1.258 . S
O375 Mn360 2.162 1_655 S
O375 C363 1.281 . S
O376 Mn360 2.297 1_655 S
O376 C363 1.236 . S
N377 Mn361 2.282 . S
N377 C378 1.328 . S
N377 C382 1.318 . S
C378 N377 1.328 . S
C378 C379 1.457 . S
C378 H383 0.929 . S
C379 C378 1.457 . S
C379 C380 1.291 . S
C379 H392 0.931 . S
C380 C379 1.291 . S
C380 C381 1.373 . S
C380 H393 0.929 . S
C381 C380 1.373 . S
C381 C382 1.396 . S
C381 C388 1.403 . S
C382 C372 1.476 . S
C382 N377 1.318 . S
C382 C381 1.396 . S
H383 C378 0.929 . S
O384 Mn360 2.385 . S
O384 C362 1.234 . S
O385 Mn360 2.209 . S
O385 Mn361 2.215 . S
O385 C362 1.283 . S
O386 Mn360 2.094 . S
O386 C364 1.240 . S
O387 Mn361 2.117 . S
O387 C364 1.264 . S
C388 C381 1.403 . S
C388 C389 1.399 . S
C388 H394 0.929 . S
C389 C369 1.449 . S
C389 C388 1.399 . S
C389 H395 0.930 . S
H390 C370 0.931 . S
H391 C371 0.930 . S
H392 C379 0.931 . S
H393 C380 0.929 . S
H394 C388 0.929 . S
H395 C389 0.930 . S
Mn396 O401 2.095 . S
Mn396 O411 2.162 . S
Mn396 O412 2.297 . S
Mn396 O420 2.385 . S
Mn396 O421 2.209 . S
Mn396 O422 2.094 . S
Mn397 O402 2.121 . S
Mn397 N404 2.257 . S
Mn397 N413 2.282 . S
Mn397 O421 2.215 . S
Mn397 O423 2.117 . S
C398 O420 1.234 . S
C398 O421 1.283 . S
C399 O411 1.281 . S
C399 O412 1.236 . S
C400 O422 1.240 . S
C400 O423 1.264 . S
O401 Mn396 2.095 . S
O401 C410 1.250 . S
O402 Mn397 2.121 . S
O402 C410 1.258 . S
C403 N404 1.326 . S
C403 C407 1.460 . S
C403 H409 0.929 . S
N404 Mn397 2.257 . S
N404 C403 1.326 . S
N404 C408 1.362 . S
C405 C406 1.258 . S
C405 C408 1.431 . S
C405 C425 1.449 . S
C406 C405 1.258 . S
C406 C407 1.477 . S
C406 H426 0.931 . S
C407 C403 1.460 . S
C407 C406 1.477 . S
C407 H427 0.930 . S
C408 N404 1.362 . S
C408 C405 1.431 . S
C408 C418 1.476 . S
H409 C403 0.929 . S
C410 O401 1.250 . S
C410 O402 1.258 . S
O411 Mn396 2.162 . S
O411 C399 1.281 . S
O412 Mn396 2.297 . S
O412 C399 1.236 . S
N413 Mn397 2.282 . S
N413 C414 1.328 . S
N413 C418 1.318 . S
C414 N413 1.328 . S
C414 C415 1.457 . S
C414 H419 0.929 . S
C415 C414 1.457 . S
C415 C416 1.291 . S
C415 H428 0.931 . S
C416 C415 1.291 . S
C416 C417 1.373 . S
C416 H429 0.929 . S
C417 C416 1.373 . S
C417 C418 1.396 . S
C417 C424 1.403 . S
C418 C408 1.476 . S
C418 N413 1.318 . S
C418 C417 1.396 . S
H419 C414 0.929 . S
O420 Mn396 2.385 . S
O420 C398 1.234 . S
O421 Mn396 2.209 . S
O421 Mn397 2.215 . S
O421 C398 1.283 . S
O422 Mn396 2.094 . S
O422 C400 1.240 . S
O423 Mn397 2.117 . S
O423 C400 1.264 . S
C424 C417 1.403 . S
C424 C425 1.399 . S
C424 H430 0.929 . S
C425 C405 1.449 . S
C425 C424 1.399 . S
C425 H431 0.930 . S
H426 C406 0.931 . S
H427 C407 0.930 . S
H428 C415 0.931 . S
H429 C416 0.929 . S
H430 C424 0.929 . S
H431 C425 0.930 . S
Mn432 O437 2.095 . S
Mn432 O447 2.162 1_545 S
Mn432 O448 2.297 1_545 S
Mn432 O456 2.385 . S
Mn432 O457 2.209 . S
Mn432 O458 2.094 . S
Mn433 O438 2.121 . S
Mn433 N440 2.257 . S
Mn433 N449 2.282 . S
Mn433 O457 2.215 . S
Mn433 O459 2.117 . S
C434 O456 1.234 . S
C434 O457 1.283 . S
C435 O447 1.281 . S
C435 O448 1.236 . S
C436 O458 1.240 . S
C436 O459 1.264 . S
O437 Mn432 2.095 . S
O437 C446 1.250 . S
O438 Mn433 2.121 . S
O438 C446 1.258 . S
C439 N440 1.326 . S
C439 C443 1.460 . S
C439 H445 0.929 . S
N440 Mn433 2.257 . S
N440 C439 1.326 . S
N440 C444 1.362 . S
C441 C442 1.258 . S
C441 C444 1.431 . S
C441 C461 1.449 . S
C442 C441 1.258 . S
C442 C443 1.477 . S
C442 H462 0.931 . S
C443 C439 1.460 . S
C443 C442 1.477 . S
C443 H463 0.930 . S
C444 N440 1.362 . S
C444 C441 1.431 . S
C444 C454 1.476 . S
H445 C439 0.929 . S
C446 O437 1.250 . S
C446 O438 1.258 . S
O447 Mn432 2.162 1_565 S
O447 C435 1.281 . S
O448 Mn432 2.297 1_565 S
O448 C435 1.236 . S
N449 Mn433 2.282 . S
N449 C450 1.328 . S
N449 C454 1.318 . S
C450 N449 1.328 . S
C450 C451 1.457 . S
C450 H455 0.929 . S
C451 C450 1.457 . S
C451 C452 1.291 . S
C451 H464 0.931 . S
C452 C451 1.291 . S
C452 C453 1.373 . S
C452 H465 0.929 . S
C453 C452 1.373 . S
C453 C454 1.396 . S
C453 C460 1.403 . S
C454 C444 1.476 . S
C454 N449 1.318 . S
C454 C453 1.396 . S
H455 C450 0.929 . S
O456 Mn432 2.385 . S
O456 C434 1.234 . S
O457 Mn432 2.209 . S
O457 Mn433 2.215 . S
O457 C434 1.283 . S
O458 Mn432 2.094 . S
O458 C436 1.240 . S
O459 Mn433 2.117 . S
O459 C436 1.264 . S
C460 C453 1.403 . S
C460 C461 1.399 . S
C460 H466 0.929 . S
C461 C441 1.449 . S
C461 C460 1.399 . S
C461 H467 0.930 . S
H462 C442 0.931 . S
H463 C443 0.930 . S
H464 C451 0.931 . S
H465 C452 0.929 . S
H466 C460 0.929 . S
H467 C461 0.930 . S
Mn468 O473 2.095 1_655 S
Mn468 O483 2.162 . S
Mn468 O484 2.297 1_655 S
Mn468 O492 2.385 . S
Mn468 O493 2.209 . S
Mn468 O494 2.094 . S
Mn469 O474 2.121 1_655 S
Mn469 N476 2.257 1_655 S
Mn469 N485 2.282 . S
Mn469 O493 2.215 . S
Mn469 O495 2.117 . S
C470 O492 1.234 . S
C470 O493 1.283 . S
C471 O483 1.281 . S
C471 O484 1.236 1_655 S
C472 O494 1.240 . S
C472 O495 1.264 . S
O473 Mn468 2.095 1_455 S
O473 C482 1.250 . S
O474 Mn469 2.121 1_455 S
O474 C482 1.258 . S
C475 N476 1.326 . S
C475 C479 1.460 . S
C475 H481 0.929 . S
N476 Mn469 2.257 1_455 S
N476 C475 1.326 . S
N476 C480 1.362 1_455 S
C477 C478 1.258 1_655 S
C477 C480 1.431 . S
C477 C497 1.449 . S
C478 C477 1.258 1_455 S
C478 C479 1.477 . S
C478 H498 0.931 . S
C479 C475 1.460 . S
C479 C478 1.477 . S
C479 H499 0.930 . S
C480 N476 1.362 1_655 S
C480 C477 1.431 . S
C480 C490 1.476 . S
H481 C475 0.929 . S
C482 O473 1.250 . S
C482 O474 1.258 . S
O483 Mn468 2.162 . S
O483 C471 1.281 . S
O484 Mn468 2.297 1_455 S
O484 C471 1.236 1_455 S
N485 Mn469 2.282 . S
N485 C486 1.328 . S
N485 C490 1.318 . S
C486 N485 1.328 . S
C486 C487 1.457 . S
C486 H491 0.929 . S
C487 C486 1.457 . S
C487 C488 1.291 . S
C487 H500 0.931 . S
C488 C487 1.291 . S
C488 C489 1.373 . S
C488 H501 0.929 . S
C489 C488 1.373 . S
C489 C490 1.396 . S
C489 C496 1.403 . S
C490 C480 1.476 . S
C490 N485 1.318 . S
C490 C489 1.396 . S
H491 C486 0.929 . S
O492 Mn468 2.385 . S
O492 C470 1.234 . S
O493 Mn468 2.209 . S
O493 Mn469 2.215 . S
O493 C470 1.283 . S
O494 Mn468 2.094 . S
O494 C472 1.240 . S
O495 Mn469 2.117 . S
O495 C472 1.264 . S
C496 C489 1.403 . S
C496 C497 1.399 . S
C496 H502 0.929 . S
C497 C477 1.449 . S
C497 C496 1.399 . S
C497 H503 0.930 . S
H498 C478 0.931 . S
H499 C479 0.930 . S
H500 C487 0.931 . S
H501 C488 0.929 . S
H502 C496 0.929 . S
H503 C497 0.930 . S
Mn504 O509 2.095 . S
Mn504 O519 2.162 . S
Mn504 O520 2.297 . S
Mn504 O528 2.385 . S
Mn504 O529 2.209 . S
Mn504 O530 2.094 . S
Mn505 O510 2.121 . S
Mn505 N512 2.257 . S
Mn505 N521 2.282 . S
Mn505 O529 2.215 . S
Mn505 O531 2.117 . S
C506 O528 1.234 . S
C506 O529 1.283 . S
C507 O519 1.281 . S
C507 O520 1.236 . S
C508 O530 1.240 . S
C508 O531 1.264 . S
O509 Mn504 2.095 . S
O509 C518 1.250 . S
O510 Mn505 2.121 . S
O510 C518 1.258 . S
C511 N512 1.326 . S
C511 C515 1.460 . S
C511 H517 0.929 . S
N512 Mn505 2.257 . S
N512 C511 1.326 . S
N512 C516 1.362 . S
C513 C514 1.258 . S
C513 C516 1.431 . S
C513 C533 1.449 . S
C514 C513 1.258 . S
C514 C515 1.477 . S
C514 H534 0.931 . S
C515 C511 1.460 . S
C515 C514 1.477 . S
C515 H535 0.930 . S
C516 N512 1.362 . S
C516 C513 1.431 . S
C516 C526 1.476 . S
H517 C511 0.929 . S
C518 O509 1.250 . S
C518 O510 1.258 . S
O519 Mn504 2.162 . S
O519 C507 1.281 . S
O520 Mn504 2.297 . S
O520 C507 1.236 . S
N521 Mn505 2.282 . S
N521 C522 1.328 . S
N521 C526 1.318 . S
C522 N521 1.328 . S
C522 C523 1.457 . S
C522 H527 0.929 . S
C523 C522 1.457 . S
C523 C524 1.291 . S
C523 H536 0.931 . S
C524 C523 1.291 . S
C524 C525 1.373 . S
C524 H537 0.929 . S
C525 C524 1.373 . S
C525 C526 1.396 . S
C525 C532 1.403 . S
C526 C516 1.476 . S
C526 N521 1.318 . S
C526 C525 1.396 . S
H527 C522 0.929 . S
O528 Mn504 2.385 . S
O528 C506 1.234 . S
O529 Mn504 2.209 . S
O529 Mn505 2.215 . S
O529 C506 1.283 . S
O530 Mn504 2.094 . S
O530 C508 1.240 . S
O531 Mn505 2.117 . S
O531 C508 1.264 . S
C532 C525 1.403 . S
C532 C533 1.399 . S
C532 H538 0.929 . S
C533 C513 1.449 . S
C533 C532 1.399 . S
C533 H539 0.930 . S
H534 C514 0.931 . S
H535 C515 0.930 . S
H536 C523 0.931 . S
H537 C524 0.929 . S
H538 C532 0.929 . S
H539 C533 0.930 . S
Mn540 O545 2.095 . S
Mn540 O555 2.162 . S
Mn540 O556 2.297 . S
Mn540 O564 2.385 . S
Mn540 O565 2.209 . S
Mn540 O566 2.094 . S
Mn541 O546 2.121 . S
Mn541 N548 2.257 . S
Mn541 N557 2.282 . S
Mn541 O565 2.215 . S
Mn541 O567 2.117 . S
C542 O564 1.234 . S
C542 O565 1.283 . S
C543 O555 1.281 . S
C543 O556 1.236 . S
C544 O566 1.240 . S
C544 O567 1.264 . S
O545 Mn540 2.095 . S
O545 C554 1.250 . S
O546 Mn541 2.121 . S
O546 C554 1.258 . S
C547 N548 1.326 . S
C547 C551 1.460 . S
C547 H553 0.929 . S
N548 Mn541 2.257 . S
N548 C547 1.326 . S
N548 C552 1.362 . S
C549 C550 1.258 . S
C549 C552 1.431 . S
C549 C569 1.449 . S
C550 C549 1.258 . S
C550 C551 1.477 . S
C550 H570 0.931 . S
C551 C547 1.460 . S
C551 C550 1.477 . S
C551 H571 0.930 . S
C552 N548 1.362 . S
C552 C549 1.431 . S
C552 C562 1.476 . S
H553 C547 0.929 . S
C554 O545 1.250 . S
C554 O546 1.258 . S
O555 Mn540 2.162 . S
O555 C543 1.281 . S
O556 Mn540 2.297 . S
O556 C543 1.236 . S
N557 Mn541 2.282 . S
N557 C558 1.328 . S
N557 C562 1.318 . S
C558 N557 1.328 . S
C558 C559 1.457 . S
C558 H563 0.929 . S
C559 C558 1.457 . S
C559 C560 1.291 . S
C559 H572 0.931 . S
C560 C559 1.291 . S
C560 C561 1.373 . S
C560 H573 0.929 . S
C561 C560 1.373 . S
C561 C562 1.396 . S
C561 C568 1.403 . S
C562 C552 1.476 . S
C562 N557 1.318 . S
C562 C561 1.396 . S
H563 C558 0.929 . S
O564 Mn540 2.385 . S
O564 C542 1.234 . S
O565 Mn540 2.209 . S
O565 Mn541 2.215 . S
O565 C542 1.283 . S
O566 Mn540 2.094 . S
O566 C544 1.240 . S
O567 Mn541 2.117 . S
O567 C544 1.264 . S
C568 C561 1.403 . S
C568 C569 1.399 . S
C568 H574 0.929 . S
C569 C549 1.449 . S
C569 C568 1.399 . S
C569 H575 0.930 . S
H570 C550 0.931 . S
H571 C551 0.930 . S
H572 C559 0.931 . S
H573 C560 0.929 . S
H574 C568 0.929 . S
H575 C569 0.930 . S
Mn576 O581 2.095 1_545 S
Mn576 O591 2.162 . S
Mn576 O592 2.297 1_545 S
Mn576 O600 2.385 . S
Mn576 O601 2.209 . S
Mn576 O602 2.094 . S
Mn577 O582 2.121 1_545 S
Mn577 N584 2.257 1_545 S
Mn577 N593 2.282 . S
Mn577 O601 2.215 . S
Mn577 O603 2.117 . S
C578 O600 1.234 . S
C578 O601 1.283 . S
C579 O591 1.281 . S
C579 O592 1.236 1_545 S
C580 O602 1.240 . S
C580 O603 1.264 . S
O581 Mn576 2.095 1_565 S
O581 C590 1.250 . S
O582 Mn577 2.121 1_565 S
O582 C590 1.258 . S
C583 N584 1.326 . S
C583 C587 1.460 . S
C583 H589 0.929 . S
N584 Mn577 2.257 1_565 S
N584 C583 1.326 . S
N584 C588 1.362 1_565 S
C585 C586 1.258 1_545 S
C585 C588 1.431 . S
C585 C605 1.449 . S
C586 C585 1.258 1_565 S
C586 C587 1.477 . S
C586 H606 0.931 . S
C587 C583 1.460 . S
C587 C586 1.477 . S
C587 H607 0.930 . S
C588 N584 1.362 1_545 S
C588 C585 1.431 . S
C588 C598 1.476 . S
H589 C583 0.929 . S
C590 O581 1.250 . S
C590 O582 1.258 . S
O591 Mn576 2.162 . S
O591 C579 1.281 . S
O592 Mn576 2.297 1_565 S
O592 C579 1.236 1_565 S
N593 Mn577 2.282 . S
N593 C594 1.328 . S
N593 C598 1.318 . S
C594 N593 1.328 . S
C594 C595 1.457 . S
C594 H599 0.929 . S
C595 C594 1.457 . S
C595 C596 1.291 . S
C595 H608 0.931 . S
C596 C595 1.291 . S
C596 C597 1.373 . S
C596 H609 0.929 . S
C597 C596 1.373 . S
C597 C598 1.396 . S
C597 C604 1.403 . S
C598 C588 1.476 . S
C598 N593 1.318 . S
C598 C597 1.396 . S
H599 C594 0.929 . S
O600 Mn576 2.385 . S
O600 C578 1.234 . S
O601 Mn576 2.209 . S
O601 Mn577 2.215 . S
O601 C578 1.283 . S
O602 Mn576 2.094 . S
O602 C580 1.240 . S
O603 Mn577 2.117 . S
O603 C580 1.264 . S
C604 C597 1.403 . S
C604 C605 1.399 . S
C604 H610 0.929 . S
C605 C585 1.449 . S
C605 C604 1.399 . S
C605 H611 0.930 . S
H606 C586 0.931 . S
H607 C587 0.930 . S
H608 C595 0.931 . S
H609 C596 0.929 . S
H610 C604 0.929 . S
H611 C605 0.930 . S
Mn612 O617 2.095 . S
Mn612 O627 2.162 1_655 S
Mn612 O628 2.297 1_655 S
Mn612 O636 2.385 . S
Mn612 O637 2.209 . S
Mn612 O638 2.094 . S
Mn613 O618 2.121 . S
Mn613 N620 2.257 . S
Mn613 N629 2.282 . S
Mn613 O637 2.215 . S
Mn613 O639 2.117 . S
C614 O636 1.234 . S
C614 O637 1.283 . S
C615 O627 1.281 . S
C615 O628 1.236 . S
C616 O638 1.240 . S
C616 O639 1.264 . S
O617 Mn612 2.095 . S
O617 C626 1.250 . S
O618 Mn613 2.121 . S
O618 C626 1.258 . S
C619 N620 1.326 . S
C619 C623 1.460 . S
C619 H625 0.929 . S
N620 Mn613 2.257 . S
N620 C619 1.326 . S
N620 C624 1.362 . S
C621 C622 1.258 . S
C621 C624 1.431 . S
C621 C641 1.449 . S
C622 C621 1.258 . S
C622 C623 1.477 . S
C622 H642 0.931 . S
C623 C619 1.460 . S
C623 C622 1.477 . S
C623 H643 0.930 . S
C624 N620 1.362 . S
C624 C621 1.431 . S
C624 C634 1.476 . S
H625 C619 0.929 . S
C626 O617 1.250 . S
C626 O618 1.258 . S
O627 Mn612 2.162 1_455 S
O627 C615 1.281 . S
O628 Mn612 2.297 1_455 S
O628 C615 1.236 . S
N629 Mn613 2.282 . S
N629 C630 1.328 . S
N629 C634 1.318 . S
C630 N629 1.328 . S
C630 C631 1.457 . S
C630 H635 0.929 . S
C631 C630 1.457 . S
C631 C632 1.291 . S
C631 H644 0.931 . S
C632 C631 1.291 . S
C632 C633 1.373 . S
C632 H645 0.929 . S
C633 C632 1.373 . S
C633 C634 1.396 . S
C633 C640 1.403 . S
C634 C624 1.476 . S
C634 N629 1.318 . S
C634 C633 1.396 . S
H635 C630 0.929 . S
O636 Mn612 2.385 . S
O636 C614 1.234 . S
O637 Mn612 2.209 . S
O637 Mn613 2.215 . S
O637 C614 1.283 . S
O638 Mn612 2.094 . S
O638 C616 1.240 . S
O639 Mn613 2.117 . S
O639 C616 1.264 . S
C640 C633 1.403 . S
C640 C641 1.399 . S
C640 H646 0.929 . S
C641 C621 1.449 . S
C641 C640 1.399 . S
C641 H647 0.930 . S
H642 C622 0.931 . S
H643 C623 0.930 . S
H644 C631 0.931 . S
H645 C632 0.929 . S
H646 C640 0.929 . S
H647 C641 0.930 . S
C648 C649 1.384 . S
C648 C650 1.384 . S
C648 H676 0.931 . S
C649 C648 1.384 . S
C649 C652 1.382 . S
C650 C648 1.384 . S
C650 C651 1.381 . S
C650 H677 0.930 . S
C651 C650 1.381 . S
C651 C653 1.381 . S
C651 C654 1.487 . S
C652 C649 1.382 . S
C652 C653 1.387 . S
C652 H678 0.930 . S
C653 C651 1.381 . S
C653 C652 1.387 . S
C653 H679 0.931 . S
C654 C651 1.487 . S
C654 C661 1.399 . S
C654 N692 1.343 . S
C655 C656 1.384 . S
C655 C657 1.384 . S
C655 H680 0.931 . S
C656 C655 1.384 . S
C656 C659 1.382 . S
C657 C655 1.384 . S
C657 C658 1.381 . S
C657 H681 0.930 . S
C658 C657 1.381 . S
C658 C660 1.381 . S
C658 C661 1.487 . S
C659 C656 1.382 . S
C659 C660 1.387 . S
C659 H682 0.930 . S
C660 C658 1.381 . S
C660 C659 1.387 . S
C660 H683 0.931 . S
C661 C654 1.399 . S
C661 C658 1.487 . S
C661 N693 1.343 . S
C662 C663 1.384 . S
C662 C664 1.384 . S
C662 H684 0.931 . S
C663 C662 1.384 . S
C663 C666 1.382 . S
C664 C662 1.384 . S
C664 C665 1.381 . S
C664 H685 0.930 . S
C665 C664 1.381 . S
C665 C667 1.381 . S
C665 C668 1.487 . S
C666 C663 1.382 . S
C666 C667 1.387 . S
C666 H686 0.930 . S
C667 C665 1.381 . S
C667 C666 1.387 . S
C667 H687 0.931 . S
C668 C665 1.487 . S
C668 C675 1.399 . S
C668 N693 1.343 . S
C669 C670 1.384 . S
C669 C671 1.384 . S
C669 H688 0.931 . S
C670 C669 1.384 . S
C670 C673 1.382 . S
C671 C669 1.384 . S
C671 C672 1.381 . S
C671 H689 0.930 . S
C672 C671 1.381 . S
C672 C674 1.381 . S
C672 C675 1.487 . S
C673 C670 1.382 . S
C673 C674 1.387 . S
C673 H690 0.930 . S
C674 C672 1.381 . S
C674 C673 1.387 . S
C674 H691 0.931 . S
C675 C668 1.399 . S
C675 C672 1.487 . S
C675 N692 1.343 . S
H676 C648 0.931 . S
H677 C650 0.930 . S
H678 C652 0.930 . S
H679 C653 0.931 . S
H680 C655 0.931 . S
H681 C657 0.930 . S
H682 C659 0.930 . S
H683 C660 0.931 . S
H684 C662 0.931 . S
H685 C664 0.930 . S
H686 C666 0.930 . S
H687 C667 0.931 . S
H688 C669 0.931 . S
H689 C671 0.930 . S
H690 C673 0.930 . S
H691 C674 0.931 . S
N692 C654 1.343 . S
N692 C675 1.343 . S
N693 C661 1.343 . S
N693 C668 1.343 . S
C694 C695 1.384 . S
C694 C696 1.384 . S
C694 H722 0.931 . S
C695 C694 1.384 . S
C695 C698 1.382 . S
C696 C694 1.384 . S
C696 C697 1.381 . S
C696 H723 0.930 . S
C697 C696 1.381 . S
C697 C699 1.381 . S
C697 C700 1.487 . S
C698 C695 1.382 . S
C698 C699 1.387 . S
C698 H724 0.930 . S
C699 C697 1.381 . S
C699 C698 1.387 . S
C699 H725 0.931 . S
C700 C697 1.487 . S
C700 C707 1.399 . S
C700 N738 1.343 . S
C701 C702 1.384 . S
C701 C703 1.384 . S
C701 H726 0.931 . S
C702 C701 1.384 . S
C702 C705 1.382 . S
C703 C701 1.384 . S
C703 C704 1.381 . S
C703 H727 0.930 . S
C704 C703 1.381 . S
C704 C706 1.381 . S
C704 C707 1.487 . S
C705 C702 1.382 . S
C705 C706 1.387 . S
C705 H728 0.930 . S
C706 C704 1.381 . S
C706 C705 1.387 . S
C706 H729 0.931 . S
C707 C700 1.399 . S
C707 C704 1.487 . S
C707 N739 1.343 . S
C708 C709 1.384 . S
C708 C710 1.384 . S
C708 H730 0.931 . S
C709 C708 1.384 . S
C709 C712 1.382 . S
C710 C708 1.384 . S
C710 C711 1.381 . S
C710 H731 0.930 . S
C711 C710 1.381 . S
C711 C713 1.381 . S
C711 C714 1.487 . S
C712 C709 1.382 . S
C712 C713 1.387 . S
C712 H732 0.930 . S
C713 C711 1.381 . S
C713 C712 1.387 . S
C713 H733 0.931 . S
C714 C711 1.487 . S
C714 C721 1.399 . S
C714 N739 1.343 . S
C715 C716 1.384 . S
C715 C717 1.384 . S
C715 H734 0.931 . S
C716 C715 1.384 . S
C716 C719 1.382 . S
C717 C715 1.384 . S
C717 C718 1.381 . S
C717 H735 0.930 . S
C718 C717 1.381 . S
C718 C720 1.381 . S
C718 C721 1.487 . S
C719 C716 1.382 . S
C719 C720 1.387 . S
C719 H736 0.930 . S
C720 C718 1.381 . S
C720 C719 1.387 . S
C720 H737 0.931 . S
C721 C714 1.399 . S
C721 C718 1.487 . S
C721 N738 1.343 . S
H722 C694 0.931 . S
H723 C696 0.930 . S
H724 C698 0.930 . S
H725 C699 0.931 . S
H726 C701 0.931 . S
H727 C703 0.930 . S
H728 C705 0.930 . S
H729 C706 0.931 . S
H730 C708 0.931 . S
H731 C710 0.930 . S
H732 C712 0.930 . S
H733 C713 0.931 . S
H734 C715 0.931 . S
H735 C717 0.930 . S
H736 C719 0.930 . S
H737 C720 0.931 . S
N738 C700 1.343 . S
N738 C721 1.343 . S
N739 C707 1.343 . S
N739 C714 1.343 . S
C740 C741 1.384 . S
C740 C742 1.384 . S
C740 H768 0.931 . S
C741 C740 1.384 . S
C741 C744 1.382 . S
C742 C740 1.384 . S
C742 C743 1.381 . S
C742 H769 0.930 . S
C743 C742 1.381 . S
C743 C745 1.381 . S
C743 C746 1.487 . S
C744 C741 1.382 . S
C744 C745 1.387 . S
C744 H770 0.930 . S
C745 C743 1.381 . S
C745 C744 1.387 . S
C745 H771 0.931 . S
C746 C743 1.487 . S
C746 C753 1.399 . S
C746 N784 1.343 . S
C747 C748 1.384 . S
C747 C749 1.384 . S
C747 H772 0.931 . S
C748 C747 1.384 . S
C748 C751 1.382 . S
C749 C747 1.384 . S
C749 C750 1.381 . S
C749 H773 0.930 . S
C750 C749 1.381 . S
C750 C752 1.381 . S
C750 C753 1.487 . S
C751 C748 1.382 . S
C751 C752 1.387 . S
C751 H774 0.930 . S
C752 C750 1.381 . S
C752 C751 1.387 . S
C752 H775 0.931 . S
C753 C746 1.399 . S
C753 C750 1.487 . S
C753 N785 1.343 . S
C754 C755 1.384 . S
C754 C756 1.384 . S
C754 H776 0.931 . S
C755 C754 1.384 . S
C755 C758 1.382 . S
C756 C754 1.384 . S
C756 C757 1.381 . S
C756 H777 0.930 . S
C757 C756 1.381 . S
C757 C759 1.381 . S
C757 C760 1.487 . S
C758 C755 1.382 . S
C758 C759 1.387 . S
C758 H778 0.930 . S
C759 C757 1.381 . S
C759 C758 1.387 . S
C759 H779 0.931 . S
C760 C757 1.487 . S
C760 C767 1.399 . S
C760 N785 1.343 . S
C761 C762 1.384 . S
C761 C763 1.384 . S
C761 H780 0.931 . S
C762 C761 1.384 . S
C762 C765 1.382 . S
C763 C761 1.384 . S
C763 C764 1.381 . S
C763 H781 0.930 . S
C764 C763 1.381 . S
C764 C766 1.381 . S
C764 C767 1.487 . S
C765 C762 1.382 . S
C765 C766 1.387 . S
C765 H782 0.930 . S
C766 C764 1.381 . S
C766 C765 1.387 . S
C766 H783 0.931 . S
C767 C760 1.399 . S
C767 C764 1.487 . S
C767 N784 1.343 . S
H768 C740 0.931 . S
H769 C742 0.930 . S
H770 C744 0.930 . S
H771 C745 0.931 . S
H772 C747 0.931 . S
H773 C749 0.930 . S
H774 C751 0.930 . S
H775 C752 0.931 . S
H776 C754 0.931 . S
H777 C756 0.930 . S
H778 C758 0.930 . S
H779 C759 0.931 . S
H780 C761 0.931 . S
H781 C763 0.930 . S
H782 C765 0.930 . S
H783 C766 0.931 . S
N784 C746 1.343 . S
N784 C767 1.343 . S
N785 C753 1.343 . S
N785 C760 1.343 . S
C786 C787 1.384 . S
C786 C788 1.384 . S
C786 H814 0.931 . S
C787 C786 1.384 . S
C787 C790 1.382 . S
C788 C786 1.384 . S
C788 C789 1.381 . S
C788 H815 0.930 . S
C789 C788 1.381 . S
C789 C791 1.381 . S
C789 C792 1.487 . S
C790 C787 1.382 . S
C790 C791 1.387 . S
C790 H816 0.930 . S
C791 C789 1.381 . S
C791 C790 1.387 . S
C791 H817 0.931 . S
C792 C789 1.487 . S
C792 C799 1.399 . S
C792 N830 1.343 . S
C793 C794 1.384 . S
C793 C795 1.384 . S
C793 H818 0.931 . S
C794 C793 1.384 . S
C794 C797 1.382 . S
C795 C793 1.384 . S
C795 C796 1.381 . S
C795 H819 0.930 . S
C796 C795 1.381 . S
C796 C798 1.381 . S
C796 C799 1.487 . S
C797 C794 1.382 . S
C797 C798 1.387 . S
C797 H820 0.930 . S
C798 C796 1.381 . S
C798 C797 1.387 . S
C798 H821 0.931 . S
C799 C792 1.399 . S
C799 C796 1.487 . S
C799 N831 1.343 . S
C800 C801 1.384 . S
C800 C802 1.384 . S
C800 H822 0.931 . S
C801 C800 1.384 . S
C801 C804 1.382 . S
C802 C800 1.384 . S
C802 C803 1.381 . S
C802 H823 0.930 . S
C803 C802 1.381 . S
C803 C805 1.381 . S
C803 C806 1.487 . S
C804 C801 1.382 . S
C804 C805 1.387 . S
C804 H824 0.930 . S
C805 C803 1.381 . S
C805 C804 1.387 . S
C805 H825 0.931 . S
C806 C803 1.487 . S
C806 C813 1.399 . S
C806 N831 1.343 . S
C807 C808 1.384 . S
C807 C809 1.384 . S
C807 H826 0.931 . S
C808 C807 1.384 . S
C808 C811 1.382 . S
C809 C807 1.384 . S
C809 C810 1.381 . S
C809 H827 0.930 . S
C810 C809 1.381 . S
C810 C812 1.381 . S
C810 C813 1.487 . S
C811 C808 1.382 . S
C811 C812 1.387 . S
C811 H828 0.930 . S
C812 C810 1.381 . S
C812 C811 1.387 . S
C812 H829 0.931 . S
C813 C806 1.399 . S
C813 C810 1.487 . S
C813 N830 1.343 . S
H814 C786 0.931 . S
H815 C788 0.930 . S
H816 C790 0.930 . S
H817 C791 0.931 . S
H818 C793 0.931 . S
H819 C795 0.930 . S
H820 C797 0.930 . S
H821 C798 0.931 . S
H822 C800 0.931 . S
H823 C802 0.930 . S
H824 C804 0.930 . S
H825 C805 0.931 . S
H826 C807 0.931 . S
H827 C809 0.930 . S
H828 C811 0.930 . S
H829 C812 0.931 . S
N830 C792 1.343 . S
N830 C813 1.343 . S
N831 C799 1.343 . S
N831 C806 1.343 . S
C832 C833 1.384 . S
C832 C834 1.384 . S
C832 H860 0.931 . S
C833 C832 1.384 . S
C833 C836 1.382 . S
C834 C832 1.384 . S
C834 C835 1.381 . S
C834 H861 0.930 . S
C835 C834 1.381 . S
C835 C837 1.381 . S
C835 C838 1.487 . S
C836 C833 1.382 . S
C836 C837 1.387 . S
C836 H862 0.930 . S
C837 C835 1.381 . S
C837 C836 1.387 . S
C837 H863 0.931 . S
C838 C835 1.487 . S
C838 C845 1.399 . S
C838 N876 1.343 . S
C839 C840 1.384 . S
C839 C841 1.384 . S
C839 H864 0.931 . S
C840 C839 1.384 . S
C840 C843 1.382 . S
C841 C839 1.384 . S
C841 C842 1.381 . S
C841 H865 0.930 . S
C842 C841 1.381 . S
C842 C844 1.381 . S
C842 C845 1.487 . S
C843 C840 1.382 . S
C843 C844 1.387 . S
C843 H866 0.930 . S
C844 C842 1.381 . S
C844 C843 1.387 . S
C844 H867 0.931 . S
C845 C838 1.399 . S
C845 C842 1.487 . S
C845 N877 1.343 . S
C846 C847 1.384 . S
C846 C848 1.384 . S
C846 H868 0.931 . S
C847 C846 1.384 . S
C847 C850 1.382 . S
C848 C846 1.384 . S
C848 C849 1.381 . S
C848 H869 0.930 . S
C849 C848 1.381 . S
C849 C851 1.381 . S
C849 C852 1.487 . S
C850 C847 1.382 . S
C850 C851 1.387 . S
C850 H870 0.930 . S
C851 C849 1.381 . S
C851 C850 1.387 . S
C851 H871 0.931 . S
C852 C849 1.487 . S
C852 C859 1.399 . S
C852 N877 1.343 . S
C853 C854 1.384 . S
C853 C855 1.384 . S
C853 H872 0.931 . S
C854 C853 1.384 . S
C854 C857 1.382 . S
C855 C853 1.384 . S
C855 C856 1.381 . S
C855 H873 0.930 . S
C856 C855 1.381 . S
C856 C858 1.381 . S
C856 C859 1.487 . S
C857 C854 1.382 . S
C857 C858 1.387 . S
C857 H874 0.930 . S
C858 C856 1.381 . S
C858 C857 1.387 . S
C858 H875 0.931 . S
C859 C852 1.399 . S
C859 C856 1.487 . S
C859 N876 1.343 . S
H860 C832 0.931 . S
H861 C834 0.930 . S
H862 C836 0.930 . S
H863 C837 0.931 . S
H864 C839 0.931 . S
H865 C841 0.930 . S
H866 C843 0.930 . S
H867 C844 0.931 . S
H868 C846 0.931 . S
H869 C848 0.930 . S
H870 C850 0.930 . S
H871 C851 0.931 . S
H872 C853 0.931 . S
H873 C855 0.930 . S
H874 C857 0.930 . S
H875 C858 0.931 . S
N876 C838 1.343 . S
N876 C859 1.343 . S
N877 C845 1.343 . S
N877 C852 1.343 . S
C878 C879 1.384 . S
C878 C880 1.384 . S
C878 H906 0.931 . S
C879 C878 1.384 . S
C879 C882 1.382 . S
C880 C878 1.384 . S
C880 C881 1.381 . S
C880 H907 0.930 . S
C881 C880 1.381 . S
C881 C883 1.381 . S
C881 C884 1.487 . S
C882 C879 1.382 . S
C882 C883 1.387 . S
C882 H908 0.930 . S
C883 C881 1.381 . S
C883 C882 1.387 . S
C883 H909 0.931 . S
C884 C881 1.487 . S
C884 C891 1.399 . S
C884 N922 1.343 . S
C885 C886 1.384 . S
C885 C887 1.384 . S
C885 H910 0.931 . S
C886 C885 1.384 . S
C886 C889 1.382 . S
C887 C885 1.384 . S
C887 C888 1.381 . S
C887 H911 0.930 . S
C888 C887 1.381 . S
C888 C890 1.381 . S
C888 C891 1.487 . S
C889 C886 1.382 . S
C889 C890 1.387 . S
C889 H912 0.930 . S
C890 C888 1.381 . S
C890 C889 1.387 . S
C890 H913 0.931 . S
C891 C884 1.399 . S
C891 C888 1.487 . S
C891 N923 1.343 . S
C892 C893 1.384 . S
C892 C894 1.384 . S
C892 H914 0.931 . S
C893 C892 1.384 . S
C893 C896 1.382 . S
C894 C892 1.384 . S
C894 C895 1.381 . S
C894 H915 0.930 . S
C895 C894 1.381 . S
C895 C897 1.381 . S
C895 C898 1.487 . S
C896 C893 1.382 . S
C896 C897 1.387 . S
C896 H916 0.930 . S
C897 C895 1.381 . S
C897 C896 1.387 . S
C897 H917 0.931 . S
C898 C895 1.487 . S
C898 C905 1.399 . S
C898 N923 1.343 . S
C899 C900 1.384 . S
C899 C901 1.384 . S
C899 H918 0.931 . S
C900 C899 1.384 . S
C900 C903 1.382 . S
C901 C899 1.384 . S
C901 C902 1.381 . S
C901 H919 0.930 . S
C902 C901 1.381 . S
C902 C904 1.381 . S
C902 C905 1.487 . S
C903 C900 1.382 . S
C903 C904 1.387 . S
C903 H920 0.930 . S
C904 C902 1.381 . S
C904 C903 1.387 . S
C904 H921 0.931 . S
C905 C898 1.399 . S
C905 C902 1.487 . S
C905 N922 1.343 . S
H906 C878 0.931 . S
H907 C880 0.930 . S
H908 C882 0.930 . S
H909 C883 0.931 . S
H910 C885 0.931 . S
H911 C887 0.930 . S
H912 C889 0.930 . S
H913 C890 0.931 . S
H914 C892 0.931 . S
H915 C894 0.930 . S
H916 C896 0.930 . S
H917 C897 0.931 . S
H918 C899 0.931 . S
H919 C901 0.930 . S
H920 C903 0.930 . S
H921 C904 0.931 . S
N922 C884 1.343 . S
N922 C905 1.343 . S
N923 C891 1.343 . S
N923 C898 1.343 . S
C924 C925 1.384 . S
C924 C926 1.384 . S
C924 H952 0.931 . S
C925 C924 1.384 . S
C925 C928 1.382 . S
C926 C924 1.384 . S
C926 C927 1.381 . S
C926 H953 0.930 . S
C927 C926 1.381 . S
C927 C929 1.381 . S
C927 C930 1.487 . S
C928 C925 1.382 . S
C928 C929 1.387 . S
C928 H954 0.930 . S
C929 C927 1.381 . S
C929 C928 1.387 . S
C929 H955 0.931 . S
C930 C927 1.487 . S
C930 C937 1.399 . S
C930 N968 1.343 . S
C931 C932 1.384 . S
C931 C933 1.384 . S
C931 H956 0.931 . S
C932 C931 1.384 . S
C932 C935 1.382 . S
C933 C931 1.384 . S
C933 C934 1.381 . S
C933 H957 0.930 . S
C934 C933 1.381 . S
C934 C936 1.381 . S
C934 C937 1.487 . S
C935 C932 1.382 . S
C935 C936 1.387 . S
C935 H958 0.930 . S
C936 C934 1.381 . S
C936 C935 1.387 . S
C936 H959 0.931 . S
C937 C930 1.399 . S
C937 C934 1.487 . S
C937 N969 1.343 . S
C938 C939 1.384 . S
C938 C940 1.384 . S
C938 H960 0.931 . S
C939 C938 1.384 . S
C939 C942 1.382 . S
C940 C938 1.384 . S
C940 C941 1.381 . S
C940 H961 0.930 . S
C941 C940 1.381 . S
C941 C943 1.381 . S
C941 C944 1.487 . S
C942 C939 1.382 . S
C942 C943 1.387 . S
C942 H962 0.930 . S
C943 C941 1.381 . S
C943 C942 1.387 . S
C943 H963 0.931 . S
C944 C941 1.487 . S
C944 C951 1.399 . S
C944 N969 1.343 . S
C945 C946 1.384 . S
C945 C947 1.384 . S
C945 H964 0.931 . S
C946 C945 1.384 . S
C946 C949 1.382 . S
C947 C945 1.384 . S
C947 C948 1.381 . S
C947 H965 0.930 . S
C948 C947 1.381 . S
C948 C950 1.381 . S
C948 C951 1.487 . S
C949 C946 1.382 . S
C949 C950 1.387 . S
C949 H966 0.930 . S
C950 C948 1.381 . S
C950 C949 1.387 . S
C950 H967 0.931 . S
C951 C944 1.399 . S
C951 C948 1.487 . S
C951 N968 1.343 . S
H952 C924 0.931 . S
H953 C926 0.930 . S
H954 C928 0.930 . S
H955 C929 0.931 . S
H956 C931 0.931 . S
H957 C933 0.930 . S
H958 C935 0.930 . S
H959 C936 0.931 . S
H960 C938 0.931 . S
H961 C940 0.930 . S
H962 C942 0.930 . S
H963 C943 0.931 . S
H964 C945 0.931 . S
H965 C947 0.930 . S
H966 C949 0.930 . S
H967 C950 0.931 . S
N968 C930 1.343 . S
N968 C951 1.343 . S
N969 C937 1.343 . S
N969 C944 1.343 . S
C970 C971 1.384 . S
C970 C972 1.384 . S
C970 H998 0.931 . S
C971 C970 1.384 . S
C971 C974 1.382 . S
C972 C970 1.384 . S
C972 C973 1.381 . S
C972 H999 0.930 . S
C973 C972 1.381 . S
C973 C975 1.381 . S
C973 C976 1.487 . S
C974 C971 1.382 . S
C974 C975 1.387 . S
C974 H1000 0.930 . S
C975 C973 1.381 . S
C975 C974 1.387 . S
C975 H1001 0.931 . S
C976 C973 1.487 . S
C976 C983 1.399 . S
C976 N1014 1.343 . S
C977 C978 1.384 . S
C977 C979 1.384 . S
C977 H1002 0.931 . S
C978 C977 1.384 . S
C978 C981 1.382 . S
C979 C977 1.384 . S
C979 C980 1.381 . S
C979 H1003 0.930 . S
C980 C979 1.381 . S
C980 C982 1.381 . S
C980 C983 1.487 . S
C981 C978 1.382 . S
C981 C982 1.387 . S
C981 H1004 0.930 . S
C982 C980 1.381 . S
C982 C981 1.387 . S
C982 H1005 0.931 . S
C983 C976 1.399 . S
C983 C980 1.487 . S
C983 N1015 1.343 . S
C984 C985 1.384 . S
C984 C986 1.384 . S
C984 H1006 0.931 . S
C985 C984 1.384 . S
C985 C988 1.382 . S
C986 C984 1.384 . S
C986 C987 1.381 . S
C986 H1007 0.930 . S
C987 C986 1.381 . S
C987 C989 1.381 . S
C987 C990 1.487 . S
C988 C985 1.382 . S
C988 C989 1.387 . S
C988 H1008 0.930 . S
C989 C987 1.381 . S
C989 C988 1.387 . S
C989 H1009 0.931 . S
C990 C987 1.487 . S
C990 C997 1.399 . S
C990 N1015 1.343 . S
C991 C992 1.384 . S
C991 C993 1.384 . S
C991 H1010 0.931 . S
C992 C991 1.384 . S
C992 C995 1.382 . S
C993 C991 1.384 . S
C993 C994 1.381 . S
C993 H1011 0.930 . S
C994 C993 1.381 . S
C994 C996 1.381 . S
C994 C997 1.487 . S
C995 C992 1.382 . S
C995 C996 1.387 . S
C995 H1012 0.930 . S
C996 C994 1.381 . S
C996 C995 1.387 . S
C996 H1013 0.931 . S
C997 C990 1.399 . S
C997 C994 1.487 . S
C997 N1014 1.343 . S
H998 C970 0.931 . S
H999 C972 0.930 . S
H1000 C974 0.930 . S
H1001 C975 0.931 . S
H1002 C977 0.931 . S
H1003 C979 0.930 . S
H1004 C981 0.930 . S
H1005 C982 0.931 . S
H1006 C984 0.931 . S
H1007 C986 0.930 . S
H1008 C988 0.930 . S
H1009 C989 0.931 . S
H1010 C991 0.931 . S
H1011 C993 0.930 . S
H1012 C995 0.930 . S
H1013 C996 0.931 . S
N1014 C976 1.343 . S
N1014 C997 1.343 . S
N1015 C983 1.343 . S
N1015 C990 1.343 . S
C1016 C1017 1.384 . S
C1016 C1018 1.384 . S
C1016 H1044 0.931 . S
C1017 C1016 1.384 . S
C1017 C1020 1.382 . S
C1018 C1016 1.384 . S
C1018 C1019 1.381 . S
C1018 H1045 0.930 . S
C1019 C1018 1.381 . S
C1019 C1021 1.381 . S
C1019 C1022 1.487 . S
C1020 C1017 1.382 . S
C1020 C1021 1.387 . S
C1020 H1046 0.930 . S
C1021 C1019 1.381 . S
C1021 C1020 1.387 . S
C1021 H1047 0.931 . S
C1022 C1019 1.487 . S
C1022 C1029 1.399 . S
C1022 N1060 1.343 . S
C1023 C1024 1.384 . S
C1023 C1025 1.384 . S
C1023 H1048 0.931 . S
C1024 C1023 1.384 . S
C1024 C1027 1.382 . S
C1025 C1023 1.384 . S
C1025 C1026 1.381 . S
C1025 H1049 0.930 . S
C1026 C1025 1.381 . S
C1026 C1028 1.381 . S
C1026 C1029 1.487 . S
C1027 C1024 1.382 . S
C1027 C1028 1.387 . S
C1027 H1050 0.930 . S
C1028 C1026 1.381 . S
C1028 C1027 1.387 . S
C1028 H1051 0.931 . S
C1029 C1022 1.399 . S
C1029 C1026 1.487 . S
C1029 N1061 1.343 . S
C1030 C1031 1.384 . S
C1030 C1032 1.384 . S
C1030 H1052 0.931 . S
C1031 C1030 1.384 . S
C1031 C1034 1.382 . S
C1032 C1030 1.384 . S
C1032 C1033 1.381 . S
C1032 H1053 0.930 . S
C1033 C1032 1.381 . S
C1033 C1035 1.381 . S
C1033 C1036 1.487 . S
C1034 C1031 1.382 . S
C1034 C1035 1.387 . S
C1034 H1054 0.930 . S
C1035 C1033 1.381 . S
C1035 C1034 1.387 . S
C1035 H1055 0.931 . S
C1036 C1033 1.487 . S
C1036 C1043 1.399 . S
C1036 N1061 1.343 . S
C1037 C1038 1.384 . S
C1037 C1039 1.384 . S
C1037 H1056 0.931 . S
C1038 C1037 1.384 . S
C1038 C1041 1.382 . S
C1039 C1037 1.384 . S
C1039 C1040 1.381 . S
C1039 H1057 0.930 . S
C1040 C1039 1.381 . S
C1040 C1042 1.381 . S
C1040 C1043 1.487 . S
C1041 C1038 1.382 . S
C1041 C1042 1.387 . S
C1041 H1058 0.930 . S
C1042 C1040 1.381 . S
C1042 C1041 1.387 . S
C1042 H1059 0.931 . S
C1043 C1036 1.399 . S
C1043 C1040 1.487 . S
C1043 N1060 1.343 . S
H1044 C1016 0.931 . S
H1045 C1018 0.930 . S
H1046 C1020 0.930 . S
H1047 C1021 0.931 . S
H1048 C1023 0.931 . S
H1049 C1025 0.930 . S
H1050 C1027 0.930 . S
H1051 C1028 0.931 . S
H1052 C1030 0.931 . S
H1053 C1032 0.930 . S
H1054 C1034 0.930 . S
H1055 C1035 0.931 . S
H1056 C1037 0.931 . S
H1057 C1039 0.930 . S
H1058 C1041 0.930 . S
H1059 C1042 0.931 . S
N1060 C1022 1.343 . S
N1060 C1043 1.343 . S
N1061 C1029 1.343 . S
N1061 C1036 1.343 . S
C1062 C1063 1.384 . S
C1062 C1064 1.384 . S
C1062 H1090 0.931 . S
C1063 C1062 1.384 . S
C1063 C1066 1.382 1_655 S
C1064 C1062 1.384 . S
C1064 C1065 1.385 1_655 S
C1064 H1091 0.930 . S
C1065 C1064 1.385 1_455 S
C1065 C1067 1.379 . S
C1065 C1068 1.475 . S
C1066 C1063 1.382 1_455 S
C1066 C1067 1.387 . S
C1066 H1092 0.930 . S
C1067 C1065 1.379 . S
C1067 C1066 1.387 . S
C1067 H1093 0.931 . S
C1068 C1065 1.475 . S
C1068 C1075 1.398 1_455 S
C1068 N1106 1.355 . S
C1069 C1070 1.384 . S
C1069 C1071 1.384 . S
C1069 H1094 0.931 . S
C1070 C1069 1.384 . S
C1070 C1073 1.382 1_455 S
C1071 C1069 1.384 . S
C1071 C1072 1.383 . S
C1071 H1095 0.930 . S
C1072 C1071 1.383 . S
C1072 C1074 1.378 1_455 S
C1072 C1075 1.495 1_455 S
C1073 C1070 1.382 1_655 S
C1073 C1074 1.387 . S
C1073 H1096 0.930 . S
C1074 C1072 1.378 1_655 S
C1074 C1073 1.387 . S
C1074 H1097 0.931 . S
C1075 C1068 1.398 1_655 S
C1075 C1072 1.495 1_655 S
C1075 N1107 1.337 . S
C1076 C1077 1.384 . S
C1076 C1078 1.384 . S
C1076 H1098 0.931 . S
C1077 C1076 1.384 . S
C1077 C1080 1.382 1_455 S
C1078 C1076 1.384 . S
C1078 C1079 1.385 . S
C1078 H1099 0.930 . S
C1079 C1078 1.385 . S
C1079 C1081 1.379 1_455 S
C1079 C1082 1.479 1_455 S
C1080 C1077 1.382 1_655 S
C1080 C1081 1.387 . S
C1080 H1100 0.930 . S
C1081 C1079 1.379 1_655 S
C1081 C1080 1.387 . S
C1081 H1101 0.931 . S
C1082 C1079 1.479 1_655 S
C1082 C1089 1.398 1_655 S
C1082 N1107 1.351 . S
C1083 C1084 1.384 . S
C1083 C1085 1.384 . S
C1083 H1102 0.931 . S
C1084 C1083 1.384 . S
C1084 C1087 1.382 1_655 S
C1085 C1083 1.384 . S
C1085 C1086 1.381 . S
C1085 H1103 0.930 . S
C1086 C1085 1.381 . S
C1086 C1088 1.383 1_655 S
C1086 C1089 1.495 1_655 S
C1087 C1084 1.382 1_455 S
C1087 C1088 1.387 . S
C1087 H1104 0.930 . S
C1088 C1086 1.383 1_455 S
C1088 C1087 1.387 . S
C1088 H1105 0.931 . S
C1089 C1082 1.398 1_455 S
C1089 C1086 1.495 1_455 S
C1089 N1106 1.334 . S
H1090 C1062 0.931 . S
H1091 C1064 0.930 . S
H1092 C1066 0.930 . S
H1093 C1067 0.931 . S
H1094 C1069 0.931 . S
H1095 C1071 0.930 . S
H1096 C1073 0.930 . S
H1097 C1074 0.931 . S
H1098 C1076 0.931 . S
H1099 C1078 0.930 . S
H1100 C1080 0.930 . S
H1101 C1081 0.931 . S
H1102 C1083 0.931 . S
H1103 C1085 0.930 . S
H1104 C1087 0.930 . S
H1105 C1088 0.931 . S
N1106 C1068 1.355 . S
N1106 C1089 1.334 . S
N1107 C1075 1.337 . S
N1107 C1082 1.351 . S
C1108 C1109 1.384 . S
C1108 C1110 1.384 . S
C1108 H1136 0.931 . S
C1109 C1108 1.384 . S
C1109 C1112 1.382 . S
C1110 C1108 1.384 . S
C1110 C1111 1.381 . S
C1110 H1137 0.930 . S
C1111 C1110 1.381 . S
C1111 C1113 1.381 . S
C1111 C1114 1.487 . S
C1112 C1109 1.382 . S
C1112 C1113 1.387 . S
C1112 H1138 0.930 . S
C1113 C1111 1.381 . S
C1113 C1112 1.387 . S
C1113 H1139 0.931 . S
C1114 C1111 1.487 . S
C1114 C1121 1.399 . S
C1114 N1152 1.343 . S
C1115 C1116 1.384 . S
C1115 C1117 1.384 . S
C1115 H1140 0.931 . S
C1116 C1115 1.384 . S
C1116 C1119 1.382 . S
C1117 C1115 1.384 . S
C1117 C1118 1.381 . S
C1117 H1141 0.930 . S
C1118 C1117 1.381 . S
C1118 C1120 1.381 . S
C1118 C1121 1.487 . S
C1119 C1116 1.382 . S
C1119 C1120 1.387 . S
C1119 H1142 0.930 . S
C1120 C1118 1.381 . S
C1120 C1119 1.387 . S
C1120 H1143 0.931 . S
C1121 C1114 1.399 . S
C1121 C1118 1.487 . S
C1121 N1153 1.343 . S
C1122 C1123 1.384 . S
C1122 C1124 1.384 . S
C1122 H1144 0.931 . S
C1123 C1122 1.384 . S
C1123 C1126 1.382 . S
C1124 C1122 1.384 . S
C1124 C1125 1.381 . S
C1124 H1145 0.930 . S
C1125 C1124 1.381 . S
C1125 C1127 1.381 . S
C1125 C1128 1.487 . S
C1126 C1123 1.382 . S
C1126 C1127 1.387 . S
C1126 H1146 0.930 . S
C1127 C1125 1.381 . S
C1127 C1126 1.387 . S
C1127 H1147 0.931 . S
C1128 C1125 1.487 . S
C1128 C1135 1.399 . S
C1128 N1153 1.343 . S
C1129 C1130 1.384 . S
C1129 C1131 1.384 . S
C1129 H1148 0.931 . S
C1130 C1129 1.384 . S
C1130 C1133 1.382 . S
C1131 C1129 1.384 . S
C1131 C1132 1.381 . S
C1131 H1149 0.930 . S
C1132 C1131 1.381 . S
C1132 C1134 1.381 . S
C1132 C1135 1.487 . S
C1133 C1130 1.382 . S
C1133 C1134 1.387 . S
C1133 H1150 0.930 . S
C1134 C1132 1.381 . S
C1134 C1133 1.387 . S
C1134 H1151 0.931 . S
C1135 C1128 1.399 . S
C1135 C1132 1.487 . S
C1135 N1152 1.343 . S
H1136 C1108 0.931 . S
H1137 C1110 0.930 . S
H1138 C1112 0.930 . S
H1139 C1113 0.931 . S
H1140 C1115 0.931 . S
H1141 C1117 0.930 . S
H1142 C1119 0.930 . S
H1143 C1120 0.931 . S
H1144 C1122 0.931 . S
H1145 C1124 0.930 . S
H1146 C1126 0.930 . S
H1147 C1127 0.931 . S
H1148 C1129 0.931 . S
H1149 C1131 0.930 . S
H1150 C1133 0.930 . S
H1151 C1134 0.931 . S
N1152 C1114 1.343 . S
N1152 C1135 1.343 . S
N1153 C1121 1.343 . S
N1153 C1128 1.343 . S
C1154 C1155 1.384 1_545 S
C1154 C1156 1.384 . S
C1154 H1182 0.931 . S
C1155 C1154 1.384 1_565 S
C1155 C1158 1.382 . S
C1156 C1154 1.384 . S
C1156 C1157 1.381 1_545 S
C1156 H1183 0.930 . S
C1157 C1156 1.381 1_565 S
C1157 C1159 1.381 . S
C1157 C1160 1.487 . S
C1158 C1155 1.382 . S
C1158 C1159 1.387 . S
C1158 H1184 0.930 . S
C1159 C1157 1.381 . S
C1159 C1158 1.387 . S
C1159 H1185 0.931 . S
C1160 C1157 1.487 . S
C1160 C1167 1.399 1_565 S
C1160 N1198 1.343 . S
C1161 C1162 1.384 1_565 S
C1161 C1163 1.384 . S
C1161 H1186 0.931 . S
C1162 C1161 1.384 1_545 S
C1162 C1165 1.382 . S
C1163 C1161 1.384 . S
C1163 C1164 1.381 1_565 S
C1163 H1187 0.930 . S
C1164 C1163 1.381 1_545 S
C1164 C1166 1.381 . S
C1164 C1167 1.487 . S
C1165 C1162 1.382 . S
C1165 C1166 1.387 . S
C1165 H1188 0.930 . S
C1166 C1164 1.381 . S
C1166 C1165 1.387 . S
C1166 H1189 0.931 . S
C1167 C1160 1.399 1_545 S
C1167 C1164 1.487 . S
C1167 N1199 1.343 . S
C1168 C1169 1.384 1_565 S
C1168 C1170 1.384 . S
C1168 H1190 0.931 . S
C1169 C1168 1.384 1_545 S
C1169 C1172 1.382 . S
C1170 C1168 1.384 . S
C1170 C1171 1.381 1_565 S
C1170 H1191 0.930 . S
C1171 C1170 1.381 1_545 S
C1171 C1173 1.381 . S
C1171 C1174 1.487 . S
C1172 C1169 1.382 . S
C1172 C1173 1.387 . S
C1172 H1192 0.930 . S
C1173 C1171 1.381 . S
C1173 C1172 1.387 . S
C1173 H1193 0.931 . S
C1174 C1171 1.487 . S
C1174 C1181 1.399 1_545 S
C1174 N1199 1.343 . S
C1175 C1176 1.384 1_545 S
C1175 C1177 1.384 . S
C1175 H1194 0.931 . S
C1176 C1175 1.384 1_565 S
C1176 C1179 1.382 . S
C1177 C1175 1.384 . S
C1177 C1178 1.381 1_545 S
C1177 H1195 0.930 . S
C1178 C1177 1.381 1_565 S
C1178 C1180 1.381 . S
C1178 C1181 1.487 . S
C1179 C1176 1.382 . S
C1179 C1180 1.387 . S
C1179 H1196 0.930 . S
C1180 C1178 1.381 . S
C1180 C1179 1.387 . S
C1180 H1197 0.931 . S
C1181 C1174 1.399 1_565 S
C1181 C1178 1.487 . S
C1181 N1198 1.343 . S
H1182 C1154 0.931 . S
H1183 C1156 0.930 . S
H1184 C1158 0.930 . S
H1185 C1159 0.931 . S
H1186 C1161 0.931 . S
H1187 C1163 0.930 . S
H1188 C1165 0.930 . S
H1189 C1166 0.931 . S
H1190 C1168 0.931 . S
H1191 C1170 0.930 . S
H1192 C1172 0.930 . S
H1193 C1173 0.931 . S
H1194 C1175 0.931 . S
H1195 C1177 0.930 . S
H1196 C1179 0.930 . S
H1197 C1180 0.931 . S
N1198 C1160 1.343 . S
N1198 C1181 1.343 . S
N1199 C1167 1.343 . S
N1199 C1174 1.343 . S
C1200 C1201 1.384 . S
C1200 C1202 1.384 . S
C1200 H1228 0.931 . S
C1201 C1200 1.384 . S
C1201 C1204 1.382 1_545 S
C1202 C1200 1.384 . S
C1202 C1203 1.384 . S
C1202 H1229 0.930 . S
C1203 C1202 1.384 . S
C1203 C1205 1.374 1_545 S
C1203 C1206 1.497 1_545 S
C1204 C1201 1.382 1_565 S
C1204 C1205 1.387 . S
C1204 H1230 0.930 . S
C1205 C1203 1.374 1_565 S
C1205 C1204 1.387 . S
C1205 H1231 0.931 . S
C1206 C1203 1.497 1_565 S
C1206 C1213 1.399 1_565 S
C1206 N1244 1.338 . S
C1207 C1208 1.384 . S
C1207 C1209 1.384 . S
C1207 H1232 0.931 . S
C1208 C1207 1.384 . S
C1208 C1211 1.382 1_565 S
C1209 C1207 1.384 . S
C1209 C1210 1.401 . S
C1209 H1233 0.930 . S
C1210 C1209 1.401 . S
C1210 C1212 1.371 1_565 S
C1210 C1213 1.473 1_565 S
C1211 C1208 1.382 1_545 S
C1211 C1212 1.387 . S
C1211 H1234 0.930 . S
C1212 C1210 1.371 1_545 S
C1212 C1211 1.387 . S
C1212 H1235 0.931 . S
C1213 C1206 1.399 1_545 S
C1213 C1210 1.473 1_545 S
C1213 N1245 1.349 . S
C1214 C1215 1.384 . S
C1214 C1216 1.384 . S
C1214 H1236 0.931 . S
C1215 C1214 1.384 . S
C1215 C1218 1.382 1_565 S
C1216 C1214 1.384 . S
C1216 C1217 1.382 . S
C1216 H1237 0.930 . S
C1217 C1216 1.382 . S
C1217 C1219 1.379 1_565 S
C1217 C1220 1.497 1_565 S
C1218 C1215 1.382 1_545 S
C1218 C1219 1.387 . S
C1218 H1238 0.930 . S
C1219 C1217 1.379 1_545 S
C1219 C1218 1.387 . S
C1219 H1239 0.931 . S
C1220 C1217 1.497 1_545 S
C1220 C1227 1.399 1_545 S
C1220 N1245 1.335 . S
C1221 C1222 1.384 . S
C1221 C1223 1.384 . S
C1221 H1240 0.931 . S
C1222 C1221 1.384 . S
C1222 C1225 1.382 1_545 S
C1223 C1221 1.384 . S
C1223 C1224 1.410 . S
C1223 H1241 0.930 . S
C1224 C1223 1.410 . S
C1224 C1226 1.366 1_545 S
C1224 C1227 1.473 1_545 S
C1225 C1222 1.382 1_565 S
C1225 C1226 1.387 . S
C1225 H1242 0.930 . S
C1226 C1224 1.366 1_565 S
C1226 C1225 1.387 . S
C1226 H1243 0.931 . S
C1227 C1220 1.399 1_565 S
C1227 C1224 1.473 1_565 S
C1227 N1244 1.345 . S
H1228 C1200 0.931 . S
H1229 C1202 0.930 . S
H1230 C1204 0.930 . S
H1231 C1205 0.931 . S
H1232 C1207 0.931 . S
H1233 C1209 0.930 . S
H1234 C1211 0.930 . S
H1235 C1212 0.931 . S
H1236 C1214 0.931 . S
H1237 C1216 0.930 . S
H1238 C1218 0.930 . S
H1239 C1219 0.931 . S
H1240 C1221 0.931 . S
H1241 C1223 0.930 . S
H1242 C1225 0.930 . S
H1243 C1226 0.931 . S
N1244 C1206 1.338 . S
N1244 C1227 1.345 . S
N1245 C1213 1.349 . S
N1245 C1220 1.335 . S
C1246 C1247 1.384 . S
C1246 C1248 1.384 . S
C1246 H1274 0.931 . S
C1247 C1246 1.384 . S
C1247 C1250 1.382 1_655 S
C1248 C1246 1.384 . S
C1248 C1249 1.381 . S
C1248 H1275 0.930 . S
C1249 C1248 1.381 . S
C1249 C1251 1.381 1_655 S
C1249 C1252 1.485 . S
C1250 C1247 1.382 1_455 S
C1250 C1251 1.387 . S
C1250 H1276 0.930 . S
C1251 C1249 1.381 1_455 S
C1251 C1250 1.387 . S
C1251 H1277 0.931 . S
C1252 C1249 1.485 . S
C1252 C1259 1.399 . S
C1252 N1290 1.328 1_655 S
C1253 C1254 1.384 . S
C1253 C1255 1.384 . S
C1253 H1278 0.931 . S
C1254 C1253 1.384 . S
C1254 C1257 1.382 1_455 S
C1255 C1253 1.384 . S
C1255 C1256 1.389 . S
C1255 H1279 0.930 . S
C1256 C1255 1.389 . S
C1256 C1258 1.363 1_455 S
C1256 C1259 1.503 1_455 S
C1257 C1254 1.382 1_655 S
C1257 C1258 1.387 . S
C1257 H1280 0.930 . S
C1258 C1256 1.363 1_655 S
C1258 C1257 1.387 . S
C1258 H1281 0.931 . S
C1259 C1252 1.399 . S
C1259 C1256 1.503 1_655 S
C1259 N1291 1.340 . S
C1260 C1261 1.384 . S
C1260 C1262 1.384 . S
C1260 H1282 0.931 . S
C1261 C1260 1.384 . S
C1261 C1264 1.382 1_455 S
C1262 C1260 1.384 . S
C1262 C1263 1.420 . S
C1262 H1283 0.930 . S
C1263 C1262 1.420 . S
C1263 C1265 1.361 1_455 S
C1263 C1266 1.468 1_455 S
C1264 C1261 1.382 1_655 S
C1264 C1265 1.387 . S
C1264 H1284 0.930 . S
C1265 C1263 1.361 1_655 S
C1265 C1264 1.387 . S
C1265 H1285 0.931 . S
C1266 C1263 1.468 1_655 S
C1266 C1273 1.399 1_655 S
C1266 N1291 1.345 . S
C1267 C1268 1.384 . S
C1267 C1269 1.384 . S
C1267 H1286 0.931 . S
C1268 C1267 1.384 . S
C1268 C1271 1.382 1_655 S
C1269 C1267 1.384 . S
C1269 C1270 1.381 . S
C1269 H1287 0.930 . S
C1270 C1269 1.381 . S
C1270 C1272 1.381 1_655 S
C1270 C1273 1.486 1_655 S
C1271 C1268 1.382 1_455 S
C1271 C1272 1.387 . S
C1271 H1288 0.930 . S
C1272 C1270 1.381 1_455 S
C1272 C1271 1.387 . S
C1272 H1289 0.931 . S
C1273 C1266 1.399 1_455 S
C1273 C1270 1.486 1_455 S
C1273 N1290 1.359 . S
H1274 C1246 0.931 . S
H1275 C1248 0.930 . S
H1276 C1250 0.930 . S
H1277 C1251 0.931 . S
H1278 C1253 0.931 . S
H1279 C1255 0.930 . S
H1280 C1257 0.930 . S
H1281 C1258 0.931 . S
H1282 C1260 0.931 . S
H1283 C1262 0.930 . S
H1284 C1264 0.930 . S
H1285 C1265 0.931 . S
H1286 C1267 0.931 . S
H1287 C1269 0.930 . S
H1288 C1271 0.930 . S
H1289 C1272 0.931 . S
N1290 C1252 1.328 1_455 S
N1290 C1273 1.359 . S
N1291 C1259 1.340 . S
N1291 C1266 1.345 . S
C1292 C1293 1.384 . S
C1292 C1294 1.384 . S
C1292 H1320 0.931 . S
C1293 C1292 1.384 . S
C1293 C1296 1.382 . S
C1294 C1292 1.384 . S
C1294 C1295 1.381 . S
C1294 H1321 0.930 . S
C1295 C1294 1.381 . S
C1295 C1297 1.381 . S
C1295 C1298 1.487 . S
C1296 C1293 1.382 . S
C1296 C1297 1.387 . S
C1296 H1322 0.930 . S
C1297 C1295 1.381 . S
C1297 C1296 1.387 . S
C1297 H1323 0.931 . S
C1298 C1295 1.487 . S
C1298 C1305 1.399 . S
C1298 N1336 1.343 . S
C1299 C1300 1.384 . S
C1299 C1301 1.384 . S
C1299 H1324 0.931 . S
C1300 C1299 1.384 . S
C1300 C1303 1.382 . S
C1301 C1299 1.384 . S
C1301 C1302 1.381 . S
C1301 H1325 0.930 . S
C1302 C1301 1.381 . S
C1302 C1304 1.381 . S
C1302 C1305 1.487 . S
C1303 C1300 1.382 . S
C1303 C1304 1.387 . S
C1303 H1326 0.930 . S
C1304 C1302 1.381 . S
C1304 C1303 1.387 . S
C1304 H1327 0.931 . S
C1305 C1298 1.399 . S
C1305 C1302 1.487 . S
C1305 N1337 1.343 . S
C1306 C1307 1.384 . S
C1306 C1308 1.384 . S
C1306 H1328 0.931 . S
C1307 C1306 1.384 . S
C1307 C1310 1.382 . S
C1308 C1306 1.384 . S
C1308 C1309 1.381 . S
C1308 H1329 0.930 . S
C1309 C1308 1.381 . S
C1309 C1311 1.381 . S
C1309 C1312 1.487 . S
C1310 C1307 1.382 . S
C1310 C1311 1.387 . S
C1310 H1330 0.930 . S
C1311 C1309 1.381 . S
C1311 C1310 1.387 . S
C1311 H1331 0.931 . S
C1312 C1309 1.487 . S
C1312 C1319 1.399 . S
C1312 N1337 1.343 . S
C1313 C1314 1.384 . S
C1313 C1315 1.384 . S
C1313 H1332 0.931 . S
C1314 C1313 1.384 . S
C1314 C1317 1.382 . S
C1315 C1313 1.384 . S
C1315 C1316 1.381 . S
C1315 H1333 0.930 . S
C1316 C1315 1.381 . S
C1316 C1318 1.381 . S
C1316 C1319 1.487 . S
C1317 C1314 1.382 . S
C1317 C1318 1.387 . S
C1317 H1334 0.930 . S
C1318 C1316 1.381 . S
C1318 C1317 1.387 . S
C1318 H1335 0.931 . S
C1319 C1312 1.399 . S
C1319 C1316 1.487 . S
C1319 N1336 1.343 . S
H1320 C1292 0.931 . S
H1321 C1294 0.930 . S
H1322 C1296 0.930 . S
H1323 C1297 0.931 . S
H1324 C1299 0.931 . S
H1325 C1301 0.930 . S
H1326 C1303 0.930 . S
H1327 C1304 0.931 . S
H1328 C1306 0.931 . S
H1329 C1308 0.930 . S
H1330 C1310 0.930 . S
H1331 C1311 0.931 . S
H1332 C1313 0.931 . S
H1333 C1315 0.930 . S
H1334 C1317 0.930 . S
H1335 C1318 0.931 . S
N1336 C1298 1.343 . S
N1336 C1319 1.343 . S
N1337 C1305 1.343 . S
N1337 C1312 1.343 . S
C1338 C1339 1.384 . S
C1338 C1340 1.384 . S
C1338 H1366 0.931 . S
C1339 C1338 1.384 . S
C1339 C1342 1.382 . S
C1340 C1338 1.384 . S
C1340 C1341 1.381 . S
C1340 H1367 0.930 . S
C1341 C1340 1.381 . S
C1341 C1343 1.381 . S
C1341 C1344 1.487 . S
C1342 C1339 1.382 . S
C1342 C1343 1.387 . S
C1342 H1368 0.930 . S
C1343 C1341 1.381 . S
C1343 C1342 1.387 . S
C1343 H1369 0.931 . S
C1344 C1341 1.487 . S
C1344 C1351 1.399 . S
C1344 N1382 1.343 . S
C1345 C1346 1.384 . S
C1345 C1347 1.384 . S
C1345 H1370 0.931 . S
C1346 C1345 1.384 . S
C1346 C1349 1.382 . S
C1347 C1345 1.384 . S
C1347 C1348 1.381 . S
C1347 H1371 0.930 . S
C1348 C1347 1.381 . S
C1348 C1350 1.381 . S
C1348 C1351 1.487 . S
C1349 C1346 1.382 . S
C1349 C1350 1.387 . S
C1349 H1372 0.930 . S
C1350 C1348 1.381 . S
C1350 C1349 1.387 . S
C1350 H1373 0.931 . S
C1351 C1344 1.399 . S
C1351 C1348 1.487 . S
C1351 N1383 1.343 . S
C1352 C1353 1.384 . S
C1352 C1354 1.384 . S
C1352 H1374 0.931 . S
C1353 C1352 1.384 . S
C1353 C1356 1.382 . S
C1354 C1352 1.384 . S
C1354 C1355 1.381 . S
C1354 H1375 0.930 . S
C1355 C1354 1.381 . S
C1355 C1357 1.381 . S
C1355 C1358 1.487 . S
C1356 C1353 1.382 . S
C1356 C1357 1.387 . S
C1356 H1376 0.930 . S
C1357 C1355 1.381 . S
C1357 C1356 1.387 . S
C1357 H1377 0.931 . S
C1358 C1355 1.487 . S
C1358 C1365 1.399 . S
C1358 N1383 1.343 . S
C1359 C1360 1.384 . S
C1359 C1361 1.384 . S
C1359 H1378 0.931 . S
C1360 C1359 1.384 . S
C1360 C1363 1.382 . S
C1361 C1359 1.384 . S
C1361 C1362 1.381 . S
C1361 H1379 0.930 . S
C1362 C1361 1.381 . S
C1362 C1364 1.381 . S
C1362 C1365 1.487 . S
C1363 C1360 1.382 . S
C1363 C1364 1.387 . S
C1363 H1380 0.930 . S
C1364 C1362 1.381 . S
C1364 C1363 1.387 . S
C1364 H1381 0.931 . S
C1365 C1358 1.399 . S
C1365 C1362 1.487 . S
C1365 N1382 1.343 . S
H1366 C1338 0.931 . S
H1367 C1340 0.930 . S
H1368 C1342 0.930 . S
H1369 C1343 0.931 . S
H1370 C1345 0.931 . S
H1371 C1347 0.930 . S
H1372 C1349 0.930 . S
H1373 C1350 0.931 . S
H1374 C1352 0.931 . S
H1375 C1354 0.930 . S
H1376 C1356 0.930 . S
H1377 C1357 0.931 . S
H1378 C1359 0.931 . S
H1379 C1361 0.930 . S
H1380 C1363 0.930 . S
H1381 C1364 0.931 . S
N1382 C1344 1.343 . S
N1382 C1365 1.343 . S
N1383 C1351 1.343 . S
N1383 C1358 1.343 . S
C1384 C1385 1.384 . S
C1384 C1386 1.384 . S
C1384 H1412 0.931 . S
C1385 C1384 1.384 . S
C1385 C1388 1.382 . S
C1386 C1384 1.384 . S
C1386 C1387 1.381 . S
C1386 H1413 0.930 . S
C1387 C1386 1.381 . S
C1387 C1389 1.381 . S
C1387 C1390 1.487 . S
C1388 C1385 1.382 . S
C1388 C1389 1.387 . S
C1388 H1414 0.930 . S
C1389 C1387 1.381 . S
C1389 C1388 1.387 . S
C1389 H1415 0.931 . S
C1390 C1387 1.487 . S
C1390 C1397 1.399 . S
C1390 N1428 1.343 . S
C1391 C1392 1.384 . S
C1391 C1393 1.384 . S
C1391 H1416 0.931 . S
C1392 C1391 1.384 . S
C1392 C1395 1.382 . S
C1393 C1391 1.384 . S
C1393 C1394 1.381 . S
C1393 H1417 0.930 . S
C1394 C1393 1.381 . S
C1394 C1396 1.381 . S
C1394 C1397 1.487 . S
C1395 C1392 1.382 . S
C1395 C1396 1.387 . S
C1395 H1418 0.930 . S
C1396 C1394 1.381 . S
C1396 C1395 1.387 . S
C1396 H1419 0.931 . S
C1397 C1390 1.399 . S
C1397 C1394 1.487 . S
C1397 N1429 1.343 . S
C1398 C1399 1.384 . S
C1398 C1400 1.384 . S
C1398 H1420 0.931 . S
C1399 C1398 1.384 . S
C1399 C1402 1.382 . S
C1400 C1398 1.384 . S
C1400 C1401 1.381 . S
C1400 H1421 0.930 . S
C1401 C1400 1.381 . S
C1401 C1403 1.381 . S
C1401 C1404 1.487 . S
C1402 C1399 1.382 . S
C1402 C1403 1.387 . S
C1402 H1422 0.930 . S
C1403 C1401 1.381 . S
C1403 C1402 1.387 . S
C1403 H1423 0.931 . S
C1404 C1401 1.487 . S
C1404 C1411 1.399 . S
C1404 N1429 1.343 . S
C1405 C1406 1.384 . S
C1405 C1407 1.384 . S
C1405 H1424 0.931 . S
C1406 C1405 1.384 . S
C1406 C1409 1.382 . S
C1407 C1405 1.384 . S
C1407 C1408 1.381 . S
C1407 H1425 0.930 . S
C1408 C1407 1.381 . S
C1408 C1410 1.381 . S
C1408 C1411 1.487 . S
C1409 C1406 1.382 . S
C1409 C1410 1.387 . S
C1409 H1426 0.930 . S
C1410 C1408 1.381 . S
C1410 C1409 1.387 . S
C1410 H1427 0.931 . S
C1411 C1404 1.399 . S
C1411 C1408 1.487 . S
C1411 N1428 1.343 . S
H1412 C1384 0.931 . S
H1413 C1386 0.930 . S
H1414 C1388 0.930 . S
H1415 C1389 0.931 . S
H1416 C1391 0.931 . S
H1417 C1393 0.930 . S
H1418 C1395 0.930 . S
H1419 C1396 0.931 . S
H1420 C1398 0.931 . S
H1421 C1400 0.930 . S
H1422 C1402 0.930 . S
H1423 C1403 0.931 . S
H1424 C1405 0.931 . S
H1425 C1407 0.930 . S
H1426 C1409 0.930 . S
H1427 C1410 0.931 . S
N1428 C1390 1.343 . S
N1428 C1411 1.343 . S
N1429 C1397 1.343 . S
N1429 C1404 1.343 . S
C1430 C1431 1.384 . S
C1430 C1432 1.384 . S
C1430 H1458 0.931 . S
C1431 C1430 1.384 . S
C1431 C1434 1.382 . S
C1432 C1430 1.384 . S
C1432 C1433 1.381 . S
C1432 H1459 0.930 . S
C1433 C1432 1.381 . S
C1433 C1435 1.381 . S
C1433 C1436 1.487 . S
C1434 C1431 1.382 . S
C1434 C1435 1.387 . S
C1434 H1460 0.930 . S
C1435 C1433 1.381 . S
C1435 C1434 1.387 . S
C1435 H1461 0.931 . S
C1436 C1433 1.487 . S
C1436 C1443 1.399 . S
C1436 N1474 1.343 . S
C1437 C1438 1.384 . S
C1437 C1439 1.384 . S
C1437 H1462 0.931 . S
C1438 C1437 1.384 . S
C1438 C1441 1.382 . S
C1439 C1437 1.384 . S
C1439 C1440 1.381 . S
C1439 H1463 0.930 . S
C1440 C1439 1.381 . S
C1440 C1442 1.381 . S
C1440 C1443 1.487 . S
C1441 C1438 1.382 . S
C1441 C1442 1.387 . S
C1441 H1464 0.930 . S
C1442 C1440 1.381 . S
C1442 C1441 1.387 . S
C1442 H1465 0.931 . S
C1443 C1436 1.399 . S
C1443 C1440 1.487 . S
C1443 N1475 1.343 . S
C1444 C1445 1.384 . S
C1444 C1446 1.384 . S
C1444 H1466 0.931 . S
C1445 C1444 1.384 . S
C1445 C1448 1.382 . S
C1446 C1444 1.384 . S
C1446 C1447 1.381 . S
C1446 H1467 0.930 . S
C1447 C1446 1.381 . S
C1447 C1449 1.381 . S
C1447 C1450 1.487 . S
C1448 C1445 1.382 . S
C1448 C1449 1.387 . S
C1448 H1468 0.930 . S
C1449 C1447 1.381 . S
C1449 C1448 1.387 . S
C1449 H1469 0.931 . S
C1450 C1447 1.487 . S
C1450 C1457 1.399 . S
C1450 N1475 1.343 . S
C1451 C1452 1.384 . S
C1451 C1453 1.384 . S
C1451 H1470 0.931 . S
C1452 C1451 1.384 . S
C1452 C1455 1.382 . S
C1453 C1451 1.384 . S
C1453 C1454 1.381 . S
C1453 H1471 0.930 . S
C1454 C1453 1.381 . S
C1454 C1456 1.381 . S
C1454 C1457 1.487 . S
C1455 C1452 1.382 . S
C1455 C1456 1.387 . S
C1455 H1472 0.930 . S
C1456 C1454 1.381 . S
C1456 C1455 1.387 . S
C1456 H1473 0.931 . S
C1457 C1450 1.399 . S
C1457 C1454 1.487 . S
C1457 N1474 1.343 . S
H1458 C1430 0.931 . S
H1459 C1432 0.930 . S
H1460 C1434 0.930 . S
H1461 C1435 0.931 . S
H1462 C1437 0.931 . S
H1463 C1439 0.930 . S
H1464 C1441 0.930 . S
H1465 C1442 0.931 . S
H1466 C1444 0.931 . S
H1467 C1446 0.930 . S
H1468 C1448 0.930 . S
H1469 C1449 0.931 . S
H1470 C1451 0.931 . S
H1471 C1453 0.930 . S
H1472 C1455 0.930 . S
H1473 C1456 0.931 . S
N1474 C1436 1.343 . S
N1474 C1457 1.343 . S
N1475 C1443 1.343 . S
N1475 C1450 1.343 . S
C4 C1084 1.440 . S
C38 C1130 2.068 . S
C1162 C74 1.477 . S
C76 C1215 1.387 . S
C2 C1261 1.600 . S
C40 C1300 1.860 . S
C110 C1254 1.547 . S
C1307 C148 1.942 . S
C1208 C182 1.546 . S
C184 C1169 1.467 . S
C1063 C112 1.422 . S
C146 C1109 1.956 . S
C220 C1339 2.037 . S
C254 C1406 2.245 . S
C1452 C290 2.085 . S
C292 C663 1.828 . S
C218 C709 2.024 . S
C256 C755 1.925 . S
C326 C702 2.070 . S
C364 C748 2.022 . S
C656 C398 2.079 . S
C1431 C400 1.952 . S
C1360 C328 1.907 . S
C1385 C362 2.134 . S
C436 C787 1.947 . S
C470 C840 2.235 . S
C506 C886 2.088 . S
C508 C932 1.979 . S
C985 C434 2.047 . S
C1031 C472 1.980 . S
C978 C542 2.166 . S
C1024 C580 2.082 . S
C614 C939 2.155 . S
C893 C616 1.896 . S
C544 C808 1.877 . S
C847 C578 2.108 . S
C670 C14 2.297 . S
C39 C716 1.950 . S
C762 C75 2.014 . S
C794 C86 1.968 . S
C833 C3 1.956 . S
C879 C50 2.111 . S
C111 C900 1.889 . S
C158 C801 2.093 . S
C183 C854 2.132 . S
C194 C695 2.204 . S
C741 C122 2.238 . S
C147 C649 1.822 . S
C925 C230 2.149 . S
C255 C992 1.985 . S
C291 C1038 1.959 . S
C1077 C302 1.279 . S
C219 C1123 1.887 . S
C266 C1155 1.362 . S
C327 C1176 1.337 . S
C374 C1070 1.377 . S
C1116 C399 2.042 . S
C410 C971 2.100 . S
C338 C1017 2.118 . S
C946 C363 1.821 . S
C1222 C446 1.408 . S
C471 C1268 1.408 . S
C507 C1293 1.852 . S
C1346 C518 1.909 . S
C1399 C435 1.963 . S
C482 C1445 2.159 . S
C543 C1438 1.880 . S
C590 C1353 2.072 . S
C1392 C615 2.093 . S
C1247 C626 1.377 . S
C1314 C554 2.022 . S
C579 C1201 1.323 . S
