# Generated by pormake.
# Topology zzz, (3,6)-cn, num edge types: 1
# Building blocks:
#     Node 0, Type 0, BuildingBlock: CUQRIR_clean_linker_1, # of connection points: 3
#     Node 1, Type 0, BuildingBlock: CUQRIR_clean_linker_1, # of connection points: 3
#     Node 2, Type 0, BuildingBlock: CUQRIR_clean_linker_1, # of connection points: 3
#     Node 3, Type 0, BuildingBlock: CUQRIR_clean_linker_1, # of connection points: 3
#     Node 4, Type 0, BuildingBlock: CUQRIR_clean_linker_1, # of connection points: 3
#     Node 5, Type 0, BuildingBlock: CUQRIR_clean_linker_1, # of connection points: 3
#     Node 6, Type 0, BuildingBlock: CUQRIR_clean_linker_1, # of connection points: 3
#     Node 7, Type 0, BuildingBlock: CUQRIR_clean_linker_1, # of connection points: 3
#     Node 8, Type 1, BuildingBlock: BETFEN_clean_sbu_0, # of connection points: 6
#     Node 9, Type 1, BuildingBlock: BETFEN_clean_sbu_0, # of connection points: 6
#     Node 10, Type 1, BuildingBlock: BETFEN_clean_sbu_0, # of connection points: 6
#     Node 11, Type 1, BuildingBlock: BETFEN_clean_sbu_0, # of connection points: 6
#     Edge 12, Type (0, 1), BuildingBlock: XUDNAN_clean_linker_2, # of connection points: 2
#     Edge 13, Type (0, 1), BuildingBlock: XUDNAN_clean_linker_2, # of connection points: 2
#     Edge 14, Type (0, 1), BuildingBlock: XUDNAN_clean_linker_2, # of connection points: 2
#     Edge 15, Type (0, 1), BuildingBlock: XUDNAN_clean_linker_2, # of connection points: 2
#     Edge 16, Type (0, 1), BuildingBlock: XUDNAN_clean_linker_2, # of connection points: 2
#     Edge 17, Type (0, 1), BuildingBlock: XUDNAN_clean_linker_2, # of connection points: 2
#     Edge 18, Type (0, 1), BuildingBlock: XUDNAN_clean_linker_2, # of connection points: 2
#     Edge 19, Type (0, 1), BuildingBlock: XUDNAN_clean_linker_2, # of connection points: 2
#     Edge 20, Type (0, 1), BuildingBlock: XUDNAN_clean_linker_2, # of connection points: 2
#     Edge 21, Type (0, 1), BuildingBlock: XUDNAN_clean_linker_2, # of connection points: 2
#     Edge 22, Type (0, 1), BuildingBlock: XUDNAN_clean_linker_2, # of connection points: 2
#     Edge 23, Type (0, 1), BuildingBlock: XUDNAN_clean_linker_2, # of connection points: 2
#     Edge 24, Type (0, 1), BuildingBlock: XUDNAN_clean_linker_2, # of connection points: 2
#     Edge 25, Type (0, 1), BuildingBlock: XUDNAN_clean_linker_2, # of connection points: 2
#     Edge 26, Type (0, 1), BuildingBlock: XUDNAN_clean_linker_2, # of connection points: 2
#     Edge 27, Type (0, 1), BuildingBlock: XUDNAN_clean_linker_2, # of connection points: 2
#     Edge 28, Type (0, 1), BuildingBlock: XUDNAN_clean_linker_2, # of connection points: 2
#     Edge 29, Type (0, 1), BuildingBlock: XUDNAN_clean_linker_2, # of connection points: 2
#     Edge 30, Type (0, 1), BuildingBlock: XUDNAN_clean_linker_2, # of connection points: 2
#     Edge 31, Type (0, 1), BuildingBlock: XUDNAN_clean_linker_2, # of connection points: 2
#     Edge 32, Type (0, 1), BuildingBlock: XUDNAN_clean_linker_2, # of connection points: 2
#     Edge 33, Type (0, 1), BuildingBlock: XUDNAN_clean_linker_2, # of connection points: 2
#     Edge 34, Type (0, 1), BuildingBlock: XUDNAN_clean_linker_2, # of connection points: 2
#     Edge 35, Type (0, 1), BuildingBlock: XUDNAN_clean_linker_2, # of connection points: 2
# Relax obj value: 0.317
# Max RMSD: 0.197
# Mean RMSD: 0.159
data_MOF--net-zzz--node1-BETFEN_clean_sbu_0--node2-CUQRIR_clean_linker_1--edge1-XUDNAN_clean_linker_2
_symmetry_space_group_name_H-M    P1
_symmetry_Int_Tables_number       1
_symmetry_cell_setting            triclinic
loop_
_symmetry_equiv_pos_as_xyz
'x, y, z'
_cell_length_a     49.194761
_cell_length_b     49.261071
_cell_length_c     12.129445
_cell_angle_alpha  89.889359
_cell_angle_beta   89.827254
_cell_angle_gamma 90.065208
loop_
_atom_site_label
_atom_site_type_symbol
_atom_site_fract_x
_atom_site_fract_y
_atom_site_fract_z
_atom_type_partial_charge
C0 C 0.74536 0.53227 0.38471 0.0
N1 N 0.77009 0.51964 0.37907 0.0
N2 N 0.72958 0.52599 0.29523 0.0
C3 C 0.73609 0.54937 0.4796 0.0
C4 C 0.74585 0.50947 0.2352 0.0
N5 N 0.76966 0.50493 0.28715 0.0
C6 C 0.73982 0.50034 0.11904 0.0
H7 H 0.74747 0.54425 0.55567 0.0
H8 H 0.71395 0.54668 0.49379 0.0
H9 H 0.73986 0.57103 0.45937 0.0
H10 H 0.72637 0.51506 0.07647 0.0
H11 H 0.72949 0.48033 0.12111 0.0
H12 H 0.75887 0.49822 0.07056 0.0
C13 C 1.01574 0.75094 0.38572 0.0
N14 N 0.03192 0.77266 0.40982 0.0
N15 N 0.0294 0.73214 0.32362 0.0
C16 C 0.98629 0.74889 0.41701 0.0
C17 C 0.05459 0.74318 0.31342 0.0
N18 N 0.05603 0.76748 0.36487 0.0
C19 C 0.07856 0.72944 0.25996 0.0
H20 H 0.98458 0.73792 0.49669 0.0
H21 H 0.97478 0.73741 0.35383 0.0
H22 H 0.97725 0.76936 0.42733 0.0
H23 H 0.07925 0.73495 0.17127 0.0
H24 H 0.07696 0.70703 0.26734 0.0
H25 H 0.09787 0.73622 0.29825 0.0
C26 C 0.78901 0.01756 0.42869 0.0
N27 N 0.76345 1.00713 0.4396 0.0
N28 N 0.80314 1.00515 0.34506 0.0
C29 C 0.80003 0.03953 0.50153 0.0
C30 C 0.78463 0.9871 0.30496 0.0
N31 N 0.76113 0.98796 0.36343 0.0
C32 C 0.78791 0.97128 0.19944 0.0
H33 H 0.7953 0.05958 0.46458 0.0
H34 H 0.82238 0.03759 0.51065 0.0
H35 H 0.79024 0.03863 0.58404 0.0
H36 H 0.79824 0.95179 0.21777 0.0
H37 H 0.80028 0.98278 0.1386 0.0
H38 H 0.76801 0.96639 0.16163 0.0
C39 C 0.52834 0.78699 0.33275 0.0
N40 N 0.51301 0.76401 0.34401 0.0
N41 N 0.51976 0.80229 0.24523 0.0
C42 C 0.55056 0.79517 0.41019 0.0
C43 C 0.49895 0.78754 0.20346 0.0
N44 N 0.49437 0.76496 0.26455 0.0
C45 C 0.48531 0.79352 0.09485 0.0
H46 H 0.54735 0.78609 0.49301 0.0
H47 H 0.5517 0.81761 0.41694 0.0
H48 H 0.57024 0.78773 0.37723 0.0
H49 H 0.49931 0.80451 0.03836 0.0
H50 H 0.46721 0.80646 0.10922 0.0
H51 H 0.47863 0.77452 0.05406 0.0
C52 C 0.27802 0.51673 0.15966 0.0
N53 N 0.25518 0.53209 0.14677 0.0
N54 N 0.2935 0.52588 0.24556 0.0
C55 C 0.2857 0.49351 0.08624 0.0
C56 C 0.27931 0.54767 0.28302 0.0
N57 N 0.25639 0.55153 0.22292 0.0
C58 C 0.28832 0.56611 0.37533 0.0
H59 H 0.29923 0.47909 0.13005 0.0
H60 H 0.2967 0.5016 0.01323 0.0
H61 H 0.26729 0.48273 0.05682 0.0
H62 H 0.29885 0.58398 0.33926 0.0
H63 H 0.30263 0.55644 0.43304 0.0
H64 H 0.27056 0.57335 0.42349 0.0
C65 C 0.02347 0.28454 0.16812 0.0
N66 N 1.01443 0.25871 0.18802 0.0
N67 N 0.01972 0.30083 0.25794 0.0
C68 C 0.03573 0.29401 0.06151 0.0
C69 C 1.00732 0.28429 0.3315 0.0
N70 N 1.00433 0.25892 0.29003 0.0
C71 C 0.99517 0.29392 0.43906 0.0
H72 H 0.04716 0.27731 0.02129 0.0
H73 H 0.04937 0.31162 0.07547 0.0
H74 H 0.01917 0.30048 1.00543 0.0
H75 H 0.97566 0.28342 0.45663 0.0
H76 H 0.99135 0.31609 0.43873 0.0
H77 H 1.00955 0.28936 0.50687 0.0
C78 C 0.24762 0.02236 0.1388 0.0
N79 N 0.27061 1.00729 0.12232 0.0
N80 N 0.23004 1.00954 0.20956 0.0
C81 C 0.24283 0.04988 0.08983 0.0
C82 C 0.24297 0.98606 0.23344 0.0
N83 N 0.26722 0.98468 0.18096 0.0
C84 C 0.23135 0.96392 0.30533 0.0
H85 H 0.22796 0.06154 0.13975 0.0
H86 H 0.23456 0.04736 1.00546 0.0
H87 H 0.26225 0.06127 0.08337 0.0
H88 H 0.20887 0.96318 0.29825 0.0
H89 H 0.23651 0.96821 0.39256 0.0
H90 H 0.23986 0.94382 0.28291 0.0
C91 C 0.51285 0.2625 0.19138 0.0
N92 N 0.52997 0.28422 0.18129 0.0
N93 N 0.52592 0.24068 0.23594 0.0
C94 C 0.48301 0.26343 0.16774 0.0
C95 C 0.55143 0.24988 0.25216 0.0
N96 N 0.55383 0.27631 0.22231 0.0
C97 C 0.57395 0.23281 0.29954 0.0
H98 H 0.47253 0.27384 0.23684 0.0
H99 H 0.47454 0.24264 0.15932 0.0
H100 H 0.47923 0.27528 0.09142 0.0
H101 H 0.57323 0.21207 0.26413 0.0
H102 H 0.571 0.23084 0.38994 0.0
H103 H 0.5942 0.24189 0.28258 0.0
Pr104 Pr 0.03656 1.01338 0.87484 0.0
Pr105 Pr 1.00105 0.01929 0.7011 0.0
C106 C 0.06314 1.0006 0.06216 0.0
C107 C 0.08196 0.98064 0.1087 0.0
C108 C 0.10245 0.96863 0.04461 0.0
C109 C 0.11786 0.94731 0.08786 0.0
C110 C 0.1129 0.93778 0.1955 0.0
C111 C 0.09367 0.95128 0.26154 0.0
C112 C 0.07816 0.97231 0.21796 0.0
C113 C 0.06697 0.02388 0.68066 0.0
C114 C 0.02199 0.95765 0.73065 0.0
C115 C 0.97003 0.03007 0.52314 0.0
C116 C 0.94773 0.04869 0.49712 0.0
C117 C 0.92907 0.05643 0.57896 0.0
C118 C 0.91402 0.08021 0.56624 0.0
C119 C 0.91842 0.09696 0.47383 0.0
C120 C 0.93348 0.08656 0.38439 0.0
C121 C 0.94817 0.06255 0.39637 0.0
C122 C 0.97204 1.01065 0.90102 0.0
C123 C 0.01709 0.07593 0.84084 0.0
O124 O 0.03868 0.99189 0.03971 0.0
O125 O 0.07275 0.01732 0.98809 0.0
O126 O 0.04671 1.00795 0.68623 0.0
O127 O 0.07171 0.03472 0.77585 0.0
O128 O 1.01548 0.97536 0.65424 0.0
O129 O 0.02737 0.96675 0.83084 0.0
O130 O 0.99357 0.04162 0.54081 0.0
O131 O 0.96465 1.01065 0.59321 0.0
O132 O 0.99155 0.02703 0.88689 0.0
O133 O 0.96853 0.99646 0.81244 0.0
O134 O 0.02585 0.05865 0.91529 0.0
O135 O 1.00895 0.06639 0.74407 0.0
H136 H 0.1057 0.97484 0.95986 0.0
H137 H 0.13254 0.93726 0.03525 0.0
H138 H 0.08905 0.94427 0.34416 0.0
H139 H 0.06237 0.98136 0.26838 0.0
H140 H 0.92807 0.0457 0.65692 0.0
H141 H 0.90191 0.08732 0.63512 0.0
H142 H 0.93715 0.09864 0.31114 0.0
H143 H 0.96211 0.05651 0.33155 0.0
Pr144 Pr 0.52057 0.03806 0.85901 0.0
Pr145 Pr 0.51494 1.01054 0.66372 0.0
C146 C 0.53228 0.05387 0.06586 0.0
C147 C 0.53874 0.03674 0.16092 0.0
C148 C 0.55261 0.04779 0.2507 0.0
C149 C 0.56833 0.0309 0.31744 0.0
C150 C 0.57097 1.00319 0.29125 0.0
C151 C 0.55313 0.99159 0.21483 0.0
C152 C 0.53705 1.0084 0.14933 0.0
C153 C 0.50993 0.07558 0.68537 0.0
C154 C 0.57618 0.0289 0.70933 0.0
C155 C 0.50344 0.989 0.46567 0.0
C156 C 0.48332 0.97004 0.42264 0.0
C157 C 0.47288 0.94904 0.48893 0.0
C158 C 0.45085 0.93365 0.45248 0.0
C159 C 0.43899 0.93923 0.34986 0.0
C160 C 0.45011 0.95975 0.28284 0.0
C161 C 0.4723 0.97485 0.31847 0.0
C162 C 0.53067 0.97426 0.83279 0.0
C163 C 0.45821 0.01906 0.81406 0.0
O164 O 0.50752 0.05202 0.02916 0.0
O165 O 0.55037 0.05302 0.98697 0.0
O166 O 0.52587 0.05564 0.68052 0.0
O167 O 0.49953 0.07736 0.78325 0.0
O168 O 0.55823 0.02857 0.6295 0.0
O169 O 0.56713 0.02766 0.81223 0.0
O170 O 0.49374 1.01226 0.49891 0.0
O171 O 0.52169 0.97894 0.53192 0.0
O172 O 0.51195 0.99183 0.84132 0.0
O173 O 0.54234 0.97594 0.73733 0.0
O174 O 0.47549 0.02431 0.8934 0.0
O175 O 0.46786 1.01572 0.71298 0.0
H176 H 0.55394 0.06959 0.26117 0.0
H177 H 0.5819 0.04016 0.37677 0.0
H178 H 0.55481 0.97029 0.19347 0.0
H179 H 0.52613 0.99954 0.08075 0.0
H180 H 0.48098 0.94531 0.57053 0.0
H181 H 0.44233 0.91821 0.50619 0.0
H182 H 0.44129 0.96458 0.20367 0.0
H183 H 0.48008 0.99109 0.26676 0.0
Pr184 Pr 0.48965 0.5331 0.86516 0.0
Pr185 Pr 0.52555 0.52021 0.70688 0.0
C186 C 0.45551 0.54978 0.02558 0.0
C187 C 0.42994 0.56493 0.03248 0.0
C188 C 0.41459 0.56364 0.12953 0.0
C189 C 0.39494 0.58334 0.15119 0.0
C190 C 0.39284 0.60589 0.08051 0.0
C191 C 0.40359 0.60375 0.97335 0.0
C192 C 0.42264 0.58351 0.94993 0.0
C193 C 0.46116 0.51314 0.6791 0.0
C194 C 0.50798 0.58542 0.71238 0.0
C195 C 0.55319 0.50815 0.5214 0.0
C196 C 0.57237 0.48731 0.48323 0.0
C197 C 0.59656 0.48165 0.54032 0.0
C198 C 0.61244 0.45928 0.51074 0.0
C199 C 0.60424 0.44219 0.42435 0.0
C200 C 0.5806 0.44869 0.36476 0.0
C201 C 0.56504 0.47119 0.39316 0.0
C202 C 0.55546 0.52519 0.90354 0.0
C203 C 0.51125 0.47194 0.88462 0.0
O204 O 0.47692 0.56352 0.99446 0.0
O205 O 0.45427 0.52575 0.98181 0.0
O206 O 0.48023 0.53035 0.67655 0.0
O207 O 0.45799 0.50415 0.77831 0.0
O208 O 0.52517 0.56783 0.66899 0.0
O209 O 0.49057 0.57691 0.78763 0.0
O210 O 0.52845 0.49965 0.54115 0.0
O211 O 0.56187 0.52568 0.59399 0.0
O212 O 0.53668 0.54143 0.87409 0.0
O213 O 0.55789 0.50538 0.83413 0.0
O214 O 0.50703 0.49363 0.94484 0.0
O215 O 0.51431 0.47563 0.77706 0.0
H216 H 0.4199 0.5494 0.19366 0.0
H217 H 0.38634 0.58421 0.23348 0.0
H218 H 0.40167 0.62053 0.91597 0.0
H219 H 0.43377 0.58429 0.87277 0.0
H220 H 0.60266 0.4938 0.61035 0.0
H221 H 0.63049 0.4547 0.55813 0.0
H222 H 0.5733 0.43566 0.29931 0.0
H223 H 0.54648 0.47521 0.34804 0.0
Pr224 Pr 1.01423 0.50316 0.81432 0.0
Pr225 Pr 1.01629 0.54342 0.67208 0.0
C226 C 1.00346 0.4638 0.96199 0.0
C227 C 0.98223 0.44319 0.96842 0.0
C228 C 0.97779 0.42989 0.06834 0.0
C229 C 0.95273 0.41768 0.08892 0.0
C230 C 0.93206 0.41896 0.00982 0.0
C231 C 0.93816 0.42834 0.90339 0.0
C232 C 0.96324 0.44068 0.88284 0.0
C233 C 0.02628 0.48028 0.60802 0.0
C234 C 0.95542 0.51991 0.69108 0.0
C235 C 0.02627 0.58135 0.51621 0.0
C236 C 0.0448 0.60419 0.49871 0.0
C237 C 0.04499 0.61724 0.39639 0.0
C238 C 0.06661 0.63413 0.36718 0.0
C239 C 0.08899 0.63663 0.43817 0.0
C240 C 0.08662 0.62715 0.54716 0.0
C241 C 0.06462 0.6107 0.5772 0.0
C242 C 1.00438 0.56571 0.88152 0.0
C243 C 0.07473 0.52713 0.79992 0.0
O244 O 0.995 0.48878 0.97344 0.0
O245 O 0.02089 0.46094 0.88209 0.0
O246 O 1.0079 0.49802 0.62434 0.0
O247 O 0.04137 0.47783 0.69447 0.0
O248 O 0.97145 0.53284 0.62231 0.0
O249 O 0.96644 0.50858 0.77928 0.0
O250 O 0.0373 0.55722 0.51547 0.0
O251 O 1.00819 0.5843 0.5937 0.0
O252 O 0.02266 0.54814 0.86281 0.0
O253 O 0.99068 0.57032 0.79279 0.0
O254 O 0.05857 0.514 0.86752 0.0
O255 O 0.064 0.53852 0.71109 0.0
H256 H 0.9925 0.43163 0.13407 0.0
H257 H 0.94785 0.41145 0.17235 0.0
H258 H 0.92232 0.4299 0.84184 0.0
H259 H 0.96661 0.45076 0.80449 0.0
H260 H 0.02988 0.61221 0.33532 0.0
H261 H 0.06806 0.64112 0.28255 0.0
H262 H 0.10368 0.62869 0.60311 0.0
H263 H 0.06454 0.60094 0.65736 0.0
H264 H 0.21809 0.01899 0.42447 0.0
H265 H 0.18251 0.01627 0.09938 0.0
H266 H 0.13641 0.02089 0.18244 0.0
H267 H 0.16835 0.97961 0.55805 0.0
H268 H 0.16871 0.99838 0.68548 0.0
H269 H 0.19863 0.99746 0.59972 0.0
H270 H 0.19955 0.04998 0.59184 0.0
H271 H 0.16983 0.05109 0.67894 0.0
H272 H 0.16971 0.06811 0.54723 0.0
H273 H 0.0934 0.02257 0.30712 0.0
H274 H 0.05866 0.02151 0.45641 0.0
H275 H 0.12276 0.02532 0.6999 0.0
C276 C 0.2006 0.02028 0.37079 0.0
C277 C 0.20394 0.01792 0.25502 0.0
C278 C 0.1805 0.01881 0.18766 0.0
C279 C 0.15423 0.02118 0.23456 0.0
C280 C 0.15161 0.02289 0.34942 0.0
C281 C 0.17432 0.02282 0.41639 0.0
C282 C 0.16618 0.0238 0.53745 0.0
C283 C 0.17606 0.9983 0.59876 0.0
C284 C 0.17696 0.04979 0.59208 0.0
C285 C 0.13535 0.02421 0.52896 0.0
C286 C 0.12725 0.02355 0.41993 0.0
C287 C 0.09965 0.02278 0.39247 0.0
C288 C 0.08 0.02228 0.47788 0.0
C289 C 0.08784 0.02348 0.59008 0.0
C290 C 0.11599 0.02464 0.61508 0.0
H291 H 0.5103 0.22846 0.44518 0.0
H292 H 0.52207 0.19407 0.12124 0.0
H293 H 0.51669 0.14773 0.19941 0.0
H294 H 0.54737 0.18032 0.59087 0.0
H295 H 0.52557 0.1789 0.71047 0.0
H296 H 0.52689 0.20925 0.62776 0.0
H297 H 0.47482 0.20729 0.59946 0.0
H298 H 0.47323 0.17712 0.68363 0.0
H299 H 0.45952 0.17678 0.54597 0.0
H300 H 0.51664 0.105 0.31858 0.0
H301 H 0.51677 0.0696 0.46373 0.0
H302 H 0.50207 0.13113 0.71168 0.0
C303 C 0.51047 0.21114 0.39038 0.0
C304 C 0.51566 0.21485 0.27621 0.0
C305 C 0.51715 0.19169 0.20779 0.0
C306 C 0.51443 0.16531 0.25202 0.0
C307 C 0.51003 0.16228 0.36538 0.0
C308 C 0.5075 0.18463 0.43341 0.0
C309 C 0.50403 0.17578 0.55314 0.0
C310 C 0.52735 0.18671 0.62475 0.0
C311 C 0.47624 0.18478 0.59821 0.0
C312 C 0.50551 0.14501 0.54244 0.0
C313 C 0.50919 0.13767 0.43337 0.0
C314 C 0.51321 0.11057 0.40374 0.0
C315 C 0.51332 0.09055 0.48696 0.0
C316 C 0.50896 0.0974 0.59908 0.0
C317 C 0.50484 0.12509 0.62661 0.0
H318 H 0.30777 0.50935 0.45259 0.0
H319 H 0.34004 0.52284 0.125 0.0
H320 H 0.38669 0.51532 0.19566 0.0
H321 H 0.35639 0.54819 0.58992 0.0
H322 H 0.35848 0.52687 0.71055 0.0
H323 H 0.32771 0.52765 0.63076 0.0
H324 H 0.32991 0.47554 0.60564 0.0
H325 H 0.3606 0.47452 0.68639 0.0
H326 H 0.36025 0.46032 0.54954 0.0
H327 H 0.43115 0.51466 0.31165 0.0
H328 H 0.46703 0.51693 0.45431 0.0
H329 H 0.40607 0.50494 0.7082 0.0
C330 C 0.32473 0.51054 0.39571 0.0
C331 C 0.3202 0.517 0.28313 0.0
C332 C 0.3429 0.51796 0.21124 0.0
C333 C 0.36957 0.51418 0.25138 0.0
C334 C 0.37348 0.50996 0.36441 0.0
C335 C 0.35152 0.50774 0.43529 0.0
C336 C 0.361 0.50481 0.55408 0.0
C337 C 0.35026 0.52828 0.6255 0.0
C338 C 0.35243 0.47715 0.60171 0.0
C339 C 0.3917 0.5065 0.53992 0.0
C340 C 0.39859 0.50926 0.4298 0.0
C341 C 0.42573 0.51267 0.39764 0.0
C342 C 0.4461 0.51382 0.47938 0.0
C343 C 0.43955 0.5109 0.59254 0.0
C344 C 0.4119 0.50684 0.62237 0.0
H345 H 0.05444 0.32827 0.39256 0.0
H346 H 0.98838 0.33883 0.16277 0.0
H347 H 0.98378 0.38651 0.22213 0.0
H348 H 0.02728 0.36776 0.60491 0.0
H349 H 0.05892 0.38258 0.64928 0.0
H350 H 0.05881 0.34994 0.58279 0.0
H351 H 0.09264 0.36763 0.43532 0.0
H352 H 0.09313 0.40027 0.50217 0.0
H353 H 0.08455 0.39786 0.35813 0.0
H354 H 0.98265 0.43273 0.32242 0.0
H355 H 0.98903 0.47322 0.44017 0.0
H356 H 0.0574 0.43381 0.59822 0.0
C357 C 0.03994 0.34117 0.35078 0.0
C358 C 0.02234 0.33005 0.26989 0.0
C359 C 1.00272 0.34715 0.22127 0.0
C360 C 0.99985 0.37433 0.25511 0.0
C361 C 0.0171 0.3847 0.33593 0.0
C362 C 0.0372 0.3687 0.38176 0.0
C363 C 0.05233 0.38432 0.47079 0.0
C364 C 0.04914 0.37031 0.5836 0.0
C365 C 0.08245 0.38772 0.43972 0.0
C366 C 0.03753 0.41148 0.46846 0.0
C367 C 0.01705 0.41126 0.39085 0.0
C368 C 0.99939 0.43339 0.37981 0.0
C369 C 1.00306 0.45639 0.44773 0.0
C370 C 0.02406 0.45722 0.52729 0.0
C371 C 0.04151 0.43431 0.53668 0.0
H372 H 0.84113 0.96916 0.26564 0.0
H373 H 0.82674 0.05514 0.31342 0.0
H374 H 0.87087 0.06534 0.22514 0.0
H375 H 0.91505 0.96826 0.28248 0.0
H376 H 0.91885 0.94472 0.16992 0.0
H377 H 0.88865 0.94383 0.25439 0.0
H378 H 0.85876 0.94961 0.08055 0.0
H379 H 0.88883 0.95038 0.9956 0.0
H380 H 0.86481 0.97795 0.98942 0.0
H381 H 0.91719 0.06608 0.12426 0.0
H382 H 0.95674 0.05807 1.00171 0.0
H383 H 0.93657 0.97249 0.98845 0.0
C384 C 0.84704 0.99019 0.2574 0.0
C385 C 0.83013 1.01124 0.29926 0.0
C386 C 0.83934 0.03842 0.28689 0.0
C387 C 0.86441 0.04447 0.23515 0.0
C388 C 0.88005 0.02324 0.1924 0.0
C389 C 0.87139 0.99665 0.20127 0.0
C390 C 0.89024 0.97777 0.1376 0.0
C391 C 0.90401 0.95744 0.21578 0.0
C392 C 0.87474 0.96307 0.04532 0.0
C393 C 0.9108 0.99785 0.09057 0.0
C394 C 0.90502 0.0239 0.12583 0.0
C395 C 0.92163 0.04576 0.09565 0.0
C396 C 0.9442 0.04099 0.02618 0.0
C397 C 0.94981 1.01468 0.98455 0.0
C398 C 0.93283 0.99286 0.0182 0.0
H399 H 0.48757 0.84565 0.20189 0.0
H400 H 0.5713 0.819 0.19336 0.0
H401 H 0.58424 0.86185 0.09732 0.0
H402 H 0.48748 0.87245 0.93023 0.0
H403 H 0.46473 0.90002 0.96213 0.0
H404 H 0.46309 0.86901 0.04063 0.0
H405 H 0.47004 0.89611 0.22042 0.0
H406 H 0.47216 0.92692 0.13984 0.0
H407 H 0.49916 0.91822 0.23364 0.0
H408 H 0.58654 0.90689 0.98427 0.0
H409 H 0.57855 0.94862 0.87461 0.0
H410 H 0.49287 0.94521 0.95612 0.0
C411 C 0.50872 0.84895 0.18101 0.0
C412 C 0.52845 0.82891 0.20578 0.0
C413 C 0.5559 0.83415 0.17709 0.0
C414 C 0.56333 0.85837 0.12146 0.0
C415 C 0.54306 0.87722 0.0945 0.0
C416 C 0.51632 0.87265 0.12392 0.0
C417 C 0.498 0.89493 0.08018 0.0
C418 C 0.4771 0.88341 0.99844 0.0
C419 C 0.48402 0.90989 0.17477 0.0
C420 C 0.51837 0.91324 0.02246 0.0
C421 C 0.54433 0.90263 0.03088 0.0
C422 C 0.5663 0.91536 0.97895 0.0
C423 C 0.56156 0.93915 0.91683 0.0
C424 C 0.53517 0.95053 0.90801 0.0
C425 C 0.51338 0.93745 0.96309 0.0
H426 H 0.69081 0.48995 0.23586 0.0
H427 H 0.70426 0.57566 0.2895 0.0
H428 H 0.65866 0.58554 0.20979 0.0
H429 H 0.6635 0.49807 0.9697 0.0
H430 H 0.64026 0.4699 0.98231 0.0
H431 H 0.67141 0.47002 0.05966 0.0
H432 H 0.64403 0.46357 0.23941 0.0
H433 H 0.61241 0.46428 0.16432 0.0
H434 H 0.61813 0.48788 0.27549 0.0
H435 H 0.61089 0.58508 0.10803 0.0
H436 H 0.57023 0.57496 0.99354 0.0
H437 H 0.59225 0.48988 0.9914 0.0
C438 C 0.6841 0.51084 0.23202 0.0
C439 C 0.70125 0.53201 0.26942 0.0
C440 C 0.69144 0.55902 0.26338 0.0
C441 C 0.66561 0.56478 0.21697 0.0
C442 C 0.64986 0.54334 0.1755 0.0
C443 C 0.65908 0.51691 0.18245 0.0
C444 C 0.64008 0.49748 0.12393 0.0
C445 C 0.65468 0.48303 0.02823 0.0
C446 C 0.62796 0.47704 0.2057 0.0
C447 C 0.61852 0.51683 0.08215 0.0
C448 C 0.62407 0.54323 0.11372 0.0
C449 C 0.60659 0.56441 0.08353 0.0
C450 C 0.58338 0.55847 0.01876 0.0
C451 C 0.5779 0.5316 0.98312 0.0
C452 C 0.59574 0.51065 0.01691 0.0
H453 H 0.03669 0.71499 0.11169 0.0
H454 H 1.0013 0.69111 0.42432 0.0
H455 H 0.98966 0.64611 0.34553 0.0
H456 H 0.99042 0.67812 0.93175 0.0
H457 H 0.0169 0.66899 0.83575 0.0
H458 H 0.01965 0.69984 0.91446 0.0
H459 H 0.06643 0.68411 0.98825 0.0
H460 H 0.06369 0.6531 0.9106 0.0
H461 H 0.0691 0.65181 0.05745 0.0
H462 H 0.9857 0.60121 0.23294 0.0
H463 H 0.98651 0.56366 0.09625 0.0
H464 H 0.0259 0.61677 0.86009 0.0
C465 C 0.02654 0.70028 0.16383 0.0
C466 C 0.02 0.70674 0.27484 0.0
C467 C 1.00622 0.68695 0.33902 0.0
C468 C 0.99977 0.66118 0.2949 0.0
C469 C 1.0076 0.65512 0.18657 0.0
C470 C 0.02053 0.67433 0.1218 0.0
C471 C 0.0276 0.66279 0.00913 0.0
C472 C 1.01275 0.67836 0.91735 0.0
C473 C 0.05854 0.66296 0.99028 0.0
C474 C 0.01687 0.63397 0.02015 0.0
C475 C 1.00542 0.6298 0.12312 0.0
C476 C 0.9946 0.60446 0.15228 0.0
C477 C 0.9953 0.58312 0.07446 0.0
C478 C 1.00651 0.58716 0.96809 0.0
C479 C 0.01741 0.61299 0.94121 0.0
H480 H 0.9624 0.23074 0.20009 0.0
H481 H 1.01124 0.23903 0.49456 0.0
H482 H 0.98138 0.20656 0.59195 0.0
H483 H 0.8956 0.21599 0.33956 0.0
H484 H 0.88644 0.19061 0.23947 0.0
H485 H 0.90709 0.21924 0.19887 0.0
H486 H 0.94552 0.18706 0.12612 0.0
H487 H 0.92312 0.15935 0.15884 0.0
H488 H 0.95685 0.16004 0.21508 0.0
H489 H 0.94964 0.1719 0.65265 0.0
H490 H 0.93093 0.12621 0.65642 0.0
H491 H 0.90461 0.1352 0.31684 0.0
C492 C 0.96677 0.22556 0.2849 0.0
C493 C 0.98875 0.23761 0.34107 0.0
C494 C 0.99404 0.23037 0.45165 0.0
C495 C 0.977 0.21229 0.50767 0.0
C496 C 0.95503 0.20124 0.45107 0.0
C497 C 0.95043 0.20681 0.34099 0.0
C498 C 0.9287 0.18833 0.29417 0.0
C499 C 0.90293 0.20452 0.26641 0.0
C500 C 0.9392 0.17281 0.19253 0.0
C501 C 0.92388 0.16977 0.39237 0.0
C502 C 0.93777 0.17901 0.48398 0.0
C503 C 0.93859 0.16443 0.58198 0.0
C504 C 0.9275 0.1384 0.5834 0.0
C505 C 0.91658 0.12686 0.48599 0.0
C506 C 0.91278 0.14356 0.39229 0.0
H507 H 0.28958 0.96905 0.37043 0.0
H508 H 0.29044 0.95503 0.0194 0.0
H509 H 0.33136 0.92633 0.03908 0.0
H510 H 0.3521 0.98244 0.40295 0.0
H511 H 0.35838 0.96582 0.53288 0.0
H512 H 0.32464 0.97592 0.49808 0.0
H513 H 0.30767 0.9267 0.52634 0.0
H514 H 0.34171 0.91631 0.56167 0.0
H515 H 0.32367 0.89923 0.45281 0.0
H516 H 0.37715 0.91211 0.08624 0.0
H517 H 0.42407 0.9166 0.15248 0.0
H518 H 0.3942 0.93788 0.47679 0.0
C519 C 0.29767 0.95852 0.29935 0.0
C520 C 0.28714 0.96373 0.19397 0.0
C521 C 0.29844 0.95089 0.10076 0.0
C522 C 0.32141 0.93437 0.11165 0.0
C523 C 0.33234 0.93058 0.21666 0.0
C524 C 0.32055 0.94202 0.30948 0.0
C525 C 0.3389 0.93973 0.40878 0.0
C526 C 0.34382 0.96761 0.4635 0.0
C527 C 0.3273 0.91926 0.4923 0.0
C528 C 0.36421 0.92863 0.35415 0.0
C529 C 0.35957 0.92205 0.24475 0.0
C530 C 0.38087 0.91613 0.17255 0.0
C531 C 0.40753 0.91885 0.21068 0.0
C532 C 0.41255 0.92732 0.31999 0.0
C533 C 0.39071 0.93053 0.39397 0.0
H534 H 0.57996 0.31517 0.10412 0.0
H535 H 0.57312 0.27959 0.42908 0.0
H536 H 0.60414 0.31382 0.50295 0.0
H537 H 0.65233 0.34758 0.14437 0.0
H538 H 0.64179 0.37766 0.07133 0.0
H539 H 0.62871 0.34488 0.03152 0.0
H540 H 0.57827 0.36139 0.06037 0.0
H541 H 0.59271 0.39412 0.08566 0.0
H542 H 0.57025 0.37916 0.18617 0.0
H543 H 0.62265 0.35681 0.55417 0.0
H544 H 0.61998 0.40592 0.58114 0.0
H545 H 0.61554 0.41765 0.22788 0.0
C546 C 0.58598 0.31426 0.18975 0.0
C547 C 0.57489 0.29435 0.26018 0.0
C548 C 0.58234 0.29396 0.37268 0.0
C549 C 0.60003 0.31339 0.41539 0.0
C550 C 0.60991 0.33351 0.34516 0.0
C551 C 0.60308 0.33419 0.23437 0.0
C552 C 0.61093 0.36115 0.18305 0.0
C553 C 0.63487 0.35759 0.10284 0.0
C554 C 0.58657 0.37473 0.12547 0.0
C555 C 0.61961 0.3766 0.28502 0.0
C556 C 0.62056 0.35976 0.37642 0.0
C557 C 0.62279 0.3701 0.48304 0.0
C558 C 0.62133 0.39819 0.49778 0.0
C559 C 0.6173 0.41552 0.40633 0.0
C560 C 0.61883 0.40475 0.29878 0.0
H561 H 0.20286 0.54157 0.23657 0.0
H562 H 0.26203 0.60642 0.25579 0.0
H563 H 0.22532 0.63859 0.30713 0.0
H564 H 0.15169 0.58847 0.09275 0.0
H565 H 0.12511 0.56712 0.14812 0.0
H566 H 0.15777 0.55304 0.11331 0.0
H567 H 0.15911 0.53371 0.31852 0.0
H568 H 0.12757 0.55042 0.34868 0.0
H569 H 0.15727 0.55773 0.43011 0.0
H570 H 0.18051 0.66098 0.38539 0.0
H571 H 0.13338 0.67198 0.44885 0.0
H572 H 0.10562 0.59449 0.32476 0.0
C573 C 0.20812 0.56269 0.2467 0.0
C574 C 0.23531 0.57129 0.24355 0.0
C575 C 0.24136 0.5991 0.26173 0.0
C576 C 0.22061 0.6176 0.28914 0.0
C577 C 0.19386 0.6082 0.29097 0.0
C578 C 0.18771 0.58158 0.26507 0.0
C579 C 0.15765 0.57637 0.26545 0.0
C580 C 0.14738 0.57093 0.14804 0.0
C581 C 0.14997 0.55321 0.34541 0.0
C582 C 0.14778 0.60341 0.30527 0.0
C583 C 0.16863 0.62184 0.32004 0.0
C584 C 0.16394 0.64707 0.3697 0.0
C585 C 0.13727 0.65323 0.40517 0.0
C586 C 0.116 0.63443 0.38737 0.0
C587 C 0.12142 0.60966 0.33488 0.0
H588 H 0.07591 0.78868 0.17948 0.0
H589 H 0.0835 0.7904 0.53365 0.0
H590 H 0.11356 0.83063 0.51971 0.0
H591 H 0.14689 0.82042 0.11094 0.0
H592 H 0.13188 0.83893 0.99821 0.0
H593 H 0.11955 0.80549 0.03314 0.0
H594 H 0.07076 0.82458 0.05206 0.0
H595 H 0.0828 0.85777 0.0175 0.0
H596 H 0.06451 0.85245 0.14473 0.0
H597 H 0.13169 0.87579 0.47199 0.0
H598 H 0.13224 0.92254 0.39896 0.0
H599 H 0.11295 0.89194 0.07407 0.0
C600 C 0.08532 0.79675 0.25299 0.0
C601 C 0.07803 0.78655 0.35717 0.0
C602 C 0.08937 0.79799 0.45319 0.0
C603 C 0.10657 0.82063 0.44566 0.0
C604 C 0.11244 0.83122 0.34133 0.0
C605 C 0.10229 0.81941 0.24634 0.0
C606 C 0.10663 0.83744 0.14681 0.0
C607 C 0.12749 0.82481 0.06763 0.0
C608 C 0.07959 0.84343 0.08709 0.0
C609 C 0.11818 0.86238 0.20214 0.0
C610 C 0.12264 0.85799 0.31342 0.0
C611 C 0.12914 0.87926 0.38451 0.0
C612 C 0.12931 0.90579 0.34251 0.0
C613 C 0.12273 0.91075 0.2308 0.0
C614 C 0.11885 0.88864 0.15893 0.0
H615 H 0.72815 1.01109 0.21931 0.0
H616 H 0.73593 0.94299 0.44064 0.0
H617 H 0.68649 0.93352 0.42345 0.0
H618 H 0.67082 0.03747 0.32827 0.0
H619 H 0.65733 0.04873 0.19875 0.0
H620 H 0.69333 0.04453 0.21385 0.0
H621 H 0.69125 1.01185 0.04234 0.0
H622 H 0.65482 1.01566 0.03602 0.0
H623 H 0.66958 0.98231 0.04841 0.0
H624 H 0.63458 0.93913 0.41609 0.0
H625 H 0.58724 0.95717 0.4066 0.0
H626 H 0.61531 0.02182 0.19242 0.0
C627 C 0.71945 0.99338 0.259 0.0
C628 C 0.73538 0.97738 0.32913 0.0
C629 C 0.72375 0.95493 0.38439 0.0
C630 C 0.69577 0.9496 0.37549 0.0
C631 C 0.68002 0.96707 0.31132 0.0
C632 C 0.69169 0.98822 0.25225 0.0
C633 C 0.67055 1.00619 0.20026 0.0
C634 C 0.67326 0.03596 0.23756 0.0
C635 C 0.6716 1.00387 0.07421 0.0
C636 C 0.64521 0.99328 0.24621 0.0
C637 C 0.65067 0.97035 0.30797 0.0
C638 C 0.63008 0.95677 0.36614 0.0
C639 C 0.60343 0.96722 0.36163 0.0
C640 C 0.59813 0.99111 0.30096 0.0
C641 C 0.61913 1.00373 0.24096 0.0
H642 H 0.49874 0.71037 0.26616 0.0
H643 H 0.44095 0.77573 0.22472 0.0
H644 H 0.40473 0.74208 0.18502 0.0
H645 H 0.47588 0.66433 0.07994 0.0
H646 H 0.4811 0.63533 0.16816 0.0
H647 H 0.50112 0.66543 0.187 0.0
H648 H 0.44868 0.66726 0.42302 0.0
H649 H 0.48441 0.66707 0.39318 0.0
H650 H 0.46462 0.63692 0.37053 0.0
H651 H 0.37768 0.69936 0.11846 0.0
H652 H 0.36194 0.6532 0.06227 0.0
H653 H 0.43511 0.61877 0.20175 0.0
C654 C 0.47832 0.71771 0.2538 0.0
C655 C 0.47274 0.74559 0.24844 0.0
C656 C 0.44581 0.75433 0.22646 0.0
C657 C 0.42506 0.7354 0.20539 0.0
C658 C 0.43136 0.70789 0.21269 0.0
C659 C 0.4572 0.69927 0.24056 0.0
C660 C 0.45904 0.66891 0.24688 0.0
C661 C 0.48054 0.65787 0.16573 0.0
C662 C 0.46447 0.65945 0.36548 0.0
C663 C 0.43071 0.66159 0.21229 0.0
C664 C 0.41482 0.68407 0.19102 0.0
C665 C 0.38945 0.68158 0.13988 0.0
C666 C 0.38056 0.65544 0.10876 0.0
C667 C 0.39676 0.6325 0.13274 0.0
C668 C 0.42161 0.63581 0.18801 0.0
H669 H 0.82345 0.5144 0.271 0.0
H670 H 0.76191 0.45274 0.22353 0.0
H671 H 0.79682 0.4216 0.1475 0.0
H672 H 0.86459 0.50434 0.05308 0.0
H673 H 0.89615 0.50792 0.12671 0.0
H674 H 0.86599 0.52424 0.1774 0.0
H675 H 0.8703 0.4977 0.36992 0.0
H676 H 0.90191 0.48497 0.31529 0.0
H677 H 0.87625 0.46191 0.36599 0.0
H678 H 0.83929 0.39953 0.05828 0.0
H679 H 0.88543 0.38738 0.98689 0.0
H680 H 0.91738 0.46211 0.12255 0.0
C681 C 0.81745 0.49404 0.249 0.0
C682 C 0.79015 0.48597 0.25263 0.0
C683 C 0.78285 0.45941 0.21884 0.0
C684 C 0.8025 0.44155 0.17682 0.0
C685 C 0.82939 0.45031 0.17396 0.0
C686 C 0.83685 0.47563 0.21287 0.0
C687 C 0.86696 0.48018 0.20503 0.0
C688 C 0.8738 0.50567 0.1365 0.0
C689 C 0.87966 0.48129 0.32073 0.0
C690 C 0.87505 0.45457 0.14686 0.0
C691 C 0.85343 0.43717 0.13044 0.0
C692 C 0.85649 0.41273 0.07304 0.0
C693 C 0.88251 0.406 0.03268 0.0
C694 C 0.90459 0.42369 0.05174 0.0
C695 C 0.9007 0.44807 0.10923 0.0
H696 H 0.03532 0.20824 0.22959 0.0
H697 H 0.99299 0.2551 0.98195 0.0
H698 H 0.9897 0.21414 0.86375 0.0
H699 H 0.07408 0.1672 0.02903 0.0
H700 H 0.07323 0.13702 0.11314 0.0
H701 H 0.07265 0.17001 0.17711 0.0
H702 H 0.02729 0.15813 0.27975 0.0
H703 H 0.03003 0.12479 0.21993 0.0
H704 H 0.99963 0.14426 0.20064 0.0
H705 H 0.98968 0.16644 0.77424 0.0
H706 H 0.99356 0.11793 0.72221 0.0
H707 H 0.03671 0.10203 0.02689 0.0
C708 C 0.02557 0.20986 0.14999 0.0
C709 C 1.01464 0.23512 0.11468 0.0
C710 C 1.00197 0.23628 0.01 0.0
C711 C 0.99982 0.21296 0.94272 0.0
C712 C 1.01066 0.18835 0.98012 0.0
C713 C 0.02353 0.18675 0.08118 0.0
C714 C 0.03414 0.15806 0.10098 0.0
C715 C 0.06538 0.15808 0.10531 0.0
C716 C 0.02204 0.14563 0.20665 0.0
C717 C 0.024 0.14341 0.99828 0.0
C718 C 1.01084 0.16129 0.92867 0.0
C719 C 0.99992 0.15237 0.82855 0.0
C720 C 1.00229 0.12465 0.79934 0.0
C721 C 1.01542 0.10576 0.86978 0.0
C722 C 0.02646 0.11564 0.97055 0.0
H723 H 0.32285 1.01163 0.19766 0.0
H724 H 0.27444 1.01594 0.90124 0.0
H725 H 0.31667 0.01951 0.78878 0.0
H726 H 0.37655 0.05895 0.11041 0.0
H727 H 0.40315 0.03967 0.1758 0.0
H728 H 0.36914 0.03883 0.23122 0.0
H729 H 0.36813 0.98613 0.2148 0.0
H730 H 0.4024 0.98759 0.16368 0.0
H731 H 0.37649 0.97078 0.08431 0.0
H732 H 0.36584 0.019 0.70727 0.0
H733 H 0.41526 0.01899 0.66735 0.0
H734 H 0.43191 0.01626 0.01805 0.0
C735 C 0.32115 1.01391 0.10917 0.0
C736 C 0.29511 1.01383 0.05846 0.0
C737 C 0.29395 0.01645 0.94222 0.0
C738 C 0.31796 0.01823 0.87768 0.0
C739 C 0.34331 0.01761 0.93007 0.0
C740 C 0.34495 1.01591 0.04364 0.0
C741 C 0.37457 1.01515 0.08014 0.0
C742 C 0.38124 0.03961 0.15375 0.0
C743 C 0.38075 0.98829 0.13929 0.0
C744 C 0.38954 0.01682 0.96994 0.0
C745 C 0.37115 0.01791 0.88404 0.0
C746 C 0.38024 0.01847 0.77452 0.0
C747 C 0.40854 0.01834 0.7524 0.0
C748 C 0.42794 0.01785 0.83886 0.0
C749 C 0.41794 0.01695 0.94929 0.0
H750 H 0.52398 0.30752 0.97593 0.0
H751 H 0.52158 0.32472 0.32548 0.0
H752 H 0.51565 0.37364 0.28498 0.0
H753 H 0.56106 0.36697 0.88489 0.0
H754 H 0.54124 0.37143 0.76225 0.0
H755 H 0.54468 0.33814 0.82224 0.0
H756 H 0.49176 0.33524 0.82604 0.0
H757 H 0.48934 0.36922 0.77142 0.0
H758 H 0.47272 0.36073 0.89954 0.0
H759 H 0.51412 0.42065 0.2094 0.0
H760 H 0.51241 0.46323 0.10559 0.0
H761 H 0.51467 0.4183 0.79772 0.0
C762 C 0.52162 0.32165 0.04344 0.0
C763 C 0.5229 0.31225 0.15456 0.0
C764 C 0.52025 0.33139 0.24056 0.0
C765 C 0.51697 0.35922 0.21798 0.0
C766 C 0.51634 0.36797 0.10829 0.0
C767 C 0.51827 0.34983 0.02193 0.0
C768 C 0.51696 0.36513 0.91169 0.0
C769 C 0.54251 0.36008 0.84133 0.0
C770 C 0.49116 0.3571 0.84842 0.0
C771 C 0.51542 0.39471 0.94993 0.0
C772 C 0.51493 0.39557 0.06391 0.0
C773 C 0.51406 0.42014 0.12019 0.0
C774 C 0.51314 0.44443 0.05958 0.0
C775 C 0.51316 0.44466 0.94231 0.0
C776 C 0.51451 0.41916 0.88688 0.0
H777 H 0.21552 0.49326 0.11715 0.0
H778 H 0.24602 0.56951 0.9899 0.0
H779 H 0.20494 0.57436 0.87438 0.0
H780 H 0.17962 0.47339 0.84636 0.0
H781 H 0.15202 0.45725 0.91926 0.0
H782 H 0.18575 0.45711 0.97711 0.0
H783 H 0.16751 0.47925 0.15672 0.0
H784 H 0.13402 0.47786 0.09791 0.0
H785 H 0.14715 0.50947 0.14744 0.0
H786 H 0.15826 0.57359 0.78643 0.0
H787 H 0.11003 0.56738 0.73492 0.0
H788 H 0.10741 0.4928 0.92524 0.0
C789 C 0.21401 0.51028 0.06101 0.0
C790 C 0.23447 0.53077 0.06059 0.0
C791 C 0.23108 0.55334 0.98954 0.0
C792 C 0.20766 0.55631 0.92411 0.0
C793 C 0.18744 0.53641 0.92913 0.0
C794 C 0.19042 0.51362 0.99506 0.0
C795 C 0.16472 0.49614 0.98965 0.0
C796 C 0.1709 0.46939 0.92952 0.0
C797 C 0.1527 0.49043 0.10471 0.0
C798 C 0.14603 0.51402 0.91991 0.0
C799 C 0.15998 0.53656 0.88204 0.0
C800 C 0.14727 0.55588 0.81509 0.0
C801 C 0.11974 0.5522 0.78611 0.0
C802 C 0.1046 0.52972 0.826 0.0
C803 C 0.1182 0.51035 0.89369 0.0
H804 H 0.03246 0.82537 0.33717 0.0
H805 H 0.01842 0.77561 0.62595 0.0
H806 H 1.0146 0.81718 0.74075 0.0
H807 H 0.07312 0.87611 0.47025 0.0
H808 H 0.05966 0.90394 0.39084 0.0
H809 H 0.06038 0.87032 0.33319 0.0
H810 H 1.00848 0.87312 0.29815 0.0
H811 H 1.00781 0.9067 0.3567 0.0
H812 H 0.98591 0.88056 0.41155 0.0
H813 H 1.01621 0.86507 0.82706 0.0
H814 H 0.01749 0.91408 0.87255 0.0
H815 H 0.02818 0.93318 0.52605 0.0
C816 C 0.02804 0.82332 0.42427 0.0
C817 C 0.02543 0.79712 0.47256 0.0
C818 C 0.02003 0.79534 0.58704 0.0
C819 C 0.0181 0.81891 0.6529 0.0
C820 C 0.02138 0.8444 0.60336 0.0
C821 C 0.02582 0.84672 0.49108 0.0
C822 C 0.02873 0.87647 0.45809 0.0
C823 C 0.05716 0.88203 0.4102 0.0
C824 C 1.0064 0.8847 0.37629 0.0
C825 C 0.02506 0.8906 0.56885 0.0
C826 C 0.02129 0.87173 0.65201 0.0
C827 C 0.01878 0.87992 0.762 0.0
C828 C 0.01967 0.90791 0.78733 0.0
C829 C 0.02267 0.92778 0.70335 0.0
C830 C 0.02549 0.91872 0.59255 0.0
H831 H 0.73133 0.98268 0.59628 0.0
H832 H 0.7411 0.05655 0.40709 0.0
H833 H 0.69563 0.07198 0.46904 0.0
H834 H 0.66196 0.97118 0.54532 0.0
H835 H 0.6539 0.95917 0.68138 0.0
H836 H 0.68802 0.95578 0.6289 0.0
H837 H 0.70556 0.98232 0.80044 0.0
H838 H 0.67097 0.98541 0.84808 0.0
H839 H 0.69164 1.0154 0.82982 0.0
H840 H 0.64547 0.07494 0.52119 0.0
H841 H 0.59816 0.06956 0.58738 0.0
H842 H 0.62065 0.99563 0.75773 0.0
C843 C 0.72414 1.00247 0.5708 0.0
C844 C 0.7401 0.01866 0.49788 0.0
C845 C 0.72972 0.04419 0.46496 0.0
C846 C 0.70371 0.05293 0.49896 0.0
C847 C 0.68801 0.03599 0.56662 0.0
C848 C 0.69814 1.0116 0.60487 0.0
C849 C 0.67695 0.99722 0.67658 0.0
C850 C 0.66984 0.96913 0.63027 0.0
C851 C 0.68691 0.99498 0.79592 0.0
C852 C 0.65281 0.01656 0.66797 0.0
C853 C 0.65969 0.03876 0.60353 0.0
C854 C 0.64023 0.0581 0.57457 0.0
C855 C 0.6133 0.05486 0.61257 0.0
C856 C 0.60572 0.03272 0.68089 0.0
C857 C 0.62595 1.01336 0.70927 0.0
H858 H 0.54966 0.72241 0.3736 0.0
H859 H 0.47579 0.75757 0.50394 0.0
H860 H 0.46894 0.7172 0.62231 0.0
H861 H 0.52809 0.65535 0.3499 0.0
H862 H 0.55895 0.63973 0.39616 0.0
H863 H 0.5599 0.67306 0.33515 0.0
H864 H 0.5846 0.69047 0.50987 0.0
H865 H 0.58265 0.65704 0.57031 0.0
H866 H 0.56899 0.68581 0.64322 0.0
H867 H 0.46663 0.67117 0.70896 0.0
H868 H 0.46967 0.62332 0.76505 0.0
H869 H 0.54459 0.61496 0.57798 0.0
C870 C 0.53279 0.72201 0.43102 0.0
C871 C 0.5135 0.74359 0.43151 0.0
C872 C 0.49105 0.74175 0.50427 0.0
C873 C 0.48694 0.71873 0.57122 0.0
C874 C 0.50558 0.6974 0.56595 0.0
C875 C 0.5283 0.69883 0.49867 0.0
C876 C 0.5441 0.67205 0.50436 0.0
C877 C 0.54793 0.65935 0.3896 0.0
C878 C 0.57172 0.67662 0.56026 0.0
C879 C 0.52551 0.65475 0.57773 0.0
C880 C 0.50389 0.67021 0.61467 0.0
C881 C 0.48369 0.65904 0.68175 0.0
C882 C 0.48559 0.63159 0.71301 0.0
C883 C 0.50735 0.61489 0.67666 0.0
C884 C 0.52763 0.6269 0.60767 0.0
H885 H 0.80997 0.55788 0.4135 0.0
H886 H 0.78229 0.47841 0.51582 0.0
H887 H 0.82527 0.47133 0.6178 0.0
H888 H 0.87844 0.54263 0.35927 0.0
H889 H 0.89199 0.57331 0.41611 0.0
H890 H 0.85774 0.57267 0.36447 0.0
H891 H 0.84167 0.59084 0.55456 0.0
H892 H 0.87613 0.59005 0.60484 0.0
H893 H 0.84972 0.57205 0.67784 0.0
H894 H 0.87299 0.4714 0.69922 0.0
H895 H 0.92144 0.47787 0.74672 0.0
H896 H 0.92094 0.55583 0.58055 0.0
C897 C 0.8126 0.53952 0.46138 0.0
C898 C 0.79224 0.51892 0.45931 0.0
C899 C 0.79708 0.49468 0.5189 0.0
C900 C 0.82163 0.49044 0.57625 0.0
C901 C 0.84163 0.51062 0.57385 0.0
C902 C 0.83739 0.53482 0.51833 0.0
C903 C 0.86295 0.55253 0.5244 0.0
C904 C 0.87334 0.5607 0.40925 0.0
C905 C 0.85728 0.57787 0.59457 0.0
C906 C 0.8828 0.5336 0.58362 0.0
C907 C 0.86968 0.51 0.61532 0.0
C908 C 0.88337 0.48982 0.67449 0.0
C909 C 0.91102 0.49367 0.70139 0.0
C910 C 0.92538 0.51718 0.66698 0.0
C911 C 0.9108 0.53743 0.60728 0.0
loop_
_geom_bond_atom_site_label_1
_geom_bond_atom_site_label_2
_geom_bond_distance
_geom_bond_site_symmetry_2
_ccdc_geom_bond_type
C0 N1 1.317 . S
C0 N2 1.348 . S
C0 C3 1.485 . S
N1 C0 1.317 . S
N1 N5 1.370 . S
N2 C0 1.348 . S
N2 C4 1.346 . S
C3 C0 1.485 . S
C3 H7 0.960 . S
C3 H8 0.961 . S
C3 H9 0.960 . S
C4 N2 1.346 . S
C4 N5 1.307 . S
C4 C6 1.486 . S
N5 N1 1.370 . S
N5 C4 1.307 . S
C6 C4 1.486 . S
C6 H10 0.960 . S
C6 H11 0.960 . S
C6 H12 0.959 . S
H7 C3 0.960 . S
H8 C3 0.961 . S
H9 C3 0.960 . S
H10 C6 0.960 . S
H11 C6 0.960 . S
H12 C6 0.959 . S
C13 N14 1.317 . S
C13 N15 1.350 . S
C13 C16 1.485 . S
N14 C13 1.317 . S
N14 N18 1.371 . S
N15 C13 1.350 . S
N15 C17 1.345 1_655 S
C16 C13 1.485 . S
C16 H20 0.960 1_655 S
C16 H21 0.961 . S
C16 H22 0.960 . S
C17 N15 1.345 1_455 S
C17 N18 1.307 1_455 S
C17 C19 1.486 . S
N18 N14 1.371 . S
N18 C17 1.307 1_655 S
C19 C17 1.486 . S
C19 H23 0.922 1_455 S
C19 H24 0.991 . S
C19 H25 0.967 . S
H20 C16 0.960 1_455 S
H21 C16 0.961 . S
H22 C16 0.960 . S
H23 C19 0.922 1_655 S
H24 C19 0.991 . S
H25 C19 0.967 . S
C26 N27 1.317 . S
C26 N28 1.350 . S
C26 C29 1.485 . S
N27 C26 1.317 . S
N27 N31 1.371 . S
N28 C26 1.350 . S
N28 C30 1.345 1_565 S
C29 C26 1.485 . S
C29 H33 0.960 1_565 S
C29 H34 0.961 . S
C29 H35 0.960 . S
C30 N28 1.345 1_545 S
C30 N31 1.307 1_545 S
C30 C32 1.486 . S
N31 N27 1.371 . S
N31 C30 1.307 1_565 S
C32 C30 1.486 . S
C32 H36 0.922 1_545 S
C32 H37 0.991 . S
C32 H38 0.967 . S
H33 C29 0.960 1_545 S
H34 C29 0.961 . S
H35 C29 0.960 . S
H36 C32 0.922 1_565 S
H37 C32 0.991 . S
H38 C32 0.967 . S
C39 N40 1.317 . S
C39 N41 1.348 . S
C39 C42 1.485 . S
N40 C39 1.317 . S
N40 N44 1.370 . S
N41 C39 1.348 . S
N41 C43 1.346 . S
C42 C39 1.485 . S
C42 H46 0.960 . S
C42 H47 0.961 . S
C42 H48 0.960 . S
C43 N41 1.346 . S
C43 N44 1.307 . S
C43 C45 1.486 . S
N44 N40 1.370 . S
N44 C43 1.307 . S
C45 C43 1.486 . S
C45 H49 0.960 . S
C45 H50 0.960 . S
C45 H51 0.959 . S
H46 C42 0.960 . S
H47 C42 0.961 . S
H48 C42 0.960 . S
H49 C45 0.960 . S
H50 C45 0.960 . S
H51 C45 0.959 . S
C52 N53 1.317 . S
C52 N54 1.348 1_556 S
C52 C55 1.485 . S
N53 C52 1.317 . S
N53 N57 1.370 1_556 S
N54 C52 1.348 1_554 S
N54 C56 1.346 . S
C55 C52 1.485 . S
C55 H59 0.960 . S
C55 H60 0.961 . S
C55 H61 0.960 . S
C56 N54 1.346 . S
C56 N57 1.307 . S
C56 C58 1.486 . S
N57 N53 1.370 1_554 S
N57 C56 1.307 . S
C58 C56 1.486 . S
C58 H62 0.960 . S
C58 H63 0.960 . S
C58 H64 0.959 . S
H59 C55 0.960 . S
H60 C55 0.961 . S
H61 C55 0.960 . S
H62 C58 0.960 . S
H63 C58 0.960 . S
H64 C58 0.959 . S
C65 N66 1.317 . S
C65 N67 1.350 1_556 S
C65 C68 1.485 . S
N66 C65 1.317 . S
N66 N70 1.370 1_556 S
N67 C65 1.350 1_554 S
N67 C69 1.345 1_655 S
C68 C65 1.485 . S
C68 H72 0.960 1_655 S
C68 H73 0.961 . S
C68 H74 0.960 . S
C69 N67 1.345 1_455 S
C69 N70 1.307 1_455 S
C69 C71 1.486 . S
N70 N66 1.370 1_554 S
N70 C69 1.307 1_655 S
C71 C69 1.486 . S
C71 H75 0.960 1_455 S
C71 H76 0.960 . S
C71 H77 0.959 . S
H72 C68 0.960 1_455 S
H73 C68 0.961 . S
H74 C68 0.960 . S
H75 C71 0.960 1_655 S
H76 C71 0.960 . S
H77 C71 0.959 . S
C78 N79 1.317 . S
C78 N80 1.350 1_556 S
C78 C81 1.485 . S
N79 C78 1.317 . S
N79 N83 1.370 1_556 S
N80 C78 1.350 1_554 S
N80 C82 1.345 1_565 S
C81 C78 1.485 . S
C81 H85 0.960 1_565 S
C81 H86 0.961 . S
C81 H87 0.960 . S
C82 N80 1.345 1_545 S
C82 N83 1.307 1_545 S
C82 C84 1.487 . S
N83 N79 1.370 1_554 S
N83 C82 1.307 1_565 S
C84 C82 1.487 . S
C84 H88 0.960 1_545 S
C84 H89 0.960 . S
C84 H90 0.959 . S
H85 C81 0.960 1_545 S
H86 C81 0.961 . S
H87 C81 0.960 . S
H88 C84 0.960 1_565 S
H89 C84 0.960 . S
H90 C84 0.959 . S
C91 N92 1.317 . S
C91 N93 1.348 1_556 S
C91 C94 1.485 . S
N92 C91 1.317 . S
N92 N96 1.370 1_556 S
N93 C91 1.348 1_554 S
N93 C95 1.346 . S
C94 C91 1.485 . S
C94 H98 0.960 . S
C94 H99 0.961 . S
C94 H100 0.960 . S
C95 N93 1.346 . S
C95 N96 1.307 . S
C95 C97 1.486 . S
N96 N92 1.370 1_554 S
N96 C95 1.307 . S
C97 C95 1.486 . S
C97 H101 0.960 . S
C97 H102 0.960 . S
C97 H103 0.959 . S
H98 C94 0.960 . S
H99 C94 0.961 . S
H100 C94 0.960 . S
H101 C97 0.960 . S
H102 C97 0.960 . S
H103 C97 0.959 . S
Pr104 C106 2.880 1_556 S
Pr104 O124 2.562 . S
Pr104 O125 2.490 . S
Pr104 O126 2.695 1_565 S
Pr104 O127 2.512 . S
Pr104 O129 2.437 . S
Pr104 O132 2.436 1_455 S
Pr104 O134 2.438 1_565 S
Pr105 C115 2.880 . S
Pr105 O126 2.436 1_655 S
Pr105 O128 2.438 1_545 S
Pr105 O130 2.562 . S
Pr105 O131 2.490 . S
Pr105 O132 2.695 1_545 S
Pr105 O133 2.512 . S
Pr105 O135 2.437 . S
C106 Pr104 2.880 1_554 S
C106 C107 1.491 . S
C106 O124 1.254 1_554 S
C106 O125 1.225 1_554 S
C107 C106 1.491 . S
C107 C108 1.392 . S
C107 C112 1.356 . S
C108 C107 1.392 . S
C108 C109 1.368 . S
C108 H136 0.929 . S
C109 C108 1.368 . S
C109 C110 1.386 . S
C109 H137 0.929 . S
C110 C109 1.386 . S
C110 C111 1.373 . S
C111 C110 1.373 . S
C111 C112 1.409 . S
C111 H138 0.931 1_455 S
C112 C107 1.356 . S
C112 C111 1.409 . S
C112 H139 0.930 1_455 S
C113 O126 1.270 1_565 S
C113 O127 1.248 . S
C114 O128 1.267 . S
C114 O129 1.278 1_655 S
C115 Pr105 2.880 . S
C115 C116 1.491 . S
C115 O130 1.254 . S
C115 O131 1.225 . S
C116 C115 1.491 . S
C116 C117 1.392 . S
C116 C121 1.356 . S
C117 C116 1.392 . S
C117 C118 1.368 . S
C117 H140 0.929 . S
C118 C117 1.368 . S
C118 C119 1.386 . S
C118 H141 0.929 . S
C119 C118 1.386 . S
C119 C120 1.373 . S
C120 C119 1.373 . S
C120 C121 1.409 . S
C120 H142 0.931 1_655 S
C121 C116 1.356 . S
C121 C120 1.409 . S
C121 H143 0.930 1_655 S
C122 O132 1.270 1_545 S
C122 O133 1.248 . S
C123 O134 1.267 . S
C123 O135 1.278 1_455 S
O124 Pr104 2.562 . S
O124 C106 1.254 1_556 S
O125 Pr104 2.490 . S
O125 C106 1.225 1_556 S
O126 Pr104 2.695 1_545 S
O126 Pr105 2.436 1_455 S
O126 C113 1.270 1_545 S
O127 Pr104 2.512 . S
O127 C113 1.248 . S
O128 Pr105 2.438 1_565 S
O128 C114 1.267 . S
O129 Pr104 2.437 . S
O129 C114 1.278 1_455 S
O130 Pr105 2.562 . S
O130 C115 1.254 . S
O131 Pr105 2.490 . S
O131 C115 1.225 . S
O132 Pr104 2.436 1_655 S
O132 Pr105 2.695 1_565 S
O132 C122 1.270 1_565 S
O133 Pr105 2.512 . S
O133 C122 1.248 . S
O134 Pr104 2.438 1_545 S
O134 C123 1.267 . S
O135 Pr105 2.437 . S
O135 C123 1.278 1_655 S
H136 C108 0.929 . S
H137 C109 0.929 . S
H138 C111 0.931 1_655 S
H139 C112 0.930 1_655 S
H140 C117 0.929 . S
H141 C118 0.929 . S
H142 C120 0.931 1_455 S
H143 C121 0.930 1_455 S
Pr144 C146 2.880 1_556 S
Pr144 O164 2.563 . S
Pr144 O165 2.490 . S
Pr144 O166 2.695 . S
Pr144 O167 2.512 . S
Pr144 O169 2.437 . S
Pr144 O172 2.436 1_545 S
Pr144 O174 2.438 . S
Pr145 C155 2.880 . S
Pr145 O166 2.436 1_565 S
Pr145 O168 2.438 . S
Pr145 O170 2.562 . S
Pr145 O171 2.490 . S
Pr145 O172 2.695 . S
Pr145 O173 2.512 . S
Pr145 O175 2.437 . S
C146 Pr144 2.880 1_554 S
C146 C147 1.491 . S
C146 O164 1.254 1_554 S
C146 O165 1.225 1_554 S
C147 C146 1.491 . S
C147 C148 1.392 . S
C147 C152 1.356 . S
C148 C147 1.392 . S
C148 C149 1.368 . S
C148 H176 0.929 . S
C149 C148 1.368 . S
C149 C150 1.386 . S
C149 H177 0.929 . S
C150 C149 1.386 . S
C150 C151 1.373 . S
C151 C150 1.373 . S
C151 C152 1.409 . S
C151 H178 0.931 1_545 S
C152 C147 1.356 . S
C152 C151 1.409 . S
C152 H179 0.930 1_545 S
C153 O166 1.270 . S
C153 O167 1.248 . S
C154 O168 1.267 . S
C154 O169 1.278 1_565 S
C155 Pr145 2.880 . S
C155 C156 1.491 . S
C155 O170 1.254 . S
C155 O171 1.225 . S
C156 C155 1.491 . S
C156 C157 1.392 . S
C156 C161 1.356 . S
C157 C156 1.392 . S
C157 C158 1.368 . S
C157 H180 0.929 . S
C158 C157 1.368 . S
C158 C159 1.386 . S
C158 H181 0.929 . S
C159 C158 1.386 . S
C159 C160 1.373 . S
C160 C159 1.373 . S
C160 C161 1.409 . S
C160 H182 0.931 1_565 S
C161 C156 1.356 . S
C161 C160 1.409 . S
C161 H183 0.930 1_565 S
C162 O172 1.270 . S
C162 O173 1.248 . S
C163 O174 1.267 . S
C163 O175 1.278 1_545 S
O164 Pr144 2.563 . S
O164 C146 1.254 1_556 S
O165 Pr144 2.490 . S
O165 C146 1.225 1_556 S
O166 Pr144 2.695 . S
O166 Pr145 2.436 1_545 S
O166 C153 1.270 . S
O167 Pr144 2.512 . S
O167 C153 1.248 . S
O168 Pr145 2.438 . S
O168 C154 1.267 . S
O169 Pr144 2.437 . S
O169 C154 1.278 1_545 S
O170 Pr145 2.562 . S
O170 C155 1.254 . S
O171 Pr145 2.490 . S
O171 C155 1.225 . S
O172 Pr144 2.436 1_565 S
O172 Pr145 2.695 . S
O172 C162 1.270 . S
O173 Pr145 2.512 . S
O173 C162 1.248 . S
O174 Pr144 2.438 . S
O174 C163 1.267 . S
O175 Pr145 2.437 . S
O175 C163 1.278 1_565 S
H176 C148 0.929 . S
H177 C149 0.929 . S
H178 C151 0.931 1_565 S
H179 C152 0.930 1_565 S
H180 C157 0.929 . S
H181 C158 0.929 . S
H182 C160 0.931 1_545 S
H183 C161 0.930 1_545 S
Pr184 C186 2.880 1_556 S
Pr184 O204 2.558 1_556 S
Pr184 O205 2.490 . S
Pr184 O206 2.695 . S
Pr184 O207 2.512 . S
Pr184 O209 2.437 . S
Pr184 O212 2.436 . S
Pr184 O214 2.438 . S
Pr185 C195 2.880 . S
Pr185 O206 2.436 . S
Pr185 O208 2.438 . S
Pr185 O210 2.562 . S
Pr185 O211 2.490 . S
Pr185 O212 2.695 . S
Pr185 O213 2.512 . S
Pr185 O215 2.437 . S
C186 Pr184 2.880 1_554 S
C186 C187 1.491 . S
C186 O204 1.254 . S
C186 O205 1.225 1_554 S
C187 C186 1.491 . S
C187 C188 1.392 . S
C187 C192 1.356 . S
C188 C187 1.392 . S
C188 C189 1.368 . S
C188 H216 0.929 . S
C189 C188 1.368 . S
C189 C190 1.386 . S
C189 H217 0.929 . S
C190 C189 1.386 . S
C190 C191 1.373 . S
C191 C190 1.373 . S
C191 C192 1.409 . S
C191 H218 0.931 . S
C192 C187 1.356 . S
C192 C191 1.409 . S
C192 H219 0.930 . S
C193 O206 1.270 . S
C193 O207 1.248 . S
C194 O208 1.267 . S
C194 O209 1.278 . S
C195 Pr185 2.880 . S
C195 C196 1.491 . S
C195 O210 1.254 . S
C195 O211 1.225 . S
C196 C195 1.491 . S
C196 C197 1.392 . S
C196 C201 1.356 . S
C197 C196 1.392 . S
C197 C198 1.368 . S
C197 H220 0.929 . S
C198 C197 1.368 . S
C198 C199 1.386 . S
C198 H221 0.929 . S
C199 C198 1.386 . S
C199 C200 1.373 . S
C200 C199 1.373 . S
C200 C201 1.409 . S
C200 H222 0.931 . S
C201 C196 1.356 . S
C201 C200 1.409 . S
C201 H223 0.930 . S
C202 O212 1.270 . S
C202 O213 1.248 . S
C203 O214 1.267 . S
C203 O215 1.278 . S
O204 Pr184 2.558 1_554 S
O204 C186 1.254 . S
O205 Pr184 2.490 . S
O205 C186 1.225 1_556 S
O206 Pr184 2.695 . S
O206 Pr185 2.436 . S
O206 C193 1.270 . S
O207 Pr184 2.512 . S
O207 C193 1.248 . S
O208 Pr185 2.438 . S
O208 C194 1.267 . S
O209 Pr184 2.437 . S
O209 C194 1.278 . S
O210 Pr185 2.562 . S
O210 C195 1.254 . S
O211 Pr185 2.490 . S
O211 C195 1.225 . S
O212 Pr184 2.436 . S
O212 Pr185 2.695 . S
O212 C202 1.270 . S
O213 Pr185 2.512 . S
O213 C202 1.248 . S
O214 Pr184 2.438 . S
O214 C203 1.267 . S
O215 Pr185 2.437 . S
O215 C203 1.278 . S
H216 C188 0.929 . S
H217 C189 0.929 . S
H218 C191 0.931 . S
H219 C192 0.930 . S
H220 C197 0.929 . S
H221 C198 0.929 . S
H222 C200 0.931 . S
H223 C201 0.930 . S
Pr224 C226 2.880 1_556 S
Pr224 O244 2.562 . S
Pr224 O245 2.490 . S
Pr224 O246 2.695 1_655 S
Pr224 O247 2.512 . S
Pr224 O249 2.437 . S
Pr224 O252 2.436 . S
Pr224 O254 2.438 1_655 S
Pr225 C235 2.880 . S
Pr225 O246 2.436 . S
Pr225 O248 2.438 1_455 S
Pr225 O250 2.562 . S
Pr225 O251 2.490 . S
Pr225 O252 2.695 1_455 S
Pr225 O253 2.512 . S
Pr225 O255 2.437 . S
C226 Pr224 2.880 1_554 S
C226 C227 1.491 . S
C226 O244 1.254 1_554 S
C226 O245 1.225 1_554 S
C227 C226 1.491 . S
C227 C228 1.392 . S
C227 C232 1.356 . S
C228 C227 1.392 . S
C228 C229 1.368 . S
C228 H256 0.929 . S
C229 C228 1.368 . S
C229 C230 1.386 . S
C229 H257 0.929 . S
C230 C229 1.386 . S
C230 C231 1.373 . S
C231 C230 1.373 . S
C231 C232 1.409 . S
C231 H258 0.931 . S
C232 C227 1.356 . S
C232 C231 1.409 . S
C232 H259 0.930 . S
C233 O246 1.260 1_655 S
C233 O247 1.265 . S
C234 O248 1.267 . S
C234 O249 1.278 . S
C235 Pr225 2.880 . S
C235 C236 1.491 . S
C235 O250 1.254 . S
C235 O251 1.225 . S
C236 C235 1.491 . S
C236 C237 1.392 . S
C236 C241 1.356 . S
C237 C236 1.392 . S
C237 C238 1.368 . S
C237 H260 0.929 . S
C238 C237 1.368 . S
C238 C239 1.386 . S
C238 H261 0.929 . S
C239 C238 1.386 . S
C239 C240 1.373 . S
C240 C239 1.373 . S
C240 C241 1.409 . S
C240 H262 0.931 . S
C241 C236 1.356 . S
C241 C240 1.409 . S
C241 H263 0.930 . S
C242 O252 1.258 1_455 S
C242 O253 1.270 . S
C243 O254 1.267 . S
C243 O255 1.278 . S
O244 Pr224 2.562 . S
O244 C226 1.254 1_556 S
O245 Pr224 2.490 . S
O245 C226 1.225 1_556 S
O246 Pr224 2.695 1_455 S
O246 Pr225 2.436 . S
O246 C233 1.260 1_455 S
O247 Pr224 2.512 . S
O247 C233 1.265 . S
O248 Pr225 2.438 1_655 S
O248 C234 1.267 . S
O249 Pr224 2.437 . S
O249 C234 1.278 . S
O250 Pr225 2.562 . S
O250 C235 1.254 . S
O251 Pr225 2.490 . S
O251 C235 1.225 . S
O252 Pr224 2.436 . S
O252 Pr225 2.695 1_655 S
O252 C242 1.258 1_655 S
O253 Pr225 2.512 . S
O253 C242 1.270 . S
O254 Pr224 2.438 1_455 S
O254 C243 1.267 . S
O255 Pr225 2.437 . S
O255 C243 1.278 . S
H256 C228 0.929 . S
H257 C229 0.929 . S
H258 C231 0.931 . S
H259 C232 0.930 . S
H260 C237 0.929 . S
H261 C238 0.929 . S
H262 C240 0.931 . S
H263 C241 0.930 . S
H264 C276 0.930 . S
H265 C278 0.930 . S
H266 C279 0.930 . S
H267 C283 0.959 . S
H268 C283 0.959 . S
H269 C283 0.961 . S
H270 C284 0.960 . S
H271 C284 0.961 . S
H272 C284 0.959 . S
H273 C287 0.929 . S
H274 C288 0.931 . S
H275 C290 0.930 . S
C276 H264 0.930 . S
C276 C277 1.399 1_545 S
C276 C281 1.399 . S
C277 C276 1.399 1_565 S
C277 C278 1.376 . S
C278 H265 0.930 . S
C278 C277 1.376 . S
C278 C279 1.388 . S
C279 H266 0.930 . S
C279 C278 1.388 . S
C279 C280 1.390 . S
C280 C279 1.390 . S
C280 C281 1.394 1_565 S
C280 C286 1.465 . S
C281 C276 1.399 . S
C281 C280 1.394 1_545 S
C281 C282 1.516 . S
C282 C281 1.516 . S
C282 C283 1.502 . S
C282 C284 1.561 . S
C282 C285 1.526 . S
C283 H267 0.959 . S
C283 H268 0.959 . S
C283 H269 0.961 . S
C283 C282 1.502 . S
C284 H270 0.960 . S
C284 H271 0.961 . S
C284 H272 0.959 . S
C284 C282 1.561 . S
C285 C282 1.526 . S
C285 C286 1.396 1_545 S
C285 C290 1.390 . S
C286 C280 1.465 . S
C286 C285 1.396 1_565 S
C286 C287 1.399 . S
C287 H273 0.929 . S
C287 C286 1.399 . S
C287 C288 1.385 . S
C288 H274 0.931 . S
C288 C287 1.385 . S
C288 C289 1.389 . S
C289 C288 1.389 . S
C289 C290 1.387 1_565 S
C290 H275 0.930 . S
C290 C285 1.390 . S
C290 C289 1.387 1_545 S
H291 C303 0.930 . S
H292 C305 0.930 . S
H293 C306 0.930 . S
H294 C310 0.959 . S
H295 C310 0.959 . S
H296 C310 0.961 . S
H297 C311 0.960 . S
H298 C311 0.961 . S
H299 C311 0.959 . S
H300 C314 0.929 . S
H301 C315 0.931 . S
H302 C317 0.930 . S
C303 H291 0.930 . S
C303 C304 1.399 . S
C303 C308 1.399 . S
C304 C303 1.399 . S
C304 C305 1.376 . S
C305 H292 0.930 . S
C305 C304 1.376 . S
C305 C306 1.388 . S
C306 H293 0.930 . S
C306 C305 1.388 . S
C306 C307 1.390 . S
C307 C306 1.390 . S
C307 C308 1.394 . S
C307 C313 1.465 . S
C308 C303 1.399 . S
C308 C307 1.394 . S
C308 C309 1.516 . S
C309 C308 1.516 . S
C309 C310 1.502 . S
C309 C311 1.561 . S
C309 C312 1.526 . S
C310 H294 0.959 . S
C310 H295 0.959 . S
C310 H296 0.961 . S
C310 C309 1.502 . S
C311 H297 0.960 . S
C311 H298 0.961 . S
C311 H299 0.959 . S
C311 C309 1.561 . S
C312 C309 1.526 . S
C312 C313 1.396 . S
C312 C317 1.390 . S
C313 C307 1.465 . S
C313 C312 1.396 . S
C313 C314 1.399 . S
C314 H300 0.929 . S
C314 C313 1.399 . S
C314 C315 1.385 . S
C315 H301 0.931 . S
C315 C314 1.385 . S
C315 C316 1.389 . S
C316 C315 1.389 . S
C316 C317 1.387 . S
C317 H302 0.930 . S
C317 C312 1.390 . S
C317 C316 1.387 . S
H318 C330 0.930 . S
H319 C332 0.930 . S
H320 C333 0.930 . S
H321 C337 0.959 . S
H322 C337 0.959 . S
H323 C337 0.961 . S
H324 C338 0.960 . S
H325 C338 0.961 . S
H326 C338 0.959 . S
H327 C341 0.929 . S
H328 C342 0.931 . S
H329 C344 0.930 . S
C330 H318 0.930 . S
C330 C331 1.399 . S
C330 C335 1.399 . S
C331 C330 1.399 . S
C331 C332 1.376 . S
C332 H319 0.930 . S
C332 C331 1.376 . S
C332 C333 1.388 . S
C333 H320 0.930 . S
C333 C332 1.388 . S
C333 C334 1.390 . S
C334 C333 1.390 . S
C334 C335 1.394 . S
C334 C340 1.465 . S
C335 C330 1.399 . S
C335 C334 1.394 . S
C335 C336 1.516 . S
C336 C335 1.516 . S
C336 C337 1.502 . S
C336 C338 1.561 . S
C336 C339 1.526 . S
C337 H321 0.959 . S
C337 H322 0.959 . S
C337 H323 0.961 . S
C337 C336 1.502 . S
C338 H324 0.960 . S
C338 H325 0.961 . S
C338 H326 0.959 . S
C338 C336 1.561 . S
C339 C336 1.526 . S
C339 C340 1.396 . S
C339 C344 1.390 . S
C340 C334 1.465 . S
C340 C339 1.396 . S
C340 C341 1.399 . S
C341 H327 0.929 . S
C341 C340 1.399 . S
C341 C342 1.385 . S
C342 H328 0.931 . S
C342 C341 1.385 . S
C342 C343 1.389 . S
C343 C342 1.389 . S
C343 C344 1.387 . S
C344 H329 0.930 . S
C344 C339 1.390 . S
C344 C343 1.387 . S
H345 C357 0.930 . S
H346 C359 0.930 . S
H347 C360 0.930 . S
H348 C364 0.959 . S
H349 C364 0.959 . S
H350 C364 0.961 . S
H351 C365 0.962 . S
H352 C365 0.963 . S
H353 C365 0.952 1_655 S
H354 C368 0.929 . S
H355 C369 0.931 . S
H356 C371 0.930 . S
C357 H345 0.930 . S
C357 C358 1.399 1_455 S
C357 C362 1.399 . S
C358 C357 1.399 1_655 S
C358 C359 1.376 . S
C359 H346 0.930 . S
C359 C358 1.376 . S
C359 C360 1.388 . S
C360 H347 0.930 . S
C360 C359 1.388 . S
C360 C361 1.390 . S
C361 C360 1.390 . S
C361 C362 1.394 1_655 S
C361 C367 1.465 . S
C362 C357 1.399 . S
C362 C361 1.394 1_455 S
C362 C363 1.516 . S
C363 C362 1.516 . S
C363 C364 1.502 . S
C363 C365 1.565 . S
C363 C366 1.526 . S
C364 H348 0.959 . S
C364 H349 0.959 . S
C364 H350 0.961 . S
C364 C363 1.502 . S
C365 H351 0.962 . S
C365 H352 0.963 . S
C365 H353 0.952 1_455 S
C365 C363 1.565 . S
C366 C363 1.526 . S
C366 C367 1.396 1_455 S
C366 C371 1.390 . S
C367 C361 1.465 . S
C367 C366 1.396 1_655 S
C367 C368 1.399 . S
C368 H354 0.929 . S
C368 C367 1.399 . S
C368 C369 1.385 . S
C369 H355 0.931 . S
C369 C368 1.385 . S
C369 C370 1.393 . S
C370 C369 1.393 . S
C370 C371 1.384 1_655 S
C371 H356 0.930 . S
C371 C366 1.390 . S
C371 C370 1.384 1_455 S
H372 C384 0.930 . S
H373 C386 0.930 . S
H374 C387 0.930 . S
H375 C391 0.959 . S
H376 C391 0.959 . S
H377 C391 0.961 . S
H378 C392 0.960 . S
H379 C392 0.961 . S
H380 C392 0.959 . S
H381 C395 0.929 . S
H382 C396 0.931 . S
H383 C398 0.930 . S
C384 H372 0.930 . S
C384 C385 1.399 1_565 S
C384 C389 1.399 . S
C385 C384 1.399 1_545 S
C385 C386 1.376 . S
C386 H373 0.930 . S
C386 C385 1.376 . S
C386 C387 1.388 . S
C387 H374 0.930 . S
C387 C386 1.388 . S
C387 C388 1.390 . S
C388 C387 1.390 . S
C388 C389 1.394 1_545 S
C388 C394 1.465 . S
C389 C384 1.399 . S
C389 C388 1.394 1_565 S
C389 C390 1.516 . S
C390 C389 1.516 . S
C390 C391 1.502 . S
C390 C392 1.561 . S
C390 C393 1.526 . S
C391 H375 0.959 . S
C391 H376 0.959 . S
C391 H377 0.961 . S
C391 C390 1.502 . S
C392 H378 0.960 . S
C392 H379 0.961 . S
C392 H380 0.959 . S
C392 C390 1.561 . S
C393 C390 1.526 . S
C393 C394 1.396 1_565 S
C393 C398 1.390 . S
C394 C388 1.465 . S
C394 C393 1.396 1_545 S
C394 C395 1.399 . S
C395 H381 0.929 . S
C395 C394 1.399 . S
C395 C396 1.385 1_554 S
C396 H382 0.931 . S
C396 C395 1.385 1_556 S
C396 C397 1.389 . S
C397 C396 1.389 . S
C397 C398 1.387 1_546 S
C398 H383 0.930 . S
C398 C393 1.390 . S
C398 C397 1.387 1_564 S
H399 C411 0.930 . S
H400 C413 0.930 . S
H401 C414 0.930 . S
H402 C418 0.959 . S
H403 C418 0.959 1_556 S
H404 C418 0.961 . S
H405 C419 0.960 . S
H406 C419 0.961 . S
H407 C419 0.959 . S
H408 C422 0.929 . S
H409 C423 0.931 . S
H410 C425 0.930 . S
C411 H399 0.930 . S
C411 C412 1.399 . S
C411 C416 1.399 . S
C412 C411 1.399 . S
C412 C413 1.376 . S
C413 H400 0.930 . S
C413 C412 1.376 . S
C413 C414 1.388 . S
C414 H401 0.930 . S
C414 C413 1.388 . S
C414 C415 1.390 . S
C415 C414 1.390 . S
C415 C416 1.394 . S
C415 C421 1.465 . S
C416 C411 1.399 . S
C416 C415 1.394 . S
C416 C417 1.516 . S
C417 C416 1.516 . S
C417 C418 1.502 . S
C417 C419 1.561 . S
C417 C420 1.526 . S
C418 H402 0.959 . S
C418 H403 0.959 1_554 S
C418 H404 0.961 . S
C418 C417 1.502 . S
C419 H405 0.960 . S
C419 H406 0.961 . S
C419 H407 0.959 . S
C419 C417 1.561 . S
C420 C417 1.526 . S
C420 C421 1.396 . S
C420 C425 1.390 1_554 S
C421 C415 1.465 . S
C421 C420 1.396 . S
C421 C422 1.399 . S
C422 H408 0.929 . S
C422 C421 1.399 . S
C422 C423 1.385 . S
C423 H409 0.931 . S
C423 C422 1.385 . S
C423 C424 1.389 1_554 S
C424 C423 1.389 1_556 S
C424 C425 1.387 . S
C425 H410 0.930 . S
C425 C420 1.390 1_556 S
C425 C424 1.387 . S
H426 C438 0.930 . S
H427 C440 0.930 . S
H428 C441 0.930 . S
H429 C445 0.959 . S
H430 C445 0.959 . S
H431 C445 0.961 . S
H432 C446 0.960 . S
H433 C446 0.961 . S
H434 C446 0.959 . S
H435 C449 0.929 . S
H436 C450 0.931 . S
H437 C452 0.930 1_556 S
C438 H426 0.930 . S
C438 C439 1.399 . S
C438 C443 1.399 . S
C439 C438 1.399 . S
C439 C440 1.376 . S
C440 H427 0.930 . S
C440 C439 1.376 . S
C440 C441 1.388 . S
C441 H428 0.930 . S
C441 C440 1.388 . S
C441 C442 1.390 . S
C442 C441 1.390 . S
C442 C443 1.394 . S
C442 C448 1.465 . S
C443 C438 1.399 . S
C443 C442 1.394 . S
C443 C444 1.516 . S
C444 C443 1.516 . S
C444 C445 1.502 . S
C444 C446 1.561 . S
C444 C447 1.526 . S
C445 H429 0.959 . S
C445 H430 0.959 . S
C445 H431 0.961 . S
C445 C444 1.502 . S
C446 H432 0.960 . S
C446 H433 0.961 . S
C446 H434 0.959 . S
C446 C444 1.561 . S
C447 C444 1.526 . S
C447 C448 1.396 . S
C447 C452 1.390 . S
C448 C442 1.465 . S
C448 C447 1.396 . S
C448 C449 1.399 . S
C449 H435 0.929 . S
C449 C448 1.399 . S
C449 C450 1.385 . S
C450 H436 0.931 . S
C450 C449 1.385 . S
C450 C451 1.389 1_554 S
C451 C450 1.389 1_556 S
C451 C452 1.387 1_556 S
C452 H437 0.930 1_554 S
C452 C447 1.390 . S
C452 C451 1.387 1_554 S
H453 C465 0.930 . S
H454 C467 0.930 . S
H455 C468 0.930 . S
H456 C472 0.959 . S
H457 C472 0.959 1_556 S
H458 C472 0.961 . S
H459 C473 0.960 . S
H460 C473 0.961 1_556 S
H461 C473 0.959 . S
H462 C476 0.929 . S
H463 C477 0.931 . S
H464 C479 0.930 . S
C465 H453 0.930 . S
C465 C466 1.399 1_655 S
C465 C470 1.399 . S
C466 C465 1.399 1_455 S
C466 C467 1.376 . S
C467 H454 0.930 . S
C467 C466 1.376 . S
C467 C468 1.388 . S
C468 H455 0.930 . S
C468 C467 1.388 . S
C468 C469 1.390 . S
C469 C468 1.390 . S
C469 C470 1.394 1_455 S
C469 C475 1.465 . S
C470 C465 1.399 . S
C470 C469 1.394 1_655 S
C470 C471 1.516 . S
C471 C470 1.516 . S
C471 C472 1.502 . S
C471 C473 1.561 1_655 S
C471 C474 1.526 . S
C472 H456 0.959 . S
C472 H457 0.959 1_554 S
C472 H458 0.961 . S
C472 C471 1.502 . S
C473 H459 0.960 . S
C473 H460 0.961 1_554 S
C473 H461 0.959 . S
C473 C471 1.561 1_455 S
C474 C471 1.526 . S
C474 C475 1.396 1_655 S
C474 C479 1.390 1_554 S
C475 C469 1.465 . S
C475 C474 1.396 1_455 S
C475 C476 1.399 . S
C476 H462 0.929 . S
C476 C475 1.399 . S
C476 C477 1.385 . S
C477 H463 0.931 . S
C477 C476 1.385 . S
C477 C478 1.389 1_454 S
C478 C477 1.389 1_656 S
C478 C479 1.387 . S
C479 H464 0.930 . S
C479 C474 1.390 1_556 S
C479 C478 1.387 . S
H480 C492 0.930 1_556 S
H481 C494 0.930 . S
H482 C495 0.930 . S
H483 C499 0.959 . S
H484 C499 0.959 . S
H485 C499 0.961 1_556 S
H486 C500 0.960 . S
H487 C500 0.955 1_655 S
H488 C500 0.959 . S
H489 C503 0.929 . S
H490 C504 0.931 . S
H491 C506 0.930 . S
C492 H480 0.930 1_554 S
C492 C493 1.399 1_655 S
C492 C497 1.399 . S
C493 C492 1.399 1_455 S
C493 C494 1.376 . S
C494 H481 0.930 . S
C494 C493 1.376 . S
C494 C495 1.388 1_455 S
C495 H482 0.930 . S
C495 C494 1.388 1_655 S
C495 C496 1.390 . S
C496 C495 1.390 . S
C496 C497 1.394 . S
C496 C502 1.465 . S
C497 C492 1.399 . S
C497 C496 1.394 . S
C497 C498 1.516 . S
C498 C497 1.516 . S
C498 C499 1.502 . S
C498 C500 1.561 1_655 S
C498 C501 1.526 . S
C499 H483 0.959 . S
C499 H484 0.959 . S
C499 H485 0.961 1_554 S
C499 C498 1.502 . S
C500 H486 0.960 . S
C500 H487 0.955 1_455 S
C500 H488 0.959 . S
C500 C498 1.561 1_455 S
C501 C498 1.526 . S
C501 C502 1.396 . S
C501 C506 1.390 . S
C502 C496 1.465 . S
C502 C501 1.396 . S
C502 C503 1.399 . S
C503 H489 0.929 . S
C503 C502 1.399 . S
C503 C504 1.385 . S
C504 H490 0.931 . S
C504 C503 1.385 . S
C504 C505 1.389 . S
C505 C504 1.389 . S
C505 C506 1.387 . S
C506 H491 0.930 . S
C506 C501 1.390 . S
C506 C505 1.387 . S
H507 C519 0.930 . S
H508 C521 0.930 . S
H509 C522 0.930 . S
H510 C526 0.959 . S
H511 C526 0.959 . S
H512 C526 0.961 . S
H513 C527 0.960 . S
H514 C527 0.961 . S
H515 C527 0.959 1_565 S
H516 C530 0.929 . S
H517 C531 0.931 . S
H518 C533 0.930 . S
C519 H507 0.930 . S
C519 C520 1.389 1_545 S
C519 C524 1.399 1_545 S
C520 C519 1.389 1_565 S
C520 C521 1.398 . S
C521 H508 0.930 . S
C521 C520 1.398 . S
C521 C522 1.388 . S
C522 H509 0.930 . S
C522 C521 1.388 . S
C522 C523 1.390 . S
C523 C522 1.390 . S
C523 C524 1.394 . S
C523 C529 1.465 . S
C524 C519 1.399 1_565 S
C524 C523 1.394 . S
C524 C525 1.516 1_565 S
C525 C524 1.516 1_545 S
C525 C526 1.502 . S
C525 C527 1.561 . S
C525 C528 1.526 1_545 S
C526 H510 0.959 . S
C526 H511 0.959 . S
C526 H512 0.961 . S
C526 C525 1.502 . S
C527 H513 0.960 . S
C527 H514 0.961 . S
C527 H515 0.959 1_545 S
C527 C525 1.561 . S
C528 C525 1.526 1_565 S
C528 C529 1.396 . S
C528 C533 1.390 . S
C529 C523 1.465 . S
C529 C528 1.396 . S
C529 C530 1.399 . S
C530 H516 0.929 . S
C530 C529 1.399 . S
C530 C531 1.385 . S
C531 H517 0.931 . S
C531 C530 1.385 . S
C531 C532 1.389 . S
C532 C531 1.389 . S
C532 C533 1.387 . S
C533 H518 0.930 . S
C533 C528 1.390 . S
C533 C532 1.387 . S
H534 C546 0.930 1_556 S
H535 C548 0.930 . S
H536 C549 0.930 . S
H537 C553 0.959 . S
H538 C553 0.959 . S
H539 C553 0.961 1_556 S
H540 C554 0.960 1_556 S
H541 C554 0.961 . S
H542 C554 0.959 . S
H543 C557 0.929 . S
H544 C558 0.931 . S
H545 C560 0.930 . S
C546 H534 0.930 1_554 S
C546 C547 1.399 . S
C546 C551 1.399 . S
C547 C546 1.399 . S
C547 C548 1.376 . S
C548 H535 0.930 . S
C548 C547 1.376 . S
C548 C549 1.388 . S
C549 H536 0.930 . S
C549 C548 1.388 . S
C549 C550 1.390 . S
C550 C549 1.390 . S
C550 C551 1.394 . S
C550 C556 1.465 . S
C551 C546 1.399 . S
C551 C550 1.394 . S
C551 C552 1.516 . S
C552 C551 1.516 . S
C552 C553 1.502 . S
C552 C554 1.561 . S
C552 C555 1.526 . S
C553 H537 0.959 . S
C553 H538 0.959 . S
C553 H539 0.961 1_554 S
C553 C552 1.502 . S
C554 H540 0.960 1_554 S
C554 H541 0.961 . S
C554 H542 0.959 . S
C554 C552 1.561 . S
C555 C552 1.526 . S
C555 C556 1.396 . S
C555 C560 1.390 . S
C556 C550 1.465 . S
C556 C555 1.396 . S
C556 C557 1.399 . S
C557 H543 0.929 . S
C557 C556 1.399 . S
C557 C558 1.385 . S
C558 H544 0.931 . S
C558 C557 1.385 . S
C558 C559 1.389 . S
C559 C558 1.389 . S
C559 C560 1.387 . S
C560 H545 0.930 . S
C560 C555 1.390 . S
C560 C559 1.387 . S
H561 C573 0.930 1_556 S
H562 C575 0.930 . S
H563 C576 0.930 . S
H564 C580 0.959 . S
H565 C580 0.959 . S
H566 C580 0.961 1_556 S
H567 C581 0.960 . S
H568 C581 0.961 . S
H569 C581 0.959 . S
H570 C584 0.929 . S
H571 C585 0.931 . S
H572 C587 0.930 . S
C573 H561 0.930 1_554 S
C573 C574 1.399 . S
C573 C578 1.399 . S
C574 C573 1.399 . S
C574 C575 1.376 . S
C575 H562 0.930 . S
C575 C574 1.376 . S
C575 C576 1.388 . S
C576 H563 0.930 . S
C576 C575 1.388 . S
C576 C577 1.390 . S
C577 C576 1.390 . S
C577 C578 1.394 . S
C577 C583 1.465 . S
C578 C573 1.399 . S
C578 C577 1.394 . S
C578 C579 1.516 . S
C579 C578 1.516 . S
C579 C580 1.502 . S
C579 C581 1.561 . S
C579 C582 1.526 . S
C580 H564 0.959 . S
C580 H565 0.959 . S
C580 H566 0.961 1_554 S
C580 C579 1.502 . S
C581 H567 0.960 . S
C581 H568 0.961 . S
C581 H569 0.959 . S
C581 C579 1.561 . S
C582 C579 1.526 . S
C582 C583 1.396 . S
C582 C587 1.390 . S
C583 C577 1.465 . S
C583 C582 1.396 . S
C583 C584 1.399 . S
C584 H570 0.929 . S
C584 C583 1.399 . S
C584 C585 1.385 . S
C585 H571 0.931 . S
C585 C584 1.385 . S
C585 C586 1.389 . S
C586 C585 1.389 . S
C586 C587 1.387 . S
C587 H572 0.930 . S
C587 C582 1.390 . S
C587 C586 1.387 . S
H588 C600 0.930 . S
H589 C602 0.930 . S
H590 C603 0.930 . S
H591 C607 0.959 . S
H592 C607 0.959 . S
H593 C607 0.961 . S
H594 C608 0.960 . S
H595 C608 0.961 . S
H596 C608 0.959 1_455 S
H597 C611 0.929 . S
H598 C612 0.931 . S
H599 C614 0.930 . S
C600 H588 0.930 . S
C600 C601 1.394 1_655 S
C600 C605 1.399 1_655 S
C601 C600 1.394 1_455 S
C601 C602 1.388 . S
C602 H589 0.930 . S
C602 C601 1.388 . S
C602 C603 1.388 . S
C603 H590 0.930 . S
C603 C602 1.388 . S
C603 C604 1.390 . S
C604 C603 1.390 . S
C604 C605 1.394 . S
C604 C610 1.465 . S
C605 C600 1.399 1_455 S
C605 C604 1.394 . S
C605 C606 1.516 1_455 S
C606 C605 1.516 1_655 S
C606 C607 1.502 . S
C606 C608 1.561 . S
C606 C609 1.526 1_655 S
C607 H591 0.959 . S
C607 H592 0.959 . S
C607 H593 0.961 . S
C607 C606 1.502 . S
C608 H594 0.960 . S
C608 H595 0.961 . S
C608 H596 0.959 1_655 S
C608 C606 1.561 . S
C609 C606 1.526 1_455 S
C609 C610 1.396 . S
C609 C614 1.390 . S
C610 C604 1.465 . S
C610 C609 1.396 . S
C610 C611 1.399 . S
C611 H597 0.929 . S
C611 C610 1.399 . S
C611 C612 1.385 . S
C612 H598 0.931 . S
C612 C611 1.385 . S
C612 C613 1.389 . S
C613 C612 1.389 . S
C613 C614 1.387 . S
C614 H599 0.930 . S
C614 C609 1.390 . S
C614 C613 1.387 . S
H615 C627 0.930 . S
H616 C629 0.930 . S
H617 C630 0.930 . S
H618 C634 0.959 . S
H619 C634 0.959 . S
H620 C634 0.961 . S
H621 C635 0.960 . S
H622 C635 0.961 . S
H623 C635 0.959 . S
H624 C638 0.929 1_565 S
H625 C639 0.931 . S
H626 C641 0.930 . S
C627 H615 0.930 . S
C627 C628 1.399 1_545 S
C627 C632 1.399 . S
C628 C627 1.399 1_565 S
C628 C629 1.376 . S
C629 H616 0.930 . S
C629 C628 1.376 . S
C629 C630 1.388 . S
C630 H617 0.930 . S
C630 C629 1.388 . S
C630 C631 1.390 1_565 S
C631 C630 1.390 1_545 S
C631 C632 1.394 . S
C631 C637 1.465 . S
C632 C627 1.399 . S
C632 C631 1.394 . S
C632 C633 1.516 . S
C633 C632 1.516 . S
C633 C634 1.502 . S
C633 C635 1.561 . S
C633 C636 1.526 . S
C634 H618 0.959 . S
C634 H619 0.959 . S
C634 H620 0.961 . S
C634 C633 1.502 . S
C635 H621 0.960 . S
C635 H622 0.961 . S
C635 H623 0.959 . S
C635 C633 1.561 . S
C636 C633 1.526 . S
C636 C637 1.396 . S
C636 C641 1.390 . S
C637 C631 1.465 . S
C637 C636 1.396 . S
C637 C638 1.399 . S
C638 H624 0.929 1_545 S
C638 C637 1.399 . S
C638 C639 1.385 . S
C639 H625 0.931 . S
C639 C638 1.385 . S
C639 C640 1.389 . S
C640 C639 1.389 . S
C640 C641 1.387 . S
C641 H626 0.930 . S
C641 C636 1.390 . S
C641 C640 1.387 . S
H642 C654 0.930 . S
H643 C656 0.930 . S
H644 C657 0.930 . S
H645 C661 0.959 . S
H646 C661 0.959 . S
H647 C661 0.961 . S
H648 C662 0.960 . S
H649 C662 0.961 . S
H650 C662 0.959 . S
H651 C665 0.929 . S
H652 C666 0.931 . S
H653 C668 0.930 . S
C654 H642 0.930 . S
C654 C655 1.399 . S
C654 C659 1.399 . S
C655 C654 1.399 . S
C655 C656 1.376 . S
C656 H643 0.930 . S
C656 C655 1.376 . S
C656 C657 1.388 . S
C657 H644 0.930 . S
C657 C656 1.388 . S
C657 C658 1.390 . S
C658 C657 1.390 . S
C658 C659 1.394 . S
C658 C664 1.465 . S
C659 C654 1.399 . S
C659 C658 1.394 . S
C659 C660 1.516 . S
C660 C659 1.516 . S
C660 C661 1.502 . S
C660 C662 1.561 . S
C660 C663 1.526 . S
C661 H645 0.959 . S
C661 H646 0.959 . S
C661 H647 0.961 . S
C661 C660 1.502 . S
C662 H648 0.960 . S
C662 H649 0.961 . S
C662 H650 0.959 . S
C662 C660 1.561 . S
C663 C660 1.526 . S
C663 C664 1.396 . S
C663 C668 1.390 . S
C664 C658 1.465 . S
C664 C663 1.396 . S
C664 C665 1.399 . S
C665 H651 0.929 . S
C665 C664 1.399 . S
C665 C666 1.385 . S
C666 H652 0.931 . S
C666 C665 1.385 . S
C666 C667 1.389 . S
C667 C666 1.389 . S
C667 C668 1.387 . S
C668 H653 0.930 . S
C668 C663 1.390 . S
C668 C667 1.387 . S
H669 C681 0.930 . S
H670 C683 0.930 . S
H671 C684 0.930 . S
H672 C688 0.959 . S
H673 C688 0.959 . S
H674 C688 0.961 . S
H675 C689 0.960 . S
H676 C689 0.961 . S
H677 C689 0.959 . S
H678 C692 0.929 . S
H679 C693 0.931 . S
H680 C695 0.930 . S
C681 H669 0.930 . S
C681 C682 1.399 . S
C681 C686 1.399 . S
C682 C681 1.399 . S
C682 C683 1.376 . S
C683 H670 0.930 . S
C683 C682 1.376 . S
C683 C684 1.388 . S
C684 H671 0.930 . S
C684 C683 1.388 . S
C684 C685 1.390 . S
C685 C684 1.390 . S
C685 C686 1.394 . S
C685 C691 1.465 . S
C686 C681 1.399 . S
C686 C685 1.394 . S
C686 C687 1.516 . S
C687 C686 1.516 . S
C687 C688 1.502 . S
C687 C689 1.561 . S
C687 C690 1.526 . S
C688 H672 0.959 . S
C688 H673 0.959 . S
C688 H674 0.961 . S
C688 C687 1.502 . S
C689 H675 0.960 . S
C689 H676 0.961 . S
C689 H677 0.959 . S
C689 C687 1.561 . S
C690 C687 1.526 . S
C690 C691 1.396 . S
C690 C695 1.390 . S
C691 C685 1.465 . S
C691 C690 1.396 . S
C691 C692 1.399 . S
C692 H678 0.929 . S
C692 C691 1.399 . S
C692 C693 1.385 . S
C693 H679 0.931 . S
C693 C692 1.385 . S
C693 C694 1.389 . S
C694 C693 1.389 . S
C694 C695 1.387 . S
C695 H680 0.930 . S
C695 C690 1.390 . S
C695 C694 1.387 . S
H696 C708 0.930 1_554 S
H697 C710 0.930 . S
H698 C711 0.930 . S
H699 C715 0.957 1_556 S
H700 C715 0.959 . S
H701 C715 0.961 . S
H702 C716 0.960 . S
H703 C716 0.960 . S
H704 C716 0.959 . S
H705 C719 0.929 . S
H706 C720 0.935 . S
H707 C722 0.930 . S
C708 H696 0.930 1_556 S
C708 C709 1.399 . S
C708 C713 1.399 . S
C709 C708 1.399 . S
C709 C710 1.376 1_455 S
C710 H697 0.930 . S
C710 C709 1.376 1_655 S
C710 C711 1.388 . S
C711 H698 0.930 . S
C711 C710 1.388 . S
C711 C712 1.390 . S
C712 C711 1.390 . S
C712 C713 1.394 1_655 S
C712 C718 1.463 1_655 S
C713 C708 1.399 . S
C713 C712 1.394 1_455 S
C713 C714 1.516 1_556 S
C714 C713 1.516 1_554 S
C714 C715 1.502 . S
C714 C716 1.561 1_455 S
C714 C717 1.526 1_554 S
C715 H699 0.957 1_554 S
C715 H700 0.959 . S
C715 H701 0.961 . S
C715 C714 1.502 . S
C716 H702 0.960 . S
C716 H703 0.960 . S
C716 H704 0.959 . S
C716 C714 1.561 1_655 S
C717 C714 1.526 1_556 S
C717 C718 1.406 . S
C717 C722 1.390 . S
C718 C712 1.463 1_455 S
C718 C717 1.406 . S
C718 C719 1.393 1_455 S
C719 H705 0.929 . S
C719 C718 1.393 1_655 S
C719 C720 1.389 . S
C720 H706 0.935 . S
C720 C719 1.389 . S
C720 C721 1.382 1_655 S
C721 C720 1.382 1_455 S
C721 C722 1.387 . S
C722 H707 0.930 . S
C722 C717 1.390 . S
C722 C721 1.387 . S
H723 C735 0.930 1_554 S
H724 C737 0.930 . S
H725 C738 0.930 . S
H726 C742 0.959 . S
H727 C742 0.959 1_554 S
H728 C742 0.961 1_554 S
H729 C743 0.960 . S
H730 C743 0.961 . S
H731 C743 0.959 1_565 S
H732 C746 0.929 . S
H733 C747 0.931 . S
H734 C749 0.930 . S
C735 H723 0.930 1_556 S
C735 C736 1.391 1_545 S
C735 C740 1.399 . S
C736 C735 1.391 1_565 S
C736 C737 1.386 . S
C737 H724 0.930 . S
C737 C736 1.386 . S
C737 C738 1.388 . S
C738 H725 0.930 . S
C738 C737 1.388 . S
C738 C739 1.390 . S
C739 C738 1.390 . S
C739 C740 1.394 1_565 S
C739 C745 1.465 . S
C740 C735 1.399 . S
C740 C739 1.394 1_545 S
C740 C741 1.516 . S
C741 C740 1.516 . S
C741 C742 1.502 . S
C741 C743 1.561 1_556 S
C741 C744 1.526 . S
C742 H726 0.959 . S
C742 H727 0.959 1_556 S
C742 H728 0.961 1_556 S
C742 C741 1.502 . S
C743 H729 0.960 . S
C743 H730 0.961 . S
C743 H731 0.959 1_545 S
C743 C741 1.561 1_554 S
C744 C741 1.526 . S
C744 C745 1.396 1_545 S
C744 C749 1.390 . S
C745 C739 1.465 . S
C745 C744 1.396 1_565 S
C745 C746 1.399 . S
C746 H732 0.929 . S
C746 C745 1.399 . S
C746 C747 1.385 . S
C747 H733 0.931 . S
C747 C746 1.385 . S
C747 C748 1.389 1_565 S
C748 C747 1.389 1_545 S
C748 C749 1.387 . S
C749 H734 0.930 . S
C749 C744 1.390 . S
C749 C748 1.387 . S
H750 C762 0.930 . S
H751 C764 0.930 . S
H752 C765 0.930 . S
H753 C769 0.959 . S
H754 C769 0.959 . S
H755 C769 0.961 . S
H756 C770 0.960 . S
H757 C770 0.961 . S
H758 C770 0.959 . S
H759 C773 0.929 . S
H760 C774 0.931 1_554 S
H761 C776 0.930 . S
C762 H750 0.930 . S
C762 C763 1.399 . S
C762 C767 1.399 . S
C763 C762 1.399 . S
C763 C764 1.376 1_556 S
C764 H751 0.930 . S
C764 C763 1.376 1_554 S
C764 C765 1.388 . S
C765 H752 0.930 . S
C765 C764 1.388 . S
C765 C766 1.390 1_554 S
C766 C765 1.390 1_556 S
C766 C767 1.394 . S
C766 C772 1.465 . S
C767 C762 1.399 . S
C767 C766 1.394 . S
C767 C768 1.516 . S
C768 C767 1.516 . S
C768 C769 1.502 . S
C768 C770 1.561 . S
C768 C771 1.526 . S
C769 H753 0.959 . S
C769 H754 0.959 . S
C769 H755 0.961 . S
C769 C768 1.502 . S
C770 H756 0.960 . S
C770 H757 0.961 . S
C770 H758 0.959 . S
C770 C768 1.561 . S
C771 C768 1.526 . S
C771 C772 1.396 . S
C771 C776 1.390 . S
C772 C766 1.465 . S
C772 C771 1.396 . S
C772 C773 1.399 1_556 S
C773 H759 0.929 . S
C773 C772 1.399 1_554 S
C773 C774 1.385 1_554 S
C774 H760 0.931 1_556 S
C774 C773 1.385 1_556 S
C774 C775 1.389 . S
C775 C774 1.389 . S
C775 C776 1.387 . S
C776 H761 0.930 . S
C776 C771 1.390 . S
C776 C775 1.387 . S
H777 C789 0.930 . S
H778 C791 0.930 . S
H779 C792 0.930 . S
H780 C796 0.959 . S
H781 C796 0.959 . S
H782 C796 0.961 . S
H783 C797 0.960 . S
H784 C797 0.961 . S
H785 C797 0.959 . S
H786 C800 0.929 . S
H787 C801 0.931 . S
H788 C803 0.930 . S
C789 H777 0.930 . S
C789 C790 1.399 . S
C789 C794 1.399 . S
C790 C789 1.399 . S
C790 C791 1.376 . S
C791 H778 0.930 . S
C791 C790 1.376 . S
C791 C792 1.388 . S
C792 H779 0.930 . S
C792 C791 1.388 . S
C792 C793 1.390 . S
C793 C792 1.390 . S
C793 C794 1.394 . S
C793 C799 1.465 . S
C794 C789 1.399 . S
C794 C793 1.394 . S
C794 C795 1.516 . S
C795 C794 1.516 . S
C795 C796 1.502 . S
C795 C797 1.561 1_556 S
C795 C798 1.526 . S
C796 H780 0.959 . S
C796 H781 0.959 . S
C796 H782 0.961 . S
C796 C795 1.502 . S
C797 H783 0.960 . S
C797 H784 0.961 . S
C797 H785 0.959 . S
C797 C795 1.561 1_554 S
C798 C795 1.526 . S
C798 C799 1.396 . S
C798 C803 1.390 . S
C799 C793 1.465 . S
C799 C798 1.396 . S
C799 C800 1.399 . S
C800 H786 0.929 . S
C800 C799 1.399 . S
C800 C801 1.385 . S
C801 H787 0.931 . S
C801 C800 1.385 . S
C801 C802 1.389 . S
C802 C801 1.389 . S
C802 C803 1.387 . S
C803 H788 0.930 . S
C803 C798 1.390 . S
C803 C802 1.387 . S
H804 C816 0.930 . S
H805 C818 0.930 . S
H806 C819 0.930 . S
H807 C823 0.959 . S
H808 C823 0.959 . S
H809 C823 0.961 . S
H810 C824 0.960 . S
H811 C824 0.962 1_655 S
H812 C824 0.959 . S
H813 C827 0.929 . S
H814 C828 0.935 . S
H815 C830 0.930 . S
C816 H804 0.930 . S
C816 C817 1.399 . S
C816 C821 1.399 . S
C817 C816 1.399 . S
C817 C818 1.376 1_655 S
C818 H805 0.930 . S
C818 C817 1.376 1_455 S
C818 C819 1.388 . S
C819 H806 0.930 . S
C819 C818 1.388 . S
C819 C820 1.390 . S
C820 C819 1.390 . S
C820 C821 1.394 1_455 S
C820 C826 1.463 1_455 S
C821 C816 1.399 . S
C821 C820 1.394 1_655 S
C821 C822 1.516 . S
C822 C821 1.516 . S
C822 C823 1.502 . S
C822 C824 1.561 1_655 S
C822 C825 1.526 . S
C823 H807 0.959 . S
C823 H808 0.959 . S
C823 H809 0.961 . S
C823 C822 1.502 . S
C824 H810 0.960 . S
C824 H811 0.962 1_455 S
C824 H812 0.959 . S
C824 C822 1.561 1_455 S
C825 C822 1.526 . S
C825 C826 1.406 . S
C825 C830 1.390 . S
C826 C820 1.463 1_655 S
C826 C825 1.406 . S
C826 C827 1.393 1_655 S
C827 H813 0.929 . S
C827 C826 1.393 1_455 S
C827 C828 1.389 . S
C828 H814 0.935 . S
C828 C827 1.389 . S
C828 C829 1.382 1_455 S
C829 C828 1.382 1_655 S
C829 C830 1.387 . S
C830 H815 0.930 . S
C830 C825 1.390 . S
C830 C829 1.387 . S
H831 C843 0.931 . S
H832 C845 0.930 . S
H833 C846 0.930 . S
H834 C850 0.959 . S
H835 C850 0.959 . S
H836 C850 0.961 . S
H837 C851 0.960 . S
H838 C851 0.961 . S
H839 C851 0.959 . S
H840 C854 0.929 . S
H841 C855 0.931 . S
H842 C857 0.930 . S
C843 H831 0.931 . S
C843 C844 1.398 1_545 S
C843 C848 1.398 1_545 S
C844 C843 1.398 1_565 S
C844 C845 1.376 . S
C845 H832 0.930 . S
C845 C844 1.376 . S
C845 C846 1.388 . S
C846 H833 0.930 . S
C846 C845 1.388 . S
C846 C847 1.390 . S
C847 C846 1.390 . S
C847 C848 1.394 . S
C847 C853 1.465 . S
C848 C843 1.398 1_565 S
C848 C847 1.394 . S
C848 C849 1.516 1_565 S
C849 C848 1.516 1_545 S
C849 C850 1.502 1_545 S
C849 C851 1.561 . S
C849 C852 1.526 1_545 S
C850 H834 0.959 . S
C850 H835 0.959 . S
C850 H836 0.961 . S
C850 C849 1.502 1_565 S
C851 H837 0.960 . S
C851 H838 0.961 . S
C851 H839 0.959 . S
C851 C849 1.561 . S
C852 C849 1.526 1_565 S
C852 C853 1.396 . S
C852 C857 1.390 . S
C853 C847 1.465 . S
C853 C852 1.396 . S
C853 C854 1.399 . S
C854 H840 0.929 . S
C854 C853 1.399 . S
C854 C855 1.385 . S
C855 H841 0.931 . S
C855 C854 1.385 . S
C855 C856 1.389 . S
C856 C855 1.389 . S
C856 C857 1.387 . S
C857 H842 0.930 . S
C857 C852 1.390 . S
C857 C856 1.387 . S
H858 C870 0.930 . S
H859 C872 0.930 . S
H860 C873 0.930 . S
H861 C877 0.959 . S
H862 C877 0.959 . S
H863 C877 0.961 . S
H864 C878 0.960 . S
H865 C878 0.961 . S
H866 C878 0.959 . S
H867 C881 0.929 . S
H868 C882 0.931 . S
H869 C884 0.930 . S
C870 H858 0.930 . S
C870 C871 1.399 . S
C870 C875 1.399 . S
C871 C870 1.399 . S
C871 C872 1.376 . S
C872 H859 0.930 . S
C872 C871 1.376 . S
C872 C873 1.388 . S
C873 H860 0.930 . S
C873 C872 1.388 . S
C873 C874 1.390 . S
C874 C873 1.390 . S
C874 C875 1.394 . S
C874 C880 1.465 . S
C875 C870 1.399 . S
C875 C874 1.394 . S
C875 C876 1.516 . S
C876 C875 1.516 . S
C876 C877 1.502 . S
C876 C878 1.561 . S
C876 C879 1.526 . S
C877 H861 0.959 . S
C877 H862 0.959 . S
C877 H863 0.961 . S
C877 C876 1.502 . S
C878 H864 0.960 . S
C878 H865 0.961 . S
C878 H866 0.959 . S
C878 C876 1.561 . S
C879 C876 1.526 . S
C879 C880 1.396 . S
C879 C884 1.390 . S
C880 C874 1.465 . S
C880 C879 1.396 . S
C880 C881 1.399 . S
C881 H867 0.929 . S
C881 C880 1.399 . S
C881 C882 1.385 . S
C882 H868 0.931 . S
C882 C881 1.385 . S
C882 C883 1.389 . S
C883 C882 1.389 . S
C883 C884 1.387 . S
C884 H869 0.930 . S
C884 C879 1.390 . S
C884 C883 1.387 . S
H885 C897 0.930 . S
H886 C899 0.930 . S
H887 C900 0.930 . S
H888 C904 0.959 . S
H889 C904 0.959 . S
H890 C904 0.961 . S
H891 C905 0.960 . S
H892 C905 0.961 . S
H893 C905 0.959 . S
H894 C908 0.929 . S
H895 C909 0.931 . S
H896 C911 0.930 . S
C897 H885 0.930 . S
C897 C898 1.399 . S
C897 C902 1.399 . S
C898 C897 1.399 . S
C898 C899 1.376 . S
C899 H886 0.930 . S
C899 C898 1.376 . S
C899 C900 1.388 . S
C900 H887 0.930 . S
C900 C899 1.388 . S
C900 C901 1.390 . S
C901 C900 1.390 . S
C901 C902 1.394 . S
C901 C907 1.465 . S
C902 C897 1.399 . S
C902 C901 1.394 . S
C902 C903 1.516 . S
C903 C902 1.516 . S
C903 C904 1.502 . S
C903 C905 1.561 . S
C903 C906 1.526 . S
C904 H888 0.959 . S
C904 H889 0.959 . S
C904 H890 0.961 . S
C904 C903 1.502 . S
C905 H891 0.960 . S
C905 H892 0.961 . S
C905 H893 0.959 . S
C905 C903 1.561 . S
C906 C903 1.526 . S
C906 C907 1.396 . S
C906 C911 1.390 . S
C907 C901 1.465 . S
C907 C906 1.396 . S
C907 C908 1.399 . S
C908 H894 0.929 . S
C908 C907 1.399 . S
C908 C909 1.385 . S
C909 H895 0.931 . S
C909 C908 1.385 . S
C909 C910 1.389 . S
C910 C909 1.389 . S
C910 C911 1.387 . S
C911 H896 0.930 . S
C911 C906 1.390 . S
C911 C910 1.387 . S
C277 N80 1.892 . S
C289 C113 1.939 . S
C316 C153 1.948 . S
C304 N93 1.884 . S
C343 C193 1.963 . S
C331 N54 1.917 . S
C370 C233 1.944 . S
C358 N67 1.862 . S
C397 C122 1.936 . S
C385 N28 1.852 1_545 S
C412 N41 1.916 . S
C424 C162 1.974 . S
C439 N2 1.917 . S
C451 C202 1.983 . S
C466 N15 1.904 1_455 S
C478 C242 1.960 1_655 S
C505 C119 0.458 . S
C493 N70 0.486 1_455 S
C532 C159 0.591 . S
C520 N83 0.384 . S
C559 C199 0.466 . S
C547 N96 0.498 . S
C574 N57 0.471 . S
C586 C239 0.483 . S
C601 N18 0.369 1_455 S
C613 C110 0.576 . S
C640 C150 0.413 . S
C628 N31 0.532 . S
C667 C190 0.545 . S
C655 N44 0.408 . S
C682 N5 0.383 . S
C694 C230 0.577 . S
C709 N66 2.200 1_455 S
C721 C123 2.251 . S
C736 N79 2.159 . S
C748 C163 2.216 . S
C775 C203 2.218 . S
C763 N92 2.109 . S
C802 C243 2.228 . S
C790 N53 2.146 . S
C817 N14 2.156 . S
C829 C114 2.257 . S
C856 C154 2.227 . S
C844 N27 2.110 . S
C883 C194 2.225 . S
C871 N40 2.140 . S
C898 N1 2.173 . S
C910 C234 2.233 . S
