# Generated by pormake.
# Topology rtl, (3,6)-cn, num edge types: 1
# Building blocks:
#     Node 0, Type 0, BuildingBlock: KAKCAD_clean_linker_0, # of connection points: 3
#     Node 1, Type 0, BuildingBlock: KAKCAD_clean_linker_0, # of connection points: 3
#     Node 2, Type 0, BuildingBlock: KAKCAD_clean_linker_0, # of connection points: 3
#     Node 3, Type 0, BuildingBlock: KAKCAD_clean_linker_0, # of connection points: 3
#     Node 4, Type 1, BuildingBlock: KUMJIN_clean_sbu_1, # of connection points: 6
#     Node 5, Type 1, BuildingBlock: KUMJIN_clean_sbu_1, # of connection points: 6
#     Edge 6, Type (0, 1), BuildingBlock: OJICUG_clean_linker_0, # of connection points: 2
#     Edge 7, Type (0, 1), BuildingBlock: OJICUG_clean_linker_0, # of connection points: 2
#     Edge 8, Type (0, 1), BuildingBlock: OJICUG_clean_linker_0, # of connection points: 2
#     Edge 9, Type (0, 1), BuildingBlock: OJICUG_clean_linker_0, # of connection points: 2
#     Edge 10, Type (0, 1), BuildingBlock: OJICUG_clean_linker_0, # of connection points: 2
#     Edge 11, Type (0, 1), BuildingBlock: OJICUG_clean_linker_0, # of connection points: 2
#     Edge 12, Type (0, 1), BuildingBlock: OJICUG_clean_linker_0, # of connection points: 2
#     Edge 13, Type (0, 1), BuildingBlock: OJICUG_clean_linker_0, # of connection points: 2
#     Edge 14, Type (0, 1), BuildingBlock: OJICUG_clean_linker_0, # of connection points: 2
#     Edge 15, Type (0, 1), BuildingBlock: OJICUG_clean_linker_0, # of connection points: 2
#     Edge 16, Type (0, 1), BuildingBlock: OJICUG_clean_linker_0, # of connection points: 2
#     Edge 17, Type (0, 1), BuildingBlock: OJICUG_clean_linker_0, # of connection points: 2
# Relax obj value: 0.019
# Max RMSD: 0.114
# Mean RMSD: 0.068
data_MOF--net-rtl--node1-KUMJIN_clean_sbu_1--node2-KAKCAD_clean_linker_0--edge1-OJICUG_clean_linker_0
_symmetry_space_group_name_H-M    P1
_symmetry_Int_Tables_number       1
_symmetry_cell_setting            triclinic
loop_
_symmetry_equiv_pos_as_xyz
'x, y, z'
_cell_length_a     31.241007
_cell_length_b     31.992667
_cell_length_c     28.360685
_cell_angle_alpha  77.327775
_cell_angle_beta   99.61875
_cell_angle_gamma 90.888636
loop_
_atom_site_label
_atom_site_type_symbol
_atom_site_fract_x
_atom_site_fract_y
_atom_site_fract_z
_atom_type_partial_charge
C0 C 0.13897 0.86779 0.84516 0.0
C1 C 0.12561 0.91113 0.83198 0.0
C2 C 0.16024 0.84994 0.89243 0.0
C3 C 0.16938 0.87505 0.92771 0.0
C4 C 0.15653 0.91858 0.91442 0.0
C5 C 0.13481 0.93641 0.8671 0.0
C6 C 0.19157 0.85537 0.97824 0.0
C7 C 0.22429 0.82395 0.9856 0.0
C8 C 0.24284 0.80196 0.03294 0.0
C9 C 0.2296 0.81309 0.07369 0.0
C10 C 0.19769 0.8454 0.06712 0.0
C11 C 0.17878 0.86617 0.01929 0.0
C12 C 0.18205 0.85625 0.10973 0.0
C13 C 0.17116 0.82382 0.14772 0.0
C14 C 0.17523 0.89926 0.11103 0.0
C15 C 0.15651 0.90964 0.14852 0.0
C16 C 0.14386 0.87723 0.18548 0.0
C17 C 0.2749 0.76656 0.03884 0.0
C18 C 0.26807 0.73766 0.00757 0.0
C19 C 0.313 0.76215 0.074 0.0
C20 C 0.34424 0.73039 0.07657 0.0
C21 C 0.33795 0.70265 0.04391 0.0
C22 C 0.29923 0.70624 0.00996 0.0
C23 C 0.15217 0.83419 0.18513 0.0
H24 H 0.1331 0.84752 0.81886 0.0
H25 H 0.16896 0.81615 0.90145 0.0
H26 H 0.16339 0.93896 0.9405 0.0
H27 H 0.12466 0.96982 0.8583 0.0
H28 H 0.23544 0.81645 0.95415 0.0
H29 H 0.1527 0.88953 0.01413 0.0
H30 H 0.24361 0.79627 0.1104 0.0
H31 H 0.17563 0.79038 0.14743 0.0
H32 H 0.18391 0.92495 0.08261 0.0
H33 H 0.15148 0.94312 0.14819 0.0
H34 H 0.23857 0.73946 0.98091 0.0
H35 H 0.31926 0.78402 0.09847 0.0
H36 H 0.14242 0.80838 0.21265 0.0
H37 H 0.29298 0.68465 0.98513 0.0
H38 H 0.37384 0.72834 0.10309 0.0
C39 C 0.62251 0.66503 0.79409 0.0
C40 C 0.6213 0.62037 0.81132 0.0
C41 C 0.6401 0.68236 0.75181 0.0
C42 C 0.6562 0.65538 0.7255 0.0
C43 C 0.65539 0.61078 0.74307 0.0
C44 C 0.63836 0.59349 0.78558 0.0
C45 C 0.67255 0.6734 0.679 0.0
C46 C 0.70208 0.70735 0.67592 0.0
C47 C 0.71859 0.723 0.63228 0.0
C48 C 0.70371 0.70586 0.59114 0.0
C49 C 0.67415 0.67243 0.59339 0.0
C50 C 0.6591 0.65593 0.63755 0.0
C51 C 0.6609 0.65403 0.54968 0.0
C52 C 0.6461 0.68108 0.50379 0.0
C53 C 0.66701 0.61008 0.55259 0.0
C54 C 0.66074 0.59392 0.50995 0.0
C55 C 0.64757 0.62132 0.4638 0.0
C56 C 0.75274 0.75588 0.62905 0.0
C57 C 0.74828 0.79461 0.64362 0.0
C58 C 0.78904 0.74953 0.60792 0.0
C59 C 0.81913 0.78179 0.59936 0.0
C60 C 0.81372 0.82144 0.61154 0.0
C61 C 0.77849 0.82717 0.63486 0.0
C62 C 0.63919 0.66483 0.46131 0.0
H63 H 0.60988 0.68655 0.81333 0.0
H64 H 0.64012 0.71685 0.73903 0.0
H65 H 0.6679 0.58917 0.72384 0.0
H66 H 0.63759 0.55897 0.79766 0.0
H67 H 0.71355 0.72027 0.70792 0.0
H68 H 0.63626 0.62999 0.63932 0.0
H69 H 0.71596 0.71807 0.55724 0.0
H70 H 0.64106 0.71507 0.50066 0.0
H71 H 0.67866 0.58865 0.58753 0.0
H72 H 0.6672 0.56019 0.5129 0.0
H73 H 0.72055 0.80036 0.6599 0.0
H74 H 0.79382 0.71966 0.59723 0.0
H75 H 0.62935 0.68675 0.42625 0.0
H76 H 0.77336 0.85735 0.64466 0.0
H77 H 0.8465 0.77578 0.58265 0.0
C78 C 0.83002 0.09061 0.25104 0.0
C79 C 0.87537 0.09288 0.26293 0.0
C80 C 0.80877 0.10761 0.20331 0.0
C81 C 0.83263 0.1266 0.16663 0.0
C82 C 0.87802 0.12835 0.17854 0.0
C83 C 0.89914 0.1118 0.22621 0.0
C84 C 0.81057 0.14548 0.11616 0.0
C85 C 0.77473 0.17345 0.10807 0.0
C86 C 0.75599 0.19438 0.06025 0.0
C87 C 0.77354 0.18666 0.02021 0.0
C88 C 0.80951 0.1586 0.02786 0.0
C89 C 0.82725 0.13776 0.07595 0.0
C90 C 0.8301 0.15191 0.98641 0.0
C91 C 0.80499 0.14664 0.94215 0.0
C92 C 0.87562 0.14941 0.99174 0.0
C93 C 0.89555 0.14015 0.9547 0.0
C94 C 0.87054 0.1336 0.91111 0.0
C95 C 0.72019 0.22641 0.05304 0.0
C96 C 0.68727 0.21876 0.08201 0.0
C97 C 0.72037 0.26612 0.01984 0.0
C98 C 0.68933 0.29799 0.01703 0.0
C99 C 0.65756 0.29087 0.04749 0.0
C100 C 0.65641 0.25066 0.07937 0.0
C101 C 0.82508 0.13769 0.90472 0.0
H102 H 0.81097 0.0764 0.27884 0.0
H103 H 0.77376 0.10575 0.19499 0.0
H104 H 0.89717 0.14323 0.15111 0.0
H105 H 0.93417 0.11366 0.23436 0.0
H106 H 0.76283 0.18056 0.1393 0.0
H107 H 0.85444 0.11543 0.0823 0.0
H108 H 0.75982 0.20314 0.98328 0.0
H109 H 0.76987 0.14821 0.937 0.0
H110 H 0.89601 0.15448 0.02476 0.0
H111 H 0.93068 0.13817 0.96015 0.0
H112 H 0.68577 0.18825 0.10735 0.0
H113 H 0.74559 0.2733 0.99748 0.0
H114 H 0.80506 0.13275 0.87141 0.0
H115 H 0.63184 0.244 0.10267 0.0
H116 H 0.69129 0.3288 0.99242 0.0
C117 C 0.36147 0.40617 0.30076 0.0
C118 C 0.38252 0.37914 0.27853 0.0
C119 C 0.34485 0.38961 0.34365 0.0
C120 C 0.34845 0.34556 0.36504 0.0
C121 C 0.3682 0.31819 0.34206 0.0
C122 C 0.38544 0.33489 0.29938 0.0
C123 C 0.33371 0.32904 0.41265 0.0
C124 C 0.30582 0.29401 0.41919 0.0
C125 C 0.29078 0.27983 0.46411 0.0
C126 C 0.3042 0.30116 0.50235 0.0
C127 C 0.33273 0.33546 0.49659 0.0
C128 C 0.34734 0.34918 0.45173 0.0
C129 C 0.34703 0.35729 0.53733 0.0
C130 C 0.31644 0.37255 0.56087 0.0
C131 C 0.39135 0.36317 0.55272 0.0
C132 C 0.4049 0.38373 0.5912 0.0
C133 C 0.37434 0.39957 0.61464 0.0
C134 C 0.26045 0.24344 0.47144 0.0
C135 C 0.22525 0.23956 0.4347 0.0
C136 C 0.26525 0.21346 0.51652 0.0
C137 C 0.23477 0.18153 0.5254 0.0
C138 C 0.19879 0.17853 0.48936 0.0
C139 C 0.19478 0.20739 0.44355 0.0
C140 C 0.32989 0.39377 0.59879 0.0
H141 H 0.35903 0.44042 0.28584 0.0
H142 H 0.32954 0.41137 0.36049 0.0
H143 H 0.37154 0.28414 0.35795 0.0
H144 H 0.40127 0.31329 0.28283 0.0
H145 H 0.29562 0.27813 0.38925 0.0
H146 H 0.36914 0.37594 0.44709 0.0
H147 H 0.29241 0.29115 0.53685 0.0
H148 H 0.28202 0.36879 0.54927 0.0
H149 H 0.41559 0.35127 0.53542 0.0
H150 H 0.43939 0.38672 0.60286 0.0
H151 H 0.22034 0.26231 0.39973 0.0
H152 H 0.29248 0.21488 0.54525 0.0
H153 H 0.30527 0.40621 0.61506 0.0
H154 H 0.16726 0.20608 0.41512 0.0
H155 H 0.23928 0.15924 0.56071 0.0
Eu156 Eu 0.03232 0.9565 0.52776 0.0
C157 C 0.92495 0.12504 0.4773 0.0
N158 N 0.96387 0.11702 0.5077 0.0
C159 C 0.99077 0.18377 0.46809 0.0
C160 C 0.91789 0.1627 0.44005 0.0
C161 C 0.99645 0.14581 0.50416 0.0
C162 C 0.9514 0.19217 0.43573 0.0
C163 C 0.85232 0.10189 0.45067 0.0
C164 C 0.89272 0.09459 0.48234 0.0
C165 C 0.84538 0.13914 0.41317 0.0
C166 C 0.87804 0.16945 0.40789 0.0
Eu167 Eu 0.97156 0.05139 0.56584 0.0
N168 N 0.90066 0.05819 0.51831 0.0
C169 C 0.81974 0.07186 0.45811 0.0
C170 C 0.86764 0.03091 0.5282 0.0
C171 C 0.82718 0.03669 0.49763 0.0
H172 H 0.02673 0.13954 0.52942 0.0
H173 H 0.80149 0.01437 0.50513 0.0
H174 H 0.97752 0.86762 0.56178 0.0
H175 H 0.20184 0.99339 0.59111 0.0
H176 H 0.87149 0.00531 0.56034 0.0
H177 H 0.78828 0.07632 0.43461 0.0
H178 H 0.13237 0.00239 0.53485 0.0
H179 H 0.01676 0.20647 0.4652 0.0
H180 H 0.81467 0.145 0.38831 0.0
H181 H 0.87214 0.19805 0.37883 0.0
H182 H 0.98689 0.80041 0.62561 0.0
H183 H 0.94722 0.22147 0.40756 0.0
H184 H 0.21442 0.9313 0.66154 0.0
N185 N 0.0399 0.89032 0.58503 0.0
C186 C 0.07844 0.88231 0.61616 0.0
C187 C 0.01281 0.82324 0.62348 0.0
C188 C 0.08517 0.84452 0.65325 0.0
C189 C 0.00744 0.86135 0.58762 0.0
C190 C 0.05174 0.81488 0.65663 0.0
N191 N 0.10286 0.94941 0.57619 0.0
C192 C 0.13594 0.97677 0.56695 0.0
C193 C 0.15062 0.90561 0.6443 0.0
C194 C 0.11056 0.9129 0.612 0.0
C195 C 0.1832 0.93574 0.63757 0.0
C196 C 0.17611 0.971 0.59809 0.0
H197 H 0.05566 0.78548 0.68464 0.0
H198 H 0.13022 0.80915 0.71515 0.0
H199 H 0.18763 0.86242 0.70708 0.0
O200 O 0.0682 0.95757 0.4675 0.0
O201 O 0.0252 0.9508 0.6073 0.0
O202 O 0.0314 0.01981 0.61694 0.0
O203 O 0.03125 0.90217 0.49259 0.0
O204 O 0.05776 0.02449 0.50765 0.0
O205 O 0.04414 0.05782 0.56848 0.0
O206 O 0.93685 0.05099 0.62689 0.0
O207 O 0.97872 0.05663 0.48645 0.0
O208 O 0.97212 0.98762 0.47703 0.0
O209 O 0.97238 0.10671 0.5992 0.0
O210 O 0.94593 0.98351 0.58623 0.0
O211 O 0.95975 0.94985 0.5257 0.0
C212 C 0.03714 0.97852 0.63445 0.0
C213 C 0.03414 0.92126 0.40819 0.0
C214 C 0.04281 0.91469 0.32606 0.0
C215 C 0.99798 0.92313 0.31038 0.0
C216 C 0.98954 0.92955 0.39173 0.0
C217 C 0.97165 0.93056 0.34303 0.0
C218 C 0.06067 0.91388 0.37532 0.0
C219 C 0.06559 0.05455 0.53316 0.0
C220 C 0.05328 0.92117 0.45926 0.0
C221 C 0.1246 0.83782 0.68616 0.0
C222 C 0.15722 0.86826 0.68169 0.0
C223 C 0.96572 0.02886 0.45973 0.0
C224 C 0.97211 0.08883 0.684 0.0
C225 C 0.9658 0.09601 0.76648 0.0
C226 C 0.01108 0.08955 0.78022 0.0
C227 C 0.01716 0.08246 0.69849 0.0
C228 C 0.94654 0.09547 0.71804 0.0
C229 C 0.03645 0.08271 0.74642 0.0
C230 C 0.93836 0.95315 0.56111 0.0
C231 C 0.95157 0.08786 0.63374 0.0
H232 H 0.98305 0.92337 0.273 0.0
H233 H 0.96851 0.93507 0.41654 0.0
H234 H 0.93721 0.93694 0.33061 0.0
H235 H 0.0952 0.90808 0.38801 0.0
H236 H 0.02707 0.09045 0.81692 0.0
H237 H 0.03744 0.0775 0.67268 0.0
H238 H 0.91169 0.09973 0.70684 0.0
H239 H 0.07123 0.07784 0.75734 0.0
Eu240 Eu 0.4536 0.48656 0.99575 0.0
C241 C 0.63678 0.55271 0.05407 0.0
N242 N 0.62108 0.51438 0.07474 0.0
C243 C 0.6865 0.47842 0.07048 0.0
C244 C 0.67799 0.5551 0.03972 0.0
C245 C 0.64536 0.47758 0.08385 0.0
C246 C 0.70281 0.51731 0.04808 0.0
C247 C 0.62644 0.6296 0.02469 0.0
C248 C 0.61098 0.58947 0.04626 0.0
C249 C 0.66726 0.63203 0.00979 0.0
C250 C 0.69294 0.5949 0.01727 0.0
Eu251 Eu 0.55107 0.51554 0.09498 0.0
N252 N 0.57114 0.58608 0.06026 0.0
C253 C 0.60074 0.66627 0.01948 0.0
C254 C 0.5477 0.62214 0.05877 0.0
C255 C 0.56157 0.66257 0.03739 0.0
H256 H 0.63307 0.44765 0.1018 0.0
H257 H 0.54239 0.69094 0.03554 0.0
H258 H 0.37407 0.56045 0.97424 0.0
H259 H 0.45208 0.31361 0.07315 0.0
H260 H 0.51901 0.62039 0.07534 0.0
H261 H 0.61148 0.69768 0.00315 0.0
H262 H 0.48194 0.38028 0.03175 0.0
H263 H 0.70562 0.44911 0.07751 0.0
H264 H 0.67946 0.66257 0.99287 0.0
H265 H 0.72443 0.59735 0.00576 0.0
H266 H 0.29911 0.56584 0.99009 0.0
H267 H 0.73465 0.51782 0.03759 0.0
H268 H 0.37842 0.31365 0.09414 0.0
N269 N 0.38131 0.49415 0.00687 0.0
C270 C 0.36218 0.45792 0.02786 0.0
C271 C 0.31656 0.53536 1.00116 0.0
C272 C 0.31936 0.45936 0.03725 0.0
C273 C 0.35913 0.5324 0.99279 0.0
C274 C 0.29663 0.49872 0.02369 0.0
N275 N 0.42784 0.41929 0.03321 0.0
C276 C 0.45077 0.38158 0.0426 0.0
C277 C 0.36723 0.38164 0.06421 0.0
C278 C 0.38606 0.41949 0.04145 0.0
C279 C 0.39173 0.3434 0.07664 0.0
C280 C 0.43343 0.34329 0.06517 0.0
H281 H 0.26368 0.50114 0.03031 0.0
H282 H 0.26798 0.42229 0.06794 0.0
H283 H 0.30978 0.35429 0.09136 0.0
O284 O 0.45737 0.45473 0.93567 0.0
O285 O 0.44189 0.48006 0.07415 0.0
O286 O 0.50845 0.46023 0.12144 0.0
O287 O 0.40731 0.50277 0.92747 0.0
O288 O 0.51766 0.44919 0.00915 0.0
O289 O 0.54799 0.44597 0.09014 0.0
O290 O 0.55267 0.54438 0.15856 0.0
O291 O 0.56201 0.51938 0.01657 0.0
O292 O 0.49601 0.54243 0.97036 0.0
O293 O 0.59787 0.49313 0.16187 0.0
O294 O 0.48578 0.55059 0.08331 0.0
O295 O 0.45801 0.55595 1.00141 0.0
C296 C 0.46589 0.46067 0.11542 0.0
C297 C 0.43345 0.49616 0.85615 0.0
C298 C 0.4282 0.49058 0.77076 0.0
C299 C 0.44578 0.53175 0.76003 0.0
C300 C 0.45098 0.537 0.84466 0.0
C301 C 0.45731 0.55456 0.79684 0.0
C302 C 0.42258 0.47293 0.8194 0.0
C303 C 0.54464 0.43185 0.04948 0.0
C304 C 0.42564 0.47758 0.90607 0.0
C305 C 0.30078 0.42176 0.06028 0.0
C306 C 0.32463 0.38304 0.07371 0.0
C307 C 0.53852 0.54064 0.97589 0.0
C308 C 0.62125 0.5445 0.20864 0.0
C309 C 0.65168 0.57384 0.2793 0.0
C310 C 0.68914 0.58488 0.25832 0.0
C311 C 0.65884 0.556 0.1882 0.0
C312 C 0.61759 0.55392 0.25396 0.0
C313 C 0.6925 0.57622 0.21291 0.0
C314 C 0.4598 0.56896 0.04262 0.0
C315 C 0.58623 0.52153 0.18405 0.0
H316 H 0.4499 0.54682 0.72302 0.0
H317 H 0.45929 0.55539 0.87254 0.0
H318 H 0.47068 0.5862 0.78813 0.0
H319 H 0.40984 0.44105 0.82898 0.0
H320 H 0.71567 0.60058 0.27687 0.0
H321 H 0.66247 0.54898 0.15351 0.0
H322 H 0.58872 0.54485 0.27001 0.0
H323 H 0.72141 0.58494 0.19697 0.0
C324 C 0.14994 0.13965 0.54551 0.0
C325 C 0.16488 0.14637 0.50038 0.0
H326 H 0.10701 0.1056 0.59117 0.0
C327 C 0.14696 0.12244 0.46608 0.0
H328 H 0.16266 0.15795 0.57248 0.0
C329 C 0.11499 0.09233 0.47683 0.0
C330 C 0.09997 0.08583 0.5219 0.0
H331 H 0.15799 0.12668 0.43113 0.0
H332 H 0.10179 0.07441 0.44965 0.0
C333 C 0.11781 0.10985 0.55608 0.0
C334 C 0.39208 0.64401 0.08847 0.0
C335 C 0.3716 0.6703 0.04429 0.0
H336 H 0.43587 0.59103 0.12259 0.0
C337 C 0.38237 0.66462 0.99989 0.0
H338 H 0.3843 0.6476 0.12321 0.0
C339 C 0.41195 0.63251 0.9995 0.0
C340 C 0.43108 0.60504 0.04347 0.0
H341 H 0.36773 0.68495 0.96531 0.0
H342 H 0.41929 0.6288 0.96462 0.0
C343 C 0.42152 0.61162 0.08806 0.0
C344 C 0.85957 0.88326 0.63062 0.0
C345 C 0.84415 0.85674 0.59821 0.0
H346 H 0.90162 0.93441 0.64448 0.0
C347 C 0.85859 0.86362 0.55277 0.0
H348 H 0.84928 0.8787 0.66598 0.0
C349 C 0.88852 0.89533 0.54053 0.0
C350 C 0.90485 0.92109 0.57337 0.0
H351 H 0.84666 0.84447 0.52643 0.0
H352 H 0.89907 0.89945 0.50533 0.0
C353 C 0.88964 0.9151 0.61833 0.0
C354 C 0.6069 0.35257 0.00364 0.0
C355 C 0.6271 0.32593 0.04774 0.0
H356 H 0.56474 0.40674 0.96961 0.0
C357 C 0.61909 0.33378 0.09239 0.0
H358 H 0.61222 0.34709 0.96869 0.0
C359 C 0.59198 0.3679 0.09297 0.0
C360 C 0.57215 0.39481 0.0489 0.0
H361 H 0.63459 0.31411 0.12699 0.0
H362 H 0.5868 0.37335 0.12799 0.0
C363 C 0.57952 0.38653 0.00421 0.0
C364 C 0.12734 0.865 0.27147 0.0
C365 C 0.11991 0.88823 0.2225 0.0
H366 H 0.10878 0.85488 0.34243 0.0
C367 C 0.08807 0.92123 0.20853 0.0
H368 H 0.15191 0.83968 0.28363 0.0
C369 C 0.0638 0.93031 0.24233 0.0
C370 C 0.07053 0.9065 0.291 0.0
H371 H 0.08103 0.93947 0.17104 0.0
H372 H 0.03955 0.95593 0.23019 0.0
C373 C 0.10295 0.87405 0.30533 0.0
C374 C 0.62161 0.56703 0.89104 0.0
C375 C 0.60123 0.6016 0.85509 0.0
H376 H 0.61778 0.52073 0.95733 0.0
C377 C 0.5607 0.61693 0.86022 0.0
H378 H 0.65305 0.55478 0.8884 0.0
C379 C 0.5405 0.59741 0.89972 0.0
C380 C 0.56049 0.56231 0.93504 0.0
H381 H 0.54405 0.64332 0.83299 0.0
H382 H 0.50915 0.60975 0.90252 0.0
C383 C 0.60154 0.54772 0.93068 0.0
C384 C 0.92923 0.10129 0.33572 0.0
C385 C 0.89807 0.0763 0.31362 0.0
H386 H 0.97535 0.10555 0.39923 0.0
C387 C 0.88936 0.03535 0.33989 0.0
H388 H 0.93623 0.13314 0.31644 0.0
C389 C 0.9118 0.01954 0.38731 0.0
C390 C 0.94289 0.04465 0.4093 0.0
H391 H 0.86566 0.01538 0.32351 0.0
H392 H 0.9044 0.98798 0.407 0.0
C393 C 0.95138 0.08563 0.38313 0.0
C394 C 0.36561 0.41831 0.69441 0.0
C395 C 0.38868 0.42226 0.65513 0.0
H396 H 0.35894 0.43735 0.76045 0.0
C397 C 0.42533 0.4484 0.6547 0.0
H398 H 0.33767 0.39798 0.69665 0.0
C399 C 0.43848 0.46996 0.6924 0.0
C400 C 0.41499 0.46655 0.73126 0.0
H401 H 0.44368 0.45282 0.62487 0.0
H402 H 0.46725 0.4892 0.69103 0.0
C403 C 0.37835 0.4404 0.73168 0.0
C404 C 0.61135 0.61659 0.37903 0.0
C405 C 0.6463 0.60565 0.41805 0.0
H406 H 0.58542 0.61451 0.30455 0.0
C407 C 0.68184 0.58221 0.41187 0.0
H408 H 0.58352 0.63457 0.38288 0.0
C409 C 0.68313 0.57125 0.36707 0.0
C410 C 0.64867 0.58297 0.32772 0.0
H411 H 0.70942 0.57373 0.44111 0.0
H412 H 0.71137 0.55399 0.36299 0.0
C413 C 0.61235 0.60499 0.33438 0.0
C414 C 0.88162 0.1433 0.8237 0.0
C415 C 0.89237 0.12198 0.87309 0.0
H416 H 0.89695 0.15251 0.75135 0.0
C417 C 0.92562 0.09045 0.88662 0.0
H418 H 0.85628 0.16792 0.81237 0.0
C419 C 0.94858 0.0813 0.8518 0.0
C420 C 0.93908 0.1037 0.80264 0.0
H421 H 0.93404 0.07295 0.92432 0.0
H422 H 0.97397 0.05676 0.86352 0.0
C423 C 0.90487 0.13438 0.78881 0.0
C424 C 0.38048 0.42889 0.19631 0.0
C425 C 0.40286 0.39767 0.23501 0.0
H426 H 0.38288 0.47338 0.12849 0.0
C427 C 0.44574 0.38624 0.23324 0.0
H428 H 0.34731 0.43813 0.1965 0.0
C429 C 0.46622 0.40653 0.19429 0.0
C430 C 0.44406 0.4383 0.15606 0.0
H431 H 0.46392 0.36255 0.26274 0.0
H432 H 0.49948 0.39746 0.19425 0.0
C433 C 0.4008 0.44889 0.15723 0.0
C434 C 0.07105 0.9049 0.75832 0.0
C435 C 0.10179 0.92945 0.78189 0.0
H436 H 0.02626 0.90145 0.69352 0.0
C437 C 0.10993 0.97114 0.75692 0.0
H438 H 0.06326 0.87303 0.77674 0.0
C439 C 0.08833 0.98755 0.70921 0.0
C440 C 0.05837 0.9625 0.68558 0.0
H441 H 0.13375 0.99074 0.77373 0.0
H442 H 0.09596 0.01933 0.69037 0.0
C443 C 0.04968 0.92121 0.7107 0.0
loop_
_geom_bond_atom_site_label_1
_geom_bond_atom_site_label_2
_geom_bond_distance
_geom_bond_site_symmetry_2
_ccdc_geom_bond_type
C0 C1 1.386 . S
C0 C2 1.397 . S
C0 H24 0.931 . S
C1 C0 1.386 . S
C1 C5 1.397 . S
C2 C0 1.397 . S
C2 C3 1.384 . S
C2 H25 0.930 . S
C3 C2 1.384 . S
C3 C4 1.377 . S
C3 C6 1.481 . S
C4 C3 1.377 . S
C4 C5 1.389 . S
C4 H26 0.929 . S
C5 C1 1.397 . S
C5 C4 1.389 . S
C5 H27 0.931 1_565 S
C6 C3 1.481 . S
C6 C7 1.387 . S
C6 C11 1.390 1_556 S
C7 C6 1.387 . S
C7 C8 1.401 1_556 S
C7 H28 0.930 . S
C8 C7 1.401 1_554 S
C8 C9 1.376 . S
C8 C17 1.511 . S
C9 C8 1.376 . S
C9 C10 1.392 . S
C9 H30 0.931 . S
C10 C9 1.392 . S
C10 C11 1.361 . S
C10 C12 1.500 . S
C11 C6 1.390 1_554 S
C11 C10 1.361 . S
C11 H29 0.931 . S
C12 C10 1.500 . S
C12 C13 1.371 . S
C12 C14 1.365 . S
C13 C12 1.371 . S
C13 C23 1.386 . S
C13 H31 0.931 . S
C14 C12 1.365 . S
C14 C15 1.409 . S
C14 H32 0.929 . S
C15 C14 1.409 . S
C15 C16 1.380 . S
C15 H33 0.930 . S
C16 C15 1.380 . S
C16 C23 1.357 . S
C17 C8 1.511 . S
C17 C18 1.341 1_554 S
C17 C19 1.371 . S
C18 C17 1.341 1_556 S
C18 C22 1.394 1_556 S
C18 H34 0.930 . S
C19 C17 1.371 . S
C19 C20 1.392 . S
C19 H35 0.931 . S
C20 C19 1.392 . S
C20 C21 1.331 . S
C20 H38 0.932 . S
C21 C20 1.331 . S
C21 C22 1.336 . S
C22 C18 1.394 1_554 S
C22 C21 1.336 . S
C22 H37 0.929 1_554 S
C23 C13 1.386 . S
C23 C16 1.357 . S
C23 H36 0.928 . S
H24 C0 0.931 . S
H25 C2 0.930 . S
H26 C4 0.929 . S
H27 C5 0.931 1_545 S
H28 C7 0.930 . S
H29 C11 0.931 . S
H30 C9 0.931 . S
H31 C13 0.931 . S
H32 C14 0.929 . S
H33 C15 0.930 . S
H34 C18 0.930 . S
H35 C19 0.931 . S
H36 C23 0.928 . S
H37 C22 0.929 1_556 S
H38 C20 0.932 . S
C39 C40 1.386 . S
C39 C41 1.397 . S
C39 H63 0.931 . S
C40 C39 1.386 . S
C40 C44 1.397 . S
C41 C39 1.397 . S
C41 C42 1.384 . S
C41 H64 0.930 . S
C42 C41 1.384 . S
C42 C43 1.377 . S
C42 C45 1.481 . S
C43 C42 1.377 . S
C43 C44 1.389 . S
C43 H65 0.929 . S
C44 C40 1.397 . S
C44 C43 1.389 . S
C44 H66 0.931 . S
C45 C42 1.481 . S
C45 C46 1.387 . S
C45 C50 1.390 . S
C46 C45 1.387 . S
C46 C47 1.401 . S
C46 H67 0.930 . S
C47 C46 1.401 . S
C47 C48 1.376 . S
C47 C56 1.511 . S
C48 C47 1.376 . S
C48 C49 1.392 . S
C48 H69 0.931 . S
C49 C48 1.392 . S
C49 C50 1.361 . S
C49 C51 1.500 . S
C50 C45 1.390 . S
C50 C49 1.361 . S
C50 H68 0.931 . S
C51 C49 1.500 . S
C51 C52 1.371 . S
C51 C53 1.365 . S
C52 C51 1.371 . S
C52 C62 1.386 . S
C52 H70 0.931 . S
C53 C51 1.365 . S
C53 C54 1.409 . S
C53 H71 0.929 . S
C54 C53 1.409 . S
C54 C55 1.380 . S
C54 H72 0.930 . S
C55 C54 1.380 . S
C55 C62 1.357 . S
C56 C47 1.511 . S
C56 C57 1.341 . S
C56 C58 1.371 . S
C57 C56 1.341 . S
C57 C61 1.394 . S
C57 H73 0.930 . S
C58 C56 1.371 . S
C58 C59 1.392 . S
C58 H74 0.931 . S
C59 C58 1.392 . S
C59 C60 1.331 . S
C59 H77 0.932 . S
C60 C59 1.331 . S
C60 C61 1.336 . S
C61 C57 1.394 . S
C61 C60 1.336 . S
C61 H76 0.929 . S
C62 C52 1.386 . S
C62 C55 1.357 . S
C62 H75 0.928 . S
H63 C39 0.931 . S
H64 C41 0.930 . S
H65 C43 0.929 . S
H66 C44 0.931 . S
H67 C46 0.930 . S
H68 C50 0.931 . S
H69 C48 0.931 . S
H70 C52 0.931 . S
H71 C53 0.929 . S
H72 C54 0.930 . S
H73 C57 0.930 . S
H74 C58 0.931 . S
H75 C62 0.928 . S
H76 C61 0.929 . S
H77 C59 0.932 . S
C78 C79 1.386 . S
C78 C80 1.397 . S
C78 H102 0.931 . S
C79 C78 1.386 . S
C79 C83 1.397 . S
C80 C78 1.397 . S
C80 C81 1.384 . S
C80 H103 0.930 . S
C81 C80 1.384 . S
C81 C82 1.377 . S
C81 C84 1.481 . S
C82 C81 1.377 . S
C82 C83 1.389 . S
C82 H104 0.929 . S
C83 C79 1.397 . S
C83 C82 1.389 . S
C83 H105 0.931 . S
C84 C81 1.481 . S
C84 C85 1.387 . S
C84 C89 1.390 . S
C85 C84 1.387 . S
C85 C86 1.401 . S
C85 H106 0.930 . S
C86 C85 1.401 . S
C86 C87 1.376 . S
C86 C95 1.511 . S
C87 C86 1.376 . S
C87 C88 1.392 . S
C87 H108 0.931 1_554 S
C88 C87 1.392 . S
C88 C89 1.361 . S
C88 C90 1.500 1_554 S
C89 C84 1.390 . S
C89 C88 1.361 . S
C89 H107 0.931 . S
C90 C88 1.500 1_556 S
C90 C91 1.371 . S
C90 C92 1.365 . S
C91 C90 1.371 . S
C91 C101 1.386 . S
C91 H109 0.931 . S
C92 C90 1.365 . S
C92 C93 1.409 . S
C92 H110 0.929 1_556 S
C93 C92 1.409 . S
C93 C94 1.380 . S
C93 H111 0.930 . S
C94 C93 1.380 . S
C94 C101 1.357 . S
C95 C86 1.511 . S
C95 C96 1.341 . S
C95 C97 1.371 . S
C96 C95 1.341 . S
C96 C100 1.394 . S
C96 H112 0.930 . S
C97 C95 1.371 . S
C97 C98 1.391 . S
C97 H113 0.931 1_554 S
C98 C97 1.391 . S
C98 C99 1.337 . S
C98 H116 0.926 1_554 S
C99 C98 1.337 . S
C99 C100 1.336 . S
C100 C96 1.394 . S
C100 C99 1.336 . S
C100 H115 0.929 . S
C101 C91 1.386 . S
C101 C94 1.357 . S
C101 H114 0.928 . S
H102 C78 0.931 . S
H103 C80 0.930 . S
H104 C82 0.929 . S
H105 C83 0.931 . S
H106 C85 0.930 . S
H107 C89 0.931 . S
H108 C87 0.931 1_556 S
H109 C91 0.931 . S
H110 C92 0.929 1_554 S
H111 C93 0.930 . S
H112 C96 0.930 . S
H113 C97 0.931 1_556 S
H114 C101 0.928 . S
H115 C100 0.929 . S
H116 C98 0.926 1_556 S
C117 C118 1.386 . S
C117 C119 1.397 . S
C117 H141 0.931 . S
C118 C117 1.386 . S
C118 C122 1.397 . S
C119 C117 1.397 . S
C119 C120 1.384 . S
C119 H142 0.930 . S
C120 C119 1.384 . S
C120 C121 1.377 . S
C120 C123 1.481 . S
C121 C120 1.377 . S
C121 C122 1.389 . S
C121 H143 0.929 . S
C122 C118 1.397 . S
C122 C121 1.389 . S
C122 H144 0.931 . S
C123 C120 1.481 . S
C123 C124 1.387 . S
C123 C128 1.390 . S
C124 C123 1.387 . S
C124 C125 1.401 . S
C124 H145 0.930 . S
C125 C124 1.401 . S
C125 C126 1.376 . S
C125 C134 1.511 . S
C126 C125 1.376 . S
C126 C127 1.392 . S
C126 H147 0.931 . S
C127 C126 1.392 . S
C127 C128 1.361 . S
C127 C129 1.500 . S
C128 C123 1.390 . S
C128 C127 1.361 . S
C128 H146 0.931 . S
C129 C127 1.500 . S
C129 C130 1.371 . S
C129 C131 1.365 . S
C130 C129 1.371 . S
C130 C140 1.386 . S
C130 H148 0.931 . S
C131 C129 1.365 . S
C131 C132 1.409 . S
C131 H149 0.929 . S
C132 C131 1.409 . S
C132 C133 1.380 . S
C132 H150 0.930 . S
C133 C132 1.380 . S
C133 C140 1.357 . S
C134 C125 1.511 . S
C134 C135 1.341 . S
C134 C136 1.371 . S
C135 C134 1.341 . S
C135 C139 1.394 . S
C135 H151 0.930 . S
C136 C134 1.371 . S
C136 C137 1.392 . S
C136 H152 0.931 . S
C137 C136 1.392 . S
C137 C138 1.331 . S
C137 H155 0.932 . S
C138 C137 1.331 . S
C138 C139 1.336 . S
C139 C135 1.394 . S
C139 C138 1.336 . S
C139 H154 0.929 . S
C140 C130 1.386 . S
C140 C133 1.357 . S
C140 H153 0.928 . S
H141 C117 0.931 . S
H142 C119 0.930 . S
H143 C121 0.929 . S
H144 C122 0.931 . S
H145 C124 0.930 . S
H146 C128 0.931 . S
H147 C126 0.931 . S
H148 C130 0.931 . S
H149 C131 0.929 . S
H150 C132 0.930 . S
H151 C135 0.930 . S
H152 C136 0.931 . S
H153 C140 0.928 . S
H154 C139 0.929 . S
H155 C137 0.932 . S
Eu156 N185 2.600 . S
Eu156 N191 2.562 . S
Eu156 O200 2.462 . S
Eu156 O201 2.373 . S
Eu156 O203 2.432 . S
Eu156 O204 2.291 1_565 S
Eu156 O208 2.335 1_465 S
Eu156 O211 2.372 1_455 S
Eu156 C220 2.787 . S
C157 N158 1.365 . S
C157 C160 1.405 . S
C157 C164 1.448 . S
N158 C157 1.365 . S
N158 C161 1.319 . S
N158 Eu167 2.600 . S
C159 C161 1.397 . S
C159 C162 1.367 . S
C159 H179 0.931 1_655 S
C160 C157 1.405 . S
C160 C162 1.403 . S
C160 C166 1.439 . S
C161 N158 1.319 . S
C161 C159 1.397 . S
C161 H172 0.930 1_655 S
C162 C159 1.367 . S
C162 C160 1.403 . S
C162 H183 0.929 . S
C163 C164 1.430 . S
C163 C165 1.387 . S
C163 C169 1.404 . S
C164 C157 1.448 . S
C164 C163 1.430 . S
C164 N168 1.351 . S
C165 C163 1.387 . S
C165 C166 1.374 . S
C165 H180 0.931 . S
C166 C160 1.439 . S
C166 C165 1.374 . S
C166 H181 0.931 . S
Eu167 N158 2.600 . S
Eu167 N168 2.562 . S
Eu167 O202 2.335 1_655 S
Eu167 O205 2.372 1_655 S
Eu167 O206 2.462 . S
Eu167 O207 2.373 . S
Eu167 O209 2.432 . S
Eu167 O210 2.291 1_545 S
Eu167 C231 2.787 . S
N168 C164 1.351 . S
N168 Eu167 2.562 . S
N168 C170 1.325 . S
C169 C163 1.404 . S
C169 C171 1.366 . S
C169 H177 0.930 . S
C170 N168 1.325 . S
C170 C171 1.416 . S
C170 H176 0.929 . S
C171 C169 1.366 . S
C171 C170 1.416 . S
C171 H173 0.930 . S
H172 C161 0.930 1_455 S
H173 C171 0.930 . S
H174 C189 0.930 1_655 S
H175 C196 0.930 . S
H176 C170 0.929 . S
H177 C169 0.930 . S
H178 C192 0.929 . S
H179 C159 0.931 1_455 S
H180 C165 0.931 . S
H181 C166 0.931 . S
H182 C187 0.931 1_655 S
H183 C162 0.929 . S
H184 C195 0.930 . S
N185 Eu156 2.600 . S
N185 C186 1.365 . S
N185 C189 1.319 . S
C186 N185 1.365 . S
C186 C188 1.405 . S
C186 C194 1.448 . S
C187 H182 0.931 1_455 S
C187 C189 1.397 . S
C187 C190 1.367 . S
C188 C186 1.405 . S
C188 C190 1.403 . S
C188 C221 1.439 . S
C189 H174 0.930 1_455 S
C189 N185 1.319 . S
C189 C187 1.397 . S
C190 C187 1.367 . S
C190 C188 1.403 . S
C190 H197 0.929 . S
N191 Eu156 2.562 . S
N191 C192 1.325 . S
N191 C194 1.351 . S
C192 H178 0.929 . S
C192 N191 1.325 . S
C192 C196 1.416 . S
C193 C194 1.430 . S
C193 C195 1.404 . S
C193 C222 1.387 . S
C194 C186 1.448 . S
C194 N191 1.351 . S
C194 C193 1.430 . S
C195 H184 0.930 . S
C195 C193 1.404 . S
C195 C196 1.366 . S
C196 H175 0.930 . S
C196 C192 1.416 . S
C196 C195 1.366 . S
H197 C190 0.929 . S
H198 C221 0.931 . S
H199 C222 0.931 . S
O200 Eu156 2.462 . S
O200 C220 1.252 . S
O201 Eu156 2.373 . S
O201 C212 1.249 . S
O202 Eu167 2.335 1_455 S
O202 C212 1.264 1_545 S
O203 Eu156 2.432 . S
O203 C220 1.268 . S
O204 Eu156 2.291 1_545 S
O204 C219 1.255 . S
O205 Eu167 2.372 1_455 S
O205 C219 1.257 . S
O206 Eu167 2.462 . S
O206 C231 1.252 . S
O207 Eu167 2.373 . S
O207 C223 1.249 . S
O208 Eu156 2.335 1_645 S
O208 C223 1.264 . S
O209 Eu167 2.432 . S
O209 C231 1.268 . S
O210 Eu167 2.291 1_565 S
O210 C230 1.255 . S
O211 Eu156 2.372 1_655 S
O211 C230 1.257 . S
C212 O201 1.249 . S
C212 O202 1.264 1_565 S
C213 C216 1.382 . S
C213 C218 1.390 . S
C213 C220 1.506 . S
C214 C215 1.398 . S
C214 C218 1.392 . S
C215 C214 1.398 . S
C215 C217 1.372 . S
C215 H232 0.931 . S
C216 C213 1.382 . S
C216 C217 1.390 . S
C216 H233 0.931 . S
C217 C215 1.372 . S
C217 C216 1.390 . S
C217 H234 0.929 . S
C218 C213 1.390 . S
C218 C214 1.392 . S
C218 H235 0.930 . S
C219 O204 1.255 . S
C219 O205 1.257 . S
C220 Eu156 2.787 . S
C220 O200 1.252 . S
C220 O203 1.268 . S
C220 C213 1.506 . S
C221 C188 1.439 . S
C221 H198 0.931 . S
C221 C222 1.374 . S
C222 C193 1.387 . S
C222 H199 0.931 . S
C222 C221 1.374 . S
C223 O207 1.249 . S
C223 O208 1.264 . S
C224 C227 1.382 . S
C224 C228 1.390 . S
C224 C231 1.506 . S
C225 C226 1.398 . S
C225 C228 1.392 . S
C226 C225 1.398 . S
C226 C229 1.372 . S
C226 H236 0.931 . S
C227 C224 1.382 . S
C227 C229 1.390 . S
C227 H237 0.931 . S
C228 C224 1.390 . S
C228 C225 1.392 . S
C228 H238 0.930 . S
C229 C226 1.372 . S
C229 C227 1.390 . S
C229 H239 0.929 . S
C230 O210 1.255 . S
C230 O211 1.257 . S
C231 Eu167 2.787 . S
C231 O206 1.252 . S
C231 O209 1.268 . S
C231 C224 1.506 . S
H232 C215 0.931 . S
H233 C216 0.931 . S
H234 C217 0.929 . S
H235 C218 0.930 . S
H236 C226 0.931 . S
H237 C227 0.931 . S
H238 C228 0.930 . S
H239 C229 0.929 . S
Eu240 N269 2.600 1_556 S
Eu240 N275 2.562 1_556 S
Eu240 O284 2.462 . S
Eu240 O285 2.373 1_556 S
Eu240 O287 2.432 . S
Eu240 O288 2.291 1_556 S
Eu240 O292 2.335 . S
Eu240 O295 2.372 1_556 S
Eu240 C304 2.787 . S
C241 N242 1.365 . S
C241 C244 1.405 . S
C241 C248 1.448 . S
N242 C241 1.365 . S
N242 C245 1.319 . S
N242 Eu251 2.600 . S
C243 C245 1.397 . S
C243 C246 1.367 . S
C243 H263 0.931 . S
C244 C241 1.405 . S
C244 C246 1.403 . S
C244 C250 1.439 . S
C245 N242 1.319 . S
C245 C243 1.397 . S
C245 H256 0.930 . S
C246 C243 1.367 . S
C246 C244 1.403 . S
C246 H267 0.929 . S
C247 C248 1.430 . S
C247 C249 1.387 . S
C247 C253 1.404 . S
C248 C241 1.448 . S
C248 C247 1.430 . S
C248 N252 1.351 . S
C249 C247 1.387 . S
C249 C250 1.374 . S
C249 H264 0.931 . S
C250 C244 1.439 . S
C250 C249 1.374 . S
C250 H265 0.931 . S
Eu251 N242 2.600 . S
Eu251 N252 2.562 . S
Eu251 O286 2.335 . S
Eu251 O289 2.372 . S
Eu251 O290 2.462 . S
Eu251 O291 2.373 . S
Eu251 O293 2.432 . S
Eu251 O294 2.291 . S
Eu251 C315 2.787 . S
N252 C248 1.351 . S
N252 Eu251 2.562 . S
N252 C254 1.325 . S
C253 C247 1.404 . S
C253 C255 1.366 . S
C253 H261 0.930 . S
C254 N252 1.325 . S
C254 C255 1.416 . S
C254 H260 0.929 . S
C255 C253 1.366 . S
C255 C254 1.416 . S
C255 H257 0.930 . S
H256 C245 0.930 . S
H257 C255 0.930 . S
H258 C273 0.930 . S
H259 C280 0.930 . S
H260 C254 0.929 . S
H261 C253 0.930 . S
H262 C276 0.929 . S
H263 C243 0.931 . S
H264 C249 0.931 . S
H265 C250 0.931 . S
H266 C271 0.931 . S
H267 C246 0.929 . S
H268 C279 0.930 . S
N269 Eu240 2.600 1_554 S
N269 C270 1.365 . S
N269 C273 1.319 1_554 S
C270 N269 1.365 . S
C270 C272 1.405 . S
C270 C278 1.448 . S
C271 H266 0.931 . S
C271 C273 1.397 . S
C271 C274 1.367 1_556 S
C272 C270 1.405 . S
C272 C274 1.403 . S
C272 C305 1.439 . S
C273 H258 0.930 . S
C273 N269 1.319 1_556 S
C273 C271 1.397 . S
C274 C271 1.367 1_554 S
C274 C272 1.403 . S
C274 H281 0.929 . S
N275 Eu240 2.562 1_554 S
N275 C276 1.325 . S
N275 C278 1.351 . S
C276 H262 0.929 . S
C276 N275 1.325 . S
C276 C280 1.416 . S
C277 C278 1.430 . S
C277 C279 1.404 . S
C277 C306 1.387 . S
C278 C270 1.448 . S
C278 N275 1.351 . S
C278 C277 1.430 . S
C279 H268 0.930 . S
C279 C277 1.404 . S
C279 C280 1.366 . S
C280 H259 0.930 . S
C280 C276 1.416 . S
C280 C279 1.366 . S
H281 C274 0.929 . S
H282 C305 0.931 . S
H283 C306 0.931 . S
O284 Eu240 2.462 . S
O284 C304 1.252 . S
O285 Eu240 2.373 1_554 S
O285 C296 1.249 . S
O286 Eu251 2.335 . S
O286 C296 1.264 . S
O287 Eu240 2.432 . S
O287 C304 1.268 . S
O288 Eu240 2.291 1_554 S
O288 C303 1.255 . S
O289 Eu251 2.372 . S
O289 C303 1.257 . S
O290 Eu251 2.462 . S
O290 C315 1.252 . S
O291 Eu251 2.373 . S
O291 C307 1.249 1_554 S
O292 Eu240 2.335 . S
O292 C307 1.264 . S
O293 Eu251 2.432 . S
O293 C315 1.268 . S
O294 Eu251 2.291 . S
O294 C314 1.255 . S
O295 Eu240 2.372 1_554 S
O295 C314 1.257 . S
C296 O285 1.249 . S
C296 O286 1.264 . S
C297 C300 1.382 . S
C297 C302 1.390 . S
C297 C304 1.506 . S
C298 C299 1.398 . S
C298 C302 1.392 . S
C299 C298 1.398 . S
C299 C301 1.372 . S
C299 H316 0.931 . S
C300 C297 1.382 . S
C300 C301 1.390 . S
C300 H317 0.931 . S
C301 C299 1.372 . S
C301 C300 1.390 . S
C301 H318 0.929 . S
C302 C297 1.390 . S
C302 C298 1.392 . S
C302 H319 0.930 . S
C303 O288 1.255 . S
C303 O289 1.257 . S
C304 Eu240 2.787 . S
C304 O284 1.252 . S
C304 O287 1.268 . S
C304 C297 1.506 . S
C305 C272 1.439 . S
C305 H282 0.931 . S
C305 C306 1.374 . S
C306 C277 1.387 . S
C306 H283 0.931 . S
C306 C305 1.374 . S
C307 O291 1.249 1_556 S
C307 O292 1.264 . S
C308 C311 1.382 . S
C308 C312 1.390 . S
C308 C315 1.506 . S
C309 C310 1.398 . S
C309 C312 1.392 . S
C310 C309 1.398 . S
C310 C313 1.372 . S
C310 H320 0.931 . S
C311 C308 1.382 . S
C311 C313 1.390 . S
C311 H321 0.931 . S
C312 C308 1.390 . S
C312 C309 1.392 . S
C312 H322 0.930 . S
C313 C310 1.372 . S
C313 C311 1.390 . S
C313 H323 0.929 . S
C314 O294 1.255 . S
C314 O295 1.257 . S
C315 Eu251 2.787 . S
C315 O290 1.252 . S
C315 O293 1.268 . S
C315 C308 1.506 . S
H316 C299 0.931 . S
H317 C300 0.931 . S
H318 C301 0.929 . S
H319 C302 0.930 . S
H320 C310 0.931 . S
H321 C311 0.931 . S
H322 C312 0.930 . S
H323 C313 0.929 . S
C324 C325 1.387 . S
C324 H328 0.950 . S
C324 C333 1.390 . S
C325 C324 1.387 . S
C325 C327 1.387 . S
H326 C333 0.950 . S
C327 C325 1.387 . S
C327 C329 1.390 . S
C327 H331 0.950 . S
H328 C324 0.950 . S
C329 C327 1.390 . S
C329 C330 1.387 . S
C329 H332 0.950 . S
C330 C329 1.387 . S
C330 C333 1.387 . S
H331 C327 0.950 . S
H332 C329 0.950 . S
C333 C324 1.390 . S
C333 H326 0.950 . S
C333 C330 1.387 . S
C334 C335 1.387 . S
C334 H338 0.950 . S
C334 C343 1.390 . S
C335 C334 1.387 . S
C335 C337 1.387 . S
H336 C343 0.950 . S
C337 C335 1.387 . S
C337 C339 1.390 1_554 S
C337 H341 0.950 1_554 S
H338 C334 0.950 . S
C339 C337 1.390 1_556 S
C339 C340 1.388 1_556 S
C339 H342 0.949 . S
C340 C339 1.388 1_554 S
C340 C343 1.387 . S
H341 C337 0.950 1_556 S
H342 C339 0.949 . S
C343 C334 1.390 . S
C343 H336 0.950 . S
C343 C340 1.387 . S
C344 C345 1.387 . S
C344 H348 0.950 . S
C344 C353 1.390 . S
C345 C344 1.387 . S
C345 C347 1.387 . S
H346 C353 0.950 . S
C347 C345 1.387 . S
C347 C349 1.390 . S
C347 H351 0.950 . S
H348 C344 0.950 . S
C349 C347 1.390 . S
C349 C350 1.387 . S
C349 H352 0.950 . S
C350 C349 1.387 . S
C350 C353 1.387 . S
H351 C347 0.950 . S
H352 C349 0.950 . S
C353 C344 1.390 . S
C353 H346 0.950 . S
C353 C350 1.387 . S
C354 C355 1.387 1_556 S
C354 H358 0.950 . S
C354 C363 1.390 . S
C355 C354 1.387 1_554 S
C355 C357 1.387 . S
H356 C363 0.950 . S
C357 C355 1.387 . S
C357 C359 1.390 . S
C357 H361 0.950 . S
H358 C354 0.950 . S
C359 C357 1.390 . S
C359 C360 1.387 . S
C359 H362 0.950 . S
C360 C359 1.387 . S
C360 C363 1.387 1_554 S
H361 C357 0.950 . S
H362 C359 0.950 . S
C363 C354 1.390 . S
C363 H356 0.950 . S
C363 C360 1.387 1_556 S
C364 C365 1.387 . S
C364 H368 0.950 . S
C364 C373 1.390 . S
C365 C364 1.387 . S
C365 C367 1.387 . S
H366 C373 0.950 . S
C367 C365 1.387 . S
C367 C369 1.390 . S
C367 H371 0.950 . S
H368 C364 0.950 . S
C369 C367 1.390 . S
C369 C370 1.387 . S
C369 H372 0.950 . S
C370 C369 1.387 . S
C370 C373 1.387 . S
H371 C367 0.950 . S
H372 C369 0.950 . S
C373 C364 1.390 . S
C373 H366 0.950 . S
C373 C370 1.387 . S
C374 C375 1.387 . S
C374 H378 0.950 . S
C374 C383 1.390 . S
C375 C374 1.387 . S
C375 C377 1.387 . S
H376 C383 0.950 . S
C377 C375 1.387 . S
C377 C379 1.390 . S
C377 H381 0.950 . S
H378 C374 0.950 . S
C379 C377 1.390 . S
C379 C380 1.387 . S
C379 H382 0.950 . S
C380 C379 1.387 . S
C380 C383 1.387 . S
H381 C377 0.950 . S
H382 C379 0.950 . S
C383 C374 1.390 . S
C383 H376 0.950 . S
C383 C380 1.387 . S
C384 C385 1.387 . S
C384 H388 0.950 . S
C384 C393 1.390 . S
C385 C384 1.387 . S
C385 C387 1.387 . S
H386 C393 0.950 . S
C387 C385 1.387 . S
C387 C389 1.390 . S
C387 H391 0.950 1_545 S
H388 C384 0.950 . S
C389 C387 1.390 . S
C389 C390 1.387 . S
C389 H392 0.950 1_545 S
C390 C389 1.387 . S
C390 C393 1.387 . S
H391 C387 0.950 1_565 S
H392 C389 0.950 1_565 S
C393 C384 1.390 . S
C393 H386 0.950 . S
C393 C390 1.387 . S
C394 C395 1.387 . S
C394 H398 0.950 . S
C394 C403 1.390 . S
C395 C394 1.387 . S
C395 C397 1.387 . S
H396 C403 0.950 . S
C397 C395 1.387 . S
C397 C399 1.390 . S
C397 H401 0.950 . S
H398 C394 0.950 . S
C399 C397 1.390 . S
C399 C400 1.387 . S
C399 H402 0.950 . S
C400 C399 1.387 . S
C400 C403 1.387 . S
H401 C397 0.950 . S
H402 C399 0.950 . S
C403 C394 1.390 . S
C403 H396 0.950 . S
C403 C400 1.387 . S
C404 C405 1.387 . S
C404 H408 0.950 . S
C404 C413 1.390 . S
C405 C404 1.387 . S
C405 C407 1.387 . S
H406 C413 0.950 . S
C407 C405 1.387 . S
C407 C409 1.390 . S
C407 H411 0.950 . S
H408 C404 0.950 . S
C409 C407 1.390 . S
C409 C410 1.387 . S
C409 H412 0.950 . S
C410 C409 1.387 . S
C410 C413 1.387 . S
H411 C407 0.950 . S
H412 C409 0.950 . S
C413 C404 1.390 . S
C413 H406 0.950 . S
C413 C410 1.387 . S
C414 C415 1.387 . S
C414 H418 0.950 . S
C414 C423 1.390 . S
C415 C414 1.387 . S
C415 C417 1.387 . S
H416 C423 0.950 . S
C417 C415 1.387 . S
C417 C419 1.390 . S
C417 H421 0.950 . S
H418 C414 0.950 . S
C419 C417 1.390 . S
C419 C420 1.387 . S
C419 H422 0.937 1_545 S
C420 C419 1.387 . S
C420 C423 1.387 . S
H421 C417 0.950 . S
H422 C419 0.937 1_565 S
C423 C414 1.390 . S
C423 H416 0.950 . S
C423 C420 1.387 . S
C424 C425 1.387 . S
C424 H428 0.950 . S
C424 C433 1.390 . S
C425 C424 1.387 . S
C425 C427 1.387 . S
H426 C433 0.950 . S
C427 C425 1.387 . S
C427 C429 1.390 . S
C427 H431 0.950 . S
H428 C424 0.950 . S
C429 C427 1.390 . S
C429 C430 1.387 . S
C429 H432 0.950 . S
C430 C429 1.387 . S
C430 C433 1.387 . S
H431 C427 0.950 . S
H432 C429 0.950 . S
C433 C424 1.390 . S
C433 H426 0.950 . S
C433 C430 1.387 . S
C434 C435 1.387 . S
C434 H438 0.950 . S
C434 C443 1.390 . S
C435 C434 1.387 . S
C435 C437 1.387 1_565 S
H436 C443 0.950 . S
C437 C435 1.387 1_545 S
C437 C439 1.390 . S
C437 H441 0.950 . S
H438 C434 0.950 . S
C439 C437 1.390 . S
C439 C440 1.387 1_545 S
C439 H442 0.950 . S
C440 C439 1.387 1_565 S
C440 C443 1.387 . S
H441 C437 0.950 . S
H442 C439 0.950 . S
C443 C434 1.390 . S
C443 H436 0.950 . S
C443 C440 1.387 . S
C330 C219 1.685 . S
C325 C138 1.645 . S
C335 C21 1.641 . S
C340 C314 1.673 . S
C345 C60 1.655 . S
C350 C230 1.684 . S
C355 C99 1.653 . S
C360 C303 1.671 . S
C370 C214 1.436 . S
C365 C16 1.552 . S
C380 C307 1.638 . S
C375 C40 1.617 . S
C385 C79 1.636 . S
C390 C223 1.675 . S
C395 C133 1.537 . S
C400 C298 1.418 . S
C410 C309 1.416 . S
C405 C55 1.537 . S
C420 C225 1.432 . S
C415 C94 1.551 . S
C430 C296 1.638 . S
C425 C118 1.614 . S
C435 C1 1.630 . S
C440 C212 1.675 . S
