# Generated by pormake.
# Topology sqc, (4,8)-cn, num edge types: 1
# Building blocks:
#     Node 0, Type 0, BuildingBlock: NAHDIM_clean_linker_0, # of connection points: 4
#     Node 1, Type 0, BuildingBlock: NAHDIM_clean_linker_0, # of connection points: 4
#     Node 2, Type 0, BuildingBlock: NAHDIM_clean_linker_0, # of connection points: 4
#     Node 3, Type 0, BuildingBlock: NAHDIM_clean_linker_0, # of connection points: 4
#     Node 4, Type 0, BuildingBlock: NAHDIM_clean_linker_0, # of connection points: 4
#     Node 5, Type 0, BuildingBlock: NAHDIM_clean_linker_0, # of connection points: 4
#     Node 6, Type 0, BuildingBlock: NAHDIM_clean_linker_0, # of connection points: 4
#     Node 7, Type 0, BuildingBlock: NAHDIM_clean_linker_0, # of connection points: 4
#     Node 8, Type 1, BuildingBlock: VETTIZ_charged_sbu_0, # of connection points: 8
#     Node 9, Type 1, BuildingBlock: VETTIZ_charged_sbu_0, # of connection points: 8
#     Node 10, Type 1, BuildingBlock: VETTIZ_charged_sbu_0, # of connection points: 8
#     Node 11, Type 1, BuildingBlock: VETTIZ_charged_sbu_0, # of connection points: 8
#     Edge 12, Type (0, 1), None
#     Edge 13, Type (0, 1), None
#     Edge 14, Type (0, 1), None
#     Edge 15, Type (0, 1), None
#     Edge 16, Type (0, 1), None
#     Edge 17, Type (0, 1), None
#     Edge 18, Type (0, 1), None
#     Edge 19, Type (0, 1), None
#     Edge 20, Type (0, 1), None
#     Edge 21, Type (0, 1), None
#     Edge 22, Type (0, 1), None
#     Edge 23, Type (0, 1), None
#     Edge 24, Type (0, 1), None
#     Edge 25, Type (0, 1), None
#     Edge 26, Type (0, 1), None
#     Edge 27, Type (0, 1), None
#     Edge 28, Type (0, 1), None
#     Edge 29, Type (0, 1), None
#     Edge 30, Type (0, 1), None
#     Edge 31, Type (0, 1), None
#     Edge 32, Type (0, 1), None
#     Edge 33, Type (0, 1), None
#     Edge 34, Type (0, 1), None
#     Edge 35, Type (0, 1), None
#     Edge 36, Type (0, 1), None
#     Edge 37, Type (0, 1), None
#     Edge 38, Type (0, 1), None
#     Edge 39, Type (0, 1), None
#     Edge 40, Type (0, 1), None
#     Edge 41, Type (0, 1), None
#     Edge 42, Type (0, 1), None
#     Edge 43, Type (0, 1), None
# Relax obj value: 0.111
# Max RMSD: 0.263
# Mean RMSD: 0.120
data_MOF--net-sqc--node1-VETTIZ_charged_sbu_0--node2-NAHDIM_clean_linker_0--edge1-none
_symmetry_space_group_name_H-M    P1
_symmetry_Int_Tables_number       1
_symmetry_cell_setting            triclinic
loop_
_symmetry_equiv_pos_as_xyz
'x, y, z'
_cell_length_a     19.535727
_cell_length_b     19.4843
_cell_length_c     63.925841
_cell_angle_alpha  89.292097
_cell_angle_beta   89.546957
_cell_angle_gamma 89.915438
loop_
_atom_site_label
_atom_site_type_symbol
_atom_site_fract_x
_atom_site_fract_y
_atom_site_fract_z
_atom_type_partial_charge
C0 C 0.79436 0.80366 0.4091 0.0
C1 C 0.74107 0.82942 0.42496 0.0
C2 C 0.81284 0.91235 0.44234 0.0
C3 C 0.83347 0.87218 0.45957 0.0
C4 C 0.89628 0.88378 0.4694 0.0
C5 C 0.93819 0.93903 0.46252 0.0
C6 C 0.91541 0.9825 0.44604 0.0
C7 C 0.85298 0.96843 0.43612 0.0
C8 C 0.91841 0.83573 0.48681 0.0
C9 C 0.95746 0.04313 0.43869 0.0
C10 C 0.3779 0.94647 0.39553 0.0
C11 C 0.41769 0.92133 0.41499 0.0
C12 C 0.31779 0.89311 0.43748 0.0
C13 C 0.29415 0.96085 0.43981 0.0
C14 C 0.231 0.9745 0.44954 0.0
C15 C 0.19227 0.91976 0.4583 0.0
C16 C 0.21743 0.85179 0.45691 0.0
C17 C 0.27929 0.83929 0.4462 0.0
C18 C 0.20665 0.04789 0.451 0.0
C19 C 0.1811 0.79299 0.46776 0.0
C20 C 0.35567 0.06317 0.57514 0.0
C21 C 0.3184 0.11746 0.56613 0.0
C22 C 0.25091 0.10791 0.55968 0.0
C23 C 0.21906 0.04344 0.56317 0.0
C24 C 0.25474 0.99033 0.57371 0.0
C25 C 0.32301 1.00083 0.57944 0.0
C26 C 0.21525 0.16728 0.5489 0.0
C27 C 0.22178 0.92159 0.57802 0.0
C28 C 0.73369 0.18532 0.56903 0.0
C29 C 0.74271 0.17293 0.59267 0.0
C30 C 0.86365 0.14641 0.58876 0.0
C31 C 0.9193 0.18514 0.58177 0.0
C32 C 0.97245 0.15492 0.57032 0.0
C33 C 0.97144 0.08317 0.5668 0.0
C34 C 0.91694 0.04293 0.57509 0.0
C35 C 0.86258 0.07543 0.58554 0.0
C36 C 0.02969 0.20005 0.56213 0.0
C37 C 0.91578 0.96584 0.57303 0.0
C38 C 0.00585 0.9505 0.47253 0.0
C39 C 0.06532 0.93055 0.46171 0.0
C40 C 0.1299 0.93511 0.47098 0.0
C41 C 0.1352 0.95715 0.49186 0.0
C42 C 0.19881 0.95877 0.50196 0.0
C43 C 0.20415 0.98212 0.52228 0.0
C44 C 0.14602 0.00435 0.53339 0.0
C45 C 0.15149 0.02972 0.55388 0.0
C46 C 0.09308 0.05034 0.56475 0.0
C47 C 0.02896 0.05089 0.55517 0.0
C48 C 0.02249 0.0272 0.53438 0.0
C49 C 0.95956 0.02901 0.52384 0.0
C50 C 0.95389 0.004 0.5036 0.0
C51 C 0.01124 0.97761 0.49291 0.0
C52 C 0.07582 0.97888 0.50281 0.0
C53 C 0.08126 0.00273 0.52363 0.0
C54 C 0.53887 0.09198 0.57145 0.0
C55 C 0.46666 0.12141 0.57369 0.0
O56 O 0.75669 0.89595 0.43089 0.0
O57 O 0.81089 0.17937 0.59812 0.0
O58 O 0.42319 0.06841 0.57962 0.0
O59 O 0.37677 0.87738 0.42697 0.0
H60 H 0.74088 0.79456 0.43881 0.0
H61 H 0.84612 0.80302 0.41614 0.0
H62 H 0.79571 0.83769 0.39502 0.0
H63 H 0.78221 0.75047 0.40425 0.0
H64 H 0.80093 0.83116 0.46531 0.0
H65 H 0.83638 0.99987 0.42301 0.0
H66 H 0.97066 0.81578 0.48354 0.0
H67 H 0.88298 0.79163 0.48893 0.0
H68 H 0.92015 0.86378 0.50178 0.0
H69 H 0.92856 0.0772 0.42783 0.0
H70 H 0.00398 0.0245 0.43044 0.0
H71 H 0.97446 0.07358 0.45227 0.0
H72 H 0.43381 0.96582 0.42449 0.0
H73 H 0.40848 0.98492 0.38652 0.0
H74 H 0.32888 0.97156 0.39967 0.0
H75 H 0.36606 0.90258 0.38522 0.0
H76 H 0.32451 0.00352 0.43404 0.0
H77 H 0.29842 0.78727 0.44483 0.0
H78 H 0.21096 0.06523 0.46741 0.0
H79 H 0.15196 0.05181 0.44652 0.0
H80 H 0.23713 0.08319 0.44083 0.0
H81 H 0.20149 0.74234 0.46287 0.0
H82 H 0.12536 0.79516 0.46466 0.0
H83 H 0.18775 0.79762 0.48492 0.0
H84 H 0.45257 0.143 0.55812 0.0
H85 H 0.34186 0.16721 0.56366 0.0
H86 H 0.35185 0.9597 0.5868 0.0
H87 H 0.17361 0.15096 0.53839 0.0
H88 H 0.25237 0.1983 0.53954 0.0
H89 H 0.19319 0.20138 0.56098 0.0
H90 H 0.25361 0.88839 0.58833 0.0
H91 H 0.21379 0.89476 0.56302 0.0
H92 H 0.17077 0.92879 0.58547 0.0
H93 H 0.72331 0.12088 0.59688 0.0
H94 H 0.67873 0.1875 0.56488 0.0
H95 H 0.75748 0.14297 0.56004 0.0
H96 H 0.75807 0.23455 0.56413 0.0
H97 H 0.91972 0.23979 0.58471 0.0
H98 H 0.81981 0.04545 0.59145 0.0
H99 H 0.07491 0.19343 0.57233 0.0
H100 H 0.01565 0.25513 0.56222 0.0
H101 H 0.04455 0.18587 0.54595 0.0
H102 H 0.88143 0.9415 0.5849 0.0
H103 H 0.96789 0.94373 0.57474 0.0
H104 H 0.89657 0.95234 0.55733 0.0
H105 H 0.06134 0.91136 0.44591 0.0
H106 H 0.24543 0.94202 0.4943 0.0
H107 H 0.25462 0.98237 0.52913 0.0
H108 H 0.09823 0.06996 0.58047 0.0
H109 H 0.91386 0.04946 0.53114 0.0
H110 H 0.90401 0.00603 0.49635 0.0
H111 H 0.55795 0.07263 0.58678 0.0
H112 H 0.57429 0.13188 0.56528 0.0
H113 H 0.53871 0.04886 0.56024 0.0
C114 C 0.17676 0.05897 0.87974 0.0
C115 C 0.1368 0.07657 0.85977 0.0
C116 C 0.14053 0.96759 0.84094 0.0
C117 C 0.21112 0.96872 0.83646 0.0
C118 C 0.24314 0.91293 0.82678 0.0
C119 C 0.20295 0.85673 0.82031 0.0
C120 C 0.1317 0.85606 0.82454 0.0
C121 C 0.10164 0.91142 0.83493 0.0
C122 C 0.32 0.91424 0.82393 0.0
C123 C 0.08717 0.79624 0.8186 0.0
C124 C 0.2785 0.30536 0.86315 0.0
C125 C 0.23986 0.36534 0.85307 0.0
C126 C 0.2677 0.48615 0.84706 0.0
C127 C 0.21324 0.50033 0.83339 0.0
C128 C 0.20932 0.56333 0.82269 0.0
C129 C 0.26228 0.6119 0.82509 0.0
C130 C 0.31653 0.59831 0.83907 0.0
C131 C 0.31789 0.5358 0.85013 0.0
C132 C 0.14911 0.57756 0.8086 0.0
C133 C 0.37364 0.64926 0.84203 0.0
C134 C 0.41601 0.49196 0.70034 0.0
C135 C 0.35907 0.53136 0.69411 0.0
C136 C 0.34515 0.59518 0.7031 0.0
C137 C 0.38907 0.62083 0.71866 0.0
C138 C 0.44711 0.5818 0.72481 0.0
C139 C 0.45965 0.51797 0.71552 0.0
C140 C 0.28197 0.63415 0.69634 0.0
C141 C 0.49519 0.60568 0.74161 0.0
C142 C 0.53239 0.04715 0.67878 0.0
C143 C 0.47568 0.09521 0.68674 0.0
C144 C 0.39763 0.00272 0.69804 0.0
C145 C 0.344 0.96156 0.69113 0.0
C146 C 0.32864 0.89847 0.70102 0.0
C147 C 0.36835 0.8758 0.71821 0.0
C148 C 0.42178 0.91799 0.7256 0.0
C149 C 0.43485 0.98147 0.71573 0.0
C150 C 0.27036 0.85585 0.69296 0.0
C151 C 0.46556 0.89596 0.74387 0.0
C152 C 0.23512 0.79706 0.80998 0.0
C153 C 0.23804 0.73552 0.82138 0.0
C154 C 0.2625 0.67565 0.81229 0.0
C155 C 0.28674 0.67696 0.79145 0.0
C156 C 0.30958 0.61693 0.78166 0.0
C157 C 0.33389 0.61884 0.76122 0.0
C158 C 0.34024 0.68145 0.75017 0.0
C159 C 0.36946 0.68451 0.72988 0.0
C160 C 0.37707 0.74824 0.71967 0.0
C161 C 0.35351 0.80893 0.72889 0.0
C162 C 0.32001 0.80576 0.74858 0.0
C163 C 0.28997 0.8643 0.7575 0.0
C164 C 0.25966 0.86113 0.77727 0.0
C165 C 0.26078 0.80003 0.78921 0.0
C166 C 0.28787 0.73982 0.7801 0.0
C167 C 0.31608 0.74236 0.75959 0.0
C168 C 0.33245 0.35599 0.69212 0.0
C169 C 0.38904 0.39127 0.67912 0.0
O170 O 0.10801 0.01827 0.85149 0.0
O171 O 0.4132 0.06104 0.68693 0.0
O172 O 0.43045 0.42899 0.69226 0.0
O173 O 0.2735 0.42566 0.85765 0.0
H174 H 0.17144 0.10169 0.84808 0.0
H175 H 0.22134 0.02562 0.8763 0.0
H176 H 0.1432 0.03147 0.89116 0.0
H177 H 0.19624 0.10655 0.88703 0.0
H178 H 0.24211 0.01215 0.84077 0.0
H179 H 0.04731 0.91095 0.83854 0.0
H180 H 0.34258 0.86211 0.82544 0.0
H181 H 0.34462 0.94804 0.83554 0.0
H182 H 0.33273 0.93485 0.80812 0.0
H183 H 0.10041 0.77766 0.80272 0.0
H184 H 0.03232 0.81019 0.81904 0.0
H185 H 0.09502 0.75329 0.82989 0.0
H186 H 0.24039 0.35656 0.83588 0.0
H187 H 0.25379 0.25578 0.85929 0.0
H188 H 0.27964 0.31075 0.88044 0.0
H189 H 0.33202 0.30422 0.85716 0.0
H190 H 0.17344 0.46279 0.83103 0.0
H191 H 0.35925 0.52458 0.86085 0.0
H192 H 0.12681 0.62872 0.81202 0.0
H193 H 0.1084 0.53816 0.81042 0.0
H194 H 0.16653 0.57839 0.79203 0.0
H195 H 0.41364 0.62957 0.85282 0.0
H196 H 0.35242 0.69758 0.84846 0.0
H197 H 0.39787 0.66194 0.8267 0.0
H198 H 0.36563 0.42482 0.66697 0.0
H199 H 0.32415 0.51267 0.68249 0.0
H200 H 0.50343 0.48755 0.72031 0.0
H201 H 0.25124 0.64963 0.7102 0.0
H202 H 0.2489 0.60364 0.6859 0.0
H203 H 0.29763 0.68155 0.6878 0.0
H204 H 0.54805 0.58668 0.73876 0.0
H205 H 0.47808 0.58429 0.75694 0.0
H206 H 0.49642 0.66241 0.74277 0.0
H207 H 0.48851 0.11284 0.70272 0.0
H208 H 0.58203 0.07385 0.67895 0.0
H209 H 0.52163 0.03031 0.66258 0.0
H210 H 0.53794 1.00086 0.68885 0.0
H211 H 0.31493 0.97843 0.67764 0.0
H212 H 0.47509 0.01365 0.72171 0.0
H213 H 0.23719 0.83793 0.70611 0.0
H214 H 0.29144 0.8098 0.68514 0.0
H215 H 0.23851 0.88473 0.68152 0.0
H216 H 0.51103 0.92939 0.7457 0.0
H217 H 0.48315 0.84219 0.74194 0.0
H218 H 0.4348 0.89813 0.75851 0.0
H219 H 0.21961 0.73384 0.83744 0.0
H220 H 0.30845 0.56755 0.7896 0.0
H221 H 0.34884 0.57047 0.75445 0.0
H222 H 0.4014 0.75059 0.70437 0.0
H223 H 0.28929 0.91314 0.74924 0.0
H224 H 0.23661 0.90757 0.78322 0.0
H225 H 0.35504 0.31845 0.70334 0.0
H226 H 0.29602 0.32897 0.68182 0.0
H227 H 0.30287 0.39454 0.70111 0.0
C228 C 0.87434 0.98076 0.09979 0.0
C229 C 0.82606 0.91918 0.10105 0.0
C230 C 0.73805 0.91829 0.07315 0.0
C231 C 0.72052 0.88603 0.05456 0.0
C232 C 0.65624 0.89594 0.04522 0.0
C233 C 0.60748 0.94032 0.05473 0.0
C234 C 0.62611 0.97542 0.0732 0.0
C235 C 0.69087 0.96393 0.08221 0.0
C236 C 0.64261 0.85936 0.02495 0.0
C237 C 0.57836 0.02644 0.08332 0.0
C238 C 0.02538 0.86436 0.06451 0.0
C239 C 0.0984 0.84203 0.06951 0.0
C240 C 0.20998 0.90151 0.06826 0.0
C241 C 0.24193 0.96406 0.0722 0.0
C242 C 0.31277 0.97212 0.06936 0.0
C243 C 0.35232 0.91651 0.06186 0.0
C244 C 0.32183 0.85099 0.06049 0.0
C245 C 0.25076 0.84415 0.06336 0.0
C246 C 0.3439 0.04217 0.0721 0.0
C247 C 0.36331 0.78956 0.0541 0.0
C248 C 0.16846 0.08185 0.94538 0.0
C249 C 0.19316 0.12276 0.96166 0.0
C250 C 0.26011 0.11432 0.96918 0.0
C251 C 0.30355 0.06398 0.96025 0.0
C252 C 0.27919 0.02354 0.94366 0.0
C253 C 0.21216 0.03329 0.93645 0.0
C254 C 0.28318 0.1583 0.98712 0.0
C255 C 0.32337 0.96897 0.9338 0.0
C256 C 0.7229 0.27842 0.90279 0.0
C257 C 0.75491 0.22542 0.91767 0.0
C258 C 0.66469 0.1443 0.92788 0.0
C259 C 0.63169 0.18804 0.94216 0.0
C260 C 0.57702 0.16458 0.95456 0.0
C261 C 0.5532 0.09671 0.95215 0.0
C262 C 0.5847 0.05319 0.93736 0.0
C263 C 0.64035 0.0776 0.92547 0.0
C264 C 0.54775 0.21243 0.97075 0.0
C265 C 0.56034 0.9805 0.93441 0.0
C266 C 0.53754 0.95008 0.04549 0.0
C267 C 0.47999 0.92656 0.05693 0.0
C268 C 0.41375 0.9325 0.04876 0.0
C269 C 0.40446 0.95872 0.02827 0.0
C270 C 0.33911 0.96042 0.01903 0.0
C271 C 0.32912 0.98988 -0.00053 0.0
C272 C 0.38391 0.01903 0.98827 0.0
C273 C 0.37341 0.05209 0.96875 0.0
C274 C 0.42971 0.07658 0.95735 0.0
C275 C 0.49606 0.0706 0.96523 0.0
C276 C 0.507 0.04173 0.98532 0.0
C277 C 0.57247 0.03964 0.99434 0.0
C278 C 0.58232 0.01149 0.01423 0.0
C279 C 0.52762 0.982 0.02561 0.0
C280 C 0.46108 0.98484 0.01687 0.0
C281 C 0.45073 0.01504 -0.00322 0.0
C282 C 0.00254 0.05852 0.95627 0.0
C283 C 0.04607 0.11608 0.94655 0.0
O284 O 0.80135 0.90509 0.08122 0.0
O285 O 0.72027 0.16381 0.91635 0.0
O286 O 0.10412 0.08777 0.93742 0.0
O287 O 0.14022 0.89952 0.06896 0.0
H288 H 0.78356 0.93132 0.11207 0.0
H289 H 0.84532 0.02718 0.09485 0.0
H290 H 0.91597 0.97193 0.08822 0.0
H291 H 0.89711 0.99049 0.11535 0.0
H292 H 0.7576 0.85207 0.04734 0.0
H293 H 0.70444 0.99193 0.09607 0.0
H294 H 0.58736 0.85183 0.022 0.0
H295 H 0.66856 0.80863 0.02463 0.0
H296 H 0.66444 0.8901 0.01179 0.0
H297 H 0.60585 0.06105 0.09408 0.0
H298 H 0.53885 0.99833 0.09257 0.0
H299 H 0.55186 0.05827 0.07133 0.0
H300 H 0.1142 0.80482 0.05734 0.0
H301 H 0.99073 0.81924 0.06436 0.0
H302 H 0.02406 0.88918 0.04878 0.0
H303 H 0.00699 0.90194 0.07618 0.0
H304 H 0.21067 0.00763 0.07662 0.0
H305 H 0.22756 0.79461 0.06085 0.0
H306 H 0.34576 0.06921 0.05671 0.0
H307 H 0.39706 0.03786 0.07802 0.0
H308 H 0.3131 0.07378 0.08305 0.0
H309 H 0.33672 0.74076 0.05811 0.0
H310 H 0.4136 0.79 0.06204 0.0
H311 H 0.37258 0.79171 0.03694 0.0
H312 H 0.05894 0.15249 0.95908 0.0
H313 H 0.16159 0.16207 0.96856 0.0
H314 H 0.193 1.00172 0.92398 0.0
H315 H 0.27396 0.13 0.00204 0.0
H316 H 0.25403 0.20722 0.9878 0.0
H317 H 0.3386 0.17029 0.98608 0.0
H318 H 0.29431 0.93675 0.92274 0.0
H319 H 0.34587 0.93523 0.94608 0.0
H320 H 0.36627 0.99374 0.9251 0.0
H321 H 0.75331 0.24576 0.93384 0.0
H322 H 0.7514 0.32767 0.90335 0.0
H323 H 0.66899 0.28856 0.90745 0.0
H324 H 0.72365 0.2595 0.88646 0.0
H325 H 0.64806 0.24055 0.94398 0.0
H326 H 0.66563 0.04439 0.91433 0.0
H327 H 0.49758 0.1957 0.97717 0.0
H328 H 0.54208 0.26476 0.96395 0.0
H329 H 0.58427 0.21598 0.98391 0.0
H330 H 0.59089 0.95291 0.92242 0.0
H331 H 0.50585 0.9809 0.9296 0.0
H332 H 0.56345 0.95171 0.94948 0.0
H333 H 0.48664 0.90409 0.07237 0.0
H334 H 0.29438 0.93912 0.02673 0.0
H335 H 0.27767 0.98965 0.9933 0.0
H336 H 0.42181 0.10122 0.94224 0.0
H337 H 0.61678 0.06046 0.98622 0.0
H338 H 0.63351 0.01306 0.02055 0.0
H339 H 0.98969 0.01945 0.9444 0.0
H340 H 0.95445 0.07981 0.96297 0.0
H341 H 0.03144 0.03288 0.96906 0.0
C342 C 0.16548 0.95277 0.13172 0.0
C343 C 0.17567 0.91322 0.15235 0.0
C344 C 0.18551 0.00847 0.17701 0.0
C345 C 0.25574 0.02193 0.17374 0.0
C346 C 0.28721 0.07956 0.18252 0.0
C347 C 0.24807 0.12497 0.19494 0.0
C348 C 0.17669 0.11383 0.19724 0.0
C349 C 0.14686 0.05487 0.18869 0.0
C350 C 0.36252 0.09173 0.17849 0.0
C351 C 0.13145 0.16384 0.20872 0.0
C352 C 0.11223 0.52393 0.16505 0.0
C353 C 0.14773 0.5834 0.17651 0.0
C354 C 0.2399 0.50882 0.18786 0.0
C355 C 0.20439 0.47551 0.20422 0.0
C356 C 0.22262 0.40919 0.21071 0.0
C357 C 0.27869 0.37608 0.20095 0.0
C358 C 0.31684 0.41083 0.18519 0.0
C359 C 0.29699 0.47717 0.17887 0.0
C360 C 0.18161 0.37446 0.22794 0.0
C361 C 0.37805 0.37757 0.17495 0.0
C362 C 0.49873 0.45329 0.31597 0.0
C363 C 0.43852 0.41636 0.32049 0.0
C364 C 0.42442 0.35453 0.31031 0.0
C365 C 0.4713 0.32895 0.29529 0.0
C366 C 0.53309 0.36465 0.29126 0.0
C367 C 0.54627 0.42591 0.30187 0.0
C368 C 0.35818 0.31755 0.31511 0.0
C369 C 0.58347 0.34037 0.27493 0.0
C370 C 0.53905 0.77693 0.29661 0.0
C371 C 0.54894 0.83852 0.31079 0.0
C372 C 0.47991 0.94141 0.30298 0.0
C373 C 0.42886 0.98198 0.31196 0.0
C374 C 0.41621 0.0489 0.30463 0.0
C375 C 0.456 0.07588 0.28787 0.0
C376 C 0.5078 0.03498 0.27865 0.0
C377 C 0.51823 0.96756 0.28601 0.0
C378 C 0.3601 0.09055 0.31473 0.0
C379 C 0.55201 0.06249 0.26099 0.0
C380 C 0.28192 0.18301 0.20587 0.0
C381 C 0.27298 0.24963 0.19785 0.0
C382 C 0.2992 0.30657 0.2082 0.0
C383 C 0.33888 0.29731 0.22634 0.0
C384 C 0.36647 0.35377 0.23685 0.0
C385 C 0.40331 0.34471 0.25514 0.0
C386 C 0.41527 0.27872 0.26346 0.0
C387 C 0.45167 0.26931 0.28231 0.0
C388 C 0.46521 0.20281 0.28972 0.0
C389 C 0.44071 0.14525 0.27918 0.0
C390 C 0.40066 0.15407 0.26097 0.0
C391 C 0.37078 0.09783 0.25088 0.0
C392 C 0.33121 0.10713 0.23303 0.0
C393 C 0.32109 0.1729 0.22427 0.0
C394 C 0.35019 0.2303 0.23437 0.0
C395 C 0.38917 0.22096 0.25286 0.0
C396 C 0.44949 0.61489 0.31667 0.0
C397 C 0.46947 0.56251 0.33352 0.0
O398 O 0.15309 0.95245 0.16904 0.0
O399 O 0.48921 0.87709 0.31089 0.0
O400 O 0.51384 0.51455 0.32488 0.0
O401 O 0.21653 0.56849 0.17928 0.0
H402 H 0.23078 0.90068 0.15412 0.0
H403 H 0.19452 1.0017 0.13184 0.0
H404 H 0.1104 0.96463 0.12936 0.0
H405 H 0.18453 0.92217 0.11832 0.0
H406 H 0.28706 0.98771 0.16457 0.0
H407 H 0.09261 0.04526 0.19084 0.0
H408 H 0.37236 0.14678 0.17491 0.0
H409 H 0.3823 0.06054 0.16532 0.0
H410 H 0.39185 0.07774 0.19271 0.0
H411 H 0.14096 0.15948 0.22579 0.0
H412 H 0.0766 0.15452 0.20557 0.0
H413 H 0.14224 0.21733 0.20373 0.0
H414 H 0.12235 0.59102 0.19195 0.0
H415 H 0.09752 0.48234 0.17621 0.0
H416 H 0.14679 0.50227 0.1529 0.0
H417 H 0.06553 0.54181 0.15701 0.0
H418 H 0.16123 0.50061 0.21161 0.0
H419 H 0.32429 0.5035 0.16633 0.0
H420 H 0.16382 0.32343 0.22275 0.0
H421 H 0.13633 0.40519 0.23276 0.0
H422 H 0.21449 0.36613 0.24182 0.0
H423 H 0.40319 0.41193 0.16323 0.0
H424 H 0.36187 0.32982 0.16709 0.0
H425 H 0.41602 0.36289 0.18705 0.0
H426 H 0.42186 0.53875 0.33971 0.0
H427 H 0.40217 0.43476 0.33193 0.0
H428 H 0.59306 0.45409 0.29865 0.0
H429 H 0.32651 0.31555 0.30079 0.0
H430 H 0.32796 0.3428 0.32765 0.0
H431 H 0.36913 0.26387 0.32005 0.0
H432 H 0.63394 0.36589 0.27642 0.0
H433 H 0.56299 0.35245 0.25916 0.0
H434 H 0.5907 0.28394 0.27597 0.0
H435 H 0.59337 0.86867 0.30484 0.0
H436 H 0.58388 0.74184 0.29725 0.0
H437 H 0.53309 0.79506 0.28018 0.0
H438 H 0.49185 0.74904 0.30126 0.0
H439 H 0.399 0.96096 0.32488 0.0
H440 H 0.5562 0.93567 0.27843 0.0
H441 H 0.32531 0.11191 0.30263 0.0
H442 H 0.38315 0.13437 0.32306 0.0
H443 H 0.32943 0.05977 0.32615 0.0
H444 H 0.59442 0.0269 0.25692 0.0
H445 H 0.57415 0.11278 0.26533 0.0
H446 H 0.52023 0.07094 0.24687 0.0
H447 H 0.24272 0.25752 0.18386 0.0
H448 H 0.35952 0.40585 0.23115 0.0
H449 H 0.4225 0.3903 0.2626 0.0
H450 H 0.49379 0.19579 0.30407 0.0
H451 H 0.37703 0.04591 0.25678 0.0
H452 H 0.30893 0.06197 0.22615 0.0
H453 H 0.4194 0.65763 0.32355 0.0
H454 H 0.41768 0.58963 0.30468 0.0
H455 H 0.49629 0.63522 0.30888 0.0
C456 C 0.79835 0.52779 0.37845 0.0
C457 C 0.73898 0.5165 0.36337 0.0
C458 C 0.72957 0.40238 0.34893 0.0
C459 C 0.79294 0.39652 0.33875 0.0
C460 C 0.80495 0.34358 0.32456 0.0
C461 C 0.7509 0.29805 0.3197 0.0
C462 C 0.68615 0.30545 0.3296 0.0
C463 C 0.67689 0.35697 0.3444 0.0
C464 C 0.87631 0.33513 0.31563 0.0
C465 C 0.62753 0.25704 0.32556 0.0
C466 C 0.82262 0.73463 0.34655 0.0
C467 C 0.77901 0.79626 0.33995 0.0
C468 C 0.80313 0.91875 0.33593 0.0
C469 C 0.74125 0.93706 0.32625 0.0
C470 C 0.73227 1.00252 0.31741 0.0
C471 C 0.78759 0.04908 0.31705 0.0
C472 C 0.84965 0.03134 0.32704 0.0
C473 C 0.85604 0.9667 0.33673 0.0
C474 C 0.6641 0.02081 0.30797 0.0
C475 C 0.90959 0.0801 0.32711 0.0
C476 C 0.92125 0.93715 0.20002 0.0
C477 C 0.86058 0.9647 0.19173 0.0
C478 C 0.84065 0.03246 0.19614 0.0
C479 C 0.88155 0.07277 0.20941 0.0
C480 C 0.9448 0.04606 0.21672 0.0
C481 C 0.96437 0.97912 0.21149 0.0
C482 C 0.77309 0.05891 0.1881 0.0
C483 C 0.98788 0.08434 0.23221 0.0
C484 C 0.92434 0.50434 0.14963 0.0
C485 C 0.9256 0.54332 0.17036 0.0
C486 C 0.86289 0.45986 0.19189 0.0
C487 C 0.79795 0.42978 0.19288 0.0
C488 C 0.78834 0.36337 0.20138 0.0
C489 C 0.84491 0.32686 0.20973 0.0
C490 C 0.91063 0.35747 0.2091 0.0
C491 C 0.91894 0.42328 0.20016 0.0
C492 C 0.7176 0.33244 0.20154 0.0
C493 C 0.9722 0.32104 0.21814 0.0
C494 C 0.76414 0.23796 0.30635 0.0
C495 C 0.76775 0.17402 0.31641 0.0
C496 C 0.7819 0.11473 0.30528 0.0
C497 C 0.79287 0.11873 0.28346 0.0
C498 C 0.80587 0.0596 0.27178 0.0
C499 C 0.82126 0.06441 0.25063 0.0
C500 C 0.82665 0.12873 0.24045 0.0
C501 C 0.85162 0.13426 0.2197 0.0
C502 C 0.85507 0.1989 0.20981 0.0
C503 C 0.83508 0.25874 0.22036 0.0
C504 C 0.81217 0.25377 0.24145 0.0
C505 C 0.79372 0.31233 0.2529 0.0
C506 C 0.77519 0.30709 0.27395 0.0
C507 C 0.77657 0.24347 0.28455 0.0
C508 C 0.79208 0.18358 0.27314 0.0
C509 C 0.8093 0.18866 0.25156 0.0
C510 C 0.92531 0.75365 0.20834 0.0
C511 C 0.89336 0.81546 0.19717 0.0
O512 O 0.71913 0.44856 0.36418 0.0
O513 O 0.86988 0.52321 0.18262 0.0
O514 O 0.9387 0.87001 0.19792 0.0
O515 O 0.81348 0.85594 0.34482 0.0
H516 H 0.75541 0.53239 0.34729 0.0
H517 H 0.84341 0.49684 0.37366 0.0
H518 H 0.78367 0.51241 0.39468 0.0
H519 H 0.81358 0.58274 0.37828 0.0
H520 H 0.83402 0.43123 0.34261 0.0
H521 H 0.62834 0.36192 0.35259 0.0
H522 H 0.89061 0.28016 0.31438 0.0
H523 H 0.91519 0.36115 0.32533 0.0
H524 H 0.8786 0.35853 0.29973 0.0
H525 H 0.57732 0.28135 0.32907 0.0
H526 H 0.6327 0.21121 0.33591 0.0
H527 H 0.62766 0.23928 0.30914 0.0
H528 H 0.77193 0.79282 0.32272 0.0
H529 H 0.83124 0.73464 0.36372 0.0
H530 H 0.8731 0.73689 0.33845 0.0
H531 H 0.79715 0.68584 0.34228 0.0
H532 H 0.69947 0.90094 0.32562 0.0
H533 H 0.90331 0.9524 0.34442 0.0
H534 H 0.65182 0.07607 0.30979 0.0
H535 H 0.6223 0.99028 0.31535 0.0
H536 H 0.66586 0.00947 0.29101 0.0
H537 H 0.95524 0.05739 0.33481 0.0
H538 H 0.89502 0.12766 0.33544 0.0
H539 H 0.92356 0.09497 0.3108 0.0
H540 H 0.84458 0.82781 0.20547 0.0
H541 H 0.82787 0.93288 0.18231 0.0
H542 H 0.01128 0.95749 0.2177 0.0
H543 H 0.73668 0.06441 0.20141 0.0
H544 H 0.75022 0.02403 0.17645 0.0
H545 H 0.77997 0.11045 0.1808 0.0
H546 H 0.0421 0.06721 0.23163 0.0
H547 H 0.96846 0.07336 0.24827 0.0
H548 H 0.98517 0.14067 0.22954 0.0
H549 H 0.97381 0.53147 0.17862 0.0
H550 H 0.96467 0.52341 0.13868 0.0
H551 H 0.87383 0.51069 0.14195 0.0
H552 H 0.93345 0.44877 0.15253 0.0
H553 H 0.75483 0.45799 0.18655 0.0
H554 H 0.96932 0.44605 0.20016 0.0
H555 H 0.69765 0.33014 0.21784 0.0
H556 H 0.71951 0.27909 0.19564 0.0
H557 H 0.68119 0.3628 0.19188 0.0
H558 H 0.01881 0.35363 0.21777 0.0
H559 H 0.9829 0.27388 0.2091 0.0
H560 H 0.96157 0.30508 0.23459 0.0
H561 H 0.76014 0.1704 0.33323 0.0
H562 H 0.80531 0.00888 0.27888 0.0
H563 H 0.83088 0.01684 0.24255 0.0
H564 H 0.87551 0.20293 0.19402 0.0
H565 H 0.79416 0.36306 0.24583 0.0
H566 H 0.76165 0.35386 0.28196 0.0
H567 H 0.97541 0.74023 0.2011 0.0
H568 H 0.89068 0.70853 0.20763 0.0
H569 H 0.93383 0.76589 0.22504 0.0
C570 C 0.51581 0.52364 0.65337 0.0
C571 C 0.58542 0.50741 0.66303 0.0
C572 C 0.62248 0.58345 0.69019 0.0
C573 C 0.69413 0.58436 0.68945 0.0
C574 C 0.73098 0.64183 0.69634 0.0
C575 C 0.69525 0.69851 0.70498 0.0
C576 C 0.62258 0.69815 0.70511 0.0
C577 C 0.58736 0.64111 0.69734 0.0
C578 C 0.80802 0.64128 0.69445 0.0
C579 C 0.58176 0.75776 0.71351 0.0
C580 C 0.67434 0.14944 0.65322 0.0
C581 C 0.68975 0.18274 0.67438 0.0
C582 C 0.75143 0.08791 0.6898 0.0
C583 C 0.70113 0.0615 0.70349 0.0
C584 C 0.70064 0.99197 0.7094 0.0
C585 C 0.75317 0.94796 0.70213 0.0
C586 C 0.80428 0.97438 0.68841 0.0
C587 C 0.80282 0.04418 0.68244 0.0
C588 C 0.64548 0.96616 0.72416 0.0
C589 C 0.86175 0.92935 0.68071 0.0
C590 C 0.95364 0.05939 0.81207 0.0
C591 C 0.89237 0.03022 0.8196 0.0
C592 C 0.87418 0.96267 0.81437 0.0
C593 C 0.91802 0.92355 0.80135 0.0
C594 C 0.98199 0.95142 0.79499 0.0
C595 C 0.99911 0.01862 0.80067 0.0
C596 C 0.80609 0.93454 0.82171 0.0
C597 C 0.02993 0.91353 0.78053 0.0
C598 C 0.85684 0.38067 0.83432 0.0
C599 C 0.92373 0.42099 0.83139 0.0
C600 C 0.89875 0.54433 0.8254 0.0
C601 C 0.84878 0.59096 0.83191 0.0
C602 C 0.8379 0.65306 0.82107 0.0
C603 C 0.87991 0.67013 0.80365 0.0
C604 C 0.93191 0.62367 0.79726 0.0
C605 C 0.94022 0.56074 0.80807 0.0
C606 C 0.7819 0.70066 0.82842 0.0
C607 C 0.97991 0.64137 0.7794 0.0
C608 C 0.73323 0.7574 0.71425 0.0
C609 C 0.73192 0.82124 0.70373 0.0
C610 C 0.76215 0.87947 0.71238 0.0
C611 C 0.79624 0.87399 0.73172 0.0
C612 C 0.82635 0.93182 0.74083 0.0
C613 C 0.85708 0.92745 0.76022 0.0
C614 C 0.86074 0.86468 0.7712 0.0
C615 C 0.89129 0.86054 0.79115 0.0
C616 C 0.89552 0.79682 0.80147 0.0
C617 C 0.87016 0.73689 0.79233 0.0
C618 C 0.83581 0.74131 0.7729 0.0
C619 C 0.80353 0.68397 0.76418 0.0
C620 C 0.76895 0.68926 0.74521 0.0
C621 C 0.76717 0.75154 0.7338 0.0
C622 C 0.799 0.81004 0.74244 0.0
C623 C 0.83217 0.80521 0.76215 0.0
C624 C 0.94578 0.23805 0.80317 0.0
C625 C 0.92849 0.1817 0.81931 0.0
O626 O 0.58677 0.52774 0.68371 0.0
O627 O 0.90958 0.48776 0.83754 0.0
O628 O 0.97116 0.12607 0.81531 0.0
O629 O 0.74889 0.15411 0.68263 0.0
H630 H 0.62321 0.5385 0.65376 0.0
H631 H 0.50331 0.57878 0.65548 0.0
H632 H 0.47467 0.49259 0.66057 0.0
H633 H 0.51734 0.513 0.63635 0.0
H634 H 0.72112 0.54004 0.68345 0.0
H635 H 0.53209 0.64157 0.69669 0.0
H636 H 0.82801 0.69316 0.69044 0.0
H637 H 0.82581 0.60471 0.68235 0.0
H638 H 0.8304 0.62499 0.70961 0.0
H639 H 0.6016 0.77349 0.72896 0.0
H640 H 0.52658 0.74539 0.71519 0.0
H641 H 0.58654 0.80223 0.7026 0.0
H642 H 0.64588 0.17217 0.68507 0.0
H643 H 0.62677 0.17104 0.64642 0.0
H644 H 0.66747 0.09321 0.65509 0.0
H645 H 0.71778 0.15748 0.64218 0.0
H646 H 0.66243 0.09528 0.70985 0.0
H647 H 0.84144 0.06474 0.67185 0.0
H648 H 0.62185 0.919 0.71788 0.0
H649 H 0.60472 0.00502 0.72674 0.0
H650 H 0.66833 0.95263 0.73951 0.0
H651 H 0.89349 0.95536 0.66849 0.0
H652 H 0.84073 0.88118 0.67425 0.0
H653 H 0.89514 0.915 0.69405 0.0
H654 H 0.87374 0.16825 0.81716 0.0
H655 H 0.85812 0.06009 0.82928 0.0
H656 H 0.04697 0.04092 0.79525 0.0
H657 H 0.77238 0.92704 0.80802 0.0
H658 H 0.77982 0.96922 0.83287 0.0
H659 H 0.81346 0.88367 0.82938 0.0
H660 H 0.08413 0.92657 0.7838 0.0
H661 H 0.01916 0.92955 0.76416 0.0
H662 H 0.02346 0.85709 0.7817 0.0
H663 H 0.94085 0.41863 0.81479 0.0
H664 H 0.86369 0.32503 0.83206 0.0
H665 H 0.81832 0.3996 0.82293 0.0
H666 H 0.83607 0.38801 0.85039 0.0
H667 H 0.81789 0.57826 0.84557 0.0
H668 H 0.98066 0.52587 0.80349 0.0
H669 H 0.75023 0.71797 0.815 0.0
H670 H 0.80521 0.74687 0.83541 0.0
H671 H 0.74805 0.67594 0.84035 0.0
H672 H 0.02147 0.60285 0.7776 0.0
H673 H 0.00329 0.69251 0.78193 0.0
H674 H 0.95078 0.64431 0.76459 0.0
H675 H 0.70538 0.82614 0.68895 0.0
H676 H 0.82599 0.98176 0.73324 0.0
H677 H 0.87782 0.97439 0.76641 0.0
H678 H 0.91824 0.79378 0.81684 0.0
H679 H 0.80364 0.63455 0.7721 0.0
H680 H 0.74381 0.64368 0.73961 0.0
H681 H 0.90881 0.28095 0.80387 0.0
H682 H 0.94281 0.21658 0.78718 0.0
H683 H 0.99852 0.25782 0.80539 0.0
C684 C 0.72606 0.71713 0.11099 0.0
C685 C 0.76655 0.67793 0.09438 0.0
C686 C 0.6859 0.66281 0.0663 0.0
C687 C 0.68051 0.59115 0.06558 0.0
C688 C 0.62354 0.56023 0.05644 0.0
C689 C 0.57232 0.60207 0.04727 0.0
C690 C 0.57784 0.67437 0.048 0.0
C691 C 0.63467 0.70367 0.05763 0.0
C692 C 0.61875 0.4829 0.05628 0.0
C693 C 0.52563 0.72099 0.0379 0.0
C694 C 0.02653 0.50176 0.08542 0.0
C695 C 0.08264 0.55213 0.07854 0.0
C696 C 0.20489 0.52846 0.07219 0.0
C697 C 0.21561 0.57862 0.05651 0.0
C698 C 0.27752 0.58114 0.04517 0.0
C699 C 0.3296 0.53246 0.04958 0.0
C700 C 0.31921 0.48271 0.06559 0.0
C701 C 0.25715 0.48181 0.07678 0.0
C702 C 0.28656 0.63512 0.02823 0.0
C703 C 0.37342 0.43003 0.07076 0.0
C704 C 0.22252 0.3677 0.94443 0.0
C705 C 0.24561 0.43268 0.93767 0.0
C706 C 0.31555 0.44841 0.93794 0.0
C707 C 0.36244 0.39855 0.94533 0.0
C708 C 0.34045 0.3301 0.94828 0.0
C709 C 0.27025 0.31555 0.94796 0.0
C710 C 0.33825 0.52068 0.93284 0.0
C711 C 0.39013 0.27419 0.95402 0.0
C712 C 0.84686 0.55994 0.89928 0.0
C713 C 0.83723 0.48205 0.90182 0.0
C714 C 0.74581 0.45863 0.92782 0.0
C715 C 0.69096 0.491 0.91763 0.0
C716 C 0.62457 0.48878 0.92632 0.0
C717 C 0.61244 0.45089 0.94511 0.0
C718 C 0.66723 0.41377 0.95439 0.0
C719 C 0.73322 0.41967 0.94586 0.0
C720 C 0.56837 0.5295 0.91582 0.0
C721 C 0.65845 0.37043 0.97398 0.0
C722 C 0.51434 0.57004 0.03633 0.0
C723 C 0.4517 0.56475 0.04693 0.0
C724 C 0.39525 0.534 0.03764 0.0
C725 C 0.40202 0.50563 0.01747 0.0
C726 C 0.34721 0.47199 0.00798 0.0
C727 C 0.35431 0.4446 0.98813 0.0
C728 C 0.41673 0.44928 0.97695 0.0
C729 C 0.42384 0.42267 0.95653 0.0
C730 C 0.48776 0.42324 0.94652 0.0
C731 C 0.54448 0.45413 0.95588 0.0
C732 C 0.53642 0.4864 0.97555 0.0
C733 C 0.5902 0.52314 0.98469 0.0
C734 C 0.58297 0.55118 0.00449 0.0
C735 C 0.52143 0.54415 0.01588 0.0
C736 C 0.46545 0.51062 0.00657 0.0
C737 C 0.47294 0.48193 0.98636 0.0
C738 C 0.04752 0.37518 0.96449 0.0
C739 C 0.10185 0.40026 0.94886 0.0
O740 O 0.7406 0.69399 0.07488 0.0
O741 O 0.812 0.46647 0.92161 0.0
O742 O 0.15575 0.35404 0.9488 0.0
O743 O 0.14564 0.52344 0.08341 0.0
H744 H 0.76194 0.62222 0.098 0.0
H745 H 0.74753 0.70783 0.1268 0.0
H746 H 0.67214 0.69913 0.11122 0.0
H747 H 0.72581 0.77296 0.10728 0.0
H748 H 0.72118 0.55929 0.07179 0.0
H749 H 0.63914 0.75877 0.05865 0.0
H750 H 0.5669 0.46603 0.06138 0.0
H751 H 0.65732 0.45827 0.06662 0.0
H752 H 0.62721 0.46443 0.04011 0.0
H753 H 0.53654 0.72443 0.02085 0.0
H754 H 0.52741 0.77346 0.04445 0.0
H755 H 0.473 0.70087 0.03992 0.0
H756 H 0.07691 0.55932 0.06135 0.0
H757 H 0.02769 0.49337 0.10265 0.0
H758 H 0.03461 0.45164 0.07768 0.0
H759 H 0.97518 0.52136 0.08093 0.0
H760 H 0.17626 0.61624 0.05317 0.0
H761 H 0.24867 0.4438 0.08905 0.0
H762 H 0.33896 0.65704 0.02844 0.0
H763 H 0.24884 0.67753 0.0298 0.0
H764 H 0.27936 0.61106 0.01276 0.0
H765 H 0.35505 0.39105 0.08232 0.0
H766 H 0.41884 0.4561 0.07729 0.0
H767 H 0.39019 0.40346 0.05632 0.0
H768 H 0.11833 0.4519 0.95408 0.0
H769 H 0.20965 0.47259 0.93342 0.0
H770 H 0.25215 0.26451 0.95195 0.0
H771 H 0.34116 0.55029 0.94753 0.0
H772 H 0.30158 0.54707 0.92224 0.0
H773 H 0.38984 0.52078 0.92541 0.0
H774 H 0.4035 0.2788 0.97079 0.0
H775 H 0.43768 0.27952 0.94454 0.0
H776 H 0.36818 0.22249 0.95142 0.0
H777 H 0.80134 0.46326 0.88973 0.0
H778 H 0.86687 0.57252 0.88337 0.0
H779 H 0.88318 0.57927 0.91113 0.0
H780 H 0.79746 0.58719 0.90135 0.0
H781 H 0.70003 0.52041 0.90343 0.0
H782 H 0.77581 0.39407 0.95346 0.0
H783 H 0.53872 0.55928 0.92751 0.0
H784 H 0.53258 0.49377 0.90812 0.0
H785 H 0.58871 0.56561 0.90371 0.0
H786 H 0.68867 0.32228 0.97273 0.0
H787 H 0.60441 0.35699 0.97735 0.0
H788 H 0.6788 0.39896 0.98751 0.0
H789 H 0.44669 0.58543 0.06255 0.0
H790 H 0.29816 0.4663 0.01581 0.0
H791 H 0.31004 0.41914 0.98183 0.0
H792 H 0.49315 0.40008 0.93126 0.0
H793 H 0.63865 0.53068 0.97668 0.0
H794 H 0.6264 0.57828 0.01077 0.0
H795 H 0.02961 0.32282 0.96053 0.0
H796 H 0.00299 0.41075 0.96457 0.0
H797 H 0.06943 0.3734 0.98048 0.0
C798 C 0.55008 0.59409 0.47824 0.0
C799 C 0.60574 0.61282 0.46226 0.0
C800 C 0.72081 0.56048 0.45617 0.0
C801 C 0.75456 0.49744 0.45439 0.0
C802 C 0.82616 0.49363 0.45244 0.0
C803 C 0.86544 0.55455 0.45288 0.0
C804 C 0.8313 0.61865 0.45208 0.0
C805 C 0.75915 0.62125 0.45367 0.0
C806 C 0.86012 0.42412 0.45232 0.0
C807 C 0.87186 0.68427 0.45149 0.0
C808 C 0.31796 0.65752 0.38094 0.0
C809 C 0.34066 0.65032 0.40375 0.0
C810 C 0.24857 0.58212 0.4205 0.0
C811 C 0.20104 0.63621 0.42252 0.0
C812 C 0.13738 0.62576 0.4325 0.0
C813 C 0.12033 0.55979 0.4405 0.0
C814 C 0.16497 0.50393 0.43649 0.0
C815 C 0.22901 0.5162 0.42699 0.0
C816 C 0.08886 0.68567 0.43476 0.0
C817 C 0.14676 0.43144 0.44297 0.0
C818 C 0.28494 0.41747 0.57078 0.0
C819 C 0.25544 0.48049 0.57645 0.0
C820 C 0.19771 0.50624 0.56601 0.0
C821 C 0.16645 0.46661 0.55031 0.0
C822 C 0.19497 0.40214 0.54497 0.0
C823 C 0.25477 0.37939 0.55495 0.0
C824 C 0.16944 0.57535 0.57217 0.0
C825 C 0.16119 0.35594 0.52931 0.0
C826 C 0.59558 0.49186 0.56677 0.0
C827 C 0.66214 0.45429 0.57169 0.0
C828 C 0.77984 0.49525 0.57425 0.0
C829 C 0.82058 0.55343 0.5765 0.0
C830 C 0.88955 0.55285 0.57033 0.0
C831 C 0.91743 0.49265 0.56154 0.0
C832 C 0.87879 0.4314 0.56165 0.0
C833 C 0.81035 0.43309 0.5682 0.0
C834 C 0.93032 0.61841 0.57105 0.0
C835 C 0.90739 0.36615 0.55264 0.0
C836 C 0.93696 0.55101 0.46105 0.0
C837 C 0.99375 0.5552 0.44749 0.0
C838 C 0.06106 0.55128 0.45524 0.0
C839 C 0.07174 0.54037 0.47703 0.0
C840 C 0.13797 0.53596 0.48566 0.0
C841 C 0.14752 0.51939 0.50674 0.0
C842 C 0.09129 0.50905 0.52022 0.0
C843 C 0.09959 0.48843 0.54144 0.0
C844 C 0.04228 0.48389 0.55467 0.0
C845 C 0.97701 0.49858 0.54725 0.0
C846 C 0.96743 0.51556 0.52596 0.0
C847 C 0.90165 0.52771 0.51798 0.0
C848 C 0.89193 0.54052 0.49691 0.0
C849 C 0.94752 0.54207 0.48279 0.0
C850 C 0.01467 0.53424 0.49067 0.0
C851 C 0.02457 0.51997 0.51231 0.0
C852 C 0.42188 0.47753 0.59046 0.0
C853 C 0.37695 0.41628 0.5971 0.0
O854 O 0.65274 0.55915 0.46128 0.0
O855 O 0.71125 0.50201 0.57704 0.0
O856 O 0.34208 0.3913 0.57999 0.0
O857 O 0.31323 0.59084 0.41257 0.0
H858 H 0.62983 0.66088 0.46776 0.0
H859 H 0.5734 0.58564 0.49385 0.0
H860 H 0.5233 0.54632 0.47366 0.0
H861 H 0.51203 0.63635 0.47951 0.0
H862 H 0.7248 0.45064 0.45566 0.0
H863 H 0.73402 0.67068 0.45405 0.0
H864 H 0.90695 0.42505 0.44235 0.0
H865 H 0.82491 0.38388 0.44659 0.0
H866 H 0.87547 0.41005 0.4685 0.0
H867 H 0.89886 0.69043 0.46656 0.0
H868 H 0.83882 0.72952 0.44878 0.0
H869 H 0.91129 0.68221 0.43891 0.0
H870 H 0.32354 0.69599 0.41263 0.0
H871 H 0.26126 0.65943 0.38008 0.0
H872 H 0.33649 0.6132 0.37167 0.0
H873 H 0.33845 0.7057 0.37383 0.0
H874 H 0.21328 0.68714 0.41677 0.0
H875 H 0.26466 0.47413 0.42485 0.0
H876 H 0.04283 0.67672 0.42512 0.0
H877 H 0.11232 0.73495 0.42955 0.0
H878 H 0.07151 0.69037 0.45126 0.0
H879 H 0.17233 0.39354 0.43267 0.0
H880 H 0.09061 0.42286 0.44254 0.0
H881 H 0.16455 0.42159 0.45918 0.0
H882 H 0.33963 0.4323 0.60934 0.0
H883 H 0.27672 0.51003 0.58902 0.0
H884 H 0.27739 0.33051 0.5508 0.0
H885 H 0.15198 0.60475 0.5582 0.0
H886 H 0.20796 0.60641 0.58054 0.0
H887 H 0.1247 0.56772 0.58275 0.0
H888 H 0.18388 0.3037 0.52931 0.0
H889 H 0.16726 0.37819 0.51336 0.0
H890 H 0.10552 0.35139 0.5327 0.0
H891 H 0.67669 0.42701 0.55711 0.0
H892 H 0.55795 0.45534 0.5603 0.0
H893 H 0.60512 0.53251 0.55476 0.0
H894 H 0.57419 0.51622 0.58104 0.0
H895 H 0.7971 0.6006 0.58183 0.0
H896 H 0.78036 0.38654 0.56746 0.0
H897 H 0.93311 0.64153 0.55511 0.0
H898 H 0.98348 0.60766 0.57621 0.0
H899 H 0.90659 0.65634 0.58174 0.0
H900 H 0.87663 0.32054 0.55735 0.0
H901 H 0.96105 0.35885 0.55771 0.0
H902 H 0.90747 0.37018 0.5353 0.0
H903 H 0.98553 0.56201 0.43084 0.0
H904 H 0.18344 0.54397 0.4762 0.0
H905 H 0.19946 0.51465 0.51238 0.0
H906 H 0.04837 0.46777 0.57086 0.0
H907 H 0.85633 0.52649 0.5278 0.0
H908 H 0.83974 0.54884 0.49197 0.0
H909 H 0.45346 0.49493 0.60374 0.0
H910 H 0.39057 0.52174 0.58515 0.0
H911 H 0.45554 0.46253 0.57729 0.0
Fe912 Fe 0.0277 0.74655 0.1628 0.0
O913 O 0.04633 0.7256 0.13202 0.0
Fe914 Fe 0.85483 0.7366 0.14117 0.0
Fe915 Fe 0.14568 0.71942 0.12143 0.0
O916 O 0.94844 0.78383 0.14565 0.0
O917 O 0.92505 0.6946 0.12087 0.0
O918 O 0.04008 0.74896 0.11986 0.0
Fe919 Fe 0.96555 0.74083 0.09417 0.0
C920 C 0.13904 0.84518 0.15138 0.0
O921 O 0.11745 0.70217 0.17277 0.0
O922 O 0.14352 0.64451 0.14412 0.0
O923 O 0.87724 0.7091 0.07884 0.0
O924 O 0.8776 0.69265 0.11209 0.0
O925 O 0.87247 0.64685 0.15774 0.0
O926 O 0.98292 0.65093 0.16717 0.0
O927 O 0.12206 0.64275 0.10037 0.0
O928 O 0.01467 0.65016 0.08661 0.0
C929 C 0.9257 0.61969 0.16572 0.0
O930 O 0.9163 0.83474 0.09991 0.0
O931 O 0.83208 0.82305 0.12413 0.0
O932 O 0.07729 0.83902 0.15811 0.0
O933 O 0.17161 0.79686 0.14212 0.0
C934 C 0.14037 0.64862 0.16392 0.0
C935 C 0.07268 0.62015 0.0892 0.0
C936 C 0.10354 0.80923 0.09079 0.0
O937 O 0.1601 0.79104 0.09774 0.0
O938 O 0.05429 0.78601 0.10187 0.0
C939 C 0.84154 0.69429 0.09484 0.0
O940 O 0.82025 0.78225 0.16844 0.0
O941 O 0.92801 0.79078 0.1606 0.0
C942 C 0.86207 0.85591 0.10934 0.0
C943 C 0.87911 0.79846 0.17489 0.0
Fe944 Fe 0.54537 0.73868 0.4086 0.0
O945 O 0.58319 0.65588 0.39478 0.0
Fe946 Fe 0.5996 0.87292 0.37619 0.0
Fe947 Fe 0.54891 0.56215 0.39768 0.0
O948 O 0.5541 0.78247 0.38014 0.0
O949 O 0.55654 0.78074 0.3777 0.0
O950 O 0.58265 0.65454 0.39327 0.0
Fe951 Fe 0.60792 0.70039 0.36641 0.0
C952 C 0.57406 0.62426 0.44112 0.0
O953 O 0.44747 0.70806 0.40227 0.0
O954 O 0.45042 0.59316 0.40644 0.0
O955 O 0.5962 0.75934 0.33715 0.0
O956 O 0.55955 0.86777 0.34649 0.0
O957 O 0.51068 0.90489 0.39074 0.0
O958 O 0.50292 0.83144 0.4192 0.0
O959 O 0.51499 0.5544 0.36748 0.0
O960 O 0.52772 0.65584 0.35061 0.0
C961 C 0.48173 0.8836 0.40801 0.0
O962 O 0.66598 0.7495 0.34406 0.0
O963 O 0.69382 0.83706 0.36434 0.0
O964 O 0.54626 0.68367 0.437 0.0
O965 O 0.58067 0.57458 0.42799 0.0
C966 C 0.41789 0.65015 0.40468 0.0
C967 C 0.50469 0.59435 0.35188 0.0
C968 C 0.67874 0.5585 0.36995 0.0
O969 O 0.64465 0.5362 0.38622 0.0
O970 O 0.66435 0.61298 0.35886 0.0
C971 C 0.56505 0.8186 0.33308 0.0
O972 O 0.64592 0.87465 0.40528 0.0
O973 O 0.64317 0.7659 0.41563 0.0
C974 C 0.71046 0.79238 0.35072 0.0
C975 C 0.67088 0.82449 0.41556 0.0
Fe976 Fe 0.56678 0.27336 0.65587 0.0
O977 O 0.61132 0.32638 0.63255 0.0
Fe978 Fe 0.41122 0.22562 0.63307 0.0
Fe979 Fe 0.70559 0.35369 0.63231 0.0
O980 O 0.50529 0.25112 0.63234 0.0
O981 O 0.51073 0.24014 0.63039 0.0
O982 O 0.60856 0.33157 0.6302 0.0
Fe983 Fe 0.55928 0.28883 0.60691 0.0
C984 C 0.60534 0.43257 0.66072 0.0
O985 O 0.63989 0.29175 0.67693 0.0
O986 O 0.72858 0.28179 0.65614 0.0
O987 O 0.50337 0.23076 0.58596 0.0
O988 O 0.43216 0.16492 0.60718 0.0
O989 O 0.43835 0.15149 0.65516 0.0
O990 O 0.5123 0.20885 0.67659 0.0
O991 O 0.73241 0.27846 0.61115 0.0
O992 O 0.63632 0.21637 0.60543 0.0
C993 C 0.47316 0.15706 0.67224 0.0
O994 O 0.48386 0.36349 0.60704 0.0
O995 O 0.38628 0.3044 0.61249 0.0
O996 O 0.55787 0.38366 0.66183 0.0
O997 O 0.66761 0.42407 0.65367 0.0
C998 C 0.69412 0.26014 0.67199 0.0
C999 C 0.70127 0.22547 0.60419 0.0
C1000 C 0.65176 0.40333 0.58926 0.0
O1001 O 0.68243 0.41585 0.60676 0.0
O1002 O 0.6134 0.3504 0.58572 0.0
C1003 C 0.46569 0.17704 0.58984 0.0
O1004 O 0.39621 0.29313 0.65753 0.0
O1005 O 0.496 0.34754 0.66508 0.0
C1006 C 0.41863 0.35804 0.6063 0.0
C1007 C 0.43041 0.33934 0.6671 0.0
Fe1008 Fe 0.96253 0.29842 0.91546 0.0
O1009 O 0.96771 0.24018 0.88901 0.0
Fe1010 Fe 0.05416 0.44482 0.88461 0.0
Fe1011 Fe 0.93961 0.14142 0.88717 0.0
O1012 O 0.03534 0.34341 0.89469 0.0
O1013 O 0.01873 0.35327 0.88569 0.0
O1014 O 0.97265 0.23418 0.88768 0.0
Fe1015 Fe 0.04872 0.27298 0.86982 0.0
C1016 C 0.00765 0.15572 0.93002 0.0
O1017 O 0.87215 0.24857 0.92308 0.0
O1018 O 0.84461 0.17712 0.89649 0.0
O1019 O 0.98459 0.32605 0.84856 0.0
O1020 O 0.01717 0.43682 0.85445 0.0
O1021 O 0.95818 0.4758 0.89418 0.0
O1022 O 0.90121 0.37885 0.90426 0.0
O1023 O 0.92041 0.15834 0.85568 0.0
O1024 O 0.97742 0.25692 0.84548 0.0
C1025 C 0.9035 0.44298 0.89933 0.0
O1026 O 0.12637 0.32133 0.85378 0.0
O1027 O 0.14979 0.41094 0.87473 0.0
O1028 O 0.02011 0.2199 0.92825 0.0
O1029 O 0.96596 0.12387 0.91818 0.0
C1030 C 0.82878 0.21534 0.91211 0.0
C1031 C 0.93946 0.20297 0.84172 0.0
C1032 C 0.08018 0.12531 0.86499 0.0
O1033 O 0.0359 0.10661 0.87876 0.0
O1034 O 0.07998 0.18417 0.85611 0.0
C1035 C 0.97952 0.39224 0.84535 0.0
O1036 O 0.08626 0.4543 0.91534 0.0
O1037 O 0.05878 0.34756 0.91835 0.0
C1038 C 0.16727 0.36624 0.86105 0.0
C1039 C 0.07257 0.4038 0.92738 0.0
loop_
_geom_bond_atom_site_label_1
_geom_bond_atom_site_label_2
_geom_bond_distance
_geom_bond_site_symmetry_2
_ccdc_geom_bond_type
C0 C1 1.560 . S
C0 H61 0.959 . S
C0 H62 0.959 . S
C0 H63 0.960 . S
C1 C0 1.560 . S
C1 O56 1.426 . S
C1 H60 0.980 . S
C2 C3 1.407 . S
C2 C7 1.418 . S
C2 O56 1.334 . S
C3 C2 1.407 . S
C3 C4 1.360 . S
C3 H64 0.929 . S
C4 C3 1.360 . S
C4 C5 1.401 . S
C4 C8 1.527 . S
C5 C4 1.401 . S
C5 C6 1.405 . S
C5 C38 1.587 . S
C6 C5 1.405 . S
C6 C7 1.332 . S
C6 C9 1.496 1_565 S
C7 C2 1.418 . S
C7 C6 1.332 . S
C7 H65 0.929 1_565 S
C8 C4 1.527 . S
C8 H66 0.959 . S
C8 H67 0.961 . S
C8 H68 0.961 . S
C9 C6 1.496 1_545 S
C9 H69 0.960 . S
C9 H70 0.960 . S
C9 H71 0.961 . S
C10 C11 1.517 . S
C10 H73 0.961 . S
C10 H74 0.960 . S
C10 H75 0.959 . S
C11 C10 1.517 . S
C11 O59 1.468 . S
C11 H72 0.980 . S
C12 C13 1.349 . S
C12 C17 1.367 . S
C12 O59 1.408 . S
C13 C12 1.349 . S
C13 C14 1.407 . S
C13 H76 0.930 . S
C14 C13 1.407 . S
C14 C15 1.449 . S
C14 C18 1.535 . S
C15 C14 1.449 . S
C15 C16 1.384 . S
C15 C40 1.553 . S
C16 C15 1.384 . S
C16 C17 1.364 . S
C16 C19 1.450 . S
C17 C12 1.367 . S
C17 C16 1.364 . S
C17 H77 0.931 . S
C18 C14 1.535 . S
C18 H78 0.959 . S
C18 H79 0.961 . S
C18 H80 0.959 . S
C19 C16 1.450 . S
C19 H81 0.960 . S
C19 H82 0.960 . S
C19 H83 0.960 . S
C20 C21 1.309 . S
C20 C25 1.304 . S
C20 O58 1.435 . S
C21 C20 1.309 . S
C21 C22 1.476 . S
C21 H85 0.930 . S
C22 C21 1.476 . S
C22 C23 1.400 . S
C22 C26 1.567 . S
C23 C22 1.400 . S
C23 C24 1.373 . S
C23 C45 1.432 . S
C24 C23 1.373 . S
C24 C25 1.339 . S
C24 C27 1.530 1_545 S
C25 C20 1.304 . S
C25 C24 1.339 . S
C25 H86 0.930 . S
C26 C22 1.567 . S
C26 H87 0.961 . S
C26 H88 0.960 . S
C26 H89 0.958 . S
C27 C24 1.530 1_565 S
C27 H90 0.961 . S
C27 H91 0.960 . S
C27 H92 0.960 . S
C28 C29 1.530 . S
C28 H94 0.961 . S
C28 H95 0.961 . S
C28 H96 0.959 . S
C29 C28 1.530 . S
C29 O57 1.412 . S
C29 H93 0.980 . S
C30 C31 1.288 . S
C30 C35 1.377 . S
C30 O57 1.393 . S
C31 C30 1.288 . S
C31 C32 1.369 . S
C31 H97 0.932 . S
C32 C31 1.369 . S
C32 C33 1.398 . S
C32 C36 1.527 . S
C33 C32 1.398 . S
C33 C34 1.380 . S
C33 C47 1.497 . S
C34 C33 1.380 . S
C34 C35 1.383 . S
C34 C37 1.603 1_545 S
C35 C30 1.377 . S
C35 C34 1.383 . S
C35 H98 0.929 . S
C36 C32 1.527 . S
C36 H99 0.961 . S
C36 H100 0.959 . S
C36 H101 0.959 . S
C37 C34 1.603 1_565 S
C37 H102 0.960 . S
C37 H103 0.962 . S
C37 H104 0.961 . S
C38 C5 1.587 . S
C38 C39 1.360 1_655 S
C38 C51 1.412 . S
C39 C38 1.360 1_455 S
C39 C40 1.365 . S
C39 H105 0.929 . S
C40 C15 1.553 . S
C40 C39 1.365 . S
C40 C41 1.404 . S
C41 C40 1.404 . S
C41 C42 1.395 . S
C41 C52 1.451 . S
C42 C41 1.395 . S
C42 C43 1.322 . S
C42 H106 0.930 . S
C43 C42 1.322 . S
C43 C44 1.459 1_565 S
C43 H107 0.929 . S
C44 C43 1.459 1_545 S
C44 C45 1.445 . S
C44 C53 1.395 1_545 S
C45 C23 1.432 . S
C45 C44 1.445 . S
C45 C46 1.370 . S
C46 C45 1.370 . S
C46 C47 1.438 1_455 S
C46 H108 0.930 . S
C47 C33 1.497 . S
C47 C46 1.438 1_655 S
C47 C48 1.360 . S
C48 C47 1.360 . S
C48 C49 1.401 . S
C48 C53 1.446 1_645 S
C49 C48 1.401 . S
C49 C50 1.347 1_545 S
C49 H109 0.929 . S
C50 C49 1.347 1_565 S
C50 C51 1.455 . S
C50 H110 0.930 . S
C51 C38 1.412 . S
C51 C50 1.455 . S
C51 C52 1.331 1_655 S
C52 C41 1.451 . S
C52 C51 1.331 1_455 S
C52 C53 1.497 . S
C53 C44 1.395 1_565 S
C53 C48 1.446 1_465 S
C53 C52 1.497 . S
C54 C55 1.582 . S
C54 H111 0.962 . S
C54 H112 0.959 . S
C54 H113 0.958 . S
C55 C54 1.582 . S
C55 O58 1.458 . S
C55 H84 0.980 . S
O56 C1 1.426 . S
O56 C2 1.334 . S
O57 C29 1.412 . S
O57 C30 1.393 . S
O58 C20 1.435 . S
O58 C55 1.458 . S
O59 C11 1.468 . S
O59 C12 1.408 . S
H60 C1 0.980 . S
H61 C0 0.959 . S
H62 C0 0.959 . S
H63 C0 0.960 . S
H64 C3 0.929 . S
H65 C7 0.929 1_545 S
H66 C8 0.959 . S
H67 C8 0.961 . S
H68 C8 0.961 . S
H69 C9 0.960 . S
H70 C9 0.960 . S
H71 C9 0.961 . S
H72 C11 0.980 . S
H73 C10 0.961 . S
H74 C10 0.960 . S
H75 C10 0.959 . S
H76 C13 0.930 . S
H77 C17 0.931 . S
H78 C18 0.959 . S
H79 C18 0.961 . S
H80 C18 0.959 . S
H81 C19 0.960 . S
H82 C19 0.960 . S
H83 C19 0.960 . S
H84 C55 0.980 . S
H85 C21 0.930 . S
H86 C25 0.930 . S
H87 C26 0.961 . S
H88 C26 0.960 . S
H89 C26 0.958 . S
H90 C27 0.961 . S
H91 C27 0.960 . S
H92 C27 0.960 . S
H93 C29 0.980 . S
H94 C28 0.961 . S
H95 C28 0.961 . S
H96 C28 0.959 . S
H97 C31 0.932 . S
H98 C35 0.929 . S
H99 C36 0.961 . S
H100 C36 0.959 . S
H101 C36 0.959 . S
H102 C37 0.960 . S
H103 C37 0.962 . S
H104 C37 0.961 . S
H105 C39 0.929 . S
H106 C42 0.930 . S
H107 C43 0.929 . S
H108 C46 0.930 . S
H109 C49 0.929 . S
H110 C50 0.930 . S
H111 C54 0.962 . S
H112 C54 0.959 . S
H113 C54 0.958 . S
C114 C115 1.560 1_655 S
C114 H175 0.959 . S
C114 H176 0.959 . S
C114 H177 0.960 . S
C115 C114 1.560 1_455 S
C115 O170 1.426 . S
C115 H174 0.980 . S
C116 C117 1.407 . S
C116 C121 1.418 . S
C116 O170 1.334 1_565 S
C117 C116 1.407 . S
C117 C118 1.360 . S
C117 H178 0.929 1_565 S
C118 C117 1.360 . S
C118 C119 1.401 . S
C118 C122 1.527 . S
C119 C118 1.401 . S
C119 C120 1.405 . S
C119 C152 1.587 . S
C120 C119 1.405 . S
C120 C121 1.332 . S
C120 C123 1.496 . S
C121 C116 1.418 . S
C121 C120 1.332 . S
C121 H179 0.929 . S
C122 C118 1.527 . S
C122 H180 0.959 . S
C122 H181 0.961 . S
C122 H182 0.961 . S
C123 C120 1.496 . S
C123 H183 0.960 . S
C123 H184 0.960 . S
C123 H185 0.961 . S
C124 C125 1.517 . S
C124 H187 0.961 . S
C124 H188 0.960 . S
C124 H189 0.959 . S
C125 C124 1.517 . S
C125 O173 1.468 . S
C125 H186 0.980 . S
C126 C127 1.349 . S
C126 C131 1.367 . S
C126 O173 1.408 . S
C127 C126 1.349 . S
C127 C128 1.407 . S
C127 H190 0.930 . S
C128 C127 1.407 . S
C128 C129 1.449 . S
C128 C132 1.535 . S
C129 C128 1.449 . S
C129 C130 1.384 . S
C129 C154 1.553 . S
C130 C129 1.384 . S
C130 C131 1.364 . S
C130 C133 1.450 . S
C131 C126 1.367 . S
C131 C130 1.364 . S
C131 H191 0.931 . S
C132 C128 1.535 . S
C132 H192 0.959 . S
C132 H193 0.961 . S
C132 H194 0.959 . S
C133 C130 1.450 . S
C133 H195 0.960 . S
C133 H196 0.960 . S
C133 H197 0.960 . S
C134 C135 1.309 . S
C134 C139 1.304 . S
C134 O172 1.435 . S
C135 C134 1.309 . S
C135 C136 1.476 . S
C135 H199 0.930 . S
C136 C135 1.476 . S
C136 C137 1.400 . S
C136 C140 1.567 . S
C137 C136 1.400 . S
C137 C138 1.373 . S
C137 C159 1.432 . S
C138 C137 1.373 . S
C138 C139 1.339 . S
C138 C141 1.530 . S
C139 C134 1.304 . S
C139 C138 1.339 . S
C139 H200 0.930 . S
C140 C136 1.567 . S
C140 H201 0.961 . S
C140 H202 0.960 . S
C140 H203 0.958 . S
C141 C138 1.530 . S
C141 H204 0.961 . S
C141 H205 0.960 . S
C141 H206 0.960 . S
C142 C143 1.530 . S
C142 H208 0.961 . S
C142 H209 0.961 . S
C142 H210 0.959 . S
C143 C142 1.530 . S
C143 O171 1.412 . S
C143 H207 0.980 . S
C144 C145 1.288 . S
C144 C149 1.377 . S
C144 O171 1.393 1_565 S
C145 C144 1.288 . S
C145 C146 1.369 . S
C145 H211 0.932 . S
C146 C145 1.369 . S
C146 C147 1.398 . S
C146 C150 1.527 . S
C147 C146 1.398 . S
C147 C148 1.380 . S
C147 C161 1.497 . S
C148 C147 1.380 . S
C148 C149 1.383 . S
C148 C151 1.603 . S
C149 C144 1.377 . S
C149 C148 1.383 . S
C149 H212 0.929 1_565 S
C150 C146 1.527 . S
C150 H213 0.961 . S
C150 H214 0.959 . S
C150 H215 0.959 . S
C151 C148 1.603 . S
C151 H216 0.960 . S
C151 H217 0.962 . S
C151 H218 0.961 . S
C152 C119 1.587 . S
C152 C153 1.360 . S
C152 C165 1.412 . S
C153 C152 1.360 . S
C153 C154 1.365 . S
C153 H219 0.929 . S
C154 C129 1.553 . S
C154 C153 1.365 . S
C154 C155 1.404 . S
C155 C154 1.404 . S
C155 C156 1.395 . S
C155 C166 1.451 . S
C156 C155 1.395 . S
C156 C157 1.322 . S
C156 H220 0.930 . S
C157 C156 1.322 . S
C157 C158 1.459 . S
C157 H221 0.929 . S
C158 C157 1.459 . S
C158 C159 1.445 . S
C158 C167 1.395 . S
C159 C137 1.432 . S
C159 C158 1.445 . S
C159 C160 1.370 . S
C160 C159 1.370 . S
C160 C161 1.438 . S
C160 H222 0.930 . S
C161 C147 1.497 . S
C161 C160 1.438 . S
C161 C162 1.360 . S
C162 C161 1.360 . S
C162 C163 1.401 . S
C162 C167 1.446 . S
C163 C162 1.401 . S
C163 C164 1.347 . S
C163 H223 0.929 . S
C164 C163 1.347 . S
C164 C165 1.455 . S
C164 H224 0.930 . S
C165 C152 1.412 . S
C165 C164 1.455 . S
C165 C166 1.331 . S
C166 C155 1.451 . S
C166 C165 1.331 . S
C166 C167 1.497 . S
C167 C158 1.395 . S
C167 C162 1.446 . S
C167 C166 1.497 . S
C168 C169 1.582 . S
C168 H225 0.962 . S
C168 H226 0.959 . S
C168 H227 0.958 . S
C169 C168 1.582 . S
C169 O172 1.458 . S
C169 H198 0.980 . S
O170 C115 1.426 . S
O170 C116 1.334 1_545 S
O171 C143 1.412 . S
O171 C144 1.393 1_545 S
O172 C134 1.435 . S
O172 C169 1.458 . S
O173 C125 1.468 . S
O173 C126 1.408 . S
H174 C115 0.980 . S
H175 C114 0.959 . S
H176 C114 0.959 . S
H177 C114 0.960 . S
H178 C117 0.929 1_545 S
H179 C121 0.929 . S
H180 C122 0.959 . S
H181 C122 0.961 . S
H182 C122 0.961 . S
H183 C123 0.960 . S
H184 C123 0.960 . S
H185 C123 0.961 . S
H186 C125 0.980 . S
H187 C124 0.961 . S
H188 C124 0.960 . S
H189 C124 0.959 . S
H190 C127 0.930 . S
H191 C131 0.931 . S
H192 C132 0.959 . S
H193 C132 0.961 . S
H194 C132 0.959 . S
H195 C133 0.960 . S
H196 C133 0.960 . S
H197 C133 0.960 . S
H198 C169 0.980 . S
H199 C135 0.930 . S
H200 C139 0.930 . S
H201 C140 0.961 . S
H202 C140 0.960 . S
H203 C140 0.958 . S
H204 C141 0.961 . S
H205 C141 0.960 . S
H206 C141 0.960 . S
H207 C143 0.980 . S
H208 C142 0.961 . S
H209 C142 0.961 . S
H210 C142 0.959 . S
H211 C145 0.932 . S
H212 C149 0.929 1_545 S
H213 C150 0.961 . S
H214 C150 0.959 . S
H215 C150 0.959 . S
H216 C151 0.960 . S
H217 C151 0.962 . S
H218 C151 0.961 . S
H219 C153 0.929 . S
H220 C156 0.930 . S
H221 C157 0.929 . S
H222 C160 0.930 . S
H223 C163 0.929 . S
H224 C164 0.930 . S
H225 C168 0.962 . S
H226 C168 0.959 . S
H227 C168 0.958 . S
C228 C229 1.560 . S
C228 H289 0.959 . S
C228 H290 0.959 . S
C228 H291 0.960 . S
C229 C228 1.560 . S
C229 O284 1.426 . S
C229 H288 0.980 . S
C230 C231 1.407 . S
C230 C235 1.418 . S
C230 O284 1.334 . S
C231 C230 1.407 . S
C231 C232 1.360 . S
C231 H292 0.929 . S
C232 C231 1.360 . S
C232 C233 1.401 . S
C232 C236 1.527 . S
C233 C232 1.401 . S
C233 C234 1.405 . S
C233 C266 1.587 . S
C234 C233 1.405 . S
C234 C235 1.332 . S
C234 C237 1.496 1_565 S
C235 C230 1.418 . S
C235 C234 1.332 . S
C235 H293 0.929 . S
C236 C232 1.527 . S
C236 H294 0.959 . S
C236 H295 0.961 . S
C236 H296 0.961 . S
C237 C234 1.496 1_545 S
C237 H297 0.960 . S
C237 H298 0.960 1_545 S
C237 H299 0.961 . S
C238 C239 1.517 . S
C238 H301 0.961 . S
C238 H302 0.960 . S
C238 H303 0.959 . S
C239 C238 1.517 . S
C239 O287 1.468 . S
C239 H300 0.980 . S
C240 C241 1.349 . S
C240 C245 1.367 . S
C240 O287 1.408 . S
C241 C240 1.349 . S
C241 C242 1.407 . S
C241 H304 0.930 . S
C242 C241 1.407 . S
C242 C243 1.449 . S
C242 C246 1.535 . S
C243 C242 1.449 . S
C243 C244 1.384 . S
C243 C268 1.553 . S
C244 C243 1.384 . S
C244 C245 1.364 . S
C244 C247 1.450 . S
C245 C240 1.367 . S
C245 C244 1.364 . S
C245 H305 0.931 . S
C246 C242 1.535 . S
C246 H306 0.959 . S
C246 H307 0.961 . S
C246 H308 0.959 . S
C247 C244 1.450 . S
C247 H309 0.960 . S
C247 H310 0.960 . S
C247 H311 0.960 . S
C248 C249 1.309 . S
C248 C253 1.304 . S
C248 O286 1.435 . S
C249 C248 1.309 . S
C249 C250 1.476 . S
C249 H313 0.930 . S
C250 C249 1.476 . S
C250 C251 1.400 . S
C250 C254 1.567 . S
C251 C250 1.400 . S
C251 C252 1.373 . S
C251 C273 1.432 . S
C252 C251 1.373 . S
C252 C253 1.339 . S
C252 C255 1.530 1_545 S
C253 C248 1.304 . S
C253 C252 1.339 . S
C253 H314 0.930 1_545 S
C254 C250 1.567 . S
C254 H315 0.961 . S
C254 H316 0.960 . S
C254 H317 0.958 . S
C255 C252 1.530 1_565 S
C255 H318 0.961 . S
C255 H319 0.960 . S
C255 H320 0.960 . S
C256 C257 1.530 . S
C256 H322 0.961 . S
C256 H323 0.961 . S
C256 H324 0.959 . S
C257 C256 1.530 . S
C257 O285 1.412 . S
C257 H321 0.980 . S
C258 C259 1.288 . S
C258 C263 1.377 . S
C258 O285 1.393 . S
C259 C258 1.288 . S
C259 C260 1.369 . S
C259 H325 0.932 . S
C260 C259 1.369 . S
C260 C261 1.398 . S
C260 C264 1.527 . S
C261 C260 1.398 . S
C261 C262 1.380 . S
C261 C275 1.497 . S
C262 C261 1.380 . S
C262 C263 1.383 . S
C262 C265 1.603 1_545 S
C263 C258 1.377 . S
C263 C262 1.383 . S
C263 H326 0.929 . S
C264 C260 1.527 . S
C264 H327 0.961 . S
C264 H328 0.959 . S
C264 H329 0.959 . S
C265 C262 1.603 1_565 S
C265 H330 0.960 . S
C265 H331 0.962 . S
C265 H332 0.961 . S
C266 C233 1.587 . S
C266 C267 1.360 . S
C266 C279 1.412 . S
C267 C266 1.360 . S
C267 C268 1.365 . S
C267 H333 0.929 . S
C268 C243 1.553 . S
C268 C267 1.365 . S
C268 C269 1.404 . S
C269 C268 1.404 . S
C269 C270 1.395 . S
C269 C280 1.451 . S
C270 C269 1.395 . S
C270 C271 1.322 1_554 S
C270 H334 0.930 . S
C271 C270 1.322 1_556 S
C271 C272 1.459 . S
C271 H335 0.929 . S
C272 C271 1.459 . S
C272 C273 1.445 1_565 S
C272 C281 1.395 . S
C273 C251 1.432 . S
C273 C272 1.445 1_545 S
C273 C274 1.370 . S
C274 C273 1.370 . S
C274 C275 1.438 . S
C274 H336 0.930 . S
C275 C261 1.497 . S
C275 C274 1.438 . S
C275 C276 1.360 . S
C276 C275 1.360 . S
C276 C277 1.404 1_556 S
C276 C281 1.446 1_545 S
C277 C276 1.404 1_554 S
C277 C278 1.338 1_545 S
C277 H337 0.936 1_554 S
C278 C277 1.338 1_565 S
C278 C279 1.455 . S
C278 H338 0.930 . S
C279 C266 1.412 . S
C279 C278 1.455 . S
C279 C280 1.331 . S
C280 C269 1.451 . S
C280 C279 1.331 . S
C280 C281 1.497 1_554 S
C281 C272 1.395 . S
C281 C276 1.446 1_565 S
C281 C280 1.497 1_556 S
C282 C283 1.582 . S
C282 H339 0.962 . S
C282 H340 0.959 . S
C282 H341 0.958 . S
C283 C282 1.582 . S
C283 O286 1.458 . S
C283 H312 0.980 . S
O284 C229 1.426 . S
O284 C230 1.334 . S
O285 C257 1.412 . S
O285 C258 1.393 . S
O286 C248 1.435 . S
O286 C283 1.458 . S
O287 C239 1.468 . S
O287 C240 1.408 . S
H288 C229 0.980 . S
H289 C228 0.959 . S
H290 C228 0.959 . S
H291 C228 0.960 . S
H292 C231 0.929 . S
H293 C235 0.929 . S
H294 C236 0.959 . S
H295 C236 0.961 . S
H296 C236 0.961 . S
H297 C237 0.960 . S
H298 C237 0.960 1_565 S
H299 C237 0.961 . S
H300 C239 0.980 . S
H301 C238 0.961 . S
H302 C238 0.960 . S
H303 C238 0.959 . S
H304 C241 0.930 . S
H305 C245 0.931 . S
H306 C246 0.959 . S
H307 C246 0.961 . S
H308 C246 0.959 . S
H309 C247 0.960 . S
H310 C247 0.960 . S
H311 C247 0.960 . S
H312 C283 0.980 . S
H313 C249 0.930 . S
H314 C253 0.930 1_565 S
H315 C254 0.961 . S
H316 C254 0.960 . S
H317 C254 0.958 . S
H318 C255 0.961 . S
H319 C255 0.960 . S
H320 C255 0.960 . S
H321 C257 0.980 . S
H322 C256 0.961 . S
H323 C256 0.961 . S
H324 C256 0.959 . S
H325 C259 0.932 . S
H326 C263 0.929 . S
H327 C264 0.961 . S
H328 C264 0.959 . S
H329 C264 0.959 . S
H330 C265 0.960 . S
H331 C265 0.962 . S
H332 C265 0.961 . S
H333 C267 0.929 . S
H334 C270 0.930 . S
H335 C271 0.929 . S
H336 C274 0.930 . S
H337 C277 0.936 1_556 S
H338 C278 0.930 . S
H339 C282 0.962 . S
H340 C282 0.959 . S
H341 C282 0.958 . S
C342 C343 1.560 . S
C342 H403 0.959 1_455 S
C342 H404 0.959 1_455 S
C342 H405 0.960 . S
C343 C342 1.560 . S
C343 O398 1.426 . S
C343 H402 0.980 . S
C344 C345 1.407 . S
C344 C349 1.418 . S
C344 O398 1.334 1_545 S
C345 C344 1.407 . S
C345 C346 1.360 . S
C345 H406 0.918 1_545 S
C346 C345 1.360 . S
C346 C347 1.401 . S
C346 C350 1.527 . S
C347 C346 1.401 . S
C347 C348 1.405 . S
C347 C380 1.587 . S
C348 C347 1.405 . S
C348 C349 1.332 . S
C348 C351 1.496 . S
C349 C344 1.418 . S
C349 C348 1.332 . S
C349 H407 0.929 . S
C350 C346 1.527 . S
C350 H408 0.959 . S
C350 H409 0.961 . S
C350 H410 0.961 . S
C351 C348 1.496 . S
C351 H411 0.960 . S
C351 H412 0.960 . S
C351 H413 0.961 . S
C352 C353 1.517 . S
C352 H415 0.961 . S
C352 H416 0.960 . S
C352 H417 0.959 . S
C353 C352 1.517 . S
C353 O401 1.468 . S
C353 H414 0.980 . S
C354 C355 1.349 . S
C354 C359 1.367 . S
C354 O401 1.408 . S
C355 C354 1.349 . S
C355 C356 1.407 . S
C355 H418 0.930 . S
C356 C355 1.407 . S
C356 C357 1.449 . S
C356 C360 1.535 . S
C357 C356 1.449 . S
C357 C358 1.384 . S
C357 C382 1.553 . S
C358 C357 1.384 . S
C358 C359 1.364 . S
C358 C361 1.450 . S
C359 C354 1.367 . S
C359 C358 1.364 . S
C359 H419 0.931 . S
C360 C356 1.535 . S
C360 H420 0.959 . S
C360 H421 0.961 . S
C360 H422 0.959 . S
C361 C358 1.450 . S
C361 H423 0.960 . S
C361 H424 0.960 . S
C361 H425 0.960 . S
C362 C363 1.309 . S
C362 C367 1.304 . S
C362 O400 1.435 . S
C363 C362 1.309 . S
C363 C364 1.476 . S
C363 H427 0.930 . S
C364 C363 1.476 . S
C364 C365 1.400 . S
C364 C368 1.567 . S
C365 C364 1.400 . S
C365 C366 1.373 . S
C365 C387 1.432 . S
C366 C365 1.373 . S
C366 C367 1.339 . S
C366 C369 1.530 . S
C367 C362 1.304 . S
C367 C366 1.339 . S
C367 H428 0.930 . S
C368 C364 1.567 . S
C368 H429 0.961 . S
C368 H430 0.960 . S
C368 H431 0.958 . S
C369 C366 1.530 . S
C369 H432 0.961 . S
C369 H433 0.960 . S
C369 H434 0.960 . S
C370 C371 1.530 . S
C370 H436 0.961 . S
C370 H437 0.961 . S
C370 H438 0.959 . S
C371 C370 1.530 . S
C371 O399 1.412 . S
C371 H435 0.980 . S
C372 C373 1.288 . S
C372 C377 1.377 . S
C372 O399 1.393 1_545 S
C373 C372 1.288 . S
C373 C374 1.369 . S
C373 H439 0.932 . S
C374 C373 1.369 . S
C374 C375 1.398 . S
C374 C378 1.527 . S
C375 C374 1.398 . S
C375 C376 1.380 . S
C375 C389 1.497 . S
C376 C375 1.380 . S
C376 C377 1.383 . S
C376 C379 1.603 . S
C377 C372 1.377 . S
C377 C376 1.383 . S
C377 H440 0.929 . S
C378 C374 1.527 . S
C378 H441 0.961 . S
C378 H442 0.959 . S
C378 H443 0.959 . S
C379 C376 1.603 . S
C379 H444 0.960 . S
C379 H445 0.962 . S
C379 H446 0.961 . S
C380 C347 1.587 . S
C380 C381 1.360 . S
C380 C393 1.412 . S
C381 C380 1.360 . S
C381 C382 1.365 . S
C381 H447 0.929 . S
C382 C357 1.553 . S
C382 C381 1.365 . S
C382 C383 1.404 . S
C383 C382 1.404 . S
C383 C384 1.395 . S
C383 C394 1.451 . S
C384 C383 1.395 . S
C384 C385 1.322 . S
C384 H448 0.930 . S
C385 C384 1.322 . S
C385 C386 1.459 . S
C385 H449 0.929 . S
C386 C385 1.459 . S
C386 C387 1.445 . S
C386 C395 1.395 . S
C387 C365 1.432 . S
C387 C386 1.445 . S
C387 C388 1.370 . S
C388 C387 1.370 . S
C388 C389 1.438 . S
C388 H450 0.930 . S
C389 C375 1.497 . S
C389 C388 1.438 . S
C389 C390 1.360 . S
C390 C389 1.360 . S
C390 C391 1.401 . S
C390 C395 1.446 . S
C391 C390 1.401 . S
C391 C392 1.347 . S
C391 H451 0.929 . S
C392 C391 1.347 . S
C392 C393 1.455 . S
C392 H452 0.930 . S
C393 C380 1.412 . S
C393 C392 1.455 . S
C393 C394 1.331 . S
C394 C383 1.451 . S
C394 C393 1.331 . S
C394 C395 1.497 . S
C395 C386 1.395 . S
C395 C390 1.446 . S
C395 C394 1.497 . S
C396 C397 1.582 . S
C396 H453 0.962 . S
C396 H454 0.959 . S
C396 H455 0.958 . S
C397 C396 1.582 . S
C397 O400 1.458 . S
C397 H426 0.980 . S
O398 C343 1.426 . S
O398 C344 1.334 1_565 S
O399 C371 1.412 . S
O399 C372 1.393 1_565 S
O400 C362 1.435 . S
O400 C397 1.458 . S
O401 C353 1.468 . S
O401 C354 1.408 . S
H402 C343 0.980 . S
H403 C342 0.959 1_655 S
H404 C342 0.959 1_655 S
H405 C342 0.960 . S
H406 C345 0.918 1_565 S
H407 C349 0.929 . S
H408 C350 0.959 . S
H409 C350 0.961 . S
H410 C350 0.961 . S
H411 C351 0.960 . S
H412 C351 0.960 . S
H413 C351 0.961 . S
H414 C353 0.980 . S
H415 C352 0.961 . S
H416 C352 0.960 . S
H417 C352 0.959 . S
H418 C355 0.930 . S
H419 C359 0.931 . S
H420 C360 0.959 . S
H421 C360 0.961 . S
H422 C360 0.959 . S
H423 C361 0.960 . S
H424 C361 0.960 . S
H425 C361 0.960 . S
H426 C397 0.980 . S
H427 C363 0.930 . S
H428 C367 0.930 . S
H429 C368 0.961 . S
H430 C368 0.960 . S
H431 C368 0.958 . S
H432 C369 0.961 . S
H433 C369 0.960 . S
H434 C369 0.960 . S
H435 C371 0.980 . S
H436 C370 0.961 . S
H437 C370 0.961 . S
H438 C370 0.959 . S
H439 C373 0.932 . S
H440 C377 0.929 . S
H441 C378 0.961 . S
H442 C378 0.959 . S
H443 C378 0.959 . S
H444 C379 0.960 . S
H445 C379 0.962 . S
H446 C379 0.961 . S
H447 C381 0.929 . S
H448 C384 0.930 . S
H449 C385 0.929 . S
H450 C388 0.930 . S
H451 C391 0.929 . S
H452 C392 0.930 . S
H453 C396 0.962 . S
H454 C396 0.959 . S
H455 C396 0.958 . S
C456 C457 1.560 . S
C456 H517 0.959 . S
C456 H518 0.959 . S
C456 H519 0.960 . S
C457 C456 1.560 . S
C457 O512 1.426 . S
C457 H516 0.980 . S
C458 C459 1.407 . S
C458 C463 1.418 . S
C458 O512 1.334 . S
C459 C458 1.407 . S
C459 C460 1.360 . S
C459 H520 0.929 . S
C460 C459 1.360 . S
C460 C461 1.401 . S
C460 C464 1.527 . S
C461 C460 1.401 . S
C461 C462 1.405 . S
C461 C494 1.587 . S
C462 C461 1.405 . S
C462 C463 1.332 . S
C462 C465 1.496 . S
C463 C458 1.418 . S
C463 C462 1.332 . S
C463 H521 0.929 . S
C464 C460 1.527 . S
C464 H522 0.959 . S
C464 H523 0.961 . S
C464 H524 0.961 . S
C465 C462 1.496 . S
C465 H525 0.960 . S
C465 H526 0.960 . S
C465 H527 0.961 . S
C466 C467 1.517 . S
C466 H529 0.961 . S
C466 H530 0.960 . S
C466 H531 0.959 . S
C467 C466 1.517 . S
C467 O515 1.468 . S
C467 H528 0.980 . S
C468 C469 1.349 . S
C468 C473 1.367 . S
C468 O515 1.408 1_545 S
C469 C468 1.349 . S
C469 C470 1.407 . S
C469 H532 0.930 . S
C470 C469 1.407 . S
C470 C471 1.449 . S
C470 C474 1.535 . S
C471 C470 1.449 . S
C471 C472 1.384 . S
C471 C496 1.553 . S
C472 C471 1.384 . S
C472 C473 1.364 . S
C472 C475 1.450 . S
C473 C468 1.367 . S
C473 C472 1.364 . S
C473 H533 0.931 . S
C474 C470 1.535 . S
C474 H534 0.959 . S
C474 H535 0.961 . S
C474 H536 0.959 . S
C475 C472 1.450 . S
C475 H537 0.960 . S
C475 H538 0.960 . S
C475 H539 0.960 . S
C476 C477 1.310 . S
C476 C481 1.308 . S
C476 O514 1.429 1_545 S
C477 C476 1.310 . S
C477 C478 1.476 . S
C477 H541 0.930 1_545 S
C478 C477 1.476 . S
C478 C479 1.400 . S
C478 C482 1.567 . S
C479 C478 1.400 . S
C479 C480 1.373 . S
C479 C501 1.432 . S
C480 C479 1.373 . S
C480 C481 1.339 . S
C480 C483 1.530 1_655 S
C481 C476 1.308 . S
C481 C480 1.339 . S
C481 H542 0.930 1_655 S
C482 C478 1.567 . S
C482 H543 0.961 . S
C482 H544 0.960 . S
C482 H545 0.958 . S
C483 C480 1.530 1_455 S
C483 H546 0.961 . S
C483 H547 0.960 1_455 S
C483 H548 0.960 . S
C484 C485 1.530 . S
C484 H550 0.961 . S
C484 H551 0.961 . S
C484 H552 0.959 . S
C485 C484 1.530 . S
C485 O513 1.412 . S
C485 H549 0.980 . S
C486 C487 1.288 . S
C486 C491 1.377 . S
C486 O513 1.393 . S
C487 C486 1.288 . S
C487 C488 1.369 . S
C487 H553 0.932 . S
C488 C487 1.369 . S
C488 C489 1.398 . S
C488 C492 1.527 . S
C489 C488 1.398 . S
C489 C490 1.380 . S
C489 C503 1.497 . S
C490 C489 1.380 . S
C490 C491 1.383 . S
C490 C493 1.603 . S
C491 C486 1.377 . S
C491 C490 1.383 . S
C491 H554 0.929 . S
C492 C488 1.527 . S
C492 H555 0.961 . S
C492 H556 0.959 . S
C492 H557 0.959 . S
C493 C490 1.603 . S
C493 H558 0.960 1_655 S
C493 H559 0.962 . S
C493 H560 0.961 . S
C494 C461 1.587 . S
C494 C495 1.360 . S
C494 C507 1.412 . S
C495 C494 1.360 . S
C495 C496 1.365 . S
C495 H561 0.929 . S
C496 C471 1.553 . S
C496 C495 1.365 . S
C496 C497 1.404 . S
C497 C496 1.404 . S
C497 C498 1.395 . S
C497 C508 1.451 . S
C498 C497 1.395 . S
C498 C499 1.322 . S
C498 H562 0.930 . S
C499 C498 1.322 . S
C499 C500 1.459 . S
C499 H563 0.929 . S
C500 C499 1.459 . S
C500 C501 1.445 . S
C500 C509 1.395 . S
C501 C479 1.432 . S
C501 C500 1.445 . S
C501 C502 1.370 . S
C502 C501 1.370 . S
C502 C503 1.438 . S
C502 H564 0.930 . S
C503 C489 1.497 . S
C503 C502 1.438 . S
C503 C504 1.360 . S
C504 C503 1.360 . S
C504 C505 1.401 . S
C504 C509 1.446 . S
C505 C504 1.401 . S
C505 C506 1.347 . S
C505 H565 0.929 . S
C506 C505 1.347 . S
C506 C507 1.455 . S
C506 H566 0.930 . S
C507 C494 1.412 . S
C507 C506 1.455 . S
C507 C508 1.331 . S
C508 C497 1.451 . S
C508 C507 1.331 . S
C508 C509 1.497 . S
C509 C500 1.395 . S
C509 C504 1.446 . S
C509 C508 1.497 . S
C510 C511 1.582 . S
C510 H567 0.962 . S
C510 H568 0.959 . S
C510 H569 0.958 1_655 S
C511 C510 1.582 . S
C511 O514 1.458 . S
C511 H540 0.980 . S
O512 C457 1.426 . S
O512 C458 1.334 . S
O513 C485 1.412 . S
O513 C486 1.393 . S
O514 C476 1.429 1_565 S
O514 C511 1.458 . S
O515 C467 1.468 . S
O515 C468 1.408 1_565 S
H516 C457 0.980 . S
H517 C456 0.959 . S
H518 C456 0.959 . S
H519 C456 0.960 . S
H520 C459 0.929 . S
H521 C463 0.929 . S
H522 C464 0.959 . S
H523 C464 0.961 . S
H524 C464 0.961 . S
H525 C465 0.960 . S
H526 C465 0.960 . S
H527 C465 0.961 . S
H528 C467 0.980 . S
H529 C466 0.961 . S
H530 C466 0.960 . S
H531 C466 0.959 . S
H532 C469 0.930 . S
H533 C473 0.931 . S
H534 C474 0.959 . S
H535 C474 0.961 . S
H536 C474 0.959 . S
H537 C475 0.960 . S
H538 C475 0.960 . S
H539 C475 0.960 . S
H540 C511 0.980 . S
H541 C477 0.930 1_565 S
H542 C481 0.930 1_455 S
H543 C482 0.961 . S
H544 C482 0.960 . S
H545 C482 0.958 . S
H546 C483 0.961 . S
H547 C483 0.960 1_655 S
H548 C483 0.960 . S
H549 C485 0.980 . S
H550 C484 0.961 . S
H551 C484 0.961 . S
H552 C484 0.959 . S
H553 C487 0.932 . S
H554 C491 0.929 . S
H555 C492 0.961 . S
H556 C492 0.959 . S
H557 C492 0.959 . S
H558 C493 0.960 1_455 S
H559 C493 0.962 . S
H560 C493 0.961 . S
H561 C495 0.929 . S
H562 C498 0.930 . S
H563 C499 0.929 . S
H564 C502 0.930 . S
H565 C505 0.929 . S
H566 C506 0.930 . S
H567 C510 0.962 . S
H568 C510 0.959 . S
H569 C510 0.958 1_455 S
C570 C571 1.560 . S
C570 H631 0.959 . S
C570 H632 0.959 . S
C570 H633 0.960 . S
C571 C570 1.560 . S
C571 O626 1.426 . S
C571 H630 0.980 . S
C572 C573 1.407 . S
C572 C577 1.418 . S
C572 O626 1.334 . S
C573 C572 1.407 . S
C573 C574 1.360 . S
C573 H634 0.929 . S
C574 C573 1.360 . S
C574 C575 1.401 . S
C574 C578 1.527 . S
C575 C574 1.401 . S
C575 C576 1.405 . S
C575 C608 1.587 . S
C576 C575 1.405 . S
C576 C577 1.332 . S
C576 C579 1.496 . S
C577 C572 1.418 . S
C577 C576 1.332 . S
C577 H635 0.929 . S
C578 C574 1.527 . S
C578 H636 0.959 . S
C578 H637 0.961 . S
C578 H638 0.961 . S
C579 C576 1.496 . S
C579 H639 0.960 . S
C579 H640 0.960 . S
C579 H641 0.961 . S
C580 C581 1.517 . S
C580 H643 0.961 . S
C580 H644 0.960 . S
C580 H645 0.959 . S
C581 C580 1.517 . S
C581 O629 1.468 . S
C581 H642 0.980 . S
C582 C583 1.349 1_545 S
C582 C587 1.367 1_545 S
C582 O629 1.408 . S
C583 C582 1.349 1_565 S
C583 C584 1.407 . S
C583 H646 0.930 1_565 S
C584 C583 1.407 . S
C584 C585 1.449 . S
C584 C588 1.535 . S
C585 C584 1.449 . S
C585 C586 1.384 . S
C585 C610 1.553 . S
C586 C585 1.384 . S
C586 C587 1.364 . S
C586 C589 1.450 . S
C587 C582 1.367 1_565 S
C587 C586 1.364 . S
C587 H647 0.931 . S
C588 C584 1.535 . S
C588 H648 0.959 . S
C588 H649 0.961 . S
C588 H650 0.959 . S
C589 C586 1.450 . S
C589 H651 0.960 . S
C589 H652 0.960 . S
C589 H653 0.960 . S
C590 C591 1.309 1_545 S
C590 C595 1.304 1_545 S
C590 O628 1.435 . S
C591 C590 1.309 1_565 S
C591 C592 1.476 . S
C591 H655 0.930 1_565 S
C592 C591 1.476 . S
C592 C593 1.400 . S
C592 C596 1.567 . S
C593 C592 1.400 . S
C593 C594 1.373 . S
C593 C615 1.432 . S
C594 C593 1.373 . S
C594 C595 1.339 . S
C594 C597 1.530 1_655 S
C595 C590 1.304 1_565 S
C595 C594 1.339 . S
C595 H656 0.930 1_655 S
C596 C592 1.567 . S
C596 H657 0.961 . S
C596 H658 0.960 . S
C596 H659 0.958 . S
C597 C594 1.530 1_455 S
C597 H660 0.961 . S
C597 H661 0.960 . S
C597 H662 0.960 . S
C598 C599 1.530 . S
C598 H664 0.961 . S
C598 H665 0.961 . S
C598 H666 0.959 . S
C599 C598 1.530 . S
C599 O627 1.412 . S
C599 H663 0.980 . S
C600 C601 1.288 . S
C600 C605 1.377 . S
C600 O627 1.393 . S
C601 C600 1.288 . S
C601 C602 1.369 . S
C601 H667 0.932 . S
C602 C601 1.369 . S
C602 C603 1.398 . S
C602 C606 1.527 . S
C603 C602 1.398 . S
C603 C604 1.380 . S
C603 C617 1.497 . S
C604 C603 1.380 . S
C604 C605 1.383 . S
C604 C607 1.603 . S
C605 C600 1.377 . S
C605 C604 1.383 . S
C605 H668 0.929 . S
C606 C602 1.527 . S
C606 H669 0.961 . S
C606 H670 0.959 . S
C606 H671 0.959 . S
C607 C604 1.603 . S
C607 H672 0.960 1_655 S
C607 H673 0.962 . S
C607 H674 0.961 . S
C608 C575 1.587 . S
C608 C609 1.360 . S
C608 C621 1.412 . S
C609 C608 1.360 . S
C609 C610 1.365 . S
C609 H675 0.929 . S
C610 C585 1.553 . S
C610 C609 1.365 . S
C610 C611 1.404 . S
C611 C610 1.404 . S
C611 C612 1.395 . S
C611 C622 1.451 . S
C612 C611 1.395 . S
C612 C613 1.322 . S
C612 H676 0.930 . S
C613 C612 1.322 . S
C613 C614 1.459 . S
C613 H677 0.929 . S
C614 C613 1.459 . S
C614 C615 1.445 . S
C614 C623 1.395 . S
C615 C593 1.432 . S
C615 C614 1.445 . S
C615 C616 1.370 . S
C616 C615 1.370 . S
C616 C617 1.438 . S
C616 H678 0.930 . S
C617 C603 1.497 . S
C617 C616 1.438 . S
C617 C618 1.360 . S
C618 C617 1.360 . S
C618 C619 1.401 . S
C618 C623 1.446 . S
C619 C618 1.401 . S
C619 C620 1.347 . S
C619 H679 0.929 . S
C620 C619 1.347 . S
C620 C621 1.455 . S
C620 H680 0.930 . S
C621 C608 1.412 . S
C621 C620 1.455 . S
C621 C622 1.331 . S
C622 C611 1.451 . S
C622 C621 1.331 . S
C622 C623 1.497 . S
C623 C614 1.395 . S
C623 C618 1.446 . S
C623 C622 1.497 . S
C624 C625 1.571 1_455 S
C624 H681 0.959 1_455 S
C624 H682 0.957 1_455 S
C624 H683 0.973 . S
C625 C624 1.571 1_655 S
C625 O628 1.458 . S
C625 H654 0.980 . S
O626 C571 1.426 . S
O626 C572 1.334 . S
O627 C599 1.412 . S
O627 C600 1.393 . S
O628 C590 1.435 . S
O628 C625 1.458 . S
O629 C581 1.468 . S
O629 C582 1.408 . S
H630 C571 0.980 . S
H631 C570 0.959 . S
H632 C570 0.959 . S
H633 C570 0.960 . S
H634 C573 0.929 . S
H635 C577 0.929 . S
H636 C578 0.959 . S
H637 C578 0.961 . S
H638 C578 0.961 . S
H639 C579 0.960 . S
H640 C579 0.960 . S
H641 C579 0.961 . S
H642 C581 0.980 . S
H643 C580 0.961 . S
H644 C580 0.960 . S
H645 C580 0.959 . S
H646 C583 0.930 1_545 S
H647 C587 0.931 . S
H648 C588 0.959 . S
H649 C588 0.961 . S
H650 C588 0.959 . S
H651 C589 0.960 . S
H652 C589 0.960 . S
H653 C589 0.960 . S
H654 C625 0.980 . S
H655 C591 0.930 1_545 S
H656 C595 0.930 1_455 S
H657 C596 0.961 . S
H658 C596 0.960 . S
H659 C596 0.958 . S
H660 C597 0.961 . S
H661 C597 0.960 . S
H662 C597 0.960 . S
H663 C599 0.980 . S
H664 C598 0.961 . S
H665 C598 0.961 . S
H666 C598 0.959 . S
H667 C601 0.932 . S
H668 C605 0.929 . S
H669 C606 0.961 . S
H670 C606 0.959 . S
H671 C606 0.959 . S
H672 C607 0.960 1_455 S
H673 C607 0.962 . S
H674 C607 0.961 . S
H675 C609 0.929 . S
H676 C612 0.930 . S
H677 C613 0.929 . S
H678 C616 0.930 . S
H679 C619 0.929 . S
H680 C620 0.930 . S
H681 C624 0.959 1_655 S
H682 C624 0.957 1_655 S
H683 C624 0.973 . S
C684 C685 1.560 . S
C684 H745 0.959 . S
C684 H746 0.959 . S
C684 H747 0.960 . S
C685 C684 1.560 . S
C685 O740 1.426 . S
C685 H744 0.980 . S
C686 C687 1.407 . S
C686 C691 1.418 . S
C686 O740 1.334 . S
C687 C686 1.407 . S
C687 C688 1.360 . S
C687 H748 0.929 . S
C688 C687 1.360 . S
C688 C689 1.401 . S
C688 C692 1.527 . S
C689 C688 1.401 . S
C689 C690 1.405 . S
C689 C722 1.587 . S
C690 C689 1.405 . S
C690 C691 1.332 . S
C690 C693 1.496 . S
C691 C686 1.418 . S
C691 C690 1.332 . S
C691 H749 0.929 . S
C692 C688 1.527 . S
C692 H750 0.959 . S
C692 H751 0.961 . S
C692 H752 0.961 . S
C693 C690 1.496 . S
C693 H753 0.960 . S
C693 H754 0.960 . S
C693 H755 0.961 . S
C694 C695 1.517 . S
C694 H757 0.961 . S
C694 H758 0.960 . S
C694 H759 0.959 . S
C695 C694 1.517 . S
C695 O743 1.468 . S
C695 H756 0.980 . S
C696 C697 1.349 . S
C696 C701 1.367 . S
C696 O743 1.408 . S
C697 C696 1.349 . S
C697 C698 1.407 . S
C697 H760 0.930 . S
C698 C697 1.407 . S
C698 C699 1.449 . S
C698 C702 1.535 . S
C699 C698 1.449 . S
C699 C700 1.384 . S
C699 C724 1.553 . S
C700 C699 1.384 . S
C700 C701 1.364 . S
C700 C703 1.450 . S
C701 C696 1.367 . S
C701 C700 1.364 . S
C701 H761 0.931 . S
C702 C698 1.535 . S
C702 H762 0.959 . S
C702 H763 0.961 . S
C702 H764 0.959 . S
C703 C700 1.450 . S
C703 H765 0.960 . S
C703 H766 0.960 . S
C703 H767 0.960 . S
C704 C705 1.309 . S
C704 C709 1.304 . S
C704 O742 1.435 . S
C705 C704 1.309 . S
C705 C706 1.476 . S
C705 H769 0.930 . S
C706 C705 1.476 . S
C706 C707 1.400 . S
C706 C710 1.567 . S
C707 C706 1.400 . S
C707 C708 1.373 . S
C707 C729 1.432 . S
C708 C707 1.373 . S
C708 C709 1.339 . S
C708 C711 1.530 . S
C709 C704 1.304 . S
C709 C708 1.339 . S
C709 H770 0.930 . S
C710 C706 1.567 . S
C710 H771 0.961 . S
C710 H772 0.960 . S
C710 H773 0.958 . S
C711 C708 1.530 . S
C711 H774 0.961 . S
C711 H775 0.960 1_556 S
C711 H776 0.960 . S
C712 C713 1.530 . S
C712 H778 0.961 . S
C712 H779 0.961 . S
C712 H780 0.959 . S
C713 C712 1.530 . S
C713 O741 1.412 . S
C713 H777 0.980 . S
C714 C715 1.288 . S
C714 C719 1.377 . S
C714 O741 1.393 . S
C715 C714 1.288 . S
C715 C716 1.369 . S
C715 H781 0.932 . S
C716 C715 1.369 . S
C716 C717 1.398 . S
C716 C720 1.527 . S
C717 C716 1.398 . S
C717 C718 1.380 . S
C717 C731 1.497 . S
C718 C717 1.380 . S
C718 C719 1.383 . S
C718 C721 1.603 . S
C719 C714 1.377 . S
C719 C718 1.383 . S
C719 H782 0.929 . S
C720 C716 1.527 . S
C720 H783 0.961 . S
C720 H784 0.959 . S
C720 H785 0.959 . S
C721 C718 1.603 . S
C721 H786 0.960 . S
C721 H787 0.962 . S
C721 H788 0.961 . S
C722 C689 1.587 . S
C722 C723 1.360 . S
C722 C735 1.412 . S
C723 C722 1.360 . S
C723 C724 1.365 . S
C723 H789 0.929 . S
C724 C699 1.553 . S
C724 C723 1.365 . S
C724 C725 1.404 . S
C725 C724 1.404 . S
C725 C726 1.395 . S
C725 C736 1.451 . S
C726 C725 1.395 . S
C726 C727 1.322 . S
C726 H790 0.930 . S
C727 C726 1.322 . S
C727 C728 1.459 . S
C727 H791 0.929 . S
C728 C727 1.459 . S
C728 C729 1.445 1_554 S
C728 C737 1.395 . S
C729 C707 1.432 . S
C729 C728 1.445 1_556 S
C729 C730 1.370 . S
C730 C729 1.370 . S
C730 C731 1.438 . S
C730 H792 0.930 . S
C731 C717 1.497 . S
C731 C730 1.438 . S
C731 C732 1.360 . S
C732 C731 1.360 . S
C732 C733 1.401 1_556 S
C732 C737 1.446 1_556 S
C733 C732 1.401 1_554 S
C733 C734 1.347 . S
C733 H793 0.929 1_554 S
C734 C733 1.347 . S
C734 C735 1.455 . S
C734 H794 0.930 . S
C735 C722 1.412 . S
C735 C734 1.455 . S
C735 C736 1.331 . S
C736 C725 1.451 . S
C736 C735 1.331 . S
C736 C737 1.497 . S
C737 C728 1.395 . S
C737 C732 1.446 1_554 S
C737 C736 1.497 . S
C738 C739 1.582 . S
C738 H795 0.962 . S
C738 H796 0.959 . S
C738 H797 0.958 . S
C739 C738 1.582 . S
C739 O742 1.458 . S
C739 H768 0.980 . S
O740 C685 1.426 . S
O740 C686 1.334 . S
O741 C713 1.412 . S
O741 C714 1.393 . S
O742 C704 1.435 . S
O742 C739 1.458 . S
O743 C695 1.468 . S
O743 C696 1.408 . S
H744 C685 0.980 . S
H745 C684 0.959 . S
H746 C684 0.959 . S
H747 C684 0.960 . S
H748 C687 0.929 . S
H749 C691 0.929 . S
H750 C692 0.959 . S
H751 C692 0.961 . S
H752 C692 0.961 . S
H753 C693 0.960 . S
H754 C693 0.960 . S
H755 C693 0.961 . S
H756 C695 0.980 . S
H757 C694 0.961 . S
H758 C694 0.960 . S
H759 C694 0.959 . S
H760 C697 0.930 . S
H761 C701 0.931 . S
H762 C702 0.959 . S
H763 C702 0.961 . S
H764 C702 0.959 . S
H765 C703 0.960 . S
H766 C703 0.960 . S
H767 C703 0.960 . S
H768 C739 0.980 . S
H769 C705 0.930 . S
H770 C709 0.930 . S
H771 C710 0.961 . S
H772 C710 0.960 . S
H773 C710 0.958 . S
H774 C711 0.961 . S
H775 C711 0.960 1_554 S
H776 C711 0.960 . S
H777 C713 0.980 . S
H778 C712 0.961 . S
H779 C712 0.961 . S
H780 C712 0.959 . S
H781 C715 0.932 . S
H782 C719 0.929 . S
H783 C720 0.961 . S
H784 C720 0.959 . S
H785 C720 0.959 . S
H786 C721 0.960 . S
H787 C721 0.962 . S
H788 C721 0.961 . S
H789 C723 0.929 . S
H790 C726 0.930 . S
H791 C727 0.929 . S
H792 C730 0.930 . S
H793 C733 0.929 1_556 S
H794 C734 0.930 . S
H795 C738 0.962 . S
H796 C738 0.959 . S
H797 C738 0.958 . S
C798 C799 1.560 . S
C798 H859 0.959 . S
C798 H860 0.959 . S
C798 H861 0.960 . S
C799 C798 1.560 . S
C799 O854 1.426 . S
C799 H858 0.980 . S
C800 C801 1.407 . S
C800 C805 1.418 . S
C800 O854 1.334 . S
C801 C800 1.407 . S
C801 C802 1.360 . S
C801 H862 0.929 . S
C802 C801 1.360 . S
C802 C803 1.401 . S
C802 C806 1.527 . S
C803 C802 1.401 . S
C803 C804 1.405 . S
C803 C836 1.587 . S
C804 C803 1.405 . S
C804 C805 1.332 . S
C804 C807 1.496 . S
C805 C800 1.418 . S
C805 C804 1.332 . S
C805 H863 0.929 . S
C806 C802 1.527 . S
C806 H864 0.959 . S
C806 H865 0.961 . S
C806 H866 0.961 . S
C807 C804 1.496 . S
C807 H867 0.960 . S
C807 H868 0.960 . S
C807 H869 0.961 . S
C808 C809 1.517 . S
C808 H871 0.961 . S
C808 H872 0.960 . S
C808 H873 0.959 . S
C809 C808 1.517 . S
C809 O857 1.468 . S
C809 H870 0.980 . S
C810 C811 1.349 . S
C810 C815 1.367 . S
C810 O857 1.408 . S
C811 C810 1.349 . S
C811 C812 1.407 . S
C811 H874 0.930 . S
C812 C811 1.407 . S
C812 C813 1.449 . S
C812 C816 1.535 . S
C813 C812 1.449 . S
C813 C814 1.384 . S
C813 C838 1.553 . S
C814 C813 1.384 . S
C814 C815 1.364 . S
C814 C817 1.450 . S
C815 C810 1.367 . S
C815 C814 1.364 . S
C815 H875 0.931 . S
C816 C812 1.535 . S
C816 H876 0.959 . S
C816 H877 0.961 . S
C816 H878 0.959 . S
C817 C814 1.450 . S
C817 H879 0.960 . S
C817 H880 0.960 . S
C817 H881 0.960 . S
C818 C819 1.309 . S
C818 C823 1.304 . S
C818 O856 1.435 . S
C819 C818 1.309 . S
C819 C820 1.476 . S
C819 H883 0.930 . S
C820 C819 1.476 . S
C820 C821 1.400 . S
C820 C824 1.567 . S
C821 C820 1.400 . S
C821 C822 1.373 . S
C821 C843 1.432 . S
C822 C821 1.373 . S
C822 C823 1.339 . S
C822 C825 1.530 . S
C823 C818 1.304 . S
C823 C822 1.339 . S
C823 H884 0.930 . S
C824 C820 1.567 . S
C824 H885 0.961 . S
C824 H886 0.960 . S
C824 H887 0.958 . S
C825 C822 1.530 . S
C825 H888 0.961 . S
C825 H889 0.960 . S
C825 H890 0.960 . S
C826 C827 1.530 . S
C826 H892 0.961 . S
C826 H893 0.961 . S
C826 H894 0.959 . S
C827 C826 1.530 . S
C827 O855 1.412 . S
C827 H891 0.980 . S
C828 C829 1.288 . S
C828 C833 1.377 . S
C828 O855 1.393 . S
C829 C828 1.288 . S
C829 C830 1.369 . S
C829 H895 0.932 . S
C830 C829 1.369 . S
C830 C831 1.398 . S
C830 C834 1.527 . S
C831 C830 1.398 . S
C831 C832 1.380 . S
C831 C845 1.497 . S
C832 C831 1.380 . S
C832 C833 1.383 . S
C832 C835 1.603 . S
C833 C828 1.377 . S
C833 C832 1.383 . S
C833 H896 0.929 . S
C834 C830 1.527 . S
C834 H897 0.961 . S
C834 H898 0.959 . S
C834 H899 0.959 . S
C835 C832 1.603 . S
C835 H900 0.960 . S
C835 H901 0.962 . S
C835 H902 0.961 . S
C836 C803 1.587 . S
C836 C837 1.360 1_655 S
C836 C849 1.412 . S
C837 C836 1.360 1_455 S
C837 C838 1.365 . S
C837 H903 0.929 . S
C838 C813 1.553 . S
C838 C837 1.365 . S
C838 C839 1.404 . S
C839 C838 1.404 . S
C839 C840 1.395 . S
C839 C850 1.451 . S
C840 C839 1.395 . S
C840 C841 1.322 . S
C840 H904 0.930 . S
C841 C840 1.322 . S
C841 C842 1.459 . S
C841 H905 0.929 . S
C842 C841 1.459 . S
C842 C843 1.445 . S
C842 C851 1.395 . S
C843 C821 1.432 . S
C843 C842 1.445 . S
C843 C844 1.370 . S
C844 C843 1.370 . S
C844 C845 1.438 1_455 S
C844 H906 0.930 . S
C845 C831 1.497 . S
C845 C844 1.438 1_655 S
C845 C846 1.360 . S
C846 C845 1.360 . S
C846 C847 1.401 . S
C846 C851 1.446 1_655 S
C847 C846 1.401 . S
C847 C848 1.347 . S
C847 H907 0.929 . S
C848 C847 1.347 . S
C848 C849 1.455 . S
C848 H908 0.930 . S
C849 C836 1.412 . S
C849 C848 1.455 . S
C849 C850 1.331 1_655 S
C850 C839 1.451 . S
C850 C849 1.331 1_455 S
C850 C851 1.497 . S
C851 C842 1.395 . S
C851 C846 1.446 1_455 S
C851 C850 1.497 . S
C852 C853 1.582 . S
C852 H909 0.962 . S
C852 H910 0.959 . S
C852 H911 0.958 . S
C853 C852 1.582 . S
C853 O856 1.458 . S
C853 H882 0.980 . S
O854 C799 1.426 . S
O854 C800 1.334 . S
O855 C827 1.412 . S
O855 C828 1.393 . S
O856 C818 1.435 . S
O856 C853 1.458 . S
O857 C809 1.468 . S
O857 C810 1.408 . S
H858 C799 0.980 . S
H859 C798 0.959 . S
H860 C798 0.959 . S
H861 C798 0.960 . S
H862 C801 0.929 . S
H863 C805 0.929 . S
H864 C806 0.959 . S
H865 C806 0.961 . S
H866 C806 0.961 . S
H867 C807 0.960 . S
H868 C807 0.960 . S
H869 C807 0.961 . S
H870 C809 0.980 . S
H871 C808 0.961 . S
H872 C808 0.960 . S
H873 C808 0.959 . S
H874 C811 0.930 . S
H875 C815 0.931 . S
H876 C816 0.959 . S
H877 C816 0.961 . S
H878 C816 0.959 . S
H879 C817 0.960 . S
H880 C817 0.960 . S
H881 C817 0.960 . S
H882 C853 0.980 . S
H883 C819 0.930 . S
H884 C823 0.930 . S
H885 C824 0.961 . S
H886 C824 0.960 . S
H887 C824 0.958 . S
H888 C825 0.961 . S
H889 C825 0.960 . S
H890 C825 0.960 . S
H891 C827 0.980 . S
H892 C826 0.961 . S
H893 C826 0.961 . S
H894 C826 0.959 . S
H895 C829 0.932 . S
H896 C833 0.929 . S
H897 C834 0.961 . S
H898 C834 0.959 . S
H899 C834 0.959 . S
H900 C835 0.960 . S
H901 C835 0.962 . S
H902 C835 0.961 . S
H903 C837 0.929 . S
H904 C840 0.930 . S
H905 C841 0.929 . S
H906 C844 0.930 . S
H907 C847 0.929 . S
H908 C848 0.930 . S
H909 C852 0.962 . S
H910 C852 0.959 . S
H911 C852 0.958 . S
Fe912 O913 1.886 . S
Fe912 O916 1.715 1_455 S
Fe912 O921 2.077 . S
Fe912 O926 1.935 1_455 S
Fe912 O932 2.077 . S
Fe912 O941 1.935 1_455 S
O913 Fe912 1.886 . S
O913 Fe915 1.715 . S
Fe914 O916 1.886 . S
Fe914 O917 1.715 . S
Fe914 O924 1.935 . S
Fe914 O925 2.077 . S
Fe914 O931 1.935 . S
Fe914 O940 2.077 . S
Fe915 O913 1.715 . S
Fe915 O918 1.886 . S
Fe915 O922 1.935 . S
Fe915 O927 2.077 . S
Fe915 O933 1.935 . S
Fe915 O937 2.077 . S
O916 Fe912 1.715 1_655 S
O916 Fe914 1.886 . S
O917 Fe914 1.715 . S
O917 Fe919 1.886 1_655 S
O918 Fe915 1.886 . S
O918 Fe919 1.715 . S
Fe919 O917 1.886 1_455 S
Fe919 O918 1.715 . S
Fe919 O923 2.077 1_455 S
Fe919 O928 1.935 . S
Fe919 O930 2.077 1_455 S
Fe919 O938 1.935 . S
C920 O932 1.381 . S
C920 O933 1.421 . S
O921 Fe912 2.077 . S
O921 C934 1.381 . S
O922 Fe915 1.935 . S
O922 C934 1.421 . S
O923 Fe919 2.077 1_655 S
O923 C939 1.381 . S
O924 Fe914 1.935 . S
O924 C939 1.421 . S
O925 Fe914 2.077 . S
O925 C929 1.381 . S
O926 Fe912 1.935 1_655 S
O926 C929 1.421 . S
O927 Fe915 2.077 . S
O927 C935 1.381 . S
O928 Fe919 1.935 . S
O928 C935 1.421 . S
C929 O925 1.381 . S
C929 O926 1.421 . S
O930 Fe919 2.077 1_655 S
O930 C942 1.381 . S
O931 Fe914 1.935 . S
O931 C942 1.421 . S
O932 Fe912 2.077 . S
O932 C920 1.381 . S
O933 Fe915 1.935 . S
O933 C920 1.421 . S
C934 O921 1.381 . S
C934 O922 1.421 . S
C935 O927 1.381 . S
C935 O928 1.421 . S
C936 O937 1.381 . S
C936 O938 1.421 . S
O937 Fe915 2.077 . S
O937 C936 1.381 . S
O938 Fe919 1.935 . S
O938 C936 1.421 . S
C939 O923 1.381 . S
C939 O924 1.421 . S
O940 Fe914 2.077 . S
O940 C943 1.381 . S
O941 Fe912 1.935 1_655 S
O941 C943 1.421 . S
C942 O930 1.381 . S
C942 O931 1.421 . S
C943 O940 1.381 . S
C943 O941 1.421 . S
Fe944 O945 1.886 . S
Fe944 O948 1.715 . S
Fe944 O953 2.077 . S
Fe944 O958 1.935 . S
Fe944 O964 2.077 . S
Fe944 O973 1.935 . S
O945 Fe944 1.886 . S
O945 Fe947 1.715 . S
Fe946 O948 1.886 . S
Fe946 O949 1.715 . S
Fe946 O956 1.935 . S
Fe946 O957 2.077 . S
Fe946 O963 1.935 . S
Fe946 O972 2.077 . S
Fe947 O945 1.715 . S
Fe947 O950 1.886 . S
Fe947 O954 1.935 . S
Fe947 O959 2.077 . S
Fe947 O965 1.935 . S
Fe947 O969 2.077 . S
O948 Fe944 1.715 . S
O948 Fe946 1.886 . S
O949 Fe946 1.715 . S
O949 Fe951 1.886 . S
O950 Fe947 1.886 . S
O950 Fe951 1.715 . S
Fe951 O949 1.886 . S
Fe951 O950 1.715 . S
Fe951 O955 2.077 . S
Fe951 O960 1.935 . S
Fe951 O962 2.077 . S
Fe951 O970 1.935 . S
C952 O964 1.381 . S
C952 O965 1.421 . S
O953 Fe944 2.077 . S
O953 C966 1.381 . S
O954 Fe947 1.935 . S
O954 C966 1.421 . S
O955 Fe951 2.077 . S
O955 C971 1.381 . S
O956 Fe946 1.935 . S
O956 C971 1.421 . S
O957 Fe946 2.077 . S
O957 C961 1.381 . S
O958 Fe944 1.935 . S
O958 C961 1.421 . S
O959 Fe947 2.077 . S
O959 C967 1.381 . S
O960 Fe951 1.935 . S
O960 C967 1.421 . S
C961 O957 1.381 . S
C961 O958 1.421 . S
O962 Fe951 2.077 . S
O962 C974 1.381 . S
O963 Fe946 1.935 . S
O963 C974 1.421 . S
O964 Fe944 2.077 . S
O964 C952 1.381 . S
O965 Fe947 1.935 . S
O965 C952 1.421 . S
C966 O953 1.381 . S
C966 O954 1.421 . S
C967 O959 1.381 . S
C967 O960 1.421 . S
C968 O969 1.381 . S
C968 O970 1.421 . S
O969 Fe947 2.077 . S
O969 C968 1.381 . S
O970 Fe951 1.935 . S
O970 C968 1.421 . S
C971 O955 1.381 . S
C971 O956 1.421 . S
O972 Fe946 2.077 . S
O972 C975 1.381 . S
O973 Fe944 1.935 . S
O973 C975 1.421 . S
C974 O962 1.381 . S
C974 O963 1.421 . S
C975 O972 1.381 . S
C975 O973 1.421 . S
Fe976 O977 1.886 . S
Fe976 O980 1.715 . S
Fe976 O985 2.077 . S
Fe976 O990 1.935 . S
Fe976 O996 2.077 . S
Fe976 O1005 1.935 . S
O977 Fe976 1.886 . S
O977 Fe979 1.715 . S
Fe978 O980 1.886 . S
Fe978 O981 1.715 . S
Fe978 O988 1.935 . S
Fe978 O989 2.077 . S
Fe978 O995 1.935 . S
Fe978 O1004 2.077 . S
Fe979 O977 1.715 . S
Fe979 O982 1.886 . S
Fe979 O986 1.935 . S
Fe979 O991 2.077 . S
Fe979 O997 1.935 . S
Fe979 O1001 2.077 . S
O980 Fe976 1.715 . S
O980 Fe978 1.886 . S
O981 Fe978 1.715 . S
O981 Fe983 1.886 . S
O982 Fe979 1.886 . S
O982 Fe983 1.715 . S
Fe983 O981 1.886 . S
Fe983 O982 1.715 . S
Fe983 O987 2.077 . S
Fe983 O992 1.935 . S
Fe983 O994 2.077 . S
Fe983 O1002 1.935 . S
C984 O996 1.381 . S
C984 O997 1.421 . S
O985 Fe976 2.077 . S
O985 C998 1.381 . S
O986 Fe979 1.935 . S
O986 C998 1.421 . S
O987 Fe983 2.077 . S
O987 C1003 1.381 . S
O988 Fe978 1.935 . S
O988 C1003 1.421 . S
O989 Fe978 2.077 . S
O989 C993 1.381 . S
O990 Fe976 1.935 . S
O990 C993 1.421 . S
O991 Fe979 2.077 . S
O991 C999 1.381 . S
O992 Fe983 1.935 . S
O992 C999 1.421 . S
C993 O989 1.381 . S
C993 O990 1.421 . S
O994 Fe983 2.077 . S
O994 C1006 1.381 . S
O995 Fe978 1.935 . S
O995 C1006 1.421 . S
O996 Fe976 2.077 . S
O996 C984 1.381 . S
O997 Fe979 1.935 . S
O997 C984 1.421 . S
C998 O985 1.381 . S
C998 O986 1.421 . S
C999 O991 1.381 . S
C999 O992 1.421 . S
C1000 O1001 1.381 . S
C1000 O1002 1.421 . S
O1001 Fe979 2.077 . S
O1001 C1000 1.381 . S
O1002 Fe983 1.935 . S
O1002 C1000 1.421 . S
C1003 O987 1.381 . S
C1003 O988 1.421 . S
O1004 Fe978 2.077 . S
O1004 C1007 1.381 . S
O1005 Fe976 1.935 . S
O1005 C1007 1.421 . S
C1006 O994 1.381 . S
C1006 O995 1.421 . S
C1007 O1004 1.381 . S
C1007 O1005 1.421 . S
Fe1008 O1009 1.886 . S
Fe1008 O1012 1.715 . S
Fe1008 O1017 2.077 1_455 S
Fe1008 O1022 1.935 1_455 S
Fe1008 O1028 2.077 . S
Fe1008 O1037 1.935 . S
O1009 Fe1008 1.886 . S
O1009 Fe1011 1.715 . S
Fe1010 O1012 1.886 . S
Fe1010 O1013 1.715 . S
Fe1010 O1020 1.935 1_455 S
Fe1010 O1021 2.077 1_455 S
Fe1010 O1027 1.935 . S
Fe1010 O1036 2.077 . S
Fe1011 O1009 1.715 . S
Fe1011 O1014 1.886 . S
Fe1011 O1018 1.935 1_455 S
Fe1011 O1023 2.077 1_455 S
Fe1011 O1029 1.935 . S
Fe1011 O1033 2.077 . S
O1012 Fe1008 1.715 . S
O1012 Fe1010 1.886 . S
O1013 Fe1010 1.715 . S
O1013 Fe1015 1.886 . S
O1014 Fe1011 1.886 . S
O1014 Fe1015 1.715 . S
Fe1015 O1013 1.886 . S
Fe1015 O1014 1.715 . S
Fe1015 O1019 2.077 1_455 S
Fe1015 O1024 1.935 1_455 S
Fe1015 O1026 2.077 . S
Fe1015 O1034 1.935 . S
C1016 O1028 1.381 . S
C1016 O1029 1.421 . S
O1017 Fe1008 2.077 1_655 S
O1017 C1030 1.381 . S
O1018 Fe1011 1.935 1_655 S
O1018 C1030 1.421 . S
O1019 Fe1015 2.077 1_655 S
O1019 C1035 1.381 . S
O1020 Fe1010 1.935 1_655 S
O1020 C1035 1.421 . S
O1021 Fe1010 2.077 1_655 S
O1021 C1025 1.381 . S
O1022 Fe1008 1.935 1_655 S
O1022 C1025 1.421 . S
O1023 Fe1011 2.077 1_655 S
O1023 C1031 1.381 . S
O1024 Fe1015 1.935 1_655 S
O1024 C1031 1.421 . S
C1025 O1021 1.381 . S
C1025 O1022 1.421 . S
O1026 Fe1015 2.077 . S
O1026 C1038 1.381 . S
O1027 Fe1010 1.935 . S
O1027 C1038 1.421 . S
O1028 Fe1008 2.077 . S
O1028 C1016 1.381 . S
O1029 Fe1011 1.935 . S
O1029 C1016 1.421 . S
C1030 O1017 1.381 . S
C1030 O1018 1.421 . S
C1031 O1023 1.381 . S
C1031 O1024 1.421 . S
C1032 O1033 1.381 . S
C1032 O1034 1.421 . S
O1033 Fe1011 2.077 . S
O1033 C1032 1.381 . S
O1034 Fe1015 1.935 . S
O1034 C1032 1.421 . S
C1035 O1019 1.381 . S
C1035 O1020 1.421 . S
O1036 Fe1010 2.077 . S
O1036 C1039 1.381 . S
O1037 Fe1008 1.935 . S
O1037 C1039 1.421 . S
C1038 O1026 1.381 . S
C1038 O1027 1.421 . S
C1039 O1036 1.381 . S
C1039 O1037 1.421 . S
C961 C11 1.613 . S
C143 C993 1.276 . S
C283 C1016 1.077 . S
C920 C343 2.207 . S
C1003 C55 0.879 . S
C1032 C115 1.728 . S
C936 C239 1.280 . S
C971 C371 0.834 . S
C29 C999 1.121 . S
C467 C974 0.479 . S
C229 C942 1.148 . S
C1031 C625 1.152 . S
C975 C1 1.715 . S
C511 C943 1.302 . S
C257 C1030 1.542 . S
C998 C581 1.015 . S
C713 C1025 1.287 . S
C485 C929 1.272 . S
C799 C952 2.187 . S
C571 C984 2.219 . S
C939 C685 1.658 . S
C457 C968 1.740 . S
C827 C1000 0.859 . S
C1035 C599 0.806 . S
C695 C935 0.624 . S
C125 C1038 0.480 . S
C853 C1006 1.219 . S
C967 C397 1.200 . S
C1039 C739 1.378 . S
C1007 C169 1.332 . S
C966 C809 1.033 . S
C934 C353 1.007 . S
