# Generated by pormake.
# Topology nom, (4,4)-cn, num edge types: 1
# Building blocks:
#     Node 0, Type 0, BuildingBlock: NAWXER_clean_linker_0, # of connection points: 4
#     Node 1, Type 0, BuildingBlock: NAWXER_clean_linker_0, # of connection points: 4
#     Node 2, Type 0, BuildingBlock: NAWXER_clean_linker_0, # of connection points: 4
#     Node 3, Type 0, BuildingBlock: NAWXER_clean_linker_0, # of connection points: 4
#     Node 4, Type 0, BuildingBlock: NAWXER_clean_linker_0, # of connection points: 4
#     Node 5, Type 0, BuildingBlock: NAWXER_clean_linker_0, # of connection points: 4
#     Node 6, Type 1, BuildingBlock: QUQFOY_clean_sbu_1, # of connection points: 4
#     Node 7, Type 1, BuildingBlock: QUQFOY_clean_sbu_1, # of connection points: 4
#     Node 8, Type 1, BuildingBlock: QUQFOY_clean_sbu_1, # of connection points: 4
#     Node 9, Type 1, BuildingBlock: QUQFOY_clean_sbu_1, # of connection points: 4
#     Node 10, Type 1, BuildingBlock: QUQFOY_clean_sbu_1, # of connection points: 4
#     Node 11, Type 1, BuildingBlock: QUQFOY_clean_sbu_1, # of connection points: 4
#     Edge 12, Type (0, 1), BuildingBlock: EZIPEK_clean_linker_0, # of connection points: 2
#     Edge 13, Type (0, 1), BuildingBlock: EZIPEK_clean_linker_0, # of connection points: 2
#     Edge 14, Type (0, 1), BuildingBlock: EZIPEK_clean_linker_0, # of connection points: 2
#     Edge 15, Type (0, 1), BuildingBlock: EZIPEK_clean_linker_0, # of connection points: 2
#     Edge 16, Type (0, 1), BuildingBlock: EZIPEK_clean_linker_0, # of connection points: 2
#     Edge 17, Type (0, 1), BuildingBlock: EZIPEK_clean_linker_0, # of connection points: 2
#     Edge 18, Type (0, 1), BuildingBlock: EZIPEK_clean_linker_0, # of connection points: 2
#     Edge 19, Type (0, 1), BuildingBlock: EZIPEK_clean_linker_0, # of connection points: 2
#     Edge 20, Type (0, 1), BuildingBlock: EZIPEK_clean_linker_0, # of connection points: 2
#     Edge 21, Type (0, 1), BuildingBlock: EZIPEK_clean_linker_0, # of connection points: 2
#     Edge 22, Type (0, 1), BuildingBlock: EZIPEK_clean_linker_0, # of connection points: 2
#     Edge 23, Type (0, 1), BuildingBlock: EZIPEK_clean_linker_0, # of connection points: 2
#     Edge 24, Type (0, 1), BuildingBlock: EZIPEK_clean_linker_0, # of connection points: 2
#     Edge 25, Type (0, 1), BuildingBlock: EZIPEK_clean_linker_0, # of connection points: 2
#     Edge 26, Type (0, 1), BuildingBlock: EZIPEK_clean_linker_0, # of connection points: 2
#     Edge 27, Type (0, 1), BuildingBlock: EZIPEK_clean_linker_0, # of connection points: 2
#     Edge 28, Type (0, 1), BuildingBlock: EZIPEK_clean_linker_0, # of connection points: 2
#     Edge 29, Type (0, 1), BuildingBlock: EZIPEK_clean_linker_0, # of connection points: 2
#     Edge 30, Type (0, 1), BuildingBlock: EZIPEK_clean_linker_0, # of connection points: 2
#     Edge 31, Type (0, 1), BuildingBlock: EZIPEK_clean_linker_0, # of connection points: 2
#     Edge 32, Type (0, 1), BuildingBlock: EZIPEK_clean_linker_0, # of connection points: 2
#     Edge 33, Type (0, 1), BuildingBlock: EZIPEK_clean_linker_0, # of connection points: 2
#     Edge 34, Type (0, 1), BuildingBlock: EZIPEK_clean_linker_0, # of connection points: 2
#     Edge 35, Type (0, 1), BuildingBlock: EZIPEK_clean_linker_0, # of connection points: 2
# Relax obj value: 0.026
# Max RMSD: 0.136
# Mean RMSD: 0.125
data_MOF--net-nom--node1-QUQFOY_clean_sbu_1--node2-NAWXER_clean_linker_0--edge1-EZIPEK_clean_linker_0
_symmetry_space_group_name_H-M    P1
_symmetry_Int_Tables_number       1
_symmetry_cell_setting            triclinic
loop_
_symmetry_equiv_pos_as_xyz
'x, y, z'
_cell_length_a     42.778832
_cell_length_b     42.786711
_cell_length_c     42.589674
_cell_angle_alpha  89.924056
_cell_angle_beta   90.066952
_cell_angle_gamma 119.98644
loop_
_atom_site_label
_atom_site_type_symbol
_atom_site_fract_x
_atom_site_fract_y
_atom_site_fract_z
_atom_type_partial_charge
C0 C 0.88353 0.48376 0.34274 0.0
C1 C 0.86875 0.45885 0.36741 0.0
C2 C 0.91822 0.49464 0.33183 0.0
C3 C 0.93861 0.48054 0.34525 0.0
C4 C 0.88907 0.44482 0.38104 0.0
C5 C 0.92397 0.4559 0.3702 0.0
C6 C 0.97576 0.49297 0.33413 0.0
C7 C 0.90077 0.42627 0.25745 0.0
C8 C 0.9037 0.44552 0.22991 0.0
C9 C 0.92711 0.44183 0.28084 0.0
C10 C 0.95651 0.47704 0.27715 0.0
C11 C 0.93336 0.48031 0.22585 0.0
C12 C 0.95964 0.49591 0.24925 0.0
C13 C 0.98438 0.49408 0.30196 0.0
C14 C 0.14767 0.56265 0.30699 0.0
C15 C 0.15737 0.5918 0.28652 0.0
C16 C 0.11146 0.54007 0.31509 0.0
C17 C 0.08466 0.54666 0.30303 0.0
C18 C 0.13042 0.597 0.27297 0.0
C19 C 0.09428 0.57447 0.28107 0.0
C20 C 0.04706 0.52659 0.31465 0.0
C21 C 0.11804 0.59282 0.39461 0.0
C22 C 0.11934 0.57102 0.41863 0.0
C23 C 0.09151 0.57771 0.37133 0.0
C24 C 0.06609 0.5406 0.37172 0.0
C25 C 0.09356 0.53412 0.41934 0.0
C26 C 0.06698 0.51906 0.39615 0.0
C27 C 0.03838 0.52407 0.3469 0.0
H28 H 0.86826 0.49496 0.33209 0.0
H29 H 0.92928 0.5144 0.31311 0.0
H30 H 0.878 0.4256 0.40015 0.0
H31 H 0.93942 0.44503 0.38108 0.0
H32 H 0.87823 0.39922 0.26073 0.0
H33 H 0.9246 0.42626 0.30171 0.0
H34 H 0.93608 0.49537 0.20457 0.0
H35 H 0.98217 0.52293 0.24575 0.0
H36 H 0.16821 0.55824 0.31751 0.0
H37 H 0.10453 0.51827 0.33157 0.0
H38 H 0.13753 0.61935 0.25706 0.0
H39 H 0.07403 0.57987 0.27134 0.0
H40 H 0.13751 0.62142 0.39396 0.0
H41 H 0.09085 0.59496 0.35301 0.0
H42 H 0.09404 0.51703 0.43791 0.0
H43 H 0.04744 0.49048 0.39699 0.0
N44 N 0.00306 0.50743 0.35544 0.0
N45 N 0.01973 0.51145 0.29338 0.0
C46 C 0.40239 0.88594 0.514 0.0
C47 C 0.41598 0.87148 0.53611 0.0
C48 C 0.42355 0.92145 0.5037 0.0
C49 C 0.45883 0.94309 0.51515 0.0
C50 C 0.45098 0.89317 0.54809 0.0
C51 C 0.47218 0.92891 0.53784 0.0
C52 C 0.48135 0.9805 0.50346 0.0
C53 C 0.47566 0.90864 0.42519 0.0
C54 C 0.45282 0.90673 0.40073 0.0
C55 C 0.48622 0.93526 0.44818 0.0
C56 C 0.47431 0.96048 0.44686 0.0
C57 C 0.44084 0.93185 0.39937 0.0
C58 C 0.45184 0.95882 0.42214 0.0
C59 C 0.4857 0.98873 0.47113 0.0
C60 C 0.58214 0.15153 0.47092 0.0
C61 C 0.56234 0.16078 0.45043 0.0
C62 C 0.56803 0.11575 0.48073 0.0
C63 C 0.53359 0.08895 0.47069 0.0
C64 C 0.52886 0.13378 0.43909 0.0
C65 C 0.51465 0.09809 0.44906 0.0
C66 C 0.51651 0.05156 0.48298 0.0
C67 C 0.53309 0.1245 0.5653 0.0
C68 C 0.55608 0.12324 0.58814 0.0
C69 C 0.519 0.09845 0.54158 0.0
C70 C 0.52817 0.07116 0.54025 0.0
C71 C 0.56485 0.09577 0.58707 0.0
C72 C 0.55087 0.06983 0.56336 0.0
C73 C 0.51368 0.0433 0.51543 0.0
H74 H 0.37538 0.86963 0.50465 0.0
H75 H 0.41231 0.93205 0.48676 0.0
H76 H 0.46182 0.88238 0.56522 0.0
H77 H 0.4992 0.94524 0.54715 0.0
H78 H 0.48537 0.88965 0.42634 0.0
H79 H 0.50402 0.93643 0.46683 0.0
H80 H 0.42344 0.93084 0.38042 0.0
H81 H 0.44252 0.97812 0.42069 0.0
H82 H 0.60809 0.17211 0.4798 0.0
H83 H 0.58364 0.1092 0.4967 0.0
H84 H 0.51328 0.14055 0.42327 0.0
H85 H 0.48824 0.07784 0.44075 0.0
H86 H 0.52574 0.14531 0.5661 0.0
H87 H 0.50082 0.09948 0.52444 0.0
H88 H 0.58228 0.09428 0.60477 0.0
H89 H 0.558 0.04883 0.56292 0.0
N90 N 0.49605 0.00805 0.52445 0.0
N91 N 0.50249 0.02388 0.46204 0.0
C92 C 0.57824 0.4668 0.59453 0.0
C93 C 0.55914 0.44989 0.56711 0.0
C94 C 0.5622 0.4772 0.61771 0.0
C95 C 0.52657 0.47021 0.61402 0.0
C96 C 0.52374 0.44309 0.56322 0.0
C97 C 0.50759 0.45325 0.58648 0.0
C98 C 0.50964 0.48227 0.63782 0.0
C99 C 0.52788 0.39914 0.68398 0.0
C100 C 0.5541 0.41288 0.70773 0.0
C101 C 0.51364 0.41984 0.67214 0.0
C102 C 0.5257 0.45483 0.68361 0.0
C103 C 0.56567 0.4475 0.71977 0.0
C104 C 0.55131 0.46824 0.70794 0.0
C105 C 0.51132 0.47718 0.67042 0.0
C106 C 0.42095 0.53823 0.72411 0.0
C107 C 0.44141 0.55374 0.75135 0.0
C108 C 0.43268 0.52265 0.70158 0.0
C109 C 0.46639 0.52457 0.70473 0.0
C110 C 0.47392 0.5536 0.75548 0.0
C111 C 0.48646 0.53958 0.73228 0.0
C112 C 0.4808 0.51012 0.68045 0.0
C113 C 0.44963 0.58341 0.63082 0.0
C114 C 0.41905 0.56305 0.61199 0.0
C115 C 0.47002 0.56822 0.64162 0.0
C116 C 0.45991 0.53249 0.63377 0.0
C117 C 0.41028 0.52817 0.60269 0.0
C118 C 0.43073 0.5131 0.61333 0.0
C119 C 0.47824 0.51426 0.64767 0.0
H120 H 0.60578 0.47263 0.59762 0.0
H121 H 0.5779 0.49131 0.63821 0.0
H122 H 0.50881 0.43031 0.54201 0.0
H123 H 0.48027 0.44793 0.58295 0.0
H124 H 0.51856 0.37241 0.67455 0.0
H125 H 0.49327 0.40855 0.65392 0.0
H126 H 0.58588 0.45844 0.73813 0.0
H127 H 0.56073 0.49502 0.71731 0.0
H128 H 0.39557 0.53763 0.72059 0.0
H129 H 0.41526 0.50918 0.68178 0.0
H130 H 0.48996 0.56501 0.77648 0.0
H131 H 0.51214 0.54081 0.73578 0.0
H132 H 0.45683 0.61046 0.63805 0.0
H133 H 0.49284 0.58382 0.65696 0.0
H134 H 0.38687 0.51219 0.58807 0.0
H135 H 0.42274 0.48565 0.60676 0.0
N136 N 0.49268 0.50011 0.62773 0.0
N137 N 0.49732 0.49171 0.69043 0.0
C138 C 0.88576 0.39611 0.80431 0.0
C139 C 0.87215 0.40865 0.78048 0.0
C140 C 0.92116 0.41746 0.81487 0.0
C141 C 0.94346 0.45189 0.80198 0.0
C142 C 0.89461 0.44262 0.76694 0.0
C143 C 0.93018 0.464 0.77747 0.0
C144 C 0.98048 0.47512 0.81423 0.0
C145 C 0.90444 0.46901 0.88928 0.0
C146 C 0.90581 0.45187 0.91688 0.0
C147 C 0.93107 0.47878 0.86634 0.0
C148 C 0.95922 0.47114 0.87055 0.0
C149 C 0.93408 0.44463 0.92135 0.0
C150 C 0.96068 0.45434 0.8984 0.0
C151 C 0.98789 0.48184 0.84659 0.0
C152 C 0.14892 0.58281 0.85163 0.0
C153 C 0.15947 0.56267 0.87044 0.0
C154 C 0.11322 0.5674 0.84107 0.0
C155 C 0.08783 0.53166 0.84914 0.0
C156 C 0.13361 0.52773 0.87986 0.0
C157 C 0.09799 0.51244 0.86948 0.0
C158 C 0.05105 0.51325 0.83574 0.0
C159 C 0.13143 0.53779 0.75812 0.0
C160 C 0.12502 0.55167 0.73048 0.0
C161 C 0.10468 0.52199 0.78116 0.0
C162 C 0.07199 0.52222 0.77817 0.0
C163 C 0.09142 0.54955 0.72647 0.0
C164 C 0.06546 0.5355 0.75019 0.0
C165 C 0.04371 0.50796 0.80307 0.0
H166 H 0.86882 0.36989 0.81489 0.0
H167 H 0.93106 0.40718 0.8333 0.0
H168 H 0.88448 0.45263 0.74847 0.0
H169 H 0.94703 0.49033 0.76704 0.0
H170 H 0.883 0.47516 0.8857 0.0
H171 H 0.92991 0.4927 0.84551 0.0
H172 H 0.93562 0.43166 0.94269 0.0
H173 H 0.98229 0.44851 0.90229 0.0
H174 H 0.16856 0.6099 0.8443 0.0
H175 H 0.10572 0.58283 0.82578 0.0
H176 H 0.14128 0.51191 0.89447 0.0
H177 H 0.0787 0.48498 0.87621 0.0
H178 H 0.15693 0.53864 0.76159 0.0
H179 H 0.10983 0.50969 0.80121 0.0
H180 H 0.08559 0.55958 0.70518 0.0
H181 H 0.04031 0.53539 0.74674 0.0
N182 N 0.00857 0.48893 0.79373 0.0
N183 N 0.02286 0.5 0.85613 0.0
C184 C 0.47532 0.8796 0.98367 0.0
C185 C 0.45986 0.86876 0.95374 0.0
C186 C 0.48621 0.91425 0.99465 0.0
C187 C 0.47964 0.93818 0.97691 0.0
C188 C 0.45458 0.89301 0.93534 0.0
C189 C 0.46396 0.92721 0.94697 0.0
C190 C 0.49192 0.97559 0.98806 0.0
C191 C 0.42171 0.90194 0.06404 0.0
C192 C 0.44069 0.9042 0.0916 0.0
C193 C 0.43772 0.92863 0.04097 0.0
C194 C 0.47311 0.95755 0.04503 0.0
C195 C 0.47538 0.93375 0.09624 0.0
C196 C 0.49143 0.96032 0.07317 0.0
C197 C 0.49149 0.9847 0.02 0.0
C198 C 0.5636 0.14832 0.01416 0.0
C199 C 0.59242 0.15732 0.03487 0.0
C200 C 0.54023 0.11223 0.00615 0.0
C201 C 0.54575 0.08485 0.01848 0.0
C202 C 0.59648 0.12982 0.04873 0.0
C203 C 0.57321 0.09382 0.04069 0.0
C204 C 0.52508 0.04725 0.00694 0.0
C205 C 0.59031 0.11823 0.92644 0.0
C206 C 0.56793 0.11851 0.90248 0.0
C207 C 0.57605 0.09182 0.94989 0.0
C208 C 0.53917 0.06563 0.94975 0.0
C209 C 0.53129 0.09195 0.902 0.0
C210 C 0.51706 0.06559 0.92541 0.0
C211 C 0.52324 0.03823 0.97486 0.0
H212 H 0.48021 0.86161 0.99812 0.0
H213 H 0.50046 0.92234 0.01679 0.0
H214 H 0.44325 0.88547 0.91196 0.0
H215 H 0.45934 0.94526 0.93238 0.0
H216 H 0.39473 0.87944 0.06034 0.0
H217 H 0.42275 0.92639 0.01976 0.0
H218 H 0.4902 0.93593 0.11755 0.0
H219 H 0.51858 0.98252 0.07693 0.0
H220 H 0.56006 0.16929 0.00338 0.0
H221 H 0.51873 0.10584 0.98947 0.0
H222 H 0.61855 0.13637 0.06482 0.0
H223 H 0.57779 0.07313 0.05064 0.0
H224 H 0.61875 0.13831 0.92686 0.0
H225 H 0.59373 0.0919 0.96816 0.0
H226 H 0.51379 0.09164 0.88345 0.0
H227 H 0.48863 0.04546 0.92478 0.0
N228 N 0.507 0.00284 0.96668 0.0
N229 N 0.50893 0.02014 0.02826 0.0
C230 C 0.50995 0.63896 0.17767 0.0
C231 C 0.48358 0.62578 0.20126 0.0
C232 C 0.52454 0.61811 0.16701 0.0
C233 C 0.51256 0.58351 0.17947 0.0
C234 C 0.47235 0.59173 0.21447 0.0
C235 C 0.48692 0.5708 0.20376 0.0
C236 C 0.52668 0.56058 0.16722 0.0
C237 C 0.4616 0.57145 0.08979 0.0
C238 C 0.48119 0.58784 0.06244 0.0
C239 C 0.47683 0.56061 0.11341 0.0
C240 C 0.51221 0.56671 0.11029 0.0
C241 C 0.51629 0.59361 0.05904 0.0
C242 C 0.53167 0.58305 0.08278 0.0
C243 C 0.52839 0.55455 0.13483 0.0
C244 C 0.58398 0.44935 0.13324 0.0
C245 C 0.61428 0.46816 0.11381 0.0
C246 C 0.56418 0.46564 0.14276 0.0
C247 C 0.57497 0.50115 0.1334 0.0
C248 C 0.62349 0.50257 0.10274 0.0
C249 C 0.60386 0.51889 0.11236 0.0
C250 C 0.55781 0.52094 0.1464 0.0
C251 C 0.61099 0.49413 0.2247 0.0
C252 C 0.59027 0.48036 0.25211 0.0
C253 C 0.60101 0.51078 0.20164 0.0
C254 C 0.56843 0.51128 0.2042 0.0
C255 C 0.55926 0.4834 0.25581 0.0
C256 C 0.54818 0.49814 0.23195 0.0
C257 C 0.5553 0.52613 0.17901 0.0
H258 H 0.51908 0.66532 0.16742 0.0
H259 H 0.54498 0.62891 0.14885 0.0
H260 H 0.4521 0.58129 0.2328 0.0
H261 H 0.47757 0.54436 0.2139 0.0
H262 H 0.43427 0.56638 0.09251 0.0
H263 H 0.46074 0.54696 0.13387 0.0
H264 H 0.53158 0.60595 0.03788 0.0
H265 H 0.55879 0.58767 0.07968 0.0
H266 H 0.57652 0.42271 0.1419 0.0
H267 H 0.5415 0.45123 0.1585 0.0
H268 H 0.64678 0.51736 0.08769 0.0
H269 H 0.61234 0.5461 0.10457 0.0
H270 H 0.63529 0.49258 0.22144 0.0
H271 H 0.61879 0.52298 0.1818 0.0
H272 H 0.54311 0.47354 0.27693 0.0
H273 H 0.52343 0.49888 0.2351 0.0
N274 N 0.53973 0.54575 0.18799 0.0
N275 N 0.54438 0.53546 0.1257 0.0
O276 O 0.59992 0.38676 0.44622 0.0
Cd277 Cd 0.61294 0.36512 0.40814 0.0
Cd278 Cd 0.67246 0.42794 0.41287 0.0
O279 O 0.6546 0.43193 0.4564 0.0
O280 O 0.57648 0.31261 0.40984 0.0
O281 O 0.63509 0.33416 0.41702 0.0
C282 C 0.60266 0.30694 0.41635 0.0
C283 C 0.72747 0.43124 0.40437 0.0
C284 C 0.62151 0.41283 0.46362 0.0
C285 C 0.62697 0.4175 0.35685 0.0
O286 O 0.65 0.4404 0.37572 0.0
O287 O 0.61178 0.38401 0.36331 0.0
O288 O 0.72569 0.45993 0.41008 0.0
O289 O 0.69801 0.40035 0.40467 0.0
O290 O 0.2242 0.59015 0.60631 0.0
Cd291 Cd 0.25932 0.60334 0.56917 0.0
Cd292 Cd 0.26394 0.66621 0.57582 0.0
O293 O 0.24442 0.64641 0.62046 0.0
O294 O 0.2798 0.57058 0.57096 0.0
O295 O 0.31243 0.62991 0.57799 0.0
C296 C 0.31041 0.59877 0.57736 0.0
C297 C 0.31283 0.72414 0.56863 0.0
C298 C 0.22507 0.61281 0.62601 0.0
C299 C 0.22315 0.62043 0.51997 0.0
O300 O 0.22812 0.64598 0.5383 0.0
O301 O 0.23753 0.6013 0.52579 0.0
O302 O 0.28146 0.71909 0.57619 0.0
O303 O 0.31695 0.69632 0.5663 0.0
O304 O 0.64504 0.226 0.78378 0.0
Cd305 Cd 0.66586 0.25798 0.74445 0.0
Cd306 Cd 0.60425 0.25986 0.74881 0.0
O307 O 0.59843 0.23407 0.79127 0.0
O308 O 0.7184 0.27442 0.74501 0.0
O309 O 0.6967 0.31166 0.74976 0.0
C310 C 0.72409 0.30665 0.74948 0.0
C311 C 0.59726 0.3101 0.74349 0.0
C312 C 0.61771 0.22061 0.79975 0.0
C313 C 0.6128 0.22156 0.69318 0.0
O314 O 0.59178 0.22815 0.70927 0.0
O315 O 0.64524 0.23324 0.70178 0.0
O316 O 0.56984 0.27841 0.74807 0.0
O317 O 0.62912 0.31373 0.74361 0.0
O318 O 0.43527 0.6479 0.94064 0.0
Cd319 Cd 0.41642 0.66725 0.90485 0.0
Cd320 Cd 0.35997 0.60464 0.91304 0.0
O321 O 0.3816 0.60471 0.95601 0.0
O322 O 0.45113 0.72007 0.90176 0.0
O323 O 0.39533 0.69755 0.91924 0.0
C324 C 0.42656 0.72542 0.9138 0.0
C325 C 0.30422 0.59981 0.90519 0.0
C326 C 0.41546 0.62356 0.96026 0.0
C327 C 0.40069 0.61374 0.85503 0.0
O328 O 0.38144 0.59109 0.8759 0.0
O329 O 0.41277 0.64718 0.85974 0.0
O330 O 0.30677 0.57184 0.91236 0.0
O331 O 0.3333 0.63095 0.90376 0.0
O332 O 0.79607 0.37786 0.03096 0.0
Cd333 Cd 0.7645 0.35346 0.06984 0.0
Cd334 Cd 0.76857 0.41767 0.07572 0.0
O335 O 0.79482 0.42884 0.03298 0.0
O336 O 0.74229 0.30063 0.06246 0.0
O337 O 0.7105 0.32855 0.06622 0.0
C338 C 0.71147 0.29922 0.06167 0.0
C339 C 0.72022 0.42707 0.08389 0.0
C340 C 0.80476 0.40864 0.0197 0.0
C341 C 0.80365 0.39627 0.12608 0.0
O342 O 0.79851 0.42081 0.11477 0.0
O343 O 0.79061 0.36571 0.11272 0.0
O344 O 0.75289 0.45373 0.08307 0.0
O345 O 0.7147 0.39488 0.07924 0.0
O346 O 0.42007 0.79812 0.20474 0.0
Cd347 Cd 0.418 0.76799 0.24345 0.0
Cd348 Cd 0.35311 0.76227 0.24946 0.0
O349 O 0.36384 0.78723 0.20632 0.0
O350 O 0.45697 0.75606 0.23688 0.0
O351 O 0.39885 0.71471 0.23878 0.0
C352 C 0.432 0.72269 0.23507 0.0
C353 C 0.29963 0.70897 0.25872 0.0
C354 C 0.39464 0.80176 0.19325 0.0
C355 C 0.40788 0.80397 0.29906 0.0
O356 O 0.37741 0.7956 0.28729 0.0
O357 O 0.42778 0.79318 0.28658 0.0
O358 O 0.30042 0.73946 0.25735 0.0
O359 O 0.32922 0.70844 0.25423 0.0
C360 C 0.21514 0.64587 0.30381 0.0
C361 C 0.19587 0.6188 0.28095 0.0
C362 C 0.24632 0.64911 0.24402 0.0
C363 C 0.26567 0.67588 0.26704 0.0
N364 N 0.27278 0.69549 0.32089 0.0
N365 N 0.19515 0.59004 0.23219 0.0
C366 C 0.25137 0.67288 0.29762 0.0
C367 C 0.21219 0.61896 0.25193 0.0
N368 N 0.1983 0.64672 0.33083 0.0
N369 N 0.2598 0.6534 0.21425 0.0
H370 H 0.17006 0.56768 0.23734 0.0
H371 H 0.20701 0.58676 0.21208 0.0
H372 H 0.28499 0.6748 0.20782 0.0
H373 H 0.24522 0.63713 0.19542 0.0
H374 H 0.20947 0.6681 0.34666 0.0
H375 H 0.17192 0.62721 0.33651 0.0
H376 H 0.26526 0.69236 0.34443 0.0
H377 H 0.29954 0.71548 0.31715 0.0
C378 C 0.59534 0.21437 0.41472 0.0
C379 C 0.57523 0.19914 0.4426 0.0
C380 C 0.57821 0.25647 0.45518 0.0
C381 C 0.59502 0.27049 0.42578 0.0
N382 N 0.61746 0.26282 0.37626 0.0
N383 N 0.5446 0.20388 0.4883 0.0
C384 C 0.6033 0.24955 0.40525 0.0
C385 C 0.56598 0.21976 0.46262 0.0
N386 N 0.60718 0.1953 0.39761 0.0
N387 N 0.57497 0.27867 0.47641 0.0
H388 H 0.53613 0.17743 0.49523 0.0
H389 H 0.53322 0.216 0.50166 0.0
H390 H 0.58349 0.3057 0.47175 0.0
H391 H 0.56667 0.27136 0.49954 0.0
H392 H 0.62503 0.20605 0.37884 0.0
H393 H 0.60119 0.16923 0.40362 0.0
H394 H 0.62049 0.2476 0.35876 0.0
H395 H 0.62415 0.28868 0.36886 0.0
C396 C 0.39257 0.58663 0.57212 0.0
C397 C 0.39442 0.57689 0.60366 0.0
C398 C 0.34666 0.5898 0.61852 0.0
C399 C 0.34158 0.59476 0.5864 0.0
N400 N 0.35782 0.59637 0.53208 0.0
N401 N 0.37054 0.56492 0.65643 0.0
C402 C 0.36416 0.59294 0.56301 0.0
C403 C 0.37099 0.57767 0.62686 0.0
N404 N 0.41841 0.59047 0.55113 0.0
N405 N 0.32826 0.59682 0.64107 0.0
H406 H 0.38772 0.55555 0.66355 0.0
H407 H 0.35122 0.56084 0.67325 0.0
H408 H 0.30985 0.6053 0.63578 0.0
H409 H 0.33353 0.59736 0.665 0.0
H410 H 0.42069 0.60077 0.52857 0.0
H411 H 0.43961 0.58617 0.5572 0.0
H412 H 0.37052 0.59122 0.51361 0.0
H413 H 0.33819 0.60248 0.52478 0.0
C414 C 0.80607 0.38221 0.79093 0.0
C415 C 0.83394 0.38614 0.77046 0.0
C416 C 0.78868 0.34441 0.73311 0.0
C417 C 0.76124 0.33659 0.75555 0.0
N418 N 0.74415 0.3446 0.80772 0.0
N419 N 0.85251 0.36857 0.72339 0.0
C420 C 0.7699 0.35485 0.78487 0.0
C421 C 0.82547 0.3668 0.74174 0.0
N422 N 0.81421 0.40489 0.81604 0.0
N423 N 0.77945 0.33107 0.7033 0.0
H424 H 0.8798 0.38488 0.72877 0.0
H425 H 0.84792 0.35189 0.70409 0.0
H426 H 0.7527 0.31506 0.6961 0.0
H427 H 0.79795 0.33864 0.68498 0.0
H428 H 0.79471 0.40581 0.82999 0.0
H429 H 0.84047 0.42517 0.82123 0.0
H430 H 0.74992 0.35399 0.83074 0.0
H431 H 0.71741 0.32437 0.8046 0.0
C432 C 0.41565 0.80696 0.93185 0.0
C433 C 0.45124 0.83269 0.94137 0.0
C434 C 0.46889 0.78671 0.93649 0.0
C435 C 0.43488 0.76244 0.92285 0.0
N436 N 0.37917 0.75393 0.90034 0.0
N437 N 0.51415 0.84926 0.94328 0.0
C438 C 0.40912 0.77381 0.91839 0.0
C439 C 0.47866 0.82329 0.94063 0.0
N440 N 0.38776 0.8133 0.93676 0.0
N441 N 0.49106 0.77473 0.94752 0.0
H442 H 0.52263 0.8767 0.94484 0.0
H443 H 0.53513 0.84378 0.94025 0.0
H444 H 0.48372 0.74756 0.94813 0.0
H445 H 0.51472 0.79128 0.9599 0.0
H446 H 0.36087 0.7938 0.93291 0.0
H447 H 0.39104 0.83655 0.94768 0.0
H448 H 0.36133 0.76288 0.8943 0.0
H449 H 0.3744 0.7307 0.88841 0.0
C450 C 0.63657 0.43687 0.07798 0.0
C451 C 0.63862 0.45356 0.10726 0.0
C452 C 0.68942 0.44576 0.12301 0.0
C453 C 0.6903 0.43337 0.09233 0.0
N454 N 0.66673 0.41906 0.03965 0.0
N455 N 0.66872 0.47723 0.15678 0.0
C456 C 0.66417 0.42906 0.06959 0.0
C457 C 0.66537 0.4587 0.12966 0.0
N458 N 0.60801 0.4282 0.05844 0.0
N459 N 0.71096 0.44421 0.14601 0.0
H460 H 0.65123 0.48658 0.16287 0.0
H461 H 0.69032 0.48565 0.17224 0.0
H462 H 0.72874 0.43461 0.14205 0.0
H463 H 0.70889 0.44924 0.16961 0.0
H464 H 0.60288 0.41283 0.03816 0.0
H465 H 0.58764 0.43397 0.06384 0.0
H466 H 0.65109 0.41933 0.02104 0.0
H467 H 0.68629 0.41268 0.03285 0.0
C468 C 0.37632 0.82508 0.57605 0.0
C469 C 0.39324 0.8333 0.54616 0.0
C470 C 0.35848 0.7695 0.53122 0.0
C471 C 0.34278 0.76103 0.56165 0.0
N472 N 0.3427 0.77915 0.61519 0.0
N473 N 0.40672 0.81296 0.49798 0.0
C474 C 0.35355 0.78838 0.58475 0.0
C475 C 0.38635 0.80531 0.52463 0.0
N476 N 0.38067 0.85233 0.59556 0.0
N477 N 0.34533 0.74402 0.50801 0.0
H478 H 0.42735 0.83893 0.49242 0.0
H479 H 0.40545 0.79322 0.48291 0.0
H480 H 0.32453 0.7176 0.51153 0.0
H481 H 0.35284 0.74982 0.48454 0.0
H482 H 0.36572 0.84805 0.616 0.0
H483 H 0.39727 0.87956 0.59016 0.0
H484 H 0.35254 0.79748 0.6337 0.0
H485 H 0.32648 0.75246 0.62245 0.0
C486 C 0.55835 0.37241 0.74843 0.0
C487 C 0.56972 0.39083 0.71929 0.0
C488 C 0.60198 0.3585 0.70693 0.0
C489 C 0.59155 0.34084 0.73652 0.0
N490 N 0.56737 0.33712 0.78832 0.0
N491 N 0.60908 0.40818 0.67435 0.0
C492 C 0.57208 0.34976 0.7582 0.0
C493 C 0.59383 0.3861 0.69973 0.0
N494 N 0.53323 0.37525 0.76609 0.0
N495 N 0.6175 0.34737 0.68484 0.0
H496 H 0.60355 0.42859 0.66835 0.0
H497 H 0.62966 0.40853 0.66103 0.0
H498 H 0.62352 0.32691 0.68874 0.0
H499 H 0.62167 0.35632 0.66165 0.0
H500 H 0.52075 0.35923 0.78568 0.0
H501 H 0.52283 0.39186 0.75992 0.0
H502 H 0.55647 0.34542 0.8061 0.0
H503 H 0.57762 0.32094 0.79629 0.0
C504 C 0.20947 0.58657 0.91034 0.0
C505 C 0.198 0.57688 0.87878 0.0
C506 C 0.25891 0.59045 0.86397 0.0
C507 C 0.26889 0.59543 0.89611 0.0
N508 N 0.254 0.59662 0.95042 0.0
N509 N 0.21023 0.56528 0.82602 0.0
C510 C 0.2443 0.59321 0.91948 0.0
C511 C 0.2224 0.57801 0.8556 0.0
N512 N 0.18725 0.59006 0.93132 0.0
N513 N 0.2844 0.59765 0.84144 0.0
H514 H 0.18366 0.5557 0.81887 0.0
H515 H 0.22563 0.56143 0.8092 0.0
H516 H 0.31131 0.60619 0.84673 0.0
H517 H 0.2797 0.59822 0.81751 0.0
H518 H 0.19515 0.6003 0.9539 0.0
H519 H 0.16168 0.58553 0.92524 0.0
H520 H 0.23604 0.59116 0.96887 0.0
H521 H 0.27982 0.60301 0.95775 0.0
C522 C 0.62075 0.21249 0.06904 0.0
C523 C 0.6203 0.19556 0.0403 0.0
C524 C 0.67536 0.25002 0.02345 0.0
C525 C 0.67845 0.26495 0.05377 0.0
N526 N 0.65588 0.26018 0.10643 0.0
N527 N 0.64849 0.19638 0.99098 0.0
C528 C 0.65142 0.24633 0.07679 0.0
C529 C 0.64781 0.21393 0.01758 0.0
N530 N 0.59162 0.19634 0.08866 0.0
N531 N 0.69826 0.27073 4e-05 0.0
H532 H 0.62859 0.17009 0.98551 0.0
H533 H 0.67011 0.20683 0.97537 0.0
H534 H 0.71859 0.29743 0.00345 0.0
H535 H 0.69505 0.26275 0.97662 0.0
H536 H 0.5886 0.20878 0.10849 0.0
H537 H 0.5689 0.17147 0.08365 0.0
H538 H 0.63929 0.24606 0.12526 0.0
H539 H 0.67776 0.28507 0.11282 0.0
C540 C 0.47965 0.66817 0.23975 0.0
C541 C 0.46747 0.64774 0.21166 0.0
C542 C 0.43057 0.67531 0.19937 0.0
C543 C 0.44159 0.69462 0.22813 0.0
N544 N 0.47026 0.70399 0.27869 0.0
N545 N 0.42623 0.62606 0.16789 0.0
C546 C 0.46426 0.6894 0.24924 0.0
C547 C 0.44123 0.64946 0.19248 0.0
N548 N 0.5069 0.66835 0.25671 0.0
N549 N 0.41165 0.68308 0.17787 0.0
H550 H 0.4337 0.60704 0.16197 0.0
H551 H 0.40429 0.62335 0.15504 0.0
H552 H 0.40339 0.70189 0.18187 0.0
H553 H 0.40657 0.67303 0.15504 0.0
H554 H 0.51987 0.68589 0.27532 0.0
H555 H 0.51846 0.6527 0.25078 0.0
H556 H 0.48352 0.69822 0.29629 0.0
H557 H 0.45902 0.71933 0.28651 0.0
C558 C 0.82719 0.46137 0.40782 0.0
C559 C 0.83189 0.44788 0.37885 0.0
C560 C 0.76765 0.42232 0.36682 0.0
C561 C 0.76258 0.4342 0.39653 0.0
N562 N 0.78545 0.45744 0.44816 0.0
N563 N 0.80576 0.40884 0.3341 0.0
C564 C 0.79176 0.45142 0.41793 0.0
C565 C 0.80177 0.42613 0.35944 0.0
N566 N 0.85661 0.485 0.425 0.0
N567 N 0.74068 0.40947 0.34489 0.0
H568 H 0.83041 0.41105 0.32803 0.0
H569 H 0.78412 0.38974 0.3209 0.0
H570 H 0.71547 0.40688 0.34893 0.0
H571 H 0.74432 0.40435 0.32167 0.0
H572 H 0.85501 0.49892 0.4444 0.0
H573 H 0.88305 0.49297 0.41847 0.0
H574 H 0.80503 0.46659 0.46571 0.0
H575 H 0.7597 0.44991 0.4565 0.0
C576 C 0.13621 0.59055 0.4744 0.0
C577 C 0.14695 0.58682 0.44382 0.0
C578 C 0.20921 0.61108 0.46227 0.0
C579 C 0.19739 0.61043 0.49351 0.0
N580 N 0.14836 0.59376 0.53011 0.0
N581 N 0.19263 0.5899 0.40869 0.0
C582 C 0.16058 0.59884 0.49982 0.0
C583 C 0.18325 0.59627 0.43768 0.0
N584 N 0.1029 0.58684 0.47904 0.0
N585 N 0.24529 0.62677 0.45603 0.0
H586 H 0.17448 0.57942 0.39002 0.0
H587 H 0.21764 0.59248 0.40374 0.0
H588 H 0.26499 0.6381 0.47349 0.0
H589 H 0.25589 0.63145 0.43341 0.0
H590 H 0.09501 0.59304 0.50018 0.0
H591 H 0.08432 0.58086 0.46092 0.0
H592 H 0.12111 0.58148 0.53594 0.0
H593 H 0.16497 0.59862 0.54958 0.0
C594 C 0.59981 0.1845 0.60989 0.0
C595 C 0.56963 0.14949 0.61438 0.0
C596 C 0.56958 0.1611 0.67061 0.0
C597 C 0.59809 0.19704 0.66586 0.0
N598 N 0.63656 0.24508 0.63055 0.0
N599 N 0.52127 0.10671 0.64732 0.0
C600 C 0.61224 0.20938 0.63535 0.0
C601 C 0.55313 0.1385 0.64426 0.0
N602 N 0.61715 0.19358 0.58156 0.0
N603 N 0.55937 0.14792 0.7004 0.0
H604 H 0.50846 0.08927 0.62854 0.0
H605 H 0.50588 0.09917 0.66778 0.0
H606 H 0.57107 0.16328 0.72049 0.0
H607 H 0.54165 0.12081 0.70533 0.0
H608 H 0.64164 0.21713 0.5778 0.0
H609 H 0.60832 0.17631 0.56223 0.0
H610 H 0.64504 0.25651 0.60839 0.0
H611 H 0.6461 0.26404 0.64865 0.0
C612 C 0.45276 0.60666 0.78502 0.0
C613 C 0.42928 0.57047 0.77563 0.0
C614 C 0.38384 0.5677 0.81212 0.0
C615 C 0.40999 0.60078 0.82597 0.0
N616 N 0.4731 0.64759 0.82887 0.0
N617 N 0.37438 0.51395 0.78543 0.0
C618 C 0.4455 0.61942 0.81323 0.0
C619 C 0.3952 0.5502 0.7905 0.0
N620 N 0.48176 0.62907 0.76689 0.0
N621 N 0.34803 0.55338 0.81886 0.0
H622 H 0.38246 0.49946 0.77122 0.0
H623 H 0.35087 0.49771 0.7981 0.0
H624 H 0.33829 0.56651 0.83299 0.0
H625 H 0.32785 0.53079 0.80731 0.0
H626 H 0.49784 0.65655 0.77157 0.0
H627 H 0.48716 0.62111 0.74538 0.0
H628 H 0.49986 0.65954 0.82145 0.0
H629 H 0.4704 0.65617 0.85103 0.0
C630 C 0.88782 0.46442 0.96917 0.0
C631 C 0.87843 0.44263 0.94188 0.0
C632 C 0.81807 0.40277 0.96339 0.0
C633 C 0.82913 0.42195 0.99218 0.0
N634 N 0.87638 0.46781 0.02431 0.0
N635 N 0.83608 0.38937 0.91346 0.0
C636 C 0.8644 0.45215 0.99553 0.0
C637 C 0.84383 0.4114 0.93899 0.0
N638 N 0.91894 0.49714 0.9697 0.0
N639 N 0.78272 0.37692 0.95917 0.0
H640 H 0.85405 0.39516 0.89489 0.0
H641 H 0.81292 0.36415 0.91161 0.0
H642 H 0.76315 0.37019 0.9765 0.0
H643 H 0.77211 0.3644 0.93773 0.0
H644 H 0.92533 0.51596 0.98759 0.0
H645 H 0.9369 0.50694 0.95086 0.0
H646 H 0.90314 0.48708 0.02887 0.0
H647 H 0.86045 0.45943 0.04448 0.0
C648 C 0.40938 0.88166 0.14311 0.0
C649 C 0.42456 0.87561 0.11587 0.0
C650 C 0.41294 0.81744 0.13702 0.0
C651 C 0.4022 0.82577 0.16585 0.0
N652 N 0.39478 0.86808 0.19812 0.0
N653 N 0.44368 0.83952 0.08717 0.0
C654 C 0.40124 0.85831 0.16932 0.0
C655 C 0.42692 0.84383 0.11277 0.0
N656 N 0.4025 0.90961 0.14378 0.0
N657 N 0.40896 0.78398 0.13265 0.0
H658 H 0.45346 0.85785 0.06857 0.0
H659 H 0.45004 0.81908 0.08524 0.0
H660 H 0.39855 0.76398 0.14991 0.0
H661 H 0.41293 0.77491 0.11117 0.0
H662 H 0.38794 0.91316 0.16163 0.0
H663 H 0.40853 0.92749 0.12506 0.0
H664 H 0.39793 0.89337 0.20282 0.0
H665 H 0.38928 0.85219 0.21818 0.0
C666 C 0.57499 0.42761 0.28794 0.0
C667 C 0.60064 0.46256 0.277 0.0
C668 C 0.64545 0.46157 0.31206 0.0
C669 C 0.61791 0.43063 0.32764 0.0
N670 N 0.55357 0.38905 0.33342 0.0
N671 N 0.65898 0.51616 0.28451 0.0
C672 C 0.58181 0.41468 0.31636 0.0
C673 C 0.63563 0.48054 0.29059 0.0
N674 N 0.54443 0.40639 0.27104 0.0
N675 N 0.681 0.47234 0.31691 0.0
H676 H 0.65215 0.53198 0.27069 0.0
H677 H 0.68357 0.53086 0.29617 0.0
H678 H 0.68937 0.45758 0.33053 0.0
H679 H 0.70174 0.49323 0.30417 0.0
H680 H 0.52649 0.37959 0.27695 0.0
H681 H 0.5393 0.41416 0.24929 0.0
H682 H 0.52674 0.37931 0.32699 0.0
H683 H 0.55632 0.38069 0.3557 0.0
C684 C 0.46124 0.89026 0.34627 0.0
C685 C 0.44287 0.87951 0.37548 0.0
C686 C 0.40309 0.81838 0.35531 0.0
C687 C 0.42137 0.82913 0.32603 0.0
N688 N 0.46906 0.87382 0.29351 0.0
N689 N 0.39958 0.83336 0.4098 0.0
C690 C 0.45099 0.86461 0.32156 0.0
C691 C 0.41476 0.84349 0.3806 0.0
N692 N 0.4879 0.92536 0.34207 0.0
N693 N 0.37422 0.78427 0.35862 0.0
H694 H 0.40631 0.85139 0.42844 0.0
H695 H 0.38165 0.80688 0.41635 0.0
H696 H 0.36654 0.76446 0.34138 0.0
H697 H 0.35691 0.77562 0.37783 0.0
H698 H 0.49979 0.93653 0.3206 0.0
H699 H 0.49766 0.94432 0.36015 0.0
H700 H 0.49329 0.89754 0.28961 0.0
H701 H 0.46066 0.8571 0.27386 0.0
C702 C 0.57627 0.40757 0.54182 0.0
C703 C 0.57684 0.44102 0.54153 0.0
C704 C 0.60585 0.45543 0.48989 0.0
C705 C 0.60722 0.42297 0.49094 0.0
N706 N 0.59926 0.37082 0.51945 0.0
N707 N 0.59739 0.4996 0.51845 0.0
C708 C 0.59393 0.39972 0.51736 0.0
C709 C 0.59328 0.46583 0.51651 0.0
N710 N 0.55813 0.38306 0.5651 0.0
N711 N 0.6149 0.47542 0.46287 0.0
H712 H 0.58782 0.50798 0.53729 0.0
H713 H 0.6128 0.52029 0.50271 0.0
H714 H 0.62411 0.46873 0.44273 0.0
H715 H 0.61047 0.49699 0.45942 0.0
H716 H 0.55322 0.35666 0.56486 0.0
H717 H 0.5458 0.38838 0.58385 0.0
H718 H 0.59347 0.3548 0.53941 0.0
H719 H 0.61234 0.36454 0.50201 0.0
C720 C 0.16378 0.60403 0.6949 0.0
C721 C 0.15331 0.56873 0.70568 0.0
C722 C 0.19766 0.56775 0.67007 0.0
C723 C 0.20243 0.59949 0.65492 0.0
N724 N 0.18179 0.64282 0.64956 0.0
N725 N 0.15554 0.51383 0.69794 0.0
C726 C 0.18344 0.61653 0.66646 0.0
C727 C 0.16898 0.54964 0.6918 0.0
N728 N 0.15553 0.62595 0.71197 0.0
N729 N 0.22106 0.55539 0.6646 0.0
H730 H 0.1331 0.49877 0.71217 0.0
H731 H 0.16427 0.49829 0.68606 0.0
H732 H 0.24397 0.56924 0.65062 0.0
H733 H 0.2201 0.53395 0.67709 0.0
H734 H 0.16527 0.65296 0.7062 0.0
H735 H 0.14258 0.61839 0.73369 0.0
H736 H 0.16554 0.65347 0.65618 0.0
H737 H 0.19267 0.65081 0.62718 0.0
C738 C 0.59005 0.1814 0.88215 0.0
C739 C 0.58293 0.14565 0.87692 0.0
C740 C 0.59653 0.15869 0.82106 0.0
C741 C 0.60615 0.19516 0.82656 0.0
N742 N 0.61796 0.24299 0.86288 0.0
N743 N 0.58638 0.10223 0.84325 0.0
C744 C 0.60454 0.20706 0.85729 0.0
C745 C 0.58833 0.13492 0.84691 0.0
N746 N 0.58196 0.19047 0.91055 0.0
N747 N 0.59345 0.14621 0.791 0.0
H748 H 0.58037 0.08401 0.86168 0.0
H749 H 0.59395 0.09458 0.82271 0.0
H750 H 0.59858 0.16245 0.77124 0.0
H751 H 0.58256 0.11901 0.78551 0.0
H752 H 0.58277 0.21482 0.91476 0.0
H753 H 0.57191 0.17257 0.92944 0.0
H754 H 0.62107 0.25389 0.88528 0.0
H755 H 0.62886 0.26248 0.84523 0.0
C756 C 0.44539 0.5714 0.01261 0.0
C757 C 0.46417 0.59717 0.03649 0.0
C758 C 0.44891 0.63959 0.01156 0.0
C759 C 0.43231 0.61473 0.98657 0.0
N760 N 0.42011 0.55989 0.96015 0.0
N761 N 0.4877 0.65704 0.05755 0.0
C762 C 0.43189 0.58135 0.98627 0.0
C763 C 0.46706 0.63169 0.03564 0.0
N764 N 0.4399 0.53716 0.01542 0.0
N765 N 0.4462 0.67009 0.01276 0.0
H766 H 0.50041 0.65177 0.07605 0.0
H767 H 0.49423 0.68393 0.05636 0.0
H768 H 0.43332 0.67679 0.9954 0.0
H769 H 0.45433 0.68748 0.03192 0.0
H770 H 0.42278 0.51594 0.0008 0.0
H771 H 0.45035 0.5291 0.03387 0.0
H772 H 0.42294 0.53731 0.95704 0.0
H773 H 0.41026 0.5663 0.94021 0.0
C774 C 0.8432 0.42944 0.20723 0.0
C775 C 0.87613 0.42912 0.20478 0.0
C776 C 0.86091 0.40581 0.1511 0.0
C777 C 0.82725 0.40465 0.15394 0.0
N778 N 0.78312 0.40846 0.18631 0.0
N779 N 0.91303 0.40996 0.1776 0.0
C780 C 0.81742 0.4144 0.18255 0.0
C781 C 0.88388 0.41499 0.1777 0.0
N782 N 0.83716 0.44523 0.23263 0.0
N783 N 0.87197 0.40031 0.12254 0.0
H784 H 0.93066 0.41672 0.19661 0.0
H785 H 0.91792 0.39618 0.1599 0.0
H786 H 0.85632 0.39399 0.10225 0.0
H787 H 0.89794 0.40502 0.11828 0.0
H788 H 0.81564 0.45004 0.23416 0.0
H789 H 0.85508 0.45584 0.25146 0.0
H790 H 0.77308 0.41165 0.20758 0.0
H791 H 0.76353 0.39718 0.16877 0.0
loop_
_geom_bond_atom_site_label_1
_geom_bond_atom_site_label_2
_geom_bond_distance
_geom_bond_site_symmetry_2
_ccdc_geom_bond_type
C0 C1 1.384 . S
C0 C2 1.384 . S
C0 H28 0.931 . S
C1 C0 1.384 . S
C1 C4 1.382 . S
C2 C0 1.384 . S
C2 C3 1.381 . S
C2 H29 0.930 . S
C3 C2 1.381 . S
C3 C5 1.381 . S
C3 C6 1.487 . S
C4 C1 1.382 . S
C4 C5 1.387 . S
C4 H30 0.930 . S
C5 C3 1.381 . S
C5 C4 1.387 . S
C5 H31 0.931 . S
C6 C3 1.487 . S
C6 C13 1.399 . S
C6 N44 1.362 . S
C7 C8 1.384 . S
C7 C9 1.384 . S
C7 H32 0.931 . S
C8 C7 1.384 . S
C8 C11 1.382 . S
C9 C7 1.384 . S
C9 C10 1.381 . S
C9 H33 0.930 . S
C10 C9 1.381 . S
C10 C12 1.381 . S
C10 C13 1.487 . S
C11 C8 1.382 . S
C11 C12 1.387 . S
C11 H34 0.930 . S
C12 C10 1.381 . S
C12 C11 1.387 . S
C12 H35 0.931 . S
C13 C6 1.399 . S
C13 C10 1.487 . S
C13 N45 1.343 1_655 S
C14 C15 1.384 . S
C14 C16 1.384 . S
C14 H36 0.931 . S
C15 C14 1.384 . S
C15 C18 1.382 . S
C16 C14 1.384 . S
C16 C17 1.381 . S
C16 H37 0.930 . S
C17 C16 1.381 . S
C17 C19 1.381 . S
C17 C20 1.487 . S
C18 C15 1.382 . S
C18 C19 1.387 . S
C18 H38 0.930 . S
C19 C17 1.381 . S
C19 C18 1.387 . S
C19 H39 0.931 . S
C20 C17 1.487 . S
C20 C27 1.399 . S
C20 N45 1.343 . S
C21 C22 1.384 . S
C21 C23 1.384 . S
C21 H40 0.931 . S
C22 C21 1.384 . S
C22 C25 1.382 . S
C23 C21 1.384 . S
C23 C24 1.381 . S
C23 H41 0.930 . S
C24 C23 1.381 . S
C24 C26 1.381 . S
C24 C27 1.487 . S
C25 C22 1.382 . S
C25 C26 1.387 . S
C25 H42 0.930 . S
C26 C24 1.381 . S
C26 C25 1.387 . S
C26 H43 0.931 . S
C27 C20 1.399 . S
C27 C24 1.487 . S
C27 N44 1.318 1_455 S
H28 C0 0.931 . S
H29 C2 0.930 . S
H30 C4 0.930 . S
H31 C5 0.931 . S
H32 C7 0.931 . S
H33 C9 0.930 . S
H34 C11 0.930 . S
H35 C12 0.931 . S
H36 C14 0.931 . S
H37 C16 0.930 . S
H38 C18 0.930 . S
H39 C19 0.931 . S
H40 C21 0.931 . S
H41 C23 0.930 . S
H42 C25 0.930 . S
H43 C26 0.931 . S
N44 C6 1.362 . S
N44 C27 1.318 1_655 S
N45 C13 1.343 1_455 S
N45 C20 1.343 . S
C46 C47 1.384 . S
C46 C48 1.384 . S
C46 H74 0.931 . S
C47 C46 1.384 . S
C47 C50 1.382 . S
C48 C46 1.384 . S
C48 C49 1.381 . S
C48 H75 0.930 . S
C49 C48 1.381 . S
C49 C51 1.381 . S
C49 C52 1.487 . S
C50 C47 1.382 . S
C50 C51 1.387 . S
C50 H76 0.930 . S
C51 C49 1.381 . S
C51 C50 1.387 . S
C51 H77 0.931 . S
C52 C49 1.487 . S
C52 C59 1.399 . S
C52 N90 1.343 . S
C53 C54 1.384 . S
C53 C55 1.384 . S
C53 H78 0.931 . S
C54 C53 1.384 . S
C54 C57 1.382 . S
C55 C53 1.384 . S
C55 C56 1.381 . S
C55 H79 0.930 . S
C56 C55 1.381 . S
C56 C58 1.381 . S
C56 C59 1.487 . S
C57 C54 1.382 . S
C57 C58 1.387 . S
C57 H80 0.930 . S
C58 C56 1.381 . S
C58 C57 1.387 . S
C58 H81 0.931 . S
C59 C52 1.399 . S
C59 C56 1.487 . S
C59 N91 1.343 1_565 S
C60 C61 1.384 . S
C60 C62 1.384 . S
C60 H82 0.931 . S
C61 C60 1.384 . S
C61 C64 1.382 . S
C62 C60 1.384 . S
C62 C63 1.381 . S
C62 H83 0.930 . S
C63 C62 1.381 . S
C63 C65 1.381 . S
C63 C66 1.487 . S
C64 C61 1.382 . S
C64 C65 1.387 . S
C64 H84 0.930 . S
C65 C63 1.381 . S
C65 C64 1.387 . S
C65 H85 0.931 . S
C66 C63 1.487 . S
C66 C73 1.399 . S
C66 N91 1.343 . S
C67 C68 1.384 . S
C67 C69 1.384 . S
C67 H86 0.931 . S
C68 C67 1.384 . S
C68 C71 1.382 . S
C69 C67 1.384 . S
C69 C70 1.381 . S
C69 H87 0.930 . S
C70 C69 1.381 . S
C70 C72 1.381 . S
C70 C73 1.487 . S
C71 C68 1.382 . S
C71 C72 1.387 . S
C71 H88 0.930 . S
C72 C70 1.381 . S
C72 C71 1.387 . S
C72 H89 0.931 . S
C73 C66 1.399 . S
C73 C70 1.487 . S
C73 N90 1.342 1_545 S
H74 C46 0.931 . S
H75 C48 0.930 . S
H76 C50 0.930 . S
H77 C51 0.931 . S
H78 C53 0.931 . S
H79 C55 0.930 . S
H80 C57 0.930 . S
H81 C58 0.931 . S
H82 C60 0.931 . S
H83 C62 0.930 . S
H84 C64 0.930 . S
H85 C65 0.931 . S
H86 C67 0.931 . S
H87 C69 0.930 . S
H88 C71 0.930 . S
H89 C72 0.931 . S
N90 C52 1.343 . S
N90 C73 1.342 1_565 S
N91 C59 1.343 1_545 S
N91 C66 1.343 . S
C92 C93 1.384 . S
C92 C94 1.384 . S
C92 H120 0.931 . S
C93 C92 1.384 . S
C93 C96 1.382 . S
C94 C92 1.384 . S
C94 C95 1.381 . S
C94 H121 0.930 . S
C95 C94 1.381 . S
C95 C97 1.381 . S
C95 C98 1.487 . S
C96 C93 1.382 . S
C96 C97 1.387 . S
C96 H122 0.930 . S
C97 C95 1.381 . S
C97 C96 1.387 . S
C97 H123 0.931 . S
C98 C95 1.487 . S
C98 C105 1.399 . S
C98 N136 1.343 . S
C99 C100 1.384 . S
C99 C101 1.384 . S
C99 H124 0.931 . S
C100 C99 1.384 . S
C100 C103 1.382 . S
C101 C99 1.384 . S
C101 C102 1.381 . S
C101 H125 0.930 . S
C102 C101 1.381 . S
C102 C104 1.381 . S
C102 C105 1.487 . S
C103 C100 1.382 . S
C103 C104 1.387 . S
C103 H126 0.930 . S
C104 C102 1.381 . S
C104 C103 1.387 . S
C104 H127 0.931 . S
C105 C98 1.399 . S
C105 C102 1.487 . S
C105 N137 1.343 . S
C106 C107 1.384 . S
C106 C108 1.384 . S
C106 H128 0.931 . S
C107 C106 1.384 . S
C107 C110 1.382 . S
C108 C106 1.384 . S
C108 C109 1.381 . S
C108 H129 0.930 . S
C109 C108 1.381 . S
C109 C111 1.381 . S
C109 C112 1.487 . S
C110 C107 1.382 . S
C110 C111 1.387 . S
C110 H130 0.930 . S
C111 C109 1.381 . S
C111 C110 1.387 . S
C111 H131 0.931 . S
C112 C109 1.487 . S
C112 C119 1.399 . S
C112 N137 1.343 . S
C113 C114 1.384 . S
C113 C115 1.384 . S
C113 H132 0.931 . S
C114 C113 1.384 . S
C114 C117 1.382 . S
C115 C113 1.384 . S
C115 C116 1.381 . S
C115 H133 0.930 . S
C116 C115 1.381 . S
C116 C118 1.381 . S
C116 C119 1.487 . S
C117 C114 1.382 . S
C117 C118 1.387 . S
C117 H134 0.930 . S
C118 C116 1.381 . S
C118 C117 1.387 . S
C118 H135 0.931 . S
C119 C112 1.399 . S
C119 C116 1.487 . S
C119 N136 1.343 . S
H120 C92 0.931 . S
H121 C94 0.930 . S
H122 C96 0.930 . S
H123 C97 0.931 . S
H124 C99 0.931 . S
H125 C101 0.930 . S
H126 C103 0.930 . S
H127 C104 0.931 . S
H128 C106 0.931 . S
H129 C108 0.930 . S
H130 C110 0.930 . S
H131 C111 0.931 . S
H132 C113 0.931 . S
H133 C115 0.930 . S
H134 C117 0.930 . S
H135 C118 0.931 . S
N136 C98 1.343 . S
N136 C119 1.343 . S
N137 C105 1.343 . S
N137 C112 1.343 . S
C138 C139 1.384 . S
C138 C140 1.384 . S
C138 H166 0.931 . S
C139 C138 1.384 . S
C139 C142 1.382 . S
C140 C138 1.384 . S
C140 C141 1.381 . S
C140 H167 0.930 . S
C141 C140 1.381 . S
C141 C143 1.381 . S
C141 C144 1.487 . S
C142 C139 1.382 . S
C142 C143 1.387 . S
C142 H168 0.930 . S
C143 C141 1.381 . S
C143 C142 1.387 . S
C143 H169 0.931 . S
C144 C141 1.487 . S
C144 C151 1.399 . S
C144 N182 1.352 . S
C145 C146 1.384 . S
C145 C147 1.384 . S
C145 H170 0.931 . S
C146 C145 1.384 . S
C146 C149 1.382 . S
C147 C145 1.384 . S
C147 C148 1.381 . S
C147 H171 0.930 . S
C148 C147 1.381 . S
C148 C150 1.381 . S
C148 C151 1.487 . S
C149 C146 1.382 . S
C149 C150 1.387 . S
C149 H172 0.930 . S
C150 C148 1.381 . S
C150 C149 1.387 . S
C150 H173 0.931 . S
C151 C144 1.399 . S
C151 C148 1.487 . S
C151 N183 1.343 1_655 S
C152 C153 1.384 . S
C152 C154 1.384 . S
C152 H174 0.931 . S
C153 C152 1.384 . S
C153 C156 1.382 . S
C154 C152 1.384 . S
C154 C155 1.381 . S
C154 H175 0.930 . S
C155 C154 1.381 . S
C155 C157 1.381 . S
C155 C158 1.487 . S
C156 C153 1.382 . S
C156 C157 1.387 . S
C156 H176 0.930 . S
C157 C155 1.381 . S
C157 C156 1.387 . S
C157 H177 0.931 . S
C158 C155 1.487 . S
C158 C165 1.399 . S
C158 N183 1.343 . S
C159 C160 1.384 . S
C159 C161 1.384 . S
C159 H178 0.931 . S
C160 C159 1.384 . S
C160 C163 1.382 . S
C161 C159 1.384 . S
C161 C162 1.381 . S
C161 H179 0.930 . S
C162 C161 1.381 . S
C162 C164 1.381 . S
C162 C165 1.487 . S
C163 C160 1.382 . S
C163 C164 1.387 . S
C163 H180 0.930 . S
C164 C162 1.381 . S
C164 C163 1.387 . S
C164 H181 0.931 . S
C165 C158 1.399 . S
C165 C162 1.487 . S
C165 N182 1.328 1_455 S
H166 C138 0.931 . S
H167 C140 0.930 . S
H168 C142 0.930 . S
H169 C143 0.931 . S
H170 C145 0.931 . S
H171 C147 0.930 . S
H172 C149 0.930 . S
H173 C150 0.931 . S
H174 C152 0.931 . S
H175 C154 0.930 . S
H176 C156 0.930 . S
H177 C157 0.931 . S
H178 C159 0.931 . S
H179 C161 0.930 . S
H180 C163 0.930 . S
H181 C164 0.931 . S
N182 C144 1.352 . S
N182 C165 1.328 1_655 S
N183 C151 1.343 1_455 S
N183 C158 1.343 . S
C184 C185 1.384 . S
C184 C186 1.384 . S
C184 H212 0.931 . S
C185 C184 1.384 . S
C185 C188 1.382 . S
C186 C184 1.384 . S
C186 C187 1.381 . S
C186 H213 0.930 1_556 S
C187 C186 1.381 . S
C187 C189 1.381 . S
C187 C190 1.487 . S
C188 C185 1.382 . S
C188 C189 1.387 . S
C188 H214 0.930 . S
C189 C187 1.381 . S
C189 C188 1.387 . S
C189 H215 0.931 . S
C190 C187 1.487 . S
C190 C197 1.399 1_556 S
C190 N228 1.351 . S
C191 C192 1.384 . S
C191 C193 1.384 . S
C191 H216 0.931 . S
C192 C191 1.384 . S
C192 C195 1.382 . S
C193 C191 1.384 . S
C193 C194 1.381 . S
C193 H217 0.930 . S
C194 C193 1.381 . S
C194 C196 1.381 . S
C194 C197 1.487 . S
C195 C192 1.382 . S
C195 C196 1.387 . S
C195 H218 0.930 . S
C196 C194 1.381 . S
C196 C195 1.387 . S
C196 H219 0.931 . S
C197 C190 1.399 1_554 S
C197 C194 1.487 . S
C197 N229 1.343 1_565 S
C198 C199 1.384 . S
C198 C200 1.384 1_554 S
C198 H220 0.931 . S
C199 C198 1.384 . S
C199 C202 1.382 . S
C200 C198 1.384 1_556 S
C200 C201 1.381 1_556 S
C200 H221 0.930 . S
C201 C200 1.381 1_554 S
C201 C203 1.381 . S
C201 C204 1.487 1_554 S
C202 C199 1.382 . S
C202 C203 1.387 . S
C202 H222 0.930 . S
C203 C201 1.381 . S
C203 C202 1.387 . S
C203 H223 0.931 . S
C204 C201 1.487 1_556 S
C204 C211 1.398 . S
C204 N229 1.344 1_556 S
C205 C206 1.384 . S
C205 C207 1.384 . S
C205 H224 0.931 . S
C206 C205 1.384 . S
C206 C209 1.382 . S
C207 C205 1.384 . S
C207 C208 1.381 . S
C207 H225 0.930 . S
C208 C207 1.381 . S
C208 C210 1.381 . S
C208 C211 1.487 . S
C209 C206 1.382 . S
C209 C210 1.387 . S
C209 H226 0.930 . S
C210 C208 1.381 . S
C210 C209 1.387 . S
C210 H227 0.931 . S
C211 C204 1.398 . S
C211 C208 1.487 . S
C211 N228 1.332 1_545 S
H212 C184 0.931 . S
H213 C186 0.930 1_554 S
H214 C188 0.930 . S
H215 C189 0.931 . S
H216 C191 0.931 . S
H217 C193 0.930 . S
H218 C195 0.930 . S
H219 C196 0.931 . S
H220 C198 0.931 . S
H221 C200 0.930 . S
H222 C202 0.930 . S
H223 C203 0.931 . S
H224 C205 0.931 . S
H225 C207 0.930 . S
H226 C209 0.930 . S
H227 C210 0.931 . S
N228 C190 1.351 . S
N228 C211 1.332 1_565 S
N229 C197 1.343 1_545 S
N229 C204 1.344 1_554 S
C230 C231 1.384 . S
C230 C232 1.384 . S
C230 H258 0.931 . S
C231 C230 1.384 . S
C231 C234 1.382 . S
C232 C230 1.384 . S
C232 C233 1.381 . S
C232 H259 0.930 . S
C233 C232 1.381 . S
C233 C235 1.381 . S
C233 C236 1.487 . S
C234 C231 1.382 . S
C234 C235 1.387 . S
C234 H260 0.930 . S
C235 C233 1.381 . S
C235 C234 1.387 . S
C235 H261 0.931 . S
C236 C233 1.487 . S
C236 C243 1.399 . S
C236 N274 1.343 . S
C237 C238 1.384 . S
C237 C239 1.384 . S
C237 H262 0.931 . S
C238 C237 1.384 . S
C238 C241 1.382 . S
C239 C237 1.384 . S
C239 C240 1.381 . S
C239 H263 0.930 . S
C240 C239 1.381 . S
C240 C242 1.381 . S
C240 C243 1.487 . S
C241 C238 1.382 . S
C241 C242 1.387 . S
C241 H264 0.930 . S
C242 C240 1.381 . S
C242 C241 1.387 . S
C242 H265 0.931 . S
C243 C236 1.399 . S
C243 C240 1.487 . S
C243 N275 1.343 . S
C244 C245 1.384 . S
C244 C246 1.384 . S
C244 H266 0.931 . S
C245 C244 1.384 . S
C245 C248 1.382 . S
C246 C244 1.384 . S
C246 C247 1.381 . S
C246 H267 0.930 . S
C247 C246 1.381 . S
C247 C249 1.381 . S
C247 C250 1.487 . S
C248 C245 1.382 . S
C248 C249 1.387 . S
C248 H268 0.930 . S
C249 C247 1.381 . S
C249 C248 1.387 . S
C249 H269 0.931 . S
C250 C247 1.487 . S
C250 C257 1.399 . S
C250 N275 1.343 . S
C251 C252 1.384 . S
C251 C253 1.384 . S
C251 H270 0.931 . S
C252 C251 1.384 . S
C252 C255 1.382 . S
C253 C251 1.384 . S
C253 C254 1.381 . S
C253 H271 0.930 . S
C254 C253 1.381 . S
C254 C256 1.381 . S
C254 C257 1.487 . S
C255 C252 1.382 . S
C255 C256 1.387 . S
C255 H272 0.930 . S
C256 C254 1.381 . S
C256 C255 1.387 . S
C256 H273 0.931 . S
C257 C250 1.399 . S
C257 C254 1.487 . S
C257 N274 1.343 . S
H258 C230 0.931 . S
H259 C232 0.930 . S
H260 C234 0.930 . S
H261 C235 0.931 . S
H262 C237 0.931 . S
H263 C239 0.930 . S
H264 C241 0.930 . S
H265 C242 0.931 . S
H266 C244 0.931 . S
H267 C246 0.930 . S
H268 C248 0.930 . S
H269 C249 0.931 . S
H270 C251 0.931 . S
H271 C253 0.930 . S
H272 C255 0.930 . S
H273 C256 0.931 . S
N274 C236 1.343 . S
N274 C257 1.343 . S
N275 C243 1.343 . S
N275 C250 1.343 . S
O276 Cd277 2.223 . S
O276 C284 1.315 . S
Cd277 O276 2.223 . S
Cd277 O280 2.297 . S
Cd277 O281 2.439 . S
Cd277 O287 2.240 . S
Cd278 O279 2.240 . S
Cd278 O286 2.223 . S
Cd278 O288 2.297 . S
Cd278 O289 2.439 . S
O279 Cd278 2.240 . S
O279 C284 1.279 . S
O280 Cd277 2.297 . S
O280 C282 1.247 . S
O281 Cd277 2.439 . S
O281 C282 1.208 . S
C282 O280 1.247 . S
C282 O281 1.208 . S
C283 O288 1.247 . S
C283 O289 1.208 . S
C284 O276 1.315 . S
C284 O279 1.279 . S
C285 O286 1.315 . S
C285 O287 1.279 . S
O286 Cd278 2.223 . S
O286 C285 1.315 . S
O287 Cd277 2.240 . S
O287 C285 1.279 . S
O288 Cd278 2.297 . S
O288 C283 1.247 . S
O289 Cd278 2.439 . S
O289 C283 1.208 . S
O290 Cd291 2.223 . S
O290 C298 1.315 . S
Cd291 O290 2.223 . S
Cd291 O294 2.297 . S
Cd291 O295 2.439 . S
Cd291 O301 2.240 . S
Cd292 O293 2.240 . S
Cd292 O300 2.223 . S
Cd292 O302 2.297 . S
Cd292 O303 2.439 . S
O293 Cd292 2.240 . S
O293 C298 1.279 . S
O294 Cd291 2.297 . S
O294 C296 1.247 . S
O295 Cd291 2.439 . S
O295 C296 1.208 . S
C296 O294 1.247 . S
C296 O295 1.208 . S
C297 O302 1.247 . S
C297 O303 1.208 . S
C298 O290 1.315 . S
C298 O293 1.279 . S
C299 O300 1.315 . S
C299 O301 1.279 . S
O300 Cd292 2.223 . S
O300 C299 1.315 . S
O301 Cd291 2.240 . S
O301 C299 1.279 . S
O302 Cd292 2.297 . S
O302 C297 1.247 . S
O303 Cd292 2.439 . S
O303 C297 1.208 . S
O304 Cd305 2.223 . S
O304 C312 1.315 . S
Cd305 O304 2.223 . S
Cd305 O308 2.297 . S
Cd305 O309 2.439 . S
Cd305 O315 2.240 . S
Cd306 O307 2.240 . S
Cd306 O314 2.223 . S
Cd306 O316 2.297 . S
Cd306 O317 2.439 . S
O307 Cd306 2.240 . S
O307 C312 1.279 . S
O308 Cd305 2.297 . S
O308 C310 1.247 . S
O309 Cd305 2.439 . S
O309 C310 1.208 . S
C310 O308 1.247 . S
C310 O309 1.208 . S
C311 O316 1.247 . S
C311 O317 1.208 . S
C312 O304 1.315 . S
C312 O307 1.279 . S
C313 O314 1.315 . S
C313 O315 1.279 . S
O314 Cd306 2.223 . S
O314 C313 1.315 . S
O315 Cd305 2.240 . S
O315 C313 1.279 . S
O316 Cd306 2.297 . S
O316 C311 1.247 . S
O317 Cd306 2.439 . S
O317 C311 1.208 . S
O318 Cd319 2.223 . S
O318 C326 1.315 . S
Cd319 O318 2.223 . S
Cd319 O322 2.297 . S
Cd319 O323 2.439 . S
Cd319 O329 2.240 . S
Cd320 O321 2.240 . S
Cd320 O328 2.223 . S
Cd320 O330 2.297 . S
Cd320 O331 2.439 . S
O321 Cd320 2.240 . S
O321 C326 1.279 . S
O322 Cd319 2.297 . S
O322 C324 1.247 . S
O323 Cd319 2.439 . S
O323 C324 1.208 . S
C324 O322 1.247 . S
C324 O323 1.208 . S
C325 O330 1.247 . S
C325 O331 1.208 . S
C326 O318 1.315 . S
C326 O321 1.279 . S
C327 O328 1.315 . S
C327 O329 1.279 . S
O328 Cd320 2.223 . S
O328 C327 1.315 . S
O329 Cd319 2.240 . S
O329 C327 1.279 . S
O330 Cd320 2.297 . S
O330 C325 1.247 . S
O331 Cd320 2.439 . S
O331 C325 1.208 . S
O332 Cd333 2.223 . S
O332 C340 1.315 . S
Cd333 O332 2.223 . S
Cd333 O336 2.297 . S
Cd333 O337 2.439 . S
Cd333 O343 2.240 . S
Cd334 O335 2.240 . S
Cd334 O342 2.223 . S
Cd334 O344 2.297 . S
Cd334 O345 2.439 . S
O335 Cd334 2.240 . S
O335 C340 1.279 . S
O336 Cd333 2.297 . S
O336 C338 1.247 . S
O337 Cd333 2.439 . S
O337 C338 1.208 . S
C338 O336 1.247 . S
C338 O337 1.208 . S
C339 O344 1.247 . S
C339 O345 1.208 . S
C340 O332 1.315 . S
C340 O335 1.279 . S
C341 O342 1.315 . S
C341 O343 1.279 . S
O342 Cd334 2.223 . S
O342 C341 1.315 . S
O343 Cd333 2.240 . S
O343 C341 1.279 . S
O344 Cd334 2.297 . S
O344 C339 1.247 . S
O345 Cd334 2.439 . S
O345 C339 1.208 . S
O346 Cd347 2.223 . S
O346 C354 1.315 . S
Cd347 O346 2.223 . S
Cd347 O350 2.297 . S
Cd347 O351 2.439 . S
Cd347 O357 2.240 . S
Cd348 O349 2.240 . S
Cd348 O356 2.223 . S
Cd348 O358 2.297 . S
Cd348 O359 2.439 . S
O349 Cd348 2.240 . S
O349 C354 1.279 . S
O350 Cd347 2.297 . S
O350 C352 1.247 . S
O351 Cd347 2.439 . S
O351 C352 1.208 . S
C352 O350 1.247 . S
C352 O351 1.208 . S
C353 O358 1.247 . S
C353 O359 1.208 . S
C354 O346 1.315 . S
C354 O349 1.279 . S
C355 O356 1.315 . S
C355 O357 1.279 . S
O356 Cd348 2.223 . S
O356 C355 1.315 . S
O357 Cd347 2.240 . S
O357 C355 1.279 . S
O358 Cd348 2.297 . S
O358 C353 1.247 . S
O359 Cd348 2.439 . S
O359 C353 1.208 . S
C360 C361 1.363 . S
C360 C366 1.379 . S
C360 N368 1.356 . S
C361 C360 1.363 . S
C361 C367 1.363 . S
C362 C363 1.363 . S
C362 C367 1.379 . S
C362 N369 1.356 . S
C363 C362 1.363 . S
C363 C366 1.363 . S
N364 C366 1.356 . S
N364 H376 0.984 . S
N364 H377 0.985 . S
N365 C367 1.356 . S
N365 H370 0.984 . S
N365 H371 0.985 . S
C366 C360 1.379 . S
C366 C363 1.363 . S
C366 N364 1.356 . S
C367 C361 1.363 . S
C367 C362 1.379 . S
C367 N365 1.356 . S
N368 C360 1.356 . S
N368 H374 0.984 . S
N368 H375 0.984 . S
N369 C362 1.356 . S
N369 H372 0.984 . S
N369 H373 0.985 . S
H370 N365 0.984 . S
H371 N365 0.985 . S
H372 N369 0.984 . S
H373 N369 0.985 . S
H374 N368 0.984 . S
H375 N368 0.984 . S
H376 N364 0.984 . S
H377 N364 0.985 . S
C378 C379 1.363 . S
C378 C384 1.379 . S
C378 N386 1.356 . S
C379 C378 1.363 . S
C379 C385 1.363 . S
C380 C381 1.363 . S
C380 C385 1.379 . S
C380 N387 1.356 . S
C381 C380 1.363 . S
C381 C384 1.363 . S
N382 C384 1.356 . S
N382 H394 0.984 . S
N382 H395 0.985 . S
N383 C385 1.356 . S
N383 H388 0.984 . S
N383 H389 0.985 . S
C384 C378 1.379 . S
C384 C381 1.363 . S
C384 N382 1.356 . S
C385 C379 1.363 . S
C385 C380 1.379 . S
C385 N383 1.356 . S
N386 C378 1.356 . S
N386 H392 0.984 . S
N386 H393 0.984 . S
N387 C380 1.356 . S
N387 H390 0.984 . S
N387 H391 0.985 . S
H388 N383 0.984 . S
H389 N383 0.985 . S
H390 N387 0.984 . S
H391 N387 0.985 . S
H392 N386 0.984 . S
H393 N386 0.984 . S
H394 N382 0.984 . S
H395 N382 0.985 . S
C396 C397 1.363 . S
C396 C402 1.379 . S
C396 N404 1.356 . S
C397 C396 1.363 . S
C397 C403 1.363 . S
C398 C399 1.363 . S
C398 C403 1.379 . S
C398 N405 1.356 . S
C399 C398 1.363 . S
C399 C402 1.363 . S
N400 C402 1.356 . S
N400 H412 0.984 . S
N400 H413 0.985 . S
N401 C403 1.356 . S
N401 H406 0.984 . S
N401 H407 0.985 . S
C402 C396 1.379 . S
C402 C399 1.363 . S
C402 N400 1.356 . S
C403 C397 1.363 . S
C403 C398 1.379 . S
C403 N401 1.356 . S
N404 C396 1.356 . S
N404 H410 0.984 . S
N404 H411 0.984 . S
N405 C398 1.356 . S
N405 H408 0.984 . S
N405 H409 0.985 . S
H406 N401 0.984 . S
H407 N401 0.985 . S
H408 N405 0.984 . S
H409 N405 0.985 . S
H410 N404 0.984 . S
H411 N404 0.984 . S
H412 N400 0.984 . S
H413 N400 0.985 . S
C414 C415 1.363 . S
C414 C420 1.379 . S
C414 N422 1.356 . S
C415 C414 1.363 . S
C415 C421 1.363 . S
C416 C417 1.363 . S
C416 C421 1.379 . S
C416 N423 1.356 . S
C417 C416 1.363 . S
C417 C420 1.363 . S
N418 C420 1.356 . S
N418 H430 0.984 . S
N418 H431 0.985 . S
N419 C421 1.356 . S
N419 H424 0.984 . S
N419 H425 0.985 . S
C420 C414 1.379 . S
C420 C417 1.363 . S
C420 N418 1.356 . S
C421 C415 1.363 . S
C421 C416 1.379 . S
C421 N419 1.356 . S
N422 C414 1.356 . S
N422 H428 0.984 . S
N422 H429 0.984 . S
N423 C416 1.356 . S
N423 H426 0.984 . S
N423 H427 0.985 . S
H424 N419 0.984 . S
H425 N419 0.985 . S
H426 N423 0.984 . S
H427 N423 0.985 . S
H428 N422 0.984 . S
H429 N422 0.984 . S
H430 N418 0.984 . S
H431 N418 0.985 . S
C432 C433 1.363 . S
C432 C438 1.379 . S
C432 N440 1.356 . S
C433 C432 1.363 . S
C433 C439 1.363 . S
C434 C435 1.363 . S
C434 C439 1.379 . S
C434 N441 1.356 . S
C435 C434 1.363 . S
C435 C438 1.363 . S
N436 C438 1.356 . S
N436 H448 0.984 . S
N436 H449 0.985 . S
N437 C439 1.356 . S
N437 H442 0.984 . S
N437 H443 0.985 . S
C438 C432 1.379 . S
C438 C435 1.363 . S
C438 N436 1.356 . S
C439 C433 1.363 . S
C439 C434 1.379 . S
C439 N437 1.356 . S
N440 C432 1.356 . S
N440 H446 0.984 . S
N440 H447 0.984 . S
N441 C434 1.356 . S
N441 H444 0.984 . S
N441 H445 0.985 . S
H442 N437 0.984 . S
H443 N437 0.985 . S
H444 N441 0.984 . S
H445 N441 0.985 . S
H446 N440 0.984 . S
H447 N440 0.984 . S
H448 N436 0.984 . S
H449 N436 0.985 . S
C450 C451 1.363 . S
C450 C456 1.379 . S
C450 N458 1.356 . S
C451 C450 1.363 . S
C451 C457 1.363 . S
C452 C453 1.363 . S
C452 C457 1.379 . S
C452 N459 1.356 . S
C453 C452 1.363 . S
C453 C456 1.363 . S
N454 C456 1.356 . S
N454 H466 0.984 . S
N454 H467 0.985 . S
N455 C457 1.356 . S
N455 H460 0.984 . S
N455 H461 0.985 . S
C456 C450 1.379 . S
C456 C453 1.363 . S
C456 N454 1.356 . S
C457 C451 1.363 . S
C457 C452 1.379 . S
C457 N455 1.356 . S
N458 C450 1.356 . S
N458 H464 0.984 . S
N458 H465 0.984 . S
N459 C452 1.356 . S
N459 H462 0.984 . S
N459 H463 0.985 . S
H460 N455 0.984 . S
H461 N455 0.985 . S
H462 N459 0.984 . S
H463 N459 0.985 . S
H464 N458 0.984 . S
H465 N458 0.984 . S
H466 N454 0.984 . S
H467 N454 0.985 . S
C468 C469 1.363 . S
C468 C474 1.379 . S
C468 N476 1.356 . S
C469 C468 1.363 . S
C469 C475 1.363 . S
C470 C471 1.363 . S
C470 C475 1.379 . S
C470 N477 1.356 . S
C471 C470 1.363 . S
C471 C474 1.363 . S
N472 C474 1.356 . S
N472 H484 0.984 . S
N472 H485 0.985 . S
N473 C475 1.356 . S
N473 H478 0.984 . S
N473 H479 0.985 . S
C474 C468 1.379 . S
C474 C471 1.363 . S
C474 N472 1.356 . S
C475 C469 1.363 . S
C475 C470 1.379 . S
C475 N473 1.356 . S
N476 C468 1.356 . S
N476 H482 0.984 . S
N476 H483 0.984 . S
N477 C470 1.356 . S
N477 H480 0.984 . S
N477 H481 0.985 . S
H478 N473 0.984 . S
H479 N473 0.985 . S
H480 N477 0.984 . S
H481 N477 0.985 . S
H482 N476 0.984 . S
H483 N476 0.984 . S
H484 N472 0.984 . S
H485 N472 0.985 . S
C486 C487 1.363 . S
C486 C492 1.379 . S
C486 N494 1.356 . S
C487 C486 1.363 . S
C487 C493 1.363 . S
C488 C489 1.363 . S
C488 C493 1.379 . S
C488 N495 1.356 . S
C489 C488 1.363 . S
C489 C492 1.363 . S
N490 C492 1.356 . S
N490 H502 0.984 . S
N490 H503 0.985 . S
N491 C493 1.356 . S
N491 H496 0.984 . S
N491 H497 0.985 . S
C492 C486 1.379 . S
C492 C489 1.363 . S
C492 N490 1.356 . S
C493 C487 1.363 . S
C493 C488 1.379 . S
C493 N491 1.356 . S
N494 C486 1.356 . S
N494 H500 0.984 . S
N494 H501 0.984 . S
N495 C488 1.356 . S
N495 H498 0.984 . S
N495 H499 0.985 . S
H496 N491 0.984 . S
H497 N491 0.985 . S
H498 N495 0.984 . S
H499 N495 0.985 . S
H500 N494 0.984 . S
H501 N494 0.984 . S
H502 N490 0.984 . S
H503 N490 0.985 . S
C504 C505 1.363 . S
C504 C510 1.379 . S
C504 N512 1.356 . S
C505 C504 1.363 . S
C505 C511 1.363 . S
C506 C507 1.363 . S
C506 C511 1.379 . S
C506 N513 1.356 . S
C507 C506 1.363 . S
C507 C510 1.363 . S
N508 C510 1.356 . S
N508 H520 0.984 . S
N508 H521 0.985 . S
N509 C511 1.356 . S
N509 H514 0.984 . S
N509 H515 0.985 . S
C510 C504 1.379 . S
C510 C507 1.363 . S
C510 N508 1.356 . S
C511 C505 1.363 . S
C511 C506 1.379 . S
C511 N509 1.356 . S
N512 C504 1.356 . S
N512 H518 0.984 . S
N512 H519 0.984 . S
N513 C506 1.356 . S
N513 H516 0.984 . S
N513 H517 0.985 . S
H514 N509 0.984 . S
H515 N509 0.985 . S
H516 N513 0.984 . S
H517 N513 0.985 . S
H518 N512 0.984 . S
H519 N512 0.984 . S
H520 N508 0.984 . S
H521 N508 0.985 . S
C522 C523 1.363 . S
C522 C528 1.379 . S
C522 N530 1.356 . S
C523 C522 1.363 . S
C523 C529 1.363 . S
C524 C525 1.363 . S
C524 C529 1.379 . S
C524 N531 1.356 . S
C525 C524 1.363 . S
C525 C528 1.363 . S
N526 C528 1.356 . S
N526 H538 0.984 . S
N526 H539 0.985 . S
N527 C529 1.356 1_556 S
N527 H532 0.984 1_556 S
N527 H533 0.985 . S
C528 C522 1.379 . S
C528 C525 1.363 . S
C528 N526 1.356 . S
C529 C523 1.363 . S
C529 C524 1.379 . S
C529 N527 1.356 1_554 S
N530 C522 1.356 . S
N530 H536 0.984 . S
N530 H537 0.984 . S
N531 C524 1.356 . S
N531 H534 0.984 . S
N531 H535 0.985 1_554 S
H532 N527 0.984 1_554 S
H533 N527 0.985 . S
H534 N531 0.984 . S
H535 N531 0.985 1_556 S
H536 N530 0.984 . S
H537 N530 0.984 . S
H538 N526 0.984 . S
H539 N526 0.985 . S
C540 C541 1.363 . S
C540 C546 1.379 . S
C540 N548 1.356 . S
C541 C540 1.363 . S
C541 C547 1.363 . S
C542 C543 1.363 . S
C542 C547 1.379 . S
C542 N549 1.356 . S
C543 C542 1.363 . S
C543 C546 1.363 . S
N544 C546 1.356 . S
N544 H556 0.984 . S
N544 H557 0.985 . S
N545 C547 1.356 . S
N545 H550 0.984 . S
N545 H551 0.985 . S
C546 C540 1.379 . S
C546 C543 1.363 . S
C546 N544 1.356 . S
C547 C541 1.363 . S
C547 C542 1.379 . S
C547 N545 1.356 . S
N548 C540 1.356 . S
N548 H554 0.984 . S
N548 H555 0.984 . S
N549 C542 1.356 . S
N549 H552 0.984 . S
N549 H553 0.985 . S
H550 N545 0.984 . S
H551 N545 0.985 . S
H552 N549 0.984 . S
H553 N549 0.985 . S
H554 N548 0.984 . S
H555 N548 0.984 . S
H556 N544 0.984 . S
H557 N544 0.985 . S
C558 C559 1.363 . S
C558 C564 1.379 . S
C558 N566 1.356 . S
C559 C558 1.363 . S
C559 C565 1.363 . S
C560 C561 1.363 . S
C560 C565 1.379 . S
C560 N567 1.356 . S
C561 C560 1.363 . S
C561 C564 1.363 . S
N562 C564 1.356 . S
N562 H574 0.984 . S
N562 H575 0.985 . S
N563 C565 1.356 . S
N563 H568 0.984 . S
N563 H569 0.985 . S
C564 C558 1.379 . S
C564 C561 1.363 . S
C564 N562 1.356 . S
C565 C559 1.363 . S
C565 C560 1.379 . S
C565 N563 1.356 . S
N566 C558 1.356 . S
N566 H572 0.984 . S
N566 H573 0.984 . S
N567 C560 1.356 . S
N567 H570 0.984 . S
N567 H571 0.985 . S
H568 N563 0.984 . S
H569 N563 0.985 . S
H570 N567 0.984 . S
H571 N567 0.985 . S
H572 N566 0.984 . S
H573 N566 0.984 . S
H574 N562 0.984 . S
H575 N562 0.985 . S
C576 C577 1.363 . S
C576 C582 1.379 . S
C576 N584 1.356 . S
C577 C576 1.363 . S
C577 C583 1.363 . S
C578 C579 1.363 . S
C578 C583 1.379 . S
C578 N585 1.356 . S
C579 C578 1.363 . S
C579 C582 1.363 . S
N580 C582 1.356 . S
N580 H592 0.984 . S
N580 H593 0.985 . S
N581 C583 1.356 . S
N581 H586 0.984 . S
N581 H587 0.985 . S
C582 C576 1.379 . S
C582 C579 1.363 . S
C582 N580 1.356 . S
C583 C577 1.363 . S
C583 C578 1.379 . S
C583 N581 1.356 . S
N584 C576 1.356 . S
N584 H590 0.984 . S
N584 H591 0.984 . S
N585 C578 1.356 . S
N585 H588 0.984 . S
N585 H589 0.985 . S
H586 N581 0.984 . S
H587 N581 0.985 . S
H588 N585 0.984 . S
H589 N585 0.985 . S
H590 N584 0.984 . S
H591 N584 0.984 . S
H592 N580 0.984 . S
H593 N580 0.985 . S
C594 C595 1.363 . S
C594 C600 1.379 . S
C594 N602 1.356 . S
C595 C594 1.363 . S
C595 C601 1.363 . S
C596 C597 1.363 . S
C596 C601 1.379 . S
C596 N603 1.356 . S
C597 C596 1.363 . S
C597 C600 1.363 . S
N598 C600 1.356 . S
N598 H610 0.984 . S
N598 H611 0.985 . S
N599 C601 1.356 . S
N599 H604 0.984 . S
N599 H605 0.985 . S
C600 C594 1.379 . S
C600 C597 1.363 . S
C600 N598 1.356 . S
C601 C595 1.363 . S
C601 C596 1.379 . S
C601 N599 1.356 . S
N602 C594 1.356 . S
N602 H608 0.984 . S
N602 H609 0.984 . S
N603 C596 1.356 . S
N603 H606 0.984 . S
N603 H607 0.985 . S
H604 N599 0.984 . S
H605 N599 0.985 . S
H606 N603 0.984 . S
H607 N603 0.985 . S
H608 N602 0.984 . S
H609 N602 0.984 . S
H610 N598 0.984 . S
H611 N598 0.985 . S
C612 C613 1.363 . S
C612 C618 1.379 . S
C612 N620 1.356 . S
C613 C612 1.363 . S
C613 C619 1.363 . S
C614 C615 1.363 . S
C614 C619 1.379 . S
C614 N621 1.356 . S
C615 C614 1.363 . S
C615 C618 1.363 . S
N616 C618 1.356 . S
N616 H628 0.984 . S
N616 H629 0.985 . S
N617 C619 1.356 . S
N617 H622 0.984 . S
N617 H623 0.985 . S
C618 C612 1.379 . S
C618 C615 1.363 . S
C618 N616 1.356 . S
C619 C613 1.363 . S
C619 C614 1.379 . S
C619 N617 1.356 . S
N620 C612 1.356 . S
N620 H626 0.984 . S
N620 H627 0.984 . S
N621 C614 1.356 . S
N621 H624 0.984 . S
N621 H625 0.985 . S
H622 N617 0.984 . S
H623 N617 0.985 . S
H624 N621 0.984 . S
H625 N621 0.985 . S
H626 N620 0.984 . S
H627 N620 0.984 . S
H628 N616 0.984 . S
H629 N616 0.985 . S
C630 C631 1.363 . S
C630 C636 1.379 . S
C630 N638 1.356 . S
C631 C630 1.363 . S
C631 C637 1.363 . S
C632 C633 1.363 . S
C632 C637 1.379 1_554 S
C632 N639 1.356 . S
C633 C632 1.363 . S
C633 C636 1.363 1_554 S
N634 C636 1.356 1_554 S
N634 H646 0.984 1_554 S
N634 H647 0.985 . S
N635 C637 1.356 . S
N635 H640 0.984 . S
N635 H641 0.985 . S
C636 C630 1.379 . S
C636 C633 1.363 1_556 S
C636 N634 1.356 1_556 S
C637 C631 1.363 . S
C637 C632 1.379 1_556 S
C637 N635 1.356 . S
N638 C630 1.356 . S
N638 H644 0.984 . S
N638 H645 0.984 . S
N639 C632 1.356 . S
N639 H642 0.984 . S
N639 H643 0.985 . S
H640 N635 0.984 . S
H641 N635 0.985 . S
H642 N639 0.984 . S
H643 N639 0.985 . S
H644 N638 0.984 . S
H645 N638 0.984 . S
H646 N634 0.984 1_556 S
H647 N634 0.985 . S
C648 C649 1.363 . S
C648 C654 1.379 . S
C648 N656 1.356 . S
C649 C648 1.363 . S
C649 C655 1.363 . S
C650 C651 1.363 . S
C650 C655 1.379 . S
C650 N657 1.356 . S
C651 C650 1.363 . S
C651 C654 1.363 . S
N652 C654 1.356 . S
N652 H664 0.984 . S
N652 H665 0.985 . S
N653 C655 1.356 . S
N653 H658 0.984 . S
N653 H659 0.985 . S
C654 C648 1.379 . S
C654 C651 1.363 . S
C654 N652 1.356 . S
C655 C649 1.363 . S
C655 C650 1.379 . S
C655 N653 1.356 . S
N656 C648 1.356 . S
N656 H662 0.984 . S
N656 H663 0.984 . S
N657 C650 1.356 . S
N657 H660 0.984 . S
N657 H661 0.985 . S
H658 N653 0.984 . S
H659 N653 0.985 . S
H660 N657 0.984 . S
H661 N657 0.985 . S
H662 N656 0.984 . S
H663 N656 0.984 . S
H664 N652 0.984 . S
H665 N652 0.985 . S
C666 C667 1.363 . S
C666 C672 1.379 . S
C666 N674 1.356 . S
C667 C666 1.363 . S
C667 C673 1.363 . S
C668 C669 1.363 . S
C668 C673 1.379 . S
C668 N675 1.356 . S
C669 C668 1.363 . S
C669 C672 1.363 . S
N670 C672 1.356 . S
N670 H682 0.984 . S
N670 H683 0.985 . S
N671 C673 1.356 . S
N671 H676 0.984 . S
N671 H677 0.985 . S
C672 C666 1.379 . S
C672 C669 1.363 . S
C672 N670 1.356 . S
C673 C667 1.363 . S
C673 C668 1.379 . S
C673 N671 1.356 . S
N674 C666 1.356 . S
N674 H680 0.984 . S
N674 H681 0.984 . S
N675 C668 1.356 . S
N675 H678 0.984 . S
N675 H679 0.985 . S
H676 N671 0.984 . S
H677 N671 0.985 . S
H678 N675 0.984 . S
H679 N675 0.985 . S
H680 N674 0.984 . S
H681 N674 0.984 . S
H682 N670 0.984 . S
H683 N670 0.985 . S
C684 C685 1.363 . S
C684 C690 1.379 . S
C684 N692 1.356 . S
C685 C684 1.363 . S
C685 C691 1.363 . S
C686 C687 1.363 . S
C686 C691 1.379 . S
C686 N693 1.356 . S
C687 C686 1.363 . S
C687 C690 1.363 . S
N688 C690 1.356 . S
N688 H700 0.984 . S
N688 H701 0.985 . S
N689 C691 1.356 . S
N689 H694 0.984 . S
N689 H695 0.985 . S
C690 C684 1.379 . S
C690 C687 1.363 . S
C690 N688 1.356 . S
C691 C685 1.363 . S
C691 C686 1.379 . S
C691 N689 1.356 . S
N692 C684 1.356 . S
N692 H698 0.984 . S
N692 H699 0.984 . S
N693 C686 1.356 . S
N693 H696 0.984 . S
N693 H697 0.985 . S
H694 N689 0.984 . S
H695 N689 0.985 . S
H696 N693 0.984 . S
H697 N693 0.985 . S
H698 N692 0.984 . S
H699 N692 0.984 . S
H700 N688 0.984 . S
H701 N688 0.985 . S
C702 C703 1.363 . S
C702 C708 1.379 . S
C702 N710 1.356 . S
C703 C702 1.363 . S
C703 C709 1.363 . S
C704 C705 1.363 . S
C704 C709 1.379 . S
C704 N711 1.356 . S
C705 C704 1.363 . S
C705 C708 1.363 . S
N706 C708 1.356 . S
N706 H718 0.984 . S
N706 H719 0.985 . S
N707 C709 1.356 . S
N707 H712 0.984 . S
N707 H713 0.985 . S
C708 C702 1.379 . S
C708 C705 1.363 . S
C708 N706 1.356 . S
C709 C703 1.363 . S
C709 C704 1.379 . S
C709 N707 1.356 . S
N710 C702 1.356 . S
N710 H716 0.984 . S
N710 H717 0.984 . S
N711 C704 1.356 . S
N711 H714 0.984 . S
N711 H715 0.985 . S
H712 N707 0.984 . S
H713 N707 0.985 . S
H714 N711 0.984 . S
H715 N711 0.985 . S
H716 N710 0.984 . S
H717 N710 0.984 . S
H718 N706 0.984 . S
H719 N706 0.985 . S
C720 C721 1.363 . S
C720 C726 1.379 . S
C720 N728 1.356 . S
C721 C720 1.363 . S
C721 C727 1.363 . S
C722 C723 1.363 . S
C722 C727 1.379 . S
C722 N729 1.356 . S
C723 C722 1.363 . S
C723 C726 1.363 . S
N724 C726 1.356 . S
N724 H736 0.984 . S
N724 H737 0.985 . S
N725 C727 1.356 . S
N725 H730 0.984 . S
N725 H731 0.985 . S
C726 C720 1.379 . S
C726 C723 1.363 . S
C726 N724 1.356 . S
C727 C721 1.363 . S
C727 C722 1.379 . S
C727 N725 1.356 . S
N728 C720 1.356 . S
N728 H734 0.984 . S
N728 H735 0.984 . S
N729 C722 1.356 . S
N729 H732 0.984 . S
N729 H733 0.985 . S
H730 N725 0.984 . S
H731 N725 0.985 . S
H732 N729 0.984 . S
H733 N729 0.985 . S
H734 N728 0.984 . S
H735 N728 0.984 . S
H736 N724 0.984 . S
H737 N724 0.985 . S
C738 C739 1.363 . S
C738 C744 1.379 . S
C738 N746 1.356 . S
C739 C738 1.363 . S
C739 C745 1.363 . S
C740 C741 1.363 . S
C740 C745 1.379 . S
C740 N747 1.356 . S
C741 C740 1.363 . S
C741 C744 1.363 . S
N742 C744 1.356 . S
N742 H754 0.984 . S
N742 H755 0.985 . S
N743 C745 1.356 . S
N743 H748 0.984 . S
N743 H749 0.985 . S
C744 C738 1.379 . S
C744 C741 1.363 . S
C744 N742 1.356 . S
C745 C739 1.363 . S
C745 C740 1.379 . S
C745 N743 1.356 . S
N746 C738 1.356 . S
N746 H752 0.984 . S
N746 H753 0.984 . S
N747 C740 1.356 . S
N747 H750 0.984 . S
N747 H751 0.985 . S
H748 N743 0.984 . S
H749 N743 0.985 . S
H750 N747 0.984 . S
H751 N747 0.985 . S
H752 N746 0.984 . S
H753 N746 0.984 . S
H754 N742 0.984 . S
H755 N742 0.985 . S
C756 C757 1.363 . S
C756 C762 1.379 1_554 S
C756 N764 1.356 . S
C757 C756 1.363 . S
C757 C763 1.363 . S
C758 C759 1.363 . S
C758 C763 1.379 1_556 S
C758 N765 1.356 . S
C759 C758 1.363 . S
C759 C762 1.363 . S
N760 C762 1.356 . S
N760 H772 0.984 . S
N760 H773 0.985 . S
N761 C763 1.356 . S
N761 H766 0.984 . S
N761 H767 0.985 . S
C762 C756 1.379 1_556 S
C762 C759 1.363 . S
C762 N760 1.356 . S
C763 C757 1.363 . S
C763 C758 1.379 1_554 S
C763 N761 1.356 . S
N764 C756 1.356 . S
N764 H770 0.984 . S
N764 H771 0.984 . S
N765 C758 1.356 . S
N765 H768 0.984 . S
N765 H769 0.985 . S
H766 N761 0.984 . S
H767 N761 0.985 . S
H768 N765 0.984 . S
H769 N765 0.985 . S
H770 N764 0.984 . S
H771 N764 0.984 . S
H772 N760 0.984 . S
H773 N760 0.985 . S
C774 C775 1.363 . S
C774 C780 1.379 . S
C774 N782 1.356 . S
C775 C774 1.363 . S
C775 C781 1.363 . S
C776 C777 1.363 . S
C776 C781 1.379 . S
C776 N783 1.356 . S
C777 C776 1.363 . S
C777 C780 1.363 . S
N778 C780 1.356 . S
N778 H790 0.984 . S
N778 H791 0.985 . S
N779 C781 1.356 . S
N779 H784 0.984 . S
N779 H785 0.985 . S
C780 C774 1.379 . S
C780 C777 1.363 . S
C780 N778 1.356 . S
C781 C775 1.363 . S
C781 C776 1.379 . S
C781 N779 1.356 . S
N782 C774 1.356 . S
N782 H788 0.984 . S
N782 H789 0.984 . S
N783 C776 1.356 . S
N783 H786 0.984 . S
N783 H787 0.985 . S
H784 N779 0.984 . S
H785 N779 0.985 . S
H786 N783 0.984 . S
H787 N783 0.985 . S
H788 N782 0.984 . S
H789 N782 0.984 . S
H790 N778 0.984 . S
H791 N778 0.985 . S
C363 C353 1.625 . S
C361 C15 1.592 . S
C379 C61 1.476 . S
C381 C282 1.449 . S
C397 C114 1.592 . S
C399 C296 1.625 . S
C415 C139 1.476 . S
C417 C310 1.449 . S
C435 C324 1.625 . S
C433 C185 1.609 . S
C451 C245 1.476 . S
C453 C339 1.449 . S
C469 C47 1.476 . S
C471 C297 1.449 . S
C487 C100 1.609 . S
C489 C311 1.625 . S
C505 C153 1.476 . S
C507 C325 1.449 . S
C525 C338 1.625 . S
C523 C199 1.592 . S
C543 C352 1.449 . S
C541 C231 1.476 . S
C561 C283 1.625 . S
C559 C1 1.609 . S
C577 C22 1.488 . S
C579 C299 1.471 . S
C595 C68 1.677 . S
C597 C313 1.662 . S
C615 C327 1.471 . S
C613 C107 1.488 . S
C631 C146 1.697 . S
C633 C340 1.662 . S
C651 C354 1.471 . S
C649 C192 1.491 . S
C669 C285 1.662 . S
C667 C252 1.677 . S
C687 C355 1.662 . S
C685 C54 1.697 . S
C703 C93 1.491 . S
C705 C284 1.471 . S
C723 C298 1.662 . S
C721 C160 1.677 . S
C739 C206 1.488 . S
C741 C312 1.471 . S
C757 C238 1.697 . S
C759 C326 1.662 . S
C775 C8 1.491 . S
C777 C341 1.471 . S
