# Generated by pormake.
# Topology pyr, (3,6)-cn, num edge types: 1
# Building blocks:
#     Node 0, Type 0, BuildingBlock: ESEHIV_clean_linker_0, # of connection points: 3
#     Node 1, Type 0, BuildingBlock: ESEHIV_clean_linker_0, # of connection points: 3
#     Node 2, Type 0, BuildingBlock: ESEHIV_clean_linker_0, # of connection points: 3
#     Node 3, Type 0, BuildingBlock: ESEHIV_clean_linker_0, # of connection points: 3
#     Node 4, Type 0, BuildingBlock: ESEHIV_clean_linker_0, # of connection points: 3
#     Node 5, Type 0, BuildingBlock: ESEHIV_clean_linker_0, # of connection points: 3
#     Node 6, Type 0, BuildingBlock: ESEHIV_clean_linker_0, # of connection points: 3
#     Node 7, Type 0, BuildingBlock: ESEHIV_clean_linker_0, # of connection points: 3
#     Node 8, Type 1, BuildingBlock: LEVNOQ01_clean_sbu_1, # of connection points: 6
#     Node 9, Type 1, BuildingBlock: LEVNOQ01_clean_sbu_1, # of connection points: 6
#     Node 10, Type 1, BuildingBlock: LEVNOQ01_clean_sbu_1, # of connection points: 6
#     Node 11, Type 1, BuildingBlock: LEVNOQ01_clean_sbu_1, # of connection points: 6
#     Edge 12, Type (0, 1), BuildingBlock: ZUJKAS_clean_linker_0, # of connection points: 2
#     Edge 13, Type (0, 1), BuildingBlock: ZUJKAS_clean_linker_0, # of connection points: 2
#     Edge 14, Type (0, 1), BuildingBlock: ZUJKAS_clean_linker_0, # of connection points: 2
#     Edge 15, Type (0, 1), BuildingBlock: ZUJKAS_clean_linker_0, # of connection points: 2
#     Edge 16, Type (0, 1), BuildingBlock: ZUJKAS_clean_linker_0, # of connection points: 2
#     Edge 17, Type (0, 1), BuildingBlock: ZUJKAS_clean_linker_0, # of connection points: 2
#     Edge 18, Type (0, 1), BuildingBlock: ZUJKAS_clean_linker_0, # of connection points: 2
#     Edge 19, Type (0, 1), BuildingBlock: ZUJKAS_clean_linker_0, # of connection points: 2
#     Edge 20, Type (0, 1), BuildingBlock: ZUJKAS_clean_linker_0, # of connection points: 2
#     Edge 21, Type (0, 1), BuildingBlock: ZUJKAS_clean_linker_0, # of connection points: 2
#     Edge 22, Type (0, 1), BuildingBlock: ZUJKAS_clean_linker_0, # of connection points: 2
#     Edge 23, Type (0, 1), BuildingBlock: ZUJKAS_clean_linker_0, # of connection points: 2
#     Edge 24, Type (0, 1), BuildingBlock: ZUJKAS_clean_linker_0, # of connection points: 2
#     Edge 25, Type (0, 1), BuildingBlock: ZUJKAS_clean_linker_0, # of connection points: 2
#     Edge 26, Type (0, 1), BuildingBlock: ZUJKAS_clean_linker_0, # of connection points: 2
#     Edge 27, Type (0, 1), BuildingBlock: ZUJKAS_clean_linker_0, # of connection points: 2
#     Edge 28, Type (0, 1), BuildingBlock: ZUJKAS_clean_linker_0, # of connection points: 2
#     Edge 29, Type (0, 1), BuildingBlock: ZUJKAS_clean_linker_0, # of connection points: 2
#     Edge 30, Type (0, 1), BuildingBlock: ZUJKAS_clean_linker_0, # of connection points: 2
#     Edge 31, Type (0, 1), BuildingBlock: ZUJKAS_clean_linker_0, # of connection points: 2
#     Edge 32, Type (0, 1), BuildingBlock: ZUJKAS_clean_linker_0, # of connection points: 2
#     Edge 33, Type (0, 1), BuildingBlock: ZUJKAS_clean_linker_0, # of connection points: 2
#     Edge 34, Type (0, 1), BuildingBlock: ZUJKAS_clean_linker_0, # of connection points: 2
#     Edge 35, Type (0, 1), BuildingBlock: ZUJKAS_clean_linker_0, # of connection points: 2
# Relax obj value: 0.035
# Max RMSD: 0.110
# Mean RMSD: 0.045
data_MOF--net-pry--node1-LEVNOQ01_clean_sbu_1--node2-ESEHIV_clean_linker_0--edge1-ZUJKAS_clean_linker_0
_symmetry_space_group_name_H-M    P1
_symmetry_Int_Tables_number       1
_symmetry_cell_setting            triclinic
loop_
_symmetry_equiv_pos_as_xyz
'x, y, z'
_cell_length_a     46.464364
_cell_length_b     44.837823
_cell_length_c     44.878276
_cell_angle_alpha  92.15064
_cell_angle_beta   91.301771
_cell_angle_gamma 94.142118
loop_
_atom_site_label
_atom_site_type_symbol
_atom_site_fract_x
_atom_site_fract_y
_atom_site_fract_z
_atom_type_partial_charge
H0 H 0.1059 0.16885 0.15807 0.0
H1 H 0.16961 0.10425 0.16403 0.0
H2 H 0.1702 0.1638 0.091 0.0
C3 C 0.12444 0.15859 0.14914 0.0
C4 C 0.13645 0.16904 0.12257 0.0
C5 C 0.13632 0.13534 0.16447 0.0
C6 C 0.16036 0.12219 0.15247 0.0
C7 C 0.17282 0.1321 0.12593 0.0
C8 C 0.1607 0.15568 0.11125 0.0
H9 H 0.33744 0.91738 0.64227 0.0
H10 H 0.40722 0.85916 0.64322 0.0
H11 H 0.34147 0.84859 0.57379 0.0
C12 C 0.34835 0.89893 0.63257 0.0
C13 C 0.33665 0.88402 0.60655 0.0
C14 C 0.37389 0.89029 0.64604 0.0
C15 C 0.38784 0.86649 0.63278 0.0
C16 C 0.37648 0.85152 0.60649 0.0
C17 C 0.35101 0.86067 0.59339 0.0
H18 H 0.64189 0.35325 0.91175 0.0
H19 H 0.65686 0.42182 0.84837 0.0
H20 H 0.58541 0.3559 0.83504 0.0
C21 C 0.63511 0.36432 0.89199 0.0
C22 C 0.61178 0.35152 0.87441 0.0
C23 C 0.65127 0.38997 0.883 0.0
C24 C 0.64337 0.40326 0.85644 0.0
C25 C 0.61991 0.39077 0.83874 0.0
C26 C 0.60361 0.36561 0.84853 0.0
H27 H 0.85857 0.62647 0.44265 0.0
H28 H 0.90956 0.63718 0.36487 0.0
H29 H 0.84036 0.56784 0.3656 0.0
C30 C 0.86354 0.61915 0.42018 0.0
C31 C 0.84634 0.59576 0.40569 0.0
C32 C 0.88618 0.6343 0.40556 0.0
C33 C 0.89287 0.62461 0.3766 0.0
C34 C 0.87669 0.60036 0.36192 0.0
C35 C 0.85353 0.58594 0.37685 0.0
H36 H 0.8366 0.90777 0.85088 0.0
H37 H 0.89388 0.83643 0.8473 0.0
H38 H 0.8371 0.84574 0.92121 0.0
C39 C 0.84523 0.88837 0.86048 0.0
C40 C 0.8341 0.87804 0.88733 0.0
C41 C 0.8668 0.87352 0.84566 0.0
C42 C 0.87787 0.84851 0.8589 0.0
C43 C 0.86753 0.83815 0.88631 0.0
C44 C 0.84537 0.85309 0.90013 0.0
H45 H 0.6007 0.15938 0.36097 0.0
H46 H 0.66764 0.09832 0.36422 0.0
H47 H 0.66352 0.16655 0.43341 0.0
C48 C 0.61907 0.15115 0.3725 0.0
C49 C 0.62995 0.16572 0.3992 0.0
C50 C 0.6325 0.12681 0.35973 0.0
C51 C 0.65734 0.11727 0.37377 0.0
C52 C 0.66891 0.13177 0.40012 0.0
C53 C 0.65477 0.15557 0.41294 0.0
H54 H 0.3464 0.66781 0.09803 0.0
H55 H 0.3436 0.59999 0.16346 0.0
H56 H 0.40455 0.67671 0.174 0.0
C57 C 0.35518 0.65855 0.11797 0.0
C58 C 0.37734 0.67498 0.13445 0.0
C59 C 0.34293 0.6314 0.12818 0.0
C60 C 0.35358 0.62042 0.15489 0.0
C61 C 0.37569 0.63679 0.17162 0.0
C62 C 0.38788 0.66368 0.16087 0.0
H63 H 0.07381 0.36293 0.64456 0.0
H64 H 0.13172 0.36792 0.57152 0.0
H65 H 0.1428 0.43197 0.64573 0.0
C66 C 0.09205 0.37398 0.63374 0.0
C67 C 0.10753 0.39849 0.64835 0.0
C68 C 0.10021 0.36337 0.60561 0.0
C69 C 0.12428 0.3775 0.59222 0.0
C70 C 0.14008 0.40223 0.60641 0.0
C71 C 0.13096 0.41305 0.63427 0.0
O72 O 0.00441 0.00128 0.58483 0.0
Mg73 Mg 0.03232 0.02769 0.55885 0.0
O74 O 0.97811 0.98125 0.54623 0.0
Mg75 Mg -0.00089 0.00107 0.50226 0.0
O76 O 0.01161 0.04753 0.52498 0.0
O77 O 0.03318 0.07296 0.56428 0.0
O78 O 0.02161 0.02228 0.45914 0.0
O79 O 0.95477 0.0208 0.49148 0.0
Mg80 Mg 0.97566 0.97497 0.44292 0.0
O81 O 0.98549 0.95382 0.48084 0.0
O82 O 0.01155 0.99135 0.42026 0.0
O83 O 0.94059 0.00175 0.4469 0.0
O84 O 0.96709 0.93018 0.43886 0.0
C85 C 0.06713 0.98704 0.52618 0.0
C86 C 0.98362 0.98391 0.57439 0.0
C87 C 0.0193 0.07281 0.53903 0.0
C88 C 0.02557 0.01414 0.43192 0.0
C89 C 0.93672 0.0187 0.46945 0.0
C90 C 0.97695 0.92923 0.46589 0.0
O91 O 0.06977 0.00865 0.54517 0.0
O92 O 0.04346 0.98049 0.51163 0.0
O93 O 0.45031 0.06294 0.02379 0.0
Mg94 Mg 0.49515 0.07004 0.02618 0.0
O95 O 0.45429 0.01439 0.01583 0.0
Mg96 Mg 0.50288 0.00617 0.00224 0.0
O97 O 0.5153 0.05483 0.98922 0.0
O98 O 0.51283 0.10342 0.00208 0.0
O99 O 0.55147 0.99596 0.98851 0.0
O100 O 0.48495 -0.00042 0.95294 0.0
Mg101 Mg 0.51223 0.94215 0.97819 0.0
O102 O 0.49219 0.95809 0.01527 0.0
O103 O 0.55573 0.94691 0.99013 0.0
O104 O 0.50381 0.95871 0.93598 0.0
O105 O 0.47677 0.91597 0.9912 0.0
C106 C 0.52477 0.03542 0.07103 0.0
C107 C 0.43893 0.03651 0.02126 0.0
C108 C 0.52114 0.08288 0.984 0.0
C109 C 0.56705 0.9733 0.98794 0.0
C110 C 0.49024 0.98157 0.93144 0.0
C111 C 0.47277 0.93612 0.01159 0.0
O112 O 0.51691 0.06116 0.06576 0.0
O113 O 0.52092 0.01366 0.05179 0.0
O114 O 0.47868 0.55966 0.56642 0.0
Mg115 Mg 0.47711 0.51418 0.57445 0.0
O116 O 0.48512 0.5534 0.5178 0.0
Mg117 Mg 0.49452 0.50269 0.50806 0.0
O118 O 0.51138 0.49588 0.55557 0.0
O119 O 0.5056 0.49991 0.60484 0.0
O120 O 0.50553 0.45122 0.50283 0.0
O121 O 0.54179 0.51831 0.49833 0.0
Mg122 Mg 0.50103 0.47783 0.4564 0.0
O123 O 0.47691 0.51381 0.45965 0.0
O124 O 0.48035 0.43571 0.46319 0.0
O125 O 0.54678 0.48481 0.46211 0.0
O126 O 0.48799 0.49055 0.41643 0.0
C127 C 0.42953 0.48233 0.53831 0.0
C128 C 0.48083 0.57024 0.54073 0.0
C129 C 0.52074 0.4921 0.58248 0.0
C130 C 0.49468 0.42956 0.48594 0.0
C131 C 0.55784 0.50496 0.48033 0.0
C132 C 0.47472 0.51071 0.43069 0.0
O133 O 0.4376 0.48996 0.56479 0.0
O134 O 0.4464 0.48609 0.51651 0.0
O135 O 0.00981 0.44195 0.05921 0.0
Mg136 Mg 0.01197 0.48798 0.06693 0.0
O137 O 0.01415 0.4541 0.01246 0.0
Mg138 Mg -0.00196 0.50401 0.00815 0.0
O139 O 0.97729 0.51121 0.05572 0.0
O140 O 0.98887 0.49812 0.10232 0.0
O141 O 0.98038 0.55469 0.00628 0.0
O142 O 0.9535 0.482 0.99416 0.0
Mg143 Mg 0.99166 0.5271 0.96332 0.0
O144 O 0.0185 0.4937 0.95927 0.0
O145 O 0.01031 0.57056 0.97327 0.0
O146 O 0.94572 0.5177 0.96379 0.0
O147 O 0.00246 0.51981 0.92112 0.0
C148 C 0.05977 0.5271 0.04488 0.0
C149 C 0.01474 0.4346 0.03259 0.0
C150 C 0.97216 0.51087 0.0842 0.0
C151 C 0.99216 0.57663 0.99244 0.0
C152 C 0.9363 0.49498 0.9775 0.0
C153 C 0.01825 0.49977 0.93104 0.0
O154 O 0.05204 0.51254 0.0673 0.0
O155 O 0.04346 0.52678 0.02162 0.0
H156 H 0.12985 0.07809 0.18487 0.0
H157 H 0.11336 0.06239 0.23363 0.0
H158 H 0.09816 0.15354 0.25843 0.0
H159 H 0.11559 0.16976 0.21018 0.0
H160 H 0.13878 0.08855 0.29282 0.0
H161 H 0.02101 0.09984 0.27585 0.0
H162 H 0.04466 0.09393 0.2451 0.0
H163 H 0.0456 0.12985 0.26418 0.0
C164 C 0.12323 0.09493 0.20069 0.0
C165 C 0.12429 0.12531 0.19345 0.0
C166 C 0.11362 0.08583 0.22852 0.0
C167 C 0.10446 0.10677 0.24961 0.0
C168 C 0.10488 0.13697 0.24237 0.0
H169 H 0.03032 0.07504 0.42576 0.0
H170 H 0.05252 0.10146 0.38387 0.0
C171 C 0.11473 0.14616 0.21464 0.0
C172 C 0.09545 0.09713 0.27956 0.0
H173 H 0.03658 0.08508 0.32299 0.0
C174 C 0.11646 0.08793 0.2995 0.0
C175 C 0.06637 0.09651 0.28828 0.0
C176 C 0.04293 0.10538 0.2673 0.0
C177 C 0.10912 0.07788 0.32786 0.0
C178 C 0.07992 0.07655 0.33636 0.0
C179 C 0.05899 0.08638 0.31663 0.0
C180 C 0.0702 0.06216 0.36415 0.0
C181 C 0.1327 0.06871 0.34849 0.0
C182 C 0.07331 0.03156 0.36735 0.0
C183 C 0.06063 0.01658 0.391 0.0
C184 C 0.04468 0.03185 0.41217 0.0
C185 C 0.04294 0.06286 0.41008 0.0
C186 C 0.05536 0.07786 0.38601 0.0
H187 H 0.15411 0.07933 0.34279 0.0
H188 H 0.12832 0.07474 0.3721 0.0
H189 H 0.13381 0.04408 0.34635 0.0
H190 H 0.08422 0.01884 0.35061 0.0
H191 H 0.06206 0.99261 0.3919 0.0
H192 H 0.34298 0.90931 0.69352 0.0
H193 H 0.36125 0.9343 0.74003 0.0
H194 H 0.44856 0.92861 0.71089 0.0
H195 H 0.43041 0.90512 0.66345 0.0
H196 H 0.39401 0.91284 0.78204 0.0
H197 H 0.45156 0.01468 0.74008 0.0
H198 H 0.42696 0.99044 0.71682 0.0
H199 H 0.46352 0.98095 0.72331 0.0
C200 C 0.36607 0.91398 0.69661 0.0
C201 C 0.3852 0.90543 0.6745 0.0
C202 C 0.37648 0.92809 0.72338 0.0
C203 C 0.40625 0.9339 0.72876 0.0
C204 C 0.42547 0.92513 0.70694 0.0
H205 H 0.51629 0.9675 0.88016 0.0
H206 H 0.49409 0.96174 0.83026 0.0
C207 C 0.41506 0.91123 0.67999 0.0
C208 C 0.41711 0.94729 0.75802 0.0
H209 H 0.4623 0.00323 0.79082 0.0
C210 C 0.40854 0.9329 0.78397 0.0
C211 C 0.43608 0.9735 0.76054 0.0
C212 C 0.44484 0.99097 0.73371 0.0
C213 C 0.41926 0.94329 0.81222 0.0
C214 C 0.43888 0.96891 0.81462 0.0
C215 C 0.44704 0.98373 0.78884 0.0
C216 C 0.45351 0.97827 0.84341 0.0
C217 C 0.41055 0.92607 0.83925 0.0
C218 C 0.43839 0.99076 0.86702 0.0
C219 C 0.4512 0.99441 0.89565 0.0
C220 C 0.47906 0.98519 0.90088 0.0
C221 C 0.49472 0.97465 0.87671 0.0
C222 C 0.48211 0.97139 0.84821 0.0
H223 H 0.3975 0.90488 0.83319 0.0
H224 H 0.43001 0.92072 0.85226 0.0
H225 H 0.3976 0.94005 0.85394 0.0
H226 H 0.41627 0.99625 0.86361 0.0
H227 H 0.43863 0.00237 0.91396 0.0
H228 H 0.62116 0.44845 0.81959 0.0
H229 H 0.61421 0.46412 0.76813 0.0
H230 H 0.60129 0.37168 0.73766 0.0
H231 H 0.6087 0.35587 0.78837 0.0
H232 H 0.64578 0.44451 0.71304 0.0
H233 H 0.5276 0.41377 0.71036 0.0
H234 H 0.54841 0.42033 0.74474 0.0
H235 H 0.54977 0.38561 0.72372 0.0
C236 C 0.61692 0.43154 0.80186 0.0
C237 C 0.61499 0.40096 0.80811 0.0
C238 C 0.61303 0.44049 0.77259 0.0
C239 C 0.60711 0.41897 0.74933 0.0
C240 C 0.60555 0.38855 0.75545 0.0
H241 H 0.53471 0.43464 0.57521 0.0
H242 H 0.56711 0.41241 0.61048 0.0
C243 C 0.6095 0.37961 0.78451 0.0
C244 C 0.60164 0.42793 0.71859 0.0
H245 H 0.54852 0.42687 0.66509 0.0
C246 C 0.62457 0.44068 0.70239 0.0
C247 C 0.574 0.42269 0.70495 0.0
C248 C 0.54842 0.41008 0.72182 0.0
C249 C 0.6205 0.44828 0.67257 0.0
C250 C 0.59276 0.44311 0.65893 0.0
C251 C 0.56999 0.43011 0.67525 0.0
C252 C 0.58515 0.45492 0.62966 0.0
C253 C 0.64583 0.46178 0.65604 0.0
C254 C 0.58675 0.48603 0.62679 0.0
C255 C 0.56856 0.49861 0.60643 0.0
C256 C 0.54854 0.48023 0.58898 0.0
C257 C 0.55024 0.44916 0.58832 0.0
C258 C 0.56861 0.43649 0.60863 0.0
H259 H 0.66649 0.45419 0.66488 0.0
H260 H 0.64386 0.45595 0.63178 0.0
H261 H 0.64677 0.4865 0.65916 0.0
H262 H 0.59896 0.50075 0.64292 0.0
H263 H 0.56729 0.52267 0.60739 0.0
H264 H 0.92917 0.59987 0.33495 0.0
H265 H 0.9385 0.58926 0.28249 0.0
H266 H 0.84744 0.5688 0.26493 0.0
H267 H 0.83763 0.58159 0.31675 0.0
H268 H 0.93003 0.53989 0.24987 0.0
H269 H 0.86493 0.62461 0.19941 0.0
H270 H 0.87261 0.62438 0.23899 0.0
H271 H 0.84404 0.59962 0.22218 0.0
C272 C 0.91101 0.59365 0.31988 0.0
C273 C 0.8826 0.59186 0.33026 0.0
C274 C 0.91642 0.58736 0.28987 0.0
C275 C 0.89361 0.5789 0.26953 0.0
C276 C 0.86533 0.57617 0.27993 0.0
H277 H 0.92256 0.48486 0.10399 0.0
H278 H 0.89709 0.50461 0.14671 0.0
C279 C 0.85983 0.5829 0.30985 0.0
C280 C 0.8997 0.57176 0.23776 0.0
H281 H 0.8829 0.58818 0.16578 0.0
C282 C 0.91975 0.55056 0.23157 0.0
C283 C 0.8865 0.58588 0.21376 0.0
C284 C 0.86605 0.61011 0.21888 0.0
C285 C 0.92677 0.54289 0.20221 0.0
C286 C 0.91286 0.55621 0.17826 0.0
C287 C 0.89308 0.57767 0.18425 0.0
C288 C 0.91988 0.5484 0.14707 0.0
C289 C 0.94938 0.52082 0.19697 0.0
C290 C 0.93933 0.56733 0.13178 0.0
C291 C 0.95356 0.55618 0.10703 0.0
C292 C 0.94843 0.52605 0.09752 0.0
C293 C 0.92639 0.50834 0.11058 0.0
C294 C 0.91206 0.51951 0.13516 0.0
H295 H 0.9616 0.51661 0.21777 0.0
H296 H 0.93877 0.49921 0.18818 0.0
H297 H 0.96491 0.52908 0.18016 0.0
H298 H 0.94571 0.58965 0.14077 0.0
H299 H 0.97097 0.56997 0.09772 0.0
H300 H 0.21912 0.11245 0.15716 0.0
H301 H 0.26107 0.08916 0.13742 0.0
H302 H 0.22817 0.09728 0.04784 0.0
H303 H 0.18545 0.11958 0.06727 0.0
H304 H 0.26032 0.03386 0.08947 0.0
H305 H 0.31448 0.14321 0.05963 0.0
H306 H 0.28836 0.14032 0.08879 0.0
H307 H 0.27658 0.13603 0.05047 0.0
C308 C 0.22041 0.10886 0.13326 0.0
C309 C 0.19866 0.11798 0.11388 0.0
C310 C 0.24454 0.09561 0.12203 0.0
C311 C 0.24769 0.09145 0.0912 0.0
C312 C 0.22613 0.10033 0.07174 0.0
H313 H 0.39594 0.05486 0.98656 0.0
H314 H 0.34694 0.06324 0.00211 0.0
C315 C 0.20184 0.11336 0.08292 0.0
C316 C 0.27415 0.07909 0.07931 0.0
H317 H 0.33796 0.10002 0.04724 0.0
C318 C 0.27734 0.04822 0.08015 0.0
C319 C 0.29625 0.09789 0.06726 0.0
C320 C 0.29406 0.13127 0.06649 0.0
C321 C 0.30196 0.03559 0.06873 0.0
C322 C 0.32422 0.05447 0.05672 0.0
C323 C 0.3209 0.0854 0.05614 0.0
C324 C 0.35143 0.0432 0.04497 0.0
C325 C 0.30353 0.00213 0.06905 0.0
C326 C 0.36999 0.02783 0.06318 0.0
C327 C 0.39784 0.0223 0.05386 0.0
C328 C 0.40768 0.03242 0.02639 0.0
C329 C 0.38861 0.04624 0.00754 0.0
C330 C 0.36072 0.05133 0.0166 0.0
H331 H 0.28172 0.99037 0.07008 0.0
H332 H 0.31436 0.99356 0.04901 0.0
H333 H 0.31611 0.9965 0.08912 0.0
H334 H 0.36379 0.02193 0.08542 0.0
H335 H 0.41246 0.01246 0.06917 0.0
H336 H 0.28714 0.88936 0.63664 0.0
H337 H 0.2402 0.90151 0.61668 0.0
H338 H 0.27573 0.90861 0.52899 0.0
H339 H 0.32264 0.89555 0.54882 0.0
H340 H 0.22671 0.95157 0.59172 0.0
H341 H 0.20294 0.8562 0.51034 0.0
H342 H 0.23171 0.85677 0.53812 0.0
H343 H 0.23667 0.87701 0.50454 0.0
C344 C 0.28488 0.89348 0.61309 0.0
C345 C 0.30843 0.89161 0.59423 0.0
C346 C 0.25807 0.90028 0.60169 0.0
C347 C 0.25432 0.90551 0.57125 0.0
C348 C 0.2779 0.90385 0.55237 0.0
H349 H 0.11519 -0.00216 0.49424 0.0
H350 H 0.16092 0.97428 0.50098 0.0
C351 C 0.3047 0.89664 0.56372 0.0
C352 C 0.22609 0.91432 0.55989 0.0
H353 H 0.17111 0.89555 0.50916 0.0
C354 C 0.21459 0.93926 0.5737 0.0
C355 C 0.21022 0.89813 0.53644 0.0
C356 C 0.22085 0.87037 0.52166 0.0
C357 C 0.18773 0.94852 0.56467 0.0
C358 C 0.1721 0.93261 0.54106 0.0
C359 C 0.18342 0.90772 0.52713 0.0
C360 C 0.14361 0.94167 0.53139 0.0
C361 C 0.17591 0.97507 0.58063 0.0
C362 C 0.11874 0.93022 0.54539 0.0
C363 C 0.09268 0.94343 0.54134 0.0
C364 C 0.09136 0.96817 0.52328 0.0
C365 C 0.11578 0.9784 0.5078 0.0
C366 C 0.14179 0.96505 0.51169 0.0
H367 H 0.19083 0.98505 0.59861 0.0
H368 H 0.17186 0.99253 0.56447 0.0
H369 H 0.15495 0.96808 0.5906 0.0
H370 H 0.11996 0.91244 0.56098 0.0
H371 H 0.07417 0.93576 0.55399 0.0
H372 H 0.69274 0.35547 0.90369 0.0
H373 H 0.73944 0.37206 0.92681 0.0
H374 H 0.7196 0.46406 0.91964 0.0
H375 H 0.67221 0.44756 0.89727 0.0
H376 H 0.78149 0.40664 0.8994 0.0
H377 H 0.75104 0.46183 0.00564 0.0
H378 H 0.72625 0.4366 0.98358 0.0
H379 H 0.73307 0.47476 0.97322 0.0
C380 C 0.69792 0.37923 0.90779 0.0
C381 C 0.67866 0.40024 0.89899 0.0
C382 C 0.72471 0.38865 0.92079 0.0
C383 C 0.73276 0.41923 0.9253 0.0
C384 C 0.7135 0.44032 0.91691 0.0
H385 H 0.89181 0.52432 0.95511 0.0
H386 H 0.84188 0.50448 0.94566 0.0
C387 C 0.68661 0.4309 0.90388 0.0
C388 C 0.76222 0.42896 0.93646 0.0
H389 H 0.80008 0.47092 0.99124 0.0
C390 C 0.78558 0.4204 0.91966 0.0
C391 C 0.7674 0.44681 0.96295 0.0
C392 C 0.74314 0.45533 0.98258 0.0
C393 C 0.81402 0.43002 0.92817 0.0
C394 C 0.81911 0.44852 0.95415 0.0
C395 C 0.79589 0.45669 0.9713 0.0
C396 C 0.84846 0.46095 0.96265 0.0
C397 C 0.83847 0.42112 0.90895 0.0
C398 C 0.86834 0.44302 0.97576 0.0
C399 C 0.89686 0.4543 0.98135 0.0
C400 C 0.90584 0.48354 0.97354 0.0
C401 C 0.88558 0.50161 0.96108 0.0
C402 C 0.85706 0.49043 0.95582 0.0
H403 H 0.83064 0.40875 0.88807 0.0
H404 H 0.8521 0.4413 0.90305 0.0
H405 H 0.85233 0.40665 0.92165 0.0
H406 H 0.86192 0.42017 0.98109 0.0
H407 H 0.91201 0.43989 0.99099 0.0
H408 H 0.82166 0.53787 0.40545 0.0
H409 H 0.77405 0.52125 0.42399 0.0
H410 H 0.76219 0.61132 0.45588 0.0
H411 H 0.80858 0.62835 0.43633 0.0
H412 H 0.74888 0.52536 0.48167 0.0
H413 H 0.6934 0.59119 0.39838 0.0
H414 H 0.73096 0.58387 0.39595 0.0
H415 H 0.72011 0.61298 0.42102 0.0
C416 C 0.80887 0.5541 0.41638 0.0
C417 C 0.81897 0.58445 0.4193 0.0
C418 C 0.78182 0.54454 0.42716 0.0
C419 C 0.76451 0.56519 0.44089 0.0
C420 C 0.77507 0.59513 0.44497 0.0
H421 H 0.58761 0.55642 0.50239 0.0
H422 H 0.63924 0.57076 0.49717 0.0
C423 C 0.80183 0.60473 0.43407 0.0
C424 C 0.73474 0.55605 0.44957 0.0
H425 H 0.66441 0.56957 0.43579 0.0
C426 C 0.73038 0.53492 0.47163 0.0
C427 C 0.71068 0.5686 0.43635 0.0
C428 C 0.7139 0.5902 0.41141 0.0
C429 C 0.70247 0.52625 0.48103 0.0
C430 C 0.67855 0.53901 0.46794 0.0
C431 C 0.68293 0.56019 0.44603 0.0
C432 C 0.64852 0.5291 0.47477 0.0
C433 C 0.69863 0.50367 0.50495 0.0
C434 C 0.6369 0.50098 0.46397 0.0
C435 C 0.60752 0.49297 0.46647 0.0
C436 C 0.58925 0.51289 0.47999 0.0
C437 C 0.60117 0.54063 0.49188 0.0
C438 C 0.63059 0.54881 0.48898 0.0
H439 H 0.71933 0.50027 0.51679 0.0
H440 H 0.68284 0.5109 0.52146 0.0
H441 H 0.68998 0.48188 0.49462 0.0
H442 H 0.65036 0.48567 0.45258 0.0
H443 H 0.59902 0.47133 0.45731 0.0
H444 H 0.16508 0.21775 0.09809 0.0
H445 H 0.14419 0.26057 0.07561 0.0
H446 H 0.05868 0.2204 0.0894 0.0
H447 H 0.07933 0.17762 0.11187 0.0
H448 H 0.10538 0.26586 0.02642 0.0
H449 H 0.05807 0.30214 0.13301 0.0
H450 H 0.08472 0.27484 0.13115 0.0
H451 H 0.04756 0.2641 0.12139 0.0
C452 C 0.14182 0.21785 0.09603 0.0
C453 C 0.1239 0.19432 0.10713 0.0
C454 C 0.12991 0.24241 0.08321 0.0
C455 C 0.09984 0.24402 0.08124 0.0
C456 C 0.08193 0.22004 0.09126 0.0
H457 H 0.98521 0.38176 0.04199 0.0
H458 H 0.00584 0.3337 0.04856 0.0
C459 C 0.09379 0.19558 0.10416 0.0
C460 C 0.08714 0.27116 0.06979 0.0
H461 H 0.04487 0.32736 0.09012 0.0
C462 C 0.09216 0.27937 0.04031 0.0
C463 C 0.07003 0.28893 0.08794 0.0
C464 C 0.06494 0.2823 0.12021 0.0
C465 C 0.07984 0.30431 0.02828 0.0
C466 C 0.06244 0.3219 0.0464 0.0
C467 C 0.05783 0.3138 0.07599 0.0
C468 C 0.0489 0.34904 0.03579 0.0
C469 C 0.08504 0.31107 0.9961 0.0
C470 C 0.06574 0.3735 0.02495 0.0
C471 C 0.05361 0.40084 0.02029 0.0
C472 C 0.0246 0.40434 0.0269 0.0
C473 C 0.00746 0.37947 0.03612 0.0
C474 C 0.01937 0.35208 0.04022 0.0
H475 H 0.09076 0.29087 0.98307 0.0
H476 H 0.06577 0.31984 0.9854 0.0
H477 H 0.10338 0.32825 0.99503 0.0
H478 H 0.08868 0.37221 0.02204 0.0
H479 H 0.06753 0.41993 0.01412 0.0
H480 H 0.59672 0.32833 0.92813 0.0
H481 H 0.58252 0.27586 0.93767 0.0
H482 H 0.58463 0.25356 0.84348 0.0
H483 H 0.5996 0.30544 0.83381 0.0
H484 H 0.53476 0.23757 0.91412 0.0
H485 H 0.64086 0.19771 0.88253 0.0
H486 H 0.63562 0.2366 0.89099 0.0
H487 H 0.62382 0.21972 0.85548 0.0
C488 C 0.594 0.31225 0.90948 0.0
C489 C 0.59928 0.32102 0.88025 0.0
C490 C 0.58586 0.28238 0.91493 0.0
C491 C 0.58309 0.26091 0.89127 0.0
C492 C 0.58714 0.26979 0.86202 0.0
H493 H 0.5018 0.08622 0.92695 0.0
H494 H 0.51995 0.12586 0.89457 0.0
C495 C 0.59528 0.29955 0.85654 0.0
C496 C 0.57641 0.22908 0.89722 0.0
H497 H 0.6046 0.1608 0.8947 0.0
C498 C 0.54984 0.22067 0.90964 0.0
C499 C 0.59644 0.20735 0.89161 0.0
C500 C 0.62591 0.2157 0.87965 0.0
C501 C 0.54281 0.19103 0.91708 0.0
C502 C 0.56267 0.1691 0.91113 0.0
C503 C 0.58917 0.17751 0.89842 0.0
C504 C 0.55785 0.13864 0.92235 0.0
C505 C 0.5148 0.18383 0.93265 0.0
C506 C 0.57488 0.13073 0.94658 0.0
C507 C 0.56483 0.10781 0.96463 0.0
C508 C 0.53777 0.09267 0.95852 0.0
C509 C 0.52293 0.09745 0.93178 0.0
C510 C 0.53308 0.12033 0.91355 0.0
H511 H 0.50464 0.20433 0.9404 0.0
H512 H 0.49935 0.17092 0.91699 0.0
H513 H 0.51837 0.17001 0.95224 0.0
H514 H 0.59416 0.14447 0.9536 0.0
H515 H 0.57637 0.10463 0.9854 0.0
H516 H 0.94395 0.6527 0.40856 0.0
H517 H 0.96603 0.70094 0.42905 0.0
H518 H 0.88206 0.72738 0.45328 0.0
H519 H 0.8599 0.67977 0.43279 0.0
H520 H 0.92354 0.766 0.41178 0.0
H521 H 0.96569 0.73729 0.52362 0.0
H522 H 0.96907 0.71203 0.49178 0.0
H523 H 0.93414 0.71717 0.50635 0.0
C524 C 0.93031 0.66875 0.41849 0.0
C525 C 0.90026 0.6624 0.41929 0.0
C526 C 0.94292 0.69609 0.43034 0.0
C527 C 0.92561 0.71735 0.44296 0.0
C528 C 0.89573 0.71097 0.44401 0.0
H529 H 0.93657 0.90135 0.49954 0.0
H530 H 0.92756 0.8468 0.50041 0.0
C531 C 0.88317 0.68374 0.43237 0.0
C532 C 0.938 0.74747 0.45251 0.0
H533 H 0.97187 0.78808 0.51081 0.0
C534 C 0.93429 0.77085 0.43331 0.0
C535 C 0.95172 0.75348 0.48072 0.0
C536 C 0.95547 0.7288 0.50203 0.0
C537 C 0.94391 0.80033 0.44165 0.0
C538 C 0.95756 0.80649 0.46992 0.0
C539 C 0.96145 0.78311 0.48916 0.0
C540 C 0.96745 0.8375 0.47921 0.0
C541 C 0.93917 0.8249 0.42034 0.0
C542 C 0.9936 0.85001 0.46865 0.0
C543 C -0.00124 0.88105 0.46824 0.0
C544 C 0.97791 0.89977 0.47859 0.0
C545 C 0.95323 0.88726 0.49217 0.0
C546 C 0.94802 0.85617 0.49252 0.0
H547 H 0.92728 0.81643 0.39961 0.0
H548 H 0.92681 0.84234 0.43131 0.0
H549 H 0.96031 0.83575 0.41413 0.0
H550 H 0.00863 0.83588 0.45799 0.0
H551 H 0.01758 0.89033 0.45702 0.0
H552 H 0.38636 0.83761 0.54779 0.0
H553 H 0.40453 0.79142 0.52686 0.0
H554 H 0.41469 0.75924 0.61554 0.0
H555 H 0.39619 0.80495 0.63657 0.0
H556 H 0.45926 0.76456 0.54038 0.0
H557 H 0.36183 0.69319 0.56854 0.0
H558 H 0.36202 0.73343 0.56702 0.0
H559 H 0.37696 0.71669 0.59912 0.0
C560 C 0.39252 0.82068 0.5628 0.0
C561 C 0.3898 0.82487 0.59383 0.0
C562 C 0.40296 0.79442 0.55082 0.0
C563 C 0.41054 0.77186 0.56966 0.0
C564 C 0.4086 0.77631 0.60064 0.0
H565 H 0.48675 0.61309 0.58492 0.0
H566 H 0.47006 0.66321 0.58468 0.0
C567 C 0.39832 0.80256 0.61263 0.0
C568 C 0.42019 0.74335 0.55722 0.0
H569 H 0.40406 0.6679 0.55678 0.0
C570 C 0.44696 0.74343 0.54334 0.0
C571 C 0.40392 0.71591 0.56091 0.0
C572 C 0.37445 0.71469 0.57446 0.0
C573 C 0.45876 0.71648 0.53488 0.0
C574 C 0.44326 0.68909 0.54029 0.0
C575 C 0.41578 0.68907 0.55256 0.0
C576 C 0.4569 0.66042 0.53812 0.0
C577 C 0.48838 0.71717 0.52183 0.0
C578 C 0.45569 0.64261 0.51164 0.0
C579 C 0.46535 0.61364 0.51161 0.0
C580 C 0.47596 0.60228 0.53818 0.0
C581 C 0.4785 0.62103 0.56411 0.0
C582 C 0.46901 0.64973 0.56407 0.0
H583 H 0.49685 0.74024 0.51699 0.0
H584 H 0.50353 0.70758 0.53772 0.0
H585 H 0.48773 0.70307 0.50091 0.0
H586 H 0.44629 0.65065 0.49142 0.0
H587 H 0.46302 0.59965 0.49137 0.0
H588 H 0.83485 0.89483 0.79974 0.0
H589 H 0.85141 0.91137 0.75137 0.0
H590 H 0.93802 0.89103 0.77498 0.0
H591 H 0.92191 0.87525 0.82391 0.0
H592 H 0.89708 0.95749 0.73885 0.0
H593 H 0.9185 0.84446 0.69345 0.0
H594 H 0.89576 0.85005 0.72501 0.0
H595 H 0.93432 0.8547 0.72967 0.0
C596 C 0.85753 0.89419 0.79494 0.0
C597 C 0.877 0.88362 0.81597 0.0
C598 C 0.8669 0.90351 0.76711 0.0
C599 C 0.89586 0.90212 0.75939 0.0
C600 C 0.91545 0.89183 0.78026 0.0
H601 H 0.00575 0.95049 0.61652 0.0
H602 H 0.9813 0.92901 0.6592 0.0
C603 C 0.90615 0.8827 0.80823 0.0
C604 C 0.90559 0.91158 0.72956 0.0
H605 H 0.93401 0.8857 0.66476 0.0
C606 C 0.90488 0.94177 0.7225 0.0
C607 C 0.91572 0.89104 0.70826 0.0
C608 C 0.91598 0.85818 0.71424 0.0
C609 C 0.915 0.95214 0.69513 0.0
C610 C 0.92551 0.93164 0.67396 0.0
C611 C 0.92572 0.90135 0.68085 0.0
C612 C 0.93901 0.94171 0.6459 0.0
C613 C 0.91556 0.98516 0.68958 0.0
C614 C 0.92317 0.95499 0.62345 0.0
C615 C 0.93714 0.96693 0.59859 0.0
C616 C 0.96714 0.96594 0.59609 0.0
C617 C 0.98257 0.95142 0.61787 0.0
C618 C 0.96864 0.93923 0.64232 0.0
H619 H 0.91156 -0.00138 0.71017 0.0
H620 H 0.93671 0.99327 0.68071 0.0
H621 H 0.89858 0.98909 0.67269 0.0
H622 H 0.90019 0.95686 0.62559 0.0
H623 H 0.92486 0.97836 0.58232 0.0
H624 H 0.57611 0.11149 0.34304 0.0
H625 H 0.55755 0.0882 0.29554 0.0
H626 H 0.64451 0.08559 0.26445 0.0
H627 H 0.6632 0.10893 0.31173 0.0
H628 H 0.56434 0.11037 0.23961 0.0
H629 H 0.61106 0.0003 0.24505 0.0
H630 H 0.6092 0.02532 0.27733 0.0
H631 H 0.63729 0.03149 0.25085 0.0
C632 C 0.59127 0.10593 0.32609 0.0
C633 C 0.62114 0.11196 0.33122 0.0
C634 C 0.58065 0.09247 0.29904 0.0
C635 C 0.59967 0.08464 0.27668 0.0
C636 C 0.62948 0.09067 0.2817 0.0
H637 H 0.57906 0.05463 0.08816 0.0
H638 H 0.59753 0.06231 0.13974 0.0
C639 C 0.64012 0.10408 0.30873 0.0
C640 C 0.5883 0.07192 0.24739 0.0
H641 H 0.59205 0.01288 0.19745 0.0
C642 C 0.57011 0.08889 0.23058 0.0
C643 C 0.59586 0.04386 0.23564 0.0
C644 C 0.6142 0.02403 0.25326 0.0
C645 C 0.56 0.07897 0.20197 0.0
C646 C 0.56822 0.05138 0.18995 0.0
C647 C 0.58589 0.03406 0.20686 0.0
C648 C 0.55948 0.0412 0.15919 0.0
C649 C 0.54109 0.09829 0.18434 0.0
C650 C 0.53247 0.02578 0.15323 0.0
C651 C 0.52209 0.02102 0.12377 0.0
C652 C 0.53866 0.03169 0.10014 0.0
C653 C 0.56631 0.0456 0.1061 0.0
C654 C 0.57675 0.05015 0.13546 0.0
H655 H 0.53656 0.11916 0.19694 0.0
H656 H 0.55173 0.10438 0.16329 0.0
H657 H 0.52028 0.08556 0.17823 0.0
H658 H 0.51878 0.01903 0.17138 0.0
H659 H 0.50038 0.01102 0.11961 0.0
H660 H 0.3873 0.58103 0.18934 0.0
H661 H 0.39968 0.56659 0.24009 0.0
H662 H 0.39439 0.65768 0.27257 0.0
H663 H 0.38164 0.67223 0.22224 0.0
H664 H 0.4508 0.61289 0.28337 0.0
H665 H 0.33886 0.58212 0.31941 0.0
H666 H 0.34868 0.57412 0.28138 0.0
H667 H 0.34656 0.61214 0.29434 0.0
C668 C 0.38869 0.59789 0.20734 0.0
C669 C 0.38378 0.62776 0.20186 0.0
C670 C 0.39577 0.58967 0.23617 0.0
C671 C 0.39782 0.61117 0.25978 0.0
C672 C 0.39291 0.64092 0.25446 0.0
H673 H 0.47174 0.57154 0.43554 0.0
H674 H 0.44925 0.60244 0.39843 0.0
C675 C 0.38587 0.64916 0.22572 0.0
C676 C 0.40557 0.60257 0.29003 0.0
H677 H 0.37713 0.57146 0.35198 0.0
C678 C 0.43479 0.6043 0.29869 0.0
C679 C 0.38441 0.59159 0.30967 0.0
C680 C 0.35277 0.58983 0.30099 0.0
C681 C 0.4436 0.59378 0.3262 0.0
C682 C 0.4225 0.5817 0.34551 0.0
C683 C 0.39315 0.58118 0.33727 0.0
C684 C 0.43091 0.56453 0.37127 0.0
C685 C 0.47547 0.59389 0.33362 0.0
C686 C 0.42683 0.53329 0.36879 0.0
C687 C 0.43976 0.51589 0.38949 0.0
C688 C 0.4566 0.52945 0.41327 0.0
C689 C 0.45873 0.56073 0.41733 0.0
C690 C 0.44605 0.57829 0.39619 0.0
H691 H 0.48902 0.60123 0.31478 0.0
H692 H 0.48093 0.60931 0.35317 0.0
H693 H 0.48108 0.57117 0.33961 0.0
H694 H 0.4152 0.52232 0.34972 0.0
H695 H 0.43771 0.49176 0.38614 0.0
H696 H 0.09674 0.45381 0.67152 0.0
H697 H 0.08585 0.4671 0.7236 0.0
H698 H 0.09297 0.37553 0.74708 0.0
H699 H 0.10367 0.36211 0.69523 0.0
H700 H 0.03692 0.41627 0.76299 0.0
H701 H 0.14885 0.45553 0.80085 0.0
H702 H 0.13609 0.46299 0.76375 0.0
H703 H 0.1422 0.42544 0.77305 0.0
C704 C 0.09603 0.43663 0.68788 0.0
C705 C 0.10082 0.40694 0.67947 0.0
C706 C 0.08983 0.44419 0.71747 0.0
C707 C 0.08872 0.42223 0.73898 0.0
C708 C 0.09367 0.39267 0.73067 0.0
H709 H 0.02382 0.43961 0.92147 0.0
H710 H 0.04426 0.4163 0.87679 0.0
C711 C 0.09964 0.38506 0.70113 0.0
C712 C 0.08191 0.42998 0.77014 0.0
H713 H 0.11202 0.45957 0.83574 0.0
C714 C 0.05329 0.42546 0.77907 0.0
C715 C 0.10344 0.44193 0.79078 0.0
C716 C 0.13447 0.44682 0.78189 0.0
C717 C 0.04542 0.43351 0.80814 0.0
C718 C 0.06693 0.44577 0.82885 0.0
C719 C 0.09569 0.44972 0.81995 0.0
C720 C 0.05925 0.45841 0.85831 0.0
C721 C 0.01397 0.43019 0.81604 0.0
C722 C 0.06232 0.4895 0.8633 0.0
C723 C 0.05078 0.50263 0.8885 0.0
C724 C 0.03629 0.48492 0.90939 0.0
C725 C 0.03517 0.45363 0.90575 0.0
C726 C 0.04654 0.4404 0.88017 0.0
H727 H -0.00035 0.42476 0.79612 0.0
H728 H 0.01059 0.4119 0.83185 0.0
H729 H 0.00742 0.45111 0.82714 0.0
H730 H 0.0721 0.50377 0.84678 0.0
H731 H 0.05185 0.52683 0.89089 0.0
H732 H 0.7819 0.85178 0.90177 0.0
H733 H 0.74024 0.876 0.92125 0.0
H734 H 0.78996 0.96121 0.92486 0.0
H735 H 0.8312 0.93713 0.90393 0.0
H736 H 0.73067 0.90506 0.97127 0.0
H737 H 0.72083 0.98383 0.87966 0.0
H738 H 0.74483 0.95402 0.87792 0.0
H739 H 0.755 0.98808 0.89929 0.0
C740 C 0.7839 0.87567 0.90681 0.0
C741 C 0.80967 0.89262 0.90121 0.0
C742 C 0.76009 0.88954 0.91792 0.0
C743 C 0.76161 0.92063 0.92403 0.0
C744 C 0.7878 0.93741 0.91947 0.0
H745 H 0.6161 -0.00203 0.01784 0.0
H746 H 0.6663 0.99038 0.00393 0.0
C747 C 0.81145 0.92361 0.90777 0.0
C748 C 0.73568 0.9351 0.9351 0.0
H749 H 0.6883 0.98768 0.919 0.0
C750 C 0.72164 0.92334 0.95999 0.0
C751 C 0.72361 0.95888 0.9203 0.0
C752 C 0.73665 0.97179 0.89266 0.0
C753 C 0.69571 0.93412 0.96998 0.0
C754 C 0.68366 0.95769 0.9551 0.0
C755 C 0.69791 0.96997 0.93068 0.0
C756 C 0.65432 0.96676 0.96202 0.0
C757 C 0.68047 0.91917 0.99538 0.0
C758 C 0.63123 0.95701 0.94261 0.0
C759 C 0.60291 0.96132 0.95047 0.0
C760 C 0.59704 0.97581 0.97773 0.0
C761 C 0.62016 0.98718 0.99651 0.0
C762 C 0.64872 0.98262 0.98869 0.0
H763 H 0.69179 0.89989 0.00341 0.0
H764 H 0.67897 0.93561 0.01429 0.0
H765 H 0.65812 0.91113 0.9882 0.0
H766 H 0.63502 0.94463 0.92204 0.0
H767 H 0.58538 0.95199 0.93584 0.0
H768 H 0.68345 0.12647 0.45937 0.0
H769 H 0.73014 0.11449 0.4806 0.0
H770 H 0.76307 0.10452 0.39199 0.0
H771 H 0.71715 0.11757 0.37071 0.0
H772 H 0.75954 0.06353 0.47249 0.0
H773 H 0.82469 0.16158 0.43297 0.0
H774 H 0.78573 0.15971 0.43315 0.0
H775 H 0.80408 0.14207 0.40307 0.0
C776 C 0.70077 0.12206 0.44444 0.0
C777 C 0.69659 0.12311 0.41333 0.0
C778 C 0.72736 0.1151 0.45661 0.0
C779 C 0.75025 0.10929 0.4379 0.0
C780 C 0.74592 0.10968 0.40688 0.0
H781 H 0.90325 0.02998 0.42151 0.0
H782 H 0.8591 0.0559 0.42052 0.0
C783 C 0.71948 0.11669 0.39473 0.0
C784 C 0.77847 0.1017 0.45039 0.0
H785 H 0.85089 0.11858 0.44473 0.0
C786 C 0.77952 0.07595 0.46712 0.0
C787 C 0.80448 0.11816 0.44361 0.0
C788 C 0.8047 0.1471 0.42748 0.0
C789 C 0.80603 0.06491 0.47517 0.0
C790 C 0.83194 0.08016 0.46637 0.0
C791 C 0.83091 0.10695 0.45139 0.0
C792 C 0.85969 0.06613 0.46799 0.0
C793 C 0.80623 0.03595 0.49118 0.0
C794 C 0.87489 0.06374 0.4951 0.0
C795 C 0.90047 0.04891 0.49579 0.0
C796 C 0.91086 0.03611 0.4694 0.0
C797 C 0.89574 0.03926 0.44232 0.0
C798 C 0.87053 0.05418 0.44164 0.0
H799 H 0.78411 0.02625 0.49551 0.0
H800 H 0.81761 0.01937 0.47775 0.0
H801 H 0.81819 0.03987 0.51283 0.0
H802 H 0.86683 0.07303 0.51564 0.0
H803 H 0.9117 0.04689 0.51696 0.0
H804 H 0.2936 0.61081 0.1545 0.0
H805 H 0.2473 0.59476 0.13014 0.0
H806 H 0.28493 0.60562 0.04394 0.0
H807 H 0.33178 0.6213 0.06821 0.0
H808 H 0.22043 0.63565 0.08704 0.0
H809 H 0.2361 0.52065 0.04139 0.0
H810 H 0.2569 0.53675 0.0733 0.0
H811 H 0.26393 0.55022 0.03691 0.0
C812 C 0.29233 0.60893 0.13036 0.0
C813 C 0.31635 0.61723 0.11325 0.0
C814 C 0.2658 0.60003 0.11651 0.0
C815 C 0.26285 0.5991 0.08534 0.0
C816 C 0.28696 0.60611 0.06805 0.0
H817 H 0.09457 0.54195 -0.00169 0.0
H818 H 0.14458 0.5643 0.00201 0.0
C819 C 0.31358 0.61512 0.08192 0.0
C820 C 0.23391 0.59297 0.07141 0.0
H821 H 0.18946 0.53752 0.03732 0.0
C822 C 0.21371 0.61441 0.07568 0.0
C823 C 0.22548 0.56539 0.05641 0.0
C824 C 0.24658 0.54174 0.05166 0.0
C825 C 0.18479 0.60835 0.06664 0.0
C826 C 0.17593 0.58003 0.05336 0.0
C827 C 0.19647 0.55927 0.0474 0.0
C828 C 0.14511 0.56978 0.05013 0.0
C829 C 0.16368 0.63181 0.07243 0.0
C830 C 0.12911 0.56574 0.07593 0.0
C831 C 0.10099 0.55282 0.07393 0.0
C832 C 0.08827 0.54378 0.04606 0.0
C833 C 0.10388 0.54889 0.02004 0.0
C834 C 0.13235 0.56153 0.02211 0.0
H835 H 0.17473 0.65465 0.07399 0.0
H836 H 0.14664 0.63094 0.05459 0.0
H837 H 0.15311 0.62766 0.09396 0.0
H838 H 0.13877 0.57158 0.09776 0.0
H839 H 0.0894 0.54929 0.09433 0.0
H840 H 0.18998 0.42362 0.63642 0.0
H841 H 0.23646 0.43814 0.61564 0.0
H842 H 0.20085 0.41957 0.52672 0.0
H843 H 0.15344 0.40762 0.54717 0.0
H844 H 0.26855 0.40268 0.58608 0.0
H845 H 0.24604 0.49657 0.51401 0.0
H846 H 0.22052 0.48214 0.54052 0.0
H847 H 0.22378 0.46297 0.50493 0.0
C848 C 0.19155 0.42366 0.6124 0.0
C849 C 0.16769 0.41434 0.59357 0.0
C850 C 0.21839 0.4316 0.60053 0.0
C851 C 0.22223 0.43003 0.56959 0.0
C852 C 0.1984 0.42149 0.55063 0.0
H853 H 0.40381 0.42938 0.51446 0.0
H854 H 0.35178 0.41376 0.51505 0.0
C855 C 0.17133 0.41417 0.56246 0.0
C856 C 0.25165 0.4353 0.55768 0.0
H857 H 0.29249 0.47831 0.51097 0.0
C858 C 0.27374 0.41914 0.56955 0.0
C859 C 0.2584 0.45673 0.53604 0.0
C860 C 0.236 0.4758 0.52333 0.0
C861 C 0.30251 0.4246 0.56134 0.0
C862 C 0.30927 0.44605 0.53979 0.0
C863 C 0.2871 0.46149 0.52709 0.0
C864 C 0.3396 0.4561 0.53391 0.0
C865 C 0.3256 0.4086 0.57712 0.0
C866 C 0.3496 0.48534 0.54292 0.0
C867 C 0.37892 0.49408 0.54264 0.0
C868 C 0.39873 0.47389 0.53297 0.0
C869 C 0.38874 0.44525 0.5219 0.0
C870 C 0.35918 0.43634 0.52242 0.0
H871 H 0.31726 0.39686 0.59688 0.0
H872 H 0.33398 0.39173 0.5615 0.0
H873 H 0.34392 0.42462 0.58459 0.0
H874 H 0.3349 0.50094 0.5518 0.0
H875 H 0.3863 0.51633 0.55114 0.0
H876 H 0.92367 0.82193 0.88679 0.0
H877 H 0.94308 0.77856 0.90923 0.0
H878 H 0.85898 0.7519 0.94199 0.0
H879 H 0.83898 0.79404 0.91809 0.0
H880 H 0.94711 0.76304 0.96607 0.0
H881 H 0.87872 0.67458 0.90321 0.0
H882 H 0.88035 0.71322 0.89318 0.0
H883 H 0.85816 0.70067 0.92329 0.0
C884 C 0.90909 0.80658 0.89824 0.0
C885 C 0.87959 0.81164 0.9003 0.0
C886 C 0.92034 0.78186 0.91137 0.0
C887 C 0.90248 0.7615 0.92697 0.0
C888 C 0.87317 0.76674 0.92952 0.0
H889 H 0.93916 0.59324 0.01093 0.0
H890 H 0.91688 0.63972 -0.00061 0.0
C891 C 0.86182 0.79127 0.91616 0.0
C892 C 0.9147 0.73523 0.94097 0.0
H893 H 0.90779 0.65879 0.9428 0.0
C894 C 0.93847 0.74026 0.96094 0.0
C895 C 0.90347 0.70537 0.93449 0.0
C896 C 0.87896 0.69804 0.91216 0.0
C897 C 0.95122 0.71648 0.97453 0.0
C898 C 0.94019 0.68664 0.9678 0.0
C899 C 0.91613 0.68161 0.94825 0.0
C900 C 0.95464 0.66023 0.97872 0.0
C901 C 0.97634 0.72365 0.99613 0.0
C902 C 0.98343 0.65642 0.97161 0.0
C903 C 0.9962 0.63014 0.97842 0.0
C904 C 0.98046 0.60668 0.99224 0.0
C905 C 0.95203 0.61097 0.00066 0.0
C906 C 0.93919 0.63744 0.9938 0.0
H907 H 0.97583 0.74651 0.00645 0.0
H908 H 0.9765 0.70733 0.01412 0.0
H909 H 0.99679 0.72283 0.98391 0.0
H910 H 0.9957 0.67319 0.95941 0.0
H911 H 0.01807 0.62756 0.97138 0.0
H912 H 0.43262 0.69987 0.13158 0.0
H913 H 0.44786 0.75188 0.1209 0.0
H914 H 0.35876 0.77099 0.10889 0.0
H915 H 0.34344 0.71937 0.11987 0.0
H916 H 0.43491 0.78034 0.06793 0.0
H917 H 0.39278 0.8395 0.16663 0.0
H918 H 0.39857 0.80004 0.16564 0.0
H919 H 0.36684 0.81296 0.14815 0.0
C920 C 0.41637 0.71527 0.12675 0.0
C921 C 0.3869 0.70566 0.12633 0.0
C922 C 0.42505 0.74487 0.1208 0.0
C923 C 0.40436 0.76529 0.1148 0.0
C924 C 0.37498 0.75568 0.11416 0.0
H925 H 0.4174 0.91357 0.00728 0.0
H926 H 0.39678 0.87628 0.04053 0.0
C927 C 0.3663 0.72611 0.11991 0.0
C928 C 0.41337 0.79608 0.10679 0.0
H929 H 0.40528 0.86965 0.12503 0.0
C930 C 0.4288 0.79987 0.08062 0.0
C931 C 0.40547 0.82143 0.12358 0.0
C932 C 0.39024 0.81839 0.15274 0.0
C933 C 0.43552 0.82838 0.07003 0.0
C934 C 0.42622 0.85366 0.0859 0.0
C935 C 0.41187 0.85009 0.11277 0.0
C936 C 0.43117 0.88362 0.07383 0.0
C937 C 0.45196 0.83123 0.04149 0.0
C938 C 0.45574 0.90186 0.08316 0.0
C939 C 0.46727 0.92362 0.06439 0.0
C940 C 0.45444 0.92667 0.03613 0.0
C941 C 0.42755 0.91154 0.02902 0.0
C942 C 0.41583 0.89019 0.04794 0.0
H943 H 0.46212 0.8103 0.03512 0.0
H944 H 0.4369 0.83627 0.02311 0.0
H945 H 0.46906 0.84985 0.0437 0.0
H946 H 0.46781 0.89696 0.1031 0.0
H947 H 0.48815 0.93493 0.07021 0.0
H948 H 0.08263 0.31158 0.63218 0.0
H949 H 0.06175 0.26497 0.60812 0.0
H950 H 0.0641 0.30576 0.52266 0.0
H951 H 0.08453 0.35292 0.54668 0.0
H952 H 0.01 0.26651 0.53739 0.0
H953 H 0.11438 0.21491 0.55213 0.0
H954 H 0.10135 0.23305 0.58504 0.0
H955 H 0.11171 0.25494 0.55381 0.0
C956 C 0.07815 0.31091 0.60837 0.0
C957 C 0.08529 0.33593 0.59131 0.0
C958 C 0.06641 0.2842 0.59464 0.0
C959 C 0.06165 0.28199 0.56365 0.0
C960 C 0.0677 0.30713 0.54662 0.0
H961 H 0.04332 0.09966 0.49157 0.0
H962 H 0.04925 0.15409 0.48684 0.0
C963 C 0.07952 0.33391 0.56034 0.0
C964 C 0.05212 0.25276 0.54909 0.0
H965 H 0.07339 0.18212 0.53854 0.0
C966 C 0.02392 0.2481 0.53712 0.0
C967 C 0.07052 0.22904 0.54847 0.0
C968 C 0.10128 0.23316 0.56031 0.0
C969 C 0.0131 0.21963 0.52606 0.0
C970 C 0.03101 0.19549 0.52708 0.0
C971 C 0.05971 0.2007 0.53751 0.0
C972 C 0.01977 0.16393 0.52194 0.0
C973 C 0.98243 0.2154 0.51415 0.0
C974 C -1e-05 0.15147 0.542 0.0
C975 C 0.99675 0.12053 0.54476 0.0
C976 C 0.01299 0.1017 0.5273 0.0
C977 C 0.03016 0.11382 0.50481 0.0
C978 C 0.03367 0.14488 0.50225 0.0
H979 H 0.97492 0.23665 0.50592 0.0
H980 H 0.98021 0.19804 0.49577 0.0
H981 H 0.96812 0.20806 0.53236 0.0
H982 H 0.98949 0.16566 0.55781 0.0
H983 H 0.98382 0.11157 0.5626 0.0
H984 H 0.57217 0.17557 0.39935 0.0
H985 H 0.54978 0.21967 0.4185 0.0
H986 H 0.633 0.25853 0.4502 0.0
H987 H 0.65592 0.21595 0.42872 0.0
H988 H 0.54526 0.2428 0.47213 0.0
H989 H 0.60658 0.32683 0.40632 0.0
H990 H 0.60832 0.28719 0.39926 0.0
H991 H 0.62984 0.30636 0.42899 0.0
C992 C 0.58588 0.19373 0.40979 0.0
C993 C 0.61599 0.19208 0.41214 0.0
C994 C 0.57295 0.21885 0.42108 0.0
C995 C 0.58973 0.24277 0.43531 0.0
C996 C 0.61964 0.24082 0.43857 0.0
H997 H 0.54252 0.41253 0.51581 0.0
H998 H 0.5655 0.36542 0.50773 0.0
C999 C 0.63267 0.21603 0.42673 0.0
C1000 C 0.57581 0.26952 0.447 0.0
H1001 H 0.57764 0.34574 0.4446 0.0
C1002 C 0.55236 0.26528 0.46605 0.0
C1003 C 0.58495 0.29894 0.43901 0.0
C1004 C 0.60859 0.30511 0.41704 0.0
C1005 C 0.53787 0.28957 0.47726 0.0
C1006 C 0.54724 0.31883 0.46949 0.0
C1007 C 0.57086 0.32321 0.45085 0.0
C1008 C 0.53143 0.34509 0.4784 0.0
C1009 C 0.51254 0.28387 0.4972 0.0
C1010 C 0.50438 0.3488 0.46519 0.0
C1011 C 0.49126 0.37559 0.46968 0.0
C1012 C 0.505 0.39919 0.48746 0.0
C1013 C 0.53127 0.39469 0.50222 0.0
C1014 C 0.54452 0.3679 0.49748 0.0
H1015 H 0.51157 0.26095 0.50589 0.0
H1016 H 0.51361 0.30041 0.51631 0.0
H1017 H 0.49225 0.28641 0.48431 0.0
H1018 H 0.49412 0.33158 0.45011 0.0
H1019 H 0.47109 0.37841 0.4579 0.0
loop_
_geom_bond_atom_site_label_1
_geom_bond_atom_site_label_2
_geom_bond_distance
_geom_bond_site_symmetry_2
_ccdc_geom_bond_type
H0 C3 0.931 . S
H1 C6 0.928 . S
H2 C8 0.930 . S
C3 H0 0.931 . S
C3 C4 1.413 . S
C3 C5 1.360 . S
C4 C3 1.413 . S
C4 C8 1.429 . S
C5 C3 1.360 . S
C5 C6 1.372 . S
C6 H1 0.928 . S
C6 C5 1.372 . S
C6 C7 1.404 . S
C7 C6 1.404 . S
C7 C8 1.391 . S
C8 H2 0.930 . S
C8 C4 1.429 . S
C8 C7 1.391 . S
H9 C12 0.931 . S
H10 C15 0.928 . S
H11 C17 0.930 . S
C12 H9 0.931 . S
C12 C13 1.413 . S
C12 C14 1.360 . S
C13 C12 1.413 . S
C13 C17 1.429 . S
C14 C12 1.360 . S
C14 C15 1.372 . S
C15 H10 0.928 . S
C15 C14 1.372 . S
C15 C16 1.404 . S
C16 C15 1.404 . S
C16 C17 1.391 . S
C17 H11 0.930 . S
C17 C13 1.429 . S
C17 C16 1.391 . S
H18 C21 0.931 . S
H19 C24 0.928 . S
H20 C26 0.930 . S
C21 H18 0.931 . S
C21 C22 1.413 . S
C21 C23 1.360 . S
C22 C21 1.413 . S
C22 C26 1.429 . S
C23 C21 1.360 . S
C23 C24 1.372 . S
C24 H19 0.928 . S
C24 C23 1.372 . S
C24 C25 1.404 . S
C25 C24 1.404 . S
C25 C26 1.391 . S
C26 H20 0.930 . S
C26 C22 1.429 . S
C26 C25 1.391 . S
H27 C30 0.931 . S
H28 C33 0.928 . S
H29 C35 0.930 . S
C30 H27 0.931 . S
C30 C31 1.413 . S
C30 C32 1.360 . S
C31 C30 1.413 . S
C31 C35 1.429 . S
C32 C30 1.360 . S
C32 C33 1.372 . S
C33 H28 0.928 . S
C33 C32 1.372 . S
C33 C34 1.404 . S
C34 C33 1.404 . S
C34 C35 1.391 . S
C35 H29 0.930 . S
C35 C31 1.429 . S
C35 C34 1.391 . S
H36 C39 0.931 . S
H37 C42 0.928 . S
H38 C44 0.930 . S
C39 H36 0.931 . S
C39 C40 1.413 . S
C39 C41 1.360 . S
C40 C39 1.413 . S
C40 C44 1.429 . S
C41 C39 1.360 . S
C41 C42 1.372 . S
C42 H37 0.928 . S
C42 C41 1.372 . S
C42 C43 1.404 . S
C43 C42 1.404 . S
C43 C44 1.391 . S
C44 H38 0.930 . S
C44 C40 1.429 . S
C44 C43 1.391 . S
H45 C48 0.931 . S
H46 C51 0.928 . S
H47 C53 0.930 . S
C48 H45 0.931 . S
C48 C49 1.413 . S
C48 C50 1.360 . S
C49 C48 1.413 . S
C49 C53 1.429 . S
C50 C48 1.360 . S
C50 C51 1.372 . S
C51 H46 0.928 . S
C51 C50 1.372 . S
C51 C52 1.404 . S
C52 C51 1.404 . S
C52 C53 1.391 . S
C53 H47 0.930 . S
C53 C49 1.429 . S
C53 C52 1.391 . S
H54 C57 0.931 . S
H55 C60 0.928 . S
H56 C62 0.930 . S
C57 H54 0.931 . S
C57 C58 1.413 . S
C57 C59 1.360 . S
C58 C57 1.413 . S
C58 C62 1.429 . S
C59 C57 1.360 . S
C59 C60 1.372 . S
C60 H55 0.928 . S
C60 C59 1.372 . S
C60 C61 1.404 . S
C61 C60 1.404 . S
C61 C62 1.391 . S
C62 H56 0.930 . S
C62 C58 1.429 . S
C62 C61 1.391 . S
H63 C66 0.931 . S
H64 C69 0.928 . S
H65 C71 0.930 . S
C66 H63 0.931 . S
C66 C67 1.413 . S
C66 C68 1.360 . S
C67 C66 1.413 . S
C67 C71 1.429 . S
C68 C66 1.360 . S
C68 C69 1.372 . S
C69 H64 0.928 . S
C69 C68 1.372 . S
C69 C70 1.404 . S
C70 C69 1.404 . S
C70 C71 1.391 . S
C71 H65 0.930 . S
C71 C67 1.429 . S
C71 C70 1.391 . S
O72 Mg73 1.990 . S
O72 C86 1.253 1_445 S
Mg73 O72 1.990 . S
Mg73 O76 2.180 . S
Mg73 O77 2.117 . S
Mg73 O91 2.030 1_545 S
O74 Mg75 2.072 1_665 S
O74 C86 1.260 . S
Mg75 O74 2.072 1_445 S
Mg75 O76 2.099 . S
Mg75 O78 2.079 . S
Mg75 O79 2.072 1_455 S
Mg75 O81 2.099 1_445 S
Mg75 O92 2.079 1_545 S
O76 Mg73 2.180 . S
O76 Mg75 2.099 . S
O76 C87 1.279 . S
O77 Mg73 2.117 . S
O77 C87 1.250 . S
O78 Mg75 2.079 . S
O78 C88 1.264 . S
O79 Mg75 2.072 1_655 S
O79 C89 1.260 . S
Mg80 O81 2.180 . S
Mg80 O82 2.030 1_565 S
Mg80 O83 1.990 1_565 S
Mg80 O84 2.117 . S
O81 Mg75 2.099 1_665 S
O81 Mg80 2.180 . S
O81 C90 1.279 . S
O82 Mg80 2.030 1_545 S
O82 C88 1.248 1_655 S
O83 Mg80 1.990 1_545 S
O83 C89 1.253 . S
O84 Mg80 2.117 . S
O84 C90 1.250 . S
C85 O91 1.248 . S
C85 O92 1.264 . S
C86 O72 1.253 1_665 S
C86 O74 1.260 . S
C87 O76 1.279 . S
C87 O77 1.250 . S
C88 O78 1.264 . S
C88 O82 1.248 1_455 S
C89 O79 1.260 . S
C89 O83 1.253 . S
C90 O81 1.279 . S
C90 O84 1.250 . S
O91 Mg73 2.030 1_565 S
O91 C85 1.248 . S
O92 Mg75 2.079 1_565 S
O92 C85 1.264 . S
O93 Mg94 1.990 . S
O93 C107 1.253 . S
Mg94 O93 1.990 . S
Mg94 O97 2.194 . S
Mg94 O98 2.117 1_554 S
Mg94 O112 2.030 . S
O95 Mg96 2.072 . S
O95 C107 1.260 . S
Mg96 O95 2.072 . S
Mg96 O97 2.102 . S
Mg96 O99 2.079 1_554 S
Mg96 O100 2.072 1_554 S
Mg96 O102 2.099 1_545 S
Mg96 O113 2.079 . S
O97 Mg94 2.194 . S
O97 Mg96 2.102 . S
O97 C108 1.266 1_554 S
O98 Mg94 2.117 1_556 S
O98 C108 1.250 . S
O99 Mg96 2.079 1_556 S
O99 C109 1.264 1_545 S
O100 Mg96 2.072 1_556 S
O100 C110 1.260 1_545 S
Mg101 O102 2.180 1_556 S
Mg101 O103 2.030 . S
Mg101 O104 1.990 . S
Mg101 O105 2.117 1_556 S
O102 Mg96 2.099 1_565 S
O102 Mg101 2.180 1_554 S
O102 C111 1.279 . S
O103 Mg101 2.030 . S
O103 C109 1.248 . S
O104 Mg101 1.990 . S
O104 C110 1.253 . S
O105 Mg101 2.117 1_554 S
O105 C111 1.250 . S
C106 O112 1.248 . S
C106 O113 1.264 . S
C107 O93 1.253 . S
C107 O95 1.260 . S
C108 O97 1.266 1_556 S
C108 O98 1.250 . S
C109 O99 1.264 1_565 S
C109 O103 1.248 . S
C110 O100 1.260 1_565 S
C110 O104 1.253 . S
C111 O102 1.279 . S
C111 O105 1.250 . S
O112 Mg94 2.030 . S
O112 C106 1.248 . S
O113 Mg96 2.079 . S
O113 C106 1.264 . S
O114 Mg115 1.990 . S
O114 C128 1.253 . S
Mg115 O114 1.990 . S
Mg115 O118 2.180 . S
Mg115 O119 2.117 . S
Mg115 O133 2.030 . S
O116 Mg117 2.072 . S
O116 C128 1.260 . S
Mg117 O116 2.072 . S
Mg117 O118 2.099 . S
Mg117 O120 2.079 . S
Mg117 O121 2.072 . S
Mg117 O123 2.099 . S
Mg117 O134 2.079 . S
O118 Mg115 2.180 . S
O118 Mg117 2.099 . S
O118 C129 1.279 . S
O119 Mg115 2.117 . S
O119 C129 1.250 . S
O120 Mg117 2.079 . S
O120 C130 1.264 . S
O121 Mg117 2.072 . S
O121 C131 1.260 . S
Mg122 O123 2.180 . S
Mg122 O124 2.030 . S
Mg122 O125 1.990 . S
Mg122 O126 2.117 . S
O123 Mg117 2.099 . S
O123 Mg122 2.180 . S
O123 C132 1.279 . S
O124 Mg122 2.030 . S
O124 C130 1.248 . S
O125 Mg122 1.990 . S
O125 C131 1.253 . S
O126 Mg122 2.117 . S
O126 C132 1.250 . S
C127 O133 1.248 . S
C127 O134 1.264 . S
C128 O114 1.253 . S
C128 O116 1.260 . S
C129 O118 1.279 . S
C129 O119 1.250 . S
C130 O120 1.264 . S
C130 O124 1.248 . S
C131 O121 1.260 . S
C131 O125 1.253 . S
C132 O123 1.279 . S
C132 O126 1.250 . S
O133 Mg115 2.030 . S
O133 C127 1.248 . S
O134 Mg117 2.079 . S
O134 C127 1.264 . S
O135 Mg136 1.990 . S
O135 C149 1.253 . S
Mg136 O135 1.990 . S
Mg136 O139 2.180 1_455 S
Mg136 O140 2.117 1_455 S
Mg136 O154 2.030 . S
O137 Mg138 2.072 . S
O137 C149 1.260 . S
Mg138 O137 2.072 . S
Mg138 O139 2.099 1_455 S
Mg138 O141 2.079 1_454 S
Mg138 O142 2.072 1_455 S
Mg138 O144 2.099 1_554 S
Mg138 O155 2.079 . S
O139 Mg136 2.180 1_655 S
O139 Mg138 2.099 1_655 S
O139 C150 1.279 . S
O140 Mg136 2.117 1_655 S
O140 C150 1.250 . S
O141 Mg138 2.079 1_656 S
O141 C151 1.264 . S
O142 Mg138 2.072 1_655 S
O142 C152 1.260 1_554 S
Mg143 O144 2.180 1_655 S
Mg143 O145 2.030 . S
Mg143 O146 1.990 . S
Mg143 O147 2.117 . S
O144 Mg138 2.099 1_556 S
O144 Mg143 2.180 1_455 S
O144 C153 1.279 . S
O145 Mg143 2.030 . S
O145 C151 1.248 . S
O146 Mg143 1.990 . S
O146 C152 1.253 . S
O147 Mg143 2.117 . S
O147 C153 1.250 1_655 S
C148 O154 1.248 . S
C148 O155 1.264 . S
C149 O135 1.253 . S
C149 O137 1.260 . S
C150 O139 1.279 . S
C150 O140 1.250 . S
C151 O141 1.264 . S
C151 O145 1.248 . S
C152 O142 1.260 1_556 S
C152 O146 1.253 . S
C153 O144 1.279 . S
C153 O147 1.250 1_455 S
O154 Mg136 2.030 . S
O154 C148 1.248 . S
O155 Mg138 2.079 . S
O155 C148 1.264 . S
H156 C164 0.929 . S
H157 C166 0.930 . S
H158 C168 0.930 . S
H159 C171 0.929 . S
H160 C174 0.930 . S
H161 C176 0.960 . S
H162 C176 0.960 . S
H163 C176 0.960 . S
C164 H156 0.929 . S
C164 C165 1.377 . S
C164 C166 1.384 . S
C165 C164 1.377 . S
C165 C171 1.390 . S
C166 H157 0.930 . S
C166 C164 1.384 . S
C166 C167 1.372 . S
C167 C166 1.372 . S
C167 C168 1.400 . S
C167 C172 1.490 . S
C168 H158 0.930 . S
C168 C167 1.400 . S
C168 C171 1.386 . S
H169 C185 0.930 . S
H170 C186 0.931 . S
C171 H159 0.929 . S
C171 C165 1.390 . S
C171 C168 1.386 . S
C172 C167 1.490 . S
C172 C174 1.395 . S
C172 C175 1.403 . S
H173 C179 0.930 . S
C174 H160 0.930 . S
C174 C172 1.395 . S
C174 C177 1.403 . S
C175 C172 1.403 . S
C175 C176 1.524 . S
C175 C179 1.400 . S
C176 H161 0.960 . S
C176 H162 0.960 . S
C176 H163 0.960 . S
C176 C175 1.524 . S
C177 C174 1.403 . S
C177 C178 1.392 . S
C177 C181 1.495 . S
C178 C177 1.392 . S
C178 C179 1.385 . S
C178 C180 1.478 . S
C179 H173 0.930 . S
C179 C175 1.400 . S
C179 C178 1.385 . S
C180 C178 1.478 . S
C180 C182 1.381 . S
C180 C186 1.383 . S
C181 C177 1.495 . S
C181 H187 0.959 . S
C181 H188 0.961 . S
C181 H189 0.960 . S
C182 C180 1.381 . S
C182 C183 1.394 . S
C182 H190 0.930 . S
C183 C182 1.394 . S
C183 C184 1.383 . S
C183 H191 0.926 1_545 S
C184 C183 1.383 . S
C184 C185 1.377 . S
C185 H169 0.930 . S
C185 C184 1.377 . S
C185 C186 1.379 . S
C186 H170 0.931 . S
C186 C180 1.383 . S
C186 C185 1.379 . S
H187 C181 0.959 . S
H188 C181 0.961 . S
H189 C181 0.960 . S
H190 C182 0.930 . S
H191 C183 0.926 1_565 S
H192 C200 0.929 . S
H193 C202 0.930 . S
H194 C204 0.930 . S
H195 C207 0.929 . S
H196 C210 0.930 . S
H197 C212 0.960 . S
H198 C212 0.960 . S
H199 C212 0.960 . S
C200 H192 0.929 . S
C200 C201 1.377 . S
C200 C202 1.384 . S
C201 C200 1.377 . S
C201 C207 1.390 . S
C202 H193 0.930 . S
C202 C200 1.384 . S
C202 C203 1.372 . S
C203 C202 1.372 . S
C203 C204 1.400 . S
C203 C208 1.490 . S
C204 H194 0.930 . S
C204 C203 1.400 . S
C204 C207 1.386 . S
H205 C221 0.930 . S
H206 C222 0.931 . S
C207 H195 0.929 . S
C207 C201 1.390 . S
C207 C204 1.386 . S
C208 C203 1.490 . S
C208 C210 1.395 . S
C208 C211 1.403 . S
H209 C215 0.930 . S
C210 H196 0.930 . S
C210 C208 1.395 . S
C210 C213 1.403 . S
C211 C208 1.403 . S
C211 C212 1.524 . S
C211 C215 1.400 . S
C212 H197 0.960 . S
C212 H198 0.960 . S
C212 H199 0.960 . S
C212 C211 1.524 . S
C213 C210 1.403 . S
C213 C214 1.392 . S
C213 C217 1.495 . S
C214 C213 1.392 . S
C214 C215 1.385 . S
C214 C216 1.478 . S
C215 H209 0.930 . S
C215 C211 1.400 . S
C215 C214 1.385 . S
C216 C214 1.478 . S
C216 C218 1.381 . S
C216 C222 1.383 . S
C217 C213 1.495 . S
C217 H223 0.959 . S
C217 H224 0.961 . S
C217 H225 0.960 . S
C218 C216 1.381 . S
C218 C219 1.394 . S
C218 H226 0.930 . S
C219 C218 1.394 . S
C219 C220 1.383 . S
C219 H227 0.929 . S
C220 C219 1.383 . S
C220 C221 1.377 . S
C221 H205 0.930 . S
C221 C220 1.377 . S
C221 C222 1.379 . S
C222 H206 0.931 . S
C222 C216 1.383 . S
C222 C221 1.379 . S
H223 C217 0.959 . S
H224 C217 0.961 . S
H225 C217 0.960 . S
H226 C218 0.930 . S
H227 C219 0.929 . S
H228 C236 0.929 . S
H229 C238 0.930 . S
H230 C240 0.930 . S
H231 C243 0.929 . S
H232 C246 0.930 . S
H233 C248 0.960 . S
H234 C248 0.960 . S
H235 C248 0.960 . S
C236 H228 0.929 . S
C236 C237 1.377 . S
C236 C238 1.384 . S
C237 C236 1.377 . S
C237 C243 1.390 . S
C238 H229 0.930 . S
C238 C236 1.384 . S
C238 C239 1.372 . S
C239 C238 1.372 . S
C239 C240 1.400 . S
C239 C244 1.490 . S
C240 H230 0.930 . S
C240 C239 1.400 . S
C240 C243 1.386 . S
H241 C257 0.930 . S
H242 C258 0.931 . S
C243 H231 0.929 . S
C243 C237 1.390 . S
C243 C240 1.386 . S
C244 C239 1.490 . S
C244 C246 1.395 . S
C244 C247 1.403 . S
H245 C251 0.930 . S
C246 H232 0.930 . S
C246 C244 1.395 . S
C246 C249 1.403 . S
C247 C244 1.403 . S
C247 C248 1.524 . S
C247 C251 1.400 . S
C248 H233 0.960 . S
C248 H234 0.960 . S
C248 H235 0.960 . S
C248 C247 1.524 . S
C249 C246 1.403 . S
C249 C250 1.392 . S
C249 C253 1.495 . S
C250 C249 1.392 . S
C250 C251 1.385 . S
C250 C252 1.478 . S
C251 H245 0.930 . S
C251 C247 1.400 . S
C251 C250 1.385 . S
C252 C250 1.478 . S
C252 C254 1.381 . S
C252 C258 1.383 . S
C253 C249 1.495 . S
C253 H259 0.959 . S
C253 H260 0.961 . S
C253 H261 0.960 . S
C254 C252 1.381 . S
C254 C255 1.394 . S
C254 H262 0.930 . S
C255 C254 1.394 . S
C255 C256 1.383 . S
C255 H263 0.929 . S
C256 C255 1.383 . S
C256 C257 1.377 . S
C257 H241 0.930 . S
C257 C256 1.377 . S
C257 C258 1.379 . S
C258 H242 0.931 . S
C258 C252 1.383 . S
C258 C257 1.379 . S
H259 C253 0.959 . S
H260 C253 0.961 . S
H261 C253 0.960 . S
H262 C254 0.930 . S
H263 C255 0.929 . S
H264 C272 0.929 . S
H265 C274 0.930 . S
H266 C276 0.930 . S
H267 C279 0.929 . S
H268 C282 0.930 . S
H269 C284 0.960 . S
H270 C284 0.960 . S
H271 C284 0.960 . S
C272 H264 0.929 . S
C272 C273 1.377 . S
C272 C274 1.384 . S
C273 C272 1.377 . S
C273 C279 1.390 . S
C274 H265 0.930 . S
C274 C272 1.384 . S
C274 C275 1.372 . S
C275 C274 1.372 . S
C275 C276 1.400 . S
C275 C280 1.490 . S
C276 H266 0.930 . S
C276 C275 1.400 . S
C276 C279 1.386 . S
H277 C293 0.930 . S
H278 C294 0.931 . S
C279 H267 0.929 . S
C279 C273 1.390 . S
C279 C276 1.386 . S
C280 C275 1.490 . S
C280 C282 1.395 . S
C280 C283 1.403 . S
H281 C287 0.930 . S
C282 H268 0.930 . S
C282 C280 1.395 . S
C282 C285 1.403 . S
C283 C280 1.403 . S
C283 C284 1.524 . S
C283 C287 1.400 . S
C284 H269 0.960 . S
C284 H270 0.960 . S
C284 H271 0.960 . S
C284 C283 1.524 . S
C285 C282 1.403 . S
C285 C286 1.392 . S
C285 C289 1.495 . S
C286 C285 1.392 . S
C286 C287 1.385 . S
C286 C288 1.478 . S
C287 H281 0.930 . S
C287 C283 1.400 . S
C287 C286 1.385 . S
C288 C286 1.478 . S
C288 C290 1.381 . S
C288 C294 1.383 . S
C289 C285 1.495 . S
C289 H295 0.959 . S
C289 H296 0.961 . S
C289 H297 0.960 . S
C290 C288 1.381 . S
C290 C291 1.394 . S
C290 H298 0.930 . S
C291 C290 1.394 . S
C291 C292 1.383 . S
C291 H299 0.929 . S
C292 C291 1.383 . S
C292 C293 1.377 . S
C293 H277 0.930 . S
C293 C292 1.377 . S
C293 C294 1.379 . S
C294 H278 0.931 . S
C294 C288 1.383 . S
C294 C293 1.379 . S
H295 C289 0.959 . S
H296 C289 0.961 . S
H297 C289 0.960 . S
H298 C290 0.930 . S
H299 C291 0.929 . S
H300 C308 0.929 . S
H301 C310 0.930 . S
H302 C312 0.930 . S
H303 C315 0.929 . S
H304 C318 0.930 . S
H305 C320 0.960 . S
H306 C320 0.960 . S
H307 C320 0.960 . S
C308 H300 0.929 . S
C308 C309 1.377 . S
C308 C310 1.384 . S
C309 C308 1.377 . S
C309 C315 1.390 . S
C310 H301 0.930 . S
C310 C308 1.384 . S
C310 C311 1.372 . S
C311 C310 1.372 . S
C311 C312 1.400 . S
C311 C316 1.490 . S
C312 H302 0.930 . S
C312 C311 1.400 . S
C312 C315 1.386 . S
H313 C329 0.930 . S
H314 C330 0.931 . S
C315 H303 0.929 . S
C315 C309 1.390 . S
C315 C312 1.386 . S
C316 C311 1.490 . S
C316 C318 1.395 . S
C316 C319 1.403 . S
H317 C323 0.930 . S
C318 H304 0.930 . S
C318 C316 1.395 . S
C318 C321 1.403 . S
C319 C316 1.403 . S
C319 C320 1.524 . S
C319 C323 1.400 . S
C320 H305 0.960 . S
C320 H306 0.960 . S
C320 H307 0.960 . S
C320 C319 1.524 . S
C321 C318 1.403 . S
C321 C322 1.392 . S
C321 C325 1.495 . S
C322 C321 1.392 . S
C322 C323 1.385 . S
C322 C324 1.478 . S
C323 H317 0.930 . S
C323 C319 1.400 . S
C323 C322 1.385 . S
C324 C322 1.478 . S
C324 C326 1.381 . S
C324 C330 1.383 . S
C325 C321 1.495 . S
C325 H331 0.959 . S
C325 H332 0.961 . S
C325 H333 0.960 . S
C326 C324 1.381 . S
C326 C327 1.394 . S
C326 H334 0.930 . S
C327 C326 1.394 . S
C327 C328 1.383 . S
C327 H335 0.929 . S
C328 C327 1.383 . S
C328 C329 1.377 . S
C329 H313 0.930 . S
C329 C328 1.377 . S
C329 C330 1.379 . S
C330 H314 0.931 . S
C330 C324 1.383 . S
C330 C329 1.379 . S
H331 C325 0.959 . S
H332 C325 0.961 . S
H333 C325 0.960 . S
H334 C326 0.930 . S
H335 C327 0.929 . S
H336 C344 0.929 . S
H337 C346 0.930 . S
H338 C348 0.930 . S
H339 C351 0.929 . S
H340 C354 0.930 . S
H341 C356 0.960 . S
H342 C356 0.960 . S
H343 C356 0.960 . S
C344 H336 0.929 . S
C344 C345 1.377 . S
C344 C346 1.384 . S
C345 C344 1.377 . S
C345 C351 1.390 . S
C346 H337 0.930 . S
C346 C344 1.384 . S
C346 C347 1.372 . S
C347 C346 1.372 . S
C347 C348 1.400 . S
C347 C352 1.490 . S
C348 H338 0.930 . S
C348 C347 1.400 . S
C348 C351 1.386 . S
H349 C365 0.930 . S
H350 C366 0.931 . S
C351 H339 0.929 . S
C351 C345 1.390 . S
C351 C348 1.386 . S
C352 C347 1.490 . S
C352 C354 1.395 . S
C352 C355 1.403 . S
H353 C359 0.930 . S
C354 H340 0.930 . S
C354 C352 1.395 . S
C354 C357 1.403 . S
C355 C352 1.403 . S
C355 C356 1.524 . S
C355 C359 1.400 . S
C356 H341 0.960 . S
C356 H342 0.960 . S
C356 H343 0.960 . S
C356 C355 1.524 . S
C357 C354 1.403 . S
C357 C358 1.392 . S
C357 C361 1.495 . S
C358 C357 1.392 . S
C358 C359 1.385 . S
C358 C360 1.478 . S
C359 H353 0.930 . S
C359 C355 1.400 . S
C359 C358 1.385 . S
C360 C358 1.478 . S
C360 C362 1.381 . S
C360 C366 1.383 . S
C361 C357 1.495 . S
C361 H367 0.959 . S
C361 H368 0.961 . S
C361 H369 0.960 . S
C362 C360 1.381 . S
C362 C363 1.394 . S
C362 H370 0.930 . S
C363 C362 1.394 . S
C363 C364 1.383 . S
C363 H371 0.929 . S
C364 C363 1.383 . S
C364 C365 1.377 . S
C365 H349 0.930 . S
C365 C364 1.377 . S
C365 C366 1.379 . S
C366 H350 0.931 . S
C366 C360 1.383 . S
C366 C365 1.379 . S
H367 C361 0.959 . S
H368 C361 0.961 . S
H369 C361 0.960 . S
H370 C362 0.930 . S
H371 C363 0.929 . S
H372 C380 0.929 . S
H373 C382 0.930 . S
H374 C384 0.930 . S
H375 C387 0.929 . S
H376 C390 0.930 . S
H377 C392 0.960 . S
H378 C392 0.960 . S
H379 C392 0.960 . S
C380 H372 0.929 . S
C380 C381 1.377 . S
C380 C382 1.384 . S
C381 C380 1.377 . S
C381 C387 1.390 . S
C382 H373 0.930 . S
C382 C380 1.384 . S
C382 C383 1.372 . S
C383 C382 1.372 . S
C383 C384 1.400 . S
C383 C388 1.490 . S
C384 H374 0.930 . S
C384 C383 1.400 . S
C384 C387 1.386 . S
H385 C401 0.930 . S
H386 C402 0.931 . S
C387 H375 0.929 . S
C387 C381 1.390 . S
C387 C384 1.386 . S
C388 C383 1.490 . S
C388 C390 1.395 . S
C388 C391 1.403 . S
H389 C395 0.930 . S
C390 H376 0.930 . S
C390 C388 1.395 . S
C390 C393 1.403 . S
C391 C388 1.403 . S
C391 C392 1.524 . S
C391 C395 1.400 . S
C392 H377 0.960 . S
C392 H378 0.960 . S
C392 H379 0.960 . S
C392 C391 1.524 . S
C393 C390 1.403 . S
C393 C394 1.392 . S
C393 C397 1.495 . S
C394 C393 1.392 . S
C394 C395 1.385 . S
C394 C396 1.478 . S
C395 H389 0.930 . S
C395 C391 1.400 . S
C395 C394 1.385 . S
C396 C394 1.478 . S
C396 C398 1.381 . S
C396 C402 1.383 . S
C397 C393 1.495 . S
C397 H403 0.959 . S
C397 H404 0.961 . S
C397 H405 0.960 . S
C398 C396 1.381 . S
C398 C399 1.394 . S
C398 H406 0.930 . S
C399 C398 1.394 . S
C399 C400 1.383 . S
C399 H407 0.929 . S
C400 C399 1.383 . S
C400 C401 1.377 . S
C401 H385 0.930 . S
C401 C400 1.377 . S
C401 C402 1.379 . S
C402 H386 0.931 . S
C402 C396 1.383 . S
C402 C401 1.379 . S
H403 C397 0.959 . S
H404 C397 0.961 . S
H405 C397 0.960 . S
H406 C398 0.930 . S
H407 C399 0.929 . S
H408 C416 0.929 . S
H409 C418 0.930 . S
H410 C420 0.930 . S
H411 C423 0.929 . S
H412 C426 0.930 . S
H413 C428 0.960 . S
H414 C428 0.960 . S
H415 C428 0.960 . S
C416 H408 0.929 . S
C416 C417 1.377 . S
C416 C418 1.384 . S
C417 C416 1.377 . S
C417 C423 1.390 . S
C418 H409 0.930 . S
C418 C416 1.384 . S
C418 C419 1.372 . S
C419 C418 1.372 . S
C419 C420 1.400 . S
C419 C424 1.490 . S
C420 H410 0.930 . S
C420 C419 1.400 . S
C420 C423 1.386 . S
H421 C437 0.930 . S
H422 C438 0.931 . S
C423 H411 0.929 . S
C423 C417 1.390 . S
C423 C420 1.386 . S
C424 C419 1.490 . S
C424 C426 1.395 . S
C424 C427 1.403 . S
H425 C431 0.930 . S
C426 H412 0.930 . S
C426 C424 1.395 . S
C426 C429 1.403 . S
C427 C424 1.403 . S
C427 C428 1.524 . S
C427 C431 1.400 . S
C428 H413 0.960 . S
C428 H414 0.960 . S
C428 H415 0.960 . S
C428 C427 1.524 . S
C429 C426 1.403 . S
C429 C430 1.392 . S
C429 C433 1.495 . S
C430 C429 1.392 . S
C430 C431 1.385 . S
C430 C432 1.478 . S
C431 H425 0.930 . S
C431 C427 1.400 . S
C431 C430 1.385 . S
C432 C430 1.478 . S
C432 C434 1.381 . S
C432 C438 1.383 . S
C433 C429 1.495 . S
C433 H439 0.959 . S
C433 H440 0.961 . S
C433 H441 0.960 . S
C434 C432 1.381 . S
C434 C435 1.394 . S
C434 H442 0.930 . S
C435 C434 1.394 . S
C435 C436 1.383 . S
C435 H443 0.929 . S
C436 C435 1.383 . S
C436 C437 1.377 . S
C437 H421 0.930 . S
C437 C436 1.377 . S
C437 C438 1.379 . S
C438 H422 0.931 . S
C438 C432 1.383 . S
C438 C437 1.379 . S
H439 C433 0.959 . S
H440 C433 0.961 . S
H441 C433 0.960 . S
H442 C434 0.930 . S
H443 C435 0.929 . S
H444 C452 0.929 . S
H445 C454 0.930 . S
H446 C456 0.930 . S
H447 C459 0.929 . S
H448 C462 0.930 . S
H449 C464 0.960 . S
H450 C464 0.960 . S
H451 C464 0.960 . S
C452 H444 0.929 . S
C452 C453 1.377 . S
C452 C454 1.384 . S
C453 C452 1.377 . S
C453 C459 1.390 . S
C454 H445 0.930 . S
C454 C452 1.384 . S
C454 C455 1.372 . S
C455 C454 1.372 . S
C455 C456 1.400 . S
C455 C460 1.490 . S
C456 H446 0.930 . S
C456 C455 1.400 . S
C456 C459 1.386 . S
H457 C473 0.930 1_655 S
H458 C474 0.931 . S
C459 H447 0.929 . S
C459 C453 1.390 . S
C459 C456 1.386 . S
C460 C455 1.490 . S
C460 C462 1.395 . S
C460 C463 1.403 . S
H461 C467 0.930 . S
C462 H448 0.930 . S
C462 C460 1.395 . S
C462 C465 1.403 . S
C463 C460 1.403 . S
C463 C464 1.524 . S
C463 C467 1.400 . S
C464 H449 0.960 . S
C464 H450 0.960 . S
C464 H451 0.960 . S
C464 C463 1.524 . S
C465 C462 1.403 . S
C465 C466 1.392 . S
C465 C469 1.495 . S
C466 C465 1.392 . S
C466 C467 1.385 . S
C466 C468 1.478 . S
C467 H461 0.930 . S
C467 C463 1.400 . S
C467 C466 1.385 . S
C468 C466 1.478 . S
C468 C470 1.381 . S
C468 C474 1.383 . S
C469 C465 1.495 . S
C469 H475 0.966 . S
C469 H476 0.961 1_554 S
C469 H477 0.960 . S
C470 C468 1.381 . S
C470 C471 1.394 . S
C470 H478 0.930 . S
C471 C470 1.394 . S
C471 C472 1.383 . S
C471 H479 0.929 . S
C472 C471 1.383 . S
C472 C473 1.377 . S
C473 H457 0.930 1_455 S
C473 C472 1.377 . S
C473 C474 1.379 . S
C474 H458 0.931 . S
C474 C468 1.383 . S
C474 C473 1.379 . S
H475 C469 0.966 . S
H476 C469 0.961 1_556 S
H477 C469 0.960 . S
H478 C470 0.930 . S
H479 C471 0.929 . S
H480 C488 0.929 . S
H481 C490 0.930 . S
H482 C492 0.930 . S
H483 C495 0.929 . S
H484 C498 0.930 . S
H485 C500 0.960 . S
H486 C500 0.960 . S
H487 C500 0.960 . S
C488 H480 0.929 . S
C488 C489 1.377 . S
C488 C490 1.384 . S
C489 C488 1.377 . S
C489 C495 1.390 . S
C490 H481 0.930 . S
C490 C488 1.384 . S
C490 C491 1.372 . S
C491 C490 1.372 . S
C491 C492 1.400 . S
C491 C496 1.490 . S
C492 H482 0.930 . S
C492 C491 1.400 . S
C492 C495 1.386 . S
H493 C509 0.930 . S
H494 C510 0.931 . S
C495 H483 0.929 . S
C495 C489 1.390 . S
C495 C492 1.386 . S
C496 C491 1.490 . S
C496 C498 1.395 . S
C496 C499 1.403 . S
H497 C503 0.930 . S
C498 H484 0.930 . S
C498 C496 1.395 . S
C498 C501 1.403 . S
C499 C496 1.403 . S
C499 C500 1.524 . S
C499 C503 1.400 . S
C500 H485 0.960 . S
C500 H486 0.960 . S
C500 H487 0.960 . S
C500 C499 1.524 . S
C501 C498 1.403 . S
C501 C502 1.392 . S
C501 C505 1.495 . S
C502 C501 1.392 . S
C502 C503 1.385 . S
C502 C504 1.478 . S
C503 H497 0.930 . S
C503 C499 1.400 . S
C503 C502 1.385 . S
C504 C502 1.478 . S
C504 C506 1.381 . S
C504 C510 1.383 . S
C505 C501 1.495 . S
C505 H511 0.959 . S
C505 H512 0.961 . S
C505 H513 0.960 . S
C506 C504 1.381 . S
C506 C507 1.394 . S
C506 H514 0.930 . S
C507 C506 1.394 . S
C507 C508 1.383 . S
C507 H515 0.929 1_556 S
C508 C507 1.383 . S
C508 C509 1.377 . S
C509 H493 0.930 . S
C509 C508 1.377 . S
C509 C510 1.379 . S
C510 H494 0.931 . S
C510 C504 1.383 . S
C510 C509 1.379 . S
H511 C505 0.959 . S
H512 C505 0.961 . S
H513 C505 0.960 . S
H514 C506 0.930 . S
H515 C507 0.929 1_554 S
H516 C524 0.929 . S
H517 C526 0.930 . S
H518 C528 0.930 . S
H519 C531 0.929 . S
H520 C534 0.930 . S
H521 C536 0.960 . S
H522 C536 0.960 . S
H523 C536 0.960 . S
C524 H516 0.929 . S
C524 C525 1.377 . S
C524 C526 1.384 . S
C525 C524 1.377 . S
C525 C531 1.390 . S
C526 H517 0.930 . S
C526 C524 1.384 . S
C526 C527 1.372 . S
C527 C526 1.372 . S
C527 C528 1.400 . S
C527 C532 1.490 . S
C528 H518 0.930 . S
C528 C527 1.400 . S
C528 C531 1.386 . S
H529 C545 0.930 . S
H530 C546 0.931 . S
C531 H519 0.929 . S
C531 C525 1.390 . S
C531 C528 1.386 . S
C532 C527 1.490 . S
C532 C534 1.395 . S
C532 C535 1.403 . S
H533 C539 0.930 . S
C534 H520 0.930 . S
C534 C532 1.395 . S
C534 C537 1.403 . S
C535 C532 1.403 . S
C535 C536 1.524 . S
C535 C539 1.400 . S
C536 H521 0.960 . S
C536 H522 0.960 . S
C536 H523 0.960 . S
C536 C535 1.524 . S
C537 C534 1.403 . S
C537 C538 1.392 . S
C537 C541 1.495 . S
C538 C537 1.392 . S
C538 C539 1.385 . S
C538 C540 1.478 . S
C539 H533 0.930 . S
C539 C535 1.400 . S
C539 C538 1.385 . S
C540 C538 1.478 . S
C540 C542 1.381 . S
C540 C546 1.383 . S
C541 C537 1.495 . S
C541 H547 0.959 . S
C541 H548 0.961 . S
C541 H549 0.960 . S
C542 C540 1.381 . S
C542 C543 1.394 . S
C542 H550 0.930 . S
C543 C542 1.394 . S
C543 C544 1.383 . S
C543 H551 0.929 1_655 S
C544 C543 1.383 . S
C544 C545 1.377 . S
C545 H529 0.930 . S
C545 C544 1.377 . S
C545 C546 1.379 . S
C546 H530 0.931 . S
C546 C540 1.383 . S
C546 C545 1.379 . S
H547 C541 0.959 . S
H548 C541 0.961 . S
H549 C541 0.960 . S
H550 C542 0.930 . S
H551 C543 0.929 1_455 S
H552 C560 0.929 . S
H553 C562 0.930 . S
H554 C564 0.930 . S
H555 C567 0.929 . S
H556 C570 0.930 . S
H557 C572 0.960 . S
H558 C572 0.960 . S
H559 C572 0.960 . S
C560 H552 0.929 . S
C560 C561 1.377 . S
C560 C562 1.384 . S
C561 C560 1.377 . S
C561 C567 1.390 . S
C562 H553 0.930 . S
C562 C560 1.384 . S
C562 C563 1.372 . S
C563 C562 1.372 . S
C563 C564 1.400 . S
C563 C568 1.490 . S
C564 H554 0.930 . S
C564 C563 1.400 . S
C564 C567 1.386 . S
H565 C581 0.930 . S
H566 C582 0.931 . S
C567 H555 0.929 . S
C567 C561 1.390 . S
C567 C564 1.386 . S
C568 C563 1.490 . S
C568 C570 1.395 . S
C568 C571 1.403 . S
H569 C575 0.930 . S
C570 H556 0.930 . S
C570 C568 1.395 . S
C570 C573 1.403 . S
C571 C568 1.403 . S
C571 C572 1.524 . S
C571 C575 1.400 . S
C572 H557 0.960 . S
C572 H558 0.960 . S
C572 H559 0.960 . S
C572 C571 1.524 . S
C573 C570 1.403 . S
C573 C574 1.392 . S
C573 C577 1.495 . S
C574 C573 1.392 . S
C574 C575 1.385 . S
C574 C576 1.478 . S
C575 H569 0.930 . S
C575 C571 1.400 . S
C575 C574 1.385 . S
C576 C574 1.478 . S
C576 C578 1.381 . S
C576 C582 1.383 . S
C577 C573 1.495 . S
C577 H583 0.959 . S
C577 H584 0.961 . S
C577 H585 0.960 . S
C578 C576 1.381 . S
C578 C579 1.394 . S
C578 H586 0.930 . S
C579 C578 1.394 . S
C579 C580 1.383 . S
C579 H587 0.929 . S
C580 C579 1.383 . S
C580 C581 1.377 . S
C581 H565 0.930 . S
C581 C580 1.377 . S
C581 C582 1.379 . S
C582 H566 0.931 . S
C582 C576 1.383 . S
C582 C581 1.379 . S
H583 C577 0.959 . S
H584 C577 0.961 . S
H585 C577 0.960 . S
H586 C578 0.930 . S
H587 C579 0.929 . S
H588 C596 0.929 . S
H589 C598 0.930 . S
H590 C600 0.930 . S
H591 C603 0.929 . S
H592 C606 0.930 . S
H593 C608 0.960 . S
H594 C608 0.960 . S
H595 C608 0.960 . S
C596 H588 0.929 . S
C596 C597 1.377 . S
C596 C598 1.384 . S
C597 C596 1.377 . S
C597 C603 1.390 . S
C598 H589 0.930 . S
C598 C596 1.384 . S
C598 C599 1.372 . S
C599 C598 1.372 . S
C599 C600 1.400 . S
C599 C604 1.490 . S
C600 H590 0.930 . S
C600 C599 1.400 . S
C600 C603 1.386 . S
H601 C617 0.930 1_455 S
H602 C618 0.931 . S
C603 H591 0.929 . S
C603 C597 1.390 . S
C603 C600 1.386 . S
C604 C599 1.490 . S
C604 C606 1.395 . S
C604 C607 1.403 . S
H605 C611 0.930 . S
C606 H592 0.930 . S
C606 C604 1.395 . S
C606 C609 1.403 . S
C607 C604 1.403 . S
C607 C608 1.524 . S
C607 C611 1.400 . S
C608 H593 0.960 . S
C608 H594 0.960 . S
C608 H595 0.960 . S
C608 C607 1.524 . S
C609 C606 1.403 . S
C609 C610 1.392 . S
C609 C613 1.495 1_565 S
C610 C609 1.392 . S
C610 C611 1.385 . S
C610 C612 1.478 . S
C611 H605 0.930 . S
C611 C607 1.400 . S
C611 C610 1.385 . S
C612 C610 1.478 . S
C612 C614 1.381 . S
C612 C618 1.383 . S
C613 C609 1.495 1_545 S
C613 H619 0.959 . S
C613 H620 0.961 . S
C613 H621 0.960 . S
C614 C612 1.381 . S
C614 C615 1.394 . S
C614 H622 0.930 . S
C615 C614 1.394 . S
C615 C616 1.383 . S
C615 H623 0.929 . S
C616 C615 1.383 . S
C616 C617 1.377 . S
C617 H601 0.930 1_655 S
C617 C616 1.377 . S
C617 C618 1.379 . S
C618 H602 0.931 . S
C618 C612 1.383 . S
C618 C617 1.379 . S
H619 C613 0.959 . S
H620 C613 0.961 . S
H621 C613 0.960 . S
H622 C614 0.930 . S
H623 C615 0.929 . S
H624 C632 0.929 . S
H625 C634 0.930 . S
H626 C636 0.930 . S
H627 C639 0.929 . S
H628 C642 0.930 . S
H629 C644 0.960 . S
H630 C644 0.960 . S
H631 C644 0.960 . S
C632 H624 0.929 . S
C632 C633 1.377 . S
C632 C634 1.384 . S
C633 C632 1.377 . S
C633 C639 1.390 . S
C634 H625 0.930 . S
C634 C632 1.384 . S
C634 C635 1.372 . S
C635 C634 1.372 . S
C635 C636 1.400 . S
C635 C640 1.490 . S
C636 H626 0.930 . S
C636 C635 1.400 . S
C636 C639 1.386 . S
H637 C653 0.930 . S
H638 C654 0.931 . S
C639 H627 0.929 . S
C639 C633 1.390 . S
C639 C636 1.386 . S
C640 C635 1.490 . S
C640 C642 1.395 . S
C640 C643 1.403 . S
H641 C647 0.930 . S
C642 H628 0.930 . S
C642 C640 1.395 . S
C642 C645 1.403 . S
C643 C640 1.403 . S
C643 C644 1.524 . S
C643 C647 1.400 . S
C644 H629 0.960 . S
C644 H630 0.960 . S
C644 H631 0.960 . S
C644 C643 1.524 . S
C645 C642 1.403 . S
C645 C646 1.392 . S
C645 C649 1.495 . S
C646 C645 1.392 . S
C646 C647 1.385 . S
C646 C648 1.478 . S
C647 H641 0.930 . S
C647 C643 1.400 . S
C647 C646 1.385 . S
C648 C646 1.478 . S
C648 C650 1.381 . S
C648 C654 1.383 . S
C649 C645 1.495 . S
C649 H655 0.959 . S
C649 H656 0.961 . S
C649 H657 0.960 . S
C650 C648 1.381 . S
C650 C651 1.394 . S
C650 H658 0.930 . S
C651 C650 1.394 . S
C651 C652 1.383 . S
C651 H659 0.929 . S
C652 C651 1.383 . S
C652 C653 1.377 . S
C653 H637 0.930 . S
C653 C652 1.377 . S
C653 C654 1.379 . S
C654 H638 0.931 . S
C654 C648 1.383 . S
C654 C653 1.379 . S
H655 C649 0.959 . S
H656 C649 0.961 . S
H657 C649 0.960 . S
H658 C650 0.930 . S
H659 C651 0.929 . S
H660 C668 0.929 . S
H661 C670 0.930 . S
H662 C672 0.930 . S
H663 C675 0.929 . S
H664 C678 0.930 . S
H665 C680 0.960 . S
H666 C680 0.960 . S
H667 C680 0.960 . S
C668 H660 0.929 . S
C668 C669 1.377 . S
C668 C670 1.384 . S
C669 C668 1.377 . S
C669 C675 1.390 . S
C670 H661 0.930 . S
C670 C668 1.384 . S
C670 C671 1.372 . S
C671 C670 1.372 . S
C671 C672 1.400 . S
C671 C676 1.490 . S
C672 H662 0.930 . S
C672 C671 1.400 . S
C672 C675 1.386 . S
H673 C689 0.930 . S
H674 C690 0.931 . S
C675 H663 0.929 . S
C675 C669 1.390 . S
C675 C672 1.386 . S
C676 C671 1.490 . S
C676 C678 1.395 . S
C676 C679 1.403 . S
H677 C683 0.930 . S
C678 H664 0.930 . S
C678 C676 1.395 . S
C678 C681 1.403 . S
C679 C676 1.403 . S
C679 C680 1.524 . S
C679 C683 1.400 . S
C680 H665 0.960 . S
C680 H666 0.960 . S
C680 H667 0.960 . S
C680 C679 1.524 . S
C681 C678 1.403 . S
C681 C682 1.392 . S
C681 C685 1.495 . S
C682 C681 1.392 . S
C682 C683 1.385 . S
C682 C684 1.478 . S
C683 H677 0.930 . S
C683 C679 1.400 . S
C683 C682 1.385 . S
C684 C682 1.478 . S
C684 C686 1.381 . S
C684 C690 1.383 . S
C685 C681 1.495 . S
C685 H691 0.959 . S
C685 H692 0.961 . S
C685 H693 0.960 . S
C686 C684 1.381 . S
C686 C687 1.394 . S
C686 H694 0.930 . S
C687 C686 1.394 . S
C687 C688 1.383 . S
C687 H695 0.929 . S
C688 C687 1.383 . S
C688 C689 1.377 . S
C689 H673 0.930 . S
C689 C688 1.377 . S
C689 C690 1.379 . S
C690 H674 0.931 . S
C690 C684 1.383 . S
C690 C689 1.379 . S
H691 C685 0.959 . S
H692 C685 0.961 . S
H693 C685 0.960 . S
H694 C686 0.930 . S
H695 C687 0.929 . S
H696 C704 0.929 . S
H697 C706 0.930 . S
H698 C708 0.930 . S
H699 C711 0.929 . S
H700 C714 0.930 . S
H701 C716 0.960 . S
H702 C716 0.960 . S
H703 C716 0.960 . S
C704 H696 0.929 . S
C704 C705 1.377 . S
C704 C706 1.384 . S
C705 C704 1.377 . S
C705 C711 1.390 . S
C706 H697 0.930 . S
C706 C704 1.384 . S
C706 C707 1.372 . S
C707 C706 1.372 . S
C707 C708 1.400 . S
C707 C712 1.490 . S
C708 H698 0.930 . S
C708 C707 1.400 . S
C708 C711 1.386 . S
H709 C725 0.930 . S
H710 C726 0.931 . S
C711 H699 0.929 . S
C711 C705 1.390 . S
C711 C708 1.386 . S
C712 C707 1.490 . S
C712 C714 1.395 . S
C712 C715 1.403 . S
H713 C719 0.930 . S
C714 H700 0.930 . S
C714 C712 1.395 . S
C714 C717 1.403 . S
C715 C712 1.403 . S
C715 C716 1.524 . S
C715 C719 1.400 . S
C716 H701 0.960 . S
C716 H702 0.960 . S
C716 H703 0.960 . S
C716 C715 1.524 . S
C717 C714 1.403 . S
C717 C718 1.392 . S
C717 C721 1.496 . S
C718 C717 1.392 . S
C718 C719 1.385 . S
C718 C720 1.478 . S
C719 H713 0.930 . S
C719 C715 1.400 . S
C719 C718 1.385 . S
C720 C718 1.478 . S
C720 C722 1.381 . S
C720 C726 1.383 . S
C721 C717 1.496 . S
C721 H727 0.959 1_455 S
C721 H728 0.961 1_455 S
C721 H729 0.959 1_455 S
C722 C720 1.381 . S
C722 C723 1.394 . S
C722 H730 0.930 . S
C723 C722 1.394 . S
C723 C724 1.383 . S
C723 H731 0.929 . S
C724 C723 1.383 . S
C724 C725 1.377 . S
C725 H709 0.930 . S
C725 C724 1.377 . S
C725 C726 1.379 . S
C726 H710 0.931 . S
C726 C720 1.383 . S
C726 C725 1.379 . S
H727 C721 0.959 1_655 S
H728 C721 0.961 1_655 S
H729 C721 0.959 1_655 S
H730 C722 0.930 . S
H731 C723 0.929 . S
H732 C740 0.929 . S
H733 C742 0.930 . S
H734 C744 0.930 . S
H735 C747 0.929 . S
H736 C750 0.930 . S
H737 C752 0.960 . S
H738 C752 0.960 . S
H739 C752 0.960 . S
C740 H732 0.929 . S
C740 C741 1.377 . S
C740 C742 1.384 . S
C741 C740 1.377 . S
C741 C747 1.390 . S
C742 H733 0.930 . S
C742 C740 1.384 . S
C742 C743 1.372 . S
C743 C742 1.372 . S
C743 C744 1.400 . S
C743 C748 1.490 . S
C744 H734 0.930 . S
C744 C743 1.400 . S
C744 C747 1.386 . S
H745 C761 0.930 1_545 S
H746 C762 0.931 . S
C747 H735 0.929 . S
C747 C741 1.390 . S
C747 C744 1.386 . S
C748 C743 1.490 . S
C748 C750 1.395 . S
C748 C751 1.403 . S
H749 C755 0.930 . S
C750 H736 0.930 . S
C750 C748 1.395 . S
C750 C753 1.403 . S
C751 C748 1.403 . S
C751 C752 1.524 . S
C751 C755 1.400 . S
C752 H737 0.960 . S
C752 H738 0.960 . S
C752 H739 0.960 . S
C752 C751 1.524 . S
C753 C750 1.403 . S
C753 C754 1.392 . S
C753 C757 1.495 . S
C754 C753 1.392 . S
C754 C755 1.385 . S
C754 C756 1.478 . S
C755 H749 0.930 . S
C755 C751 1.400 . S
C755 C754 1.385 . S
C756 C754 1.478 . S
C756 C758 1.381 . S
C756 C762 1.383 . S
C757 C753 1.495 . S
C757 H763 0.959 . S
C757 H764 0.961 . S
C757 H765 0.960 . S
C758 C756 1.381 . S
C758 C759 1.394 . S
C758 H766 0.930 . S
C759 C758 1.394 . S
C759 C760 1.383 . S
C759 H767 0.929 . S
C760 C759 1.383 . S
C760 C761 1.377 . S
C761 H745 0.930 1_565 S
C761 C760 1.377 . S
C761 C762 1.379 . S
C762 H746 0.931 . S
C762 C756 1.383 . S
C762 C761 1.379 . S
H763 C757 0.959 . S
H764 C757 0.961 . S
H765 C757 0.960 . S
H766 C758 0.930 . S
H767 C759 0.929 . S
H768 C776 0.929 . S
H769 C778 0.930 . S
H770 C780 0.930 . S
H771 C783 0.929 . S
H772 C786 0.930 . S
H773 C788 0.960 . S
H774 C788 0.960 . S
H775 C788 0.960 . S
C776 H768 0.929 . S
C776 C777 1.377 . S
C776 C778 1.384 . S
C777 C776 1.377 . S
C777 C783 1.390 . S
C778 H769 0.930 . S
C778 C776 1.384 . S
C778 C779 1.372 . S
C779 C778 1.372 . S
C779 C780 1.400 . S
C779 C784 1.490 . S
C780 H770 0.930 . S
C780 C779 1.400 . S
C780 C783 1.386 . S
H781 C797 0.930 . S
H782 C798 0.931 . S
C783 H771 0.929 . S
C783 C777 1.390 . S
C783 C780 1.386 . S
C784 C779 1.490 . S
C784 C786 1.395 . S
C784 C787 1.403 . S
H785 C791 0.930 . S
C786 H772 0.930 . S
C786 C784 1.395 . S
C786 C789 1.403 . S
C787 C784 1.403 . S
C787 C788 1.524 . S
C787 C791 1.400 . S
C788 H773 0.960 . S
C788 H774 0.960 . S
C788 H775 0.960 . S
C788 C787 1.524 . S
C789 C786 1.403 . S
C789 C790 1.392 . S
C789 C793 1.495 . S
C790 C789 1.392 . S
C790 C791 1.385 . S
C790 C792 1.478 . S
C791 H785 0.930 . S
C791 C787 1.400 . S
C791 C790 1.385 . S
C792 C790 1.478 . S
C792 C794 1.381 . S
C792 C798 1.383 . S
C793 C789 1.495 . S
C793 H799 0.959 . S
C793 H800 0.961 . S
C793 H801 0.960 . S
C794 C792 1.381 . S
C794 C795 1.394 . S
C794 H802 0.930 . S
C795 C794 1.394 . S
C795 C796 1.383 . S
C795 H803 0.929 . S
C796 C795 1.383 . S
C796 C797 1.377 . S
C797 H781 0.930 . S
C797 C796 1.377 . S
C797 C798 1.379 . S
C798 H782 0.931 . S
C798 C792 1.383 . S
C798 C797 1.379 . S
H799 C793 0.959 . S
H800 C793 0.961 . S
H801 C793 0.960 . S
H802 C794 0.930 . S
H803 C795 0.929 . S
H804 C812 0.929 . S
H805 C814 0.930 . S
H806 C816 0.930 . S
H807 C819 0.929 . S
H808 C822 0.930 . S
H809 C824 0.960 . S
H810 C824 0.960 . S
H811 C824 0.960 . S
C812 H804 0.929 . S
C812 C813 1.377 . S
C812 C814 1.384 . S
C813 C812 1.377 . S
C813 C819 1.390 . S
C814 H805 0.930 . S
C814 C812 1.384 . S
C814 C815 1.372 . S
C815 C814 1.372 . S
C815 C816 1.400 . S
C815 C820 1.490 . S
C816 H806 0.930 . S
C816 C815 1.400 . S
C816 C819 1.386 . S
H817 C833 0.930 1_556 S
H818 C834 0.931 . S
C819 H807 0.929 . S
C819 C813 1.390 . S
C819 C816 1.386 . S
C820 C815 1.490 . S
C820 C822 1.395 . S
C820 C823 1.403 . S
H821 C827 0.930 . S
C822 H808 0.930 . S
C822 C820 1.395 . S
C822 C825 1.403 . S
C823 C820 1.403 . S
C823 C824 1.524 . S
C823 C827 1.400 . S
C824 H809 0.960 . S
C824 H810 0.960 . S
C824 H811 0.960 . S
C824 C823 1.524 . S
C825 C822 1.403 . S
C825 C826 1.392 . S
C825 C829 1.495 . S
C826 C825 1.392 . S
C826 C827 1.385 . S
C826 C828 1.478 . S
C827 H821 0.930 . S
C827 C823 1.400 . S
C827 C826 1.385 . S
C828 C826 1.478 . S
C828 C830 1.381 . S
C828 C834 1.383 . S
C829 C825 1.495 . S
C829 H835 0.959 . S
C829 H836 0.961 . S
C829 H837 0.960 . S
C830 C828 1.381 . S
C830 C831 1.394 . S
C830 H838 0.930 . S
C831 C830 1.394 . S
C831 C832 1.383 . S
C831 H839 0.929 . S
C832 C831 1.383 . S
C832 C833 1.377 . S
C833 H817 0.930 1_554 S
C833 C832 1.377 . S
C833 C834 1.379 . S
C834 H818 0.931 . S
C834 C828 1.383 . S
C834 C833 1.379 . S
H835 C829 0.959 . S
H836 C829 0.961 . S
H837 C829 0.960 . S
H838 C830 0.930 . S
H839 C831 0.929 . S
H840 C848 0.929 . S
H841 C850 0.930 . S
H842 C852 0.930 . S
H843 C855 0.929 . S
H844 C858 0.930 . S
H845 C860 0.960 . S
H846 C860 0.960 . S
H847 C860 0.960 . S
C848 H840 0.929 . S
C848 C849 1.377 . S
C848 C850 1.384 . S
C849 C848 1.377 . S
C849 C855 1.390 . S
C850 H841 0.930 . S
C850 C848 1.384 . S
C850 C851 1.372 . S
C851 C850 1.372 . S
C851 C852 1.400 . S
C851 C856 1.490 . S
C852 H842 0.930 . S
C852 C851 1.400 . S
C852 C855 1.386 . S
H853 C869 0.930 . S
H854 C870 0.931 . S
C855 H843 0.929 . S
C855 C849 1.390 . S
C855 C852 1.386 . S
C856 C851 1.490 . S
C856 C858 1.395 . S
C856 C859 1.403 . S
H857 C863 0.930 . S
C858 H844 0.930 . S
C858 C856 1.395 . S
C858 C861 1.403 . S
C859 C856 1.403 . S
C859 C860 1.524 . S
C859 C863 1.400 . S
C860 H845 0.960 . S
C860 H846 0.960 . S
C860 H847 0.960 . S
C860 C859 1.524 . S
C861 C858 1.403 . S
C861 C862 1.392 . S
C861 C865 1.495 . S
C862 C861 1.392 . S
C862 C863 1.385 . S
C862 C864 1.478 . S
C863 H857 0.930 . S
C863 C859 1.400 . S
C863 C862 1.385 . S
C864 C862 1.478 . S
C864 C866 1.381 . S
C864 C870 1.383 . S
C865 C861 1.495 . S
C865 H871 0.959 . S
C865 H872 0.961 . S
C865 H873 0.960 . S
C866 C864 1.381 . S
C866 C867 1.394 . S
C866 H874 0.930 . S
C867 C866 1.394 . S
C867 C868 1.383 . S
C867 H875 0.929 . S
C868 C867 1.383 . S
C868 C869 1.377 . S
C869 H853 0.930 . S
C869 C868 1.377 . S
C869 C870 1.379 . S
C870 H854 0.931 . S
C870 C864 1.383 . S
C870 C869 1.379 . S
H871 C865 0.959 . S
H872 C865 0.961 . S
H873 C865 0.960 . S
H874 C866 0.930 . S
H875 C867 0.929 . S
H876 C884 0.929 . S
H877 C886 0.930 . S
H878 C888 0.930 . S
H879 C891 0.929 . S
H880 C894 0.930 . S
H881 C896 0.960 . S
H882 C896 0.960 . S
H883 C896 0.960 . S
C884 H876 0.929 . S
C884 C885 1.377 . S
C884 C886 1.384 . S
C885 C884 1.377 . S
C885 C891 1.390 . S
C886 H877 0.930 . S
C886 C884 1.384 . S
C886 C887 1.372 . S
C887 C886 1.372 . S
C887 C888 1.400 . S
C887 C892 1.490 . S
C888 H878 0.930 . S
C888 C887 1.400 . S
C888 C891 1.386 . S
H889 C905 0.930 1_554 S
H890 C906 0.931 . S
C891 H879 0.929 . S
C891 C885 1.390 . S
C891 C888 1.386 . S
C892 C887 1.490 . S
C892 C894 1.395 . S
C892 C895 1.403 . S
H893 C899 0.930 . S
C894 H880 0.930 . S
C894 C892 1.395 . S
C894 C897 1.403 . S
C895 C892 1.403 . S
C895 C896 1.524 . S
C895 C899 1.400 . S
C896 H881 0.960 . S
C896 H882 0.960 . S
C896 H883 0.960 . S
C896 C895 1.524 . S
C897 C894 1.403 . S
C897 C898 1.392 . S
C897 C901 1.495 . S
C898 C897 1.392 . S
C898 C899 1.385 . S
C898 C900 1.478 . S
C899 H893 0.930 . S
C899 C895 1.400 . S
C899 C898 1.385 . S
C900 C898 1.478 . S
C900 C902 1.381 . S
C900 C906 1.383 . S
C901 C897 1.495 . S
C901 H907 0.959 1_655 S
C901 H908 0.961 . S
C901 H909 0.960 1_655 S
C902 C900 1.381 . S
C902 C903 1.394 . S
C902 H910 0.930 . S
C903 C902 1.394 . S
C903 C904 1.383 . S
C903 H911 0.929 . S
C904 C903 1.383 . S
C904 C905 1.377 . S
C905 H889 0.930 1_556 S
C905 C904 1.377 . S
C905 C906 1.379 . S
C906 H890 0.931 . S
C906 C900 1.383 . S
C906 C905 1.379 . S
H907 C901 0.959 1_455 S
H908 C901 0.961 . S
H909 C901 0.960 1_455 S
H910 C902 0.930 . S
H911 C903 0.929 . S
H912 C920 0.929 . S
H913 C922 0.930 . S
H914 C924 0.930 . S
H915 C927 0.929 . S
H916 C930 0.930 . S
H917 C932 0.960 . S
H918 C932 0.960 . S
H919 C932 0.960 . S
C920 H912 0.929 . S
C920 C921 1.377 . S
C920 C922 1.384 . S
C921 C920 1.377 . S
C921 C927 1.390 . S
C922 H913 0.930 . S
C922 C920 1.384 . S
C922 C923 1.372 . S
C923 C922 1.372 . S
C923 C924 1.400 . S
C923 C928 1.490 . S
C924 H914 0.930 . S
C924 C923 1.400 . S
C924 C927 1.386 . S
H925 C941 0.930 . S
H926 C942 0.931 . S
C927 H915 0.929 . S
C927 C921 1.390 . S
C927 C924 1.386 . S
C928 C923 1.490 . S
C928 C930 1.395 . S
C928 C931 1.403 . S
H929 C935 0.930 . S
C930 H916 0.930 . S
C930 C928 1.395 . S
C930 C933 1.403 . S
C931 C928 1.403 . S
C931 C932 1.524 . S
C931 C935 1.400 . S
C932 H917 0.960 . S
C932 H918 0.960 . S
C932 H919 0.960 . S
C932 C931 1.524 . S
C933 C930 1.403 . S
C933 C934 1.392 . S
C933 C937 1.495 . S
C934 C933 1.392 . S
C934 C935 1.385 . S
C934 C936 1.478 . S
C935 H929 0.930 . S
C935 C931 1.400 . S
C935 C934 1.385 . S
C936 C934 1.478 . S
C936 C938 1.381 . S
C936 C942 1.383 . S
C937 C933 1.495 . S
C937 H943 0.959 . S
C937 H944 0.961 . S
C937 H945 0.960 . S
C938 C936 1.381 . S
C938 C939 1.394 . S
C938 H946 0.930 . S
C939 C938 1.394 . S
C939 C940 1.383 . S
C939 H947 0.929 . S
C940 C939 1.383 . S
C940 C941 1.377 . S
C941 H925 0.930 . S
C941 C940 1.377 . S
C941 C942 1.379 . S
C942 H926 0.931 . S
C942 C936 1.383 . S
C942 C941 1.379 . S
H943 C937 0.959 . S
H944 C937 0.961 . S
H945 C937 0.960 . S
H946 C938 0.930 . S
H947 C939 0.929 . S
H948 C956 0.929 . S
H949 C958 0.930 . S
H950 C960 0.930 . S
H951 C963 0.929 . S
H952 C966 0.930 . S
H953 C968 0.960 . S
H954 C968 0.960 . S
H955 C968 0.960 . S
C956 H948 0.929 . S
C956 C957 1.377 . S
C956 C958 1.384 . S
C957 C956 1.377 . S
C957 C963 1.390 . S
C958 H949 0.930 . S
C958 C956 1.384 . S
C958 C959 1.372 . S
C959 C958 1.372 . S
C959 C960 1.400 . S
C959 C964 1.490 . S
C960 H950 0.930 . S
C960 C959 1.400 . S
C960 C963 1.386 . S
H961 C977 0.930 . S
H962 C978 0.931 . S
C963 H951 0.929 . S
C963 C957 1.390 . S
C963 C960 1.386 . S
C964 C959 1.490 . S
C964 C966 1.395 . S
C964 C967 1.403 . S
H965 C971 0.930 . S
C966 H952 0.930 . S
C966 C964 1.395 . S
C966 C969 1.403 . S
C967 C964 1.403 . S
C967 C968 1.524 . S
C967 C971 1.400 . S
C968 H953 0.960 . S
C968 H954 0.960 . S
C968 H955 0.960 . S
C968 C967 1.524 . S
C969 C966 1.403 . S
C969 C970 1.392 . S
C969 C973 1.495 1_455 S
C970 C969 1.392 . S
C970 C971 1.385 . S
C970 C972 1.478 . S
C971 H965 0.930 . S
C971 C967 1.400 . S
C971 C970 1.385 . S
C972 C970 1.478 . S
C972 C974 1.381 . S
C972 C978 1.383 . S
C973 C969 1.495 1_655 S
C973 H979 0.959 . S
C973 H980 0.961 . S
C973 H981 0.960 . S
C974 C972 1.381 . S
C974 C975 1.394 . S
C974 H982 0.930 . S
C975 C974 1.394 . S
C975 C976 1.383 . S
C975 H983 0.929 1_455 S
C976 C975 1.383 . S
C976 C977 1.377 . S
C977 H961 0.930 . S
C977 C976 1.377 . S
C977 C978 1.379 . S
C978 H962 0.931 . S
C978 C972 1.383 . S
C978 C977 1.379 . S
H979 C973 0.959 . S
H980 C973 0.961 . S
H981 C973 0.960 . S
H982 C974 0.930 . S
H983 C975 0.929 1_655 S
H984 C992 0.929 . S
H985 C994 0.930 . S
H986 C996 0.930 . S
H987 C999 0.929 . S
H988 C1002 0.930 . S
H989 C1004 0.960 . S
H990 C1004 0.960 . S
H991 C1004 0.960 . S
C992 H984 0.929 . S
C992 C993 1.377 . S
C992 C994 1.384 . S
C993 C992 1.377 . S
C993 C999 1.390 . S
C994 H985 0.930 . S
C994 C992 1.384 . S
C994 C995 1.372 . S
C995 C994 1.372 . S
C995 C996 1.400 . S
C995 C1000 1.490 . S
C996 H986 0.930 . S
C996 C995 1.400 . S
C996 C999 1.386 . S
H997 C1013 0.930 . S
H998 C1014 0.931 . S
C999 H987 0.929 . S
C999 C993 1.390 . S
C999 C996 1.386 . S
C1000 C995 1.490 . S
C1000 C1002 1.395 . S
C1000 C1003 1.403 . S
H1001 C1007 0.930 . S
C1002 H988 0.930 . S
C1002 C1000 1.395 . S
C1002 C1005 1.403 . S
C1003 C1000 1.403 . S
C1003 C1004 1.524 . S
C1003 C1007 1.400 . S
C1004 H989 0.960 . S
C1004 H990 0.960 . S
C1004 H991 0.960 . S
C1004 C1003 1.524 . S
C1005 C1002 1.403 . S
C1005 C1006 1.392 . S
C1005 C1009 1.495 . S
C1006 C1005 1.392 . S
C1006 C1007 1.385 . S
C1006 C1008 1.478 . S
C1007 H1001 0.930 . S
C1007 C1003 1.400 . S
C1007 C1006 1.385 . S
C1008 C1006 1.478 . S
C1008 C1010 1.381 . S
C1008 C1014 1.383 . S
C1009 C1005 1.495 . S
C1009 H1015 0.959 . S
C1009 H1016 0.961 . S
C1009 H1017 0.960 . S
C1010 C1008 1.381 . S
C1010 C1011 1.394 . S
C1010 H1018 0.930 . S
C1011 C1010 1.394 . S
C1011 C1012 1.383 . S
C1011 H1019 0.929 . S
C1012 C1011 1.383 . S
C1012 C1013 1.377 . S
C1013 H997 0.930 . S
C1013 C1012 1.377 . S
C1013 C1014 1.379 . S
C1014 H998 0.931 . S
C1014 C1008 1.383 . S
C1014 C1013 1.379 . S
H1015 C1009 0.959 . S
H1016 C1009 0.961 . S
H1017 C1009 0.960 . S
H1018 C1010 0.930 . S
H1019 C1011 0.929 . S
C165 C5 1.607 . S
C184 C88 1.581 . S
C201 C14 1.467 . S
C220 C110 1.366 . S
C256 C129 1.241 . S
C237 C25 1.413 . S
C273 C34 1.727 . S
C292 C150 1.392 . S
C328 C107 1.741 . S
C309 C7 1.779 . S
C364 C85 1.598 . S
C345 C13 1.677 . S
C400 C152 1.222 . S
C381 C23 1.328 . S
C436 C131 1.365 . S
C417 C31 1.402 . S
C453 C4 1.728 . S
C472 C149 1.687 . S
C508 C108 1.278 . S
C489 C22 1.568 . S
C525 C32 1.605 . S
C544 C90 1.351 . S
C561 C16 1.464 . S
C580 C128 1.434 . S
C616 C86 1.523 . S
C597 C41 1.604 . S
C633 C50 1.305 . S
C652 C106 1.225 . S
C669 C61 1.479 . S
C688 C132 1.222 . S
C705 C67 1.652 . S
C724 C153 1.329 . S
C741 C40 1.731 . S
C760 C109 1.669 . S
C796 C89 1.653 . S
C777 C52 1.740 . S
C832 C148 1.183 . S
C813 C59 1.240 . S
C868 C127 1.415 . S
C849 C70 1.494 . S
C885 C43 1.534 . S
C904 C151 1.500 . S
C940 C111 1.203 . S
C921 C58 1.489 . S
C976 C87 1.273 . S
C957 C68 1.415 . S
C993 C49 1.409 . S
C1012 C130 1.391 . S
