# Generated by pormake.
# Topology zzz, (3,6)-cn, num edge types: 1
# Building blocks:
#     Node 0, Type 0, BuildingBlock: ESEHIV_clean_linker_0, # of connection points: 3
#     Node 1, Type 0, BuildingBlock: ESEHIV_clean_linker_0, # of connection points: 3
#     Node 2, Type 0, BuildingBlock: ESEHIV_clean_linker_0, # of connection points: 3
#     Node 3, Type 0, BuildingBlock: ESEHIV_clean_linker_0, # of connection points: 3
#     Node 4, Type 0, BuildingBlock: ESEHIV_clean_linker_0, # of connection points: 3
#     Node 5, Type 0, BuildingBlock: ESEHIV_clean_linker_0, # of connection points: 3
#     Node 6, Type 0, BuildingBlock: ESEHIV_clean_linker_0, # of connection points: 3
#     Node 7, Type 0, BuildingBlock: ESEHIV_clean_linker_0, # of connection points: 3
#     Node 8, Type 1, BuildingBlock: VOLQOD_clean_sbu_1, # of connection points: 6
#     Node 9, Type 1, BuildingBlock: VOLQOD_clean_sbu_1, # of connection points: 6
#     Node 10, Type 1, BuildingBlock: VOLQOD_clean_sbu_1, # of connection points: 6
#     Node 11, Type 1, BuildingBlock: VOLQOD_clean_sbu_1, # of connection points: 6
#     Edge 12, Type (0, 1), BuildingBlock: KIFKEQ_clean_linker_1, # of connection points: 2
#     Edge 13, Type (0, 1), BuildingBlock: KIFKEQ_clean_linker_1, # of connection points: 2
#     Edge 14, Type (0, 1), BuildingBlock: KIFKEQ_clean_linker_1, # of connection points: 2
#     Edge 15, Type (0, 1), BuildingBlock: KIFKEQ_clean_linker_1, # of connection points: 2
#     Edge 16, Type (0, 1), BuildingBlock: KIFKEQ_clean_linker_1, # of connection points: 2
#     Edge 17, Type (0, 1), BuildingBlock: KIFKEQ_clean_linker_1, # of connection points: 2
#     Edge 18, Type (0, 1), BuildingBlock: KIFKEQ_clean_linker_1, # of connection points: 2
#     Edge 19, Type (0, 1), BuildingBlock: KIFKEQ_clean_linker_1, # of connection points: 2
#     Edge 20, Type (0, 1), BuildingBlock: KIFKEQ_clean_linker_1, # of connection points: 2
#     Edge 21, Type (0, 1), BuildingBlock: KIFKEQ_clean_linker_1, # of connection points: 2
#     Edge 22, Type (0, 1), BuildingBlock: KIFKEQ_clean_linker_1, # of connection points: 2
#     Edge 23, Type (0, 1), BuildingBlock: KIFKEQ_clean_linker_1, # of connection points: 2
#     Edge 24, Type (0, 1), BuildingBlock: KIFKEQ_clean_linker_1, # of connection points: 2
#     Edge 25, Type (0, 1), BuildingBlock: KIFKEQ_clean_linker_1, # of connection points: 2
#     Edge 26, Type (0, 1), BuildingBlock: KIFKEQ_clean_linker_1, # of connection points: 2
#     Edge 27, Type (0, 1), BuildingBlock: KIFKEQ_clean_linker_1, # of connection points: 2
#     Edge 28, Type (0, 1), BuildingBlock: KIFKEQ_clean_linker_1, # of connection points: 2
#     Edge 29, Type (0, 1), BuildingBlock: KIFKEQ_clean_linker_1, # of connection points: 2
#     Edge 30, Type (0, 1), BuildingBlock: KIFKEQ_clean_linker_1, # of connection points: 2
#     Edge 31, Type (0, 1), BuildingBlock: KIFKEQ_clean_linker_1, # of connection points: 2
#     Edge 32, Type (0, 1), BuildingBlock: KIFKEQ_clean_linker_1, # of connection points: 2
#     Edge 33, Type (0, 1), BuildingBlock: KIFKEQ_clean_linker_1, # of connection points: 2
#     Edge 34, Type (0, 1), BuildingBlock: KIFKEQ_clean_linker_1, # of connection points: 2
#     Edge 35, Type (0, 1), BuildingBlock: KIFKEQ_clean_linker_1, # of connection points: 2
# Relax obj value: 0.360
# Max RMSD: 0.258
# Mean RMSD: 0.208
data_MOF--net-zzz--node1-VOLQOD_clean_sbu_1--node2-ESEHIV_clean_linker_0--edge1-KIFKEQ_clean_linker_1
_symmetry_space_group_name_H-M    P1
_symmetry_Int_Tables_number       1
_symmetry_cell_setting            triclinic
loop_
_symmetry_equiv_pos_as_xyz
'x, y, z'
_cell_length_a     45.726291
_cell_length_b     45.037346
_cell_length_c     17.994973
_cell_angle_alpha  90.056737
_cell_angle_beta   90.167228
_cell_angle_gamma 92.250154
loop_
_atom_site_label
_atom_site_type_symbol
_atom_site_fract_x
_atom_site_fract_y
_atom_site_fract_z
_atom_type_partial_charge
H0 H 0.84368 0.46769 0.17811 0.0
H1 H 0.77397 0.43942 0.03199 0.0
H2 H 0.75744 0.49958 0.21289 0.0
C3 C 0.82073 0.46762 0.16276 0.0
C4 C 0.80178 0.48544 0.20259 0.0
C5 C 0.81081 0.4508 0.10168 0.0
C6 C 0.78133 0.45164 0.08091 0.0
C7 C 0.76168 0.46907 0.12039 0.0
C8 C 0.77209 0.48584 0.18206 0.0
H9 H 0.05055 0.81502 0.25164 0.0
H10 H 0.05015 0.76284 0.05116 0.0
H11 H 1.00065 0.7323 0.24076 0.0
C12 C 0.04412 0.79503 0.22115 0.0
C13 C 0.02478 0.77415 0.25453 0.0
C14 C 0.05286 0.79183 0.14704 0.0
C15 C 0.04408 0.76573 0.1088 0.0
C16 C 0.02613 0.74374 0.14305 0.0
C17 C 0.01602 0.74825 0.21573 0.0
H18 H 0.70606 0.03912 0.23821 0.0
H19 H 0.75898 0.04939 0.04256 0.0
H20 H 0.79055 0.0012 0.23166 0.0
C21 C 0.72631 0.03576 0.2087 0.0
C22 C 0.74765 0.0188 0.24227 0.0
C23 C 0.72974 0.04637 0.13604 0.0
C24 C 0.75637 0.04207 0.09954 0.0
C25 C 0.77903 0.02668 0.13402 0.0
C26 C 0.77408 0.01422 0.20512 0.0
H27 H 0.50297 0.67108 0.22667 0.0
H28 H 0.54781 0.75654 0.23134 0.0
H29 H 0.49146 0.73228 0.04694 0.0
C30 C 0.50668 0.69279 0.20175 0.0
C31 C 0.49494 0.69882 0.13153 0.0
C32 C 0.52507 0.71369 0.23864 0.0
C33 C 0.5325 0.741 0.20442 0.0
C34 C 0.52076 0.74757 0.13411 0.0
C35 C 0.50123 0.7268 0.09984 0.0
H36 H 0.20011 0.55365 0.16467 0.0
H37 H 0.26651 0.56605 0.333 0.0
H38 H 0.27996 0.50718 0.14854 0.0
C39 C 0.22189 0.54992 0.18578 0.0
C40 C 0.23952 0.53037 0.14727 0.0
C41 C 0.23102 0.56249 0.25377 0.0
C42 C 0.25902 0.55642 0.28076 0.0
C43 C 0.27675 0.53642 0.24356 0.0
C44 C 0.26672 0.52306 0.17698 0.0
H45 H 0.02372 0.18789 0.13432 0.0
H46 H 0.00244 0.25485 0.29282 0.0
H47 H 0.05616 0.27786 0.10305 0.0
C48 C 0.02495 0.21083 0.15289 0.0
C49 C 0.04122 0.23188 0.11132 0.0
C50 C 0.01082 0.21888 0.21827 0.0
C51 C 0.01318 0.24851 0.24191 0.0
C52 C 0.02951 0.27003 0.20116 0.0
C53 C 0.04374 0.26154 0.13552 0.0
H54 H 0.33943 0.98898 0.13755 0.0
H55 H 0.28239 0.97876 0.32566 0.0
H56 H 0.25549 0.02863 0.13417 0.0
C57 C 0.31879 0.993 0.16467 0.0
C58 C 0.29843 0.01029 0.12833 0.0
C59 C 0.31351 0.98183 0.23602 0.0
C60 C 0.28661 0.98695 0.26991 0.0
C61 C 0.26538 0.00344 0.23327 0.0
C62 C 0.27132 0.01517 0.16194 0.0
H63 H 0.54025 0.29446 0.08285 0.0
H64 H 0.48952 0.21272 0.09466 0.0
H65 H 0.53282 0.24684 0.29021 0.0
C66 C 0.53213 0.27598 0.11606 0.0
C67 C 0.53864 0.27457 0.19236 0.0
C68 C 0.51335 0.25477 0.08158 0.0
C69 C 0.50366 0.22946 0.12126 0.0
C70 C 0.51203 0.22618 0.19597 0.0
C71 C 0.52845 0.24914 0.23151 0.0
O72 O 0.08861 0.00937 0.62412 0.0
Zn73 Zn 0.06067 0.01009 0.71156 0.0
O74 O 0.0199 0.00346 0.67621 0.0
Zn75 Zn 0.99767 0.03805 0.69996 0.0
Zn76 Zn 0.01902 0.99712 0.56861 0.0
Zn77 Zn 0.00115 0.96894 0.72476 0.0
O78 O 0.96663 0.02874 0.77639 0.0
O79 O 0.96698 0.97979 0.79064 0.0
O80 O 0.06676 0.05046 0.76187 0.0
O81 O 0.02393 0.07063 0.74082 0.0
O82 O 0.97914 0.0551 0.60954 0.0
O83 O 0.9953 0.02768 0.51707 0.0
O84 O 0.00255 0.95613 0.54286 0.0
O85 O 0.07202 0.97762 0.78312 0.0
O86 O 0.98844 0.9372 0.65146 0.0
O87 O 0.03091 0.94945 0.78694 0.0
C88 C 0.08512 0.00594 0.55422 0.0
C89 C 0.95657 0.00489 0.80645 0.0
C90 C 0.98067 0.04926 0.54053 0.0
C91 C 0.05014 0.0725 0.76465 0.0
C92 C 0.99117 0.93496 0.58135 0.0
C93 C 0.05749 0.95463 0.80543 0.0
O94 O 0.05976 0.00123 0.52602 0.0
O95 O 0.51069 0.05884 0.61823 0.0
Zn96 Zn 0.51334 0.03274 0.70988 0.0
O97 O 0.52372 0.99199 0.68048 0.0
Zn98 Zn 0.49271 0.9639 0.71094 0.0
Zn99 Zn 0.52858 0.98922 0.57271 0.0
Zn100 Zn 0.56008 0.98067 0.72809 0.0
O101 O 0.50746 0.93258 0.77888 0.0
O102 O 0.55426 0.94536 0.79799 0.0
O103 O 0.47357 0.03283 0.76185 0.0
O104 O 0.46105 0.98475 0.76357 0.0
O105 O 0.47283 0.94431 0.62369 0.0
O106 O 0.49906 0.96027 0.5273 0.0
O107 O 0.56952 0.97817 0.54453 0.0
O108 O 0.54462 0.05146 0.77834 0.0
O109 O 0.59149 0.97211 0.65326 0.0
O110 O 0.57632 0.01522 0.78531 0.0
C111 C 0.51405 0.05402 0.54895 0.0
C112 C 0.5319 0.92828 0.81031 0.0
C113 C 0.47774 0.94479 0.55421 0.0
C114 C 0.45557 0.01155 0.7788 0.0
C115 C 0.59214 0.97232 0.58254 0.0
C116 C 0.56873 0.04134 0.80093 0.0
O117 O 0.52094 0.02862 0.52494 0.0
O118 O 0.44911 0.48265 0.62055 0.0
Zn119 Zn 0.47749 0.47761 0.70717 0.0
O120 O 0.51834 0.48731 0.6755 0.0
Zn121 Zn 0.54256 0.45321 0.69145 0.0
Zn122 Zn 0.51919 0.49696 0.57061 0.0
Zn123 Zn 0.53551 0.52145 0.7297 0.0
O124 O 0.5734 0.46184 0.76949 0.0
O125 O 0.5708 0.51033 0.79022 0.0
O126 O 0.47305 0.43479 0.74592 0.0
O127 O 0.51781 0.41874 0.72711 0.0
O128 O 0.56087 0.43859 0.59706 0.0
O129 O 0.53956 0.46631 0.51254 0.0
O130 O 0.53861 0.53673 0.55051 0.0
O131 O 0.46558 0.50635 0.78815 0.0
O132 O 0.54657 0.55636 0.66217 0.0
O133 O 0.50592 0.53541 0.80151 0.0
C134 C 0.45307 0.49187 0.55414 0.0
C135 C 0.58239 0.48553 0.80245 0.0
C136 C 0.55587 0.44511 0.52953 0.0
C137 C 0.49139 0.41413 0.74716 0.0
C138 C 0.5473 0.55835 0.59155 0.0
C139 C 0.47975 0.52795 0.81926 0.0
O140 O 0.4786 0.49846 0.52982 0.0
O141 O 0.96805 0.54411 0.58737 0.0
Zn142 Zn 0.00784 0.54587 0.64043 0.0
O143 O 0.01995 0.50599 0.6717 0.0
Zn144 Zn 0.0226 0.5036 0.77968 0.0
Zn145 Zn 0.99099 0.47643 0.63758 0.0
Zn146 Zn 0.05792 0.4966 0.62945 0.0
O147 O 0.06308 0.49361 0.81302 0.0
O148 O 0.08817 0.48867 0.70867 0.0
O149 O 0.00481 0.57247 0.73075 0.0
O150 O 0.01371 0.54288 0.82632 0.0
O151 O 0.9942 0.47273 0.82043 0.0
O152 O 0.97477 0.45093 0.72038 0.0
O153 O 0.00708 0.45114 0.55725 0.0
O154 O 0.03849 0.5655 0.57304 0.0
O155 O 0.05486 0.46222 0.55595 0.0
O156 O 0.07319 0.53204 0.57336 0.0
C157 C 0.95022 0.52207 0.57571 0.0
C158 C 0.08682 0.48849 0.77937 0.0
C159 C 0.97722 0.45302 0.79066 0.0
C160 C 0.00745 0.56818 0.80046 0.0
C161 C 0.03254 0.44742 0.53138 0.0
C162 C 0.0637 0.55708 0.55421 0.0
O163 O 0.95668 0.49586 0.59373 0.0
H164 H 0.25905 0.033 0.363 0.0
H165 H 0.20992 0.98551 0.19284 0.0
H166 H 0.21486 0.03642 0.4375 0.0
H167 H 0.16567 0.98746 0.2686 0.0
H168 H 0.08602 0.01232 0.40282 0.0
H169 H 0.12853 0.01551 0.32145 0.0
H170 H 0.18521 0.00522 0.51169 0.0
H171 H 0.14284 0.00335 0.59299 0.0
C172 C 0.23859 0.02352 0.34147 0.0
C173 C 0.23774 0.00904 0.2724 0.0
C174 C 0.21331 0.02512 0.38443 0.0
C175 C 0.18664 0.01175 0.35999 0.0
C176 C 0.18566 0.99825 0.2892 0.0
C177 C 0.21096 0.99707 0.24566 0.0
C178 C 0.10759 0.01082 0.42726 0.0
C179 C 0.111 0.00761 0.50454 0.0
C180 C 0.13201 0.01251 0.38046 0.0
C181 C 0.16047 0.01074 0.40965 0.0
C182 C 0.16377 0.00737 0.48703 0.0
C183 C 0.1394 0.00604 0.53384 0.0
H184 H 0.4807 0.22124 0.32407 0.0
H185 H 0.52782 0.17001 0.16501 0.0
H186 H 0.47679 0.17831 0.40664 0.0
H187 H 0.52537 0.12735 0.24856 0.0
H188 H 0.50533 0.04925 0.3989 0.0
H189 H 0.49898 0.08903 0.30949 0.0
H190 H 0.508 0.15366 0.48679 0.0
H191 H 0.51298 0.11376 0.57632 0.0
C192 C 0.4898 0.20053 0.30648 0.0
C193 C 0.50449 0.1988 0.23834 0.0
C194 C 0.48795 0.17603 0.3541 0.0
C195 C 0.50126 0.14939 0.33528 0.0
C196 C 0.5146 0.14729 0.265 0.0
C197 C 0.51603 0.17172 0.21689 0.0
C198 C 0.50582 0.07197 0.4188 0.0
C199 C 0.50978 0.07832 0.49481 0.0
C200 C 0.50228 0.09485 0.36738 0.0
C201 C 0.50299 0.12473 0.39046 0.0
C202 C 0.50671 0.13098 0.46675 0.0
C203 C 0.50984 0.10807 0.51827 0.0
H204 H 0.29372 0.48097 0.28088 0.0
H205 H 0.3218 0.57352 0.2876 0.0
H206 H 0.33698 0.46824 0.35367 0.0
H207 H 0.36506 0.56088 0.35941 0.0
H208 H 0.45272 0.52243 0.4235 0.0
H209 H 0.41124 0.53137 0.34261 0.0
H210 H 0.35442 0.48008 0.48917 0.0
H211 H 0.39606 0.47117 0.57124 0.0
C212 C 0.30947 0.49845 0.29672 0.0
C213 C 0.30463 0.52818 0.27846 0.0
C214 C 0.33398 0.49124 0.33891 0.0
C215 C 0.35427 0.51359 0.36233 0.0
C216 C 0.34987 0.54318 0.34172 0.0
C217 C 0.32518 0.55042 0.30074 0.0
C218 C 0.43146 0.51285 0.43856 0.0
C219 C 0.42772 0.49613 0.50414 0.0
C220 C 0.4077 0.5181 0.3922 0.0
C221 C 0.37966 0.50645 0.40965 0.0
C222 C 0.3759 0.48913 0.47417 0.0
C223 C 0.39967 0.4842 0.52132 0.0
H224 H 0.98492 0.30282 0.24974 0.0
H225 H 0.07851 0.30672 0.21841 0.0
H226 H 0.98821 0.34867 0.31964 0.0
H227 H 0.0819 0.35412 0.28562 0.0
H228 H 0.07741 0.41019 0.50479 0.0
H229 H 0.07855 0.37097 0.41067 0.0
H230 H 0.99629 0.39957 0.32175 0.0
H231 H 0.99444 0.43712 0.41841 0.0
C232 C 0.0062 0.31395 0.2565 0.0
C233 C 0.03149 0.30097 0.22959 0.0
C234 C 0.00812 0.34054 0.29603 0.0
C235 C 0.03539 0.35524 0.30892 0.0
C236 C 0.06059 0.34319 0.2779 0.0
C237 C 0.05865 0.31627 0.23851 0.0
C238 C 0.05977 0.40808 0.46459 0.0
C239 C 0.03554 0.42615 0.46972 0.0
C240 C 0.06048 0.38579 0.41021 0.0
C241 C 0.03723 0.38165 0.35912 0.0
C242 C 0.01412 0.40135 0.36145 0.0
C243 C 0.01308 0.42299 0.41669 0.0
H244 H 0.8083 0.06747 0.04685 0.0
H245 H 0.81359 0.97771 0.12891 0.0
H246 H 0.85129 0.06095 0.97156 0.0
H247 H 0.85823 0.97182 0.05709 0.0
H248 H 0.91689 0.96093 0.84999 0.0
H249 H 0.87545 0.96561 0.93407 0.0
H250 H 0.90171 0.05757 0.97361 0.0
H251 H 0.94193 0.05319 0.88714 0.0
C252 C 0.81876 0.04633 0.04928 0.0
C253 C 0.80714 0.02303 0.09354 0.0
C254 C 0.84384 0.04272 0.00677 0.0
C255 C 0.85852 0.01584 0.00803 0.0
C256 C 0.84737 0.99271 0.0538 0.0
C257 C 0.82197 0.99624 0.09594 0.0
C258 C 0.91377 0.98209 0.87689 0.0
C259 C 0.93246 0.00678 0.86106 0.0
C260 C 0.8901 0.98476 0.92557 0.0
C261 C 0.88486 0.0121 0.96034 0.0
C262 C 0.90439 0.03639 0.94649 0.0
C263 C 0.92765 0.03384 0.89706 0.0
H264 H 0.53627 0.7519 0.98885 0.0
H265 H 0.52539 0.80529 0.18568 0.0
H266 H 0.54243 0.79677 0.91428 0.0
H267 H 0.53245 0.8506 0.11025 0.0
H268 H 0.57143 0.9203 0.9237 0.0
H269 H 0.57333 0.87754 0.00858 0.0
H270 H 0.49916 0.83589 0.89562 0.0
H271 H 0.49678 0.87831 0.81247 0.0
C272 C 0.53553 0.77327 0.01638 0.0
C273 C 0.52958 0.77508 0.09287 0.0
C274 C 0.53923 0.7989 0.97367 0.0
C275 C 0.53756 0.82701 0.0065 0.0
C276 C 0.53386 0.82908 0.08385 0.0
C277 C 0.52983 0.80323 0.12686 0.0
C278 C 0.55559 0.90196 0.91714 0.0
C279 C 0.53398 0.90264 0.86131 0.0
C280 C 0.55659 0.87769 0.96588 0.0
C281 C 0.53644 0.85352 0.95822 0.0
C282 C 0.51503 0.85421 0.90233 0.0
C283 C 0.51365 0.87855 0.85488 0.0
H284 H 0.72597 0.42437 0.06406 0.0
H285 H 0.72832 0.51847 0.11144 0.0
H286 H 0.68145 0.42915 0.9934 0.0
H287 H 0.68194 0.52293 0.04627 0.0
H288 H 0.62405 0.52835 0.83813 0.0
H289 H 0.66441 0.52456 0.92587 0.0
H290 H 0.63258 0.43592 0.98489 0.0
H291 H 0.59376 0.43917 0.89314 0.0
C292 C 0.71663 0.44607 0.06061 0.0
C293 C 0.73118 0.47115 0.09205 0.0
C294 C 0.69068 0.44878 0.02077 0.0
C295 C 0.67798 0.47657 0.01276 0.0
C296 C 0.69137 0.50129 0.04921 0.0
C297 C 0.71776 0.49865 0.08797 0.0
C298 C 0.62583 0.50809 0.86996 0.0
C299 C 0.60611 0.48389 0.85804 0.0
C300 C 0.6488 0.50597 0.92103 0.0
C301 C 0.65212 0.47983 0.96278 0.0
C302 C 0.63146 0.45612 0.95263 0.0
C303 C 0.60904 0.45797 0.90017 0.0
H304 H 0.99483 0.74138 0.01473 0.0
H305 H 0.03756 0.68626 0.17415 0.0
H306 H 0.98506 0.69827 0.93496 0.0
H307 H 0.02939 0.64319 0.09305 0.0
H308 H 0.99852 0.56607 0.95071 0.0
H309 H 0.9976 0.60763 0.03735 0.0
H310 H 0.01132 0.66886 0.85459 0.0
H311 H 0.01079 0.62744 0.76812 0.0
C312 C 0.00191 0.71985 0.0327 0.0
C313 C 0.01695 0.71697 0.10019 0.0
C314 C 0.99663 0.69519 0.98679 0.0
C315 C 0.00682 0.66718 0.00667 0.0
C316 C 0.02088 0.66422 0.07599 0.0
C317 C 0.02569 0.68887 0.12251 0.0
C318 C 0.00101 0.58846 0.92907 0.0
C319 C 0.00481 0.59344 0.85251 0.0
C320 C 1.00068 0.61232 0.97884 0.0
C321 C 0.00455 0.64175 0.95341 0.0
C322 C 0.00771 0.64664 0.87648 0.0
C323 C 0.00761 0.62282 0.82667 0.0
H324 H 0.97489 0.17251 0.16995 0.0
H325 H 0.01147 0.213 0.36916 0.0
H326 H 0.95552 0.13063 0.24351 0.0
H327 H 0.99173 0.17171 0.4422 0.0
H328 H 0.95193 0.1001 0.57002 0.0
H329 H 0.94831 0.14258 0.4874 0.0
H330 H 0.98247 0.09105 0.3071 0.0
H331 H 0.98579 0.04848 0.38904 0.0
C332 C 0.97845 0.17268 0.22948 0.0
C333 C 0.99507 0.19589 0.26361 0.0
C334 C 0.96719 0.14882 0.27151 0.0
C335 C 0.97212 0.14788 0.34851 0.0
C336 C 0.9871 0.17201 0.38314 0.0
C337 C 0.9985 0.19571 0.34117 0.0
C338 C 0.95779 0.09748 0.51217 0.0
C339 C 0.96999 0.07116 0.48665 0.0
C340 C 0.95578 0.12188 0.46497 0.0
C341 C 0.96579 0.12034 0.39143 0.0
C342 C 0.97462 0.09295 0.36357 0.0
C343 C 0.97667 0.06854 0.41078 0.0
H344 H 0.30992 0.93224 0.32584 0.0
H345 H 0.371 0.99911 0.23915 0.0
H346 H 0.34997 0.91014 0.39515 0.0
H347 H 0.41039 0.97716 0.30637 0.0
H348 H 0.48178 0.93596 0.40424 0.0
H349 H 0.44069 0.93411 0.31772 0.0
H350 H 0.38053 0.92658 0.50196 0.0
H351 H 0.42146 0.92731 0.58818 0.0
C352 C 0.33185 0.94203 0.32109 0.0
C353 C 0.33733 0.96726 0.27652 0.0
C354 C 0.35475 0.92928 0.36021 0.0
C355 C 0.38346 0.94152 0.35504 0.0
C356 C 0.38879 0.96648 0.30967 0.0
C357 C 0.36608 0.97922 0.27127 0.0
C358 C 0.45985 0.93271 0.42613 0.0
C359 C 0.45482 0.93282 0.50306 0.0
C360 C 0.4363 0.93177 0.3766 0.0
C361 C 0.4074 0.93135 0.40329 0.0
C362 C 0.40251 0.92715 0.47963 0.0
C363 C 0.42609 0.9277 0.52917 0.0
H364 H 0.54418 0.33371 0.14624 0.0
H365 H 0.56761 0.27659 0.3295 0.0
H366 H 0.56137 0.37591 0.21484 0.0
H367 H 0.5794 0.31996 0.40325 0.0
H368 H 0.59609 0.40128 0.53654 0.0
H369 H 0.60295 0.36215 0.44511 0.0
H370 H 0.54002 0.40294 0.30079 0.0
H371 H 0.53531 0.4425 0.38823 0.0
C372 C 0.55299 0.3295 0.2007 0.0
C373 C 0.55321 0.30073 0.23184 0.0
C374 C 0.56226 0.35442 0.24145 0.0
C375 C 0.57032 0.35189 0.31644 0.0
C376 C 0.57296 0.32321 0.34603 0.0
C377 C 0.56521 0.29801 0.30375 0.0
C378 C 0.58449 0.40218 0.48406 0.0
C379 C 0.56491 0.4248 0.47003 0.0
C380 C 0.58814 0.37954 0.43185 0.0
C381 C 0.57172 0.37873 0.36539 0.0
C382 C 0.55364 0.40261 0.34999 0.0
C383 C 0.55063 0.42546 0.40101 0.0
H384 H 0.18818 0.60056 0.21112 0.0
H385 H 0.22446 0.55811 0.40417 0.0
H386 H 0.14574 0.61393 0.28455 0.0
H387 H 0.18303 0.57215 0.47687 0.0
H388 H 0.06404 0.56302 0.40475 0.0
H389 H 0.10664 0.57886 0.33135 0.0
H390 H 0.15121 0.60853 0.53177 0.0
H391 H 0.10867 0.59192 0.60485 0.0
C392 C 0.18753 0.59472 0.26947 0.0
C393 C 0.20956 0.57772 0.30119 0.0
C394 C 0.1633 0.60255 0.31151 0.0
C395 C 0.16088 0.59389 0.38629 0.0
C396 C 0.1843 0.57955 0.41968 0.0
C397 C 0.20826 0.57147 0.37766 0.0
C398 C 0.08242 0.5743 0.43233 0.0
C399 C 0.0833 0.57639 0.50995 0.0
C400 C 0.10685 0.58342 0.39046 0.0
C401 C 0.13251 0.59449 0.426 0.0
C402 C 0.13191 0.59971 0.50303 0.0
C403 C 0.10755 0.59045 0.54479 0.0
H404 H 0.0936 0.79099 0.03399 0.0
H405 H 0.04367 0.8511 0.16663 0.0
H406 H 0.10753 0.83216 0.9512 0.0
H407 H 0.05888 0.89179 0.08691 0.0
H408 H 0.08763 0.96341 0.93553 0.0
H409 H 0.09951 0.92456 0.02544 0.0
H410 H 0.06976 0.8573 0.86829 0.0
H411 H 0.05745 0.89586 0.78018 0.0
C412 C 0.08618 0.81294 0.04677 0.0
C413 C 0.06708 0.81742 0.10663 0.0
C414 C 0.09447 0.83654 -0.00017 0.0
C415 C 0.08427 0.86511 0.01273 0.0
C416 C 0.0675 0.87012 0.07628 0.0
C417 C 0.05878 0.84657 0.12224 0.0
C418 C 0.08464 0.94027 0.91975 0.0
C419 C 0.0714 0.93241 0.8518 0.0
C420 C 0.09139 0.91812 0.97091 0.0
C421 C 0.08549 0.88797 0.95375 0.0
C422 C 0.07488 0.88028 0.88275 0.0
C423 C 0.06759 0.90232 0.83258 0.0
H424 H 0.67209 0.02852 0.14867 0.0
H425 H 0.72929 0.09081 0.03015 0.0
H426 H 0.63144 0.04248 0.07268 0.0
H427 H 0.6881 0.10383 0.95091 0.0
H428 H 0.62484 0.05524 0.76826 0.0
H429 H 0.66305 0.06982 0.85682 0.0
H430 H 0.59755 0.08103 0.02604 0.0
H431 H 0.55911 0.06649 0.93615 0.0
C432 C 0.67595 0.04598 0.10816 0.0
C433 C 0.70424 0.05841 0.09571 0.0
C434 C 0.65241 0.05402 0.06437 0.0
C435 C 0.65652 0.07432 0.00592 0.0
C436 C 0.68435 0.08808 0.99564 0.0
C437 C 0.70796 0.08035 0.04048 0.0
C438 C 0.61858 0.06218 0.82348 0.0
C439 C 0.58925 0.05964 0.84595 0.0
C440 C 0.64043 0.07067 0.87417 0.0
C441 C 0.63331 0.07618 0.94862 0.0
C442 C 0.60361 0.0767 0.969 0.0
C443 C 0.58163 0.06857 0.91771 0.0
H444 H 0.49632 0.68989 0.98074 0.0
H445 H 0.45899 0.65224 0.18222 0.0
H446 H 0.47868 0.64676 0.9119 0.0
H447 H 0.44311 0.60779 0.11264 0.0
H448 H 0.48891 0.52891 0.96751 0.0
H449 H 0.47997 0.57089 0.0495 0.0
H450 H 0.43295 0.61316 0.87294 0.0
H451 H 0.44146 0.57071 0.79152 0.0
C452 C 0.48358 0.67299 0.01037 0.0
C453 C 0.47947 0.67472 0.08776 0.0
C454 C 0.47351 0.64808 0.97051 0.0
C455 C 0.45958 0.62396 0.00702 0.0
C456 C 0.45387 0.62614 0.08335 0.0
C457 C 0.46332 0.65148 0.12316 0.0
C458 C 0.4753 0.54645 0.94783 0.0
C459 C 0.46559 0.54667 0.87391 0.0
C460 C 0.47018 0.57046 0.99458 0.0
C461 C 0.45593 0.59529 0.96723 0.0
C462 C 0.44393 0.59422 0.89524 0.0
C463 C 0.44863 0.56994 0.84891 0.0
H464 H 0.81452 0.45101 0.9506 0.0
H465 H 0.85592 0.41669 0.14696 0.0
H466 H 0.85565 0.43664 0.87613 0.0
H467 H 0.89752 0.40226 0.0719 0.0
H468 H 0.97603 0.45108 0.9423 0.0
H469 H 0.93425 0.43644 0.01822 0.0
H470 H 0.88909 0.40132 0.82402 0.0
H471 H 0.93086 0.41655 0.7473 0.0
C472 C 0.8319 0.43933 0.97747 0.0
C473 C 0.83223 0.43549 0.05488 0.0
C474 C 0.85555 0.43096 0.93461 0.0
C475 C 0.88008 0.41865 0.96828 0.0
C476 C 0.87913 0.41214 0.04462 0.0
C477 C 0.8554 0.42049 0.08755 0.0
C478 C 0.95759 0.43942 0.91595 0.0
C479 C 0.95639 0.4359 0.83841 0.0
C480 C 0.93364 0.43075 0.95973 0.0
C481 C 0.90805 0.41835 0.9268 0.0
C482 C 0.9083 0.41142 0.85064 0.0
C483 C 0.93229 0.42009 0.80676 0.0
H484 H 0.01476 0.22947 0.97793 0.0
H485 H 0.09446 0.20841 0.09072 0.0
H486 H 0.02551 0.19488 0.87954 0.0
H487 H 0.10652 0.17452 0.99 0.0
H488 H 0.08164 0.08056 0.89252 0.0
H489 H 0.08832 0.12673 0.9623 0.0
H490 H 0.04963 0.17467 0.78084 0.0
H491 H 0.04117 0.12802 0.71415 0.0
C492 C 0.03551 0.21864 0.97911 0.0
C493 C 0.0539 0.22167 0.04117 0.0
C494 C 0.04177 0.19861 0.92269 0.0
C495 C 0.06672 0.18124 0.92706 0.0
C496 C 0.08676 0.18688 0.98553 0.0
C497 C 0.08022 0.20671 0.04255 0.0
C498 C 0.07521 0.10113 0.86718 0.0
C499 C 0.06045 0.10078 0.79882 0.0
C500 C 0.07918 0.12775 0.90687 0.0
C501 C 0.06899 0.15461 0.87809 0.0
C502 C 0.05691 0.15442 0.80605 0.0
C503 C 0.05223 0.12773 0.76747 0.0
H504 H 0.33464 0.05839 0.11145 0.0
H505 H 0.28636 0.99056 0.98835 0.0
H506 H 0.36919 0.06449 0.00972 0.0
H507 H 0.32009 0.99745 0.88418 0.0
H508 H 0.41276 0.971 0.81839 0.0
H509 H 0.36784 0.97904 0.88388 0.0
H510 H 0.38807 0.0736 0.88756 0.0
H511 H 0.4341 0.06534 0.82272 0.0
C512 C 0.33036 0.0462 0.06035 0.0
C513 C 0.30794 0.02399 0.05757 0.0
C514 C 0.35032 0.04952 0.00198 0.0
C515 C 0.34806 0.03075 0.93956 0.0
C516 C 0.32302 0.01163 0.93248 0.0
C517 C 0.30327 0.00807 0.9914 0.0
C518 C 0.40772 0.99362 0.83247 0.0
C519 C 0.42736 0.01748 0.81589 0.0
C520 C 0.38153 0.9983 0.86928 0.0
C521 C 0.37397 0.02704 0.8906 0.0
C522 C 0.3932 0.05114 0.87226 0.0
C523 C 0.41961 0.04641 0.8352 0.0
H524 H 0.54327 0.26296 0.9529 0.0
H525 H 0.45721 0.26714 0.04815 0.0
H526 H 0.52944 0.2963 0.85436 0.0
H527 H 0.44264 0.30011 0.94784 0.0
H528 H 0.45761 0.39944 0.86796 0.0
H529 H 0.45525 0.35145 0.93108 0.0
H530 H 0.50373 0.31308 0.75126 0.0
H531 H 0.50735 0.36145 0.69088 0.0
C532 C 0.52081 0.26972 0.95009 0.0
C533 C 0.50136 0.26259 0.00805 0.0
C534 C 0.51277 0.28904 0.89363 0.0
C535 C 0.48502 0.30161 0.8938 0.0
C536 C 0.46439 0.29146 0.94689 0.0
C537 C 0.47252 0.27209 0.00359 0.0
C538 C 0.467 0.3805 0.84117 0.0
C539 C 0.48308 0.38419 0.77538 0.0
C540 C 0.46558 0.35286 0.87708 0.0
C541 C 0.47985 0.32834 0.84711 0.0
C542 C 0.49322 0.33155 0.77715 0.0
C543 C 0.49515 0.35924 0.74225 0.0
H544 H 0.23299 0.55586 0.01252 0.0
H545 H 0.21671 0.47416 0.13252 0.0
H546 H 0.20029 0.53803 0.91304 0.0
H547 H 0.1837 0.45614 0.03317 0.0
H548 H 0.09088 0.4734 0.92566 0.0
H549 H 0.13434 0.47635 0.00418 0.0
H550 H 0.18738 0.49993 0.81346 0.0
H551 H 0.14374 0.49686 0.73433 0.0
C552 C 0.2233 0.53355 0.01583 0.0
C553 C 0.22745 0.5162 0.07936 0.0
C554 C 0.20457 0.52332 0.95907 0.0
C555 C 0.18926 0.49576 0.96559 0.0
C556 C 0.1951 0.47752 0.02689 0.0
C557 C 0.21414 0.48765 0.08329 0.0
C558 C 0.11188 0.47859 0.90009 0.0
C559 C 0.1138 0.48519 0.8239 0.0
C560 C 0.13685 0.48005 0.94502 0.0
C561 C 0.16427 0.48847 0.915 0.0
C562 C 0.16649 0.49351 0.8381 0.0
C563 C 0.14152 0.49164 0.79283 0.0
H564 H 0.96855 0.78922 0.26827 0.0
H565 H 0.04905 0.78274 0.39138 0.0
H566 H 0.95069 0.82384 0.36108 0.0
H567 H 0.03107 0.8168 0.48505 0.0
H568 H 0.97767 0.92444 0.4357 0.0
H569 H 0.97661 0.87662 0.37176 0.0
H570 H 0.99063 0.83205 0.58031 0.0
H571 H 0.99107 0.87992 0.64489 0.0
C572 C 0.98166 0.79385 0.3175 0.0
C573 C 0.01009 0.78335 0.32315 0.0
C574 C 0.97159 0.81387 0.3701 0.0
C575 C 0.98965 0.82321 0.42962 0.0
C576 C 0.01661 0.80981 0.43998 0.0
C577 C 0.02689 0.79022 0.38668 0.0
C578 C 0.97966 0.90438 0.4682 0.0
C579 C 0.98465 0.90595 0.54513 0.0
C580 C 0.97885 0.87698 0.43171 0.0
C581 C 0.98354 0.85066 0.47122 0.0
C582 C 0.98687 0.85201 0.54873 0.0
C583 C 0.98706 0.87941 0.58553 0.0
H584 H 0.7421 0.04255 0.37994 0.0
H585 H 0.73106 0.96089 0.25628 0.0
H586 H 0.70897 0.02274 0.47559 0.0
H587 H 0.69757 0.941 0.35147 0.0
H588 H 0.60092 0.95835 0.43675 0.0
H589 H 0.6469 0.96156 0.36861 0.0
H590 H 0.69348 0.98332 0.57169 0.0
H591 H 0.64739 0.9798 0.64041 0.0
C592 C 0.73384 0.01973 0.37552 0.0
C593 C 0.73926 0.00311 0.31137 0.0
C594 C 0.71472 0.00841 0.42996 0.0
C595 C 0.70033 0.98048 0.42036 0.0
C596 C 0.70818 0.96268 0.35994 0.0
C597 C 0.72763 0.97387 0.30601 0.0
C598 C 0.62102 0.96312 0.46724 0.0
C599 C 0.62043 0.96907 0.54385 0.0
C600 C 0.64743 0.96472 0.42829 0.0
C601 C 0.67381 0.97271 0.46486 0.0
C602 C 0.67348 0.97714 0.54213 0.0
C603 C 0.64708 0.97505 0.58139 0.0
H604 H 0.49804 0.70841 0.37172 0.0
H605 H 0.58024 0.69567 0.2621 0.0
H606 H 0.51269 0.67627 0.47317 0.0
H607 H 0.59518 0.66336 0.36372 0.0
H608 H 0.54272 0.61466 0.64737 0.0
H609 H 0.54599 0.66119 0.57671 0.0
H610 H 0.57266 0.61273 0.38273 0.0
H611 H 0.56929 0.56662 0.45272 0.0
C612 C 0.51988 0.69991 0.37149 0.0
C613 C 0.53812 0.70456 0.30971 0.0
C614 C 0.52831 0.68144 0.42947 0.0
C615 C 0.55496 0.66694 0.42599 0.0
C616 C 0.57441 0.67403 0.36759 0.0
C617 C 0.56605 0.69274 0.30987 0.0
C618 C 0.55013 0.61416 0.59028 0.0
C619 C 0.55541 0.58697 0.55526 0.0
C620 C 0.55188 0.64076 0.5498 0.0
C621 C 0.55946 0.64065 0.47406 0.0
C622 C 0.56708 0.61372 0.44111 0.0
C623 C 0.5649 0.5872 0.48109 0.0
H624 H 0.78545 0.48476 0.34869 0.0
H625 H 0.84705 0.52593 0.19583 0.0
H626 H 0.8154 0.50315 0.45336 0.0
H627 H 0.87743 0.54342 0.29906 0.0
H628 H 0.93317 0.56915 0.49004 0.0
H629 H 0.88971 0.57041 0.41028 0.0
H630 H 0.86073 0.4842 0.49339 0.0
H631 H 0.9032 0.48338 0.57343 0.0
C632 C 0.80485 0.49862 0.33769 0.0
C633 C 0.81424 0.50359 0.26451 0.0
C634 C 0.8222 0.5089 0.39743 0.0
C635 C 0.84925 0.52419 0.38474 0.0
C636 C 0.85681 0.53185 0.31137 0.0
C637 C 0.83947 0.52167 0.25198 0.0
C638 C 0.91708 0.55088 0.49246 0.0
C639 C 0.92195 0.52592 0.53694 0.0
C640 C 0.89224 0.55152 0.44658 0.0
C641 C 0.87177 0.52727 0.44467 0.0
C642 C 0.87568 0.50345 0.49362 0.0
C643 C 0.90038 0.5028 0.53903 0.0
loop_
_geom_bond_atom_site_label_1
_geom_bond_atom_site_label_2
_geom_bond_distance
_geom_bond_site_symmetry_2
_ccdc_geom_bond_type
H0 C3 0.931 . S
H1 C6 0.928 . S
H2 C8 0.930 . S
C3 H0 0.931 . S
C3 C4 1.413 . S
C3 C5 1.360 1_554 S
C4 C3 1.413 . S
C4 C8 1.429 . S
C5 C3 1.360 1_556 S
C5 C6 1.372 . S
C6 H1 0.928 . S
C6 C5 1.372 . S
C6 C7 1.404 1_556 S
C7 C6 1.404 1_554 S
C7 C8 1.391 . S
C8 H2 0.930 . S
C8 C4 1.429 . S
C8 C7 1.391 . S
H9 C12 0.931 . S
H10 C15 0.928 1_556 S
H11 C17 0.930 . S
C12 H9 0.931 . S
C12 C13 1.413 . S
C12 C14 1.360 . S
C13 C12 1.413 . S
C13 C17 1.429 . S
C14 C12 1.360 . S
C14 C15 1.372 . S
C15 H10 0.928 1_554 S
C15 C14 1.372 . S
C15 C16 1.404 . S
C16 C15 1.404 . S
C16 C17 1.391 . S
C17 H11 0.930 . S
C17 C13 1.429 . S
C17 C16 1.391 . S
H18 C21 0.931 . S
H19 C24 0.928 . S
H20 C26 0.931 . S
C21 H18 0.931 . S
C21 C22 1.413 . S
C21 C23 1.360 . S
C22 C21 1.413 . S
C22 C26 1.429 1_565 S
C23 C21 1.360 . S
C23 C24 1.373 1_554 S
C24 H19 0.928 . S
C24 C23 1.373 1_556 S
C24 C25 1.404 1_556 S
C25 C24 1.404 1_554 S
C25 C26 1.390 1_565 S
C26 H20 0.931 . S
C26 C22 1.429 1_545 S
C26 C25 1.390 1_545 S
H27 C30 0.931 . S
H28 C33 0.928 . S
H29 C35 0.930 . S
C30 H27 0.931 . S
C30 C31 1.409 1_554 S
C30 C32 1.360 . S
C31 C30 1.409 1_556 S
C31 C35 1.430 . S
C32 C30 1.360 . S
C32 C33 1.372 . S
C33 H28 0.928 . S
C33 C32 1.372 . S
C33 C34 1.404 . S
C34 C33 1.404 . S
C34 C35 1.391 1_554 S
C35 H29 0.930 . S
C35 C31 1.430 . S
C35 C34 1.391 1_556 S
H36 C39 0.931 . S
H37 C42 0.928 . S
H38 C44 0.930 . S
C39 H36 0.931 . S
C39 C40 1.413 . S
C39 C41 1.360 . S
C40 C39 1.413 . S
C40 C44 1.429 . S
C41 C39 1.360 . S
C41 C42 1.372 . S
C42 H37 0.928 . S
C42 C41 1.372 . S
C42 C43 1.404 . S
C43 C42 1.404 . S
C43 C44 1.391 . S
C44 H38 0.930 . S
C44 C40 1.429 . S
C44 C43 1.391 . S
H45 C48 0.931 . S
H46 C51 0.928 . S
H47 C53 0.930 . S
C48 H45 0.931 . S
C48 C49 1.413 . S
C48 C50 1.360 . S
C49 C48 1.413 . S
C49 C53 1.429 . S
C50 C48 1.360 . S
C50 C51 1.372 . S
C51 H46 0.928 . S
C51 C50 1.372 . S
C51 C52 1.404 . S
C52 C51 1.404 . S
C52 C53 1.391 . S
C53 H47 0.930 . S
C53 C49 1.429 . S
C53 C52 1.391 . S
H54 C57 0.930 . S
H55 C60 0.928 . S
H56 C62 0.929 . S
C57 H54 0.930 . S
C57 C58 1.413 . S
C57 C59 1.360 . S
C58 C57 1.413 . S
C58 C62 1.429 1_565 S
C59 C57 1.360 . S
C59 C60 1.372 . S
C60 H55 0.928 . S
C60 C59 1.372 . S
C60 C61 1.404 . S
C61 C60 1.404 . S
C61 C62 1.391 1_565 S
C62 H56 0.929 . S
C62 C58 1.429 1_545 S
C62 C61 1.391 1_545 S
H63 C66 0.931 . S
H64 C69 0.928 . S
H65 C71 0.930 . S
C66 H63 0.931 . S
C66 C67 1.413 . S
C66 C68 1.360 . S
C67 C66 1.413 . S
C67 C71 1.429 . S
C68 C66 1.360 . S
C68 C69 1.372 . S
C69 H64 0.928 . S
C69 C68 1.372 . S
C69 C70 1.404 . S
C70 C69 1.404 . S
C70 C71 1.391 . S
C71 H65 0.930 . S
C71 C67 1.429 . S
C71 C70 1.391 . S
O72 Zn73 1.953 . S
O72 C88 1.233 . S
Zn73 O72 1.953 . S
Zn73 O74 1.950 . S
Zn73 O80 1.919 1_565 S
Zn73 O85 1.924 . S
O74 Zn73 1.950 . S
O74 Zn75 1.900 1_565 S
O74 Zn76 1.953 . S
O74 Zn77 1.964 . S
Zn75 O74 1.900 1_545 S
Zn75 O78 1.933 1_455 S
Zn75 O81 1.941 . S
Zn75 O82 1.965 . S
Zn76 O74 1.953 . S
Zn76 O83 1.938 1_565 S
Zn76 O84 1.906 . S
Zn76 O94 1.953 . S
Zn77 O74 1.964 . S
Zn77 O79 1.932 1_455 S
Zn77 O86 1.977 1_455 S
Zn77 O87 1.910 . S
O78 Zn75 1.933 1_655 S
O78 C89 1.226 . S
O79 Zn77 1.932 1_655 S
O79 C89 1.307 1_565 S
O80 Zn73 1.919 1_545 S
O80 C91 1.253 . S
O81 Zn75 1.941 . S
O81 C91 1.283 . S
O82 Zn75 1.965 . S
O82 C90 1.303 . S
O83 Zn76 1.938 1_545 S
O83 C90 1.247 . S
O84 Zn76 1.906 . S
O84 C92 1.303 1_455 S
O85 Zn73 1.924 . S
O85 C93 1.311 . S
O86 Zn77 1.977 1_655 S
O86 C92 1.272 . S
O87 Zn77 1.910 . S
O87 C93 1.231 . S
C88 O72 1.233 . S
C88 O94 1.298 . S
C89 O78 1.226 . S
C89 O79 1.307 1_545 S
C90 O82 1.303 . S
C90 O83 1.247 . S
C91 O80 1.253 . S
C91 O81 1.283 . S
C92 O84 1.303 1_655 S
C92 O86 1.272 . S
C93 O85 1.311 . S
C93 O87 1.231 . S
O94 Zn76 1.953 . S
O94 C88 1.298 . S
O95 Zn96 1.953 . S
O95 C111 1.225 . S
Zn96 O95 1.953 . S
Zn96 O97 1.949 . S
Zn96 O103 1.919 . S
Zn96 O108 1.924 . S
O97 Zn96 1.949 . S
O97 Zn98 1.923 1_545 S
O97 Zn99 1.950 . S
O97 Zn100 1.945 1_545 S
Zn98 O97 1.923 1_565 S
Zn98 O101 1.933 . S
Zn98 O104 1.941 . S
Zn98 O105 1.965 . S
Zn99 O97 1.950 . S
Zn99 O106 1.938 . S
Zn99 O107 1.906 1_545 S
Zn99 O117 1.953 . S
Zn100 O97 1.945 1_565 S
Zn100 O102 1.932 . S
Zn100 O109 1.977 . S
Zn100 O110 1.910 1_565 S
O101 Zn98 1.933 . S
O101 C112 1.226 . S
O102 Zn100 1.932 . S
O102 C112 1.307 . S
O103 Zn96 1.919 . S
O103 C114 1.253 . S
O104 Zn98 1.941 . S
O104 C114 1.283 1_565 S
O105 Zn98 1.965 . S
O105 C113 1.303 . S
O106 Zn99 1.938 . S
O106 C113 1.247 1_545 S
O107 Zn99 1.906 1_565 S
O107 C115 1.304 . S
O108 Zn96 1.924 . S
O108 C116 1.311 . S
O109 Zn100 1.977 . S
O109 C115 1.272 . S
O110 Zn100 1.910 1_545 S
O110 C116 1.231 . S
C111 O95 1.225 . S
C111 O117 1.298 . S
C112 O101 1.226 . S
C112 O102 1.307 . S
C113 O105 1.303 . S
C113 O106 1.247 1_565 S
C114 O103 1.253 . S
C114 O104 1.283 1_545 S
C115 O107 1.304 . S
C115 O109 1.272 . S
C116 O108 1.311 . S
C116 O110 1.231 . S
O117 Zn99 1.953 . S
O117 C111 1.298 . S
O118 Zn119 1.953 . S
O118 C134 1.225 . S
Zn119 O118 1.953 . S
Zn119 O120 1.949 . S
Zn119 O126 1.919 . S
Zn119 O131 1.924 . S
O120 Zn119 1.949 . S
O120 Zn121 1.923 . S
O120 Zn122 1.950 . S
O120 Zn123 1.945 . S
Zn121 O120 1.923 . S
Zn121 O124 1.933 . S
Zn121 O127 1.941 . S
Zn121 O128 1.965 . S
Zn122 O120 1.950 . S
Zn122 O129 1.938 . S
Zn122 O130 1.906 . S
Zn122 O140 1.953 . S
Zn123 O120 1.945 . S
Zn123 O125 1.932 . S
Zn123 O132 1.977 . S
Zn123 O133 1.910 . S
O124 Zn121 1.933 . S
O124 C135 1.226 . S
O125 Zn123 1.932 . S
O125 C135 1.307 . S
O126 Zn119 1.919 . S
O126 C137 1.253 . S
O127 Zn121 1.941 . S
O127 C137 1.283 . S
O128 Zn121 1.965 . S
O128 C136 1.303 . S
O129 Zn122 1.938 . S
O129 C136 1.247 . S
O130 Zn122 1.906 . S
O130 C138 1.304 . S
O131 Zn119 1.924 . S
O131 C139 1.311 . S
O132 Zn123 1.977 . S
O132 C138 1.272 . S
O133 Zn123 1.910 . S
O133 C139 1.231 . S
C134 O118 1.225 . S
C134 O140 1.298 . S
C135 O124 1.226 . S
C135 O125 1.307 . S
C136 O128 1.303 . S
C136 O129 1.247 . S
C137 O126 1.253 . S
C137 O127 1.283 . S
C138 O130 1.304 . S
C138 O132 1.272 . S
C139 O131 1.311 . S
C139 O133 1.231 . S
O140 Zn122 1.953 . S
O140 C134 1.298 . S
O141 Zn142 1.953 1_655 S
O141 C157 1.225 . S
Zn142 O141 1.953 1_455 S
Zn142 O143 1.949 . S
Zn142 O149 1.919 . S
Zn142 O154 1.924 . S
O143 Zn142 1.949 . S
O143 Zn144 1.923 . S
O143 Zn145 1.950 1_455 S
O143 Zn146 1.945 . S
Zn144 O143 1.923 . S
Zn144 O147 1.933 . S
Zn144 O150 1.941 1_455 S
Zn144 O151 1.965 1_455 S
Zn145 O143 1.950 1_655 S
Zn145 O152 1.938 . S
Zn145 O153 1.906 1_655 S
Zn145 O163 1.953 . S
Zn146 O143 1.945 . S
Zn146 O148 1.932 . S
Zn146 O155 1.977 . S
Zn146 O156 1.910 . S
O147 Zn144 1.933 . S
O147 C158 1.226 . S
O148 Zn146 1.932 . S
O148 C158 1.307 . S
O149 Zn142 1.919 . S
O149 C160 1.253 . S
O150 Zn144 1.941 1_655 S
O150 C160 1.283 1_655 S
O151 Zn144 1.965 1_655 S
O151 C159 1.303 . S
O152 Zn145 1.938 . S
O152 C159 1.247 . S
O153 Zn145 1.906 1_455 S
O153 C161 1.304 . S
O154 Zn142 1.924 . S
O154 C162 1.311 . S
O155 Zn146 1.977 . S
O155 C161 1.272 . S
O156 Zn146 1.910 . S
O156 C162 1.231 . S
C157 O141 1.225 . S
C157 O163 1.298 . S
C158 O147 1.226 . S
C158 O148 1.307 . S
C159 O151 1.303 . S
C159 O152 1.247 . S
C160 O149 1.253 . S
C160 O150 1.283 1_455 S
C161 O153 1.304 . S
C161 O155 1.272 . S
C162 O154 1.311 . S
C162 O156 1.231 . S
O163 Zn145 1.953 . S
O163 C157 1.298 . S
H164 C172 0.950 . S
H165 C177 0.950 . S
H166 C174 0.950 . S
H167 C176 0.950 . S
H168 C178 0.950 . S
H169 C180 0.950 . S
H170 C182 0.950 . S
H171 C183 0.950 . S
C172 H164 0.950 . S
C172 C173 1.380 1_545 S
C172 C174 1.391 . S
C173 C172 1.380 1_565 S
C173 C177 1.399 . S
C174 H166 0.950 . S
C174 C172 1.391 . S
C174 C175 1.400 1_545 S
C175 C174 1.400 1_565 S
C175 C176 1.398 . S
C175 C181 1.491 . S
C176 H167 0.950 . S
C176 C175 1.398 . S
C176 C177 1.391 . S
C177 H165 0.950 . S
C177 C173 1.399 . S
C177 C176 1.391 . S
C178 H168 0.950 . S
C178 C179 1.386 . S
C178 C180 1.391 . S
C179 C178 1.386 . S
C179 C183 1.393 1_565 S
C180 H169 0.950 . S
C180 C178 1.391 . S
C180 C181 1.400 . S
C181 C175 1.491 . S
C181 C180 1.400 . S
C181 C182 1.398 1_565 S
C182 H170 0.950 . S
C182 C181 1.398 1_545 S
C182 C183 1.391 . S
C183 H171 0.950 . S
C183 C179 1.393 1_545 S
C183 C182 1.391 . S
H184 C192 0.950 . S
H185 C197 0.950 . S
H186 C194 0.950 . S
H187 C196 0.950 . S
H188 C198 0.950 . S
H189 C200 0.950 . S
H190 C202 0.950 . S
H191 C203 0.950 . S
C192 H184 0.950 . S
C192 C193 1.386 . S
C192 C194 1.391 . S
C193 C192 1.386 . S
C193 C197 1.393 . S
C194 H186 0.950 . S
C194 C192 1.391 . S
C194 C195 1.400 . S
C195 C194 1.400 . S
C195 C196 1.398 . S
C195 C201 1.491 . S
C196 H187 0.950 . S
C196 C195 1.398 . S
C196 C197 1.391 . S
C197 H185 0.950 . S
C197 C193 1.393 . S
C197 C196 1.391 . S
C198 H188 0.950 . S
C198 C199 1.386 . S
C198 C200 1.391 . S
C199 C198 1.386 . S
C199 C203 1.393 . S
C200 H189 0.950 . S
C200 C198 1.391 . S
C200 C201 1.400 . S
C201 C195 1.491 . S
C201 C200 1.400 . S
C201 C202 1.398 . S
C202 H190 0.950 . S
C202 C201 1.398 . S
C202 C203 1.391 . S
C203 H191 0.950 . S
C203 C199 1.393 . S
C203 C202 1.391 . S
H204 C212 0.950 . S
H205 C217 0.950 . S
H206 C214 0.950 . S
H207 C216 0.950 . S
H208 C218 0.950 . S
H209 C220 0.950 . S
H210 C222 0.950 . S
H211 C223 0.950 . S
C212 H204 0.950 . S
C212 C213 1.386 . S
C212 C214 1.391 . S
C213 C212 1.386 . S
C213 C217 1.393 . S
C214 H206 0.950 . S
C214 C212 1.391 . S
C214 C215 1.400 . S
C215 C214 1.400 . S
C215 C216 1.398 . S
C215 C221 1.491 . S
C216 H207 0.950 . S
C216 C215 1.398 . S
C216 C217 1.391 . S
C217 H205 0.950 . S
C217 C213 1.393 . S
C217 C216 1.391 . S
C218 H208 0.950 . S
C218 C219 1.386 . S
C218 C220 1.391 . S
C219 C218 1.386 . S
C219 C223 1.393 . S
C220 H209 0.950 . S
C220 C218 1.391 . S
C220 C221 1.400 . S
C221 C215 1.491 . S
C221 C220 1.400 . S
C221 C222 1.398 . S
C222 H210 0.950 . S
C222 C221 1.398 . S
C222 C223 1.391 . S
C223 H211 0.950 . S
C223 C219 1.393 . S
C223 C222 1.391 . S
H224 C232 0.950 . S
H225 C237 0.950 . S
H226 C234 0.950 . S
H227 C236 0.950 . S
H228 C238 0.950 . S
H229 C240 0.950 . S
H230 C242 0.950 . S
H231 C243 0.984 . S
C232 H224 0.950 . S
C232 C233 1.386 . S
C232 C234 1.391 . S
C233 C232 1.386 . S
C233 C237 1.393 . S
C234 H226 0.950 . S
C234 C232 1.391 . S
C234 C235 1.400 . S
C235 C234 1.400 . S
C235 C236 1.398 . S
C235 C241 1.491 . S
C236 H227 0.950 . S
C236 C235 1.398 . S
C236 C237 1.391 . S
C237 H225 0.950 . S
C237 C233 1.393 . S
C237 C236 1.391 . S
C238 H228 0.950 . S
C238 C239 1.386 . S
C238 C240 1.391 . S
C239 C238 1.386 . S
C239 C243 1.393 . S
C240 H229 0.950 . S
C240 C238 1.391 . S
C240 C241 1.400 . S
C241 C235 1.491 . S
C241 C240 1.400 . S
C241 C242 1.398 . S
C242 H230 0.950 . S
C242 C241 1.398 . S
C242 C243 1.391 . S
C243 H231 0.984 . S
C243 C239 1.393 . S
C243 C242 1.391 . S
H244 C252 0.950 . S
H245 C257 0.950 . S
H246 C254 0.950 . S
H247 C256 0.950 . S
H248 C258 0.950 . S
H249 C260 0.950 . S
H250 C262 0.950 . S
H251 C263 0.950 . S
C252 H244 0.950 . S
C252 C253 1.416 1_556 S
C252 C254 1.391 . S
C253 C252 1.416 1_554 S
C253 C257 1.364 1_545 S
C254 H246 0.950 . S
C254 C252 1.391 . S
C254 C255 1.400 . S
C255 C254 1.400 . S
C255 C256 1.398 1_545 S
C255 C261 1.491 . S
C256 H247 0.950 . S
C256 C255 1.398 1_565 S
C256 C257 1.391 1_556 S
C257 H245 0.950 . S
C257 C253 1.364 1_565 S
C257 C256 1.391 1_554 S
C258 H248 0.950 . S
C258 C259 1.386 1_565 S
C258 C260 1.391 . S
C259 C258 1.386 1_545 S
C259 C263 1.393 . S
C260 H249 0.950 . S
C260 C258 1.391 . S
C260 C261 1.400 1_565 S
C261 C255 1.491 . S
C261 C260 1.400 1_545 S
C261 C262 1.398 . S
C262 H250 0.950 . S
C262 C261 1.398 . S
C262 C263 1.391 . S
C263 H251 0.950 . S
C263 C259 1.393 . S
C263 C262 1.391 . S
H264 C272 0.950 . S
H265 C277 0.950 . S
H266 C274 0.950 . S
H267 C276 0.950 1_554 S
H268 C278 0.950 . S
H269 C280 0.950 . S
H270 C282 0.950 . S
H271 C283 0.950 . S
C272 H264 0.950 . S
C272 C273 1.386 1_556 S
C272 C274 1.391 . S
C273 C272 1.386 1_554 S
C273 C277 1.393 . S
C274 H266 0.950 . S
C274 C272 1.391 . S
C274 C275 1.400 . S
C275 C274 1.400 . S
C275 C276 1.398 . S
C275 C281 1.491 . S
C276 H267 0.950 1_556 S
C276 C275 1.398 . S
C276 C277 1.391 1_556 S
C277 H265 0.950 . S
C277 C273 1.393 . S
C277 C276 1.391 1_554 S
C278 H268 0.950 . S
C278 C279 1.386 . S
C278 C280 1.391 . S
C279 C278 1.386 . S
C279 C283 1.393 . S
C280 H269 0.950 . S
C280 C278 1.391 . S
C280 C281 1.400 . S
C281 C275 1.491 . S
C281 C280 1.400 . S
C281 C282 1.398 . S
C282 H270 0.950 . S
C282 C281 1.398 . S
C282 C283 1.391 . S
C283 H271 0.950 . S
C283 C279 1.393 . S
C283 C282 1.391 . S
H284 C292 0.950 . S
H285 C297 0.950 . S
H286 C294 0.950 . S
H287 C296 0.950 . S
H288 C298 0.950 . S
H289 C300 0.950 . S
H290 C302 0.950 . S
H291 C303 0.950 . S
C292 H284 0.950 . S
C292 C293 1.386 1_554 S
C292 C294 1.391 1_554 S
C293 C292 1.386 1_556 S
C293 C297 1.393 . S
C294 H286 0.950 . S
C294 C292 1.391 1_556 S
C294 C295 1.400 . S
C295 C294 1.400 . S
C295 C296 1.398 . S
C295 C301 1.491 . S
C296 H287 0.950 . S
C296 C295 1.398 . S
C296 C297 1.391 . S
C297 H285 0.950 . S
C297 C293 1.393 . S
C297 C296 1.391 . S
C298 H288 0.950 . S
C298 C299 1.386 . S
C298 C300 1.391 . S
C299 C298 1.386 . S
C299 C303 1.393 . S
C300 H289 0.950 . S
C300 C298 1.391 . S
C300 C301 1.400 . S
C301 C295 1.491 . S
C301 C300 1.400 . S
C301 C302 1.398 . S
C302 H290 0.950 . S
C302 C301 1.398 . S
C302 C303 1.391 . S
C303 H291 0.950 . S
C303 C299 1.393 . S
C303 C302 1.391 . S
H304 C312 0.950 . S
H305 C317 0.950 . S
H306 C314 0.950 . S
H307 C316 0.950 . S
H308 C318 0.950 . S
H309 C320 0.950 . S
H310 C322 0.950 . S
H311 C323 0.950 . S
C312 H304 0.950 . S
C312 C313 1.386 1_556 S
C312 C314 1.391 . S
C313 C312 1.386 1_554 S
C313 C317 1.393 1_655 S
C314 H306 0.950 . S
C314 C312 1.391 . S
C314 C315 1.400 . S
C315 C314 1.400 . S
C315 C316 1.398 1_655 S
C315 C321 1.491 1_655 S
C316 H307 0.950 . S
C316 C315 1.398 1_455 S
C316 C317 1.391 1_556 S
C317 H305 0.950 . S
C317 C313 1.393 1_455 S
C317 C316 1.391 1_554 S
C318 H308 0.950 . S
C318 C319 1.386 . S
C318 C320 1.391 . S
C319 C318 1.386 . S
C319 C323 1.393 1_455 S
C320 H309 0.950 . S
C320 C318 1.391 . S
C320 C321 1.400 . S
C321 C315 1.491 1_455 S
C321 C320 1.400 . S
C321 C322 1.398 1_455 S
C322 H310 0.950 . S
C322 C321 1.398 1_655 S
C322 C323 1.391 . S
C323 H311 0.950 . S
C323 C319 1.393 1_655 S
C323 C322 1.391 . S
H324 C332 0.950 . S
H325 C337 0.950 . S
H326 C334 0.950 . S
H327 C336 0.950 . S
H328 C338 0.950 . S
H329 C340 0.950 . S
H330 C342 0.950 . S
H331 C343 0.950 . S
C332 H324 0.950 . S
C332 C333 1.386 . S
C332 C334 1.391 . S
C333 C332 1.386 . S
C333 C337 1.393 . S
C334 H326 0.950 . S
C334 C332 1.391 . S
C334 C335 1.400 . S
C335 C334 1.400 . S
C335 C336 1.398 . S
C335 C341 1.491 . S
C336 H327 0.950 . S
C336 C335 1.398 . S
C336 C337 1.391 . S
C337 H325 0.950 . S
C337 C333 1.393 . S
C337 C336 1.391 . S
C338 H328 0.950 . S
C338 C339 1.386 . S
C338 C340 1.391 . S
C339 C338 1.386 . S
C339 C343 1.393 . S
C340 H329 0.950 . S
C340 C338 1.391 . S
C340 C341 1.400 . S
C341 C335 1.491 . S
C341 C340 1.400 . S
C341 C342 1.398 . S
C342 H330 0.950 . S
C342 C341 1.398 . S
C342 C343 1.391 . S
C343 H331 0.950 . S
C343 C339 1.393 . S
C343 C342 1.391 . S
H344 C352 0.950 . S
H345 C357 0.950 . S
H346 C354 0.950 . S
H347 C356 0.950 . S
H348 C358 0.950 . S
H349 C360 0.950 . S
H350 C362 0.950 . S
H351 C363 0.950 . S
C352 H344 0.950 . S
C352 C353 1.385 . S
C352 C354 1.391 . S
C353 C352 1.385 . S
C353 C357 1.394 1_565 S
C354 H346 0.950 . S
C354 C352 1.391 . S
C354 C355 1.400 . S
C355 C354 1.400 . S
C355 C356 1.398 1_565 S
C355 C361 1.491 . S
C356 H347 0.950 . S
C356 C355 1.398 1_545 S
C356 C357 1.391 . S
C357 H345 0.950 . S
C357 C353 1.394 1_545 S
C357 C356 1.391 . S
C358 H348 0.950 . S
C358 C359 1.386 1_545 S
C358 C360 1.391 . S
C359 C358 1.386 1_565 S
C359 C363 1.393 . S
C360 H349 0.950 . S
C360 C358 1.391 . S
C360 C361 1.400 1_545 S
C361 C355 1.491 . S
C361 C360 1.400 1_565 S
C361 C362 1.398 . S
C362 H350 0.950 . S
C362 C361 1.398 . S
C362 C363 1.391 . S
C363 H351 0.950 . S
C363 C359 1.393 . S
C363 C362 1.391 . S
H364 C372 0.950 . S
H365 C377 0.950 . S
H366 C374 0.950 . S
H367 C376 0.950 . S
H368 C378 0.950 . S
H369 C380 0.950 . S
H370 C382 0.950 . S
H371 C383 0.950 . S
C372 H364 0.950 . S
C372 C373 1.386 . S
C372 C374 1.391 . S
C373 C372 1.386 . S
C373 C377 1.393 . S
C374 H366 0.950 . S
C374 C372 1.391 . S
C374 C375 1.400 . S
C375 C374 1.400 . S
C375 C376 1.398 . S
C375 C381 1.491 . S
C376 H367 0.950 . S
C376 C375 1.398 . S
C376 C377 1.391 . S
C377 H365 0.950 . S
C377 C373 1.393 . S
C377 C376 1.391 . S
C378 H368 0.950 . S
C378 C379 1.386 . S
C378 C380 1.391 . S
C379 C378 1.386 . S
C379 C383 1.393 . S
C380 H369 0.950 . S
C380 C378 1.391 . S
C380 C381 1.400 . S
C381 C375 1.491 . S
C381 C380 1.400 . S
C381 C382 1.398 . S
C382 H370 0.950 . S
C382 C381 1.398 . S
C382 C383 1.391 . S
C383 H371 0.950 . S
C383 C379 1.393 . S
C383 C382 1.391 . S
H384 C392 0.950 . S
H385 C397 0.950 . S
H386 C394 0.950 . S
H387 C396 0.950 . S
H388 C398 0.950 . S
H389 C400 0.950 . S
H390 C402 0.950 . S
H391 C403 0.950 . S
C392 H384 0.950 . S
C392 C393 1.386 . S
C392 C394 1.391 . S
C393 C392 1.386 . S
C393 C397 1.393 . S
C394 H386 0.950 . S
C394 C392 1.391 . S
C394 C395 1.400 . S
C395 C394 1.400 . S
C395 C396 1.398 . S
C395 C401 1.491 . S
C396 H387 0.950 . S
C396 C395 1.398 . S
C396 C397 1.391 . S
C397 H385 0.950 . S
C397 C393 1.393 . S
C397 C396 1.391 . S
C398 H388 0.950 . S
C398 C399 1.386 . S
C398 C400 1.391 . S
C399 C398 1.386 . S
C399 C403 1.393 . S
C400 H389 0.950 . S
C400 C398 1.391 . S
C400 C401 1.400 . S
C401 C395 1.491 . S
C401 C400 1.400 . S
C401 C402 1.398 . S
C402 H390 0.950 . S
C402 C401 1.398 . S
C402 C403 1.391 . S
C403 H391 0.950 . S
C403 C399 1.393 . S
C403 C402 1.391 . S
H404 C412 0.950 . S
H405 C417 0.950 . S
H406 C414 0.950 . S
H407 C416 0.950 . S
H408 C418 0.950 . S
H409 C420 0.950 . S
H410 C422 0.950 . S
H411 C423 0.950 . S
C412 H404 0.950 . S
C412 C413 1.386 1_456 S
C412 C414 1.391 . S
C413 C412 1.386 1_654 S
C413 C417 1.393 . S
C414 H406 0.950 . S
C414 C412 1.391 . S
C414 C415 1.400 . S
C415 C414 1.400 . S
C415 C416 1.399 1_456 S
C415 C421 1.491 . S
C416 H407 0.950 . S
C416 C415 1.399 1_654 S
C416 C417 1.390 . S
C417 H405 0.950 . S
C417 C413 1.393 . S
C417 C416 1.390 . S
C418 H408 0.950 . S
C418 C419 1.386 . S
C418 C420 1.391 . S
C419 C418 1.386 . S
C419 C423 1.393 . S
C420 H409 0.950 . S
C420 C418 1.391 . S
C420 C421 1.400 . S
C421 C415 1.491 . S
C421 C420 1.400 . S
C421 C422 1.398 . S
C422 H410 0.950 . S
C422 C421 1.398 . S
C422 C423 1.391 . S
C423 H411 0.950 . S
C423 C419 1.393 . S
C423 C422 1.391 . S
H424 C432 0.953 . S
H425 C437 0.950 . S
H426 C434 0.950 1_554 S
H427 C436 0.950 . S
H428 C438 0.950 . S
H429 C440 0.950 . S
H430 C442 0.950 . S
H431 C443 0.950 . S
C432 H424 0.953 . S
C432 C433 1.385 1_554 S
C432 C434 1.388 1_564 S
C433 C432 1.385 1_556 S
C433 C437 1.384 1_565 S
C434 H426 0.950 1_556 S
C434 C432 1.388 1_546 S
C434 C435 1.400 . S
C435 C434 1.400 . S
C435 C436 1.398 . S
C435 C441 1.491 . S
C436 H427 0.950 . S
C436 C435 1.398 . S
C436 C437 1.391 . S
C437 H425 0.950 . S
C437 C433 1.384 1_545 S
C437 C436 1.391 . S
C438 H428 0.950 . S
C438 C439 1.386 . S
C438 C440 1.391 . S
C439 C438 1.386 . S
C439 C443 1.393 . S
C440 H429 0.950 . S
C440 C438 1.391 . S
C440 C441 1.400 . S
C441 C435 1.491 . S
C441 C440 1.400 . S
C441 C442 1.398 . S
C442 H430 0.950 . S
C442 C441 1.398 . S
C442 C443 1.391 . S
C443 H431 0.950 . S
C443 C439 1.393 . S
C443 C442 1.391 . S
H444 C452 0.950 . S
H445 C457 0.950 1_554 S
H446 C454 0.950 . S
H447 C456 0.950 . S
H448 C458 0.950 . S
H449 C460 0.950 . S
H450 C462 0.950 . S
H451 C463 0.950 . S
C452 H444 0.950 . S
C452 C453 1.386 . S
C452 C454 1.391 . S
C453 C452 1.386 . S
C453 C457 1.393 . S
C454 H446 0.950 . S
C454 C452 1.391 . S
C454 C455 1.400 . S
C455 C454 1.400 . S
C455 C456 1.398 . S
C455 C461 1.491 . S
C456 H447 0.950 . S
C456 C455 1.398 . S
C456 C457 1.391 . S
C457 H445 0.950 1_556 S
C457 C453 1.393 . S
C457 C456 1.391 . S
C458 H448 0.950 . S
C458 C459 1.386 . S
C458 C460 1.391 . S
C459 C458 1.386 . S
C459 C463 1.393 . S
C460 H449 0.950 . S
C460 C458 1.391 . S
C460 C461 1.400 . S
C461 C455 1.491 . S
C461 C460 1.400 . S
C461 C462 1.398 . S
C462 H450 0.950 . S
C462 C461 1.398 . S
C462 C463 1.391 . S
C463 H451 0.950 . S
C463 C459 1.393 . S
C463 C462 1.391 . S
H464 C472 0.950 . S
H465 C477 0.950 . S
H466 C474 0.950 . S
H467 C476 0.950 . S
H468 C478 0.950 . S
H469 C480 0.950 . S
H470 C482 0.950 . S
H471 C483 0.950 . S
C472 H464 0.950 . S
C472 C473 1.386 . S
C472 C474 1.391 . S
C473 C472 1.386 . S
C473 C477 1.393 1_556 S
C474 H466 0.950 . S
C474 C472 1.391 . S
C474 C475 1.400 . S
C475 C474 1.400 . S
C475 C476 1.398 . S
C475 C481 1.491 . S
C476 H467 0.950 . S
C476 C475 1.398 . S
C476 C477 1.391 1_556 S
C477 H465 0.950 . S
C477 C473 1.393 1_554 S
C477 C476 1.391 1_554 S
C478 H468 0.950 . S
C478 C479 1.386 . S
C478 C480 1.391 . S
C479 C478 1.386 . S
C479 C483 1.393 . S
C480 H469 0.950 . S
C480 C478 1.391 . S
C480 C481 1.400 . S
C481 C475 1.491 . S
C481 C480 1.400 . S
C481 C482 1.398 . S
C482 H470 0.950 . S
C482 C481 1.398 . S
C482 C483 1.391 . S
C483 H471 0.950 . S
C483 C479 1.393 . S
C483 C482 1.391 . S
H484 C492 0.950 . S
H485 C497 0.950 . S
H486 C494 0.950 . S
H487 C496 0.950 . S
H488 C498 0.950 . S
H489 C500 0.950 . S
H490 C502 0.950 . S
H491 C503 0.950 . S
C492 H484 0.950 . S
C492 C493 1.386 . S
C492 C494 1.391 . S
C493 C492 1.386 . S
C493 C497 1.393 . S
C494 H486 0.950 . S
C494 C492 1.391 . S
C494 C495 1.400 . S
C495 C494 1.400 . S
C495 C496 1.398 . S
C495 C501 1.491 . S
C496 H487 0.950 . S
C496 C495 1.398 . S
C496 C497 1.391 . S
C497 H485 0.950 . S
C497 C493 1.393 . S
C497 C496 1.391 . S
C498 H488 0.950 . S
C498 C499 1.386 . S
C498 C500 1.391 1_556 S
C499 C498 1.386 . S
C499 C503 1.393 . S
C500 H489 0.950 . S
C500 C498 1.391 1_554 S
C500 C501 1.400 . S
C501 C495 1.491 . S
C501 C500 1.400 . S
C501 C502 1.398 1_554 S
C502 H490 0.950 . S
C502 C501 1.398 1_556 S
C502 C503 1.391 . S
C503 H491 0.950 . S
C503 C499 1.393 . S
C503 C502 1.391 . S
H504 C512 0.950 . S
H505 C517 0.950 . S
H506 C514 0.950 . S
H507 C516 0.950 . S
H508 C518 0.950 . S
H509 C520 0.950 . S
H510 C522 0.950 . S
H511 C523 0.950 . S
C512 H504 0.950 . S
C512 C513 1.382 1_545 S
C512 C514 1.391 . S
C513 C512 1.382 1_565 S
C513 C517 1.396 . S
C514 H506 0.950 . S
C514 C512 1.391 . S
C514 C515 1.390 1_545 S
C515 C514 1.390 1_565 S
C515 C516 1.408 . S
C515 C521 1.491 1_554 S
C516 H507 0.950 . S
C516 C515 1.408 . S
C516 C517 1.391 . S
C517 H505 0.950 . S
C517 C513 1.396 . S
C517 C516 1.391 . S
C518 H508 0.950 . S
C518 C519 1.398 . S
C518 C520 1.391 . S
C519 C518 1.398 . S
C519 C523 1.380 1_565 S
C520 H509 0.950 . S
C520 C518 1.391 . S
C520 C521 1.407 . S
C521 C515 1.491 1_556 S
C521 C520 1.407 . S
C521 C522 1.392 1_565 S
C522 H510 0.950 . S
C522 C521 1.392 1_545 S
C522 C523 1.391 . S
C523 H511 0.950 . S
C523 C519 1.380 1_545 S
C523 C522 1.391 . S
H524 C532 0.950 . S
H525 C537 0.950 . S
H526 C534 0.945 1_556 S
H527 C536 0.950 . S
H528 C538 0.950 . S
H529 C540 0.950 1_554 S
H530 C542 0.950 . S
H531 C543 0.950 . S
C532 H524 0.950 . S
C532 C533 1.386 . S
C532 C534 1.395 . S
C533 C532 1.386 . S
C533 C537 1.393 . S
C534 H526 0.945 1_554 S
C534 C532 1.395 . S
C534 C535 1.401 . S
C535 C534 1.401 . S
C535 C536 1.398 . S
C535 C541 1.491 1_554 S
C536 H527 0.950 . S
C536 C535 1.398 . S
C536 C537 1.391 . S
C537 H525 0.950 . S
C537 C533 1.393 . S
C537 C536 1.391 . S
C538 H528 0.950 . S
C538 C539 1.386 . S
C538 C540 1.391 . S
C539 C538 1.386 . S
C539 C543 1.393 . S
C540 H529 0.950 1_556 S
C540 C538 1.391 . S
C540 C541 1.400 . S
C541 C535 1.491 1_556 S
C541 C540 1.400 . S
C541 C542 1.398 . S
C542 H530 0.950 . S
C542 C541 1.398 . S
C542 C543 1.391 . S
C543 H531 0.950 . S
C543 C539 1.393 . S
C543 C542 1.391 . S
H544 C552 0.950 . S
H545 C557 0.950 . S
H546 C554 0.941 1_556 S
H547 C556 0.950 . S
H548 C558 0.950 . S
H549 C560 0.950 1_554 S
H550 C562 0.950 . S
H551 C563 0.950 . S
C552 H544 0.950 . S
C552 C553 1.386 . S
C552 C554 1.397 . S
C553 C552 1.386 . S
C553 C557 1.393 . S
C554 H546 0.941 1_554 S
C554 C552 1.397 . S
C554 C555 1.403 . S
C555 C554 1.403 . S
C555 C556 1.398 . S
C555 C561 1.491 1_554 S
C556 H547 0.950 . S
C556 C555 1.398 . S
C556 C557 1.391 . S
C557 H545 0.950 . S
C557 C553 1.393 . S
C557 C556 1.391 . S
C558 H548 0.950 . S
C558 C559 1.386 . S
C558 C560 1.391 . S
C559 C558 1.386 . S
C559 C563 1.393 . S
C560 H549 0.950 1_556 S
C560 C558 1.391 . S
C560 C561 1.400 . S
C561 C555 1.491 1_556 S
C561 C560 1.400 . S
C561 C562 1.398 . S
C562 H550 0.950 . S
C562 C561 1.398 . S
C562 C563 1.391 . S
C563 H551 0.950 . S
C563 C559 1.393 . S
C563 C562 1.391 . S
H564 C572 0.950 . S
H565 C577 0.950 . S
H566 C574 0.950 . S
H567 C576 0.950 . S
H568 C578 0.950 . S
H569 C580 0.950 . S
H570 C582 0.950 . S
H571 C583 0.950 . S
C572 H564 0.950 . S
C572 C573 1.386 . S
C572 C574 1.391 . S
C573 C572 1.386 . S
C573 C577 1.393 1_655 S
C574 H566 0.950 . S
C574 C572 1.391 . S
C574 C575 1.400 . S
C575 C574 1.400 . S
C575 C576 1.398 1_655 S
C575 C581 1.491 . S
C576 H567 0.950 . S
C576 C575 1.398 1_455 S
C576 C577 1.391 . S
C577 H565 0.950 . S
C577 C573 1.393 1_455 S
C577 C576 1.391 . S
C578 H568 0.950 . S
C578 C579 1.386 1_455 S
C578 C580 1.391 . S
C579 C578 1.386 1_655 S
C579 C583 1.393 . S
C580 H569 0.950 . S
C580 C578 1.391 . S
C580 C581 1.400 1_455 S
C581 C575 1.491 . S
C581 C580 1.400 1_655 S
C581 C582 1.398 . S
C582 H570 0.950 . S
C582 C581 1.398 . S
C582 C583 1.391 . S
C583 H571 0.950 . S
C583 C579 1.393 . S
C583 C582 1.391 . S
H584 C592 0.950 . S
H585 C597 0.950 . S
H586 C594 0.950 . S
H587 C596 0.950 . S
H588 C598 0.950 . S
H589 C600 0.950 . S
H590 C602 0.950 . S
H591 C603 0.942 1_545 S
C592 H584 0.950 . S
C592 C593 1.386 1_545 S
C592 C594 1.391 . S
C593 C592 1.386 1_565 S
C593 C597 1.393 . S
C594 H586 0.950 . S
C594 C592 1.391 . S
C594 C595 1.400 1_545 S
C595 C594 1.400 1_565 S
C595 C596 1.398 . S
C595 C601 1.491 . S
C596 H587 0.950 . S
C596 C595 1.398 . S
C596 C597 1.391 . S
C597 H585 0.950 . S
C597 C593 1.393 . S
C597 C596 1.391 . S
C598 H588 0.950 . S
C598 C599 1.386 . S
C598 C600 1.391 . S
C599 C598 1.386 . S
C599 C603 1.402 . S
C600 H589 0.950 . S
C600 C598 1.391 . S
C600 C601 1.400 . S
C601 C595 1.491 . S
C601 C600 1.400 . S
C601 C602 1.398 1_565 S
C602 H590 0.950 . S
C602 C601 1.398 1_545 S
C602 C603 1.390 1_545 S
C603 H591 0.942 1_565 S
C603 C599 1.402 . S
C603 C602 1.390 1_565 S
H604 C612 0.950 . S
H605 C617 0.950 . S
H606 C614 0.950 . S
H607 C616 0.950 . S
H608 C618 0.950 . S
H609 C620 0.950 . S
H610 C622 0.950 . S
H611 C623 0.950 . S
C612 H604 0.950 . S
C612 C613 1.386 . S
C612 C614 1.391 . S
C613 C612 1.386 . S
C613 C617 1.393 . S
C614 H606 0.950 . S
C614 C612 1.391 . S
C614 C615 1.400 . S
C615 C614 1.400 . S
C615 C616 1.398 . S
C615 C621 1.491 . S
C616 H607 0.950 . S
C616 C615 1.398 . S
C616 C617 1.391 . S
C617 H605 0.950 . S
C617 C613 1.393 . S
C617 C616 1.391 . S
C618 H608 0.950 . S
C618 C619 1.386 . S
C618 C620 1.391 . S
C619 C618 1.386 . S
C619 C623 1.393 . S
C620 H609 0.950 . S
C620 C618 1.391 . S
C620 C621 1.400 . S
C621 C615 1.491 . S
C621 C620 1.400 . S
C621 C622 1.398 . S
C622 H610 0.950 . S
C622 C621 1.398 . S
C622 C623 1.391 . S
C623 H611 0.950 . S
C623 C619 1.393 . S
C623 C622 1.391 . S
H624 C632 0.950 . S
H625 C637 0.950 . S
H626 C634 0.950 . S
H627 C636 0.950 . S
H628 C638 0.950 . S
H629 C640 0.950 . S
H630 C642 0.950 . S
H631 C643 0.950 . S
C632 H624 0.950 . S
C632 C633 1.386 . S
C632 C634 1.391 . S
C633 C632 1.386 . S
C633 C637 1.393 . S
C634 H626 0.950 . S
C634 C632 1.391 . S
C634 C635 1.400 . S
C635 C634 1.400 . S
C635 C636 1.398 . S
C635 C641 1.491 . S
C636 H627 0.950 . S
C636 C635 1.398 . S
C636 C637 1.391 . S
C637 H625 0.950 . S
C637 C633 1.393 . S
C637 C636 1.391 . S
C638 H628 0.950 . S
C638 C639 1.386 . S
C638 C640 1.391 . S
C639 C638 1.386 . S
C639 C643 1.393 . S
C640 H629 0.950 . S
C640 C638 1.391 . S
C640 C641 1.400 . S
C641 C635 1.491 . S
C641 C640 1.400 . S
C641 C642 1.398 . S
C642 H630 0.950 . S
C642 C641 1.398 . S
C642 C643 1.391 . S
C643 H631 0.950 . S
C643 C639 1.393 . S
C643 C642 1.391 . S
C173 C61 1.524 . S
C179 C88 1.533 . S
C199 C111 1.635 . S
C193 C70 1.628 . S
C219 C134 1.588 . S
C213 C43 1.572 . S
C239 C161 1.475 . S
C233 C52 1.546 . S
C259 C89 1.506 . S
C253 C25 1.497 1_545 S
C273 C34 1.457 . S
C279 C112 1.480 . S
C293 C7 1.381 1_556 S
C299 C135 1.399 . S
C313 C16 1.500 . S
C319 C160 1.512 . S
C339 C90 0.164 . S
C333 C50 0.422 . S
C359 C113 0.206 . S
C353 C59 0.158 . S
C379 C136 0.268 . S
C373 C67 0.322 . S
C393 C41 0.331 . S
C399 C162 0.449 . S
C413 C14 0.525 . S
C419 C93 0.645 . S
C439 C116 0.559 . S
C433 C23 0.430 1_556 S
C459 C139 0.627 . S
C453 C31 0.503 . S
C473 C5 0.220 . S
C479 C159 0.266 . S
C493 C49 1.621 . S
C499 C91 1.625 . S
C513 C58 1.509 . S
C519 C114 1.526 1_565 S
C539 C137 1.557 . S
C533 C68 1.531 . S
C559 C158 1.340 . S
C553 C40 1.303 . S
C573 C13 1.624 . S
C579 C92 1.569 . S
C599 C115 1.507 . S
C593 C22 1.543 . S
C619 C138 1.476 . S
C613 C32 1.537 . S
C633 C4 1.620 . S
C639 C157 1.670 . S
