# Generated by pormake.
# Topology cml, (3,6)-cn, num edge types: 1
# Building blocks:
#     Node 0, Type 0, BuildingBlock: CUQRIR_clean_linker_1, # of connection points: 3
#     Node 1, Type 0, BuildingBlock: CUQRIR_clean_linker_1, # of connection points: 3
#     Node 2, Type 0, BuildingBlock: CUQRIR_clean_linker_1, # of connection points: 3
#     Node 3, Type 0, BuildingBlock: CUQRIR_clean_linker_1, # of connection points: 3
#     Node 4, Type 0, BuildingBlock: CUQRIR_clean_linker_1, # of connection points: 3
#     Node 5, Type 0, BuildingBlock: CUQRIR_clean_linker_1, # of connection points: 3
#     Node 6, Type 0, BuildingBlock: CUQRIR_clean_linker_1, # of connection points: 3
#     Node 7, Type 0, BuildingBlock: CUQRIR_clean_linker_1, # of connection points: 3
#     Node 8, Type 1, BuildingBlock: OJICUG_clean_sbu_0, # of connection points: 6
#     Node 9, Type 1, BuildingBlock: OJICUG_clean_sbu_0, # of connection points: 6
#     Node 10, Type 1, BuildingBlock: OJICUG_clean_sbu_0, # of connection points: 6
#     Node 11, Type 1, BuildingBlock: OJICUG_clean_sbu_0, # of connection points: 6
#     Edge 12, Type (0, 1), BuildingBlock: UVAHIK_clean_linker_0, # of connection points: 2
#     Edge 13, Type (0, 1), BuildingBlock: UVAHIK_clean_linker_0, # of connection points: 2
#     Edge 14, Type (0, 1), BuildingBlock: UVAHIK_clean_linker_0, # of connection points: 2
#     Edge 15, Type (0, 1), BuildingBlock: UVAHIK_clean_linker_0, # of connection points: 2
#     Edge 16, Type (0, 1), BuildingBlock: UVAHIK_clean_linker_0, # of connection points: 2
#     Edge 17, Type (0, 1), BuildingBlock: UVAHIK_clean_linker_0, # of connection points: 2
#     Edge 18, Type (0, 1), BuildingBlock: UVAHIK_clean_linker_0, # of connection points: 2
#     Edge 19, Type (0, 1), BuildingBlock: UVAHIK_clean_linker_0, # of connection points: 2
#     Edge 20, Type (0, 1), BuildingBlock: UVAHIK_clean_linker_0, # of connection points: 2
#     Edge 21, Type (0, 1), BuildingBlock: UVAHIK_clean_linker_0, # of connection points: 2
#     Edge 22, Type (0, 1), BuildingBlock: UVAHIK_clean_linker_0, # of connection points: 2
#     Edge 23, Type (0, 1), BuildingBlock: UVAHIK_clean_linker_0, # of connection points: 2
#     Edge 24, Type (0, 1), BuildingBlock: UVAHIK_clean_linker_0, # of connection points: 2
#     Edge 25, Type (0, 1), BuildingBlock: UVAHIK_clean_linker_0, # of connection points: 2
#     Edge 26, Type (0, 1), BuildingBlock: UVAHIK_clean_linker_0, # of connection points: 2
#     Edge 27, Type (0, 1), BuildingBlock: UVAHIK_clean_linker_0, # of connection points: 2
#     Edge 28, Type (0, 1), BuildingBlock: UVAHIK_clean_linker_0, # of connection points: 2
#     Edge 29, Type (0, 1), BuildingBlock: UVAHIK_clean_linker_0, # of connection points: 2
#     Edge 30, Type (0, 1), BuildingBlock: UVAHIK_clean_linker_0, # of connection points: 2
#     Edge 31, Type (0, 1), BuildingBlock: UVAHIK_clean_linker_0, # of connection points: 2
#     Edge 32, Type (0, 1), BuildingBlock: UVAHIK_clean_linker_0, # of connection points: 2
#     Edge 33, Type (0, 1), BuildingBlock: UVAHIK_clean_linker_0, # of connection points: 2
#     Edge 34, Type (0, 1), BuildingBlock: UVAHIK_clean_linker_0, # of connection points: 2
#     Edge 35, Type (0, 1), BuildingBlock: UVAHIK_clean_linker_0, # of connection points: 2
# Relax obj value: 0.003
# Max RMSD: 0.061
# Mean RMSD: 0.046
data_MOF--net-cml--node1-OJICUG_clean_sbu_0--node2-CUQRIR_clean_linker_1--edge1-UVAHIK_clean_linker_0
_symmetry_space_group_name_H-M    P1
_symmetry_Int_Tables_number       1
_symmetry_cell_setting            triclinic
loop_
_symmetry_equiv_pos_as_xyz
'x, y, z'
_cell_length_a     49.71021
_cell_length_b     48.639527
_cell_length_c     42.139604
_cell_angle_alpha  89.97766
_cell_angle_beta   89.960599
_cell_angle_gamma 90.073046
loop_
_atom_site_label
_atom_site_type_symbol
_atom_site_fract_x
_atom_site_fract_y
_atom_site_fract_z
_atom_type_partial_charge
C0 C 0.22942 0.36588 0.03513 0.0
N1 N 0.25023 0.38378 0.03591 0.0
N2 N 0.21705 0.36654 0.00649 0.0
C3 C 0.22132 0.34766 0.06234 0.0
C4 C 0.23123 0.3855 0.98984 0.0
N5 N 0.25131 0.39603 0.00779 0.0
C6 C 0.22682 0.39189 0.95525 0.0
H7 H 0.23339 0.3285 0.06162 0.0
H8 H 0.19969 0.34217 0.06083 0.0
H9 H 0.22538 0.35806 0.08529 0.0
H10 H 0.20757 0.40312 0.95254 0.0
H11 H 0.22526 0.37249 0.94151 0.0
H12 H 0.24306 0.40483 0.94514 0.0
C13 C 0.76065 0.63338 0.52956 0.0
N14 N 0.74046 0.61486 0.53262 0.0
N15 N 0.77433 0.62911 0.50216 0.0
C16 C 0.76577 0.65689 0.55199 0.0
C17 C 0.76184 0.60719 0.48887 0.0
N18 N 0.74135 0.59844 0.50746 0.0
C19 C 0.76804 0.59593 0.45642 0.0
H20 H 0.75629 0.67574 0.5423 0.0
H21 H 0.78758 0.66091 0.5545 0.0
H22 H 0.7573 0.65265 0.57586 0.0
H23 H 0.7878 0.60329 0.44759 0.0
H24 H 0.75204 0.60244 0.43968 0.0
H25 H 0.76824 0.57316 0.45695 0.0
C26 C 0.76235 0.36809 0.0352 0.0
N27 N 0.74144 0.38588 0.03475 0.0
N28 N 0.77476 0.36743 0.00656 0.0
C29 C 0.7691 0.34959 0.06267 0.0
C30 C 0.76056 0.38541 0.98863 0.0
N31 N 0.74017 0.39642 0.00571 0.0
C32 C 0.76538 0.39058 0.95385 0.0
H33 H 0.76933 0.36144 0.08511 0.0
H34 H 0.78898 0.33963 0.0595 0.0
H35 H 0.75335 0.3335 0.06483 0.0
H36 H 0.75655 0.37343 0.93997 0.0
H37 H 0.78717 0.39141 0.94849 0.0
H38 H 0.75616 0.4102 0.94603 0.0
C39 C 0.23414 0.63438 0.53002 0.0
N40 N 0.25364 0.615 0.53148 0.0
N41 N 0.21967 0.63161 0.50294 0.0
C42 C 0.23131 0.65789 0.553 0.0
C43 C 0.23106 0.60986 0.48814 0.0
N44 N 0.25189 0.59999 0.50524 0.0
C45 C 0.22122 0.59757 0.45749 0.0
H46 H 0.21563 0.6526 0.57073 0.0
H47 H 0.22501 0.67692 0.54055 0.0
H48 H 0.25042 0.66195 0.56573 0.0
H49 H 0.23232 0.60689 0.43733 0.0
H50 H 0.19942 0.60157 0.4542 0.0
H51 H 0.22489 0.57507 0.45712 0.0
C52 C 0.7328 0.86231 0.02939 0.0
N53 N 0.75306 0.88083 0.03176 0.0
N54 N 0.71865 0.86644 0.00233 0.0
C55 C 0.72802 0.83898 0.0522 0.0
C56 C 0.73093 0.88826 0.98851 0.0
N57 N 0.75173 0.89712 0.0065 0.0
C58 C 0.72417 0.89931 0.95612 0.0
H59 H 0.73752 0.8201 0.04261 0.0
H60 H 0.70625 0.83486 0.05508 0.0
H61 H 0.73669 0.84349 0.07587 0.0
H62 H 0.72374 0.92208 0.95652 0.0
H63 H 0.70437 0.89171 0.94773 0.0
H64 H 0.74002 0.89292 0.93911 0.0
C65 C 0.26076 0.13258 0.53005 0.0
N66 N 0.24072 0.11388 0.53316 0.0
N67 N 0.27448 0.12836 0.50267 0.0
C68 C 0.26528 0.15652 0.55203 0.0
C69 C 0.26204 0.10644 0.48941 0.0
N70 N 0.24165 0.09755 0.50796 0.0
C71 C 0.26873 0.09458 0.45742 0.0
H72 H 0.25675 0.17533 0.54108 0.0
H73 H 0.28705 0.16006 0.5558 0.0
H74 H 0.25559 0.1531 0.57542 0.0
H75 H 0.29006 0.09862 0.45114 0.0
H76 H 0.25563 0.10419 0.43924 0.0
H77 H 0.26487 0.0721 0.45722 0.0
C78 C 0.26098 0.86668 0.03248 0.0
N79 N 0.23998 0.88435 0.03203 0.0
N80 N 0.27332 0.86599 0.00379 0.0
C81 C 0.2679 0.84829 0.06 0.0
C82 C 0.25897 0.88382 0.98584 0.0
N83 N 0.23856 0.89477 0.00294 0.0
C84 C 0.2637 0.88892 0.95102 0.0
H85 H 0.26861 0.86034 0.0823 0.0
H86 H 0.28761 0.83805 0.05656 0.0
H87 H 0.25198 0.83244 0.06267 0.0
H88 H 0.2547 0.8718 0.93722 0.0
H89 H 0.28546 0.8896 0.94555 0.0
H90 H 0.25453 0.90857 0.94324 0.0
C91 C 0.73108 0.13188 0.53012 0.0
N92 N 0.75113 0.11312 0.53186 0.0
N93 N 0.71706 0.12875 0.50276 0.0
C94 C 0.72734 0.15529 0.55306 0.0
C95 C 0.72933 0.10743 0.48808 0.0
N96 N 0.7502 0.09815 0.50554 0.0
C97 C 0.7204 0.09503 0.4571 0.0
H98 H 0.71124 0.14976 0.57016 0.0
H99 H 0.72114 0.17426 0.54042 0.0
H100 H 0.74603 0.1596 0.56653 0.0
H101 H 0.73162 0.10477 0.43729 0.0
H102 H 0.69857 0.09843 0.45328 0.0
H103 H 0.72471 0.07265 0.4567 0.0
Sc104 Sc -0.00305 0.84281 0.31348 0.0
Sc105 Sc 0.99558 0.91538 0.3182 0.0
Sc106 Sc -0.00398 0.87549 0.38799 0.0
O107 O -0.00382 0.87788 0.33985 0.0
C108 C 0.95688 0.82604 0.36941 0.0
C109 C 0.95646 0.88055 0.27361 0.0
C110 C 0.95509 0.92474 0.37607 0.0
C111 C 0.03689 0.88185 0.27466 0.0
C112 C 0.03632 0.82715 0.37056 0.0
C113 C 0.03556 0.92618 0.37613 0.0
O114 O 0.96547 0.82349 0.3411 0.0
O115 O 0.96465 0.90315 0.28529 0.0
O116 O 0.96449 0.9052 0.39263 0.0
O117 O 0.02848 0.85826 0.2832 0.0
O118 O 0.02712 0.84529 0.38923 0.0
O119 O 0.02644 0.93197 0.34874 0.0
O120 O 0.02768 0.82383 0.34241 0.0
O121 O 0.02678 0.90414 0.28501 0.0
O122 O 0.02652 0.90648 0.39282 0.0
O123 O 0.96638 0.85741 0.28136 0.0
O124 O 0.966 0.84384 0.38866 0.0
O125 O 0.96428 0.93095 0.34881 0.0
Sc126 Sc 0.99474 0.1559 0.81257 0.0
Sc127 Sc 0.99522 0.08336 0.81697 0.0
Sc128 Sc -0.00377 0.12279 0.887 0.0
O129 O 0.99541 0.1207 0.83883 0.0
C130 C 0.03551 0.17212 0.86771 0.0
C131 C 0.03473 0.11777 0.77238 0.0
C132 C 0.03621 0.07293 0.87427 0.0
C133 C 0.95434 0.11766 0.7737 0.0
C134 C 0.95573 0.17138 0.87008 0.0
C135 C 0.95579 0.07264 0.8754 0.0
O136 O 0.02632 0.17495 0.83976 0.0
O137 O 0.02654 0.09521 0.78427 0.0
O138 O 0.02794 0.093 0.89088 0.0
O139 O 0.96282 0.1411 0.78255 0.0
O140 O 0.96456 0.15288 0.88863 0.0
O141 O 0.96383 0.06759 0.84733 0.0
O142 O 0.96482 0.17511 0.84219 0.0
O143 O 0.96437 0.09525 0.78375 0.0
O144 O 0.96595 0.09151 0.89248 0.0
O145 O 0.02485 0.14097 0.77999 0.0
O146 O 0.02666 0.15429 0.88716 0.0
O147 O 0.02605 0.06678 0.8475 0.0
Sc148 Sc 0.49693 0.34262 0.31372 0.0
Sc149 Sc 0.49547 0.41504 0.31931 0.0
Sc150 Sc 0.49546 0.37462 0.38866 0.0
O151 O 0.49596 0.37741 0.34053 0.0
C152 C 0.457 0.32475 0.36909 0.0
C153 C 0.45636 0.38077 0.27433 0.0
C154 C 0.45434 0.42347 0.377 0.0
C155 C 0.53686 0.38189 0.27546 0.0
C156 C 0.53632 0.32698 0.37097 0.0
C157 C 0.53483 0.42576 0.37762 0.0
O158 O 0.46519 0.32308 0.34055 0.0
O159 O 0.46424 0.40322 0.28669 0.0
O160 O 0.4631 0.40331 0.39307 0.0
O161 O 0.52878 0.35823 0.28411 0.0
O162 O 0.5274 0.3453 0.38963 0.0
O163 O 0.52676 0.43092 0.34962 0.0
O164 O 0.52729 0.32341 0.34301 0.0
O165 O 0.52639 0.40406 0.28562 0.0
O166 O 0.52494 0.4066 0.39449 0.0
O167 O 0.46665 0.35761 0.28135 0.0
O168 O 0.46633 0.34203 0.38883 0.0
O169 O 0.46439 0.4305 0.35042 0.0
Sc170 Sc 0.49653 0.65396 0.81396 0.0
Sc171 Sc 0.49628 0.58145 0.818 0.0
Sc172 Sc 0.494 0.62079 0.88811 0.0
O173 O 0.49561 0.61872 0.83999 0.0
C174 C 0.53454 0.66999 0.87139 0.0
C175 C 0.5369 0.6156 0.77468 0.0
C176 C 0.5354 0.57171 0.87725 0.0
C177 C 0.45658 0.61632 0.77368 0.0
C178 C 0.45497 0.66955 0.86928 0.0
C179 C 0.45509 0.56985 0.87435 0.0
O180 O 0.5283 0.67159 0.84219 0.0
O181 O 0.52854 0.59313 0.78655 0.0
O182 O 0.52631 0.59168 0.89352 0.0
O183 O 0.46485 0.63971 0.78313 0.0
O184 O 0.46163 0.64995 0.88758 0.0
O185 O 0.46421 0.56493 0.84675 0.0
O186 O 0.46645 0.67408 0.8428 0.0
O187 O 0.46641 0.59376 0.78366 0.0
O188 O 0.46423 0.58892 0.89186 0.0
O189 O 0.52684 0.63877 0.78192 0.0
O190 O 0.52323 0.65341 0.89055 0.0
O191 O 0.52617 0.56535 0.85006 0.0
C192 C 0.17503 0.3565 0.97764 0.0
C193 C 0.19781 0.34727 0.99404 0.0
C194 C 0.15766 0.33773 0.96312 0.0
C195 C 0.15514 0.26478 0.9359 0.0
H196 H 0.07861 0.27917 0.92991 0.0
C197 C 0.07396 0.18392 0.90343 0.0
C198 C 0.05629 0.1915 0.87893 0.0
C199 C 0.09221 0.20296 0.91575 0.0
C200 C 0.1 0.27506 0.93127 0.0
H201 H 0.22027 0.31137 0.00857 0.0
H202 H 0.18914 0.27843 0.98533 0.0
H203 H 0.10774 0.31226 0.95661 0.0
H204 H 0.04399 0.2248 0.84792 0.0
H205 H 0.07552 0.25833 0.87019 0.0
H206 H 0.1469 0.22692 0.9117 0.0
C207 C 0.18498 0.30013 0.98256 0.0
C208 C 0.11674 0.29403 0.94642 0.0
C209 C 0.20256 0.31894 0.99648 0.0
C210 C 0.05749 0.21835 0.86666 0.0
C211 C 0.07535 0.23755 0.87947 0.0
C212 C 0.13829 0.24559 0.92134 0.0
C213 C 0.16252 0.30925 0.96519 0.0
C214 C 0.14457 0.28915 0.94897 0.0
C215 C 0.09269 0.23004 0.90425 0.0
C216 C 0.11062 0.25061 0.91889 0.0
H217 H 0.17089 0.37828 0.97573 0.0
H218 H 0.1408 0.34563 0.94969 0.0
H219 H 0.1765 0.26054 0.93664 0.0
H220 H 0.07349 0.16334 0.91327 0.0
H221 H 0.10539 0.19679 0.93494 0.0
C222 C 0.81776 0.65355 0.50116 0.0
C223 C 0.79286 0.64767 0.48711 0.0
C224 C 0.83509 0.67274 0.48728 0.0
C225 C 0.85569 0.70373 0.41378 0.0
H226 H 0.8739 0.76824 0.46334 0.0
C227 C 0.91874 0.79289 0.36094 0.0
C228 C 0.93664 0.80638 0.38148 0.0
C229 C 0.90013 0.77389 0.37289 0.0
C230 C 0.86947 0.75017 0.44928 0.0
H231 H 0.76659 0.65641 0.44749 0.0
H232 H 0.79751 0.68924 0.42229 0.0
H233 H 0.84489 0.73301 0.48612 0.0
H234 H 0.94961 0.81007 0.43044 0.0
H235 H 0.91833 0.77631 0.45095 0.0
H236 H 0.8811 0.72005 0.3774 0.0
C237 C 0.80341 0.67927 0.44421 0.0
C238 C 0.85271 0.73012 0.46235 0.0
C239 C 0.78584 0.66058 0.45849 0.0
C240 C 0.93576 0.80036 0.41405 0.0
C241 C 0.91763 0.78105 0.42586 0.0
C242 C 0.87298 0.72351 0.4009 0.0
C243 C 0.82798 0.68575 0.45874 0.0
C244 C 0.84577 0.70676 0.44473 0.0
C245 C 0.89943 0.76762 0.40554 0.0
C246 C 0.8802 0.74697 0.41855 0.0
H247 H 0.82364 0.64342 0.52295 0.0
H248 H 0.85407 0.67737 0.49872 0.0
H249 H 0.85055 0.68576 0.39985 0.0
H250 H 0.91894 0.79722 0.33572 0.0
H251 H 0.8862 0.76432 0.35654 0.0
C252 C 0.81824 0.35592 0.98183 0.0
C253 C 0.79379 0.34748 0.9953 0.0
C254 C 0.83567 0.33661 0.96845 0.0
C255 C 0.85729 0.26612 0.97154 0.0
H256 H 0.87364 0.273 0.8819 0.0
C257 C 0.91726 0.18219 0.90624 0.0
C258 C 0.93515 0.1905 0.88229 0.0
C259 C 0.89905 0.20089 0.91932 0.0
C260 C 0.86974 0.27095 0.90706 0.0
H261 H 0.76852 0.31255 0.00637 0.0
H262 H 0.79967 0.27842 0.98424 0.0
H263 H 0.8453 0.30726 0.90765 0.0
H264 H 0.94808 0.22482 0.85322 0.0
H265 H 0.91735 0.25774 0.87692 0.0
H266 H 0.88248 0.23062 0.97167 0.0
C267 C 0.80511 0.29999 0.98362 0.0
C268 C 0.85338 0.29053 0.92169 0.0
C269 C 0.78744 0.31937 0.99631 0.0
C270 C 0.93429 0.21776 0.8714 0.0
C271 C 0.91652 0.23662 0.88496 0.0
C272 C 0.87415 0.24686 0.95712 0.0
C273 C 0.82914 0.30852 0.96913 0.0
C274 C 0.84697 0.28818 0.95398 0.0
C275 C 0.89875 0.22851 0.90928 0.0
C276 C 0.88054 0.24892 0.92461 0.0
H277 H 0.82362 0.37749 0.98133 0.0
H278 H 0.85424 0.34355 0.95761 0.0
H279 H 0.85267 0.26406 0.99656 0.0
H280 H 0.91735 0.16121 0.91489 0.0
H281 H 0.88528 0.19362 0.93738 0.0
C282 C 0.20521 0.66136 0.45899 0.0
C283 C 0.20085 0.65077 0.48957 0.0
C284 C 0.18721 0.68004 0.44578 0.0
C285 C 0.1412 0.73402 0.46553 0.0
H286 H 0.10811 0.71976 0.38381 0.0
C287 C 0.05839 0.80387 0.4162 0.0
C288 C 0.05662 0.80798 0.38327 0.0
C289 C 0.07637 0.78483 0.42871 0.0
C290 C 0.11753 0.72433 0.40636 0.0
H291 H 0.17475 0.65157 0.53061 0.0
H292 H 0.14345 0.68541 0.50785 0.0
H293 H 0.13844 0.68581 0.40694 0.0
H294 H 0.07269 0.79578 0.3376 0.0
H295 H 0.10511 0.76321 0.35955 0.0
H296 H 0.12141 0.77289 0.4647 0.0
C297 C 0.16063 0.67875 0.49404 0.0
C298 C 0.13467 0.70477 0.41967 0.0
C299 C 0.17842 0.65956 0.50702 0.0
C300 C 0.07356 0.79293 0.36308 0.0
C301 C 0.09197 0.77415 0.37568 0.0
C302 C 0.12449 0.75382 0.45198 0.0
C303 C 0.16487 0.68897 0.46325 0.0
C304 C 0.14644 0.70941 0.44944 0.0
C305 C 0.09344 0.76973 0.40868 0.0
C306 C 0.11223 0.74914 0.42234 0.0
H307 H 0.22281 0.65547 0.44551 0.0
H308 H 0.19105 0.68801 0.42219 0.0
H309 H 0.15045 0.73815 0.48831 0.0
H310 H 0.04533 0.81485 0.43241 0.0
H311 H 0.07638 0.78158 0.45413 0.0
C312 C 0.70626 0.8345 0.95954 0.0
C313 C 0.69975 0.84785 0.98803 0.0
C314 C 0.68835 0.81576 0.94599 0.0
C315 C 0.63712 0.76656 0.96624 0.0
H316 H 0.6123 0.77384 0.87943 0.0
C317 C 0.5542 0.69642 0.91649 0.0
C318 C 0.5548 0.68926 0.88422 0.0
C319 C 0.57227 0.71568 0.92862 0.0
C320 C 0.61939 0.77115 0.90351 0.0
H321 H 0.66954 0.85284 0.02446 0.0
H322 H 0.63842 0.81896 0.00145 0.0
H323 H 0.64306 0.80803 0.90142 0.0
H324 H 0.57521 0.69613 0.83945 0.0
H325 H 0.60769 0.72884 0.86089 0.0
H326 H 0.61457 0.72926 0.96831 0.0
C327 C 0.65731 0.82318 0.98955 0.0
C328 C 0.63682 0.79088 0.91611 0.0
C329 C 0.67501 0.84237 0.00272 0.0
C330 C 0.57419 0.70139 0.8644 0.0
C331 C 0.59266 0.72031 0.87669 0.0
C332 C 0.62015 0.74654 0.9535 0.0
C333 C 0.6639 0.80971 0.96112 0.0
C334 C 0.6456 0.78885 0.94765 0.0
C335 C 0.59179 0.72789 0.90894 0.0
C336 C 0.61081 0.74868 0.92204 0.0
H337 H 0.72539 0.83837 0.94805 0.0
H338 H 0.69389 0.80545 0.92416 0.0
H339 H 0.644 0.76441 0.99051 0.0
H340 H 0.53925 0.68771 0.93229 0.0
H341 H 0.57047 0.72137 0.95336 0.0
C342 C 0.28642 0.15892 0.45836 0.0
C343 C 0.29305 0.14683 0.48752 0.0
C344 C 0.30424 0.17702 0.44355 0.0
C345 C 0.37557 0.20096 0.44559 0.0
H346 H 0.34658 0.26311 0.39913 0.0
C347 C 0.43651 0.29764 0.4131 0.0
C348 C 0.43707 0.30458 0.38071 0.0
C349 C 0.4189 0.27753 0.42427 0.0
C350 C 0.35486 0.24569 0.4118 0.0
H351 H 0.32332 0.14364 0.52404 0.0
H352 H 0.35399 0.17661 0.49936 0.0
H353 H 0.31596 0.22981 0.42309 0.0
H354 H 0.41923 0.29633 0.33474 0.0
H355 H 0.38755 0.26158 0.35472 0.0
H356 H 0.41446 0.21792 0.43549 0.0
C357 C 0.33542 0.17161 0.48725 0.0
C358 C 0.3374 0.22649 0.42543 0.0
C359 C 0.31776 0.15308 0.50173 0.0
C360 C 0.41924 0.29135 0.3598 0.0
C361 C 0.40115 0.27159 0.37117 0.0
C362 C 0.39296 0.22046 0.43249 0.0
C363 C 0.3289 0.18385 0.45792 0.0
C364 C 0.34751 0.20391 0.44265 0.0
C365 C 0.40113 0.26433 0.40342 0.0
C366 C 0.38273 0.243 0.41564 0.0
H367 H 0.26732 0.15444 0.44716 0.0
H368 H 0.29865 0.18554 0.42075 0.0
H369 H 0.38418 0.18358 0.45798 0.0
H370 H 0.45014 0.3073 0.42978 0.0
H371 H 0.41905 0.27235 0.44928 0.0
C372 C 0.31693 0.85473 0.97924 0.0
C373 C 0.29246 0.84615 0.99254 0.0
C374 C 0.33447 0.83552 0.96584 0.0
C375 C 0.35498 0.76416 0.96817 0.0
H376 H 0.37532 0.77367 0.87998 0.0
C377 C 0.41466 0.68047 0.90245 0.0
C378 C 0.43419 0.68895 0.88043 0.0
C379 C 0.39645 0.69937 0.9151 0.0
C380 C 0.37025 0.77086 0.90476 0.0
H381 H 0.26722 0.81113 0.00324 0.0
H382 H 0.29847 0.77719 0.98096 0.0
H383 H 0.34684 0.80785 0.90569 0.0
H384 H 0.44986 0.72376 0.85413 0.0
H385 H 0.41894 0.75696 0.87709 0.0
H386 H 0.37904 0.72786 0.96796 0.0
C387 C 0.30391 0.79876 0.98054 0.0
C388 C 0.35384 0.79041 0.91938 0.0
C389 C 0.28616 0.81804 0.99331 0.0
C390 C 0.43483 0.71658 0.87083 0.0
C391 C 0.41698 0.73561 0.88396 0.0
C392 C 0.37182 0.74487 0.95377 0.0
C393 C 0.328 0.80741 0.96625 0.0
C394 C 0.34599 0.78713 0.95114 0.0
C395 C 0.39771 0.72733 0.90655 0.0
C396 C 0.37959 0.74785 0.92179 0.0
H397 H 0.32224 0.87632 0.97888 0.0
H398 H 0.35308 0.84258 0.95521 0.0
H399 H 0.3493 0.76135 0.99279 0.0
H400 H 0.41355 0.65922 0.91006 0.0
H401 H 0.38148 0.69201 0.93174 0.0
C402 C 0.7028 0.15843 0.45864 0.0
C403 C 0.6981 0.14758 0.48902 0.0
C404 C 0.68494 0.17723 0.44536 0.0
C405 C 0.63985 0.2316 0.46518 0.0
H406 H 0.60623 0.2185 0.38352 0.0
C407 C 0.55861 0.30371 0.41648 0.0
C408 C 0.5566 0.30773 0.38355 0.0
C409 C 0.5763 0.28432 0.42885 0.0
C410 C 0.61582 0.22275 0.40605 0.0
H411 H 0.67144 0.14791 0.52957 0.0
H412 H 0.64043 0.18199 0.50674 0.0
H413 H 0.63579 0.18369 0.40637 0.0
H414 H 0.57207 0.29509 0.33775 0.0
H415 H 0.60403 0.26195 0.35943 0.0
H416 H 0.62108 0.271 0.46458 0.0
C417 C 0.65776 0.17542 0.49311 0.0
C418 C 0.63249 0.20269 0.41921 0.0
C419 C 0.67538 0.1561 0.50614 0.0
C420 C 0.57312 0.29232 0.36323 0.0
C421 C 0.59126 0.27319 0.37568 0.0
C422 C 0.62364 0.25189 0.45178 0.0
C423 C 0.66243 0.18602 0.46259 0.0
C424 C 0.64442 0.20692 0.44896 0.0
C425 C 0.59286 0.26876 0.40867 0.0
C426 C 0.61119 0.24765 0.42216 0.0
H427 H 0.72063 0.15279 0.44542 0.0
H428 H 0.68909 0.18549 0.42197 0.0
H429 H 0.64926 0.23539 0.48795 0.0
H430 H 0.54587 0.31497 0.43279 0.0
H431 H 0.57642 0.2811 0.45427 0.0
C432 C 0.27448 0.44062 0.00517 0.0
C433 C 0.27313 0.41282 0.99676 0.0
C434 C 0.29483 0.45735 0.99284 0.0
C435 C 0.33858 0.46412 0.924 0.0
H436 H 0.38098 0.51259 0.9772 0.0
C437 C 0.42856 0.52597 0.8746 0.0
C438 C 0.43335 0.55226 0.88718 0.0
C439 C 0.40902 0.50884 0.88801 0.0
C440 C 0.36905 0.49951 0.9619 0.0
H441 H 0.29153 0.38024 0.96963 0.0
H442 H 0.32713 0.40958 0.94738 0.0
H443 H 0.34707 0.48289 1.00128 0.0
H444 H 0.42073 0.5816 0.92298 0.0
H445 H 0.38609 0.55221 0.94559 0.0
H446 H 0.35984 0.48111 0.8845 0.0
C447 C 0.31258 0.41848 0.96352 0.0
C448 C 0.34975 0.48241 0.97577 0.0
C449 C 0.29245 0.40173 0.97624 0.0
C450 C 0.41774 0.56132 0.91294 0.0
C451 C 0.39798 0.54436 0.92607 0.0
C452 C 0.35762 0.48147 0.91006 0.0
C453 C 0.31383 0.44649 0.97154 0.0
C454 C 0.33441 0.46451 0.95696 0.0
C455 C 0.39357 0.51777 0.91404 0.0
C456 C 0.37315 0.49937 0.92882 0.0
H457 H 0.25942 0.44943 0.02068 0.0
H458 H 0.29524 0.47892 0.99918 0.0
H459 H 0.32673 0.45074 0.90893 0.0
H460 H 0.44039 0.51832 0.8549 0.0
H461 H 0.40648 0.48837 0.87837 0.0
C462 C 0.6943 0.59025 0.49251 0.0
C463 C 0.72024 0.58006 0.49785 0.0
C464 C 0.67413 0.57299 0.48098 0.0
C465 C 0.65591 0.49973 0.4694 0.0
H466 H 0.60819 0.5299 0.40552 0.0
C467 C 0.56296 0.44073 0.42383 0.0
C468 C 0.55655 0.44286 0.39141 0.0
C469 C 0.58316 0.45705 0.43705 0.0
C470 C 0.6215 0.52105 0.42309 0.0
H471 H 0.7456 0.54409 0.49656 0.0
H472 H 0.71055 0.51372 0.47541 0.0
H473 H 0.64299 0.55881 0.42854 0.0
H474 H 0.56675 0.46358 0.34738 0.0
H475 H 0.60235 0.49167 0.37035 0.0
H476 H 0.63492 0.4617 0.46317 0.0
C477 C 0.70556 0.53493 0.48049 0.0
C478 C 0.64122 0.53776 0.43666 0.0
C479 C 0.72567 0.55223 0.49228 0.0
C480 C 0.57101 0.46155 0.37248 0.0
C481 C 0.59135 0.47776 0.38569 0.0
C482 C 0.63626 0.48296 0.45569 0.0
C483 C 0.67962 0.54522 0.4743 0.0
C484 C 0.65861 0.52734 0.46006 0.0
C485 C 0.59758 0.47578 0.41817 0.0
C486 C 0.61878 0.49344 0.43242 0.0
H487 H 0.68988 0.61175 0.49664 0.0
H488 H 0.65427 0.58147 0.47707 0.0
H489 H 0.66881 0.49111 0.48753 0.0
H490 H 0.55215 0.42667 0.43918 0.0
H491 H 0.58713 0.4553 0.46224 0.0
C492 C 0.70384 0.40672 0.96784 0.0
C493 C 0.71927 0.41429 0.99426 0.0
C494 C 0.68419 0.42441 0.95603 0.0
C495 C 0.64067 0.48251 0.97711 0.0
H496 H 0.6385 0.49422 0.88609 0.0
C497 C 0.57018 0.56258 0.91916 0.0
C498 C 0.55736 0.55479 0.89079 0.0
C499 C 0.59051 0.54627 0.93218 0.0
C500 C 0.63861 0.49095 0.91152 0.0
H501 H 0.72573 0.44531 0.03012 0.0
H502 H 0.69101 0.47653 0.00964 0.0
H503 H 0.67232 0.46377 0.90865 0.0
H504 H 0.55596 0.52364 0.85393 0.0
H505 H 0.59096 0.49508 0.87688 0.0
H506 H 0.60668 0.50937 0.97996 0.0
C507 C 0.69426 0.45701 0.99788 0.0
C508 C 0.65802 0.47354 0.92443 0.0
C509 C 0.71408 0.43932 0.00954 0.0
C510 C 0.56546 0.53039 0.8757 0.0
C511 C 0.58568 0.51405 0.88879 0.0
C512 C 0.62111 0.49984 0.96417 0.0
C513 C 0.67938 0.44988 0.97072 0.0
C514 C 0.65915 0.46899 0.95732 0.0
C515 C 0.59844 0.52176 0.9172 0.0
C516 C 0.61975 0.50411 0.93118 0.0
H517 H 0.70708 0.38711 0.95633 0.0
H518 H 0.67264 0.41811 0.93549 0.0
H519 H 0.64093 0.47919 0.00253 0.0
H520 H 0.56457 0.58132 0.93135 0.0
H521 H 0.60018 0.55302 0.95384 0.0
C522 C 0.27779 0.5571 0.51183 0.0
C523 C 0.2716 0.58069 0.4942 0.0
C524 C 0.29656 0.53818 0.50021 0.0
C525 C 0.328 0.5159 0.42529 0.0
H526 H 0.3843 0.4864 0.47899 0.0
C527 C 0.42198 0.46296 0.37441 0.0
C528 C 0.43175 0.4396 0.39027 0.0
C529 C 0.40118 0.47851 0.38757 0.0
C530 C 0.36847 0.49417 0.4638 0.0
H531 H 0.28077 0.60407 0.45194 0.0
H532 H 0.31336 0.57114 0.43141 0.0
H533 H 0.35009 0.51645 0.50192 0.0
H534 H 0.42692 0.41405 0.43224 0.0
H535 H 0.39057 0.44108 0.4549 0.0
H536 H 0.34643 0.49393 0.38712 0.0
C537 C 0.30339 0.56674 0.45371 0.0
C538 C 0.3489 0.51134 0.47694 0.0
C539 C 0.28481 0.58555 0.46536 0.0
C540 C 0.42002 0.432 0.4194 0.0
C541 C 0.39926 0.44755 0.43253 0.0
C542 C 0.3475 0.49875 0.41218 0.0
C543 C 0.30927 0.5427 0.4708 0.0
C544 C 0.32874 0.52271 0.45769 0.0
C545 C 0.38971 0.47105 0.41684 0.0
C546 C 0.36816 0.48801 0.43118 0.0
H547 H 0.2678 0.55322 0.53424 0.0
H548 H 0.30075 0.51981 0.51387 0.0
H549 H 0.31238 0.52399 0.41001 0.0
H550 H 0.43055 0.46944 0.35198 0.0
H551 H 0.39446 0.49673 0.3751 0.0
C552 C 0.76659 0.94354 0.99095 0.0
C553 C 0.77247 0.91579 0.99645 0.0
C554 C 0.78634 0.96117 0.97892 0.0
C555 C 0.83535 0.99723 0.96741 0.0
H556 H 0.88329 0.96802 0.90311 0.0
C557 C 0.92745 0.05766 0.92151 0.0
C558 C 0.93395 0.05559 0.88911 0.0
C559 C 0.90737 0.04115 0.93474 0.0
C560 C 0.8699 0.97661 0.92079 0.0
H561 H 0.80331 0.8846 0.99486 0.0
H562 H 0.83829 0.91546 0.97483 0.0
H563 H 0.84904 0.93848 0.92631 0.0
H564 H 0.92395 0.03483 0.84508 0.0
H565 H 0.88856 0.00641 0.86804 0.0
H566 H 0.85572 0.03562 0.96115 0.0
C567 C 0.81834 0.92362 0.97898 0.0
C568 C 0.8505 0.95954 0.93447 0.0
C569 C 0.79852 0.90602 0.99077 0.0
C570 C 0.91962 0.03683 0.87016 0.0
C571 C 0.89941 0.02043 0.88338 0.0
C572 C 0.85468 0.01436 0.9536 0.0
C573 C 0.81238 0.95132 0.97241 0.0
C574 C 0.83305 0.96959 0.95803 0.0
C575 C 0.89316 0.02226 0.91587 0.0
C576 C 0.87224 0.00424 0.93018 0.0
H577 H 0.74658 0.95138 0.99552 0.0
H578 H 0.78098 0.98231 0.97394 0.0
H579 H 0.8224 0.00559 0.98567 0.0
H580 H 0.93814 0.07178 0.93688 0.0
H581 H 0.90338 0.04283 0.95993 0.0
C582 C 0.21818 0.05298 0.50754 0.0
C583 C 0.22 0.08032 0.49748 0.0
C584 C 0.19771 0.03601 0.49592 0.0
C585 C 0.13203 0.03828 0.45357 0.0
H586 H 0.14906 0.96255 0.43308 0.0
C587 C 0.06289 0.96955 0.37724 0.0
C588 C 0.05738 0.94329 0.38958 0.0
C589 C 0.08275 0.98607 0.39097 0.0
C590 C 0.14401 0.98361 0.4389 0.0
H591 H 0.20271 0.11175 0.46773 0.0
H592 H 0.16728 0.08214 0.44648 0.0
H593 H 0.18338 0.99187 0.45692 0.0
H594 H 0.06887 0.9135 0.42549 0.0
H595 H 0.10373 0.94226 0.44908 0.0
H596 H 0.09282 0.03007 0.43475 0.0
C597 C 0.18097 0.07374 0.46393 0.0
C598 C 0.16359 0.00039 0.45272 0.0
C599 C 0.20125 0.09066 0.47582 0.0
C600 C 0.07252 0.93369 0.4155 0.0
C601 C 0.09258 0.95006 0.42893 0.0
C602 C 0.11257 0.02159 0.43944 0.0
C603 C 0.17898 0.04615 0.47373 0.0
C604 C 0.15787 0.02797 0.46014 0.0
C605 C 0.09771 0.97648 0.41698 0.0
C606 C 0.1184 0.99414 0.43191 0.0
H607 H 0.23278 0.04476 0.52406 0.0
H608 H 0.1966 0.01499 0.50427 0.0
H609 H 0.12674 0.05925 0.45951 0.0
H610 H 0.05156 0.97757 0.35734 0.0
H611 H 0.0865 0.0063 0.38114 0.0
C612 C 0.2126 0.93775 0.0064 0.0
C613 C 0.21761 0.91254 0.99146 0.0
C614 C 0.1929 0.95547 0.99449 0.0
C615 C 0.15667 0.97141 0.92075 0.0
H616 H 0.10656 0.00933 0.97596 0.0
C617 C 0.06532 0.03085 0.87208 0.0
C618 C 0.05814 0.05557 0.88713 0.0
C619 C 0.08521 0.01395 0.88498 0.0
C620 C 0.12064 -0.0008 0.96024 0.0
H621 H 0.20525 0.88506 0.9539 0.0
H622 H 0.17095 0.91605 0.93269 0.0
H623 H 0.14013 0.9786 0.99885 0.0
H624 H 0.0668 0.08217 0.92724 0.0
H625 H 0.10179 0.05293 0.94933 0.0
H626 H 0.13743 0.99206 0.88216 0.0
C627 C 0.18255 0.9225 0.95313 0.0
C628 C 0.13982 0.98156 0.97337 0.0
C629 C 0.2021 0.90479 0.96516 0.0
C630 C 0.07166 0.06318 0.91511 0.0
C631 C 0.09163 0.04634 0.92791 0.0
C632 C 0.13761 0.98913 0.90764 0.0
C633 C 0.17795 0.94817 0.96743 0.0
C634 C 0.15791 0.96734 0.95373 0.0
C635 C 0.09852 0.02142 0.91313 0.0
C636 C 0.11925 0.00312 0.92719 0.0
H637 H 0.22433 0.94388 0.02685 0.0
H638 H 0.18984 0.97515 0.00595 0.0
H639 H 0.17067 0.96109 0.90505 0.0
H640 H 0.05526 0.02425 0.85059 0.0
H641 H 0.08976 0.99472 0.8732 0.0
C642 C 0.77797 0.05652 0.51218 0.0
C643 C 0.77092 0.0799 0.49465 0.0
C644 C 0.79831 0.03906 0.50122 0.0
C645 C 0.85676 0.03785 0.44698 0.0
H646 H 0.84597 0.95888 0.44694 0.0
C647 C 0.92401 0.96531 0.37441 0.0
C648 C 0.933 0.94135 0.38972 0.0
C649 C 0.90414 0.98164 0.38827 0.0
C650 C 0.84936 0.98088 0.44709 0.0
H651 H 0.77974 0.10421 0.45298 0.0
H652 H 0.81472 0.07358 0.43329 0.0
H653 H 0.81197 0.98875 0.47068 0.0
H654 H 0.9276 0.91544 0.43128 0.0
H655 H 0.89303 0.94402 0.45535 0.0
H656 H 0.89394 0.03008 0.42312 0.0
C657 C 0.80485 0.06861 0.45549 0.0
C658 C 0.82996 0.99795 0.46076 0.0
C659 C 0.78462 0.08591 0.46643 0.0
C660 C 0.92123 0.9338 0.41884 0.0
C661 C 0.9013 0.95007 0.4326 0.0
C662 C 0.87607 0.02082 0.43328 0.0
C663 C 0.81195 0.04498 0.47272 0.0
C664 C 0.83332 0.02663 0.46048 0.0
C665 C 0.89276 0.97431 0.41763 0.0
C666 C 0.87244 0.9922 0.43288 0.0
H667 H 0.76765 0.0518 0.53415 0.0
H668 H 0.80356 0.02113 0.51514 0.0
H669 H 0.86015 0.05985 0.44695 0.0
H670 H 0.93255 0.9717 0.35193 0.0
H671 H 0.89764 3e-05 0.37597 0.0
C672 C 0.27585 0.40869 0.07688 0.0
C673 C 0.27109 0.38467 0.05946 0.0
C674 C 0.29613 0.40934 0.09987 0.0
C675 C 0.35789 0.37268 0.12518 0.0
H676 H 0.34491 0.4089 0.2057 0.0
C677 C 0.4276 0.35803 0.233 0.0
C678 C 0.43459 0.38171 0.2503 0.0
C679 C 0.40767 0.35912 0.20969 0.0
C680 C 0.34892 0.39894 0.18321 0.0
H681 H 0.28337 0.34265 0.05175 0.0
H682 H 0.31845 0.34329 0.09238 0.0
H683 H 0.31027 0.40977 0.16468 0.0
H684 H 0.42567 0.42505 0.25686 0.0
H685 H 0.39088 0.42683 0.21617 0.0
H686 H 0.39638 0.36156 0.14387 0.0
C687 C 0.30698 0.36185 0.08814 0.0
C688 C 0.32911 0.39948 0.15968 0.0
C689 C 0.28679 0.36131 0.06516 0.0
C690 C 0.42087 0.40641 0.24398 0.0
C691 C 0.40081 0.40743 0.22078 0.0
C692 C 0.37761 0.37203 0.14874 0.0
C693 C 0.31193 0.38587 0.10579 0.0
C694 C 0.3333 0.38621 0.13044 0.0
C695 C 0.39414 0.38384 0.20323 0.0
C696 C 0.37329 0.38501 0.17807 0.0
H697 H 0.26368 0.4268 0.07291 0.0
H698 H 0.29957 0.42824 0.11281 0.0
H699 H 0.36199 0.3627 0.10272 0.0
H700 H 0.43768 0.33865 0.23722 0.0
H701 H 0.40271 0.34051 0.19683 0.0
C702 C 0.715 0.58966 0.57352 0.0
C703 C 0.72003 0.61406 0.55683 0.0
C704 C 0.69501 0.58874 0.59685 0.0
C705 C 0.63407 0.62553 0.62457 0.0
H706 H 0.64759 0.587 0.70356 0.0
C707 C 0.56612 0.6387 0.73408 0.0
C708 C 0.55873 0.61475 0.75067 0.0
C709 C 0.58583 0.63779 0.71048 0.0
C710 C 0.64343 0.59761 0.6815 0.0
H711 H 0.70765 0.65624 0.55013 0.0
H712 H 0.67328 0.65513 0.59155 0.0
H713 H 0.68169 0.58678 0.66183 0.0
H714 H 0.56679 0.5711 0.75575 0.0
H715 H 0.60129 0.5696 0.71454 0.0
H716 H 0.59598 0.63666 0.64441 0.0
C717 C 0.68456 0.63658 0.58667 0.0
C718 C 0.66293 0.59744 0.65756 0.0
C719 C 0.70446 0.6374 0.5633 0.0
C720 C 0.57193 0.58994 0.74344 0.0
C721 C 0.59179 0.58908 0.71993 0.0
C722 C 0.61467 0.62581 0.64854 0.0
C723 C 0.67961 0.61225 0.6038 0.0
C724 C 0.65855 0.61156 0.62888 0.0
C725 C 0.59875 0.61295 0.703 0.0
C726 C 0.6192 0.61201 0.67734 0.0
H727 H 0.72668 0.57139 0.56852 0.0
H728 H 0.69144 0.56955 0.60921 0.0
H729 H 0.6298 0.63615 0.60255 0.0
H730 H 0.55647 0.65819 0.73901 0.0
H731 H 0.59105 0.6566 0.69816 0.0
C732 C 0.72673 0.39856 0.08865 0.0
C733 C 0.72077 0.38815 0.05847 0.0
C734 C 0.70689 0.39934 0.11217 0.0
C735 C 0.65781 0.41074 0.15335 0.0
H736 H 0.609 0.34865 0.15832 0.0
C737 C 0.56562 0.40879 0.23743 0.0
C738 C 0.55903 0.38362 0.25196 0.0
C739 C 0.58576 0.41012 0.21428 0.0
C740 C 0.62262 0.36603 0.1575 0.0
H741 H 0.68971 0.3711 0.02854 0.0
H742 H 0.65463 0.37313 0.06918 0.0
H743 H 0.64327 0.34977 0.11721 0.0
H744 H 0.56913 0.34025 0.25416 0.0
H745 H 0.60449 0.34269 0.21437 0.0
H746 H 0.63759 0.42656 0.19432 0.0
C747 C 0.67469 0.38014 0.07512 0.0
C748 C 0.64204 0.36688 0.13359 0.0
C749 C 0.69459 0.37922 0.05176 0.0
C750 C 0.57346 0.35994 0.24327 0.0
C751 C 0.59367 0.3613 0.22028 0.0
C752 C 0.63841 0.40984 0.17739 0.0
C753 C 0.68068 0.38984 0.10578 0.0
C754 C 0.65987 0.38925 0.13116 0.0
C755 C 0.59988 0.38633 0.20524 0.0
C756 C 0.6206 0.38744 0.17978 0.0
H757 H 0.74682 0.40578 0.09403 0.0
H758 H 0.71228 0.40674 0.13555 0.0
H759 H 0.67105 0.4284 0.152 0.0
H760 H 0.55489 0.42744 0.24346 0.0
H761 H 0.5898 0.42968 0.20295 0.0
C762 C 0.26716 0.60825 0.58702 0.0
C763 C 0.27424 0.61274 0.55525 0.0
C764 C 0.28696 0.6073 0.61049 0.0
C765 C 0.33416 0.59228 0.65296 0.0
H766 H 0.3914 0.64643 0.64942 0.0
C767 C 0.42572 0.58997 0.73756 0.0
C768 C 0.43494 0.61531 0.74947 0.0
C769 C 0.40595 0.58906 0.71402 0.0
C770 C 0.37545 0.6313 0.65088 0.0
H771 H 0.30714 0.61986 0.52273 0.0
H772 H 0.34207 0.61766 0.56361 0.0
H773 H 0.35728 0.64562 0.60797 0.0
H774 H 0.4301 0.65959 0.74617 0.0
H775 H 0.39548 0.65793 0.70541 0.0
H776 H 0.35203 0.57836 0.69629 0.0
C777 C 0.32124 0.61509 0.57055 0.0
C778 C 0.35608 0.6306 0.6269 0.0
C779 C 0.30139 0.61604 0.54712 0.0
C780 C 0.42363 0.6397 0.7375 0.0
C781 C 0.40387 0.63877 0.71396 0.0
C782 C 0.35355 0.59295 0.67695 0.0
C783 C 0.31423 0.61092 0.60256 0.0
C784 C 0.33517 0.61114 0.6277 0.0
C785 C 0.39492 0.61345 0.70181 0.0
C786 C 0.37437 0.61254 0.67624 0.0
H787 H 0.24623 0.60577 0.59359 0.0
H788 H 0.28084 0.6044 0.63494 0.0
H789 H 0.31844 0.57687 0.65412 0.0
H790 H 0.43397 0.57076 0.74614 0.0
H791 H 0.39969 0.56923 0.70494 0.0
C792 C 0.78947 0.85844 0.06185 0.0
C793 C 0.77382 0.88176 0.05552 0.0
C794 C 0.80947 0.85927 0.08504 0.0
C795 C 0.83102 0.89828 0.15592 0.0
H796 H 0.89797 0.85903 0.14288 0.0
C797 C 0.92165 0.90598 0.24192 0.0
C798 C 0.93487 0.88123 0.24932 0.0
C799 C 0.90192 0.90673 0.2183 0.0
C800 C 0.87928 0.86989 0.14698 0.0
H801 H 0.7672 0.92443 0.06721 0.0
H802 H 0.80266 0.92629 0.10759 0.0
H803 H 0.86426 0.85962 0.10095 0.0
H804 H 0.93738 0.83779 0.23782 0.0
H805 H 0.903 0.83919 0.19673 0.0
H806 H 0.84623 0.90865 0.20195 0.0
C807 C 0.79905 0.90711 0.09525 0.0
C808 C 0.85994 0.87022 0.12297 0.0
C809 C 0.77894 0.90618 0.07209 0.0
C810 C 0.92769 0.85723 0.23275 0.0
C811 C 0.90809 0.85804 0.20903 0.0
C812 C 0.85044 0.89806 0.1799 0.0
C813 C 0.81446 0.88359 0.10214 0.0
C814 C 0.83547 0.88422 0.12723 0.0
C815 C 0.8951 0.88281 0.20143 0.0
C816 C 0.87469 0.88367 0.17577 0.0
H817 H 0.78618 0.83958 0.04877 0.0
H818 H 0.82077 0.84072 0.08988 0.0
H819 H 0.81225 0.90895 0.16018 0.0
H820 H 0.92662 0.92487 0.25421 0.0
H821 H 0.89238 0.92617 0.21281 0.0
C822 C 0.21584 0.09053 0.57584 0.0
C823 C 0.21969 0.11368 0.5566 0.0
C824 C 0.19554 0.09026 0.59878 0.0
C825 C 0.13246 0.12578 0.62224 0.0
H826 H 0.14682 0.09248 0.70413 0.0
C827 C 0.06269 0.14059 0.73032 0.0
C828 C 0.05638 0.11698 0.74814 0.0
C829 C 0.08253 0.13971 0.70685 0.0
C830 C 0.14245 0.10164 0.68127 0.0
H831 H 0.20543 0.15446 0.54539 0.0
H832 H 0.17037 0.15462 0.58617 0.0
H833 H 0.18146 0.09184 0.66312 0.0
H834 H 0.06636 0.074 0.75546 0.0
H835 H 0.10112 0.07259 0.71457 0.0
H836 H 0.0936 0.13597 0.6407 0.0
C837 C 0.18265 0.13641 0.58339 0.0
C838 C 0.16225 0.10121 0.65772 0.0
C839 C 0.20284 0.13652 0.56031 0.0
C840 C 0.07065 0.09256 0.74217 0.0
C841 C 0.09066 0.09176 0.71886 0.0
C842 C 0.11275 0.12638 0.64587 0.0
C843 C 0.17877 0.11328 0.60299 0.0
C844 C 0.15753 0.11333 0.62791 0.0
C845 C 0.09668 0.11528 0.70082 0.0
C846 C 0.11755 0.11436 0.67566 0.0
H847 H 0.22879 0.07279 0.57331 0.0
H848 H 0.1929 0.07196 0.61309 0.0
H849 H 0.12793 0.13486 0.59939 0.0
H850 H 0.05213 0.15976 0.73424 0.0
H851 H 0.08696 0.15824 0.69357 0.0
C852 C 0.2257 0.89718 0.08605 0.0
C853 C 0.21947 0.88678 0.05595 0.0
C854 C 0.20605 0.89805 0.1098 0.0
C855 C 0.1574 0.90967 0.15157 0.0
H856 H 0.10819 0.84794 0.15699 0.0
C857 C 0.06579 0.90848 0.23652 0.0
C858 C 0.05899 0.88336 0.25105 0.0
C859 C 0.08581 0.90962 0.21323 0.0
C860 C 0.12192 0.86522 0.15606 0.0
H861 H 0.18811 0.86983 0.02638 0.0
H862 H 0.15336 0.87205 0.0674 0.0
H863 H 0.14216 0.84884 0.11554 0.0
H864 H 0.06862 0.83988 0.25306 0.0
H865 H 0.1038 0.84198 0.21301 0.0
H866 H 0.13761 0.92561 0.19276 0.0
C867 C 0.17349 0.87897 0.07312 0.0
C868 C 0.14117 0.86594 0.13194 0.0
C869 C 0.1932 0.87795 0.04953 0.0
C870 C 0.07311 0.85954 0.24218 0.0
C871 C 0.09322 0.86071 0.21905 0.0
C872 C 0.13818 0.90889 0.17582 0.0
C873 C 0.17975 0.88866 0.10371 0.0
C874 C 0.15914 0.88818 0.12933 0.0
C875 C 0.09962 0.8857 0.20402 0.0
C876 C 0.12021 0.88663 0.17837 0.0
H877 H 0.24586 0.90434 0.09121 0.0
H878 H 0.21166 0.90544 0.13311 0.0
H879 H 0.17075 0.92724 0.15011 0.0
H880 H 0.05529 0.92724 0.24267 0.0
H881 H 0.08999 0.92915 0.20191 0.0
C882 C 0.79866 0.11605 0.54807 0.0
C883 C 0.7716 0.11158 0.55586 0.0
C884 C 0.81837 0.11555 0.57167 0.0
C885 C 0.8525 0.13136 0.62841 0.0
H886 H 0.8497 0.07819 0.69694 0.0
C887 C 0.92041 0.14068 0.73854 0.0
C888 C 0.93231 0.11641 0.75001 0.0
C889 C 0.90041 0.13958 0.7153 0.0
C890 C 0.85087 0.09306 0.67785 0.0
H891 H 0.74359 0.10315 0.5938 0.0
H892 H 0.77794 0.10266 0.6355 0.0
H893 H 0.8162 0.07632 0.6547 0.0
H894 H 0.9321 0.07188 0.74621 0.0
H895 H 0.89744 0.07006 0.70547 0.0
H896 H 0.88742 0.14779 0.65117 0.0
C897 C 0.78412 0.10605 0.61116 0.0
C898 C 0.83151 0.09216 0.65383 0.0
C899 C 0.76446 0.10651 0.58749 0.0
C900 C 0.92339 0.091 0.738 0.0
C901 C 0.9034 0.08992 0.71473 0.0
C902 C 0.87183 0.13225 0.65241 0.0
C903 C 0.8113 0.11075 0.60354 0.0
C904 C 0.83209 0.11133 0.62884 0.0
C905 C 0.89183 0.11421 0.70293 0.0
C906 C 0.87122 0.11316 0.67745 0.0
H907 H 0.80445 0.12034 0.5238 0.0
H908 H 0.83915 0.11895 0.56496 0.0
H909 H 0.85334 0.14663 0.60972 0.0
H910 H 0.92662 0.16062 0.74734 0.0
H911 H 0.89159 0.15865 0.7071 0.0
loop_
_geom_bond_atom_site_label_1
_geom_bond_atom_site_label_2
_geom_bond_distance
_geom_bond_site_symmetry_2
_ccdc_geom_bond_type
C0 N1 1.317 . S
C0 N2 1.351 1_554 S
C0 C3 1.485 . S
N1 C0 1.317 . S
N1 N5 1.370 . S
N2 C0 1.351 1_556 S
N2 C4 1.345 . S
C3 C0 1.485 . S
C3 H7 0.960 . S
C3 H8 0.961 . S
C3 H9 0.960 . S
C4 N2 1.345 . S
C4 N5 1.307 1_556 S
C4 C6 1.486 . S
N5 N1 1.370 . S
N5 C4 1.307 1_554 S
C6 C4 1.486 . S
C6 H10 0.960 . S
C6 H11 0.960 . S
C6 H12 0.959 . S
H7 C3 0.960 . S
H8 C3 0.961 . S
H9 C3 0.960 . S
H10 C6 0.960 . S
H11 C6 0.960 . S
H12 C6 0.959 . S
C13 N14 1.317 . S
C13 N15 1.348 . S
C13 C16 1.485 . S
N14 C13 1.317 . S
N14 N18 1.370 . S
N15 C13 1.348 . S
N15 C17 1.346 . S
C16 C13 1.485 . S
C16 H20 0.960 . S
C16 H21 0.961 . S
C16 H22 0.960 . S
C17 N15 1.346 . S
C17 N18 1.307 . S
C17 C19 1.486 . S
N18 N14 1.370 . S
N18 C17 1.307 . S
C19 C17 1.486 . S
C19 H23 0.960 . S
C19 H24 0.960 . S
C19 H25 0.959 . S
H20 C16 0.960 . S
H21 C16 0.961 . S
H22 C16 0.960 . S
H23 C19 0.960 . S
H24 C19 0.960 . S
H25 C19 0.959 . S
C26 N27 1.317 . S
C26 N28 1.325 1_554 S
C26 C29 1.485 . S
N27 C26 1.317 . S
N27 N31 1.370 . S
N28 C26 1.325 1_556 S
N28 C30 1.359 . S
C29 C26 1.485 . S
C29 H33 0.960 . S
C29 H34 0.961 . S
C29 H35 0.960 . S
C30 N28 1.359 . S
C30 N31 1.307 1_556 S
C30 C32 1.486 . S
N31 N27 1.370 . S
N31 C30 1.307 1_554 S
C32 C30 1.486 . S
C32 H36 0.960 . S
C32 H37 0.960 . S
C32 H38 0.959 . S
H33 C29 0.960 . S
H34 C29 0.961 . S
H35 C29 0.960 . S
H36 C32 0.960 . S
H37 C32 0.960 . S
H38 C32 0.959 . S
C39 N40 1.317 . S
C39 N41 1.348 . S
C39 C42 1.485 . S
N40 C39 1.317 . S
N40 N44 1.370 . S
N41 C39 1.348 . S
N41 C43 1.346 . S
C42 C39 1.485 . S
C42 H46 0.960 . S
C42 H47 0.961 . S
C42 H48 0.960 . S
C43 N41 1.346 . S
C43 N44 1.307 . S
C43 C45 1.486 . S
N44 N40 1.370 . S
N44 C43 1.307 . S
C45 C43 1.486 . S
C45 H49 0.960 . S
C45 H50 0.960 . S
C45 H51 0.959 . S
H46 C42 0.960 . S
H47 C42 0.961 . S
H48 C42 0.960 . S
H49 C45 0.960 . S
H50 C45 0.960 . S
H51 C45 0.959 . S
C52 N53 1.317 . S
C52 N54 1.351 1_554 S
C52 C55 1.485 . S
N53 C52 1.317 . S
N53 N57 1.370 . S
N54 C52 1.351 1_556 S
N54 C56 1.345 . S
C55 C52 1.485 . S
C55 H59 0.960 . S
C55 H60 0.961 . S
C55 H61 0.960 . S
C56 N54 1.345 . S
C56 N57 1.307 1_556 S
C56 C58 1.486 . S
N57 N53 1.370 . S
N57 C56 1.307 1_554 S
C58 C56 1.486 . S
C58 H62 0.960 . S
C58 H63 0.960 . S
C58 H64 0.959 . S
H59 C55 0.960 . S
H60 C55 0.961 . S
H61 C55 0.960 . S
H62 C58 0.960 . S
H63 C58 0.960 . S
H64 C58 0.959 . S
C65 N66 1.317 . S
C65 N67 1.348 . S
C65 C68 1.485 . S
N66 C65 1.317 . S
N66 N70 1.370 . S
N67 C65 1.348 . S
N67 C69 1.346 . S
C68 C65 1.485 . S
C68 H72 0.960 . S
C68 H73 0.961 . S
C68 H74 0.960 . S
C69 N67 1.346 . S
C69 N70 1.307 . S
C69 C71 1.486 . S
N70 N66 1.370 . S
N70 C69 1.307 . S
C71 C69 1.486 . S
C71 H75 0.960 . S
C71 H76 0.960 . S
C71 H77 0.959 . S
H72 C68 0.960 . S
H73 C68 0.961 . S
H74 C68 0.960 . S
H75 C71 0.960 . S
H76 C71 0.960 . S
H77 C71 0.959 . S
C78 N79 1.317 . S
C78 N80 1.325 1_554 S
C78 C81 1.485 . S
N79 C78 1.317 . S
N79 N83 1.370 . S
N80 C78 1.325 1_556 S
N80 C82 1.359 . S
C81 C78 1.485 . S
C81 H85 0.960 . S
C81 H86 0.961 . S
C81 H87 0.960 . S
C82 N80 1.359 . S
C82 N83 1.307 1_556 S
C82 C84 1.486 . S
N83 N79 1.370 . S
N83 C82 1.307 1_554 S
C84 C82 1.486 . S
C84 H88 0.960 . S
C84 H89 0.960 . S
C84 H90 0.959 . S
H85 C81 0.960 . S
H86 C81 0.961 . S
H87 C81 0.960 . S
H88 C84 0.960 . S
H89 C84 0.960 . S
H90 C84 0.959 . S
C91 N92 1.317 . S
C91 N93 1.348 . S
C91 C94 1.485 . S
N92 C91 1.317 . S
N92 N96 1.370 . S
N93 C91 1.348 . S
N93 C95 1.346 . S
C94 C91 1.485 . S
C94 H98 0.960 . S
C94 H99 0.961 . S
C94 H100 0.960 . S
C95 N93 1.346 . S
C95 N96 1.307 . S
C95 C97 1.486 . S
N96 N92 1.370 . S
N96 C95 1.307 . S
C97 C95 1.486 . S
C97 H101 0.960 . S
C97 H102 0.960 . S
C97 H103 0.959 . S
H98 C94 0.960 . S
H99 C94 0.961 . S
H100 C94 0.960 . S
H101 C97 0.960 . S
H102 C97 0.960 . S
H103 C97 0.959 . S
Sc104 O107 2.025 . S
Sc104 O114 2.105 1_455 S
Sc104 O117 2.105 . S
Sc104 O120 2.105 . S
Sc104 O123 2.105 1_455 S
Sc105 O107 2.025 . S
Sc105 O115 2.105 1_455 S
Sc105 O119 2.105 . S
Sc105 O121 2.105 . S
Sc105 O125 2.105 1_455 S
Sc106 O107 2.025 . S
Sc106 O116 2.105 1_455 S
Sc106 O118 2.105 . S
Sc106 O122 2.105 . S
Sc106 O124 2.105 1_455 S
O107 Sc104 2.025 . S
O107 Sc105 2.025 . S
O107 Sc106 2.025 . S
C108 O114 1.268 . S
C108 O124 1.268 . S
C109 O115 1.268 . S
C109 O123 1.268 . S
C110 O116 1.268 . S
C110 O125 1.268 . S
C111 O117 1.268 . S
C111 O121 1.268 . S
C112 O118 1.268 . S
C112 O120 1.268 . S
C113 O119 1.268 . S
C113 O122 1.268 . S
O114 Sc104 2.105 1_655 S
O114 C108 1.268 . S
O115 Sc105 2.105 1_655 S
O115 C109 1.268 . S
O116 Sc106 2.105 1_655 S
O116 C110 1.268 . S
O117 Sc104 2.105 . S
O117 C111 1.268 . S
O118 Sc106 2.105 . S
O118 C112 1.268 . S
O119 Sc105 2.105 . S
O119 C113 1.268 . S
O120 Sc104 2.105 . S
O120 C112 1.268 . S
O121 Sc105 2.105 . S
O121 C111 1.268 . S
O122 Sc106 2.105 . S
O122 C113 1.268 . S
O123 Sc104 2.105 1_655 S
O123 C109 1.268 . S
O124 Sc106 2.105 1_655 S
O124 C108 1.268 . S
O125 Sc105 2.105 1_655 S
O125 C110 1.268 . S
Sc126 O129 2.025 . S
Sc126 O136 2.105 . S
Sc126 O139 2.105 1_455 S
Sc126 O142 2.105 1_455 S
Sc126 O145 2.105 . S
Sc127 O129 2.025 . S
Sc127 O137 2.105 . S
Sc127 O141 2.105 1_455 S
Sc127 O143 2.105 1_455 S
Sc127 O147 2.105 . S
Sc128 O129 2.025 . S
Sc128 O138 2.105 . S
Sc128 O140 2.105 1_455 S
Sc128 O144 2.105 1_455 S
Sc128 O146 2.105 . S
O129 Sc126 2.025 . S
O129 Sc127 2.025 . S
O129 Sc128 2.025 . S
C130 O136 1.268 . S
C130 O146 1.268 . S
C131 O137 1.268 . S
C131 O145 1.268 . S
C132 O138 1.268 . S
C132 O147 1.268 . S
C133 O139 1.268 . S
C133 O143 1.268 . S
C134 O140 1.268 . S
C134 O142 1.268 . S
C135 O141 1.268 . S
C135 O144 1.268 . S
O136 Sc126 2.105 . S
O136 C130 1.268 . S
O137 Sc127 2.105 . S
O137 C131 1.268 . S
O138 Sc128 2.105 . S
O138 C132 1.268 . S
O139 Sc126 2.105 1_655 S
O139 C133 1.268 . S
O140 Sc128 2.105 1_655 S
O140 C134 1.268 . S
O141 Sc127 2.105 1_655 S
O141 C135 1.268 . S
O142 Sc126 2.105 1_655 S
O142 C134 1.268 . S
O143 Sc127 2.105 1_655 S
O143 C133 1.268 . S
O144 Sc128 2.105 1_655 S
O144 C135 1.268 . S
O145 Sc126 2.105 . S
O145 C131 1.268 . S
O146 Sc128 2.105 . S
O146 C130 1.268 . S
O147 Sc127 2.105 . S
O147 C132 1.268 . S
Sc148 O151 2.025 . S
Sc148 O158 2.105 . S
Sc148 O161 2.105 . S
Sc148 O164 2.105 . S
Sc148 O167 2.105 . S
Sc149 O151 2.025 . S
Sc149 O159 2.105 . S
Sc149 O163 2.105 . S
Sc149 O165 2.105 . S
Sc149 O169 2.105 . S
Sc150 O151 2.025 . S
Sc150 O160 2.105 . S
Sc150 O162 2.105 . S
Sc150 O166 2.105 . S
Sc150 O168 2.105 . S
O151 Sc148 2.025 . S
O151 Sc149 2.025 . S
O151 Sc150 2.025 . S
C152 O158 1.268 . S
C152 O168 1.268 . S
C153 O159 1.268 . S
C153 O167 1.268 . S
C154 O160 1.268 . S
C154 O169 1.268 . S
C155 O161 1.268 . S
C155 O165 1.268 . S
C156 O162 1.268 . S
C156 O164 1.268 . S
C157 O163 1.268 . S
C157 O166 1.268 . S
O158 Sc148 2.105 . S
O158 C152 1.268 . S
O159 Sc149 2.105 . S
O159 C153 1.268 . S
O160 Sc150 2.105 . S
O160 C154 1.268 . S
O161 Sc148 2.105 . S
O161 C155 1.268 . S
O162 Sc150 2.105 . S
O162 C156 1.268 . S
O163 Sc149 2.105 . S
O163 C157 1.268 . S
O164 Sc148 2.105 . S
O164 C156 1.268 . S
O165 Sc149 2.105 . S
O165 C155 1.268 . S
O166 Sc150 2.105 . S
O166 C157 1.268 . S
O167 Sc148 2.105 . S
O167 C153 1.268 . S
O168 Sc150 2.105 . S
O168 C152 1.268 . S
O169 Sc149 2.105 . S
O169 C154 1.268 . S
Sc170 O173 2.025 . S
Sc170 O180 2.105 . S
Sc170 O183 2.105 . S
Sc170 O186 2.105 . S
Sc170 O189 2.105 . S
Sc171 O173 2.025 . S
Sc171 O181 2.105 . S
Sc171 O185 2.105 . S
Sc171 O187 2.105 . S
Sc171 O191 2.105 . S
Sc172 O173 2.025 . S
Sc172 O182 2.105 . S
Sc172 O184 2.105 . S
Sc172 O188 2.105 . S
Sc172 O190 2.105 . S
O173 Sc170 2.025 . S
O173 Sc171 2.025 . S
O173 Sc172 2.025 . S
C174 O180 1.268 . S
C174 O190 1.268 . S
C175 O181 1.268 . S
C175 O189 1.268 . S
C176 O182 1.268 . S
C176 O191 1.268 . S
C177 O183 1.268 . S
C177 O187 1.268 . S
C178 O184 1.268 . S
C178 O186 1.268 . S
C179 O185 1.268 . S
C179 O188 1.268 . S
O180 Sc170 2.105 . S
O180 C174 1.268 . S
O181 Sc171 2.105 . S
O181 C175 1.268 . S
O182 Sc172 2.105 . S
O182 C176 1.268 . S
O183 Sc170 2.105 . S
O183 C177 1.268 . S
O184 Sc172 2.105 . S
O184 C178 1.268 . S
O185 Sc171 2.105 . S
O185 C179 1.268 . S
O186 Sc170 2.105 . S
O186 C178 1.268 . S
O187 Sc171 2.105 . S
O187 C177 1.268 . S
O188 Sc172 2.105 . S
O188 C179 1.268 . S
O189 Sc170 2.105 . S
O189 C175 1.268 . S
O190 Sc172 2.105 . S
O190 C174 1.268 . S
O191 Sc171 2.105 . S
O191 C176 1.268 . S
C192 C193 1.349 . S
C192 C194 1.327 . S
C192 H217 0.950 . S
C193 C192 1.349 . S
C193 C209 1.349 . S
C194 C192 1.327 . S
C194 C213 1.429 . S
C194 H218 0.950 . S
C195 C212 1.574 . S
C195 C214 1.368 . S
C195 H219 0.949 . S
H196 C200 0.949 . S
C197 C198 1.349 . S
C197 C199 1.327 . S
C197 H220 0.950 . S
C198 C197 1.349 . S
C198 C210 1.349 . S
C199 C197 1.327 . S
C199 C215 1.429 . S
C199 H221 0.950 . S
C200 H196 0.949 . S
C200 C208 1.574 . S
C200 C216 1.368 . S
H201 C209 0.950 . S
H202 C207 0.950 . S
H203 C208 0.949 . S
H204 C210 0.950 . S
H205 C211 0.950 . S
H206 C212 0.949 . S
C207 H202 0.950 . S
C207 C209 1.327 . S
C207 C213 1.429 . S
C208 C200 1.574 . S
C208 H203 0.949 . S
C208 C214 1.368 . S
C209 C193 1.349 . S
C209 H201 0.950 . S
C209 C207 1.327 . S
C210 C198 1.349 . S
C210 H204 0.950 . S
C210 C211 1.327 . S
C211 H205 0.950 . S
C211 C210 1.327 . S
C211 C215 1.429 . S
C212 C195 1.574 . S
C212 H206 0.949 . S
C212 C216 1.368 . S
C213 C194 1.429 . S
C213 C207 1.429 . S
C213 C214 1.523 . S
C214 C195 1.368 . S
C214 C208 1.368 . S
C214 C213 1.523 . S
C215 C199 1.429 . S
C215 C211 1.429 . S
C215 C216 1.523 . S
C216 C200 1.368 . S
C216 C212 1.368 . S
C216 C215 1.523 . S
H217 C192 0.950 . S
H218 C194 0.950 . S
H219 C195 0.949 . S
H220 C197 0.950 . S
H221 C199 0.950 . S
C222 C223 1.349 . S
C222 C224 1.327 . S
C222 H247 0.950 . S
C223 C222 1.349 . S
C223 C239 1.349 . S
C224 C222 1.327 . S
C224 C243 1.429 . S
C224 H248 0.950 . S
C225 C242 1.574 . S
C225 C244 1.368 . S
C225 H249 0.949 . S
H226 C230 0.949 . S
C227 C228 1.349 . S
C227 C229 1.327 . S
C227 H250 0.950 . S
C228 C227 1.349 . S
C228 C240 1.349 . S
C229 C227 1.327 . S
C229 C245 1.429 . S
C229 H251 0.950 . S
C230 H226 0.949 . S
C230 C238 1.574 . S
C230 C246 1.368 . S
H231 C239 0.950 . S
H232 C237 0.950 . S
H233 C238 0.949 . S
H234 C240 0.950 . S
H235 C241 0.950 . S
H236 C242 0.949 . S
C237 H232 0.950 . S
C237 C239 1.327 . S
C237 C243 1.429 . S
C238 C230 1.574 . S
C238 H233 0.949 . S
C238 C244 1.368 . S
C239 C223 1.349 . S
C239 H231 0.950 . S
C239 C237 1.327 . S
C240 C228 1.349 . S
C240 H234 0.950 . S
C240 C241 1.327 . S
C241 H235 0.950 . S
C241 C240 1.327 . S
C241 C245 1.429 . S
C242 C225 1.574 . S
C242 H236 0.949 . S
C242 C246 1.368 . S
C243 C224 1.429 . S
C243 C237 1.429 . S
C243 C244 1.523 . S
C244 C225 1.368 . S
C244 C238 1.368 . S
C244 C243 1.523 . S
C245 C229 1.429 . S
C245 C241 1.429 . S
C245 C246 1.523 . S
C246 C230 1.368 . S
C246 C242 1.368 . S
C246 C245 1.523 . S
H247 C222 0.950 . S
H248 C224 0.950 . S
H249 C225 0.949 . S
H250 C227 0.950 . S
H251 C229 0.950 . S
C252 C253 1.349 . S
C252 C254 1.327 . S
C252 H277 0.950 . S
C253 C252 1.349 . S
C253 C269 1.349 . S
C254 C252 1.327 . S
C254 C273 1.429 . S
C254 H278 0.950 . S
C255 C272 1.574 . S
C255 C274 1.368 . S
C255 H279 0.949 . S
H256 C260 0.949 . S
C257 C258 1.349 . S
C257 C259 1.327 . S
C257 H280 0.950 . S
C258 C257 1.349 . S
C258 C270 1.349 . S
C259 C257 1.327 . S
C259 C275 1.429 . S
C259 H281 0.950 . S
C260 H256 0.949 . S
C260 C268 1.574 . S
C260 C276 1.368 . S
H261 C269 0.950 1_554 S
H262 C267 0.950 . S
H263 C268 0.949 . S
H264 C270 0.950 . S
H265 C271 0.950 . S
H266 C272 0.949 . S
C267 H262 0.950 . S
C267 C269 1.327 . S
C267 C273 1.429 . S
C268 C260 1.574 . S
C268 H263 0.949 . S
C268 C274 1.368 . S
C269 C253 1.349 . S
C269 H261 0.950 1_556 S
C269 C267 1.327 . S
C270 C258 1.349 . S
C270 H264 0.950 . S
C270 C271 1.327 . S
C271 H265 0.950 . S
C271 C270 1.327 . S
C271 C275 1.429 . S
C272 C255 1.574 . S
C272 H266 0.949 . S
C272 C276 1.368 . S
C273 C254 1.429 . S
C273 C267 1.429 . S
C273 C274 1.523 . S
C274 C255 1.368 . S
C274 C268 1.368 . S
C274 C273 1.523 . S
C275 C259 1.429 . S
C275 C271 1.429 . S
C275 C276 1.523 . S
C276 C260 1.368 . S
C276 C272 1.368 . S
C276 C275 1.523 . S
H277 C252 0.950 . S
H278 C254 0.950 . S
H279 C255 0.949 . S
H280 C257 0.950 . S
H281 C259 0.950 . S
C282 C283 1.349 . S
C282 C284 1.327 . S
C282 H307 0.950 . S
C283 C282 1.349 . S
C283 C299 1.349 . S
C284 C282 1.327 . S
C284 C303 1.429 . S
C284 H308 0.950 . S
C285 C302 1.574 . S
C285 C304 1.368 . S
C285 H309 0.949 . S
H286 C290 0.949 . S
C287 C288 1.349 . S
C287 C289 1.327 . S
C287 H310 0.950 . S
C288 C287 1.349 . S
C288 C300 1.349 . S
C289 C287 1.327 . S
C289 C305 1.429 . S
C289 H311 0.950 . S
C290 H286 0.949 . S
C290 C298 1.574 . S
C290 C306 1.368 . S
H291 C299 0.950 . S
H292 C297 0.950 . S
H293 C298 0.949 . S
H294 C300 0.950 . S
H295 C301 0.950 . S
H296 C302 0.949 . S
C297 H292 0.950 . S
C297 C299 1.327 . S
C297 C303 1.429 . S
C298 C290 1.574 . S
C298 H293 0.949 . S
C298 C304 1.368 . S
C299 C283 1.349 . S
C299 H291 0.950 . S
C299 C297 1.327 . S
C300 C288 1.349 . S
C300 H294 0.950 . S
C300 C301 1.327 . S
C301 H295 0.950 . S
C301 C300 1.327 . S
C301 C305 1.429 . S
C302 C285 1.574 . S
C302 H296 0.949 . S
C302 C306 1.368 . S
C303 C284 1.429 . S
C303 C297 1.429 . S
C303 C304 1.523 . S
C304 C285 1.368 . S
C304 C298 1.368 . S
C304 C303 1.523 . S
C305 C289 1.429 . S
C305 C301 1.429 . S
C305 C306 1.523 . S
C306 C290 1.368 . S
C306 C302 1.368 . S
C306 C305 1.523 . S
H307 C282 0.950 . S
H308 C284 0.950 . S
H309 C285 0.949 . S
H310 C287 0.950 . S
H311 C289 0.950 . S
C312 C313 1.349 . S
C312 C314 1.327 . S
C312 H337 0.950 . S
C313 C312 1.349 . S
C313 C329 1.349 1_556 S
C314 C312 1.327 . S
C314 C333 1.429 . S
C314 H338 0.950 . S
C315 C332 1.574 . S
C315 C334 1.368 . S
C315 H339 0.949 . S
H316 C320 0.949 . S
C317 C318 1.349 . S
C317 C319 1.327 . S
C317 H340 0.950 . S
C318 C317 1.349 . S
C318 C330 1.349 . S
C319 C317 1.327 . S
C319 C335 1.429 . S
C319 H341 0.950 . S
C320 H316 0.949 . S
C320 C328 1.574 . S
C320 C336 1.368 . S
H321 C329 0.950 . S
H322 C327 0.950 1_554 S
H323 C328 0.949 . S
H324 C330 0.950 . S
H325 C331 0.950 . S
H326 C332 0.949 . S
C327 H322 0.950 1_556 S
C327 C329 1.327 1_556 S
C327 C333 1.429 . S
C328 C320 1.574 . S
C328 H323 0.949 . S
C328 C334 1.368 . S
C329 C313 1.349 1_554 S
C329 H321 0.950 . S
C329 C327 1.327 1_554 S
C330 C318 1.349 . S
C330 H324 0.950 . S
C330 C331 1.327 . S
C331 H325 0.950 . S
C331 C330 1.327 . S
C331 C335 1.429 . S
C332 C315 1.574 . S
C332 H326 0.949 . S
C332 C336 1.368 . S
C333 C314 1.429 . S
C333 C327 1.429 . S
C333 C334 1.523 . S
C334 C315 1.368 . S
C334 C328 1.368 . S
C334 C333 1.523 . S
C335 C319 1.429 . S
C335 C331 1.429 . S
C335 C336 1.523 . S
C336 C320 1.368 . S
C336 C332 1.368 . S
C336 C335 1.523 . S
H337 C312 0.950 . S
H338 C314 0.950 . S
H339 C315 0.949 . S
H340 C317 0.950 . S
H341 C319 0.950 . S
C342 C343 1.349 . S
C342 C344 1.327 . S
C342 H367 0.950 . S
C343 C342 1.349 . S
C343 C359 1.349 . S
C344 C342 1.327 . S
C344 C363 1.429 . S
C344 H368 0.950 . S
C345 C362 1.574 . S
C345 C364 1.368 . S
C345 H369 0.949 . S
H346 C350 0.949 . S
C347 C348 1.349 . S
C347 C349 1.327 . S
C347 H370 0.950 . S
C348 C347 1.349 . S
C348 C360 1.349 . S
C349 C347 1.327 . S
C349 C365 1.429 . S
C349 H371 0.950 . S
C350 H346 0.949 . S
C350 C358 1.574 . S
C350 C366 1.368 . S
H351 C359 0.950 . S
H352 C357 0.950 . S
H353 C358 0.949 . S
H354 C360 0.950 . S
H355 C361 0.950 . S
H356 C362 0.949 . S
C357 H352 0.950 . S
C357 C359 1.327 . S
C357 C363 1.429 . S
C358 C350 1.574 . S
C358 H353 0.949 . S
C358 C364 1.368 . S
C359 C343 1.349 . S
C359 H351 0.950 . S
C359 C357 1.327 . S
C360 C348 1.349 . S
C360 H354 0.950 . S
C360 C361 1.327 . S
C361 H355 0.950 . S
C361 C360 1.327 . S
C361 C365 1.429 . S
C362 C345 1.574 . S
C362 H356 0.949 . S
C362 C366 1.368 . S
C363 C344 1.429 . S
C363 C357 1.429 . S
C363 C364 1.523 . S
C364 C345 1.368 . S
C364 C358 1.368 . S
C364 C363 1.523 . S
C365 C349 1.429 . S
C365 C361 1.429 . S
C365 C366 1.523 . S
C366 C350 1.368 . S
C366 C362 1.368 . S
C366 C365 1.523 . S
H367 C342 0.950 . S
H368 C344 0.950 . S
H369 C345 0.949 . S
H370 C347 0.950 . S
H371 C349 0.950 . S
C372 C373 1.349 . S
C372 C374 1.327 . S
C372 H397 0.950 . S
C373 C372 1.349 . S
C373 C389 1.349 . S
C374 C372 1.327 . S
C374 C393 1.429 . S
C374 H398 0.950 . S
C375 C392 1.574 . S
C375 C394 1.368 . S
C375 H399 0.949 . S
H376 C380 0.949 . S
C377 C378 1.349 . S
C377 C379 1.327 . S
C377 H400 0.950 . S
C378 C377 1.349 . S
C378 C390 1.349 . S
C379 C377 1.327 . S
C379 C395 1.429 . S
C379 H401 0.950 . S
C380 H376 0.949 . S
C380 C388 1.574 . S
C380 C396 1.368 . S
H381 C389 0.950 1_554 S
H382 C387 0.950 . S
H383 C388 0.949 . S
H384 C390 0.950 . S
H385 C391 0.950 . S
H386 C392 0.949 . S
C387 H382 0.950 . S
C387 C389 1.327 . S
C387 C393 1.429 . S
C388 C380 1.574 . S
C388 H383 0.949 . S
C388 C394 1.368 . S
C389 C373 1.349 . S
C389 H381 0.950 1_556 S
C389 C387 1.327 . S
C390 C378 1.349 . S
C390 H384 0.950 . S
C390 C391 1.327 . S
C391 H385 0.950 . S
C391 C390 1.327 . S
C391 C395 1.429 . S
C392 C375 1.574 . S
C392 H386 0.949 . S
C392 C396 1.368 . S
C393 C374 1.429 . S
C393 C387 1.429 . S
C393 C394 1.523 . S
C394 C375 1.368 . S
C394 C388 1.368 . S
C394 C393 1.523 . S
C395 C379 1.429 . S
C395 C391 1.429 . S
C395 C396 1.523 . S
C396 C380 1.368 . S
C396 C392 1.368 . S
C396 C395 1.523 . S
H397 C372 0.950 . S
H398 C374 0.950 . S
H399 C375 0.949 . S
H400 C377 0.950 . S
H401 C379 0.950 . S
C402 C403 1.349 . S
C402 C404 1.327 . S
C402 H427 0.950 . S
C403 C402 1.349 . S
C403 C419 1.349 . S
C404 C402 1.327 . S
C404 C423 1.429 . S
C404 H428 0.950 . S
C405 C422 1.574 . S
C405 C424 1.368 . S
C405 H429 0.949 . S
H406 C410 0.949 . S
C407 C408 1.349 . S
C407 C409 1.327 . S
C407 H430 0.950 . S
C408 C407 1.349 . S
C408 C420 1.349 . S
C409 C407 1.327 . S
C409 C425 1.429 . S
C409 H431 0.950 . S
C410 H406 0.949 . S
C410 C418 1.574 . S
C410 C426 1.368 . S
H411 C419 0.950 . S
H412 C417 0.950 . S
H413 C418 0.949 . S
H414 C420 0.950 . S
H415 C421 0.950 . S
H416 C422 0.949 . S
C417 H412 0.950 . S
C417 C419 1.327 . S
C417 C423 1.429 . S
C418 C410 1.574 . S
C418 H413 0.949 . S
C418 C424 1.368 . S
C419 C403 1.349 . S
C419 H411 0.950 . S
C419 C417 1.327 . S
C420 C408 1.349 . S
C420 H414 0.950 . S
C420 C421 1.327 . S
C421 H415 0.950 . S
C421 C420 1.327 . S
C421 C425 1.429 . S
C422 C405 1.574 . S
C422 H416 0.949 . S
C422 C426 1.368 . S
C423 C404 1.429 . S
C423 C417 1.429 . S
C423 C424 1.523 . S
C424 C405 1.368 . S
C424 C418 1.368 . S
C424 C423 1.523 . S
C425 C409 1.429 . S
C425 C421 1.429 . S
C425 C426 1.523 . S
C426 C410 1.368 . S
C426 C422 1.368 . S
C426 C425 1.523 . S
H427 C402 0.950 . S
H428 C404 0.950 . S
H429 C405 0.949 . S
H430 C407 0.950 . S
H431 C409 0.950 . S
C432 C433 1.349 1_554 S
C432 C434 1.327 1_554 S
C432 H457 0.950 . S
C433 C432 1.349 1_556 S
C433 C449 1.349 . S
C434 C432 1.327 1_556 S
C434 C453 1.429 . S
C434 H458 0.950 1_556 S
C435 C452 1.574 . S
C435 C454 1.368 . S
C435 H459 0.949 . S
H436 C440 0.949 . S
C437 C438 1.349 . S
C437 C439 1.327 . S
C437 H460 0.950 . S
C438 C437 1.349 . S
C438 C450 1.349 . S
C439 C437 1.327 . S
C439 C455 1.429 . S
C439 H461 0.950 . S
C440 H436 0.949 . S
C440 C448 1.574 . S
C440 C456 1.368 . S
H441 C449 0.950 . S
H442 C447 0.950 . S
H443 C448 0.949 . S
H444 C450 0.950 . S
H445 C451 0.950 . S
H446 C452 0.949 . S
C447 H442 0.950 . S
C447 C449 1.327 . S
C447 C453 1.429 . S
C448 C440 1.574 . S
C448 H443 0.949 . S
C448 C454 1.368 . S
C449 C433 1.349 . S
C449 H441 0.950 . S
C449 C447 1.327 . S
C450 C438 1.349 . S
C450 H444 0.950 . S
C450 C451 1.327 . S
C451 H445 0.950 . S
C451 C450 1.327 . S
C451 C455 1.429 . S
C452 C435 1.574 . S
C452 H446 0.949 . S
C452 C456 1.368 . S
C453 C434 1.429 . S
C453 C447 1.429 . S
C453 C454 1.523 . S
C454 C435 1.368 . S
C454 C448 1.368 . S
C454 C453 1.523 . S
C455 C439 1.429 . S
C455 C451 1.429 . S
C455 C456 1.523 . S
C456 C440 1.368 . S
C456 C452 1.368 . S
C456 C455 1.523 . S
H457 C432 0.950 . S
H458 C434 0.950 1_554 S
H459 C435 0.949 . S
H460 C437 0.950 . S
H461 C439 0.950 . S
C462 C463 1.349 . S
C462 C464 1.327 . S
C462 H487 0.950 . S
C463 C462 1.349 . S
C463 C479 1.349 . S
C464 C462 1.327 . S
C464 C483 1.429 . S
C464 H488 0.950 . S
C465 C482 1.574 . S
C465 C484 1.368 . S
C465 H489 0.949 . S
H466 C470 0.949 . S
C467 C468 1.349 . S
C467 C469 1.327 . S
C467 H490 0.950 . S
C468 C467 1.349 . S
C468 C480 1.349 . S
C469 C467 1.327 . S
C469 C485 1.429 . S
C469 H491 0.950 . S
C470 H466 0.949 . S
C470 C478 1.574 . S
C470 C486 1.368 . S
H471 C479 0.950 . S
H472 C477 0.950 . S
H473 C478 0.949 . S
H474 C480 0.950 . S
H475 C481 0.950 . S
H476 C482 0.949 . S
C477 H472 0.950 . S
C477 C479 1.327 . S
C477 C483 1.429 . S
C478 C470 1.574 . S
C478 H473 0.949 . S
C478 C484 1.368 . S
C479 C463 1.349 . S
C479 H471 0.950 . S
C479 C477 1.327 . S
C480 C468 1.349 . S
C480 H474 0.950 . S
C480 C481 1.327 . S
C481 H475 0.950 . S
C481 C480 1.327 . S
C481 C485 1.429 . S
C482 C465 1.574 . S
C482 H476 0.949 . S
C482 C486 1.368 . S
C483 C464 1.429 . S
C483 C477 1.429 . S
C483 C484 1.523 . S
C484 C465 1.368 . S
C484 C478 1.368 . S
C484 C483 1.523 . S
C485 C469 1.429 . S
C485 C481 1.429 . S
C485 C486 1.523 . S
C486 C470 1.368 . S
C486 C482 1.368 . S
C486 C485 1.523 . S
H487 C462 0.950 . S
H488 C464 0.950 . S
H489 C465 0.949 . S
H490 C467 0.950 . S
H491 C469 0.950 . S
C492 C493 1.349 . S
C492 C494 1.327 . S
C492 H517 0.950 . S
C493 C492 1.349 . S
C493 C509 1.357 . S
C494 C492 1.327 . S
C494 C513 1.429 . S
C494 H518 0.950 . S
C495 C512 1.574 . S
C495 C514 1.368 . S
C495 H519 0.949 . S
H496 C500 0.949 . S
C497 C498 1.349 . S
C497 C499 1.327 . S
C497 H520 0.950 . S
C498 C497 1.349 . S
C498 C510 1.349 . S
C499 C497 1.327 . S
C499 C515 1.429 . S
C499 H521 0.950 . S
C500 H496 0.949 . S
C500 C508 1.574 . S
C500 C516 1.368 . S
H501 C509 0.930 1_554 S
H502 C507 0.950 . S
H503 C508 0.949 . S
H504 C510 0.950 . S
H505 C511 0.950 . S
H506 C512 0.949 . S
C507 H502 0.950 . S
C507 C509 1.339 . S
C507 C513 1.429 . S
C508 C500 1.574 . S
C508 H503 0.949 . S
C508 C514 1.368 . S
C509 C493 1.357 . S
C509 H501 0.930 1_556 S
C509 C507 1.339 . S
C510 C498 1.349 . S
C510 H504 0.950 . S
C510 C511 1.327 . S
C511 H505 0.950 . S
C511 C510 1.327 . S
C511 C515 1.429 . S
C512 C495 1.574 . S
C512 H506 0.949 . S
C512 C516 1.368 . S
C513 C494 1.429 . S
C513 C507 1.429 . S
C513 C514 1.523 . S
C514 C495 1.368 . S
C514 C508 1.368 . S
C514 C513 1.523 . S
C515 C499 1.429 . S
C515 C511 1.429 . S
C515 C516 1.523 . S
C516 C500 1.368 . S
C516 C512 1.368 . S
C516 C515 1.523 . S
H517 C492 0.950 . S
H518 C494 0.950 . S
H519 C495 0.949 . S
H520 C497 0.950 . S
H521 C499 0.950 . S
C522 C523 1.349 . S
C522 C524 1.327 . S
C522 H547 0.950 . S
C523 C522 1.349 . S
C523 C539 1.349 . S
C524 C522 1.327 . S
C524 C543 1.429 . S
C524 H548 0.950 . S
C525 C542 1.574 . S
C525 C544 1.368 . S
C525 H549 0.949 . S
H526 C530 0.949 . S
C527 C528 1.349 . S
C527 C529 1.327 . S
C527 H550 0.950 . S
C528 C527 1.349 . S
C528 C540 1.349 . S
C529 C527 1.327 . S
C529 C545 1.429 . S
C529 H551 0.950 . S
C530 H526 0.949 . S
C530 C538 1.574 . S
C530 C546 1.368 . S
H531 C539 0.950 . S
H532 C537 0.950 . S
H533 C538 0.949 . S
H534 C540 0.950 . S
H535 C541 0.950 . S
H536 C542 0.949 . S
C537 H532 0.950 . S
C537 C539 1.327 . S
C537 C543 1.429 . S
C538 C530 1.574 . S
C538 H533 0.949 . S
C538 C544 1.368 . S
C539 C523 1.349 . S
C539 H531 0.950 . S
C539 C537 1.327 . S
C540 C528 1.349 . S
C540 H534 0.950 . S
C540 C541 1.327 . S
C541 H535 0.950 . S
C541 C540 1.327 . S
C541 C545 1.429 . S
C542 C525 1.574 . S
C542 H536 0.949 . S
C542 C546 1.368 . S
C543 C524 1.429 . S
C543 C537 1.429 . S
C543 C544 1.523 . S
C544 C525 1.368 . S
C544 C538 1.368 . S
C544 C543 1.523 . S
C545 C529 1.429 . S
C545 C541 1.429 . S
C545 C546 1.523 . S
C546 C530 1.368 . S
C546 C542 1.368 . S
C546 C545 1.523 . S
H547 C522 0.950 . S
H548 C524 0.950 . S
H549 C525 0.949 . S
H550 C527 0.950 . S
H551 C529 0.950 . S
C552 C553 1.349 . S
C552 C554 1.327 . S
C552 H577 0.950 . S
C553 C552 1.349 . S
C553 C569 1.349 1_556 S
C554 C552 1.327 . S
C554 C573 1.429 . S
C554 H578 0.950 . S
C555 C572 1.574 . S
C555 C574 1.368 . S
C555 H579 0.949 . S
H556 C560 0.949 . S
C557 C558 1.349 . S
C557 C559 1.327 . S
C557 H580 0.950 . S
C558 C557 1.349 . S
C558 C570 1.349 . S
C559 C557 1.327 . S
C559 C575 1.429 . S
C559 H581 0.950 . S
C560 H556 0.949 . S
C560 C568 1.574 1_545 S
C560 C576 1.368 . S
H561 C569 0.950 . S
H562 C567 0.950 1_554 S
H563 C568 0.949 . S
H564 C570 0.950 . S
H565 C571 0.950 . S
H566 C572 0.949 1_545 S
C567 H562 0.950 1_556 S
C567 C569 1.327 1_556 S
C567 C573 1.429 . S
C568 C560 1.574 1_565 S
C568 H563 0.949 . S
C568 C574 1.368 . S
C569 C553 1.349 1_554 S
C569 H561 0.950 . S
C569 C567 1.327 1_554 S
C570 C558 1.349 . S
C570 H564 0.950 . S
C570 C571 1.327 . S
C571 H565 0.950 . S
C571 C570 1.327 . S
C571 C575 1.429 . S
C572 C555 1.574 . S
C572 H566 0.949 1_565 S
C572 C576 1.368 1_565 S
C573 C554 1.429 . S
C573 C567 1.429 . S
C573 C574 1.523 . S
C574 C555 1.368 . S
C574 C568 1.368 . S
C574 C573 1.523 . S
C575 C559 1.429 . S
C575 C571 1.429 . S
C575 C576 1.523 . S
C576 C560 1.368 . S
C576 C572 1.368 1_545 S
C576 C575 1.523 . S
H577 C552 0.950 . S
H578 C554 0.950 . S
H579 C555 0.949 . S
H580 C557 0.950 . S
H581 C559 0.950 . S
C582 C583 1.349 . S
C582 C584 1.327 . S
C582 H607 0.950 . S
C583 C582 1.349 . S
C583 C599 1.349 . S
C584 C582 1.327 . S
C584 C603 1.429 . S
C584 H608 0.950 . S
C585 C602 1.574 . S
C585 C604 1.368 . S
C585 H609 0.949 . S
H586 C590 0.949 . S
C587 C588 1.349 . S
C587 C589 1.327 . S
C587 H610 0.950 . S
C588 C587 1.349 . S
C588 C600 1.349 . S
C589 C587 1.327 . S
C589 C605 1.429 . S
C589 H611 0.950 . S
C590 H586 0.949 . S
C590 C598 1.574 . S
C590 C606 1.368 . S
H591 C599 0.950 . S
H592 C597 0.950 . S
H593 C598 0.949 . S
H594 C600 0.950 . S
H595 C601 0.950 . S
H596 C602 0.949 . S
C597 H592 0.950 . S
C597 C599 1.327 . S
C597 C603 1.429 . S
C598 C590 1.574 . S
C598 H593 0.949 . S
C598 C604 1.368 1_565 S
C599 C583 1.349 . S
C599 H591 0.950 . S
C599 C597 1.327 . S
C600 C588 1.349 . S
C600 H594 0.950 . S
C600 C601 1.327 . S
C601 H595 0.950 . S
C601 C600 1.327 . S
C601 C605 1.429 . S
C602 C585 1.574 . S
C602 H596 0.949 . S
C602 C606 1.368 1_545 S
C603 C584 1.429 . S
C603 C597 1.429 . S
C603 C604 1.523 . S
C604 C585 1.368 . S
C604 C598 1.368 1_545 S
C604 C603 1.523 . S
C605 C589 1.429 . S
C605 C601 1.429 . S
C605 C606 1.523 . S
C606 C590 1.368 . S
C606 C602 1.368 1_565 S
C606 C605 1.523 . S
H607 C582 0.950 . S
H608 C584 0.950 . S
H609 C585 0.949 . S
H610 C587 0.950 . S
H611 C589 0.950 . S
C612 C613 1.351 . S
C612 C614 1.330 . S
C612 H637 0.945 1_556 S
C613 C612 1.351 . S
C613 C629 1.349 . S
C614 C612 1.330 . S
C614 C633 1.429 . S
C614 H638 0.950 . S
C615 C632 1.574 . S
C615 C634 1.368 . S
C615 H639 0.949 . S
H616 C620 0.949 . S
C617 C618 1.349 . S
C617 C619 1.327 . S
C617 H640 0.950 . S
C618 C617 1.349 . S
C618 C630 1.349 . S
C619 C617 1.327 . S
C619 C635 1.429 . S
C619 H641 0.950 . S
C620 H616 0.949 . S
C620 C628 1.598 . S
C620 C636 1.368 . S
H621 C629 0.950 . S
H622 C627 0.950 . S
H623 C628 0.959 . S
H624 C630 0.950 . S
H625 C631 0.950 . S
H626 C632 0.949 . S
C627 H622 0.950 . S
C627 C629 1.327 . S
C627 C633 1.429 . S
C628 C620 1.598 . S
C628 H623 0.959 . S
C628 C634 1.334 1_545 S
C629 C613 1.349 . S
C629 H621 0.950 . S
C629 C627 1.327 . S
C630 C618 1.349 . S
C630 H624 0.950 . S
C630 C631 1.327 . S
C631 H625 0.950 . S
C631 C630 1.327 . S
C631 C635 1.429 . S
C632 C615 1.574 . S
C632 H626 0.949 . S
C632 C636 1.368 1_565 S
C633 C614 1.429 . S
C633 C627 1.429 . S
C633 C634 1.523 . S
C634 C615 1.368 . S
C634 C628 1.334 1_565 S
C634 C633 1.523 . S
C635 C619 1.429 . S
C635 C631 1.429 . S
C635 C636 1.523 . S
C636 C620 1.368 . S
C636 C632 1.368 1_545 S
C636 C635 1.523 . S
H637 C612 0.945 1_554 S
H638 C614 0.950 . S
H639 C615 0.949 . S
H640 C617 0.950 . S
H641 C619 0.950 . S
C642 C643 1.349 . S
C642 C644 1.327 . S
C642 H667 0.950 . S
C643 C642 1.349 . S
C643 C659 1.349 . S
C644 C642 1.327 . S
C644 C663 1.429 . S
C644 H668 0.950 . S
C645 C662 1.574 . S
C645 C664 1.368 . S
C645 H669 0.949 . S
H646 C650 0.949 . S
C647 C648 1.349 . S
C647 C649 1.327 . S
C647 H670 0.950 . S
C648 C647 1.349 . S
C648 C660 1.349 . S
C649 C647 1.327 . S
C649 C665 1.429 . S
C649 H671 0.950 . S
C650 H646 0.949 . S
C650 C658 1.574 . S
C650 C666 1.368 . S
H651 C659 0.950 . S
H652 C657 0.950 . S
H653 C658 0.949 . S
H654 C660 0.950 . S
H655 C661 0.950 . S
H656 C662 0.949 . S
C657 H652 0.950 . S
C657 C659 1.327 . S
C657 C663 1.429 . S
C658 C650 1.574 . S
C658 H653 0.949 . S
C658 C664 1.368 1_565 S
C659 C643 1.349 . S
C659 H651 0.950 . S
C659 C657 1.327 . S
C660 C648 1.349 . S
C660 H654 0.950 . S
C660 C661 1.327 . S
C661 H655 0.950 . S
C661 C660 1.327 . S
C661 C665 1.429 . S
C662 C645 1.574 . S
C662 H656 0.949 . S
C662 C666 1.368 1_545 S
C663 C644 1.429 . S
C663 C657 1.429 . S
C663 C664 1.523 . S
C664 C645 1.368 . S
C664 C658 1.368 1_545 S
C664 C663 1.523 . S
C665 C649 1.429 . S
C665 C661 1.429 . S
C665 C666 1.523 . S
C666 C650 1.368 . S
C666 C662 1.368 1_565 S
C666 C665 1.523 . S
H667 C642 0.950 . S
H668 C644 0.950 . S
H669 C645 0.949 . S
H670 C647 0.950 . S
H671 C649 0.950 . S
C672 C673 1.349 . S
C672 C674 1.327 . S
C672 H697 0.950 . S
C673 C672 1.349 . S
C673 C689 1.349 . S
C674 C672 1.327 . S
C674 C693 1.429 . S
C674 H698 0.950 . S
C675 C692 1.574 . S
C675 C694 1.368 . S
C675 H699 0.949 . S
H676 C680 0.949 . S
C677 C678 1.349 . S
C677 C679 1.327 . S
C677 H700 0.950 . S
C678 C677 1.349 . S
C678 C690 1.349 . S
C679 C677 1.327 . S
C679 C695 1.429 . S
C679 H701 0.950 . S
C680 H676 0.949 . S
C680 C688 1.574 . S
C680 C696 1.368 . S
H681 C689 0.950 . S
H682 C687 0.950 . S
H683 C688 0.949 . S
H684 C690 0.950 . S
H685 C691 0.950 . S
H686 C692 0.949 . S
C687 H682 0.950 . S
C687 C689 1.327 . S
C687 C693 1.429 . S
C688 C680 1.574 . S
C688 H683 0.949 . S
C688 C694 1.368 . S
C689 C673 1.349 . S
C689 H681 0.950 . S
C689 C687 1.327 . S
C690 C678 1.349 . S
C690 H684 0.950 . S
C690 C691 1.327 . S
C691 H685 0.950 . S
C691 C690 1.327 . S
C691 C695 1.429 . S
C692 C675 1.574 . S
C692 H686 0.949 . S
C692 C696 1.368 . S
C693 C674 1.429 . S
C693 C687 1.429 . S
C693 C694 1.523 . S
C694 C675 1.368 . S
C694 C688 1.368 . S
C694 C693 1.523 . S
C695 C679 1.429 . S
C695 C691 1.429 . S
C695 C696 1.523 . S
C696 C680 1.368 . S
C696 C692 1.368 . S
C696 C695 1.523 . S
H697 C672 0.950 . S
H698 C674 0.950 . S
H699 C675 0.949 . S
H700 C677 0.950 . S
H701 C679 0.950 . S
C702 C703 1.349 . S
C702 C704 1.327 . S
C702 H727 0.950 . S
C703 C702 1.349 . S
C703 C719 1.349 . S
C704 C702 1.327 . S
C704 C723 1.429 . S
C704 H728 0.950 . S
C705 C722 1.574 . S
C705 C724 1.368 . S
C705 H729 0.949 . S
H706 C710 0.949 . S
C707 C708 1.349 . S
C707 C709 1.327 . S
C707 H730 0.950 . S
C708 C707 1.349 . S
C708 C720 1.349 . S
C709 C707 1.327 . S
C709 C725 1.429 . S
C709 H731 0.950 . S
C710 H706 0.949 . S
C710 C718 1.574 . S
C710 C726 1.368 . S
H711 C719 0.950 . S
H712 C717 0.950 . S
H713 C718 0.949 . S
H714 C720 0.950 . S
H715 C721 0.950 . S
H716 C722 0.949 . S
C717 H712 0.950 . S
C717 C719 1.327 . S
C717 C723 1.429 . S
C718 C710 1.574 . S
C718 H713 0.949 . S
C718 C724 1.368 . S
C719 C703 1.349 . S
C719 H711 0.950 . S
C719 C717 1.327 . S
C720 C708 1.349 . S
C720 H714 0.950 . S
C720 C721 1.327 . S
C721 H715 0.950 . S
C721 C720 1.327 . S
C721 C725 1.429 . S
C722 C705 1.574 . S
C722 H716 0.949 . S
C722 C726 1.368 . S
C723 C704 1.429 . S
C723 C717 1.429 . S
C723 C724 1.523 . S
C724 C705 1.368 . S
C724 C718 1.368 . S
C724 C723 1.523 . S
C725 C709 1.429 . S
C725 C721 1.429 . S
C725 C726 1.523 . S
C726 C710 1.368 . S
C726 C722 1.368 . S
C726 C725 1.523 . S
H727 C702 0.950 . S
H728 C704 0.950 . S
H729 C705 0.949 . S
H730 C707 0.950 . S
H731 C709 0.950 . S
C732 C733 1.349 . S
C732 C734 1.327 . S
C732 H757 0.950 . S
C733 C732 1.349 . S
C733 C749 1.349 . S
C734 C732 1.327 . S
C734 C753 1.429 . S
C734 H758 0.950 . S
C735 C752 1.574 . S
C735 C754 1.368 . S
C735 H759 0.949 . S
H736 C740 0.949 . S
C737 C738 1.349 . S
C737 C739 1.327 . S
C737 H760 0.950 . S
C738 C737 1.349 . S
C738 C750 1.349 . S
C739 C737 1.327 . S
C739 C755 1.429 . S
C739 H761 0.950 . S
C740 H736 0.949 . S
C740 C748 1.574 . S
C740 C756 1.368 . S
H741 C749 0.950 . S
H742 C747 0.950 . S
H743 C748 0.949 . S
H744 C750 0.950 . S
H745 C751 0.950 . S
H746 C752 0.949 . S
C747 H742 0.950 . S
C747 C749 1.327 . S
C747 C753 1.429 . S
C748 C740 1.574 . S
C748 H743 0.949 . S
C748 C754 1.368 . S
C749 C733 1.349 . S
C749 H741 0.950 . S
C749 C747 1.327 . S
C750 C738 1.349 . S
C750 H744 0.950 . S
C750 C751 1.327 . S
C751 H745 0.950 . S
C751 C750 1.327 . S
C751 C755 1.429 . S
C752 C735 1.574 . S
C752 H746 0.949 . S
C752 C756 1.368 . S
C753 C734 1.429 . S
C753 C747 1.429 . S
C753 C754 1.523 . S
C754 C735 1.368 . S
C754 C748 1.368 . S
C754 C753 1.523 . S
C755 C739 1.429 . S
C755 C751 1.429 . S
C755 C756 1.523 . S
C756 C740 1.368 . S
C756 C752 1.368 . S
C756 C755 1.523 . S
H757 C732 0.950 . S
H758 C734 0.950 . S
H759 C735 0.949 . S
H760 C737 0.950 . S
H761 C739 0.950 . S
C762 C763 1.349 . S
C762 C764 1.327 . S
C762 H787 0.950 . S
C763 C762 1.349 . S
C763 C779 1.349 . S
C764 C762 1.327 . S
C764 C783 1.429 . S
C764 H788 0.950 . S
C765 C782 1.574 . S
C765 C784 1.368 . S
C765 H789 0.949 . S
H766 C770 0.949 . S
C767 C768 1.349 . S
C767 C769 1.327 . S
C767 H790 0.950 . S
C768 C767 1.349 . S
C768 C780 1.349 . S
C769 C767 1.327 . S
C769 C785 1.429 . S
C769 H791 0.950 . S
C770 H766 0.949 . S
C770 C778 1.574 . S
C770 C786 1.368 . S
H771 C779 0.950 . S
H772 C777 0.950 . S
H773 C778 0.949 . S
H774 C780 0.950 . S
H775 C781 0.950 . S
H776 C782 0.949 . S
C777 H772 0.950 . S
C777 C779 1.327 . S
C777 C783 1.429 . S
C778 C770 1.574 . S
C778 H773 0.949 . S
C778 C784 1.368 . S
C779 C763 1.349 . S
C779 H771 0.950 . S
C779 C777 1.327 . S
C780 C768 1.349 . S
C780 H774 0.950 . S
C780 C781 1.327 . S
C781 H775 0.950 . S
C781 C780 1.327 . S
C781 C785 1.429 . S
C782 C765 1.574 . S
C782 H776 0.949 . S
C782 C786 1.368 . S
C783 C764 1.429 . S
C783 C777 1.429 . S
C783 C784 1.523 . S
C784 C765 1.368 . S
C784 C778 1.368 . S
C784 C783 1.523 . S
C785 C769 1.429 . S
C785 C781 1.429 . S
C785 C786 1.523 . S
C786 C770 1.368 . S
C786 C782 1.368 . S
C786 C785 1.523 . S
H787 C762 0.950 . S
H788 C764 0.950 . S
H789 C765 0.949 . S
H790 C767 0.950 . S
H791 C769 0.950 . S
C792 C793 1.349 . S
C792 C794 1.327 . S
C792 H817 0.950 . S
C793 C792 1.349 . S
C793 C809 1.349 . S
C794 C792 1.327 . S
C794 C813 1.429 . S
C794 H818 0.950 . S
C795 C812 1.574 . S
C795 C814 1.368 . S
C795 H819 0.949 . S
H796 C800 0.949 . S
C797 C798 1.349 . S
C797 C799 1.327 . S
C797 H820 0.950 . S
C798 C797 1.349 . S
C798 C810 1.349 . S
C799 C797 1.327 . S
C799 C815 1.429 . S
C799 H821 0.950 . S
C800 H796 0.949 . S
C800 C808 1.574 . S
C800 C816 1.368 . S
H801 C809 0.950 . S
H802 C807 0.950 . S
H803 C808 0.949 . S
H804 C810 0.950 . S
H805 C811 0.950 . S
H806 C812 0.949 . S
C807 H802 0.950 . S
C807 C809 1.327 . S
C807 C813 1.429 . S
C808 C800 1.574 . S
C808 H803 0.949 . S
C808 C814 1.368 . S
C809 C793 1.349 . S
C809 H801 0.950 . S
C809 C807 1.327 . S
C810 C798 1.349 . S
C810 H804 0.950 . S
C810 C811 1.327 . S
C811 H805 0.950 . S
C811 C810 1.327 . S
C811 C815 1.429 . S
C812 C795 1.574 . S
C812 H806 0.949 . S
C812 C816 1.368 . S
C813 C794 1.429 . S
C813 C807 1.429 . S
C813 C814 1.523 . S
C814 C795 1.368 . S
C814 C808 1.368 . S
C814 C813 1.523 . S
C815 C799 1.429 . S
C815 C811 1.429 . S
C815 C816 1.523 . S
C816 C800 1.368 . S
C816 C812 1.368 . S
C816 C815 1.523 . S
H817 C792 0.950 . S
H818 C794 0.950 . S
H819 C795 0.949 . S
H820 C797 0.950 . S
H821 C799 0.950 . S
C822 C823 1.349 . S
C822 C824 1.327 . S
C822 H847 0.950 . S
C823 C822 1.349 . S
C823 C839 1.349 . S
C824 C822 1.327 . S
C824 C843 1.429 . S
C824 H848 0.950 . S
C825 C842 1.574 . S
C825 C844 1.368 . S
C825 H849 0.949 . S
H826 C830 0.949 . S
C827 C828 1.349 . S
C827 C829 1.327 . S
C827 H850 0.950 . S
C828 C827 1.349 . S
C828 C840 1.349 . S
C829 C827 1.327 . S
C829 C845 1.429 . S
C829 H851 0.950 . S
C830 H826 0.949 . S
C830 C838 1.574 . S
C830 C846 1.368 . S
H831 C839 0.950 . S
H832 C837 0.950 . S
H833 C838 0.949 . S
H834 C840 0.950 . S
H835 C841 0.950 . S
H836 C842 0.949 . S
C837 H832 0.950 . S
C837 C839 1.327 . S
C837 C843 1.429 . S
C838 C830 1.574 . S
C838 H833 0.949 . S
C838 C844 1.368 . S
C839 C823 1.349 . S
C839 H831 0.950 . S
C839 C837 1.327 . S
C840 C828 1.349 . S
C840 H834 0.950 . S
C840 C841 1.327 . S
C841 H835 0.950 . S
C841 C840 1.327 . S
C841 C845 1.429 . S
C842 C825 1.574 . S
C842 H836 0.949 . S
C842 C846 1.368 . S
C843 C824 1.429 . S
C843 C837 1.429 . S
C843 C844 1.523 . S
C844 C825 1.368 . S
C844 C838 1.368 . S
C844 C843 1.523 . S
C845 C829 1.429 . S
C845 C841 1.429 . S
C845 C846 1.523 . S
C846 C830 1.368 . S
C846 C842 1.368 . S
C846 C845 1.523 . S
H847 C822 0.950 . S
H848 C824 0.950 . S
H849 C825 0.949 . S
H850 C827 0.950 . S
H851 C829 0.950 . S
C852 C853 1.349 . S
C852 C854 1.327 . S
C852 H877 0.950 . S
C853 C852 1.349 . S
C853 C869 1.349 . S
C854 C852 1.327 . S
C854 C873 1.429 . S
C854 H878 0.950 . S
C855 C872 1.574 . S
C855 C874 1.368 . S
C855 H879 0.949 . S
H856 C860 0.949 . S
C857 C858 1.349 . S
C857 C859 1.327 . S
C857 H880 0.950 . S
C858 C857 1.349 . S
C858 C870 1.349 . S
C859 C857 1.327 . S
C859 C875 1.429 . S
C859 H881 0.950 . S
C860 H856 0.949 . S
C860 C868 1.574 . S
C860 C876 1.368 . S
H861 C869 0.950 . S
H862 C867 0.950 . S
H863 C868 0.949 . S
H864 C870 0.950 . S
H865 C871 0.950 . S
H866 C872 0.949 . S
C867 H862 0.950 . S
C867 C869 1.327 . S
C867 C873 1.429 . S
C868 C860 1.574 . S
C868 H863 0.949 . S
C868 C874 1.368 . S
C869 C853 1.349 . S
C869 H861 0.950 . S
C869 C867 1.327 . S
C870 C858 1.349 . S
C870 H864 0.950 . S
C870 C871 1.327 . S
C871 H865 0.950 . S
C871 C870 1.327 . S
C871 C875 1.429 . S
C872 C855 1.574 . S
C872 H866 0.949 . S
C872 C876 1.368 . S
C873 C854 1.429 . S
C873 C867 1.429 . S
C873 C874 1.523 . S
C874 C855 1.368 . S
C874 C868 1.368 . S
C874 C873 1.523 . S
C875 C859 1.429 . S
C875 C871 1.429 . S
C875 C876 1.523 . S
C876 C860 1.368 . S
C876 C872 1.368 . S
C876 C875 1.523 . S
H877 C852 0.950 . S
H878 C854 0.950 . S
H879 C855 0.949 . S
H880 C857 0.950 . S
H881 C859 0.950 . S
C882 C883 1.349 . S
C882 C884 1.327 . S
C882 H907 0.950 . S
C883 C882 1.349 . S
C883 C899 1.349 . S
C884 C882 1.327 . S
C884 C903 1.429 . S
C884 H908 0.950 . S
C885 C902 1.574 . S
C885 C904 1.368 . S
C885 H909 0.949 . S
H886 C890 0.949 . S
C887 C888 1.349 . S
C887 C889 1.327 . S
C887 H910 0.950 . S
C888 C887 1.349 . S
C888 C900 1.349 . S
C889 C887 1.327 . S
C889 C905 1.429 . S
C889 H911 0.950 . S
C890 H886 0.949 . S
C890 C898 1.574 . S
C890 C906 1.368 . S
H891 C899 0.950 . S
H892 C897 0.950 . S
H893 C898 0.949 . S
H894 C900 0.950 . S
H895 C901 0.950 . S
H896 C902 0.949 . S
C897 H892 0.950 . S
C897 C899 1.327 . S
C897 C903 1.429 . S
C898 C890 1.574 . S
C898 H893 0.949 . S
C898 C904 1.368 . S
C899 C883 1.349 . S
C899 H891 0.950 . S
C899 C897 1.327 . S
C900 C888 1.349 . S
C900 H894 0.950 . S
C900 C901 1.327 . S
C901 H895 0.950 . S
C901 C900 1.327 . S
C901 C905 1.429 . S
C902 C885 1.574 . S
C902 H896 0.949 . S
C902 C906 1.368 . S
C903 C884 1.429 . S
C903 C897 1.429 . S
C903 C904 1.523 . S
C904 C885 1.368 . S
C904 C898 1.368 . S
C904 C903 1.523 . S
C905 C889 1.429 . S
C905 C901 1.429 . S
C905 C906 1.523 . S
C906 C890 1.368 . S
C906 C902 1.368 . S
C906 C905 1.523 . S
H907 C882 0.950 . S
H908 C884 0.950 . S
H909 C885 0.949 . S
H910 C887 0.950 . S
H911 C889 0.950 . S
C193 N2 1.542 . S
C198 C130 1.521 . S
C228 C108 1.523 . S
C223 N15 1.545 . S
C258 C134 1.523 . S
C253 N28 1.548 . S
C288 C112 1.523 . S
C283 N41 1.535 . S
C318 C174 1.523 . S
C313 N54 1.542 . S
C348 C152 1.523 . S
C343 N67 1.543 . S
C373 N80 1.547 . S
C378 C178 1.523 . S
C408 C156 1.523 . S
C403 N93 1.537 . S
C433 N5 1.503 1_556 S
C438 C179 1.488 . S
C468 C157 1.488 . S
C463 N18 1.503 . S
C493 N31 1.501 1_556 S
C498 C176 1.488 . S
C523 N44 1.501 . S
C528 C154 1.488 . S
C558 C135 1.488 . S
C553 N57 1.504 1_556 S
C583 N70 1.503 . S
C588 C113 1.487 . S
C618 C132 1.488 . S
C613 N83 1.500 1_556 S
C648 C110 1.488 . S
C643 N96 1.502 . S
C678 C153 1.486 . S
C673 N1 1.503 . S
C708 C175 1.485 . S
C703 N14 1.503 . S
C733 N27 1.491 . S
C738 C155 1.486 . S
C768 C177 1.485 . S
C763 N40 1.491 . S
C798 C109 1.486 . S
C793 N53 1.504 . S
C823 N66 1.503 . S
C828 C131 1.484 . S
C853 N79 1.491 . S
C858 C111 1.484 . S
C883 N92 1.491 . S
C888 C133 1.487 . S
