# Generated by pormake.
# Topology csq, (4,8)-cn, num edge types: 1
# Building blocks:
#     Node 0, Type 0, BuildingBlock: AZAVOO_clean_linker_0, # of connection points: 4
#     Node 1, Type 0, BuildingBlock: AZAVOO_clean_linker_0, # of connection points: 4
#     Node 2, Type 0, BuildingBlock: AZAVOO_clean_linker_0, # of connection points: 4
#     Node 3, Type 0, BuildingBlock: AZAVOO_clean_linker_0, # of connection points: 4
#     Node 4, Type 0, BuildingBlock: AZAVOO_clean_linker_0, # of connection points: 4
#     Node 5, Type 0, BuildingBlock: AZAVOO_clean_linker_0, # of connection points: 4
#     Node 6, Type 1, BuildingBlock: TAGTUT_clean_sbu_3, # of connection points: 8
#     Node 7, Type 1, BuildingBlock: TAGTUT_clean_sbu_3, # of connection points: 8
#     Node 8, Type 1, BuildingBlock: TAGTUT_clean_sbu_3, # of connection points: 8
#     Edge 9, Type (0, 1), BuildingBlock: ZUJKAS_clean_linker_0, # of connection points: 2
#     Edge 10, Type (0, 1), BuildingBlock: ZUJKAS_clean_linker_0, # of connection points: 2
#     Edge 11, Type (0, 1), BuildingBlock: ZUJKAS_clean_linker_0, # of connection points: 2
#     Edge 12, Type (0, 1), BuildingBlock: ZUJKAS_clean_linker_0, # of connection points: 2
#     Edge 13, Type (0, 1), BuildingBlock: ZUJKAS_clean_linker_0, # of connection points: 2
#     Edge 14, Type (0, 1), BuildingBlock: ZUJKAS_clean_linker_0, # of connection points: 2
#     Edge 15, Type (0, 1), BuildingBlock: ZUJKAS_clean_linker_0, # of connection points: 2
#     Edge 16, Type (0, 1), BuildingBlock: ZUJKAS_clean_linker_0, # of connection points: 2
#     Edge 17, Type (0, 1), BuildingBlock: ZUJKAS_clean_linker_0, # of connection points: 2
#     Edge 18, Type (0, 1), BuildingBlock: ZUJKAS_clean_linker_0, # of connection points: 2
#     Edge 19, Type (0, 1), BuildingBlock: ZUJKAS_clean_linker_0, # of connection points: 2
#     Edge 20, Type (0, 1), BuildingBlock: ZUJKAS_clean_linker_0, # of connection points: 2
#     Edge 21, Type (0, 1), BuildingBlock: ZUJKAS_clean_linker_0, # of connection points: 2
#     Edge 22, Type (0, 1), BuildingBlock: ZUJKAS_clean_linker_0, # of connection points: 2
#     Edge 23, Type (0, 1), BuildingBlock: ZUJKAS_clean_linker_0, # of connection points: 2
#     Edge 24, Type (0, 1), BuildingBlock: ZUJKAS_clean_linker_0, # of connection points: 2
#     Edge 25, Type (0, 1), BuildingBlock: ZUJKAS_clean_linker_0, # of connection points: 2
#     Edge 26, Type (0, 1), BuildingBlock: ZUJKAS_clean_linker_0, # of connection points: 2
#     Edge 27, Type (0, 1), BuildingBlock: ZUJKAS_clean_linker_0, # of connection points: 2
#     Edge 28, Type (0, 1), BuildingBlock: ZUJKAS_clean_linker_0, # of connection points: 2
#     Edge 29, Type (0, 1), BuildingBlock: ZUJKAS_clean_linker_0, # of connection points: 2
#     Edge 30, Type (0, 1), BuildingBlock: ZUJKAS_clean_linker_0, # of connection points: 2
#     Edge 31, Type (0, 1), BuildingBlock: ZUJKAS_clean_linker_0, # of connection points: 2
#     Edge 32, Type (0, 1), BuildingBlock: ZUJKAS_clean_linker_0, # of connection points: 2
# Relax obj value: 0.128
# Max RMSD: 0.242
# Mean RMSD: 0.203
data_MOF--net-csq--node1-TAGTUT_clean_sbu_3--node2-AZAVOO_clean_linker_0--edge1-ZUJKAS_clean_linker_0
_symmetry_space_group_name_H-M    P1
_symmetry_Int_Tables_number       1
_symmetry_cell_setting            triclinic
loop_
_symmetry_equiv_pos_as_xyz
'x, y, z'
_cell_length_a     71.553538
_cell_length_b     70.884865
_cell_length_c     28.753804
_cell_angle_alpha  91.998164
_cell_angle_beta   92.008183
_cell_angle_gamma 119.85129
loop_
_atom_site_label
_atom_site_type_symbol
_atom_site_fract_x
_atom_site_fract_y
_atom_site_fract_z
_atom_type_partial_charge
H0 H 0.15142 0.45932 0.37772 0.0
H1 H 0.36265 0.49009 0.12482 0.0
H2 H 0.16696 0.43222 0.13478 0.0
H3 H 0.13675 0.43435 0.16704 0.0
H4 H 0.1756 0.50463 0.17774 0.0
H5 H 0.2053 0.50227 0.14487 0.0
H6 H 0.18797 0.4352 0.22348 0.0
H7 H 0.16941 0.43857 0.29042 0.0
H8 H 0.2128 0.50828 0.30015 0.0
H9 H 0.23106 0.50466 0.23279 0.0
H10 H 0.23387 0.43701 0.23693 0.0
H11 H 0.25971 0.43949 0.29851 0.0
H12 H 0.29974 0.50823 0.27861 0.0
H13 H 0.27371 0.50558 0.21759 0.0
H14 H 0.25696 0.43482 0.15608 0.0
H15 H 0.29188 0.43628 0.1566 0.0
H16 H 0.32204 0.5031 0.11763 0.0
H17 H 0.28709 0.50152 0.1182 0.0
H18 H 0.24128 0.43188 0.05347 0.0
H19 H 0.26925 0.43663 0.00101 0.0
H20 H 0.28511 0.50331 0.98557 0.0
H21 H 0.2572 0.49843 0.0386 0.0
H22 H 0.19964 0.42734 0.03515 0.0
H23 H 0.17514 0.41823 0.96613 0.0
H24 H 0.17864 0.48078 0.98507 0.0
H25 H 0.20425 0.49022 0.05178 0.0
O26 O 0.15968 0.45821 0.3529 0.0
O27 O 0.18334 0.49375 0.35875 0.0
O28 O 0.33253 0.45499 0.14688 0.0
O29 O 0.34867 0.48912 0.12529 0.0
C30 C 0.20838 0.46594 0.13592 0.0
C31 C 0.21979 0.46793 0.17871 0.0
C32 C 0.23967 0.46851 0.1788 0.0
C33 C 0.24825 0.46699 0.1364 0.0
C34 C 0.23675 0.46459 0.09355 0.0
C35 C 0.21659 0.46375 0.09319 0.0
C36 C 0.18828 0.46709 0.13759 0.0
C37 C 0.16849 0.44806 0.14192 0.0
C38 C 0.1514 0.44932 0.16103 0.0
C39 C 0.15392 0.46965 0.17586 0.0
C40 C 0.173 0.48872 0.16652 0.0
C41 C 0.19002 0.48743 0.1475 0.0
C42 C 0.21082 0.46969 0.2234 0.0
C43 C 0.19364 0.45113 0.24061 0.0
C44 C 0.183 0.45313 0.27867 0.0
C45 C 0.18951 0.47372 0.30041 0.0
C46 C 0.20733 0.49219 0.28412 0.0
C47 C 0.21789 0.49017 0.24591 0.0
C48 C 0.25205 0.47111 0.22301 0.0
C49 C 0.24785 0.45271 0.24711 0.0
C50 C 0.26269 0.45413 0.28181 0.0
C51 C 0.28183 0.474 0.29283 0.0
C52 C 0.28507 0.49275 0.27108 0.0
C53 C 0.27026 0.49129 0.23629 0.0
C54 C 0.26953 0.46803 0.13698 0.0
C55 C 0.27116 0.44977 0.1479 0.0
C56 C 0.29111 0.45065 0.14806 0.0
C57 C 0.30976 0.46981 0.13705 0.0
C58 C 0.30801 0.48809 0.12623 0.0
C59 C 0.28808 0.48723 0.12642 0.0
C60 C 0.24721 0.4648 0.0498 0.0
C61 C 0.25012 0.44719 0.03706 0.0
C62 C 0.26623 0.45 0.00732 0.0
C63 C 0.27967 0.47049 0.9899 0.0
C64 C 0.27526 0.48746 -0.00084 0.0
C65 C 0.25908 0.4846 0.02876 0.0
C66 C 0.20355 0.45935 0.0488 0.0
C67 C 0.19545 0.43924 0.02366 0.0
C68 C 0.18124 0.43396 0.98453 0.0
C69 C 0.17464 0.44863 0.97013 0.0
C70 C 0.18349 0.46913 0.99455 0.0
C71 C 0.19795 0.47449 0.03319 0.0
C72 C 0.17744 0.47591 0.33921 0.0
C73 C 0.33095 0.47077 0.13677 0.0
H74 H 0.81698 0.25479 0.37964 0.0
H75 H 0.65893 0.1032 0.94462 0.0
H76 H 0.7888 0.28255 0.122 0.0
H77 H 0.81589 0.31194 0.17497 0.0
H78 H 0.85398 0.28007 0.17709 0.0
H79 H 0.82685 0.25081 0.1235 0.0
H80 H 0.77327 0.25058 0.20061 0.0
H81 H 0.78896 0.256 0.28032 0.0
H82 H 0.81284 0.21232 0.24495 0.0
H83 H 0.79734 0.20733 0.16515 0.0
H84 H 0.72494 0.20492 0.16134 0.0
H85 H 0.70098 0.17522 0.20799 0.0
H86 H 0.73691 0.14228 0.17921 0.0
H87 H 0.76019 0.17183 0.1305 0.0
H88 H 0.70813 0.19934 0.06554 0.0
H89 H 0.67498 0.16816 0.03033 0.0
H90 H 0.71138 0.13717 0.98961 0.0
H91 H 0.74439 0.16845 0.02523 0.0
H92 H 0.73206 0.23741 0.00886 0.0
H93 H 0.7043 0.22021 0.94513 0.0
H94 H 0.7352 0.18484 0.89572 0.0
H95 H 0.76318 0.20268 0.9586 0.0
H96 H 0.7683 0.27392 0.03407 0.0
H97 H 0.78599 0.3036 0.98153 0.0
H98 H 0.83095 0.28164 0.95015 0.0
H99 H 0.81303 0.25194 0.00249 0.0
O100 O 0.81058 0.25211 0.34817 0.0
O101 O 0.82182 0.22891 0.32874 0.0
O102 O 0.65344 0.1313 0.98466 0.0
O103 O 0.67164 0.11532 0.96035 0.0
C104 C 0.78683 0.24418 0.09883 0.0
C105 C 0.77609 0.22663 0.12805 0.0
C106 C 0.75713 0.20763 0.11113 0.0
C107 C 0.74893 0.20595 0.06509 0.0
C108 C 0.75952 0.22342 0.03582 0.0
C109 C 0.77841 0.24262 0.0527 0.0
C110 C 0.80588 0.26458 0.11878 0.0
C111 C 0.80343 0.2824 0.13223 0.0
C112 C 0.81886 0.29909 0.16283 0.0
C113 C 0.8369 0.29812 0.18072 0.0
C114 C 0.84009 0.28107 0.1644 0.0
C115 C 0.82476 0.26451 0.13339 0.0
C116 C 0.78419 0.22858 0.17723 0.0
C117 C 0.78181 0.24213 0.21027 0.0
C118 C 0.79081 0.24521 0.25572 0.0
C119 C 0.80221 0.23464 0.26898 0.0
C120 C 0.80418 0.22072 0.23589 0.0
C121 C 0.79525 0.21774 0.19038 0.0
C122 C 0.74429 0.1905 0.14296 0.0
C123 C 0.72772 0.19136 0.16558 0.0
C124 C 0.71414 0.17441 0.19243 0.0
C125 C 0.71704 0.15634 0.19763 0.0
C126 C 0.73404 0.15579 0.17553 0.0
C127 C 0.7475 0.17272 0.14814 0.0
C128 C 0.72859 0.18611 0.04777 0.0
C129 C 0.70883 0.18567 0.04948 0.0
C130 C 0.68996 0.16788 0.0292 0.0
C131 C 0.69056 0.15023 0.00682 0.0
C132 C 0.71036 0.15052 0.00635 0.0
C133 C 0.72921 0.1683 0.02683 0.0
C134 C 0.74959 0.22124 0.9884 0.0
C135 C 0.73355 0.22697 0.98262 0.0
C136 C 0.71746 0.21678 0.94668 0.0
C137 C 0.71719 0.20068 0.91616 0.0
C138 C 0.73489 0.19716 0.91851 0.0
C139 C 0.75104 0.20746 0.95432 0.0
C140 C 0.78941 0.26084 0.02192 0.0
C141 C 0.78198 0.27558 0.01581 0.0
C142 C 0.79215 0.29254 0.986 0.0
C143 C 0.80981 0.29491 0.96157 0.0
C144 C 0.81721 0.28007 0.96798 0.0
C145 C 0.80711 0.26321 -0.00197 0.0
C146 C 0.81213 0.2383 0.31704 0.0
C147 C 0.67072 0.13174 0.98345 0.0
H148 H 0.58458 0.84281 0.80639 0.0
H149 H 0.52925 0.63094 0.04082 0.0
H150 H 0.57454 0.82385 0.0464 0.0
H151 H 0.5718 0.85185 0.00484 0.0
H152 H 0.50226 0.81419 0.00607 0.0
H153 H 0.50523 0.78582 0.04605 0.0
H154 H 0.58427 0.79813 0.97396 0.0
H155 H 0.59088 0.81883 0.90406 0.0
H156 H 0.52243 0.79519 0.88341 0.0
H157 H 0.51604 0.77433 0.95291 0.0
H158 H 0.58387 0.75366 0.00112 0.0
H159 H 0.59271 0.73917 0.93183 0.0
H160 H 0.5304 0.72124 0.86585 0.0
H161 H 0.52183 0.73585 0.93502 0.0
H162 H 0.5717 0.73651 0.10408 0.0
H163 H 0.57267 0.70257 0.10806 0.0
H164 H 0.51525 0.66981 0.01515 0.0
H165 H 0.51433 0.7038 0.012 0.0
H166 H 0.56022 0.75861 0.17872 0.0
H167 H 0.5522 0.73295 0.24027 0.0
H168 H 0.49148 0.68797 0.16602 0.0
H169 H 0.49944 0.71384 0.10565 0.0
H170 H 0.56573 0.80941 0.14169 0.0
H171 H 0.56074 0.82613 0.21246 0.0
H172 H 0.49562 0.77218 0.21581 0.0
H173 H 0.50064 0.75565 0.14436 0.0
O174 O 0.58156 0.83407 0.8332 0.0
O175 O 0.5463 0.82199 0.82511 0.0
O176 O 0.55863 0.66213 0.0879 0.0
O177 O 0.52926 0.64458 0.03987 0.0
C178 C 0.5414 0.7825 0.05316 0.0
C179 C 0.54592 0.77369 0.013 0.0
C180 C 0.54681 0.75436 0.0149 0.0
C181 C 0.54221 0.74313 0.05625 0.0
C182 C 0.53681 0.75134 0.09606 0.0
C183 C 0.53699 0.77142 0.09499 0.0
C184 C 0.54008 0.80266 0.04875 0.0
C185 C 0.55875 0.82213 0.03966 0.0
C186 C 0.55713 0.83809 0.0155 0.0
C187 C 0.53677 0.83497 0.00076 0.0
C188 C 0.51818 0.81678 0.01562 0.0
C189 C 0.51983 0.80074 0.03943 0.0
C190 C 0.54971 0.78486 0.96856 0.0
C191 C 0.57073 0.79727 0.95395 0.0
C192 C 0.57445 0.80914 0.91416 0.0
C193 C 0.55719 0.80878 0.88832 0.0
C194 C 0.53609 0.7959 0.90258 0.0
C195 C 0.53239 0.78396 0.94222 0.0
C196 C 0.5522 0.74569 0.97299 0.0
C197 C 0.57221 0.74663 0.97158 0.0
C198 C 0.57721 0.73841 0.93204 0.0
C199 C 0.56229 0.72919 0.8933 0.0
C200 C 0.54239 0.72862 0.89474 0.0
C201 C 0.53738 0.73675 0.9343 0.0
C202 C 0.54295 0.72258 0.0578 0.0
C203 C 0.55933 0.72196 0.08472 0.0
C204 C 0.55986 0.70257 0.08686 0.0
C205 C 0.54402 0.68346 0.06191 0.0
C206 C 0.52769 0.68421 0.03477 0.0
C207 C 0.52715 0.7036 0.03279 0.0
C208 C 0.53038 0.73812 0.13779 0.0
C209 C 0.54493 0.74348 0.17656 0.0
C210 C 0.54042 0.72867 0.21135 0.0
C211 C 0.52126 0.70826 0.20796 0.0
C212 C 0.50626 0.70356 0.1702 0.0
C213 C 0.51078 0.71833 0.13555 0.0
C214 C 0.53355 0.78133 0.13779 0.0
C215 C 0.55033 0.80126 0.1575 0.0
C216 C 0.54746 0.81078 0.1979 0.0
C217 C 0.52778 0.80046 0.21963 0.0
C218 C 0.51102 0.78038 0.20007 0.0
C219 C 0.51385 0.77096 0.15928 0.0
C220 C 0.56126 0.82195 0.84693 0.0
C221 C 0.54448 0.6628 0.06413 0.0
H222 H 0.79574 0.60823 0.37417 0.0
H223 H 0.91746 0.59467 0.93058 0.0
H224 H 0.74698 0.53467 0.11355 0.0
H225 H 0.71658 0.5301 0.15776 0.0
H226 H 0.74346 0.59999 0.16776 0.0
H227 H 0.77314 0.60424 0.12139 0.0
H228 H 0.78424 0.56018 0.19608 0.0
H229 H 0.78549 0.57429 0.27568 0.0
H230 H 0.82411 0.64008 0.23294 0.0
H231 H 0.82251 0.62575 0.15331 0.0
H232 H 0.82962 0.56812 0.17565 0.0
H233 H 0.86417 0.5814 0.21891 0.0
H234 H 0.89302 0.6374 0.13501 0.0
H235 H 0.85805 0.62388 0.09171 0.0
H236 H 0.83724 0.55062 0.0747 0.0
H237 H 0.86843 0.55141 0.04018 0.0
H238 H 0.87768 0.606 0.96144 0.0
H239 H 0.84656 0.60507 0.99642 0.0
H240 H 0.79521 0.5251 0.01545 0.0
H241 H 0.81024 0.51417 0.9522 0.0
H242 H 0.82126 0.57097 0.88009 0.0
H243 H 0.80642 0.58194 0.94429 0.0
H244 H 0.75548 0.52157 0.01297 0.0
H245 H 0.7202 0.5063 0.96965 0.0
H246 H 0.72596 0.56993 0.97617 0.0
H247 H 0.76135 0.58522 0.01758 0.0
O248 O 0.79546 0.60301 0.34246 0.0
O249 O 0.81543 0.63651 0.31881 0.0
O250 O 0.89967 0.56584 0.98595 0.0
O251 O 0.90515 0.59402 0.94499 0.0
C252 C 0.78228 0.57264 0.09343 0.0
C253 C 0.80213 0.58333 0.12041 0.0
C254 C 0.82096 0.58544 0.10164 0.0
C255 C 0.81996 0.57636 0.05667 0.0
C256 C 0.8001 0.56517 0.02994 0.0
C257 C 0.78133 0.5638 0.04777 0.0
C258 C 0.76236 0.56979 0.11446 0.0
C259 C 0.746 0.54894 0.12433 0.0
C260 C 0.7288 0.5464 0.15019 0.0
C261 C 0.7277 0.5647 0.16709 0.0
C262 C 0.74363 0.58551 0.15516 0.0
C263 C 0.7607 0.588 0.12886 0.0
C264 C 0.80319 0.59195 0.16892 0.0
C265 C 0.79289 0.57763 0.20397 0.0
C266 C 0.79367 0.58574 0.24942 0.0
C267 C 0.80488 0.60832 0.26067 0.0
C268 C 0.81532 0.62261 0.22545 0.0
C269 C 0.81448 0.61448 0.17998 0.0
C270 C 0.84139 0.59508 0.13077 0.0
C271 C 0.84327 0.5835 0.16733 0.0
C272 C 0.86301 0.59117 0.19205 0.0
C273 C 0.88127 0.61052 0.18046 0.0
C274 C 0.87921 0.62242 0.14451 0.0
C275 C 0.85933 0.61478 0.11994 0.0
C276 C 0.83968 0.57776 0.03793 0.0
C277 C 0.84617 0.56283 0.05028 0.0
C278 C 0.86391 0.56328 0.03038 0.0
C279 C 0.8755 0.57873 -0.00211 0.0
C280 C 0.86911 0.59388 0.98626 0.0
C281 C 0.85138 0.59342 0.00622 0.0
C282 C 0.79969 0.55431 0.98451 0.0
C283 C 0.79976 0.53455 0.98482 0.0
C284 C 0.80856 0.52842 0.94868 0.0
C285 C 0.81742 0.54196 0.91153 0.0
C286 C 0.81496 0.56042 0.9087 0.0
C287 C 0.80611 0.56652 0.94492 0.0
C288 C 0.761 0.55453 0.01822 0.0
C289 C 0.74932 0.53226 0.00411 0.0
C290 C 0.72917 0.52355 0.97983 0.0
C291 C 0.72038 0.53694 0.97035 0.0
C292 C 0.73231 0.55925 0.98378 0.0
C293 C 0.75251 0.56799 0.00712 0.0
C294 C 0.80563 0.61688 0.30898 0.0
C295 C 0.89414 0.57906 0.97603 0.0
H296 H 0.27229 0.84577 0.38333 0.0
H297 H 0.11028 0.6462 0.05934 0.0
H298 H 0.2453 0.84375 0.14419 0.0
H299 H 0.28035 0.87143 0.18004 0.0
H300 H 0.30975 0.8364 0.12033 0.0
H301 H 0.27479 0.80922 0.08382 0.0
H302 H 0.21488 0.80931 0.21461 0.0
H303 H 0.23418 0.82567 0.29022 0.0
H304 H 0.28326 0.80994 0.2544 0.0
H305 H 0.26359 0.79331 0.17937 0.0
H306 H 0.16994 0.76172 0.17706 0.0
H307 H 0.15477 0.74018 0.24482 0.0
H308 H 0.20985 0.73079 0.25909 0.0
H309 H 0.22473 0.75204 0.19091 0.0
H310 H 0.15654 0.75464 0.07411 0.0
H311 H 0.12414 0.71877 0.06035 0.0
H312 H 0.16273 0.68818 0.08363 0.0
H313 H 0.19502 0.72417 0.09681 0.0
H314 H 0.17701 0.78081 0.00287 0.0
H315 H 0.15641 0.75918 0.93156 0.0
H316 H 0.19484 0.72766 0.92995 0.0
H317 H 0.215 0.74902 0.00122 0.0
H318 H 0.22642 0.8339 0.04143 0.0
H319 H 0.24452 0.85822 0.97923 0.0
H320 H 0.26554 0.81416 0.92818 0.0
H321 H 0.24736 0.78997 0.99045 0.0
O322 O 0.26463 0.83873 0.3538 0.0
O323 O 0.28962 0.83066 0.3332 0.0
O324 O 0.10373 0.67712 0.05298 0.0
O325 O 0.12282 0.66058 0.06479 0.0
C326 C 0.2362 0.8043 0.1053 0.0
C327 C 0.22705 0.79191 0.14428 0.0
C328 C 0.20774 0.77167 0.1383 0.0
C329 C 0.19777 0.76372 0.09319 0.0
C330 C 0.20703 0.77606 0.05421 0.0
C331 C 0.22605 0.79655 0.06034 0.0
C332 C 0.25754 0.8244 0.11201 0.0
C333 C 0.25952 0.84266 0.13714 0.0
C334 C 0.2795 0.85829 0.15801 0.0
C335 C 0.2977 0.85576 0.15409 0.0
C336 C 0.29609 0.83886 0.12406 0.0
C337 C 0.27611 0.8233 0.10303 0.0
C338 C 0.2379 0.80024 0.19152 0.0
C339 C 0.22966 0.80921 0.22344 0.0
C340 C 0.24078 0.81862 0.26648 0.0
C341 C 0.26033 0.81923 0.27825 0.0
C342 C 0.26828 0.80981 0.24642 0.0
C343 C 0.2571 0.8003 0.20355 0.0
C344 C 0.19845 0.75848 0.17915 0.0
C345 C 0.17865 0.75491 0.1947 0.0
C346 C 0.17003 0.74263 0.23334 0.0
C347 C 0.18118 0.73389 0.25733 0.0
C348 C 0.20105 0.73757 0.2417 0.0
C349 C 0.20953 0.74963 0.20275 0.0
C350 C 0.17807 0.74195 0.0863 0.0
C351 C 0.15793 0.74016 0.07613 0.0
C352 C 0.13947 0.71966 0.06836 0.0
C353 C 0.14085 0.70059 0.07083 0.0
C354 C 0.16109 0.70251 0.08142 0.0
C355 C 0.17955 0.72303 0.08908 0.0
C356 C 0.19748 0.76647 0.0069 0.0
C357 C 0.18128 0.76962 0.98631 0.0
C358 C 0.16951 0.75722 0.94588 0.0
C359 C 0.17406 0.74177 0.92529 0.0
C360 C 0.19117 0.73964 0.94465 0.0
C361 C 0.20268 0.75179 0.98533 0.0
C362 C 0.23543 0.8101 0.02015 0.0
C363 C 0.23471 0.8294 0.01639 0.0
C364 C 0.24513 0.8433 0.98103 0.0
C365 C 0.25646 0.83811 0.94877 0.0
C366 C 0.25667 0.81845 0.95201 0.0
C367 C 0.24632 0.80461 0.98755 0.0
C368 C 0.27245 0.82983 0.32336 0.0
C369 C 0.12131 0.67878 0.06232 0.0
H370 H 0.49261 0.29299 0.87466 0.0
H371 H 0.44305 0.09265 0.17379 0.0
H372 H 0.49263 0.28339 0.12747 0.0
H373 H 0.49426 0.31162 0.079 0.0
H374 H 0.42461 0.2769 0.06149 0.0
H375 H 0.42326 0.24838 0.10924 0.0
H376 H 0.49817 0.25713 0.05154 0.0
H377 H 0.50244 0.27435 0.97726 0.0
H378 H 0.43302 0.24335 0.95585 0.0
H379 H 0.42902 0.22621 0.03006 0.0
H380 H 0.50099 0.21508 0.09749 0.0
H381 H 0.51412 0.20193 0.03366 0.0
H382 H 0.45331 0.17854 0.95498 0.0
H383 H 0.4401 0.19137 0.01949 0.0
H384 H 0.49154 0.20122 0.19101 0.0
H385 H 0.49165 0.16772 0.20816 0.0
H386 H 0.42974 0.1299 0.13189 0.0
H387 H 0.42967 0.16355 0.11574 0.0
H388 H 0.48651 0.23149 0.25521 0.0
H389 H 0.48825 0.2108 0.31996 0.0
H390 H 0.42378 0.15876 0.27863 0.0
H391 H 0.42205 0.17979 0.21479 0.0
H392 H 0.48861 0.27132 0.22023 0.0
H393 H 0.48745 0.29268 0.28733 0.0
H394 H 0.4185 0.24936 0.28898 0.0
H395 H 0.42008 0.22761 0.22248 0.0
O396 O 0.49057 0.2854 0.90305 0.0
O397 O 0.45478 0.26851 0.89298 0.0
O398 O 0.47528 0.12636 0.2062 0.0
O399 O 0.44358 0.10616 0.16689 0.0
C400 C 0.45768 0.24319 0.1311 0.0
C401 C 0.46078 0.23194 0.09331 0.0
C402 C 0.46248 0.21333 0.1008 0.0
C403 C 0.45959 0.20497 0.14536 0.0
C404 C 0.45599 0.21586 0.18322 0.0
C405 C 0.45559 0.23532 0.17625 0.0
C406 C 0.45784 0.26378 0.12186 0.0
C407 C 0.47768 0.28246 0.11527 0.0
C408 C 0.47856 0.29853 0.08704 0.0
C409 C 0.45958 0.29627 0.06524 0.0
C410 C 0.43957 0.27886 0.07676 0.0
C411 C 0.43872 0.26276 0.10493 0.0
C412 C 0.4633 0.24049 0.04608 0.0
C413 C 0.48393 0.25387 0.03039 0.0
C414 C 0.4863 0.26376 0.98811 0.0
C415 C 0.46807 0.26035 0.96076 0.0
C416 C 0.4474 0.24638 0.97609 0.0
C417 C 0.44506 0.23651 0.01835 0.0
C418 C 0.46958 0.20404 0.0631 0.0
C419 C 0.49042 0.20685 0.06671 0.0
C420 C 0.49791 0.19945 0.03027 0.0
C421 C 0.48476 0.1894 0.98942 0.0
C422 C 0.46385 0.18653 0.98593 0.0
C423 C 0.45625 0.19369 0.02269 0.0
C424 C 0.4605 0.18477 0.15252 0.0
C425 C 0.47803 0.18568 0.17804 0.0
C426 C 0.47806 0.16652 0.18772 0.0
C427 C 0.46064 0.14611 0.17158 0.0
C428 C 0.44337 0.14533 0.14498 0.0
C429 C 0.44332 0.16452 0.13552 0.0
C430 C 0.45416 0.20716 0.23023 0.0
C431 C 0.4724 0.21609 0.26149 0.0
C432 C 0.47349 0.20406 0.29801 0.0
C433 C 0.45632 0.18291 0.30391 0.0
C434 C 0.43726 0.17499 0.2753 0.0
C435 C 0.43619 0.18704 0.23883 0.0
C436 C 0.45441 0.24812 0.21644 0.0
C437 C 0.47327 0.2665 0.23512 0.0
C438 C 0.47253 0.2787 0.27332 0.0
C439 C 0.45283 0.27285 0.29331 0.0
C440 C 0.43394 0.25419 0.2747 0.0
C441 C 0.43476 0.24187 0.23656 0.0
C442 C 0.47065 0.27158 0.91683 0.0
C443 C 0.46037 0.12568 0.18265 0.0
C444 C 0.02914 0.48818 0.53535 0.0
C445 C 0.0138 0.4555 0.69975 0.0
C446 C 0.95467 0.4577 0.68191 0.0
Mg447 Mg 0.01582 0.52123 0.49106 0.0
Mg448 Mg 0.00627 0.5535 0.55815 0.0
O449 O -0.00215 0.52451 0.53961 0.0
Mg450 Mg 0.00216 0.50741 0.58853 0.0
O451 O 0.00695 0.48954 0.6339 0.0
Mg452 Mg 0.98947 0.45986 0.6012 0.0
Mg453 Mg 0.00205 0.49241 0.69661 0.0
C454 C 0.97502 0.52858 0.63812 0.0
O455 O 0.02779 0.53782 0.63237 0.0
O456 O 0.00411 0.53948 0.44323 0.0
O457 O 0.0213 0.52784 0.70641 0.0
O458 O 0.04622 0.55446 0.51083 0.0
O459 O -0.00109 0.56201 0.4918 0.0
O460 O 0.04077 0.57308 0.56741 0.0
O461 O 0.97693 0.47595 0.54796 0.0
O462 O 0.98554 0.48777 0.47611 0.0
C463 C 0.97396 0.47278 0.50331 0.0
C464 C -0.00071 0.55449 0.45087 0.0
O465 O 0.97741 0.51187 0.63101 0.0
O466 O 0.00525 0.44838 0.65812 0.0
O467 O 0.98565 0.54623 0.61683 0.0
O468 O 0.96028 0.45022 0.64722 0.0
O469 O 0.01429 0.47208 0.72044 0.0
O470 O 0.96796 0.47564 0.70412 0.0
O471 O 0.02627 0.5044 0.54395 0.0
O472 O 0.01819 0.47027 0.55517 0.0
C473 C 0.05322 0.57109 0.53947 0.0
C474 C 0.03094 0.54225 0.67665 0.0
C475 C 0.49055 0.02141 0.5153 0.0
C476 C 0.55066 0.00255 0.46454 0.0
C477 C 0.51145 0.9432 0.53134 0.0
Mg478 Mg 0.46063 0.0047 0.60391 0.0
Mg479 Mg 0.47793 0.99331 0.69988 0.0
O480 O 0.47174 0.98702 0.63563 0.0
Mg481 Mg 0.49581 0.99223 0.59489 0.0
O482 O 0.51836 -0.00254 0.55006 0.0
Mg483 Mg 0.49912 0.9809 0.49318 0.0
Mg484 Mg 0.53956 0.99028 0.56729 0.0
C485 C 0.49845 0.96318 0.68069 0.0
O486 O 0.52363 0.0176 0.64528 0.0
O487 O 0.43212 0.98965 0.65387 0.0
O488 O 0.55058 0.01046 0.63264 0.0
O489 O 0.48003 0.03474 0.65482 0.0
O490 O 0.44558 0.98255 0.71855 0.0
O491 O 0.4969 0.02783 0.71254 0.0
O492 O 0.47032 0.96797 0.54065 0.0
O493 O 0.44372 0.9753 0.55133 0.0
C494 C 0.45131 0.96464 0.52987 0.0
C495 C 0.42999 0.98241 0.69495 0.0
O496 O 0.50018 0.96668 0.63686 0.0
O497 O 0.5307 -0.00397 0.45343 0.0
O498 O 0.49186 0.9727 0.7091 0.0
O499 O 0.50238 0.95064 0.50441 0.0
O500 O 0.55746 0.00172 0.50586 0.0
O501 O 0.52538 0.95532 0.56379 0.0
O502 O 0.49005 0.01722 0.55841 0.0
O503 O 0.49502 0.01086 0.48472 0.0
C504 C 0.49326 0.04109 0.69057 0.0
C505 C 0.54273 0.02074 0.65496 0.0
C506 C 0.52107 0.54386 0.67128 0.0
C507 C 0.45724 0.48079 0.76019 0.0
C508 C 0.48385 0.44225 0.71147 0.0
Mg509 Mg 0.54222 0.53927 0.57695 0.0
Mg510 Mg 0.51263 0.50005 0.4979 0.0
O511 O 0.52428 0.50714 0.55976 0.0
Mg512 Mg 0.50374 0.49806 0.61114 0.0
O513 O 0.48475 0.49061 0.66476 0.0
Mg514 Mg 0.50626 0.49761 0.71854 0.0
Mg515 Mg 0.46064 0.46243 0.66224 0.0
C516 C 0.48643 0.45393 0.54321 0.0
O517 O 0.47495 0.494 0.56518 0.0
O518 O 0.5646 0.54017 0.51825 0.0
O519 O 0.44761 0.46401 0.59376 0.0
O520 O 0.52422 0.54918 0.5239 0.0
O521 O 0.54328 0.51193 0.46727 0.0
O522 O 0.50017 0.52108 0.47766 0.0
O523 O 0.5303 0.50092 0.66181 0.0
O524 O 0.55875 0.52873 0.63212 0.0
C525 C 0.55066 0.5142 0.66227 0.0
C526 C 0.56175 0.52829 0.48076 0.0
O527 O 0.49138 0.46247 0.58525 0.0
O528 O 0.47798 0.49277 0.7658 0.0
O529 O 0.49137 0.46537 0.5071 0.0
O530 O 0.49667 0.46173 0.72774 0.0
O531 O 0.44777 0.4683 0.7235 0.0
O532 O 0.46928 0.43823 0.67959 0.0
O533 O 0.5172 0.53388 0.63119 0.0
O534 O 0.5168 0.53346 0.7086 0.0
C535 C 0.5092 0.54117 0.4915 0.0
C536 C 0.45514 0.47855 0.5634 0.0
H537 H 0.1344 0.44426 0.24784 0.0
H538 H 0.11288 0.44936 0.3055 0.0
H539 H 0.11845 0.50449 0.23498 0.0
H540 H 0.13931 0.49893 0.17584 0.0
H541 H 0.127 0.48533 0.3643 0.0
H542 H 0.0546 0.47149 0.25743 0.0
H543 H 0.07337 0.46363 0.23641 0.0
H544 H 0.07981 0.49159 0.23653 0.0
C545 C 0.13045 0.45701 0.24357 0.0
C546 C 0.1384 0.47105 0.20685 0.0
C547 C 0.11834 0.46007 0.27694 0.0
C548 C 0.11387 0.47718 0.27436 0.0
C549 C 0.12134 0.49093 0.23721 0.0
H550 H 0.05018 0.52011 0.47371 0.0
H551 H 0.07221 0.51967 0.41069 0.0
C552 C 0.13341 0.48784 0.20364 0.0
C553 C 0.10267 0.48137 0.31236 0.0
H554 H 0.05766 0.48424 0.33617 0.0
C555 C 0.11185 0.4851 0.3581 0.0
C556 C 0.08298 0.48125 0.30418 0.0
C557 C 0.07197 0.47659 0.25607 0.0
C558 C 0.10176 0.48844 0.39592 0.0
C559 C 0.0819 0.48789 0.38785 0.0
C560 C 0.07296 0.48475 0.34209 0.0
C561 C 0.06935 0.4888 0.42684 0.0
C562 C 0.11234 0.49242 0.44432 0.0
C563 C 0.06048 0.47159 0.45659 0.0
C564 C 0.04781 0.4717 0.49226 0.0
C565 C 0.04371 0.48905 0.49899 0.0
C566 C 0.05294 0.50649 0.46953 0.0
C567 C 0.06552 0.50626 0.43347 0.0
H568 H 0.12978 0.49771 0.44347 0.0
H569 H 0.11059 0.50499 0.46473 0.0
H570 H 0.10437 0.47709 0.46275 0.0
H571 H 0.06306 0.45785 0.45168 0.0
H572 H 0.04103 0.458 0.51425 0.0
H573 H 0.70101 0.11248 0.17884 0.0
H574 H 0.67434 0.08238 0.22125 0.0
H575 H 0.67096 0.12832 0.31805 0.0
H576 H 0.69868 0.15842 0.27814 0.0
H577 H 0.67073 0.09665 0.36251 0.0
H578 H 0.61086 0.06078 0.2112 0.0
H579 H 0.6361 0.06214 0.20128 0.0
H580 H 0.63514 0.08688 0.21039 0.0
C581 C 0.69491 0.1162 0.20968 0.0
C582 C 0.70184 0.13793 0.22473 0.0
C583 C 0.67938 0.09894 0.23342 0.0
C584 C 0.67021 0.10308 0.27205 0.0
C585 C 0.67763 0.12472 0.28801 0.0
H586 H 0.54929 0.02606 0.39281 0.0
H587 H 0.57875 0.04826 0.34359 0.0
C588 C 0.69335 0.14194 0.26482 0.0
C589 C 0.6528 0.08508 0.29614 0.0
H590 H 0.6014 0.04199 0.28043 0.0
C591 C 0.65559 0.08464 0.34455 0.0
C592 C 0.63297 0.06957 0.27266 0.0
C593 C 0.62844 0.06992 0.22111 0.0
C594 C 0.63894 0.06958 0.37042 0.0
C595 C 0.61922 0.05383 0.3469 0.0
C596 C 0.6166 0.05392 0.2983 0.0
C597 C 0.6006 0.03827 0.37256 0.0
C598 C 0.64237 0.07149 0.4229 0.0
C599 C 0.60276 0.02459 0.40378 0.0
C600 C 0.58614 0.0123 0.43263 0.0
C601 C 0.56683 0.01294 0.42964 0.0
C602 C 0.56401 0.02527 0.3958 0.0
C603 C 0.58084 0.03796 0.3677 0.0
H604 H 0.65577 0.08782 0.43567 0.0
H605 H 0.62754 0.06856 0.4399 0.0
H606 H 0.64664 0.05921 0.43408 0.0
H607 H 0.61756 0.02397 0.40697 0.0
H608 H 0.58857 0.00264 0.45797 0.0
H609 H 0.55075 0.69821 0.24543 0.0
H610 H 0.5442 0.66855 0.29525 0.0
H611 H 0.47676 0.64932 0.29442 0.0
H612 H 0.48331 0.67949 0.24586 0.0
H613 H 0.49337 0.64807 0.38177 0.0
H614 H 0.51475 0.6047 0.2488 0.0
H615 H 0.53576 0.63237 0.26182 0.0
H616 H 0.51027 0.62687 0.23525 0.0
C617 C 0.53458 0.68795 0.25645 0.0
C618 C 0.51755 0.69125 0.2414 0.0
C619 C 0.5308 0.67077 0.28443 0.0
C620 C 0.50989 0.65638 0.29772 0.0
C621 C 0.49299 0.66006 0.28419 0.0
H622 H 0.48253 0.5325 0.4126 0.0
H623 H 0.47887 0.55906 0.3664 0.0
C624 C 0.49675 0.67726 0.25622 0.0
C625 C 0.50572 0.63748 0.32551 0.0
H626 H 0.51179 0.59263 0.32608 0.0
C627 C 0.49722 0.63584 0.36944 0.0
C628 C 0.51027 0.62121 0.30905 0.0
C629 C 0.51805 0.62119 0.26095 0.0
C630 C 0.49405 0.61893 0.39814 0.0
C631 C 0.49985 0.60343 0.38282 0.0
C632 C 0.50748 0.60456 0.33807 0.0
C633 C 0.49961 0.58685 0.4136 0.0
C634 C 0.48452 0.61786 0.44461 0.0
C635 C 0.51215 0.59352 0.45588 0.0
C636 C 0.51422 0.57842 0.48234 0.0
C637 C 0.50398 0.55626 0.46694 0.0
C638 C 0.49066 0.54941 0.42552 0.0
C639 C 0.4886 0.5646 0.39899 0.0
H640 H 0.47442 0.62573 0.44431 0.0
H641 H 0.4745 0.60076 0.45428 0.0
H642 H 0.49779 0.62673 0.4719 0.0
H643 H 0.52117 0.6106 0.46752 0.0
H644 H 0.52461 0.58436 0.51402 0.0
H645 H 0.89072 0.61067 0.27297 0.0
H646 H 0.92298 0.61255 0.30823 0.0
H647 H 0.95254 0.62723 0.17609 0.0
H648 H 0.91958 0.62416 0.13988 0.0
H649 H 0.9537 0.59425 0.20765 0.0
H650 H 0.98258 0.65579 0.3533 0.0
H651 H 0.95419 0.6385 0.35784 0.0
H652 H 0.96398 0.65452 0.30754 0.0
C653 C 0.90426 0.61475 0.25163 0.0
C654 C 0.90255 0.61698 0.20362 0.0
C655 C 0.92288 0.61617 0.27199 0.0
C656 C 0.94036 0.62032 0.24498 0.0
C657 C 0.93931 0.62416 0.19764 0.0
H658 H 0.02342 0.59661 0.43232 0.0
H659 H 0.01595 0.61581 0.37178 0.0
C660 C 0.92053 0.62254 0.17708 0.0
C661 C 0.95769 0.61681 0.26474 0.0
H662 H 0.98502 0.62271 0.3683 0.0
C663 C 0.96115 0.601 0.24222 0.0
C664 C 0.96805 0.62602 0.30909 0.0
C665 C 0.96716 0.64484 0.3329 0.0
C666 C 0.97265 0.59244 0.26508 0.0
C667 C 0.98013 0.59932 0.31216 0.0
C668 C 0.97878 0.61687 0.33265 0.0
C669 C 0.98702 0.58713 0.3425 0.0
C670 C 0.97599 0.57563 0.23892 0.0
C671 C 0.97358 0.5645 0.34553 0.0
C672 C 0.9782 0.55346 0.37929 0.0
C673 C -0.00412 0.56505 0.41133 0.0
C674 C 0.00963 0.58747 0.40774 0.0
C675 C 0.00538 0.59839 0.37325 0.0
H676 H 0.97826 0.57918 0.20155 0.0
H677 H 0.9902 0.57502 0.25371 0.0
H678 H 0.96139 0.55935 0.24045 0.0
H679 H 0.9589 0.55553 0.32344 0.0
H680 H 0.96732 0.53619 0.38203 0.0
H681 H 0.34061 0.87299 0.13658 0.0
H682 H 0.37148 0.88888 0.19429 0.0
H683 H 0.32891 0.88207 0.30303 0.0
H684 H 0.29815 0.86569 0.24647 0.0
H685 H 0.38763 0.92566 0.25727 0.0
H686 H 0.35944 0.85025 0.35111 0.0
H687 H 0.3484 0.85042 0.29376 0.0
H688 H 0.33899 0.85774 0.34485 0.0
C689 C 0.3379 0.87498 0.17279 0.0
C690 C 0.31693 0.86814 0.18687 0.0
C691 C 0.35551 0.88404 0.20562 0.0
C692 C 0.35235 0.88616 0.25298 0.0
C693 C 0.33161 0.88013 0.26677 0.0
H694 H 0.40884 0.94932 0.50692 0.0
H695 H 0.3881 0.92847 0.43611 0.0
C696 C 0.31408 0.87112 0.23417 0.0
C697 C 0.37056 0.89481 0.28855 0.0
H698 H 0.38483 0.88392 0.3945 0.0
C699 C 0.38738 0.91639 0.2867 0.0
C700 C 0.37029 0.88257 0.32664 0.0
C701 C 0.35341 0.85888 0.32901 0.0
C702 C 0.40298 0.92658 0.32389 0.0
C703 C 0.40164 0.91482 0.36349 0.0
C704 C 0.38572 0.89285 0.36398 0.0
C705 C 0.41434 0.92601 0.40726 0.0
C706 C 0.41995 0.95026 0.32225 0.0
C707 C 0.43584 0.93105 0.4147 0.0
C708 C 0.44783 0.94292 0.45552 0.0
C709 C 0.43845 0.95007 0.489 0.0
C710 C 0.41666 0.94428 0.48174 0.0
C711 C 0.40473 0.93233 0.44135 0.0
H712 H 0.41928 0.95692 0.28823 0.0
H713 H 0.41773 0.95998 0.35036 0.0
H714 H 0.43624 0.95222 0.32859 0.0
H715 H 0.44342 0.92614 0.38864 0.0
H716 H 0.46453 0.94702 0.46011 0.0
H717 H 0.47462 0.3172 0.3039 0.0
H718 H 0.47446 0.34011 0.36873 0.0
H719 H 0.42859 0.28313 0.43572 0.0
H720 H 0.42909 0.25977 0.37113 0.0
H721 H 0.41878 0.3189 0.42891 0.0
H722 H 0.50111 0.34652 0.50458 0.0
H723 H 0.50019 0.34772 0.44231 0.0
H724 H 0.48597 0.32176 0.46777 0.0
C725 C 0.46476 0.30943 0.3327 0.0
C726 C 0.4521 0.28662 0.33257 0.0
C727 C 0.46465 0.32257 0.36968 0.0
C728 C 0.45183 0.31325 0.4073 0.0
C729 C 0.43874 0.29055 0.40709 0.0
H730 H 0.48464 0.42382 0.60321 0.0
H731 H 0.47068 0.38487 0.58448 0.0
C732 C 0.43895 0.27729 0.37006 0.0
C733 C 0.45185 0.32776 0.44543 0.0
H734 H 0.48739 0.3713 0.5169 0.0
C735 C 0.43356 0.32998 0.44932 0.0
C736 C 0.47095 0.34182 0.47282 0.0
C737 C 0.49062 0.33922 0.47209 0.0
C738 C 0.43465 0.34748 0.47614 0.0
C739 C 0.4546 0.36314 0.49881 0.0
C740 C 0.47214 0.35945 0.49907 0.0
C741 C 0.45896 0.38518 0.51425 0.0
C742 C 0.41478 0.34967 0.47784 0.0
C743 C 0.45671 0.39815 0.48126 0.0
C744 C 0.46474 0.42027 0.49168 0.0
C745 C 0.47531 0.42998 0.53529 0.0
C746 C 0.47653 0.41678 0.56934 0.0
C747 C 0.46856 0.39455 0.55872 0.0
H748 H 0.39994 0.33338 0.47605 0.0
H749 H 0.41515 0.35899 0.51005 0.0
H750 H 0.41381 0.35832 0.44721 0.0
H751 H 0.44988 0.39146 0.44634 0.0
H752 H 0.46338 0.42994 0.46482 0.0
H753 H 0.56211 0.87938 0.99487 0.0
H754 H 0.55992 0.90169 0.93414 0.0
H755 H 0.50513 0.84482 0.86647 0.0
H756 H 0.50784 0.82228 0.92551 0.0
H757 H 0.53345 0.87035 0.80348 0.0
H758 H 0.51528 0.9207 0.92594 0.0
H759 H 0.54015 0.92121 0.9402 0.0
H760 H 0.51491 0.89625 0.94268 0.0
C761 C 0.54963 0.8716 0.96702 0.0
C762 C 0.5349 0.84906 0.9657 0.0
C763 C 0.54831 0.88441 0.93245 0.0
C764 C 0.53214 0.875 0.8961 0.0
C765 C 0.51767 0.85248 0.89429 0.0
H766 H 0.47368 0.93212 0.73723 0.0
H767 H 0.48368 0.91022 0.78422 0.0
C768 C 0.51904 0.83967 0.92859 0.0
C769 C 0.52976 0.88854 0.86053 0.0
H770 H 0.51843 0.92954 0.84751 0.0
C771 C 0.53028 0.88339 0.81304 0.0
C772 C 0.52551 0.90546 0.87304 0.0
C773 C 0.52372 0.91116 0.92316 0.0
C774 C 0.52619 0.8944 0.77779 0.0
C775 C 0.52176 0.91117 0.79043 0.0
C776 C 0.52188 0.9167 0.83788 0.0
C777 C 0.5149 0.92194 0.75571 0.0
C778 C 0.52576 0.88745 0.72741 0.0
C779 C 0.52878 0.93521 0.72247 0.0
C780 C 0.52287 0.94759 0.69475 0.0
C781 C 0.50319 0.94702 0.70066 0.0
C782 C 0.48897 0.93288 0.73211 0.0
C783 C 0.49471 0.92042 0.75911 0.0
H784 H 0.52562 0.87173 0.72363 0.0
H785 H 0.51137 0.88582 0.70763 0.0
H786 H 0.54033 0.90007 0.71145 0.0
H787 H 0.54457 0.93685 0.71963 0.0
H788 H 0.5342 0.9586 0.67113 0.0
H789 H 0.70602 0.51391 0.88644 0.0
H790 H 0.67265 0.50497 0.841 0.0
H791 H 0.65294 0.53073 0.95544 0.0
H792 H 0.68654 0.54027 0.00024 0.0
H793 H 0.62809 0.4811 0.85237 0.0
H794 H 0.65816 0.57005 0.85091 0.0
H795 H 0.67486 0.55929 0.87144 0.0
H796 H 0.65528 0.5599 0.90807 0.0
C797 C 0.69433 0.51724 0.90206 0.0
C798 C 0.69886 0.52805 0.94634 0.0
C799 C 0.67531 0.51213 0.87622 0.0
C800 C 0.6606 0.51763 0.89457 0.0
C801 C 0.66434 0.52682 0.94031 0.0
H802 H 0.54027 0.49081 0.7409 0.0
H803 H 0.56529 0.48991 0.80003 0.0
C804 C 0.68345 0.53221 0.96583 0.0
C805 C 0.64259 0.51585 0.86426 0.0
H806 H 0.62406 0.54668 0.81358 0.0
C807 C 0.62707 0.49537 0.84399 0.0
C808 C 0.64154 0.5346 0.85307 0.0
C809 C 0.65843 0.55723 0.87161 0.0
C810 C 0.61062 0.49319 0.81226 0.0
C811 C 0.60959 0.51196 0.80128 0.0
C812 C 0.62486 0.53232 0.82232 0.0
C813 C 0.59405 0.51139 0.76518 0.0
C814 C 0.59503 0.47102 0.78944 0.0
C815 C 0.60193 0.524 0.72651 0.0
C816 C 0.58779 0.5248 0.69323 0.0
C817 C 0.56538 0.51293 0.69778 0.0
C818 C 0.55743 0.50007 0.73631 0.0
C819 C 0.57169 0.49942 0.76995 0.0
H820 H 0.60078 0.45922 0.79419 0.0
H821 H 0.57922 0.46455 0.80524 0.0
H822 H 0.59246 0.4721 0.75154 0.0
H823 H 0.61914 0.53337 0.7222 0.0
H824 H 0.59448 0.53476 0.66388 0.0
H825 H 0.1855 0.72947 0.84485 0.0
H826 H 0.16184 0.69938 0.78856 0.0
H827 H 0.10676 0.68788 0.86545 0.0
H828 H 0.13022 0.71811 0.92098 0.0
H829 H 0.13954 0.65826 0.81003 0.0
H830 H 0.08209 0.68122 0.73481 0.0
H831 H 0.10687 0.70072 0.76685 0.0
H832 H 0.08322 0.68334 0.79726 0.0
C833 C 0.16826 0.72081 0.84898 0.0
C834 C 0.15966 0.72616 0.8871 0.0
C835 C 0.15477 0.70367 0.81685 0.0
C836 C 0.13247 0.69153 0.82238 0.0
C837 C 0.12379 0.69738 0.85957 0.0
H838 H 0.02902 0.56305 0.75615 0.0
H839 H 0.05449 0.60046 0.78595 0.0
C840 C 0.13723 0.71464 0.89141 0.0
C841 C 0.11869 0.67121 0.79307 0.0
H842 H 0.07015 0.64263 0.73088 0.0
C843 C 0.12459 0.65503 0.79191 0.0
C844 C 0.09917 0.66697 0.76943 0.0
C845 C 0.09259 0.6841 0.76673 0.0
C846 C 0.11101 0.6344 0.76975 0.0
C847 C 0.09107 0.62987 0.74821 0.0
C848 C 0.08545 0.6462 0.74781 0.0
C849 C 0.07531 0.60779 0.72853 0.0
C850 C 0.11759 0.61723 0.77112 0.0
C851 C 0.07867 0.59971 0.68636 0.0
C852 C 0.06415 0.57839 0.66927 0.0
C853 C 0.04613 0.56488 0.69418 0.0
C854 C 0.04282 0.5731 0.73634 0.0
C855 C 0.05724 0.59445 0.75322 0.0
H856 H 0.13273 0.62276 0.79295 0.0
H857 H 0.10456 0.60216 0.78499 0.0
H858 H 0.12006 0.61301 0.7352 0.0
H859 H 0.09262 0.60981 0.66702 0.0
H860 H 0.06732 0.5723 0.63721 0.0
H861 H 0.48314 0.19606 0.89685 0.0
H862 H 0.49375 0.18037 0.83264 0.0
H863 H 0.51433 0.14893 0.93142 0.0
H864 H 0.50423 0.16493 0.99559 0.0
H865 H 0.54163 0.16503 0.8576 0.0
H866 H 0.45496 0.11597 0.79543 0.0
H867 H 0.46629 0.145 0.798 0.0
H868 H 0.46346 0.13128 0.85091 0.0
C869 C 0.49008 0.18592 0.90471 0.0
C870 C 0.49264 0.18144 0.95095 0.0
C871 C 0.49617 0.17705 0.86815 0.0
C872 C 0.50451 0.16326 0.87735 0.0
C873 C 0.50798 0.15959 0.92366 0.0
H874 H 0.5157 0.05914 0.77432 0.0
H875 H 0.52432 0.09428 0.81094 0.0
C876 C 0.50214 0.16865 0.96022 0.0
C877 C 0.50764 0.15084 0.83913 0.0
H878 H 0.4793 0.10885 0.75795 0.0
C879 C 0.52811 0.15296 0.83521 0.0
C880 C 0.48994 0.13515 0.81001 0.0
C881 C 0.46738 0.13151 0.81384 0.0
C882 C 0.53115 0.13917 0.80406 0.0
C883 C 0.51322 0.1228 0.77671 0.0
C884 C 0.49307 0.12154 0.77879 0.0
C885 C 0.51386 0.10483 0.75056 0.0
C886 C 0.55337 0.14189 0.80154 0.0
C887 C 0.50566 0.09933 0.70403 0.0
C888 C 0.50033 0.07907 0.68328 0.0
C889 C 0.50307 0.06396 0.70883 0.0
C890 C 0.51318 0.07033 0.75389 0.0
C891 C 0.51838 0.09056 0.77472 0.0
H892 H 0.5661 0.15905 0.81053 0.0
H893 H 0.55535 0.13156 0.82715 0.0
H894 H 0.55586 0.13691 0.7663 0.0
H895 H 0.50202 0.11012 0.68485 0.0
H896 H 0.49291 0.0748 0.64816 0.0
H897 H 0.32027 0.50546 0.0056 0.0
H898 H 0.35345 0.5115 0.97095 0.0
H899 H 0.31737 0.45052 0.88949 0.0
H900 H 0.28404 0.44463 0.92312 0.0
H901 H 0.37251 0.48517 0.97438 0.0
H902 H 0.35128 0.49377 0.79221 0.0
H903 H 0.3369 0.49572 0.84083 0.0
H904 H 0.33097 0.46948 0.81633 0.0
C905 C 0.31933 0.49357 0.97951 0.0
C906 C 0.29947 0.47471 0.96654 0.0
C907 C 0.33833 0.49695 0.96014 0.0
C908 C 0.33783 0.48161 0.92721 0.0
C909 C 0.31805 0.46276 0.91422 0.0
H910 H 0.4171 0.44875 0.77683 0.0
H911 H 0.39068 0.45161 0.82307 0.0
C912 C 0.29905 0.45934 0.93365 0.0
C913 C 0.35801 0.48493 0.90724 0.0
H914 H 0.38069 0.48704 0.80375 0.0
C915 C 0.37449 0.48592 0.93715 0.0
C916 C 0.36063 0.48613 0.85873 0.0
C917 C 0.34411 0.48645 0.82518 0.0
C918 C 0.393 0.48686 0.91941 0.0
C919 C 0.39502 0.48693 0.87076 0.0
C920 C 0.379 0.48689 0.84111 0.0
C921 C 0.4124 0.48481 0.8491 0.0
C922 C 0.40979 0.48674 0.95234 0.0
C923 C 0.43365 0.5024 0.84964 0.0
C924 C 0.44898 0.50081 0.82311 0.0
C925 C 0.44308 0.48168 0.79548 0.0
C926 C 0.42211 0.46379 0.79734 0.0
C927 C 0.40696 0.46536 0.82377 0.0
H928 H 0.40519 0.48532 0.9891 0.0
H929 H 0.41231 0.47295 0.94209 0.0
H930 H 0.42541 0.50203 0.95007 0.0
H931 H 0.43808 0.51761 0.86882 0.0
H932 H 0.46497 0.51488 0.82211 0.0
H933 H 0.82119 0.33773 0.97676 0.0
H934 H 0.84035 0.36753 0.92529 0.0
H935 H 0.8424 0.32252 0.82361 0.0
H936 H 0.82298 0.29263 0.87447 0.0
H937 H 0.88184 0.3801 0.89388 0.0
H938 H 0.82143 0.35709 0.74548 0.0
H939 H 0.81428 0.34627 0.80221 0.0
H940 H 0.82597 0.33548 0.76252 0.0
C941 C 0.82539 0.33413 0.94309 0.0
C942 C 0.82059 0.31284 0.92967 0.0
C943 C 0.83638 0.35116 0.91382 0.0
C944 C 0.8425 0.34716 0.87038 0.0
C945 C 0.83746 0.32588 0.85661 0.0
H946 H 0.92618 0.41469 0.65847 0.0
H947 H 0.89645 0.38962 0.70345 0.0
C948 C 0.8266 0.30888 0.88594 0.0
C949 C 0.85576 0.36545 0.84114 0.0
H950 H 0.85774 0.38406 0.73241 0.0
C951 C 0.87648 0.38121 0.85883 0.0
C952 C 0.84871 0.36672 0.7954 0.0
C953 C 0.82631 0.3506 0.7753 0.0
C954 C 0.89079 0.39766 0.83128 0.0
C955 C 0.88392 0.39873 0.7851 0.0
C956 C 0.86293 0.3833 0.76785 0.0
C957 C 0.89902 0.41455 0.75317 0.0
C958 C 0.9135 0.413 0.85113 0.0
C959 C 0.90953 0.43706 0.76457 0.0
C960 C 0.92674 0.45147 0.73918 0.0
C961 C 0.93352 0.44362 0.70152 0.0
C962 C 0.92152 0.42131 0.68744 0.0
C963 C 0.90448 0.40691 0.71316 0.0
H964 H 0.91754 0.40688 0.8828 0.0
H965 H 0.92547 0.41549 0.825 0.0
H966 H 0.91513 0.42904 0.861 0.0
H967 H 0.90515 0.44337 0.79454 0.0
H968 H 0.93543 0.46859 0.75059 0.0
H969 H 0.81156 0.50336 0.87159 0.0
H970 H 0.83752 0.49781 0.82818 0.0
H971 H 0.88155 0.56716 0.83725 0.0
H972 H 0.85616 0.57277 0.88175 0.0
H973 H 0.85628 0.51293 0.74504 0.0
H974 H 0.91882 0.54383 0.89053 0.0
H975 H 0.8915 0.53777 0.89842 0.0
H976 H 0.91077 0.56325 0.87602 0.0
C977 C 0.82676 0.51742 0.86423 0.0
C978 C 0.83173 0.53851 0.88012 0.0
C979 C 0.84155 0.51423 0.83936 0.0
C980 C 0.86166 0.53202 0.83026 0.0
C981 C 0.86633 0.55313 0.84465 0.0
H982 H 0.97209 0.56245 0.678 0.0
H983 H 0.94401 0.56074 0.72642 0.0
C984 C 0.8516 0.55634 0.86946 0.0
C985 C 0.87783 0.52868 0.80575 0.0
H986 H 0.93038 0.54053 0.81484 0.0
C987 C 0.87239 0.51868 0.7605 0.0
C988 C 0.8988 0.536 0.82613 0.0
C989 C 0.90526 0.54559 0.87565 0.0
C990 C 0.88769 0.51683 0.73425 0.0
C991 C 0.9089 0.52502 0.75398 0.0
C992 C 0.91413 0.53434 0.79975 0.0
C993 C 0.92632 0.52558 0.72648 0.0
C994 C 0.88137 0.50698 0.68492 0.0
C995 C 0.92593 0.50634 0.71124 0.0
C996 C 0.94207 0.50725 0.68354 0.0
C997 C 0.95883 0.52742 0.67057 0.0
C998 C 0.95938 0.54663 0.68701 0.0
C999 C 0.94336 0.54571 0.71481 0.0
H1000 H 0.86535 0.50444 0.67249 0.0
H1001 H 0.89362 0.51759 0.66091 0.0
H1002 H 0.88063 0.49096 0.68318 0.0
H1003 H 0.91305 0.49064 0.72037 0.0
H1004 H 0.94108 0.49215 0.67124 0.0
H1005 H 0.28241 0.8822 0.96205 0.0
H1006 H 0.30604 0.90751 0.90699 0.0
H1007 H 0.28331 0.85486 0.80144 0.0
H1008 H 0.25963 0.82933 0.85666 0.0
H1009 H 0.3263 0.87708 0.81189 0.0
H1010 H 0.29759 0.93606 0.79556 0.0
H1011 H 0.30251 0.9327 0.85544 0.0
H1012 H 0.28167 0.90996 0.82002 0.0
C1013 C 0.28201 0.87608 0.92677 0.0
C1014 C 0.26914 0.85375 0.91372 0.0
C1015 C 0.29548 0.89061 0.89521 0.0
C1016 C 0.29618 0.88318 0.84977 0.0
C1017 C 0.28291 0.86099 0.83622 0.0
H1018 H 0.38994 0.96519 0.64914 0.0
H1019 H 0.35489 0.94155 0.6815 0.0
C1020 C 0.2695 0.84641 0.86787 0.0
C1021 C 0.31264 0.89806 0.81863 0.0
H1022 H 0.33458 0.94876 0.77611 0.0
C1023 C 0.32779 0.89253 0.80324 0.0
C1024 C 0.31457 0.9182 0.80705 0.0
C1025 C 0.29806 0.92448 0.81999 0.0
C1026 C 0.34547 0.90708 0.779 0.0
C1027 C 0.34818 0.92776 0.77028 0.0
C1028 C 0.33249 0.93293 0.78329 0.0
C1029 C 0.36835 0.94468 0.75174 0.0
C1030 C 0.36166 0.90061 0.76439 0.0
C1031 C 0.38723 0.95475 0.78097 0.0
C1032 C 0.40712 0.96811 0.76278 0.0
C1033 C 0.40853 0.97171 0.71489 0.0
C1034 C 0.38938 0.96277 0.68616 0.0
C1035 C 0.36938 0.94926 0.70451 0.0
H1036 H 0.3552 0.88278 0.76557 0.0
H1037 H 0.3665 0.90551 0.72854 0.0
H1038 H 0.37636 0.90915 0.7883 0.0
H1039 H 0.38668 0.95145 0.81757 0.0
H1040 H 0.42151 0.97492 0.786 0.0
H1041 H 0.4873 0.34026 0.05948 0.0
H1042 H 0.49136 0.36225 0.99264 0.0
H1043 H 0.43929 0.30618 0.91634 0.0
H1044 H 0.43535 0.28398 0.98239 0.0
H1045 H 0.49953 0.35296 0.89692 0.0
H1046 H 0.42318 0.35525 0.90781 0.0
H1047 H 0.43522 0.34887 0.95662 0.0
H1048 H 0.42103 0.32889 0.90936 0.0
C1049 C 0.47665 0.3326 0.02857 0.0
C1050 C 0.46085 0.31036 0.02666 0.0
C1051 C 0.47899 0.3452 0.99041 0.0
C1052 C 0.46551 0.33589 0.94969 0.0
C1053 C 0.44963 0.31378 0.9477 0.0
H1054 H 0.45421 0.39838 0.70112 0.0
H1055 H 0.45057 0.37033 0.75344 0.0
C1056 C 0.44731 0.30115 0.98573 0.0
C1057 C 0.46837 0.34921 0.90895 0.0
H1058 H 0.44438 0.37185 0.84476 0.0
C1059 C 0.48748 0.35708 0.88539 0.0
C1060 C 0.4525 0.35431 0.89364 0.0
C1061 C 0.43185 0.34656 0.91821 0.0
C1062 C 0.4912 0.37006 0.84707 0.0
C1063 C 0.47563 0.37577 0.83261 0.0
C1064 C 0.4563 0.36745 0.85562 0.0
C1065 C 0.47962 0.39164 0.79629 0.0
C1066 C 0.51172 0.37734 0.82225 0.0
C1067 C 0.49746 0.41281 0.80202 0.0
C1068 C 0.49969 0.4288 0.772 0.0
C1069 C 0.48393 0.42411 0.73583 0.0
C1070 C 0.46668 0.40258 0.72848 0.0
C1071 C 0.4645 0.38654 0.75857 0.0
H1072 H 0.5178 0.36575 0.82608 0.0
H1073 H 0.5093 0.37891 0.78454 0.0
H1074 H 0.52437 0.39344 0.83791 0.0
H1075 H 0.50913 0.41736 0.83128 0.0
H1076 H 0.5132 0.44517 0.77884 0.0
H1077 H 0.17138 0.47429 0.90462 0.0
H1078 H 0.1406 0.46517 0.85092 0.0
H1079 H 0.10909 0.39887 0.89214 0.0
H1080 H 0.13903 0.40824 0.94877 0.0
H1081 H 0.12007 0.43739 0.77759 0.0
H1082 H 0.06503 0.41554 0.92324 0.0
H1083 H 0.09383 0.42778 0.93327 0.0
H1084 H 0.07763 0.39929 0.9156 0.0
C1085 C 0.15786 0.45779 0.90264 0.0
C1086 C 0.15756 0.44218 0.932 0.0
C1087 C 0.14036 0.45251 0.8714 0.0
C1088 C 0.12227 0.43146 0.86832 0.0
C1089 C 0.12259 0.41537 0.89485 0.0
H1090 H 0.02121 0.42295 0.6664 0.0
H1091 H 0.0443 0.41068 0.70398 0.0
C1092 C 0.13995 0.42073 0.92679 0.0
C1093 C 0.10268 0.42714 0.83986 0.0
H1094 H 0.05079 0.41604 0.84933 0.0
C1095 C 0.10479 0.43242 0.793 0.0
C1096 C 0.08276 0.42064 0.86016 0.0
C1097 C 0.07962 0.41564 0.91088 0.0
C1098 C 0.08808 0.43284 0.76679 0.0
C1099 C 0.06848 0.42714 0.78769 0.0
C1100 C 0.06582 0.42032 0.83342 0.0
C1101 C 0.05222 0.4319 0.7663 0.0
C1102 C 0.09218 0.44092 0.71825 0.0
C1103 C 0.0481 0.44698 0.78985 0.0
C1104 C 0.03474 0.45371 0.769 0.0
C1105 C 0.02523 0.44564 0.7238 0.0
C1106 C 0.02842 0.42963 0.70109 0.0
C1107 C 0.04175 0.42273 0.72232 0.0
H1108 H 0.10941 0.44802 0.71034 0.0
H1109 H 0.08236 0.42712 0.69241 0.0
H1110 H 0.08741 0.45347 0.71369 0.0
H1111 H 0.05592 0.45424 0.82387 0.0
H1112 H 0.03255 0.4659 0.78785 0.0
H1113 H 0.71345 0.18316 0.82714 0.0
H1114 H 0.68078 0.15368 0.78602 0.0
H1115 H 0.64317 0.15343 0.90017 0.0
H1116 H 0.67568 0.18239 0.94188 0.0
H1117 H 0.63684 0.11256 0.87457 0.0
H1118 H 0.62872 0.15324 0.72014 0.0
H1119 H 0.65503 0.15622 0.72945 0.0
H1120 H 0.64548 0.16823 0.7717 0.0
C1121 C 0.69818 0.17702 0.84317 0.0
C1122 C 0.6972 0.18527 0.88766 0.0
C1123 C 0.6795 0.16029 0.81951 0.0
C1124 C 0.65951 0.15154 0.83985 0.0
C1125 C 0.6584 0.16008 0.88369 0.0
H1126 H 0.53917 0.05543 0.6879 0.0
H1127 H 0.56538 0.08663 0.73855 0.0
C1128 C 0.67701 0.17681 0.90728 0.0
C1129 C 0.64008 0.13244 0.81702 0.0
H1130 H 0.60764 0.11439 0.71681 0.0
C1131 C 0.63032 0.113 0.84025 0.0
C1132 C 0.63142 0.13315 0.7726 0.0
C1133 C 0.64055 0.15388 0.74713 0.0
C1134 C 0.61259 0.094 0.81946 0.0
C1135 C 0.60462 0.09441 0.77403 0.0
C1136 C 0.61387 0.11407 0.75154 0.0
C1137 C 0.58752 0.07442 0.74808 0.0
C1138 C 0.60258 0.07365 0.84629 0.0
C1139 C 0.5911 0.05707 0.73718 0.0
C1140 C 0.57605 0.03914 0.70863 0.0
C1141 C 0.55713 0.03824 0.69023 0.0
C1142 C 0.5533 0.05537 0.7023 0.0
C1143 C 0.56838 0.07333 0.73086 0.0
H1144 H 0.60609 0.07757 0.88446 0.0
H1145 H 0.58481 0.06414 0.839 0.0
H1146 H 0.60943 0.06325 0.83565 0.0
H1147 H 0.60594 0.05776 0.74933 0.0
H1148 H 0.57956 0.02628 0.69989 0.0
H1149 H 0.57939 0.70247 0.8956 0.0
H1150 H 0.58091 0.68023 0.83125 0.0
H1151 H 0.55594 0.709 0.73541 0.0
H1152 H 0.55426 0.7314 0.80025 0.0
H1153 H 0.53192 0.66628 0.73018 0.0
H1154 H 0.61611 0.68544 0.72239 0.0
H1155 H 0.60893 0.68177 0.78176 0.0
H1156 H 0.60898 0.70374 0.75175 0.0
C1157 C 0.57494 0.70467 0.86065 0.0
C1158 C 0.56661 0.7186 0.85302 0.0
C1159 C 0.57594 0.69201 0.8237 0.0
C1160 C 0.56889 0.69319 0.77826 0.0
C1161 C 0.56164 0.70796 0.77011 0.0
H1162 H 0.52412 0.57143 0.60338 0.0
H1163 H 0.53891 0.61101 0.61325 0.0
C1164 C 0.56054 0.72061 0.80719 0.0
C1165 C 0.56558 0.67629 0.74194 0.0
H1166 H 0.58841 0.64648 0.70571 0.0
C1167 C 0.54444 0.66237 0.72319 0.0
C1168 C 0.58195 0.67132 0.7323 0.0
C1169 C 0.60529 0.68657 0.74778 0.0
C1170 C 0.53873 0.64232 0.70011 0.0
C1171 C 0.55464 0.63622 0.69562 0.0
C1172 C 0.57621 0.65116 0.70972 0.0
C1173 C 0.54838 0.61315 0.6864 0.0
C1174 C 0.51536 0.62688 0.68495 0.0
C1175 C 0.5493 0.60151 0.72396 0.0
C1176 C 0.54083 0.57909 0.71857 0.0
C1177 C 0.53139 0.56785 0.67534 0.0
C1178 C 0.53131 0.57967 0.63708 0.0
C1179 C 0.53971 0.60223 0.64263 0.0
H1180 H 0.50489 0.63394 0.6923 0.0
H1181 H 0.51387 0.6227 0.64694 0.0
H1182 H 0.50933 0.61151 0.70313 0.0
H1183 H 0.55585 0.60969 0.75806 0.0
H1184 H 0.54137 0.57052 0.74861 0.0
H1185 H 0.49178 0.17824 0.31623 0.0
H1186 H 0.49549 0.15159 0.36117 0.0
H1187 H 0.43107 0.12693 0.40679 0.0
H1188 H 0.42723 0.15374 0.36188 0.0
H1189 H 0.49218 0.1429 0.45604 0.0
H1190 H 0.42905 0.07295 0.34408 0.0
H1191 H 0.44064 0.10076 0.32786 0.0
H1192 H 0.42069 0.09066 0.37059 0.0
C1193 C 0.47854 0.16751 0.33663 0.0
C1194 C 0.45921 0.1682 0.33551 0.0
C1195 C 0.48065 0.15216 0.3621 0.0
C1196 C 0.46347 0.13707 0.38687 0.0
C1197 C 0.44441 0.13817 0.38726 0.0
H1198 H 0.47981 0.04741 0.56827 0.0
H1199 H 0.47194 0.0753 0.54132 0.0
C1200 C 0.44225 0.15352 0.36166 0.0
C1201 C 0.46539 0.11972 0.41047 0.0
H1202 H 0.44567 0.06473 0.40598 0.0
C1203 C 0.4819 0.12578 0.44545 0.0
C1204 C 0.45211 0.09741 0.39618 0.0
C1205 C 0.43473 0.08996 0.35738 0.0
C1206 C 0.48573 0.11019 0.46599 0.0
C1207 C 0.47247 0.08788 0.4516 0.0
C1208 C 0.45572 0.08181 0.41722 0.0
C1209 C 0.47678 0.07076 0.46879 0.0
C1210 C 0.50447 0.11781 0.50149 0.0
C1211 C 0.48161 0.05856 0.43698 0.0
C1212 C 0.48594 0.04256 0.4522 0.0
C1213 C 0.4855 0.03826 0.4997 0.0
C1214 C 0.4804 0.05032 0.53154 0.0
C1215 C 0.47601 0.06638 0.5162 0.0
H1216 H 0.51575 0.13565 0.50136 0.0
H1217 H 0.49827 0.11413 0.53681 0.0
H1218 H 0.51362 0.10922 0.49485 0.0
H1219 H 0.48227 0.0616 0.40024 0.0
H1220 H 0.48976 0.03362 0.42655 0.0
H1221 H 0.29673 0.44547 0.28884 0.0
H1222 H 0.32769 0.44789 0.33322 0.0
H1223 H 0.33857 0.50705 0.40602 0.0
H1224 H 0.30727 0.50454 0.36222 0.0
H1225 H 0.3717 0.48459 0.3361 0.0
H1226 H 0.33649 0.46615 0.50967 0.0
H1227 H 0.32001 0.45947 0.45601 0.0
H1228 H 0.33472 0.48713 0.47975 0.0
C1229 C 0.30543 0.45874 0.315 0.0
C1230 C 0.29947 0.47469 0.32255 0.0
C1231 C 0.32322 0.46023 0.33987 0.0
C1232 C 0.33527 0.47759 0.37284 0.0
C1233 C 0.3293 0.49345 0.38088 0.0
H1234 H 0.45985 0.51186 0.51031 0.0
H1235 H 0.43196 0.51248 0.45968 0.0
C1236 C 0.31151 0.49203 0.35584 0.0
C1237 C 0.35423 0.47909 0.39836 0.0
H1238 H 0.37259 0.47441 0.5058 0.0
C1239 C 0.37201 0.48247 0.37325 0.0
C1240 C 0.35437 0.47618 0.44664 0.0
C1241 C 0.33536 0.47187 0.47475 0.0
C1242 C 0.39 0.48283 0.39532 0.0
C1243 C 0.39009 0.47985 0.44359 0.0
C1244 C 0.37239 0.47671 0.46872 0.0
C1245 C 0.4079 0.47893 0.46879 0.0
C1246 C 0.40846 0.48579 0.36677 0.0
C1247 C 0.40365 0.45979 0.48989 0.0
C1248 C 0.41945 0.45938 0.51879 0.0
C1249 C 0.4398 0.47818 0.52724 0.0
C1250 C 0.4444 0.49707 0.50418 0.0
C1251 C 0.42849 0.49746 0.47527 0.0
H1252 H 0.40408 0.4837 0.32874 0.0
H1253 H 0.42238 0.50246 0.37448 0.0
H1254 H 0.41373 0.47399 0.37593 0.0
H1255 H 0.38784 0.44532 0.48509 0.0
H1256 H 0.41547 0.44452 0.53569 0.0
H1257 H 0.85384 0.34231 0.18792 0.0
H1258 H 0.87514 0.36757 0.25411 0.0
H1259 H 0.87279 0.31441 0.32731 0.0
H1260 H 0.85153 0.28906 0.26115 0.0
H1261 H 0.86272 0.36604 0.34575 0.0
H1262 H 0.93722 0.35996 0.33818 0.0
H1263 H 0.9171 0.3504 0.29021 0.0
H1264 H 0.91229 0.33471 0.34064 0.0
C1265 C 0.85799 0.33604 0.21799 0.0
C1266 C 0.85119 0.31376 0.21917 0.0
C1267 C 0.87014 0.35046 0.25576 0.0
C1268 C 0.87572 0.3429 0.29544 0.0
C1269 C 0.86905 0.32067 0.29668 0.0
H1270 H 0.95595 0.43175 0.53728 0.0
H1271 H 0.92965 0.39703 0.49503 0.0
C1272 C 0.85696 0.30623 0.2588 0.0
C1273 C 0.88795 0.35835 0.33582 0.0
H1274 H 0.93699 0.3839 0.39664 0.0
C1275 C 0.87885 0.36974 0.35727 0.0
C1276 C 0.9089 0.36298 0.35116 0.0
C1277 C 0.9196 0.35153 0.32877 0.0
C1278 C 0.89052 0.3863 0.39217 0.0
C1279 C 0.91185 0.39171 0.40573 0.0
C1280 C 0.92054 0.37954 0.38629 0.0
C1281 C 0.92648 0.41217 0.43348 0.0
C1282 C 0.88031 0.39854 0.41309 0.0
C1283 C 0.93325 0.43196 0.41277 0.0
C1284 C 0.94824 0.45152 0.43629 0.0
C1285 C 0.95677 0.4518 0.48127 0.0
C1286 C 0.94956 0.432 0.50275 0.0
C1287 C 0.93465 0.41223 0.47868 0.0
H1288 H 0.86241 0.38897 0.40856 0.0
H1289 H 0.88513 0.40271 0.45083 0.0
H1290 H 0.88588 0.41397 0.39543 0.0
H1291 H 0.92727 0.43222 0.37777 0.0
H1292 H 0.95335 0.46649 0.41887 0.0
H1293 H 0.5385 0.84289 0.23439 0.0
H1294 H 0.53425 0.86055 0.30433 0.0
H1295 H 0.50606 0.79954 0.37101 0.0
H1296 H 0.50999 0.78161 0.30038 0.0
H1297 H 0.48379 0.82023 0.38601 0.0
H1298 H 0.57026 0.87853 0.42528 0.0
H1299 H 0.56264 0.88057 0.36646 0.0
H1300 H 0.56094 0.85556 0.38362 0.0
C1301 C 0.53159 0.83327 0.26409 0.0
C1302 C 0.52478 0.81092 0.2621 0.0
C1303 C 0.52926 0.8434 0.30415 0.0
C1304 C 0.52039 0.83151 0.34343 0.0
C1305 C 0.51317 0.80908 0.3413 0.0
H1306 H 0.53227 0.92305 0.56966 0.0
H1307 H 0.53199 0.89057 0.53673 0.0
C1308 C 0.51533 0.79885 0.30093 0.0
C1309 C 0.51801 0.8426 0.38567 0.0
H1310 H 0.54541 0.88927 0.45539 0.0
C1311 C 0.49734 0.83509 0.40191 0.0
C1312 C 0.53574 0.86156 0.40764 0.0
C1313 C 0.55866 0.86935 0.39516 0.0
C1314 C 0.49366 0.8471 0.43667 0.0
C1315 C 0.51102 0.86742 0.45462 0.0
C1316 C 0.53197 0.87389 0.44128 0.0
C1317 C 0.50761 0.88362 0.48165 0.0
C1318 C 0.47113 0.83808 0.45288 0.0
C1319 C 0.49343 0.89006 0.4629 0.0
C1320 C 0.49338 0.9084 0.48189 0.0
C1321 C 0.50786 0.92106 0.51955 0.0
C1322 C 0.52097 0.91374 0.54053 0.0
C1323 C 0.52086 0.89519 0.52165 0.0
H1324 H 0.46275 0.82001 0.45251 0.0
H1325 H 0.47118 0.84459 0.4886 0.0
H1326 H 0.46166 0.84243 0.42858 0.0
H1327 H 0.48342 0.88188 0.43143 0.0
H1328 H 0.48296 0.91344 0.4649 0.0
H1329 H 0.71131 0.53643 0.2367 0.0
H1330 H 0.68386 0.53244 0.28967 0.0
H1331 H 0.6793 0.58427 0.2258 0.0
H1332 H 0.70596 0.5876 0.17085 0.0
H1333 H 0.68415 0.56116 0.35438 0.0
H1334 H 0.61671 0.53708 0.22169 0.0
H1335 H 0.64152 0.53793 0.20806 0.0
H1336 H 0.64029 0.56266 0.21257 0.0
C1337 C 0.70417 0.5467 0.23313 0.0
C1338 C 0.71071 0.56217 0.19898 0.0
C1339 C 0.68864 0.54456 0.26389 0.0
C1340 C 0.67929 0.55785 0.26138 0.0
C1341 C 0.68596 0.57353 0.22783 0.0
H1342 H 0.60134 0.56587 0.48374 0.0
H1343 H 0.63067 0.57469 0.43171 0.0
C1344 C 0.70141 0.57558 0.19675 0.0
C1345 C 0.66273 0.55531 0.29428 0.0
H1346 H 0.61029 0.54301 0.29946 0.0
C1347 C 0.66799 0.55723 0.34241 0.0
C1348 C 0.64161 0.54999 0.27861 0.0
C1349 C 0.63457 0.54658 0.22744 0.0
C1350 C 0.65267 0.55374 0.37527 0.0
C1351 C 0.63163 0.54868 0.35958 0.0
C1352 C 0.62647 0.54704 0.31147 0.0
C1353 C 0.61424 0.54359 0.39208 0.0
C1354 C 0.65894 0.55473 0.42634 0.0
C1355 C 0.59512 0.52338 0.38667 0.0
C1356 C 0.57829 0.51843 0.41583 0.0
C1357 C 0.58017 0.53356 0.45131 0.0
C1358 C 0.59943 0.55378 0.45705 0.0
C1359 C 0.61625 0.55881 0.42745 0.0
H1360 H 0.67368 0.55338 0.43165 0.0
H1361 H 0.66235 0.57058 0.44293 0.0
H1362 H 0.64566 0.54152 0.44441 0.0
H1363 H 0.59319 0.51137 0.3597 0.0
H1364 H 0.56377 0.50267 0.41041 0.0
H1365 H 0.13982 0.70119 0.26465 0.0
H1366 H 0.12462 0.67868 0.33066 0.0
H1367 H 0.1863 0.714 0.40801 0.0
H1368 H 0.20174 0.73639 0.34143 0.0
H1369 H 0.16912 0.67135 0.41616 0.0
H1370 H 0.10695 0.6934 0.45112 0.0
H1371 H 0.10429 0.68405 0.39127 0.0
H1372 H 0.12844 0.7085 0.41322 0.0
C1373 C 0.15007 0.70435 0.29594 0.0
C1374 C 0.17192 0.72064 0.29801 0.0
C1375 C 0.14135 0.69154 0.33375 0.0
C1376 C 0.15418 0.69498 0.37478 0.0
C1377 C 0.17606 0.71117 0.37688 0.0
H1378 H 0.07233 0.61185 0.5843 0.0
H1379 H 0.10267 0.64497 0.55777 0.0
C1380 C 0.18486 0.72388 0.33881 0.0
C1381 C 0.14481 0.68086 0.41428 0.0
H1382 H 0.10006 0.65848 0.47734 0.0
C1383 C 0.15424 0.66883 0.43028 0.0
C1384 C 0.1258 0.67805 0.43396 0.0
C1385 C 0.11596 0.69191 0.42185 0.0
C1386 C 0.14421 0.65282 0.46255 0.0
C1387 C 0.12393 0.64832 0.47818 0.0
C1388 C 0.11545 0.6616 0.46504 0.0
C1389 C 0.10981 0.62835 0.5026 0.0
C1390 C 0.15529 0.64064 0.47876 0.0
C1391 C 0.1044 0.60786 0.48214 0.0
C1392 C 0.08732 0.5889 0.4977 0.0
C1393 C 0.07488 0.59003 0.53336 0.0
C1394 C 0.08148 0.61037 0.5566 0.0
C1395 C 0.09879 0.62936 0.54131 0.0
H1396 H 0.17311 0.65142 0.48084 0.0
H1397 H 0.15019 0.63405 0.51342 0.0
H1398 H 0.15133 0.62693 0.45308 0.0
H1399 H 0.11222 0.60654 0.45164 0.0
H1400 H 0.08281 0.57354 0.47909 0.0
loop_
_geom_bond_atom_site_label_1
_geom_bond_atom_site_label_2
_geom_bond_distance
_geom_bond_site_symmetry_2
_ccdc_geom_bond_type
H0 O26 0.856 . S
H1 O29 0.854 . S
H2 C37 0.930 . S
H3 C38 0.930 . S
H4 C40 0.930 . S
H5 C41 0.930 . S
H6 C43 0.931 . S
H7 C44 0.930 . S
H8 C46 0.930 . S
H9 C47 0.929 . S
H10 C49 0.930 . S
H11 C50 0.931 . S
H12 C52 0.930 . S
H13 C53 0.929 . S
H14 C55 0.931 . S
H15 C56 0.930 . S
H16 C58 0.930 . S
H17 C59 0.932 . S
H18 C61 0.930 . S
H19 C62 0.929 . S
H20 C64 0.931 . S
H21 C65 0.930 . S
H22 C67 0.929 . S
H23 C68 0.931 . S
H24 C70 0.930 . S
H25 C71 0.929 . S
O26 H0 0.856 . S
O26 C72 1.300 . S
O27 C72 1.209 . S
O28 C73 1.199 . S
O29 H1 0.854 . S
O29 C73 1.297 . S
C30 C31 1.404 . S
C30 C35 1.397 . S
C30 C36 1.492 . S
C31 C30 1.404 . S
C31 C32 1.396 . S
C31 C42 1.492 . S
C32 C31 1.396 . S
C32 C33 1.397 . S
C32 C48 1.509 . S
C33 C32 1.397 . S
C33 C34 1.412 . S
C33 C54 1.485 . S
C34 C33 1.412 . S
C34 C35 1.388 . S
C34 C60 1.490 . S
C35 C30 1.397 . S
C35 C34 1.388 . S
C35 C66 1.519 . S
C36 C30 1.492 . S
C36 C37 1.363 . S
C36 C41 1.390 . S
C37 H2 0.930 . S
C37 C36 1.363 . S
C37 C38 1.372 . S
C38 H3 0.930 . S
C38 C37 1.372 . S
C38 C39 1.383 . S
C39 C38 1.383 . S
C39 C40 1.395 . S
C40 H4 0.930 . S
C40 C39 1.395 . S
C40 C41 1.362 . S
C41 H5 0.930 . S
C41 C36 1.390 . S
C41 C40 1.362 . S
C42 C31 1.492 . S
C42 C43 1.377 . S
C42 C47 1.397 . S
C43 H6 0.931 . S
C43 C42 1.377 . S
C43 C44 1.376 . S
C44 H7 0.930 . S
C44 C43 1.376 . S
C44 C45 1.376 . S
C45 C44 1.376 . S
C45 C46 1.378 . S
C45 C72 1.486 . S
C46 H8 0.930 . S
C46 C45 1.378 . S
C46 C47 1.376 . S
C47 H9 0.929 . S
C47 C42 1.397 . S
C47 C46 1.376 . S
C48 C32 1.509 . S
C48 C49 1.391 . S
C48 C53 1.386 . S
C49 H10 0.930 . S
C49 C48 1.391 . S
C49 C50 1.375 . S
C50 H11 0.931 . S
C50 C49 1.375 . S
C50 C51 1.375 . S
C51 C50 1.375 . S
C51 C52 1.361 . S
C52 H12 0.930 . S
C52 C51 1.361 . S
C52 C53 1.399 . S
C53 H13 0.929 . S
C53 C48 1.386 . S
C53 C52 1.399 . S
C54 C33 1.485 . S
C54 C55 1.394 . S
C54 C59 1.360 . S
C55 H14 0.931 . S
C55 C54 1.394 . S
C55 C56 1.372 . S
C56 H15 0.930 . S
C56 C55 1.372 . S
C56 C57 1.397 . S
C57 C56 1.397 . S
C57 C58 1.390 . S
C57 C73 1.476 . S
C58 H16 0.930 . S
C58 C57 1.390 . S
C58 C59 1.366 . S
C59 H17 0.932 . S
C59 C54 1.360 . S
C59 C58 1.366 . S
C60 C34 1.490 . S
C60 C61 1.380 . S
C60 C65 1.386 . S
C61 H18 0.930 . S
C61 C60 1.380 . S
C61 C62 1.381 . S
C62 H19 0.929 . S
C62 C61 1.381 . S
C62 C63 1.371 . S
C63 C62 1.371 . S
C63 C64 1.380 . S
C64 H20 0.931 . S
C64 C63 1.380 . S
C64 C65 1.387 . S
C65 H21 0.930 . S
C65 C60 1.386 . S
C65 C64 1.387 . S
C66 C35 1.519 . S
C66 C67 1.377 . S
C66 C71 1.361 . S
C67 H22 0.929 . S
C67 C66 1.377 . S
C67 C68 1.386 . S
C68 H23 0.931 . S
C68 C67 1.386 . S
C68 C69 1.363 . S
C69 C68 1.363 . S
C69 C70 1.385 . S
C70 H24 0.930 . S
C70 C69 1.385 . S
C70 C71 1.396 . S
C71 H25 0.929 . S
C71 C66 1.361 . S
C71 C70 1.396 . S
C72 O26 1.300 . S
C72 O27 1.209 . S
C72 C45 1.486 . S
C73 O28 1.199 . S
C73 O29 1.297 . S
C73 C57 1.476 . S
H74 O100 0.856 . S
H75 O103 0.854 . S
H76 C111 0.930 . S
H77 C112 0.930 . S
H78 C114 0.930 . S
H79 C115 0.930 . S
H80 C117 0.931 . S
H81 C118 0.930 . S
H82 C120 0.930 . S
H83 C121 0.929 . S
H84 C123 0.930 . S
H85 C124 0.931 . S
H86 C126 0.930 . S
H87 C127 0.929 . S
H88 C129 0.931 . S
H89 C130 0.930 . S
H90 C132 0.930 . S
H91 C133 0.932 . S
H92 C135 0.930 1_554 S
H93 C136 0.929 . S
H94 C138 0.931 . S
H95 C139 0.930 1_554 S
H96 C141 0.929 . S
H97 C142 0.931 . S
H98 C144 0.930 . S
H99 C145 0.929 . S
O100 H74 0.856 . S
O100 C146 1.300 . S
O101 C146 1.209 . S
O102 C147 1.199 . S
O103 H75 0.854 . S
O103 C147 1.297 . S
C104 C105 1.404 . S
C104 C109 1.397 . S
C104 C110 1.492 . S
C105 C104 1.404 . S
C105 C106 1.396 . S
C105 C116 1.492 . S
C106 C105 1.396 . S
C106 C107 1.397 . S
C106 C122 1.509 . S
C107 C106 1.397 . S
C107 C108 1.412 . S
C107 C128 1.485 . S
C108 C107 1.412 . S
C108 C109 1.388 . S
C108 C134 1.490 . S
C109 C104 1.397 . S
C109 C108 1.388 . S
C109 C140 1.519 . S
C110 C104 1.492 . S
C110 C111 1.363 . S
C110 C115 1.390 . S
C111 H76 0.930 . S
C111 C110 1.363 . S
C111 C112 1.372 . S
C112 H77 0.930 . S
C112 C111 1.372 . S
C112 C113 1.383 . S
C113 C112 1.383 . S
C113 C114 1.395 . S
C114 H78 0.930 . S
C114 C113 1.395 . S
C114 C115 1.362 . S
C115 H79 0.930 . S
C115 C110 1.390 . S
C115 C114 1.362 . S
C116 C105 1.492 . S
C116 C117 1.377 . S
C116 C121 1.397 . S
C117 H80 0.931 . S
C117 C116 1.377 . S
C117 C118 1.376 . S
C118 H81 0.930 . S
C118 C117 1.376 . S
C118 C119 1.376 . S
C119 C118 1.376 . S
C119 C120 1.378 . S
C119 C146 1.486 . S
C120 H82 0.930 . S
C120 C119 1.378 . S
C120 C121 1.376 . S
C121 H83 0.929 . S
C121 C116 1.397 . S
C121 C120 1.376 . S
C122 C106 1.509 . S
C122 C123 1.391 . S
C122 C127 1.386 . S
C123 H84 0.930 . S
C123 C122 1.391 . S
C123 C124 1.375 . S
C124 H85 0.931 . S
C124 C123 1.375 . S
C124 C125 1.375 . S
C125 C124 1.375 . S
C125 C126 1.361 . S
C126 H86 0.930 . S
C126 C125 1.361 . S
C126 C127 1.399 . S
C127 H87 0.929 . S
C127 C122 1.386 . S
C127 C126 1.399 . S
C128 C107 1.485 . S
C128 C129 1.394 . S
C128 C133 1.360 . S
C129 H88 0.931 . S
C129 C128 1.394 . S
C129 C130 1.372 . S
C130 H89 0.930 . S
C130 C129 1.372 . S
C130 C131 1.397 . S
C131 C130 1.397 . S
C131 C132 1.390 . S
C131 C147 1.476 . S
C132 H90 0.930 . S
C132 C131 1.390 . S
C132 C133 1.366 . S
C133 H91 0.932 . S
C133 C128 1.360 . S
C133 C132 1.366 . S
C134 C108 1.490 . S
C134 C135 1.381 1_554 S
C134 C139 1.386 1_554 S
C135 H92 0.930 1_556 S
C135 C134 1.381 1_556 S
C135 C136 1.381 . S
C136 H93 0.929 . S
C136 C135 1.381 . S
C136 C137 1.371 . S
C137 C136 1.371 . S
C137 C138 1.380 . S
C138 H94 0.931 . S
C138 C137 1.380 . S
C138 C139 1.387 . S
C139 H95 0.930 1_556 S
C139 C134 1.386 1_556 S
C139 C138 1.387 . S
C140 C109 1.519 . S
C140 C141 1.377 . S
C140 C145 1.361 . S
C141 H96 0.929 . S
C141 C140 1.377 . S
C141 C142 1.386 . S
C142 H97 0.931 . S
C142 C141 1.386 . S
C142 C143 1.363 1_554 S
C143 C142 1.363 1_556 S
C143 C144 1.385 . S
C144 H98 0.930 . S
C144 C143 1.385 . S
C144 C145 1.396 1_556 S
C145 H99 0.929 . S
C145 C140 1.361 . S
C145 C144 1.396 1_554 S
C146 O100 1.300 . S
C146 O101 1.209 . S
C146 C119 1.486 . S
C147 O102 1.199 . S
C147 O103 1.297 . S
C147 C131 1.476 . S
H148 O174 0.856 . S
H149 O177 0.854 . S
H150 C185 0.930 . S
H151 C186 0.930 . S
H152 C188 0.930 . S
H153 C189 0.930 . S
H154 C191 0.931 . S
H155 C192 0.930 . S
H156 C194 0.930 . S
H157 C195 0.929 . S
H158 C197 0.930 . S
H159 C198 0.931 . S
H160 C200 0.930 . S
H161 C201 0.929 . S
H162 C203 0.931 . S
H163 C204 0.930 . S
H164 C206 0.930 . S
H165 C207 0.932 1_556 S
H166 C209 0.930 . S
H167 C210 0.929 . S
H168 C212 0.931 . S
H169 C213 0.930 . S
H170 C215 0.929 . S
H171 C216 0.931 . S
H172 C218 0.930 . S
H173 C219 0.929 . S
O174 H148 0.856 . S
O174 C220 1.300 . S
O175 C220 1.209 . S
O176 C221 1.199 . S
O177 H149 0.854 . S
O177 C221 1.297 . S
C178 C179 1.404 . S
C178 C183 1.397 1_556 S
C178 C184 1.492 . S
C179 C178 1.404 . S
C179 C180 1.396 . S
C179 C190 1.492 . S
C180 C179 1.396 . S
C180 C181 1.397 1_556 S
C180 C196 1.509 . S
C181 C180 1.397 1_554 S
C181 C182 1.412 . S
C181 C202 1.485 . S
C182 C181 1.412 . S
C182 C183 1.388 . S
C182 C208 1.490 . S
C183 C178 1.397 1_554 S
C183 C182 1.388 . S
C183 C214 1.519 . S
C184 C178 1.492 . S
C184 C185 1.363 . S
C184 C189 1.390 . S
C185 H150 0.930 . S
C185 C184 1.363 . S
C185 C186 1.372 . S
C186 H151 0.930 . S
C186 C185 1.372 . S
C186 C187 1.383 . S
C187 C186 1.383 . S
C187 C188 1.395 . S
C188 H152 0.930 . S
C188 C187 1.395 . S
C188 C189 1.362 . S
C189 H153 0.930 . S
C189 C184 1.390 . S
C189 C188 1.362 . S
C190 C179 1.492 . S
C190 C191 1.377 . S
C190 C195 1.397 . S
C191 H154 0.931 . S
C191 C190 1.377 . S
C191 C192 1.376 . S
C192 H155 0.930 . S
C192 C191 1.376 . S
C192 C193 1.376 . S
C193 C192 1.376 . S
C193 C194 1.378 . S
C193 C220 1.486 . S
C194 H156 0.930 . S
C194 C193 1.378 . S
C194 C195 1.376 . S
C195 H157 0.929 . S
C195 C190 1.397 . S
C195 C194 1.376 . S
C196 C180 1.509 . S
C196 C197 1.391 . S
C196 C201 1.386 . S
C197 H158 0.930 . S
C197 C196 1.391 . S
C197 C198 1.375 . S
C198 H159 0.931 . S
C198 C197 1.375 . S
C198 C199 1.375 . S
C199 C198 1.375 . S
C199 C200 1.361 . S
C200 H160 0.930 . S
C200 C199 1.361 . S
C200 C201 1.399 . S
C201 H161 0.929 . S
C201 C196 1.386 . S
C201 C200 1.399 . S
C202 C181 1.485 . S
C202 C203 1.394 . S
C202 C207 1.360 . S
C203 H162 0.931 . S
C203 C202 1.394 . S
C203 C204 1.372 . S
C204 H163 0.930 . S
C204 C203 1.372 . S
C204 C205 1.397 . S
C205 C204 1.397 . S
C205 C206 1.390 . S
C205 C221 1.476 . S
C206 H164 0.930 . S
C206 C205 1.390 . S
C206 C207 1.366 . S
C207 H165 0.932 1_554 S
C207 C202 1.360 . S
C207 C206 1.366 . S
C208 C182 1.490 . S
C208 C209 1.380 . S
C208 C213 1.386 . S
C209 H166 0.930 . S
C209 C208 1.380 . S
C209 C210 1.381 . S
C210 H167 0.929 . S
C210 C209 1.381 . S
C210 C211 1.371 . S
C211 C210 1.371 . S
C211 C212 1.380 . S
C212 H168 0.931 . S
C212 C211 1.380 . S
C212 C213 1.387 . S
C213 H169 0.930 . S
C213 C208 1.386 . S
C213 C212 1.387 . S
C214 C183 1.519 . S
C214 C215 1.377 . S
C214 C219 1.361 . S
C215 H170 0.929 . S
C215 C214 1.377 . S
C215 C216 1.386 . S
C216 H171 0.931 . S
C216 C215 1.386 . S
C216 C217 1.363 . S
C217 C216 1.363 . S
C217 C218 1.385 . S
C218 H172 0.930 . S
C218 C217 1.385 . S
C218 C219 1.396 . S
C219 H173 0.929 . S
C219 C214 1.361 . S
C219 C218 1.396 . S
C220 O174 1.300 . S
C220 O175 1.209 . S
C220 C193 1.486 . S
C221 O176 1.199 . S
C221 O177 1.297 . S
C221 C205 1.476 . S
H222 O248 0.856 . S
H223 O251 0.854 . S
H224 C259 0.930 . S
H225 C260 0.930 . S
H226 C262 0.930 . S
H227 C263 0.930 . S
H228 C265 0.931 . S
H229 C266 0.930 . S
H230 C268 0.930 . S
H231 C269 0.929 . S
H232 C271 0.930 . S
H233 C272 0.931 . S
H234 C274 0.930 . S
H235 C275 0.929 . S
H236 C277 0.931 . S
H237 C278 0.936 . S
H238 C280 0.930 . S
H239 C281 0.932 . S
H240 C283 0.930 . S
H241 C284 0.929 . S
H242 C286 0.931 . S
H243 C287 0.930 . S
H244 C289 0.929 . S
H245 C290 0.931 . S
H246 C292 0.930 . S
H247 C293 0.929 . S
O248 H222 0.856 . S
O248 C294 1.300 . S
O249 C294 1.209 . S
O250 C295 1.199 . S
O251 H223 0.854 . S
O251 C295 1.297 1_554 S
C252 C253 1.404 . S
C252 C257 1.397 . S
C252 C258 1.492 . S
C253 C252 1.404 . S
C253 C254 1.396 . S
C253 C264 1.492 . S
C254 C253 1.396 . S
C254 C255 1.397 . S
C254 C270 1.509 . S
C255 C254 1.397 . S
C255 C256 1.412 . S
C255 C276 1.485 . S
C256 C255 1.412 . S
C256 C257 1.388 . S
C256 C282 1.490 1_554 S
C257 C252 1.397 . S
C257 C256 1.388 . S
C257 C288 1.519 1_554 S
C258 C252 1.492 . S
C258 C259 1.363 . S
C258 C263 1.390 . S
C259 H224 0.930 . S
C259 C258 1.363 . S
C259 C260 1.372 . S
C260 H225 0.930 . S
C260 C259 1.372 . S
C260 C261 1.383 . S
C261 C260 1.383 . S
C261 C262 1.395 . S
C262 H226 0.930 . S
C262 C261 1.395 . S
C262 C263 1.362 . S
C263 H227 0.930 . S
C263 C258 1.390 . S
C263 C262 1.362 . S
C264 C253 1.492 . S
C264 C265 1.377 . S
C264 C269 1.397 . S
C265 H228 0.931 . S
C265 C264 1.377 . S
C265 C266 1.376 . S
C266 H229 0.930 . S
C266 C265 1.376 . S
C266 C267 1.376 . S
C267 C266 1.376 . S
C267 C268 1.378 . S
C267 C294 1.486 . S
C268 H230 0.930 . S
C268 C267 1.378 . S
C268 C269 1.376 . S
C269 H231 0.929 . S
C269 C264 1.397 . S
C269 C268 1.376 . S
C270 C254 1.509 . S
C270 C271 1.391 . S
C270 C275 1.386 . S
C271 H232 0.930 . S
C271 C270 1.391 . S
C271 C272 1.375 . S
C272 H233 0.931 . S
C272 C271 1.375 . S
C272 C273 1.375 . S
C273 C272 1.375 . S
C273 C274 1.361 . S
C274 H234 0.930 . S
C274 C273 1.361 . S
C274 C275 1.399 . S
C275 H235 0.929 . S
C275 C270 1.386 . S
C275 C274 1.399 . S
C276 C255 1.485 . S
C276 C277 1.394 . S
C276 C281 1.360 . S
C277 H236 0.931 . S
C277 C276 1.394 . S
C277 C278 1.368 1_554 S
C278 H237 0.936 . S
C278 C277 1.368 1_556 S
C278 C279 1.394 1_556 S
C279 C278 1.394 1_554 S
C279 C280 1.390 . S
C279 C295 1.476 1_554 S
C280 H238 0.930 . S
C280 C279 1.390 . S
C280 C281 1.366 . S
C281 H239 0.932 . S
C281 C276 1.360 . S
C281 C280 1.366 . S
C282 C256 1.490 1_556 S
C282 C283 1.380 . S
C282 C287 1.386 . S
C283 H240 0.930 . S
C283 C282 1.380 . S
C283 C284 1.381 . S
C284 H241 0.929 . S
C284 C283 1.381 . S
C284 C285 1.371 . S
C285 C284 1.371 . S
C285 C286 1.380 . S
C286 H242 0.931 . S
C286 C285 1.380 . S
C286 C287 1.387 . S
C287 H243 0.930 . S
C287 C282 1.386 . S
C287 C286 1.387 . S
C288 C257 1.519 1_556 S
C288 C289 1.377 . S
C288 C293 1.361 . S
C289 H244 0.929 . S
C289 C288 1.377 . S
C289 C290 1.386 . S
C290 H245 0.931 . S
C290 C289 1.386 . S
C290 C291 1.363 . S
C291 C290 1.363 . S
C291 C292 1.385 . S
C292 H246 0.930 . S
C292 C291 1.385 . S
C292 C293 1.396 . S
C293 H247 0.929 . S
C293 C288 1.361 . S
C293 C292 1.396 . S
C294 O248 1.300 . S
C294 O249 1.209 . S
C294 C267 1.486 . S
C295 O250 1.199 . S
C295 O251 1.297 1_556 S
C295 C279 1.476 1_556 S
H296 O322 0.856 . S
H297 O325 0.854 . S
H298 C333 0.930 . S
H299 C334 0.930 . S
H300 C336 0.930 . S
H301 C337 0.930 . S
H302 C339 0.931 . S
H303 C340 0.930 . S
H304 C342 0.930 . S
H305 C343 0.929 . S
H306 C345 0.930 . S
H307 C346 0.931 . S
H308 C348 0.930 . S
H309 C349 0.929 . S
H310 C351 0.931 . S
H311 C352 0.930 . S
H312 C354 0.930 . S
H313 C355 0.932 . S
H314 C357 0.930 . S
H315 C358 0.929 . S
H316 C360 0.931 . S
H317 C361 0.930 . S
H318 C363 0.929 . S
H319 C364 0.931 . S
H320 C366 0.930 1_556 S
H321 C367 0.929 . S
O322 H296 0.856 . S
O322 C368 1.300 . S
O323 C368 1.209 . S
O324 C369 1.199 . S
O325 H297 0.854 . S
O325 C369 1.297 . S
C326 C327 1.404 . S
C326 C331 1.397 . S
C326 C332 1.492 . S
C327 C326 1.404 . S
C327 C328 1.396 . S
C327 C338 1.492 . S
C328 C327 1.396 . S
C328 C329 1.397 . S
C328 C344 1.509 . S
C329 C328 1.397 . S
C329 C330 1.412 . S
C329 C350 1.485 . S
C330 C329 1.412 . S
C330 C331 1.388 . S
C330 C356 1.490 . S
C331 C326 1.397 . S
C331 C330 1.388 . S
C331 C362 1.519 . S
C332 C326 1.492 . S
C332 C333 1.363 . S
C332 C337 1.390 . S
C333 H298 0.930 . S
C333 C332 1.363 . S
C333 C334 1.372 . S
C334 H299 0.930 . S
C334 C333 1.372 . S
C334 C335 1.383 . S
C335 C334 1.383 . S
C335 C336 1.395 . S
C336 H300 0.930 . S
C336 C335 1.395 . S
C336 C337 1.362 . S
C337 H301 0.930 . S
C337 C332 1.390 . S
C337 C336 1.362 . S
C338 C327 1.492 . S
C338 C339 1.377 . S
C338 C343 1.397 . S
C339 H302 0.931 . S
C339 C338 1.377 . S
C339 C340 1.376 . S
C340 H303 0.930 . S
C340 C339 1.376 . S
C340 C341 1.376 . S
C341 C340 1.376 . S
C341 C342 1.378 . S
C341 C368 1.486 . S
C342 H304 0.930 . S
C342 C341 1.378 . S
C342 C343 1.376 . S
C343 H305 0.929 . S
C343 C338 1.397 . S
C343 C342 1.376 . S
C344 C328 1.509 . S
C344 C345 1.391 . S
C344 C349 1.386 . S
C345 H306 0.930 . S
C345 C344 1.391 . S
C345 C346 1.375 . S
C346 H307 0.931 . S
C346 C345 1.375 . S
C346 C347 1.375 . S
C347 C346 1.375 . S
C347 C348 1.361 . S
C348 H308 0.930 . S
C348 C347 1.361 . S
C348 C349 1.399 . S
C349 H309 0.929 . S
C349 C344 1.386 . S
C349 C348 1.399 . S
C350 C329 1.485 . S
C350 C351 1.394 . S
C350 C355 1.360 . S
C351 H310 0.931 . S
C351 C350 1.394 . S
C351 C352 1.372 . S
C352 H311 0.930 . S
C352 C351 1.372 . S
C352 C353 1.397 . S
C353 C352 1.397 . S
C353 C354 1.390 . S
C353 C369 1.476 . S
C354 H312 0.930 . S
C354 C353 1.390 . S
C354 C355 1.366 . S
C355 H313 0.932 . S
C355 C350 1.360 . S
C355 C354 1.366 . S
C356 C330 1.490 . S
C356 C357 1.380 . S
C356 C361 1.386 . S
C357 H314 0.930 . S
C357 C356 1.380 . S
C357 C358 1.381 1_554 S
C358 H315 0.929 . S
C358 C357 1.381 1_556 S
C358 C359 1.371 . S
C359 C358 1.371 . S
C359 C360 1.380 . S
C360 H316 0.931 . S
C360 C359 1.380 . S
C360 C361 1.387 1_556 S
C361 H317 0.930 . S
C361 C356 1.386 . S
C361 C360 1.387 1_554 S
C362 C331 1.519 . S
C362 C363 1.377 . S
C362 C367 1.361 . S
C363 H318 0.929 . S
C363 C362 1.377 . S
C363 C364 1.386 . S
C364 H319 0.931 . S
C364 C363 1.386 . S
C364 C365 1.363 . S
C365 C364 1.363 . S
C365 C366 1.385 . S
C366 H320 0.930 1_554 S
C366 C365 1.385 . S
C366 C367 1.396 . S
C367 H321 0.929 . S
C367 C362 1.361 . S
C367 C366 1.396 . S
C368 O322 1.300 . S
C368 O323 1.209 . S
C368 C341 1.486 . S
C369 O324 1.199 . S
C369 O325 1.297 . S
C369 C353 1.476 . S
H370 O396 0.856 . S
H371 O399 0.854 . S
H372 C407 0.930 . S
H373 C408 0.930 . S
H374 C410 0.930 . S
H375 C411 0.930 . S
H376 C413 0.931 1_554 S
H377 C414 0.930 . S
H378 C416 0.930 . S
H379 C417 0.929 . S
H380 C419 0.930 . S
H381 C420 0.931 . S
H382 C422 0.930 . S
H383 C423 0.929 . S
H384 C425 0.931 . S
H385 C426 0.930 . S
H386 C428 0.930 . S
H387 C429 0.932 . S
H388 C431 0.930 . S
H389 C432 0.929 . S
H390 C434 0.931 . S
H391 C435 0.930 . S
H392 C437 0.929 . S
H393 C438 0.931 . S
H394 C440 0.930 . S
H395 C441 0.929 . S
O396 H370 0.856 . S
O396 C442 1.300 . S
O397 C442 1.209 . S
O398 C443 1.199 . S
O399 H371 0.854 . S
O399 C443 1.297 . S
C400 C401 1.404 . S
C400 C405 1.397 . S
C400 C406 1.492 . S
C401 C400 1.404 . S
C401 C402 1.396 . S
C401 C412 1.492 . S
C402 C401 1.396 . S
C402 C403 1.397 . S
C402 C418 1.509 . S
C403 C402 1.397 . S
C403 C404 1.412 . S
C403 C424 1.485 . S
C404 C403 1.412 . S
C404 C405 1.388 . S
C404 C430 1.490 . S
C405 C400 1.397 . S
C405 C404 1.388 . S
C405 C436 1.519 . S
C406 C400 1.492 . S
C406 C407 1.363 . S
C406 C411 1.390 . S
C407 H372 0.930 . S
C407 C406 1.363 . S
C407 C408 1.372 . S
C408 H373 0.930 . S
C408 C407 1.372 . S
C408 C409 1.383 . S
C409 C408 1.383 . S
C409 C410 1.395 . S
C410 H374 0.930 . S
C410 C409 1.395 . S
C410 C411 1.362 . S
C411 H375 0.930 . S
C411 C406 1.390 . S
C411 C410 1.362 . S
C412 C401 1.492 . S
C412 C413 1.377 1_554 S
C412 C417 1.397 . S
C413 H376 0.931 1_556 S
C413 C412 1.377 1_556 S
C413 C414 1.376 . S
C414 H377 0.930 . S
C414 C413 1.376 . S
C414 C415 1.376 . S
C415 C414 1.376 . S
C415 C416 1.378 . S
C415 C442 1.486 . S
C416 H378 0.930 . S
C416 C415 1.378 . S
C416 C417 1.376 1_556 S
C417 H379 0.929 . S
C417 C412 1.397 . S
C417 C416 1.376 1_554 S
C418 C402 1.509 . S
C418 C419 1.391 . S
C418 C423 1.386 . S
C419 H380 0.930 . S
C419 C418 1.391 . S
C419 C420 1.375 1_554 S
C420 H381 0.931 . S
C420 C419 1.375 1_556 S
C420 C421 1.375 . S
C421 C420 1.375 . S
C421 C422 1.361 . S
C422 H382 0.930 . S
C422 C421 1.361 . S
C422 C423 1.399 1_556 S
C423 H383 0.929 . S
C423 C418 1.386 . S
C423 C422 1.399 1_554 S
C424 C403 1.485 . S
C424 C425 1.394 . S
C424 C429 1.360 . S
C425 H384 0.931 . S
C425 C424 1.394 . S
C425 C426 1.372 . S
C426 H385 0.930 . S
C426 C425 1.372 . S
C426 C427 1.397 . S
C427 C426 1.397 . S
C427 C428 1.390 . S
C427 C443 1.476 . S
C428 H386 0.930 . S
C428 C427 1.390 . S
C428 C429 1.366 . S
C429 H387 0.932 . S
C429 C424 1.360 . S
C429 C428 1.366 . S
C430 C404 1.490 . S
C430 C431 1.380 . S
C430 C435 1.386 . S
C431 H388 0.930 . S
C431 C430 1.380 . S
C431 C432 1.381 . S
C432 H389 0.929 . S
C432 C431 1.381 . S
C432 C433 1.371 . S
C433 C432 1.371 . S
C433 C434 1.380 . S
C434 H390 0.931 . S
C434 C433 1.380 . S
C434 C435 1.387 . S
C435 H391 0.930 . S
C435 C430 1.386 . S
C435 C434 1.387 . S
C436 C405 1.519 . S
C436 C437 1.377 . S
C436 C441 1.361 . S
C437 H392 0.929 . S
C437 C436 1.377 . S
C437 C438 1.386 . S
C438 H393 0.931 . S
C438 C437 1.386 . S
C438 C439 1.363 . S
C439 C438 1.363 . S
C439 C440 1.385 . S
C440 H394 0.930 . S
C440 C439 1.385 . S
C440 C441 1.396 . S
C441 H395 0.929 . S
C441 C436 1.361 . S
C441 C440 1.396 . S
C442 O396 1.300 . S
C442 O397 1.209 . S
C442 C415 1.486 . S
C443 O398 1.199 . S
C443 O399 1.297 . S
C443 C427 1.476 . S
C444 O471 1.312 . S
C444 O472 1.208 . S
C445 O466 1.331 . S
C445 O469 1.244 . S
C446 O468 1.264 . S
C446 O470 1.273 . S
Mg447 O449 1.936 . S
Mg447 O456 2.081 1_455 S
Mg447 O458 2.023 . S
Mg447 O462 2.031 1_455 S
Mg447 O471 2.291 . S
Mg448 O449 1.963 . S
Mg448 O459 1.942 1_455 S
Mg448 O460 1.955 . S
Mg448 O467 1.986 1_455 S
O449 Mg447 1.936 . S
O449 Mg448 1.963 . S
O449 Mg450 1.915 . S
Mg450 O449 1.915 . S
Mg450 O451 1.915 . S
Mg450 O455 2.013 . S
Mg450 O461 2.114 1_455 S
Mg450 O465 2.013 1_455 S
Mg450 O471 2.114 . S
O451 Mg450 1.915 . S
O451 Mg452 1.936 . S
O451 Mg453 1.963 . S
Mg452 O451 1.936 . S
Mg452 O461 2.291 1_455 S
Mg452 O466 2.081 . S
Mg452 O468 2.023 1_455 S
Mg452 O472 2.031 . S
Mg453 O451 1.963 . S
Mg453 O457 1.986 . S
Mg453 O469 1.942 . S
Mg453 O470 1.955 1_455 S
C454 O465 1.191 . S
C454 O467 1.307 . S
O455 Mg450 2.013 . S
O455 C474 1.191 . S
O456 Mg447 2.081 1_655 S
O456 C464 1.331 . S
O457 Mg453 1.986 . S
O457 C474 1.307 . S
O458 Mg447 2.023 . S
O458 C473 1.264 . S
O459 Mg448 1.942 1_655 S
O459 C464 1.244 . S
O460 Mg448 1.955 . S
O460 C473 1.273 . S
O461 Mg450 2.114 1_655 S
O461 Mg452 2.291 1_655 S
O461 C463 1.312 . S
O462 Mg447 2.031 1_655 S
O462 C463 1.208 . S
C463 O461 1.312 . S
C463 O462 1.208 . S
C464 O456 1.331 . S
C464 O459 1.244 . S
O465 Mg450 2.013 1_655 S
O465 C454 1.191 . S
O466 C445 1.331 . S
O466 Mg452 2.081 . S
O467 Mg448 1.986 1_655 S
O467 C454 1.307 . S
O468 C446 1.264 . S
O468 Mg452 2.023 1_655 S
O469 C445 1.244 . S
O469 Mg453 1.942 . S
O470 C446 1.273 . S
O470 Mg453 1.955 1_655 S
O471 C444 1.312 . S
O471 Mg447 2.291 . S
O471 Mg450 2.114 . S
O472 C444 1.208 . S
O472 Mg452 2.031 . S
C473 O458 1.264 . S
C473 O460 1.273 . S
C474 O455 1.191 . S
C474 O457 1.307 . S
C475 O502 1.312 . S
C475 O503 1.208 . S
C476 O497 1.331 . S
C476 O500 1.244 . S
C477 O499 1.264 . S
C477 O501 1.273 . S
Mg478 O480 1.936 . S
Mg478 O487 2.081 1_545 S
Mg478 O489 2.023 . S
Mg478 O493 2.031 1_545 S
Mg478 O502 2.291 . S
Mg479 O480 1.963 . S
Mg479 O490 1.942 1_545 S
Mg479 O491 1.955 . S
Mg479 O498 1.986 1_545 S
O480 Mg478 1.936 . S
O480 Mg479 1.963 . S
O480 Mg481 1.915 . S
Mg481 O480 1.915 . S
Mg481 O482 1.915 . S
Mg481 O486 2.013 . S
Mg481 O492 2.114 1_545 S
Mg481 O496 2.013 1_545 S
Mg481 O502 2.114 . S
O482 Mg481 1.915 . S
O482 Mg483 1.936 . S
O482 Mg484 1.963 . S
Mg483 O482 1.936 . S
Mg483 O492 2.291 1_545 S
Mg483 O497 2.081 . S
Mg483 O499 2.023 1_545 S
Mg483 O503 2.031 . S
Mg484 O482 1.963 . S
Mg484 O488 1.986 . S
Mg484 O500 1.942 . S
Mg484 O501 1.955 1_545 S
C485 O496 1.191 . S
C485 O498 1.307 . S
O486 Mg481 2.013 . S
O486 C505 1.191 . S
O487 Mg478 2.081 1_565 S
O487 C495 1.331 . S
O488 Mg484 1.986 . S
O488 C505 1.307 . S
O489 Mg478 2.023 . S
O489 C504 1.264 . S
O490 Mg479 1.942 1_565 S
O490 C495 1.244 . S
O491 Mg479 1.955 . S
O491 C504 1.273 . S
O492 Mg481 2.114 1_565 S
O492 Mg483 2.291 1_565 S
O492 C494 1.312 . S
O493 Mg478 2.031 1_565 S
O493 C494 1.208 . S
C494 O492 1.312 . S
C494 O493 1.208 . S
C495 O487 1.331 . S
C495 O490 1.244 . S
O496 Mg481 2.013 1_565 S
O496 C485 1.191 . S
O497 C476 1.331 . S
O497 Mg483 2.081 . S
O498 Mg479 1.986 1_565 S
O498 C485 1.307 . S
O499 C477 1.264 . S
O499 Mg483 2.023 1_565 S
O500 C476 1.244 . S
O500 Mg484 1.942 . S
O501 C477 1.273 . S
O501 Mg484 1.955 1_565 S
O502 C475 1.312 . S
O502 Mg478 2.291 . S
O502 Mg481 2.114 . S
O503 C475 1.208 . S
O503 Mg483 2.031 . S
C504 O489 1.264 . S
C504 O491 1.273 . S
C505 O486 1.191 . S
C505 O488 1.307 . S
C506 O533 1.312 . S
C506 O534 1.208 . S
C507 O528 1.331 . S
C507 O531 1.244 . S
C508 O530 1.264 . S
C508 O532 1.273 . S
Mg509 O511 1.936 . S
Mg509 O518 2.081 . S
Mg509 O520 2.023 . S
Mg509 O524 2.031 . S
Mg509 O533 2.291 . S
Mg510 O511 1.963 . S
Mg510 O521 1.942 . S
Mg510 O522 1.955 . S
Mg510 O529 1.986 . S
O511 Mg509 1.936 . S
O511 Mg510 1.963 . S
O511 Mg512 1.915 . S
Mg512 O511 1.915 . S
Mg512 O513 1.915 . S
Mg512 O517 2.013 . S
Mg512 O523 2.114 . S
Mg512 O527 2.013 . S
Mg512 O533 2.114 . S
O513 Mg512 1.915 . S
O513 Mg514 1.936 . S
O513 Mg515 1.963 . S
Mg514 O513 1.936 . S
Mg514 O523 2.291 . S
Mg514 O528 2.081 . S
Mg514 O530 2.023 . S
Mg514 O534 2.031 . S
Mg515 O513 1.963 . S
Mg515 O519 1.986 . S
Mg515 O531 1.942 . S
Mg515 O532 1.955 . S
C516 O527 1.191 . S
C516 O529 1.307 . S
O517 Mg512 2.013 . S
O517 C536 1.191 . S
O518 Mg509 2.081 . S
O518 C526 1.331 . S
O519 Mg515 1.986 . S
O519 C536 1.307 . S
O520 Mg509 2.023 . S
O520 C535 1.264 . S
O521 Mg510 1.942 . S
O521 C526 1.244 . S
O522 Mg510 1.955 . S
O522 C535 1.273 . S
O523 Mg512 2.114 . S
O523 Mg514 2.291 . S
O523 C525 1.312 . S
O524 Mg509 2.031 . S
O524 C525 1.208 . S
C525 O523 1.312 . S
C525 O524 1.208 . S
C526 O518 1.331 . S
C526 O521 1.244 . S
O527 Mg512 2.013 . S
O527 C516 1.191 . S
O528 C507 1.331 . S
O528 Mg514 2.081 . S
O529 Mg510 1.986 . S
O529 C516 1.307 . S
O530 C508 1.264 . S
O530 Mg514 2.023 . S
O531 C507 1.244 . S
O531 Mg515 1.942 . S
O532 C508 1.273 . S
O532 Mg515 1.955 . S
O533 C506 1.312 . S
O533 Mg509 2.291 . S
O533 Mg512 2.114 . S
O534 C506 1.208 . S
O534 Mg514 2.031 . S
C535 O520 1.264 . S
C535 O522 1.273 . S
C536 O517 1.191 . S
C536 O519 1.307 . S
H537 C545 0.929 . S
H538 C547 0.930 . S
H539 C549 0.930 . S
H540 C552 0.929 . S
H541 C555 0.930 . S
H542 C557 0.960 . S
H543 C557 0.960 . S
H544 C557 0.960 . S
C545 H537 0.929 . S
C545 C546 1.377 . S
C545 C547 1.384 . S
C546 C545 1.377 . S
C546 C552 1.390 . S
C547 H538 0.930 . S
C547 C545 1.384 . S
C547 C548 1.372 . S
C548 C547 1.372 . S
C548 C549 1.400 . S
C548 C553 1.490 . S
C549 H539 0.930 . S
C549 C548 1.400 . S
C549 C552 1.386 . S
H550 C566 0.930 . S
H551 C567 0.931 . S
C552 H540 0.929 . S
C552 C546 1.390 . S
C552 C549 1.386 . S
C553 C548 1.490 . S
C553 C555 1.395 . S
C553 C556 1.403 . S
H554 C560 0.930 . S
C555 H541 0.930 . S
C555 C553 1.395 . S
C555 C558 1.403 . S
C556 C553 1.403 . S
C556 C557 1.524 . S
C556 C560 1.400 . S
C557 H542 0.960 . S
C557 H543 0.960 . S
C557 H544 0.960 . S
C557 C556 1.524 . S
C558 C555 1.403 . S
C558 C559 1.392 . S
C558 C562 1.495 . S
C559 C558 1.392 . S
C559 C560 1.385 . S
C559 C561 1.478 . S
C560 H554 0.930 . S
C560 C556 1.400 . S
C560 C559 1.385 . S
C561 C559 1.478 . S
C561 C563 1.381 . S
C561 C567 1.383 . S
C562 C558 1.495 . S
C562 H568 0.959 . S
C562 H569 0.961 . S
C562 H570 0.960 . S
C563 C561 1.381 . S
C563 C564 1.394 . S
C563 H571 0.930 . S
C564 C563 1.394 . S
C564 C565 1.383 . S
C564 H572 0.929 . S
C565 C564 1.383 . S
C565 C566 1.377 . S
C566 H550 0.930 . S
C566 C565 1.377 . S
C566 C567 1.379 . S
C567 H551 0.931 . S
C567 C561 1.383 . S
C567 C566 1.379 . S
H568 C562 0.959 . S
H569 C562 0.961 . S
H570 C562 0.960 . S
H571 C563 0.930 . S
H572 C564 0.929 . S
H573 C581 0.929 . S
H574 C583 0.930 . S
H575 C585 0.930 . S
H576 C588 0.929 . S
H577 C591 0.930 . S
H578 C593 0.960 . S
H579 C593 0.960 . S
H580 C593 0.960 . S
C581 H573 0.929 . S
C581 C582 1.377 . S
C581 C583 1.384 . S
C582 C581 1.377 . S
C582 C588 1.390 . S
C583 H574 0.930 . S
C583 C581 1.384 . S
C583 C584 1.372 . S
C584 C583 1.372 . S
C584 C585 1.400 . S
C584 C589 1.490 . S
C585 H575 0.930 . S
C585 C584 1.400 . S
C585 C588 1.386 . S
H586 C602 0.930 . S
H587 C603 0.931 . S
C588 H576 0.929 . S
C588 C582 1.390 . S
C588 C585 1.386 . S
C589 C584 1.490 . S
C589 C591 1.395 . S
C589 C592 1.403 . S
H590 C596 0.930 . S
C591 H577 0.930 . S
C591 C589 1.395 . S
C591 C594 1.403 . S
C592 C589 1.403 . S
C592 C593 1.524 . S
C592 C596 1.400 . S
C593 H578 0.960 . S
C593 H579 0.960 . S
C593 H580 0.960 . S
C593 C592 1.524 . S
C594 C591 1.403 . S
C594 C595 1.392 . S
C594 C598 1.495 . S
C595 C594 1.392 . S
C595 C596 1.385 . S
C595 C597 1.478 . S
C596 H590 0.930 . S
C596 C592 1.400 . S
C596 C595 1.385 . S
C597 C595 1.478 . S
C597 C599 1.381 . S
C597 C603 1.383 . S
C598 C594 1.495 . S
C598 H604 0.959 . S
C598 H605 0.961 . S
C598 H606 0.960 . S
C599 C597 1.381 . S
C599 C600 1.394 . S
C599 H607 0.930 . S
C600 C599 1.394 . S
C600 C601 1.383 . S
C600 H608 0.929 . S
C601 C600 1.383 . S
C601 C602 1.377 . S
C602 H586 0.930 . S
C602 C601 1.377 . S
C602 C603 1.379 . S
C603 H587 0.931 . S
C603 C597 1.383 . S
C603 C602 1.379 . S
H604 C598 0.959 . S
H605 C598 0.961 . S
H606 C598 0.960 . S
H607 C599 0.930 . S
H608 C600 0.929 . S
H609 C617 0.929 . S
H610 C619 0.930 . S
H611 C621 0.930 . S
H612 C624 0.929 . S
H613 C627 0.930 . S
H614 C629 0.960 . S
H615 C629 0.960 . S
H616 C629 0.960 . S
C617 H609 0.929 . S
C617 C618 1.377 . S
C617 C619 1.384 . S
C618 C617 1.377 . S
C618 C624 1.390 . S
C619 H610 0.930 . S
C619 C617 1.384 . S
C619 C620 1.372 . S
C620 C619 1.372 . S
C620 C621 1.400 . S
C620 C625 1.490 . S
C621 H611 0.930 . S
C621 C620 1.400 . S
C621 C624 1.386 . S
H622 C638 0.930 . S
H623 C639 0.931 . S
C624 H612 0.929 . S
C624 C618 1.390 . S
C624 C621 1.386 . S
C625 C620 1.490 . S
C625 C627 1.395 . S
C625 C628 1.403 . S
H626 C632 0.930 . S
C627 H613 0.930 . S
C627 C625 1.395 . S
C627 C630 1.403 . S
C628 C625 1.403 . S
C628 C629 1.524 . S
C628 C632 1.400 . S
C629 H614 0.960 . S
C629 H615 0.960 . S
C629 H616 0.960 . S
C629 C628 1.524 . S
C630 C627 1.403 . S
C630 C631 1.392 . S
C630 C634 1.495 . S
C631 C630 1.392 . S
C631 C632 1.385 . S
C631 C633 1.478 . S
C632 H626 0.930 . S
C632 C628 1.400 . S
C632 C631 1.385 . S
C633 C631 1.478 . S
C633 C635 1.381 . S
C633 C639 1.383 . S
C634 C630 1.495 . S
C634 H640 0.959 . S
C634 H641 0.961 . S
C634 H642 0.960 . S
C635 C633 1.381 . S
C635 C636 1.394 . S
C635 H643 0.930 . S
C636 C635 1.394 . S
C636 C637 1.383 . S
C636 H644 0.929 . S
C637 C636 1.383 . S
C637 C638 1.377 . S
C638 H622 0.930 . S
C638 C637 1.377 . S
C638 C639 1.379 . S
C639 H623 0.931 . S
C639 C633 1.383 . S
C639 C638 1.379 . S
H640 C634 0.959 . S
H641 C634 0.961 . S
H642 C634 0.960 . S
H643 C635 0.930 . S
H644 C636 0.929 . S
H645 C653 0.929 . S
H646 C655 0.930 . S
H647 C657 0.930 . S
H648 C660 0.929 . S
H649 C663 0.930 . S
H650 C665 0.960 . S
H651 C665 0.960 . S
H652 C665 0.960 . S
C653 H645 0.929 . S
C653 C654 1.377 . S
C653 C655 1.384 . S
C654 C653 1.377 . S
C654 C660 1.390 . S
C655 H646 0.930 . S
C655 C653 1.384 . S
C655 C656 1.372 . S
C656 C655 1.372 . S
C656 C657 1.400 . S
C656 C661 1.490 . S
C657 H647 0.930 . S
C657 C656 1.400 . S
C657 C660 1.386 . S
H658 C674 0.930 . S
H659 C675 0.931 . S
C660 H648 0.929 . S
C660 C654 1.390 . S
C660 C657 1.386 . S
C661 C656 1.490 . S
C661 C663 1.395 . S
C661 C664 1.403 . S
H662 C668 0.930 . S
C663 H649 0.930 . S
C663 C661 1.395 . S
C663 C666 1.403 . S
C664 C661 1.403 . S
C664 C665 1.524 . S
C664 C668 1.400 . S
C665 H650 0.960 . S
C665 H651 0.960 . S
C665 H652 0.960 . S
C665 C664 1.524 . S
C666 C663 1.403 . S
C666 C667 1.392 . S
C666 C670 1.495 . S
C667 C666 1.392 . S
C667 C668 1.385 . S
C667 C669 1.478 . S
C668 H662 0.930 . S
C668 C664 1.400 . S
C668 C667 1.385 . S
C669 C667 1.478 . S
C669 C671 1.381 . S
C669 C675 1.383 . S
C670 C666 1.495 . S
C670 H676 0.959 . S
C670 H677 0.961 . S
C670 H678 0.960 . S
C671 C669 1.381 . S
C671 C672 1.394 . S
C671 H679 0.930 . S
C672 C671 1.394 . S
C672 C673 1.383 . S
C672 H680 0.929 . S
C673 C672 1.383 . S
C673 C674 1.377 . S
C674 H658 0.930 . S
C674 C673 1.377 . S
C674 C675 1.379 . S
C675 H659 0.931 . S
C675 C669 1.383 . S
C675 C674 1.379 . S
H676 C670 0.959 . S
H677 C670 0.961 . S
H678 C670 0.960 . S
H679 C671 0.930 . S
H680 C672 0.929 . S
H681 C689 0.929 . S
H682 C691 0.930 . S
H683 C693 0.930 . S
H684 C696 0.929 . S
H685 C699 0.930 . S
H686 C701 0.960 . S
H687 C701 0.960 . S
H688 C701 0.960 . S
C689 H681 0.929 . S
C689 C690 1.377 . S
C689 C691 1.384 . S
C690 C689 1.377 . S
C690 C696 1.390 . S
C691 H682 0.930 . S
C691 C689 1.384 . S
C691 C692 1.372 . S
C692 C691 1.372 . S
C692 C693 1.400 . S
C692 C697 1.490 . S
C693 H683 0.930 . S
C693 C692 1.400 . S
C693 C696 1.386 . S
H694 C710 0.930 . S
H695 C711 0.931 . S
C696 H684 0.929 . S
C696 C690 1.390 . S
C696 C693 1.386 . S
C697 C692 1.490 . S
C697 C699 1.395 . S
C697 C700 1.403 . S
H698 C704 0.930 . S
C699 H685 0.930 . S
C699 C697 1.395 . S
C699 C702 1.403 . S
C700 C697 1.403 . S
C700 C701 1.524 . S
C700 C704 1.400 . S
C701 H686 0.960 . S
C701 H687 0.960 . S
C701 H688 0.960 . S
C701 C700 1.524 . S
C702 C699 1.403 . S
C702 C703 1.392 . S
C702 C706 1.495 . S
C703 C702 1.392 . S
C703 C704 1.385 . S
C703 C705 1.478 . S
C704 H698 0.930 . S
C704 C700 1.400 . S
C704 C703 1.385 . S
C705 C703 1.478 . S
C705 C707 1.381 . S
C705 C711 1.383 . S
C706 C702 1.495 . S
C706 H712 0.959 . S
C706 H713 0.961 . S
C706 H714 0.960 . S
C707 C705 1.381 . S
C707 C708 1.394 . S
C707 H715 0.930 . S
C708 C707 1.394 . S
C708 C709 1.383 . S
C708 H716 0.929 . S
C709 C708 1.383 . S
C709 C710 1.377 . S
C710 H694 0.930 . S
C710 C709 1.377 . S
C710 C711 1.379 . S
C711 H695 0.931 . S
C711 C705 1.383 . S
C711 C710 1.379 . S
H712 C706 0.959 . S
H713 C706 0.961 . S
H714 C706 0.960 . S
H715 C707 0.930 . S
H716 C708 0.929 . S
H717 C725 0.929 . S
H718 C727 0.930 . S
H719 C729 0.930 . S
H720 C732 0.929 . S
H721 C735 0.930 . S
H722 C737 0.960 . S
H723 C737 0.960 . S
H724 C737 0.960 . S
C725 H717 0.929 . S
C725 C726 1.377 . S
C725 C727 1.384 . S
C726 C725 1.377 . S
C726 C732 1.390 . S
C727 H718 0.930 . S
C727 C725 1.384 . S
C727 C728 1.372 . S
C728 C727 1.372 . S
C728 C729 1.400 . S
C728 C733 1.490 . S
C729 H719 0.930 . S
C729 C728 1.400 . S
C729 C732 1.386 . S
H730 C746 0.930 . S
H731 C747 0.931 . S
C732 H720 0.929 . S
C732 C726 1.390 . S
C732 C729 1.386 . S
C733 C728 1.490 . S
C733 C735 1.395 . S
C733 C736 1.403 . S
H734 C740 0.930 . S
C735 H721 0.930 . S
C735 C733 1.395 . S
C735 C738 1.403 . S
C736 C733 1.403 . S
C736 C737 1.524 . S
C736 C740 1.400 . S
C737 H722 0.960 . S
C737 H723 0.960 . S
C737 H724 0.960 . S
C737 C736 1.524 . S
C738 C735 1.403 . S
C738 C739 1.392 . S
C738 C742 1.495 . S
C739 C738 1.392 . S
C739 C740 1.385 . S
C739 C741 1.478 . S
C740 H734 0.930 . S
C740 C736 1.400 . S
C740 C739 1.385 . S
C741 C739 1.478 . S
C741 C743 1.381 . S
C741 C747 1.383 . S
C742 C738 1.495 . S
C742 H748 0.959 . S
C742 H749 0.961 . S
C742 H750 0.960 . S
C743 C741 1.381 . S
C743 C744 1.394 . S
C743 H751 0.930 . S
C744 C743 1.394 . S
C744 C745 1.383 . S
C744 H752 0.929 . S
C745 C744 1.383 . S
C745 C746 1.377 . S
C746 H730 0.930 . S
C746 C745 1.377 . S
C746 C747 1.379 . S
C747 H731 0.931 . S
C747 C741 1.383 . S
C747 C746 1.379 . S
H748 C742 0.959 . S
H749 C742 0.961 . S
H750 C742 0.960 . S
H751 C743 0.930 . S
H752 C744 0.929 . S
H753 C761 0.929 . S
H754 C763 0.930 . S
H755 C765 0.930 . S
H756 C768 0.929 . S
H757 C771 0.930 . S
H758 C773 0.960 . S
H759 C773 0.960 . S
H760 C773 0.960 . S
C761 H753 0.929 . S
C761 C762 1.377 . S
C761 C763 1.384 . S
C762 C761 1.377 . S
C762 C768 1.390 . S
C763 H754 0.930 . S
C763 C761 1.384 . S
C763 C764 1.372 . S
C764 C763 1.372 . S
C764 C765 1.400 . S
C764 C769 1.490 . S
C765 H755 0.930 . S
C765 C764 1.400 . S
C765 C768 1.386 . S
H766 C782 0.930 . S
H767 C783 0.931 . S
C768 H756 0.929 . S
C768 C762 1.390 . S
C768 C765 1.386 . S
C769 C764 1.490 . S
C769 C771 1.395 . S
C769 C772 1.403 . S
H770 C776 0.930 . S
C771 H757 0.930 . S
C771 C769 1.395 . S
C771 C774 1.403 . S
C772 C769 1.403 . S
C772 C773 1.524 . S
C772 C776 1.400 . S
C773 H758 0.960 . S
C773 H759 0.960 . S
C773 H760 0.960 . S
C773 C772 1.524 . S
C774 C771 1.403 . S
C774 C775 1.392 . S
C774 C778 1.495 . S
C775 C774 1.392 . S
C775 C776 1.385 . S
C775 C777 1.478 . S
C776 H770 0.930 . S
C776 C772 1.400 . S
C776 C775 1.385 . S
C777 C775 1.478 . S
C777 C779 1.381 . S
C777 C783 1.383 . S
C778 C774 1.495 . S
C778 H784 0.959 . S
C778 H785 0.961 . S
C778 H786 0.960 . S
C779 C777 1.381 . S
C779 C780 1.394 . S
C779 H787 0.930 . S
C780 C779 1.394 . S
C780 C781 1.383 . S
C780 H788 0.929 . S
C781 C780 1.383 . S
C781 C782 1.377 . S
C782 H766 0.930 . S
C782 C781 1.377 . S
C782 C783 1.379 . S
C783 H767 0.931 . S
C783 C777 1.383 . S
C783 C782 1.379 . S
H784 C778 0.959 . S
H785 C778 0.961 . S
H786 C778 0.960 . S
H787 C779 0.930 . S
H788 C780 0.929 . S
H789 C797 0.929 . S
H790 C799 0.930 . S
H791 C801 0.930 . S
H792 C804 0.929 . S
H793 C807 0.930 . S
H794 C809 0.960 . S
H795 C809 0.960 . S
H796 C809 0.960 . S
C797 H789 0.929 . S
C797 C798 1.377 . S
C797 C799 1.384 . S
C798 C797 1.377 . S
C798 C804 1.390 . S
C799 H790 0.930 . S
C799 C797 1.384 . S
C799 C800 1.372 . S
C800 C799 1.372 . S
C800 C801 1.400 . S
C800 C805 1.490 . S
C801 H791 0.930 . S
C801 C800 1.400 . S
C801 C804 1.386 . S
H802 C818 0.930 . S
H803 C819 0.931 . S
C804 H792 0.929 . S
C804 C798 1.390 . S
C804 C801 1.386 . S
C805 C800 1.490 . S
C805 C807 1.395 . S
C805 C808 1.403 . S
H806 C812 0.930 . S
C807 H793 0.930 . S
C807 C805 1.395 . S
C807 C810 1.403 . S
C808 C805 1.403 . S
C808 C809 1.524 . S
C808 C812 1.400 . S
C809 H794 0.960 . S
C809 H795 0.960 . S
C809 H796 0.960 . S
C809 C808 1.524 . S
C810 C807 1.403 . S
C810 C811 1.392 . S
C810 C814 1.495 . S
C811 C810 1.392 . S
C811 C812 1.385 . S
C811 C813 1.478 . S
C812 H806 0.930 . S
C812 C808 1.400 . S
C812 C811 1.385 . S
C813 C811 1.478 . S
C813 C815 1.381 . S
C813 C819 1.383 . S
C814 C810 1.495 . S
C814 H820 0.959 . S
C814 H821 0.961 . S
C814 H822 0.960 . S
C815 C813 1.381 . S
C815 C816 1.394 . S
C815 H823 0.930 . S
C816 C815 1.394 . S
C816 C817 1.383 . S
C816 H824 0.929 . S
C817 C816 1.383 . S
C817 C818 1.377 . S
C818 H802 0.930 . S
C818 C817 1.377 . S
C818 C819 1.379 . S
C819 H803 0.931 . S
C819 C813 1.383 . S
C819 C818 1.379 . S
H820 C814 0.959 . S
H821 C814 0.961 . S
H822 C814 0.960 . S
H823 C815 0.930 . S
H824 C816 0.929 . S
H825 C833 0.929 . S
H826 C835 0.930 . S
H827 C837 0.930 . S
H828 C840 0.929 . S
H829 C843 0.930 . S
H830 C845 0.960 . S
H831 C845 0.960 . S
H832 C845 0.960 . S
C833 H825 0.929 . S
C833 C834 1.377 . S
C833 C835 1.384 . S
C834 C833 1.377 . S
C834 C840 1.390 . S
C835 H826 0.930 . S
C835 C833 1.384 . S
C835 C836 1.372 . S
C836 C835 1.372 . S
C836 C837 1.400 . S
C836 C841 1.490 . S
C837 H827 0.930 . S
C837 C836 1.400 . S
C837 C840 1.386 . S
H838 C854 0.930 . S
H839 C855 0.931 . S
C840 H828 0.929 . S
C840 C834 1.390 . S
C840 C837 1.386 . S
C841 C836 1.490 . S
C841 C843 1.395 . S
C841 C844 1.403 . S
H842 C848 0.930 . S
C843 H829 0.930 . S
C843 C841 1.395 . S
C843 C846 1.403 . S
C844 C841 1.403 . S
C844 C845 1.524 . S
C844 C848 1.400 . S
C845 H830 0.960 . S
C845 H831 0.960 . S
C845 H832 0.960 . S
C845 C844 1.524 . S
C846 C843 1.403 . S
C846 C847 1.392 . S
C846 C850 1.495 . S
C847 C846 1.392 . S
C847 C848 1.385 . S
C847 C849 1.478 . S
C848 H842 0.930 . S
C848 C844 1.400 . S
C848 C847 1.385 . S
C849 C847 1.478 . S
C849 C851 1.381 . S
C849 C855 1.383 . S
C850 C846 1.495 . S
C850 H856 0.959 . S
C850 H857 0.961 . S
C850 H858 0.960 . S
C851 C849 1.381 . S
C851 C852 1.394 . S
C851 H859 0.930 . S
C852 C851 1.394 . S
C852 C853 1.383 . S
C852 H860 0.929 . S
C853 C852 1.383 . S
C853 C854 1.377 . S
C854 H838 0.930 . S
C854 C853 1.377 . S
C854 C855 1.379 . S
C855 H839 0.931 . S
C855 C849 1.383 . S
C855 C854 1.379 . S
H856 C850 0.959 . S
H857 C850 0.961 . S
H858 C850 0.960 . S
H859 C851 0.930 . S
H860 C852 0.929 . S
H861 C869 0.929 . S
H862 C871 0.930 . S
H863 C873 0.930 . S
H864 C876 0.929 1_554 S
H865 C879 0.930 . S
H866 C881 0.960 . S
H867 C881 0.960 . S
H868 C881 0.960 . S
C869 H861 0.929 . S
C869 C870 1.377 . S
C869 C871 1.384 . S
C870 C869 1.377 . S
C870 C876 1.390 . S
C871 H862 0.930 . S
C871 C869 1.384 . S
C871 C872 1.372 . S
C872 C871 1.372 . S
C872 C873 1.400 . S
C872 C877 1.490 . S
C873 H863 0.930 . S
C873 C872 1.400 . S
C873 C876 1.386 . S
H874 C890 0.930 . S
H875 C891 0.931 . S
C876 H864 0.929 1_556 S
C876 C870 1.390 . S
C876 C873 1.386 . S
C877 C872 1.490 . S
C877 C879 1.395 . S
C877 C880 1.403 . S
H878 C884 0.930 . S
C879 H865 0.930 . S
C879 C877 1.395 . S
C879 C882 1.403 . S
C880 C877 1.403 . S
C880 C881 1.524 . S
C880 C884 1.400 . S
C881 H866 0.960 . S
C881 H867 0.960 . S
C881 H868 0.960 . S
C881 C880 1.524 . S
C882 C879 1.403 . S
C882 C883 1.392 . S
C882 C886 1.495 . S
C883 C882 1.392 . S
C883 C884 1.385 . S
C883 C885 1.478 . S
C884 H878 0.930 . S
C884 C880 1.400 . S
C884 C883 1.385 . S
C885 C883 1.478 . S
C885 C887 1.381 . S
C885 C891 1.383 . S
C886 C882 1.495 . S
C886 H892 0.959 . S
C886 H893 0.961 . S
C886 H894 0.960 . S
C887 C885 1.381 . S
C887 C888 1.394 . S
C887 H895 0.930 . S
C888 C887 1.394 . S
C888 C889 1.383 . S
C888 H896 0.929 . S
C889 C888 1.383 . S
C889 C890 1.377 . S
C890 H874 0.930 . S
C890 C889 1.377 . S
C890 C891 1.379 . S
C891 H875 0.931 . S
C891 C885 1.383 . S
C891 C890 1.379 . S
H892 C886 0.959 . S
H893 C886 0.961 . S
H894 C886 0.960 . S
H895 C887 0.930 . S
H896 C888 0.929 . S
H897 C905 0.929 1_554 S
H898 C907 0.930 . S
H899 C909 0.930 . S
H900 C912 0.929 . S
H901 C915 0.930 . S
H902 C917 0.960 . S
H903 C917 0.960 . S
H904 C917 0.960 . S
C905 H897 0.929 1_556 S
C905 C906 1.377 . S
C905 C907 1.384 . S
C906 C905 1.377 . S
C906 C912 1.390 . S
C907 H898 0.930 . S
C907 C905 1.384 . S
C907 C908 1.372 . S
C908 C907 1.372 . S
C908 C909 1.400 . S
C908 C913 1.490 . S
C909 H899 0.930 . S
C909 C908 1.400 . S
C909 C912 1.386 . S
H910 C926 0.930 . S
H911 C927 0.931 . S
C912 H900 0.929 . S
C912 C906 1.390 . S
C912 C909 1.386 . S
C913 C908 1.490 . S
C913 C915 1.395 . S
C913 C916 1.403 . S
H914 C920 0.930 . S
C915 H901 0.930 . S
C915 C913 1.395 . S
C915 C918 1.403 . S
C916 C913 1.403 . S
C916 C917 1.524 . S
C916 C920 1.400 . S
C917 H902 0.960 . S
C917 H903 0.960 . S
C917 H904 0.960 . S
C917 C916 1.524 . S
C918 C915 1.403 . S
C918 C919 1.392 . S
C918 C922 1.495 . S
C919 C918 1.392 . S
C919 C920 1.385 . S
C919 C921 1.478 . S
C920 H914 0.930 . S
C920 C916 1.400 . S
C920 C919 1.385 . S
C921 C919 1.478 . S
C921 C923 1.381 . S
C921 C927 1.383 . S
C922 C918 1.495 . S
C922 H928 0.959 . S
C922 H929 0.961 . S
C922 H930 0.960 . S
C923 C921 1.381 . S
C923 C924 1.394 . S
C923 H931 0.930 . S
C924 C923 1.394 . S
C924 C925 1.383 . S
C924 H932 0.929 . S
C925 C924 1.383 . S
C925 C926 1.377 . S
C926 H910 0.930 . S
C926 C925 1.377 . S
C926 C927 1.379 . S
C927 H911 0.931 . S
C927 C921 1.383 . S
C927 C926 1.379 . S
H928 C922 0.959 . S
H929 C922 0.961 . S
H930 C922 0.960 . S
H931 C923 0.930 . S
H932 C924 0.929 . S
H933 C941 0.929 . S
H934 C943 0.930 . S
H935 C945 0.930 . S
H936 C948 0.929 . S
H937 C951 0.930 . S
H938 C953 0.960 . S
H939 C953 0.960 . S
H940 C953 0.960 . S
C941 H933 0.929 . S
C941 C942 1.377 . S
C941 C943 1.384 . S
C942 C941 1.377 . S
C942 C948 1.390 . S
C943 H934 0.930 . S
C943 C941 1.384 . S
C943 C944 1.372 . S
C944 C943 1.372 . S
C944 C945 1.400 . S
C944 C949 1.490 . S
C945 H935 0.930 . S
C945 C944 1.400 . S
C945 C948 1.386 . S
H946 C962 0.930 . S
H947 C963 0.931 . S
C948 H936 0.929 . S
C948 C942 1.390 . S
C948 C945 1.386 . S
C949 C944 1.490 . S
C949 C951 1.395 . S
C949 C952 1.403 . S
H950 C956 0.930 . S
C951 H937 0.930 . S
C951 C949 1.395 . S
C951 C954 1.403 . S
C952 C949 1.403 . S
C952 C953 1.524 . S
C952 C956 1.400 . S
C953 H938 0.960 . S
C953 H939 0.960 . S
C953 H940 0.960 . S
C953 C952 1.524 . S
C954 C951 1.403 . S
C954 C955 1.392 . S
C954 C958 1.495 . S
C955 C954 1.392 . S
C955 C956 1.385 . S
C955 C957 1.478 . S
C956 H950 0.930 . S
C956 C952 1.400 . S
C956 C955 1.385 . S
C957 C955 1.478 . S
C957 C959 1.381 . S
C957 C963 1.383 . S
C958 C954 1.495 . S
C958 H964 0.959 . S
C958 H965 0.961 . S
C958 H966 0.960 . S
C959 C957 1.381 . S
C959 C960 1.394 . S
C959 H967 0.930 . S
C960 C959 1.394 . S
C960 C961 1.383 . S
C960 H968 0.929 . S
C961 C960 1.383 . S
C961 C962 1.377 . S
C962 H946 0.930 . S
C962 C961 1.377 . S
C962 C963 1.379 . S
C963 H947 0.931 . S
C963 C957 1.383 . S
C963 C962 1.379 . S
H964 C958 0.959 . S
H965 C958 0.961 . S
H966 C958 0.960 . S
H967 C959 0.930 . S
H968 C960 0.929 . S
H969 C977 0.929 . S
H970 C979 0.930 . S
H971 C981 0.930 . S
H972 C984 0.929 . S
H973 C987 0.930 . S
H974 C989 0.960 . S
H975 C989 0.960 . S
H976 C989 0.960 . S
C977 H969 0.929 . S
C977 C978 1.377 . S
C977 C979 1.384 . S
C978 C977 1.377 . S
C978 C984 1.390 . S
C979 H970 0.930 . S
C979 C977 1.384 . S
C979 C980 1.372 . S
C980 C979 1.372 . S
C980 C981 1.400 . S
C980 C985 1.490 . S
C981 H971 0.930 . S
C981 C980 1.400 . S
C981 C984 1.386 . S
H982 C998 0.930 . S
H983 C999 0.931 . S
C984 H972 0.929 . S
C984 C978 1.390 . S
C984 C981 1.386 . S
C985 C980 1.490 . S
C985 C987 1.395 . S
C985 C988 1.403 . S
H986 C992 0.930 . S
C987 H973 0.930 . S
C987 C985 1.395 . S
C987 C990 1.403 . S
C988 C985 1.403 . S
C988 C989 1.524 . S
C988 C992 1.400 . S
C989 H974 0.960 . S
C989 H975 0.960 . S
C989 H976 0.960 . S
C989 C988 1.524 . S
C990 C987 1.403 . S
C990 C991 1.392 . S
C990 C994 1.495 . S
C991 C990 1.392 . S
C991 C992 1.385 . S
C991 C993 1.478 . S
C992 H986 0.930 . S
C992 C988 1.400 . S
C992 C991 1.385 . S
C993 C991 1.478 . S
C993 C995 1.381 . S
C993 C999 1.383 . S
C994 C990 1.495 . S
C994 H1000 0.959 . S
C994 H1001 0.961 . S
C994 H1002 0.960 . S
C995 C993 1.381 . S
C995 C996 1.394 . S
C995 H1003 0.930 . S
C996 C995 1.394 . S
C996 C997 1.383 . S
C996 H1004 0.929 . S
C997 C996 1.383 . S
C997 C998 1.377 . S
C998 H982 0.930 . S
C998 C997 1.377 . S
C998 C999 1.379 . S
C999 H983 0.931 . S
C999 C993 1.383 . S
C999 C998 1.379 . S
H1000 C994 0.959 . S
H1001 C994 0.961 . S
H1002 C994 0.960 . S
H1003 C995 0.930 . S
H1004 C996 0.929 . S
H1005 C1013 0.929 . S
H1006 C1015 0.930 . S
H1007 C1017 0.930 . S
H1008 C1020 0.929 . S
H1009 C1023 0.930 . S
H1010 C1025 0.960 . S
H1011 C1025 0.960 . S
H1012 C1025 0.960 . S
C1013 H1005 0.929 . S
C1013 C1014 1.377 . S
C1013 C1015 1.384 . S
C1014 C1013 1.377 . S
C1014 C1020 1.390 . S
C1015 H1006 0.930 . S
C1015 C1013 1.384 . S
C1015 C1016 1.372 . S
C1016 C1015 1.372 . S
C1016 C1017 1.400 . S
C1016 C1021 1.490 . S
C1017 H1007 0.930 . S
C1017 C1016 1.400 . S
C1017 C1020 1.386 . S
H1018 C1034 0.930 . S
H1019 C1035 0.931 . S
C1020 H1008 0.929 . S
C1020 C1014 1.390 . S
C1020 C1017 1.386 . S
C1021 C1016 1.490 . S
C1021 C1023 1.395 . S
C1021 C1024 1.403 . S
H1022 C1028 0.930 . S
C1023 H1009 0.930 . S
C1023 C1021 1.395 . S
C1023 C1026 1.403 . S
C1024 C1021 1.403 . S
C1024 C1025 1.524 . S
C1024 C1028 1.400 . S
C1025 H1010 0.960 . S
C1025 H1011 0.960 . S
C1025 H1012 0.960 . S
C1025 C1024 1.524 . S
C1026 C1023 1.403 . S
C1026 C1027 1.392 . S
C1026 C1030 1.495 . S
C1027 C1026 1.392 . S
C1027 C1028 1.385 . S
C1027 C1029 1.478 . S
C1028 H1022 0.930 . S
C1028 C1024 1.400 . S
C1028 C1027 1.385 . S
C1029 C1027 1.478 . S
C1029 C1031 1.381 . S
C1029 C1035 1.383 . S
C1030 C1026 1.495 . S
C1030 H1036 0.959 . S
C1030 H1037 0.961 . S
C1030 H1038 0.960 . S
C1031 C1029 1.381 . S
C1031 C1032 1.394 . S
C1031 H1039 0.930 . S
C1032 C1031 1.394 . S
C1032 C1033 1.383 . S
C1032 H1040 0.929 . S
C1033 C1032 1.383 . S
C1033 C1034 1.377 . S
C1034 H1018 0.930 . S
C1034 C1033 1.377 . S
C1034 C1035 1.379 . S
C1035 H1019 0.931 . S
C1035 C1029 1.383 . S
C1035 C1034 1.379 . S
H1036 C1030 0.959 . S
H1037 C1030 0.961 . S
H1038 C1030 0.960 . S
H1039 C1031 0.930 . S
H1040 C1032 0.929 . S
H1041 C1049 0.929 . S
H1042 C1051 0.930 . S
H1043 C1053 0.930 . S
H1044 C1056 0.929 . S
H1045 C1059 0.930 . S
H1046 C1061 0.960 . S
H1047 C1061 0.960 . S
H1048 C1061 0.960 . S
C1049 H1041 0.929 . S
C1049 C1050 1.377 . S
C1049 C1051 1.384 1_554 S
C1050 C1049 1.377 . S
C1050 C1056 1.390 . S
C1051 H1042 0.930 . S
C1051 C1049 1.384 1_556 S
C1051 C1052 1.372 . S
C1052 C1051 1.372 . S
C1052 C1053 1.400 . S
C1052 C1057 1.490 . S
C1053 H1043 0.930 . S
C1053 C1052 1.400 . S
C1053 C1056 1.386 1_556 S
H1054 C1070 0.930 . S
H1055 C1071 0.931 . S
C1056 H1044 0.929 . S
C1056 C1050 1.390 . S
C1056 C1053 1.386 1_554 S
C1057 C1052 1.490 . S
C1057 C1059 1.395 . S
C1057 C1060 1.403 . S
H1058 C1064 0.930 . S
C1059 H1045 0.930 . S
C1059 C1057 1.395 . S
C1059 C1062 1.403 . S
C1060 C1057 1.403 . S
C1060 C1061 1.524 . S
C1060 C1064 1.400 . S
C1061 H1046 0.960 . S
C1061 H1047 0.960 . S
C1061 H1048 0.960 . S
C1061 C1060 1.524 . S
C1062 C1059 1.403 . S
C1062 C1063 1.392 . S
C1062 C1066 1.495 . S
C1063 C1062 1.392 . S
C1063 C1064 1.385 . S
C1063 C1065 1.478 . S
C1064 H1058 0.930 . S
C1064 C1060 1.400 . S
C1064 C1063 1.385 . S
C1065 C1063 1.478 . S
C1065 C1067 1.381 . S
C1065 C1071 1.383 . S
C1066 C1062 1.495 . S
C1066 H1072 0.959 . S
C1066 H1073 0.961 . S
C1066 H1074 0.960 . S
C1067 C1065 1.381 . S
C1067 C1068 1.394 . S
C1067 H1075 0.930 . S
C1068 C1067 1.394 . S
C1068 C1069 1.383 . S
C1068 H1076 0.929 . S
C1069 C1068 1.383 . S
C1069 C1070 1.377 . S
C1070 H1054 0.930 . S
C1070 C1069 1.377 . S
C1070 C1071 1.379 . S
C1071 H1055 0.931 . S
C1071 C1065 1.383 . S
C1071 C1070 1.379 . S
H1072 C1066 0.959 . S
H1073 C1066 0.961 . S
H1074 C1066 0.960 . S
H1075 C1067 0.930 . S
H1076 C1068 0.929 . S
H1077 C1085 0.929 . S
H1078 C1087 0.930 . S
H1079 C1089 0.930 . S
H1080 C1092 0.929 . S
H1081 C1095 0.930 . S
H1082 C1097 0.960 . S
H1083 C1097 0.960 . S
H1084 C1097 0.960 . S
C1085 H1077 0.929 . S
C1085 C1086 1.377 1_556 S
C1085 C1087 1.384 . S
C1086 C1085 1.377 1_554 S
C1086 C1092 1.390 . S
C1087 H1078 0.930 . S
C1087 C1085 1.384 . S
C1087 C1088 1.372 . S
C1088 C1087 1.372 . S
C1088 C1089 1.400 . S
C1088 C1093 1.490 . S
C1089 H1079 0.930 . S
C1089 C1088 1.400 . S
C1089 C1092 1.386 1_556 S
H1090 C1106 0.930 . S
H1091 C1107 0.931 . S
C1092 H1080 0.929 . S
C1092 C1086 1.390 . S
C1092 C1089 1.386 1_554 S
C1093 C1088 1.490 . S
C1093 C1095 1.395 . S
C1093 C1096 1.403 . S
H1094 C1100 0.930 . S
C1095 H1081 0.930 . S
C1095 C1093 1.395 . S
C1095 C1098 1.403 . S
C1096 C1093 1.403 . S
C1096 C1097 1.524 . S
C1096 C1100 1.400 . S
C1097 H1082 0.960 . S
C1097 H1083 0.960 . S
C1097 H1084 0.960 . S
C1097 C1096 1.524 . S
C1098 C1095 1.403 . S
C1098 C1099 1.392 . S
C1098 C1102 1.495 . S
C1099 C1098 1.392 . S
C1099 C1100 1.385 . S
C1099 C1101 1.478 . S
C1100 H1094 0.930 . S
C1100 C1096 1.400 . S
C1100 C1099 1.385 . S
C1101 C1099 1.478 . S
C1101 C1103 1.381 . S
C1101 C1107 1.383 . S
C1102 C1098 1.495 . S
C1102 H1108 0.959 . S
C1102 H1109 0.961 . S
C1102 H1110 0.960 . S
C1103 C1101 1.381 . S
C1103 C1104 1.394 . S
C1103 H1111 0.930 . S
C1104 C1103 1.394 . S
C1104 C1105 1.383 . S
C1104 H1112 0.929 . S
C1105 C1104 1.383 . S
C1105 C1106 1.377 . S
C1106 H1090 0.930 . S
C1106 C1105 1.377 . S
C1106 C1107 1.379 . S
C1107 H1091 0.931 . S
C1107 C1101 1.383 . S
C1107 C1106 1.379 . S
H1108 C1102 0.959 . S
H1109 C1102 0.961 . S
H1110 C1102 0.960 . S
H1111 C1103 0.930 . S
H1112 C1104 0.929 . S
H1113 C1121 0.929 . S
H1114 C1123 0.930 . S
H1115 C1125 0.930 . S
H1116 C1128 0.929 . S
H1117 C1131 0.930 . S
H1118 C1133 0.960 . S
H1119 C1133 0.960 . S
H1120 C1133 0.960 . S
C1121 H1113 0.929 . S
C1121 C1122 1.377 . S
C1121 C1123 1.384 . S
C1122 C1121 1.377 . S
C1122 C1128 1.390 . S
C1123 H1114 0.930 . S
C1123 C1121 1.384 . S
C1123 C1124 1.372 . S
C1124 C1123 1.372 . S
C1124 C1125 1.400 . S
C1124 C1129 1.490 . S
C1125 H1115 0.930 . S
C1125 C1124 1.400 . S
C1125 C1128 1.386 . S
H1126 C1142 0.930 . S
H1127 C1143 0.931 . S
C1128 H1116 0.929 . S
C1128 C1122 1.390 . S
C1128 C1125 1.386 . S
C1129 C1124 1.490 . S
C1129 C1131 1.395 . S
C1129 C1132 1.403 . S
H1130 C1136 0.930 . S
C1131 H1117 0.930 . S
C1131 C1129 1.395 . S
C1131 C1134 1.403 . S
C1132 C1129 1.403 . S
C1132 C1133 1.524 . S
C1132 C1136 1.400 . S
C1133 H1118 0.960 . S
C1133 H1119 0.960 . S
C1133 H1120 0.960 . S
C1133 C1132 1.524 . S
C1134 C1131 1.403 . S
C1134 C1135 1.392 . S
C1134 C1138 1.495 . S
C1135 C1134 1.392 . S
C1135 C1136 1.385 . S
C1135 C1137 1.478 . S
C1136 H1130 0.930 . S
C1136 C1132 1.400 . S
C1136 C1135 1.385 . S
C1137 C1135 1.478 . S
C1137 C1139 1.381 . S
C1137 C1143 1.383 . S
C1138 C1134 1.495 . S
C1138 H1144 0.959 . S
C1138 H1145 0.961 . S
C1138 H1146 0.960 . S
C1139 C1137 1.381 . S
C1139 C1140 1.394 . S
C1139 H1147 0.930 . S
C1140 C1139 1.394 . S
C1140 C1141 1.383 . S
C1140 H1148 0.929 . S
C1141 C1140 1.383 . S
C1141 C1142 1.377 . S
C1142 H1126 0.930 . S
C1142 C1141 1.377 . S
C1142 C1143 1.379 . S
C1143 H1127 0.931 . S
C1143 C1137 1.383 . S
C1143 C1142 1.379 . S
H1144 C1138 0.959 . S
H1145 C1138 0.961 . S
H1146 C1138 0.960 . S
H1147 C1139 0.930 . S
H1148 C1140 0.929 . S
H1149 C1157 0.929 . S
H1150 C1159 0.930 . S
H1151 C1161 0.930 . S
H1152 C1164 0.929 . S
H1153 C1167 0.930 . S
H1154 C1169 0.960 . S
H1155 C1169 0.960 . S
H1156 C1169 0.960 . S
C1157 H1149 0.929 . S
C1157 C1158 1.377 . S
C1157 C1159 1.384 . S
C1158 C1157 1.377 . S
C1158 C1164 1.390 . S
C1159 H1150 0.930 . S
C1159 C1157 1.384 . S
C1159 C1160 1.372 . S
C1160 C1159 1.372 . S
C1160 C1161 1.400 . S
C1160 C1165 1.490 . S
C1161 H1151 0.930 . S
C1161 C1160 1.400 . S
C1161 C1164 1.386 . S
H1162 C1178 0.930 . S
H1163 C1179 0.931 . S
C1164 H1152 0.929 . S
C1164 C1158 1.390 . S
C1164 C1161 1.386 . S
C1165 C1160 1.490 . S
C1165 C1167 1.395 . S
C1165 C1168 1.403 . S
H1166 C1172 0.930 . S
C1167 H1153 0.930 . S
C1167 C1165 1.395 . S
C1167 C1170 1.403 . S
C1168 C1165 1.403 . S
C1168 C1169 1.524 . S
C1168 C1172 1.400 . S
C1169 H1154 0.960 . S
C1169 H1155 0.960 . S
C1169 H1156 0.960 . S
C1169 C1168 1.524 . S
C1170 C1167 1.403 . S
C1170 C1171 1.392 . S
C1170 C1174 1.495 . S
C1171 C1170 1.392 . S
C1171 C1172 1.385 . S
C1171 C1173 1.478 . S
C1172 H1166 0.930 . S
C1172 C1168 1.400 . S
C1172 C1171 1.385 . S
C1173 C1171 1.478 . S
C1173 C1175 1.381 . S
C1173 C1179 1.383 . S
C1174 C1170 1.495 . S
C1174 H1180 0.959 . S
C1174 H1181 0.961 . S
C1174 H1182 0.960 . S
C1175 C1173 1.381 . S
C1175 C1176 1.394 . S
C1175 H1183 0.930 . S
C1176 C1175 1.394 . S
C1176 C1177 1.383 . S
C1176 H1184 0.929 . S
C1177 C1176 1.383 . S
C1177 C1178 1.377 . S
C1178 H1162 0.930 . S
C1178 C1177 1.377 . S
C1178 C1179 1.379 . S
C1179 H1163 0.931 . S
C1179 C1173 1.383 . S
C1179 C1178 1.379 . S
H1180 C1174 0.959 . S
H1181 C1174 0.961 . S
H1182 C1174 0.960 . S
H1183 C1175 0.930 . S
H1184 C1176 0.929 . S
H1185 C1193 0.929 . S
H1186 C1195 0.930 . S
H1187 C1197 0.930 . S
H1188 C1200 0.929 . S
H1189 C1203 0.930 . S
H1190 C1205 0.960 . S
H1191 C1205 0.960 . S
H1192 C1205 0.960 . S
C1193 H1185 0.929 . S
C1193 C1194 1.377 . S
C1193 C1195 1.384 . S
C1194 C1193 1.377 . S
C1194 C1200 1.390 . S
C1195 H1186 0.930 . S
C1195 C1193 1.384 . S
C1195 C1196 1.372 . S
C1196 C1195 1.372 . S
C1196 C1197 1.400 . S
C1196 C1201 1.490 . S
C1197 H1187 0.930 . S
C1197 C1196 1.400 . S
C1197 C1200 1.386 . S
H1198 C1214 0.930 . S
H1199 C1215 0.931 . S
C1200 H1188 0.929 . S
C1200 C1194 1.390 . S
C1200 C1197 1.386 . S
C1201 C1196 1.490 . S
C1201 C1203 1.395 . S
C1201 C1204 1.403 . S
H1202 C1208 0.930 . S
C1203 H1189 0.930 . S
C1203 C1201 1.395 . S
C1203 C1206 1.403 . S
C1204 C1201 1.403 . S
C1204 C1205 1.524 . S
C1204 C1208 1.400 . S
C1205 H1190 0.960 . S
C1205 H1191 0.960 . S
C1205 H1192 0.960 . S
C1205 C1204 1.524 . S
C1206 C1203 1.403 . S
C1206 C1207 1.392 . S
C1206 C1210 1.495 . S
C1207 C1206 1.392 . S
C1207 C1208 1.385 . S
C1207 C1209 1.478 . S
C1208 H1202 0.930 . S
C1208 C1204 1.400 . S
C1208 C1207 1.385 . S
C1209 C1207 1.478 . S
C1209 C1211 1.381 . S
C1209 C1215 1.383 . S
C1210 C1206 1.495 . S
C1210 H1216 0.959 . S
C1210 H1217 0.961 . S
C1210 H1218 0.960 . S
C1211 C1209 1.381 . S
C1211 C1212 1.394 . S
C1211 H1219 0.930 . S
C1212 C1211 1.394 . S
C1212 C1213 1.383 . S
C1212 H1220 0.929 . S
C1213 C1212 1.383 . S
C1213 C1214 1.377 . S
C1214 H1198 0.930 . S
C1214 C1213 1.377 . S
C1214 C1215 1.379 . S
C1215 H1199 0.931 . S
C1215 C1209 1.383 . S
C1215 C1214 1.379 . S
H1216 C1210 0.959 . S
H1217 C1210 0.961 . S
H1218 C1210 0.960 . S
H1219 C1211 0.930 . S
H1220 C1212 0.929 . S
H1221 C1229 0.929 . S
H1222 C1231 0.930 . S
H1223 C1233 0.930 . S
H1224 C1236 0.929 . S
H1225 C1239 0.930 . S
H1226 C1241 0.960 . S
H1227 C1241 0.960 . S
H1228 C1241 0.960 . S
C1229 H1221 0.929 . S
C1229 C1230 1.377 . S
C1229 C1231 1.384 . S
C1230 C1229 1.377 . S
C1230 C1236 1.390 . S
C1231 H1222 0.930 . S
C1231 C1229 1.384 . S
C1231 C1232 1.372 . S
C1232 C1231 1.372 . S
C1232 C1233 1.400 . S
C1232 C1237 1.490 . S
C1233 H1223 0.930 . S
C1233 C1232 1.400 . S
C1233 C1236 1.386 . S
H1234 C1250 0.930 . S
H1235 C1251 0.931 . S
C1236 H1224 0.929 . S
C1236 C1230 1.390 . S
C1236 C1233 1.386 . S
C1237 C1232 1.490 . S
C1237 C1239 1.395 . S
C1237 C1240 1.403 . S
H1238 C1244 0.930 . S
C1239 H1225 0.930 . S
C1239 C1237 1.395 . S
C1239 C1242 1.403 . S
C1240 C1237 1.403 . S
C1240 C1241 1.524 . S
C1240 C1244 1.400 . S
C1241 H1226 0.960 . S
C1241 H1227 0.960 . S
C1241 H1228 0.960 . S
C1241 C1240 1.524 . S
C1242 C1239 1.403 . S
C1242 C1243 1.392 . S
C1242 C1246 1.495 . S
C1243 C1242 1.392 . S
C1243 C1244 1.385 . S
C1243 C1245 1.478 . S
C1244 H1238 0.930 . S
C1244 C1240 1.400 . S
C1244 C1243 1.385 . S
C1245 C1243 1.478 . S
C1245 C1247 1.381 . S
C1245 C1251 1.383 . S
C1246 C1242 1.495 . S
C1246 H1252 0.959 . S
C1246 H1253 0.961 . S
C1246 H1254 0.960 . S
C1247 C1245 1.381 . S
C1247 C1248 1.394 . S
C1247 H1255 0.930 . S
C1248 C1247 1.394 . S
C1248 C1249 1.383 . S
C1248 H1256 0.929 . S
C1249 C1248 1.383 . S
C1249 C1250 1.377 . S
C1250 H1234 0.930 . S
C1250 C1249 1.377 . S
C1250 C1251 1.379 . S
C1251 H1235 0.931 . S
C1251 C1245 1.383 . S
C1251 C1250 1.379 . S
H1252 C1246 0.959 . S
H1253 C1246 0.961 . S
H1254 C1246 0.960 . S
H1255 C1247 0.930 . S
H1256 C1248 0.929 . S
H1257 C1265 0.929 . S
H1258 C1267 0.930 . S
H1259 C1269 0.930 . S
H1260 C1272 0.929 . S
H1261 C1275 0.930 . S
H1262 C1277 0.960 . S
H1263 C1277 0.960 . S
H1264 C1277 0.960 . S
C1265 H1257 0.929 . S
C1265 C1266 1.377 . S
C1265 C1267 1.384 . S
C1266 C1265 1.377 . S
C1266 C1272 1.390 . S
C1267 H1258 0.930 . S
C1267 C1265 1.384 . S
C1267 C1268 1.372 . S
C1268 C1267 1.372 . S
C1268 C1269 1.400 . S
C1268 C1273 1.490 . S
C1269 H1259 0.930 . S
C1269 C1268 1.400 . S
C1269 C1272 1.386 . S
H1270 C1286 0.930 . S
H1271 C1287 0.931 . S
C1272 H1260 0.929 . S
C1272 C1266 1.390 . S
C1272 C1269 1.386 . S
C1273 C1268 1.490 . S
C1273 C1275 1.395 . S
C1273 C1276 1.403 . S
H1274 C1280 0.930 . S
C1275 H1261 0.930 . S
C1275 C1273 1.395 . S
C1275 C1278 1.403 . S
C1276 C1273 1.403 . S
C1276 C1277 1.524 . S
C1276 C1280 1.400 . S
C1277 H1262 0.960 . S
C1277 H1263 0.960 . S
C1277 H1264 0.960 . S
C1277 C1276 1.524 . S
C1278 C1275 1.403 . S
C1278 C1279 1.392 . S
C1278 C1282 1.495 . S
C1279 C1278 1.392 . S
C1279 C1280 1.385 . S
C1279 C1281 1.478 . S
C1280 H1274 0.930 . S
C1280 C1276 1.400 . S
C1280 C1279 1.385 . S
C1281 C1279 1.478 . S
C1281 C1283 1.381 . S
C1281 C1287 1.383 . S
C1282 C1278 1.495 . S
C1282 H1288 0.959 . S
C1282 H1289 0.961 . S
C1282 H1290 0.960 . S
C1283 C1281 1.381 . S
C1283 C1284 1.394 . S
C1283 H1291 0.930 . S
C1284 C1283 1.394 . S
C1284 C1285 1.383 . S
C1284 H1292 0.929 . S
C1285 C1284 1.383 . S
C1285 C1286 1.377 . S
C1286 H1270 0.930 . S
C1286 C1285 1.377 . S
C1286 C1287 1.379 . S
C1287 H1271 0.931 . S
C1287 C1281 1.383 . S
C1287 C1286 1.379 . S
H1288 C1282 0.959 . S
H1289 C1282 0.961 . S
H1290 C1282 0.960 . S
H1291 C1283 0.930 . S
H1292 C1284 0.929 . S
H1293 C1301 0.929 . S
H1294 C1303 0.930 . S
H1295 C1305 0.930 . S
H1296 C1308 0.929 . S
H1297 C1311 0.930 . S
H1298 C1313 0.960 . S
H1299 C1313 0.960 . S
H1300 C1313 0.960 . S
C1301 H1293 0.929 . S
C1301 C1302 1.377 . S
C1301 C1303 1.384 . S
C1302 C1301 1.377 . S
C1302 C1308 1.390 . S
C1303 H1294 0.930 . S
C1303 C1301 1.384 . S
C1303 C1304 1.372 . S
C1304 C1303 1.372 . S
C1304 C1305 1.400 . S
C1304 C1309 1.490 . S
C1305 H1295 0.930 . S
C1305 C1304 1.400 . S
C1305 C1308 1.386 . S
H1306 C1322 0.930 . S
H1307 C1323 0.931 . S
C1308 H1296 0.929 . S
C1308 C1302 1.390 . S
C1308 C1305 1.386 . S
C1309 C1304 1.490 . S
C1309 C1311 1.395 . S
C1309 C1312 1.403 . S
H1310 C1316 0.930 . S
C1311 H1297 0.930 . S
C1311 C1309 1.395 . S
C1311 C1314 1.403 . S
C1312 C1309 1.403 . S
C1312 C1313 1.524 . S
C1312 C1316 1.400 . S
C1313 H1298 0.960 . S
C1313 H1299 0.960 . S
C1313 H1300 0.960 . S
C1313 C1312 1.524 . S
C1314 C1311 1.403 . S
C1314 C1315 1.392 . S
C1314 C1318 1.495 . S
C1315 C1314 1.392 . S
C1315 C1316 1.385 . S
C1315 C1317 1.478 . S
C1316 H1310 0.930 . S
C1316 C1312 1.400 . S
C1316 C1315 1.385 . S
C1317 C1315 1.478 . S
C1317 C1319 1.381 . S
C1317 C1323 1.383 . S
C1318 C1314 1.495 . S
C1318 H1324 0.959 . S
C1318 H1325 0.961 . S
C1318 H1326 0.960 . S
C1319 C1317 1.381 . S
C1319 C1320 1.394 . S
C1319 H1327 0.930 . S
C1320 C1319 1.394 . S
C1320 C1321 1.383 . S
C1320 H1328 0.929 . S
C1321 C1320 1.383 . S
C1321 C1322 1.377 . S
C1322 H1306 0.930 . S
C1322 C1321 1.377 . S
C1322 C1323 1.379 . S
C1323 H1307 0.931 . S
C1323 C1317 1.383 . S
C1323 C1322 1.379 . S
H1324 C1318 0.959 . S
H1325 C1318 0.961 . S
H1326 C1318 0.960 . S
H1327 C1319 0.930 . S
H1328 C1320 0.929 . S
H1329 C1337 0.929 . S
H1330 C1339 0.930 . S
H1331 C1341 0.930 . S
H1332 C1344 0.929 . S
H1333 C1347 0.930 . S
H1334 C1349 0.960 . S
H1335 C1349 0.960 . S
H1336 C1349 0.960 . S
C1337 H1329 0.929 . S
C1337 C1338 1.377 . S
C1337 C1339 1.384 . S
C1338 C1337 1.377 . S
C1338 C1344 1.390 . S
C1339 H1330 0.930 . S
C1339 C1337 1.384 . S
C1339 C1340 1.372 . S
C1340 C1339 1.372 . S
C1340 C1341 1.400 . S
C1340 C1345 1.490 . S
C1341 H1331 0.930 . S
C1341 C1340 1.400 . S
C1341 C1344 1.386 . S
H1342 C1358 0.930 . S
H1343 C1359 0.931 . S
C1344 H1332 0.929 . S
C1344 C1338 1.390 . S
C1344 C1341 1.386 . S
C1345 C1340 1.490 . S
C1345 C1347 1.395 . S
C1345 C1348 1.403 . S
H1346 C1352 0.930 . S
C1347 H1333 0.930 . S
C1347 C1345 1.395 . S
C1347 C1350 1.403 . S
C1348 C1345 1.403 . S
C1348 C1349 1.524 . S
C1348 C1352 1.400 . S
C1349 H1334 0.960 . S
C1349 H1335 0.960 . S
C1349 H1336 0.960 . S
C1349 C1348 1.524 . S
C1350 C1347 1.403 . S
C1350 C1351 1.392 . S
C1350 C1354 1.495 . S
C1351 C1350 1.392 . S
C1351 C1352 1.385 . S
C1351 C1353 1.478 . S
C1352 H1346 0.930 . S
C1352 C1348 1.400 . S
C1352 C1351 1.385 . S
C1353 C1351 1.478 . S
C1353 C1355 1.381 . S
C1353 C1359 1.383 . S
C1354 C1350 1.495 . S
C1354 H1360 0.959 . S
C1354 H1361 0.961 . S
C1354 H1362 0.960 . S
C1355 C1353 1.381 . S
C1355 C1356 1.394 . S
C1355 H1363 0.930 . S
C1356 C1355 1.394 . S
C1356 C1357 1.383 . S
C1356 H1364 0.929 . S
C1357 C1356 1.383 . S
C1357 C1358 1.377 . S
C1358 H1342 0.930 . S
C1358 C1357 1.377 . S
C1358 C1359 1.379 . S
C1359 H1343 0.931 . S
C1359 C1353 1.383 . S
C1359 C1358 1.379 . S
H1360 C1354 0.959 . S
H1361 C1354 0.961 . S
H1362 C1354 0.960 . S
H1363 C1355 0.930 . S
H1364 C1356 0.929 . S
H1365 C1373 0.929 . S
H1366 C1375 0.930 . S
H1367 C1377 0.930 . S
H1368 C1380 0.929 . S
H1369 C1383 0.930 . S
H1370 C1385 0.960 . S
H1371 C1385 0.960 . S
H1372 C1385 0.960 . S
C1373 H1365 0.929 . S
C1373 C1374 1.377 . S
C1373 C1375 1.384 . S
C1374 C1373 1.377 . S
C1374 C1380 1.390 . S
C1375 H1366 0.930 . S
C1375 C1373 1.384 . S
C1375 C1376 1.372 . S
C1376 C1375 1.372 . S
C1376 C1377 1.400 . S
C1376 C1381 1.490 . S
C1377 H1367 0.930 . S
C1377 C1376 1.400 . S
C1377 C1380 1.386 . S
H1378 C1394 0.930 . S
H1379 C1395 0.931 . S
C1380 H1368 0.929 . S
C1380 C1374 1.390 . S
C1380 C1377 1.386 . S
C1381 C1376 1.490 . S
C1381 C1383 1.395 . S
C1381 C1384 1.403 . S
H1382 C1388 0.930 . S
C1383 H1369 0.930 . S
C1383 C1381 1.395 . S
C1383 C1386 1.403 . S
C1384 C1381 1.403 . S
C1384 C1385 1.524 . S
C1384 C1388 1.400 . S
C1385 H1370 0.960 . S
C1385 H1371 0.960 . S
C1385 H1372 0.960 . S
C1385 C1384 1.524 . S
C1386 C1383 1.403 . S
C1386 C1387 1.392 . S
C1386 C1390 1.495 . S
C1387 C1386 1.392 . S
C1387 C1388 1.385 . S
C1387 C1389 1.478 . S
C1388 H1382 0.930 . S
C1388 C1384 1.400 . S
C1388 C1387 1.385 . S
C1389 C1387 1.478 . S
C1389 C1391 1.381 . S
C1389 C1395 1.383 . S
C1390 C1386 1.495 . S
C1390 H1396 0.959 . S
C1390 H1397 0.961 . S
C1390 H1398 0.960 . S
C1391 C1389 1.381 . S
C1391 C1392 1.394 . S
C1391 H1399 0.930 . S
C1392 C1391 1.394 . S
C1392 C1393 1.383 . S
C1392 H1400 0.929 . S
C1393 C1392 1.383 . S
C1393 C1394 1.377 . S
C1394 H1378 0.930 . S
C1394 C1393 1.377 . S
C1394 C1395 1.379 . S
C1395 H1379 0.931 . S
C1395 C1389 1.383 . S
C1395 C1394 1.379 . S
H1396 C1390 0.959 . S
H1397 C1390 0.961 . S
H1398 C1390 0.960 . S
H1399 C1391 0.930 . S
H1400 C1392 0.929 . S
C546 C39 1.689 . S
C565 C444 1.665 . S
C582 C125 0.760 . S
C601 C476 0.738 . S
C637 C535 2.265 . S
C618 C211 2.178 . S
C673 C464 0.711 . S
C654 C273 0.682 . S
C690 C335 1.744 . S
C709 C494 1.700 . S
C745 C516 1.559 . S
C726 C439 1.587 . S
C781 C485 1.667 . S
C762 C187 1.655 . S
C798 C291 1.681 . S
C817 C525 1.652 . S
C853 C474 1.915 . S
C834 C359 1.780 . S
C870 C421 0.720 . S
C889 C504 0.768 . S
C906 C63 2.107 1_556 S
C925 C507 2.185 . S
C961 C446 2.092 . S
C942 C143 2.122 . S
C997 C454 1.816 . S
C978 C285 1.755 . S
C1033 C495 1.962 . S
C1014 C365 2.022 1_556 S
C1069 C508 2.151 . S
C1050 C409 2.138 . S
C1105 C445 1.961 . S
C1086 C69 2.003 . S
C1141 C505 1.703 . S
C1122 C137 1.665 . S
C1158 C199 0.240 . S
C1177 C506 0.424 . S
C1213 C475 1.848 . S
C1194 C433 1.750 . S
C1249 C536 0.492 . S
C1230 C51 0.265 . S
C1285 C463 1.596 . S
C1266 C113 1.657 . S
C1321 C477 2.020 . S
C1302 C217 2.072 . S
C1338 C261 2.072 . S
C1357 C526 2.086 . S
C1374 C347 0.659 . S
C1393 C473 0.680 . S
