# Generated by pormake.
# Topology pyr, (3,6)-cn, num edge types: 1
# Building blocks:
#     Node 0, Type 0, BuildingBlock: PAMTOO_clean_linker_0, # of connection points: 3
#     Node 1, Type 0, BuildingBlock: PAMTOO_clean_linker_0, # of connection points: 3
#     Node 2, Type 0, BuildingBlock: PAMTOO_clean_linker_0, # of connection points: 3
#     Node 3, Type 0, BuildingBlock: PAMTOO_clean_linker_0, # of connection points: 3
#     Node 4, Type 0, BuildingBlock: PAMTOO_clean_linker_0, # of connection points: 3
#     Node 5, Type 0, BuildingBlock: PAMTOO_clean_linker_0, # of connection points: 3
#     Node 6, Type 0, BuildingBlock: PAMTOO_clean_linker_0, # of connection points: 3
#     Node 7, Type 0, BuildingBlock: PAMTOO_clean_linker_0, # of connection points: 3
#     Node 8, Type 1, BuildingBlock: JUFBIX_clean_sbu_0, # of connection points: 6
#     Node 9, Type 1, BuildingBlock: JUFBIX_clean_sbu_0, # of connection points: 6
#     Node 10, Type 1, BuildingBlock: JUFBIX_clean_sbu_0, # of connection points: 6
#     Node 11, Type 1, BuildingBlock: JUFBIX_clean_sbu_0, # of connection points: 6
#     Edge 12, Type (0, 1), BuildingBlock: KIFKEQ_clean_linker_1, # of connection points: 2
#     Edge 13, Type (0, 1), BuildingBlock: KIFKEQ_clean_linker_1, # of connection points: 2
#     Edge 14, Type (0, 1), BuildingBlock: KIFKEQ_clean_linker_1, # of connection points: 2
#     Edge 15, Type (0, 1), BuildingBlock: KIFKEQ_clean_linker_1, # of connection points: 2
#     Edge 16, Type (0, 1), BuildingBlock: KIFKEQ_clean_linker_1, # of connection points: 2
#     Edge 17, Type (0, 1), BuildingBlock: KIFKEQ_clean_linker_1, # of connection points: 2
#     Edge 18, Type (0, 1), BuildingBlock: KIFKEQ_clean_linker_1, # of connection points: 2
#     Edge 19, Type (0, 1), BuildingBlock: KIFKEQ_clean_linker_1, # of connection points: 2
#     Edge 20, Type (0, 1), BuildingBlock: KIFKEQ_clean_linker_1, # of connection points: 2
#     Edge 21, Type (0, 1), BuildingBlock: KIFKEQ_clean_linker_1, # of connection points: 2
#     Edge 22, Type (0, 1), BuildingBlock: KIFKEQ_clean_linker_1, # of connection points: 2
#     Edge 23, Type (0, 1), BuildingBlock: KIFKEQ_clean_linker_1, # of connection points: 2
#     Edge 24, Type (0, 1), BuildingBlock: KIFKEQ_clean_linker_1, # of connection points: 2
#     Edge 25, Type (0, 1), BuildingBlock: KIFKEQ_clean_linker_1, # of connection points: 2
#     Edge 26, Type (0, 1), BuildingBlock: KIFKEQ_clean_linker_1, # of connection points: 2
#     Edge 27, Type (0, 1), BuildingBlock: KIFKEQ_clean_linker_1, # of connection points: 2
#     Edge 28, Type (0, 1), BuildingBlock: KIFKEQ_clean_linker_1, # of connection points: 2
#     Edge 29, Type (0, 1), BuildingBlock: KIFKEQ_clean_linker_1, # of connection points: 2
#     Edge 30, Type (0, 1), BuildingBlock: KIFKEQ_clean_linker_1, # of connection points: 2
#     Edge 31, Type (0, 1), BuildingBlock: KIFKEQ_clean_linker_1, # of connection points: 2
#     Edge 32, Type (0, 1), BuildingBlock: KIFKEQ_clean_linker_1, # of connection points: 2
#     Edge 33, Type (0, 1), BuildingBlock: KIFKEQ_clean_linker_1, # of connection points: 2
#     Edge 34, Type (0, 1), BuildingBlock: KIFKEQ_clean_linker_1, # of connection points: 2
#     Edge 35, Type (0, 1), BuildingBlock: KIFKEQ_clean_linker_1, # of connection points: 2
# Relax obj value: 0.123
# Max RMSD: 0.202
# Mean RMSD: 0.138
data_MOF--net-pyr--node1-JUFBIX_clean_sbu_0--node2-PAMTOO_clean_linker_0--edge1-KIFKEQ_clean_linker_1
_symmetry_space_group_name_H-M    P1
_symmetry_Int_Tables_number       1
_symmetry_cell_setting            triclinic
loop_
_symmetry_equiv_pos_as_xyz
'x, y, z'
_cell_length_a     36.846606
_cell_length_b     36.298732
_cell_length_c     37.714611
_cell_angle_alpha  81.98521
_cell_angle_beta   88.254982
_cell_angle_gamma 94.677623
loop_
_atom_site_label
_atom_site_type_symbol
_atom_site_fract_x
_atom_site_fract_y
_atom_site_fract_z
_atom_type_partial_charge
H0 H 0.16191 0.20001 0.24316 0.0
H1 H 0.24075 0.11794 0.2498 0.0
H2 H 0.24096 0.20042 0.1567 0.0
H3 H 0.25431 0.124 0.14445 0.0
C4 C 0.27218 0.11649 0.16716 0.0
O5 O 0.27452 0.14475 0.18833 0.0
H6 H 0.25929 0.0904 0.18323 0.0
C7 C 0.18414 0.18746 0.23138 0.0
C8 C 0.19863 0.20351 0.19714 0.0
C9 C 0.19852 0.15627 0.25094 0.0
C10 C 0.22904 0.14197 0.23582 0.0
C11 C 0.24451 0.15815 0.2021 0.0
C12 C 0.22919 0.18869 0.18292 0.0
H13 H 0.42564 0.9649 0.65784 0.0
H14 H 0.42483 0.87714 0.59221 0.0
H15 H 0.51245 0.89167 0.66214 0.0
H16 H 0.53358 0.86477 0.59264 0.0
C17 C 0.50695 0.84932 0.58888 0.0
O18 O 0.48353 0.85031 0.61772 0.0
H19 H 0.49547 0.86271 0.5638 0.0
C20 C 0.43927 0.94288 0.64777 0.0
C21 C 0.47165 0.93142 0.663 0.0
C22 C 0.42231 0.92364 0.62205 0.0
C23 C 0.43815 0.89306 0.61114 0.0
C24 C 0.47063 0.88197 0.62554 0.0
C25 C 0.48763 0.90132 0.65088 0.0
H26 H 0.76377 0.30486 0.94595 0.0
H27 H 0.68975 0.32691 0.8605 0.0
H28 H 0.77761 0.40801 0.87341 0.0
H29 H 0.71234 0.4435 0.85032 0.0
C30 C 0.69756 0.41952 0.83995 0.0
O31 O 0.72131 0.39279 0.83593 0.0
H32 H 0.67498 0.40796 0.85971 0.0
C33 C 0.75526 0.32257 0.92267 0.0
C34 C 0.77463 0.35746 0.9117 0.0
C35 C 0.72429 0.31112 0.90468 0.0
C36 C 0.71313 0.33515 0.87522 0.0
C37 C 0.73226 0.36999 0.86424 0.0
C38 C 0.76289 0.38108 0.88239 0.0
H39 H 0.93895 0.69621 0.49723 0.0
H40 H 0.96306 0.61451 0.42886 0.0
H41 H 0.04194 0.70519 0.43841 0.0
H42 H 0.05215 0.68615 0.36566 0.0
C43 C 0.02649 0.66747 0.37011 0.0
O44 O 0.02566 0.64854 0.40465 0.0
H45 H 1.00352 0.68562 0.36616 0.0
C46 C 0.95775 0.68462 0.48003 0.0
C47 C 0.99214 0.70395 0.47059 0.0
C48 C 0.94654 0.65229 0.46495 0.0
C49 C 0.97075 0.63924 0.44088 0.0
C50 C 1.00473 0.65854 0.43117 0.0
C51 C 1.01569 0.69023 0.4466 0.0
H52 H 0.83848 0.91486 0.85168 0.0
H53 H 0.8298 0.82041 0.93567 0.0
H54 H 0.91713 0.83262 0.85683 0.0
H55 H 0.8859 0.7575 0.87868 0.0
C56 C 0.88148 0.75784 0.90796 0.0
O57 O 0.88974 0.79354 0.91592 0.0
H58 H 0.85217 0.74917 0.91496 0.0
C59 C 0.84809 0.88891 0.864 0.0
C60 C 0.8799 0.87626 0.84951 0.0
C61 C 0.8293 0.86913 0.89506 0.0
C62 C 0.84347 0.83646 0.91196 0.0
C63 C 0.87536 0.82389 0.89838 0.0
C64 C 0.89312 0.84351 0.86723 0.0
H65 H 0.70822 0.12275 0.36687 0.0
H66 H 0.61863 0.19097 0.3473 0.0
H67 H 0.69261 0.21075 0.42974 0.0
H68 H 0.60695 0.19942 0.44258 0.0
C69 C 0.60322 0.22343 0.4215 0.0
O70 O 0.63342 0.23076 0.39828 0.0
H71 H 0.57892 0.216 0.40635 0.0
C72 C 0.69296 0.14558 0.37291 0.0
C73 C 0.70428 0.16583 0.40027 0.0
C74 C 0.66227 0.15441 0.35338 0.0
C75 C 0.64242 0.18355 0.36199 0.0
C76 C 0.65324 0.20348 0.38965 0.0
C77 C 0.68442 0.19506 0.40845 0.0
H78 H 0.34427 0.69452 0.12504 0.0
H79 H 0.32785 0.60689 0.21551 0.0
H80 H 0.41683 0.6904 0.21267 0.0
H81 H 0.43174 0.61017 0.22907 0.0
C82 C 0.40829 0.60112 0.24853 0.0
O83 O 0.3849 0.62896 0.24807 0.0
H84 H 0.39362 0.5758 0.2404 0.0
C85 C 0.35213 0.68122 0.15084 0.0
C86 C 0.38239 0.6971 0.16705 0.0
C87 C 0.33206 0.64843 0.16782 0.0
C88 C 0.34296 0.63169 0.20131 0.0
C89 C 0.37365 0.64658 0.21695 0.0
C90 C 0.39306 0.6793 0.20012 0.0
H91 H 0.08746 0.33394 0.69246 0.0
H92 H 0.10835 0.45255 0.66302 0.0
H93 H 0.11894 0.38026 0.58317 0.0
H94 H 0.15023 0.48781 0.62385 0.0
C95 C 0.15185 0.47801 0.59728 0.0
O96 O 0.12486 0.44963 0.59492 0.0
H97 H 0.1459 0.50236 0.57768 0.0
C98 C 0.09519 0.35781 0.67224 0.0
C99 C 0.10142 0.35262 0.63635 0.0
C100 C 0.0984 0.39375 0.68213 0.0
C101 C 0.10704 0.42468 0.65572 0.0
C102 C 0.11624 0.41973 0.62043 0.0
C103 C 0.11365 0.38367 0.61089 0.0
Co104 Co 1.0186 0.03223 0.54467 0.0
C105 C 0.04138 0.96055 0.54089 0.0
Co106 Co 0.0712 0.02124 0.5683 0.0
C107 C 0.95871 0.06695 0.5073 0.0
C108 C 0.94735 0.00867 0.52677 0.0
N109 N 0.97355 0.03721 0.52502 0.0
N110 N 0.92464 0.05753 0.4975 0.0
C111 C 0.9175 0.02098 0.50969 0.0
H112 H 0.97255 0.09472 0.50157 0.0
H113 H 0.94954 0.98061 0.54009 0.0
C114 C 0.04937 0.09308 0.57172 0.0
N115 N 0.11512 0.01515 0.58941 0.0
C116 C 0.14511 1.00113 0.57717 0.0
C117 C 0.12301 0.02275 0.62248 0.0
N118 N 0.17106 0.99923 0.60163 0.0
C119 C 0.15731 0.01274 0.63016 0.0
C120 C 0.07747 0.05096 0.49551 0.0
O121 O 1.02076 0.08192 0.5568 0.0
O122 O 0.07379 0.07076 0.57878 0.0
O123 O 0.09564 0.03913 0.5224 0.0
O124 O 0.04297 0.05073 0.49943 0.0
O125 O 0.06872 0.97127 0.5577 0.0
H126 H 0.10475 0.03438 0.6401 0.0
H127 H 0.14747 0.99152 0.55135 0.0
O128 O 1.01742 0.98304 0.53257 0.0
O129 O 0.99415 0.01328 0.58981 0.0
O130 O 0.04633 1.00354 0.61379 0.0
C131 C 1.01181 1.00196 0.617 0.0
H132 H 0.89205 1.00458 0.50716 0.0
H133 H 0.17116 0.01517 0.65475 0.0
Co134 Co 0.53858 1.00107 1.00353 0.0
C135 C 0.52248 0.93804 0.05435 0.0
Co136 Co 0.56838 1.00216 0.05332 0.0
C137 C 0.52526 1.00326 0.92848 0.0
C138 C 0.47578 0.99524 0.96091 0.0
N139 N 0.51232 1.00011 0.96271 0.0
N140 N 0.49825 1.00052 0.90539 0.0
C141 C 0.46705 0.9956 0.92569 0.0
H142 H 0.55397 0.00721 0.92066 0.0
H143 H 0.45673 0.99091 0.9838 0.0
C144 C 0.58465 0.06516 1.0027 0.0
N145 N 0.59519 1.00346 0.09436 0.0
C146 C 0.5845 0.01228 0.12652 0.0
C147 C 0.63111 0.99915 0.09717 0.0
N148 N 0.61228 0.01382 0.14892 0.0
C149 C 0.64158 1.00531 0.13055 0.0
C150 C 0.60522 0.97038 1.00005 0.0
O151 O 0.56177 0.04869 0.98432 0.0
O152 O 0.59129 0.04961 0.03387 0.0
O153 O 0.60636 0.97871 0.03161 0.0
O154 O 0.57718 0.97723 0.98226 0.0
O155 O 0.54543 0.95467 0.07254 0.0
H156 H 0.64932 0.99379 0.07589 0.0
H157 H 0.55716 0.01859 0.13316 0.0
O158 O 0.51556 0.95346 0.02317 0.0
O159 O 0.50026 0.02481 0.02492 0.0
O160 O 0.52965 0.02565 0.07428 0.0
C161 C 0.50162 0.03287 0.05663 0.0
H162 H 0.43994 0.99104 0.91596 0.0
H163 H 0.66916 0.00594 0.13967 0.0
Co164 Co 0.57821 0.53212 0.53405 0.0
C165 C 0.51935 0.53655 0.48856 0.0
Co166 Co 0.52499 0.50725 0.55904 0.0
C167 C 0.65612 0.55047 0.51428 0.0
C168 C 0.62101 0.58969 0.48937 0.0
N169 N 0.62064 0.55726 0.51179 0.0
N170 N 0.67835 0.57734 0.49392 0.0
C171 C 0.65618 0.60196 0.47833 0.0
H172 H 0.66541 0.52646 0.53071 0.0
H173 H 0.59717 0.60408 0.48205 0.0
C174 C 0.5839 0.50264 0.60446 0.0
N175 N 0.48179 0.48309 0.58086 0.0
C176 C 0.44713 0.48951 0.57286 0.0
C177 C 0.47848 0.45367 0.60728 0.0
N178 N 0.42248 0.46536 0.59324 0.0
C179 C 0.44211 0.44291 0.6151 0.0
C180 C 0.5664 0.45894 0.52607 0.0
O181 O 0.60267 0.51891 0.57701 0.0
O182 O 0.54973 0.49564 0.60221 0.0
O183 O 0.53716 0.46161 0.54409 0.0
O184 O 0.58917 0.48738 0.51821 0.0
O185 O 0.50101 0.51916 0.51567 0.0
H186 H 0.50105 0.44034 0.61964 0.0
H187 H 0.44004 0.5115 0.55247 0.0
O188 O 0.55319 0.54488 0.49117 0.0
O189 O 0.56694 0.57658 0.55005 0.0
O190 O 0.51333 0.55339 0.57356 0.0
C191 C 0.53741 0.58086 0.5665 0.0
H192 H 0.66483 0.62772 0.46099 0.0
H193 H 0.43096 0.41971 0.63463 0.0
Co194 Co 0.06829 0.48909 0.02316 0.0
C195 C 0.99804 0.45301 0.02883 0.0
Co196 Co 0.03901 0.48971 0.07505 0.0
C197 C 0.08449 0.46441 0.95502 0.0
C198 C 0.11856 0.51308 0.96247 0.0
N199 N 0.09174 0.48838 0.97881 0.0
N200 N 0.10556 0.47323 0.92467 0.0
C201 C 0.12723 0.5037 0.92932 0.0
H202 H 0.06391 0.44105 0.95958 0.0
H203 H 0.13044 0.53707 0.97339 0.0
C204 C 0.10903 0.52608 0.06952 0.0
N205 N 1.01589 0.49066 0.11914 0.0
C206 C 1.01975 0.51836 0.13947 0.0
C207 C 0.9941 0.46342 0.13914 0.0
N208 N 1.00166 0.50952 0.1716 0.0
C209 C 0.98532 0.47491 0.17141 0.0
C210 C 0.08052 0.42862 0.0744 0.0
O211 O 0.10925 0.51756 0.03802 0.0
O212 O 0.08106 0.5162 0.09015 0.0
O213 O 0.05824 0.44377 0.09312 0.0
O214 O 0.08899 0.44388 0.04237 0.0
O215 O 0.99714 0.46324 0.05967 0.0
H216 H 0.98594 0.43657 0.13116 0.0
H217 H 0.03688 0.54398 0.13131 0.0
O218 O 0.02689 0.46079 1.009 0.0
O219 O 0.04738 0.5342 1.00442 0.0
O220 O 1.01992 0.5357 0.05653 0.0
C221 C 0.02657 0.55011 0.024 0.0
H222 H 0.14683 0.51901 0.90955 0.0
H223 H 0.96862 0.45875 0.19313 0.0
H224 H 0.12618 0.15131 0.27369 0.0
H225 H 0.23124 0.12127 0.31035 0.0
H226 H 0.09872 0.12735 0.33204 0.0
H227 H 0.2029 0.09358 0.36797 0.0
H228 H 0.1489 0.07809 0.48059 0.0
H229 H 0.17826 0.10286 0.42234 0.0
H230 H 0.07757 0.0768 0.37136 0.0
H231 H 0.04803 0.05465 0.42972 0.0
C232 C 0.14364 0.13956 0.29409 0.0
C233 C 0.18133 0.13896 0.28684 0.0
C234 C 0.12753 0.12489 0.32775 0.0
C235 C 0.14822 0.10805 0.35537 0.0
C236 C 0.18583 0.10673 0.34795 0.0
C237 C 0.20214 0.12215 0.31438 0.0
C238 C 0.13311 0.0778 0.45686 0.0
C239 C 0.09602 0.06468 0.4599 0.0
C240 C 0.15003 0.09178 0.42322 0.0
C241 C 0.13054 0.0923 0.39151 0.0
C242 C 0.09358 0.07813 0.3948 0.0
C243 C 0.07653 0.06501 0.42843 0.0
H244 H 0.4742 1.00441 0.67577 0.0
H245 H 0.49971 0.89439 0.72275 0.0
H246 H 0.48727 0.0277 0.73223 0.0
H247 H 0.51376 0.91798 0.77822 0.0
H248 H 0.55278 0.97284 0.87043 0.0
H249 H 0.5546 0.96242 0.80781 0.0
H250 H 0.45303 0.0129 0.79249 0.0
H251 H 0.45152 0.02376 0.85493 0.0
C252 C 0.48312 0.98534 0.69784 0.0
C253 C 0.48562 0.94743 0.69469 0.0
C254 C 0.49072 0.99873 0.73006 0.0
C255 C 0.50143 0.97461 0.75957 0.0
C256 C 0.50607 0.93736 0.75575 0.0
C257 C 0.49809 0.92387 0.72378 0.0
C258 C 0.53134 0.98253 0.85345 0.0
C259 C 0.50179 0.99877 0.8676 0.0
C260 C 0.53228 0.97637 0.81771 0.0
C261 C 0.50388 0.98669 0.79539 0.0
C262 C 0.47545 1.00492 0.80899 0.0
C263 C 0.47435 0.01075 0.8448 0.0
H264 H 0.71612 0.48385 0.79326 0.0
H265 H 0.64437 0.38251 0.80662 0.0
H266 H 0.68938 0.50427 0.73598 0.0
H267 H 0.61803 0.40227 0.74901 0.0
H268 H 0.55083 0.46863 0.66758 0.0
H269 H 0.57911 0.44889 0.72368 0.0
H270 H 0.68492 0.4901 0.67487 0.0
H271 H 0.65646 0.51065 0.61868 0.0
C272 C 0.69462 0.46599 0.7838 0.0
C273 C 0.68171 0.43199 0.80447 0.0
C274 C 0.67951 0.47748 0.75093 0.0
C275 C 0.65136 0.45504 0.73804 0.0
C276 C 0.63915 0.42057 0.75849 0.0
C277 C 0.65424 0.40915 0.79133 0.0
C278 C 0.58013 0.47359 0.66875 0.0
C279 C 0.60139 0.49123 0.63862 0.0
C280 C 0.59638 0.46201 0.70089 0.0
C281 C 0.6343 0.46771 0.70374 0.0
C282 C 0.65559 0.48561 0.67368 0.0
C283 C 0.6393 0.49723 0.64144 0.0
H284 H 0.97242 0.61226 0.36499 0.0
H285 H 0.07372 0.66385 0.31349 0.0
H286 H 0.96515 0.57268 0.31767 0.0
H287 H 0.06648 0.62457 0.26614 0.0
H288 H 1.01657 0.58452 0.16723 0.0
H289 H 0.02309 0.62068 0.21663 0.0
H290 H 0.9949 0.52094 0.29214 0.0
H291 H 0.98911 0.48434 0.24273 0.0
C292 C 0.99341 0.61457 0.3439 0.0
C293 C 0.02385 0.64066 0.34309 0.0
C294 C 0.98924 0.59205 0.31682 0.0
C295 C 1.01517 0.59569 0.28816 0.0
C296 C 0.04586 0.62146 0.2877 0.0
C297 C 0.05016 0.64371 0.3149 0.0
C298 C 1.01203 0.5701 0.19429 0.0
C299 C 1.0027 0.53132 0.20085 0.0
C300 C 1.01575 0.5909 0.22262 0.0
C301 C 1.0099 0.57355 0.25823 0.0
C302 C 0.99943 0.53506 0.26492 0.0
C303 C 0.99599 0.51413 0.23654 0.0
H304 H 0.3064 0.14511 0.10213 0.0
H305 H 0.32202 0.07174 0.19951 0.0
H306 H 0.36339 0.1284 0.0761 0.0
H307 H 0.37878 0.05435 0.1735 0.0
H308 H 0.4936 0.05004 0.12512 0.0
H309 H 0.44103 0.07389 0.15259 0.0
H310 H 0.38556 0.0753 0.05324 0.0
H311 H 0.43817 0.05207 0.02573 0.0
C312 C 0.32223 0.12558 0.11805 0.0
C313 C 0.30951 0.10936 0.15268 0.0
C314 C 0.35478 0.11572 0.10306 0.0
C315 C 0.37567 0.08955 0.1224 0.0
C316 C 0.36369 0.0747 0.15776 0.0
C317 C 0.33107 0.08454 0.1727 0.0
C318 C 0.47029 0.05568 0.10904 0.0
C319 C 0.47027 0.04906 0.07312 0.0
C320 C 0.43997 0.06918 0.1249 0.0
C321 C 0.40881 0.07662 0.10526 0.0
C322 C 0.40912 0.0705 0.06918 0.0
C323 C 0.43933 0.0569 0.05338 0.0
H324 H 0.36176 0.87556 0.62274 0.0
H325 H 0.40056 0.99195 0.59591 0.0
H326 H 0.29946 0.89121 0.61157 0.0
H327 H 0.33806 0.00754 0.58441 0.0
H328 H 0.21921 0.01244 0.54503 0.0
H329 H 0.28122 0.99186 0.54305 0.0
H330 H 0.26236 0.93248 0.6503 0.0
H331 H 0.20113 0.95362 0.65239 0.0
C332 C 0.35704 0.90433 0.61354 0.0
C333 C 0.38581 0.93263 0.61025 0.0
C334 C 0.32148 0.91324 0.60731 0.0
C335 C 0.3142 0.9505 0.59719 0.0
C336 C 0.34317 0.97857 0.5919 0.0
C337 C 0.37874 0.96973 0.59869 0.0
C338 C 0.2284 0.9946 0.56784 0.0
C339 C 0.20583 0.98465 0.59893 0.0
C340 C 0.26367 0.98302 0.56679 0.0
C341 C 0.27626 0.96056 0.59648 0.0
C342 C 0.25307 0.94951 0.62697 0.0
C343 C 0.21829 0.96174 0.62829 0.0
H344 H 0.78904 0.42357 0.93718 0.0
H345 H 0.83292 0.31806 0.92978 0.0
H346 H 0.84289 0.44365 0.9683 0.0
H347 H 0.88693 0.33824 0.96079 0.0
H348 H 0.99433 0.41549 0.97098 0.0
H349 H 0.93964 0.39001 0.9448 0.0
H350 H 0.87294 0.42421 0.02837 0.0
H351 H 0.92766 0.44944 0.05491 0.0
C352 C 0.81025 0.40474 0.94222 0.0
C353 C 0.80695 0.36934 0.93105 0.0
C354 C 0.84084 0.41607 0.96026 0.0
C355 C 0.86895 0.39243 0.96698 0.0
C356 C 0.86566 0.35701 0.95582 0.0
C357 C 0.83478 0.34544 0.93828 0.0
C358 C 0.96804 0.4172 0.98402 0.0
C359 C 0.96528 0.43455 1.01497 0.0
C360 C 0.93679 0.40249 0.9691 0.0
C361 C 0.90213 0.40532 0.9845 0.0
C362 C 0.89936 0.42195 1.01585 0.0
C363 C 0.93067 0.43616 0.03112 0.0
H364 H 0.90302 0.6221 0.41685 0.0
H365 H 0.90331 0.64235 0.52716 0.0
H366 H 0.8402 0.59648 0.42543 0.0
H367 H 0.8391 0.61892 0.53496 0.0
H368 H 0.72673 0.55352 0.54339 0.0
H369 H 0.7933 0.56578 0.53791 0.0
H370 H 0.78442 0.62346 0.43065 0.0
H371 H 0.71892 0.60988 0.43567 0.0
C372 C 0.88994 0.62069 0.44316 0.0
C373 C 0.90851 0.63443 0.47131 0.0
C374 C 0.85355 0.60644 0.4479 0.0
C375 C 0.83433 0.60608 0.48073 0.0
C376 C 0.85309 0.61858 0.50935 0.0
C377 C 0.88979 0.63253 0.50471 0.0
C378 C 0.73923 0.56812 0.51847 0.0
C379 C 0.71757 0.58099 0.49006 0.0
C380 C 0.77728 0.57553 0.51545 0.0
C381 C 0.79429 0.59569 0.48386 0.0
C382 C 0.77249 0.60743 0.45521 0.0
C383 C 0.73476 0.60005 0.45823 0.0
H384 H 0.12585 0.2138 0.19259 0.0
H385 H 0.23211 0.26593 0.15461 0.0
H386 H 0.09756 0.26686 0.16183 0.0
H387 H 0.20358 0.31901 0.12336 0.0
H388 H 0.13548 0.3933 0.04581 0.0
H389 H 0.16405 0.33846 0.07357 0.0
H390 H 0.0925 0.33223 0.16742 0.0
H391 H 0.06385 0.38656 0.13971 0.0
C392 C 0.14329 0.23667 0.17788 0.0
C393 C 0.18143 0.23554 0.17657 0.0
C394 C 0.12698 0.26716 0.16012 0.0
C395 C 0.14821 0.29749 0.14026 0.0
C396 C 0.18629 0.29604 0.13811 0.0
C397 C 0.20269 0.26552 0.15606 0.0
C398 C 0.12571 0.38008 0.07229 0.0
C399 C 0.09724 0.3944 0.09043 0.0
C400 C 0.14229 0.34877 0.08832 0.0
C401 C 0.13062 0.33076 0.12278 0.0
C402 C 0.10194 0.34496 0.1407 0.0
C403 C 0.08558 0.37633 0.12482 0.0
H404 H 0.7511 0.24447 0.92936 0.0
H405 H 0.65011 0.29474 0.90829 0.0
H406 H 0.71682 0.18528 0.95252 0.0
H407 H 0.61596 0.23517 0.93071 0.0
H408 H 0.57196 0.11028 0.94061 0.0
H409 H 0.60553 0.16958 0.91558 0.0
H410 H 0.67509 0.16124 1.00594 0.0
H411 H 0.64176 0.10213 0.03095 0.0
C412 C 0.72161 0.24299 0.92976 0.0
C413 C 0.70341 0.27451 0.91713 0.0
C414 C 0.702 0.20903 0.94295 0.0
C415 C 0.66373 0.20568 0.94355 0.0
C416 C 0.64547 0.23686 0.93024 0.0
C417 C 0.66507 0.27095 0.91731 0.0
C418 C 0.59436 0.12116 0.95515 0.0
C419 C 0.60419 0.1015 0.98776 0.0
C420 C 0.61347 0.15515 0.94089 0.0
C421 C 0.643 0.16992 0.95875 0.0
C422 C 0.65273 0.1503 0.99137 0.0
C423 C 0.63346 0.11656 1.00579 0.0
H424 H 1.01642 0.76861 0.4285 0.0
H425 H 0.98934 0.72226 0.53875 0.0
H426 H 0.03064 0.83003 0.44645 0.0
H427 H 1.00399 0.78413 0.55685 0.0
H428 H 0.07309 0.89796 0.57006 0.0
H429 H 0.06254 0.8345 0.55452 0.0
H430 H 0.98867 0.87426 0.47405 0.0
H431 H 0.99855 0.93706 0.48976 0.0
C432 C 1.01395 0.77152 0.45665 0.0
C433 C 1.0019 0.7407 0.48229 0.0
C434 C 0.02191 0.80667 0.46687 0.0
C435 C 1.01844 0.81172 0.503 0.0
C436 C 1.00713 0.78082 0.52885 0.0
C437 C 0.99854 0.74561 0.51851 0.0
C438 C 0.05473 0.89307 0.54899 0.0
C439 C 0.0367 0.92245 0.53108 0.0
C440 C 0.04853 0.85682 0.5403 0.0
C441 C 0.02485 0.84964 0.51308 0.0
C442 C 1.00724 0.87912 0.49498 0.0
C443 C 1.01286 0.91503 0.50406 0.0
H444 H 0.46559 0.8016 0.55338 0.0
H445 H 0.55722 0.8066 0.62153 0.0
H446 H 0.47097 0.73487 0.55276 0.0
H447 H 0.56239 0.73986 0.62158 0.0
H448 H 0.58913 0.63754 0.56925 0.0
H449 H 0.58063 0.70143 0.57702 0.0
H450 H 0.46443 0.67333 0.59213 0.0
H451 H 0.47296 0.60869 0.58374 0.0
C452 C 0.48708 0.78833 0.56789 0.0
C453 C 0.51184 0.80919 0.58645 0.0
C454 C 0.48981 0.75016 0.56804 0.0
C455 C 0.51717 0.73221 0.58703 0.0
C456 C 0.54139 0.75307 0.60626 0.0
C457 C 0.53862 0.79119 0.6061 0.0
C458 C 0.56173 0.64477 0.57457 0.0
C459 C 0.53164 0.61817 0.57565 0.0
C460 C 0.55692 0.6814 0.57927 0.0
C461 C 0.52188 0.69241 0.58508 0.0
C462 C 0.49174 0.66561 0.58731 0.0
C463 C 0.49661 0.62864 0.58282 0.0
H464 H 0.85068 0.91634 0.79104 0.0
H465 H 0.95365 0.88385 0.83142 0.0
H466 H 0.88205 0.94947 0.73705 0.0
H467 H 0.98445 0.91362 0.77603 0.0
H468 H 0.03849 0.99462 0.68439 0.0
H469 H 1.00665 0.96753 0.74072 0.0
H470 H 0.90966 0.94338 0.68328 0.0
H471 H 0.94101 0.9727 0.62757 0.0
C472 C 0.88 0.91614 0.78859 0.0
C473 C 0.89932 0.89704 0.81605 0.0
C474 C 0.89808 0.9347 0.75705 0.0
C475 C 0.93606 0.93427 0.7515 0.0
C476 C 0.95536 0.91531 0.77907 0.0
C477 C 0.9374 0.8974 0.81087 0.0
C478 C 1.01027 0.98372 0.68394 0.0
C479 C 0.99229 0.98592 0.65149 0.0
C480 C 0.99196 0.9678 0.71629 0.0
C481 C 0.95532 0.95281 0.71706 0.0
C482 C 0.93748 0.95514 0.68435 0.0
C483 C 0.95558 0.97178 0.65216 0.0
H484 H 0.70672 0.13238 0.30283 0.0
H485 H 0.59344 0.12826 0.3377 0.0
H486 H 0.69008 0.09409 0.25693 0.0
H487 H 0.57668 0.0902 0.29094 0.0
H488 H 0.56974 0.06484 0.17057 0.0
H489 H 0.57834 0.09696 0.2228 0.0
H490 H 0.66506 0.02811 0.25534 0.0
H491 H 0.65633 0.99584 0.20332 0.0
C492 C 0.67826 0.12307 0.30084 0.0
C493 C 0.65143 0.13299 0.32414 0.0
C494 C 0.66875 0.10109 0.27458 0.0
C495 C 0.63217 0.08871 0.27081 0.0
C496 C 0.6051 0.09938 0.29338 0.0
C497 C 0.61467 0.12127 0.31995 0.0
C498 C 0.58995 0.05586 0.18937 0.0
C499 C 0.61279 0.0282 0.18257 0.0
C500 C 0.5949 0.07433 0.21922 0.0
C501 C 0.62279 0.06544 0.24266 0.0
C502 C 0.64388 0.03604 0.2372 0.0
C503 C 0.6389 0.01759 0.20748 0.0
H504 H 0.45625 0.64484 0.28151 0.0
H505 H 0.39205 0.53864 0.29823 0.0
H506 H 0.48146 0.63079 0.34068 0.0
H507 H 0.41776 0.52395 0.35701 0.0
H508 H 0.44741 0.5242 0.47379 0.0
H509 H 0.41887 0.54136 0.41694 0.0
H510 H 0.52328 0.58891 0.36899 0.0
H511 H 0.5516 0.57257 0.4258 0.0
C512 C 0.44767 0.61848 0.29797 0.0
C513 C 0.42265 0.59263 0.28536 0.0
C514 C 0.46216 0.61031 0.33168 0.0
C515 C 0.45184 0.5761 0.35345 0.0
C516 C 0.42605 0.55066 0.34106 0.0
C517 C 0.41152 0.5589 0.30736 0.0
C518 C 0.46422 0.53841 0.45111 0.0
C519 C 0.50178 0.54698 0.4543 0.0
C520 C 0.4479 0.54808 0.41851 0.0
C521 C 0.46879 0.56654 0.38843 0.0
C522 C 0.5063 0.57523 0.39175 0.0
C523 C 0.52258 0.56561 0.42429 0.0
H524 H 0.05486 0.43983 0.71157 0.0
H525 H 0.1346 0.36073 0.73797 0.0
H526 H 0.05459 0.45428 0.77315 0.0
H527 H 0.13475 0.37556 0.79941 0.0
H528 H 0.16102 0.46318 0.8797 0.0
H529 H 0.15638 0.43852 0.82263 0.0
H530 H 0.03948 0.42115 0.83943 0.0
H531 H 0.04422 0.44544 0.89675 0.0
C532 C 0.07193 0.42523 0.73073 0.0
C533 C 0.09473 0.39919 0.72018 0.0
C534 C 0.07168 0.43335 0.76589 0.0
C535 C 0.09475 0.41609 0.79087 0.0
C536 C 0.11683 0.38931 0.78057 0.0
C537 C 0.11656 0.38068 0.74559 0.0
C538 C 0.13443 0.45376 0.87127 0.0
C539 C 0.10301 0.4562 0.89252 0.0
C540 C 0.13178 0.43945 0.83884 0.0
C541 C 0.09757 0.42797 0.82674 0.0
C542 C 0.06615 0.42989 0.8482 0.0
C543 C 0.06888 0.44354 0.881 0.0
H544 H 0.77496 0.9046 0.85864 0.0
H545 H 0.80613 0.86506 0.96588 0.0
H546 H 0.72135 0.92868 0.88322 0.0
H547 H 0.75129 0.88648 0.99021 0.0
H548 H 0.67252 0.96359 0.02745 0.0
H549 H 0.72522 0.93963 1.00175 0.0
H550 H 0.66298 0.91522 0.91124 0.0
H551 H 0.61035 0.94105 0.93654 0.0
C552 C 0.7705 0.90091 0.88747 0.0
C553 C 0.79541 0.88289 0.91009 0.0
C554 C 0.73922 0.91427 0.90162 0.0
C555 C 0.7316 0.9098 0.93889 0.0
C556 C 0.75623 0.89123 0.96143 0.0
C557 C 0.78765 0.87827 0.94733 0.0
C558 C 0.66988 0.95306 1.0021 0.0
C559 C 0.63695 0.95424 0.98422 0.0
C560 C 0.70026 0.93895 0.98735 0.0
C561 C 0.69873 0.92501 0.95435 0.0
C562 C 0.66564 0.92605 0.93645 0.0
C563 C 0.63524 0.94063 0.9511 0.0
H564 H 0.76589 0.2104 0.4096 0.0
H565 H 0.71579 0.09767 0.43448 0.0
H566 H 0.82376 0.18934 0.43235 0.0
H567 H 0.77286 0.07682 0.45734 0.0
H568 H 0.88339 0.04075 0.44406 0.0
H569 H 0.83094 0.07228 0.42201 0.0
H570 H 0.85484 0.15761 0.48915 0.0
H571 H 0.90817 0.12577 0.51095 0.0
C572 C 0.76711 0.18138 0.42075 0.0
C573 C 0.73677 0.15544 0.41995 0.0
C574 C 0.8001 0.16937 0.43361 0.0
C575 C 0.8029 0.13134 0.44571 0.0
C576 C 0.77169 0.10613 0.44724 0.0
C577 C 0.73902 0.11803 0.4344 0.0
C578 C 0.87781 0.06666 0.45349 0.0
C579 C 0.8993 0.08071 0.47939 0.0
C580 C 0.84776 0.08456 0.44113 0.0
C581 C 0.83833 0.11677 0.45468 0.0
C582 C 0.86147 0.13266 0.4785 0.0
C583 C 0.89193 0.11466 0.4908 0.0
H584 H 0.28106 0.68412 0.12685 0.0
H585 H 0.30995 0.57402 0.17003 0.0
H586 H 0.22759 0.65569 0.1008 0.0
H587 H 0.25529 0.54634 0.1459 0.0
H588 H 0.12681 0.52747 0.13882 0.0
H589 H 0.18153 0.55809 0.1608 0.0
H590 H 0.21847 0.60115 0.05219 0.0
H591 H 0.16412 0.56959 0.02984 0.0
C592 C 0.27634 0.65398 0.13064 0.0
C593 C 0.2999 0.63148 0.1509 0.0
C594 C 0.24558 0.63783 0.11588 0.0
C595 C 0.23744 0.599 0.12169 0.0
C596 C 0.26095 0.57644 0.14147 0.0
C597 C 0.29206 0.59243 0.15553 0.0
C598 C 0.14651 0.54356 0.1196 0.0
C599 C 0.14131 0.54606 0.08261 0.0
C600 C 0.17777 0.56093 0.13219 0.0
C601 C 0.20396 0.58181 0.1081 0.0
C602 C 0.19846 0.58521 0.07117 0.0
C603 C 0.16753 0.56709 0.05848 0.0
H604 H 0.18849 0.42282 0.63508 0.0
H605 H 0.20229 0.51191 0.54592 0.0
H606 H 0.25327 0.41455 0.63083 0.0
H607 H 0.26733 0.50567 0.54314 0.0
H608 H 0.38348 0.478 0.53384 0.0
H609 H 0.31725 0.47401 0.53076 0.0
H610 H 0.30711 0.44505 0.64609 0.0
H611 H 0.37316 0.44734 0.64852 0.0
C612 C 0.20517 0.44001 0.61396 0.0
C613 C 0.19007 0.46757 0.5904 0.0
C614 C 0.24258 0.43583 0.61196 0.0
C615 C 0.26597 0.45979 0.58697 0.0
C616 C 0.25044 0.48628 0.56244 0.0
C617 C 0.213 0.48998 0.56407 0.0
C618 C 0.36693 0.47077 0.55843 0.0
C619 C 0.38339 0.46314 0.59143 0.0
C620 C 0.32893 0.4685 0.55676 0.0
C621 C 0.30646 0.45923 0.58818 0.0
C622 C 0.3232 0.45142 0.62117 0.0
C623 C 0.36114 0.45303 0.6227 0.0
H624 H 0.95386 0.74981 0.89482 0.0
H625 H 0.86267 0.70437 0.96622 0.0
H626 H 0.99133 0.70269 0.92417 0.0
H627 H 0.89946 0.65671 0.99508 0.0
H628 H 0.98155 0.59148 0.05858 0.0
H629 H 0.94916 0.64411 0.03275 0.0
H630 H 0.99744 0.63699 0.92837 0.0
H631 H 0.03049 0.58497 0.95439 0.0
C632 C 0.94195 0.72978 0.91694 0.0
C633 C 0.90532 0.73056 0.92805 0.0
C634 C 0.96326 0.70258 0.93361 0.0
C635 C 0.94848 0.6755 0.96193 0.0
C636 C 0.91205 0.67718 0.97369 0.0
C637 C 0.89081 0.7044 0.95702 0.0
C638 C 0.98552 0.60132 0.03016 0.0
C639 C 1.00864 0.5838 1.00861 0.0
C640 C 0.9667 0.63143 1.01525 0.0
C641 C 0.97036 0.64489 0.97832 0.0
C642 C 0.99416 0.62785 0.95695 0.0
C643 C 1.01304 0.59778 0.97187 0.0
H644 H 0.40653 0.75725 0.19853 0.0
H645 H 0.40461 0.71629 0.0964 0.0
H646 H 0.44089 0.81466 0.17065 0.0
H647 H 0.4394 0.77369 0.06842 0.0
H648 H 0.46766 0.89811 0.02526 0.0
H649 H 0.43392 0.83979 0.05196 0.0
H650 H 0.50041 0.83701 0.14457 0.0
H651 H 0.53351 0.89577 0.11831 0.0
C652 C 0.41375 0.76041 0.17015 0.0
C653 C 0.40293 0.73221 0.14968 0.0
C654 C 0.43352 0.79328 0.15416 0.0
C655 C 0.4431 0.79874 0.11731 0.0
C656 C 0.4321 0.7706 0.09678 0.0
C657 C 0.41218 0.73771 0.11278 0.0
C658 C 0.47517 0.88498 0.05127 0.0
C659 C 0.50319 0.90168 0.06972 0.0
C660 C 0.45594 0.85143 0.0665 0.0
C661 C 0.46433 0.83376 0.10049 0.0
C662 C 0.4928 0.85018 0.11863 0.0
C663 C 0.51195 0.88377 0.10346 0.0
H664 H 0.04124 0.30412 0.65499 0.0
H665 H 0.14274 0.31683 0.59241 0.0
H666 H 0.02746 0.24233 0.63756 0.0
H667 H 0.12873 0.25509 0.57463 0.0
H668 H 0.11216 0.12641 0.59295 0.0
H669 H 0.12383 0.18962 0.60656 0.0
H670 H 1.01303 0.21135 0.58287 0.0
H671 H 1.0011 0.14748 0.56902 0.0
C672 C 0.06066 0.29363 0.63759 0.0
C673 C 0.09327 0.31517 0.62535 0.0
C674 C 0.05253 0.25846 0.62727 0.0
C675 C 0.07699 0.24386 0.60475 0.0
C676 C 0.10947 0.26552 0.59224 0.0
C677 C 0.11742 0.3009 0.60226 0.0
C678 C 0.09015 0.14454 0.59057 0.0
C679 C 0.0556 0.1318 0.57997 0.0
C680 C 0.09701 0.18092 0.59814 0.0
C681 C 0.06945 0.20552 0.59563 0.0
C682 C 0.03477 0.19289 0.58519 0.0
C683 C 0.02796 0.15642 0.57718 0.0
H684 H 0.59746 0.2938 0.38735 0.0
H685 H 0.59466 0.22974 0.49295 0.0
H686 H 0.58927 0.35044 0.41401 0.0
H687 H 0.58618 0.28635 0.5197 0.0
H688 H 0.52897 0.39061 0.54543 0.0
H689 H 0.53782 0.33292 0.521 0.0
H690 H 0.6272 0.38976 0.45262 0.0
H691 H 0.61855 0.44741 0.47694 0.0
C692 C 0.59513 0.29199 0.41626 0.0
C693 C 0.59715 0.25771 0.43818 0.0
C694 C 0.59058 0.32427 0.43148 0.0
C695 C 0.58741 0.32269 0.46888 0.0
C696 C 0.58849 0.28822 0.49079 0.0
C697 C 0.59344 0.25596 0.47555 0.0
C698 C 0.55064 0.39072 0.52534 0.0
C699 C 0.573 0.42354 0.51301 0.0
C700 C 0.55576 0.35771 0.5115 0.0
C701 C 0.58303 0.35706 0.48484 0.0
C702 C 0.60572 0.38969 0.4729 0.0
C703 C 0.60088 0.42258 0.48698 0.0
loop_
_geom_bond_atom_site_label_1
_geom_bond_atom_site_label_2
_geom_bond_distance
_geom_bond_site_symmetry_2
_ccdc_geom_bond_type
H0 C7 0.929 . S
H1 C10 0.930 . S
H2 C12 0.929 . S
H3 C4 0.969 . S
C4 H3 0.969 . S
C4 O5 1.550 . S
C4 H6 0.973 . S
O5 C4 1.550 . S
O5 C11 1.412 . S
H6 C4 0.973 . S
C7 H0 0.929 . S
C7 C8 1.400 . S
C7 C9 1.364 . S
C8 C7 1.400 . S
C8 C12 1.377 . S
C9 C7 1.364 . S
C9 C10 1.374 . S
C10 H1 0.930 . S
C10 C9 1.374 . S
C10 C11 1.383 . S
C11 O5 1.412 . S
C11 C10 1.383 . S
C11 C12 1.394 . S
C12 H2 0.929 . S
C12 C8 1.377 . S
C12 C11 1.394 . S
H13 C20 0.929 . S
H14 C23 0.930 . S
H15 C25 0.929 . S
H16 C17 0.969 . S
C17 H16 0.969 . S
C17 O18 1.550 . S
C17 H19 0.973 . S
O18 C17 1.550 . S
O18 C24 1.412 . S
H19 C17 0.973 . S
C20 H13 0.929 . S
C20 C21 1.400 . S
C20 C22 1.364 . S
C21 C20 1.400 . S
C21 C25 1.377 . S
C22 C20 1.364 . S
C22 C23 1.374 . S
C23 H14 0.930 . S
C23 C22 1.374 . S
C23 C24 1.383 . S
C24 O18 1.412 . S
C24 C23 1.383 . S
C24 C25 1.394 . S
C25 H15 0.929 . S
C25 C21 1.377 . S
C25 C24 1.394 . S
H26 C33 0.929 . S
H27 C36 0.930 . S
H28 C38 0.929 . S
H29 C30 0.969 . S
C30 H29 0.969 . S
C30 O31 1.550 . S
C30 H32 0.973 . S
O31 C30 1.550 . S
O31 C37 1.412 . S
H32 C30 0.973 . S
C33 H26 0.929 . S
C33 C34 1.400 . S
C33 C35 1.364 . S
C34 C33 1.400 . S
C34 C38 1.377 . S
C35 C33 1.364 . S
C35 C36 1.374 . S
C36 H27 0.930 . S
C36 C35 1.374 . S
C36 C37 1.383 . S
C37 O31 1.412 . S
C37 C36 1.383 . S
C37 C38 1.394 . S
C38 H28 0.929 . S
C38 C34 1.377 . S
C38 C37 1.394 . S
H39 C46 0.929 . S
H40 C49 0.930 . S
H41 C51 0.929 . S
H42 C43 0.969 . S
C43 H42 0.969 . S
C43 O44 1.550 . S
C43 H45 0.973 . S
O44 C43 1.550 . S
O44 C50 1.412 . S
H45 C43 0.973 . S
C46 H39 0.929 . S
C46 C47 1.400 . S
C46 C48 1.364 . S
C47 C46 1.400 . S
C47 C51 1.377 . S
C48 C46 1.364 . S
C48 C49 1.374 . S
C49 H40 0.930 . S
C49 C48 1.374 . S
C49 C50 1.383 . S
C50 O44 1.412 . S
C50 C49 1.383 . S
C50 C51 1.394 . S
C51 H41 0.929 . S
C51 C47 1.377 . S
C51 C50 1.394 . S
H52 C59 0.929 . S
H53 C62 0.930 . S
H54 C64 0.929 . S
H55 C56 0.969 . S
C56 H55 0.969 . S
C56 O57 1.550 . S
C56 H58 0.973 . S
O57 C56 1.550 . S
O57 C63 1.412 . S
H58 C56 0.973 . S
C59 H52 0.929 . S
C59 C60 1.400 . S
C59 C61 1.364 . S
C60 C59 1.400 . S
C60 C64 1.377 . S
C61 C59 1.364 . S
C61 C62 1.374 . S
C62 H53 0.930 . S
C62 C61 1.374 . S
C62 C63 1.383 . S
C63 O57 1.412 . S
C63 C62 1.383 . S
C63 C64 1.394 . S
C64 H54 0.929 . S
C64 C60 1.377 . S
C64 C63 1.394 . S
H65 C72 0.929 . S
H66 C75 0.930 . S
H67 C77 0.929 . S
H68 C69 0.969 . S
C69 H68 0.969 . S
C69 O70 1.550 . S
C69 H71 0.973 . S
O70 C69 1.550 . S
O70 C76 1.412 . S
H71 C69 0.973 . S
C72 H65 0.929 . S
C72 C73 1.400 . S
C72 C74 1.364 . S
C73 C72 1.400 . S
C73 C77 1.377 . S
C74 C72 1.364 . S
C74 C75 1.374 . S
C75 H66 0.930 . S
C75 C74 1.374 . S
C75 C76 1.383 . S
C76 O70 1.412 . S
C76 C75 1.383 . S
C76 C77 1.394 . S
C77 H67 0.929 . S
C77 C73 1.377 . S
C77 C76 1.394 . S
H78 C85 0.929 . S
H79 C88 0.930 . S
H80 C90 0.929 . S
H81 C82 0.969 . S
C82 H81 0.969 . S
C82 O83 1.550 . S
C82 H84 0.973 . S
O83 C82 1.550 . S
O83 C89 1.412 . S
H84 C82 0.973 . S
C85 H78 0.929 . S
C85 C86 1.400 . S
C85 C87 1.364 . S
C86 C85 1.400 . S
C86 C90 1.377 . S
C87 C85 1.364 . S
C87 C88 1.374 . S
C88 H79 0.930 . S
C88 C87 1.374 . S
C88 C89 1.383 . S
C89 O83 1.412 . S
C89 C88 1.383 . S
C89 C90 1.394 . S
C90 H80 0.929 . S
C90 C86 1.377 . S
C90 C89 1.394 . S
H91 C98 0.929 . S
H92 C101 0.930 . S
H93 C103 0.929 . S
H94 C95 0.969 . S
C95 H94 0.969 . S
C95 O96 1.550 . S
C95 H97 0.973 . S
O96 C95 1.550 . S
O96 C102 1.412 . S
H97 C95 0.973 . S
C98 H91 0.929 . S
C98 C99 1.400 . S
C98 C100 1.364 . S
C99 C98 1.400 . S
C99 C103 1.377 . S
C100 C98 1.364 . S
C100 C101 1.374 . S
C101 H92 0.930 . S
C101 C100 1.374 . S
C101 C102 1.383 . S
C102 O96 1.412 . S
C102 C101 1.383 . S
C102 C103 1.394 . S
C103 H93 0.929 . S
C103 C99 1.377 . S
C103 C102 1.394 . S
Co104 N109 2.057 . S
Co104 O121 2.021 . S
Co104 O124 2.066 . S
Co104 O128 2.117 1_545 S
Co104 O129 2.020 . S
C105 O125 1.259 1_655 S
C105 O128 1.258 . S
Co106 N115 2.054 1_545 S
Co106 O122 2.117 . S
Co106 O123 2.020 . S
Co106 O125 2.021 1_545 S
Co106 O130 2.062 1_545 S
C107 N109 1.316 . S
C107 N110 1.347 . S
C107 H112 0.931 . S
C108 N109 1.375 . S
C108 C111 1.350 . S
C108 H113 0.930 1_545 S
N109 Co104 2.057 . S
N109 C107 1.316 . S
N109 C108 1.375 . S
N110 C107 1.347 . S
N110 C111 1.373 . S
C111 C108 1.350 . S
C111 N110 1.373 . S
C111 H132 0.931 . S
H112 C107 0.931 . S
H113 C108 0.930 1_565 S
C114 O121 1.259 1_455 S
C114 O122 1.258 . S
N115 Co106 2.054 1_565 S
N115 C116 1.334 . S
N115 C117 1.361 1_565 S
C116 N115 1.334 . S
C116 N118 1.347 . S
C116 H127 0.931 . S
C117 N115 1.361 1_545 S
C117 C119 1.350 . S
C117 H126 0.930 . S
N118 C116 1.347 . S
N118 C119 1.373 1_565 S
C119 C117 1.350 . S
C119 N118 1.373 1_545 S
C119 H133 0.931 . S
C120 O123 1.256 . S
C120 O124 1.246 1_455 S
O121 Co104 2.021 . S
O121 C114 1.259 1_655 S
O122 Co106 2.117 . S
O122 C114 1.258 . S
O123 Co106 2.020 . S
O123 C120 1.256 . S
O124 Co104 2.066 . S
O124 C120 1.246 1_655 S
O125 C105 1.259 1_455 S
O125 Co106 2.021 1_565 S
H126 C117 0.930 . S
H127 C116 0.931 . S
O128 Co104 2.117 1_565 S
O128 C105 1.258 . S
O129 Co104 2.020 . S
O129 C131 1.256 1_545 S
O130 Co106 2.062 1_565 S
O130 C131 1.255 1_455 S
C131 O129 1.256 1_565 S
C131 O130 1.255 1_655 S
H132 C111 0.931 . S
H133 C119 0.931 . S
Co134 N139 2.057 1_545 S
Co134 O151 2.021 . S
Co134 O154 2.062 1_545 S
Co134 O158 2.117 1_546 S
Co134 O159 2.020 . S
C135 O155 1.259 . S
C135 O158 1.258 . S
Co136 N145 2.057 . S
Co136 O152 2.117 . S
Co136 O153 2.020 . S
Co136 O155 2.021 1_545 S
Co136 O160 2.062 . S
C137 N139 1.316 . S
C137 N140 1.347 . S
C137 H142 0.931 1_565 S
C138 N139 1.375 . S
C138 C141 1.350 . S
C138 H143 0.930 . S
N139 Co134 2.057 1_565 S
N139 C137 1.316 . S
N139 C138 1.375 . S
N140 C137 1.347 . S
N140 C141 1.373 . S
C141 C138 1.350 . S
C141 N140 1.373 . S
C141 H162 0.931 . S
H142 C137 0.931 1_545 S
H143 C138 0.930 . S
C144 O151 1.259 . S
C144 O152 1.258 1_556 S
N145 Co136 2.057 . S
N145 C146 1.316 . S
N145 C147 1.375 . S
C146 N145 1.316 . S
C146 N148 1.347 . S
C146 H157 0.931 . S
C147 N145 1.375 . S
C147 C149 1.350 . S
C147 H156 0.930 . S
N148 C146 1.347 . S
N148 C149 1.373 . S
C149 C147 1.350 . S
C149 N148 1.373 . S
C149 H163 0.931 . S
C150 O153 1.256 1_566 S
C150 O154 1.255 . S
O151 Co134 2.021 . S
O151 C144 1.259 . S
O152 Co136 2.117 . S
O152 C144 1.258 1_554 S
O153 Co136 2.020 . S
O153 C150 1.256 1_544 S
O154 Co134 2.062 1_565 S
O154 C150 1.255 . S
O155 C135 1.259 . S
O155 Co136 2.021 1_565 S
H156 C147 0.930 . S
H157 C146 0.931 . S
O158 Co134 2.117 1_564 S
O158 C135 1.258 . S
O159 Co134 2.020 . S
O159 C161 1.256 1_556 S
O160 Co136 2.062 . S
O160 C161 1.255 . S
C161 O159 1.256 1_554 S
C161 O160 1.255 . S
H162 C141 0.931 . S
H163 C149 0.931 . S
Co164 N169 2.057 . S
Co164 O181 2.021 . S
Co164 O184 2.062 . S
Co164 O188 2.117 . S
Co164 O189 2.020 . S
C165 O185 1.259 . S
C165 O188 1.258 . S
Co166 N175 2.057 . S
Co166 O182 2.117 . S
Co166 O183 2.020 . S
Co166 O185 2.021 . S
Co166 O190 2.062 . S
C167 N169 1.316 . S
C167 N170 1.347 . S
C167 H172 0.931 . S
C168 N169 1.375 . S
C168 C171 1.350 . S
C168 H173 0.930 . S
N169 Co164 2.057 . S
N169 C167 1.316 . S
N169 C168 1.375 . S
N170 C167 1.347 . S
N170 C171 1.373 . S
C171 C168 1.350 . S
C171 N170 1.373 . S
C171 H192 0.931 . S
H172 C167 0.931 . S
H173 C168 0.930 . S
C174 O181 1.259 . S
C174 O182 1.258 . S
N175 Co166 2.057 . S
N175 C176 1.316 . S
N175 C177 1.375 . S
C176 N175 1.316 . S
C176 N178 1.347 . S
C176 H187 0.931 . S
C177 N175 1.375 . S
C177 C179 1.350 . S
C177 H186 0.930 . S
N178 C176 1.347 . S
N178 C179 1.373 . S
C179 C177 1.350 . S
C179 N178 1.373 . S
C179 H193 0.931 . S
C180 O183 1.256 . S
C180 O184 1.255 . S
O181 Co164 2.021 . S
O181 C174 1.259 . S
O182 Co166 2.117 . S
O182 C174 1.258 . S
O183 Co166 2.020 . S
O183 C180 1.256 . S
O184 Co164 2.062 . S
O184 C180 1.255 . S
O185 C165 1.259 . S
O185 Co166 2.021 . S
H186 C177 0.930 . S
H187 C176 0.931 . S
O188 Co164 2.117 . S
O188 C165 1.258 . S
O189 Co164 2.020 . S
O189 C191 1.256 . S
O190 Co166 2.062 . S
O190 C191 1.255 . S
C191 O189 1.256 . S
C191 O190 1.255 . S
H192 C171 0.931 . S
H193 C179 0.931 . S
Co194 N199 2.057 . S
Co194 O211 2.021 1_556 S
Co194 O214 2.062 1_556 S
Co194 O218 2.117 1_455 S
Co194 O219 2.020 . S
C195 O215 1.259 . S
C195 O218 1.258 1_554 S
Co196 N205 2.057 . S
Co196 O212 2.117 . S
Co196 O213 2.020 . S
Co196 O215 2.021 1_455 S
Co196 O220 2.062 . S
C197 N199 1.316 . S
C197 N200 1.347 . S
C197 H202 0.931 . S
C198 N199 1.375 . S
C198 C201 1.350 . S
C198 H203 0.930 1_455 S
N199 Co194 2.057 . S
N199 C197 1.316 . S
N199 C198 1.375 . S
N200 C197 1.347 . S
N200 C201 1.373 . S
C201 C198 1.350 . S
C201 N200 1.373 . S
C201 H222 0.931 . S
H202 C197 0.931 . S
H203 C198 0.930 1_655 S
C204 O211 1.259 . S
C204 O212 1.258 . S
N205 Co196 2.057 . S
N205 C206 1.316 1_455 S
N205 C207 1.375 . S
C206 N205 1.316 1_655 S
C206 N208 1.347 . S
C206 H217 0.931 . S
C207 N205 1.375 . S
C207 C209 1.350 . S
C207 H216 0.930 . S
N208 C206 1.347 . S
N208 C209 1.373 1_655 S
C209 C207 1.350 . S
C209 N208 1.373 1_455 S
C209 H223 0.931 . S
C210 O213 1.256 . S
C210 O214 1.255 . S
O211 Co194 2.021 1_554 S
O211 C204 1.259 . S
O212 Co196 2.117 . S
O212 C204 1.258 . S
O213 Co196 2.020 . S
O213 C210 1.256 . S
O214 Co194 2.062 1_554 S
O214 C210 1.255 . S
O215 C195 1.259 . S
O215 Co196 2.021 1_655 S
H216 C207 0.930 . S
H217 C206 0.931 . S
O218 Co194 2.117 1_655 S
O218 C195 1.258 1_556 S
O219 Co194 2.020 . S
O219 C221 1.256 1_556 S
O220 Co196 2.062 . S
O220 C221 1.255 . S
C221 O219 1.256 1_554 S
C221 O220 1.255 . S
H222 C201 0.931 . S
H223 C209 0.931 . S
H224 C232 0.950 . S
H225 C237 0.950 . S
H226 C234 0.950 . S
H227 C236 0.950 . S
H228 C238 0.950 . S
H229 C240 0.950 . S
H230 C242 0.950 . S
H231 C243 0.950 . S
C232 H224 0.950 . S
C232 C233 1.386 . S
C232 C234 1.391 . S
C233 C232 1.386 . S
C233 C237 1.393 . S
C234 H226 0.950 . S
C234 C232 1.391 . S
C234 C235 1.400 . S
C235 C234 1.400 . S
C235 C236 1.398 . S
C235 C241 1.491 . S
C236 H227 0.950 . S
C236 C235 1.398 . S
C236 C237 1.391 . S
C237 H225 0.950 . S
C237 C233 1.393 . S
C237 C236 1.391 . S
C238 H228 0.950 . S
C238 C239 1.386 . S
C238 C240 1.391 . S
C239 C238 1.386 . S
C239 C243 1.393 . S
C240 H229 0.950 . S
C240 C238 1.391 . S
C240 C241 1.400 . S
C241 C235 1.491 . S
C241 C240 1.400 . S
C241 C242 1.398 . S
C242 H230 0.950 . S
C242 C241 1.398 . S
C242 C243 1.391 . S
C243 H231 0.950 . S
C243 C239 1.393 . S
C243 C242 1.391 . S
H244 C252 0.950 . S
H245 C257 0.950 . S
H246 C254 0.950 . S
H247 C256 0.950 . S
H248 C258 0.950 . S
H249 C260 0.950 . S
H250 C262 0.950 . S
H251 C263 0.950 1_545 S
C252 H244 0.950 . S
C252 C253 1.386 . S
C252 C254 1.391 . S
C253 C252 1.386 . S
C253 C257 1.393 . S
C254 H246 0.950 . S
C254 C252 1.391 . S
C254 C255 1.400 . S
C255 C254 1.400 . S
C255 C256 1.398 . S
C255 C261 1.491 . S
C256 H247 0.950 . S
C256 C255 1.398 . S
C256 C257 1.391 . S
C257 H245 0.950 . S
C257 C253 1.393 . S
C257 C256 1.391 . S
C258 H248 0.950 . S
C258 C259 1.386 . S
C258 C260 1.391 . S
C259 C258 1.386 . S
C259 C263 1.393 . S
C260 H249 0.950 . S
C260 C258 1.391 . S
C260 C261 1.400 . S
C261 C255 1.491 . S
C261 C260 1.400 . S
C261 C262 1.398 . S
C262 H250 0.950 . S
C262 C261 1.398 . S
C262 C263 1.391 . S
C263 H251 0.950 1_565 S
C263 C259 1.393 . S
C263 C262 1.391 . S
H264 C272 0.950 . S
H265 C277 0.950 . S
H266 C274 0.950 . S
H267 C276 0.950 . S
H268 C278 0.950 . S
H269 C280 0.950 . S
H270 C282 0.950 . S
H271 C283 0.950 . S
C272 H264 0.950 . S
C272 C273 1.386 . S
C272 C274 1.391 . S
C273 C272 1.386 . S
C273 C277 1.393 . S
C274 H266 0.950 . S
C274 C272 1.391 . S
C274 C275 1.400 . S
C275 C274 1.400 . S
C275 C276 1.398 . S
C275 C281 1.491 . S
C276 H267 0.950 . S
C276 C275 1.398 . S
C276 C277 1.391 . S
C277 H265 0.950 . S
C277 C273 1.393 . S
C277 C276 1.391 . S
C278 H268 0.950 . S
C278 C279 1.386 . S
C278 C280 1.391 . S
C279 C278 1.386 . S
C279 C283 1.393 . S
C280 H269 0.950 . S
C280 C278 1.391 . S
C280 C281 1.400 . S
C281 C275 1.491 . S
C281 C280 1.400 . S
C281 C282 1.398 . S
C282 H270 0.950 . S
C282 C281 1.398 . S
C282 C283 1.391 . S
C283 H271 0.950 . S
C283 C279 1.393 . S
C283 C282 1.391 . S
H284 C292 0.950 . S
H285 C297 0.950 . S
H286 C294 0.950 . S
H287 C296 0.950 . S
H288 C298 0.950 . S
H289 C300 0.950 . S
H290 C302 0.950 . S
H291 C303 0.950 . S
C292 H284 0.950 . S
C292 C293 1.386 . S
C292 C294 1.391 . S
C293 C292 1.386 . S
C293 C297 1.393 . S
C294 H286 0.950 . S
C294 C292 1.391 . S
C294 C295 1.400 . S
C295 C294 1.400 . S
C295 C296 1.398 . S
C295 C301 1.491 . S
C296 H287 0.950 . S
C296 C295 1.398 . S
C296 C297 1.391 . S
C297 H285 0.950 . S
C297 C293 1.393 . S
C297 C296 1.391 . S
C298 H288 0.950 . S
C298 C299 1.386 . S
C298 C300 1.391 . S
C299 C298 1.386 . S
C299 C303 1.393 . S
C300 H289 0.950 . S
C300 C298 1.391 . S
C300 C301 1.400 . S
C301 C295 1.491 . S
C301 C300 1.400 . S
C301 C302 1.398 . S
C302 H290 0.950 . S
C302 C301 1.398 . S
C302 C303 1.391 . S
C303 H291 0.950 . S
C303 C299 1.393 . S
C303 C302 1.391 . S
H304 C312 0.950 . S
H305 C317 0.950 . S
H306 C314 0.950 . S
H307 C316 0.950 . S
H308 C318 0.950 . S
H309 C320 0.950 . S
H310 C322 0.950 . S
H311 C323 0.950 1_556 S
C312 H304 0.950 . S
C312 C313 1.386 . S
C312 C314 1.391 . S
C313 C312 1.386 . S
C313 C317 1.393 . S
C314 H306 0.950 . S
C314 C312 1.391 . S
C314 C315 1.400 . S
C315 C314 1.400 . S
C315 C316 1.398 . S
C315 C321 1.491 . S
C316 H307 0.950 . S
C316 C315 1.398 . S
C316 C317 1.391 . S
C317 H305 0.950 . S
C317 C313 1.393 . S
C317 C316 1.391 . S
C318 H308 0.950 . S
C318 C319 1.386 . S
C318 C320 1.391 . S
C319 C318 1.386 . S
C319 C323 1.393 . S
C320 H309 0.950 . S
C320 C318 1.391 . S
C320 C321 1.400 . S
C321 C315 1.491 . S
C321 C320 1.400 . S
C321 C322 1.398 . S
C322 H310 0.950 . S
C322 C321 1.398 . S
C322 C323 1.391 . S
C323 H311 0.950 1_554 S
C323 C319 1.393 . S
C323 C322 1.391 . S
H324 C332 0.950 . S
H325 C337 0.950 . S
H326 C334 0.950 . S
H327 C336 0.950 . S
H328 C338 0.950 1_545 S
H329 C340 0.950 . S
H330 C342 0.950 . S
H331 C343 0.950 . S
C332 H324 0.950 . S
C332 C333 1.386 . S
C332 C334 1.391 . S
C333 C332 1.386 . S
C333 C337 1.393 . S
C334 H326 0.950 . S
C334 C332 1.391 . S
C334 C335 1.400 . S
C335 C334 1.400 . S
C335 C336 1.398 . S
C335 C341 1.491 . S
C336 H327 0.950 . S
C336 C335 1.398 . S
C336 C337 1.391 . S
C337 H325 0.950 . S
C337 C333 1.393 . S
C337 C336 1.391 . S
C338 H328 0.950 1_565 S
C338 C339 1.386 . S
C338 C340 1.391 . S
C339 C338 1.386 . S
C339 C343 1.393 . S
C340 H329 0.950 . S
C340 C338 1.391 . S
C340 C341 1.400 . S
C341 C335 1.491 . S
C341 C340 1.400 . S
C341 C342 1.398 . S
C342 H330 0.950 . S
C342 C341 1.398 . S
C342 C343 1.391 . S
C343 H331 0.950 . S
C343 C339 1.393 . S
C343 C342 1.391 . S
H344 C352 0.950 . S
H345 C357 0.950 . S
H346 C354 0.950 . S
H347 C356 0.950 . S
H348 C358 0.950 . S
H349 C360 0.950 . S
H350 C362 0.950 . S
H351 C363 0.950 . S
C352 H344 0.950 . S
C352 C353 1.386 . S
C352 C354 1.391 . S
C353 C352 1.386 . S
C353 C357 1.393 . S
C354 H346 0.950 . S
C354 C352 1.391 . S
C354 C355 1.400 . S
C355 C354 1.400 . S
C355 C356 1.398 . S
C355 C361 1.491 . S
C356 H347 0.950 . S
C356 C355 1.398 . S
C356 C357 1.391 . S
C357 H345 0.950 . S
C357 C353 1.393 . S
C357 C356 1.391 . S
C358 H348 0.950 . S
C358 C359 1.386 . S
C358 C360 1.391 . S
C359 C358 1.386 . S
C359 C363 1.393 1_556 S
C360 H349 0.950 . S
C360 C358 1.391 . S
C360 C361 1.400 . S
C361 C355 1.491 . S
C361 C360 1.400 . S
C361 C362 1.398 . S
C362 H350 0.950 . S
C362 C361 1.398 . S
C362 C363 1.391 1_556 S
C363 H351 0.950 . S
C363 C359 1.393 1_554 S
C363 C362 1.391 1_554 S
H364 C372 0.950 . S
H365 C377 0.950 . S
H366 C374 0.950 . S
H367 C376 0.950 . S
H368 C378 0.950 . S
H369 C380 0.950 . S
H370 C382 0.950 . S
H371 C383 0.950 . S
C372 H364 0.950 . S
C372 C373 1.386 . S
C372 C374 1.391 . S
C373 C372 1.386 . S
C373 C377 1.393 . S
C374 H366 0.950 . S
C374 C372 1.391 . S
C374 C375 1.400 . S
C375 C374 1.400 . S
C375 C376 1.398 . S
C375 C381 1.491 . S
C376 H367 0.950 . S
C376 C375 1.398 . S
C376 C377 1.391 . S
C377 H365 0.950 . S
C377 C373 1.393 . S
C377 C376 1.391 . S
C378 H368 0.950 . S
C378 C379 1.386 . S
C378 C380 1.391 . S
C379 C378 1.386 . S
C379 C383 1.393 . S
C380 H369 0.950 . S
C380 C378 1.391 . S
C380 C381 1.400 . S
C381 C375 1.491 . S
C381 C380 1.400 . S
C381 C382 1.398 . S
C382 H370 0.950 . S
C382 C381 1.398 . S
C382 C383 1.391 . S
C383 H371 0.950 . S
C383 C379 1.393 . S
C383 C382 1.391 . S
H384 C392 0.950 . S
H385 C397 0.950 . S
H386 C394 0.950 . S
H387 C396 0.950 . S
H388 C398 0.950 . S
H389 C400 0.950 . S
H390 C402 0.950 . S
H391 C403 0.950 . S
C392 H384 0.950 . S
C392 C393 1.386 . S
C392 C394 1.391 . S
C393 C392 1.386 . S
C393 C397 1.393 . S
C394 H386 0.950 . S
C394 C392 1.391 . S
C394 C395 1.400 . S
C395 C394 1.400 . S
C395 C396 1.398 . S
C395 C401 1.491 . S
C396 H387 0.950 . S
C396 C395 1.398 . S
C396 C397 1.391 . S
C397 H385 0.950 . S
C397 C393 1.393 . S
C397 C396 1.391 . S
C398 H388 0.950 . S
C398 C399 1.386 . S
C398 C400 1.391 . S
C399 C398 1.386 . S
C399 C403 1.393 . S
C400 H389 0.950 . S
C400 C398 1.391 . S
C400 C401 1.400 . S
C401 C395 1.491 . S
C401 C400 1.400 . S
C401 C402 1.398 . S
C402 H390 0.950 . S
C402 C401 1.398 . S
C402 C403 1.391 . S
C403 H391 0.950 . S
C403 C399 1.393 . S
C403 C402 1.391 . S
H404 C412 0.950 . S
H405 C417 0.950 . S
H406 C414 0.950 . S
H407 C416 0.950 . S
H408 C418 0.950 . S
H409 C420 0.950 . S
H410 C422 0.950 . S
H411 C423 0.950 1_554 S
C412 H404 0.950 . S
C412 C413 1.386 . S
C412 C414 1.391 . S
C413 C412 1.386 . S
C413 C417 1.393 . S
C414 H406 0.950 . S
C414 C412 1.391 . S
C414 C415 1.400 . S
C415 C414 1.400 . S
C415 C416 1.398 . S
C415 C421 1.491 . S
C416 H407 0.950 . S
C416 C415 1.398 . S
C416 C417 1.391 . S
C417 H405 0.950 . S
C417 C413 1.393 . S
C417 C416 1.391 . S
C418 H408 0.950 . S
C418 C419 1.386 . S
C418 C420 1.391 . S
C419 C418 1.386 . S
C419 C423 1.393 . S
C420 H409 0.950 . S
C420 C418 1.391 . S
C420 C421 1.400 . S
C421 C415 1.491 . S
C421 C420 1.400 . S
C421 C422 1.398 . S
C422 H410 0.950 . S
C422 C421 1.398 . S
C422 C423 1.391 . S
C423 H411 0.950 1_556 S
C423 C419 1.393 . S
C423 C422 1.391 . S
H424 C432 0.950 . S
H425 C437 0.950 . S
H426 C434 0.950 . S
H427 C436 0.950 . S
H428 C438 0.957 . S
H429 C440 0.950 1_455 S
H430 C442 0.950 . S
H431 C443 0.950 . S
C432 H424 0.950 . S
C432 C433 1.386 . S
C432 C434 1.391 . S
C433 C432 1.386 . S
C433 C437 1.393 . S
C434 H426 0.950 . S
C434 C432 1.391 . S
C434 C435 1.400 . S
C435 C434 1.400 . S
C435 C436 1.398 . S
C435 C441 1.491 . S
C436 H427 0.950 . S
C436 C435 1.398 . S
C436 C437 1.391 . S
C437 H425 0.950 . S
C437 C433 1.393 . S
C437 C436 1.391 . S
C438 H428 0.957 . S
C438 C439 1.379 1_455 S
C438 C440 1.391 1_455 S
C439 C438 1.379 1_655 S
C439 C443 1.393 . S
C440 H429 0.950 1_655 S
C440 C438 1.391 1_655 S
C440 C441 1.400 . S
C441 C435 1.491 . S
C441 C440 1.400 . S
C441 C442 1.398 . S
C442 H430 0.950 . S
C442 C441 1.398 . S
C442 C443 1.391 . S
C443 H431 0.950 . S
C443 C439 1.393 . S
C443 C442 1.391 . S
H444 C452 0.950 . S
H445 C457 0.950 . S
H446 C454 0.950 . S
H447 C456 0.950 . S
H448 C458 0.950 . S
H449 C460 0.950 . S
H450 C462 0.950 . S
H451 C463 0.950 . S
C452 H444 0.950 . S
C452 C453 1.386 . S
C452 C454 1.391 . S
C453 C452 1.386 . S
C453 C457 1.393 . S
C454 H446 0.950 . S
C454 C452 1.391 . S
C454 C455 1.400 . S
C455 C454 1.400 . S
C455 C456 1.398 . S
C455 C461 1.491 . S
C456 H447 0.950 . S
C456 C455 1.398 . S
C456 C457 1.391 . S
C457 H445 0.950 . S
C457 C453 1.393 . S
C457 C456 1.391 . S
C458 H448 0.950 . S
C458 C459 1.386 . S
C458 C460 1.391 . S
C459 C458 1.386 . S
C459 C463 1.393 . S
C460 H449 0.950 . S
C460 C458 1.391 . S
C460 C461 1.400 . S
C461 C455 1.491 . S
C461 C460 1.400 . S
C461 C462 1.398 . S
C462 H450 0.950 . S
C462 C461 1.398 . S
C462 C463 1.391 . S
C463 H451 0.950 . S
C463 C459 1.393 . S
C463 C462 1.391 . S
H464 C472 0.950 . S
H465 C477 0.950 . S
H466 C474 0.950 . S
H467 C476 0.950 . S
H468 C478 0.950 . S
H469 C480 0.950 . S
H470 C482 0.950 1_545 S
H471 C483 0.950 . S
C472 H464 0.950 . S
C472 C473 1.386 . S
C472 C474 1.391 . S
C473 C472 1.386 . S
C473 C477 1.393 . S
C474 H466 0.950 . S
C474 C472 1.391 . S
C474 C475 1.400 . S
C475 C474 1.400 . S
C475 C476 1.398 . S
C475 C481 1.491 . S
C476 H467 0.950 . S
C476 C475 1.398 . S
C476 C477 1.391 . S
C477 H465 0.950 . S
C477 C473 1.393 . S
C477 C476 1.391 . S
C478 H468 0.950 . S
C478 C479 1.386 . S
C478 C480 1.391 . S
C479 C478 1.386 . S
C479 C483 1.393 1_565 S
C480 H469 0.950 . S
C480 C478 1.391 . S
C480 C481 1.400 . S
C481 C475 1.491 . S
C481 C480 1.400 . S
C481 C482 1.398 . S
C482 H470 0.950 1_565 S
C482 C481 1.398 . S
C482 C483 1.391 1_565 S
C483 H471 0.950 . S
C483 C479 1.393 1_545 S
C483 C482 1.391 1_545 S
H484 C492 0.950 . S
H485 C497 0.950 . S
H486 C494 0.950 . S
H487 C496 0.950 . S
H488 C498 0.950 . S
H489 C500 0.950 . S
H490 C502 0.950 . S
H491 C503 0.950 . S
C492 H484 0.950 . S
C492 C493 1.386 . S
C492 C494 1.391 . S
C493 C492 1.386 . S
C493 C497 1.393 . S
C494 H486 0.950 . S
C494 C492 1.391 . S
C494 C495 1.400 . S
C495 C494 1.400 . S
C495 C496 1.398 . S
C495 C501 1.491 . S
C496 H487 0.950 . S
C496 C495 1.398 . S
C496 C497 1.391 . S
C497 H485 0.950 . S
C497 C493 1.393 . S
C497 C496 1.391 . S
C498 H488 0.950 . S
C498 C499 1.386 . S
C498 C500 1.391 . S
C499 C498 1.386 . S
C499 C503 1.393 . S
C500 H489 0.950 . S
C500 C498 1.391 . S
C500 C501 1.400 . S
C501 C495 1.491 . S
C501 C500 1.400 . S
C501 C502 1.398 . S
C502 H490 0.950 . S
C502 C501 1.398 . S
C502 C503 1.391 . S
C503 H491 0.950 . S
C503 C499 1.393 . S
C503 C502 1.391 . S
H504 C512 0.950 . S
H505 C517 0.950 . S
H506 C514 0.950 . S
H507 C516 0.950 . S
H508 C518 0.950 . S
H509 C520 0.950 . S
H510 C522 0.950 . S
H511 C523 0.950 . S
C512 H504 0.950 . S
C512 C513 1.386 . S
C512 C514 1.391 . S
C513 C512 1.386 . S
C513 C517 1.393 . S
C514 H506 0.950 . S
C514 C512 1.391 . S
C514 C515 1.400 . S
C515 C514 1.400 . S
C515 C516 1.398 . S
C515 C521 1.491 . S
C516 H507 0.950 . S
C516 C515 1.398 . S
C516 C517 1.391 . S
C517 H505 0.950 . S
C517 C513 1.393 . S
C517 C516 1.391 . S
C518 H508 0.950 . S
C518 C519 1.386 . S
C518 C520 1.391 . S
C519 C518 1.386 . S
C519 C523 1.393 . S
C520 H509 0.950 . S
C520 C518 1.391 . S
C520 C521 1.400 . S
C521 C515 1.491 . S
C521 C520 1.400 . S
C521 C522 1.398 . S
C522 H510 0.950 . S
C522 C521 1.398 . S
C522 C523 1.391 . S
C523 H511 0.950 . S
C523 C519 1.393 . S
C523 C522 1.391 . S
H524 C532 0.950 . S
H525 C537 0.950 . S
H526 C534 0.950 . S
H527 C536 0.950 . S
H528 C538 0.950 . S
H529 C540 0.950 . S
H530 C542 0.950 . S
H531 C543 0.950 . S
C532 H524 0.950 . S
C532 C533 1.386 . S
C532 C534 1.391 . S
C533 C532 1.386 . S
C533 C537 1.393 . S
C534 H526 0.950 . S
C534 C532 1.391 . S
C534 C535 1.400 . S
C535 C534 1.400 . S
C535 C536 1.398 . S
C535 C541 1.491 . S
C536 H527 0.950 . S
C536 C535 1.398 . S
C536 C537 1.391 . S
C537 H525 0.950 . S
C537 C533 1.393 . S
C537 C536 1.391 . S
C538 H528 0.950 . S
C538 C539 1.386 . S
C538 C540 1.391 . S
C539 C538 1.386 . S
C539 C543 1.393 . S
C540 H529 0.950 . S
C540 C538 1.391 . S
C540 C541 1.400 . S
C541 C535 1.491 . S
C541 C540 1.400 . S
C541 C542 1.398 . S
C542 H530 0.950 . S
C542 C541 1.398 . S
C542 C543 1.391 . S
C543 H531 0.950 . S
C543 C539 1.393 . S
C543 C542 1.391 . S
H544 C552 0.950 . S
H545 C557 0.950 . S
H546 C554 0.950 . S
H547 C556 0.950 . S
H548 C558 0.950 1_544 S
H549 C560 0.950 . S
H550 C562 0.950 . S
H551 C563 0.950 . S
C552 H544 0.950 . S
C552 C553 1.386 . S
C552 C554 1.391 . S
C553 C552 1.386 . S
C553 C557 1.393 . S
C554 H546 0.950 . S
C554 C552 1.391 . S
C554 C555 1.400 . S
C555 C554 1.400 . S
C555 C556 1.398 . S
C555 C561 1.491 . S
C556 H547 0.950 . S
C556 C555 1.398 . S
C556 C557 1.391 . S
C557 H545 0.950 . S
C557 C553 1.393 . S
C557 C556 1.391 . S
C558 H548 0.950 1_566 S
C558 C559 1.386 . S
C558 C560 1.391 . S
C559 C558 1.386 . S
C559 C563 1.393 . S
C560 H549 0.950 . S
C560 C558 1.391 . S
C560 C561 1.400 . S
C561 C555 1.491 . S
C561 C560 1.400 . S
C561 C562 1.398 . S
C562 H550 0.950 . S
C562 C561 1.398 . S
C562 C563 1.391 . S
C563 H551 0.950 . S
C563 C559 1.393 . S
C563 C562 1.391 . S
H564 C572 0.950 . S
H565 C577 0.950 . S
H566 C574 0.950 . S
H567 C576 0.950 . S
H568 C578 0.950 . S
H569 C580 0.950 . S
H570 C582 0.950 . S
H571 C583 0.950 . S
C572 H564 0.950 . S
C572 C573 1.386 . S
C572 C574 1.391 . S
C573 C572 1.386 . S
C573 C577 1.393 . S
C574 H566 0.950 . S
C574 C572 1.391 . S
C574 C575 1.400 . S
C575 C574 1.400 . S
C575 C576 1.398 . S
C575 C581 1.491 . S
C576 H567 0.950 . S
C576 C575 1.398 . S
C576 C577 1.391 . S
C577 H565 0.950 . S
C577 C573 1.393 . S
C577 C576 1.391 . S
C578 H568 0.950 . S
C578 C579 1.386 . S
C578 C580 1.391 . S
C579 C578 1.386 . S
C579 C583 1.393 . S
C580 H569 0.950 . S
C580 C578 1.391 . S
C580 C581 1.400 . S
C581 C575 1.491 . S
C581 C580 1.400 . S
C581 C582 1.398 . S
C582 H570 0.950 . S
C582 C581 1.398 . S
C582 C583 1.391 . S
C583 H571 0.950 . S
C583 C579 1.393 . S
C583 C582 1.391 . S
H584 C592 0.950 . S
H585 C597 0.950 . S
H586 C594 0.950 . S
H587 C596 0.950 . S
H588 C598 0.950 . S
H589 C600 0.950 . S
H590 C602 0.950 . S
H591 C603 0.950 . S
C592 H584 0.950 . S
C592 C593 1.386 . S
C592 C594 1.391 . S
C593 C592 1.386 . S
C593 C597 1.393 . S
C594 H586 0.950 . S
C594 C592 1.391 . S
C594 C595 1.400 . S
C595 C594 1.400 . S
C595 C596 1.398 . S
C595 C601 1.491 . S
C596 H587 0.950 . S
C596 C595 1.398 . S
C596 C597 1.391 . S
C597 H585 0.950 . S
C597 C593 1.393 . S
C597 C596 1.391 . S
C598 H588 0.950 . S
C598 C599 1.386 . S
C598 C600 1.391 . S
C599 C598 1.386 . S
C599 C603 1.393 . S
C600 H589 0.950 . S
C600 C598 1.391 . S
C600 C601 1.400 . S
C601 C595 1.491 . S
C601 C600 1.400 . S
C601 C602 1.398 . S
C602 H590 0.950 . S
C602 C601 1.398 . S
C602 C603 1.391 . S
C603 H591 0.950 . S
C603 C599 1.393 . S
C603 C602 1.391 . S
H604 C612 0.950 . S
H605 C617 0.950 . S
H606 C614 0.950 . S
H607 C616 0.950 . S
H608 C618 0.950 . S
H609 C620 0.950 . S
H610 C622 0.950 . S
H611 C623 0.950 . S
C612 H604 0.950 . S
C612 C613 1.386 . S
C612 C614 1.391 . S
C613 C612 1.386 . S
C613 C617 1.393 . S
C614 H606 0.950 . S
C614 C612 1.391 . S
C614 C615 1.400 . S
C615 C614 1.400 . S
C615 C616 1.398 . S
C615 C621 1.491 . S
C616 H607 0.950 . S
C616 C615 1.398 . S
C616 C617 1.391 . S
C617 H605 0.950 . S
C617 C613 1.393 . S
C617 C616 1.391 . S
C618 H608 0.950 . S
C618 C619 1.386 . S
C618 C620 1.391 . S
C619 C618 1.386 . S
C619 C623 1.393 . S
C620 H609 0.950 . S
C620 C618 1.391 . S
C620 C621 1.400 . S
C621 C615 1.491 . S
C621 C620 1.400 . S
C621 C622 1.398 . S
C622 H610 0.950 . S
C622 C621 1.398 . S
C622 C623 1.391 . S
C623 H611 0.950 . S
C623 C619 1.393 . S
C623 C622 1.391 . S
H624 C632 0.950 1_455 S
H625 C637 0.950 . S
H626 C634 0.950 1_455 S
H627 C636 0.950 . S
H628 C638 0.950 . S
H629 C640 0.950 . S
H630 C642 0.950 . S
H631 C643 0.950 . S
C632 H624 0.950 1_655 S
C632 C633 1.386 . S
C632 C634 1.391 . S
C633 C632 1.386 . S
C633 C637 1.393 . S
C634 H626 0.950 1_655 S
C634 C632 1.391 . S
C634 C635 1.400 . S
C635 C634 1.400 . S
C635 C636 1.398 . S
C635 C641 1.491 . S
C636 H627 0.950 . S
C636 C635 1.398 . S
C636 C637 1.391 . S
C637 H625 0.950 . S
C637 C633 1.393 . S
C637 C636 1.391 . S
C638 H628 0.950 . S
C638 C639 1.386 1_655 S
C638 C640 1.391 . S
C639 C638 1.386 1_455 S
C639 C643 1.393 . S
C640 H629 0.950 . S
C640 C638 1.391 . S
C640 C641 1.400 . S
C641 C635 1.491 . S
C641 C640 1.400 . S
C641 C642 1.398 1_655 S
C642 H630 0.950 . S
C642 C641 1.398 1_455 S
C642 C643 1.391 . S
C643 H631 0.950 . S
C643 C639 1.393 . S
C643 C642 1.391 . S
H644 C652 0.950 . S
H645 C657 0.950 . S
H646 C654 0.950 . S
H647 C656 0.950 . S
H648 C658 0.950 . S
H649 C660 0.950 . S
H650 C662 0.950 . S
H651 C663 0.950 . S
C652 H644 0.950 . S
C652 C653 1.386 . S
C652 C654 1.391 . S
C653 C652 1.386 . S
C653 C657 1.393 . S
C654 H646 0.950 . S
C654 C652 1.391 . S
C654 C655 1.400 . S
C655 C654 1.400 . S
C655 C656 1.398 . S
C655 C661 1.491 . S
C656 H647 0.950 . S
C656 C655 1.398 . S
C656 C657 1.391 . S
C657 H645 0.950 . S
C657 C653 1.393 . S
C657 C656 1.391 . S
C658 H648 0.950 . S
C658 C659 1.386 . S
C658 C660 1.391 . S
C659 C658 1.386 . S
C659 C663 1.393 . S
C660 H649 0.950 . S
C660 C658 1.391 . S
C660 C661 1.400 . S
C661 C655 1.491 . S
C661 C660 1.400 . S
C661 C662 1.398 . S
C662 H650 0.950 . S
C662 C661 1.398 . S
C662 C663 1.391 . S
C663 H651 0.950 . S
C663 C659 1.393 . S
C663 C662 1.391 . S
H664 C672 0.950 . S
H665 C677 0.950 . S
H666 C674 0.950 . S
H667 C676 0.950 . S
H668 C678 0.950 . S
H669 C680 0.950 . S
H670 C682 0.950 . S
H671 C683 0.950 1_655 S
C672 H664 0.950 . S
C672 C673 1.386 . S
C672 C674 1.391 . S
C673 C672 1.386 . S
C673 C677 1.393 . S
C674 H666 0.950 . S
C674 C672 1.391 . S
C674 C675 1.400 . S
C675 C674 1.400 . S
C675 C676 1.398 . S
C675 C681 1.491 . S
C676 H667 0.950 . S
C676 C675 1.398 . S
C676 C677 1.391 . S
C677 H665 0.950 . S
C677 C673 1.393 . S
C677 C676 1.391 . S
C678 H668 0.950 . S
C678 C679 1.386 . S
C678 C680 1.391 . S
C679 C678 1.386 . S
C679 C683 1.393 . S
C680 H669 0.950 . S
C680 C678 1.391 . S
C680 C681 1.400 . S
C681 C675 1.491 . S
C681 C680 1.400 . S
C681 C682 1.398 . S
C682 H670 0.950 . S
C682 C681 1.398 . S
C682 C683 1.391 . S
C683 H671 0.950 1_455 S
C683 C679 1.393 . S
C683 C682 1.391 . S
H684 C692 0.950 . S
H685 C697 0.950 . S
H686 C694 0.950 . S
H687 C696 0.950 . S
H688 C698 0.950 . S
H689 C700 0.950 . S
H690 C702 0.950 . S
H691 C703 0.950 . S
C692 H684 0.950 . S
C692 C693 1.386 . S
C692 C694 1.391 . S
C693 C692 1.386 . S
C693 C697 1.393 . S
C694 H686 0.950 . S
C694 C692 1.391 . S
C694 C695 1.400 . S
C695 C694 1.400 . S
C695 C696 1.398 . S
C695 C701 1.491 . S
C696 H687 0.950 . S
C696 C695 1.398 . S
C696 C697 1.391 . S
C697 H685 0.950 . S
C697 C693 1.393 . S
C697 C696 1.391 . S
C698 H688 0.950 . S
C698 C699 1.386 . S
C698 C700 1.391 . S
C699 C698 1.386 . S
C699 C703 1.393 . S
C700 H689 0.950 . S
C700 C698 1.391 . S
C700 C701 1.400 . S
C701 C695 1.491 . S
C701 C700 1.400 . S
C701 C702 1.398 . S
C702 H690 0.950 . S
C702 C701 1.398 . S
C702 C703 1.391 . S
C703 H691 0.950 . S
C703 C699 1.393 . S
C703 C702 1.391 . S
C233 C9 2.529 . S
C239 C120 2.543 . S
C253 C21 1.072 . S
C259 N140 1.068 . S
C279 C174 1.673 . S
C273 C30 1.648 . S
C293 C43 0.989 . S
C299 N208 1.032 . S
C319 C161 2.227 . S
C313 C4 2.208 . S
C339 N118 1.565 . S
C333 C22 1.594 . S
C359 C195 1.647 1_556 S
C353 C34 1.644 . S
C379 N170 0.876 . S
C373 C48 0.893 . S
C393 C8 1.854 . S
C399 C210 1.864 . S
C419 C144 1.758 . S
C413 C35 1.749 . S
C433 C47 1.463 . S
C439 C105 1.469 . S
C453 C17 1.198 . S
C459 C191 1.206 . S
C479 C131 2.165 . S
C473 C60 2.146 . S
C493 C74 1.348 . S
C499 N148 1.319 . S
C513 C82 1.447 . S
C519 C165 1.464 . S
C533 C100 1.516 . S
C539 N200 1.443 . S
C553 C61 2.605 . S
C559 C150 2.622 . S
C579 N110 1.184 . S
C573 C73 1.204 . S
C599 C204 2.033 . S
C593 C87 2.030 . S
C619 N178 0.672 . S
C613 C95 0.712 . S
C633 C56 1.817 . S
C639 C221 1.895 1_556 S
C659 C135 1.768 . S
C653 C86 1.744 . S
C679 C114 1.415 . S
C673 C99 1.396 . S
C693 C69 1.298 . S
C699 C180 1.324 . S
