# Generated by pormake.
# Topology nom, (4,4)-cn, num edge types: 1
# Building blocks:
#     Node 0, Type 0, BuildingBlock: AZAVOO_clean_linker_0, # of connection points: 4
#     Node 1, Type 0, BuildingBlock: AZAVOO_clean_linker_0, # of connection points: 4
#     Node 2, Type 0, BuildingBlock: AZAVOO_clean_linker_0, # of connection points: 4
#     Node 3, Type 0, BuildingBlock: AZAVOO_clean_linker_0, # of connection points: 4
#     Node 4, Type 0, BuildingBlock: AZAVOO_clean_linker_0, # of connection points: 4
#     Node 5, Type 0, BuildingBlock: AZAVOO_clean_linker_0, # of connection points: 4
#     Node 6, Type 1, BuildingBlock: QUQFOY_clean_sbu_3, # of connection points: 4
#     Node 7, Type 1, BuildingBlock: QUQFOY_clean_sbu_3, # of connection points: 4
#     Node 8, Type 1, BuildingBlock: QUQFOY_clean_sbu_3, # of connection points: 4
#     Node 9, Type 1, BuildingBlock: QUQFOY_clean_sbu_3, # of connection points: 4
#     Node 10, Type 1, BuildingBlock: QUQFOY_clean_sbu_3, # of connection points: 4
#     Node 11, Type 1, BuildingBlock: QUQFOY_clean_sbu_3, # of connection points: 4
#     Edge 12, Type (0, 1), BuildingBlock: XIVTED_clean_linker_0, # of connection points: 2
#     Edge 13, Type (0, 1), BuildingBlock: XIVTED_clean_linker_0, # of connection points: 2
#     Edge 14, Type (0, 1), BuildingBlock: XIVTED_clean_linker_0, # of connection points: 2
#     Edge 15, Type (0, 1), BuildingBlock: XIVTED_clean_linker_0, # of connection points: 2
#     Edge 16, Type (0, 1), BuildingBlock: XIVTED_clean_linker_0, # of connection points: 2
#     Edge 17, Type (0, 1), BuildingBlock: XIVTED_clean_linker_0, # of connection points: 2
#     Edge 18, Type (0, 1), BuildingBlock: XIVTED_clean_linker_0, # of connection points: 2
#     Edge 19, Type (0, 1), BuildingBlock: XIVTED_clean_linker_0, # of connection points: 2
#     Edge 20, Type (0, 1), BuildingBlock: XIVTED_clean_linker_0, # of connection points: 2
#     Edge 21, Type (0, 1), BuildingBlock: XIVTED_clean_linker_0, # of connection points: 2
#     Edge 22, Type (0, 1), BuildingBlock: XIVTED_clean_linker_0, # of connection points: 2
#     Edge 23, Type (0, 1), BuildingBlock: XIVTED_clean_linker_0, # of connection points: 2
#     Edge 24, Type (0, 1), BuildingBlock: XIVTED_clean_linker_0, # of connection points: 2
#     Edge 25, Type (0, 1), BuildingBlock: XIVTED_clean_linker_0, # of connection points: 2
#     Edge 26, Type (0, 1), BuildingBlock: XIVTED_clean_linker_0, # of connection points: 2
#     Edge 27, Type (0, 1), BuildingBlock: XIVTED_clean_linker_0, # of connection points: 2
#     Edge 28, Type (0, 1), BuildingBlock: XIVTED_clean_linker_0, # of connection points: 2
#     Edge 29, Type (0, 1), BuildingBlock: XIVTED_clean_linker_0, # of connection points: 2
#     Edge 30, Type (0, 1), BuildingBlock: XIVTED_clean_linker_0, # of connection points: 2
#     Edge 31, Type (0, 1), BuildingBlock: XIVTED_clean_linker_0, # of connection points: 2
#     Edge 32, Type (0, 1), BuildingBlock: XIVTED_clean_linker_0, # of connection points: 2
#     Edge 33, Type (0, 1), BuildingBlock: XIVTED_clean_linker_0, # of connection points: 2
#     Edge 34, Type (0, 1), BuildingBlock: XIVTED_clean_linker_0, # of connection points: 2
#     Edge 35, Type (0, 1), BuildingBlock: XIVTED_clean_linker_0, # of connection points: 2
# Relax obj value: 0.143
# Max RMSD: 0.229
# Mean RMSD: 0.148
data_MOF--net-nom--node1-QUQFOY_clean_sbu_3--node2-AZAVOO_clean_linker_0--edge1-XIVTED_clean_linker_0
_symmetry_space_group_name_H-M    P1
_symmetry_Int_Tables_number       1
_symmetry_cell_setting            triclinic
loop_
_symmetry_equiv_pos_as_xyz
'x, y, z'
_cell_length_a     47.921698
_cell_length_b     50.753125
_cell_length_c     60.360492
_cell_angle_alpha  89.854566
_cell_angle_beta   89.827939
_cell_angle_gamma 121.29131
loop_
_atom_site_label
_atom_site_type_symbol
_atom_site_fract_x
_atom_site_fract_y
_atom_site_fract_z
_atom_type_partial_charge
H0 H 0.05077 0.41383 0.16362 0.0
H1 H 0.23484 0.63089 0.35706 0.0
H2 H 0.98954 0.41231 0.27271 0.0
H3 H 0.95031 0.38677 0.24273 0.0
H4 H 0.93612 0.46397 0.23876 0.0
H5 H 0.97609 0.48983 0.26835 0.0
H6 H 0.06505 0.44206 0.25831 0.0
H7 H 0.06305 0.425 0.22014 0.0
H8 H 0.02612 0.48255 0.19871 0.0
H9 H 0.02882 0.49984 0.23684 0.0
H10 H 0.12993 0.49348 0.28824 0.0
H11 H 0.184 0.52703 0.27137 0.0
H12 H 0.14595 0.57566 0.23578 0.0
H13 H 0.09277 0.54256 0.25268 0.0
H14 H 0.10775 0.49035 0.33582 0.0
H15 H 0.15894 0.52348 0.35549 0.0
H16 H 0.16721 0.60349 0.32327 0.0
H17 H 0.11583 0.57008 0.30392 0.0
H18 H 0.04271 0.46404 0.35319 0.0
H19 H 0.05956 0.48165 0.39088 0.0
H20 H 0.07039 0.56945 0.37368 0.0
H21 H 0.05675 0.55238 0.33549 0.0
H22 H 0.95953 0.43088 0.31985 0.0
H23 H 0.91061 0.42913 0.33423 0.0
H24 H 0.96097 0.52864 0.32951 0.0
H25 H 0.00799 0.52966 0.31359 0.0
O26 O 0.05182 0.42122 0.17854 0.0
O27 O 0.0322 0.45067 0.16848 0.0
O28 O 0.20907 0.57541 0.36574 0.0
O29 O 0.21459 0.61725 0.34949 0.0
C30 C 0.0168 0.47204 0.28477 0.0
C31 C 0.04666 0.48106 0.27375 0.0
C32 C 0.0766 0.49996 0.28459 0.0
C33 C 0.07676 0.50782 0.30699 0.0
C34 C 0.04707 0.4988 0.318 0.0
C35 C 0.01715 0.48246 0.30653 0.0
C36 C 0.98579 0.45299 0.27261 0.0
C37 C 0.97702 0.42318 0.26596 0.0
C38 C 0.95485 0.40875 0.24876 0.0
C39 C 0.94062 0.42365 0.23833 0.0
C40 C 0.94671 0.45199 0.24664 0.0
C41 C 0.96935 0.46669 0.26363 0.0
C42 C 0.04674 0.47189 0.25037 0.0
C43 C 0.05674 0.45108 0.24531 0.0
C44 C 0.05547 0.44132 0.22351 0.0
C45 C 0.04424 0.45227 0.20638 0.0
C46 C 0.03475 0.47356 0.2115 0.0
C47 C 0.03618 0.48339 0.23328 0.0
C48 C 0.10748 0.51563 0.27166 0.0
C49 C 0.13327 0.51098 0.2764 0.0
C50 C 0.16406 0.53016 0.26683 0.0
C51 C 0.16926 0.55397 0.25222 0.0
C52 C 0.14274 0.55721 0.2466 0.0
C53 C 0.11224 0.53832 0.25628 0.0
C54 C 0.10819 0.52787 0.31849 0.0
C55 C 0.12069 0.51504 0.33307 0.0
C56 C 0.14991 0.53401 0.34425 0.0
C57 C 0.16718 0.56616 0.34095 0.0
C58 C 0.15456 0.57886 0.3262 0.0
C59 C 0.12528 0.55986 0.3151 0.0
C60 C 0.04809 0.50675 0.34169 0.0
C61 C 0.04788 0.48677 0.35779 0.0
C62 C 0.05753 0.497 0.37944 0.0
C63 C 0.06689 0.5273 0.38555 0.0
C64 C 0.06438 0.54633 0.36963 0.0
C65 C 0.05573 0.53637 0.34782 0.0
C66 C 0.98754 0.48046 0.31606 0.0
C67 C 0.95976 0.45219 0.32191 0.0
C68 C 0.93195 0.45131 0.33027 0.0
C69 C 0.93163 0.47876 0.33306 0.0
C70 C 0.95979 0.50694 0.32725 0.0
C71 C 0.98711 0.50768 0.31855 0.0
C72 C 0.04236 0.44144 0.18331 0.0
C73 C 0.19818 0.58643 0.35284 0.0
H74 H 0.506 0.0418 0.33357 0.0
H75 H 0.48162 0.19235 0.55748 0.0
H76 H 0.48036 0.98139 0.45794 0.0
H77 H 0.47308 0.94296 0.43066 0.0
H78 H 0.383 0.93543 0.40954 0.0
H79 H 0.38959 0.97234 0.43795 0.0
H80 H 0.50452 0.03365 0.43028 0.0
H81 H 0.51323 0.03636 0.39017 0.0
H82 H 0.42946 0.04593 0.38082 0.0
H83 H 0.42083 0.04282 0.42099 0.0
H84 H 0.52617 0.09568 0.44975 0.0
H85 H 0.55393 0.14791 0.43428 0.0
H86 H 0.46488 0.14934 0.4411 0.0
H87 H 0.43711 0.09668 0.45591 0.0
H88 H 0.51881 0.09871 0.50514 0.0
H89 H 0.53547 0.14387 0.5285 0.0
H90 H 0.43806 0.12857 0.52396 0.0
H91 H 0.42182 0.08349 0.50063 0.0
H92 H 0.49069 0.0311 0.52552 0.0
H93 H 0.49985 0.04571 0.56436 0.0
H94 H 0.40931 0.04522 0.5662 0.0
H95 H 0.40099 0.03138 0.52689 0.0
H96 H 0.46155 0.967 0.49526 0.0
H97 H 0.43321 0.9159 0.51217 0.0
H98 H 0.34881 0.92412 0.52363 0.0
H99 H 0.37648 0.97393 0.50475 0.0
O100 O 0.50215 0.04085 0.34939 0.0
O101 O 0.45908 0.046 0.34548 0.0
O102 O 0.52558 0.18183 0.54977 0.0
O103 O 0.47584 0.17487 0.54804 0.0
C104 C 0.44283 0.0065 0.46359 0.0
C105 C 0.45621 0.03539 0.45276 0.0
C106 C 0.46392 0.06193 0.46498 0.0
C107 C 0.4588 0.05974 0.48807 0.0
C108 C 0.4457 0.03099 0.49894 0.0
C109 C 0.43713 0.00418 0.48672 0.0
C110 C 0.43511 0.97908 0.45026 0.0
C111 C 0.45832 0.97033 0.4481 0.0
C112 C 0.45442 0.94882 0.43215 0.0
C113 C 0.42762 0.93624 0.41766 0.0
C114 C 0.40368 0.94416 0.42057 0.0
C115 C 0.40737 0.96531 0.43679 0.0
C116 C 0.46194 0.03783 0.42846 0.0
C117 C 0.48803 0.03621 0.41952 0.0
C118 C 0.49298 0.03784 0.39661 0.0
C119 C 0.472 0.0413 0.38228 0.0
C120 C 0.44603 0.04322 0.39138 0.0
C121 C 0.44108 0.04151 0.4143 0.0
C122 C 0.47971 0.09253 0.45397 0.0
C123 C 0.51259 0.10716 0.44756 0.0
C124 C 0.52843 0.13705 0.43891 0.0
C125 C 0.51168 0.15289 0.43661 0.0
C126 C 0.47839 0.1377 0.44244 0.0
C127 C 0.46255 0.10774 0.45104 0.0
C128 C 0.46919 0.088 0.50121 0.0
C129 C 0.50123 0.10533 0.50911 0.0
C130 C 0.51062 0.13103 0.52248 0.0
C131 C 0.48806 0.1398 0.52814 0.0
C132 C 0.45603 0.12246 0.51994 0.0
C133 C 0.44669 0.09677 0.50658 0.0
C134 C 0.44529 0.03031 0.52346 0.0
C135 C 0.47225 0.03302 0.53455 0.0
C136 C 0.4774 0.04141 0.55681 0.0
C137 C 0.45552 0.04709 0.5684 0.0
C138 C 0.42695 0.04162 0.55766 0.0
C139 C 0.42192 0.03334 0.53531 0.0
C140 C 0.42072 0.97376 0.49809 0.0
C141 C 0.43666 0.95739 0.50093 0.0
C142 C 0.42055 0.92836 0.5111 0.0
C143 C 0.38842 0.91546 0.51924 0.0
C144 C 0.3731 0.93268 0.51709 0.0
C145 C 0.38899 0.96137 0.50647 0.0
C146 C 0.47724 0.04288 0.35794 0.0
C147 C 0.49775 0.16678 0.54262 0.0
H148 H 0.62434 0.58061 0.80005 0.0
H149 H 0.59611 0.44407 0.56032 0.0
H150 H 0.58434 0.62438 0.69142 0.0
H151 H 0.56899 0.64261 0.7241 0.0
H152 H 0.47252 0.56098 0.72258 0.0
H153 H 0.48801 0.54302 0.68974 0.0
H154 H 0.62428 0.58836 0.70331 0.0
H155 H 0.63416 0.59114 0.74325 0.0
H156 H 0.53157 0.5252 0.7545 0.0
H157 H 0.52219 0.52227 0.71454 0.0
H158 H 0.63809 0.54631 0.66708 0.0
H159 H 0.65273 0.50929 0.68057 0.0
H160 H 0.5534 0.44919 0.70321 0.0
H161 H 0.53909 0.48589 0.68959 0.0
H162 H 0.63245 0.5647 0.62435 0.0
H163 H 0.64881 0.54091 0.59596 0.0
H164 H 0.55528 0.45618 0.60269 0.0
H165 H 0.53932 0.48029 0.6311 0.0
H166 H 0.60046 0.5955 0.60743 0.0
H167 H 0.60811 0.58498 0.56942 0.0
H168 H 0.51307 0.50105 0.57121 0.0
H169 H 0.50738 0.51044 0.60992 0.0
H170 H 0.54613 0.6212 0.64476 0.0
H171 H 0.50157 0.62896 0.63364 0.0
H172 H 0.43825 0.53039 0.62558 0.0
H173 H 0.48181 0.52301 0.63806 0.0
O174 O 0.61995 0.57898 0.78431 0.0
O175 O 0.56692 0.54533 0.7892 0.0
O176 O 0.63904 0.49726 0.56993 0.0
O177 O 0.59083 0.45359 0.57216 0.0
C178 C 0.54937 0.56778 0.67301 0.0
C179 C 0.56661 0.55448 0.68188 0.0
C180 C 0.57724 0.53925 0.66784 0.0
C181 C 0.5734 0.53982 0.64478 0.0
C182 C 0.55637 0.5533 0.63588 0.0
C183 C 0.54267 0.56568 0.65011 0.0
C184 C 0.53727 0.58242 0.6883 0.0
C185 C 0.55951 0.61108 0.69763 0.0
C186 C 0.55073 0.6214 0.71628 0.0
C187 C 0.51971 0.60299 0.72595 0.0
C188 C 0.49667 0.57544 0.7155 0.0
C189 C 0.50535 0.56531 0.69668 0.0
C190 C 0.57249 0.55542 0.70609 0.0
C191 C 0.60403 0.57448 0.71445 0.0
C192 C 0.60957 0.57606 0.73726 0.0
C193 C 0.58362 0.5585 0.75209 0.0
C194 C 0.55208 0.53912 0.74357 0.0
C195 C 0.54662 0.53749 0.72076 0.0
C196 C 0.58757 0.51876 0.67744 0.0
C197 C 0.61967 0.52522 0.67511 0.0
C198 C 0.62793 0.50409 0.68276 0.0
C199 C 0.60424 0.47643 0.69305 0.0
C200 C 0.57234 0.47052 0.69574 0.0
C201 C 0.5641 0.49142 0.68793 0.0
C202 C 0.58479 0.52415 0.62977 0.0
C203 C 0.61579 0.54085 0.61991 0.0
C204 C 0.62497 0.52725 0.60362 0.0
C205 C 0.60326 0.49668 0.59695 0.0
C206 C 0.57255 0.47977 0.60739 0.0
C207 C 0.56344 0.49339 0.6237 0.0
C208 C 0.55338 0.55381 0.61149 0.0
C209 C 0.58068 0.57555 0.59927 0.0
C210 C 0.58503 0.56933 0.57743 0.0
C211 C 0.56167 0.54156 0.56729 0.0
C212 C 0.5322 0.52207 0.57869 0.0
C213 C 0.52835 0.52786 0.60073 0.0
C214 C 0.51737 0.57158 0.64174 0.0
C215 C 0.52261 0.60142 0.64045 0.0
C216 C 0.49716 0.60577 0.63402 0.0
C217 C 0.46615 0.58028 0.62881 0.0
C218 C 0.46147 0.55055 0.62986 0.0
C219 C 0.48661 0.54628 0.63654 0.0
C220 C 0.58952 0.56045 0.77632 0.0
C221 C 0.61228 0.48262 0.57892 0.0
H222 H 0.01633 0.3667 0.96713 0.0
H223 H 0.22441 0.5331 0.74876 0.0
H224 H 0.96461 0.40538 0.84062 0.0
H225 H 0.91861 0.38099 0.86617 0.0
H226 H 0.93604 0.30644 0.8767 0.0
H227 H 0.9823 0.33116 0.85073 0.0
H228 H 0.01443 0.41679 0.88019 0.0
H229 H 0.01117 0.40068 0.91881 0.0
H230 H 0.05659 0.3491 0.90069 0.0
H231 H 0.05927 0.36505 0.86204 0.0
H232 H 0.08405 0.46203 0.86912 0.0
H233 H 0.13523 0.48815 0.88972 0.0
H234 H 0.17191 0.44163 0.85008 0.0
H235 H 0.12001 0.41472 0.8301 0.0
H236 H 0.10476 0.49348 0.82252 0.0
H237 H 0.15607 0.5331 0.80543 0.0
H238 H 0.1552 0.46389 0.76328 0.0
H239 H 0.1041 0.42447 0.7807 0.0
H240 H 0.04588 0.47517 0.79147 0.0
H241 H 0.05946 0.50215 0.75585 0.0
H242 H 0.05379 0.42302 0.72448 0.0
H243 H 0.03942 0.39598 0.76021 0.0
H244 H 0.97842 0.42555 0.79312 0.0
H245 H 0.92499 0.40025 0.77522 0.0
H246 H 0.91862 0.31237 0.7818 0.0
H247 H 0.97264 0.33813 0.7985 0.0
O248 O 0.01797 0.37288 0.95177 0.0
O249 O 0.04189 0.34714 0.94168 0.0
O250 O 0.20382 0.55249 0.77818 0.0
O251 O 0.20431 0.51785 0.75595 0.0
C252 C 0.00883 0.38892 0.83239 0.0
C253 C 0.03796 0.40097 0.84475 0.0
C254 C 0.06814 0.4224 0.83489 0.0
C255 C 0.06924 0.43231 0.81287 0.0
C256 C 0.04014 0.42044 0.80054 0.0
C257 C 0.01003 0.39804 0.81006 0.0
C258 C 0.9769 0.37015 0.8439 0.0
C259 C 0.95781 0.38322 0.84779 0.0
C260 C 0.93147 0.36919 0.86245 0.0
C261 C 0.92379 0.34185 0.87362 0.0
C262 C 0.94161 0.32767 0.86854 0.0
C263 C 0.96787 0.34164 0.85365 0.0
C264 C 0.03686 0.39188 0.86832 0.0
C265 C 0.02356 0.40193 0.88459 0.0
C266 C 0.02179 0.39274 0.90664 0.0
C267 C 0.03355 0.37353 0.91283 0.0
C268 C 0.04725 0.36384 0.89648 0.0
C269 C 0.04888 0.37296 0.87441 0.0
C270 C 0.09841 0.4365 0.84818 0.0
C271 C 0.10295 0.4571 0.86518 0.0
C272 C 0.13226 0.47216 0.87678 0.0
C273 C 0.15766 0.46708 0.87143 0.0
C274 C 0.15266 0.44575 0.85476 0.0
C275 C 0.12321 0.43056 0.84322 0.0
C276 C 0.10083 0.45614 0.80288 0.0
C277 C 0.11585 0.48692 0.80971 0.0
C278 C 0.14507 0.5095 0.79987 0.0
C279 C 0.15972 0.50166 0.78296 0.0
C280 C 0.14458 0.47072 0.77623 0.0
C281 C 0.11541 0.44816 0.78614 0.0
C282 C 0.04163 0.43365 0.77835 0.0
C283 C 0.04671 0.4634 0.77676 0.0
C284 C 0.05482 0.47888 0.75646 0.0
C285 C 0.05817 0.46493 0.73737 0.0
C286 C 0.05116 0.43435 0.73881 0.0
C287 C 0.04292 0.41882 0.75918 0.0
C288 C 0.97953 0.38371 0.79693 0.0
C289 C 0.96587 0.40098 0.79007 0.0
C290 C 0.9351 0.38639 0.78014 0.0
C291 C 0.91733 0.3542 0.77717 0.0
C292 C 0.9317 0.3372 0.78347 0.0
C293 C 0.96252 0.35185 0.79316 0.0
C294 C 0.03146 0.36367 0.93626 0.0
C295 C 0.1906 0.52561 0.77229 0.0
H296 H 0.36652 -0.00088 0.83667 0.0
H297 H 0.38336 0.8164 0.03049 0.0
H298 H 0.40412 0.05076 0.94687 0.0
H299 H 0.42517 0.08978 0.91738 0.0
H300 H 0.52255 0.10834 0.92928 0.0
H301 H 0.50133 0.06874 0.95806 0.0
H302 H 0.3635 0.97896 0.93237 0.0
H303 H 0.35479 0.98286 0.89284 0.0
H304 H 0.45867 0.02644 0.88111 0.0
H305 H 0.46693 0.02195 0.92057 0.0
H306 H 0.35179 0.91633 0.96231 0.0
H307 H 0.3403 0.86797 0.94499 0.0
H308 H 0.43775 0.91517 0.91707 0.0
H309 H 0.44885 0.96278 0.93433 0.0
H310 H 0.36618 0.93761 0.01548 0.0
H311 H 0.34826 0.88789 0.03333 0.0
H312 H 0.42512 0.88326 -0.00075 0.0
H313 H 0.44306 0.93317 0.98181 0.0
H314 H 0.40816 0.00642 0.03643 0.0
H315 H 0.41823 -0.00216 0.07488 0.0
H316 H 0.48707 0.97315 0.05164 0.0
H317 H 0.47736 0.9824 0.01355 0.0
H318 H 0.43301 0.07094 0.0009 0.0
H319 H 0.47135 0.11978 0.01933 0.0
H320 H 0.54306 0.09254 0.02169 0.0
H321 H 0.50516 0.04451 0.00313 0.0
O322 O 0.37044 -0.00262 0.85218 0.0
O323 O 0.42412 0.02033 0.84715 0.0
O324 O 0.35124 0.83986 0.04116 0.0
O325 O 0.39002 0.83615 0.02376 0.0
C326 C 0.43746 0.02664 0.96612 0.0
C327 C 0.42107 -0.00083 0.95351 0.0
C328 C 0.41125 0.97051 0.96355 0.0
C329 C 0.41634 0.96899 0.98644 0.0
C330 C 0.43318 0.99636 -0.00106 0.0
C331 C 0.44424 0.02525 0.98873 0.0
C332 C 0.45114 0.05672 0.95449 0.0
C333 C 0.43018 0.06415 0.94372 0.0
C334 C 0.44217 0.08631 0.92685 0.0
C335 C 0.47539 0.10176 0.92095 0.0
C336 C 0.49689 0.09693 0.93361 0.0
C337 C 0.48481 0.07438 0.95017 0.0
C338 C 0.41585 0.00048 0.92935 0.0
C339 C 0.38429 0.98918 0.9212 0.0
C340 C 0.37942 0.99152 0.89863 0.0
C341 C 0.40606 0.00513 0.88383 0.0
C342 C 0.43762 0.01594 0.89206 0.0
C343 C 0.44243 0.01349 0.91459 0.0
C344 C 0.40114 0.94303 0.94955 0.0
C345 C 0.37021 0.91627 0.9519 0.0
C346 C 0.36379 0.88872 0.94211 0.0
C347 C 0.38816 0.8877 0.92973 0.0
C348 C 0.41822 0.91516 0.92615 0.0
C349 C 0.42466 0.94249 0.93603 0.0
C350 C 0.40566 0.9388 -0.0028 0.0
C351 C 0.37909 0.9258 0.01192 0.0
C352 C 0.36892 0.89741 0.02207 0.0
C353 C 0.38519 0.88154 0.01764 0.0
C354 C 0.41198 0.8948 0.00297 0.0
C355 C 0.42221 0.92324 0.99292 0.0
C356 C 0.44174 0.99464 0.02228 0.0
C357 C 0.4258 -0.00031 0.03977 0.0
C358 C 0.43151 0.99468 0.06165 0.0
C359 C 0.45335 0.98469 0.06629 0.0
C360 C 0.47043 0.98121 0.0487 0.0
C361 C 0.46467 0.98615 0.02691 0.0
C362 C 0.46616 0.05402 0.00098 0.0
C363 C 0.45691 0.07551 0.00563 0.0
C364 C 0.47877 0.1033 0.0161 0.0
C365 C 0.51002 0.10975 0.02219 0.0
C366 C 0.5189 0.08792 0.01771 0.0
C367 C 0.49728 0.06046 0.00709 0.0
C368 C 0.40089 0.00811 0.85994 0.0
C369 C 0.37437 0.85129 0.02827 0.0
H370 H 0.67458 0.65002 0.98957 0.0
H371 H 0.71878 0.51176 0.21555 0.0
H372 H 0.59226 0.62871 0.11893 0.0
H373 H 0.57117 0.65228 0.09436 0.0
H374 H 0.66975 0.72605 0.07974 0.0
H375 H 0.69076 0.70212 0.10472 0.0
H376 H 0.62594 0.61261 0.08013 0.0
H377 H 0.6367 0.6233 0.04049 0.0
H378 H 0.74037 0.67715 0.05361 0.0
H379 H 0.72921 0.66658 0.09328 0.0
H380 H 0.64782 0.56843 0.09318 0.0
H381 H 0.66882 0.53916 0.07494 0.0
H382 H 0.75986 0.59235 0.11017 0.0
H383 H 0.73892 0.62208 0.12782 0.0
H384 H 0.63727 0.54332 0.14115 0.0
H385 H 0.6461 0.50561 0.16015 0.0
H386 H 0.72528 0.57933 0.19706 0.0
H387 H 0.71643 0.61682 0.17772 0.0
H388 H 0.60245 0.56502 0.17302 0.0
H389 H 0.59214 0.54321 0.21041 0.0
H390 H 0.67604 0.62749 0.23406 0.0
H391 H 0.68562 0.64928 0.19662 0.0
H392 H 0.58671 0.61147 0.16595 0.0
H393 H 0.55966 0.63617 0.18287 0.0
H394 H 0.64805 0.72517 0.17476 0.0
H395 H 0.67516 0.70011 0.15842 0.0
O396 O 0.67088 0.64609 0.00532 0.0
O397 O 0.72395 0.67329 0.01292 0.0
O398 O 0.6745 0.48921 0.18791 0.0
O399 O 0.71504 0.52621 0.20759 0.0
C400 C 0.65514 0.64612 0.12569 0.0
C401 C 0.67016 0.63283 0.11366 0.0
C402 C 0.67785 0.61272 0.12442 0.0
C403 C 0.67004 0.60543 0.14702 0.0
C404 C 0.65494 0.6186 0.15901 0.0
C405 C 0.64817 0.63951 0.14853 0.0
C406 C 0.64301 0.66372 0.11365 0.0
C407 C 0.60929 0.65048 0.111 0.0
C408 C 0.59729 0.66405 0.09693 0.0
C409 C 0.61881 0.69107 0.08508 0.0
C410 C 0.65261 0.70512 0.08854 0.0
C411 C 0.66462 0.69159 0.10283 0.0
C412 C 0.67679 0.63902 0.08956 0.0
C413 C 0.65094 0.62683 0.07441 0.0
C414 C 0.65717 0.63291 0.05177 0.0
C415 C 0.6894 0.65113 0.04387 0.0
C416 C 0.71526 0.66308 0.05914 0.0
C417 C 0.70898 0.65705 0.08179 0.0
C418 C 0.69192 0.59736 0.11174 0.0
C419 C 0.67253 0.57414 0.09657 0.0
C420 C 0.68445 0.55729 0.08635 0.0
C421 C 0.71592 0.56333 0.09123 0.0
C422 C 0.73567 0.58738 0.10588 0.0
C423 C 0.72374 0.60426 0.11606 0.0
C424 C 0.67628 0.58276 0.15803 0.0
C425 C 0.65669 0.55127 0.15321 0.0
C426 C 0.6617 0.52979 0.16414 0.0
C427 C 0.68637 0.53946 0.18017 0.0
C428 C 0.70606 0.5711 0.18484 0.0
C429 C 0.70108 0.59256 0.17383 0.0
C430 C 0.64476 0.60867 0.18221 0.0
C431 C 0.61796 0.57906 0.18645 0.0
C432 C 0.61235 0.56654 0.20774 0.0
C433 C 0.63356 0.58344 0.22513 0.0
C434 C 0.6591 0.61395 0.22108 0.0
C435 C 0.66464 0.62649 0.19973 0.0
C436 C 0.63295 0.65398 0.16109 0.0
C437 C 0.60046 0.6362 0.16835 0.0
C438 C 0.58496 0.6504 0.17778 0.0
C439 C 0.60166 0.68266 0.18003 0.0
C440 C 0.63462 0.70027 0.17349 0.0
C441 C 0.6501 0.68603 0.16406 0.0
C442 C 0.69592 0.65757 0.01981 0.0
C443 C 0.69152 0.5167 0.19205 0.0
C444 C 0.74146 0.48522 0.39654 0.0
O445 O 0.7456 0.51048 0.40382 0.0
Cd446 Cd 0.70149 0.51681 0.41648 0.0
O447 O 0.71298 0.46133 0.39547 0.0
Cd448 Cd 0.65566 0.4449 0.40343 0.0
C449 C 0.65763 0.49826 0.36822 0.0
O450 O 0.66434 0.47289 0.4382 0.0
O451 O 0.61529 0.44887 0.42502 0.0
O452 O 0.65149 0.39786 0.4164 0.0
C453 C 0.63469 0.46533 0.4402 0.0
O454 O 0.67439 0.51807 0.383 0.0
C455 C 0.62657 0.3796 0.40508 0.0
O456 O 0.64935 0.47009 0.37046 0.0
O457 O 0.61504 0.39174 0.39247 0.0
C458 C 0.27466 0.58945 0.57287 0.0
O459 O 0.25182 0.56472 0.5644 0.0
Cd460 Cd 0.20203 0.55778 0.54949 0.0
O461 O 0.27237 0.61332 0.57428 0.0
Cd462 Cd 0.23205 0.62854 0.56506 0.0
C463 C 0.17293 0.57138 0.59737 0.0
O464 O 0.21703 0.60335 0.52901 0.0
O465 O 0.19004 0.62435 0.53959 0.0
O466 O 0.28132 0.67833 0.55787 0.0
C467 C 0.19532 0.60976 0.52485 0.0
O468 O 0.16969 0.55305 0.58187 0.0
C469 C 0.27064 0.69438 0.56619 0.0
O470 O 0.19524 0.59987 0.59648 0.0
O471 O 0.2423 0.67979 0.57484 0.0
C472 C 0.68028 0.22965 0.73714 0.0
O473 O 0.6667 0.20078 0.73414 0.0
Cd474 Cd 0.60936 0.16741 0.72656 0.0
O475 O 0.6637 0.24271 0.73615 0.0
Cd476 Cd 0.60711 0.22937 0.72916 0.0
C477 C 0.57534 0.17928 0.77245 0.0
O478 O 0.59728 0.19393 0.69906 0.0
O479 O 0.55576 0.19703 0.70876 0.0
O480 O 0.62962 0.27963 0.71105 0.0
C481 C 0.56769 0.18554 0.69598 0.0
O482 O 0.57896 0.1603 0.76088 0.0
C483 C 0.61388 0.28813 0.72302 0.0
O484 O 0.58568 0.20653 0.76551 0.0
O485 O 0.59498 0.26921 0.73767 0.0
C486 C 0.38762 0.59836 0.92319 0.0
O487 O 0.40424 0.58786 0.93148 0.0
Cd488 Cd 0.46201 0.622 0.93557 0.0
O489 O 0.40122 0.62677 0.91802 0.0
Cd490 Cd 0.45339 0.67637 0.91849 0.0
C491 C 0.4818 0.64635 0.88131 0.0
O492 O 0.46893 0.66712 0.9542 0.0
O493 O 0.50703 0.70674 0.93656 0.0
O494 O 0.41899 0.69594 0.92962 0.0
C495 C 0.49731 0.69097 0.95431 0.0
O496 O 0.48186 0.62981 0.8972 0.0
C497 C 0.43036 0.71793 0.91572 0.0
O498 O 0.47195 0.665 0.88437 0.0
O499 O 0.45312 0.72106 0.90303 0.0
C500 C 0.79996 0.42682 0.04757 0.0
O501 O 0.82892 0.43778 0.04048 0.0
Cd502 Cd 0.8507 0.40531 0.03404 0.0
O503 O 0.78164 0.39803 0.05138 0.0
Cd504 Cd 0.78377 0.35049 0.04922 0.0
C505 C 0.84489 0.37825 0.0866 0.0
O506 O 0.80934 0.36241 0.01305 0.0
O507 O 0.80729 0.32362 0.02945 0.0
O508 O 0.72627 0.32511 0.03939 0.0
C509 C 0.81278 0.33936 0.01187 0.0
O510 O 0.86398 0.39431 0.07085 0.0
C511 C 0.71693 0.30245 0.05253 0.0
O512 O 0.81429 0.36166 0.08348 0.0
O513 O 0.73871 0.30232 0.06437 0.0
C514 C 0.35908 0.7602 0.22446 0.0
O515 O 0.34955 0.77862 0.21949 0.0
Cd516 Cd 0.38386 0.83327 0.219 0.0
O517 O 0.38912 0.77001 0.22818 0.0
Cd518 Cd 0.44418 0.81809 0.22682 0.0
C519 C 0.42066 0.84402 0.27075 0.0
O520 O 0.42769 0.83826 0.19774 0.0
O521 O 0.47729 0.86937 0.20766 0.0
O522 O 0.45583 0.78312 0.20802 0.0
C523 C 0.45355 0.86418 0.19536 0.0
O524 O 0.40058 0.84535 0.25767 0.0
C525 C 0.48183 0.79033 0.21836 0.0
O526 O 0.43953 0.8349 0.26406 0.0
O527 O 0.49117 0.8113 0.23295 0.0
H528 H 0.22555 0.58185 0.27661 0.0
H529 H 0.30184 0.72886 0.20206 0.0
H530 H 0.18869 0.58132 0.21134 0.0
H531 H 0.36133 0.71588 0.24913 0.0
H532 H 0.26014 0.67433 0.20547 0.0
H533 H 0.27646 0.62934 0.26696 0.0
C534 C 0.22849 0.59118 0.26003 0.0
C535 C 0.20257 0.5779 0.24488 0.0
C536 C 0.28248 0.68327 0.21486 0.0
C537 C 0.26028 0.6326 0.23404 0.0
C538 C 0.30615 0.71444 0.21307 0.0
C539 C 0.33486 0.72688 0.22552 0.0
C540 C 0.28718 0.66451 0.22961 0.0
C541 C 0.33941 0.70712 0.23931 0.0
C542 C 0.25749 0.61842 0.2546 0.0
C543 C 0.2077 0.59123 0.22372 0.0
N544 N 0.3155 0.67692 0.2413 0.0
N545 N 0.2357 0.6182 0.21909 0.0
H546 H 0.49071 0.1819 0.40856 0.0
H547 H 0.6493 0.34852 0.42829 0.0
H548 H 0.57283 0.1988 0.44863 0.0
H549 H 0.56896 0.33382 0.38714 0.0
H550 H 0.6225 0.29309 0.43403 0.0
H551 H 0.51954 0.23681 0.3989 0.0
C552 C 0.51481 0.19713 0.41529 0.0
C553 C 0.52936 0.1857 0.42944 0.0
C554 C 0.61072 0.30188 0.42365 0.0
C555 C 0.56251 0.24846 0.41838 0.0
C556 C 0.62605 0.33359 0.42036 0.0
C557 C 0.61126 0.34584 0.40731 0.0
C558 C 0.58022 0.28212 0.41393 0.0
C559 C 0.58118 0.32534 0.39736 0.0
C560 C 0.5313 0.22842 0.40969 0.0
C561 C 0.5608 0.20642 0.43743 0.0
N562 N 0.56652 0.29445 0.40099 0.0
N563 N 0.5762 0.23674 0.43188 0.0
H564 H 0.40153 0.54299 0.63988 0.0
H565 H 0.33602 0.63976 0.57975 0.0
H566 H 0.4672 0.62651 0.60381 0.0
H567 H 0.27943 0.54062 0.58622 0.0
H568 H 0.38371 0.6396 0.59457 0.0
H569 H 0.35558 0.54646 0.62674 0.0
C570 C 0.40639 0.56203 0.62912 0.0
C571 C 0.43841 0.58412 0.62255 0.0
C572 C 0.36079 0.61797 0.59269 0.0
C573 C 0.38563 0.5886 0.60799 0.0
C574 C 0.33361 0.61801 0.58434 0.0
C575 C 0.30377 0.59013 0.5817 0.0
C576 C 0.35777 0.58993 0.59889 0.0
C577 C 0.30199 0.56262 0.58784 0.0
C578 C 0.38007 0.56404 0.62174 0.0
C579 C 0.44303 0.60893 0.6093 0.0
N580 N 0.32853 0.56324 0.59629 0.0
N581 N 0.41688 0.61048 0.60238 0.0
H582 H 0.86973 0.36746 0.78607 0.0
H583 H 0.72592 0.21273 0.73333 0.0
H584 H 0.88659 0.30362 0.74989 0.0
H585 H 0.71534 0.28939 0.75137 0.0
H586 H 0.78432 0.24431 0.74126 0.0
H587 H 0.81266 0.33828 0.77487 0.0
C588 C 0.86164 0.3476 0.77549 0.0
C589 C 0.88315 0.33803 0.76896 0.0
C590 C 0.76921 0.25423 0.74338 0.0
C591 C 0.81743 0.30398 0.75658 0.0
C592 C 0.73585 0.23618 0.73896 0.0
C593 C 0.71568 0.2484 0.74174 0.0
C594 C 0.78241 0.28459 0.75088 0.0
C595 C 0.72994 0.279 0.74898 0.0
C596 C 0.82892 0.3308 0.76925 0.0
C597 C 0.87086 0.31162 0.75566 0.0
N598 N 0.76239 0.29597 0.75342 0.0
N599 N 0.83878 0.2954 0.75006 0.0
H600 H 0.40825 0.87356 0.89122 0.0
H601 H 0.38359 0.7173 0.94199 0.0
H602 H 0.36087 0.83428 0.95388 0.0
H603 H 0.44855 0.76658 0.88733 0.0
H604 H 0.3656 0.7543 0.94196 0.0
H605 H 0.41306 0.82849 0.8849 0.0
C606 C 0.39837 0.85523 0.90347 0.0
C607 C 0.38454 0.85791 0.92325 0.0
C608 C 0.38362 0.7569 0.92986 0.0
C609 C 0.38998 0.80638 0.91611 0.0
C610 C 0.39395 0.73582 0.92988 0.0
C611 C 0.41795 0.73914 0.91482 0.0
C612 C 0.39734 0.7815 0.91467 0.0
C613 C 0.43026 0.76338 0.89938 0.0
C614 C 0.40115 0.82955 0.89985 0.0
C615 C 0.37158 0.8332 0.93835 0.0
N616 N 0.41998 0.7838 0.89981 0.0
N617 N 0.37499 0.80866 0.93459 0.0
H618 H 0.68106 0.50061 0.08727 0.0
H619 H 0.8329 0.48993 0.04415 0.0
H620 H 0.77672 0.5804 0.07507 0.0
H621 H 0.73848 0.41092 0.06073 0.0
H622 H 0.81193 0.52358 0.05268 0.0
H623 H 0.70075 0.46759 0.07454 0.0
C624 C 0.70612 0.51123 0.08163 0.0
C625 C 0.72728 0.54334 0.08223 0.0
C626 C 0.7958 0.49887 0.05437 0.0
C627 C 0.75019 0.50556 0.06798 0.0
C628 C 0.80774 0.47963 0.04949 0.0
C629 C 0.78747 0.44754 0.05184 0.0
C630 C 0.76337 0.48593 0.06161 0.0
C631 C 0.75506 0.43552 0.05879 0.0
C632 C 0.71743 0.49232 0.07452 0.0
C633 C 0.75969 0.55574 0.07512 0.0
N634 N 0.74407 0.45472 0.06347 0.0
N635 N 0.77019 0.53681 0.06834 0.0
H636 H 0.32258 0.87194 0.51777 0.0
H637 H 0.33626 0.73251 0.55943 0.0
H638 H 0.41345 0.88639 0.5438 0.0
H639 H 0.24715 0.73323 0.56727 0.0
H640 H 0.36543 0.78786 0.55108 0.0
H641 H 0.29444 0.81996 0.53316 0.0
C642 C 0.3367 0.86453 0.52694 0.0
C643 C 0.37069 0.88394 0.52936 0.0
C644 C 0.33959 0.77594 0.55493 0.0
C645 C 0.33838 0.82372 0.54643 0.0
C646 C 0.32294 0.74441 0.55965 0.0
C647 C 0.28925 0.72831 0.564 0.0
C648 C 0.32224 0.79126 0.55399 0.0
C649 C 0.27314 0.74482 0.56408 0.0
C650 C 0.3205 0.83468 0.53564 0.0
C651 C 0.38745 0.87228 0.54099 0.0
N652 N 0.28969 0.77532 0.55877 0.0
N653 N 0.3712 0.84284 0.54885 0.0
H654 H 0.58611 0.44251 0.73134 0.0
H655 H 0.6487 0.33173 0.6911 0.0
H656 H 0.63916 0.45622 0.67029 0.0
H657 H 0.58618 0.31351 0.74792 0.0
H658 H 0.65138 0.38079 0.68551 0.0
H659 H 0.59231 0.39887 0.74015 0.0
C660 C 0.59927 0.43643 0.71986 0.0
C661 C 0.61181 0.45278 0.69994 0.0
C662 C 0.63722 0.36611 0.69926 0.0
C663 C 0.619 0.40282 0.70988 0.0
C664 C 0.63567 0.33811 0.70246 0.0
C665 C 0.61697 0.31841 0.7199 0.0
C666 C 0.62002 0.37446 0.71364 0.0
C667 C 0.60069 0.32788 0.73416 0.0
C668 C 0.60284 0.41154 0.7249 0.0
C669 C 0.6292 0.44431 0.68586 0.0
N670 N 0.6025 0.35516 0.73066 0.0
N671 N 0.63201 0.41969 0.691 0.0
H672 H 0.19041 0.52848 0.88092 0.0
H673 H 0.3513 0.53497 0.92456 0.0
H674 H 0.19866 0.44792 0.88598 0.0
H675 H 0.34378 0.61484 0.91179 0.0
H676 H 0.29367 0.5018 0.91457 0.0
H677 H 0.24473 0.55947 0.89657 0.0
C678 C 0.20349 0.51721 0.8856 0.0
C679 C 0.18996 0.48554 0.88214 0.0
C680 C 0.30468 0.52659 0.91409 0.0
C681 C 0.25263 0.52111 0.89971 0.0
C682 C 0.3375 0.54552 0.91984 0.0
C683 C 0.35244 0.57772 0.91882 0.0
C684 C 0.28676 0.54003 0.90742 0.0
C685 C 0.33341 0.59015 0.91261 0.0
C686 C 0.23466 0.53499 0.89439 0.0
C687 C 0.20836 0.47234 0.88813 0.0
N688 N 0.30165 0.57129 0.90709 0.0
N689 N 0.23886 0.49022 0.89657 0.0
H690 H 0.5247 0.16721 0.00896 0.0
H691 H 0.69018 0.25014 0.078 0.0
H692 H 0.55142 0.12088 0.05678 0.0
H693 H 0.66581 0.29562 0.02786 0.0
H694 H 0.6352 0.20491 0.07512 0.0
H695 H 0.57143 0.21659 0.02061 0.0
C696 C 0.54 0.1675 0.02225 0.0
C697 C 0.5345 0.13992 0.03171 0.0
C698 C 0.64175 0.22491 0.06492 0.0
C699 C 0.58827 0.19618 0.04484 0.0
C700 C 0.67315 0.25074 0.06656 0.0
C701 C 0.68272 0.2765 0.05291 0.0
C702 C 0.61983 0.22477 0.04944 0.0
C703 C 0.65956 0.27611 0.03852 0.0
C704 C 0.56682 0.19566 0.02878 0.0
C705 C 0.55522 0.1416 0.04875 0.0
N706 N 0.6293 0.25051 0.03698 0.0
N707 N 0.58141 0.16922 0.05458 0.0
H708 H 0.62307 0.73199 0.20827 0.0
H709 H 0.4638 0.74248 0.19018 0.0
H710 H 0.54044 0.66874 0.16853 0.0
H711 H 0.54037 0.80175 0.23551 0.0
H712 H 0.49261 0.71592 0.18203 0.0
H713 H 0.59423 0.75845 0.2185 0.0
C714 C 0.59886 0.72362 0.20175 0.0
C715 C 0.5841 0.69803 0.18758 0.0
C716 C 0.5032 0.73468 0.1938 0.0
C717 C 0.55108 0.72814 0.19918 0.0
C718 C 0.48676 0.74996 0.19844 0.0
C719 C 0.49972 0.77444 0.21354 0.0
C720 C 0.53302 0.74393 0.20423 0.0
C721 C 0.52953 0.783 0.22375 0.0
C722 C 0.58239 0.73866 0.20766 0.0
C723 C 0.5526 0.68803 0.17977 0.0
N724 N 0.54527 0.76778 0.21887 0.0
N725 N 0.53726 0.70316 0.1856 0.0
H726 H 0.9089 0.51681 0.32175 0.0
H727 H 0.7469 0.43431 0.39342 0.0
H728 H 0.88697 0.43983 0.36447 0.0
H729 H 0.79994 0.53236 0.38089 0.0
H730 H 0.79297 0.4318 0.37814 0.0
H731 H 0.86351 0.51859 0.33828 0.0
C732 C 0.8948 0.50037 0.3347 0.0
C733 C 0.90236 0.47844 0.34194 0.0
C734 C 0.79449 0.45383 0.37887 0.0
C735 C 0.84947 0.47986 0.36038 0.0
C736 C 0.76826 0.4553 0.3875 0.0
C737 C 0.76966 0.48361 0.38843 0.0
C738 C 0.8219 0.48072 0.37062 0.0
C739 C 0.79793 0.51011 0.38059 0.0
C740 C 0.86875 0.50137 0.34403 0.0
C741 C 0.8821 0.45703 0.3582 0.0
N742 N 0.82281 0.50796 0.37178 0.0
N743 N 0.85651 0.45822 0.36684 0.0
H744 H 0.05527 0.49625 0.42551 0.0
H745 H 0.16933 0.63766 0.50119 0.0
H746 H 0.11395 0.58709 0.39628 0.0
H747 H 0.17492 0.55557 0.5035 0.0
H748 H 0.13535 0.61776 0.46777 0.0
H749 H 0.08578 0.51629 0.45993 0.0
C750 C 0.07433 0.52033 0.42618 0.0
C751 C 0.08206 0.53978 0.40759 0.0
C752 C 0.14401 0.60419 0.47573 0.0
C753 C 0.11589 0.56288 0.44737 0.0
C754 C 0.16325 0.61542 0.49469 0.0
C755 C 0.17503 0.59826 0.50487 0.0
C756 C 0.13569 0.57521 0.4675 0.0
C757 C 0.16654 0.56958 0.49592 0.0
C758 C 0.09152 0.53169 0.44592 0.0
C759 C 0.10645 0.5711 0.41003 0.0
N760 N 0.14704 0.55874 0.47781 0.0
N761 N 0.12241 0.58168 0.42956 0.0
H762 H 0.44606 0.09253 0.58422 0.0
H763 H 0.58036 0.14467 0.67623 0.0
H764 H 0.48714 0.03735 0.60253 0.0
H765 H 0.5097 0.17306 0.67791 0.0
H766 H 0.54803 0.1068 0.64785 0.0
H767 H 0.46925 0.12307 0.61766 0.0
C768 C 0.45925 0.08628 0.59549 0.0
C769 C 0.46479 0.06235 0.59039 0.0
C770 C 0.53945 0.12114 0.65455 0.0
C771 C 0.49234 0.09804 0.62833 0.0
C772 C 0.558 0.14289 0.67062 0.0
C773 C 0.54776 0.16212 0.67929 0.0
C774 C 0.51077 0.11899 0.64678 0.0
C775 C 0.51844 0.15867 0.67159 0.0
C776 C 0.47272 0.10396 0.6145 0.0
C777 C 0.48279 0.05594 0.60549 0.0
N778 N 0.50112 0.13775 0.65553 0.0
N779 N 0.49632 0.07397 0.62358 0.0
H780 H 0.5299 0.65827 0.74113 0.0
H781 H 0.49131 0.60058 0.86682 0.0
H782 H 0.49584 0.56484 0.76167 0.0
H783 H 0.49185 0.68163 0.84418 0.0
H784 H 0.50075 0.59075 0.82882 0.0
H785 H 0.52258 0.67043 0.77932 0.0
C786 C 0.52065 0.64032 0.75366 0.0
C787 C 0.51307 0.61045 0.74827 0.0
C788 C 0.49889 0.61074 0.83219 0.0
C789 C 0.50533 0.62423 0.7918 0.0
C790 C 0.49373 0.6165 0.85391 0.0
C791 C 0.49063 0.64191 0.85871 0.0
C792 C 0.5013 0.63065 0.81511 0.0
C793 C 0.49391 0.66168 0.84122 0.0
C794 C 0.5165 0.64723 0.77538 0.0
C795 C 0.50137 0.58801 0.76507 0.0
N796 N 0.49907 0.65564 0.82017 0.0
N797 N 0.49805 0.59541 0.7861 0.0
H798 H 0.86481 0.3384 0.87574 0.0
H799 H 0.84229 0.30563 0.00626 0.0
H800 H 0.92924 0.32082 0.91429 0.0
H801 H 0.8082 0.35705 0.97028 0.0
H802 H 0.86374 0.29791 0.97136 0.0
H803 H 0.83243 0.33094 0.90909 0.0
C804 C 0.87186 0.3325 0.89114 0.0
C805 C 0.90009 0.33074 0.89229 0.0
C806 C 0.85125 0.3106 0.97117 0.0
C807 C 0.86311 0.32211 0.93046 0.0
C808 C 0.83902 0.31497 0.991 0.0
C809 C 0.82387 0.33233 0.99112 0.0
C810 C 0.84765 0.32319 0.9514 0.0
C811 C 0.82014 0.34389 0.97094 0.0
C812 C 0.85338 0.32826 0.91015 0.0
C813 C 0.90764 0.32235 0.91261 0.0
N814 N 0.83199 0.33915 0.95192 0.0
N815 N 0.88949 0.31873 0.93099 0.0
H816 H 0.5082 0.99441 0.0882 0.0
H817 H 0.4021 0.86482 0.17747 0.0
H818 H 0.4038 0.9512 0.09573 0.0
H819 H 0.50746 0.91572 0.17786 0.0
H820 H 0.40328 0.89981 0.14942 0.0
H821 H 0.5097 0.96978 0.12275 0.0
C822 C 0.48567 0.98008 0.09727 0.0
C823 C 0.45577 0.97461 0.08893 0.0
C824 C 0.42623 0.90362 0.15571 0.0
C825 C 0.45732 0.94636 0.12837 0.0
C826 C 0.42556 0.88354 0.1717 0.0
C827 C 0.45475 0.88719 0.17979 0.0
C828 C 0.45632 0.92736 0.14742 0.0
C829 C 0.48442 0.91206 0.17194 0.0
C830 C 0.48657 0.96612 0.11701 0.0
C831 C 0.42743 0.95624 0.10153 0.0
N832 N 0.48447 0.93102 0.15591 0.0
N833 N 0.42886 0.94249 0.12043 0.0
H834 H 0.62063 0.52492 0.23271 0.0
H835 H 0.66264 0.55369 0.36126 0.0
H836 H 0.64139 0.6078 0.26685 0.0
H837 H 0.63256 0.46705 0.32913 0.0
H838 H 0.65188 0.57259 0.32722 0.0
H839 H 0.62135 0.502 0.2681 0.0
C840 C 0.62477 0.53813 0.24769 0.0
C841 C 0.63097 0.56839 0.24679 0.0
C842 C 0.64741 0.54937 0.3276 0.0
C843 C 0.63254 0.54244 0.28736 0.0
C844 C 0.65363 0.53854 0.34705 0.0
C845 C 0.6488 0.5088 0.34801 0.0
C846 C 0.63651 0.53047 0.30881 0.0
C847 C 0.63675 0.49017 0.32912 0.0
C848 C 0.62541 0.52508 0.2679 0.0
C849 C 0.6369 0.58458 0.26672 0.0
N850 N 0.6313 0.50142 0.31021 0.0
N851 N 0.63773 0.57148 0.28616 0.0
H852 H 0.37341 0.88698 0.3987 0.0
H853 H 0.47138 0.86504 0.30021 0.0
H854 H 0.47844 0.94256 0.39219 0.0
H855 H 0.37208 0.8439 0.29433 0.0
H856 H 0.47293 0.88345 0.33807 0.0
H857 H 0.37137 0.86078 0.36428 0.0
C858 C 0.39606 0.89361 0.39017 0.0
C859 C 0.42611 0.91732 0.39836 0.0
C860 C 0.45078 0.87455 0.32847 0.0
C861 C 0.42388 0.88692 0.35918 0.0
C862 C 0.44984 0.86398 0.30695 0.0
C863 C 0.42168 0.85326 0.29407 0.0
C864 C 0.42316 0.87377 0.33721 0.0
C865 C 0.39444 0.85237 0.30359 0.0
C866 C 0.39484 0.87853 0.37058 0.0
C867 C 0.4547 0.92425 0.38678 0.0
N868 N 0.39585 0.86249 0.32458 0.0
N869 N 0.45286 0.90923 0.36773 0.0
H870 H 0.60078 0.5764 0.53205 0.0
H871 H 0.57391 0.43681 0.45845 0.0
H872 H 0.54267 0.48226 0.55557 0.0
H873 H 0.66941 0.51895 0.46348 0.0
H874 H 0.55469 0.45587 0.48858 0.0
H875 H 0.61918 0.55823 0.50095 0.0
C876 C 0.59165 0.55198 0.53072 0.0
C877 C 0.56996 0.53094 0.54664 0.0
C878 C 0.57983 0.46965 0.48303 0.0
C879 C 0.59033 0.51016 0.51073 0.0
C880 C 0.59078 0.45887 0.4659 0.0
C881 C 0.62331 0.4763 0.45867 0.0
C882 C 0.60132 0.49841 0.4925 0.0
C883 C 0.64423 0.50474 0.46881 0.0
C884 C 0.60217 0.54172 0.51293 0.0
C885 C 0.55862 0.49944 0.54358 0.0
N886 N 0.63278 0.51512 0.48514 0.0
N887 N 0.56883 0.49004 0.52596 0.0
H888 H 0.10763 0.52517 0.73275 0.0
H889 H 0.11666 0.51536 0.60139 0.0
H890 H 0.0395 0.44586 0.69449 0.0
H891 H 0.18093 0.59741 0.6386 0.0
H892 H 0.08546 0.49128 0.63502 0.0
H893 H 0.13196 0.5535 0.69842 0.0
C894 C 0.0974 0.51383 0.71713 0.0
C895 C 0.07143 0.483 0.71654 0.0
C896 C 0.10619 0.51465 0.63586 0.0
C897 C 0.09971 0.51526 0.67709 0.0
C898 C 0.12408 0.52846 0.61662 0.0
C899 C 0.15172 0.55838 0.6172 0.0
C900 C 0.11607 0.53069 0.65596 0.0
C901 C 0.15988 0.57428 0.63739 0.0
C902 C 0.11149 0.53001 0.69751 0.0
C903 C 0.05973 0.46941 0.69577 0.0
N904 N 0.14235 0.5601 0.65604 0.0
N905 N 0.07407 0.48556 0.6769 0.0
H906 H 0.52954 0.15856 0.91201 0.0
H907 H 0.53091 0.12074 0.78594 0.0
H908 H 0.4474 0.08052 0.88085 0.0
H909 H 0.58146 0.21522 0.80808 0.0
H910 H 0.50352 0.10449 0.82195 0.0
H911 H 0.55217 0.17967 0.87512 0.0
C912 C 0.51602 0.14625 0.8974 0.0
C913 C 0.48654 0.1179 0.8994 0.0
C914 C 0.52046 0.12879 0.81885 0.0
C915 C 0.51255 0.14125 0.85751 0.0
C916 C 0.53627 0.13805 0.7984 0.0
C917 C 0.55852 0.16935 0.79408 0.0
C918 C 0.52749 0.1509 0.83527 0.0
C919 C 0.56439 0.19085 0.81076 0.0
C920 C 0.5289 0.15823 0.87644 0.0
C921 C 0.47001 0.10263 0.88002 0.0
N922 N 0.54923 0.18119 0.83078 0.0
N923 N 0.4835 0.11426 0.85987 0.0
H924 H 0.56411 0.69528 0.0867 0.0
H925 H 0.56422 0.72591 0.95668 0.0
H926 H 0.64333 0.7115 0.0433 0.0
H927 H 0.47748 0.67415 -0.00316 0.0
H928 H 0.59769 0.73472 0.98984 0.0
H929 H 0.53682 0.70266 0.05527 0.0
C930 C 0.576 0.70086 0.07063 0.0
C931 C 0.60573 0.70218 0.06753 0.0
C932 C 0.57132 0.72176 0.99134 0.0
C933 C 0.57474 0.71078 0.03159 0.0
C934 C 0.55228 0.71677 0.9725 0.0
C935 C 0.51811 0.69894 0.97406 0.0
C936 C 0.55595 0.70933 0.01179 0.0
C937 C 0.50377 0.68764 -0.00511 0.0
C938 C 0.56043 0.70508 0.05273 0.0
C939 C 0.62042 0.71024 0.04645 0.0
N940 N 0.52275 0.69297 0.01293 0.0
N941 N 0.60454 0.71383 0.02917 0.0
H942 H 0.88091 0.41391 0.22608 0.0
H943 H 0.90805 0.3986 0.09841 0.0
H944 H 0.96247 0.40832 0.20193 0.0
H945 H 0.81183 0.3638 0.12602 0.0
H946 H 0.92985 0.40602 0.13601 0.0
H947 H 0.85604 0.39915 0.18917 0.0
C948 C 0.89333 0.40924 0.21304 0.0
C949 C 0.92354 0.41202 0.217 0.0
C950 C 0.90392 0.39649 0.1338 0.0
C951 C 0.89581 0.39587 0.1749 0.0
C952 C 0.89149 0.39234 0.11237 0.0
C953 C 0.8581 0.38061 0.10909 0.0
C954 C 0.88291 0.38945 0.15205 0.0
C955 C 0.83772 0.37281 0.12779 0.0
C956 C 0.87918 0.40079 0.19207 0.0
C957 C 0.93887 0.40595 0.19959 0.0
N958 N 0.85052 0.37773 0.14849 0.0
N959 N 0.92501 0.39849 0.17922 0.0
loop_
_geom_bond_atom_site_label_1
_geom_bond_atom_site_label_2
_geom_bond_distance
_geom_bond_site_symmetry_2
_ccdc_geom_bond_type
H0 O26 0.856 . S
H1 O29 0.854 . S
H2 C37 0.932 1_455 S
H3 C38 0.930 . S
H4 C40 0.930 . S
H5 C41 0.930 . S
H6 C43 0.931 . S
H7 C44 0.930 . S
H8 C46 0.930 . S
H9 C47 0.929 . S
H10 C49 0.930 . S
H11 C50 0.931 . S
H12 C52 0.930 . S
H13 C53 0.929 . S
H14 C55 0.931 . S
H15 C56 0.930 . S
H16 C58 0.930 . S
H17 C59 0.932 . S
H18 C61 0.930 . S
H19 C62 0.929 . S
H20 C64 0.931 . S
H21 C65 0.930 . S
H22 C67 0.929 . S
H23 C68 0.931 . S
H24 C70 0.930 . S
H25 C71 0.925 1_455 S
O26 H0 0.856 . S
O26 C72 1.300 . S
O27 C72 1.209 . S
O28 C73 1.199 . S
O29 H1 0.854 . S
O29 C73 1.297 . S
C30 C31 1.404 . S
C30 C35 1.397 . S
C30 C36 1.492 . S
C31 C30 1.404 . S
C31 C32 1.396 . S
C31 C42 1.492 . S
C32 C31 1.396 . S
C32 C33 1.397 . S
C32 C48 1.509 . S
C33 C32 1.397 . S
C33 C34 1.412 . S
C33 C54 1.485 . S
C34 C33 1.412 . S
C34 C35 1.388 . S
C34 C60 1.490 . S
C35 C30 1.397 . S
C35 C34 1.388 . S
C35 C66 1.519 1_455 S
C36 C30 1.492 . S
C36 C37 1.363 1_455 S
C36 C41 1.390 1_455 S
C37 H2 0.932 1_655 S
C37 C36 1.363 1_655 S
C37 C38 1.371 . S
C38 H3 0.930 . S
C38 C37 1.371 . S
C38 C39 1.383 . S
C39 C38 1.383 . S
C39 C40 1.395 . S
C40 H4 0.930 . S
C40 C39 1.395 . S
C40 C41 1.362 . S
C41 H5 0.930 . S
C41 C36 1.390 1_655 S
C41 C40 1.362 . S
C42 C31 1.492 . S
C42 C43 1.377 . S
C42 C47 1.397 . S
C43 H6 0.931 . S
C43 C42 1.377 . S
C43 C44 1.376 . S
C44 H7 0.930 . S
C44 C43 1.376 . S
C44 C45 1.376 . S
C45 C44 1.376 . S
C45 C46 1.378 . S
C45 C72 1.486 . S
C46 H8 0.930 . S
C46 C45 1.378 . S
C46 C47 1.376 . S
C47 H9 0.929 . S
C47 C42 1.397 . S
C47 C46 1.376 . S
C48 C32 1.509 . S
C48 C49 1.391 . S
C48 C53 1.386 . S
C49 H10 0.930 . S
C49 C48 1.391 . S
C49 C50 1.375 . S
C50 H11 0.931 . S
C50 C49 1.375 . S
C50 C51 1.375 . S
C51 C50 1.375 . S
C51 C52 1.361 . S
C52 H12 0.930 . S
C52 C51 1.361 . S
C52 C53 1.399 . S
C53 H13 0.929 . S
C53 C48 1.386 . S
C53 C52 1.399 . S
C54 C33 1.485 . S
C54 C55 1.394 . S
C54 C59 1.360 . S
C55 H14 0.931 . S
C55 C54 1.394 . S
C55 C56 1.372 . S
C56 H15 0.930 . S
C56 C55 1.372 . S
C56 C57 1.397 . S
C57 C56 1.397 . S
C57 C58 1.390 . S
C57 C73 1.476 . S
C58 H16 0.930 . S
C58 C57 1.390 . S
C58 C59 1.366 . S
C59 H17 0.932 . S
C59 C54 1.360 . S
C59 C58 1.366 . S
C60 C34 1.490 . S
C60 C61 1.380 . S
C60 C65 1.386 . S
C61 H18 0.930 . S
C61 C60 1.380 . S
C61 C62 1.381 . S
C62 H19 0.929 . S
C62 C61 1.381 . S
C62 C63 1.371 . S
C63 C62 1.371 . S
C63 C64 1.380 . S
C64 H20 0.931 . S
C64 C63 1.380 . S
C64 C65 1.387 . S
C65 H21 0.930 . S
C65 C60 1.386 . S
C65 C64 1.387 . S
C66 C35 1.519 1_655 S
C66 C67 1.377 . S
C66 C71 1.361 . S
C67 H22 0.929 . S
C67 C66 1.377 . S
C67 C68 1.386 . S
C68 H23 0.931 . S
C68 C67 1.386 . S
C68 C69 1.363 . S
C69 C68 1.363 . S
C69 C70 1.385 . S
C70 H24 0.930 . S
C70 C69 1.385 . S
C70 C71 1.396 . S
C71 H25 0.925 1_655 S
C71 C66 1.361 . S
C71 C70 1.396 . S
C72 O26 1.300 . S
C72 O27 1.209 . S
C72 C45 1.486 . S
C73 O28 1.199 . S
C73 O29 1.297 . S
C73 C57 1.476 . S
H74 O100 0.856 . S
H75 O103 0.854 . S
H76 C111 0.930 . S
H77 C112 0.930 . S
H78 C114 0.930 . S
H79 C115 0.930 . S
H80 C117 0.931 . S
H81 C118 0.930 . S
H82 C120 0.930 . S
H83 C121 0.929 . S
H84 C123 0.930 . S
H85 C124 0.931 . S
H86 C126 0.930 . S
H87 C127 0.929 . S
H88 C129 0.931 . S
H89 C130 0.930 . S
H90 C132 0.930 . S
H91 C133 0.932 . S
H92 C135 0.930 . S
H93 C136 0.929 . S
H94 C138 0.931 . S
H95 C139 0.930 . S
H96 C141 0.929 . S
H97 C142 0.931 . S
H98 C144 0.930 . S
H99 C145 0.929 1_545 S
O100 H74 0.856 . S
O100 C146 1.300 . S
O101 C146 1.209 . S
O102 C147 1.199 . S
O103 H75 0.854 . S
O103 C147 1.297 . S
C104 C105 1.404 . S
C104 C109 1.397 . S
C104 C110 1.492 . S
C105 C104 1.404 . S
C105 C106 1.396 . S
C105 C116 1.492 . S
C106 C105 1.396 . S
C106 C107 1.397 . S
C106 C122 1.509 . S
C107 C106 1.397 . S
C107 C108 1.412 . S
C107 C128 1.485 . S
C108 C107 1.412 . S
C108 C109 1.388 . S
C108 C134 1.490 . S
C109 C104 1.397 . S
C109 C108 1.388 . S
C109 C140 1.519 . S
C110 C104 1.492 . S
C110 C111 1.363 . S
C110 C115 1.390 1_545 S
C111 H76 0.930 . S
C111 C110 1.363 . S
C111 C112 1.372 1_545 S
C112 H77 0.930 . S
C112 C111 1.372 1_565 S
C112 C113 1.383 . S
C113 C112 1.383 . S
C113 C114 1.395 . S
C114 H78 0.930 . S
C114 C113 1.395 . S
C114 C115 1.362 . S
C115 H79 0.930 . S
C115 C110 1.390 1_565 S
C115 C114 1.362 . S
C116 C105 1.492 . S
C116 C117 1.377 . S
C116 C121 1.397 . S
C117 H80 0.931 . S
C117 C116 1.377 . S
C117 C118 1.376 . S
C118 H81 0.930 . S
C118 C117 1.376 . S
C118 C119 1.376 . S
C119 C118 1.376 . S
C119 C120 1.378 . S
C119 C146 1.486 . S
C120 H82 0.930 . S
C120 C119 1.378 . S
C120 C121 1.376 . S
C121 H83 0.929 . S
C121 C116 1.397 . S
C121 C120 1.376 . S
C122 C106 1.509 . S
C122 C123 1.391 . S
C122 C127 1.386 . S
C123 H84 0.930 . S
C123 C122 1.391 . S
C123 C124 1.375 . S
C124 H85 0.931 . S
C124 C123 1.375 . S
C124 C125 1.375 . S
C125 C124 1.375 . S
C125 C126 1.361 . S
C126 H86 0.930 . S
C126 C125 1.361 . S
C126 C127 1.399 . S
C127 H87 0.929 . S
C127 C122 1.386 . S
C127 C126 1.399 . S
C128 C107 1.485 . S
C128 C129 1.394 . S
C128 C133 1.360 . S
C129 H88 0.931 . S
C129 C128 1.394 . S
C129 C130 1.372 . S
C130 H89 0.930 . S
C130 C129 1.372 . S
C130 C131 1.397 . S
C131 C130 1.397 . S
C131 C132 1.390 . S
C131 C147 1.476 . S
C132 H90 0.930 . S
C132 C131 1.390 . S
C132 C133 1.366 . S
C133 H91 0.932 . S
C133 C128 1.360 . S
C133 C132 1.366 . S
C134 C108 1.490 . S
C134 C135 1.380 . S
C134 C139 1.386 . S
C135 H92 0.930 . S
C135 C134 1.380 . S
C135 C136 1.381 . S
C136 H93 0.929 . S
C136 C135 1.381 . S
C136 C137 1.371 . S
C137 C136 1.371 . S
C137 C138 1.380 . S
C138 H94 0.931 . S
C138 C137 1.380 . S
C138 C139 1.387 . S
C139 H95 0.930 . S
C139 C134 1.386 . S
C139 C138 1.387 . S
C140 C109 1.519 . S
C140 C141 1.377 1_545 S
C140 C145 1.361 1_545 S
C141 H96 0.929 . S
C141 C140 1.377 1_565 S
C141 C142 1.386 . S
C142 H97 0.931 . S
C142 C141 1.386 . S
C142 C143 1.363 . S
C143 C142 1.363 . S
C143 C144 1.385 . S
C144 H98 0.930 . S
C144 C143 1.385 . S
C144 C145 1.396 . S
C145 H99 0.929 1_565 S
C145 C140 1.361 1_565 S
C145 C144 1.396 . S
C146 O100 1.300 . S
C146 O101 1.209 . S
C146 C119 1.486 . S
C147 O102 1.199 . S
C147 O103 1.297 . S
C147 C131 1.476 . S
H148 O174 0.856 . S
H149 O177 0.854 . S
H150 C185 0.930 . S
H151 C186 0.930 . S
H152 C188 0.930 . S
H153 C189 0.930 . S
H154 C191 0.931 . S
H155 C192 0.930 . S
H156 C194 0.930 . S
H157 C195 0.929 . S
H158 C197 0.930 . S
H159 C198 0.931 . S
H160 C200 0.930 . S
H161 C201 0.929 . S
H162 C203 0.931 . S
H163 C204 0.930 . S
H164 C206 0.930 . S
H165 C207 0.932 . S
H166 C209 0.930 . S
H167 C210 0.929 . S
H168 C212 0.931 . S
H169 C213 0.930 . S
H170 C215 0.929 . S
H171 C216 0.931 . S
H172 C218 0.930 . S
H173 C219 0.929 . S
O174 H148 0.856 . S
O174 C220 1.300 . S
O175 C220 1.209 . S
O176 C221 1.199 . S
O177 H149 0.854 . S
O177 C221 1.297 . S
C178 C179 1.404 . S
C178 C183 1.397 . S
C178 C184 1.492 . S
C179 C178 1.404 . S
C179 C180 1.396 . S
C179 C190 1.492 . S
C180 C179 1.396 . S
C180 C181 1.397 . S
C180 C196 1.509 . S
C181 C180 1.397 . S
C181 C182 1.412 . S
C181 C202 1.485 . S
C182 C181 1.412 . S
C182 C183 1.388 . S
C182 C208 1.490 . S
C183 C178 1.397 . S
C183 C182 1.388 . S
C183 C214 1.519 . S
C184 C178 1.492 . S
C184 C185 1.363 . S
C184 C189 1.390 . S
C185 H150 0.930 . S
C185 C184 1.363 . S
C185 C186 1.372 . S
C186 H151 0.930 . S
C186 C185 1.372 . S
C186 C187 1.383 . S
C187 C186 1.383 . S
C187 C188 1.395 . S
C188 H152 0.930 . S
C188 C187 1.395 . S
C188 C189 1.362 . S
C189 H153 0.930 . S
C189 C184 1.390 . S
C189 C188 1.362 . S
C190 C179 1.492 . S
C190 C191 1.377 . S
C190 C195 1.397 . S
C191 H154 0.931 . S
C191 C190 1.377 . S
C191 C192 1.376 . S
C192 H155 0.930 . S
C192 C191 1.376 . S
C192 C193 1.376 . S
C193 C192 1.376 . S
C193 C194 1.378 . S
C193 C220 1.486 . S
C194 H156 0.930 . S
C194 C193 1.378 . S
C194 C195 1.376 . S
C195 H157 0.929 . S
C195 C190 1.397 . S
C195 C194 1.376 . S
C196 C180 1.509 . S
C196 C197 1.391 . S
C196 C201 1.386 . S
C197 H158 0.930 . S
C197 C196 1.391 . S
C197 C198 1.375 . S
C198 H159 0.931 . S
C198 C197 1.375 . S
C198 C199 1.375 . S
C199 C198 1.375 . S
C199 C200 1.361 . S
C200 H160 0.930 . S
C200 C199 1.361 . S
C200 C201 1.399 . S
C201 H161 0.929 . S
C201 C196 1.386 . S
C201 C200 1.399 . S
C202 C181 1.485 . S
C202 C203 1.394 . S
C202 C207 1.360 . S
C203 H162 0.931 . S
C203 C202 1.394 . S
C203 C204 1.372 . S
C204 H163 0.930 . S
C204 C203 1.372 . S
C204 C205 1.397 . S
C205 C204 1.397 . S
C205 C206 1.390 . S
C205 C221 1.476 . S
C206 H164 0.930 . S
C206 C205 1.390 . S
C206 C207 1.366 . S
C207 H165 0.932 . S
C207 C202 1.360 . S
C207 C206 1.366 . S
C208 C182 1.490 . S
C208 C209 1.380 . S
C208 C213 1.386 . S
C209 H166 0.930 . S
C209 C208 1.380 . S
C209 C210 1.381 . S
C210 H167 0.929 . S
C210 C209 1.381 . S
C210 C211 1.371 . S
C211 C210 1.371 . S
C211 C212 1.380 . S
C212 H168 0.931 . S
C212 C211 1.380 . S
C212 C213 1.387 . S
C213 H169 0.930 . S
C213 C208 1.386 . S
C213 C212 1.387 . S
C214 C183 1.519 . S
C214 C215 1.377 . S
C214 C219 1.361 . S
C215 H170 0.929 . S
C215 C214 1.377 . S
C215 C216 1.386 . S
C216 H171 0.931 . S
C216 C215 1.386 . S
C216 C217 1.363 . S
C217 C216 1.363 . S
C217 C218 1.385 . S
C218 H172 0.930 . S
C218 C217 1.385 . S
C218 C219 1.396 . S
C219 H173 0.929 . S
C219 C214 1.361 . S
C219 C218 1.396 . S
C220 O174 1.300 . S
C220 O175 1.209 . S
C220 C193 1.486 . S
C221 O176 1.199 . S
C221 O177 1.297 . S
C221 C205 1.476 . S
H222 O248 0.856 . S
H223 O251 0.854 . S
H224 C259 0.930 1_455 S
H225 C260 0.930 . S
H226 C262 0.930 . S
H227 C263 0.930 . S
H228 C265 0.931 . S
H229 C266 0.930 . S
H230 C268 0.930 . S
H231 C269 0.929 . S
H232 C271 0.930 . S
H233 C272 0.931 . S
H234 C274 0.930 . S
H235 C275 0.929 . S
H236 C277 0.931 . S
H237 C278 0.930 . S
H238 C280 0.930 . S
H239 C281 0.932 . S
H240 C283 0.930 . S
H241 C284 0.929 . S
H242 C286 0.931 . S
H243 C287 0.930 . S
H244 C289 0.929 . S
H245 C290 0.931 . S
H246 C292 0.930 . S
H247 C293 0.929 . S
O248 H222 0.856 . S
O248 C294 1.300 . S
O249 C294 1.209 . S
O250 C295 1.199 . S
O251 H223 0.854 . S
O251 C295 1.297 . S
C252 C253 1.404 . S
C252 C257 1.397 . S
C252 C258 1.492 1_455 S
C253 C252 1.404 . S
C253 C254 1.396 . S
C253 C264 1.492 . S
C254 C253 1.396 . S
C254 C255 1.397 . S
C254 C270 1.509 . S
C255 C254 1.397 . S
C255 C256 1.412 . S
C255 C276 1.485 . S
C256 C255 1.412 . S
C256 C257 1.388 . S
C256 C282 1.490 . S
C257 C252 1.397 . S
C257 C256 1.388 . S
C257 C288 1.519 1_455 S
C258 C252 1.492 1_655 S
C258 C259 1.363 . S
C258 C263 1.390 . S
C259 H224 0.930 1_655 S
C259 C258 1.363 . S
C259 C260 1.372 . S
C260 H225 0.930 . S
C260 C259 1.372 . S
C260 C261 1.383 . S
C261 C260 1.383 . S
C261 C262 1.395 . S
C262 H226 0.930 . S
C262 C261 1.395 . S
C262 C263 1.362 . S
C263 H227 0.930 . S
C263 C258 1.390 . S
C263 C262 1.362 . S
C264 C253 1.492 . S
C264 C265 1.377 . S
C264 C269 1.397 . S
C265 H228 0.931 . S
C265 C264 1.377 . S
C265 C266 1.376 . S
C266 H229 0.930 . S
C266 C265 1.376 . S
C266 C267 1.376 . S
C267 C266 1.376 . S
C267 C268 1.378 . S
C267 C294 1.486 . S
C268 H230 0.930 . S
C268 C267 1.378 . S
C268 C269 1.376 . S
C269 H231 0.929 . S
C269 C264 1.397 . S
C269 C268 1.376 . S
C270 C254 1.509 . S
C270 C271 1.391 . S
C270 C275 1.386 . S
C271 H232 0.930 . S
C271 C270 1.391 . S
C271 C272 1.375 . S
C272 H233 0.931 . S
C272 C271 1.375 . S
C272 C273 1.375 . S
C273 C272 1.375 . S
C273 C274 1.361 . S
C274 H234 0.930 . S
C274 C273 1.361 . S
C274 C275 1.399 . S
C275 H235 0.929 . S
C275 C270 1.386 . S
C275 C274 1.399 . S
C276 C255 1.485 . S
C276 C277 1.394 . S
C276 C281 1.360 . S
C277 H236 0.931 . S
C277 C276 1.394 . S
C277 C278 1.372 . S
C278 H237 0.930 . S
C278 C277 1.372 . S
C278 C279 1.397 . S
C279 C278 1.397 . S
C279 C280 1.390 . S
C279 C295 1.476 . S
C280 H238 0.930 . S
C280 C279 1.390 . S
C280 C281 1.366 . S
C281 H239 0.932 . S
C281 C276 1.360 . S
C281 C280 1.366 . S
C282 C256 1.490 . S
C282 C283 1.380 . S
C282 C287 1.386 . S
C283 H240 0.930 . S
C283 C282 1.380 . S
C283 C284 1.381 . S
C284 H241 0.929 . S
C284 C283 1.381 . S
C284 C285 1.371 . S
C285 C284 1.371 . S
C285 C286 1.380 . S
C286 H242 0.931 . S
C286 C285 1.380 . S
C286 C287 1.387 . S
C287 H243 0.930 . S
C287 C282 1.386 . S
C287 C286 1.387 . S
C288 C257 1.519 1_655 S
C288 C289 1.377 . S
C288 C293 1.361 . S
C289 H244 0.929 . S
C289 C288 1.377 . S
C289 C290 1.386 . S
C290 H245 0.931 . S
C290 C289 1.386 . S
C290 C291 1.363 . S
C291 C290 1.363 . S
C291 C292 1.385 . S
C292 H246 0.930 . S
C292 C291 1.385 . S
C292 C293 1.396 . S
C293 H247 0.929 . S
C293 C288 1.361 . S
C293 C292 1.396 . S
C294 O248 1.300 . S
C294 O249 1.209 . S
C294 C267 1.486 . S
C295 O250 1.199 . S
C295 O251 1.297 . S
C295 C279 1.476 . S
H296 O322 0.856 . S
H297 O325 0.854 . S
H298 C333 0.930 . S
H299 C334 0.930 . S
H300 C336 0.930 . S
H301 C337 0.930 . S
H302 C339 0.931 . S
H303 C340 0.930 . S
H304 C342 0.930 . S
H305 C343 0.929 . S
H306 C345 0.930 . S
H307 C346 0.931 . S
H308 C348 0.930 . S
H309 C349 0.929 . S
H310 C351 0.931 . S
H311 C352 0.930 . S
H312 C354 0.930 . S
H313 C355 0.932 . S
H314 C357 0.930 . S
H315 C358 0.929 1_545 S
H316 C360 0.931 . S
H317 C361 0.930 . S
H318 C363 0.929 1_556 S
H319 C364 0.931 . S
H320 C366 0.930 . S
H321 C367 0.929 . S
O322 H296 0.856 . S
O322 C368 1.300 . S
O323 C368 1.209 . S
O324 C369 1.199 . S
O325 H297 0.854 . S
O325 C369 1.297 . S
C326 C327 1.391 1_545 S
C326 C331 1.398 . S
C326 C332 1.504 . S
C327 C326 1.391 1_565 S
C327 C328 1.396 . S
C327 C338 1.492 . S
C328 C327 1.396 . S
C328 C329 1.397 . S
C328 C344 1.509 . S
C329 C328 1.397 . S
C329 C330 1.412 1_556 S
C329 C350 1.485 1_556 S
C330 C329 1.412 1_554 S
C330 C331 1.388 1_564 S
C330 C356 1.490 . S
C331 C326 1.398 . S
C331 C330 1.388 1_546 S
C331 C362 1.519 1_556 S
C332 C326 1.504 . S
C332 C333 1.363 . S
C332 C337 1.390 . S
C333 H298 0.930 . S
C333 C332 1.363 . S
C333 C334 1.372 . S
C334 H299 0.930 . S
C334 C333 1.372 . S
C334 C335 1.383 . S
C335 C334 1.383 . S
C335 C336 1.395 . S
C336 H300 0.930 . S
C336 C335 1.395 . S
C336 C337 1.362 . S
C337 H301 0.930 . S
C337 C332 1.390 . S
C337 C336 1.362 . S
C338 C327 1.492 . S
C338 C339 1.377 . S
C338 C343 1.397 . S
C339 H302 0.931 . S
C339 C338 1.377 . S
C339 C340 1.376 . S
C340 H303 0.930 . S
C340 C339 1.376 . S
C340 C341 1.376 . S
C341 C340 1.376 . S
C341 C342 1.378 . S
C341 C368 1.486 . S
C342 H304 0.930 . S
C342 C341 1.378 . S
C342 C343 1.376 . S
C343 H305 0.929 . S
C343 C338 1.397 . S
C343 C342 1.376 . S
C344 C328 1.509 . S
C344 C345 1.391 . S
C344 C349 1.386 . S
C345 H306 0.930 . S
C345 C344 1.391 . S
C345 C346 1.375 . S
C346 H307 0.931 . S
C346 C345 1.375 . S
C346 C347 1.375 . S
C347 C346 1.375 . S
C347 C348 1.361 . S
C348 H308 0.930 . S
C348 C347 1.361 . S
C348 C349 1.399 . S
C349 H309 0.929 . S
C349 C344 1.386 . S
C349 C348 1.399 . S
C350 C329 1.485 1_554 S
C350 C351 1.394 . S
C350 C355 1.360 . S
C351 H310 0.931 . S
C351 C350 1.394 . S
C351 C352 1.372 . S
C352 H311 0.930 . S
C352 C351 1.372 . S
C352 C353 1.397 . S
C353 C352 1.397 . S
C353 C354 1.390 . S
C353 C369 1.476 . S
C354 H312 0.930 . S
C354 C353 1.390 . S
C354 C355 1.366 . S
C355 H313 0.932 . S
C355 C350 1.360 . S
C355 C354 1.366 . S
C356 C330 1.490 . S
C356 C357 1.380 . S
C356 C361 1.386 . S
C357 H314 0.930 . S
C357 C356 1.380 . S
C357 C358 1.381 . S
C358 H315 0.929 1_565 S
C358 C357 1.381 . S
C358 C359 1.371 . S
C359 C358 1.371 . S
C359 C360 1.380 . S
C360 H316 0.931 . S
C360 C359 1.380 . S
C360 C361 1.387 . S
C361 H317 0.930 . S
C361 C356 1.386 . S
C361 C360 1.387 . S
C362 C331 1.519 1_554 S
C362 C363 1.377 . S
C362 C367 1.361 . S
C363 H318 0.929 1_554 S
C363 C362 1.377 . S
C363 C364 1.386 . S
C364 H319 0.931 . S
C364 C363 1.386 . S
C364 C365 1.363 . S
C365 C364 1.363 . S
C365 C366 1.385 . S
C366 H320 0.930 . S
C366 C365 1.385 . S
C366 C367 1.396 . S
C367 H321 0.929 . S
C367 C362 1.361 . S
C367 C366 1.396 . S
C368 O322 1.300 . S
C368 O323 1.209 . S
C368 C341 1.486 . S
C369 O324 1.199 . S
C369 O325 1.297 . S
C369 C353 1.476 . S
H370 O396 0.856 1_556 S
H371 O399 0.854 . S
H372 C407 0.930 . S
H373 C408 0.930 . S
H374 C410 0.930 . S
H375 C411 0.930 . S
H376 C413 0.931 . S
H377 C414 0.930 . S
H378 C416 0.930 . S
H379 C417 0.929 . S
H380 C419 0.930 . S
H381 C420 0.931 . S
H382 C422 0.930 . S
H383 C423 0.929 . S
H384 C425 0.931 . S
H385 C426 0.930 . S
H386 C428 0.930 . S
H387 C429 0.932 . S
H388 C431 0.930 . S
H389 C432 0.929 . S
H390 C434 0.931 . S
H391 C435 0.930 . S
H392 C437 0.929 . S
H393 C438 0.931 . S
H394 C440 0.930 . S
H395 C441 0.929 . S
O396 H370 0.856 1_554 S
O396 C442 1.300 . S
O397 C442 1.209 . S
O398 C443 1.199 . S
O399 H371 0.854 . S
O399 C443 1.297 . S
C400 C401 1.404 . S
C400 C405 1.397 . S
C400 C406 1.492 . S
C401 C400 1.404 . S
C401 C402 1.396 . S
C401 C412 1.492 . S
C402 C401 1.396 . S
C402 C403 1.397 . S
C402 C418 1.509 . S
C403 C402 1.397 . S
C403 C404 1.412 . S
C403 C424 1.485 . S
C404 C403 1.412 . S
C404 C405 1.388 . S
C404 C430 1.490 . S
C405 C400 1.397 . S
C405 C404 1.388 . S
C405 C436 1.519 . S
C406 C400 1.492 . S
C406 C407 1.363 . S
C406 C411 1.390 . S
C407 H372 0.930 . S
C407 C406 1.363 . S
C407 C408 1.372 . S
C408 H373 0.930 . S
C408 C407 1.372 . S
C408 C409 1.383 . S
C409 C408 1.383 . S
C409 C410 1.395 . S
C410 H374 0.930 . S
C410 C409 1.395 . S
C410 C411 1.362 . S
C411 H375 0.930 . S
C411 C406 1.390 . S
C411 C410 1.362 . S
C412 C401 1.492 . S
C412 C413 1.377 . S
C412 C417 1.397 . S
C413 H376 0.931 . S
C413 C412 1.377 . S
C413 C414 1.376 . S
C414 H377 0.930 . S
C414 C413 1.376 . S
C414 C415 1.376 . S
C415 C414 1.376 . S
C415 C416 1.378 . S
C415 C442 1.486 . S
C416 H378 0.930 . S
C416 C415 1.378 . S
C416 C417 1.376 . S
C417 H379 0.929 . S
C417 C412 1.397 . S
C417 C416 1.376 . S
C418 C402 1.509 . S
C418 C419 1.391 . S
C418 C423 1.386 . S
C419 H380 0.930 . S
C419 C418 1.391 . S
C419 C420 1.375 . S
C420 H381 0.931 . S
C420 C419 1.375 . S
C420 C421 1.375 . S
C421 C420 1.375 . S
C421 C422 1.361 . S
C422 H382 0.930 . S
C422 C421 1.361 . S
C422 C423 1.399 . S
C423 H383 0.929 . S
C423 C418 1.386 . S
C423 C422 1.399 . S
C424 C403 1.485 . S
C424 C425 1.394 . S
C424 C429 1.360 . S
C425 H384 0.931 . S
C425 C424 1.394 . S
C425 C426 1.372 . S
C426 H385 0.930 . S
C426 C425 1.372 . S
C426 C427 1.397 . S
C427 C426 1.397 . S
C427 C428 1.390 . S
C427 C443 1.476 . S
C428 H386 0.930 . S
C428 C427 1.390 . S
C428 C429 1.366 . S
C429 H387 0.932 . S
C429 C424 1.360 . S
C429 C428 1.366 . S
C430 C404 1.490 . S
C430 C431 1.380 . S
C430 C435 1.386 . S
C431 H388 0.930 . S
C431 C430 1.380 . S
C431 C432 1.381 . S
C432 H389 0.929 . S
C432 C431 1.381 . S
C432 C433 1.371 . S
C433 C432 1.371 . S
C433 C434 1.380 . S
C434 H390 0.931 . S
C434 C433 1.380 . S
C434 C435 1.387 . S
C435 H391 0.930 . S
C435 C430 1.386 . S
C435 C434 1.387 . S
C436 C405 1.519 . S
C436 C437 1.377 . S
C436 C441 1.361 . S
C437 H392 0.929 . S
C437 C436 1.377 . S
C437 C438 1.386 . S
C438 H393 0.931 . S
C438 C437 1.386 . S
C438 C439 1.363 . S
C439 C438 1.363 . S
C439 C440 1.385 . S
C440 H394 0.930 . S
C440 C439 1.385 . S
C440 C441 1.396 . S
C441 H395 0.929 . S
C441 C436 1.361 . S
C441 C440 1.396 . S
C442 O396 1.300 . S
C442 O397 1.209 . S
C442 C415 1.486 . S
C443 O398 1.199 . S
C443 O399 1.297 . S
C443 C427 1.476 . S
C444 O445 1.306 . S
C444 O447 1.160 . S
O445 C444 1.306 . S
O445 Cd446 2.228 . S
Cd446 O445 2.228 . S
Cd446 O450 2.273 . S
Cd446 O454 2.277 . S
O447 C444 1.160 . S
O447 Cd448 2.203 . S
Cd448 O447 2.203 . S
Cd448 O450 2.411 . S
Cd448 O451 2.333 . S
Cd448 O452 2.352 . S
Cd448 O456 2.277 . S
Cd448 O457 2.356 . S
C449 O454 1.209 . S
C449 O456 1.226 . S
O450 Cd446 2.273 . S
O450 Cd448 2.411 . S
O450 C453 1.320 . S
O451 Cd448 2.333 . S
O451 C453 1.214 . S
O452 Cd448 2.352 . S
O452 C455 1.258 . S
C453 O450 1.320 . S
C453 O451 1.214 . S
O454 Cd446 2.277 . S
O454 C449 1.209 . S
C455 O452 1.258 . S
C455 O457 1.282 . S
O456 Cd448 2.277 . S
O456 C449 1.226 . S
O457 Cd448 2.356 . S
O457 C455 1.282 . S
C458 O459 1.306 . S
C458 O461 1.160 . S
O459 C458 1.306 . S
O459 Cd460 2.228 . S
Cd460 O459 2.228 . S
Cd460 O464 2.273 . S
Cd460 O468 2.277 . S
O461 C458 1.160 . S
O461 Cd462 2.203 . S
Cd462 O461 2.203 . S
Cd462 O464 2.411 . S
Cd462 O465 2.333 . S
Cd462 O466 2.352 . S
Cd462 O470 2.277 . S
Cd462 O471 2.356 . S
C463 O468 1.209 . S
C463 O470 1.226 . S
O464 Cd460 2.273 . S
O464 Cd462 2.411 . S
O464 C467 1.320 . S
O465 Cd462 2.333 . S
O465 C467 1.214 . S
O466 Cd462 2.352 . S
O466 C469 1.258 . S
C467 O464 1.320 . S
C467 O465 1.214 . S
O468 Cd460 2.277 . S
O468 C463 1.209 . S
C469 O466 1.258 . S
C469 O471 1.282 . S
O470 Cd462 2.277 . S
O470 C463 1.226 . S
O471 Cd462 2.356 . S
O471 C469 1.282 . S
C472 O473 1.306 . S
C472 O475 1.160 . S
O473 C472 1.306 . S
O473 Cd474 2.228 . S
Cd474 O473 2.228 . S
Cd474 O478 2.273 . S
Cd474 O482 2.277 . S
O475 C472 1.160 . S
O475 Cd476 2.203 . S
Cd476 O475 2.203 . S
Cd476 O478 2.411 . S
Cd476 O479 2.333 . S
Cd476 O480 2.352 . S
Cd476 O484 2.277 . S
Cd476 O485 2.356 . S
C477 O482 1.209 . S
C477 O484 1.226 . S
O478 Cd474 2.273 . S
O478 Cd476 2.411 . S
O478 C481 1.320 . S
O479 Cd476 2.333 . S
O479 C481 1.214 . S
O480 Cd476 2.352 . S
O480 C483 1.258 . S
C481 O478 1.320 . S
C481 O479 1.214 . S
O482 Cd474 2.277 . S
O482 C477 1.209 . S
C483 O480 1.258 . S
C483 O485 1.282 . S
O484 Cd476 2.277 . S
O484 C477 1.226 . S
O485 Cd476 2.356 . S
O485 C483 1.282 . S
C486 O487 1.306 . S
C486 O489 1.160 . S
O487 C486 1.306 . S
O487 Cd488 2.228 . S
Cd488 O487 2.228 . S
Cd488 O492 2.273 . S
Cd488 O496 2.277 . S
O489 C486 1.160 . S
O489 Cd490 2.203 . S
Cd490 O489 2.203 . S
Cd490 O492 2.411 . S
Cd490 O493 2.333 . S
Cd490 O494 2.352 . S
Cd490 O498 2.277 . S
Cd490 O499 2.356 . S
C491 O496 1.209 . S
C491 O498 1.226 . S
O492 Cd488 2.273 . S
O492 Cd490 2.411 . S
O492 C495 1.320 . S
O493 Cd490 2.333 . S
O493 C495 1.214 . S
O494 Cd490 2.352 . S
O494 C497 1.258 . S
C495 O492 1.320 . S
C495 O493 1.214 . S
O496 Cd488 2.277 . S
O496 C491 1.209 . S
C497 O494 1.258 . S
C497 O499 1.282 . S
O498 Cd490 2.277 . S
O498 C491 1.226 . S
O499 Cd490 2.356 . S
O499 C497 1.282 . S
C500 O501 1.306 . S
C500 O503 1.160 . S
O501 C500 1.306 . S
O501 Cd502 2.228 . S
Cd502 O501 2.228 . S
Cd502 O506 2.273 . S
Cd502 O510 2.277 . S
O503 C500 1.160 . S
O503 Cd504 2.203 . S
Cd504 O503 2.203 . S
Cd504 O506 2.411 . S
Cd504 O507 2.333 . S
Cd504 O508 2.352 . S
Cd504 O512 2.277 . S
Cd504 O513 2.356 . S
C505 O510 1.209 . S
C505 O512 1.226 . S
O506 Cd502 2.273 . S
O506 Cd504 2.411 . S
O506 C509 1.320 . S
O507 Cd504 2.333 . S
O507 C509 1.214 . S
O508 Cd504 2.352 . S
O508 C511 1.258 . S
C509 O506 1.320 . S
C509 O507 1.214 . S
O510 Cd502 2.277 . S
O510 C505 1.209 . S
C511 O508 1.258 . S
C511 O513 1.282 . S
O512 Cd504 2.277 . S
O512 C505 1.226 . S
O513 Cd504 2.356 . S
O513 C511 1.282 . S
C514 O515 1.306 . S
C514 O517 1.160 . S
O515 C514 1.306 . S
O515 Cd516 2.228 . S
Cd516 O515 2.228 . S
Cd516 O520 2.273 . S
Cd516 O524 2.277 . S
O517 C514 1.160 . S
O517 Cd518 2.203 . S
Cd518 O517 2.203 . S
Cd518 O520 2.411 . S
Cd518 O521 2.333 . S
Cd518 O522 2.352 . S
Cd518 O526 2.277 . S
Cd518 O527 2.356 . S
C519 O524 1.209 . S
C519 O526 1.226 . S
O520 Cd516 2.273 . S
O520 Cd518 2.411 . S
O520 C523 1.320 . S
O521 Cd518 2.333 . S
O521 C523 1.214 . S
O522 Cd518 2.352 . S
O522 C525 1.258 . S
C523 O520 1.320 . S
C523 O521 1.214 . S
O524 Cd516 2.277 . S
O524 C519 1.209 . S
C525 O522 1.258 . S
C525 O527 1.282 . S
O526 Cd518 2.277 . S
O526 C519 1.226 . S
O527 Cd518 2.356 . S
O527 C525 1.282 . S
H528 C534 0.930 . S
H529 C538 0.930 . S
H530 C543 0.929 . S
H531 C541 0.929 . S
H532 C536 0.929 . S
H533 C542 0.929 . S
C534 H528 0.930 . S
C534 C535 1.367 . S
C534 C542 1.378 . S
C535 C534 1.367 . S
C535 C543 1.433 . S
C536 H532 0.929 . S
C536 C538 1.378 . S
C536 C540 1.350 . S
C537 C540 1.463 . S
C537 C542 1.350 . S
C537 N545 1.427 . S
C538 H529 0.930 . S
C538 C536 1.378 . S
C538 C539 1.367 . S
C539 C538 1.367 . S
C539 C541 1.433 . S
C540 C536 1.350 . S
C540 C537 1.463 . S
C540 N544 1.427 . S
C541 H531 0.929 . S
C541 C539 1.433 . S
C541 N544 1.384 . S
C542 H533 0.929 . S
C542 C534 1.378 . S
C542 C537 1.350 . S
C543 H530 0.929 . S
C543 C535 1.433 . S
C543 N545 1.384 . S
N544 C540 1.427 . S
N544 C541 1.384 . S
N545 C537 1.427 . S
N545 C543 1.384 . S
H546 C552 0.930 . S
H547 C556 0.930 . S
H548 C561 0.929 . S
H549 C559 0.929 . S
H550 C554 0.929 . S
H551 C560 0.929 . S
C552 H546 0.930 . S
C552 C553 1.367 . S
C552 C560 1.378 . S
C553 C552 1.367 . S
C553 C561 1.433 . S
C554 H550 0.929 . S
C554 C556 1.378 . S
C554 C558 1.350 . S
C555 C558 1.463 . S
C555 C560 1.350 . S
C555 N563 1.427 . S
C556 H547 0.930 . S
C556 C554 1.378 . S
C556 C557 1.367 . S
C557 C556 1.367 . S
C557 C559 1.433 . S
C558 C554 1.350 . S
C558 C555 1.463 . S
C558 N562 1.427 . S
C559 H549 0.929 . S
C559 C557 1.433 . S
C559 N562 1.384 . S
C560 H551 0.929 . S
C560 C552 1.378 . S
C560 C555 1.350 . S
C561 H548 0.929 . S
C561 C553 1.433 . S
C561 N563 1.384 . S
N562 C558 1.427 . S
N562 C559 1.384 . S
N563 C555 1.427 . S
N563 C561 1.384 . S
H564 C570 0.930 . S
H565 C574 0.930 . S
H566 C579 0.929 . S
H567 C577 0.929 . S
H568 C572 0.929 . S
H569 C578 0.929 . S
C570 H564 0.930 . S
C570 C571 1.367 . S
C570 C578 1.378 . S
C571 C570 1.367 . S
C571 C579 1.433 . S
C572 H568 0.929 . S
C572 C574 1.378 . S
C572 C576 1.350 . S
C573 C576 1.463 . S
C573 C578 1.350 . S
C573 N581 1.427 . S
C574 H565 0.930 . S
C574 C572 1.378 . S
C574 C575 1.367 . S
C575 C574 1.367 . S
C575 C577 1.433 . S
C576 C572 1.350 . S
C576 C573 1.463 . S
C576 N580 1.427 . S
C577 H567 0.929 . S
C577 C575 1.433 . S
C577 N580 1.384 . S
C578 H569 0.929 . S
C578 C570 1.378 . S
C578 C573 1.350 . S
C579 H566 0.929 . S
C579 C571 1.433 . S
C579 N581 1.384 . S
N580 C576 1.427 . S
N580 C577 1.384 . S
N581 C573 1.427 . S
N581 C579 1.384 . S
H582 C588 0.930 . S
H583 C592 0.930 . S
H584 C597 0.929 . S
H585 C595 0.929 . S
H586 C590 0.929 . S
H587 C596 0.929 . S
C588 H582 0.930 . S
C588 C589 1.367 . S
C588 C596 1.378 . S
C589 C588 1.367 . S
C589 C597 1.433 . S
C590 H586 0.929 . S
C590 C592 1.378 . S
C590 C594 1.350 . S
C591 C594 1.463 . S
C591 C596 1.350 . S
C591 N599 1.427 . S
C592 H583 0.930 . S
C592 C590 1.378 . S
C592 C593 1.367 . S
C593 C592 1.367 . S
C593 C595 1.433 . S
C594 C590 1.350 . S
C594 C591 1.463 . S
C594 N598 1.427 . S
C595 H585 0.929 . S
C595 C593 1.433 . S
C595 N598 1.384 . S
C596 H587 0.929 . S
C596 C588 1.378 . S
C596 C591 1.350 . S
C597 H584 0.929 . S
C597 C589 1.433 . S
C597 N599 1.384 . S
N598 C594 1.427 . S
N598 C595 1.384 . S
N599 C591 1.427 . S
N599 C597 1.384 . S
H600 C606 0.930 . S
H601 C610 0.930 . S
H602 C615 0.929 . S
H603 C613 0.929 . S
H604 C608 0.929 . S
H605 C614 0.929 . S
C606 H600 0.930 . S
C606 C607 1.367 . S
C606 C614 1.378 . S
C607 C606 1.367 . S
C607 C615 1.433 . S
C608 H604 0.929 . S
C608 C610 1.378 . S
C608 C612 1.350 . S
C609 C612 1.463 . S
C609 C614 1.350 . S
C609 N617 1.427 . S
C610 H601 0.930 . S
C610 C608 1.378 . S
C610 C611 1.367 . S
C611 C610 1.367 . S
C611 C613 1.433 . S
C612 C608 1.350 . S
C612 C609 1.463 . S
C612 N616 1.427 . S
C613 H603 0.929 . S
C613 C611 1.433 . S
C613 N616 1.384 . S
C614 H605 0.929 . S
C614 C606 1.378 . S
C614 C609 1.350 . S
C615 H602 0.929 . S
C615 C607 1.433 . S
C615 N617 1.384 . S
N616 C612 1.427 . S
N616 C613 1.384 . S
N617 C609 1.427 . S
N617 C615 1.384 . S
H618 C624 0.930 . S
H619 C628 0.930 . S
H620 C633 0.929 . S
H621 C631 0.929 . S
H622 C626 0.929 . S
H623 C632 0.929 . S
C624 H618 0.930 . S
C624 C625 1.367 . S
C624 C632 1.378 . S
C625 C624 1.367 . S
C625 C633 1.433 . S
C626 H622 0.929 . S
C626 C628 1.378 . S
C626 C630 1.350 . S
C627 C630 1.463 . S
C627 C632 1.350 . S
C627 N635 1.427 . S
C628 H619 0.930 . S
C628 C626 1.378 . S
C628 C629 1.367 . S
C629 C628 1.367 . S
C629 C631 1.433 . S
C630 C626 1.350 . S
C630 C627 1.463 . S
C630 N634 1.427 . S
C631 H621 0.929 . S
C631 C629 1.433 . S
C631 N634 1.384 . S
C632 H623 0.929 . S
C632 C624 1.378 . S
C632 C627 1.350 . S
C633 H620 0.929 . S
C633 C625 1.433 . S
C633 N635 1.384 . S
N634 C630 1.427 . S
N634 C631 1.384 . S
N635 C627 1.427 . S
N635 C633 1.384 . S
H636 C642 0.930 . S
H637 C646 0.930 . S
H638 C651 0.929 . S
H639 C649 0.929 . S
H640 C644 0.929 . S
H641 C650 0.929 . S
C642 H636 0.930 . S
C642 C643 1.367 . S
C642 C650 1.378 . S
C643 C642 1.367 . S
C643 C651 1.433 . S
C644 H640 0.929 . S
C644 C646 1.378 . S
C644 C648 1.350 . S
C645 C648 1.463 . S
C645 C650 1.350 . S
C645 N653 1.427 . S
C646 H637 0.930 . S
C646 C644 1.378 . S
C646 C647 1.367 . S
C647 C646 1.367 . S
C647 C649 1.433 . S
C648 C644 1.350 . S
C648 C645 1.463 . S
C648 N652 1.427 . S
C649 H639 0.929 . S
C649 C647 1.433 . S
C649 N652 1.384 . S
C650 H641 0.929 . S
C650 C642 1.378 . S
C650 C645 1.350 . S
C651 H638 0.929 . S
C651 C643 1.433 . S
C651 N653 1.384 . S
N652 C648 1.427 . S
N652 C649 1.384 . S
N653 C645 1.427 . S
N653 C651 1.384 . S
H654 C660 0.930 . S
H655 C664 0.930 . S
H656 C669 0.929 . S
H657 C667 0.929 . S
H658 C662 0.929 . S
H659 C668 0.929 . S
C660 H654 0.930 . S
C660 C661 1.367 . S
C660 C668 1.378 . S
C661 C660 1.367 . S
C661 C669 1.433 . S
C662 H658 0.929 . S
C662 C664 1.378 . S
C662 C666 1.350 . S
C663 C666 1.463 . S
C663 C668 1.350 . S
C663 N671 1.427 . S
C664 H655 0.930 . S
C664 C662 1.378 . S
C664 C665 1.367 . S
C665 C664 1.367 . S
C665 C667 1.433 . S
C666 C662 1.350 . S
C666 C663 1.463 . S
C666 N670 1.427 . S
C667 H657 0.929 . S
C667 C665 1.433 . S
C667 N670 1.384 . S
C668 H659 0.929 . S
C668 C660 1.378 . S
C668 C663 1.350 . S
C669 H656 0.929 . S
C669 C661 1.433 . S
C669 N671 1.384 . S
N670 C666 1.427 . S
N670 C667 1.384 . S
N671 C663 1.427 . S
N671 C669 1.384 . S
H672 C678 0.930 . S
H673 C682 0.930 . S
H674 C687 0.929 . S
H675 C685 0.929 . S
H676 C680 0.929 . S
H677 C686 0.929 . S
C678 H672 0.930 . S
C678 C679 1.367 . S
C678 C686 1.378 . S
C679 C678 1.367 . S
C679 C687 1.433 . S
C680 H676 0.929 . S
C680 C682 1.378 . S
C680 C684 1.350 . S
C681 C684 1.463 . S
C681 C686 1.350 . S
C681 N689 1.427 . S
C682 H673 0.930 . S
C682 C680 1.378 . S
C682 C683 1.367 . S
C683 C682 1.367 . S
C683 C685 1.433 . S
C684 C680 1.350 . S
C684 C681 1.463 . S
C684 N688 1.427 . S
C685 H675 0.929 . S
C685 C683 1.433 . S
C685 N688 1.384 . S
C686 H677 0.929 . S
C686 C678 1.378 . S
C686 C681 1.350 . S
C687 H674 0.929 . S
C687 C679 1.433 . S
C687 N689 1.384 . S
N688 C684 1.427 . S
N688 C685 1.384 . S
N689 C681 1.427 . S
N689 C687 1.384 . S
H690 C696 0.930 1_556 S
H691 C700 0.930 . S
H692 C705 0.929 . S
H693 C703 0.929 . S
H694 C698 0.929 . S
H695 C704 0.929 . S
C696 H690 0.930 1_554 S
C696 C697 1.367 . S
C696 C704 1.378 . S
C697 C696 1.367 . S
C697 C705 1.433 . S
C698 H694 0.929 . S
C698 C700 1.378 . S
C698 C702 1.350 . S
C699 C702 1.463 . S
C699 C704 1.350 . S
C699 N707 1.427 . S
C700 H691 0.930 . S
C700 C698 1.378 . S
C700 C701 1.367 . S
C701 C700 1.367 . S
C701 C703 1.433 . S
C702 C698 1.350 . S
C702 C699 1.463 . S
C702 N706 1.427 . S
C703 H693 0.929 . S
C703 C701 1.433 . S
C703 N706 1.384 . S
C704 H695 0.929 . S
C704 C696 1.378 . S
C704 C699 1.350 . S
C705 H692 0.929 . S
C705 C697 1.433 . S
C705 N707 1.384 . S
N706 C702 1.427 . S
N706 C703 1.384 . S
N707 C699 1.427 . S
N707 C705 1.384 . S
H708 C714 0.930 . S
H709 C718 0.930 . S
H710 C723 0.929 . S
H711 C721 0.929 . S
H712 C716 0.929 . S
H713 C722 0.929 . S
C714 H708 0.930 . S
C714 C715 1.367 . S
C714 C722 1.378 . S
C715 C714 1.367 . S
C715 C723 1.433 . S
C716 H712 0.929 . S
C716 C718 1.378 . S
C716 C720 1.350 . S
C717 C720 1.463 . S
C717 C722 1.350 . S
C717 N725 1.427 . S
C718 H709 0.930 . S
C718 C716 1.378 . S
C718 C719 1.367 . S
C719 C718 1.367 . S
C719 C721 1.433 . S
C720 C716 1.350 . S
C720 C717 1.463 . S
C720 N724 1.427 . S
C721 H711 0.929 . S
C721 C719 1.433 . S
C721 N724 1.384 . S
C722 H713 0.929 . S
C722 C714 1.378 . S
C722 C717 1.350 . S
C723 H710 0.929 . S
C723 C715 1.433 . S
C723 N725 1.384 . S
N724 C720 1.427 . S
N724 C721 1.384 . S
N725 C717 1.427 . S
N725 C723 1.384 . S
H726 C732 0.930 . S
H727 C736 0.930 . S
H728 C741 0.929 . S
H729 C739 0.929 . S
H730 C734 0.929 . S
H731 C740 0.929 . S
C732 H726 0.930 . S
C732 C733 1.367 . S
C732 C740 1.378 . S
C733 C732 1.367 . S
C733 C741 1.433 . S
C734 H730 0.929 . S
C734 C736 1.378 . S
C734 C738 1.350 . S
C735 C738 1.463 . S
C735 C740 1.350 . S
C735 N743 1.427 . S
C736 H727 0.930 . S
C736 C734 1.378 . S
C736 C737 1.367 . S
C737 C736 1.367 . S
C737 C739 1.433 . S
C738 C734 1.350 . S
C738 C735 1.463 . S
C738 N742 1.427 . S
C739 H729 0.929 . S
C739 C737 1.433 . S
C739 N742 1.384 . S
C740 H731 0.929 . S
C740 C732 1.378 . S
C740 C735 1.350 . S
C741 H728 0.929 . S
C741 C733 1.433 . S
C741 N743 1.384 . S
N742 C738 1.427 . S
N742 C739 1.384 . S
N743 C735 1.427 . S
N743 C741 1.384 . S
H744 C750 0.930 . S
H745 C754 0.930 . S
H746 C759 0.929 . S
H747 C757 0.929 . S
H748 C752 0.929 . S
H749 C758 0.929 . S
C750 H744 0.930 . S
C750 C751 1.367 . S
C750 C758 1.378 . S
C751 C750 1.367 . S
C751 C759 1.433 . S
C752 H748 0.929 . S
C752 C754 1.378 . S
C752 C756 1.350 . S
C753 C756 1.463 . S
C753 C758 1.350 . S
C753 N761 1.427 . S
C754 H745 0.930 . S
C754 C752 1.378 . S
C754 C755 1.367 . S
C755 C754 1.367 . S
C755 C757 1.433 . S
C756 C752 1.350 . S
C756 C753 1.463 . S
C756 N760 1.427 . S
C757 H747 0.929 . S
C757 C755 1.433 . S
C757 N760 1.384 . S
C758 H749 0.929 . S
C758 C750 1.378 . S
C758 C753 1.350 . S
C759 H746 0.929 . S
C759 C751 1.433 . S
C759 N761 1.384 . S
N760 C756 1.427 . S
N760 C757 1.384 . S
N761 C753 1.427 . S
N761 C759 1.384 . S
H762 C768 0.930 . S
H763 C772 0.930 . S
H764 C777 0.929 . S
H765 C775 0.929 . S
H766 C770 0.929 . S
H767 C776 0.929 . S
C768 H762 0.930 . S
C768 C769 1.367 . S
C768 C776 1.378 . S
C769 C768 1.367 . S
C769 C777 1.433 . S
C770 H766 0.929 . S
C770 C772 1.378 . S
C770 C774 1.350 . S
C771 C774 1.463 . S
C771 C776 1.350 . S
C771 N779 1.427 . S
C772 H763 0.930 . S
C772 C770 1.378 . S
C772 C773 1.367 . S
C773 C772 1.367 . S
C773 C775 1.433 . S
C774 C770 1.350 . S
C774 C771 1.463 . S
C774 N778 1.427 . S
C775 H765 0.929 . S
C775 C773 1.433 . S
C775 N778 1.384 . S
C776 H767 0.929 . S
C776 C768 1.378 . S
C776 C771 1.350 . S
C777 H764 0.929 . S
C777 C769 1.433 . S
C777 N779 1.384 . S
N778 C774 1.427 . S
N778 C775 1.384 . S
N779 C771 1.427 . S
N779 C777 1.384 . S
H780 C786 0.930 . S
H781 C790 0.930 . S
H782 C795 0.929 . S
H783 C793 0.929 . S
H784 C788 0.929 . S
H785 C794 0.929 . S
C786 H780 0.930 . S
C786 C787 1.367 . S
C786 C794 1.378 . S
C787 C786 1.367 . S
C787 C795 1.433 . S
C788 H784 0.929 . S
C788 C790 1.378 . S
C788 C792 1.350 . S
C789 C792 1.463 . S
C789 C794 1.350 . S
C789 N797 1.427 . S
C790 H781 0.930 . S
C790 C788 1.378 . S
C790 C791 1.367 . S
C791 C790 1.367 . S
C791 C793 1.433 . S
C792 C788 1.350 . S
C792 C789 1.463 . S
C792 N796 1.427 . S
C793 H783 0.929 . S
C793 C791 1.433 . S
C793 N796 1.384 . S
C794 H785 0.929 . S
C794 C786 1.378 . S
C794 C789 1.350 . S
C795 H782 0.929 . S
C795 C787 1.433 . S
C795 N797 1.384 . S
N796 C792 1.427 . S
N796 C793 1.384 . S
N797 C789 1.427 . S
N797 C795 1.384 . S
H798 C804 0.930 . S
H799 C808 0.930 . S
H800 C813 0.929 . S
H801 C811 0.935 . S
H802 C806 0.929 . S
H803 C812 0.929 . S
C804 H798 0.930 . S
C804 C805 1.367 . S
C804 C812 1.378 . S
C805 C804 1.367 . S
C805 C813 1.433 . S
C806 H802 0.929 . S
C806 C808 1.378 1_556 S
C806 C810 1.350 . S
C807 C810 1.463 . S
C807 C812 1.350 . S
C807 N815 1.427 . S
C808 H799 0.930 . S
C808 C806 1.378 1_554 S
C808 C809 1.367 . S
C809 C808 1.367 . S
C809 C811 1.433 1_554 S
C810 C806 1.350 . S
C810 C807 1.463 . S
C810 N814 1.427 . S
C811 H801 0.935 . S
C811 C809 1.433 1_556 S
C811 N814 1.384 . S
C812 H803 0.929 . S
C812 C804 1.378 . S
C812 C807 1.350 . S
C813 H800 0.929 . S
C813 C805 1.433 . S
C813 N815 1.384 . S
N814 C810 1.427 . S
N814 C811 1.384 . S
N815 C807 1.427 . S
N815 C813 1.384 . S
H816 C822 0.930 1_545 S
H817 C826 0.930 . S
H818 C831 0.929 . S
H819 C829 0.929 . S
H820 C824 0.929 . S
H821 C830 0.929 . S
C822 H816 0.930 1_565 S
C822 C823 1.367 . S
C822 C830 1.378 . S
C823 C822 1.367 . S
C823 C831 1.433 . S
C824 H820 0.929 . S
C824 C826 1.378 . S
C824 C828 1.350 . S
C825 C828 1.463 . S
C825 C830 1.350 . S
C825 N833 1.427 . S
C826 H817 0.930 . S
C826 C824 1.378 . S
C826 C827 1.367 . S
C827 C826 1.367 . S
C827 C829 1.433 . S
C828 C824 1.350 . S
C828 C825 1.463 . S
C828 N832 1.427 . S
C829 H819 0.929 . S
C829 C827 1.433 . S
C829 N832 1.384 . S
C830 H821 0.929 . S
C830 C822 1.378 . S
C830 C825 1.350 . S
C831 H818 0.929 . S
C831 C823 1.433 . S
C831 N833 1.384 . S
N832 C828 1.427 . S
N832 C829 1.384 . S
N833 C825 1.427 . S
N833 C831 1.384 . S
H834 C840 0.930 . S
H835 C844 0.930 . S
H836 C849 0.929 . S
H837 C847 0.929 . S
H838 C842 0.929 . S
H839 C848 0.929 . S
C840 H834 0.930 . S
C840 C841 1.367 . S
C840 C848 1.378 . S
C841 C840 1.367 . S
C841 C849 1.433 . S
C842 H838 0.929 . S
C842 C844 1.378 . S
C842 C846 1.350 . S
C843 C846 1.463 . S
C843 C848 1.350 . S
C843 N851 1.427 . S
C844 H835 0.930 . S
C844 C842 1.378 . S
C844 C845 1.367 . S
C845 C844 1.367 . S
C845 C847 1.433 . S
C846 C842 1.350 . S
C846 C843 1.463 . S
C846 N850 1.427 . S
C847 H837 0.929 . S
C847 C845 1.433 . S
C847 N850 1.384 . S
C848 H839 0.929 . S
C848 C840 1.378 . S
C848 C843 1.350 . S
C849 H836 0.929 . S
C849 C841 1.433 . S
C849 N851 1.384 . S
N850 C846 1.427 . S
N850 C847 1.384 . S
N851 C843 1.427 . S
N851 C849 1.384 . S
H852 C858 0.930 . S
H853 C862 0.930 . S
H854 C867 0.929 . S
H855 C865 0.929 . S
H856 C860 0.929 . S
H857 C866 0.929 . S
C858 H852 0.930 . S
C858 C859 1.367 . S
C858 C866 1.378 . S
C859 C858 1.367 . S
C859 C867 1.433 . S
C860 H856 0.929 . S
C860 C862 1.378 . S
C860 C864 1.350 . S
C861 C864 1.463 . S
C861 C866 1.350 . S
C861 N869 1.427 . S
C862 H853 0.930 . S
C862 C860 1.378 . S
C862 C863 1.367 . S
C863 C862 1.367 . S
C863 C865 1.433 . S
C864 C860 1.350 . S
C864 C861 1.463 . S
C864 N868 1.427 . S
C865 H855 0.929 . S
C865 C863 1.433 . S
C865 N868 1.384 . S
C866 H857 0.929 . S
C866 C858 1.378 . S
C866 C861 1.350 . S
C867 H854 0.929 . S
C867 C859 1.433 . S
C867 N869 1.384 . S
N868 C864 1.427 . S
N868 C865 1.384 . S
N869 C861 1.427 . S
N869 C867 1.384 . S
H870 C876 0.930 . S
H871 C880 0.930 . S
H872 C885 0.929 . S
H873 C883 0.929 . S
H874 C878 0.929 . S
H875 C884 0.929 . S
C876 H870 0.930 . S
C876 C877 1.367 . S
C876 C884 1.378 . S
C877 C876 1.367 . S
C877 C885 1.433 . S
C878 H874 0.929 . S
C878 C880 1.378 . S
C878 C882 1.350 . S
C879 C882 1.463 . S
C879 C884 1.350 . S
C879 N887 1.427 . S
C880 H871 0.930 . S
C880 C878 1.378 . S
C880 C881 1.367 . S
C881 C880 1.367 . S
C881 C883 1.433 . S
C882 C878 1.350 . S
C882 C879 1.463 . S
C882 N886 1.427 . S
C883 H873 0.929 . S
C883 C881 1.433 . S
C883 N886 1.384 . S
C884 H875 0.929 . S
C884 C876 1.378 . S
C884 C879 1.350 . S
C885 H872 0.929 . S
C885 C877 1.433 . S
C885 N887 1.384 . S
N886 C882 1.427 . S
N886 C883 1.384 . S
N887 C879 1.427 . S
N887 C885 1.384 . S
H888 C894 0.930 . S
H889 C898 0.930 . S
H890 C903 0.929 . S
H891 C901 0.929 . S
H892 C896 0.929 . S
H893 C902 0.929 . S
C894 H888 0.930 . S
C894 C895 1.367 . S
C894 C902 1.378 . S
C895 C894 1.367 . S
C895 C903 1.433 . S
C896 H892 0.929 . S
C896 C898 1.378 . S
C896 C900 1.350 . S
C897 C900 1.463 . S
C897 C902 1.350 . S
C897 N905 1.427 . S
C898 H889 0.930 . S
C898 C896 1.378 . S
C898 C899 1.367 . S
C899 C898 1.367 . S
C899 C901 1.433 . S
C900 C896 1.350 . S
C900 C897 1.463 . S
C900 N904 1.427 . S
C901 H891 0.929 . S
C901 C899 1.433 . S
C901 N904 1.384 . S
C902 H893 0.929 . S
C902 C894 1.378 . S
C902 C897 1.350 . S
C903 H890 0.929 . S
C903 C895 1.433 . S
C903 N905 1.384 . S
N904 C900 1.427 . S
N904 C901 1.384 . S
N905 C897 1.427 . S
N905 C903 1.384 . S
H906 C912 0.930 . S
H907 C916 0.930 . S
H908 C921 0.929 . S
H909 C919 0.929 . S
H910 C914 0.929 . S
H911 C920 0.929 . S
C912 H906 0.930 . S
C912 C913 1.367 . S
C912 C920 1.378 . S
C913 C912 1.367 . S
C913 C921 1.433 . S
C914 H910 0.929 . S
C914 C916 1.378 . S
C914 C918 1.350 . S
C915 C918 1.463 . S
C915 C920 1.350 . S
C915 N923 1.427 . S
C916 H907 0.930 . S
C916 C914 1.378 . S
C916 C917 1.367 . S
C917 C916 1.367 . S
C917 C919 1.433 . S
C918 C914 1.350 . S
C918 C915 1.463 . S
C918 N922 1.427 . S
C919 H909 0.929 . S
C919 C917 1.433 . S
C919 N922 1.384 . S
C920 H911 0.929 . S
C920 C912 1.378 . S
C920 C915 1.350 . S
C921 H908 0.929 . S
C921 C913 1.433 . S
C921 N923 1.384 . S
N922 C918 1.427 . S
N922 C919 1.384 . S
N923 C915 1.427 . S
N923 C921 1.384 . S
H924 C930 0.930 . S
H925 C934 0.930 . S
H926 C939 0.929 . S
H927 C937 0.929 . S
H928 C932 0.929 . S
H929 C938 0.929 . S
C930 H924 0.930 . S
C930 C931 1.367 . S
C930 C938 1.378 . S
C931 C930 1.367 . S
C931 C939 1.433 . S
C932 H928 0.929 . S
C932 C934 1.378 . S
C932 C936 1.350 . S
C933 C936 1.463 1_554 S
C933 C938 1.350 . S
C933 N941 1.427 . S
C934 H925 0.930 . S
C934 C932 1.378 . S
C934 C935 1.367 . S
C935 C934 1.367 . S
C935 C937 1.433 . S
C936 C932 1.350 . S
C936 C933 1.463 1_556 S
C936 N940 1.427 . S
C937 H927 0.929 . S
C937 C935 1.433 . S
C937 N940 1.384 . S
C938 H929 0.929 . S
C938 C930 1.378 . S
C938 C933 1.350 . S
C939 H926 0.929 . S
C939 C931 1.433 . S
C939 N941 1.384 . S
N940 C936 1.427 . S
N940 C937 1.384 . S
N941 C933 1.427 . S
N941 C939 1.384 . S
H942 C948 0.930 . S
H943 C952 0.930 . S
H944 C957 0.929 . S
H945 C955 0.929 . S
H946 C950 0.929 . S
H947 C956 0.929 . S
C948 H942 0.930 . S
C948 C949 1.367 . S
C948 C956 1.378 . S
C949 C948 1.367 . S
C949 C957 1.433 . S
C950 H946 0.929 . S
C950 C952 1.378 . S
C950 C954 1.350 . S
C951 C954 1.463 . S
C951 C956 1.350 . S
C951 N959 1.427 . S
C952 H943 0.930 . S
C952 C950 1.378 . S
C952 C953 1.367 . S
C953 C952 1.367 . S
C953 C955 1.433 . S
C954 C950 1.350 . S
C954 C951 1.463 . S
C954 N958 1.427 . S
C955 H945 0.929 . S
C955 C953 1.433 . S
C955 N958 1.384 . S
C956 H947 0.929 . S
C956 C948 1.378 . S
C956 C951 1.350 . S
C957 H944 0.929 . S
C957 C949 1.433 . S
C957 N959 1.384 . S
N958 C954 1.427 . S
N958 C955 1.384 . S
N959 C951 1.427 . S
N959 C957 1.384 . S
C539 C514 1.471 . S
C535 C51 1.429 . S
C553 C125 1.421 . S
C557 C455 1.426 . S
C571 C217 2.651 . S
C575 C458 2.699 . S
C589 C291 1.544 . S
C593 C472 1.547 . S
C611 C497 1.028 . S
C607 C347 1.005 . S
C625 C421 0.928 . S
C629 C500 0.930 . S
C643 C143 2.217 . S
C647 C469 2.222 . S
C661 C199 1.563 . S
C665 C483 1.590 . S
C679 C273 0.530 . S
C683 C486 0.528 . S
C701 C511 1.755 . S
C697 C365 1.712 . S
C719 C525 1.789 . S
C715 C439 1.789 . S
C737 C444 2.543 . S
C733 C69 2.486 . S
C751 C63 1.423 . S
C755 C467 1.519 . S
C769 C137 1.585 . S
C773 C481 1.670 . S
C791 C491 1.399 . S
C787 C187 1.350 . S
C805 C261 1.510 . S
C809 C509 1.532 . S
C827 C523 1.632 . S
C823 C359 1.489 . S
C845 C449 1.226 . S
C841 C433 1.171 . S
C863 C519 1.710 . S
C859 C113 1.685 . S
C877 C211 1.355 . S
C881 C453 1.430 . S
C899 C463 1.663 . S
C895 C285 1.554 . S
C913 C335 1.441 . S
C917 C477 1.515 . S
C931 C409 1.371 . S
C935 C495 1.385 . S
C949 C39 1.626 . S
C953 C505 1.663 . S
