# Generated by pormake.
# Topology zzz, (3,6)-cn, num edge types: 1
# Building blocks:
#     Node 0, Type 0, BuildingBlock: BETDIP_clean_linker_0, # of connection points: 3
#     Node 1, Type 0, BuildingBlock: BETDIP_clean_linker_0, # of connection points: 3
#     Node 2, Type 0, BuildingBlock: BETDIP_clean_linker_0, # of connection points: 3
#     Node 3, Type 0, BuildingBlock: BETDIP_clean_linker_0, # of connection points: 3
#     Node 4, Type 0, BuildingBlock: BETDIP_clean_linker_0, # of connection points: 3
#     Node 5, Type 0, BuildingBlock: BETDIP_clean_linker_0, # of connection points: 3
#     Node 6, Type 0, BuildingBlock: BETDIP_clean_linker_0, # of connection points: 3
#     Node 7, Type 0, BuildingBlock: BETDIP_clean_linker_0, # of connection points: 3
#     Node 8, Type 1, BuildingBlock: BETDAH_clean_sbu_0, # of connection points: 6
#     Node 9, Type 1, BuildingBlock: BETDAH_clean_sbu_0, # of connection points: 6
#     Node 10, Type 1, BuildingBlock: BETDAH_clean_sbu_0, # of connection points: 6
#     Node 11, Type 1, BuildingBlock: BETDAH_clean_sbu_0, # of connection points: 6
#     Edge 12, Type (0, 1), BuildingBlock: AJUNOK_clean_linker_0, # of connection points: 2
#     Edge 13, Type (0, 1), BuildingBlock: AJUNOK_clean_linker_0, # of connection points: 2
#     Edge 14, Type (0, 1), BuildingBlock: AJUNOK_clean_linker_0, # of connection points: 2
#     Edge 15, Type (0, 1), BuildingBlock: AJUNOK_clean_linker_0, # of connection points: 2
#     Edge 16, Type (0, 1), BuildingBlock: AJUNOK_clean_linker_0, # of connection points: 2
#     Edge 17, Type (0, 1), BuildingBlock: AJUNOK_clean_linker_0, # of connection points: 2
#     Edge 18, Type (0, 1), BuildingBlock: AJUNOK_clean_linker_0, # of connection points: 2
#     Edge 19, Type (0, 1), BuildingBlock: AJUNOK_clean_linker_0, # of connection points: 2
#     Edge 20, Type (0, 1), BuildingBlock: AJUNOK_clean_linker_0, # of connection points: 2
#     Edge 21, Type (0, 1), BuildingBlock: AJUNOK_clean_linker_0, # of connection points: 2
#     Edge 22, Type (0, 1), BuildingBlock: AJUNOK_clean_linker_0, # of connection points: 2
#     Edge 23, Type (0, 1), BuildingBlock: AJUNOK_clean_linker_0, # of connection points: 2
#     Edge 24, Type (0, 1), BuildingBlock: AJUNOK_clean_linker_0, # of connection points: 2
#     Edge 25, Type (0, 1), BuildingBlock: AJUNOK_clean_linker_0, # of connection points: 2
#     Edge 26, Type (0, 1), BuildingBlock: AJUNOK_clean_linker_0, # of connection points: 2
#     Edge 27, Type (0, 1), BuildingBlock: AJUNOK_clean_linker_0, # of connection points: 2
#     Edge 28, Type (0, 1), BuildingBlock: AJUNOK_clean_linker_0, # of connection points: 2
#     Edge 29, Type (0, 1), BuildingBlock: AJUNOK_clean_linker_0, # of connection points: 2
#     Edge 30, Type (0, 1), BuildingBlock: AJUNOK_clean_linker_0, # of connection points: 2
#     Edge 31, Type (0, 1), BuildingBlock: AJUNOK_clean_linker_0, # of connection points: 2
#     Edge 32, Type (0, 1), BuildingBlock: AJUNOK_clean_linker_0, # of connection points: 2
#     Edge 33, Type (0, 1), BuildingBlock: AJUNOK_clean_linker_0, # of connection points: 2
#     Edge 34, Type (0, 1), BuildingBlock: AJUNOK_clean_linker_0, # of connection points: 2
#     Edge 35, Type (0, 1), BuildingBlock: AJUNOK_clean_linker_0, # of connection points: 2
# Relax obj value: 0.364
# Max RMSD: 0.211
# Mean RMSD: 0.161
data_MOF--net-zzz--node1-BETDAH_clean_sbu_0--node2-BETDIP_clean_linker_0--edge1-AJUNOK_clean_linker_0
_symmetry_space_group_name_H-M    P1
_symmetry_Int_Tables_number       1
_symmetry_cell_setting            triclinic
loop_
_symmetry_equiv_pos_as_xyz
'x, y, z'
_cell_length_a     39.109426
_cell_length_b     39.144544
_cell_length_c     10.134445
_cell_angle_alpha  89.835301
_cell_angle_beta   89.984432
_cell_angle_gamma 90.043166
loop_
_atom_site_label
_atom_site_type_symbol
_atom_site_fract_x
_atom_site_fract_y
_atom_site_fract_z
_atom_type_partial_charge
H0 H 0.77664 0.54054 0.43954 0.0
H1 H 0.73127 0.4445 0.32087 0.0
H2 H 0.83235 0.44693 0.4843 0.0
H3 H 0.71545 0.47752 0.14641 0.0
C4 C 0.70271 0.49764 0.2012 0.0
C5 C 0.7777 0.51299 0.43156 0.0
C6 C 0.80722 0.49503 0.47829 0.0
C7 C 0.75 0.49488 0.37043 0.0
C8 C 0.75231 0.45899 0.36158 0.0
C9 C 0.78229 0.44159 0.39581 0.0
C10 C 0.8087 0.45977 0.45863 0.0
N11 N 0.72081 0.51209 0.31228 0.0
H12 H 0.99313 0.77256 0.47572 0.0
H13 H 0.08275 0.73686 0.26593 0.0
H14 H 0.08555 0.83234 0.47047 0.0
H15 H 0.03681 0.72446 0.11878 0.0
C16 C 0.02491 0.70679 0.18799 0.0
C17 C 0.01971 0.77548 0.4481 0.0
C18 C 0.03814 0.80546 0.48815 0.0
C19 C 0.03579 0.74995 0.36716 0.0
C20 C 0.07007 0.75517 0.32921 0.0
C21 C 0.08795 0.78458 0.36596 0.0
C22 C 0.0721 0.80883 0.44724 0.0
N23 N 0.01794 0.72004 0.31829 0.0
H24 H 0.75827 0.99287 0.47429 0.0
H25 H 0.7991 0.086 0.30244 0.0
H26 H 0.70122 0.08651 0.48943 0.0
H27 H 0.82193 0.05106 0.15886 0.0
C28 C 0.8327 0.03112 0.22073 0.0
C29 C 0.75646 0.02 0.45459 0.0
C30 C 0.7269 0.03852 0.49804 0.0
C31 C 0.78325 0.03688 0.38209 0.0
C32 C 0.77956 0.07209 0.35563 0.0
C33 C 0.74969 0.08961 0.38902 0.0
C34 C 0.72463 0.07309 0.46512 0.0
N35 N 0.81293 0.01881 0.33197 0.0
H36 H 0.53161 0.75654 0.50039 0.0
H37 H 0.45022 0.80129 0.26557 0.0
H38 H 0.44302 0.69819 0.39293 0.0
H39 H 0.49759 0.81669 0.13775 0.0
C40 C 0.51033 0.83004 0.21772 0.0
C41 C 0.50671 0.7547 0.45446 0.0
C42 C 0.48668 0.72414 0.47116 0.0
C43 C 0.49423 0.7826 0.37431 0.0
C44 C 0.46098 0.7803 0.32171 0.0
C45 C 0.44217 0.7503 0.33257 0.0
C46 C 0.45607 0.72242 0.40016 0.0
N47 N 0.51451 0.81243 0.34237 0.0
H48 H 0.24892 0.48236 0.18933 0.0
H49 H 0.29449 0.57548 0.3354 0.0
H50 H 0.19515 0.57723 0.15416 0.0
H51 H 0.34465 0.54385 0.25085 0.0
C52 C 0.3392 0.52358 0.32143 0.0
C53 C 0.24828 0.50981 0.20138 0.0
C54 C 0.21928 0.52868 0.15583 0.0
C55 C 0.27643 0.52691 0.26353 0.0
C56 C 0.2741 0.56244 0.28391 0.0
C57 C 0.24456 0.58073 0.2494 0.0
C58 C 0.21842 0.56375 0.18001 0.0
N59 N 0.30549 0.50863 0.31668 0.0
H60 H 0.04737 0.24724 0.19296 0.0
H61 H 0.95521 0.29152 0.35358 0.0
H62 H 0.95235 0.19315 0.16547 0.0
H63 H 0.99053 0.34373 0.25772 0.0
C64 C 1.00844 0.3366 0.33473 0.0
C65 C 0.02 0.24634 0.20845 0.0
C66 C 1.00089 0.21758 0.16223 0.0
C67 C 1.00329 0.27398 0.27534 0.0
C68 C 0.96789 0.27149 0.29875 0.0
C69 C 0.94947 0.242 0.2645 0.0
C70 C 0.96601 0.2163 0.19133 0.0
N71 N 0.02195 0.30233 0.33164 0.0
H72 H 0.27818 0.03635 0.1692 0.0
H73 H 0.24165 0.94249 0.34687 0.0
H74 H 0.34093 0.94653 0.16855 0.0
H75 H 0.19016 0.96355 0.29223 0.0
C76 C 0.19284 0.98888 0.33449 0.0
C77 C 0.28143 1.00948 0.19123 0.0
C78 C 0.3124 0.9926 0.15323 0.0
C79 C 0.25475 0.99119 0.25884 0.0
C80 C 0.26054 0.95658 0.29107 0.0
C81 C 0.2916 0.94044 0.26195 0.0
C82 C 0.31645 0.95838 0.18907 0.0
N83 N 0.22373 1.00773 0.30448 0.0
H84 H 0.49019 0.28011 0.17837 0.0
H85 H 0.58004 0.24515 0.38765 0.0
H86 H 0.58261 0.33974 0.17411 0.0
H87 H 0.55813 0.19192 0.29305 0.0
C88 C 0.53418 0.19487 0.34638 0.0
C89 C 0.51686 0.2831 0.20443 0.0
C90 C 0.53513 0.31289 0.16162 0.0
C91 C 0.53359 0.25715 0.28136 0.0
C92 C 0.56771 0.2628 0.32027 0.0
C93 C 0.58541 0.29229 0.28178 0.0
C94 C 0.5693 0.31627 0.19955 0.0
N95 N 0.51618 0.22673 0.32775 0.0
Ho96 Ho 0.04206 1.0039 0.91913 0.0
Ho97 Ho 0.99702 0.01992 0.72606 0.0
C98 C 0.01687 0.94145 0.72629 0.0
C99 C 0.07773 0.97926 0.11202 0.0
C100 C 0.10139 0.95076 0.13197 0.0
C101 C 0.1016 0.93467 0.25481 0.0
C102 C 0.11976 0.90455 0.27256 0.0
C103 C 0.1387 0.89009 0.16855 0.0
C104 C 0.13979 0.90721 0.0465 0.0
C105 C 0.1212 0.93746 0.0283 0.0
C106 C 0.07706 0.02077 0.69102 0.0
C107 C 0.0218 0.08179 0.92187 0.0
C108 C 0.96085 0.04682 0.53868 0.0
C109 C 0.94241 0.07954 0.52427 0.0
C110 C 0.96068 0.1103 0.51709 0.0
C111 C 0.94352 0.14112 0.50359 0.0
C112 C 0.90762 0.1422 0.49749 0.0
C113 C 0.88906 0.11158 0.50369 0.0
C114 C 0.9064 0.08038 0.51805 0.0
C115 C 0.96228 1.00244 0.95258 0.0
O116 O 0.02896 0.94961 0.84463 0.0
O117 O 1.00593 0.96642 0.64968 0.0
O118 O 0.08825 1.00401 0.03597 0.0
O119 O 0.04595 0.97076 0.08953 0.0
O120 O 0.08335 0.03253 0.80741 0.0
O121 O 0.05076 1.00191 0.70092 0.0
O122 O 1.01136 0.07409 0.80074 0.0
O123 O 0.03093 0.05638 0.99928 0.0
O124 O 0.94844 0.02547 0.62506 0.0
O125 O 0.99421 0.04838 0.54353 0.0
O126 O 0.95679 0.98976 0.83688 0.0
O127 O 0.98827 0.02179 0.94392 0.0
H128 H 0.08609 0.94432 0.33515 0.0
H129 H 0.11655 0.89107 0.36507 0.0
H130 H 0.15326 0.89614 0.96359 0.0
H131 H 0.12101 0.94954 0.9321 0.0
H132 H 0.98836 0.11073 0.52008 0.0
H133 H 0.95855 0.16423 0.49299 0.0
H134 H 0.86146 0.11175 0.49489 0.0
H135 H 0.89175 0.0569 0.5219 0.0
Ho136 Ho 0.52748 0.03945 0.92525 0.0
Ho137 Ho 0.51108 0.99667 0.72874 0.0
C138 C 0.58908 0.01698 0.72257 0.0
C139 C 0.55441 0.07119 0.12293 0.0
C140 C 0.58417 0.09318 0.14542 0.0
C141 C 0.6044 0.08671 0.25619 0.0
C142 C 0.63355 0.10606 0.27914 0.0
C143 C 0.64358 0.13182 0.19002 0.0
C144 C 0.62323 0.13856 0.07898 0.0
C145 C 0.59345 0.11946 0.05718 0.0
C146 C 0.50934 0.07741 0.70702 0.0
C147 C 0.4492 0.01915 0.92784 0.0
C148 C 0.48446 0.96053 0.54179 0.0
C149 C 0.45292 0.94006 0.53449 0.0
C150 C 0.42144 0.9547 0.56757 0.0
C151 C 0.39154 0.9358 0.55776 0.0
C152 C 0.39215 0.90158 0.51464 0.0
C153 C 0.42388 0.88645 0.48596 0.0
C154 C 0.45411 0.90553 0.49698 0.0
C155 C 0.53043 0.96037 0.94939 0.0
O156 O 0.58152 0.02757 0.84352 0.0
O157 O 0.56363 1.00724 0.64655 0.0
O158 O 0.5297 0.08377 0.05154 0.0
O159 O 0.56124 0.03944 0.09414 0.0
O160 O 0.49847 0.08235 0.82583 0.0
O161 O 0.5282 0.05095 0.70802 0.0
O162 O 0.45687 1.00929 0.80623 0.0
O163 O 0.47464 0.02841 0.00481 0.0
O164 O 0.50775 0.94892 0.62178 0.0
O165 O 0.48074 0.99364 0.55094 0.0
O166 O 0.54284 0.95645 0.83232 0.0
O167 O 0.51007 0.98554 0.94561 0.0
H168 H 0.5978 0.06642 0.32459 0.0
H169 H 0.64931 0.09954 0.36336 0.0
H170 H 0.63103 0.1576 0.00725 0.0
H171 H 0.57834 0.12451 0.96972 0.0
H172 H 0.41962 0.98116 0.59738 0.0
H173 H 0.36768 0.94899 0.57611 0.0
H174 H 0.42516 0.8604 0.45048 0.0
H175 H 0.47831 0.8936 0.4732 0.0
Ho176 Ho 0.49081 0.5258 0.91916 0.0
Ho177 Ho 0.53436 0.51069 0.71982 0.0
C178 C 0.51212 0.58818 0.71806 0.0
C179 C 0.45871 0.55358 0.11404 0.0
C180 C 0.43624 0.58342 0.12611 0.0
C181 C 0.4365 0.60193 0.24375 0.0
C182 C 0.41751 0.63181 0.25466 0.0
C183 C 0.39896 0.64458 0.14616 0.0
C184 C 0.39713 0.625 0.0306 0.0
C185 C 0.41567 0.59451 0.02055 0.0
C186 C 0.45321 0.50662 0.70299 0.0
C187 C 0.51199 0.448 0.9187 0.0
C188 C 0.56945 0.48641 0.52458 0.0
C189 C 0.59442 0.45898 0.50601 0.0
C190 C 0.5976 0.44439 0.38127 0.0
C191 C 0.61708 0.41502 0.36462 0.0
C192 C 0.63421 0.39979 0.47213 0.0
C193 C 0.63287 0.41598 0.59573 0.0
C194 C 0.613 0.4454 0.61258 0.0
C195 C 0.57084 0.5276 0.94438 0.0
O196 O 0.50045 0.57974 0.83643 0.0
O197 O 0.52378 0.5638 0.64139 0.0
O198 O 0.44667 0.52784 0.04709 0.0
O199 O 0.49059 0.56032 0.08559 0.0
O200 O 0.44826 0.49632 0.82267 0.0
O201 O 0.47941 0.52604 0.70161 0.0
O202 O 0.52278 0.45623 0.79825 0.0
O203 O 0.50185 0.47289 0.99662 0.0
O204 O 0.57938 0.51204 0.59654 0.0
O205 O 0.53831 0.47668 0.55228 0.0
O206 O 0.57577 0.53997 0.82776 0.0
O207 O 0.54485 0.50835 0.93656 0.0
H208 H 0.45209 0.59373 0.32632 0.0
H209 H 0.41938 0.64611 0.34548 0.0
H210 H 0.38276 0.63417 0.94646 0.0
H211 H 0.41503 0.58038 0.92883 0.0
H212 H 0.58328 0.45444 0.29824 0.0
H213 H 0.61594 0.40248 0.26984 0.0
H214 H 0.64522 0.4046 0.68081 0.0
H215 H 0.6108 0.45658 0.7097 0.0
Ho216 Ho 1.00269 0.49233 0.91373 0.0
Ho217 Ho 0.02329 0.53299 0.7181 0.0
C218 C 0.94474 0.51591 0.70096 0.0
C219 C 0.97145 0.45983 0.10116 0.0
C220 C 0.94012 0.43912 0.11066 0.0
C221 C 0.90875 0.45184 0.06619 0.0
C222 C 0.87901 0.4328 0.08306 0.0
C223 C 0.87988 0.40029 0.14373 0.0
C224 C 0.91173 0.38683 0.18161 0.0
C225 C 0.94155 0.40619 0.16549 0.0
C226 C 0.02355 0.45218 0.70626 0.0
C227 C 0.08153 0.50934 0.92966 0.0
C228 C 0.05305 0.56768 0.53247 0.0
C229 C 0.08444 0.58844 0.52656 0.0
C230 C 0.11486 0.57614 0.58143 0.0
C231 C 0.14514 0.5943 0.56636 0.0
C232 C 0.14587 0.62578 0.498 0.0
C233 C 0.11472 0.63927 0.45142 0.0
C234 C 0.08429 0.62062 0.46504 0.0
C235 C 1.00287 0.57229 0.93064 0.0
O236 O 0.95052 0.50715 0.82519 0.0
O237 O 0.97147 0.52301 0.62679 0.0
O238 O 0.99587 0.44665 0.03077 0.0
O239 O 0.96787 0.49257 0.07984 0.0
O240 O 0.0318 0.44792 0.82843 0.0
O241 O 1.00539 0.4791 0.69732 0.0
O242 O 0.07574 0.51815 0.80534 0.0
O243 O 0.05477 0.50208 1.00367 0.0
O244 O 0.02867 0.57987 0.6056 0.0
O245 O 0.05696 0.5348 0.54902 0.0
O246 O 0.99221 0.57506 0.81052 0.0
O247 O 0.02182 0.54591 0.93444 0.0
H248 H 0.90688 0.47709 0.02316 0.0
H249 H 0.85509 0.44489 0.0566 0.0
H250 H 0.91339 0.3621 0.22942 0.0
H251 H 0.96564 0.39593 0.1993 0.0
H252 H 0.11572 0.5516 0.63063 0.0
H253 H 0.1683 0.582 0.60023 0.0
H254 H 0.11413 0.66336 0.39862 0.0
H255 H 0.06088 0.63086 0.42397 0.0
C256 C 0.15236 0.03218 0.44575 0.0
C257 C 0.16541 0.99872 0.43305 0.0
C258 C 0.12362 0.03929 0.52778 0.0
C259 C 0.10639 1.01321 0.59863 0.0
H260 H 0.16384 0.05282 0.38985 0.0
H261 H 0.11456 0.06536 0.53458 0.0
S262 S 0.13358 0.92261 0.61636 0.0
N263 N 0.16087 0.94021 0.5118 0.0
N264 N 0.10711 0.95338 0.65998 0.0
C265 C 0.11997 0.98006 0.58964 0.0
C266 C 0.14927 0.97293 0.50853 0.0
C267 C 0.54516 0.13577 0.43356 0.0
C268 C 0.52418 0.16512 0.43518 0.0
C269 C 0.53941 0.10722 0.51644 0.0
C270 C 0.51256 0.10664 0.60893 0.0
H271 H 0.56702 0.13532 0.36876 0.0
H272 H 0.557 0.08591 0.51102 0.0
S273 S 0.44944 0.1767 0.65597 0.0
N274 N 0.47465 0.19129 0.53756 0.0
N275 N 0.46413 0.13845 0.69583 0.0
C276 C 0.49102 0.13577 0.61173 0.0
C277 C 0.49669 0.16474 0.52498 0.0
C278 C 0.40044 0.52894 0.39357 0.0
C279 C 0.36778 0.51485 0.41719 0.0
C280 C 0.42795 0.52556 0.48323 0.0
C281 C 0.42439 0.50747 0.60259 0.0
H282 H 0.40452 0.54323 0.3042 0.0
H283 H 0.45207 0.53774 0.45953 0.0
S284 S 0.34481 0.46303 0.71098 0.0
N285 N 0.33406 0.48047 0.56822 0.0
N286 N 0.38527 0.47334 0.73616 0.0
C287 C 0.39207 0.49196 0.62595 0.0
C288 C 0.36397 0.49572 0.53398 0.0
C289 C 1.01268 0.3605 0.56887 0.0
C290 C 0.01816 0.36432 0.43204 0.0
C291 C 1.01493 0.38876 0.6565 0.0
C292 C 0.02221 0.42232 0.61139 0.0
H293 H 1.00519 0.33582 0.60794 0.0
H294 H 1.00985 0.38442 0.76026 0.0
S295 S 0.04458 0.44486 0.26754 0.0
N296 N 0.03521 0.40378 0.25946 0.0
N297 N 0.03885 0.45631 0.42254 0.0
C298 C 0.02908 0.42604 0.47612 0.0
C299 C 0.02714 0.39732 0.38735 0.0
C300 C 0.87681 0.98853 0.13579 0.0
C301 C 0.86885 0.02122 0.18512 0.0
C302 C 0.90784 0.98221 0.06689 0.0
C303 C 0.93268 1.00803 0.04646 0.0
H304 H 0.85796 0.96832 0.14221 0.0
H305 H 0.91181 0.95714 0.02461 0.0
S306 S 0.92457 0.09791 0.15847 0.0
N307 N 0.88861 0.07968 0.20748 0.0
N308 N 0.94705 0.06744 0.087 0.0
C309 C 0.92566 0.04031 0.10143 0.0
C310 C 0.89378 0.04696 0.16781 0.0
C311 C 0.49332 0.89151 0.1811 0.0
C312 C 0.51946 0.86664 0.18761 0.0
C313 C 0.4978 0.92302 0.11355 0.0
C314 C 0.52826 0.93059 0.04449 0.0
H315 H 0.46835 0.88567 0.22148 0.0
H316 H 0.47634 0.94043 0.10754 0.0
S317 S 0.60488 0.87466 0.03175 0.0
N318 N 0.5773 0.85267 0.1218 0.0
N319 N 0.58553 0.91081 0.99277 0.0
C320 C 0.55493 0.90641 0.05396 0.0
C321 C 0.55055 0.87475 0.12508 0.0
C322 C 0.65227 0.53846 0.15703 0.0
C323 C 0.66651 0.50534 0.1573 0.0
C324 C 0.62066 0.54549 0.09259 0.0
C325 C 0.60141 0.51953 0.02988 0.0
H326 H 0.66647 0.5594 0.20016 0.0
H327 H 0.61162 0.57162 0.08896 0.0
S328 S 0.62695 0.42856 0.00437 0.0
N329 N 0.65842 0.44648 0.088 0.0
N330 N 0.59908 0.45933 0.97573 0.0
C331 C 0.61479 0.48622 0.03481 0.0
C332 C 0.64718 0.47927 0.09616 0.0
C333 C 0.02853 0.66481 1.00257 0.0
C334 C 0.01871 0.67099 0.1346 0.0
C335 C 0.02406 0.63287 0.94112 0.0
C336 C 1.00975 0.60468 0.00784 0.0
H337 H 0.03974 0.6852 0.94434 0.0
H338 H 0.03178 0.63035 0.83891 0.0
S339 S 0.9792 0.606 0.35494 0.0
N340 N 0.99353 0.6453 0.3306 0.0
N341 N 0.98553 0.58508 0.21545 0.0
C342 C 1.0001 0.60996 0.14079 0.0
C343 C 1.00442 0.643 0.20386 0.0
C344 C 0.89446 0.20988 0.26553 0.0
C345 C 0.91643 0.23304 0.33049 0.0
C346 C 0.88289 0.18053 0.33186 0.0
C347 C 0.89161 0.17534 0.46484 0.0
H348 H 0.89266 0.21034 0.15883 0.0
H349 H 0.8732 0.15949 0.27352 0.0
S350 S 0.92572 0.24017 0.69372 0.0
N351 N 0.93049 0.25719 0.54553 0.0
N352 N 0.90656 0.20307 0.6703 0.0
C353 C 0.90226 0.20389 0.53728 0.0
C354 C 0.9153 0.23302 0.4695 0.0
C355 C 0.32704 0.88765 0.26851 0.0
C356 C 0.30223 0.90829 0.33041 0.0
C357 C 0.35607 0.8772 0.33898 0.0
C358 C 0.35938 0.8857 0.47313 0.0
H359 H 0.32778 0.88601 0.16181 0.0
H360 H 0.37802 0.86853 0.28317 0.0
S361 S 0.29033 0.91571 0.69269 0.0
N362 N 0.27509 0.92075 0.54193 0.0
N363 N 0.32827 0.89783 0.6747 0.0
C364 C 0.32941 0.89446 0.54131 0.0
C365 C 0.3007 0.90681 0.46929 0.0
C366 C 0.61296 0.31024 0.48799 0.0
C367 C 0.61663 0.30341 0.35253 0.0
C368 C 0.62704 0.34 0.54188 0.0
C369 C 0.64442 0.36339 0.46018 0.0
H370 H 0.59427 0.29638 0.54621 0.0
H371 H 0.61868 0.34752 0.63937 0.0
S372 S 0.67695 0.34618 0.12439 0.0
N373 N 0.6509 0.31394 0.15666 0.0
N374 N 0.6776 0.36989 0.25905 0.0
C375 C 0.65664 0.3513 0.33857 0.0
C376 C 0.6423 0.32111 0.28346 0.0
C377 C 0.21204 0.63534 0.24624 0.0
C378 C 0.23624 0.61446 0.31081 0.0
C379 C 0.18295 0.64642 0.31479 0.0
C380 C 0.17945 0.6392 0.45045 0.0
H381 H 0.21142 0.63625 0.13937 0.0
H382 H 0.16132 0.65502 0.257 0.0
S383 S 0.24917 0.61206 0.67363 0.0
N384 N 0.26384 0.60458 0.5236 0.0
N385 N 0.21122 0.62981 0.65341 0.0
C386 C 0.20948 0.63087 0.5195 0.0
C387 C 0.23798 0.61747 0.44917 0.0
C388 C 0.11581 0.80148 0.15823 0.0
C389 C 0.11926 0.79516 0.29435 0.0
C390 C 0.13086 0.83052 0.10161 0.0
C391 C 0.14881 0.85375 0.18139 0.0
H392 H 0.09675 0.78789 0.10117 0.0
H393 H 0.12276 0.83796 1.00351 0.0
S394 S 0.18019 0.83759 0.51972 0.0
N395 N 0.15343 0.80582 0.48998 0.0
N396 N 0.18174 0.86049 0.3826 0.0
C397 C 0.16058 0.84194 0.30426 0.0
C398 C 0.1453 0.81249 0.36219 0.0
C399 C 0.7194 0.14522 0.38406 0.0
C400 C 0.73942 0.12101 0.31648 0.0
C401 C 0.68889 0.15708 0.32768 0.0
C402 C 0.67868 0.14532 0.20264 0.0
H403 H 0.72333 0.1492 0.48873 0.0
H404 H 0.6705 0.1696 0.39125 0.0
S405 S 0.73256 0.09946 0.96173 0.0
N406 N 0.75477 0.09882 0.10025 0.0
N407 N 0.69767 0.12162 0.9943 0.0
C408 C 0.7036 0.13037 0.12197 0.0
C409 C 0.73441 0.11802 0.17947 0.0
C410 C 0.3845 0.7262 0.31138 0.0
C411 C 0.41169 0.7438 0.25014 0.0
C412 C 0.37389 0.69454 0.26135 0.0
C413 C 0.38939 0.68119 0.14721 0.0
H414 H 0.3774 0.73255 0.41172 0.0
H415 H 0.35849 0.67813 0.3239 0.0
S416 S 0.44598 0.72848 0.91696 0.0
N417 N 0.44139 0.75416 0.04448 0.0
N418 N 0.42211 0.69471 0.94989 0.0
C419 C 0.40832 0.70379 0.06743 0.0
C420 C 0.41879 0.73594 0.11848 0.0
C421 C 0.81588 0.38775 0.40054 0.0
C422 C 0.79045 0.40747 0.33769 0.0
C423 C 0.84502 0.37793 0.32944 0.0
C424 C 0.84734 0.38527 0.19353 0.0
H425 H 0.81728 0.38725 0.50733 0.0
H426 H 0.86744 0.37047 0.38512 0.0
S427 S 0.77522 0.40908 0.97636 0.0
N428 N 0.76088 0.41534 0.12769 0.0
N429 N 0.81427 0.39361 0.99318 0.0
C430 C 0.81666 0.39225 0.12688 0.0
C431 C 0.78784 0.40389 0.19973 0.0
C432 C 0.02276 0.15671 0.17111 0.0
C433 C 1.01534 0.18606 0.09514 0.0
C434 C 0.02584 0.12382 0.11368 0.0
C435 C 0.02106 0.11809 0.97683 0.0
H436 H 0.0243 0.15884 0.27751 0.0
H437 H 0.03064 0.10241 0.17896 0.0
S438 S 1.0023 0.18646 0.73219 0.0
N439 N 1.00407 0.20705 0.87415 0.0
N440 N 1.00996 0.1459 0.76658 0.0
C441 C 1.01458 0.14743 0.89915 0.0
C442 C 1.01163 0.181 0.95791 0.0
C443 C 0.35152 1.00165 0.95556 0.0
C444 C 0.34348 1.00896 0.08872 0.0
C445 C 0.38499 1.00621 0.90315 0.0
C446 C 0.41263 0.01769 0.98157 0.0
H447 H 0.33213 0.99041 0.89284 0.0
H448 H 0.38943 0.99929 0.80131 0.0
S449 S 0.40569 0.03971 0.33815 0.0
N450 N 0.36649 0.02812 0.2975 0.0
N451 N 0.4286 0.03672 0.20176 0.0
C452 C 0.40463 0.02588 0.11433 0.0
C453 C 0.37051 0.02145 0.16692 0.0
C454 C 0.50759 0.37139 0.16114 0.0
C455 C 0.52024 0.34336 0.08872 0.0
C456 C 0.50401 0.40436 0.10427 0.0
C457 C 0.51328 0.41148 0.97178 0.0
H458 H 0.50233 0.36829 0.26544 0.0
H459 H 0.49508 0.42482 0.16715 0.0
S460 S 0.54651 0.34677 0.73677 0.0
N461 N 0.5412 0.32503 0.87527 0.0
N462 N 0.53429 0.38629 0.76842 0.0
C463 C 0.52486 0.38336 0.89691 0.0
C464 C 0.52845 0.34973 0.95513 0.0
C465 C 0.18047 0.51572 0.96055 0.0
C466 C 0.18673 0.51385 0.09784 0.0
C467 C 0.14693 0.51313 0.90691 0.0
C468 C 0.11761 0.50934 0.98775 0.0
H469 H 0.20153 0.52105 0.89419 0.0
H470 H 0.14395 0.51527 0.80104 0.0
S471 S 0.11977 0.50499 0.35476 0.0
N472 N 0.16039 0.50845 0.31286 0.0
N473 N 0.09809 0.5047 0.215 0.0
C474 C 0.12375 0.50709 0.12524 0.0
C475 C 0.15788 0.50913 0.17915 0.0
C476 C 1.01132 0.86444 0.48663 0.0
C477 C 0.02359 0.83627 0.56006 0.0
C478 C 1.00817 0.89758 0.54218 0.0
C479 C 0.01756 0.90479 0.67431 0.0
H480 H 1.00602 0.8613 0.38246 0.0
H481 H 0.99953 0.91809 0.47849 0.0
S482 S 0.04995 0.83986 0.91177 0.0
N483 N 0.04434 0.81802 0.77421 0.0
N484 N 0.03827 0.8795 0.87848 0.0
C485 C 0.02879 0.87655 0.75014 0.0
C486 C 0.03191 0.84276 0.69332 0.0
C487 C 0.68696 0.03271 0.69484 0.0
C488 C 0.69521 0.02364 0.56351 0.0
C489 C 0.6533 0.02946 0.74665 0.0
C490 C 0.62568 0.0175 0.6693 0.0
H491 H 0.70643 0.04422 0.7563 0.0
H492 H 0.64872 0.03769 0.84704 0.0
S493 S 0.63314 0.99069 0.31784 0.0
N494 N 0.67242 1.00223 0.35766 0.0
N495 N 0.60992 0.99588 0.45246 0.0
C496 C 0.63385 1.00753 0.53852 0.0
C497 C 0.66817 1.01069 0.48653 0.0
C498 C 0.52808 0.67628 0.5483 0.0
C499 C 0.49566 0.6923 0.5535 0.0
C500 C 0.53372 0.64298 0.60239 0.0
C501 C 0.50734 0.62419 0.66551 0.0
H502 H 0.54885 0.6888 0.49663 0.0
H503 H 0.55886 0.63166 0.59304 0.0
S504 S 0.41724 0.65193 0.6954 0.0
N505 N 0.43671 0.6851 0.6286 0.0
N506 N 0.44732 0.6232 0.72043 0.0
C507 C 0.47518 0.63986 0.67218 0.0
C508 C 0.46942 0.67355 0.61947 0.0
C509 C 0.84629 0.50631 0.6727 0.0
C510 C 0.83928 0.51073 0.53689 0.0
C511 C 0.87984 0.50929 0.72502 0.0
C512 C 0.90856 0.51625 0.64427 0.0
H513 H 0.82587 0.49845 0.73836 0.0
H514 H 0.88336 0.5048 0.82948 0.0
S515 S 0.90444 0.53023 0.28106 0.0
N516 N 0.8643 0.52282 0.32311 0.0
N517 N 0.92673 0.52855 0.41934 0.0
C518 C 0.90169 0.52183 0.50864 0.0
C519 C 0.86745 0.51896 0.4558 0.0
loop_
_geom_bond_atom_site_label_1
_geom_bond_atom_site_label_2
_geom_bond_distance
_geom_bond_site_symmetry_2
_ccdc_geom_bond_type
H0 C5 0.930 . S
H1 C8 0.930 . S
H2 C10 0.930 . S
H3 C4 1.016 . S
C4 H3 1.016 . S
C4 N11 1.286 . S
C5 H0 0.930 . S
C5 C6 1.397 . S
C5 C7 1.361 . S
C6 C5 1.397 . S
C6 C10 1.390 . S
C7 C5 1.361 . S
C7 C8 1.393 . S
C7 N11 1.413 . S
C8 H1 0.930 . S
C8 C7 1.393 . S
C8 C9 1.399 . S
C9 C8 1.399 . S
C9 C10 1.381 . S
C10 H2 0.930 . S
C10 C6 1.390 . S
C10 C9 1.381 . S
N11 C4 1.286 . S
N11 C7 1.413 . S
H12 C17 0.930 . S
H13 C20 0.930 . S
H14 C22 0.930 . S
H15 C16 1.016 . S
C16 H15 1.016 . S
C16 N23 1.286 1_655 S
C17 H12 0.930 . S
C17 C18 1.397 . S
C17 C19 1.361 . S
C18 C17 1.397 . S
C18 C22 1.390 1_455 S
C19 C17 1.361 . S
C19 C20 1.393 . S
C19 N23 1.413 . S
C20 H13 0.930 . S
C20 C19 1.393 . S
C20 C21 1.403 . S
C21 C20 1.403 . S
C21 C22 1.379 1_455 S
C22 H14 0.930 . S
C22 C18 1.390 1_655 S
C22 C21 1.379 1_655 S
N23 C16 1.286 1_455 S
N23 C19 1.413 . S
H24 C29 0.930 . S
H25 C32 0.930 . S
H26 C34 0.930 . S
H27 C28 1.016 . S
C28 H27 1.016 . S
C28 N35 1.286 1_565 S
C29 H24 0.930 . S
C29 C30 1.397 . S
C29 C31 1.361 . S
C30 C29 1.397 . S
C30 C34 1.390 1_545 S
C31 C29 1.361 . S
C31 C32 1.393 . S
C31 N35 1.413 . S
C32 H25 0.930 . S
C32 C31 1.393 . S
C32 C33 1.403 . S
C33 C32 1.403 . S
C33 C34 1.379 1_545 S
C34 H26 0.930 . S
C34 C30 1.390 1_565 S
C34 C33 1.379 1_565 S
N35 C28 1.286 1_545 S
N35 C31 1.413 . S
H36 C41 0.930 . S
H37 C44 0.930 . S
H38 C46 0.930 . S
H39 C40 1.016 . S
C40 H39 1.016 . S
C40 N47 1.286 . S
C41 H36 0.930 . S
C41 C42 1.397 . S
C41 C43 1.361 . S
C42 C41 1.397 . S
C42 C46 1.390 . S
C43 C41 1.361 . S
C43 C44 1.393 . S
C43 N47 1.413 . S
C44 H37 0.930 . S
C44 C43 1.393 . S
C44 C45 1.399 . S
C45 C44 1.399 . S
C45 C46 1.381 . S
C46 H38 0.930 . S
C46 C42 1.390 . S
C46 C45 1.381 . S
N47 C40 1.286 . S
N47 C43 1.413 . S
H48 C53 0.930 . S
H49 C56 0.930 . S
H50 C58 0.930 1_556 S
H51 C52 1.016 . S
C52 H51 1.016 . S
C52 N59 1.286 . S
C53 H48 0.930 . S
C53 C54 1.397 . S
C53 C55 1.361 1_556 S
C54 C53 1.397 . S
C54 C58 1.390 1_556 S
C55 C53 1.361 1_554 S
C55 C56 1.393 . S
C55 N59 1.413 . S
C56 H49 0.930 . S
C56 C55 1.393 . S
C56 C57 1.399 . S
C57 C56 1.399 . S
C57 C58 1.381 . S
C58 H50 0.930 1_554 S
C58 C54 1.390 1_554 S
C58 C57 1.381 . S
N59 C52 1.286 . S
N59 C55 1.413 . S
H60 C65 0.930 . S
H61 C68 0.930 . S
H62 C70 0.930 . S
H63 C64 1.026 . S
C64 H63 1.026 . S
C64 N71 1.272 1_655 S
C65 H60 0.930 . S
C65 C66 1.397 . S
C65 C67 1.361 1_556 S
C66 C65 1.397 . S
C66 C70 1.390 1_456 S
C67 C65 1.361 1_554 S
C67 C68 1.393 . S
C67 N71 1.413 . S
C68 H61 0.930 . S
C68 C67 1.393 . S
C68 C69 1.404 . S
C69 C68 1.404 . S
C69 C70 1.378 1_455 S
C70 H62 0.930 . S
C70 C66 1.390 1_654 S
C70 C69 1.378 1_655 S
N71 C64 1.272 1_455 S
N71 C67 1.413 . S
H72 C77 0.930 . S
H73 C80 0.930 . S
H74 C82 0.930 1_556 S
H75 C76 1.026 . S
C76 H75 1.026 . S
C76 N83 1.272 1_565 S
C77 H72 0.930 . S
C77 C78 1.397 . S
C77 C79 1.361 1_556 S
C78 C77 1.397 . S
C78 C82 1.390 1_546 S
C79 C77 1.361 1_554 S
C79 C80 1.393 . S
C79 N83 1.413 . S
C80 H73 0.930 . S
C80 C79 1.393 . S
C80 C81 1.404 . S
C81 C80 1.404 . S
C81 C82 1.378 1_545 S
C82 H74 0.930 1_554 S
C82 C78 1.390 1_564 S
C82 C81 1.378 1_565 S
N83 C76 1.272 1_545 S
N83 C79 1.413 . S
H84 C89 0.930 . S
H85 C92 0.930 . S
H86 C94 0.930 1_556 S
H87 C88 1.016 . S
C88 H87 1.016 . S
C88 N95 1.286 . S
C89 H84 0.930 . S
C89 C90 1.397 . S
C89 C91 1.361 1_556 S
C90 C89 1.397 . S
C90 C94 1.390 1_556 S
C91 C89 1.361 1_554 S
C91 C92 1.393 . S
C91 N95 1.413 . S
C92 H85 0.930 . S
C92 C91 1.393 . S
C92 C93 1.399 . S
C93 C92 1.399 . S
C93 C94 1.381 . S
C94 H86 0.930 1_554 S
C94 C90 1.390 1_554 S
C94 C93 1.381 . S
N95 C88 1.286 . S
N95 C91 1.413 . S
Ho96 C99 2.811 1_556 S
Ho96 O116 2.322 . S
Ho96 O118 2.378 1_556 S
Ho96 O119 2.524 1_556 S
Ho96 O120 2.381 . S
Ho96 O121 2.669 1_565 S
Ho96 O123 2.346 1_565 S
Ho96 O127 2.305 1_455 S
Ho97 C108 2.811 . S
Ho97 O117 2.346 1_545 S
Ho97 O121 2.305 1_655 S
Ho97 O122 2.322 . S
Ho97 O124 2.378 . S
Ho97 O125 2.524 . S
Ho97 O126 2.381 . S
Ho97 O127 2.669 1_545 S
C98 O116 1.259 1_655 S
C98 O117 1.268 . S
C99 Ho96 2.811 1_554 S
C99 C100 1.488 . S
C99 O118 1.215 . S
C99 O119 1.289 . S
C100 C99 1.488 . S
C100 C101 1.348 . S
C100 C105 1.413 . S
C101 C100 1.348 . S
C101 C102 1.442 . S
C101 H128 0.930 1_455 S
C102 C101 1.442 . S
C102 C103 1.381 . S
C102 H129 0.928 . S
C103 C102 1.381 . S
C103 C104 1.321 . S
C104 C103 1.321 . S
C104 C105 1.403 . S
C104 H130 0.934 . S
C105 C100 1.413 . S
C105 C104 1.403 . S
C105 H131 0.930 . S
C106 O120 1.275 . S
C106 O121 1.256 1_565 S
C107 O122 1.259 1_455 S
C107 O123 1.268 . S
C108 Ho97 2.811 . S
C108 C109 1.488 . S
C108 O124 1.215 . S
C108 O125 1.289 . S
C109 C108 1.488 . S
C109 C110 1.348 . S
C109 C114 1.413 . S
C110 C109 1.348 . S
C110 C111 1.442 . S
C110 H132 0.930 1_655 S
C111 C110 1.442 . S
C111 C112 1.381 . S
C111 H133 0.928 1_655 S
C112 C111 1.381 . S
C112 C113 1.321 . S
C113 C112 1.321 . S
C113 C114 1.403 . S
C113 H134 0.934 . S
C114 C109 1.413 . S
C114 C113 1.403 . S
C114 H135 0.930 . S
C115 O126 1.275 . S
C115 O127 1.256 1_545 S
O116 Ho96 2.322 . S
O116 C98 1.259 1_455 S
O117 Ho97 2.346 1_565 S
O117 C98 1.268 . S
O118 Ho96 2.378 1_554 S
O118 C99 1.215 . S
O119 Ho96 2.524 1_554 S
O119 C99 1.289 . S
O120 Ho96 2.381 . S
O120 C106 1.275 . S
O121 Ho96 2.669 1_545 S
O121 Ho97 2.305 1_455 S
O121 C106 1.256 1_545 S
O122 Ho97 2.322 . S
O122 C107 1.259 1_655 S
O123 Ho96 2.346 1_545 S
O123 C107 1.268 . S
O124 Ho97 2.378 . S
O124 C108 1.215 . S
O125 Ho97 2.524 . S
O125 C108 1.289 . S
O126 Ho97 2.381 . S
O126 C115 1.275 . S
O127 Ho96 2.305 1_655 S
O127 Ho97 2.669 1_565 S
O127 C115 1.256 1_565 S
H128 C101 0.930 1_655 S
H129 C102 0.928 . S
H130 C104 0.934 . S
H131 C105 0.930 . S
H132 C110 0.930 1_455 S
H133 C111 0.928 1_455 S
H134 C113 0.934 . S
H135 C114 0.930 . S
Ho136 C139 2.811 1_556 S
Ho136 O156 2.322 . S
Ho136 O158 2.378 1_556 S
Ho136 O159 2.524 1_556 S
Ho136 O160 2.381 . S
Ho136 O161 2.669 . S
Ho136 O163 2.346 . S
Ho136 O167 2.305 1_545 S
Ho137 C148 2.811 . S
Ho137 O157 2.346 . S
Ho137 O161 2.305 1_565 S
Ho137 O162 2.322 . S
Ho137 O164 2.378 . S
Ho137 O165 2.524 . S
Ho137 O166 2.381 . S
Ho137 O167 2.669 . S
C138 O156 1.259 1_565 S
C138 O157 1.268 . S
C139 Ho136 2.811 1_554 S
C139 C140 1.488 . S
C139 O158 1.215 . S
C139 O159 1.289 . S
C140 C139 1.488 . S
C140 C141 1.348 . S
C140 C145 1.413 . S
C141 C140 1.348 . S
C141 C142 1.442 . S
C141 H168 0.930 1_545 S
C142 C141 1.442 . S
C142 C143 1.381 . S
C142 H169 0.931 1_545 S
C143 C142 1.381 . S
C143 C144 1.321 . S
C144 C143 1.321 . S
C144 C145 1.403 . S
C144 H170 0.934 . S
C145 C140 1.413 . S
C145 C144 1.403 . S
C145 H171 0.930 . S
C146 O160 1.275 . S
C146 O161 1.256 . S
C147 O162 1.259 1_545 S
C147 O163 1.268 . S
C148 Ho137 2.811 . S
C148 C149 1.488 . S
C148 O164 1.215 . S
C148 O165 1.289 . S
C149 C148 1.488 . S
C149 C150 1.348 . S
C149 C154 1.413 . S
C150 C149 1.348 . S
C150 C151 1.442 . S
C150 H172 0.930 1_565 S
C151 C150 1.442 . S
C151 C152 1.381 . S
C151 H173 0.931 1_565 S
C152 C151 1.381 . S
C152 C153 1.321 . S
C153 C152 1.321 . S
C153 C154 1.403 . S
C153 H174 0.934 . S
C154 C149 1.413 . S
C154 C153 1.403 . S
C154 H175 0.930 . S
C155 O166 1.275 . S
C155 O167 1.256 . S
O156 Ho136 2.322 . S
O156 C138 1.259 1_545 S
O157 Ho137 2.346 . S
O157 C138 1.268 . S
O158 Ho136 2.378 1_554 S
O158 C139 1.215 . S
O159 Ho136 2.524 1_554 S
O159 C139 1.289 . S
O160 Ho136 2.381 . S
O160 C146 1.275 . S
O161 Ho136 2.669 . S
O161 Ho137 2.305 1_545 S
O161 C146 1.256 . S
O162 Ho137 2.322 . S
O162 C147 1.259 1_565 S
O163 Ho136 2.346 . S
O163 C147 1.268 . S
O164 Ho137 2.378 . S
O164 C148 1.215 . S
O165 Ho137 2.524 . S
O165 C148 1.289 . S
O166 Ho137 2.381 . S
O166 C155 1.275 . S
O167 Ho136 2.305 1_565 S
O167 Ho137 2.669 . S
O167 C155 1.256 . S
H168 C141 0.930 1_565 S
H169 C142 0.931 1_565 S
H170 C144 0.934 . S
H171 C145 0.930 . S
H172 C150 0.930 1_545 S
H173 C151 0.931 1_545 S
H174 C153 0.934 . S
H175 C154 0.930 . S
Ho176 C179 2.811 1_556 S
Ho176 O196 2.322 . S
Ho176 O198 2.378 1_556 S
Ho176 O199 2.524 1_556 S
Ho176 O200 2.381 . S
Ho176 O201 2.669 . S
Ho176 O203 2.346 . S
Ho176 O207 2.305 . S
Ho177 C188 2.811 . S
Ho177 O197 2.346 . S
Ho177 O201 2.305 . S
Ho177 O202 2.322 . S
Ho177 O204 2.378 . S
Ho177 O205 2.524 . S
Ho177 O206 2.381 . S
Ho177 O207 2.669 . S
C178 O196 1.259 . S
C178 O197 1.268 . S
C179 Ho176 2.811 1_554 S
C179 C180 1.488 . S
C179 O198 1.215 . S
C179 O199 1.289 . S
C180 C179 1.488 . S
C180 C181 1.348 . S
C180 C185 1.413 . S
C181 C180 1.348 . S
C181 C182 1.442 . S
C181 H208 0.930 . S
C182 C181 1.442 . S
C182 C183 1.381 . S
C182 H209 0.931 . S
C183 C182 1.381 . S
C183 C184 1.321 . S
C184 C183 1.321 . S
C184 C185 1.403 . S
C184 H210 0.934 . S
C185 C180 1.413 . S
C185 C184 1.403 . S
C185 H211 0.930 . S
C186 O200 1.275 . S
C186 O201 1.256 . S
C187 O202 1.259 . S
C187 O203 1.268 . S
C188 Ho177 2.811 . S
C188 C189 1.488 . S
C188 O204 1.215 . S
C188 O205 1.289 . S
C189 C188 1.488 . S
C189 C190 1.348 . S
C189 C194 1.413 . S
C190 C189 1.348 . S
C190 C191 1.442 . S
C190 H212 0.930 . S
C191 C190 1.442 . S
C191 C192 1.381 . S
C191 H213 0.931 . S
C192 C191 1.381 . S
C192 C193 1.321 . S
C193 C192 1.321 . S
C193 C194 1.403 . S
C193 H214 0.934 . S
C194 C189 1.413 . S
C194 C193 1.403 . S
C194 H215 0.930 . S
C195 O206 1.275 . S
C195 O207 1.256 . S
O196 Ho176 2.322 . S
O196 C178 1.259 . S
O197 Ho177 2.346 . S
O197 C178 1.268 . S
O198 Ho176 2.378 1_554 S
O198 C179 1.215 . S
O199 Ho176 2.524 1_554 S
O199 C179 1.289 . S
O200 Ho176 2.381 . S
O200 C186 1.275 . S
O201 Ho176 2.669 . S
O201 Ho177 2.305 . S
O201 C186 1.256 . S
O202 Ho177 2.322 . S
O202 C187 1.259 . S
O203 Ho176 2.346 . S
O203 C187 1.268 . S
O204 Ho177 2.378 . S
O204 C188 1.215 . S
O205 Ho177 2.524 . S
O205 C188 1.289 . S
O206 Ho177 2.381 . S
O206 C195 1.275 . S
O207 Ho176 2.305 . S
O207 Ho177 2.669 . S
O207 C195 1.256 . S
H208 C181 0.930 . S
H209 C182 0.931 . S
H210 C184 0.934 . S
H211 C185 0.930 . S
H212 C190 0.930 . S
H213 C191 0.931 . S
H214 C193 0.934 . S
H215 C194 0.930 . S
Ho216 C219 2.811 1_556 S
Ho216 O236 2.322 . S
Ho216 O238 2.378 1_556 S
Ho216 O239 2.524 1_556 S
Ho216 O240 2.381 . S
Ho216 O241 2.669 1_655 S
Ho216 O243 2.346 1_655 S
Ho216 O247 2.305 . S
Ho217 C228 2.811 . S
Ho217 O237 2.346 1_455 S
Ho217 O241 2.305 . S
Ho217 O242 2.322 . S
Ho217 O244 2.378 . S
Ho217 O245 2.524 . S
Ho217 O246 2.381 . S
Ho217 O247 2.669 1_455 S
C218 O236 1.259 . S
C218 O237 1.268 . S
C219 Ho216 2.811 1_554 S
C219 C220 1.488 . S
C219 O238 1.215 . S
C219 O239 1.289 . S
C220 C219 1.488 . S
C220 C221 1.348 . S
C220 C225 1.413 . S
C221 C220 1.348 . S
C221 C222 1.442 . S
C221 H248 0.930 . S
C222 C221 1.442 . S
C222 C223 1.381 . S
C222 H249 0.931 . S
C223 C222 1.381 . S
C223 C224 1.321 . S
C224 C223 1.321 . S
C224 C225 1.403 . S
C224 H250 0.934 . S
C225 C220 1.413 . S
C225 C224 1.403 . S
C225 H251 0.930 . S
C226 O240 1.282 . S
C226 O241 1.252 1_655 S
C227 O242 1.259 . S
C227 O243 1.268 . S
C228 Ho217 2.811 . S
C228 C229 1.488 . S
C228 O244 1.215 . S
C228 O245 1.289 . S
C229 C228 1.488 . S
C229 C230 1.348 . S
C229 C234 1.413 . S
C230 C229 1.348 . S
C230 C231 1.442 . S
C230 H252 0.930 . S
C231 C230 1.442 . S
C231 C232 1.381 . S
C231 H253 0.931 . S
C232 C231 1.381 . S
C232 C233 1.321 . S
C233 C232 1.321 . S
C233 C234 1.403 . S
C233 H254 0.934 . S
C234 C229 1.413 . S
C234 C233 1.403 . S
C234 H255 0.930 . S
C235 O246 1.286 . S
C235 O247 1.250 1_455 S
O236 Ho216 2.322 . S
O236 C218 1.259 . S
O237 Ho217 2.346 1_655 S
O237 C218 1.268 . S
O238 Ho216 2.378 1_554 S
O238 C219 1.215 . S
O239 Ho216 2.524 1_554 S
O239 C219 1.289 . S
O240 Ho216 2.381 . S
O240 C226 1.282 . S
O241 Ho216 2.669 1_455 S
O241 Ho217 2.305 . S
O241 C226 1.252 1_455 S
O242 Ho217 2.322 . S
O242 C227 1.259 . S
O243 Ho216 2.346 1_455 S
O243 C227 1.268 . S
O244 Ho217 2.378 . S
O244 C228 1.215 . S
O245 Ho217 2.524 . S
O245 C228 1.289 . S
O246 Ho217 2.381 . S
O246 C235 1.286 . S
O247 Ho216 2.305 . S
O247 Ho217 2.669 1_655 S
O247 C235 1.250 1_655 S
H248 C221 0.930 . S
H249 C222 0.931 . S
H250 C224 0.934 . S
H251 C225 0.930 . S
H252 C230 0.930 . S
H253 C231 0.931 . S
H254 C233 0.934 . S
H255 C234 0.930 . S
C256 C257 1.371 1_545 S
C256 C258 1.419 . S
C256 H260 0.930 . S
C257 C256 1.371 1_565 S
C257 C266 1.427 . S
C258 C256 1.419 . S
C258 C259 1.377 . S
C258 H261 0.929 . S
C259 C258 1.377 . S
C259 C265 1.413 1_545 S
H260 C256 0.930 . S
H261 C258 0.929 . S
S262 N263 1.613 . S
S262 N264 1.610 . S
N263 S262 1.613 . S
N263 C266 1.350 . S
N264 S262 1.610 . S
N264 C265 1.351 . S
C265 C259 1.413 1_565 S
C265 N264 1.351 . S
C265 C266 1.434 . S
C266 C257 1.427 . S
C266 N263 1.350 . S
C266 C265 1.434 . S
C267 C268 1.369 . S
C267 C269 1.419 . S
C267 H271 0.930 . S
C268 C267 1.369 . S
C268 C277 1.429 . S
C269 C267 1.419 . S
C269 C270 1.363 . S
C269 H272 0.929 . S
C270 C269 1.363 . S
C270 C276 1.428 . S
H271 C267 0.930 . S
H272 C269 0.929 . S
S273 N274 1.613 . S
S273 N275 1.610 . S
N274 S273 1.613 . S
N274 C277 1.350 . S
N275 S273 1.610 . S
N275 C276 1.351 . S
C276 C270 1.428 . S
C276 N275 1.351 . S
C276 C277 1.434 . S
C277 C268 1.429 . S
C277 N274 1.350 . S
C277 C276 1.434 . S
C278 C279 1.369 . S
C278 C280 1.419 . S
C278 H282 0.930 . S
C279 C278 1.369 . S
C279 C288 1.429 . S
C280 C278 1.419 . S
C280 C281 1.363 . S
C280 H283 0.929 . S
C281 C280 1.363 . S
C281 C287 1.428 . S
H282 C278 0.930 . S
H283 C280 0.929 . S
S284 N285 1.613 . S
S284 N286 1.610 . S
N285 S284 1.613 . S
N285 C288 1.350 . S
N286 S284 1.610 . S
N286 C287 1.351 . S
C287 C281 1.428 . S
C287 N286 1.351 . S
C287 C288 1.434 . S
C288 C279 1.429 . S
C288 N285 1.350 . S
C288 C287 1.434 . S
C289 C290 1.371 . S
C289 C291 1.419 . S
C289 H293 0.930 . S
C290 C289 1.371 . S
C290 C299 1.429 . S
C291 C289 1.419 . S
C291 C292 1.363 . S
C291 H294 0.929 . S
C292 C291 1.363 . S
C292 C298 1.428 . S
H293 C289 0.930 . S
H294 C291 0.929 . S
S295 N296 1.613 . S
S295 N297 1.610 . S
N296 S295 1.613 . S
N296 C299 1.351 . S
N297 S295 1.610 . S
N297 C298 1.351 . S
C298 C292 1.428 . S
C298 N297 1.351 . S
C298 C299 1.435 . S
C299 C290 1.429 . S
C299 N296 1.351 . S
C299 C298 1.435 . S
C300 C301 1.367 1_565 S
C300 C302 1.419 . S
C300 H304 0.930 . S
C301 C300 1.367 1_545 S
C301 C310 1.431 . S
C302 C300 1.419 . S
C302 C303 1.376 . S
C302 H305 0.929 . S
C303 C302 1.376 . S
C303 C309 1.415 1_565 S
H304 C300 0.930 . S
H305 C302 0.929 . S
S306 N307 1.613 . S
S306 N308 1.610 . S
N307 S306 1.613 . S
N307 C310 1.350 . S
N308 S306 1.610 . S
N308 C309 1.351 . S
C309 C303 1.415 1_545 S
C309 N308 1.351 . S
C309 C310 1.434 . S
C310 C301 1.431 . S
C310 N307 1.350 . S
C310 C309 1.434 . S
C311 C312 1.369 . S
C311 C313 1.419 . S
C311 H315 0.930 . S
C312 C311 1.369 . S
C312 C321 1.429 . S
C313 C311 1.419 . S
C313 C314 1.363 . S
C313 H316 0.929 . S
C314 C313 1.363 . S
C314 C320 1.428 . S
H315 C311 0.930 . S
H316 C313 0.929 . S
S317 N318 1.613 . S
S317 N319 1.610 . S
N318 S317 1.613 . S
N318 C321 1.350 . S
N319 S317 1.610 . S
N319 C320 1.351 . S
C320 C314 1.428 . S
C320 N319 1.351 . S
C320 C321 1.434 . S
C321 C312 1.429 . S
C321 N318 1.350 . S
C321 C320 1.434 . S
C322 C323 1.369 . S
C322 C324 1.419 . S
C322 H326 0.930 . S
C323 C322 1.369 . S
C323 C332 1.429 . S
C324 C322 1.419 . S
C324 C325 1.363 . S
C324 H327 0.929 . S
C325 C324 1.363 . S
C325 C331 1.428 . S
H326 C322 0.930 . S
H327 C324 0.929 . S
S328 N329 1.613 . S
S328 N330 1.610 . S
N329 S328 1.613 . S
N329 C332 1.350 . S
N330 S328 1.610 . S
N330 C331 1.351 . S
C331 C325 1.428 . S
C331 N330 1.351 . S
C331 C332 1.434 . S
C332 C323 1.429 . S
C332 N329 1.350 . S
C332 C331 1.434 . S
C333 C334 1.373 . S
C333 C335 1.419 . S
C333 H337 0.930 . S
C334 C333 1.373 . S
C334 C343 1.425 1_655 S
C335 C333 1.419 . S
C335 C336 1.363 . S
C335 H338 0.929 . S
C336 C335 1.363 . S
C336 C342 1.428 1_655 S
H337 C333 0.930 . S
H338 C335 0.929 . S
S339 N340 1.613 . S
S339 N341 1.610 . S
N340 S339 1.613 . S
N340 C343 1.350 . S
N341 S339 1.610 . S
N341 C342 1.351 . S
C342 C336 1.428 1_455 S
C342 N341 1.351 . S
C342 C343 1.434 . S
C343 C334 1.425 1_455 S
C343 N340 1.350 . S
C343 C342 1.434 . S
C344 C345 1.369 . S
C344 C346 1.419 . S
C344 H348 0.930 . S
C345 C344 1.369 . S
C345 C354 1.429 1_655 S
C346 C344 1.419 . S
C346 C347 1.363 . S
C346 H349 0.929 . S
C347 C346 1.363 . S
C347 C353 1.428 . S
H348 C344 0.930 . S
H349 C346 0.929 . S
S350 N351 1.613 . S
S350 N352 1.610 1_455 S
N351 S350 1.613 . S
N351 C354 1.350 . S
N352 S350 1.610 1_655 S
N352 C353 1.351 . S
C353 C347 1.428 . S
C353 N352 1.351 . S
C353 C354 1.434 1_655 S
C354 C345 1.429 1_455 S
C354 N351 1.350 . S
C354 C353 1.434 1_455 S
C355 C356 1.369 . S
C355 C357 1.419 . S
C355 H359 0.930 . S
C356 C355 1.369 . S
C356 C365 1.429 1_565 S
C357 C355 1.419 . S
C357 C358 1.363 . S
C357 H360 0.929 . S
C358 C357 1.363 . S
C358 C364 1.428 . S
H359 C355 0.930 . S
H360 C357 0.929 . S
S361 N362 1.613 . S
S361 N363 1.610 1_545 S
N362 S361 1.613 . S
N362 C365 1.350 . S
N363 S361 1.610 1_565 S
N363 C364 1.351 . S
C364 C358 1.428 . S
C364 N363 1.351 . S
C364 C365 1.434 1_565 S
C365 C356 1.429 1_545 S
C365 N362 1.350 . S
C365 C364 1.434 1_545 S
C366 C367 1.369 . S
C366 C368 1.419 . S
C366 H370 0.930 . S
C367 C366 1.369 . S
C367 C376 1.429 . S
C368 C366 1.419 . S
C368 C369 1.363 . S
C368 H371 0.929 . S
C369 C368 1.363 . S
C369 C375 1.428 . S
H370 C366 0.930 . S
H371 C368 0.929 . S
S372 N373 1.613 . S
S372 N374 1.610 . S
N373 S372 1.613 . S
N373 C376 1.350 . S
N374 S372 1.610 . S
N374 C375 1.351 . S
C375 C369 1.428 . S
C375 N374 1.351 . S
C375 C376 1.434 . S
C376 C367 1.429 . S
C376 N373 1.350 . S
C376 C375 1.434 . S
C377 C378 1.369 . S
C377 C379 1.419 . S
C377 H381 0.930 . S
C378 C377 1.369 . S
C378 C387 1.429 . S
C379 C377 1.419 . S
C379 C380 1.363 . S
C379 H382 0.929 . S
C380 C379 1.363 . S
C380 C386 1.428 . S
H381 C377 0.930 . S
H382 C379 0.929 . S
S383 N384 1.613 . S
S383 N385 1.610 . S
N384 S383 1.613 . S
N384 C387 1.350 . S
N385 S383 1.610 . S
N385 C386 1.351 . S
C386 C380 1.428 . S
C386 N385 1.351 . S
C386 C387 1.434 . S
C387 C378 1.429 . S
C387 N384 1.350 . S
C387 C386 1.434 . S
C388 C389 1.369 1_655 S
C388 C390 1.419 1_655 S
C388 H392 0.930 . S
C389 C388 1.369 1_455 S
C389 C398 1.429 . S
C390 C388 1.419 1_455 S
C390 C391 1.363 . S
C390 H393 0.929 . S
C391 C390 1.363 . S
C391 C397 1.428 . S
H392 C388 0.930 . S
H393 C390 0.929 . S
S394 N395 1.613 . S
S394 N396 1.610 . S
N395 S394 1.613 . S
N395 C398 1.350 . S
N396 S394 1.610 . S
N396 C397 1.351 . S
C397 C391 1.428 . S
C397 N396 1.351 . S
C397 C398 1.434 . S
C398 C389 1.429 . S
C398 N395 1.350 . S
C398 C397 1.434 . S
C399 C400 1.369 . S
C399 C401 1.419 . S
C399 H403 0.930 . S
C400 C399 1.369 . S
C400 C409 1.429 1_545 S
C401 C399 1.419 . S
C401 C402 1.363 . S
C401 H404 0.929 . S
C402 C401 1.363 . S
C402 C408 1.428 . S
H403 C399 0.930 . S
H404 C401 0.929 . S
S405 N406 1.613 . S
S405 N407 1.610 1_565 S
N406 S405 1.613 . S
N406 C409 1.350 . S
N407 S405 1.610 1_545 S
N407 C408 1.351 . S
C408 C402 1.428 . S
C408 N407 1.351 . S
C408 C409 1.434 1_545 S
C409 C400 1.429 1_565 S
C409 N406 1.350 . S
C409 C408 1.434 1_565 S
C410 C411 1.369 . S
C410 C412 1.419 . S
C410 H414 0.930 . S
C411 C410 1.369 . S
C411 C420 1.429 . S
C412 C410 1.419 . S
C412 C413 1.363 . S
C412 H415 0.929 . S
C413 C412 1.363 . S
C413 C419 1.428 . S
H414 C410 0.930 . S
H415 C412 0.929 . S
S416 N417 1.613 . S
S416 N418 1.610 . S
N417 S416 1.613 . S
N417 C420 1.350 . S
N418 S416 1.610 . S
N418 C419 1.351 . S
C419 C413 1.428 . S
C419 N418 1.351 . S
C419 C420 1.434 . S
C420 C411 1.429 . S
C420 N417 1.350 . S
C420 C419 1.434 . S
C421 C422 1.369 . S
C421 C423 1.419 . S
C421 H425 0.930 . S
C422 C421 1.369 . S
C422 C431 1.429 . S
C423 C421 1.419 . S
C423 C424 1.363 . S
C423 H426 0.929 . S
C424 C423 1.363 . S
C424 C430 1.428 . S
H425 C421 0.930 . S
H426 C423 0.929 . S
S427 N428 1.613 . S
S427 N429 1.610 . S
N428 S427 1.613 . S
N428 C431 1.350 . S
N429 S427 1.610 . S
N429 C430 1.351 . S
C430 C424 1.428 . S
C430 N429 1.351 . S
C430 C431 1.434 . S
C431 C422 1.429 . S
C431 N428 1.350 . S
C431 C430 1.434 . S
C432 C433 1.369 1_655 S
C432 C434 1.419 . S
C432 H436 0.930 1_556 S
C433 C432 1.369 1_455 S
C433 C442 1.429 . S
C434 C432 1.419 . S
C434 C435 1.363 1_655 S
C434 H437 0.929 1_556 S
C435 C434 1.363 1_455 S
C435 C441 1.428 . S
H436 C432 0.930 1_554 S
H437 C434 0.929 1_554 S
S438 N439 1.613 . S
S438 N440 1.610 . S
N439 S438 1.613 . S
N439 C442 1.350 . S
N440 S438 1.610 . S
N440 C441 1.351 . S
C441 C435 1.428 . S
C441 N440 1.351 . S
C441 C442 1.434 . S
C442 C433 1.429 . S
C442 N439 1.350 . S
C442 C441 1.434 . S
C443 C444 1.369 1_565 S
C443 C445 1.419 . S
C443 H447 0.930 . S
C444 C443 1.369 1_545 S
C444 C453 1.429 . S
C445 C443 1.419 . S
C445 C446 1.363 1_565 S
C445 H448 0.929 . S
C446 C445 1.363 1_545 S
C446 C452 1.428 . S
H447 C443 0.930 . S
H448 C445 0.929 . S
S449 N450 1.613 . S
S449 N451 1.610 . S
N450 S449 1.613 . S
N450 C453 1.350 . S
N451 S449 1.610 . S
N451 C452 1.351 . S
C452 C446 1.428 . S
C452 N451 1.351 . S
C452 C453 1.434 . S
C453 C444 1.429 . S
C453 N450 1.350 . S
C453 C452 1.434 . S
C454 C455 1.369 . S
C454 C456 1.419 . S
C454 H458 0.930 . S
C455 C454 1.369 . S
C455 C464 1.429 . S
C456 C454 1.419 . S
C456 C457 1.363 . S
C456 H459 0.929 . S
C457 C456 1.363 . S
C457 C463 1.428 . S
H458 C454 0.930 . S
H459 C456 0.929 . S
S460 N461 1.613 . S
S460 N462 1.610 . S
N461 S460 1.613 . S
N461 C464 1.350 1_554 S
N462 S460 1.610 . S
N462 C463 1.351 1_554 S
C463 C457 1.428 . S
C463 N462 1.351 1_556 S
C463 C464 1.434 . S
C464 C455 1.429 . S
C464 N461 1.350 1_556 S
C464 C463 1.434 . S
C465 C466 1.369 . S
C465 C467 1.419 . S
C465 H469 0.930 . S
C466 C465 1.369 . S
C466 C475 1.429 . S
C467 C465 1.419 . S
C467 C468 1.363 . S
C467 H470 0.929 . S
C468 C467 1.363 . S
C468 C474 1.428 . S
H469 C465 0.930 . S
H470 C467 0.929 . S
S471 N472 1.613 . S
S471 N473 1.610 . S
N472 S471 1.613 . S
N472 C475 1.350 . S
N473 S471 1.610 . S
N473 C474 1.351 . S
C474 C468 1.428 . S
C474 N473 1.351 . S
C474 C475 1.434 . S
C475 C466 1.429 . S
C475 N472 1.350 . S
C475 C474 1.434 . S
C476 C477 1.369 . S
C476 C478 1.419 . S
C476 H480 0.930 . S
C477 C476 1.369 . S
C477 C486 1.429 1_655 S
C478 C476 1.419 . S
C478 C479 1.363 . S
C478 H481 0.929 . S
C479 C478 1.363 . S
C479 C485 1.428 1_655 S
H480 C476 0.930 . S
H481 C478 0.929 . S
S482 N483 1.613 . S
S482 N484 1.610 . S
N483 S482 1.613 . S
N483 C486 1.350 . S
N484 S482 1.610 . S
N484 C485 1.351 . S
C485 C479 1.428 1_455 S
C485 N484 1.351 . S
C485 C486 1.434 . S
C486 C477 1.429 1_455 S
C486 N483 1.350 . S
C486 C485 1.434 . S
C487 C488 1.369 . S
C487 C489 1.419 . S
C487 H491 0.930 1_565 S
C488 C487 1.369 . S
C488 C497 1.429 . S
C489 C487 1.419 . S
C489 C490 1.363 . S
C489 H492 0.934 . S
C490 C489 1.363 . S
C490 C496 1.428 . S
H491 C487 0.930 1_545 S
H492 C489 0.934 . S
S493 N494 1.613 . S
S493 N495 1.610 1_554 S
N494 S493 1.613 . S
N494 C497 1.350 1_554 S
N495 S493 1.610 1_556 S
N495 C496 1.351 . S
C496 C490 1.428 . S
C496 N495 1.351 . S
C496 C497 1.434 . S
C497 C488 1.429 . S
C497 N494 1.350 1_556 S
C497 C496 1.434 . S
C498 C499 1.369 . S
C498 C500 1.419 . S
C498 H502 0.930 . S
C499 C498 1.369 . S
C499 C508 1.429 . S
C500 C498 1.419 . S
C500 C501 1.363 . S
C500 H503 0.929 . S
C501 C500 1.363 . S
C501 C507 1.428 . S
H502 C498 0.930 . S
H503 C500 0.929 . S
S504 N505 1.613 1_554 S
S504 N506 1.610 1_554 S
N505 S504 1.613 1_556 S
N505 C508 1.350 . S
N506 S504 1.610 1_556 S
N506 C507 1.351 . S
C507 C501 1.428 . S
C507 N506 1.351 . S
C507 C508 1.434 . S
C508 C499 1.429 . S
C508 N505 1.350 . S
C508 C507 1.434 . S
C509 C510 1.369 . S
C509 C511 1.419 . S
C509 H513 0.930 . S
C510 C509 1.369 . S
C510 C519 1.429 . S
C511 C509 1.419 . S
C511 C512 1.363 . S
C511 H514 0.929 . S
C512 C511 1.363 . S
C512 C518 1.428 . S
H513 C509 0.930 . S
H514 C511 0.929 . S
S515 N516 1.613 . S
S515 N517 1.610 . S
N516 S515 1.613 . S
N516 C519 1.350 . S
N517 S515 1.610 . S
N517 C518 1.351 . S
C518 C512 1.428 . S
C518 N517 1.351 . S
C518 C519 1.434 . S
C519 C510 1.429 . S
C519 N516 1.350 . S
C519 C518 1.434 . S
C257 C76 1.919 . S
C259 C106 2.194 1_545 S
C270 C146 2.212 . S
C268 C88 1.934 . S
C281 C186 2.220 . S
C279 C52 1.946 . S
C292 C226 2.205 1_455 S
C290 C64 1.938 1_455 S
C303 C115 2.196 1_564 S
C301 C28 1.921 1_545 S
C312 C40 1.934 . S
C314 C155 2.213 1_554 S
C323 C4 1.950 . S
C325 C195 2.218 1_554 S
C334 C16 1.938 . S
C336 C235 2.204 1_654 S
C347 C112 0.805 . S
C345 C69 0.823 1_655 S
C358 C152 0.809 . S
C356 C81 0.817 1_565 S
C369 C192 0.815 . S
C367 C93 0.804 . S
C378 C57 0.823 . S
C380 C232 0.798 . S
C389 C21 0.807 . S
C391 C103 0.826 . S
C402 C143 0.806 . S
C400 C33 0.829 . S
C413 C183 0.796 . S
C411 C45 0.820 . S
C422 C9 0.821 . S
C424 C223 0.798 . S
C433 C66 2.259 . S
C435 C107 2.578 . S
C444 C78 2.223 . S
C446 C147 2.549 . S
C457 C187 2.536 . S
C455 C90 2.202 . S
C468 C227 2.571 . S
C466 C54 2.242 . S
C477 C18 2.270 1_655 S
C479 C98 2.585 . S
C490 C138 2.549 . S
C488 C30 2.236 1_565 S
C501 C178 2.536 . S
C499 C42 2.230 . S
C510 C6 2.252 . S
C512 C218 2.575 . S
