# Generated by pormake.
# Topology nom, (4,4)-cn, num edge types: 1
# Building blocks:
#     Node 0, Type 0, BuildingBlock: NAWXER_clean_linker_0, # of connection points: 4
#     Node 1, Type 0, BuildingBlock: NAWXER_clean_linker_0, # of connection points: 4
#     Node 2, Type 0, BuildingBlock: NAWXER_clean_linker_0, # of connection points: 4
#     Node 3, Type 0, BuildingBlock: NAWXER_clean_linker_0, # of connection points: 4
#     Node 4, Type 0, BuildingBlock: NAWXER_clean_linker_0, # of connection points: 4
#     Node 5, Type 0, BuildingBlock: NAWXER_clean_linker_0, # of connection points: 4
#     Node 6, Type 1, BuildingBlock: NAHDIM_clean_sbu_0, # of connection points: 4
#     Node 7, Type 1, BuildingBlock: NAHDIM_clean_sbu_0, # of connection points: 4
#     Node 8, Type 1, BuildingBlock: NAHDIM_clean_sbu_0, # of connection points: 4
#     Node 9, Type 1, BuildingBlock: NAHDIM_clean_sbu_0, # of connection points: 4
#     Node 10, Type 1, BuildingBlock: NAHDIM_clean_sbu_0, # of connection points: 4
#     Node 11, Type 1, BuildingBlock: NAHDIM_clean_sbu_0, # of connection points: 4
#     Edge 12, Type (0, 1), BuildingBlock: ZUJKAS_clean_linker_0, # of connection points: 2
#     Edge 13, Type (0, 1), BuildingBlock: ZUJKAS_clean_linker_0, # of connection points: 2
#     Edge 14, Type (0, 1), BuildingBlock: ZUJKAS_clean_linker_0, # of connection points: 2
#     Edge 15, Type (0, 1), BuildingBlock: ZUJKAS_clean_linker_0, # of connection points: 2
#     Edge 16, Type (0, 1), BuildingBlock: ZUJKAS_clean_linker_0, # of connection points: 2
#     Edge 17, Type (0, 1), BuildingBlock: ZUJKAS_clean_linker_0, # of connection points: 2
#     Edge 18, Type (0, 1), BuildingBlock: ZUJKAS_clean_linker_0, # of connection points: 2
#     Edge 19, Type (0, 1), BuildingBlock: ZUJKAS_clean_linker_0, # of connection points: 2
#     Edge 20, Type (0, 1), BuildingBlock: ZUJKAS_clean_linker_0, # of connection points: 2
#     Edge 21, Type (0, 1), BuildingBlock: ZUJKAS_clean_linker_0, # of connection points: 2
#     Edge 22, Type (0, 1), BuildingBlock: ZUJKAS_clean_linker_0, # of connection points: 2
#     Edge 23, Type (0, 1), BuildingBlock: ZUJKAS_clean_linker_0, # of connection points: 2
#     Edge 24, Type (0, 1), BuildingBlock: ZUJKAS_clean_linker_0, # of connection points: 2
#     Edge 25, Type (0, 1), BuildingBlock: ZUJKAS_clean_linker_0, # of connection points: 2
#     Edge 26, Type (0, 1), BuildingBlock: ZUJKAS_clean_linker_0, # of connection points: 2
#     Edge 27, Type (0, 1), BuildingBlock: ZUJKAS_clean_linker_0, # of connection points: 2
#     Edge 28, Type (0, 1), BuildingBlock: ZUJKAS_clean_linker_0, # of connection points: 2
#     Edge 29, Type (0, 1), BuildingBlock: ZUJKAS_clean_linker_0, # of connection points: 2
#     Edge 30, Type (0, 1), BuildingBlock: ZUJKAS_clean_linker_0, # of connection points: 2
#     Edge 31, Type (0, 1), BuildingBlock: ZUJKAS_clean_linker_0, # of connection points: 2
#     Edge 32, Type (0, 1), BuildingBlock: ZUJKAS_clean_linker_0, # of connection points: 2
#     Edge 33, Type (0, 1), BuildingBlock: ZUJKAS_clean_linker_0, # of connection points: 2
#     Edge 34, Type (0, 1), BuildingBlock: ZUJKAS_clean_linker_0, # of connection points: 2
#     Edge 35, Type (0, 1), BuildingBlock: ZUJKAS_clean_linker_0, # of connection points: 2
# Relax obj value: 0.024
# Max RMSD: 0.118
# Mean RMSD: 0.109
data_MOF--net-nom--node1-NAHDIM_clean_sbu_0--node2-NAWXER_clean_linker_0--edge1-ZUJKAS_clean_linker_0
_symmetry_space_group_name_H-M    P1
_symmetry_Int_Tables_number       1
_symmetry_cell_setting            triclinic
loop_
_symmetry_equiv_pos_as_xyz
'x, y, z'
_cell_length_a     64.389833
_cell_length_b     66.293309
_cell_length_c     72.223553
_cell_angle_alpha  89.915436
_cell_angle_beta   90.593897
_cell_angle_gamma 120.95966
loop_
_atom_site_label
_atom_site_type_symbol
_atom_site_fract_x
_atom_site_fract_y
_atom_site_fract_z
_atom_type_partial_charge
C0 C 0.91712 0.49498 0.32558 0.0
C1 C 0.90604 0.47806 0.33955 0.0
C2 C 0.94023 0.5016 0.31949 0.0
C3 C 0.95269 0.49123 0.32707 0.0
C4 C 0.91848 0.46762 0.34712 0.0
C5 C 0.94172 0.47431 0.34102 0.0
C6 C 0.97788 0.49957 0.3215 0.0
C7 C 0.93319 0.46287 0.27082 0.0
C8 C 0.93705 0.47768 0.25564 0.0
C9 C 0.94851 0.47124 0.28634 0.0
C10 C 0.96795 0.4946 0.28701 0.0
C11 C 0.95641 0.50114 0.25648 0.0
C12 C 0.9718 0.50944 0.27193 0.0
C13 C 0.98518 0.5033 0.30284 0.0
C14 C 0.09381 0.54565 0.30739 0.0
C15 C 0.10024 0.56365 0.29436 0.0
C16 C 0.06985 0.53208 0.31338 0.0
C17 C 0.05212 0.5367 0.30673 0.0
C18 C 0.08235 0.56788 0.28751 0.0
C19 C 0.05857 0.55454 0.2936 0.0
C20 C 0.02657 0.5228 0.31259 0.0
C21 C 0.07014 0.55603 0.3649 0.0
C22 C 0.06766 0.53942 0.37819 0.0
C23 C 0.05453 0.54913 0.34954 0.0
C24 C 0.03634 0.52545 0.3471 0.0
C25 C 0.04924 0.51578 0.37578 0.0
C26 C 0.03366 0.50891 0.36043 0.0
C27 C 0.01922 0.51785 0.33125 0.0
H28 H 0.90794 0.50321 0.31938 0.0
H29 H 0.94857 0.51524 0.30913 0.0
H30 H 0.9105 0.45472 0.35805 0.0
H31 H 0.95117 0.46637 0.34726 0.0
H32 H 0.91874 0.44461 0.27053 0.0
H33 H 0.94553 0.45928 0.29762 0.0
H34 H 0.95969 0.51316 0.24519 0.0
H35 H 0.98671 0.52751 0.27214 0.0
H36 H 0.10722 0.54187 0.31273 0.0
H37 H 0.0652 0.51793 0.32306 0.0
H38 H 0.08682 0.58181 0.27763 0.0
H39 H 0.04521 0.55836 0.28819 0.0
H40 H 0.0842 0.57436 0.36632 0.0
H41 H 0.05656 0.56231 0.33965 0.0
H42 H 0.04655 0.50263 0.38593 0.0
H43 H 0.01951 0.49061 0.35895 0.0
N44 N 0.99514 0.50656 0.33498 0.0
N45 N 0.00922 0.51511 0.29915 0.0
C46 C 0.44872 0.92962 0.49827 0.0
C47 C 0.45553 0.92039 0.51307 0.0
C48 C 0.46396 0.95274 0.49254 0.0
C49 C 0.48659 0.96701 0.50121 0.0
C50 C 0.47806 0.9347 0.52187 0.0
C51 C 0.49344 0.95785 0.51602 0.0
C52 C 0.50191 0.99207 0.49605 0.0
C53 C 0.4986 0.95074 0.44601 0.0
C54 C 0.4866 0.95331 0.43063 0.0
C55 C 0.50508 0.96589 0.46123 0.0
C56 C 0.49948 0.98377 0.46142 0.0
C57 C 0.48156 0.97159 0.4307 0.0
C58 C 0.48803 0.98671 0.4459 0.0
C59 C 0.50596 -0.00015 0.47749 0.0
C60 C 0.56263 0.10599 0.48443 0.0
C61 C 0.54886 0.11091 0.47198 0.0
C62 C 0.55469 0.0828 0.48961 0.0
C63 C 0.53271 0.0642 0.48257 0.0
C64 C 0.5271 0.09215 0.46477 0.0
C65 C 0.51921 0.06907 0.46993 0.0
C66 C 0.52347 0.03951 0.48792 0.0
C67 C 0.5244 0.07733 0.54022 0.0
C68 C 0.53919 0.07657 0.55435 0.0
C69 C 0.51853 0.06301 0.52454 0.0
C70 C 0.52757 0.04785 0.52259 0.0
C71 C 0.54801 0.0612 0.5524 0.0
C72 C 0.54214 0.0469 0.53672 0.0
C73 C 0.52078 0.03187 0.50648 0.0
H74 H 0.43123 0.91921 0.49151 0.0
H75 H 0.4577 0.95964 0.48165 0.0
H76 H 0.48377 0.92802 0.53331 0.0
H77 H 0.51062 0.96865 0.52311 0.0
H78 H 0.50269 0.93681 0.4464 0.0
H79 H 0.51447 0.96363 0.47283 0.0
H80 H 0.47274 0.97431 0.41892 0.0
H81 H 0.48378 0.00055 0.44563 0.0
H82 H 0.57965 0.12003 0.49002 0.0
H83 H 0.56571 0.0794 0.49905 0.0
H84 H 0.51586 0.09532 0.45538 0.0
H85 H 0.50222 0.05498 0.4643 0.0
H86 H 0.5174 0.08905 0.54127 0.0
H87 H 0.50671 0.06358 0.51404 0.0
H88 H 0.55907 0.05988 0.56317 0.0
H89 H 0.54898 0.03505 0.53561 0.0
N90 N 0.50996 0.00842 0.50982 0.0
N91 N 0.51615 0.02321 0.47417 0.0
C92 C 0.56043 0.50282 0.59816 0.0
C93 C 0.54409 0.49027 0.58363 0.0
C94 C 0.55266 0.50922 0.61389 0.0
C95 C 0.52833 0.50297 0.61549 0.0
C96 C 0.5198 0.48419 0.58525 0.0
C97 C 0.51205 0.49058 0.60096 0.0
C98 C 0.5199 0.51025 0.63176 0.0
C99 C 0.53779 0.45806 0.65428 0.0
C100 C 0.55507 0.46593 0.66869 0.0
C101 C 0.52884 0.47206 0.64799 0.0
C102 C 0.5374 0.49452 0.65563 0.0
C103 C 0.5636 0.48833 0.67641 0.0
C104 C 0.55482 0.50249 0.66994 0.0
C105 C 0.52621 0.50842 0.65024 0.0
C106 C 0.46614 0.53436 0.69582 0.0
C107 C 0.4837 0.55114 0.70801 0.0
C108 C 0.47307 0.52651 0.68046 0.0
C109 C 0.49768 0.53549 0.67688 0.0
C110 C 0.50832 0.55981 0.70452 0.0
C111 C 0.51522 0.55194 0.68916 0.0
C112 C 0.50531 0.52722 0.66079 0.0
C113 C 0.46784 0.56413 0.63874 0.0
C114 C 0.44665 0.54876 0.62867 0.0
C115 C 0.48477 0.55756 0.64312 0.0
C116 C 0.48069 0.53551 0.63755 0.0
C117 C 0.44301 0.527 0.62273 0.0
C118 C 0.45993 0.52051 0.62704 0.0
C119 C 0.49771 0.52762 0.64246 0.0
H120 H 0.57934 0.50811 0.5972 0.0
H121 H 0.56574 0.51937 0.62467 0.0
H122 H 0.50668 0.47427 0.57442 0.0
H123 H 0.49322 0.48565 0.60184 0.0
H124 H 0.53046 0.44065 0.64837 0.0
H125 H 0.51458 0.46491 0.63758 0.0
H126 H 0.57692 0.49482 0.68753 0.0
H127 H 0.56141 0.51956 0.67627 0.0
H128 H 0.44703 0.52742 0.69807 0.0
H129 H 0.45918 0.51335 0.67142 0.0
H130 H 0.52226 0.57243 0.71382 0.0
H131 H 0.5343 0.55882 0.68678 0.0
H132 H 0.47111 0.58102 0.64349 0.0
H133 H 0.50093 0.56962 0.65094 0.0
H134 H 0.4271 0.51498 0.61466 0.0
H135 H 0.45655 0.50351 0.62245 0.0
N136 N 0.50549 0.51933 0.62866 0.0
N137 N 0.51911 0.51748 0.66399 0.0
C138 C 0.91261 0.41961 0.80164 0.0
C139 C 0.90268 0.42733 0.78792 0.0
C140 C 0.93585 0.43474 0.80868 0.0
C141 C 0.94959 0.45794 0.80223 0.0
C142 C 0.91647 0.45055 0.78143 0.0
C143 C 0.93982 0.46566 0.78842 0.0
C144 C 0.97468 0.47358 0.809 0.0
C145 C 0.92797 0.46459 0.85773 0.0
C146 C 0.93152 0.45401 0.87338 0.0
C147 C 0.94378 0.47143 0.8428 0.0
C148 C 0.96329 0.46756 0.8431 0.0
C149 C 0.95105 0.45015 0.87362 0.0
C150 C 0.96681 0.45695 0.85867 0.0
C151 C 0.98117 0.47618 0.82796 0.0
C152 C 0.08927 0.54386 0.82805 0.0
C153 C 0.09633 0.53171 0.84009 0.0
C154 C 0.06537 0.53321 0.82154 0.0
C155 C 0.04825 0.5101 0.82674 0.0
C156 C 0.07897 0.50878 0.84557 0.0
C157 C 0.05517 0.49815 0.83902 0.0
C158 C 0.02293 0.4982 0.81994 0.0
C159 C 0.07001 0.51275 0.77015 0.0
C160 C 0.06795 0.52742 0.75711 0.0
C161 C 0.05319 0.5025 0.78438 0.0
C162 C 0.03426 0.50706 0.786 0.0
C163 C 0.04865 0.53149 0.75854 0.0
C164 C 0.03192 0.52132 0.7728 0.0
C165 C 0.0164 0.49661 0.80102 0.0
H166 H 0.90236 0.40188 0.80699 0.0
H167 H 0.94323 0.42816 0.81897 0.0
H168 H 0.90937 0.45688 0.77071 0.0
H169 H 0.95025 0.48339 0.78307 0.0
H170 H 0.91303 0.46769 0.85705 0.0
H171 H 0.94104 0.48022 0.83121 0.0
H172 H 0.95454 0.44242 0.88558 0.0
H173 H 0.98191 0.45406 0.85934 0.0
H174 H 0.10215 0.56168 0.82382 0.0
H175 H 0.06027 0.54303 0.81249 0.0
H176 H 0.08389 0.49885 0.85465 0.0
H177 H 0.04222 0.48036 0.8433 0.0
H178 H 0.08441 0.50892 0.76921 0.0
H179 H 0.05494 0.49095 0.79407 0.0
H180 H 0.04668 0.54286 0.74881 0.0
H181 H 0.01733 0.5249 0.77371 0.0
N182 N 0.99251 0.48426 0.79628 0.0
N183 N 0.00505 0.48804 0.83265 0.0
C184 C 0.47133 0.92365 0.9862 0.0
C185 C 0.45482 0.91283 0.97145 0.0
C186 C 0.47673 0.94558 0.99285 0.0
C187 C 0.46551 0.95706 0.98508 0.0
C188 C 0.44337 0.92419 0.96378 0.0
C189 C 0.44884 0.94622 0.97045 0.0
C190 C 0.47321 0.98134 0.99087 0.0
C191 C 0.43636 0.93699 0.04065 0.0
C192 C 0.4509 0.94244 0.05666 0.0
C193 C 0.44473 0.95176 0.02523 0.0
C194 C 0.46798 0.97204 0.02543 0.0
C195 C 0.4741 0.96274 0.05684 0.0
C196 C 0.48251 0.9774 0.04141 0.0
C197 C 0.47679 0.98858 0.00961 0.0
C198 C 0.52473 0.09481 0.00457 0.0
C199 C 0.5447 0.10073 0.01626 0.0
C200 C 0.5087 0.07134 -0.00049 0.0
C201 C 0.5126 0.05352 0.00593 0.0
C202 C 0.54783 0.08268 0.02327 0.0
C203 C 0.53193 0.05936 0.01819 0.0
C204 C 0.49712 0.0287 6e-05 0.0
C205 C 0.53162 0.07066 0.94842 0.0
C206 C 0.51453 0.06889 0.93521 0.0
C207 C 0.52442 0.05522 0.9634 0.0
C208 C 0.49992 0.03796 0.96565 0.0
C209 C 0.49008 0.05125 0.93734 0.0
C210 C 0.48289 0.03589 0.95236 0.0
C211 C 0.49195 0.02141 0.98136 0.0
H212 H 0.4803 0.91526 0.99249 0.0
H213 H 0.49025 0.95385 0.00375 0.0
H214 H 0.43076 0.91638 0.95228 0.0
H215 H 0.44029 0.95495 0.96403 0.0
H216 H 0.41826 0.92164 0.04022 0.0
H217 H 0.4328 0.94758 0.01334 0.0
H218 H 0.48582 0.96726 0.06891 0.0
H219 H 0.50046 0.99296 0.04197 0.0
H220 H 0.52182 0.10834 -0.00103 0.0
H221 H 0.49353 0.06717 0.99041 0.0
H222 H 0.56268 0.08658 0.03266 0.0
H223 H 0.53513 0.04588 0.02351 0.0
H224 H 0.55057 0.0841 0.94726 0.0
H225 H 0.53799 0.05676 0.97323 0.0
H226 H 0.47652 0.04909 0.92724 0.0
H227 H 0.46396 0.02243 0.95369 0.0
N228 N 0.48037 -0.002 0.97748 0.0
N229 N 0.48905 0.01199 0.01341 0.0
C230 C 0.46956 0.56584 0.15578 0.0
C231 C 0.45166 0.55814 0.16939 0.0
C232 C 0.478 0.55135 0.14986 0.0
C233 C 0.46837 0.52863 0.15715 0.0
C234 C 0.44217 0.53549 0.17683 0.0
C235 C 0.45051 0.52088 0.17078 0.0
C236 C 0.47856 0.51394 0.15183 0.0
C237 C 0.44464 0.52145 0.09944 0.0
C238 C 0.46123 0.53405 0.08532 0.0
C239 C 0.45196 0.51429 0.11518 0.0
C240 C 0.47603 0.51972 0.11714 0.0
C241 C 0.48531 0.53947 0.08739 0.0
C242 C 0.49257 0.53223 0.10306 0.0
C243 C 0.48395 0.51155 0.13332 0.0
C244 C 0.53083 0.4527 0.14075 0.0
C245 C 0.55147 0.4665 0.12995 0.0
C246 C 0.51518 0.46074 0.14504 0.0
C247 C 0.52008 0.48282 0.13878 0.0
C248 C 0.55575 0.48818 0.12315 0.0
C249 C 0.54018 0.4962 0.12748 0.0
C250 C 0.50466 0.49242 0.14386 0.0
C251 C 0.53853 0.48505 0.19587 0.0
C252 C 0.52143 0.46832 0.20806 0.0
C253 C 0.53113 0.49374 0.18121 0.0
C254 C 0.50647 0.48562 0.17829 0.0
C255 C 0.49681 0.46087 0.20548 0.0
C256 C 0.48943 0.46954 0.19076 0.0
C257 C 0.49836 0.49385 0.16228 0.0
H258 H 0.47766 0.58341 0.15012 0.0
H259 H 0.49256 0.55823 0.13996 0.0
H260 H 0.42833 0.52909 0.18733 0.0
H261 H 0.4431 0.50357 0.17682 0.0
H262 H 0.42588 0.51665 0.09816 0.0
H263 H 0.43871 0.50415 0.12565 0.0
H264 H 0.49866 0.54948 0.07695 0.0
H265 H 0.51122 0.53659 0.10425 0.0
H266 H 0.52705 0.43593 0.14621 0.0
H267 H 0.49942 0.44983 0.1534 0.0
H268 H 0.57118 0.49898 0.11446 0.0
H269 H 0.54413 0.51316 0.12231 0.0
H270 H 0.55767 0.49154 0.19773 0.0
H271 H 0.54468 0.50667 0.17206 0.0
H272 H 0.48319 0.44794 0.21457 0.0
H273 H 0.47033 0.46323 0.18883 0.0
N274 N 0.48559 0.50461 0.16558 0.0
N275 N 0.49711 0.50122 0.13012 0.0
C276 C 0.60598 0.34282 0.41948 0.0
O277 O 0.62088 0.36088 0.42992 0.0
O278 O 0.64897 0.39271 0.39186 0.0
Zn279 Zn 0.61397 0.38061 0.39701 0.0
O280 O 0.61128 0.39806 0.41881 0.0
C281 C 0.605 0.38469 0.35817 0.0
O282 O 0.62302 0.38105 0.35582 0.0
O283 O 0.59927 0.34661 0.4039 0.0
C284 C 0.59982 0.40894 0.41813 0.0
O285 O 0.58954 0.40947 0.40248 0.0
C286 C 0.66489 0.41439 0.39054 0.0
O287 O 0.65851 0.43015 0.39255 0.0
O288 O 0.59771 0.38461 0.37447 0.0
C289 C 0.2684 0.68738 0.55973 0.0
O290 O 0.24827 0.67838 0.54989 0.0
O291 O 0.2727 0.62571 0.57286 0.0
Zn292 Zn 0.25082 0.63877 0.56992 0.0
O293 O 0.23193 0.62749 0.54598 0.0
C294 C 0.2365 0.63127 0.60791 0.0
O295 O 0.25998 0.64108 0.61049 0.0
O296 O 0.27255 0.67387 0.56951 0.0
C297 C 0.21276 0.60738 0.54472 0.0
O298 O 0.20535 0.59364 0.5593 0.0
C299 C 0.26608 0.6056 0.57958 0.0
O300 O 0.24339 0.59173 0.58433 0.0
O301 O 0.2282 0.62879 0.5915 0.0
C302 C 0.59677 0.28291 0.72629 0.0
O303 O 0.60718 0.27647 0.714 0.0
O304 O 0.63875 0.26857 0.74957 0.0
Zn305 Zn 0.60251 0.24977 0.74633 0.0
O306 O 0.59299 0.2286 0.72391 0.0
C307 C 0.5999 0.22367 0.77859 0.0
O308 O 0.62181 0.23002 0.77309 0.0
O309 O 0.59193 0.27321 0.74211 0.0
C310 C 0.59632 0.21135 0.72269 0.0
O311 O 0.60628 0.20661 0.73667 0.0
C312 C 0.65391 0.27194 0.73704 0.0
O313 O 0.64605 0.26249 0.72058 0.0
O314 O 0.58756 0.23028 0.7693 0.0
C315 C 0.40045 0.6831 0.91512 0.0
O316 O 0.38475 0.66557 0.92538 0.0
O317 O 0.35904 0.63069 0.88812 0.0
Zn318 Zn 0.39415 0.64422 0.89484 0.0
O319 O 0.39736 0.62816 0.91749 0.0
C320 C 0.40138 0.61821 0.86757 0.0
O321 O 0.38253 0.6014 0.87623 0.0
O322 O 0.40823 0.67854 0.90056 0.0
C323 C 0.41523 0.62525 0.91982 0.0
O324 O 0.43195 0.63265 0.90705 0.0
C325 C 0.34185 0.61898 0.89931 0.0
O326 O 0.34682 0.61495 0.91611 0.0
O327 O 0.41046 0.6393 0.87317 0.0
C328 C 0.72037 0.39463 0.08343 0.0
O329 O 0.7204 0.37761 0.09275 0.0
O330 O 0.72909 0.3539 0.05875 0.0
Zn331 Zn 0.75335 0.38786 0.06415 0.0
O332 O 0.77375 0.39147 0.08666 0.0
C333 C 0.78391 0.39017 0.03574 0.0
O334 O 0.78005 0.37127 0.04465 0.0
O335 O 0.73425 0.40328 0.06959 0.0
C336 C 0.79562 0.40827 0.08784 0.0
O337 O 0.80512 0.42286 0.0739 0.0
C338 C 0.72628 0.33657 0.06828 0.0
O339 O 0.74025 0.34034 0.08283 0.0
O340 O 0.7742 0.40141 0.04166 0.0
C341 C 0.40427 0.73863 0.22255 0.0
O342 O 0.39657 0.74685 0.2093 0.0
O343 O 0.35661 0.74561 0.24988 0.0
Zn344 Zn 0.39193 0.76673 0.24431 0.0
O345 O 0.39684 0.78692 0.22198 0.0
C346 C 0.39709 0.79524 0.27532 0.0
O347 O 0.3751 0.7891 0.26979 0.0
O348 O 0.40493 0.74543 0.23912 0.0
C349 C 0.38462 0.79663 0.21844 0.0
O350 O 0.36755 0.7937 0.22986 0.0
C351 C 0.34078 0.73401 0.23744 0.0
O352 O 0.34731 0.73658 0.22002 0.0
O353 O 0.4086 0.78757 0.26646 0.0
H354 H 0.11581 0.57618 0.25894 0.0
H355 H 0.15712 0.60344 0.24867 0.0
H356 H 0.18288 0.61221 0.30517 0.0
H357 H 0.14158 0.58471 0.31549 0.0
H358 H 0.18486 0.64947 0.25863 0.0
H359 H 0.23147 0.60165 0.27827 0.0
H360 H 0.19889 0.58756 0.27735 0.0
H361 H 0.21562 0.60522 0.29708 0.0
C362 C 0.13034 0.58377 0.26914 0.0
C363 C 0.12553 0.57838 0.28802 0.0
C364 C 0.1539 0.59928 0.26325 0.0
C365 C 0.1731 0.60967 0.27612 0.0
C366 C 0.16842 0.60398 0.29495 0.0
H367 H 0.32272 0.72159 0.27236 0.0
H368 H 0.28167 0.69152 0.28117 0.0
C369 C 0.14484 0.58831 0.30084 0.0
C370 C 0.19764 0.62766 0.26995 0.0
H371 H 0.2567 0.64192 0.26986 0.0
C372 C 0.20054 0.64773 0.26095 0.0
C373 C 0.21805 0.62534 0.27301 0.0
C374 C 0.21588 0.60368 0.2818 0.0
C375 C 0.22339 0.66579 0.25525 0.0
C376 C 0.24379 0.66359 0.25854 0.0
C377 C 0.24094 0.64351 0.26744 0.0
C378 C 0.26835 0.68212 0.25302 0.0
C379 C 0.22568 0.68734 0.24615 0.0
C380 C 0.27435 0.68673 0.23426 0.0
C381 C 0.29781 0.70388 0.22914 0.0
C382 C 0.31563 0.71667 0.24274 0.0
C383 C 0.30942 0.71211 0.26154 0.0
C384 C 0.28602 0.6949 0.26662 0.0
H385 H 0.2091 0.68834 0.24786 0.0
H386 H 0.24141 0.70358 0.25199 0.0
H387 H 0.22874 0.68681 0.23111 0.0
H388 H 0.26097 0.67683 0.22358 0.0
H389 H 0.30203 0.70692 0.21456 0.0
H390 H 0.54668 0.12728 0.43766 0.0
H391 H 0.55677 0.16705 0.42936 0.0
H392 H 0.57912 0.18992 0.48572 0.0
H393 H 0.56864 0.15002 0.49428 0.0
H394 H 0.53602 0.19231 0.44656 0.0
H395 H 0.63641 0.23875 0.45318 0.0
H396 H 0.61782 0.2072 0.45051 0.0
H397 H 0.61953 0.22071 0.47244 0.0
C398 C 0.55371 0.14074 0.44832 0.0
C399 C 0.55676 0.13546 0.46666 0.0
C400 C 0.55956 0.16346 0.44352 0.0
C401 C 0.5688 0.18137 0.45691 0.0
C402 C 0.57232 0.17635 0.47515 0.0
H403 H 0.614 0.32902 0.45305 0.0
H404 H 0.6036 0.28951 0.46241 0.0
C405 C 0.56639 0.15358 0.47999 0.0
C406 C 0.57375 0.20505 0.45189 0.0
H407 H 0.6192 0.26214 0.44714 0.0
C408 C 0.55419 0.20761 0.44664 0.0
C409 C 0.59746 0.22488 0.45212 0.0
C410 C 0.6191 0.22287 0.45723 0.0
C411 C 0.55769 0.22964 0.4418 0.0
C412 C 0.58146 0.24948 0.44181 0.0
C413 C 0.601 0.2469 0.44714 0.0
C414 C 0.58654 0.27312 0.43629 0.0
C415 C 0.53585 0.23153 0.43713 0.0
C416 C 0.58036 0.277 0.41849 0.0
C417 C 0.58612 0.29956 0.41313 0.0
C418 C 0.59845 0.31867 0.42541 0.0
C419 C 0.6045 0.31468 0.44325 0.0
C420 C 0.59861 0.29212 0.44863 0.0
H421 H 0.51898 0.21656 0.44286 0.0
H422 H 0.53803 0.2482 0.44253 0.0
H423 H 0.53365 0.23128 0.42186 0.0
H424 H 0.57153 0.26268 0.4086 0.0
H425 H 0.58139 0.30209 0.39924 0.0
H426 H 0.45404 0.59084 0.61591 0.0
H427 H 0.42317 0.60066 0.60781 0.0
H428 H 0.36697 0.53084 0.62324 0.0
H429 H 0.39762 0.52104 0.63165 0.0
H430 H 0.38439 0.57576 0.58089 0.0
H431 H 0.35054 0.57532 0.65145 0.0
H432 H 0.3795 0.57798 0.64748 0.0
H433 H 0.3521 0.54981 0.64555 0.0
C434 C 0.43511 0.57772 0.61781 0.0
C435 C 0.42822 0.55518 0.6244 0.0
C436 C 0.41754 0.58329 0.61309 0.0
C437 C 0.39286 0.56652 0.6151 0.0
C438 C 0.38594 0.5441 0.62181 0.0
H439 H 0.25871 0.56433 0.59428 0.0
H440 H 0.28942 0.55423 0.60188 0.0
C441 C 0.40346 0.53848 0.62645 0.0
C442 C 0.37424 0.57211 0.60954 0.0
H443 H 0.32813 0.5778 0.62624 0.0
C444 C 0.37214 0.57634 0.59078 0.0
C445 C 0.35825 0.57266 0.62251 0.0
C446 C 0.36023 0.56889 0.64291 0.0
C447 C 0.35415 0.58076 0.58456 0.0
C448 C 0.3382 0.58142 0.59754 0.0
C449 C 0.34033 0.57719 0.61631 0.0
C450 C 0.31954 0.58705 0.59204 0.0
C451 C 0.35204 0.58416 0.56411 0.0
C452 C 0.32635 0.60884 0.58403 0.0
C453 C 0.30889 0.61462 0.5796 0.0
C454 C 0.28428 0.59878 0.58328 0.0
C455 C 0.27749 0.57689 0.59122 0.0
C456 C 0.295 0.57111 0.59561 0.0
H457 H 0.36068 0.57652 0.55568 0.0
H458 H 0.33279 0.576 0.55969 0.0
H459 H 0.36135 0.60326 0.5611 0.0
H460 H 0.34524 0.62161 0.58155 0.0
H461 H 0.31478 0.63169 0.57361 0.0
H462 H 0.88336 0.38147 0.77748 0.0
H463 H 0.84222 0.35417 0.7662 0.0
H464 H 0.8252 0.409 0.77032 0.0
H465 H 0.86639 0.43644 0.78147 0.0
H466 H 0.8003 0.33959 0.78419 0.0
H467 H 0.80027 0.38325 0.71875 0.0
H468 H 0.82774 0.39104 0.73141 0.0
H469 H 0.80908 0.40253 0.73844 0.0
C470 C 0.87085 0.38771 0.77593 0.0
C471 C 0.87807 0.41108 0.78036 0.0
C472 C 0.84741 0.37214 0.76941 0.0
C473 C 0.83077 0.37964 0.76716 0.0
C474 C 0.83794 0.403 0.7715 0.0
H475 H 0.67561 0.29635 0.76878 0.0
H476 H 0.71883 0.32141 0.77527 0.0
C477 C 0.86144 0.41863 0.77792 0.0
C478 C 0.80548 0.36265 0.76138 0.0
H479 H 0.76153 0.35346 0.72987 0.0
C480 C 0.79189 0.34251 0.77221 0.0
C481 C 0.79465 0.3663 0.74559 0.0
C482 C 0.80876 0.38683 0.73276 0.0
C483 C 0.76751 0.3263 0.76803 0.0
C484 C 0.75631 0.33063 0.75286 0.0
C485 C 0.77011 0.35033 0.74164 0.0
C486 C 0.73011 0.31533 0.74878 0.0
C487 C 0.75403 0.30464 0.7799 0.0
C488 C 0.72209 0.30411 0.73151 0.0
C489 C 0.6973 0.2899 0.72766 0.0
C490 C 0.68016 0.28677 0.74101 0.0
C491 C 0.68831 0.29822 0.75823 0.0
C492 C 0.71304 0.31245 0.76202 0.0
H493 H 0.76663 0.30033 0.78704 0.0
H494 H 0.74392 0.30788 0.79068 0.0
H495 H 0.74085 0.28918 0.77152 0.0
H496 H 0.73501 0.30625 0.72106 0.0
H497 H 0.69161 0.28138 0.71424 0.0
H498 H 0.48805 0.90015 0.96408 0.0
H499 H 0.48054 0.86229 0.95259 0.0
H500 H 0.40386 0.83629 0.95012 0.0
H501 H 0.41125 0.87421 0.96161 0.0
H502 H 0.45354 0.81935 0.96913 0.0
H503 H 0.41667 0.8185 0.8992 0.0
H504 H 0.43253 0.84485 0.91318 0.0
H505 H 0.40126 0.82356 0.91755 0.0
C506 C 0.46957 0.88636 0.9611 0.0
C507 C 0.45021 0.89011 0.96381 0.0
C508 C 0.46534 0.8648 0.95445 0.0
C509 C 0.44169 0.84659 0.95029 0.0
C510 C 0.42231 0.85029 0.95285 0.0
H511 H 0.38678 0.69798 0.94526 0.0
H512 H 0.39823 0.73815 0.95333 0.0
C513 C 0.42654 0.87192 0.95946 0.0
C514 C 0.43727 0.82335 0.94426 0.0
H515 H 0.41218 0.78232 0.9097 0.0
C516 C 0.44464 0.81132 0.95608 0.0
C517 C 0.42597 0.81308 0.92711 0.0
C518 C 0.41885 0.82574 0.91343 0.0
C519 C 0.44044 0.78898 0.95145 0.0
C520 C 0.42817 0.77825 0.9347 0.0
C521 C 0.4214 0.79054 0.92261 0.0
C522 C 0.42155 0.75399 0.92976 0.0
C523 C 0.44926 0.77711 0.9645 0.0
C524 C 0.43051 0.74955 0.91362 0.0
C525 C 0.42392 0.72653 0.9089 0.0
C526 C 0.40811 0.70759 0.9202 0.0
C527 C 0.39911 0.71216 0.93631 0.0
C528 C 0.40571 0.73513 0.941 0.0
H529 H 0.46394 0.79 0.97382 0.0
H530 H 0.43402 0.76445 0.97325 0.0
H531 H 0.45606 0.76724 0.95675 0.0
H532 H 0.44267 0.76391 0.90471 0.0
H533 H 0.43109 0.72358 0.89636 0.0
H534 H 0.54112 0.42225 0.12041 0.0
H535 H 0.5699 0.40962 0.11348 0.0
H536 H 0.6294 0.48038 0.12279 0.0
H537 H 0.60088 0.49296 0.13034 0.0
H538 H 0.60434 0.42604 0.08559 0.0
H539 H 0.64772 0.44102 0.15499 0.0
H540 H 0.61946 0.44007 0.1512 0.0
H541 H 0.64772 0.46623 0.14586 0.0
C542 C 0.56034 0.43503 0.12124 0.0
C543 C 0.56873 0.4586 0.12594 0.0
C544 C 0.57673 0.42783 0.11716 0.0
C545 C 0.60175 0.44402 0.11785 0.0
C546 C 0.61017 0.46753 0.12249 0.0
H547 H 0.71533 0.42936 0.06728 0.0
H548 H 0.68658 0.44154 0.07554 0.0
C549 C 0.59383 0.47474 0.12658 0.0
C550 C 0.61908 0.43652 0.11317 0.0
H551 H 0.66702 0.43353 0.13027 0.0
C552 C 0.61799 0.42756 0.09536 0.0
C553 C 0.63668 0.43834 0.12603 0.0
C554 C 0.63789 0.44672 0.14565 0.0
C555 C 0.63433 0.4207 0.08996 0.0
C556 C 0.65245 0.42327 0.10262 0.0
C557 C 0.65328 0.43187 0.12053 0.0
C558 C 0.67026 0.41642 0.09778 0.0
C559 C 0.63179 0.41038 0.07087 0.0
C560 C 0.67106 0.39877 0.10791 0.0
C561 C 0.68755 0.39193 0.10334 0.0
C562 C 0.70362 0.40266 0.08858 0.0
C563 C 0.70309 0.42066 0.07865 0.0
C564 C 0.68659 0.42754 0.08327 0.0
H565 H 0.6136 0.40421 0.06471 0.0
H566 H 0.64549 0.42406 0.06165 0.0
H567 H 0.63491 0.39539 0.07126 0.0
H568 H 0.65868 0.39007 0.11922 0.0
H569 H 0.68751 0.37805 0.1113 0.0
H570 H 0.44352 0.90565 0.54881 0.0
H571 H 0.41324 0.86622 0.55949 0.0
H572 H 0.39839 0.84149 0.50296 0.0
H573 H 0.42886 0.88069 0.49221 0.0
H574 H 0.36312 0.84135 0.54897 0.0
H575 H 0.40876 0.79247 0.53047 0.0
H576 H 0.42481 0.82414 0.5325 0.0
H577 H 0.40724 0.8099 0.51202 0.0
C578 C 0.43412 0.89169 0.5387 0.0
C579 C 0.43857 0.89621 0.51968 0.0
C580 C 0.41674 0.86926 0.5448 0.0
C581 C 0.40378 0.85097 0.53201 0.0
C582 C 0.40845 0.85532 0.51306 0.0
H583 H 0.26713 0.72084 0.53828 0.0
H584 H 0.29998 0.76138 0.53339 0.0
C585 C 0.42571 0.87774 0.50694 0.0
C586 C 0.38449 0.82756 0.53834 0.0
H587 H 0.36697 0.76948 0.53807 0.0
C588 C 0.364 0.82563 0.54676 0.0
C589 C 0.38587 0.80719 0.53556 0.0
C590 C 0.40794 0.80845 0.5273 0.0
C591 C 0.34445 0.80366 0.55197 0.0
C592 C 0.34541 0.78319 0.54849 0.0
C593 C 0.36623 0.78522 0.54059 0.0
C594 C 0.32487 0.75937 0.55259 0.0
C595 C 0.32296 0.80254 0.56119 0.0
C596 C 0.32804 0.74484 0.56496 0.0
C597 C 0.30937 0.72167 0.56775 0.0
C598 C 0.28723 0.71255 0.55807 0.0
C599 C 0.28392 0.72734 0.54599 0.0
C600 C 0.30262 0.75055 0.54324 0.0
H601 H 0.32762 0.81982 0.56718 0.0
H602 H 0.3083 0.79747 0.55075 0.0
H603 H 0.31586 0.78916 0.57235 0.0
H604 H 0.34513 0.75133 0.57226 0.0
H605 H 0.31254 0.71077 0.57716 0.0
H606 H 0.55861 0.45632 0.70498 0.0
H607 H 0.56809 0.42739 0.71721 0.0
H608 H 0.57803 0.41047 0.66162 0.0
H609 H 0.56878 0.43944 0.64931 0.0
H610 H 0.54096 0.37766 0.70688 0.0
H611 H 0.63897 0.42105 0.6912 0.0
H612 H 0.62327 0.43706 0.69269 0.0
H613 H 0.62009 0.42015 0.67232 0.0
C614 C 0.56329 0.44676 0.69541 0.0
C615 C 0.563 0.45013 0.6762 0.0
C616 C 0.56855 0.43018 0.7024 0.0
C617 C 0.57393 0.41699 0.69031 0.0
C618 C 0.57421 0.42071 0.67117 0.0
H619 H 0.60071 0.3034 0.69278 0.0
H620 H 0.59458 0.33593 0.68551 0.0
C621 C 0.56878 0.43713 0.66417 0.0
C622 C 0.57773 0.39824 0.69752 0.0
H623 H 0.61903 0.38068 0.69958 0.0
C624 C 0.55808 0.37836 0.70551 0.0
C625 C 0.60007 0.39929 0.69561 0.0
C626 C 0.62191 0.4206 0.68763 0.0
C627 C 0.5599 0.359 0.711 0.0
C628 C 0.58215 0.35985 0.70879 0.0
C629 C 0.60198 0.38004 0.70122 0.0
C630 C 0.58504 0.33964 0.71342 0.0
C631 C 0.53772 0.33745 0.71837 0.0
C632 C 0.58167 0.33088 0.73154 0.0
C633 C 0.58496 0.31208 0.73573 0.0
C634 C 0.59198 0.30196 0.72189 0.0
C635 C 0.59531 0.31079 0.70377 0.0
C636 C 0.59187 0.32943 0.69959 0.0
H637 H 0.52085 0.33743 0.71492 0.0
H638 H 0.53612 0.32113 0.71273 0.0
H639 H 0.53922 0.33711 0.73367 0.0
H640 H 0.57687 0.33881 0.74251 0.0
H641 H 0.58246 0.3058 0.74985 0.0
H642 H 0.13781 0.55744 0.82021 0.0
H643 H 0.17963 0.57331 0.83093 0.0
H644 H 0.15406 0.54637 0.88563 0.0
H645 H 0.11227 0.53063 0.8751 0.0
H646 H 0.20589 0.60537 0.86052 0.0
H647 H 0.19533 0.51756 0.87139 0.0
H648 H 0.17387 0.52158 0.85805 0.0
H649 H 0.17337 0.52198 0.88291 0.0
C650 C 0.14112 0.55514 0.83457 0.0
C651 C 0.12174 0.54261 0.84678 0.0
C652 C 0.16498 0.56411 0.84064 0.0
C653 C 0.16983 0.56062 0.85897 0.0
C654 C 0.15062 0.54878 0.87133 0.0
H655 H 0.30086 0.59477 0.91999 0.0
H656 H 0.25916 0.58141 0.91042 0.0
C657 C 0.12678 0.5398 0.86528 0.0
C658 C 0.19499 0.56917 0.86513 0.0
H659 H 0.23233 0.55063 0.88141 0.0
C660 C 0.21174 0.59344 0.86504 0.0
C661 C 0.20246 0.5535 0.87104 0.0
C662 C 0.18542 0.52718 0.87074 0.0
C663 C 0.23577 0.60253 0.87099 0.0
C664 C 0.24325 0.58685 0.87684 0.0
C665 C 0.22648 0.56258 0.87696 0.0
C666 C 0.26852 0.59522 0.88263 0.0
C667 C 0.2528 0.62884 0.87129 0.0
C668 C 0.2875 0.60709 0.87007 0.0
C669 C 0.31131 0.61475 0.87549 0.0
C670 C 0.31656 0.61052 0.89353 0.0
C671 C 0.29745 0.59835 0.90601 0.0
C672 C 0.27362 0.59071 0.90058 0.0
H673 H 0.24282 0.63842 0.87116 0.0
H674 H 0.26483 0.6344 0.88371 0.0
H675 H 0.26434 0.63413 0.85882 0.0
H676 H 0.28386 0.61028 0.85603 0.0
H677 H 0.32559 0.62395 0.8655 0.0
H678 H 0.59386 0.12169 0.01751 0.0
H679 H 0.62357 0.162 0.0266 0.0
H680 H 0.56627 0.17677 0.03386 0.0
H681 H 0.53621 0.13605 0.02536 0.0
H682 H 0.63336 0.20372 0.01055 0.0
H683 H 0.60349 0.19783 0.0833 0.0
H684 H 0.59372 0.17219 0.06889 0.0
H685 H 0.58015 0.18988 0.06609 0.0
C686 C 0.58752 0.13342 0.02124 0.0
C687 C 0.56265 0.1256 0.02095 0.0
C688 C 0.60454 0.15649 0.02631 0.0
C689 C 0.59708 0.17223 0.03119 0.0
C690 C 0.57234 0.16473 0.03048 0.0
H691 H 0.69296 0.32349 0.04027 0.0
H692 H 0.66142 0.28374 0.03139 0.0
C693 C 0.55523 0.14157 0.02543 0.0
C694 C 0.61541 0.19652 0.03681 0.0
H695 H 0.63436 0.23527 0.07302 0.0
C696 C 0.63358 0.21066 0.02419 0.0
C697 C 0.61581 0.20533 0.05472 0.0
C698 C 0.5974 0.1905 0.06912 0.0
C699 C 0.65211 0.23346 0.02896 0.0
C700 C 0.65219 0.24248 0.04672 0.0
C701 C 0.63412 0.22831 0.05939 0.0
C702 C 0.671 0.26657 0.05241 0.0
C703 C 0.67174 0.24749 0.0151 0.0
C704 C 0.68641 0.2701 0.06752 0.0
C705 C 0.70441 0.29285 0.07275 0.0
C706 C 0.7072 0.31243 0.06297 0.0
C707 C 0.69146 0.30879 0.04801 0.0
C708 C 0.67347 0.28608 0.04284 0.0
H709 H 0.67259 0.23603 0.0043 0.0
H710 H 0.66792 0.26017 0.0081 0.0
H711 H 0.68974 0.2576 0.02204 0.0
H712 H 0.68468 0.25522 0.07513 0.0
H713 H 0.71618 0.29507 0.08437 0.0
H714 H 0.44074 0.58619 0.14894 0.0
H715 H 0.43139 0.61535 0.16034 0.0
H716 H 0.4353 0.59551 0.21658 0.0
H717 H 0.44511 0.56655 0.2053 0.0
H718 H 0.39258 0.60892 0.1844 0.0
H719 H 0.4846 0.6678 0.21442 0.0
H720 H 0.47842 0.64503 0.19777 0.0
H721 H 0.46934 0.63747 0.22139 0.0
C722 C 0.43961 0.58804 0.16374 0.0
C723 C 0.44383 0.57423 0.17624 0.0
C724 C 0.43416 0.6046 0.17021 0.0
C725 C 0.43301 0.60775 0.18928 0.0
C726 C 0.43644 0.59351 0.20181 0.0
H727 H 0.41542 0.71382 0.247 0.0
H728 H 0.42172 0.68124 0.23988 0.0
C729 C 0.4418 0.57685 0.19534 0.0
C730 C 0.42868 0.62633 0.19594 0.0
H731 H 0.45615 0.67978 0.21764 0.0
C732 C 0.40641 0.62438 0.19174 0.0
C733 C 0.44677 0.64637 0.20557 0.0
C734 C 0.47123 0.64952 0.20999 0.0
C735 C 0.40176 0.64208 0.19684 0.0
C736 C 0.42011 0.66246 0.20599 0.0
C737 C 0.44218 0.66415 0.21058 0.0
C738 C 0.41704 0.68259 0.21029 0.0
C739 C 0.3772 0.63872 0.19247 0.0
C740 C 0.413 0.6945 0.19596 0.0
C741 C 0.40939 0.71305 0.19995 0.0
C742 C 0.40995 0.72018 0.21837 0.0
C743 C 0.41483 0.70872 0.23267 0.0
C744 C 0.41838 0.69009 0.22865 0.0
H745 H 0.36326 0.61984 0.19051 0.0
H746 H 0.37127 0.64606 0.20365 0.0
H747 H 0.37823 0.64802 0.17941 0.0
H748 H 0.41251 0.68936 0.18165 0.0
H749 H 0.40588 0.72162 0.18859 0.0
H750 H 0.86757 0.43419 0.34712 0.0
H751 H 0.82701 0.42402 0.35705 0.0
H752 H 0.84936 0.49751 0.35739 0.0
H753 H 0.88983 0.50781 0.34754 0.0
H754 H 0.81235 0.43859 0.38868 0.0
H755 H 0.78921 0.46752 0.32345 0.0
H756 H 0.81451 0.46301 0.32534 0.0
H757 H 0.81697 0.48944 0.33432 0.0
C758 C 0.86386 0.44817 0.34945 0.0
C759 C 0.88178 0.47177 0.34634 0.0
C760 C 0.84071 0.44234 0.35506 0.0
C761 C 0.83511 0.46 0.35759 0.0
C762 C 0.85316 0.4836 0.35506 0.0
H763 H 0.70369 0.45904 0.38613 0.0
H764 H 0.74552 0.4705 0.37921 0.0
C765 C 0.87626 0.48943 0.34943 0.0
C766 C 0.81037 0.45378 0.36284 0.0
H767 H 0.76156 0.45691 0.34811 0.0
C768 C 0.80118 0.44251 0.37981 0.0
C769 C 0.79593 0.45899 0.35122 0.0
C770 C 0.80451 0.47022 0.33249 0.0
C771 C 0.77798 0.43658 0.38561 0.0
C772 C 0.76353 0.44175 0.37396 0.0
C773 C 0.77276 0.45309 0.35703 0.0
C774 C 0.73847 0.43488 0.37879 0.0
C775 C 0.76927 0.42517 0.40426 0.0
C776 C 0.72068 0.41106 0.38065 0.0
C777 C 0.69683 0.40446 0.38458 0.0
C778 C 0.69028 0.42157 0.38661 0.0
C779 C 0.70815 0.44545 0.38469 0.0
C780 C 0.73204 0.45203 0.38074 0.0
H781 H 0.78458 0.42818 0.41343 0.0
H782 H 0.75881 0.43195 0.41128 0.0
H783 H 0.75722 0.40591 0.40232 0.0
H784 H 0.72517 0.39754 0.37881 0.0
H785 H 0.68351 0.38591 0.38589 0.0
H786 H 0.08876 0.51671 0.39408 0.0
H787 H 0.11372 0.52777 0.42227 0.0
H788 H 0.1087 0.58989 0.42764 0.0
H789 H 0.08314 0.57863 0.39978 0.0
H790 H 0.15822 0.56888 0.43041 0.0
H791 H 0.08586 0.55739 0.47812 0.0
H792 H 0.07959 0.54592 0.45477 0.0
H793 H 0.09078 0.57657 0.45893 0.0
C794 C 0.09281 0.53264 0.40135 0.0
C795 C 0.08381 0.5467 0.39477 0.0
C796 C 0.10719 0.539 0.41737 0.0
C797 C 0.11273 0.55945 0.42717 0.0
C798 C 0.10428 0.57383 0.42043 0.0
H799 H 0.22234 0.63211 0.51243 0.0
H800 H 0.19844 0.61988 0.48374 0.0
C801 C 0.0899 0.5675 0.4044 0.0
C802 C 0.12735 0.56573 0.44445 0.0
H803 H 0.12563 0.57495 0.49075 0.0
C804 C 0.15111 0.57016 0.44362 0.0
C805 C 0.11787 0.56702 0.46169 0.0
C806 C 0.09206 0.56127 0.46355 0.0
C807 C 0.16584 0.57633 0.45956 0.0
C808 C 0.15662 0.5784 0.47669 0.0
C809 C 0.13271 0.57353 0.47756 0.0
C810 C 0.17144 0.58559 0.4939 0.0
C811 C 0.191 0.58024 0.45798 0.0
C812 C 0.16394 0.57054 0.50925 0.0
C813 C 0.17747 0.57753 0.52571 0.0
C814 C 0.1987 0.59976 0.52716 0.0
C815 C 0.20616 0.61481 0.51175 0.0
C816 C 0.1926 0.60781 0.4953 0.0
H817 H 0.19295 0.57201 0.44523 0.0
H818 H 0.2043 0.59941 0.45736 0.0
H819 H 0.1956 0.57299 0.47017 0.0
H820 H 0.14758 0.55336 0.50847 0.0
H821 H 0.1712 0.56553 0.53732 0.0
H822 H 0.50871 0.08524 0.57435 0.0
H823 H 0.51816 0.10901 0.60252 0.0
H824 H 0.59178 0.12417 0.60119 0.0
H825 H 0.58269 0.10103 0.57272 0.0
H826 H 0.53497 0.10216 0.63649 0.0
H827 H 0.5998 0.18945 0.60676 0.0
H828 H 0.57967 0.16433 0.59257 0.0
H829 H 0.60692 0.16708 0.60211 0.0
C830 C 0.52701 0.09394 0.57988 0.0
C831 C 0.54499 0.09134 0.57125 0.0
C832 C 0.53232 0.10736 0.59604 0.0
C833 C 0.55572 0.11855 0.60379 0.0
C834 C 0.5737 0.11598 0.59525 0.0
H835 H 0.60047 0.17306 0.71545 0.0
H836 H 0.58996 0.15023 0.68671 0.0
C837 C 0.56841 0.10255 0.5791 0.0
C838 C 0.56113 0.13234 0.62113 0.0
H839 H 0.597 0.18723 0.63957 0.0
C840 C 0.54846 0.12077 0.63718 0.0
C841 C 0.57855 0.15667 0.6219 0.0
C842 C 0.59188 0.17021 0.60489 0.0
C843 C 0.55307 0.13283 0.65409 0.0
C844 C 0.57103 0.15698 0.65498 0.0
C845 C 0.58339 0.16864 0.63886 0.0
C846 C 0.57713 0.17057 0.67247 0.0
C847 C 0.53844 0.1197 0.67079 0.0
C848 C 0.57381 0.18983 0.67385 0.0
C849 C 0.57989 0.20297 0.69021 0.0
C850 C 0.58955 0.19718 0.70547 0.0
C851 C 0.59296 0.17792 0.704 0.0
C852 C 0.58685 0.16477 0.68762 0.0
H853 H 0.52156 0.10316 0.66681 0.0
H854 H 0.54941 0.11502 0.67978 0.0
H855 H 0.53356 0.13077 0.67902 0.0
H856 H 0.56644 0.19464 0.66227 0.0
H857 H 0.5771 0.21774 0.69085 0.0
H858 H 0.44669 0.5247 0.73178 0.0
H859 H 0.43459 0.53822 0.75884 0.0
H860 H 0.4924 0.60934 0.74889 0.0
H861 H 0.50423 0.59609 0.72149 0.0
H862 H 0.4633 0.56183 0.79049 0.0
H863 H 0.43205 0.61537 0.75366 0.0
H864 H 0.43653 0.59388 0.74194 0.0
H865 H 0.4621 0.62205 0.74819 0.0
C866 C 0.45663 0.54327 0.7352 0.0
C867 C 0.47634 0.55934 0.72443 0.0
C868 C 0.4498 0.55093 0.75072 0.0
C869 C 0.46242 0.5748 0.75571 0.0
C870 C 0.48219 0.5909 0.74509 0.0
H871 H 0.43995 0.64859 0.84625 0.0
H872 H 0.45635 0.6388 0.81954 0.0
C873 C 0.48908 0.58325 0.72957 0.0
C874 C 0.45516 0.58267 0.77229 0.0
H875 H 0.43225 0.61644 0.78637 0.0
C876 C 0.45652 0.57378 0.78961 0.0
C877 C 0.44647 0.59836 0.77107 0.0
C878 C 0.44397 0.60787 0.75272 0.0
C879 C 0.44938 0.58015 0.80579 0.0
C880 C 0.44024 0.59547 0.80453 0.0
C881 C 0.43928 0.6047 0.78726 0.0
C882 C 0.43067 0.60138 0.82088 0.0
C883 C 0.4519 0.57059 0.82411 0.0
C884 C 0.41065 0.5836 0.8303 0.0
C885 C 0.40127 0.5891 0.84553 0.0
C886 C 0.41162 0.61253 0.85155 0.0
C887 C 0.4316 0.63036 0.84199 0.0
C888 C 0.44098 0.62482 0.82674 0.0
H889 H 0.46529 0.5648 0.82343 0.0
H890 H 0.45753 0.58396 0.83528 0.0
H891 H 0.43415 0.55511 0.82787 0.0
H892 H 0.40211 0.56546 0.82576 0.0
H893 H 0.38579 0.57496 0.85249 0.0
H894 H 0.91326 0.47933 0.88882 0.0
H895 H 0.88796 0.46954 0.9163 0.0
H896 H 0.8884 0.40506 0.92239 0.0
H897 H 0.91338 0.41448 0.89478 0.0
H898 H 0.84155 0.42839 0.92347 0.0
H899 H 0.91287 0.43875 0.97315 0.0
H900 H 0.91958 0.45034 0.94992 0.0
H901 H 0.90775 0.41957 0.95388 0.0
C902 C 0.90774 0.46292 0.89587 0.0
C903 C 0.91543 0.44772 0.88965 0.0
C904 C 0.89341 0.45744 0.91161 0.0
C905 C 0.88667 0.43678 0.92149 0.0
C906 C 0.89385 0.42133 0.91514 0.0
H907 H 0.80511 0.36855 0.01898 0.0
H908 H 0.82966 0.3808 0.99109 0.0
C909 C 0.90814 0.42676 0.89938 0.0
C910 C 0.87206 0.43131 0.93844 0.0
H911 H 0.87311 0.42227 0.98487 0.0
C912 C 0.84844 0.42719 0.93694 0.0
C913 C 0.88121 0.42984 0.95594 0.0
C914 C 0.90681 0.43505 0.95844 0.0
C915 C 0.8334 0.42088 0.95244 0.0
C916 C 0.84246 0.41912 0.96992 0.0
C917 C 0.86622 0.42359 0.97144 0.0
C918 C 0.82739 0.41191 0.98674 0.0
C919 C 0.80772 0.41542 0.94989 0.0
C920 C 0.81818 0.4255 0.99366 0.0
C921 C 0.80404 0.41851 0.00961 0.0
C922 C 0.79904 0.39789 0.01897 0.0
C923 C 0.80857 0.38451 0.0121 0.0
C924 C 0.82262 0.39147 0.99616 0.0
H925 H 0.80187 0.41212 0.93512 0.0
H926 H 0.79496 0.3998 0.95811 0.0
H927 H 0.80648 0.43063 0.95475 0.0
H928 H 0.82208 0.4416 0.9868 0.0
H929 H 0.79709 0.42928 0.01461 0.0
H930 H 0.42713 0.89439 0.05815 0.0
H931 H 0.41369 0.86959 0.08579 0.0
H932 H 0.44077 0.93141 0.12024 0.0
H933 H 0.45442 0.95626 0.09271 0.0
H934 H 0.45546 0.90217 0.13257 0.0
H935 H 0.35642 0.8517 0.11912 0.0
H936 H 0.37372 0.85013 0.10044 0.0
H937 H 0.37683 0.8779 0.1064 0.0
C938 C 0.42991 0.90264 0.07161 0.0
C939 C 0.44186 0.92726 0.07328 0.0
C940 C 0.42216 0.88846 0.08738 0.0
C941 C 0.42592 0.89864 0.10506 0.0
C942 C 0.43764 0.92319 0.10673 0.0
H943 H 0.36531 0.82346 0.20823 0.0
H944 H 0.37523 0.84861 0.18091 0.0
C945 C 0.44552 0.93737 0.091 0.0
C946 C 0.41888 0.88385 0.1219 0.0
H947 H 0.37103 0.83773 0.14348 0.0
C948 C 0.43697 0.88816 0.135 0.0
C949 C 0.39469 0.8658 0.12517 0.0
C950 C 0.37424 0.86122 0.11213 0.0
C951 C 0.43166 0.87463 0.15111 0.0
C952 C 0.40768 0.85592 0.154 0.0
C953 C 0.38945 0.85192 0.14112 0.0
C954 C 0.40124 0.84027 0.17027 0.0
C955 C 0.45173 0.88069 0.165 0.0
C956 C 0.41226 0.82695 0.17313 0.0
C957 C 0.40676 0.8127 0.18874 0.0
C958 C 0.38991 0.81131 0.2017 0.0
C959 C 0.37843 0.82421 0.19855 0.0
C960 C 0.38404 0.83856 0.18295 0.0
H961 H 0.46694 0.89911 0.16339 0.0
H962 H 0.445 0.87833 0.17941 0.0
H963 H 0.45897 0.86889 0.16284 0.0
H964 H 0.42516 0.82759 0.16329 0.0
H965 H 0.41574 0.8028 0.19063 0.0
H966 H 0.50572 0.4598 0.24393 0.0
H967 H 0.51908 0.44398 0.26896 0.0
H968 H 0.56799 0.43878 0.23165 0.0
H969 H 0.55469 0.45446 0.20655 0.0
H970 H 0.51771 0.40082 0.27095 0.0
H971 H 0.61199 0.47687 0.2753 0.0
H972 H 0.58811 0.47826 0.26316 0.0
H973 H 0.60262 0.46424 0.25257 0.0
C974 C 0.51922 0.45516 0.24103 0.0
C975 C 0.52929 0.45856 0.22329 0.0
C976 C 0.52688 0.44621 0.25535 0.0
C977 C 0.54479 0.44058 0.25222 0.0
C978 C 0.55455 0.44353 0.23446 0.0
H979 H 0.61801 0.38876 0.3218 0.0
H980 H 0.60215 0.40068 0.29578 0.0
C981 C 0.54694 0.45251 0.22015 0.0
C982 C 0.55315 0.43145 0.2675 0.0
H983 H 0.6031 0.44337 0.2931 0.0
C984 C 0.53635 0.41013 0.27586 0.0
C985 C 0.57749 0.44366 0.27382 0.0
C986 C 0.59609 0.46713 0.26589 0.0
C987 C 0.54335 0.40049 0.29022 0.0
C988 C 0.56768 0.41271 0.29654 0.0
C989 C 0.58447 0.434 0.28815 0.0
C990 C 0.57609 0.40403 0.31211 0.0
C991 C 0.52476 0.37712 0.29829 0.0
C992 C 0.56668 0.40198 0.3299 0.0
C993 C 0.57569 0.39517 0.3448 0.0
C994 C 0.5944 0.39043 0.34219 0.0
C995 C 0.60357 0.39223 0.32429 0.0
C996 C 0.59456 0.39906 0.3094 0.0
H997 H 0.50891 0.36724 0.28884 0.0
H998 H 0.53277 0.36608 0.30125 0.0
H999 H 0.51814 0.38017 0.3115 0.0
H1000 H 0.55276 0.40617 0.33235 0.0
H1001 H 0.56829 0.39407 0.35842 0.0
H1002 H 0.51246 0.93619 0.4138 0.0
H1003 H 0.50016 0.90972 0.38697 0.0
H1004 H 0.43183 0.90702 0.38451 0.0
H1005 H 0.44384 0.93324 0.41132 0.0
H1006 H 0.45935 0.86387 0.38234 0.0
H1007 H 0.45825 0.92642 0.33186 0.0
H1008 H 0.47294 0.9356 0.35426 0.0
H1009 H 0.44065 0.92245 0.35213 0.0
C1010 C 0.49475 0.92983 0.40761 0.0
C1011 C 0.4792 0.93698 0.41458 0.0
C1012 C 0.48782 0.91481 0.39225 0.0
C1013 C 0.46529 0.90679 0.38358 0.0
C1014 C 0.44954 0.91349 0.39074 0.0
H1015 H 0.37715 0.81487 0.2964 0.0
H1016 H 0.39553 0.84172 0.32263 0.0
C1017 C 0.45644 0.92848 0.40604 0.0
C1018 C 0.45794 0.89113 0.36719 0.0
H1019 H 0.43917 0.88631 0.3222 0.0
C1020 C 0.4552 0.86882 0.36911 0.0
C1021 C 0.45267 0.89776 0.34996 0.0
C1022 C 0.45649 0.92195 0.34682 0.0
C1023 C 0.44626 0.85252 0.35444 0.0
C1024 C 0.44027 0.85891 0.3374 0.0
C1025 C 0.44368 0.88146 0.33534 0.0
C1026 C 0.4293 0.84212 0.32178 0.0
C1027 C 0.44241 0.82831 0.35747 0.0
C1028 C 0.4423 0.83354 0.31257 0.0
C1029 C 0.43183 0.81813 0.29751 0.0
C1030 C 0.40824 0.81117 0.29142 0.0
C1031 C 0.39533 0.81984 0.30073 0.0
C1032 C 0.4058 0.83521 0.31572 0.0
H1033 H 0.44351 0.82471 0.37236 0.0
H1034 H 0.4245 0.81459 0.35186 0.0
H1035 H 0.45657 0.82683 0.35003 0.0
H1036 H 0.46062 0.83898 0.31687 0.0
H1037 H 0.44227 0.81184 0.29059 0.0
H1038 H 0.53191 0.49233 0.54758 0.0
H1039 H 0.54404 0.47989 0.51994 0.0
H1040 H 0.58762 0.46175 0.55372 0.0
H1041 H 0.57495 0.47343 0.58155 0.0
H1042 H 0.59066 0.49611 0.50591 0.0
H1043 H 0.54386 0.40127 0.52413 0.0
H1044 H 0.53775 0.42174 0.53571 0.0
H1045 H 0.56453 0.42095 0.54147 0.0
C1046 C 0.54388 0.48547 0.54916 0.0
C1047 C 0.55227 0.48364 0.56679 0.0
C1048 C 0.55094 0.47856 0.53334 0.0
C1049 C 0.56644 0.46961 0.53483 0.0
C1050 C 0.57532 0.46825 0.55232 0.0
H1051 H 0.61832 0.41048 0.45271 0.0
H1052 H 0.61211 0.42686 0.48098 0.0
C1053 C 0.56826 0.47515 0.56818 0.0
C1054 C 0.57312 0.46158 0.51803 0.0
H1055 H 0.5677 0.4129 0.49719 0.0
C1056 C 0.58567 0.47793 0.50398 0.0
C1057 C 0.56657 0.43785 0.5156 0.0
C1058 C 0.55225 0.41934 0.52993 0.0
C1059 C 0.592 0.47119 0.48756 0.0
C1060 C 0.58522 0.44741 0.48506 0.0
C1061 C 0.57291 0.43113 0.49919 0.0
C1062 C 0.59013 0.43884 0.46769 0.0
C1063 C 0.60612 0.48962 0.47315 0.0
C1064 C 0.57977 0.44012 0.45087 0.0
C1065 C 0.5833 0.43081 0.43468 0.0
C1066 C 0.5971 0.41988 0.43506 0.0
C1067 C 0.60761 0.4188 0.45193 0.0
C1068 C 0.60408 0.42814 0.4681 0.0
H1069 H 0.61552 0.50764 0.47917 0.0
H1070 H 0.61976 0.48655 0.46655 0.0
H1071 H 0.59347 0.48877 0.4622 0.0
H1072 H 0.56852 0.44787 0.45034 0.0
H1073 H 0.57485 0.43182 0.42195 0.0
H1074 H 0.11724 0.54809 0.75952 0.0
H1075 H 0.14671 0.56696 0.7347 0.0
H1076 H 0.08865 0.55053 0.69595 0.0
H1077 H 0.05911 0.53161 0.72062 0.0
H1078 H 0.15052 0.54789 0.7014 0.0
H1079 H 0.13421 0.62121 0.68876 0.0
H1080 H 0.12362 0.6031 0.70919 0.0
H1081 H 0.10729 0.59261 0.68762 0.0
C1082 C 0.11075 0.54839 0.74569 0.0
C1083 C 0.08586 0.53849 0.74205 0.0
C1084 C 0.1276 0.55927 0.73156 0.0
C1085 C 0.11987 0.56051 0.71358 0.0
C1086 C 0.09503 0.55028 0.70983 0.0
H1087 H 0.18714 0.61013 0.6073 0.0
H1088 H 0.15956 0.59336 0.63342 0.0
C1089 C 0.07818 0.53946 0.72394 0.0
C1090 C 0.13773 0.57204 0.69863 0.0
H1091 H 0.15831 0.61606 0.66668 0.0
C1092 C 0.15238 0.5629 0.69389 0.0
C1093 C 0.14009 0.59164 0.68889 0.0
C1094 C 0.12564 0.60289 0.69396 0.0
C1095 C 0.16891 0.57246 0.67931 0.0
C1096 C 0.17104 0.59186 0.66944 0.0
C1097 C 0.15656 0.60114 0.67428 0.0
C1098 C 0.18793 0.60255 0.65381 0.0
C1099 C 0.18349 0.56134 0.67427 0.0
C1100 C 0.21302 0.61362 0.65672 0.0
C1101 C 0.22885 0.62325 0.64184 0.0
C1102 C 0.21984 0.62203 0.62379 0.0
C1103 C 0.19468 0.61132 0.62101 0.0
C1104 C 0.17888 0.60174 0.63591 0.0
H1105 H 0.17588 0.54355 0.68038 0.0
H1106 H 0.18425 0.5599 0.659 0.0
H1107 H 0.2023 0.57255 0.67957 0.0
H1108 H 0.22036 0.61477 0.6705 0.0
H1109 H 0.24813 0.63145 0.64447 0.0
H1110 H 0.49128 0.08989 0.91984 0.0
H1111 H 0.5034 0.11566 0.89279 0.0
H1112 H 0.56759 0.1112 0.88771 0.0
H1113 H 0.55518 0.08474 0.91423 0.0
H1114 H 0.54486 0.15898 0.88716 0.0
H1115 H 0.53809 0.09368 0.83588 0.0
H1116 H 0.52528 0.08545 0.8587 0.0
H1117 H 0.55712 0.09706 0.85539 0.0
C1118 C 0.50782 0.09415 0.91282 0.0
C1119 C 0.52217 0.0851 0.91913 0.0
C1120 C 0.5148 0.10901 0.89746 0.0
C1121 C 0.53617 0.115 0.88806 0.0
C1122 C 0.55076 0.10639 0.89453 0.0
H1123 H 0.62083 0.20451 0.7995 0.0
H1124 H 0.60388 0.17853 0.82612 0.0
C1125 C 0.54379 0.0915 0.90984 0.0
C1126 C 0.54346 0.13056 0.87167 0.0
H1127 H 0.55854 0.13373 0.82614 0.0
C1128 C 0.54761 0.15342 0.87376 0.0
C1129 C 0.54689 0.12318 0.85419 0.0
C1130 C 0.54139 0.09843 0.85081 0.0
C1131 C 0.55602 0.16939 0.85897 0.0
C1132 C 0.56012 0.16218 0.84167 0.0
C1133 C 0.55546 0.13919 0.83948 0.0
C1134 C 0.57029 0.17851 0.82586 0.0
C1135 C 0.56123 0.19407 0.86208 0.0
C1136 C 0.55692 0.18703 0.81687 0.0
C1137 C 0.56653 0.20188 0.80155 0.0
C1138 C 0.58967 0.20842 0.79502 0.0
C1139 C 0.60299 0.19989 0.80417 0.0
C1140 C 0.59334 0.18501 0.81938 0.0
H1141 H 0.56106 0.19803 0.877 0.0
H1142 H 0.57912 0.20712 0.8563 0.0
H1143 H 0.54724 0.19625 0.8548 0.0
H1144 H 0.53894 0.18193 0.82154 0.0
H1145 H 0.5558 0.20811 0.79478 0.0
H1146 H 0.43049 0.55114 0.08273 0.0
H1147 H 0.41852 0.56376 0.05479 0.0
H1148 H 0.46347 0.5473 0.02192 0.0
H1149 H 0.47459 0.53364 0.04954 0.0
H1150 H 0.4472 0.59925 0.03161 0.0
H1151 H 0.40105 0.51533 0.99244 0.0
H1152 H 0.40848 0.51679 0.01676 0.0
H1153 H 0.43113 0.5234 -0.00045 0.0
C1154 C 0.43746 0.54978 0.0695 0.0
C1155 C 0.45349 0.54135 0.06839 0.0
C1156 C 0.43072 0.55714 0.05357 0.0
C1157 C 0.43979 0.55612 0.03623 0.0
C1158 C 0.4558 0.54775 0.03508 0.0
H1159 H 0.44809 0.61189 0.92745 0.0
H1160 H 0.45242 0.59452 0.95609 0.0
C1161 C 0.46244 0.54028 0.05095 0.0
C1162 C 0.43362 0.56498 0.01946 0.0
H1163 H 0.41226 0.55028 0.97504 0.0
C1164 C 0.43926 0.58845 0.01932 0.0
C1165 C 0.42322 0.55084 0.00345 0.0
C1166 C 0.41539 0.52513 0.00309 0.0
C1167 C 0.43556 0.5984 0.00339 0.0
C1168 C 0.42591 0.58447 0.98726 0.0
C1169 C 0.41981 0.5609 0.98746 0.0
C1170 C 0.42268 0.59433 0.96987 0.0
C1171 C 0.44262 0.62391 0.00368 0.0
C1172 C 0.40432 0.59966 0.96816 0.0
C1173 C 0.40169 0.60947 0.9518 0.0
C1174 C 0.41749 0.6142 0.93693 0.0
C1175 C 0.4357 0.60857 0.93867 0.0
C1176 C 0.43818 0.59861 0.95498 0.0
H1177 H 0.45278 0.6331 0.01649 0.0
H1178 H 0.45392 0.63321 0.9915 0.0
H1179 H 0.42605 0.62507 0.00282 0.0
H1180 H 0.39208 0.5963 0.97951 0.0
H1181 H 0.38746 0.61358 0.9509 0.0
H1182 H 0.95073 0.4875 0.21943 0.0
H1183 H 0.92499 0.47326 0.19179 0.0
H1184 H 0.86245 0.43189 0.22581 0.0
H1185 H 0.88788 0.44701 0.25365 0.0
H1186 H 0.89683 0.42868 0.17864 0.0
H1187 H 0.84008 0.46736 0.19377 0.0
H1188 H 0.86758 0.47554 0.2065 0.0
H1189 H 0.84004 0.44854 0.21167 0.0
C1190 C 0.93144 0.4757 0.2211 0.0
C1191 C 0.92136 0.46863 0.23881 0.0
C1192 C 0.91678 0.46739 0.20525 0.0
C1193 C 0.89176 0.4518 0.20675 0.0
C1194 C 0.88165 0.4443 0.22435 0.0
H1195 H 0.77923 0.38647 0.12123 0.0
H1196 H 0.8022 0.39512 0.15034 0.0
C1197 C 0.89628 0.45274 0.24025 0.0
C1198 C 0.87643 0.44327 0.18979 0.0
H1199 H 0.82897 0.44247 0.16749 0.0
C1200 C 0.88199 0.43168 0.17621 0.0
C1201 C 0.85706 0.44721 0.18666 0.0
C1202 C 0.85092 0.46053 0.20032 0.0
C1203 C 0.86875 0.424 0.15955 0.0
C1204 C 0.84956 0.42812 0.15639 0.0
C1205 C 0.84367 0.43929 0.17006 0.0
C1206 C 0.83606 0.42194 0.13862 0.0
C1207 C 0.8753 0.41151 0.14543 0.0
C1208 C 0.84757 0.43421 0.12248 0.0
C1209 C 0.83452 0.42945 0.10588 0.0
C1210 C 0.80971 0.41229 0.10515 0.0
C1211 C 0.79833 0.39974 0.12132 0.0
C1212 C 0.81138 0.40466 0.13795 0.0
H1213 H 0.88687 0.40522 0.15152 0.0
H1214 H 0.85874 0.39626 0.13936 0.0
H1215 H 0.88544 0.42383 0.13403 0.0
H1216 H 0.86656 0.44783 0.12282 0.0
H1217 H 0.84381 0.43943 0.09369 0.0
loop_
_geom_bond_atom_site_label_1
_geom_bond_atom_site_label_2
_geom_bond_distance
_geom_bond_site_symmetry_2
_ccdc_geom_bond_type
C0 C1 1.384 . S
C0 C2 1.384 . S
C0 H28 0.931 . S
C1 C0 1.384 . S
C1 C4 1.382 . S
C2 C0 1.384 . S
C2 C3 1.381 . S
C2 H29 0.930 . S
C3 C2 1.381 . S
C3 C5 1.381 . S
C3 C6 1.487 . S
C4 C1 1.382 . S
C4 C5 1.387 . S
C4 H30 0.930 . S
C5 C3 1.381 . S
C5 C4 1.387 . S
C5 H31 0.931 . S
C6 C3 1.487 . S
C6 C13 1.399 . S
C6 N44 1.343 . S
C7 C8 1.384 . S
C7 C9 1.384 . S
C7 H32 0.931 . S
C8 C7 1.384 . S
C8 C11 1.382 . S
C9 C7 1.384 . S
C9 C10 1.381 . S
C9 H33 0.930 . S
C10 C9 1.381 . S
C10 C12 1.381 . S
C10 C13 1.487 . S
C11 C8 1.382 . S
C11 C12 1.387 . S
C11 H34 0.930 . S
C12 C10 1.381 . S
C12 C11 1.387 . S
C12 H35 0.931 . S
C13 C6 1.399 . S
C13 C10 1.487 . S
C13 N45 1.343 1_655 S
C14 C15 1.384 . S
C14 C16 1.384 . S
C14 H36 0.931 . S
C15 C14 1.384 . S
C15 C18 1.382 . S
C16 C14 1.384 . S
C16 C17 1.381 . S
C16 H37 0.930 . S
C17 C16 1.381 . S
C17 C19 1.381 . S
C17 C20 1.487 . S
C18 C15 1.382 . S
C18 C19 1.387 . S
C18 H38 0.930 . S
C19 C17 1.381 . S
C19 C18 1.387 . S
C19 H39 0.931 . S
C20 C17 1.487 . S
C20 C27 1.399 . S
C20 N45 1.343 . S
C21 C22 1.384 . S
C21 C23 1.384 . S
C21 H40 0.931 . S
C22 C21 1.384 . S
C22 C25 1.382 . S
C23 C21 1.384 . S
C23 C24 1.381 . S
C23 H41 0.930 . S
C24 C23 1.381 . S
C24 C26 1.381 . S
C24 C27 1.487 . S
C25 C22 1.382 . S
C25 C26 1.387 . S
C25 H42 0.930 . S
C26 C24 1.381 . S
C26 C25 1.387 . S
C26 H43 0.931 . S
C27 C20 1.399 . S
C27 C24 1.487 . S
C27 N44 1.343 1_455 S
H28 C0 0.931 . S
H29 C2 0.930 . S
H30 C4 0.930 . S
H31 C5 0.931 . S
H32 C7 0.931 . S
H33 C9 0.930 . S
H34 C11 0.930 . S
H35 C12 0.931 . S
H36 C14 0.931 . S
H37 C16 0.930 . S
H38 C18 0.930 . S
H39 C19 0.931 . S
H40 C21 0.931 . S
H41 C23 0.930 . S
H42 C25 0.930 . S
H43 C26 0.931 . S
N44 C6 1.343 . S
N44 C27 1.343 1_655 S
N45 C13 1.343 1_455 S
N45 C20 1.343 . S
C46 C47 1.384 . S
C46 C48 1.384 . S
C46 H74 0.931 . S
C47 C46 1.384 . S
C47 C50 1.382 . S
C48 C46 1.384 . S
C48 C49 1.381 . S
C48 H75 0.930 . S
C49 C48 1.381 . S
C49 C51 1.381 . S
C49 C52 1.487 . S
C50 C47 1.382 . S
C50 C51 1.387 . S
C50 H76 0.930 . S
C51 C49 1.381 . S
C51 C50 1.387 . S
C51 H77 0.931 . S
C52 C49 1.487 . S
C52 C59 1.399 . S
C52 N90 1.343 1_565 S
C53 C54 1.384 . S
C53 C55 1.384 . S
C53 H78 0.931 . S
C54 C53 1.384 . S
C54 C57 1.382 . S
C55 C53 1.384 . S
C55 C56 1.381 . S
C55 H79 0.930 . S
C56 C55 1.381 . S
C56 C58 1.381 . S
C56 C59 1.487 . S
C57 C54 1.382 . S
C57 C58 1.387 . S
C57 H80 0.930 . S
C58 C56 1.381 . S
C58 C57 1.387 . S
C58 H81 0.931 . S
C59 C52 1.399 . S
C59 C56 1.487 . S
C59 N91 1.343 1_565 S
C60 C61 1.384 . S
C60 C62 1.384 . S
C60 H82 0.931 . S
C61 C60 1.384 . S
C61 C64 1.382 . S
C62 C60 1.384 . S
C62 C63 1.381 . S
C62 H83 0.930 . S
C63 C62 1.381 . S
C63 C65 1.381 . S
C63 C66 1.487 . S
C64 C61 1.382 . S
C64 C65 1.387 . S
C64 H84 0.930 . S
C65 C63 1.381 . S
C65 C64 1.387 . S
C65 H85 0.931 . S
C66 C63 1.487 . S
C66 C73 1.399 . S
C66 N91 1.343 . S
C67 C68 1.384 . S
C67 C69 1.384 . S
C67 H86 0.931 . S
C68 C67 1.384 . S
C68 C71 1.382 . S
C69 C67 1.384 . S
C69 C70 1.381 . S
C69 H87 0.930 . S
C70 C69 1.381 . S
C70 C72 1.381 . S
C70 C73 1.487 . S
C71 C68 1.382 . S
C71 C72 1.387 . S
C71 H88 0.930 . S
C72 C70 1.381 . S
C72 C71 1.387 . S
C72 H89 0.931 . S
C73 C66 1.399 . S
C73 C70 1.487 . S
C73 N90 1.343 . S
H74 C46 0.931 . S
H75 C48 0.930 . S
H76 C50 0.930 . S
H77 C51 0.931 . S
H78 C53 0.931 . S
H79 C55 0.930 . S
H80 C57 0.930 . S
H81 C58 0.931 . S
H82 C60 0.931 . S
H83 C62 0.930 . S
H84 C64 0.930 . S
H85 C65 0.931 . S
H86 C67 0.931 . S
H87 C69 0.930 . S
H88 C71 0.930 . S
H89 C72 0.931 . S
N90 C52 1.343 1_545 S
N90 C73 1.343 . S
N91 C59 1.343 1_545 S
N91 C66 1.343 . S
C92 C93 1.384 . S
C92 C94 1.384 . S
C92 H120 0.931 . S
C93 C92 1.384 . S
C93 C96 1.382 . S
C94 C92 1.384 . S
C94 C95 1.381 . S
C94 H121 0.930 . S
C95 C94 1.381 . S
C95 C97 1.381 . S
C95 C98 1.487 . S
C96 C93 1.382 . S
C96 C97 1.387 . S
C96 H122 0.930 . S
C97 C95 1.381 . S
C97 C96 1.387 . S
C97 H123 0.931 . S
C98 C95 1.487 . S
C98 C105 1.399 . S
C98 N136 1.343 . S
C99 C100 1.384 . S
C99 C101 1.384 . S
C99 H124 0.931 . S
C100 C99 1.384 . S
C100 C103 1.382 . S
C101 C99 1.384 . S
C101 C102 1.381 . S
C101 H125 0.930 . S
C102 C101 1.381 . S
C102 C104 1.381 . S
C102 C105 1.487 . S
C103 C100 1.382 . S
C103 C104 1.387 . S
C103 H126 0.930 . S
C104 C102 1.381 . S
C104 C103 1.387 . S
C104 H127 0.931 . S
C105 C98 1.399 . S
C105 C102 1.487 . S
C105 N137 1.343 . S
C106 C107 1.384 . S
C106 C108 1.384 . S
C106 H128 0.931 . S
C107 C106 1.384 . S
C107 C110 1.382 . S
C108 C106 1.384 . S
C108 C109 1.381 . S
C108 H129 0.930 . S
C109 C108 1.381 . S
C109 C111 1.381 . S
C109 C112 1.487 . S
C110 C107 1.382 . S
C110 C111 1.387 . S
C110 H130 0.930 . S
C111 C109 1.381 . S
C111 C110 1.387 . S
C111 H131 0.931 . S
C112 C109 1.487 . S
C112 C119 1.399 . S
C112 N137 1.343 . S
C113 C114 1.384 . S
C113 C115 1.384 . S
C113 H132 0.931 . S
C114 C113 1.384 . S
C114 C117 1.382 . S
C115 C113 1.384 . S
C115 C116 1.381 . S
C115 H133 0.930 . S
C116 C115 1.381 . S
C116 C118 1.381 . S
C116 C119 1.487 . S
C117 C114 1.382 . S
C117 C118 1.387 . S
C117 H134 0.930 . S
C118 C116 1.381 . S
C118 C117 1.387 . S
C118 H135 0.931 . S
C119 C112 1.399 . S
C119 C116 1.487 . S
C119 N136 1.343 . S
H120 C92 0.931 . S
H121 C94 0.930 . S
H122 C96 0.930 . S
H123 C97 0.931 . S
H124 C99 0.931 . S
H125 C101 0.930 . S
H126 C103 0.930 . S
H127 C104 0.931 . S
H128 C106 0.931 . S
H129 C108 0.930 . S
H130 C110 0.930 . S
H131 C111 0.931 . S
H132 C113 0.931 . S
H133 C115 0.930 . S
H134 C117 0.930 . S
H135 C118 0.931 . S
N136 C98 1.343 . S
N136 C119 1.343 . S
N137 C105 1.343 . S
N137 C112 1.343 . S
C138 C139 1.384 . S
C138 C140 1.384 . S
C138 H166 0.931 . S
C139 C138 1.384 . S
C139 C142 1.382 . S
C140 C138 1.384 . S
C140 C141 1.381 . S
C140 H167 0.930 . S
C141 C140 1.381 . S
C141 C143 1.381 . S
C141 C144 1.487 . S
C142 C139 1.382 . S
C142 C143 1.387 . S
C142 H168 0.930 . S
C143 C141 1.381 . S
C143 C142 1.387 . S
C143 H169 0.931 . S
C144 C141 1.487 . S
C144 C151 1.399 . S
C144 N182 1.343 . S
C145 C146 1.384 . S
C145 C147 1.384 . S
C145 H170 0.931 . S
C146 C145 1.384 . S
C146 C149 1.382 . S
C147 C145 1.384 . S
C147 C148 1.381 . S
C147 H171 0.930 . S
C148 C147 1.381 . S
C148 C150 1.381 . S
C148 C151 1.487 . S
C149 C146 1.382 . S
C149 C150 1.387 . S
C149 H172 0.930 . S
C150 C148 1.381 . S
C150 C149 1.387 . S
C150 H173 0.931 . S
C151 C144 1.399 . S
C151 C148 1.487 . S
C151 N183 1.343 1_655 S
C152 C153 1.384 . S
C152 C154 1.384 . S
C152 H174 0.931 . S
C153 C152 1.384 . S
C153 C156 1.382 . S
C154 C152 1.384 . S
C154 C155 1.381 . S
C154 H175 0.930 . S
C155 C154 1.381 . S
C155 C157 1.381 . S
C155 C158 1.487 . S
C156 C153 1.382 . S
C156 C157 1.387 . S
C156 H176 0.930 . S
C157 C155 1.381 . S
C157 C156 1.387 . S
C157 H177 0.931 . S
C158 C155 1.487 . S
C158 C165 1.399 . S
C158 N183 1.343 . S
C159 C160 1.384 . S
C159 C161 1.384 . S
C159 H178 0.931 . S
C160 C159 1.384 . S
C160 C163 1.382 . S
C161 C159 1.384 . S
C161 C162 1.381 . S
C161 H179 0.930 . S
C162 C161 1.381 . S
C162 C164 1.381 . S
C162 C165 1.487 . S
C163 C160 1.382 . S
C163 C164 1.387 . S
C163 H180 0.930 . S
C164 C162 1.381 . S
C164 C163 1.387 . S
C164 H181 0.931 . S
C165 C158 1.399 . S
C165 C162 1.487 . S
C165 N182 1.343 1_455 S
H166 C138 0.931 . S
H167 C140 0.930 . S
H168 C142 0.930 . S
H169 C143 0.931 . S
H170 C145 0.931 . S
H171 C147 0.930 . S
H172 C149 0.930 . S
H173 C150 0.931 . S
H174 C152 0.931 . S
H175 C154 0.930 . S
H176 C156 0.930 . S
H177 C157 0.931 . S
H178 C159 0.931 . S
H179 C161 0.930 . S
H180 C163 0.930 . S
H181 C164 0.931 . S
N182 C144 1.343 . S
N182 C165 1.343 1_655 S
N183 C151 1.343 1_455 S
N183 C158 1.343 . S
C184 C185 1.384 . S
C184 C186 1.384 . S
C184 H212 0.931 . S
C185 C184 1.384 . S
C185 C188 1.382 . S
C186 C184 1.384 . S
C186 C187 1.381 . S
C186 H213 0.930 . S
C187 C186 1.381 . S
C187 C189 1.381 . S
C187 C190 1.487 . S
C188 C185 1.382 . S
C188 C189 1.387 . S
C188 H214 0.930 . S
C189 C187 1.381 . S
C189 C188 1.387 . S
C189 H215 0.931 . S
C190 C187 1.487 . S
C190 C197 1.399 1_556 S
C190 N228 1.343 1_565 S
C191 C192 1.384 . S
C191 C193 1.384 . S
C191 H216 0.931 . S
C192 C191 1.384 . S
C192 C195 1.382 . S
C193 C191 1.384 . S
C193 C194 1.381 . S
C193 H217 0.930 . S
C194 C193 1.381 . S
C194 C196 1.381 . S
C194 C197 1.487 . S
C195 C192 1.382 . S
C195 C196 1.387 . S
C195 H218 0.930 . S
C196 C194 1.381 . S
C196 C195 1.387 . S
C196 H219 0.931 . S
C197 C190 1.399 1_554 S
C197 C194 1.487 . S
C197 N229 1.343 1_565 S
C198 C199 1.384 . S
C198 C200 1.384 1_554 S
C198 H220 0.931 1_554 S
C199 C198 1.384 . S
C199 C202 1.382 . S
C200 C198 1.384 1_556 S
C200 C201 1.381 1_556 S
C200 H221 0.930 . S
C201 C200 1.381 1_554 S
C201 C203 1.381 . S
C201 C204 1.487 1_554 S
C202 C199 1.382 . S
C202 C203 1.387 . S
C202 H222 0.930 . S
C203 C201 1.381 . S
C203 C202 1.387 . S
C203 H223 0.931 . S
C204 C201 1.487 1_556 S
C204 C211 1.399 . S
C204 N229 1.343 1_556 S
C205 C206 1.384 . S
C205 C207 1.384 . S
C205 H224 0.931 . S
C206 C205 1.384 . S
C206 C209 1.382 . S
C207 C205 1.384 . S
C207 C208 1.381 . S
C207 H225 0.930 . S
C208 C207 1.381 . S
C208 C210 1.381 . S
C208 C211 1.487 . S
C209 C206 1.382 . S
C209 C210 1.387 . S
C209 H226 0.930 . S
C210 C208 1.381 . S
C210 C209 1.387 . S
C210 H227 0.931 . S
C211 C204 1.399 . S
C211 C208 1.487 . S
C211 N228 1.343 . S
H212 C184 0.931 . S
H213 C186 0.930 . S
H214 C188 0.930 . S
H215 C189 0.931 . S
H216 C191 0.931 . S
H217 C193 0.930 . S
H218 C195 0.930 . S
H219 C196 0.931 . S
H220 C198 0.931 1_556 S
H221 C200 0.930 . S
H222 C202 0.930 . S
H223 C203 0.931 . S
H224 C205 0.931 . S
H225 C207 0.930 . S
H226 C209 0.930 . S
H227 C210 0.931 . S
N228 C190 1.343 1_545 S
N228 C211 1.343 . S
N229 C197 1.343 1_545 S
N229 C204 1.343 1_554 S
C230 C231 1.384 . S
C230 C232 1.384 . S
C230 H258 0.931 . S
C231 C230 1.384 . S
C231 C234 1.382 . S
C232 C230 1.384 . S
C232 C233 1.381 . S
C232 H259 0.930 . S
C233 C232 1.381 . S
C233 C235 1.381 . S
C233 C236 1.487 . S
C234 C231 1.382 . S
C234 C235 1.387 . S
C234 H260 0.930 . S
C235 C233 1.381 . S
C235 C234 1.387 . S
C235 H261 0.931 . S
C236 C233 1.487 . S
C236 C243 1.399 . S
C236 N274 1.343 . S
C237 C238 1.384 . S
C237 C239 1.384 . S
C237 H262 0.931 . S
C238 C237 1.384 . S
C238 C241 1.382 . S
C239 C237 1.384 . S
C239 C240 1.381 . S
C239 H263 0.930 . S
C240 C239 1.381 . S
C240 C242 1.381 . S
C240 C243 1.487 . S
C241 C238 1.382 . S
C241 C242 1.387 . S
C241 H264 0.930 . S
C242 C240 1.381 . S
C242 C241 1.387 . S
C242 H265 0.931 . S
C243 C236 1.399 . S
C243 C240 1.487 . S
C243 N275 1.343 . S
C244 C245 1.384 . S
C244 C246 1.384 . S
C244 H266 0.931 . S
C245 C244 1.384 . S
C245 C248 1.382 . S
C246 C244 1.384 . S
C246 C247 1.381 . S
C246 H267 0.930 . S
C247 C246 1.381 . S
C247 C249 1.381 . S
C247 C250 1.487 . S
C248 C245 1.382 . S
C248 C249 1.387 . S
C248 H268 0.930 . S
C249 C247 1.381 . S
C249 C248 1.387 . S
C249 H269 0.931 . S
C250 C247 1.487 . S
C250 C257 1.399 . S
C250 N275 1.343 . S
C251 C252 1.384 . S
C251 C253 1.384 . S
C251 H270 0.931 . S
C252 C251 1.384 . S
C252 C255 1.382 . S
C253 C251 1.384 . S
C253 C254 1.381 . S
C253 H271 0.930 . S
C254 C253 1.381 . S
C254 C256 1.381 . S
C254 C257 1.487 . S
C255 C252 1.382 . S
C255 C256 1.387 . S
C255 H272 0.930 . S
C256 C254 1.381 . S
C256 C255 1.387 . S
C256 H273 0.931 . S
C257 C250 1.399 . S
C257 C254 1.487 . S
C257 N274 1.343 . S
H258 C230 0.931 . S
H259 C232 0.930 . S
H260 C234 0.930 . S
H261 C235 0.931 . S
H262 C237 0.931 . S
H263 C239 0.930 . S
H264 C241 0.930 . S
H265 C242 0.931 . S
H266 C244 0.931 . S
H267 C246 0.930 . S
H268 C248 0.930 . S
H269 C249 0.931 . S
H270 C251 0.931 . S
H271 C253 0.930 . S
H272 C255 0.930 . S
H273 C256 0.931 . S
N274 C236 1.343 . S
N274 C257 1.343 . S
N275 C243 1.343 . S
N275 C250 1.343 . S
C276 O277 1.160 . S
C276 O283 1.185 . S
O277 C276 1.160 . S
O278 Zn279 1.899 . S
O278 C286 1.284 . S
Zn279 O278 1.899 . S
Zn279 O280 2.032 . S
Zn279 O283 2.086 . S
Zn279 O288 1.977 . S
O280 Zn279 2.032 . S
O280 C284 1.278 . S
C281 O282 1.203 . S
C281 O288 1.267 . S
O282 C281 1.203 . S
O283 C276 1.185 . S
O283 Zn279 2.086 . S
C284 O280 1.278 . S
C284 O285 1.211 . S
O285 C284 1.211 . S
C286 O278 1.284 . S
C286 O287 1.273 . S
O287 C286 1.273 . S
O288 Zn279 1.977 . S
O288 C281 1.267 . S
C289 O290 1.160 . S
C289 O296 1.185 . S
O290 C289 1.160 . S
O291 Zn292 1.899 . S
O291 C299 1.284 . S
Zn292 O291 1.899 . S
Zn292 O293 2.032 . S
Zn292 O296 2.086 . S
Zn292 O301 1.977 . S
O293 Zn292 2.032 . S
O293 C297 1.278 . S
C294 O295 1.203 . S
C294 O301 1.267 . S
O295 C294 1.203 . S
O296 C289 1.185 . S
O296 Zn292 2.086 . S
C297 O293 1.278 . S
C297 O298 1.211 . S
O298 C297 1.211 . S
C299 O291 1.284 . S
C299 O300 1.273 . S
O300 C299 1.273 . S
O301 Zn292 1.977 . S
O301 C294 1.267 . S
C302 O303 1.160 . S
C302 O309 1.185 . S
O303 C302 1.160 . S
O304 Zn305 1.899 . S
O304 C312 1.284 . S
Zn305 O304 1.899 . S
Zn305 O306 2.032 . S
Zn305 O309 2.086 . S
Zn305 O314 1.977 . S
O306 Zn305 2.032 . S
O306 C310 1.278 . S
C307 O308 1.203 . S
C307 O314 1.267 . S
O308 C307 1.203 . S
O309 C302 1.185 . S
O309 Zn305 2.086 . S
C310 O306 1.278 . S
C310 O311 1.211 . S
O311 C310 1.211 . S
C312 O304 1.284 . S
C312 O313 1.273 . S
O313 C312 1.273 . S
O314 Zn305 1.977 . S
O314 C307 1.267 . S
C315 O316 1.160 . S
C315 O322 1.185 . S
O316 C315 1.160 . S
O317 Zn318 1.899 . S
O317 C325 1.284 . S
Zn318 O317 1.899 . S
Zn318 O319 2.032 . S
Zn318 O322 2.086 . S
Zn318 O327 1.977 . S
O319 Zn318 2.032 . S
O319 C323 1.278 . S
C320 O321 1.203 . S
C320 O327 1.267 . S
O321 C320 1.203 . S
O322 C315 1.185 . S
O322 Zn318 2.086 . S
C323 O319 1.278 . S
C323 O324 1.211 . S
O324 C323 1.211 . S
C325 O317 1.284 . S
C325 O326 1.273 . S
O326 C325 1.273 . S
O327 Zn318 1.977 . S
O327 C320 1.267 . S
C328 O329 1.160 . S
C328 O335 1.185 . S
O329 C328 1.160 . S
O330 Zn331 1.899 . S
O330 C338 1.284 . S
Zn331 O330 1.899 . S
Zn331 O332 2.032 . S
Zn331 O335 2.086 . S
Zn331 O340 1.977 . S
O332 Zn331 2.032 . S
O332 C336 1.278 . S
C333 O334 1.203 . S
C333 O340 1.267 . S
O334 C333 1.203 . S
O335 C328 1.185 . S
O335 Zn331 2.086 . S
C336 O332 1.278 . S
C336 O337 1.211 . S
O337 C336 1.211 . S
C338 O330 1.284 . S
C338 O339 1.273 . S
O339 C338 1.273 . S
O340 Zn331 1.977 . S
O340 C333 1.267 . S
C341 O342 1.160 . S
C341 O348 1.185 . S
O342 C341 1.160 . S
O343 Zn344 1.899 . S
O343 C351 1.284 . S
Zn344 O343 1.899 . S
Zn344 O345 2.032 . S
Zn344 O348 2.086 . S
Zn344 O353 1.977 . S
O345 Zn344 2.032 . S
O345 C349 1.278 . S
C346 O347 1.203 . S
C346 O353 1.267 . S
O347 C346 1.203 . S
O348 C341 1.185 . S
O348 Zn344 2.086 . S
C349 O345 1.278 . S
C349 O350 1.211 . S
O350 C349 1.211 . S
C351 O343 1.284 . S
C351 O352 1.273 . S
O352 C351 1.273 . S
O353 Zn344 1.977 . S
O353 C346 1.267 . S
H354 C362 0.929 . S
H355 C364 0.930 . S
H356 C366 0.930 . S
H357 C369 0.929 . S
H358 C372 0.930 . S
H359 C374 0.960 . S
H360 C374 0.960 . S
H361 C374 0.960 . S
C362 H354 0.929 . S
C362 C363 1.377 . S
C362 C364 1.384 . S
C363 C362 1.377 . S
C363 C369 1.390 . S
C364 H355 0.930 . S
C364 C362 1.384 . S
C364 C365 1.372 . S
C365 C364 1.372 . S
C365 C366 1.400 . S
C365 C370 1.490 . S
C366 H356 0.930 . S
C366 C365 1.400 . S
C366 C369 1.386 . S
H367 C383 0.930 . S
H368 C384 0.931 . S
C369 H357 0.929 . S
C369 C363 1.390 . S
C369 C366 1.386 . S
C370 C365 1.490 . S
C370 C372 1.395 . S
C370 C373 1.403 . S
H371 C377 0.930 . S
C372 H358 0.930 . S
C372 C370 1.395 . S
C372 C375 1.403 . S
C373 C370 1.403 . S
C373 C374 1.524 . S
C373 C377 1.400 . S
C374 H359 0.960 . S
C374 H360 0.960 . S
C374 H361 0.960 . S
C374 C373 1.524 . S
C375 C372 1.403 . S
C375 C376 1.392 . S
C375 C379 1.495 . S
C376 C375 1.392 . S
C376 C377 1.385 . S
C376 C378 1.478 . S
C377 H371 0.930 . S
C377 C373 1.400 . S
C377 C376 1.385 . S
C378 C376 1.478 . S
C378 C380 1.381 . S
C378 C384 1.383 . S
C379 C375 1.495 . S
C379 H385 0.959 . S
C379 H386 0.961 . S
C379 H387 0.960 . S
C380 C378 1.381 . S
C380 C381 1.394 . S
C380 H388 0.930 . S
C381 C380 1.394 . S
C381 C382 1.383 . S
C381 H389 0.929 . S
C382 C381 1.383 . S
C382 C383 1.377 . S
C383 H367 0.930 . S
C383 C382 1.377 . S
C383 C384 1.379 . S
C384 H368 0.931 . S
C384 C378 1.383 . S
C384 C383 1.379 . S
H385 C379 0.959 . S
H386 C379 0.961 . S
H387 C379 0.960 . S
H388 C380 0.930 . S
H389 C381 0.929 . S
H390 C398 0.929 . S
H391 C400 0.930 . S
H392 C402 0.930 . S
H393 C405 0.929 . S
H394 C408 0.930 . S
H395 C410 0.960 . S
H396 C410 0.960 . S
H397 C410 0.960 . S
C398 H390 0.929 . S
C398 C399 1.377 . S
C398 C400 1.384 . S
C399 C398 1.377 . S
C399 C405 1.390 . S
C400 H391 0.930 . S
C400 C398 1.384 . S
C400 C401 1.372 . S
C401 C400 1.372 . S
C401 C402 1.400 . S
C401 C406 1.490 . S
C402 H392 0.930 . S
C402 C401 1.400 . S
C402 C405 1.386 . S
H403 C419 0.930 . S
H404 C420 0.931 . S
C405 H393 0.929 . S
C405 C399 1.390 . S
C405 C402 1.386 . S
C406 C401 1.490 . S
C406 C408 1.395 . S
C406 C409 1.403 . S
H407 C413 0.930 . S
C408 H394 0.930 . S
C408 C406 1.395 . S
C408 C411 1.403 . S
C409 C406 1.403 . S
C409 C410 1.524 . S
C409 C413 1.400 . S
C410 H395 0.960 . S
C410 H396 0.960 . S
C410 H397 0.960 . S
C410 C409 1.524 . S
C411 C408 1.403 . S
C411 C412 1.392 . S
C411 C415 1.495 . S
C412 C411 1.392 . S
C412 C413 1.385 . S
C412 C414 1.478 . S
C413 H407 0.930 . S
C413 C409 1.400 . S
C413 C412 1.385 . S
C414 C412 1.478 . S
C414 C416 1.381 . S
C414 C420 1.383 . S
C415 C411 1.495 . S
C415 H421 0.959 . S
C415 H422 0.961 . S
C415 H423 0.960 . S
C416 C414 1.381 . S
C416 C417 1.394 . S
C416 H424 0.930 . S
C417 C416 1.394 . S
C417 C418 1.383 . S
C417 H425 0.929 . S
C418 C417 1.383 . S
C418 C419 1.377 . S
C419 H403 0.930 . S
C419 C418 1.377 . S
C419 C420 1.379 . S
C420 H404 0.931 . S
C420 C414 1.383 . S
C420 C419 1.379 . S
H421 C415 0.959 . S
H422 C415 0.961 . S
H423 C415 0.960 . S
H424 C416 0.930 . S
H425 C417 0.929 . S
H426 C434 0.929 . S
H427 C436 0.930 . S
H428 C438 0.930 . S
H429 C441 0.929 . S
H430 C444 0.930 . S
H431 C446 0.960 . S
H432 C446 0.960 . S
H433 C446 0.960 . S
C434 H426 0.929 . S
C434 C435 1.377 . S
C434 C436 1.384 . S
C435 C434 1.377 . S
C435 C441 1.390 . S
C436 H427 0.930 . S
C436 C434 1.384 . S
C436 C437 1.372 . S
C437 C436 1.372 . S
C437 C438 1.400 . S
C437 C442 1.490 . S
C438 H428 0.930 . S
C438 C437 1.400 . S
C438 C441 1.386 . S
H439 C455 0.930 . S
H440 C456 0.931 . S
C441 H429 0.929 . S
C441 C435 1.390 . S
C441 C438 1.386 . S
C442 C437 1.490 . S
C442 C444 1.395 . S
C442 C445 1.403 . S
H443 C449 0.930 . S
C444 H430 0.930 . S
C444 C442 1.395 . S
C444 C447 1.403 . S
C445 C442 1.403 . S
C445 C446 1.524 . S
C445 C449 1.400 . S
C446 H431 0.960 . S
C446 H432 0.960 . S
C446 H433 0.960 . S
C446 C445 1.524 . S
C447 C444 1.403 . S
C447 C448 1.392 . S
C447 C451 1.495 . S
C448 C447 1.392 . S
C448 C449 1.385 . S
C448 C450 1.478 . S
C449 H443 0.930 . S
C449 C445 1.400 . S
C449 C448 1.385 . S
C450 C448 1.478 . S
C450 C452 1.381 . S
C450 C456 1.383 . S
C451 C447 1.495 . S
C451 H457 0.959 . S
C451 H458 0.961 . S
C451 H459 0.960 . S
C452 C450 1.381 . S
C452 C453 1.394 . S
C452 H460 0.930 . S
C453 C452 1.394 . S
C453 C454 1.383 . S
C453 H461 0.929 . S
C454 C453 1.383 . S
C454 C455 1.377 . S
C455 H439 0.930 . S
C455 C454 1.377 . S
C455 C456 1.379 . S
C456 H440 0.931 . S
C456 C450 1.383 . S
C456 C455 1.379 . S
H457 C451 0.959 . S
H458 C451 0.961 . S
H459 C451 0.960 . S
H460 C452 0.930 . S
H461 C453 0.929 . S
H462 C470 0.929 . S
H463 C472 0.930 . S
H464 C474 0.930 . S
H465 C477 0.929 . S
H466 C480 0.930 . S
H467 C482 0.960 . S
H468 C482 0.960 . S
H469 C482 0.960 . S
C470 H462 0.929 . S
C470 C471 1.377 . S
C470 C472 1.384 . S
C471 C470 1.377 . S
C471 C477 1.390 . S
C472 H463 0.930 . S
C472 C470 1.384 . S
C472 C473 1.372 . S
C473 C472 1.372 . S
C473 C474 1.400 . S
C473 C478 1.490 . S
C474 H464 0.930 . S
C474 C473 1.400 . S
C474 C477 1.386 . S
H475 C491 0.930 . S
H476 C492 0.931 . S
C477 H465 0.929 . S
C477 C471 1.390 . S
C477 C474 1.386 . S
C478 C473 1.490 . S
C478 C480 1.395 . S
C478 C481 1.403 . S
H479 C485 0.930 . S
C480 H466 0.930 . S
C480 C478 1.395 . S
C480 C483 1.403 . S
C481 C478 1.403 . S
C481 C482 1.524 . S
C481 C485 1.400 . S
C482 H467 0.960 . S
C482 H468 0.960 . S
C482 H469 0.960 . S
C482 C481 1.524 . S
C483 C480 1.403 . S
C483 C484 1.392 . S
C483 C487 1.495 . S
C484 C483 1.392 . S
C484 C485 1.385 . S
C484 C486 1.478 . S
C485 H479 0.930 . S
C485 C481 1.400 . S
C485 C484 1.385 . S
C486 C484 1.478 . S
C486 C488 1.381 . S
C486 C492 1.383 . S
C487 C483 1.495 . S
C487 H493 0.959 . S
C487 H494 0.961 . S
C487 H495 0.960 . S
C488 C486 1.381 . S
C488 C489 1.394 . S
C488 H496 0.930 . S
C489 C488 1.394 . S
C489 C490 1.383 . S
C489 H497 0.929 . S
C490 C489 1.383 . S
C490 C491 1.377 . S
C491 H475 0.930 . S
C491 C490 1.377 . S
C491 C492 1.379 . S
C492 H476 0.931 . S
C492 C486 1.383 . S
C492 C491 1.379 . S
H493 C487 0.959 . S
H494 C487 0.961 . S
H495 C487 0.960 . S
H496 C488 0.930 . S
H497 C489 0.929 . S
H498 C506 0.929 . S
H499 C508 0.930 . S
H500 C510 0.930 . S
H501 C513 0.929 . S
H502 C516 0.930 . S
H503 C518 0.960 . S
H504 C518 0.960 . S
H505 C518 0.960 . S
C506 H498 0.929 . S
C506 C507 1.377 . S
C506 C508 1.384 . S
C507 C506 1.377 . S
C507 C513 1.390 . S
C508 H499 0.930 . S
C508 C506 1.384 . S
C508 C509 1.372 . S
C509 C508 1.372 . S
C509 C510 1.400 . S
C509 C514 1.490 . S
C510 H500 0.930 . S
C510 C509 1.400 . S
C510 C513 1.386 . S
H511 C527 0.930 . S
H512 C528 0.931 . S
C513 H501 0.929 . S
C513 C507 1.390 . S
C513 C510 1.386 . S
C514 C509 1.490 . S
C514 C516 1.395 . S
C514 C517 1.403 . S
H515 C521 0.930 . S
C516 H502 0.930 . S
C516 C514 1.395 . S
C516 C519 1.403 . S
C517 C514 1.403 . S
C517 C518 1.524 . S
C517 C521 1.400 . S
C518 H503 0.960 . S
C518 H504 0.960 . S
C518 H505 0.960 . S
C518 C517 1.524 . S
C519 C516 1.403 . S
C519 C520 1.392 . S
C519 C523 1.495 . S
C520 C519 1.392 . S
C520 C521 1.385 . S
C520 C522 1.478 . S
C521 H515 0.930 . S
C521 C517 1.400 . S
C521 C520 1.385 . S
C522 C520 1.478 . S
C522 C524 1.381 . S
C522 C528 1.383 . S
C523 C519 1.495 . S
C523 H529 0.959 . S
C523 H530 0.961 . S
C523 H531 0.960 . S
C524 C522 1.381 . S
C524 C525 1.394 . S
C524 H532 0.930 . S
C525 C524 1.394 . S
C525 C526 1.383 . S
C525 H533 0.929 . S
C526 C525 1.383 . S
C526 C527 1.377 . S
C527 H511 0.930 . S
C527 C526 1.377 . S
C527 C528 1.379 . S
C528 H512 0.931 . S
C528 C522 1.383 . S
C528 C527 1.379 . S
H529 C523 0.959 . S
H530 C523 0.961 . S
H531 C523 0.960 . S
H532 C524 0.930 . S
H533 C525 0.929 . S
H534 C542 0.929 . S
H535 C544 0.930 . S
H536 C546 0.930 . S
H537 C549 0.929 . S
H538 C552 0.930 . S
H539 C554 0.960 . S
H540 C554 0.960 . S
H541 C554 0.960 . S
C542 H534 0.929 . S
C542 C543 1.377 . S
C542 C544 1.384 . S
C543 C542 1.377 . S
C543 C549 1.390 . S
C544 H535 0.930 . S
C544 C542 1.384 . S
C544 C545 1.372 . S
C545 C544 1.372 . S
C545 C546 1.400 . S
C545 C550 1.490 . S
C546 H536 0.930 . S
C546 C545 1.400 . S
C546 C549 1.386 . S
H547 C563 0.930 . S
H548 C564 0.931 . S
C549 H537 0.929 . S
C549 C543 1.390 . S
C549 C546 1.386 . S
C550 C545 1.490 . S
C550 C552 1.395 . S
C550 C553 1.403 . S
H551 C557 0.930 . S
C552 H538 0.930 . S
C552 C550 1.395 . S
C552 C555 1.403 . S
C553 C550 1.403 . S
C553 C554 1.524 . S
C553 C557 1.400 . S
C554 H539 0.960 . S
C554 H540 0.960 . S
C554 H541 0.960 . S
C554 C553 1.524 . S
C555 C552 1.403 . S
C555 C556 1.392 . S
C555 C559 1.495 . S
C556 C555 1.392 . S
C556 C557 1.385 . S
C556 C558 1.478 . S
C557 H551 0.930 . S
C557 C553 1.400 . S
C557 C556 1.385 . S
C558 C556 1.478 . S
C558 C560 1.381 . S
C558 C564 1.383 . S
C559 C555 1.495 . S
C559 H565 0.959 . S
C559 H566 0.961 . S
C559 H567 0.960 . S
C560 C558 1.381 . S
C560 C561 1.394 . S
C560 H568 0.930 . S
C561 C560 1.394 . S
C561 C562 1.383 . S
C561 H569 0.929 . S
C562 C561 1.383 . S
C562 C563 1.377 . S
C563 H547 0.930 . S
C563 C562 1.377 . S
C563 C564 1.379 . S
C564 H548 0.931 . S
C564 C558 1.383 . S
C564 C563 1.379 . S
H565 C559 0.959 . S
H566 C559 0.961 . S
H567 C559 0.960 . S
H568 C560 0.930 . S
H569 C561 0.929 . S
H570 C578 0.929 . S
H571 C580 0.930 . S
H572 C582 0.930 . S
H573 C585 0.929 . S
H574 C588 0.930 . S
H575 C590 0.960 . S
H576 C590 0.960 . S
H577 C590 0.960 . S
C578 H570 0.929 . S
C578 C579 1.377 . S
C578 C580 1.384 . S
C579 C578 1.377 . S
C579 C585 1.390 . S
C580 H571 0.930 . S
C580 C578 1.384 . S
C580 C581 1.372 . S
C581 C580 1.372 . S
C581 C582 1.400 . S
C581 C586 1.490 . S
C582 H572 0.930 . S
C582 C581 1.400 . S
C582 C585 1.386 . S
H583 C599 0.930 . S
H584 C600 0.931 . S
C585 H573 0.929 . S
C585 C579 1.390 . S
C585 C582 1.386 . S
C586 C581 1.490 . S
C586 C588 1.395 . S
C586 C589 1.403 . S
H587 C593 0.930 . S
C588 H574 0.930 . S
C588 C586 1.395 . S
C588 C591 1.403 . S
C589 C586 1.403 . S
C589 C590 1.524 . S
C589 C593 1.400 . S
C590 H575 0.960 . S
C590 H576 0.960 . S
C590 H577 0.960 . S
C590 C589 1.524 . S
C591 C588 1.403 . S
C591 C592 1.392 . S
C591 C595 1.495 . S
C592 C591 1.392 . S
C592 C593 1.385 . S
C592 C594 1.478 . S
C593 H587 0.930 . S
C593 C589 1.400 . S
C593 C592 1.385 . S
C594 C592 1.478 . S
C594 C596 1.381 . S
C594 C600 1.383 . S
C595 C591 1.495 . S
C595 H601 0.959 . S
C595 H602 0.961 . S
C595 H603 0.960 . S
C596 C594 1.381 . S
C596 C597 1.394 . S
C596 H604 0.930 . S
C597 C596 1.394 . S
C597 C598 1.383 . S
C597 H605 0.929 . S
C598 C597 1.383 . S
C598 C599 1.377 . S
C599 H583 0.930 . S
C599 C598 1.377 . S
C599 C600 1.379 . S
C600 H584 0.931 . S
C600 C594 1.383 . S
C600 C599 1.379 . S
H601 C595 0.959 . S
H602 C595 0.961 . S
H603 C595 0.960 . S
H604 C596 0.930 . S
H605 C597 0.929 . S
H606 C614 0.929 . S
H607 C616 0.930 . S
H608 C618 0.930 . S
H609 C621 0.929 . S
H610 C624 0.930 . S
H611 C626 0.960 . S
H612 C626 0.960 . S
H613 C626 0.960 . S
C614 H606 0.929 . S
C614 C615 1.377 . S
C614 C616 1.384 . S
C615 C614 1.377 . S
C615 C621 1.390 . S
C616 H607 0.930 . S
C616 C614 1.384 . S
C616 C617 1.372 . S
C617 C616 1.372 . S
C617 C618 1.400 . S
C617 C622 1.490 . S
C618 H608 0.930 . S
C618 C617 1.400 . S
C618 C621 1.386 . S
H619 C635 0.930 . S
H620 C636 0.931 . S
C621 H609 0.929 . S
C621 C615 1.390 . S
C621 C618 1.386 . S
C622 C617 1.490 . S
C622 C624 1.395 . S
C622 C625 1.403 . S
H623 C629 0.930 . S
C624 H610 0.930 . S
C624 C622 1.395 . S
C624 C627 1.403 . S
C625 C622 1.403 . S
C625 C626 1.524 . S
C625 C629 1.400 . S
C626 H611 0.960 . S
C626 H612 0.960 . S
C626 H613 0.960 . S
C626 C625 1.524 . S
C627 C624 1.403 . S
C627 C628 1.392 . S
C627 C631 1.495 . S
C628 C627 1.392 . S
C628 C629 1.385 . S
C628 C630 1.478 . S
C629 H623 0.930 . S
C629 C625 1.400 . S
C629 C628 1.385 . S
C630 C628 1.478 . S
C630 C632 1.381 . S
C630 C636 1.383 . S
C631 C627 1.495 . S
C631 H637 0.959 . S
C631 H638 0.961 . S
C631 H639 0.960 . S
C632 C630 1.381 . S
C632 C633 1.394 . S
C632 H640 0.930 . S
C633 C632 1.394 . S
C633 C634 1.383 . S
C633 H641 0.929 . S
C634 C633 1.383 . S
C634 C635 1.377 . S
C635 H619 0.930 . S
C635 C634 1.377 . S
C635 C636 1.379 . S
C636 H620 0.931 . S
C636 C630 1.383 . S
C636 C635 1.379 . S
H637 C631 0.959 . S
H638 C631 0.961 . S
H639 C631 0.960 . S
H640 C632 0.930 . S
H641 C633 0.929 . S
H642 C650 0.929 . S
H643 C652 0.930 . S
H644 C654 0.930 . S
H645 C657 0.929 . S
H646 C660 0.930 . S
H647 C662 0.960 . S
H648 C662 0.960 . S
H649 C662 0.960 . S
C650 H642 0.929 . S
C650 C651 1.377 . S
C650 C652 1.384 . S
C651 C650 1.377 . S
C651 C657 1.390 . S
C652 H643 0.930 . S
C652 C650 1.384 . S
C652 C653 1.372 . S
C653 C652 1.372 . S
C653 C654 1.400 . S
C653 C658 1.490 . S
C654 H644 0.930 . S
C654 C653 1.400 . S
C654 C657 1.386 . S
H655 C671 0.930 . S
H656 C672 0.931 . S
C657 H645 0.929 . S
C657 C651 1.390 . S
C657 C654 1.386 . S
C658 C653 1.490 . S
C658 C660 1.395 . S
C658 C661 1.403 . S
H659 C665 0.930 . S
C660 H646 0.930 . S
C660 C658 1.395 . S
C660 C663 1.403 . S
C661 C658 1.403 . S
C661 C662 1.524 . S
C661 C665 1.400 . S
C662 H647 0.960 . S
C662 H648 0.960 . S
C662 H649 0.960 . S
C662 C661 1.524 . S
C663 C660 1.403 . S
C663 C664 1.392 . S
C663 C667 1.495 . S
C664 C663 1.392 . S
C664 C665 1.385 . S
C664 C666 1.478 . S
C665 H659 0.930 . S
C665 C661 1.400 . S
C665 C664 1.385 . S
C666 C664 1.478 . S
C666 C668 1.381 . S
C666 C672 1.383 . S
C667 C663 1.495 . S
C667 H673 0.959 . S
C667 H674 0.961 . S
C667 H675 0.960 . S
C668 C666 1.381 . S
C668 C669 1.394 . S
C668 H676 0.930 . S
C669 C668 1.394 . S
C669 C670 1.383 . S
C669 H677 0.929 . S
C670 C669 1.383 . S
C670 C671 1.377 . S
C671 H655 0.930 . S
C671 C670 1.377 . S
C671 C672 1.379 . S
C672 H656 0.931 . S
C672 C666 1.383 . S
C672 C671 1.379 . S
H673 C667 0.959 . S
H674 C667 0.961 . S
H675 C667 0.960 . S
H676 C668 0.930 . S
H677 C669 0.929 . S
H678 C686 0.929 . S
H679 C688 0.930 . S
H680 C690 0.930 . S
H681 C693 0.929 . S
H682 C696 0.930 . S
H683 C698 0.960 . S
H684 C698 0.960 . S
H685 C698 0.960 . S
C686 H678 0.929 . S
C686 C687 1.377 . S
C686 C688 1.384 . S
C687 C686 1.377 . S
C687 C693 1.390 . S
C688 H679 0.930 . S
C688 C686 1.384 . S
C688 C689 1.372 . S
C689 C688 1.372 . S
C689 C690 1.400 . S
C689 C694 1.490 . S
C690 H680 0.930 . S
C690 C689 1.400 . S
C690 C693 1.386 . S
H691 C707 0.930 . S
H692 C708 0.931 . S
C693 H681 0.929 . S
C693 C687 1.390 . S
C693 C690 1.386 . S
C694 C689 1.490 . S
C694 C696 1.395 . S
C694 C697 1.403 . S
H695 C701 0.930 . S
C696 H682 0.930 . S
C696 C694 1.395 . S
C696 C699 1.403 . S
C697 C694 1.403 . S
C697 C698 1.524 . S
C697 C701 1.400 . S
C698 H683 0.960 . S
C698 H684 0.960 . S
C698 H685 0.960 . S
C698 C697 1.524 . S
C699 C696 1.403 . S
C699 C700 1.392 . S
C699 C703 1.495 . S
C700 C699 1.392 . S
C700 C701 1.385 . S
C700 C702 1.478 . S
C701 H695 0.930 . S
C701 C697 1.400 . S
C701 C700 1.385 . S
C702 C700 1.478 . S
C702 C704 1.381 . S
C702 C708 1.383 . S
C703 C699 1.495 . S
C703 H709 0.959 . S
C703 H710 0.961 . S
C703 H711 0.960 . S
C704 C702 1.381 . S
C704 C705 1.394 . S
C704 H712 0.930 . S
C705 C704 1.394 . S
C705 C706 1.383 . S
C705 H713 0.929 . S
C706 C705 1.383 . S
C706 C707 1.377 . S
C707 H691 0.930 . S
C707 C706 1.377 . S
C707 C708 1.379 . S
C708 H692 0.931 . S
C708 C702 1.383 . S
C708 C707 1.379 . S
H709 C703 0.959 . S
H710 C703 0.961 . S
H711 C703 0.960 . S
H712 C704 0.930 . S
H713 C705 0.929 . S
H714 C722 0.929 . S
H715 C724 0.930 . S
H716 C726 0.930 . S
H717 C729 0.929 . S
H718 C732 0.930 . S
H719 C734 0.960 . S
H720 C734 0.960 . S
H721 C734 0.960 . S
C722 H714 0.929 . S
C722 C723 1.377 . S
C722 C724 1.384 . S
C723 C722 1.377 . S
C723 C729 1.390 . S
C724 H715 0.930 . S
C724 C722 1.384 . S
C724 C725 1.372 . S
C725 C724 1.372 . S
C725 C726 1.400 . S
C725 C730 1.490 . S
C726 H716 0.930 . S
C726 C725 1.400 . S
C726 C729 1.386 . S
H727 C743 0.930 . S
H728 C744 0.931 . S
C729 H717 0.929 . S
C729 C723 1.390 . S
C729 C726 1.386 . S
C730 C725 1.490 . S
C730 C732 1.395 . S
C730 C733 1.403 . S
H731 C737 0.930 . S
C732 H718 0.930 . S
C732 C730 1.395 . S
C732 C735 1.403 . S
C733 C730 1.403 . S
C733 C734 1.524 . S
C733 C737 1.400 . S
C734 H719 0.960 . S
C734 H720 0.960 . S
C734 H721 0.960 . S
C734 C733 1.524 . S
C735 C732 1.403 . S
C735 C736 1.392 . S
C735 C739 1.495 . S
C736 C735 1.392 . S
C736 C737 1.385 . S
C736 C738 1.478 . S
C737 H731 0.930 . S
C737 C733 1.400 . S
C737 C736 1.385 . S
C738 C736 1.478 . S
C738 C740 1.381 . S
C738 C744 1.383 . S
C739 C735 1.495 . S
C739 H745 0.959 . S
C739 H746 0.961 . S
C739 H747 0.960 . S
C740 C738 1.381 . S
C740 C741 1.394 . S
C740 H748 0.930 . S
C741 C740 1.394 . S
C741 C742 1.383 . S
C741 H749 0.929 . S
C742 C741 1.383 . S
C742 C743 1.377 . S
C743 H727 0.930 . S
C743 C742 1.377 . S
C743 C744 1.379 . S
C744 H728 0.931 . S
C744 C738 1.383 . S
C744 C743 1.379 . S
H745 C739 0.959 . S
H746 C739 0.961 . S
H747 C739 0.960 . S
H748 C740 0.930 . S
H749 C741 0.929 . S
H750 C758 0.929 . S
H751 C760 0.930 . S
H752 C762 0.930 . S
H753 C765 0.929 . S
H754 C768 0.930 . S
H755 C770 0.960 . S
H756 C770 0.960 . S
H757 C770 0.960 . S
C758 H750 0.929 . S
C758 C759 1.377 . S
C758 C760 1.384 . S
C759 C758 1.377 . S
C759 C765 1.390 . S
C760 H751 0.930 . S
C760 C758 1.384 . S
C760 C761 1.372 . S
C761 C760 1.372 . S
C761 C762 1.400 . S
C761 C766 1.490 . S
C762 H752 0.930 . S
C762 C761 1.400 . S
C762 C765 1.386 . S
H763 C779 0.930 . S
H764 C780 0.931 . S
C765 H753 0.929 . S
C765 C759 1.390 . S
C765 C762 1.386 . S
C766 C761 1.490 . S
C766 C768 1.395 . S
C766 C769 1.403 . S
H767 C773 0.930 . S
C768 H754 0.930 . S
C768 C766 1.395 . S
C768 C771 1.403 . S
C769 C766 1.403 . S
C769 C770 1.524 . S
C769 C773 1.400 . S
C770 H755 0.960 . S
C770 H756 0.960 . S
C770 H757 0.960 . S
C770 C769 1.524 . S
C771 C768 1.403 . S
C771 C772 1.392 . S
C771 C775 1.495 . S
C772 C771 1.392 . S
C772 C773 1.385 . S
C772 C774 1.478 . S
C773 H767 0.930 . S
C773 C769 1.400 . S
C773 C772 1.385 . S
C774 C772 1.478 . S
C774 C776 1.381 . S
C774 C780 1.383 . S
C775 C771 1.495 . S
C775 H781 0.959 . S
C775 H782 0.961 . S
C775 H783 0.960 . S
C776 C774 1.381 . S
C776 C777 1.394 . S
C776 H784 0.930 . S
C777 C776 1.394 . S
C777 C778 1.383 . S
C777 H785 0.929 . S
C778 C777 1.383 . S
C778 C779 1.377 . S
C779 H763 0.930 . S
C779 C778 1.377 . S
C779 C780 1.379 . S
C780 H764 0.931 . S
C780 C774 1.383 . S
C780 C779 1.379 . S
H781 C775 0.959 . S
H782 C775 0.961 . S
H783 C775 0.960 . S
H784 C776 0.930 . S
H785 C777 0.929 . S
H786 C794 0.929 . S
H787 C796 0.930 . S
H788 C798 0.930 . S
H789 C801 0.929 . S
H790 C804 0.930 . S
H791 C806 0.960 . S
H792 C806 0.960 . S
H793 C806 0.960 . S
C794 H786 0.929 . S
C794 C795 1.377 . S
C794 C796 1.384 . S
C795 C794 1.377 . S
C795 C801 1.390 . S
C796 H787 0.930 . S
C796 C794 1.384 . S
C796 C797 1.372 . S
C797 C796 1.372 . S
C797 C798 1.400 . S
C797 C802 1.490 . S
C798 H788 0.930 . S
C798 C797 1.400 . S
C798 C801 1.386 . S
H799 C815 0.930 . S
H800 C816 0.931 . S
C801 H789 0.929 . S
C801 C795 1.390 . S
C801 C798 1.386 . S
C802 C797 1.490 . S
C802 C804 1.395 . S
C802 C805 1.403 . S
H803 C809 0.930 . S
C804 H790 0.930 . S
C804 C802 1.395 . S
C804 C807 1.403 . S
C805 C802 1.403 . S
C805 C806 1.524 . S
C805 C809 1.400 . S
C806 H791 0.960 . S
C806 H792 0.960 . S
C806 H793 0.960 . S
C806 C805 1.524 . S
C807 C804 1.403 . S
C807 C808 1.392 . S
C807 C811 1.495 . S
C808 C807 1.392 . S
C808 C809 1.385 . S
C808 C810 1.478 . S
C809 H803 0.930 . S
C809 C805 1.400 . S
C809 C808 1.385 . S
C810 C808 1.478 . S
C810 C812 1.381 . S
C810 C816 1.383 . S
C811 C807 1.495 . S
C811 H817 0.959 . S
C811 H818 0.961 . S
C811 H819 0.960 . S
C812 C810 1.381 . S
C812 C813 1.394 . S
C812 H820 0.930 . S
C813 C812 1.394 . S
C813 C814 1.383 . S
C813 H821 0.929 . S
C814 C813 1.383 . S
C814 C815 1.377 . S
C815 H799 0.930 . S
C815 C814 1.377 . S
C815 C816 1.379 . S
C816 H800 0.931 . S
C816 C810 1.383 . S
C816 C815 1.379 . S
H817 C811 0.959 . S
H818 C811 0.961 . S
H819 C811 0.960 . S
H820 C812 0.930 . S
H821 C813 0.929 . S
H822 C830 0.929 . S
H823 C832 0.930 . S
H824 C834 0.930 . S
H825 C837 0.929 . S
H826 C840 0.930 . S
H827 C842 0.960 . S
H828 C842 0.960 . S
H829 C842 0.960 . S
C830 H822 0.929 . S
C830 C831 1.377 . S
C830 C832 1.384 . S
C831 C830 1.377 . S
C831 C837 1.390 . S
C832 H823 0.930 . S
C832 C830 1.384 . S
C832 C833 1.372 . S
C833 C832 1.372 . S
C833 C834 1.400 . S
C833 C838 1.490 . S
C834 H824 0.930 . S
C834 C833 1.400 . S
C834 C837 1.386 . S
H835 C851 0.930 . S
H836 C852 0.931 . S
C837 H825 0.929 . S
C837 C831 1.390 . S
C837 C834 1.386 . S
C838 C833 1.490 . S
C838 C840 1.395 . S
C838 C841 1.403 . S
H839 C845 0.930 . S
C840 H826 0.930 . S
C840 C838 1.395 . S
C840 C843 1.403 . S
C841 C838 1.403 . S
C841 C842 1.524 . S
C841 C845 1.400 . S
C842 H827 0.960 . S
C842 H828 0.960 . S
C842 H829 0.960 . S
C842 C841 1.524 . S
C843 C840 1.403 . S
C843 C844 1.392 . S
C843 C847 1.495 . S
C844 C843 1.392 . S
C844 C845 1.385 . S
C844 C846 1.478 . S
C845 H839 0.930 . S
C845 C841 1.400 . S
C845 C844 1.385 . S
C846 C844 1.478 . S
C846 C848 1.381 . S
C846 C852 1.383 . S
C847 C843 1.495 . S
C847 H853 0.959 . S
C847 H854 0.961 . S
C847 H855 0.960 . S
C848 C846 1.381 . S
C848 C849 1.394 . S
C848 H856 0.930 . S
C849 C848 1.394 . S
C849 C850 1.383 . S
C849 H857 0.929 . S
C850 C849 1.383 . S
C850 C851 1.377 . S
C851 H835 0.930 . S
C851 C850 1.377 . S
C851 C852 1.379 . S
C852 H836 0.931 . S
C852 C846 1.383 . S
C852 C851 1.379 . S
H853 C847 0.959 . S
H854 C847 0.961 . S
H855 C847 0.960 . S
H856 C848 0.930 . S
H857 C849 0.929 . S
H858 C866 0.929 . S
H859 C868 0.930 . S
H860 C870 0.930 . S
H861 C873 0.929 . S
H862 C876 0.930 . S
H863 C878 0.960 . S
H864 C878 0.960 . S
H865 C878 0.960 . S
C866 H858 0.929 . S
C866 C867 1.377 . S
C866 C868 1.384 . S
C867 C866 1.377 . S
C867 C873 1.390 . S
C868 H859 0.930 . S
C868 C866 1.384 . S
C868 C869 1.372 . S
C869 C868 1.372 . S
C869 C870 1.400 . S
C869 C874 1.490 . S
C870 H860 0.930 . S
C870 C869 1.400 . S
C870 C873 1.386 . S
H871 C887 0.930 . S
H872 C888 0.931 . S
C873 H861 0.929 . S
C873 C867 1.390 . S
C873 C870 1.386 . S
C874 C869 1.490 . S
C874 C876 1.395 . S
C874 C877 1.403 . S
H875 C881 0.930 . S
C876 H862 0.930 . S
C876 C874 1.395 . S
C876 C879 1.403 . S
C877 C874 1.403 . S
C877 C878 1.524 . S
C877 C881 1.400 . S
C878 H863 0.960 . S
C878 H864 0.960 . S
C878 H865 0.960 . S
C878 C877 1.524 . S
C879 C876 1.403 . S
C879 C880 1.392 . S
C879 C883 1.495 . S
C880 C879 1.392 . S
C880 C881 1.385 . S
C880 C882 1.478 . S
C881 H875 0.930 . S
C881 C877 1.400 . S
C881 C880 1.385 . S
C882 C880 1.478 . S
C882 C884 1.381 . S
C882 C888 1.383 . S
C883 C879 1.495 . S
C883 H889 0.959 . S
C883 H890 0.961 . S
C883 H891 0.960 . S
C884 C882 1.381 . S
C884 C885 1.394 . S
C884 H892 0.930 . S
C885 C884 1.394 . S
C885 C886 1.383 . S
C885 H893 0.929 . S
C886 C885 1.383 . S
C886 C887 1.377 . S
C887 H871 0.930 . S
C887 C886 1.377 . S
C887 C888 1.379 . S
C888 H872 0.931 . S
C888 C882 1.383 . S
C888 C887 1.379 . S
H889 C883 0.959 . S
H890 C883 0.961 . S
H891 C883 0.960 . S
H892 C884 0.930 . S
H893 C885 0.929 . S
H894 C902 0.929 . S
H895 C904 0.930 . S
H896 C906 0.930 . S
H897 C909 0.929 . S
H898 C912 0.930 . S
H899 C914 0.960 . S
H900 C914 0.960 . S
H901 C914 0.960 . S
C902 H894 0.929 . S
C902 C903 1.377 . S
C902 C904 1.384 . S
C903 C902 1.377 . S
C903 C909 1.390 . S
C904 H895 0.930 . S
C904 C902 1.384 . S
C904 C905 1.372 . S
C905 C904 1.372 . S
C905 C906 1.400 . S
C905 C910 1.490 . S
C906 H896 0.930 . S
C906 C905 1.400 . S
C906 C909 1.386 . S
H907 C923 0.930 . S
H908 C924 0.931 . S
C909 H897 0.929 . S
C909 C903 1.390 . S
C909 C906 1.386 . S
C910 C905 1.490 . S
C910 C912 1.395 . S
C910 C913 1.403 . S
H911 C917 0.930 . S
C912 H898 0.930 . S
C912 C910 1.395 . S
C912 C915 1.403 . S
C913 C910 1.403 . S
C913 C914 1.524 . S
C913 C917 1.400 . S
C914 H899 0.960 . S
C914 H900 0.960 . S
C914 H901 0.960 . S
C914 C913 1.524 . S
C915 C912 1.403 . S
C915 C916 1.392 . S
C915 C919 1.495 . S
C916 C915 1.392 . S
C916 C917 1.385 . S
C916 C918 1.478 . S
C917 H911 0.930 . S
C917 C913 1.400 . S
C917 C916 1.385 . S
C918 C916 1.478 . S
C918 C920 1.381 1_556 S
C918 C924 1.383 . S
C919 C915 1.495 . S
C919 H925 0.959 . S
C919 H926 0.961 . S
C919 H927 0.960 . S
C920 C918 1.381 1_554 S
C920 C921 1.394 . S
C920 H928 0.930 . S
C921 C920 1.394 . S
C921 C922 1.383 . S
C921 H929 0.929 . S
C922 C921 1.383 . S
C922 C923 1.377 . S
C923 H907 0.930 . S
C923 C922 1.377 . S
C923 C924 1.379 1_554 S
C924 H908 0.931 . S
C924 C918 1.383 . S
C924 C923 1.379 1_556 S
H925 C919 0.959 . S
H926 C919 0.961 . S
H927 C919 0.960 . S
H928 C920 0.930 . S
H929 C921 0.929 . S
H930 C938 0.929 . S
H931 C940 0.930 . S
H932 C942 0.930 . S
H933 C945 0.929 . S
H934 C948 0.930 . S
H935 C950 0.960 . S
H936 C950 0.960 . S
H937 C950 0.960 . S
C938 H930 0.929 . S
C938 C939 1.377 . S
C938 C940 1.384 . S
C939 C938 1.377 . S
C939 C945 1.390 . S
C940 H931 0.930 . S
C940 C938 1.384 . S
C940 C941 1.372 . S
C941 C940 1.372 . S
C941 C942 1.400 . S
C941 C946 1.490 . S
C942 H932 0.930 . S
C942 C941 1.400 . S
C942 C945 1.386 . S
H943 C959 0.930 . S
H944 C960 0.931 . S
C945 H933 0.929 . S
C945 C939 1.390 . S
C945 C942 1.386 . S
C946 C941 1.490 . S
C946 C948 1.395 . S
C946 C949 1.403 . S
H947 C953 0.930 . S
C948 H934 0.930 . S
C948 C946 1.395 . S
C948 C951 1.403 . S
C949 C946 1.403 . S
C949 C950 1.524 . S
C949 C953 1.400 . S
C950 H935 0.960 . S
C950 H936 0.960 . S
C950 H937 0.960 . S
C950 C949 1.524 . S
C951 C948 1.403 . S
C951 C952 1.392 . S
C951 C955 1.495 . S
C952 C951 1.392 . S
C952 C953 1.385 . S
C952 C954 1.478 . S
C953 H947 0.930 . S
C953 C949 1.400 . S
C953 C952 1.385 . S
C954 C952 1.478 . S
C954 C956 1.381 . S
C954 C960 1.383 . S
C955 C951 1.495 . S
C955 H961 0.959 . S
C955 H962 0.961 . S
C955 H963 0.960 . S
C956 C954 1.381 . S
C956 C957 1.394 . S
C956 H964 0.930 . S
C957 C956 1.394 . S
C957 C958 1.383 . S
C957 H965 0.929 . S
C958 C957 1.383 . S
C958 C959 1.377 . S
C959 H943 0.930 . S
C959 C958 1.377 . S
C959 C960 1.379 . S
C960 H944 0.931 . S
C960 C954 1.383 . S
C960 C959 1.379 . S
H961 C955 0.959 . S
H962 C955 0.961 . S
H963 C955 0.960 . S
H964 C956 0.930 . S
H965 C957 0.929 . S
H966 C974 0.929 . S
H967 C976 0.930 . S
H968 C978 0.930 . S
H969 C981 0.929 . S
H970 C984 0.930 . S
H971 C986 0.960 . S
H972 C986 0.960 . S
H973 C986 0.960 . S
C974 H966 0.929 . S
C974 C975 1.377 . S
C974 C976 1.384 . S
C975 C974 1.377 . S
C975 C981 1.390 . S
C976 H967 0.930 . S
C976 C974 1.384 . S
C976 C977 1.372 . S
C977 C976 1.372 . S
C977 C978 1.400 . S
C977 C982 1.490 . S
C978 H968 0.930 . S
C978 C977 1.400 . S
C978 C981 1.386 . S
H979 C995 0.930 . S
H980 C996 0.931 . S
C981 H969 0.929 . S
C981 C975 1.390 . S
C981 C978 1.386 . S
C982 C977 1.490 . S
C982 C984 1.395 . S
C982 C985 1.403 . S
H983 C989 0.930 . S
C984 H970 0.930 . S
C984 C982 1.395 . S
C984 C987 1.403 . S
C985 C982 1.403 . S
C985 C986 1.524 . S
C985 C989 1.400 . S
C986 H971 0.960 . S
C986 H972 0.960 . S
C986 H973 0.960 . S
C986 C985 1.524 . S
C987 C984 1.403 . S
C987 C988 1.392 . S
C987 C991 1.495 . S
C988 C987 1.392 . S
C988 C989 1.385 . S
C988 C990 1.478 . S
C989 H983 0.930 . S
C989 C985 1.400 . S
C989 C988 1.385 . S
C990 C988 1.478 . S
C990 C992 1.381 . S
C990 C996 1.383 . S
C991 C987 1.495 . S
C991 H997 0.959 . S
C991 H998 0.961 . S
C991 H999 0.960 . S
C992 C990 1.381 . S
C992 C993 1.394 . S
C992 H1000 0.930 . S
C993 C992 1.394 . S
C993 C994 1.383 . S
C993 H1001 0.929 . S
C994 C993 1.383 . S
C994 C995 1.377 . S
C995 H979 0.930 . S
C995 C994 1.377 . S
C995 C996 1.379 . S
C996 H980 0.931 . S
C996 C990 1.383 . S
C996 C995 1.379 . S
H997 C991 0.959 . S
H998 C991 0.961 . S
H999 C991 0.960 . S
H1000 C992 0.930 . S
H1001 C993 0.929 . S
H1002 C1010 0.929 . S
H1003 C1012 0.930 . S
H1004 C1014 0.930 . S
H1005 C1017 0.929 . S
H1006 C1020 0.930 . S
H1007 C1022 0.960 . S
H1008 C1022 0.960 . S
H1009 C1022 0.960 . S
C1010 H1002 0.929 . S
C1010 C1011 1.377 . S
C1010 C1012 1.384 . S
C1011 C1010 1.377 . S
C1011 C1017 1.390 . S
C1012 H1003 0.930 . S
C1012 C1010 1.384 . S
C1012 C1013 1.372 . S
C1013 C1012 1.372 . S
C1013 C1014 1.400 . S
C1013 C1018 1.490 . S
C1014 H1004 0.930 . S
C1014 C1013 1.400 . S
C1014 C1017 1.386 . S
H1015 C1031 0.930 . S
H1016 C1032 0.931 . S
C1017 H1005 0.929 . S
C1017 C1011 1.390 . S
C1017 C1014 1.386 . S
C1018 C1013 1.490 . S
C1018 C1020 1.395 . S
C1018 C1021 1.403 . S
H1019 C1025 0.930 . S
C1020 H1006 0.930 . S
C1020 C1018 1.395 . S
C1020 C1023 1.403 . S
C1021 C1018 1.403 . S
C1021 C1022 1.524 . S
C1021 C1025 1.400 . S
C1022 H1007 0.960 . S
C1022 H1008 0.960 . S
C1022 H1009 0.960 . S
C1022 C1021 1.524 . S
C1023 C1020 1.403 . S
C1023 C1024 1.392 . S
C1023 C1027 1.495 . S
C1024 C1023 1.392 . S
C1024 C1025 1.385 . S
C1024 C1026 1.478 . S
C1025 H1019 0.930 . S
C1025 C1021 1.400 . S
C1025 C1024 1.385 . S
C1026 C1024 1.478 . S
C1026 C1028 1.381 . S
C1026 C1032 1.383 . S
C1027 C1023 1.495 . S
C1027 H1033 0.959 . S
C1027 H1034 0.961 . S
C1027 H1035 0.960 . S
C1028 C1026 1.381 . S
C1028 C1029 1.394 . S
C1028 H1036 0.930 . S
C1029 C1028 1.394 . S
C1029 C1030 1.383 . S
C1029 H1037 0.929 . S
C1030 C1029 1.383 . S
C1030 C1031 1.377 . S
C1031 H1015 0.930 . S
C1031 C1030 1.377 . S
C1031 C1032 1.379 . S
C1032 H1016 0.931 . S
C1032 C1026 1.383 . S
C1032 C1031 1.379 . S
H1033 C1027 0.959 . S
H1034 C1027 0.961 . S
H1035 C1027 0.960 . S
H1036 C1028 0.930 . S
H1037 C1029 0.929 . S
H1038 C1046 0.929 . S
H1039 C1048 0.930 . S
H1040 C1050 0.930 . S
H1041 C1053 0.929 . S
H1042 C1056 0.930 . S
H1043 C1058 0.960 . S
H1044 C1058 0.960 . S
H1045 C1058 0.960 . S
C1046 H1038 0.929 . S
C1046 C1047 1.377 . S
C1046 C1048 1.384 . S
C1047 C1046 1.377 . S
C1047 C1053 1.390 . S
C1048 H1039 0.930 . S
C1048 C1046 1.384 . S
C1048 C1049 1.372 . S
C1049 C1048 1.372 . S
C1049 C1050 1.400 . S
C1049 C1054 1.490 . S
C1050 H1040 0.930 . S
C1050 C1049 1.400 . S
C1050 C1053 1.386 . S
H1051 C1067 0.930 . S
H1052 C1068 0.931 . S
C1053 H1041 0.929 . S
C1053 C1047 1.390 . S
C1053 C1050 1.386 . S
C1054 C1049 1.490 . S
C1054 C1056 1.395 . S
C1054 C1057 1.403 . S
H1055 C1061 0.930 . S
C1056 H1042 0.930 . S
C1056 C1054 1.395 . S
C1056 C1059 1.403 . S
C1057 C1054 1.403 . S
C1057 C1058 1.524 . S
C1057 C1061 1.400 . S
C1058 H1043 0.960 . S
C1058 H1044 0.960 . S
C1058 H1045 0.960 . S
C1058 C1057 1.524 . S
C1059 C1056 1.403 . S
C1059 C1060 1.392 . S
C1059 C1063 1.495 . S
C1060 C1059 1.392 . S
C1060 C1061 1.385 . S
C1060 C1062 1.478 . S
C1061 H1055 0.930 . S
C1061 C1057 1.400 . S
C1061 C1060 1.385 . S
C1062 C1060 1.478 . S
C1062 C1064 1.381 . S
C1062 C1068 1.383 . S
C1063 C1059 1.495 . S
C1063 H1069 0.959 . S
C1063 H1070 0.961 . S
C1063 H1071 0.960 . S
C1064 C1062 1.381 . S
C1064 C1065 1.394 . S
C1064 H1072 0.930 . S
C1065 C1064 1.394 . S
C1065 C1066 1.383 . S
C1065 H1073 0.929 . S
C1066 C1065 1.383 . S
C1066 C1067 1.377 . S
C1067 H1051 0.930 . S
C1067 C1066 1.377 . S
C1067 C1068 1.379 . S
C1068 H1052 0.931 . S
C1068 C1062 1.383 . S
C1068 C1067 1.379 . S
H1069 C1063 0.959 . S
H1070 C1063 0.961 . S
H1071 C1063 0.960 . S
H1072 C1064 0.930 . S
H1073 C1065 0.929 . S
H1074 C1082 0.929 . S
H1075 C1084 0.930 . S
H1076 C1086 0.930 . S
H1077 C1089 0.929 . S
H1078 C1092 0.930 . S
H1079 C1094 0.960 . S
H1080 C1094 0.960 . S
H1081 C1094 0.960 . S
C1082 H1074 0.929 . S
C1082 C1083 1.377 . S
C1082 C1084 1.384 . S
C1083 C1082 1.377 . S
C1083 C1089 1.390 . S
C1084 H1075 0.930 . S
C1084 C1082 1.384 . S
C1084 C1085 1.372 . S
C1085 C1084 1.372 . S
C1085 C1086 1.400 . S
C1085 C1090 1.490 . S
C1086 H1076 0.930 . S
C1086 C1085 1.400 . S
C1086 C1089 1.386 . S
H1087 C1103 0.930 . S
H1088 C1104 0.931 . S
C1089 H1077 0.929 . S
C1089 C1083 1.390 . S
C1089 C1086 1.386 . S
C1090 C1085 1.490 . S
C1090 C1092 1.395 . S
C1090 C1093 1.403 . S
H1091 C1097 0.930 . S
C1092 H1078 0.930 . S
C1092 C1090 1.395 . S
C1092 C1095 1.403 . S
C1093 C1090 1.403 . S
C1093 C1094 1.524 . S
C1093 C1097 1.400 . S
C1094 H1079 0.960 . S
C1094 H1080 0.960 . S
C1094 H1081 0.960 . S
C1094 C1093 1.524 . S
C1095 C1092 1.403 . S
C1095 C1096 1.392 . S
C1095 C1099 1.495 . S
C1096 C1095 1.392 . S
C1096 C1097 1.385 . S
C1096 C1098 1.478 . S
C1097 H1091 0.930 . S
C1097 C1093 1.400 . S
C1097 C1096 1.385 . S
C1098 C1096 1.478 . S
C1098 C1100 1.381 . S
C1098 C1104 1.383 . S
C1099 C1095 1.495 . S
C1099 H1105 0.959 . S
C1099 H1106 0.961 . S
C1099 H1107 0.960 . S
C1100 C1098 1.381 . S
C1100 C1101 1.394 . S
C1100 H1108 0.930 . S
C1101 C1100 1.394 . S
C1101 C1102 1.383 . S
C1101 H1109 0.929 . S
C1102 C1101 1.383 . S
C1102 C1103 1.377 . S
C1103 H1087 0.930 . S
C1103 C1102 1.377 . S
C1103 C1104 1.379 . S
C1104 H1088 0.931 . S
C1104 C1098 1.383 . S
C1104 C1103 1.379 . S
H1105 C1099 0.959 . S
H1106 C1099 0.961 . S
H1107 C1099 0.960 . S
H1108 C1100 0.930 . S
H1109 C1101 0.929 . S
H1110 C1118 0.929 . S
H1111 C1120 0.930 . S
H1112 C1122 0.930 . S
H1113 C1125 0.929 . S
H1114 C1128 0.930 . S
H1115 C1130 0.960 . S
H1116 C1130 0.960 . S
H1117 C1130 0.960 . S
C1118 H1110 0.929 . S
C1118 C1119 1.377 . S
C1118 C1120 1.384 . S
C1119 C1118 1.377 . S
C1119 C1125 1.390 . S
C1120 H1111 0.930 . S
C1120 C1118 1.384 . S
C1120 C1121 1.372 . S
C1121 C1120 1.372 . S
C1121 C1122 1.400 . S
C1121 C1126 1.490 . S
C1122 H1112 0.930 . S
C1122 C1121 1.400 . S
C1122 C1125 1.386 . S
H1123 C1139 0.930 . S
H1124 C1140 0.931 . S
C1125 H1113 0.929 . S
C1125 C1119 1.390 . S
C1125 C1122 1.386 . S
C1126 C1121 1.490 . S
C1126 C1128 1.395 . S
C1126 C1129 1.403 . S
H1127 C1133 0.930 . S
C1128 H1114 0.930 . S
C1128 C1126 1.395 . S
C1128 C1131 1.403 . S
C1129 C1126 1.403 . S
C1129 C1130 1.524 . S
C1129 C1133 1.400 . S
C1130 H1115 0.960 . S
C1130 H1116 0.960 . S
C1130 H1117 0.960 . S
C1130 C1129 1.524 . S
C1131 C1128 1.403 . S
C1131 C1132 1.392 . S
C1131 C1135 1.495 . S
C1132 C1131 1.392 . S
C1132 C1133 1.385 . S
C1132 C1134 1.478 . S
C1133 H1127 0.930 . S
C1133 C1129 1.400 . S
C1133 C1132 1.385 . S
C1134 C1132 1.478 . S
C1134 C1136 1.381 . S
C1134 C1140 1.383 . S
C1135 C1131 1.495 . S
C1135 H1141 0.959 . S
C1135 H1142 0.961 . S
C1135 H1143 0.960 . S
C1136 C1134 1.381 . S
C1136 C1137 1.394 . S
C1136 H1144 0.930 . S
C1137 C1136 1.394 . S
C1137 C1138 1.383 . S
C1137 H1145 0.929 . S
C1138 C1137 1.383 . S
C1138 C1139 1.377 . S
C1139 H1123 0.930 . S
C1139 C1138 1.377 . S
C1139 C1140 1.379 . S
C1140 H1124 0.931 . S
C1140 C1134 1.383 . S
C1140 C1139 1.379 . S
H1141 C1135 0.959 . S
H1142 C1135 0.961 . S
H1143 C1135 0.960 . S
H1144 C1136 0.930 . S
H1145 C1137 0.929 . S
H1146 C1154 0.929 . S
H1147 C1156 0.930 . S
H1148 C1158 0.930 . S
H1149 C1161 0.929 . S
H1150 C1164 0.930 . S
H1151 C1166 0.960 . S
H1152 C1166 0.960 . S
H1153 C1166 0.960 . S
C1154 H1146 0.929 . S
C1154 C1155 1.377 . S
C1154 C1156 1.384 . S
C1155 C1154 1.377 . S
C1155 C1161 1.390 . S
C1156 H1147 0.930 . S
C1156 C1154 1.384 . S
C1156 C1157 1.372 . S
C1157 C1156 1.372 . S
C1157 C1158 1.400 . S
C1157 C1162 1.490 . S
C1158 H1148 0.930 . S
C1158 C1157 1.400 . S
C1158 C1161 1.386 . S
H1159 C1175 0.930 . S
H1160 C1176 0.931 . S
C1161 H1149 0.929 . S
C1161 C1155 1.390 . S
C1161 C1158 1.386 . S
C1162 C1157 1.490 . S
C1162 C1164 1.395 . S
C1162 C1165 1.403 . S
H1163 C1169 0.930 . S
C1164 H1150 0.930 . S
C1164 C1162 1.395 . S
C1164 C1167 1.403 . S
C1165 C1162 1.403 . S
C1165 C1166 1.524 . S
C1165 C1169 1.400 1_554 S
C1166 H1151 0.960 . S
C1166 H1152 0.960 . S
C1166 H1153 0.960 . S
C1166 C1165 1.524 . S
C1167 C1164 1.403 . S
C1167 C1168 1.392 1_554 S
C1167 C1171 1.501 . S
C1168 C1167 1.392 1_556 S
C1168 C1169 1.385 . S
C1168 C1170 1.478 . S
C1169 H1163 0.930 . S
C1169 C1165 1.400 1_556 S
C1169 C1168 1.385 . S
C1170 C1168 1.478 . S
C1170 C1172 1.381 . S
C1170 C1176 1.383 . S
C1171 C1167 1.501 . S
C1171 H1177 0.978 . S
C1171 H1178 0.936 1_554 S
C1171 H1179 0.959 . S
C1172 C1170 1.381 . S
C1172 C1173 1.394 . S
C1172 H1180 0.930 . S
C1173 C1172 1.394 . S
C1173 C1174 1.383 . S
C1173 H1181 0.929 . S
C1174 C1173 1.383 . S
C1174 C1175 1.377 . S
C1175 H1159 0.930 . S
C1175 C1174 1.377 . S
C1175 C1176 1.379 . S
C1176 H1160 0.931 . S
C1176 C1170 1.383 . S
C1176 C1175 1.379 . S
H1177 C1171 0.978 . S
H1178 C1171 0.936 1_556 S
H1179 C1171 0.959 . S
H1180 C1172 0.930 . S
H1181 C1173 0.929 . S
H1182 C1190 0.929 . S
H1183 C1192 0.930 . S
H1184 C1194 0.930 . S
H1185 C1197 0.929 . S
H1186 C1200 0.930 . S
H1187 C1202 0.960 . S
H1188 C1202 0.960 . S
H1189 C1202 0.960 . S
C1190 H1182 0.929 . S
C1190 C1191 1.377 . S
C1190 C1192 1.384 . S
C1191 C1190 1.377 . S
C1191 C1197 1.390 . S
C1192 H1183 0.930 . S
C1192 C1190 1.384 . S
C1192 C1193 1.372 . S
C1193 C1192 1.372 . S
C1193 C1194 1.400 . S
C1193 C1198 1.490 . S
C1194 H1184 0.930 . S
C1194 C1193 1.400 . S
C1194 C1197 1.386 . S
H1195 C1211 0.930 . S
H1196 C1212 0.931 . S
C1197 H1185 0.929 . S
C1197 C1191 1.390 . S
C1197 C1194 1.386 . S
C1198 C1193 1.490 . S
C1198 C1200 1.395 . S
C1198 C1201 1.403 . S
H1199 C1205 0.930 . S
C1200 H1186 0.930 . S
C1200 C1198 1.395 . S
C1200 C1203 1.403 . S
C1201 C1198 1.403 . S
C1201 C1202 1.524 . S
C1201 C1205 1.400 . S
C1202 H1187 0.960 . S
C1202 H1188 0.960 . S
C1202 H1189 0.960 . S
C1202 C1201 1.524 . S
C1203 C1200 1.403 . S
C1203 C1204 1.392 . S
C1203 C1207 1.495 . S
C1204 C1203 1.392 . S
C1204 C1205 1.385 . S
C1204 C1206 1.478 . S
C1205 H1199 0.930 . S
C1205 C1201 1.400 . S
C1205 C1204 1.385 . S
C1206 C1204 1.478 . S
C1206 C1208 1.381 . S
C1206 C1212 1.383 . S
C1207 C1203 1.495 . S
C1207 H1213 0.959 . S
C1207 H1214 0.961 . S
C1207 H1215 0.960 . S
C1208 C1206 1.381 . S
C1208 C1209 1.394 . S
C1208 H1216 0.930 . S
C1209 C1208 1.394 . S
C1209 C1210 1.383 . S
C1209 H1217 0.929 . S
C1210 C1209 1.383 . S
C1210 C1211 1.377 . S
C1211 H1195 0.930 . S
C1211 C1210 1.377 . S
C1211 C1212 1.379 . S
C1212 H1196 0.931 . S
C1212 C1206 1.383 . S
C1212 C1211 1.379 . S
H1213 C1207 0.959 . S
H1214 C1207 0.961 . S
H1215 C1207 0.960 . S
H1216 C1208 0.930 . S
H1217 C1209 0.929 . S
C382 C351 1.564 . S
C363 C15 1.545 . S
C399 C61 1.513 . S
C418 C276 1.490 . S
C435 C114 1.559 . S
C454 C299 1.579 . S
C471 C139 1.409 . S
C490 C312 1.415 . S
C526 C315 1.540 . S
C507 C185 1.574 . S
C543 C245 1.432 . S
C562 C328 1.374 . S
C579 C47 1.446 . S
C598 C289 1.408 . S
C615 C100 1.576 . S
C634 C302 1.540 . S
C651 C153 1.398 . S
C670 C325 1.414 . S
C706 C338 1.591 . S
C687 C199 1.560 . S
C742 C341 1.444 . S
C723 C231 1.519 . S
C778 C286 1.556 . S
C759 C1 1.553 . S
C795 C22 1.435 . S
C814 C297 1.425 . S
C831 C68 1.426 . S
C850 C310 1.375 . S
C886 C320 1.412 . S
C867 C107 1.472 . S
C903 C146 1.431 . S
C922 C333 1.406 . S
C958 C349 1.435 . S
C939 C192 1.478 . S
C994 C281 1.411 . S
C975 C252 1.430 . S
C1030 C346 1.406 . S
C1011 C54 1.431 . S
C1047 C93 1.479 . S
C1066 C284 1.428 . S
C1102 C294 1.358 . S
C1083 C160 1.424 . S
C1119 C206 1.472 . S
C1138 C307 1.432 . S
C1155 C238 1.426 . S
C1174 C323 1.397 . S
C1191 C8 1.438 . S
C1210 C336 1.393 . S
