# Generated by pormake.
# Topology pyr, (3,6)-cn, num edge types: 1
# Building blocks:
#     Node 0, Type 0, BuildingBlock: CUQRIR_clean_linker_1, # of connection points: 3
#     Node 1, Type 0, BuildingBlock: CUQRIR_clean_linker_1, # of connection points: 3
#     Node 2, Type 0, BuildingBlock: CUQRIR_clean_linker_1, # of connection points: 3
#     Node 3, Type 0, BuildingBlock: CUQRIR_clean_linker_1, # of connection points: 3
#     Node 4, Type 0, BuildingBlock: CUQRIR_clean_linker_1, # of connection points: 3
#     Node 5, Type 0, BuildingBlock: CUQRIR_clean_linker_1, # of connection points: 3
#     Node 6, Type 0, BuildingBlock: CUQRIR_clean_linker_1, # of connection points: 3
#     Node 7, Type 0, BuildingBlock: CUQRIR_clean_linker_1, # of connection points: 3
#     Node 8, Type 1, BuildingBlock: PAMTOO_clean_sbu_0, # of connection points: 6
#     Node 9, Type 1, BuildingBlock: PAMTOO_clean_sbu_0, # of connection points: 6
#     Node 10, Type 1, BuildingBlock: PAMTOO_clean_sbu_0, # of connection points: 6
#     Node 11, Type 1, BuildingBlock: PAMTOO_clean_sbu_0, # of connection points: 6
#     Edge 12, Type (0, 1), BuildingBlock: MIFKUJ_clean_linker_0, # of connection points: 2
#     Edge 13, Type (0, 1), BuildingBlock: MIFKUJ_clean_linker_0, # of connection points: 2
#     Edge 14, Type (0, 1), BuildingBlock: MIFKUJ_clean_linker_0, # of connection points: 2
#     Edge 15, Type (0, 1), BuildingBlock: MIFKUJ_clean_linker_0, # of connection points: 2
#     Edge 16, Type (0, 1), BuildingBlock: MIFKUJ_clean_linker_0, # of connection points: 2
#     Edge 17, Type (0, 1), BuildingBlock: MIFKUJ_clean_linker_0, # of connection points: 2
#     Edge 18, Type (0, 1), BuildingBlock: MIFKUJ_clean_linker_0, # of connection points: 2
#     Edge 19, Type (0, 1), BuildingBlock: MIFKUJ_clean_linker_0, # of connection points: 2
#     Edge 20, Type (0, 1), BuildingBlock: MIFKUJ_clean_linker_0, # of connection points: 2
#     Edge 21, Type (0, 1), BuildingBlock: MIFKUJ_clean_linker_0, # of connection points: 2
#     Edge 22, Type (0, 1), BuildingBlock: MIFKUJ_clean_linker_0, # of connection points: 2
#     Edge 23, Type (0, 1), BuildingBlock: MIFKUJ_clean_linker_0, # of connection points: 2
#     Edge 24, Type (0, 1), BuildingBlock: MIFKUJ_clean_linker_0, # of connection points: 2
#     Edge 25, Type (0, 1), BuildingBlock: MIFKUJ_clean_linker_0, # of connection points: 2
#     Edge 26, Type (0, 1), BuildingBlock: MIFKUJ_clean_linker_0, # of connection points: 2
#     Edge 27, Type (0, 1), BuildingBlock: MIFKUJ_clean_linker_0, # of connection points: 2
#     Edge 28, Type (0, 1), BuildingBlock: MIFKUJ_clean_linker_0, # of connection points: 2
#     Edge 29, Type (0, 1), BuildingBlock: MIFKUJ_clean_linker_0, # of connection points: 2
#     Edge 30, Type (0, 1), BuildingBlock: MIFKUJ_clean_linker_0, # of connection points: 2
#     Edge 31, Type (0, 1), BuildingBlock: MIFKUJ_clean_linker_0, # of connection points: 2
#     Edge 32, Type (0, 1), BuildingBlock: MIFKUJ_clean_linker_0, # of connection points: 2
#     Edge 33, Type (0, 1), BuildingBlock: MIFKUJ_clean_linker_0, # of connection points: 2
#     Edge 34, Type (0, 1), BuildingBlock: MIFKUJ_clean_linker_0, # of connection points: 2
#     Edge 35, Type (0, 1), BuildingBlock: MIFKUJ_clean_linker_0, # of connection points: 2
# Relax obj value: 0.146
# Max RMSD: 0.263
# Mean RMSD: 0.164
data_MOF--net-pyr--node1-PAMTOO_clean_sbu_0--node2-CUQRIR_clean_linker_1--edge1-MIFKUJ_clean_linker_0
_symmetry_space_group_name_H-M    P1
_symmetry_Int_Tables_number       1
_symmetry_cell_setting            triclinic
loop_
_symmetry_equiv_pos_as_xyz
'x, y, z'
_cell_length_a     45.239216
_cell_length_b     48.109822
_cell_length_c     47.190397
_cell_angle_alpha  88.773292
_cell_angle_beta   91.016373
_cell_angle_gamma 105.91237
loop_
_atom_site_label
_atom_site_type_symbol
_atom_site_fract_x
_atom_site_fract_y
_atom_site_fract_z
_atom_type_partial_charge
C0 C 0.32485 0.31526 0.20622 0.0
N1 N 0.34036 0.29558 0.2126 0.0
N2 N 0.32993 0.32509 0.17918 0.0
C3 C 0.30118 0.32172 0.22505 0.0
C4 C 0.34941 0.31075 0.16929 0.0
N5 N 0.35579 0.2929 0.18961 0.0
C6 C 0.3584 0.31089 0.1388 0.0
H7 H 0.27919 0.30461 0.22258 0.0
H8 H 0.29721 0.34291 0.21933 0.0
H9 H 0.30871 0.32177 0.24756 0.0
H10 H 0.38257 0.30999 0.1373 0.0
H11 H 0.35559 0.33042 0.12737 0.0
H12 H 0.34351 0.29139 0.1285 0.0
C13 C 0.1986 0.80386 0.70117 0.0
N14 N 0.19641 0.82488 0.71886 0.0
N15 N 0.21347 0.78611 0.71402 0.0
C16 C 0.18795 0.80164 0.67074 0.0
C17 C 0.22024 0.79721 0.74024 0.0
N18 N 0.20966 0.8207 0.74327 0.0
C19 C 0.24185 0.78837 0.76088 0.0
H20 H 0.18345 0.7791 0.66335 0.0
H21 H 0.20613 0.81581 0.65739 0.0
H22 H 0.16684 0.80899 0.66813 0.0
H23 H 0.2658 0.8004 0.75555 0.0
H24 H 0.23971 0.76492 0.75964 0.0
H25 H 0.23729 0.79359 0.78288 0.0
C26 C 0.61357 0.36367 0.8502 0.0
N27 N 0.63129 0.36202 0.87351 0.0
N28 N 0.62421 0.38943 0.8362 0.0
C29 C 0.58437 0.34123 0.84248 0.0
C30 C 0.64906 0.40335 0.85192 0.0
N31 N 0.65315 0.387 0.87466 0.0
C32 C 0.67102 0.43194 0.84372 0.0
H33 H 0.58988 0.32551 0.82802 0.0
H34 H 0.56795 0.3513 0.83143 0.0
H35 H 0.57329 0.32933 0.86161 0.0
H36 H 0.664 0.44956 0.8541 0.0
H37 H 0.67087 0.43561 0.82043 0.0
H38 H 0.6948 0.43292 0.8508 0.0
C39 C 0.84439 0.67343 0.34024 0.0
N40 N 0.87109 0.69363 0.33332 0.0
N41 N 0.83057 0.68174 0.36264 0.0
C42 C 0.83095 0.6461 0.32412 0.0
C43 C 0.84986 0.70777 0.36927 0.0
N44 N 0.87432 0.71538 0.35155 0.0
C45 C 0.84556 0.72533 0.39417 0.0
H46 H 0.83684 0.64927 0.30133 0.0
H47 H 0.80558 0.63884 0.32615 0.0
H48 H 0.84066 0.62886 0.33288 0.0
H49 H 0.83208 0.71134 0.41108 0.0
H50 H 0.8331 0.74115 0.38695 0.0
H51 H 0.86803 0.73747 0.40323 0.0
C52 C 0.68222 0.80172 0.89396 0.0
N53 N 0.70221 0.79648 0.87517 0.0
N54 N 0.66875 0.82172 0.88333 0.0
C55 C 0.67829 0.78959 0.92373 0.0
C56 C 0.6815 0.82857 0.85747 0.0
N57 N 0.70194 0.81334 0.85259 0.0
C58 C 0.67601 0.85202 0.83818 0.0
H59 H 0.67668 0.76617 0.92385 0.0
H60 H 0.65743 0.79285 0.93357 0.0
H61 H 0.69877 0.80052 0.93662 0.0
H62 H 0.68956 0.87332 0.84615 0.0
H63 H 0.65142 0.85169 0.83807 0.0
H64 H 0.68296 0.84959 0.81615 0.0
C65 C 0.83756 0.29815 0.43196 0.0
N66 N 0.84896 0.28429 0.41201 0.0
N67 N 0.81851 0.31247 0.42 0.0
C68 C 0.84295 0.29591 0.46331 0.0
C69 C 0.81844 0.30651 0.3921 0.0
N70 N 0.83711 0.28948 0.38715 0.0
C71 C 0.79581 0.31275 0.37082 0.0
H72 H 0.82546 0.27688 0.47201 0.0
H73 H 0.84058 0.31549 0.47403 0.0
H74 H 0.86609 0.293 0.46778 0.0
H75 H 0.80699 0.31945 0.35012 0.0
H76 H 0.78583 0.32995 0.37813 0.0
H77 H 0.77697 0.29269 0.36769 0.0
C78 C 0.34699 0.67847 0.24092 0.0
N79 N 0.37191 0.69894 0.25075 0.0
N80 N 0.33348 0.68887 0.21879 0.0
C81 C 0.33651 0.64808 0.25261 0.0
C82 C 0.3509 0.71649 0.21561 0.0
N83 N 0.37422 0.72279 0.23499 0.0
C84 C 0.34541 0.73706 0.19291 0.0
H85 H 0.35603 0.63829 0.25315 0.0
H86 H 0.31758 0.6342 0.23984 0.0
H87 H 0.32882 0.64865 0.27474 0.0
H88 H 0.32052 0.73273 0.18795 0.0
H89 H 0.35724 0.73365 0.17348 0.0
H90 H 0.35453 0.75994 0.19897 0.0
C91 C 0.11501 0.35512 0.74446 0.0
N92 N 0.13213 0.35138 0.72185 0.0
N93 N 0.12656 0.3817 0.75632 0.0
C94 C 0.08606 0.33353 0.75436 0.0
C95 C 0.15125 0.39399 0.73973 0.0
N96 N 0.15463 0.37588 0.71899 0.0
C97 C 0.17163 0.42427 0.74303 0.0
H98 H 0.06599 0.3395 0.74489 0.0
H99 H 0.0844 0.33399 0.77777 0.0
H100 H 0.08443 0.31122 0.74795 0.0
H101 H 0.19144 0.42366 0.75698 0.0
H102 H 0.15898 0.43839 0.75266 0.0
H103 H 0.18078 0.43378 0.72229 0.0
Dy104 Dy 0.05031 0.04313 0.50859 0.0
Dy105 Dy 0.98947 0.02396 0.54838 0.0
C106 C 0.04163 0.08557 0.55765 0.0
O107 O 0.06451 0.02542 0.5492 0.0
O108 O 0.01812 0.99508 0.56176 0.0
O109 O 0.09932 0.06033 0.50398 0.0
O110 O 0.07086 0.04222 0.46774 0.0
O111 O 0.97871 0.99353 0.51109 0.0
O112 O 0.02821 0.99586 0.4999 0.0
O113 O 0.98378 0.06155 0.52315 0.0
O114 O 0.01534 0.06098 0.48578 0.0
O115 O 0.94012 1.00997 0.55351 0.0
O116 O 0.97049 0.01801 0.5903 0.0
C117 C 0.04812 1.00342 0.56408 0.0
O118 O 0.05202 0.08405 0.53195 0.0
O119 O 0.02183 0.063 0.56942 0.0
C120 C 0.11752 0.07804 0.4581 0.0
C121 C 0.15826 0.11794 0.42232 0.0
C122 C 0.15425 0.12501 0.4505 0.0
C123 C 0.13401 0.10525 0.46825 0.0
C124 C 0.12124 0.07118 0.42989 0.0
C125 C 0.1413 0.09091 0.41216 0.0
C126 C 0.09841 0.05553 0.47683 0.0
C127 C 0.99861 0.98282 0.49805 0.0
C128 C 0.99359 0.06999 0.49759 0.0
C129 C 0.92253 0.98399 0.59597 0.0
C130 C 0.88664 0.93746 0.62847 0.0
C131 C 0.90947 0.93332 0.61038 0.0
C132 C 0.92734 0.95647 0.59425 0.0
C133 C 0.89965 0.98809 0.61362 0.0
C134 C 0.88193 0.96514 0.62975 0.0
C135 C 0.94219 1.00921 0.58112 0.0
H136 H 0.16678 0.14579 0.45882 0.0
H137 H 0.13169 0.11111 0.48996 0.0
H138 H 0.10911 0.0502 0.4217 0.0
H139 H 0.1442 0.08465 0.3907 0.0
H140 H 0.91355 0.91227 0.60875 0.0
H141 H 0.94513 0.95304 0.58078 0.0
H142 H 0.89591 1.0093 0.61541 0.0
H143 H 0.86511 0.96935 0.64387 0.0
Dy144 Dy 0.49289 0.04278 0.05778 0.0
Dy145 Dy 0.55875 0.0554 0.09315 0.0
C146 C 0.50354 0.99781 0.10506 0.0
O147 O 0.48688 0.06185 0.09924 0.0
O148 O 0.53636 0.08846 0.1077 0.0
O149 O 0.44338 0.02508 0.05652 0.0
O150 O 0.46712 0.05035 1.02103 0.0
O151 O 0.5681 0.08932 0.05842 0.0
O152 O 0.51829 0.08894 0.04751 0.0
O153 O 0.55777 0.01935 0.06396 0.0
O154 O 0.52262 0.02502 0.03017 0.0
O155 O 0.60796 0.06154 0.09417 0.0
O156 O 0.58264 0.05844 0.13335 0.0
C157 C 0.50668 0.08371 0.11126 0.0
O158 O 0.49153 1.00065 0.07991 0.0
O159 O 0.52513 0.0191 0.1161 0.0
C160 C 0.421 0.01492 1.01087 0.0
C161 C 0.38316 0.98101 0.96925 0.0
C162 C 0.41375 0.97994 0.97326 0.0
C163 C 0.43253 0.99675 0.99397 0.0
C164 C 0.39036 0.01549 1.00746 0.0
C165 C 0.37157 0.99867 0.98686 0.0
C166 C 0.4409 0.03483 0.03085 0.0
C167 C 0.54809 0.10113 0.04597 0.0
C168 C 0.5449 1.01411 0.03878 0.0
C169 C 0.63559 0.08263 0.13507 0.0
C170 C 0.68384 0.11985 0.16566 0.0
C171 C 0.66137 0.13067 0.15182 0.0
C172 C 0.63725 0.1121 0.13668 0.0
C173 C 0.65857 0.07209 0.1479 0.0
C174 C 0.68247 0.09049 0.16308 0.0
C175 C 0.60942 0.06186 0.1218 0.0
H176 H 0.42322 0.96627 0.96026 0.0
H177 H 0.45617 0.99601 0.99639 0.0
H178 H 0.38117 0.02953 1.02026 0.0
H179 H 0.34826 1.00025 0.9841 0.0
H180 H 0.66179 0.15318 0.15363 0.0
H181 H 0.61956 0.12051 0.12689 0.0
H182 H 0.6576 0.04937 0.14678 0.0
H183 H 0.69967 0.08165 0.17321 0.0
Dy184 Dy 0.48702 0.50093 0.51966 0.0
Dy185 Dy 0.49253 0.5597 0.55439 0.0
C186 C 0.51795 0.50957 0.58217 0.0
O187 O 0.43869 0.49527 0.53504 0.0
O188 O 0.45045 0.52735 0.5715 0.0
O189 O 0.47507 0.45432 0.51738 0.0
O190 O 0.49516 0.48059 0.48127 0.0
O191 O 0.45989 0.5612 0.51842 0.0
O192 O 0.47655 0.53273 0.48791 0.0
O193 O 0.53207 0.57071 0.52401 0.0
O194 O 0.53721 0.52524 0.51875 0.0
O195 O 0.4976 0.60569 0.55454 0.0
O196 O 0.49426 0.58157 0.59408 0.0
C197 C 0.43124 0.50533 0.55889 0.0
O198 O 0.5008 0.49163 0.56399 0.0
O199 O 0.52311 0.53768 0.57871 0.0
C200 C 0.51274 0.44023 0.49228 0.0
C201 C 0.56231 0.41558 0.48869 0.0
C202 C 0.56282 0.43685 0.5088 0.0
C203 C 0.53828 0.44907 0.51055 0.0
C204 C 0.51176 0.41867 0.47255 0.0
C205 C 0.53634 0.40634 0.47081 0.0
C206 C 0.48825 0.45489 0.49297 0.0
C207 C 0.46304 0.55318 0.49246 0.0
C208 C 0.54801 0.5534 0.51548 0.0
C209 C 0.46932 0.61816 0.59086 0.0
C210 C 0.42188 0.64122 0.60812 0.0
C211 C 0.41497 0.61348 0.59653 0.0
C212 C 0.4385 0.60208 0.58789 0.0
C213 C 0.4764 0.64584 0.60231 0.0
C214 C 0.45283 0.65734 0.61086 0.0
C215 C 0.49388 0.60599 0.58183 0.0
H216 H 0.58226 0.44415 0.52312 0.0
H217 H 0.53944 0.46576 0.52592 0.0
H218 H 0.49231 0.41177 0.45816 0.0
H219 H 0.53541 0.39021 0.45491 0.0
H220 H 0.39135 0.60072 0.59382 0.0
H221 H 0.43268 0.5807 0.57887 0.0
H222 H 0.50011 0.65849 0.60469 0.0
H223 H 0.45883 0.67866 0.61999 0.0
Dy224 Dy 0.99575 0.56646 0.02457 0.0
Dy225 Dy 0.99314 0.50899 0.0641 0.0
C226 C 0.97029 0.56194 0.08972 0.0
O227 O 0.04473 0.57295 0.03956 0.0
O228 O 0.03494 0.54227 0.07814 0.0
O229 O 1.00464 0.61278 1.01867 0.0
O230 O 0.98942 0.58432 0.98336 0.0
O231 O 0.02235 0.50475 0.0266 0.0
O232 O 0.00778 0.53514 0.99474 0.0
O233 O 0.95042 0.49658 0.03759 0.0
O234 O 0.94582 0.54152 0.02497 0.0
O235 O 0.9857 0.46273 0.06808 0.0
O236 O 0.99986 0.48952 0.10458 0.0
C237 C 0.05317 0.56368 0.064 0.0
O238 O 0.98313 0.57835 0.06802 0.0
O239 O 0.96719 0.53374 0.09013 0.0
C240 C 0.97248 0.62606 0.98409 0.0
C241 C 0.92795 0.6535 0.96508 0.0
C242 C 0.92046 0.63084 0.98535 0.0
C243 C 0.94255 0.61723 0.99477 0.0
C244 C 0.98018 0.64876 0.96414 0.0
C245 C 0.95814 0.6624 0.95471 0.0
C246 C 0.99526 0.61068 0.99234 0.0
C247 C 0.02063 0.51414 1.00031 0.0
C248 C 0.93451 0.51328 0.02658 0.0
C249 C 0.02359 0.45275 0.09788 0.0
C250 C 0.07632 0.43296 0.10626 0.0
C251 C 0.07623 0.45494 0.08619 0.0
C252 C 0.05022 0.46482 0.08217 0.0
C253 C 0.02328 0.43064 0.11775 0.0
C254 C 0.04948 0.42078 0.12193 0.0
C255 C 0.99687 0.46423 0.0938 0.0
H256 H 0.89756 0.62369 0.99403 0.0
H257 H 0.93621 0.5996 1.01013 0.0
H258 H 1.00313 0.65563 0.9555 0.0
H259 H 0.96457 0.67947 0.93881 0.0
H260 H 0.09624 0.46449 0.07342 0.0
H261 H 0.05096 0.48206 0.06685 0.0
H262 H 1.00298 0.42125 0.13021 0.0
H263 H 0.04891 0.40404 0.13778 0.0
H264 H 0.29354 0.24808 0.21049 0.0
H265 H 0.26952 0.21829 0.251 0.0
H266 H 0.34121 0.26726 0.30609 0.0
H267 H 0.36538 0.29712 0.26505 0.0
H268 H 0.31614 0.2007 0.31664 0.0
H269 H 0.28572 0.28977 0.31107 0.0
H270 H 0.26851 0.32834 0.28624 0.0
H271 H 0.18869 0.26541 0.25464 0.0
H272 H 0.20536 0.22649 0.27946 0.0
H273 H 0.21675 0.15013 0.43537 0.0
H274 H 0.254 0.18183 0.40349 0.0
H275 H 0.18744 0.16246 0.33504 0.0
H276 H 0.14998 0.13148 0.36686 0.0
H277 H 0.21574 0.21899 0.3365 0.0
H278 H 0.24564 0.12997 0.3409 0.0
H279 H 0.26202 0.09048 0.36479 0.0
H280 H 0.34277 0.15168 0.39712 0.0
H281 H 0.32663 0.1916 0.37371 0.0
C282 C 0.30483 0.25149 0.23106 0.0
C283 C 0.33151 0.27424 0.23481 0.0
C284 C 0.29102 0.23478 0.25416 0.0
C285 C 0.30358 0.24072 0.28145 0.0
C286 C 0.33137 0.26229 0.2851 0.0
C287 C 0.34519 0.27916 0.26181 0.0
C288 C 0.28538 0.22654 0.30605 0.0
C289 C 0.29451 0.20505 0.32152 0.0
C290 C 0.25698 0.23198 0.31193 0.0
C291 C 0.24688 0.25526 0.29696 0.0
C292 C 0.26457 0.28417 0.29872 0.0
C293 C 0.25484 0.30609 0.28477 0.0
C294 C 0.22757 0.29932 0.26881 0.0
C295 C 0.20983 0.27063 0.26698 0.0
C296 C 0.21932 0.24865 0.2811 0.0
C297 C 0.20998 0.15294 0.41361 0.0
C298 C 0.18047 0.13824 0.40358 0.0
C299 C 0.23137 0.17081 0.39537 0.0
C300 C 0.2236 0.17423 0.36682 0.0
C301 C 0.19396 0.16005 0.35697 0.0
C302 C 0.17264 0.14221 0.37512 0.0
C303 C 0.24607 0.19258 0.34695 0.0
C304 C 0.23765 0.2149 0.3322 0.0
C305 C 0.27503 0.18776 0.3418 0.0
C306 C 0.28473 0.16379 0.35586 0.0
C307 C 0.26674 0.13503 0.35332 0.0
C308 C 0.27601 0.11256 0.36672 0.0
C309 C 0.30337 0.11857 0.38254 0.0
C310 C 0.32155 0.14706 0.38492 0.0
C311 C 0.31236 0.16961 0.37157 0.0
H312 H 0.31051 0.10115 0.3929 0.0
H313 H 0.22019 0.31631 0.25788 0.0
H314 H 0.25839 0.86657 0.73843 0.0
H315 H 0.28491 0.89708 0.77735 0.0
H316 H 0.21317 0.85277 0.83448 0.0
H317 H 0.18699 0.82197 0.79535 0.0
H318 H 0.23899 0.91739 0.84133 0.0
H319 H 0.26863 0.82783 0.83805 0.0
H320 H 0.28646 0.79039 0.81413 0.0
H321 H 0.3681 0.85436 0.78768 0.0
H322 H 0.35072 0.8922 0.81149 0.0
H323 H 0.32244 0.95039 0.97117 0.0
H324 H 0.29 0.92568 0.93225 0.0
H325 H 0.36731 0.95055 0.87596 0.0
H326 H 0.39985 0.97525 0.91477 0.0
H327 H 0.337 0.89585 0.86863 0.0
H328 H 0.31026 0.98506 0.87377 0.0
H329 H 0.29332 0.02366 0.89648 0.0
H330 H 0.20714 0.96306 0.91723 0.0
H331 H 0.22376 0.92398 0.89499 0.0
C332 C 0.24796 0.86417 0.75914 0.0
C333 C 0.22077 0.84237 0.76419 0.0
C334 C 0.26306 0.88135 0.78129 0.0
C335 C 0.25102 0.87698 0.80873 0.0
C336 C 0.22268 0.85649 0.81338 0.0
C337 C 0.20775 0.83905 0.7912 0.0
C338 C 0.26973 0.89156 0.83291 0.0
C339 C 0.26022 0.9125 0.84764 0.0
C340 C 0.29771 0.88553 0.84054 0.0
C341 C 0.30826 0.86285 0.82631 0.0
C342 C 0.29029 0.83393 0.82698 0.0
C343 C 0.30035 0.81263 0.81352 0.0
C344 C 0.32832 0.82002 0.79928 0.0
C345 C 0.3464 0.84869 0.79866 0.0
C346 C 0.33652 0.87005 0.81222 0.0
C347 C 0.33249 0.95069 0.95047 0.0
C348 C 0.36372 0.96481 0.94605 0.0
C349 C 0.31391 0.93661 0.92823 0.0
C350 C 0.32612 0.93661 0.90109 0.0
C351 C 0.3574 0.95028 0.89673 0.0
C352 C 0.37601 0.96427 0.91897 0.0
C353 C 0.30647 0.92196 0.87729 0.0
C354 C 0.31579 0.90087 0.86252 0.0
C355 C 0.27845 0.9281 0.86955 0.0
C356 C 0.2684 0.95153 0.88299 0.0
C357 C 0.28781 0.97991 0.8834 0.0
C358 C 0.27824 1.00188 0.89614 0.0
C359 C 0.24921 0.9958 0.90836 0.0
C360 C 0.22965 0.96773 0.9078 0.0
C361 C 0.23912 0.94566 0.89511 0.0
H362 H 0.24184 1.01285 0.9182 0.0
H363 H 0.33601 0.80351 0.78879 0.0
H364 H 0.61268 0.44145 0.82887 0.0
H365 H 0.59556 0.4614 0.78554 0.0
H366 H 0.58888 0.38138 0.74297 0.0
H367 H 0.60815 0.36219 0.78604 0.0
H368 H 0.61132 0.42243 0.70757 0.0
H369 H 0.52373 0.40354 0.7669 0.0
H370 H 0.49437 0.40498 0.81011 0.0
H371 H 0.51666 0.49753 0.80321 0.0
H372 H 0.54652 0.49668 0.76015 0.0
H373 H 0.51987 0.45368 0.59211 0.0
H374 H 0.53768 0.43313 0.6348 0.0
H375 H 0.56186 0.51694 0.67327 0.0
H376 H 0.54403 0.53776 0.63052 0.0
H377 H 0.52958 0.47313 0.70993 0.0
H378 H 0.61781 0.48972 0.64909 0.0
H379 H 0.64205 0.48542 0.60358 0.0
H380 H 0.61291 0.39287 0.61182 0.0
H381 H 0.5883 0.39664 0.65727 0.0
C382 C 0.60775 0.42819 0.81021 0.0
C383 C 0.61185 0.40024 0.81093 0.0
C384 C 0.59754 0.43948 0.78543 0.0
C385 C 0.59026 0.42287 0.76076 0.0
C386 C 0.59417 0.39478 0.76153 0.0
C387 C 0.60486 0.38363 0.78629 0.0
C388 C 0.57912 0.43502 0.73423 0.0
C389 C 0.59315 0.43314 0.70819 0.0
C390 C 0.55559 0.44944 0.73459 0.0
C391 C 0.53761 0.45006 0.76045 0.0
C392 C 0.52256 0.42422 0.77471 0.0
C393 C 0.5058 0.42492 0.79916 0.0
C394 C 0.50371 0.45133 0.80944 0.0
C395 C 0.51833 0.47709 0.79524 0.0
C396 C 0.53515 0.47651 0.7708 0.0
C397 C 0.52912 0.46787 0.60955 0.0
C398 C 0.53054 0.49749 0.6077 0.0
C399 C 0.53939 0.45604 0.63401 0.0
C400 C 0.55132 0.47343 0.65736 0.0
C401 C 0.55278 0.50301 0.65561 0.0
C402 C 0.54273 0.51494 0.63102 0.0
C403 C 0.56195 0.46069 0.68362 0.0
C404 C 0.54778 0.46244 0.70951 0.0
C405 C 0.58491 0.44574 0.68304 0.0
C406 C 0.60103 0.44346 0.65646 0.0
C407 C 0.61657 0.46846 0.64117 0.0
C408 C 0.63037 0.46612 0.61539 0.0
C409 C 0.62894 0.4389 0.60476 0.0
C410 C 0.61402 0.41395 0.62006 0.0
C411 C 0.60019 0.41617 0.64587 0.0
H412 H 0.63935 0.43716 0.58465 0.0
H413 H 0.49072 0.45183 0.82837 0.0
H414 H 0.87935 0.71902 0.28073 0.0
H415 H 0.8995 0.70034 0.23922 0.0
H416 H 0.92454 0.63647 0.29277 0.0
H417 H 0.90565 0.65612 0.33404 0.0
H418 H 0.96366 0.64691 0.25407 0.0
H419 H 0.85419 0.62472 0.24893 0.0
H420 H 0.80363 0.63487 0.24767 0.0
H421 H 0.82828 0.68567 0.1714 0.0
H422 H 0.87921 0.67618 0.17245 0.0
H423 H 0.95958 0.54199 0.14537 0.0
H424 H 0.94632 0.567 0.18618 0.0
H425 H 0.94427 0.63972 0.13215 0.0
H426 H 0.95812 0.61513 0.09149 0.0
H427 H 0.89444 0.62564 0.16998 0.0
H428 H 1.00438 0.64388 0.17572 0.0
H429 H 0.05298 0.63003 0.17797 0.0
H430 H 0.0242 0.58148 0.25482 0.0
H431 H 0.97519 0.59468 0.25278 0.0
C432 C 0.8905 0.70192 0.28378 0.0
C433 C 0.89161 0.68972 0.31105 0.0
C434 C 0.90139 0.69058 0.2598 0.0
C435 C 0.91302 0.66609 0.26211 0.0
C436 C 0.91581 0.65516 0.28972 0.0
C437 C 0.90528 0.6667 0.3136 0.0
C438 C 0.92086 0.65096 0.23614 0.0
C439 C 0.94818 0.64211 0.23593 0.0
C440 C 0.90127 0.64442 0.21177 0.0
C441 C 0.87062 0.65 0.21093 0.0
C442 C 0.84889 0.6382 0.23198 0.0
C443 C 0.82017 0.64382 0.2313 0.0
C444 C 0.81277 0.66096 0.20951 0.0
C445 C 0.83406 0.67244 0.1883 0.0
C446 C 0.86286 0.66695 0.18892 0.0
C447 C 0.95613 0.56322 0.14203 0.0
C448 C 0.96002 0.57629 0.11474 0.0
C449 C 0.94865 0.5777 0.16558 0.0
C450 C 0.94431 0.60562 0.16272 0.0
C451 C 0.94739 0.61834 0.13535 0.0
C452 C 0.95543 0.60413 0.11194 0.0
C453 C 0.93706 0.62168 0.18809 0.0
C454 C 0.90986 0.6306 0.18816 0.0
C455 C 0.95643 0.62777 0.21253 0.0
C456 C 0.98599 0.62004 0.21394 0.0
C457 C 0.00831 0.63007 0.19298 0.0
C458 C 0.03595 0.62236 0.19423 0.0
C459 C 0.04164 0.60483 0.21648 0.0
C460 C 0.01974 0.59503 0.23757 0.0
C461 C 0.99204 0.60263 0.23639 0.0
H462 H 0.06305 0.59888 0.21741 0.0
H463 H 0.79052 0.66529 0.20901 0.0
H464 H 0.41705 0.30401 0.18848 0.0
H465 H 0.44687 0.26924 0.17999 0.0
H466 H 0.36244 0.20078 0.17357 0.0
H467 H 0.33293 0.23572 0.18165 0.0
H468 H 0.40627 0.18452 0.2058 0.0
H469 H 0.39891 0.23096 0.116 0.0
H470 H 0.40509 0.27137 0.08163 0.0
H471 H 0.50298 0.29393 0.09415 0.0
H472 H 0.49734 0.25405 0.12914 0.0
H473 H 0.44782 0.07731 0.12819 0.0
H474 H 0.42649 0.11406 0.1476 0.0
H475 H 0.51664 0.17464 0.14835 0.0
H476 H 0.53826 0.13792 0.12854 0.0
H477 H 0.47452 0.19715 0.1226 0.0
H478 H 0.48169 0.14795 0.21024 0.0
H479 H 0.47478 0.10596 0.2428 0.0
H480 H 0.3768 0.08714 0.23269 0.0
H481 H 0.38312 0.12878 0.19973 0.0
C482 C 0.40513 0.28145 0.18545 0.0
C483 C 0.37296 0.27221 0.18607 0.0
C484 C 0.42202 0.26169 0.18054 0.0
C485 C 0.40684 0.23245 0.17609 0.0
C486 C 0.3746 0.2232 0.17715 0.0
C487 C 0.35777 0.24302 0.18188 0.0
C488 C 0.42441 0.21152 0.16968 0.0
C489 C 0.42106 0.18716 0.18752 0.0
C490 C 0.44429 0.2154 0.1462 0.0
C491 C 0.44765 0.23979 0.12559 0.0
C492 C 0.42172 0.2448 0.11177 0.0
C493 C 0.42514 0.26757 0.0921 0.0
C494 C 0.4544 0.28529 0.0858 0.0
C495 C 0.48031 0.28028 0.09915 0.0
C496 C 0.47702 0.25761 0.11894 0.0
C497 C 0.46327 0.09829 0.13287 0.0
C498 C 0.49475 0.1047 0.12674 0.0
C499 C 0.45103 0.11926 0.14413 0.0
C500 C 0.47 0.14704 0.14961 0.0
C501 C 0.50162 0.15329 0.14434 0.0
C502 C 0.51395 0.13224 0.13316 0.0
C503 C 0.45624 0.17003 0.15862 0.0
C504 C 0.46018 0.19474 0.14119 0.0
C505 C 0.43682 0.16641 0.18239 0.0
C506 C 0.43291 0.1414 0.20233 0.0
C507 C 0.45867 0.13474 0.21478 0.0
C508 C 0.45486 0.11102 0.23335 0.0
C509 C 0.42537 0.09386 0.23977 0.0
C510 C 0.39963 0.10044 0.22769 0.0
C511 C 0.40332 0.12413 0.20909 0.0
H512 H 0.42247 0.0755 0.25414 0.0
H513 H 0.457 0.30285 0.0705 0.0
H514 H 0.146 0.83598 0.73919 0.0
H515 H 0.12098 0.87192 0.71989 0.0
H516 H 0.19641 0.90365 0.66241 0.0
H517 H 0.22106 0.86758 0.68169 0.0
H518 H 0.17215 0.94798 0.68476 0.0
H519 H 0.13837 0.85478 0.63877 0.0
H520 H 0.11653 0.80184 0.63821 0.0
H521 H 0.03432 0.81012 0.67705 0.0
H522 H 0.05579 0.86313 0.67801 0.0
H523 H 0.10926 1.00624 0.56708 0.0
H524 H 0.13475 0.98014 0.59995 0.0
H525 H 0.04804 0.94056 0.64019 0.0
H526 H 0.02222 0.96582 0.60672 0.0
H527 H 0.07604 0.90167 0.63191 0.0
H528 H 0.10639 0.99555 0.672 0.0
H529 H 0.12773 0.04854 0.67241 0.0
H530 H 0.21529 0.04008 0.64647 0.0
H531 H 0.19438 0.98707 0.64547 0.0
C532 C 0.15741 0.85125 0.72299 0.0
C533 C 0.18508 0.8492 0.7116 0.0
C534 C 0.14321 0.87161 0.71195 0.0
C535 C 0.15677 0.89021 0.68956 0.0
C536 C 0.18564 0.88953 0.6797 0.0
C537 C 0.19962 0.86899 0.69056 0.0
C538 C 0.1394 0.90782 0.67408 0.0
C539 C 0.15117 0.93798 0.67311 0.0
C540 C 0.11174 0.89467 0.65942 0.0
C541 C 0.09881 0.86285 0.65876 0.0
C542 C 0.11574 0.84528 0.64739 0.0
C543 C 0.10341 0.81528 0.64696 0.0
C544 C 0.07412 0.80262 0.65771 0.0
C545 C 0.05703 0.81995 0.6688 0.0
C546 C 0.06924 0.84997 0.66925 0.0
C547 C 0.09563 0.99206 0.583 0.0
C548 C 0.06372 0.98804 0.58426 0.0
C549 C 0.11028 0.97732 0.60195 0.0
C550 C 0.09342 0.95873 0.6229 0.0
C551 C 0.06156 0.95483 0.62427 0.0
C552 C 0.04683 0.96926 0.60509 0.0
C553 C 0.10872 0.94212 0.64232 0.0
C554 C 0.09666 0.91197 0.64392 0.0
C555 C 0.13598 0.9554 0.65769 0.0
C556 C 0.14872 0.9873 0.65846 0.0
C557 C 0.13014 1.00499 0.6662 0.0
C558 C 0.14217 0.03503 0.66656 0.0
C559 C 0.17283 0.04766 0.65942 0.0
C560 C 0.19154 0.03027 0.65197 0.0
C561 C 0.17962 1.00021 0.65154 0.0
H562 H 0.18211 0.07091 0.65969 0.0
H563 H 0.06463 0.77938 0.65737 0.0
H564 H 0.69767 0.36075 0.88734 0.0
H565 H 0.74388 0.38047 0.91678 0.0
H566 H 0.70959 0.45268 0.93793 0.0
H567 H 0.66382 0.43299 0.90834 0.0
H568 H 0.76753 0.47131 0.92076 0.0
H569 H 0.71209 0.39804 0.9863 0.0
H570 H 0.68417 0.34822 1.00035 0.0
H571 H 0.76443 0.31995 0.98461 0.0
H572 H 0.7927 0.36952 0.96997 0.0
H573 H 0.88596 0.53677 1.01802 0.0
H574 H 0.83564 0.51363 0.99681 0.0
H575 H 0.8636 0.43588 0.98465 0.0
H576 H 0.91296 0.45826 1.00741 0.0
H577 H 0.80783 0.41982 0.99794 0.0
H578 H 0.86233 0.49009 0.92938 0.0
H579 H 0.89135 0.53883 0.91302 0.0
H580 H 0.81449 0.57135 0.9314 0.0
H581 H 0.78511 0.52283 0.94814 0.0
C582 C 0.69983 0.38042 0.89891 0.0
C583 C 0.67734 0.3954 0.89573 0.0
C584 C 0.72622 0.39178 0.91562 0.0
C585 C 0.73037 0.41819 0.92962 0.0
C586 C 0.70714 0.43243 0.92727 0.0
C587 C 0.68093 0.42112 0.91057 0.0
C588 C 0.75943 0.43188 0.94553 0.0
C589 C 0.7761 0.46017 0.93791 0.0
C590 C 0.77121 0.41716 0.96739 0.0
C591 C 0.75446 0.38749 0.97687 0.0
C592 C 0.72376 0.38118 0.98571 0.0
C593 C 0.70787 0.35299 0.99378 0.0
C594 C 0.72254 0.33095 0.99341 0.0
C595 C 0.75313 0.33706 0.98495 0.0
C596 C 0.7691 0.36521 0.97677 0.0
C597 C 0.88126 0.51468 1.01098 0.0
C598 C 0.90353 0.49942 1.01438 0.0
C599 C 0.8525 0.50147 0.99862 0.0
C600 C 0.84577 0.47305 0.98839 0.0
C601 C 0.86793 0.45773 0.99226 0.0
C602 C 0.8963 0.47064 1.00526 0.0
C603 C 0.81607 0.45938 0.97319 0.0
C604 C 0.79928 0.43106 0.98086 0.0
C605 C 0.80434 0.4739 0.95105 0.0
C606 C 0.82164 0.5029 0.94024 0.0
C607 C 0.85166 0.50766 0.93 0.0
C608 C 0.86817 0.53524 0.92067 0.0
C609 C 0.8548 0.55819 0.92125 0.0
C610 C 0.82482 0.55355 0.931 0.0
C611 C 0.80821 0.52601 0.94036 0.0
H612 H 0.86766 0.57955 0.91412 0.0
H613 H 0.71022 0.30914 0.99968 0.0
H614 H 0.81301 0.62668 0.38377 0.0
H615 H 0.76553 0.60324 0.40947 0.0
H616 H 0.73559 0.68056 0.39861 0.0
H617 H 0.78271 0.70365 0.37262 0.0
H618 H 0.72757 0.66075 0.45272 0.0
H619 H 0.70344 0.61919 0.36036 0.0
H620 H 0.71194 0.59271 0.31847 0.0
H621 H 0.70885 0.51783 0.37074 0.0
H622 H 0.70078 0.54402 0.41303 0.0
H623 H 0.5728 0.60921 0.49651 0.0
H624 H 0.62039 0.62919 0.47068 0.0
H625 H 0.63976 0.54629 0.47538 0.0
H626 H 0.5914 0.52586 0.50041 0.0
H627 H 0.65469 0.56761 0.42556 0.0
H628 H 0.67873 0.6074 0.51762 0.0
H629 H 0.67196 0.63314 0.56061 0.0
H630 H 0.67745 0.71015 0.51089 0.0
H631 H 0.68386 0.68475 0.46753 0.0
C632 C 0.79604 0.63844 0.38652 0.0
C633 C 0.80167 0.66705 0.37618 0.0
C634 C 0.76888 0.62508 0.4013 0.0
C635 C 0.74665 0.64 0.4061 0.0
C636 C 0.75224 0.6685 0.39546 0.0
C637 C 0.77922 0.68173 0.38058 0.0
C638 C 0.71793 0.62637 0.42261 0.0
C639 C 0.71147 0.64055 0.44652 0.0
C640 C 0.69719 0.5995 0.41532 0.0
C641 C 0.70182 0.58367 0.3899 0.0
C642 C 0.70481 0.59715 0.36295 0.0
C643 C 0.70952 0.58219 0.33914 0.0
C644 C 0.71102 0.55363 0.34196 0.0
C645 C 0.70773 0.53996 0.3686 0.0
C646 C 0.70307 0.55485 0.39249 0.0
C647 C 0.58722 0.59519 0.49229 0.0
C648 C 0.57814 0.56588 0.5009 0.0
C649 C 0.61471 0.60675 0.47751 0.0
C650 C 0.63441 0.58957 0.4713 0.0
C651 C 0.6253 0.56023 0.4798 0.0
C652 C 0.59757 0.54854 0.49433 0.0
C653 C 0.66408 0.60213 0.45563 0.0
C654 C 0.67078 0.58776 0.43188 0.0
C655 C 0.68528 0.62871 0.46326 0.0
C656 C 0.68149 0.64408 0.48929 0.0
C657 C 0.67828 0.62976 0.51583 0.0
C658 C 0.67454 0.6443 0.54027 0.0
C659 C 0.6742 0.67324 0.53848 0.0
C660 C 0.67768 0.68772 0.51224 0.0
C661 C 0.6814 0.67328 0.48773 0.0
H662 H 0.6713 0.68446 0.55742 0.0
H663 H 0.71466 0.54208 0.32349 0.0
H664 H 0.27397 0.2964 0.16107 0.0
H665 H 0.23431 0.31752 0.14179 0.0
H666 H 0.29956 0.40203 0.1419 0.0
H667 H 0.33893 0.38054 0.16231 0.0
H668 H 0.24969 0.40432 0.16647 0.0
H669 H 0.26919 0.36639 0.07877 0.0
H670 H 0.27736 0.32998 0.04606 0.0
H671 H 0.18608 0.27642 0.06179 0.0
H672 H 0.17749 0.3123 0.09492 0.0
H673 H 0.13612 0.46611 0.10755 0.0
H674 H 0.18249 0.44995 0.11357 0.0
H675 H 0.127 0.36173 0.12248 0.0
H676 H 0.08042 0.37759 0.11515 0.0
H677 H 0.17555 0.36553 0.08877 0.0
H678 H 0.15929 0.4026 0.18033 0.0
H679 H 0.15211 0.43982 0.21261 0.0
H680 H 0.23926 0.49632 0.18789 0.0
H681 H 0.24672 0.45964 0.1552 0.0
C682 C 0.27985 0.31934 0.15614 0.0
C683 C 0.30924 0.33698 0.16274 0.0
C684 C 0.25733 0.33143 0.14508 0.0
C685 C 0.26398 0.36138 0.14002 0.0
C686 C 0.29392 0.37887 0.14552 0.0
C687 C 0.31641 0.36671 0.1569 0.0
C688 C 0.23882 0.37449 0.1319 0.0
C689 C 0.23391 0.39626 0.14904 0.0
C690 C 0.21778 0.3636 0.10955 0.0
C691 C 0.22277 0.34199 0.08949 0.0
C692 C 0.25092 0.34676 0.07541 0.0
C693 C 0.25562 0.32623 0.05676 0.0
C694 C 0.23227 0.30089 0.05188 0.0
C695 C 0.20415 0.29606 0.06559 0.0
C696 C 0.19934 0.31651 0.08428 0.0
C697 C 0.13373 0.44321 0.11047 0.0
C698 C 0.1045 0.42313 0.11084 0.0
C699 C 0.16029 0.43405 0.11418 0.0
C700 C 0.15821 0.40467 0.11877 0.0
C701 C 0.12912 0.38453 0.11901 0.0
C702 C 0.10251 0.39366 0.11514 0.0
C703 C 0.18631 0.39492 0.12361 0.0
C704 C 0.19166 0.37379 0.1059 0.0
C705 C 0.20791 0.40652 0.14529 0.0
C706 C 0.20342 0.42849 0.16511 0.0
C707 C 0.17681 0.42306 0.18164 0.0
C708 C 0.17269 0.44406 0.20003 0.0
C709 C 0.19516 0.47048 0.20225 0.0
C710 C 0.22182 0.47592 0.18614 0.0
C711 C 0.22601 0.45502 0.16769 0.0
H712 H 0.19194 0.48669 0.21652 0.0
H713 H 0.23596 0.28501 0.03744 0.0
H714 H 0.62681 0.3633 0.9308 0.0
H715 H 0.61685 0.32185 0.96422 0.0
H716 H 0.61509 0.26477 0.89457 0.0
H717 H 0.62583 0.30621 0.86154 0.0
H718 H 0.56996 0.27534 0.97066 0.0
H719 H 0.64261 0.20861 0.91523 0.0
H720 H 0.69133 0.21822 0.88925 0.0
H721 H 0.72342 0.30104 0.92841 0.0
H722 H 0.67514 0.29175 0.95488 0.0
H723 H 0.51453 0.12874 1.0122 0.0
H724 H 0.53203 0.17501 0.98702 0.0
H725 H 0.62392 0.18512 1.01975 0.0
H726 H 0.60666 0.13825 0.04441 0.0
H727 H 0.62918 0.20258 0.96861 0.0
H728 H 0.57433 0.22471 0.04488 0.0
H729 H 0.53175 0.22057 0.07805 0.0
H730 H 0.47392 0.23509 1.00941 0.0
H731 H 0.51599 0.23887 0.97572 0.0
C732 C 0.62471 0.34192 0.92279 0.0
C733 C 0.62708 0.33797 0.89356 0.0
C734 C 0.61871 0.31817 0.94185 0.0
C735 C 0.61523 0.28996 0.9321 0.0
C736 C 0.61795 0.28618 0.90286 0.0
C737 C 0.62391 0.30986 0.8839 0.0
C738 C 0.60831 0.26433 0.95215 0.0
C739 C 0.58291 0.25944 0.97018 0.0
C740 C 0.62586 0.244 0.95261 0.0
C741 C 0.65511 0.24954 0.93689 0.0
C742 C 0.66012 0.2288 0.9184 0.0
C743 C 0.68766 0.23421 0.90356 0.0
C744 C 0.71043 0.26025 0.90712 0.0
C745 C 0.70575 0.28091 0.9256 0.0
C746 C 0.67829 0.27559 0.9405 0.0
C747 C 0.5385 0.14075 1.01415 0.0
C748 C 0.5591 0.12956 0.03051 0.0
C749 C 0.54849 0.16747 0.99981 0.0
C750 C 0.57931 0.18416 1.00169 0.0
C751 C 0.60002 0.17292 1.01784 0.0
C752 C 0.59008 0.14601 0.03203 0.0
C753 C 0.58991 0.21283 0.98626 0.0
C754 C 0.61613 0.21839 0.96913 0.0
C755 C 0.57385 0.23436 0.98758 0.0
C756 C 0.54829 0.23181 1.0077 0.0
C757 C 0.55245 0.22676 0.0368 0.0
C758 C 0.52842 0.22453 0.05571 0.0
C759 C 0.50013 0.2275 0.04583 0.0
C760 C 0.49584 0.23275 1.01702 0.0
C761 C 0.51978 0.23496 0.99801 0.0
H762 H 0.48156 0.22578 0.0605 0.0
H763 H 0.73171 0.26439 0.89559 0.0
H764 H 0.93154 0.72779 0.37538 0.0
H765 H 0.95818 0.7744 0.39637 0.0
H766 H 0.89117 0.81253 0.35765 0.0
H767 H 0.86639 0.76661 0.33523 0.0
H768 H 0.93608 0.85365 0.36266 0.0
H769 H 0.89041 0.78268 0.43357 0.0
H770 H 0.88092 0.73652 0.46037 0.0
H771 H 0.97626 0.75696 0.4848 0.0
H772 H 0.98633 0.80311 0.45786 0.0
H773 H 0.94151 0.95844 0.47337 0.0
H774 H 0.92519 0.91467 0.44454 0.0
H775 H 0.01456 0.90045 0.45599 0.0
H776 H 0.03132 0.94459 0.48395 0.0
H777 H 0.96096 0.84851 0.46504 0.0
H778 H 1.00184 0.92432 0.39584 0.0
H779 H 1.00522 0.97096 0.37154 0.0
H780 H 0.91006 0.94114 0.34701 0.0
H781 H 0.906 0.89446 0.37155 0.0
C782 C 0.9237 0.74659 0.36998 0.0
C783 C 0.89715 0.74338 0.35292 0.0
C784 C 0.93831 0.77325 0.38288 0.0
C785 C 0.92621 0.79739 0.38 0.0
C786 C 0.90133 0.79476 0.36084 0.0
C787 C 0.8873 0.76839 0.34745 0.0
C788 C 0.938 0.8246 0.3977 0.0
C789 C 0.94113 0.85216 0.3851 0.0
C790 C 0.94507 0.82374 0.42723 0.0
C791 C 0.93918 0.79609 0.44341 0.0
C792 C 0.90937 0.7772 0.44451 0.0
C793 C 0.90388 0.75108 0.45974 0.0
C794 C 0.928 0.74376 0.47419 0.0
C795 C 0.95762 0.76262 0.47353 0.0
C796 C 0.96323 0.78876 0.4583 0.0
C797 C 0.95774 0.94603 0.46982 0.0
C798 C 0.98786 0.95537 0.48114 0.0
C799 C 0.94836 0.92091 0.45318 0.0
C800 C 0.96854 0.90392 0.44784 0.0
C801 C 0.99839 0.9129 0.45963 0.0
C802 C 0.00801 0.93835 0.47564 0.0
C803 C 0.95869 0.87703 0.42993 0.0
C804 C 0.95593 0.8497 0.44256 0.0
C805 C 0.95106 0.87806 0.4007 0.0
C806 C 0.95355 0.90601 0.38578 0.0
C807 C 0.98157 0.9278 0.38548 0.0
C808 C 0.98362 0.95423 0.37162 0.0
C809 C 0.95785 0.95904 0.3578 0.0
C810 C 0.92999 0.9374 0.35775 0.0
C811 C 0.92781 0.91095 0.37161 0.0
H812 H 0.95949 0.97951 0.34708 0.0
H813 H 0.92371 0.72353 0.48597 0.0
H814 H 0.25695 0.80221 0.67468 0.0
H815 H 0.28636 0.77213 0.65388 0.0
H816 H 0.23385 0.69843 0.70224 0.0
H817 H 0.2046 0.72902 0.72325 0.0
H818 H 0.29393 0.70395 0.70719 0.0
H819 H 0.2242 0.70241 0.63026 0.0
H820 H 0.19504 0.72263 0.59459 0.0
H821 H 0.27934 0.77147 0.55655 0.0
H822 H 0.30906 0.7519 0.59227 0.0
H823 H 0.37079 0.61368 0.63821 0.0
H824 H 0.32972 0.63374 0.65384 0.0
H825 H 0.37557 0.71591 0.61503 0.0
H826 H 0.41638 0.69582 0.59881 0.0
H827 H 0.31316 0.70004 0.60434 0.0
H828 H 0.38213 0.70597 0.68485 0.0
H829 H 0.41143 0.68635 0.72092 0.0
H830 H 0.32762 0.62899 0.75209 0.0
H831 H 0.29785 0.64803 0.71592 0.0
C832 C 0.25141 0.77945 0.68031 0.0
C833 C 0.22856 0.76763 0.70021 0.0
C834 C 0.2681 0.76228 0.66848 0.0
C835 C 0.262 0.73292 0.67621 0.0
C836 C 0.23879 0.72099 0.69588 0.0
C837 C 0.22211 0.73829 0.70778 0.0
C838 C 0.28145 0.71545 0.66514 0.0
C839 C 0.29759 0.70252 0.68466 0.0
C840 C 0.28666 0.7141 0.63578 0.0
C841 C 0.26888 0.72581 0.61409 0.0
C842 C 0.23654 0.71762 0.61442 0.0
C843 C 0.2199 0.72895 0.59417 0.0
C844 C 0.23532 0.74836 0.57334 0.0
C845 C 0.26742 0.75644 0.5727 0.0
C846 C 0.28418 0.7452 0.59293 0.0
C847 C 0.37194 0.63594 0.63277 0.0
C848 C 0.39685 0.65324 0.61739 0.0
C849 C 0.34858 0.64739 0.64185 0.0
C850 C 0.34977 0.67634 0.63574 0.0
C851 C 0.37428 0.69351 0.61996 0.0
C852 C 0.3977 0.6821 0.61095 0.0
C853 C 0.32591 0.68907 0.64641 0.0
C854 C 0.30903 0.70109 0.62682 0.0
C855 C 0.31995 0.68956 0.67569 0.0
C856 C 0.33781 0.67817 0.69748 0.0
C857 C 0.36998 0.689 0.69924 0.0
C858 C 0.38666 0.67802 0.71973 0.0
C859 C 0.3714 0.65637 0.73872 0.0
C860 C 0.33941 0.64572 0.73732 0.0
C861 C 0.32262 0.6566 0.71684 0.0
H862 H 0.38436 0.64791 0.75458 0.0
H863 H 0.2224 0.7571 0.55768 0.0
H864 H 0.70776 0.77308 0.816 0.0
H865 H 0.74329 0.78045 0.77573 0.0
H866 H 0.77912 0.87014 0.79791 0.0
H867 H 0.74396 0.86253 0.83797 0.0
H868 H 0.74661 0.81527 0.72984 0.0
H869 H 0.85412 0.8929 0.786 0.0
H870 H 0.87998 0.89608 0.83272 0.0
H871 H 0.83994 0.80523 0.84736 0.0
H872 H 0.81422 0.80137 0.80057 0.0
H873 H 0.82568 0.92539 0.64123 0.0
H874 H 0.79773 0.89143 0.67667 0.0
H875 H 0.87745 0.86018 0.69216 0.0
H876 H 0.90636 0.89572 0.65781 0.0
H877 H 0.85688 0.86843 0.73975 0.0
H878 H 0.80899 0.81644 0.66108 0.0
H879 H 0.784 0.80711 0.61408 0.0
H880 H 0.70765 0.83512 0.64319 0.0
H881 H 0.73236 0.84506 0.69025 0.0
C882 C 0.72342 0.79422 0.8121 0.0
C883 C 0.72303 0.81741 0.82947 0.0
C884 C 0.7436 0.79843 0.78926 0.0
C885 C 0.76397 0.82579 0.78396 0.0
C886 C 0.76388 0.84877 0.80179 0.0
C887 C 0.74366 0.84457 0.82441 0.0
C888 C 0.78428 0.83128 0.75897 0.0
C889 C 0.77082 0.82658 0.73188 0.0
C890 C 0.81615 0.84472 0.7617 0.0
C891 C 0.83211 0.8469 0.78973 0.0
C892 C 0.851 0.87355 0.79906 0.0
C893 C 0.86559 0.87548 0.82561 0.0
C894 C 0.86155 0.85088 0.84302 0.0
C895 C 0.84297 0.82428 0.8339 0.0
C896 C 0.82836 0.82223 0.80737 0.0
C897 C 0.83733 0.91129 0.65209 0.0
C898 C 0.86842 0.9136 0.64689 0.0
C899 C 0.8211 0.89145 0.67209 0.0
C900 C 0.83526 0.87286 0.68695 0.0
C901 C 0.86595 0.87421 0.68095 0.0
C902 C 0.88238 0.89438 0.66109 0.0
C903 C 0.81872 0.85431 0.71053 0.0
C904 C 0.8329 0.85648 0.73745 0.0
C905 C 0.78777 0.83756 0.70752 0.0
C906 C 0.77262 0.83156 0.67924 0.0
C907 C 0.78695 0.82078 0.65744 0.0
C908 C 0.77282 0.81536 0.63077 0.0
C909 C 0.74426 0.82053 0.62565 0.0
C910 C 0.72976 0.83109 0.6472 0.0
C911 C 0.74379 0.83656 0.6739 0.0
H912 H 0.73337 0.81633 0.60498 0.0
H913 H 0.87285 0.85244 0.86356 0.0
H914 H 0.85616 0.30846 0.33468 0.0
H915 H 0.8423 0.28096 0.29077 0.0
H916 H 0.79909 0.20455 0.34017 0.0
H917 H 0.81268 0.23216 0.38374 0.0
H918 H 0.82735 0.19168 0.29231 0.0
H919 H 0.75549 0.24689 0.31648 0.0
H920 H 0.74132 0.29147 0.32705 0.0
H921 H 0.7795 0.32961 0.24811 0.0
H922 H 0.79373 0.28505 0.23697 0.0
H923 H 0.70027 0.10709 0.21896 0.0
H924 H 0.73787 0.13762 0.25067 0.0
H925 H 0.75879 0.20518 0.18647 0.0
H926 H 0.72034 0.17467 0.15469 0.0
H927 H 0.75166 0.22691 0.23478 0.0
H928 H 0.812 0.16589 0.20614 0.0
H929 H 0.82357 0.12 0.19563 0.0
H930 H 0.80746 0.09229 0.28246 0.0
H931 H 0.79523 0.13776 0.29335 0.0
C932 C 0.84447 0.2856 0.33596 0.0
C933 C 0.83539 0.27229 0.36231 0.0
C934 C 0.83651 0.26996 0.31102 0.0
C935 C 0.81931 0.24082 0.31224 0.0
C936 C 0.81241 0.22698 0.33875 0.0
C937 C 0.82027 0.24266 0.36361 0.0
C938 C 0.80515 0.22564 0.28631 0.0
C939 C 0.81085 0.19934 0.27964 0.0
C940 C 0.78423 0.23604 0.26934 0.0
C941 C 0.77597 0.26285 0.27606 0.0
C942 C 0.76101 0.26486 0.30147 0.0
C943 C 0.75288 0.29008 0.30752 0.0
C944 C 0.75966 0.31345 0.28838 0.0
C945 C 0.77436 0.31154 0.26298 0.0
C946 C 0.78237 0.28627 0.25673 0.0
C947 C 0.71321 0.12828 0.21141 0.0
C948 C 0.70755 0.13844 0.18428 0.0
C949 C 0.73486 0.14568 0.22952 0.0
C950 C 0.75177 0.17348 0.22076 0.0
C951 C 0.74622 0.18371 0.1936 0.0
C952 C 0.72422 0.16635 0.17552 0.0
C953 C 0.77327 0.19245 0.24098 0.0
C954 C 0.76884 0.2195 0.24674 0.0
C955 C 0.79538 0.18269 0.25702 0.0
C956 C 0.80274 0.15528 0.25057 0.0
C957 C 0.81078 0.14995 0.22296 0.0
C958 C 0.81745 0.124 0.21693 0.0
C959 C 0.81627 0.10325 0.23836 0.0
C960 C 0.80843 0.1084 0.26588 0.0
C961 C 0.8017 0.13429 0.27201 0.0
H962 H 0.82143 0.08318 0.23365 0.0
H963 H 0.75341 0.33298 0.29318 0.0
H964 H 0.4162 0.67139 0.25116 0.0
H965 H 0.43473 0.64968 0.29306 0.0
H966 H 0.3855 0.69234 0.34698 0.0
H967 H 0.36694 0.71387 0.30481 0.0
H968 H 0.44146 0.68947 0.37174 0.0
H969 H 0.35186 0.62282 0.33075 0.0
H970 H 0.32032 0.59414 0.29276 0.0
H971 H 0.39149 0.55303 0.27746 0.0
H972 H 0.42332 0.58125 0.31561 0.0
H973 H 0.43373 0.59647 0.49305 0.0
H974 H 0.42113 0.62429 0.45283 0.0
H975 H 0.45882 0.57465 0.39555 0.0
H976 H 0.47079 0.54632 0.43557 0.0
H977 H 0.40908 0.58223 0.37266 0.0
H978 H 0.49759 0.6465 0.41588 0.0
H979 H 0.52843 0.67399 0.45486 0.0
H980 H 0.46071 0.72024 0.46567 0.0
H981 H 0.42924 0.69273 0.42699 0.0
C982 C 0.41053 0.6771 0.27205 0.0
C983 C 0.3907 0.69482 0.27476 0.0
C984 C 0.42065 0.6643 0.29601 0.0
C985 C 0.41115 0.66886 0.32337 0.0
C986 C 0.39321 0.68836 0.32625 0.0
C987 C 0.38291 0.701 0.30218 0.0
C988 C 0.41795 0.65168 0.34846 0.0
C989 C 0.43409 0.66603 0.37206 0.0
C990 C 0.40891 0.62102 0.34895 0.0
C991 C 0.39005 0.60431 0.32581 0.0
C992 C 0.36084 0.60777 0.31917 0.0
C993 C 0.34287 0.59152 0.29771 0.0
C994 C 0.35397 0.57191 0.2826 0.0
C995 C 0.38296 0.5683 0.28912 0.0
C996 C 0.4009 0.5843 0.31075 0.0
C997 C 0.43917 0.59128 0.47189 0.0
C998 C 0.45334 0.56899 0.46777 0.0
C999 C 0.43217 0.60747 0.4488 0.0
C1000 C 0.43946 0.60214 0.42088 0.0
C1001 C 0.45296 0.57945 0.41671 0.0
C1002 C 0.45982 0.56317 0.43975 0.0
C1003 C 0.43289 0.61992 0.39605 0.0
C1004 C 0.41665 0.60566 0.37244 0.0
C1005 C 0.44197 0.65065 0.39558 0.0
C1006 C 0.46091 0.66735 0.41873 0.0
C1007 C 0.48917 0.66239 0.42671 0.0
C1008 C 0.50678 0.678 0.44873 0.0
C1009 C 0.4965 0.6988 0.46278 0.0
C1010 C 0.46863 0.70409 0.45479 0.0
C1011 C 0.4509 0.68852 0.4328 0.0
H1012 H 0.51017 0.71085 0.47983 0.0
H1013 H 0.34007 0.55945 0.2659 0.0
H1014 H 0.16054 0.40888 0.80125 0.0
H1015 H 0.14341 0.43134 0.84149 0.0
H1016 H 0.0501 0.40341 0.80991 0.0
H1017 H 0.0679 0.38355 0.7682 0.0
H1018 H 0.0527 0.44964 0.83095 0.0
H1019 H 0.08467 0.37173 0.8726 0.0
H1020 H 0.11908 0.34106 0.88391 0.0
H1021 H 0.18402 0.41299 0.92256 0.0
H1022 H 0.15015 0.4442 0.91117 0.0
H1023 H 0.03257 0.46059 0.99833 0.0
H1024 H 0.04913 0.43755 0.95795 0.0
H1025 H 0.05512 0.51425 0.90687 0.0
H1026 H 0.03673 0.53641 0.94656 0.0
H1027 H 0.0935 0.44072 0.92784 0.0
H1028 H 0.04987 0.50362 0.83707 0.0
H1029 H 0.00745 0.52578 0.82757 0.0
H1030 H 0.95227 0.46938 0.88986 0.0
H1031 H 0.9942 0.44665 0.89947 0.0
C1032 C 0.1364 0.40777 0.80263 0.0
C1033 C 0.11576 0.39402 0.78115 0.0
C1034 C 0.12636 0.42029 0.8262 0.0
C1035 C 0.095 0.41881 0.8299 0.0
C1036 C 0.07438 0.4051 0.8083 0.0
C1037 C 0.08456 0.39316 0.78439 0.0
C1038 C 0.08384 0.43185 0.85569 0.0
C1039 C 0.06181 0.44755 0.85205 0.0
C1040 C 0.09454 0.429 0.88392 0.0
C1041 C 0.11501 0.41036 0.89077 0.0
C1042 C 0.10638 0.38105 0.88335 0.0
C1043 C 0.12578 0.36357 0.88979 0.0
C1044 C 0.15376 0.37509 0.90388 0.0
C1045 C 0.16236 0.40411 0.91161 0.0
C1046 C 0.14307 0.4217 0.90518 0.0
C1047 C 0.0373 0.47256 0.97847 0.0
C1048 C 0.03288 0.50045 0.97599 0.0
C1049 C 0.04695 0.4593 0.95514 0.0
C1050 C 0.05298 0.47349 0.92842 0.0
C1051 C 0.0497 0.50187 0.92642 0.0
C1052 C 0.03939 0.51484 0.9495 0.0
C1053 C 0.06272 0.45883 0.90301 0.0
C1054 C 0.08445 0.44283 0.90672 0.0
C1055 C 0.05074 0.46032 0.87504 0.0
C1056 C 0.02531 0.47367 0.86919 0.0
C1057 C 0.02864 0.49589 0.84866 0.0
C1058 C 1.00469 0.50855 0.84327 0.0
C1059 C 0.97723 0.49906 0.85817 0.0
C1060 C 0.9736 0.47679 0.87841 0.0
C1061 C 0.99745 0.46402 0.88385 0.0
H1062 H 0.95873 0.50892 0.85399 0.0
H1063 H 0.16874 0.36152 0.90886 0.0
H1064 H 0.68916 0.85438 0.92871 0.0
H1065 H 0.66225 0.88409 0.95387 0.0
H1066 H 0.58449 0.85615 0.89693 0.0
H1067 H 0.61152 0.82602 0.87201 0.0
H1068 H 0.60236 0.91584 0.9048 0.0
H1069 H 0.57804 0.82973 0.96197 0.0
H1070 H 0.58904 0.78941 0.98934 0.0
H1071 H 0.64626 0.84953 0.04695 0.0
H1072 H 0.63601 0.89026 1.01965 0.0
H1073 H 0.51626 0.9868 0.99109 0.0
H1074 H 0.5321 0.95127 0.9629 0.0
H1075 H 0.61226 0.96072 1.01671 0.0
H1076 H 0.59633 0.99552 0.04519 0.0
H1077 H 0.58565 0.90575 1.00856 0.0
H1078 H 0.61544 0.99157 0.94881 0.0
H1079 H 0.60666 0.03262 0.92099 0.0
H1080 H 0.54092 0.97388 0.86831 0.0
H1081 H 0.54904 0.93248 0.89607 0.0
C1082 C 0.66616 0.85437 0.92194 0.0
C1083 C 0.65218 0.83796 0.89869 0.0
C1084 C 0.65085 0.87131 0.93618 0.0
C1085 C 0.62128 0.87213 0.92738 0.0
C1086 C 0.60728 0.85578 0.90404 0.0
C1087 C 0.6226 0.83864 0.88989 0.0
C1088 C 0.60549 0.8906 0.94241 0.0
C1089 C 0.59811 0.91335 0.92739 0.0
C1090 C 0.60045 0.88755 0.97193 0.0
C1091 C 0.6064 0.86307 0.98862 0.0
C1092 C 0.59314 0.83437 0.98036 0.0
C1093 C 0.59922 0.81144 0.99588 0.0
C1094 C 0.61837 0.81691 1.01984 0.0
C1095 C 0.63143 0.84532 0.02837 0.0
C1096 C 0.62546 0.86834 1.0129 0.0
C1097 C 0.53737 0.98144 0.99676 0.0
C1098 C 0.555 0.99397 1.02042 0.0
C1099 C 0.54641 0.96115 0.98062 0.0
C1100 C 0.57345 0.95339 0.98762 0.0
C1101 C 0.59122 0.96621 1.01099 0.0
C1102 C 0.5821 0.98621 0.02722 0.0
C1103 C 0.58333 0.9316 0.97115 0.0
C1104 C 0.5895 0.9081 0.9859 0.0
C1105 C 0.58743 0.9341 0.94143 0.0
C1106 C 0.58257 0.95896 0.92472 0.0
C1107 C 0.59893 0.98743 0.93144 0.0
C1108 C 0.59411 1.01075 0.91565 0.0
C1109 C 0.57317 1.00587 0.89295 0.0
C1110 C 0.55708 0.97764 0.88594 0.0
C1111 C 0.56179 0.95423 0.90168 0.0
H1112 H 0.56948 0.02396 0.88075 0.0
H1113 H 0.62306 0.79912 0.03183 0.0
H1114 H 0.90562 0.28988 0.3923 0.0
H1115 H 0.93732 0.25597 0.40028 0.0
H1116 H 0.86424 0.19994 0.44902 0.0
H1117 H 0.83314 0.23421 0.44167 0.0
H1118 H 0.95085 0.23131 0.46057 0.0
H1119 H 0.861 0.13292 0.41581 0.0
H1120 H 0.81932 0.12308 0.37984 0.0
H1121 H 0.8682 0.19738 0.33116 0.0
H1122 H 0.91038 0.20729 0.36648 0.0
H1123 H 0.95588 0.09899 0.51989 0.0
H1124 H 0.93791 0.13769 0.49821 0.0
H1125 H 0.9848 0.13072 0.42107 0.0
H1126 H 1.00347 0.09165 0.44286 0.0
H1127 H 0.92091 0.13543 0.41483 0.0
H1128 H 0.01761 0.18309 0.45832 0.0
H1129 H 0.05607 0.19296 0.49715 0.0
H1130 H 0.99357 0.2212 0.54944 0.0
H1131 H 0.95441 0.21083 0.5112 0.0
C1132 C 0.89667 0.27037 0.40484 0.0
C1133 C 0.86736 0.26455 0.41671 0.0
C1134 C 0.91464 0.25116 0.40942 0.0
C1135 C 0.90301 0.22558 0.42523 0.0
C1136 C 0.87354 0.21964 0.43681 0.0
C1137 C 0.85591 0.23912 0.43274 0.0
C1138 C 0.9213 0.20467 0.4297 0.0
C1139 C 0.94471 0.21049 0.45034 0.0
C1140 C 0.91326 0.17771 0.41606 0.0
C1141 C 0.88873 0.17097 0.39393 0.0
C1142 C 0.86297 0.14699 0.39729 0.0
C1143 C 0.83923 0.14142 0.37703 0.0
C1144 C 0.84106 0.15964 0.35328 0.0
C1145 C 0.86675 0.18332 0.3496 0.0
C1146 C 0.89056 0.18893 0.36974 0.0
C1147 C 0.96235 0.10539 0.49823 0.0
C1148 C 0.98126 0.09218 0.48314 0.0
C1149 C 0.95208 0.12765 0.48592 0.0
C1150 C 0.96029 0.13721 0.4582 0.0
C1151 C 0.97834 0.12362 0.44258 0.0
C1152 C 0.98899 0.10138 0.45505 0.0
C1153 C 0.95013 0.1618 0.44623 0.0
C1154 C 0.92786 0.15654 0.42445 0.0
C1155 C 0.95925 0.18933 0.4589 0.0
C1156 C 0.98297 0.19603 0.48186 0.0
C1157 C 0.01195 0.19119 0.47816 0.0
C1158 C 0.03388 0.19688 0.50008 0.0
C1159 C 0.02725 0.20768 0.52574 0.0
C1160 C 0.99866 0.21282 0.52954 0.0
C1161 C 0.97659 0.20705 0.50774 0.0
H1162 H 0.04428 0.21214 0.54266 0.0
H1163 H 0.82256 0.15543 0.33776 0.0
H1164 H 0.27624 0.66343 0.23762 0.0
H1165 H 0.23034 0.64137 0.2087 0.0
H1166 H 0.2848 0.66085 0.13303 0.0
H1167 H 0.33074 0.68215 0.16207 0.0
H1168 H 0.22897 0.67686 0.12904 0.0
H1169 H 0.26393 0.59391 0.15628 0.0
H1170 H 0.2806 0.56199 0.1909 0.0
H1171 H 0.19324 0.54356 0.23193 0.0
H1172 H 0.1762 0.57575 0.19784 0.0
H1173 H 0.10676 0.59618 0.03885 0.0
H1174 H 0.15671 0.61695 0.06232 0.0
H1175 H 0.11693 0.58474 0.1431 0.0
H1176 H 0.06797 0.56327 0.11987 0.0
H1177 H 0.1687 0.57452 0.14146 0.0
H1178 H 0.13428 0.65875 0.12018 0.0
H1179 H 0.11623 0.69325 0.08976 0.0
H1180 H 0.19945 0.71143 0.04195 0.0
H1181 H 0.21783 0.67673 0.0719 0.0
C1182 C 0.27835 0.66253 0.21486 0.0
C1183 C 0.30692 0.67434 0.20203 0.0
C1184 C 0.2522 0.6501 0.19835 0.0
C1185 C 0.25413 0.64944 0.16866 0.0
C1186 C 0.28272 0.66122 0.15584 0.0
C1187 C 0.3089 0.67333 0.1724 0.0
C1188 C 0.22627 0.6366 0.15103 0.0
C1189 C 0.216 0.65436 0.1314 0.0
C1190 C 0.20896 0.60745 0.1546 0.0
C1191 C 0.2189 0.58748 0.17466 0.0
C1192 C 0.24834 0.58321 0.1728 0.0
C1193 C 0.25787 0.56508 0.19234 0.0
C1194 C 0.23807 0.55092 0.21371 0.0
C1195 C 0.2086 0.55466 0.21544 0.0
C1196 C 0.19898 0.57281 0.19599 0.0
C1197 C 0.10876 0.59367 0.0616 0.0
C1198 C 0.08339 0.57792 0.0774 0.0
C1199 C 0.1373 0.60562 0.07507 0.0
C1200 C 0.14077 0.60259 0.10465 0.0
C1201 C 0.1152 0.58723 0.12031 0.0
C1202 C 0.08704 0.57498 0.1069 0.0
C1203 C 0.1708 0.6149 0.11968 0.0
C1204 C 0.18164 0.59699 0.13884 0.0
C1205 C 0.18826 0.64409 0.1161 0.0
C1206 C 0.17725 0.66489 0.09804 0.0
C1207 C 0.14861 0.66993 0.10303 0.0
C1208 C 0.13834 0.68955 0.0859 0.0
C1209 C 0.15663 0.70445 0.06387 0.0
C1210 C 0.18528 0.69982 0.05898 0.0
C1211 C 0.19564 0.68019 0.07603 0.0
H1212 H 0.14865 0.71964 0.05065 0.0
H1213 H 0.24548 0.5369 0.22883 0.0
H1214 H 0.21025 0.36594 0.72596 0.0
H1215 H 0.256 0.38551 0.69663 0.0
H1216 H 0.20162 0.42134 0.63782 0.0
H1217 H 0.15628 0.40226 0.66768 0.0
H1218 H 0.27575 0.38138 0.64512 0.0
H1219 H 0.24403 0.48628 0.61146 0.0
H1220 H 0.21346 0.51751 0.62904 0.0
H1221 H 0.22432 0.48877 0.7144 0.0
H1222 H 0.25534 0.45776 0.69739 0.0
H1223 H 0.38566 0.45666 0.54261 0.0
H1224 H 0.33784 0.43266 0.56717 0.0
H1225 H 0.36064 0.49697 0.63214 0.0
H1226 H 0.40793 0.52128 0.6075 0.0
H1227 H 0.30266 0.48637 0.62233 0.0
H1228 H 0.3689 0.4259 0.64112 0.0
H1229 H 0.40315 0.39584 0.62953 0.0
H1230 H 0.3296 0.33788 0.58369 0.0
H1231 H 0.29502 0.36783 0.59471 0.0
C1232 C 0.20803 0.37732 0.70634 0.0
C1233 C 0.17958 0.38205 0.69878 0.0
C1234 C 0.23422 0.38868 0.68959 0.0
C1235 C 0.23275 0.40541 0.66496 0.0
C1236 C 0.20384 0.40898 0.65681 0.0
C1237 C 0.17773 0.39772 0.67364 0.0
C1238 C 0.26156 0.42034 0.64884 0.0
C1239 C 0.28142 0.4043 0.64 0.0
C1240 C 0.26989 0.45049 0.64257 0.0
C1241 C 0.25171 0.46946 0.65308 0.0
C1242 C 0.24 0.48673 0.63399 0.0
C1243 C 0.22259 0.50438 0.64386 0.0
C1244 C 0.21687 0.50505 0.6728 0.0
C1245 C 0.22868 0.48817 0.69197 0.0
C1246 C 0.24616 0.47054 0.68222 0.0
C1247 C 0.38047 0.46584 0.56204 0.0
C1248 C 0.40104 0.49102 0.57293 0.0
C1249 C 0.35305 0.4519 0.57628 0.0
C1250 C 0.34539 0.46255 0.60197 0.0
C1251 C 0.36563 0.48804 0.61249 0.0
C1252 C 0.39294 0.50198 0.59829 0.0
C1253 C 0.3166 0.44732 0.61804 0.0
C1254 C 0.29681 0.46336 0.62706 0.0
C1255 C 0.30879 0.41734 0.6251 0.0
C1256 C 0.32948 0.39927 0.61847 0.0
C1257 C 0.3601 0.40686 0.62839 0.0
C1258 C 0.37956 0.38983 0.62195 0.0
C1259 C 0.36858 0.36501 0.60581 0.0
C1260 C 0.33809 0.35714 0.59615 0.0
C1261 C 0.31855 0.37412 0.60249 0.0
H1262 H 0.38368 0.35185 0.60086 0.0
H1263 H 0.20334 0.51869 0.68039 0.0
H1264 H 0.69213 0.73909 0.88234 0.0
H1265 H 0.7306 0.71326 0.89506 0.0
H1266 H 0.80162 0.79428 0.89414 0.0
H1267 H 0.76303 0.8198 0.88121 0.0
H1268 H 0.82144 0.75283 0.87046 0.0
H1269 H 0.77012 0.76328 0.95584 0.0
H1270 H 0.72526 0.75884 0.98625 0.0
H1271 H 0.70137 0.66642 0.97987 0.0
H1272 H 0.7458 0.67034 0.94894 0.0
H1273 H 0.93496 0.71111 0.95427 0.0
H1274 H 0.89634 0.73413 0.93625 0.0
H1275 H 0.82885 0.6511 0.93429 0.0
H1276 H 0.86748 0.6278 0.95191 0.0
H1277 H 0.80668 0.69233 0.95832 0.0
H1278 H 0.86118 0.6832 0.87417 0.0
H1279 H 0.90653 0.68937 0.844 0.0
H1280 H 0.92571 0.78162 0.84922 0.0
H1281 H 0.88076 0.77602 0.87983 0.0
C1282 C 0.71602 0.75113 0.8848 0.0
C1283 C 0.72488 0.78122 0.88109 0.0
C1284 C 0.73791 0.73652 0.89207 0.0
C1285 C 0.76892 0.75191 0.89598 0.0
C1286 C 0.77785 0.78197 0.89129 0.0
C1287 C 0.75594 0.79652 0.88397 0.0
C1288 C 0.79188 0.73688 0.90589 0.0
C1289 C 0.81841 0.73986 0.88983 0.0
C1290 C 0.78762 0.71957 0.93093 0.0
C1291 C 0.76111 0.71712 0.94982 0.0
C1292 C 0.75518 0.74201 0.96074 0.0
C1293 C 0.72983 0.7396 0.97809 0.0
C1294 C 0.71044 0.71237 0.98494 0.0
C1295 C 0.71639 0.6875 0.9745 0.0
C1296 C 0.74165 0.6898 0.95706 0.0
C1297 C 0.912 0.69768 0.94973 0.0
C1298 C 0.90435 0.66759 0.9545 0.0
C1299 C 0.88993 0.71089 0.93947 0.0
C1300 C 0.8598 0.69429 0.93367 0.0
C1301 C 0.85198 0.66431 0.93865 0.0
C1302 C 0.87405 0.65106 0.94886 0.0
C1303 C 0.83631 0.70831 0.92292 0.0
C1304 C 0.80968 0.70519 0.93888 0.0
C1305 C 0.84067 0.72577 0.89796 0.0
C1306 C 0.86779 0.72916 0.8796 0.0
C1307 C 0.87524 0.7048 0.86914 0.0
C1308 C 0.90085 0.7082 0.85191 0.0
C1309 C 0.91905 0.73587 0.84478 0.0
C1310 C 0.91163 0.7602 0.85481 0.0
C1311 C 0.88609 0.75692 0.8721 0.0
H1312 H 0.93885 0.73845 0.83141 0.0
H1313 H 0.69083 0.71053 0.99838 0.0
H1314 H 0.37133 0.77256 0.25783 0.0
H1315 H 0.39863 0.82048 0.2394 0.0
H1316 H 0.45784 0.78234 0.19203 0.0
H1317 H 0.42897 0.73428 0.20933 0.0
H1318 H 0.4482 0.85873 0.23558 0.0
H1319 H 0.47821 0.81293 0.1326 0.0
H1320 H 0.45985 0.77115 0.10115 0.0
H1321 H 0.36741 0.76006 0.12889 0.0
H1322 H 0.3854 0.80126 0.16114 0.0
H1323 H 0.53034 0.97994 0.15216 0.0
H1324 H 0.5137 0.9341 0.17836 0.0
H1325 H 0.43546 0.90667 0.12197 0.0
H1326 H 0.4527 0.95211 0.09501 0.0
H1327 H 0.45619 0.86351 0.13084 0.0
H1328 H 0.43176 0.93043 0.19362 0.0
H1329 H 0.44154 0.97428 0.22242 0.0
H1330 H 0.50867 0.94608 0.27214 0.0
H1331 H 0.49956 0.90222 0.24339 0.0
C1332 C 0.39116 0.77468 0.24458 0.0
C1333 C 0.3982 0.74973 0.23523 0.0
C1334 C 0.40655 0.80211 0.2336 0.0
C1335 C 0.42971 0.80529 0.21324 0.0
C1336 C 0.43929 0.78066 0.20671 0.0
C1337 C 0.42342 0.75317 0.21727 0.0
C1338 C 0.44191 0.83367 0.19754 0.0
C1339 C 0.45008 0.85964 0.21269 0.0
C1340 C 0.44393 0.83551 0.16751 0.0
C1341 C 0.43319 0.80986 0.14944 0.0
C1342 C 0.45402 0.80135 0.13216 0.0
C1343 C 0.4437 0.77774 0.11431 0.0
C1344 C 0.41252 0.76279 0.11325 0.0
C1345 C 0.39161 0.77139 0.13009 0.0
C1346 C 0.40187 0.79473 0.1483 0.0
C1347 C 0.5095 0.96423 0.14533 0.0
C1348 C 0.49284 0.96993 0.12142 0.0
C1349 C 0.49987 0.93794 0.16052 0.0
C1350 C 0.47293 0.91676 0.15263 0.0
C1351 C 0.45632 0.92243 0.12868 0.0
C1352 C 0.46617 0.94857 0.11325 0.0
C1353 C 0.46236 0.88854 0.16883 0.0
C1354 C 0.45456 0.86262 0.15376 0.0
C1355 C 0.45971 0.88689 0.19881 0.0
C1356 C 0.46521 0.9132 0.21616 0.0
C1357 C 0.44877 0.93369 0.21056 0.0
C1358 C 0.45417 0.95852 0.2269 0.0
C1359 C 0.47578 0.963 0.24905 0.0
C1360 C 0.49198 0.9426 0.25495 0.0
C1361 C 0.48669 0.91774 0.23866 0.0
H1362 H 0.47992 0.98224 0.26167 0.0
H1363 H 0.40452 0.74465 0.09926 0.0
H1364 H 0.12409 0.34842 0.66443 0.0
H1365 H 0.11222 0.30518 0.6351 0.0
H1366 H 0.11401 0.2525 0.70995 0.0
H1367 H 0.12896 0.29615 0.73851 0.0
H1368 H 0.13265 0.22735 0.67354 0.0
H1369 H 0.04403 0.26329 0.66942 0.0
H1370 H 0.01356 0.29798 0.66027 0.0
H1371 H 0.03723 0.30278 0.57224 0.0
H1372 H 0.06824 0.26844 0.58094 0.0
H1373 H 0.03936 0.09402 0.61517 0.0
H1374 H 0.05663 0.13926 0.64135 0.0
H1375 H 0.08456 0.1862 0.56318 0.0
H1376 H 0.06778 0.14092 0.53689 0.0
H1377 H 0.05123 0.21382 0.59938 0.0
H1378 H 0.138 0.17371 0.60653 0.0
H1379 H 0.16294 0.13522 0.61817 0.0
H1380 H 0.13534 0.13441 0.70483 0.0
H1381 H 0.10985 0.17262 0.69362 0.0
C1382 C 0.12251 0.32767 0.67451 0.0
C1383 C 0.12694 0.32587 0.70403 0.0
C1384 C 0.11503 0.30261 0.65774 0.0
C1385 C 0.11082 0.27471 0.67 0.0
C1386 C 0.11656 0.27324 0.69944 0.0
C1387 C 0.12486 0.29834 0.71601 0.0
C1388 C 0.10062 0.2472 0.65257 0.0
C1389 C 0.11451 0.22456 0.65766 0.0
C1390 C 0.07719 0.24275 0.63117 0.0
C1391 C 0.05882 0.26362 0.62593 0.0
C1392 C 0.04297 0.27195 0.64816 0.0
C1393 C 0.02557 0.29152 0.64305 0.0
C1394 C 0.02357 0.30267 0.61571 0.0
C1395 C 0.0389 0.29421 0.59342 0.0
C1396 C 0.0564 0.27471 0.59843 0.0
C1397 C 0.04921 0.11391 0.60345 0.0
C1398 C 0.05223 0.11348 0.57376 0.0
C1399 C 0.0592 0.13992 0.61855 0.0
C1400 C 0.07216 0.16651 0.60447 0.0
C1401 C 0.07472 0.16621 0.57476 0.0
C1402 C 0.06523 0.14013 0.55969 0.0
C1403 C 0.08309 0.19441 0.62072 0.0
C1404 C 0.06936 0.21695 0.61532 0.0
C1405 C 0.10601 0.19846 0.64233 0.0
C1406 C 0.12179 0.17585 0.64918 0.0
C1407 C 0.13708 0.16519 0.62803 0.0
C1408 C 0.15134 0.14344 0.63455 0.0
C1409 C 0.15066 0.13233 0.66221 0.0
C1410 C 0.13582 0.14302 0.68342 0.0
C1411 C 0.12149 0.16474 0.677 0.0
H1412 H 0.16168 0.11547 0.66722 0.0
H1413 H 0.01005 0.31779 0.61179 0.0
H1414 H 0.7643 0.2795 0.43801 0.0
H1415 H 0.7212 0.29649 0.45472 0.0
H1416 H 0.77768 0.38465 0.44873 0.0
H1417 H 0.82067 0.36736 0.43182 0.0
H1418 H 0.73935 0.37201 0.4979 0.0
H1419 H 0.73232 0.36121 0.39648 0.0
H1420 H 0.7302 0.33533 0.35165 0.0
H1421 H 0.64907 0.27141 0.3793 0.0
H1422 H 0.65094 0.29673 0.42449 0.0
H1423 H 0.62308 0.44555 0.4892 0.0
H1424 H 0.66742 0.42679 0.48272 0.0
H1425 H 0.60704 0.34057 0.47486 0.0
H1426 H 0.56248 0.3593 0.48119 0.0
H1427 H 0.64765 0.35127 0.43428 0.0
H1428 H 0.65336 0.36096 0.53501 0.0
H1429 H 0.65521 0.38506 0.58083 0.0
H1430 H 0.7374 0.44916 0.55589 0.0
H1431 H 0.73603 0.42542 0.50985 0.0
C1432 C 0.76748 0.3024 0.44099 0.0
C1433 C 0.79547 0.32226 0.43401 0.0
C1434 C 0.743 0.3121 0.45032 0.0
C1435 C 0.74625 0.34182 0.45272 0.0
C1436 C 0.7748 0.36163 0.44707 0.0
C1437 C 0.79924 0.35187 0.43751 0.0
C1438 C 0.71922 0.35223 0.45909 0.0
C1439 C 0.71939 0.36779 0.48389 0.0
C1440 C 0.69298 0.34605 0.44109 0.0
C1441 C 0.69194 0.33071 0.41399 0.0
C1442 C 0.7142 0.34148 0.39312 0.0
C1443 C 0.713 0.32694 0.36761 0.0
C1444 C 0.68954 0.3017 0.36265 0.0
C1445 C 0.66724 0.29095 0.38319 0.0
C1446 C 0.66834 0.3054 0.40874 0.0
C1447 C 0.61925 0.42252 0.48652 0.0
C1448 C 0.58925 0.40388 0.48577 0.0
C1449 C 0.64465 0.41181 0.48286 0.0
C1450 C 0.64063 0.3822 0.47866 0.0
C1451 C 0.61071 0.3635 0.47809 0.0
C1452 C 0.58527 0.37423 0.48161 0.0
C1453 C 0.66751 0.37103 0.47328 0.0
C1454 C 0.66744 0.35539 0.44849 0.0
C1455 C 0.69371 0.37699 0.49142 0.0
C1456 C 0.69443 0.39156 0.51889 0.0
C1457 C 0.67169 0.38033 0.53921 0.0
C1458 C 0.6727 0.39387 0.56525 0.0
C1459 C 0.69634 0.41868 0.57124 0.0
C1460 C 0.71909 0.42995 0.55121 0.0
C1461 C 0.71826 0.41641 0.52517 0.0
H1462 H 0.69707 0.42915 0.59142 0.0
H1463 H 0.68853 0.29053 0.34285 0.0
loop_
_geom_bond_atom_site_label_1
_geom_bond_atom_site_label_2
_geom_bond_distance
_geom_bond_site_symmetry_2
_ccdc_geom_bond_type
C0 N1 1.317 . S
C0 N2 1.348 . S
C0 C3 1.485 . S
N1 C0 1.317 . S
N1 N5 1.370 . S
N2 C0 1.348 . S
N2 C4 1.346 . S
C3 C0 1.485 . S
C3 H7 0.960 . S
C3 H8 0.961 . S
C3 H9 0.960 . S
C4 N2 1.346 . S
C4 N5 1.307 . S
C4 C6 1.486 . S
N5 N1 1.370 . S
N5 C4 1.307 . S
C6 C4 1.486 . S
C6 H10 0.960 . S
C6 H11 0.960 . S
C6 H12 0.959 . S
H7 C3 0.960 . S
H8 C3 0.961 . S
H9 C3 0.960 . S
H10 C6 0.960 . S
H11 C6 0.960 . S
H12 C6 0.959 . S
C13 N14 1.317 . S
C13 N15 1.348 . S
C13 C16 1.485 . S
N14 C13 1.317 . S
N14 N18 1.370 . S
N15 C13 1.348 . S
N15 C17 1.346 . S
C16 C13 1.485 . S
C16 H20 0.960 . S
C16 H21 0.961 . S
C16 H22 0.960 . S
C17 N15 1.346 . S
C17 N18 1.307 . S
C17 C19 1.486 . S
N18 N14 1.370 . S
N18 C17 1.307 . S
C19 C17 1.486 . S
C19 H23 0.960 . S
C19 H24 0.960 . S
C19 H25 0.959 . S
H20 C16 0.960 . S
H21 C16 0.961 . S
H22 C16 0.960 . S
H23 C19 0.960 . S
H24 C19 0.960 . S
H25 C19 0.959 . S
C26 N27 1.317 . S
C26 N28 1.348 . S
C26 C29 1.485 . S
N27 C26 1.317 . S
N27 N31 1.370 . S
N28 C26 1.348 . S
N28 C30 1.346 . S
C29 C26 1.485 . S
C29 H33 0.960 . S
C29 H34 0.961 . S
C29 H35 0.960 . S
C30 N28 1.346 . S
C30 N31 1.307 . S
C30 C32 1.486 . S
N31 N27 1.370 . S
N31 C30 1.307 . S
C32 C30 1.486 . S
C32 H36 0.960 . S
C32 H37 0.960 . S
C32 H38 0.959 . S
H33 C29 0.960 . S
H34 C29 0.961 . S
H35 C29 0.960 . S
H36 C32 0.960 . S
H37 C32 0.960 . S
H38 C32 0.959 . S
C39 N40 1.317 . S
C39 N41 1.348 . S
C39 C42 1.485 . S
N40 C39 1.317 . S
N40 N44 1.370 . S
N41 C39 1.348 . S
N41 C43 1.346 . S
C42 C39 1.485 . S
C42 H46 0.960 . S
C42 H47 0.961 . S
C42 H48 0.960 . S
C43 N41 1.346 . S
C43 N44 1.307 . S
C43 C45 1.486 . S
N44 N40 1.370 . S
N44 C43 1.307 . S
C45 C43 1.486 . S
C45 H49 0.960 . S
C45 H50 0.960 . S
C45 H51 0.959 . S
H46 C42 0.960 . S
H47 C42 0.961 . S
H48 C42 0.960 . S
H49 C45 0.960 . S
H50 C45 0.960 . S
H51 C45 0.959 . S
C52 N53 1.317 . S
C52 N54 1.348 . S
C52 C55 1.485 . S
N53 C52 1.317 . S
N53 N57 1.370 . S
N54 C52 1.348 . S
N54 C56 1.346 . S
C55 C52 1.485 . S
C55 H59 0.960 . S
C55 H60 0.961 . S
C55 H61 0.960 . S
C56 N54 1.346 . S
C56 N57 1.307 . S
C56 C58 1.486 . S
N57 N53 1.370 . S
N57 C56 1.307 . S
C58 C56 1.486 . S
C58 H62 0.960 . S
C58 H63 0.960 . S
C58 H64 0.959 . S
H59 C55 0.960 . S
H60 C55 0.961 . S
H61 C55 0.960 . S
H62 C58 0.960 . S
H63 C58 0.960 . S
H64 C58 0.959 . S
C65 N66 1.317 . S
C65 N67 1.348 . S
C65 C68 1.485 . S
N66 C65 1.317 . S
N66 N70 1.370 . S
N67 C65 1.348 . S
N67 C69 1.346 . S
C68 C65 1.485 . S
C68 H72 0.960 . S
C68 H73 0.961 . S
C68 H74 0.960 . S
C69 N67 1.346 . S
C69 N70 1.307 . S
C69 C71 1.486 . S
N70 N66 1.370 . S
N70 C69 1.307 . S
C71 C69 1.486 . S
C71 H75 0.960 . S
C71 H76 0.960 . S
C71 H77 0.959 . S
H72 C68 0.960 . S
H73 C68 0.961 . S
H74 C68 0.960 . S
H75 C71 0.960 . S
H76 C71 0.960 . S
H77 C71 0.959 . S
C78 N79 1.317 . S
C78 N80 1.348 . S
C78 C81 1.485 . S
N79 C78 1.317 . S
N79 N83 1.370 . S
N80 C78 1.348 . S
N80 C82 1.346 . S
C81 C78 1.485 . S
C81 H85 0.960 . S
C81 H86 0.961 . S
C81 H87 0.960 . S
C82 N80 1.346 . S
C82 N83 1.307 . S
C82 C84 1.486 . S
N83 N79 1.370 . S
N83 C82 1.307 . S
C84 C82 1.486 . S
C84 H88 0.960 . S
C84 H89 0.960 . S
C84 H90 0.959 . S
H85 C81 0.960 . S
H86 C81 0.961 . S
H87 C81 0.960 . S
H88 C84 0.960 . S
H89 C84 0.960 . S
H90 C84 0.959 . S
C91 N92 1.317 . S
C91 N93 1.348 . S
C91 C94 1.485 . S
N92 C91 1.317 . S
N92 N96 1.370 . S
N93 C91 1.348 . S
N93 C95 1.346 . S
C94 C91 1.485 . S
C94 H98 0.960 . S
C94 H99 0.961 . S
C94 H100 0.960 . S
C95 N93 1.346 . S
C95 N96 1.307 . S
C95 C97 1.486 . S
N96 N92 1.370 . S
N96 C95 1.307 . S
C97 C95 1.486 . S
C97 H101 0.960 . S
C97 H102 0.960 . S
C97 H103 0.959 . S
H98 C94 0.960 . S
H99 C94 0.961 . S
H100 C94 0.960 . S
H101 C97 0.960 . S
H102 C97 0.960 . S
H103 C97 0.959 . S
Dy104 O107 2.307 1_545 S
Dy104 O109 2.395 . S
Dy104 O110 2.379 . S
Dy104 O112 2.339 1_545 S
Dy104 O114 2.298 . S
Dy104 O118 2.275 . S
Dy104 C126 2.738 . S
Dy105 O108 2.298 1_545 S
Dy105 O111 2.275 1_545 S
Dy105 O113 2.307 1_455 S
Dy105 O115 2.395 1_445 S
Dy105 O116 2.379 1_445 S
Dy105 O119 2.339 . S
Dy105 C135 2.738 1_445 S
C106 O118 1.254 . S
C106 O119 1.257 . S
O107 Dy104 2.307 1_565 S
O107 C117 1.266 . S
O108 Dy105 2.298 1_565 S
O108 C117 1.236 . S
O109 Dy104 2.395 . S
O109 C126 1.255 . S
O110 Dy104 2.379 . S
O110 C126 1.249 . S
O111 Dy105 2.275 1_565 S
O111 C127 1.254 . S
O112 Dy104 2.339 1_565 S
O112 C127 1.257 . S
O113 Dy105 2.307 1_655 S
O113 C128 1.266 1_655 S
O114 Dy104 2.298 . S
O114 C128 1.236 . S
O115 Dy105 2.395 1_665 S
O115 C135 1.255 . S
O116 Dy105 2.379 1_665 S
O116 C135 1.249 . S
C117 O107 1.266 . S
C117 O108 1.236 . S
O118 Dy104 2.275 . S
O118 C106 1.254 . S
O119 Dy105 2.339 . S
O119 C106 1.257 . S
C120 C123 1.344 . S
C120 C124 1.328 . S
C120 C126 1.516 . S
C121 C122 1.304 . S
C121 C125 1.323 . S
C122 C121 1.304 . S
C122 C123 1.371 . S
C122 H136 0.930 . S
C123 C120 1.344 . S
C123 C122 1.371 . S
C123 H137 0.931 . S
C124 C120 1.328 . S
C124 C125 1.433 . S
C124 H138 0.931 . S
C125 C121 1.323 . S
C125 C124 1.433 . S
C125 H139 0.933 . S
C126 Dy104 2.738 . S
C126 O109 1.255 . S
C126 O110 1.249 . S
C126 C120 1.516 . S
C127 O111 1.254 . S
C127 O112 1.257 . S
C128 O113 1.266 1_455 S
C128 O114 1.236 . S
C129 C132 1.344 . S
C129 C133 1.328 . S
C129 C135 1.516 . S
C130 C131 1.304 . S
C130 C134 1.323 . S
C131 C130 1.304 . S
C131 C132 1.371 . S
C131 H140 0.930 . S
C132 C129 1.344 . S
C132 C131 1.371 . S
C132 H141 0.931 . S
C133 C129 1.328 . S
C133 C134 1.433 . S
C133 H142 0.931 . S
C134 C130 1.323 . S
C134 C133 1.433 . S
C134 H143 0.933 . S
C135 Dy105 2.738 1_665 S
C135 O115 1.255 . S
C135 O116 1.249 . S
C135 C129 1.516 . S
H136 C122 0.930 . S
H137 C123 0.931 . S
H138 C124 0.931 . S
H139 C125 0.933 . S
H140 C131 0.930 . S
H141 C132 0.931 . S
H142 C133 0.931 . S
H143 C134 0.933 . S
Dy144 O147 2.307 . S
Dy144 O149 2.395 1_545 S
Dy144 O150 2.379 1_554 S
Dy144 O152 2.339 . S
Dy144 O154 2.314 . S
Dy144 O158 2.275 1_545 S
Dy144 C166 2.738 1_544 S
Dy145 O148 2.298 . S
Dy145 O151 2.275 . S
Dy145 O153 2.294 1_545 S
Dy145 O155 2.395 . S
Dy145 O156 2.379 . S
Dy145 O159 2.339 1_545 S
Dy145 C175 2.738 . S
C146 O158 1.254 . S
C146 O159 1.257 . S
O147 Dy144 2.307 . S
O147 C157 1.266 . S
O148 Dy145 2.298 . S
O148 C157 1.236 . S
O149 Dy144 2.395 1_565 S
O149 C166 1.255 1_554 S
O150 Dy144 2.379 1_556 S
O150 C166 1.249 1_545 S
O151 Dy145 2.275 . S
O151 C167 1.254 . S
O152 Dy144 2.339 . S
O152 C167 1.257 . S
O153 Dy145 2.294 1_565 S
O153 C168 1.270 . S
O154 Dy144 2.314 . S
O154 C168 1.222 1_545 S
O155 Dy145 2.395 . S
O155 C175 1.255 . S
O156 Dy145 2.379 . S
O156 C175 1.249 . S
C157 O147 1.266 . S
C157 O148 1.236 . S
O158 Dy144 2.275 1_565 S
O158 C146 1.254 . S
O159 Dy145 2.339 1_565 S
O159 C146 1.257 . S
C160 C163 1.344 . S
C160 C164 1.328 . S
C160 C166 1.516 . S
C161 C162 1.304 . S
C161 C165 1.323 . S
C162 C161 1.304 . S
C162 C163 1.371 . S
C162 H176 0.930 . S
C163 C160 1.344 . S
C163 C162 1.371 . S
C163 H177 0.931 . S
C164 C160 1.328 . S
C164 C165 1.433 . S
C164 H178 0.931 . S
C165 C161 1.323 . S
C165 C164 1.433 . S
C165 H179 0.933 . S
C166 Dy144 2.738 1_566 S
C166 O149 1.255 1_556 S
C166 O150 1.249 1_565 S
C166 C160 1.516 . S
C167 O151 1.254 . S
C167 O152 1.257 . S
C168 O153 1.270 . S
C168 O154 1.222 1_565 S
C169 C172 1.344 . S
C169 C173 1.328 . S
C169 C175 1.516 . S
C170 C171 1.304 . S
C170 C174 1.323 . S
C171 C170 1.304 . S
C171 C172 1.371 . S
C171 H180 0.930 . S
C172 C169 1.344 . S
C172 C171 1.371 . S
C172 H181 0.931 . S
C173 C169 1.328 . S
C173 C174 1.433 . S
C173 H182 0.931 . S
C174 C170 1.323 . S
C174 C173 1.433 . S
C174 H183 0.933 . S
C175 Dy145 2.738 . S
C175 O155 1.255 . S
C175 O156 1.249 . S
C175 C169 1.516 . S
H176 C162 0.930 . S
H177 C163 0.931 . S
H178 C164 0.931 . S
H179 C165 0.933 . S
H180 C171 0.930 . S
H181 C172 0.931 . S
H182 C173 0.931 . S
H183 C174 0.933 . S
Dy184 O187 2.307 . S
Dy184 O189 2.395 . S
Dy184 O190 2.379 . S
Dy184 O192 2.339 . S
Dy184 O194 2.298 . S
Dy184 O198 2.275 . S
Dy184 C206 2.738 . S
Dy185 O188 2.298 . S
Dy185 O191 2.275 . S
Dy185 O193 2.307 . S
Dy185 O195 2.395 . S
Dy185 O196 2.379 . S
Dy185 O199 2.339 . S
Dy185 C215 2.738 . S
C186 O198 1.254 . S
C186 O199 1.257 . S
O187 Dy184 2.307 . S
O187 C197 1.266 . S
O188 Dy185 2.298 . S
O188 C197 1.236 . S
O189 Dy184 2.395 . S
O189 C206 1.255 . S
O190 Dy184 2.379 . S
O190 C206 1.249 . S
O191 Dy185 2.275 . S
O191 C207 1.254 . S
O192 Dy184 2.339 . S
O192 C207 1.257 . S
O193 Dy185 2.307 . S
O193 C208 1.266 . S
O194 Dy184 2.298 . S
O194 C208 1.236 . S
O195 Dy185 2.395 . S
O195 C215 1.255 . S
O196 Dy185 2.379 . S
O196 C215 1.249 . S
C197 O187 1.266 . S
C197 O188 1.236 . S
O198 Dy184 2.275 . S
O198 C186 1.254 . S
O199 Dy185 2.339 . S
O199 C186 1.257 . S
C200 C203 1.344 . S
C200 C204 1.328 . S
C200 C206 1.516 . S
C201 C202 1.304 . S
C201 C205 1.323 . S
C202 C201 1.304 . S
C202 C203 1.371 . S
C202 H216 0.930 . S
C203 C200 1.344 . S
C203 C202 1.371 . S
C203 H217 0.931 . S
C204 C200 1.328 . S
C204 C205 1.433 . S
C204 H218 0.931 . S
C205 C201 1.323 . S
C205 C204 1.433 . S
C205 H219 0.933 . S
C206 Dy184 2.738 . S
C206 O189 1.255 . S
C206 O190 1.249 . S
C206 C200 1.516 . S
C207 O191 1.254 . S
C207 O192 1.257 . S
C208 O193 1.266 . S
C208 O194 1.236 . S
C209 C212 1.344 . S
C209 C213 1.328 . S
C209 C215 1.516 . S
C210 C211 1.304 . S
C210 C214 1.323 . S
C211 C210 1.304 . S
C211 C212 1.371 . S
C211 H220 0.930 . S
C212 C209 1.344 . S
C212 C211 1.371 . S
C212 H221 0.931 . S
C213 C209 1.328 . S
C213 C214 1.433 . S
C213 H222 0.931 . S
C214 C210 1.323 . S
C214 C213 1.433 . S
C214 H223 0.933 . S
C215 Dy185 2.738 . S
C215 O195 1.255 . S
C215 O196 1.249 . S
C215 C209 1.516 . S
H216 C202 0.930 . S
H217 C203 0.931 . S
H218 C204 0.931 . S
H219 C205 0.933 . S
H220 C211 0.930 . S
H221 C212 0.931 . S
H222 C213 0.931 . S
H223 C214 0.933 . S
Dy224 O227 2.307 1_556 S
Dy224 O229 2.395 1_455 S
Dy224 O230 2.379 1_455 S
Dy224 O232 2.339 . S
Dy224 O234 2.298 1_455 S
Dy224 O238 2.275 1_456 S
Dy224 C246 2.738 1_455 S
Dy225 O228 2.298 . S
Dy225 O231 2.275 1_554 S
Dy225 O233 2.307 1_455 S
Dy225 O235 2.395 . S
Dy225 O236 2.379 . S
Dy225 O239 2.339 1_455 S
Dy225 C255 2.738 . S
C226 O238 1.254 . S
C226 O239 1.257 . S
O227 Dy224 2.307 1_554 S
O227 C237 1.266 . S
O228 Dy225 2.298 . S
O228 C237 1.236 . S
O229 Dy224 2.395 1_655 S
O229 C246 1.255 . S
O230 Dy224 2.379 1_655 S
O230 C246 1.249 . S
O231 Dy225 2.275 1_556 S
O231 C247 1.254 . S
O232 Dy224 2.339 . S
O232 C247 1.257 . S
O233 Dy225 2.307 1_655 S
O233 C248 1.266 1_554 S
O234 Dy224 2.298 1_655 S
O234 C248 1.236 . S
O235 Dy225 2.395 . S
O235 C255 1.255 . S
O236 Dy225 2.379 . S
O236 C255 1.249 . S
C237 O227 1.266 . S
C237 O228 1.236 . S
O238 Dy224 2.275 1_654 S
O238 C226 1.254 . S
O239 Dy225 2.339 1_655 S
O239 C226 1.257 . S
C240 C243 1.344 . S
C240 C244 1.328 . S
C240 C246 1.516 . S
C241 C242 1.304 . S
C241 C245 1.323 . S
C242 C241 1.304 . S
C242 C243 1.371 . S
C242 H256 0.930 . S
C243 C240 1.344 . S
C243 C242 1.371 . S
C243 H257 0.931 . S
C244 C240 1.328 . S
C244 C245 1.433 . S
C244 H258 0.931 . S
C245 C241 1.323 . S
C245 C244 1.433 . S
C245 H259 0.933 . S
C246 Dy224 2.738 1_655 S
C246 O229 1.255 . S
C246 O230 1.249 . S
C246 C240 1.516 . S
C247 O231 1.254 . S
C247 O232 1.257 . S
C248 O233 1.266 1_556 S
C248 O234 1.236 . S
C249 C252 1.344 . S
C249 C253 1.328 . S
C249 C255 1.516 . S
C250 C251 1.304 . S
C250 C254 1.323 . S
C251 C250 1.304 . S
C251 C252 1.371 . S
C251 H260 0.930 . S
C252 C249 1.344 . S
C252 C251 1.371 . S
C252 H261 0.931 . S
C253 C249 1.328 . S
C253 C254 1.433 . S
C253 H262 0.931 . S
C254 C250 1.323 . S
C254 C253 1.433 . S
C254 H263 0.933 . S
C255 Dy225 2.738 . S
C255 O235 1.255 . S
C255 O236 1.249 . S
C255 C249 1.516 . S
H256 C242 0.930 . S
H257 C243 0.931 . S
H258 C244 0.931 . S
H259 C245 0.933 . S
H260 C251 0.930 . S
H261 C252 0.931 . S
H262 C253 0.931 . S
H263 C254 0.933 . S
H264 C282 0.951 . S
H265 C284 0.951 . S
H266 C286 0.950 . S
H267 C287 0.950 . S
H268 C289 0.950 . S
H269 C292 0.950 . S
H270 C293 0.950 . S
H271 C295 0.950 . S
H272 C296 0.950 . S
H273 C297 0.951 . S
H274 C299 0.951 . S
H275 C301 0.950 . S
H276 C302 0.950 . S
H277 C304 0.950 . S
H278 C307 0.950 . S
H279 C308 0.950 . S
H280 C310 0.950 . S
H281 C311 0.950 . S
C282 H264 0.951 . S
C282 C283 1.366 . S
C282 C284 1.388 . S
C283 C282 1.366 . S
C283 C287 1.385 . S
C284 H265 0.951 . S
C284 C282 1.388 . S
C284 C285 1.366 . S
C285 C284 1.366 . S
C285 C286 1.414 . S
C285 C288 1.499 . S
C286 H266 0.950 . S
C286 C285 1.414 . S
C286 C287 1.374 . S
C287 H267 0.950 . S
C287 C283 1.385 . S
C287 C286 1.374 . S
C288 C285 1.499 . S
C288 C289 1.373 . S
C288 C290 1.389 . S
C289 H268 0.950 . S
C289 C288 1.373 . S
C289 C305 1.377 . S
C290 C288 1.389 . S
C290 C291 1.524 . S
C290 C304 1.377 . S
C291 C290 1.524 . S
C291 C292 1.397 . S
C291 C296 1.363 . S
C292 H269 0.950 . S
C292 C291 1.397 . S
C292 C293 1.334 . S
C293 H270 0.950 . S
C293 C292 1.334 . S
C293 C294 1.287 . S
C294 C293 1.287 . S
C294 C295 1.524 . S
C294 H313 0.913 . S
C295 H271 0.950 . S
C295 C294 1.524 . S
C295 C296 1.415 . S
C296 H272 0.950 . S
C296 C291 1.363 . S
C296 C295 1.415 . S
C297 H273 0.951 . S
C297 C298 1.366 . S
C297 C299 1.388 . S
C298 C297 1.366 . S
C298 C302 1.385 . S
C299 H274 0.951 . S
C299 C297 1.388 . S
C299 C300 1.366 . S
C300 C299 1.366 . S
C300 C301 1.414 . S
C300 C303 1.499 . S
C301 H275 0.950 . S
C301 C300 1.414 . S
C301 C302 1.374 . S
C302 H276 0.950 . S
C302 C298 1.385 . S
C302 C301 1.374 . S
C303 C300 1.499 . S
C303 C304 1.373 . S
C303 C305 1.389 . S
C304 H277 0.950 . S
C304 C290 1.377 . S
C304 C303 1.373 . S
C305 C289 1.377 . S
C305 C303 1.389 . S
C305 C306 1.524 . S
C306 C305 1.524 . S
C306 C307 1.397 . S
C306 C311 1.363 . S
C307 H278 0.950 . S
C307 C306 1.397 . S
C307 C308 1.334 . S
C308 H279 0.950 . S
C308 C307 1.334 . S
C308 C309 1.287 . S
C309 C308 1.287 . S
C309 C310 1.524 . S
C309 H312 0.999 . S
C310 H280 0.950 . S
C310 C309 1.524 . S
C310 C311 1.415 . S
C311 H281 0.950 . S
C311 C306 1.363 . S
C311 C310 1.415 . S
H312 C309 0.999 . S
H313 C294 0.913 . S
H314 C332 0.951 . S
H315 C334 0.951 . S
H316 C336 0.950 . S
H317 C337 0.950 . S
H318 C339 0.950 . S
H319 C342 0.950 . S
H320 C343 0.950 . S
H321 C345 0.950 . S
H322 C346 0.950 . S
H323 C347 0.951 . S
H324 C349 0.951 . S
H325 C351 0.950 . S
H326 C352 0.950 . S
H327 C354 0.950 . S
H328 C357 0.950 . S
H329 C358 0.950 . S
H330 C360 0.950 . S
H331 C361 0.950 . S
C332 H314 0.951 . S
C332 C333 1.366 . S
C332 C334 1.388 . S
C333 C332 1.366 . S
C333 C337 1.385 . S
C334 H315 0.951 . S
C334 C332 1.388 . S
C334 C335 1.366 . S
C335 C334 1.366 . S
C335 C336 1.414 . S
C335 C338 1.499 . S
C336 H316 0.950 . S
C336 C335 1.414 . S
C336 C337 1.374 . S
C337 H317 0.950 . S
C337 C333 1.385 . S
C337 C336 1.374 . S
C338 C335 1.499 . S
C338 C339 1.373 . S
C338 C340 1.389 . S
C339 H318 0.950 . S
C339 C338 1.373 . S
C339 C355 1.377 . S
C340 C338 1.389 . S
C340 C341 1.524 . S
C340 C354 1.377 . S
C341 C340 1.524 . S
C341 C342 1.397 . S
C341 C346 1.363 . S
C342 H319 0.950 . S
C342 C341 1.397 . S
C342 C343 1.334 . S
C343 H320 0.950 . S
C343 C342 1.334 . S
C343 C344 1.287 . S
C344 C343 1.287 . S
C344 C345 1.524 . S
C344 H363 0.913 . S
C345 H321 0.950 . S
C345 C344 1.524 . S
C345 C346 1.415 . S
C346 H322 0.950 . S
C346 C341 1.363 . S
C346 C345 1.415 . S
C347 H323 0.951 . S
C347 C348 1.366 . S
C347 C349 1.388 . S
C348 C347 1.366 . S
C348 C352 1.385 . S
C349 H324 0.951 . S
C349 C347 1.388 . S
C349 C350 1.366 . S
C350 C349 1.366 . S
C350 C351 1.414 . S
C350 C353 1.499 . S
C351 H325 0.950 . S
C351 C350 1.414 . S
C351 C352 1.374 . S
C352 H326 0.950 . S
C352 C348 1.385 . S
C352 C351 1.374 . S
C353 C350 1.499 . S
C353 C354 1.373 . S
C353 C355 1.389 . S
C354 H327 0.950 . S
C354 C340 1.377 . S
C354 C353 1.373 . S
C355 C339 1.377 . S
C355 C353 1.389 . S
C355 C356 1.524 . S
C356 C355 1.524 . S
C356 C357 1.397 . S
C356 C361 1.363 . S
C357 H328 0.950 . S
C357 C356 1.397 . S
C357 C358 1.334 . S
C358 H329 0.950 . S
C358 C357 1.334 . S
C358 C359 1.287 . S
C359 C358 1.287 . S
C359 C360 1.524 . S
C359 H362 0.999 . S
C360 H330 0.950 . S
C360 C359 1.524 . S
C360 C361 1.415 . S
C361 H331 0.950 . S
C361 C356 1.363 . S
C361 C360 1.415 . S
H362 C359 0.999 . S
H363 C344 0.913 . S
H364 C382 0.951 . S
H365 C384 0.951 . S
H366 C386 0.950 . S
H367 C387 0.950 . S
H368 C389 0.950 . S
H369 C392 0.950 . S
H370 C393 0.950 . S
H371 C395 0.950 . S
H372 C396 0.950 . S
H373 C397 0.951 . S
H374 C399 0.951 . S
H375 C401 0.950 . S
H376 C402 0.950 . S
H377 C404 0.950 . S
H378 C407 0.950 . S
H379 C408 0.950 . S
H380 C410 0.950 . S
H381 C411 0.950 . S
C382 H364 0.951 . S
C382 C383 1.366 . S
C382 C384 1.388 . S
C383 C382 1.366 . S
C383 C387 1.385 . S
C384 H365 0.951 . S
C384 C382 1.388 . S
C384 C385 1.366 . S
C385 C384 1.366 . S
C385 C386 1.414 . S
C385 C388 1.499 . S
C386 H366 0.950 . S
C386 C385 1.414 . S
C386 C387 1.374 . S
C387 H367 0.950 . S
C387 C383 1.385 . S
C387 C386 1.374 . S
C388 C385 1.499 . S
C388 C389 1.373 . S
C388 C390 1.389 . S
C389 H368 0.950 . S
C389 C388 1.373 . S
C389 C405 1.377 . S
C390 C388 1.389 . S
C390 C391 1.524 . S
C390 C404 1.377 . S
C391 C390 1.524 . S
C391 C392 1.397 . S
C391 C396 1.363 . S
C392 H369 0.950 . S
C392 C391 1.397 . S
C392 C393 1.334 . S
C393 H370 0.950 . S
C393 C392 1.334 . S
C393 C394 1.287 . S
C394 C393 1.287 . S
C394 C395 1.524 . S
C394 H413 0.913 . S
C395 H371 0.950 . S
C395 C394 1.524 . S
C395 C396 1.415 . S
C396 H372 0.950 . S
C396 C391 1.363 . S
C396 C395 1.415 . S
C397 H373 0.951 . S
C397 C398 1.366 . S
C397 C399 1.388 . S
C398 C397 1.366 . S
C398 C402 1.385 . S
C399 H374 0.951 . S
C399 C397 1.388 . S
C399 C400 1.366 . S
C400 C399 1.366 . S
C400 C401 1.414 . S
C400 C403 1.499 . S
C401 H375 0.950 . S
C401 C400 1.414 . S
C401 C402 1.374 . S
C402 H376 0.950 . S
C402 C398 1.385 . S
C402 C401 1.374 . S
C403 C400 1.499 . S
C403 C404 1.373 . S
C403 C405 1.389 . S
C404 H377 0.950 . S
C404 C390 1.377 . S
C404 C403 1.373 . S
C405 C389 1.377 . S
C405 C403 1.389 . S
C405 C406 1.524 . S
C406 C405 1.524 . S
C406 C407 1.397 . S
C406 C411 1.363 . S
C407 H378 0.950 . S
C407 C406 1.397 . S
C407 C408 1.334 . S
C408 H379 0.950 . S
C408 C407 1.334 . S
C408 C409 1.287 . S
C409 C408 1.287 . S
C409 C410 1.524 . S
C409 H412 0.999 . S
C410 H380 0.950 . S
C410 C409 1.524 . S
C410 C411 1.415 . S
C411 H381 0.950 . S
C411 C406 1.363 . S
C411 C410 1.415 . S
H412 C409 0.999 . S
H413 C394 0.913 . S
H414 C432 0.951 . S
H415 C434 0.951 . S
H416 C436 0.950 . S
H417 C437 0.950 . S
H418 C439 0.950 . S
H419 C442 0.950 . S
H420 C443 0.950 . S
H421 C445 0.950 . S
H422 C446 0.950 . S
H423 C447 0.951 . S
H424 C449 0.951 . S
H425 C451 0.950 . S
H426 C452 0.950 . S
H427 C454 0.950 . S
H428 C457 0.950 . S
H429 C458 0.950 1_455 S
H430 C460 0.950 . S
H431 C461 0.950 . S
C432 H414 0.951 . S
C432 C433 1.366 . S
C432 C434 1.388 . S
C433 C432 1.366 . S
C433 C437 1.385 . S
C434 H415 0.951 . S
C434 C432 1.388 . S
C434 C435 1.366 . S
C435 C434 1.366 . S
C435 C436 1.414 . S
C435 C438 1.499 . S
C436 H416 0.950 . S
C436 C435 1.414 . S
C436 C437 1.374 . S
C437 H417 0.950 . S
C437 C433 1.385 . S
C437 C436 1.374 . S
C438 C435 1.499 . S
C438 C439 1.373 . S
C438 C440 1.389 . S
C439 H418 0.950 . S
C439 C438 1.373 . S
C439 C455 1.377 . S
C440 C438 1.389 . S
C440 C441 1.524 . S
C440 C454 1.377 . S
C441 C440 1.524 . S
C441 C442 1.397 . S
C441 C446 1.363 . S
C442 H419 0.950 . S
C442 C441 1.397 . S
C442 C443 1.334 . S
C443 H420 0.950 . S
C443 C442 1.334 . S
C443 C444 1.287 . S
C444 C443 1.287 . S
C444 C445 1.524 . S
C444 H463 0.913 . S
C445 H421 0.950 . S
C445 C444 1.524 . S
C445 C446 1.415 . S
C446 H422 0.950 . S
C446 C441 1.363 . S
C446 C445 1.415 . S
C447 H423 0.951 . S
C447 C448 1.366 . S
C447 C449 1.388 . S
C448 C447 1.366 . S
C448 C452 1.385 . S
C449 H424 0.951 . S
C449 C447 1.388 . S
C449 C450 1.366 . S
C450 C449 1.366 . S
C450 C451 1.414 . S
C450 C453 1.499 . S
C451 H425 0.950 . S
C451 C450 1.414 . S
C451 C452 1.374 . S
C452 H426 0.950 . S
C452 C448 1.385 . S
C452 C451 1.374 . S
C453 C450 1.499 . S
C453 C454 1.373 . S
C453 C455 1.389 . S
C454 H427 0.950 . S
C454 C440 1.377 . S
C454 C453 1.373 . S
C455 C439 1.377 . S
C455 C453 1.389 . S
C455 C456 1.524 . S
C456 C455 1.524 . S
C456 C457 1.397 . S
C456 C461 1.363 . S
C457 H428 0.950 . S
C457 C456 1.397 . S
C457 C458 1.334 . S
C458 H429 0.950 1_655 S
C458 C457 1.334 . S
C458 C459 1.287 . S
C459 C458 1.287 . S
C459 C460 1.524 . S
C459 H462 0.999 . S
C460 H430 0.950 . S
C460 C459 1.524 . S
C460 C461 1.415 . S
C461 H431 0.950 . S
C461 C456 1.363 . S
C461 C460 1.415 . S
H462 C459 0.999 . S
H463 C444 0.913 . S
H464 C482 0.951 . S
H465 C484 0.951 . S
H466 C486 0.950 . S
H467 C487 0.950 . S
H468 C489 0.950 . S
H469 C492 0.950 . S
H470 C493 0.950 . S
H471 C495 0.950 . S
H472 C496 0.950 . S
H473 C497 0.951 . S
H474 C499 0.951 . S
H475 C501 0.950 . S
H476 C502 0.950 . S
H477 C504 0.950 . S
H478 C507 0.950 . S
H479 C508 0.950 . S
H480 C510 0.950 . S
H481 C511 0.950 . S
C482 H464 0.951 . S
C482 C483 1.366 . S
C482 C484 1.388 . S
C483 C482 1.366 . S
C483 C487 1.385 . S
C484 H465 0.951 . S
C484 C482 1.388 . S
C484 C485 1.366 . S
C485 C484 1.366 . S
C485 C486 1.414 . S
C485 C488 1.499 . S
C486 H466 0.950 . S
C486 C485 1.414 . S
C486 C487 1.374 . S
C487 H467 0.950 . S
C487 C483 1.385 . S
C487 C486 1.374 . S
C488 C485 1.499 . S
C488 C489 1.373 . S
C488 C490 1.389 . S
C489 H468 0.950 . S
C489 C488 1.373 . S
C489 C505 1.377 . S
C490 C488 1.389 . S
C490 C491 1.524 . S
C490 C504 1.377 . S
C491 C490 1.524 . S
C491 C492 1.397 . S
C491 C496 1.363 . S
C492 H469 0.950 . S
C492 C491 1.397 . S
C492 C493 1.334 . S
C493 H470 0.950 . S
C493 C492 1.334 . S
C493 C494 1.287 . S
C494 C493 1.287 . S
C494 C495 1.524 . S
C494 H513 0.913 . S
C495 H471 0.950 . S
C495 C494 1.524 . S
C495 C496 1.415 . S
C496 H472 0.950 . S
C496 C491 1.363 . S
C496 C495 1.415 . S
C497 H473 0.951 . S
C497 C498 1.366 . S
C497 C499 1.388 . S
C498 C497 1.366 . S
C498 C502 1.385 . S
C499 H474 0.951 . S
C499 C497 1.388 . S
C499 C500 1.366 . S
C500 C499 1.366 . S
C500 C501 1.414 . S
C500 C503 1.499 . S
C501 H475 0.950 . S
C501 C500 1.414 . S
C501 C502 1.374 . S
C502 H476 0.950 . S
C502 C498 1.385 . S
C502 C501 1.374 . S
C503 C500 1.499 . S
C503 C504 1.373 . S
C503 C505 1.389 . S
C504 H477 0.950 . S
C504 C490 1.377 . S
C504 C503 1.373 . S
C505 C489 1.377 . S
C505 C503 1.389 . S
C505 C506 1.524 . S
C506 C505 1.524 . S
C506 C507 1.397 . S
C506 C511 1.363 . S
C507 H478 0.950 . S
C507 C506 1.397 . S
C507 C508 1.334 . S
C508 H479 0.950 . S
C508 C507 1.334 . S
C508 C509 1.287 . S
C509 C508 1.287 . S
C509 C510 1.524 . S
C509 H512 0.999 . S
C510 H480 0.950 . S
C510 C509 1.524 . S
C510 C511 1.415 . S
C511 H481 0.950 . S
C511 C506 1.363 . S
C511 C510 1.415 . S
H512 C509 0.999 . S
H513 C494 0.913 . S
H514 C532 0.951 . S
H515 C534 0.951 . S
H516 C536 0.950 . S
H517 C537 0.950 . S
H518 C539 0.950 . S
H519 C542 0.950 . S
H520 C543 0.950 . S
H521 C545 0.950 . S
H522 C546 0.950 . S
H523 C547 0.951 . S
H524 C549 0.951 . S
H525 C551 0.950 . S
H526 C552 0.950 . S
H527 C554 0.950 . S
H528 C557 0.950 . S
H529 C558 0.950 . S
H530 C560 0.950 . S
H531 C561 0.950 . S
C532 H514 0.951 . S
C532 C533 1.366 . S
C532 C534 1.388 . S
C533 C532 1.366 . S
C533 C537 1.385 . S
C534 H515 0.951 . S
C534 C532 1.388 . S
C534 C535 1.366 . S
C535 C534 1.366 . S
C535 C536 1.414 . S
C535 C538 1.499 . S
C536 H516 0.950 . S
C536 C535 1.414 . S
C536 C537 1.374 . S
C537 H517 0.950 . S
C537 C533 1.385 . S
C537 C536 1.374 . S
C538 C535 1.499 . S
C538 C539 1.373 . S
C538 C540 1.389 . S
C539 H518 0.950 . S
C539 C538 1.373 . S
C539 C555 1.377 . S
C540 C538 1.389 . S
C540 C541 1.524 . S
C540 C554 1.377 . S
C541 C540 1.524 . S
C541 C542 1.397 . S
C541 C546 1.363 . S
C542 H519 0.950 . S
C542 C541 1.397 . S
C542 C543 1.334 . S
C543 H520 0.950 . S
C543 C542 1.334 . S
C543 C544 1.287 . S
C544 C543 1.287 . S
C544 C545 1.524 . S
C544 H563 0.913 . S
C545 H521 0.950 . S
C545 C544 1.524 . S
C545 C546 1.415 . S
C546 H522 0.950 . S
C546 C541 1.363 . S
C546 C545 1.415 . S
C547 H523 0.951 . S
C547 C548 1.366 . S
C547 C549 1.388 . S
C548 C547 1.366 . S
C548 C552 1.385 . S
C549 H524 0.951 . S
C549 C547 1.388 . S
C549 C550 1.366 . S
C550 C549 1.366 . S
C550 C551 1.414 . S
C550 C553 1.499 . S
C551 H525 0.950 . S
C551 C550 1.414 . S
C551 C552 1.374 . S
C552 H526 0.950 . S
C552 C548 1.385 . S
C552 C551 1.374 . S
C553 C550 1.499 . S
C553 C554 1.373 . S
C553 C555 1.389 . S
C554 H527 0.950 . S
C554 C540 1.377 . S
C554 C553 1.373 . S
C555 C539 1.377 . S
C555 C553 1.389 . S
C555 C556 1.524 . S
C556 C555 1.524 . S
C556 C557 1.397 . S
C556 C561 1.363 . S
C557 H528 0.950 . S
C557 C556 1.397 . S
C557 C558 1.334 . S
C558 H529 0.950 . S
C558 C557 1.334 . S
C558 C559 1.287 . S
C559 C558 1.287 . S
C559 C560 1.524 . S
C559 H562 0.982 1_565 S
C560 H530 0.950 . S
C560 C559 1.524 . S
C560 C561 1.415 . S
C561 H531 0.950 . S
C561 C556 1.363 . S
C561 C560 1.415 . S
H562 C559 0.982 1_545 S
H563 C544 0.913 . S
H564 C582 0.951 . S
H565 C584 0.951 . S
H566 C586 0.950 . S
H567 C587 0.950 . S
H568 C589 0.950 . S
H569 C592 0.950 . S
H570 C593 0.950 . S
H571 C595 0.950 . S
H572 C596 0.950 . S
H573 C597 0.977 . S
H574 C599 0.951 . S
H575 C601 0.950 . S
H576 C602 0.950 . S
H577 C604 0.950 . S
H578 C607 0.950 . S
H579 C608 0.950 . S
H580 C610 0.950 . S
H581 C611 0.950 . S
C582 H564 0.951 . S
C582 C583 1.366 . S
C582 C584 1.388 . S
C583 C582 1.366 . S
C583 C587 1.385 . S
C584 H565 0.951 . S
C584 C582 1.388 . S
C584 C585 1.366 . S
C585 C584 1.366 . S
C585 C586 1.414 . S
C585 C588 1.499 . S
C586 H566 0.950 . S
C586 C585 1.414 . S
C586 C587 1.374 . S
C587 H567 0.950 . S
C587 C583 1.385 . S
C587 C586 1.374 . S
C588 C585 1.499 . S
C588 C589 1.373 . S
C588 C590 1.389 . S
C589 H568 0.950 . S
C589 C588 1.373 . S
C589 C605 1.377 . S
C590 C588 1.389 . S
C590 C591 1.524 . S
C590 C604 1.377 . S
C591 C590 1.524 . S
C591 C592 1.397 . S
C591 C596 1.363 . S
C592 H569 0.950 . S
C592 C591 1.397 . S
C592 C593 1.334 . S
C593 H570 0.950 . S
C593 C592 1.334 . S
C593 C594 1.287 . S
C594 C593 1.287 . S
C594 C595 1.524 . S
C594 H613 0.913 . S
C595 H571 0.950 . S
C595 C594 1.524 . S
C595 C596 1.415 . S
C596 H572 0.950 . S
C596 C591 1.363 . S
C596 C595 1.415 . S
C597 H573 0.977 . S
C597 C598 1.366 . S
C597 C599 1.388 . S
C598 C597 1.366 . S
C598 C602 1.385 . S
C599 H574 0.951 . S
C599 C597 1.388 . S
C599 C600 1.366 . S
C600 C599 1.366 . S
C600 C601 1.414 . S
C600 C603 1.499 . S
C601 H575 0.950 . S
C601 C600 1.414 . S
C601 C602 1.374 . S
C602 H576 0.950 . S
C602 C598 1.385 . S
C602 C601 1.374 . S
C603 C600 1.499 . S
C603 C604 1.373 . S
C603 C605 1.389 . S
C604 H577 0.950 . S
C604 C590 1.377 . S
C604 C603 1.373 . S
C605 C589 1.377 . S
C605 C603 1.389 . S
C605 C606 1.524 . S
C606 C605 1.524 . S
C606 C607 1.397 . S
C606 C611 1.363 . S
C607 H578 0.950 . S
C607 C606 1.397 . S
C607 C608 1.334 . S
C608 H579 0.950 . S
C608 C607 1.334 . S
C608 C609 1.287 . S
C609 C608 1.287 . S
C609 C610 1.524 . S
C609 H612 0.999 . S
C610 H580 0.950 . S
C610 C609 1.524 . S
C610 C611 1.415 . S
C611 H581 0.950 . S
C611 C606 1.363 . S
C611 C610 1.415 . S
H612 C609 0.999 . S
H613 C594 0.913 . S
H614 C632 0.951 . S
H615 C634 0.951 . S
H616 C636 0.950 . S
H617 C637 0.950 . S
H618 C639 0.950 . S
H619 C642 0.950 . S
H620 C643 0.950 . S
H621 C645 0.950 . S
H622 C646 0.950 . S
H623 C647 0.951 . S
H624 C649 0.951 . S
H625 C651 0.950 . S
H626 C652 0.950 . S
H627 C654 0.950 . S
H628 C657 0.950 . S
H629 C658 0.950 . S
H630 C660 0.950 . S
H631 C661 0.950 . S
C632 H614 0.951 . S
C632 C633 1.366 . S
C632 C634 1.388 . S
C633 C632 1.366 . S
C633 C637 1.385 . S
C634 H615 0.951 . S
C634 C632 1.388 . S
C634 C635 1.366 . S
C635 C634 1.366 . S
C635 C636 1.414 . S
C635 C638 1.499 . S
C636 H616 0.950 . S
C636 C635 1.414 . S
C636 C637 1.374 . S
C637 H617 0.950 . S
C637 C633 1.385 . S
C637 C636 1.374 . S
C638 C635 1.499 . S
C638 C639 1.373 . S
C638 C640 1.389 . S
C639 H618 0.950 . S
C639 C638 1.373 . S
C639 C655 1.377 . S
C640 C638 1.389 . S
C640 C641 1.524 . S
C640 C654 1.377 . S
C641 C640 1.524 . S
C641 C642 1.397 . S
C641 C646 1.363 . S
C642 H619 0.950 . S
C642 C641 1.397 . S
C642 C643 1.334 . S
C643 H620 0.950 . S
C643 C642 1.334 . S
C643 C644 1.287 . S
C644 C643 1.287 . S
C644 C645 1.524 . S
C644 H663 0.913 . S
C645 H621 0.950 . S
C645 C644 1.524 . S
C645 C646 1.415 . S
C646 H622 0.950 . S
C646 C641 1.363 . S
C646 C645 1.415 . S
C647 H623 0.951 . S
C647 C648 1.366 . S
C647 C649 1.388 . S
C648 C647 1.366 . S
C648 C652 1.385 . S
C649 H624 0.951 . S
C649 C647 1.388 . S
C649 C650 1.366 . S
C650 C649 1.366 . S
C650 C651 1.414 . S
C650 C653 1.499 . S
C651 H625 0.950 . S
C651 C650 1.414 . S
C651 C652 1.374 . S
C652 H626 0.950 . S
C652 C648 1.385 . S
C652 C651 1.374 . S
C653 C650 1.499 . S
C653 C654 1.373 . S
C653 C655 1.389 . S
C654 H627 0.950 . S
C654 C640 1.377 . S
C654 C653 1.373 . S
C655 C639 1.377 . S
C655 C653 1.389 . S
C655 C656 1.524 . S
C656 C655 1.524 . S
C656 C657 1.397 . S
C656 C661 1.363 . S
C657 H628 0.950 . S
C657 C656 1.397 . S
C657 C658 1.334 . S
C658 H629 0.950 . S
C658 C657 1.334 . S
C658 C659 1.287 . S
C659 C658 1.287 . S
C659 C660 1.524 . S
C659 H662 0.999 . S
C660 H630 0.950 . S
C660 C659 1.524 . S
C660 C661 1.415 . S
C661 H631 0.950 . S
C661 C656 1.363 . S
C661 C660 1.415 . S
H662 C659 0.999 . S
H663 C644 0.913 . S
H664 C682 0.951 . S
H665 C684 0.951 . S
H666 C686 0.950 . S
H667 C687 0.950 . S
H668 C689 0.950 . S
H669 C692 0.950 . S
H670 C693 0.950 . S
H671 C695 0.950 . S
H672 C696 0.950 . S
H673 C697 0.951 . S
H674 C699 0.951 . S
H675 C701 0.950 . S
H676 C702 0.950 . S
H677 C704 0.950 . S
H678 C707 0.950 . S
H679 C708 0.950 . S
H680 C710 0.950 . S
H681 C711 0.950 . S
C682 H664 0.951 . S
C682 C683 1.366 . S
C682 C684 1.388 . S
C683 C682 1.366 . S
C683 C687 1.385 . S
C684 H665 0.951 . S
C684 C682 1.388 . S
C684 C685 1.366 . S
C685 C684 1.366 . S
C685 C686 1.414 . S
C685 C688 1.499 . S
C686 H666 0.950 . S
C686 C685 1.414 . S
C686 C687 1.374 . S
C687 H667 0.950 . S
C687 C683 1.385 . S
C687 C686 1.374 . S
C688 C685 1.499 . S
C688 C689 1.373 . S
C688 C690 1.389 . S
C689 H668 0.950 . S
C689 C688 1.373 . S
C689 C705 1.377 . S
C690 C688 1.389 . S
C690 C691 1.524 . S
C690 C704 1.377 . S
C691 C690 1.524 . S
C691 C692 1.397 . S
C691 C696 1.363 . S
C692 H669 0.950 . S
C692 C691 1.397 . S
C692 C693 1.334 . S
C693 H670 0.950 . S
C693 C692 1.334 . S
C693 C694 1.287 . S
C694 C693 1.287 . S
C694 C695 1.524 . S
C694 H713 0.913 . S
C695 H671 0.950 . S
C695 C694 1.524 . S
C695 C696 1.415 . S
C696 H672 0.950 . S
C696 C691 1.363 . S
C696 C695 1.415 . S
C697 H673 0.951 . S
C697 C698 1.366 . S
C697 C699 1.388 . S
C698 C697 1.366 . S
C698 C702 1.385 . S
C699 H674 0.951 . S
C699 C697 1.388 . S
C699 C700 1.366 . S
C700 C699 1.366 . S
C700 C701 1.414 . S
C700 C703 1.499 . S
C701 H675 0.950 . S
C701 C700 1.414 . S
C701 C702 1.374 . S
C702 H676 0.950 . S
C702 C698 1.385 . S
C702 C701 1.374 . S
C703 C700 1.499 . S
C703 C704 1.373 . S
C703 C705 1.389 . S
C704 H677 0.950 . S
C704 C690 1.377 . S
C704 C703 1.373 . S
C705 C689 1.377 . S
C705 C703 1.389 . S
C705 C706 1.524 . S
C706 C705 1.524 . S
C706 C707 1.397 . S
C706 C711 1.363 . S
C707 H678 0.950 . S
C707 C706 1.397 . S
C707 C708 1.334 . S
C708 H679 0.950 . S
C708 C707 1.334 . S
C708 C709 1.287 . S
C709 C708 1.287 . S
C709 C710 1.524 . S
C709 H712 0.999 . S
C710 H680 0.950 . S
C710 C709 1.524 . S
C710 C711 1.415 . S
C711 H681 0.950 . S
C711 C706 1.363 . S
C711 C710 1.415 . S
H712 C709 0.999 . S
H713 C694 0.913 . S
H714 C732 0.951 . S
H715 C734 0.951 . S
H716 C736 0.950 . S
H717 C737 0.950 . S
H718 C739 0.950 . S
H719 C742 0.950 . S
H720 C743 0.950 . S
H721 C745 0.950 . S
H722 C746 0.950 . S
H723 C747 0.951 . S
H724 C749 0.951 . S
H725 C751 0.950 . S
H726 C752 0.950 . S
H727 C754 0.950 . S
H728 C757 0.950 . S
H729 C758 0.950 1_554 S
H730 C760 0.950 . S
H731 C761 0.950 . S
C732 H714 0.951 . S
C732 C733 1.366 . S
C732 C734 1.388 . S
C733 C732 1.366 . S
C733 C737 1.385 . S
C734 H715 0.951 . S
C734 C732 1.388 . S
C734 C735 1.366 . S
C735 C734 1.366 . S
C735 C736 1.414 . S
C735 C738 1.499 . S
C736 H716 0.950 . S
C736 C735 1.414 . S
C736 C737 1.374 . S
C737 H717 0.950 . S
C737 C733 1.385 . S
C737 C736 1.374 . S
C738 C735 1.499 . S
C738 C739 1.373 . S
C738 C740 1.389 . S
C739 H718 0.950 . S
C739 C738 1.373 . S
C739 C755 1.377 . S
C740 C738 1.389 . S
C740 C741 1.524 . S
C740 C754 1.377 . S
C741 C740 1.524 . S
C741 C742 1.397 . S
C741 C746 1.363 . S
C742 H719 0.950 . S
C742 C741 1.397 . S
C742 C743 1.334 . S
C743 H720 0.950 . S
C743 C742 1.334 . S
C743 C744 1.287 . S
C744 C743 1.287 . S
C744 C745 1.524 . S
C744 H763 0.913 . S
C745 H721 0.950 . S
C745 C744 1.524 . S
C745 C746 1.415 . S
C746 H722 0.950 . S
C746 C741 1.363 . S
C746 C745 1.415 . S
C747 H723 0.951 . S
C747 C748 1.366 . S
C747 C749 1.388 . S
C748 C747 1.366 . S
C748 C752 1.385 1_556 S
C749 H724 0.951 . S
C749 C747 1.388 . S
C749 C750 1.366 . S
C750 C749 1.366 . S
C750 C751 1.414 . S
C750 C753 1.499 . S
C751 H725 0.950 . S
C751 C750 1.414 . S
C751 C752 1.374 1_556 S
C752 H726 0.950 . S
C752 C748 1.385 1_554 S
C752 C751 1.374 1_554 S
C753 C750 1.499 . S
C753 C754 1.373 . S
C753 C755 1.389 . S
C754 H727 0.950 . S
C754 C740 1.377 . S
C754 C753 1.373 . S
C755 C739 1.377 . S
C755 C753 1.389 . S
C755 C756 1.524 . S
C756 C755 1.524 . S
C756 C757 1.397 . S
C756 C761 1.363 . S
C757 H728 0.950 . S
C757 C756 1.397 . S
C757 C758 1.334 . S
C758 H729 0.950 1_556 S
C758 C757 1.334 . S
C758 C759 1.287 . S
C759 C758 1.287 . S
C759 C760 1.524 . S
C759 H762 0.999 . S
C760 H730 0.950 . S
C760 C759 1.524 . S
C760 C761 1.415 . S
C761 H731 0.950 . S
C761 C756 1.363 . S
C761 C760 1.415 . S
H762 C759 0.999 . S
H763 C744 0.913 . S
H764 C782 0.951 . S
H765 C784 0.951 . S
H766 C786 0.950 . S
H767 C787 0.950 . S
H768 C789 0.950 . S
H769 C792 0.950 . S
H770 C793 0.950 . S
H771 C795 0.950 . S
H772 C796 0.950 . S
H773 C797 0.951 . S
H774 C799 0.951 . S
H775 C801 0.950 1_455 S
H776 C802 0.950 . S
H777 C804 0.950 . S
H778 C807 0.950 . S
H779 C808 0.950 . S
H780 C810 0.950 . S
H781 C811 0.950 . S
C782 H764 0.951 . S
C782 C783 1.366 . S
C782 C784 1.388 . S
C783 C782 1.366 . S
C783 C787 1.385 . S
C784 H765 0.951 . S
C784 C782 1.388 . S
C784 C785 1.366 . S
C785 C784 1.366 . S
C785 C786 1.414 . S
C785 C788 1.499 . S
C786 H766 0.950 . S
C786 C785 1.414 . S
C786 C787 1.374 . S
C787 H767 0.950 . S
C787 C783 1.385 . S
C787 C786 1.374 . S
C788 C785 1.499 . S
C788 C789 1.373 . S
C788 C790 1.389 . S
C789 H768 0.950 . S
C789 C788 1.373 . S
C789 C805 1.377 . S
C790 C788 1.389 . S
C790 C791 1.524 . S
C790 C804 1.377 . S
C791 C790 1.524 . S
C791 C792 1.397 . S
C791 C796 1.363 1_655 S
C792 H769 0.950 . S
C792 C791 1.397 . S
C792 C793 1.334 . S
C793 H770 0.950 . S
C793 C792 1.334 . S
C793 C794 1.287 1_655 S
C794 C793 1.287 1_455 S
C794 C795 1.524 . S
C794 H813 0.913 . S
C795 H771 0.950 . S
C795 C794 1.524 . S
C795 C796 1.415 . S
C796 H772 0.950 . S
C796 C791 1.363 1_455 S
C796 C795 1.415 . S
C797 H773 0.951 . S
C797 C798 1.366 . S
C797 C799 1.388 . S
C798 C797 1.366 . S
C798 C802 1.385 1_655 S
C799 H774 0.951 . S
C799 C797 1.388 . S
C799 C800 1.366 . S
C800 C799 1.366 . S
C800 C801 1.414 . S
C800 C803 1.499 . S
C801 H775 0.950 1_655 S
C801 C800 1.414 . S
C801 C802 1.374 1_655 S
C802 H776 0.950 . S
C802 C798 1.385 1_455 S
C802 C801 1.374 1_455 S
C803 C800 1.499 . S
C803 C804 1.373 . S
C803 C805 1.389 . S
C804 H777 0.950 . S
C804 C790 1.377 . S
C804 C803 1.373 . S
C805 C789 1.377 . S
C805 C803 1.389 . S
C805 C806 1.524 . S
C806 C805 1.524 . S
C806 C807 1.397 . S
C806 C811 1.363 . S
C807 H778 0.950 . S
C807 C806 1.397 . S
C807 C808 1.334 . S
C808 H779 0.950 . S
C808 C807 1.334 . S
C808 C809 1.287 . S
C809 C808 1.287 . S
C809 C810 1.524 . S
C809 H812 0.999 . S
C810 H780 0.950 . S
C810 C809 1.524 . S
C810 C811 1.415 . S
C811 H781 0.950 . S
C811 C806 1.363 . S
C811 C810 1.415 . S
H812 C809 0.999 . S
H813 C794 0.913 . S
H814 C832 0.951 . S
H815 C834 0.951 . S
H816 C836 0.950 . S
H817 C837 0.950 . S
H818 C839 0.950 . S
H819 C842 0.950 . S
H820 C843 0.950 . S
H821 C845 0.950 . S
H822 C846 0.950 . S
H823 C847 0.951 . S
H824 C849 0.951 . S
H825 C851 0.950 . S
H826 C852 0.950 . S
H827 C854 0.950 . S
H828 C857 0.950 . S
H829 C858 0.950 . S
H830 C860 0.950 . S
H831 C861 0.950 . S
C832 H814 0.951 . S
C832 C833 1.366 . S
C832 C834 1.388 . S
C833 C832 1.366 . S
C833 C837 1.385 . S
C834 H815 0.951 . S
C834 C832 1.388 . S
C834 C835 1.366 . S
C835 C834 1.366 . S
C835 C836 1.414 . S
C835 C838 1.499 . S
C836 H816 0.950 . S
C836 C835 1.414 . S
C836 C837 1.374 . S
C837 H817 0.950 . S
C837 C833 1.385 . S
C837 C836 1.374 . S
C838 C835 1.499 . S
C838 C839 1.373 . S
C838 C840 1.389 . S
C839 H818 0.950 . S
C839 C838 1.373 . S
C839 C855 1.377 . S
C840 C838 1.389 . S
C840 C841 1.524 . S
C840 C854 1.377 . S
C841 C840 1.524 . S
C841 C842 1.397 . S
C841 C846 1.363 . S
C842 H819 0.950 . S
C842 C841 1.397 . S
C842 C843 1.334 . S
C843 H820 0.950 . S
C843 C842 1.334 . S
C843 C844 1.287 . S
C844 C843 1.287 . S
C844 C845 1.524 . S
C844 H863 0.913 . S
C845 H821 0.950 . S
C845 C844 1.524 . S
C845 C846 1.415 . S
C846 H822 0.950 . S
C846 C841 1.363 . S
C846 C845 1.415 . S
C847 H823 0.951 . S
C847 C848 1.366 . S
C847 C849 1.388 . S
C848 C847 1.366 . S
C848 C852 1.385 . S
C849 H824 0.951 . S
C849 C847 1.388 . S
C849 C850 1.366 . S
C850 C849 1.366 . S
C850 C851 1.414 . S
C850 C853 1.499 . S
C851 H825 0.950 . S
C851 C850 1.414 . S
C851 C852 1.374 . S
C852 H826 0.950 . S
C852 C848 1.385 . S
C852 C851 1.374 . S
C853 C850 1.499 . S
C853 C854 1.373 . S
C853 C855 1.389 . S
C854 H827 0.950 . S
C854 C840 1.377 . S
C854 C853 1.373 . S
C855 C839 1.377 . S
C855 C853 1.389 . S
C855 C856 1.524 . S
C856 C855 1.524 . S
C856 C857 1.397 . S
C856 C861 1.363 . S
C857 H828 0.950 . S
C857 C856 1.397 . S
C857 C858 1.334 . S
C858 H829 0.950 . S
C858 C857 1.334 . S
C858 C859 1.287 . S
C859 C858 1.287 . S
C859 C860 1.524 . S
C859 H862 0.999 . S
C860 H830 0.950 . S
C860 C859 1.524 . S
C860 C861 1.415 . S
C861 H831 0.950 . S
C861 C856 1.363 . S
C861 C860 1.415 . S
H862 C859 0.999 . S
H863 C844 0.913 . S
H864 C882 0.951 . S
H865 C884 0.951 . S
H866 C886 0.950 . S
H867 C887 0.950 . S
H868 C889 0.950 . S
H869 C892 0.950 . S
H870 C893 0.950 . S
H871 C895 0.950 . S
H872 C896 0.950 . S
H873 C897 0.951 . S
H874 C899 0.951 . S
H875 C901 0.950 . S
H876 C902 0.950 . S
H877 C904 0.950 . S
H878 C907 0.950 . S
H879 C908 0.950 . S
H880 C910 0.950 . S
H881 C911 0.950 . S
C882 H864 0.951 . S
C882 C883 1.366 . S
C882 C884 1.388 . S
C883 C882 1.366 . S
C883 C887 1.385 . S
C884 H865 0.951 . S
C884 C882 1.388 . S
C884 C885 1.366 . S
C885 C884 1.366 . S
C885 C886 1.414 . S
C885 C888 1.499 . S
C886 H866 0.950 . S
C886 C885 1.414 . S
C886 C887 1.374 . S
C887 H867 0.950 . S
C887 C883 1.385 . S
C887 C886 1.374 . S
C888 C885 1.499 . S
C888 C889 1.373 . S
C888 C890 1.389 . S
C889 H868 0.950 . S
C889 C888 1.373 . S
C889 C905 1.377 . S
C890 C888 1.389 . S
C890 C891 1.524 . S
C890 C904 1.377 . S
C891 C890 1.524 . S
C891 C892 1.397 . S
C891 C896 1.363 . S
C892 H869 0.950 . S
C892 C891 1.397 . S
C892 C893 1.334 . S
C893 H870 0.950 . S
C893 C892 1.334 . S
C893 C894 1.287 . S
C894 C893 1.287 . S
C894 C895 1.524 . S
C894 H913 0.913 . S
C895 H871 0.950 . S
C895 C894 1.524 . S
C895 C896 1.415 . S
C896 H872 0.950 . S
C896 C891 1.363 . S
C896 C895 1.415 . S
C897 H873 0.951 . S
C897 C898 1.366 . S
C897 C899 1.388 . S
C898 C897 1.366 . S
C898 C902 1.385 . S
C899 H874 0.951 . S
C899 C897 1.388 . S
C899 C900 1.366 . S
C900 C899 1.366 . S
C900 C901 1.414 . S
C900 C903 1.499 . S
C901 H875 0.950 . S
C901 C900 1.414 . S
C901 C902 1.374 . S
C902 H876 0.950 . S
C902 C898 1.385 . S
C902 C901 1.374 . S
C903 C900 1.499 . S
C903 C904 1.373 . S
C903 C905 1.389 . S
C904 H877 0.950 . S
C904 C890 1.377 . S
C904 C903 1.373 . S
C905 C889 1.377 . S
C905 C903 1.389 . S
C905 C906 1.524 . S
C906 C905 1.524 . S
C906 C907 1.397 . S
C906 C911 1.363 . S
C907 H878 0.950 . S
C907 C906 1.397 . S
C907 C908 1.334 . S
C908 H879 0.950 . S
C908 C907 1.334 . S
C908 C909 1.287 . S
C909 C908 1.287 . S
C909 C910 1.524 . S
C909 H912 0.999 . S
C910 H880 0.950 . S
C910 C909 1.524 . S
C910 C911 1.415 . S
C911 H881 0.950 . S
C911 C906 1.363 . S
C911 C910 1.415 . S
H912 C909 0.999 . S
H913 C894 0.913 . S
H914 C932 0.951 . S
H915 C934 0.951 . S
H916 C936 0.950 . S
H917 C937 0.950 . S
H918 C939 0.950 . S
H919 C942 0.950 . S
H920 C943 0.950 . S
H921 C945 0.950 . S
H922 C946 0.950 . S
H923 C947 0.951 . S
H924 C949 0.951 . S
H925 C951 0.950 . S
H926 C952 0.950 . S
H927 C954 0.950 . S
H928 C957 0.950 . S
H929 C958 0.950 . S
H930 C960 0.950 . S
H931 C961 0.950 . S
C932 H914 0.951 . S
C932 C933 1.366 . S
C932 C934 1.388 . S
C933 C932 1.366 . S
C933 C937 1.385 . S
C934 H915 0.951 . S
C934 C932 1.388 . S
C934 C935 1.366 . S
C935 C934 1.366 . S
C935 C936 1.414 . S
C935 C938 1.499 . S
C936 H916 0.950 . S
C936 C935 1.414 . S
C936 C937 1.374 . S
C937 H917 0.950 . S
C937 C933 1.385 . S
C937 C936 1.374 . S
C938 C935 1.499 . S
C938 C939 1.373 . S
C938 C940 1.389 . S
C939 H918 0.950 . S
C939 C938 1.373 . S
C939 C955 1.377 . S
C940 C938 1.389 . S
C940 C941 1.524 . S
C940 C954 1.377 . S
C941 C940 1.524 . S
C941 C942 1.397 . S
C941 C946 1.363 . S
C942 H919 0.950 . S
C942 C941 1.397 . S
C942 C943 1.334 . S
C943 H920 0.950 . S
C943 C942 1.334 . S
C943 C944 1.287 . S
C944 C943 1.287 . S
C944 C945 1.524 . S
C944 H963 0.913 . S
C945 H921 0.950 . S
C945 C944 1.524 . S
C945 C946 1.415 . S
C946 H922 0.950 . S
C946 C941 1.363 . S
C946 C945 1.415 . S
C947 H923 0.951 . S
C947 C948 1.366 . S
C947 C949 1.388 . S
C948 C947 1.366 . S
C948 C952 1.385 . S
C949 H924 0.951 . S
C949 C947 1.388 . S
C949 C950 1.366 . S
C950 C949 1.366 . S
C950 C951 1.414 . S
C950 C953 1.499 . S
C951 H925 0.950 . S
C951 C950 1.414 . S
C951 C952 1.374 . S
C952 H926 0.950 . S
C952 C948 1.385 . S
C952 C951 1.374 . S
C953 C950 1.499 . S
C953 C954 1.373 . S
C953 C955 1.389 . S
C954 H927 0.950 . S
C954 C940 1.377 . S
C954 C953 1.373 . S
C955 C939 1.377 . S
C955 C953 1.389 . S
C955 C956 1.524 . S
C956 C955 1.524 . S
C956 C957 1.397 . S
C956 C961 1.363 . S
C957 H928 0.950 . S
C957 C956 1.397 . S
C957 C958 1.334 . S
C958 H929 0.950 . S
C958 C957 1.334 . S
C958 C959 1.287 . S
C959 C958 1.287 . S
C959 C960 1.524 . S
C959 H962 0.999 . S
C960 H930 0.950 . S
C960 C959 1.524 . S
C960 C961 1.415 . S
C961 H931 0.950 . S
C961 C956 1.363 . S
C961 C960 1.415 . S
H962 C959 0.999 . S
H963 C944 0.913 . S
H964 C982 0.951 . S
H965 C984 0.951 . S
H966 C986 0.950 . S
H967 C987 0.950 . S
H968 C989 0.950 . S
H969 C992 0.950 . S
H970 C993 0.950 . S
H971 C995 0.950 . S
H972 C996 0.950 . S
H973 C997 0.951 . S
H974 C999 0.951 . S
H975 C1001 0.950 . S
H976 C1002 0.950 . S
H977 C1004 0.950 . S
H978 C1007 0.950 . S
H979 C1008 0.950 . S
H980 C1010 0.950 . S
H981 C1011 0.950 . S
C982 H964 0.951 . S
C982 C983 1.366 . S
C982 C984 1.388 . S
C983 C982 1.366 . S
C983 C987 1.385 . S
C984 H965 0.951 . S
C984 C982 1.388 . S
C984 C985 1.366 . S
C985 C984 1.366 . S
C985 C986 1.414 . S
C985 C988 1.499 . S
C986 H966 0.950 . S
C986 C985 1.414 . S
C986 C987 1.374 . S
C987 H967 0.950 . S
C987 C983 1.385 . S
C987 C986 1.374 . S
C988 C985 1.499 . S
C988 C989 1.373 . S
C988 C990 1.389 . S
C989 H968 0.950 . S
C989 C988 1.373 . S
C989 C1005 1.377 . S
C990 C988 1.389 . S
C990 C991 1.524 . S
C990 C1004 1.377 . S
C991 C990 1.524 . S
C991 C992 1.397 . S
C991 C996 1.363 . S
C992 H969 0.950 . S
C992 C991 1.397 . S
C992 C993 1.334 . S
C993 H970 0.950 . S
C993 C992 1.334 . S
C993 C994 1.287 . S
C994 C993 1.287 . S
C994 C995 1.524 . S
C994 H1013 0.913 . S
C995 H971 0.950 . S
C995 C994 1.524 . S
C995 C996 1.415 . S
C996 H972 0.950 . S
C996 C991 1.363 . S
C996 C995 1.415 . S
C997 H973 0.951 . S
C997 C998 1.366 . S
C997 C999 1.388 . S
C998 C997 1.366 . S
C998 C1002 1.385 . S
C999 H974 0.951 . S
C999 C997 1.388 . S
C999 C1000 1.366 . S
C1000 C999 1.366 . S
C1000 C1001 1.414 . S
C1000 C1003 1.499 . S
C1001 H975 0.950 . S
C1001 C1000 1.414 . S
C1001 C1002 1.374 . S
C1002 H976 0.950 . S
C1002 C998 1.385 . S
C1002 C1001 1.374 . S
C1003 C1000 1.499 . S
C1003 C1004 1.373 . S
C1003 C1005 1.389 . S
C1004 H977 0.950 . S
C1004 C990 1.377 . S
C1004 C1003 1.373 . S
C1005 C989 1.377 . S
C1005 C1003 1.389 . S
C1005 C1006 1.524 . S
C1006 C1005 1.524 . S
C1006 C1007 1.397 . S
C1006 C1011 1.363 . S
C1007 H978 0.950 . S
C1007 C1006 1.397 . S
C1007 C1008 1.334 . S
C1008 H979 0.950 . S
C1008 C1007 1.334 . S
C1008 C1009 1.287 . S
C1009 C1008 1.287 . S
C1009 C1010 1.524 . S
C1009 H1012 0.999 . S
C1010 H980 0.950 . S
C1010 C1009 1.524 . S
C1010 C1011 1.415 . S
C1011 H981 0.950 . S
C1011 C1006 1.363 . S
C1011 C1010 1.415 . S
H1012 C1009 0.999 . S
H1013 C994 0.913 . S
H1014 C1032 0.951 . S
H1015 C1034 0.951 . S
H1016 C1036 0.950 . S
H1017 C1037 0.950 . S
H1018 C1039 0.950 . S
H1019 C1042 0.950 . S
H1020 C1043 0.950 . S
H1021 C1045 0.950 . S
H1022 C1046 0.950 . S
H1023 C1047 0.951 . S
H1024 C1049 0.951 . S
H1025 C1051 0.950 . S
H1026 C1052 0.950 . S
H1027 C1054 0.950 . S
H1028 C1057 0.950 . S
H1029 C1058 0.950 . S
H1030 C1060 0.950 . S
H1031 C1061 0.950 1_455 S
C1032 H1014 0.951 . S
C1032 C1033 1.366 . S
C1032 C1034 1.388 . S
C1033 C1032 1.366 . S
C1033 C1037 1.385 . S
C1034 H1015 0.951 . S
C1034 C1032 1.388 . S
C1034 C1035 1.366 . S
C1035 C1034 1.366 . S
C1035 C1036 1.414 . S
C1035 C1038 1.499 . S
C1036 H1016 0.950 . S
C1036 C1035 1.414 . S
C1036 C1037 1.374 . S
C1037 H1017 0.950 . S
C1037 C1033 1.385 . S
C1037 C1036 1.374 . S
C1038 C1035 1.499 . S
C1038 C1039 1.373 . S
C1038 C1040 1.389 . S
C1039 H1018 0.950 . S
C1039 C1038 1.373 . S
C1039 C1055 1.377 . S
C1040 C1038 1.389 . S
C1040 C1041 1.524 . S
C1040 C1054 1.377 . S
C1041 C1040 1.524 . S
C1041 C1042 1.397 . S
C1041 C1046 1.363 . S
C1042 H1019 0.950 . S
C1042 C1041 1.397 . S
C1042 C1043 1.334 . S
C1043 H1020 0.950 . S
C1043 C1042 1.334 . S
C1043 C1044 1.287 . S
C1044 C1043 1.287 . S
C1044 C1045 1.524 . S
C1044 H1063 0.913 . S
C1045 H1021 0.950 . S
C1045 C1044 1.524 . S
C1045 C1046 1.415 . S
C1046 H1022 0.950 . S
C1046 C1041 1.363 . S
C1046 C1045 1.415 . S
C1047 H1023 0.951 . S
C1047 C1048 1.366 . S
C1047 C1049 1.388 . S
C1048 C1047 1.366 . S
C1048 C1052 1.385 . S
C1049 H1024 0.951 . S
C1049 C1047 1.388 . S
C1049 C1050 1.366 . S
C1050 C1049 1.366 . S
C1050 C1051 1.414 . S
C1050 C1053 1.499 . S
C1051 H1025 0.950 . S
C1051 C1050 1.414 . S
C1051 C1052 1.374 . S
C1052 H1026 0.950 . S
C1052 C1048 1.385 . S
C1052 C1051 1.374 . S
C1053 C1050 1.499 . S
C1053 C1054 1.373 . S
C1053 C1055 1.389 . S
C1054 H1027 0.950 . S
C1054 C1040 1.377 . S
C1054 C1053 1.373 . S
C1055 C1039 1.377 . S
C1055 C1053 1.389 . S
C1055 C1056 1.524 . S
C1056 C1055 1.524 . S
C1056 C1057 1.397 . S
C1056 C1061 1.363 1_455 S
C1057 H1028 0.950 . S
C1057 C1056 1.397 . S
C1057 C1058 1.334 1_455 S
C1058 H1029 0.950 . S
C1058 C1057 1.334 1_655 S
C1058 C1059 1.287 . S
C1059 C1058 1.287 . S
C1059 C1060 1.524 . S
C1059 H1062 0.999 . S
C1060 H1030 0.950 . S
C1060 C1059 1.524 . S
C1060 C1061 1.415 . S
C1061 H1031 0.950 1_655 S
C1061 C1056 1.363 1_655 S
C1061 C1060 1.415 . S
H1062 C1059 0.999 . S
H1063 C1044 0.913 . S
H1064 C1082 0.951 . S
H1065 C1084 0.951 . S
H1066 C1086 0.950 . S
H1067 C1087 0.950 . S
H1068 C1089 0.950 . S
H1069 C1092 0.950 . S
H1070 C1093 0.950 . S
H1071 C1095 0.950 . S
H1072 C1096 0.950 . S
H1073 C1097 0.951 . S
H1074 C1099 0.951 . S
H1075 C1101 0.950 . S
H1076 C1102 0.950 . S
H1077 C1104 0.950 . S
H1078 C1107 0.950 . S
H1079 C1108 0.950 1_545 S
H1080 C1110 0.950 . S
H1081 C1111 0.950 . S
C1082 H1064 0.951 . S
C1082 C1083 1.366 . S
C1082 C1084 1.388 . S
C1083 C1082 1.366 . S
C1083 C1087 1.385 . S
C1084 H1065 0.951 . S
C1084 C1082 1.388 . S
C1084 C1085 1.366 . S
C1085 C1084 1.366 . S
C1085 C1086 1.414 . S
C1085 C1088 1.499 . S
C1086 H1066 0.950 . S
C1086 C1085 1.414 . S
C1086 C1087 1.374 . S
C1087 H1067 0.950 . S
C1087 C1083 1.385 . S
C1087 C1086 1.374 . S
C1088 C1085 1.499 . S
C1088 C1089 1.373 . S
C1088 C1090 1.389 . S
C1089 H1068 0.950 . S
C1089 C1088 1.373 . S
C1089 C1105 1.377 . S
C1090 C1088 1.389 . S
C1090 C1091 1.524 . S
C1090 C1104 1.377 . S
C1091 C1090 1.524 . S
C1091 C1092 1.397 . S
C1091 C1096 1.363 . S
C1092 H1069 0.950 . S
C1092 C1091 1.397 . S
C1092 C1093 1.334 . S
C1093 H1070 0.950 . S
C1093 C1092 1.334 . S
C1093 C1094 1.287 . S
C1094 C1093 1.287 . S
C1094 C1095 1.524 1_556 S
C1094 H1113 0.913 . S
C1095 H1071 0.950 . S
C1095 C1094 1.524 1_554 S
C1095 C1096 1.415 1_554 S
C1096 H1072 0.950 . S
C1096 C1091 1.363 . S
C1096 C1095 1.415 1_556 S
C1097 H1073 0.951 . S
C1097 C1098 1.366 1_556 S
C1097 C1099 1.388 . S
C1098 C1097 1.366 1_554 S
C1098 C1102 1.385 . S
C1099 H1074 0.951 . S
C1099 C1097 1.388 . S
C1099 C1100 1.366 . S
C1100 C1099 1.366 . S
C1100 C1101 1.414 . S
C1100 C1103 1.499 . S
C1101 H1075 0.950 . S
C1101 C1100 1.414 . S
C1101 C1102 1.374 1_556 S
C1102 H1076 0.950 . S
C1102 C1098 1.385 . S
C1102 C1101 1.374 1_554 S
C1103 C1100 1.499 . S
C1103 C1104 1.373 . S
C1103 C1105 1.389 . S
C1104 H1077 0.950 . S
C1104 C1090 1.377 . S
C1104 C1103 1.373 . S
C1105 C1089 1.377 . S
C1105 C1103 1.389 . S
C1105 C1106 1.524 . S
C1106 C1105 1.524 . S
C1106 C1107 1.397 . S
C1106 C1111 1.363 . S
C1107 H1078 0.950 . S
C1107 C1106 1.397 . S
C1107 C1108 1.334 . S
C1108 H1079 0.950 1_565 S
C1108 C1107 1.334 . S
C1108 C1109 1.287 . S
C1109 C1108 1.287 . S
C1109 C1110 1.524 . S
C1109 H1112 0.999 1_565 S
C1110 H1080 0.950 . S
C1110 C1109 1.524 . S
C1110 C1111 1.415 . S
C1111 H1081 0.950 . S
C1111 C1106 1.363 . S
C1111 C1110 1.415 . S
H1112 C1109 0.999 1_545 S
H1113 C1094 0.913 . S
H1114 C1132 0.951 . S
H1115 C1134 0.951 . S
H1116 C1136 0.950 . S
H1117 C1137 0.950 . S
H1118 C1139 0.950 . S
H1119 C1142 0.950 . S
H1120 C1143 0.950 . S
H1121 C1145 0.950 . S
H1122 C1146 0.950 . S
H1123 C1147 0.951 . S
H1124 C1149 0.951 . S
H1125 C1151 0.950 . S
H1126 C1152 0.950 . S
H1127 C1154 0.950 . S
H1128 C1157 0.950 . S
H1129 C1158 0.950 . S
H1130 C1160 0.950 . S
H1131 C1161 0.950 1_655 S
C1132 H1114 0.951 . S
C1132 C1133 1.366 . S
C1132 C1134 1.388 . S
C1133 C1132 1.366 . S
C1133 C1137 1.385 . S
C1134 H1115 0.951 . S
C1134 C1132 1.388 . S
C1134 C1135 1.366 . S
C1135 C1134 1.366 . S
C1135 C1136 1.414 . S
C1135 C1138 1.499 . S
C1136 H1116 0.950 . S
C1136 C1135 1.414 . S
C1136 C1137 1.374 . S
C1137 H1117 0.950 . S
C1137 C1133 1.385 . S
C1137 C1136 1.374 . S
C1138 C1135 1.499 . S
C1138 C1139 1.373 . S
C1138 C1140 1.389 . S
C1139 H1118 0.950 . S
C1139 C1138 1.373 . S
C1139 C1155 1.377 . S
C1140 C1138 1.389 . S
C1140 C1141 1.524 . S
C1140 C1154 1.377 . S
C1141 C1140 1.524 . S
C1141 C1142 1.397 . S
C1141 C1146 1.363 . S
C1142 H1119 0.950 . S
C1142 C1141 1.397 . S
C1142 C1143 1.334 . S
C1143 H1120 0.950 . S
C1143 C1142 1.334 . S
C1143 C1144 1.287 . S
C1144 C1143 1.287 . S
C1144 C1145 1.524 . S
C1144 H1163 0.913 . S
C1145 H1121 0.950 . S
C1145 C1144 1.524 . S
C1145 C1146 1.415 . S
C1146 H1122 0.950 . S
C1146 C1141 1.363 . S
C1146 C1145 1.415 . S
C1147 H1123 0.951 . S
C1147 C1148 1.366 . S
C1147 C1149 1.388 . S
C1148 C1147 1.366 . S
C1148 C1152 1.385 . S
C1149 H1124 0.951 . S
C1149 C1147 1.388 . S
C1149 C1150 1.366 . S
C1150 C1149 1.366 . S
C1150 C1151 1.414 . S
C1150 C1153 1.499 . S
C1151 H1125 0.950 . S
C1151 C1150 1.414 . S
C1151 C1152 1.374 . S
C1152 H1126 0.950 . S
C1152 C1148 1.385 . S
C1152 C1151 1.374 . S
C1153 C1150 1.499 . S
C1153 C1154 1.373 . S
C1153 C1155 1.389 . S
C1154 H1127 0.950 . S
C1154 C1140 1.377 . S
C1154 C1153 1.373 . S
C1155 C1139 1.377 . S
C1155 C1153 1.389 . S
C1155 C1156 1.524 . S
C1156 C1155 1.524 . S
C1156 C1157 1.397 1_655 S
C1156 C1161 1.363 1_655 S
C1157 H1128 0.950 . S
C1157 C1156 1.397 1_455 S
C1157 C1158 1.334 . S
C1158 H1129 0.950 . S
C1158 C1157 1.334 . S
C1158 C1159 1.287 . S
C1159 C1158 1.287 . S
C1159 C1160 1.524 . S
C1159 H1162 0.999 . S
C1160 H1130 0.950 . S
C1160 C1159 1.524 . S
C1160 C1161 1.415 . S
C1161 H1131 0.950 1_455 S
C1161 C1156 1.363 1_455 S
C1161 C1160 1.415 . S
H1162 C1159 0.999 . S
H1163 C1144 0.913 . S
H1164 C1182 0.951 . S
H1165 C1184 0.951 . S
H1166 C1186 0.950 . S
H1167 C1187 0.950 . S
H1168 C1189 0.950 . S
H1169 C1192 0.950 . S
H1170 C1193 0.950 . S
H1171 C1195 0.950 . S
H1172 C1196 0.950 . S
H1173 C1197 0.951 . S
H1174 C1199 0.951 . S
H1175 C1201 0.950 . S
H1176 C1202 0.950 . S
H1177 C1204 0.950 . S
H1178 C1207 0.950 . S
H1179 C1208 0.950 . S
H1180 C1210 0.950 . S
H1181 C1211 0.950 . S
C1182 H1164 0.951 . S
C1182 C1183 1.366 . S
C1182 C1184 1.388 . S
C1183 C1182 1.366 . S
C1183 C1187 1.385 . S
C1184 H1165 0.951 . S
C1184 C1182 1.388 . S
C1184 C1185 1.366 . S
C1185 C1184 1.366 . S
C1185 C1186 1.414 . S
C1185 C1188 1.499 . S
C1186 H1166 0.950 . S
C1186 C1185 1.414 . S
C1186 C1187 1.374 . S
C1187 H1167 0.950 . S
C1187 C1183 1.385 . S
C1187 C1186 1.374 . S
C1188 C1185 1.499 . S
C1188 C1189 1.373 . S
C1188 C1190 1.389 . S
C1189 H1168 0.950 . S
C1189 C1188 1.373 . S
C1189 C1205 1.377 . S
C1190 C1188 1.389 . S
C1190 C1191 1.524 . S
C1190 C1204 1.377 . S
C1191 C1190 1.524 . S
C1191 C1192 1.397 . S
C1191 C1196 1.363 . S
C1192 H1169 0.950 . S
C1192 C1191 1.397 . S
C1192 C1193 1.334 . S
C1193 H1170 0.950 . S
C1193 C1192 1.334 . S
C1193 C1194 1.287 . S
C1194 C1193 1.287 . S
C1194 C1195 1.524 . S
C1194 H1213 0.913 . S
C1195 H1171 0.950 . S
C1195 C1194 1.524 . S
C1195 C1196 1.415 . S
C1196 H1172 0.950 . S
C1196 C1191 1.363 . S
C1196 C1195 1.415 . S
C1197 H1173 0.951 . S
C1197 C1198 1.366 . S
C1197 C1199 1.388 . S
C1198 C1197 1.366 . S
C1198 C1202 1.385 . S
C1199 H1174 0.951 . S
C1199 C1197 1.388 . S
C1199 C1200 1.366 . S
C1200 C1199 1.366 . S
C1200 C1201 1.414 . S
C1200 C1203 1.499 . S
C1201 H1175 0.950 . S
C1201 C1200 1.414 . S
C1201 C1202 1.374 . S
C1202 H1176 0.950 . S
C1202 C1198 1.385 . S
C1202 C1201 1.374 . S
C1203 C1200 1.499 . S
C1203 C1204 1.373 . S
C1203 C1205 1.389 . S
C1204 H1177 0.950 . S
C1204 C1190 1.377 . S
C1204 C1203 1.373 . S
C1205 C1189 1.377 . S
C1205 C1203 1.389 . S
C1205 C1206 1.524 . S
C1206 C1205 1.524 . S
C1206 C1207 1.397 . S
C1206 C1211 1.363 . S
C1207 H1178 0.950 . S
C1207 C1206 1.397 . S
C1207 C1208 1.334 . S
C1208 H1179 0.950 . S
C1208 C1207 1.334 . S
C1208 C1209 1.287 . S
C1209 C1208 1.287 . S
C1209 C1210 1.524 . S
C1209 H1212 0.999 . S
C1210 H1180 0.950 . S
C1210 C1209 1.524 . S
C1210 C1211 1.415 . S
C1211 H1181 0.950 . S
C1211 C1206 1.363 . S
C1211 C1210 1.415 . S
H1212 C1209 0.999 . S
H1213 C1194 0.913 . S
H1214 C1232 0.951 . S
H1215 C1234 0.951 . S
H1216 C1236 0.950 . S
H1217 C1237 0.950 . S
H1218 C1239 0.950 . S
H1219 C1242 0.950 . S
H1220 C1243 0.950 . S
H1221 C1245 0.950 . S
H1222 C1246 0.950 . S
H1223 C1247 0.951 . S
H1224 C1249 0.951 . S
H1225 C1251 0.950 . S
H1226 C1252 0.950 . S
H1227 C1254 0.950 . S
H1228 C1257 0.950 . S
H1229 C1258 0.950 . S
H1230 C1260 0.950 . S
H1231 C1261 0.950 . S
C1232 H1214 0.951 . S
C1232 C1233 1.366 . S
C1232 C1234 1.388 . S
C1233 C1232 1.366 . S
C1233 C1237 1.385 . S
C1234 H1215 0.951 . S
C1234 C1232 1.388 . S
C1234 C1235 1.366 . S
C1235 C1234 1.366 . S
C1235 C1236 1.414 . S
C1235 C1238 1.499 . S
C1236 H1216 0.950 . S
C1236 C1235 1.414 . S
C1236 C1237 1.374 . S
C1237 H1217 0.950 . S
C1237 C1233 1.385 . S
C1237 C1236 1.374 . S
C1238 C1235 1.499 . S
C1238 C1239 1.373 . S
C1238 C1240 1.389 . S
C1239 H1218 0.950 . S
C1239 C1238 1.373 . S
C1239 C1255 1.377 . S
C1240 C1238 1.389 . S
C1240 C1241 1.524 . S
C1240 C1254 1.377 . S
C1241 C1240 1.524 . S
C1241 C1242 1.397 . S
C1241 C1246 1.363 . S
C1242 H1219 0.950 . S
C1242 C1241 1.397 . S
C1242 C1243 1.334 . S
C1243 H1220 0.950 . S
C1243 C1242 1.334 . S
C1243 C1244 1.287 . S
C1244 C1243 1.287 . S
C1244 C1245 1.524 . S
C1244 H1263 0.913 . S
C1245 H1221 0.950 . S
C1245 C1244 1.524 . S
C1245 C1246 1.415 . S
C1246 H1222 0.950 . S
C1246 C1241 1.363 . S
C1246 C1245 1.415 . S
C1247 H1223 0.951 . S
C1247 C1248 1.366 . S
C1247 C1249 1.388 . S
C1248 C1247 1.366 . S
C1248 C1252 1.385 . S
C1249 H1224 0.951 . S
C1249 C1247 1.388 . S
C1249 C1250 1.366 . S
C1250 C1249 1.366 . S
C1250 C1251 1.414 . S
C1250 C1253 1.499 . S
C1251 H1225 0.950 . S
C1251 C1250 1.414 . S
C1251 C1252 1.374 . S
C1252 H1226 0.950 . S
C1252 C1248 1.385 . S
C1252 C1251 1.374 . S
C1253 C1250 1.499 . S
C1253 C1254 1.373 . S
C1253 C1255 1.389 . S
C1254 H1227 0.950 . S
C1254 C1240 1.377 . S
C1254 C1253 1.373 . S
C1255 C1239 1.377 . S
C1255 C1253 1.389 . S
C1255 C1256 1.524 . S
C1256 C1255 1.524 . S
C1256 C1257 1.397 . S
C1256 C1261 1.363 . S
C1257 H1228 0.950 . S
C1257 C1256 1.397 . S
C1257 C1258 1.334 . S
C1258 H1229 0.950 . S
C1258 C1257 1.334 . S
C1258 C1259 1.287 . S
C1259 C1258 1.287 . S
C1259 C1260 1.524 . S
C1259 H1262 0.999 . S
C1260 H1230 0.950 . S
C1260 C1259 1.524 . S
C1260 C1261 1.415 . S
C1261 H1231 0.950 . S
C1261 C1256 1.363 . S
C1261 C1260 1.415 . S
H1262 C1259 0.999 . S
H1263 C1244 0.913 . S
H1264 C1282 0.951 . S
H1265 C1284 0.951 . S
H1266 C1286 0.950 . S
H1267 C1287 0.950 . S
H1268 C1289 0.950 . S
H1269 C1292 0.950 . S
H1270 C1293 0.950 . S
H1271 C1295 0.950 . S
H1272 C1296 0.950 . S
H1273 C1297 0.951 . S
H1274 C1299 0.951 . S
H1275 C1301 0.950 . S
H1276 C1302 0.950 . S
H1277 C1304 0.950 . S
H1278 C1307 0.950 . S
H1279 C1308 0.950 . S
H1280 C1310 0.950 . S
H1281 C1311 0.950 . S
C1282 H1264 0.951 . S
C1282 C1283 1.366 . S
C1282 C1284 1.388 . S
C1283 C1282 1.366 . S
C1283 C1287 1.385 . S
C1284 H1265 0.951 . S
C1284 C1282 1.388 . S
C1284 C1285 1.366 . S
C1285 C1284 1.366 . S
C1285 C1286 1.414 . S
C1285 C1288 1.499 . S
C1286 H1266 0.950 . S
C1286 C1285 1.414 . S
C1286 C1287 1.374 . S
C1287 H1267 0.950 . S
C1287 C1283 1.385 . S
C1287 C1286 1.374 . S
C1288 C1285 1.499 . S
C1288 C1289 1.373 . S
C1288 C1290 1.389 . S
C1289 H1268 0.950 . S
C1289 C1288 1.373 . S
C1289 C1305 1.377 . S
C1290 C1288 1.389 . S
C1290 C1291 1.524 . S
C1290 C1304 1.377 . S
C1291 C1290 1.524 . S
C1291 C1292 1.397 . S
C1291 C1296 1.363 . S
C1292 H1269 0.950 . S
C1292 C1291 1.397 . S
C1292 C1293 1.334 . S
C1293 H1270 0.950 . S
C1293 C1292 1.334 . S
C1293 C1294 1.287 . S
C1294 C1293 1.287 . S
C1294 C1295 1.524 . S
C1294 H1313 0.913 . S
C1295 H1271 0.950 . S
C1295 C1294 1.524 . S
C1295 C1296 1.415 . S
C1296 H1272 0.950 . S
C1296 C1291 1.363 . S
C1296 C1295 1.415 . S
C1297 H1273 0.951 . S
C1297 C1298 1.366 . S
C1297 C1299 1.388 . S
C1298 C1297 1.366 . S
C1298 C1302 1.385 . S
C1299 H1274 0.951 . S
C1299 C1297 1.388 . S
C1299 C1300 1.366 . S
C1300 C1299 1.366 . S
C1300 C1301 1.414 . S
C1300 C1303 1.499 . S
C1301 H1275 0.950 . S
C1301 C1300 1.414 . S
C1301 C1302 1.374 . S
C1302 H1276 0.950 . S
C1302 C1298 1.385 . S
C1302 C1301 1.374 . S
C1303 C1300 1.499 . S
C1303 C1304 1.373 . S
C1303 C1305 1.389 . S
C1304 H1277 0.950 . S
C1304 C1290 1.377 . S
C1304 C1303 1.373 . S
C1305 C1289 1.377 . S
C1305 C1303 1.389 . S
C1305 C1306 1.524 . S
C1306 C1305 1.524 . S
C1306 C1307 1.397 . S
C1306 C1311 1.363 . S
C1307 H1278 0.950 . S
C1307 C1306 1.397 . S
C1307 C1308 1.334 . S
C1308 H1279 0.950 . S
C1308 C1307 1.334 . S
C1308 C1309 1.287 . S
C1309 C1308 1.287 . S
C1309 C1310 1.524 . S
C1309 H1312 0.999 . S
C1310 H1280 0.950 . S
C1310 C1309 1.524 . S
C1310 C1311 1.415 . S
C1311 H1281 0.950 . S
C1311 C1306 1.363 . S
C1311 C1310 1.415 . S
H1312 C1309 0.999 . S
H1313 C1294 0.913 . S
H1314 C1332 0.951 . S
H1315 C1334 0.951 . S
H1316 C1336 0.950 . S
H1317 C1337 0.950 . S
H1318 C1339 0.950 . S
H1319 C1342 0.950 . S
H1320 C1343 0.950 . S
H1321 C1345 0.950 . S
H1322 C1346 0.950 . S
H1323 C1347 0.951 . S
H1324 C1349 0.951 . S
H1325 C1351 0.950 . S
H1326 C1352 0.950 . S
H1327 C1354 0.950 . S
H1328 C1357 0.950 . S
H1329 C1358 0.950 . S
H1330 C1360 0.950 . S
H1331 C1361 0.950 . S
C1332 H1314 0.951 . S
C1332 C1333 1.366 . S
C1332 C1334 1.388 . S
C1333 C1332 1.366 . S
C1333 C1337 1.385 . S
C1334 H1315 0.951 . S
C1334 C1332 1.388 . S
C1334 C1335 1.366 . S
C1335 C1334 1.366 . S
C1335 C1336 1.414 . S
C1335 C1338 1.499 . S
C1336 H1316 0.950 . S
C1336 C1335 1.414 . S
C1336 C1337 1.374 . S
C1337 H1317 0.950 . S
C1337 C1333 1.385 . S
C1337 C1336 1.374 . S
C1338 C1335 1.499 . S
C1338 C1339 1.373 . S
C1338 C1340 1.389 . S
C1339 H1318 0.950 . S
C1339 C1338 1.373 . S
C1339 C1355 1.377 . S
C1340 C1338 1.389 . S
C1340 C1341 1.524 . S
C1340 C1354 1.377 . S
C1341 C1340 1.524 . S
C1341 C1342 1.397 . S
C1341 C1346 1.363 . S
C1342 H1319 0.950 . S
C1342 C1341 1.397 . S
C1342 C1343 1.334 . S
C1343 H1320 0.950 . S
C1343 C1342 1.334 . S
C1343 C1344 1.287 . S
C1344 C1343 1.287 . S
C1344 C1345 1.524 . S
C1344 H1363 0.913 . S
C1345 H1321 0.950 . S
C1345 C1344 1.524 . S
C1345 C1346 1.415 . S
C1346 H1322 0.950 . S
C1346 C1341 1.363 . S
C1346 C1345 1.415 . S
C1347 H1323 0.951 . S
C1347 C1348 1.366 . S
C1347 C1349 1.388 . S
C1348 C1347 1.366 . S
C1348 C1352 1.385 . S
C1349 H1324 0.951 . S
C1349 C1347 1.388 . S
C1349 C1350 1.366 . S
C1350 C1349 1.366 . S
C1350 C1351 1.414 . S
C1350 C1353 1.499 . S
C1351 H1325 0.950 . S
C1351 C1350 1.414 . S
C1351 C1352 1.374 . S
C1352 H1326 0.950 . S
C1352 C1348 1.385 . S
C1352 C1351 1.374 . S
C1353 C1350 1.499 . S
C1353 C1354 1.373 . S
C1353 C1355 1.389 . S
C1354 H1327 0.950 . S
C1354 C1340 1.377 . S
C1354 C1353 1.373 . S
C1355 C1339 1.377 . S
C1355 C1353 1.389 . S
C1355 C1356 1.524 . S
C1356 C1355 1.524 . S
C1356 C1357 1.397 . S
C1356 C1361 1.363 . S
C1357 H1328 0.950 . S
C1357 C1356 1.397 . S
C1357 C1358 1.334 . S
C1358 H1329 0.950 . S
C1358 C1357 1.334 . S
C1358 C1359 1.287 . S
C1359 C1358 1.287 . S
C1359 C1360 1.524 . S
C1359 H1362 0.999 . S
C1360 H1330 0.950 . S
C1360 C1359 1.524 . S
C1360 C1361 1.415 . S
C1361 H1331 0.950 . S
C1361 C1356 1.363 . S
C1361 C1360 1.415 . S
H1362 C1359 0.999 . S
H1363 C1344 0.913 . S
H1364 C1382 0.951 . S
H1365 C1384 0.951 . S
H1366 C1386 0.950 . S
H1367 C1387 0.950 . S
H1368 C1389 0.950 . S
H1369 C1392 0.950 . S
H1370 C1393 0.950 . S
H1371 C1395 0.950 . S
H1372 C1396 0.950 . S
H1373 C1397 0.951 . S
H1374 C1399 0.951 . S
H1375 C1401 0.950 . S
H1376 C1402 0.950 . S
H1377 C1404 0.950 . S
H1378 C1407 0.950 . S
H1379 C1408 0.950 . S
H1380 C1410 0.950 . S
H1381 C1411 0.950 . S
C1382 H1364 0.951 . S
C1382 C1383 1.366 . S
C1382 C1384 1.388 . S
C1383 C1382 1.366 . S
C1383 C1387 1.385 . S
C1384 H1365 0.951 . S
C1384 C1382 1.388 . S
C1384 C1385 1.366 . S
C1385 C1384 1.366 . S
C1385 C1386 1.414 . S
C1385 C1388 1.499 . S
C1386 H1366 0.950 . S
C1386 C1385 1.414 . S
C1386 C1387 1.374 . S
C1387 H1367 0.950 . S
C1387 C1383 1.385 . S
C1387 C1386 1.374 . S
C1388 C1385 1.499 . S
C1388 C1389 1.373 . S
C1388 C1390 1.389 . S
C1389 H1368 0.950 . S
C1389 C1388 1.373 . S
C1389 C1405 1.377 . S
C1390 C1388 1.389 . S
C1390 C1391 1.524 . S
C1390 C1404 1.377 . S
C1391 C1390 1.524 . S
C1391 C1392 1.397 . S
C1391 C1396 1.363 . S
C1392 H1369 0.950 . S
C1392 C1391 1.397 . S
C1392 C1393 1.334 . S
C1393 H1370 0.950 . S
C1393 C1392 1.334 . S
C1393 C1394 1.287 . S
C1394 C1393 1.287 . S
C1394 C1395 1.524 . S
C1394 H1413 0.913 . S
C1395 H1371 0.950 . S
C1395 C1394 1.524 . S
C1395 C1396 1.415 . S
C1396 H1372 0.950 . S
C1396 C1391 1.363 . S
C1396 C1395 1.415 . S
C1397 H1373 0.951 . S
C1397 C1398 1.366 . S
C1397 C1399 1.388 . S
C1398 C1397 1.366 . S
C1398 C1402 1.385 . S
C1399 H1374 0.951 . S
C1399 C1397 1.388 . S
C1399 C1400 1.366 . S
C1400 C1399 1.366 . S
C1400 C1401 1.414 . S
C1400 C1403 1.499 . S
C1401 H1375 0.950 . S
C1401 C1400 1.414 . S
C1401 C1402 1.374 . S
C1402 H1376 0.950 . S
C1402 C1398 1.385 . S
C1402 C1401 1.374 . S
C1403 C1400 1.499 . S
C1403 C1404 1.373 . S
C1403 C1405 1.389 . S
C1404 H1377 0.950 . S
C1404 C1390 1.377 . S
C1404 C1403 1.373 . S
C1405 C1389 1.377 . S
C1405 C1403 1.389 . S
C1405 C1406 1.524 . S
C1406 C1405 1.524 . S
C1406 C1407 1.397 . S
C1406 C1411 1.363 . S
C1407 H1378 0.950 . S
C1407 C1406 1.397 . S
C1407 C1408 1.334 . S
C1408 H1379 0.950 . S
C1408 C1407 1.334 . S
C1408 C1409 1.287 . S
C1409 C1408 1.287 . S
C1409 C1410 1.524 . S
C1409 H1412 0.999 . S
C1410 H1380 0.950 . S
C1410 C1409 1.524 . S
C1410 C1411 1.415 . S
C1411 H1381 0.950 . S
C1411 C1406 1.363 . S
C1411 C1410 1.415 . S
H1412 C1409 0.999 . S
H1413 C1394 0.913 . S
H1414 C1432 0.951 . S
H1415 C1434 0.951 . S
H1416 C1436 0.950 . S
H1417 C1437 0.950 . S
H1418 C1439 0.950 . S
H1419 C1442 0.950 . S
H1420 C1443 0.950 . S
H1421 C1445 0.950 . S
H1422 C1446 0.950 . S
H1423 C1447 0.951 . S
H1424 C1449 0.951 . S
H1425 C1451 0.950 . S
H1426 C1452 0.950 . S
H1427 C1454 0.950 . S
H1428 C1457 0.950 . S
H1429 C1458 0.950 . S
H1430 C1460 0.950 . S
H1431 C1461 0.950 . S
C1432 H1414 0.951 . S
C1432 C1433 1.366 . S
C1432 C1434 1.388 . S
C1433 C1432 1.366 . S
C1433 C1437 1.385 . S
C1434 H1415 0.951 . S
C1434 C1432 1.388 . S
C1434 C1435 1.366 . S
C1435 C1434 1.366 . S
C1435 C1436 1.414 . S
C1435 C1438 1.499 . S
C1436 H1416 0.950 . S
C1436 C1435 1.414 . S
C1436 C1437 1.374 . S
C1437 H1417 0.950 . S
C1437 C1433 1.385 . S
C1437 C1436 1.374 . S
C1438 C1435 1.499 . S
C1438 C1439 1.373 . S
C1438 C1440 1.389 . S
C1439 H1418 0.950 . S
C1439 C1438 1.373 . S
C1439 C1455 1.377 . S
C1440 C1438 1.389 . S
C1440 C1441 1.524 . S
C1440 C1454 1.377 . S
C1441 C1440 1.524 . S
C1441 C1442 1.397 . S
C1441 C1446 1.363 . S
C1442 H1419 0.950 . S
C1442 C1441 1.397 . S
C1442 C1443 1.334 . S
C1443 H1420 0.950 . S
C1443 C1442 1.334 . S
C1443 C1444 1.287 . S
C1444 C1443 1.287 . S
C1444 C1445 1.524 . S
C1444 H1463 0.913 . S
C1445 H1421 0.950 . S
C1445 C1444 1.524 . S
C1445 C1446 1.415 . S
C1446 H1422 0.950 . S
C1446 C1441 1.363 . S
C1446 C1445 1.415 . S
C1447 H1423 0.951 . S
C1447 C1448 1.366 . S
C1447 C1449 1.388 . S
C1448 C1447 1.366 . S
C1448 C1452 1.385 . S
C1449 H1424 0.951 . S
C1449 C1447 1.388 . S
C1449 C1450 1.366 . S
C1450 C1449 1.366 . S
C1450 C1451 1.414 . S
C1450 C1453 1.499 . S
C1451 H1425 0.950 . S
C1451 C1450 1.414 . S
C1451 C1452 1.374 . S
C1452 H1426 0.950 . S
C1452 C1448 1.385 . S
C1452 C1451 1.374 . S
C1453 C1450 1.499 . S
C1453 C1454 1.373 . S
C1453 C1455 1.389 . S
C1454 H1427 0.950 . S
C1454 C1440 1.377 . S
C1454 C1453 1.373 . S
C1455 C1439 1.377 . S
C1455 C1453 1.389 . S
C1455 C1456 1.524 . S
C1456 C1455 1.524 . S
C1456 C1457 1.397 . S
C1456 C1461 1.363 . S
C1457 H1428 0.950 . S
C1457 C1456 1.397 . S
C1457 C1458 1.334 . S
C1458 H1429 0.950 . S
C1458 C1457 1.334 . S
C1458 C1459 1.287 . S
C1459 C1458 1.287 . S
C1459 C1460 1.524 . S
C1459 H1462 0.999 . S
C1460 H1430 0.950 . S
C1460 C1459 1.524 . S
C1460 C1461 1.415 . S
C1461 H1431 0.950 . S
C1461 C1456 1.363 . S
C1461 C1460 1.415 . S
H1462 C1459 0.999 . S
H1463 C1444 0.913 . S
C283 N1 0.908 . S
C298 C121 0.923 . S
C333 N18 1.177 . S
C348 C161 1.224 . S
C398 C186 1.838 . S
C383 N28 1.890 . S
C433 N40 2.631 . S
C448 C226 2.622 . S
C498 C157 2.054 . S
C483 N5 2.026 . S
C548 C117 1.581 . S
C533 N14 1.517 . S
C598 C248 1.704 . S
C583 N31 1.706 . S
C648 C208 1.320 . S
C633 N41 1.334 . S
C683 N2 1.034 . S
C698 C250 1.043 . S
C748 C167 2.330 1_556 S
C733 N27 2.364 . S
C783 N44 2.302 . S
C798 C127 2.340 1_655 S
C833 N15 0.906 . S
C848 C210 0.916 . S
C898 C130 1.543 . S
C883 N57 1.536 . S
C933 N70 0.869 . S
C948 C170 0.892 . S
C983 N79 2.152 . S
C998 C207 2.163 . S
C1033 N93 2.316 . S
C1048 C247 2.283 . S
C1083 N54 1.512 . S
C1098 C168 1.555 . S
C1148 C128 2.285 1_655 S
C1133 N66 2.271 . S
C1198 C237 1.033 . S
C1183 N80 1.049 . S
C1248 C197 1.620 . S
C1233 N96 1.640 . S
C1283 N53 1.164 . S
C1298 C241 1.171 . S
C1348 C146 1.805 . S
C1333 N83 1.761 . S
C1398 C106 2.379 . S
C1383 N92 2.427 . S
C1433 N67 1.142 . S
C1448 C201 1.147 . S
