# Generated by pormake.
# Topology rtl, (3,6)-cn, num edge types: 1
# Building blocks:
#     Node 0, Type 0, BuildingBlock: QEWDON_clean_linker_0, # of connection points: 3
#     Node 1, Type 0, BuildingBlock: QEWDON_clean_linker_0, # of connection points: 3
#     Node 2, Type 0, BuildingBlock: QEWDON_clean_linker_0, # of connection points: 3
#     Node 3, Type 0, BuildingBlock: QEWDON_clean_linker_0, # of connection points: 3
#     Node 4, Type 1, BuildingBlock: KUMBOL_clean_sbu_1, # of connection points: 6
#     Node 5, Type 1, BuildingBlock: KUMBOL_clean_sbu_1, # of connection points: 6
#     Edge 6, Type (0, 1), BuildingBlock: KIFKEQ_clean_linker_1, # of connection points: 2
#     Edge 7, Type (0, 1), BuildingBlock: KIFKEQ_clean_linker_1, # of connection points: 2
#     Edge 8, Type (0, 1), BuildingBlock: KIFKEQ_clean_linker_1, # of connection points: 2
#     Edge 9, Type (0, 1), BuildingBlock: KIFKEQ_clean_linker_1, # of connection points: 2
#     Edge 10, Type (0, 1), BuildingBlock: KIFKEQ_clean_linker_1, # of connection points: 2
#     Edge 11, Type (0, 1), BuildingBlock: KIFKEQ_clean_linker_1, # of connection points: 2
#     Edge 12, Type (0, 1), BuildingBlock: KIFKEQ_clean_linker_1, # of connection points: 2
#     Edge 13, Type (0, 1), BuildingBlock: KIFKEQ_clean_linker_1, # of connection points: 2
#     Edge 14, Type (0, 1), BuildingBlock: KIFKEQ_clean_linker_1, # of connection points: 2
#     Edge 15, Type (0, 1), BuildingBlock: KIFKEQ_clean_linker_1, # of connection points: 2
#     Edge 16, Type (0, 1), BuildingBlock: KIFKEQ_clean_linker_1, # of connection points: 2
#     Edge 17, Type (0, 1), BuildingBlock: KIFKEQ_clean_linker_1, # of connection points: 2
# Relax obj value: 0.085
# Max RMSD: 0.273
# Mean RMSD: 0.209
data_MOF--net-rtl--node1-KUMBOL_clean_sbu_1--node2-QEWDON_clean_linker_0--edge1-KIFKEQ_clean_linker_1
_symmetry_space_group_name_H-M    P1
_symmetry_Int_Tables_number       1
_symmetry_cell_setting            triclinic
loop_
_symmetry_equiv_pos_as_xyz
'x, y, z'
_cell_length_a     38.009073
_cell_length_b     37.741989
_cell_length_c     26.976074
_cell_angle_alpha  79.288773
_cell_angle_beta   100.42834
_cell_angle_gamma 91.210982
loop_
_atom_site_label
_atom_site_type_symbol
_atom_site_fract_x
_atom_site_fract_y
_atom_site_fract_z
_atom_type_partial_charge
H0 H 0.25764 0.85352 0.0989 0.0
C1 C 0.24054 0.8597 0.0615 0.0
C2 C 0.20551 0.87285 0.05703 0.0
C3 C 0.25427 0.85588 0.01779 0.0
H4 H 0.15752 0.89297 1.00395 0.0
C5 C 0.18405 0.88153 1.00808 0.0
C6 C 0.19783 0.87882 0.96398 0.0
C7 C 0.23292 0.86577 0.9691 0.0
C8 C 0.29277 0.84798 0.02257 0.0
H9 H 0.24412 0.8648 0.93514 0.0
C10 C 0.30562 0.8131 0.023 0.0
C11 C 0.3428 0.80645 0.02976 0.0
C12 C 0.31704 0.87612 0.0278 0.0
H13 H 0.30756 0.90306 0.0275 0.0
C14 C 0.35364 0.86982 0.03347 0.0
H15 H 0.28693 0.79124 0.01951 0.0
C16 C 0.36648 0.83531 0.03456 0.0
H17 H 0.39508 0.83121 0.03895 0.0
H18 H 0.37217 0.89173 0.03728 0.0
H19 H 0.74358 0.71425 0.59848 0.0
C20 C 0.72563 0.70703 0.62562 0.0
C21 C 0.69674 0.68407 0.61463 0.0
C22 C 0.73311 0.71787 0.67374 0.0
H23 H 0.65228 0.65584 0.64246 0.0
C24 C 0.67462 0.67344 0.65098 0.0
C25 C 0.68182 0.68352 0.69907 0.0
C26 C 0.7106 0.70642 0.70984 0.0
C27 C 0.76697 0.7366 0.68982 0.0
H28 H 0.7167 0.71368 0.74748 0.0
C29 C 0.77802 0.76795 0.65919 0.0
C30 C 0.80941 0.78574 0.67751 0.0
C31 C 0.78847 0.72275 0.73748 0.0
H32 H 0.78114 0.69832 0.76129 0.0
C33 C 0.81972 0.74001 0.755 0.0
H34 H 0.76181 0.77905 0.62241 0.0
C35 C 0.83001 0.77143 0.72549 0.0
H36 H 0.85426 0.78462 0.74007 0.0
H37 H 0.83595 0.72908 0.79178 0.0
H38 H 0.79773 0.1972 0.13239 0.0
C39 C 0.81106 0.1931 0.10158 0.0
C40 C 0.84569 0.17776 0.11307 0.0
C41 C 0.79288 0.20162 0.05051 0.0
H42 H 0.88868 0.15962 0.08133 0.0
C43 C 0.86216 0.17174 0.07268 0.0
C44 C 0.84443 0.1799 0.02142 0.0
C45 C 0.80979 0.19507 0.01064 0.0
C46 C 0.75457 0.21261 0.0393 0.0
H47 H 0.7954 0.20059 0.97142 0.0
C48 C 0.74269 0.24389 0.05349 0.0
C49 C 0.70582 0.25254 0.04404 0.0
C50 C 0.72938 0.19051 0.01537 0.0
H51 H 0.73787 0.1663 1.0044 0.0
C52 C 0.69298 0.19891 1.00639 0.0
H53 H 0.7619 0.26128 0.07168 0.0
C54 C 0.68122 0.22959 0.02078 0.0
H55 H 0.65281 0.23578 0.01293 0.0
H56 H 0.67378 0.18156 0.98821 0.0
H57 H 0.33881 0.2965 0.5164 0.0
C58 C 0.34712 0.31261 0.48295 0.0
C59 C 0.36148 0.34703 0.48561 0.0
C60 C 0.34492 0.29846 0.43776 0.0
H61 H 0.38565 0.3932 0.44561 0.0
C62 C 0.37331 0.36731 0.44273 0.0
C63 C 0.37197 0.3534 0.39773 0.0
C64 C 0.35745 0.3191 0.39543 0.0
C65 C 0.33245 0.26108 0.43534 0.0
H66 H 0.3561 0.30828 0.36062 0.0
C67 C 0.29956 0.24863 0.44913 0.0
C68 C 0.28736 0.21397 0.44226 0.0
C69 C 0.35338 0.23791 0.41693 0.0
H70 H 0.37894 0.24654 0.4068 0.0
C71 C 0.34166 0.20344 0.41125 0.0
H72 H 0.28297 0.26623 0.463 0.0
C73 C 0.30877 0.19163 0.42336 0.0
H74 H 0.29999 0.16486 0.41806 0.0
H75 H 0.358 0.18591 0.39691 0.0
C76 C 0.94384 0.1231 0.50101 0.0
C77 C 0.88394 0.10032 0.5021 0.0
C78 C 0.92125 0.09653 0.51899 0.0
C79 C 0.87009 0.13012 0.46456 0.0
C80 C 0.93001 0.15412 0.46568 0.0
C81 C 0.89309 0.15702 0.44645 0.0
N82 N 0.9794 0.11924 0.51979 0.0
C83 C 1.00239 0.14659 0.50856 0.0
C84 C 0.95366 0.1816 0.45174 0.0
C85 C 0.98994 0.17806 0.47394 0.0
Gd86 Gd 0.037 0.98975 0.50777 0.0
Gd87 Gd 0.99862 0.06533 0.57585 0.0
N88 N 0.93554 0.06848 0.55594 0.0
C89 C 0.86164 0.07488 0.52504 0.0
C90 C 0.91372 0.04579 0.5818 0.0
C91 C 0.87658 0.04796 0.56586 0.0
H92 H 0.92478 0.02611 0.61511 0.0
H93 H 0.85949 0.0292 0.58558 0.0
H94 H 0.12359 1.00686 0.51787 0.0
H95 H 0.03043 0.14364 0.52556 0.0
H96 H 0.18129 0.98061 0.5681 0.0
H97 H 0.83284 0.07679 0.51317 0.0
H98 H 0.84154 0.13323 0.45061 0.0
H99 H 0.97777 0.92215 0.52212 0.0
H100 H 0.94409 0.20591 0.42474 0.0
H101 H 1.00831 0.19943 0.46417 0.0
H102 H 0.14731 0.87468 0.67741 0.0
H103 H 0.88196 0.18038 0.41865 0.0
H104 H 0.02416 0.84069 0.64787 0.0
H105 H 0.97214 0.86534 0.582 0.0
N106 N 0.03007 0.93296 0.55918 0.0
C107 C 0.05983 0.91825 0.59187 0.0
C108 C 0.99967 0.91313 0.55309 0.0
C109 C 0.02622 0.86644 0.62302 0.0
C110 C 0.99679 0.88031 0.58601 0.0
C111 C 0.05868 0.88477 0.62501 0.0
H112 H 0.0898 0.84438 0.68321 0.0
N113 N 0.09236 0.96671 0.5551 0.0
C114 C 0.09218 0.9352 0.58882 0.0
C115 C 0.15662 0.93617 0.61124 0.0
C116 C 0.12427 0.91932 0.61845 0.0
C117 C 0.12381 0.98255 0.54631 0.0
C118 C 0.1564 0.9677 0.57455 0.0
O119 O 0.99896 0.07643 0.49059 0.0
O120 O 0.98772 0.02219 0.46457 0.0
O121 O 0.06414 0.99512 0.44176 0.0
O122 O 0.02941 0.95044 0.45769 0.0
O123 O 0.97859 1.00788 0.58999 0.0
O124 O 0.97813 0.98746 0.51457 0.0
O125 O 0.06495 1.00355 0.58371 0.0
O126 O 0.019 1.01205 0.624 0.0
O127 O 0.97775 0.08893 0.63335 0.0
O128 O 0.03493 0.09032 0.63062 0.0
O129 O 0.06097 0.04536 0.49104 0.0
O130 O 0.05499 0.0746 0.55848 0.0
C131 C 0.98322 0.05734 0.45717 0.0
C132 C 0.9645 0.9883 0.55591 0.0
C133 C 0.08065 0.93853 0.42566 0.0
C134 C 0.11894 0.91527 0.37467 0.0
C135 C 0.11914 0.88622 0.46316 0.0
C136 C 0.09359 0.91087 0.46715 0.0
C137 C 0.13172 0.88829 0.41738 0.0
C138 C 0.09328 0.94055 0.37918 0.0
C139 C 0.05313 0.96415 0.43076 0.0
C140 C 0.12302 0.88702 0.65361 0.0
C141 C 0.09024 0.86985 0.65705 0.0
H142 H 0.18188 0.9248 0.63321 0.0
C143 C 0.05123 0.99984 0.62562 0.0
C144 C 0.07095 0.06968 0.52036 0.0
C145 C 1.01662 0.11809 0.69655 0.0
C146 C 0.99851 0.13824 0.76958 0.0
C147 C 0.05821 0.15079 0.75064 0.0
C148 C 0.05041 0.13326 0.70891 0.0
C149 C 0.03258 0.15318 0.7809 0.0
C150 C 0.99048 0.12102 0.72676 0.0
C151 C 1.00945 0.09877 0.65285 0.0
H152 H 0.12879 0.86501 0.49546 0.0
H153 H 0.08343 0.90777 0.50248 0.0
H154 H 0.15084 0.86805 0.41506 0.0
H155 H 0.08316 0.96159 0.34681 0.0
H156 H 0.08431 0.16245 0.75975 0.0
H157 H 0.07094 0.13158 0.68628 0.0
H158 H 0.03935 0.16695 0.81313 0.0
H159 H 0.96443 0.10912 0.71795 0.0
C160 C 0.62435 0.58115 0.04106 0.0
C161 C 0.60796 0.64359 1.00457 0.0
C162 C 0.59986 0.60958 0.03168 0.0
C163 C 0.64014 0.64818 0.98557 0.0
C164 C 0.65689 0.58581 0.02264 0.0
C165 C 0.66454 0.61941 0.99464 0.0
N166 N 0.61561 0.54845 0.06636 0.0
C167 C 0.6387 0.51976 0.07649 0.0
C168 C 0.68048 0.55632 0.0321 0.0
C169 C 0.67141 0.52322 0.05936 0.0
Gd170 Gd 0.48212 0.50604 0.99546 0.0
Gd171 Gd 0.55997 0.54497 0.09256 0.0
N172 N 0.56841 0.60412 0.04942 0.0
C173 C 0.58376 0.67218 0.9981 0.0
C174 C 0.54662 0.63284 0.0475 0.0
C175 C 0.55335 0.66695 0.02063 0.0
H176 H 0.5247 0.6302 0.06807 0.0
H177 H 0.53544 0.68937 0.01826 0.0
H178 H 0.51001 0.42119 0.05336 0.0
H179 H 0.63191 0.49426 0.09799 0.0
H180 H 0.48654 0.36788 0.10341 0.0
H181 H 0.589 0.6987 0.97753 0.0
H182 H 0.64657 0.67402 0.96422 0.0
H183 H 0.4142 0.56547 0.95707 0.0
H184 H 0.70572 0.55882 0.01851 0.0
H185 H 0.68958 0.50035 0.06713 0.0
H186 H 0.36518 0.4004 0.10295 0.0
H187 H 0.68926 0.62341 0.97978 0.0
H188 H 0.32294 0.51819 0.01505 0.0
H189 H 0.35116 0.56994 0.96695 0.0
N190 N 0.42181 0.51239 1.0007 0.0
C191 C 0.40662 0.48329 0.02622 0.0
C192 C 0.40231 0.54306 0.97901 0.0
C193 C 0.35065 0.51617 0.01108 0.0
C194 C 0.36652 0.5455 0.98405 0.0
C195 C 0.37066 0.48454 0.03248 0.0
H196 H 0.32839 0.45493 0.06554 0.0
N197 N 0.46248 0.45261 0.04232 0.0
C198 C 0.42746 0.45246 0.0474 0.0
C199 C 0.43446 0.3917 0.0962 0.0
C200 C 0.4127 0.42218 0.07521 0.0
C201 C 0.48324 0.4223 0.06059 0.0
C202 C 0.46975 0.39164 0.08837 0.0
O203 O 0.56745 0.54019 0.01269 0.0
O204 O 0.51283 0.55363 0.96168 0.0
O205 O 0.48722 0.46937 0.94412 0.0
O206 O 0.44669 0.51142 0.92134 0.0
O207 O 0.5038 0.56893 0.07841 0.0
O208 O 0.48028 0.56597 0.99412 0.0
O209 O 0.47326 0.50565 0.07638 0.0
O210 O 0.52877 0.49844 0.12851 0.0
O211 O 0.56133 0.57514 0.15417 0.0
O212 O 0.60345 0.5368 0.15798 0.0
O213 O 0.53691 0.47826 0.01445 0.0
O214 O 0.56334 0.48483 0.09681 0.0
C215 C 0.54779 0.55579 0.96949 0.0
C216 C 0.48093 0.58006 0.03542 0.0
C217 C 0.47038 0.49169 0.85591 0.0
C218 C 0.46193 0.47569 0.77101 0.0
C219 C 0.50625 0.52008 0.79417 0.0
C220 C 0.49713 0.51591 0.84278 0.0
C221 C 0.48897 0.49994 0.75854 0.0
C222 C 0.45259 0.47193 0.81982 0.0
C223 C 0.46205 0.48516 0.90786 0.0
C224 C 0.37689 0.42336 0.08152 0.0
C225 C 0.35594 0.45442 0.0602 0.0
H226 H 0.42415 0.36793 0.11793 0.0
C227 C 0.49391 0.49416 0.12084 0.0
C228 C 0.56045 0.4684 0.05722 0.0
C229 C 0.58953 0.54595 0.23612 0.0
C230 C 0.6038 0.55549 0.32465 0.0
C231 C 0.57582 0.49978 0.30496 0.0
C232 C 0.5756 0.51205 0.25286 0.0
C233 C 0.58995 0.52116 0.34068 0.0
C234 C 0.60338 0.56765 0.27191 0.0
C235 C 0.59021 0.55893 0.18156 0.0
H236 H 0.527 0.53873 0.78424 0.0
H237 H 0.51119 0.53121 0.87024 0.0
H238 H 0.49656 0.50346 0.72112 0.0
H239 H 0.43223 0.45286 0.83025 0.0
H240 H 0.56526 0.47348 0.31777 0.0
H241 H 0.56487 0.49502 0.22573 0.0
H242 H 0.59045 0.5105 0.38094 0.0
H243 H 0.61354 0.59407 0.25847 0.0
H244 H 0.26387 0.20142 0.53405 0.0
H245 H 0.23199 0.19496 0.37438 0.0
H246 H 0.21014 0.16857 0.55323 0.0
H247 H 0.17773 0.16362 0.39256 0.0
H248 H 0.11354 0.06692 0.44937 0.0
H249 H 0.16336 0.10526 0.43108 0.0
H250 H 0.14649 0.16633 0.5455 0.0
H251 H 0.09728 0.12692 0.56531 0.0
C252 C 0.24479 0.19383 0.50292 0.0
C253 C 0.25201 0.20054 0.45283 0.0
C254 C 0.214 0.17499 0.51377 0.0
C255 C 0.18973 0.16276 0.4746 0.0
C256 C 0.19618 0.17159 0.42401 0.0
C257 C 0.22704 0.18994 0.41338 0.0
C258 C 0.12033 0.08849 0.47073 0.0
C259 C 0.10118 0.09369 0.50882 0.0
C260 C 0.14885 0.11081 0.45988 0.0
C261 C 0.15895 0.1393 0.4864 0.0
C262 C 0.13979 0.14455 0.52454 0.0
C263 C 0.11135 0.12199 0.53569 0.0
H264 H 0.398 0.77267 0.09998 0.0
H265 H 0.32179 0.75754 0.96637 0.0
H266 H 0.42761 0.71613 0.10061 0.0
H267 H 0.35111 0.69993 0.9676 0.0
H268 H 0.44608 0.62711 0.95147 0.0
H269 H 0.40825 0.67891 0.95096 0.0
H270 H 0.42084 0.65179 0.11602 0.0
H271 H 0.45885 0.60059 0.1165 0.0
C272 C 0.38735 0.757 0.07096 0.0
C273 C 0.35772 0.76975 0.03287 0.0
C274 C 0.40415 0.72434 0.07157 0.0
C275 C 0.39184 0.70338 0.03411 0.0
C276 C 0.36152 0.71558 0.99673 0.0
C277 C 0.34449 0.74835 0.99631 0.0
C278 C 0.44036 0.63201 0.98753 0.0
C279 C 0.45569 0.60989 0.03404 0.0
C280 C 0.41856 0.66162 0.98725 0.0
C281 C 0.41169 0.66977 0.0335 0.0
C282 C 0.42607 0.64678 0.07976 0.0
C283 C 0.44784 0.61734 0.08003 0.0
H284 H 0.81215 0.8514 0.7043 0.0
H285 H 0.83549 0.79588 0.58792 0.0
H286 H 0.84432 0.90409 0.66934 0.0
H287 H 0.8688 0.84832 0.55333 0.0
H288 H 0.91417 0.95817 0.48989 0.0
H289 H 0.87004 0.91237 0.51223 0.0
H290 H 0.90743 0.91395 0.67286 0.0
H291 H 0.95097 0.95937 0.65062 0.0
C292 C 0.82351 0.85093 0.67037 0.0
C293 C 0.82131 0.81977 0.64861 0.0
C294 C 0.8423 0.88089 0.65066 0.0
C295 C 0.85978 0.88024 0.60911 0.0
C296 C 0.85554 0.84985 0.5852 0.0
C297 C 0.83643 0.81984 0.60483 0.0
C298 C 0.91264 0.94884 0.52991 0.0
C299 C 0.936 0.96244 0.56848 0.0
C300 C 0.88749 0.92255 0.54271 0.0
C301 C 0.88497 0.90957 0.59434 0.0
C302 C 0.908 0.92378 0.63266 0.0
C303 C 0.93311 0.94983 0.61992 0.0
H304 H 0.72073 0.32233 1.00628 0.0
H305 H 0.65852 0.25747 0.10709 0.0
H306 H 0.68899 0.3767 0.01329 0.0
H307 H 0.62722 0.31167 0.11487 0.0
H308 H 0.59581 0.42329 0.14261 0.0
H309 H 0.63622 0.37278 0.14565 0.0
H310 H 0.62274 0.39562 0.98048 0.0
H311 H 0.58213 0.44559 0.97731 0.0
C312 C 0.701 0.3199 0.03107 0.0
C313 C 0.69211 0.28582 0.05628 0.0
C314 C 0.68263 0.35089 0.03474 0.0
C315 C 0.65547 0.34841 0.06442 0.0
C316 C 0.64814 0.3145 0.09201 0.0
C317 C 0.66601 0.2835 0.08756 0.0
C318 C 0.60161 0.41756 0.10701 0.0
C319 C 0.58555 0.43824 0.05971 0.0
C320 C 0.62469 0.38866 0.10876 0.0
C321 C 0.63279 0.38035 0.06332 0.0
C322 C 0.61735 0.40159 0.01617 0.0
C323 C 0.59379 0.42998 0.01435 0.0
H324 H 0.14033 0.85742 0.08543 0.0
H325 H 0.24109 0.90767 0.13078 0.0
H326 H 0.11913 0.87169 0.15983 0.0
H327 H 0.21979 0.92287 0.20414 0.0
H328 H 0.18727 0.90452 0.36172 0.0
H329 H 0.20732 0.89549 0.28453 0.0
H330 H 0.10033 0.91862 0.19823 0.0
H331 H 0.07984 0.9258 0.27671 0.0
C332 C 0.15785 0.87169 0.11119 0.0
C333 C 0.19255 0.88096 0.10264 0.0
C334 C 0.14564 0.88016 0.15365 0.0
C335 C 0.16772 0.89842 0.1883 0.0
C336 C 0.20224 0.90815 0.17906 0.0
C337 C 0.21453 0.89939 0.13698 0.0
C338 C 0.16797 0.90773 0.32629 0.0
C339 C 0.13183 0.91546 0.32561 0.0
C340 C 0.17957 0.90292 0.28172 0.0
C341 C 0.15546 0.90605 0.23491 0.0
C342 C 0.11956 0.91535 0.23371 0.0
C343 C 0.10788 0.92002 0.27855 0.0
H344 H 0.65099 0.71523 0.76522 0.0
H345 H 0.66806 0.61236 0.72456 0.0
H346 H 0.61746 0.6851 0.83087 0.0
H347 H 0.63457 0.58267 0.78897 0.0
H348 H 0.61124 0.5377 0.94834 0.0
H349 H 0.64392 0.57049 0.88469 0.0
H350 H 0.55843 0.64976 0.83472 0.0
H351 H 0.52567 0.61678 0.89927 0.0
C352 C 0.64757 0.68629 0.77033 0.0
C353 C 0.66185 0.66619 0.73952 0.0
C354 C 0.62822 0.66913 0.80749 0.0
C355 C 0.62339 0.63156 0.81491 0.0
C356 C 0.63802 0.6116 0.78439 0.0
C357 C 0.65695 0.62867 0.74719 0.0
C358 C 0.59937 0.56206 0.92362 0.0
C359 C 0.56594 0.57471 0.92845 0.0
C360 C 0.61802 0.58079 0.88714 0.0
C361 C 0.60371 0.61267 0.85471 0.0
C362 C 0.5702 0.62541 0.85951 0.0
C363 C 0.5513 0.60637 0.89586 0.0
H364 H 0.91588 0.18604 0.15448 0.0
H365 H 0.81723 0.14003 0.19332 0.0
H366 H 0.94797 0.15786 0.23858 0.0
H367 H 0.84916 0.11283 0.27854 0.0
H368 H 0.92684 0.03183 0.3959 0.0
H369 H 0.892 0.06379 0.31527 0.0
H370 H 0.95688 0.15815 0.32864 0.0
H371 H 0.99252 0.12557 0.40751 0.0
C372 C 0.90095 0.17029 0.18131 0.0
C373 C 0.86403 0.16511 0.16702 0.0
C374 C 0.91931 0.15434 0.22977 0.0
C375 C 0.90123 0.13281 0.26535 0.0
C376 C 0.86402 0.12878 0.25181 0.0
C377 C 0.84562 0.1448 0.20323 0.0
C378 C 0.93368 0.05933 0.38132 0.0
C379 C 0.96219 0.07633 0.40818 0.0
C380 C 0.91346 0.07783 0.3355 0.0
C381 C 0.92149 0.11366 0.31545 0.0
C382 C 0.95007 0.13053 0.34258 0.0
C383 C 0.97027 0.11201 0.38817 0.0
H384 H 0.33864 0.41086 0.50273 0.0
H385 H 0.40132 0.31541 0.57672 0.0
H386 H 0.35998 0.43923 0.5771 0.0
H387 H 0.42318 0.34397 0.65086 0.0
H388 H 0.49365 0.43479 0.71789 0.0
H389 H 0.46464 0.39973 0.65455 0.0
H390 H 0.36106 0.43236 0.67583 0.0
H391 H 0.39019 0.46718 0.73988 0.0
C392 C 0.35627 0.39568 0.53554 0.0
C393 C 0.36823 0.36094 0.53427 0.0
C394 C 0.36848 0.41186 0.57801 0.0
C395 C 0.39343 0.39387 0.6195 0.0
C396 C 0.40411 0.35847 0.61921 0.0
C397 C 0.39137 0.34203 0.57712 0.0
C398 C 0.4647 0.43434 0.70915 0.0
C399 C 0.44414 0.45378 0.73357 0.0
C400 C 0.44811 0.41403 0.67331 0.0
C401 C 0.41061 0.4132 0.66053 0.0
C402 C 0.39001 0.43254 0.68506 0.0
C403 C 0.40663 0.45234 0.72168 0.0
H404 H 0.69091 0.61296 0.61228 0.0
H405 H 0.68907 0.717 0.51294 0.0
H406 H 0.66987 0.58478 0.53837 0.0
H407 H 0.66839 0.68827 0.43794 0.0
H408 H 0.66234 0.60005 0.32485 0.0
H409 H 0.68843 0.63428 0.39107 0.0
H410 H 0.60609 0.59574 0.47794 0.0
H411 H 0.5791 0.56284 0.41146 0.0
C412 C 0.68648 0.62973 0.5744 0.0
C413 C 0.69094 0.66726 0.56832 0.0
C414 C 0.6744 0.61359 0.53219 0.0
C415 C 0.66689 0.63448 0.48273 0.0
C416 C 0.67388 0.67167 0.47587 0.0
C417 C 0.68578 0.68804 0.51856 0.0
C418 C 0.64934 0.59942 0.35754 0.0
C419 C 0.6188 0.57819 0.36302 0.0
C420 C 0.6644 0.61897 0.39542 0.0
C421 C 0.64946 0.61725 0.43969 0.0
C422 C 0.61842 0.59704 0.44444 0.0
C423 C 0.60314 0.57797 0.40648 0.0
H424 H 0.88108 0.11824 0.0223 0.0
H425 H 0.84703 0.2209 0.9265 0.0
H426 H 0.91465 0.1054 0.95879 0.0
H427 H 0.88071 0.2079 0.86247 0.0
H428 H 0.92781 0.15952 0.74249 0.0
H429 H 0.88654 0.1674 0.80009 0.0
H430 H 0.96936 0.13014 0.93087 0.0
H431 H 1.01002 0.12195 0.87373 0.0
C432 C 0.88078 0.13813 0.98764 0.0
C433 C 0.8619 0.17093 0.97996 0.0
C434 C 0.89997 0.1307 0.95115 0.0
C435 C 0.90076 0.1558 0.90582 0.0
C436 C 0.8805 0.18789 0.89686 0.0
C437 C 0.86125 0.19538 0.93356 0.0
C438 C 0.93689 0.15258 0.78357 0.0
C439 C 0.97217 0.14027 0.80362 0.0
C440 C 0.91341 0.15739 0.81651 0.0
C441 C 0.92465 0.14944 0.87009 0.0
C442 C 0.95965 0.13618 0.88987 0.0
C443 C 0.98308 0.13174 0.85712 0.0
H444 H 0.36468 0.42535 0.35639 0.0
H445 H 0.41649 0.32773 0.34293 0.0
H446 H 0.39482 0.45967 0.29055 0.0
H447 H 0.44614 0.36199 0.27631 0.0
H448 H 0.52361 0.44308 0.20315 0.0
H449 H 0.49344 0.40875 0.26934 0.0
H450 H 0.39474 0.46611 0.19774 0.0
H451 H 0.42498 0.50087 0.13271 0.0
C452 C 0.38236 0.4112 0.33915 0.0
C453 C 0.38815 0.37382 0.35484 0.0
C454 C 0.39947 0.43082 0.30123 0.0
C455 C 0.42299 0.41357 0.27836 0.0
C456 C 0.42849 0.37611 0.29362 0.0
C457 C 0.41115 0.35643 0.33129 0.0
C458 C 0.49562 0.44864 0.20207 0.0
C459 C 0.4767 0.4747 0.16284 0.0
C460 C 0.47822 0.4287 0.23954 0.0
C461 C 0.44166 0.43466 0.23872 0.0
C462 C 0.42297 0.4611 0.1998 0.0
C463 C 0.44028 0.48086 0.16235 0.0
H464 H 0.21725 0.9336 0.89454 0.0
H465 H 0.13162 0.85951 0.91929 0.0
H466 H 0.18173 0.96348 0.814 0.0
H467 H 0.09651 0.88756 0.83666 0.0
H468 H 0.02714 0.96713 0.71218 0.0
H469 H 0.06259 0.93746 0.79325 0.0
H470 H 0.15919 0.96195 0.73038 0.0
H471 H 0.12378 0.99452 0.65185 0.0
C472 C 0.19102 0.92322 0.88188 0.0
C473 C 0.17719 0.8942 0.91275 0.0
C474 C 0.17058 0.94021 0.83548 0.0
C475 C 0.136 0.92808 0.81815 0.0
C476 C 0.12261 0.89831 0.84886 0.0
C477 C 0.14281 0.88188 0.89596 0.0
C478 C 0.05601 0.9665 0.71615 0.0
C479 C 0.07269 0.98261 0.67535 0.0
C480 C 0.07641 0.94896 0.76241 0.0
C481 C 0.11401 0.94678 0.7688 0.0
C482 C 0.13049 0.96332 0.72777 0.0
C483 C 0.11013 0.98153 0.68213 0.0
loop_
_geom_bond_atom_site_label_1
_geom_bond_atom_site_label_2
_geom_bond_distance
_geom_bond_site_symmetry_2
_ccdc_geom_bond_type
H0 C1 0.949 . S
C1 H0 0.949 . S
C1 C2 1.395 . S
C1 C3 1.391 . S
C2 C1 1.395 . S
C2 C5 1.390 . S
C3 C1 1.391 . S
C3 C7 1.387 1_554 S
C3 C8 1.491 . S
H4 C5 0.950 . S
C5 C2 1.390 . S
C5 H4 0.950 . S
C5 C6 1.378 1_554 S
C6 C5 1.378 1_556 S
C6 C7 1.409 . S
C7 C3 1.387 1_556 S
C7 C6 1.409 . S
C7 H9 0.951 . S
C8 C3 1.491 . S
C8 C10 1.382 . S
C8 C12 1.404 1_554 S
H9 C7 0.951 . S
C10 C8 1.382 . S
C10 C11 1.390 . S
C10 H15 0.949 . S
C11 C10 1.390 . S
C11 C16 1.399 . S
C12 C8 1.404 1_556 S
C12 H13 0.950 . S
C12 C14 1.375 . S
H13 C12 0.950 . S
C14 C12 1.375 . S
C14 C16 1.382 1_556 S
C14 H18 0.950 . S
H15 C10 0.949 . S
C16 C11 1.399 . S
C16 C14 1.382 1_554 S
C16 H17 0.952 . S
H17 C16 0.952 . S
H18 C14 0.950 . S
H19 C20 0.949 . S
C20 H19 0.949 . S
C20 C21 1.395 . S
C20 C22 1.391 . S
C21 C20 1.395 . S
C21 C24 1.390 . S
C22 C20 1.391 . S
C22 C26 1.387 . S
C22 C27 1.491 . S
H23 C24 0.950 . S
C24 C21 1.390 . S
C24 H23 0.950 . S
C24 C25 1.378 . S
C25 C24 1.378 . S
C25 C26 1.409 . S
C26 C22 1.387 . S
C26 C25 1.409 . S
C26 H28 0.951 . S
C27 C22 1.491 . S
C27 C29 1.382 . S
C27 C31 1.404 . S
H28 C26 0.951 . S
C29 C27 1.382 . S
C29 C30 1.390 . S
C29 H34 0.949 . S
C30 C29 1.390 . S
C30 C35 1.399 . S
C31 C27 1.404 . S
C31 H32 0.950 . S
C31 C33 1.375 . S
H32 C31 0.950 . S
C33 C31 1.375 . S
C33 C35 1.382 . S
C33 H37 0.950 . S
H34 C29 0.949 . S
C35 C30 1.399 . S
C35 C33 1.382 . S
C35 H36 0.952 . S
H36 C35 0.952 . S
H37 C33 0.950 . S
H38 C39 0.949 . S
C39 H38 0.949 . S
C39 C40 1.395 . S
C39 C41 1.391 . S
C40 C39 1.395 . S
C40 C43 1.390 . S
C41 C39 1.391 . S
C41 C45 1.387 1_554 S
C41 C46 1.491 . S
H42 C43 0.950 . S
C43 C40 1.390 . S
C43 H42 0.950 . S
C43 C44 1.378 . S
C44 C43 1.378 . S
C44 C45 1.409 1_554 S
C45 C41 1.387 1_556 S
C45 C44 1.409 1_556 S
C45 H47 0.951 . S
C46 C41 1.491 . S
C46 C48 1.382 . S
C46 C50 1.404 1_554 S
H47 C45 0.951 . S
C48 C46 1.382 . S
C48 C49 1.390 . S
C48 H53 0.949 . S
C49 C48 1.390 . S
C49 C54 1.399 1_554 S
C50 C46 1.404 1_556 S
C50 H51 0.950 . S
C50 C52 1.375 . S
H51 C50 0.950 . S
C52 C50 1.375 . S
C52 C54 1.382 . S
C52 H56 0.950 . S
H53 C48 0.949 . S
C54 C49 1.399 1_556 S
C54 C52 1.382 . S
C54 H55 0.952 . S
H55 C54 0.952 . S
H56 C52 0.950 . S
H57 C58 0.949 . S
C58 H57 0.949 . S
C58 C59 1.395 . S
C58 C60 1.391 . S
C59 C58 1.395 . S
C59 C62 1.390 . S
C60 C58 1.391 . S
C60 C64 1.387 . S
C60 C65 1.491 . S
H61 C62 0.950 . S
C62 C59 1.390 . S
C62 H61 0.950 . S
C62 C63 1.378 . S
C63 C62 1.378 . S
C63 C64 1.409 . S
C64 C60 1.387 . S
C64 C63 1.409 . S
C64 H66 0.951 . S
C65 C60 1.491 . S
C65 C67 1.382 . S
C65 C69 1.404 . S
H66 C64 0.951 . S
C67 C65 1.382 . S
C67 C68 1.390 . S
C67 H72 0.949 . S
C68 C67 1.390 . S
C68 C73 1.399 . S
C69 C65 1.404 . S
C69 H70 0.950 . S
C69 C71 1.375 . S
H70 C69 0.950 . S
C71 C69 1.375 . S
C71 C73 1.382 . S
C71 H75 0.950 . S
H72 C67 0.949 . S
C73 C68 1.399 . S
C73 C71 1.382 . S
C73 H74 0.952 . S
H74 C73 0.952 . S
H75 C71 0.950 . S
C76 C78 1.422 . S
C76 C80 1.415 . S
C76 N82 1.369 . S
C77 C78 1.421 . S
C77 C79 1.417 . S
C77 C89 1.422 . S
C78 C76 1.422 . S
C78 C77 1.421 . S
C78 N88 1.359 . S
C79 C77 1.417 . S
C79 C81 1.329 . S
C79 H98 0.930 . S
C80 C76 1.415 . S
C80 C81 1.437 . S
C80 C84 1.413 . S
C81 C79 1.329 . S
C81 C80 1.437 . S
C81 H103 0.929 . S
N82 C76 1.369 . S
N82 C83 1.338 1_655 S
N82 Gd87 2.622 . S
C83 N82 1.338 1_455 S
C83 C85 1.378 . S
C83 H95 0.929 . S
C84 C80 1.413 . S
C84 C85 1.348 1_655 S
C84 H100 0.931 . S
C85 C83 1.378 . S
C85 C84 1.348 1_455 S
C85 H101 0.930 . S
Gd86 N106 2.622 . S
Gd86 N113 2.570 . S
Gd86 O120 2.353 1_465 S
Gd86 O121 2.468 . S
Gd86 O122 2.427 . S
Gd86 O124 2.388 1_455 S
Gd86 O125 2.386 . S
Gd86 O129 2.307 1_565 S
Gd86 C139 2.805 . S
Gd87 N82 2.622 . S
Gd87 N88 2.570 . S
Gd87 O119 2.386 . S
Gd87 O123 2.307 1_545 S
Gd87 O126 2.353 1_655 S
Gd87 O127 2.468 . S
Gd87 O128 2.427 . S
Gd87 O130 2.388 1_655 S
Gd87 C151 2.805 . S
N88 C78 1.359 . S
N88 Gd87 2.570 . S
N88 C90 1.343 . S
C89 C77 1.422 . S
C89 C91 1.321 . S
C89 H97 0.931 . S
C90 N88 1.343 . S
C90 C91 1.390 . S
C90 H92 0.931 . S
C91 C89 1.321 . S
C91 C90 1.390 . S
C91 H93 0.930 . S
H92 C90 0.931 . S
H93 C91 0.930 . S
H94 C117 0.931 . S
H95 C83 0.929 . S
H96 C118 0.930 . S
H97 C89 0.931 . S
H98 C79 0.930 . S
H99 C108 0.929 1_655 S
H100 C84 0.931 . S
H101 C85 0.930 . S
H102 C140 0.930 . S
H103 C81 0.929 . S
H104 C109 0.931 . S
H105 C110 0.930 1_655 S
N106 Gd86 2.622 . S
N106 C107 1.369 . S
N106 C108 1.338 . S
C107 N106 1.369 . S
C107 C111 1.415 . S
C107 C114 1.422 . S
C108 H99 0.929 1_455 S
C108 N106 1.338 . S
C108 C110 1.378 . S
C109 H104 0.931 . S
C109 C110 1.348 . S
C109 C111 1.413 . S
C110 H105 0.930 1_455 S
C110 C108 1.378 . S
C110 C109 1.348 . S
C111 C107 1.415 . S
C111 C109 1.413 . S
C111 C141 1.437 . S
H112 C141 0.929 . S
N113 Gd86 2.570 . S
N113 C114 1.359 . S
N113 C117 1.343 . S
C114 C107 1.422 . S
C114 N113 1.359 . S
C114 C116 1.421 . S
C115 C116 1.422 . S
C115 C118 1.321 . S
C115 H142 0.931 . S
C116 C114 1.421 . S
C116 C115 1.422 . S
C116 C140 1.417 . S
C117 H94 0.931 . S
C117 N113 1.343 . S
C117 C118 1.390 . S
C118 H96 0.930 . S
C118 C115 1.321 . S
C118 C117 1.390 . S
O119 Gd87 2.386 . S
O119 C131 1.265 . S
O120 Gd86 2.353 1_645 S
O120 C131 1.242 . S
O121 Gd86 2.468 . S
O121 C139 1.263 . S
O122 Gd86 2.427 . S
O122 C139 1.252 . S
O123 Gd87 2.307 1_565 S
O123 C132 1.261 . S
O124 Gd86 2.388 1_655 S
O124 C132 1.252 . S
O125 Gd86 2.386 . S
O125 C143 1.265 . S
O126 Gd87 2.353 1_455 S
O126 C143 1.242 1_545 S
O127 Gd87 2.468 . S
O127 C151 1.263 . S
O128 Gd87 2.427 . S
O128 C151 1.252 . S
O129 Gd86 2.307 1_545 S
O129 C144 1.261 . S
O130 Gd87 2.388 1_455 S
O130 C144 1.252 . S
C131 O119 1.265 . S
C131 O120 1.242 . S
C132 O123 1.261 . S
C132 O124 1.252 . S
C133 C136 1.394 . S
C133 C138 1.370 . S
C133 C139 1.500 . S
C134 C137 1.383 . S
C134 C138 1.395 . S
C135 C136 1.396 . S
C135 C137 1.365 . S
C135 H152 0.929 . S
C136 C133 1.394 . S
C136 C135 1.396 . S
C136 H153 0.930 . S
C137 C134 1.383 . S
C137 C135 1.365 . S
C137 H154 0.931 . S
C138 C133 1.370 . S
C138 C134 1.395 . S
C138 H155 0.930 . S
C139 Gd86 2.805 . S
C139 O121 1.263 . S
C139 O122 1.252 . S
C139 C133 1.500 . S
C140 H102 0.930 . S
C140 C116 1.417 . S
C140 C141 1.329 . S
C141 C111 1.437 . S
C141 H112 0.929 . S
C141 C140 1.329 . S
H142 C115 0.931 . S
C143 O125 1.265 . S
C143 O126 1.242 1_565 S
C144 O129 1.261 . S
C144 O130 1.252 . S
C145 C148 1.394 . S
C145 C150 1.370 . S
C145 C151 1.500 . S
C146 C149 1.383 . S
C146 C150 1.395 . S
C147 C148 1.396 . S
C147 C149 1.365 . S
C147 H156 0.929 . S
C148 C145 1.394 . S
C148 C147 1.396 . S
C148 H157 0.930 . S
C149 C146 1.383 . S
C149 C147 1.365 . S
C149 H158 0.931 . S
C150 C145 1.370 . S
C150 C146 1.395 . S
C150 H159 0.930 . S
C151 Gd87 2.805 . S
C151 O127 1.263 . S
C151 O128 1.252 . S
C151 C145 1.500 . S
H152 C135 0.929 . S
H153 C136 0.930 . S
H154 C137 0.931 . S
H155 C138 0.930 . S
H156 C147 0.929 . S
H157 C148 0.930 . S
H158 C149 0.931 . S
H159 C150 0.930 . S
C160 C162 1.422 . S
C160 C164 1.415 . S
C160 N166 1.369 . S
C161 C162 1.421 . S
C161 C163 1.417 . S
C161 C173 1.422 . S
C162 C160 1.422 . S
C162 C161 1.421 . S
C162 N172 1.359 . S
C163 C161 1.417 . S
C163 C165 1.329 . S
C163 H182 0.930 . S
C164 C160 1.415 . S
C164 C165 1.437 . S
C164 C168 1.413 . S
C165 C163 1.329 . S
C165 C164 1.437 . S
C165 H187 0.929 . S
N166 C160 1.369 . S
N166 C167 1.338 . S
N166 Gd171 2.622 . S
C167 N166 1.338 . S
C167 C169 1.378 . S
C167 H179 0.929 . S
C168 C164 1.413 . S
C168 C169 1.348 . S
C168 H184 0.931 . S
C169 C167 1.378 . S
C169 C168 1.348 . S
C169 H185 0.930 . S
Gd170 N190 2.619 1_556 S
Gd170 N197 2.570 1_556 S
Gd170 O204 2.353 . S
Gd170 O205 2.468 . S
Gd170 O206 2.427 . S
Gd170 O208 2.388 1_556 S
Gd170 O209 2.386 1_556 S
Gd170 O213 2.307 1_556 S
Gd170 C223 2.805 . S
Gd171 N166 2.622 . S
Gd171 N172 2.570 . S
Gd171 O203 2.386 . S
Gd171 O207 2.307 . S
Gd171 O210 2.353 . S
Gd171 O211 2.468 . S
Gd171 O212 2.427 . S
Gd171 O214 2.388 . S
Gd171 C235 2.805 . S
N172 C162 1.359 . S
N172 Gd171 2.570 . S
N172 C174 1.343 . S
C173 C161 1.422 . S
C173 C175 1.321 . S
C173 H181 0.931 . S
C174 N172 1.343 . S
C174 C175 1.390 . S
C174 H176 0.931 . S
C175 C173 1.321 . S
C175 C174 1.390 . S
C175 H177 0.930 . S
H176 C174 0.931 . S
H177 C175 0.930 . S
H178 C201 0.931 . S
H179 C167 0.929 . S
H180 C202 0.930 . S
H181 C173 0.931 . S
H182 C163 0.930 . S
H183 C192 0.929 . S
H184 C168 0.931 . S
H185 C169 0.930 . S
H186 C224 0.930 . S
H187 C165 0.929 . S
H188 C193 0.931 . S
H189 C194 0.930 . S
N190 Gd170 2.619 1_554 S
N190 C191 1.372 . S
N190 C192 1.339 1_554 S
C191 N190 1.372 . S
C191 C195 1.415 . S
C191 C198 1.422 . S
C192 H183 0.929 . S
C192 N190 1.339 1_556 S
C192 C194 1.378 . S
C193 H188 0.931 . S
C193 C194 1.348 1_554 S
C193 C195 1.413 . S
C194 H189 0.930 . S
C194 C192 1.378 . S
C194 C193 1.348 1_556 S
C195 C191 1.415 . S
C195 C193 1.413 . S
C195 C225 1.437 . S
H196 C225 0.929 . S
N197 Gd170 2.570 1_554 S
N197 C198 1.359 . S
N197 C201 1.343 . S
C198 C191 1.422 . S
C198 N197 1.359 . S
C198 C200 1.421 . S
C199 C200 1.422 . S
C199 C202 1.321 . S
C199 H226 0.931 . S
C200 C198 1.421 . S
C200 C199 1.422 . S
C200 C224 1.417 . S
C201 H178 0.931 . S
C201 N197 1.343 . S
C201 C202 1.390 . S
C202 H180 0.930 . S
C202 C199 1.321 . S
C202 C201 1.390 . S
O203 Gd171 2.386 . S
O203 C215 1.265 1_554 S
O204 Gd170 2.353 . S
O204 C215 1.242 . S
O205 Gd170 2.468 . S
O205 C223 1.263 . S
O206 Gd170 2.427 . S
O206 C223 1.252 . S
O207 Gd171 2.307 . S
O207 C216 1.261 . S
O208 Gd170 2.388 1_554 S
O208 C216 1.252 . S
O209 Gd170 2.386 1_554 S
O209 C227 1.265 . S
O210 Gd171 2.353 . S
O210 C227 1.242 . S
O211 Gd171 2.468 . S
O211 C235 1.263 . S
O212 Gd171 2.427 . S
O212 C235 1.252 . S
O213 Gd170 2.307 1_554 S
O213 C228 1.261 . S
O214 Gd171 2.388 . S
O214 C228 1.252 . S
C215 O203 1.265 1_556 S
C215 O204 1.242 . S
C216 O207 1.261 . S
C216 O208 1.252 . S
C217 C220 1.394 . S
C217 C222 1.370 . S
C217 C223 1.500 . S
C218 C221 1.383 . S
C218 C222 1.395 . S
C219 C220 1.396 . S
C219 C221 1.365 . S
C219 H236 0.929 . S
C220 C217 1.394 . S
C220 C219 1.396 . S
C220 H237 0.930 . S
C221 C218 1.383 . S
C221 C219 1.365 . S
C221 H238 0.931 . S
C222 C217 1.370 . S
C222 C218 1.395 . S
C222 H239 0.930 . S
C223 Gd170 2.805 . S
C223 O205 1.263 . S
C223 O206 1.252 . S
C223 C217 1.500 . S
C224 H186 0.930 . S
C224 C200 1.417 . S
C224 C225 1.329 . S
C225 C195 1.437 . S
C225 H196 0.929 . S
C225 C224 1.329 . S
H226 C199 0.931 . S
C227 O209 1.265 . S
C227 O210 1.242 . S
C228 O213 1.261 . S
C228 O214 1.252 . S
C229 C232 1.394 . S
C229 C234 1.370 . S
C229 C235 1.500 . S
C230 C233 1.383 . S
C230 C234 1.395 . S
C231 C232 1.396 . S
C231 C233 1.365 . S
C231 H240 0.929 . S
C232 C229 1.394 . S
C232 C231 1.396 . S
C232 H241 0.930 . S
C233 C230 1.383 . S
C233 C231 1.365 . S
C233 H242 0.931 . S
C234 C229 1.370 . S
C234 C230 1.395 . S
C234 H243 0.930 . S
C235 Gd171 2.805 . S
C235 O211 1.263 . S
C235 O212 1.252 . S
C235 C229 1.500 . S
H236 C219 0.929 . S
H237 C220 0.930 . S
H238 C221 0.931 . S
H239 C222 0.930 . S
H240 C231 0.929 . S
H241 C232 0.930 . S
H242 C233 0.931 . S
H243 C234 0.930 . S
H244 C252 0.950 . S
H245 C257 0.950 . S
H246 C254 0.950 . S
H247 C256 0.950 . S
H248 C258 0.950 . S
H249 C260 0.950 . S
H250 C262 0.950 . S
H251 C263 0.950 . S
C252 H244 0.950 . S
C252 C253 1.386 . S
C252 C254 1.391 . S
C253 C252 1.386 . S
C253 C257 1.393 . S
C254 H246 0.950 . S
C254 C252 1.391 . S
C254 C255 1.400 . S
C255 C254 1.400 . S
C255 C256 1.398 . S
C255 C261 1.491 . S
C256 H247 0.950 . S
C256 C255 1.398 . S
C256 C257 1.391 . S
C257 H245 0.950 . S
C257 C253 1.393 . S
C257 C256 1.391 . S
C258 H248 0.950 . S
C258 C259 1.386 . S
C258 C260 1.391 . S
C259 C258 1.386 . S
C259 C263 1.393 . S
C260 H249 0.950 . S
C260 C258 1.391 . S
C260 C261 1.400 . S
C261 C255 1.491 . S
C261 C260 1.400 . S
C261 C262 1.398 . S
C262 H250 0.950 . S
C262 C261 1.398 . S
C262 C263 1.391 . S
C263 H251 0.950 . S
C263 C259 1.393 . S
C263 C262 1.391 . S
H264 C272 0.950 . S
H265 C277 0.950 1_556 S
H266 C274 0.950 . S
H267 C276 0.950 1_556 S
H268 C278 0.950 1_556 S
H269 C280 0.950 1_556 S
H270 C282 0.950 . S
H271 C283 0.950 . S
C272 H264 0.950 . S
C272 C273 1.386 . S
C272 C274 1.391 . S
C273 C272 1.386 . S
C273 C277 1.393 . S
C274 H266 0.950 . S
C274 C272 1.391 . S
C274 C275 1.400 . S
C275 C274 1.400 . S
C275 C276 1.398 . S
C275 C281 1.491 . S
C276 H267 0.950 1_554 S
C276 C275 1.398 . S
C276 C277 1.391 . S
C277 H265 0.950 1_554 S
C277 C273 1.393 . S
C277 C276 1.391 . S
C278 H268 0.950 1_554 S
C278 C279 1.386 . S
C278 C280 1.391 . S
C279 C278 1.386 . S
C279 C283 1.393 . S
C280 H269 0.950 1_554 S
C280 C278 1.391 . S
C280 C281 1.400 . S
C281 C275 1.491 . S
C281 C280 1.400 . S
C281 C282 1.398 . S
C282 H270 0.950 . S
C282 C281 1.398 . S
C282 C283 1.391 . S
C283 H271 0.950 . S
C283 C279 1.393 . S
C283 C282 1.391 . S
H284 C292 0.950 . S
H285 C297 0.950 . S
H286 C294 0.950 . S
H287 C296 0.950 . S
H288 C298 0.950 . S
H289 C300 0.950 . S
H290 C302 0.950 . S
H291 C303 0.950 . S
C292 H284 0.950 . S
C292 C293 1.386 . S
C292 C294 1.391 . S
C293 C292 1.386 . S
C293 C297 1.393 . S
C294 H286 0.950 . S
C294 C292 1.391 . S
C294 C295 1.400 . S
C295 C294 1.400 . S
C295 C296 1.398 . S
C295 C301 1.491 . S
C296 H287 0.950 . S
C296 C295 1.398 . S
C296 C297 1.391 . S
C297 H285 0.950 . S
C297 C293 1.393 . S
C297 C296 1.391 . S
C298 H288 0.950 . S
C298 C299 1.386 . S
C298 C300 1.391 . S
C299 C298 1.386 . S
C299 C303 1.393 . S
C300 H289 0.950 . S
C300 C298 1.391 . S
C300 C301 1.400 . S
C301 C295 1.491 . S
C301 C300 1.400 . S
C301 C302 1.398 . S
C302 H290 0.950 . S
C302 C301 1.398 . S
C302 C303 1.391 . S
C303 H291 0.950 . S
C303 C299 1.393 . S
C303 C302 1.391 . S
H304 C312 0.950 . S
H305 C317 0.950 . S
H306 C314 0.966 . S
H307 C316 0.950 . S
H308 C318 0.950 . S
H309 C320 0.950 . S
H310 C322 0.950 1_556 S
H311 C323 0.950 1_556 S
C312 H304 0.950 . S
C312 C313 1.386 1_556 S
C312 C314 1.398 . S
C313 C312 1.386 1_554 S
C313 C317 1.393 . S
C314 H306 0.966 . S
C314 C312 1.398 . S
C314 C315 1.378 1_556 S
C315 C314 1.378 1_554 S
C315 C316 1.398 . S
C315 C321 1.491 . S
C316 H307 0.950 . S
C316 C315 1.398 . S
C316 C317 1.391 . S
C317 H305 0.950 . S
C317 C313 1.393 . S
C317 C316 1.391 . S
C318 H308 0.950 . S
C318 C319 1.386 . S
C318 C320 1.391 . S
C319 C318 1.386 . S
C319 C323 1.393 . S
C320 H309 0.950 . S
C320 C318 1.391 . S
C320 C321 1.400 . S
C321 C315 1.491 . S
C321 C320 1.400 . S
C321 C322 1.398 . S
C322 H310 0.950 1_554 S
C322 C321 1.398 . S
C322 C323 1.391 . S
C323 H311 0.950 1_554 S
C323 C319 1.393 . S
C323 C322 1.391 . S
H324 C332 0.950 . S
H325 C337 0.950 . S
H326 C334 0.950 . S
H327 C336 0.950 . S
H328 C338 0.950 . S
H329 C340 0.950 . S
H330 C342 0.950 . S
H331 C343 0.950 . S
C332 H324 0.950 . S
C332 C333 1.386 . S
C332 C334 1.391 . S
C333 C332 1.386 . S
C333 C337 1.393 . S
C334 H326 0.950 . S
C334 C332 1.391 . S
C334 C335 1.400 . S
C335 C334 1.400 . S
C335 C336 1.398 . S
C335 C341 1.491 . S
C336 H327 0.950 . S
C336 C335 1.398 . S
C336 C337 1.391 . S
C337 H325 0.950 . S
C337 C333 1.393 . S
C337 C336 1.391 . S
C338 H328 0.950 . S
C338 C339 1.386 . S
C338 C340 1.391 . S
C339 C338 1.386 . S
C339 C343 1.393 . S
C340 H329 0.950 . S
C340 C338 1.391 . S
C340 C341 1.400 . S
C341 C335 1.491 . S
C341 C340 1.400 . S
C341 C342 1.398 . S
C342 H330 0.950 . S
C342 C341 1.398 . S
C342 C343 1.391 . S
C343 H331 0.950 . S
C343 C339 1.393 . S
C343 C342 1.391 . S
H344 C352 0.950 . S
H345 C357 0.950 . S
H346 C354 0.950 . S
H347 C356 0.950 . S
H348 C358 0.950 . S
H349 C360 0.950 . S
H350 C362 0.950 . S
H351 C363 0.950 . S
C352 H344 0.950 . S
C352 C353 1.386 . S
C352 C354 1.391 . S
C353 C352 1.386 . S
C353 C357 1.393 . S
C354 H346 0.950 . S
C354 C352 1.391 . S
C354 C355 1.400 . S
C355 C354 1.400 . S
C355 C356 1.398 . S
C355 C361 1.491 . S
C356 H347 0.950 . S
C356 C355 1.398 . S
C356 C357 1.391 . S
C357 H345 0.950 . S
C357 C353 1.393 . S
C357 C356 1.391 . S
C358 H348 0.950 . S
C358 C359 1.386 . S
C358 C360 1.391 . S
C359 C358 1.386 . S
C359 C363 1.393 . S
C360 H349 0.950 . S
C360 C358 1.391 . S
C360 C361 1.400 . S
C361 C355 1.491 . S
C361 C360 1.400 . S
C361 C362 1.398 . S
C362 H350 0.950 . S
C362 C361 1.398 . S
C362 C363 1.391 . S
C363 H351 0.950 . S
C363 C359 1.393 . S
C363 C362 1.391 . S
H364 C372 0.950 . S
H365 C377 0.950 . S
H366 C374 0.950 . S
H367 C376 0.950 . S
H368 C378 0.950 . S
H369 C380 0.950 . S
H370 C382 0.950 . S
H371 C383 0.950 . S
C372 H364 0.950 . S
C372 C373 1.386 . S
C372 C374 1.391 . S
C373 C372 1.386 . S
C373 C377 1.393 . S
C374 H366 0.950 . S
C374 C372 1.391 . S
C374 C375 1.400 . S
C375 C374 1.400 . S
C375 C376 1.398 . S
C375 C381 1.491 . S
C376 H367 0.950 . S
C376 C375 1.398 . S
C376 C377 1.391 . S
C377 H365 0.950 . S
C377 C373 1.393 . S
C377 C376 1.391 . S
C378 H368 0.950 . S
C378 C379 1.386 . S
C378 C380 1.391 . S
C379 C378 1.386 . S
C379 C383 1.393 . S
C380 H369 0.950 . S
C380 C378 1.391 . S
C380 C381 1.400 . S
C381 C375 1.491 . S
C381 C380 1.400 . S
C381 C382 1.398 . S
C382 H370 0.950 . S
C382 C381 1.398 . S
C382 C383 1.391 . S
C383 H371 0.950 . S
C383 C379 1.393 . S
C383 C382 1.391 . S
H384 C392 0.950 . S
H385 C397 0.950 . S
H386 C394 0.950 . S
H387 C396 0.950 . S
H388 C398 0.950 . S
H389 C400 0.950 . S
H390 C402 0.950 . S
H391 C403 0.950 . S
C392 H384 0.950 . S
C392 C393 1.386 . S
C392 C394 1.391 . S
C393 C392 1.386 . S
C393 C397 1.393 . S
C394 H386 0.950 . S
C394 C392 1.391 . S
C394 C395 1.400 . S
C395 C394 1.400 . S
C395 C396 1.398 . S
C395 C401 1.491 . S
C396 H387 0.950 . S
C396 C395 1.398 . S
C396 C397 1.391 . S
C397 H385 0.950 . S
C397 C393 1.393 . S
C397 C396 1.391 . S
C398 H388 0.950 . S
C398 C399 1.386 . S
C398 C400 1.391 . S
C399 C398 1.386 . S
C399 C403 1.393 . S
C400 H389 0.950 . S
C400 C398 1.391 . S
C400 C401 1.400 . S
C401 C395 1.491 . S
C401 C400 1.400 . S
C401 C402 1.398 . S
C402 H390 0.950 . S
C402 C401 1.398 . S
C402 C403 1.391 . S
C403 H391 0.950 . S
C403 C399 1.393 . S
C403 C402 1.391 . S
H404 C412 0.950 . S
H405 C417 0.950 . S
H406 C414 0.950 . S
H407 C416 0.950 . S
H408 C418 0.950 . S
H409 C420 0.950 . S
H410 C422 0.950 . S
H411 C423 0.950 . S
C412 H404 0.950 . S
C412 C413 1.386 . S
C412 C414 1.391 . S
C413 C412 1.386 . S
C413 C417 1.393 . S
C414 H406 0.950 . S
C414 C412 1.391 . S
C414 C415 1.400 . S
C415 C414 1.400 . S
C415 C416 1.398 . S
C415 C421 1.491 . S
C416 H407 0.950 . S
C416 C415 1.398 . S
C416 C417 1.391 . S
C417 H405 0.950 . S
C417 C413 1.393 . S
C417 C416 1.391 . S
C418 H408 0.950 . S
C418 C419 1.386 . S
C418 C420 1.391 . S
C419 C418 1.386 . S
C419 C423 1.393 . S
C420 H409 0.950 . S
C420 C418 1.391 . S
C420 C421 1.400 . S
C421 C415 1.491 . S
C421 C420 1.400 . S
C421 C422 1.398 . S
C422 H410 0.950 . S
C422 C421 1.398 . S
C422 C423 1.391 . S
C423 H411 0.950 . S
C423 C419 1.393 . S
C423 C422 1.391 . S
H424 C432 0.950 1_554 S
H425 C437 0.950 . S
H426 C434 0.950 . S
H427 C436 0.950 . S
H428 C438 0.950 . S
H429 C440 0.950 . S
H430 C442 0.950 . S
H431 C443 0.950 . S
C432 H424 0.950 1_556 S
C432 C433 1.386 . S
C432 C434 1.391 . S
C433 C432 1.386 . S
C433 C437 1.393 . S
C434 H426 0.950 . S
C434 C432 1.391 . S
C434 C435 1.400 . S
C435 C434 1.400 . S
C435 C436 1.398 . S
C435 C441 1.491 . S
C436 H427 0.950 . S
C436 C435 1.398 . S
C436 C437 1.391 . S
C437 H425 0.950 . S
C437 C433 1.393 . S
C437 C436 1.391 . S
C438 H428 0.950 . S
C438 C439 1.386 . S
C438 C440 1.391 . S
C439 C438 1.386 . S
C439 C443 1.393 . S
C440 H429 0.950 . S
C440 C438 1.391 . S
C440 C441 1.400 . S
C441 C435 1.491 . S
C441 C440 1.400 . S
C441 C442 1.398 . S
C442 H430 0.950 . S
C442 C441 1.398 . S
C442 C443 1.391 . S
C443 H431 0.950 . S
C443 C439 1.393 . S
C443 C442 1.391 . S
H444 C452 0.950 . S
H445 C457 0.950 . S
H446 C454 0.950 . S
H447 C456 0.950 . S
H448 C458 0.950 . S
H449 C460 0.950 . S
H450 C462 0.950 . S
H451 C463 0.950 . S
C452 H444 0.950 . S
C452 C453 1.386 . S
C452 C454 1.391 . S
C453 C452 1.386 . S
C453 C457 1.393 . S
C454 H446 0.950 . S
C454 C452 1.391 . S
C454 C455 1.400 . S
C455 C454 1.400 . S
C455 C456 1.398 . S
C455 C461 1.491 . S
C456 H447 0.950 . S
C456 C455 1.398 . S
C456 C457 1.391 . S
C457 H445 0.950 . S
C457 C453 1.393 . S
C457 C456 1.391 . S
C458 H448 0.950 . S
C458 C459 1.386 . S
C458 C460 1.391 . S
C459 C458 1.386 . S
C459 C463 1.393 . S
C460 H449 0.950 . S
C460 C458 1.391 . S
C460 C461 1.400 . S
C461 C455 1.491 . S
C461 C460 1.400 . S
C461 C462 1.398 . S
C462 H450 0.950 . S
C462 C461 1.398 . S
C462 C463 1.391 . S
C463 H451 0.950 . S
C463 C459 1.393 . S
C463 C462 1.391 . S
H464 C472 0.950 . S
H465 C477 0.950 . S
H466 C474 0.950 . S
H467 C476 0.950 . S
H468 C478 0.950 . S
H469 C480 0.950 . S
H470 C482 0.950 . S
H471 C483 0.950 . S
C472 H464 0.950 . S
C472 C473 1.386 . S
C472 C474 1.391 . S
C473 C472 1.386 . S
C473 C477 1.393 . S
C474 H466 0.950 . S
C474 C472 1.391 . S
C474 C475 1.400 . S
C475 C474 1.400 . S
C475 C476 1.398 . S
C475 C481 1.491 . S
C476 H467 0.950 . S
C476 C475 1.398 . S
C476 C477 1.391 . S
C477 H465 0.950 . S
C477 C473 1.393 . S
C477 C476 1.391 . S
C478 H468 0.950 . S
C478 C479 1.386 . S
C478 C480 1.391 . S
C479 C478 1.386 . S
C479 C483 1.393 . S
C480 H469 0.950 . S
C480 C478 1.391 . S
C480 C481 1.400 . S
C481 C475 1.491 . S
C481 C480 1.400 . S
C481 C482 1.398 . S
C482 H470 0.950 . S
C482 C481 1.398 . S
C482 C483 1.391 . S
C483 H471 0.950 . S
C483 C479 1.393 . S
C483 C482 1.391 . S
C259 C144 1.699 . S
C253 C68 1.667 . S
C273 C11 1.585 . S
C279 C216 1.709 . S
C293 C30 1.611 . S
C299 C132 1.713 . S
C313 C49 1.608 . S
C319 C228 1.670 . S
C339 C134 1.513 . S
C333 C2 1.682 . S
C359 C215 1.788 . S
C353 C25 1.784 . S
C373 C40 1.700 . S
C379 C131 1.716 . S
C393 C59 1.675 . S
C399 C218 1.491 . S
C419 C230 1.427 . S
C413 C21 1.599 . S
C439 C146 1.405 . S
C433 C44 1.614 1_556 S
C459 C227 1.679 . S
C453 C63 1.679 . S
C473 C6 1.632 . S
C479 C143 1.643 . S
