# Generated by pormake.
# Topology anh, (6,3)-cn, num edge types: 1
# Building blocks:
#     Node 0, Type 0, BuildingBlock: VOLQOD_clean_sbu_1, # of connection points: 6
#     Node 1, Type 0, BuildingBlock: VOLQOD_clean_sbu_1, # of connection points: 6
#     Node 2, Type 0, BuildingBlock: VOLQOD_clean_sbu_1, # of connection points: 6
#     Node 3, Type 1, BuildingBlock: BETDIP_clean_linker_0, # of connection points: 3
#     Node 4, Type 1, BuildingBlock: BETDIP_clean_linker_0, # of connection points: 3
#     Node 5, Type 1, BuildingBlock: BETDIP_clean_linker_0, # of connection points: 3
#     Node 6, Type 1, BuildingBlock: BETDIP_clean_linker_0, # of connection points: 3
#     Node 7, Type 1, BuildingBlock: BETDIP_clean_linker_0, # of connection points: 3
#     Node 8, Type 1, BuildingBlock: BETDIP_clean_linker_0, # of connection points: 3
#     Edge 9, Type (0, 1), BuildingBlock: TEMPAE_clean_linker_10, # of connection points: 2
#     Edge 10, Type (0, 1), BuildingBlock: TEMPAE_clean_linker_10, # of connection points: 2
#     Edge 11, Type (0, 1), BuildingBlock: TEMPAE_clean_linker_10, # of connection points: 2
#     Edge 12, Type (0, 1), BuildingBlock: TEMPAE_clean_linker_10, # of connection points: 2
#     Edge 13, Type (0, 1), BuildingBlock: TEMPAE_clean_linker_10, # of connection points: 2
#     Edge 14, Type (0, 1), BuildingBlock: TEMPAE_clean_linker_10, # of connection points: 2
#     Edge 15, Type (0, 1), BuildingBlock: TEMPAE_clean_linker_10, # of connection points: 2
#     Edge 16, Type (0, 1), BuildingBlock: TEMPAE_clean_linker_10, # of connection points: 2
#     Edge 17, Type (0, 1), BuildingBlock: TEMPAE_clean_linker_10, # of connection points: 2
#     Edge 18, Type (0, 1), BuildingBlock: TEMPAE_clean_linker_10, # of connection points: 2
#     Edge 19, Type (0, 1), BuildingBlock: TEMPAE_clean_linker_10, # of connection points: 2
#     Edge 20, Type (0, 1), BuildingBlock: TEMPAE_clean_linker_10, # of connection points: 2
#     Edge 21, Type (0, 1), BuildingBlock: TEMPAE_clean_linker_10, # of connection points: 2
#     Edge 22, Type (0, 1), BuildingBlock: TEMPAE_clean_linker_10, # of connection points: 2
#     Edge 23, Type (0, 1), BuildingBlock: TEMPAE_clean_linker_10, # of connection points: 2
#     Edge 24, Type (0, 1), BuildingBlock: TEMPAE_clean_linker_10, # of connection points: 2
#     Edge 25, Type (0, 1), BuildingBlock: TEMPAE_clean_linker_10, # of connection points: 2
#     Edge 26, Type (0, 1), BuildingBlock: TEMPAE_clean_linker_10, # of connection points: 2
# Relax obj value: 0.171
# Max RMSD: 0.216
# Mean RMSD: 0.152
data_MOF--net-anh--node1-VOLQOD_clean_sbu_1--node2-BETDIP_clean_linker_0--edge1-TEMPAE_clean_linker_10
_symmetry_space_group_name_H-M    P1
_symmetry_Int_Tables_number       1
_symmetry_cell_setting            triclinic
loop_
_symmetry_equiv_pos_as_xyz
'x, y, z'
_cell_length_a     29.728652
_cell_length_b     29.686031
_cell_length_c     57.299658
_cell_angle_alpha  94.021402
_cell_angle_beta   89.789288
_cell_angle_gamma 120.36292
loop_
_atom_site_label
_atom_site_type_symbol
_atom_site_fract_x
_atom_site_fract_y
_atom_site_fract_z
_atom_type_partial_charge
O0 O 0.03498 0.62499 0.19767 0.0
Zn1 Zn 0.0429 0.64429 0.16432 0.0
O2 O 0.05698 0.59638 0.14461 0.0
Zn3 Zn 0.00108 0.55691 0.12092 0.0
Zn4 Zn 0.06347 0.54844 0.16405 0.0
Zn5 Zn 0.12168 0.63538 0.129 0.0
O6 O 0.02753 0.56722 0.08791 0.0
O7 O 0.10998 0.63043 0.09444 0.0
O8 O 0.97463 0.63833 0.15442 0.0
O9 O 0.94938 0.58114 0.12323 0.0
O10 O 0.95823 0.48062 0.12777 0.0
O11 O -0.00024 0.47708 0.15909 0.0
O12 O 0.12784 0.54393 0.15756 0.0
O13 O 0.10394 0.71927 0.16476 0.0
O14 O 0.16992 0.60829 0.13435 0.0
O15 O 0.15847 0.71034 0.14093 0.0
C16 C 0.04831 0.59757 0.20871 0.0
C17 C 0.07171 0.6004 0.08039 0.0
C18 C 0.96146 0.45557 0.14427 0.0
C19 C 0.94223 0.61159 0.13748 0.0
C20 C 0.16738 0.57175 0.14565 0.0
C21 C 0.1476 0.73864 0.15476 0.0
O22 O 0.06489 0.56985 0.19822 0.0
O23 O 0.50077 0.05781 0.45077 0.0
Zn24 Zn 0.47856 0.04467 0.48405 0.0
O25 O 0.52597 0.03066 0.50115 0.0
Zn26 Zn 0.56731 0.08746 0.52436 0.0
Zn27 Zn 0.57168 0.02184 0.47915 0.0
Zn28 Zn 0.48667 0.96914 0.51783 0.0
O29 O 0.56862 0.06256 0.55614 0.0
O30 O 0.49492 0.98558 0.55281 0.0
O31 O 0.47757 0.10761 0.49908 0.0
O32 O 0.53661 0.13382 0.52822 0.0
O33 O 0.63921 0.13278 0.51312 0.0
O34 O 0.64332 0.08669 0.48184 0.0
O35 O 0.57559 0.95708 0.48474 0.0
O36 O 0.40528 0.98188 0.48293 0.0
O37 O 0.51276 0.92001 0.51019 0.0
O38 O 0.41138 0.93127 0.50793 0.0
C39 C 0.52443 0.04077 0.43758 0.0
C40 C 0.53281 0.02243 0.56521 0.0
C41 C 0.66382 0.12796 0.49582 0.0
C42 C 0.50262 0.13853 0.5169 0.0
C43 C 0.54772 0.91964 0.49743 0.0
C44 C 0.38462 0.94013 0.49366 0.0
O45 O 0.54756 0.01859 0.44571 0.0
O46 O 0.46898 0.46774 0.79679 0.0
Zn47 Zn 0.45026 0.44887 0.83006 0.0
O48 O 0.50454 0.50002 0.85246 0.0
Zn49 Zn 0.47505 0.52704 0.8762 0.0
Zn50 Zn 0.55586 0.55771 0.83579 0.0
Zn51 Zn 0.53876 0.46826 0.86744 0.0
O52 O 0.49078 0.51595 0.90885 0.0
O53 O 0.53504 0.47457 0.90258 0.0
O54 O 0.38258 0.44684 0.8359 0.0
O55 O 0.39761 0.49122 0.87066 0.0
O56 O 0.49927 0.60392 0.87309 0.0
O57 O 0.54788 0.61984 0.84183 0.0
O58 O 0.62881 0.57636 0.84431 0.0
O59 O 0.44126 0.37717 0.83184 0.0
O60 O 0.61462 0.50409 0.86007 0.0
O61 O 0.50588 0.39231 0.85641 0.0
C62 C 0.5088 0.50496 0.78809 0.0
C63 C 0.51499 0.49441 0.91649 0.0
C64 C 0.52567 0.63377 0.8573 0.0
C65 C 0.36704 0.4638 0.8533 0.0
C66 C 0.64534 0.54827 0.8523 0.0
C67 C 0.46737 0.36122 0.84263 0.0
O68 O 0.54575 0.54095 0.80115 0.0
H69 H 0.51087 0.07982 0.19639 0.0
H70 H 0.59931 0.14847 0.26128 0.0
H71 H 0.44364 0.01523 0.26089 0.0
H72 H 0.6405 0.22047 0.23943 0.0
C73 C 0.64416 0.20241 0.22292 0.0
C74 C 0.51359 0.08084 0.21531 0.0
C75 C 0.47137 0.0441 0.22742 0.0
C76 C 0.55979 0.11847 0.22734 0.0
C77 C 0.56364 0.11953 0.25192 0.0
C78 C 0.5217 0.08256 0.26438 0.0
C79 C 0.47597 0.04478 0.25179 0.0
N80 N 0.60243 0.15285 0.21407 0.0
H81 H 0.53425 0.51289 0.54473 0.0
H82 H 0.56023 0.60041 0.61142 0.0
H83 H 0.50031 0.43443 0.60799 0.0
H84 H 0.57798 0.58869 0.53023 0.0
C85 C 0.57839 0.61875 0.54228 0.0
C86 C 0.53371 0.51485 0.56361 0.0
C87 C 0.51567 0.46844 0.57479 0.0
C88 C 0.55009 0.56272 0.57684 0.0
C89 C 0.5474 0.56347 0.60128 0.0
C90 C 0.52957 0.51736 0.61267 0.0
C91 C 0.51364 0.47008 0.59927 0.0
N92 N 0.56843 0.61074 0.56637 0.0
H93 H 0.02958 0.62584 0.84484 0.0
H94 H 0.1446 0.64656 0.89606 0.0
H95 H 0.01388 0.66104 0.91761 0.0
H96 H 0.1982 0.68369 0.85867 0.0
C97 C 0.17124 0.64394 0.85148 0.0
C98 C 0.04461 0.63613 0.86281 0.0
C99 C 0.01611 0.64439 0.8805 0.0
C100 C 0.09172 0.63878 0.86817 0.0
C101 C 0.10976 0.6476 0.89164 0.0
C102 C 0.08119 0.65463 0.9096 0.0
C103 C 0.03571 0.65518 0.90376 0.0
N104 N 0.1173 0.62658 0.85006 0.0
H105 H 0.02915 0.58544 0.45139 0.0
H106 H 0.95096 0.50948 0.3851 0.0
H107 H 0.08992 0.66151 0.38832 0.0
H108 H 0.88274 0.46342 0.40823 0.0
C109 C 0.90193 0.45729 0.42274 0.0
C110 C 0.02611 0.58594 0.43257 0.0
C111 C 0.06332 0.62911 0.4213 0.0
C112 C 0.98565 0.54261 0.41967 0.0
C113 C 0.98205 0.54289 0.39517 0.0
C114 C 0.01932 0.58587 0.38357 0.0
C115 C 0.06002 0.62857 0.3969 0.0
N116 N 0.95139 0.49821 0.43171 0.0
H117 H 0.49674 0.02827 0.80779 0.0
H118 H 0.5448 0.96945 0.74821 0.0
H119 H 0.49115 0.07827 0.74004 0.0
H120 H 0.4633 0.94053 0.81652 0.0
C121 C 0.49776 0.93764 0.81303 0.0
C122 C 0.50165 0.026 0.78909 0.0
C123 C 0.49306 0.05791 0.77506 0.0
C124 C 0.51908 0.99313 0.77924 0.0
C125 C 0.52949 0.99354 0.75535 0.0
C126 C 0.51969 0.02421 0.74081 0.0
C127 C 0.50056 0.05554 0.75092 0.0
N128 N 0.52723 0.95994 0.79312 0.0
H129 H 0.45654 0.4638 0.15301 0.0
H130 H 0.54994 0.44113 0.10118 0.0
H131 H 0.45864 0.50947 0.08321 0.0
H132 H 0.55112 0.37778 0.14993 0.0
C133 C 0.5608 0.41603 0.14468 0.0
C134 C 0.47131 0.46851 0.13549 0.0
C135 C 0.45314 0.4886 0.11885 0.0
C136 C 0.50677 0.45213 0.12948 0.0
C137 C 0.52404 0.45542 0.10638 0.0
C138 C 0.50718 0.47689 0.08983 0.0
C139 C 0.47222 0.49373 0.0962 0.0
N140 N 0.52144 0.42956 0.1468 0.0
C141 C 0.25692 0.59522 0.13345 0.0
C142 C 0.21098 0.56116 0.14443 0.0
C143 C 0.29764 0.58464 0.13099 0.0
C144 C 0.29226 0.53875 0.13962 0.0
C145 C 0.24671 0.50491 0.15131 0.0
C146 C 0.20659 0.51659 0.15363 0.0
C147 C 0.34577 0.62179 0.11851 0.0
C148 C 0.23966 0.45555 0.16069 0.0
C149 C 0.36901 0.48355 0.10896 0.0
C150 C 0.41182 0.50108 0.12458 0.0
C151 C 0.32945 0.49488 0.11387 0.0
C152 C 0.3328 0.5245 0.13492 0.0
C153 C 0.37558 0.54181 0.15093 0.0
C154 C 0.41463 0.52977 0.14558 0.0
C155 C 0.2843 0.47552 0.09641 0.0
C156 C 0.38047 0.57369 0.17349 0.0
H157 H 0.26092 0.63002 0.12646 0.0
H158 H 0.17132 0.49013 0.16219 0.0
H159 H 0.38133 0.63383 0.12947 0.0
H160 H 0.3487 0.6017 0.10199 0.0
H161 H 0.34535 0.65749 0.11422 0.0
H162 H 0.20355 0.43526 0.1707 0.0
H163 H 0.23776 0.42824 0.14596 0.0
H164 H 0.27358 0.46473 0.17224 0.0
H165 H 0.36622 0.46048 0.09292 0.0
H166 H 0.44783 0.54353 0.15763 0.0
H167 H 0.28321 0.50929 0.0899 0.0
H168 H 0.24691 0.45137 0.10498 0.0
H169 H 0.28689 0.45175 0.08117 0.0
H170 H 0.38351 0.61119 0.16958 0.0
H171 H 0.41515 0.58252 0.18444 0.0
H172 H 0.34506 0.55242 0.18379 0.0
C173 C 0.72678 0.22421 0.50041 0.0
C174 C 0.71232 0.17487 0.48926 0.0
C175 C 0.76364 0.27035 0.49081 0.0
C176 C 0.78741 0.26709 0.46982 0.0
C177 C 0.77684 0.21762 0.45976 0.0
C178 C 0.73912 0.17199 0.46952 0.0
C179 C 0.77363 0.32232 0.50204 0.0
C180 C 0.80244 0.21265 0.4377 0.0
C181 C 0.82045 0.37434 0.42923 0.0
C182 C 0.87365 0.40812 0.43447 0.0
C183 C 0.79212 0.32799 0.44046 0.0
C184 C 0.818 0.31475 0.457 0.0
C185 C 0.87214 0.34807 0.46188 0.0
C186 C 0.89932 0.3947 0.45067 0.0
C187 C 0.73426 0.29374 0.43494 0.0
C188 C 0.90115 0.33466 0.47906 0.0
H189 H 0.7066 0.22702 0.51574 0.0
H190 H 0.72865 0.1341 0.46091 0.0
H191 H 0.81608 0.3509 0.50384 0.0
H192 H 0.75608 0.33865 0.4907 0.0
H193 H 0.75666 0.31862 0.5196 0.0
H194 H 0.79702 0.17284 0.43442 0.0
H195 H 0.78515 0.22059 0.42252 0.0
H196 H 0.84482 0.2418 0.43869 0.0
H197 H 0.80074 0.38471 0.41663 0.0
H198 H 0.9407 0.42046 0.45454 0.0
H199 H 0.71234 0.2901 0.4511 0.0
H200 H 0.72498 0.25375 0.42847 0.0
H201 H 0.72019 0.30951 0.42155 0.0
H202 H 0.88601 0.33407 0.49682 0.0
H203 H 0.94378 0.36309 0.47983 0.0
H204 H 0.89464 0.29491 0.47417 0.0
C205 C 0.52575 0.71464 0.87364 0.0
C206 C 0.52449 0.68211 0.85441 0.0
C207 C 0.52387 0.76021 0.87026 0.0
C208 C 0.51856 0.77192 0.84722 0.0
C209 C 0.51624 0.7384 0.82786 0.0
C210 C 0.52013 0.69451 0.8317 0.0
C211 C 0.52792 0.79593 0.89123 0.0
C212 C 0.50886 0.74837 0.80304 0.0
C213 C 0.46106 0.85554 0.83311 0.0
C214 C 0.50467 0.89911 0.82498 0.0
C215 C 0.46537 0.81474 0.84169 0.0
C216 C 0.51486 0.81873 0.84288 0.0
C217 C 0.55968 0.86479 0.83644 0.0
C218 C 0.55391 0.90412 0.82711 0.0
C219 C 0.41635 0.76564 0.84751 0.0
C220 C 0.61333 0.87128 0.83819 0.0
H221 H 0.52909 0.70494 0.89119 0.0
H222 H 0.51823 0.66883 0.81682 0.0
H223 H 0.56091 0.83614 0.88935 0.0
H224 H 0.49194 0.79835 0.89227 0.0
H225 H 0.5339 0.78233 0.9079 0.0
H226 H 0.50531 0.717 0.79007 0.0
H227 H 0.47322 0.75124 0.80141 0.0
H228 H 0.54238 0.78618 0.79848 0.0
H229 H 0.42301 0.85191 0.83141 0.0
H230 H 0.58777 0.93838 0.82115 0.0
H231 H 0.4218 0.75189 0.86418 0.0
H232 H 0.40727 0.73415 0.8335 0.0
H233 H 0.38231 0.77147 0.84887 0.0
H234 H 0.61946 0.85909 0.8552 0.0
H235 H 0.64462 0.91238 0.83637 0.0
H236 H 0.61706 0.84584 0.82413 0.0
C237 C 0.86663 0.60787 0.15798 0.0
C238 C 0.8902 0.60658 0.13691 0.0
C239 C 0.81237 0.58608 0.15869 0.0
C240 C 0.78142 0.56365 0.13775 0.0
C241 C 0.80589 0.56839 0.11609 0.0
C242 C 0.86003 0.5893 0.11595 0.0
C243 C 0.78791 0.58163 0.18218 0.0
C244 C 0.77446 0.54648 0.09329 0.0
C245 C 0.65263 0.43788 0.14221 0.0
C246 C 0.6167 0.4551 0.14206 0.0
C247 C 0.70619 0.47298 0.14091 0.0
C248 C 0.72438 0.52677 0.13895 0.0
C249 C 0.68828 0.54449 0.13839 0.0
C250 C 0.63481 0.50854 0.14036 0.0
C251 C 0.74332 0.45239 0.14191 0.0
C252 C 0.70614 0.60135 0.13594 0.0
H253 H 0.88973 0.62104 0.17425 0.0
H254 H 0.87824 0.58877 0.09958 0.0
H255 H 0.75573 0.59015 0.18137 0.0
H256 H 0.77107 0.5409 0.18724 0.0
H257 H 0.81689 0.60855 0.19608 0.0
H258 H 0.79914 0.56236 0.07798 0.0
H259 H 0.75651 0.50325 0.09167 0.0
H260 H 0.74243 0.55532 0.09277 0.0
H261 H 0.63878 0.3967 0.14369 0.0
H262 H 0.60765 0.52267 0.14075 0.0
H263 H 0.77202 0.473 0.15677 0.0
H264 H 0.76546 0.45979 0.12562 0.0
H265 H 0.7226 0.40973 0.14404 0.0
H266 H 0.72898 0.62534 0.15191 0.0
H267 H 0.67288 0.60781 0.13331 0.0
H268 H 0.73218 0.61575 0.12095 0.0
C269 C 0.30071 0.90407 0.47028 0.0
C270 C 0.33015 0.89827 0.48764 0.0
C271 C 0.25271 0.86148 0.46172 0.0
C272 C 0.23404 0.81203 0.47065 0.0
C273 C 0.26171 0.80688 0.4893 0.0
C274 C 0.30931 0.85011 0.49764 0.0
C275 C 0.22378 0.86859 0.44205 0.0
C276 C 0.2431 0.75478 0.49929 0.0
C277 C 0.09703 0.70025 0.45382 0.0
C278 C 0.10679 0.67455 0.43476 0.0
C279 C 0.13803 0.74537 0.46573 0.0
C280 C 0.18974 0.7645 0.45848 0.0
C281 C 0.19973 0.73794 0.43952 0.0
C282 C 0.15807 0.6934 0.42783 0.0
C283 C 0.12601 0.773 0.48575 0.0
C284 C 0.25445 0.75666 0.43148 0.0
H285 H 0.31618 0.94122 0.46261 0.0
H286 H 0.33142 0.84526 0.51124 0.0
H287 H 0.22741 0.84898 0.42553 0.0
H288 H 0.18163 0.85012 0.44556 0.0
H289 H 0.23931 0.91058 0.43939 0.0
H290 H 0.26533 0.75875 0.5156 0.0
H291 H 0.20107 0.7359 0.50309 0.0
H292 H 0.24779 0.72818 0.48621 0.0
H293 H 0.05721 0.68577 0.45902 0.0
H294 H 0.16554 0.67311 0.41322 0.0
H295 H 0.13838 0.81352 0.4816 0.0
H296 H 0.14833 0.77601 0.50183 0.0
H297 H 0.08381 0.75251 0.48948 0.0
H298 H 0.2718 0.797 0.42589 0.0
H299 H 0.2555 0.73103 0.41666 0.0
H300 H 0.27941 0.75801 0.44618 0.0
C301 C 0.48776 0.29044 0.84766 0.0
C302 C 0.45705 0.30729 0.83695 0.0
C303 C 0.48601 0.24405 0.83934 0.0
C304 C 0.45257 0.21368 0.81992 0.0
C305 C 0.41815 0.22797 0.81036 0.0
C306 C 0.42082 0.27472 0.81898 0.0
C307 C 0.52317 0.23 0.85011 0.0
C308 C 0.38143 0.19616 0.78983 0.0
C309 C 0.50628 0.14792 0.7792 0.0
C310 C 0.47964 0.09636 0.78573 0.0
C311 C 0.49676 0.186 0.78986 0.0
C312 C 0.45959 0.1722 0.80751 0.0
C313 C 0.43163 0.11995 0.81387 0.0
C314 C 0.44217 0.08257 0.80294 0.0
C315 C 0.52765 0.24141 0.78266 0.0
C316 C 0.39145 0.10386 0.83248 0.0
H317 H 0.51537 0.3149 0.86178 0.0
H318 H 0.39648 0.28705 0.81074 0.0
H319 H 0.50275 0.18784 0.85325 0.0
H320 H 0.55467 0.23728 0.83781 0.0
H321 H 0.54136 0.25341 0.86693 0.0
H322 H 0.35141 0.20722 0.78706 0.0
H323 H 0.40402 0.20266 0.7737 0.0
H324 H 0.36158 0.15371 0.79236 0.0
H325 H 0.53584 0.15894 0.76617 0.0
H326 H 0.42121 0.04259 0.80788 0.0
H327 H 0.55175 0.26819 0.79781 0.0
H328 H 0.50085 0.25469 0.77705 0.0
H329 H 0.55385 0.24519 0.7681 0.0
H330 H 0.4107 0.12426 0.84963 0.0
H331 H 0.37043 0.06095 0.83417 0.0
H332 H 0.36256 0.11565 0.82842 0.0
C333 C 0.60602 0.88134 0.49542 0.0
C334 C 0.55637 0.87503 0.49831 0.0
C335 C 0.61545 0.84075 0.49979 0.0
C336 C 0.57403 0.79288 0.50685 0.0
C337 C 0.52317 0.78532 0.50822 0.0
C338 C 0.51507 0.8266 0.5041 0.0
C339 C 0.6702 0.85021 0.49823 0.0
C340 C 0.47771 0.73458 0.51531 0.0
C341 C 0.5785 0.6678 0.50874 0.0
C342 C 0.58444 0.66649 0.53288 0.0
C343 C 0.57793 0.71027 0.49969 0.0
C344 C 0.58405 0.75242 0.51521 0.0
C345 C 0.59343 0.75268 0.53944 0.0
C346 C 0.59321 0.70953 0.54801 0.0
C347 C 0.5676 0.7085 0.47378 0.0
C348 C 0.60081 0.79723 0.55653 0.0
H349 H 0.63801 0.91881 0.49097 0.0
H350 H 0.47644 0.82137 0.506 0.0
H351 H 0.68663 0.8543 0.51613 0.0
H352 H 0.67013 0.81646 0.48857 0.0
H353 H 0.69625 0.8863 0.48945 0.0
H354 H 0.4399 0.73327 0.5133 0.0
H355 H 0.47544 0.70079 0.50463 0.0
H356 H 0.48342 0.72973 0.53389 0.0
H357 H 0.57198 0.63455 0.49705 0.0
H358 H 0.59866 0.70906 0.56667 0.0
H359 H 0.59514 0.74652 0.46681 0.0
H360 H 0.52761 0.70139 0.47073 0.0
H361 H 0.57093 0.67695 0.46376 0.0
H362 H 0.63022 0.83537 0.55024 0.0
H363 H 0.61345 0.79424 0.5743 0.0
H364 H 0.56352 0.79713 0.5579 0.0
C365 C 0.71932 0.53281 0.84695 0.0
C366 C 0.70147 0.56742 0.85296 0.0
C367 C 0.77246 0.54945 0.84894 0.0
C368 C 0.80801 0.60131 0.85801 0.0
C369 C 0.79026 0.63683 0.86352 0.0
C370 C 0.73704 0.61959 0.86052 0.0
C371 C 0.79023 0.51095 0.8422 0.0
C372 C 0.82678 0.69187 0.87393 0.0
C373 C 0.92356 0.61303 0.89092 0.0
C374 C 0.96369 0.63677 0.87511 0.0
C375 C 0.87344 0.60363 0.88594 0.0
C376 C 0.86234 0.61619 0.86417 0.0
C377 C 0.90232 0.64012 0.84805 0.0
C378 C 0.9528 0.6509 0.85388 0.0
C379 C 0.83198 0.57892 0.9038 0.0
C380 C 0.89137 0.65277 0.82441 0.0
H381 H 0.69158 0.49261 0.84081 0.0
H382 H 0.72286 0.64612 0.86524 0.0
H383 H 0.82474 0.52902 0.83111 0.0
H384 H 0.80207 0.49992 0.85819 0.0
H385 H 0.75903 0.47468 0.83258 0.0
H386 H 0.80779 0.71594 0.87522 0.0
H387 H 0.84021 0.69038 0.89175 0.0
H388 H 0.8619 0.71162 0.86333 0.0
H389 H 0.93073 0.60036 0.90706 0.0
H390 H 0.98356 0.66985 0.84165 0.0
H391 H 0.80205 0.53872 0.89705 0.0
H392 H 0.81198 0.60169 0.90699 0.0
H393 H 0.84832 0.57657 0.92078 0.0
H394 H 0.86272 0.61607 0.81419 0.0
H395 H 0.92717 0.67299 0.8142 0.0
H396 H 0.87372 0.67791 0.8265 0.0
C397 C 0.23674 0.81425 0.14963 0.0
C398 C 0.18969 0.79311 0.16143 0.0
C399 C 0.28123 0.86033 0.15857 0.0
C400 C 0.27854 0.88625 0.17973 0.0
C401 C 0.23006 0.86789 0.19057 0.0
C402 C 0.1861 0.82136 0.18131 0.0
C403 C 0.3321 0.87861 0.14641 0.0
C404 C 0.22551 0.89507 0.21295 0.0
C405 C 0.40058 0.95128 0.21907 0.0
C406 C 0.4225 0.00404 0.21475 0.0
C407 C 0.35357 0.91279 0.20787 0.0
C408 C 0.32757 0.9275 0.1921 0.0
C409 C 0.34944 0.98079 0.18768 0.0
C410 C 0.39698 0.01851 0.19898 0.0
C411 C 0.33197 0.85627 0.21279 0.0
C412 C 0.32253 -0.00211 0.17116 0.0
H413 H 0.23978 0.79319 0.13404 0.0
H414 H 0.14987 0.80559 0.19046 0.0
H415 H 0.35248 0.92145 0.14484 0.0
H416 H 0.35809 0.87053 0.15697 0.0
H417 H 0.32628 0.85847 0.12865 0.0
H418 H 0.18418 0.8813 0.21702 0.0
H419 H 0.24396 0.88716 0.2277 0.0
H420 H 0.24633 0.9381 0.21184 0.0
H421 H 0.4206 0.94007 0.23111 0.0
H422 H 0.41375 0.05944 0.19584 0.0
H423 H 0.32845 0.83255 0.19631 0.0
H424 H 0.2923 0.84009 0.21974 0.0
H425 H 0.35691 0.85151 0.22562 0.0
H426 H 0.31827 0.97844 0.15339 0.0
H427 H 0.34422 0.04097 0.16996 0.0
H428 H 0.28267 0.98574 0.17707 0.0
C429 C 0.46535 0.19585 0.50972 0.0
C430 C 0.49449 0.18268 0.52406 0.0
C431 C 0.4615 0.2405 0.51557 0.0
C432 C 0.48734 0.27244 0.53622 0.0
C433 C 0.51521 0.25828 0.55115 0.0
C434 C 0.51844 0.21364 0.54489 0.0
C435 C 0.43126 0.25439 0.49934 0.0
C436 C 0.543 0.29116 0.57345 0.0
C437 C 0.53652 0.41738 0.54471 0.0
C438 C 0.50234 0.41857 0.56131 0.0
C439 C 0.52971 0.36963 0.53494 0.0
C440 C 0.48778 0.32214 0.54201 0.0
C441 C 0.45084 0.32315 0.55733 0.0
C442 C 0.4586 0.37147 0.56683 0.0
C443 C 0.56981 0.37013 0.51854 0.0
C444 C 0.40535 0.27334 0.56509 0.0
H445 H 0.44669 0.17211 0.4936 0.0
H446 H 0.54064 0.20356 0.5562 0.0
H447 H 0.40321 0.26178 0.50927 0.0
H448 H 0.45849 0.29103 0.49125 0.0
H449 H 0.40951 0.22305 0.48515 0.0
H450 H 0.56127 0.27357 0.58355 0.0
H451 H 0.57392 0.33076 0.56921 0.0
H452 H 0.51525 0.29617 0.58477 0.0
H453 H 0.57049 0.45369 0.54047 0.0
H454 H 0.43159 0.37238 0.57936 0.0
H455 H 0.55052 0.34178 0.50311 0.0
H456 H 0.59434 0.35802 0.52772 0.0
H457 H 0.5957 0.40957 0.51234 0.0
H458 H 0.386 0.24409 0.54995 0.0
H459 H 0.37597 0.28047 0.57395 0.0
H460 H 0.41973 0.25598 0.57752 0.0
C461 C 0.2945 0.47096 0.87132 0.0
C462 C 0.31716 0.46285 0.85118 0.0
C463 C 0.25914 0.4888 0.86984 0.0
C464 C 0.24727 0.49961 0.84775 0.0
C465 C 0.26485 0.48512 0.82717 0.0
C466 C 0.29933 0.46628 0.82912 0.0
C467 C 0.23981 0.50219 0.89216 0.0
C468 C 0.25275 0.49564 0.80328 0.0
C469 C 0.1547 0.55226 0.84504 0.0
C470 C 0.18983 0.60642 0.84818 0.0
C471 C 0.17264 0.5166 0.84435 0.0
C472 C 0.2268 0.53581 0.84674 0.0
C473 C 0.26238 0.59053 0.84917 0.0
C474 C 0.24336 0.62515 0.84992 0.0
C475 C 0.13362 0.4586 0.84203 0.0
C476 C 0.32058 0.61259 0.85151 0.0
H477 H 0.30764 0.46753 0.88838 0.0
H478 H 0.31654 0.4598 0.81346 0.0
H479 H 0.2631 0.54508 0.8967 0.0
H480 H 0.19841 0.49135 0.88994 0.0
H481 H 0.24362 0.48211 0.90703 0.0
H482 H 0.25982 0.47271 0.78909 0.0
H483 H 0.2117 0.48628 0.80165 0.0
H484 H 0.27821 0.53788 0.80072 0.0
H485 H 0.11313 0.53757 0.84383 0.0
H486 H 0.27039 0.66702 0.85233 0.0
H487 H 0.13193 0.44196 0.85897 0.0
H488 H 0.14566 0.4381 0.82875 0.0
H489 H 0.09383 0.45017 0.83711 0.0
H490 H 0.33008 0.59804 0.86698 0.0
H491 H 0.34267 0.656 0.85353 0.0
H492 H 0.3342 0.59941 0.83584 0.0
C493 C 0.86598 0.38982 0.13981 0.0
C494 C 0.91547 0.4047 0.1493 0.0
C495 C 0.8205 0.35036 0.14922 0.0
C496 C 0.82468 0.32474 0.16832 0.0
C497 C 0.8745 0.33585 0.17633 0.0
C498 C 0.91931 0.37583 0.16678 0.0
C499 C 0.76801 0.33889 0.13994 0.0
C500 C 0.8807 0.30868 0.19633 0.0
C501 C 0.72212 0.28663 0.21436 0.0
C502 C 0.6899 0.23287 0.20864 0.0
C503 C 0.76567 0.31687 0.20116 0.0
C504 C 0.77796 0.29247 0.18206 0.0
C505 C 0.74584 0.23794 0.17635 0.0
C506 C 0.70182 0.20879 0.18961 0.0
C507 C 0.79834 0.37511 0.20759 0.0
C508 C 0.7583 0.21038 0.15646 0.0
H509 H 0.86251 0.41161 0.12621 0.0
H510 H 0.95737 0.38654 0.17404 0.0
H511 H 0.74395 0.29691 0.13376 0.0
H512 H 0.74683 0.34662 0.15418 0.0
H513 H 0.77138 0.36281 0.12524 0.0
H514 H 0.92081 0.31509 0.19781 0.0
H515 H 0.87245 0.32407 0.213 0.0
H516 H 0.85252 0.26595 0.19415 0.0
H517 H 0.71283 0.3052 0.22905 0.0
H518 H 0.67721 0.16704 0.18527 0.0
H519 H 0.7996 0.39692 0.1924 0.0
H520 H 0.83903 0.38591 0.21207 0.0
H521 H 0.78299 0.3881 0.22269 0.0
H522 H 0.75823 0.22709 0.13977 0.0
H523 H 0.72997 0.16759 0.15457 0.0
H524 H 0.798 0.21661 0.15935 0.0
C525 C 0.03548 0.58127 0.03915 0.0
C526 C 0.07856 0.60645 0.05496 0.0
C527 C 0.04116 0.59035 0.01532 0.0
C528 C 0.09113 0.62519 0.00711 0.0
C529 C 0.13501 0.64933 0.0228 0.0
C530 C 0.1282 0.63977 0.04654 0.0
C531 C 0.99342 0.56381 0.99904 0.0
C532 C 0.18894 0.68631 0.01464 0.0
C533 C 0.10318 0.61468 0.94134 0.0
C534 C 0.09375 0.65374 0.93453 0.0
C535 C 0.10493 0.60646 0.96505 0.0
C536 C 0.09681 0.63791 0.98228 0.0
C537 C 0.09044 0.67943 0.97559 0.0
C538 C 0.08914 0.68694 0.95177 0.0
C539 C 0.11236 0.56215 0.97153 0.0
C540 C 0.0821 0.7141 0.99349 0.0
H541 H -0.00296 0.55549 0.04546 0.0
H542 H 0.16185 0.65916 0.05858 0.0
H543 H 0.98688 0.59374 0.99171 0.0
H544 H -0.00059 0.54177 0.9841 0.0
H545 H 0.95773 0.53633 0.008 0.0
H546 H 0.21946 0.69926 0.02875 0.0
H547 H 0.19853 0.66725 -0.00033 0.0
H548 H 0.19015 0.72143 0.00839 0.0
H549 H 0.10616 0.58847 0.9281 0.0
H550 H 0.08245 0.71754 0.94657 0.0
H551 H 0.07528 0.53047 0.97792 0.0
H552 H 0.14226 0.57567 0.98593 0.0
H553 H 0.1243 0.54549 0.95643 0.0
H554 H 0.04431 0.69056 0.00189 0.0
H555 H 0.08173 0.74704 0.98558 0.0
H556 H 0.11316 0.73042 0.00749 0.0
C557 C 0.52159 0.00984 0.39566 0.0
C558 C 0.5268 0.04897 0.41242 0.0
C559 C 0.52235 0.01697 0.37165 0.0
C560 C 0.53051 0.06514 0.36438 0.0
C561 C 0.53757 0.10542 0.38135 0.0
C562 C 0.53462 0.09645 0.40517 0.0
C563 C 0.51302 0.97249 0.35408 0.0
C564 C 0.54818 0.15794 0.37435 0.0
C565 C 0.57234 0.09389 0.30175 0.0
C566 C 0.52538 0.0819 0.29035 0.0
C567 C 0.57504 0.09021 0.32597 0.0
C568 C 0.52936 0.07251 0.33901 0.0
C569 C 0.48206 0.06094 0.32773 0.0
C570 C 0.48093 0.06684 0.30372 0.0
C571 C 0.6266 0.10453 0.33755 0.0
C572 C 0.43224 0.04111 0.34091 0.0
H573 H 0.51538 0.97308 0.40132 0.0
H574 H 0.53937 0.12699 0.41821 0.0
H575 H 0.47807 0.96112 0.34278 0.0
H576 H 0.5466 0.98515 0.34249 0.0
H577 H 0.50705 0.93748 0.36261 0.0
H578 H 0.55667 0.18635 0.38974 0.0
H579 H 0.58182 0.17467 0.36271 0.0
H580 H 0.51396 0.15315 0.36436 0.0
H581 H 0.60687 0.10501 0.29171 0.0
H582 H 0.44477 0.05902 0.29539 0.0
H583 H 0.62443 0.06915 0.34401 0.0
H584 H 0.63544 0.13293 0.35295 0.0
H585 H 0.65931 0.12188 0.3254 0.0
H586 H 0.42336 0.00487 0.34913 0.0
H587 H 0.39837 0.03246 0.3294 0.0
H588 H 0.43695 0.07052 0.3552 0.0
C589 C 0.55611 0.54794 0.75263 0.0
C590 C 0.51201 0.50734 0.76234 0.0
C591 C 0.55968 0.55128 0.72835 0.0
C592 C 0.51814 0.51316 0.71338 0.0
C593 C 0.47345 0.47218 0.723 0.0
C594 C 0.47092 0.46971 0.74738 0.0
C595 C 0.60804 0.59546 0.7187 0.0
C596 C 0.4284 0.43081 0.70753 0.0
C597 C 0.50731 0.54486 0.65128 0.0
C598 C 0.52833 0.5182 0.63856 0.0
C599 C 0.50386 0.54373 0.6757 0.0
C600 C 0.52206 0.51543 0.68759 0.0
C601 C 0.54407 0.48915 0.67487 0.0
C602 C 0.54696 0.49089 0.65051 0.0
C603 C 0.48015 0.57221 0.68873 0.0
C604 C 0.56429 0.45892 0.68696 0.0
H605 H 0.58808 0.57727 0.76401 0.0
H606 H 0.43664 0.4383 0.75469 0.0
H607 H 0.62737 0.57933 0.70712 0.0
H608 H 0.59728 0.61843 0.70791 0.0
H609 H 0.63655 0.62238 0.73274 0.0
H610 H 0.39603 0.40211 0.71778 0.0
H611 H 0.41303 0.44949 0.6964 0.0
H612 H 0.44198 0.40935 0.69564 0.0
H613 H 0.4925 0.56564 0.64207 0.0
H614 H 0.564 0.47091 0.64076 0.0
H615 H 0.50834 0.60111 0.70235 0.0
H616 H 0.44519 0.54399 0.69783 0.0
H617 H 0.46856 0.59305 0.67694 0.0
H618 H 0.59513 0.48521 0.70028 0.0
H619 H 0.58061 0.44096 0.6745 0.0
H620 H 0.53234 0.42739 0.69628 0.0
C621 C 0.48753 0.00108 0.60286 0.0
C622 C 0.53383 0.01961 0.59076 0.0
C623 C 0.4879 0.00097 0.62733 0.0
C624 C 0.53549 0.01794 0.63986 0.0
C625 C 0.58209 0.03474 0.62757 0.0
C626 C 0.58088 0.03643 0.60315 0.0
C627 C 0.43769 0.98443 0.63981 0.0
C628 C 0.63317 0.05118 0.64022 0.0
C629 C 0.5443 0.06875 0.70323 0.0
C630 C 0.52855 0.02352 0.71512 0.0
C631 C 0.54727 0.06757 0.6788 0.0
C632 C 0.53661 0.02064 0.66589 0.0
C633 C 0.52401 0.97573 0.67778 0.0
C634 C 0.51921 0.9774 0.70219 0.0
C635 C 0.55977 0.11607 0.66676 0.0
C636 C 0.51414 0.92546 0.66467 0.0
H637 H 0.45122 0.98845 0.59324 0.0
H638 H 0.6166 0.05029 0.59369 0.0
H639 H 0.42854 0.95114 0.65039 0.0
H640 H 0.44214 0.01722 0.65206 0.0
H641 H 0.40412 0.97259 0.62748 0.0
H642 H 0.66474 0.05854 0.62793 0.0
H643 H 0.64551 0.08745 0.6517 0.0
H644 H 0.62839 0.02044 0.65163 0.0
H645 H 0.55352 0.10519 0.71297 0.0
H646 H 0.50666 0.94201 0.71098 0.0
H647 H 0.52679 0.10744 0.65468 0.0
H648 H 0.59463 0.1282 0.65606 0.0
H649 H 0.56715 0.14947 0.67937 0.0
H650 H 0.47697 0.90767 0.65421 0.0
H651 H 0.51164 0.8965 0.67666 0.0
H652 H 0.54565 0.93344 0.65228 0.0
C653 C 0.48396 0.49571 0.95698 0.0
C654 C 0.51949 0.49186 0.94203 0.0
C655 C 0.48696 0.49233 0.98116 0.0
C656 C 0.52716 0.48604 0.99071 0.0
C657 C 0.5636 0.48281 0.97577 0.0
C658 C 0.559 0.4852 0.95155 0.0
C659 C 0.44681 0.4951 0.99647 0.0
C660 C 0.6076 0.47722 0.98539 0.0
C661 C 0.55148 0.52679 0.05567 0.0
C662 C 0.52202 0.47851 0.06521 0.0
C663 C 0.55671 0.52957 0.03139 0.0
C664 C 0.53062 0.48298 0.01639 0.0
C665 C 0.50308 0.43388 0.02611 0.0
C666 C 0.49941 0.43225 0.0505 0.0
C667 C 0.58737 0.58257 0.02177 0.0
C668 C 0.47419 0.38339 0.01074 0.0
H669 H 0.45314 0.50048 0.94972 0.0
H670 H 0.58683 0.48258 0.9401 0.0
H671 H 0.42646 0.4595 0.00625 0.0
H672 H 0.46626 0.52928 0.00957 0.0
H673 H 0.41722 0.49858 0.98621 0.0
H674 H 0.63314 0.476 0.97146 0.0
H675 H 0.63174 0.5105 0.99841 0.0
H676 H 0.59164 0.44087 0.99462 0.0
H677 H 0.56858 0.56249 0.06719 0.0
H678 H 0.47602 0.39505 0.05801 0.0
H679 H 0.56014 0.59251 0.0135 0.0
H680 H 0.61356 0.582 0.00805 0.0
H681 H 0.61119 0.61392 0.03565 0.0
H682 H 0.44053 0.3819 0.00163 0.0
H683 H 0.45938 0.34843 0.02095 0.0
H684 H 0.49979 0.38138 0.99709 0.0
C685 C -0.00286 0.59186 0.2439 0.0
C686 C 0.04223 0.59603 0.23415 0.0
C687 C 0.98959 0.58797 0.26802 0.0
C688 C 0.02905 0.59039 0.28271 0.0
C689 C 0.07513 0.5956 0.27293 0.0
C690 C 0.0807 0.5973 0.24864 0.0
C691 C 0.93915 0.58051 0.27771 0.0
C692 C 0.1188 0.60005 0.28813 0.0
C693 C 0.03432 0.63301 0.34702 0.0
C694 C 0.01747 0.58595 0.35756 0.0
C695 C 0.03819 0.63498 0.3227 0.0
C696 C 0.02267 0.58836 0.30839 0.0
C697 C 0.0029 0.54023 0.3187 0.0
C698 C 0.0014 0.53971 0.34316 0.0
C699 C 0.06049 0.68727 0.31239 0.0
C700 C 0.98443 0.48943 0.30391 0.0
H701 H 0.96713 0.59017 0.23255 0.0
H702 H 0.11561 0.60071 0.24099 0.0
H703 H 0.91995 0.54451 0.28727 0.0
H704 H 0.94714 0.61384 0.29043 0.0
H705 H 0.91158 0.57732 0.26377 0.0
H706 H 0.15282 0.60582 0.27784 0.0
H707 H 0.132 0.63349 0.30155 0.0
H708 H 0.10469 0.56417 0.29755 0.0
H709 H 0.04537 0.66875 0.35782 0.0
H710 H 0.98893 0.50319 0.35095 0.0
H711 H 0.03197 0.68638 0.29968 0.0
H712 H 0.09591 0.69552 0.30269 0.0
H713 H 0.07109 0.71996 0.32599 0.0
H714 H 0.95661 0.485 0.28983 0.0
H715 H 0.96511 0.45485 0.31441 0.0
H716 H 0.01805 0.48971 0.29532 0.0
loop_
_geom_bond_atom_site_label_1
_geom_bond_atom_site_label_2
_geom_bond_distance
_geom_bond_site_symmetry_2
_ccdc_geom_bond_type
O0 Zn1 1.953 . S
O0 C16 1.225 . S
Zn1 O0 1.953 . S
Zn1 O2 1.949 . S
Zn1 O8 1.919 1_455 S
Zn1 O13 1.924 . S
O2 Zn1 1.949 . S
O2 Zn3 1.923 . S
O2 Zn4 1.950 . S
O2 Zn5 1.945 . S
Zn3 O2 1.923 . S
Zn3 O6 1.933 . S
Zn3 O9 1.941 1_455 S
Zn3 O10 1.965 1_455 S
Zn4 O2 1.950 . S
Zn4 O11 1.938 . S
Zn4 O12 1.906 . S
Zn4 O22 1.953 . S
Zn5 O2 1.945 . S
Zn5 O7 1.932 . S
Zn5 O14 1.977 . S
Zn5 O15 1.910 . S
O6 Zn3 1.933 . S
O6 C17 1.226 . S
O7 Zn5 1.932 . S
O7 C17 1.307 . S
O8 Zn1 1.919 1_655 S
O8 C19 1.253 . S
O9 Zn3 1.941 1_655 S
O9 C19 1.283 . S
O10 Zn3 1.965 1_655 S
O10 C18 1.303 . S
O11 Zn4 1.938 . S
O11 C18 1.247 1_455 S
O12 Zn4 1.906 . S
O12 C20 1.304 . S
O13 Zn1 1.924 . S
O13 C21 1.311 . S
O14 Zn5 1.977 . S
O14 C20 1.272 . S
O15 Zn5 1.910 . S
O15 C21 1.231 . S
C16 O0 1.225 . S
C16 O22 1.298 . S
C17 O6 1.226 . S
C17 O7 1.307 . S
C18 O10 1.303 . S
C18 O11 1.247 1_655 S
C19 O8 1.253 . S
C19 O9 1.283 . S
C20 O12 1.304 . S
C20 O14 1.272 . S
C21 O13 1.311 . S
C21 O15 1.231 . S
O22 Zn4 1.953 . S
O22 C16 1.298 . S
O23 Zn24 1.953 . S
O23 C39 1.225 . S
Zn24 O23 1.953 . S
Zn24 O25 1.949 . S
Zn24 O31 1.919 . S
Zn24 O36 1.924 1_545 S
O25 Zn24 1.949 . S
O25 Zn26 1.923 . S
O25 Zn27 1.950 . S
O25 Zn28 1.945 1_545 S
Zn26 O25 1.923 . S
Zn26 O29 1.933 . S
Zn26 O32 1.941 . S
Zn26 O33 1.965 . S
Zn27 O25 1.950 . S
Zn27 O34 1.938 . S
Zn27 O35 1.906 1_545 S
Zn27 O45 1.953 . S
Zn28 O25 1.945 1_565 S
Zn28 O30 1.932 1_565 S
Zn28 O37 1.977 . S
Zn28 O38 1.910 . S
O29 Zn26 1.933 . S
O29 C40 1.226 . S
O30 Zn28 1.932 1_545 S
O30 C40 1.307 . S
O31 Zn24 1.919 . S
O31 C42 1.253 . S
O32 Zn26 1.941 . S
O32 C42 1.283 . S
O33 Zn26 1.965 . S
O33 C41 1.303 . S
O34 Zn27 1.938 . S
O34 C41 1.247 . S
O35 Zn27 1.906 1_565 S
O35 C43 1.304 . S
O36 Zn24 1.924 1_565 S
O36 C44 1.311 . S
O37 Zn28 1.977 . S
O37 C43 1.272 . S
O38 Zn28 1.910 . S
O38 C44 1.231 . S
C39 O23 1.225 . S
C39 O45 1.298 . S
C40 O29 1.226 . S
C40 O30 1.307 . S
C41 O33 1.303 . S
C41 O34 1.247 . S
C42 O31 1.253 . S
C42 O32 1.283 . S
C43 O35 1.304 . S
C43 O37 1.272 . S
C44 O36 1.311 . S
C44 O38 1.231 . S
O45 Zn27 1.953 . S
O45 C39 1.298 . S
O46 Zn47 1.953 . S
O46 C62 1.225 . S
Zn47 O46 1.953 . S
Zn47 O48 1.949 . S
Zn47 O54 1.919 . S
Zn47 O59 1.924 . S
O48 Zn47 1.949 . S
O48 Zn49 1.923 . S
O48 Zn50 1.950 . S
O48 Zn51 1.945 . S
Zn49 O48 1.923 . S
Zn49 O52 1.933 . S
Zn49 O55 1.941 . S
Zn49 O56 1.965 . S
Zn50 O48 1.950 . S
Zn50 O57 1.938 . S
Zn50 O58 1.906 . S
Zn50 O68 1.953 . S
Zn51 O48 1.945 . S
Zn51 O53 1.932 . S
Zn51 O60 1.977 . S
Zn51 O61 1.910 . S
O52 Zn49 1.933 . S
O52 C63 1.226 . S
O53 Zn51 1.932 . S
O53 C63 1.307 . S
O54 Zn47 1.919 . S
O54 C65 1.253 . S
O55 Zn49 1.941 . S
O55 C65 1.283 . S
O56 Zn49 1.965 . S
O56 C64 1.303 . S
O57 Zn50 1.938 . S
O57 C64 1.247 . S
O58 Zn50 1.906 . S
O58 C66 1.304 . S
O59 Zn47 1.924 . S
O59 C67 1.311 . S
O60 Zn51 1.977 . S
O60 C66 1.272 . S
O61 Zn51 1.910 . S
O61 C67 1.231 . S
C62 O46 1.225 . S
C62 O68 1.298 . S
C63 O52 1.226 . S
C63 O53 1.307 . S
C64 O56 1.303 . S
C64 O57 1.247 . S
C65 O54 1.253 . S
C65 O55 1.283 . S
C66 O58 1.304 . S
C66 O60 1.272 . S
C67 O59 1.311 . S
C67 O61 1.231 . S
O68 Zn50 1.953 . S
O68 C62 1.298 . S
H69 C74 0.930 . S
H70 C77 0.930 . S
H71 C79 0.930 1_565 S
H72 C73 1.016 . S
C73 H72 1.016 . S
C73 N80 1.286 . S
C74 H69 0.930 . S
C74 C75 1.397 . S
C74 C76 1.361 . S
C75 C74 1.397 . S
C75 C79 1.390 . S
C76 C74 1.361 . S
C76 C77 1.393 . S
C76 N80 1.413 . S
C77 H70 0.930 . S
C77 C76 1.393 . S
C77 C78 1.399 . S
C78 C77 1.399 . S
C78 C79 1.381 . S
C79 H71 0.930 1_545 S
C79 C75 1.390 . S
C79 C78 1.381 . S
N80 C73 1.286 . S
N80 C76 1.413 . S
H81 C86 0.930 . S
H82 C89 0.930 . S
H83 C91 0.930 . S
H84 C85 1.016 . S
C85 H84 1.016 . S
C85 N92 1.286 . S
C86 H81 0.930 . S
C86 C87 1.397 . S
C86 C88 1.361 . S
C87 C86 1.397 . S
C87 C91 1.390 . S
C88 C86 1.361 . S
C88 C89 1.393 . S
C88 N92 1.413 . S
C89 H82 0.930 . S
C89 C88 1.393 . S
C89 C90 1.399 . S
C90 C89 1.399 . S
C90 C91 1.381 . S
C91 H83 0.930 . S
C91 C87 1.390 . S
C91 C90 1.381 . S
N92 C85 1.286 . S
N92 C88 1.413 . S
H93 C98 0.930 . S
H94 C101 0.930 . S
H95 C103 0.930 . S
H96 C97 1.016 . S
C97 H96 1.016 . S
C97 N104 1.286 . S
C98 H93 0.930 . S
C98 C99 1.397 1_455 S
C98 C100 1.361 . S
C99 C98 1.397 1_655 S
C99 C103 1.390 . S
C100 C98 1.361 . S
C100 C101 1.393 . S
C100 N104 1.413 . S
C101 H94 0.930 . S
C101 C100 1.393 . S
C101 C102 1.399 . S
C102 C101 1.399 . S
C102 C103 1.381 1_455 S
C103 H95 0.930 . S
C103 C99 1.390 . S
C103 C102 1.381 1_655 S
N104 C97 1.286 . S
N104 C100 1.413 . S
H105 C110 0.930 . S
H106 C113 0.930 . S
H107 C115 0.930 . S
H108 C109 1.016 . S
C109 H108 1.016 . S
C109 N116 1.286 . S
C110 H105 0.930 . S
C110 C111 1.397 . S
C110 C112 1.361 . S
C111 C110 1.397 . S
C111 C115 1.390 . S
C112 C110 1.361 . S
C112 C113 1.393 1_455 S
C112 N116 1.413 1_455 S
C113 H106 0.930 . S
C113 C112 1.393 1_655 S
C113 C114 1.399 1_655 S
C114 C113 1.399 1_455 S
C114 C115 1.381 . S
C115 H107 0.930 . S
C115 C111 1.390 . S
C115 C114 1.381 . S
N116 C109 1.286 . S
N116 C112 1.413 1_655 S
H117 C122 0.930 . S
H118 C125 0.930 1_565 S
H119 C127 0.930 . S
H120 C121 1.016 . S
C121 H120 1.016 . S
C121 N128 1.286 . S
C122 H117 0.930 . S
C122 C123 1.397 . S
C122 C124 1.361 . S
C123 C122 1.397 . S
C123 C127 1.390 . S
C124 C122 1.361 . S
C124 C125 1.393 . S
C124 N128 1.413 1_545 S
C125 H118 0.930 1_545 S
C125 C124 1.393 . S
C125 C126 1.399 . S
C126 C125 1.399 . S
C126 C127 1.381 . S
C127 H119 0.930 . S
C127 C123 1.390 . S
C127 C126 1.381 . S
N128 C121 1.286 . S
N128 C124 1.413 1_565 S
H129 C134 0.930 . S
H130 C137 0.930 . S
H131 C139 0.930 . S
H132 C133 1.016 . S
C133 H132 1.016 . S
C133 N140 1.286 . S
C134 H129 0.930 . S
C134 C135 1.397 . S
C134 C136 1.361 . S
C135 C134 1.397 . S
C135 C139 1.390 . S
C136 C134 1.361 . S
C136 C137 1.393 . S
C136 N140 1.413 . S
C137 H130 0.930 . S
C137 C136 1.393 . S
C137 C138 1.399 . S
C138 C137 1.399 . S
C138 C139 1.381 . S
C139 H131 0.930 . S
C139 C135 1.390 . S
C139 C138 1.381 . S
N140 C133 1.286 . S
N140 C136 1.413 . S
C141 C142 1.391 . S
C141 C143 1.394 . S
C141 H157 0.931 . S
C142 C141 1.391 . S
C142 C146 1.376 . S
C143 C141 1.394 . S
C143 C144 1.369 . S
C143 C147 1.531 . S
C144 C143 1.369 . S
C144 C145 1.410 . S
C144 C152 1.503 . S
C145 C144 1.410 . S
C145 C146 1.392 . S
C145 C148 1.511 . S
C146 C142 1.376 . S
C146 C145 1.392 . S
C146 H158 0.929 . S
C147 C143 1.531 . S
C147 H159 0.960 . S
C147 H160 0.962 . S
C147 H161 0.960 . S
C148 C145 1.511 . S
C148 H162 0.961 . S
C148 H163 0.961 . S
C148 H164 0.961 . S
C149 C150 1.370 . S
C149 C151 1.363 . S
C149 H165 0.931 . S
C150 C149 1.370 . S
C150 C154 1.408 . S
C151 C149 1.363 . S
C151 C152 1.370 . S
C151 C155 1.524 . S
C152 C144 1.503 . S
C152 C151 1.370 . S
C152 C153 1.403 . S
C153 C152 1.403 . S
C153 C154 1.404 . S
C153 C156 1.539 . S
C154 C150 1.408 . S
C154 C153 1.404 . S
C154 H166 0.930 . S
C155 C151 1.524 . S
C155 H167 0.956 . S
C155 H168 0.961 . S
C155 H169 0.961 . S
C156 C153 1.539 . S
C156 H170 0.958 . S
C156 H171 0.961 . S
C156 H172 0.960 . S
H157 C141 0.931 . S
H158 C146 0.929 . S
H159 C147 0.960 . S
H160 C147 0.962 . S
H161 C147 0.960 . S
H162 C148 0.961 . S
H163 C148 0.961 . S
H164 C148 0.961 . S
H165 C149 0.931 . S
H166 C154 0.930 . S
H167 C155 0.956 . S
H168 C155 0.961 . S
H169 C155 0.961 . S
H170 C156 0.958 . S
H171 C156 0.961 . S
H172 C156 0.960 . S
C173 C174 1.391 . S
C173 C175 1.394 . S
C173 H189 0.931 . S
C174 C173 1.391 . S
C174 C178 1.376 . S
C175 C173 1.394 . S
C175 C176 1.369 . S
C175 C179 1.531 . S
C176 C175 1.369 . S
C176 C177 1.410 . S
C176 C184 1.503 . S
C177 C176 1.410 . S
C177 C178 1.392 . S
C177 C180 1.511 . S
C178 C174 1.376 . S
C178 C177 1.392 . S
C178 H190 0.929 . S
C179 C175 1.531 . S
C179 H191 0.960 . S
C179 H192 0.962 . S
C179 H193 0.960 . S
C180 C177 1.511 . S
C180 H194 0.961 . S
C180 H195 0.961 . S
C180 H196 0.961 . S
C181 C182 1.370 . S
C181 C183 1.363 . S
C181 H197 0.931 . S
C182 C181 1.370 . S
C182 C186 1.408 . S
C183 C181 1.363 . S
C183 C184 1.370 . S
C183 C187 1.524 . S
C184 C176 1.503 . S
C184 C183 1.370 . S
C184 C185 1.403 . S
C185 C184 1.403 . S
C185 C186 1.404 . S
C185 C188 1.539 . S
C186 C182 1.408 . S
C186 C185 1.404 . S
C186 H198 0.930 . S
C187 C183 1.524 . S
C187 H199 0.956 . S
C187 H200 0.961 . S
C187 H201 0.961 . S
C188 C185 1.539 . S
C188 H202 0.958 . S
C188 H203 0.961 . S
C188 H204 0.960 . S
H189 C173 0.931 . S
H190 C178 0.929 . S
H191 C179 0.960 . S
H192 C179 0.962 . S
H193 C179 0.960 . S
H194 C180 0.961 . S
H195 C180 0.961 . S
H196 C180 0.961 . S
H197 C181 0.931 . S
H198 C186 0.930 . S
H199 C187 0.956 . S
H200 C187 0.961 . S
H201 C187 0.961 . S
H202 C188 0.958 . S
H203 C188 0.961 . S
H204 C188 0.960 . S
C205 C206 1.391 . S
C205 C207 1.394 . S
C205 H221 0.931 . S
C206 C205 1.391 . S
C206 C210 1.376 . S
C207 C205 1.394 . S
C207 C208 1.369 . S
C207 C211 1.531 . S
C208 C207 1.369 . S
C208 C209 1.410 . S
C208 C216 1.503 . S
C209 C208 1.410 . S
C209 C210 1.392 . S
C209 C212 1.511 . S
C210 C206 1.376 . S
C210 C209 1.392 . S
C210 H222 0.929 . S
C211 C207 1.531 . S
C211 H223 0.960 . S
C211 H224 0.962 . S
C211 H225 0.960 . S
C212 C209 1.511 . S
C212 H226 0.961 . S
C212 H227 0.961 . S
C212 H228 0.961 . S
C213 C214 1.370 . S
C213 C215 1.363 . S
C213 H229 0.931 . S
C214 C213 1.370 . S
C214 C218 1.408 . S
C215 C213 1.363 . S
C215 C216 1.370 . S
C215 C219 1.524 . S
C216 C208 1.503 . S
C216 C215 1.370 . S
C216 C217 1.403 . S
C217 C216 1.403 . S
C217 C218 1.404 . S
C217 C220 1.539 . S
C218 C214 1.408 . S
C218 C217 1.404 . S
C218 H230 0.930 . S
C219 C215 1.524 . S
C219 H231 0.956 . S
C219 H232 0.961 . S
C219 H233 0.961 . S
C220 C217 1.539 . S
C220 H234 0.958 . S
C220 H235 0.961 . S
C220 H236 0.960 . S
H221 C205 0.931 . S
H222 C210 0.929 . S
H223 C211 0.960 . S
H224 C211 0.962 . S
H225 C211 0.960 . S
H226 C212 0.961 . S
H227 C212 0.961 . S
H228 C212 0.961 . S
H229 C213 0.931 . S
H230 C218 0.930 . S
H231 C219 0.956 . S
H232 C219 0.961 . S
H233 C219 0.961 . S
H234 C220 0.958 . S
H235 C220 0.961 . S
H236 C220 0.960 . S
C237 C238 1.391 . S
C237 C239 1.394 . S
C237 H253 0.931 . S
C238 C237 1.391 . S
C238 C242 1.376 . S
C239 C237 1.394 . S
C239 C240 1.369 . S
C239 C243 1.531 . S
C240 C239 1.369 . S
C240 C241 1.410 . S
C240 C248 1.503 . S
C241 C240 1.410 . S
C241 C242 1.392 . S
C241 C244 1.511 . S
C242 C238 1.376 . S
C242 C241 1.392 . S
C242 H254 0.929 . S
C243 C239 1.531 . S
C243 H255 0.960 . S
C243 H256 0.962 . S
C243 H257 0.960 . S
C244 C241 1.511 . S
C244 H258 0.961 . S
C244 H259 0.961 . S
C244 H260 0.961 . S
C245 C246 1.370 . S
C245 C247 1.363 . S
C245 H261 0.931 . S
C246 C245 1.370 . S
C246 C250 1.408 . S
C247 C245 1.363 . S
C247 C248 1.370 . S
C247 C251 1.524 . S
C248 C240 1.503 . S
C248 C247 1.370 . S
C248 C249 1.403 . S
C249 C248 1.403 . S
C249 C250 1.404 . S
C249 C252 1.539 . S
C250 C246 1.408 . S
C250 C249 1.404 . S
C250 H262 0.930 . S
C251 C247 1.524 . S
C251 H263 0.956 . S
C251 H264 0.961 . S
C251 H265 0.961 . S
C252 C249 1.539 . S
C252 H266 0.958 . S
C252 H267 0.961 . S
C252 H268 0.960 . S
H253 C237 0.931 . S
H254 C242 0.929 . S
H255 C243 0.960 . S
H256 C243 0.962 . S
H257 C243 0.960 . S
H258 C244 0.961 . S
H259 C244 0.961 . S
H260 C244 0.961 . S
H261 C245 0.931 . S
H262 C250 0.930 . S
H263 C251 0.956 . S
H264 C251 0.961 . S
H265 C251 0.961 . S
H266 C252 0.958 . S
H267 C252 0.961 . S
H268 C252 0.960 . S
C269 C270 1.391 . S
C269 C271 1.394 . S
C269 H285 0.931 . S
C270 C269 1.391 . S
C270 C274 1.376 . S
C271 C269 1.394 . S
C271 C272 1.369 . S
C271 C275 1.531 . S
C272 C271 1.369 . S
C272 C273 1.410 . S
C272 C280 1.503 . S
C273 C272 1.410 . S
C273 C274 1.392 . S
C273 C276 1.511 . S
C274 C270 1.376 . S
C274 C273 1.392 . S
C274 H286 0.929 . S
C275 C271 1.531 . S
C275 H287 0.960 . S
C275 H288 0.962 . S
C275 H289 0.960 . S
C276 C273 1.511 . S
C276 H290 0.961 . S
C276 H291 0.961 . S
C276 H292 0.961 . S
C277 C278 1.370 . S
C277 C279 1.363 . S
C277 H293 0.931 . S
C278 C277 1.370 . S
C278 C282 1.408 . S
C279 C277 1.363 . S
C279 C280 1.370 . S
C279 C283 1.524 . S
C280 C272 1.503 . S
C280 C279 1.370 . S
C280 C281 1.403 . S
C281 C280 1.403 . S
C281 C282 1.404 . S
C281 C284 1.539 . S
C282 C278 1.408 . S
C282 C281 1.404 . S
C282 H294 0.930 . S
C283 C279 1.524 . S
C283 H295 0.956 . S
C283 H296 0.961 . S
C283 H297 0.961 . S
C284 C281 1.539 . S
C284 H298 0.958 . S
C284 H299 0.961 . S
C284 H300 0.960 . S
H285 C269 0.931 . S
H286 C274 0.929 . S
H287 C275 0.960 . S
H288 C275 0.962 . S
H289 C275 0.960 . S
H290 C276 0.961 . S
H291 C276 0.961 . S
H292 C276 0.961 . S
H293 C277 0.931 . S
H294 C282 0.930 . S
H295 C283 0.956 . S
H296 C283 0.961 . S
H297 C283 0.961 . S
H298 C284 0.958 . S
H299 C284 0.961 . S
H300 C284 0.960 . S
C301 C302 1.391 . S
C301 C303 1.394 . S
C301 H317 0.931 . S
C302 C301 1.391 . S
C302 C306 1.376 . S
C303 C301 1.394 . S
C303 C304 1.369 . S
C303 C307 1.531 . S
C304 C303 1.369 . S
C304 C305 1.410 . S
C304 C312 1.503 . S
C305 C304 1.410 . S
C305 C306 1.392 . S
C305 C308 1.511 . S
C306 C302 1.376 . S
C306 C305 1.392 . S
C306 H318 0.929 . S
C307 C303 1.531 . S
C307 H319 0.960 . S
C307 H320 0.962 . S
C307 H321 0.960 . S
C308 C305 1.511 . S
C308 H322 0.961 . S
C308 H323 0.961 . S
C308 H324 0.961 . S
C309 C310 1.370 . S
C309 C311 1.363 . S
C309 H325 0.931 . S
C310 C309 1.370 . S
C310 C314 1.408 . S
C311 C309 1.363 . S
C311 C312 1.370 . S
C311 C315 1.524 . S
C312 C304 1.503 . S
C312 C311 1.370 . S
C312 C313 1.403 . S
C313 C312 1.403 . S
C313 C314 1.404 . S
C313 C316 1.539 . S
C314 C310 1.408 . S
C314 C313 1.404 . S
C314 H326 0.930 . S
C315 C311 1.524 . S
C315 H327 0.956 . S
C315 H328 0.961 . S
C315 H329 0.961 . S
C316 C313 1.539 . S
C316 H330 0.958 . S
C316 H331 0.961 . S
C316 H332 0.960 . S
H317 C301 0.931 . S
H318 C306 0.929 . S
H319 C307 0.960 . S
H320 C307 0.962 . S
H321 C307 0.960 . S
H322 C308 0.961 . S
H323 C308 0.961 . S
H324 C308 0.961 . S
H325 C309 0.931 . S
H326 C314 0.930 . S
H327 C315 0.956 . S
H328 C315 0.961 . S
H329 C315 0.961 . S
H330 C316 0.958 . S
H331 C316 0.961 . S
H332 C316 0.960 . S
C333 C334 1.391 . S
C333 C335 1.394 . S
C333 H349 0.931 . S
C334 C333 1.391 . S
C334 C338 1.376 . S
C335 C333 1.394 . S
C335 C336 1.369 . S
C335 C339 1.531 . S
C336 C335 1.369 . S
C336 C337 1.410 . S
C336 C344 1.503 . S
C337 C336 1.410 . S
C337 C338 1.392 . S
C337 C340 1.511 . S
C338 C334 1.376 . S
C338 C337 1.392 . S
C338 H350 0.929 . S
C339 C335 1.531 . S
C339 H351 0.960 . S
C339 H352 0.962 . S
C339 H353 0.960 . S
C340 C337 1.511 . S
C340 H354 0.961 . S
C340 H355 0.961 . S
C340 H356 0.961 . S
C341 C342 1.370 . S
C341 C343 1.363 . S
C341 H357 0.931 . S
C342 C341 1.370 . S
C342 C346 1.408 . S
C343 C341 1.363 . S
C343 C344 1.370 . S
C343 C347 1.524 . S
C344 C336 1.503 . S
C344 C343 1.370 . S
C344 C345 1.403 . S
C345 C344 1.403 . S
C345 C346 1.404 . S
C345 C348 1.539 . S
C346 C342 1.408 . S
C346 C345 1.404 . S
C346 H358 0.930 . S
C347 C343 1.524 . S
C347 H359 0.956 . S
C347 H360 0.961 . S
C347 H361 0.961 . S
C348 C345 1.539 . S
C348 H362 0.958 . S
C348 H363 0.961 . S
C348 H364 0.960 . S
H349 C333 0.931 . S
H350 C338 0.929 . S
H351 C339 0.960 . S
H352 C339 0.962 . S
H353 C339 0.960 . S
H354 C340 0.961 . S
H355 C340 0.961 . S
H356 C340 0.961 . S
H357 C341 0.931 . S
H358 C346 0.930 . S
H359 C347 0.956 . S
H360 C347 0.961 . S
H361 C347 0.961 . S
H362 C348 0.958 . S
H363 C348 0.961 . S
H364 C348 0.960 . S
C365 C366 1.391 . S
C365 C367 1.394 . S
C365 H381 0.931 . S
C366 C365 1.391 . S
C366 C370 1.376 . S
C367 C365 1.394 . S
C367 C368 1.369 . S
C367 C371 1.531 . S
C368 C367 1.369 . S
C368 C369 1.410 . S
C368 C376 1.503 . S
C369 C368 1.410 . S
C369 C370 1.392 . S
C369 C372 1.511 . S
C370 C366 1.376 . S
C370 C369 1.392 . S
C370 H382 0.929 . S
C371 C367 1.531 . S
C371 H383 0.960 . S
C371 H384 0.962 . S
C371 H385 0.960 . S
C372 C369 1.511 . S
C372 H386 0.961 . S
C372 H387 0.961 . S
C372 H388 0.961 . S
C373 C374 1.370 . S
C373 C375 1.363 . S
C373 H389 0.931 . S
C374 C373 1.370 . S
C374 C378 1.408 . S
C375 C373 1.363 . S
C375 C376 1.370 . S
C375 C379 1.524 . S
C376 C368 1.503 . S
C376 C375 1.370 . S
C376 C377 1.403 . S
C377 C376 1.403 . S
C377 C378 1.404 . S
C377 C380 1.539 . S
C378 C374 1.408 . S
C378 C377 1.404 . S
C378 H390 0.930 . S
C379 C375 1.524 . S
C379 H391 0.956 . S
C379 H392 0.961 . S
C379 H393 0.961 . S
C380 C377 1.539 . S
C380 H394 0.958 . S
C380 H395 0.961 . S
C380 H396 0.960 . S
H381 C365 0.931 . S
H382 C370 0.929 . S
H383 C371 0.960 . S
H384 C371 0.962 . S
H385 C371 0.960 . S
H386 C372 0.961 . S
H387 C372 0.961 . S
H388 C372 0.961 . S
H389 C373 0.931 . S
H390 C378 0.930 . S
H391 C379 0.956 . S
H392 C379 0.961 . S
H393 C379 0.961 . S
H394 C380 0.958 . S
H395 C380 0.961 . S
H396 C380 0.960 . S
C397 C398 1.391 . S
C397 C399 1.394 . S
C397 H413 0.931 . S
C398 C397 1.391 . S
C398 C402 1.376 . S
C399 C397 1.394 . S
C399 C400 1.369 . S
C399 C403 1.531 . S
C400 C399 1.369 . S
C400 C401 1.410 . S
C400 C408 1.503 . S
C401 C400 1.410 . S
C401 C402 1.392 . S
C401 C404 1.511 . S
C402 C398 1.376 . S
C402 C401 1.392 . S
C402 H414 0.929 . S
C403 C399 1.531 . S
C403 H415 0.960 . S
C403 H416 0.962 . S
C403 H417 0.960 . S
C404 C401 1.511 . S
C404 H418 0.961 . S
C404 H419 0.961 . S
C404 H420 0.961 . S
C405 C406 1.370 . S
C405 C407 1.363 . S
C405 H421 0.931 . S
C406 C405 1.370 . S
C406 C410 1.408 . S
C407 C405 1.363 . S
C407 C408 1.370 . S
C407 C411 1.524 . S
C408 C400 1.503 . S
C408 C407 1.370 . S
C408 C409 1.403 . S
C409 C408 1.403 . S
C409 C410 1.404 . S
C409 C412 1.539 . S
C410 C406 1.408 . S
C410 C409 1.404 . S
C410 H422 0.930 1_565 S
C411 C407 1.524 . S
C411 H423 0.956 . S
C411 H424 0.961 . S
C411 H425 0.961 . S
C412 C409 1.539 . S
C412 H426 0.958 . S
C412 H427 0.961 . S
C412 H428 0.960 . S
H413 C397 0.931 . S
H414 C402 0.929 . S
H415 C403 0.960 . S
H416 C403 0.962 . S
H417 C403 0.960 . S
H418 C404 0.961 . S
H419 C404 0.961 . S
H420 C404 0.961 . S
H421 C405 0.931 . S
H422 C410 0.930 1_545 S
H423 C411 0.956 . S
H424 C411 0.961 . S
H425 C411 0.961 . S
H426 C412 0.958 . S
H427 C412 0.961 . S
H428 C412 0.960 . S
C429 C430 1.391 . S
C429 C431 1.394 . S
C429 H445 0.931 . S
C430 C429 1.391 . S
C430 C434 1.376 . S
C431 C429 1.394 . S
C431 C432 1.369 . S
C431 C435 1.531 . S
C432 C431 1.369 . S
C432 C433 1.410 . S
C432 C440 1.503 . S
C433 C432 1.410 . S
C433 C434 1.392 . S
C433 C436 1.511 . S
C434 C430 1.376 . S
C434 C433 1.392 . S
C434 H446 0.929 . S
C435 C431 1.531 . S
C435 H447 0.960 . S
C435 H448 0.962 . S
C435 H449 0.960 . S
C436 C433 1.511 . S
C436 H450 0.961 . S
C436 H451 0.961 . S
C436 H452 0.961 . S
C437 C438 1.370 . S
C437 C439 1.363 . S
C437 H453 0.931 . S
C438 C437 1.370 . S
C438 C442 1.408 . S
C439 C437 1.363 . S
C439 C440 1.370 . S
C439 C443 1.524 . S
C440 C432 1.503 . S
C440 C439 1.370 . S
C440 C441 1.403 . S
C441 C440 1.403 . S
C441 C442 1.404 . S
C441 C444 1.539 . S
C442 C438 1.408 . S
C442 C441 1.404 . S
C442 H454 0.930 . S
C443 C439 1.524 . S
C443 H455 0.956 . S
C443 H456 0.961 . S
C443 H457 0.961 . S
C444 C441 1.539 . S
C444 H458 0.958 . S
C444 H459 0.961 . S
C444 H460 0.960 . S
H445 C429 0.931 . S
H446 C434 0.929 . S
H447 C435 0.960 . S
H448 C435 0.962 . S
H449 C435 0.960 . S
H450 C436 0.961 . S
H451 C436 0.961 . S
H452 C436 0.961 . S
H453 C437 0.931 . S
H454 C442 0.930 . S
H455 C443 0.956 . S
H456 C443 0.961 . S
H457 C443 0.961 . S
H458 C444 0.958 . S
H459 C444 0.961 . S
H460 C444 0.960 . S
C461 C462 1.391 . S
C461 C463 1.394 . S
C461 H477 0.931 . S
C462 C461 1.391 . S
C462 C466 1.376 . S
C463 C461 1.394 . S
C463 C464 1.369 . S
C463 C467 1.531 . S
C464 C463 1.369 . S
C464 C465 1.410 . S
C464 C472 1.503 . S
C465 C464 1.410 . S
C465 C466 1.392 . S
C465 C468 1.511 . S
C466 C462 1.376 . S
C466 C465 1.392 . S
C466 H478 0.929 . S
C467 C463 1.531 . S
C467 H479 0.960 . S
C467 H480 0.962 . S
C467 H481 0.960 . S
C468 C465 1.511 . S
C468 H482 0.961 . S
C468 H483 0.961 . S
C468 H484 0.961 . S
C469 C470 1.370 . S
C469 C471 1.363 . S
C469 H485 0.931 . S
C470 C469 1.370 . S
C470 C474 1.408 . S
C471 C469 1.363 . S
C471 C472 1.370 . S
C471 C475 1.524 . S
C472 C464 1.503 . S
C472 C471 1.370 . S
C472 C473 1.403 . S
C473 C472 1.403 . S
C473 C474 1.404 . S
C473 C476 1.539 . S
C474 C470 1.408 . S
C474 C473 1.404 . S
C474 H486 0.930 . S
C475 C471 1.524 . S
C475 H487 0.956 . S
C475 H488 0.961 . S
C475 H489 0.961 . S
C476 C473 1.539 . S
C476 H490 0.958 . S
C476 H491 0.961 . S
C476 H492 0.960 . S
H477 C461 0.931 . S
H478 C466 0.929 . S
H479 C467 0.960 . S
H480 C467 0.962 . S
H481 C467 0.960 . S
H482 C468 0.961 . S
H483 C468 0.961 . S
H484 C468 0.961 . S
H485 C469 0.931 . S
H486 C474 0.930 . S
H487 C475 0.956 . S
H488 C475 0.961 . S
H489 C475 0.961 . S
H490 C476 0.958 . S
H491 C476 0.961 . S
H492 C476 0.960 . S
C493 C494 1.391 . S
C493 C495 1.394 . S
C493 H509 0.931 . S
C494 C493 1.391 . S
C494 C498 1.376 . S
C495 C493 1.394 . S
C495 C496 1.369 . S
C495 C499 1.531 . S
C496 C495 1.369 . S
C496 C497 1.410 . S
C496 C504 1.503 . S
C497 C496 1.410 . S
C497 C498 1.392 . S
C497 C500 1.511 . S
C498 C494 1.376 . S
C498 C497 1.392 . S
C498 H510 0.929 . S
C499 C495 1.531 . S
C499 H511 0.960 . S
C499 H512 0.962 . S
C499 H513 0.960 . S
C500 C497 1.511 . S
C500 H514 0.961 . S
C500 H515 0.961 . S
C500 H516 0.961 . S
C501 C502 1.370 . S
C501 C503 1.363 . S
C501 H517 0.931 . S
C502 C501 1.370 . S
C502 C506 1.408 . S
C503 C501 1.363 . S
C503 C504 1.370 . S
C503 C507 1.524 . S
C504 C496 1.503 . S
C504 C503 1.370 . S
C504 C505 1.403 . S
C505 C504 1.403 . S
C505 C506 1.404 . S
C505 C508 1.539 . S
C506 C502 1.408 . S
C506 C505 1.404 . S
C506 H518 0.930 . S
C507 C503 1.524 . S
C507 H519 0.956 . S
C507 H520 0.961 . S
C507 H521 0.961 . S
C508 C505 1.539 . S
C508 H522 0.958 . S
C508 H523 0.961 . S
C508 H524 0.960 . S
H509 C493 0.931 . S
H510 C498 0.929 . S
H511 C499 0.960 . S
H512 C499 0.962 . S
H513 C499 0.960 . S
H514 C500 0.961 . S
H515 C500 0.961 . S
H516 C500 0.961 . S
H517 C501 0.931 . S
H518 C506 0.930 . S
H519 C507 0.956 . S
H520 C507 0.961 . S
H521 C507 0.961 . S
H522 C508 0.958 . S
H523 C508 0.961 . S
H524 C508 0.960 . S
C525 C526 1.391 . S
C525 C527 1.394 . S
C525 H541 0.931 . S
C526 C525 1.391 . S
C526 C530 1.376 . S
C527 C525 1.394 . S
C527 C528 1.369 . S
C527 C531 1.531 . S
C528 C527 1.369 . S
C528 C529 1.410 . S
C528 C536 1.503 . S
C529 C528 1.410 . S
C529 C530 1.392 . S
C529 C532 1.511 . S
C530 C526 1.376 . S
C530 C529 1.392 . S
C530 H542 0.929 . S
C531 C527 1.531 . S
C531 H543 0.960 . S
C531 H544 0.962 1_455 S
C531 H545 0.960 . S
C532 C529 1.511 . S
C532 H546 0.961 . S
C532 H547 0.961 . S
C532 H548 0.961 . S
C533 C534 1.370 . S
C533 C535 1.363 . S
C533 H549 0.931 1_455 S
C534 C533 1.370 . S
C534 C538 1.408 . S
C535 C533 1.363 . S
C535 C536 1.370 1_556 S
C535 C539 1.524 1_456 S
C536 C528 1.503 . S
C536 C535 1.370 1_554 S
C536 C537 1.403 1_554 S
C537 C536 1.403 1_556 S
C537 C538 1.404 . S
C537 C540 1.524 1_556 S
C538 C534 1.408 . S
C538 C537 1.404 . S
C538 H550 0.930 . S
C539 C535 1.524 1_654 S
C539 H551 0.956 . S
C539 H552 0.961 . S
C539 H553 0.961 1_554 S
C540 C537 1.524 1_554 S
C540 H554 0.963 . S
C540 H555 0.932 1_554 S
C540 H556 1.002 . S
H541 C525 0.931 . S
H542 C530 0.929 . S
H543 C531 0.960 . S
H544 C531 0.962 1_655 S
H545 C531 0.960 . S
H546 C532 0.961 . S
H547 C532 0.961 . S
H548 C532 0.961 . S
H549 C533 0.931 1_655 S
H550 C538 0.930 . S
H551 C539 0.956 . S
H552 C539 0.961 . S
H553 C539 0.961 1_556 S
H554 C540 0.963 . S
H555 C540 0.932 1_556 S
H556 C540 1.002 . S
C557 C558 1.391 . S
C557 C559 1.394 . S
C557 H573 0.931 1_545 S
C558 C557 1.391 . S
C558 C562 1.376 . S
C559 C557 1.394 . S
C559 C560 1.369 . S
C559 C563 1.531 1_545 S
C560 C559 1.369 . S
C560 C561 1.410 . S
C560 C568 1.503 . S
C561 C560 1.410 . S
C561 C562 1.392 . S
C561 C564 1.511 . S
C562 C558 1.376 . S
C562 C561 1.392 . S
C562 H574 0.929 . S
C563 C559 1.531 1_565 S
C563 H575 0.960 . S
C563 H576 0.962 . S
C563 H577 0.960 . S
C564 C561 1.511 . S
C564 H578 0.961 . S
C564 H579 0.961 . S
C564 H580 0.961 . S
C565 C566 1.370 . S
C565 C567 1.363 . S
C565 H581 0.931 . S
C566 C565 1.370 . S
C566 C570 1.408 . S
C567 C565 1.363 . S
C567 C568 1.370 . S
C567 C571 1.524 . S
C568 C560 1.503 . S
C568 C567 1.370 . S
C568 C569 1.403 . S
C569 C568 1.403 . S
C569 C570 1.404 . S
C569 C572 1.539 1_545 S
C570 C566 1.408 . S
C570 C569 1.404 . S
C570 H582 0.930 . S
C571 C567 1.524 . S
C571 H583 0.956 . S
C571 H584 0.961 . S
C571 H585 0.961 . S
C572 C569 1.539 1_565 S
C572 H586 0.958 . S
C572 H587 0.961 . S
C572 H588 0.960 . S
H573 C557 0.931 1_565 S
H574 C562 0.929 . S
H575 C563 0.960 . S
H576 C563 0.962 . S
H577 C563 0.960 . S
H578 C564 0.961 . S
H579 C564 0.961 . S
H580 C564 0.961 . S
H581 C565 0.931 . S
H582 C570 0.930 . S
H583 C571 0.956 . S
H584 C571 0.961 . S
H585 C571 0.961 . S
H586 C572 0.958 . S
H587 C572 0.961 . S
H588 C572 0.960 . S
C589 C590 1.391 . S
C589 C591 1.394 . S
C589 H605 0.931 . S
C590 C589 1.391 . S
C590 C594 1.376 . S
C591 C589 1.394 . S
C591 C592 1.369 . S
C591 C595 1.531 . S
C592 C591 1.369 . S
C592 C593 1.410 . S
C592 C600 1.503 . S
C593 C592 1.410 . S
C593 C594 1.392 . S
C593 C596 1.511 . S
C594 C590 1.376 . S
C594 C593 1.392 . S
C594 H606 0.929 . S
C595 C591 1.531 . S
C595 H607 0.960 . S
C595 H608 0.962 . S
C595 H609 0.960 . S
C596 C593 1.511 . S
C596 H610 0.961 . S
C596 H611 0.961 . S
C596 H612 0.961 . S
C597 C598 1.370 . S
C597 C599 1.363 . S
C597 H613 0.931 . S
C598 C597 1.370 . S
C598 C602 1.408 . S
C599 C597 1.363 . S
C599 C600 1.370 . S
C599 C603 1.524 . S
C600 C592 1.503 . S
C600 C599 1.370 . S
C600 C601 1.403 . S
C601 C600 1.403 . S
C601 C602 1.404 . S
C601 C604 1.539 . S
C602 C598 1.408 . S
C602 C601 1.404 . S
C602 H614 0.930 . S
C603 C599 1.524 . S
C603 H615 0.956 . S
C603 H616 0.961 . S
C603 H617 0.961 . S
C604 C601 1.539 . S
C604 H618 0.958 . S
C604 H619 0.961 . S
C604 H620 0.960 . S
H605 C589 0.931 . S
H606 C594 0.929 . S
H607 C595 0.960 . S
H608 C595 0.962 . S
H609 C595 0.960 . S
H610 C596 0.961 . S
H611 C596 0.961 . S
H612 C596 0.961 . S
H613 C597 0.931 . S
H614 C602 0.930 . S
H615 C603 0.956 . S
H616 C603 0.961 . S
H617 C603 0.961 . S
H618 C604 0.958 . S
H619 C604 0.961 . S
H620 C604 0.960 . S
C621 C622 1.391 . S
C621 C623 1.394 . S
C621 H637 0.931 1_545 S
C622 C621 1.391 . S
C622 C626 1.376 . S
C623 C621 1.394 . S
C623 C624 1.369 . S
C623 C627 1.531 1_545 S
C624 C623 1.369 . S
C624 C625 1.410 . S
C624 C632 1.503 . S
C625 C624 1.410 . S
C625 C626 1.392 . S
C625 C628 1.511 . S
C626 C622 1.376 . S
C626 C625 1.392 . S
C626 H638 0.929 . S
C627 C623 1.531 1_565 S
C627 H639 0.960 . S
C627 H640 0.962 . S
C627 H641 0.960 . S
C628 C625 1.511 . S
C628 H642 0.961 . S
C628 H643 0.961 . S
C628 H644 0.961 . S
C629 C630 1.370 . S
C629 C631 1.363 . S
C629 H645 0.931 . S
C630 C629 1.370 . S
C630 C634 1.408 1_545 S
C631 C629 1.363 . S
C631 C632 1.370 . S
C631 C635 1.524 . S
C632 C624 1.503 . S
C632 C631 1.370 . S
C632 C633 1.403 1_545 S
C633 C632 1.403 1_565 S
C633 C634 1.404 . S
C633 C636 1.539 . S
C634 C630 1.408 1_565 S
C634 C633 1.404 . S
C634 H646 0.930 . S
C635 C631 1.524 . S
C635 H647 0.956 . S
C635 H648 0.961 . S
C635 H649 0.961 . S
C636 C633 1.539 . S
C636 H650 0.958 . S
C636 H651 0.961 . S
C636 H652 0.960 . S
H637 C621 0.931 1_565 S
H638 C626 0.929 . S
H639 C627 0.960 . S
H640 C627 0.962 . S
H641 C627 0.960 . S
H642 C628 0.961 . S
H643 C628 0.961 . S
H644 C628 0.961 . S
H645 C629 0.931 . S
H646 C634 0.930 . S
H647 C635 0.956 . S
H648 C635 0.961 . S
H649 C635 0.961 . S
H650 C636 0.958 . S
H651 C636 0.961 . S
H652 C636 0.960 . S
C653 C654 1.391 . S
C653 C655 1.394 . S
C653 H669 0.931 . S
C654 C653 1.391 . S
C654 C658 1.376 . S
C655 C653 1.394 . S
C655 C656 1.369 . S
C655 C659 1.531 . S
C656 C655 1.369 . S
C656 C657 1.410 . S
C656 C664 1.503 . S
C657 C656 1.410 . S
C657 C658 1.392 . S
C657 C660 1.511 . S
C658 C654 1.376 . S
C658 C657 1.392 . S
C658 H670 0.929 . S
C659 C655 1.531 . S
C659 H671 0.960 . S
C659 H672 0.962 . S
C659 H673 0.960 . S
C660 C657 1.511 . S
C660 H674 0.961 . S
C660 H675 0.961 . S
C660 H676 0.961 . S
C661 C662 1.370 . S
C661 C663 1.363 . S
C661 H677 0.931 . S
C662 C661 1.370 . S
C662 C666 1.408 . S
C663 C661 1.363 . S
C663 C664 1.370 1_554 S
C663 C667 1.524 1_554 S
C664 C656 1.503 . S
C664 C663 1.370 1_556 S
C664 C665 1.403 1_556 S
C665 C664 1.403 1_554 S
C665 C666 1.404 . S
C665 C668 1.541 1_554 S
C666 C662 1.408 . S
C666 C665 1.404 . S
C666 H678 0.930 . S
C667 C663 1.524 1_556 S
C667 H679 0.956 . S
C667 H680 0.961 . S
C667 H681 0.961 1_556 S
C668 C665 1.541 1_556 S
C668 H682 0.958 . S
C668 H683 0.965 1_556 S
C668 H684 0.955 . S
H669 C653 0.931 . S
H670 C658 0.929 . S
H671 C659 0.960 . S
H672 C659 0.962 . S
H673 C659 0.960 . S
H674 C660 0.961 . S
H675 C660 0.961 . S
H676 C660 0.961 . S
H677 C661 0.931 . S
H678 C666 0.930 . S
H679 C667 0.956 . S
H680 C667 0.961 . S
H681 C667 0.961 1_554 S
H682 C668 0.958 . S
H683 C668 0.965 1_554 S
H684 C668 0.955 . S
C685 C686 1.391 . S
C685 C687 1.394 . S
C685 H701 0.931 1_455 S
C686 C685 1.391 . S
C686 C690 1.376 . S
C687 C685 1.394 . S
C687 C688 1.369 . S
C687 C691 1.531 1_455 S
C688 C687 1.369 . S
C688 C689 1.410 . S
C688 C696 1.503 . S
C689 C688 1.410 . S
C689 C690 1.392 . S
C689 C692 1.511 . S
C690 C686 1.376 . S
C690 C689 1.392 . S
C690 H702 0.929 . S
C691 C687 1.531 1_655 S
C691 H703 0.960 . S
C691 H704 0.962 . S
C691 H705 0.960 . S
C692 C689 1.511 . S
C692 H706 0.961 . S
C692 H707 0.961 . S
C692 H708 0.961 . S
C693 C694 1.370 . S
C693 C695 1.363 . S
C693 H709 0.931 . S
C694 C693 1.370 . S
C694 C698 1.408 . S
C695 C693 1.363 . S
C695 C696 1.370 . S
C695 C699 1.524 . S
C696 C688 1.503 . S
C696 C695 1.370 . S
C696 C697 1.403 . S
C697 C696 1.403 . S
C697 C698 1.404 . S
C697 C700 1.539 . S
C698 C694 1.408 . S
C698 C697 1.404 . S
C698 H710 0.930 . S
C699 C695 1.524 . S
C699 H711 0.956 . S
C699 H712 0.961 . S
C699 H713 0.961 . S
C700 C697 1.539 . S
C700 H714 0.969 . S
C700 H715 0.961 . S
C700 H716 0.960 . S
H701 C685 0.931 1_655 S
H702 C690 0.929 . S
H703 C691 0.960 . S
H704 C691 0.962 . S
H705 C691 0.960 . S
H706 C692 0.961 . S
H707 C692 0.961 . S
H708 C692 0.961 . S
H709 C693 0.931 . S
H710 C698 0.930 . S
H711 C699 0.956 . S
H712 C699 0.961 . S
H713 C699 0.961 . S
H714 C700 0.969 . S
H715 C700 0.961 . S
H716 C700 0.960 . S
C142 C20 1.471 . S
C150 C135 1.538 . S
C174 C41 1.305 . S
C182 C109 1.302 . S
C206 C64 1.323 . S
C214 C121 1.309 . S
C238 C19 1.094 . S
C246 C133 1.054 . S
C278 C111 1.291 . S
C270 C44 1.271 . S
C310 C123 1.259 . S
C302 C67 1.237 . S
C334 C43 1.302 . S
C342 C85 1.281 . S
C366 C66 1.506 . S
C374 C99 1.541 . S
C398 C21 1.267 . S
C406 C75 1.270 1_565 S
C438 C87 1.303 . S
C430 C42 1.273 . S
C470 C97 1.057 . S
C462 C65 1.041 . S
C494 C18 1.309 . S
C502 C73 1.303 . S
C534 C102 1.526 . S
C526 C17 1.525 . S
C558 C39 1.540 . S
C566 C78 1.527 . S
C590 C62 1.527 . S
C598 C90 1.533 . S
C630 C126 1.524 . S
C622 C40 1.500 . S
C662 C138 1.525 . S
C654 C63 1.522 . S
C686 C16 1.507 . S
C694 C114 1.514 . S
