# Generated by pormake.
# Topology ftw, (4,12)-cn, num edge types: 1
# Building blocks:
#     Node 0, Type 0, BuildingBlock: KUFVIS_clean_linker_0, # of connection points: 4
#     Node 1, Type 0, BuildingBlock: KUFVIS_clean_linker_0, # of connection points: 4
#     Node 2, Type 0, BuildingBlock: KUFVIS_clean_linker_0, # of connection points: 4
#     Node 3, Type 1, BuildingBlock: EZIPEK_clean_sbu_0, # of connection points: 12
#     Edge 4, Type (0, 1), BuildingBlock: TEMPAE_clean_linker_10, # of connection points: 2
#     Edge 5, Type (0, 1), BuildingBlock: TEMPAE_clean_linker_10, # of connection points: 2
#     Edge 6, Type (0, 1), BuildingBlock: TEMPAE_clean_linker_10, # of connection points: 2
#     Edge 7, Type (0, 1), BuildingBlock: TEMPAE_clean_linker_10, # of connection points: 2
#     Edge 8, Type (0, 1), BuildingBlock: TEMPAE_clean_linker_10, # of connection points: 2
#     Edge 9, Type (0, 1), BuildingBlock: TEMPAE_clean_linker_10, # of connection points: 2
#     Edge 10, Type (0, 1), BuildingBlock: TEMPAE_clean_linker_10, # of connection points: 2
#     Edge 11, Type (0, 1), BuildingBlock: TEMPAE_clean_linker_10, # of connection points: 2
#     Edge 12, Type (0, 1), BuildingBlock: TEMPAE_clean_linker_10, # of connection points: 2
#     Edge 13, Type (0, 1), BuildingBlock: TEMPAE_clean_linker_10, # of connection points: 2
#     Edge 14, Type (0, 1), BuildingBlock: TEMPAE_clean_linker_10, # of connection points: 2
#     Edge 15, Type (0, 1), BuildingBlock: TEMPAE_clean_linker_10, # of connection points: 2
# Relax obj value: 0.081
# Max RMSD: 0.235
# Mean RMSD: 0.179
data_MOF--net-ftw--node1-EZIPEK_clean_sbu_0--node2-KUFVIS_clean_linker_0--edge1-TEMPAE_clean_linker_10
_symmetry_space_group_name_H-M    P1
_symmetry_Int_Tables_number       1
_symmetry_cell_setting            triclinic
loop_
_symmetry_equiv_pos_as_xyz
'x, y, z'
_cell_length_a     23.912982
_cell_length_b     25.390348
_cell_length_c     24.263761
_cell_angle_alpha  89.969381
_cell_angle_beta   90.125583
_cell_angle_gamma 90.010438
loop_
_atom_site_label
_atom_site_type_symbol
_atom_site_fract_x
_atom_site_fract_y
_atom_site_fract_z
_atom_type_partial_charge
H0 H -0.00957 0.33158 0.52632 0.0
H1 H 0.97331 0.47716 0.61193 0.0
H2 H -0.00173 0.47485 0.43441 0.0
H3 H 0.97421 0.55479 0.43314 0.0
H4 H -0.01575 0.70049 0.52018 0.0
H5 H -0.0037 0.5572 0.61111 0.0
C6 C -0.01069 0.37429 0.52525 0.0
C7 C -0.00651 0.40068 0.47485 0.0
C8 C -0.01701 0.40232 0.57429 0.0
C9 C 0.98038 0.45754 0.57315 0.0
C10 C -0.01403 0.48603 0.52305 0.0
C11 C -0.00743 0.45612 0.47391 0.0
C12 C -0.01478 0.546 0.52224 0.0
C13 C 0.97978 0.57454 0.4721 0.0
C14 C 0.98001 0.62993 0.47127 0.0
C15 C -0.01556 0.65775 0.52075 0.0
C16 C -0.01077 0.63122 0.57096 0.0
C17 C -0.00974 0.57585 0.5716 0.0
H18 H 0.47219 0.13392 0.71748 0.0
H19 H 0.56894 0.10181 0.57429 0.0
H20 H 0.3938 0.14185 0.5587 0.0
H21 H 0.39512 0.08351 0.4938 0.0
H22 H 0.49059 0.04249 0.35167 0.0
H23 H 0.57224 0.11888 0.48669 0.0
C24 C 0.47516 0.1333 0.67288 0.0
C25 C 0.42697 0.13894 0.64053 0.0
C26 C 0.52653 0.12206 0.64826 0.0
C27 C 0.52974 0.11551 0.59119 0.0
C28 C 0.48196 0.12127 0.55765 0.0
C29 C 0.43127 0.13595 0.58296 0.0
C30 C 0.4834 0.10441 0.49855 0.0
C31 C 0.43483 0.08455 0.47264 0.0
C32 C 0.43707 0.06337 0.41945 0.0
C33 C 0.48851 0.05938 0.39268 0.0
C34 C 0.53724 0.07831 0.41762 0.0
C35 C 0.53424 0.10288 0.46916 0.0
H36 H 0.4843 0.6994 1.01516 0.0
H37 H 0.57503 0.5553 0.03233 0.0
H38 H 0.3979 0.55354 0.99323 0.0
H39 H 0.39901 0.47603 0.03056 0.0
H40 H 0.48997 0.33249 1.01056 0.0
H41 H 0.57629 0.47888 0.9929 0.0
C42 C 0.48497 0.65667 1.01443 0.0
C43 C 0.43556 0.62885 1.00479 0.0
C44 C 0.53521 0.62993 0.02319 0.0
C45 C 0.5359 0.57473 0.02307 0.0
C46 C 0.48662 0.54554 1.01254 0.0
C47 C 0.43648 0.5737 1.00301 0.0
C48 C 0.48747 0.48633 1.01167 0.0
C49 C 0.43817 0.45686 0.02102 0.0
C50 C 0.43893 0.40167 0.01975 0.0
C51 C 0.48924 0.37523 1.0107 0.0
C52 C 0.53868 0.40327 1.00221 0.0
C53 C 0.53768 0.45845 1.0018 0.0
C54 C -0.0165 0.14531 0.89055 0.0
C55 C -0.00888 0.14246 0.15847 0.0
C56 C -0.01648 0.88954 0.88699 0.0
C57 C -0.0117 0.88632 0.15458 0.0
C58 C 0.12046 0.88744 1.01432 0.0
C59 C 0.12325 0.14233 0.02359 0.0
C60 C 0.85041 0.88961 0.0261 0.0
C61 C 0.85301 0.14457 0.02227 0.0
C62 C 0.85589 1.02195 0.15991 0.0
C63 C 0.1253 1.0114 0.1526 0.0
C64 C 0.84739 1.02722 0.89476 0.0
C65 C 0.11672 1.03076 0.88687 0.0
Eu66 Eu -0.0121 0.11593 0.02434 0.0
O67 O 0.03841 0.06195 0.07144 0.0
O68 O 0.93698 0.06325 0.97664 0.0
Eu69 Eu 0.09204 1.01517 0.01994 0.0
Eu70 Eu 0.88163 1.01691 0.0261 0.0
O71 O 0.03443 0.06251 0.97359 0.0
O72 O 0.93912 0.06304 0.07412 0.0
Eu73 Eu -0.01693 1.01712 0.91841 0.0
Eu74 Eu -0.01031 1.01479 0.12726 0.0
O75 O 0.03463 0.96908 0.97119 0.0
O76 O 0.03695 0.96819 0.06969 0.0
O77 O 0.93829 0.96872 0.07276 0.0
O78 O 0.93436 0.96955 0.974 0.0
Eu79 Eu -0.0143 0.91618 0.02116 0.0
O80 O -0.01284 0.1609 0.94309 0.0
O81 O -0.01044 0.15926 0.10629 0.0
O82 O -0.01584 0.87287 0.93925 0.0
O83 O -0.01288 0.87083 0.10194 0.0
O84 O 0.13808 0.93735 1.01506 0.0
O85 O 0.13986 0.09219 0.02143 0.0
O86 O 0.83375 0.93981 0.02578 0.0
O87 O 0.83541 0.09479 0.02586 0.0
O88 O 0.90922 1.01877 0.17576 0.0
O89 O 0.07284 1.01174 0.17098 0.0
O90 O 0.89926 1.02303 0.87512 0.0
O91 O 0.06338 1.02791 0.87106 0.0
O92 O 0.90325 0.87288 0.02481 0.0
O93 O 0.06735 0.87155 1.01659 0.0
O94 O 0.90617 0.16036 0.02133 0.0
O95 O 0.07045 0.15907 0.02503 0.0
O96 O -0.00827 0.09208 0.17453 0.0
O97 O -0.01068 0.93623 0.17206 0.0
O98 O 0.98078 0.09535 0.87356 0.0
O99 O -0.0171 0.93992 0.87085 0.0
O100 O 0.13598 1.02438 0.93808 0.0
O101 O 0.14095 1.01279 0.09985 0.0
O102 O 0.83252 1.02464 0.94753 0.0
O103 O 0.83765 1.02081 0.10798 0.0
C104 C 0.04007 0.33178 0.41723 0.0
C105 C -0.00243 0.36934 0.42332 0.0
C106 C 0.04094 0.29753 0.37175 0.0
C107 C -0.00255 0.29998 0.33206 0.0
C108 C 0.95509 0.33873 0.33743 0.0
C109 C 0.95601 0.37332 0.38275 0.0
C110 C 0.08755 0.25769 0.36705 0.0
C111 C 0.90746 0.34211 0.29667 0.0
C112 C 0.01749 0.23217 0.19318 0.0
C113 C -0.00792 0.18313 0.20237 0.0
C114 C 0.01969 0.27057 0.23494 0.0
C115 C -0.00525 0.26017 0.28675 0.0
C116 C 0.96805 0.21106 0.29579 0.0
C117 C 0.96767 0.17295 0.25378 0.0
C118 C 0.04964 0.32184 0.22396 0.0
C119 C 0.93984 0.1987 0.3499 0.0
H120 H 0.07224 0.32875 0.44864 0.0
H121 H 0.92279 0.40196 0.38783 0.0
H122 H 0.07043 0.21737 0.37209 0.0
H123 H 0.10686 0.25977 0.32556 0.0
H124 H 0.12065 0.26386 0.39859 0.0
H125 H 0.87932 0.37595 0.30515 0.0
H126 H 0.92384 0.34591 0.25413 0.0
H127 H 0.88248 0.30529 0.29826 0.0
H128 H 0.03681 0.24012 0.15366 0.0
H129 H 0.94744 0.13535 0.26094 0.0
H130 H 0.08552 0.32592 0.25272 0.0
H131 H 0.02123 0.35557 0.23157 0.0
H132 H 0.06547 0.32447 0.18104 0.0
H133 H 0.97119 0.19868 0.38366 0.0
H134 H 0.91849 0.15983 0.34937 0.0
H135 H 0.90853 0.22955 0.35967 0.0
C136 C 0.62708 0.11255 0.37941 0.0
C137 C 0.59135 0.07012 0.39005 0.0
C138 C 0.67529 0.10552 0.34745 0.0
C139 C 0.68771 0.05485 0.32636 0.0
C140 C 0.65352 1.01136 0.34009 0.0
C141 C 0.60554 1.01961 0.37167 0.0
C142 C 0.71088 0.15275 0.33341 0.0
C143 C 0.66572 0.95667 0.31876 0.0
C144 C 0.75856 0.04382 0.18811 0.0
C145 C 0.81329 1.02985 0.2031 0.0
C146 C 0.7178 0.05321 0.22805 0.0
C147 C 0.73193 0.04822 0.28443 0.0
C148 C 0.78705 0.03457 0.3001 0.0
C149 C 0.82724 1.02563 0.25915 0.0
C150 C 0.65938 0.068 0.20977 0.0
C151 C 0.80328 1.02883 0.35997 0.0
H152 H 0.6159 0.15156 0.39384 0.0
H153 H 0.57814 0.98672 0.38086 0.0
H154 H 0.75584 0.14375 0.33967 0.0
H155 H 0.70511 0.16286 0.28926 0.0
H156 H 0.69976 0.18774 0.35858 0.0
H157 H 0.6388 0.92635 0.33836 0.0
H158 H 0.65853 0.95552 0.27357 0.0
H159 H 0.71015 0.94622 0.32614 0.0
H160 H 0.7474 0.04793 0.14502 0.0
H161 H 0.86948 1.01508 0.27114 0.0
H162 H 0.64654 0.10556 0.22936 0.0
H163 H 0.62931 0.03728 0.22315 0.0
H164 H 0.65601 0.07251 0.16434 0.0
H165 H 0.79335 0.06551 0.38275 0.0
H166 H 0.84848 1.02001 0.3653 0.0
H167 H 0.77868 0.99663 0.37911 0.0
C168 C 0.93486 0.69751 0.41098 0.0
C169 C 0.97688 0.65978 0.41879 0.0
C170 C 0.93521 0.73092 0.36484 0.0
C171 C 0.97943 0.72734 0.32625 0.0
C172 C 0.0211 0.68815 0.33316 0.0
C173 C 0.01901 0.65446 0.37917 0.0
C174 C 0.88932 0.77132 0.35847 0.0
C175 C 0.06934 0.6835 0.29345 0.0
C176 C 0.96229 0.79589 0.1874 0.0
C177 C -0.01207 0.84468 0.19746 0.0
C178 C 0.95956 0.75707 0.22869 0.0
C179 C -0.01607 0.76691 0.28095 0.0
C180 C 0.01117 0.81561 0.29076 0.0
C181 C 0.01231 0.85405 0.24915 0.0
C182 C 0.92915 0.70619 0.21687 0.0
C183 C 0.03872 0.82737 0.34547 0.0
H184 H 0.90225 0.70151 0.44169 0.0
H185 H 0.05181 0.62561 0.38561 0.0
H186 H 0.90693 0.81144 0.3637 0.0
H187 H 0.87102 0.76922 0.31646 0.0
H188 H 0.85536 0.76579 0.3891 0.0
H189 H 0.09633 0.64898 0.30264 0.0
H190 H 0.05364 0.68007 0.25055 0.0
H191 H 0.09532 0.71967 0.29555 0.0
H192 H 0.94296 0.78856 0.14768 0.0
H193 H 0.03272 0.89145 0.25701 0.0
H194 H 0.89102 0.7039 0.24274 0.0
H195 H 0.95577 0.67194 0.22772 0.0
H196 H 0.91659 0.7028 0.17292 0.0
H197 H 0.00671 0.82824 0.37848 0.0
H198 H 0.06111 0.86572 0.34532 0.0
H199 H 0.06897 0.7958 0.35607 0.0
C200 C 0.38325 0.99918 0.36229 0.0
C201 C 0.38554 0.0473 0.39044 0.0
C202 C 0.33809 0.98727 0.32761 0.0
C203 C 0.29491 1.02477 0.32063 0.0
C204 C 0.29547 0.07206 0.35149 0.0
C205 C 0.34081 0.08265 0.38636 0.0
C206 C 0.33823 0.936 0.29613 0.0
C207 C 0.25021 0.11309 0.34487 0.0
C208 C 0.22236 0.03252 0.18236 0.0
C209 C 0.16985 1.01115 0.19457 0.0
C210 C 0.26378 0.03628 0.22297 0.0
C211 C 0.25256 1.01744 0.27676 0.0
C212 C 0.20037 0.994 0.28884 0.0
C213 C 0.15934 0.99152 0.24761 0.0
C214 C 0.31891 0.06197 0.20874 0.0
C215 C 0.18744 0.97267 0.3455 0.0
H216 H 0.41766 0.9716 0.36612 0.0
H217 H 0.34284 0.11999 0.40796 0.0
H218 H 0.29673 0.91663 0.29868 0.0
H219 H 0.34669 0.94392 0.25195 0.0
H220 H 0.37056 0.9083 0.31174 0.0
H221 H 0.25415 0.14538 0.37552 0.0
H222 H 0.25255 0.13043 0.30293 0.0
H223 H 0.20828 0.09488 0.34915 0.0
H224 H 0.23052 0.04799 0.1415 0.0
H225 H 0.11893 0.97438 0.25699 0.0
H226 H 0.35396 0.03473 0.21797 0.0
H227 H 0.32501 0.09769 0.23439 0.0
H228 H 0.32131 0.07354 0.16464 0.0
H229 H 0.22107 0.94555 0.35928 0.0
H230 H 0.1469 0.9513 0.34666 0.0
H231 H 0.18575 1.00554 0.37554 0.0
C232 C 0.94956 0.65892 0.66178 0.0
C233 C -0.00766 0.66236 0.62261 0.0
C234 C 0.94793 0.69348 0.70708 0.0
C235 C -0.00925 0.73161 0.71384 0.0
C236 C 0.03542 0.73345 0.6756 0.0
C237 C 0.03526 0.69927 0.63006 0.0
C238 C 0.89918 0.69069 0.74639 0.0
C239 C 0.08257 0.77254 0.68188 0.0
C240 C 0.96115 0.8591 0.79115 0.0
C241 C -0.01585 0.84865 0.84324 0.0
C242 C 0.96192 0.82093 0.7492 0.0
C243 C -0.01257 0.77141 0.75907 0.0
C244 C 0.01074 0.76063 0.81161 0.0
C245 C 0.00838 0.79917 0.85317 0.0
C246 C 0.93553 0.83371 0.6942 0.0
C247 C 0.03946 0.70891 0.82354 0.0
H248 H 0.91607 0.63073 0.65559 0.0
H249 H 0.06831 0.70187 0.59965 0.0
H250 H 0.9144 0.68632 0.78936 0.0
H251 H 0.87501 0.72795 0.74435 0.0
H252 H 0.87061 0.6574 0.73683 0.0
H253 H 0.11641 0.76595 0.65136 0.0
H254 H 0.06631 0.81314 0.67648 0.0
H255 H 0.10068 0.77001 0.72394 0.0
H256 H 0.9419 0.89704 0.7833 0.0
H257 H 0.02675 0.79095 0.89314 0.0
H258 H 0.90391 0.80338 0.68346 0.0
H259 H 0.96782 0.83314 0.66146 0.0
H260 H 0.91497 0.87294 0.69401 0.0
H261 H 0.01218 0.67539 0.81183 0.0
H262 H 0.05097 0.7048 0.86771 0.0
H263 H 0.07808 0.70597 0.79845 0.0
C264 C 0.3602 0.16504 0.71506 0.0
C265 C 0.37159 0.1359 0.66737 0.0
C266 C 0.31351 0.1532 0.7477 0.0
C267 C 0.27833 0.11072 0.73251 0.0
C268 C 0.28743 0.08377 0.68235 0.0
C269 C 0.33385 0.0969 0.65021 0.0
C270 C 0.30409 0.1837 0.80027 0.0
C271 C 0.25108 0.038 0.66499 0.0
C272 C 0.21312 0.03216 0.84838 0.0
C273 C 0.15726 0.04816 0.84521 0.0
C274 C 0.25289 0.0522 0.81163 0.0
C275 C 0.23647 0.09016 0.77191 0.0
C276 C 0.1802 0.107 0.76907 0.0
C277 C 0.14102 0.08511 0.80529 0.0
C278 C 0.3125 0.03278 0.81535 0.0
C279 C 0.16144 0.14838 0.72828 0.0
H280 H 0.38924 0.19539 0.72814 0.0
H281 H 0.34292 0.07375 0.61376 0.0
H282 H 0.25926 0.19407 0.80488 0.0
H283 H 0.31587 0.15887 0.83609 0.0
H284 H 0.32937 0.22039 0.8017 0.0
H285 H 0.26023 1.02483 0.62229 0.0
H286 H 0.25818 1.00435 0.69337 0.0
H287 H 0.20621 0.04866 0.66761 0.0
H288 H 0.22566 1.00387 0.87954 0.0
H289 H 0.09799 0.09842 0.80368 0.0
H290 H 0.34095 0.06615 0.8246 0.0
H291 H 0.32558 1.01593 0.7752 0.0
H292 H 0.31801 1.00226 0.84774 0.0
H293 H 0.19003 0.1828 0.72933 0.0
H294 H 0.11824 0.16225 0.73663 0.0
H295 H 0.16275 0.13196 0.68596 0.0
C296 C 0.02872 0.36556 0.65819 0.0
C297 C 0.98018 0.37294 0.62682 0.0
C298 C 0.0288 0.33173 0.70407 0.0
C299 C 0.97896 0.30508 0.71897 0.0
C300 C 0.92925 0.31421 0.68847 0.0
C301 C 0.93061 0.34775 0.64237 0.0
C302 C 0.08282 0.32256 0.73495 0.0
C303 C 0.8752 0.2869 0.70316 0.0
C304 C -0.00753 0.17316 0.79186 0.0
C305 C -0.01753 0.18663 0.84709 0.0
C306 C -0.00828 0.21136 0.75005 0.0
C307 C 0.97997 0.26448 0.76344 0.0
C308 C 0.96941 0.27843 0.81898 0.0
C309 C 0.97111 0.23943 0.86019 0.0
C310 C 0.00363 0.19478 0.69144 0.0
C311 C 0.95605 0.33451 0.8348 0.0
H312 H 0.06712 0.38471 0.64548 0.0
H313 H 0.89329 0.35331 0.61757 0.0
H314 H 0.07655 0.32882 0.77976 0.0
H315 H 0.09641 0.28112 0.72932 0.0
H316 H 0.11687 0.34895 0.7206 0.0
H317 H 0.83927 0.30195 0.6787 0.0
H318 H 0.87928 0.24399 0.69556 0.0
H319 H 0.86592 0.29214 0.7476 0.0
H320 H 0.00138 0.13261 0.7811 0.0
H321 H 0.96282 0.25027 0.90259 0.0
H322 H 0.03975 0.21728 0.67508 0.0
H323 H 0.9671 0.20382 0.66481 0.0
H324 H 0.01305 0.15206 0.68805 0.0
H325 H -0.00877 0.36073 0.82318 0.0
H326 H 0.94811 0.33884 0.87967 0.0
H327 H 0.91858 0.34825 0.8119 0.0
C328 C 0.62457 0.1382 0.67839 0.0
C329 C 0.57523 0.10892 0.68261 0.0
C330 C 0.67141 0.12518 0.71046 0.0
C331 C 0.66871 0.08115 0.7462 0.0
C332 C 0.61918 0.05079 0.74943 0.0
C333 C 0.57271 0.06544 0.7179 0.0
C334 C 0.72319 0.15908 0.70704 0.0
C335 C 0.61511 1.0032 0.78661 0.0
C336 C 0.80255 1.02094 0.80189 0.0
C337 C 0.80261 0.04053 0.85577 0.0
C338 C 0.75922 0.03409 0.76527 0.0
C339 C 0.71626 0.06855 0.78294 0.0
C340 C 0.71724 0.08951 0.83688 0.0
C341 C 0.76018 0.07485 0.8728 0.0
C342 C 0.75871 1.01033 0.70826 0.0
C343 C 0.6729 0.12731 0.85683 0.0
H344 H 0.62609 0.17166 0.65064 0.0
H345 H 0.5345 0.04252 0.72018 0.0
H346 H 0.73172 0.17723 0.7478 0.0
H347 H 0.76003 0.13462 0.69641 0.0
H348 H 0.71899 0.19096 0.67592 0.0
H349 H 0.57483 0.98191 0.78151 0.0
H350 H 0.64989 0.97552 0.77791 0.0
H351 H 0.61912 1.01554 0.83029 0.0
H352 H 0.83562 0.99455 0.78885 0.0
H353 H 0.76102 0.09102 0.91417 0.0
H354 H 0.75764 0.04191 0.67667 0.0
H355 H 0.72037 0.98627 0.70269 0.0
H356 H 0.79577 0.985 0.70064 0.0
H357 H 0.67161 0.1625 0.82973 0.0
H358 H 0.68053 0.14038 0.89988 0.0
H359 H 0.63112 0.10843 0.85482 0.0
C360 C 0.34323 0.37666 0.98886 0.0
C361 C 0.3872 0.37071 0.0265 0.0
C362 C 0.2976 0.34191 0.98939 0.0
C363 C 0.29581 0.30109 0.02916 0.0
C364 C 0.33883 0.29679 0.06908 0.0
C365 C 0.3844 0.33141 0.0669 0.0
C366 C 0.25285 0.34724 0.94576 0.0
C367 C 0.33786 0.25433 0.11269 0.0
C368 C 0.15861 0.22997 0.05385 0.0
C369 C 0.16709 0.18302 0.02468 0.0
C370 C 0.20024 0.26882 0.05586 0.0
C371 C 0.25089 0.26083 0.027 0.0
C372 C 0.25924 0.21378 0.99676 0.0
C373 C 0.21739 0.17513 0.99646 0.0
C374 C 0.19037 0.31799 0.08945 0.0
C375 C 0.31225 0.20434 0.96449 0.0
H376 H 0.34596 0.40682 0.95733 0.0
H377 H 0.41859 0.3271 0.09599 0.0
H378 H 0.25375 0.31228 0.91834 0.0
H379 H 0.21085 0.34861 0.96502 0.0
H380 H 0.2585 0.38313 0.92015 0.0
H381 H 0.37185 0.25932 0.14354 0.0
H382 H 0.2971 0.25442 0.13447 0.0
H383 H 0.34261 0.21516 0.09301 0.0
H384 H 0.11982 0.23588 0.07607 0.0
H385 H 0.22362 0.13906 0.97334 0.0
H386 H 0.19414 0.35339 0.0629 0.0
H387 H 0.22273 0.32129 0.12211 0.0
H388 H 0.1485 0.31824 0.10919 0.0
H389 H 0.31735 0.23556 0.93287 0.0
H390 H 0.31229 0.16543 0.94357 0.0
H391 H 0.3491 0.2064 0.99226 0.0
C392 C 0.34128 0.65321 0.03914 0.0
C393 C 0.38278 0.65827 0.99895 0.0
C394 C 0.2952 0.68738 0.03974 0.0
C395 C 0.29035 0.72662 0.99849 0.0
C396 C 0.33055 0.72958 0.95584 0.0
C397 C 0.37683 0.69571 0.95702 0.0
C398 C 0.25367 0.68358 0.08637 0.0
C399 C 0.32612 0.77009 0.91047 0.0
C400 C 0.15196 0.79854 0.98344 0.0
C401 C 0.16356 0.84612 1.01047 0.0
C402 C 0.19296 0.75929 0.97873 0.0
C403 C 0.24624 0.76752 1.00272 0.0
C404 C 0.25785 0.81526 0.0307 0.0
C405 C 0.21652 0.85426 0.03366 0.0
C406 C 0.1796 0.70946 0.94744 0.0
C407 C 0.31386 0.82507 0.05772 0.0
H408 H 0.34652 0.62445 0.07181 0.0
H409 H 0.40922 0.69936 0.92603 0.0
H410 H 0.25679 0.71932 0.11251 0.0
H411 H 0.21036 0.6819 0.07003 0.0
H412 H 0.26102 0.64843 0.11269 0.0
H413 H 0.35691 0.76304 0.87705 0.0
H414 H 0.28345 0.76996 0.89242 0.0
H415 H 0.3336 0.80994 0.9277 0.0
H416 H 0.11115 0.79243 0.96497 0.0
H417 H 0.22537 0.89086 0.05499 0.0
H418 H 0.18655 0.67454 0.97408 0.0
H419 H 0.20809 0.7057 0.91162 0.0
H420 H 0.13576 0.70873 0.93227 0.0
H421 H 0.32316 0.79328 0.08778 0.0
H422 H 0.31541 0.86351 0.07955 0.0
H423 H 0.34742 0.82446 0.02625 0.0
C424 C 0.63378 0.38047 0.03618 0.0
C425 C 0.59158 0.37393 0.99675 0.0
C426 C 0.67959 0.34602 0.03799 0.0
C427 C 0.68342 0.30487 0.99877 0.0
C428 C 0.6427 0.30053 0.95656 0.0
C429 C 0.59677 0.33477 0.95652 0.0
C430 C 0.72188 0.35158 0.08391 0.0
C431 C 0.64549 0.25782 0.91343 0.0
C432 C 0.82121 0.23173 0.98689 0.0
C433 C 0.80996 0.1858 1.01704 0.0
C434 C 0.78019 0.27063 0.97992 0.0
C435 C 0.72722 0.26384 1.00477 0.0
C436 C 0.71579 0.21763 0.03553 0.0
C437 C 0.75717 0.17885 0.04078 0.0
C438 C 0.79319 0.31849 0.94527 0.0
C439 C 0.6599 0.20919 0.06304 0.0
H440 H 0.62921 0.41055 0.06756 0.0
H441 H 0.56389 0.32989 0.92608 0.0
H442 H 0.719 0.31701 0.11178 0.0
H443 H 0.76492 0.35233 0.06699 0.0
H444 H 0.71517 0.38786 0.1086 0.0
H445 H 0.6196 0.2676 0.87675 0.0
H446 H 0.68913 0.2508 0.89986 0.0
H447 H 0.6293 0.22062 0.9313 0.0
H448 H 0.86175 0.23674 0.96763 0.0
H449 H 0.74846 0.14337 0.06415 0.0
H450 H 0.78854 0.35477 0.9703 0.0
H451 H 0.76295 0.32126 0.91062 0.0
H452 H 0.83621 0.31741 0.9281 0.0
H453 H 0.65043 0.24269 0.09085 0.0
H454 H 0.65861 0.17214 0.0874 0.0
H455 H 0.62635 0.2077 0.03143 0.0
C456 C 0.63016 0.65608 0.99179 0.0
C457 C 0.58713 0.66051 0.03047 0.0
C458 C 0.67584 0.69073 0.99293 0.0
C459 C 0.67874 0.72986 0.03444 0.0
C460 C 0.63684 0.73236 0.0755 0.0
C461 C 0.59105 0.698 0.07259 0.0
C462 C 0.71924 0.6874 0.94796 0.0
C463 C 0.63918 0.77271 0.12114 0.0
C464 C 0.81672 0.80105 0.05563 0.0
C465 C 0.80662 0.84882 0.02834 0.0
C466 C 0.77526 0.76207 0.05858 0.0
C467 C 0.72311 0.77071 0.03244 0.0
C468 C 0.71297 0.8187 1.00433 0.0
C469 C 0.75467 0.85749 1.00322 0.0
C470 C 0.787 0.71198 0.09012 0.0
C471 C 0.65821 0.82894 0.97507 0.0
H472 H 0.62656 0.62729 0.95897 0.0
H473 H 0.55757 0.70113 0.10248 0.0
H474 H 0.71738 0.7235 0.92219 0.0
H475 H 0.76182 0.68536 0.96602 0.0
H476 H 0.71288 0.65262 0.9209 0.0
H477 H 0.60681 0.76562 0.15307 0.0
H478 H 0.68095 0.77238 0.14116 0.0
H479 H 0.6327 0.81265 0.10372 0.0
H480 H 0.85673 0.79455 0.0756 0.0
H481 H 0.74701 0.89427 0.98176 0.0
H482 H 0.78283 0.67744 0.06247 0.0
H483 H 0.75585 0.70715 0.12358 0.0
H484 H 0.82955 0.71168 0.10859 0.0
H485 H 0.65017 0.79749 0.94431 0.0
H486 H 0.65773 0.86761 0.95361 0.0
H487 H 0.6233 0.82806 1.00507 0.0
loop_
_geom_bond_atom_site_label_1
_geom_bond_atom_site_label_2
_geom_bond_distance
_geom_bond_site_symmetry_2
_ccdc_geom_bond_type
H0 C6 0.929 1_655 S
H1 C9 0.931 . S
H2 C11 0.930 1_655 S
H3 C13 0.930 . S
H4 C15 0.930 . S
H5 C17 0.929 1_655 S
C6 H0 0.929 1_455 S
C6 C7 1.380 1_455 S
C6 C8 1.394 . S
C7 C6 1.380 1_655 S
C7 C11 1.382 1_655 S
C8 C6 1.394 . S
C8 C9 1.400 . S
C9 H1 0.931 . S
C9 C8 1.400 . S
C9 C10 1.375 . S
C10 C9 1.375 . S
C10 C11 1.417 . S
C10 C12 1.501 . S
C11 H2 0.930 1_455 S
C11 C7 1.382 1_455 S
C11 C10 1.417 . S
C12 C10 1.501 . S
C12 C13 1.384 . S
C12 C17 1.410 . S
C13 H3 0.930 . S
C13 C12 1.384 . S
C13 C14 1.389 . S
C14 C13 1.389 . S
C14 C15 1.405 . S
C15 H4 0.930 . S
C15 C14 1.405 . S
C15 C16 1.365 . S
C16 C15 1.365 . S
C16 C17 1.400 . S
C17 H5 0.929 1_455 S
C17 C12 1.410 . S
C17 C16 1.400 . S
H18 C24 0.930 . S
H19 C27 0.931 . S
H20 C29 0.931 . S
H21 C31 0.930 . S
H22 C33 0.930 . S
H23 C35 0.931 . S
C24 H18 0.930 . S
C24 C25 1.380 . S
C24 C26 1.394 1_545 S
C25 C24 1.380 . S
C25 C29 1.382 . S
C26 C24 1.394 1_565 S
C26 C27 1.400 . S
C27 H19 0.931 . S
C27 C26 1.400 . S
C27 C28 1.375 . S
C28 C27 1.375 . S
C28 C29 1.415 1_565 S
C28 C30 1.501 . S
C29 H20 0.931 . S
C29 C25 1.382 . S
C29 C28 1.415 1_545 S
C30 C28 1.501 . S
C30 C31 1.384 . S
C30 C35 1.408 1_565 S
C31 H21 0.930 . S
C31 C30 1.384 . S
C31 C32 1.389 . S
C32 C31 1.389 . S
C32 C33 1.405 . S
C33 H22 0.930 . S
C33 C32 1.405 . S
C33 C34 1.364 1_565 S
C34 C33 1.364 1_545 S
C34 C35 1.400 . S
C35 H23 0.931 . S
C35 C30 1.408 1_545 S
C35 C34 1.400 . S
H36 C42 0.930 . S
H37 C45 0.931 . S
H38 C47 0.931 1_556 S
H39 C49 0.930 . S
H40 C51 0.930 . S
H41 C53 0.931 1_556 S
C42 H36 0.930 . S
C42 C43 1.380 1_554 S
C42 C44 1.394 . S
C43 C42 1.380 1_556 S
C43 C47 1.382 1_556 S
C44 C42 1.394 . S
C44 C45 1.400 . S
C45 H37 0.931 . S
C45 C44 1.400 . S
C45 C46 1.375 . S
C46 C45 1.375 . S
C46 C47 1.415 . S
C46 C48 1.501 . S
C47 H38 0.931 1_554 S
C47 C43 1.382 1_554 S
C47 C46 1.415 . S
C48 C46 1.501 . S
C48 C49 1.384 . S
C48 C53 1.408 . S
C49 H39 0.930 . S
C49 C48 1.384 . S
C49 C50 1.389 . S
C50 C49 1.389 . S
C50 C51 1.405 . S
C51 H40 0.930 . S
C51 C50 1.405 . S
C51 C52 1.364 . S
C52 C51 1.364 . S
C52 C53 1.400 . S
C53 H41 0.931 1_554 S
C53 C48 1.408 . S
C53 C52 1.400 . S
C54 O80 1.283 . S
C54 O98 1.283 . S
C55 O81 1.283 . S
C55 O96 1.283 . S
C56 O82 1.283 . S
C56 O99 1.283 . S
C57 O83 1.283 . S
C57 O97 1.283 . S
C58 O84 1.283 . S
C58 O93 1.283 . S
C59 O85 1.283 . S
C59 O95 1.283 . S
C60 O86 1.283 . S
C60 O92 1.283 . S
C61 O87 1.283 . S
C61 O94 1.283 . S
C62 O88 1.283 . S
C62 O103 1.283 . S
C63 O89 1.283 . S
C63 O101 1.283 . S
C64 O90 1.283 . S
C64 O102 1.283 . S
C65 O91 1.283 . S
C65 O100 1.283 . S
Eu66 O67 2.370 . S
Eu66 O68 2.370 1_454 S
Eu66 O71 2.370 1_554 S
Eu66 O72 2.370 1_455 S
Eu66 O80 2.363 1_554 S
Eu66 O81 2.363 . S
Eu66 O94 2.363 1_455 S
Eu66 O95 2.363 . S
O67 Eu66 2.370 . S
O67 Eu69 2.370 . S
O67 Eu74 2.371 . S
O68 Eu66 2.370 1_656 S
O68 Eu70 2.371 1_556 S
O68 Eu73 2.370 1_655 S
Eu69 O67 2.370 . S
Eu69 O71 2.370 1_554 S
Eu69 O75 2.371 1_544 S
Eu69 O76 2.371 1_545 S
Eu69 O84 2.364 1_545 S
Eu69 O85 2.362 . S
Eu69 O100 2.363 1_554 S
Eu69 O101 2.363 . S
Eu70 O68 2.371 1_554 S
Eu70 O72 2.371 . S
Eu70 O77 2.370 1_545 S
Eu70 O78 2.370 1_544 S
Eu70 O86 2.362 1_545 S
Eu70 O87 2.364 . S
Eu70 O102 2.363 1_554 S
Eu70 O103 2.363 . S
O71 Eu66 2.370 1_556 S
O71 Eu69 2.370 1_556 S
O71 Eu73 2.370 . S
O72 Eu66 2.370 1_655 S
O72 Eu70 2.371 . S
O72 Eu74 2.371 1_655 S
Eu73 O68 2.370 1_455 S
Eu73 O71 2.370 . S
Eu73 O75 2.371 1_545 S
Eu73 O78 2.371 1_445 S
Eu73 O90 2.363 1_455 S
Eu73 O91 2.363 . S
Eu73 O98 2.362 . S
Eu73 O99 2.364 1_545 S
Eu74 O67 2.371 . S
Eu74 O72 2.371 1_455 S
Eu74 O76 2.370 1_545 S
Eu74 O77 2.370 1_445 S
Eu74 O88 2.363 1_455 S
Eu74 O89 2.363 . S
Eu74 O96 2.364 . S
Eu74 O97 2.362 1_545 S
O75 Eu69 2.371 1_566 S
O75 Eu73 2.371 1_565 S
O75 Eu79 2.370 1_556 S
O76 Eu69 2.371 1_565 S
O76 Eu74 2.370 1_565 S
O76 Eu79 2.370 . S
O77 Eu70 2.370 1_565 S
O77 Eu74 2.370 1_665 S
O77 Eu79 2.370 1_655 S
O78 Eu70 2.370 1_566 S
O78 Eu73 2.371 1_665 S
O78 Eu79 2.370 1_656 S
Eu79 O75 2.370 1_554 S
Eu79 O76 2.370 . S
Eu79 O77 2.370 1_455 S
Eu79 O78 2.370 1_454 S
Eu79 O82 2.363 1_554 S
Eu79 O83 2.363 . S
Eu79 O92 2.363 1_455 S
Eu79 O93 2.363 . S
O80 C54 1.283 . S
O80 Eu66 2.363 1_556 S
O81 C55 1.283 . S
O81 Eu66 2.363 . S
O82 C56 1.283 . S
O82 Eu79 2.363 1_556 S
O83 C57 1.283 . S
O83 Eu79 2.363 . S
O84 C58 1.283 . S
O84 Eu69 2.364 1_565 S
O85 C59 1.283 . S
O85 Eu69 2.362 . S
O86 C60 1.283 . S
O86 Eu70 2.362 1_565 S
O87 C61 1.283 . S
O87 Eu70 2.364 . S
O88 C62 1.283 . S
O88 Eu74 2.363 1_655 S
O89 C63 1.283 . S
O89 Eu74 2.363 . S
O90 C64 1.283 . S
O90 Eu73 2.363 1_655 S
O91 C65 1.283 . S
O91 Eu73 2.363 . S
O92 C60 1.283 . S
O92 Eu79 2.363 1_655 S
O93 C58 1.283 . S
O93 Eu79 2.363 . S
O94 C61 1.283 . S
O94 Eu66 2.363 1_655 S
O95 C59 1.283 . S
O95 Eu66 2.363 . S
O96 C55 1.283 . S
O96 Eu74 2.364 . S
O97 C57 1.283 . S
O97 Eu74 2.362 1_565 S
O98 C54 1.283 . S
O98 Eu73 2.362 . S
O99 C56 1.283 . S
O99 Eu73 2.364 1_565 S
O100 C65 1.283 . S
O100 Eu69 2.363 1_556 S
O101 C63 1.283 . S
O101 Eu69 2.363 . S
O102 C64 1.283 . S
O102 Eu70 2.363 1_556 S
O103 C62 1.283 . S
O103 Eu70 2.363 . S
C104 C105 1.391 1_455 S
C104 C106 1.394 . S
C104 H120 0.931 . S
C105 C104 1.391 1_655 S
C105 C109 1.376 . S
C106 C104 1.394 . S
C106 C107 1.369 1_455 S
C106 C110 1.531 . S
C107 C106 1.369 1_655 S
C107 C108 1.410 . S
C107 C115 1.503 . S
C108 C107 1.410 . S
C108 C109 1.392 . S
C108 C111 1.511 . S
C109 C105 1.376 . S
C109 C108 1.392 . S
C109 H121 0.929 . S
C110 C106 1.531 . S
C110 H122 0.960 . S
C110 H123 0.962 . S
C110 H124 0.960 . S
C111 C108 1.511 . S
C111 H125 0.961 . S
C111 H126 0.961 . S
C111 H127 0.961 . S
C112 C113 1.380 . S
C112 C114 1.363 . S
C112 H128 0.931 . S
C113 C112 1.380 . S
C113 C117 1.398 1_455 S
C114 C112 1.363 . S
C114 C115 1.370 1_455 S
C114 C118 1.524 . S
C115 C107 1.503 . S
C115 C114 1.370 1_655 S
C115 C116 1.403 . S
C116 C115 1.403 . S
C116 C117 1.404 . S
C116 C119 1.539 . S
C117 C113 1.398 1_655 S
C117 C116 1.404 . S
C117 H129 0.930 . S
C118 C114 1.524 . S
C118 H130 0.956 . S
C118 H131 0.961 . S
C118 H132 0.961 . S
C119 C116 1.539 . S
C119 H133 0.958 . S
C119 H134 0.961 . S
C119 H135 0.960 . S
H120 C104 0.931 . S
H121 C109 0.929 . S
H122 C110 0.960 . S
H123 C110 0.962 . S
H124 C110 0.960 . S
H125 C111 0.961 . S
H126 C111 0.961 . S
H127 C111 0.961 . S
H128 C112 0.931 . S
H129 C117 0.930 . S
H130 C118 0.956 . S
H131 C118 0.961 . S
H132 C118 0.961 . S
H133 C119 0.958 . S
H134 C119 0.961 . S
H135 C119 0.960 . S
C136 C137 1.391 . S
C136 C138 1.394 . S
C136 H152 0.931 . S
C137 C136 1.391 . S
C137 C141 1.376 1_545 S
C138 C136 1.394 . S
C138 C139 1.369 1_545 S
C138 C142 1.531 . S
C139 C138 1.369 1_565 S
C139 C140 1.410 . S
C139 C147 1.503 . S
C140 C139 1.410 . S
C140 C141 1.392 . S
C140 C143 1.511 . S
C141 C137 1.376 1_565 S
C141 C140 1.392 . S
C141 H153 0.929 . S
C142 C138 1.531 . S
C142 H154 0.960 . S
C142 H155 0.962 . S
C142 H156 0.960 . S
C143 C140 1.511 . S
C143 H157 0.961 . S
C143 H158 0.961 . S
C143 H159 0.961 . S
C144 C145 1.356 1_545 S
C144 C146 1.363 . S
C144 H160 0.931 . S
C145 C144 1.356 1_565 S
C145 C149 1.423 . S
C146 C144 1.363 . S
C146 C147 1.370 1_545 S
C146 C150 1.524 . S
C147 C139 1.503 . S
C147 C146 1.370 1_565 S
C147 C148 1.403 . S
C148 C147 1.403 . S
C148 C149 1.404 . S
C148 C151 1.539 . S
C149 C145 1.423 . S
C149 C148 1.404 . S
C149 H161 0.930 . S
C150 C146 1.524 . S
C150 H162 0.956 . S
C150 H163 0.961 . S
C150 H164 0.961 . S
C151 C148 1.539 . S
C151 H165 0.958 . S
C151 H166 0.961 . S
C151 H167 0.960 . S
H152 C136 0.931 . S
H153 C141 0.929 . S
H154 C142 0.960 . S
H155 C142 0.962 . S
H156 C142 0.960 . S
H157 C143 0.961 . S
H158 C143 0.961 . S
H159 C143 0.961 . S
H160 C144 0.931 . S
H161 C149 0.930 . S
H162 C150 0.956 . S
H163 C150 0.961 . S
H164 C150 0.961 . S
H165 C151 0.958 . S
H166 C151 0.961 . S
H167 C151 0.960 . S
C168 C169 1.391 1_655 S
C168 C170 1.394 . S
C168 H184 0.931 . S
C169 C168 1.391 1_455 S
C169 C173 1.376 . S
C170 C168 1.394 . S
C170 C171 1.369 1_655 S
C170 C174 1.531 . S
C171 C170 1.369 1_455 S
C171 C172 1.410 . S
C171 C179 1.503 . S
C172 C171 1.410 . S
C172 C173 1.392 . S
C172 C175 1.511 . S
C173 C169 1.376 . S
C173 C172 1.392 . S
C173 H185 0.929 . S
C174 C170 1.531 . S
C174 H186 0.960 . S
C174 H187 0.962 . S
C174 H188 0.960 . S
C175 C172 1.511 . S
C175 H189 0.961 . S
C175 H190 0.961 . S
C175 H191 0.961 . S
C176 C177 1.370 1_655 S
C176 C178 1.363 . S
C176 H192 0.931 . S
C177 C176 1.370 1_455 S
C177 C181 1.408 . S
C178 C176 1.363 . S
C178 C179 1.370 1_655 S
C178 C182 1.524 . S
C179 C171 1.503 . S
C179 C178 1.370 1_455 S
C179 C180 1.403 . S
C180 C179 1.403 . S
C180 C181 1.404 . S
C180 C183 1.539 . S
C181 C177 1.408 . S
C181 C180 1.404 . S
C181 H193 0.930 . S
C182 C178 1.524 . S
C182 H194 0.956 . S
C182 H195 0.961 . S
C182 H196 0.961 . S
C183 C180 1.539 . S
C183 H197 0.958 . S
C183 H198 0.961 . S
C183 H199 0.960 . S
H184 C168 0.931 . S
H185 C173 0.929 . S
H186 C174 0.960 . S
H187 C174 0.962 . S
H188 C174 0.960 . S
H189 C175 0.961 . S
H190 C175 0.961 . S
H191 C175 0.961 . S
H192 C176 0.931 . S
H193 C181 0.930 . S
H194 C182 0.956 . S
H195 C182 0.961 . S
H196 C182 0.961 . S
H197 C183 0.958 . S
H198 C183 0.961 . S
H199 C183 0.960 . S
C200 C201 1.391 . S
C200 C202 1.394 . S
C200 H216 0.931 . S
C201 C200 1.391 . S
C201 C205 1.376 1_565 S
C202 C200 1.394 . S
C202 C203 1.369 . S
C202 C206 1.531 . S
C203 C202 1.369 . S
C203 C204 1.410 1_565 S
C203 C211 1.503 . S
C204 C203 1.410 1_545 S
C204 C205 1.392 . S
C204 C207 1.511 . S
C205 C201 1.376 1_545 S
C205 C204 1.392 . S
C205 H217 0.929 . S
C206 C202 1.531 . S
C206 H218 0.960 . S
C206 H219 0.962 . S
C206 H220 0.960 . S
C207 C204 1.511 . S
C207 H221 0.961 . S
C207 H222 0.961 . S
C207 H223 0.961 . S
C208 C209 1.370 . S
C208 C210 1.363 . S
C208 H224 0.931 . S
C209 C208 1.370 . S
C209 C213 1.408 . S
C210 C208 1.363 . S
C210 C211 1.370 . S
C210 C214 1.524 . S
C211 C203 1.503 . S
C211 C210 1.370 . S
C211 C212 1.403 . S
C212 C211 1.403 . S
C212 C213 1.404 . S
C212 C215 1.539 . S
C213 C209 1.408 . S
C213 C212 1.404 . S
C213 H225 0.930 . S
C214 C210 1.524 . S
C214 H226 0.960 . S
C214 H227 0.957 1_565 S
C214 H228 0.960 1_565 S
C215 C212 1.539 . S
C215 H229 0.958 . S
C215 H230 0.961 1_565 S
C215 H231 0.960 1_565 S
H216 C200 0.931 . S
H217 C205 0.929 . S
H218 C206 0.960 . S
H219 C206 0.962 . S
H220 C206 0.960 . S
H221 C207 0.961 . S
H222 C207 0.961 . S
H223 C207 0.961 . S
H224 C208 0.931 . S
H225 C213 0.930 . S
H226 C214 0.960 . S
H227 C214 0.957 1_545 S
H228 C214 0.960 1_545 S
H229 C215 0.958 . S
H230 C215 0.961 1_545 S
H231 C215 0.960 1_545 S
C232 C233 1.391 1_655 S
C232 C234 1.394 . S
C232 H248 0.931 . S
C233 C232 1.391 1_455 S
C233 C237 1.376 . S
C234 C232 1.394 . S
C234 C235 1.369 1_655 S
C234 C238 1.531 . S
C235 C234 1.369 1_455 S
C235 C236 1.410 . S
C235 C243 1.503 . S
C236 C235 1.410 . S
C236 C237 1.392 . S
C236 C239 1.511 . S
C237 C233 1.376 . S
C237 C236 1.392 . S
C237 H249 0.929 . S
C238 C234 1.531 . S
C238 H250 0.960 . S
C238 H251 0.962 . S
C238 H252 0.960 . S
C239 C236 1.511 . S
C239 H253 0.961 . S
C239 H254 0.961 . S
C239 H255 0.961 . S
C240 C241 1.370 1_655 S
C240 C242 1.363 . S
C240 H256 0.931 . S
C241 C240 1.370 1_455 S
C241 C245 1.408 . S
C242 C240 1.363 . S
C242 C243 1.370 1_655 S
C242 C246 1.524 . S
C243 C235 1.503 . S
C243 C242 1.370 1_455 S
C243 C244 1.403 . S
C244 C243 1.403 . S
C244 C245 1.404 . S
C244 C247 1.539 . S
C245 C241 1.408 . S
C245 C244 1.404 . S
C245 H257 0.930 . S
C246 C242 1.524 . S
C246 H258 0.956 . S
C246 H259 0.961 . S
C246 H260 0.961 . S
C247 C244 1.539 . S
C247 H261 0.958 . S
C247 H262 0.961 . S
C247 H263 0.960 . S
H248 C232 0.931 . S
H249 C237 0.929 . S
H250 C238 0.960 . S
H251 C238 0.962 . S
H252 C238 0.960 . S
H253 C239 0.961 . S
H254 C239 0.961 . S
H255 C239 0.961 . S
H256 C240 0.931 . S
H257 C245 0.930 . S
H258 C246 0.956 . S
H259 C246 0.961 . S
H260 C246 0.961 . S
H261 C247 0.958 . S
H262 C247 0.961 . S
H263 C247 0.960 . S
C264 C265 1.391 . S
C264 C266 1.394 . S
C264 H280 0.931 . S
C265 C264 1.391 . S
C265 C269 1.376 1_545 S
C266 C264 1.394 . S
C266 C267 1.369 1_545 S
C266 C270 1.531 . S
C267 C266 1.369 1_565 S
C267 C268 1.410 . S
C267 C275 1.503 . S
C268 C267 1.410 . S
C268 C269 1.392 . S
C268 C271 1.511 . S
C269 C265 1.376 1_565 S
C269 C268 1.392 . S
C269 H281 0.929 . S
C270 C266 1.531 . S
C270 H282 0.960 . S
C270 H283 0.962 . S
C270 H284 0.960 . S
C271 C268 1.511 . S
C271 H285 0.961 . S
C271 H286 0.961 . S
C271 H287 0.961 . S
C272 C273 1.370 1_545 S
C272 C274 1.363 . S
C272 H288 0.931 . S
C273 C272 1.370 1_565 S
C273 C277 1.408 . S
C274 C272 1.363 . S
C274 C275 1.370 1_545 S
C274 C278 1.524 . S
C275 C267 1.503 . S
C275 C274 1.370 1_565 S
C275 C276 1.403 . S
C276 C275 1.403 . S
C276 C277 1.404 . S
C276 C279 1.539 . S
C277 C273 1.408 . S
C277 C276 1.404 . S
C277 H289 0.930 . S
C278 C274 1.524 . S
C278 H290 0.956 . S
C278 H291 0.961 . S
C278 H292 0.961 . S
C279 C276 1.539 . S
C279 H293 0.958 . S
C279 H294 0.961 . S
C279 H295 0.960 . S
H280 C264 0.931 . S
H281 C269 0.929 . S
H282 C270 0.960 . S
H283 C270 0.962 . S
H284 C270 0.960 . S
H285 C271 0.961 . S
H286 C271 0.961 . S
H287 C271 0.961 . S
H288 C272 0.931 . S
H289 C277 0.930 . S
H290 C278 0.956 . S
H291 C278 0.961 . S
H292 C278 0.961 . S
H293 C279 0.958 . S
H294 C279 0.961 . S
H295 C279 0.960 . S
C296 C297 1.391 . S
C296 C298 1.394 . S
C296 H312 0.931 . S
C297 C296 1.391 . S
C297 C301 1.376 1_455 S
C298 C296 1.394 . S
C298 C299 1.369 1_455 S
C298 C302 1.531 . S
C299 C298 1.369 1_655 S
C299 C300 1.410 . S
C299 C307 1.503 . S
C300 C299 1.410 . S
C300 C301 1.392 . S
C300 C303 1.511 . S
C301 C297 1.376 1_655 S
C301 C300 1.392 . S
C301 H313 0.929 . S
C302 C298 1.531 . S
C302 H314 0.960 1_455 S
C302 H315 0.962 . S
C302 H316 0.960 . S
C303 C300 1.511 . S
C303 H317 0.961 . S
C303 H318 0.961 . S
C303 H319 0.961 . S
C304 C305 1.370 . S
C304 C306 1.363 . S
C304 H320 0.931 . S
C305 C304 1.370 . S
C305 C309 1.408 1_455 S
C306 C304 1.363 . S
C306 C307 1.370 1_455 S
C306 C310 1.524 . S
C307 C299 1.503 . S
C307 C306 1.370 1_655 S
C307 C308 1.403 . S
C308 C307 1.403 . S
C308 C309 1.404 . S
C308 C311 1.539 . S
C309 C305 1.408 1_655 S
C309 C308 1.404 . S
C309 H321 0.930 . S
C310 C306 1.524 . S
C310 H322 0.956 . S
C310 H323 0.961 . S
C310 H324 0.961 . S
C311 C308 1.539 . S
C311 H325 0.958 . S
C311 H326 0.961 . S
C311 H327 0.960 . S
H312 C296 0.931 . S
H313 C301 0.929 . S
H314 C302 0.960 1_655 S
H315 C302 0.962 . S
H316 C302 0.960 . S
H317 C303 0.961 . S
H318 C303 0.961 . S
H319 C303 0.961 . S
H320 C304 0.931 . S
H321 C309 0.930 . S
H322 C310 0.956 . S
H323 C310 0.961 . S
H324 C310 0.961 . S
H325 C311 0.958 . S
H326 C311 0.961 . S
H327 C311 0.960 . S
C328 C329 1.391 1_545 S
C328 C330 1.394 . S
C328 H344 0.931 . S
C329 C328 1.391 1_565 S
C329 C333 1.376 . S
C330 C328 1.394 . S
C330 C331 1.369 . S
C330 C334 1.531 . S
C331 C330 1.369 . S
C331 C332 1.410 1_545 S
C331 C339 1.503 . S
C332 C331 1.410 1_565 S
C332 C333 1.392 . S
C332 C335 1.511 . S
C333 C329 1.376 . S
C333 C332 1.392 . S
C333 H345 0.929 . S
C334 C330 1.531 . S
C334 H346 0.960 . S
C334 H347 0.962 . S
C334 H348 0.960 . S
C335 C332 1.511 . S
C335 H349 0.961 . S
C335 H350 0.961 . S
C335 H351 0.961 1_565 S
C336 C337 1.370 1_565 S
C336 C338 1.363 . S
C336 H352 0.931 . S
C337 C336 1.370 1_545 S
C337 C341 1.408 . S
C338 C336 1.363 . S
C338 C339 1.370 1_565 S
C338 C342 1.524 . S
C339 C331 1.503 . S
C339 C338 1.370 1_545 S
C339 C340 1.403 . S
C340 C339 1.403 . S
C340 C341 1.404 . S
C340 C343 1.539 . S
C341 C337 1.408 . S
C341 C340 1.404 . S
C341 H353 0.930 . S
C342 C338 1.524 . S
C342 H354 0.956 . S
C342 H355 0.961 . S
C342 H356 0.961 . S
C343 C340 1.539 . S
C343 H357 0.958 . S
C343 H358 0.961 . S
C343 H359 0.960 . S
H344 C328 0.931 . S
H345 C333 0.929 . S
H346 C334 0.960 . S
H347 C334 0.962 . S
H348 C334 0.960 . S
H349 C335 0.961 . S
H350 C335 0.961 . S
H351 C335 0.961 1_545 S
H352 C336 0.931 . S
H353 C341 0.930 . S
H354 C342 0.956 . S
H355 C342 0.961 . S
H356 C342 0.961 . S
H357 C343 0.958 . S
H358 C343 0.961 . S
H359 C343 0.960 . S
C360 C361 1.391 1_556 S
C360 C362 1.394 . S
C360 H376 0.931 . S
C361 C360 1.391 1_554 S
C361 C365 1.376 . S
C362 C360 1.394 . S
C362 C363 1.368 . S
C362 C366 1.531 . S
C363 C362 1.368 . S
C363 C364 1.410 1_556 S
C363 C371 1.503 1_556 S
C364 C363 1.410 1_554 S
C364 C365 1.392 . S
C364 C367 1.511 . S
C365 C361 1.376 . S
C365 C364 1.392 . S
C365 H377 0.929 . S
C366 C362 1.531 . S
C366 H378 0.960 . S
C366 H379 0.962 . S
C366 H380 0.960 . S
C367 C364 1.511 . S
C367 H381 0.961 . S
C367 H382 0.961 . S
C367 H383 0.961 . S
C368 C369 1.370 . S
C368 C370 1.363 . S
C368 H384 0.931 . S
C369 C368 1.370 . S
C369 C373 1.408 1_554 S
C370 C368 1.363 . S
C370 C371 1.370 . S
C370 C374 1.524 . S
C371 C363 1.503 1_554 S
C371 C370 1.370 . S
C371 C372 1.403 1_554 S
C372 C371 1.403 1_556 S
C372 C373 1.404 . S
C372 C375 1.539 . S
C373 C369 1.408 1_556 S
C373 C372 1.404 . S
C373 H385 0.930 . S
C374 C370 1.524 . S
C374 H386 0.956 . S
C374 H387 0.961 . S
C374 H388 0.961 . S
C375 C372 1.539 . S
C375 H389 0.958 . S
C375 H390 0.961 . S
C375 H391 0.960 . S
H376 C360 0.931 . S
H377 C365 0.929 . S
H378 C366 0.960 . S
H379 C366 0.962 . S
H380 C366 0.960 . S
H381 C367 0.961 . S
H382 C367 0.961 . S
H383 C367 0.961 . S
H384 C368 0.931 . S
H385 C373 0.930 . S
H386 C374 0.956 . S
H387 C374 0.961 . S
H388 C374 0.961 . S
H389 C375 0.958 . S
H390 C375 0.961 . S
H391 C375 0.960 . S
C392 C393 1.391 1_554 S
C392 C394 1.394 . S
C392 H408 0.931 . S
C393 C392 1.391 1_556 S
C393 C397 1.376 . S
C394 C392 1.394 . S
C394 C395 1.375 . S
C394 C398 1.531 . S
C395 C394 1.375 . S
C395 C396 1.403 1_554 S
C395 C403 1.503 . S
C396 C395 1.403 1_556 S
C396 C397 1.392 . S
C396 C399 1.511 . S
C397 C393 1.376 . S
C397 C396 1.392 . S
C397 H409 0.929 . S
C398 C394 1.531 . S
C398 H410 0.960 . S
C398 H411 0.962 . S
C398 H412 0.960 . S
C399 C396 1.511 . S
C399 H413 0.961 . S
C399 H414 0.961 . S
C399 H415 0.961 . S
C400 C401 1.370 . S
C400 C402 1.363 . S
C400 H416 0.931 . S
C401 C400 1.370 . S
C401 C405 1.408 . S
C402 C400 1.363 . S
C402 C403 1.370 . S
C402 C406 1.524 . S
C403 C395 1.503 . S
C403 C402 1.370 . S
C403 C404 1.403 . S
C404 C403 1.403 . S
C404 C405 1.404 . S
C404 C407 1.538 1_554 S
C405 C401 1.408 . S
C405 C404 1.404 . S
C405 H417 0.930 . S
C406 C402 1.524 . S
C406 H418 0.956 . S
C406 H419 0.961 1_554 S
C406 H420 0.961 . S
C407 C404 1.538 1_556 S
C407 H421 0.958 1_556 S
C407 H422 0.961 . S
C407 H423 0.960 . S
H408 C392 0.931 . S
H409 C397 0.929 . S
H410 C398 0.960 . S
H411 C398 0.962 . S
H412 C398 0.960 . S
H413 C399 0.961 . S
H414 C399 0.961 . S
H415 C399 0.961 . S
H416 C400 0.931 . S
H417 C405 0.930 . S
H418 C406 0.956 . S
H419 C406 0.961 1_556 S
H420 C406 0.961 . S
H421 C407 0.958 1_554 S
H422 C407 0.961 . S
H423 C407 0.960 . S
C424 C425 1.391 . S
C424 C426 1.394 . S
C424 H440 0.931 . S
C425 C424 1.391 . S
C425 C429 1.376 1_554 S
C426 C424 1.394 . S
C426 C427 1.369 . S
C426 C430 1.531 . S
C427 C426 1.369 . S
C427 C428 1.410 . S
C427 C435 1.503 . S
C428 C427 1.410 . S
C428 C429 1.392 1_554 S
C428 C431 1.511 . S
C429 C425 1.376 1_556 S
C429 C428 1.392 1_556 S
C429 H441 0.929 . S
C430 C426 1.531 . S
C430 H442 0.960 . S
C430 H443 0.962 1_554 S
C430 H444 0.960 . S
C431 C428 1.511 . S
C431 H445 0.961 1_554 S
C431 H446 0.961 1_554 S
C431 H447 0.961 . S
C432 C433 1.370 1_556 S
C432 C434 1.363 . S
C432 H448 0.931 . S
C433 C432 1.370 1_554 S
C433 C437 1.408 . S
C434 C432 1.363 . S
C434 C435 1.370 1_556 S
C434 C438 1.524 . S
C435 C427 1.503 . S
C435 C434 1.370 1_554 S
C435 C436 1.403 . S
C436 C435 1.403 . S
C436 C437 1.404 . S
C436 C439 1.539 . S
C437 C433 1.408 . S
C437 C436 1.404 . S
C437 H449 0.930 . S
C438 C434 1.524 . S
C438 H450 0.956 . S
C438 H451 0.961 . S
C438 H452 0.961 . S
C439 C436 1.539 . S
C439 H453 0.958 . S
C439 H454 0.961 . S
C439 H455 0.960 . S
H440 C424 0.931 . S
H441 C429 0.929 . S
H442 C430 0.960 . S
H443 C430 0.962 1_556 S
H444 C430 0.960 . S
H445 C431 0.961 1_556 S
H446 C431 0.961 1_556 S
H447 C431 0.961 . S
H448 C432 0.931 . S
H449 C437 0.930 . S
H450 C438 0.956 . S
H451 C438 0.961 . S
H452 C438 0.961 . S
H453 C439 0.958 . S
H454 C439 0.961 . S
H455 C439 0.960 . S
C456 C457 1.391 . S
C456 C458 1.394 . S
C456 H472 0.931 . S
C457 C456 1.391 . S
C457 C461 1.376 . S
C458 C456 1.394 . S
C458 C459 1.369 1_554 S
C458 C462 1.530 1_554 S
C459 C458 1.369 1_556 S
C459 C460 1.410 . S
C459 C467 1.503 . S
C460 C459 1.410 . S
C460 C461 1.392 1_556 S
C460 C463 1.511 . S
C461 C457 1.376 . S
C461 C460 1.392 1_554 S
C461 H473 0.929 . S
C462 C458 1.530 1_556 S
C462 H474 0.969 . S
C462 H475 0.946 1_556 S
C462 H476 0.967 . S
C463 C460 1.511 . S
C463 H477 0.961 1_556 S
C463 H478 0.961 1_556 S
C463 H479 0.961 . S
C464 C465 1.370 . S
C464 C466 1.363 . S
C464 H480 0.931 . S
C465 C464 1.370 . S
C465 C469 1.408 1_554 S
C466 C464 1.363 . S
C466 C467 1.370 1_554 S
C466 C470 1.524 . S
C467 C459 1.503 . S
C467 C466 1.370 1_556 S
C467 C468 1.403 . S
C468 C467 1.403 . S
C468 C469 1.404 . S
C468 C471 1.539 . S
C469 C465 1.408 1_556 S
C469 C468 1.404 . S
C469 H481 0.930 . S
C470 C466 1.524 . S
C470 H482 0.956 . S
C470 H483 0.961 . S
C470 H484 0.961 . S
C471 C468 1.539 . S
C471 H485 0.958 . S
C471 H486 0.961 . S
C471 H487 0.960 . S
H472 C456 0.931 . S
H473 C461 0.929 . S
H474 C462 0.969 . S
H475 C462 0.946 1_554 S
H476 C462 0.967 . S
H477 C463 0.961 1_554 S
H478 C463 0.961 1_554 S
H479 C463 0.961 . S
H480 C464 0.931 . S
H481 C469 0.930 . S
H482 C470 0.956 . S
H483 C470 0.961 . S
H484 C470 0.961 . S
H485 C471 0.958 . S
H486 C471 0.961 . S
H487 C471 0.960 . S
C113 C55 1.904 . S
C105 C7 1.876 . S
C145 C62 1.208 1_565 S
C137 C34 1.195 . S
C177 C57 1.903 . S
C169 C14 1.879 . S
C209 C63 1.210 1_565 S
C201 C32 1.215 . S
C233 C16 1.877 . S
C241 C56 1.903 . S
C273 C65 1.210 1_565 S
C265 C25 1.202 . S
C297 C8 1.880 . S
C305 C54 1.897 . S
C329 C26 1.181 . S
C337 C64 1.202 . S
C361 C50 1.507 . S
C369 C59 1.546 . S
C393 C43 1.499 . S
C401 C58 1.547 . S
C433 C61 1.543 . S
C425 C52 1.501 . S
C465 C60 1.538 . S
C457 C44 1.514 . S
