# Generated by pormake.
# Topology rtl, (3,6)-cn, num edge types: 1
# Building blocks:
#     Node 0, Type 0, BuildingBlock: BETDAH_clean_linker_0, # of connection points: 3
#     Node 1, Type 0, BuildingBlock: BETDAH_clean_linker_0, # of connection points: 3
#     Node 2, Type 0, BuildingBlock: BETDAH_clean_linker_0, # of connection points: 3
#     Node 3, Type 0, BuildingBlock: BETDAH_clean_linker_0, # of connection points: 3
#     Node 4, Type 1, BuildingBlock: CIFDUS_clean_sbu_1, # of connection points: 6
#     Node 5, Type 1, BuildingBlock: CIFDUS_clean_sbu_1, # of connection points: 6
#     Edge 6, Type (0, 1), BuildingBlock: FUNLAD_clean_linker_1, # of connection points: 2
#     Edge 7, Type (0, 1), BuildingBlock: FUNLAD_clean_linker_1, # of connection points: 2
#     Edge 8, Type (0, 1), BuildingBlock: FUNLAD_clean_linker_1, # of connection points: 2
#     Edge 9, Type (0, 1), BuildingBlock: FUNLAD_clean_linker_1, # of connection points: 2
#     Edge 10, Type (0, 1), BuildingBlock: FUNLAD_clean_linker_1, # of connection points: 2
#     Edge 11, Type (0, 1), BuildingBlock: FUNLAD_clean_linker_1, # of connection points: 2
#     Edge 12, Type (0, 1), BuildingBlock: FUNLAD_clean_linker_1, # of connection points: 2
#     Edge 13, Type (0, 1), BuildingBlock: FUNLAD_clean_linker_1, # of connection points: 2
#     Edge 14, Type (0, 1), BuildingBlock: FUNLAD_clean_linker_1, # of connection points: 2
#     Edge 15, Type (0, 1), BuildingBlock: FUNLAD_clean_linker_1, # of connection points: 2
#     Edge 16, Type (0, 1), BuildingBlock: FUNLAD_clean_linker_1, # of connection points: 2
#     Edge 17, Type (0, 1), BuildingBlock: FUNLAD_clean_linker_1, # of connection points: 2
# Relax obj value: 0.016
# Max RMSD: 0.114
# Mean RMSD: 0.085
data_MOF--net-rtl--node1-CIFDUS_clean_sbu_1--node2-BETDAH_clean_linker_0--edge1-FUNLAD_clean_linker_1
_symmetry_space_group_name_H-M    P1
_symmetry_Int_Tables_number       1
_symmetry_cell_setting            triclinic
loop_
_symmetry_equiv_pos_as_xyz
'x, y, z'
_cell_length_a     36.56816
_cell_length_b     36.910379
_cell_length_c     22.872104
_cell_angle_alpha  90.99315
_cell_angle_beta   100.06249
_cell_angle_gamma 90.102407
loop_
_atom_site_label
_atom_site_type_symbol
_atom_site_fract_x
_atom_site_fract_y
_atom_site_fract_z
_atom_type_partial_charge
H0 H 0.14085 0.88605 0.06709 0.0
H1 H 0.18483 0.80761 0.19674 0.0
H2 H 0.20052 0.79345 0.0156 0.0
C3 C 0.1562 0.86133 0.07842 0.0
C4 C 0.16902 0.84071 0.03372 0.0
C5 C 0.16239 0.84983 0.13745 0.0
C6 C 0.1809 0.81721 0.15152 0.0
C7 C 0.1956 0.79723 0.10863 0.0
C8 C 0.19011 0.80926 0.04947 0.0
N9 N 0.21384 0.76433 0.1268 0.0
C10 C 0.24161 0.74799 0.10137 0.0
H11 H 0.67333 0.63838 0.59905 0.0
H12 H 0.7505 0.71432 0.54535 0.0
H13 H 0.76422 0.68051 0.72676 0.0
C14 C 0.69686 0.65662 0.6101 0.0
C15 C 0.71686 0.65772 0.66848 0.0
C16 C 0.70898 0.67672 0.56504 0.0
C17 C 0.74072 0.69913 0.57973 0.0
C18 C 0.7602 0.70104 0.63867 0.0
C19 C 0.74856 0.67963 0.68186 0.0
N20 N 0.79246 0.7228 0.65667 0.0
C21 C 0.80409 0.75154 0.62581 0.0
H22 H 0.87862 0.16015 0.04579 0.0
H23 H 0.8371 0.26279 0.09826 0.0
H24 H 0.8454 0.24189 0.91578 0.0
C25 C 0.86705 0.18667 0.03429 0.0
C26 C 0.86195 0.19748 0.97502 0.0
C27 C 0.85871 0.21002 0.07926 0.0
C28 C 0.84374 0.24451 0.0641 0.0
C29 C 0.83828 0.25553 1.00446 0.0
C30 C 0.84805 0.23225 0.96077 0.0
N31 N 0.82592 0.29081 0.98717 0.0
C32 C 0.79711 0.30891 1.00736 0.0
H33 H 0.37922 0.3987 0.51778 0.0
H34 H 0.28762 0.33959 0.56665 0.0
H35 H 0.2911 0.35853 0.38295 0.0
C36 C 0.35365 0.3834 0.50541 0.0
C37 C 0.3375 0.3806 0.44523 0.0
C38 C 0.33595 0.36892 0.54982 0.0
C39 C 0.30195 0.3502 0.53293 0.0
C40 C 0.28609 0.3462 0.47228 0.0
C41 C 0.30373 0.36184 0.42921 0.0
N42 N 0.25143 0.32862 0.45243 0.0
C43 C 0.23717 0.29993 0.48021 0.0
O44 O 0.9935 0.07309 0.4936 0.0
Mn45 Mn 0.01415 0.0309 0.55163 0.0
O46 O 0.95117 0.04866 0.42064 0.0
Mn47 Mn 0.96518 1.00151 0.43731 0.0
O48 O 0.03473 0.98913 0.6112 0.0
O49 O 0.05552 0.0651 0.58813 0.0
Mn50 Mn 0.06173 0.06197 0.6661 0.0
O51 O 0.98004 0.05009 0.61009 0.0
O52 O 0.07622 0.01513 0.68406 0.0
O53 O 0.04787 0.0119 0.49184 0.0
O54 O 1.00891 0.9873 0.41397 0.0
O55 O 0.09556 0.0959 0.65147 0.0
O56 O 0.01746 0.07629 0.6879 0.0
C57 C 0.94652 0.97251 0.50668 0.0
C58 C 0.96828 0.07602 0.44697 0.0
C59 C 0.05982 0.9872 0.65839 0.0
C60 C 0.08159 0.08944 0.59622 0.0
C61 C 0.98525 0.06793 0.65965 0.0
C62 C 0.04156 0.99489 0.44136 0.0
O63 O 0.97252 0.99694 0.51512 0.0
O64 O 0.93143 0.9674 0.45154 0.0
O65 O 0.54339 0.56567 0.12351 0.0
Mn66 Mn 0.52135 0.5308 0.05098 0.0
O67 O 0.57429 0.5301 0.19432 0.0
Mn68 Mn 0.55711 0.48671 0.15851 0.0
O69 O 0.49933 0.49589 0.9792 0.0
O70 O 0.48475 0.57027 0.01993 0.0
Mn71 Mn 0.4854 0.57478 0.94343 0.0
O72 O 0.56174 0.55052 1.00342 0.0
O73 O 0.46928 0.53104 0.90709 0.0
O74 O 0.48096 0.5111 0.09793 0.0
O75 O 0.50978 0.47339 0.16694 0.0
O76 O 0.45161 0.608 0.96013 0.0
O77 O 0.53246 0.58963 0.93679 0.0
C78 C 0.58217 0.4655 0.08805 0.0
C79 C 0.56441 0.56128 0.17446 0.0
C80 C 0.47877 0.49997 0.92792 0.0
C81 C 0.45961 0.59539 0.01335 0.0
C82 C 0.56175 0.57443 0.96301 0.0
C83 C 0.48048 0.48822 0.13961 0.0
O84 O 0.55751 0.49105 0.08191 0.0
O85 O 0.59016 0.45281 0.14123 0.0
H86 H 0.22227 0.26313 0.5465 0.0
C87 C 0.21875 0.26872 0.4994 0.0
H88 H 0.19327 0.25392 0.41236 0.0
H89 H 0.18202 0.10752 0.579 0.0
H90 H 0.24936 0.10577 0.59126 0.0
H91 H 0.28391 0.15338 0.54915 0.0
H92 H 0.25146 0.20318 0.49518 0.0
C93 C 0.19719 0.24726 0.45918 0.0
C94 C 0.17645 0.21547 0.47685 0.0
C95 C 0.19584 0.18601 0.50672 0.0
C96 C 0.1759 0.15822 0.53007 0.0
C97 C 0.19594 0.12949 0.56088 0.0
C98 C 0.23452 0.12803 0.56785 0.0
C99 C 0.25396 0.15485 0.54419 0.0
C100 C 0.235 0.18348 0.51375 0.0
H101 H 0.08562 0.10211 0.50229 0.0
C102 C 0.0946 0.10993 0.54857 0.0
H103 H 0.12712 0.14498 0.61078 0.0
H104 H 0.13029 0.26401 0.41152 0.0
H105 H 0.06291 0.26266 0.39247 0.0
H106 H 0.02853 0.2145 0.43348 0.0
H107 H 0.06129 0.16712 0.49321 0.0
C108 C 0.11812 0.13811 0.56406 0.0
C109 C 0.13663 0.15952 0.52292 0.0
C110 C 0.11704 0.1867 0.4874 0.0
C111 C 0.13699 0.21465 0.46406 0.0
C112 C 0.11668 0.24203 0.43005 0.0
C113 C 0.07797 0.24165 0.41892 0.0
C114 C 0.0586 0.21454 0.44203 0.0
C115 C 0.07775 0.18746 0.47625 0.0
H116 H 0.28022 0.73193 0.04245 0.0
C117 C 0.27215 0.72758 0.08529 0.0
H118 H 0.28216 0.70023 0.16663 0.0
H119 H 0.36643 0.6017 0.98016 0.0
H120 H 0.30451 0.59022 0.9246 0.0
H121 H 0.2498 0.61922 0.95476 0.0
H122 H 0.25673 0.66022 0.04002 0.0
C123 C 0.29011 0.70345 0.12334 0.0
C124 C 0.32219 0.68192 0.10963 0.0
C125 C 0.3174 0.65697 0.06099 0.0
C126 C 0.34882 0.63959 0.04445 0.0
C127 C 0.34347 0.61569 0.99452 0.0
C128 C 0.30808 0.6087 0.96246 0.0
C129 C 0.2773 0.62506 0.9794 0.0
C130 C 0.2817 0.64881 0.02817 0.0
H131 H 0.43577 0.59018 0.09625 0.0
C132 C 0.43805 0.60746 0.0591 0.0
H133 H 0.42012 0.65439 0.01119 0.0
H134 H 0.34061 0.72356 0.21103 0.0
H135 H 0.4021 0.73123 0.27025 0.0
H136 H 0.45624 0.70013 0.24188 0.0
H137 H 0.44913 0.66095 0.15389 0.0
C138 C 0.41737 0.63767 0.04888 0.0
C139 C 0.38485 0.64651 0.07721 0.0
C140 C 0.3892 0.66851 0.12917 0.0
C141 C 0.35784 0.68628 0.14554 0.0
C142 C 0.36329 0.70909 0.19675 0.0
C143 C 0.39848 0.71381 0.23108 0.0
C144 C 0.42899 0.69633 0.21507 0.0
C145 C 0.42459 0.67404 0.16453 0.0
H146 H 0.81657 0.78731 0.55625 0.0
C147 C 0.82119 0.78263 0.60371 0.0
H148 H 0.84768 0.79964 0.68917 0.0
H149 H 0.9491 0.87562 0.50761 0.0
H150 H 0.96636 0.81408 0.48519 0.0
H151 H 0.93813 0.76184 0.52678 0.0
H152 H 0.8922 0.77075 0.59028 0.0
C153 C 0.84396 0.80437 0.6417 0.0
C154 C 0.86404 0.83574 0.62136 0.0
C155 C 0.89168 0.82998 0.58571 0.0
C156 C 0.90855 0.8601 0.56273 0.0
C157 C 0.93536 0.85365 0.526 0.0
C158 C 0.94566 0.8185 0.51308 0.0
C159 C 0.92974 0.78909 0.53645 0.0
C160 C 0.90316 0.79459 0.5725 0.0
H161 H 0.95243 0.9498 0.59774 0.0
C162 C 0.93593 0.94938 0.55338 0.0
H163 H 0.89157 0.92545 0.49352 0.0
H164 H 0.81632 0.85655 0.69549 0.0
H165 H 0.80267 0.91822 0.72315 0.0
H166 H 0.83274 0.97024 0.68407 0.0
H167 H 0.87679 0.96086 0.617 0.0
C168 C 0.90741 0.92582 0.5384 0.0
C169 C 0.89839 0.89591 0.57626 0.0
C170 C 0.87338 0.90171 0.61617 0.0
C171 C 0.85617 0.8716 0.63884 0.0
C172 C 0.83045 0.87832 0.67735 0.0
C173 C 0.8223 0.9136 0.69347 0.0
C174 C 0.8392 0.9429 0.6714 0.0
C175 C 0.86433 0.93719 0.63291 0.0
H176 H 0.76202 0.33396 0.06507 0.0
C177 C 0.76636 0.33063 0.01951 0.0
H178 H 0.74839 0.34314 0.92941 0.0
H179 H 0.58506 0.38203 0.97043 0.0
H180 H 0.57344 0.32734 0.90874 0.0
H181 H 0.62548 0.29225 0.88129 0.0
H182 H 0.68937 0.31136 0.91533 0.0
C183 C 0.74421 0.34735 0.97496 0.0
C184 C 0.71268 0.3707 0.98565 0.0
C185 C 0.67556 0.3595 0.96416 0.0
C186 C 0.6455 0.37958 0.98019 0.0
C187 C 0.60874 0.36738 0.95978 0.0
C188 C 0.60175 0.33623 0.92426 0.0
C189 C 0.63107 0.31649 0.90874 0.0
C190 C 0.66761 0.32779 0.92849 0.0
H191 H 0.60228 0.46795 1.00137 0.0
C192 C 0.60248 0.4524 0.0413 0.0
H193 H 0.62332 0.40726 0.092 0.0
H194 H 0.77977 0.40444 0.02186 0.0
H195 H 0.7907 0.46049 0.07947 0.0
H196 H 0.73858 0.49433 0.10925 0.0
H197 H 0.67514 0.47253 0.08093 0.0
C198 C 0.62405 0.42281 0.05228 0.0
C199 C 0.65254 0.41074 0.01733 0.0
C200 C 0.68938 0.42395 0.03369 0.0
C201 C 0.7195 0.40404 0.01755 0.0
C202 C 0.75599 0.41799 0.03428 0.0
C203 C 0.76262 0.45023 0.06705 0.0
C204 C 0.73327 0.4693 0.08377 0.0
C205 C 0.69702 0.45643 0.06746 0.0
H206 H 0.13639 0.85514 0.21731 0.0
C207 C 0.14821 0.87043 0.18484 0.0
H208 H 0.16373 0.92212 0.15954 0.0
H209 H 0.04302 1.00496 0.27746 0.0
H210 H 0.02774 0.02264 0.17432 0.0
H211 H 0.06111 0.99631 0.09897 0.0
H212 H 0.11009 0.95252 0.12617 0.0
C213 C 0.15118 0.90669 0.19096 0.0
C214 C 0.13501 0.92654 0.23781 0.0
C215 C 0.10659 0.95229 0.22093 0.0
C216 C 0.08677 0.96685 0.26409 0.0
C217 C 0.0584 0.99248 0.24614 0.0
C218 C 0.04947 1.00299 0.18719 0.0
C219 C 0.06831 0.98822 0.1448 0.0
C220 C 0.09647 0.96309 0.16112 0.0
H221 H 0.10045 0.99583 0.42766 0.0
C222 C 0.073 0.98453 0.41151 0.0
H223 H 0.03942 0.95191 0.3466 0.0
H224 H 0.19504 0.88668 0.28788 0.0
H225 H 0.21089 0.86967 0.39133 0.0
H226 H 0.17302 0.89058 0.46455 0.0
H227 H 0.11975 0.92933 0.43522 0.0
C228 C 0.06713 0.96258 0.36293 0.0
C229 C 0.09485 0.9552 0.32374 0.0
C230 C 0.12532 0.93185 0.34162 0.0
C231 C 0.14606 0.91829 0.29879 0.0
C232 C 0.17737 0.89632 0.31811 0.0
C233 C 0.18693 0.88661 0.37739 0.0
C234 C 0.16567 0.89849 0.41865 0.0
C235 C 0.13516 0.9208 0.40122 0.0
H236 H 0.72903 0.62422 0.74877 0.0
C237 C 0.70665 0.63501 0.71616 0.0
H238 H 0.64876 0.64153 0.69248 0.0
H239 H 0.58927 0.51711 0.83092 0.0
H240 H 0.56945 0.49712 0.72915 0.0
H241 H 0.59228 0.52749 0.6472 0.0
H242 H 0.63493 0.57835 0.66677 0.0
C243 C 0.67141 0.63049 0.72424 0.0
C244 C 0.66181 0.60968 0.77514 0.0
C245 C 0.63795 0.57906 0.76337 0.0
C246 C 0.62536 0.56105 0.81087 0.0
C247 C 0.60018 0.53163 0.7971 0.0
C248 C 0.5885 0.5198 0.73865 0.0
C249 C 0.60135 0.5369 0.69253 0.0
C250 C 0.62576 0.56616 0.70444 0.0
H251 H 0.59805 0.61342 0.93153 0.0
C252 C 0.59599 0.58495 0.94221 0.0
H253 H 0.61257 0.53214 0.92376 0.0
H254 H 0.705 0.66942 0.81526 0.0
H255 H 0.72907 0.68579 0.91754 0.0
H256 H 0.71339 0.64959 0.99949 0.0
H257 H 0.67231 0.59728 0.97908 0.0
C258 C 0.61673 0.5609 0.91794 0.0
C259 C 0.63714 0.57334 0.87041 0.0
C260 C 0.66362 0.6018 0.88247 0.0
C261 C 0.67474 0.62104 0.83498 0.0
C262 C 0.69761 0.65213 0.84901 0.0
C263 C 0.71131 0.66217 0.90778 0.0
C264 C 0.70234 0.64192 0.95393 0.0
C265 C 0.67864 0.61215 0.94167 0.0
H266 H 0.86333 0.16797 0.1473 0.0
C267 C 0.86655 0.19691 0.14121 0.0
H268 H 0.88942 0.24547 0.18255 0.0
H269 H 0.87046 0.12123 0.38935 0.0
H270 H 0.80433 0.13376 0.36444 0.0
H271 H 0.78045 0.17704 0.28597 0.0
H272 H 0.82254 0.20799 0.23177 0.0
C273 C 0.88283 0.21717 0.18814 0.0
C274 C 0.89755 0.19913 0.24557 0.0
C275 C 0.87287 0.18207 0.27791 0.0
C276 C 0.8867 0.15727 0.32332 0.0
C277 C 0.86128 0.13999 0.35399 0.0
C278 C 0.82336 0.14711 0.34036 0.0
C279 C 0.80991 0.17147 0.29617 0.0
C280 C 0.83426 0.18886 0.26519 0.0
H281 H 0.97109 0.13642 0.44456 0.0
C282 C 0.95914 0.11223 0.42085 0.0
H283 H 0.92458 0.09065 0.34459 0.0
H284 H 0.95293 0.23344 0.20152 0.0
H285 H 0.01924 0.22379 0.2305 0.0
H286 H 0.04324 0.17983 0.3077 0.0
H287 H 1.00127 0.14547 0.35667 0.0
C288 C 0.93692 0.11499 0.36733 0.0
C289 C 0.9252 0.14951 0.33655 0.0
C290 C 0.95032 0.16979 0.30906 0.0
C291 C 0.93642 0.19492 0.26388 0.0
C292 C 0.96197 0.21405 0.23592 0.0
C293 C 1.00009 0.20875 0.25211 0.0
C294 C 0.0136 0.18399 0.29559 0.0
C295 C 0.98915 0.16446 0.32352 0.0
H296 H 0.33159 0.38741 0.64109 0.0
C297 C 0.35092 0.37756 0.61344 0.0
H298 H 0.40652 0.36708 0.60712 0.0
H299 H 0.48185 0.49373 0.77007 0.0
H300 H 0.50004 0.50566 0.67526 0.0
H301 H 0.47462 0.46905 0.58621 0.0
H302 H 0.43121 0.42041 0.59128 0.0
C303 C 0.38774 0.37779 0.63501 0.0
C304 C 0.40448 0.39835 0.69046 0.0
C305 C 0.43008 0.42693 0.68654 0.0
C306 C 0.44419 0.44866 0.73758 0.0
C307 C 0.46972 0.47689 0.73242 0.0
C308 C 0.48057 0.48395 0.67835 0.0
C309 C 0.46631 0.4633 0.62827 0.0
C310 C 0.44135 0.43523 0.63197 0.0
H311 H 0.48037 0.44192 0.89968 0.0
C312 C 0.46664 0.4677 0.88948 0.0
H313 H 0.42714 0.49677 0.83007 0.0
H314 H 0.3629 0.34127 0.7173 0.0
H315 H 0.34519 0.32958 0.81275 0.0
H316 H 0.36655 0.36976 0.89937 0.0
H317 H 0.4064 0.42155 0.89141 0.0
C318 C 0.44043 0.47078 0.8403 0.0
C319 C 0.43239 0.44245 0.79237 0.0
C320 C 0.40859 0.41273 0.79731 0.0
C321 C 0.39513 0.39028 0.7466 0.0
C322 C 0.37263 0.35999 0.7536 0.0
C323 C 0.36252 0.35282 0.80826 0.0
C324 C 0.37462 0.37541 0.8571 0.0
C325 C 0.39741 0.40506 0.85195 0.0
H326 H 0.70952 0.66653 0.46945 0.0
C327 C 0.69134 0.67072 0.50177 0.0
H328 H 0.63644 0.6722 0.51722 0.0
H329 H 0.62846 0.64799 0.22049 0.0
H330 H 0.66148 0.70531 0.22207 0.0
H331 H 0.68177 0.73907 0.31624 0.0
H332 H 0.66996 0.71542 0.40963 0.0
C333 C 0.65426 0.66716 0.48465 0.0
C334 C 0.63704 0.65059 0.42579 0.0
C335 C 0.64259 0.66564 0.37115 0.0
C336 C 0.62953 0.64686 0.31629 0.0
C337 C 0.63723 0.66147 0.26301 0.0
C338 C 0.65607 0.69434 0.26333 0.0
C339 C 0.66758 0.71332 0.3164 0.0
C340 C 0.66092 0.69931 0.36978 0.0
H341 H 0.55989 0.61773 0.20926 0.0
C342 C 0.57586 0.59287 0.21503 0.0
H343 H 0.61888 0.564 0.26759 0.0
H344 H 0.61821 0.6149 0.52123 0.0
H345 H 0.5805 0.56094 0.51777 0.0
H346 H 0.55462 0.53103 0.42219 0.0
H347 H 0.5669 0.55491 0.32941 0.0
C348 C 0.60341 0.5892 0.26242 0.0
C349 C 0.60964 0.61385 0.31581 0.0
C350 C 0.60105 0.60069 0.36975 0.0
C351 C 0.61509 0.61865 0.42473 0.0
C352 C 0.6076 0.6033 0.4779 0.0
C353 C 0.58603 0.57207 0.47668 0.0
C354 C 0.57155 0.55518 0.42293 0.0
C355 C 0.57897 0.5691 0.37003 0.0
H356 H 0.8973 0.1547 0.94579 0.0
C357 C 0.87476 0.17325 0.93018 0.0
H358 H 0.83781 0.19147 0.85484 0.0
H359 H 0.95589 0.16172 0.68724 0.0
H360 H 0.94762 0.22688 0.68013 0.0
H361 H 0.90791 0.25913 0.74057 0.0
H362 H 0.87621 0.22657 0.80827 0.0
C363 C 0.86073 0.17372 0.87172 0.0
C364 C 0.87925 0.15342 0.82821 0.0
C365 C 0.89698 0.17294 0.78806 0.0
C366 C 0.92019 0.15445 0.75368 0.0
C367 C 0.93827 0.17458 0.71483 0.0
C368 C 0.93367 0.21193 0.71018 0.0
C369 C 0.91128 0.23008 0.74416 0.0
C370 C 0.89319 0.211 0.78286 0.0
H371 H 0.92489 0.07522 0.65961 0.0
C372 C 0.95257 0.08049 0.68443 0.0
H373 H 0.98452 0.10569 0.76025 0.0
H374 H 0.84227 0.1071 0.88977 0.0
H375 H 0.84884 0.0416 0.89377 0.0
H376 H 0.89084 0.00985 0.83667 0.0
H377 H 0.92624 0.04334 0.77471 0.0
C378 C 0.9569 0.09957 0.7359 0.0
C379 C 0.9256 0.11662 0.75948 0.0
C380 C 0.90528 0.09666 0.79544 0.0
C381 C 0.88174 0.11506 0.82945 0.0
C382 C 0.86132 0.0945 0.86443 0.0
C383 C 0.86467 0.05692 0.86679 0.0
C384 C 0.88829 0.03904 0.83457 0.0
C385 C 0.90849 0.05855 0.79929 0.0
H386 H 0.3867 0.40196 0.41278 0.0
C387 C 0.35691 0.39746 0.40048 0.0
H388 H 0.30986 0.40554 0.33334 0.0
H389 H 0.44683 0.51222 0.27271 0.0
H390 H 0.43831 0.54674 0.36065 0.0
H391 H 0.3932 0.52678 0.42224 0.0
H392 H 0.35674 0.47189 0.39672 0.0
C393 C 0.33962 0.40883 0.34708 0.0
C394 C 0.36117 0.42494 0.30424 0.0
C395 C 0.38103 0.4579 0.31839 0.0
C396 C 0.40633 0.46991 0.28207 0.0
C397 C 0.42707 0.50203 0.2986 0.0
C398 C 0.42236 0.52214 0.34883 0.0
C399 C 0.397 0.51087 0.38356 0.0
C400 C 0.37644 0.4792 0.36866 0.0
H401 H 0.42009 0.49467 0.14109 0.0
C402 C 0.44502 0.47997 0.15969 0.0
H403 H 0.46889 0.44107 0.22175 0.0
H404 H 0.32307 0.36373 0.25939 0.0
H405 H 0.32894 0.33149 0.16809 0.0
H406 H 0.37209 0.35309 0.10435 0.0
H407 H 0.40969 0.40721 0.13163 0.0
C408 C 0.4441 0.45597 0.20315 0.0
C409 C 0.41102 0.4494 0.23101 0.0
C410 C 0.38856 0.41845 0.21379 0.0
C411 C 0.36353 0.40618 0.2504 0.0
C412 C 0.34233 0.37443 0.23306 0.0
C413 C 0.34546 0.35564 0.18079 0.0
C414 C 0.36979 0.36778 0.14492 0.0
C415 C 0.39126 0.39876 0.16111 0.0
H416 H 0.18267 0.8546 0.94563 0.0
C417 C 0.16024 0.85253 0.97092 0.0
H418 H 0.1034 0.85944 0.97244 0.0
H419 H 0.06897 0.99024 0.80383 0.0
H420 H 0.05884 0.01524 0.89824 0.0
H421 H 0.07537 0.98053 0.99018 0.0
H422 H 0.10181 0.92073 0.98824 0.0
C423 C 0.12546 0.86245 0.94656 0.0
C424 C 0.11643 0.8831 0.89007 0.0
C425 C 0.10104 0.91835 0.89203 0.0
C426 C 0.09222 0.93875 0.83921 0.0
C427 C 0.07677 0.97378 0.84266 0.0
C428 C 0.07067 0.98846 0.89657 0.0
C429 C 0.07989 0.96889 0.94827 0.0
C430 C 0.09495 0.93437 0.94636 0.0
H431 H 0.04576 0.9316 0.68397 0.0
C432 C 0.06724 0.95236 0.69 0.0
H433 H 0.11848 0.97042 0.73891 0.0
H434 H 0.13968 0.81453 0.86798 0.0
H435 H 0.14983 0.78993 0.77303 0.0
H436 H 0.13745 0.82668 0.68267 0.0
H437 H 0.11418 0.88824 0.68653 0.0
C438 C 0.0974 0.94924 0.73319 0.0
C439 C 0.09928 0.92435 0.78438 0.0
C440 C 0.11335 0.88874 0.78184 0.0
C441 C 0.1215 0.86788 0.83453 0.0
C442 C 0.13425 0.83196 0.82998 0.0
C443 C 0.13995 0.81744 0.77564 0.0
C444 C 0.13292 0.83812 0.72471 0.0
C445 C 0.11971 0.87338 0.7275 0.0
loop_
_geom_bond_atom_site_label_1
_geom_bond_atom_site_label_2
_geom_bond_distance
_geom_bond_site_symmetry_2
_ccdc_geom_bond_type
H0 C3 0.929 . S
H1 C6 0.929 . S
H2 C8 0.930 1_556 S
C3 H0 0.929 . S
C3 C4 1.398 . S
C3 C5 1.396 . S
C4 C3 1.398 . S
C4 C8 1.407 . S
C5 C3 1.396 . S
C5 C6 1.394 . S
C6 H1 0.929 . S
C6 C5 1.394 . S
C6 C7 1.382 . S
C7 C6 1.382 . S
C7 C8 1.392 . S
C7 N9 1.420 . S
C8 H2 0.930 1_554 S
C8 C4 1.407 . S
C8 C7 1.392 . S
N9 C7 1.420 . S
N9 C10 1.244 . S
C10 N9 1.244 . S
H11 C14 0.929 . S
H12 C17 0.929 . S
H13 C19 0.930 . S
C14 H11 0.929 . S
C14 C15 1.398 . S
C14 C16 1.396 . S
C15 C14 1.398 . S
C15 C19 1.407 . S
C16 C14 1.396 . S
C16 C17 1.394 . S
C17 H12 0.929 . S
C17 C16 1.394 . S
C17 C18 1.382 . S
C18 C17 1.382 . S
C18 C19 1.392 . S
C18 N20 1.420 . S
C19 H13 0.930 . S
C19 C15 1.407 . S
C19 C18 1.392 . S
N20 C18 1.420 . S
N20 C21 1.244 . S
C21 N20 1.244 . S
H22 C25 0.929 . S
H23 C28 0.929 . S
H24 C30 0.930 . S
C25 H22 0.929 . S
C25 C26 1.398 1_554 S
C25 C27 1.396 . S
C26 C25 1.398 1_556 S
C26 C30 1.407 . S
C27 C25 1.396 . S
C27 C28 1.394 . S
C28 H23 0.929 . S
C28 C27 1.394 . S
C28 C29 1.382 1_554 S
C29 C28 1.382 1_556 S
C29 C30 1.392 . S
C29 N31 1.420 . S
C30 H24 0.930 . S
C30 C26 1.407 . S
C30 C29 1.392 . S
N31 C29 1.420 . S
N31 C32 1.244 1_556 S
C32 N31 1.244 1_554 S
H33 C36 0.929 . S
H34 C39 0.929 . S
H35 C41 0.930 . S
C36 H33 0.929 . S
C36 C37 1.398 . S
C36 C38 1.396 . S
C37 C36 1.398 . S
C37 C41 1.407 . S
C38 C36 1.396 . S
C38 C39 1.394 . S
C39 H34 0.929 . S
C39 C38 1.394 . S
C39 C40 1.382 . S
C40 C39 1.382 . S
C40 C41 1.392 . S
C40 N42 1.420 . S
C41 H35 0.930 . S
C41 C37 1.407 . S
C41 C40 1.392 . S
N42 C40 1.420 . S
N42 C43 1.244 . S
C43 N42 1.244 . S
O44 Mn45 2.163 1_655 S
O44 C58 1.244 . S
Mn45 O44 2.163 1_455 S
Mn45 O48 2.160 1_545 S
Mn45 O49 2.221 . S
Mn45 O51 2.163 1_455 S
Mn45 O53 2.160 1_545 S
Mn45 O63 2.221 1_445 S
O46 Mn47 2.087 1_545 S
O46 C58 1.256 . S
Mn47 O46 2.087 1_565 S
Mn47 O54 2.089 1_655 S
Mn47 O63 2.290 . S
Mn47 O64 2.251 . S
O48 Mn45 2.160 1_565 S
O48 C59 1.239 . S
O49 Mn45 2.221 . S
O49 Mn50 2.290 . S
O49 C60 1.278 . S
Mn50 O49 2.290 . S
Mn50 O52 2.089 . S
Mn50 O55 2.251 . S
Mn50 O56 2.087 . S
O51 Mn45 2.163 1_655 S
O51 C61 1.244 . S
O52 Mn50 2.089 . S
O52 C59 1.256 1_545 S
O53 Mn45 2.160 1_565 S
O53 C62 1.239 . S
O54 Mn47 2.089 1_455 S
O54 C62 1.256 . S
O55 Mn50 2.251 . S
O55 C60 1.241 . S
O56 Mn50 2.087 . S
O56 C61 1.256 1_455 S
C57 O63 1.278 . S
C57 O64 1.241 . S
C58 O44 1.244 . S
C58 O46 1.256 . S
C59 O48 1.239 . S
C59 O52 1.256 1_565 S
C60 O49 1.278 . S
C60 O55 1.241 . S
C61 O51 1.244 . S
C61 O56 1.256 1_655 S
C62 O53 1.239 . S
C62 O54 1.256 . S
O63 Mn45 2.221 1_665 S
O63 Mn47 2.290 . S
O63 C57 1.278 . S
O64 Mn47 2.251 . S
O64 C57 1.241 . S
O65 Mn66 2.163 . S
O65 C79 1.244 . S
Mn66 O65 2.163 . S
Mn66 O69 2.160 1_554 S
Mn66 O70 2.221 . S
Mn66 O72 2.163 1_554 S
Mn66 O74 2.160 . S
Mn66 O84 2.221 . S
O67 Mn68 2.087 . S
O67 C79 1.256 . S
Mn68 O67 2.087 . S
Mn68 O75 2.089 . S
Mn68 O84 2.290 . S
Mn68 O85 2.251 . S
O69 Mn66 2.160 1_556 S
O69 C80 1.239 . S
O70 Mn66 2.221 . S
O70 Mn71 2.290 1_554 S
O70 C81 1.278 . S
Mn71 O70 2.290 1_556 S
Mn71 O73 2.089 . S
Mn71 O76 2.251 . S
Mn71 O77 2.087 . S
O72 Mn66 2.163 1_556 S
O72 C82 1.244 . S
O73 Mn71 2.089 . S
O73 C80 1.256 . S
O74 Mn66 2.160 . S
O74 C83 1.239 . S
O75 Mn68 2.089 . S
O75 C83 1.256 . S
O76 Mn71 2.251 . S
O76 C81 1.241 1_556 S
O77 Mn71 2.087 . S
O77 C82 1.256 . S
C78 O84 1.278 . S
C78 O85 1.241 . S
C79 O65 1.244 . S
C79 O67 1.256 . S
C80 O69 1.239 . S
C80 O73 1.256 . S
C81 O70 1.278 . S
C81 O76 1.241 1_554 S
C82 O72 1.244 . S
C82 O77 1.256 . S
C83 O74 1.239 . S
C83 O75 1.256 . S
O84 Mn66 2.221 . S
O84 Mn68 2.290 . S
O84 C78 1.278 . S
O85 Mn68 2.251 . S
O85 C78 1.241 . S
H86 C87 0.951 . S
C87 H86 0.951 . S
C87 C93 1.265 . S
H88 C93 0.950 . S
H89 C97 0.949 . S
H90 C98 0.950 . S
H91 C99 0.951 . S
H92 C100 0.951 . S
C93 C87 1.265 . S
C93 H88 0.950 . S
C93 C94 1.478 . S
C94 C93 1.478 . S
C94 C95 1.397 . S
C94 C111 1.394 . S
C95 C94 1.397 . S
C95 C96 1.438 . S
C95 C100 1.429 . S
C96 C95 1.438 . S
C96 C97 1.428 . S
C96 C109 1.394 . S
C97 H89 0.949 . S
C97 C96 1.428 . S
C97 C98 1.345 . S
C98 H90 0.950 . S
C98 C97 1.345 . S
C98 C99 1.424 . S
C99 H91 0.951 . S
C99 C98 1.424 . S
C99 C100 1.347 . S
C100 H92 0.951 . S
C100 C95 1.429 . S
C100 C99 1.347 . S
H101 C102 0.951 . S
C102 H101 0.951 . S
C102 C108 1.265 . S
H103 C108 0.950 . S
H104 C112 0.949 . S
H105 C113 0.950 . S
H106 C114 0.951 . S
H107 C115 0.951 . S
C108 C102 1.265 . S
C108 H103 0.950 . S
C108 C109 1.478 . S
C109 C96 1.394 . S
C109 C108 1.478 . S
C109 C110 1.397 . S
C110 C109 1.397 . S
C110 C111 1.438 . S
C110 C115 1.429 . S
C111 C94 1.394 . S
C111 C110 1.438 . S
C111 C112 1.428 . S
C112 H104 0.949 . S
C112 C111 1.428 . S
C112 C113 1.345 . S
C113 H105 0.950 . S
C113 C112 1.345 . S
C113 C114 1.424 . S
C114 H106 0.951 . S
C114 C113 1.424 . S
C114 C115 1.347 . S
C115 H107 0.951 . S
C115 C110 1.429 . S
C115 C114 1.347 . S
H116 C117 0.951 . S
C117 H116 0.951 . S
C117 C123 1.265 . S
H118 C123 0.950 . S
H119 C127 0.949 . S
H120 C128 0.950 . S
H121 C129 0.951 . S
H122 C130 0.951 . S
C123 C117 1.265 . S
C123 H118 0.950 . S
C123 C124 1.478 . S
C124 C123 1.478 . S
C124 C125 1.397 . S
C124 C141 1.394 . S
C125 C124 1.397 . S
C125 C126 1.438 . S
C125 C130 1.429 1_554 S
C126 C125 1.438 . S
C126 C127 1.428 1_554 S
C126 C139 1.394 . S
C127 H119 0.949 . S
C127 C126 1.428 1_556 S
C127 C128 1.345 . S
C128 H120 0.950 . S
C128 C127 1.345 . S
C128 C129 1.424 . S
C129 H121 0.951 . S
C129 C128 1.424 . S
C129 C130 1.347 . S
C130 H122 0.951 . S
C130 C125 1.429 1_556 S
C130 C129 1.347 . S
H131 C132 0.951 . S
C132 H131 0.951 . S
C132 C138 1.265 . S
H133 C138 0.950 . S
H134 C142 0.949 . S
H135 C143 0.950 . S
H136 C144 0.951 . S
H137 C145 0.951 . S
C138 C132 1.265 . S
C138 H133 0.950 . S
C138 C139 1.478 . S
C139 C126 1.394 . S
C139 C138 1.478 . S
C139 C140 1.397 . S
C140 C139 1.397 . S
C140 C141 1.438 . S
C140 C145 1.429 . S
C141 C124 1.394 . S
C141 C140 1.438 . S
C141 C142 1.428 . S
C142 H134 0.949 . S
C142 C141 1.428 . S
C142 C143 1.345 . S
C143 H135 0.950 . S
C143 C142 1.345 . S
C143 C144 1.424 . S
C144 H136 0.951 . S
C144 C143 1.424 . S
C144 C145 1.347 . S
C145 H137 0.951 . S
C145 C140 1.429 . S
C145 C144 1.347 . S
H146 C147 0.951 . S
C147 H146 0.951 . S
C147 C153 1.265 . S
H148 C153 0.950 . S
H149 C157 0.949 . S
H150 C158 0.950 . S
H151 C159 0.951 . S
H152 C160 0.951 . S
C153 C147 1.265 . S
C153 H148 0.950 . S
C153 C154 1.478 . S
C154 C153 1.478 . S
C154 C155 1.397 . S
C154 C171 1.394 . S
C155 C154 1.397 . S
C155 C156 1.438 . S
C155 C160 1.429 . S
C156 C155 1.438 . S
C156 C157 1.428 . S
C156 C169 1.394 . S
C157 H149 0.949 . S
C157 C156 1.428 . S
C157 C158 1.345 . S
C158 H150 0.950 . S
C158 C157 1.345 . S
C158 C159 1.424 . S
C159 H151 0.951 . S
C159 C158 1.424 . S
C159 C160 1.347 . S
C160 H152 0.951 . S
C160 C155 1.429 . S
C160 C159 1.347 . S
H161 C162 0.951 . S
C162 H161 0.951 . S
C162 C168 1.265 . S
H163 C168 0.950 . S
H164 C172 0.949 . S
H165 C173 0.950 . S
H166 C174 0.951 . S
H167 C175 0.951 . S
C168 C162 1.265 . S
C168 H163 0.950 . S
C168 C169 1.478 . S
C169 C156 1.394 . S
C169 C168 1.478 . S
C169 C170 1.397 . S
C170 C169 1.397 . S
C170 C171 1.438 . S
C170 C175 1.429 . S
C171 C154 1.394 . S
C171 C170 1.438 . S
C171 C172 1.428 . S
C172 H164 0.949 . S
C172 C171 1.428 . S
C172 C173 1.345 . S
C173 H165 0.950 . S
C173 C172 1.345 . S
C173 C174 1.424 . S
C174 H166 0.951 . S
C174 C173 1.424 . S
C174 C175 1.347 . S
C175 H167 0.951 . S
C175 C170 1.429 . S
C175 C174 1.347 . S
H176 C177 0.951 . S
C177 H176 0.951 . S
C177 C183 1.265 . S
H178 C183 0.950 . S
H179 C187 0.949 . S
H180 C188 0.950 . S
H181 C189 0.951 . S
H182 C190 0.951 . S
C183 C177 1.265 . S
C183 H178 0.950 . S
C183 C184 1.478 . S
C184 C183 1.478 . S
C184 C185 1.397 1_554 S
C184 C201 1.394 . S
C185 C184 1.397 1_556 S
C185 C186 1.438 . S
C185 C190 1.429 . S
C186 C185 1.438 . S
C186 C187 1.428 . S
C186 C199 1.394 1_556 S
C187 H179 0.949 . S
C187 C186 1.428 . S
C187 C188 1.345 . S
C188 H180 0.950 . S
C188 C187 1.345 . S
C188 C189 1.424 . S
C189 H181 0.951 . S
C189 C188 1.424 . S
C189 C190 1.347 . S
C190 H182 0.951 . S
C190 C185 1.429 . S
C190 C189 1.347 . S
H191 C192 0.951 . S
C192 H191 0.951 . S
C192 C198 1.265 . S
H193 C198 0.950 . S
H194 C202 0.949 . S
H195 C203 0.950 . S
H196 C204 0.951 . S
H197 C205 0.951 . S
C198 C192 1.265 . S
C198 H193 0.950 . S
C198 C199 1.478 . S
C199 C186 1.394 1_554 S
C199 C198 1.478 . S
C199 C200 1.397 . S
C200 C199 1.397 . S
C200 C201 1.438 . S
C200 C205 1.429 . S
C201 C184 1.394 . S
C201 C200 1.438 . S
C201 C202 1.428 . S
C202 H194 0.949 . S
C202 C201 1.428 . S
C202 C203 1.345 . S
C203 H195 0.950 . S
C203 C202 1.345 . S
C203 C204 1.424 . S
C204 H196 0.951 . S
C204 C203 1.424 . S
C204 C205 1.347 . S
C205 H197 0.951 . S
C205 C200 1.429 . S
C205 C204 1.347 . S
H206 C207 0.951 . S
C207 H206 0.951 . S
C207 C213 1.265 . S
H208 C213 0.950 . S
H209 C217 0.949 . S
H210 C218 0.950 . S
H211 C219 0.951 . S
H212 C220 0.951 . S
C213 C207 1.265 . S
C213 H208 0.950 . S
C213 C214 1.478 . S
C214 C213 1.478 . S
C214 C215 1.397 . S
C214 C231 1.394 . S
C215 C214 1.397 . S
C215 C216 1.438 . S
C215 C220 1.429 . S
C216 C215 1.438 . S
C216 C217 1.428 . S
C216 C229 1.394 . S
C217 H209 0.949 . S
C217 C216 1.428 . S
C217 C218 1.345 . S
C218 H210 0.950 . S
C218 C217 1.345 . S
C218 C219 1.424 . S
C219 H211 0.951 . S
C219 C218 1.424 . S
C219 C220 1.347 . S
C220 H212 0.951 . S
C220 C215 1.429 . S
C220 C219 1.347 . S
H221 C222 0.951 . S
C222 H221 0.951 . S
C222 C228 1.265 . S
H223 C228 0.950 . S
H224 C232 0.949 . S
H225 C233 0.950 . S
H226 C234 0.951 . S
H227 C235 0.959 . S
C228 C222 1.265 . S
C228 H223 0.950 . S
C228 C229 1.478 . S
C229 C216 1.394 . S
C229 C228 1.478 . S
C229 C230 1.397 . S
C230 C229 1.397 . S
C230 C231 1.438 . S
C230 C235 1.429 . S
C231 C214 1.394 . S
C231 C230 1.438 . S
C231 C232 1.428 . S
C232 H224 0.949 . S
C232 C231 1.428 . S
C232 C233 1.345 . S
C233 H225 0.950 . S
C233 C232 1.345 . S
C233 C234 1.424 1_565 S
C234 H226 0.951 . S
C234 C233 1.424 1_545 S
C234 C235 1.347 1_545 S
C235 H227 0.959 . S
C235 C230 1.429 . S
C235 C234 1.347 1_565 S
H236 C237 0.951 . S
C237 H236 0.951 . S
C237 C243 1.265 . S
H238 C243 0.950 . S
H239 C247 0.949 . S
H240 C248 0.950 . S
H241 C249 0.951 . S
H242 C250 0.951 . S
C243 C237 1.265 . S
C243 H238 0.950 . S
C243 C244 1.478 . S
C244 C243 1.478 . S
C244 C245 1.397 . S
C244 C261 1.394 . S
C245 C244 1.397 . S
C245 C246 1.438 . S
C245 C250 1.429 . S
C246 C245 1.438 . S
C246 C247 1.428 . S
C246 C259 1.394 . S
C247 H239 0.949 . S
C247 C246 1.428 . S
C247 C248 1.345 . S
C248 H240 0.950 . S
C248 C247 1.345 . S
C248 C249 1.424 . S
C249 H241 0.951 . S
C249 C248 1.424 . S
C249 C250 1.347 . S
C250 H242 0.951 . S
C250 C245 1.429 . S
C250 C249 1.347 . S
H251 C252 0.951 . S
C252 H251 0.951 . S
C252 C258 1.265 . S
H253 C258 0.950 . S
H254 C262 0.949 . S
H255 C263 0.950 . S
H256 C264 0.951 . S
H257 C265 0.951 . S
C258 C252 1.265 . S
C258 H253 0.950 . S
C258 C259 1.478 . S
C259 C246 1.394 . S
C259 C258 1.478 . S
C259 C260 1.397 . S
C260 C259 1.397 . S
C260 C261 1.438 . S
C260 C265 1.429 . S
C261 C244 1.394 . S
C261 C260 1.438 . S
C261 C262 1.428 . S
C262 H254 0.949 . S
C262 C261 1.428 . S
C262 C263 1.345 . S
C263 H255 0.950 . S
C263 C262 1.345 . S
C263 C264 1.424 . S
C264 H256 0.951 . S
C264 C263 1.424 . S
C264 C265 1.347 . S
C265 H257 0.951 . S
C265 C260 1.429 . S
C265 C264 1.347 . S
H266 C267 0.951 . S
C267 H266 0.951 . S
C267 C273 1.265 . S
H268 C273 0.950 . S
H269 C277 0.949 . S
H270 C278 0.950 . S
H271 C279 0.951 . S
H272 C280 0.951 . S
C273 C267 1.265 . S
C273 H268 0.950 . S
C273 C274 1.478 . S
C274 C273 1.478 . S
C274 C275 1.397 . S
C274 C291 1.394 . S
C275 C274 1.397 . S
C275 C276 1.438 . S
C275 C280 1.429 . S
C276 C275 1.438 . S
C276 C277 1.428 . S
C276 C289 1.394 . S
C277 H269 0.949 . S
C277 C276 1.428 . S
C277 C278 1.345 . S
C278 H270 0.950 . S
C278 C277 1.345 . S
C278 C279 1.424 . S
C279 H271 0.951 . S
C279 C278 1.424 . S
C279 C280 1.347 . S
C280 H272 0.951 . S
C280 C275 1.429 . S
C280 C279 1.347 . S
H281 C282 0.951 . S
C282 H281 0.951 . S
C282 C288 1.265 . S
H283 C288 0.950 . S
H284 C292 0.949 . S
H285 C293 0.950 . S
H286 C294 0.920 1_455 S
H287 C295 0.951 . S
C288 C282 1.265 . S
C288 H283 0.950 . S
C288 C289 1.478 . S
C289 C276 1.394 . S
C289 C288 1.478 . S
C289 C290 1.397 . S
C290 C289 1.397 . S
C290 C291 1.438 . S
C290 C295 1.429 . S
C291 C274 1.394 . S
C291 C290 1.438 . S
C291 C292 1.428 . S
C292 H284 0.949 . S
C292 C291 1.428 . S
C292 C293 1.345 . S
C293 H285 0.950 . S
C293 C292 1.345 . S
C293 C294 1.439 . S
C294 H286 0.920 1_655 S
C294 C293 1.439 . S
C294 C295 1.363 . S
C295 H287 0.951 . S
C295 C290 1.429 . S
C295 C294 1.363 . S
H296 C297 0.951 . S
C297 H296 0.951 . S
C297 C303 1.265 . S
H298 C303 0.950 . S
H299 C307 0.949 . S
H300 C308 0.950 . S
H301 C309 0.951 . S
H302 C310 0.951 . S
C303 C297 1.265 . S
C303 H298 0.950 . S
C303 C304 1.478 . S
C304 C303 1.478 . S
C304 C305 1.397 . S
C304 C321 1.394 . S
C305 C304 1.397 . S
C305 C306 1.438 . S
C305 C310 1.429 . S
C306 C305 1.438 . S
C306 C307 1.428 . S
C306 C319 1.394 . S
C307 H299 0.949 . S
C307 C306 1.428 . S
C307 C308 1.345 . S
C308 H300 0.950 . S
C308 C307 1.345 . S
C308 C309 1.424 . S
C309 H301 0.951 . S
C309 C308 1.424 . S
C309 C310 1.347 . S
C310 H302 0.951 . S
C310 C305 1.429 . S
C310 C309 1.347 . S
H311 C312 0.951 . S
C312 H311 0.951 . S
C312 C318 1.265 . S
H313 C318 0.950 . S
H314 C322 0.949 . S
H315 C323 0.950 . S
H316 C324 0.951 . S
H317 C325 0.951 . S
C318 C312 1.265 . S
C318 H313 0.950 . S
C318 C319 1.478 . S
C319 C306 1.394 . S
C319 C318 1.478 . S
C319 C320 1.397 . S
C320 C319 1.397 . S
C320 C321 1.438 . S
C320 C325 1.429 . S
C321 C304 1.394 . S
C321 C320 1.438 . S
C321 C322 1.428 . S
C322 H314 0.949 . S
C322 C321 1.428 . S
C322 C323 1.345 . S
C323 H315 0.950 . S
C323 C322 1.345 . S
C323 C324 1.424 . S
C324 H316 0.951 . S
C324 C323 1.424 . S
C324 C325 1.347 . S
C325 H317 0.951 . S
C325 C320 1.429 . S
C325 C324 1.347 . S
H326 C327 0.951 . S
C327 H326 0.951 . S
C327 C333 1.265 . S
H328 C333 0.950 . S
H329 C337 0.949 . S
H330 C338 0.950 . S
H331 C339 0.951 . S
H332 C340 0.951 . S
C333 C327 1.265 . S
C333 H328 0.950 . S
C333 C334 1.478 . S
C334 C333 1.478 . S
C334 C335 1.397 . S
C334 C351 1.394 . S
C335 C334 1.397 . S
C335 C336 1.438 . S
C335 C340 1.429 . S
C336 C335 1.438 . S
C336 C337 1.428 . S
C336 C349 1.394 . S
C337 H329 0.949 . S
C337 C336 1.428 . S
C337 C338 1.345 . S
C338 H330 0.950 . S
C338 C337 1.345 . S
C338 C339 1.424 . S
C339 H331 0.951 . S
C339 C338 1.424 . S
C339 C340 1.347 . S
C340 H332 0.951 . S
C340 C335 1.429 . S
C340 C339 1.347 . S
H341 C342 0.951 . S
C342 H341 0.951 . S
C342 C348 1.265 . S
H343 C348 0.950 . S
H344 C352 0.949 . S
H345 C353 0.950 . S
H346 C354 0.951 . S
H347 C355 0.951 . S
C348 C342 1.265 . S
C348 H343 0.950 . S
C348 C349 1.478 . S
C349 C336 1.394 . S
C349 C348 1.478 . S
C349 C350 1.397 . S
C350 C349 1.397 . S
C350 C351 1.438 . S
C350 C355 1.429 . S
C351 C334 1.394 . S
C351 C350 1.438 . S
C351 C352 1.428 . S
C352 H344 0.949 . S
C352 C351 1.428 . S
C352 C353 1.345 . S
C353 H345 0.950 . S
C353 C352 1.345 . S
C353 C354 1.424 . S
C354 H346 0.951 . S
C354 C353 1.424 . S
C354 C355 1.347 . S
C355 H347 0.951 . S
C355 C350 1.429 . S
C355 C354 1.347 . S
H356 C357 0.951 . S
C357 H356 0.951 . S
C357 C363 1.265 . S
H358 C363 0.950 . S
H359 C367 0.949 . S
H360 C368 0.950 . S
H361 C369 0.951 . S
H362 C370 0.951 . S
C363 C357 1.265 . S
C363 H358 0.950 . S
C363 C364 1.478 . S
C364 C363 1.478 . S
C364 C365 1.397 . S
C364 C381 1.394 . S
C365 C364 1.397 . S
C365 C366 1.438 . S
C365 C370 1.429 . S
C366 C365 1.438 . S
C366 C367 1.428 . S
C366 C379 1.394 . S
C367 H359 0.949 . S
C367 C366 1.428 . S
C367 C368 1.345 . S
C368 H360 0.950 . S
C368 C367 1.345 . S
C368 C369 1.424 . S
C369 H361 0.951 . S
C369 C368 1.424 . S
C369 C370 1.347 . S
C370 H362 0.951 . S
C370 C365 1.429 . S
C370 C369 1.347 . S
H371 C372 0.951 . S
C372 H371 0.951 . S
C372 C378 1.265 . S
H373 C378 0.950 . S
H374 C382 0.949 . S
H375 C383 0.950 . S
H376 C384 0.951 . S
H377 C385 0.951 . S
C378 C372 1.265 . S
C378 H373 0.950 . S
C378 C379 1.478 . S
C379 C366 1.394 . S
C379 C378 1.478 . S
C379 C380 1.397 . S
C380 C379 1.397 . S
C380 C381 1.438 . S
C380 C385 1.429 . S
C381 C364 1.394 . S
C381 C380 1.438 . S
C381 C382 1.428 . S
C382 H374 0.949 . S
C382 C381 1.428 . S
C382 C383 1.345 . S
C383 H375 0.950 . S
C383 C382 1.345 . S
C383 C384 1.424 . S
C384 H376 0.951 . S
C384 C383 1.424 . S
C384 C385 1.347 . S
C385 H377 0.951 . S
C385 C380 1.429 . S
C385 C384 1.347 . S
H386 C387 0.951 . S
C387 H386 0.951 . S
C387 C393 1.265 . S
H388 C393 0.950 . S
H389 C397 0.949 . S
H390 C398 0.950 . S
H391 C399 0.951 . S
H392 C400 0.951 . S
C393 C387 1.265 . S
C393 H388 0.950 . S
C393 C394 1.478 . S
C394 C393 1.478 . S
C394 C395 1.397 . S
C394 C411 1.394 . S
C395 C394 1.397 . S
C395 C396 1.438 . S
C395 C400 1.429 . S
C396 C395 1.438 . S
C396 C397 1.428 . S
C396 C409 1.394 . S
C397 H389 0.949 . S
C397 C396 1.428 . S
C397 C398 1.345 . S
C398 H390 0.950 . S
C398 C397 1.345 . S
C398 C399 1.424 . S
C399 H391 0.951 . S
C399 C398 1.424 . S
C399 C400 1.347 . S
C400 H392 0.951 . S
C400 C395 1.429 . S
C400 C399 1.347 . S
H401 C402 0.951 . S
C402 H401 0.951 . S
C402 C408 1.265 . S
H403 C408 0.950 . S
H404 C412 0.949 . S
H405 C413 0.950 . S
H406 C414 0.951 . S
H407 C415 0.951 . S
C408 C402 1.265 . S
C408 H403 0.950 . S
C408 C409 1.478 . S
C409 C396 1.394 . S
C409 C408 1.478 . S
C409 C410 1.397 . S
C410 C409 1.397 . S
C410 C411 1.438 . S
C410 C415 1.429 . S
C411 C394 1.394 . S
C411 C410 1.438 . S
C411 C412 1.428 . S
C412 H404 0.949 . S
C412 C411 1.428 . S
C412 C413 1.345 . S
C413 H405 0.950 . S
C413 C412 1.345 . S
C413 C414 1.424 . S
C414 H406 0.951 . S
C414 C413 1.424 . S
C414 C415 1.347 . S
C415 H407 0.951 . S
C415 C410 1.429 . S
C415 C414 1.347 . S
H416 C417 0.951 . S
C417 H416 0.951 . S
C417 C423 1.265 . S
H418 C423 0.950 . S
H419 C427 0.949 1_545 S
H420 C428 0.950 . S
H421 C429 0.934 1_545 S
H422 C430 0.951 . S
C423 C417 1.265 . S
C423 H418 0.950 . S
C423 C424 1.478 . S
C424 C423 1.478 . S
C424 C425 1.397 . S
C424 C441 1.394 . S
C425 C424 1.397 . S
C425 C426 1.438 . S
C425 C430 1.429 . S
C426 C425 1.438 . S
C426 C427 1.428 . S
C426 C439 1.394 . S
C427 H419 0.949 1_565 S
C427 C426 1.428 . S
C427 C428 1.345 1_565 S
C428 H420 0.950 . S
C428 C427 1.345 1_545 S
C428 C429 1.411 1_545 S
C429 H421 0.934 1_565 S
C429 C428 1.411 1_565 S
C429 C430 1.377 . S
C430 H422 0.951 . S
C430 C425 1.429 . S
C430 C429 1.377 . S
H431 C432 0.951 . S
C432 H431 0.951 . S
C432 C438 1.265 . S
H433 C438 0.950 . S
H434 C442 0.949 . S
H435 C443 0.950 . S
H436 C444 0.951 . S
H437 C445 0.951 . S
C438 C432 1.265 . S
C438 H433 0.950 . S
C438 C439 1.478 . S
C439 C426 1.394 . S
C439 C438 1.478 . S
C439 C440 1.397 . S
C440 C439 1.397 . S
C440 C441 1.438 . S
C440 C445 1.429 . S
C441 C424 1.394 . S
C441 C440 1.438 . S
C441 C442 1.428 . S
C442 H434 0.949 . S
C442 C441 1.428 . S
C442 C443 1.345 . S
C443 H435 0.950 . S
C443 C442 1.345 . S
C443 C444 1.424 . S
C444 H436 0.951 . S
C444 C443 1.424 . S
C444 C445 1.347 . S
C445 H437 0.951 . S
C445 C440 1.429 . S
C445 C444 1.347 . S
C102 C60 1.239 . S
C87 C43 1.432 . S
C117 C10 1.455 . S
C132 C81 1.228 . S
C147 C21 1.587 . S
C162 C57 1.436 . S
C177 C32 1.590 . S
C192 C78 1.396 . S
C222 C62 1.458 . S
C207 C5 1.532 . S
C252 C82 1.501 . S
C237 C15 1.607 . S
C267 C27 1.554 . S
C282 C58 1.549 . S
C297 C38 1.528 . S
C312 C80 1.464 . S
C342 C79 1.491 . S
C327 C16 1.518 . S
C372 C61 1.497 . S
C357 C26 1.503 . S
C402 C83 1.451 . S
C387 C37 1.442 . S
C417 C4 1.460 1_556 S
C432 C59 1.405 . S
