# Generated by pormake.
# Topology pth, (4,4)-cn, num edge types: 1
# Building blocks:
#     Node 0, Type 0, BuildingBlock: KUFVIS_clean_sbu_0, # of connection points: 4
#     Node 1, Type 0, BuildingBlock: KUFVIS_clean_sbu_0, # of connection points: 4
#     Node 2, Type 0, BuildingBlock: KUFVIS_clean_sbu_0, # of connection points: 4
#     Node 3, Type 1, BuildingBlock: NAWXER_clean_linker_0, # of connection points: 4
#     Node 4, Type 1, BuildingBlock: NAWXER_clean_linker_0, # of connection points: 4
#     Node 5, Type 1, BuildingBlock: NAWXER_clean_linker_0, # of connection points: 4
#     Edge 6, Type (0, 1), BuildingBlock: OJICUG_clean_linker_0, # of connection points: 2
#     Edge 7, Type (0, 1), BuildingBlock: OJICUG_clean_linker_0, # of connection points: 2
#     Edge 8, Type (0, 1), BuildingBlock: OJICUG_clean_linker_0, # of connection points: 2
#     Edge 9, Type (0, 1), BuildingBlock: OJICUG_clean_linker_0, # of connection points: 2
#     Edge 10, Type (0, 1), BuildingBlock: OJICUG_clean_linker_0, # of connection points: 2
#     Edge 11, Type (0, 1), BuildingBlock: OJICUG_clean_linker_0, # of connection points: 2
#     Edge 12, Type (0, 1), BuildingBlock: OJICUG_clean_linker_0, # of connection points: 2
#     Edge 13, Type (0, 1), BuildingBlock: OJICUG_clean_linker_0, # of connection points: 2
#     Edge 14, Type (0, 1), BuildingBlock: OJICUG_clean_linker_0, # of connection points: 2
#     Edge 15, Type (0, 1), BuildingBlock: OJICUG_clean_linker_0, # of connection points: 2
#     Edge 16, Type (0, 1), BuildingBlock: OJICUG_clean_linker_0, # of connection points: 2
#     Edge 17, Type (0, 1), BuildingBlock: OJICUG_clean_linker_0, # of connection points: 2
# Relax obj value: 0.011
# Max RMSD: 0.077
# Mean RMSD: 0.050
data_MOF--net-pth--node1-KUFVIS_clean_sbu_0--node2-NAWXER_clean_linker_0--edge1-OJICUG_clean_linker_0
_symmetry_space_group_name_H-M    P1
_symmetry_Int_Tables_number       1
_symmetry_cell_setting            triclinic
loop_
_symmetry_equiv_pos_as_xyz
'x, y, z'
_cell_length_a     22.134658
_cell_length_b     22.195477
_cell_length_c     51.039906
_cell_angle_alpha  90.440495
_cell_angle_beta   91.914058
_cell_angle_gamma 120.07336
loop_
_atom_site_label
_atom_site_type_symbol
_atom_site_fract_x
_atom_site_fract_y
_atom_site_fract_z
_atom_type_partial_charge
Mn0 Mn 0.0307 0.07958 0.04744 0.0
Mn1 Mn 0.93079 0.12878 0.01298 0.0
C2 C 0.96143 0.01228 0.01196 0.0
C3 C 0.04099 0.01841 0.08267 0.0
C4 C 0.08765 0.19456 0.00719 0.0
O5 O 0.03085 0.15304 0.07151 0.0
O6 O 0.95602 0.17555 0.04844 0.0
C7 C 0.80613 0.06147 0.04525 0.0
N8 N 0.83537 0.07037 0.0215 0.0
C9 C 0.72461 0.98805 1.0006 0.0
C10 C 0.69314 0.97885 0.02476 0.0
C11 C 0.73416 0.01554 0.04719 0.0
C12 C 0.79651 0.03482 0.99984 0.0
H13 H 0.83758 0.08883 0.0626 0.0
C14 C 0.99524 0.18352 0.06879 0.0
O15 O 0.09619 0.06777 0.07215 0.0
O16 O 0.98097 0.00668 0.07323 0.0
N17 N 0.90149 0.08682 0.97853 0.0
C18 C 0.94044 0.09834 0.95705 0.0
C19 C 0.90751 0.06451 0.93307 0.0
C20 C 0.83492 0.01911 0.9314 0.0
C21 C 0.79587 0.00803 0.95374 0.0
C22 C 0.83142 0.04405 0.97702 0.0
H23 H 0.9963 0.13231 0.95827 0.0
O24 O 0.01367 0.00599 0.0206 0.0
O25 O 0.9508 0.05688 0.02461 0.0
O26 O 0.09744 0.1563 0.02341 0.0
O27 O 0.0281 0.18958 1.00242 0.0
C28 C 0.72327 0.96176 0.95394 0.0
C29 C 0.6877 0.95161 0.97737 0.0
H30 H 0.63772 0.94313 0.02638 0.0
H31 H 0.71039 0.00817 0.06596 0.0
H32 H 0.9381 0.07298 0.91595 0.0
H33 H 0.80983 0.99259 0.91292 0.0
H34 H 0.69444 0.93296 0.93626 0.0
H35 H 0.63206 0.91509 0.97736 0.0
Mn36 Mn 0.0262 0.08319 0.3807 0.0
Mn37 Mn 0.11788 0.23153 0.41707 0.0
C38 C 0.09555 0.08723 0.41626 0.0
C39 C 0.02103 0.01417 0.34497 0.0
C40 C 0.96199 0.13353 0.42161 0.0
O41 O 0.02384 0.15598 0.35721 0.0
O42 O 0.09151 0.25271 0.38211 0.0
C43 C 0.24419 0.29853 0.3857 0.0
N44 N 0.21419 0.27402 0.40902 0.0
C45 C 0.32549 0.30599 0.43012 0.0
C46 C 0.35764 0.33202 0.40637 0.0
C47 C 0.31678 0.32814 0.38406 0.0
C48 C 0.25298 0.27726 0.43059 0.0
H49 H 0.21292 0.29529 0.36847 0.0
C50 C 0.0551 0.22192 0.3611 0.0
O51 O 0.96429 0.00549 0.35525 0.0
O52 O 0.07967 0.06428 0.35481 0.0
N53 N 0.14727 0.21884 0.45127 0.0
C54 C 0.10794 0.18957 0.47246 0.0
C55 C 0.14081 0.18846 0.49632 0.0
C56 C 0.21372 0.21782 0.49819 0.0
C57 C 0.25318 0.2484 0.47621 0.0
C58 C 0.21761 0.24859 0.45302 0.0
H59 H 0.05188 0.16695 0.47115 0.0
O60 O 0.04546 0.02795 0.40695 0.0
O61 O 0.10398 0.14217 0.40425 0.0
O62 O 0.95557 0.08724 0.40488 0.0
O63 O 0.0197 0.18968 0.42699 0.0
C64 C 0.3263 0.27797 0.47629 0.0
C65 C 0.3624 0.30653 0.45324 0.0
H66 H 0.41358 0.35464 0.40499 0.0
H67 H 0.34117 0.34779 0.36562 0.0
H68 H 0.11 0.16483 0.51321 0.0
H69 H 0.23879 0.21639 0.51658 0.0
H70 H 0.35523 0.27844 0.49391 0.0
H71 H 0.41851 0.32839 0.45348 0.0
Mn72 Mn 0.04043 0.0659 0.71413 0.0
Mn73 Mn 0.98252 0.15211 0.75114 0.0
C74 C 0.11021 0.13874 0.74835 0.0
C75 C 0.09864 0.05934 0.67788 0.0
C76 C 0.93713 1.00013 0.75806 0.0
O77 O 0.96014 0.05882 0.69134 0.0
O78 O 0.92552 0.11683 0.71758 0.0
C79 C 0.0204 0.27133 0.71654 0.0
N80 N 0.02413 0.24655 0.74051 0.0
C81 C 0.09283 0.36273 0.75903 0.0
C82 C 0.08929 0.38948 0.73458 0.0
C83 C 0.05307 0.34356 0.71324 0.0
C84 C 0.05886 0.29027 0.76118 0.0
H85 H 0.9927 0.23625 0.70007 0.0
C86 C 0.92026 0.08316 0.69628 0.0
O87 O 0.05362 0.00355 0.68945 0.0
O88 O 0.10776 0.11827 0.68684 0.0
N89 N 0.03258 0.19022 0.78398 0.0
C90 C 0.03638 0.15626 0.80555 0.0
C91 C 0.07323 0.19479 0.82834 0.0
C92 C 0.1054 0.26774 0.82879 0.0
C93 C 0.10059 0.30155 0.8064 0.0
C94 C 0.0628 0.26038 0.78429 0.0
H95 H 0.01248 0.10032 0.80521 0.0
O96 O 0.11988 0.08944 0.73949 0.0
O97 O 0.05995 0.14453 0.73687 0.0
O98 O 0.97123 0.99465 0.73937 0.0
O99 O 0.93818 0.05657 0.76409 0.0
C100 C 0.13376 0.37457 0.80486 0.0
C101 C 0.12995 0.40514 0.78118 0.0
H102 H 0.11476 0.44517 0.73191 0.0
H103 H 0.05042 0.36382 0.69428 0.0
H104 H 0.07718 0.16834 0.84547 0.0
H105 H 0.13451 0.29732 0.8463 0.0
H106 H 0.16352 0.40774 0.82161 0.0
H107 H 0.15667 0.46136 0.78011 0.0
C108 C 0.98981 0.37934 0.262 0.0
C109 C 0.04604 0.40111 0.2805 0.0
C110 C 0.98832 0.42642 0.24416 0.0
C111 C 0.04316 0.49588 0.24449 0.0
C112 C 0.10171 0.47023 0.28005 0.0
C113 C 0.09989 0.51712 0.26246 0.0
C114 C 0.03976 0.5488 0.22809 0.0
C115 C 0.05765 0.40012 0.17118 0.0
C116 C 0.01198 0.37926 0.14878 0.0
C117 C 0.06429 0.45307 0.18828 0.0
C118 C 0.0237 0.48484 0.18386 0.0
C119 C 0.97247 0.4122 0.14431 0.0
C120 C 0.97787 0.46363 0.16166 0.0
C121 C 0.03179 0.5442 0.20037 0.0
C122 C 0.09423 0.83409 0.17419 0.0
C123 C 0.0448 0.81839 0.15345 0.0
C124 C 0.09163 0.78095 0.18956 0.0
C125 C 0.03949 0.71121 0.18447 0.0
C126 C 0.99358 0.7484 0.14812 0.0
C127 C 0.99127 0.69538 0.16337 0.0
C128 C 0.03637 0.65427 0.2004 0.0
C129 C 0.97938 0.77763 0.2537 0.0
C130 C 0.02809 0.81271 0.27458 0.0
C131 C 0.98339 0.72718 0.23848 0.0
C132 C 0.03636 0.71102 0.24378 0.0
C133 C 0.08034 0.79557 0.28009 0.0
C134 C 0.0841 0.74488 0.26495 0.0
C135 C 0.04018 0.65675 0.22803 0.0
H136 H 0.94579 0.32673 0.26192 0.0
H137 H 0.94345 0.40924 0.23072 0.0
H138 H 0.1466 0.48854 0.29355 0.0
H139 H 0.14271 0.57049 0.26305 0.0
H140 H 0.0888 0.37605 0.17551 0.0
H141 H 0.10246 0.47003 0.20449 0.0
H142 H 0.93834 0.39978 0.12699 0.0
H143 H 0.94664 0.48776 0.15742 0.0
H144 H 0.1343 0.88746 0.17874 0.0
H145 H 0.1306 0.79433 0.20533 0.0
H146 H 0.95556 0.73451 0.13196 0.0
H147 H 0.95122 0.64195 0.15884 0.0
H148 H 0.93858 0.78965 0.24896 0.0
H149 H 0.94471 0.70039 0.22268 0.0
H150 H 0.11788 0.82075 0.29635 0.0
H151 H 0.12471 0.73254 0.26965 0.0
N152 N 0.04322 0.60472 0.24077 0.0
N153 N 0.03108 0.59767 0.18774 0.0
C154 C 0.74769 0.12814 0.50968 0.0
C155 C 0.73267 0.08744 0.48648 0.0
C156 C 0.69414 0.12048 0.52554 0.0
C157 C 0.62424 0.07059 0.51903 0.0
C158 C 0.66262 0.0375 0.48 0.0
C159 C 0.60911 0.02935 0.49606 0.0
C160 C 0.56613 0.06562 0.53441 0.0
C161 C 0.69361 0.02134 0.59558 0.0
C162 C 0.72174 0.07127 0.61635 0.0
C163 C 0.64488 0.02109 0.57723 0.0
C164 C 0.62367 0.07083 0.57935 0.0
C165 C 0.7016 0.12205 0.61781 0.0
C166 C 0.65271 0.12137 0.59969 0.0
C167 C 0.56702 0.0677 0.56214 0.0
C168 C 0.27719 0.00837 0.58551 0.0
C169 C 0.29378 0.05771 0.60596 0.0
C170 C 0.33001 0.01003 0.57062 0.0
C171 C 0.40024 0.06109 0.57595 0.0
C172 C 0.36423 0.10803 0.61142 0.0
C173 C 0.41687 0.10937 0.59669 0.0
C174 C 0.45717 0.06385 0.56061 0.0
C175 C 0.32909 0.11806 0.50679 0.0
C176 C 0.30231 0.07654 0.48386 0.0
C177 C 0.38001 0.11478 0.52262 0.0
C178 C 0.40293 0.06784 0.51628 0.0
C179 C 0.3268 0.03158 0.4769 0.0
C180 C 0.37661 0.02709 0.49304 0.0
C181 C 0.45687 0.06359 0.53293 0.0
H182 H 0.80096 0.1666 0.51554 0.0
H183 H 0.70756 0.15511 0.54249 0.0
H184 H 0.64874 0.00596 0.46214 0.0
H185 H 0.55556 0.99128 0.49031 0.0
H186 H 0.70744 0.98112 0.59397 0.0
H187 H 0.62218 0.98082 0.56194 0.0
H188 H 0.72332 0.16232 0.6331 0.0
H189 H 0.63711 0.16027 0.60168 0.0
H190 H 0.2234 0.96897 0.58086 0.0
H191 H 0.31605 0.97134 0.55503 0.0
H192 H 0.37885 0.1459 0.62738 0.0
H193 H 0.47071 0.14874 0.60134 0.0
H194 H 0.31144 0.15379 0.51222 0.0
H195 H 0.40179 0.14948 0.53965 0.0
H196 H 0.30689 0.99953 0.45911 0.0
H197 H 0.39427 0.99146 0.48745 0.0
N198 N 0.51092 0.06357 0.52096 0.0
N199 N 0.51255 0.06672 0.57404 0.0
C200 C 0.33373 0.33588 0.84465 0.0
C201 C 0.32288 0.35087 0.81869 0.0
C202 C 0.38721 0.38657 0.8611 0.0
C203 C 0.42864 0.45516 0.85273 0.0
C204 C 0.36614 0.41907 0.81015 0.0
C205 C 0.41707 0.4704 0.827 0.0
C206 C 0.48779 0.5108 0.8691 0.0
C207 C 0.31438 0.43153 0.92797 0.0
C208 C 0.32035 0.38535 0.94531 0.0
C209 C 0.36895 0.47365 0.91185 0.0
C210 C 0.43124 0.47172 0.91312 0.0
C211 C 0.38348 0.38411 0.94641 0.0
C212 C 0.4387 0.42776 0.93083 0.0
C213 C 0.4897 0.51748 0.89676 0.0
C214 C 0.73188 0.80573 0.92 0.0
C215 C 0.75764 0.79285 0.94347 0.0
C216 C 0.68079 0.75025 0.90444 0.0
C217 C 0.65686 0.68106 0.91165 0.0
C218 C 0.7324 0.72406 0.9511 0.0
C219 C 0.68262 0.66862 0.93527 0.0
C220 C 0.60137 0.62128 0.89597 0.0
C221 C 0.7772 0.74434 0.84229 0.0
C222 C 0.75654 0.76446 0.81923 0.0
C223 C 0.72701 0.69363 0.85796 0.0
C224 C 0.65536 0.66472 0.85137 0.0
C225 C 0.68548 0.73259 0.81178 0.0
C226 C 0.63536 0.68335 0.82773 0.0
C227 C 0.60014 0.61442 0.86833 0.0
H228 H 0.30159 0.28483 0.85249 0.0
H229 H 0.39661 0.37067 0.87999 0.0
H230 H 0.36238 0.43345 0.79024 0.0
H231 H 0.44847 0.52224 0.81956 0.0
H232 H 0.26789 0.436 0.92692 0.0
H233 H 0.36289 0.50839 0.89862 0.0
H234 H 0.39025 0.3487 0.95896 0.0
H235 H 0.48674 0.42598 0.93212 0.0
H236 H 0.7501 0.85862 0.91404 0.0
H237 H 0.65964 0.76153 0.88694 0.0
H238 H 0.75151 0.7133 0.96927 0.0
H239 H 0.66412 0.61586 0.94151 0.0
H240 H 0.83201 0.76839 0.84826 0.0
H241 H 0.74424 0.67816 0.87543 0.0
H242 H 0.66862 0.74782 0.79413 0.0
H243 H 0.58063 0.66128 0.82192 0.0
N244 N 0.54337 0.55968 0.85624 0.0
N245 N 0.5464 0.57204 0.909 0.0
C246 C 0.06093 0.27053 0.10545 0.0
C247 C 0.99891 0.23057 0.09024 0.0
H248 H 0.11485 0.35034 0.13507 0.0
C249 C 0.94043 0.23695 0.0953 0.0
H250 H 0.10695 0.26683 0.10187 0.0
C251 C 0.94396 0.28281 0.11496 0.0
C252 C 0.00683 0.32544 0.12955 0.0
H253 H 0.8916 0.20613 0.08414 0.0
H254 H 0.89711 0.28487 0.11856 0.0
C255 C 0.06515 0.31805 0.12467 0.0
C256 C 0.90092 0.1774 0.44972 0.0
C257 C 0.90069 0.12135 0.4366 0.0
H258 H 0.84795 0.21112 0.47492 0.0
C259 C 0.84344 0.05395 0.43923 0.0
H260 H 0.94379 0.23015 0.44794 0.0
C261 C 0.7887 0.04275 0.45526 0.0
C262 C 0.78969 0.0988 0.46882 0.0
H263 H 0.84185 0.00956 0.42955 0.0
H264 H 0.74652 0.98991 0.45752 0.0
C265 C 0.84607 0.16636 0.46545 0.0
C266 C 0.87921 0.94817 0.79977 0.0
C267 C 0.89451 0.9387 0.77403 0.0
H268 H 0.825 0.89979 0.83439 0.0
C269 C 0.86703 0.87053 0.76375 0.0
H270 H 0.8993 0.99982 0.80832 0.0
C271 C 0.82311 0.81322 0.77864 0.0
C272 C 0.80782 0.82333 0.80422 0.0
H273 H 0.8776 0.8616 0.74397 0.0
H274 H 0.80038 0.76114 0.77011 0.0
C275 C 0.83696 0.89104 0.81479 0.0
C276 C 0.98243 0.92135 0.11362 0.0
C277 C 0.04455 0.97308 0.10305 0.0
H278 H 0.93411 0.83283 0.13796 0.0
C279 C 0.10798 0.97683 0.11068 0.0
H280 H 0.93267 0.91726 0.10834 0.0
C281 C 0.10866 0.92788 0.12772 0.0
C282 C 0.04591 0.87429 0.1373 0.0
H283 H 0.15666 0.01604 0.10284 0.0
H284 H 0.15789 0.93039 0.13261 0.0
C285 C 0.9831 0.87259 0.13049 0.0
C286 C 0.21785 0.11691 0.42654 0.0
C287 C 0.14889 0.08836 0.43442 0.0
H288 H 0.32095 0.13544 0.43634 0.0
C289 C 0.13015 0.05464 0.45839 0.0
H290 H 0.23269 0.14129 0.40772 0.0
C291 C 0.1806 0.05209 0.47482 0.0
C292 C 0.2496 0.08093 0.46696 0.0
H293 H 0.07675 0.03094 0.46446 0.0
H294 H 0.16564 0.02668 0.49345 0.0
C295 C 0.26792 0.11312 0.4427 0.0
C296 C 0.1917 0.17337 0.78758 0.0
C297 C 0.16308 0.19226 0.76652 0.0
H298 H 0.26545 0.20736 0.81989 0.0
C299 C 0.1898 0.26281 0.76156 0.0
H300 H 0.17363 0.11899 0.79113 0.0
C301 C 0.24005 0.31394 0.7787 0.0
C302 C 0.26808 0.29582 0.80048 0.0
H303 H 0.1711 0.27851 0.74454 0.0
H304 H 0.25548 0.36744 0.77485 0.0
C305 C 0.24385 0.22446 0.80428 0.0
C306 C 0.81374 0.08897 0.68247 0.0
C307 C 0.86687 0.07509 0.67601 0.0
H308 H 0.72554 0.09663 0.66905 0.0
C309 C 0.87007 0.05664 0.64986 0.0
H310 H 0.80913 0.10257 0.70244 0.0
C311 C 0.8225 0.05432 0.6305 0.0
C312 C 0.77047 0.07 0.6369 0.0
H313 H 0.91051 0.04588 0.64417 0.0
H314 H 0.82779 0.04218 0.61042 0.0
C315 C 0.766 0.08607 0.66323 0.0
C316 C 0.84068 0.91624 1.00179 0.0
C317 C 0.90892 0.95919 0.99367 0.0
H318 H 0.73885 0.82952 0.99191 0.0
C319 C 0.92775 0.94665 0.96912 0.0
H320 H 0.82586 0.92394 0.02101 0.0
C321 C 0.87786 0.89359 0.95236 0.0
C322 C 0.8095 0.85092 0.96046 0.0
H323 H 0.98069 0.97841 0.96284 0.0
H324 H 0.89285 0.88495 0.93332 0.0
C325 C 0.7913 0.86228 0.98531 0.0
C326 C 0.08417 0.97772 0.31489 0.0
C327 C 0.0206 0.96592 0.32467 0.0
H328 H 0.13615 0.93911 0.29129 0.0
C329 C 0.95854 0.90523 0.31649 0.0
H330 H 0.13296 0.02413 0.32066 0.0
C331 C 0.96052 0.85614 0.29963 0.0
C332 C 0.02461 0.86677 0.29077 0.0
H333 H 0.9088 0.89459 0.32374 0.0
H334 H 0.91221 0.80872 0.29432 0.0
C335 C 0.08615 0.92875 0.29819 0.0
C336 C 0.1379 0.99408 0.64918 0.0
C337 C 0.14244 0.05713 0.65703 0.0
H338 H 0.1824 0.94477 0.62686 0.0
C339 C 0.19343 0.1194 0.64627 0.0
H340 H 0.09918 0.94524 0.65713 0.0
C341 C 0.24093 0.11911 0.62903 0.0
C342 C 0.23852 0.05655 0.62206 0.0
H343 H 0.19811 0.16885 0.65176 0.0
H344 H 0.28045 0.16817 0.62148 0.0
C345 C 0.18542 0.99378 0.6318 0.0
C346 C 0.13555 0.269 0.96807 0.0
C347 C 0.14745 0.24546 0.99212 0.0
H348 H 0.17918 0.32759 0.93402 0.0
C349 C 0.21669 0.26966 1.00111 0.0
H350 H 0.08297 0.25171 0.9605 0.0
C351 C 0.27267 0.3161 0.98632 0.0
C352 C 0.26085 0.33811 0.96179 0.0
H353 H 0.22771 0.25321 0.01972 0.0
H354 H 0.32515 0.33485 0.99432 0.0
C355 C 0.19126 0.31363 0.95294 0.0
C356 C 0.0736 0.33677 0.34601 0.0
C357 C 0.0501 0.26613 0.34039 0.0
H358 H 0.08894 0.43353 0.33199 0.0
C359 C 0.02321 0.23933 0.3149 0.0
H360 H 0.09387 0.35925 0.36546 0.0
C361 C 0.02124 0.28266 0.29542 0.0
C362 C 0.04591 0.35362 0.30104 0.0
H363 H 0.00476 0.1852 0.30986 0.0
H364 H 1.00174 0.26089 0.27585 0.0
C365 C 0.07121 0.3797 0.32669 0.0
loop_
_geom_bond_atom_site_label_1
_geom_bond_atom_site_label_2
_geom_bond_distance
_geom_bond_site_symmetry_2
_ccdc_geom_bond_type
Mn0 O5 2.095 . S
Mn0 O15 2.162 . S
Mn0 O16 2.297 1_445 S
Mn0 O24 2.383 1_445 S
Mn0 O25 2.209 1_455 S
Mn0 O26 2.094 . S
Mn1 O6 2.121 . S
Mn1 N8 2.257 . S
Mn1 N17 2.282 1_554 S
Mn1 O25 2.215 . S
Mn1 O27 2.117 1_655 S
C2 O24 1.249 . S
C2 O25 1.283 1_565 S
C3 O15 1.281 1_565 S
C3 O16 1.236 1_455 S
C4 O26 1.240 . S
C4 O27 1.264 . S
O5 Mn0 2.095 . S
O5 C14 1.250 . S
O6 Mn1 2.121 . S
O6 C14 1.258 1_655 S
C7 N8 1.326 . S
C7 C11 1.460 . S
C7 H13 0.929 . S
N8 Mn1 2.257 . S
N8 C7 1.326 . S
N8 C12 1.362 1_554 S
C9 C10 1.258 . S
C9 C12 1.431 . S
C9 C29 1.449 . S
C10 C9 1.258 . S
C10 C11 1.477 1_556 S
C10 H30 0.931 . S
C11 C7 1.460 . S
C11 C10 1.477 1_554 S
C11 H31 0.930 . S
C12 N8 1.362 1_556 S
C12 C9 1.431 . S
C12 C22 1.476 . S
H13 C7 0.929 . S
C14 O5 1.250 . S
C14 O6 1.258 1_455 S
O15 Mn0 2.162 . S
O15 C3 1.281 1_545 S
O16 Mn0 2.297 1_665 S
O16 C3 1.236 1_655 S
N17 Mn1 2.282 1_556 S
N17 C18 1.328 . S
N17 C22 1.318 . S
C18 N17 1.328 . S
C18 C19 1.457 . S
C18 H23 0.929 1_655 S
C19 C18 1.457 . S
C19 C20 1.291 . S
C19 H32 0.931 . S
C20 C19 1.291 . S
C20 C21 1.373 . S
C20 H33 0.929 . S
C21 C20 1.373 . S
C21 C22 1.396 . S
C21 C28 1.403 . S
C22 C12 1.476 . S
C22 N17 1.318 . S
C22 C21 1.396 . S
H23 C18 0.929 1_455 S
O24 Mn0 2.383 1_665 S
O24 C2 1.249 . S
O25 Mn0 2.209 1_655 S
O25 Mn1 2.215 . S
O25 C2 1.283 1_545 S
O26 Mn0 2.094 . S
O26 C4 1.240 . S
O27 Mn1 2.117 1_455 S
O27 C4 1.264 . S
C28 C21 1.403 . S
C28 C29 1.399 . S
C28 H34 0.929 . S
C29 C9 1.449 . S
C29 C28 1.399 . S
C29 H35 0.930 . S
H30 C10 0.931 . S
H31 C11 0.930 . S
H32 C19 0.931 . S
H33 C20 0.929 . S
H34 C28 0.929 . S
H35 C29 0.930 . S
Mn36 O41 2.095 . S
Mn36 O51 2.162 1_545 S
Mn36 O52 2.297 1_655 S
Mn36 O60 2.385 1_655 S
Mn36 O61 2.209 1_655 S
Mn36 O62 2.094 . S
Mn37 O42 2.121 . S
Mn37 N44 2.257 . S
Mn37 N53 2.282 . S
Mn37 O61 2.215 . S
Mn37 O63 2.117 1_455 S
C38 O60 1.234 . S
C38 O61 1.283 . S
C39 O51 1.281 1_455 S
C39 O52 1.236 1_565 S
C40 O62 1.240 . S
C40 O63 1.264 . S
O41 Mn36 2.095 . S
O41 C50 1.250 1_655 S
O42 Mn37 2.121 . S
O42 C50 1.258 . S
C43 N44 1.326 . S
C43 C47 1.460 . S
C43 H49 0.929 . S
N44 Mn37 2.257 . S
N44 C43 1.326 . S
N44 C48 1.362 . S
C45 C46 1.258 . S
C45 C48 1.431 . S
C45 C65 1.449 . S
C46 C45 1.258 . S
C46 C47 1.477 . S
C46 H66 0.931 . S
C47 C43 1.460 . S
C47 C46 1.477 . S
C47 H67 0.930 . S
C48 N44 1.362 . S
C48 C45 1.431 . S
C48 C58 1.476 . S
H49 C43 0.929 . S
C50 O41 1.250 1_455 S
C50 O42 1.258 . S
O51 Mn36 2.162 1_565 S
O51 C39 1.281 1_655 S
O52 Mn36 2.297 1_455 S
O52 C39 1.236 1_545 S
N53 Mn37 2.282 . S
N53 C54 1.328 . S
N53 C58 1.318 . S
C54 N53 1.328 . S
C54 C55 1.457 . S
C54 H59 0.929 . S
C55 C54 1.457 . S
C55 C56 1.291 . S
C55 H68 0.931 . S
C56 C55 1.291 . S
C56 C57 1.373 . S
C56 H69 0.929 . S
C57 C56 1.373 . S
C57 C58 1.396 . S
C57 C64 1.403 . S
C58 C48 1.476 . S
C58 N53 1.318 . S
C58 C57 1.396 . S
H59 C54 0.929 . S
O60 Mn36 2.385 1_455 S
O60 C38 1.234 . S
O61 Mn36 2.209 1_455 S
O61 Mn37 2.215 . S
O61 C38 1.283 . S
O62 Mn36 2.094 . S
O62 C40 1.240 . S
O63 Mn37 2.117 1_655 S
O63 C40 1.264 . S
C64 C57 1.403 . S
C64 C65 1.399 . S
C64 H70 0.929 . S
C65 C45 1.449 . S
C65 C64 1.399 . S
C65 H71 0.930 . S
H66 C46 0.931 . S
H67 C47 0.930 . S
H68 C55 0.931 . S
H69 C56 0.929 . S
H70 C64 0.929 . S
H71 C65 0.930 . S
Mn72 O77 2.095 1_455 S
Mn72 O87 2.162 . S
Mn72 O88 2.297 . S
Mn72 O96 2.385 . S
Mn72 O97 2.209 . S
Mn72 O98 2.094 1_445 S
Mn73 O78 2.121 . S
Mn73 N80 2.257 . S
Mn73 N89 2.282 . S
Mn73 O97 2.215 1_655 S
Mn73 O99 2.117 . S
C74 O96 1.234 . S
C74 O97 1.283 . S
C75 O87 1.281 . S
C75 O88 1.236 . S
C76 O98 1.240 . S
C76 O99 1.264 1_565 S
O77 Mn72 2.095 1_655 S
O77 C86 1.250 . S
O78 Mn73 2.121 . S
O78 C86 1.258 . S
C79 N80 1.326 . S
C79 C83 1.460 . S
C79 H85 0.929 . S
N80 Mn73 2.257 . S
N80 C79 1.326 . S
N80 C84 1.362 1_655 S
C81 C82 1.258 . S
C81 C84 1.431 . S
C81 C101 1.449 . S
C82 C81 1.258 . S
C82 C83 1.477 1_455 S
C82 H102 0.931 . S
C83 C79 1.460 . S
C83 C82 1.477 1_655 S
C83 H103 0.930 . S
C84 N80 1.362 1_455 S
C84 C81 1.431 . S
C84 C94 1.476 . S
H85 C79 0.929 . S
C86 O77 1.250 . S
C86 O78 1.258 . S
O87 Mn72 2.162 . S
O87 C75 1.281 . S
O88 Mn72 2.297 . S
O88 C75 1.236 . S
N89 Mn73 2.282 . S
N89 C90 1.328 1_655 S
N89 C94 1.318 1_655 S
C90 N89 1.328 1_455 S
C90 C91 1.457 . S
C90 H95 0.929 1_455 S
C91 C90 1.457 . S
C91 C92 1.291 . S
C91 H104 0.931 . S
C92 C91 1.291 . S
C92 C93 1.373 . S
C92 H105 0.929 . S
C93 C92 1.373 . S
C93 C94 1.396 . S
C93 C100 1.403 . S
C94 C84 1.476 . S
C94 N89 1.318 1_455 S
C94 C93 1.396 . S
H95 C90 0.929 1_655 S
O96 Mn72 2.385 . S
O96 C74 1.234 . S
O97 Mn72 2.209 . S
O97 Mn73 2.215 1_455 S
O97 C74 1.283 . S
O98 Mn72 2.094 1_665 S
O98 C76 1.240 . S
O99 Mn73 2.117 . S
O99 C76 1.264 1_545 S
C100 C93 1.403 . S
C100 C101 1.399 . S
C100 H106 0.929 . S
C101 C81 1.449 . S
C101 C100 1.399 . S
C101 H107 0.930 . S
H102 C82 0.931 . S
H103 C83 0.930 . S
H104 C91 0.931 . S
H105 C92 0.929 . S
H106 C100 0.929 . S
H107 C101 0.930 . S
C108 C109 1.384 1_655 S
C108 C110 1.384 . S
C108 H136 0.931 . S
C109 C108 1.384 1_455 S
C109 C112 1.382 . S
C110 C108 1.384 . S
C110 C111 1.381 1_655 S
C110 H137 0.930 . S
C111 C110 1.381 1_455 S
C111 C113 1.381 . S
C111 C114 1.487 . S
C112 C109 1.382 . S
C112 C113 1.387 . S
C112 H138 0.930 . S
C113 C111 1.381 . S
C113 C112 1.387 . S
C113 H139 0.931 . S
C114 C111 1.487 . S
C114 C121 1.399 . S
C114 N152 1.343 . S
C115 C116 1.384 . S
C115 C117 1.384 . S
C115 H140 0.931 . S
C116 C115 1.384 . S
C116 C119 1.382 1_455 S
C117 C115 1.384 . S
C117 C118 1.381 . S
C117 H141 0.930 . S
C118 C117 1.381 . S
C118 C120 1.381 1_455 S
C118 C121 1.487 . S
C119 C116 1.382 1_655 S
C119 C120 1.387 . S
C119 H142 0.930 . S
C120 C118 1.381 1_655 S
C120 C119 1.387 . S
C120 H143 0.931 . S
C121 C114 1.399 . S
C121 C118 1.487 . S
C121 N153 1.343 . S
C122 C123 1.384 . S
C122 C124 1.384 . S
C122 H144 0.931 . S
C123 C122 1.384 . S
C123 C126 1.382 1_455 S
C124 C122 1.384 . S
C124 C125 1.381 . S
C124 H145 0.930 . S
C125 C124 1.381 . S
C125 C127 1.381 1_455 S
C125 C128 1.487 . S
C126 C123 1.382 1_655 S
C126 C127 1.387 . S
C126 H146 0.930 . S
C127 C125 1.381 1_655 S
C127 C126 1.387 . S
C127 H147 0.931 . S
C128 C125 1.487 . S
C128 C135 1.399 . S
C128 N153 1.343 . S
C129 C130 1.384 1_655 S
C129 C131 1.384 . S
C129 H148 0.931 . S
C130 C129 1.384 1_455 S
C130 C133 1.382 . S
C131 C129 1.384 . S
C131 C132 1.381 1_655 S
C131 H149 0.930 . S
C132 C131 1.381 1_455 S
C132 C134 1.381 . S
C132 C135 1.487 . S
C133 C130 1.382 . S
C133 C134 1.387 . S
C133 H150 0.930 . S
C134 C132 1.381 . S
C134 C133 1.387 . S
C134 H151 0.931 . S
C135 C128 1.399 . S
C135 C132 1.487 . S
C135 N152 1.343 . S
H136 C108 0.931 . S
H137 C110 0.930 . S
H138 C112 0.930 . S
H139 C113 0.931 . S
H140 C115 0.931 . S
H141 C117 0.930 . S
H142 C119 0.930 . S
H143 C120 0.931 . S
H144 C122 0.931 . S
H145 C124 0.930 . S
H146 C126 0.930 . S
H147 C127 0.931 . S
H148 C129 0.931 . S
H149 C131 0.930 . S
H150 C133 0.930 . S
H151 C134 0.931 . S
N152 C114 1.343 . S
N152 C135 1.343 . S
N153 C121 1.343 . S
N153 C128 1.343 . S
C154 C155 1.384 . S
C154 C156 1.384 . S
C154 H182 0.931 . S
C155 C154 1.384 . S
C155 C158 1.382 . S
C156 C154 1.384 . S
C156 C157 1.381 . S
C156 H183 0.930 . S
C157 C156 1.381 . S
C157 C159 1.381 . S
C157 C160 1.487 . S
C158 C155 1.382 . S
C158 C159 1.387 . S
C158 H184 0.930 . S
C159 C157 1.381 . S
C159 C158 1.387 . S
C159 H185 0.931 . S
C160 C157 1.487 . S
C160 C167 1.399 . S
C160 N198 1.343 . S
C161 C162 1.384 . S
C161 C163 1.384 . S
C161 H186 0.931 . S
C162 C161 1.384 . S
C162 C165 1.382 . S
C163 C161 1.384 . S
C163 C164 1.381 . S
C163 H187 0.930 . S
C164 C163 1.381 . S
C164 C166 1.381 . S
C164 C167 1.487 . S
C165 C162 1.382 . S
C165 C166 1.387 . S
C165 H188 0.930 . S
C166 C164 1.381 . S
C166 C165 1.387 . S
C166 H189 0.931 . S
C167 C160 1.399 . S
C167 C164 1.487 . S
C167 N199 1.343 . S
C168 C169 1.384 . S
C168 C170 1.384 . S
C168 H190 0.931 . S
C169 C168 1.384 . S
C169 C172 1.382 . S
C170 C168 1.384 . S
C170 C171 1.381 . S
C170 H191 0.930 . S
C171 C170 1.381 . S
C171 C173 1.381 . S
C171 C174 1.487 . S
C172 C169 1.382 . S
C172 C173 1.387 . S
C172 H192 0.930 . S
C173 C171 1.381 . S
C173 C172 1.387 . S
C173 H193 0.931 . S
C174 C171 1.487 . S
C174 C181 1.399 . S
C174 N199 1.343 . S
C175 C176 1.384 . S
C175 C177 1.384 . S
C175 H194 0.931 . S
C176 C175 1.384 . S
C176 C179 1.382 . S
C177 C175 1.384 . S
C177 C178 1.381 . S
C177 H195 0.930 . S
C178 C177 1.381 . S
C178 C180 1.381 . S
C178 C181 1.487 . S
C179 C176 1.382 . S
C179 C180 1.387 . S
C179 H196 0.930 . S
C180 C178 1.381 . S
C180 C179 1.387 . S
C180 H197 0.931 . S
C181 C174 1.399 . S
C181 C178 1.487 . S
C181 N198 1.343 . S
H182 C154 0.931 . S
H183 C156 0.930 . S
H184 C158 0.930 . S
H185 C159 0.931 . S
H186 C161 0.931 . S
H187 C163 0.930 . S
H188 C165 0.930 . S
H189 C166 0.931 . S
H190 C168 0.931 . S
H191 C170 0.930 . S
H192 C172 0.930 . S
H193 C173 0.931 . S
H194 C175 0.931 . S
H195 C177 0.930 . S
H196 C179 0.930 . S
H197 C180 0.931 . S
N198 C160 1.343 . S
N198 C181 1.343 . S
N199 C167 1.343 . S
N199 C174 1.343 . S
C200 C201 1.384 . S
C200 C202 1.384 . S
C200 H228 0.931 . S
C201 C200 1.384 . S
C201 C204 1.382 . S
C202 C200 1.384 . S
C202 C203 1.381 . S
C202 H229 0.930 . S
C203 C202 1.381 . S
C203 C205 1.381 . S
C203 C206 1.487 . S
C204 C201 1.382 . S
C204 C205 1.387 . S
C204 H230 0.930 . S
C205 C203 1.381 . S
C205 C204 1.387 . S
C205 H231 0.931 . S
C206 C203 1.487 . S
C206 C213 1.399 . S
C206 N244 1.343 . S
C207 C208 1.384 . S
C207 C209 1.384 . S
C207 H232 0.931 . S
C208 C207 1.384 . S
C208 C211 1.382 . S
C209 C207 1.384 . S
C209 C210 1.381 . S
C209 H233 0.930 . S
C210 C209 1.381 . S
C210 C212 1.381 . S
C210 C213 1.487 . S
C211 C208 1.382 . S
C211 C212 1.387 . S
C211 H234 0.930 . S
C212 C210 1.381 . S
C212 C211 1.387 . S
C212 H235 0.931 . S
C213 C206 1.399 . S
C213 C210 1.487 . S
C213 N245 1.343 . S
C214 C215 1.384 . S
C214 C216 1.384 . S
C214 H236 0.931 . S
C215 C214 1.384 . S
C215 C218 1.382 . S
C216 C214 1.384 . S
C216 C217 1.381 . S
C216 H237 0.930 . S
C217 C216 1.381 . S
C217 C219 1.381 . S
C217 C220 1.487 . S
C218 C215 1.382 . S
C218 C219 1.387 . S
C218 H238 0.930 . S
C219 C217 1.381 . S
C219 C218 1.387 . S
C219 H239 0.931 . S
C220 C217 1.487 . S
C220 C227 1.399 . S
C220 N245 1.343 . S
C221 C222 1.384 . S
C221 C223 1.384 . S
C221 H240 0.931 . S
C222 C221 1.384 . S
C222 C225 1.382 . S
C223 C221 1.384 . S
C223 C224 1.381 . S
C223 H241 0.930 . S
C224 C223 1.381 . S
C224 C226 1.381 . S
C224 C227 1.487 . S
C225 C222 1.382 . S
C225 C226 1.387 . S
C225 H242 0.930 . S
C226 C224 1.381 . S
C226 C225 1.387 . S
C226 H243 0.931 . S
C227 C220 1.399 . S
C227 C224 1.487 . S
C227 N244 1.343 . S
H228 C200 0.931 . S
H229 C202 0.930 . S
H230 C204 0.930 . S
H231 C205 0.931 . S
H232 C207 0.931 . S
H233 C209 0.930 . S
H234 C211 0.930 . S
H235 C212 0.931 . S
H236 C214 0.931 . S
H237 C216 0.930 . S
H238 C218 0.930 . S
H239 C219 0.931 . S
H240 C221 0.931 . S
H241 C223 0.930 . S
H242 C225 0.930 . S
H243 C226 0.931 . S
N244 C206 1.343 . S
N244 C227 1.343 . S
N245 C213 1.343 . S
N245 C220 1.343 . S
C246 C247 1.387 . S
C246 H250 0.950 . S
C246 C255 1.390 . S
C247 C246 1.387 . S
C247 C249 1.387 1_455 S
H248 C255 0.950 . S
C249 C247 1.387 1_655 S
C249 C251 1.390 . S
C249 H253 0.950 . S
H250 C246 0.950 . S
C251 C249 1.390 . S
C251 C252 1.387 1_655 S
C251 H254 0.950 . S
C252 C251 1.387 1_455 S
C252 C255 1.387 . S
H253 C249 0.950 . S
H254 C251 0.950 . S
C255 C246 1.390 . S
C255 H248 0.950 . S
C255 C252 1.387 . S
C256 C257 1.387 . S
C256 H260 0.950 . S
C256 C265 1.390 . S
C257 C256 1.387 . S
C257 C259 1.387 . S
H258 C265 0.950 . S
C259 C257 1.387 . S
C259 C261 1.390 . S
C259 H263 0.950 1_545 S
H260 C256 0.950 . S
C261 C259 1.390 . S
C261 C262 1.387 . S
C261 H264 0.950 1_545 S
C262 C261 1.387 . S
C262 C265 1.387 . S
H263 C259 0.950 1_565 S
H264 C261 0.950 1_565 S
C265 C256 1.390 . S
C265 H258 0.950 . S
C265 C262 1.387 . S
C266 C267 1.387 . S
C266 H270 0.950 . S
C266 C275 1.390 . S
C267 C266 1.387 . S
C267 C269 1.387 . S
H268 C275 0.950 . S
C269 C267 1.387 . S
C269 C271 1.390 . S
C269 H273 0.950 . S
H270 C266 0.950 . S
C271 C269 1.390 . S
C271 C272 1.387 . S
C271 H274 0.950 . S
C272 C271 1.387 . S
C272 C275 1.387 . S
H273 C269 0.950 . S
H274 C271 0.950 . S
C275 C266 1.390 . S
C275 H268 0.950 . S
C275 C272 1.387 . S
C276 C277 1.387 . S
C276 H280 0.950 . S
C276 C285 1.390 . S
C277 C276 1.387 . S
C277 C279 1.387 . S
H278 C285 0.950 . S
C279 C277 1.387 . S
C279 C281 1.390 . S
C279 H283 0.950 . S
H280 C276 0.950 . S
C281 C279 1.390 . S
C281 C282 1.387 . S
C281 H284 0.950 . S
C282 C281 1.387 . S
C282 C285 1.387 . S
H283 C279 0.950 . S
H284 C281 0.950 . S
C285 C276 1.390 . S
C285 H278 0.950 . S
C285 C282 1.387 . S
C286 C287 1.387 . S
C286 H290 0.950 . S
C286 C295 1.390 . S
C287 C286 1.387 . S
C287 C289 1.387 . S
H288 C295 0.950 . S
C289 C287 1.387 . S
C289 C291 1.390 . S
C289 H293 0.950 1_545 S
H290 C286 0.950 . S
C291 C289 1.390 . S
C291 C292 1.387 . S
C291 H294 0.950 1_545 S
C292 C291 1.387 . S
C292 C295 1.387 . S
H293 C289 0.950 1_565 S
H294 C291 0.950 1_565 S
C295 C286 1.390 . S
C295 H288 0.950 . S
C295 C292 1.387 . S
C296 C297 1.387 . S
C296 H300 0.950 . S
C296 C305 1.390 . S
C297 C296 1.387 . S
C297 C299 1.387 . S
H298 C305 0.950 . S
C299 C297 1.387 . S
C299 C301 1.390 . S
C299 H303 0.950 . S
H300 C296 0.950 . S
C301 C299 1.390 . S
C301 C302 1.387 . S
C301 H304 0.950 . S
C302 C301 1.387 . S
C302 C305 1.387 . S
H303 C299 0.950 . S
H304 C301 0.950 . S
C305 C296 1.390 . S
C305 H298 0.950 . S
C305 C302 1.387 . S
C306 C307 1.387 . S
C306 H310 0.950 . S
C306 C315 1.390 . S
C307 C306 1.387 . S
C307 C309 1.387 . S
H308 C315 0.950 . S
C309 C307 1.387 . S
C309 C311 1.390 . S
C309 H313 0.950 . S
H310 C306 0.950 . S
C311 C309 1.390 . S
C311 C312 1.387 . S
C311 H314 0.950 . S
C312 C311 1.387 . S
C312 C315 1.387 . S
H313 C309 0.950 . S
H314 C311 0.950 . S
C315 C306 1.390 . S
C315 H308 0.950 . S
C315 C312 1.387 . S
C316 C317 1.387 1_554 S
C316 H320 0.950 . S
C316 C325 1.390 1_554 S
C317 C316 1.387 1_556 S
C317 C319 1.387 . S
H318 C325 0.950 . S
C319 C317 1.387 . S
C319 C321 1.390 . S
C319 H323 0.950 1_565 S
H320 C316 0.950 . S
C321 C319 1.390 . S
C321 C322 1.387 . S
C321 H324 0.950 . S
C322 C321 1.387 . S
C322 C325 1.387 . S
H323 C319 0.950 1_545 S
H324 C321 0.950 . S
C325 C316 1.390 1_556 S
C325 H318 0.950 . S
C325 C322 1.387 . S
C326 C327 1.387 . S
C326 H330 0.950 . S
C326 C335 1.390 . S
C327 C326 1.387 . S
C327 C329 1.387 1_455 S
H328 C335 0.950 . S
C329 C327 1.387 1_655 S
C329 C331 1.390 . S
C329 H333 0.950 . S
H330 C326 0.950 . S
C331 C329 1.390 . S
C331 C332 1.387 1_655 S
C331 H334 0.950 . S
C332 C331 1.387 1_455 S
C332 C335 1.387 . S
H333 C329 0.950 . S
H334 C331 0.950 . S
C335 C326 1.390 . S
C335 H328 0.950 . S
C335 C332 1.387 . S
C336 C337 1.387 . S
C336 H340 0.950 1_545 S
C336 C345 1.390 . S
C337 C336 1.387 . S
C337 C339 1.387 . S
H338 C345 0.950 . S
C339 C337 1.387 . S
C339 C341 1.390 . S
C339 H343 0.950 . S
H340 C336 0.950 1_565 S
C341 C339 1.390 . S
C341 C342 1.387 . S
C341 H344 0.950 . S
C342 C341 1.387 . S
C342 C345 1.387 . S
H343 C339 0.950 . S
H344 C341 0.950 . S
C345 C336 1.390 . S
C345 H338 0.950 . S
C345 C342 1.387 . S
C346 C347 1.387 . S
C346 H350 0.950 . S
C346 C355 1.390 . S
C347 C346 1.387 . S
C347 C349 1.388 . S
H348 C355 0.950 . S
C349 C347 1.388 . S
C349 C351 1.391 . S
C349 H353 0.948 1_556 S
H350 C346 0.950 . S
C351 C349 1.391 . S
C351 C352 1.387 . S
C351 H354 0.950 . S
C352 C351 1.387 . S
C352 C355 1.387 . S
H353 C349 0.948 1_554 S
H354 C351 0.950 . S
C355 C346 1.390 . S
C355 H348 0.950 . S
C355 C352 1.387 . S
C356 C357 1.387 . S
C356 H360 0.950 . S
C356 C365 1.390 . S
C357 C356 1.387 . S
C357 C359 1.387 . S
H358 C365 0.950 . S
C359 C357 1.387 . S
C359 C361 1.390 . S
C359 H363 0.950 . S
H360 C356 0.950 . S
C361 C359 1.390 . S
C361 C362 1.387 . S
C361 H364 0.950 . S
C362 C361 1.387 . S
C362 C365 1.387 . S
H363 C359 0.950 . S
H364 C361 0.950 . S
C365 C356 1.390 . S
C365 H358 0.950 . S
C365 C362 1.387 . S
C252 C116 1.490 . S
C247 C14 1.448 . S
C257 C40 1.491 . S
C262 C155 1.509 . S
C267 C76 1.476 . S
C272 C222 1.496 . S
C277 C3 1.473 . S
C282 C123 1.473 . S
C292 C176 1.504 . S
C287 C38 1.491 . S
C297 C74 1.468 . S
C302 C201 1.485 . S
C312 C162 1.466 . S
C307 C86 1.422 . S
C317 C2 1.468 1_556 S
C322 C215 1.486 . S
C332 C130 1.474 . S
C327 C39 1.473 . S
C342 C169 1.485 . S
C337 C75 1.483 . S
C352 C208 1.493 . S
C347 C4 1.477 1_556 S
C357 C50 1.447 . S
C362 C109 1.490 . S
