# Generated by pormake.
# Topology pth, (4,4)-cn, num edge types: 1
# Building blocks:
#     Node 0, Type 0, BuildingBlock: CEKHIL_clean_sbu_0, # of connection points: 4
#     Node 1, Type 0, BuildingBlock: CEKHIL_clean_sbu_0, # of connection points: 4
#     Node 2, Type 0, BuildingBlock: CEKHIL_clean_sbu_0, # of connection points: 4
#     Node 3, Type 1, BuildingBlock: NAHDIM_clean_linker_0, # of connection points: 4
#     Node 4, Type 1, BuildingBlock: NAHDIM_clean_linker_0, # of connection points: 4
#     Node 5, Type 1, BuildingBlock: NAHDIM_clean_linker_0, # of connection points: 4
#     Edge 6, Type (0, 1), BuildingBlock: EZIPEK_clean_linker_0, # of connection points: 2
#     Edge 7, Type (0, 1), BuildingBlock: EZIPEK_clean_linker_0, # of connection points: 2
#     Edge 8, Type (0, 1), BuildingBlock: EZIPEK_clean_linker_0, # of connection points: 2
#     Edge 9, Type (0, 1), BuildingBlock: EZIPEK_clean_linker_0, # of connection points: 2
#     Edge 10, Type (0, 1), BuildingBlock: EZIPEK_clean_linker_0, # of connection points: 2
#     Edge 11, Type (0, 1), BuildingBlock: EZIPEK_clean_linker_0, # of connection points: 2
#     Edge 12, Type (0, 1), BuildingBlock: EZIPEK_clean_linker_0, # of connection points: 2
#     Edge 13, Type (0, 1), BuildingBlock: EZIPEK_clean_linker_0, # of connection points: 2
#     Edge 14, Type (0, 1), BuildingBlock: EZIPEK_clean_linker_0, # of connection points: 2
#     Edge 15, Type (0, 1), BuildingBlock: EZIPEK_clean_linker_0, # of connection points: 2
#     Edge 16, Type (0, 1), BuildingBlock: EZIPEK_clean_linker_0, # of connection points: 2
#     Edge 17, Type (0, 1), BuildingBlock: EZIPEK_clean_linker_0, # of connection points: 2
# Relax obj value: 0.007
# Max RMSD: 0.047
# Mean RMSD: 0.045
data_MOF--net-pth--node1-CEKHIL_clean_sbu_0--node2-NAHDIM_clean_linker_0--edge1-EZIPEK_clean_linker_0
_symmetry_space_group_name_H-M    P1
_symmetry_Int_Tables_number       1
_symmetry_cell_setting            triclinic
loop_
_symmetry_equiv_pos_as_xyz
'x, y, z'
_cell_length_a     25.370403
_cell_length_b     25.394722
_cell_length_c     65.968918
_cell_angle_alpha  90.73675
_cell_angle_beta   90.707372
_cell_angle_gamma 120.32146
loop_
_atom_site_label
_atom_site_type_symbol
_atom_site_fract_x
_atom_site_fract_y
_atom_site_fract_z
_atom_type_partial_charge
Co0 Co 0.02284 0.05731 0.07889 0.0
O1 O 0.98938 0.00093 0.10079 0.0
O2 O 0.05928 0.00648 0.07965 0.0
C3 C 0.04021 0.14084 0.09697 0.0
O4 O 0.07064 0.1093 0.05523 0.0
Co5 Co 0.959 0.1227 0.06179 0.0
O6 O 0.02879 0.16265 0.04324 0.0
C7 C 0.91014 0.99444 0.05078 0.0
C8 C 0.02546 0.98129 0.09525 0.0
C9 C 0.06979 0.14788 0.04305 0.0
O10 O 0.95626 0.99681 0.05995 0.0
O11 O 0.89923 0.03839 0.05106 0.0
O12 O 0.0787 0.12143 0.09759 0.0
O13 O 0.98968 0.1067 0.08687 0.0
Co14 Co 0.02573 0.04671 0.38981 0.0
O15 O 0.99624 0.08042 0.3695 0.0
O16 O 0.08305 0.13225 0.38724 0.0
C17 C 0.00625 0.9632 0.37137 0.0
O18 O 0.07408 0.03084 0.41121 0.0
Co19 Co 0.94717 0.92234 0.40984 0.0
O20 O 0.02551 0.93294 0.42029 0.0
C21 C 0.94078 0.03009 0.42426 0.0
C22 C 0.04642 0.13182 0.37324 0.0
C23 C 0.07236 0.98621 0.42071 0.0
O24 O 0.98117 0.06422 0.41148 0.0
O25 O 0.92038 0.97272 0.42554 0.0
O26 O 0.05594 0.01493 0.36861 0.0
O27 O 0.96848 0.96388 0.38418 0.0
Co28 Co 0.01237 0.02562 0.73584 0.0
O29 O 0.07092 0.07141 0.71537 0.0
O30 O 0.06775 0.99536 0.73253 0.0
C31 C 0.92929 0.01265 0.71801 0.0
O32 O 0.95896 0.96523 0.75693 0.0
Co33 Co 0.93509 0.06965 0.75753 0.0
O34 O 0.88824 0.98608 0.76826 0.0
C35 C 0.06646 0.12952 0.76656 0.0
C36 C 0.09385 0.03669 0.71889 0.0
C37 C 0.91104 0.95163 0.76709 0.0
O38 O 0.06828 0.0859 0.75718 0.0
O39 O 0.01881 0.13451 0.76715 0.0
O40 O 0.95181 0.97729 0.71487 0.0
O41 O 0.96019 0.05692 0.73095 0.0
C42 C 0.84599 0.68847 0.34832 0.0
C43 C 0.90966 0.71892 0.33905 0.0
C44 C 0.93099 0.67481 0.30988 0.0
C45 C 0.99322 0.70644 0.30565 0.0
C46 C 0.02059 0.67641 0.2964 0.0
C47 C 0.98422 0.61386 0.29085 0.0
C48 C 0.92096 0.58219 0.29483 0.0
C49 C 0.89503 0.61328 0.3043 0.0
C50 C 0.08813 0.71155 0.29239 0.0
C51 C 0.88079 0.51573 0.28891 0.0
C52 C 0.22454 0.37281 0.33275 0.0
C53 C 0.15817 0.35691 0.32932 0.0
C54 C 0.12835 0.43236 0.32265 0.0
C55 C 0.0706 0.39751 0.31337 0.0
C56 C 0.04658 0.42502 0.30085 0.0
C57 C 0.08162 0.48851 0.29747 0.0
C58 C 0.13942 0.52383 0.30725 0.0
C59 C 0.16164 0.49527 0.31998 0.0
C60 C 0.9839 0.3864 0.29127 0.0
C61 C 0.17794 0.59165 0.30414 0.0
C62 C 0.14742 0.41336 0.16735 0.0
C63 C 0.08601 0.38648 0.17277 0.0
C64 C 0.06463 0.42066 0.18297 0.0
C65 C 0.10562 0.48293 0.18785 0.0
C66 C 0.16738 0.51029 0.18216 0.0
C67 C 0.18728 0.47515 0.17179 0.0
C68 C 0.99807 0.39048 0.18832 0.0
C69 C 0.21227 0.5766 0.18704 0.0
C70 C 0.97408 0.80757 0.16692 0.0
C71 C 0.02067 0.80868 0.15198 0.0
C72 C 0.01799 0.71277 0.15857 0.0
C73 C 0.97415 0.6507 0.15862 0.0
C74 C 0.98223 0.61012 0.17072 0.0
C75 C 0.03627 0.63224 0.18266 0.0
C76 C 0.08189 0.69466 0.18208 0.0
C77 C 0.07223 0.73433 0.17007 0.0
C78 C 0.93289 0.54381 0.1709 0.0
C79 C 0.14106 0.71941 0.19408 0.0
C80 C 0.01199 0.58175 0.28054 0.0
C81 C 0.03158 0.54951 0.29246 0.0
C82 C 0.05822 0.51831 0.28373 0.0
C83 C 0.06464 0.51821 0.26245 0.0
C84 C 0.0905 0.48667 0.25311 0.0
C85 C 0.09619 0.48654 0.23215 0.0
C86 C 0.07749 0.51906 0.21977 0.0
C87 C 0.08347 0.51967 0.19847 0.0
C88 C 0.06827 0.55577 0.18677 0.0
C89 C 0.04569 0.59038 0.1957 0.0
C90 C 0.03576 0.58736 0.2168 0.0
C91 C 0.00973 0.61876 0.22609 0.0
C92 C 0.0011 0.61633 0.24691 0.0
C93 C 0.01918 0.58329 0.2593 0.0
C94 C 0.04528 0.55108 0.25023 0.0
C95 C 0.05264 0.55232 0.22891 0.0
C96 C 0.20088 0.30931 0.15392 0.0
C97 C 0.14742 0.31991 0.1575 0.0
O98 O 0.90465 0.704 0.31859 0.0
O99 O 0.00712 0.74998 0.14685 0.0
O100 O 0.16949 0.38203 0.15715 0.0
O101 O 0.1524 0.40664 0.33469 0.0
H102 H 0.93201 0.69738 0.34734 0.0
H103 H 0.82437 0.63807 0.34689 0.0
H104 H 0.8152 0.70154 0.34074 0.0
H105 H 0.84978 0.70093 0.36471 0.0
H106 H 0.02009 0.75468 0.30948 0.0
H107 H 0.84666 0.58975 0.30743 0.0
H108 H 0.11055 0.68772 0.29908 0.0
H109 H 0.11062 0.75887 0.29874 0.0
H110 H 0.09538 0.71358 0.27579 0.0
H111 H 0.83216 0.4981 0.2926 0.0
H112 H 0.89701 0.48818 0.29693 0.0
H113 H 0.88399 0.50928 0.27238 0.0
H114 H 0.15173 0.34954 0.31268 0.0
H115 H 0.23947 0.38398 0.34887 0.0
H116 H 0.25532 0.41296 0.32363 0.0
H117 H 0.23001 0.33385 0.32781 0.0
H118 H 0.04398 0.34918 0.31623 0.0
H119 H 0.20583 0.52172 0.32755 0.0
H120 H 0.95529 0.40708 0.29448 0.0
H121 H 0.96037 0.33893 0.29683 0.0
H122 H 0.98784 0.38482 0.27456 0.0
H123 H 0.2239 0.61159 0.31148 0.0
H124 H 0.15454 0.61483 0.31058 0.0
H125 H 0.18349 0.60123 0.28768 0.0
H126 H 0.13317 0.30455 0.17317 0.0
H127 H 0.05434 0.33945 0.16862 0.0
H128 H 0.23442 0.49567 0.16725 0.0
H129 H 0.99393 0.39043 0.20505 0.0
H130 H 0.97137 0.34265 0.18246 0.0
H131 H 0.9777 0.41676 0.18205 0.0
H132 H 0.2597 0.58972 0.18302 0.0
H133 H 0.21133 0.58622 0.20346 0.0
H134 H 0.19888 0.60566 0.17856 0.0
H135 H 0.0643 0.83318 0.16069 0.0
H136 H 0.98412 0.8548 0.17025 0.0
H137 H 0.97745 0.78755 0.18141 0.0
H138 H 0.92636 0.78012 0.16118 0.0
H139 H 0.93288 0.63436 0.14944 0.0
H140 H 0.10784 0.78165 0.16941 0.0
H141 H 0.91893 0.52975 0.18672 0.0
H142 H 0.95097 0.51523 0.16479 0.0
H143 H 0.89198 0.53453 0.16171 0.0
H144 H 0.17402 0.76779 0.19066 0.0
H145 H 0.16263 0.69162 0.1908 0.0
H146 H 0.13158 0.71624 0.21054 0.0
H147 H 0.02666 0.54928 0.30878 0.0
H148 H 0.10628 0.46136 0.26188 0.0
H149 H 0.11605 0.46115 0.22579 0.0
H150 H 0.07482 0.55753 0.17051 0.0
H151 H 0.99542 0.64532 0.21733 0.0
H152 H 0.98063 0.64123 0.2532 0.0
H153 H 0.18548 0.25994 0.15477 0.0
H154 H 0.23715 0.33423 0.16572 0.0
H155 H 0.22082 0.32598 0.13881 0.0
C156 C 0.33088 0.02506 0.70082 0.0
C157 C 0.31475 0.05927 0.68513 0.0
C158 C 0.36448 0.04894 0.65498 0.0
C159 C 0.41707 0.10689 0.65424 0.0
C160 C 0.4667 0.11651 0.64239 0.0
C161 C 0.46379 0.067 0.63127 0.0
C162 C 0.411 0.00838 0.63224 0.0
C163 C 0.36155 0.0005 0.64378 0.0
C164 C 0.52183 0.1798 0.64148 0.0
C165 C 0.40656 0.95407 0.62101 0.0
C166 C 0.93221 0.12497 0.64101 0.0
C167 C 0.86498 0.08852 0.64689 0.0
C168 C 0.78453 0.11479 0.64133 0.0
C169 C 0.73515 0.05534 0.63802 0.0
C170 C 0.67873 0.04561 0.63056 0.0
C171 C 0.6717 0.09635 0.62655 0.0
C172 C 0.72032 0.15607 0.63102 0.0
C173 C 0.7761 0.1644 0.63841 0.0
C174 C 0.62729 0.98134 0.6263 0.0
C175 C 0.71409 0.21121 0.62729 0.0
C176 C 0.73748 0.10912 0.48857 0.0
C177 C 0.68132 0.05566 0.49051 0.0
C178 C 0.63922 0.05155 0.50483 0.0
C179 C 0.65231 0.10362 0.51681 0.0
C180 C 0.70864 0.15863 0.51458 0.0
C181 C 0.75133 0.16036 0.50081 0.0
C182 C 0.58033 0.99159 0.50683 0.0
C183 C 0.72335 0.216 0.52635 0.0
C184 C 0.29906 0.9745 0.45585 0.0
C185 C 0.26821 0.99873 0.47026 0.0
C186 C 0.35311 0.05964 0.49451 0.0
C187 C 0.35392 0.01041 0.50371 0.0
C188 C 0.40185 0.02036 0.51698 0.0
C189 C 0.44922 0.08077 0.52146 0.0
C190 C 0.44662 0.13048 0.51318 0.0
C191 C 0.39849 0.11917 0.49978 0.0
C192 C 0.40304 0.96616 0.52562 0.0
C193 C 0.4958 0.19543 0.51794 0.0
C194 C 0.51514 0.07667 0.6182 0.0
C195 C 0.56688 0.08032 0.62743 0.0
C196 C 0.61598 0.08781 0.6159 0.0
C197 C 0.61317 0.09027 0.59454 0.0
C198 C 0.66068 0.09504 0.58245 0.0
C199 C 0.65776 0.09781 0.56146 0.0
C200 C 0.60793 0.09734 0.55175 0.0
C201 C 0.60492 0.10117 0.53044 0.0
C202 C 0.55372 0.09864 0.52132 0.0
C203 C 0.50466 0.09127 0.53277 0.0
C204 C 0.50745 0.08914 0.55411 0.0
C205 C 0.45977 0.08395 0.56613 0.0
C206 C 0.46239 0.08047 0.58713 0.0
C207 C 0.51261 0.0816 0.59689 0.0
C208 C 0.56165 0.08791 0.58504 0.0
C209 C 0.5592 0.09188 0.56363 0.0
C210 C 0.85414 0.19984 0.46038 0.0
C211 C 0.83885 0.14555 0.47407 0.0
O212 O 0.31474 0.03857 0.66559 0.0
O213 O 0.31063 0.0522 0.48025 0.0
O214 O 0.7758 0.10953 0.47429 0.0
O215 O 0.84105 0.12691 0.64726 0.0
H216 H 0.35214 0.10704 0.68712 0.0
H217 H 0.37773 0.03363 0.69822 0.0
H218 H 0.29926 0.97512 0.70011 0.0
H219 H 0.33006 0.042 0.71636 0.0
H220 H 0.41887 0.14511 0.66233 0.0
H221 H 0.32048 0.95608 0.64435 0.0
H222 H 0.56183 0.18005 0.64859 0.0
H223 H 0.51472 0.21446 0.64945 0.0
H224 H 0.53297 0.19315 0.62544 0.0
H225 H 0.3667 0.91041 0.62574 0.0
H226 H 0.44879 0.95195 0.62357 0.0
H227 H 0.40184 0.95883 0.60449 0.0
H228 H 0.8432 0.05572 0.63411 0.0
H229 H 0.9512 0.09412 0.63959 0.0
H230 H 0.96026 0.16141 0.6524 0.0
H231 H 0.93626 0.14664 0.62614 0.0
H232 H 0.74038 0.01657 0.64108 0.0
H233 H 0.8142 0.21005 0.64139 0.0
H234 H 0.58556 0.97366 0.63413 0.0
H235 H 0.63877 0.94663 0.63128 0.0
H236 H 0.61649 0.97479 0.60978 0.0
H237 H 0.75444 0.25415 0.63305 0.0
H238 H 0.67264 0.20577 0.63471 0.0
H239 H 0.70854 0.21522 0.61076 0.0
H240 H 0.85668 0.16191 0.48975 0.0
H241 H 0.67077 0.01654 0.48086 0.0
H242 H 0.79443 0.2023 0.49924 0.0
H243 H 0.56809 0.98184 0.52301 0.0
H244 H 0.58327 0.95295 0.50001 0.0
H245 H 0.54289 0.99415 0.49889 0.0
H246 H 0.76353 0.25702 0.52026 0.0
H247 H 0.73361 0.21153 0.54242 0.0
H248 H 0.68366 0.22321 0.52604 0.0
H249 H 0.24437 0.96175 0.48124 0.0
H250 H 0.32067 0.95312 0.46462 0.0
H251 H 0.26458 0.93885 0.44534 0.0
H252 H 0.33547 0.01099 0.44688 0.0
H253 H 0.31823 0.96405 0.50035 0.0
H254 H 0.39705 0.15692 0.49286 0.0
H255 H 0.40255 0.96832 0.54242 0.0
H256 H 0.44578 0.96733 0.52132 0.0
H257 H 0.36352 0.92202 0.52023 0.0
H258 H 0.48302 0.22886 0.51256 0.0
H259 H 0.53863 0.20486 0.51049 0.0
H260 H 0.50531 0.20222 0.53454 0.0
H261 H 0.56915 0.07774 0.6438 0.0
H262 H 0.70052 0.09619 0.58906 0.0
H263 H 0.69526 0.10062 0.55294 0.0
H264 H 0.55102 0.10016 0.50492 0.0
H265 H 0.41993 0.08258 0.5594 0.0
H266 H 0.42443 0.07671 0.59561 0.0
H267 H 0.8384 0.18346 0.44454 0.0
H268 H 0.90376 0.23333 0.46035 0.0
H269 H 0.83081 0.22435 0.46567 0.0
C270 C 0.86988 0.69866 0.79087 0.0
C271 C 0.82631 0.71479 0.80154 0.0
C272 C 0.77803 0.68404 0.83418 0.0
C273 C 0.74032 0.70955 0.83444 0.0
C274 C 0.68739 0.68382 0.84605 0.0
C275 C 0.67201 0.63141 0.85751 0.0
C276 C 0.71157 0.6072 0.85788 0.0
C277 C 0.76482 0.63473 0.84645 0.0
C278 C 0.64706 0.71162 0.84563 0.0
C279 C 0.69643 0.5508 0.86962 0.0
C280 C 0.34683 0.30797 0.78199 0.0
C281 C 0.30516 0.30355 0.79944 0.0
C282 C 0.36397 0.3977 0.82026 0.0
C283 C 0.40583 0.38288 0.82879 0.0
C284 C 0.45094 0.42257 0.8428 0.0
C285 C 0.45494 0.47858 0.84819 0.0
C286 C 0.41335 0.49394 0.83955 0.0
C287 C 0.36818 0.45305 0.82575 0.0
C288 C 0.49481 0.4049 0.85171 0.0
C289 C 0.41693 0.55367 0.8448 0.0
C290 C 0.30629 0.38073 0.97399 0.0
C291 C 0.34938 0.36527 0.96754 0.0
C292 C 0.40427 0.40901 0.95898 0.0
C293 C 0.41632 0.46947 0.95684 0.0
C294 C 0.37373 0.48558 0.96382 0.0
C295 C 0.31943 0.44098 0.97253 0.0
C296 C 0.44952 0.39062 0.95228 0.0
C297 C 0.38541 0.54971 0.96191 0.0
C298 C 0.88698 0.77388 0.01066 0.0
C299 C 0.82979 0.77654 0.00468 0.0
C300 C 0.73106 0.69099 0.99422 0.0
C301 C 0.71244 0.63101 0.98841 0.0
C302 C 0.66398 0.59896 0.97445 0.0
C303 C 0.63267 0.62746 0.96658 0.0
C304 C 0.65032 0.68771 0.97292 0.0
C305 C 0.6995 0.71891 0.98674 0.0
C306 C 0.64614 0.5346 0.96819 0.0
C307 C 0.61688 0.71875 0.96521 0.0
C308 C 0.61152 0.5978 0.86713 0.0
C309 C 0.56156 0.55966 0.85452 0.0
C310 C 0.50398 0.52166 0.86242 0.0
C311 C 0.49532 0.52179 0.88352 0.0
C312 C 0.43813 0.48321 0.89199 0.0
C313 C 0.43062 0.48193 0.91286 0.0
C314 C 0.4801 0.51892 0.92605 0.0
C315 C 0.47363 0.5156 0.94732 0.0
C316 C 0.52359 0.55314 0.96002 0.0
C317 C 0.58065 0.5934 0.95208 0.0
C318 C 0.5883 0.59696 0.93084 0.0
C319 C 0.64533 0.6362 0.92232 0.0
C320 C 0.65285 0.63751 0.90142 0.0
C321 C 0.60378 0.59927 0.88828 0.0
C322 C 0.5455 0.56063 0.89651 0.0
C323 C 0.53781 0.55934 0.9178 0.0
C324 C 0.16424 0.27658 0.96323 0.0
C325 C 0.21603 0.27883 0.97631 0.0
O326 O 0.82736 0.70602 0.82219 0.0
O327 O 0.77838 0.7202 0.00761 0.0
O328 O 0.25294 0.33938 0.98249 0.0
O329 O 0.31932 0.36078 0.80665 0.0
H330 H 0.78115 0.67976 0.79525 0.0
H331 H 0.85622 0.6505 0.79386 0.0
H332 H 0.91795 0.72793 0.7961 0.0
H333 H 0.86742 0.70348 0.77421 0.0
H334 H 0.75214 0.74943 0.82559 0.0
H335 H 0.79502 0.61614 0.84632 0.0
H336 H 0.60467 0.68121 0.83672 0.0
H337 H 0.66989 0.75728 0.83864 0.0
H338 H 0.63361 0.71595 0.86125 0.0
H339 H 0.72949 0.53505 0.86698 0.0
H340 H 0.64991 0.51316 0.86531 0.0
H341 H 0.69671 0.56046 0.88609 0.0
H342 H 0.31472 0.27885 0.81129 0.0
H343 H 0.33243 0.26163 0.7758 0.0
H344 H 0.39472 0.32855 0.78766 0.0
H345 H 0.34668 0.33636 0.76944 0.0
H346 H 0.40428 0.34087 0.82459 0.0
H347 H 0.33596 0.46428 0.81905 0.0
H348 H 0.4958 0.40878 0.86852 0.0
H349 H 0.54162 0.43673 0.84645 0.0
H350 H 0.48254 0.35763 0.8473 0.0
H351 H 0.38217 0.55956 0.83635 0.0
H352 H 0.46304 0.59219 0.84137 0.0
H353 H 0.41011 0.55607 0.86131 0.0
H354 H 0.24131 0.26313 0.96676 0.0
H355 H 0.34115 0.31954 0.9696 0.0
H356 H 0.28639 0.4527 0.97792 0.0
H357 H 0.45396 0.39411 0.93556 0.0
H358 H 0.43558 0.34318 0.95648 0.0
H359 H 0.49523 0.42208 0.95917 0.0
H360 H 0.34651 0.55427 0.96724 0.0
H361 H 0.39403 0.56359 0.94583 0.0
H362 H 0.42697 0.5817 0.97092 0.0
H363 H 0.83519 0.78497 0.98818 0.0
H364 H 0.92868 0.81858 0.00803 0.0
H365 H 0.88935 0.73862 0.00122 0.0
H366 H 0.88694 0.76218 0.0268 0.0
H367 H 0.73672 0.60974 0.99462 0.0
H368 H 0.7124 0.76439 0.99208 0.0
H369 H 0.64397 0.52979 0.9514 0.0
H370 H 0.59997 0.50251 0.97388 0.0
H371 H 0.6786 0.52114 0.97425 0.0
H372 H 0.63518 0.76512 0.97204 0.0
H373 H 0.5676 0.69074 0.96863 0.0
H374 H 0.62064 0.72259 0.94848 0.0
H375 H 0.56805 0.55798 0.83833 0.0
H376 H 0.39861 0.45318 0.88259 0.0
H377 H 0.38561 0.4511 0.91853 0.0
H378 H 0.51851 0.54952 0.97634 0.0
H379 H 0.68491 0.66599 0.93174 0.0
H380 H 0.69777 0.66834 0.89568 0.0
H381 H 0.13521 0.23163 0.95562 0.0
H382 H 0.18394 0.31082 0.95111 0.0
H383 H 0.13492 0.28757 0.97268 0.0
C384 C 0.02932 0.17486 0.13158 0.0
C385 C 0.04782 0.18977 0.11128 0.0
C386 C 0.10434 0.2986 0.12075 0.0
C387 C 0.09637 0.28246 0.14157 0.0
N388 N 0.02703 0.21091 0.16557 0.0
N389 N 0.09406 0.26457 0.08556 0.0
C390 C 0.05081 0.22226 0.1466 0.0
C391 C 0.08185 0.25149 0.10554 0.0
N392 N 0.99408 0.11504 0.13667 0.0
N393 N 0.13027 0.35835 0.11552 0.0
H394 H 0.07312 0.23117 0.0742 0.0
H395 H 0.12546 0.30733 0.0802 0.0
H396 H 0.13891 0.39308 0.12586 0.0
H397 H 0.13546 0.37318 0.10068 0.0
H398 H 0.98606 0.10016 0.15154 0.0
H399 H 0.97472 0.07958 0.12587 0.0
H400 H 0.99046 0.16915 0.16978 0.0
H401 H 0.03861 0.24523 0.17648 0.0
C402 C 0.95691 0.11093 0.45038 0.0
C403 C 0.91662 0.05809 0.43853 0.0
C404 C 0.83139 0.04885 0.458 0.0
C405 C 0.86815 0.1093 0.46581 0.0
N406 N 0.97237 0.18955 0.47401 0.0
N407 N 0.81226 0.9825 0.42914 0.0
C408 C 0.93255 0.13792 0.46338 0.0
C409 C 0.85291 0.02867 0.44177 0.0
N410 N 0.01874 0.13527 0.44972 0.0
N411 N 0.77959 0.00812 0.46754 0.0
H412 H 0.82528 0.96841 0.41618 0.0
H413 H 0.76514 0.96329 0.43043 0.0
H414 H 0.76978 0.01722 0.48203 0.0
H415 H 0.75341 0.96247 0.46286 0.0
H416 H 0.04939 0.17455 0.45799 0.0
H417 H 0.0393 0.1149 0.44178 0.0
H418 H 0.95945 0.21071 0.48492 0.0
H419 H 0.95945 0.21071 0.48492 0.0
C420 C 0.82698 0.84405 0.7723 0.0
C421 C 0.8835 0.89469 0.77865 0.0
C422 C 0.89861 0.83197 0.8033 0.0
C423 C 0.84183 0.78018 0.79673 0.0
N424 N 0.74177 0.74709 0.78156 0.0
N425 N 0.96269 0.9423 0.80428 0.0
C426 C 0.8027 0.7892 0.78327 0.0
C427 C 0.91597 0.89031 0.79549 0.0
N428 N 0.79725 0.84744 0.75539 0.0
N429 N 0.93727 0.82594 0.81643 0.0
H430 H 0.97536 0.9856 0.79905 0.0
H431 H 0.98427 0.94307 0.81791 0.0
H432 H 0.92647 0.78613 0.82392 0.0
H433 H 0.98238 0.86026 0.81912 0.0
H434 H 0.75958 0.80945 0.7487 0.0
H435 H 0.81304 0.88719 0.74711 0.0
H436 H 0.71114 0.75429 0.77308 0.0
H437 H 0.71981 0.70942 0.79081 0.0
C438 C 0.08182 0.94337 0.11656 0.0
C439 C 0.02747 0.93204 0.10635 0.0
C440 C 0.97219 0.83013 0.12071 0.0
C441 C 0.02476 0.84417 0.13283 0.0
N442 N 0.13503 0.89895 0.13332 0.0
N443 N 0.924 0.86028 0.09545 0.0
C444 C 0.08148 0.8962 0.128 0.0
C445 C 0.97389 0.87407 0.10738 0.0
N446 N 0.13291 1e-05 0.11632 0.0
N447 N 0.92019 0.77457 0.12088 0.0
H448 H 0.9245 0.8898 0.08453 0.0
H449 H 0.88319 0.81859 0.09607 0.0
H450 H 0.91522 0.73741 0.12898 0.0
H451 H 0.91522 0.73741 0.12898 0.0
H452 H 0.17135 0.01251 0.12549 0.0
H453 H 0.13522 0.03611 0.10824 0.0
H454 H 0.1776 0.93366 0.12881 0.0
H455 H 0.13635 0.86221 0.13968 0.0
C456 C 0.11435 0.98358 0.45503 0.0
C457 C 0.1247 0.99865 0.43424 0.0
C458 C 0.2341 0.03882 0.44026 0.0
C459 C 0.22108 0.00951 0.45924 0.0
N460 N 0.15187 0.97724 0.48761 0.0
N461 N 0.19598 0.04138 0.40681 0.0
C462 C 0.16252 0.98883 0.46752 0.0
C463 C 0.18514 0.02732 0.42681 0.0
N464 N 0.05875 0.96579 0.46326 0.0
N465 N 0.29281 0.08077 0.43564 0.0
H466 H 0.16224 0.03523 0.39634 0.0
H467 H 0.23806 0.0551 0.40028 0.0
H468 H 0.32898 0.09505 0.44603 0.0
H469 H 0.30431 0.10735 0.42276 0.0
H470 H 0.04932 0.95319 0.47837 0.0
H471 H 0.02308 0.96603 0.45531 0.0
H472 H 0.18556 0.98565 0.4985 0.0
H473 H 0.18556 0.98565 0.4985 0.0
C474 C 0.14287 0.16736 0.79538 0.0
C475 C 0.12316 0.1778 0.77645 0.0
C476 C 0.21365 0.27972 0.77565 0.0
C477 C 0.23727 0.26648 0.79335 0.0
N478 N 0.2092 0.21268 0.82489 0.0
N479 N 0.137 0.24578 0.74909 0.0
C480 C 0.19734 0.21461 0.80473 0.0
C481 C 0.15736 0.23465 0.76691 0.0
N482 N 0.11026 0.11191 0.80424 0.0
N483 N 0.24238 0.33561 0.76708 0.0
H484 H 0.09627 0.21395 0.74177 0.0
H485 H 0.16157 0.28683 0.74151 0.0
H486 H 0.2813 0.37361 0.77319 0.0
H487 H 0.2813 0.37361 0.77319 0.0
H488 H 0.12625 0.09912 0.81677 0.0
H489 H 0.06894 0.07707 0.79818 0.0
H490 H 0.17932 0.17824 0.83434 0.0
H491 H 0.24454 0.2498 0.83282 0.0
C492 C 0.87739 0.06615 0.70431 0.0
C493 C 0.88484 0.01497 0.7034 0.0
C494 C 0.84461 0.99619 0.66843 0.0
C495 C 0.85959 0.0587 0.66752 0.0
N496 N 0.89547 0.15501 0.68661 0.0
N497 N 0.85704 0.91994 0.68643 0.0
C498 C 0.87636 0.09409 0.68606 0.0
C499 C 0.86226 0.97609 0.68602 0.0
N500 N 0.87121 0.08788 0.72257 0.0
N501 N 0.81207 0.95548 0.65304 0.0
H502 H 0.85882 0.90014 0.69999 0.0
H503 H 0.85076 0.89325 0.67351 0.0
H504 H 0.79351 0.96544 0.64058 0.0
H505 H 0.79646 0.90899 0.65372 0.0
H506 H 0.8618 0.12327 0.72393 0.0
H507 H 0.86657 0.0642 0.73586 0.0
H508 H 0.91311 0.18168 0.69982 0.0
H509 H 0.90034 0.18119 0.67406 0.0
C510 C 0.83888 0.88234 0.0489 0.0
C511 C 0.8696 0.93823 0.03878 0.0
C512 C 0.8414 0.88244 0.00629 0.0
C513 C 0.82782 0.82805 0.01655 0.0
N514 N 0.80766 0.77563 0.0487 0.0
N515 N 0.89755 0.99282 0.00744 0.0
C516 C 0.82336 0.82733 0.03817 0.0
C517 C 0.86915 0.93877 0.01734 0.0
N518 N 0.82425 0.88219 0.06876 0.0
N519 N 0.82657 0.88046 0.9862 0.0
H520 H 0.91592 0.0351 0.01486 0.0
H521 H 0.90594 0.99571 0.99195 0.0
H522 H 0.80194 0.84 0.97778 0.0
H523 H 0.83123 0.91819 0.97856 0.0
H524 H 0.79642 0.84249 0.07659 0.0
H525 H 0.83529 0.92233 0.07677 0.0
H526 H 0.81228 0.77551 0.06441 0.0
H527 H 0.79295 0.73307 0.04202 0.0
C528 C 0.93976 0.88287 0.34568 0.0
C529 C 0.99048 0.90716 0.3594 0.0
C530 C 0.00138 0.81766 0.35337 0.0
C531 C 0.9443 0.78853 0.34259 0.0
N532 N 0.87505 0.80384 0.32118 0.0
N533 N 0.07044 0.89909 0.37647 0.0
C534 C 0.91821 0.82432 0.33647 0.0
C535 C 0.02228 0.87552 0.36297 0.0
N536 N 0.91086 0.91512 0.34203 0.0
N537 N 0.03741 0.79184 0.35354 0.0
H538 H 0.08879 0.94243 0.38302 0.0
H539 H 0.08981 0.87448 0.38214 0.0
H540 H 0.02658 0.75199 0.34552 0.0
H541 H 0.08187 0.81371 0.35944 0.0
H542 H 0.86837 0.89682 0.33478 0.0
H543 H 0.92831 0.96012 0.34709 0.0
H544 H 0.85908 0.83026 0.31458 0.0
H545 H 0.85894 0.76238 0.31349 0.0
C546 C 0.14419 0.99158 0.69816 0.0
C547 C 0.14723 0.04338 0.70773 0.0
C548 C 0.25055 0.10692 0.69504 0.0
C549 C 0.25271 0.05373 0.68945 0.0
N550 N 0.19235 0.94407 0.68161 0.0
N551 N 0.20739 0.15004 0.71764 0.0
C552 C 0.19733 0.99598 0.68977 0.0
C553 C 0.20131 0.10112 0.70669 0.0
N554 N 0.09009 0.93744 0.69679 0.0
N555 N 0.29325 0.16274 0.68818 0.0
H556 H 0.17363 0.14774 0.72705 0.0
H557 H 0.24855 0.19131 0.71898 0.0
H558 H 0.32525 0.16822 0.67739 0.0
H559 H 0.2908 0.20206 0.69068 0.0
H560 H 0.08624 0.89808 0.69014 0.0
H561 H 0.04868 0.93249 0.7014 0.0
H562 H 0.22682 0.94152 0.67405 0.0
H563 H 0.22682 0.94152 0.67405 0.0
C564 C 0.17232 0.22808 0.03105 0.0
C565 C 0.11621 0.17346 0.02718 0.0
C566 C 0.1427 0.17489 0.99156 0.0
C567 C 0.19048 0.23633 0.99454 0.0
N568 N 0.27204 0.29937 0.01832 0.0
N569 N 0.05113 0.08906 0.00473 0.0
C570 C 0.21204 0.25706 0.01471 0.0
C571 C 0.10285 0.14454 0.00776 0.0
N572 N 0.18722 0.25256 0.05025 0.0
N573 N 0.1381 0.14481 0.97373 0.0
H574 H 0.02369 0.06379 0.01663 0.0
H575 H 0.03435 0.06909 0.99046 0.0
H576 H 0.16976 0.16479 0.96227 0.0
H577 H 0.10748 0.09855 0.97112 0.0
H578 H 0.22336 0.29636 0.05357 0.0
H579 H 0.16189 0.22938 0.06279 0.0
H580 H 0.29149 0.31357 0.03279 0.0
H581 H 0.30422 0.31285 0.00695 0.0
C582 C 0.08202 0.24323 0.37291 0.0
C583 C 0.06257 0.18795 0.36197 0.0
C584 C 0.08008 0.24277 0.3303 0.0
C585 C 0.11435 0.29961 0.34106 0.0
N586 N 0.14756 0.35239 0.37398 0.0
N587 N 0.05034 0.13628 0.3297 0.0
C588 C 0.11459 0.29961 0.36278 0.0
C589 C 0.06291 0.18776 0.3405 0.0
N590 N 0.06834 0.24185 0.39295 0.0
N591 N 0.06216 0.24049 0.31053 0.0
H592 H 0.03943 0.09516 0.3364 0.0
H593 H 0.0568 0.13627 0.31413 0.0
H594 H 0.06798 0.27841 0.30277 0.0
H595 H 0.03334 0.19955 0.30278 0.0
H596 H 0.07586 0.28035 0.40123 0.0
H597 H 0.04318 0.20118 0.40068 0.0
H598 H 0.15562 0.35285 0.38953 0.0
H599 H 0.17054 0.39574 0.36798 0.0
loop_
_geom_bond_atom_site_label_1
_geom_bond_atom_site_label_2
_geom_bond_distance
_geom_bond_site_symmetry_2
_ccdc_geom_bond_type
Co0 O1 2.216 1_445 S
Co0 O2 2.091 1_545 S
Co0 O4 2.004 . S
Co0 O10 2.021 1_445 S
Co0 O12 2.137 . S
Co0 O13 2.244 1_455 S
O1 Co0 2.216 1_665 S
O1 C8 1.247 1_655 S
O2 Co0 2.091 1_565 S
O2 C8 1.261 . S
C3 O12 1.247 . S
C3 O13 1.272 1_455 S
O4 Co0 2.004 . S
O4 C9 1.259 . S
Co5 O6 2.061 1_655 S
Co5 O11 2.052 . S
Co5 O13 2.135 . S
O6 Co5 2.061 1_455 S
O6 C9 1.235 . S
C7 O10 1.238 . S
C7 O11 1.241 1_565 S
C8 O1 1.247 1_455 S
C8 O2 1.261 . S
C9 O4 1.259 . S
C9 O6 1.235 . S
O10 Co0 2.021 1_665 S
O10 C7 1.238 . S
O11 Co5 2.052 . S
O11 C7 1.241 1_545 S
O12 Co0 2.137 . S
O12 C3 1.247 . S
O13 Co0 2.244 1_655 S
O13 C3 1.272 1_655 S
O13 Co5 2.135 . S
Co14 O15 2.216 . S
Co14 O16 2.091 . S
Co14 O18 2.004 . S
Co14 O24 2.021 . S
Co14 O26 2.137 . S
Co14 O27 2.244 1_545 S
O15 Co14 2.216 . S
O15 C22 1.247 . S
O16 Co14 2.091 . S
O16 C22 1.261 . S
C17 O26 1.247 1_565 S
C17 O27 1.272 . S
O18 Co14 2.004 . S
O18 C23 1.259 . S
Co19 O20 2.061 1_565 S
Co19 O25 2.052 1_455 S
Co19 O27 2.135 . S
O20 Co19 2.061 1_545 S
O20 C23 1.235 . S
C21 O24 1.238 1_655 S
C21 O25 1.241 1_545 S
C22 O15 1.247 . S
C22 O16 1.261 . S
C23 O18 1.259 . S
C23 O20 1.235 . S
O24 Co14 2.021 . S
O24 C21 1.238 1_455 S
O25 Co19 2.052 1_655 S
O25 C21 1.241 1_565 S
O26 Co14 2.137 . S
O26 C17 1.247 1_545 S
O27 Co14 2.244 1_565 S
O27 C17 1.272 . S
O27 Co19 2.135 . S
Co28 O29 2.216 . S
Co28 O30 2.091 1_545 S
Co28 O32 2.004 1_445 S
Co28 O38 2.021 . S
Co28 O40 2.137 1_455 S
Co28 O41 2.244 1_455 S
O29 Co28 2.216 . S
O29 C36 1.247 . S
O30 Co28 2.091 1_565 S
O30 C36 1.261 1_565 S
C31 O40 1.247 . S
C31 O41 1.272 . S
O32 Co28 2.004 1_665 S
O32 C37 1.259 . S
Co33 O34 2.061 . S
Co33 O39 2.052 1_655 S
Co33 O41 2.135 . S
O34 Co33 2.061 . S
O34 C37 1.235 1_545 S
C35 O38 1.238 . S
C35 O39 1.241 . S
C36 O29 1.247 . S
C36 O30 1.261 1_545 S
C37 O32 1.259 . S
C37 O34 1.235 1_565 S
O38 Co28 2.021 . S
O38 C35 1.238 . S
O39 Co33 2.052 1_455 S
O39 C35 1.241 . S
O40 Co28 2.137 1_655 S
O40 C31 1.247 . S
O41 Co28 2.244 1_655 S
O41 C31 1.272 . S
O41 Co33 2.135 . S
C42 C43 1.560 1_655 S
C42 H103 0.959 . S
C42 H104 0.959 . S
C42 H105 0.960 . S
C43 C42 1.560 1_455 S
C43 O98 1.426 1_455 S
C43 H102 0.980 . S
C44 C45 1.407 . S
C44 C49 1.418 1_455 S
C44 O98 1.334 1_455 S
C45 C44 1.407 . S
C45 C46 1.360 . S
C45 H106 0.929 . S
C46 C45 1.360 . S
C46 C47 1.401 . S
C46 C50 1.527 . S
C47 C46 1.401 . S
C47 C48 1.405 1_455 S
C47 C80 1.587 . S
C48 C47 1.405 1_655 S
C48 C49 1.332 . S
C48 C51 1.496 . S
C49 C44 1.418 1_655 S
C49 C48 1.332 . S
C49 H107 0.929 . S
C50 C46 1.527 . S
C50 H108 0.959 . S
C50 H109 0.961 . S
C50 H110 0.961 . S
C51 C48 1.496 . S
C51 H111 0.960 . S
C51 H112 0.960 . S
C51 H113 0.961 . S
C52 C53 1.517 . S
C52 H115 0.961 . S
C52 H116 0.960 . S
C52 H117 0.959 . S
C53 C52 1.517 . S
C53 O101 1.468 . S
C53 H114 0.980 . S
C54 C55 1.349 . S
C54 C59 1.367 . S
C54 O101 1.408 . S
C55 C54 1.349 . S
C55 C56 1.407 . S
C55 H118 0.930 . S
C56 C55 1.407 . S
C56 C57 1.449 . S
C56 C60 1.535 1_455 S
C57 C56 1.449 . S
C57 C58 1.384 . S
C57 C82 1.553 . S
C58 C57 1.384 . S
C58 C59 1.364 . S
C58 C61 1.450 . S
C59 C54 1.367 . S
C59 C58 1.364 . S
C59 H119 0.931 . S
C60 C56 1.535 1_655 S
C60 H120 0.959 . S
C60 H121 0.961 . S
C60 H122 0.959 . S
C61 C58 1.450 . S
C61 H123 0.960 . S
C61 H124 0.960 . S
C61 H125 0.960 . S
C62 C63 1.309 . S
C62 C67 1.304 . S
C62 O100 1.435 . S
C63 C62 1.309 . S
C63 C64 1.476 . S
C63 H127 0.930 1_455 S
C64 C63 1.476 . S
C64 C65 1.400 . S
C64 C68 1.567 1_455 S
C65 C64 1.400 . S
C65 C66 1.373 . S
C65 C87 1.432 . S
C66 C65 1.373 . S
C66 C67 1.339 . S
C66 C69 1.530 . S
C67 C62 1.304 . S
C67 C66 1.339 . S
C67 H128 0.930 . S
C68 C64 1.567 1_655 S
C68 H129 0.961 . S
C68 H130 0.960 . S
C68 H131 0.958 . S
C69 C66 1.530 . S
C69 H132 0.961 . S
C69 H133 0.960 . S
C69 H134 0.960 . S
C70 C71 1.530 1_655 S
C70 H136 0.961 . S
C70 H137 0.961 . S
C70 H138 0.959 . S
C71 C70 1.530 1_455 S
C71 O99 1.412 1_455 S
C71 H135 0.980 . S
C72 C73 1.288 . S
C72 C77 1.377 1_655 S
C72 O99 1.393 . S
C73 C72 1.288 . S
C73 C74 1.369 . S
C73 H139 0.932 . S
C74 C73 1.369 . S
C74 C75 1.398 1_655 S
C74 C78 1.527 . S
C75 C74 1.398 1_455 S
C75 C76 1.380 . S
C75 C89 1.497 . S
C76 C75 1.380 . S
C76 C77 1.383 . S
C76 C79 1.603 . S
C77 C72 1.377 1_455 S
C77 C76 1.383 . S
C77 H140 0.929 . S
C78 C74 1.527 . S
C78 H141 0.961 . S
C78 H142 0.959 . S
C78 H143 0.959 . S
C79 C76 1.603 . S
C79 H144 0.960 . S
C79 H145 0.962 . S
C79 H146 0.961 . S
C80 C47 1.587 . S
C80 C81 1.360 . S
C80 C93 1.412 . S
C81 C80 1.360 . S
C81 C82 1.365 . S
C81 H147 0.929 . S
C82 C57 1.553 . S
C82 C81 1.365 . S
C82 C83 1.404 . S
C83 C82 1.404 . S
C83 C84 1.395 . S
C83 C94 1.451 . S
C84 C83 1.395 . S
C84 C85 1.322 . S
C84 H148 0.930 . S
C85 C84 1.322 . S
C85 C86 1.459 . S
C85 H149 0.929 . S
C86 C85 1.459 . S
C86 C87 1.445 . S
C86 C95 1.395 . S
C87 C65 1.432 . S
C87 C86 1.445 . S
C87 C88 1.370 . S
C88 C87 1.370 . S
C88 C89 1.438 . S
C88 H150 0.930 . S
C89 C75 1.497 . S
C89 C88 1.438 . S
C89 C90 1.360 . S
C90 C89 1.360 . S
C90 C91 1.401 . S
C90 C95 1.446 . S
C91 C90 1.401 . S
C91 C92 1.347 . S
C91 H151 0.929 . S
C92 C91 1.347 . S
C92 C93 1.455 . S
C92 H152 0.930 . S
C93 C80 1.412 . S
C93 C92 1.455 . S
C93 C94 1.331 . S
C94 C83 1.451 . S
C94 C93 1.331 . S
C94 C95 1.497 . S
C95 C86 1.395 . S
C95 C90 1.446 . S
C95 C94 1.497 . S
C96 C97 1.582 . S
C96 H153 0.962 . S
C96 H154 0.959 . S
C96 H155 0.958 . S
C97 C96 1.582 . S
C97 O100 1.458 . S
C97 H126 0.980 . S
O98 C43 1.426 1_655 S
O98 C44 1.334 1_655 S
O99 C71 1.412 1_655 S
O99 C72 1.393 . S
O100 C62 1.435 . S
O100 C97 1.458 . S
O101 C53 1.468 . S
O101 C54 1.408 . S
H102 C43 0.980 . S
H103 C42 0.959 . S
H104 C42 0.959 . S
H105 C42 0.960 . S
H106 C45 0.929 . S
H107 C49 0.929 . S
H108 C50 0.959 . S
H109 C50 0.961 . S
H110 C50 0.961 . S
H111 C51 0.960 . S
H112 C51 0.960 . S
H113 C51 0.961 . S
H114 C53 0.980 . S
H115 C52 0.961 . S
H116 C52 0.960 . S
H117 C52 0.959 . S
H118 C55 0.930 . S
H119 C59 0.931 . S
H120 C60 0.959 . S
H121 C60 0.961 . S
H122 C60 0.959 . S
H123 C61 0.960 . S
H124 C61 0.960 . S
H125 C61 0.960 . S
H126 C97 0.980 . S
H127 C63 0.930 1_655 S
H128 C67 0.930 . S
H129 C68 0.961 . S
H130 C68 0.960 . S
H131 C68 0.958 . S
H132 C69 0.961 . S
H133 C69 0.960 . S
H134 C69 0.960 . S
H135 C71 0.980 . S
H136 C70 0.961 . S
H137 C70 0.961 . S
H138 C70 0.959 . S
H139 C73 0.932 . S
H140 C77 0.929 . S
H141 C78 0.961 . S
H142 C78 0.959 . S
H143 C78 0.959 . S
H144 C79 0.960 . S
H145 C79 0.962 . S
H146 C79 0.961 . S
H147 C81 0.929 . S
H148 C84 0.930 . S
H149 C85 0.929 . S
H150 C88 0.930 . S
H151 C91 0.929 . S
H152 C92 0.930 . S
H153 C96 0.962 . S
H154 C96 0.959 . S
H155 C96 0.958 . S
C156 C157 1.560 1_565 S
C156 H217 0.959 . S
C156 H218 0.959 . S
C156 H219 0.960 . S
C157 C156 1.560 1_545 S
C157 O212 1.426 1_545 S
C157 H216 0.980 . S
C158 C159 1.407 . S
C158 C163 1.418 1_545 S
C158 O212 1.334 1_545 S
C159 C158 1.407 . S
C159 C160 1.360 . S
C159 H220 0.929 . S
C160 C159 1.360 . S
C160 C161 1.401 . S
C160 C164 1.527 . S
C161 C160 1.401 . S
C161 C162 1.405 1_545 S
C161 C194 1.587 . S
C162 C161 1.405 1_565 S
C162 C163 1.332 . S
C162 C165 1.496 . S
C163 C158 1.418 1_565 S
C163 C162 1.332 . S
C163 H221 0.929 . S
C164 C160 1.527 . S
C164 H222 0.959 . S
C164 H223 0.961 . S
C164 H224 0.961 . S
C165 C162 1.496 . S
C165 H225 0.960 . S
C165 H226 0.960 . S
C165 H227 0.961 . S
C166 C167 1.517 . S
C166 H229 0.961 . S
C166 H230 0.960 . S
C166 H231 0.959 . S
C167 C166 1.517 . S
C167 O215 1.468 . S
C167 H228 0.980 . S
C168 C169 1.349 . S
C168 C173 1.367 . S
C168 O215 1.408 . S
C169 C168 1.349 . S
C169 C170 1.407 . S
C169 H232 0.930 . S
C170 C169 1.407 . S
C170 C171 1.449 . S
C170 C174 1.535 1_545 S
C171 C170 1.449 . S
C171 C172 1.384 . S
C171 C196 1.553 . S
C172 C171 1.384 . S
C172 C173 1.364 . S
C172 C175 1.450 . S
C173 C168 1.367 . S
C173 C172 1.364 . S
C173 H233 0.931 . S
C174 C170 1.535 1_565 S
C174 H234 0.959 . S
C174 H235 0.961 . S
C174 H236 0.959 . S
C175 C172 1.450 . S
C175 H237 0.960 . S
C175 H238 0.960 . S
C175 H239 0.960 . S
C176 C177 1.309 . S
C176 C181 1.304 . S
C176 O214 1.435 . S
C177 C176 1.309 . S
C177 C178 1.476 . S
C177 H241 0.930 . S
C178 C177 1.476 . S
C178 C179 1.400 . S
C178 C182 1.567 1_545 S
C179 C178 1.400 . S
C179 C180 1.373 . S
C179 C201 1.432 . S
C180 C179 1.373 . S
C180 C181 1.339 . S
C180 C183 1.530 . S
C181 C176 1.304 . S
C181 C180 1.339 . S
C181 H242 0.930 . S
C182 C178 1.567 1_565 S
C182 H243 0.961 . S
C182 H244 0.960 . S
C182 H245 0.958 . S
C183 C180 1.530 . S
C183 H246 0.961 . S
C183 H247 0.960 . S
C183 H248 0.960 . S
C184 C185 1.530 . S
C184 H250 0.961 . S
C184 H251 0.961 1_545 S
C184 H252 0.959 1_545 S
C185 C184 1.530 . S
C185 O213 1.412 . S
C185 H249 0.980 . S
C186 C187 1.288 1_545 S
C186 C191 1.377 . S
C186 O213 1.393 . S
C187 C186 1.288 1_565 S
C187 C188 1.369 . S
C187 H253 0.932 . S
C188 C187 1.369 . S
C188 C189 1.398 1_565 S
C188 C192 1.527 . S
C189 C188 1.398 1_545 S
C189 C190 1.380 . S
C189 C203 1.497 . S
C190 C189 1.380 . S
C190 C191 1.383 . S
C190 C193 1.603 . S
C191 C186 1.377 . S
C191 C190 1.383 . S
C191 H254 0.929 . S
C192 C188 1.527 . S
C192 H255 0.961 . S
C192 H256 0.959 . S
C192 H257 0.959 . S
C193 C190 1.603 . S
C193 H258 0.960 . S
C193 H259 0.962 . S
C193 H260 0.961 . S
C194 C161 1.587 . S
C194 C195 1.360 . S
C194 C207 1.412 . S
C195 C194 1.360 . S
C195 C196 1.365 . S
C195 H261 0.929 . S
C196 C171 1.553 . S
C196 C195 1.365 . S
C196 C197 1.404 . S
C197 C196 1.404 . S
C197 C198 1.395 . S
C197 C208 1.451 . S
C198 C197 1.395 . S
C198 C199 1.322 . S
C198 H262 0.930 . S
C199 C198 1.322 . S
C199 C200 1.459 . S
C199 H263 0.929 . S
C200 C199 1.459 . S
C200 C201 1.445 . S
C200 C209 1.395 . S
C201 C179 1.432 . S
C201 C200 1.445 . S
C201 C202 1.370 . S
C202 C201 1.370 . S
C202 C203 1.438 . S
C202 H264 0.930 . S
C203 C189 1.497 . S
C203 C202 1.438 . S
C203 C204 1.360 . S
C204 C203 1.360 . S
C204 C205 1.401 . S
C204 C209 1.446 . S
C205 C204 1.401 . S
C205 C206 1.347 . S
C205 H265 0.929 . S
C206 C205 1.347 . S
C206 C207 1.455 . S
C206 H266 0.930 . S
C207 C194 1.412 . S
C207 C206 1.455 . S
C207 C208 1.331 . S
C208 C197 1.451 . S
C208 C207 1.331 . S
C208 C209 1.497 . S
C209 C200 1.395 . S
C209 C204 1.446 . S
C209 C208 1.497 . S
C210 C211 1.582 . S
C210 H267 0.962 . S
C210 H268 0.959 . S
C210 H269 0.958 . S
C211 C210 1.582 . S
C211 O214 1.458 . S
C211 H240 0.980 . S
O212 C157 1.426 1_565 S
O212 C158 1.334 1_565 S
O213 C185 1.412 . S
O213 C186 1.393 . S
O214 C176 1.435 . S
O214 C211 1.458 . S
O215 C167 1.468 . S
O215 C168 1.408 . S
H216 C157 0.980 . S
H217 C156 0.959 . S
H218 C156 0.959 . S
H219 C156 0.960 . S
H220 C159 0.929 . S
H221 C163 0.929 . S
H222 C164 0.959 . S
H223 C164 0.961 . S
H224 C164 0.961 . S
H225 C165 0.960 . S
H226 C165 0.960 . S
H227 C165 0.961 . S
H228 C167 0.980 . S
H229 C166 0.961 . S
H230 C166 0.960 . S
H231 C166 0.959 . S
H232 C169 0.930 . S
H233 C173 0.931 . S
H234 C174 0.959 . S
H235 C174 0.961 . S
H236 C174 0.959 . S
H237 C175 0.960 . S
H238 C175 0.960 . S
H239 C175 0.960 . S
H240 C211 0.980 . S
H241 C177 0.930 . S
H242 C181 0.930 . S
H243 C182 0.961 . S
H244 C182 0.960 . S
H245 C182 0.958 . S
H246 C183 0.961 . S
H247 C183 0.960 . S
H248 C183 0.960 . S
H249 C185 0.980 . S
H250 C184 0.961 . S
H251 C184 0.961 1_565 S
H252 C184 0.959 1_565 S
H253 C187 0.932 . S
H254 C191 0.929 . S
H255 C192 0.961 . S
H256 C192 0.959 . S
H257 C192 0.959 . S
H258 C193 0.960 . S
H259 C193 0.962 . S
H260 C193 0.961 . S
H261 C195 0.929 . S
H262 C198 0.930 . S
H263 C199 0.929 . S
H264 C202 0.930 . S
H265 C205 0.929 . S
H266 C206 0.930 . S
H267 C210 0.962 . S
H268 C210 0.959 . S
H269 C210 0.958 . S
C270 C271 1.560 . S
C270 H331 0.959 . S
C270 H332 0.959 . S
C270 H333 0.960 . S
C271 C270 1.560 . S
C271 O326 1.426 . S
C271 H330 0.980 . S
C272 C273 1.407 . S
C272 C277 1.418 . S
C272 O326 1.334 . S
C273 C272 1.407 . S
C273 C274 1.360 . S
C273 H334 0.929 . S
C274 C273 1.360 . S
C274 C275 1.401 . S
C274 C278 1.527 . S
C275 C274 1.401 . S
C275 C276 1.405 . S
C275 C308 1.587 . S
C276 C275 1.405 . S
C276 C277 1.332 . S
C276 C279 1.496 . S
C277 C272 1.418 . S
C277 C276 1.332 . S
C277 H335 0.929 . S
C278 C274 1.527 . S
C278 H336 0.959 . S
C278 H337 0.961 . S
C278 H338 0.961 . S
C279 C276 1.496 . S
C279 H339 0.960 . S
C279 H340 0.960 . S
C279 H341 0.961 . S
C280 C281 1.517 . S
C280 H343 0.961 . S
C280 H344 0.960 . S
C280 H345 0.959 . S
C281 C280 1.517 . S
C281 O329 1.468 . S
C281 H342 0.980 . S
C282 C283 1.349 . S
C282 C287 1.367 . S
C282 O329 1.408 . S
C283 C282 1.349 . S
C283 C284 1.407 . S
C283 H346 0.930 . S
C284 C283 1.407 . S
C284 C285 1.449 . S
C284 C288 1.535 . S
C285 C284 1.449 . S
C285 C286 1.384 . S
C285 C310 1.553 . S
C286 C285 1.384 . S
C286 C287 1.364 . S
C286 C289 1.450 . S
C287 C282 1.367 . S
C287 C286 1.364 . S
C287 H347 0.931 . S
C288 C284 1.535 . S
C288 H348 0.959 . S
C288 H349 0.961 . S
C288 H350 0.959 . S
C289 C286 1.450 . S
C289 H351 0.960 . S
C289 H352 0.960 . S
C289 H353 0.960 . S
C290 C291 1.309 . S
C290 C295 1.304 . S
C290 O328 1.435 . S
C291 C290 1.309 . S
C291 C292 1.476 . S
C291 H355 0.930 . S
C292 C291 1.476 . S
C292 C293 1.400 . S
C292 C296 1.567 . S
C293 C292 1.400 . S
C293 C294 1.373 . S
C293 C315 1.432 . S
C294 C293 1.373 . S
C294 C295 1.339 . S
C294 C297 1.530 . S
C295 C290 1.304 . S
C295 C294 1.339 . S
C295 H356 0.930 . S
C296 C292 1.567 . S
C296 H357 0.961 . S
C296 H358 0.960 . S
C296 H359 0.958 . S
C297 C294 1.530 . S
C297 H360 0.961 . S
C297 H361 0.960 . S
C297 H362 0.960 . S
C298 C299 1.516 1_554 S
C298 H364 0.977 . S
C298 H365 0.919 1_554 S
C298 H366 1.002 . S
C299 C298 1.516 1_556 S
C299 O327 1.412 . S
C299 H363 0.980 . S
C300 C301 1.288 . S
C300 C305 1.377 . S
C300 O327 1.393 . S
C301 C300 1.288 . S
C301 C302 1.369 . S
C301 H367 0.932 . S
C302 C301 1.369 . S
C302 C303 1.398 . S
C302 C306 1.527 . S
C303 C302 1.398 . S
C303 C304 1.380 . S
C303 C317 1.497 . S
C304 C303 1.380 . S
C304 C305 1.383 . S
C304 C307 1.603 . S
C305 C300 1.377 . S
C305 C304 1.383 . S
C305 H368 0.929 . S
C306 C302 1.527 . S
C306 H369 0.961 . S
C306 H370 0.959 . S
C306 H371 0.959 . S
C307 C304 1.603 . S
C307 H372 0.960 . S
C307 H373 0.962 . S
C307 H374 0.961 . S
C308 C275 1.587 . S
C308 C309 1.360 . S
C308 C321 1.412 . S
C309 C308 1.360 . S
C309 C310 1.365 . S
C309 H375 0.929 . S
C310 C285 1.553 . S
C310 C309 1.365 . S
C310 C311 1.404 . S
C311 C310 1.404 . S
C311 C312 1.395 . S
C311 C322 1.451 . S
C312 C311 1.395 . S
C312 C313 1.322 . S
C312 H376 0.930 . S
C313 C312 1.322 . S
C313 C314 1.459 . S
C313 H377 0.929 . S
C314 C313 1.459 . S
C314 C315 1.445 . S
C314 C323 1.395 . S
C315 C293 1.432 . S
C315 C314 1.445 . S
C315 C316 1.370 . S
C316 C315 1.370 . S
C316 C317 1.438 . S
C316 H378 0.930 . S
C317 C303 1.497 . S
C317 C316 1.438 . S
C317 C318 1.360 . S
C318 C317 1.360 . S
C318 C319 1.401 . S
C318 C323 1.446 . S
C319 C318 1.401 . S
C319 C320 1.347 . S
C319 H379 0.929 . S
C320 C319 1.347 . S
C320 C321 1.455 . S
C320 H380 0.930 . S
C321 C308 1.412 . S
C321 C320 1.455 . S
C321 C322 1.331 . S
C322 C311 1.451 . S
C322 C321 1.331 . S
C322 C323 1.497 . S
C323 C314 1.395 . S
C323 C318 1.446 . S
C323 C322 1.497 . S
C324 C325 1.582 . S
C324 H381 0.962 1_556 S
C324 H382 0.959 . S
C324 H383 0.958 1_556 S
C325 C324 1.582 . S
C325 O328 1.458 . S
C325 H354 0.980 . S
O326 C271 1.426 . S
O326 C272 1.334 . S
O327 C299 1.412 . S
O327 C300 1.393 . S
O328 C290 1.435 . S
O328 C325 1.458 . S
O329 C281 1.468 . S
O329 C282 1.408 . S
H330 C271 0.980 . S
H331 C270 0.959 . S
H332 C270 0.959 . S
H333 C270 0.960 . S
H334 C273 0.929 . S
H335 C277 0.929 . S
H336 C278 0.959 . S
H337 C278 0.961 . S
H338 C278 0.961 . S
H339 C279 0.960 . S
H340 C279 0.960 . S
H341 C279 0.961 . S
H342 C281 0.980 . S
H343 C280 0.961 . S
H344 C280 0.960 . S
H345 C280 0.959 . S
H346 C283 0.930 . S
H347 C287 0.931 . S
H348 C288 0.959 . S
H349 C288 0.961 . S
H350 C288 0.959 . S
H351 C289 0.960 . S
H352 C289 0.960 . S
H353 C289 0.960 . S
H354 C325 0.980 . S
H355 C291 0.930 . S
H356 C295 0.930 . S
H357 C296 0.961 . S
H358 C296 0.960 . S
H359 C296 0.958 . S
H360 C297 0.961 . S
H361 C297 0.960 . S
H362 C297 0.960 . S
H363 C299 0.980 . S
H364 C298 0.977 . S
H365 C298 0.919 1_556 S
H366 C298 1.002 . S
H367 C301 0.932 . S
H368 C305 0.929 . S
H369 C306 0.961 . S
H370 C306 0.959 . S
H371 C306 0.959 . S
H372 C307 0.960 . S
H373 C307 0.962 . S
H374 C307 0.961 . S
H375 C309 0.929 . S
H376 C312 0.930 . S
H377 C313 0.929 . S
H378 C316 0.930 . S
H379 C319 0.929 . S
H380 C320 0.930 . S
H381 C324 0.962 1_554 S
H382 C324 0.959 . S
H383 C324 0.958 1_554 S
C384 C385 1.363 1_655 S
C384 C390 1.379 . S
C384 N392 1.356 . S
C385 C384 1.363 1_455 S
C385 C391 1.363 . S
C386 C387 1.363 . S
C386 C391 1.379 . S
C386 N393 1.356 . S
C387 C386 1.363 . S
C387 C390 1.363 1_455 S
N388 C390 1.356 . S
N388 H400 0.984 . S
N388 H401 0.985 . S
N389 C391 1.356 . S
N389 H394 0.984 . S
N389 H395 0.985 . S
C390 C384 1.379 . S
C390 C387 1.363 1_655 S
C390 N388 1.356 . S
C391 C385 1.363 . S
C391 C386 1.379 . S
C391 N389 1.356 . S
N392 C384 1.356 . S
N392 H398 0.984 . S
N392 H399 0.984 . S
N393 C386 1.356 . S
N393 H396 0.984 . S
N393 H397 0.985 . S
H394 N389 0.984 . S
H395 N389 0.985 . S
H396 N393 0.984 . S
H397 N393 0.985 . S
H398 N392 0.984 . S
H399 N392 0.984 . S
H400 N388 0.984 . S
H401 N388 0.985 . S
C402 C403 1.363 . S
C402 C408 1.379 . S
C402 N410 1.356 1_655 S
C403 C402 1.363 . S
C403 C409 1.363 . S
C404 C405 1.363 . S
C404 C409 1.379 . S
C404 N411 1.356 1_545 S
C405 C404 1.363 . S
C405 C408 1.363 . S
N406 C408 1.356 . S
N406 H418 0.984 . S
N406 H419 0.985 . S
N407 C409 1.356 1_565 S
N407 H412 0.984 . S
N407 H413 0.985 . S
C408 C402 1.379 . S
C408 C405 1.363 . S
C408 N406 1.356 . S
C409 C403 1.363 . S
C409 C404 1.379 . S
C409 N407 1.356 1_545 S
N410 C402 1.356 1_455 S
N410 H416 0.984 . S
N410 H417 0.984 . S
N411 C404 1.356 1_565 S
N411 H414 0.984 . S
N411 H415 0.985 . S
H412 N407 0.984 . S
H413 N407 0.985 . S
H414 N411 0.984 . S
H415 N411 0.985 . S
H416 N410 0.984 . S
H417 N410 0.984 . S
H418 N406 0.984 . S
H419 N406 0.985 . S
C420 C421 1.363 . S
C420 C426 1.379 . S
C420 N428 1.356 . S
C421 C420 1.363 . S
C421 C427 1.363 . S
C422 C423 1.363 . S
C422 C427 1.379 . S
C422 N429 1.356 . S
C423 C422 1.363 . S
C423 C426 1.363 . S
N424 C426 1.356 . S
N424 H436 0.984 . S
N424 H437 0.985 . S
N425 C427 1.356 . S
N425 H430 0.984 1_655 S
N425 H431 0.985 1_655 S
C426 C420 1.379 . S
C426 C423 1.363 . S
C426 N424 1.356 . S
C427 C421 1.363 . S
C427 C422 1.379 . S
C427 N425 1.356 . S
N428 C420 1.356 . S
N428 H434 0.984 . S
N428 H435 0.984 . S
N429 C422 1.356 . S
N429 H432 0.984 . S
N429 H433 0.985 . S
H430 N425 0.984 1_455 S
H431 N425 0.985 1_455 S
H432 N429 0.984 . S
H433 N429 0.985 . S
H434 N428 0.984 . S
H435 N428 0.984 . S
H436 N424 0.984 . S
H437 N424 0.985 . S
C438 C439 1.363 . S
C438 C444 1.379 . S
C438 N446 1.356 . S
C439 C438 1.363 . S
C439 C445 1.363 1_455 S
C440 C441 1.363 1_655 S
C440 C445 1.379 . S
C440 N447 1.356 . S
C441 C440 1.363 1_455 S
C441 C444 1.363 . S
N442 C444 1.356 . S
N442 H454 0.984 . S
N442 H455 0.985 . S
N443 C445 1.356 . S
N443 H448 0.984 . S
N443 H449 0.985 . S
C444 C438 1.379 . S
C444 C441 1.363 . S
C444 N442 1.356 . S
C445 C439 1.363 1_655 S
C445 C440 1.379 . S
C445 N443 1.356 . S
N446 C438 1.356 . S
N446 H452 0.984 . S
N446 H453 0.984 . S
N447 C440 1.356 . S
N447 H450 0.984 . S
N447 H451 0.985 . S
H448 N443 0.984 . S
H449 N443 0.985 . S
H450 N447 0.984 . S
H451 N447 0.985 . S
H452 N446 0.984 . S
H453 N446 0.984 . S
H454 N442 0.984 . S
H455 N442 0.985 . S
C456 C457 1.363 . S
C456 C462 1.379 . S
C456 N464 1.356 1_545 S
C457 C456 1.363 . S
C457 C463 1.363 . S
C458 C459 1.363 . S
C458 C463 1.379 . S
C458 N465 1.356 . S
C459 C458 1.363 . S
C459 C462 1.363 . S
N460 C462 1.356 1_565 S
N460 H472 0.984 . S
N460 H473 0.985 1_565 S
N461 C463 1.356 . S
N461 H466 0.984 . S
N461 H467 0.985 . S
C462 C456 1.379 . S
C462 C459 1.363 . S
C462 N460 1.356 1_545 S
C463 C457 1.363 . S
C463 C458 1.379 . S
C463 N461 1.356 . S
N464 C456 1.356 1_565 S
N464 H470 0.984 . S
N464 H471 0.990 . S
N465 C458 1.356 . S
N465 H468 0.984 . S
N465 H469 0.985 . S
H466 N461 0.984 . S
H467 N461 0.985 . S
H468 N465 0.984 . S
H469 N465 0.985 . S
H470 N464 0.984 . S
H471 N464 0.990 . S
H472 N460 0.984 . S
H473 N460 0.985 1_545 S
C474 C475 1.363 . S
C474 C480 1.379 . S
C474 N482 1.356 . S
C475 C474 1.363 . S
C475 C481 1.363 . S
C476 C477 1.363 . S
C476 C481 1.379 . S
C476 N483 1.356 . S
C477 C476 1.363 . S
C477 C480 1.363 . S
N478 C480 1.356 . S
N478 H490 0.984 . S
N478 H491 0.985 . S
N479 C481 1.356 . S
N479 H484 0.984 . S
N479 H485 0.985 . S
C480 C474 1.379 . S
C480 C477 1.363 . S
C480 N478 1.356 . S
C481 C475 1.363 . S
C481 C476 1.379 . S
C481 N479 1.356 . S
N482 C474 1.356 . S
N482 H488 0.984 . S
N482 H489 0.984 . S
N483 C476 1.356 . S
N483 H486 0.984 . S
N483 H487 0.985 . S
H484 N479 0.984 . S
H485 N479 0.985 . S
H486 N483 0.984 . S
H487 N483 0.985 . S
H488 N482 0.984 . S
H489 N482 0.984 . S
H490 N478 0.984 . S
H491 N478 0.985 . S
C492 C493 1.363 . S
C492 C498 1.379 . S
C492 N500 1.356 . S
C493 C492 1.363 . S
C493 C499 1.363 . S
C494 C495 1.363 . S
C494 C499 1.379 . S
C494 N501 1.356 1_545 S
C495 C494 1.363 . S
C495 C498 1.363 . S
N496 C498 1.356 . S
N496 H508 0.984 . S
N496 H509 0.985 . S
N497 C499 1.356 1_565 S
N497 H502 0.984 . S
N497 H503 0.985 . S
C498 C492 1.379 . S
C498 C495 1.363 . S
C498 N496 1.356 . S
C499 C493 1.363 . S
C499 C494 1.379 . S
C499 N497 1.356 1_545 S
N500 C492 1.356 . S
N500 H506 0.984 . S
N500 H507 0.984 . S
N501 C494 1.356 1_565 S
N501 H504 0.984 . S
N501 H505 0.985 . S
H502 N497 0.984 . S
H503 N497 0.985 . S
H504 N501 0.984 . S
H505 N501 0.985 . S
H506 N500 0.984 . S
H507 N500 0.984 . S
H508 N496 0.984 . S
H509 N496 0.985 . S
C510 C511 1.363 . S
C510 C516 1.379 . S
C510 N518 1.356 . S
C511 C510 1.363 . S
C511 C517 1.363 . S
C512 C513 1.363 . S
C512 C517 1.379 . S
C512 N519 1.356 1_554 S
C513 C512 1.363 . S
C513 C516 1.363 . S
N514 C516 1.356 . S
N514 H526 0.984 . S
N514 H527 0.985 . S
N515 C517 1.356 . S
N515 H520 0.984 1_565 S
N515 H521 0.953 1_564 S
C516 C510 1.379 . S
C516 C513 1.363 . S
C516 N514 1.356 . S
C517 C511 1.363 . S
C517 C512 1.379 . S
C517 N515 1.356 . S
N518 C510 1.356 . S
N518 H524 0.984 . S
N518 H525 0.984 . S
N519 C512 1.356 1_556 S
N519 H522 0.984 . S
N519 H523 0.985 . S
H520 N515 0.984 1_545 S
H521 N515 0.953 1_546 S
H522 N519 0.984 . S
H523 N519 0.985 . S
H524 N518 0.984 . S
H525 N518 0.984 . S
H526 N514 0.984 . S
H527 N514 0.985 . S
C528 C529 1.363 . S
C528 C534 1.379 . S
C528 N536 1.356 . S
C529 C528 1.363 . S
C529 C535 1.363 . S
C530 C531 1.363 . S
C530 C535 1.379 . S
C530 N537 1.356 . S
C531 C530 1.363 . S
C531 C534 1.363 . S
N532 C534 1.356 1_655 S
N532 H544 0.984 . S
N532 H545 0.985 . S
N533 C535 1.356 . S
N533 H538 0.984 . S
N533 H539 0.985 . S
C534 C528 1.379 . S
C534 C531 1.363 . S
C534 N532 1.356 1_455 S
C535 C529 1.363 . S
C535 C530 1.379 . S
C535 N533 1.356 . S
N536 C528 1.356 . S
N536 H542 0.984 1_455 S
N536 H543 0.984 1_565 S
N537 C530 1.356 . S
N537 H540 0.984 . S
N537 H541 0.985 . S
H538 N533 0.984 . S
H539 N533 0.985 . S
H540 N537 0.984 . S
H541 N537 0.985 . S
H542 N536 0.984 1_655 S
H543 N536 0.984 1_545 S
H544 N532 0.984 . S
H545 N532 0.985 . S
C546 C547 1.363 1_565 S
C546 C552 1.379 . S
C546 N554 1.356 . S
C547 C546 1.363 1_545 S
C547 C553 1.363 . S
C548 C549 1.363 . S
C548 C553 1.379 . S
C548 N555 1.356 . S
C549 C548 1.363 . S
C549 C552 1.363 1_545 S
N550 C552 1.356 . S
N550 H562 0.984 . S
N550 H563 0.985 . S
N551 C553 1.356 . S
N551 H556 0.984 . S
N551 H557 0.985 . S
C552 C546 1.379 . S
C552 C549 1.363 1_565 S
C552 N550 1.356 . S
C553 C547 1.363 . S
C553 C548 1.379 . S
C553 N551 1.356 . S
N554 C546 1.356 . S
N554 H560 0.984 . S
N554 H561 0.984 . S
N555 C548 1.356 . S
N555 H558 0.984 . S
N555 H559 0.985 . S
H556 N551 0.984 . S
H557 N551 0.985 . S
H558 N555 0.984 . S
H559 N555 0.985 . S
H560 N554 0.984 . S
H561 N554 0.984 . S
H562 N550 0.984 . S
H563 N550 0.985 . S
C564 C565 1.363 . S
C564 C570 1.379 . S
C564 N572 1.356 . S
C565 C564 1.363 . S
C565 C571 1.363 . S
C566 C567 1.360 1_556 S
C566 C571 1.379 1_556 S
C566 N573 1.356 . S
C567 C566 1.360 1_554 S
C567 C570 1.391 . S
N568 C570 1.356 . S
N568 H580 0.984 . S
N568 H581 0.985 . S
N569 C571 1.356 . S
N569 H574 0.984 . S
N569 H575 0.985 . S
C570 C564 1.379 . S
C570 C567 1.391 . S
C570 N568 1.356 . S
C571 C565 1.363 . S
C571 C566 1.379 1_554 S
C571 N569 1.356 . S
N572 C564 1.356 . S
N572 H578 0.984 . S
N572 H579 0.984 . S
N573 C566 1.356 . S
N573 H576 0.984 . S
N573 H577 0.985 . S
H574 N569 0.984 . S
H575 N569 0.985 . S
H576 N573 0.984 . S
H577 N573 0.985 . S
H578 N572 0.984 . S
H579 N572 0.984 . S
H580 N568 0.984 . S
H581 N568 0.985 . S
C582 C583 1.363 . S
C582 C588 1.379 . S
C582 N590 1.356 . S
C583 C582 1.363 . S
C583 C589 1.363 . S
C584 C585 1.363 . S
C584 C589 1.379 . S
C584 N591 1.356 . S
C585 C584 1.363 . S
C585 C588 1.363 . S
N586 C588 1.356 . S
N586 H598 0.984 . S
N586 H599 0.985 . S
N587 C589 1.356 . S
N587 H592 0.984 . S
N587 H593 0.985 . S
C588 C582 1.379 . S
C588 C585 1.363 . S
C588 N586 1.356 . S
C589 C583 1.363 . S
C589 C584 1.379 . S
C589 N587 1.356 . S
N590 C582 1.356 . S
N590 H596 0.984 . S
N590 H597 0.984 . S
N591 C584 1.356 . S
N591 H594 0.984 . S
N591 H595 0.985 . S
H592 N587 0.984 . S
H593 N587 0.985 . S
H594 N591 0.984 . S
H595 N591 0.985 . S
H596 N590 0.984 . S
H597 N590 0.984 . S
H598 N586 0.984 . S
H599 N586 0.985 . S
C387 C97 1.137 . S
C385 C3 1.575 . S
C403 C21 1.580 . S
C405 C211 1.187 . S
C421 C37 1.359 . S
C423 C271 1.076 . S
C439 C8 1.451 . S
C441 C71 1.149 . S
C459 C185 1.143 . S
C457 C23 1.457 . S
C475 C35 1.487 . S
C477 C281 0.963 . S
C495 C167 0.892 . S
C493 C31 1.506 . S
C511 C7 1.453 . S
C513 C299 1.119 1_554 S
C531 C43 1.119 . S
C529 C17 1.378 . S
C549 C157 1.085 . S
C547 C36 1.348 . S
C567 C325 1.183 1_554 S
C565 C9 1.554 . S
C583 C22 1.497 . S
C585 C53 0.868 . S
