# Generated by pormake.
# Topology pyr, (3,6)-cn, num edge types: 1
# Building blocks:
#     Node 0, Type 0, BuildingBlock: CUQRIR_clean_linker_1, # of connection points: 3
#     Node 1, Type 0, BuildingBlock: CUQRIR_clean_linker_1, # of connection points: 3
#     Node 2, Type 0, BuildingBlock: CUQRIR_clean_linker_1, # of connection points: 3
#     Node 3, Type 0, BuildingBlock: CUQRIR_clean_linker_1, # of connection points: 3
#     Node 4, Type 0, BuildingBlock: CUQRIR_clean_linker_1, # of connection points: 3
#     Node 5, Type 0, BuildingBlock: CUQRIR_clean_linker_1, # of connection points: 3
#     Node 6, Type 0, BuildingBlock: CUQRIR_clean_linker_1, # of connection points: 3
#     Node 7, Type 0, BuildingBlock: CUQRIR_clean_linker_1, # of connection points: 3
#     Node 8, Type 1, BuildingBlock: VOLQOD_clean_sbu_1, # of connection points: 6
#     Node 9, Type 1, BuildingBlock: VOLQOD_clean_sbu_1, # of connection points: 6
#     Node 10, Type 1, BuildingBlock: VOLQOD_clean_sbu_1, # of connection points: 6
#     Node 11, Type 1, BuildingBlock: VOLQOD_clean_sbu_1, # of connection points: 6
#     Edge 12, Type (0, 1), BuildingBlock: XIVTED_clean_linker_0, # of connection points: 2
#     Edge 13, Type (0, 1), BuildingBlock: XIVTED_clean_linker_0, # of connection points: 2
#     Edge 14, Type (0, 1), BuildingBlock: XIVTED_clean_linker_0, # of connection points: 2
#     Edge 15, Type (0, 1), BuildingBlock: XIVTED_clean_linker_0, # of connection points: 2
#     Edge 16, Type (0, 1), BuildingBlock: XIVTED_clean_linker_0, # of connection points: 2
#     Edge 17, Type (0, 1), BuildingBlock: XIVTED_clean_linker_0, # of connection points: 2
#     Edge 18, Type (0, 1), BuildingBlock: XIVTED_clean_linker_0, # of connection points: 2
#     Edge 19, Type (0, 1), BuildingBlock: XIVTED_clean_linker_0, # of connection points: 2
#     Edge 20, Type (0, 1), BuildingBlock: XIVTED_clean_linker_0, # of connection points: 2
#     Edge 21, Type (0, 1), BuildingBlock: XIVTED_clean_linker_0, # of connection points: 2
#     Edge 22, Type (0, 1), BuildingBlock: XIVTED_clean_linker_0, # of connection points: 2
#     Edge 23, Type (0, 1), BuildingBlock: XIVTED_clean_linker_0, # of connection points: 2
#     Edge 24, Type (0, 1), BuildingBlock: XIVTED_clean_linker_0, # of connection points: 2
#     Edge 25, Type (0, 1), BuildingBlock: XIVTED_clean_linker_0, # of connection points: 2
#     Edge 26, Type (0, 1), BuildingBlock: XIVTED_clean_linker_0, # of connection points: 2
#     Edge 27, Type (0, 1), BuildingBlock: XIVTED_clean_linker_0, # of connection points: 2
#     Edge 28, Type (0, 1), BuildingBlock: XIVTED_clean_linker_0, # of connection points: 2
#     Edge 29, Type (0, 1), BuildingBlock: XIVTED_clean_linker_0, # of connection points: 2
#     Edge 30, Type (0, 1), BuildingBlock: XIVTED_clean_linker_0, # of connection points: 2
#     Edge 31, Type (0, 1), BuildingBlock: XIVTED_clean_linker_0, # of connection points: 2
#     Edge 32, Type (0, 1), BuildingBlock: XIVTED_clean_linker_0, # of connection points: 2
#     Edge 33, Type (0, 1), BuildingBlock: XIVTED_clean_linker_0, # of connection points: 2
#     Edge 34, Type (0, 1), BuildingBlock: XIVTED_clean_linker_0, # of connection points: 2
#     Edge 35, Type (0, 1), BuildingBlock: XIVTED_clean_linker_0, # of connection points: 2
# Relax obj value: 0.118
# Max RMSD: 0.210
# Mean RMSD: 0.164
data_MOF--net-pry--node1-VOLQOD_clean_sbu_1--node2-CUQRIR_clean_linker_1--edge1-XIVTED_clean_linker_0
_symmetry_space_group_name_H-M    P1
_symmetry_Int_Tables_number       1
_symmetry_cell_setting            triclinic
loop_
_symmetry_equiv_pos_as_xyz
'x, y, z'
_cell_length_a     34.678768
_cell_length_b     34.571207
_cell_length_c     34.168008
_cell_angle_alpha  88.314989
_cell_angle_beta   92.088154
_cell_angle_gamma 94.044661
loop_
_atom_site_label
_atom_site_type_symbol
_atom_site_fract_x
_atom_site_fract_y
_atom_site_fract_z
_atom_type_partial_charge
C0 C 0.11828 0.16651 0.14668 0.0
N1 N 0.14719 0.14287 0.15471 0.0
N2 N 0.12857 0.19327 0.11864 0.0
C3 C 0.08116 0.16519 0.16838 0.0
C4 C 0.16492 0.18523 0.10998 0.0
N5 N 0.17652 0.15484 0.1324 0.0
C6 C 0.18933 0.20793 0.08054 0.0
H7 H 0.06088 0.18599 0.15574 0.0
H8 H 0.08783 0.17177 0.1996 0.0
H9 H 0.06658 0.13564 0.16739 0.0
H10 H 0.2056 0.23246 0.09537 0.0
H11 H 0.17124 0.22017 0.05652 0.0
H12 H 0.21022 0.18944 0.06772 0.0
C13 C 0.39151 0.87218 0.64146 0.0
N14 N 0.38379 0.8986 0.66808 0.0
N15 N 0.42045 0.85048 0.655 0.0
C16 C 0.36768 0.8645 0.60432 0.0
C17 C 0.42966 0.86452 0.69105 0.0
N18 N 0.40703 0.89341 0.69923 0.0
C19 C 0.46185 0.85113 0.71771 0.0
H20 H 0.36461 0.83302 0.59848 0.0
H21 H 0.38248 0.87967 0.57942 0.0
H22 H 0.33837 0.87518 0.60569 0.0
H23 H 0.48422 0.83831 0.70073 0.0
H24 H 0.44988 0.82884 0.73882 0.0
H25 H 0.47542 0.87571 0.73466 0.0
C26 C 0.56055 0.40673 0.92107 0.0
N27 N 0.59207 0.39964 0.94397 0.0
N28 N 0.56785 0.43751 0.89634 0.0
C29 C 0.52396 0.38061 0.91964 0.0
C30 C 0.60491 0.44956 0.9059 0.0
N31 N 0.61976 0.42626 0.93431 0.0
C32 C 0.628 0.48121 0.88399 0.0
H33 H 0.52857 0.35464 0.90255 0.0
H34 H 0.49971 0.39587 0.90567 0.0
H35 H 0.51638 0.37054 0.94972 0.0
H36 H 0.61033 0.50627 0.87762 0.0
H37 H 0.63647 0.47002 0.85567 0.0
H38 H 0.6544 0.49148 0.90101 0.0
C39 C 0.87492 0.60268 0.37734 0.0
N40 N 0.90554 0.62668 0.36649 0.0
N41 N 0.86714 0.60752 0.41537 0.0
C42 C 0.85099 0.57626 0.35018 0.0
C43 C 0.89453 0.63488 0.4274 0.0
N44 N 0.91821 0.64626 0.39787 0.0
C45 C 0.8959 0.65319 0.46693 0.0
H46 H 0.82635 0.5919 0.33763 0.0
H47 H 0.83907 0.54993 0.36593 0.0
H48 H 0.86837 0.56709 0.32592 0.0
H49 H 0.92535 0.65231 0.48054 0.0
H50 H 0.8751 0.63807 0.48708 0.0
H51 H 0.88941 0.68409 0.46325 0.0
C52 C 0.88983 0.91732 0.92916 0.0
N53 N 0.91593 0.90769 0.90337 0.0
N54 N 0.87645 0.95219 0.91935 0.0
C55 C 0.874 0.89074 0.96126 0.0
C56 C 0.89524 0.96338 0.88645 0.0
N57 N 0.9196 0.93647 0.8769 0.0
C58 C 0.88626 0.99813 0.86102 0.0
H59 H 0.84889 0.87261 0.94925 0.0
H60 H 0.86402 0.90768 0.98557 0.0
H61 H 0.89616 0.87127 0.97269 0.0
H62 H 0.86188 0.01331 0.87204 0.0
H63 H 0.87927 0.98896 0.83056 0.0
H64 H 0.91215 0.01885 0.86028 0.0
C65 C 0.66701 0.13958 0.47044 0.0
N66 N 0.67829 0.11175 0.44703 0.0
N67 N 0.62977 0.14702 0.46233 0.0
C68 C 0.69228 0.16062 0.5008 0.0
C69 C 0.61853 0.12235 0.43341 0.0
N70 N 0.64782 0.10061 0.42431 0.0
C71 C 0.58132 0.12421 0.40941 0.0
H72 H 0.67448 0.16991 0.52472 0.0
H73 H 0.70672 0.18704 0.48713 0.0
H74 H 0.71467 0.14193 0.51323 0.0
H75 H 0.58791 0.13242 0.37859 0.0
H76 H 0.56215 0.14527 0.42084 0.0
H77 H 0.56556 0.09517 0.40945 0.0
C78 C 0.39491 0.59172 0.11112 0.0
N79 N 0.42498 0.61305 0.12775 0.0
N80 N 0.38375 0.6079 0.07636 0.0
C81 C 0.37239 0.55882 0.13168 0.0
C82 C 0.40869 0.63959 0.07232 0.0
N83 N 0.43367 0.64286 0.10358 0.0
C84 C 0.40472 0.67056 0.04084 0.0
H85 H 0.36069 0.53708 0.11032 0.0
H86 H 0.34767 0.5704 0.14618 0.0
H87 H 0.39074 0.54447 0.15424 0.0
H88 H 0.39125 0.69552 0.05314 0.0
H89 H 0.38655 0.6595 0.01562 0.0
H90 H 0.43367 0.68111 0.03056 0.0
C91 C 0.07117 0.40049 0.62051 0.0
N92 N 0.09636 0.38811 0.59499 0.0
N93 N 0.07968 0.43821 0.62888 0.0
C94 C 0.03983 0.37518 0.63982 0.0
C95 C 0.11056 0.44857 0.60674 0.0
N96 N 0.12053 0.4183 0.58586 0.0
C97 C 0.13434 0.48659 0.60987 0.0
H98 H 0.01434 0.39195 0.64439 0.0
H99 H 0.05075 0.36495 0.66897 0.0
H100 H 0.03062 0.34973 0.62185 0.0
H101 H 0.16341 0.4813 0.62274 0.0
H102 H 0.12038 0.50724 0.62813 0.0
H103 H 0.13831 0.49997 0.58028 0.0
O104 O 0.04181 0.09045 0.5474 0.0
Zn105 Zn 0.01592 0.03735 0.53936 0.0
O106 O 0.04662 0.00553 0.5085 0.0
Zn107 Zn 0.01891 0.99303 0.45925 0.0
Zn108 Zn 0.09566 0.03504 0.49807 0.0
Zn109 Zn 0.0561 0.95723 0.53775 0.0
O110 O 0.01236 0.93545 0.45283 0.0
O111 O 0.04141 0.90956 0.50527 0.0
O112 O 0.96442 0.04492 0.51225 0.0
O113 O 0.9655 0.01393 0.45623 0.0
O114 O 0.05029 0.01337 0.41356 0.0
O115 O 0.10658 0.03531 0.44071 0.0
O116 O 0.13937 0.01254 0.52986 0.0
O117 O 0.00687 0.01253 0.59229 0.0
O118 O 0.11218 0.95799 0.55576 0.0
O119 O 0.02689 0.95317 0.58805 0.0
C120 C 0.0721 0.10826 0.53404 0.0
C121 C 0.02332 0.90595 0.47223 0.0
C122 C 0.08509 0.02743 0.41055 0.0
C123 C 0.94832 0.03419 0.47988 0.0
C124 C 0.14146 0.98195 0.55137 0.0
C125 C 0.01117 0.97875 0.60694 0.0
O126 O 0.09489 0.09126 0.51297 0.0
O127 O 0.52078 0.10836 0.0127 0.0
Zn128 Zn 0.49268 0.05619 0.02383 0.0
O129 O 0.52503 0.023 0.05613 0.0
Zn130 Zn 0.53636 0.97927 0.02543 0.0
Zn131 Zn 0.57318 0.05257 0.07021 0.0
Zn132 Zn 0.49929 0.00392 0.10398 0.0
O133 O 0.52714 0.9295 0.05594 0.0
O134 O 0.49282 0.94503 0.10609 0.0
O135 O 0.47452 0.03156 0.97215 0.0
O136 O 0.50234 0.97564 0.97677 0.0
O137 O 0.59148 0.98352 0.00912 0.0
O138 O 0.61779 0.03334 0.04254 0.0
O139 O 0.5854 0.04827 0.12763 0.0
O140 O 0.44575 0.06595 0.054 0.0
O141 O 0.53269 0.01821 0.15234 0.0
O142 O 0.44725 0.0272 0.10729 0.0
C143 C 0.55024 0.12597 0.02926 0.0
C144 C 0.50804 0.91979 0.08621 0.0
C145 C 0.6206 0.00613 0.01877 0.0
C146 C 0.48024 0.99853 0.95862 0.0
C147 C 0.56666 0.03452 0.1568 0.0
C148 C 0.4309 0.05238 0.08558 0.0
O149 O 0.57136 0.10894 0.05463 0.0
O150 O 0.52908 0.51129 0.59804 0.0
Zn151 Zn 0.52983 0.53432 0.5436 0.0
O152 O 0.49623 0.50293 0.50792 0.0
Zn153 Zn 0.52634 0.48769 0.46451 0.0
Zn154 Zn 0.47559 0.45618 0.5357 0.0
Zn155 Zn 0.45365 0.53322 0.48806 0.0
O156 O 0.50661 0.5099 0.41288 0.0
O157 O 0.45788 0.54346 0.43013 0.0
O158 O 0.58494 0.54136 0.52585 0.0
O159 O 0.58181 0.50756 0.47142 0.0
O160 O 0.52782 0.42974 0.46274 0.0
O161 O 0.49732 0.40814 0.51591 0.0
O162 O 0.41765 0.45025 0.52942 0.0
O163 O 0.50994 0.58646 0.54928 0.0
O164 O 0.40179 0.5041 0.49754 0.0
O165 O 0.45499 0.58559 0.51371 0.0
C166 C 0.51065 0.48209 0.61375 0.0
C167 C 0.47976 0.53232 0.40413 0.0
C168 C 0.51672 0.40206 0.48603 0.0
C169 C 0.60099 0.5283 0.49649 0.0
C170 C 0.39224 0.47144 0.51408 0.0
C171 C 0.47985 0.60261 0.53693 0.0
O172 O 0.48874 0.45867 0.59347 0.0
O173 O 0.96609 0.53911 0.0883 0.0
Zn174 Zn 0.96892 0.50885 0.03875 0.0
O175 O 0.99798 0.53961 0.99902 0.0
Zn176 Zn 0.96419 0.55185 0.95377 0.0
Zn177 Zn 0.02142 0.58714 0.02231 0.0
Zn178 Zn 0.03858 0.50973 0.9806 0.0
O179 O 0.98417 0.53436 0.90253 0.0
O180 O 0.0366 0.50544 0.92257 0.0
O181 O 0.91419 0.49545 0.01873 0.0
O182 O 0.91124 0.52502 0.96009 0.0
O183 O 0.96084 0.60971 0.94766 0.0
O184 O 0.00463 0.6338 0.99124 0.0
O185 O 0.07966 0.58875 0.02287 0.0
O186 O 0.99319 0.4577 0.05139 0.0
O187 O 0.09097 0.5338 0.99488 0.0
O188 O 0.03537 0.45642 0.00408 0.0
C189 C 0.98245 0.57113 0.09994 0.0
C190 C 0.01375 0.51636 0.89519 0.0
C191 C 0.97986 0.6385 0.96334 0.0
C192 C 0.89565 0.50363 0.98702 0.0
C193 C 0.10308 0.56522 0.01104 0.0
C194 C 0.01782 0.44024 0.03289 0.0
O195 O 0.00512 0.59205 0.0782 0.0
H196 H 0.19401 0.15046 0.21887 0.0
H197 H 0.0524 0.00604 0.33959 0.0
H198 H 0.10318 0.07644 0.16573 0.0
H199 H 0.15279 0.06841 0.39169 0.0
H200 H 0.07531 0.02543 0.27482 0.0
H201 H 0.18561 0.1141 0.28112 0.0
C202 C 0.17306 0.12575 0.22028 0.0
C203 C 0.1489 0.11641 0.18776 0.0
C204 C 0.09258 0.03453 0.30038 0.0
C205 C 0.13823 0.07552 0.25843 0.0
C206 C 0.0794 0.02361 0.33743 0.0
C207 C 0.10039 0.0361 0.37117 0.0
C208 C 0.12678 0.05853 0.29697 0.0
C209 C 0.13546 0.05839 0.36651 0.0
C210 C 0.16799 0.10521 0.25571 0.0
C211 C 0.1219 0.08454 0.19062 0.0
N212 N 0.14729 0.06932 0.3301 0.0
N213 N 0.11679 0.06557 0.22559 0.0
H214 H 0.39105 0.85778 0.76808 0.0
H215 H 0.45461 0.04355 0.89622 0.0
H216 H 0.42039 0.96972 0.71477 0.0
H217 H 0.46289 0.92458 0.93557 0.0
H218 H 0.42809 0.02042 0.83252 0.0
H219 H 0.4015 0.88575 0.8329 0.0
C220 C 0.39909 0.8885 0.77029 0.0
C221 C 0.40542 0.91151 0.73646 0.0
C222 C 0.43545 0.99952 0.85533 0.0
C223 C 0.41783 0.94378 0.81019 0.0
C224 C 0.45043 0.01265 0.89164 0.0
C225 C 0.4613 0.98593 0.9211 0.0
C226 C 0.43066 0.95947 0.84889 0.0
C227 C 0.45536 0.94623 0.9136 0.0
C228 C 0.40522 0.90444 0.80713 0.0
C229 C 0.41539 0.95123 0.74045 0.0
N230 N 0.4405 0.93428 0.87835 0.0
N231 N 0.42181 0.96617 0.77681 0.0
H232 H 0.55578 0.38341 0.84154 0.0
H233 H 0.53413 0.53547 0.66859 0.0
H234 H 0.54167 0.50351 0.86358 0.0
H235 H 0.49414 0.41514 0.65652 0.0
H236 H 0.54039 0.52472 0.73953 0.0
H237 H 0.53498 0.39406 0.77329 0.0
C238 C 0.54722 0.41181 0.83211 0.0
C239 C 0.55001 0.44262 0.85808 0.0
C240 C 0.52992 0.5008 0.72134 0.0
C241 C 0.528 0.45546 0.7798 0.0
C242 C 0.5267 0.50678 0.68087 0.0
C243 C 0.51395 0.47602 0.65663 0.0
C244 C 0.52104 0.46366 0.73758 0.0
C245 C 0.50421 0.4396 0.67413 0.0
C246 C 0.53571 0.41797 0.79315 0.0
C247 C 0.53998 0.4792 0.84422 0.0
N248 N 0.50842 0.4343 0.71356 0.0
N249 N 0.52994 0.48484 0.80573 0.0
H250 H 0.86567 0.64458 0.29995 0.0
H251 H 0.03089 0.6122 0.15154 0.0
H252 H 0.97881 0.61876 0.3448 0.0
H253 H 0.91413 0.56166 0.13691 0.0
H254 H 0.01509 0.63389 0.21686 0.0
H255 H 0.88658 0.63594 0.23311 0.0
C256 C 0.89518 0.63782 0.29549 0.0
C257 C 0.92035 0.6313 0.32764 0.0
C258 C 0.99305 0.61822 0.1991 0.0
C259 C 0.9446 0.62216 0.25172 0.0
C260 C 0.00194 0.60591 0.16198 0.0
C261 C 0.97379 0.58489 0.13902 0.0
C262 C 0.95546 0.61053 0.21253 0.0
C263 C 0.93675 0.57744 0.15384 0.0
C264 C 0.90701 0.6328 0.25755 0.0
C265 C 0.9586 0.62359 0.32056 0.0
N266 N 0.92856 0.59053 0.1895 0.0
N267 N 0.9696 0.61878 0.2832 0.0
H268 H 0.19043 0.07912 0.12815 0.0
H269 H 0.40641 0.12446 0.07105 0.0
H270 H 0.24713 0.1934 0.13876 0.0
H271 H 0.37224 0.01437 0.12676 0.0
H272 H 0.34512 0.14894 0.08857 0.0
H273 H 0.25404 0.05265 0.1224 0.0
C274 C 0.21634 0.09849 0.12962 0.0
C275 C 0.21369 0.13854 0.13292 0.0
C276 C 0.35114 0.11951 0.09719 0.0
C277 C 0.28586 0.10889 0.12568 0.0
C278 C 0.38595 0.10544 0.087 0.0
C279 C 0.3943 0.06732 0.09741 0.0
C280 C 0.32397 0.09503 0.1171 0.0
C281 C 0.36688 0.04399 0.11832 0.0
C282 C 0.25246 0.08347 0.1263 0.0
C283 C 0.24796 0.16255 0.13484 0.0
N284 N 0.33257 0.05805 0.12705 0.0
N285 N 0.28261 0.14748 0.1305 0.0
H286 H 0.31622 0.88578 0.70378 0.0
H287 H 0.21241 0.02183 0.54485 0.0
H288 H 0.37772 0.96265 0.62282 0.0
H289 H 0.15372 0.92717 0.60923 0.0
H290 H 0.27208 0.0102 0.5824 0.0
H291 H 0.25525 0.91226 0.68068 0.0
C292 C 0.31684 0.9095 0.68234 0.0
C293 C 0.3516 0.92248 0.66524 0.0
C294 C 0.24606 0.99212 0.5884 0.0
C295 C 0.28256 0.95177 0.6376 0.0
C296 C 0.21201 0.99862 0.56686 0.0
C297 C 0.17804 0.97511 0.57348 0.0
C298 C 0.24616 0.96208 0.61698 0.0
C299 C 0.17927 0.94571 0.60269 0.0
C300 C 0.28217 0.92414 0.66866 0.0
C301 C 0.35126 0.95243 0.63681 0.0
N302 N 0.21277 0.93996 0.62323 0.0
N303 N 0.31717 0.96576 0.6234 0.0
H304 H 0.6518 0.43812 0.00638 0.0
H305 H 0.85583 0.49396 0.91734 0.0
H306 H 0.67854 0.41376 0.88807 0.0
H307 H 0.84434 0.47486 0.04192 0.0
H308 H 0.78971 0.46656 0.90671 0.0
H309 H 0.72142 0.45132 0.02186 0.0
C310 C 0.67259 0.43471 0.98406 0.0
C311 C 0.65995 0.42557 0.94589 0.0
C312 C 0.8017 0.46808 0.93639 0.0
C313 C 0.73864 0.44123 0.96268 0.0
C314 C 0.83935 0.48406 0.9425 0.0
C315 C 0.85555 0.48693 0.98059 0.0
C316 C 0.77968 0.45545 0.9686 0.0
C317 C 0.83293 0.47321 0.01206 0.0
C318 C 0.7121 0.44239 0.99271 0.0
C319 C 0.68752 0.42138 0.91769 0.0
N320 N 0.79591 0.45844 0.00541 0.0
N321 N 0.72558 0.42995 0.92642 0.0
H322 H 0.81329 0.65408 0.43729 0.0
H323 H 0.65072 0.48588 0.45867 0.0
H324 H 0.84006 0.5345 0.43507 0.0
H325 H 0.64564 0.5924 0.52045 0.0
H326 H 0.71843 0.50405 0.4448 0.0
H327 H 0.74991 0.63362 0.46367 0.0
C328 C 0.80581 0.62353 0.4429 0.0
C329 C 0.83149 0.5958 0.43396 0.0
C330 C 0.70259 0.52322 0.46175 0.0
C331 C 0.75921 0.57218 0.46293 0.0
C332 C 0.66395 0.51301 0.46948 0.0
C333 C 0.64257 0.5378 0.49058 0.0
C334 C 0.71967 0.55888 0.47437 0.0
C335 C 0.66117 0.57247 0.50414 0.0
C336 C 0.76981 0.61188 0.45783 0.0
C337 C 0.82062 0.55654 0.44119 0.0
N338 N 0.69857 0.58231 0.49527 0.0
N339 N 0.78496 0.54577 0.45474 0.0
H340 H 0.11221 0.25127 0.16472 0.0
H341 H 0.04411 0.3854 0.98731 0.0
H342 H 0.09999 0.2115 0.04649 0.0
H343 H 0.01471 0.40563 0.10627 0.0
H344 H 0.06717 0.32286 0.00843 0.0
H345 H 0.07929 0.30965 0.14442 0.0
C346 C 0.10238 0.25502 0.13449 0.0
C347 C 0.10886 0.22712 0.107 0.0
C348 C 0.05531 0.34074 0.02988 0.0
C349 C 0.07177 0.29334 0.08353 0.0
C350 C 0.04225 0.37649 0.01789 0.0
C351 C 0.02769 0.40078 0.04517 0.0
C352 C 0.05453 0.32942 0.0696 0.0
C353 C 0.02567 0.3877 0.08434 0.0
C354 C 0.08357 0.28807 0.12295 0.0
C355 C 0.09582 0.23284 0.06821 0.0
N356 N 0.03949 0.35304 0.09554 0.0
N357 N 0.07815 0.26555 0.05746 0.0
H358 H 0.58485 0.37575 0.01951 0.0
H359 H 0.53829 0.1617 0.95826 0.0
H360 H 0.61098 0.33828 0.90518 0.0
H361 H 0.58646 0.18265 0.07456 0.0
H362 H 0.55693 0.22911 0.93948 0.0
H363 H 0.58003 0.30732 0.04297 0.0
C364 C 0.59074 0.35304 -0.00013 0.0
C365 C 0.59858 0.36203 0.96066 0.0
C366 C 0.56356 0.21883 0.96906 0.0
C367 C 0.59158 0.28479 0.98624 0.0
C368 C 0.55265 0.18057 0.97985 0.0
C369 C 0.56085 0.16672 0.01798 0.0
C370 C 0.58187 0.24368 0.99684 0.0
C371 C 0.57979 0.19229 0.0448 0.0
C372 C 0.58777 0.31425 0.01302 0.0
C373 C 0.60524 0.332 0.93572 0.0
N374 N 0.58926 0.22984 0.03388 0.0
N375 N 0.60081 0.29456 0.94868 0.0
H376 H 0.98422 0.65854 0.44122 0.0
H377 H 0.98339 0.88792 0.40386 0.0
H378 H 0.90892 0.71266 0.35667 0.0
H379 H 0.04262 0.83487 0.50272 0.0
H380 H 0.96576 0.82373 0.37847 0.0
H381 H 0.0167 0.72236 0.45518 0.0
C382 C 0.97539 0.68392 0.42486 0.0
C383 C 0.94393 0.68074 0.39799 0.0
C384 C 0.98282 0.8261 0.40558 0.0
C385 C 0.98014 0.75356 0.41399 0.0
C386 C 0.99289 0.86281 0.42022 0.0
C387 C 0.0142 0.86693 0.45583 0.0
C388 C 0.99411 0.79303 0.42656 0.0
C389 C 0.02588 0.83317 0.47539 0.0
C390 C 0.9936 0.72027 0.43299 0.0
C391 C 0.93329 0.71415 0.37741 0.0
N392 N 0.01547 0.79765 0.46062 0.0
N393 N 0.95102 0.74932 0.38619 0.0
H394 H 0.42603 0.78035 0.691 0.0
H395 H 0.44034 0.66103 0.5013 0.0
H396 H 0.44152 0.84146 0.58032 0.0
H397 H 0.5032 0.63071 0.60787 0.0
H398 H 0.42867 0.72384 0.52942 0.0
H399 H 0.44335 0.72078 0.66108 0.0
C400 C 0.43374 0.78134 0.66057 0.0
C401 C 0.43285 0.8159 0.63817 0.0
C402 C 0.44519 0.70335 0.54634 0.0
C403 C 0.45069 0.74768 0.60341 0.0
C404 C 0.45164 0.66761 0.5305 0.0
C405 C 0.47283 0.64082 0.5523 0.0
C406 C 0.45904 0.71156 0.58453 0.0
C407 C 0.48696 0.65069 0.58998 0.0
C408 C 0.4432 0.74735 0.64347 0.0
C409 C 0.44166 0.81527 0.59842 0.0
N410 N 0.47939 0.68507 0.60512 0.0
N411 N 0.44979 0.7815 0.58206 0.0
H412 H 0.90898 0.8844 0.81919 0.0
H413 H 0.0036 0.03049 0.66415 0.0
H414 H 0.97463 0.98929 0.85251 0.0
H415 H 0.99392 0.90767 0.64278 0.0
H416 H 0.98689 0.01655 0.73206 0.0
H417 H 0.93568 0.89148 0.75355 0.0
C418 C 0.92995 0.90823 0.81295 0.0
C419 C 0.94001 0.93621 0.84108 0.0
C420 C 0.98859 0.99263 0.71256 0.0
C421 C 0.96906 0.94547 0.76614 0.0
C422 C 0.99774 0.00056 0.6737 0.0
C423 C -4e-05 0.97017 0.64774 0.0
C424 C 0.98082 0.95409 0.72549 0.0
C425 C 0.9925 0.93191 0.66189 0.0
C426 C 0.94483 0.9125 0.7755 0.0
C427 C 0.96621 0.96733 0.83133 0.0
N428 N 0.98282 0.92492 0.69982 0.0
N429 N 0.97943 0.9715 0.79445 0.0
H430 H 0.69127 0.12157 0.36279 0.0
H431 H 0.64152 0.05893 0.17605 0.0
H432 H 0.60452 0.03628 0.40333 0.0
H433 H 0.53456 0.01621 0.22802 0.0
H434 H 0.67121 0.06632 0.24117 0.0
H435 H 0.67871 0.09995 0.29602 0.0
C436 C 0.67078 0.09699 0.3576 0.0
C437 C 0.64898 0.08045 0.38824 0.0
C438 C 0.64113 0.05584 0.23854 0.0
C439 C 0.63361 0.05564 0.31191 0.0
C440 C 0.62412 0.05137 0.2012 0.0
C441 C 0.58516 0.03767 0.19646 0.0
C442 C 0.6189 0.04704 0.27159 0.0
C443 C 0.56449 0.02741 0.23021 0.0
C444 C 0.66333 0.08465 0.31939 0.0
C445 C 0.62185 0.04954 0.38019 0.0
N446 N 0.58154 0.0326 0.26632 0.0
N447 N 0.61434 0.03859 0.34265 0.0
H448 H 0.38733 0.63357 0.19012 0.0
H449 H 0.52296 0.5191 0.34057 0.0
H450 H 0.49012 0.58273 0.15589 0.0
H451 H 0.42472 0.57906 0.37436 0.0
H452 H 0.51359 0.54415 0.27344 0.0
H453 H 0.40334 0.61739 0.2588 0.0
C454 C 0.4138 0.61976 0.19752 0.0
C455 C 0.43779 0.60972 0.16798 0.0
C456 C 0.49421 0.55191 0.29562 0.0
C457 C 0.45583 0.58992 0.24579 0.0
C458 C 0.49942 0.53748 0.33393 0.0
C459 C 0.47445 0.54677 0.36319 0.0
C460 C 0.46375 0.5757 0.28646 0.0
C461 C 0.4446 0.57093 0.35284 0.0
C462 C 0.42284 0.61022 0.23649 0.0
C463 C 0.47136 0.59116 0.17831 0.0
N464 N 0.44004 0.5844 0.31537 0.0
N465 N 0.4793 0.58145 0.21648 0.0
H466 H 0.12754 0.44722 0.69155 0.0
H467 H 0.96845 0.52569 0.82788 0.0
H468 H 0.01208 0.46622 0.64859 0.0
H469 H 0.07953 0.4887 0.86917 0.0
H470 H 0.98471 0.51068 0.76084 0.0
H471 H 0.11179 0.47009 0.75559 0.0
C472 C 0.09897 0.45685 0.69574 0.0
C473 C 0.07108 0.45524 0.66512 0.0
C474 C 0.00544 0.50597 0.78467 0.0
C475 C 0.05228 0.48057 0.73833 0.0
C476 C 0.99622 0.51454 0.82289 0.0
C477 C 0.02256 0.50825 0.85428 0.0
C478 C 0.04133 0.49135 0.77791 0.0
C479 C 0.05813 0.4938 0.84607 0.0
C480 C 0.08981 0.46961 0.73224 0.0
C481 C 0.03421 0.4673 0.67176 0.0
N482 N 0.06639 0.48588 0.80882 0.0
N483 N 0.02572 0.47939 0.70785 0.0
H484 H 0.86521 0.99439 0.98242 0.0
H485 H 0.63579 0.96001 0.95836 0.0
H486 H 0.80703 0.93799 0.88414 0.0
H487 H 0.69163 0.03968 0.04124 0.0
H488 H 0.69866 0.9503 0.93204 0.0
H489 H 0.80217 0.01084 0.00582 0.0
C490 C 0.83898 0.98607 0.96568 0.0
C491 C 0.84064 0.96525 0.93143 0.0
C492 C 0.69716 0.97006 0.95586 0.0
C493 C 0.76918 0.98293 0.95776 0.0
C494 C 0.66127 0.97549 0.97103 0.0
C495 C 0.65845 0.00059 0.00214 0.0
C496 C 0.73057 0.98955 0.97215 0.0
C497 C 0.69246 0.02005 0.01722 0.0
C498 C 0.80319 0.99526 0.97889 0.0
C499 C 0.80636 0.95439 0.91058 0.0
N500 N 0.72719 0.01393 0.00223 0.0
N501 N 0.77189 0.96315 0.9242 0.0
H502 H 0.70009 0.0381 0.44613 0.0
H503 H 0.91721 0.10053 0.49977 0.0
H504 H 0.74436 0.15754 0.43963 0.0
H505 H 0.88989 0.9947 0.43765 0.0
H506 H 0.85137 0.11924 0.48561 0.0
H507 H 0.76715 0.01817 0.44856 0.0
C508 C 0.72396 0.06 0.44495 0.0
C509 C 0.71696 0.09947 0.44401 0.0
C510 C 0.85986 0.09203 0.47485 0.0
C511 C 0.79295 0.07724 0.4473 0.0
C512 C 0.89731 0.08125 0.48308 0.0
C513 C 0.90895 0.04604 0.46983 0.0
C514 C 0.83344 0.06701 0.45408 0.0
C515 C 0.88203 0.0222 0.44818 0.0
C516 C 0.76202 0.04871 0.44635 0.0
C517 C 0.74866 0.12689 0.44206 0.0
N518 N 0.84522 0.03286 0.4414 0.0
N519 N 0.78528 0.11531 0.44451 0.0
H520 H 0.35089 0.54876 0.03405 0.0
H521 H 0.14084 0.63003 0.04248 0.0
H522 H 0.32887 0.65775 0.0835 0.0
H523 H 0.16145 0.52065 0.9918 0.0
H524 H 0.21042 0.64278 0.05321 0.0
H525 H 0.28217 0.53977 0.01335 0.0
C526 C 0.33149 0.57095 0.03987 0.0
C527 C 0.34506 0.60408 0.06001 0.0
C528 C 0.19974 0.61605 0.03958 0.0
C529 C 0.2671 0.59418 0.0373 0.0
C530 C 0.15996 0.60873 0.03351 0.0
C531 C 0.14521 0.57409 0.0165 0.0
C532 C 0.22498 0.58848 0.02871 0.0
C533 C 0.17147 0.54767 0.00523 0.0
C534 C 0.29245 0.56591 0.02828 0.0
C535 C 0.31922 0.6321 0.06748 0.0
N536 N 0.21007 0.55532 0.01174 0.0
N537 N 0.2814 0.62644 0.0563 0.0
H538 H 0.17938 0.37497 0.60861 0.0
H539 H 0.32888 0.50576 0.48188 0.0
H540 H 0.14443 0.45948 0.52195 0.0
H541 H 0.36084 0.40747 0.55378 0.0
H542 H 0.26078 0.48644 0.49232 0.0
H543 H 0.24528 0.3823 0.58456 0.0
C544 C 0.18554 0.39428 0.58375 0.0
C545 C 0.1568 0.41666 0.56707 0.0
C546 C 0.2827 0.46888 0.50548 0.0
C547 C 0.23205 0.42637 0.54025 0.0
C548 C 0.32163 0.47997 0.49962 0.0
C549 C 0.35075 0.45849 0.51732 0.0
C550 C 0.27275 0.43626 0.5295 0.0
C551 C 0.33949 0.42514 0.53976 0.0
C552 C 0.22314 0.39879 0.57024 0.0
C553 C 0.16613 0.44194 0.53553 0.0
N554 N 0.30146 0.41532 0.54553 0.0
N555 N 0.20311 0.44656 0.52343 0.0
H556 H 0.98714 0.88787 0.92604 0.0
H557 H 0.92424 0.66126 0.91018 0.0
H558 H 0.87717 0.84282 0.87844 0.0
H559 H 0.02095 0.70645 0.98238 0.0
H560 H 0.91302 0.7273 0.88759 0.0
H561 H 0.00698 0.82107 0.93535 0.0
C562 C 0.96776 0.86375 0.91657 0.0
C563 C 0.93082 0.87023 0.9012 0.0
C564 C 0.9368 0.72272 0.90824 0.0
C565 C 0.95243 0.7945 0.91228 0.0
C566 C 0.94321 0.68501 0.92121 0.0
C567 C 0.97332 0.67827 0.94859 0.0
C568 C 0.96076 0.75396 0.92258 0.0
C569 C 0.99712 0.71026 0.9616 0.0
C570 C 0.97877 0.82581 0.92217 0.0
C571 C 0.90606 0.83848 0.89001 0.0
N572 N 0.99023 0.74673 0.94859 0.0
N573 N 0.9172 0.80188 0.89596 0.0
H574 H 0.50184 0.67179 0.07657 0.0
H575 H 0.46104 0.88463 0.142 0.0
H576 H 0.41034 0.69567 0.15192 0.0
H577 H 0.54444 0.85991 0.05692 0.0
H578 H 0.45052 0.81496 0.15644 0.0
H579 H 0.52728 0.7397 0.08057 0.0
C580 C 0.48808 0.69124 0.09509 0.0
C581 C 0.45445 0.67852 0.11433 0.0
C582 C 0.47139 0.82488 0.13489 0.0
C583 C 0.48203 0.75607 0.11806 0.0
C584 C 0.47737 0.86464 0.1266 0.0
C585 C 0.50318 0.87815 0.09773 0.0
C586 C 0.49145 0.79849 0.11425 0.0
C587 C 0.52377 0.85088 0.07895 0.0
C588 C 0.50219 0.72997 0.09709 0.0
C589 C 0.4368 0.70459 0.13733 0.0
N590 N 0.51723 0.81242 0.08731 0.0
N591 N 0.45047 0.74237 0.13816 0.0
H592 H 0.09984 0.35914 0.5225 0.0
H593 H 0.05211 0.14477 0.59892 0.0
H594 H 0.10371 0.32723 0.64522 0.0
H595 H 0.11117 0.16546 0.49051 0.0
H596 H 0.06408 0.21337 0.61359 0.0
H597 H 0.09934 0.2898 0.50672 0.0
C598 C 0.10088 0.33747 0.54598 0.0
C599 C 0.10059 0.34843 0.5851 0.0
C600 C 0.07467 0.20286 0.5867 0.0
C601 C 0.09958 0.27002 0.56764 0.0
C602 C 0.06766 0.1638 0.57822 0.0
C603 C 0.08067 0.14948 0.54346 0.0
C604 C 0.09404 0.22809 0.55985 0.0
C605 C 0.10084 0.1754 0.51773 0.0
C606 C 0.1006 0.29815 0.53707 0.0
C607 C 0.10247 0.31963 0.61469 0.0
N608 N 0.10651 0.2137 0.52619 0.0
N609 N 0.10119 0.28169 0.60539 0.0
H610 H 0.56905 0.15914 0.50681 0.0
H611 H 0.56481 0.37996 0.43038 0.0
H612 H 0.65249 0.216 0.43045 0.0
H613 H 0.49905 0.33478 0.52866 0.0
H614 H 0.59155 0.31716 0.42524 0.0
H615 H 0.53835 0.22102 0.51198 0.0
C616 C 0.58099 0.18492 0.49162 0.0
C617 C 0.61335 0.18316 0.46862 0.0
C618 C 0.57118 0.32091 0.44789 0.0
C619 C 0.57848 0.25303 0.47339 0.0
C620 C 0.55567 0.35676 0.4507 0.0
C621 C 0.52977 0.36283 0.48017 0.0
C622 C 0.56067 0.29068 0.47458 0.0
C623 C 0.51906 0.33149 0.50559 0.0
C624 C 0.56355 0.21999 0.49434 0.0
C625 C 0.62779 0.21677 0.44882 0.0
N626 N 0.53465 0.29676 0.50229 0.0
N627 N 0.61018 0.25033 0.45151 0.0
loop_
_geom_bond_atom_site_label_1
_geom_bond_atom_site_label_2
_geom_bond_distance
_geom_bond_site_symmetry_2
_ccdc_geom_bond_type
C0 N1 1.317 . S
C0 N2 1.348 . S
C0 C3 1.485 . S
N1 C0 1.317 . S
N1 N5 1.370 . S
N2 C0 1.348 . S
N2 C4 1.346 . S
C3 C0 1.485 . S
C3 H7 0.960 . S
C3 H8 0.961 . S
C3 H9 0.960 . S
C4 N2 1.346 . S
C4 N5 1.307 . S
C4 C6 1.486 . S
N5 N1 1.370 . S
N5 C4 1.307 . S
C6 C4 1.486 . S
C6 H10 0.960 . S
C6 H11 0.960 . S
C6 H12 0.959 . S
H7 C3 0.960 . S
H8 C3 0.961 . S
H9 C3 0.960 . S
H10 C6 0.960 . S
H11 C6 0.960 . S
H12 C6 0.959 . S
C13 N14 1.317 . S
C13 N15 1.348 . S
C13 C16 1.485 . S
N14 C13 1.317 . S
N14 N18 1.370 . S
N15 C13 1.348 . S
N15 C17 1.346 . S
C16 C13 1.485 . S
C16 H20 0.960 . S
C16 H21 0.961 . S
C16 H22 0.960 . S
C17 N15 1.346 . S
C17 N18 1.307 . S
C17 C19 1.486 . S
N18 N14 1.370 . S
N18 C17 1.307 . S
C19 C17 1.486 . S
C19 H23 0.960 . S
C19 H24 0.960 . S
C19 H25 0.959 . S
H20 C16 0.960 . S
H21 C16 0.961 . S
H22 C16 0.960 . S
H23 C19 0.960 . S
H24 C19 0.960 . S
H25 C19 0.959 . S
C26 N27 1.317 . S
C26 N28 1.348 . S
C26 C29 1.485 . S
N27 C26 1.317 . S
N27 N31 1.370 . S
N28 C26 1.348 . S
N28 C30 1.346 . S
C29 C26 1.485 . S
C29 H33 0.960 . S
C29 H34 0.961 . S
C29 H35 0.960 . S
C30 N28 1.346 . S
C30 N31 1.307 . S
C30 C32 1.486 . S
N31 N27 1.370 . S
N31 C30 1.307 . S
C32 C30 1.486 . S
C32 H36 0.960 . S
C32 H37 0.960 . S
C32 H38 0.959 . S
H33 C29 0.960 . S
H34 C29 0.961 . S
H35 C29 0.960 . S
H36 C32 0.960 . S
H37 C32 0.960 . S
H38 C32 0.959 . S
C39 N40 1.317 . S
C39 N41 1.348 . S
C39 C42 1.485 . S
N40 C39 1.317 . S
N40 N44 1.370 . S
N41 C39 1.348 . S
N41 C43 1.346 . S
C42 C39 1.485 . S
C42 H46 0.960 . S
C42 H47 0.961 . S
C42 H48 0.960 . S
C43 N41 1.346 . S
C43 N44 1.307 . S
C43 C45 1.486 . S
N44 N40 1.370 . S
N44 C43 1.307 . S
C45 C43 1.486 . S
C45 H49 0.960 . S
C45 H50 0.960 . S
C45 H51 0.959 . S
H46 C42 0.960 . S
H47 C42 0.961 . S
H48 C42 0.960 . S
H49 C45 0.960 . S
H50 C45 0.960 . S
H51 C45 0.959 . S
C52 N53 1.317 . S
C52 N54 1.348 . S
C52 C55 1.485 . S
N53 C52 1.317 . S
N53 N57 1.370 . S
N54 C52 1.348 . S
N54 C56 1.346 . S
C55 C52 1.485 . S
C55 H59 0.960 . S
C55 H60 0.961 1_556 S
C55 H61 0.960 1_556 S
C56 N54 1.346 . S
C56 N57 1.307 . S
C56 C58 1.486 1_565 S
N57 N53 1.370 . S
N57 C56 1.307 . S
C58 C56 1.486 1_545 S
C58 H62 0.960 . S
C58 H63 0.960 . S
C58 H64 0.959 . S
H59 C55 0.960 . S
H60 C55 0.961 1_554 S
H61 C55 0.960 1_554 S
H62 C58 0.960 . S
H63 C58 0.960 . S
H64 C58 0.959 . S
C65 N66 1.317 . S
C65 N67 1.348 . S
C65 C68 1.485 . S
N66 C65 1.317 . S
N66 N70 1.370 . S
N67 C65 1.348 . S
N67 C69 1.346 . S
C68 C65 1.485 . S
C68 H72 0.960 . S
C68 H73 0.961 . S
C68 H74 0.960 . S
C69 N67 1.346 . S
C69 N70 1.307 . S
C69 C71 1.486 . S
N70 N66 1.370 . S
N70 C69 1.307 . S
C71 C69 1.486 . S
C71 H75 0.960 . S
C71 H76 0.960 . S
C71 H77 0.959 . S
H72 C68 0.960 . S
H73 C68 0.961 . S
H74 C68 0.960 . S
H75 C71 0.960 . S
H76 C71 0.960 . S
H77 C71 0.959 . S
C78 N79 1.317 . S
C78 N80 1.348 . S
C78 C81 1.485 . S
N79 C78 1.317 . S
N79 N83 1.370 . S
N80 C78 1.348 . S
N80 C82 1.346 . S
C81 C78 1.485 . S
C81 H85 0.960 . S
C81 H86 0.961 . S
C81 H87 0.960 . S
C82 N80 1.346 . S
C82 N83 1.307 . S
C82 C84 1.486 . S
N83 N79 1.370 . S
N83 C82 1.307 . S
C84 C82 1.486 . S
C84 H88 0.960 . S
C84 H89 0.960 . S
C84 H90 0.959 . S
H85 C81 0.960 . S
H86 C81 0.961 . S
H87 C81 0.960 . S
H88 C84 0.960 . S
H89 C84 0.960 . S
H90 C84 0.959 . S
C91 N92 1.317 . S
C91 N93 1.348 . S
C91 C94 1.485 . S
N92 C91 1.317 . S
N92 N96 1.370 . S
N93 C91 1.348 . S
N93 C95 1.346 . S
C94 C91 1.485 . S
C94 H98 0.960 . S
C94 H99 0.961 . S
C94 H100 0.960 . S
C95 N93 1.346 . S
C95 N96 1.307 . S
C95 C97 1.486 . S
N96 N92 1.370 . S
N96 C95 1.307 . S
C97 C95 1.486 . S
C97 H101 0.960 . S
C97 H102 0.960 . S
C97 H103 0.959 . S
H98 C94 0.960 . S
H99 C94 0.961 . S
H100 C94 0.960 . S
H101 C97 0.960 . S
H102 C97 0.960 . S
H103 C97 0.959 . S
O104 Zn105 1.953 . S
O104 C120 1.225 . S
Zn105 O104 1.953 . S
Zn105 O106 1.949 . S
Zn105 O112 1.919 1_455 S
Zn105 O117 1.924 . S
O106 Zn105 1.949 . S
O106 Zn107 1.923 1_545 S
O106 Zn108 1.950 . S
O106 Zn109 1.945 1_545 S
Zn107 O106 1.923 1_565 S
Zn107 O110 1.933 . S
Zn107 O113 1.941 1_465 S
Zn107 O114 1.965 1_565 S
Zn108 O106 1.950 . S
Zn108 O115 1.938 . S
Zn108 O116 1.906 . S
Zn108 O126 1.953 . S
Zn109 O106 1.945 1_565 S
Zn109 O111 1.932 . S
Zn109 O118 1.977 . S
Zn109 O119 1.910 . S
O110 Zn107 1.933 . S
O110 C121 1.226 . S
O111 Zn109 1.932 . S
O111 C121 1.307 . S
O112 Zn105 1.919 1_655 S
O112 C123 1.253 . S
O113 Zn107 1.941 1_645 S
O113 C123 1.283 . S
O114 Zn107 1.965 1_545 S
O114 C122 1.303 . S
O115 Zn108 1.938 . S
O115 C122 1.247 . S
O116 Zn108 1.906 . S
O116 C124 1.304 1_545 S
O117 Zn105 1.924 . S
O117 C125 1.311 1_545 S
O118 Zn109 1.977 . S
O118 C124 1.272 . S
O119 Zn109 1.910 . S
O119 C125 1.231 . S
C120 O104 1.225 . S
C120 O126 1.298 . S
C121 O110 1.226 . S
C121 O111 1.307 . S
C122 O114 1.303 . S
C122 O115 1.247 . S
C123 O112 1.253 . S
C123 O113 1.283 . S
C124 O116 1.304 1_565 S
C124 O118 1.272 . S
C125 O117 1.311 1_565 S
C125 O119 1.231 . S
O126 Zn108 1.953 . S
O126 C120 1.298 . S
O127 Zn128 1.953 . S
O127 C143 1.224 . S
Zn128 O127 1.953 . S
Zn128 O129 1.949 . S
Zn128 O135 1.919 1_554 S
Zn128 O140 1.924 . S
O129 Zn128 1.949 . S
O129 Zn130 1.923 1_545 S
O129 Zn131 1.950 . S
O129 Zn132 1.945 . S
Zn130 O129 1.923 1_565 S
Zn130 O133 1.933 . S
Zn130 O136 1.941 1_554 S
Zn130 O137 1.965 . S
Zn131 O129 1.950 . S
Zn131 O138 1.938 . S
Zn131 O139 1.906 . S
Zn131 O149 1.953 . S
Zn132 O129 1.945 . S
Zn132 O134 1.932 1_545 S
Zn132 O141 1.977 . S
Zn132 O142 1.910 . S
O133 Zn130 1.933 . S
O133 C144 1.226 . S
O134 Zn132 1.932 1_565 S
O134 C144 1.307 . S
O135 Zn128 1.919 1_556 S
O135 C146 1.253 1_545 S
O136 Zn130 1.941 1_556 S
O136 C146 1.283 . S
O137 Zn130 1.965 . S
O137 C145 1.303 1_565 S
O138 Zn131 1.938 . S
O138 C145 1.247 . S
O139 Zn131 1.906 . S
O139 C147 1.304 . S
O140 Zn128 1.924 . S
O140 C148 1.311 . S
O141 Zn132 1.977 . S
O141 C147 1.272 . S
O142 Zn132 1.910 . S
O142 C148 1.231 . S
C143 O127 1.224 . S
C143 O149 1.298 . S
C144 O133 1.226 . S
C144 O134 1.307 . S
C145 O137 1.303 1_545 S
C145 O138 1.247 . S
C146 O135 1.253 1_565 S
C146 O136 1.283 . S
C147 O139 1.304 . S
C147 O141 1.272 . S
C148 O140 1.311 . S
C148 O142 1.231 . S
O149 Zn131 1.953 . S
O149 C143 1.298 . S
O150 Zn151 1.953 . S
O150 C166 1.225 . S
Zn151 O150 1.953 . S
Zn151 O152 1.949 . S
Zn151 O158 1.919 . S
Zn151 O163 1.924 . S
O152 Zn151 1.949 . S
O152 Zn153 1.923 . S
O152 Zn154 1.950 . S
O152 Zn155 1.945 . S
Zn153 O152 1.923 . S
Zn153 O156 1.933 . S
Zn153 O159 1.941 . S
Zn153 O160 1.965 . S
Zn154 O152 1.950 . S
Zn154 O161 1.938 . S
Zn154 O162 1.906 . S
Zn154 O172 1.953 . S
Zn155 O152 1.945 . S
Zn155 O157 1.932 . S
Zn155 O164 1.977 . S
Zn155 O165 1.910 . S
O156 Zn153 1.933 . S
O156 C167 1.226 . S
O157 Zn155 1.932 . S
O157 C167 1.307 . S
O158 Zn151 1.919 . S
O158 C169 1.253 . S
O159 Zn153 1.941 . S
O159 C169 1.283 . S
O160 Zn153 1.965 . S
O160 C168 1.303 . S
O161 Zn154 1.938 . S
O161 C168 1.247 . S
O162 Zn154 1.906 . S
O162 C170 1.304 . S
O163 Zn151 1.924 . S
O163 C171 1.311 . S
O164 Zn155 1.977 . S
O164 C170 1.272 . S
O165 Zn155 1.910 . S
O165 C171 1.231 . S
C166 O150 1.225 . S
C166 O172 1.298 . S
C167 O156 1.226 . S
C167 O157 1.307 . S
C168 O160 1.303 . S
C168 O161 1.247 . S
C169 O158 1.253 . S
C169 O159 1.283 . S
C170 O162 1.304 . S
C170 O164 1.272 . S
C171 O163 1.311 . S
C171 O165 1.231 . S
O172 Zn154 1.953 . S
O172 C166 1.298 . S
O173 Zn174 1.953 . S
O173 C189 1.225 . S
Zn174 O173 1.953 . S
Zn174 O175 1.949 1_655 S
Zn174 O181 1.935 . S
Zn174 O186 1.924 . S
O175 Zn174 1.949 1_455 S
O175 Zn176 1.923 1_454 S
O175 Zn177 1.950 . S
O175 Zn178 1.945 1_554 S
Zn176 O175 1.923 1_656 S
Zn176 O179 1.933 1_655 S
Zn176 O182 1.941 . S
Zn176 O183 1.965 . S
Zn177 O175 1.950 . S
Zn177 O184 1.938 . S
Zn177 O185 1.906 . S
Zn177 O195 1.953 . S
Zn178 O175 1.945 1_556 S
Zn178 O180 1.932 . S
Zn178 O187 1.977 1_556 S
Zn178 O188 1.910 1_556 S
O179 Zn176 1.933 1_455 S
O179 C190 1.226 . S
O180 Zn178 1.932 . S
O180 C190 1.307 . S
O181 Zn174 1.935 . S
O181 C192 1.226 1_554 S
O182 Zn176 1.941 . S
O182 C192 1.283 . S
O183 Zn176 1.965 . S
O183 C191 1.303 . S
O184 Zn177 1.938 . S
O184 C191 1.247 1_454 S
O185 Zn177 1.906 . S
O185 C193 1.304 . S
O186 Zn174 1.924 . S
O186 C194 1.311 1_655 S
O187 Zn178 1.977 1_554 S
O187 C193 1.272 . S
O188 Zn178 1.910 1_554 S
O188 C194 1.231 . S
C189 O173 1.225 . S
C189 O195 1.298 1_655 S
C190 O179 1.226 . S
C190 O180 1.307 . S
C191 O183 1.303 . S
C191 O184 1.247 1_656 S
C192 O181 1.226 1_556 S
C192 O182 1.283 . S
C193 O185 1.304 . S
C193 O187 1.272 . S
C194 O186 1.311 1_455 S
C194 O188 1.231 . S
O195 Zn177 1.953 . S
O195 C189 1.298 1_455 S
H196 C202 0.930 . S
H197 C206 0.930 . S
H198 C211 0.929 . S
H199 C209 0.929 . S
H200 C204 0.929 . S
H201 C210 0.929 . S
C202 H196 0.930 . S
C202 C203 1.367 . S
C202 C210 1.378 . S
C203 C202 1.367 . S
C203 C211 1.433 . S
C204 H200 0.929 . S
C204 C206 1.378 . S
C204 C208 1.350 . S
C205 C208 1.463 . S
C205 C210 1.350 . S
C205 N213 1.427 . S
C206 H197 0.930 . S
C206 C204 1.378 . S
C206 C207 1.367 . S
C207 C206 1.367 . S
C207 C209 1.433 . S
C208 C204 1.350 . S
C208 C205 1.463 . S
C208 N212 1.427 . S
C209 H199 0.929 . S
C209 C207 1.433 . S
C209 N212 1.384 . S
C210 H201 0.929 . S
C210 C202 1.378 . S
C210 C205 1.350 . S
C211 H198 0.929 . S
C211 C203 1.433 . S
C211 N213 1.384 . S
N212 C208 1.427 . S
N212 C209 1.384 . S
N213 C205 1.427 . S
N213 C211 1.384 . S
H214 C220 0.930 . S
H215 C224 0.930 1_545 S
H216 C229 0.929 . S
H217 C227 0.929 . S
H218 C222 0.929 . S
H219 C228 0.929 . S
C220 H214 0.930 . S
C220 C221 1.367 . S
C220 C228 1.378 . S
C221 C220 1.367 . S
C221 C229 1.433 . S
C222 H218 0.929 . S
C222 C224 1.378 . S
C222 C226 1.350 . S
C223 C226 1.463 . S
C223 C228 1.350 . S
C223 N231 1.427 . S
C224 H215 0.930 1_565 S
C224 C222 1.378 . S
C224 C225 1.367 . S
C225 C224 1.367 . S
C225 C227 1.433 . S
C226 C222 1.350 . S
C226 C223 1.463 . S
C226 N230 1.427 . S
C227 H217 0.929 . S
C227 C225 1.433 . S
C227 N230 1.384 . S
C228 H219 0.929 . S
C228 C220 1.378 . S
C228 C223 1.350 . S
C229 H216 0.929 . S
C229 C221 1.433 . S
C229 N231 1.384 . S
N230 C226 1.427 . S
N230 C227 1.384 . S
N231 C223 1.427 . S
N231 C229 1.384 . S
H232 C238 0.930 . S
H233 C242 0.930 . S
H234 C247 0.929 . S
H235 C245 0.929 . S
H236 C240 0.929 . S
H237 C246 0.929 . S
C238 H232 0.930 . S
C238 C239 1.367 . S
C238 C246 1.378 . S
C239 C238 1.367 . S
C239 C247 1.433 . S
C240 H236 0.929 . S
C240 C242 1.378 . S
C240 C244 1.350 . S
C241 C244 1.463 . S
C241 C246 1.350 . S
C241 N249 1.427 . S
C242 H233 0.930 . S
C242 C240 1.378 . S
C242 C243 1.367 . S
C243 C242 1.367 . S
C243 C245 1.433 . S
C244 C240 1.350 . S
C244 C241 1.463 . S
C244 N248 1.427 . S
C245 H235 0.929 . S
C245 C243 1.433 . S
C245 N248 1.384 . S
C246 H237 0.929 . S
C246 C238 1.378 . S
C246 C241 1.350 . S
C247 H234 0.929 . S
C247 C239 1.433 . S
C247 N249 1.384 . S
N248 C244 1.427 . S
N248 C245 1.384 . S
N249 C241 1.427 . S
N249 C247 1.384 . S
H250 C256 0.930 . S
H251 C260 0.930 1_455 S
H252 C265 0.929 . S
H253 C263 0.929 . S
H254 C258 0.929 . S
H255 C264 0.929 . S
C256 H250 0.930 . S
C256 C257 1.367 . S
C256 C264 1.378 . S
C257 C256 1.367 . S
C257 C265 1.433 . S
C258 H254 0.929 . S
C258 C260 1.378 . S
C258 C262 1.350 . S
C259 C262 1.463 . S
C259 C264 1.350 . S
C259 N267 1.427 . S
C260 H251 0.930 1_655 S
C260 C258 1.378 . S
C260 C261 1.367 . S
C261 C260 1.367 . S
C261 C263 1.433 . S
C262 C258 1.350 . S
C262 C259 1.463 . S
C262 N266 1.427 . S
C263 H253 0.929 . S
C263 C261 1.433 . S
C263 N266 1.384 . S
C264 H255 0.929 . S
C264 C256 1.378 . S
C264 C259 1.350 . S
C265 H252 0.929 . S
C265 C257 1.433 . S
C265 N267 1.384 . S
N266 C262 1.427 . S
N266 C263 1.384 . S
N267 C259 1.427 . S
N267 C265 1.384 . S
H268 C274 0.930 . S
H269 C278 0.930 . S
H270 C283 0.929 . S
H271 C281 0.929 . S
H272 C276 0.929 . S
H273 C282 0.929 . S
C274 H268 0.930 . S
C274 C275 1.367 . S
C274 C282 1.378 . S
C275 C274 1.367 . S
C275 C283 1.433 . S
C276 H272 0.929 . S
C276 C278 1.378 . S
C276 C280 1.350 . S
C277 C280 1.463 . S
C277 C282 1.350 . S
C277 N285 1.427 . S
C278 H269 0.930 . S
C278 C276 1.378 . S
C278 C279 1.367 . S
C279 C278 1.367 . S
C279 C281 1.433 . S
C280 C276 1.350 . S
C280 C277 1.463 . S
C280 N284 1.427 . S
C281 H271 0.929 . S
C281 C279 1.433 . S
C281 N284 1.384 . S
C282 H273 0.929 . S
C282 C274 1.378 . S
C282 C277 1.350 . S
C283 H270 0.929 . S
C283 C275 1.433 . S
C283 N285 1.384 . S
N284 C280 1.427 . S
N284 C281 1.384 . S
N285 C277 1.427 . S
N285 C283 1.384 . S
H286 C292 0.930 . S
H287 C296 0.930 . S
H288 C301 0.929 . S
H289 C299 0.929 . S
H290 C294 0.929 . S
H291 C300 0.929 . S
C292 H286 0.930 . S
C292 C293 1.367 . S
C292 C300 1.378 . S
C293 C292 1.367 . S
C293 C301 1.433 . S
C294 H290 0.929 . S
C294 C296 1.378 . S
C294 C298 1.350 . S
C295 C298 1.463 . S
C295 C300 1.350 . S
C295 N303 1.427 . S
C296 H287 0.930 . S
C296 C294 1.378 . S
C296 C297 1.367 . S
C297 C296 1.367 . S
C297 C299 1.433 . S
C298 C294 1.350 . S
C298 C295 1.463 . S
C298 N302 1.427 . S
C299 H289 0.929 . S
C299 C297 1.433 . S
C299 N302 1.384 . S
C300 H291 0.929 . S
C300 C292 1.378 . S
C300 C295 1.350 . S
C301 H288 0.929 . S
C301 C293 1.433 . S
C301 N303 1.384 . S
N302 C298 1.427 . S
N302 C299 1.384 . S
N303 C295 1.427 . S
N303 C301 1.384 . S
H304 C310 0.930 . S
H305 C314 0.930 . S
H306 C319 0.929 . S
H307 C317 0.929 1_554 S
H308 C312 0.929 . S
H309 C318 0.929 . S
C310 H304 0.930 . S
C310 C311 1.367 . S
C310 C318 1.378 . S
C311 C310 1.367 . S
C311 C319 1.433 . S
C312 H308 0.929 . S
C312 C314 1.378 . S
C312 C316 1.350 . S
C313 C316 1.463 . S
C313 C318 1.350 . S
C313 N321 1.427 . S
C314 H305 0.930 . S
C314 C312 1.378 . S
C314 C315 1.367 . S
C315 C314 1.367 . S
C315 C317 1.433 . S
C316 C312 1.350 . S
C316 C313 1.463 . S
C316 N320 1.427 . S
C317 H307 0.929 1_556 S
C317 C315 1.433 . S
C317 N320 1.384 . S
C318 H309 0.929 . S
C318 C310 1.378 . S
C318 C313 1.350 . S
C319 H306 0.929 . S
C319 C311 1.433 . S
C319 N321 1.384 . S
N320 C316 1.427 . S
N320 C317 1.384 . S
N321 C313 1.427 . S
N321 C319 1.384 . S
H322 C328 0.930 . S
H323 C332 0.930 . S
H324 C337 0.929 . S
H325 C335 0.929 . S
H326 C330 0.929 . S
H327 C336 0.929 . S
C328 H322 0.930 . S
C328 C329 1.367 . S
C328 C336 1.378 . S
C329 C328 1.367 . S
C329 C337 1.433 . S
C330 H326 0.929 . S
C330 C332 1.378 . S
C330 C334 1.350 . S
C331 C334 1.463 . S
C331 C336 1.350 . S
C331 N339 1.427 . S
C332 H323 0.930 . S
C332 C330 1.378 . S
C332 C333 1.367 . S
C333 C332 1.367 . S
C333 C335 1.433 . S
C334 C330 1.350 . S
C334 C331 1.463 . S
C334 N338 1.427 . S
C335 H325 0.929 . S
C335 C333 1.433 . S
C335 N338 1.384 . S
C336 H327 0.929 . S
C336 C328 1.378 . S
C336 C331 1.350 . S
C337 H324 0.929 . S
C337 C329 1.433 . S
C337 N339 1.384 . S
N338 C334 1.427 . S
N338 C335 1.384 . S
N339 C331 1.427 . S
N339 C337 1.384 . S
H340 C346 0.930 . S
H341 C350 0.930 . S
H342 C355 0.929 . S
H343 C353 0.929 . S
H344 C348 0.929 . S
H345 C354 0.929 . S
C346 H340 0.930 . S
C346 C347 1.367 . S
C346 C354 1.378 . S
C347 C346 1.367 . S
C347 C355 1.433 . S
C348 H344 0.929 . S
C348 C350 1.378 . S
C348 C352 1.350 . S
C349 C352 1.463 . S
C349 C354 1.350 . S
C349 N357 1.427 . S
C350 H341 0.930 . S
C350 C348 1.378 . S
C350 C351 1.367 . S
C351 C350 1.367 . S
C351 C353 1.433 . S
C352 C348 1.350 . S
C352 C349 1.463 . S
C352 N356 1.427 . S
C353 H343 0.929 . S
C353 C351 1.433 . S
C353 N356 1.384 . S
C354 H345 0.929 . S
C354 C346 1.378 . S
C354 C349 1.350 . S
C355 H342 0.929 . S
C355 C347 1.433 . S
C355 N357 1.384 . S
N356 C352 1.427 . S
N356 C353 1.384 . S
N357 C349 1.427 . S
N357 C355 1.384 . S
H358 C364 0.930 . S
H359 C368 0.930 . S
H360 C373 0.929 . S
H361 C371 0.929 . S
H362 C366 0.929 . S
H363 C372 0.929 1_554 S
C364 H358 0.930 . S
C364 C365 1.367 . S
C364 C372 1.378 . S
C365 C364 1.367 . S
C365 C373 1.433 . S
C366 H362 0.929 . S
C366 C368 1.378 . S
C366 C370 1.350 . S
C367 C370 1.463 . S
C367 C372 1.350 . S
C367 N375 1.427 . S
C368 H359 0.930 . S
C368 C366 1.378 . S
C368 C369 1.367 1_556 S
C369 C368 1.367 1_554 S
C369 C371 1.433 . S
C370 C366 1.350 . S
C370 C367 1.463 . S
C370 N374 1.427 1_556 S
C371 H361 0.929 . S
C371 C369 1.433 . S
C371 N374 1.384 . S
C372 H363 0.929 1_556 S
C372 C364 1.378 . S
C372 C367 1.350 . S
C373 H360 0.929 . S
C373 C365 1.433 . S
C373 N375 1.384 . S
N374 C370 1.427 1_554 S
N374 C371 1.384 . S
N375 C367 1.427 . S
N375 C373 1.384 . S
H376 C382 0.930 . S
H377 C386 0.934 . S
H378 C391 0.929 . S
H379 C389 0.929 . S
H380 C384 0.929 . S
H381 C390 0.929 . S
C382 H376 0.930 . S
C382 C383 1.367 . S
C382 C390 1.378 . S
C383 C382 1.367 . S
C383 C391 1.433 . S
C384 H380 0.929 . S
C384 C386 1.375 1_655 S
C384 C388 1.350 . S
C385 C388 1.463 . S
C385 C390 1.350 . S
C385 N393 1.427 . S
C386 H377 0.934 . S
C386 C384 1.375 1_455 S
C386 C387 1.366 1_455 S
C387 C386 1.366 1_655 S
C387 C389 1.435 . S
C388 C384 1.350 . S
C388 C385 1.463 . S
C388 N392 1.427 . S
C389 H379 0.929 . S
C389 C387 1.435 . S
C389 N392 1.384 . S
C390 H381 0.929 . S
C390 C382 1.378 . S
C390 C385 1.350 . S
C391 H378 0.929 . S
C391 C383 1.433 . S
C391 N393 1.384 . S
N392 C388 1.427 . S
N392 C389 1.384 . S
N393 C385 1.427 . S
N393 C391 1.384 . S
H394 C400 0.930 . S
H395 C404 0.930 . S
H396 C409 0.929 . S
H397 C407 0.929 . S
H398 C402 0.929 . S
H399 C408 0.929 . S
C400 H394 0.930 . S
C400 C401 1.367 . S
C400 C408 1.378 . S
C401 C400 1.367 . S
C401 C409 1.433 . S
C402 H398 0.929 . S
C402 C404 1.378 . S
C402 C406 1.350 . S
C403 C406 1.463 . S
C403 C408 1.350 . S
C403 N411 1.427 . S
C404 H395 0.930 . S
C404 C402 1.378 . S
C404 C405 1.367 . S
C405 C404 1.367 . S
C405 C407 1.433 . S
C406 C402 1.350 . S
C406 C403 1.463 . S
C406 N410 1.427 . S
C407 H397 0.929 . S
C407 C405 1.433 . S
C407 N410 1.384 . S
C408 H399 0.929 . S
C408 C400 1.378 . S
C408 C403 1.350 . S
C409 H396 0.929 . S
C409 C401 1.433 . S
C409 N411 1.384 . S
N410 C406 1.427 . S
N410 C407 1.384 . S
N411 C403 1.427 . S
N411 C409 1.384 . S
H412 C418 0.930 . S
H413 C422 0.930 . S
H414 C427 0.929 1_455 S
H415 C425 0.929 . S
H416 C420 0.929 . S
H417 C426 0.929 . S
C418 H412 0.930 . S
C418 C419 1.367 . S
C418 C426 1.378 . S
C419 C418 1.367 . S
C419 C427 1.433 . S
C420 H416 0.929 . S
C420 C422 1.378 . S
C420 C424 1.350 1_445 S
C421 C424 1.463 . S
C421 C426 1.350 . S
C421 N429 1.431 . S
C422 H413 0.930 . S
C422 C420 1.378 . S
C422 C423 1.367 1_545 S
C423 C422 1.367 1_565 S
C423 C425 1.433 1_455 S
C424 C420 1.350 1_665 S
C424 C421 1.463 . S
C424 N428 1.427 . S
C425 H415 0.929 . S
C425 C423 1.433 1_655 S
C425 N428 1.384 . S
C426 H417 0.929 . S
C426 C418 1.378 . S
C426 C421 1.350 . S
C427 H414 0.929 1_655 S
C427 C419 1.433 . S
C427 N429 1.386 . S
N428 C424 1.427 . S
N428 C425 1.384 . S
N429 C421 1.431 . S
N429 C427 1.386 . S
H430 C436 0.930 . S
H431 C440 0.925 1_565 S
H432 C445 0.929 . S
H433 C443 0.929 . S
H434 C438 0.929 . S
H435 C444 0.929 . S
C436 H430 0.930 . S
C436 C437 1.367 . S
C436 C444 1.378 . S
C437 C436 1.367 . S
C437 C445 1.433 . S
C438 H434 0.929 . S
C438 C440 1.378 . S
C438 C442 1.350 . S
C439 C442 1.463 . S
C439 C444 1.350 . S
C439 N447 1.427 . S
C440 H431 0.925 1_545 S
C440 C438 1.378 . S
C440 C441 1.367 . S
C441 C440 1.367 . S
C441 C443 1.433 . S
C442 C438 1.350 . S
C442 C439 1.463 . S
C442 N446 1.427 . S
C443 H433 0.929 . S
C443 C441 1.433 . S
C443 N446 1.384 . S
C444 H435 0.929 . S
C444 C436 1.378 . S
C444 C439 1.350 . S
C445 H432 0.929 . S
C445 C437 1.433 . S
C445 N447 1.384 . S
N446 C442 1.427 . S
N446 C443 1.384 . S
N447 C439 1.427 . S
N447 C445 1.384 . S
H448 C454 0.930 . S
H449 C458 0.930 . S
H450 C463 0.929 . S
H451 C461 0.929 . S
H452 C456 0.929 . S
H453 C462 0.929 . S
C454 H448 0.930 . S
C454 C455 1.367 . S
C454 C462 1.378 . S
C455 C454 1.367 . S
C455 C463 1.433 . S
C456 H452 0.929 . S
C456 C458 1.378 . S
C456 C460 1.350 . S
C457 C460 1.463 . S
C457 C462 1.350 . S
C457 N465 1.427 . S
C458 H449 0.930 . S
C458 C456 1.378 . S
C458 C459 1.367 . S
C459 C458 1.367 . S
C459 C461 1.433 . S
C460 C456 1.350 . S
C460 C457 1.463 . S
C460 N464 1.427 . S
C461 H451 0.929 . S
C461 C459 1.433 . S
C461 N464 1.384 . S
C462 H453 0.929 . S
C462 C454 1.378 . S
C462 C457 1.350 . S
C463 H450 0.929 . S
C463 C455 1.433 . S
C463 N465 1.384 . S
N464 C460 1.427 . S
N464 C461 1.384 . S
N465 C457 1.427 . S
N465 C463 1.384 . S
H466 C472 0.930 . S
H467 C476 0.930 1_655 S
H468 C481 0.929 . S
H469 C479 0.929 . S
H470 C474 0.931 . S
H471 C480 0.929 . S
C472 H466 0.930 . S
C472 C473 1.367 . S
C472 C480 1.378 . S
C473 C472 1.367 . S
C473 C481 1.433 . S
C474 H470 0.931 . S
C474 C476 1.378 . S
C474 C478 1.350 . S
C475 C478 1.463 . S
C475 C480 1.350 . S
C475 N483 1.427 . S
C476 H467 0.930 1_455 S
C476 C474 1.378 . S
C476 C477 1.367 . S
C477 C476 1.367 . S
C477 C479 1.433 . S
C478 C474 1.350 . S
C478 C475 1.463 . S
C478 N482 1.427 . S
C479 H469 0.929 . S
C479 C477 1.433 . S
C479 N482 1.384 . S
C480 H471 0.929 . S
C480 C472 1.378 . S
C480 C475 1.350 . S
C481 H468 0.929 . S
C481 C473 1.433 . S
C481 N483 1.384 . S
N482 C478 1.427 . S
N482 C479 1.384 . S
N483 C475 1.427 . S
N483 C481 1.384 . S
H484 C490 0.930 . S
H485 C494 0.930 . S
H486 C499 0.929 . S
H487 C497 0.929 . S
H488 C492 0.927 . S
H489 C498 0.929 . S
C490 H484 0.930 . S
C490 C491 1.367 1_554 S
C490 C498 1.378 . S
C491 C490 1.367 1_556 S
C491 C499 1.433 . S
C492 H488 0.927 . S
C492 C494 1.382 . S
C492 C496 1.347 1_545 S
C493 C496 1.463 . S
C493 C498 1.350 1_556 S
C493 N501 1.427 . S
C494 H485 0.930 . S
C494 C492 1.382 . S
C494 C495 1.367 1_556 S
C495 C494 1.367 1_554 S
C495 C497 1.433 . S
C496 C492 1.347 1_565 S
C496 C493 1.463 . S
C496 N500 1.427 1_556 S
C497 H487 0.929 . S
C497 C495 1.433 . S
C497 N500 1.384 1_545 S
C498 H489 0.929 . S
C498 C490 1.378 . S
C498 C493 1.350 1_554 S
C499 H486 0.929 . S
C499 C491 1.433 . S
C499 N501 1.384 . S
N500 C496 1.427 1_554 S
N500 C497 1.384 1_565 S
N501 C493 1.427 . S
N501 C499 1.384 . S
H502 C508 0.930 . S
H503 C512 0.930 . S
H504 C517 0.929 . S
H505 C515 0.929 . S
H506 C510 0.929 . S
H507 C516 0.929 1_565 S
C508 H502 0.930 . S
C508 C509 1.367 . S
C508 C516 1.378 . S
C509 C508 1.367 . S
C509 C517 1.433 . S
C510 H506 0.929 . S
C510 C512 1.378 . S
C510 C514 1.350 . S
C511 C514 1.463 . S
C511 C516 1.350 . S
C511 N519 1.427 . S
C512 H503 0.930 . S
C512 C510 1.378 . S
C512 C513 1.367 . S
C513 C512 1.367 . S
C513 C515 1.433 1_545 S
C514 C510 1.350 . S
C514 C511 1.463 . S
C514 N518 1.427 . S
C515 H505 0.929 . S
C515 C513 1.433 1_565 S
C515 N518 1.384 1_565 S
C516 H507 0.929 1_545 S
C516 C508 1.378 . S
C516 C511 1.350 . S
C517 H504 0.929 . S
C517 C509 1.433 . S
C517 N519 1.384 . S
N518 C514 1.427 . S
N518 C515 1.384 1_545 S
N519 C511 1.427 . S
N519 C517 1.384 . S
H520 C526 0.930 . S
H521 C530 0.930 . S
H522 C535 0.929 . S
H523 C533 0.929 . S
H524 C528 0.929 . S
H525 C534 0.929 . S
C526 H520 0.930 . S
C526 C527 1.367 . S
C526 C534 1.378 . S
C527 C526 1.367 . S
C527 C535 1.433 . S
C528 H524 0.929 . S
C528 C530 1.378 . S
C528 C532 1.350 . S
C529 C532 1.463 . S
C529 C534 1.350 . S
C529 N537 1.427 . S
C530 H521 0.930 . S
C530 C528 1.378 . S
C530 C531 1.367 . S
C531 C530 1.367 . S
C531 C533 1.433 . S
C532 C528 1.350 . S
C532 C529 1.463 . S
C532 N536 1.427 . S
C533 H523 0.929 . S
C533 C531 1.433 . S
C533 N536 1.384 . S
C534 H525 0.929 . S
C534 C526 1.378 . S
C534 C529 1.350 . S
C535 H522 0.929 . S
C535 C527 1.433 . S
C535 N537 1.384 . S
N536 C532 1.427 . S
N536 C533 1.384 . S
N537 C529 1.427 . S
N537 C535 1.384 . S
H538 C544 0.930 . S
H539 C548 0.930 . S
H540 C553 0.929 . S
H541 C551 0.929 . S
H542 C546 0.929 . S
H543 C552 0.929 . S
C544 H538 0.930 . S
C544 C545 1.367 . S
C544 C552 1.378 . S
C545 C544 1.367 . S
C545 C553 1.433 . S
C546 H542 0.929 . S
C546 C548 1.378 . S
C546 C550 1.350 . S
C547 C550 1.463 . S
C547 C552 1.350 . S
C547 N555 1.427 . S
C548 H539 0.930 . S
C548 C546 1.378 . S
C548 C549 1.367 . S
C549 C548 1.367 . S
C549 C551 1.433 . S
C550 C546 1.350 . S
C550 C547 1.463 . S
C550 N554 1.427 . S
C551 H541 0.929 . S
C551 C549 1.433 . S
C551 N554 1.384 . S
C552 H543 0.929 . S
C552 C544 1.378 . S
C552 C547 1.350 . S
C553 H540 0.929 . S
C553 C545 1.433 . S
C553 N555 1.384 . S
N554 C550 1.427 . S
N554 C551 1.384 . S
N555 C547 1.427 . S
N555 C553 1.384 . S
H556 C562 0.930 . S
H557 C566 0.930 1_554 S
H558 C571 0.929 . S
H559 C569 0.929 1_455 S
H560 C564 0.930 1_554 S
H561 C570 0.929 1_455 S
C562 H556 0.930 . S
C562 C563 1.367 . S
C562 C570 1.378 . S
C563 C562 1.367 . S
C563 C571 1.433 . S
C564 H560 0.930 1_556 S
C564 C566 1.378 . S
C564 C568 1.350 . S
C565 C568 1.463 . S
C565 C570 1.350 . S
C565 N573 1.427 . S
C566 H557 0.930 1_556 S
C566 C564 1.378 . S
C566 C567 1.367 . S
C567 C566 1.367 . S
C567 C569 1.433 . S
C568 C564 1.350 . S
C568 C565 1.463 . S
C568 N572 1.427 . S
C569 H559 0.929 1_655 S
C569 C567 1.433 . S
C569 N572 1.384 . S
C570 H561 0.929 1_655 S
C570 C562 1.378 . S
C570 C565 1.350 . S
C571 H558 0.929 . S
C571 C563 1.433 . S
C571 N573 1.384 . S
N572 C568 1.427 . S
N572 C569 1.384 . S
N573 C565 1.427 . S
N573 C571 1.384 . S
H574 C580 0.930 . S
H575 C584 0.930 . S
H576 C589 0.929 . S
H577 C587 0.929 . S
H578 C582 0.929 . S
H579 C588 0.929 . S
C580 H574 0.930 . S
C580 C581 1.367 . S
C580 C588 1.378 . S
C581 C580 1.367 . S
C581 C589 1.433 . S
C582 H578 0.929 . S
C582 C584 1.378 . S
C582 C586 1.350 . S
C583 C586 1.463 . S
C583 C588 1.350 . S
C583 N591 1.427 . S
C584 H575 0.930 . S
C584 C582 1.378 . S
C584 C585 1.367 . S
C585 C584 1.367 . S
C585 C587 1.433 . S
C586 C582 1.350 . S
C586 C583 1.463 . S
C586 N590 1.427 . S
C587 H577 0.929 . S
C587 C585 1.433 . S
C587 N590 1.384 . S
C588 H579 0.929 . S
C588 C580 1.378 . S
C588 C583 1.350 . S
C589 H576 0.929 . S
C589 C581 1.433 . S
C589 N591 1.384 . S
N590 C586 1.427 . S
N590 C587 1.384 . S
N591 C583 1.427 . S
N591 C589 1.384 . S
H592 C598 0.930 . S
H593 C602 0.930 . S
H594 C607 0.929 . S
H595 C605 0.929 . S
H596 C600 0.929 . S
H597 C606 0.929 . S
C598 H592 0.930 . S
C598 C599 1.367 . S
C598 C606 1.378 . S
C599 C598 1.367 . S
C599 C607 1.433 . S
C600 H596 0.929 . S
C600 C602 1.378 . S
C600 C604 1.350 . S
C601 C604 1.463 . S
C601 C606 1.350 . S
C601 N609 1.427 . S
C602 H593 0.930 . S
C602 C600 1.378 . S
C602 C603 1.367 . S
C603 C602 1.367 . S
C603 C605 1.433 . S
C604 C600 1.350 . S
C604 C601 1.463 . S
C604 N608 1.427 . S
C605 H595 0.929 . S
C605 C603 1.433 . S
C605 N608 1.384 . S
C606 H597 0.929 . S
C606 C598 1.378 . S
C606 C601 1.350 . S
C607 H594 0.929 . S
C607 C599 1.433 . S
C607 N609 1.384 . S
N608 C604 1.427 . S
N608 C605 1.384 . S
N609 C601 1.427 . S
N609 C607 1.384 . S
H610 C616 0.930 . S
H611 C620 0.930 . S
H612 C625 0.929 . S
H613 C623 0.929 . S
H614 C618 0.929 . S
H615 C624 0.929 . S
C616 H610 0.930 . S
C616 C617 1.367 . S
C616 C624 1.378 . S
C617 C616 1.367 . S
C617 C625 1.433 . S
C618 H614 0.929 . S
C618 C620 1.378 . S
C618 C622 1.350 . S
C619 C622 1.463 . S
C619 C624 1.350 . S
C619 N627 1.427 . S
C620 H611 0.930 . S
C620 C618 1.378 . S
C620 C621 1.367 . S
C621 C620 1.367 . S
C621 C623 1.433 . S
C622 C618 1.350 . S
C622 C619 1.463 . S
C622 N626 1.427 . S
C623 H613 0.929 . S
C623 C621 1.433 . S
C623 N626 1.384 . S
C624 H615 0.929 . S
C624 C616 1.378 . S
C624 C619 1.350 . S
C625 H612 0.929 . S
C625 C617 1.433 . S
C625 N627 1.384 . S
N626 C622 1.427 . S
N626 C623 1.384 . S
N627 C619 1.427 . S
N627 C625 1.384 . S
C203 N1 1.523 . S
C207 C122 1.535 . S
C221 N18 1.881 . S
C225 C146 1.868 . S
C243 C166 1.006 . S
C239 N28 1.002 . S
C257 N40 1.564 . S
C261 C189 1.604 . S
C279 C148 1.975 . S
C275 N5 1.976 . S
C297 C124 1.699 . S
C293 N14 1.709 . S
C315 C192 1.519 . S
C311 N31 1.518 . S
C333 C169 1.203 . S
C329 N41 1.245 . S
C347 N2 1.373 . S
C351 C194 1.334 . S
C369 C143 1.684 . S
C365 N27 1.664 . S
C383 N44 1.687 . S
C387 C121 1.721 1_655 S
C401 N15 1.272 . S
C405 C171 1.246 . S
C423 C125 1.853 . S
C419 N57 1.842 . S
C437 N70 1.334 . S
C441 C147 1.374 . S
C455 N79 1.553 . S
C459 C167 1.628 . S
C473 N93 1.502 . S
C477 C190 1.527 . S
C491 N54 1.430 . S
C495 C145 1.426 . S
C513 C123 1.943 . S
C509 N66 1.926 . S
C531 C193 1.002 . S
C527 N80 1.019 . S
C549 C170 1.485 . S
C545 N96 1.507 . S
C563 N53 1.748 . S
C567 C191 1.737 . S
C585 C144 1.494 . S
C581 N83 1.457 . S
C603 C120 1.670 . S
C599 N92 1.624 . S
C617 N67 1.618 . S
C621 C168 1.629 . S
