# Generated by pormake.
# Topology sit, (3,6)-cn, num edge types: 1
# Building blocks:
#     Node 0, Type 0, BuildingBlock: BELTOD_clean_linker_0, # of connection points: 3
#     Node 1, Type 0, BuildingBlock: BELTOD_clean_linker_0, # of connection points: 3
#     Node 2, Type 0, BuildingBlock: BELTOD_clean_linker_0, # of connection points: 3
#     Node 3, Type 0, BuildingBlock: BELTOD_clean_linker_0, # of connection points: 3
#     Node 4, Type 1, BuildingBlock: MIDCAF_clean_sbu_0, # of connection points: 6
#     Node 5, Type 1, BuildingBlock: MIDCAF_clean_sbu_0, # of connection points: 6
#     Edge 6, Type (0, 1), BuildingBlock: MIFKUJ_clean_linker_0, # of connection points: 2
#     Edge 7, Type (0, 1), BuildingBlock: MIFKUJ_clean_linker_0, # of connection points: 2
#     Edge 8, Type (0, 1), BuildingBlock: MIFKUJ_clean_linker_0, # of connection points: 2
#     Edge 9, Type (0, 1), BuildingBlock: MIFKUJ_clean_linker_0, # of connection points: 2
#     Edge 10, Type (0, 1), BuildingBlock: MIFKUJ_clean_linker_0, # of connection points: 2
#     Edge 11, Type (0, 1), BuildingBlock: MIFKUJ_clean_linker_0, # of connection points: 2
#     Edge 12, Type (0, 1), BuildingBlock: MIFKUJ_clean_linker_0, # of connection points: 2
#     Edge 13, Type (0, 1), BuildingBlock: MIFKUJ_clean_linker_0, # of connection points: 2
#     Edge 14, Type (0, 1), BuildingBlock: MIFKUJ_clean_linker_0, # of connection points: 2
#     Edge 15, Type (0, 1), BuildingBlock: MIFKUJ_clean_linker_0, # of connection points: 2
#     Edge 16, Type (0, 1), BuildingBlock: MIFKUJ_clean_linker_0, # of connection points: 2
#     Edge 17, Type (0, 1), BuildingBlock: MIFKUJ_clean_linker_0, # of connection points: 2
# Relax obj value: 0.105
# Max RMSD: 0.192
# Mean RMSD: 0.101
data_MOF--net-sit--node1-MIDCAF_clean_sbu_0--node2-BELTOD_clean_linker_0--edge1-MIFKUJ_clean_linker_0
_symmetry_space_group_name_H-M    P1
_symmetry_Int_Tables_number       1
_symmetry_cell_setting            triclinic
loop_
_symmetry_equiv_pos_as_xyz
'x, y, z'
_cell_length_a     32.743269
_cell_length_b     45.872057
_cell_length_c     50.42069
_cell_angle_alpha  89.835714
_cell_angle_beta   90.141994
_cell_angle_gamma 84.11391
loop_
_atom_site_label
_atom_site_type_symbol
_atom_site_fract_x
_atom_site_fract_y
_atom_site_fract_z
_atom_type_partial_charge
P0 P 0.10055 0.23683 0.97757 0.0
H1 H 0.17472 0.23419 0.94475 0.0
H2 H 0.22527 0.26929 0.93758 0.0
H3 H 0.16759 0.32516 -0.00162 0.0
H4 H 0.11607 0.29068 0.0048 0.0
H5 H 0.068 0.18215 0.99186 0.0
H6 H 0.06809 0.15405 0.03329 0.0
H7 H 0.1336 0.21909 0.07211 0.0
H8 H 0.13343 0.24688 0.031 0.0
H9 H 0.07397 0.27574 0.93462 0.0
H10 H 0.02709 0.25263 0.01083 0.0
O11 O 0.10408 0.21309 0.95245 0.0
H12 H 0.01658 0.31325 0.92901 0.0
H13 H 0.96803 0.28935 0.00487 0.0
C14 C 0.14195 0.25967 0.97553 0.0
C15 C 0.17326 0.25374 0.95683 0.0
C16 C 0.20201 0.27378 0.95268 0.0
C17 C 0.20017 0.29975 0.96751 0.0
C18 C 0.1698 0.3051 0.98695 0.0
C19 C 0.14056 0.28538 0.99068 0.0
C20 C 0.10108 0.21647 0.00819 0.0
C21 C 0.08255 0.19026 0.00928 0.0
C22 C 0.08271 0.17419 0.03291 0.0
C23 C 0.10092 0.18436 0.0559 0.0
C24 C 0.11901 0.21083 0.05477 0.0
C25 C 0.11904 0.22674 0.03114 0.0
C26 C 0.05459 0.26129 0.97298 0.0
C27 C 0.05071 0.27836 0.94991 0.0
C28 C 0.01767 0.29976 0.9467 0.0
C29 C 0.98736 0.30433 0.96642 0.0
C30 C 0.991 0.28671 0.98942 0.0
C31 C 0.02453 0.26544 0.99274 0.0
P32 P 0.03695 0.71806 0.08137 0.0
H33 H 0.11952 0.69526 0.09897 0.0
H34 H 0.17912 0.67311 0.07458 0.0
H35 H 0.11705 0.69657 0.00061 0.0
H36 H 0.05804 0.71919 0.02515 0.0
H37 H 0.99182 0.75377 0.12102 0.0
H38 H 0.98112 0.80634 0.12847 0.0
H39 H 0.04325 0.82136 0.05487 0.0
H40 H 0.05472 0.76839 0.04789 0.0
H41 H 0.03814 0.66271 0.05315 0.0
H42 H 0.94794 0.73383 0.07472 0.0
O43 O 0.04162 0.70391 0.11188 0.0
H44 H 0.98589 0.63856 0.03032 0.0
H45 H 0.89441 0.70862 0.05353 0.0
C46 C 0.08425 0.70858 0.06384 0.0
C47 C 0.11912 0.69623 0.07752 0.0
C48 C 0.15305 0.68334 0.06354 0.0
C49 C 0.15256 0.6826 0.03565 0.0
C50 C 0.1186 0.69687 0.02206 0.0
C51 C 0.08479 0.70983 0.03607 0.0
C52 C 0.02491 0.75712 0.08427 0.0
C53 C 0.00281 0.76836 0.10634 0.0
C54 C 0.99623 0.79854 0.11038 0.0
C55 C 0.01133 0.81818 0.09225 0.0
C56 C 0.03159 0.80683 0.06934 0.0
C57 C 0.03818 0.77651 0.06534 0.0
C58 C -0.00275 0.70063 0.06482 0.0
C59 C 0.007 0.67325 0.05289 0.0
C60 C 0.97678 0.65912 0.04018 0.0
C61 C 0.93569 0.67154 0.03995 0.0
C62 C 0.92581 0.69866 0.05271 0.0
C63 C 0.95638 0.71309 0.065 0.0
P64 P 0.61041 0.72929 0.47226 0.0
H65 H 0.69635 0.72948 0.4563 0.0
H66 H 0.74229 0.76837 0.45494 0.0
H67 H 0.6491 0.82757 0.49268 0.0
H68 H 0.60348 0.78871 0.49402 0.0
H69 H 0.59665 0.66808 0.48098 0.0
H70 H 0.59623 0.63777 0.52103 0.0
H71 H 0.62519 0.71145 0.56823 0.0
H72 H 0.62496 0.74161 0.52827 0.0
H73 H 0.57645 0.76082 0.42633 0.0
H74 H 0.53676 0.74271 0.5056 0.0
O75 O 0.6228 0.70789 0.44618 0.0
H76 H 0.51497 0.79459 0.41953 0.0
H77 H 0.47417 0.7758 0.4987 0.0
C78 C 0.64623 0.75642 0.47467 0.0
C79 C 0.68602 0.75074 0.46453 0.0
C80 C 0.71228 0.77293 0.46389 0.0
C81 C 0.69903 0.80112 0.47341 0.0
C82 C 0.65984 0.80623 0.48477 0.0
C83 C 0.63378 0.784 0.48556 0.0
C84 C 0.61144 0.70693 0.50165 0.0
C85 C 0.6032 0.6776 0.49995 0.0
C86 C 0.60312 0.66028 0.52282 0.0
C87 C 0.61077 0.67219 0.54778 0.0
C88 C 0.61883 0.70169 0.54932 0.0
C89 C 0.61901 0.71892 0.52646 0.0
C90 C 0.56081 0.74887 0.46624 0.0
C91 C 0.55379 0.76345 0.44199 0.0
C92 C 0.51853 0.78278 0.43815 0.0
C93 C 0.48943 0.78791 0.45855 0.0
C94 C 0.49611 0.77261 0.48267 0.0
C95 C 0.53167 0.75336 0.48654 0.0
P96 P 0.53238 0.22164 0.57233 0.0
H97 H 0.61043 0.19157 0.59101 0.0
H98 H 0.66794 0.1658 0.5672 0.0
H99 H 0.61384 0.19727 0.49281 0.0
H100 H 0.55719 0.22386 0.51694 0.0
H101 H 0.45756 0.25933 0.58364 0.0
H102 H 0.44536 0.31116 0.5952 0.0
H103 H 0.57262 0.32147 0.57901 0.0
H104 H 0.58425 0.2698 0.56683 0.0
H105 H 0.51379 0.16153 0.57245 0.0
H106 H 0.46937 0.24188 0.53248 0.0
O107 O 0.53462 0.2092 0.60349 0.0
H108 H 0.46808 0.1347 0.54549 0.0
H109 H 0.42266 0.21515 0.50587 0.0
C110 C 0.57949 0.20946 0.55569 0.0
C111 C 0.61147 0.19354 0.56963 0.0
C112 C 0.64411 0.17849 0.55594 0.0
C113 C 0.6451 0.17891 0.52804 0.0
C114 C 0.61421 0.1965 0.51427 0.0
C115 C 0.58175 0.21174 0.52803 0.0
C116 C 0.52161 0.26084 0.57394 0.0
C117 C 0.48245 0.27301 0.58165 0.0
C118 C 0.47561 0.30259 0.58848 0.0
C119 C 0.50806 0.32044 0.58819 0.0
C120 C 0.5468 0.30849 0.57908 0.0
C121 C 0.55355 0.27887 0.57218 0.0
C122 C 0.49395 0.20379 0.55506 0.0
C123 C 0.49351 0.17349 0.55827 0.0
C124 C 0.46784 0.15814 0.54267 0.0
C125 C 0.44203 0.17292 0.52365 0.0
C126 C 0.44212 0.20337 0.52059 0.0
C127 C 0.46846 0.21866 0.53594 0.0
Zn128 Zn 0.05494 0.06945 0.36673 0.0
Zn129 Zn 0.06891 0.95831 0.34893 0.0
Zn130 Zn 0.0631 0.01328 0.35887 0.0
C131 C 0.05449 0.98483 0.30061 0.0
C132 C 0.00294 0.96882 0.38278 0.0
O133 O 0.11638 0.02287 0.38292 0.0
O134 O 0.09883 0.06915 0.39382 0.0
C135 C 0.07064 0.06298 0.31359 0.0
O136 O 0.06074 0.00713 0.31504 0.0
O137 O 0.05356 0.95989 0.311 0.0
O138 O 0.02742 0.94772 0.37467 0.0
O139 O 0.00942 0.99543 0.37732 0.0
O140 O 0.06695 0.08301 0.33075 0.0
O141 O 0.06781 0.03609 0.32035 0.0
O142 O 0.00436 0.02605 0.38041 0.0
O143 O -0.0022 0.07452 0.37863 0.0
C144 C 0.98358 0.05098 0.38498 0.0
O145 O 0.12105 0.99266 0.37711 0.0
O146 O 0.12728 0.9489 0.3584 0.0
C147 C 0.12332 0.04612 0.39572 0.0
C148 C 0.14177 0.96764 0.373 0.0
Zn149 Zn 0.54843 0.57375 0.85645 0.0
Zn150 Zn 0.57539 0.46026 0.85625 0.0
Zn151 Zn 0.56285 0.5173 0.85779 0.0
C152 C 0.56295 0.47774 0.8042 0.0
C153 C 0.50517 0.47411 0.88629 0.0
O154 O 0.61344 0.53412 0.88039 0.0
O155 O 0.59239 0.5815 0.88157 0.0
C156 C 0.56433 0.55851 0.80498 0.0
O157 O 0.56247 0.50291 0.81561 0.0
O158 O 0.5672 0.45452 0.81786 0.0
O159 O 0.53095 0.45254 0.88112 0.0
O160 O 0.51064 0.5 0.87796 0.0
O161 O 0.55721 0.58134 0.81874 0.0
O162 O 0.56597 0.53298 0.81603 0.0
O163 O 0.50295 0.53073 0.8778 0.0
O164 O 0.49182 0.57822 0.86946 0.0
C165 C 0.47996 0.55526 0.87933 0.0
O166 O 0.62145 0.50315 0.87917 0.0
O167 O 0.6318 0.45581 0.8698 0.0
C168 C 0.61805 0.56031 0.88826 0.0
C169 C 0.64372 0.47829 0.88043 0.0
H170 H 0.11919 0.12529 0.06353 0.0
H171 H 0.12183 0.09844 0.10572 0.0
H172 H 0.0849 0.17905 0.14712 0.0
H173 H 0.08273 0.20588 0.10522 0.0
H174 H 0.14651 0.15022 0.17202 0.0
H175 H 0.01783 0.12526 0.13502 0.0
H176 H 0.97135 0.1046 0.10318 0.0
H177 H 0.04105 0.02035 0.10989 0.0
H178 H 0.08829 0.04064 0.14148 0.0
H179 H 0.04696 0.11455 0.28876 0.0
H180 H 0.06301 0.12873 0.24349 0.0
H181 H 0.12938 0.04377 0.23082 0.0
H182 H 0.11571 0.03036 0.27704 0.0
H183 H 0.06707 0.06601 0.19005 0.0
H184 H 0.18628 0.09059 0.23425 0.0
H185 H 0.2259 0.11139 0.26989 0.0
H186 H 0.1684 0.19751 0.25175 0.0
H187 H 0.12783 0.17716 0.21629 0.0
C188 C 0.11129 0.13717 0.08165 0.0
C189 C 0.10092 0.16769 0.08113 0.0
C190 C 0.11281 0.12182 0.10571 0.0
C191 C 0.10346 0.13671 0.12959 0.0
C192 C 0.09259 0.16712 0.12899 0.0
C193 C 0.09138 0.18245 0.10504 0.0
C194 C 0.10556 0.12106 0.15542 0.0
C195 C 0.12885 0.13192 0.17594 0.0
C196 C 0.08395 0.09639 0.16033 0.0
C197 C 0.05698 0.08459 0.14024 0.0
C198 C 0.02362 0.10245 0.12936 0.0
C199 C -0.00296 0.09078 0.11144 0.0
C200 C 0.00336 0.06122 0.1044 0.0
C201 C 0.03634 0.04328 0.11521 0.0
C202 C 0.06306 0.05487 0.13308 0.0
C203 C 0.06498 0.09889 0.27634 0.0
C204 C 0.07891 0.07086 0.28593 0.0
C205 C 0.07416 0.10702 0.25056 0.0
C206 C 0.09728 0.08724 0.23394 0.0
C207 C 0.11119 0.05919 0.24337 0.0
C208 C 0.10267 0.0513 0.26943 0.0
C209 C 0.10588 0.09622 0.20659 0.0
C210 C 0.08504 0.084 0.18582 0.0
C211 C 0.12924 0.11982 0.20151 0.0
C212 C 0.15376 0.13229 0.2227 0.0
C213 C 0.18179 0.11393 0.238 0.0
C214 C 0.20448 0.12565 0.25815 0.0
C215 C 0.19962 0.15575 0.26311 0.0
C216 C 0.17212 0.1742 0.24788 0.0
C217 C 0.1493 0.16258 0.22773 0.0
H218 H 0.21722 0.16478 0.27872 0.0
H219 H 0.98261 0.05218 0.09065 0.0
H220 H 0.0721 0.85427 0.08555 0.0
H221 H 0.07796 0.90037 0.10843 0.0
H222 H 0.95535 0.89911 0.13904 0.0
H223 H 0.94849 0.85352 0.11528 0.0
H224 H 0.98061 0.95714 0.1349 0.0
H225 H 0.02752 0.86056 0.17105 0.0
H226 H 0.06739 0.81204 0.16825 0.0
H227 H 0.17867 0.85317 0.15939 0.0
H228 H 0.13923 0.90197 0.16163 0.0
H229 H 0.98342 0.98924 0.27281 0.0
H230 H 0.9761 0.97747 0.22586 0.0
H231 H 0.10773 0.97247 0.21672 0.0
H232 H 0.1149 0.98162 0.26407 0.0
H233 H 0.08423 0.92455 0.20355 0.0
H234 H 0.03491 0.02232 0.18166 0.0
H235 H 0.99269 0.07007 0.18388 0.0
H236 H 0.88446 0.02807 0.16692 0.0
H237 H 0.92571 0.98009 0.16512 0.0
C238 C 0.04557 0.86444 0.09604 0.0
C239 C 0.01022 0.84975 0.09922 0.0
C240 C 0.04902 0.89086 0.10915 0.0
C241 C 0.01746 0.90274 0.12592 0.0
C242 C 0.98017 0.8902 0.12633 0.0
C243 C 0.97655 0.86389 0.11304 0.0
C244 C 0.02659 0.92305 0.14744 0.0
C245 C 0.00327 0.95031 0.15 0.0
C246 C 0.0566 0.91412 0.16681 0.0
C247 C 0.08044 0.88484 0.1662 0.0
C248 C 0.06047 0.85923 0.16837 0.0
C249 C 0.08297 0.8317 0.16687 0.0
C250 C 0.12553 0.82952 0.16358 0.0
C251 C 0.14569 0.85489 0.16188 0.0
C252 C 0.12329 0.88249 0.16324 0.0
C253 C 0.01054 0.98677 0.26042 0.0
C254 C 0.04964 0.98719 0.27173 0.0
C255 C 0.00638 0.98021 0.23352 0.0
C256 C 0.04135 0.97425 0.21752 0.0
C257 C 0.08025 0.97708 0.22854 0.0
C258 C 0.08439 0.98273 0.25553 0.0
C259 C 0.03822 0.95925 0.19155 0.0
C260 C 0.0624 0.9324 0.18827 0.0
C261 C 0.00873 0.9687 0.17183 0.0
C262 C 0.98355 0.99752 0.17338 0.0
C263 C 0.00207 0.02323 0.17869 0.0
C264 C 0.97833 0.05034 0.17981 0.0
C265 C 0.93601 0.05208 0.17553 0.0
C266 C 0.91729 0.02671 0.17019 0.0
C267 C 0.94086 0.99954 0.16909 0.0
H268 H 0.91772 0.07309 0.17634 0.0
H269 H 0.14291 0.80819 0.16242 0.0
H270 H 0.64309 0.61516 0.5561 0.0
H271 H 0.64246 0.58674 0.59744 0.0
H272 H 0.57462 0.66044 0.63575 0.0
H273 H 0.57497 0.68871 0.59479 0.0
H274 H 0.64025 0.63884 0.6647 0.0
H275 H 0.53109 0.59962 0.61382 0.0
H276 H 0.50227 0.57265 0.57718 0.0
H277 H 0.58201 0.49556 0.59749 0.0
H278 H 0.61198 0.52227 0.63388 0.0
H279 H 0.53057 0.60227 0.77358 0.0
H280 H 0.54695 0.61209 0.72751 0.0
H281 H 0.62988 0.53283 0.72536 0.0
H282 H 0.6142 0.52306 0.77205 0.0
H283 H 0.57221 0.54808 0.67729 0.0
H284 H 0.67711 0.58426 0.73049 0.0
H285 H 0.70355 0.60974 0.7689 0.0
H286 H 0.63387 0.68989 0.74484 0.0
H287 H 0.60644 0.66476 0.70652 0.0
C288 C 0.6277 0.62514 0.57331 0.0
C289 C 0.6094 0.65428 0.57228 0.0
C290 C 0.62741 0.60889 0.59687 0.0
C291 C 0.60856 0.62151 0.61966 0.0
C292 C 0.58968 0.65036 0.61846 0.0
C293 C 0.59003 0.66655 0.59506 0.0
C294 C 0.60923 0.60554 0.64528 0.0
C295 C 0.62567 0.61884 0.66736 0.0
C296 C 0.59168 0.57878 0.64865 0.0
C297 C 0.57433 0.56313 0.62626 0.0
C298 C 0.54296 0.57707 0.61021 0.0
C299 C 0.52632 0.56179 0.58953 0.0
C300 C 0.54046 0.53246 0.58491 0.0
C301 C 0.57124 0.51832 0.60098 0.0
C302 C 0.5881 0.53354 0.62161 0.0
C303 C 0.55196 0.58675 0.76326 0.0
C304 C 0.57103 0.56188 0.77631 0.0
C305 C 0.5612 0.59232 0.73694 0.0
C306 C 0.58971 0.57322 0.72318 0.0
C307 C 0.60763 0.54767 0.73569 0.0
C308 C 0.59858 0.54216 0.76226 0.0
C309 C 0.60245 0.58174 0.69645 0.0
C310 C 0.58842 0.56727 0.67433 0.0
C311 C 0.62271 0.6072 0.69288 0.0
C312 C 0.63956 0.62256 0.7157 0.0
C313 C 0.66719 0.60726 0.73349 0.0
C314 C 0.68239 0.62165 0.75524 0.0
C315 C 0.67036 0.6514 0.75933 0.0
C316 C 0.64317 0.66684 0.74164 0.0
C317 C 0.62783 0.65254 0.71988 0.0
H318 H 0.68215 0.6625 0.77618 0.0
H319 H 0.52743 0.52066 0.56894 0.0
H320 H 0.4686 0.33557 0.63429 0.0
H321 H 0.47084 0.38023 0.6595 0.0
H322 H 0.53963 0.41675 0.59686 0.0
H323 H 0.53804 0.37135 0.57148 0.0
H324 H 0.57783 0.42189 0.6395 0.0
H325 H 0.44192 0.45078 0.61713 0.0
H326 H 0.36866 0.44748 0.60768 0.0
H327 H 0.34888 0.42421 0.68883 0.0
H328 H 0.42211 0.42691 0.69873 0.0
H329 H 0.51657 0.51436 0.76997 0.0
H330 H 0.50547 0.5066 0.72236 0.0
H331 H 0.58598 0.42605 0.72648 0.0
H332 H 0.5983 0.43438 0.77323 0.0
H333 H 0.46965 0.46539 0.70037 0.0
H334 H 0.6319 0.40649 0.67309 0.0
H335 H 0.70462 0.41454 0.67905 0.0
H336 H 0.67052 0.50645 0.69074 0.0
H337 H 0.59747 0.49887 0.68517 0.0
C338 C 0.483 0.35342 0.62536 0.0
C339 C 0.50322 0.34983 0.60085 0.0
C340 C 0.48412 0.37916 0.63984 0.0
C341 C 0.50501 0.40219 0.63006 0.0
C342 C 0.52327 0.39936 0.60486 0.0
C343 C 0.52245 0.37338 0.5904 0.0
C344 C 0.51305 0.4266 0.64811 0.0
C345 C 0.55403 0.43181 0.6525 0.0
C346 C 0.48193 0.44082 0.66437 0.0
C347 C 0.43767 0.43907 0.65867 0.0
C348 C 0.42204 0.4448 0.63295 0.0
C349 C 0.38047 0.44305 0.62751 0.0
C350 C 0.35413 0.43565 0.64764 0.0
C351 C 0.3693 0.43 0.67326 0.0
C352 C 0.41085 0.43171 0.67882 0.0
C353 C 0.53277 0.49555 0.7604 0.0
C354 C 0.55867 0.47517 0.77516 0.0
C355 C 0.52628 0.49101 0.73327 0.0
C356 C 0.54546 0.46599 0.72061 0.0
C357 C 0.57177 0.44598 0.73543 0.0
C358 C 0.57839 0.45058 0.7623 0.0
C359 C 0.53468 0.45826 0.69302 0.0
C360 C 0.49322 0.45629 0.68681 0.0
C361 C 0.56523 0.4477 0.67463 0.0
C362 C 0.60914 0.45217 0.6786 0.0
C363 C 0.63986 0.42845 0.67685 0.0
C364 C 0.68115 0.43289 0.68031 0.0
C365 C 0.69215 0.46098 0.68536 0.0
C366 C 0.66189 0.48467 0.68705 0.0
C367 C 0.62054 0.48031 0.68384 0.0
H368 H 0.72415 0.46439 0.68792 0.0
H369 H 0.32196 0.4343 0.64339 0.0
H370 H 0.25258 0.32388 0.0012 0.0
H371 H 0.29912 0.36084 0.99054 0.0
H372 H 0.25433 0.3642 0.9098 0.0
H373 H 0.20968 0.32617 0.92019 0.0
H374 H 0.33093 0.36265 0.90818 0.0
H375 H 0.22897 0.42038 0.95858 0.0
H376 H 0.18423 0.43341 0.99691 0.0
H377 H 0.29017 0.43771 0.04656 0.0
H378 H 0.33556 0.4243 0.0086 0.0
H379 H 0.42618 0.48669 0.8702 0.0
H380 H 0.36629 0.46557 0.88865 0.0
H381 H 0.44111 0.42734 0.95282 0.0
H382 H 0.50119 0.44751 0.93392 0.0
H383 H 0.34644 0.45077 0.96277 0.0
H384 H 0.44525 0.38366 0.91198 0.0
H385 H 0.48858 0.37319 0.87249 0.0
H386 H 0.38277 0.38999 0.82211 0.0
H387 H 0.33897 0.40106 0.86137 0.0
C388 C 0.25287 0.33262 0.98122 0.0
C389 C 0.22799 0.32219 0.96142 0.0
C390 C 0.27909 0.35391 0.97518 0.0
C391 C 0.27984 0.36574 0.94943 0.0
C392 C 0.25444 0.35545 0.92979 0.0
C393 C 0.22901 0.33372 0.93567 0.0
C394 C 0.30865 0.38757 0.94243 0.0
C395 C 0.33354 0.38211 0.91998 0.0
C396 C 0.31287 0.41289 0.95792 0.0
C397 C 0.28566 0.42107 0.98078 0.0
C398 C 0.24273 0.42389 0.97771 0.0
C399 C 0.21725 0.43138 -0.00063 0.0
C400 C 0.23435 0.43631 0.02417 0.0
C401 C 0.27697 0.43385 0.02735 0.0
C402 C 0.30259 0.42633 0.00576 0.0
C403 C 0.42933 0.47462 0.88872 0.0
C404 C 0.46796 0.46848 0.90069 0.0
C405 C 0.39524 0.46271 0.89926 0.0
C406 C 0.3995 0.44498 0.92205 0.0
C407 C 0.43728 0.44122 0.93538 0.0
C408 C 0.4715 0.45254 0.92452 0.0
C409 C 0.36772 0.42561 0.9287 0.0
C410 C 0.34288 0.43142 0.95102 0.0
C411 C 0.36295 0.40076 0.91301 0.0
C412 C 0.38901 0.39348 0.88951 0.0
C413 C 0.43133 0.38534 0.89245 0.0
C414 C 0.45595 0.37927 0.87014 0.0
C415 C 0.43846 0.381 0.8448 0.0
C416 C 0.39628 0.38871 0.84175 0.0
C417 C 0.37156 0.39488 0.86402 0.0
H418 H 0.45756 0.37631 0.82753 0.0
H419 H 0.21457 0.44211 0.04092 0.0
H420 H 0.93028 0.61219 0.03632 0.0
H421 H 0.87951 0.58733 0.01188 0.0
H422 H 0.81612 0.67078 0.98968 0.0
H423 H 0.86804 0.69607 0.01252 0.0
H424 H 0.77087 0.61713 0.01677 0.0
H425 H 0.85947 0.64922 0.9443 0.0
H426 H 0.92693 0.64942 0.92265 0.0
H427 H 0.94012 0.55532 0.92088 0.0
H428 H 0.87312 0.55462 0.94307 0.0
H429 H 0.61855 0.60482 0.92327 0.0
H430 H 0.67484 0.61722 0.95102 0.0
H431 H 0.75089 0.54176 0.92166 0.0
H432 H 0.69564 0.53153 0.89128 0.0
H433 H 0.7948 0.58275 0.92439 0.0
H434 H 0.70729 0.54642 0.9879 0.0
H435 H 0.64274 0.53991 0.01121 0.0
H436 H 0.63127 0.63037 0.03438 0.0
H437 H 0.69545 0.63757 0.0109 0.0
C438 C 0.90601 0.62539 0.02591 0.0
C439 C 0.90358 0.65626 0.02632 0.0
C440 C 0.87687 0.61106 0.01217 0.0
C441 C 0.8444 0.62731 -0.00098 0.0
C442 C 0.84112 0.65798 -0.00018 0.0
C443 C 0.87066 0.67236 0.01309 0.0
C444 C 0.81359 0.61243 0.9844 0.0
C445 C 0.7758 0.60959 0.99654 0.0
C446 C 0.82122 0.60127 0.95865 0.0
C447 C 0.8616 0.60187 0.94563 0.0
C448 C 0.87702 0.62859 0.93963 0.0
C449 C 0.91512 0.62879 0.9272 0.0
C450 C 0.93788 0.6024 0.92049 0.0
C451 C 0.92255 0.57575 0.92616 0.0
C452 C 0.88454 0.57544 0.93867 0.0
C453 C 0.64723 0.59079 0.92274 0.0
C454 C 0.65221 0.56639 0.90586 0.0
C455 C 0.6793 0.59765 0.93897 0.0
C456 C 0.71677 0.5798 0.93934 0.0
C457 C 0.72204 0.55556 0.92221 0.0
C458 C 0.69017 0.54922 0.90531 0.0
C459 C 0.75097 0.58789 0.95635 0.0
C460 C 0.78967 0.58946 0.94479 0.0
C461 C 0.74463 0.5968 0.98308 0.0
C462 C 0.70616 0.59256 0.99751 0.0
C463 C 0.69092 0.56497 0.99785 0.0
C464 C 0.65438 0.56116 0.0111 0.0
C465 C 0.63289 0.58472 0.02424 0.0
C466 C 0.64796 0.61214 0.02421 0.0
C467 C 0.68447 0.61608 0.01097 0.0
H468 H 0.60459 0.58173 0.03446 0.0
H469 H 0.96733 0.6026 0.91082 0.0
H470 H 0.94994 0.34104 0.00433 0.0
H471 H 0.89487 0.38083 0.99771 0.0
H472 H 0.89291 0.36145 0.91415 0.0
H473 H 0.9462 0.32097 0.92061 0.0
H474 H 0.89633 0.42274 0.92723 0.0
H475 H 0.82239 0.33862 0.94936 0.0
H476 H 0.80555 0.29849 0.97874 0.0
H477 H 0.77049 0.36054 0.04028 0.0
H478 H 0.78769 0.40101 0.01132 0.0
H479 H 0.71545 0.4577 0.85866 0.0
H480 H 0.77895 0.44094 0.88176 0.0
H481 H 0.72544 0.47244 0.95582 0.0
H482 H 0.66109 0.48914 0.93236 0.0
H483 H 0.7545 0.41611 0.95934 0.0
H484 H 0.81124 0.50145 0.93151 0.0
H485 H 0.82745 0.5411 0.9014 0.0
H486 H 0.89544 0.47847 0.85111 0.0
H487 H 0.87897 0.43831 0.88048 0.0
C488 C 0.93737 0.34492 0.9846 0.0
C489 C 0.9528 0.32781 0.96297 0.0
C490 C 0.90621 0.36785 0.98085 0.0
C491 C 0.89028 0.37421 0.95541 0.0
C492 C 0.90531 0.35712 0.93388 0.0
C493 C 0.93591 0.33402 0.93763 0.0
C494 C 0.85721 0.39818 0.95084 0.0
C495 C 0.86527 0.4215 0.93426 0.0
C496 C 0.81725 0.39705 0.96101 0.0
C497 C 0.80688 0.37276 0.97835 0.0
C498 C 0.81149 0.34366 0.96925 0.0
C499 C 0.80179 0.32087 0.9858 0.0
C500 C 0.78712 0.32695 0.0114 0.0
C501 C 0.78198 0.35585 0.02047 0.0
C502 C 0.79168 0.37872 0.004 0.0
C503 C 0.71776 0.46189 0.87973 0.0
C504 C 0.68381 0.47486 0.89377 0.0
C505 C 0.75411 0.45246 0.89294 0.0
C506 C 0.75722 0.45568 0.92053 0.0
C507 C 0.72382 0.46993 0.9345 0.0
C508 C 0.68725 0.47955 0.92115 0.0
C509 C 0.79303 0.44018 0.93457 0.0
C510 C 0.78568 0.41826 0.95298 0.0
C511 C 0.83373 0.4427 0.9261 0.0
C512 C 0.84375 0.4668 0.90825 0.0
C513 C 0.82939 0.49607 0.91393 0.0
C514 C 0.83865 0.51866 0.897 0.0
C515 C 0.86248 0.51233 0.87442 0.0
C516 C 0.87705 0.48336 0.86865 0.0
C517 C 0.86779 0.46066 0.88545 0.0
H518 H 0.86965 0.52988 0.86138 0.0
H519 H 0.77961 0.30928 0.02418 0.0
H520 H 0.1886 0.69656 0.9889 0.0
H521 H 0.23923 0.66579 0.96307 0.0
H522 H 0.24184 0.59823 0.02289 0.0
H523 H 0.19078 0.62864 0.04867 0.0
H524 H 0.31892 0.60801 0.00616 0.0
H525 H 0.19092 0.58986 0.96645 0.0
H526 H 0.12299 0.60362 0.94625 0.0
H527 H 0.17944 0.64691 0.88251 0.0
H528 H 0.24768 0.63379 0.90253 0.0
H529 H 0.45722 0.52387 0.92239 0.0
H530 H 0.39474 0.53401 0.9489 0.0
H531 H 0.354 0.60565 0.89626 0.0
H532 H 0.41412 0.59389 0.86873 0.0
H533 H 0.29063 0.58354 0.91256 0.0
H534 H 0.41381 0.61257 0.95624 0.0
H535 H 0.48274 0.60276 0.97626 0.0
H536 H 0.43646 0.54306 0.03173 0.0
H537 H 0.36734 0.55234 0.01183 0.0
C538 C 0.19983 0.67513 0.99652 0.0
C539 C 0.18562 0.66507 0.02084 0.0
C540 C 0.22871 0.65756 0.98174 0.0
C541 C 0.24376 0.62956 0.99091 0.0
C542 C 0.23049 0.61974 0.01546 0.0
C543 C 0.20155 0.63726 0.03024 0.0
C544 C 0.27375 0.61076 0.97491 0.0
C545 C 0.31253 0.60215 0.98585 0.0
C546 C 0.26542 0.60337 0.94837 0.0
C547 C 0.22442 0.61096 0.93609 0.0
C548 C 0.18884 0.60246 0.94821 0.0
C549 C 0.15027 0.61014 0.93678 0.0
C550 C 0.1469 0.62616 0.91313 0.0
C551 C 0.1821 0.63449 0.90083 0.0
C552 C 0.22074 0.62691 0.91219 0.0
C553 C 0.43392 0.54079 0.91584 0.0
C554 C 0.44028 0.55784 0.89336 0.0
C555 C 0.3986 0.547 0.93129 0.0
C556 C 0.37002 0.57107 0.92496 0.0
C557 C 0.37546 0.587 0.90167 0.0
C558 C 0.41008 0.5804 0.88601 0.0
C559 C 0.33653 0.58187 0.9434 0.0
C560 C 0.29686 0.58888 0.93303 0.0
C561 C 0.34424 0.58826 0.97033 0.0
C562 C 0.38563 0.58288 0.98238 0.0
C563 C 0.41844 0.59726 0.97263 0.0
C564 C 0.4575 0.5918 0.98395 0.0
C565 C 0.464 0.57223 0.0052 0.0
C566 C 0.4314 0.55816 0.01523 0.0
C567 C 0.39229 0.56351 0.00395 0.0
H568 H 0.49427 0.56802 0.01394 0.0
H569 H 0.11701 0.63209 0.90432 0.0
H570 H 0.78133 0.80081 0.48318 0.0
H571 H 0.82477 0.83995 0.47376 0.0
H572 H 0.71881 0.89553 0.44621 0.0
H573 H 0.67529 0.85637 0.4553 0.0
H574 H 0.78192 0.89228 0.41082 0.0
H575 H 0.76358 0.91267 0.50266 0.0
H576 H 0.76171 0.90155 0.55047 0.0
H577 H 0.89033 0.87169 0.54936 0.0
H578 H 0.89289 0.88222 0.50144 0.0
H579 H 0.9234 0.99348 0.37858 0.0
H580 H 0.86319 0.97692 0.40084 0.0
H581 H 0.94203 0.91024 0.44202 0.0
H582 H 0.00189 0.92767 0.42092 0.0
H583 H 0.88124 0.92972 0.47342 0.0
H584 H 0.89432 0.89651 0.38145 0.0
H585 H 0.89839 0.90494 0.3332 0.0
H586 H 0.78146 0.95673 0.33484 0.0
H587 H 0.77693 0.94878 0.38317 0.0
C588 C 0.76729 0.82146 0.47531 0.0
C589 C 0.72496 0.82554 0.46997 0.0
C590 C 0.79203 0.84388 0.47017 0.0
C591 C 0.7749 0.87074 0.45952 0.0
C592 C 0.73255 0.87505 0.45459 0.0
C593 C 0.70774 0.85272 0.45992 0.0
C594 C 0.80189 0.89325 0.45153 0.0
C595 C 0.80293 0.90106 0.42464 0.0
C596 C 0.82965 0.90437 0.4695 0.0
C597 C 0.82835 0.89809 0.49838 0.0
C598 C 0.79142 0.90353 0.51255 0.0
C599 C 0.79024 0.89737 0.53969 0.0
C600 C 0.82586 0.88589 0.55294 0.0
C601 C 0.86276 0.88059 0.53907 0.0
C602 C 0.8641 0.8867 0.51192 0.0
C603 C 0.92776 0.97595 0.39307 0.0
C604 C 0.96713 0.962 0.39831 0.0
C605 C 0.89342 0.96632 0.40557 0.0
C606 C 0.89804 0.94206 0.42287 0.0
C607 C 0.93764 0.92904 0.42888 0.0
C608 C 0.9718 0.93886 0.41667 0.0
C609 C 0.86214 0.92788 0.4326 0.0
C610 C 0.85942 0.92158 0.45978 0.0
C611 C 0.83306 0.91784 0.41489 0.0
C612 C 0.83545 0.92227 0.38586 0.0
C613 C 0.86956 0.90976 0.37149 0.0
C614 C 0.87195 0.91445 0.34416 0.0
C615 C 0.84023 0.9314 0.33097 0.0
C616 C 0.806 0.94361 0.34508 0.0
C617 C 0.80349 0.939 0.37243 0.0
H618 H 0.84215 0.93504 0.30981 0.0
H619 H 0.82489 0.88113 0.57395 0.0
H620 H 0.35959 0.18444 0.51669 0.0
H621 H 0.31361 0.15412 0.49332 0.0
H622 H 0.41739 0.09407 0.4704 0.0
H623 H 0.46354 0.12403 0.49422 0.0
H624 H 0.34682 0.11494 0.42876 0.0
H625 H 0.3781 0.06741 0.51365 0.0
H626 H 0.38702 0.06839 0.56221 0.0
H627 H 0.26165 0.10467 0.57119 0.0
H628 H 0.25221 0.10436 0.52261 0.0
H629 H 0.20111 0.02216 0.38411 0.0
H630 H 0.26464 0.0331 0.40625 0.0
H631 H 0.1931 0.08641 0.46331 0.0
H632 H 0.13007 0.0746 0.44195 0.0
H633 H 0.25871 0.06012 0.48667 0.0
H634 H 0.22812 0.11564 0.40576 0.0
H635 H 0.215 0.12099 0.3577 0.0
H636 H 0.33361 0.07577 0.34132 0.0
H637 H 0.34719 0.06984 0.38934 0.0
C638 C 0.37258 0.16501 0.50633 0.0
C639 C 0.41492 0.15639 0.50731 0.0
C640 C 0.3464 0.14775 0.49307 0.0
C641 C 0.3623 0.12193 0.4803 0.0
C642 C 0.40475 0.11397 0.48017 0.0
C643 C 0.4309 0.13096 0.49384 0.0
C644 C 0.33394 0.1024 0.46879 0.0
C645 C 0.32819 0.10231 0.44126 0.0
C646 C 0.3093 0.08653 0.48529 0.0
C647 C 0.31455 0.08604 0.51451 0.0
C648 C 0.35253 0.07578 0.52598 0.0
C649 C 0.35767 0.07619 0.5535 0.0
C650 C 0.32494 0.08664 0.56977 0.0
C651 C 0.28697 0.0966 0.55856 0.0
C652 C 0.2817 0.09627 0.53103 0.0
C653 C 0.19912 0.03522 0.402 0.0
C654 C 0.16088 0.04742 0.41149 0.0
C655 C 0.23533 0.04174 0.41444 0.0
C656 C 0.23358 0.06097 0.43617 0.0
C657 C 0.19524 0.07153 0.44661 0.0
C658 C 0.15925 0.06489 0.43433 0.0
C659 C 0.27082 0.07293 0.4465 0.0
C660 C 0.27816 0.07185 0.47394 0.0
C661 C 0.29638 0.08819 0.42991 0.0
C662 C 0.28846 0.09198 0.40108 0.0
C663 C 0.25128 0.10668 0.39189 0.0
C664 C 0.24377 0.10983 0.36467 0.0
C665 C 0.2734 0.09864 0.34646 0.0
C666 C 0.31065 0.08437 0.35544 0.0
C667 C 0.31828 0.0811 0.38265 0.0
H668 H 0.26752 0.1011 0.32539 0.0
H669 H 0.32898 0.08696 0.59108 0.0
H670 H 0.44286 0.79884 0.41378 0.0
H671 H 0.38826 0.8383 0.40627 0.0
H672 H 0.39847 0.86646 0.48729 0.0
H673 H 0.45441 0.82754 0.49484 0.0
H674 H 0.31524 0.86374 0.4681 0.0
H675 H 0.43701 0.90652 0.44528 0.0
H676 H 0.50443 0.90849 0.42407 0.0
H677 H 0.44914 0.90244 0.34724 0.0
H678 H 0.38146 0.89995 0.368 0.0
H679 H 0.16694 0.97923 0.42351 0.0
H680 H 0.23102 0.95856 0.44512 0.0
H681 H 0.27004 0.91624 0.37177 0.0
H682 H 0.20703 0.93714 0.35027 0.0
H683 H 0.33391 0.9359 0.39673 0.0
H684 H 0.21827 0.8811 0.41952 0.0
H685 H 0.15051 0.87604 0.43931 0.0
H686 H 0.19417 0.90287 0.5149 0.0
H687 H 0.26208 0.90842 0.49543 0.0
C688 C 0.43381 0.81348 0.43001 0.0
C689 C 0.45343 0.81015 0.45484 0.0
C690 C 0.40247 0.83596 0.42569 0.0
C691 C 0.38982 0.85549 0.44613 0.0
C692 C 0.40798 0.85162 0.47126 0.0
C693 C 0.43974 0.82924 0.47556 0.0
C694 C 0.35789 0.88002 0.4407 0.0
C695 C 0.31954 0.88004 0.453 0.0
C696 C 0.36357 0.90109 0.42087 0.0
C697 C 0.40416 0.90291 0.40823 0.0
C698 C 0.43925 0.90541 0.42387 0.0
C699 C 0.47752 0.90665 0.41193 0.0
C700 C 0.48108 0.90556 0.38433 0.0
C701 C 0.44634 0.90329 0.36862 0.0
C702 C 0.408 0.90201 0.38047 0.0
C703 C 0.18984 0.96617 0.41194 0.0
C704 C 0.18226 0.95975 0.38527 0.0
C705 C 0.22621 0.95423 0.4243 0.0
C706 C 0.25511 0.93559 0.41011 0.0
C707 C 0.24831 0.93059 0.38311 0.0
C708 C 0.2122 0.94241 0.37086 0.0
C709 C 0.29072 0.91887 0.42331 0.0
C710 C 0.32989 0.92026 0.41245 0.0
C711 C 0.28569 0.89895 0.44429 0.0
C712 C 0.24499 0.89555 0.45597 0.0
C713 C 0.21329 0.88613 0.44031 0.0
C714 C 0.17489 0.88314 0.45147 0.0
C715 C 0.16799 0.88923 0.47833 0.0
C716 C 0.19952 0.89824 0.49409 0.0
C717 C 0.23796 0.90131 0.48301 0.0
H718 H 0.13825 0.8869 0.48693 0.0
H719 H 0.51073 0.90651 0.37512 0.0
H720 H 0.67571 0.12269 0.54033 0.0
H721 H 0.72738 0.09093 0.5163 0.0
H722 H 0.73624 0.15889 0.45799 0.0
H723 H 0.68538 0.19122 0.48227 0.0
H724 H 0.73152 0.10102 0.43644 0.0
H725 H 0.80596 0.15035 0.50503 0.0
H726 H 0.81919 0.16282 0.55162 0.0
H727 H 0.84122 0.07137 0.57116 0.0
H728 H 0.82761 0.05838 0.52472 0.0
H729 H 0.91784 0.0882 0.37179 0.0
H730 H 0.85434 0.09843 0.39642 0.0
H731 H 0.89407 0.02937 0.45196 0.0
H732 H 0.95932 0.02024 0.42784 0.0
H733 H 0.86818 0.07551 0.47789 0.0
H734 H 0.80903 0.02484 0.40965 0.0
H735 H 0.79533 0.00915 0.36408 0.0
H736 H 0.74172 0.09602 0.34484 0.0
H737 H 0.75571 0.11242 0.39017 0.0
C738 C 0.68899 0.13109 0.52259 0.0
C739 C 0.67668 0.15969 0.5134 0.0
C740 C 0.71819 0.11276 0.50875 0.0
C741 C 0.73555 0.1226 0.48542 0.0
C742 C 0.7229 0.15086 0.47589 0.0
C743 C 0.69387 0.1693 0.4898 0.0
C744 C 0.76837 0.10406 0.47151 0.0
C745 C 0.7615 0.09544 0.44535 0.0
C746 C 0.80663 0.09551 0.48375 0.0
C747 C 0.81536 0.10341 0.51151 0.0
C748 C 0.81336 0.13292 0.51931 0.0
C749 C 0.82097 0.14008 0.54567 0.0
C750 C 0.83092 0.1179 0.56436 0.0
C751 C 0.83344 0.08852 0.55669 0.0
C752 C 0.82582 0.08125 0.53035 0.0
C753 C 0.91269 0.07482 0.38898 0.0
C754 C 0.94303 0.05311 0.39772 0.0
C755 C 0.87616 0.08047 0.40293 0.0
C756 C 0.86887 0.06429 0.4258 0.0
C757 C 0.8988 0.04196 0.43423 0.0
C758 C 0.93582 0.03654 0.42035 0.0
C759 C 0.83215 0.07337 0.44219 0.0
C760 C 0.83806 0.08027 0.46894 0.0
C761 C 0.7927 0.07965 0.43065 0.0
C762 C 0.78354 0.06989 0.40338 0.0
C763 C 0.79449 0.04066 0.39568 0.0
C764 C 0.78666 0.03163 0.36988 0.0
C765 C 0.76766 0.05157 0.35157 0.0
C766 C 0.75639 0.08059 0.35905 0.0
C767 C 0.76419 0.08975 0.38484 0.0
H768 H 0.76165 0.04454 0.33159 0.0
H769 H 0.83678 0.12349 0.58476 0.0
loop_
_geom_bond_atom_site_label_1
_geom_bond_atom_site_label_2
_geom_bond_distance
_geom_bond_site_symmetry_2
_ccdc_geom_bond_type
P0 O11 1.490 . S
P0 C14 1.812 . S
P0 C20 1.803 1_556 S
P0 C26 1.819 . S
H1 C15 0.941 . S
H2 C16 0.939 . S
H3 C18 0.940 . S
H4 C19 0.940 1_554 S
H5 C21 0.939 . S
H6 C22 0.942 . S
H7 C24 0.940 . S
H8 C25 0.939 . S
H9 C27 0.941 . S
H10 C31 0.939 . S
O11 P0 1.490 . S
H12 C28 0.939 . S
H13 C30 0.940 . S
C14 P0 1.812 . S
C14 C15 1.389 . S
C14 C19 1.391 . S
C15 H1 0.941 . S
C15 C14 1.389 . S
C15 C16 1.397 . S
C16 H2 0.939 . S
C16 C15 1.397 . S
C16 C17 1.378 . S
C17 C16 1.378 . S
C17 C18 1.378 . S
C18 H3 0.940 . S
C18 C17 1.378 . S
C18 C19 1.396 . S
C19 H4 0.940 1_556 S
C19 C14 1.391 . S
C19 C18 1.396 . S
C20 P0 1.803 1_554 S
C20 C21 1.378 . S
C20 C25 1.400 . S
C21 H5 0.939 . S
C21 C20 1.378 . S
C21 C22 1.361 . S
C22 H6 0.942 . S
C22 C21 1.361 . S
C22 C23 1.369 . S
C23 C22 1.369 . S
C23 C24 1.404 . S
C24 H7 0.940 . S
C24 C23 1.404 . S
C24 C25 1.389 . S
C25 H8 0.939 . S
C25 C20 1.400 . S
C25 C24 1.389 . S
C26 P0 1.819 . S
C26 C27 1.391 . S
C26 C31 1.391 1_556 S
C27 H9 0.941 . S
C27 C26 1.391 . S
C27 C28 1.396 . S
C28 H12 0.939 . S
C28 C27 1.396 . S
C28 C29 1.397 . S
C29 C28 1.397 . S
C29 C30 1.385 1_556 S
C30 H13 0.940 . S
C30 C29 1.385 1_554 S
C30 C31 1.388 . S
C31 H10 0.939 . S
C31 C26 1.391 1_554 S
C31 C30 1.388 . S
P32 O43 1.490 . S
P32 C46 1.812 . S
P32 C52 1.803 . S
P32 C58 1.819 1_455 S
H33 C47 0.941 . S
H34 C48 0.939 . S
H35 C50 0.940 . S
H36 C51 0.940 . S
H37 C53 0.939 . S
H38 C54 0.942 . S
H39 C56 0.940 . S
H40 C57 0.939 . S
H41 C59 0.941 . S
H42 C63 0.939 . S
O43 P32 1.490 . S
H44 C60 0.939 . S
H45 C62 0.940 . S
C46 P32 1.812 . S
C46 C47 1.389 . S
C46 C51 1.391 1_554 S
C47 H33 0.941 . S
C47 C46 1.389 . S
C47 C48 1.397 . S
C48 H34 0.939 . S
C48 C47 1.397 . S
C48 C49 1.378 1_554 S
C49 C48 1.378 1_556 S
C49 C50 1.378 . S
C50 H35 0.940 . S
C50 C49 1.378 . S
C50 C51 1.396 . S
C51 H36 0.940 . S
C51 C46 1.391 1_556 S
C51 C50 1.396 . S
C52 P32 1.803 . S
C52 C53 1.378 1_455 S
C52 C57 1.400 . S
C53 H37 0.939 . S
C53 C52 1.378 1_655 S
C53 C54 1.361 . S
C54 H38 0.942 . S
C54 C53 1.361 . S
C54 C55 1.369 1_655 S
C55 C54 1.369 1_455 S
C55 C56 1.404 . S
C56 H39 0.940 . S
C56 C55 1.404 . S
C56 C57 1.389 . S
C57 H40 0.939 . S
C57 C52 1.400 . S
C57 C56 1.389 . S
C58 P32 1.819 1_655 S
C58 C59 1.391 . S
C58 C63 1.391 . S
C59 H41 0.941 . S
C59 C58 1.391 . S
C59 C60 1.396 1_554 S
C60 H44 0.939 . S
C60 C59 1.396 1_556 S
C60 C61 1.397 . S
C61 C60 1.397 . S
C61 C62 1.385 1_556 S
C62 H45 0.940 . S
C62 C61 1.385 1_554 S
C62 C63 1.388 . S
C63 H42 0.939 . S
C63 C58 1.391 . S
C63 C62 1.388 . S
P64 O75 1.490 . S
P64 C78 1.812 . S
P64 C84 1.803 . S
P64 C90 1.819 . S
H65 C79 0.941 . S
H66 C80 0.939 . S
H67 C82 0.940 . S
H68 C83 0.940 . S
H69 C85 0.939 . S
H70 C86 0.942 . S
H71 C88 0.940 . S
H72 C89 0.939 . S
H73 C91 0.941 . S
H74 C95 0.939 . S
O75 P64 1.490 . S
H76 C92 0.939 . S
H77 C94 0.940 . S
C78 P64 1.812 . S
C78 C79 1.389 . S
C78 C83 1.391 . S
C79 H65 0.941 . S
C79 C78 1.389 . S
C79 C80 1.397 . S
C80 H66 0.939 . S
C80 C79 1.397 . S
C80 C81 1.378 . S
C81 C80 1.378 . S
C81 C82 1.378 . S
C82 H67 0.940 . S
C82 C81 1.378 . S
C82 C83 1.396 . S
C83 H68 0.940 . S
C83 C78 1.391 . S
C83 C82 1.396 . S
C84 P64 1.803 . S
C84 C85 1.378 . S
C84 C89 1.400 . S
C85 H69 0.939 . S
C85 C84 1.378 . S
C85 C86 1.361 . S
C86 H70 0.942 . S
C86 C85 1.361 . S
C86 C87 1.369 . S
C87 C86 1.369 . S
C87 C88 1.404 . S
C88 H71 0.940 . S
C88 C87 1.404 . S
C88 C89 1.389 . S
C89 H72 0.939 . S
C89 C84 1.400 . S
C89 C88 1.389 . S
C90 P64 1.819 . S
C90 C91 1.391 . S
C90 C95 1.391 . S
C91 H73 0.941 . S
C91 C90 1.391 . S
C91 C92 1.396 . S
C92 H76 0.939 . S
C92 C91 1.396 . S
C92 C93 1.397 . S
C93 C92 1.397 . S
C93 C94 1.385 . S
C94 H77 0.940 . S
C94 C93 1.385 . S
C94 C95 1.388 . S
C95 H74 0.939 . S
C95 C90 1.391 . S
C95 C94 1.388 . S
P96 O107 1.490 . S
P96 C110 1.812 . S
P96 C116 1.803 . S
P96 C122 1.819 . S
H97 C111 0.941 . S
H98 C112 0.939 . S
H99 C114 0.940 . S
H100 C115 0.940 . S
H101 C117 0.939 . S
H102 C118 0.942 . S
H103 C120 0.940 . S
H104 C121 0.939 . S
H105 C123 0.941 . S
H106 C127 0.939 . S
O107 P96 1.490 . S
H108 C124 0.939 . S
H109 C126 0.940 . S
C110 P96 1.812 . S
C110 C111 1.389 . S
C110 C115 1.391 . S
C111 H97 0.941 . S
C111 C110 1.389 . S
C111 C112 1.397 . S
C112 H98 0.939 . S
C112 C111 1.397 . S
C112 C113 1.378 . S
C113 C112 1.378 . S
C113 C114 1.378 . S
C114 H99 0.940 . S
C114 C113 1.378 . S
C114 C115 1.396 . S
C115 H100 0.940 . S
C115 C110 1.391 . S
C115 C114 1.396 . S
C116 P96 1.803 . S
C116 C117 1.378 . S
C116 C121 1.400 . S
C117 H101 0.939 . S
C117 C116 1.378 . S
C117 C118 1.361 . S
C118 H102 0.942 . S
C118 C117 1.361 . S
C118 C119 1.369 . S
C119 C118 1.369 . S
C119 C120 1.404 . S
C120 H103 0.940 . S
C120 C119 1.404 . S
C120 C121 1.389 . S
C121 H104 0.939 . S
C121 C116 1.400 . S
C121 C120 1.389 . S
C122 P96 1.819 . S
C122 C123 1.391 . S
C122 C127 1.391 . S
C123 H105 0.941 . S
C123 C122 1.391 . S
C123 C124 1.396 . S
C124 H108 0.939 . S
C124 C123 1.396 . S
C124 C125 1.397 . S
C125 C124 1.397 . S
C125 C126 1.385 . S
C126 H109 0.940 . S
C126 C125 1.385 . S
C126 C127 1.388 . S
C127 H106 0.939 . S
C127 C122 1.391 . S
C127 C126 1.388 . S
Zn128 O134 1.920 . S
Zn128 O140 1.898 . S
Zn128 O143 1.905 . S
Zn129 O137 1.905 . S
Zn129 O138 1.898 . S
Zn129 O146 1.920 . S
Zn130 O133 2.080 . S
Zn130 O136 2.114 1_545 S
Zn130 O139 2.120 1_545 S
Zn130 O141 2.120 . S
Zn130 O142 2.114 . S
Zn130 O145 2.080 1_545 S
C131 O136 1.166 . S
C131 O137 1.182 . S
C132 O138 1.167 . S
C132 O139 1.299 . S
O133 Zn130 2.080 . S
O133 C147 1.305 . S
O134 Zn128 1.920 . S
O134 C147 1.234 . S
C135 O140 1.167 . S
C135 O141 1.299 . S
O136 Zn130 2.114 1_565 S
O136 C131 1.166 . S
O137 Zn129 1.905 . S
O137 C131 1.182 . S
O138 Zn129 1.898 . S
O138 C132 1.167 . S
O139 Zn130 2.120 1_565 S
O139 C132 1.299 . S
O140 Zn128 1.898 . S
O140 C135 1.167 . S
O141 Zn130 2.120 . S
O141 C135 1.299 . S
O142 Zn130 2.114 . S
O142 C144 1.166 1_455 S
O143 Zn128 1.905 . S
O143 C144 1.182 1_455 S
C144 O142 1.166 1_655 S
C144 O143 1.182 1_655 S
O145 Zn130 2.080 1_565 S
O145 C148 1.305 . S
O146 Zn129 1.920 . S
O146 C148 1.234 . S
C147 O133 1.305 . S
C147 O134 1.234 . S
C148 O145 1.305 . S
C148 O146 1.234 . S
Zn149 O155 1.920 . S
Zn149 O161 1.898 . S
Zn149 O164 1.905 . S
Zn150 O158 1.905 . S
Zn150 O159 1.898 . S
Zn150 O167 1.920 . S
Zn151 O154 2.080 . S
Zn151 O157 2.114 . S
Zn151 O160 2.120 . S
Zn151 O162 2.120 . S
Zn151 O163 2.114 . S
Zn151 O166 2.080 . S
C152 O157 1.166 . S
C152 O158 1.182 . S
C153 O159 1.167 . S
C153 O160 1.299 . S
O154 Zn151 2.080 . S
O154 C168 1.305 . S
O155 Zn149 1.920 . S
O155 C168 1.234 . S
C156 O161 1.167 . S
C156 O162 1.299 . S
O157 Zn151 2.114 . S
O157 C152 1.166 . S
O158 Zn150 1.905 . S
O158 C152 1.182 . S
O159 Zn150 1.898 . S
O159 C153 1.167 . S
O160 Zn151 2.120 . S
O160 C153 1.299 . S
O161 Zn149 1.898 . S
O161 C156 1.167 . S
O162 Zn151 2.120 . S
O162 C156 1.299 . S
O163 Zn151 2.114 . S
O163 C165 1.166 . S
O164 Zn149 1.905 . S
O164 C165 1.182 . S
C165 O163 1.166 . S
C165 O164 1.182 . S
O166 Zn151 2.080 . S
O166 C169 1.305 . S
O167 Zn150 1.920 . S
O167 C169 1.234 . S
C168 O154 1.305 . S
C168 O155 1.234 . S
C169 O166 1.305 . S
C169 O167 1.234 . S
H170 C188 0.951 . S
H171 C190 0.951 . S
H172 C192 0.950 . S
H173 C193 0.950 . S
H174 C195 0.950 . S
H175 C198 0.950 . S
H176 C199 0.947 1_655 S
H177 C201 0.950 . S
H178 C202 0.950 . S
H179 C203 0.951 . S
H180 C205 0.951 . S
H181 C207 0.950 . S
H182 C208 0.950 . S
H183 C210 0.950 . S
H184 C213 0.950 . S
H185 C214 0.950 . S
H186 C216 0.950 . S
H187 C217 0.950 . S
C188 H170 0.951 . S
C188 C189 1.366 . S
C188 C190 1.388 . S
C189 C188 1.366 . S
C189 C193 1.385 . S
C190 H171 0.951 . S
C190 C188 1.388 . S
C190 C191 1.366 . S
C191 C190 1.366 . S
C191 C192 1.414 . S
C191 C194 1.499 . S
C192 H172 0.950 . S
C192 C191 1.414 . S
C192 C193 1.374 . S
C193 H173 0.950 . S
C193 C189 1.385 . S
C193 C192 1.374 . S
C194 C191 1.499 . S
C194 C195 1.373 . S
C194 C196 1.389 . S
C195 H174 0.950 . S
C195 C194 1.373 . S
C195 C211 1.377 . S
C196 C194 1.389 . S
C196 C197 1.524 . S
C196 C210 1.377 . S
C197 C196 1.524 . S
C197 C198 1.397 . S
C197 C202 1.363 . S
C198 H175 0.950 . S
C198 C197 1.397 . S
C198 C199 1.338 . S
C199 H176 0.947 1_455 S
C199 C198 1.338 . S
C199 C200 1.286 1_455 S
C200 C199 1.286 1_655 S
C200 C201 1.524 1_655 S
C200 H219 0.913 . S
C201 H177 0.950 . S
C201 C200 1.524 1_455 S
C201 C202 1.415 . S
C202 H178 0.950 . S
C202 C197 1.363 . S
C202 C201 1.415 . S
C203 H179 0.951 . S
C203 C204 1.366 . S
C203 C205 1.388 . S
C204 C203 1.366 . S
C204 C208 1.385 . S
C205 H180 0.951 . S
C205 C203 1.388 . S
C205 C206 1.366 . S
C206 C205 1.366 . S
C206 C207 1.414 . S
C206 C209 1.499 . S
C207 H181 0.950 . S
C207 C206 1.414 . S
C207 C208 1.374 . S
C208 H182 0.950 . S
C208 C204 1.385 . S
C208 C207 1.374 . S
C209 C206 1.499 . S
C209 C210 1.373 . S
C209 C211 1.389 . S
C210 H183 0.950 . S
C210 C196 1.377 . S
C210 C209 1.373 . S
C211 C195 1.377 . S
C211 C209 1.389 . S
C211 C212 1.524 . S
C212 C211 1.524 . S
C212 C213 1.397 . S
C212 C217 1.363 . S
C213 H184 0.950 . S
C213 C212 1.397 . S
C213 C214 1.334 . S
C214 H185 0.950 . S
C214 C213 1.334 . S
C214 C215 1.287 . S
C215 C214 1.287 . S
C215 C216 1.524 . S
C215 H218 0.999 . S
C216 H186 0.950 . S
C216 C215 1.524 . S
C216 C217 1.415 . S
C217 H187 0.950 . S
C217 C212 1.363 . S
C217 C216 1.415 . S
H218 C215 0.999 . S
H219 C200 0.913 . S
H220 C238 0.951 . S
H221 C240 0.951 . S
H222 C242 0.950 . S
H223 C243 0.950 . S
H224 C245 0.950 . S
H225 C248 0.950 . S
H226 C249 0.950 . S
H227 C251 0.950 . S
H228 C252 0.950 . S
H229 C253 0.951 1_655 S
H230 C255 0.951 1_655 S
H231 C257 0.950 . S
H232 C258 0.950 . S
H233 C260 0.950 . S
H234 C263 0.950 . S
H235 C264 0.950 1_545 S
H236 C266 0.950 . S
H237 C267 0.950 . S
C238 H220 0.951 . S
C238 C239 1.366 . S
C238 C240 1.388 . S
C239 C238 1.366 . S
C239 C243 1.385 1_455 S
C240 H221 0.951 . S
C240 C238 1.388 . S
C240 C241 1.366 . S
C241 C240 1.366 . S
C241 C242 1.414 1_455 S
C241 C244 1.499 . S
C242 H222 0.950 . S
C242 C241 1.414 1_655 S
C242 C243 1.374 . S
C243 H223 0.950 . S
C243 C239 1.385 1_655 S
C243 C242 1.374 . S
C244 C241 1.499 . S
C244 C245 1.373 1_455 S
C244 C246 1.389 . S
C245 H224 0.950 . S
C245 C244 1.373 1_655 S
C245 C261 1.377 . S
C246 C244 1.389 . S
C246 C247 1.524 . S
C246 C260 1.377 . S
C247 C246 1.524 . S
C247 C248 1.397 . S
C247 C252 1.363 . S
C248 H225 0.950 . S
C248 C247 1.397 . S
C248 C249 1.334 . S
C249 H226 0.950 . S
C249 C248 1.334 . S
C249 C250 1.287 . S
C250 C249 1.287 . S
C250 C251 1.524 . S
C250 H269 0.913 . S
C251 H227 0.950 . S
C251 C250 1.524 . S
C251 C252 1.415 . S
C252 H228 0.950 . S
C252 C247 1.363 . S
C252 C251 1.415 . S
C253 H229 0.951 1_455 S
C253 C254 1.366 . S
C253 C255 1.388 . S
C254 C253 1.366 . S
C254 C258 1.385 . S
C255 H230 0.951 1_455 S
C255 C253 1.388 . S
C255 C256 1.366 . S
C256 C255 1.366 . S
C256 C257 1.414 . S
C256 C259 1.499 . S
C257 H231 0.950 . S
C257 C256 1.414 . S
C257 C258 1.374 . S
C258 H232 0.950 . S
C258 C254 1.385 . S
C258 C257 1.374 . S
C259 C256 1.499 . S
C259 C260 1.373 . S
C259 C261 1.389 1_455 S
C260 H233 0.950 . S
C260 C246 1.377 . S
C260 C259 1.373 . S
C261 C245 1.377 . S
C261 C259 1.389 1_655 S
C261 C262 1.524 . S
C262 C261 1.524 . S
C262 C263 1.397 . S
C262 C267 1.363 . S
C263 H234 0.950 . S
C263 C262 1.397 . S
C263 C264 1.334 . S
C264 H235 0.950 1_565 S
C264 C263 1.334 . S
C264 C265 1.287 . S
C265 C264 1.287 . S
C265 C266 1.524 . S
C265 H268 0.999 . S
C266 H236 0.950 . S
C266 C265 1.524 . S
C266 C267 1.415 . S
C267 H237 0.950 . S
C267 C262 1.363 . S
C267 C266 1.415 . S
H268 C265 0.999 . S
H269 C250 0.913 . S
H270 C288 0.951 . S
H271 C290 0.951 . S
H272 C292 0.950 . S
H273 C293 0.950 . S
H274 C295 0.950 . S
H275 C298 0.950 . S
H276 C299 0.950 . S
H277 C301 0.950 . S
H278 C302 0.950 . S
H279 C303 0.951 . S
H280 C305 0.951 . S
H281 C307 0.950 . S
H282 C308 0.950 . S
H283 C310 0.950 . S
H284 C313 0.950 . S
H285 C314 0.950 . S
H286 C316 0.950 . S
H287 C317 0.950 . S
C288 H270 0.951 . S
C288 C289 1.366 . S
C288 C290 1.388 . S
C289 C288 1.366 . S
C289 C293 1.385 . S
C290 H271 0.951 . S
C290 C288 1.388 . S
C290 C291 1.366 . S
C291 C290 1.366 . S
C291 C292 1.414 . S
C291 C294 1.499 . S
C292 H272 0.950 . S
C292 C291 1.414 . S
C292 C293 1.374 . S
C293 H273 0.950 . S
C293 C289 1.385 . S
C293 C292 1.374 . S
C294 C291 1.499 . S
C294 C295 1.373 . S
C294 C296 1.389 . S
C295 H274 0.950 . S
C295 C294 1.373 . S
C295 C311 1.377 . S
C296 C294 1.389 . S
C296 C297 1.524 . S
C296 C310 1.377 . S
C297 C296 1.524 . S
C297 C298 1.397 . S
C297 C302 1.363 . S
C298 H275 0.950 . S
C298 C297 1.397 . S
C298 C299 1.334 . S
C299 H276 0.950 . S
C299 C298 1.334 . S
C299 C300 1.287 . S
C300 C299 1.287 . S
C300 C301 1.524 . S
C300 H319 0.913 . S
C301 H277 0.950 . S
C301 C300 1.524 . S
C301 C302 1.415 . S
C302 H278 0.950 . S
C302 C297 1.363 . S
C302 C301 1.415 . S
C303 H279 0.951 . S
C303 C304 1.366 . S
C303 C305 1.388 . S
C304 C303 1.366 . S
C304 C308 1.385 . S
C305 H280 0.951 . S
C305 C303 1.388 . S
C305 C306 1.366 . S
C306 C305 1.366 . S
C306 C307 1.414 . S
C306 C309 1.499 . S
C307 H281 0.950 . S
C307 C306 1.414 . S
C307 C308 1.374 . S
C308 H282 0.950 . S
C308 C304 1.385 . S
C308 C307 1.374 . S
C309 C306 1.499 . S
C309 C310 1.373 . S
C309 C311 1.389 . S
C310 H283 0.950 . S
C310 C296 1.377 . S
C310 C309 1.373 . S
C311 C295 1.377 . S
C311 C309 1.389 . S
C311 C312 1.524 . S
C312 C311 1.524 . S
C312 C313 1.397 . S
C312 C317 1.363 . S
C313 H284 0.950 . S
C313 C312 1.397 . S
C313 C314 1.334 . S
C314 H285 0.950 . S
C314 C313 1.334 . S
C314 C315 1.287 . S
C315 C314 1.287 . S
C315 C316 1.524 . S
C315 H318 0.999 . S
C316 H286 0.950 . S
C316 C315 1.524 . S
C316 C317 1.415 . S
C317 H287 0.950 . S
C317 C312 1.363 . S
C317 C316 1.415 . S
H318 C315 0.999 . S
H319 C300 0.913 . S
H320 C338 0.951 . S
H321 C340 0.951 . S
H322 C342 0.950 . S
H323 C343 0.950 . S
H324 C345 0.950 . S
H325 C348 0.950 . S
H326 C349 0.950 . S
H327 C351 0.950 . S
H328 C352 0.950 . S
H329 C353 0.951 . S
H330 C355 0.951 . S
H331 C357 0.950 . S
H332 C358 0.950 . S
H333 C360 0.950 . S
H334 C363 0.950 . S
H335 C364 0.950 . S
H336 C366 0.950 . S
H337 C367 0.950 . S
C338 H320 0.951 . S
C338 C339 1.366 . S
C338 C340 1.388 . S
C339 C338 1.366 . S
C339 C343 1.385 . S
C340 H321 0.951 . S
C340 C338 1.388 . S
C340 C341 1.366 . S
C341 C340 1.366 . S
C341 C342 1.414 . S
C341 C344 1.499 . S
C342 H322 0.950 . S
C342 C341 1.414 . S
C342 C343 1.374 . S
C343 H323 0.950 . S
C343 C339 1.385 . S
C343 C342 1.374 . S
C344 C341 1.499 . S
C344 C345 1.373 . S
C344 C346 1.389 . S
C345 H324 0.950 . S
C345 C344 1.373 . S
C345 C361 1.377 . S
C346 C344 1.389 . S
C346 C347 1.524 . S
C346 C360 1.377 . S
C347 C346 1.524 . S
C347 C348 1.397 . S
C347 C352 1.363 . S
C348 H325 0.950 . S
C348 C347 1.397 . S
C348 C349 1.334 . S
C349 H326 0.950 . S
C349 C348 1.334 . S
C349 C350 1.287 . S
C350 C349 1.287 . S
C350 C351 1.524 . S
C350 H369 0.913 . S
C351 H327 0.950 . S
C351 C350 1.524 . S
C351 C352 1.415 . S
C352 H328 0.950 . S
C352 C347 1.363 . S
C352 C351 1.415 . S
C353 H329 0.951 . S
C353 C354 1.366 . S
C353 C355 1.388 . S
C354 C353 1.366 . S
C354 C358 1.385 . S
C355 H330 0.951 . S
C355 C353 1.388 . S
C355 C356 1.366 . S
C356 C355 1.366 . S
C356 C357 1.414 . S
C356 C359 1.499 . S
C357 H331 0.950 . S
C357 C356 1.414 . S
C357 C358 1.374 . S
C358 H332 0.950 . S
C358 C354 1.385 . S
C358 C357 1.374 . S
C359 C356 1.499 . S
C359 C360 1.373 . S
C359 C361 1.389 . S
C360 H333 0.950 . S
C360 C346 1.377 . S
C360 C359 1.373 . S
C361 C345 1.377 . S
C361 C359 1.389 . S
C361 C362 1.524 . S
C362 C361 1.524 . S
C362 C363 1.397 . S
C362 C367 1.363 . S
C363 H334 0.950 . S
C363 C362 1.397 . S
C363 C364 1.334 . S
C364 H335 0.950 . S
C364 C363 1.334 . S
C364 C365 1.287 . S
C365 C364 1.287 . S
C365 C366 1.524 . S
C365 H368 0.999 . S
C366 H336 0.950 . S
C366 C365 1.524 . S
C366 C367 1.415 . S
C367 H337 0.950 . S
C367 C362 1.363 . S
C367 C366 1.415 . S
H368 C365 0.999 . S
H369 C350 0.913 . S
H370 C388 0.951 1_554 S
H371 C390 0.939 1_554 S
H372 C392 0.950 . S
H373 C393 0.950 . S
H374 C395 0.950 . S
H375 C398 0.950 . S
H376 C399 0.950 . S
H377 C401 0.950 . S
H378 C402 0.950 . S
H379 C403 0.951 . S
H380 C405 0.951 . S
H381 C407 0.950 . S
H382 C408 0.950 . S
H383 C410 0.950 . S
H384 C413 0.950 . S
H385 C414 0.950 . S
H386 C416 0.950 . S
H387 C417 0.950 . S
C388 H370 0.951 1_556 S
C388 C389 1.366 . S
C388 C390 1.388 . S
C389 C388 1.366 . S
C389 C393 1.385 . S
C390 H371 0.939 1_556 S
C390 C388 1.388 . S
C390 C391 1.366 . S
C391 C390 1.366 . S
C391 C392 1.414 . S
C391 C394 1.499 . S
C392 H372 0.950 . S
C392 C391 1.414 . S
C392 C393 1.374 . S
C393 H373 0.950 . S
C393 C389 1.385 . S
C393 C392 1.374 . S
C394 C391 1.499 . S
C394 C395 1.373 . S
C394 C396 1.389 . S
C395 H374 0.950 . S
C395 C394 1.373 . S
C395 C411 1.377 . S
C396 C394 1.389 . S
C396 C397 1.524 . S
C396 C410 1.377 . S
C397 C396 1.524 . S
C397 C398 1.397 . S
C397 C402 1.363 1_556 S
C398 H375 0.950 . S
C398 C397 1.397 . S
C398 C399 1.334 1_556 S
C399 H376 0.950 . S
C399 C398 1.334 1_554 S
C399 C400 1.287 . S
C400 C399 1.287 . S
C400 C401 1.524 . S
C400 H419 0.913 . S
C401 H377 0.950 . S
C401 C400 1.524 . S
C401 C402 1.415 . S
C402 H378 0.950 . S
C402 C397 1.363 1_554 S
C402 C401 1.415 . S
C403 H379 0.951 . S
C403 C404 1.366 . S
C403 C405 1.388 . S
C404 C403 1.366 . S
C404 C408 1.385 . S
C405 H380 0.951 . S
C405 C403 1.388 . S
C405 C406 1.366 . S
C406 C405 1.366 . S
C406 C407 1.414 . S
C406 C409 1.499 . S
C407 H381 0.950 . S
C407 C406 1.414 . S
C407 C408 1.374 . S
C408 H382 0.950 . S
C408 C404 1.385 . S
C408 C407 1.374 . S
C409 C406 1.499 . S
C409 C410 1.373 . S
C409 C411 1.389 . S
C410 H383 0.950 . S
C410 C396 1.377 . S
C410 C409 1.373 . S
C411 C395 1.377 . S
C411 C409 1.389 . S
C411 C412 1.524 . S
C412 C411 1.524 . S
C412 C413 1.397 . S
C412 C417 1.363 . S
C413 H384 0.950 . S
C413 C412 1.397 . S
C413 C414 1.334 . S
C414 H385 0.950 . S
C414 C413 1.334 . S
C414 C415 1.287 . S
C415 C414 1.287 . S
C415 C416 1.524 . S
C415 H418 0.999 . S
C416 H386 0.950 . S
C416 C415 1.524 . S
C416 C417 1.415 . S
C417 H387 0.950 . S
C417 C412 1.363 . S
C417 C416 1.415 . S
H418 C415 0.999 . S
H419 C400 0.913 . S
H420 C438 0.951 . S
H421 C440 0.951 . S
H422 C442 0.950 . S
H423 C443 0.950 . S
H424 C445 0.950 . S
H425 C448 0.950 . S
H426 C449 0.950 . S
H427 C451 0.950 . S
H428 C452 0.950 . S
H429 C453 0.951 . S
H430 C455 0.951 . S
H431 C457 0.950 . S
H432 C458 0.950 . S
H433 C460 0.950 . S
H434 C463 0.950 . S
H435 C464 0.941 1_554 S
H436 C466 0.950 . S
H437 C467 0.950 . S
C438 H420 0.951 . S
C438 C439 1.366 . S
C438 C440 1.388 . S
C439 C438 1.366 . S
C439 C443 1.385 . S
C440 H421 0.951 . S
C440 C438 1.388 . S
C440 C441 1.366 . S
C441 C440 1.366 . S
C441 C442 1.414 . S
C441 C444 1.499 . S
C442 H422 0.950 . S
C442 C441 1.414 . S
C442 C443 1.374 . S
C443 H423 0.950 . S
C443 C439 1.385 . S
C443 C442 1.374 . S
C444 C441 1.499 . S
C444 C445 1.373 . S
C444 C446 1.389 . S
C445 H424 0.950 . S
C445 C444 1.373 . S
C445 C461 1.377 . S
C446 C444 1.389 . S
C446 C447 1.524 . S
C446 C460 1.377 . S
C447 C446 1.524 . S
C447 C448 1.397 . S
C447 C452 1.363 . S
C448 H425 0.950 . S
C448 C447 1.397 . S
C448 C449 1.334 . S
C449 H426 0.950 . S
C449 C448 1.334 . S
C449 C450 1.287 . S
C450 C449 1.287 . S
C450 C451 1.524 . S
C450 H469 0.913 . S
C451 H427 0.950 . S
C451 C450 1.524 . S
C451 C452 1.415 . S
C452 H428 0.950 . S
C452 C447 1.363 . S
C452 C451 1.415 . S
C453 H429 0.951 . S
C453 C454 1.366 . S
C453 C455 1.388 . S
C454 C453 1.366 . S
C454 C458 1.385 . S
C455 H430 0.951 . S
C455 C453 1.388 . S
C455 C456 1.366 . S
C456 C455 1.366 . S
C456 C457 1.414 . S
C456 C459 1.499 . S
C457 H431 0.950 . S
C457 C456 1.414 . S
C457 C458 1.374 . S
C458 H432 0.950 . S
C458 C454 1.385 . S
C458 C457 1.374 . S
C459 C456 1.499 . S
C459 C460 1.373 . S
C459 C461 1.389 . S
C460 H433 0.950 . S
C460 C446 1.377 . S
C460 C459 1.373 . S
C461 C445 1.377 . S
C461 C459 1.389 . S
C461 C462 1.524 . S
C462 C461 1.524 . S
C462 C463 1.397 . S
C462 C467 1.363 . S
C463 H434 0.950 . S
C463 C462 1.397 . S
C463 C464 1.345 . S
C464 H435 0.941 1_556 S
C464 C463 1.345 . S
C464 C465 1.287 . S
C465 C464 1.287 . S
C465 C466 1.525 . S
C465 H468 0.998 1_556 S
C466 H436 0.950 . S
C466 C465 1.525 . S
C466 C467 1.415 . S
C467 H437 0.950 . S
C467 C462 1.363 . S
C467 C466 1.415 . S
H468 C465 0.998 1_554 S
H469 C450 0.913 . S
H470 C488 0.951 1_554 S
H471 C490 0.951 . S
H472 C492 0.950 . S
H473 C493 0.950 . S
H474 C495 0.950 . S
H475 C498 0.950 . S
H476 C499 0.950 . S
H477 C501 0.950 . S
H478 C502 0.950 . S
H479 C503 0.951 . S
H480 C505 0.951 . S
H481 C507 0.950 . S
H482 C508 0.950 . S
H483 C510 0.950 . S
H484 C513 0.950 . S
H485 C514 0.950 . S
H486 C516 0.950 . S
H487 C517 0.950 . S
C488 H470 0.951 1_556 S
C488 C489 1.366 . S
C488 C490 1.388 . S
C489 C488 1.366 . S
C489 C493 1.385 . S
C490 H471 0.951 . S
C490 C488 1.388 . S
C490 C491 1.366 . S
C491 C490 1.366 . S
C491 C492 1.414 . S
C491 C494 1.499 . S
C492 H472 0.950 . S
C492 C491 1.414 . S
C492 C493 1.374 . S
C493 H473 0.950 . S
C493 C489 1.385 . S
C493 C492 1.374 . S
C494 C491 1.499 . S
C494 C495 1.373 . S
C494 C496 1.389 . S
C495 H474 0.950 . S
C495 C494 1.373 . S
C495 C511 1.377 . S
C496 C494 1.389 . S
C496 C497 1.524 . S
C496 C510 1.377 . S
C497 C496 1.524 . S
C497 C498 1.397 . S
C497 C502 1.363 . S
C498 H475 0.950 . S
C498 C497 1.397 . S
C498 C499 1.334 . S
C499 H476 0.950 . S
C499 C498 1.334 . S
C499 C500 1.287 1_556 S
C500 C499 1.287 1_554 S
C500 C501 1.524 . S
C500 H519 0.913 . S
C501 H477 0.950 . S
C501 C500 1.524 . S
C501 C502 1.415 1_554 S
C502 H478 0.950 . S
C502 C497 1.363 . S
C502 C501 1.415 1_556 S
C503 H479 0.951 . S
C503 C504 1.366 . S
C503 C505 1.388 . S
C504 C503 1.366 . S
C504 C508 1.385 . S
C505 H480 0.951 . S
C505 C503 1.388 . S
C505 C506 1.366 . S
C506 C505 1.366 . S
C506 C507 1.414 . S
C506 C509 1.499 . S
C507 H481 0.950 . S
C507 C506 1.414 . S
C507 C508 1.374 . S
C508 H482 0.950 . S
C508 C504 1.385 . S
C508 C507 1.374 . S
C509 C506 1.499 . S
C509 C510 1.373 . S
C509 C511 1.389 . S
C510 H483 0.950 . S
C510 C496 1.377 . S
C510 C509 1.373 . S
C511 C495 1.377 . S
C511 C509 1.389 . S
C511 C512 1.524 . S
C512 C511 1.524 . S
C512 C513 1.397 . S
C512 C517 1.363 . S
C513 H484 0.950 . S
C513 C512 1.397 . S
C513 C514 1.334 . S
C514 H485 0.950 . S
C514 C513 1.334 . S
C514 C515 1.287 . S
C515 C514 1.287 . S
C515 C516 1.524 . S
C515 H518 0.999 . S
C516 H486 0.950 . S
C516 C515 1.524 . S
C516 C517 1.415 . S
C517 H487 0.950 . S
C517 C512 1.363 . S
C517 C516 1.415 . S
H518 C515 0.999 . S
H519 C500 0.913 . S
H520 C538 0.951 . S
H521 C540 0.951 . S
H522 C542 0.950 . S
H523 C543 0.950 . S
H524 C545 0.950 . S
H525 C548 0.950 . S
H526 C549 0.950 . S
H527 C551 0.950 . S
H528 C552 0.950 . S
H529 C553 0.951 . S
H530 C555 0.951 . S
H531 C557 0.950 . S
H532 C558 0.950 . S
H533 C560 0.950 . S
H534 C563 0.950 . S
H535 C564 0.950 . S
H536 C566 0.950 . S
H537 C567 0.950 . S
C538 H520 0.951 . S
C538 C539 1.366 . S
C538 C540 1.388 . S
C539 C538 1.366 . S
C539 C543 1.385 . S
C540 H521 0.951 . S
C540 C538 1.388 . S
C540 C541 1.366 . S
C541 C540 1.366 . S
C541 C542 1.414 . S
C541 C544 1.499 . S
C542 H522 0.950 . S
C542 C541 1.414 . S
C542 C543 1.374 . S
C543 H523 0.950 . S
C543 C539 1.385 . S
C543 C542 1.374 . S
C544 C541 1.499 . S
C544 C545 1.373 . S
C544 C546 1.389 . S
C545 H524 0.950 . S
C545 C544 1.373 . S
C545 C561 1.377 . S
C546 C544 1.389 . S
C546 C547 1.524 . S
C546 C560 1.377 . S
C547 C546 1.524 . S
C547 C548 1.397 . S
C547 C552 1.363 . S
C548 H525 0.950 . S
C548 C547 1.397 . S
C548 C549 1.334 . S
C549 H526 0.950 . S
C549 C548 1.334 . S
C549 C550 1.287 . S
C550 C549 1.287 . S
C550 C551 1.524 . S
C550 H569 0.913 . S
C551 H527 0.950 . S
C551 C550 1.524 . S
C551 C552 1.415 . S
C552 H528 0.950 . S
C552 C547 1.363 . S
C552 C551 1.415 . S
C553 H529 0.951 . S
C553 C554 1.366 . S
C553 C555 1.388 . S
C554 C553 1.366 . S
C554 C558 1.385 . S
C555 H530 0.951 . S
C555 C553 1.388 . S
C555 C556 1.366 . S
C556 C555 1.366 . S
C556 C557 1.414 . S
C556 C559 1.499 . S
C557 H531 0.950 . S
C557 C556 1.414 . S
C557 C558 1.374 . S
C558 H532 0.950 . S
C558 C554 1.385 . S
C558 C557 1.374 . S
C559 C556 1.499 . S
C559 C560 1.373 . S
C559 C561 1.389 . S
C560 H533 0.950 . S
C560 C546 1.377 . S
C560 C559 1.373 . S
C561 C545 1.377 . S
C561 C559 1.389 . S
C561 C562 1.524 . S
C562 C561 1.524 . S
C562 C563 1.397 . S
C562 C567 1.363 . S
C563 H534 0.950 . S
C563 C562 1.397 . S
C563 C564 1.334 . S
C564 H535 0.950 . S
C564 C563 1.334 . S
C564 C565 1.287 1_556 S
C565 C564 1.287 1_554 S
C565 C566 1.524 . S
C565 H568 0.999 . S
C566 H536 0.950 . S
C566 C565 1.524 . S
C566 C567 1.415 1_554 S
C567 H537 0.950 . S
C567 C562 1.363 . S
C567 C566 1.415 1_556 S
H568 C565 0.999 . S
H569 C550 0.913 . S
H570 C588 0.951 . S
H571 C590 0.951 . S
H572 C592 0.950 . S
H573 C593 0.950 . S
H574 C595 0.950 . S
H575 C598 0.950 . S
H576 C599 0.950 . S
H577 C601 0.950 . S
H578 C602 0.950 . S
H579 C603 0.951 . S
H580 C605 0.951 . S
H581 C607 0.950 . S
H582 C608 0.950 . S
H583 C610 0.950 . S
H584 C613 0.950 . S
H585 C614 0.950 . S
H586 C616 0.950 . S
H587 C617 0.950 . S
C588 H570 0.951 . S
C588 C589 1.366 . S
C588 C590 1.388 . S
C589 C588 1.366 . S
C589 C593 1.385 . S
C590 H571 0.951 . S
C590 C588 1.388 . S
C590 C591 1.366 . S
C591 C590 1.366 . S
C591 C592 1.414 . S
C591 C594 1.499 . S
C592 H572 0.950 . S
C592 C591 1.414 . S
C592 C593 1.374 . S
C593 H573 0.950 . S
C593 C589 1.385 . S
C593 C592 1.374 . S
C594 C591 1.499 . S
C594 C595 1.373 . S
C594 C596 1.389 . S
C595 H574 0.950 . S
C595 C594 1.373 . S
C595 C611 1.377 . S
C596 C594 1.389 . S
C596 C597 1.524 . S
C596 C610 1.377 . S
C597 C596 1.524 . S
C597 C598 1.397 . S
C597 C602 1.363 . S
C598 H575 0.950 . S
C598 C597 1.397 . S
C598 C599 1.334 . S
C599 H576 0.950 . S
C599 C598 1.334 . S
C599 C600 1.287 . S
C600 C599 1.287 . S
C600 C601 1.524 . S
C600 H619 0.913 . S
C601 H577 0.950 . S
C601 C600 1.524 . S
C601 C602 1.415 . S
C602 H578 0.950 . S
C602 C597 1.363 . S
C602 C601 1.415 . S
C603 H579 0.951 . S
C603 C604 1.352 1_655 S
C603 C605 1.388 . S
C604 C603 1.352 1_455 S
C604 C608 1.388 . S
C605 H580 0.951 . S
C605 C603 1.388 . S
C605 C606 1.366 . S
C606 C605 1.366 . S
C606 C607 1.414 . S
C606 C609 1.499 . S
C607 H581 0.950 . S
C607 C606 1.414 . S
C607 C608 1.374 1_655 S
C608 H582 0.950 . S
C608 C604 1.388 . S
C608 C607 1.374 1_455 S
C609 C606 1.499 . S
C609 C610 1.373 . S
C609 C611 1.389 . S
C610 H583 0.950 . S
C610 C596 1.377 . S
C610 C609 1.373 . S
C611 C595 1.377 . S
C611 C609 1.389 . S
C611 C612 1.524 . S
C612 C611 1.524 . S
C612 C613 1.397 . S
C612 C617 1.363 . S
C613 H584 0.950 . S
C613 C612 1.397 . S
C613 C614 1.334 . S
C614 H585 0.950 . S
C614 C613 1.334 . S
C614 C615 1.287 . S
C615 C614 1.287 . S
C615 C616 1.524 . S
C615 H618 0.999 . S
C616 H586 0.950 . S
C616 C615 1.524 . S
C616 C617 1.415 . S
C617 H587 0.950 . S
C617 C612 1.363 . S
C617 C616 1.415 . S
H618 C615 0.999 . S
H619 C600 0.913 . S
H620 C638 0.951 . S
H621 C640 0.951 . S
H622 C642 0.950 . S
H623 C643 0.950 . S
H624 C645 0.950 . S
H625 C648 0.950 . S
H626 C649 0.950 . S
H627 C651 0.950 . S
H628 C652 0.950 . S
H629 C653 0.951 . S
H630 C655 0.951 . S
H631 C657 0.950 . S
H632 C658 0.950 . S
H633 C660 0.950 . S
H634 C663 0.950 . S
H635 C664 0.950 . S
H636 C666 0.950 . S
H637 C667 0.950 . S
C638 H620 0.951 . S
C638 C639 1.366 . S
C638 C640 1.388 . S
C639 C638 1.366 . S
C639 C643 1.385 . S
C640 H621 0.951 . S
C640 C638 1.388 . S
C640 C641 1.366 . S
C641 C640 1.366 . S
C641 C642 1.414 . S
C641 C644 1.499 . S
C642 H622 0.950 . S
C642 C641 1.414 . S
C642 C643 1.374 . S
C643 H623 0.950 . S
C643 C639 1.385 . S
C643 C642 1.374 . S
C644 C641 1.499 . S
C644 C645 1.373 . S
C644 C646 1.389 . S
C645 H624 0.950 . S
C645 C644 1.373 . S
C645 C661 1.377 . S
C646 C644 1.389 . S
C646 C647 1.524 . S
C646 C660 1.377 . S
C647 C646 1.524 . S
C647 C648 1.397 . S
C647 C652 1.363 . S
C648 H625 0.950 . S
C648 C647 1.397 . S
C648 C649 1.334 . S
C649 H626 0.950 . S
C649 C648 1.334 . S
C649 C650 1.287 . S
C650 C649 1.287 . S
C650 C651 1.524 . S
C650 H669 0.913 . S
C651 H627 0.950 . S
C651 C650 1.524 . S
C651 C652 1.415 . S
C652 H628 0.950 . S
C652 C647 1.363 . S
C652 C651 1.415 . S
C653 H629 0.951 . S
C653 C654 1.366 . S
C653 C655 1.388 . S
C654 C653 1.366 . S
C654 C658 1.385 . S
C655 H630 0.951 . S
C655 C653 1.388 . S
C655 C656 1.366 . S
C656 C655 1.366 . S
C656 C657 1.414 . S
C656 C659 1.499 . S
C657 H631 0.950 . S
C657 C656 1.414 . S
C657 C658 1.374 . S
C658 H632 0.950 . S
C658 C654 1.385 . S
C658 C657 1.374 . S
C659 C656 1.499 . S
C659 C660 1.373 . S
C659 C661 1.389 . S
C660 H633 0.950 . S
C660 C646 1.377 . S
C660 C659 1.373 . S
C661 C645 1.377 . S
C661 C659 1.389 . S
C661 C662 1.524 . S
C662 C661 1.524 . S
C662 C663 1.397 . S
C662 C667 1.363 . S
C663 H634 0.950 . S
C663 C662 1.397 . S
C663 C664 1.334 . S
C664 H635 0.950 . S
C664 C663 1.334 . S
C664 C665 1.287 . S
C665 C664 1.287 . S
C665 C666 1.524 . S
C665 H668 0.999 . S
C666 H636 0.950 . S
C666 C665 1.524 . S
C666 C667 1.415 . S
C667 H637 0.950 . S
C667 C662 1.363 . S
C667 C666 1.415 . S
H668 C665 0.999 . S
H669 C650 0.913 . S
H670 C688 0.951 . S
H671 C690 0.951 . S
H672 C692 0.950 . S
H673 C693 0.950 . S
H674 C695 0.950 . S
H675 C698 0.950 . S
H676 C699 0.950 . S
H677 C701 0.950 . S
H678 C702 0.950 . S
H679 C703 0.951 . S
H680 C705 0.951 . S
H681 C707 0.950 . S
H682 C708 0.950 . S
H683 C710 0.950 . S
H684 C713 0.950 . S
H685 C714 0.950 . S
H686 C716 0.950 . S
H687 C717 0.950 . S
C688 H670 0.951 . S
C688 C689 1.366 . S
C688 C690 1.388 . S
C689 C688 1.366 . S
C689 C693 1.385 . S
C690 H671 0.951 . S
C690 C688 1.388 . S
C690 C691 1.366 . S
C691 C690 1.366 . S
C691 C692 1.414 . S
C691 C694 1.499 . S
C692 H672 0.950 . S
C692 C691 1.414 . S
C692 C693 1.374 . S
C693 H673 0.950 . S
C693 C689 1.385 . S
C693 C692 1.374 . S
C694 C691 1.499 . S
C694 C695 1.373 . S
C694 C696 1.389 . S
C695 H674 0.950 . S
C695 C694 1.373 . S
C695 C711 1.377 . S
C696 C694 1.389 . S
C696 C697 1.524 . S
C696 C710 1.377 . S
C697 C696 1.524 . S
C697 C698 1.397 . S
C697 C702 1.363 . S
C698 H675 0.950 . S
C698 C697 1.397 . S
C698 C699 1.334 . S
C699 H676 0.950 . S
C699 C698 1.334 . S
C699 C700 1.287 . S
C700 C699 1.287 . S
C700 C701 1.524 . S
C700 H719 0.913 . S
C701 H677 0.950 . S
C701 C700 1.524 . S
C701 C702 1.415 . S
C702 H678 0.950 . S
C702 C697 1.363 . S
C702 C701 1.415 . S
C703 H679 0.951 . S
C703 C704 1.366 . S
C703 C705 1.388 . S
C704 C703 1.366 . S
C704 C708 1.385 . S
C705 H680 0.951 . S
C705 C703 1.388 . S
C705 C706 1.366 . S
C706 C705 1.366 . S
C706 C707 1.414 . S
C706 C709 1.499 . S
C707 H681 0.950 . S
C707 C706 1.414 . S
C707 C708 1.374 . S
C708 H682 0.950 . S
C708 C704 1.385 . S
C708 C707 1.374 . S
C709 C706 1.499 . S
C709 C710 1.373 . S
C709 C711 1.389 . S
C710 H683 0.950 . S
C710 C696 1.377 . S
C710 C709 1.373 . S
C711 C695 1.377 . S
C711 C709 1.389 . S
C711 C712 1.524 . S
C712 C711 1.524 . S
C712 C713 1.397 . S
C712 C717 1.363 . S
C713 H684 0.950 . S
C713 C712 1.397 . S
C713 C714 1.334 . S
C714 H685 0.950 . S
C714 C713 1.334 . S
C714 C715 1.287 . S
C715 C714 1.287 . S
C715 C716 1.524 . S
C715 H718 0.999 . S
C716 H686 0.950 . S
C716 C715 1.524 . S
C716 C717 1.415 . S
C717 H687 0.950 . S
C717 C712 1.363 . S
C717 C716 1.415 . S
H718 C715 0.999 . S
H719 C700 0.913 . S
H720 C738 0.951 . S
H721 C740 0.951 . S
H722 C742 0.950 . S
H723 C743 0.950 . S
H724 C745 0.950 . S
H725 C748 0.950 . S
H726 C749 0.950 . S
H727 C751 0.950 . S
H728 C752 0.950 . S
H729 C753 0.951 . S
H730 C755 0.951 . S
H731 C757 0.950 . S
H732 C758 0.950 . S
H733 C760 0.950 . S
H734 C763 0.950 . S
H735 C764 0.950 . S
H736 C766 0.950 . S
H737 C767 0.950 . S
C738 H720 0.951 . S
C738 C739 1.366 . S
C738 C740 1.388 . S
C739 C738 1.366 . S
C739 C743 1.385 . S
C740 H721 0.951 . S
C740 C738 1.388 . S
C740 C741 1.366 . S
C741 C740 1.366 . S
C741 C742 1.414 . S
C741 C744 1.499 . S
C742 H722 0.950 . S
C742 C741 1.414 . S
C742 C743 1.374 . S
C743 H723 0.950 . S
C743 C739 1.385 . S
C743 C742 1.374 . S
C744 C741 1.499 . S
C744 C745 1.373 . S
C744 C746 1.389 . S
C745 H724 0.950 . S
C745 C744 1.373 . S
C745 C761 1.377 . S
C746 C744 1.389 . S
C746 C747 1.524 . S
C746 C760 1.377 . S
C747 C746 1.524 . S
C747 C748 1.397 . S
C747 C752 1.363 . S
C748 H725 0.950 . S
C748 C747 1.397 . S
C748 C749 1.334 . S
C749 H726 0.950 . S
C749 C748 1.334 . S
C749 C750 1.287 . S
C750 C749 1.287 . S
C750 C751 1.524 . S
C750 H769 0.913 . S
C751 H727 0.950 . S
C751 C750 1.524 . S
C751 C752 1.415 . S
C752 H728 0.950 . S
C752 C747 1.363 . S
C752 C751 1.415 . S
C753 H729 0.951 . S
C753 C754 1.366 . S
C753 C755 1.388 . S
C754 C753 1.366 . S
C754 C758 1.385 . S
C755 H730 0.951 . S
C755 C753 1.388 . S
C755 C756 1.366 . S
C756 C755 1.366 . S
C756 C757 1.414 . S
C756 C759 1.499 . S
C757 H731 0.950 . S
C757 C756 1.414 . S
C757 C758 1.374 . S
C758 H732 0.950 . S
C758 C754 1.385 . S
C758 C757 1.374 . S
C759 C756 1.499 . S
C759 C760 1.373 . S
C759 C761 1.389 . S
C760 H733 0.950 . S
C760 C746 1.377 . S
C760 C759 1.373 . S
C761 C745 1.377 . S
C761 C759 1.389 . S
C761 C762 1.524 . S
C762 C761 1.524 . S
C762 C763 1.397 . S
C762 C767 1.363 . S
C763 H734 0.950 . S
C763 C762 1.397 . S
C763 C764 1.334 . S
C764 H735 0.950 . S
C764 C763 1.334 . S
C764 C765 1.287 . S
C765 C764 1.287 . S
C765 C766 1.524 . S
C765 H768 0.999 . S
C766 H736 0.950 . S
C766 C765 1.524 . S
C766 C767 1.415 . S
C767 H737 0.950 . S
C767 C762 1.363 . S
C767 C766 1.415 . S
H768 C765 0.999 . S
H769 C750 0.913 . S
C204 C135 1.390 . S
C189 C23 1.503 . S
C254 C131 1.404 . S
C239 C55 1.449 . S
C304 C156 1.390 . S
C289 C87 1.504 . S
C339 C119 1.448 . S
C354 C152 1.405 . S
C389 C17 1.095 . S
C404 C153 0.987 . S
C454 C168 1.015 . S
C439 C61 1.078 . S
C489 C29 1.717 1_655 S
C504 C169 1.590 . S
C554 C165 1.599 . S
C539 C49 1.679 . S
C604 C132 0.998 . S
C589 C81 1.095 . S
C639 C125 1.079 . S
C654 C147 1.016 . S
C704 C148 1.592 . S
C689 C93 1.717 . S
C754 C144 1.599 . S
C739 C113 1.679 . S
