# Generated by pormake.
# Topology pyr, (3,6)-cn, num edge types: 1
# Building blocks:
#     Node 0, Type 0, BuildingBlock: PAMTOO_clean_linker_0, # of connection points: 3
#     Node 1, Type 0, BuildingBlock: PAMTOO_clean_linker_0, # of connection points: 3
#     Node 2, Type 0, BuildingBlock: PAMTOO_clean_linker_0, # of connection points: 3
#     Node 3, Type 0, BuildingBlock: PAMTOO_clean_linker_0, # of connection points: 3
#     Node 4, Type 0, BuildingBlock: PAMTOO_clean_linker_0, # of connection points: 3
#     Node 5, Type 0, BuildingBlock: PAMTOO_clean_linker_0, # of connection points: 3
#     Node 6, Type 0, BuildingBlock: PAMTOO_clean_linker_0, # of connection points: 3
#     Node 7, Type 0, BuildingBlock: PAMTOO_clean_linker_0, # of connection points: 3
#     Node 8, Type 1, BuildingBlock: BETDIP_clean_sbu_0, # of connection points: 6
#     Node 9, Type 1, BuildingBlock: BETDIP_clean_sbu_0, # of connection points: 6
#     Node 10, Type 1, BuildingBlock: BETDIP_clean_sbu_0, # of connection points: 6
#     Node 11, Type 1, BuildingBlock: BETDIP_clean_sbu_0, # of connection points: 6
#     Edge 12, Type (0, 1), BuildingBlock: ZUJKAS_clean_linker_0, # of connection points: 2
#     Edge 13, Type (0, 1), BuildingBlock: ZUJKAS_clean_linker_0, # of connection points: 2
#     Edge 14, Type (0, 1), BuildingBlock: ZUJKAS_clean_linker_0, # of connection points: 2
#     Edge 15, Type (0, 1), BuildingBlock: ZUJKAS_clean_linker_0, # of connection points: 2
#     Edge 16, Type (0, 1), BuildingBlock: ZUJKAS_clean_linker_0, # of connection points: 2
#     Edge 17, Type (0, 1), BuildingBlock: ZUJKAS_clean_linker_0, # of connection points: 2
#     Edge 18, Type (0, 1), BuildingBlock: ZUJKAS_clean_linker_0, # of connection points: 2
#     Edge 19, Type (0, 1), BuildingBlock: ZUJKAS_clean_linker_0, # of connection points: 2
#     Edge 20, Type (0, 1), BuildingBlock: ZUJKAS_clean_linker_0, # of connection points: 2
#     Edge 21, Type (0, 1), BuildingBlock: ZUJKAS_clean_linker_0, # of connection points: 2
#     Edge 22, Type (0, 1), BuildingBlock: ZUJKAS_clean_linker_0, # of connection points: 2
#     Edge 23, Type (0, 1), BuildingBlock: ZUJKAS_clean_linker_0, # of connection points: 2
#     Edge 24, Type (0, 1), BuildingBlock: ZUJKAS_clean_linker_0, # of connection points: 2
#     Edge 25, Type (0, 1), BuildingBlock: ZUJKAS_clean_linker_0, # of connection points: 2
#     Edge 26, Type (0, 1), BuildingBlock: ZUJKAS_clean_linker_0, # of connection points: 2
#     Edge 27, Type (0, 1), BuildingBlock: ZUJKAS_clean_linker_0, # of connection points: 2
#     Edge 28, Type (0, 1), BuildingBlock: ZUJKAS_clean_linker_0, # of connection points: 2
#     Edge 29, Type (0, 1), BuildingBlock: ZUJKAS_clean_linker_0, # of connection points: 2
#     Edge 30, Type (0, 1), BuildingBlock: ZUJKAS_clean_linker_0, # of connection points: 2
#     Edge 31, Type (0, 1), BuildingBlock: ZUJKAS_clean_linker_0, # of connection points: 2
#     Edge 32, Type (0, 1), BuildingBlock: ZUJKAS_clean_linker_0, # of connection points: 2
#     Edge 33, Type (0, 1), BuildingBlock: ZUJKAS_clean_linker_0, # of connection points: 2
#     Edge 34, Type (0, 1), BuildingBlock: ZUJKAS_clean_linker_0, # of connection points: 2
#     Edge 35, Type (0, 1), BuildingBlock: ZUJKAS_clean_linker_0, # of connection points: 2
# Relax obj value: 0.143
# Max RMSD: 0.271
# Mean RMSD: 0.149
data_MOF--net-pyr--node1-BETDIP_clean_sbu_0--node2-PAMTOO_clean_linker_0--edge1-ZUJKAS_clean_linker_0
_symmetry_space_group_name_H-M    P1
_symmetry_Int_Tables_number       1
_symmetry_cell_setting            triclinic
loop_
_symmetry_equiv_pos_as_xyz
'x, y, z'
_cell_length_a     45.079713
_cell_length_b     50.272351
_cell_length_c     49.489491
_cell_angle_alpha  89.593534
_cell_angle_beta   93.750591
_cell_angle_gamma 106.72111
loop_
_atom_site_label
_atom_site_type_symbol
_atom_site_fract_x
_atom_site_fract_y
_atom_site_fract_z
_atom_type_partial_charge
H0 H 0.32016 0.31757 0.25876 0.0
H1 H 0.36851 0.25663 0.27823 0.0
H2 H 0.37598 0.29502 0.20064 0.0
H3 H 0.3586 0.23239 0.20646 0.0
C4 C 0.37782 0.23212 0.22172 0.0
O5 O 0.39213 0.2586 0.23164 0.0
H6 H 0.36755 0.21848 0.23855 0.0
C7 C 0.33601 0.30606 0.25359 0.0
C8 C 0.34759 0.30902 0.2277 0.0
C9 C 0.34299 0.28699 0.27209 0.0
C10 C 0.36339 0.27211 0.26486 0.0
C11 C 0.37525 0.27515 0.23924 0.0
C12 C 0.36738 0.29352 0.22071 0.0
H13 H 0.23857 0.83313 0.73445 0.0
H14 H 0.17406 0.7735 0.6811 0.0
H15 H 0.24622 0.75003 0.72722 0.0
H16 H 0.2058 0.74381 0.65276 0.0
C17 C 0.20433 0.72621 0.66693 0.0
O18 O 0.19813 0.73302 0.6925 0.0
H19 H 0.18446 0.70889 0.65872 0.0
C20 C 0.23083 0.81262 0.72516 0.0
C21 C 0.24589 0.79261 0.733 0.0
C22 C 0.20502 0.80614 0.70635 0.0
C23 C 0.19393 0.77903 0.69566 0.0
C24 C 0.20902 0.75902 0.70299 0.0
C25 C 0.23492 0.76577 0.72159 0.0
H26 H 0.71353 0.34087 0.90949 0.0
H27 H 0.64383 0.33023 0.84354 0.0
H28 H 0.71814 0.40594 0.85132 0.0
H29 H 0.65387 0.41006 0.84127 0.0
C30 C 0.64631 0.39426 0.82463 0.0
O31 O 0.6676 0.37945 0.82299 0.0
H32 H 0.62352 0.37989 0.8295 0.0
C33 C 0.70451 0.34863 0.89122 0.0
C34 C 0.71957 0.37543 0.88217 0.0
C35 C 0.67726 0.33203 0.87747 0.0
C36 C 0.66477 0.34267 0.85448 0.0
C37 C 0.6795 0.36936 0.84527 0.0
C38 C 0.70684 0.38555 0.85898 0.0
H39 H 0.88788 0.74361 0.4127 0.0
H40 H 0.88442 0.67782 0.35622 0.0
H41 H 0.95749 0.75469 0.35475 0.0
H42 H 0.92981 0.72898 0.30008 0.0
C43 C 0.92431 0.70663 0.30545 0.0
O44 O 0.9344 0.70471 0.3323 0.0
H45 H 0.8987 0.69745 0.30296 0.0
C46 C 0.89708 0.73584 0.39572 0.0
C47 C 0.92408 0.75276 0.38484 0.0
C48 C 0.88235 0.7088 0.3857 0.0
C49 C 0.89542 0.69848 0.36443 0.0
C50 C 0.92235 0.71499 0.35307 0.0
C51 C 0.93676 0.74203 0.3635 0.0
H52 H 0.70123 0.83727 0.84788 0.0
H53 H 0.67591 0.77839 0.91204 0.0
H54 H 0.74435 0.77144 0.85855 0.0
H55 H 0.69441 0.71976 0.87352 0.0
C56 C 0.70033 0.72347 0.89566 0.0
O57 O 0.71491 0.75114 0.90121 0.0
H58 H 0.6784 0.71685 0.9062 0.0
C59 C 0.70323 0.81876 0.85829 0.0
C60 C 0.72449 0.80527 0.85003 0.0
C61 C 0.68566 0.80936 0.88068 0.0
C62 C 0.68887 0.78573 0.89443 0.0
C63 C 0.70973 0.77202 0.8862 0.0
C64 C 0.72745 0.78169 0.86405 0.0
H65 H 0.89438 0.25249 0.33841 0.0
H66 H 0.8425 0.30879 0.35778 0.0
H67 H 0.90377 0.28859 0.41849 0.0
H68 H 0.85531 0.30512 0.44528 0.0
C69 C 0.84384 0.30805 0.42536 0.0
O70 O 0.86635 0.31828 0.40731 0.0
H71 H 0.82816 0.28735 0.41866 0.0
C72 C 0.88831 0.26576 0.35289 0.0
C73 C 0.9017 0.26806 0.37962 0.0
C74 C 0.86637 0.2798 0.34478 0.0
C75 C 0.8597 0.29809 0.3632 0.0
C76 C 0.87398 0.30163 0.38937 0.0
C77 C 0.89467 0.28663 0.39759 0.0
H78 H 0.38693 0.74288 0.18205 0.0
H79 H 0.38438 0.68323 0.24557 0.0
H80 H 0.45685 0.76024 0.24822 0.0
H81 H 0.48026 0.71524 0.26939 0.0
C82 C 0.45765 0.69959 0.27234 0.0
O83 O 0.43463 0.71274 0.27233 0.0
H84 H 0.45273 0.68431 0.25524 0.0
C85 C 0.39626 0.73689 0.2011 0.0
C86 C 0.42327 0.75498 0.21386 0.0
C87 C 0.38185 0.71085 0.21219 0.0
C88 C 0.39511 0.70297 0.23635 0.0
C89 C 0.42217 0.72067 0.24912 0.0
C90 C 0.43613 0.74662 0.23797 0.0
H91 H 0.12473 0.3324 0.78439 0.0
H92 H 0.19718 0.4101 0.78106 0.0
H93 H 0.18925 0.34732 0.72124 0.0
H94 H 0.2521 0.37601 0.74617 0.0
C95 C 0.25035 0.39762 0.7445 0.0
O96 O 0.22002 0.39718 0.73753 0.0
H97 H 0.25769 0.40783 0.76469 0.0
C98 C 0.14447 0.34571 0.7748 0.0
C99 C 0.15458 0.33633 0.75104 0.0
C100 C 0.15988 0.37231 0.7862 0.0
C101 C 0.18534 0.38943 0.77324 0.0
C102 C 0.19567 0.38035 0.74991 0.0
C103 C 0.18045 0.35401 0.73904 0.0
Tb104 Tb 0.01187 1.02948 0.57505 0.0
Tb105 Tb 0.08026 0.05853 0.56141 0.0
C106 C 0.96 0.99382 0.57589 0.0
C107 C 0.94216 0.97752 0.59717 0.0
C108 C 0.91459 0.9567 0.59019 0.0
C109 C 0.89771 0.94074 0.61034 0.0
C110 C 0.90818 0.94544 0.63778 0.0
C111 C 0.93594 0.96637 0.64462 0.0
C112 C 0.95284 0.98224 0.62446 0.0
C113 C 0.03871 0.07164 0.60956 0.0
C114 C 0.0683 1.01465 0.60694 0.0
C115 C 0.13183 0.09273 0.55369 0.0
C116 C 0.14546 0.11071 0.53148 0.0
C117 C 0.16632 0.1369 0.53754 0.0
C118 C 0.18013 0.15407 0.51676 0.0
C119 C 0.17343 0.14516 0.48962 0.0
C120 C 0.15211 0.11907 0.48358 0.0
C121 C 0.13806 0.10204 0.50434 0.0
C122 C 0.0527 1.01042 0.53655 0.0
C123 C 0.02475 0.07609 0.53018 0.0
O124 O 0.98565 0.98779 0.57121 0.0
O125 O 0.96376 1.02067 0.57692 0.0
O126 O 0.0496 0.0624 0.59018 0.0
O127 O 0.01069 0.05543 0.61104 0.0
O128 O 0.03882 1.00589 0.59766 0.0
O129 O 0.0874 0.03833 0.59915 0.0
O130 O 0.10961 0.0993 0.56526 0.0
O131 O 0.1256 0.06594 0.54952 0.0
O132 O 0.04021 1.02906 0.54206 0.0
O133 O 0.08221 1.01961 0.5431 0.0
O134 O 0.05506 0.07955 0.5336 0.0
O135 O 1.00387 0.05711 0.5431 0.0
H136 H 0.90614 0.95279 0.56917 0.0
H137 H 0.87627 0.92497 0.60447 0.0
H138 H 0.94481 0.97024 0.66554 0.0
H139 H 0.97429 0.99812 0.63012 0.0
H140 H 0.17215 0.14395 0.55838 0.0
H141 H 0.19661 0.17401 0.52196 0.0
H142 H 0.14627 0.11189 0.46279 0.0
H143 H 0.12165 0.08204 0.4992 0.0
Tb144 Tb 0.58125 0.05531 0.04768 0.0
Tb145 Tb 0.51365 1.02709 0.03354 0.0
C146 C 0.63321 0.0909 0.05608 0.0
C147 C 0.64746 0.11262 0.07646 0.0
C148 C 0.67656 0.13123 0.07254 0.0
C149 C 0.69099 0.15138 0.09224 0.0
C150 C 0.67645 0.15331 0.11617 0.0
C151 C 0.64685 0.13492 0.11966 0.0
C152 C 0.63254 0.11467 0.10001 0.0
C153 C 0.55751 1.00967 0.07474 0.0
C154 C 0.52869 0.07313 0.07761 0.0
C155 C 0.46205 0.99168 1.02315 0.0
C156 C 0.45001 0.97156 1.0009 0.0
C157 C 0.42303 0.94963 1.00354 0.0
C158 C 0.41161 0.93035 0.98241 0.0
C159 C 0.42714 0.93266 0.95833 0.0
C160 C 0.45446 0.95457 0.956 0.0
C161 C 0.46571 0.97389 0.97706 0.0
C162 C 0.53789 0.07261 1.00641 0.0
C163 C 0.56605 1.00804 1.0048 0.0
O164 O 0.61051 0.09505 0.04039 0.0
O165 O 0.62692 0.06535 0.0647 0.0
O166 O 0.54428 1.02787 0.06818 0.0
O167 O 0.58602 1.01788 0.06816 0.0
O168 O 0.5577 0.07996 0.07034 0.0
O169 O 0.50786 0.05013 0.06857 0.0
O170 O 0.48426 0.98696 0.03907 0.0
O171 O 0.46803 1.01783 1.01647 0.0
O172 O 0.55068 0.05414 1.01296 0.0
O173 O 0.50951 0.06492 1.01336 0.0
O174 O 0.53698 1.00196 1.01163 0.0
O175 O 0.58724 1.03091 1.01363 0.0
H176 H 0.68837 0.12986 0.05445 0.0
H177 H 0.71396 0.16487 0.08905 0.0
H178 H 0.63482 0.13605 0.13767 0.0
H179 H 0.61006 0.10039 0.10337 0.0
H180 H 0.41068 0.94754 1.02187 0.0
H181 H 0.39029 0.91397 0.98473 0.0
H182 H 0.46723 0.95675 0.93793 0.0
H183 H 0.48666 0.99069 0.9747 0.0
Tb184 Tb 0.55815 0.58191 0.56473 0.0
Tb185 Tb 0.55056 0.52589 0.54021 0.0
C186 C 0.54909 0.62702 0.57784 0.0
C187 C 0.52557 0.6351 0.5924 0.0
C188 C 0.5174 0.65899 0.58449 0.0
C189 C 0.49363 0.66613 0.59669 0.0
C190 C 0.47756 0.64949 0.61712 0.0
C191 C 0.4862 0.62572 0.62529 0.0
C192 C 0.50995 0.61855 0.61298 0.0
C193 C 0.58473 0.54976 0.59358 0.0
C194 C 0.49757 0.53099 0.57538 0.0
C195 C 0.55864 0.48071 0.52607 0.0
C196 C 0.58339 0.47227 0.51376 0.0
C197 C 0.61481 0.48652 0.51977 0.0
C198 C 0.638 0.47788 0.50821 0.0
C199 C 0.63018 0.45481 0.49048 0.0
C200 C 0.59864 0.44087 0.48424 0.0
C201 C 0.57548 0.44955 0.49579 0.0
C202 C 0.5236 0.55803 0.51176 0.0
C203 C 0.61116 0.57656 0.52988 0.0
O204 O 0.53914 0.6144 0.55454 0.0
O205 O 0.56736 0.61538 0.59211 0.0
O206 O 0.55895 0.54245 0.58019 0.0
O207 O 0.59587 0.57657 0.59253 0.0
O208 O 0.51107 0.55824 0.5757 0.0
O209 O 0.51056 0.51353 0.56448 0.0
O210 O 0.56511 0.49103 0.5507 0.0
O211 O 0.54405 0.4947 0.51055 0.0
O212 O 0.54966 0.56532 0.52471 0.0
O213 O 0.51225 0.53129 0.51328 0.0
O214 O 0.59833 0.54927 0.53083 0.0
O215 O 0.59742 0.59408 0.53956 0.0
H216 H 0.52901 0.67185 0.56844 0.0
H217 H 0.48726 0.68426 0.5895 0.0
H218 H 0.47453 0.61257 0.64111 0.0
H219 H 0.51581 0.59991 0.61929 0.0
H220 H 0.62146 0.50416 0.53358 0.0
H221 H 0.66205 0.48925 0.51318 0.0
H222 H 0.59185 0.4228 0.47096 0.0
H223 H 0.55135 0.43832 0.49092 0.0
Tb224 Tb 0.04903 0.5586 0.03464 0.0
Tb225 Tb 0.04908 0.51137 0.07134 0.0
C226 C 0.03523 0.59532 1.00596 0.0
C227 C 1.0085 0.60635 1.00264 0.0
C228 C 0.97993 0.59193 1.01262 0.0
C229 C 0.95381 0.6012 1.00696 0.0
C230 C 0.95595 0.62504 0.99125 0.0
C231 C 0.98497 0.63994 0.98222 0.0
C232 C 0.01101 0.63061 0.98783 0.0
C233 C 0.10384 0.56146 0.05907 0.0
C234 C 0.0247 0.55796 0.09419 0.0
C235 C 0.06434 0.47487 0.0991 0.0
C236 C 0.09033 0.46268 0.09925 0.0
C237 C 0.12051 0.47917 0.09474 0.0
C238 C 0.14529 0.46765 0.09659 0.0
C239 C 0.1402 0.43939 0.1025 0.0
C240 C 0.10981 0.42271 0.1059 0.0
C241 C 0.08508 0.43432 0.1044 0.0
C242 C 0.99442 0.50863 0.04669 0.0
C243 C 0.0718 0.51113 1.01142 0.0
O244 O 0.02986 0.5695 0.99818 0.0
O245 O 0.05166 0.60069 0.02908 0.0
O246 O 0.07787 0.55298 0.06902 0.0
O247 O 0.09973 0.57081 0.03512 0.0
O248 O 0.02271 0.56601 0.06867 0.0
O249 O 0.03738 0.53795 0.1008 0.0
O250 O 0.07152 0.50103 0.1064 0.0
O251 O 0.04458 0.46907 0.07791 0.0
O252 O 0.0205 0.51709 0.037 0.0
O253 O 0.99818 0.49889 0.07058 0.0
O254 O 0.07453 0.50343 0.03695 0.0
O255 O 0.05906 0.53114 1.00507 0.0
H256 H 0.97765 0.57309 1.0241 0.0
H257 H 0.93176 0.58916 1.01403 0.0
H258 H 0.98747 0.65864 0.97049 0.0
H259 H 0.03296 0.64199 0.98007 0.0
H260 H 0.12505 0.50105 0.09028 0.0
H261 H 0.16848 0.48087 0.09367 0.0
H262 H 0.10534 0.40091 0.1107 0.0
H263 H 0.06194 0.42127 0.10777 0.0
H264 H 0.28219 0.28356 0.27905 0.0
H265 H 0.25274 0.26657 0.31819 0.0
H266 H 0.33458 0.25436 0.36028 0.0
H267 H 0.36491 0.27334 0.3219 0.0
H268 H 0.24092 0.21609 0.33583 0.0
H269 H 0.30049 0.28676 0.42025 0.0
H270 H 0.30796 0.29502 0.38533 0.0
H271 H 0.32705 0.27284 0.4037 0.0
C272 C 0.29437 0.27836 0.29697 0.0
C273 C 0.32609 0.27995 0.29724 0.0
C274 C 0.27731 0.26831 0.31928 0.0
C275 C 0.29143 0.25937 0.3423 0.0
C276 C 0.32327 0.26169 0.34302 0.0
H277 H 0.20176 0.12921 0.44834 0.0
H278 H 0.22908 0.15812 0.41263 0.0
C279 C 0.3405 0.27215 0.32084 0.0
C280 C 0.27218 0.24494 0.36417 0.0
H281 H 0.26757 0.24211 0.43274 0.0
C282 C 0.24654 0.22205 0.35699 0.0
C283 C 0.2792 0.25288 0.39176 0.0
C284 C 0.30498 0.27841 0.40068 0.0
C285 C 0.22833 0.20638 0.37665 0.0
C286 C 0.23659 0.2132 0.40433 0.0
C287 C 0.26154 0.23665 0.41152 0.0
C288 C 0.22013 0.19581 0.42612 0.0
C289 C 0.20031 0.18279 0.36745 0.0
C290 C 0.20694 0.20759 0.44611 0.0
C291 C 0.1917 0.19115 0.46678 0.0
C292 C 0.18932 0.16267 0.4677 0.0
C293 C 0.20274 0.151 0.44779 0.0
C294 C 0.21826 0.16747 0.42735 0.0
H295 H 0.19145 0.18611 0.34659 0.0
H296 H 0.20693 0.16318 0.36724 0.0
H297 H 0.18123 0.18027 0.38122 0.0
H298 H 0.20827 0.22944 0.44562 0.0
H299 H 0.18147 0.20063 0.48187 0.0
H300 H 0.25586 0.76137 0.77638 0.0
H301 H 0.29346 0.77664 0.81523 0.0
H302 H 0.33088 0.85554 0.7771 0.0
H303 H 0.29429 0.84009 0.73785 0.0
H304 H 0.37635 0.83626 0.80538 0.0
H305 H 0.27675 0.83226 0.8678 0.0
H306 H 0.27628 0.80016 0.85182 0.0
H307 H 0.27234 0.8288 0.83141 0.0
C308 C 0.27267 0.78168 0.77596 0.0
C309 C 0.27178 0.79974 0.75428 0.0
C310 C 0.29391 0.79046 0.79828 0.0
C311 C 0.3144 0.81745 0.79929 0.0
C312 C 0.31507 0.83471 0.77682 0.0
H313 H 0.42437 0.94442 0.90438 0.0
H314 H 0.40058 0.91263 0.86686 0.0
C315 C 0.29399 0.82593 0.75451 0.0
C316 C 0.33318 0.82891 0.82447 0.0
H317 H 0.32665 0.85026 0.88856 0.0
C318 C 0.36556 0.83901 0.82371 0.0
C319 C 0.31899 0.83252 0.84832 0.0
C320 C 0.28418 0.8231 0.84999 0.0
C321 C 0.38408 0.85328 0.84597 0.0
C322 C 0.36973 0.85782 0.86938 0.0
C323 C 0.33754 0.84666 0.87057 0.0
C324 C 0.38706 0.8762 0.89188 0.0
C325 C 0.41876 0.86374 0.8441 0.0
C326 C 0.38706 0.86632 0.91847 0.0
C327 C 0.40069 0.88448 0.94003 0.0
C328 C 0.41432 0.91291 0.93539 0.0
C329 C 0.41463 0.92259 0.90864 0.0
C330 C 0.40108 0.90443 0.88713 0.0
H331 H 0.42683 0.85154 0.82904 0.0
H332 H 0.42507 0.88569 0.8375 0.0
H333 H 0.43123 0.86283 0.86404 0.0
H334 H 0.37612 0.84463 0.92255 0.0
H335 H 0.40039 0.8763 0.96034 0.0
H336 H 0.68101 0.44538 0.80846 0.0
H337 H 0.67319 0.47019 0.76686 0.0
H338 H 0.59717 0.39972 0.73951 0.0
H339 H 0.60475 0.37506 0.78121 0.0
H340 H 0.67263 0.45667 0.71107 0.0
H341 H 0.55788 0.46417 0.73888 0.0
H342 H 0.58487 0.45469 0.76291 0.0
H343 H 0.56152 0.42953 0.73873 0.0
C344 C 0.66269 0.43525 0.79349 0.0
C345 C 0.64297 0.40864 0.79824 0.0
C346 C 0.6583 0.44936 0.76975 0.0
C347 C 0.63417 0.43704 0.75035 0.0
C348 C 0.61546 0.40987 0.75448 0.0
H349 H 0.55598 0.49572 0.6049 0.0
H350 H 0.57012 0.46768 0.64135 0.0
C351 C 0.61985 0.39578 0.77821 0.0
C352 C 0.62795 0.45291 0.72625 0.0
H353 H 0.57311 0.47977 0.69539 0.0
C354 C 0.65091 0.46178 0.70762 0.0
C355 C 0.59962 0.45962 0.72183 0.0
C356 C 0.57462 0.45176 0.74173 0.0
C357 C 0.64603 0.47673 0.68441 0.0
C358 C 0.61767 0.4834 0.68001 0.0
C359 C 0.59478 0.47454 0.69869 0.0
C360 C 0.61109 0.49972 0.65635 0.0
C361 C 0.67102 0.48472 0.66455 0.0
C362 C 0.62954 0.52705 0.65246 0.0
C363 C 0.62158 0.54309 0.63147 0.0
C364 C 0.59491 0.53216 0.61414 0.0
C365 C 0.57682 0.50465 0.61776 0.0
C366 C 0.58481 0.48863 0.63866 0.0
H367 H 0.68721 0.47174 0.66684 0.0
H368 H 0.66079 0.48272 0.64336 0.0
H369 H 0.68471 0.5067 0.66825 0.0
H370 H 0.64954 0.53629 0.66617 0.0
H371 H 0.63584 0.56428 0.62925 0.0
H372 H 0.94 0.72135 0.25393 0.0
H373 H 0.95722 0.69521 0.21977 0.0
H374 H 0.95758 0.6309 0.27781 0.0
H375 H 0.93928 0.65677 0.31189 0.0
H376 H 1.00742 0.67866 0.21549 0.0
H377 H 0.90627 0.58478 0.21667 0.0
H378 H 0.90748 0.61651 0.23406 0.0
H379 H 0.92722 0.59303 0.24904 0.0
C380 C 0.94414 0.7018 0.25956 0.0
C381 C 0.93889 0.6915 0.28589 0.0
C382 C 0.9539 0.68676 0.23991 0.0
C383 C 0.95838 0.66073 0.24583 0.0
C384 C 0.9537 0.65057 0.27233 0.0
H385 H 0.02 0.54414 0.14793 0.0
H386 H 1.00412 0.56878 0.18428 0.0
C387 C 0.94368 0.66559 0.29201 0.0
C388 C 0.96783 0.64455 0.22414 0.0
H389 H 0.94709 0.58215 0.18988 0.0
C390 C 0.9941 0.65758 0.20991 0.0
C391 C 0.95058 0.61697 0.21656 0.0
C392 C 0.92116 0.60206 0.22967 0.0
C393 C 1.00366 0.64391 0.18877 0.0
C394 C 0.98641 0.6164 0.18123 0.0
C395 C 0.96036 0.60321 0.19557 0.0
C396 C 0.99517 0.60098 0.15863 0.0
C397 C 0.03252 0.6589 0.17493 0.0
C398 C 0.99491 0.61041 0.1318 0.0
C399 C 1.00381 0.59621 0.1108 0.0
C400 C 0.0133 0.5722 0.11611 0.0
C401 C 0.01296 0.56255 0.14295 0.0
C402 C 1.00385 0.57664 0.16385 0.0
H403 H 0.04705 0.67709 0.18702 0.0
H404 H 0.04674 0.64472 0.17125 0.0
H405 H 0.02572 0.66651 0.15504 0.0
H406 H 0.98783 0.62884 0.12705 0.0
H407 H 1.00366 0.60431 0.09048 0.0
H408 H 0.42672 0.21848 0.24752 0.0
H409 H 0.46301 0.19691 0.22788 0.0
H410 H 0.41646 0.19756 0.14894 0.0
H411 H 0.38086 0.21964 0.16838 0.0
H412 H 0.44836 0.14701 0.20346 0.0
H413 H 0.50609 0.22668 0.13163 0.0
H414 H 0.48382 0.23411 0.15812 0.0
H415 H 0.4647 0.21864 0.12652 0.0
C416 C 0.4247 0.21435 0.22592 0.0
C417 C 0.40111 0.22058 0.20941 0.0
C418 C 0.44534 0.20209 0.21475 0.0
C419 C 0.44275 0.19605 0.18688 0.0
C420 C 0.41943 0.2027 0.17035 0.0
H421 H 0.47167 0.06574 0.09703 0.0
H422 H 0.4558 0.09652 0.12707 0.0
C423 C 0.39892 0.21505 0.18149 0.0
C424 C 0.46239 0.18053 0.17531 0.0
H425 H 0.50568 0.17941 0.12157 0.0
C426 C 0.4614 0.15433 0.18587 0.0
C427 C 0.47996 0.19029 0.15274 0.0
C428 C 0.484 0.21912 0.14181 0.0
C429 C 0.47573 0.13684 0.17329 0.0
C430 C 0.49078 0.14558 0.14922 0.0
C431 C 0.49366 0.17254 0.13978 0.0
C432 C 0.5013 0.12634 0.1323 0.0
C433 C 0.47407 0.10896 0.18565 0.0
C434 C 0.53201 0.13322 0.12471 0.0
C435 C 0.54112 0.11577 0.10719 0.0
C436 C 0.5196 0.09121 0.09691 0.0
C437 C 0.48891 0.08437 0.1047 0.0
C438 C 0.47983 0.10184 0.12209 0.0
H439 H 0.47196 0.10945 0.20787 0.0
H440 H 0.45321 0.09319 0.17669 0.0
H441 H 0.49488 0.10232 0.18175 0.0
H442 H 0.54884 0.1522 0.13216 0.0
H443 H 0.56489 0.12175 0.10147 0.0
H444 H 0.23321 0.8603 0.6946 0.0
H445 H 0.20868 0.89647 0.68204 0.0
H446 H 0.11832 0.83727 0.68573 0.0
H447 H 0.14272 0.80105 0.69918 0.0
H448 H 0.16883 0.89689 0.63695 0.0
H449 H 0.11166 0.90254 0.73198 0.0
H450 H 0.14182 0.88565 0.73004 0.0
H451 H 0.10285 0.86838 0.71721 0.0
C452 C 0.20811 0.85504 0.69311 0.0
C453 C 0.1899 0.82784 0.69808 0.0
C454 C 0.19415 0.8757 0.6858 0.0
C455 C 0.16172 0.86965 0.6834 0.0
C456 C 0.1434 0.84249 0.68802 0.0
H457 H 0.03737 0.96326 0.62523 0.0
H458 H 0.06026 0.92894 0.64612 0.0
C459 C 0.15737 0.82175 0.69535 0.0
C460 C 0.14726 0.89162 0.67493 0.0
H461 H 0.09958 0.92869 0.69488 0.0
C462 C 0.15382 0.90395 0.64966 0.0
C463 C 0.12762 0.90069 0.69157 0.0
C464 C 0.12071 0.88884 0.71932 0.0
C465 C 0.14094 0.92487 0.64038 0.0
C466 C 0.12143 0.93405 0.65705 0.0
C467 C 0.1147 0.92166 0.68227 0.0
C468 C 0.1073 0.95605 0.6481 0.0
C469 C 0.1478 0.93659 0.61254 0.0
C470 C 0.12607 0.983 0.6434 0.0
C471 C 0.11312 1.0027 0.63143 0.0
C472 C 0.08113 0.99576 0.62402 0.0
C473 C 0.06212 0.96928 0.63049 0.0
C474 C 0.07513 0.9496 0.64245 0.0
H475 H 0.15734 0.9231 0.60007 0.0
H476 H 0.12652 0.93924 0.60165 0.0
H477 H 0.16522 0.9573 0.61456 0.0
H478 H 0.15091 0.98847 0.64809 0.0
H479 H 0.12842 1.02293 0.62695 0.0
H480 H 0.73666 0.43157 0.89294 0.0
H481 H 0.78357 0.45947 0.91835 0.0
H482 H 0.81348 0.38609 0.93217 0.0
H483 H 0.76768 0.3584 0.90568 0.0
H484 H 0.80311 0.45641 0.97048 0.0
H485 H 0.89055 0.43865 0.90507 0.0
H486 H 0.84978 0.42953 0.89447 0.0
H487 H 0.8649 0.40654 0.9157 0.0
C488 C 0.75352 0.42146 0.90091 0.0
C489 C 0.74837 0.3927 0.89714 0.0
C490 C 0.7802 0.43741 0.91565 0.0
C491 C 0.80231 0.42498 0.92683 0.0
C492 C 0.79714 0.3963 0.92323 0.0
H493 H 0.9378 0.47692 0.06107 0.0
H494 H 0.89036 0.46001 0.03162 0.0
C495 C 0.77065 0.38039 0.90838 0.0
C496 C 0.83028 0.44167 0.94307 0.0
H497 H 0.9091 0.4557 0.95001 0.0
C498 C 0.82633 0.45654 0.96584 0.0
C499 C 0.86064 0.44233 0.93675 0.0
C500 C 0.86677 0.42865 0.91149 0.0
C501 C 0.85181 0.47108 0.98304 0.0
C502 C 0.88197 0.47014 0.97771 0.0
C503 C 0.88598 0.45618 0.95435 0.0
C504 C 0.90965 0.48263 0.99637 0.0
C505 C 0.84612 0.48741 1.00662 0.0
C506 C 0.93645 0.50076 0.98639 0.0
C507 C 0.96374 0.50998 1.00306 0.0
C508 C 0.96472 0.50136 0.03008 0.0
C509 C 0.93764 0.48403 0.04037 0.0
C510 C 0.91043 0.47453 1.02359 0.0
H511 H 0.82461 0.49379 1.00267 0.0
H512 H 0.84312 0.47418 1.02486 0.0
H513 H 0.86587 0.50629 1.01107 0.0
H514 H 0.93649 0.50723 0.96546 0.0
H515 H 0.98429 0.52318 0.99454 0.0
H516 H 0.83371 0.72617 0.40142 0.0
H517 H 0.78868 0.69991 0.42475 0.0
H518 H 0.8188 0.62621 0.41959 0.0
H519 H 0.86494 0.6528 0.39723 0.0
H520 H 0.74083 0.65562 0.4099 0.0
H521 H 0.80657 0.62844 0.49955 0.0
H522 H 0.82488 0.65356 0.47506 0.0
H523 H 0.81581 0.61701 0.46772 0.0
C524 C 0.83105 0.70444 0.40548 0.0
C525 C 0.85339 0.69179 0.39779 0.0
C526 C 0.80506 0.68935 0.41867 0.0
C527 C 0.80053 0.66116 0.42453 0.0
C528 C 0.8221 0.6481 0.41597 0.0
H529 H 0.64797 0.5479 0.50832 0.0
H530 H 0.69376 0.56666 0.48232 0.0
C531 C 0.8483 0.66327 0.40282 0.0
C532 C 0.77314 0.64578 0.43952 0.0
H533 H 0.75193 0.61049 0.49794 0.0
C534 C 0.74333 0.6457 0.42911 0.0
C535 C 0.77623 0.63275 0.46463 0.0
C536 C 0.80758 0.63308 0.47759 0.0
C537 C 0.71676 0.63328 0.44313 0.0
C538 C 0.71993 0.62074 0.46842 0.0
C539 C 0.74954 0.62011 0.47855 0.0
C540 C 0.69287 0.60933 0.4851 0.0
C541 C 0.68539 0.63369 0.43078 0.0
C542 C 0.67753 0.62711 0.49582 0.0
C543 C 0.65153 0.61652 0.51085 0.0
C544 C 0.64014 0.58781 0.51549 0.0
C545 C 0.65598 0.57008 0.50518 0.0
C546 C 0.68219 0.58076 0.49027 0.0
H547 H 0.68594 0.638 0.40874 0.0
H548 H 0.66766 0.61358 0.43387 0.0
H549 H 0.67809 0.65026 0.44078 0.0
H550 H 0.68561 0.64927 0.49243 0.0
H551 H 0.64006 0.63087 0.51844 0.0
H552 H 0.32374 0.29291 0.17648 0.0
H553 H 0.29539 0.31667 0.14557 0.0
H554 H 0.31489 0.38546 0.20197 0.0
H555 H 0.34331 0.36181 0.23301 0.0
H556 H 0.24242 0.33103 0.1666 0.0
H557 H 0.32862 0.42157 0.1247 0.0
H558 H 0.3384 0.39086 0.13662 0.0
H559 H 0.33392 0.41597 0.16043 0.0
C560 C 0.32285 0.3135 0.18188 0.0
C561 C 0.33566 0.32556 0.20713 0.0
C562 C 0.30659 0.32697 0.16426 0.0
C563 C 0.30334 0.35286 0.17144 0.0
C564 C 0.3176 0.36566 0.19593 0.0
H565 H 0.19304 0.4609 0.13438 0.0
H566 H 0.23386 0.43902 0.14668 0.0
C567 C 0.3336 0.35208 0.21369 0.0
C568 C 0.2813 0.36455 0.15554 0.0
H569 H 0.27564 0.42157 0.12024 0.0
C570 C 0.24959 0.3506 0.15603 0.0
C571 C 0.29093 0.39014 0.1421 0.0
C572 C 0.32484 0.40551 0.14066 0.0
C573 C 0.22701 0.36224 0.14457 0.0
C574 C 0.23654 0.38817 0.13146 0.0
C575 C 0.26839 0.40166 0.13017 0.0
C576 C 0.21381 0.40264 0.12117 0.0
C577 C 0.19325 0.34738 0.14806 0.0
C578 C 0.18953 0.38988 0.10206 0.0
C579 C 0.16592 0.40216 0.09533 0.0
C580 C 0.16667 0.42771 0.10712 0.0
C581 C 0.192 0.44125 0.12491 0.0
C582 C 0.21531 0.42878 0.13195 0.0
H583 H 0.19041 0.33151 0.16418 0.0
H584 H 0.18039 0.36226 0.15322 0.0
H585 H 0.18248 0.33659 0.12884 0.0
H586 H 0.18837 0.37006 0.09294 0.0
H587 H 0.14683 0.39152 0.08126 0.0
H588 H 0.70469 0.29209 0.89333 0.0
H589 H 0.68039 0.24672 0.91261 0.0
H590 H 0.59138 0.26303 0.9046 0.0
H591 H 0.61555 0.30828 0.88481 0.0
H592 H 0.65135 0.23558 0.9585 0.0
H593 H 0.5692 0.18588 0.87283 0.0
H594 H 0.6 0.21757 0.86912 0.0
H595 H 0.56443 0.21847 0.88312 0.0
C596 C 0.67988 0.28591 0.8955 0.0
C597 C 0.66201 0.30375 0.88753 0.0
C598 C 0.66601 0.25995 0.90649 0.0
C599 C 0.63396 0.25123 0.90978 0.0
C600 C 0.616 0.26893 0.90164 0.0
H601 H 0.51269 0.1145 0.9934 0.0
H602 H 0.53647 0.1575 0.96954 0.0
C603 C 0.62984 0.29484 0.8904 0.0
C604 C 0.61981 0.2243 0.92306 0.0
H605 H 0.56228 0.16284 0.91528 0.0
C606 C 0.63204 0.21961 0.94893 0.0
C607 C 0.59459 0.2034 0.9106 0.0
C608 C 0.58147 0.20641 0.88228 0.0
C609 C 0.61942 0.19489 0.96283 0.0
C610 C 0.59399 0.17423 0.95051 0.0
C611 C 0.58175 0.1788 0.92467 0.0
C612 C 0.57954 0.14788 0.96438 0.0
C613 C 0.63293 0.19121 0.99084 0.0
C614 C 0.59576 0.12808 0.96903 0.0
C615 C 0.58215 0.10343 0.98248 0.0
C616 C 0.55219 0.09829 0.99166 0.0
C617 C 0.53587 0.11797 0.98665 0.0
C618 C 0.54938 0.14251 0.97303 0.0
H619 H 0.64872 0.21099 0.99942 0.0
H620 H 0.61415 0.18301 1.00478 0.0
H621 H 0.64636 0.17592 0.9899 0.0
H622 H 0.61891 0.13169 0.96218 0.0
H623 H 0.59508 0.08842 0.98573 0.0
H624 H 0.89495 0.79167 0.39655 0.0
H625 H 0.9168 0.83622 0.42019 0.0
H626 H 1.00737 0.82307 0.42424 0.0
H627 H 0.98557 0.7785 0.40011 0.0
H628 H 0.94308 0.84599 0.47032 0.0
H629 H 0.0288 0.90207 0.39912 0.0
H630 H 0.99938 0.87011 0.38987 0.0
H631 H 0.03424 0.86942 0.40943 0.0
C632 C 0.91962 0.79838 0.4022 0.0
C633 C 0.93849 0.78141 0.3964 0.0
C634 C 0.93211 0.82392 0.41577 0.0
C635 C 0.96386 0.83336 0.42394 0.0
C636 C 0.98295 0.81673 0.4177 0.0
H637 H 0.07967 0.97091 0.52321 0.0
H638 H 0.0571 0.9285 0.49623 0.0
C639 C 0.97046 0.79116 0.40389 0.0
C640 C 0.97637 0.8598 0.44017 0.0
H641 H 0.03196 0.92283 0.44272 0.0
C642 C 0.96238 0.86285 0.46412 0.0
C643 C 1.00157 0.88197 0.43226 0.0
C644 C 0.01669 0.88092 0.40613 0.0
C645 C 0.97321 0.88697 0.48054 0.0
C646 C 0.99859 0.90898 0.47276 0.0
C647 C 0.01252 0.90602 0.44877 0.0
C648 C 0.01173 0.93484 0.48962 0.0
C649 C 0.95792 0.88834 0.50651 0.0
C650 C 0.99387 0.95281 0.49498 0.0
C651 C 1.00683 0.97727 0.51048 0.0
C652 C 0.03792 0.98423 0.5209 0.0
C653 C 0.05564 0.96618 0.51554 0.0
C654 C 0.04277 0.94189 0.50003 0.0
H655 H 0.94381 0.8675 0.51273 0.0
H656 H 0.97553 0.89749 0.5232 0.0
H657 H 0.94229 0.90175 0.50355 0.0
H658 H 0.97003 0.94817 0.48683 0.0
H659 H 0.99265 0.99086 0.51402 0.0
H660 H 0.26353 0.75898 0.66088 0.0
H661 H 0.31082 0.74431 0.65865 0.0
H662 H 0.25843 0.6598 0.67384 0.0
H663 H 0.21111 0.67443 0.67587 0.0
H664 H 0.34117 0.71417 0.69651 0.0
H665 H 0.29596 0.65664 0.59977 0.0
H666 H 0.27914 0.6819 0.61315 0.0
H667 H 0.27111 0.64783 0.62743 0.0
C668 C 0.26227 0.73732 0.66383 0.0
C669 C 0.23372 0.71765 0.66783 0.0
C670 C 0.2892 0.72899 0.66268 0.0
C671 C 0.28792 0.7009 0.66558 0.0
C672 C 0.25972 0.68148 0.67106 0.0
H673 H 0.42222 0.61362 0.63042 0.0
H674 H 0.37722 0.62522 0.64625 0.0
C675 C 0.23281 0.68982 0.67224 0.0
C676 C 0.31571 0.69174 0.66139 0.0
H677 H 0.34462 0.65442 0.6181 0.0
C678 C 0.34198 0.70102 0.67945 0.0
C679 C 0.31658 0.67459 0.63911 0.0
C680 C 0.28933 0.66477 0.61858 0.0
C681 C 0.36916 0.69346 0.67586 0.0
C682 C 0.37022 0.67669 0.65329 0.0
C683 C 0.34375 0.66716 0.63546 0.0
C684 C 0.3988 0.66965 0.6469 0.0
C685 C 0.39631 0.70323 0.69646 0.0
C686 C 0.42603 0.69075 0.64225 0.0
C687 C 0.45196 0.68418 0.63353 0.0
C688 C 0.45106 0.65636 0.62888 0.0
C689 C 0.42394 0.63523 0.63413 0.0
C690 C 0.39808 0.64183 0.64301 0.0
H691 H 0.38868 0.70787 0.71634 0.0
H692 H 0.40914 0.68749 0.69941 0.0
H693 H 0.41251 0.72264 0.68927 0.0
H694 H 0.42695 0.71239 0.64452 0.0
H695 H 0.47256 0.70095 0.63 0.0
H696 H 0.73898 0.77777 0.80749 0.0
H697 H 0.77254 0.798 0.77095 0.0
H698 H 0.78948 0.87948 0.80656 0.0
H699 H 0.75652 0.8595 0.84316 0.0
H700 H 0.76419 0.84113 0.73443 0.0
H701 H 0.87723 0.87254 0.79465 0.0
H702 H 0.84351 0.84702 0.8062 0.0
H703 H 0.84694 0.88342 0.80896 0.0
C704 C 0.75012 0.79995 0.8076 0.0
C705 C 0.74503 0.81708 0.82806 0.0
C706 C 0.76915 0.81145 0.78673 0.0
C707 C 0.78369 0.84015 0.78629 0.0
C708 C 0.77878 0.85723 0.80677 0.0
H709 H 0.89509 0.96374 0.68619 0.0
H710 H 0.86507 0.9362 0.7214 0.0
C711 C 0.75968 0.84582 0.82748 0.0
C712 C 0.80305 0.85268 0.76392 0.0
H713 H 0.87585 0.89202 0.75069 0.0
C714 C 0.7887 0.85196 0.73782 0.0
C715 C 0.83495 0.86683 0.76857 0.0
C716 C 0.8517 0.86735 0.79606 0.0
C717 C 0.80518 0.86606 0.71637 0.0
C718 C 0.83696 0.88074 0.72114 0.0
C719 C 0.85147 0.88082 0.74713 0.0
C720 C 0.85531 0.89707 0.69974 0.0
C721 C 0.78811 0.86611 0.6891 0.0
C722 C 0.86006 0.88412 0.67605 0.0
C723 C 0.87719 0.89981 0.65589 0.0
C724 C 0.89013 0.92869 0.65921 0.0
C725 C 0.88567 0.94151 0.68315 0.0
C726 C 0.86845 0.92583 0.70323 0.0
H727 H 0.76253 0.8595 0.69049 0.0
H728 H 0.79503 0.88707 0.68 0.0
H729 H 0.79402 0.85141 0.67525 0.0
H730 H 0.85069 0.86186 0.67324 0.0
H731 H 0.88067 0.88929 0.63786 0.0
H732 H 0.84478 0.22922 0.31932 0.0
H733 H 0.81348 0.21765 0.27675 0.0
H734 H 0.81359 0.303 0.26784 0.0
H735 H 0.84626 0.31526 0.31018 0.0
H736 H 0.75075 0.25411 0.26379 0.0
H737 H 0.84231 0.24642 0.19679 0.0
H738 H 0.84366 0.2316 0.22992 0.0
H739 H 0.85052 0.26843 0.22672 0.0
C740 C 0.83894 0.24579 0.30809 0.0
C741 C 0.84843 0.27329 0.31812 0.0
C742 C 0.8208 0.23904 0.28385 0.0
C743 C 0.81149 0.25951 0.26921 0.0
C744 C 0.82071 0.28698 0.27895 0.0
H745 H 0.71294 0.20701 0.11097 0.0
H746 H 0.74405 0.23799 0.14684 0.0
C747 C 0.83922 0.29387 0.30317 0.0
C748 C 0.79112 0.25148 0.24426 0.0
H749 H 0.78989 0.22468 0.181 0.0
C750 C 0.75928 0.24819 0.24544 0.0
C751 C 0.80247 0.24401 0.22042 0.0
C752 C 0.83665 0.24793 0.21813 0.0
C753 C 0.73816 0.23598 0.22378 0.0
C754 C 0.74931 0.22671 0.20063 0.0
C755 C 0.78139 0.23168 0.19884 0.0
C756 C 0.72812 0.20943 0.17926 0.0
C757 C 0.70406 0.2324 0.22616 0.0
C758 C 0.70891 0.18316 0.18567 0.0
C759 C 0.69143 0.16531 0.16526 0.0
C760 C 0.69289 0.17336 0.13798 0.0
C761 C 0.71158 0.20003 0.13172 0.0
C762 C 0.72919 0.21784 0.15218 0.0
H763 H 0.7003 0.24772 0.24065 0.0
H764 H 0.69234 0.23468 0.20619 0.0
H765 H 0.69297 0.2113 0.23377 0.0
H766 H 0.70835 0.176 0.20638 0.0
H767 H 0.6778 0.14476 0.1708 0.0
H768 H 0.45525 0.645 0.28077 0.0
H769 H 0.46328 0.62258 0.32364 0.0
H770 H 0.47491 0.69963 0.36658 0.0
H771 H 0.46687 0.72219 0.32358 0.0
H772 H 0.51771 0.63982 0.35929 0.0
H773 H 0.41154 0.64086 0.40998 0.0
H774 H 0.41452 0.64503 0.37388 0.0
H775 H 0.43333 0.67346 0.39656 0.0
C776 C 0.45909 0.65705 0.2994 0.0
C777 C 0.46009 0.68525 0.29895 0.0
C778 C 0.46373 0.64425 0.32385 0.0
C779 C 0.46932 0.65934 0.34833 0.0
C780 C 0.47006 0.68746 0.34799 0.0
H781 H 0.55352 0.61104 0.49746 0.0
H782 H 0.53961 0.63712 0.45905 0.0
C783 C 0.46554 0.70033 0.32348 0.0
C784 C 0.4762 0.64597 0.37389 0.0
H785 H 0.44927 0.6253 0.4359 0.0
C786 C 0.50278 0.63669 0.37606 0.0
C787 C 0.45657 0.64175 0.39564 0.0
C788 C 0.42723 0.65057 0.39399 0.0
C789 C 0.51035 0.62338 0.39945 0.0
C790 C 0.49095 0.61947 0.42136 0.0
C791 C 0.46423 0.62858 0.41916 0.0
C792 C 0.49765 0.60504 0.44627 0.0
C793 C 0.53872 0.61309 0.40033 0.0
C794 C 0.47809 0.57879 0.45237 0.0
C795 C 0.48596 0.56386 0.47431 0.0
C796 C 0.51344 0.57503 0.4906 0.0
C797 C 0.53224 0.60187 0.48521 0.0
C798 C 0.52441 0.61674 0.46322 0.0
H799 H 0.54754 0.6127 0.37993 0.0
H800 H 0.55745 0.62708 0.4136 0.0
H801 H 0.53354 0.59188 0.40886 0.0
H802 H 0.45729 0.56944 0.43958 0.0
H803 H 0.471 0.54326 0.47807 0.0
H804 H 0.19661 0.40048 0.82925 0.0
H805 H 0.18126 0.42159 0.86828 0.0
H806 H 0.08517 0.38998 0.83947 0.0
H807 H 0.10048 0.36857 0.80028 0.0
H808 H 0.15331 0.46169 0.86926 0.0
H809 H 0.07978 0.36869 0.91821 0.0
H810 H 0.10469 0.36632 0.89178 0.0
H811 H 0.0676 0.37207 0.88342 0.0
C812 C 0.17215 0.39784 0.83121 0.0
C813 C 0.14983 0.38283 0.81141 0.0
C814 C 0.16337 0.40994 0.85367 0.0
C815 C 0.13198 0.40734 0.85718 0.0
C816 C 0.10951 0.3919 0.83772 0.0
H817 H 0.06792 0.52025 0.95673 0.0
H818 H 0.0825 0.49515 0.9202 0.0
C819 C 0.1183 0.37964 0.81522 0.0
C820 C 0.12327 0.42207 0.8804 0.0
H821 H 0.07881 0.4126 0.93524 0.0
C822 C 0.13706 0.45086 0.88368 0.0
C823 C 0.10238 0.4081 0.89962 0.0
C824 C 0.08796 0.37705 0.89832 0.0
C825 C 0.13032 0.46599 0.90517 0.0
C826 C 0.10864 0.45221 0.92386 0.0
C827 C 0.0952 0.42334 0.92088 0.0
C828 C 0.09957 0.46745 0.94646 0.0
C829 C 0.14706 0.4966 0.90791 0.0
C830 C 0.10351 0.46002 0.97365 0.0
C831 C 0.095 0.47436 0.99478 0.0
C832 C 0.08213 0.49642 0.98923 0.0
C833 C 0.07803 0.50364 0.96196 0.0
C834 C 0.08651 0.48931 0.94092 0.0
H835 H 0.16896 0.50216 0.89732 0.0
H836 H 0.13197 0.50865 0.89866 0.0
H837 H 0.15264 0.50301 0.92952 0.0
H838 H 0.11338 0.44318 0.97858 0.0
H839 H 0.09836 0.46802 1.01544 0.0
H840 H 0.64461 0.83162 0.85218 0.0
H841 H 0.61791 0.8636 0.8693 0.0
H842 H 0.65801 0.85726 0.9498 0.0
H843 H 0.68432 0.82514 0.93295 0.0
H844 H 0.59713 0.85649 0.94969 0.0
H845 H 0.66379 0.94408 0.88869 0.0
H846 H 0.64188 0.91389 0.8694 0.0
H847 H 0.67379 0.91193 0.89231 0.0
C848 C 0.64747 0.83693 0.87356 0.0
C849 C 0.6666 0.82601 0.89123 0.0
C850 C 0.63235 0.85524 0.88327 0.0
C851 C 0.63652 0.86319 0.9107 0.0
C852 C 0.65456 0.85142 0.92854 0.0
H853 H 0.62453 1.00782 0.99353 0.0
H854 H 0.6391 0.97234 0.96839 0.0
C855 C 0.66946 0.83298 0.91891 0.0
C856 C 0.62316 0.88453 0.92091 0.0
H857 H 0.62692 0.95318 0.9161 0.0
C858 C 0.60342 0.87759 0.94224 0.0
C859 C 0.63181 0.91211 0.91132 0.0
C860 C 0.65419 0.92112 0.88934 0.0
C861 C 0.59253 0.89762 0.95466 0.0
C862 C 0.60102 0.92517 0.94496 0.0
C863 C 0.62029 0.93199 0.9233 0.0
C864 C 0.59182 0.94758 0.95823 0.0
C865 C 0.57315 0.88934 0.97877 0.0
C866 C 0.56042 0.9458 0.96016 0.0
C867 C 0.55203 0.96586 0.97475 0.0
C868 C 0.57492 0.98833 0.98726 0.0
C869 C 0.60635 0.99078 0.98415 0.0
C870 C 0.61471 0.97053 0.96979 0.0
H871 H 0.57517 0.86951 0.9876 0.0
H872 H 0.58012 0.90569 0.99482 0.0
H873 H 0.54838 0.88647 0.97231 0.0
H874 H 0.5424 0.92862 0.95081 0.0
H875 H 0.52761 0.96347 0.97657 0.0
H876 H 0.94924 0.27776 0.41988 0.0
H877 H 0.97293 0.24419 0.44044 0.0
H878 H 0.92276 0.1826 0.38089 0.0
H879 H 0.89603 0.21472 0.36237 0.0
H880 H 0.91693 0.15998 0.42549 0.0
H881 H 0.04149 0.21522 0.42412 0.0
H882 H 0.02265 0.23605 0.44176 0.0
H883 H 0.01232 0.22801 0.40626 0.0
C884 C 0.94297 0.25705 0.41117 0.0
C885 C 0.92031 0.24918 0.38945 0.0
C886 C 0.95721 0.23796 0.42264 0.0
C887 C 0.95015 0.21086 0.41201 0.0
C888 C 0.92875 0.20337 0.3895 0.0
H889 H 0.05092 0.09911 0.48407 0.0
H890 H 0.03244 0.12966 0.45263 0.0
C891 C 0.91375 0.2221 0.37859 0.0
C892 C 0.96247 0.18951 0.42593 0.0
H893 H 0.02768 0.17851 0.45705 0.0
C894 C 0.94129 0.16395 0.43192 0.0
C895 C 0.99431 0.19418 0.43397 0.0
C896 C 0.01897 0.21974 0.42588 0.0
C897 C 0.95079 0.14344 0.4464 0.0
C898 C 0.98209 0.14917 0.45662 0.0
C899 C 1.00354 0.17425 0.44976 0.0
C900 C 0.9928 0.12985 0.47509 0.0
C901 C 0.92708 0.11576 0.45018 0.0
C902 C 0.97693 0.11993 0.4983 0.0
C903 C 0.98689 0.10185 0.51575 0.0
C904 C 0.01365 0.09416 0.51092 0.0
C905 C 0.03012 0.10466 0.48817 0.0
C906 C 0.01962 0.12215 0.47026 0.0
H907 H 0.90897 0.11106 0.43314 0.0
H908 H 0.93794 0.09855 0.45162 0.0
H909 H 0.91522 0.1165 0.46899 0.0
H910 H 0.95698 0.12642 0.50318 0.0
H911 H 0.97416 0.09453 0.53347 0.0
H912 H 0.36514 0.65386 0.20693 0.0
H913 H 0.31819 0.62348 0.18372 0.0
H914 H 0.28725 0.69482 0.16191 0.0
H915 H 0.33305 0.72512 0.18637 0.0
H916 H 0.24078 0.65375 0.17893 0.0
H917 H 0.30162 0.61186 0.10314 0.0
H918 H 0.31284 0.60597 0.13761 0.0
H919 H 0.32131 0.64088 0.12514 0.0
C920 C 0.34818 0.66309 0.19749 0.0
C921 C 0.35311 0.69205 0.19838 0.0
C922 C 0.32153 0.64569 0.18386 0.0
C923 C 0.29948 0.65689 0.17053 0.0
C924 C 0.30406 0.68569 0.17182 0.0
H925 H 0.15967 0.5926 0.04286 0.0
H926 H 0.20719 0.61276 0.07132 0.0
C927 C 0.33047 0.70305 0.18562 0.0
C928 C 0.27137 0.63884 0.15543 0.0
H929 H 0.24709 0.59299 0.10231 0.0
C930 C 0.24215 0.64038 0.16223 0.0
C931 C 0.27319 0.6216 0.13347 0.0
C932 C 0.30391 0.6201 0.12418 0.0
C933 C 0.21478 0.62563 0.14744 0.0
C934 C 0.21655 0.60809 0.12569 0.0
C935 C 0.24573 0.60619 0.11915 0.0
C936 C 0.18865 0.59334 0.1082 0.0
C937 C 0.18443 0.62998 0.15456 0.0
C938 C 0.16274 0.5749 0.11923 0.0
C939 C 0.13537 0.56368 0.10304 0.0
C940 C 0.13368 0.57027 0.07545 0.0
C941 C 0.16024 0.58728 0.0641 0.0
C942 C 0.18744 0.59877 0.08034 0.0
H943 H 0.18809 0.64915 0.16693 0.0
H944 H 0.16971 0.6314 0.13604 0.0
H945 H 0.17161 0.61213 0.16656 0.0
H946 H 0.16339 0.56978 0.1405 0.0
H947 H 0.11531 0.55051 0.11229 0.0
H948 H 0.27442 0.45402 0.73949 0.0
H949 H 0.31235 0.47939 0.708 0.0
H950 H 0.31288 0.4017 0.6719 0.0
H951 H 0.27461 0.37647 0.70293 0.0
H952 H 0.37101 0.47634 0.7038 0.0
H953 H 0.30451 0.44635 0.6053 0.0
H954 H 0.28631 0.44077 0.6371 0.0
H955 H 0.30581 0.41683 0.62539 0.0
C956 C 0.28239 0.44247 0.72455 0.0
C957 C 0.27179 0.41331 0.72375 0.0
C958 C 0.30408 0.45694 0.70662 0.0
C959 C 0.31533 0.44254 0.68731 0.0
C960 C 0.30416 0.41339 0.68615 0.0
H961 H 0.46376 0.47647 0.57948 0.0
H962 H 0.41885 0.45716 0.60601 0.0
C963 C 0.28244 0.39894 0.70402 0.0
C964 C 0.34014 0.45778 0.66962 0.0
H965 H 0.35947 0.46612 0.60374 0.0
C966 C 0.36832 0.47439 0.6819 0.0
C967 C 0.33674 0.45527 0.64101 0.0
C968 C 0.3066 0.43906 0.6264 0.0
C969 C 0.39347 0.48766 0.6665 0.0
C970 C 0.39029 0.48459 0.63795 0.0
C971 C 0.36194 0.46843 0.62561 0.0
C972 C 0.41661 0.4969 0.62068 0.0
C973 C 0.42364 0.504 0.681 0.0
C974 C 0.42997 0.5258 0.61953 0.0
C975 C 0.45574 0.53699 0.60427 0.0
C976 C 0.46869 0.51951 0.58982 0.0
C977 C 0.45459 0.49062 0.59039 0.0
C978 C 0.42883 0.47949 0.60556 0.0
H979 H 0.42439 0.49945 0.703 0.0
H980 H 0.44367 0.4994 0.67217 0.0
H981 H 0.42634 0.52652 0.67869 0.0
H982 H 0.42061 0.53971 0.63062 0.0
H983 H 0.46577 0.55931 0.60419 0.0
H984 H 0.70525 0.70094 0.94566 0.0
H985 H 0.74654 0.68157 0.96391 0.0
H986 H 0.78671 0.69228 0.88639 0.0
H987 H 0.74566 0.71183 0.86822 0.0
H988 H 0.76808 0.63563 0.94582 0.0
H989 H 0.85587 0.73863 0.94104 0.0
H990 H 0.81464 0.73444 0.93849 0.0
H991 H 0.83348 0.72711 0.90972 0.0
C992 C 0.72252 0.69849 0.93243 0.0
C993 C 0.72211 0.70733 0.90545 0.0
C994 C 0.74607 0.68757 0.94285 0.0
C995 C 0.76973 0.6858 0.92653 0.0
C996 C 0.76875 0.69374 0.89933 0.0
H997 H 0.94001 0.64267 0.94166 0.0
H998 H 0.89384 0.65677 0.92792 0.0
C999 C 0.74523 0.70463 0.88891 0.0
C1000 C 0.7964 0.67707 0.93823 0.0
H1001 H 0.87493 0.70007 0.95106 0.0
C1002 C 0.79144 0.64969 0.94719 0.0
C1003 C 0.82672 0.69564 0.94016 0.0
C1004 C 0.83309 0.72568 0.93209 0.0
C1005 C 0.81636 0.64005 0.95706 0.0
C1006 C 0.84678 0.65847 0.9583 0.0
C1007 C 0.85156 0.68601 0.94994 0.0
C1008 C 0.87427 0.64937 0.96699 0.0
C1009 C 0.81014 0.61008 0.96522 0.0
C1010 C 0.87863 0.64077 0.99361 0.0
C1011 C 0.90517 0.63284 1.00162 0.0
C1012 C 0.92782 0.63361 0.98314 0.0
C1013 C 0.92328 0.6423 0.95651 0.0
C1014 C 0.89682 0.65018 0.94856 0.0
H1015 H 0.78649 0.59736 0.958 0.0
H1016 H 0.82744 0.60088 0.95711 0.0
H1017 H 0.81219 0.60892 0.98764 0.0
H1018 H 0.86172 0.64051 1.00826 0.0
H1019 H 0.90819 0.62653 1.02234 0.0
H1020 H 0.39479 0.79265 0.19326 0.0
H1021 H 0.41857 0.83656 0.1709 0.0
H1022 H 0.50863 0.82328 0.18456 0.0
H1023 H 0.48499 0.77917 0.2068 0.0
H1024 H 0.47066 0.88457 0.19291 0.0
H1025 H 0.49577 0.835 0.10027 0.0
H1026 H 0.46727 0.8166 0.12302 0.0
H1027 H 0.50786 0.82301 0.13233 0.0
C1028 C 0.41966 0.79905 0.19146 0.0
C1029 C 0.438 0.78236 0.20165 0.0
C1030 C 0.4332 0.82419 0.17881 0.0
C1031 C 0.46527 0.83299 0.17585 0.0
C1032 C 0.48377 0.81669 0.18644 0.0
H1033 H 0.58466 0.96969 0.09017 0.0
H1034 H 0.56245 0.92758 0.11573 0.0
C1035 C 0.47028 0.79163 0.1993 0.0
C1036 C 0.47924 0.85906 0.16136 0.0
H1037 H 0.5131 0.88387 0.10301 0.0
C1038 C 0.47995 0.8845 0.17325 0.0
C1039 C 0.49136 0.85881 0.13577 0.0
C1040 C 0.49045 0.83194 0.12188 0.0
C1041 C 0.49294 0.90982 0.16038 0.0
C1042 C 0.50475 0.90961 0.13457 0.0
C1043 C 0.50403 0.88407 0.12275 0.0
C1044 C 0.5182 0.93556 0.11951 0.0
C1045 C 0.49458 0.93655 0.17491 0.0
C1046 C 0.50067 0.95401 0.11287 0.0
C1047 C 0.51346 0.97825 0.09849 0.0
C1048 C 0.54383 0.98423 0.09008 0.0
C1049 C 0.56121 0.96563 0.09644 0.0
C1050 C 0.54852 0.94153 0.111 0.0
H1051 H 0.49322 0.93356 0.19711 0.0
H1052 H 0.51636 0.95293 0.17119 0.0
H1053 H 0.47466 0.94398 0.1674 0.0
H1054 H 0.47698 0.94957 0.11861 0.0
H1055 H 0.49956 0.99226 0.0939 0.0
H1056 H 0.14277 0.32258 0.69698 0.0
H1057 H 0.12292 0.27646 0.67609 0.0
H1058 H 0.1101 0.23976 0.75493 0.0
H1059 H 0.13098 0.28601 0.77628 0.0
H1060 H 0.1512 0.22596 0.69487 0.0
H1061 H 0.02426 0.21052 0.6998 0.0
H1062 H 0.05096 0.24483 0.69702 0.0
H1063 H 0.05071 0.22628 0.72806 0.0
C1064 C 0.13591 0.30478 0.71004 0.0
C1065 C 0.13896 0.30821 0.73847 0.0
C1066 C 0.12438 0.27837 0.69797 0.0
C1067 C 0.11515 0.25461 0.71389 0.0
C1068 C 0.11707 0.25783 0.74222 0.0
H1069 H 0.02631 0.0821 0.6608 0.0
H1070 H 0.04607 0.12537 0.68728 0.0
C1071 C 0.12883 0.28434 0.75439 0.0
C1072 C 0.10455 0.22655 0.70067 0.0
H1073 H 0.03953 0.17544 0.67834 0.0
C1074 C 0.12679 0.21481 0.69136 0.0
C1075 C 0.07276 0.21196 0.69621 0.0
C1076 C 0.04807 0.22386 0.70568 0.0
C1077 C 0.11812 0.18891 0.6777 0.0
C1078 C 0.08619 0.17459 0.67242 0.0
C1079 C 0.06398 0.18626 0.68218 0.0
C1080 C 0.07532 0.14774 0.65664 0.0
C1081 C 0.14336 0.17696 0.66954 0.0
C1082 C 0.08485 0.1456 0.6304 0.0
C1083 C 0.0738 0.12069 0.61538 0.0
C1084 C 0.05277 0.09736 0.62608 0.0
C1085 C 0.04291 0.09957 0.65214 0.0
C1086 C 0.05412 0.12438 0.66727 0.0
H1087 H 0.16523 0.18551 0.68231 0.0
H1088 H 0.13626 0.15397 0.67109 0.0
H1089 H 0.14838 0.18253 0.64824 0.0
H1090 H 0.1002 0.16346 0.62116 0.0
H1091 H 0.08055 0.12018 0.59493 0.0
H1092 H 0.79893 0.31598 0.38921 0.0
H1093 H 0.76547 0.34629 0.39415 0.0
H1094 H 0.81234 0.37438 0.47208 0.0
H1095 H 0.84608 0.34453 0.46691 0.0
H1096 H 0.72547 0.34197 0.43413 0.0
H1097 H 0.80933 0.447 0.43722 0.0
H1098 H 0.81879 0.41678 0.42519 0.0
H1099 H 0.82042 0.42386 0.46094 0.0
C1100 C 0.80221 0.32893 0.4072 0.0
C1101 C 0.8247 0.32781 0.42782 0.0
C1102 C 0.78321 0.34621 0.40999 0.0
C1103 C 0.78666 0.36283 0.43333 0.0
C1104 C 0.80971 0.3622 0.45365 0.0
H1105 H 0.6834 0.45 0.51715 0.0
H1106 H 0.72181 0.42972 0.50007 0.0
C1107 C 0.82874 0.34497 0.45082 0.0
C1108 C 0.7644 0.37881 0.43765 0.0
H1109 H 0.75957 0.44318 0.45426 0.0
C1110 C 0.73283 0.36418 0.4381 0.0
C1111 C 0.77412 0.40777 0.44286 0.0
C1112 C 0.80748 0.42483 0.44127 0.0
C1113 C 0.71086 0.37748 0.4448 0.0
C1114 C 0.72072 0.40627 0.45083 0.0
C1115 C 0.75215 0.42109 0.44966 0.0
C1116 C 0.69894 0.42088 0.45998 0.0
C1117 C 0.67749 0.3604 0.44653 0.0
C1118 C 0.67381 0.42324 0.44284 0.0
C1119 C 0.65184 0.43488 0.4525 0.0
C1120 C 0.65473 0.4445 0.47946 0.0
C1121 C 0.68063 0.44304 0.49623 0.0
C1122 C 0.70255 0.43138 0.48655 0.0
H1123 H 0.67492 0.33775 0.44649 0.0
H1124 H 0.66793 0.36581 0.46516 0.0
H1125 H 0.66336 0.3649 0.42884 0.0
H1126 H 0.67095 0.41566 0.42211 0.0
H1127 H 0.63245 0.43617 0.43895 0.0
loop_
_geom_bond_atom_site_label_1
_geom_bond_atom_site_label_2
_geom_bond_distance
_geom_bond_site_symmetry_2
_ccdc_geom_bond_type
H0 C7 0.929 . S
H1 C10 0.930 . S
H2 C12 0.929 . S
H3 C4 0.969 . S
C4 H3 0.969 . S
C4 O5 1.550 . S
C4 H6 0.973 . S
O5 C4 1.550 . S
O5 C11 1.412 . S
H6 C4 0.973 . S
C7 H0 0.929 . S
C7 C8 1.400 . S
C7 C9 1.364 . S
C8 C7 1.400 . S
C8 C12 1.377 . S
C9 C7 1.364 . S
C9 C10 1.374 . S
C10 H1 0.930 . S
C10 C9 1.374 . S
C10 C11 1.383 . S
C11 O5 1.412 . S
C11 C10 1.383 . S
C11 C12 1.394 . S
C12 H2 0.929 . S
C12 C8 1.377 . S
C12 C11 1.394 . S
H13 C20 0.929 . S
H14 C23 0.930 . S
H15 C25 0.929 . S
H16 C17 0.969 . S
C17 H16 0.969 . S
C17 O18 1.550 . S
C17 H19 0.973 . S
O18 C17 1.550 . S
O18 C24 1.412 . S
H19 C17 0.973 . S
C20 H13 0.929 . S
C20 C21 1.400 . S
C20 C22 1.364 . S
C21 C20 1.400 . S
C21 C25 1.377 . S
C22 C20 1.364 . S
C22 C23 1.374 . S
C23 H14 0.930 . S
C23 C22 1.374 . S
C23 C24 1.383 . S
C24 O18 1.412 . S
C24 C23 1.383 . S
C24 C25 1.394 . S
C25 H15 0.929 . S
C25 C21 1.377 . S
C25 C24 1.394 . S
H26 C33 0.929 . S
H27 C36 0.930 . S
H28 C38 0.929 . S
H29 C30 0.969 . S
C30 H29 0.969 . S
C30 O31 1.550 . S
C30 H32 0.973 . S
O31 C30 1.550 . S
O31 C37 1.412 . S
H32 C30 0.973 . S
C33 H26 0.929 . S
C33 C34 1.400 . S
C33 C35 1.364 . S
C34 C33 1.400 . S
C34 C38 1.377 . S
C35 C33 1.364 . S
C35 C36 1.374 . S
C36 H27 0.930 . S
C36 C35 1.374 . S
C36 C37 1.383 . S
C37 O31 1.412 . S
C37 C36 1.383 . S
C37 C38 1.394 . S
C38 H28 0.929 . S
C38 C34 1.377 . S
C38 C37 1.394 . S
H39 C46 0.929 . S
H40 C49 0.930 . S
H41 C51 0.929 . S
H42 C43 0.969 . S
C43 H42 0.969 . S
C43 O44 1.550 . S
C43 H45 0.973 . S
O44 C43 1.550 . S
O44 C50 1.412 . S
H45 C43 0.973 . S
C46 H39 0.929 . S
C46 C47 1.400 . S
C46 C48 1.364 . S
C47 C46 1.400 . S
C47 C51 1.377 . S
C48 C46 1.364 . S
C48 C49 1.374 . S
C49 H40 0.930 . S
C49 C48 1.374 . S
C49 C50 1.383 . S
C50 O44 1.412 . S
C50 C49 1.383 . S
C50 C51 1.394 . S
C51 H41 0.929 . S
C51 C47 1.377 . S
C51 C50 1.394 . S
H52 C59 0.929 . S
H53 C62 0.930 . S
H54 C64 0.929 . S
H55 C56 0.969 . S
C56 H55 0.969 . S
C56 O57 1.550 . S
C56 H58 0.973 . S
O57 C56 1.550 . S
O57 C63 1.412 . S
H58 C56 0.973 . S
C59 H52 0.929 . S
C59 C60 1.400 . S
C59 C61 1.364 . S
C60 C59 1.400 . S
C60 C64 1.377 . S
C61 C59 1.364 . S
C61 C62 1.374 . S
C62 H53 0.930 . S
C62 C61 1.374 . S
C62 C63 1.383 . S
C63 O57 1.412 . S
C63 C62 1.383 . S
C63 C64 1.394 . S
C64 H54 0.929 . S
C64 C60 1.377 . S
C64 C63 1.394 . S
H65 C72 0.929 . S
H66 C75 0.930 . S
H67 C77 0.929 . S
H68 C69 0.969 . S
C69 H68 0.969 . S
C69 O70 1.550 . S
C69 H71 0.973 . S
O70 C69 1.550 . S
O70 C76 1.412 . S
H71 C69 0.973 . S
C72 H65 0.929 . S
C72 C73 1.400 . S
C72 C74 1.364 . S
C73 C72 1.400 . S
C73 C77 1.377 . S
C74 C72 1.364 . S
C74 C75 1.374 . S
C75 H66 0.930 . S
C75 C74 1.374 . S
C75 C76 1.383 . S
C76 O70 1.412 . S
C76 C75 1.383 . S
C76 C77 1.394 . S
C77 H67 0.929 . S
C77 C73 1.377 . S
C77 C76 1.394 . S
H78 C85 0.929 . S
H79 C88 0.930 . S
H80 C90 0.929 . S
H81 C82 0.969 . S
C82 H81 0.969 . S
C82 O83 1.550 . S
C82 H84 0.973 . S
O83 C82 1.550 . S
O83 C89 1.412 . S
H84 C82 0.973 . S
C85 H78 0.929 . S
C85 C86 1.400 . S
C85 C87 1.364 . S
C86 C85 1.400 . S
C86 C90 1.377 . S
C87 C85 1.364 . S
C87 C88 1.374 . S
C88 H79 0.930 . S
C88 C87 1.374 . S
C88 C89 1.383 . S
C89 O83 1.412 . S
C89 C88 1.383 . S
C89 C90 1.394 . S
C90 H80 0.929 . S
C90 C86 1.377 . S
C90 C89 1.394 . S
H91 C98 0.929 . S
H92 C101 0.930 . S
H93 C103 0.929 . S
H94 C95 0.969 . S
C95 H94 0.969 . S
C95 O96 1.550 . S
C95 H97 0.973 . S
O96 C95 1.550 . S
O96 C102 1.412 . S
H97 C95 0.973 . S
C98 H91 0.929 . S
C98 C99 1.400 . S
C98 C100 1.364 . S
C99 C98 1.400 . S
C99 C103 1.377 . S
C100 C98 1.364 . S
C100 C101 1.374 . S
C101 H92 0.930 . S
C101 C100 1.374 . S
C101 C102 1.383 . S
C102 O96 1.412 . S
C102 C101 1.383 . S
C102 C103 1.394 . S
C103 H93 0.929 . S
C103 C99 1.377 . S
C103 C102 1.394 . S
Tb104 C106 2.809 1_545 S
Tb104 O124 2.484 1_545 S
Tb104 O125 2.440 . S
Tb104 O126 2.658 1_655 S
Tb104 O127 2.409 1_655 S
Tb104 O128 2.378 1_645 S
Tb104 O132 2.325 1_545 S
Tb104 O135 2.341 . S
Tb105 C115 2.809 . S
Tb105 O126 2.325 . S
Tb105 O129 2.341 1_545 S
Tb105 O130 2.484 . S
Tb105 O131 2.440 . S
Tb105 O132 2.658 1_445 S
Tb105 O133 2.409 1_545 S
Tb105 O134 2.378 . S
C106 Tb104 2.809 1_565 S
C106 C107 1.514 . S
C106 O124 1.248 . S
C106 O125 1.266 1_565 S
C107 C106 1.514 . S
C107 C108 1.359 . S
C107 C112 1.348 . S
C108 C107 1.359 . S
C108 C109 1.380 . S
C108 H136 0.929 . S
C109 C108 1.380 . S
C109 C110 1.347 . S
C109 H137 0.931 . S
C110 C109 1.347 . S
C110 C111 1.369 . S
C111 C110 1.369 . S
C111 C112 1.408 . S
C111 H138 0.930 . S
C112 C107 1.348 . S
C112 C111 1.408 . S
C112 H139 0.930 . S
C113 O126 1.281 . S
C113 O127 1.254 . S
C114 O128 1.236 . S
C114 O129 1.266 . S
C115 Tb105 2.809 . S
C115 C116 1.514 . S
C115 O130 1.248 . S
C115 O131 1.266 . S
C116 C115 1.514 . S
C116 C117 1.359 . S
C116 C121 1.348 . S
C117 C116 1.359 . S
C117 C118 1.380 . S
C117 H140 0.929 . S
C118 C117 1.380 . S
C118 C119 1.347 . S
C118 H141 0.931 . S
C119 C118 1.347 . S
C119 C120 1.369 . S
C120 C119 1.369 . S
C120 C121 1.408 . S
C120 H142 0.930 . S
C121 C116 1.348 . S
C121 C120 1.408 . S
C121 H143 0.930 . S
C122 O132 1.281 . S
C122 O133 1.254 1_655 S
C123 O134 1.236 1_655 S
C123 O135 1.266 . S
O124 Tb104 2.484 1_565 S
O124 C106 1.248 . S
O125 Tb104 2.440 . S
O125 C106 1.266 1_545 S
O126 Tb104 2.658 1_455 S
O126 Tb105 2.325 . S
O126 C113 1.281 . S
O127 Tb104 2.409 1_455 S
O127 C113 1.254 . S
O128 Tb104 2.378 1_465 S
O128 C114 1.236 . S
O129 Tb105 2.341 1_565 S
O129 C114 1.266 . S
O130 Tb105 2.484 . S
O130 C115 1.248 . S
O131 Tb105 2.440 . S
O131 C115 1.266 . S
O132 Tb104 2.325 1_565 S
O132 Tb105 2.658 1_665 S
O132 C122 1.281 . S
O133 Tb105 2.409 1_565 S
O133 C122 1.254 1_455 S
O134 Tb105 2.378 . S
O134 C123 1.236 1_455 S
O135 Tb104 2.341 . S
O135 C123 1.266 . S
H136 C108 0.929 . S
H137 C109 0.931 . S
H138 C111 0.930 . S
H139 C112 0.930 . S
H140 C117 0.929 . S
H141 C118 0.931 . S
H142 C120 0.930 . S
H143 C121 0.930 . S
Tb144 C146 2.809 . S
Tb144 O164 2.484 . S
Tb144 O165 2.440 . S
Tb144 O166 2.658 1_545 S
Tb144 O167 2.409 1_545 S
Tb144 O168 2.378 . S
Tb144 O172 2.325 1_554 S
Tb144 O175 2.341 1_545 S
Tb145 C155 2.809 1_545 S
Tb145 O166 2.325 1_546 S
Tb145 O169 2.341 1_556 S
Tb145 O170 2.484 1_545 S
Tb145 O171 2.440 1_545 S
Tb145 O172 2.658 . S
Tb145 O173 2.409 . S
Tb145 O174 2.378 1_545 S
C146 Tb144 2.809 . S
C146 C147 1.514 . S
C146 O164 1.248 . S
C146 O165 1.266 . S
C147 C146 1.514 . S
C147 C148 1.359 . S
C147 C152 1.348 . S
C148 C147 1.359 . S
C148 C149 1.380 . S
C148 H176 0.929 . S
C149 C148 1.380 . S
C149 C150 1.347 . S
C149 H177 0.931 . S
C150 C149 1.347 . S
C150 C151 1.369 . S
C151 C150 1.369 . S
C151 C152 1.408 . S
C151 H178 0.930 . S
C152 C147 1.348 . S
C152 C151 1.408 . S
C152 H179 0.930 . S
C153 O166 1.281 . S
C153 O167 1.254 . S
C154 O168 1.236 . S
C154 O169 1.266 . S
C155 Tb145 2.809 1_565 S
C155 C156 1.514 . S
C155 O170 1.248 . S
C155 O171 1.266 . S
C156 C155 1.514 . S
C156 C157 1.359 . S
C156 C161 1.348 . S
C157 C156 1.359 . S
C157 C158 1.380 . S
C157 H180 0.929 . S
C158 C157 1.380 . S
C158 C159 1.347 . S
C158 H181 0.931 . S
C159 C158 1.347 . S
C159 C160 1.369 . S
C160 C159 1.369 . S
C160 C161 1.408 . S
C160 H182 0.930 . S
C161 C156 1.348 . S
C161 C160 1.408 . S
C161 H183 0.930 . S
C162 O172 1.280 . S
C162 O173 1.254 . S
C163 O174 1.236 . S
C163 O175 1.266 1_556 S
O164 Tb144 2.484 . S
O164 C146 1.248 . S
O165 Tb144 2.440 . S
O165 C146 1.266 . S
O166 Tb144 2.658 1_565 S
O166 Tb145 2.325 1_564 S
O166 C153 1.281 . S
O167 Tb144 2.409 1_565 S
O167 C153 1.254 . S
O168 Tb144 2.378 . S
O168 C154 1.236 . S
O169 Tb145 2.341 1_554 S
O169 C154 1.266 . S
O170 Tb145 2.484 1_565 S
O170 C155 1.248 . S
O171 Tb145 2.440 1_565 S
O171 C155 1.266 . S
O172 Tb144 2.325 1_556 S
O172 Tb145 2.658 . S
O172 C162 1.280 . S
O173 Tb145 2.409 . S
O173 C162 1.254 . S
O174 Tb145 2.378 1_565 S
O174 C163 1.236 . S
O175 Tb144 2.341 1_565 S
O175 C163 1.266 1_554 S
H176 C148 0.929 . S
H177 C149 0.931 . S
H178 C151 0.930 . S
H179 C152 0.930 . S
H180 C157 0.929 . S
H181 C158 0.931 . S
H182 C160 0.930 . S
H183 C161 0.930 . S
Tb184 C186 2.809 . S
Tb184 O204 2.484 . S
Tb184 O205 2.440 . S
Tb184 O206 2.658 . S
Tb184 O207 2.409 . S
Tb184 O208 2.378 . S
Tb184 O212 2.325 . S
Tb184 O215 2.341 . S
Tb185 C195 2.809 . S
Tb185 O206 2.325 . S
Tb185 O209 2.341 . S
Tb185 O210 2.484 . S
Tb185 O211 2.440 . S
Tb185 O212 2.658 . S
Tb185 O213 2.409 . S
Tb185 O214 2.378 . S
C186 Tb184 2.809 . S
C186 C187 1.514 . S
C186 O204 1.248 . S
C186 O205 1.266 . S
C187 C186 1.514 . S
C187 C188 1.359 . S
C187 C192 1.348 . S
C188 C187 1.359 . S
C188 C189 1.380 . S
C188 H216 0.929 . S
C189 C188 1.380 . S
C189 C190 1.347 . S
C189 H217 0.931 . S
C190 C189 1.347 . S
C190 C191 1.369 . S
C191 C190 1.369 . S
C191 C192 1.408 . S
C191 H218 0.930 . S
C192 C187 1.348 . S
C192 C191 1.408 . S
C192 H219 0.930 . S
C193 O206 1.281 . S
C193 O207 1.254 . S
C194 O208 1.236 . S
C194 O209 1.266 . S
C195 Tb185 2.809 . S
C195 C196 1.514 . S
C195 O210 1.248 . S
C195 O211 1.266 . S
C196 C195 1.514 . S
C196 C197 1.359 . S
C196 C201 1.348 . S
C197 C196 1.359 . S
C197 C198 1.380 . S
C197 H220 0.929 . S
C198 C197 1.380 . S
C198 C199 1.347 . S
C198 H221 0.931 . S
C199 C198 1.347 . S
C199 C200 1.369 . S
C200 C199 1.369 . S
C200 C201 1.408 . S
C200 H222 0.930 . S
C201 C196 1.348 . S
C201 C200 1.408 . S
C201 H223 0.930 . S
C202 O212 1.281 . S
C202 O213 1.254 . S
C203 O214 1.236 . S
C203 O215 1.266 . S
O204 Tb184 2.484 . S
O204 C186 1.248 . S
O205 Tb184 2.440 . S
O205 C186 1.266 . S
O206 Tb184 2.658 . S
O206 Tb185 2.325 . S
O206 C193 1.281 . S
O207 Tb184 2.409 . S
O207 C193 1.254 . S
O208 Tb184 2.378 . S
O208 C194 1.236 . S
O209 Tb185 2.341 . S
O209 C194 1.266 . S
O210 Tb185 2.484 . S
O210 C195 1.248 . S
O211 Tb185 2.440 . S
O211 C195 1.266 . S
O212 Tb184 2.325 . S
O212 Tb185 2.658 . S
O212 C202 1.281 . S
O213 Tb185 2.409 . S
O213 C202 1.254 . S
O214 Tb185 2.378 . S
O214 C203 1.236 . S
O215 Tb184 2.341 . S
O215 C203 1.266 . S
H216 C188 0.929 . S
H217 C189 0.931 . S
H218 C191 0.930 . S
H219 C192 0.930 . S
H220 C197 0.929 . S
H221 C198 0.931 . S
H222 C200 0.930 . S
H223 C201 0.930 . S
Tb224 C226 2.809 1_455 S
Tb224 O244 2.484 1_455 S
Tb224 O245 2.440 . S
Tb224 O246 2.658 . S
Tb224 O247 2.409 . S
Tb224 O248 2.378 . S
Tb224 O252 2.325 1_455 S
Tb224 O255 2.341 . S
Tb225 C235 2.809 . S
Tb225 O246 2.325 . S
Tb225 O249 2.341 1_455 S
Tb225 O250 2.484 . S
Tb225 O251 2.440 . S
Tb225 O252 2.658 1_455 S
Tb225 O253 2.409 1_455 S
Tb225 O254 2.378 . S
C226 Tb224 2.809 1_655 S
C226 C227 1.514 . S
C226 O244 1.248 . S
C226 O245 1.266 1_655 S
C227 C226 1.514 . S
C227 C228 1.359 . S
C227 C232 1.348 . S
C228 C227 1.359 . S
C228 C229 1.380 1_554 S
C228 H256 0.929 . S
C229 C228 1.380 1_556 S
C229 C230 1.348 . S
C229 H257 0.931 . S
C230 C229 1.348 . S
C230 C231 1.366 1_556 S
C231 C230 1.366 1_554 S
C231 C232 1.408 . S
C231 H258 0.930 . S
C232 C227 1.348 . S
C232 C231 1.408 . S
C232 H259 0.930 1_655 S
C233 O246 1.281 . S
C233 O247 1.254 . S
C234 O248 1.236 1_655 S
C234 O249 1.266 . S
C235 Tb225 2.809 . S
C235 C236 1.514 . S
C235 O250 1.248 . S
C235 O251 1.266 . S
C236 C235 1.514 . S
C236 C237 1.359 . S
C236 C241 1.348 . S
C237 C236 1.359 . S
C237 C238 1.380 . S
C237 H260 0.929 . S
C238 C237 1.380 . S
C238 C239 1.347 . S
C238 H261 0.931 . S
C239 C238 1.347 . S
C239 C240 1.369 . S
C240 C239 1.369 . S
C240 C241 1.408 . S
C240 H262 0.930 . S
C241 C236 1.348 . S
C241 C240 1.408 . S
C241 H263 0.930 . S
C242 O252 1.281 . S
C242 O253 1.254 . S
C243 O254 1.236 . S
C243 O255 1.266 . S
O244 Tb224 2.484 1_655 S
O244 C226 1.248 . S
O245 Tb224 2.440 . S
O245 C226 1.266 1_455 S
O246 Tb224 2.658 . S
O246 Tb225 2.325 . S
O246 C233 1.281 . S
O247 Tb224 2.409 . S
O247 C233 1.254 . S
O248 Tb224 2.378 . S
O248 C234 1.236 1_455 S
O249 Tb225 2.341 1_655 S
O249 C234 1.266 . S
O250 Tb225 2.484 . S
O250 C235 1.248 . S
O251 Tb225 2.440 . S
O251 C235 1.266 . S
O252 Tb224 2.325 1_655 S
O252 Tb225 2.658 1_655 S
O252 C242 1.281 . S
O253 Tb225 2.409 1_655 S
O253 C242 1.254 . S
O254 Tb225 2.378 . S
O254 C243 1.236 . S
O255 Tb224 2.341 . S
O255 C243 1.266 . S
H256 C228 0.929 . S
H257 C229 0.931 . S
H258 C231 0.930 . S
H259 C232 0.930 1_455 S
H260 C237 0.929 . S
H261 C238 0.931 . S
H262 C240 0.930 . S
H263 C241 0.930 . S
H264 C272 0.929 . S
H265 C274 0.930 . S
H266 C276 0.930 . S
H267 C279 0.929 . S
H268 C282 0.930 . S
H269 C284 0.960 . S
H270 C284 0.960 . S
H271 C284 0.960 . S
C272 H264 0.929 . S
C272 C273 1.377 . S
C272 C274 1.384 . S
C273 C272 1.377 . S
C273 C279 1.390 . S
C274 H265 0.930 . S
C274 C272 1.384 . S
C274 C275 1.372 . S
C275 C274 1.372 . S
C275 C276 1.400 . S
C275 C280 1.490 . S
C276 H266 0.930 . S
C276 C275 1.400 . S
C276 C279 1.386 . S
H277 C293 0.930 . S
H278 C294 0.931 . S
C279 H267 0.929 . S
C279 C273 1.390 . S
C279 C276 1.386 . S
C280 C275 1.490 . S
C280 C282 1.395 . S
C280 C283 1.403 . S
H281 C287 0.930 . S
C282 H268 0.930 . S
C282 C280 1.395 . S
C282 C285 1.403 . S
C283 C280 1.403 . S
C283 C284 1.524 . S
C283 C287 1.400 . S
C284 H269 0.960 . S
C284 H270 0.960 . S
C284 H271 0.960 . S
C284 C283 1.524 . S
C285 C282 1.403 . S
C285 C286 1.392 . S
C285 C289 1.495 . S
C286 C285 1.392 . S
C286 C287 1.385 . S
C286 C288 1.478 . S
C287 H281 0.930 . S
C287 C283 1.400 . S
C287 C286 1.385 . S
C288 C286 1.478 . S
C288 C290 1.381 . S
C288 C294 1.383 . S
C289 C285 1.495 . S
C289 H295 0.959 . S
C289 H296 0.961 . S
C289 H297 0.960 . S
C290 C288 1.381 . S
C290 C291 1.394 . S
C290 H298 0.930 . S
C291 C290 1.394 . S
C291 C292 1.383 . S
C291 H299 0.929 . S
C292 C291 1.383 . S
C292 C293 1.377 . S
C293 H277 0.930 . S
C293 C292 1.377 . S
C293 C294 1.379 . S
C294 H278 0.931 . S
C294 C288 1.383 . S
C294 C293 1.379 . S
H295 C289 0.959 . S
H296 C289 0.961 . S
H297 C289 0.960 . S
H298 C290 0.930 . S
H299 C291 0.929 . S
H300 C308 0.929 . S
H301 C310 0.930 . S
H302 C312 0.930 . S
H303 C315 0.929 . S
H304 C318 0.930 . S
H305 C320 0.960 . S
H306 C320 0.960 . S
H307 C320 0.960 . S
C308 H300 0.929 . S
C308 C309 1.377 . S
C308 C310 1.384 . S
C309 C308 1.377 . S
C309 C315 1.390 . S
C310 H301 0.930 . S
C310 C308 1.384 . S
C310 C311 1.372 . S
C311 C310 1.372 . S
C311 C312 1.400 . S
C311 C316 1.490 . S
C312 H302 0.930 . S
C312 C311 1.400 . S
C312 C315 1.386 . S
H313 C329 0.930 . S
H314 C330 0.931 . S
C315 H303 0.929 . S
C315 C309 1.390 . S
C315 C312 1.386 . S
C316 C311 1.490 . S
C316 C318 1.395 . S
C316 C319 1.403 . S
H317 C323 0.930 . S
C318 H304 0.930 . S
C318 C316 1.395 . S
C318 C321 1.403 . S
C319 C316 1.403 . S
C319 C320 1.524 . S
C319 C323 1.400 . S
C320 H305 0.960 . S
C320 H306 0.960 . S
C320 H307 0.960 . S
C320 C319 1.524 . S
C321 C318 1.403 . S
C321 C322 1.392 . S
C321 C325 1.495 . S
C322 C321 1.392 . S
C322 C323 1.385 . S
C322 C324 1.478 . S
C323 H317 0.930 . S
C323 C319 1.400 . S
C323 C322 1.385 . S
C324 C322 1.478 . S
C324 C326 1.381 . S
C324 C330 1.383 . S
C325 C321 1.495 . S
C325 H331 0.959 . S
C325 H332 0.961 . S
C325 H333 0.960 . S
C326 C324 1.381 . S
C326 C327 1.394 . S
C326 H334 0.930 . S
C327 C326 1.394 . S
C327 C328 1.383 . S
C327 H335 0.929 . S
C328 C327 1.383 . S
C328 C329 1.377 . S
C329 H313 0.930 . S
C329 C328 1.377 . S
C329 C330 1.379 . S
C330 H314 0.931 . S
C330 C324 1.383 . S
C330 C329 1.379 . S
H331 C325 0.959 . S
H332 C325 0.961 . S
H333 C325 0.960 . S
H334 C326 0.930 . S
H335 C327 0.929 . S
H336 C344 0.929 . S
H337 C346 0.930 . S
H338 C348 0.930 . S
H339 C351 0.929 . S
H340 C354 0.930 . S
H341 C356 0.960 . S
H342 C356 0.960 . S
H343 C356 0.960 . S
C344 H336 0.929 . S
C344 C345 1.377 . S
C344 C346 1.384 . S
C345 C344 1.377 . S
C345 C351 1.390 . S
C346 H337 0.930 . S
C346 C344 1.384 . S
C346 C347 1.372 . S
C347 C346 1.372 . S
C347 C348 1.400 . S
C347 C352 1.490 . S
C348 H338 0.930 . S
C348 C347 1.400 . S
C348 C351 1.386 . S
H349 C365 0.930 . S
H350 C366 0.931 . S
C351 H339 0.929 . S
C351 C345 1.390 . S
C351 C348 1.386 . S
C352 C347 1.490 . S
C352 C354 1.395 . S
C352 C355 1.403 . S
H353 C359 0.930 . S
C354 H340 0.930 . S
C354 C352 1.395 . S
C354 C357 1.403 . S
C355 C352 1.403 . S
C355 C356 1.524 . S
C355 C359 1.400 . S
C356 H341 0.960 . S
C356 H342 0.960 . S
C356 H343 0.960 . S
C356 C355 1.524 . S
C357 C354 1.403 . S
C357 C358 1.392 . S
C357 C361 1.495 . S
C358 C357 1.392 . S
C358 C359 1.385 . S
C358 C360 1.478 . S
C359 H353 0.930 . S
C359 C355 1.400 . S
C359 C358 1.385 . S
C360 C358 1.478 . S
C360 C362 1.381 . S
C360 C366 1.383 . S
C361 C357 1.495 . S
C361 H367 0.959 . S
C361 H368 0.961 . S
C361 H369 0.960 . S
C362 C360 1.381 . S
C362 C363 1.394 . S
C362 H370 0.930 . S
C363 C362 1.394 . S
C363 C364 1.383 . S
C363 H371 0.929 . S
C364 C363 1.383 . S
C364 C365 1.377 . S
C365 H349 0.930 . S
C365 C364 1.377 . S
C365 C366 1.379 . S
C366 H350 0.931 . S
C366 C360 1.383 . S
C366 C365 1.379 . S
H367 C361 0.959 . S
H368 C361 0.961 . S
H369 C361 0.960 . S
H370 C362 0.930 . S
H371 C363 0.929 . S
H372 C380 0.929 . S
H373 C382 0.930 . S
H374 C384 0.930 . S
H375 C387 0.929 . S
H376 C390 0.930 . S
H377 C392 0.960 . S
H378 C392 0.960 . S
H379 C392 0.960 . S
C380 H372 0.929 . S
C380 C381 1.377 . S
C380 C382 1.384 . S
C381 C380 1.377 . S
C381 C387 1.390 . S
C382 H373 0.930 . S
C382 C380 1.384 . S
C382 C383 1.372 . S
C383 C382 1.372 . S
C383 C384 1.400 . S
C383 C388 1.490 . S
C384 H374 0.930 . S
C384 C383 1.400 . S
C384 C387 1.386 . S
H385 C401 0.930 1_455 S
H386 C402 0.931 . S
C387 H375 0.929 . S
C387 C381 1.390 . S
C387 C384 1.386 . S
C388 C383 1.490 . S
C388 C390 1.395 . S
C388 C391 1.403 . S
H389 C395 0.930 . S
C390 H376 0.930 . S
C390 C388 1.395 . S
C390 C393 1.403 . S
C391 C388 1.403 . S
C391 C392 1.524 . S
C391 C395 1.400 . S
C392 H377 0.960 . S
C392 H378 0.960 . S
C392 H379 0.960 . S
C392 C391 1.524 . S
C393 C390 1.403 . S
C393 C394 1.392 . S
C393 C397 1.495 . S
C394 C393 1.392 . S
C394 C395 1.385 . S
C394 C396 1.478 . S
C395 H389 0.930 . S
C395 C391 1.400 . S
C395 C394 1.385 . S
C396 C394 1.478 . S
C396 C398 1.381 . S
C396 C402 1.383 . S
C397 C393 1.495 . S
C397 H403 0.959 . S
C397 H404 0.961 . S
C397 H405 0.960 . S
C398 C396 1.381 . S
C398 C399 1.394 . S
C398 H406 0.930 . S
C399 C398 1.394 . S
C399 C400 1.383 . S
C399 H407 0.929 . S
C400 C399 1.383 . S
C400 C401 1.377 . S
C401 H385 0.930 1_655 S
C401 C400 1.377 . S
C401 C402 1.379 . S
C402 H386 0.931 . S
C402 C396 1.383 . S
C402 C401 1.379 . S
H403 C397 0.959 . S
H404 C397 0.961 . S
H405 C397 0.960 . S
H406 C398 0.930 . S
H407 C399 0.929 . S
H408 C416 0.929 . S
H409 C418 0.930 . S
H410 C420 0.930 . S
H411 C423 0.929 . S
H412 C426 0.930 . S
H413 C428 0.960 . S
H414 C428 0.960 . S
H415 C428 0.960 . S
C416 H408 0.929 . S
C416 C417 1.377 . S
C416 C418 1.384 . S
C417 C416 1.377 . S
C417 C423 1.390 . S
C418 H409 0.930 . S
C418 C416 1.384 . S
C418 C419 1.372 . S
C419 C418 1.372 . S
C419 C420 1.400 . S
C419 C424 1.490 . S
C420 H410 0.930 . S
C420 C419 1.400 . S
C420 C423 1.386 . S
H421 C437 0.930 . S
H422 C438 0.931 . S
C423 H411 0.929 . S
C423 C417 1.390 . S
C423 C420 1.386 . S
C424 C419 1.490 . S
C424 C426 1.395 . S
C424 C427 1.403 . S
H425 C431 0.930 . S
C426 H412 0.930 . S
C426 C424 1.395 . S
C426 C429 1.403 . S
C427 C424 1.403 . S
C427 C428 1.524 . S
C427 C431 1.400 . S
C428 H413 0.960 . S
C428 H414 0.960 . S
C428 H415 0.960 . S
C428 C427 1.524 . S
C429 C426 1.403 . S
C429 C430 1.392 . S
C429 C433 1.495 . S
C430 C429 1.392 . S
C430 C431 1.385 . S
C430 C432 1.478 . S
C431 H425 0.930 . S
C431 C427 1.400 . S
C431 C430 1.385 . S
C432 C430 1.478 . S
C432 C434 1.381 . S
C432 C438 1.383 . S
C433 C429 1.495 . S
C433 H439 0.959 . S
C433 H440 0.961 . S
C433 H441 0.960 . S
C434 C432 1.381 . S
C434 C435 1.394 . S
C434 H442 0.930 . S
C435 C434 1.394 . S
C435 C436 1.383 . S
C435 H443 0.929 . S
C436 C435 1.383 . S
C436 C437 1.377 . S
C437 H421 0.930 . S
C437 C436 1.377 . S
C437 C438 1.379 . S
C438 H422 0.931 . S
C438 C432 1.383 . S
C438 C437 1.379 . S
H439 C433 0.959 . S
H440 C433 0.961 . S
H441 C433 0.960 . S
H442 C434 0.930 . S
H443 C435 0.929 . S
H444 C452 0.929 . S
H445 C454 0.930 . S
H446 C456 0.930 . S
H447 C459 0.929 . S
H448 C462 0.930 . S
H449 C464 0.960 . S
H450 C464 0.960 . S
H451 C464 0.960 . S
C452 H444 0.929 . S
C452 C453 1.377 . S
C452 C454 1.384 . S
C453 C452 1.377 . S
C453 C459 1.390 . S
C454 H445 0.930 . S
C454 C452 1.384 . S
C454 C455 1.372 . S
C455 C454 1.372 . S
C455 C456 1.400 . S
C455 C460 1.490 . S
C456 H446 0.930 . S
C456 C455 1.400 . S
C456 C459 1.386 . S
H457 C473 0.930 . S
H458 C474 0.931 . S
C459 H447 0.929 . S
C459 C453 1.390 . S
C459 C456 1.386 . S
C460 C455 1.490 . S
C460 C462 1.395 . S
C460 C463 1.403 . S
H461 C467 0.930 . S
C462 H448 0.930 . S
C462 C460 1.395 . S
C462 C465 1.403 . S
C463 C460 1.403 . S
C463 C464 1.524 . S
C463 C467 1.400 . S
C464 H449 0.960 . S
C464 H450 0.960 . S
C464 H451 0.960 . S
C464 C463 1.524 . S
C465 C462 1.403 . S
C465 C466 1.392 . S
C465 C469 1.495 . S
C466 C465 1.392 . S
C466 C467 1.385 . S
C466 C468 1.478 . S
C467 H461 0.930 . S
C467 C463 1.400 . S
C467 C466 1.385 . S
C468 C466 1.478 . S
C468 C470 1.381 . S
C468 C474 1.383 . S
C469 C465 1.495 . S
C469 H475 0.959 . S
C469 H476 0.961 . S
C469 H477 0.960 . S
C470 C468 1.381 . S
C470 C471 1.394 . S
C470 H478 0.930 . S
C471 C470 1.394 . S
C471 C472 1.383 . S
C471 H479 0.929 . S
C472 C471 1.383 . S
C472 C473 1.377 . S
C473 H457 0.930 . S
C473 C472 1.377 . S
C473 C474 1.379 . S
C474 H458 0.931 . S
C474 C468 1.383 . S
C474 C473 1.379 . S
H475 C469 0.959 . S
H476 C469 0.961 . S
H477 C469 0.960 . S
H478 C470 0.930 . S
H479 C471 0.929 . S
H480 C488 0.929 . S
H481 C490 0.930 . S
H482 C492 0.930 . S
H483 C495 0.929 . S
H484 C498 0.930 . S
H485 C500 0.960 . S
H486 C500 0.960 . S
H487 C500 0.960 . S
C488 H480 0.929 . S
C488 C489 1.377 . S
C488 C490 1.384 . S
C489 C488 1.377 . S
C489 C495 1.390 . S
C490 H481 0.930 . S
C490 C488 1.384 . S
C490 C491 1.372 . S
C491 C490 1.372 . S
C491 C492 1.400 . S
C491 C496 1.490 . S
C492 H482 0.930 . S
C492 C491 1.400 . S
C492 C495 1.386 . S
H493 C509 0.930 . S
H494 C510 0.931 . S
C495 H483 0.929 . S
C495 C489 1.390 . S
C495 C492 1.386 . S
C496 C491 1.490 . S
C496 C498 1.395 . S
C496 C499 1.403 . S
H497 C503 0.930 . S
C498 H484 0.930 . S
C498 C496 1.395 . S
C498 C501 1.403 . S
C499 C496 1.403 . S
C499 C500 1.524 . S
C499 C503 1.400 . S
C500 H485 0.960 . S
C500 H486 0.960 . S
C500 H487 0.960 . S
C500 C499 1.524 . S
C501 C498 1.403 . S
C501 C502 1.392 . S
C501 C505 1.495 . S
C502 C501 1.392 . S
C502 C503 1.385 . S
C502 C504 1.478 . S
C503 H497 0.930 . S
C503 C499 1.400 . S
C503 C502 1.385 . S
C504 C502 1.478 . S
C504 C506 1.381 . S
C504 C510 1.383 . S
C505 C501 1.495 . S
C505 H511 0.959 . S
C505 H512 0.961 . S
C505 H513 0.960 . S
C506 C504 1.381 . S
C506 C507 1.394 . S
C506 H514 0.930 . S
C507 C506 1.394 . S
C507 C508 1.383 1_556 S
C507 H515 0.929 . S
C508 C507 1.383 1_554 S
C508 C509 1.377 . S
C509 H493 0.930 . S
C509 C508 1.377 . S
C509 C510 1.379 1_554 S
C510 H494 0.931 . S
C510 C504 1.383 . S
C510 C509 1.379 1_556 S
H511 C505 0.959 . S
H512 C505 0.961 . S
H513 C505 0.960 . S
H514 C506 0.930 . S
H515 C507 0.929 . S
H516 C524 0.929 . S
H517 C526 0.930 . S
H518 C528 0.930 . S
H519 C531 0.929 . S
H520 C534 0.930 . S
H521 C536 0.960 . S
H522 C536 0.960 . S
H523 C536 0.960 . S
C524 H516 0.929 . S
C524 C525 1.377 . S
C524 C526 1.384 . S
C525 C524 1.377 . S
C525 C531 1.390 . S
C526 H517 0.930 . S
C526 C524 1.384 . S
C526 C527 1.372 . S
C527 C526 1.372 . S
C527 C528 1.400 . S
C527 C532 1.490 . S
C528 H518 0.930 . S
C528 C527 1.400 . S
C528 C531 1.386 . S
H529 C545 0.930 . S
H530 C546 0.931 . S
C531 H519 0.929 . S
C531 C525 1.390 . S
C531 C528 1.386 . S
C532 C527 1.490 . S
C532 C534 1.395 . S
C532 C535 1.403 . S
H533 C539 0.930 . S
C534 H520 0.930 . S
C534 C532 1.395 . S
C534 C537 1.403 . S
C535 C532 1.403 . S
C535 C536 1.524 . S
C535 C539 1.400 . S
C536 H521 0.960 . S
C536 H522 0.960 . S
C536 H523 0.960 . S
C536 C535 1.524 . S
C537 C534 1.403 . S
C537 C538 1.392 . S
C537 C541 1.495 . S
C538 C537 1.392 . S
C538 C539 1.385 . S
C538 C540 1.478 . S
C539 H533 0.930 . S
C539 C535 1.400 . S
C539 C538 1.385 . S
C540 C538 1.478 . S
C540 C542 1.381 . S
C540 C546 1.383 . S
C541 C537 1.495 . S
C541 H547 0.959 . S
C541 H548 0.961 . S
C541 H549 0.960 . S
C542 C540 1.381 . S
C542 C543 1.394 . S
C542 H550 0.930 . S
C543 C542 1.394 . S
C543 C544 1.383 . S
C543 H551 0.929 . S
C544 C543 1.383 . S
C544 C545 1.377 . S
C545 H529 0.930 . S
C545 C544 1.377 . S
C545 C546 1.379 . S
C546 H530 0.931 . S
C546 C540 1.383 . S
C546 C545 1.379 . S
H547 C541 0.959 . S
H548 C541 0.961 . S
H549 C541 0.960 . S
H550 C542 0.930 . S
H551 C543 0.929 . S
H552 C560 0.929 . S
H553 C562 0.930 . S
H554 C564 0.930 . S
H555 C567 0.929 . S
H556 C570 0.930 . S
H557 C572 0.960 . S
H558 C572 0.960 . S
H559 C572 0.960 . S
C560 H552 0.929 . S
C560 C561 1.377 . S
C560 C562 1.384 . S
C561 C560 1.377 . S
C561 C567 1.390 . S
C562 H553 0.930 . S
C562 C560 1.384 . S
C562 C563 1.372 . S
C563 C562 1.372 . S
C563 C564 1.400 . S
C563 C568 1.490 . S
C564 H554 0.930 . S
C564 C563 1.400 . S
C564 C567 1.386 . S
H565 C581 0.930 . S
H566 C582 0.931 . S
C567 H555 0.929 . S
C567 C561 1.390 . S
C567 C564 1.386 . S
C568 C563 1.490 . S
C568 C570 1.395 . S
C568 C571 1.403 . S
H569 C575 0.930 . S
C570 H556 0.930 . S
C570 C568 1.395 . S
C570 C573 1.403 . S
C571 C568 1.403 . S
C571 C572 1.524 . S
C571 C575 1.400 . S
C572 H557 0.960 . S
C572 H558 0.960 . S
C572 H559 0.960 . S
C572 C571 1.524 . S
C573 C570 1.403 . S
C573 C574 1.392 . S
C573 C577 1.495 . S
C574 C573 1.392 . S
C574 C575 1.385 . S
C574 C576 1.478 . S
C575 H569 0.930 . S
C575 C571 1.400 . S
C575 C574 1.385 . S
C576 C574 1.478 . S
C576 C578 1.381 . S
C576 C582 1.383 . S
C577 C573 1.495 . S
C577 H583 0.959 . S
C577 H584 0.961 . S
C577 H585 0.960 . S
C578 C576 1.381 . S
C578 C579 1.394 . S
C578 H586 0.930 . S
C579 C578 1.394 . S
C579 C580 1.383 . S
C579 H587 0.929 . S
C580 C579 1.383 . S
C580 C581 1.377 . S
C581 H565 0.930 . S
C581 C580 1.377 . S
C581 C582 1.379 . S
C582 H566 0.931 . S
C582 C576 1.383 . S
C582 C581 1.379 . S
H583 C577 0.959 . S
H584 C577 0.961 . S
H585 C577 0.960 . S
H586 C578 0.930 . S
H587 C579 0.929 . S
H588 C596 0.929 . S
H589 C598 0.930 . S
H590 C600 0.930 . S
H591 C603 0.929 . S
H592 C606 0.930 . S
H593 C608 0.960 . S
H594 C608 0.960 . S
H595 C608 0.960 . S
C596 H588 0.929 . S
C596 C597 1.377 . S
C596 C598 1.384 . S
C597 C596 1.377 . S
C597 C603 1.390 . S
C598 H589 0.930 . S
C598 C596 1.384 . S
C598 C599 1.372 . S
C599 C598 1.372 . S
C599 C600 1.400 . S
C599 C604 1.490 . S
C600 H590 0.930 . S
C600 C599 1.400 . S
C600 C603 1.386 . S
H601 C617 0.930 . S
H602 C618 0.931 . S
C603 H591 0.929 . S
C603 C597 1.390 . S
C603 C600 1.386 . S
C604 C599 1.490 . S
C604 C606 1.395 . S
C604 C607 1.403 . S
H605 C611 0.930 . S
C606 H592 0.930 . S
C606 C604 1.395 . S
C606 C609 1.403 . S
C607 C604 1.403 . S
C607 C608 1.524 . S
C607 C611 1.400 . S
C608 H593 0.960 . S
C608 H594 0.960 . S
C608 H595 0.960 . S
C608 C607 1.524 . S
C609 C606 1.403 . S
C609 C610 1.392 . S
C609 C613 1.495 . S
C610 C609 1.392 . S
C610 C611 1.385 . S
C610 C612 1.478 . S
C611 H605 0.930 . S
C611 C607 1.400 . S
C611 C610 1.385 . S
C612 C610 1.478 . S
C612 C614 1.381 . S
C612 C618 1.383 . S
C613 C609 1.495 . S
C613 H619 0.959 . S
C613 H620 0.961 . S
C613 H621 0.960 . S
C614 C612 1.381 . S
C614 C615 1.394 . S
C614 H622 0.930 . S
C615 C614 1.394 . S
C615 C616 1.383 . S
C615 H623 0.929 . S
C616 C615 1.383 . S
C616 C617 1.377 . S
C617 H601 0.930 . S
C617 C616 1.377 . S
C617 C618 1.379 . S
C618 H602 0.931 . S
C618 C612 1.383 . S
C618 C617 1.379 . S
H619 C613 0.959 . S
H620 C613 0.961 . S
H621 C613 0.960 . S
H622 C614 0.930 . S
H623 C615 0.929 . S
H624 C632 0.929 . S
H625 C634 0.930 . S
H626 C636 0.930 . S
H627 C639 0.929 . S
H628 C642 0.930 . S
H629 C644 0.960 . S
H630 C644 0.960 . S
H631 C644 0.960 . S
C632 H624 0.929 . S
C632 C633 1.377 . S
C632 C634 1.384 . S
C633 C632 1.377 . S
C633 C639 1.390 . S
C634 H625 0.930 . S
C634 C632 1.384 . S
C634 C635 1.372 . S
C635 C634 1.372 . S
C635 C636 1.400 . S
C635 C640 1.490 . S
C636 H626 0.930 . S
C636 C635 1.400 . S
C636 C639 1.386 . S
H637 C653 0.930 1_455 S
H638 C654 0.931 . S
C639 H627 0.929 . S
C639 C633 1.390 . S
C639 C636 1.386 . S
C640 C635 1.490 . S
C640 C642 1.395 . S
C640 C643 1.403 . S
H641 C647 0.930 . S
C642 H628 0.930 . S
C642 C640 1.395 . S
C642 C645 1.403 . S
C643 C640 1.403 . S
C643 C644 1.524 . S
C643 C647 1.400 . S
C644 H629 0.960 . S
C644 H630 0.960 . S
C644 H631 0.960 . S
C644 C643 1.524 . S
C645 C642 1.403 . S
C645 C646 1.392 . S
C645 C649 1.495 . S
C646 C645 1.392 . S
C646 C647 1.385 . S
C646 C648 1.478 . S
C647 H641 0.930 . S
C647 C643 1.400 . S
C647 C646 1.385 . S
C648 C646 1.478 . S
C648 C650 1.381 . S
C648 C654 1.383 . S
C649 C645 1.495 . S
C649 H655 0.959 . S
C649 H656 0.961 . S
C649 H657 0.960 . S
C650 C648 1.381 . S
C650 C651 1.394 . S
C650 H658 0.930 . S
C651 C650 1.394 . S
C651 C652 1.383 . S
C651 H659 0.929 . S
C652 C651 1.383 . S
C652 C653 1.377 . S
C653 H637 0.930 1_655 S
C653 C652 1.377 . S
C653 C654 1.379 . S
C654 H638 0.931 . S
C654 C648 1.383 . S
C654 C653 1.379 . S
H655 C649 0.959 . S
H656 C649 0.961 . S
H657 C649 0.960 . S
H658 C650 0.930 . S
H659 C651 0.929 . S
H660 C668 0.929 . S
H661 C670 0.930 . S
H662 C672 0.930 . S
H663 C675 0.929 . S
H664 C678 0.930 . S
H665 C680 0.960 . S
H666 C680 0.960 . S
H667 C680 0.960 . S
C668 H660 0.929 . S
C668 C669 1.377 . S
C668 C670 1.384 . S
C669 C668 1.377 . S
C669 C675 1.390 . S
C670 H661 0.930 . S
C670 C668 1.384 . S
C670 C671 1.372 . S
C671 C670 1.372 . S
C671 C672 1.400 . S
C671 C676 1.490 . S
C672 H662 0.930 . S
C672 C671 1.400 . S
C672 C675 1.386 . S
H673 C689 0.930 . S
H674 C690 0.931 . S
C675 H663 0.929 . S
C675 C669 1.390 . S
C675 C672 1.386 . S
C676 C671 1.490 . S
C676 C678 1.395 . S
C676 C679 1.403 . S
H677 C683 0.930 . S
C678 H664 0.930 . S
C678 C676 1.395 . S
C678 C681 1.403 . S
C679 C676 1.403 . S
C679 C680 1.524 . S
C679 C683 1.400 . S
C680 H665 0.960 . S
C680 H666 0.960 . S
C680 H667 0.960 . S
C680 C679 1.524 . S
C681 C678 1.403 . S
C681 C682 1.392 . S
C681 C685 1.495 . S
C682 C681 1.392 . S
C682 C683 1.385 . S
C682 C684 1.478 . S
C683 H677 0.930 . S
C683 C679 1.400 . S
C683 C682 1.385 . S
C684 C682 1.478 . S
C684 C686 1.381 . S
C684 C690 1.383 . S
C685 C681 1.495 . S
C685 H691 0.959 . S
C685 H692 0.961 . S
C685 H693 0.960 . S
C686 C684 1.381 . S
C686 C687 1.394 . S
C686 H694 0.930 . S
C687 C686 1.394 . S
C687 C688 1.383 . S
C687 H695 0.929 . S
C688 C687 1.383 . S
C688 C689 1.377 . S
C689 H673 0.930 . S
C689 C688 1.377 . S
C689 C690 1.379 . S
C690 H674 0.931 . S
C690 C684 1.383 . S
C690 C689 1.379 . S
H691 C685 0.959 . S
H692 C685 0.961 . S
H693 C685 0.960 . S
H694 C686 0.930 . S
H695 C687 0.929 . S
H696 C704 0.929 . S
H697 C706 0.930 . S
H698 C708 0.930 . S
H699 C711 0.929 . S
H700 C714 0.930 . S
H701 C716 0.960 . S
H702 C716 0.960 . S
H703 C716 0.960 . S
C704 H696 0.929 . S
C704 C705 1.377 . S
C704 C706 1.384 . S
C705 C704 1.377 . S
C705 C711 1.390 . S
C706 H697 0.930 . S
C706 C704 1.384 . S
C706 C707 1.372 . S
C707 C706 1.372 . S
C707 C708 1.400 . S
C707 C712 1.490 . S
C708 H698 0.930 . S
C708 C707 1.400 . S
C708 C711 1.386 . S
H709 C725 0.930 . S
H710 C726 0.931 . S
C711 H699 0.929 . S
C711 C705 1.390 . S
C711 C708 1.386 . S
C712 C707 1.490 . S
C712 C714 1.395 . S
C712 C715 1.403 . S
H713 C719 0.930 . S
C714 H700 0.930 . S
C714 C712 1.395 . S
C714 C717 1.403 . S
C715 C712 1.403 . S
C715 C716 1.524 . S
C715 C719 1.400 . S
C716 H701 0.960 . S
C716 H702 0.960 . S
C716 H703 0.960 . S
C716 C715 1.524 . S
C717 C714 1.403 . S
C717 C718 1.392 . S
C717 C721 1.495 . S
C718 C717 1.392 . S
C718 C719 1.385 . S
C718 C720 1.478 . S
C719 H713 0.930 . S
C719 C715 1.400 . S
C719 C718 1.385 . S
C720 C718 1.478 . S
C720 C722 1.381 . S
C720 C726 1.383 . S
C721 C717 1.495 . S
C721 H727 0.959 . S
C721 H728 0.961 . S
C721 H729 0.960 . S
C722 C720 1.381 . S
C722 C723 1.394 . S
C722 H730 0.930 . S
C723 C722 1.394 . S
C723 C724 1.383 . S
C723 H731 0.929 . S
C724 C723 1.383 . S
C724 C725 1.377 . S
C725 H709 0.930 . S
C725 C724 1.377 . S
C725 C726 1.379 . S
C726 H710 0.931 . S
C726 C720 1.383 . S
C726 C725 1.379 . S
H727 C721 0.959 . S
H728 C721 0.961 . S
H729 C721 0.960 . S
H730 C722 0.930 . S
H731 C723 0.929 . S
H732 C740 0.929 . S
H733 C742 0.930 . S
H734 C744 0.930 . S
H735 C747 0.929 . S
H736 C750 0.930 . S
H737 C752 0.960 . S
H738 C752 0.960 . S
H739 C752 0.960 . S
C740 H732 0.929 . S
C740 C741 1.377 . S
C740 C742 1.384 . S
C741 C740 1.377 . S
C741 C747 1.390 . S
C742 H733 0.930 . S
C742 C740 1.384 . S
C742 C743 1.372 . S
C743 C742 1.372 . S
C743 C744 1.400 . S
C743 C748 1.490 . S
C744 H734 0.930 . S
C744 C743 1.400 . S
C744 C747 1.386 . S
H745 C761 0.930 . S
H746 C762 0.931 . S
C747 H735 0.929 . S
C747 C741 1.390 . S
C747 C744 1.386 . S
C748 C743 1.490 . S
C748 C750 1.395 . S
C748 C751 1.403 . S
H749 C755 0.930 . S
C750 H736 0.930 . S
C750 C748 1.395 . S
C750 C753 1.403 . S
C751 C748 1.403 . S
C751 C752 1.524 . S
C751 C755 1.400 . S
C752 H737 0.960 . S
C752 H738 0.960 . S
C752 H739 0.960 . S
C752 C751 1.524 . S
C753 C750 1.403 . S
C753 C754 1.392 . S
C753 C757 1.495 . S
C754 C753 1.392 . S
C754 C755 1.385 . S
C754 C756 1.478 . S
C755 H749 0.930 . S
C755 C751 1.400 . S
C755 C754 1.385 . S
C756 C754 1.478 . S
C756 C758 1.381 . S
C756 C762 1.383 . S
C757 C753 1.495 . S
C757 H763 0.959 . S
C757 H764 0.961 . S
C757 H765 0.960 . S
C758 C756 1.381 . S
C758 C759 1.394 . S
C758 H766 0.930 . S
C759 C758 1.394 . S
C759 C760 1.383 . S
C759 H767 0.929 . S
C760 C759 1.383 . S
C760 C761 1.377 . S
C761 H745 0.930 . S
C761 C760 1.377 . S
C761 C762 1.379 . S
C762 H746 0.931 . S
C762 C756 1.383 . S
C762 C761 1.379 . S
H763 C757 0.959 . S
H764 C757 0.961 . S
H765 C757 0.960 . S
H766 C758 0.930 . S
H767 C759 0.929 . S
H768 C776 0.929 . S
H769 C778 0.930 . S
H770 C780 0.930 . S
H771 C783 0.929 . S
H772 C786 0.930 . S
H773 C788 0.960 . S
H774 C788 0.960 . S
H775 C788 0.960 . S
C776 H768 0.929 . S
C776 C777 1.377 . S
C776 C778 1.384 . S
C777 C776 1.377 . S
C777 C783 1.390 . S
C778 H769 0.930 . S
C778 C776 1.384 . S
C778 C779 1.372 . S
C779 C778 1.372 . S
C779 C780 1.400 . S
C779 C784 1.490 . S
C780 H770 0.930 . S
C780 C779 1.400 . S
C780 C783 1.386 . S
H781 C797 0.930 . S
H782 C798 0.931 . S
C783 H771 0.929 . S
C783 C777 1.390 . S
C783 C780 1.386 . S
C784 C779 1.490 . S
C784 C786 1.395 . S
C784 C787 1.403 . S
H785 C791 0.930 . S
C786 H772 0.930 . S
C786 C784 1.395 . S
C786 C789 1.403 . S
C787 C784 1.403 . S
C787 C788 1.524 . S
C787 C791 1.400 . S
C788 H773 0.960 . S
C788 H774 0.960 . S
C788 H775 0.960 . S
C788 C787 1.524 . S
C789 C786 1.403 . S
C789 C790 1.392 . S
C789 C793 1.495 . S
C790 C789 1.392 . S
C790 C791 1.385 . S
C790 C792 1.478 . S
C791 H785 0.930 . S
C791 C787 1.400 . S
C791 C790 1.385 . S
C792 C790 1.478 . S
C792 C794 1.381 . S
C792 C798 1.383 . S
C793 C789 1.495 . S
C793 H799 0.959 . S
C793 H800 0.961 . S
C793 H801 0.960 . S
C794 C792 1.381 . S
C794 C795 1.394 . S
C794 H802 0.930 . S
C795 C794 1.394 . S
C795 C796 1.383 . S
C795 H803 0.929 . S
C796 C795 1.383 . S
C796 C797 1.377 . S
C797 H781 0.930 . S
C797 C796 1.377 . S
C797 C798 1.379 . S
C798 H782 0.931 . S
C798 C792 1.383 . S
C798 C797 1.379 . S
H799 C793 0.959 . S
H800 C793 0.961 . S
H801 C793 0.960 . S
H802 C794 0.930 . S
H803 C795 0.929 . S
H804 C812 0.929 . S
H805 C814 0.930 . S
H806 C816 0.930 . S
H807 C819 0.929 . S
H808 C822 0.930 . S
H809 C824 0.960 . S
H810 C824 0.960 . S
H811 C824 0.960 . S
C812 H804 0.929 . S
C812 C813 1.377 . S
C812 C814 1.384 . S
C813 C812 1.377 . S
C813 C819 1.390 . S
C814 H805 0.930 . S
C814 C812 1.384 . S
C814 C815 1.372 . S
C815 C814 1.372 . S
C815 C816 1.400 . S
C815 C820 1.490 . S
C816 H806 0.930 . S
C816 C815 1.400 . S
C816 C819 1.386 . S
H817 C833 0.930 . S
H818 C834 0.931 . S
C819 H807 0.929 . S
C819 C813 1.390 . S
C819 C816 1.386 . S
C820 C815 1.490 . S
C820 C822 1.395 . S
C820 C823 1.403 . S
H821 C827 0.930 . S
C822 H808 0.930 . S
C822 C820 1.395 . S
C822 C825 1.403 . S
C823 C820 1.403 . S
C823 C824 1.524 . S
C823 C827 1.400 . S
C824 H809 0.960 . S
C824 H810 0.960 . S
C824 H811 0.960 . S
C824 C823 1.524 . S
C825 C822 1.403 . S
C825 C826 1.392 . S
C825 C829 1.495 . S
C826 C825 1.392 . S
C826 C827 1.385 . S
C826 C828 1.478 . S
C827 H821 0.930 . S
C827 C823 1.400 . S
C827 C826 1.385 . S
C828 C826 1.478 . S
C828 C830 1.381 . S
C828 C834 1.383 . S
C829 C825 1.495 . S
C829 H835 0.959 . S
C829 H836 0.961 . S
C829 H837 0.960 . S
C830 C828 1.381 . S
C830 C831 1.394 . S
C830 H838 0.930 . S
C831 C830 1.394 . S
C831 C832 1.383 . S
C831 H839 0.929 . S
C832 C831 1.383 . S
C832 C833 1.377 . S
C833 H817 0.930 . S
C833 C832 1.377 . S
C833 C834 1.379 . S
C834 H818 0.931 . S
C834 C828 1.383 . S
C834 C833 1.379 . S
H835 C829 0.959 . S
H836 C829 0.961 . S
H837 C829 0.960 . S
H838 C830 0.930 . S
H839 C831 0.929 . S
H840 C848 0.929 . S
H841 C850 0.930 . S
H842 C852 0.930 . S
H843 C855 0.929 . S
H844 C858 0.930 . S
H845 C860 0.960 . S
H846 C860 0.960 . S
H847 C860 0.960 . S
C848 H840 0.929 . S
C848 C849 1.377 . S
C848 C850 1.384 . S
C849 C848 1.377 . S
C849 C855 1.390 . S
C850 H841 0.930 . S
C850 C848 1.384 . S
C850 C851 1.372 . S
C851 C850 1.372 . S
C851 C852 1.400 . S
C851 C856 1.490 . S
C852 H842 0.930 . S
C852 C851 1.400 . S
C852 C855 1.386 . S
H853 C869 0.930 . S
H854 C870 0.931 . S
C855 H843 0.929 . S
C855 C849 1.390 . S
C855 C852 1.386 . S
C856 C851 1.490 . S
C856 C858 1.395 . S
C856 C859 1.403 . S
H857 C863 0.930 . S
C858 H844 0.930 . S
C858 C856 1.395 . S
C858 C861 1.403 . S
C859 C856 1.403 . S
C859 C860 1.524 . S
C859 C863 1.400 . S
C860 H845 0.960 . S
C860 H846 0.960 . S
C860 H847 0.960 . S
C860 C859 1.524 . S
C861 C858 1.403 . S
C861 C862 1.392 . S
C861 C865 1.495 . S
C862 C861 1.392 . S
C862 C863 1.385 . S
C862 C864 1.478 . S
C863 H857 0.930 . S
C863 C859 1.400 . S
C863 C862 1.385 . S
C864 C862 1.478 . S
C864 C866 1.381 . S
C864 C870 1.383 . S
C865 C861 1.495 . S
C865 H871 0.959 . S
C865 H872 0.961 . S
C865 H873 0.960 . S
C866 C864 1.381 . S
C866 C867 1.394 . S
C866 H874 0.930 . S
C867 C866 1.394 . S
C867 C868 1.383 . S
C867 H875 0.929 . S
C868 C867 1.383 . S
C868 C869 1.377 . S
C869 H853 0.930 . S
C869 C868 1.377 . S
C869 C870 1.379 . S
C870 H854 0.931 . S
C870 C864 1.383 . S
C870 C869 1.379 . S
H871 C865 0.959 . S
H872 C865 0.961 . S
H873 C865 0.960 . S
H874 C866 0.930 . S
H875 C867 0.929 . S
H876 C884 0.929 . S
H877 C886 0.930 . S
H878 C888 0.930 . S
H879 C891 0.929 . S
H880 C894 0.930 . S
H881 C896 0.979 . S
H882 C896 0.960 . S
H883 C896 0.960 . S
C884 H876 0.929 . S
C884 C885 1.377 . S
C884 C886 1.384 . S
C885 C884 1.377 . S
C885 C891 1.390 . S
C886 H877 0.930 . S
C886 C884 1.384 . S
C886 C887 1.372 . S
C887 C886 1.372 . S
C887 C888 1.400 . S
C887 C892 1.490 . S
C888 H878 0.930 . S
C888 C887 1.400 . S
C888 C891 1.386 . S
H889 C905 0.930 . S
H890 C906 0.931 . S
C891 H879 0.929 . S
C891 C885 1.390 . S
C891 C888 1.386 . S
C892 C887 1.490 . S
C892 C894 1.395 . S
C892 C895 1.403 . S
H893 C899 0.930 . S
C894 H880 0.930 . S
C894 C892 1.395 . S
C894 C897 1.403 . S
C895 C892 1.403 . S
C895 C896 1.524 . S
C895 C899 1.400 . S
C896 H881 0.979 . S
C896 H882 0.960 . S
C896 H883 0.960 . S
C896 C895 1.524 . S
C897 C894 1.403 . S
C897 C898 1.392 . S
C897 C901 1.495 . S
C898 C897 1.392 . S
C898 C899 1.385 . S
C898 C900 1.478 . S
C899 H893 0.930 . S
C899 C895 1.400 . S
C899 C898 1.385 . S
C900 C898 1.478 . S
C900 C902 1.381 . S
C900 C906 1.383 . S
C901 C897 1.495 . S
C901 H907 0.959 . S
C901 H908 0.961 . S
C901 H909 0.960 . S
C902 C900 1.381 . S
C902 C903 1.394 . S
C902 H910 0.930 . S
C903 C902 1.394 . S
C903 C904 1.383 . S
C903 H911 0.929 . S
C904 C903 1.383 . S
C904 C905 1.377 . S
C905 H889 0.930 . S
C905 C904 1.377 . S
C905 C906 1.379 . S
C906 H890 0.931 . S
C906 C900 1.383 . S
C906 C905 1.379 . S
H907 C901 0.959 . S
H908 C901 0.961 . S
H909 C901 0.960 . S
H910 C902 0.930 . S
H911 C903 0.929 . S
H912 C920 0.929 . S
H913 C922 0.930 . S
H914 C924 0.930 . S
H915 C927 0.929 . S
H916 C930 0.930 . S
H917 C932 0.960 . S
H918 C932 0.960 . S
H919 C932 0.960 . S
C920 H912 0.929 . S
C920 C921 1.377 . S
C920 C922 1.384 . S
C921 C920 1.377 . S
C921 C927 1.390 . S
C922 H913 0.930 . S
C922 C920 1.384 . S
C922 C923 1.372 . S
C923 C922 1.372 . S
C923 C924 1.400 . S
C923 C928 1.490 . S
C924 H914 0.930 . S
C924 C923 1.400 . S
C924 C927 1.386 . S
H925 C941 0.930 . S
H926 C942 0.931 . S
C927 H915 0.929 . S
C927 C921 1.390 . S
C927 C924 1.386 . S
C928 C923 1.490 . S
C928 C930 1.395 . S
C928 C931 1.403 . S
H929 C935 0.930 . S
C930 H916 0.930 . S
C930 C928 1.395 . S
C930 C933 1.403 . S
C931 C928 1.403 . S
C931 C932 1.524 . S
C931 C935 1.400 . S
C932 H917 0.960 . S
C932 H918 0.960 . S
C932 H919 0.960 . S
C932 C931 1.524 . S
C933 C930 1.403 . S
C933 C934 1.392 . S
C933 C937 1.495 . S
C934 C933 1.392 . S
C934 C935 1.385 . S
C934 C936 1.478 . S
C935 H929 0.930 . S
C935 C931 1.400 . S
C935 C934 1.385 . S
C936 C934 1.478 . S
C936 C938 1.381 . S
C936 C942 1.383 . S
C937 C933 1.495 . S
C937 H943 0.959 . S
C937 H944 0.961 . S
C937 H945 0.960 . S
C938 C936 1.381 . S
C938 C939 1.394 . S
C938 H946 0.930 . S
C939 C938 1.394 . S
C939 C940 1.383 . S
C939 H947 0.929 . S
C940 C939 1.383 . S
C940 C941 1.377 . S
C941 H925 0.930 . S
C941 C940 1.377 . S
C941 C942 1.379 . S
C942 H926 0.931 . S
C942 C936 1.383 . S
C942 C941 1.379 . S
H943 C937 0.959 . S
H944 C937 0.961 . S
H945 C937 0.960 . S
H946 C938 0.930 . S
H947 C939 0.929 . S
H948 C956 0.929 . S
H949 C958 0.930 . S
H950 C960 0.930 . S
H951 C963 0.929 . S
H952 C966 0.930 . S
H953 C968 0.960 . S
H954 C968 0.960 . S
H955 C968 0.960 . S
C956 H948 0.929 . S
C956 C957 1.377 . S
C956 C958 1.384 . S
C957 C956 1.377 . S
C957 C963 1.390 . S
C958 H949 0.930 . S
C958 C956 1.384 . S
C958 C959 1.372 . S
C959 C958 1.372 . S
C959 C960 1.400 . S
C959 C964 1.490 . S
C960 H950 0.930 . S
C960 C959 1.400 . S
C960 C963 1.386 . S
H961 C977 0.930 . S
H962 C978 0.931 . S
C963 H951 0.929 . S
C963 C957 1.390 . S
C963 C960 1.386 . S
C964 C959 1.490 . S
C964 C966 1.395 . S
C964 C967 1.403 . S
H965 C971 0.930 . S
C966 H952 0.930 . S
C966 C964 1.395 . S
C966 C969 1.403 . S
C967 C964 1.403 . S
C967 C968 1.524 . S
C967 C971 1.400 . S
C968 H953 0.960 . S
C968 H954 0.960 . S
C968 H955 0.960 . S
C968 C967 1.524 . S
C969 C966 1.403 . S
C969 C970 1.392 . S
C969 C973 1.495 . S
C970 C969 1.392 . S
C970 C971 1.385 . S
C970 C972 1.478 . S
C971 H965 0.930 . S
C971 C967 1.400 . S
C971 C970 1.385 . S
C972 C970 1.478 . S
C972 C974 1.381 . S
C972 C978 1.383 . S
C973 C969 1.495 . S
C973 H979 0.959 . S
C973 H980 0.961 . S
C973 H981 0.960 . S
C974 C972 1.381 . S
C974 C975 1.394 . S
C974 H982 0.930 . S
C975 C974 1.394 . S
C975 C976 1.383 . S
C975 H983 0.929 . S
C976 C975 1.383 . S
C976 C977 1.377 . S
C977 H961 0.930 . S
C977 C976 1.377 . S
C977 C978 1.379 . S
C978 H962 0.931 . S
C978 C972 1.383 . S
C978 C977 1.379 . S
H979 C973 0.959 . S
H980 C973 0.961 . S
H981 C973 0.960 . S
H982 C974 0.930 . S
H983 C975 0.929 . S
H984 C992 0.929 . S
H985 C994 0.930 . S
H986 C996 0.930 . S
H987 C999 0.929 . S
H988 C1002 0.930 . S
H989 C1004 0.960 . S
H990 C1004 0.960 . S
H991 C1004 0.960 . S
C992 H984 0.929 . S
C992 C993 1.377 . S
C992 C994 1.384 . S
C993 C992 1.377 . S
C993 C999 1.390 . S
C994 H985 0.930 . S
C994 C992 1.384 . S
C994 C995 1.372 . S
C995 C994 1.372 . S
C995 C996 1.400 . S
C995 C1000 1.490 . S
C996 H986 0.930 . S
C996 C995 1.400 . S
C996 C999 1.386 . S
H997 C1013 0.930 . S
H998 C1014 0.931 . S
C999 H987 0.929 . S
C999 C993 1.390 . S
C999 C996 1.386 . S
C1000 C995 1.490 . S
C1000 C1002 1.395 . S
C1000 C1003 1.403 . S
H1001 C1007 0.930 . S
C1002 H988 0.930 . S
C1002 C1000 1.395 . S
C1002 C1005 1.403 . S
C1003 C1000 1.403 . S
C1003 C1004 1.524 . S
C1003 C1007 1.400 . S
C1004 H989 0.960 . S
C1004 H990 0.960 . S
C1004 H991 0.960 . S
C1004 C1003 1.524 . S
C1005 C1002 1.403 . S
C1005 C1006 1.392 . S
C1005 C1009 1.495 . S
C1006 C1005 1.392 . S
C1006 C1007 1.385 . S
C1006 C1008 1.478 . S
C1007 H1001 0.930 . S
C1007 C1003 1.400 . S
C1007 C1006 1.385 . S
C1008 C1006 1.478 . S
C1008 C1010 1.381 . S
C1008 C1014 1.383 . S
C1009 C1005 1.495 . S
C1009 H1015 0.959 . S
C1009 H1016 0.961 . S
C1009 H1017 0.960 . S
C1010 C1008 1.381 . S
C1010 C1011 1.394 1_556 S
C1010 H1018 0.930 1_556 S
C1011 C1010 1.394 1_554 S
C1011 C1012 1.383 1_554 S
C1011 H1019 0.929 . S
C1012 C1011 1.383 1_556 S
C1012 C1013 1.377 . S
C1013 H997 0.930 . S
C1013 C1012 1.377 . S
C1013 C1014 1.379 . S
C1014 H998 0.931 . S
C1014 C1008 1.383 . S
C1014 C1013 1.379 . S
H1015 C1009 0.959 . S
H1016 C1009 0.961 . S
H1017 C1009 0.960 . S
H1018 C1010 0.930 1_554 S
H1019 C1011 0.929 . S
H1020 C1028 0.929 . S
H1021 C1030 0.930 . S
H1022 C1032 0.930 . S
H1023 C1035 0.929 . S
H1024 C1038 0.930 . S
H1025 C1040 0.960 . S
H1026 C1040 0.960 . S
H1027 C1040 0.960 . S
C1028 H1020 0.929 . S
C1028 C1029 1.377 . S
C1028 C1030 1.384 . S
C1029 C1028 1.377 . S
C1029 C1035 1.390 . S
C1030 H1021 0.930 . S
C1030 C1028 1.384 . S
C1030 C1031 1.372 . S
C1031 C1030 1.372 . S
C1031 C1032 1.400 . S
C1031 C1036 1.490 . S
C1032 H1022 0.930 . S
C1032 C1031 1.400 . S
C1032 C1035 1.386 . S
H1033 C1049 0.930 . S
H1034 C1050 0.931 . S
C1035 H1023 0.929 . S
C1035 C1029 1.390 . S
C1035 C1032 1.386 . S
C1036 C1031 1.490 . S
C1036 C1038 1.395 . S
C1036 C1039 1.403 . S
H1037 C1043 0.930 . S
C1038 H1024 0.930 . S
C1038 C1036 1.395 . S
C1038 C1041 1.403 . S
C1039 C1036 1.403 . S
C1039 C1040 1.524 . S
C1039 C1043 1.400 . S
C1040 H1025 0.960 . S
C1040 H1026 0.960 . S
C1040 H1027 0.960 . S
C1040 C1039 1.524 . S
C1041 C1038 1.403 . S
C1041 C1042 1.392 . S
C1041 C1045 1.495 . S
C1042 C1041 1.392 . S
C1042 C1043 1.385 . S
C1042 C1044 1.478 . S
C1043 H1037 0.930 . S
C1043 C1039 1.400 . S
C1043 C1042 1.385 . S
C1044 C1042 1.478 . S
C1044 C1046 1.381 . S
C1044 C1050 1.383 . S
C1045 C1041 1.495 . S
C1045 H1051 0.959 . S
C1045 H1052 0.961 . S
C1045 H1053 0.960 . S
C1046 C1044 1.381 . S
C1046 C1047 1.394 . S
C1046 H1054 0.930 . S
C1047 C1046 1.394 . S
C1047 C1048 1.383 . S
C1047 H1055 0.929 . S
C1048 C1047 1.383 . S
C1048 C1049 1.377 . S
C1049 H1033 0.930 . S
C1049 C1048 1.377 . S
C1049 C1050 1.379 . S
C1050 H1034 0.931 . S
C1050 C1044 1.383 . S
C1050 C1049 1.379 . S
H1051 C1045 0.959 . S
H1052 C1045 0.961 . S
H1053 C1045 0.960 . S
H1054 C1046 0.930 . S
H1055 C1047 0.929 . S
H1056 C1064 0.929 . S
H1057 C1066 0.930 . S
H1058 C1068 0.930 . S
H1059 C1071 0.929 . S
H1060 C1074 0.930 . S
H1061 C1076 0.960 . S
H1062 C1076 0.960 . S
H1063 C1076 0.960 . S
C1064 H1056 0.929 . S
C1064 C1065 1.377 . S
C1064 C1066 1.384 . S
C1065 C1064 1.377 . S
C1065 C1071 1.390 . S
C1066 H1057 0.930 . S
C1066 C1064 1.384 . S
C1066 C1067 1.372 . S
C1067 C1066 1.372 . S
C1067 C1068 1.400 . S
C1067 C1072 1.490 . S
C1068 H1058 0.930 . S
C1068 C1067 1.400 . S
C1068 C1071 1.386 . S
H1069 C1085 0.930 . S
H1070 C1086 0.931 . S
C1071 H1059 0.929 . S
C1071 C1065 1.390 . S
C1071 C1068 1.386 . S
C1072 C1067 1.490 . S
C1072 C1074 1.395 . S
C1072 C1075 1.403 . S
H1073 C1079 0.930 . S
C1074 H1060 0.930 . S
C1074 C1072 1.395 . S
C1074 C1077 1.403 . S
C1075 C1072 1.403 . S
C1075 C1076 1.524 . S
C1075 C1079 1.400 . S
C1076 H1061 0.960 . S
C1076 H1062 0.960 . S
C1076 H1063 0.960 . S
C1076 C1075 1.524 . S
C1077 C1074 1.403 . S
C1077 C1078 1.392 . S
C1077 C1081 1.495 . S
C1078 C1077 1.392 . S
C1078 C1079 1.385 . S
C1078 C1080 1.478 . S
C1079 H1073 0.930 . S
C1079 C1075 1.400 . S
C1079 C1078 1.385 . S
C1080 C1078 1.478 . S
C1080 C1082 1.381 . S
C1080 C1086 1.383 . S
C1081 C1077 1.495 . S
C1081 H1087 0.959 . S
C1081 H1088 0.961 . S
C1081 H1089 0.960 . S
C1082 C1080 1.381 . S
C1082 C1083 1.394 . S
C1082 H1090 0.930 . S
C1083 C1082 1.394 . S
C1083 C1084 1.383 . S
C1083 H1091 0.929 . S
C1084 C1083 1.383 . S
C1084 C1085 1.377 . S
C1085 H1069 0.930 . S
C1085 C1084 1.377 . S
C1085 C1086 1.379 . S
C1086 H1070 0.931 . S
C1086 C1080 1.383 . S
C1086 C1085 1.379 . S
H1087 C1081 0.959 . S
H1088 C1081 0.961 . S
H1089 C1081 0.960 . S
H1090 C1082 0.930 . S
H1091 C1083 0.929 . S
H1092 C1100 0.929 . S
H1093 C1102 0.930 . S
H1094 C1104 0.930 . S
H1095 C1107 0.929 . S
H1096 C1110 0.930 . S
H1097 C1112 0.960 . S
H1098 C1112 0.960 . S
H1099 C1112 0.960 . S
C1100 H1092 0.929 . S
C1100 C1101 1.377 . S
C1100 C1102 1.384 . S
C1101 C1100 1.377 . S
C1101 C1107 1.390 . S
C1102 H1093 0.930 . S
C1102 C1100 1.384 . S
C1102 C1103 1.372 . S
C1103 C1102 1.372 . S
C1103 C1104 1.400 . S
C1103 C1108 1.490 . S
C1104 H1094 0.930 . S
C1104 C1103 1.400 . S
C1104 C1107 1.386 . S
H1105 C1121 0.930 . S
H1106 C1122 0.931 . S
C1107 H1095 0.929 . S
C1107 C1101 1.390 . S
C1107 C1104 1.386 . S
C1108 C1103 1.490 . S
C1108 C1110 1.395 . S
C1108 C1111 1.403 . S
H1109 C1115 0.930 . S
C1110 H1096 0.930 . S
C1110 C1108 1.395 . S
C1110 C1113 1.403 . S
C1111 C1108 1.403 . S
C1111 C1112 1.524 . S
C1111 C1115 1.400 . S
C1112 H1097 0.960 . S
C1112 H1098 0.960 . S
C1112 H1099 0.960 . S
C1112 C1111 1.524 . S
C1113 C1110 1.403 . S
C1113 C1114 1.392 . S
C1113 C1117 1.495 . S
C1114 C1113 1.392 . S
C1114 C1115 1.385 . S
C1114 C1116 1.478 . S
C1115 H1109 0.930 . S
C1115 C1111 1.400 . S
C1115 C1114 1.385 . S
C1116 C1114 1.478 . S
C1116 C1118 1.381 . S
C1116 C1122 1.383 . S
C1117 C1113 1.495 . S
C1117 H1123 0.959 . S
C1117 H1124 0.961 . S
C1117 H1125 0.960 . S
C1118 C1116 1.381 . S
C1118 C1119 1.394 . S
C1118 H1126 0.930 . S
C1119 C1118 1.394 . S
C1119 C1120 1.383 . S
C1119 H1127 0.929 . S
C1120 C1119 1.383 . S
C1120 C1121 1.377 . S
C1121 H1105 0.930 . S
C1121 C1120 1.377 . S
C1121 C1122 1.379 . S
C1122 H1106 0.931 . S
C1122 C1116 1.383 . S
C1122 C1121 1.379 . S
H1123 C1117 0.959 . S
H1124 C1117 0.961 . S
H1125 C1117 0.960 . S
H1126 C1118 0.930 . S
H1127 C1119 0.929 . S
C273 C9 1.695 . S
C292 C119 1.718 . S
C309 C21 0.971 . S
C328 C159 1.007 . S
C364 C193 1.860 . S
C345 C30 1.818 . S
C381 C43 2.337 . S
C400 C234 2.362 . S
C436 C154 1.315 . S
C417 C4 1.235 . S
C472 C114 2.650 . S
C453 C22 2.595 . S
C508 C242 1.136 . S
C489 C34 1.131 . S
C544 C203 1.503 . S
C525 C48 1.563 . S
C561 C8 1.258 . S
C580 C239 1.282 . S
C616 C162 1.867 . S
C597 C35 1.893 . S
C633 C47 2.591 . S
C652 C122 2.494 . S
C669 C17 1.333 . S
C688 C190 1.401 . S
C724 C110 1.145 . S
C705 C60 1.142 . S
C741 C74 1.131 . S
C760 C150 1.154 . S
C777 C82 1.458 . S
C796 C202 1.519 . S
C813 C100 3.012 . S
C832 C243 2.950 1_556 S
C849 C61 1.804 . S
C868 C163 1.835 . S
C904 C123 2.012 . S
C885 C73 1.958 . S
C940 C233 1.668 . S
C921 C87 1.713 . S
C976 C194 1.458 . S
C957 C95 1.527 . S
C993 C56 1.097 . S
C1012 C230 1.085 . S
C1048 C153 2.086 . S
C1029 C86 2.146 . S
C1084 C113 2.430 . S
C1065 C99 2.480 . S
C1101 C69 1.200 . S
C1120 C199 1.320 . S
