# Generated by pormake.
# Topology zzz, (3,6)-cn, num edge types: 1
# Building blocks:
#     Node 0, Type 0, BuildingBlock: CUQRIR_clean_linker_1, # of connection points: 3
#     Node 1, Type 0, BuildingBlock: CUQRIR_clean_linker_1, # of connection points: 3
#     Node 2, Type 0, BuildingBlock: CUQRIR_clean_linker_1, # of connection points: 3
#     Node 3, Type 0, BuildingBlock: CUQRIR_clean_linker_1, # of connection points: 3
#     Node 4, Type 0, BuildingBlock: CUQRIR_clean_linker_1, # of connection points: 3
#     Node 5, Type 0, BuildingBlock: CUQRIR_clean_linker_1, # of connection points: 3
#     Node 6, Type 0, BuildingBlock: CUQRIR_clean_linker_1, # of connection points: 3
#     Node 7, Type 0, BuildingBlock: CUQRIR_clean_linker_1, # of connection points: 3
#     Node 8, Type 1, BuildingBlock: PAMTUU_clean_sbu_0, # of connection points: 6
#     Node 9, Type 1, BuildingBlock: PAMTUU_clean_sbu_0, # of connection points: 6
#     Node 10, Type 1, BuildingBlock: PAMTUU_clean_sbu_0, # of connection points: 6
#     Node 11, Type 1, BuildingBlock: PAMTUU_clean_sbu_0, # of connection points: 6
#     Edge 12, Type (0, 1), BuildingBlock: KIFKEQ_clean_linker_1, # of connection points: 2
#     Edge 13, Type (0, 1), BuildingBlock: KIFKEQ_clean_linker_1, # of connection points: 2
#     Edge 14, Type (0, 1), BuildingBlock: KIFKEQ_clean_linker_1, # of connection points: 2
#     Edge 15, Type (0, 1), BuildingBlock: KIFKEQ_clean_linker_1, # of connection points: 2
#     Edge 16, Type (0, 1), BuildingBlock: KIFKEQ_clean_linker_1, # of connection points: 2
#     Edge 17, Type (0, 1), BuildingBlock: KIFKEQ_clean_linker_1, # of connection points: 2
#     Edge 18, Type (0, 1), BuildingBlock: KIFKEQ_clean_linker_1, # of connection points: 2
#     Edge 19, Type (0, 1), BuildingBlock: KIFKEQ_clean_linker_1, # of connection points: 2
#     Edge 20, Type (0, 1), BuildingBlock: KIFKEQ_clean_linker_1, # of connection points: 2
#     Edge 21, Type (0, 1), BuildingBlock: KIFKEQ_clean_linker_1, # of connection points: 2
#     Edge 22, Type (0, 1), BuildingBlock: KIFKEQ_clean_linker_1, # of connection points: 2
#     Edge 23, Type (0, 1), BuildingBlock: KIFKEQ_clean_linker_1, # of connection points: 2
#     Edge 24, Type (0, 1), BuildingBlock: KIFKEQ_clean_linker_1, # of connection points: 2
#     Edge 25, Type (0, 1), BuildingBlock: KIFKEQ_clean_linker_1, # of connection points: 2
#     Edge 26, Type (0, 1), BuildingBlock: KIFKEQ_clean_linker_1, # of connection points: 2
#     Edge 27, Type (0, 1), BuildingBlock: KIFKEQ_clean_linker_1, # of connection points: 2
#     Edge 28, Type (0, 1), BuildingBlock: KIFKEQ_clean_linker_1, # of connection points: 2
#     Edge 29, Type (0, 1), BuildingBlock: KIFKEQ_clean_linker_1, # of connection points: 2
#     Edge 30, Type (0, 1), BuildingBlock: KIFKEQ_clean_linker_1, # of connection points: 2
#     Edge 31, Type (0, 1), BuildingBlock: KIFKEQ_clean_linker_1, # of connection points: 2
#     Edge 32, Type (0, 1), BuildingBlock: KIFKEQ_clean_linker_1, # of connection points: 2
#     Edge 33, Type (0, 1), BuildingBlock: KIFKEQ_clean_linker_1, # of connection points: 2
#     Edge 34, Type (0, 1), BuildingBlock: KIFKEQ_clean_linker_1, # of connection points: 2
#     Edge 35, Type (0, 1), BuildingBlock: KIFKEQ_clean_linker_1, # of connection points: 2
# Relax obj value: 0.239
# Max RMSD: 0.228
# Mean RMSD: 0.121
data_MOF--net-zzz--node1-PAMTUU_clean_sbu_0--node2-CUQRIR_clean_linker_1--edge1-KIFKEQ_clean_linker_1
_symmetry_space_group_name_H-M    P1
_symmetry_Int_Tables_number       1
_symmetry_cell_setting            triclinic
loop_
_symmetry_equiv_pos_as_xyz
'x, y, z'
_cell_length_a     46.907754
_cell_length_b     52.232789
_cell_length_c     14.208065
_cell_angle_alpha  101.67955
_cell_angle_beta   89.958921
_cell_angle_gamma 91.004856
loop_
_atom_site_label
_atom_site_type_symbol
_atom_site_fract_x
_atom_site_fract_y
_atom_site_fract_z
_atom_type_partial_charge
C0 C 0.76771 0.50938 0.46594 0.0
N1 N 0.79153 0.52216 0.50629 0.0
N2 N 0.7516 0.52532 0.42356 0.0
C3 C 0.76097 0.4811 0.46366 0.0
C4 C 0.76683 0.5481 0.43866 0.0
N5 N 0.79109 0.54621 0.48849 0.0
C6 C 0.75921 0.57135 0.39684 0.0
H7 H 0.77176 0.46906 0.40086 0.0
H8 H 0.73766 0.47719 0.45641 0.0
H9 H 0.76903 0.47534 0.52965 0.0
H10 H 0.73711 0.57731 0.41711 0.0
H11 H 0.76003 0.56585 0.31724 0.0
H12 H 0.77379 0.58828 0.42234 0.0
C13 C 1.03682 0.73965 0.47275 0.0
N14 N 0.04943 0.76368 0.48482 0.0
N15 N 0.0473 0.72361 0.3936 0.0
C16 C 1.01301 0.73238 0.53335 0.0
C17 C 0.06657 0.73877 0.35837 0.0
N18 N 0.06792 0.76302 0.41355 0.0
C19 C 0.08186 0.73079 0.26417 0.0
H20 H 1.01374 0.7113 0.53575 0.0
H21 H 0.99237 0.73605 0.50081 0.0
H22 H 1.0142 0.74432 0.60737 0.0
H23 H 0.0687 0.73601 0.20618 0.0
H24 H 0.0853 0.70938 0.24729 0.0
H25 H 0.10268 0.7413 0.26609 0.0
C26 C 0.81511 0.01357 0.48776 0.0
N27 N 0.78957 0.02518 0.51164 0.0
N28 N 0.82972 0.02564 0.4252 0.0
C29 C 0.82619 0.99124 0.52792 0.0
C30 C 0.81182 0.04466 0.41107 0.0
N31 N 0.78785 0.04454 0.46389 0.0
C32 C 0.8162 0.06136 0.33709 0.0
H33 H 0.81732 0.99154 0.60056 0.0
H34 H 0.84983 0.99202 0.5314 0.0
H35 H 0.81948 0.9726 0.48007 0.0
H36 H 0.8295 0.05132 0.27664 0.0
H37 H 0.82711 0.07991 0.37149 0.0
H38 H 0.79555 0.06623 0.30765 0.0
C39 C 0.5416 0.77767 0.23799 0.0
N40 N 0.53692 0.75164 0.22992 0.0
N41 N 0.53102 0.78585 0.16012 0.0
C42 C 0.55593 0.79505 0.32232 0.0
C43 C 0.52009 0.7636 0.10435 0.0
N44 N 0.52345 0.74298 0.14731 0.0
C45 C 0.50815 0.76166 1.00493 0.0
H46 H 0.54778 0.81525 0.33286 0.0
H47 H 0.57919 0.79567 0.30845 0.0
H48 H 0.55258 0.78728 0.38869 0.0
H49 H 0.51916 0.77578 0.96782 0.0
H50 H 0.48519 0.76648 1.01059 0.0
H51 H 0.51013 0.74161 0.96131 0.0
C52 C 0.31012 0.49602 0.22117 0.0
N53 N 0.28616 0.48319 0.18159 0.0
N54 N 0.3253 0.48082 0.26958 0.0
C55 C 0.31702 0.52417 0.22141 0.0
C56 C 0.30948 0.45846 0.2584 0.0
N57 N 0.28571 0.45985 0.20567 0.0
C58 C 0.31666 0.43562 0.30312 0.0
H59 H 0.30831 0.52986 0.15612 0.0
H60 H 0.3404 0.5278 0.22562 0.0
H61 H 0.30709 0.53649 0.28542 0.0
H62 H 0.30925 0.43947 0.37876 0.0
H63 H 0.34009 0.43301 0.30338 0.0
H64 H 0.30609 0.41741 0.26374 0.0
C65 C 0.04457 0.26349 0.23172 0.0
N66 N 1.034 0.23867 0.21146 0.0
N67 N 1.03595 0.27593 0.32018 0.0
C68 C 0.06476 0.27491 0.16868 0.0
C69 C 1.01981 0.25779 0.35261 0.0
N70 N 1.01863 0.23523 0.28661 0.0
C71 C 1.00705 0.26153 0.4515 0.0
H72 H 0.08691 0.27272 0.19283 0.0
H73 H 0.06093 0.29607 0.17466 0.0
H74 H 0.0626 0.26463 0.09256 0.0
H75 H 1.00232 0.28241 0.47981 0.0
H76 H 1.02255 0.25506 0.50045 0.0
H77 H 0.98722 0.24966 0.45105 0.0
C78 C 0.26505 0.99398 0.20471 0.0
N79 N 0.28945 0.98096 0.17565 0.0
N80 N 0.24957 0.98141 0.26352 0.0
C81 C 0.25615 0.01862 0.17503 0.0
C82 C 0.26574 0.96059 0.27026 0.0
N83 N 0.28968 0.96024 0.21685 0.0
C84 C 0.25971 0.94232 0.33779 0.0
H85 H 0.2649 0.03563 0.22735 0.0
H86 H 0.23256 0.01997 0.17488 0.0
H87 H 0.26464 0.01948 0.1028 0.0
H88 H 0.24811 0.92475 0.29791 0.0
H89 H 0.24636 0.95171 0.39919 0.0
H90 H 0.27975 0.93587 0.36646 0.0
C91 C 0.53975 0.22017 0.45048 0.0
N92 N 0.54033 0.24658 0.4612 0.0
N93 N 0.5445 0.21306 0.53621 0.0
C94 C 0.53599 0.20147 0.35595 0.0
C95 C 0.54775 0.23631 0.59911 0.0
N96 N 0.54528 0.25652 0.55348 0.0
C97 C 0.55091 0.23937 0.70619 0.0
H98 H 0.51297 0.1966 0.34445 0.0
H99 H 0.5476 0.18312 0.3556 0.0
H100 H 0.54363 0.21044 0.2959 0.0
H101 H 0.57392 0.23967 0.72451 0.0
H102 H 0.54035 0.22287 0.73171 0.0
H103 H 0.54165 0.25801 0.74432 0.0
Tb104 Tb 1.01544 0.00544 0.7649 0.0
Tb105 Tb 0.06347 1.00038 0.92633 0.0
C106 C 0.99862 0.00338 0.9784 0.0
C107 C 0.97586 0.02646 0.56899 0.0
C108 C 0.97255 0.06455 0.45498 0.0
C109 C 0.94818 0.0572 0.50149 0.0
C110 C 0.9498 0.03817 0.55747 0.0
C111 C 0.99999 0.03292 0.51966 0.0
C112 C 0.9983 0.05167 0.46262 0.0
C113 C 0.97823 0.01009 0.64113 0.0
O114 O 1.03607 0.04395 0.80014 0.0
O115 O 0.0535 0.04161 0.94931 0.0
O116 O 0.08734 0.01194 0.80886 0.0
O117 O 0.05556 0.99764 0.68614 0.0
O118 O 0.07693 0.00801 0.07051 0.0
O119 O 0.10361 0.98711 0.95827 0.0
O120 O 0.05647 0.96117 0.84215 0.0
O121 O 1.01144 0.96533 0.78535 0.0
O122 O 0.99466 0.01464 0.90491 0.0
O123 O 1.02243 0.99115 0.98717 0.0
C124 C 0.04627 0.05522 0.88499 0.0
O125 O 0.9978 0.99232 0.62724 0.0
O126 O 0.97798 0.02284 0.72982 0.0
C127 C 0.08156 0.00486 0.71651 0.0
C128 C 0.10111 0.97152 0.10007 0.0
C129 C 0.10539 0.92516 0.16987 0.0
C130 C 0.12924 0.9419 0.17206 0.0
C131 C 0.12713 0.96503 0.13712 0.0
C132 C 0.07717 0.95509 0.10032 0.0
C133 C 0.07926 0.9322 0.13528 0.0
C134 C 0.0993 0.99344 0.05052 0.0
C135 C 1.03256 0.95079 0.8029 0.0
H136 H 0.92808 0.06678 0.49734 0.0
H137 H 0.93098 0.0335 0.59543 0.0
H138 H 1.02045 0.02437 0.52857 0.0
H139 H 1.01763 0.0572 0.42948 0.0
H140 H 0.14965 0.93655 0.1971 0.0
H141 H 0.14591 0.97733 0.13603 0.0
H142 H 0.05701 0.95956 0.07076 0.0
H143 H 0.06049 0.91973 0.13373 0.0
Tb144 Tb 0.53359 0.98131 0.74119 0.0
Tb145 Tb 0.54743 0.01677 0.95448 0.0
C146 C 0.53995 0.95552 0.92069 0.0
C147 C 0.50517 0.93202 0.53148 0.0
C148 C 0.46233 0.90172 0.42101 0.0
C149 C 0.49057 0.90124 0.38726 0.0
C150 C 0.51181 0.91645 0.44203 0.0
C151 C 0.47786 0.93045 0.56984 0.0
C152 C 0.45658 0.91543 0.51502 0.0
C153 C 0.52589 0.95175 0.57874 0.0
O154 O 0.49109 0.99288 0.79944 0.0
O155 O 0.50318 0.00377 0.95945 0.0
O156 O 0.53862 0.04518 0.86526 0.0
O157 O 0.54267 0.02012 0.71298 0.0
O158 O 0.56947 0.02305 0.08524 0.0
O159 O 0.53523 0.04834 0.06323 0.0
O160 O 0.58747 0.0189 0.87712 0.0
O161 O 0.58011 0.98256 0.75775 0.0
O162 O 0.52522 0.95602 0.84268 0.0
O163 O 0.55508 0.97604 0.96318 0.0
C164 C 0.48382 0.99868 0.89108 0.0
O165 O 0.51659 0.97559 0.60219 0.0
O166 O 0.54123 0.94554 0.64687 0.0
C167 C 0.5408 0.04296 0.77164 0.0
C168 C 0.57253 0.06679 0.16776 0.0
C169 C 0.61166 0.10116 0.28066 0.0
C170 C 0.5839 0.09792 0.31465 0.0
C171 C 0.56457 0.08058 0.2588 0.0
C172 C 0.59863 0.07266 0.1285 0.0
C173 C 0.61808 0.08969 0.18451 0.0
C174 C 0.55536 0.04409 0.12086 0.0
C175 C 0.59696 0.00129 0.80468 0.0
H176 H 0.49579 0.89061 0.31586 0.0
H177 H 0.53298 0.91725 0.41207 0.0
H178 H 0.47251 0.94221 0.63934 0.0
H179 H 0.4351 0.91655 0.54332 0.0
H180 H 0.57798 0.10693 0.3874 0.0
H181 H 0.54421 0.07656 0.28944 0.0
H182 H 0.60493 0.06244 0.05758 0.0
H183 H 0.63916 0.09154 0.15529 0.0
Tb184 Tb 0.51846 0.49044 0.9259 0.0
Tb185 Tb 0.55919 0.50938 0.76116 0.0
C186 C 0.49341 0.50014 0.72825 0.0
C187 C 0.4959 0.44634 0.08675 0.0
C188 C 0.50585 0.39967 0.15463 0.0
C189 C 0.47788 0.40793 0.14214 0.0
C190 C 0.47301 0.43097 0.10877 0.0
C191 C 0.52385 0.43838 0.09948 0.0
C192 C 0.52877 0.41543 0.13354 0.0
C193 C 0.49033 0.46912 0.04247 0.0
O194 O 0.5473 0.45921 0.86866 0.0
O195 O 0.55357 0.46708 0.71762 0.0
O196 O 0.58856 0.49915 0.86755 0.0
O197 O 0.5583 0.50543 0.99711 0.0
O198 O 0.5943 0.53185 0.72993 0.0
O199 O 0.56847 0.50949 0.6163 0.0
O200 O 0.54705 0.54408 0.86292 0.0
O201 O 0.50684 0.5313 0.93654 0.0
O202 O 0.4931 0.48547 0.79352 0.0
O203 O 0.51546 0.51533 0.71948 0.0
C204 C 0.55275 0.45092 0.77738 0.0
O205 O 0.50661 0.48985 0.0687 0.0
O206 O 0.48677 0.46356 0.94975 0.0
C207 C 0.58422 0.50311 0.96118 0.0
C208 C 0.58442 0.55147 0.59878 0.0
C209 C 0.57806 0.59872 0.53216 0.0
C210 C 0.60435 0.58576 0.52368 0.0
C211 C 0.60748 0.56239 0.55672 0.0
C212 C 0.55815 0.56418 0.60687 0.0
C213 C 0.55496 0.58744 0.57368 0.0
C214 C 0.5881 0.5277 0.63871 0.0
C215 C 0.52354 0.54954 0.91268 0.0
H216 H 0.45962 0.39625 0.15572 0.0
H217 H 0.45128 0.43649 0.09804 0.0
H218 H 0.54192 0.44973 0.08183 0.0
H219 H 0.5506 0.4101 0.1434 0.0
H220 H 0.62273 0.59391 0.49326 0.0
H221 H 0.62802 0.55302 0.55053 0.0
H222 H 0.54007 0.5562 0.63954 0.0
H223 H 0.53426 0.59646 0.58005 0.0
Tb224 Tb 0.04657 0.51458 0.75765 0.0
Tb225 Tb 1.02779 0.48871 0.93792 0.0
C226 C 1.02929 0.54978 0.95475 0.0
C227 C 0.07753 0.51058 0.52734 0.0
C228 C 0.1046 0.4726 0.38793 0.0
C229 C 0.11158 0.47574 0.48584 0.0
C230 C 0.09816 0.49433 0.55444 0.0
C231 C 0.07032 0.50768 0.42981 0.0
C232 C 0.0839 0.4889 0.36035 0.0
C233 C 0.06073 0.52712 0.60273 0.0
O234 O 0.08645 0.50205 0.81386 0.0
O235 O 0.07102 0.50426 0.96732 0.0
O236 O 0.04736 0.45629 0.84072 0.0
O237 O 0.04087 0.47279 0.70485 0.0
O238 O 1.03708 0.48355 0.07767 0.0
O239 O 0.99829 0.46788 1.00665 0.0
O240 O 0.99167 0.48431 0.83692 0.0
O241 O 1.00091 0.52097 0.77769 0.0
O242 O 0.04561 0.54771 0.87826 0.0
O243 O 1.01559 0.52949 0.9756 0.0
C244 C 0.09193 0.50366 0.90566 0.0
O245 O 1.03581 0.51717 0.61641 0.0
O246 O 0.07394 0.53609 0.68403 0.0
C247 C 0.04673 0.45331 0.74673 0.0
C248 C 0.9953 0.4913 0.16632 0.0
C249 C 0.96952 0.52866 0.31087 0.0
C250 C 0.96258 0.52699 0.21362 0.0
C251 C 0.97535 0.50865 0.14241 0.0
C252 C 1.00235 0.49269 0.26327 0.0
C253 C 0.98936 0.51115 0.33534 0.0
C254 C 1.01145 0.47486 0.08889 0.0
C255 C 0.98304 0.50264 0.79287 0.0
H256 H 0.12798 0.46419 0.50994 0.0
H257 H 0.10371 0.49566 0.62924 0.0
H258 H 0.0539 0.51957 0.40772 0.0
H259 H 0.07812 0.48705 0.28545 0.0
H260 H 0.94679 0.53958 0.19214 0.0
H261 H 0.96988 0.50841 0.06815 0.0
H262 H 1.01819 0.47985 0.28297 0.0
H263 H 0.99494 0.51185 0.4098 0.0
H264 H 0.20169 0.9519 0.25471 0.0
H265 H 0.23827 0.02624 0.39114 0.0
H266 H 0.16043 0.95958 0.36154 0.0
H267 H 0.19647 0.03458 0.4969 0.0
H268 H 0.13752 0.02116 0.74883 0.0
H269 H 0.17635 0.01824 0.6328 0.0
H270 H 0.11801 0.9848 0.4042 0.0
H271 H 0.07924 0.98751 0.52026 0.0
C272 C 0.20041 0.97026 0.30597 0.0
C273 C 0.22307 0.98854 0.31409 0.0
C274 C 0.17672 0.97474 0.36707 0.0
C275 C 0.17487 0.99773 0.43817 0.0
C276 C 0.19716 0.01653 0.44381 0.0
C277 C 0.22094 0.01199 0.38238 0.0
C278 C 0.13286 0.01333 0.67378 0.0
C279 C 0.10508 0.00446 0.64459 0.0
C280 C 0.15519 0.01182 0.60684 0.0
C281 C 0.15053 0.00124 0.50857 0.0
C282 C 0.12263 0.9928 0.47918 0.0
C283 C 0.10027 0.99447 0.54599 0.0
H284 H 0.58561 0.19435 0.63573 0.0
H285 H 0.50626 0.17296 0.48549 0.0
H286 H 0.58537 0.15251 0.68824 0.0
H287 H 0.50643 0.13054 0.53501 0.0
H288 H 0.53316 0.04784 0.58386 0.0
H289 H 0.53522 0.08788 0.51879 0.0
H290 H 0.55341 0.13303 0.80237 0.0
H291 H 0.55113 0.09328 0.86763 0.0
C292 C 0.56818 0.1806 0.61355 0.0
C293 C 0.54578 0.18709 0.55749 0.0
C294 C 0.56805 0.15662 0.64344 0.0
C295 C 0.54573 0.13826 0.61668 0.0
C296 C 0.52399 0.1442 0.55661 0.0
C297 C 0.52392 0.16843 0.52792 0.0
C298 C 0.53758 0.0663 0.63242 0.0
C299 C 0.54189 0.06724 0.73125 0.0
C300 C 0.53865 0.08926 0.59507 0.0
C301 C 0.54454 0.11366 0.6553 0.0
C302 C 0.54908 0.11455 0.7538 0.0
C303 C 0.54757 0.09172 0.79135 0.0
H304 H 0.38041 0.48956 0.22619 0.0
H305 H 0.3236 0.48726 0.46213 0.0
H306 H 0.42132 0.4955 0.33712 0.0
H307 H 0.36398 0.49355 0.57383 0.0
H308 H 0.44332 0.47188 0.72539 0.0
H309 H 0.40317 0.46937 0.61515 0.0
H310 H 0.44624 0.52377 0.46907 0.0
H311 H 0.48674 0.52595 0.5787 0.0
C312 C 0.37672 0.49091 0.30226 0.0
C313 C 0.34892 0.48806 0.33582 0.0
C314 C 0.4001 0.49427 0.36604 0.0
C315 C 0.39619 0.49476 0.46499 0.0
C316 C 0.36809 0.49276 0.4983 0.0
C317 C 0.34485 0.48942 0.43463 0.0
C318 C 0.4443 0.4834 0.67005 0.0
C319 C 0.46845 0.49915 0.66164 0.0
C320 C 0.42107 0.48209 0.60681 0.0
C321 C 0.42116 0.49646 0.5328 0.0
C322 C 0.44535 0.51221 0.52427 0.0
C323 C 0.46859 0.51358 0.58781 0.0
H324 H 0.06749 0.28758 0.48149 0.0
H325 H 1.02058 0.32177 0.27933 0.0
H326 H 0.07465 0.33087 0.58478 0.0
H327 H 1.02707 0.36513 0.38225 0.0
H328 H 0.05794 0.44233 0.55468 0.0
H329 H 0.06019 0.39972 0.44782 0.0
H330 H 0.04585 0.36235 0.68911 0.0
H331 H 0.04434 0.40516 0.7968 0.0
C332 C 0.05914 0.30458 0.45888 0.0
C333 C 0.0437 0.30162 0.37272 0.0
C334 C 0.06295 0.32928 0.51812 0.0
C335 C 0.05128 0.35154 0.49239 0.0
C336 C 1.03671 0.34854 0.40395 0.0
C337 C 1.03296 0.3238 0.3448 0.0
C338 C 0.05546 0.42504 0.58526 0.0
C339 C 0.05064 0.42717 0.68435 0.0
C340 C 0.05663 0.40056 0.52371 0.0
C341 C 0.05286 0.37753 0.55938 0.0
C342 C 0.04911 0.37964 0.6591 0.0
C343 C 0.04811 0.4042 0.72096 0.0
H344 H 0.84945 0.9789 0.32713 0.0
H345 H 0.87265 0.06026 0.41926 0.0
H346 H 0.89275 0.97213 0.22744 0.0
H347 H 0.91476 0.05397 0.31641 0.0
H348 H 0.95705 0.0398 0.01632 0.0
H349 H 0.91902 0.04362 0.13472 0.0
H350 H 0.94942 0.97549 0.22898 0.0
H351 H 0.98827 0.97187 0.11042 0.0
C352 C 0.8641 0.99517 0.32782 0.0
C353 C 0.85746 0.02018 0.38054 0.0
C354 C 0.88882 0.99137 0.27029 0.0
C355 C 0.90712 0.01259 0.26298 0.0
C356 C 0.90106 0.03724 0.31942 0.0
C357 C 0.87691 0.04086 0.37838 0.0
C358 C 0.9558 0.02558 0.06215 0.0
C359 C 0.9758 0.00546 0.05321 0.0
C360 C 0.93399 0.02788 0.13065 0.0
C361 C 0.93106 0.00987 0.19162 0.0
C362 C 0.95095 0.98961 0.18284 0.0
C363 C 0.97328 0.98762 0.11522 0.0
H364 H 0.57767 0.81705 0.15711 0.0
H365 H 0.48681 0.81304 0.11242 0.0
H366 H 0.57988 0.85918 0.10594 0.0
H367 H 0.48869 0.85508 0.06152 0.0
H368 H 0.50811 0.91091 0.85799 0.0
H369 H 0.50591 0.87138 0.92348 0.0
H370 H 0.56652 0.90548 0.1439 0.0
H371 H 0.56901 0.9452 0.07736 0.0
C372 C 0.55812 0.82545 0.13781 0.0
C373 C 0.53209 0.81175 0.13818 0.0
C374 C 0.55933 0.84958 0.10844 0.0
C375 C 0.5345 0.86051 0.07842 0.0
C376 C 0.50834 0.84708 0.08204 0.0
C377 C 0.50718 0.82304 0.11146 0.0
C378 C 0.52101 0.91011 0.92048 0.0
C379 C 0.53879 0.93139 0.96206 0.0
C380 C 0.51957 0.8874 0.95863 0.0
C381 C 0.53592 0.88514 0.03949 0.0
C382 C 0.55378 0.90638 0.08115 0.0
C383 C 0.55513 0.92924 0.04315 0.0
H384 H 0.69969 0.54678 0.45269 0.0
H385 H 0.74761 0.49027 0.25528 0.0
H386 H 0.6594 0.54065 0.34078 0.0
H387 H 0.70706 0.48328 0.14314 0.0
H388 H 0.64187 0.50096 0.92066 0.0
H389 H 0.68169 0.50453 0.03384 0.0
H390 H 0.62221 0.51179 0.26952 0.0
H391 H 0.58266 0.50877 0.15722 0.0
C392 C 0.70134 0.53273 0.38556 0.0
C393 C 0.72668 0.51898 0.3626 0.0
C394 C 0.67821 0.52906 0.32134 0.0
C395 C 0.67979 0.5115 0.23195 0.0
C396 C 0.70506 0.49724 0.21031 0.0
C397 C 0.72819 0.50093 0.27493 0.0
C398 C 0.63727 0.50329 0.99659 0.0
C399 C 0.60889 0.50471 0.02925 0.0
C400 C 0.66018 0.50517 0.06175 0.0
C401 C 0.65539 0.50853 0.16154 0.0
C402 C 0.62695 0.50965 0.19376 0.0
C403 C 0.60413 0.50778 0.12884 0.0
H404 H 0.05441 0.67687 0.4421 0.0
H405 H 1.01713 0.71443 0.22998 0.0
H406 H 0.04536 0.63388 0.33746 0.0
H407 H 1.00812 0.67176 0.12466 0.0
H408 H 0.04428 0.59806 0.92165 0.0
H409 H 0.04304 0.63993 0.03477 0.0
H410 H 1.00767 0.60169 0.25202 0.0
H411 H 1.00888 0.55972 0.13891 0.0
C412 C 0.04345 0.67573 0.37429 0.0
C413 C 1.03636 0.69868 0.34359 0.0
C414 C 1.03835 0.65126 0.31427 0.0
C415 C 1.02636 0.64949 0.22226 0.0
C416 C 1.01775 0.67251 0.19448 0.0
C417 C 1.02263 0.69685 0.25474 0.0
C418 C 1.03599 0.59858 0.99317 0.0
C419 C 1.02666 0.57552 0.02101 0.0
C420 C 1.03511 0.6226 0.05787 0.0
C421 C 1.02519 0.62411 0.1523 0.0
C422 C 1.01552 0.60112 0.17992 0.0
C423 C 1.01607 0.57712 0.11479 0.0
H424 H 0.96413 0.2195 0.303 0.0
H425 H 0.05124 0.19494 0.3036 0.0
H426 H 0.94769 0.17611 0.32581 0.0
H427 H 1.03524 0.15158 0.32354 0.0
H428 H 0.99926 0.07082 0.28904 0.0
H429 H 1.00719 0.1119 0.2349 0.0
H430 H 0.95312 0.15149 0.46262 0.0
H431 H 0.94573 0.11082 0.51826 0.0
C432 C 0.97961 0.20471 0.30817 0.0
C433 C 1.00881 0.21024 0.30233 0.0
C434 C 0.97033 0.17999 0.3204 0.0
C435 C 0.99021 0.16045 0.32528 0.0
C436 C 1.01943 0.16608 0.31813 0.0
C437 C 1.02862 0.19083 0.3075 0.0
C438 C 0.98879 0.08823 0.32677 0.0
C439 C 0.97229 0.08764 0.40897 0.0
C440 C 0.99327 0.11167 0.29563 0.0
C441 C 0.98106 0.13487 0.34551 0.0
C442 C 0.96265 0.13385 0.42256 0.0
C443 C 0.95837 0.11048 0.45423 0.0
H444 H 0.34215 0.97754 0.27345 0.0
H445 H 0.29188 0.90731 0.176 0.0
H446 H 0.38399 0.95148 0.28499 0.0
H447 H 0.33389 0.88069 0.19378 0.0
H448 H 0.41125 0.8782 0.45356 0.0
H449 H 0.36671 0.88401 0.37193 0.0
H450 H 0.414 0.91319 0.15436 0.0
H451 H 0.45828 0.90802 0.23561 0.0
C452 C 0.34031 0.95647 0.25268 0.0
C453 C 0.31416 0.94436 0.22188 0.0
C454 C 0.36414 0.94156 0.25942 0.0
C455 C 0.36213 0.91416 0.23823 0.0
C456 C 0.33589 0.90182 0.20876 0.0
C457 C 0.31204 0.91691 0.19936 0.0
C458 C 0.41223 0.88475 0.38599 0.0
C459 C 0.43821 0.89361 0.35328 0.0
C460 C 0.38675 0.88779 0.33881 0.0
C461 C 0.38715 0.89953 0.25837 0.0
C462 C 0.41333 0.90418 0.2167 0.0
C463 C 0.43874 0.90116 0.26363 0.0
H464 H 0.50499 0.2921 0.54601 0.0
H465 H 0.58926 0.28292 0.65332 0.0
H466 H 0.51007 0.33966 0.59534 0.0
H467 H 0.59403 0.33065 0.70732 0.0
H468 H 0.56792 0.41487 0.88163 0.0
H469 H 0.56762 0.36735 0.8295 0.0
H470 H 0.54392 0.37498 0.54314 0.0
H471 H 0.5446 0.42269 0.59473 0.0
C472 C 0.52453 0.30038 0.58073 0.0
C473 C 0.54688 0.28407 0.59505 0.0
C474 C 0.52748 0.32749 0.60868 0.0
C475 C 0.5526 0.33877 0.65385 0.0
C476 C 0.57449 0.32239 0.67231 0.0
C477 C 0.57172 0.29521 0.64236 0.0
C478 C 0.5631 0.40645 0.8071 0.0
C479 C 0.55625 0.42251 0.74218 0.0
C480 C 0.563 0.37926 0.77739 0.0
C481 C 0.55555 0.36757 0.68265 0.0
C482 C 0.54953 0.38359 0.61688 0.0
C483 C 0.55013 0.41084 0.64617 0.0
H484 H 0.25438 0.4339 0.0541 0.0
H485 H 0.25859 0.45202 0.36334 0.0
H486 H 0.20344 0.4226 0.06231 0.0
H487 H 0.20912 0.43854 0.37209 0.0
H488 H 0.123 0.42357 0.39771 0.0
H489 H 0.16661 0.40449 0.32274 0.0
H490 H 0.16813 0.46075 0.13879 0.0
H491 H 0.12526 0.48057 0.21625 0.0
C492 C 0.24465 0.43448 0.1235 0.0
C493 C 0.25999 0.44453 0.20815 0.0
C494 C 0.21575 0.42767 0.12813 0.0
C495 C 0.20238 0.42971 0.21776 0.0
C496 C 0.21891 0.43638 0.30189 0.0
C497 C 0.24733 0.44407 0.29712 0.0
C498 C 0.1321 0.43134 0.33896 0.0
C499 C 0.12174 0.45452 0.31641 0.0
C500 C 0.15685 0.42017 0.29536 0.0
C501 C 0.17109 0.43175 0.22732 0.0
C502 C 0.15763 0.45168 0.19188 0.0
C503 C 0.13311 0.46312 0.23657 0.0
H504 H 1.03543 0.79115 0.32204 0.0
H505 H 0.12044 0.78565 0.42889 0.0
H506 H 0.04966 0.82979 0.2598 0.0
H507 H 0.13519 0.82476 0.36674 0.0
H508 H 0.12666 0.91564 0.33874 0.0
H509 H 0.12164 0.87469 0.39786 0.0
H510 H 0.08342 0.83723 0.12742 0.0
H511 H 0.08829 0.87784 0.06901 0.0
C512 C 0.05722 0.79842 0.33164 0.0
C513 C 0.07699 0.78577 0.37903 0.0
C514 C 0.06544 0.8203 0.29599 0.0
C515 C 0.09362 0.82998 0.30754 0.0
C516 C 0.11338 0.81757 0.35687 0.0
C517 C 0.1051 0.79535 0.39191 0.0
C518 C 0.11784 0.89841 0.29153 0.0
C519 C 0.10734 0.89986 0.20023 0.0
C520 C 0.11501 0.87507 0.32515 0.0
C521 C 0.1017 0.85306 0.2676 0.0
C522 C 0.09325 0.85411 0.17375 0.0
C523 C 0.09602 0.87728 0.14043 0.0
H524 H 0.73522 0.02607 0.41427 0.0
H525 H 0.78473 0.09728 0.49925 0.0
H526 H 0.69234 0.05135 0.40841 0.0
H527 H 0.74164 0.12307 0.48836 0.0
H528 H 0.61738 0.09226 0.46266 0.0
H529 H 0.6626 0.08687 0.53708 0.0
H530 H 0.70636 0.12241 0.32796 0.0
H531 H 0.66076 0.12876 0.25387 0.0
C532 C 0.73671 0.0472 0.43281 0.0
C533 C 0.76293 0.05983 0.45867 0.0
C534 C 0.71229 0.06167 0.4298 0.0
C535 C 0.71372 0.08912 0.45019 0.0
C536 C 0.74006 0.10192 0.47402 0.0
C537 C 0.76455 0.08729 0.47936 0.0
C538 C 0.63626 0.10047 0.43534 0.0
C539 C 0.63554 0.10985 0.34917 0.0
C540 C 0.66227 0.09722 0.47822 0.0
C541 C 0.6878 0.10342 0.43596 0.0
C542 C 0.68686 0.1172 0.36099 0.0
C543 C 0.66074 0.1206 0.31813 0.0
H544 H 0.56375 0.71106 0.06305 0.0
H545 H 0.47516 0.71376 0.14183 0.0
H546 H 0.55957 0.66379 1.00411 0.0
H547 H 0.4705 0.66603 0.08253 0.0
H548 H 0.53831 0.58724 0.81656 0.0
H549 H 0.53459 0.63416 0.86865 0.0
H550 H 0.4902 0.62333 0.12441 0.0
H551 H 0.49374 0.57555 0.0711 0.0
C552 C 0.54326 0.70136 0.06579 0.0
C553 C 0.51965 0.71574 0.10457 0.0
C554 C 0.54078 0.67441 0.03254 0.0
C555 C 0.51461 0.6612 0.03798 0.0
C556 C 0.4909 0.67568 0.07752 0.0
C557 C 0.49341 0.70285 0.11026 0.0
C558 C 0.52749 0.59472 0.88366 0.0
C559 C 0.51679 0.57767 0.94073 0.0
C560 C 0.52542 0.62167 0.91349 0.0
C561 C 0.51265 0.63246 1.0015 0.0
C562 C 0.50021 0.61551 0.05618 0.0
C563 C 0.50223 0.58822 0.02586 0.0
H564 H 0.82176 0.56944 0.64528 0.0
H565 H 0.81781 0.55864 0.33695 0.0
H566 H 0.87297 0.57974 0.64095 0.0
H567 H 0.86778 0.57105 0.33265 0.0
H568 H 0.95555 0.57942 0.3119 0.0
H569 H 0.91321 0.60061 0.38937 0.0
H570 H 0.90452 0.54027 0.5544 0.0
H571 H 0.94593 0.51853 0.47555 0.0
C572 C 0.83159 0.57052 0.57728 0.0
C573 C 0.81629 0.56248 0.49116 0.0
C574 C 0.86069 0.57672 0.57494 0.0
C575 C 0.87434 0.57602 0.48647 0.0
C576 C 0.85782 0.57202 0.40208 0.0
C577 C 0.82912 0.56494 0.4043 0.0
C578 C 0.94522 0.57124 0.36767 0.0
C579 C 0.95323 0.54672 0.3847 0.0
C580 C 0.9212 0.58355 0.41259 0.0
C581 C 0.90533 0.5717 0.47631 0.0
C582 C 0.91643 0.5498 0.50588 0.0
C583 C 0.94018 0.53724 0.46006 0.0
H584 H 0.08497 0.21734 0.15903 0.0
H585 H 0.99565 0.21218 0.08813 0.0
H586 H 0.09194 0.1739 0.05801 0.0
H587 H 1.00216 0.1688 0.98784 0.0
H588 H 1.02351 0.09178 0.79301 0.0
H589 H 1.02432 0.13939 0.84778 0.0
H590 H 0.07533 0.13151 0.09286 0.0
H591 H 0.07474 0.08433 0.0384 0.0
C592 C 0.06715 0.20735 0.11808 0.0
C593 C 0.03984 0.21799 0.13033 0.0
C594 C 0.07096 0.18236 0.06155 0.0
C595 C 0.04752 0.16773 0.01584 0.0
C596 C 1.02071 0.17955 0.02125 0.0
C597 C 1.01693 0.20439 0.07825 0.0
C598 C 1.03527 0.10026 0.85773 0.0
C599 C 0.04888 0.08418 0.91161 0.0
C600 C 1.03567 0.12753 0.8892 0.0
C601 C 0.04999 0.13927 0.97449 0.0
C602 C 0.06451 0.1232 0.02603 0.0
C603 C 0.06391 0.09605 0.99518 0.0
H604 H 0.32089 0.02605 0.20109 0.0
H605 H 0.31112 0.95011 0.01741 0.0
H606 H 0.36617 0.03276 0.12222 0.0
H607 H 0.35655 0.95626 0.93949 0.0
H608 H 0.46198 0.0173 0.06969 0.0
H609 H 0.41324 0.01564 0.12532 0.0
H610 H 0.3862 0.9785 0.83914 0.0
H611 H 0.43566 0.97987 0.78302 0.0
C612 C 0.328 0.01116 0.14168 0.0
C613 C 0.31231 0.98764 0.11502 0.0
C614 C 0.35425 0.01473 0.09738 0.0
C615 C 0.36551 0.99491 0.02482 0.0
C616 C 0.34875 0.97209 0.99422 0.0
C617 C 0.32262 0.96853 0.03879 0.0
C618 C 0.44576 0.00885 0.01788 0.0
C619 C 0.45309 0.99863 0.92145 0.0
C620 C 0.41753 0.00814 0.04998 0.0
C621 C 0.39539 0.99708 0.98714 0.0
C622 C 0.40257 0.98706 0.89016 0.0
C623 C 0.43098 0.98796 0.85766 0.0
H624 H 0.49226 0.25285 0.36514 0.0
H625 H 0.58032 0.2771 0.4021 0.0
H626 H 0.48342 0.28842 0.27945 0.0
H627 H 0.57191 0.31252 0.31633 0.0
H628 H 0.54882 0.36422 0.10167 0.0
H629 H 0.55761 0.32409 0.15918 0.0
H630 H 0.48306 0.3375 0.33915 0.0
H631 H 0.47466 0.37803 0.28452 0.0
C632 C 0.50991 0.2652 0.35134 0.0
C633 C 0.537 0.26218 0.38893 0.0
C634 C 0.50483 0.2858 0.30387 0.0
C635 C 0.52691 0.3035 0.29185 0.0
C636 C 0.55448 0.2992 0.32363 0.0
C637 C 0.5594 0.27886 0.37211 0.0
C638 C 0.53441 0.35887 0.1543 0.0
C639 C 0.51102 0.37468 0.18838 0.0
C640 C 0.53938 0.33569 0.18671 0.0
C641 C 0.52092 0.32744 0.25319 0.0
C642 C 0.49739 0.34299 0.28646 0.0
C643 C 0.49258 0.36631 0.25493 0.0
H644 H 0.24553 0.51543 0.27008 0.0
H645 H 0.27231 0.47327 0.99373 0.0
H646 H 0.20047 0.52543 0.20095 0.0
H647 H 0.22649 0.48078 0.92433 0.0
H648 H 0.14268 0.50105 0.80412 0.0
H649 H 0.19118 0.50192 0.86679 0.0
H650 H 0.15752 0.50972 0.15446 0.0
H651 H 0.10973 0.5095 0.0921 0.0
C652 C 0.24179 0.50868 0.19383 0.0
C653 C 0.26236 0.49368 0.13714 0.0
C654 C 0.21558 0.51381 0.15388 0.0
C655 C 0.20878 0.50342 0.05632 0.0
C656 C 0.23035 0.48953 0.99901 0.0
C657 C 0.25682 0.48508 0.03868 0.0
C658 C 0.14573 0.50301 0.88082 0.0
C659 C 0.12203 0.5049 0.9425 0.0
C660 C 0.17374 0.50331 0.91726 0.0
C661 C 0.17901 0.50542 0.01668 0.0
C662 C 0.15509 0.50815 0.07792 0.0
C663 C 0.12726 0.5078 0.04166 0.0
H664 H 0.99818 0.78705 0.52067 0.0
H665 H 0.087 0.79415 0.59854 0.0
H666 H 0.99016 0.83123 0.61412 0.0
H667 H 0.07986 0.8385 0.68728 0.0
H668 H 0.06128 0.91441 0.87708 0.0
H669 H 0.06139 0.86726 0.81877 0.0
H670 H 0.9998 0.8748 0.60008 0.0
H671 H 0.99875 0.92186 0.662 0.0
C672 C 1.01578 0.79787 0.56014 0.0
C673 C 0.04313 0.7872 0.55385 0.0
C674 C 1.0114 0.82335 0.61222 0.0
C675 C 1.03437 0.83873 0.65826 0.0
C676 C 0.06145 0.82736 0.65477 0.0
C677 C 0.06568 0.80194 0.60359 0.0
C678 C 0.0475 0.90593 0.81728 0.0
C679 C 1.03021 0.92191 0.77353 0.0
C680 C 0.04765 0.87885 0.78333 0.0
C681 C 1.03095 0.86702 0.70339 0.0
C682 C 1.01274 0.88298 0.66232 0.0
C683 C 1.01223 0.91007 0.69746 0.0
H684 H 0.76195 0.9784 0.50002 0.0
H685 H 0.76518 0.05756 0.66071 0.0
H686 H 0.71738 0.97057 0.58052 0.0
H687 H 0.71999 0.05072 0.73703 0.0
H688 H 0.64204 0.03087 0.89702 0.0
H689 H 0.69089 0.03392 0.84054 0.0
H690 H 0.66929 0.979 0.57866 0.0
H691 H 0.62112 0.9751 0.63742 0.0
C692 C 0.75345 0.99393 0.55444 0.0
C693 C 0.76719 0.01856 0.57423 0.0
C694 C 0.72745 0.98972 0.59937 0.0
C695 C 0.71425 0.01011 0.66489 0.0
C696 C 0.72911 0.03429 0.68834 0.0
C697 C 0.75518 0.03833 0.64435 0.0
C698 C 0.64779 0.01927 0.82773 0.0
C699 C 0.62738 0.0027 0.77224 0.0
C700 C 0.67595 0.02114 0.79462 0.0
C701 C 0.68462 0.00678 0.70413 0.0
C702 C 0.66411 0.99005 0.64934 0.0
C703 C 0.63614 0.98794 0.68298 0.0
H704 H 0.59008 0.73709 0.26585 0.0
H705 H 0.50163 0.72731 0.33238 0.0
H706 H 0.6025 0.70166 0.34844 0.0
H707 H 0.51354 0.69199 0.41458 0.0
H708 H 0.54668 0.64143 0.61435 0.0
H709 H 0.53869 0.68119 0.55396 0.0
H710 H 0.59398 0.6533 0.31349 0.0
H711 H 0.60158 0.61322 0.37255 0.0
C712 C 0.5735 0.72782 0.30096 0.0
C713 C 0.54502 0.73507 0.29477 0.0
C714 C 0.58045 0.70735 0.3469 0.0
C715 C 0.559 0.6939 0.38801 0.0
C716 C 0.53065 0.70208 0.38501 0.0
C717 C 0.52377 0.72232 0.33838 0.0
C718 C 0.55702 0.6436 0.54819 0.0
C719 C 0.57457 0.62381 0.498 0.0
C720 C 0.55254 0.66653 0.51385 0.0
C721 C 0.56565 0.67047 0.42877 0.0
C722 C 0.58385 0.65109 0.37997 0.0
C723 C 0.5882 0.62805 0.41395 0.0
H724 H 0.80142 0.52628 0.69515 0.0
H725 H 0.83656 0.49654 0.41565 0.0
H726 H 0.84713 0.51936 0.77026 0.0
H727 H 0.88206 0.48845 0.4904 0.0
H728 H 0.94743 0.54397 0.80586 0.0
H729 H 0.89879 0.54406 0.74241 0.0
H730 H 0.9031 0.46118 0.62888 0.0
H731 H 0.95128 0.46083 0.69747 0.0
C732 C 0.81863 0.51724 0.65029 0.0
C733 C 0.81542 0.51163 0.54989 0.0
C734 C 0.84484 0.51353 0.69299 0.0
C735 C 0.86822 0.50337 0.6363 0.0
C736 C 0.86437 0.49606 0.53606 0.0
C737 C 0.83835 0.50047 0.49324 0.0
C738 C 0.93785 0.52572 0.76852 0.0
C739 C 0.95313 0.50238 0.75714 0.0
C740 C 0.90997 0.52573 0.73251 0.0
C741 C 0.89708 0.50262 0.6806 0.0
C742 C 0.91243 0.47928 0.66857 0.0
C743 C 0.93995 0.47908 0.70801 0.0
loop_
_geom_bond_atom_site_label_1
_geom_bond_atom_site_label_2
_geom_bond_distance
_geom_bond_site_symmetry_2
_ccdc_geom_bond_type
C0 N1 1.317 . S
C0 N2 1.348 . S
C0 C3 1.485 . S
N1 C0 1.317 . S
N1 N5 1.370 . S
N2 C0 1.348 . S
N2 C4 1.346 . S
C3 C0 1.485 . S
C3 H7 0.960 . S
C3 H8 0.961 . S
C3 H9 0.960 . S
C4 N2 1.346 . S
C4 N5 1.307 . S
C4 C6 1.486 . S
N5 N1 1.370 . S
N5 C4 1.307 . S
C6 C4 1.486 . S
C6 H10 0.960 . S
C6 H11 0.960 . S
C6 H12 0.959 . S
H7 C3 0.960 . S
H8 C3 0.961 . S
H9 C3 0.960 . S
H10 C6 0.960 . S
H11 C6 0.960 . S
H12 C6 0.959 . S
C13 N14 1.317 . S
C13 N15 1.351 . S
C13 C16 1.485 . S
N14 C13 1.317 . S
N14 N18 1.371 . S
N15 C13 1.351 . S
N15 C17 1.346 1_655 S
C16 C13 1.485 . S
C16 H20 0.960 1_655 S
C16 H21 0.961 . S
C16 H22 0.960 . S
C17 N15 1.346 1_455 S
C17 N18 1.307 1_455 S
C17 C19 1.485 . S
N18 N14 1.371 . S
N18 C17 1.307 1_655 S
C19 C17 1.485 . S
C19 H23 0.922 1_455 S
C19 H24 0.992 . S
C19 H25 0.967 . S
H20 C16 0.960 1_455 S
H21 C16 0.961 . S
H22 C16 0.960 . S
H23 C19 0.922 1_655 S
H24 C19 0.992 . S
H25 C19 0.967 . S
C26 N27 1.317 . S
C26 N28 1.358 . S
C26 C29 1.485 . S
N27 C26 1.317 . S
N27 N31 1.374 . S
N28 C26 1.358 . S
N28 C30 1.339 1_565 S
C29 C26 1.485 . S
C29 H33 0.960 1_565 S
C29 H34 0.961 . S
C29 H35 0.960 . S
C30 N28 1.339 1_545 S
C30 N31 1.306 1_545 S
C30 C32 1.476 . S
N31 N27 1.374 . S
N31 C30 1.306 1_565 S
C32 C30 1.476 . S
C32 H36 0.925 1_545 S
C32 H37 0.993 . S
C32 H38 0.972 . S
H33 C29 0.960 1_545 S
H34 C29 0.961 . S
H35 C29 0.960 . S
H36 C32 0.925 1_565 S
H37 C32 0.993 . S
H38 C32 0.972 . S
C39 N40 1.317 . S
C39 N41 1.348 1_554 S
C39 C42 1.485 . S
N40 C39 1.317 . S
N40 N44 1.370 1_554 S
N41 C39 1.348 1_556 S
N41 C43 1.346 . S
C42 C39 1.485 . S
C42 H46 0.960 . S
C42 H47 0.961 . S
C42 H48 0.960 . S
C43 N41 1.346 . S
C43 N44 1.307 . S
C43 C45 1.486 . S
N44 N40 1.370 1_556 S
N44 C43 1.307 . S
C45 C43 1.486 . S
C45 H49 0.960 . S
C45 H50 0.960 . S
C45 H51 0.959 . S
H46 C42 0.960 . S
H47 C42 0.961 . S
H48 C42 0.960 . S
H49 C45 0.960 . S
H50 C45 0.960 . S
H51 C45 0.959 . S
C52 N53 1.317 . S
C52 N54 1.348 . S
C52 C55 1.485 . S
N53 C52 1.317 . S
N53 N57 1.370 . S
N54 C52 1.348 . S
N54 C56 1.346 . S
C55 C52 1.485 . S
C55 H59 0.960 1_554 S
C55 H60 0.961 . S
C55 H61 0.960 1_554 S
C56 N54 1.346 . S
C56 N57 1.307 . S
C56 C58 1.486 . S
N57 N53 1.370 . S
N57 C56 1.307 . S
C58 C56 1.486 . S
C58 H62 0.960 . S
C58 H63 0.960 . S
C58 H64 0.959 . S
H59 C55 0.960 1_556 S
H60 C55 0.961 . S
H61 C55 0.960 1_556 S
H62 C58 0.960 . S
H63 C58 0.960 . S
H64 C58 0.959 . S
C65 N66 1.317 . S
C65 N67 1.349 . S
C65 C68 1.485 . S
N66 C65 1.317 . S
N66 N70 1.370 . S
N67 C65 1.349 . S
N67 C69 1.345 1_655 S
C68 C65 1.485 . S
C68 H72 0.960 1_655 S
C68 H73 0.961 . S
C68 H74 0.960 . S
C69 N67 1.345 1_455 S
C69 N70 1.307 1_455 S
C69 C71 1.486 . S
N70 N66 1.370 . S
N70 C69 1.307 1_655 S
C71 C69 1.486 . S
C71 H75 0.960 1_455 S
C71 H76 0.960 . S
C71 H77 0.959 . S
H72 C68 0.960 1_455 S
H73 C68 0.961 . S
H74 C68 0.960 . S
H75 C71 0.960 1_655 S
H76 C71 0.960 . S
H77 C71 0.959 . S
C78 N79 1.317 . S
C78 N80 1.344 . S
C78 C81 1.485 . S
N79 C78 1.317 . S
N79 N83 1.370 . S
N80 C78 1.344 . S
N80 C82 1.352 1_565 S
C81 C78 1.485 . S
C81 H85 0.960 1_565 S
C81 H86 0.961 . S
C81 H87 0.960 1_554 S
C82 N80 1.352 1_545 S
C82 N83 1.308 1_545 S
C82 C84 1.484 . S
N83 N79 1.370 . S
N83 C82 1.308 1_565 S
C84 C82 1.484 . S
C84 H88 0.960 1_545 S
C84 H89 0.960 . S
C84 H90 0.959 . S
H85 C81 0.960 1_545 S
H86 C81 0.961 . S
H87 C81 0.960 1_556 S
H88 C84 0.960 1_565 S
H89 C84 0.960 . S
H90 C84 0.959 . S
C91 N92 1.317 . S
C91 N93 1.348 . S
C91 C94 1.485 . S
N92 C91 1.317 . S
N92 N96 1.370 . S
N93 C91 1.348 . S
N93 C95 1.346 . S
C94 C91 1.485 . S
C94 H98 0.960 . S
C94 H99 0.961 . S
C94 H100 0.960 . S
C95 N93 1.346 . S
C95 N96 1.307 . S
C95 C97 1.486 . S
N96 N92 1.370 . S
N96 C95 1.307 . S
C97 C95 1.486 . S
C97 H101 0.960 . S
C97 H102 0.960 . S
C97 H103 0.959 . S
H98 C94 0.960 . S
H99 C94 0.961 . S
H100 C94 0.960 . S
H101 C97 0.960 . S
H102 C97 0.960 . S
H103 C97 0.959 . S
Tb104 C113 2.764 . S
Tb104 O114 2.325 . S
Tb104 O117 2.303 1_655 S
Tb104 O121 2.322 1_545 S
Tb104 O122 2.349 . S
Tb104 O125 2.415 . S
Tb104 O126 2.399 . S
Tb105 O115 2.322 1_565 S
Tb105 O116 2.349 . S
Tb105 O118 2.415 1_556 S
Tb105 O119 2.399 . S
Tb105 O120 2.325 . S
Tb105 O123 2.303 1_455 S
Tb105 C134 2.764 1_556 S
C106 O122 1.270 . S
C106 O123 1.254 1_545 S
C107 C110 1.358 . S
C107 C111 1.332 . S
C107 C113 1.504 . S
C108 C109 1.373 . S
C108 C112 1.308 . S
C109 C108 1.373 . S
C109 C110 1.429 . S
C109 H136 0.932 . S
C110 C107 1.358 . S
C110 C109 1.429 . S
C110 H137 0.930 . S
C111 C107 1.332 . S
C111 C112 1.394 . S
C111 H138 0.932 1_655 S
C112 C108 1.308 . S
C112 C111 1.394 . S
C112 H139 0.926 . S
C113 Tb104 2.764 . S
C113 C107 1.504 . S
C113 O125 1.239 . S
C113 O126 1.263 . S
O114 Tb104 2.325 . S
O114 C124 1.236 1_655 S
O115 Tb105 2.322 1_545 S
O115 C124 1.257 . S
O116 Tb105 2.349 . S
O116 C127 1.264 . S
O117 Tb104 2.303 1_455 S
O117 C127 1.256 1_545 S
O118 Tb105 2.415 1_554 S
O118 C134 1.239 . S
O119 Tb105 2.399 . S
O119 C134 1.263 1_556 S
O120 Tb105 2.325 . S
O120 C135 1.236 1_455 S
O121 Tb104 2.322 1_565 S
O121 C135 1.257 . S
O122 Tb104 2.349 . S
O122 C106 1.270 . S
O123 Tb105 2.303 1_655 S
O123 C106 1.254 1_565 S
C124 O114 1.236 1_455 S
C124 O115 1.257 . S
O125 Tb104 2.415 . S
O125 C113 1.239 . S
O126 Tb104 2.399 . S
O126 C113 1.263 . S
C127 O116 1.264 . S
C127 O117 1.256 1_565 S
C128 C131 1.358 . S
C128 C132 1.332 . S
C128 C134 1.504 . S
C129 C130 1.373 . S
C129 C133 1.308 . S
C130 C129 1.373 . S
C130 C131 1.429 . S
C130 H140 0.932 . S
C131 C128 1.358 . S
C131 C130 1.429 . S
C131 H141 0.930 . S
C132 C128 1.332 . S
C132 C133 1.394 . S
C132 H142 0.932 1_455 S
C133 C129 1.308 . S
C133 C132 1.394 . S
C133 H143 0.934 . S
C134 Tb105 2.764 1_554 S
C134 O118 1.239 . S
C134 O119 1.263 1_554 S
C134 C128 1.504 . S
C135 O120 1.236 1_655 S
C135 O121 1.257 . S
H136 C109 0.932 . S
H137 C110 0.930 . S
H138 C111 0.932 1_455 S
H139 C112 0.926 . S
H140 C130 0.932 . S
H141 C131 0.930 . S
H142 C132 0.932 1_655 S
H143 C133 0.934 . S
Tb144 C153 2.764 . S
Tb144 O154 2.325 . S
Tb144 O157 2.303 1_565 S
Tb144 O161 2.322 . S
Tb144 O162 2.349 . S
Tb144 O165 2.415 1_565 S
Tb144 O166 2.399 . S
Tb145 O155 2.322 . S
Tb145 O156 2.349 . S
Tb145 O158 2.415 1_546 S
Tb145 O159 2.399 1_556 S
Tb145 O160 2.325 . S
Tb145 O163 2.303 1_545 S
Tb145 C174 2.764 1_556 S
C146 O162 1.261 . S
C146 O163 1.257 . S
C147 C150 1.358 . S
C147 C151 1.332 1_565 S
C147 C153 1.504 . S
C148 C149 1.373 . S
C148 C152 1.308 1_565 S
C149 C148 1.373 . S
C149 C150 1.429 . S
C149 H176 0.932 . S
C150 C147 1.358 . S
C150 C149 1.429 . S
C150 H177 0.930 . S
C151 C147 1.332 1_545 S
C151 C152 1.394 . S
C151 H178 0.932 . S
C152 C148 1.308 1_545 S
C152 C151 1.394 . S
C152 H179 0.929 . S
C153 Tb144 2.764 . S
C153 C147 1.504 . S
C153 O165 1.239 1_565 S
C153 O166 1.263 . S
O154 Tb144 2.325 . S
O154 C164 1.236 1_565 S
O155 Tb145 2.322 . S
O155 C164 1.257 . S
O156 Tb145 2.349 . S
O156 C167 1.261 . S
O157 Tb144 2.303 1_545 S
O157 C167 1.257 . S
O158 Tb145 2.415 1_564 S
O158 C174 1.239 1_565 S
O159 Tb145 2.399 1_554 S
O159 C174 1.263 . S
O160 Tb145 2.325 . S
O160 C175 1.236 1_545 S
O161 Tb144 2.322 . S
O161 C175 1.257 . S
O162 Tb144 2.349 . S
O162 C146 1.261 . S
O163 Tb145 2.303 1_565 S
O163 C146 1.257 . S
C164 O154 1.236 1_545 S
C164 O155 1.257 . S
O165 Tb144 2.415 1_545 S
O165 C153 1.239 1_545 S
O166 Tb144 2.399 . S
O166 C153 1.263 . S
C167 O156 1.261 . S
C167 O157 1.257 . S
C168 C171 1.358 . S
C168 C172 1.332 1_545 S
C168 C174 1.504 . S
C169 C170 1.373 . S
C169 C173 1.308 1_545 S
C170 C169 1.373 . S
C170 C171 1.429 . S
C170 H180 0.932 . S
C171 C168 1.358 . S
C171 C170 1.429 . S
C171 H181 0.930 . S
C172 C168 1.332 1_565 S
C172 C173 1.394 . S
C172 H182 0.932 . S
C173 C169 1.308 1_565 S
C173 C172 1.394 . S
C173 H183 0.929 . S
C174 Tb145 2.764 1_554 S
C174 O158 1.239 1_545 S
C174 O159 1.263 . S
C174 C168 1.504 . S
C175 O160 1.236 1_565 S
C175 O161 1.257 . S
H176 C149 0.932 . S
H177 C150 0.930 . S
H178 C151 0.932 . S
H179 C152 0.929 . S
H180 C170 0.932 . S
H181 C171 0.930 . S
H182 C172 0.932 . S
H183 C173 0.929 . S
Tb184 C193 2.764 1_556 S
Tb184 O194 2.325 . S
Tb184 O197 2.303 . S
Tb184 O201 2.322 . S
Tb184 O202 2.349 . S
Tb184 O205 2.415 1_556 S
Tb184 O206 2.399 1_556 S
Tb185 O195 2.322 . S
Tb185 O196 2.349 . S
Tb185 O198 2.415 . S
Tb185 O199 2.399 . S
Tb185 O200 2.325 . S
Tb185 O203 2.303 . S
Tb185 C214 2.764 . S
C186 O202 1.261 . S
C186 O203 1.257 . S
C187 C190 1.358 . S
C187 C191 1.332 . S
C187 C193 1.504 . S
C188 C189 1.373 . S
C188 C192 1.308 . S
C189 C188 1.373 . S
C189 C190 1.429 . S
C189 H216 0.932 . S
C190 C187 1.358 . S
C190 C189 1.429 . S
C190 H217 0.930 . S
C191 C187 1.332 . S
C191 C192 1.394 . S
C191 H218 0.932 . S
C192 C188 1.308 . S
C192 C191 1.394 . S
C192 H219 0.929 . S
C193 Tb184 2.764 1_554 S
C193 C187 1.504 . S
C193 O205 1.239 . S
C193 O206 1.263 . S
O194 Tb184 2.325 . S
O194 C204 1.236 . S
O195 Tb185 2.322 . S
O195 C204 1.257 . S
O196 Tb185 2.349 . S
O196 C207 1.261 . S
O197 Tb184 2.303 . S
O197 C207 1.257 . S
O198 Tb185 2.415 . S
O198 C214 1.239 . S
O199 Tb185 2.399 . S
O199 C214 1.263 . S
O200 Tb185 2.325 . S
O200 C215 1.236 . S
O201 Tb184 2.322 . S
O201 C215 1.257 . S
O202 Tb184 2.349 . S
O202 C186 1.261 . S
O203 Tb185 2.303 . S
O203 C186 1.257 . S
C204 O194 1.236 . S
C204 O195 1.257 . S
O205 Tb184 2.415 1_554 S
O205 C193 1.239 . S
O206 Tb184 2.399 1_554 S
O206 C193 1.263 . S
C207 O196 1.261 . S
C207 O197 1.257 . S
C208 C211 1.358 . S
C208 C212 1.332 . S
C208 C214 1.504 . S
C209 C210 1.373 . S
C209 C213 1.308 . S
C210 C209 1.373 . S
C210 C211 1.429 . S
C210 H220 0.932 . S
C211 C208 1.358 . S
C211 C210 1.429 . S
C211 H221 0.930 . S
C212 C208 1.332 . S
C212 C213 1.394 . S
C212 H222 0.932 . S
C213 C209 1.308 . S
C213 C212 1.394 . S
C213 H223 0.929 . S
C214 Tb185 2.764 . S
C214 O198 1.239 . S
C214 O199 1.263 . S
C214 C208 1.504 . S
C215 O200 1.236 . S
C215 O201 1.257 . S
H216 C189 0.932 . S
H217 C190 0.930 . S
H218 C191 0.932 . S
H219 C192 0.929 . S
H220 C210 0.932 . S
H221 C211 0.930 . S
H222 C212 0.932 . S
H223 C213 0.929 . S
Tb224 C233 2.764 . S
Tb224 O234 2.325 . S
Tb224 O237 2.303 . S
Tb224 O241 2.322 1_455 S
Tb224 O242 2.349 . S
Tb224 O245 2.415 . S
Tb224 O246 2.399 . S
Tb225 O235 2.322 1_655 S
Tb225 O236 2.349 . S
Tb225 O238 2.415 1_556 S
Tb225 O239 2.399 . S
Tb225 O240 2.325 . S
Tb225 O243 2.303 . S
Tb225 C254 2.764 1_556 S
C226 O242 1.261 . S
C226 O243 1.257 1_455 S
C227 C230 1.358 . S
C227 C231 1.332 . S
C227 C233 1.504 . S
C228 C229 1.373 . S
C228 C232 1.308 . S
C229 C228 1.373 . S
C229 C230 1.429 . S
C229 H256 0.932 . S
C230 C227 1.358 . S
C230 C229 1.429 . S
C230 H257 0.930 . S
C231 C227 1.332 . S
C231 C232 1.394 . S
C231 H258 0.932 . S
C232 C228 1.308 . S
C232 C231 1.394 . S
C232 H259 0.929 . S
C233 Tb224 2.764 . S
C233 C227 1.504 . S
C233 O245 1.239 . S
C233 O246 1.263 . S
O234 Tb224 2.325 . S
O234 C244 1.236 . S
O235 Tb225 2.322 1_455 S
O235 C244 1.257 . S
O236 Tb225 2.349 . S
O236 C247 1.261 . S
O237 Tb224 2.303 . S
O237 C247 1.257 1_455 S
O238 Tb225 2.415 1_554 S
O238 C254 1.239 . S
O239 Tb225 2.399 . S
O239 C254 1.263 1_556 S
O240 Tb225 2.325 . S
O240 C255 1.236 . S
O241 Tb224 2.322 1_655 S
O241 C255 1.257 . S
O242 Tb224 2.349 . S
O242 C226 1.261 . S
O243 Tb225 2.303 . S
O243 C226 1.257 1_655 S
C244 O234 1.236 . S
C244 O235 1.257 . S
O245 Tb224 2.415 . S
O245 C233 1.239 . S
O246 Tb224 2.399 . S
O246 C233 1.263 . S
C247 O236 1.261 . S
C247 O237 1.257 1_655 S
C248 C251 1.358 . S
C248 C252 1.332 . S
C248 C254 1.504 . S
C249 C250 1.373 . S
C249 C253 1.308 . S
C250 C249 1.373 . S
C250 C251 1.429 . S
C250 H260 0.932 . S
C251 C248 1.358 . S
C251 C250 1.429 . S
C251 H261 0.930 . S
C252 C248 1.332 . S
C252 C253 1.394 . S
C252 H262 0.932 . S
C253 C249 1.308 . S
C253 C252 1.394 . S
C253 H263 0.929 . S
C254 Tb225 2.764 1_554 S
C254 O238 1.239 . S
C254 O239 1.263 1_554 S
C254 C248 1.504 . S
C255 O240 1.236 . S
C255 O241 1.257 . S
H256 C229 0.932 . S
H257 C230 0.930 . S
H258 C231 0.932 . S
H259 C232 0.929 . S
H260 C250 0.932 . S
H261 C251 0.930 . S
H262 C252 0.932 . S
H263 C253 0.929 . S
H264 C272 0.950 . S
H265 C277 0.950 . S
H266 C274 0.950 . S
H267 C276 0.950 . S
H268 C278 0.950 . S
H269 C280 0.950 . S
H270 C282 0.950 . S
H271 C283 0.950 . S
C272 H264 0.950 . S
C272 C273 1.388 . S
C272 C274 1.391 . S
C273 C272 1.388 . S
C273 C277 1.392 1_565 S
C274 H266 0.950 . S
C274 C272 1.391 . S
C274 C275 1.400 1_565 S
C275 C274 1.400 1_545 S
C275 C276 1.398 . S
C275 C281 1.491 . S
C276 H267 0.950 . S
C276 C275 1.398 . S
C276 C277 1.391 . S
C277 H265 0.950 . S
C277 C273 1.392 1_545 S
C277 C276 1.391 . S
C278 H268 0.950 . S
C278 C279 1.386 . S
C278 C280 1.391 . S
C279 C278 1.386 . S
C279 C283 1.393 1_545 S
C280 H269 0.950 . S
C280 C278 1.391 . S
C280 C281 1.400 . S
C281 C275 1.491 . S
C281 C280 1.400 . S
C281 C282 1.398 1_545 S
C282 H270 0.950 . S
C282 C281 1.398 1_565 S
C282 C283 1.391 . S
C283 H271 0.950 . S
C283 C279 1.393 1_565 S
C283 C282 1.391 . S
H284 C292 0.950 . S
H285 C297 0.950 . S
H286 C294 0.950 . S
H287 C296 0.950 . S
H288 C298 0.950 . S
H289 C300 0.950 . S
H290 C302 0.950 . S
H291 C303 0.950 . S
C292 H284 0.950 . S
C292 C293 1.386 . S
C292 C294 1.391 . S
C293 C292 1.386 . S
C293 C297 1.393 . S
C294 H286 0.950 . S
C294 C292 1.391 . S
C294 C295 1.400 . S
C295 C294 1.400 . S
C295 C296 1.398 . S
C295 C301 1.491 . S
C296 H287 0.950 . S
C296 C295 1.398 . S
C296 C297 1.391 . S
C297 H285 0.950 . S
C297 C293 1.393 . S
C297 C296 1.391 . S
C298 H288 0.950 . S
C298 C299 1.386 . S
C298 C300 1.391 . S
C299 C298 1.386 . S
C299 C303 1.393 . S
C300 H289 0.950 . S
C300 C298 1.391 . S
C300 C301 1.400 . S
C301 C295 1.491 . S
C301 C300 1.400 . S
C301 C302 1.398 . S
C302 H290 0.950 . S
C302 C301 1.398 . S
C302 C303 1.391 . S
C303 H291 0.950 . S
C303 C299 1.393 . S
C303 C302 1.391 . S
H304 C312 0.950 . S
H305 C317 0.950 . S
H306 C314 0.950 . S
H307 C316 0.950 . S
H308 C318 0.950 . S
H309 C320 0.950 . S
H310 C322 0.950 . S
H311 C323 0.950 . S
C312 H304 0.950 . S
C312 C313 1.386 . S
C312 C314 1.391 . S
C313 C312 1.386 . S
C313 C317 1.393 . S
C314 H306 0.950 . S
C314 C312 1.391 . S
C314 C315 1.400 . S
C315 C314 1.400 . S
C315 C316 1.398 . S
C315 C321 1.491 . S
C316 H307 0.950 . S
C316 C315 1.398 . S
C316 C317 1.391 . S
C317 H305 0.950 . S
C317 C313 1.393 . S
C317 C316 1.391 . S
C318 H308 0.950 . S
C318 C319 1.386 . S
C318 C320 1.391 . S
C319 C318 1.386 . S
C319 C323 1.393 . S
C320 H309 0.950 . S
C320 C318 1.391 . S
C320 C321 1.400 . S
C321 C315 1.491 . S
C321 C320 1.400 . S
C321 C322 1.398 . S
C322 H310 0.950 . S
C322 C321 1.398 . S
C322 C323 1.391 . S
C323 H311 0.950 . S
C323 C319 1.393 . S
C323 C322 1.391 . S
H324 C332 0.950 . S
H325 C337 0.950 . S
H326 C334 0.950 . S
H327 C336 0.950 . S
H328 C338 0.950 . S
H329 C340 0.950 . S
H330 C342 0.950 . S
H331 C343 0.950 . S
C332 H324 0.950 . S
C332 C333 1.402 . S
C332 C334 1.391 . S
C333 C332 1.402 . S
C333 C337 1.377 1_455 S
C334 H326 0.950 . S
C334 C332 1.391 . S
C334 C335 1.426 . S
C335 C334 1.426 . S
C335 C336 1.374 1_455 S
C335 C341 1.490 . S
C336 H327 0.950 . S
C336 C335 1.374 1_655 S
C336 C337 1.391 . S
C337 H325 0.950 . S
C337 C333 1.377 1_655 S
C337 C336 1.391 . S
C338 H328 0.950 . S
C338 C339 1.357 1_655 S
C338 C340 1.391 . S
C339 C338 1.357 1_455 S
C339 C343 1.422 . S
C340 H329 0.950 . S
C340 C338 1.391 . S
C340 C341 1.381 1_655 S
C341 C335 1.490 . S
C341 C340 1.381 1_455 S
C341 C342 1.417 . S
C342 H330 0.950 . S
C342 C341 1.417 . S
C342 C343 1.391 . S
C343 H331 0.950 . S
C343 C339 1.422 . S
C343 C342 1.391 . S
H344 C352 0.950 . S
H345 C357 0.950 . S
H346 C354 0.950 . S
H347 C356 0.950 . S
H348 C358 0.950 1_556 S
H349 C360 0.950 . S
H350 C362 0.950 . S
H351 C363 0.950 . S
C352 H344 0.950 . S
C352 C353 1.413 . S
C352 C354 1.391 . S
C353 C352 1.413 . S
C353 C357 1.360 1_565 S
C354 H346 0.950 . S
C354 C352 1.391 . S
C354 C355 1.400 . S
C355 C354 1.400 . S
C355 C356 1.398 1_565 S
C355 C361 1.491 . S
C356 H347 0.950 . S
C356 C355 1.398 1_545 S
C356 C357 1.391 . S
C357 H345 0.950 . S
C357 C353 1.360 1_545 S
C357 C356 1.391 . S
C358 H348 0.950 1_554 S
C358 C359 1.386 1_545 S
C358 C360 1.391 . S
C359 C358 1.386 1_565 S
C359 C363 1.393 . S
C360 H349 0.950 . S
C360 C358 1.391 . S
C360 C361 1.400 1_545 S
C361 C355 1.491 . S
C361 C360 1.400 1_565 S
C361 C362 1.398 . S
C362 H350 0.950 . S
C362 C361 1.398 . S
C362 C363 1.391 . S
C363 H351 0.950 . S
C363 C359 1.393 . S
C363 C362 1.391 . S
H364 C372 0.950 . S
H365 C377 0.950 . S
H366 C374 0.950 . S
H367 C376 0.950 . S
H368 C378 0.950 . S
H369 C380 0.950 . S
H370 C382 0.950 . S
H371 C383 0.950 . S
C372 H364 0.950 . S
C372 C373 1.386 . S
C372 C374 1.391 . S
C373 C372 1.386 . S
C373 C377 1.393 . S
C374 H366 0.950 . S
C374 C372 1.391 . S
C374 C375 1.400 . S
C375 C374 1.400 . S
C375 C376 1.398 . S
C375 C381 1.491 . S
C376 H367 0.950 . S
C376 C375 1.398 . S
C376 C377 1.391 . S
C377 H365 0.950 . S
C377 C373 1.393 . S
C377 C376 1.391 . S
C378 H368 0.950 . S
C378 C379 1.386 . S
C378 C380 1.391 . S
C379 C378 1.386 . S
C379 C383 1.393 . S
C380 H369 0.950 . S
C380 C378 1.391 . S
C380 C381 1.400 . S
C381 C375 1.491 . S
C381 C380 1.400 . S
C381 C382 1.398 . S
C382 H370 0.950 . S
C382 C381 1.398 . S
C382 C383 1.391 . S
C383 H371 0.950 . S
C383 C379 1.393 . S
C383 C382 1.391 . S
H384 C392 0.950 . S
H385 C397 0.950 . S
H386 C394 0.950 . S
H387 C396 0.950 . S
H388 C398 0.950 1_556 S
H389 C400 0.950 . S
H390 C402 0.950 . S
H391 C403 0.950 . S
C392 H384 0.950 . S
C392 C393 1.386 . S
C392 C394 1.391 . S
C393 C392 1.386 . S
C393 C397 1.393 . S
C394 H386 0.950 . S
C394 C392 1.391 . S
C394 C395 1.400 . S
C395 C394 1.400 . S
C395 C396 1.398 . S
C395 C401 1.491 . S
C396 H387 0.950 . S
C396 C395 1.398 . S
C396 C397 1.391 . S
C397 H385 0.950 . S
C397 C393 1.393 . S
C397 C396 1.391 . S
C398 H388 0.950 1_554 S
C398 C399 1.386 . S
C398 C400 1.391 . S
C399 C398 1.386 . S
C399 C403 1.393 . S
C400 H389 0.950 . S
C400 C398 1.391 . S
C400 C401 1.400 . S
C401 C395 1.491 . S
C401 C400 1.400 . S
C401 C402 1.398 . S
C402 H390 0.950 . S
C402 C401 1.398 . S
C402 C403 1.391 . S
C403 H391 0.950 . S
C403 C399 1.393 . S
C403 C402 1.391 . S
H404 C412 0.950 . S
H405 C417 0.950 . S
H406 C414 0.950 . S
H407 C416 0.950 . S
H408 C418 0.950 1_455 S
H409 C420 0.950 . S
H410 C422 0.952 . S
H411 C423 0.950 . S
C412 H404 0.950 . S
C412 C413 1.386 . S
C412 C414 1.391 . S
C413 C412 1.386 . S
C413 C417 1.393 . S
C414 H406 0.950 . S
C414 C412 1.391 . S
C414 C415 1.400 . S
C415 C414 1.400 . S
C415 C416 1.398 . S
C415 C421 1.491 . S
C416 H407 0.950 . S
C416 C415 1.398 . S
C416 C417 1.391 . S
C417 H405 0.950 . S
C417 C413 1.393 . S
C417 C416 1.391 . S
C418 H408 0.950 1_655 S
C418 C419 1.386 . S
C418 C420 1.391 1_556 S
C419 C418 1.386 . S
C419 C423 1.393 1_656 S
C420 H409 0.950 . S
C420 C418 1.391 1_554 S
C420 C421 1.400 . S
C421 C415 1.491 . S
C421 C420 1.400 . S
C421 C422 1.397 1_655 S
C422 H410 0.952 . S
C422 C421 1.397 1_455 S
C422 C423 1.391 . S
C423 H411 0.950 . S
C423 C419 1.393 1_454 S
C423 C422 1.391 . S
H424 C432 0.950 . S
H425 C437 0.950 . S
H426 C434 0.950 . S
H427 C436 0.950 . S
H428 C438 0.950 . S
H429 C440 0.950 1_455 S
H430 C442 0.950 . S
H431 C443 0.950 . S
C432 H424 0.950 . S
C432 C433 1.402 . S
C432 C434 1.391 . S
C433 C432 1.402 . S
C433 C437 1.382 1_655 S
C434 H426 0.950 . S
C434 C432 1.391 . S
C434 C435 1.400 . S
C435 C434 1.400 . S
C435 C436 1.398 1_655 S
C435 C441 1.491 . S
C436 H427 0.950 . S
C436 C435 1.398 1_455 S
C436 C437 1.391 . S
C437 H425 0.950 . S
C437 C433 1.382 1_455 S
C437 C436 1.391 . S
C438 H428 0.950 . S
C438 C439 1.386 . S
C438 C440 1.391 . S
C439 C438 1.386 . S
C439 C443 1.393 . S
C440 H429 0.950 1_655 S
C440 C438 1.391 . S
C440 C441 1.400 . S
C441 C435 1.491 . S
C441 C440 1.400 . S
C441 C442 1.398 . S
C442 H430 0.950 . S
C442 C441 1.398 . S
C442 C443 1.391 . S
C443 H431 0.950 . S
C443 C439 1.393 . S
C443 C442 1.391 . S
H444 C452 0.950 . S
H445 C457 0.950 . S
H446 C454 0.950 . S
H447 C456 0.950 . S
H448 C458 0.950 . S
H449 C460 0.950 . S
H450 C462 0.950 . S
H451 C463 0.945 1_545 S
C452 H444 0.950 . S
C452 C453 1.386 . S
C452 C454 1.391 . S
C453 C452 1.386 . S
C453 C457 1.393 1_545 S
C454 H446 0.950 . S
C454 C452 1.391 . S
C454 C455 1.400 1_545 S
C455 C454 1.400 1_565 S
C455 C456 1.398 . S
C455 C461 1.491 . S
C456 H447 0.950 . S
C456 C455 1.398 . S
C456 C457 1.391 . S
C457 H445 0.950 . S
C457 C453 1.393 1_565 S
C457 C456 1.391 . S
C458 H448 0.950 . S
C458 C459 1.386 . S
C458 C460 1.391 . S
C459 C458 1.386 . S
C459 C463 1.400 . S
C460 H449 0.950 . S
C460 C458 1.391 . S
C460 C461 1.400 . S
C461 C455 1.491 . S
C461 C460 1.400 . S
C461 C462 1.398 1_565 S
C462 H450 0.950 . S
C462 C461 1.398 1_545 S
C462 C463 1.388 1_545 S
C463 H451 0.945 1_565 S
C463 C459 1.400 . S
C463 C462 1.388 1_565 S
H464 C472 0.950 . S
H465 C477 0.950 . S
H466 C474 0.950 . S
H467 C476 0.950 . S
H468 C478 0.950 . S
H469 C480 0.950 . S
H470 C482 0.950 . S
H471 C483 0.950 . S
C472 H464 0.950 . S
C472 C473 1.386 . S
C472 C474 1.391 . S
C473 C472 1.386 . S
C473 C477 1.393 . S
C474 H466 0.950 . S
C474 C472 1.391 . S
C474 C475 1.400 . S
C475 C474 1.400 . S
C475 C476 1.398 . S
C475 C481 1.491 . S
C476 H467 0.950 . S
C476 C475 1.398 . S
C476 C477 1.391 . S
C477 H465 0.950 . S
C477 C473 1.393 . S
C477 C476 1.391 . S
C478 H468 0.950 . S
C478 C479 1.386 . S
C478 C480 1.391 . S
C479 C478 1.386 . S
C479 C483 1.393 . S
C480 H469 0.950 . S
C480 C478 1.391 . S
C480 C481 1.400 . S
C481 C475 1.491 . S
C481 C480 1.400 . S
C481 C482 1.398 . S
C482 H470 0.950 . S
C482 C481 1.398 . S
C482 C483 1.391 . S
C483 H471 0.950 . S
C483 C479 1.393 . S
C483 C482 1.391 . S
H484 C492 0.950 . S
H485 C497 0.950 . S
H486 C494 0.950 . S
H487 C496 0.950 . S
H488 C498 0.950 . S
H489 C500 0.950 . S
H490 C502 0.950 . S
H491 C503 0.950 . S
C492 H484 0.950 . S
C492 C493 1.386 . S
C492 C494 1.391 . S
C493 C492 1.386 . S
C493 C497 1.393 . S
C494 H486 0.950 . S
C494 C492 1.391 . S
C494 C495 1.400 . S
C495 C494 1.400 . S
C495 C496 1.398 . S
C495 C501 1.491 . S
C496 H487 0.950 . S
C496 C495 1.398 . S
C496 C497 1.391 . S
C497 H485 0.950 . S
C497 C493 1.393 . S
C497 C496 1.391 . S
C498 H488 0.950 . S
C498 C499 1.386 . S
C498 C500 1.391 . S
C499 C498 1.386 . S
C499 C503 1.393 . S
C500 H489 0.950 . S
C500 C498 1.391 . S
C500 C501 1.400 . S
C501 C495 1.491 . S
C501 C500 1.400 . S
C501 C502 1.398 . S
C502 H490 0.950 . S
C502 C501 1.398 . S
C502 C503 1.391 . S
C503 H491 0.950 . S
C503 C499 1.393 . S
C503 C502 1.391 . S
H504 C512 0.950 . S
H505 C517 0.950 . S
H506 C514 0.942 1_655 S
H507 C516 0.950 . S
H508 C518 0.950 . S
H509 C520 0.950 . S
H510 C522 0.950 . S
H511 C523 0.950 . S
C512 H504 0.950 . S
C512 C513 1.388 . S
C512 C514 1.391 1_655 S
C513 C512 1.388 . S
C513 C517 1.387 1_655 S
C514 H506 0.942 1_455 S
C514 C512 1.391 1_455 S
C514 C515 1.400 . S
C515 C514 1.400 . S
C515 C516 1.398 . S
C515 C521 1.491 . S
C516 H507 0.950 . S
C516 C515 1.398 . S
C516 C517 1.391 . S
C517 H505 0.950 . S
C517 C513 1.387 1_455 S
C517 C516 1.391 . S
C518 H508 0.950 . S
C518 C519 1.386 . S
C518 C520 1.391 . S
C519 C518 1.386 . S
C519 C523 1.393 . S
C520 H509 0.950 . S
C520 C518 1.391 . S
C520 C521 1.400 . S
C521 C515 1.491 . S
C521 C520 1.400 . S
C521 C522 1.398 . S
C522 H510 0.950 . S
C522 C521 1.398 . S
C522 C523 1.391 . S
C523 H511 0.950 . S
C523 C519 1.393 . S
C523 C522 1.391 . S
H524 C532 0.950 . S
H525 C537 0.950 . S
H526 C534 0.950 . S
H527 C536 0.950 . S
H528 C538 0.950 . S
H529 C540 0.950 . S
H530 C542 0.950 . S
H531 C543 0.950 1_565 S
C532 H524 0.950 . S
C532 C533 1.386 . S
C532 C534 1.391 . S
C533 C532 1.386 . S
C533 C537 1.393 1_565 S
C534 H526 0.950 . S
C534 C532 1.391 . S
C534 C535 1.400 1_565 S
C535 C534 1.400 1_545 S
C535 C536 1.398 . S
C535 C541 1.491 . S
C536 H527 0.950 . S
C536 C535 1.398 . S
C536 C537 1.391 . S
C537 H525 0.950 . S
C537 C533 1.393 1_545 S
C537 C536 1.391 . S
C538 H528 0.950 . S
C538 C539 1.386 . S
C538 C540 1.391 . S
C539 C538 1.386 . S
C539 C543 1.393 . S
C540 H529 0.950 . S
C540 C538 1.391 . S
C540 C541 1.400 . S
C541 C535 1.491 . S
C541 C540 1.400 . S
C541 C542 1.398 1_545 S
C542 H530 0.950 . S
C542 C541 1.398 1_565 S
C542 C543 1.391 1_565 S
C543 H531 0.950 1_545 S
C543 C539 1.393 . S
C543 C542 1.391 1_545 S
H544 C552 0.950 1_554 S
H545 C557 0.950 . S
H546 C554 0.950 . S
H547 C556 0.950 . S
H548 C558 0.950 . S
H549 C560 0.950 . S
H550 C562 0.950 . S
H551 C563 0.950 . S
C552 H544 0.950 1_556 S
C552 C553 1.386 . S
C552 C554 1.391 . S
C553 C552 1.386 . S
C553 C557 1.393 . S
C554 H546 0.950 . S
C554 C552 1.391 . S
C554 C555 1.400 . S
C555 C554 1.400 . S
C555 C556 1.398 . S
C555 C561 1.491 . S
C556 H547 0.950 . S
C556 C555 1.398 . S
C556 C557 1.391 . S
C557 H545 0.950 . S
C557 C553 1.393 . S
C557 C556 1.391 . S
C558 H548 0.950 . S
C558 C559 1.386 . S
C558 C560 1.391 . S
C559 C558 1.386 . S
C559 C563 1.393 . S
C560 H549 0.950 . S
C560 C558 1.391 . S
C560 C561 1.400 . S
C561 C555 1.491 . S
C561 C560 1.400 . S
C561 C562 1.398 . S
C562 H550 0.950 . S
C562 C561 1.398 . S
C562 C563 1.391 . S
C563 H551 0.950 . S
C563 C559 1.393 . S
C563 C562 1.391 . S
H564 C572 0.950 . S
H565 C577 0.950 . S
H566 C574 0.950 . S
H567 C576 0.950 . S
H568 C578 0.950 . S
H569 C580 0.950 . S
H570 C582 0.950 . S
H571 C583 0.950 . S
C572 H564 0.950 . S
C572 C573 1.386 . S
C572 C574 1.391 . S
C573 C572 1.386 . S
C573 C577 1.393 . S
C574 H566 0.950 . S
C574 C572 1.391 . S
C574 C575 1.400 . S
C575 C574 1.400 . S
C575 C576 1.398 . S
C575 C581 1.491 . S
C576 H567 0.950 . S
C576 C575 1.398 . S
C576 C577 1.391 . S
C577 H565 0.950 . S
C577 C573 1.393 . S
C577 C576 1.391 . S
C578 H568 0.950 . S
C578 C579 1.386 . S
C578 C580 1.391 . S
C579 C578 1.386 . S
C579 C583 1.393 . S
C580 H569 0.950 . S
C580 C578 1.391 . S
C580 C581 1.400 . S
C581 C575 1.491 . S
C581 C580 1.400 . S
C581 C582 1.398 . S
C582 H570 0.950 . S
C582 C581 1.398 . S
C582 C583 1.391 . S
C583 H571 0.950 . S
C583 C579 1.393 . S
C583 C582 1.391 . S
H584 C592 0.950 . S
H585 C597 0.950 . S
H586 C594 0.950 . S
H587 C596 0.950 1_556 S
H588 C598 0.950 . S
H589 C600 0.950 . S
H590 C602 0.950 . S
H591 C603 0.950 . S
C592 H584 0.950 . S
C592 C593 1.417 . S
C592 C594 1.391 . S
C593 C592 1.417 . S
C593 C597 1.366 1_455 S
C594 H586 0.950 . S
C594 C592 1.391 . S
C594 C595 1.400 . S
C595 C594 1.400 . S
C595 C596 1.398 1_455 S
C595 C601 1.491 . S
C596 H587 0.950 1_554 S
C596 C595 1.398 1_655 S
C596 C597 1.391 . S
C597 H585 0.950 . S
C597 C593 1.366 1_655 S
C597 C596 1.391 . S
C598 H588 0.950 . S
C598 C599 1.386 1_655 S
C598 C600 1.391 . S
C599 C598 1.386 1_455 S
C599 C603 1.393 1_556 S
C600 H589 0.950 . S
C600 C598 1.391 . S
C600 C601 1.400 1_656 S
C601 C595 1.491 . S
C601 C600 1.400 1_454 S
C601 C602 1.398 . S
C602 H590 0.950 . S
C602 C601 1.398 . S
C602 C603 1.391 . S
C603 H591 0.950 . S
C603 C599 1.393 1_554 S
C603 C602 1.391 . S
H604 C612 0.950 . S
H605 C617 0.950 . S
H606 C614 0.950 1_556 S
H607 C616 0.950 . S
H608 C618 0.950 1_554 S
H609 C620 0.950 . S
H610 C622 0.950 . S
H611 C623 0.950 . S
C612 H604 0.950 . S
C612 C613 1.386 . S
C612 C614 1.391 . S
C613 C612 1.386 . S
C613 C617 1.393 1_545 S
C614 H606 0.950 1_554 S
C614 C612 1.391 . S
C614 C615 1.400 . S
C615 C614 1.400 . S
C615 C616 1.398 1_545 S
C615 C621 1.491 1_554 S
C616 H607 0.950 . S
C616 C615 1.398 1_565 S
C616 C617 1.391 . S
C617 H605 0.950 . S
C617 C613 1.393 1_565 S
C617 C616 1.391 . S
C618 H608 0.950 1_556 S
C618 C619 1.386 1_565 S
C618 C620 1.391 1_556 S
C619 C618 1.386 1_545 S
C619 C623 1.393 . S
C620 H609 0.950 . S
C620 C618 1.391 1_554 S
C620 C621 1.400 1_564 S
C621 C615 1.491 1_556 S
C621 C620 1.400 1_546 S
C621 C622 1.398 . S
C622 H610 0.950 . S
C622 C621 1.398 . S
C622 C623 1.391 . S
C623 H611 0.950 . S
C623 C619 1.393 . S
C623 C622 1.391 . S
H624 C632 0.950 . S
H625 C637 0.950 . S
H626 C634 0.950 . S
H627 C636 0.950 . S
H628 C638 0.950 . S
H629 C640 0.950 . S
H630 C642 0.950 . S
H631 C643 0.950 . S
C632 H624 0.950 . S
C632 C633 1.386 . S
C632 C634 1.391 . S
C633 C632 1.386 . S
C633 C637 1.393 . S
C634 H626 0.950 . S
C634 C632 1.391 . S
C634 C635 1.400 . S
C635 C634 1.400 . S
C635 C636 1.398 . S
C635 C641 1.491 . S
C636 H627 0.950 . S
C636 C635 1.398 . S
C636 C637 1.391 . S
C637 H625 0.950 . S
C637 C633 1.393 . S
C637 C636 1.391 . S
C638 H628 0.950 . S
C638 C639 1.386 . S
C638 C640 1.391 . S
C639 C638 1.386 . S
C639 C643 1.393 . S
C640 H629 0.950 . S
C640 C638 1.391 . S
C640 C641 1.400 . S
C641 C635 1.491 . S
C641 C640 1.400 . S
C641 C642 1.398 . S
C642 H630 0.950 . S
C642 C641 1.398 . S
C642 C643 1.391 . S
C643 H631 0.950 . S
C643 C639 1.393 . S
C643 C642 1.391 . S
H644 C652 0.950 . S
H645 C657 0.950 . S
H646 C654 0.950 . S
H647 C656 0.950 . S
H648 C658 0.950 . S
H649 C660 0.950 . S
H650 C662 0.950 . S
H651 C663 0.950 . S
C652 H644 0.950 . S
C652 C653 1.386 . S
C652 C654 1.391 . S
C653 C652 1.386 . S
C653 C657 1.393 1_554 S
C654 H646 0.950 . S
C654 C652 1.391 . S
C654 C655 1.408 . S
C655 C654 1.408 . S
C655 C656 1.393 1_554 S
C655 C661 1.488 1_554 S
C656 H647 0.950 . S
C656 C655 1.393 1_556 S
C656 C657 1.391 . S
C657 H645 0.950 . S
C657 C653 1.393 1_556 S
C657 C656 1.391 . S
C658 H648 0.950 . S
C658 C659 1.386 . S
C658 C660 1.391 . S
C659 C658 1.386 . S
C659 C663 1.393 1_556 S
C660 H649 0.950 . S
C660 C658 1.391 . S
C660 C661 1.400 . S
C661 C655 1.488 1_556 S
C661 C660 1.400 . S
C661 C662 1.398 1_556 S
C662 H650 0.950 . S
C662 C661 1.398 1_554 S
C662 C663 1.391 . S
C663 H651 0.950 . S
C663 C659 1.393 1_554 S
C663 C662 1.391 . S
H664 C672 0.950 . S
H665 C677 0.950 . S
H666 C674 0.950 . S
H667 C676 0.950 . S
H668 C678 0.950 . S
H669 C680 0.950 . S
H670 C682 0.950 . S
H671 C683 0.950 . S
C672 H664 0.950 . S
C672 C673 1.386 . S
C672 C674 1.391 . S
C673 C672 1.386 . S
C673 C677 1.393 1_655 S
C674 H666 0.950 . S
C674 C672 1.391 . S
C674 C675 1.400 . S
C675 C674 1.400 . S
C675 C676 1.398 1_655 S
C675 C681 1.491 . S
C676 H667 0.950 . S
C676 C675 1.398 1_455 S
C676 C677 1.391 . S
C677 H665 0.950 . S
C677 C673 1.393 1_455 S
C677 C676 1.391 . S
C678 H668 0.950 . S
C678 C679 1.386 1_455 S
C678 C680 1.391 . S
C679 C678 1.386 1_655 S
C679 C683 1.393 . S
C680 H669 0.950 . S
C680 C678 1.391 . S
C680 C681 1.400 1_455 S
C681 C675 1.491 . S
C681 C680 1.400 1_655 S
C681 C682 1.398 . S
C682 H670 0.950 . S
C682 C681 1.398 . S
C682 C683 1.391 . S
C683 H671 0.950 . S
C683 C679 1.393 . S
C683 C682 1.391 . S
H684 C692 0.950 . S
H685 C697 0.950 . S
H686 C694 0.950 . S
H687 C696 0.950 . S
H688 C698 0.950 . S
H689 C700 0.950 . S
H690 C702 0.950 . S
H691 C703 0.950 . S
C692 H684 0.950 . S
C692 C693 1.386 . S
C692 C694 1.391 . S
C693 C692 1.386 . S
C693 C697 1.393 1_565 S
C694 H686 0.950 . S
C694 C692 1.391 . S
C694 C695 1.400 . S
C695 C694 1.400 . S
C695 C696 1.398 1_565 S
C695 C701 1.491 . S
C696 H687 0.950 . S
C696 C695 1.398 1_545 S
C696 C697 1.391 . S
C697 H685 0.950 . S
C697 C693 1.393 1_545 S
C697 C696 1.391 . S
C698 H688 0.950 . S
C698 C699 1.386 1_545 S
C698 C700 1.391 . S
C699 C698 1.386 1_565 S
C699 C703 1.393 . S
C700 H689 0.950 . S
C700 C698 1.391 . S
C700 C701 1.400 1_545 S
C701 C695 1.491 . S
C701 C700 1.400 1_565 S
C701 C702 1.398 . S
C702 H690 0.950 . S
C702 C701 1.398 . S
C702 C703 1.391 . S
C703 H691 0.950 . S
C703 C699 1.393 . S
C703 C702 1.391 . S
H704 C712 0.950 . S
H705 C717 0.950 . S
H706 C714 0.950 . S
H707 C716 0.950 . S
H708 C718 0.950 . S
H709 C720 0.950 . S
H710 C722 0.950 . S
H711 C723 0.950 . S
C712 H704 0.950 . S
C712 C713 1.386 . S
C712 C714 1.391 . S
C713 C712 1.386 . S
C713 C717 1.393 . S
C714 H706 0.950 . S
C714 C712 1.391 . S
C714 C715 1.400 . S
C715 C714 1.400 . S
C715 C716 1.398 . S
C715 C721 1.491 . S
C716 H707 0.950 . S
C716 C715 1.398 . S
C716 C717 1.391 . S
C717 H705 0.950 . S
C717 C713 1.393 . S
C717 C716 1.391 . S
C718 H708 0.950 . S
C718 C719 1.386 . S
C718 C720 1.391 . S
C719 C718 1.386 . S
C719 C723 1.393 . S
C720 H709 0.950 . S
C720 C718 1.391 . S
C720 C721 1.400 . S
C721 C715 1.491 . S
C721 C720 1.400 . S
C721 C722 1.398 . S
C722 H710 0.950 . S
C722 C721 1.398 . S
C722 C723 1.391 . S
C723 H711 0.950 . S
C723 C719 1.393 . S
C723 C722 1.391 . S
H724 C732 0.950 . S
H725 C737 0.950 . S
H726 C734 0.950 . S
H727 C736 0.950 . S
H728 C738 0.950 . S
H729 C740 0.950 . S
H730 C742 0.950 . S
H731 C743 0.950 . S
C732 H724 0.950 . S
C732 C733 1.386 . S
C732 C734 1.391 . S
C733 C732 1.386 . S
C733 C737 1.393 . S
C734 H726 0.950 . S
C734 C732 1.391 . S
C734 C735 1.400 . S
C735 C734 1.400 . S
C735 C736 1.398 . S
C735 C741 1.491 . S
C736 H727 0.950 . S
C736 C735 1.398 . S
C736 C737 1.391 . S
C737 H725 0.950 . S
C737 C733 1.393 . S
C737 C736 1.391 . S
C738 H728 0.950 . S
C738 C739 1.386 . S
C738 C740 1.391 . S
C739 C738 1.386 . S
C739 C743 1.393 . S
C740 H729 0.950 . S
C740 C738 1.391 . S
C740 C741 1.400 . S
C741 C735 1.491 . S
C741 C740 1.400 . S
C741 C742 1.398 . S
C742 H730 0.950 . S
C742 C741 1.398 . S
C742 C743 1.391 . S
C743 H731 0.950 . S
C743 C739 1.393 . S
C743 C742 1.391 . S
C273 N80 1.928 . S
C279 C127 2.012 1_545 S
C299 C167 1.751 . S
C293 N93 1.767 . S
C319 C186 2.010 . S
C313 N54 1.937 . S
C339 C247 1.394 1_455 S
C333 N67 1.379 1_455 S
C359 C106 2.005 1_564 S
C353 N28 1.926 . S
C373 N41 1.774 . S
C379 C146 1.765 . S
C393 N2 1.937 . S
C399 C207 2.020 1_554 S
C413 N15 1.362 . S
C419 C226 1.397 1_655 S
C439 C108 0.830 . S
C433 N70 0.843 . S
C459 C148 0.365 . S
C453 N83 0.274 1_545 S
C479 C204 0.888 . S
C473 N96 0.901 . S
C493 N57 0.348 . S
C499 C228 0.400 . S
C513 N18 0.856 . S
C519 C129 0.853 . S
C539 C169 0.338 . S
C533 N31 0.291 . S
C559 C215 0.875 . S
C553 N44 0.869 . S
C573 N5 0.348 . S
C579 C249 0.369 . S
C593 N66 1.536 1_455 S
C599 C124 1.586 . S
C613 N79 2.268 1_545 S
C619 C164 2.344 . S
C639 C188 1.533 . S
C633 N92 1.572 . S
C659 C244 2.336 . S
C653 N53 2.260 . S
C673 N14 1.553 . S
C679 C135 1.588 . S
C699 C175 2.345 . S
C693 N27 2.273 . S
C719 C209 1.517 . S
C713 N40 1.560 . S
C733 N1 2.266 . S
C739 C255 2.340 . S
