# Generated by pormake.
# Topology ptr, (4,4)-cn, num edge types: 1
# Building blocks:
#     Node 0, Type 0, BuildingBlock: NAHDIM_clean_sbu_0, # of connection points: 4
#     Node 1, Type 0, BuildingBlock: NAHDIM_clean_sbu_0, # of connection points: 4
#     Node 2, Type 0, BuildingBlock: NAHDIM_clean_sbu_0, # of connection points: 4
#     Node 3, Type 0, BuildingBlock: NAHDIM_clean_sbu_0, # of connection points: 4
#     Node 4, Type 0, BuildingBlock: NAHDIM_clean_sbu_0, # of connection points: 4
#     Node 5, Type 0, BuildingBlock: NAHDIM_clean_sbu_0, # of connection points: 4
#     Node 6, Type 0, BuildingBlock: NAHDIM_clean_sbu_0, # of connection points: 4
#     Node 7, Type 0, BuildingBlock: NAHDIM_clean_sbu_0, # of connection points: 4
#     Node 8, Type 0, BuildingBlock: NAHDIM_clean_sbu_0, # of connection points: 4
#     Node 9, Type 0, BuildingBlock: NAHDIM_clean_sbu_0, # of connection points: 4
#     Node 10, Type 0, BuildingBlock: NAHDIM_clean_sbu_0, # of connection points: 4
#     Node 11, Type 0, BuildingBlock: NAHDIM_clean_sbu_0, # of connection points: 4
#     Node 12, Type 0, BuildingBlock: NAHDIM_clean_sbu_0, # of connection points: 4
#     Node 13, Type 0, BuildingBlock: NAHDIM_clean_sbu_0, # of connection points: 4
#     Node 14, Type 0, BuildingBlock: NAHDIM_clean_sbu_0, # of connection points: 4
#     Node 15, Type 0, BuildingBlock: NAHDIM_clean_sbu_0, # of connection points: 4
#     Node 16, Type 0, BuildingBlock: NAHDIM_clean_sbu_0, # of connection points: 4
#     Node 17, Type 0, BuildingBlock: NAHDIM_clean_sbu_0, # of connection points: 4
#     Node 18, Type 1, BuildingBlock: MUDLON_clean_linker_0, # of connection points: 4
#     Node 19, Type 1, BuildingBlock: MUDLON_clean_linker_0, # of connection points: 4
#     Node 20, Type 1, BuildingBlock: MUDLON_clean_linker_0, # of connection points: 4
#     Node 21, Type 1, BuildingBlock: MUDLON_clean_linker_0, # of connection points: 4
#     Node 22, Type 1, BuildingBlock: MUDLON_clean_linker_0, # of connection points: 4
#     Node 23, Type 1, BuildingBlock: MUDLON_clean_linker_0, # of connection points: 4
#     Node 24, Type 1, BuildingBlock: MUDLON_clean_linker_0, # of connection points: 4
#     Node 25, Type 1, BuildingBlock: MUDLON_clean_linker_0, # of connection points: 4
#     Node 26, Type 1, BuildingBlock: MUDLON_clean_linker_0, # of connection points: 4
#     Node 27, Type 1, BuildingBlock: MUDLON_clean_linker_0, # of connection points: 4
#     Node 28, Type 1, BuildingBlock: MUDLON_clean_linker_0, # of connection points: 4
#     Node 29, Type 1, BuildingBlock: MUDLON_clean_linker_0, # of connection points: 4
#     Node 30, Type 1, BuildingBlock: MUDLON_clean_linker_0, # of connection points: 4
#     Node 31, Type 1, BuildingBlock: MUDLON_clean_linker_0, # of connection points: 4
#     Node 32, Type 1, BuildingBlock: MUDLON_clean_linker_0, # of connection points: 4
#     Node 33, Type 1, BuildingBlock: MUDLON_clean_linker_0, # of connection points: 4
#     Node 34, Type 1, BuildingBlock: MUDLON_clean_linker_0, # of connection points: 4
#     Node 35, Type 1, BuildingBlock: MUDLON_clean_linker_0, # of connection points: 4
#     Edge 36, Type (0, 1), BuildingBlock: ZUJKAS_clean_linker_0, # of connection points: 2
#     Edge 37, Type (0, 1), BuildingBlock: ZUJKAS_clean_linker_0, # of connection points: 2
#     Edge 38, Type (0, 1), BuildingBlock: ZUJKAS_clean_linker_0, # of connection points: 2
#     Edge 39, Type (0, 1), BuildingBlock: ZUJKAS_clean_linker_0, # of connection points: 2
#     Edge 40, Type (0, 1), BuildingBlock: ZUJKAS_clean_linker_0, # of connection points: 2
#     Edge 41, Type (0, 1), BuildingBlock: ZUJKAS_clean_linker_0, # of connection points: 2
#     Edge 42, Type (0, 1), BuildingBlock: ZUJKAS_clean_linker_0, # of connection points: 2
#     Edge 43, Type (0, 1), BuildingBlock: ZUJKAS_clean_linker_0, # of connection points: 2
#     Edge 44, Type (0, 1), BuildingBlock: ZUJKAS_clean_linker_0, # of connection points: 2
#     Edge 45, Type (0, 1), BuildingBlock: ZUJKAS_clean_linker_0, # of connection points: 2
#     Edge 46, Type (0, 1), BuildingBlock: ZUJKAS_clean_linker_0, # of connection points: 2
#     Edge 47, Type (0, 1), BuildingBlock: ZUJKAS_clean_linker_0, # of connection points: 2
#     Edge 48, Type (0, 1), BuildingBlock: ZUJKAS_clean_linker_0, # of connection points: 2
#     Edge 49, Type (0, 1), BuildingBlock: ZUJKAS_clean_linker_0, # of connection points: 2
#     Edge 50, Type (0, 1), BuildingBlock: ZUJKAS_clean_linker_0, # of connection points: 2
#     Edge 51, Type (0, 1), BuildingBlock: ZUJKAS_clean_linker_0, # of connection points: 2
#     Edge 52, Type (0, 1), BuildingBlock: ZUJKAS_clean_linker_0, # of connection points: 2
#     Edge 53, Type (0, 1), BuildingBlock: ZUJKAS_clean_linker_0, # of connection points: 2
#     Edge 54, Type (0, 1), BuildingBlock: ZUJKAS_clean_linker_0, # of connection points: 2
#     Edge 55, Type (0, 1), BuildingBlock: ZUJKAS_clean_linker_0, # of connection points: 2
#     Edge 56, Type (0, 1), BuildingBlock: ZUJKAS_clean_linker_0, # of connection points: 2
#     Edge 57, Type (0, 1), BuildingBlock: ZUJKAS_clean_linker_0, # of connection points: 2
#     Edge 58, Type (0, 1), BuildingBlock: ZUJKAS_clean_linker_0, # of connection points: 2
#     Edge 59, Type (0, 1), BuildingBlock: ZUJKAS_clean_linker_0, # of connection points: 2
#     Edge 60, Type (0, 1), BuildingBlock: ZUJKAS_clean_linker_0, # of connection points: 2
#     Edge 61, Type (0, 1), BuildingBlock: ZUJKAS_clean_linker_0, # of connection points: 2
#     Edge 62, Type (0, 1), BuildingBlock: ZUJKAS_clean_linker_0, # of connection points: 2
#     Edge 63, Type (0, 1), BuildingBlock: ZUJKAS_clean_linker_0, # of connection points: 2
#     Edge 64, Type (0, 1), BuildingBlock: ZUJKAS_clean_linker_0, # of connection points: 2
#     Edge 65, Type (0, 1), BuildingBlock: ZUJKAS_clean_linker_0, # of connection points: 2
#     Edge 66, Type (0, 1), BuildingBlock: ZUJKAS_clean_linker_0, # of connection points: 2
#     Edge 67, Type (0, 1), BuildingBlock: ZUJKAS_clean_linker_0, # of connection points: 2
#     Edge 68, Type (0, 1), BuildingBlock: ZUJKAS_clean_linker_0, # of connection points: 2
#     Edge 69, Type (0, 1), BuildingBlock: ZUJKAS_clean_linker_0, # of connection points: 2
#     Edge 70, Type (0, 1), BuildingBlock: ZUJKAS_clean_linker_0, # of connection points: 2
#     Edge 71, Type (0, 1), BuildingBlock: ZUJKAS_clean_linker_0, # of connection points: 2
#     Edge 72, Type (0, 1), BuildingBlock: ZUJKAS_clean_linker_0, # of connection points: 2
#     Edge 73, Type (0, 1), BuildingBlock: ZUJKAS_clean_linker_0, # of connection points: 2
#     Edge 74, Type (0, 1), BuildingBlock: ZUJKAS_clean_linker_0, # of connection points: 2
#     Edge 75, Type (0, 1), BuildingBlock: ZUJKAS_clean_linker_0, # of connection points: 2
#     Edge 76, Type (0, 1), BuildingBlock: ZUJKAS_clean_linker_0, # of connection points: 2
#     Edge 77, Type (0, 1), BuildingBlock: ZUJKAS_clean_linker_0, # of connection points: 2
#     Edge 78, Type (0, 1), BuildingBlock: ZUJKAS_clean_linker_0, # of connection points: 2
#     Edge 79, Type (0, 1), BuildingBlock: ZUJKAS_clean_linker_0, # of connection points: 2
#     Edge 80, Type (0, 1), BuildingBlock: ZUJKAS_clean_linker_0, # of connection points: 2
#     Edge 81, Type (0, 1), BuildingBlock: ZUJKAS_clean_linker_0, # of connection points: 2
#     Edge 82, Type (0, 1), BuildingBlock: ZUJKAS_clean_linker_0, # of connection points: 2
#     Edge 83, Type (0, 1), BuildingBlock: ZUJKAS_clean_linker_0, # of connection points: 2
#     Edge 84, Type (0, 1), BuildingBlock: ZUJKAS_clean_linker_0, # of connection points: 2
#     Edge 85, Type (0, 1), BuildingBlock: ZUJKAS_clean_linker_0, # of connection points: 2
#     Edge 86, Type (0, 1), BuildingBlock: ZUJKAS_clean_linker_0, # of connection points: 2
#     Edge 87, Type (0, 1), BuildingBlock: ZUJKAS_clean_linker_0, # of connection points: 2
#     Edge 88, Type (0, 1), BuildingBlock: ZUJKAS_clean_linker_0, # of connection points: 2
#     Edge 89, Type (0, 1), BuildingBlock: ZUJKAS_clean_linker_0, # of connection points: 2
#     Edge 90, Type (0, 1), BuildingBlock: ZUJKAS_clean_linker_0, # of connection points: 2
#     Edge 91, Type (0, 1), BuildingBlock: ZUJKAS_clean_linker_0, # of connection points: 2
#     Edge 92, Type (0, 1), BuildingBlock: ZUJKAS_clean_linker_0, # of connection points: 2
#     Edge 93, Type (0, 1), BuildingBlock: ZUJKAS_clean_linker_0, # of connection points: 2
#     Edge 94, Type (0, 1), BuildingBlock: ZUJKAS_clean_linker_0, # of connection points: 2
#     Edge 95, Type (0, 1), BuildingBlock: ZUJKAS_clean_linker_0, # of connection points: 2
#     Edge 96, Type (0, 1), BuildingBlock: ZUJKAS_clean_linker_0, # of connection points: 2
#     Edge 97, Type (0, 1), BuildingBlock: ZUJKAS_clean_linker_0, # of connection points: 2
#     Edge 98, Type (0, 1), BuildingBlock: ZUJKAS_clean_linker_0, # of connection points: 2
#     Edge 99, Type (0, 1), BuildingBlock: ZUJKAS_clean_linker_0, # of connection points: 2
#     Edge 100, Type (0, 1), BuildingBlock: ZUJKAS_clean_linker_0, # of connection points: 2
#     Edge 101, Type (0, 1), BuildingBlock: ZUJKAS_clean_linker_0, # of connection points: 2
#     Edge 102, Type (0, 1), BuildingBlock: ZUJKAS_clean_linker_0, # of connection points: 2
#     Edge 103, Type (0, 1), BuildingBlock: ZUJKAS_clean_linker_0, # of connection points: 2
#     Edge 104, Type (0, 1), BuildingBlock: ZUJKAS_clean_linker_0, # of connection points: 2
#     Edge 105, Type (0, 1), BuildingBlock: ZUJKAS_clean_linker_0, # of connection points: 2
#     Edge 106, Type (0, 1), BuildingBlock: ZUJKAS_clean_linker_0, # of connection points: 2
#     Edge 107, Type (0, 1), BuildingBlock: ZUJKAS_clean_linker_0, # of connection points: 2
# Relax obj value: 0.063
# Max RMSD: 0.199
# Mean RMSD: 0.101
data_MOF--net-ptr--node1-NAHDIM_clean_sbu_0--node2-MUDLON_clean_linker_0--edge1-ZUJKAS_clean_linker_0
_symmetry_space_group_name_H-M    P1
_symmetry_Int_Tables_number       1
_symmetry_cell_setting            triclinic
loop_
_symmetry_equiv_pos_as_xyz
'x, y, z'
_cell_length_a     130.14774
_cell_length_b     128.02497
_cell_length_c     74.918967
_cell_angle_alpha  91.4243
_cell_angle_beta   89.29706
_cell_angle_gamma 121.55419
loop_
_atom_site_label
_atom_site_type_symbol
_atom_site_fract_x
_atom_site_fract_y
_atom_site_fract_z
_atom_type_partial_charge
C0 C 0.01685 0.357 0.02183 0.0
O1 O 0.00648 0.35027 0.02999 0.0
O2 O 0.98904 0.35126 0.00535 0.0
Zn3 Zn 0.00409 0.36777 0.00948 0.0
O4 O 0.00233 0.37559 0.03196 0.0
C5 C 0.00288 0.37392 0.97324 0.0
O6 O 0.9985 0.36214 0.97061 0.0
O7 O 0.01821 0.36552 0.01184 0.0
C8 C 0.01061 0.3864 0.03642 0.0
O9 O 0.02029 0.39212 0.02639 0.0
C10 C 0.97862 0.34942 0.00862 0.0
O11 O 0.97765 0.35848 0.01519 0.0
O12 O 0.00627 0.37854 0.98883 0.0
C13 C 0.66699 0.65215 0.0091 0.0
O14 O 0.66404 0.65983 0.00325 0.0
O15 O 0.6441 0.65636 0.02321 0.0
Zn16 Zn 0.64234 0.63984 0.01952 0.0
O17 O 0.63277 0.63113 0.99732 0.0
C18 C 0.62274 0.62523 0.04306 0.0
O19 O 0.61701 0.62788 0.03144 0.0
O20 O 0.65901 0.6425 0.01681 0.0
C21 C 0.62832 0.61963 0.99596 0.0
O22 O 0.63013 0.61404 0.00893 0.0
C23 C 0.63675 0.6594 0.01813 0.0
O24 O 0.62681 0.65127 0.00978 0.0
O25 O 0.63395 0.62946 0.04089 0.0
C26 C 0.35886 0.02493 0.00384 0.0
O27 O 0.35223 0.01451 0.99502 0.0
O28 O 0.3516 0.99637 0.02094 0.0
Zn29 Zn 0.36827 0.01114 0.01704 0.0
O30 O 0.37592 0.00891 0.99492 0.0
C31 C 0.37423 0.00893 0.05317 0.0
O32 O 0.36255 0.00382 0.05544 0.0
O33 O 0.36684 0.02595 0.01457 0.0
C34 C 0.37904 0.00102 0.99475 0.0
O35 O 0.37687 0.99427 0.00887 0.0
C36 C 0.34575 0.9874 0.01005 0.0
O37 O 0.3506 0.98729 0.99462 0.0
O38 O 0.37878 0.01316 0.03799 0.0
C39 C 0.97782 0.64417 0.99308 0.0
O40 O 0.98709 0.64823 0.98223 0.0
O41 O 0.00647 0.65573 0.01623 0.0
Zn42 Zn 0.99269 0.63833 0.01183 0.0
O43 O 0.9955 0.63042 0.99028 0.0
C44 C 0.99901 0.63089 0.04375 0.0
O45 O 0.00948 0.6409 0.04082 0.0
O46 O 0.97788 0.6391 0.0074 0.0
C47 C 0.00324 0.62721 0.98996 0.0
O48 O 0.01013 0.62951 0.00398 0.0
C49 C 0.01603 0.66143 0.00698 0.0
O50 O 0.01759 0.65588 0.99318 0.0
O51 O 0.99028 0.628 0.03323 0.0
C52 C 0.33856 0.36396 0.02564 0.0
O53 O 0.34208 0.3569 0.03219 0.0
O54 O 0.35813 0.35705 0.00493 0.0
Zn55 Zn 0.36164 0.37406 0.01066 0.0
O56 O 0.3721 0.38069 0.0326 0.0
C57 C 0.36558 0.38433 0.9752 0.0
O58 O 0.3543 0.37558 0.97245 0.0
O59 O 0.34574 0.37268 0.01561 0.0
C60 C 0.38337 0.38505 0.03133 0.0
O61 O 0.38798 0.38502 0.01564 0.0
C62 C 0.36483 0.35452 0.9957 0.0
O63 O 0.37494 0.36347 0.98906 0.0
O64 O 0.37035 0.38534 0.99033 0.0
C65 C 0.63638 0.97902 0.02376 0.0
O66 O 0.63749 0.98673 0.03658 0.0
O67 O 0.64708 0.00933 0.99917 0.0
Zn68 Zn 0.63081 0.99428 0.00408 0.0
O69 O 0.62312 0.99695 0.02578 0.0
C70 C 0.62283 0.99564 0.96846 0.0
O71 O 0.63428 0.00388 0.96599 0.0
O72 O 0.63326 0.98019 0.00828 0.0
C73 C 0.62287 0.00666 0.02843 0.0
O74 O 0.62811 0.01553 0.01688 0.0
C75 C 0.65454 0.01567 0.01152 0.0
O76 O 0.65145 0.01267 0.02823 0.0
O77 O 0.61948 0.9903 0.98336 0.0
C78 C 0.6845 0.69167 0.35759 0.0
O79 O 0.67361 0.68477 0.36416 0.0
O80 O 0.65817 0.68679 0.33629 0.0
Zn81 Zn 0.67303 0.70326 0.34239 0.0
O82 O 0.67003 0.71124 0.36372 0.0
C83 C 0.66961 0.71299 0.31019 0.0
O84 O 0.65845 0.70383 0.31212 0.0
O85 O 0.68666 0.70057 0.3478 0.0
C86 C 0.66156 0.71341 0.36352 0.0
O87 O 0.6546 0.71017 0.34936 0.0
C88 C 0.6497 0.68044 0.34722 0.0
O89 O 0.6503 0.68469 0.36356 0.0
O90 O 0.67754 0.71451 0.32145 0.0
C91 C 0.33157 0.98164 0.35447 0.0
O92 O 0.33132 0.98902 0.36672 0.0
O93 O 0.3087 0.98913 0.35639 0.0
Zn94 Zn 0.30591 0.97231 0.35146 0.0
O95 O 0.2955 0.96455 0.32971 0.0
C96 C 0.29055 0.96259 0.38239 0.0
O97 O 0.28857 0.97145 0.37931 0.0
O98 O 0.32185 0.9738 0.34659 0.0
C99 C 0.28534 0.96353 0.32765 0.0
O100 O 0.28133 0.96792 0.34011 0.0
C101 C 0.31031 0.9963 0.34379 0.0
O102 O 0.30991 0.99255 0.32719 0.0
O103 O 0.2978 0.96134 0.37237 0.0
C104 C 0.02637 0.35992 0.35527 0.0
O105 O 0.01886 0.35129 0.36608 0.0
O106 O 0.02017 0.32948 0.35515 0.0
Zn107 Zn 0.03653 0.34453 0.35122 0.0
O108 O 0.04424 0.34233 0.32917 0.0
C109 C 0.04585 0.33799 0.38036 0.0
O110 O 0.03718 0.327 0.37517 0.0
O111 O 0.03475 0.35907 0.34786 0.0
C112 C 0.04392 0.33243 0.32546 0.0
O113 O 0.03807 0.32307 0.33608 0.0
C114 C 0.01175 0.32518 0.34364 0.0
O115 O 0.0137 0.33062 0.32825 0.0
O116 O 0.04728 0.34727 0.37225 0.0
C117 C 0.65006 0.97357 0.32696 0.0
O118 O 0.65783 0.97586 0.31403 0.0
O119 O 0.68071 0.98743 0.35112 0.0
Zn120 Zn 0.66701 0.97022 0.34582 0.0
O121 O 0.67037 0.96324 0.32364 0.0
C122 C 0.66194 0.94857 0.36477 0.0
O123 O 0.66017 0.94375 0.34858 0.0
O124 O 0.65198 0.97074 0.34217 0.0
C125 C 0.68012 0.96335 0.32148 0.0
O126 O 0.68846 0.96838 0.33393 0.0
C127 C 0.68731 0.99488 0.33916 0.0
O128 O 0.68542 0.99131 0.32231 0.0
O129 O 0.66479 0.95966 0.36682 0.0
C130 C 0.99875 0.69456 0.33782 0.0
O131 O 0.99999 0.68864 0.3242 0.0
O132 O 0.02196 0.68757 0.33563 0.0
Zn133 Zn 0.02415 0.70411 0.34149 0.0
O134 O 0.03513 0.71179 0.3627 0.0
C135 C 0.04273 0.71822 0.31695 0.0
O136 O 0.04807 0.71415 0.32695 0.0
O137 O 0.00798 0.70195 0.34707 0.0
C138 C 0.03658 0.72143 0.37034 0.0
O139 O 0.03053 0.72628 0.36453 0.0
C140 C 0.02908 0.68444 0.34142 0.0
O141 O 0.03814 0.69212 0.35174 0.0
O142 O 0.03193 0.7151 0.32052 0.0
C143 C 0.3068 0.3136 0.35921 0.0
O144 O 0.30913 0.3222 0.37125 0.0
O145 O 0.31692 0.34275 0.33186 0.0
Zn146 Zn 0.30071 0.32817 0.33849 0.0
O147 O 0.29414 0.33246 0.36007 0.0
C148 C 0.29059 0.33064 0.30583 0.0
O149 O 0.30045 0.34157 0.30603 0.0
O150 O 0.3029 0.3141 0.34398 0.0
C151 C 0.29106 0.34035 0.35903 0.0
O152 O 0.29219 0.34563 0.34371 0.0
C153 C 0.32382 0.35076 0.34341 0.0
O154 O 0.32031 0.34956 0.36015 0.0
O155 O 0.28886 0.32328 0.31821 0.0
C156 C 0.35388 0.02729 0.67282 0.0
O157 O 0.34681 0.02066 0.65949 0.0
O158 O 0.32344 0.01885 0.66892 0.0
Zn159 Zn 0.33741 0.03586 0.67465 0.0
O160 O 0.33329 0.04325 0.69546 0.0
C161 C 0.3369 0.04301 0.63812 0.0
O162 O 0.32952 0.03119 0.63528 0.0
O163 O 0.35175 0.03472 0.68119 0.0
C164 C 0.34024 0.05464 0.69878 0.0
O165 O 0.34974 0.06102 0.68861 0.0
C166 C 0.3163 0.01184 0.68085 0.0
O167 O 0.3178 0.01588 0.69748 0.0
O168 O 0.34138 0.04689 0.65359 0.0
C169 C 1.00008 0.30813 0.66619 0.0
O170 O 0.99325 0.3066 0.6524 0.0
O171 O 0.98096 0.32158 0.68824 0.0
Zn172 Zn 0.97938 0.30512 0.68486 0.0
O173 O 0.96906 0.29589 0.66336 0.0
C174 C 0.96012 0.29177 0.70867 0.0
O175 O 0.95518 0.29555 0.69736 0.0
O176 O 0.996 0.3077 0.68184 0.0
C177 C 0.96261 0.29892 0.65496 0.0
O178 O 0.96256 0.30877 0.66009 0.0
C179 C 0.98672 0.33026 0.67739 0.0
O180 O 0.99171 0.32848 0.66322 0.0
O181 O 0.97106 0.29491 0.7064 0.0
C182 C 0.69439 0.6916 0.66482 0.0
O183 O 0.68838 0.68073 0.65695 0.0
O184 O 0.68812 0.66513 0.68809 0.0
Zn185 Zn 0.70451 0.67958 0.68171 0.0
O186 O 0.71126 0.67556 0.66006 0.0
C187 C 0.71322 0.67786 0.71633 0.0
O188 O 0.7022 0.6684 0.71792 0.0
O189 O 0.70237 0.69366 0.67632 0.0
C190 C 0.71658 0.66968 0.66178 0.0
O191 O 0.71744 0.66616 0.67773 0.0
C192 C 0.68243 0.65522 0.6789 0.0
O193 O 0.68732 0.65393 0.66422 0.0
O194 O 0.71616 0.68413 0.70223 0.0
C195 C 0.31765 0.31631 0.68208 0.0
O196 O 0.32487 0.32201 0.69571 0.0
O197 O 0.34812 0.32366 0.68242 0.0
Zn198 Zn 0.33337 0.30708 0.67745 0.0
O199 O 0.33663 0.29928 0.65621 0.0
C200 C 0.33782 0.2944 0.70387 0.0
O201 O 0.34805 0.29926 0.69506 0.0
O202 O 0.31939 0.30912 0.67229 0.0
C203 C 0.33146 0.2877 0.65456 0.0
O204 O 0.32363 0.28074 0.66671 0.0
C205 C 0.35119 0.33243 0.67183 0.0
O206 O 0.34464 0.33049 0.65751 0.0
O207 O 0.32982 0.29655 0.69887 0.0
C208 C 0.66759 0.03092 0.67045 0.0
O209 O 0.66833 0.02512 0.65625 0.0
O210 O 0.68864 0.02088 0.66932 0.0
Zn211 Zn 0.69246 0.03813 0.67448 0.0
O212 O 0.70336 0.04551 0.696 0.0
C213 C 0.70692 0.04674 0.64254 0.0
O214 O 0.70851 0.03763 0.64574 0.0
O215 O 0.67689 0.0373 0.68013 0.0
C216 C 0.71479 0.05199 0.69488 0.0
O217 O 0.71992 0.05396 0.67912 0.0
C218 C 0.69489 0.01667 0.67507 0.0
O219 O 0.70444 0.02376 0.68494 0.0
O220 O 0.70029 0.04868 0.65298 0.0
C221 C 0.97211 0.64705 0.67271 0.0
O222 O 0.97901 0.654 0.65974 0.0
O223 O 0.98185 0.67829 0.66853 0.0
Zn224 Zn 0.9648 0.66477 0.674 0.0
O225 O 0.95811 0.66973 0.69483 0.0
C226 C 0.95561 0.66824 0.64085 0.0
O227 O 0.96474 0.67957 0.64269 0.0
O228 O 0.96517 0.64983 0.68075 0.0
C229 C 0.95191 0.67467 0.6927 0.0
O230 O 0.94988 0.67681 0.67647 0.0
C231 C 0.9859 0.68966 0.67109 0.0
O232 O 0.97871 0.69315 0.67753 0.0
O233 O 0.954 0.66042 0.65242 0.0
H234 H 0.21033 0.33116 0.13471 0.0
N235 N 0.19058 0.31156 0.11865 0.0
H236 H 0.22015 0.33096 0.16194 0.0
H237 H 0.18339 0.29287 0.14057 0.0
H238 H 0.19324 0.29261 0.1682 0.0
H239 H 0.19973 0.29996 0.10127 0.0
H240 H 0.21722 0.30884 0.08156 0.0
H241 H 0.2015 0.33458 0.10395 0.0
H242 H 0.2185 0.34328 0.08362 0.0
H243 H 0.19239 0.33179 0.13576 0.0
H244 H 0.16904 0.29993 0.10298 0.0
H245 H 0.17749 0.33769 0.13596 0.0
H246 H 0.15402 0.30603 0.10281 0.0
H247 H 0.1388 0.35493 0.15107 0.0
H248 H 0.12856 0.35299 0.17956 0.0
H249 H 0.10011 0.31652 0.16357 0.0
H250 H 0.11048 0.31848 0.1354 0.0
H251 H 0.1144 0.31915 0.10407 0.0
H252 H 0.10114 0.31958 0.0816 0.0
H253 H 0.11962 0.35899 0.08792 0.0
H254 H 0.13279 0.35844 0.11037 0.0
H255 H 0.15464 0.35231 0.11748 0.0
H256 H 0.16904 0.34552 0.1152 0.0
H257 H 0.14003 0.30814 0.1231 0.0
N258 N 0.13127 0.33884 0.12406 0.0
H259 H 0.1257 0.31501 0.12501 0.0
C260 C 0.19603 0.31198 0.13557 0.0
C261 C 0.20639 0.32273 0.142 0.0
C262 C 0.212 0.32262 0.15766 0.0
C263 C 0.20746 0.31178 0.16727 0.0
C264 C 0.19699 0.30109 0.16102 0.0
C265 C 0.19133 0.30123 0.14534 0.0
C266 C 0.19924 0.31649 0.10423 0.0
C267 C 0.20363 0.30935 0.09712 0.0
C268 C 0.21362 0.31445 0.08578 0.0
C269 C 0.21939 0.32685 0.08112 0.0
C270 C 0.21445 0.33378 0.08723 0.0
C271 C 0.20457 0.32872 0.09878 0.0
C272 C 0.18183 0.31529 0.11939 0.0
C273 C 0.18406 0.32599 0.12864 0.0
C274 C 0.17553 0.32946 0.12859 0.0
C275 C 0.1646 0.32238 0.1193 0.0
C276 C 0.16232 0.31163 0.1102 0.0
C277 C 0.17089 0.30816 0.11023 0.0
C278 C 0.12544 0.33691 0.14114 0.0
C279 C 0.13043 0.34648 0.15387 0.0
C280 C 0.12452 0.34538 0.17004 0.0
C281 C 0.11347 0.33463 0.17377 0.0
C282 C 0.10866 0.32487 0.16119 0.0
C283 C 0.11458 0.326 0.145 0.0
C284 C 0.12454 0.33881 0.10897 0.0
C285 C 0.11571 0.32788 0.10044 0.0
C286 C 0.10812 0.32814 0.08762 0.0
C287 C 0.1093 0.33931 0.08303 0.0
C288 C 0.11856 0.35025 0.09096 0.0
C289 C 0.12606 0.34997 0.10382 0.0
C290 C 0.13917 0.33423 0.12148 0.0
C291 C 0.15141 0.34264 0.11853 0.0
C292 C 0.15961 0.33875 0.11737 0.0
C293 C 0.15569 0.3263 0.11918 0.0
C294 C 0.14331 0.31778 0.12155 0.0
C295 C 0.1351 0.32171 0.12272 0.0
H296 H 0.70964 0.80586 0.12963 0.0
N297 N 0.69364 0.8105 0.1165 0.0
H298 H 0.70835 0.79571 0.15756 0.0
H299 H 0.67684 0.80486 0.14304 0.0
H300 H 0.67559 0.79498 0.17097 0.0
H301 H 0.66972 0.7924 0.11542 0.0
H302 H 0.66053 0.77466 0.09511 0.0
H303 H 0.70353 0.80707 0.08757 0.0
H304 H 0.69431 0.78944 0.06677 0.0
H305 H 0.71239 0.83286 0.11175 0.0
H306 H 0.67376 0.81275 0.11755 0.0
H307 H 0.71254 0.85193 0.10963 0.0
H308 H 0.67383 0.83178 0.11681 0.0
H309 H 0.7099 0.9113 0.12787 0.0
H310 H 0.70878 0.91987 0.15691 0.0
H311 H 0.67656 0.8854 0.16938 0.0
H312 H 0.67778 0.87693 0.14029 0.0
H313 H 0.67007 0.88013 0.11323 0.0
H314 H 0.65991 0.8873 0.09453 0.0
H315 H 0.69371 0.91176 0.06831 0.0
H316 H 0.70371 0.90418 0.08675 0.0
H317 H 0.71099 0.88522 0.12639 0.0
H318 H 0.71056 0.866 0.1269 0.0
H319 H 0.67624 0.84778 0.09944 0.0
N320 N 0.69439 0.88924 0.11415 0.0
H321 H 0.67639 0.86676 0.09995 0.0
C322 C 0.6934 0.80616 0.13417 0.0
C323 C 0.70232 0.80371 0.13879 0.0
C324 C 0.70157 0.79794 0.15477 0.0
C325 C 0.69181 0.79446 0.16645 0.0
C326 C 0.68313 0.79738 0.16214 0.0
C327 C 0.68389 0.80315 0.14616 0.0
C328 C 0.68739 0.80104 0.10306 0.0
C329 C 0.6751 0.79198 0.10465 0.0
C330 C 0.66982 0.78182 0.09294 0.0
C331 C 0.67672 0.78055 0.07942 0.0
C332 C 0.6888 0.79002 0.07723 0.0
C333 C 0.69407 0.80014 0.08898 0.0
C334 C 0.69315 0.82143 0.1151 0.0
C335 C 0.70396 0.83261 0.11277 0.0
C336 C 0.70401 0.84351 0.11173 0.0
C337 C 0.69321 0.8435 0.1133 0.0
C338 C 0.68232 0.8322 0.11537 0.0
C339 C 0.68228 0.82126 0.11607 0.0
C340 C 0.69394 0.89355 0.13192 0.0
C341 C 0.70269 0.90558 0.13699 0.0
C342 C 0.70206 0.91042 0.15358 0.0
C343 C 0.69256 0.90331 0.16541 0.0
C344 C 0.6839 0.89114 0.16046 0.0
C345 C 0.6846 0.88628 0.14388 0.0
C346 C 0.6877 0.89161 0.10132 0.0
C347 C 0.67525 0.88681 0.10317 0.0
C348 C 0.66945 0.89101 0.09254 0.0
C349 C 0.676 0.90023 0.08004 0.0
C350 C 0.68833 0.90456 0.07763 0.0
C351 C 0.69409 0.90027 0.08817 0.0
C352 C 0.69378 0.87761 0.11326 0.0
C353 C 0.70336 0.87706 0.12051 0.0
C354 C 0.70314 0.86604 0.12063 0.0
C355 C 0.69338 0.85525 0.11313 0.0
C356 C 0.68382 0.85582 0.10563 0.0
C357 C 0.68395 0.86682 0.10581 0.0
H358 H 0.12142 0.7872 0.12919 0.0
N359 N 0.12345 0.80811 0.11664 0.0
H360 H 0.11194 0.77714 0.15704 0.0
H361 H 0.11444 0.81593 0.14203 0.0
H362 H 0.10491 0.80589 0.17013 0.0
H363 H 0.10191 0.8009 0.10339 0.0
H364 H 0.09013 0.78401 0.0823 0.0
H365 H 0.13219 0.7962 0.09574 0.0
H366 H 0.12073 0.77981 0.0742 0.0
H367 H 0.14127 0.80338 0.12383 0.0
H368 H 0.13476 0.83185 0.10974 0.0
H369 H 0.16279 0.81801 0.1242 0.0
H370 H 0.15637 0.84693 0.11148 0.0
H371 H 0.22938 0.87217 0.14834 0.0
H372 H 0.23582 0.88441 0.17608 0.0
H373 H 0.20842 0.89338 0.16889 0.0
H374 H 0.20219 0.88126 0.14098 0.0
H375 H 0.21413 0.88997 0.11363 0.0
H376 H 0.22855 0.90379 0.09169 0.0
H377 H 0.24132 0.87896 0.08315 0.0
H378 H 0.22671 0.86509 0.10509 0.0
H379 H 0.19925 0.84848 0.14338 0.0
H380 H 0.17772 0.8337 0.14098 0.0
H381 H 0.17527 0.85483 0.09886 0.0
N382 N 0.21237 0.8691 0.12587 0.0
H383 H 0.19656 0.86999 0.10232 0.0
C384 C 0.11868 0.80239 0.13357 0.0
C385 C 0.11803 0.79147 0.13815 0.0
C386 C 0.11261 0.78572 0.15411 0.0
C387 C 0.10767 0.79072 0.16578 0.0
C388 C 0.10853 0.80176 0.16132 0.0
C389 C 0.11401 0.80754 0.14538 0.0
C390 C 0.11791 0.79988 0.10143 0.0
C391 C 0.10615 0.79649 0.09676 0.0
C392 C 0.09944 0.78684 0.08462 0.0
C393 C 0.10441 0.7804 0.07667 0.0
C394 C 0.1165 0.78435 0.08039 0.0
C395 C 0.12315 0.7939 0.09273 0.0
C396 C 0.13635 0.81647 0.11642 0.0
C397 C 0.14446 0.8128 0.12077 0.0
C398 C 0.15684 0.82129 0.12124 0.0
C399 C 0.16145 0.83377 0.118 0.0
C400 C 0.15328 0.8374 0.11372 0.0
C401 C 0.14089 0.82882 0.11282 0.0
C402 C 0.21534 0.87579 0.14267 0.0
C403 C 0.22472 0.87671 0.15288 0.0
C404 C 0.22833 0.88365 0.16874 0.0
C405 C 0.22261 0.88985 0.17472 0.0
C406 C 0.21309 0.88881 0.16455 0.0
C407 C 0.20948 0.88185 0.14866 0.0
C408 C 0.2194 0.87649 0.11107 0.0
C409 C 0.21988 0.88739 0.10687 0.0
C410 C 0.22818 0.89532 0.09435 0.0
C411 C 0.23617 0.89253 0.08582 0.0
C412 C 0.23523 0.88133 0.08937 0.0
C413 C 0.22692 0.87341 0.10191 0.0
C414 C 0.19966 0.86035 0.12308 0.0
C415 C 0.19404 0.8499 0.13363 0.0
C416 C 0.18171 0.84139 0.13209 0.0
C417 C 0.17465 0.84293 0.11959 0.0
C418 C 0.18031 0.85337 0.10884 0.0
C419 C 0.19264 0.86206 0.11069 0.0
H420 H 0.33649 0.2232 0.89125 0.0
N421 N 0.3167 0.20238 0.90396 0.0
H422 H 0.33811 0.23277 0.86291 0.0
H423 H 0.30026 0.19422 0.87807 0.0
H424 H 0.30186 0.20379 0.84933 0.0
H425 H 0.30246 0.20963 0.91742 0.0
H426 H 0.30822 0.2273 0.93725 0.0
H427 H 0.33784 0.21499 0.92385 0.0
H428 H 0.34347 0.23232 0.94376 0.0
H429 H 0.3394 0.20691 0.89635 0.0
H430 H 0.30367 0.17889 0.91249 0.0
H431 H 0.3459 0.19236 0.89688 0.0
H432 H 0.30986 0.16383 0.91174 0.0
H433 H 0.36011 0.14135 0.87808 0.0
H434 H 0.35612 0.12946 0.85022 0.0
H435 H 0.31812 0.11615 0.85553 0.0
H436 H 0.32226 0.12811 0.88349 0.0
H437 H 0.32448 0.12179 0.91263 0.0
H438 H 0.32463 0.10833 0.93498 0.0
H439 H 0.363 0.13319 0.94209 0.0
H440 H 0.36264 0.14675 0.92001 0.0
H441 H 0.35137 0.16182 0.87973 0.0
H442 H 0.34447 0.17616 0.88081 0.0
H443 H 0.32103 0.15659 0.92501 0.0
N444 N 0.34427 0.14234 0.89949 0.0
H445 H 0.32732 0.14181 0.923 0.0
C446 C 0.31821 0.20791 0.8868 0.0
C447 C 0.32892 0.21877 0.88216 0.0
C448 C 0.32986 0.22424 0.86586 0.0
C449 C 0.32012 0.21902 0.85385 0.0
C450 C 0.30948 0.20808 0.85838 0.0
C451 C 0.30856 0.20257 0.8747 0.0
C452 C 0.31964 0.21093 0.91883 0.0
C453 C 0.31131 0.21434 0.92353 0.0
C454 C 0.31463 0.22444 0.93488 0.0
C455 C 0.32638 0.23134 0.94185 0.0
C456 C 0.33443 0.22735 0.93829 0.0
C457 C 0.33113 0.21729 0.92687 0.0
C458 C 0.32102 0.19405 0.90467 0.0
C459 C 0.3329 0.19761 0.90003 0.0
C460 C 0.33659 0.18915 0.90009 0.0
C461 C 0.3284 0.1768 0.90418 0.0
C462 C 0.3165 0.17327 0.9088 0.0
C463 C 0.3129 0.18183 0.90913 0.0
C464 C 0.34152 0.13559 0.88279 0.0
C465 C 0.35095 0.13592 0.87312 0.0
C466 C 0.34864 0.12918 0.8572 0.0
C467 C 0.3368 0.1219 0.85065 0.0
C468 C 0.32732 0.1216 0.86033 0.0
C469 C 0.32966 0.12843 0.87626 0.0
C470 C 0.3436 0.13531 0.91467 0.0
C471 C 0.33287 0.12447 0.91927 0.0
C472 C 0.33299 0.11674 0.93199 0.0
C473 C 0.34385 0.1196 0.94019 0.0
C474 C 0.35444 0.13075 0.93621 0.0
C475 C 0.35429 0.13851 0.92357 0.0
C476 C 0.33995 0.15068 0.90117 0.0
C477 C 0.34469 0.16059 0.8896 0.0
C478 C 0.34081 0.16888 0.89039 0.0
C479 C 0.33225 0.16769 0.90315 0.0
C480 C 0.3275 0.15775 0.91484 0.0
C481 C 0.33121 0.14927 0.91377 0.0
H482 H 0.77776 0.12019 0.89399 0.0
N483 N 0.79846 0.12234 0.90687 0.0
H484 H 0.7681 0.11106 0.86549 0.0
H485 H 0.80606 0.11319 0.88132 0.0
H486 H 0.79625 0.10375 0.85267 0.0
H487 H 0.79454 0.10234 0.92285 0.0
H488 H 0.77871 0.09007 0.94445 0.0
H489 H 0.78434 0.12943 0.92494 0.0
H490 H 0.76842 0.11716 0.94586 0.0
H491 H 0.79369 0.14044 0.90024 0.0
H492 H 0.8219 0.13386 0.91369 0.0
H493 H 0.80816 0.16226 0.89965 0.0
H494 H 0.83678 0.15578 0.91165 0.0
H495 H 0.86078 0.22848 0.8722 0.0
H496 H 0.87405 0.23533 0.84615 0.0
H497 H 0.88506 0.20972 0.85803 0.0
H498 H 0.8718 0.20303 0.88421 0.0
H499 H 0.87885 0.21602 0.91146 0.0
H500 H 0.89125 0.23191 0.93344 0.0
H501 H 0.8645 0.24219 0.93728 0.0
H502 H 0.85226 0.2264 0.91472 0.0
H503 H 0.83767 0.1985 0.87873 0.0
H504 H 0.82316 0.17668 0.88186 0.0
H505 H 0.84506 0.17545 0.9238 0.0
N506 N 0.85819 0.21237 0.89612 0.0
H507 H 0.85989 0.19702 0.9196 0.0
C508 C 0.79268 0.11735 0.88985 0.0
C509 C 0.78194 0.11672 0.88509 0.0
C510 C 0.77635 0.1114 0.86879 0.0
C511 C 0.78136 0.1066 0.85687 0.0
C512 C 0.79222 0.10745 0.8615 0.0
C513 C 0.7978 0.11277 0.87785 0.0
C514 C 0.79068 0.11678 0.92208 0.0
C515 C 0.78907 0.10577 0.92823 0.0
C516 C 0.77995 0.09872 0.94043 0.0
C517 C 0.77217 0.10254 0.94669 0.0
C518 C 0.77429 0.11397 0.94143 0.0
C519 C 0.78344 0.12103 0.92928 0.0
C520 C 0.80667 0.13545 0.90741 0.0
C521 C 0.80299 0.14366 0.90328 0.0
C522 C 0.81139 0.15623 0.90259 0.0
C523 C 0.82374 0.1609 0.90542 0.0
C524 C 0.82736 0.15264 0.90968 0.0
C525 C 0.81889 0.14008 0.91077 0.0
C526 C 0.8653 0.21529 0.88007 0.0
C527 C 0.86595 0.22426 0.869 0.0
C528 C 0.8735 0.22811 0.85412 0.0
C529 C 0.88061 0.22305 0.85001 0.0
C530 C 0.87979 0.21387 0.86095 0.0
C531 C 0.87217 0.20999 0.87584 0.0
C532 C 0.86464 0.2201 0.91133 0.0
C533 C 0.87553 0.22153 0.91722 0.0
C534 C 0.8826 0.2306 0.92993 0.0
C535 C 0.87893 0.23841 0.93702 0.0
C536 C 0.86768 0.23645 0.93188 0.0
C537 C 0.86063 0.22739 0.91912 0.0
C538 C 0.8498 0.1995 0.89898 0.0
C539 C 0.83931 0.19348 0.88858 0.0
C540 C 0.83097 0.181 0.89055 0.0
C541 C 0.83279 0.17422 0.90329 0.0
C542 C 0.84336 0.18028 0.91372 0.0
C543 C 0.85185 0.19274 0.91146 0.0
H544 H 0.80642 0.71889 0.89741 0.0
N545 N 0.81223 0.70333 0.90946 0.0
H546 H 0.7957 0.71712 0.86979 0.0
H547 H 0.8057 0.68568 0.88327 0.0
H548 H 0.7948 0.6837 0.85573 0.0
H549 H 0.79406 0.67924 0.91151 0.0
H550 H 0.77733 0.67088 0.93259 0.0
H551 H 0.81044 0.71439 0.93876 0.0
H552 H 0.79377 0.70601 0.96024 0.0
H553 H 0.83364 0.71948 0.89642 0.0
H554 H 0.81436 0.68414 0.92113 0.0
H555 H 0.85152 0.71803 0.89407 0.0
H556 H 0.83238 0.683 0.92004 0.0
H557 H 0.90782 0.71453 0.88541 0.0
H558 H 0.91556 0.71282 0.85623 0.0
H559 H 0.88146 0.67965 0.84462 0.0
H560 H 0.87394 0.68129 0.87377 0.0
H561 H 0.87906 0.67433 0.90052 0.0
H562 H 0.88701 0.66504 0.9196 0.0
H563 H 0.9086 0.69971 0.94783 0.0
H564 H 0.90086 0.70903 0.92815 0.0
H565 H 0.88527 0.71833 0.90624 0.0
H566 H 0.86715 0.71932 0.90999 0.0
H567 H 0.84521 0.67995 0.90198 0.0
N568 N 0.88672 0.69874 0.8999 0.0
H569 H 0.86342 0.67907 0.89978 0.0
C570 C 0.80685 0.70247 0.89236 0.0
C571 C 0.80403 0.71128 0.88823 0.0
C572 C 0.79783 0.7102 0.87254 0.0
C573 C 0.79433 0.70022 0.86065 0.0
C574 C 0.79747 0.69155 0.86455 0.0
C575 C 0.80365 0.69263 0.88031 0.0
C576 C 0.8035 0.6975 0.92354 0.0
C577 C 0.79421 0.68509 0.9223 0.0
C578 C 0.78466 0.68029 0.93445 0.0
C579 C 0.78416 0.68781 0.948 0.0
C580 C 0.79382 0.70003 0.9498 0.0
C581 C 0.80338 0.7048 0.93767 0.0
C582 C 0.82263 0.70205 0.90901 0.0
C583 C 0.83332 0.71149 0.90157 0.0
C584 C 0.84358 0.71067 0.90041 0.0
C585 C 0.84352 0.70044 0.90704 0.0
C586 C 0.83278 0.69095 0.91456 0.0
C587 C 0.82241 0.69167 0.91537 0.0
C588 C 0.89033 0.69812 0.88183 0.0
C589 C 0.90198 0.70701 0.87641 0.0
C590 C 0.90637 0.70602 0.85973 0.0
C591 C 0.89914 0.69606 0.84812 0.0
C592 C 0.88731 0.68734 0.85335 0.0
C593 C 0.88295 0.68834 0.87004 0.0
C594 C 0.88951 0.69245 0.91282 0.0
C595 C 0.88533 0.67989 0.91099 0.0
C596 C 0.88986 0.67456 0.92202 0.0
C597 C 0.89858 0.68167 0.93511 0.0
C598 C 0.90209 0.69403 0.93764 0.0
C599 C 0.89761 0.69935 0.92655 0.0
C600 C 0.87573 0.69872 0.90239 0.0
C601 C 0.87652 0.70994 0.90542 0.0
C602 C 0.86612 0.71046 0.90737 0.0
C603 C 0.85461 0.69974 0.90598 0.0
C604 C 0.85386 0.68842 0.90327 0.0
C605 C 0.86431 0.6879 0.90171 0.0
H606 H 0.75604 0.62517 0.47035 0.0
N607 N 0.77685 0.63938 0.45393 0.0
H608 H 0.74966 0.62873 0.49954 0.0
H609 H 0.79085 0.65815 0.47747 0.0
H610 H 0.78466 0.6617 0.50686 0.0
H611 H 0.78364 0.66343 0.45057 0.0
H612 H 0.77477 0.6712 0.43036 0.0
H613 H 0.76204 0.6273 0.42683 0.0
H614 H 0.75325 0.63507 0.40617 0.0
H615 H 0.78089 0.622 0.46296 0.0
H616 H 0.7986 0.65825 0.44126 0.0
H617 H 0.7998 0.6224 0.46174 0.0
H618 H 0.81733 0.65844 0.43883 0.0
H619 H 0.85566 0.62189 0.4642 0.0
H620 H 0.86611 0.62282 0.49173 0.0
H621 H 0.87456 0.65992 0.50165 0.0
H622 H 0.86379 0.6587 0.47475 0.0
H623 H 0.87143 0.66397 0.44587 0.0
H624 H 0.88823 0.67192 0.42507 0.0
H625 H 0.87293 0.63579 0.40081 0.0
H626 H 0.85639 0.62781 0.42239 0.0
H627 H 0.832 0.62103 0.44364 0.0
H628 H 0.81328 0.62107 0.44292 0.0
H629 H 0.83337 0.66008 0.45475 0.0
N630 N 0.85405 0.63976 0.44999 0.0
H631 H 0.85203 0.66002 0.45399 0.0
C632 C 0.77387 0.64133 0.47179 0.0
C633 C 0.76235 0.63308 0.47839 0.0
C634 C 0.75876 0.63512 0.49508 0.0
C635 C 0.76666 0.64551 0.50555 0.0
C636 C 0.77832 0.65369 0.49904 0.0
C637 C 0.7819 0.65163 0.48231 0.0
C638 C 0.77344 0.64471 0.44025 0.0
C639 C 0.77719 0.65722 0.44072 0.0
C640 C 0.77214 0.66167 0.42906 0.0
C641 C 0.76321 0.65373 0.41675 0.0
C642 C 0.75997 0.64138 0.41568 0.0
C643 C 0.76504 0.63695 0.42734 0.0
C644 C 0.7882 0.63996 0.45205 0.0
C645 C 0.78883 0.62996 0.45764 0.0
C646 C 0.79966 0.63019 0.45678 0.0
C647 C 0.81016 0.64041 0.44999 0.0
C648 C 0.80951 0.65046 0.44433 0.0
C649 C 0.79869 0.65031 0.44552 0.0
C650 C 0.85893 0.64017 0.46733 0.0
C651 C 0.85958 0.63011 0.47257 0.0
C652 C 0.86565 0.63072 0.48819 0.0
C653 C 0.87129 0.64149 0.49886 0.0
C654 C 0.87022 0.65141 0.49392 0.0
C655 C 0.86408 0.65076 0.47836 0.0
C656 C 0.86272 0.64521 0.43584 0.0
C657 C 0.87156 0.65778 0.43596 0.0
C658 C 0.88117 0.66235 0.4239 0.0
C659 C 0.88206 0.65447 0.41139 0.0
C660 C 0.8727 0.64207 0.41052 0.0
C661 C 0.86317 0.6375 0.42269 0.0
C662 C 0.84336 0.64041 0.44921 0.0
C663 C 0.83231 0.62958 0.44595 0.0
C664 C 0.82162 0.62963 0.44573 0.0
C665 C 0.8217 0.64055 0.4491 0.0
C666 C 0.83289 0.65149 0.45199 0.0
C667 C 0.84362 0.65145 0.45185 0.0
H668 H 0.38011 0.13983 0.46183 0.0
N669 N 0.3649 0.14524 0.44781 0.0
H670 H 0.37732 0.12823 0.4888 0.0
H671 H 0.34652 0.13792 0.47191 0.0
H672 H 0.34344 0.12601 0.49868 0.0
H673 H 0.34128 0.12697 0.44309 0.0
H674 H 0.33363 0.11025 0.42107 0.0
H675 H 0.37682 0.14329 0.42016 0.0
H676 H 0.36917 0.12652 0.39783 0.0
H677 H 0.38047 0.16712 0.46175 0.0
H678 H 0.34629 0.1473 0.43426 0.0
H679 H 0.37921 0.18544 0.46269 0.0
H680 H 0.34535 0.16569 0.43406 0.0
H681 H 0.37745 0.2425 0.46782 0.0
H682 H 0.37585 0.25072 0.4969 0.0
H683 H 0.34118 0.21772 0.50509 0.0
H684 H 0.34306 0.20951 0.47653 0.0
H685 H 0.33718 0.2136 0.44896 0.0
H686 H 0.32862 0.22204 0.42949 0.0
H687 H 0.36349 0.24466 0.40487 0.0
H688 H 0.37209 0.23642 0.42499 0.0
H689 H 0.38031 0.21965 0.44736 0.0
H690 H 0.38104 0.20099 0.44525 0.0
H691 H 0.34223 0.17928 0.45095 0.0
N692 N 0.36119 0.22155 0.452 0.0
H693 H 0.34161 0.19796 0.45162 0.0
C694 C 0.36355 0.13969 0.46487 0.0
C695 C 0.3722 0.137 0.47002 0.0
C696 C 0.37052 0.13028 0.48531 0.0
C697 C 0.36008 0.12605 0.49577 0.0
C698 C 0.35161 0.12919 0.49098 0.0
C699 C 0.35333 0.13595 0.47565 0.0
C700 C 0.35967 0.13643 0.43324 0.0
C701 C 0.34739 0.12712 0.43305 0.0
C702 C 0.343 0.11757 0.42037 0.0
C703 C 0.35081 0.11704 0.40776 0.0
C704 C 0.36297 0.12663 0.40748 0.0
C705 C 0.36733 0.13624 0.42011 0.0
C706 C 0.3636 0.15579 0.44788 0.0
C707 C 0.37275 0.16675 0.45576 0.0
C708 C 0.37206 0.17727 0.4561 0.0
C709 C 0.36224 0.17717 0.44824 0.0
C710 C 0.35299 0.16614 0.44043 0.0
C711 C 0.35359 0.15554 0.44041 0.0
C712 C 0.36043 0.22544 0.46993 0.0
C713 C 0.36962 0.23699 0.47608 0.0
C714 C 0.36863 0.2417 0.49261 0.0
C715 C 0.35834 0.23492 0.50328 0.0
C716 C 0.3493 0.22314 0.49733 0.0
C717 C 0.35034 0.21844 0.48085 0.0
C718 C 0.35536 0.22449 0.43854 0.0
C719 C 0.34296 0.22018 0.43918 0.0
C720 C 0.33804 0.225 0.42792 0.0
C721 C 0.3454 0.23417 0.41575 0.0
C722 C 0.35762 0.23781 0.41434 0.0
C723 C 0.36253 0.23304 0.42568 0.0
C724 C 0.36099 0.21024 0.44992 0.0
C725 C 0.37198 0.21083 0.44796 0.0
C726 C 0.37236 0.20013 0.44698 0.0
C727 C 0.36171 0.18854 0.44825 0.0
C728 C 0.35063 0.18798 0.4498 0.0
C729 C 0.35026 0.19872 0.45044 0.0
H730 H 0.79908 0.13205 0.47412 0.0
N731 N 0.79162 0.14194 0.44905 0.0
H732 H 0.78831 0.12193 0.50127 0.0
H733 H 0.77249 0.1414 0.4629 0.0
H734 H 0.76188 0.13173 0.49051 0.0
H735 H 0.78003 0.1422 0.42023 0.0
H736 H 0.76902 0.12554 0.39805 0.0
H737 H 0.79133 0.12032 0.44671 0.0
H738 H 0.78066 0.10395 0.42465 0.0
H739 H 0.81008 0.13766 0.44219 0.0
H740 H 0.80238 0.1658 0.45591 0.0
H741 H 0.83147 0.1527 0.44282 0.0
H742 H 0.824 0.18097 0.45743 0.0
H743 H 0.8987 0.20516 0.47478 0.0
H744 H 0.90719 0.2167 0.50269 0.0
H745 H 0.87943 0.22566 0.50453 0.0
H746 H 0.87127 0.21441 0.47634 0.0
H747 H 0.88257 0.22491 0.44849 0.0
H748 H 0.89593 0.23947 0.42637 0.0
H749 H 0.90682 0.21418 0.40928 0.0
H750 H 0.89312 0.19949 0.43124 0.0
H751 H 0.86883 0.17973 0.46508 0.0
H752 H 0.84721 0.16477 0.4632 0.0
H753 H 0.84178 0.19218 0.44019 0.0
N754 N 0.88051 0.20306 0.45614 0.0
H755 H 0.86325 0.20714 0.44293 0.0
C756 C 0.7865 0.13741 0.46639 0.0
C757 C 0.79104 0.13213 0.47767 0.0
C758 C 0.78489 0.1264 0.4933 0.0
C759 C 0.77415 0.1259 0.49803 0.0
C760 C 0.76998 0.13171 0.48711 0.0
C761 C 0.77608 0.13735 0.47143 0.0
C762 C 0.78663 0.13265 0.43502 0.0
C763 C 0.78037 0.13395 0.42101 0.0
C764 C 0.77407 0.12444 0.40845 0.0
C765 C 0.77405 0.11349 0.4096 0.0
C766 C 0.78068 0.11236 0.42325 0.0
C767 C 0.78681 0.12177 0.43593 0.0
C768 C 0.80448 0.15059 0.44881 0.0
C769 C 0.8129 0.14705 0.44531 0.0
C770 C 0.82526 0.15572 0.44587 0.0
C771 C 0.82953 0.16809 0.45022 0.0
C772 C 0.82108 0.17159 0.45373 0.0
C773 C 0.80872 0.16293 0.45297 0.0
C774 C 0.88436 0.20886 0.47353 0.0
C775 C 0.89438 0.20949 0.48138 0.0
C776 C 0.89917 0.21605 0.49736 0.0
C777 C 0.89399 0.22212 0.50588 0.0
C778 C 0.88373 0.22123 0.49821 0.0
C779 C 0.87898 0.21469 0.48215 0.0
C780 C 0.88686 0.21106 0.44152 0.0
C781 C 0.88759 0.22235 0.43972 0.0
C782 C 0.89533 0.23073 0.42714 0.0
C783 C 0.90254 0.22805 0.41618 0.0
C784 C 0.90131 0.2165 0.41737 0.0
C785 C 0.89353 0.2081 0.42994 0.0
C786 C 0.86774 0.1945 0.45401 0.0
C787 C 0.86295 0.18246 0.45958 0.0
C788 C 0.85059 0.17391 0.45838 0.0
C789 C 0.84271 0.17722 0.45142 0.0
C790 C 0.84754 0.18933 0.4458 0.0
C791 C 0.85991 0.19791 0.44719 0.0
H792 H 0.03199 0.56738 0.20416 0.0
N793 N 0.01787 0.5505 0.22736 0.0
H794 H 0.02588 0.57372 0.17783 0.0
H795 H 0.99496 0.53945 0.21396 0.0
H796 H 0.98871 0.54567 0.18752 0.0
H797 H 0.99916 0.55213 0.24122 0.0
H798 H 0.00088 0.56751 0.26273 0.0
H799 H 0.03699 0.56554 0.24727 0.0
H800 H 0.03874 0.58074 0.26951 0.0
H801 H 0.02619 0.5381 0.2103 0.0
H802 H 0.00033 0.53408 0.25032 0.0
H803 H 0.01995 0.5167 0.21344 0.0
H804 H 0.99465 0.51295 0.25456 0.0
H805 H 0.01264 0.46233 0.22811 0.0
H806 H 0.0147 0.45316 0.20049 0.0
H807 H 0.97837 0.44219 0.18558 0.0
H808 H 0.97633 0.45133 0.21354 0.0
H809 H 0.97735 0.44122 0.25478 0.0
H810 H 0.98201 0.43069 0.27709 0.0
H811 H 0.01815 0.46226 0.28179 0.0
H812 H 0.01357 0.47256 0.25938 0.0
H813 H 0.01527 0.48191 0.23275 0.0
H814 H 0.02125 0.50323 0.23152 0.0
H815 H 0.98449 0.49314 0.24256 0.0
N816 N 0.99252 0.46232 0.23952 0.0
H817 H 0.97881 0.47177 0.24522 0.0
C818 C 0.01397 0.553 0.21096 0.0
C819 C 0.02256 0.5625 0.2004 0.0
C820 C 0.01904 0.56606 0.18535 0.0
C821 C 0.0068 0.5602 0.18059 0.0
C822 C 0.99819 0.55043 0.19095 0.0
C823 C 0.00175 0.54684 0.20599 0.0
C824 C 0.01803 0.5578 0.24247 0.0
C825 C 0.00779 0.5582 0.2475 0.0
C826 C 0.00878 0.56698 0.25996 0.0
C827 C 0.01999 0.57549 0.26771 0.0
C828 C 0.03002 0.57449 0.26353 0.0
C829 C 0.02903 0.56575 0.25098 0.0
C830 C 0.01391 0.53781 0.23013 0.0
C831 C 0.01928 0.53262 0.21996 0.0
C832 C 0.01576 0.52039 0.22194 0.0
C833 C 0.00689 0.51303 0.23448 0.0
C834 C 0.00143 0.51824 0.24464 0.0
C835 C 0.00479 0.53045 0.24235 0.0
C836 C 0.99427 0.45751 0.2229 0.0
C837 C 0.00514 0.45808 0.21888 0.0
C838 C 0.00633 0.45285 0.20301 0.0
C839 C 0.9967 0.44694 0.19084 0.0
C840 C 0.98591 0.44655 0.19478 0.0
C841 C 0.98474 0.45182 0.21065 0.0
C842 C 0.99503 0.45765 0.2552 0.0
C843 C 0.98618 0.44598 0.26097 0.0
C844 C 0.98886 0.43999 0.27376 0.0
C845 C 0.00051 0.44559 0.28108 0.0
C846 C 0.00916 0.45761 0.27617 0.0
C847 C 0.00648 0.46358 0.26334 0.0
C848 C 0.99657 0.47518 0.23945 0.0
C849 C 0.00852 0.48424 0.23536 0.0
C850 C 0.01191 0.49651 0.23433 0.0
C851 C 0.00336 0.50001 0.23676 0.0
C852 C 0.99141 0.4909 0.2409 0.0
C853 C 0.9881 0.47865 0.24233 0.0
H854 H 0.57068 0.5366 0.22577 0.0
N855 N 0.55013 0.53047 0.24206 0.0
H856 H 0.57811 0.54705 0.19739 0.0
H857 H 0.5375 0.53591 0.21905 0.0
H858 H 0.5448 0.5463 0.19053 0.0
H859 H 0.54456 0.54825 0.24673 0.0
H860 H 0.55441 0.56576 0.26736 0.0
H861 H 0.56466 0.53354 0.26891 0.0
H862 H 0.57438 0.55095 0.29008 0.0
H863 H 0.54463 0.50845 0.23055 0.0
H864 H 0.52898 0.52751 0.25595 0.0
H865 H 0.52512 0.4894 0.23098 0.0
H866 H 0.50965 0.50838 0.25764 0.0
H867 H 0.46702 0.43085 0.22513 0.0
H868 H 0.45806 0.42241 0.1957 0.0
H869 H 0.4549 0.4539 0.18738 0.0
H870 H 0.46395 0.46226 0.21645 0.0
H871 H 0.45333 0.45735 0.24437 0.0
H872 H 0.43582 0.44765 0.26401 0.0
H873 H 0.44956 0.42695 0.28783 0.0
H874 H 0.46688 0.43645 0.26762 0.0
H875 H 0.49207 0.4546 0.24669 0.0
H876 H 0.51134 0.47397 0.24891 0.0
H877 H 0.49295 0.4936 0.24162 0.0
N878 N 0.47053 0.45123 0.24099 0.0
H879 H 0.47371 0.4742 0.24101 0.0
C880 C 0.5536 0.53551 0.22449 0.0
C881 C 0.56494 0.53855 0.21798 0.0
C882 C 0.56913 0.54447 0.20175 0.0
C883 C 0.56205 0.54752 0.19171 0.0
C884 C 0.55052 0.54419 0.19805 0.0
C885 C 0.54631 0.53821 0.21429 0.0
C886 C 0.55396 0.5396 0.25621 0.0
C887 C 0.55088 0.54862 0.25635 0.0
C888 C 0.55649 0.55863 0.26826 0.0
C889 C 0.56529 0.55983 0.28026 0.0
C890 C 0.56779 0.5504 0.28081 0.0
C891 C 0.56218 0.5404 0.26887 0.0
C892 C 0.5384 0.51941 0.24333 0.0
C893 C 0.53701 0.50847 0.23649 0.0
C894 C 0.52583 0.49755 0.23693 0.0
C895 C 0.51573 0.49722 0.24458 0.0
C896 C 0.51714 0.50824 0.25147 0.0
C897 C 0.52831 0.51925 0.25068 0.0
C898 C 0.46623 0.44718 0.22301 0.0
C899 C 0.46453 0.43597 0.2168 0.0
C900 C 0.45934 0.43115 0.20008 0.0
C901 C 0.45574 0.43748 0.18923 0.0
C902 C 0.45772 0.44887 0.1953 0.0
C903 C 0.46288 0.45366 0.21204 0.0
C904 C 0.46136 0.4475 0.25445 0.0
C905 C 0.45271 0.45091 0.25402 0.0
C906 C 0.44269 0.44537 0.26534 0.0
C907 C 0.44119 0.43638 0.27733 0.0
C908 C 0.45031 0.43364 0.2785 0.0
C909 C 0.46026 0.43913 0.26712 0.0
C910 C 0.48151 0.46292 0.2433 0.0
C911 C 0.49224 0.46312 0.24578 0.0
C912 C 0.50326 0.47423 0.24683 0.0
C913 C 0.50383 0.48544 0.24504 0.0
C914 C 0.49295 0.48521 0.24313 0.0
C915 C 0.48188 0.47406 0.24249 0.0
H916 H 0.53571 0.96806 0.20427 0.0
N917 N 0.52909 0.98011 0.22597 0.0
H918 H 0.54915 0.97597 0.17845 0.0
H919 H 0.53878 0.00302 0.21235 0.0
H920 H 0.55226 0.01106 0.18637 0.0
H921 H 0.54681 0.00106 0.24243 0.0
H922 H 0.5604 0.0022 0.26568 0.0
H923 H 0.52681 0.96164 0.24449 0.0
H924 H 0.54053 0.96261 0.26732 0.0
H925 H 0.50801 0.96519 0.21069 0.0
H926 H 0.52662 0.9974 0.24475 0.0
H927 H 0.48971 0.96595 0.21279 0.0
H928 H 0.50816 0.99788 0.24783 0.0
H929 H 0.4353 0.96467 0.21212 0.0
H930 H 0.42669 0.96873 0.1862 0.0
H931 H 0.45301 0.00745 0.19233 0.0
H932 H 0.46157 0.00327 0.21807 0.0
H933 H 0.45718 0.00214 0.24975 0.0
H934 H 0.44452 0.00361 0.27292 0.0
H935 H 0.42416 0.96411 0.27662 0.0
H936 H 0.43654 0.9628 0.25288 0.0
H937 H 0.45551 0.96194 0.23345 0.0
H938 H 0.47432 0.96204 0.23291 0.0
H939 H 0.49444 0.00171 0.23314 0.0
N940 N 0.45286 0.98106 0.23329 0.0
H941 H 0.47548 0.00139 0.23487 0.0
C942 C 0.53623 0.9849 0.21009 0.0
C943 C 0.53922 0.97741 0.20031 0.0
C944 C 0.54695 0.98198 0.1857 0.0
C945 C 0.55183 0.99416 0.18053 0.0
C946 C 0.54859 0.00162 0.19006 0.0
C947 C 0.54091 0.99705 0.20486 0.0
C948 C 0.53579 0.98122 0.24179 0.0
C949 C 0.54517 0.99266 0.24821 0.0
C950 C 0.553 0.99329 0.26138 0.0
C951 C 0.55165 0.9825 0.26825 0.0
C952 C 0.54178 0.97111 0.26253 0.0
C953 C 0.53394 0.97052 0.24945 0.0
C954 C 0.51859 0.98107 0.22773 0.0
C955 C 0.50807 0.97235 0.21879 0.0
C956 C 0.4976 0.97276 0.22016 0.0
C957 C 0.49735 0.98186 0.23075 0.0
C958 C 0.50801 0.99077 0.23949 0.0
C959 C 0.51858 0.99044 0.23788 0.0
C960 C 0.44906 0.98362 0.21692 0.0
C961 C 0.43931 0.97399 0.20762 0.0
C962 C 0.43437 0.97634 0.19295 0.0
C963 C 0.43912 0.98843 0.18732 0.0
C964 C 0.44922 0.99804 0.19626 0.0
C965 C 0.45412 0.99567 0.21099 0.0
C966 C 0.4476 0.98233 0.24949 0.0
C967 C 0.45013 0.99385 0.25583 0.0
C968 C 0.44293 0.99466 0.26915 0.0
C969 C 0.43317 0.98395 0.27637 0.0
C970 C 0.43141 0.97251 0.27104 0.0
C971 C 0.43853 0.97173 0.25764 0.0
C972 C 0.46414 0.98161 0.2339 0.0
C973 C 0.46402 0.97063 0.23354 0.0
C974 C 0.47478 0.97074 0.23305 0.0
C975 C 0.48595 0.98189 0.23261 0.0
C976 C 0.48604 0.99295 0.23351 0.0
C977 C 0.47521 0.99281 0.23428 0.0
H978 H 0.42702 0.96544 0.80491 0.0
N979 N 0.44716 0.98088 0.78789 0.0
H980 H 0.42031 0.96847 0.83422 0.0
H981 H 0.46017 0.00037 0.81081 0.0
H982 H 0.45349 0.00356 0.84011 0.0
H983 H 0.45343 0.00474 0.78376 0.0
H984 H 0.44405 0.01184 0.76341 0.0
H985 H 0.4324 0.96824 0.761 0.0
H986 H 0.4232 0.97537 0.74002 0.0
H987 H 0.45108 0.96335 0.79634 0.0
H988 H 0.46897 0.99997 0.77599 0.0
H989 H 0.46992 0.96363 0.79478 0.0
H990 H 0.4877 8e-05 0.77317 0.0
H991 H 0.52674 0.96221 0.79138 0.0
H992 H 0.53684 0.96158 0.81835 0.0
H993 H 0.54177 0.99629 0.8361 0.0
H994 H 0.53154 0.99672 0.80942 0.0
H995 H 0.54245 0.00402 0.78134 0.0
H996 H 0.55953 0.01264 0.76089 0.0
H997 H 0.54199 0.97886 0.72961 0.0
H998 H 0.52517 0.97015 0.75072 0.0
H999 H 0.50148 0.96184 0.77497 0.0
H1000 H 0.48301 0.96234 0.77515 0.0
H1001 H 0.50381 0.00115 0.78836 0.0
N1002 N 0.52372 0.98015 0.78132 0.0
H1003 H 0.52228 0.00063 0.7867 0.0
C1004 C 0.44401 0.98267 0.8057 0.0
C1005 C 0.43288 0.9737 0.81266 0.0
C1006 C 0.4291 0.97544 0.82939 0.0
C1007 C 0.43638 0.98626 0.83943 0.0
C1008 C 0.44766 0.99518 0.83258 0.0
C1009 C 0.45149 0.99337 0.81588 0.0
C1010 C 0.44351 0.98587 0.774 0.0
C1011 C 0.447 0.99829 0.7741 0.0
C1012 C 0.44166 0.00238 0.76232 0.0
C1013 C 0.43275 0.99415 0.75019 0.0
C1014 C 0.42985 0.9819 0.74942 0.0
C1015 C 0.43517 0.97783 0.76125 0.0
C1016 C 0.45851 0.9815 0.78607 0.0
C1017 C 0.45907 0.97139 0.79126 0.0
C1018 C 0.46985 0.97155 0.79019 0.0
C1019 C 0.48039 0.98182 0.78357 0.0
C1020 C 0.47984 0.99204 0.77847 0.0
C1021 C 0.46904 0.99194 0.77988 0.0
C1022 C 0.52832 0.97944 0.79835 0.0
C1023 C 0.52981 0.96955 0.80129 0.0
C1024 C 0.53567 0.96927 0.81661 0.0
C1025 C 0.54018 0.97893 0.82932 0.0
C1026 C 0.53829 0.98863 0.82668 0.0
C1027 C 0.53244 0.98891 0.81133 0.0
C1028 C 0.53262 0.98635 0.76765 0.0
C1029 C 0.54217 0.99855 0.76993 0.0
C1030 C 0.55194 0.0035 0.75811 0.0
C1031 C 0.55225 0.99637 0.74374 0.0
C1032 C 0.54219 0.9845 0.74077 0.0
C1033 C 0.53251 0.97954 0.75268 0.0
C1034 C 0.51318 0.98108 0.78118 0.0
C1035 C 0.502 0.97044 0.7778 0.0
C1036 C 0.49145 0.97076 0.7781 0.0
C1037 C 0.49181 0.98175 0.78214 0.0
C1038 C 0.50313 0.99252 0.78513 0.0
C1039 C 0.51373 0.99221 0.78446 0.0
H1040 H 0.9618 0.53143 0.81618 0.0
N1041 N 0.97457 0.52646 0.79366 0.0
H1042 H 0.96887 0.5445 0.84304 0.0
H1043 H 0.99739 0.5378 0.80742 0.0
H1044 H 0.00456 0.55066 0.83463 0.0
H1045 H 0.99445 0.54599 0.77883 0.0
H1046 H 0.99431 0.55921 0.75599 0.0
H1047 H 0.95595 0.52212 0.77384 0.0
H1048 H 0.95572 0.53507 0.75054 0.0
H1049 H 0.96039 0.50444 0.80676 0.0
H1050 H 0.99278 0.52569 0.77604 0.0
H1051 H 0.96264 0.48671 0.80425 0.0
H1052 H 0.99486 0.50781 0.77263 0.0
H1053 H 0.96526 0.43298 0.8025 0.0
H1054 H 0.96829 0.42421 0.82917 0.0
H1055 H 0.00553 0.45391 0.83134 0.0
H1056 H 0.00233 0.46266 0.80488 0.0
H1057 H 0.0043 0.4595 0.77349 0.0
H1058 H 0.00917 0.44923 0.74976 0.0
H1059 H 0.97124 0.426 0.73741 0.0
H1060 H 0.96652 0.43622 0.76125 0.0
H1061 H 0.96205 0.45357 0.78258 0.0
H1062 H 0.96061 0.47184 0.78323 0.0
H1063 H 0.99942 0.49458 0.78809 0.0
N1064 N 0.9817 0.4525 0.78504 0.0
H1065 H 0.0007 0.47616 0.78636 0.0
C1066 C 0.97902 0.53361 0.80995 0.0
C1067 C 0.97111 0.53553 0.82027 0.0
C1068 C 0.97517 0.54294 0.83565 0.0
C1069 C 0.98728 0.54858 0.84109 0.0
C1070 C 0.99521 0.54655 0.83075 0.0
C1071 C 0.99112 0.53913 0.81528 0.0
C1072 C 0.97515 0.53313 0.77812 0.0
C1073 C 0.98601 0.54343 0.77249 0.0
C1074 C 0.98591 0.55095 0.75935 0.0
C1075 C 0.97497 0.54829 0.75161 0.0
C1076 C 0.96426 0.53752 0.75649 0.0
C1077 C 0.96437 0.53005 0.76965 0.0
C1078 C 0.97627 0.51627 0.79142 0.0
C1079 C 0.96791 0.50519 0.79928 0.0
C1080 C 0.96919 0.49506 0.79769 0.0
C1081 C 0.97884 0.49574 0.78799 0.0
C1082 C 0.98735 0.50696 0.78026 0.0
C1083 C 0.98612 0.51718 0.78205 0.0
C1084 C 0.98352 0.44843 0.80177 0.0
C1085 C 0.974 0.43766 0.80895 0.0
C1086 C 0.9758 0.43264 0.82405 0.0
C1087 C 0.98719 0.43832 0.83227 0.0
C1088 C 0.99663 0.44938 0.8254 0.0
C1089 C 0.99482 0.45438 0.81023 0.0
C1090 C 0.98502 0.44847 0.76916 0.0
C1091 C 0.99709 0.45237 0.76542 0.0
C1092 C 0.99985 0.44649 0.75189 0.0
C1093 C 0.99058 0.43676 0.74181 0.0
C1094 C 0.97859 0.43354 0.7448 0.0
C1095 C 0.97586 0.43933 0.75842 0.0
C1096 C 0.98141 0.46353 0.78473 0.0
C1097 C 0.97022 0.46253 0.78366 0.0
C1098 C 0.96944 0.47299 0.7842 0.0
C1099 C 0.97989 0.48472 0.78606 0.0
C1100 C 0.99119 0.48571 0.7866 0.0
C1101 C 0.99195 0.47519 0.78583 0.0
H1102 H 0.45592 0.45466 0.79793 0.0
N1103 N 0.4589 0.4755 0.78318 0.0
H1104 H 0.44408 0.44439 0.82411 0.0
H1105 H 0.4478 0.4831 0.80529 0.0
H1106 H 0.43557 0.47262 0.83157 0.0
H1107 H 0.44019 0.47067 0.76309 0.0
H1108 H 0.42996 0.45424 0.7406 0.0
H1109 H 0.4673 0.46132 0.76925 0.0
H1110 H 0.45723 0.44499 0.74665 0.0
H1111 H 0.4753 0.47308 0.8031 0.0
H1112 H 0.47202 0.49593 0.76504 0.0
H1113 H 0.49688 0.48697 0.80397 0.0
H1114 H 0.49394 0.50964 0.765 0.0
H1115 H 0.56665 0.53162 0.80624 0.0
H1116 H 0.57625 0.54214 0.83447 0.0
H1117 H 0.55059 0.55371 0.84037 0.0
H1118 H 0.54113 0.5433 0.81228 0.0
H1119 H 0.55341 0.55472 0.78456 0.0
H1120 H 0.56804 0.56954 0.76386 0.0
H1121 H 0.57365 0.54154 0.74103 0.0
H1122 H 0.5593 0.52689 0.76246 0.0
H1123 H 0.5363 0.50729 0.79044 0.0
H1124 H 0.51451 0.49343 0.78787 0.0
H1125 H 0.51046 0.52462 0.78176 0.0
N1126 N 0.54877 0.53151 0.78946 0.0
H1127 H 0.5323 0.53825 0.78319 0.0
C1128 C 0.45277 0.46973 0.79957 0.0
C1129 C 0.45163 0.45875 0.80519 0.0
C1130 C 0.44475 0.4528 0.82016 0.0
C1131 C 0.43875 0.45759 0.82982 0.0
C1132 C 0.44014 0.46872 0.82449 0.0
C1133 C 0.44709 0.47471 0.80949 0.0
C1134 C 0.45445 0.46722 0.7679 0.0
C1135 C 0.4441 0.46527 0.75922 0.0
C1136 C 0.4383 0.45591 0.74635 0.0
C1137 C 0.44275 0.44826 0.74194 0.0
C1138 C 0.45351 0.45064 0.74994 0.0
C1139 C 0.45932 0.46004 0.76278 0.0
C1140 C 0.47187 0.48351 0.78413 0.0
C1141 C 0.47914 0.48105 0.79485 0.0
C1142 C 0.49164 0.489 0.79517 0.0
C1143 C 0.49726 0.49947 0.78451 0.0
C1144 C 0.48998 0.50182 0.77364 0.0
C1145 C 0.47744 0.49395 0.77354 0.0
C1146 C 0.55313 0.53653 0.80714 0.0
C1147 C 0.563 0.53625 0.8138 0.0
C1148 C 0.5685 0.54234 0.82982 0.0
C1149 C 0.56418 0.54878 0.83956 0.0
C1150 C 0.55404 0.54871 0.83322 0.0
C1151 C 0.5486 0.54272 0.8171 0.0
C1152 C 0.5554 0.53971 0.77519 0.0
C1153 C 0.5576 0.55169 0.7749 0.0
C1154 C 0.56596 0.56017 0.76294 0.0
C1155 C 0.57219 0.5568 0.75093 0.0
C1156 C 0.56924 0.54454 0.75037 0.0
C1157 C 0.56096 0.53611 0.76245 0.0
C1158 C 0.53591 0.52375 0.78722 0.0
C1159 C 0.53067 0.51107 0.7884 0.0
C1160 C 0.51819 0.50319 0.7871 0.0
C1161 C 0.51063 0.50787 0.78486 0.0
C1162 C 0.51596 0.52063 0.78332 0.0
C1163 C 0.52848 0.52849 0.78433 0.0
H1164 H 0.66934 0.88081 0.5555 0.0
N1165 N 0.64794 0.86665 0.57286 0.0
H1166 H 0.672 0.88964 0.52606 0.0
H1167 H 0.63081 0.86321 0.55042 0.0
H1168 H 0.63334 0.87231 0.52114 0.0
H1169 H 0.63502 0.87462 0.58883 0.0
H1170 H 0.64227 0.89255 0.60863 0.0
H1171 H 0.67048 0.87973 0.5882 0.0
H1172 H 0.67771 0.89732 0.60847 0.0
H1173 H 0.66756 0.86399 0.57042 0.0
H1174 H 0.62922 0.84462 0.57942 0.0
H1175 H 0.66734 0.84498 0.57249 0.0
H1176 H 0.62866 0.82531 0.58008 0.0
H1177 H 0.66335 0.79022 0.55209 0.0
H1178 H 0.66464 0.78198 0.5232 0.0
H1179 H 0.62629 0.76565 0.51579 0.0
H1180 H 0.62502 0.77367 0.54527 0.0
H1181 H 0.62976 0.7649 0.58518 0.0
H1182 H 0.63709 0.75514 0.60467 0.0
H1183 H 0.67303 0.78719 0.60192 0.0
H1184 H 0.66545 0.79706 0.58304 0.0
H1185 H 0.66018 0.80756 0.55342 0.0
H1186 H 0.66194 0.82731 0.55624 0.0
H1187 H 0.63298 0.81248 0.59492 0.0
N1188 N 0.64272 0.78606 0.56888 0.0
H1189 H 0.63067 0.79238 0.59086 0.0
C1190 C 0.64983 0.87128 0.55507 0.0
C1191 C 0.66144 0.87873 0.54797 0.0
C1192 C 0.66295 0.88389 0.53118 0.0
C1193 C 0.65288 0.88173 0.52124 0.0
C1194 C 0.64128 0.87403 0.52828 0.0
C1195 C 0.6398 0.86887 0.54502 0.0
C1196 C 0.65212 0.87577 0.58703 0.0
C1197 C 0.64428 0.87939 0.59343 0.0
C1198 C 0.64845 0.88963 0.6048 0.0
C1199 C 0.66062 0.89646 0.61009 0.0
C1200 C 0.66834 0.8924 0.60443 0.0
C1201 C 0.66415 0.88221 0.59292 0.0
C1202 C 0.64839 0.85577 0.57516 0.0
C1203 C 0.6591 0.85569 0.57311 0.0
C1204 C 0.65891 0.84469 0.57397 0.0
C1205 C 0.64797 0.83348 0.57641 0.0
C1206 C 0.63732 0.83369 0.57861 0.0
C1207 C 0.63757 0.84472 0.57811 0.0
C1208 C 0.64401 0.78249 0.55095 0.0
C1209 C 0.65521 0.78494 0.54429 0.0
C1210 C 0.65596 0.7803 0.52761 0.0
C1211 C 0.64556 0.77311 0.51715 0.0
C1212 C 0.63444 0.771 0.5236 0.0
C1213 C 0.6337 0.77565 0.54034 0.0
C1214 C 0.64705 0.78159 0.58254 0.0
C1215 C 0.63916 0.7699 0.58916 0.0
C1216 C 0.6434 0.76431 0.60012 0.0
C1217 C 0.65571 0.77028 0.60455 0.0
C1218 C 0.6635 0.78234 0.5988 0.0
C1219 C 0.6592 0.78798 0.58792 0.0
C1220 C 0.64502 0.79831 0.57162 0.0
C1221 C 0.65414 0.80846 0.56245 0.0
C1222 C 0.65526 0.81991 0.56428 0.0
C1223 C 0.64751 0.82157 0.57567 0.0
C1224 C 0.63889 0.81154 0.58561 0.0
C1225 C 0.63761 0.80005 0.58347 0.0
H1226 H 0.23823 0.8687 0.56027 0.0
N1227 N 0.21727 0.86184 0.57589 0.0
H1228 H 0.24606 0.87989 0.53252 0.0
H1229 H 0.20468 0.86709 0.55248 0.0
H1230 H 0.21233 0.87809 0.52452 0.0
H1231 H 0.21025 0.87849 0.58096 0.0
H1232 H 0.21936 0.8961 0.60148 0.0
H1233 H 0.23314 0.86657 0.60155 0.0
H1234 H 0.24271 0.88449 0.62173 0.0
H1235 H 0.21018 0.84051 0.55952 0.0
H1236 H 0.19697 0.85836 0.59429 0.0
H1237 H 0.19014 0.82208 0.55881 0.0
H1238 H 0.17723 0.83989 0.59431 0.0
H1239 H 0.12696 0.7645 0.55332 0.0
H1240 H 0.11629 0.75762 0.52479 0.0
H1241 H 0.1217 0.79361 0.51793 0.0
H1242 H 0.13191 0.8002 0.54664 0.0
H1243 H 0.12004 0.79489 0.57498 0.0
H1244 H 0.10252 0.78658 0.59446 0.0
H1245 H 0.1108 0.76027 0.61385 0.0
H1246 H 0.12871 0.76913 0.59491 0.0
H1247 H 0.15577 0.78706 0.5722 0.0
H1248 H 0.17589 0.80538 0.57534 0.0
H1249 H 0.16011 0.82789 0.57642 0.0
N1250 N 0.13488 0.78582 0.57016 0.0
H1251 H 0.14014 0.80956 0.5744 0.0
C1252 C 0.22093 0.86708 0.55843 0.0
C1253 C 0.23249 0.87057 0.55235 0.0
C1254 C 0.23692 0.87692 0.53647 0.0
C1255 C 0.22983 0.87992 0.52632 0.0
C1256 C 0.21807 0.87607 0.53215 0.0
C1257 C 0.21366 0.86971 0.54806 0.0
C1258 C 0.22098 0.87113 0.58981 0.0
C1259 C 0.21712 0.87956 0.5901 0.0
C1260 C 0.22244 0.88971 0.60176 0.0
C1261 C 0.23189 0.89183 0.61313 0.0
C1262 C 0.23536 0.8831 0.61334 0.0
C1263 C 0.22993 0.87286 0.6018 0.0
C1264 C 0.20526 0.851 0.57669 0.0
C1265 C 0.20301 0.84045 0.56712 0.0
C1266 C 0.19154 0.82986 0.56687 0.0
C1267 C 0.182 0.82944 0.57651 0.0
C1268 C 0.18428 0.83992 0.58642 0.0
C1269 C 0.19573 0.8506 0.58646 0.0
C1270 C 0.13029 0.78283 0.55215 0.0
C1271 C 0.12601 0.77094 0.54547 0.0
C1272 C 0.11995 0.76705 0.52913 0.0
C1273 C 0.11807 0.77505 0.51907 0.0
C1274 C 0.12281 0.78715 0.52546 0.0
C1275 C 0.12879 0.79099 0.54187 0.0
C1276 C 0.12579 0.78269 0.58362 0.0
C1277 C 0.11838 0.78767 0.5839 0.0
C1278 C 0.10821 0.78275 0.59488 0.0
C1279 C 0.10512 0.77263 0.60559 0.0
C1280 C 0.11294 0.76814 0.60598 0.0
C1281 C 0.12317 0.77316 0.59513 0.0
C1282 C 0.14645 0.79688 0.57289 0.0
C1283 C 0.1567 0.79597 0.5733 0.0
C1284 C 0.16819 0.80647 0.57492 0.0
C1285 C 0.1697 0.81819 0.57593 0.0
C1286 C 0.15935 0.81906 0.57588 0.0
C1287 C 0.14784 0.80852 0.57452 0.0
H1288 H 0.22491 0.34243 0.55225 0.0
N1289 N 0.2251 0.36232 0.56739 0.0
H1290 H 0.23415 0.34183 0.52424 0.0
H1291 H 0.2364 0.38025 0.54401 0.0
H1292 H 0.24597 0.37977 0.51579 0.0
H1293 H 0.24507 0.37613 0.58629 0.0
H1294 H 0.25404 0.36933 0.60819 0.0
H1295 H 0.21432 0.33928 0.58142 0.0
H1296 H 0.22316 0.33245 0.60334 0.0
H1297 H 0.20612 0.34197 0.55075 0.0
H1298 H 0.21537 0.37345 0.58459 0.0
H1299 H 0.18518 0.33612 0.55109 0.0
H1300 H 0.19411 0.36723 0.58581 0.0
H1301 H 0.12526 0.31952 0.54017 0.0
H1302 H 0.11576 0.32206 0.51401 0.0
H1303 H 0.13184 0.36048 0.52792 0.0
H1304 H 0.14082 0.35773 0.55426 0.0
H1305 H 0.13984 0.35532 0.58532 0.0
H1306 H 0.12575 0.35388 0.60846 0.0
H1307 H 0.10681 0.31435 0.60412 0.0
H1308 H 0.12089 0.31592 0.58091 0.0
H1309 H 0.14679 0.32176 0.5675 0.0
H1310 H 0.16797 0.32788 0.56925 0.0
H1311 H 0.17839 0.36597 0.56845 0.0
N1312 N 0.13786 0.33609 0.5655 0.0
H1313 H 0.15723 0.35972 0.56773 0.0
C1314 C 0.22999 0.36147 0.55035 0.0
C1315 C 0.22943 0.35065 0.54446 0.0
C1316 C 0.2348 0.35032 0.52841 0.0
C1317 C 0.24091 0.36079 0.51787 0.0
C1318 C 0.24126 0.37153 0.52356 0.0
C1319 C 0.23585 0.37184 0.53967 0.0
C1320 C 0.22909 0.35828 0.58216 0.0
C1321 C 0.24014 0.36664 0.59027 0.0
C1322 C 0.24522 0.36274 0.6028 0.0
C1323 C 0.23933 0.35033 0.60739 0.0
C1324 C 0.22797 0.34204 0.5999 0.0
C1325 C 0.22287 0.34597 0.58744 0.0
C1326 C 0.21247 0.35835 0.56747 0.0
C1327 C 0.20371 0.34766 0.55831 0.0
C1328 C 0.1916 0.3442 0.5587 0.0
C1329 C 0.18788 0.35117 0.5685 0.0
C1330 C 0.19664 0.36174 0.57787 0.0
C1331 C 0.20878 0.36528 0.57729 0.0
C1332 C 0.1338 0.33839 0.54911 0.0
C1333 C 0.12686 0.32852 0.53735 0.0
C1334 C 0.12149 0.33001 0.52239 0.0
C1335 C 0.123 0.34148 0.51887 0.0
C1336 C 0.13034 0.35149 0.53035 0.0
C1337 C 0.13564 0.34995 0.54538 0.0
C1338 C 0.13129 0.33567 0.58128 0.0
C1339 C 0.1328 0.34636 0.58955 0.0
C1340 C 0.12472 0.34552 0.60277 0.0
C1341 C 0.11512 0.334 0.60803 0.0
C1342 C 0.11417 0.32336 0.60053 0.0
C1343 C 0.12217 0.32422 0.58724 0.0
C1344 C 0.15042 0.34022 0.56723 0.0
C1345 C 0.15368 0.33142 0.56784 0.0
C1346 C 0.1658 0.33496 0.56868 0.0
C1347 C 0.17495 0.34744 0.56874 0.0
C1348 C 0.17162 0.35628 0.56856 0.0
C1349 C 0.15946 0.35271 0.56794 0.0
H1350 H 0.99134 0.37751 0.05915 0.0
H1351 H 0.98885 0.38804 0.08499 0.0
H1352 H 0.02418 0.41969 0.07581 0.0
H1353 H 0.0267 0.40932 0.04981 0.0
H1354 H 0.00291 0.39736 0.1158 0.0
H1355 H 0.00276 0.4343 0.07873 0.0
H1356 H 0.00087 0.42068 0.06779 0.0
H1357 H 0.01564 0.43299 0.07434 0.0
C1358 C 0.99858 0.38672 0.0626 0.0
C1359 C 0.0092 0.39261 0.05235 0.0
C1360 C 0.99714 0.39272 0.07737 0.0
C1361 C 0.00625 0.40471 0.08212 0.0
C1362 C 0.01694 0.41053 0.07213 0.0
H1363 H 0.01595 0.45565 0.16807 0.0
H1364 H 0.01811 0.4452 0.14178 0.0
C1365 C 0.01839 0.40456 0.05734 0.0
C1366 C 0.00465 0.41103 0.09776 0.0
H1367 H 0.00357 0.43626 0.11037 0.0
C1368 C 0.00299 0.40583 0.11462 0.0
C1369 C 0.00477 0.42208 0.09615 0.0
C1370 C 0.006 0.42781 0.07827 0.0
C1371 C 0.00166 0.41152 0.12999 0.0
C1372 C 0.00182 0.42258 0.12837 0.0
C1373 C 0.00347 0.42778 0.11153 0.0
C1374 C 0.00035 0.42894 0.14406 0.0
C1375 C 0.00036 0.40578 0.14787 0.0
C1376 C 0.98957 0.42332 0.15383 0.0
C1377 C 0.98831 0.42924 0.16887 0.0
C1378 C 0.99782 0.4409 0.17438 0.0
C1379 C 0.00853 0.4466 0.16432 0.0
C1380 C 0.00976 0.44068 0.14926 0.0
H1381 H 0.00326 0.39901 0.14736 0.0
H1382 H 0.00574 0.41289 0.15824 0.0
H1383 H 0.99076 0.40093 0.15199 0.0
H1384 H 0.98213 0.41434 0.14986 0.0
H1385 H 0.97999 0.42457 0.17641 0.0
H1386 H 0.63184 0.618 0.06957 0.0
H1387 H 0.62077 0.60428 0.09411 0.0
H1388 H 0.58776 0.60047 0.07531 0.0
H1389 H 0.59871 0.61408 0.05066 0.0
H1390 H 0.60697 0.60712 0.12103 0.0
H1391 H 0.57929 0.56476 0.07992 0.0
H1392 H 0.59254 0.57817 0.07136 0.0
H1393 H 0.57856 0.57776 0.07332 0.0
C1394 C 0.62222 0.61423 0.07063 0.0
C1395 C 0.61615 0.6171 0.05811 0.0
C1396 C 0.61592 0.6064 0.08466 0.0
C1397 C 0.60343 0.60123 0.08636 0.0
C1398 C 0.59736 0.60418 0.07403 0.0
H1399 H 0.56053 0.56696 0.18111 0.0
H1400 H 0.57003 0.57976 0.1551 0.0
C1401 C 0.60365 0.61202 0.06001 0.0
C1402 C 0.59681 0.59296 0.10127 0.0
H1403 H 0.57456 0.56368 0.11076 0.0
C1404 C 0.59989 0.59762 0.11881 0.0
C1405 C 0.58767 0.58055 0.09828 0.0
C1406 C 0.58435 0.57494 0.07972 0.0
C1407 C 0.59397 0.59022 0.1335 0.0
C1408 C 0.58463 0.57788 0.13051 0.0
C1409 C 0.58164 0.57318 0.11297 0.0
C1410 C 0.57813 0.56964 0.14549 0.0
C1411 C 0.5979 0.59558 0.15209 0.0
C1412 C 0.5792 0.55945 0.1483 0.0
C1413 C 0.5737 0.55206 0.16306 0.0
C1414 C 0.56698 0.55469 0.1752 0.0
C1415 C 0.56557 0.56464 0.17195 0.0
C1416 C 0.57109 0.57204 0.15721 0.0
H1417 H 0.60688 0.60421 0.15212 0.0
H1418 H 0.59126 0.59768 0.15783 0.0
H1419 H 0.5983 0.58896 0.16091 0.0
H1420 H 0.58452 0.5574 0.13932 0.0
H1421 H 0.57481 0.54436 0.16506 0.0
H1422 H 0.36684 0.99799 0.08552 0.0
H1423 H 0.37903 0.99586 0.10802 0.0
H1424 H 0.41081 0.0168 0.07582 0.0
H1425 H 0.3987 0.01899 0.05316 0.0
H1426 H 0.39352 0.98475 0.09959 0.0
H1427 H 0.42045 0.03232 0.1277 0.0
H1428 H 0.40631 0.02668 0.11622 0.0
H1429 H 0.41964 0.03052 0.10375 0.0
C1430 C 0.37645 0.00229 0.0833 0.0
C1431 C 0.38179 0.00864 0.06752 0.0
C1432 C 0.38339 0.00104 0.09616 0.0
C1433 C 0.39581 0.00623 0.09359 0.0
C1434 C 0.40125 0.01286 0.07811 0.0
H1435 H 0.44967 0.00408 0.15942 0.0
H1436 H 0.43956 0.00842 0.13588 0.0
C1437 C 0.39431 0.01406 0.06517 0.0
C1438 C 0.40286 0.00398 0.10657 0.0
H1439 H 0.4248 0.01786 0.13842 0.0
C1440 C 0.40036 0.99198 0.1081 0.0
C1441 C 0.41187 0.01347 0.11743 0.0
C1442 C 0.41474 0.02648 0.11637 0.0
C1443 C 0.40661 0.98917 0.12029 0.0
C1444 C 0.41538 0.99859 0.13157 0.0
C1445 C 0.41805 0.01066 0.12979 0.0
C1446 C 0.42154 0.99599 0.14573 0.0
C1447 C 0.40387 0.97617 0.12079 0.0
C1448 C 0.41478 0.98772 0.15918 0.0
C1449 C 0.42051 0.9852 0.17254 0.0
C1450 C 0.43314 0.99101 0.17284 0.0
C1451 C 0.43993 0.99948 0.15954 0.0
C1452 C 0.43417 0.00194 0.14609 0.0
H1453 H 0.39991 0.97115 0.10798 0.0
H1454 H 0.41211 0.97595 0.12361 0.0
H1455 H 0.3972 0.97122 0.13151 0.0
H1456 H 0.40505 0.98329 0.15946 0.0
H1457 H 0.41505 0.97886 0.18284 0.0
H1458 H 0.38752 0.01539 0.9653 0.0
H1459 H 0.39791 0.01302 0.93948 0.0
H1460 H 0.39482 0.98102 0.96267 0.0
H1461 H 0.38449 0.98332 0.9886 0.0
H1462 H 0.42036 0.0112 0.94126 0.0
H1463 H 0.37992 0.97092 0.91018 0.0
H1464 H 0.37883 0.98139 0.92557 0.0
H1465 H 0.38214 0.97041 0.93374 0.0
C1466 C 0.38902 0.00783 0.9649 0.0
C1467 C 0.38515 0.99953 0.97899 0.0
C1468 C 0.39498 0.00652 0.95017 0.0
C1469 C 0.39705 0.99682 0.94919 0.0
C1470 C 0.39321 0.98851 0.96318 0.0
H1471 H 0.42555 0.97023 0.86664 0.0
H1472 H 0.41684 0.97322 0.89402 0.0
C1473 C 0.38733 0.98986 0.97798 0.0
C1474 C 0.40329 0.9954 0.93356 0.0
H1475 H 0.39868 0.97744 0.89654 0.0
C1476 C 0.41565 0.00384 0.93143 0.0
C1477 C 0.39709 0.98575 0.92092 0.0
C1478 C 0.38374 0.97661 0.92254 0.0
C1479 C 0.42207 0.00278 0.917 0.0
C1480 C 0.41584 0.99321 0.90417 0.0
C1481 C 0.40345 0.98476 0.90639 0.0
C1482 C 0.42191 0.9918 0.88821 0.0
C1483 C 0.43548 0.01176 0.91589 0.0
C1484 C 0.42769 0.00126 0.87588 0.0
C1485 C 0.43274 0.99961 0.86031 0.0
C1486 C 0.43193 0.98838 0.85664 0.0
C1487 C 0.42624 0.97895 0.86907 0.0
C1488 C 0.42128 0.98065 0.88471 0.0
H1489 H 0.43936 0.01598 0.92915 0.0
H1490 H 0.44024 0.00725 0.91056 0.0
H1491 H 0.43724 0.01924 0.90681 0.0
H1492 H 0.428 0.00982 0.87805 0.0
H1493 H 0.43689 0.00695 0.85082 0.0
H1494 H 0.994 0.36631 0.93945 0.0
H1495 H 0.99257 0.37844 0.91603 0.0
H1496 H 0.01007 0.41063 0.95037 0.0
H1497 H 0.01158 0.39859 0.97394 0.0
H1498 H 0.98025 0.39176 0.92065 0.0
H1499 H 0.02849 0.42186 0.90186 0.0
H1500 H 0.02293 0.40763 0.91334 0.0
H1501 H 0.02503 0.42093 0.9253 0.0
C1502 C 0.99769 0.376 0.94198 0.0
C1503 C 0.0029 0.38148 0.95858 0.0
C1504 C 0.99684 0.38291 0.92858 0.0
C1505 C 0.00129 0.39543 0.93144 0.0
C1506 C 0.00673 0.40101 0.94783 0.0
H1507 H 0.99992 0.44912 0.86312 0.0
H1508 H 0.00336 0.4391 0.88787 0.0
C1509 C 0.00754 0.3941 0.9613 0.0
C1510 C 0.99954 0.40243 0.91765 0.0
H1511 H 0.01449 0.42552 0.888 0.0
C1512 C 0.98773 0.39914 0.91349 0.0
C1513 C 0.00933 0.41213 0.90852 0.0
C1514 C 0.02218 0.41585 0.91232 0.0
C1515 C 0.98541 0.40528 0.90039 0.0
C1516 C 0.99518 0.41477 0.89089 0.0
C1517 C 0.00702 0.41822 0.89528 0.0
C1518 C 0.99322 0.42089 0.87592 0.0
C1519 C 0.97253 0.40163 0.89699 0.0
C1520 C 0.98657 0.41401 0.86091 0.0
C1521 C 0.98458 0.41968 0.84683 0.0
C1522 C 0.98931 0.43239 0.84739 0.0
C1523 C 0.99619 0.43932 0.86229 0.0
C1524 C 0.99813 0.43362 0.87643 0.0
H1525 H 0.96667 0.39701 0.90867 0.0
H1526 H 0.97193 0.40973 0.89386 0.0
H1527 H 0.96894 0.39511 0.88543 0.0
H1528 H 0.98297 0.40423 0.86002 0.0
H1529 H 0.9795 0.41412 0.83536 0.0
H1530 H 0.61486 0.59478 0.99144 0.0
H1531 H 0.60378 0.58305 0.96486 0.0
H1532 H 0.61508 0.61667 0.93757 0.0
H1533 H 0.62596 0.62851 0.96436 0.0
H1534 H 0.59145 0.59977 0.93172 0.0
H1535 H 0.6187 0.57849 0.92011 0.0
H1536 H 0.61209 0.57561 0.94195 0.0
H1537 H 0.62314 0.59105 0.9358 0.0
C1538 C 0.61501 0.5997 0.97979 0.0
C1539 C 0.62138 0.61258 0.97995 0.0
C1540 C 0.60872 0.59297 0.96456 0.0
C1541 C 0.60883 0.59899 0.9491 0.0
C1542 C 0.61495 0.61185 0.94933 0.0
H1543 H 0.58839 0.56434 0.84391 0.0
H1544 H 0.59905 0.57682 0.8703 0.0
C1545 C 0.62117 0.6186 0.96463 0.0
C1546 C 0.60249 0.59184 0.93273 0.0
H1547 H 0.60064 0.57022 0.90313 0.0
C1548 C 0.59349 0.59335 0.9254 0.0
C1549 C 0.6053 0.58361 0.92435 0.0
C1550 C 0.61542 0.58217 0.93084 0.0
C1551 C 0.58706 0.58669 0.91007 0.0
C1552 C 0.58952 0.57807 0.90216 0.0
C1553 C 0.59866 0.57672 0.90933 0.0
C1554 C 0.58292 0.57053 0.88618 0.0
C1555 C 0.57791 0.58916 0.90233 0.0
C1556 C 0.57032 0.56272 0.8864 0.0
C1557 C 0.5642 0.55562 0.87128 0.0
C1558 C 0.57061 0.55605 0.85579 0.0
C1559 C 0.58323 0.56372 0.85572 0.0
C1560 C 0.58932 0.57089 0.87076 0.0
H1561 H 0.57962 0.5983 0.90666 0.0
H1562 H 0.57795 0.58871 0.88751 0.0
H1563 H 0.56878 0.58214 0.90704 0.0
H1564 H 0.56522 0.56203 0.89831 0.0
H1565 H 0.55448 0.54969 0.87177 0.0
H1566 H 0.98825 0.61827 0.96107 0.0
H1567 H 0.9887 0.60593 0.93609 0.0
H1568 H 0.02057 0.60867 0.9579 0.0
H1569 H 0.01999 0.62078 0.9833 0.0
H1570 H 0.00547 0.61072 0.9106 0.0
H1571 H 0.99822 0.57192 0.95187 0.0
H1572 H 0.99645 0.58412 0.96071 0.0
H1573 H 0.01126 0.58651 0.95778 0.0
C1574 C 0.99538 0.61628 0.96057 0.0
C1575 C 0.00402 0.62041 0.97427 0.0
C1576 C 0.99563 0.60924 0.94626 0.0
C1577 C 0.00455 0.60621 0.94528 0.0
C1578 C 0.01344 0.61066 0.95861 0.0
H1579 H 0.00874 0.57043 0.84577 0.0
H1580 H 0.01486 0.5847 0.87138 0.0
C1581 C 0.01313 0.61763 0.97305 0.0
C1582 C 0.00429 0.59823 0.93038 0.0
H1583 H 0.00037 0.57014 0.92089 0.0
C1584 C 0.00445 0.60188 0.91282 0.0
C1585 C 0.00286 0.58667 0.93336 0.0
C1586 C 0.00208 0.58198 0.95193 0.0
C1587 C 0.00288 0.59415 0.89814 0.0
C1588 C 0.00141 0.58257 0.90112 0.0
C1589 C 0.0016 0.57906 0.91866 0.0
C1590 C 0.99848 0.57349 0.88637 0.0
C1591 C 0.00219 0.59822 0.87968 0.0
C1592 C 0.98753 0.56219 0.8867 0.0
C1593 C 0.98412 0.55393 0.87229 0.0
C1594 C 0.99156 0.55681 0.85717 0.0
C1595 C 0.00279 0.56791 0.85721 0.0
C1596 C 0.00625 0.57615 0.87174 0.0
H1597 H 0.00077 0.60606 0.88013 0.0
H1598 H 0.01078 0.60119 0.87255 0.0
H1599 H 0.99475 0.59058 0.87184 0.0
H1600 H 0.98144 0.5599 0.89793 0.0
H1601 H 0.97554 0.54535 0.87288 0.0
H1602 H 0.38925 0.40281 0.97646 0.0
H1603 H 0.4014 0.41635 0.95243 0.0
H1604 H 0.37066 0.39848 0.91719 0.0
H1605 H 0.35836 0.38492 0.94122 0.0
H1606 H 0.40615 0.40909 0.91947 0.0
H1607 H 0.38341 0.4352 0.91113 0.0
H1608 H 0.38137 0.42634 0.93069 0.0
H1609 H 0.37349 0.41883 0.91037 0.0
C1610 C 0.38502 0.4018 0.96365 0.0
C1611 C 0.37281 0.39278 0.96077 0.0
C1612 C 0.39199 0.40956 0.94994 0.0
C1613 C 0.3869 0.40852 0.93312 0.0
C1614 C 0.37471 0.39958 0.93018 0.0
H1615 H 0.42304 0.43288 0.83198 0.0
H1616 H 0.41067 0.42145 0.85742 0.0
C1617 C 0.36771 0.39179 0.9439 0.0
C1618 C 0.39453 0.41636 0.91841 0.0
H1619 H 0.39781 0.43785 0.88897 0.0
C1620 C 0.40436 0.41542 0.91285 0.0
C1621 C 0.39225 0.4247 0.90995 0.0
C1622 C 0.38212 0.42645 0.91591 0.0
C1623 C 0.41182 0.42241 0.89879 0.0
C1624 C 0.40929 0.43044 0.88993 0.0
C1625 C 0.39964 0.43161 0.89573 0.0
C1626 C 0.41647 0.4375 0.87438 0.0
C1627 C 0.42239 0.42119 0.89356 0.0
C1628 C 0.4236 0.45034 0.87537 0.0
C1629 C 0.43076 0.45693 0.86086 0.0
C1630 C 0.43085 0.45076 0.8451 0.0
C1631 C 0.42341 0.4379 0.84405 0.0
C1632 C 0.4163 0.43135 0.85854 0.0
H1633 H 0.42478 0.41697 0.90425 0.0
H1634 H 0.42003 0.41526 0.88138 0.0
H1635 H 0.43043 0.43028 0.8905 0.0
H1636 H 0.4238 0.45524 0.88749 0.0
H1637 H 0.43642 0.46681 0.86213 0.0
H1638 H 0.62691 0.00543 0.93521 0.0
H1639 H 0.61194 0.00172 0.91254 0.0
H1640 H 0.58345 0.97647 0.94724 0.0
H1641 H 0.59835 0.97998 0.96993 0.0
H1642 H 0.58079 0.96773 0.91223 0.0
H1643 H 0.58936 0.01498 0.91478 0.0
H1644 H 0.60265 0.01435 0.91069 0.0
H1645 H 0.59486 0.00927 0.93164 0.0
C1646 C 0.61746 0.99907 0.93803 0.0
C1647 C 0.61383 0.99305 0.95443 0.0
C1648 C 0.60892 0.99702 0.92509 0.0
C1649 C 0.59658 0.989 0.92835 0.0
C1650 C 0.59293 0.98276 0.94452 0.0
H1651 H 0.53945 0.98579 0.86408 0.0
H1652 H 0.55237 0.98745 0.88887 0.0
C1653 C 0.60147 0.98479 0.95747 0.0
C1654 C 0.58748 0.98704 0.91482 0.0
H1655 H 0.57706 0.00198 0.89091 0.0
C1656 C 0.57992 0.97519 0.90763 0.0
C1657 C 0.58623 0.99676 0.90907 0.0
C1658 C 0.59362 0.00954 0.91706 0.0
C1659 C 0.57135 0.97287 0.89444 0.0
C1660 C 0.57048 0.9827 0.88811 0.0
C1661 C 0.57781 0.99448 0.89567 0.0
C1662 C 0.56223 0.98106 0.87336 0.0
C1663 C 0.56325 0.9599 0.88752 0.0
C1664 C 0.56353 0.97696 0.85642 0.0
C1665 C 0.55618 0.97602 0.84226 0.0
C1666 C 0.54745 0.97925 0.84471 0.0
C1667 C 0.54614 0.98331 0.86173 0.0
C1668 C 0.55348 0.98422 0.87591 0.0
H1669 H 0.56259 0.95311 0.89716 0.0
H1670 H 0.55404 0.95795 0.88474 0.0
H1671 H 0.56704 0.95861 0.87489 0.0
H1672 H 0.57042 0.97477 0.85403 0.0
H1673 H 0.55761 0.97311 0.82925 0.0
H1674 H 0.60889 0.98893 0.05223 0.0
H1675 H 0.59742 0.9903 0.07726 0.0
H1676 H 0.61044 0.02796 0.06508 0.0
H1677 H 0.62195 0.02669 0.03982 0.0
H1678 H 0.61165 0.02217 0.10325 0.0
H1679 H 0.56666 0.9931 0.07163 0.0
H1680 H 0.57626 0.9869 0.07027 0.0
H1681 H 0.58048 0.00077 0.05889 0.0
C1682 C 0.60935 0.99752 0.05484 0.0
C1683 C 0.61629 0.00769 0.04397 0.0
C1684 C 0.60275 0.99826 0.06911 0.0
C1685 C 0.60299 0.00917 0.07283 0.0
C1686 C 0.6101 0.01944 0.0623 0.0
H1687 H 0.55169 0.00719 0.15217 0.0
H1688 H 0.5649 0.01342 0.12585 0.0
C1689 C 0.61665 0.01868 0.04789 0.0
C1690 C 0.59583 0.00975 0.08787 0.0
H1691 H 0.56695 0.99652 0.10313 0.0
C1692 C 0.60187 0.01672 0.10317 0.0
C1693 C 0.58309 0.00277 0.08758 0.0
C1694 C 0.5762 0.99553 0.07117 0.0
C1695 C 0.59547 0.01633 0.11862 0.0
C1696 C 0.58275 0.00871 0.11871 0.0
C1697 C 0.5767 0.00231 0.10305 0.0
C1698 C 0.57563 0.00627 0.1353 0.0
C1699 C 0.60236 0.02385 0.13485 0.0
C1700 C 0.57733 0.00024 0.14928 0.0
C1701 C 0.5698 0.99664 0.16417 0.0
C1702 C 0.56039 0.99898 0.16538 0.0
C1703 C 0.55891 0.00535 0.15162 0.0
C1704 C 0.56642 0.00888 0.1366 0.0
H1705 H 0.61134 0.03176 0.13115 0.0
H1706 H 0.59727 0.02732 0.14226 0.0
H1707 H 0.60382 0.01802 0.14392 0.0
H1708 H 0.58424 0.99795 0.1484 0.0
H1709 H 0.5712 0.99183 0.17465 0.0
H1710 H 0.97922 0.60858 0.05198 0.0
H1711 H 0.97745 0.59489 0.07569 0.0
H1712 H 0.01394 0.62101 0.09225 0.0
H1713 H 0.01577 0.63477 0.06879 0.0
H1714 H 0.99163 0.58455 0.08023 0.0
H1715 H 0.9949 0.6132 0.13908 0.0
H1716 H 0.99162 0.61595 0.11693 0.0
H1717 H 0.0069 0.62129 0.12336 0.0
C1718 C 0.98683 0.61147 0.06079 0.0
C1719 C 0.99763 0.62279 0.05853 0.0
C1720 C 0.9858 0.60362 0.07429 0.0
C1721 C 0.9955 0.60701 0.08586 0.0
C1722 C 0.00626 0.61832 0.08369 0.0
H1723 H 0.01749 0.56725 0.14783 0.0
H1724 H 0.01287 0.57716 0.12447 0.0
C1725 C 0.00731 0.62615 0.07019 0.0
C1726 C 0.99467 0.59855 0.09971 0.0
H1727 H 0.99835 0.5969 0.14434 0.0
C1728 C 0.99293 0.58716 0.09429 0.0
C1729 C 0.99618 0.6019 0.11804 0.0
C1730 C 0.99738 0.6137 0.12475 0.0
C1731 C 0.99327 0.57928 0.10666 0.0
C1732 C 0.99557 0.58299 0.12484 0.0
C1733 C 0.9967 0.59411 0.13036 0.0
C1734 C 0.99755 0.57589 0.13822 0.0
C1735 C 0.99128 0.56712 0.10012 0.0
C1736 C 0.99051 0.57195 0.15377 0.0
C1737 C 0.99321 0.56639 0.16725 0.0
C1738 C 0.00308 0.56478 0.16547 0.0
C1739 C 0.00989 0.56844 0.14965 0.0
C1740 C 0.00718 0.57398 0.1362 0.0
H1741 H 0.98601 0.56402 0.08749 0.0
H1742 H 0.00014 0.56809 0.09744 0.0
H1743 H 0.98647 0.55994 0.11025 0.0
H1744 H 0.9831 0.57343 0.15565 0.0
H1745 H 0.98789 0.56382 0.17936 0.0
H1746 H 0.37675 0.38645 0.06571 0.0
H1747 H 0.38989 0.39552 0.09178 0.0
H1748 H 0.42089 0.40473 0.05908 0.0
H1749 H 0.40782 0.39554 0.03295 0.0
H1750 H 0.42063 0.39411 0.09135 0.0
H1751 H 0.4126 0.43234 0.10188 0.0
H1752 H 0.39907 0.41744 0.10093 0.0
H1753 H 0.40849 0.42323 0.08149 0.0
C1754 C 0.38637 0.39041 0.06404 0.0
C1755 C 0.39125 0.39033 0.04722 0.0
C1756 C 0.39386 0.39565 0.07894 0.0
C1757 C 0.40637 0.40097 0.07728 0.0
C1758 C 0.41126 0.40072 0.0606 0.0
H1759 H 0.45898 0.44893 0.15743 0.0
H1760 H 0.44767 0.44006 0.12965 0.0
C1761 C 0.40377 0.39548 0.04569 0.0
C1762 C 0.41435 0.40668 0.093 0.0
H1763 H 0.42312 0.42927 0.1249 0.0
C1764 C 0.42123 0.40184 0.09866 0.0
C1765 C 0.41524 0.41687 0.10231 0.0
C1766 C 0.40855 0.42287 0.09628 0.0
C1767 C 0.42877 0.40673 0.11368 0.0
C1768 C 0.42929 0.41661 0.12341 0.0
C1769 C 0.42263 0.42163 0.11749 0.0
C1770 C 0.43654 0.42178 0.13992 0.0
C1771 C 0.4362 0.40136 0.1189 0.0
C1772 C 0.434 0.41444 0.1549 0.0
C1773 C 0.44042 0.41949 0.17077 0.0
C1774 C 0.44944 0.43199 0.17202 0.0
C1775 C 0.45202 0.4393 0.15694 0.0
C1776 C 0.4456 0.43424 0.14105 0.0
H1777 H 0.43737 0.39634 0.10752 0.0
H1778 H 0.44524 0.40863 0.12381 0.0
H1779 H 0.43154 0.39478 0.12978 0.0
H1780 H 0.42685 0.40488 0.15444 0.0
H1781 H 0.43806 0.41367 0.18224 0.0
H1782 H 0.64313 0.71755 0.36857 0.0
H1783 H 0.63993 0.72782 0.39405 0.0
H1784 H 0.67233 0.73365 0.41879 0.0
H1785 H 0.67547 0.72315 0.39354 0.0
H1786 H 0.65361 0.72515 0.44216 0.0
H1787 H 0.65806 0.76437 0.40532 0.0
H1788 H 0.6468 0.74969 0.39624 0.0
H1789 H 0.6624 0.75415 0.39579 0.0
C1790 C 0.6496 0.72104 0.3794 0.0
C1791 C 0.65958 0.71958 0.37898 0.0
C1792 C 0.6478 0.72698 0.39391 0.0
C1793 C 0.65602 0.7317 0.40816 0.0
C1794 C 0.66592 0.73014 0.40787 0.0
H1795 H 0.66318 0.78318 0.49153 0.0
H1796 H 0.66537 0.77296 0.46506 0.0
C1797 C 0.66769 0.72414 0.39343 0.0
C1798 C 0.65416 0.73801 0.4236 0.0
H1799 H 0.6512 0.76226 0.43532 0.0
C1800 C 0.6531 0.73327 0.44067 0.0
C1801 C 0.65365 0.7487 0.42165 0.0
C1802 C 0.6554 0.75461 0.40379 0.0
C1803 C 0.65145 0.73887 0.45586 0.0
C1804 C 0.65055 0.74934 0.45384 0.0
C1805 C 0.65174 0.75415 0.43679 0.0
C1806 C 0.64881 0.75565 0.46937 0.0
C1807 C 0.65097 0.7337 0.47395 0.0
C1808 C 0.63861 0.74941 0.48032 0.0
C1809 C 0.63739 0.75517 0.49558 0.0
C1810 C 0.64631 0.76735 0.50008 0.0
C1811 C 0.65626 0.77373 0.48864 0.0
C1812 C 0.65749 0.76793 0.47343 0.0
H1813 H 0.65494 0.72784 0.47364 0.0
H1814 H 0.65584 0.74114 0.48411 0.0
H1815 H 0.64142 0.72796 0.4782 0.0
H1816 H 0.63167 0.74 0.47721 0.0
H1817 H 0.62965 0.74995 0.50413 0.0
H1818 H 0.29195 0.94281 0.39157 0.0
H1819 H 0.28103 0.92835 0.41539 0.0
H1820 H 0.26364 0.94819 0.42998 0.0
H1821 H 0.27459 0.96278 0.4063 0.0
H1822 H 0.2733 0.94244 0.45908 0.0
H1823 H 0.24493 0.90157 0.41557 0.0
H1824 H 0.26083 0.9093 0.41116 0.0
H1825 H 0.25285 0.91699 0.40727 0.0
C1826 C 0.2858 0.94411 0.39982 0.0
C1827 C 0.28411 0.95394 0.39699 0.0
C1828 C 0.27951 0.93578 0.41335 0.0
C1829 C 0.27139 0.9371 0.42424 0.0
C1830 C 0.26981 0.94698 0.42163 0.0
H1831 H 0.22733 0.89887 0.51618 0.0
H1832 H 0.23692 0.91244 0.491 0.0
C1833 C 0.27608 0.9553 0.40809 0.0
C1834 C 0.26478 0.92835 0.43867 0.0
H1835 H 0.2443 0.89821 0.44668 0.0
C1836 C 0.26691 0.93278 0.45639 0.0
C1837 C 0.25648 0.91576 0.43507 0.0
C1838 C 0.25353 0.9106 0.41624 0.0
C1839 C 0.26113 0.9249 0.47067 0.0
C1840 C 0.25281 0.91231 0.46709 0.0
C1841 C 0.25067 0.90788 0.44936 0.0
C1842 C 0.24635 0.90358 0.48161 0.0
C1843 C 0.2642 0.93008 0.4895 0.0
C1844 C 0.24808 0.8938 0.48423 0.0
C1845 C 0.24248 0.88591 0.49847 0.0
C1846 C 0.23499 0.88764 0.51031 0.0
C1847 C 0.23296 0.89721 0.50725 0.0
C1848 C 0.23856 0.90508 0.493 0.0
H1849 H 0.27285 0.93906 0.4901 0.0
H1850 H 0.25698 0.93149 0.49466 0.0
H1851 H 0.26485 0.92367 0.49845 0.0
H1852 H 0.25398 0.89243 0.47547 0.0
H1853 H 0.24409 0.87852 0.50029 0.0
H1854 H 0.06537 0.35922 0.39362 0.0
H1855 H 0.07926 0.36124 0.41714 0.0
H1856 H 0.05897 0.32203 0.42331 0.0
H1857 H 0.04499 0.31992 0.40006 0.0
H1858 H 0.06462 0.33511 0.45556 0.0
H1859 H 0.10502 0.35193 0.41226 0.0
H1860 H 0.09778 0.36061 0.41148 0.0
H1861 H 0.08996 0.345 0.40334 0.0
C1862 C 0.06386 0.35103 0.40001 0.0
C1863 C 0.0541 0.3394 0.39491 0.0
C1864 C 0.07185 0.3522 0.41335 0.0
C1865 C 0.07024 0.34176 0.42176 0.0
C1866 C 0.0604 0.33019 0.41692 0.0
H1867 H 0.11873 0.33103 0.48522 0.0
H1868 H 0.10618 0.33175 0.46183 0.0
C1869 C 0.05242 0.32901 0.40361 0.0
C1870 C 0.07867 0.34282 0.43578 0.0
H1871 H 0.10786 0.35114 0.44322 0.0
C1872 C 0.07408 0.33865 0.4529 0.0
C1873 C 0.09097 0.3473 0.43217 0.0
C1874 C 0.09625 0.35138 0.41379 0.0
C1875 C 0.08146 0.33882 0.46654 0.0
C1876 C 0.09382 0.3435 0.46303 0.0
C1877 C 0.09841 0.34766 0.4459 0.0
C1878 C 0.10199 0.34371 0.47682 0.0
C1879 C 0.07587 0.33364 0.48442 0.0
C1880 C 0.10401 0.35043 0.49283 0.0
C1881 C 0.11105 0.34992 0.50631 0.0
C1882 C 0.11632 0.34278 0.50396 0.0
C1883 C 0.11465 0.33645 0.4876 0.0
C1884 C 0.10755 0.33692 0.47416 0.0
H1885 H 0.06589 0.32769 0.48353 0.0
H1886 H 0.07948 0.32822 0.48991 0.0
H1887 H 0.07804 0.3413 0.49396 0.0
H1888 H 0.09998 0.35592 0.49502 0.0
H1889 H 0.11204 0.35483 0.51877 0.0
H1890 H 0.05683 0.3501 0.30094 0.0
H1891 H 0.06844 0.34917 0.27575 0.0
H1892 H 0.05798 0.31237 0.28947 0.0
H1893 H 0.04621 0.31314 0.31464 0.0
H1894 H 0.08777 0.34516 0.2775 0.0
H1895 H 0.05007 0.30937 0.23585 0.0
H1896 H 0.04772 0.31742 0.25403 0.0
H1897 H 0.05041 0.30534 0.25856 0.0
C1898 C 0.05691 0.34176 0.29855 0.0
C1899 C 0.05056 0.33168 0.30979 0.0
C1900 C 0.06357 0.34126 0.28416 0.0
C1901 C 0.06397 0.33066 0.28066 0.0
C1902 C 0.05762 0.32056 0.29178 0.0
H1903 H 0.10129 0.31508 0.19597 0.0
H1904 H 0.08965 0.31374 0.22273 0.0
C1905 C 0.05094 0.32104 0.30619 0.0
C1906 C 0.07139 0.33043 0.26571 0.0
H1907 H 0.06983 0.31662 0.22541 0.0
C1908 C 0.08386 0.33891 0.26611 0.0
C1909 C 0.06626 0.3222 0.25097 0.0
C1910 C 0.05287 0.31312 0.24966 0.0
C1911 C 0.09135 0.33945 0.25209 0.0
C1912 C 0.08619 0.33143 0.23713 0.0
C1913 C 0.07375 0.32276 0.2369 0.0
C1914 C 0.09344 0.33229 0.22123 0.0
C1915 C 0.10474 0.34853 0.25349 0.0
C1916 C 0.0993 0.34311 0.21146 0.0
C1917 C 0.10591 0.34389 0.19621 0.0
C1918 C 0.10673 0.33383 0.19034 0.0
C1919 C 0.10078 0.32296 0.2001 0.0
C1920 C 0.09417 0.3222 0.2154 0.0
H1921 H 0.10762 0.35131 0.26759 0.0
H1922 H 0.10996 0.34469 0.24756 0.0
H1923 H 0.10702 0.3569 0.24613 0.0
H1924 H 0.09859 0.3509 0.21546 0.0
H1925 H 0.11016 0.3523 0.18878 0.0
H1926 H 0.65465 0.71245 0.28447 0.0
H1927 H 0.65969 0.72687 0.26042 0.0
H1928 H 0.69668 0.74749 0.27817 0.0
H1929 H 0.69169 0.73315 0.3025 0.0
H1930 H 0.68701 0.76208 0.27118 0.0
H1931 H 0.67848 0.72962 0.21485 0.0
H1932 H 0.66606 0.7242 0.2301 0.0
H1933 H 0.68015 0.72639 0.23759 0.0
C1934 C 0.66388 0.72 0.28324 0.0
C1935 C 0.67278 0.72161 0.29537 0.0
C1936 C 0.66675 0.72821 0.26941 0.0
C1937 C 0.67859 0.73813 0.26734 0.0
C1938 C 0.6875 0.73984 0.27948 0.0
H1939 H 0.70912 0.79743 0.19018 0.0
H1940 H 0.70658 0.78426 0.21515 0.0
C1941 C 0.68463 0.73162 0.29335 0.0
C1942 C 0.68155 0.74689 0.25277 0.0
H1943 H 0.68045 0.7486 0.20751 0.0
C1944 C 0.6857 0.75919 0.25724 0.0
C1945 C 0.67986 0.74307 0.23461 0.0
C1946 C 0.67601 0.73013 0.22895 0.0
C1947 C 0.68779 0.76768 0.24403 0.0
C1948 C 0.6858 0.76378 0.22592 0.0
C1949 C 0.68189 0.75154 0.22144 0.0
C1950 C 0.68736 0.77211 0.21137 0.0
C1951 C 0.69171 0.78066 0.24958 0.0
C1952 C 0.67742 0.76956 0.20089 0.0
C1953 C 0.67885 0.77699 0.18659 0.0
C1954 C 0.69027 0.7871 0.1824 0.0
C1955 C 0.70021 0.78969 0.19302 0.0
C1956 C 0.69877 0.78224 0.20738 0.0
H1957 H 0.6904 0.78152 0.2641 0.0
H1958 H 0.70143 0.78679 0.24653 0.0
H1959 H 0.68663 0.78389 0.24206 0.0
H1960 H 0.66856 0.76172 0.20369 0.0
H1961 H 0.67104 0.7746 0.1785 0.0
H1962 H 0.29107 0.95339 0.29976 0.0
H1963 H 0.27872 0.94219 0.27381 0.0
H1964 H 0.25064 0.94793 0.29303 0.0
H1965 H 0.26291 0.95906 0.31929 0.0
H1966 H 0.24217 0.92385 0.28253 0.0
H1967 H 0.27139 0.95564 0.23018 0.0
H1968 H 0.27942 0.95136 0.24463 0.0
H1969 H 0.27314 0.96001 0.25356 0.0
C1970 C 0.28231 0.95237 0.29845 0.0
C1971 C 0.27799 0.95715 0.31159 0.0
C1972 C 0.27529 0.94602 0.28353 0.0
C1973 C 0.26385 0.94441 0.28135 0.0
C1974 C 0.25949 0.94916 0.29442 0.0
H1975 H 0.22574 0.91257 0.18032 0.0
H1976 H 0.23407 0.92595 0.20683 0.0
C1977 C 0.26652 0.95552 0.30939 0.0
C1978 C 0.25629 0.93725 0.26582 0.0
H1979 H 0.25661 0.93519 0.22035 0.0
C1980 C 0.24524 0.9264 0.26892 0.0
C1981 C 0.26021 0.9407 0.24807 0.0
C1982 C 0.27163 0.95263 0.24387 0.0
C1983 C 0.23827 0.9186 0.25474 0.0
C1984 C 0.24261 0.92164 0.23706 0.0
C1985 C 0.25336 0.93279 0.23392 0.0
C1986 C 0.23651 0.91313 0.22171 0.0
C1987 C 0.2264 0.90713 0.25885 0.0
C1988 C 0.23508 0.90147 0.22131 0.0
C1989 C 0.23025 0.89378 0.20627 0.0
C1990 C 0.22686 0.89764 0.19122 0.0
C1991 C 0.22811 0.90925 0.19177 0.0
C1992 C 0.23294 0.91694 0.20685 0.0
H1993 H 0.22262 0.9081 0.27173 0.0
H1994 H 0.21968 0.90485 0.24812 0.0
H1995 H 0.22781 0.89934 0.25998 0.0
H1996 H 0.238 0.89844 0.23247 0.0
H1997 H 0.2293 0.88486 0.20634 0.0
H1998 H 0.70037 0.96328 0.31139 0.0
H1999 H 0.70302 0.95336 0.28486 0.0
H2000 H 0.66635 0.93998 0.26905 0.0
H2001 H 0.6637 0.95006 0.29524 0.0
H2002 H 0.69082 0.92901 0.27502 0.0
H2003 H 0.68472 0.95581 0.22379 0.0
H2004 H 0.68713 0.96041 0.24708 0.0
H2005 H 0.67239 0.94876 0.23924 0.0
C2006 C 0.6929 0.9583 0.3022 0.0
C2007 C 0.68185 0.95752 0.30536 0.0
C2008 C 0.69442 0.95262 0.28706 0.0
C2009 C 0.68495 0.94611 0.27483 0.0
C2010 C 0.67388 0.94521 0.27807 0.0
H2011 H 0.67225 0.90134 0.17979 0.0
H2012 H 0.67063 0.91138 0.20699 0.0
C2013 C 0.67236 0.95093 0.29312 0.0
C2014 C 0.68649 0.93991 0.25895 0.0
H2015 H 0.68433 0.93784 0.21347 0.0
C2016 C 0.6895 0.93101 0.26155 0.0
C2017 C 0.68478 0.94255 0.24139 0.0
C2018 C 0.68219 0.95249 0.23766 0.0
C2019 C 0.69055 0.92444 0.24707 0.0
C2020 C 0.68861 0.92694 0.22958 0.0
C2021 C 0.68572 0.93591 0.22695 0.0
C2022 C 0.68955 0.92034 0.21375 0.0
C2023 C 0.69343 0.9147 0.25058 0.0
C2024 C 0.70072 0.92206 0.20862 0.0
C2025 C 0.70167 0.91633 0.1931 0.0
C2026 C 0.69146 0.90878 0.18247 0.0
C2027 C 0.68025 0.90696 0.18782 0.0
C2028 C 0.67932 0.91274 0.20328 0.0
H2029 H 0.69229 0.91221 0.26487 0.0
H2030 H 0.68759 0.90631 0.24237 0.0
H2031 H 0.70294 0.91816 0.2468 0.0
H2032 H 0.70874 0.92802 0.21643 0.0
H2033 H 0.71042 0.91786 0.18936 0.0
H2034 H 0.06536 0.72542 0.30514 0.0
H2035 H 0.0761 0.7384 0.27986 0.0
H2036 H 0.04566 0.74199 0.26884 0.0
H2037 H 0.03481 0.72903 0.29424 0.0
H2038 H 0.06815 0.73377 0.24349 0.0
H2039 H 0.07493 0.77783 0.27048 0.0
H2040 H 0.07118 0.76504 0.28454 0.0
H2041 H 0.05974 0.76485 0.27113 0.0
C2042 C 0.06094 0.72901 0.29742 0.0
C2043 C 0.04923 0.72621 0.30173 0.0
C2044 C 0.0671 0.73642 0.28297 0.0
C2045 C 0.06172 0.74126 0.27264 0.0
C2046 C 0.05003 0.7385 0.27685 0.0
H2047 H 0.08623 0.78683 0.17878 0.0
H2048 H 0.07504 0.77493 0.20478 0.0
C2049 C 0.04384 0.73104 0.2913 0.0
C2050 C 0.06824 0.74883 0.25708 0.0
H2051 H 0.08118 0.77771 0.24075 0.0
C2052 C 0.07102 0.74339 0.24288 0.0
C2053 C 0.07189 0.76134 0.25633 0.0
C2054 C 0.06939 0.76769 0.27146 0.0
C2055 C 0.07731 0.7501 0.22784 0.0
C2056 C 0.08116 0.76267 0.2272 0.0
C2057 C 0.07826 0.76808 0.24132 0.0
C2058 C 0.08823 0.77033 0.21197 0.0
C2059 C 0.07958 0.7436 0.21264 0.0
C2060 C 0.09949 0.77193 0.20768 0.0
C2061 C 0.1059 0.77872 0.19286 0.0
C2062 C 0.10122 0.78415 0.18216 0.0
C2063 C 0.09012 0.78285 0.18684 0.0
C2064 C 0.08369 0.77602 0.20163 0.0
H2065 H 0.07329 0.73351 0.21301 0.0
H2066 H 0.07864 0.74688 0.19953 0.0
H2067 H 0.08891 0.74549 0.21368 0.0
H2068 H 0.10329 0.76788 0.21576 0.0
H2069 H 0.11452 0.77973 0.18976 0.0
H2070 H 0.29164 0.3442 0.27753 0.0
H2071 H 0.27615 0.33883 0.25496 0.0
H2072 H 0.25327 0.3039 0.27953 0.0
H2073 H 0.26868 0.30923 0.30232 0.0
H2074 H 0.26553 0.31861 0.23067 0.0
H2075 H 0.2318 0.31879 0.27681 0.0
H2076 H 0.24745 0.32557 0.28286 0.0
H2077 H 0.23744 0.30923 0.28299 0.0
C2078 C 0.28332 0.33537 0.27816 0.0
C2079 C 0.28137 0.32717 0.29179 0.0
C2080 C 0.27449 0.33231 0.26523 0.0
C2081 C 0.26352 0.32104 0.26573 0.0
C2082 C 0.2616 0.31273 0.2791 0.0
H2083 H 0.21251 0.29431 0.17616 0.0
H2084 H 0.22514 0.29517 0.20083 0.0
C2085 C 0.27044 0.31577 0.29205 0.0
C2086 C 0.25414 0.31807 0.25215 0.0
H2087 H 0.22603 0.31344 0.24663 0.0
C2088 C 0.25685 0.31739 0.23414 0.0
C2089 C 0.24289 0.3166 0.25677 0.0
C2090 C 0.2397 0.31767 0.27588 0.0
C2091 C 0.24866 0.31541 0.22055 0.0
C2092 C 0.2374 0.31392 0.22516 0.0
C2093 C 0.23463 0.31448 0.24319 0.0
C2094 C 0.22876 0.31267 0.21134 0.0
C2095 C 0.25229 0.31538 0.20135 0.0
C2096 C 0.22625 0.32199 0.20955 0.0
C2097 C 0.21897 0.32148 0.1956 0.0
C2098 C 0.21404 0.31161 0.18321 0.0
C2099 C 0.21613 0.302 0.18553 0.0
C2100 C 0.22343 0.30253 0.1995 0.0
H2101 H 0.26211 0.31907 0.19998 0.0
H2102 H 0.24737 0.30583 0.19594 0.0
H2103 H 0.24991 0.32089 0.19308 0.0
H2104 H 0.23022 0.32985 0.21863 0.0
H2105 H 0.21738 0.32893 0.19432 0.0
H2106 H 0.28913 0.33241 0.39316 0.0
H2107 H 0.28115 0.33769 0.41928 0.0
H2108 H 0.27441 0.36094 0.38708 0.0
H2109 H 0.28233 0.35569 0.36083 0.0
H2110 H 0.28945 0.36205 0.4341 0.0
H2111 H 0.24157 0.33739 0.41176 0.0
H2112 H 0.2525 0.33425 0.40212 0.0
H2113 H 0.25262 0.34782 0.39621 0.0
C2114 C 0.28593 0.33863 0.3916 0.0
C2115 C 0.28631 0.34359 0.37489 0.0
C2116 C 0.2814 0.34165 0.40654 0.0
C2117 C 0.27709 0.3496 0.40503 0.0
C2118 C 0.27755 0.35466 0.38844 0.0
H2119 H 0.24136 0.37057 0.48546 0.0
H2120 H 0.251 0.36934 0.45782 0.0
C2121 C 0.28212 0.35168 0.37348 0.0
C2122 C 0.2722 0.35262 0.42092 0.0
H2123 H 0.24614 0.34832 0.43919 0.0
C2124 C 0.27999 0.3591 0.43522 0.0
C2125 C 0.25988 0.34883 0.42222 0.0
C2126 C 0.25109 0.34161 0.40735 0.0
C2127 C 0.27577 0.36181 0.45092 0.0
C2128 C 0.26337 0.35768 0.45246 0.0
C2129 C 0.25564 0.35147 0.43796 0.0
C2130 C 0.25811 0.35906 0.46934 0.0
C2131 C 0.28463 0.36911 0.46566 0.0
C2132 C 0.25886 0.35364 0.48492 0.0
C2133 C 0.25345 0.35439 0.50069 0.0
C2134 C 0.24704 0.36047 0.50118 0.0
C2135 C 0.24634 0.36595 0.48557 0.0
C2136 C 0.25178 0.3652 0.46976 0.0
H2137 H 0.29397 0.37475 0.46042 0.0
H2138 H 0.28222 0.37525 0.47276 0.0
H2139 H 0.28457 0.36272 0.47546 0.0
H2140 H 0.26349 0.34865 0.48482 0.0
H2141 H 0.25428 0.35019 0.51252 0.0
H2142 H 0.65903 0.92582 0.36482 0.0
H2143 H 0.65746 0.91379 0.39073 0.0
H2144 H 0.66089 0.9426 0.42593 0.0
H2145 H 0.6625 0.95474 0.40014 0.0
H2146 H 0.67516 0.92181 0.42024 0.0
H2147 H 0.62934 0.91013 0.44175 0.0
H2148 H 0.63493 0.91494 0.4194 0.0
H2149 H 0.63994 0.92604 0.43741 0.0
C2150 C 0.65941 0.92959 0.37807 0.0
C2151 C 0.66085 0.94122 0.38042 0.0
C2152 C 0.65854 0.92271 0.39283 0.0
C2153 C 0.65896 0.92728 0.41018 0.0
C2154 C 0.66042 0.93888 0.41261 0.0
H2155 H 0.66987 0.90535 0.51276 0.0
H2156 H 0.67169 0.91586 0.48504 0.0
C2157 C 0.66137 0.94581 0.39786 0.0
C2158 C 0.65803 0.91998 0.42577 0.0
H2159 H 0.64001 0.90476 0.46114 0.0
C2160 C 0.66747 0.91804 0.42917 0.0
C2161 C 0.64792 0.915 0.43723 0.0
C2162 C 0.63739 0.91652 0.43377 0.0
C2163 C 0.66718 0.91142 0.44404 0.0
C2164 C 0.65721 0.90672 0.45577 0.0
C2165 C 0.64766 0.90844 0.45214 0.0
C2166 C 0.65658 0.90011 0.47206 0.0
C2167 C 0.67748 0.90945 0.44705 0.0
C2168 C 0.64746 0.88778 0.47394 0.0
C2169 C 0.64643 0.88171 0.48971 0.0
C2170 C 0.65446 0.8879 0.50398 0.0
C2171 C 0.66368 0.90024 0.50194 0.0
C2172 C 0.66472 0.90628 0.48613 0.0
H2173 H 0.68302 0.91118 0.43482 0.0
H2174 H 0.6834 0.91585 0.45776 0.0
H2175 H 0.67408 0.89995 0.45139 0.0
H2176 H 0.64108 0.88289 0.46321 0.0
H2177 H 0.63932 0.87218 0.49075 0.0
H2178 H 0.04032 0.74076 0.39171 0.0
H2179 H 0.05476 0.7505 0.41631 0.0
H2180 H 0.06676 0.72514 0.40743 0.0
H2181 H 0.05236 0.71533 0.38286 0.0
H2182 H 0.05623 0.738 0.44784 0.0
H2183 H 0.09813 0.76021 0.4071 0.0
H2184 H 0.08349 0.75527 0.39783 0.0
H2185 H 0.0876 0.74422 0.40233 0.0
C2186 C 0.04604 0.73727 0.39496 0.0
C2187 C 0.04521 0.72729 0.38531 0.0
C2188 C 0.05428 0.74284 0.409 0.0
C2189 C 0.06189 0.73862 0.41349 0.0
C2190 C 0.06106 0.72863 0.40397 0.0
H2191 H 0.11752 0.75929 0.49299 0.0
H2192 H 0.10382 0.75055 0.46743 0.0
C2193 C 0.05278 0.72301 0.39001 0.0
C2194 C 0.0705 0.74443 0.42847 0.0
H2195 H 0.10052 0.76125 0.43847 0.0
C2196 C 0.06591 0.74314 0.44583 0.0
C2197 C 0.0831 0.75103 0.42572 0.0
C2198 C 0.08844 0.75288 0.40724 0.0
C2199 C 0.07363 0.74812 0.46064 0.0
C2200 C 0.08626 0.75484 0.45792 0.0
C2201 C 0.09084 0.75613 0.44051 0.0
C2202 C 0.09486 0.76053 0.47299 0.0
C2203 C 0.06817 0.74583 0.47909 0.0
C2204 C 0.09457 0.76925 0.48433 0.0
C2205 C 0.10226 0.77414 0.49907 0.0
C2206 C 0.11054 0.77052 0.50263 0.0
C2207 C 0.11112 0.76212 0.49083 0.0
C2208 C 0.10335 0.75718 0.47615 0.0
H2209 H 0.05878 0.73781 0.47914 0.0
H2210 H 0.0736 0.74424 0.48873 0.0
H2211 H 0.0679 0.75398 0.48378 0.0
H2212 H 0.08826 0.77217 0.48192 0.0
H2213 H 0.10147 0.78049 0.50793 0.0
H2214 H 0.35327 0.07879 0.70897 0.0
H2215 H 0.34957 0.08872 0.73436 0.0
H2216 H 0.31793 0.05425 0.74812 0.0
H2217 H 0.32163 0.04416 0.7228 0.0
H2218 H 0.32883 0.09008 0.74228 0.0
H2219 H 0.33808 0.06584 0.79449 0.0
H2220 H 0.3424 0.06602 0.77146 0.0
H2221 H 0.32694 0.05631 0.77802 0.0
C2222 C 0.34552 0.07329 0.71738 0.0
C2223 C 0.33779 0.06066 0.71393 0.0
C2224 C 0.34341 0.079 0.73185 0.0
C2225 C 0.33356 0.07219 0.7432 0.0
C2226 C 0.32569 0.05962 0.73966 0.0
H2227 H 0.31889 0.09803 0.84427 0.0
H2228 H 0.3161 0.08538 0.81752 0.0
C2229 C 0.32779 0.05389 0.72516 0.0
C2230 C 0.33172 0.07833 0.75883 0.0
H2231 H 0.33305 0.08018 0.80435 0.0
C2232 C 0.32966 0.08787 0.75587 0.0
C2233 C 0.33273 0.07535 0.77651 0.0
C2234 C 0.33524 0.06539 0.78042 0.0
C2235 C 0.32882 0.09469 0.77015 0.0
C2236 C 0.3303 0.09202 0.7878 0.0
C2237 C 0.33191 0.08219 0.79079 0.0
C2238 C 0.33118 0.0999 0.80324 0.0
C2239 C 0.32643 0.10473 0.7662 0.0
C2240 C 0.34055 0.11224 0.80402 0.0
C2241 C 0.34214 0.11947 0.81921 0.0
C2242 C 0.33444 0.11448 0.83398 0.0
C2243 C 0.32488 0.10217 0.83302 0.0
C2244 C 0.32332 0.09493 0.81781 0.0
H2245 H 0.32183 0.1031 0.75313 0.0
H2246 H 0.32082 0.10552 0.77679 0.0
H2247 H 0.33515 0.1136 0.76558 0.0
H2248 H 0.34687 0.1162 0.79307 0.0
H2249 H 0.34952 0.12894 0.81949 0.0
H2250 H 0.9363 0.28255 0.71553 0.0
H2251 H 0.92421 0.26926 0.73978 0.0
H2252 H 0.95523 0.26935 0.75954 0.0
H2253 H 0.9675 0.28276 0.73527 0.0
H2254 H 0.92024 0.24543 0.74804 0.0
H2255 H 0.94242 0.27997 0.80329 0.0
H2256 H 0.94388 0.28427 0.7802 0.0
H2257 H 0.95207 0.27766 0.78845 0.0
C2258 C 0.9406 0.27979 0.72504 0.0
C2259 C 0.95289 0.28377 0.72351 0.0
C2260 C 0.93365 0.27216 0.73886 0.0
C2261 C 0.93885 0.26841 0.7515 0.0
C2262 C 0.9511 0.27228 0.75002 0.0
H2263 H 0.90392 0.22839 0.84894 0.0
H2264 H 0.9185 0.23785 0.82464 0.0
C2265 C 0.95807 0.2799 0.73613 0.0
C2266 C 0.93133 0.26044 0.76617 0.0
H2267 H 0.92626 0.2605 0.81095 0.0
C2268 C 0.92161 0.24867 0.76183 0.0
C2269 C 0.93321 0.26468 0.78413 0.0
C2270 C 0.9434 0.27736 0.7894 0.0
C2271 C 0.91353 0.24109 0.77496 0.0
C2272 C 0.91509 0.24553 0.79281 0.0
C2273 C 0.92508 0.25713 0.79725 0.0
C2274 C 0.90601 0.23871 0.80684 0.0
C2275 C 0.90337 0.22843 0.76958 0.0
C2276 C 0.89415 0.23601 0.80485 0.0
C2277 C 0.8858 0.23055 0.81863 0.0
C2278 C 0.88917 0.22777 0.83477 0.0
C2279 C 0.90099 0.23026 0.8366 0.0
C2280 C 0.90935 0.23574 0.82278 0.0
H2281 H 0.90565 0.225 0.75731 0.0
H2282 H 0.90117 0.2218 0.7804 0.0
H2283 H 0.89522 0.22877 0.76668 0.0
H2284 H 0.89143 0.23845 0.79282 0.0
H2285 H 0.87674 0.22866 0.81675 0.0
H2286 H 0.73735 0.69527 0.71591 0.0
H2287 H 0.75235 0.69949 0.73887 0.0
H2288 H 0.72456 0.67153 0.77166 0.0
H2289 H 0.70956 0.6671 0.74871 0.0
H2290 H 0.75379 0.7071 0.77372 0.0
H2291 H 0.74971 0.66181 0.77019 0.0
H2292 H 0.74345 0.66676 0.75338 0.0
H2293 H 0.73552 0.66067 0.774 0.0
C2294 C 0.73443 0.69001 0.728 0.0
C2295 C 0.72227 0.68079 0.73043 0.0
C2296 C 0.74302 0.69243 0.74109 0.0
C2297 C 0.73961 0.68566 0.75681 0.0
C2298 C 0.72744 0.67665 0.75944 0.0
H2299 H 0.77515 0.70328 0.85857 0.0
H2300 H 0.76281 0.70039 0.83248 0.0
C2301 C 0.71886 0.67419 0.74634 0.0
C2302 C 0.7487 0.68821 0.77068 0.0
H2303 H 0.76016 0.67462 0.79552 0.0
C2304 C 0.75526 0.70003 0.77839 0.0
C2305 C 0.75078 0.67904 0.77653 0.0
C2306 C 0.74459 0.66639 0.76797 0.0
C2307 C 0.76353 0.70281 0.79225 0.0
C2308 C 0.76508 0.69345 0.79879 0.0
C2309 C 0.75885 0.68175 0.79063 0.0
C2310 C 0.77281 0.69548 0.81445 0.0
C2311 C 0.77055 0.71577 0.7997 0.0
C2312 C 0.78234 0.69336 0.81311 0.0
C2313 C 0.78939 0.69494 0.82806 0.0
C2314 C 0.78701 0.69865 0.84463 0.0
C2315 C 0.77739 0.70068 0.84592 0.0
C2316 C 0.77033 0.69905 0.83101 0.0
H2317 H 0.77115 0.72245 0.78991 0.0
H2318 H 0.76588 0.71647 0.81175 0.0
H2319 H 0.77982 0.71839 0.80357 0.0
H2320 H 0.78435 0.69052 0.80047 0.0
H2321 H 0.79677 0.69336 0.82663 0.0
H2322 H 0.71561 0.67478 0.62679 0.0
H2323 H 0.72444 0.67029 0.60094 0.0
H2324 H 0.73818 0.6538 0.63524 0.0
H2325 H 0.72946 0.65832 0.6612 0.0
H2326 H 0.75526 0.67059 0.61054 0.0
H2327 H 0.71218 0.63612 0.57773 0.0
H2328 H 0.71344 0.65046 0.58341 0.0
H2329 H 0.71301 0.64086 0.60084 0.0
C2330 C 0.72048 0.67017 0.62884 0.0
C2331 C 0.7218 0.66687 0.64606 0.0
C2332 C 0.72547 0.66756 0.61404 0.0
C2333 C 0.73183 0.66158 0.61618 0.0
C2334 C 0.73326 0.65837 0.63333 0.0
H2335 H 0.75296 0.62908 0.53128 0.0
H2336 H 0.74502 0.63299 0.55874 0.0
C2337 C 0.72825 0.66094 0.64814 0.0
C2338 C 0.73719 0.65888 0.60054 0.0
H2339 H 0.73009 0.64283 0.56095 0.0
C2340 C 0.74977 0.66449 0.59971 0.0
C2341 C 0.72998 0.6508 0.58658 0.0
C2342 C 0.71639 0.64411 0.58718 0.0
C2343 C 0.75537 0.66243 0.58506 0.0
C2344 C 0.74817 0.65466 0.57083 0.0
C2345 C 0.73558 0.64885 0.57184 0.0
C2346 C 0.75352 0.65247 0.55468 0.0
C2347 C 0.7689 0.66848 0.58499 0.0
C2348 C 0.76091 0.66214 0.54332 0.0
C2349 C 0.7654 0.65993 0.52757 0.0
C2350 C 0.76253 0.64799 0.52285 0.0
C2351 C 0.75523 0.63835 0.53442 0.0
C2352 C 0.75073 0.64057 0.55014 0.0
H2353 H 0.77277 0.67158 0.59861 0.0
H2354 H 0.77161 0.66213 0.57951 0.0
H2355 H 0.77288 0.67664 0.57641 0.0
H2356 H 0.76296 0.67135 0.54641 0.0
H2357 H 0.77082 0.66751 0.51882 0.0
H2358 H 0.32869 0.03787 0.60366 0.0
H2359 H 0.33295 0.05243 0.58 0.0
H2360 H 0.35526 0.08251 0.61622 0.0
H2361 H 0.35119 0.06803 0.63991 0.0
H2362 H 0.32821 0.07143 0.57969 0.0
H2363 H 0.37717 0.08924 0.5727 0.0
H2364 H 0.36705 0.07534 0.58435 0.0
H2365 H 0.3724 0.09003 0.59503 0.0
C2366 C 0.33456 0.04757 0.60658 0.0
C2367 C 0.33965 0.05178 0.62366 0.0
C2368 C 0.33696 0.05588 0.59305 0.0
C2369 C 0.34453 0.06853 0.59631 0.0
C2370 C 0.34957 0.07277 0.61334 0.0
H2371 H 0.35091 0.12646 0.52884 0.0
H2372 H 0.34697 0.1127 0.55364 0.0
C2373 C 0.34719 0.06448 0.62688 0.0
C2374 C 0.34696 0.07729 0.58194 0.0
H2375 H 0.36947 0.09938 0.55657 0.0
C2376 C 0.33722 0.07755 0.57462 0.0
C2377 C 0.35872 0.08517 0.57527 0.0
C2378 C 0.36944 0.0849 0.5821 0.0
C2379 C 0.33894 0.08554 0.56083 0.0
C2380 C 0.35073 0.09359 0.55439 0.0
C2381 C 0.36046 0.09328 0.56166 0.0
C2382 C 0.35313 0.10201 0.53955 0.0
C2383 C 0.3281 0.0851 0.55297 0.0
C2384 C 0.35811 0.10071 0.52358 0.0
C2385 C 0.36038 0.10854 0.50945 0.0
C2386 C 0.35779 0.1179 0.51103 0.0
C2387 C 0.35287 0.11925 0.52712 0.0
C2388 C 0.35061 0.1114 0.54129 0.0
H2389 H 0.31955 0.07659 0.55652 0.0
H2390 H 0.32765 0.09304 0.55821 0.0
H2391 H 0.32879 0.08568 0.53819 0.0
H2392 H 0.3601 0.09352 0.52196 0.0
H2393 H 0.36399 0.10712 0.49715 0.0
H2394 H 0.94917 0.30355 0.63234 0.0
H2395 H 0.93636 0.29052 0.60762 0.0
H2396 H 0.94595 0.2638 0.61874 0.0
H2397 H 0.95876 0.27672 0.64343 0.0
H2398 H 0.94399 0.28147 0.57708 0.0
H2399 H 0.90822 0.24417 0.61779 0.0
H2400 H 0.91855 0.25933 0.62689 0.0
H2401 H 0.92343 0.24867 0.62328 0.0
C2402 C 0.94853 0.29489 0.62956 0.0
C2403 C 0.95496 0.29116 0.63989 0.0
C2404 C 0.94122 0.28747 0.61544 0.0
C2405 C 0.9401 0.27615 0.61156 0.0
C2406 C 0.94655 0.27243 0.62174 0.0
H2407 H 0.90389 0.21721 0.53414 0.0
H2408 H 0.91474 0.23066 0.55966 0.0
C2409 C 0.95392 0.27986 0.63577 0.0
C2410 C 0.93247 0.26834 0.59653 0.0
H2411 H 0.90756 0.24042 0.58653 0.0
C2412 C 0.93596 0.27253 0.5791 0.0
C2413 C 0.92205 0.25669 0.5993 0.0
C2414 C 0.91774 0.25194 0.61782 0.0
C2415 C 0.9295 0.2652 0.56425 0.0
C2416 C 0.91909 0.2535 0.56699 0.0
C2417 C 0.91552 0.24939 0.58447 0.0
C2418 C 0.91204 0.24521 0.55188 0.0
C2419 C 0.93413 0.26988 0.54579 0.0
C2420 C 0.90667 0.24881 0.53926 0.0
C2421 C 0.90059 0.24121 0.52452 0.0
C2422 C 0.89965 0.22979 0.52223 0.0
C2423 C 0.90464 0.22603 0.5353 0.0
C2424 C 0.91077 0.23367 0.54997 0.0
H2425 H 0.94374 0.27745 0.54603 0.0
H2426 H 0.93322 0.26242 0.53678 0.0
H2427 H 0.92878 0.27348 0.54009 0.0
H2428 H 0.90732 0.25758 0.54068 0.0
H2429 H 0.89694 0.24445 0.51468 0.0
H2430 H 0.32407 0.26356 0.64921 0.0
H2431 H 0.32948 0.25446 0.62458 0.0
H2432 H 0.35084 0.29001 0.60096 0.0
H2433 H 0.3457 0.29923 0.62572 0.0
H2434 H 0.32521 0.25381 0.58897 0.0
H2435 H 0.37445 0.27843 0.60141 0.0
H2436 H 0.36398 0.27829 0.61755 0.0
H2437 H 0.36888 0.28852 0.59906 0.0
C2438 C 0.32995 0.26946 0.63881 0.0
C2439 C 0.3345 0.28214 0.63947 0.0
C2440 C 0.33304 0.26424 0.62475 0.0
C2441 C 0.34075 0.27159 0.61112 0.0
C2442 C 0.34514 0.28421 0.61158 0.0
H2443 H 0.36404 0.25853 0.50942 0.0
H2444 H 0.36011 0.26711 0.53628 0.0
C2445 C 0.34211 0.28945 0.62568 0.0
C2446 C 0.34386 0.26598 0.59612 0.0
H2447 H 0.36756 0.26746 0.57361 0.0
C2448 C 0.33446 0.25672 0.5857 0.0
C2449 C 0.35594 0.26978 0.59192 0.0
C2450 C 0.36639 0.27921 0.60317 0.0
C2451 C 0.33683 0.25137 0.57092 0.0
C2452 C 0.34891 0.25532 0.56655 0.0
C2453 C 0.35831 0.26449 0.57702 0.0
C2454 C 0.35194 0.25023 0.55084 0.0
C2455 C 0.32644 0.24174 0.55977 0.0
C2456 C 0.34889 0.23798 0.55036 0.0
C2457 C 0.35124 0.23306 0.53509 0.0
C2458 C 0.35668 0.24033 0.52005 0.0
C2459 C 0.36 0.25272 0.52082 0.0
C2460 C 0.35769 0.25762 0.53611 0.0
H2461 H 0.31787 0.24133 0.56298 0.0
H2462 H 0.32837 0.24357 0.54533 0.0
H2463 H 0.32514 0.23262 0.56232 0.0
H2464 H 0.3446 0.2322 0.56173 0.0
H2465 H 0.34874 0.22356 0.53506 0.0
H2466 H 0.70484 0.0657 0.63107 0.0
H2467 H 0.71562 0.07944 0.6064 0.0
H2468 H 0.7344 0.06044 0.59576 0.0
H2469 H 0.72351 0.04653 0.6201 0.0
H2470 H 0.73989 0.09521 0.60176 0.0
H2471 H 0.72137 0.06038 0.54683 0.0
H2472 H 0.71494 0.05733 0.56895 0.0
H2473 H 0.72816 0.05663 0.56424 0.0
C2474 C 0.7112 0.06439 0.6234 0.0
C2475 C 0.71326 0.05497 0.62747 0.0
C2476 C 0.71737 0.07227 0.60933 0.0
C2477 C 0.72567 0.07084 0.59907 0.0
C2478 C 0.72782 0.06153 0.60323 0.0
H2479 H 0.78237 0.12412 0.53077 0.0
H2480 H 0.77047 0.11115 0.55549 0.0
C2481 C 0.72163 0.05362 0.61722 0.0
C2482 C 0.7323 0.07928 0.58429 0.0
H2483 H 0.7383 0.07996 0.53973 0.0
C2484 C 0.73949 0.0919 0.58816 0.0
C2485 C 0.73164 0.07495 0.56653 0.0
C2486 C 0.72352 0.0616 0.56132 0.0
C2487 C 0.74625 0.10029 0.57481 0.0
C2488 C 0.74598 0.0959 0.5572 0.0
C2489 C 0.73859 0.08331 0.55327 0.0
C2490 C 0.75323 0.10416 0.54255 0.0
C2491 C 0.75346 0.11379 0.57964 0.0
C2492 C 0.74752 0.10436 0.52692 0.0
C2493 C 0.7543 0.11158 0.51264 0.0
C2494 C 0.76696 0.11877 0.51368 0.0
C2495 C 0.77265 0.11864 0.52945 0.0
C2496 C 0.76585 0.11135 0.54371 0.0
H2497 H 0.74999 0.11588 0.59199 0.0
H2498 H 0.76297 0.11659 0.58209 0.0
H2499 H 0.75331 0.11938 0.56867 0.0
H2500 H 0.73779 0.09881 0.52568 0.0
H2501 H 0.74961 0.11125 0.5006 0.0
H2502 H 0.95427 0.68345 0.61733 0.0
H2503 H 0.9393 0.67792 0.59385 0.0
H2504 H 0.92238 0.6398 0.6072 0.0
H2505 H 0.93713 0.64529 0.63106 0.0
H2506 H 0.9342 0.66353 0.56447 0.0
H2507 H 0.89392 0.64439 0.60823 0.0
H2508 H 0.9091 0.65305 0.61691 0.0
H2509 H 0.90247 0.63715 0.61064 0.0
C2510 C 0.94736 0.67388 0.6153 0.0
C2511 C 0.94684 0.66482 0.62614 0.0
C2512 C 0.9388 0.67074 0.60187 0.0
C2513 C 0.92958 0.65847 0.59898 0.0
C2514 C 0.92922 0.64936 0.60949 0.0
H2515 H 0.88648 0.6328 0.50167 0.0
H2516 H 0.90005 0.63607 0.52626 0.0
C2517 C 0.93771 0.6525 0.62304 0.0
C2518 C 0.92052 0.65526 0.58473 0.0
H2519 H 0.8903 0.64162 0.57697 0.0
C2520 C 0.9246 0.65875 0.56721 0.0
C2521 C 0.90801 0.64917 0.58837 0.0
C2522 C 0.9031 0.64582 0.60708 0.0
C2523 C 0.91653 0.65627 0.55319 0.0
C2524 C 0.90399 0.64983 0.55672 0.0
C2525 C 0.8999 0.64642 0.57426 0.0
C2526 C 0.89502 0.64693 0.54246 0.0
C2527 C 0.92155 0.66088 0.53484 0.0
C2528 C 0.88724 0.65142 0.54378 0.0
C2529 C 0.87926 0.64934 0.52989 0.0
C2530 C 0.87891 0.64272 0.51439 0.0
C2531 C 0.88642 0.63785 0.51343 0.0
C2532 C 0.89432 0.63987 0.52738 0.0
H2533 H 0.93117 0.66839 0.53543 0.0
H2534 H 0.92097 0.65326 0.52662 0.0
H2535 H 0.91635 0.66426 0.52803 0.0
H2536 H 0.88754 0.65679 0.55539 0.0
H2537 H 0.87346 0.65303 0.53124 0.0
H2538 H 0.93837 0.68531 0.69266 0.0
H2539 H 0.92975 0.69018 0.71836 0.0
H2540 H 0.94518 0.67588 0.75365 0.0
H2541 H 0.95397 0.6711 0.72805 0.0
H2542 H 0.91344 0.67416 0.74308 0.0
H2543 H 0.95589 0.70951 0.77619 0.0
H2544 H 0.95541 0.70441 0.75336 0.0
H2545 H 0.95519 0.69533 0.77147 0.0
C2546 C 0.94001 0.68327 0.70589 0.0
C2547 C 0.94689 0.67785 0.7083 0.0
C2548 C 0.93506 0.68605 0.72056 0.0
C2549 C 0.93696 0.68355 0.73791 0.0
C2550 C 0.94381 0.67812 0.74039 0.0
H2551 H 0.89621 0.67484 0.83373 0.0
H2552 H 0.90501 0.67221 0.80628 0.0
C2553 C 0.94877 0.67533 0.72573 0.0
C2554 C 0.93138 0.68616 0.75337 0.0
H2555 H 0.93783 0.7019 0.79319 0.0
C2556 C 0.91877 0.68028 0.75399 0.0
C2557 C 0.93837 0.69429 0.76745 0.0
C2558 C 0.95197 0.70135 0.76707 0.0
C2559 C 0.91293 0.68205 0.76856 0.0
C2560 C 0.91989 0.68976 0.783 0.0
C2561 C 0.93251 0.69591 0.78216 0.0
C2562 C 0.91424 0.69134 0.7993 0.0
C2563 C 0.89936 0.67571 0.76832 0.0
C2564 C 0.91667 0.703 0.80464 0.0
C2565 C 0.91164 0.70454 0.82034 0.0
C2566 C 0.90413 0.69444 0.83104 0.0
C2567 C 0.90173 0.68277 0.82561 0.0
C2568 C 0.90677 0.68125 0.80994 0.0
H2569 H 0.89571 0.67302 0.75453 0.0
H2570 H 0.89545 0.66725 0.77624 0.0
H2571 H 0.89635 0.68168 0.77433 0.0
H2572 H 0.92246 0.71092 0.79663 0.0
H2573 H 0.91359 0.71363 0.82407 0.0
H2574 H 0.31748 0.28244 0.72446 0.0
H2575 H 0.3139 0.26908 0.74962 0.0
H2576 H 0.34932 0.27455 0.74263 0.0
H2577 H 0.35304 0.28799 0.71763 0.0
H2578 H 0.31451 0.24721 0.75011 0.0
H2579 H 0.34863 0.28329 0.79567 0.0
H2580 H 0.34327 0.28681 0.77594 0.0
H2581 H 0.35437 0.28251 0.77407 0.0
C2582 C 0.32453 0.28084 0.72832 0.0
C2583 C 0.33558 0.28634 0.71911 0.0
C2584 C 0.32246 0.27319 0.74266 0.0
C2585 C 0.33141 0.27098 0.74811 0.0
C2586 C 0.34238 0.27633 0.73883 0.0
H2587 H 0.33917 0.22978 0.83075 0.0
H2588 H 0.34127 0.24169 0.80444 0.0
C2589 C 0.34447 0.28397 0.7245 0.0
C2590 C 0.32926 0.26296 0.76338 0.0
H2591 H 0.33984 0.26271 0.8047 0.0
C2592 C 0.31998 0.25059 0.76211 0.0
C2593 C 0.33643 0.26743 0.77898 0.0
C2594 C 0.34616 0.28076 0.78139 0.0
C2595 C 0.31788 0.24246 0.7759 0.0
C2596 C 0.32514 0.24691 0.79142 0.0
C2597 C 0.33433 0.25931 0.79273 0.0
C2598 C 0.32341 0.23891 0.80653 0.0
C2599 C 0.30813 0.22914 0.77356 0.0
C2600 C 0.31264 0.23335 0.81635 0.0
C2601 C 0.31142 0.22656 0.83141 0.0
C2602 C 0.321 0.22531 0.837 0.0
C2603 C 0.33168 0.2307 0.82691 0.0
C2604 C 0.33288 0.23746 0.81185 0.0
H2605 H 0.30547 0.22662 0.75933 0.0
H2606 H 0.31111 0.22309 0.77872 0.0
H2607 H 0.30003 0.22736 0.7812 0.0
H2608 H 0.30532 0.23456 0.81268 0.0
H2609 H 0.30315 0.22267 0.83906 0.0
H2610 H 0.70705 0.04989 0.72945 0.0
H2611 H 0.71936 0.0591 0.75626 0.0
H2612 H 0.75161 0.07516 0.72416 0.0
H2613 H 0.73938 0.06612 0.69722 0.0
H2614 H 0.73772 0.05603 0.76982 0.0
H2615 H 0.75505 0.10455 0.75304 0.0
H2616 H 0.74234 0.09183 0.74167 0.0
H2617 H 0.75742 0.09578 0.73621 0.0
C2618 C 0.71676 0.0554 0.72807 0.0
C2619 C 0.72223 0.05733 0.71118 0.0
C2620 C 0.72377 0.06064 0.74341 0.0
C2621 C 0.73637 0.06795 0.74215 0.0
C2622 C 0.74188 0.06974 0.72537 0.0
H2623 H 0.79138 0.10887 0.82371 0.0
H2624 H 0.78093 0.09898 0.79565 0.0
C2625 C 0.73488 0.06451 0.71 0.0
C2626 C 0.74371 0.0736 0.75846 0.0
H2627 H 0.76283 0.10114 0.7791 0.0
C2628 C 0.74322 0.06589 0.77187 0.0
C2629 C 0.7509 0.08646 0.76102 0.0
C2630 C 0.75142 0.09517 0.74731 0.0
C2631 C 0.74976 0.07071 0.7878 0.0
C2632 C 0.75679 0.08357 0.79048 0.0
C2633 C 0.75743 0.09128 0.77697 0.0
C2634 C 0.76316 0.08921 0.80752 0.0
C2635 C 0.74916 0.062 0.80156 0.0
C2636 C 0.75661 0.08706 0.82341 0.0
C2637 C 0.76253 0.09264 0.83942 0.0
C2638 C 0.77513 0.10056 0.83983 0.0
C2639 C 0.78168 0.10271 0.82386 0.0
C2640 C 0.77573 0.09713 0.80782 0.0
H2641 H 0.74625 0.05284 0.79556 0.0
H2642 H 0.75805 0.06567 0.80813 0.0
H2643 H 0.74251 0.06077 0.81198 0.0
H2644 H 0.74687 0.08115 0.82339 0.0
H2645 H 0.75724 0.0907 0.85151 0.0
H2646 H 0.01657 0.33949 0.04221 0.0
H2647 H 0.03315 0.33625 0.04769 0.0
H2648 H 0.05614 0.36602 0.01301 0.0
H2649 H 0.03961 0.36944 0.00756 0.0
H2650 H 0.04712 0.33116 0.02324 0.0
H2651 H 0.07482 0.37537 0.06066 0.0
H2652 H 0.05903 0.36897 0.05598 0.0
H2653 H 0.07005 0.37637 0.03869 0.0
C2654 C 0.02514 0.34535 0.0357 0.0
C2655 C 0.0268 0.3548 0.02456 0.0
C2656 C 0.03459 0.34345 0.03881 0.0
C2657 C 0.04589 0.35098 0.03091 0.0
C2658 C 0.04752 0.36023 0.01943 0.0
H2659 H 0.11338 0.35534 0.0564 0.0
H2660 H 0.09833 0.35761 0.04057 0.0
C2661 C 0.03806 0.36214 0.01631 0.0
C2662 C 0.056 0.34929 0.03518 0.0
H2663 H 0.08286 0.36275 0.05733 0.0
C2664 C 0.05499 0.33809 0.03058 0.0
C2665 C 0.06625 0.35837 0.0447 0.0
C2666 C 0.06763 0.37042 0.05045 0.0
C2667 C 0.06391 0.33567 0.03544 0.0
C2668 C 0.07398 0.3446 0.04546 0.0
C2669 C 0.07515 0.35593 0.04959 0.0
C2670 C 0.08298 0.34214 0.05298 0.0
C2671 C 0.06247 0.32357 0.02982 0.0
C2672 C 0.07934 0.33258 0.065 0.0
C2673 C 0.08791 0.33126 0.07403 0.0
C2674 C 0.1003 0.33957 0.07137 0.0
C2675 C 0.10391 0.34886 0.05883 0.0
C2676 C 0.09533 0.35014 0.04974 0.0
H2677 H 0.05675 0.31967 0.01769 0.0
H2678 H 0.07134 0.32455 0.02711 0.0
H2679 H 0.05798 0.31693 0.0407 0.0
H2680 H 0.06989 0.32649 0.06807 0.0
H2681 H 0.08484 0.32415 0.08384 0.0
H2682 H 0.6576 0.67879 0.0316 0.0
H2683 H 0.66224 0.69962 0.0378 0.0
H2684 H 0.62708 0.68971 0.01871 0.0
H2685 H 0.62229 0.66871 0.01242 0.0
H2686 H 0.66135 0.71647 0.01243 0.0
H2687 H 0.63027 0.70472 0.07053 0.0
H2688 H 0.63526 0.69467 0.06252 0.0
H2689 H 0.62432 0.69597 0.05006 0.0
C2690 C 0.65082 0.68099 0.02871 0.0
C2691 C 0.63954 0.67206 0.0216 0.0
C2692 C 0.65351 0.69292 0.03221 0.0
C2693 C 0.64498 0.69615 0.02882 0.0
C2694 C 0.63374 0.68734 0.02156 0.0
H2695 H 0.654 0.76639 0.06495 0.0
H2696 H 0.64538 0.74629 0.04988 0.0
C2697 C 0.63104 0.67537 0.01794 0.0
C2698 C 0.64795 0.70877 0.03315 0.0
H2699 H 0.64286 0.72556 0.06411 0.0
C2700 C 0.65721 0.71848 0.02358 0.0
C2701 C 0.64245 0.71132 0.0476 0.0
C2702 C 0.63256 0.70117 0.0584 0.0
C2703 C 0.6614 0.73072 0.02845 0.0
C2704 C 0.65638 0.73329 0.04354 0.0
C2705 C 0.64671 0.72357 0.05257 0.0
C2706 C 0.66176 0.74587 0.05122 0.0
C2707 C 0.67128 0.74078 0.01751 0.0
C2708 C 0.67379 0.75227 0.057 0.0
C2709 C 0.67871 0.76368 0.06562 0.0
C2710 C 0.67167 0.76893 0.06878 0.0
C2711 C 0.65964 0.76257 0.06279 0.0
C2712 C 0.65472 0.75112 0.05412 0.0
H2713 H 0.67117 0.7376 0.00354 0.0
H2714 H 0.67043 0.74897 0.01732 0.0
H2715 H 0.68015 0.74354 0.0234 0.0
H2716 H 0.67929 0.74824 0.0554 0.0
H2717 H 0.6879 0.76815 0.07043 0.0
H2718 H 0.33177 0.96546 0.99218 0.0
H2719 H 0.31179 0.94846 0.00079 0.0
H2720 H 0.31234 0.96922 0.04736 0.0
H2721 H 0.33224 0.98619 0.03896 0.0
H2722 H 0.30592 0.93583 0.03466 0.0
H2723 H 0.27939 0.95762 0.02274 0.0
H2724 H 0.29399 0.963 0.01273 0.0
H2725 H 0.2929 0.96692 0.03559 0.0
C2726 C 0.3276 0.96644 0.00419 0.0
C2727 C 0.33358 0.97719 0.01487 0.0
C2728 C 0.3162 0.95672 0.00908 0.0
C2729 C 0.31055 0.95768 0.02456 0.0
C2730 C 0.31648 0.9684 0.03519 0.0
H2731 H 0.25054 0.9171 0.09242 0.0
H2732 H 0.26785 0.93209 0.0752 0.0
C2733 C 0.32788 0.97806 0.03042 0.0
C2734 C 0.29871 0.94731 0.03022 0.0
H2735 H 0.27002 0.93969 0.04045 0.0
C2736 C 0.29799 0.93655 0.03568 0.0
C2737 C 0.28844 0.94835 0.03151 0.0
C2738 C 0.28864 0.95955 0.02519 0.0
C2739 C 0.2874 0.92701 0.04334 0.0
C2740 C 0.27722 0.92821 0.04517 0.0
C2741 C 0.27783 0.9388 0.03905 0.0
C2742 C 0.26621 0.91907 0.05474 0.0
C2743 C 0.28743 0.91605 0.05025 0.0
C2744 C 0.25937 0.90681 0.04874 0.0
C2745 C 0.24943 0.89818 0.05859 0.0
C2746 C 0.2461 0.90172 0.07449 0.0
C2747 C 0.25276 0.9141 0.08011 0.0
C2748 C 0.26269 0.92267 0.07033 0.0
H2749 H 0.2967 0.91777 0.05127 0.0
H2750 H 0.28311 0.91351 0.0636 0.0
H2751 H 0.28222 0.90812 0.04097 0.0
H2752 H 0.26177 0.90389 0.03653 0.0
H2753 H 0.24439 0.88874 0.05382 0.0
H2754 H 0.37126 0.04798 0.01924 0.0
H2755 H 0.36836 0.06509 0.014 0.0
H2756 H 0.33969 0.04244 0.97688 0.0
H2757 H 0.3424 0.02532 0.98215 0.0
H2758 H 0.37057 0.07625 0.98185 0.0
H2759 H 0.32443 0.05699 0.00854 0.0
H2760 H 0.33359 0.05064 0.01347 0.0
H2761 H 0.3254 0.04678 0.99275 0.0
C2762 C 0.36427 0.04662 0.01008 0.0
C2763 C 0.35705 0.03528 0.00114 0.0
C2764 C 0.36262 0.0564 0.00713 0.0
C2765 C 0.35366 0.05496 0.99532 0.0
C2766 C 0.34645 0.04365 0.9864 0.0
H2767 H 0.3322 0.09481 0.93466 0.0
H2768 H 0.33463 0.08004 0.95109 0.0
C2769 C 0.34809 0.0339 0.98932 0.0
C2770 C 0.3523 0.06545 0.99127 0.0
H2771 H 0.33135 0.07373 0.98832 0.0
C2772 C 0.36208 0.07583 0.98358 0.0
C2773 C 0.34121 0.06487 0.9936 0.0
C2774 C 0.3306 0.05427 0.00271 0.0
C2775 C 0.36085 0.08533 0.97715 0.0
C2776 C 0.34959 0.08446 0.97871 0.0
C2777 C 0.33996 0.07433 0.98711 0.0
C2778 C 0.34733 0.09338 0.97018 0.0
C2779 C 0.37141 0.09589 0.96787 0.0
C2780 C 0.35342 0.10572 0.97581 0.0
C2781 C 0.35198 0.11422 0.9665 0.0
C2782 C 0.3444 0.11048 0.95144 0.0
C2783 C 0.33796 0.098 0.94633 0.0
C2784 C 0.33939 0.08954 0.95565 0.0
H2785 H 0.37883 0.09418 0.96523 0.0
H2786 H 0.36852 0.09767 0.955 0.0
H2787 H 0.37502 0.1043 0.9764 0.0
H2788 H 0.35945 0.10882 0.98719 0.0
H2789 H 0.35693 0.12373 0.97094 0.0
H2790 H 0.97762 0.32925 0.99355 0.0
H2791 H 0.95966 0.30992 0.98424 0.0
H2792 H 0.93706 0.32305 0.00391 0.0
H2793 H 0.95499 0.34243 0.0134 0.0
H2794 H 0.92905 0.29768 0.01242 0.0
H2795 H 0.93926 0.3082 0.94052 0.0
H2796 H 0.95136 0.30935 0.95347 0.0
H2797 H 0.94628 0.31977 0.958 0.0
C2798 C 0.96884 0.32802 0.99602 0.0
C2799 C 0.96774 0.33743 0.00407 0.0
C2800 C 0.95859 0.31698 0.99065 0.0
C2801 C 0.94708 0.31515 0.9932 0.0
C2802 C 0.9459 0.32433 0.00179 0.0
H2803 H 0.88327 0.26165 0.93521 0.0
H2804 H 0.89881 0.28006 0.95085 0.0
C2805 C 0.95615 0.3354 0.00715 0.0
C2806 C 0.93632 0.30388 0.98618 0.0
H2807 H 0.92308 0.28836 0.94736 0.0
C2808 C 0.92769 0.29562 0.9982 0.0
C2809 C 0.93454 0.30134 0.96763 0.0
C2810 C 0.94328 0.31016 0.9541 0.0
C2811 C 0.9174 0.28472 0.99212 0.0
C2812 C 0.91581 0.28204 0.97357 0.0
C2813 C 0.92435 0.29042 0.96158 0.0
C2814 C 0.90538 0.27062 0.96613 0.0
C2815 C 0.90826 0.27625 0.00552 0.0
C2816 C 0.90379 0.25916 0.96978 0.0
C2817 C 0.89482 0.24857 0.96095 0.0
C2818 C 0.88734 0.24927 0.94824 0.0
C2819 C 0.88872 0.26073 0.94512 0.0
C2820 C 0.89766 0.27129 0.95394 0.0
H2821 H 0.90924 0.28099 0.01858 0.0
H2822 H 0.89894 0.27242 0.00051 0.0
H2823 H 0.90958 0.26849 0.00776 0.0
H2824 H 0.90977 0.25847 0.97893 0.0
H2825 H 0.89394 0.23988 0.96375 0.0
H2826 H 0.67548 0.63683 0.01439 0.0
H2827 H 0.69599 0.6412 0.00888 0.0
H2828 H 0.70692 0.67761 0.99235 0.0
H2829 H 0.68657 0.67336 0.99772 0.0
H2830 H 0.70855 0.64878 0.97487 0.0
H2831 H 0.73295 0.68291 0.02931 0.0
H2832 H 0.71684 0.67223 0.0297 0.0
H2833 H 0.72311 0.6858 0.0166 0.0
C2834 C 0.68229 0.6458 0.00973 0.0
C2835 C 0.6794 0.65475 0.00649 0.0
C2836 C 0.69398 0.64827 0.0066 0.0
C2837 C 0.70298 0.65978 0.00046 0.0
C2838 C 0.70015 0.66874 0.99739 0.0
H2839 H 0.7727 0.69996 0.95666 0.0
H2840 H 0.75335 0.69197 0.97167 0.0
C2841 C 0.68848 0.66626 0.00036 0.0
C2842 C 0.7152 0.66233 0.99615 0.0
H2843 H 0.74497 0.6825 0.00517 0.0
C2844 C 0.71654 0.65598 0.98167 0.0
C2845 C 0.72555 0.67173 0.00508 0.0
C2846 C 0.72458 0.6785 0.02115 0.0
C2847 C 0.728 0.65932 0.97515 0.0
C2848 C 0.73838 0.66908 0.98365 0.0
C2849 C 0.73702 0.67503 0.99867 0.0
C2850 C 0.75062 0.67405 0.9761 0.0
C2851 C 0.72887 0.65285 0.9586 0.0
C2852 C 0.75569 0.66673 0.97405 0.0
C2853 C 0.7668 0.6713 0.96543 0.0
C2854 C 0.77308 0.6833 0.95892 0.0
C2855 C 0.76819 0.69075 0.96172 0.0
C2856 C 0.75709 0.68617 0.97023 0.0
H2857 H 0.72006 0.64731 0.95167 0.0
H2858 H 0.73553 0.65956 0.94908 0.0
H2859 H 0.73193 0.64659 0.96239 0.0
H2860 H 0.75096 0.65744 0.97884 0.0
H2861 H 0.7704 0.6654 0.96367 0.0
H2862 H 0.97504 0.65421 0.96324 0.0
H2863 H 0.95908 0.6582 0.95682 0.0
H2864 H 0.94184 0.64225 0.00678 0.0
H2865 H 0.95789 0.6383 0.01346 0.0
H2866 H 0.93374 0.64163 0.9544 0.0
H2867 H 0.94657 0.67689 0.00859 0.0
H2868 H 0.95648 0.67177 0.0011 0.0
H2869 H 0.9438 0.6622 0.01505 0.0
C2870 C 0.96785 0.65151 0.97288 0.0
C2871 C 0.96778 0.646 0.98892 0.0
C2872 C 0.95872 0.65377 0.96916 0.0
C2873 C 0.94937 0.65064 0.98141 0.0
C2874 C 0.94909 0.64489 0.99727 0.0
H2875 H 0.88886 0.65865 0.94898 0.0
H2876 H 0.89978 0.6499 0.96228 0.0
C2877 C 0.95823 0.6426 0.00102 0.0
C2878 C 0.94011 0.65368 0.97751 0.0
H2879 H 0.93061 0.67313 0.98976 0.0
C2880 C 0.93291 0.64839 0.96225 0.0
C2881 C 0.93916 0.66257 0.98775 0.0
C2882 C 0.94695 0.66879 0.00398 0.0
C2883 C 0.92503 0.65203 0.9566 0.0
C2884 C 0.92425 0.6611 0.96663 0.0
C2885 C 0.93118 0.66611 0.98221 0.0
C2886 C 0.91734 0.66646 0.96009 0.0
C2887 C 0.91807 0.64662 0.93945 0.0
C2888 C 0.92356 0.67873 0.95498 0.0
C2889 C 0.91739 0.68373 0.94738 0.0
C2890 C 0.90483 0.67657 0.94483 0.0
C2891 C 0.89855 0.66436 0.95055 0.0
C2892 C 0.90476 0.65935 0.95816 0.0
H2893 H 0.92122 0.64127 0.93179 0.0
H2894 H 0.90838 0.6404 0.94259 0.0
H2895 H 0.9189 0.65396 0.93084 0.0
H2896 H 0.93328 0.68435 0.95631 0.0
H2897 H 0.92256 0.69309 0.94287 0.0
H2898 H 0.34433 0.33405 0.0072 0.0
H2899 H 0.33796 0.31264 0.0013 0.0
H2900 H 0.3703 0.32414 0.97066 0.0
H2901 H 0.37683 0.34563 0.97663 0.0
H2902 H 0.33382 0.30102 0.96784 0.0
H2903 H 0.36944 0.29903 0.00475 0.0
H2904 H 0.36649 0.31124 0.00823 0.0
H2905 H 0.37508 0.31131 0.98922 0.0
C2906 C 0.35015 0.33205 0.9993 0.0
C2907 C 0.36112 0.34156 0.9924 0.0
C2908 C 0.34648 0.3198 0.99596 0.0
C2909 C 0.35373 0.31681 0.98577 0.0
C2910 C 0.36469 0.32626 0.97887 0.0
H2911 H 0.34787 0.25273 0.93743 0.0
H2912 H 0.35411 0.27295 0.95001 0.0
C2913 C 0.36837 0.33853 0.98219 0.0
C2914 C 0.34952 0.30381 0.98158 0.0
H2915 H 0.35701 0.28208 0.98529 0.0
C2916 C 0.33881 0.29682 0.9718 0.0
C2917 C 0.35606 0.29839 0.9868 0.0
C2918 C 0.36735 0.30533 0.99797 0.0
C2919 C 0.33467 0.28466 0.96653 0.0
C2920 C 0.34132 0.27929 0.97149 0.0
C2921 C 0.35192 0.28622 0.98156 0.0
C2922 C 0.33782 0.26677 0.96536 0.0
C2923 C 0.32348 0.27782 0.95511 0.0
C2924 C 0.32671 0.25652 0.97024 0.0
C2925 C 0.3231 0.24489 0.96311 0.0
C2926 C 0.33061 0.24332 0.95109 0.0
C2927 C 0.34194 0.25356 0.94684 0.0
C2928 C 0.34551 0.26515 0.95394 0.0
H2929 H 0.32096 0.28407 0.94929 0.0
H2930 H 0.32477 0.27267 0.94405 0.0
H2931 H 0.31583 0.27112 0.96342 0.0
H2932 H 0.32074 0.25755 0.97932 0.0
H2933 H 0.31439 0.23716 0.96681 0.0
H2934 H 0.66376 0.0242 0.97841 0.0
H2935 H 0.68441 0.04008 0.97091 0.0
H2936 H 0.69378 0.04609 0.02679 0.0
H2937 H 0.67315 0.03012 0.03447 0.0
H2938 H 0.69815 0.06516 0.98185 0.0
H2939 H 0.71854 0.03879 0.00401 0.0
H2940 H 0.70254 0.03175 0.00041 0.0
H2941 H 0.70943 0.04086 0.02024 0.0
C2942 C 0.67019 0.02892 0.98914 0.0
C2943 C 0.66682 0.02583 0.00704 0.0
C2944 C 0.68198 0.038 0.98482 0.0
C2945 C 0.69064 0.04413 0.99828 0.0
C2946 C 0.68726 0.04132 0.01619 0.0
H2947 H 0.76217 0.10822 0.97502 0.0
H2948 H 0.74281 0.09459 0.9896 0.0
C2949 C 0.67545 0.03224 0.02054 0.0
C2950 C 0.70325 0.0533 0.99342 0.0
H2951 H 0.7318 0.05851 0.9929 0.0
C2952 C 0.70554 0.06378 0.98439 0.0
C2953 C 0.71282 0.05138 0.99663 0.0
C2954 C 0.71076 0.04005 0.00573 0.0
C2955 C 0.71715 0.07234 0.97824 0.0
C2956 C 0.72672 0.0704 0.98142 0.0
C2957 C 0.72446 0.06001 0.99067 0.0
C2958 C 0.7389 0.07851 0.97388 0.0
C2959 C 0.719 0.08312 0.96779 0.0
C2960 C 0.74327 0.07387 0.96069 0.0
C2961 C 0.75428 0.0816 0.95235 0.0
C2962 C 0.76119 0.09414 0.95711 0.0
C2963 C 0.75699 0.09865 0.97087 0.0
C2964 C 0.74595 0.09089 0.97921 0.0
H2965 H 0.71031 0.08203 0.96367 0.0
H2966 H 0.72393 0.09158 0.97619 0.0
H2967 H 0.72448 0.08436 0.95566 0.0
H2968 H 0.73795 0.06434 0.95639 0.0
H2969 H 0.75711 0.07783 0.94163 0.0
H2970 H 0.63435 0.96094 0.00085 0.0
H2971 H 0.64004 0.94583 0.00664 0.0
H2972 H 0.65083 0.96065 0.0601 0.0
H2973 H 0.6452 0.9757 0.05452 0.0
H2974 H 0.66834 0.95773 0.03854 0.0
H2975 H 0.62246 0.91569 0.04127 0.0
H2976 H 0.62599 0.92572 0.02272 0.0
H2977 H 0.62497 0.93087 0.04478 0.0
C2978 C 0.63786 0.96092 0.01387 0.0
C2979 C 0.63931 0.96952 0.02723 0.0
C2980 C 0.64107 0.95227 0.01716 0.0
C2981 C 0.64579 0.95211 0.03382 0.0
C2982 C 0.64718 0.96063 0.04716 0.0
H2983 H 0.65992 0.90587 0.09389 0.0
H2984 H 0.6521 0.91734 0.07999 0.0
C2985 C 0.64393 0.96921 0.04394 0.0
C2986 C 0.64964 0.94335 0.03738 0.0
H2987 H 0.63895 0.91337 0.04656 0.0
C2988 C 0.66196 0.948 0.04008 0.0
C2989 C 0.64124 0.93071 0.03946 0.0
C2990 C 0.6279 0.92537 0.03702 0.0
C2991 C 0.66609 0.94036 0.04523 0.0
C2992 C 0.65767 0.92774 0.04762 0.0
C2993 C 0.64537 0.92304 0.04456 0.0
C2994 C 0.66139 0.91959 0.05495 0.0
C2995 C 0.67936 0.94594 0.04886 0.0
C2996 C 0.66897 0.91678 0.04526 0.0
C2997 C 0.67339 0.91009 0.05312 0.0
C2998 C 0.67031 0.90612 0.07081 0.0
C2999 C 0.66234 0.90859 0.08017 0.0
C3000 C 0.6579 0.91522 0.07229 0.0
H3001 H 0.68438 0.95612 0.04904 0.0
H3002 H 0.68072 0.94285 0.06186 0.0
H3003 H 0.68329 0.94285 0.03828 0.0
H3004 H 0.67164 0.91996 0.03177 0.0
H3005 H 0.67936 0.90819 0.04544 0.0
H3006 H 0.01394 0.67676 0.03062 0.0
H3007 H 0.02943 0.69762 0.03955 0.0
H3008 H 0.05486 0.69572 0.00422 0.0
H3009 H 0.03926 0.67493 0.99477 0.0
H3010 H 0.05005 0.70492 0.05617 0.0
H3011 H 0.05991 0.72851 0.99154 0.0
H3012 H 0.04694 0.71336 0.99477 0.0
H3013 H 0.06155 0.71543 0.99075 0.0
C3014 C 0.02279 0.68081 0.02461 0.0
C3015 C 0.02537 0.6742 0.01197 0.0
C3016 C 0.03164 0.69275 0.02973 0.0
C3017 C 0.04327 0.69831 0.02238 0.0
C3018 C 0.04587 0.69174 0.00973 0.0
H3019 H 0.10492 0.75927 0.07623 0.0
H3020 H 0.0909 0.73977 0.06149 0.0
C3021 C 0.03697 0.67982 0.00445 0.0
C3022 C 0.05278 0.71069 0.02887 0.0
H3023 H 0.07339 0.7397 0.01555 0.0
C3024 C 0.05512 0.71253 0.04727 0.0
C3025 C 0.0593 0.72065 0.01728 0.0
C3026 C 0.05673 0.71946 0.99751 0.0
C3027 C 0.06382 0.724 0.05444 0.0
C3028 C 0.07066 0.73386 0.04281 0.0
C3029 C 0.06826 0.73209 0.0244 0.0
C3030 C 0.08011 0.74613 0.04967 0.0
C3031 C 0.06537 0.72551 0.07446 0.0
C3032 C 0.07913 0.75639 0.04703 0.0
C3033 C 0.08735 0.76769 0.0551 0.0
C3034 C 0.09668 0.76894 0.06601 0.0
C3035 C 0.09795 0.75875 0.06782 0.0
C3036 C 0.08982 0.74751 0.05961 0.0
H3037 H 0.05731 0.71826 0.08152 0.0
H3038 H 0.07319 0.72482 0.07834 0.0
H3039 H 0.06707 0.73459 0.07911 0.0
H3040 H 0.07177 0.75555 0.03923 0.0
H3041 H 0.08623 0.77539 0.0531 0.0
H3042 H 0.32856 0.37725 0.01571 0.0
H3043 H 0.30839 0.37319 0.02314 0.0
H3044 H 0.30084 0.34111 0.05177 0.0
H3045 H 0.32092 0.34516 0.04472 0.0
H3046 H 0.2855 0.35258 0.01572 0.0
H3047 H 0.29355 0.36042 0.08858 0.0
H3048 H 0.30564 0.36509 0.07267 0.0
H3049 H 0.29696 0.34943 0.07968 0.0
C3050 C 0.32261 0.36936 0.02364 0.0
C3051 C 0.32639 0.36159 0.02978 0.0
C3052 C 0.31109 0.36704 0.02783 0.0
C3053 C 0.30322 0.35698 0.03825 0.0
C3054 C 0.30688 0.34909 0.04404 0.0
H3055 H 0.22668 0.3172 0.05408 0.0
H3056 H 0.24703 0.32587 0.04214 0.0
C3057 C 0.31836 0.3514 0.03994 0.0
C3058 C 0.29113 0.35459 0.04315 0.0
H3059 H 0.27299 0.34987 0.07908 0.0
C3060 C 0.28277 0.35213 0.02956 0.0
C3061 C 0.28767 0.35422 0.0612 0.0
C3062 C 0.29646 0.35756 0.07637 0.0
C3063 C 0.27087 0.34878 0.03359 0.0
C3064 C 0.26722 0.34767 0.05167 0.0
C3065 C 0.27574 0.35062 0.06521 0.0
C3066 C 0.25456 0.34304 0.05705 0.0
C3067 C 0.26235 0.34651 0.01846 0.0
C3068 C 0.252 0.34976 0.06946 0.0
C3069 C 0.24045 0.3447 0.07666 0.0
C3070 C 0.23116 0.33281 0.07155 0.0
C3071 C 0.23363 0.32632 0.05848 0.0
C3072 C 0.24523 0.33135 0.05142 0.0
H3073 H 0.26733 0.35157 0.00637 0.0
H3074 H 0.25723 0.33658 0.01488 0.0
H3075 H 0.25582 0.34927 0.02227 0.0
H3076 H 0.25907 0.35877 0.07409 0.0
H3077 H 0.239 0.34992 0.0869 0.0
H3078 H 0.68184 0.67187 0.37474 0.0
H3079 H 0.69726 0.66701 0.38074 0.0
H3080 H 0.72392 0.70003 0.35479 0.0
H3081 H 0.7085 0.70501 0.34863 0.0
H3082 H 0.7132 0.66488 0.35347 0.0
H3083 H 0.7375 0.70085 0.4064 0.0
H3084 H 0.72207 0.69545 0.40041 0.0
H3085 H 0.7341 0.70527 0.38568 0.0
C3086 C 0.69097 0.67814 0.37031 0.0
C3087 C 0.69395 0.68886 0.36126 0.0
C3088 C 0.69976 0.67532 0.37371 0.0
C3089 C 0.71171 0.68319 0.36828 0.0
C3090 C 0.71475 0.69389 0.35919 0.0
H3091 H 0.77226 0.67561 0.39966 0.0
H3092 H 0.76079 0.68329 0.38508 0.0
C3093 C 0.70593 0.6967 0.35567 0.0
C3094 C 0.72089 0.68008 0.37226 0.0
H3095 H 0.74405 0.68715 0.40066 0.0
C3096 C 0.72004 0.66981 0.36364 0.0
C3097 C 0.72984 0.68662 0.38541 0.0
C3098 C 0.73099 0.69764 0.39514 0.0
C3099 C 0.72775 0.6657 0.36817 0.0
C3100 C 0.7363 0.67184 0.382 0.0
C3101 C 0.73747 0.68243 0.39008 0.0
C3102 C 0.74339 0.66687 0.38934 0.0
C3103 C 0.72659 0.65475 0.35816 0.0
C3104 C 0.73742 0.65512 0.39657 0.0
C3105 C 0.74391 0.65072 0.40488 0.0
C3106 C 0.75654 0.65804 0.40631 0.0
C3107 C 0.76254 0.66977 0.39884 0.0
C3108 C 0.75601 0.67415 0.39046 0.0
H3109 H 0.72289 0.65385 0.34453 0.0
H3110 H 0.73542 0.6554 0.35703 0.0
H3111 H 0.72026 0.64629 0.36541 0.0
H3112 H 0.72767 0.64947 0.39634 0.0
H3113 H 0.73898 0.64178 0.41084 0.0
H3114 H 0.31438 0.0077 0.37649 0.0
H3115 H 0.3198 0.02873 0.3831 0.0
H3116 H 0.31786 0.03447 0.32706 0.0
H3117 H 0.31269 0.01346 0.32025 0.0
H3118 H 0.33806 0.05311 0.34216 0.0
H3119 H 0.29886 0.04334 0.38399 0.0
H3120 H 0.30616 0.03577 0.39206 0.0
H3121 H 0.29915 0.03167 0.37036 0.0
C3122 C 0.31499 0.01338 0.36556 0.0
C3123 C 0.31306 0.00889 0.34784 0.0
C3124 C 0.31801 0.02539 0.36939 0.0
C3125 C 0.319 0.0331 0.35561 0.0
C3126 C 0.31706 0.02864 0.3379 0.0
H3127 H 0.32965 0.10428 0.3889 0.0
H3128 H 0.32168 0.08458 0.37292 0.0
C3129 C 0.3141 0.01664 0.33404 0.0
C3130 C 0.3227 0.046 0.35973 0.0
H3131 H 0.31648 0.06361 0.38726 0.0
C3132 C 0.33324 0.05542 0.35182 0.0
C3133 C 0.31628 0.04904 0.37203 0.0
C3134 C 0.30441 0.03941 0.37994 0.0
C3135 C 0.33789 0.06777 0.35664 0.0
C3136 C 0.33199 0.07072 0.37002 0.0
C3137 C 0.32109 0.06135 0.37717 0.0
C3138 C 0.33735 0.0833 0.37773 0.0
C3139 C 0.34912 0.0775 0.34742 0.0
C3140 C 0.34883 0.08916 0.38561 0.0
C3141 C 0.35341 0.10041 0.39463 0.0
C3142 C 0.34653 0.10594 0.3962 0.0
C3143 C 0.33513 0.1002 0.38797 0.0
C3144 C 0.33059 0.08898 0.37881 0.0
H3145 H 0.34993 0.07439 0.33378 0.0
H3146 H 0.3492 0.08618 0.34642 0.0
H3147 H 0.35715 0.07937 0.35515 0.0
H3148 H 0.35406 0.08481 0.38544 0.0
H3149 H 0.3621 0.10447 0.40114 0.0
H3150 H 0.99143 0.31385 0.32273 0.0
H3151 H 0.97155 0.29633 0.33045 0.0
H3152 H 0.98518 0.29474 0.38184 0.0
H3153 H 0.00503 0.31205 0.37422 0.0
H3154 H 0.97134 0.2718 0.36448 0.0
H3155 H 0.94804 0.29792 0.3662 0.0
H3156 H 0.9559 0.29866 0.34592 0.0
H3157 H 0.96426 0.30539 0.36617 0.0
C3158 C 0.99019 0.30975 0.33566 0.0
C3159 C 0.9998 0.31439 0.3479 0.0
C3160 C 0.97882 0.29978 0.34007 0.0
C3161 C 0.97687 0.29435 0.35679 0.0
C3162 C 0.9865 0.29882 0.36887 0.0
H3163 H 0.91763 0.25227 0.42473 0.0
H3164 H 0.93463 0.26772 0.40756 0.0
C3165 C 0.99783 0.30875 0.36449 0.0
C3166 C 0.96483 0.28406 0.36201 0.0
H3167 H 0.93645 0.27704 0.3733 0.0
C3168 C 0.96365 0.27287 0.36621 0.0
C3169 C 0.95488 0.28557 0.36436 0.0
C3170 C 0.95578 0.29754 0.36057 0.0
C3171 C 0.95288 0.26323 0.37324 0.0
C3172 C 0.94297 0.26479 0.37584 0.0
C3173 C 0.94404 0.27586 0.37114 0.0
C3174 C 0.93191 0.25555 0.38515 0.0
C3175 C 0.95239 0.25169 0.37864 0.0
C3176 C 0.92454 0.24364 0.37803 0.0
C3177 C 0.91475 0.23475 0.38783 0.0
C3178 C 0.91212 0.23766 0.40485 0.0
C3179 C 0.91927 0.24974 0.41158 0.0
C3180 C 0.92904 0.25859 0.40181 0.0
H3181 H 0.96147 0.25287 0.37883 0.0
H3182 H 0.94829 0.24885 0.39208 0.0
H3183 H 0.94671 0.24417 0.36899 0.0
H3184 H 0.92649 0.24118 0.36504 0.0
H3185 H 0.90932 0.22557 0.38218 0.0
H3186 H 0.00776 0.36295 0.36528 0.0
H3187 H 0.00379 0.37855 0.35512 0.0
H3188 H 0.03678 0.39528 0.3247 0.0
H3189 H 0.04074 0.37965 0.33452 0.0
H3190 H 0.01723 0.4045 0.3575 0.0
H3191 H 0.01086 0.38743 0.28724 0.0
H3192 H 0.01121 0.37878 0.30563 0.0
H3193 H 0.02502 0.39119 0.29674 0.0
C3194 C 0.01422 0.36999 0.35653 0.0
C3195 C 0.02449 0.36997 0.35054 0.0
C3196 C 0.01194 0.3789 0.35076 0.0
C3197 C 0.01988 0.38791 0.33891 0.0
C3198 C 0.03041 0.38824 0.33356 0.0
H3199 H 0.02127 0.44523 0.27938 0.0
H3200 H 0.02613 0.43197 0.2953 0.0
C3201 C 0.03268 0.37933 0.33924 0.0
C3202 C 0.01696 0.3967 0.33158 0.0
H3203 H 0.0116 0.40614 0.29247 0.0
C3204 C 0.01595 0.40485 0.3433 0.0
C3205 C 0.01519 0.39704 0.31306 0.0
C3206 C 0.01551 0.38807 0.29993 0.0
C3207 C 0.01355 0.41359 0.33688 0.0
C3208 C 0.01202 0.41407 0.31834 0.0
C3209 C 0.01288 0.40581 0.30668 0.0
C3210 C 0.00958 0.42307 0.31053 0.0
C3211 C 0.01296 0.42244 0.3499 0.0
C3212 C 0.99871 0.42257 0.31401 0.0
C3213 C 0.99592 0.43022 0.30499 0.0
C3214 C 0.00395 0.43847 0.2923 0.0
C3215 C 0.01498 0.43916 0.28928 0.0
C3216 C 0.01774 0.43152 0.29827 0.0
H3217 H 0.01687 0.42262 0.36308 0.0
H3218 H 0.01781 0.43186 0.34457 0.0
H3219 H 0.00339 0.41962 0.35196 0.0
H3220 H 0.99221 0.41597 0.32323 0.0
H3221 H 0.98738 0.4295 0.30767 0.0
H3222 H 0.63059 0.66406 0.36753 0.0
H3223 H 0.61453 0.64327 0.35889 0.0
H3224 H 0.6301 0.64801 0.30637 0.0
H3225 H 0.64608 0.66882 0.31475 0.0
H3226 H 0.60495 0.63727 0.30621 0.0
H3227 H 0.61929 0.61402 0.35267 0.0
H3228 H 0.61654 0.62523 0.36273 0.0
H3229 H 0.62882 0.63001 0.34734 0.0
C3230 C 0.63058 0.6607 0.35412 0.0
C3231 C 0.63966 0.66807 0.34186 0.0
C3232 C 0.62143 0.6488 0.34924 0.0
C3233 C 0.62124 0.64406 0.33208 0.0
C3234 C 0.63012 0.65149 0.3197 0.0
H3235 H 0.58958 0.57232 0.28603 0.0
H3236 H 0.60207 0.59238 0.3005 0.0
C3237 C 0.63925 0.66338 0.32454 0.0
C3238 C 0.6119 0.63131 0.32693 0.0
H3239 H 0.60201 0.60137 0.33516 0.0
C3240 C 0.60422 0.6294 0.31262 0.0
C3241 C 0.61108 0.62109 0.33525 0.0
C3242 C 0.61942 0.62262 0.35026 0.0
C3243 C 0.59585 0.61755 0.30617 0.0
C3244 C 0.59504 0.60733 0.31446 0.0
C3245 C 0.60259 0.60922 0.32897 0.0
C3246 C 0.58716 0.59469 0.30726 0.0
C3247 C 0.5883 0.61607 0.29008 0.0
C3248 C 0.57459 0.58919 0.30672 0.0
C3249 C 0.56738 0.57765 0.2985 0.0
C3250 C 0.57264 0.5714 0.29079 0.0
C3251 C 0.58521 0.57677 0.29204 0.0
C3252 C 0.59238 0.58828 0.30022 0.0
H3253 H 0.5917 0.62488 0.28318 0.0
H3254 H 0.58812 0.60928 0.28037 0.0
H3255 H 0.5789 0.61268 0.2944 0.0
H3256 H 0.57037 0.5939 0.31238 0.0
H3257 H 0.55772 0.5737 0.29797 0.0
H3258 H 0.33503 0.96793 0.32942 0.0
H3259 H 0.35408 0.97035 0.31959 0.0
H3260 H 0.37335 0.00035 0.35733 0.0
H3261 H 0.35425 0.99795 0.36742 0.0
H3262 H 0.37375 0.99242 0.30514 0.0
H3263 H 0.38683 0.97763 0.36568 0.0
H3264 H 0.37154 0.97374 0.36181 0.0
H3265 H 0.38281 0.98903 0.36873 0.0
C3266 C 0.34329 0.97499 0.33577 0.0
C3267 C 0.34311 0.98276 0.3492 0.0
C3268 C 0.35417 0.97636 0.33012 0.0
C3269 C 0.36509 0.98546 0.33783 0.0
C3270 C 0.36499 0.99315 0.3514 0.0
H3271 H 0.43674 0.00046 0.30357 0.0
H3272 H 0.4212 0.00226 0.31986 0.0
C3273 C 0.35407 0.9918 0.35708 0.0
C3274 C 0.37655 0.98717 0.33086 0.0
H3275 H 0.39975 0.98307 0.34076 0.0
C3276 C 0.3795 0.9905 0.31298 0.0
C3277 C 0.38408 0.98476 0.34119 0.0
C3278 C 0.38119 0.98102 0.3604 0.0
C3279 C 0.38956 0.99109 0.30497 0.0
C3280 C 0.39676 0.9881 0.31502 0.0
C3281 C 0.39417 0.98532 0.33313 0.0
C3282 C 0.40623 0.98669 0.30635 0.0
C3283 C 0.39229 0.99465 0.28565 0.0
C3284 C 0.40291 0.97719 0.29374 0.0
C3285 C 0.41168 0.97615 0.28445 0.0
C3286 C 0.42401 0.98456 0.28765 0.0
C3287 C 0.42733 0.99389 0.30072 0.0
C3288 C 0.41849 0.9949 0.31007 0.0
H3289 H 0.38798 0.9997 0.28128 0.0
H3290 H 0.40216 0.00043 0.28339 0.0
H3291 H 0.38873 0.98623 0.27716 0.0
H3292 H 0.39348 0.97071 0.29079 0.0
H3293 H 0.40877 0.96899 0.27429 0.0
H3294 H 0.64233 0.97714 0.29531 0.0
H3295 H 0.62473 0.97875 0.29004 0.0
H3296 H 0.61588 0.97364 0.34603 0.0
H3297 H 0.63351 0.97198 0.3515 0.0
H3298 H 0.59948 0.96005 0.29975 0.0
H3299 H 0.61703 0.00616 0.33155 0.0
H3300 H 0.62691 0.00103 0.32384 0.0
H3301 H 0.61824 0.99491 0.34379 0.0
C3302 C 0.63667 0.97637 0.30654 0.0
C3303 C 0.63933 0.97444 0.32383 0.0
C3304 C 0.62661 0.97729 0.30348 0.0
C3305 C 0.6191 0.97641 0.31767 0.0
C3306 C 0.62167 0.97446 0.33496 0.0
H3307 H 0.54892 0.96821 0.29688 0.0
H3308 H 0.56477 0.96676 0.31184 0.0
C3309 C 0.6317 0.97346 0.33802 0.0
C3310 C 0.60846 0.97733 0.31411 0.0
H3311 H 0.59785 0.99668 0.31808 0.0
C3312 C 0.59902 0.96797 0.30394 0.0
C3313 C 0.608 0.98773 0.31954 0.0
C3314 C 0.61808 0.99811 0.33022 0.0
C3315 C 0.5892 0.96885 0.29866 0.0
C3316 C 0.58882 0.97934 0.30383 0.0
C3317 C 0.59815 0.98861 0.31432 0.0
C3318 C 0.57938 0.98131 0.29693 0.0
C3319 C 0.57957 0.95881 0.28694 0.0
C3320 C 0.58243 0.99028 0.28414 0.0
C3321 C 0.57343 0.99108 0.2755 0.0
C3322 C 0.56119 0.98296 0.27957 0.0
C3323 C 0.55824 0.97446 0.29322 0.0
C3324 C 0.56726 0.97365 0.30181 0.0
H3325 H 0.58216 0.95226 0.28193 0.0
H3326 H 0.57111 0.95362 0.2947 0.0
H3327 H 0.57769 0.96277 0.27532 0.0
H3328 H 0.59174 0.99626 0.28017 0.0
H3329 H 0.57606 0.99762 0.26492 0.0
H3330 H 0.0438 0.67582 0.34898 0.0
H3331 H 0.04182 0.65662 0.33845 0.0
H3332 H 0.00878 0.64671 0.31137 0.0
H3333 H 0.01078 0.66599 0.32156 0.0
H3334 H 0.02361 0.63208 0.34283 0.0
H3335 H 0.02964 0.64497 0.27154 0.0
H3336 H 0.03287 0.65589 0.28953 0.0
H3337 H 0.01757 0.64549 0.28251 0.0
C3338 C 0.03609 0.66955 0.34083 0.0
C3339 C 0.02752 0.6725 0.33595 0.0
C3340 C 0.03496 0.65857 0.33486 0.0
C3341 C 0.02526 0.65034 0.32391 0.0
C3342 C 0.01646 0.65305 0.31952 0.0
H3343 H 0.00437 0.57569 0.29263 0.0
H3344 H 0.00573 0.59363 0.30744 0.0
C3345 C 0.0176 0.66406 0.32542 0.0
C3346 C 0.02456 0.63912 0.31666 0.0
H3347 H 0.02454 0.62477 0.27766 0.0
C3348 C 0.02382 0.63046 0.32859 0.0
C3349 C 0.025 0.63713 0.29808 0.0
C3350 C 0.02642 0.6464 0.28465 0.0
C3351 C 0.0234 0.61979 0.3224 0.0
C3352 C 0.02356 0.61768 0.3038 0.0
C3353 C 0.02436 0.62638 0.29191 0.0
C3354 C 0.02313 0.60665 0.29623 0.0
C3355 C 0.02305 0.611 0.3358 0.0
C3356 C 0.03242 0.60802 0.28497 0.0
C3357 C 0.03159 0.59783 0.27628 0.0
C3358 C 0.02142 0.58603 0.27866 0.0
C3359 C 0.01228 0.58465 0.29039 0.0
C3360 C 0.0131 0.59488 0.29903 0.0
H3361 H 0.0261 0.61542 0.34922 0.0
H3362 H 0.01365 0.60315 0.33706 0.0
H3363 H 0.02879 0.60737 0.33142 0.0
H3364 H 0.04021 0.61703 0.28254 0.0
H3365 H 0.0387 0.59931 0.26711 0.0
H3366 H 0.34065 0.36951 0.36467 0.0
H3367 H 0.36065 0.38632 0.35604 0.0
H3368 H 0.35418 0.37215 0.30186 0.0
H3369 H 0.33413 0.35546 0.31025 0.0
H3370 H 0.37933 0.38467 0.3425 0.0
H3371 H 0.36645 0.40821 0.29482 0.0
H3372 H 0.35582 0.397 0.31017 0.0
H3373 H 0.35954 0.39216 0.28961 0.0
C3374 C 0.34343 0.37003 0.35087 0.0
C3375 C 0.33578 0.36115 0.33814 0.0
C3376 C 0.35486 0.37964 0.34598 0.0
C3377 C 0.35883 0.3806 0.32826 0.0
C3378 C 0.3512 0.37177 0.31552 0.0
H3379 H 0.42863 0.41175 0.28283 0.0
H3380 H 0.40919 0.39945 0.29746 0.0
C3381 C 0.33976 0.36217 0.32038 0.0
C3382 C 0.37119 0.39039 0.32325 0.0
H3383 H 0.38692 0.413 0.29318 0.0
C3384 C 0.381 0.39098 0.33188 0.0
C3385 C 0.37336 0.39875 0.30961 0.0
C3386 C 0.36323 0.39911 0.30064 0.0
C3387 C 0.3929 0.3993 0.32663 0.0
C3388 C 0.39503 0.40708 0.31216 0.0
C3389 C 0.38526 0.40693 0.30414 0.0
C3390 C 0.4072 0.41481 0.30437 0.0
C3391 C 0.40309 0.39959 0.3365 0.0
C3392 C 0.41248 0.42754 0.30314 0.0
C3393 C 0.42367 0.43465 0.29477 0.0
C3394 C 0.42973 0.42912 0.28739 0.0
C3395 C 0.42439 0.41636 0.28875 0.0
C3396 C 0.41325 0.4093 0.2971 0.0
H3397 H 0.40037 0.39614 0.35027 0.0
H3398 H 0.40564 0.39359 0.32934 0.0
H3399 H 0.41115 0.40902 0.33726 0.0
H3400 H 0.40791 0.43196 0.30857 0.0
H3401 H 0.42755 0.44445 0.29401 0.0
H3402 H 0.30424 0.29513 0.33677 0.0
H3403 H 0.30868 0.27923 0.34329 0.0
H3404 H 0.31913 0.29393 0.39688 0.0
H3405 H 0.31463 0.30974 0.39059 0.0
H3406 H 0.33078 0.28267 0.35372 0.0
H3407 H 0.29574 0.25727 0.40478 0.0
H3408 H 0.29521 0.26789 0.38996 0.0
H3409 H 0.30462 0.27345 0.40954 0.0
C3410 C 0.30738 0.29491 0.35 0.0
C3411 C 0.30905 0.30369 0.36319 0.0
C3412 C 0.30992 0.28582 0.35368 0.0
C3413 C 0.31406 0.28529 0.37064 0.0
C3414 C 0.3157 0.29401 0.38382 0.0
H3415 H 0.35676 0.2587 0.40963 0.0
H3416 H 0.34849 0.2698 0.39594 0.0
C3417 C 0.31319 0.3031 0.38016 0.0
C3418 C 0.31729 0.27605 0.37439 0.0
H3419 H 0.31217 0.25381 0.40367 0.0
C3420 C 0.3266 0.27623 0.36448 0.0
C3421 C 0.3117 0.26753 0.38823 0.0
C3422 C 0.30118 0.26641 0.39863 0.0
C3423 C 0.3309 0.26856 0.36866 0.0
C3424 C 0.32585 0.26063 0.38328 0.0
C3425 C 0.31611 0.25998 0.39257 0.0
C3426 C 0.3311 0.25363 0.39 0.0
C3427 C 0.34092 0.26913 0.35754 0.0
C3428 C 0.32404 0.24083 0.39133 0.0
C3429 C 0.32878 0.2344 0.39912 0.0
C3430 C 0.34063 0.24069 0.40586 0.0
C3431 C 0.34771 0.25351 0.40422 0.0
C3432 C 0.34298 0.25989 0.39641 0.0
H3433 H 0.34115 0.27256 0.34397 0.0
H3434 H 0.3497 0.27554 0.36409 0.0
H3435 H 0.33993 0.25999 0.35625 0.0
H3436 H 0.31482 0.23583 0.38655 0.0
H3437 H 0.32311 0.22453 0.40005 0.0
H3438 H 0.69135 0.00605 0.372 0.0
H3439 H 0.70692 0.02697 0.38046 0.0
H3440 H 0.72071 0.03323 0.32662 0.0
H3441 H 0.70491 0.01235 0.3179 0.0
H3442 H 0.73103 0.0376 0.37982 0.0
H3443 H 0.71744 0.06267 0.33596 0.0
H3444 H 0.7079 0.04645 0.33975 0.0
H3445 H 0.7203 0.052 0.32435 0.0
C3446 C 0.69766 0.01187 0.36192 0.0
C3447 C 0.69686 0.00754 0.34425 0.0
C3448 C 0.70656 0.02384 0.36678 0.0
C3449 C 0.71488 0.03173 0.35412 0.0
C3450 C 0.71422 0.0274 0.33651 0.0
H3451 H 0.78018 0.09873 0.39149 0.0
H3452 H 0.76658 0.07938 0.37559 0.0
C3453 C 0.70523 0.01544 0.33158 0.0
C3454 C 0.72442 0.04433 0.35968 0.0
H3455 H 0.73548 0.07465 0.35251 0.0
C3456 C 0.73203 0.04571 0.37381 0.0
C3457 C 0.72562 0.05488 0.35191 0.0
C3458 C 0.71732 0.05398 0.33726 0.0
C3459 C 0.7407 0.05733 0.38061 0.0
C3460 C 0.74205 0.0679 0.37268 0.0
C3461 C 0.73452 0.06654 0.3584 0.0
C3462 C 0.75064 0.08038 0.3799 0.0
C3463 C 0.74799 0.05812 0.39668 0.0
C3464 C 0.74632 0.08771 0.38664 0.0
C3465 C 0.7541 0.09884 0.39546 0.0
C3466 C 0.76632 0.1028 0.39775 0.0
C3467 C 0.77076 0.09579 0.39011 0.0
C3468 C 0.763 0.08473 0.38111 0.0
H3469 H 0.74378 0.04929 0.40376 0.0
H3470 H 0.75711 0.06045 0.39228 0.0
H3471 H 0.74903 0.06536 0.40629 0.0
H3472 H 0.73682 0.08455 0.38579 0.0
H3473 H 0.75042 0.10401 0.40132 0.0
H3474 H 0.99314 0.70579 0.36442 0.0
H3475 H 0.97306 0.70027 0.37479 0.0
H3476 H 0.95691 0.6718 0.33408 0.0
H3477 H 0.97696 0.67739 0.32338 0.0
H3478 H 0.94517 0.68484 0.33855 0.0
H3479 H 0.95216 0.6692 0.40328 0.0
H3480 H 0.96331 0.68479 0.39824 0.0
H3481 H 0.96214 0.67249 0.38452 0.0
C3482 C 0.98533 0.69841 0.35757 0.0
C3483 C 0.98665 0.69193 0.34319 0.0
C3484 C 0.97386 0.69525 0.36356 0.0
C3485 C 0.96351 0.68548 0.35541 0.0
C3486 C 0.96479 0.67933 0.3406 0.0
H3487 H 0.89358 0.64221 0.40336 0.0
H3488 H 0.91277 0.64989 0.3881 0.0
C3489 C 0.97626 0.68252 0.33453 0.0
C3490 C 0.95138 0.68127 0.36283 0.0
H3491 H 0.93411 0.66913 0.40003 0.0
C3492 C 0.94272 0.68141 0.35199 0.0
C3493 C 0.94819 0.67665 0.38029 0.0
C3494 C 0.95688 0.67564 0.39223 0.0
C3495 C 0.93096 0.6771 0.35821 0.0
C3496 C 0.92786 0.67271 0.37579 0.0
C3497 C 0.93653 0.67257 0.38659 0.0
C3498 C 0.9156 0.6678 0.38323 0.0
C3499 C 0.92188 0.677 0.34577 0.0
C3500 C 0.91071 0.67527 0.38534 0.0
C3501 C 0.89959 0.67082 0.39387 0.0
C3502 C 0.89321 0.65887 0.40059 0.0
C3503 C 0.89807 0.65137 0.39807 0.0
C3504 C 0.90912 0.65579 0.38949 0.0
H3505 H 0.92475 0.67775 0.3316 0.0
H3506 H 0.91291 0.6685 0.34721 0.0
H3507 H 0.92091 0.68494 0.34914 0.0
H3508 H 0.91564 0.68464 0.38088 0.0
H3509 H 0.89608 0.67682 0.39546 0.0
H3510 H 0.3706 0.04003 0.69907 0.0
H3511 H 0.38589 0.03617 0.71014 0.0
H3512 H 0.37437 0.00652 0.6716 0.0
H3513 H 0.35923 0.01045 0.66021 0.0
H3514 H 0.38167 0.01541 0.72535 0.0
H3515 H 0.41068 0.02463 0.6659 0.0
H3516 H 0.39986 0.0294 0.66768 0.0
H3517 H 0.39504 0.01384 0.66131 0.0
C3518 C 0.37142 0.03279 0.69278 0.0
C3519 C 0.36369 0.02554 0.67875 0.0
C3520 C 0.38017 0.0306 0.69912 0.0
C3521 C 0.38139 0.02117 0.69155 0.0
C3522 C 0.3738 0.01404 0.67738 0.0
H3523 H 0.40853 0.98122 0.74338 0.0
H3524 H 0.39673 0.98818 0.72836 0.0
C3525 C 0.36508 0.01625 0.67097 0.0
C3526 C 0.38991 0.01815 0.6994 0.0
H3527 H 0.41302 0.01365 0.68938 0.0
C3528 C 0.3886 0.01514 0.71751 0.0
C3529 C 0.39903 0.01793 0.68923 0.0
C3530 C 0.40134 0.02174 0.67 0.0
C3531 C 0.39591 0.01157 0.7256 0.0
C3532 C 0.40462 0.01074 0.7152 0.0
C3533 C 0.40622 0.01413 0.69724 0.0
C3534 C 0.412 0.00622 0.7228 0.0
C3535 C 0.39428 0.00876 0.74524 0.0
C3536 C 0.42459 0.01387 0.72395 0.0
C3537 C 0.43142 0.00984 0.73232 0.0
C3538 C 0.42578 0.99807 0.73961 0.0
C3539 C 0.41321 0.99028 0.73777 0.0
C3540 C 0.40642 0.9943 0.72938 0.0
H3541 H 0.38975 0.01304 0.75221 0.0
H3542 H 0.38857 0.9987 0.74686 0.0
H3543 H 0.40309 0.01204 0.75184 0.0
H3544 H 0.42908 0.02306 0.71879 0.0
H3545 H 0.44109 0.016 0.73329 0.0
H3546 H 0.9786 0.33729 0.7063 0.0
H3547 H 0.98047 0.35706 0.71196 0.0
H3548 H 0.99891 0.37011 0.66174 0.0
H3549 H 0.99729 0.35036 0.65608 0.0
H3550 H 0.01008 0.38692 0.68911 0.0
H3551 H 0.9613 0.36987 0.68882 0.0
H3552 H 0.96488 0.36166 0.70408 0.0
H3553 H 0.96727 0.36075 0.68051 0.0
C3554 C 0.98301 0.34432 0.69639 0.0
C3555 C 0.98774 0.34222 0.68069 0.0
C3556 C 0.98401 0.3556 0.69961 0.0
C3557 C 0.98962 0.36496 0.68711 0.0
C3558 C 0.99447 0.36296 0.67149 0.0
H3559 H 0.98155 0.42778 0.70831 0.0
H3560 H 0.98282 0.41188 0.69133 0.0
C3561 C 0.99352 0.35167 0.66828 0.0
C3562 C 0.99069 0.37693 0.69073 0.0
H3563 H 0.97414 0.38956 0.70297 0.0
C3564 C 0.00222 0.38755 0.69188 0.0
C3565 C 0.98043 0.37781 0.69392 0.0
C3566 C 0.96777 0.36693 0.69158 0.0
C3567 C 0.00379 0.3989 0.69718 0.0
C3568 C 0.99356 0.39956 0.70179 0.0
C3569 C 0.98201 0.38907 0.69962 0.0
C3570 C 0.99455 0.41065 0.71027 0.0
C3571 C 0.01639 0.41003 0.69793 0.0
C3572 C 0.00094 0.41545 0.72634 0.0
C3573 C 0.0003 0.42457 0.73596 0.0
C3574 C 0.99309 0.42894 0.72986 0.0
C3575 C 0.98713 0.42453 0.71337 0.0
C3576 C 0.98786 0.41547 0.70366 0.0
H3577 H 0.02238 0.40913 0.68813 0.0
H3578 H 0.01645 0.41855 0.69521 0.0
H3579 H 0.02022 0.4109 0.71142 0.0
H3580 H 0.00588 0.41165 0.732 0.0
H3581 H 0.00481 0.42761 0.74877 0.0
H3582 H 0.66883 0.63199 0.66467 0.0
H3583 H 0.64925 0.61539 0.67505 0.0
H3584 H 0.64914 0.63934 0.71649 0.0
H3585 H 0.66883 0.65588 0.70647 0.0
H3586 H 0.64358 0.6176 0.72931 0.0
H3587 H 0.61591 0.61004 0.66919 0.0
H3588 H 0.62897 0.6091 0.66457 0.0
H3589 H 0.63081 0.62341 0.67225 0.0
C3590 C 0.6646 0.63375 0.67591 0.0
C3591 C 0.6704 0.64526 0.68475 0.0
C3592 C 0.65336 0.62428 0.68174 0.0
C3593 C 0.64763 0.62619 0.69636 0.0
C3594 C 0.65337 0.63769 0.70512 0.0
H3595 H 0.57432 0.57677 0.73422 0.0
H3596 H 0.59243 0.59363 0.72044 0.0
C3597 C 0.66463 0.64713 0.69938 0.0
C3598 C 0.63602 0.61601 0.70324 0.0
H3599 H 0.60694 0.59478 0.69154 0.0
C3600 C 0.63555 0.61266 0.72107 0.0
C3601 C 0.62551 0.60967 0.69255 0.0
C3602 C 0.62526 0.6133 0.67363 0.0
C3603 C 0.62494 0.60301 0.7284 0.0
C3604 C 0.61459 0.59632 0.7175 0.0
C3605 C 0.61494 0.59983 0.69979 0.0
C3606 C 0.60334 0.58567 0.72437 0.0
C3607 C 0.62489 0.60018 0.74786 0.0
C3608 C 0.60338 0.57546 0.73061 0.0
C3609 C 0.59313 0.56591 0.73866 0.0
C3610 C 0.58255 0.56629 0.74043 0.0
C3611 C 0.58236 0.57627 0.73333 0.0
C3612 C 0.59267 0.58587 0.72535 0.0
H3613 H 0.63226 0.60811 0.7554 0.0
H3614 H 0.61616 0.59761 0.75426 0.0
H3615 H 0.62626 0.59236 0.74895 0.0
H3616 H 0.61146 0.57503 0.72968 0.0
H3617 H 0.5937 0.55848 0.74413 0.0
H3618 H 0.70524 0.71522 0.67811 0.0
H3619 H 0.69981 0.73047 0.67192 0.0
H3620 H 0.67171 0.70461 0.63629 0.0
H3621 H 0.67698 0.68936 0.64239 0.0
H3622 H 0.69885 0.74007 0.63799 0.0
H3623 H 0.65431 0.71574 0.67138 0.0
H3624 H 0.66588 0.71229 0.67544 0.0
H3625 H 0.65653 0.70618 0.65585 0.0
C3626 C 0.6979 0.71279 0.66897 0.0
C3627 C 0.6915 0.70105 0.66082 0.0
C3628 C 0.69482 0.72151 0.66546 0.0
C3629 C 0.68523 0.71857 0.6539 0.0
C3630 C 0.67898 0.70696 0.64553 0.0
H3631 H 0.64929 0.7465 0.5989 0.0
H3632 H 0.65723 0.73534 0.61331 0.0
C3633 C 0.68207 0.69828 0.64897 0.0
C3634 C 0.68177 0.72763 0.65019 0.0
H3635 H 0.65759 0.73125 0.65084 0.0
C3636 C 0.68992 0.7383 0.64107 0.0
C3637 C 0.67013 0.72529 0.65435 0.0
C3638 C 0.66124 0.71431 0.66495 0.0
C3639 C 0.68645 0.7463 0.63498 0.0
C3640 C 0.67459 0.7436 0.63834 0.0
C3641 C 0.66666 0.73326 0.64823 0.0
C3642 C 0.66981 0.75061 0.63016 0.0
C3643 C 0.69524 0.75721 0.62417 0.0
C3644 C 0.6742 0.7629 0.635 0.0
C3645 C 0.66958 0.76934 0.62686 0.0
C3646 C 0.66047 0.76354 0.61382 0.0
C3647 C 0.6561 0.7512 0.60915 0.0
C3648 C 0.66069 0.74481 0.61728 0.0
H3649 H 0.70346 0.75703 0.62063 0.0
H3650 H 0.69091 0.75753 0.61168 0.0
H3651 H 0.69802 0.76576 0.63199 0.0
H3652 H 0.68114 0.76749 0.6451 0.0
H3653 H 0.67306 0.7788 0.63085 0.0
H3654 H 0.29823 0.99505 0.70224 0.0
H3655 H 0.28276 0.97381 0.69443 0.0
H3656 H 0.29724 0.97863 0.64116 0.0
H3657 H 0.31269 0.99983 0.64875 0.0
H3658 H 0.26525 0.96518 0.66473 0.0
H3659 H 0.29626 0.94763 0.66079 0.0
H3660 H 0.30007 0.96171 0.67256 0.0
H3661 H 0.3011 0.9614 0.64865 0.0
C3662 C 0.29812 0.99159 0.68886 0.0
C3663 C 0.30672 0.99912 0.67613 0.0
C3664 C 0.28928 0.97947 0.68444 0.0
C3665 C 0.28898 0.97465 0.66731 0.0
C3666 C 0.29744 0.98216 0.65453 0.0
H3667 H 0.23829 0.91477 0.60265 0.0
H3668 H 0.25091 0.93422 0.61849 0.0
C3669 C 0.30622 0.99428 0.65888 0.0
C3670 C 0.27978 0.9618 0.6626 0.0
H3671 H 0.27659 0.93468 0.64861 0.0
C3672 C 0.26767 0.95845 0.6614 0.0
C3673 C 0.28298 0.95303 0.65851 0.0
C3674 C 0.29579 0.95604 0.66032 0.0
C3675 C 0.25875 0.94667 0.65538 0.0
C3676 C 0.26208 0.93812 0.65037 0.0
C3677 C 0.27408 0.94129 0.65239 0.0
C3678 C 0.25345 0.92616 0.64176 0.0
C3679 C 0.24587 0.94352 0.6542 0.0
C3680 C 0.25073 0.91515 0.64958 0.0
C3681 C 0.24339 0.90393 0.64061 0.0
C3682 C 0.23877 0.90356 0.62355 0.0
C3683 C 0.24142 0.91464 0.61592 0.0
C3684 C 0.24868 0.92581 0.62494 0.0
H3685 H 0.24425 0.94964 0.66299 0.0
H3686 H 0.2439 0.94465 0.64025 0.0
H3687 H 0.23949 0.93386 0.65791 0.0
H3688 H 0.2544 0.91526 0.66253 0.0
H3689 H 0.24144 0.89558 0.64695 0.0
H3690 H 0.01705 0.31254 0.69153 0.0
H3691 H 0.03766 0.31717 0.68646 0.0
H3692 H 0.03175 0.31437 0.62958 0.0
H3693 H 0.01119 0.30962 0.63446 0.0
H3694 H 0.04232 0.30155 0.64145 0.0
H3695 H 0.06627 0.34965 0.66774 0.0
H3696 H 0.05546 0.33814 0.68244 0.0
H3697 H 0.05042 0.34129 0.66221 0.0
C3698 C 0.02014 0.31291 0.67794 0.0
C3699 C 0.01248 0.31074 0.66339 0.0
C3700 C 0.03194 0.31563 0.67508 0.0
C3701 C 0.03626 0.31626 0.65764 0.0
C3702 C 0.02859 0.31396 0.64314 0.0
H3703 H 0.10403 0.34704 0.60611 0.0
H3704 H 0.08563 0.34292 0.62137 0.0
C3705 C 0.01684 0.31126 0.64597 0.0
C3706 C 0.0487 0.31912 0.65425 0.0
H3707 H 0.0783 0.34212 0.65683 0.0
C3708 C 0.05021 0.31037 0.64497 0.0
C3709 C 0.05893 0.33068 0.65876 0.0
C3710 C 0.05776 0.34055 0.66822 0.0
C3711 C 0.06165 0.31296 0.63961 0.0
C3712 C 0.07191 0.32455 0.644 0.0
C3713 C 0.07043 0.33321 0.65366 0.0
C3714 C 0.08403 0.3282 0.63711 0.0
C3715 C 0.0626 0.30347 0.62855 0.0
C3716 C 0.08951 0.32162 0.64147 0.0
C3717 C 0.10003 0.32394 0.63272 0.0
C3718 C 0.10531 0.33297 0.61963 0.0
C3719 C 0.10026 0.3401 0.61624 0.0
C3720 C 0.08971 0.33773 0.6249 0.0
H3721 H 0.0537 0.29614 0.62326 0.0
H3722 H 0.06883 0.30777 0.61712 0.0
H3723 H 0.06621 0.2991 0.63695 0.0
H3724 H 0.0854 0.3144 0.65115 0.0
H3725 H 0.10383 0.31841 0.63577 0.0
H3726 H 0.31328 0.33311 0.69784 0.0
H3727 H 0.29836 0.33814 0.68901 0.0
H3728 H 0.2857 0.31044 0.64714 0.0
H3729 H 0.30055 0.3053 0.65587 0.0
H3730 H 0.29721 0.34624 0.65449 0.0
H3731 H 0.25439 0.30385 0.67221 0.0
H3732 H 0.26879 0.30779 0.68139 0.0
H3733 H 0.26461 0.30131 0.6592 0.0
C3734 C 0.30723 0.32797 0.68689 0.0
C3735 C 0.30811 0.31881 0.67754 0.0
C3736 C 0.29871 0.33087 0.68187 0.0
C3737 C 0.29084 0.32456 0.66758 0.0
C3738 C 0.29155 0.31526 0.65842 0.0
H3739 H 0.24079 0.33003 0.60175 0.0
H3740 H 0.25277 0.32391 0.61835 0.0
C3741 C 0.30009 0.3124 0.66336 0.0
C3742 C 0.28252 0.32831 0.66133 0.0
H3743 H 0.25284 0.31776 0.65348 0.0
C3744 C 0.2875 0.34009 0.65447 0.0
C3745 C 0.26988 0.32022 0.66127 0.0
C3746 C 0.26406 0.30761 0.66905 0.0
C3747 C 0.28019 0.34386 0.64687 0.0
C3748 C 0.26753 0.3357 0.64654 0.0
C3749 C 0.26253 0.324 0.65379 0.0
C3750 C 0.25942 0.33887 0.63771 0.0
C3751 C 0.28614 0.35632 0.63855 0.0
C3752 C 0.25889 0.34911 0.64343 0.0
C3753 C 0.25207 0.35266 0.63392 0.0
C3754 C 0.24552 0.34592 0.61869 0.0
C3755 C 0.24563 0.33534 0.61353 0.0
C3756 C 0.25251 0.33185 0.62296 0.0
H3757 H 0.29591 0.3602 0.63619 0.0
H3758 H 0.2818 0.35586 0.62564 0.0
H3759 H 0.28519 0.36273 0.64767 0.0
H3760 H 0.26394 0.35449 0.65503 0.0
H3761 H 0.25202 0.36075 0.63835 0.0
H3762 H 0.70723 0.00537 0.68275 0.0
H3763 H 0.70221 0.98475 0.67347 0.0
H3764 H 0.67011 0.97867 0.6474 0.0
H3765 H 0.67514 0.9993 0.65633 0.0
H3766 H 0.68201 0.96173 0.68004 0.0
H3767 H 0.68734 0.97136 0.60766 0.0
H3768 H 0.6926 0.98334 0.62459 0.0
H3769 H 0.67691 0.97463 0.61846 0.0
C3770 C 0.6991 0.99965 0.67505 0.0
C3771 C 0.69164 0.00403 0.67013 0.0
C3772 C 0.69624 0.98786 0.66979 0.0
C3773 C 0.6859 0.98027 0.6595 0.0
C3774 C 0.67827 0.98448 0.65501 0.0
H3775 H 0.64973 0.90223 0.637 0.0
H3776 H 0.65655 0.92249 0.65014 0.0
C3777 C 0.68113 0.99626 0.66019 0.0
C3778 C 0.68315 0.96799 0.65326 0.0
H3779 H 0.67838 0.9505 0.6156 0.0
C3780 C 0.68128 0.95928 0.66596 0.0
C3781 C 0.68241 0.96489 0.63488 0.0
C3782 C 0.68503 0.97408 0.62059 0.0
C3783 C 0.67838 0.94741 0.66074 0.0
C3784 C 0.67712 0.94416 0.64236 0.0
C3785 C 0.67926 0.95298 0.62969 0.0
C3786 C 0.67349 0.93165 0.63581 0.0
C3787 C 0.67683 0.93855 0.67494 0.0
C3788 C 0.68069 0.93006 0.6233 0.0
C3789 C 0.67671 0.91854 0.61549 0.0
C3790 C 0.66543 0.90834 0.62004 0.0
C3791 C 0.65841 0.90989 0.63306 0.0
C3792 C 0.66237 0.92145 0.64077 0.0
H3793 H 0.68156 0.94343 0.68749 0.0
H3794 H 0.6671 0.93257 0.67805 0.0
H3795 H 0.68029 0.93264 0.67035 0.0
H3796 H 0.68926 0.93782 0.61919 0.0
H3797 H 0.68228 0.91778 0.60531 0.0
H3798 H 0.00382 0.68548 0.66183 0.0
H3799 H 0.02452 0.70053 0.65333 0.0
H3800 H 0.01719 0.72955 0.6606 0.0
H3801 H 0.99653 0.71457 0.6696 0.0
H3802 H 0.0319 0.71522 0.62534 0.0
H3803 H 0.04859 0.74361 0.68744 0.0
H3804 H 0.0347 0.72889 0.68659 0.0
H3805 H 0.03515 0.74232 0.67889 0.0
C3806 C 0.00663 0.69508 0.66178 0.0
C3807 C 0.99853 0.69883 0.66642 0.0
C3808 C 0.01848 0.70367 0.65693 0.0
C3809 C 0.02247 0.7162 0.65658 0.0
C3810 C 0.01441 0.71998 0.66122 0.0
H3811 H 0.0834 0.76826 0.59354 0.0
H3812 H 0.06359 0.75547 0.6069 0.0
C3813 C 0.00257 0.71139 0.66623 0.0
C3814 C 0.03483 0.72513 0.65028 0.0
H3815 H 0.06104 0.75162 0.66162 0.0
C3816 C 0.03828 0.72315 0.63332 0.0
C3817 C 0.04321 0.73539 0.66078 0.0
C3818 C 0.04029 0.73764 0.67951 0.0
C3819 C 0.04981 0.7312 0.62647 0.0
C3820 C 0.05802 0.74174 0.63666 0.0
C3821 C 0.05466 0.74364 0.65375 0.0
C3822 C 0.07018 0.75073 0.6298 0.0
C3823 C 0.05314 0.72821 0.60851 0.0
C3824 C 0.08053 0.75287 0.63876 0.0
C3825 C 0.09196 0.76042 0.63134 0.0
C3826 C 0.09323 0.76598 0.61481 0.0
C3827 C 0.08284 0.76427 0.60636 0.0
C3828 C 0.07145 0.7568 0.61385 0.0
H3829 H 0.04725 0.71833 0.60485 0.0
H3830 H 0.05205 0.73358 0.59812 0.0
H3831 H 0.06266 0.73059 0.60836 0.0
H3832 H 0.07975 0.74836 0.6512 0.0
H3833 H 0.09977 0.76171 0.63838 0.0
H3834 H 0.95811 0.63005 0.69751 0.0
H3835 H 0.9593 0.61258 0.70703 0.0
H3836 H 0.98829 0.6221 0.66982 0.0
H3837 H 0.98721 0.63965 0.6602 0.0
H3838 H 0.95731 0.59242 0.68482 0.0
H3839 H 0.00159 0.62025 0.71944 0.0
H3840 H 0.99239 0.62647 0.71398 0.0
H3841 H 0.00072 0.62409 0.69679 0.0
C3842 C 0.96474 0.62844 0.69132 0.0
C3843 C 0.97261 0.63629 0.67815 0.0
C3844 C 0.96539 0.61844 0.69675 0.0
C3845 C 0.97396 0.61615 0.68924 0.0
C3846 C 0.98171 0.62383 0.67592 0.0
H3847 H 0.99079 0.56189 0.72496 0.0
H3848 H 0.99068 0.57773 0.7073 0.0
C3849 C 0.98105 0.63382 0.67041 0.0
C3850 C 0.97476 0.60574 0.69554 0.0
H3851 H 0.99222 0.59881 0.72019 0.0
C3852 C 0.96498 0.59379 0.69245 0.0
C3853 C 0.98483 0.60758 0.70532 0.0
C3854 C 0.99548 0.62027 0.70923 0.0
C3855 C 0.96488 0.58361 0.69919 0.0
C3856 C 0.97471 0.58548 0.70965 0.0
C3857 C 0.98469 0.5974 0.71218 0.0
C3858 C 0.97439 0.57534 0.71929 0.0
C3859 C 0.95422 0.57095 0.69511 0.0
C3860 C 0.96533 0.56882 0.73193 0.0
C3861 C 0.96538 0.55984 0.74202 0.0
C3862 C 0.97456 0.55722 0.73979 0.0
C3863 C 0.98362 0.56372 0.72703 0.0
C3864 C 0.98354 0.57273 0.7169 0.0
H3865 H 0.94965 0.57076 0.68257 0.0
H3866 H 0.95698 0.56409 0.69386 0.0
H3867 H 0.94756 0.5682 0.70611 0.0
H3868 H 0.95838 0.57094 0.73439 0.0
H3869 H 0.95844 0.55525 0.75203 0.0
H3870 H 0.36723 0.33917 0.69932 0.0
H3871 H 0.38415 0.35971 0.70682 0.0
H3872 H 0.37605 0.37412 0.66129 0.0
H3873 H 0.35906 0.3536 0.65365 0.0
H3874 H 0.4048 0.37659 0.6846 0.0
H3875 H 0.37554 0.39453 0.7054 0.0
H3876 H 0.36989 0.37832 0.70338 0.0
H3877 H 0.37273 0.38717 0.68373 0.0
C3878 C 0.36905 0.34669 0.69085 0.0
C3879 C 0.36174 0.34476 0.67595 0.0
C3880 C 0.37874 0.35841 0.69513 0.0
C3881 C 0.38125 0.36841 0.6847 0.0
C3882 C 0.37416 0.36651 0.66961 0.0
H3883 H 0.43074 0.44611 0.71089 0.0
H3884 H 0.41687 0.4272 0.69424 0.0
C3885 C 0.36448 0.35478 0.66525 0.0
C3886 C 0.39111 0.38088 0.68999 0.0
H3887 H 0.39647 0.40808 0.70774 0.0
C3888 C 0.40302 0.38353 0.68955 0.0
C3889 C 0.38872 0.38989 0.69631 0.0
C3890 C 0.37604 0.38739 0.69739 0.0
C3891 C 0.41263 0.39496 0.69551 0.0
C3892 C 0.41021 0.40382 0.70246 0.0
C3893 C 0.39832 0.40128 0.70238 0.0
C3894 C 0.41965 0.41542 0.71114 0.0
C3895 C 0.42529 0.39741 0.69429 0.0
C3896 C 0.42586 0.41508 0.72607 0.0
C3897 C 0.43378 0.42584 0.73556 0.0
C3898 C 0.43554 0.43716 0.73044 0.0
C3899 C 0.42952 0.43752 0.71522 0.0
C3900 C 0.42163 0.42674 0.70567 0.0
H3901 H 0.42606 0.39173 0.68353 0.0
H3902 H 0.43193 0.40722 0.69175 0.0
H3903 H 0.42766 0.39499 0.70709 0.0
H3904 H 0.42422 0.40642 0.73086 0.0
H3905 H 0.43806 0.4252 0.74744 0.0
H3906 H 0.66308 0.04201 0.69856 0.0
H3907 H 0.64346 0.03788 0.7091 0.0
H3908 H 0.62595 0.01188 0.66562 0.0
H3909 H 0.64554 0.01607 0.65479 0.0
H3910 H 0.61631 0.02699 0.67274 0.0
H3911 H 0.6201 0.00561 0.734 0.0
H3912 H 0.63236 0.02102 0.73053 0.0
H3913 H 0.63001 0.00898 0.71511 0.0
C3914 C 0.65507 0.03549 0.69113 0.0
C3915 C 0.65586 0.02926 0.67594 0.0
C3916 C 0.64387 0.03312 0.69721 0.0
C3917 C 0.63325 0.02443 0.68831 0.0
C3918 C 0.63404 0.0186 0.67271 0.0
H3919 H 0.56201 0.98305 0.73209 0.0
H3920 H 0.58123 0.99036 0.71714 0.0
C3921 C 0.64524 0.02098 0.66657 0.0
C3922 C 0.6213 0.02091 0.69579 0.0
H3923 H 0.60312 0.00755 0.7318 0.0
C3924 C 0.6134 0.02277 0.68566 0.0
C3925 C 0.61751 0.01526 0.71256 0.0
C3926 C 0.62537 0.01248 0.72365 0.0
C3927 C 0.6018 0.01914 0.69192 0.0
C3928 C 0.59809 0.01365 0.7088 0.0
C3929 C 0.60601 0.01183 0.7189 0.0
C3930 C 0.58587 0.00921 0.71608 0.0
C3931 C 0.59349 0.02092 0.68026 0.0
C3932 C 0.582 0.01737 0.72023 0.0
C3933 C 0.57088 0.01317 0.72863 0.0
C3934 C 0.56347 0.00076 0.73312 0.0
C3935 C 0.56732 0.99261 0.72854 0.0
C3936 C 0.57838 0.99679 0.72013 0.0
H3937 H 0.59665 0.02266 0.66619 0.0
H3938 H 0.58419 0.01275 0.68052 0.0
H3939 H 0.59312 0.02893 0.68538 0.0
H3940 H 0.58773 0.02703 0.71748 0.0
H3941 H 0.56817 0.01968 0.73187 0.0
loop_
_geom_bond_atom_site_label_1
_geom_bond_atom_site_label_2
_geom_bond_distance
_geom_bond_site_symmetry_2
_ccdc_geom_bond_type
C0 O1 1.160 . S
C0 O7 1.185 . S
O1 C0 1.160 . S
O2 Zn3 1.890 1_656 S
O2 C10 1.276 1_556 S
Zn3 O2 1.890 1_454 S
Zn3 O4 2.032 . S
Zn3 O7 2.086 . S
Zn3 O12 1.977 1_554 S
O4 Zn3 2.032 . S
O4 C8 1.278 1_455 S
C5 O6 1.203 1_455 S
C5 O12 1.267 . S
O6 C5 1.203 1_655 S
O7 C0 1.185 . S
O7 Zn3 2.086 . S
C8 O4 1.278 1_655 S
C8 O9 1.211 . S
O9 C8 1.211 . S
C10 O2 1.276 1_554 S
C10 O11 1.273 . S
O11 C10 1.273 . S
O12 Zn3 1.977 1_556 S
O12 C5 1.267 . S
C13 O14 1.149 1_554 S
C13 O20 1.185 . S
O14 C13 1.149 1_556 S
O15 Zn16 1.899 . S
O15 C23 1.284 . S
Zn16 O15 1.899 . S
Zn16 O17 2.032 1_554 S
Zn16 O20 2.086 . S
Zn16 O25 1.977 . S
O17 Zn16 2.032 1_556 S
O17 C21 1.278 . S
C18 O19 1.203 . S
C18 O25 1.267 . S
O19 C18 1.203 . S
O20 C13 1.185 . S
O20 Zn16 2.086 . S
C21 O17 1.278 . S
C21 O22 1.168 1_556 S
O22 C21 1.168 1_554 S
C23 O15 1.284 . S
C23 O24 1.273 . S
O24 C23 1.273 . S
O25 Zn16 1.977 . S
O25 C18 1.267 . S
C26 O27 1.169 . S
C26 O33 1.185 . S
O27 C26 1.169 . S
O28 Zn29 1.899 1_565 S
O28 C36 1.284 . S
Zn29 O28 1.899 1_545 S
Zn29 O30 2.032 1_554 S
Zn29 O33 2.086 . S
Zn29 O38 1.977 . S
O30 Zn29 2.032 1_556 S
O30 C34 1.278 . S
C31 O32 1.203 1_545 S
C31 O38 1.267 . S
O32 C31 1.203 1_565 S
O33 C26 1.185 . S
O33 Zn29 2.086 . S
C34 O30 1.278 . S
C34 O35 1.211 1_546 S
O35 C34 1.211 1_564 S
C36 O28 1.284 . S
C36 O37 1.273 . S
O37 C36 1.273 . S
O38 Zn29 1.977 . S
O38 C31 1.267 . S
C39 O40 1.161 . S
C39 O46 1.183 1_556 S
O40 C39 1.161 . S
O41 Zn42 1.899 1_455 S
O41 C49 1.284 . S
Zn42 O41 1.899 1_655 S
Zn42 O43 2.032 1_554 S
Zn42 O46 2.086 . S
Zn42 O51 1.977 . S
O43 Zn42 2.032 1_556 S
O43 C47 1.278 1_655 S
C44 O45 1.150 1_655 S
C44 O51 1.322 . S
O45 C44 1.150 1_455 S
O46 C39 1.183 1_554 S
O46 Zn42 2.086 . S
C47 O43 1.278 1_455 S
C47 O48 1.211 . S
O48 C47 1.211 . S
C49 O41 1.284 . S
C49 O50 1.273 . S
O50 C49 1.273 . S
O51 Zn42 1.977 . S
O51 C44 1.322 . S
C52 O53 1.160 . S
C52 O59 1.185 . S
O53 C52 1.160 . S
O54 Zn55 1.899 1_556 S
O54 C62 1.280 1_556 S
Zn55 O54 1.899 1_554 S
Zn55 O56 2.032 . S
Zn55 O59 2.086 . S
Zn55 O64 1.977 1_554 S
O56 Zn55 2.032 . S
O56 C60 1.278 . S
C57 O58 1.203 . S
C57 O64 1.267 . S
O58 C57 1.203 . S
O59 C52 1.185 . S
O59 Zn55 2.086 . S
C60 O56 1.278 . S
C60 O61 1.211 . S
O61 C60 1.211 . S
C62 O54 1.280 1_554 S
C62 O63 1.280 . S
O63 C62 1.280 . S
O64 Zn55 1.977 1_556 S
O64 C57 1.267 . S
C65 O66 1.160 . S
C65 O72 1.185 . S
O66 C65 1.160 . S
O67 Zn68 1.899 1_546 S
O67 C75 1.284 1_556 S
Zn68 O67 1.899 1_564 S
Zn68 O69 2.058 . S
Zn68 O72 2.086 . S
Zn68 O77 1.977 1_554 S
O69 Zn68 2.058 . S
O69 C73 1.195 1_565 S
C70 O71 1.148 1_565 S
C70 O77 1.326 . S
O71 C70 1.148 1_545 S
O72 C65 1.185 . S
O72 Zn68 2.086 . S
C73 O69 1.195 1_545 S
C73 O74 1.211 . S
O74 C73 1.211 . S
C75 O67 1.284 1_554 S
C75 O76 1.273 . S
O76 C75 1.273 . S
O77 Zn68 1.977 1_556 S
O77 C70 1.326 . S
C78 O79 1.160 . S
C78 O85 1.185 . S
O79 C78 1.160 . S
O80 Zn81 1.899 . S
O80 C88 1.284 . S
Zn81 O80 1.899 . S
Zn81 O82 2.032 . S
Zn81 O85 2.086 . S
Zn81 O90 1.977 . S
O82 Zn81 2.032 . S
O82 C86 1.278 . S
C83 O84 1.203 . S
C83 O90 1.267 . S
O84 C83 1.203 . S
O85 C78 1.185 . S
O85 Zn81 2.086 . S
C86 O82 1.278 . S
C86 O87 1.211 . S
O87 C86 1.211 . S
C88 O80 1.284 . S
C88 O89 1.273 . S
O89 C88 1.273 . S
O90 Zn81 1.977 . S
O90 C83 1.267 . S
C91 O92 1.160 . S
C91 O98 1.185 . S
O92 C91 1.160 . S
O93 Zn94 1.899 . S
O93 C101 1.284 . S
Zn94 O93 1.899 . S
Zn94 O95 2.032 . S
Zn94 O98 2.086 . S
Zn94 O103 1.977 . S
O95 Zn94 2.032 . S
O95 C99 1.278 . S
C96 O97 1.203 . S
C96 O103 1.267 . S
O97 C96 1.203 . S
O98 C91 1.185 . S
O98 Zn94 2.086 . S
C99 O95 1.278 . S
C99 O100 1.211 . S
O100 C99 1.211 . S
C101 O93 1.284 . S
C101 O102 1.273 . S
O102 C101 1.273 . S
O103 Zn94 1.977 . S
O103 C96 1.267 . S
C104 O105 1.160 . S
C104 O111 1.185 . S
O105 C104 1.160 . S
O106 Zn107 1.899 . S
O106 C114 1.284 . S
Zn107 O106 1.899 . S
Zn107 O108 2.032 . S
Zn107 O111 2.086 . S
Zn107 O116 1.977 . S
O108 Zn107 2.032 . S
O108 C112 1.278 . S
C109 O110 1.203 . S
C109 O116 1.267 . S
O110 C109 1.203 . S
O111 C104 1.185 . S
O111 Zn107 2.086 . S
C112 O108 1.278 . S
C112 O113 1.211 . S
O113 C112 1.211 . S
C114 O106 1.284 . S
C114 O115 1.273 . S
O115 C114 1.273 . S
O116 Zn107 1.977 . S
O116 C109 1.267 . S
C117 O118 1.160 . S
C117 O124 1.185 . S
O118 C117 1.160 . S
O119 Zn120 1.899 . S
O119 C127 1.284 . S
Zn120 O119 1.899 . S
Zn120 O121 2.032 . S
Zn120 O124 2.086 . S
Zn120 O129 1.977 . S
O121 Zn120 2.032 . S
O121 C125 1.278 . S
C122 O123 1.203 . S
C122 O129 1.267 . S
O123 C122 1.203 . S
O124 C117 1.185 . S
O124 Zn120 2.086 . S
C125 O121 1.278 . S
C125 O126 1.211 . S
O126 C125 1.211 . S
C127 O119 1.284 . S
C127 O128 1.273 . S
O128 C127 1.273 . S
O129 Zn120 1.977 . S
O129 C122 1.267 . S
C130 O131 1.160 . S
C130 O137 1.185 1_655 S
O131 C130 1.160 . S
O132 Zn133 1.899 . S
O132 C140 1.284 . S
Zn133 O132 1.899 . S
Zn133 O134 2.032 . S
Zn133 O137 2.086 . S
Zn133 O142 1.977 . S
O134 Zn133 2.032 . S
O134 C138 1.278 . S
C135 O136 1.203 . S
C135 O142 1.267 . S
O136 C135 1.203 . S
O137 C130 1.185 1_455 S
O137 Zn133 2.086 . S
C138 O134 1.278 . S
C138 O139 1.211 . S
O139 C138 1.211 . S
C140 O132 1.284 . S
C140 O141 1.273 . S
O141 C140 1.273 . S
O142 Zn133 1.977 . S
O142 C135 1.267 . S
C143 O144 1.160 . S
C143 O150 1.185 . S
O144 C143 1.160 . S
O145 Zn146 1.899 . S
O145 C153 1.284 . S
Zn146 O145 1.899 . S
Zn146 O147 2.032 . S
Zn146 O150 2.086 . S
Zn146 O155 1.977 . S
O147 Zn146 2.032 . S
O147 C151 1.278 . S
C148 O149 1.203 . S
C148 O155 1.267 . S
O149 C148 1.203 . S
O150 C143 1.185 . S
O150 Zn146 2.086 . S
C151 O147 1.278 . S
C151 O152 1.211 . S
O152 C151 1.211 . S
C153 O145 1.284 . S
C153 O154 1.273 . S
O154 C153 1.273 . S
O155 Zn146 1.977 . S
O155 C148 1.267 . S
C156 O157 1.160 . S
C156 O163 1.185 . S
O157 C156 1.160 . S
O158 Zn159 1.899 . S
O158 C166 1.284 . S
Zn159 O158 1.899 . S
Zn159 O160 2.032 . S
Zn159 O163 2.086 . S
Zn159 O168 1.977 . S
O160 Zn159 2.032 . S
O160 C164 1.278 . S
C161 O162 1.203 . S
C161 O168 1.267 . S
O162 C161 1.203 . S
O163 C156 1.185 . S
O163 Zn159 2.086 . S
C164 O160 1.278 . S
C164 O165 1.211 . S
O165 C164 1.211 . S
C166 O158 1.284 . S
C166 O167 1.273 . S
O167 C166 1.273 . S
O168 Zn159 1.977 . S
O168 C161 1.267 . S
C169 O170 1.160 . S
C169 O176 1.185 1_455 S
O170 C169 1.160 . S
O171 Zn172 1.899 . S
O171 C179 1.284 . S
Zn172 O171 1.899 . S
Zn172 O173 2.032 . S
Zn172 O176 2.086 . S
Zn172 O181 1.977 . S
O173 Zn172 2.032 . S
O173 C177 1.278 . S
C174 O175 1.203 . S
C174 O181 1.267 . S
O175 C174 1.203 . S
O176 C169 1.185 1_655 S
O176 Zn172 2.086 . S
C177 O173 1.278 . S
C177 O178 1.211 . S
O178 C177 1.211 . S
C179 O171 1.284 . S
C179 O180 1.273 . S
O180 C179 1.273 . S
O181 Zn172 1.977 . S
O181 C174 1.267 . S
C182 O183 1.160 . S
C182 O189 1.185 . S
O183 C182 1.160 . S
O184 Zn185 1.899 . S
O184 C192 1.284 . S
Zn185 O184 1.899 . S
Zn185 O186 2.032 . S
Zn185 O189 2.086 . S
Zn185 O194 1.977 . S
O186 Zn185 2.032 . S
O186 C190 1.278 . S
C187 O188 1.203 . S
C187 O194 1.267 . S
O188 C187 1.203 . S
O189 C182 1.185 . S
O189 Zn185 2.086 . S
C190 O186 1.278 . S
C190 O191 1.211 . S
O191 C190 1.211 . S
C192 O184 1.284 . S
C192 O193 1.273 . S
O193 C192 1.273 . S
O194 Zn185 1.977 . S
O194 C187 1.267 . S
C195 O196 1.160 . S
C195 O202 1.185 . S
O196 C195 1.160 . S
O197 Zn198 1.899 . S
O197 C205 1.284 . S
Zn198 O197 1.899 . S
Zn198 O199 2.032 . S
Zn198 O202 2.086 . S
Zn198 O207 1.977 . S
O199 Zn198 2.032 . S
O199 C203 1.278 . S
C200 O201 1.203 . S
C200 O207 1.267 . S
O201 C200 1.203 . S
O202 C195 1.185 . S
O202 Zn198 2.086 . S
C203 O199 1.278 . S
C203 O204 1.211 . S
O204 C203 1.211 . S
C205 O197 1.284 . S
C205 O206 1.273 . S
O206 C205 1.273 . S
O207 Zn198 1.977 . S
O207 C200 1.267 . S
C208 O209 1.160 . S
C208 O215 1.185 . S
O209 C208 1.160 . S
O210 Zn211 1.899 . S
O210 C218 1.284 . S
Zn211 O210 1.899 . S
Zn211 O212 2.032 . S
Zn211 O215 2.086 . S
Zn211 O220 1.977 . S
O212 Zn211 2.032 . S
O212 C216 1.278 . S
C213 O214 1.203 . S
C213 O220 1.267 . S
O214 C213 1.203 . S
O215 C208 1.185 . S
O215 Zn211 2.086 . S
C216 O212 1.278 . S
C216 O217 1.211 . S
O217 C216 1.211 . S
C218 O210 1.284 . S
C218 O219 1.273 . S
O219 C218 1.273 . S
O220 Zn211 1.977 . S
O220 C213 1.267 . S
C221 O222 1.160 . S
C221 O228 1.185 . S
O222 C221 1.160 . S
O223 Zn224 1.899 . S
O223 C231 1.284 . S
Zn224 O223 1.899 . S
Zn224 O225 2.032 . S
Zn224 O228 2.086 . S
Zn224 O233 1.977 . S
O225 Zn224 2.032 . S
O225 C229 1.278 . S
C226 O227 1.203 . S
C226 O233 1.267 . S
O227 C226 1.203 . S
O228 C221 1.185 . S
O228 Zn224 2.086 . S
C229 O225 1.278 . S
C229 O230 1.211 . S
O230 C229 1.211 . S
C231 O223 1.284 . S
C231 O232 1.273 . S
O232 C231 1.273 . S
O233 Zn224 1.977 . S
O233 C226 1.267 . S
H234 C261 0.929 . S
N235 C260 1.433 . S
N235 C266 1.435 . S
N235 C272 1.423 . S
H236 C262 0.930 . S
H237 C265 0.931 . S
H238 C264 0.929 . S
H239 C267 0.930 . S
H240 C268 0.932 . S
H241 C271 0.929 . S
H242 C270 0.931 . S
H243 C273 0.929 . S
H244 C277 0.932 . S
H245 C274 0.931 . S
H246 C276 0.929 . S
H247 C279 0.929 . S
H248 C280 0.930 . S
H249 C282 0.929 . S
H250 C283 0.931 . S
H251 C285 0.930 . S
H252 C286 0.932 . S
H253 C288 0.931 . S
H254 C289 0.929 . S
H255 C291 0.929 . S
H256 C292 0.931 . S
H257 C294 0.929 . S
N258 C278 1.433 . S
N258 C284 1.435 . S
N258 C290 1.423 . S
H259 C295 0.932 . S
C260 N235 1.433 . S
C260 C261 1.363 . S
C260 C265 1.370 . S
C261 H234 0.929 . S
C261 C260 1.363 . S
C261 C262 1.385 . S
C262 H236 0.930 . S
C262 C261 1.385 . S
C262 C263 1.357 . S
C263 C262 1.357 . S
C263 C264 1.406 . S
C264 H238 0.929 . S
C264 C263 1.406 . S
C264 C265 1.391 . S
C265 H237 0.931 . S
C265 C260 1.370 . S
C265 C264 1.391 . S
C266 N235 1.435 . S
C266 C267 1.358 . S
C266 C271 1.371 . S
C267 H239 0.930 . S
C267 C266 1.358 . S
C267 C268 1.405 . S
C268 H240 0.932 . S
C268 C267 1.405 . S
C268 C269 1.383 . S
C269 C268 1.383 . S
C269 C270 1.393 . S
C270 H242 0.931 . S
C270 C269 1.393 . S
C270 C271 1.382 . S
C271 H241 0.929 . S
C271 C266 1.371 . S
C271 C270 1.382 . S
C272 N235 1.423 . S
C272 C273 1.362 . S
C272 C277 1.388 . S
C273 H243 0.929 . S
C273 C272 1.362 . S
C273 C274 1.376 . S
C274 H245 0.931 . S
C274 C273 1.376 . S
C274 C275 1.396 . S
C275 C274 1.396 . S
C275 C276 1.348 . S
C275 C293 1.472 . S
C276 H246 0.929 . S
C276 C275 1.348 . S
C276 C277 1.443 . S
C277 H244 0.932 . S
C277 C272 1.388 . S
C277 C276 1.443 . S
C278 N258 1.433 . S
C278 C279 1.363 . S
C278 C283 1.370 . S
C279 H247 0.929 . S
C279 C278 1.363 . S
C279 C280 1.385 . S
C280 H248 0.930 . S
C280 C279 1.385 . S
C280 C281 1.357 . S
C281 C280 1.357 . S
C281 C282 1.406 . S
C282 H249 0.929 . S
C282 C281 1.406 . S
C282 C283 1.391 . S
C283 H250 0.931 . S
C283 C278 1.370 . S
C283 C282 1.391 . S
C284 N258 1.435 . S
C284 C285 1.358 . S
C284 C289 1.371 . S
C285 H251 0.930 . S
C285 C284 1.358 . S
C285 C286 1.405 . S
C286 H252 0.932 . S
C286 C285 1.405 . S
C286 C287 1.383 . S
C287 C286 1.383 . S
C287 C288 1.393 . S
C288 H253 0.931 . S
C288 C287 1.393 . S
C288 C289 1.382 . S
C289 H254 0.929 . S
C289 C284 1.371 . S
C289 C288 1.382 . S
C290 N258 1.423 . S
C290 C291 1.362 . S
C290 C295 1.388 . S
C291 H255 0.929 . S
C291 C290 1.362 . S
C291 C292 1.376 . S
C292 H256 0.931 . S
C292 C291 1.376 . S
C292 C293 1.396 . S
C293 C275 1.472 . S
C293 C292 1.396 . S
C293 C294 1.348 . S
C294 H257 0.929 . S
C294 C293 1.348 . S
C294 C295 1.443 . S
C295 H259 0.932 . S
C295 C290 1.388 . S
C295 C294 1.443 . S
H296 C323 0.929 . S
N297 C322 1.433 . S
N297 C328 1.435 . S
N297 C334 1.423 . S
H298 C324 0.930 . S
H299 C327 0.931 . S
H300 C326 0.929 . S
H301 C329 0.930 . S
H302 C330 0.932 . S
H303 C333 0.929 . S
H304 C332 0.931 . S
H305 C335 0.929 . S
H306 C339 0.932 . S
H307 C336 0.931 . S
H308 C338 0.929 . S
H309 C341 0.929 . S
H310 C342 0.930 . S
H311 C344 0.929 . S
H312 C345 0.931 . S
H313 C347 0.930 . S
H314 C348 0.932 . S
H315 C350 0.931 . S
H316 C351 0.929 . S
H317 C353 0.929 . S
H318 C354 0.931 . S
H319 C356 0.929 . S
N320 C340 1.433 . S
N320 C346 1.435 . S
N320 C352 1.423 . S
H321 C357 0.932 . S
C322 N297 1.433 . S
C322 C323 1.363 . S
C322 C327 1.370 . S
C323 H296 0.929 . S
C323 C322 1.363 . S
C323 C324 1.385 . S
C324 H298 0.930 . S
C324 C323 1.385 . S
C324 C325 1.357 . S
C325 C324 1.357 . S
C325 C326 1.406 . S
C326 H300 0.929 . S
C326 C325 1.406 . S
C326 C327 1.391 . S
C327 H299 0.931 . S
C327 C322 1.370 . S
C327 C326 1.391 . S
C328 N297 1.435 . S
C328 C329 1.358 . S
C328 C333 1.371 . S
C329 H301 0.930 . S
C329 C328 1.358 . S
C329 C330 1.405 . S
C330 H302 0.932 . S
C330 C329 1.405 . S
C330 C331 1.383 . S
C331 C330 1.383 . S
C331 C332 1.393 . S
C332 H304 0.931 . S
C332 C331 1.393 . S
C332 C333 1.382 . S
C333 H303 0.929 . S
C333 C328 1.371 . S
C333 C332 1.382 . S
C334 N297 1.423 . S
C334 C335 1.362 . S
C334 C339 1.388 . S
C335 H305 0.929 . S
C335 C334 1.362 . S
C335 C336 1.376 . S
C336 H307 0.931 . S
C336 C335 1.376 . S
C336 C337 1.396 . S
C337 C336 1.396 . S
C337 C338 1.348 . S
C337 C355 1.472 . S
C338 H308 0.929 . S
C338 C337 1.348 . S
C338 C339 1.443 . S
C339 H306 0.932 . S
C339 C334 1.388 . S
C339 C338 1.443 . S
C340 N320 1.433 . S
C340 C341 1.363 . S
C340 C345 1.370 . S
C341 H309 0.929 . S
C341 C340 1.363 . S
C341 C342 1.385 . S
C342 H310 0.930 . S
C342 C341 1.385 . S
C342 C343 1.357 . S
C343 C342 1.357 . S
C343 C344 1.406 . S
C344 H311 0.929 . S
C344 C343 1.406 . S
C344 C345 1.391 . S
C345 H312 0.931 . S
C345 C340 1.370 . S
C345 C344 1.391 . S
C346 N320 1.435 . S
C346 C347 1.358 . S
C346 C351 1.371 . S
C347 H313 0.930 . S
C347 C346 1.358 . S
C347 C348 1.405 . S
C348 H314 0.932 . S
C348 C347 1.405 . S
C348 C349 1.383 . S
C349 C348 1.383 . S
C349 C350 1.393 . S
C350 H315 0.931 . S
C350 C349 1.393 . S
C350 C351 1.382 . S
C351 H316 0.929 . S
C351 C346 1.371 . S
C351 C350 1.382 . S
C352 N320 1.423 . S
C352 C353 1.362 . S
C352 C357 1.388 . S
C353 H317 0.929 . S
C353 C352 1.362 . S
C353 C354 1.376 . S
C354 H318 0.931 . S
C354 C353 1.376 . S
C354 C355 1.396 . S
C355 C337 1.472 . S
C355 C354 1.396 . S
C355 C356 1.348 . S
C356 H319 0.929 . S
C356 C355 1.348 . S
C356 C357 1.443 . S
C357 H321 0.932 . S
C357 C352 1.388 . S
C357 C356 1.443 . S
H358 C385 0.929 . S
N359 C384 1.433 . S
N359 C390 1.435 . S
N359 C396 1.423 . S
H360 C386 0.930 . S
H361 C389 0.931 . S
H362 C388 0.929 . S
H363 C391 0.930 . S
H364 C392 0.932 . S
H365 C395 0.929 . S
H366 C394 0.931 . S
H367 C397 0.929 . S
H368 C401 0.932 . S
H369 C398 0.931 . S
H370 C400 0.929 . S
H371 C403 0.929 . S
H372 C404 0.930 . S
H373 C406 0.929 . S
H374 C407 0.931 . S
H375 C409 0.930 . S
H376 C410 0.932 . S
H377 C412 0.931 . S
H378 C413 0.929 . S
H379 C415 0.929 . S
H380 C416 0.931 . S
H381 C418 0.929 . S
N382 C402 1.433 . S
N382 C408 1.435 . S
N382 C414 1.423 . S
H383 C419 0.932 . S
C384 N359 1.433 . S
C384 C385 1.363 . S
C384 C389 1.370 . S
C385 H358 0.929 . S
C385 C384 1.363 . S
C385 C386 1.385 . S
C386 H360 0.930 . S
C386 C385 1.385 . S
C386 C387 1.357 . S
C387 C386 1.357 . S
C387 C388 1.406 . S
C388 H362 0.929 . S
C388 C387 1.406 . S
C388 C389 1.391 . S
C389 H361 0.931 . S
C389 C384 1.370 . S
C389 C388 1.391 . S
C390 N359 1.435 . S
C390 C391 1.358 . S
C390 C395 1.371 . S
C391 H363 0.930 . S
C391 C390 1.358 . S
C391 C392 1.405 . S
C392 H364 0.932 . S
C392 C391 1.405 . S
C392 C393 1.383 . S
C393 C392 1.383 . S
C393 C394 1.393 . S
C394 H366 0.931 . S
C394 C393 1.393 . S
C394 C395 1.382 . S
C395 H365 0.929 . S
C395 C390 1.371 . S
C395 C394 1.382 . S
C396 N359 1.423 . S
C396 C397 1.362 . S
C396 C401 1.388 . S
C397 H367 0.929 . S
C397 C396 1.362 . S
C397 C398 1.376 . S
C398 H369 0.931 . S
C398 C397 1.376 . S
C398 C399 1.396 . S
C399 C398 1.396 . S
C399 C400 1.348 . S
C399 C417 1.472 . S
C400 H370 0.929 . S
C400 C399 1.348 . S
C400 C401 1.443 . S
C401 H368 0.932 . S
C401 C396 1.388 . S
C401 C400 1.443 . S
C402 N382 1.433 . S
C402 C403 1.363 . S
C402 C407 1.370 . S
C403 H371 0.929 . S
C403 C402 1.363 . S
C403 C404 1.385 . S
C404 H372 0.930 . S
C404 C403 1.385 . S
C404 C405 1.357 . S
C405 C404 1.357 . S
C405 C406 1.406 . S
C406 H373 0.929 . S
C406 C405 1.406 . S
C406 C407 1.391 . S
C407 H374 0.931 . S
C407 C402 1.370 . S
C407 C406 1.391 . S
C408 N382 1.435 . S
C408 C409 1.358 . S
C408 C413 1.371 . S
C409 H375 0.930 . S
C409 C408 1.358 . S
C409 C410 1.405 . S
C410 H376 0.932 . S
C410 C409 1.405 . S
C410 C411 1.383 . S
C411 C410 1.383 . S
C411 C412 1.393 . S
C412 H377 0.931 . S
C412 C411 1.393 . S
C412 C413 1.382 . S
C413 H378 0.929 . S
C413 C408 1.371 . S
C413 C412 1.382 . S
C414 N382 1.423 . S
C414 C415 1.362 . S
C414 C419 1.388 . S
C415 H379 0.929 . S
C415 C414 1.362 . S
C415 C416 1.376 . S
C416 H380 0.931 . S
C416 C415 1.376 . S
C416 C417 1.396 . S
C417 C399 1.472 . S
C417 C416 1.396 . S
C417 C418 1.348 . S
C418 H381 0.929 . S
C418 C417 1.348 . S
C418 C419 1.443 . S
C419 H383 0.932 . S
C419 C414 1.388 . S
C419 C418 1.443 . S
H420 C447 0.929 . S
N421 C446 1.433 . S
N421 C452 1.435 . S
N421 C458 1.423 . S
H422 C448 0.930 . S
H423 C451 0.931 . S
H424 C450 0.929 . S
H425 C453 0.930 . S
H426 C454 0.932 . S
H427 C457 0.929 . S
H428 C456 0.931 . S
H429 C459 0.929 . S
H430 C463 0.932 . S
H431 C460 0.931 . S
H432 C462 0.929 . S
H433 C465 0.929 . S
H434 C466 0.930 . S
H435 C468 0.929 . S
H436 C469 0.931 . S
H437 C471 0.930 . S
H438 C472 0.932 . S
H439 C474 0.931 . S
H440 C475 0.929 . S
H441 C477 0.929 . S
H442 C478 0.931 . S
H443 C480 0.929 . S
N444 C464 1.433 . S
N444 C470 1.435 . S
N444 C476 1.423 . S
H445 C481 0.932 . S
C446 N421 1.433 . S
C446 C447 1.363 . S
C446 C451 1.370 . S
C447 H420 0.929 . S
C447 C446 1.363 . S
C447 C448 1.385 . S
C448 H422 0.930 . S
C448 C447 1.385 . S
C448 C449 1.357 . S
C449 C448 1.357 . S
C449 C450 1.406 . S
C450 H424 0.929 . S
C450 C449 1.406 . S
C450 C451 1.391 . S
C451 H423 0.931 . S
C451 C446 1.370 . S
C451 C450 1.391 . S
C452 N421 1.435 . S
C452 C453 1.358 . S
C452 C457 1.371 . S
C453 H425 0.930 . S
C453 C452 1.358 . S
C453 C454 1.405 . S
C454 H426 0.932 . S
C454 C453 1.405 . S
C454 C455 1.383 . S
C455 C454 1.383 . S
C455 C456 1.393 . S
C456 H428 0.931 . S
C456 C455 1.393 . S
C456 C457 1.382 . S
C457 H427 0.929 . S
C457 C452 1.371 . S
C457 C456 1.382 . S
C458 N421 1.423 . S
C458 C459 1.362 . S
C458 C463 1.388 . S
C459 H429 0.929 . S
C459 C458 1.362 . S
C459 C460 1.376 . S
C460 H431 0.931 . S
C460 C459 1.376 . S
C460 C461 1.396 . S
C461 C460 1.396 . S
C461 C462 1.348 . S
C461 C479 1.472 . S
C462 H432 0.929 . S
C462 C461 1.348 . S
C462 C463 1.443 . S
C463 H430 0.932 . S
C463 C458 1.388 . S
C463 C462 1.443 . S
C464 N444 1.433 . S
C464 C465 1.363 . S
C464 C469 1.370 . S
C465 H433 0.929 . S
C465 C464 1.363 . S
C465 C466 1.385 . S
C466 H434 0.930 . S
C466 C465 1.385 . S
C466 C467 1.357 . S
C467 C466 1.357 . S
C467 C468 1.406 . S
C468 H435 0.929 . S
C468 C467 1.406 . S
C468 C469 1.391 . S
C469 H436 0.931 . S
C469 C464 1.370 . S
C469 C468 1.391 . S
C470 N444 1.435 . S
C470 C471 1.358 . S
C470 C475 1.371 . S
C471 H437 0.930 . S
C471 C470 1.358 . S
C471 C472 1.405 . S
C472 H438 0.932 . S
C472 C471 1.405 . S
C472 C473 1.383 . S
C473 C472 1.383 . S
C473 C474 1.393 . S
C474 H439 0.931 . S
C474 C473 1.393 . S
C474 C475 1.382 . S
C475 H440 0.929 . S
C475 C470 1.371 . S
C475 C474 1.382 . S
C476 N444 1.423 . S
C476 C477 1.362 . S
C476 C481 1.388 . S
C477 H441 0.929 . S
C477 C476 1.362 . S
C477 C478 1.376 . S
C478 H442 0.931 . S
C478 C477 1.376 . S
C478 C479 1.396 . S
C479 C461 1.472 . S
C479 C478 1.396 . S
C479 C480 1.348 . S
C480 H443 0.929 . S
C480 C479 1.348 . S
C480 C481 1.443 . S
C481 H445 0.932 . S
C481 C476 1.388 . S
C481 C480 1.443 . S
H482 C509 0.929 . S
N483 C508 1.433 . S
N483 C514 1.435 . S
N483 C520 1.423 . S
H484 C510 0.930 . S
H485 C513 0.931 . S
H486 C512 0.929 . S
H487 C515 0.930 . S
H488 C516 0.932 . S
H489 C519 0.929 . S
H490 C518 0.931 . S
H491 C521 0.929 . S
H492 C525 0.932 . S
H493 C522 0.931 . S
H494 C524 0.929 . S
H495 C527 0.929 . S
H496 C528 0.930 . S
H497 C530 0.929 . S
H498 C531 0.931 . S
H499 C533 0.930 . S
H500 C534 0.932 . S
H501 C536 0.931 . S
H502 C537 0.929 . S
H503 C539 0.929 . S
H504 C540 0.931 . S
H505 C542 0.929 . S
N506 C526 1.433 . S
N506 C532 1.435 . S
N506 C538 1.423 . S
H507 C543 0.932 . S
C508 N483 1.433 . S
C508 C509 1.363 . S
C508 C513 1.370 . S
C509 H482 0.929 . S
C509 C508 1.363 . S
C509 C510 1.385 . S
C510 H484 0.930 . S
C510 C509 1.385 . S
C510 C511 1.357 . S
C511 C510 1.357 . S
C511 C512 1.406 . S
C512 H486 0.929 . S
C512 C511 1.406 . S
C512 C513 1.391 . S
C513 H485 0.931 . S
C513 C508 1.370 . S
C513 C512 1.391 . S
C514 N483 1.435 . S
C514 C515 1.358 . S
C514 C519 1.371 . S
C515 H487 0.930 . S
C515 C514 1.358 . S
C515 C516 1.405 . S
C516 H488 0.932 . S
C516 C515 1.405 . S
C516 C517 1.383 . S
C517 C516 1.383 . S
C517 C518 1.393 . S
C518 H490 0.931 . S
C518 C517 1.393 . S
C518 C519 1.382 . S
C519 H489 0.929 . S
C519 C514 1.371 . S
C519 C518 1.382 . S
C520 N483 1.423 . S
C520 C521 1.362 . S
C520 C525 1.388 . S
C521 H491 0.929 . S
C521 C520 1.362 . S
C521 C522 1.376 . S
C522 H493 0.931 . S
C522 C521 1.376 . S
C522 C523 1.396 . S
C523 C522 1.396 . S
C523 C524 1.348 . S
C523 C541 1.472 . S
C524 H494 0.929 . S
C524 C523 1.348 . S
C524 C525 1.443 . S
C525 H492 0.932 . S
C525 C520 1.388 . S
C525 C524 1.443 . S
C526 N506 1.433 . S
C526 C527 1.363 . S
C526 C531 1.370 . S
C527 H495 0.929 . S
C527 C526 1.363 . S
C527 C528 1.385 . S
C528 H496 0.930 . S
C528 C527 1.385 . S
C528 C529 1.357 . S
C529 C528 1.357 . S
C529 C530 1.406 . S
C530 H497 0.929 . S
C530 C529 1.406 . S
C530 C531 1.391 . S
C531 H498 0.931 . S
C531 C526 1.370 . S
C531 C530 1.391 . S
C532 N506 1.435 . S
C532 C533 1.358 . S
C532 C537 1.371 . S
C533 H499 0.930 . S
C533 C532 1.358 . S
C533 C534 1.405 . S
C534 H500 0.932 . S
C534 C533 1.405 . S
C534 C535 1.383 . S
C535 C534 1.383 . S
C535 C536 1.393 . S
C536 H501 0.931 . S
C536 C535 1.393 . S
C536 C537 1.382 . S
C537 H502 0.929 . S
C537 C532 1.371 . S
C537 C536 1.382 . S
C538 N506 1.423 . S
C538 C539 1.362 . S
C538 C543 1.388 . S
C539 H503 0.929 . S
C539 C538 1.362 . S
C539 C540 1.376 . S
C540 H504 0.931 . S
C540 C539 1.376 . S
C540 C541 1.396 . S
C541 C523 1.472 . S
C541 C540 1.396 . S
C541 C542 1.348 . S
C542 H505 0.929 . S
C542 C541 1.348 . S
C542 C543 1.443 . S
C543 H507 0.932 . S
C543 C538 1.388 . S
C543 C542 1.443 . S
H544 C571 0.929 . S
N545 C570 1.433 . S
N545 C576 1.435 . S
N545 C582 1.423 . S
H546 C572 0.930 . S
H547 C575 0.931 . S
H548 C574 0.929 . S
H549 C577 0.930 . S
H550 C578 0.932 . S
H551 C581 0.929 . S
H552 C580 0.931 . S
H553 C583 0.929 . S
H554 C587 0.932 . S
H555 C584 0.931 . S
H556 C586 0.929 . S
H557 C589 0.929 . S
H558 C590 0.930 . S
H559 C592 0.929 . S
H560 C593 0.931 . S
H561 C595 0.930 . S
H562 C596 0.932 . S
H563 C598 0.931 . S
H564 C599 0.929 . S
H565 C601 0.929 . S
H566 C602 0.931 . S
H567 C604 0.929 . S
N568 C588 1.433 . S
N568 C594 1.435 . S
N568 C600 1.423 . S
H569 C605 0.932 . S
C570 N545 1.433 . S
C570 C571 1.363 . S
C570 C575 1.370 . S
C571 H544 0.929 . S
C571 C570 1.363 . S
C571 C572 1.385 . S
C572 H546 0.930 . S
C572 C571 1.385 . S
C572 C573 1.357 . S
C573 C572 1.357 . S
C573 C574 1.406 . S
C574 H548 0.929 . S
C574 C573 1.406 . S
C574 C575 1.391 . S
C575 H547 0.931 . S
C575 C570 1.370 . S
C575 C574 1.391 . S
C576 N545 1.435 . S
C576 C577 1.358 . S
C576 C581 1.371 . S
C577 H549 0.930 . S
C577 C576 1.358 . S
C577 C578 1.405 . S
C578 H550 0.932 . S
C578 C577 1.405 . S
C578 C579 1.383 . S
C579 C578 1.383 . S
C579 C580 1.393 . S
C580 H552 0.931 . S
C580 C579 1.393 . S
C580 C581 1.382 . S
C581 H551 0.929 . S
C581 C576 1.371 . S
C581 C580 1.382 . S
C582 N545 1.423 . S
C582 C583 1.362 . S
C582 C587 1.388 . S
C583 H553 0.929 . S
C583 C582 1.362 . S
C583 C584 1.376 . S
C584 H555 0.931 . S
C584 C583 1.376 . S
C584 C585 1.396 . S
C585 C584 1.396 . S
C585 C586 1.348 . S
C585 C603 1.472 . S
C586 H556 0.929 . S
C586 C585 1.348 . S
C586 C587 1.443 . S
C587 H554 0.932 . S
C587 C582 1.388 . S
C587 C586 1.443 . S
C588 N568 1.433 . S
C588 C589 1.363 . S
C588 C593 1.370 . S
C589 H557 0.929 . S
C589 C588 1.363 . S
C589 C590 1.385 . S
C590 H558 0.930 . S
C590 C589 1.385 . S
C590 C591 1.357 . S
C591 C590 1.357 . S
C591 C592 1.406 . S
C592 H559 0.929 . S
C592 C591 1.406 . S
C592 C593 1.391 . S
C593 H560 0.931 . S
C593 C588 1.370 . S
C593 C592 1.391 . S
C594 N568 1.435 . S
C594 C595 1.358 . S
C594 C599 1.371 . S
C595 H561 0.930 . S
C595 C594 1.358 . S
C595 C596 1.405 . S
C596 H562 0.932 . S
C596 C595 1.405 . S
C596 C597 1.383 . S
C597 C596 1.383 . S
C597 C598 1.393 . S
C598 H563 0.931 . S
C598 C597 1.393 . S
C598 C599 1.382 . S
C599 H564 0.929 . S
C599 C594 1.371 . S
C599 C598 1.382 . S
C600 N568 1.423 . S
C600 C601 1.362 . S
C600 C605 1.388 . S
C601 H565 0.929 . S
C601 C600 1.362 . S
C601 C602 1.376 . S
C602 H566 0.931 . S
C602 C601 1.376 . S
C602 C603 1.396 . S
C603 C585 1.472 . S
C603 C602 1.396 . S
C603 C604 1.348 . S
C604 H567 0.929 . S
C604 C603 1.348 . S
C604 C605 1.443 . S
C605 H569 0.932 . S
C605 C600 1.388 . S
C605 C604 1.443 . S
H606 C633 0.929 . S
N607 C632 1.433 . S
N607 C638 1.435 . S
N607 C644 1.423 . S
H608 C634 0.930 . S
H609 C637 0.931 . S
H610 C636 0.929 . S
H611 C639 0.930 . S
H612 C640 0.932 . S
H613 C643 0.929 . S
H614 C642 0.931 . S
H615 C645 0.929 . S
H616 C649 0.932 . S
H617 C646 0.931 . S
H618 C648 0.929 . S
H619 C651 0.929 . S
H620 C652 0.930 . S
H621 C654 0.929 . S
H622 C655 0.931 . S
H623 C657 0.930 . S
H624 C658 0.932 . S
H625 C660 0.931 . S
H626 C661 0.929 . S
H627 C663 0.929 . S
H628 C664 0.931 . S
H629 C666 0.929 . S
N630 C650 1.433 . S
N630 C656 1.435 . S
N630 C662 1.423 . S
H631 C667 0.932 . S
C632 N607 1.433 . S
C632 C633 1.363 . S
C632 C637 1.370 . S
C633 H606 0.929 . S
C633 C632 1.363 . S
C633 C634 1.385 . S
C634 H608 0.930 . S
C634 C633 1.385 . S
C634 C635 1.357 . S
C635 C634 1.357 . S
C635 C636 1.406 . S
C636 H610 0.929 . S
C636 C635 1.406 . S
C636 C637 1.391 . S
C637 H609 0.931 . S
C637 C632 1.370 . S
C637 C636 1.391 . S
C638 N607 1.435 . S
C638 C639 1.358 . S
C638 C643 1.371 . S
C639 H611 0.930 . S
C639 C638 1.358 . S
C639 C640 1.405 . S
C640 H612 0.932 . S
C640 C639 1.405 . S
C640 C641 1.383 . S
C641 C640 1.383 . S
C641 C642 1.393 . S
C642 H614 0.931 . S
C642 C641 1.393 . S
C642 C643 1.382 . S
C643 H613 0.929 . S
C643 C638 1.371 . S
C643 C642 1.382 . S
C644 N607 1.423 . S
C644 C645 1.362 . S
C644 C649 1.388 . S
C645 H615 0.929 . S
C645 C644 1.362 . S
C645 C646 1.376 . S
C646 H617 0.931 . S
C646 C645 1.376 . S
C646 C647 1.396 . S
C647 C646 1.396 . S
C647 C648 1.348 . S
C647 C665 1.472 . S
C648 H618 0.929 . S
C648 C647 1.348 . S
C648 C649 1.443 . S
C649 H616 0.932 . S
C649 C644 1.388 . S
C649 C648 1.443 . S
C650 N630 1.433 . S
C650 C651 1.363 . S
C650 C655 1.370 . S
C651 H619 0.929 . S
C651 C650 1.363 . S
C651 C652 1.385 . S
C652 H620 0.930 . S
C652 C651 1.385 . S
C652 C653 1.357 . S
C653 C652 1.357 . S
C653 C654 1.406 . S
C654 H621 0.929 . S
C654 C653 1.406 . S
C654 C655 1.391 . S
C655 H622 0.931 . S
C655 C650 1.370 . S
C655 C654 1.391 . S
C656 N630 1.435 . S
C656 C657 1.358 . S
C656 C661 1.371 . S
C657 H623 0.930 . S
C657 C656 1.358 . S
C657 C658 1.405 . S
C658 H624 0.932 . S
C658 C657 1.405 . S
C658 C659 1.383 . S
C659 C658 1.383 . S
C659 C660 1.393 . S
C660 H625 0.931 . S
C660 C659 1.393 . S
C660 C661 1.382 . S
C661 H626 0.929 . S
C661 C656 1.371 . S
C661 C660 1.382 . S
C662 N630 1.423 . S
C662 C663 1.362 . S
C662 C667 1.388 . S
C663 H627 0.929 . S
C663 C662 1.362 . S
C663 C664 1.376 . S
C664 H628 0.931 . S
C664 C663 1.376 . S
C664 C665 1.396 . S
C665 C647 1.472 . S
C665 C664 1.396 . S
C665 C666 1.348 . S
C666 H629 0.929 . S
C666 C665 1.348 . S
C666 C667 1.443 . S
C667 H631 0.932 . S
C667 C662 1.388 . S
C667 C666 1.443 . S
H668 C695 0.929 . S
N669 C694 1.433 . S
N669 C700 1.435 . S
N669 C706 1.423 . S
H670 C696 0.930 . S
H671 C699 0.931 . S
H672 C698 0.929 . S
H673 C701 0.930 . S
H674 C702 0.932 . S
H675 C705 0.929 . S
H676 C704 0.931 . S
H677 C707 0.929 . S
H678 C711 0.932 . S
H679 C708 0.931 . S
H680 C710 0.929 . S
H681 C713 0.929 . S
H682 C714 0.930 . S
H683 C716 0.929 . S
H684 C717 0.931 . S
H685 C719 0.930 . S
H686 C720 0.932 . S
H687 C722 0.931 . S
H688 C723 0.929 . S
H689 C725 0.929 . S
H690 C726 0.931 . S
H691 C728 0.929 . S
N692 C712 1.433 . S
N692 C718 1.435 . S
N692 C724 1.423 . S
H693 C729 0.932 . S
C694 N669 1.433 . S
C694 C695 1.363 . S
C694 C699 1.370 . S
C695 H668 0.929 . S
C695 C694 1.363 . S
C695 C696 1.385 . S
C696 H670 0.930 . S
C696 C695 1.385 . S
C696 C697 1.357 . S
C697 C696 1.357 . S
C697 C698 1.406 . S
C698 H672 0.929 . S
C698 C697 1.406 . S
C698 C699 1.391 . S
C699 H671 0.931 . S
C699 C694 1.370 . S
C699 C698 1.391 . S
C700 N669 1.435 . S
C700 C701 1.358 . S
C700 C705 1.371 . S
C701 H673 0.930 . S
C701 C700 1.358 . S
C701 C702 1.405 . S
C702 H674 0.932 . S
C702 C701 1.405 . S
C702 C703 1.383 . S
C703 C702 1.383 . S
C703 C704 1.393 . S
C704 H676 0.931 . S
C704 C703 1.393 . S
C704 C705 1.382 . S
C705 H675 0.929 . S
C705 C700 1.371 . S
C705 C704 1.382 . S
C706 N669 1.423 . S
C706 C707 1.362 . S
C706 C711 1.388 . S
C707 H677 0.929 . S
C707 C706 1.362 . S
C707 C708 1.376 . S
C708 H679 0.931 . S
C708 C707 1.376 . S
C708 C709 1.396 . S
C709 C708 1.396 . S
C709 C710 1.348 . S
C709 C727 1.472 . S
C710 H680 0.929 . S
C710 C709 1.348 . S
C710 C711 1.443 . S
C711 H678 0.932 . S
C711 C706 1.388 . S
C711 C710 1.443 . S
C712 N692 1.433 . S
C712 C713 1.363 . S
C712 C717 1.370 . S
C713 H681 0.929 . S
C713 C712 1.363 . S
C713 C714 1.385 . S
C714 H682 0.930 . S
C714 C713 1.385 . S
C714 C715 1.357 . S
C715 C714 1.357 . S
C715 C716 1.406 . S
C716 H683 0.929 . S
C716 C715 1.406 . S
C716 C717 1.391 . S
C717 H684 0.931 . S
C717 C712 1.370 . S
C717 C716 1.391 . S
C718 N692 1.435 . S
C718 C719 1.358 . S
C718 C723 1.371 . S
C719 H685 0.930 . S
C719 C718 1.358 . S
C719 C720 1.405 . S
C720 H686 0.932 . S
C720 C719 1.405 . S
C720 C721 1.383 . S
C721 C720 1.383 . S
C721 C722 1.393 . S
C722 H687 0.931 . S
C722 C721 1.393 . S
C722 C723 1.382 . S
C723 H688 0.929 . S
C723 C718 1.371 . S
C723 C722 1.382 . S
C724 N692 1.423 . S
C724 C725 1.362 . S
C724 C729 1.388 . S
C725 H689 0.929 . S
C725 C724 1.362 . S
C725 C726 1.376 . S
C726 H690 0.931 . S
C726 C725 1.376 . S
C726 C727 1.396 . S
C727 C709 1.472 . S
C727 C726 1.396 . S
C727 C728 1.348 . S
C728 H691 0.929 . S
C728 C727 1.348 . S
C728 C729 1.443 . S
C729 H693 0.932 . S
C729 C724 1.388 . S
C729 C728 1.443 . S
H730 C757 0.929 . S
N731 C756 1.433 . S
N731 C762 1.435 . S
N731 C768 1.423 . S
H732 C758 0.930 . S
H733 C761 0.931 . S
H734 C760 0.929 . S
H735 C763 0.930 . S
H736 C764 0.932 . S
H737 C767 0.929 . S
H738 C766 0.931 . S
H739 C769 0.929 . S
H740 C773 0.932 . S
H741 C770 0.931 . S
H742 C772 0.929 . S
H743 C775 0.929 . S
H744 C776 0.930 . S
H745 C778 0.929 . S
H746 C779 0.931 . S
H747 C781 0.930 . S
H748 C782 0.932 . S
H749 C784 0.931 . S
H750 C785 0.929 . S
H751 C787 0.929 . S
H752 C788 0.931 . S
H753 C790 0.929 . S
N754 C774 1.433 . S
N754 C780 1.435 . S
N754 C786 1.423 . S
H755 C791 0.932 . S
C756 N731 1.433 . S
C756 C757 1.363 . S
C756 C761 1.370 . S
C757 H730 0.929 . S
C757 C756 1.363 . S
C757 C758 1.385 . S
C758 H732 0.930 . S
C758 C757 1.385 . S
C758 C759 1.357 . S
C759 C758 1.357 . S
C759 C760 1.406 . S
C760 H734 0.929 . S
C760 C759 1.406 . S
C760 C761 1.391 . S
C761 H733 0.931 . S
C761 C756 1.370 . S
C761 C760 1.391 . S
C762 N731 1.435 . S
C762 C763 1.358 . S
C762 C767 1.371 . S
C763 H735 0.930 . S
C763 C762 1.358 . S
C763 C764 1.405 . S
C764 H736 0.932 . S
C764 C763 1.405 . S
C764 C765 1.383 . S
C765 C764 1.383 . S
C765 C766 1.393 . S
C766 H738 0.931 . S
C766 C765 1.393 . S
C766 C767 1.382 . S
C767 H737 0.929 . S
C767 C762 1.371 . S
C767 C766 1.382 . S
C768 N731 1.423 . S
C768 C769 1.362 . S
C768 C773 1.388 . S
C769 H739 0.929 . S
C769 C768 1.362 . S
C769 C770 1.376 . S
C770 H741 0.931 . S
C770 C769 1.376 . S
C770 C771 1.396 . S
C771 C770 1.396 . S
C771 C772 1.348 . S
C771 C789 1.472 . S
C772 H742 0.929 . S
C772 C771 1.348 . S
C772 C773 1.443 . S
C773 H740 0.932 . S
C773 C768 1.388 . S
C773 C772 1.443 . S
C774 N754 1.433 . S
C774 C775 1.363 . S
C774 C779 1.370 . S
C775 H743 0.929 . S
C775 C774 1.363 . S
C775 C776 1.385 . S
C776 H744 0.930 . S
C776 C775 1.385 . S
C776 C777 1.357 . S
C777 C776 1.357 . S
C777 C778 1.406 . S
C778 H745 0.929 . S
C778 C777 1.406 . S
C778 C779 1.391 . S
C779 H746 0.931 . S
C779 C774 1.370 . S
C779 C778 1.391 . S
C780 N754 1.435 . S
C780 C781 1.358 . S
C780 C785 1.371 . S
C781 H747 0.930 . S
C781 C780 1.358 . S
C781 C782 1.405 . S
C782 H748 0.932 . S
C782 C781 1.405 . S
C782 C783 1.383 . S
C783 C782 1.383 . S
C783 C784 1.393 . S
C784 H749 0.931 . S
C784 C783 1.393 . S
C784 C785 1.382 . S
C785 H750 0.929 . S
C785 C780 1.371 . S
C785 C784 1.382 . S
C786 N754 1.423 . S
C786 C787 1.362 . S
C786 C791 1.388 . S
C787 H751 0.929 . S
C787 C786 1.362 . S
C787 C788 1.376 . S
C788 H752 0.931 . S
C788 C787 1.376 . S
C788 C789 1.396 . S
C789 C771 1.472 . S
C789 C788 1.396 . S
C789 C790 1.348 . S
C790 H753 0.929 . S
C790 C789 1.348 . S
C790 C791 1.443 . S
C791 H755 0.932 . S
C791 C786 1.388 . S
C791 C790 1.443 . S
H792 C819 0.929 . S
N793 C818 1.433 . S
N793 C824 1.435 . S
N793 C830 1.423 . S
H794 C820 0.930 . S
H795 C823 0.931 . S
H796 C822 0.929 . S
H797 C825 0.930 . S
H798 C826 0.932 . S
H799 C829 0.929 . S
H800 C828 0.931 . S
H801 C831 0.929 . S
H802 C835 0.932 1_655 S
H803 C832 0.931 . S
H804 C834 0.936 . S
H805 C837 0.929 . S
H806 C838 0.930 . S
H807 C840 0.929 . S
H808 C841 0.931 . S
H809 C843 0.930 . S
H810 C844 0.932 . S
H811 C846 0.931 . S
H812 C847 0.929 . S
H813 C849 0.929 . S
H814 C850 0.931 . S
H815 C852 0.990 . S
N816 C836 1.433 . S
N816 C842 1.435 . S
N816 C848 1.423 . S
H817 C853 0.932 1_655 S
C818 N793 1.433 . S
C818 C819 1.363 . S
C818 C823 1.370 1_455 S
C819 H792 0.929 . S
C819 C818 1.363 . S
C819 C820 1.385 . S
C820 H794 0.930 . S
C820 C819 1.385 . S
C820 C821 1.357 1_455 S
C821 C820 1.357 1_655 S
C821 C822 1.406 . S
C822 H796 0.929 . S
C822 C821 1.406 . S
C822 C823 1.391 . S
C823 H795 0.931 . S
C823 C818 1.370 1_655 S
C823 C822 1.391 . S
C824 N793 1.435 . S
C824 C825 1.358 1_455 S
C824 C829 1.371 . S
C825 H797 0.930 . S
C825 C824 1.358 1_655 S
C825 C826 1.405 . S
C826 H798 0.932 . S
C826 C825 1.405 . S
C826 C827 1.383 1_655 S
C827 C826 1.383 1_455 S
C827 C828 1.393 . S
C828 H800 0.931 . S
C828 C827 1.393 . S
C828 C829 1.382 . S
C829 H799 0.929 . S
C829 C824 1.371 . S
C829 C828 1.382 . S
C830 N793 1.423 . S
C830 C831 1.362 . S
C830 C835 1.388 . S
C831 H801 0.929 . S
C831 C830 1.362 . S
C831 C832 1.376 . S
C832 H803 0.931 . S
C832 C831 1.376 . S
C832 C833 1.396 . S
C833 C832 1.396 . S
C833 C834 1.348 . S
C833 C851 1.472 . S
C834 H804 0.936 . S
C834 C833 1.348 . S
C834 C835 1.443 . S
C835 H802 0.932 1_455 S
C835 C830 1.388 . S
C835 C834 1.443 . S
C836 N816 1.433 . S
C836 C837 1.363 . S
C836 C841 1.370 1_455 S
C837 H805 0.929 . S
C837 C836 1.363 . S
C837 C838 1.385 . S
C838 H806 0.930 . S
C838 C837 1.385 . S
C838 C839 1.357 1_455 S
C839 C838 1.357 1_655 S
C839 C840 1.406 . S
C840 H807 0.929 . S
C840 C839 1.406 . S
C840 C841 1.391 . S
C841 H808 0.931 . S
C841 C836 1.370 1_655 S
C841 C840 1.391 . S
C842 N816 1.435 . S
C842 C843 1.358 1_455 S
C842 C847 1.371 . S
C843 H809 0.930 . S
C843 C842 1.358 1_655 S
C843 C844 1.405 . S
C844 H810 0.932 . S
C844 C843 1.405 . S
C844 C845 1.383 1_655 S
C845 C844 1.383 1_455 S
C845 C846 1.393 . S
C846 H811 0.931 . S
C846 C845 1.393 . S
C846 C847 1.382 . S
C847 H812 0.929 . S
C847 C842 1.371 . S
C847 C846 1.382 . S
C848 N816 1.423 . S
C848 C849 1.362 . S
C848 C853 1.388 . S
C849 H813 0.929 . S
C849 C848 1.362 . S
C849 C850 1.376 . S
C850 H814 0.931 . S
C850 C849 1.376 . S
C850 C851 1.396 . S
C851 C833 1.472 . S
C851 C850 1.396 . S
C851 C852 1.348 . S
C852 H815 0.990 . S
C852 C851 1.348 . S
C852 C853 1.443 . S
C853 H817 0.932 1_455 S
C853 C848 1.388 . S
C853 C852 1.443 . S
H854 C881 0.929 . S
N855 C880 1.433 . S
N855 C886 1.435 . S
N855 C892 1.423 . S
H856 C882 0.930 . S
H857 C885 0.931 . S
H858 C884 0.929 . S
H859 C887 0.930 . S
H860 C888 0.932 . S
H861 C891 0.929 . S
H862 C890 0.931 . S
H863 C893 0.929 . S
H864 C897 0.932 . S
H865 C894 0.931 . S
H866 C896 0.929 . S
H867 C899 0.929 . S
H868 C900 0.930 . S
H869 C902 0.929 . S
H870 C903 0.931 . S
H871 C905 0.930 . S
H872 C906 0.932 . S
H873 C908 0.931 . S
H874 C909 0.929 . S
H875 C911 0.929 . S
H876 C912 0.931 . S
H877 C914 0.929 . S
N878 C898 1.433 . S
N878 C904 1.435 . S
N878 C910 1.423 . S
H879 C915 0.932 . S
C880 N855 1.433 . S
C880 C881 1.363 . S
C880 C885 1.370 . S
C881 H854 0.929 . S
C881 C880 1.363 . S
C881 C882 1.385 . S
C882 H856 0.930 . S
C882 C881 1.385 . S
C882 C883 1.357 . S
C883 C882 1.357 . S
C883 C884 1.406 . S
C884 H858 0.929 . S
C884 C883 1.406 . S
C884 C885 1.391 . S
C885 H857 0.931 . S
C885 C880 1.370 . S
C885 C884 1.391 . S
C886 N855 1.435 . S
C886 C887 1.358 . S
C886 C891 1.371 . S
C887 H859 0.930 . S
C887 C886 1.358 . S
C887 C888 1.405 . S
C888 H860 0.932 . S
C888 C887 1.405 . S
C888 C889 1.383 . S
C889 C888 1.383 . S
C889 C890 1.393 . S
C890 H862 0.931 . S
C890 C889 1.393 . S
C890 C891 1.382 . S
C891 H861 0.929 . S
C891 C886 1.371 . S
C891 C890 1.382 . S
C892 N855 1.423 . S
C892 C893 1.362 . S
C892 C897 1.388 . S
C893 H863 0.929 . S
C893 C892 1.362 . S
C893 C894 1.376 . S
C894 H865 0.931 . S
C894 C893 1.376 . S
C894 C895 1.396 . S
C895 C894 1.396 . S
C895 C896 1.348 . S
C895 C913 1.472 . S
C896 H866 0.929 . S
C896 C895 1.348 . S
C896 C897 1.443 . S
C897 H864 0.932 . S
C897 C892 1.388 . S
C897 C896 1.443 . S
C898 N878 1.433 . S
C898 C899 1.363 . S
C898 C903 1.370 . S
C899 H867 0.929 . S
C899 C898 1.363 . S
C899 C900 1.385 . S
C900 H868 0.930 . S
C900 C899 1.385 . S
C900 C901 1.357 . S
C901 C900 1.357 . S
C901 C902 1.406 . S
C902 H869 0.929 . S
C902 C901 1.406 . S
C902 C903 1.391 . S
C903 H870 0.931 . S
C903 C898 1.370 . S
C903 C902 1.391 . S
C904 N878 1.435 . S
C904 C905 1.358 . S
C904 C909 1.371 . S
C905 H871 0.930 . S
C905 C904 1.358 . S
C905 C906 1.405 . S
C906 H872 0.932 . S
C906 C905 1.405 . S
C906 C907 1.383 . S
C907 C906 1.383 . S
C907 C908 1.393 . S
C908 H873 0.931 . S
C908 C907 1.393 . S
C908 C909 1.382 . S
C909 H874 0.929 . S
C909 C904 1.371 . S
C909 C908 1.382 . S
C910 N878 1.423 . S
C910 C911 1.362 . S
C910 C915 1.388 . S
C911 H875 0.929 . S
C911 C910 1.362 . S
C911 C912 1.376 . S
C912 H876 0.931 . S
C912 C911 1.376 . S
C912 C913 1.396 . S
C913 C895 1.472 . S
C913 C912 1.396 . S
C913 C914 1.348 . S
C914 H877 0.929 . S
C914 C913 1.348 . S
C914 C915 1.443 . S
C915 H879 0.932 . S
C915 C910 1.388 . S
C915 C914 1.443 . S
H916 C943 0.929 . S
N917 C942 1.433 . S
N917 C948 1.435 . S
N917 C954 1.423 . S
H918 C944 0.930 . S
H919 C947 0.931 . S
H920 C946 0.929 . S
H921 C949 0.930 . S
H922 C950 0.932 . S
H923 C953 0.929 . S
H924 C952 0.931 . S
H925 C955 0.929 . S
H926 C959 0.932 1_545 S
H927 C956 0.931 . S
H928 C958 0.929 . S
H929 C961 0.929 . S
H930 C962 0.930 . S
H931 C964 0.929 . S
H932 C965 0.931 . S
H933 C967 0.930 . S
H934 C968 0.932 . S
H935 C970 0.931 . S
H936 C971 0.929 . S
H937 C973 0.929 . S
H938 C974 0.931 . S
H939 C976 0.939 . S
N940 C960 1.433 . S
N940 C966 1.435 . S
N940 C972 1.423 . S
H941 C977 0.932 1_545 S
C942 N917 1.433 . S
C942 C943 1.363 . S
C942 C947 1.370 1_565 S
C943 H916 0.929 . S
C943 C942 1.363 . S
C943 C944 1.385 . S
C944 H918 0.930 . S
C944 C943 1.385 . S
C944 C945 1.357 1_565 S
C945 C944 1.357 1_545 S
C945 C946 1.406 . S
C946 H920 0.929 . S
C946 C945 1.406 . S
C946 C947 1.391 . S
C947 H919 0.931 . S
C947 C942 1.370 1_545 S
C947 C946 1.391 . S
C948 N917 1.435 . S
C948 C949 1.358 1_565 S
C948 C953 1.371 . S
C949 H921 0.930 . S
C949 C948 1.358 1_545 S
C949 C950 1.405 . S
C950 H922 0.932 . S
C950 C949 1.405 . S
C950 C951 1.383 1_545 S
C951 C950 1.383 1_565 S
C951 C952 1.393 . S
C952 H924 0.931 . S
C952 C951 1.393 . S
C952 C953 1.382 . S
C953 H923 0.929 . S
C953 C948 1.371 . S
C953 C952 1.382 . S
C954 N917 1.423 . S
C954 C955 1.362 . S
C954 C959 1.388 . S
C955 H925 0.929 . S
C955 C954 1.362 . S
C955 C956 1.376 . S
C956 H927 0.931 . S
C956 C955 1.376 . S
C956 C957 1.396 . S
C957 C956 1.396 . S
C957 C958 1.348 . S
C957 C975 1.472 . S
C958 H928 0.929 . S
C958 C957 1.348 . S
C958 C959 1.443 . S
C959 H926 0.932 1_565 S
C959 C954 1.388 . S
C959 C958 1.443 . S
C960 N940 1.433 . S
C960 C961 1.363 . S
C960 C965 1.370 1_565 S
C961 H929 0.929 . S
C961 C960 1.363 . S
C961 C962 1.385 . S
C962 H930 0.930 . S
C962 C961 1.385 . S
C962 C963 1.357 1_565 S
C963 C962 1.357 1_545 S
C963 C964 1.406 . S
C964 H931 0.929 . S
C964 C963 1.406 . S
C964 C965 1.391 . S
C965 H932 0.931 . S
C965 C960 1.370 1_545 S
C965 C964 1.391 . S
C966 N940 1.435 . S
C966 C967 1.358 1_565 S
C966 C971 1.371 . S
C967 H933 0.930 . S
C967 C966 1.358 1_545 S
C967 C968 1.405 . S
C968 H934 0.932 . S
C968 C967 1.405 . S
C968 C969 1.383 1_545 S
C969 C968 1.383 1_565 S
C969 C970 1.393 . S
C970 H935 0.931 . S
C970 C969 1.393 . S
C970 C971 1.382 . S
C971 H936 0.929 . S
C971 C966 1.371 . S
C971 C970 1.382 . S
C972 N940 1.423 . S
C972 C973 1.362 . S
C972 C977 1.388 . S
C973 H937 0.929 . S
C973 C972 1.362 . S
C973 C974 1.376 . S
C974 H938 0.931 . S
C974 C973 1.376 . S
C974 C975 1.396 . S
C975 C957 1.472 . S
C975 C974 1.396 . S
C975 C976 1.348 . S
C976 H939 0.939 . S
C976 C975 1.348 . S
C976 C977 1.443 . S
C977 H941 0.932 1_565 S
C977 C972 1.388 . S
C977 C976 1.443 . S
H978 C1005 0.929 . S
N979 C1004 1.433 . S
N979 C1010 1.435 . S
N979 C1016 1.423 . S
H980 C1006 0.930 . S
H981 C1009 0.931 . S
H982 C1008 0.929 . S
H983 C1011 0.930 . S
H984 C1012 0.932 . S
H985 C1015 0.929 . S
H986 C1014 0.931 . S
H987 C1017 0.929 . S
H988 C1021 0.932 . S
H989 C1018 0.931 . S
H990 C1020 0.922 1_545 S
H991 C1023 0.929 . S
H992 C1024 0.930 . S
H993 C1026 0.973 . S
H994 C1027 0.958 . S
H995 C1029 0.930 . S
H996 C1030 0.932 . S
H997 C1032 0.931 . S
H998 C1033 0.929 . S
H999 C1035 0.929 . S
H1000 C1036 0.931 . S
H1001 C1038 0.879 1_545 S
N1002 C1022 1.433 . S
N1002 C1028 1.435 . S
N1002 C1034 1.423 . S
H1003 C1039 0.954 . S
C1004 N979 1.433 . S
C1004 C1005 1.363 . S
C1004 C1009 1.370 1_565 S
C1005 H978 0.929 . S
C1005 C1004 1.363 . S
C1005 C1006 1.385 . S
C1006 H980 0.930 . S
C1006 C1005 1.385 . S
C1006 C1007 1.357 . S
C1007 C1006 1.357 . S
C1007 C1008 1.406 1_565 S
C1008 H982 0.929 . S
C1008 C1007 1.406 1_545 S
C1008 C1009 1.391 . S
C1009 H981 0.931 . S
C1009 C1004 1.370 1_545 S
C1009 C1008 1.391 . S
C1010 N979 1.435 . S
C1010 C1011 1.358 1_565 S
C1010 C1015 1.371 . S
C1011 H983 0.930 . S
C1011 C1010 1.358 1_545 S
C1011 C1012 1.405 . S
C1012 H984 0.932 . S
C1012 C1011 1.405 . S
C1012 C1013 1.383 . S
C1013 C1012 1.383 . S
C1013 C1014 1.393 1_545 S
C1014 H986 0.931 . S
C1014 C1013 1.393 1_565 S
C1014 C1015 1.382 . S
C1015 H985 0.929 . S
C1015 C1010 1.371 . S
C1015 C1014 1.382 . S
C1016 N979 1.423 . S
C1016 C1017 1.362 . S
C1016 C1021 1.388 1_565 S
C1017 H987 0.929 . S
C1017 C1016 1.362 . S
C1017 C1018 1.376 . S
C1018 H989 0.931 . S
C1018 C1017 1.376 . S
C1018 C1019 1.396 . S
C1019 C1018 1.396 . S
C1019 C1020 1.380 . S
C1019 C1037 1.472 . S
C1020 H990 0.922 1_565 S
C1020 C1019 1.380 . S
C1020 C1021 1.419 1_565 S
C1021 H988 0.932 . S
C1021 C1016 1.388 1_545 S
C1021 C1020 1.419 1_545 S
C1022 N1002 1.433 . S
C1022 C1023 1.363 . S
C1022 C1027 1.349 1_565 S
C1023 H991 0.929 . S
C1023 C1022 1.363 . S
C1023 C1024 1.385 . S
C1024 H992 0.930 . S
C1024 C1023 1.385 . S
C1024 C1025 1.357 . S
C1025 C1024 1.357 . S
C1025 C1026 1.353 1_565 S
C1026 H993 0.973 . S
C1026 C1025 1.353 1_545 S
C1026 C1027 1.398 . S
C1027 H994 0.958 . S
C1027 C1022 1.349 1_545 S
C1027 C1026 1.398 . S
C1028 N1002 1.435 . S
C1028 C1029 1.358 1_565 S
C1028 C1033 1.371 . S
C1029 H995 0.930 . S
C1029 C1028 1.358 1_545 S
C1029 C1030 1.405 . S
C1030 H996 0.932 . S
C1030 C1029 1.405 . S
C1030 C1031 1.383 . S
C1031 C1030 1.383 . S
C1031 C1032 1.393 1_545 S
C1032 H997 0.931 . S
C1032 C1031 1.393 1_565 S
C1032 C1033 1.382 . S
C1033 H998 0.929 . S
C1033 C1028 1.371 . S
C1033 C1032 1.382 . S
C1034 N1002 1.423 . S
C1034 C1035 1.362 . S
C1034 C1039 1.341 1_565 S
C1035 H999 0.929 . S
C1035 C1034 1.362 . S
C1035 C1036 1.376 . S
C1036 H1000 0.931 . S
C1036 C1035 1.376 . S
C1036 C1037 1.396 . S
C1037 C1019 1.472 . S
C1037 C1036 1.396 . S
C1037 C1038 1.368 . S
C1038 H1001 0.879 1_565 S
C1038 C1037 1.368 . S
C1038 C1039 1.506 1_565 S
C1039 H1003 0.954 . S
C1039 C1034 1.341 1_545 S
C1039 C1038 1.506 1_545 S
H1040 C1067 0.929 . S
N1041 C1066 1.433 . S
N1041 C1072 1.435 . S
N1041 C1078 1.423 . S
H1042 C1068 0.930 . S
H1043 C1071 0.931 . S
H1044 C1070 0.929 . S
H1045 C1073 0.930 . S
H1046 C1074 0.932 . S
H1047 C1077 0.929 . S
H1048 C1076 0.931 . S
H1049 C1079 0.929 . S
H1050 C1083 0.932 1_455 S
H1051 C1080 0.931 . S
H1052 C1082 0.929 . S
H1053 C1085 0.929 . S
H1054 C1086 0.930 . S
H1055 C1088 0.929 . S
H1056 C1089 0.931 . S
H1057 C1091 0.930 . S
H1058 C1092 0.932 . S
H1059 C1094 0.931 . S
H1060 C1095 0.929 . S
H1061 C1097 0.929 . S
H1062 C1098 0.931 . S
H1063 C1100 0.938 . S
N1064 C1084 1.433 . S
N1064 C1090 1.435 . S
N1064 C1096 1.423 . S
H1065 C1101 0.932 1_455 S
C1066 N1041 1.433 . S
C1066 C1067 1.363 . S
C1066 C1071 1.370 1_655 S
C1067 H1040 0.929 . S
C1067 C1066 1.363 . S
C1067 C1068 1.385 . S
C1068 H1042 0.930 . S
C1068 C1067 1.385 . S
C1068 C1069 1.357 1_655 S
C1069 C1068 1.357 1_455 S
C1069 C1070 1.406 . S
C1070 H1044 0.929 . S
C1070 C1069 1.406 . S
C1070 C1071 1.391 . S
C1071 H1043 0.931 . S
C1071 C1066 1.370 1_455 S
C1071 C1070 1.391 . S
C1072 N1041 1.435 . S
C1072 C1073 1.358 1_655 S
C1072 C1077 1.371 . S
C1073 H1045 0.930 . S
C1073 C1072 1.358 1_455 S
C1073 C1074 1.405 . S
C1074 H1046 0.932 . S
C1074 C1073 1.405 . S
C1074 C1075 1.383 1_455 S
C1075 C1074 1.383 1_655 S
C1075 C1076 1.393 . S
C1076 H1048 0.931 . S
C1076 C1075 1.393 . S
C1076 C1077 1.382 . S
C1077 H1047 0.929 . S
C1077 C1072 1.371 . S
C1077 C1076 1.382 . S
C1078 N1041 1.423 . S
C1078 C1079 1.362 . S
C1078 C1083 1.388 . S
C1079 H1049 0.929 . S
C1079 C1078 1.362 . S
C1079 C1080 1.376 . S
C1080 H1051 0.931 . S
C1080 C1079 1.376 . S
C1080 C1081 1.396 . S
C1081 C1080 1.396 . S
C1081 C1082 1.348 . S
C1081 C1099 1.472 . S
C1082 H1052 0.929 . S
C1082 C1081 1.348 . S
C1082 C1083 1.443 . S
C1083 H1050 0.932 1_655 S
C1083 C1078 1.388 . S
C1083 C1082 1.443 . S
C1084 N1064 1.433 . S
C1084 C1085 1.363 . S
C1084 C1089 1.370 1_655 S
C1085 H1053 0.929 . S
C1085 C1084 1.363 . S
C1085 C1086 1.385 . S
C1086 H1054 0.930 . S
C1086 C1085 1.385 . S
C1086 C1087 1.357 1_655 S
C1087 C1086 1.357 1_455 S
C1087 C1088 1.406 . S
C1088 H1055 0.929 . S
C1088 C1087 1.406 . S
C1088 C1089 1.391 . S
C1089 H1056 0.931 . S
C1089 C1084 1.370 1_455 S
C1089 C1088 1.391 . S
C1090 N1064 1.435 . S
C1090 C1091 1.358 1_655 S
C1090 C1095 1.371 . S
C1091 H1057 0.930 . S
C1091 C1090 1.358 1_455 S
C1091 C1092 1.405 . S
C1092 H1058 0.932 . S
C1092 C1091 1.405 . S
C1092 C1093 1.383 1_455 S
C1093 C1092 1.383 1_655 S
C1093 C1094 1.393 . S
C1094 H1059 0.931 . S
C1094 C1093 1.393 . S
C1094 C1095 1.382 . S
C1095 H1060 0.929 . S
C1095 C1090 1.371 . S
C1095 C1094 1.382 . S
C1096 N1064 1.423 . S
C1096 C1097 1.362 . S
C1096 C1101 1.388 . S
C1097 H1061 0.929 . S
C1097 C1096 1.362 . S
C1097 C1098 1.376 . S
C1098 H1062 0.931 . S
C1098 C1097 1.376 . S
C1098 C1099 1.396 . S
C1099 C1081 1.472 . S
C1099 C1098 1.396 . S
C1099 C1100 1.348 . S
C1100 H1063 0.938 . S
C1100 C1099 1.348 . S
C1100 C1101 1.443 . S
C1101 H1065 0.932 1_655 S
C1101 C1096 1.388 . S
C1101 C1100 1.443 . S
H1102 C1129 0.929 . S
N1103 C1128 1.433 . S
N1103 C1134 1.435 . S
N1103 C1140 1.423 . S
H1104 C1130 0.930 . S
H1105 C1133 0.931 . S
H1106 C1132 0.929 . S
H1107 C1135 0.930 . S
H1108 C1136 0.932 . S
H1109 C1139 0.929 . S
H1110 C1138 0.931 . S
H1111 C1141 0.929 . S
H1112 C1145 0.932 . S
H1113 C1142 0.931 . S
H1114 C1144 0.929 . S
H1115 C1147 0.929 . S
H1116 C1148 0.930 . S
H1117 C1150 0.929 . S
H1118 C1151 0.931 . S
H1119 C1153 0.930 . S
H1120 C1154 0.932 . S
H1121 C1156 0.931 . S
H1122 C1157 0.929 . S
H1123 C1159 0.929 . S
H1124 C1160 0.931 . S
H1125 C1162 0.929 . S
N1126 C1146 1.433 . S
N1126 C1152 1.435 . S
N1126 C1158 1.423 . S
H1127 C1163 0.932 . S
C1128 N1103 1.433 . S
C1128 C1129 1.363 . S
C1128 C1133 1.370 . S
C1129 H1102 0.929 . S
C1129 C1128 1.363 . S
C1129 C1130 1.385 . S
C1130 H1104 0.930 . S
C1130 C1129 1.385 . S
C1130 C1131 1.357 . S
C1131 C1130 1.357 . S
C1131 C1132 1.406 . S
C1132 H1106 0.929 . S
C1132 C1131 1.406 . S
C1132 C1133 1.391 . S
C1133 H1105 0.931 . S
C1133 C1128 1.370 . S
C1133 C1132 1.391 . S
C1134 N1103 1.435 . S
C1134 C1135 1.358 . S
C1134 C1139 1.371 . S
C1135 H1107 0.930 . S
C1135 C1134 1.358 . S
C1135 C1136 1.405 . S
C1136 H1108 0.932 . S
C1136 C1135 1.405 . S
C1136 C1137 1.383 . S
C1137 C1136 1.383 . S
C1137 C1138 1.393 . S
C1138 H1110 0.931 . S
C1138 C1137 1.393 . S
C1138 C1139 1.382 . S
C1139 H1109 0.929 . S
C1139 C1134 1.371 . S
C1139 C1138 1.382 . S
C1140 N1103 1.423 . S
C1140 C1141 1.362 . S
C1140 C1145 1.388 . S
C1141 H1111 0.929 . S
C1141 C1140 1.362 . S
C1141 C1142 1.376 . S
C1142 H1113 0.931 . S
C1142 C1141 1.376 . S
C1142 C1143 1.396 . S
C1143 C1142 1.396 . S
C1143 C1144 1.348 . S
C1143 C1161 1.472 . S
C1144 H1114 0.929 . S
C1144 C1143 1.348 . S
C1144 C1145 1.443 . S
C1145 H1112 0.932 . S
C1145 C1140 1.388 . S
C1145 C1144 1.443 . S
C1146 N1126 1.433 . S
C1146 C1147 1.363 . S
C1146 C1151 1.370 . S
C1147 H1115 0.929 . S
C1147 C1146 1.363 . S
C1147 C1148 1.385 . S
C1148 H1116 0.930 . S
C1148 C1147 1.385 . S
C1148 C1149 1.357 . S
C1149 C1148 1.357 . S
C1149 C1150 1.406 . S
C1150 H1117 0.929 . S
C1150 C1149 1.406 . S
C1150 C1151 1.391 . S
C1151 H1118 0.931 . S
C1151 C1146 1.370 . S
C1151 C1150 1.391 . S
C1152 N1126 1.435 . S
C1152 C1153 1.358 . S
C1152 C1157 1.371 . S
C1153 H1119 0.930 . S
C1153 C1152 1.358 . S
C1153 C1154 1.405 . S
C1154 H1120 0.932 . S
C1154 C1153 1.405 . S
C1154 C1155 1.383 . S
C1155 C1154 1.383 . S
C1155 C1156 1.393 . S
C1156 H1121 0.931 . S
C1156 C1155 1.393 . S
C1156 C1157 1.382 . S
C1157 H1122 0.929 . S
C1157 C1152 1.371 . S
C1157 C1156 1.382 . S
C1158 N1126 1.423 . S
C1158 C1159 1.362 . S
C1158 C1163 1.388 . S
C1159 H1123 0.929 . S
C1159 C1158 1.362 . S
C1159 C1160 1.376 . S
C1160 H1124 0.931 . S
C1160 C1159 1.376 . S
C1160 C1161 1.396 . S
C1161 C1143 1.472 . S
C1161 C1160 1.396 . S
C1161 C1162 1.348 . S
C1162 H1125 0.929 . S
C1162 C1161 1.348 . S
C1162 C1163 1.443 . S
C1163 H1127 0.932 . S
C1163 C1158 1.388 . S
C1163 C1162 1.443 . S
H1164 C1191 0.929 . S
N1165 C1190 1.433 . S
N1165 C1196 1.435 . S
N1165 C1202 1.423 . S
H1166 C1192 0.930 . S
H1167 C1195 0.931 . S
H1168 C1194 0.929 . S
H1169 C1197 0.930 . S
H1170 C1198 0.932 . S
H1171 C1201 0.929 . S
H1172 C1200 0.931 . S
H1173 C1203 0.929 . S
H1174 C1207 0.932 . S
H1175 C1204 0.931 . S
H1176 C1206 0.929 . S
H1177 C1209 0.929 . S
H1178 C1210 0.930 . S
H1179 C1212 0.929 . S
H1180 C1213 0.931 . S
H1181 C1215 0.930 . S
H1182 C1216 0.932 . S
H1183 C1218 0.931 . S
H1184 C1219 0.929 . S
H1185 C1221 0.929 . S
H1186 C1222 0.931 . S
H1187 C1224 0.929 . S
N1188 C1208 1.433 . S
N1188 C1214 1.435 . S
N1188 C1220 1.423 . S
H1189 C1225 0.932 . S
C1190 N1165 1.433 . S
C1190 C1191 1.363 . S
C1190 C1195 1.370 . S
C1191 H1164 0.929 . S
C1191 C1190 1.363 . S
C1191 C1192 1.385 . S
C1192 H1166 0.930 . S
C1192 C1191 1.385 . S
C1192 C1193 1.357 . S
C1193 C1192 1.357 . S
C1193 C1194 1.406 . S
C1194 H1168 0.929 . S
C1194 C1193 1.406 . S
C1194 C1195 1.391 . S
C1195 H1167 0.931 . S
C1195 C1190 1.370 . S
C1195 C1194 1.391 . S
C1196 N1165 1.435 . S
C1196 C1197 1.358 . S
C1196 C1201 1.371 . S
C1197 H1169 0.930 . S
C1197 C1196 1.358 . S
C1197 C1198 1.405 . S
C1198 H1170 0.932 . S
C1198 C1197 1.405 . S
C1198 C1199 1.383 . S
C1199 C1198 1.383 . S
C1199 C1200 1.393 . S
C1200 H1172 0.931 . S
C1200 C1199 1.393 . S
C1200 C1201 1.382 . S
C1201 H1171 0.929 . S
C1201 C1196 1.371 . S
C1201 C1200 1.382 . S
C1202 N1165 1.423 . S
C1202 C1203 1.362 . S
C1202 C1207 1.388 . S
C1203 H1173 0.929 . S
C1203 C1202 1.362 . S
C1203 C1204 1.376 . S
C1204 H1175 0.931 . S
C1204 C1203 1.376 . S
C1204 C1205 1.396 . S
C1205 C1204 1.396 . S
C1205 C1206 1.348 . S
C1205 C1223 1.472 . S
C1206 H1176 0.929 . S
C1206 C1205 1.348 . S
C1206 C1207 1.443 . S
C1207 H1174 0.932 . S
C1207 C1202 1.388 . S
C1207 C1206 1.443 . S
C1208 N1188 1.433 . S
C1208 C1209 1.363 . S
C1208 C1213 1.370 . S
C1209 H1177 0.929 . S
C1209 C1208 1.363 . S
C1209 C1210 1.385 . S
C1210 H1178 0.930 . S
C1210 C1209 1.385 . S
C1210 C1211 1.357 . S
C1211 C1210 1.357 . S
C1211 C1212 1.406 . S
C1212 H1179 0.929 . S
C1212 C1211 1.406 . S
C1212 C1213 1.391 . S
C1213 H1180 0.931 . S
C1213 C1208 1.370 . S
C1213 C1212 1.391 . S
C1214 N1188 1.435 . S
C1214 C1215 1.358 . S
C1214 C1219 1.371 . S
C1215 H1181 0.930 . S
C1215 C1214 1.358 . S
C1215 C1216 1.405 . S
C1216 H1182 0.932 . S
C1216 C1215 1.405 . S
C1216 C1217 1.383 . S
C1217 C1216 1.383 . S
C1217 C1218 1.393 . S
C1218 H1183 0.931 . S
C1218 C1217 1.393 . S
C1218 C1219 1.382 . S
C1219 H1184 0.929 . S
C1219 C1214 1.371 . S
C1219 C1218 1.382 . S
C1220 N1188 1.423 . S
C1220 C1221 1.362 . S
C1220 C1225 1.388 . S
C1221 H1185 0.929 . S
C1221 C1220 1.362 . S
C1221 C1222 1.376 . S
C1222 H1186 0.931 . S
C1222 C1221 1.376 . S
C1222 C1223 1.396 . S
C1223 C1205 1.472 . S
C1223 C1222 1.396 . S
C1223 C1224 1.348 . S
C1224 H1187 0.929 . S
C1224 C1223 1.348 . S
C1224 C1225 1.443 . S
C1225 H1189 0.932 . S
C1225 C1220 1.388 . S
C1225 C1224 1.443 . S
H1226 C1253 0.929 . S
N1227 C1252 1.433 . S
N1227 C1258 1.435 . S
N1227 C1264 1.423 . S
H1228 C1254 0.930 . S
H1229 C1257 0.931 . S
H1230 C1256 0.929 . S
H1231 C1259 0.930 . S
H1232 C1260 0.932 . S
H1233 C1263 0.929 . S
H1234 C1262 0.931 . S
H1235 C1265 0.929 . S
H1236 C1269 0.932 . S
H1237 C1266 0.931 . S
H1238 C1268 0.929 . S
H1239 C1271 0.929 . S
H1240 C1272 0.930 . S
H1241 C1274 0.929 . S
H1242 C1275 0.931 . S
H1243 C1277 0.930 . S
H1244 C1278 0.932 . S
H1245 C1280 0.931 . S
H1246 C1281 0.929 . S
H1247 C1283 0.929 . S
H1248 C1284 0.931 . S
H1249 C1286 0.929 . S
N1250 C1270 1.433 . S
N1250 C1276 1.435 . S
N1250 C1282 1.423 . S
H1251 C1287 0.932 . S
C1252 N1227 1.433 . S
C1252 C1253 1.363 . S
C1252 C1257 1.370 . S
C1253 H1226 0.929 . S
C1253 C1252 1.363 . S
C1253 C1254 1.385 . S
C1254 H1228 0.930 . S
C1254 C1253 1.385 . S
C1254 C1255 1.357 . S
C1255 C1254 1.357 . S
C1255 C1256 1.406 . S
C1256 H1230 0.929 . S
C1256 C1255 1.406 . S
C1256 C1257 1.391 . S
C1257 H1229 0.931 . S
C1257 C1252 1.370 . S
C1257 C1256 1.391 . S
C1258 N1227 1.435 . S
C1258 C1259 1.358 . S
C1258 C1263 1.371 . S
C1259 H1231 0.930 . S
C1259 C1258 1.358 . S
C1259 C1260 1.405 . S
C1260 H1232 0.932 . S
C1260 C1259 1.405 . S
C1260 C1261 1.383 . S
C1261 C1260 1.383 . S
C1261 C1262 1.393 . S
C1262 H1234 0.931 . S
C1262 C1261 1.393 . S
C1262 C1263 1.382 . S
C1263 H1233 0.929 . S
C1263 C1258 1.371 . S
C1263 C1262 1.382 . S
C1264 N1227 1.423 . S
C1264 C1265 1.362 . S
C1264 C1269 1.388 . S
C1265 H1235 0.929 . S
C1265 C1264 1.362 . S
C1265 C1266 1.376 . S
C1266 H1237 0.931 . S
C1266 C1265 1.376 . S
C1266 C1267 1.396 . S
C1267 C1266 1.396 . S
C1267 C1268 1.348 . S
C1267 C1285 1.472 . S
C1268 H1238 0.929 . S
C1268 C1267 1.348 . S
C1268 C1269 1.443 . S
C1269 H1236 0.932 . S
C1269 C1264 1.388 . S
C1269 C1268 1.443 . S
C1270 N1250 1.433 . S
C1270 C1271 1.363 . S
C1270 C1275 1.370 . S
C1271 H1239 0.929 . S
C1271 C1270 1.363 . S
C1271 C1272 1.385 . S
C1272 H1240 0.930 . S
C1272 C1271 1.385 . S
C1272 C1273 1.357 . S
C1273 C1272 1.357 . S
C1273 C1274 1.406 . S
C1274 H1241 0.929 . S
C1274 C1273 1.406 . S
C1274 C1275 1.391 . S
C1275 H1242 0.931 . S
C1275 C1270 1.370 . S
C1275 C1274 1.391 . S
C1276 N1250 1.435 . S
C1276 C1277 1.358 . S
C1276 C1281 1.371 . S
C1277 H1243 0.930 . S
C1277 C1276 1.358 . S
C1277 C1278 1.405 . S
C1278 H1244 0.932 . S
C1278 C1277 1.405 . S
C1278 C1279 1.383 . S
C1279 C1278 1.383 . S
C1279 C1280 1.393 . S
C1280 H1245 0.931 . S
C1280 C1279 1.393 . S
C1280 C1281 1.382 . S
C1281 H1246 0.929 . S
C1281 C1276 1.371 . S
C1281 C1280 1.382 . S
C1282 N1250 1.423 . S
C1282 C1283 1.362 . S
C1282 C1287 1.388 . S
C1283 H1247 0.929 . S
C1283 C1282 1.362 . S
C1283 C1284 1.376 . S
C1284 H1248 0.931 . S
C1284 C1283 1.376 . S
C1284 C1285 1.396 . S
C1285 C1267 1.472 . S
C1285 C1284 1.396 . S
C1285 C1286 1.348 . S
C1286 H1249 0.929 . S
C1286 C1285 1.348 . S
C1286 C1287 1.443 . S
C1287 H1251 0.932 . S
C1287 C1282 1.388 . S
C1287 C1286 1.443 . S
H1288 C1315 0.929 . S
N1289 C1314 1.433 . S
N1289 C1320 1.435 . S
N1289 C1326 1.423 . S
H1290 C1316 0.930 . S
H1291 C1319 0.931 . S
H1292 C1318 0.929 . S
H1293 C1321 0.930 . S
H1294 C1322 0.932 . S
H1295 C1325 0.929 . S
H1296 C1324 0.931 . S
H1297 C1327 0.929 . S
H1298 C1331 0.932 . S
H1299 C1328 0.931 . S
H1300 C1330 0.929 . S
H1301 C1333 0.929 . S
H1302 C1334 0.930 . S
H1303 C1336 0.929 . S
H1304 C1337 0.931 . S
H1305 C1339 0.930 . S
H1306 C1340 0.932 . S
H1307 C1342 0.931 . S
H1308 C1343 0.929 . S
H1309 C1345 0.929 . S
H1310 C1346 0.931 . S
H1311 C1348 0.929 . S
N1312 C1332 1.433 . S
N1312 C1338 1.435 . S
N1312 C1344 1.423 . S
H1313 C1349 0.932 . S
C1314 N1289 1.433 . S
C1314 C1315 1.363 . S
C1314 C1319 1.370 . S
C1315 H1288 0.929 . S
C1315 C1314 1.363 . S
C1315 C1316 1.385 . S
C1316 H1290 0.930 . S
C1316 C1315 1.385 . S
C1316 C1317 1.357 . S
C1317 C1316 1.357 . S
C1317 C1318 1.406 . S
C1318 H1292 0.929 . S
C1318 C1317 1.406 . S
C1318 C1319 1.391 . S
C1319 H1291 0.931 . S
C1319 C1314 1.370 . S
C1319 C1318 1.391 . S
C1320 N1289 1.435 . S
C1320 C1321 1.358 . S
C1320 C1325 1.371 . S
C1321 H1293 0.930 . S
C1321 C1320 1.358 . S
C1321 C1322 1.405 . S
C1322 H1294 0.932 . S
C1322 C1321 1.405 . S
C1322 C1323 1.383 . S
C1323 C1322 1.383 . S
C1323 C1324 1.393 . S
C1324 H1296 0.931 . S
C1324 C1323 1.393 . S
C1324 C1325 1.382 . S
C1325 H1295 0.929 . S
C1325 C1320 1.371 . S
C1325 C1324 1.382 . S
C1326 N1289 1.423 . S
C1326 C1327 1.362 . S
C1326 C1331 1.388 . S
C1327 H1297 0.929 . S
C1327 C1326 1.362 . S
C1327 C1328 1.376 . S
C1328 H1299 0.931 . S
C1328 C1327 1.376 . S
C1328 C1329 1.396 . S
C1329 C1328 1.396 . S
C1329 C1330 1.348 . S
C1329 C1347 1.472 . S
C1330 H1300 0.929 . S
C1330 C1329 1.348 . S
C1330 C1331 1.443 . S
C1331 H1298 0.932 . S
C1331 C1326 1.388 . S
C1331 C1330 1.443 . S
C1332 N1312 1.433 . S
C1332 C1333 1.363 . S
C1332 C1337 1.370 . S
C1333 H1301 0.929 . S
C1333 C1332 1.363 . S
C1333 C1334 1.385 . S
C1334 H1302 0.930 . S
C1334 C1333 1.385 . S
C1334 C1335 1.357 . S
C1335 C1334 1.357 . S
C1335 C1336 1.406 . S
C1336 H1303 0.929 . S
C1336 C1335 1.406 . S
C1336 C1337 1.391 . S
C1337 H1304 0.931 . S
C1337 C1332 1.370 . S
C1337 C1336 1.391 . S
C1338 N1312 1.435 . S
C1338 C1339 1.358 . S
C1338 C1343 1.371 . S
C1339 H1305 0.930 . S
C1339 C1338 1.358 . S
C1339 C1340 1.405 . S
C1340 H1306 0.932 . S
C1340 C1339 1.405 . S
C1340 C1341 1.383 . S
C1341 C1340 1.383 . S
C1341 C1342 1.393 . S
C1342 H1307 0.931 . S
C1342 C1341 1.393 . S
C1342 C1343 1.382 . S
C1343 H1308 0.929 . S
C1343 C1338 1.371 . S
C1343 C1342 1.382 . S
C1344 N1312 1.423 . S
C1344 C1345 1.362 . S
C1344 C1349 1.388 . S
C1345 H1309 0.929 . S
C1345 C1344 1.362 . S
C1345 C1346 1.376 . S
C1346 H1310 0.931 . S
C1346 C1345 1.376 . S
C1346 C1347 1.396 . S
C1347 C1329 1.472 . S
C1347 C1346 1.396 . S
C1347 C1348 1.348 . S
C1348 H1311 0.929 . S
C1348 C1347 1.348 . S
C1348 C1349 1.443 . S
C1349 H1313 0.932 . S
C1349 C1344 1.388 . S
C1349 C1348 1.443 . S
H1350 C1358 0.929 . S
H1351 C1360 0.930 . S
H1352 C1362 0.930 . S
H1353 C1365 0.929 . S
H1354 C1368 0.844 1_455 S
H1355 C1370 0.960 . S
H1356 C1370 0.960 . S
H1357 C1370 0.960 . S
C1358 H1350 0.929 . S
C1358 C1359 1.377 . S
C1358 C1360 1.384 . S
C1359 C1358 1.377 . S
C1359 C1365 1.390 1_655 S
C1360 H1351 0.930 . S
C1360 C1358 1.384 . S
C1360 C1361 1.372 . S
C1361 C1360 1.372 . S
C1361 C1362 1.400 1_655 S
C1361 C1366 1.490 . S
C1362 H1352 0.930 . S
C1362 C1361 1.400 1_455 S
C1362 C1365 1.386 . S
H1363 C1379 0.930 . S
H1364 C1380 0.931 . S
C1365 H1353 0.929 . S
C1365 C1359 1.390 1_455 S
C1365 C1362 1.386 . S
C1366 C1361 1.490 . S
C1366 C1368 1.428 . S
C1366 C1369 1.403 . S
H1367 C1373 0.930 . S
C1368 H1354 0.844 1_655 S
C1368 C1366 1.428 . S
C1368 C1371 1.413 . S
C1369 C1366 1.403 . S
C1369 C1370 1.524 . S
C1369 C1373 1.400 . S
C1370 H1355 0.960 . S
C1370 H1356 0.960 . S
C1370 H1357 0.960 . S
C1370 C1369 1.524 . S
C1371 C1368 1.413 . S
C1371 C1372 1.441 . S
C1371 C1375 1.473 1_655 S
C1372 C1371 1.441 . S
C1372 C1373 1.385 . S
C1372 C1374 1.478 . S
C1373 H1367 0.930 . S
C1373 C1369 1.400 . S
C1373 C1372 1.385 . S
C1374 C1372 1.478 . S
C1374 C1376 1.381 . S
C1374 C1380 1.383 1_655 S
C1375 C1371 1.473 1_455 S
C1375 H1381 0.959 . S
C1375 H1382 0.961 . S
C1375 H1383 0.960 1_455 S
C1376 C1374 1.381 . S
C1376 C1377 1.394 . S
C1376 H1384 0.930 . S
C1377 C1376 1.394 . S
C1377 C1378 1.383 . S
C1377 H1385 0.929 . S
C1378 C1377 1.383 . S
C1378 C1379 1.377 1_655 S
C1379 H1363 0.930 . S
C1379 C1378 1.377 1_455 S
C1379 C1380 1.379 . S
C1380 H1364 0.931 . S
C1380 C1374 1.383 1_455 S
C1380 C1379 1.379 . S
H1381 C1375 0.959 . S
H1382 C1375 0.961 . S
H1383 C1375 0.960 1_655 S
H1384 C1376 0.930 . S
H1385 C1377 0.929 . S
H1386 C1394 0.929 . S
H1387 C1396 0.930 . S
H1388 C1398 0.930 . S
H1389 C1401 0.929 . S
H1390 C1404 0.930 . S
H1391 C1406 0.960 . S
H1392 C1406 0.960 . S
H1393 C1406 0.960 . S
C1394 H1386 0.929 . S
C1394 C1395 1.377 . S
C1394 C1396 1.384 . S
C1395 C1394 1.377 . S
C1395 C1401 1.390 . S
C1396 H1387 0.930 . S
C1396 C1394 1.384 . S
C1396 C1397 1.372 . S
C1397 C1396 1.372 . S
C1397 C1398 1.400 . S
C1397 C1402 1.490 . S
C1398 H1388 0.930 . S
C1398 C1397 1.400 . S
C1398 C1401 1.386 . S
H1399 C1415 0.930 . S
H1400 C1416 0.931 . S
C1401 H1389 0.929 . S
C1401 C1395 1.390 . S
C1401 C1398 1.386 . S
C1402 C1397 1.490 . S
C1402 C1404 1.395 . S
C1402 C1405 1.403 . S
H1403 C1409 0.930 . S
C1404 H1390 0.930 . S
C1404 C1402 1.395 . S
C1404 C1407 1.403 . S
C1405 C1402 1.403 . S
C1405 C1406 1.524 . S
C1405 C1409 1.400 . S
C1406 H1391 0.960 . S
C1406 H1392 0.960 . S
C1406 H1393 0.960 . S
C1406 C1405 1.524 . S
C1407 C1404 1.403 . S
C1407 C1408 1.392 . S
C1407 C1411 1.495 . S
C1408 C1407 1.392 . S
C1408 C1409 1.385 . S
C1408 C1410 1.478 . S
C1409 H1403 0.930 . S
C1409 C1405 1.400 . S
C1409 C1408 1.385 . S
C1410 C1408 1.478 . S
C1410 C1412 1.381 . S
C1410 C1416 1.383 . S
C1411 C1407 1.495 . S
C1411 H1417 0.959 . S
C1411 H1418 0.961 . S
C1411 H1419 0.960 . S
C1412 C1410 1.381 . S
C1412 C1413 1.394 . S
C1412 H1420 0.930 . S
C1413 C1412 1.394 . S
C1413 C1414 1.383 . S
C1413 H1421 0.929 . S
C1414 C1413 1.383 . S
C1414 C1415 1.377 . S
C1415 H1399 0.930 . S
C1415 C1414 1.377 . S
C1415 C1416 1.379 . S
C1416 H1400 0.931 . S
C1416 C1410 1.383 . S
C1416 C1415 1.379 . S
H1417 C1411 0.959 . S
H1418 C1411 0.961 . S
H1419 C1411 0.960 . S
H1420 C1412 0.930 . S
H1421 C1413 0.929 . S
H1422 C1430 0.929 . S
H1423 C1432 0.930 . S
H1424 C1434 0.930 . S
H1425 C1437 0.929 . S
H1426 C1440 0.930 . S
H1427 C1442 0.960 . S
H1428 C1442 0.960 . S
H1429 C1442 0.960 . S
C1430 H1422 0.929 . S
C1430 C1431 1.377 . S
C1430 C1432 1.384 . S
C1431 C1430 1.377 . S
C1431 C1437 1.390 . S
C1432 H1423 0.930 . S
C1432 C1430 1.384 . S
C1432 C1433 1.372 . S
C1433 C1432 1.372 . S
C1433 C1434 1.400 . S
C1433 C1438 1.490 . S
C1434 H1424 0.930 . S
C1434 C1433 1.400 . S
C1434 C1437 1.386 . S
H1435 C1451 0.930 . S
H1436 C1452 0.931 . S
C1437 H1425 0.929 . S
C1437 C1431 1.390 . S
C1437 C1434 1.386 . S
C1438 C1433 1.490 . S
C1438 C1440 1.395 1_545 S
C1438 C1441 1.403 . S
H1439 C1445 0.930 . S
C1440 H1426 0.930 . S
C1440 C1438 1.395 1_565 S
C1440 C1443 1.403 . S
C1441 C1438 1.403 . S
C1441 C1442 1.524 . S
C1441 C1445 1.400 . S
C1442 H1427 0.960 . S
C1442 H1428 0.960 . S
C1442 H1429 0.960 . S
C1442 C1441 1.524 . S
C1443 C1440 1.403 . S
C1443 C1444 1.392 1_565 S
C1443 C1447 1.495 . S
C1444 C1443 1.392 1_545 S
C1444 C1445 1.385 . S
C1444 C1446 1.478 . S
C1445 H1439 0.930 . S
C1445 C1441 1.400 . S
C1445 C1444 1.385 . S
C1446 C1444 1.478 . S
C1446 C1448 1.381 . S
C1446 C1452 1.383 . S
C1447 C1443 1.495 . S
C1447 H1453 0.959 . S
C1447 H1454 0.961 . S
C1447 H1455 0.960 . S
C1448 C1446 1.381 . S
C1448 C1449 1.394 . S
C1448 H1456 0.930 . S
C1449 C1448 1.394 . S
C1449 C1450 1.383 . S
C1449 H1457 0.929 . S
C1450 C1449 1.383 . S
C1450 C1451 1.377 . S
C1451 H1435 0.930 . S
C1451 C1450 1.377 . S
C1451 C1452 1.379 . S
C1452 H1436 0.931 . S
C1452 C1446 1.383 . S
C1452 C1451 1.379 . S
H1453 C1447 0.959 . S
H1454 C1447 0.961 . S
H1455 C1447 0.960 . S
H1456 C1448 0.930 . S
H1457 C1449 0.929 . S
H1458 C1466 0.929 . S
H1459 C1468 0.930 . S
H1460 C1470 0.930 . S
H1461 C1473 0.929 . S
H1462 C1476 0.930 . S
H1463 C1478 0.960 . S
H1464 C1478 0.960 . S
H1465 C1478 0.960 . S
C1466 H1458 0.929 . S
C1466 C1467 1.377 . S
C1466 C1468 1.384 . S
C1467 C1466 1.377 . S
C1467 C1473 1.390 1_545 S
C1468 H1459 0.930 . S
C1468 C1466 1.384 . S
C1468 C1469 1.466 . S
C1469 C1468 1.466 . S
C1469 C1470 1.345 1_545 S
C1469 C1474 1.478 . S
C1470 H1460 0.930 . S
C1470 C1469 1.345 1_565 S
C1470 C1473 1.386 . S
H1471 C1487 0.930 . S
H1472 C1488 0.931 . S
C1473 H1461 0.929 . S
C1473 C1467 1.390 1_565 S
C1473 C1470 1.386 . S
C1474 C1469 1.478 . S
C1474 C1476 1.415 . S
C1474 C1477 1.361 1_545 S
H1475 C1481 0.930 . S
C1476 H1462 0.930 . S
C1476 C1474 1.415 . S
C1476 C1479 1.403 . S
C1477 C1474 1.361 1_565 S
C1477 C1478 1.524 . S
C1477 C1481 1.400 . S
C1478 H1463 0.960 . S
C1478 H1464 0.960 . S
C1478 H1465 0.960 . S
C1478 C1477 1.524 . S
C1479 C1476 1.403 . S
C1479 C1480 1.456 . S
C1479 C1483 1.495 . S
C1480 C1479 1.456 . S
C1480 C1481 1.361 1_545 S
C1480 C1482 1.440 . S
C1481 H1475 0.930 . S
C1481 C1477 1.400 . S
C1481 C1480 1.361 1_565 S
C1482 C1480 1.440 . S
C1482 C1484 1.377 . S
C1482 C1488 1.390 1_545 S
C1483 C1479 1.495 . S
C1483 H1489 0.959 . S
C1483 H1490 0.961 . S
C1483 H1491 0.960 . S
C1484 C1482 1.377 . S
C1484 C1485 1.394 . S
C1484 H1492 0.930 . S
C1485 C1484 1.394 . S
C1485 C1486 1.383 1_545 S
C1485 H1493 0.929 . S
C1486 C1485 1.383 1_565 S
C1486 C1487 1.377 . S
C1487 H1471 0.930 . S
C1487 C1486 1.377 . S
C1487 C1488 1.379 . S
C1488 H1472 0.931 . S
C1488 C1482 1.390 1_565 S
C1488 C1487 1.379 . S
H1489 C1483 0.959 . S
H1490 C1483 0.961 . S
H1491 C1483 0.960 . S
H1492 C1484 0.930 . S
H1493 C1485 0.929 . S
H1494 C1502 0.929 . S
H1495 C1504 0.930 . S
H1496 C1506 0.930 . S
H1497 C1509 0.929 . S
H1498 C1512 0.930 . S
H1499 C1514 0.960 . S
H1500 C1514 0.960 . S
H1501 C1514 0.960 . S
C1502 H1494 0.929 . S
C1502 C1503 1.377 . S
C1502 C1504 1.384 . S
C1503 C1502 1.377 . S
C1503 C1509 1.390 . S
C1504 H1495 0.930 . S
C1504 C1502 1.384 . S
C1504 C1505 1.372 . S
C1505 C1504 1.372 . S
C1505 C1506 1.400 . S
C1505 C1510 1.490 . S
C1506 H1496 0.930 . S
C1506 C1505 1.400 . S
C1506 C1509 1.386 . S
H1507 C1523 0.930 . S
H1508 C1524 0.931 . S
C1509 H1497 0.929 . S
C1509 C1503 1.390 . S
C1509 C1506 1.386 . S
C1510 C1505 1.490 . S
C1510 C1512 1.395 1_455 S
C1510 C1513 1.403 . S
H1511 C1517 0.930 . S
C1512 H1498 0.930 . S
C1512 C1510 1.395 1_655 S
C1512 C1515 1.403 . S
C1513 C1510 1.403 . S
C1513 C1514 1.524 . S
C1513 C1517 1.400 . S
C1514 H1499 0.960 . S
C1514 H1500 0.960 . S
C1514 H1501 0.960 . S
C1514 C1513 1.524 . S
C1515 C1512 1.403 . S
C1515 C1516 1.392 1_655 S
C1515 C1519 1.495 . S
C1516 C1515 1.392 1_455 S
C1516 C1517 1.385 . S
C1516 C1518 1.478 . S
C1517 H1511 0.930 . S
C1517 C1513 1.400 . S
C1517 C1516 1.385 . S
C1518 C1516 1.478 . S
C1518 C1520 1.381 . S
C1518 C1524 1.383 . S
C1519 C1515 1.495 . S
C1519 H1525 0.959 . S
C1519 H1526 0.961 . S
C1519 H1527 0.960 . S
C1520 C1518 1.381 . S
C1520 C1521 1.394 . S
C1520 H1528 0.930 . S
C1521 C1520 1.394 . S
C1521 C1522 1.383 . S
C1521 H1529 0.929 . S
C1522 C1521 1.383 . S
C1522 C1523 1.377 . S
C1523 H1507 0.930 . S
C1523 C1522 1.377 . S
C1523 C1524 1.379 . S
C1524 H1508 0.931 . S
C1524 C1518 1.383 . S
C1524 C1523 1.379 . S
H1525 C1519 0.959 . S
H1526 C1519 0.961 . S
H1527 C1519 0.960 . S
H1528 C1520 0.930 . S
H1529 C1521 0.929 . S
H1530 C1538 0.929 . S
H1531 C1540 0.930 . S
H1532 C1542 0.930 . S
H1533 C1545 0.929 . S
H1534 C1548 0.930 . S
H1535 C1550 0.960 . S
H1536 C1550 0.960 . S
H1537 C1550 0.960 . S
C1538 H1530 0.929 . S
C1538 C1539 1.377 . S
C1538 C1540 1.384 . S
C1539 C1538 1.377 . S
C1539 C1545 1.390 . S
C1540 H1531 0.930 . S
C1540 C1538 1.384 . S
C1540 C1541 1.372 . S
C1541 C1540 1.372 . S
C1541 C1542 1.400 . S
C1541 C1546 1.490 . S
C1542 H1532 0.930 . S
C1542 C1541 1.400 . S
C1542 C1545 1.386 . S
H1543 C1559 0.930 . S
H1544 C1560 0.931 . S
C1545 H1533 0.929 . S
C1545 C1539 1.390 . S
C1545 C1542 1.386 . S
C1546 C1541 1.490 . S
C1546 C1548 1.395 . S
C1546 C1549 1.403 . S
H1547 C1553 0.930 . S
C1548 H1534 0.930 . S
C1548 C1546 1.395 . S
C1548 C1551 1.403 . S
C1549 C1546 1.403 . S
C1549 C1550 1.524 . S
C1549 C1553 1.400 . S
C1550 H1535 0.960 . S
C1550 H1536 0.960 . S
C1550 H1537 0.960 . S
C1550 C1549 1.524 . S
C1551 C1548 1.403 . S
C1551 C1552 1.392 . S
C1551 C1555 1.495 . S
C1552 C1551 1.392 . S
C1552 C1553 1.385 . S
C1552 C1554 1.478 . S
C1553 H1547 0.930 . S
C1553 C1549 1.400 . S
C1553 C1552 1.385 . S
C1554 C1552 1.478 . S
C1554 C1556 1.381 . S
C1554 C1560 1.383 . S
C1555 C1551 1.495 . S
C1555 H1561 0.959 . S
C1555 H1562 0.961 . S
C1555 H1563 0.960 . S
C1556 C1554 1.381 . S
C1556 C1557 1.394 . S
C1556 H1564 0.930 . S
C1557 C1556 1.394 . S
C1557 C1558 1.383 . S
C1557 H1565 0.929 . S
C1558 C1557 1.383 . S
C1558 C1559 1.377 . S
C1559 H1543 0.930 . S
C1559 C1558 1.377 . S
C1559 C1560 1.379 . S
C1560 H1544 0.931 . S
C1560 C1554 1.383 . S
C1560 C1559 1.379 . S
H1561 C1555 0.959 . S
H1562 C1555 0.961 . S
H1563 C1555 0.960 . S
H1564 C1556 0.930 . S
H1565 C1557 0.929 . S
H1566 C1574 0.929 . S
H1567 C1576 0.930 . S
H1568 C1578 0.930 . S
H1569 C1581 0.929 . S
H1570 C1584 0.930 . S
H1571 C1586 0.960 . S
H1572 C1586 0.960 . S
H1573 C1586 0.960 . S
C1574 H1566 0.929 . S
C1574 C1575 1.377 1_655 S
C1574 C1576 1.384 . S
C1575 C1574 1.377 1_455 S
C1575 C1581 1.390 . S
C1576 H1567 0.930 . S
C1576 C1574 1.384 . S
C1576 C1577 1.372 1_655 S
C1577 C1576 1.372 1_455 S
C1577 C1578 1.400 . S
C1577 C1582 1.490 . S
C1578 H1568 0.930 . S
C1578 C1577 1.400 . S
C1578 C1581 1.386 . S
H1579 C1595 0.930 . S
H1580 C1596 0.931 . S
C1581 H1569 0.929 . S
C1581 C1575 1.390 . S
C1581 C1578 1.386 . S
C1582 C1577 1.490 . S
C1582 C1584 1.395 1_455 S
C1582 C1585 1.403 . S
H1583 C1589 0.930 . S
C1584 H1570 0.930 . S
C1584 C1582 1.395 1_655 S
C1584 C1587 1.403 . S
C1585 C1582 1.403 . S
C1585 C1586 1.524 . S
C1585 C1589 1.400 . S
C1586 H1571 0.960 . S
C1586 H1572 0.960 . S
C1586 H1573 0.960 . S
C1586 C1585 1.524 . S
C1587 C1584 1.403 . S
C1587 C1588 1.392 1_655 S
C1587 C1591 1.495 . S
C1588 C1587 1.392 1_455 S
C1588 C1589 1.385 . S
C1588 C1590 1.478 . S
C1589 H1583 0.930 . S
C1589 C1585 1.400 . S
C1589 C1588 1.385 . S
C1590 C1588 1.478 . S
C1590 C1592 1.381 1_455 S
C1590 C1596 1.383 . S
C1591 C1587 1.495 . S
C1591 H1597 0.959 . S
C1591 H1598 0.961 . S
C1591 H1599 0.960 . S
C1592 C1590 1.381 1_655 S
C1592 C1593 1.394 . S
C1592 H1600 0.930 . S
C1593 C1592 1.394 . S
C1593 C1594 1.383 1_655 S
C1593 H1601 0.929 . S
C1594 C1593 1.383 1_455 S
C1594 C1595 1.377 . S
C1595 H1579 0.930 . S
C1595 C1594 1.377 . S
C1595 C1596 1.379 . S
C1596 H1580 0.931 . S
C1596 C1590 1.383 . S
C1596 C1595 1.379 . S
H1597 C1591 0.959 . S
H1598 C1591 0.961 . S
H1599 C1591 0.960 . S
H1600 C1592 0.930 . S
H1601 C1593 0.929 . S
H1602 C1610 0.929 . S
H1603 C1612 0.930 . S
H1604 C1614 0.930 . S
H1605 C1617 0.929 . S
H1606 C1620 0.930 . S
H1607 C1622 0.960 . S
H1608 C1622 0.960 . S
H1609 C1622 0.960 . S
C1610 H1602 0.929 . S
C1610 C1611 1.377 . S
C1610 C1612 1.384 . S
C1611 C1610 1.377 . S
C1611 C1617 1.390 . S
C1612 H1603 0.930 . S
C1612 C1610 1.384 . S
C1612 C1613 1.372 . S
C1613 C1612 1.372 . S
C1613 C1614 1.400 . S
C1613 C1618 1.490 . S
C1614 H1604 0.930 . S
C1614 C1613 1.400 . S
C1614 C1617 1.386 . S
H1615 C1631 0.930 . S
H1616 C1632 0.931 . S
C1617 H1605 0.929 . S
C1617 C1611 1.390 . S
C1617 C1614 1.386 . S
C1618 C1613 1.490 . S
C1618 C1620 1.395 . S
C1618 C1621 1.403 . S
H1619 C1625 0.930 . S
C1620 H1606 0.930 . S
C1620 C1618 1.395 . S
C1620 C1623 1.403 . S
C1621 C1618 1.403 . S
C1621 C1622 1.524 . S
C1621 C1625 1.400 . S
C1622 H1607 0.960 . S
C1622 H1608 0.960 . S
C1622 H1609 0.960 . S
C1622 C1621 1.524 . S
C1623 C1620 1.403 . S
C1623 C1624 1.392 . S
C1623 C1627 1.495 . S
C1624 C1623 1.392 . S
C1624 C1625 1.385 . S
C1624 C1626 1.478 . S
C1625 H1619 0.930 . S
C1625 C1621 1.400 . S
C1625 C1624 1.385 . S
C1626 C1624 1.478 . S
C1626 C1628 1.381 . S
C1626 C1632 1.383 . S
C1627 C1623 1.495 . S
C1627 H1633 0.959 . S
C1627 H1634 0.961 . S
C1627 H1635 0.960 . S
C1628 C1626 1.381 . S
C1628 C1629 1.394 . S
C1628 H1636 0.930 . S
C1629 C1628 1.394 . S
C1629 C1630 1.383 . S
C1629 H1637 0.929 . S
C1630 C1629 1.383 . S
C1630 C1631 1.377 . S
C1631 H1615 0.930 . S
C1631 C1630 1.377 . S
C1631 C1632 1.379 . S
C1632 H1616 0.931 . S
C1632 C1626 1.383 . S
C1632 C1631 1.379 . S
H1633 C1627 0.959 . S
H1634 C1627 0.961 . S
H1635 C1627 0.960 . S
H1636 C1628 0.930 . S
H1637 C1629 0.929 . S
H1638 C1646 0.929 . S
H1639 C1648 0.930 . S
H1640 C1650 0.965 . S
H1641 C1653 0.945 . S
H1642 C1656 0.930 . S
H1643 C1658 0.960 . S
H1644 C1658 0.960 . S
H1645 C1658 0.960 . S
C1646 H1638 0.929 . S
C1646 C1647 1.377 . S
C1646 C1648 1.384 . S
C1647 C1646 1.377 . S
C1647 C1653 1.390 . S
C1648 H1639 0.930 . S
C1648 C1646 1.384 . S
C1648 C1649 1.372 . S
C1649 C1648 1.372 . S
C1649 C1650 1.400 . S
C1649 C1654 1.490 . S
C1650 H1640 0.965 . S
C1650 C1649 1.400 . S
C1650 C1653 1.386 . S
H1651 C1667 0.930 . S
H1652 C1668 0.931 . S
C1653 H1641 0.945 . S
C1653 C1647 1.390 . S
C1653 C1650 1.386 . S
C1654 C1649 1.490 . S
C1654 C1656 1.395 . S
C1654 C1657 1.403 1_565 S
H1655 C1661 0.930 . S
C1656 H1642 0.930 . S
C1656 C1654 1.395 . S
C1656 C1659 1.403 . S
C1657 C1654 1.403 1_545 S
C1657 C1658 1.524 . S
C1657 C1661 1.400 . S
C1658 H1643 0.960 . S
C1658 H1644 0.960 . S
C1658 H1645 0.960 . S
C1658 C1657 1.524 . S
C1659 C1656 1.403 . S
C1659 C1660 1.392 . S
C1659 C1663 1.495 . S
C1660 C1659 1.392 . S
C1660 C1661 1.385 1_565 S
C1660 C1662 1.478 . S
C1661 H1655 0.930 . S
C1661 C1657 1.400 . S
C1661 C1660 1.385 1_545 S
C1662 C1660 1.478 . S
C1662 C1664 1.381 . S
C1662 C1668 1.383 . S
C1663 C1659 1.495 . S
C1663 H1669 0.959 . S
C1663 H1670 0.961 . S
C1663 H1671 0.960 . S
C1664 C1662 1.381 . S
C1664 C1665 1.394 . S
C1664 H1672 0.930 . S
C1665 C1664 1.394 . S
C1665 C1666 1.383 . S
C1665 H1673 0.929 . S
C1666 C1665 1.383 . S
C1666 C1667 1.377 . S
C1667 H1651 0.930 . S
C1667 C1666 1.377 . S
C1667 C1668 1.379 . S
C1668 H1652 0.931 . S
C1668 C1662 1.383 . S
C1668 C1667 1.379 . S
H1669 C1663 0.959 . S
H1670 C1663 0.961 . S
H1671 C1663 0.960 . S
H1672 C1664 0.930 . S
H1673 C1665 0.929 . S
H1674 C1682 0.929 . S
H1675 C1684 0.930 . S
H1676 C1686 0.903 . S
H1677 C1689 0.929 . S
H1678 C1692 0.930 . S
H1679 C1694 0.960 . S
H1680 C1694 0.960 . S
H1681 C1694 0.960 . S
C1682 H1674 0.929 . S
C1682 C1683 1.377 . S
C1682 C1684 1.384 . S
C1683 C1682 1.377 . S
C1683 C1689 1.390 . S
C1684 H1675 0.930 . S
C1684 C1682 1.384 . S
C1684 C1685 1.372 . S
C1685 C1684 1.372 . S
C1685 C1686 1.400 . S
C1685 C1690 1.490 . S
C1686 H1676 0.903 . S
C1686 C1685 1.400 . S
C1686 C1689 1.386 . S
H1687 C1703 0.930 . S
H1688 C1704 0.931 . S
C1689 H1677 0.929 . S
C1689 C1683 1.390 . S
C1689 C1686 1.386 . S
C1690 C1685 1.490 . S
C1690 C1692 1.395 . S
C1690 C1693 1.403 1_545 S
H1691 C1697 0.930 . S
C1692 H1678 0.930 . S
C1692 C1690 1.395 . S
C1692 C1695 1.403 . S
C1693 C1690 1.403 1_565 S
C1693 C1694 1.524 . S
C1693 C1697 1.400 . S
C1694 H1679 0.960 . S
C1694 H1680 0.960 . S
C1694 H1681 0.960 . S
C1694 C1693 1.524 . S
C1695 C1692 1.403 . S
C1695 C1696 1.392 . S
C1695 C1699 1.495 . S
C1696 C1695 1.392 . S
C1696 C1697 1.385 1_545 S
C1696 C1698 1.478 . S
C1697 H1691 0.930 . S
C1697 C1693 1.400 . S
C1697 C1696 1.385 1_565 S
C1698 C1696 1.478 . S
C1698 C1700 1.381 . S
C1698 C1704 1.383 . S
C1699 C1695 1.495 . S
C1699 H1705 0.959 . S
C1699 H1706 0.961 . S
C1699 H1707 0.960 . S
C1700 C1698 1.381 . S
C1700 C1701 1.394 . S
C1700 H1708 0.930 . S
C1701 C1700 1.394 . S
C1701 C1702 1.383 . S
C1701 H1709 0.929 . S
C1702 C1701 1.383 . S
C1702 C1703 1.377 . S
C1703 H1687 0.930 . S
C1703 C1702 1.377 . S
C1703 C1704 1.379 . S
C1704 H1688 0.931 . S
C1704 C1698 1.383 . S
C1704 C1703 1.379 . S
H1705 C1699 0.959 . S
H1706 C1699 0.961 . S
H1707 C1699 0.960 . S
H1708 C1700 0.930 . S
H1709 C1701 0.929 . S
H1710 C1718 0.929 . S
H1711 C1720 0.930 . S
H1712 C1722 0.964 . S
H1713 C1725 0.958 . S
H1714 C1728 0.930 . S
H1715 C1730 0.960 . S
H1716 C1730 0.960 . S
H1717 C1730 0.960 . S
C1718 H1710 0.929 . S
C1718 C1719 1.377 . S
C1718 C1720 1.384 . S
C1719 C1718 1.377 . S
C1719 C1725 1.340 1_655 S
C1720 H1711 0.930 . S
C1720 C1718 1.384 . S
C1720 C1721 1.372 . S
C1721 C1720 1.372 . S
C1721 C1722 1.383 1_655 S
C1721 C1726 1.490 . S
C1722 H1712 0.964 . S
C1722 C1721 1.383 1_455 S
C1722 C1725 1.394 . S
H1723 C1739 0.948 . S
H1724 C1740 0.931 . S
C1725 H1713 0.958 . S
C1725 C1719 1.340 1_455 S
C1725 C1722 1.394 . S
C1726 C1721 1.490 . S
C1726 C1728 1.395 . S
C1726 C1729 1.403 1_655 S
H1727 C1733 0.930 . S
C1728 H1714 0.930 . S
C1728 C1726 1.395 . S
C1728 C1731 1.403 . S
C1729 C1726 1.403 1_455 S
C1729 C1730 1.524 . S
C1729 C1733 1.400 . S
C1730 H1715 0.960 . S
C1730 H1716 0.960 . S
C1730 H1717 0.960 . S
C1730 C1729 1.524 . S
C1731 C1728 1.403 . S
C1731 C1732 1.392 . S
C1731 C1735 1.495 . S
C1732 C1731 1.392 . S
C1732 C1733 1.385 1_655 S
C1732 C1734 1.478 . S
C1733 H1727 0.930 . S
C1733 C1729 1.400 . S
C1733 C1732 1.385 1_455 S
C1734 C1732 1.478 . S
C1734 C1736 1.381 . S
C1734 C1740 1.383 . S
C1735 C1731 1.495 . S
C1735 H1741 0.959 . S
C1735 H1742 0.961 . S
C1735 H1743 0.960 . S
C1736 C1734 1.381 . S
C1736 C1737 1.394 . S
C1736 H1744 0.930 . S
C1737 C1736 1.394 . S
C1737 C1738 1.383 . S
C1737 H1745 0.929 . S
C1738 C1737 1.383 . S
C1738 C1739 1.377 . S
C1739 H1723 0.948 . S
C1739 C1738 1.377 . S
C1739 C1740 1.379 . S
C1740 H1724 0.931 . S
C1740 C1734 1.383 . S
C1740 C1739 1.379 . S
H1741 C1735 0.959 . S
H1742 C1735 0.961 . S
H1743 C1735 0.960 . S
H1744 C1736 0.930 . S
H1745 C1737 0.929 . S
H1746 C1754 0.929 . S
H1747 C1756 0.930 . S
H1748 C1758 0.930 . S
H1749 C1761 0.929 . S
H1750 C1764 0.930 . S
H1751 C1766 0.960 . S
H1752 C1766 0.960 . S
H1753 C1766 0.960 . S
C1754 H1746 0.929 . S
C1754 C1755 1.377 . S
C1754 C1756 1.384 . S
C1755 C1754 1.377 . S
C1755 C1761 1.390 . S
C1756 H1747 0.930 . S
C1756 C1754 1.384 . S
C1756 C1757 1.372 . S
C1757 C1756 1.372 . S
C1757 C1758 1.400 . S
C1757 C1762 1.490 . S
C1758 H1748 0.930 . S
C1758 C1757 1.400 . S
C1758 C1761 1.386 . S
H1759 C1775 0.930 . S
H1760 C1776 0.931 . S
C1761 H1749 0.929 . S
C1761 C1755 1.390 . S
C1761 C1758 1.386 . S
C1762 C1757 1.490 . S
C1762 C1764 1.395 . S
C1762 C1765 1.403 . S
H1763 C1769 0.930 . S
C1764 H1750 0.930 . S
C1764 C1762 1.395 . S
C1764 C1767 1.403 . S
C1765 C1762 1.403 . S
C1765 C1766 1.524 . S
C1765 C1769 1.400 . S
C1766 H1751 0.960 . S
C1766 H1752 0.960 . S
C1766 H1753 0.960 . S
C1766 C1765 1.524 . S
C1767 C1764 1.403 . S
C1767 C1768 1.392 . S
C1767 C1771 1.495 . S
C1768 C1767 1.392 . S
C1768 C1769 1.385 . S
C1768 C1770 1.478 . S
C1769 H1763 0.930 . S
C1769 C1765 1.400 . S
C1769 C1768 1.385 . S
C1770 C1768 1.478 . S
C1770 C1772 1.381 . S
C1770 C1776 1.383 . S
C1771 C1767 1.495 . S
C1771 H1777 0.959 . S
C1771 H1778 0.961 . S
C1771 H1779 0.960 . S
C1772 C1770 1.381 . S
C1772 C1773 1.394 . S
C1772 H1780 0.930 . S
C1773 C1772 1.394 . S
C1773 C1774 1.383 . S
C1773 H1781 0.929 . S
C1774 C1773 1.383 . S
C1774 C1775 1.377 . S
C1775 H1759 0.930 . S
C1775 C1774 1.377 . S
C1775 C1776 1.379 . S
C1776 H1760 0.931 . S
C1776 C1770 1.383 . S
C1776 C1775 1.379 . S
H1777 C1771 0.959 . S
H1778 C1771 0.961 . S
H1779 C1771 0.960 . S
H1780 C1772 0.930 . S
H1781 C1773 0.929 . S
H1782 C1790 0.929 . S
H1783 C1792 0.930 . S
H1784 C1794 0.930 . S
H1785 C1797 0.929 . S
H1786 C1800 0.930 . S
H1787 C1802 0.960 . S
H1788 C1802 0.960 . S
H1789 C1802 0.960 . S
C1790 H1782 0.929 . S
C1790 C1791 1.377 . S
C1790 C1792 1.384 . S
C1791 C1790 1.377 . S
C1791 C1797 1.390 . S
C1792 H1783 0.930 . S
C1792 C1790 1.384 . S
C1792 C1793 1.372 . S
C1793 C1792 1.372 . S
C1793 C1794 1.400 . S
C1793 C1798 1.490 . S
C1794 H1784 0.930 . S
C1794 C1793 1.400 . S
C1794 C1797 1.386 . S
H1795 C1811 0.930 . S
H1796 C1812 0.931 . S
C1797 H1785 0.929 . S
C1797 C1791 1.390 . S
C1797 C1794 1.386 . S
C1798 C1793 1.490 . S
C1798 C1800 1.395 . S
C1798 C1801 1.403 . S
H1799 C1805 0.930 . S
C1800 H1786 0.930 . S
C1800 C1798 1.395 . S
C1800 C1803 1.403 . S
C1801 C1798 1.403 . S
C1801 C1802 1.524 . S
C1801 C1805 1.400 . S
C1802 H1787 0.960 . S
C1802 H1788 0.960 . S
C1802 H1789 0.960 . S
C1802 C1801 1.524 . S
C1803 C1800 1.403 . S
C1803 C1804 1.392 . S
C1803 C1807 1.495 . S
C1804 C1803 1.392 . S
C1804 C1805 1.385 . S
C1804 C1806 1.478 . S
C1805 H1799 0.930 . S
C1805 C1801 1.400 . S
C1805 C1804 1.385 . S
C1806 C1804 1.478 . S
C1806 C1808 1.381 . S
C1806 C1812 1.383 . S
C1807 C1803 1.495 . S
C1807 H1813 0.959 . S
C1807 H1814 0.961 . S
C1807 H1815 0.960 . S
C1808 C1806 1.381 . S
C1808 C1809 1.394 . S
C1808 H1816 0.930 . S
C1809 C1808 1.394 . S
C1809 C1810 1.383 . S
C1809 H1817 0.929 . S
C1810 C1809 1.383 . S
C1810 C1811 1.377 . S
C1811 H1795 0.930 . S
C1811 C1810 1.377 . S
C1811 C1812 1.379 . S
C1812 H1796 0.931 . S
C1812 C1806 1.383 . S
C1812 C1811 1.379 . S
H1813 C1807 0.959 . S
H1814 C1807 0.961 . S
H1815 C1807 0.960 . S
H1816 C1808 0.930 . S
H1817 C1809 0.929 . S
H1818 C1826 0.929 . S
H1819 C1828 0.930 . S
H1820 C1830 0.930 . S
H1821 C1833 0.929 . S
H1822 C1836 0.930 . S
H1823 C1838 0.960 . S
H1824 C1838 0.960 . S
H1825 C1838 0.960 . S
C1826 H1818 0.929 . S
C1826 C1827 1.377 . S
C1826 C1828 1.384 . S
C1827 C1826 1.377 . S
C1827 C1833 1.390 . S
C1828 H1819 0.930 . S
C1828 C1826 1.384 . S
C1828 C1829 1.372 . S
C1829 C1828 1.372 . S
C1829 C1830 1.400 . S
C1829 C1834 1.490 . S
C1830 H1820 0.930 . S
C1830 C1829 1.400 . S
C1830 C1833 1.386 . S
H1831 C1847 0.930 . S
H1832 C1848 0.931 . S
C1833 H1821 0.929 . S
C1833 C1827 1.390 . S
C1833 C1830 1.386 . S
C1834 C1829 1.490 . S
C1834 C1836 1.395 . S
C1834 C1837 1.403 . S
H1835 C1841 0.930 . S
C1836 H1822 0.930 . S
C1836 C1834 1.395 . S
C1836 C1839 1.403 . S
C1837 C1834 1.403 . S
C1837 C1838 1.524 . S
C1837 C1841 1.400 . S
C1838 H1823 0.960 . S
C1838 H1824 0.960 . S
C1838 H1825 0.960 . S
C1838 C1837 1.524 . S
C1839 C1836 1.403 . S
C1839 C1840 1.392 . S
C1839 C1843 1.495 . S
C1840 C1839 1.392 . S
C1840 C1841 1.385 . S
C1840 C1842 1.478 . S
C1841 H1835 0.930 . S
C1841 C1837 1.400 . S
C1841 C1840 1.385 . S
C1842 C1840 1.478 . S
C1842 C1844 1.381 . S
C1842 C1848 1.383 . S
C1843 C1839 1.495 . S
C1843 H1849 0.959 . S
C1843 H1850 0.961 . S
C1843 H1851 0.960 . S
C1844 C1842 1.381 . S
C1844 C1845 1.394 . S
C1844 H1852 0.930 . S
C1845 C1844 1.394 . S
C1845 C1846 1.383 . S
C1845 H1853 0.929 . S
C1846 C1845 1.383 . S
C1846 C1847 1.377 . S
C1847 H1831 0.930 . S
C1847 C1846 1.377 . S
C1847 C1848 1.379 . S
C1848 H1832 0.931 . S
C1848 C1842 1.383 . S
C1848 C1847 1.379 . S
H1849 C1843 0.959 . S
H1850 C1843 0.961 . S
H1851 C1843 0.960 . S
H1852 C1844 0.930 . S
H1853 C1845 0.929 . S
H1854 C1862 0.929 . S
H1855 C1864 0.930 . S
H1856 C1866 0.930 . S
H1857 C1869 0.929 . S
H1858 C1872 0.930 . S
H1859 C1874 0.960 . S
H1860 C1874 0.960 . S
H1861 C1874 0.960 . S
C1862 H1854 0.929 . S
C1862 C1863 1.377 . S
C1862 C1864 1.384 . S
C1863 C1862 1.377 . S
C1863 C1869 1.390 . S
C1864 H1855 0.930 . S
C1864 C1862 1.384 . S
C1864 C1865 1.372 . S
C1865 C1864 1.372 . S
C1865 C1866 1.400 . S
C1865 C1870 1.490 . S
C1866 H1856 0.930 . S
C1866 C1865 1.400 . S
C1866 C1869 1.386 . S
H1867 C1883 0.930 . S
H1868 C1884 0.931 . S
C1869 H1857 0.929 . S
C1869 C1863 1.390 . S
C1869 C1866 1.386 . S
C1870 C1865 1.490 . S
C1870 C1872 1.395 . S
C1870 C1873 1.403 . S
H1871 C1877 0.930 . S
C1872 H1858 0.930 . S
C1872 C1870 1.395 . S
C1872 C1875 1.403 . S
C1873 C1870 1.403 . S
C1873 C1874 1.524 . S
C1873 C1877 1.400 . S
C1874 H1859 0.960 . S
C1874 H1860 0.960 . S
C1874 H1861 0.960 . S
C1874 C1873 1.524 . S
C1875 C1872 1.403 . S
C1875 C1876 1.392 . S
C1875 C1879 1.495 . S
C1876 C1875 1.392 . S
C1876 C1877 1.385 . S
C1876 C1878 1.478 . S
C1877 H1871 0.930 . S
C1877 C1873 1.400 . S
C1877 C1876 1.385 . S
C1878 C1876 1.478 . S
C1878 C1880 1.381 . S
C1878 C1884 1.383 . S
C1879 C1875 1.495 . S
C1879 H1885 0.959 . S
C1879 H1886 0.961 . S
C1879 H1887 0.960 . S
C1880 C1878 1.381 . S
C1880 C1881 1.394 . S
C1880 H1888 0.930 . S
C1881 C1880 1.394 . S
C1881 C1882 1.383 . S
C1881 H1889 0.929 . S
C1882 C1881 1.383 . S
C1882 C1883 1.377 . S
C1883 H1867 0.930 . S
C1883 C1882 1.377 . S
C1883 C1884 1.379 . S
C1884 H1868 0.931 . S
C1884 C1878 1.383 . S
C1884 C1883 1.379 . S
H1885 C1879 0.959 . S
H1886 C1879 0.961 . S
H1887 C1879 0.960 . S
H1888 C1880 0.930 . S
H1889 C1881 0.929 . S
H1890 C1898 0.929 . S
H1891 C1900 0.930 . S
H1892 C1902 0.930 . S
H1893 C1905 0.929 . S
H1894 C1908 0.930 . S
H1895 C1910 0.960 . S
H1896 C1910 0.960 . S
H1897 C1910 0.960 . S
C1898 H1890 0.929 . S
C1898 C1899 1.377 . S
C1898 C1900 1.384 . S
C1899 C1898 1.377 . S
C1899 C1905 1.390 . S
C1900 H1891 0.930 . S
C1900 C1898 1.384 . S
C1900 C1901 1.372 . S
C1901 C1900 1.372 . S
C1901 C1902 1.400 . S
C1901 C1906 1.490 . S
C1902 H1892 0.930 . S
C1902 C1901 1.400 . S
C1902 C1905 1.386 . S
H1903 C1919 0.930 . S
H1904 C1920 0.931 . S
C1905 H1893 0.929 . S
C1905 C1899 1.390 . S
C1905 C1902 1.386 . S
C1906 C1901 1.490 . S
C1906 C1908 1.395 . S
C1906 C1909 1.403 . S
H1907 C1913 0.930 . S
C1908 H1894 0.930 . S
C1908 C1906 1.395 . S
C1908 C1911 1.403 . S
C1909 C1906 1.403 . S
C1909 C1910 1.524 . S
C1909 C1913 1.400 . S
C1910 H1895 0.960 . S
C1910 H1896 0.960 . S
C1910 H1897 0.960 . S
C1910 C1909 1.524 . S
C1911 C1908 1.403 . S
C1911 C1912 1.392 . S
C1911 C1915 1.495 . S
C1912 C1911 1.392 . S
C1912 C1913 1.385 . S
C1912 C1914 1.478 . S
C1913 H1907 0.930 . S
C1913 C1909 1.400 . S
C1913 C1912 1.385 . S
C1914 C1912 1.478 . S
C1914 C1916 1.381 . S
C1914 C1920 1.383 . S
C1915 C1911 1.495 . S
C1915 H1921 0.959 . S
C1915 H1922 0.961 . S
C1915 H1923 0.960 . S
C1916 C1914 1.381 . S
C1916 C1917 1.394 . S
C1916 H1924 0.930 . S
C1917 C1916 1.394 . S
C1917 C1918 1.383 . S
C1917 H1925 0.929 . S
C1918 C1917 1.383 . S
C1918 C1919 1.377 . S
C1919 H1903 0.930 . S
C1919 C1918 1.377 . S
C1919 C1920 1.379 . S
C1920 H1904 0.931 . S
C1920 C1914 1.383 . S
C1920 C1919 1.379 . S
H1921 C1915 0.959 . S
H1922 C1915 0.961 . S
H1923 C1915 0.960 . S
H1924 C1916 0.930 . S
H1925 C1917 0.929 . S
H1926 C1934 0.929 . S
H1927 C1936 0.930 . S
H1928 C1938 0.930 . S
H1929 C1941 0.929 . S
H1930 C1944 0.930 . S
H1931 C1946 0.960 . S
H1932 C1946 0.960 . S
H1933 C1946 0.960 . S
C1934 H1926 0.929 . S
C1934 C1935 1.377 . S
C1934 C1936 1.384 . S
C1935 C1934 1.377 . S
C1935 C1941 1.390 . S
C1936 H1927 0.930 . S
C1936 C1934 1.384 . S
C1936 C1937 1.372 . S
C1937 C1936 1.372 . S
C1937 C1938 1.400 . S
C1937 C1942 1.490 . S
C1938 H1928 0.930 . S
C1938 C1937 1.400 . S
C1938 C1941 1.386 . S
H1939 C1955 0.930 . S
H1940 C1956 0.931 . S
C1941 H1929 0.929 . S
C1941 C1935 1.390 . S
C1941 C1938 1.386 . S
C1942 C1937 1.490 . S
C1942 C1944 1.395 . S
C1942 C1945 1.403 . S
H1943 C1949 0.930 . S
C1944 H1930 0.930 . S
C1944 C1942 1.395 . S
C1944 C1947 1.403 . S
C1945 C1942 1.403 . S
C1945 C1946 1.524 . S
C1945 C1949 1.400 . S
C1946 H1931 0.960 . S
C1946 H1932 0.960 . S
C1946 H1933 0.960 . S
C1946 C1945 1.524 . S
C1947 C1944 1.403 . S
C1947 C1948 1.392 . S
C1947 C1951 1.495 . S
C1948 C1947 1.392 . S
C1948 C1949 1.385 . S
C1948 C1950 1.478 . S
C1949 H1943 0.930 . S
C1949 C1945 1.400 . S
C1949 C1948 1.385 . S
C1950 C1948 1.478 . S
C1950 C1952 1.381 . S
C1950 C1956 1.383 . S
C1951 C1947 1.495 . S
C1951 H1957 0.959 . S
C1951 H1958 0.961 . S
C1951 H1959 0.960 . S
C1952 C1950 1.381 . S
C1952 C1953 1.394 . S
C1952 H1960 0.930 . S
C1953 C1952 1.394 . S
C1953 C1954 1.383 . S
C1953 H1961 0.929 . S
C1954 C1953 1.383 . S
C1954 C1955 1.377 . S
C1955 H1939 0.930 . S
C1955 C1954 1.377 . S
C1955 C1956 1.379 . S
C1956 H1940 0.931 . S
C1956 C1950 1.383 . S
C1956 C1955 1.379 . S
H1957 C1951 0.959 . S
H1958 C1951 0.961 . S
H1959 C1951 0.960 . S
H1960 C1952 0.930 . S
H1961 C1953 0.929 . S
H1962 C1970 0.929 . S
H1963 C1972 0.930 . S
H1964 C1974 0.930 . S
H1965 C1977 0.929 . S
H1966 C1980 0.930 . S
H1967 C1982 0.960 . S
H1968 C1982 0.960 . S
H1969 C1982 0.960 . S
C1970 H1962 0.929 . S
C1970 C1971 1.377 . S
C1970 C1972 1.384 . S
C1971 C1970 1.377 . S
C1971 C1977 1.390 . S
C1972 H1963 0.930 . S
C1972 C1970 1.384 . S
C1972 C1973 1.372 . S
C1973 C1972 1.372 . S
C1973 C1974 1.400 . S
C1973 C1978 1.490 . S
C1974 H1964 0.930 . S
C1974 C1973 1.400 . S
C1974 C1977 1.386 . S
H1975 C1991 0.930 . S
H1976 C1992 0.931 . S
C1977 H1965 0.929 . S
C1977 C1971 1.390 . S
C1977 C1974 1.386 . S
C1978 C1973 1.490 . S
C1978 C1980 1.395 . S
C1978 C1981 1.403 . S
H1979 C1985 0.930 . S
C1980 H1966 0.930 . S
C1980 C1978 1.395 . S
C1980 C1983 1.403 . S
C1981 C1978 1.403 . S
C1981 C1982 1.524 . S
C1981 C1985 1.400 . S
C1982 H1967 0.960 . S
C1982 H1968 0.960 . S
C1982 H1969 0.960 . S
C1982 C1981 1.524 . S
C1983 C1980 1.403 . S
C1983 C1984 1.392 . S
C1983 C1987 1.495 . S
C1984 C1983 1.392 . S
C1984 C1985 1.385 . S
C1984 C1986 1.478 . S
C1985 H1979 0.930 . S
C1985 C1981 1.400 . S
C1985 C1984 1.385 . S
C1986 C1984 1.478 . S
C1986 C1988 1.381 . S
C1986 C1992 1.383 . S
C1987 C1983 1.495 . S
C1987 H1993 0.959 . S
C1987 H1994 0.961 . S
C1987 H1995 0.960 . S
C1988 C1986 1.381 . S
C1988 C1989 1.394 . S
C1988 H1996 0.930 . S
C1989 C1988 1.394 . S
C1989 C1990 1.383 . S
C1989 H1997 0.929 . S
C1990 C1989 1.383 . S
C1990 C1991 1.377 . S
C1991 H1975 0.930 . S
C1991 C1990 1.377 . S
C1991 C1992 1.379 . S
C1992 H1976 0.931 . S
C1992 C1986 1.383 . S
C1992 C1991 1.379 . S
H1993 C1987 0.959 . S
H1994 C1987 0.961 . S
H1995 C1987 0.960 . S
H1996 C1988 0.930 . S
H1997 C1989 0.929 . S
H1998 C2006 0.929 . S
H1999 C2008 0.930 . S
H2000 C2010 0.930 . S
H2001 C2013 0.929 . S
H2002 C2016 0.930 . S
H2003 C2018 0.960 . S
H2004 C2018 0.960 . S
H2005 C2018 0.960 . S
C2006 H1998 0.929 . S
C2006 C2007 1.377 . S
C2006 C2008 1.384 . S
C2007 C2006 1.377 . S
C2007 C2013 1.390 . S
C2008 H1999 0.930 . S
C2008 C2006 1.384 . S
C2008 C2009 1.372 . S
C2009 C2008 1.372 . S
C2009 C2010 1.400 . S
C2009 C2014 1.490 . S
C2010 H2000 0.930 . S
C2010 C2009 1.400 . S
C2010 C2013 1.386 . S
H2011 C2027 0.930 . S
H2012 C2028 0.931 . S
C2013 H2001 0.929 . S
C2013 C2007 1.390 . S
C2013 C2010 1.386 . S
C2014 C2009 1.490 . S
C2014 C2016 1.395 . S
C2014 C2017 1.403 . S
H2015 C2021 0.930 . S
C2016 H2002 0.930 . S
C2016 C2014 1.395 . S
C2016 C2019 1.403 . S
C2017 C2014 1.403 . S
C2017 C2018 1.524 . S
C2017 C2021 1.400 . S
C2018 H2003 0.960 . S
C2018 H2004 0.960 . S
C2018 H2005 0.960 . S
C2018 C2017 1.524 . S
C2019 C2016 1.403 . S
C2019 C2020 1.392 . S
C2019 C2023 1.495 . S
C2020 C2019 1.392 . S
C2020 C2021 1.385 . S
C2020 C2022 1.478 . S
C2021 H2015 0.930 . S
C2021 C2017 1.400 . S
C2021 C2020 1.385 . S
C2022 C2020 1.478 . S
C2022 C2024 1.381 . S
C2022 C2028 1.383 . S
C2023 C2019 1.495 . S
C2023 H2029 0.959 . S
C2023 H2030 0.961 . S
C2023 H2031 0.960 . S
C2024 C2022 1.381 . S
C2024 C2025 1.394 . S
C2024 H2032 0.930 . S
C2025 C2024 1.394 . S
C2025 C2026 1.383 . S
C2025 H2033 0.929 . S
C2026 C2025 1.383 . S
C2026 C2027 1.377 . S
C2027 H2011 0.930 . S
C2027 C2026 1.377 . S
C2027 C2028 1.379 . S
C2028 H2012 0.931 . S
C2028 C2022 1.383 . S
C2028 C2027 1.379 . S
H2029 C2023 0.959 . S
H2030 C2023 0.961 . S
H2031 C2023 0.960 . S
H2032 C2024 0.930 . S
H2033 C2025 0.929 . S
H2034 C2042 0.929 . S
H2035 C2044 0.930 . S
H2036 C2046 0.930 . S
H2037 C2049 0.929 . S
H2038 C2052 0.930 . S
H2039 C2054 0.960 . S
H2040 C2054 0.960 . S
H2041 C2054 0.960 . S
C2042 H2034 0.929 . S
C2042 C2043 1.377 . S
C2042 C2044 1.384 . S
C2043 C2042 1.377 . S
C2043 C2049 1.390 . S
C2044 H2035 0.930 . S
C2044 C2042 1.384 . S
C2044 C2045 1.372 . S
C2045 C2044 1.372 . S
C2045 C2046 1.400 . S
C2045 C2050 1.490 . S
C2046 H2036 0.930 . S
C2046 C2045 1.400 . S
C2046 C2049 1.386 . S
H2047 C2063 0.930 . S
H2048 C2064 0.931 . S
C2049 H2037 0.929 . S
C2049 C2043 1.390 . S
C2049 C2046 1.386 . S
C2050 C2045 1.490 . S
C2050 C2052 1.395 . S
C2050 C2053 1.403 . S
H2051 C2057 0.930 . S
C2052 H2038 0.930 . S
C2052 C2050 1.395 . S
C2052 C2055 1.403 . S
C2053 C2050 1.403 . S
C2053 C2054 1.524 . S
C2053 C2057 1.400 . S
C2054 H2039 0.960 . S
C2054 H2040 0.960 . S
C2054 H2041 0.960 . S
C2054 C2053 1.524 . S
C2055 C2052 1.403 . S
C2055 C2056 1.392 . S
C2055 C2059 1.495 . S
C2056 C2055 1.392 . S
C2056 C2057 1.385 . S
C2056 C2058 1.478 . S
C2057 H2051 0.930 . S
C2057 C2053 1.400 . S
C2057 C2056 1.385 . S
C2058 C2056 1.478 . S
C2058 C2060 1.381 . S
C2058 C2064 1.383 . S
C2059 C2055 1.495 . S
C2059 H2065 0.959 . S
C2059 H2066 0.961 . S
C2059 H2067 0.960 . S
C2060 C2058 1.381 . S
C2060 C2061 1.394 . S
C2060 H2068 0.930 . S
C2061 C2060 1.394 . S
C2061 C2062 1.383 . S
C2061 H2069 0.929 . S
C2062 C2061 1.383 . S
C2062 C2063 1.377 . S
C2063 H2047 0.930 . S
C2063 C2062 1.377 . S
C2063 C2064 1.379 . S
C2064 H2048 0.931 . S
C2064 C2058 1.383 . S
C2064 C2063 1.379 . S
H2065 C2059 0.959 . S
H2066 C2059 0.961 . S
H2067 C2059 0.960 . S
H2068 C2060 0.930 . S
H2069 C2061 0.929 . S
H2070 C2078 0.929 . S
H2071 C2080 0.930 . S
H2072 C2082 0.930 . S
H2073 C2085 0.929 . S
H2074 C2088 0.930 . S
H2075 C2090 0.960 . S
H2076 C2090 0.960 . S
H2077 C2090 0.960 . S
C2078 H2070 0.929 . S
C2078 C2079 1.377 . S
C2078 C2080 1.384 . S
C2079 C2078 1.377 . S
C2079 C2085 1.390 . S
C2080 H2071 0.930 . S
C2080 C2078 1.384 . S
C2080 C2081 1.372 . S
C2081 C2080 1.372 . S
C2081 C2082 1.400 . S
C2081 C2086 1.490 . S
C2082 H2072 0.930 . S
C2082 C2081 1.400 . S
C2082 C2085 1.386 . S
H2083 C2099 0.930 . S
H2084 C2100 0.931 . S
C2085 H2073 0.929 . S
C2085 C2079 1.390 . S
C2085 C2082 1.386 . S
C2086 C2081 1.490 . S
C2086 C2088 1.395 . S
C2086 C2089 1.403 . S
H2087 C2093 0.930 . S
C2088 H2074 0.930 . S
C2088 C2086 1.395 . S
C2088 C2091 1.403 . S
C2089 C2086 1.403 . S
C2089 C2090 1.524 . S
C2089 C2093 1.400 . S
C2090 H2075 0.960 . S
C2090 H2076 0.960 . S
C2090 H2077 0.960 . S
C2090 C2089 1.524 . S
C2091 C2088 1.403 . S
C2091 C2092 1.392 . S
C2091 C2095 1.495 . S
C2092 C2091 1.392 . S
C2092 C2093 1.385 . S
C2092 C2094 1.478 . S
C2093 H2087 0.930 . S
C2093 C2089 1.400 . S
C2093 C2092 1.385 . S
C2094 C2092 1.478 . S
C2094 C2096 1.381 . S
C2094 C2100 1.383 . S
C2095 C2091 1.495 . S
C2095 H2101 0.959 . S
C2095 H2102 0.961 . S
C2095 H2103 0.960 . S
C2096 C2094 1.381 . S
C2096 C2097 1.394 . S
C2096 H2104 0.930 . S
C2097 C2096 1.394 . S
C2097 C2098 1.383 . S
C2097 H2105 0.929 . S
C2098 C2097 1.383 . S
C2098 C2099 1.377 . S
C2099 H2083 0.930 . S
C2099 C2098 1.377 . S
C2099 C2100 1.379 . S
C2100 H2084 0.931 . S
C2100 C2094 1.383 . S
C2100 C2099 1.379 . S
H2101 C2095 0.959 . S
H2102 C2095 0.961 . S
H2103 C2095 0.960 . S
H2104 C2096 0.930 . S
H2105 C2097 0.929 . S
H2106 C2114 0.929 . S
H2107 C2116 0.930 . S
H2108 C2118 0.930 . S
H2109 C2121 0.929 . S
H2110 C2124 0.930 . S
H2111 C2126 0.960 . S
H2112 C2126 0.960 . S
H2113 C2126 0.960 . S
C2114 H2106 0.929 . S
C2114 C2115 1.377 . S
C2114 C2116 1.384 . S
C2115 C2114 1.377 . S
C2115 C2121 1.390 . S
C2116 H2107 0.930 . S
C2116 C2114 1.384 . S
C2116 C2117 1.372 . S
C2117 C2116 1.372 . S
C2117 C2118 1.400 . S
C2117 C2122 1.490 . S
C2118 H2108 0.930 . S
C2118 C2117 1.400 . S
C2118 C2121 1.386 . S
H2119 C2135 0.930 . S
H2120 C2136 0.931 . S
C2121 H2109 0.929 . S
C2121 C2115 1.390 . S
C2121 C2118 1.386 . S
C2122 C2117 1.490 . S
C2122 C2124 1.395 . S
C2122 C2125 1.403 . S
H2123 C2129 0.930 . S
C2124 H2110 0.930 . S
C2124 C2122 1.395 . S
C2124 C2127 1.403 . S
C2125 C2122 1.403 . S
C2125 C2126 1.524 . S
C2125 C2129 1.400 . S
C2126 H2111 0.960 . S
C2126 H2112 0.960 . S
C2126 H2113 0.960 . S
C2126 C2125 1.524 . S
C2127 C2124 1.403 . S
C2127 C2128 1.392 . S
C2127 C2131 1.495 . S
C2128 C2127 1.392 . S
C2128 C2129 1.385 . S
C2128 C2130 1.478 . S
C2129 H2123 0.930 . S
C2129 C2125 1.400 . S
C2129 C2128 1.385 . S
C2130 C2128 1.478 . S
C2130 C2132 1.381 . S
C2130 C2136 1.383 . S
C2131 C2127 1.495 . S
C2131 H2137 0.959 . S
C2131 H2138 0.961 . S
C2131 H2139 0.960 . S
C2132 C2130 1.381 . S
C2132 C2133 1.394 . S
C2132 H2140 0.930 . S
C2133 C2132 1.394 . S
C2133 C2134 1.383 . S
C2133 H2141 0.929 . S
C2134 C2133 1.383 . S
C2134 C2135 1.377 . S
C2135 H2119 0.930 . S
C2135 C2134 1.377 . S
C2135 C2136 1.379 . S
C2136 H2120 0.931 . S
C2136 C2130 1.383 . S
C2136 C2135 1.379 . S
H2137 C2131 0.959 . S
H2138 C2131 0.961 . S
H2139 C2131 0.960 . S
H2140 C2132 0.930 . S
H2141 C2133 0.929 . S
H2142 C2150 0.929 . S
H2143 C2152 0.930 . S
H2144 C2154 0.930 . S
H2145 C2157 0.929 . S
H2146 C2160 0.930 . S
H2147 C2162 0.960 . S
H2148 C2162 0.960 . S
H2149 C2162 0.960 . S
C2150 H2142 0.929 . S
C2150 C2151 1.377 . S
C2150 C2152 1.384 . S
C2151 C2150 1.377 . S
C2151 C2157 1.390 . S
C2152 H2143 0.930 . S
C2152 C2150 1.384 . S
C2152 C2153 1.372 . S
C2153 C2152 1.372 . S
C2153 C2154 1.400 . S
C2153 C2158 1.490 . S
C2154 H2144 0.930 . S
C2154 C2153 1.400 . S
C2154 C2157 1.386 . S
H2155 C2171 0.930 . S
H2156 C2172 0.931 . S
C2157 H2145 0.929 . S
C2157 C2151 1.390 . S
C2157 C2154 1.386 . S
C2158 C2153 1.490 . S
C2158 C2160 1.395 . S
C2158 C2161 1.403 . S
H2159 C2165 0.930 . S
C2160 H2146 0.930 . S
C2160 C2158 1.395 . S
C2160 C2163 1.403 . S
C2161 C2158 1.403 . S
C2161 C2162 1.524 . S
C2161 C2165 1.400 . S
C2162 H2147 0.960 . S
C2162 H2148 0.960 . S
C2162 H2149 0.960 . S
C2162 C2161 1.524 . S
C2163 C2160 1.403 . S
C2163 C2164 1.392 . S
C2163 C2167 1.495 . S
C2164 C2163 1.392 . S
C2164 C2165 1.385 . S
C2164 C2166 1.478 . S
C2165 H2159 0.930 . S
C2165 C2161 1.400 . S
C2165 C2164 1.385 . S
C2166 C2164 1.478 . S
C2166 C2168 1.381 . S
C2166 C2172 1.383 . S
C2167 C2163 1.495 . S
C2167 H2173 0.959 . S
C2167 H2174 0.961 . S
C2167 H2175 0.960 . S
C2168 C2166 1.381 . S
C2168 C2169 1.394 . S
C2168 H2176 0.930 . S
C2169 C2168 1.394 . S
C2169 C2170 1.383 . S
C2169 H2177 0.929 . S
C2170 C2169 1.383 . S
C2170 C2171 1.377 . S
C2171 H2155 0.930 . S
C2171 C2170 1.377 . S
C2171 C2172 1.379 . S
C2172 H2156 0.931 . S
C2172 C2166 1.383 . S
C2172 C2171 1.379 . S
H2173 C2167 0.959 . S
H2174 C2167 0.961 . S
H2175 C2167 0.960 . S
H2176 C2168 0.930 . S
H2177 C2169 0.929 . S
H2178 C2186 0.929 . S
H2179 C2188 0.930 . S
H2180 C2190 0.930 . S
H2181 C2193 0.929 . S
H2182 C2196 0.930 . S
H2183 C2198 0.960 . S
H2184 C2198 0.960 . S
H2185 C2198 0.960 . S
C2186 H2178 0.929 . S
C2186 C2187 1.377 . S
C2186 C2188 1.384 . S
C2187 C2186 1.377 . S
C2187 C2193 1.390 . S
C2188 H2179 0.930 . S
C2188 C2186 1.384 . S
C2188 C2189 1.372 . S
C2189 C2188 1.372 . S
C2189 C2190 1.400 . S
C2189 C2194 1.490 . S
C2190 H2180 0.930 . S
C2190 C2189 1.400 . S
C2190 C2193 1.386 . S
H2191 C2207 0.930 . S
H2192 C2208 0.931 . S
C2193 H2181 0.929 . S
C2193 C2187 1.390 . S
C2193 C2190 1.386 . S
C2194 C2189 1.490 . S
C2194 C2196 1.395 . S
C2194 C2197 1.403 . S
H2195 C2201 0.930 . S
C2196 H2182 0.930 . S
C2196 C2194 1.395 . S
C2196 C2199 1.403 . S
C2197 C2194 1.403 . S
C2197 C2198 1.524 . S
C2197 C2201 1.400 . S
C2198 H2183 0.960 . S
C2198 H2184 0.960 . S
C2198 H2185 0.960 . S
C2198 C2197 1.524 . S
C2199 C2196 1.403 . S
C2199 C2200 1.392 . S
C2199 C2203 1.495 . S
C2200 C2199 1.392 . S
C2200 C2201 1.385 . S
C2200 C2202 1.478 . S
C2201 H2195 0.930 . S
C2201 C2197 1.400 . S
C2201 C2200 1.385 . S
C2202 C2200 1.478 . S
C2202 C2204 1.381 . S
C2202 C2208 1.383 . S
C2203 C2199 1.495 . S
C2203 H2209 0.959 . S
C2203 H2210 0.961 . S
C2203 H2211 0.960 . S
C2204 C2202 1.381 . S
C2204 C2205 1.394 . S
C2204 H2212 0.930 . S
C2205 C2204 1.394 . S
C2205 C2206 1.383 . S
C2205 H2213 0.929 . S
C2206 C2205 1.383 . S
C2206 C2207 1.377 . S
C2207 H2191 0.930 . S
C2207 C2206 1.377 . S
C2207 C2208 1.379 . S
C2208 H2192 0.931 . S
C2208 C2202 1.383 . S
C2208 C2207 1.379 . S
H2209 C2203 0.959 . S
H2210 C2203 0.961 . S
H2211 C2203 0.960 . S
H2212 C2204 0.930 . S
H2213 C2205 0.929 . S
H2214 C2222 0.929 . S
H2215 C2224 0.930 . S
H2216 C2226 0.930 . S
H2217 C2229 0.929 . S
H2218 C2232 0.930 . S
H2219 C2234 0.960 . S
H2220 C2234 0.960 . S
H2221 C2234 0.960 . S
C2222 H2214 0.929 . S
C2222 C2223 1.377 . S
C2222 C2224 1.384 . S
C2223 C2222 1.377 . S
C2223 C2229 1.390 . S
C2224 H2215 0.930 . S
C2224 C2222 1.384 . S
C2224 C2225 1.372 . S
C2225 C2224 1.372 . S
C2225 C2226 1.400 . S
C2225 C2230 1.490 . S
C2226 H2216 0.930 . S
C2226 C2225 1.400 . S
C2226 C2229 1.386 . S
H2227 C2243 0.930 . S
H2228 C2244 0.931 . S
C2229 H2217 0.929 . S
C2229 C2223 1.390 . S
C2229 C2226 1.386 . S
C2230 C2225 1.490 . S
C2230 C2232 1.395 . S
C2230 C2233 1.403 . S
H2231 C2237 0.930 . S
C2232 H2218 0.930 . S
C2232 C2230 1.395 . S
C2232 C2235 1.403 . S
C2233 C2230 1.403 . S
C2233 C2234 1.524 . S
C2233 C2237 1.400 . S
C2234 H2219 0.960 . S
C2234 H2220 0.960 . S
C2234 H2221 0.960 . S
C2234 C2233 1.524 . S
C2235 C2232 1.403 . S
C2235 C2236 1.392 . S
C2235 C2239 1.495 . S
C2236 C2235 1.392 . S
C2236 C2237 1.385 . S
C2236 C2238 1.478 . S
C2237 H2231 0.930 . S
C2237 C2233 1.400 . S
C2237 C2236 1.385 . S
C2238 C2236 1.478 . S
C2238 C2240 1.381 . S
C2238 C2244 1.383 . S
C2239 C2235 1.495 . S
C2239 H2245 0.959 . S
C2239 H2246 0.961 . S
C2239 H2247 0.960 . S
C2240 C2238 1.381 . S
C2240 C2241 1.394 . S
C2240 H2248 0.930 . S
C2241 C2240 1.394 . S
C2241 C2242 1.383 . S
C2241 H2249 0.929 . S
C2242 C2241 1.383 . S
C2242 C2243 1.377 . S
C2243 H2227 0.930 . S
C2243 C2242 1.377 . S
C2243 C2244 1.379 . S
C2244 H2228 0.931 . S
C2244 C2238 1.383 . S
C2244 C2243 1.379 . S
H2245 C2239 0.959 . S
H2246 C2239 0.961 . S
H2247 C2239 0.960 . S
H2248 C2240 0.930 . S
H2249 C2241 0.929 . S
H2250 C2258 0.929 . S
H2251 C2260 0.930 . S
H2252 C2262 0.930 . S
H2253 C2265 0.929 . S
H2254 C2268 0.930 . S
H2255 C2270 0.960 . S
H2256 C2270 0.960 . S
H2257 C2270 0.960 . S
C2258 H2250 0.929 . S
C2258 C2259 1.377 . S
C2258 C2260 1.384 . S
C2259 C2258 1.377 . S
C2259 C2265 1.390 . S
C2260 H2251 0.930 . S
C2260 C2258 1.384 . S
C2260 C2261 1.372 . S
C2261 C2260 1.372 . S
C2261 C2262 1.400 . S
C2261 C2266 1.490 . S
C2262 H2252 0.930 . S
C2262 C2261 1.400 . S
C2262 C2265 1.386 . S
H2263 C2279 0.930 . S
H2264 C2280 0.931 . S
C2265 H2253 0.929 . S
C2265 C2259 1.390 . S
C2265 C2262 1.386 . S
C2266 C2261 1.490 . S
C2266 C2268 1.395 . S
C2266 C2269 1.403 . S
H2267 C2273 0.930 . S
C2268 H2254 0.930 . S
C2268 C2266 1.395 . S
C2268 C2271 1.403 . S
C2269 C2266 1.403 . S
C2269 C2270 1.524 . S
C2269 C2273 1.400 . S
C2270 H2255 0.960 . S
C2270 H2256 0.960 . S
C2270 H2257 0.960 . S
C2270 C2269 1.524 . S
C2271 C2268 1.403 . S
C2271 C2272 1.392 . S
C2271 C2275 1.495 . S
C2272 C2271 1.392 . S
C2272 C2273 1.385 . S
C2272 C2274 1.478 . S
C2273 H2267 0.930 . S
C2273 C2269 1.400 . S
C2273 C2272 1.385 . S
C2274 C2272 1.478 . S
C2274 C2276 1.381 . S
C2274 C2280 1.383 . S
C2275 C2271 1.495 . S
C2275 H2281 0.959 . S
C2275 H2282 0.961 . S
C2275 H2283 0.960 . S
C2276 C2274 1.381 . S
C2276 C2277 1.394 . S
C2276 H2284 0.930 . S
C2277 C2276 1.394 . S
C2277 C2278 1.383 . S
C2277 H2285 0.929 . S
C2278 C2277 1.383 . S
C2278 C2279 1.377 . S
C2279 H2263 0.930 . S
C2279 C2278 1.377 . S
C2279 C2280 1.379 . S
C2280 H2264 0.931 . S
C2280 C2274 1.383 . S
C2280 C2279 1.379 . S
H2281 C2275 0.959 . S
H2282 C2275 0.961 . S
H2283 C2275 0.960 . S
H2284 C2276 0.930 . S
H2285 C2277 0.929 . S
H2286 C2294 0.929 . S
H2287 C2296 0.930 . S
H2288 C2298 0.930 . S
H2289 C2301 0.929 . S
H2290 C2304 0.930 . S
H2291 C2306 0.960 . S
H2292 C2306 0.960 . S
H2293 C2306 0.960 . S
C2294 H2286 0.929 . S
C2294 C2295 1.377 . S
C2294 C2296 1.384 . S
C2295 C2294 1.377 . S
C2295 C2301 1.390 . S
C2296 H2287 0.930 . S
C2296 C2294 1.384 . S
C2296 C2297 1.372 . S
C2297 C2296 1.372 . S
C2297 C2298 1.400 . S
C2297 C2302 1.490 . S
C2298 H2288 0.930 . S
C2298 C2297 1.400 . S
C2298 C2301 1.386 . S
H2299 C2315 0.930 . S
H2300 C2316 0.931 . S
C2301 H2289 0.929 . S
C2301 C2295 1.390 . S
C2301 C2298 1.386 . S
C2302 C2297 1.490 . S
C2302 C2304 1.395 . S
C2302 C2305 1.403 . S
H2303 C2309 0.930 . S
C2304 H2290 0.930 . S
C2304 C2302 1.395 . S
C2304 C2307 1.403 . S
C2305 C2302 1.403 . S
C2305 C2306 1.524 . S
C2305 C2309 1.400 . S
C2306 H2291 0.960 . S
C2306 H2292 0.960 . S
C2306 H2293 0.960 . S
C2306 C2305 1.524 . S
C2307 C2304 1.403 . S
C2307 C2308 1.392 . S
C2307 C2311 1.495 . S
C2308 C2307 1.392 . S
C2308 C2309 1.385 . S
C2308 C2310 1.478 . S
C2309 H2303 0.930 . S
C2309 C2305 1.400 . S
C2309 C2308 1.385 . S
C2310 C2308 1.478 . S
C2310 C2312 1.381 . S
C2310 C2316 1.383 . S
C2311 C2307 1.495 . S
C2311 H2317 0.959 . S
C2311 H2318 0.961 . S
C2311 H2319 0.960 . S
C2312 C2310 1.381 . S
C2312 C2313 1.394 . S
C2312 H2320 0.930 . S
C2313 C2312 1.394 . S
C2313 C2314 1.383 . S
C2313 H2321 0.929 . S
C2314 C2313 1.383 . S
C2314 C2315 1.377 . S
C2315 H2299 0.930 . S
C2315 C2314 1.377 . S
C2315 C2316 1.379 . S
C2316 H2300 0.931 . S
C2316 C2310 1.383 . S
C2316 C2315 1.379 . S
H2317 C2311 0.959 . S
H2318 C2311 0.961 . S
H2319 C2311 0.960 . S
H2320 C2312 0.930 . S
H2321 C2313 0.929 . S
H2322 C2330 0.929 . S
H2323 C2332 0.930 . S
H2324 C2334 0.930 . S
H2325 C2337 0.929 . S
H2326 C2340 0.930 . S
H2327 C2342 0.960 . S
H2328 C2342 0.960 . S
H2329 C2342 0.960 . S
C2330 H2322 0.929 . S
C2330 C2331 1.377 . S
C2330 C2332 1.384 . S
C2331 C2330 1.377 . S
C2331 C2337 1.390 . S
C2332 H2323 0.930 . S
C2332 C2330 1.384 . S
C2332 C2333 1.372 . S
C2333 C2332 1.372 . S
C2333 C2334 1.400 . S
C2333 C2338 1.490 . S
C2334 H2324 0.930 . S
C2334 C2333 1.400 . S
C2334 C2337 1.386 . S
H2335 C2351 0.930 . S
H2336 C2352 0.931 . S
C2337 H2325 0.929 . S
C2337 C2331 1.390 . S
C2337 C2334 1.386 . S
C2338 C2333 1.490 . S
C2338 C2340 1.395 . S
C2338 C2341 1.403 . S
H2339 C2345 0.930 . S
C2340 H2326 0.930 . S
C2340 C2338 1.395 . S
C2340 C2343 1.403 . S
C2341 C2338 1.403 . S
C2341 C2342 1.524 . S
C2341 C2345 1.400 . S
C2342 H2327 0.960 . S
C2342 H2328 0.960 . S
C2342 H2329 0.960 . S
C2342 C2341 1.524 . S
C2343 C2340 1.403 . S
C2343 C2344 1.392 . S
C2343 C2347 1.495 . S
C2344 C2343 1.392 . S
C2344 C2345 1.385 . S
C2344 C2346 1.478 . S
C2345 H2339 0.930 . S
C2345 C2341 1.400 . S
C2345 C2344 1.385 . S
C2346 C2344 1.478 . S
C2346 C2348 1.381 . S
C2346 C2352 1.383 . S
C2347 C2343 1.495 . S
C2347 H2353 0.959 . S
C2347 H2354 0.961 . S
C2347 H2355 0.960 . S
C2348 C2346 1.381 . S
C2348 C2349 1.394 . S
C2348 H2356 0.930 . S
C2349 C2348 1.394 . S
C2349 C2350 1.383 . S
C2349 H2357 0.929 . S
C2350 C2349 1.383 . S
C2350 C2351 1.377 . S
C2351 H2335 0.930 . S
C2351 C2350 1.377 . S
C2351 C2352 1.379 . S
C2352 H2336 0.931 . S
C2352 C2346 1.383 . S
C2352 C2351 1.379 . S
H2353 C2347 0.959 . S
H2354 C2347 0.961 . S
H2355 C2347 0.960 . S
H2356 C2348 0.930 . S
H2357 C2349 0.929 . S
H2358 C2366 0.929 . S
H2359 C2368 0.930 . S
H2360 C2370 0.930 . S
H2361 C2373 0.929 . S
H2362 C2376 0.930 . S
H2363 C2378 0.960 . S
H2364 C2378 0.960 . S
H2365 C2378 0.960 . S
C2366 H2358 0.929 . S
C2366 C2367 1.377 . S
C2366 C2368 1.384 . S
C2367 C2366 1.377 . S
C2367 C2373 1.390 . S
C2368 H2359 0.930 . S
C2368 C2366 1.384 . S
C2368 C2369 1.372 . S
C2369 C2368 1.372 . S
C2369 C2370 1.400 . S
C2369 C2374 1.490 . S
C2370 H2360 0.930 . S
C2370 C2369 1.400 . S
C2370 C2373 1.386 . S
H2371 C2387 0.930 . S
H2372 C2388 0.931 . S
C2373 H2361 0.929 . S
C2373 C2367 1.390 . S
C2373 C2370 1.386 . S
C2374 C2369 1.490 . S
C2374 C2376 1.395 . S
C2374 C2377 1.403 . S
H2375 C2381 0.930 . S
C2376 H2362 0.930 . S
C2376 C2374 1.395 . S
C2376 C2379 1.403 . S
C2377 C2374 1.403 . S
C2377 C2378 1.524 . S
C2377 C2381 1.400 . S
C2378 H2363 0.960 . S
C2378 H2364 0.960 . S
C2378 H2365 0.960 . S
C2378 C2377 1.524 . S
C2379 C2376 1.403 . S
C2379 C2380 1.392 . S
C2379 C2383 1.495 . S
C2380 C2379 1.392 . S
C2380 C2381 1.385 . S
C2380 C2382 1.478 . S
C2381 H2375 0.930 . S
C2381 C2377 1.400 . S
C2381 C2380 1.385 . S
C2382 C2380 1.478 . S
C2382 C2384 1.381 . S
C2382 C2388 1.383 . S
C2383 C2379 1.495 . S
C2383 H2389 0.959 . S
C2383 H2390 0.961 . S
C2383 H2391 0.960 . S
C2384 C2382 1.381 . S
C2384 C2385 1.394 . S
C2384 H2392 0.930 . S
C2385 C2384 1.394 . S
C2385 C2386 1.383 . S
C2385 H2393 0.929 . S
C2386 C2385 1.383 . S
C2386 C2387 1.377 . S
C2387 H2371 0.930 . S
C2387 C2386 1.377 . S
C2387 C2388 1.379 . S
C2388 H2372 0.931 . S
C2388 C2382 1.383 . S
C2388 C2387 1.379 . S
H2389 C2383 0.959 . S
H2390 C2383 0.961 . S
H2391 C2383 0.960 . S
H2392 C2384 0.930 . S
H2393 C2385 0.929 . S
H2394 C2402 0.929 . S
H2395 C2404 0.930 . S
H2396 C2406 0.930 . S
H2397 C2409 0.929 . S
H2398 C2412 0.930 . S
H2399 C2414 0.960 . S
H2400 C2414 0.960 . S
H2401 C2414 0.960 . S
C2402 H2394 0.929 . S
C2402 C2403 1.377 . S
C2402 C2404 1.384 . S
C2403 C2402 1.377 . S
C2403 C2409 1.390 . S
C2404 H2395 0.930 . S
C2404 C2402 1.384 . S
C2404 C2405 1.372 . S
C2405 C2404 1.372 . S
C2405 C2406 1.400 . S
C2405 C2410 1.490 . S
C2406 H2396 0.930 . S
C2406 C2405 1.400 . S
C2406 C2409 1.386 . S
H2407 C2423 0.930 . S
H2408 C2424 0.931 . S
C2409 H2397 0.929 . S
C2409 C2403 1.390 . S
C2409 C2406 1.386 . S
C2410 C2405 1.490 . S
C2410 C2412 1.395 . S
C2410 C2413 1.403 . S
H2411 C2417 0.930 . S
C2412 H2398 0.930 . S
C2412 C2410 1.395 . S
C2412 C2415 1.403 . S
C2413 C2410 1.403 . S
C2413 C2414 1.524 . S
C2413 C2417 1.400 . S
C2414 H2399 0.960 . S
C2414 H2400 0.960 . S
C2414 H2401 0.960 . S
C2414 C2413 1.524 . S
C2415 C2412 1.403 . S
C2415 C2416 1.392 . S
C2415 C2419 1.495 . S
C2416 C2415 1.392 . S
C2416 C2417 1.385 . S
C2416 C2418 1.478 . S
C2417 H2411 0.930 . S
C2417 C2413 1.400 . S
C2417 C2416 1.385 . S
C2418 C2416 1.478 . S
C2418 C2420 1.381 . S
C2418 C2424 1.383 . S
C2419 C2415 1.495 . S
C2419 H2425 0.959 . S
C2419 H2426 0.961 . S
C2419 H2427 0.960 . S
C2420 C2418 1.381 . S
C2420 C2421 1.394 . S
C2420 H2428 0.930 . S
C2421 C2420 1.394 . S
C2421 C2422 1.383 . S
C2421 H2429 0.929 . S
C2422 C2421 1.383 . S
C2422 C2423 1.377 . S
C2423 H2407 0.930 . S
C2423 C2422 1.377 . S
C2423 C2424 1.379 . S
C2424 H2408 0.931 . S
C2424 C2418 1.383 . S
C2424 C2423 1.379 . S
H2425 C2419 0.959 . S
H2426 C2419 0.961 . S
H2427 C2419 0.960 . S
H2428 C2420 0.930 . S
H2429 C2421 0.929 . S
H2430 C2438 0.929 . S
H2431 C2440 0.930 . S
H2432 C2442 0.930 . S
H2433 C2445 0.929 . S
H2434 C2448 0.930 . S
H2435 C2450 0.960 . S
H2436 C2450 0.960 . S
H2437 C2450 0.960 . S
C2438 H2430 0.929 . S
C2438 C2439 1.377 . S
C2438 C2440 1.384 . S
C2439 C2438 1.377 . S
C2439 C2445 1.390 . S
C2440 H2431 0.930 . S
C2440 C2438 1.384 . S
C2440 C2441 1.372 . S
C2441 C2440 1.372 . S
C2441 C2442 1.400 . S
C2441 C2446 1.490 . S
C2442 H2432 0.930 . S
C2442 C2441 1.400 . S
C2442 C2445 1.386 . S
H2443 C2459 0.930 . S
H2444 C2460 0.931 . S
C2445 H2433 0.929 . S
C2445 C2439 1.390 . S
C2445 C2442 1.386 . S
C2446 C2441 1.490 . S
C2446 C2448 1.395 . S
C2446 C2449 1.403 . S
H2447 C2453 0.930 . S
C2448 H2434 0.930 . S
C2448 C2446 1.395 . S
C2448 C2451 1.403 . S
C2449 C2446 1.403 . S
C2449 C2450 1.524 . S
C2449 C2453 1.400 . S
C2450 H2435 0.960 . S
C2450 H2436 0.960 . S
C2450 H2437 0.960 . S
C2450 C2449 1.524 . S
C2451 C2448 1.403 . S
C2451 C2452 1.392 . S
C2451 C2455 1.495 . S
C2452 C2451 1.392 . S
C2452 C2453 1.385 . S
C2452 C2454 1.478 . S
C2453 H2447 0.930 . S
C2453 C2449 1.400 . S
C2453 C2452 1.385 . S
C2454 C2452 1.478 . S
C2454 C2456 1.381 . S
C2454 C2460 1.383 . S
C2455 C2451 1.495 . S
C2455 H2461 0.959 . S
C2455 H2462 0.961 . S
C2455 H2463 0.960 . S
C2456 C2454 1.381 . S
C2456 C2457 1.394 . S
C2456 H2464 0.930 . S
C2457 C2456 1.394 . S
C2457 C2458 1.383 . S
C2457 H2465 0.929 . S
C2458 C2457 1.383 . S
C2458 C2459 1.377 . S
C2459 H2443 0.930 . S
C2459 C2458 1.377 . S
C2459 C2460 1.379 . S
C2460 H2444 0.931 . S
C2460 C2454 1.383 . S
C2460 C2459 1.379 . S
H2461 C2455 0.959 . S
H2462 C2455 0.961 . S
H2463 C2455 0.960 . S
H2464 C2456 0.930 . S
H2465 C2457 0.929 . S
H2466 C2474 0.929 . S
H2467 C2476 0.930 . S
H2468 C2478 0.930 . S
H2469 C2481 0.929 . S
H2470 C2484 0.930 . S
H2471 C2486 0.960 . S
H2472 C2486 0.960 . S
H2473 C2486 0.960 . S
C2474 H2466 0.929 . S
C2474 C2475 1.377 . S
C2474 C2476 1.384 . S
C2475 C2474 1.377 . S
C2475 C2481 1.390 . S
C2476 H2467 0.930 . S
C2476 C2474 1.384 . S
C2476 C2477 1.372 . S
C2477 C2476 1.372 . S
C2477 C2478 1.400 . S
C2477 C2482 1.490 . S
C2478 H2468 0.930 . S
C2478 C2477 1.400 . S
C2478 C2481 1.386 . S
H2479 C2495 0.930 . S
H2480 C2496 0.931 . S
C2481 H2469 0.929 . S
C2481 C2475 1.390 . S
C2481 C2478 1.386 . S
C2482 C2477 1.490 . S
C2482 C2484 1.395 . S
C2482 C2485 1.403 . S
H2483 C2489 0.930 . S
C2484 H2470 0.930 . S
C2484 C2482 1.395 . S
C2484 C2487 1.403 . S
C2485 C2482 1.403 . S
C2485 C2486 1.524 . S
C2485 C2489 1.400 . S
C2486 H2471 0.960 . S
C2486 H2472 0.960 . S
C2486 H2473 0.960 . S
C2486 C2485 1.524 . S
C2487 C2484 1.403 . S
C2487 C2488 1.392 . S
C2487 C2491 1.495 . S
C2488 C2487 1.392 . S
C2488 C2489 1.385 . S
C2488 C2490 1.478 . S
C2489 H2483 0.930 . S
C2489 C2485 1.400 . S
C2489 C2488 1.385 . S
C2490 C2488 1.478 . S
C2490 C2492 1.381 . S
C2490 C2496 1.383 . S
C2491 C2487 1.495 . S
C2491 H2497 0.959 . S
C2491 H2498 0.961 . S
C2491 H2499 0.960 . S
C2492 C2490 1.381 . S
C2492 C2493 1.394 . S
C2492 H2500 0.930 . S
C2493 C2492 1.394 . S
C2493 C2494 1.383 . S
C2493 H2501 0.929 . S
C2494 C2493 1.383 . S
C2494 C2495 1.377 . S
C2495 H2479 0.930 . S
C2495 C2494 1.377 . S
C2495 C2496 1.379 . S
C2496 H2480 0.931 . S
C2496 C2490 1.383 . S
C2496 C2495 1.379 . S
H2497 C2491 0.959 . S
H2498 C2491 0.961 . S
H2499 C2491 0.960 . S
H2500 C2492 0.930 . S
H2501 C2493 0.929 . S
H2502 C2510 0.929 . S
H2503 C2512 0.930 . S
H2504 C2514 0.930 . S
H2505 C2517 0.929 . S
H2506 C2520 0.930 . S
H2507 C2522 0.960 . S
H2508 C2522 0.960 . S
H2509 C2522 0.960 . S
C2510 H2502 0.929 . S
C2510 C2511 1.377 . S
C2510 C2512 1.384 . S
C2511 C2510 1.377 . S
C2511 C2517 1.390 . S
C2512 H2503 0.930 . S
C2512 C2510 1.384 . S
C2512 C2513 1.372 . S
C2513 C2512 1.372 . S
C2513 C2514 1.400 . S
C2513 C2518 1.490 . S
C2514 H2504 0.930 . S
C2514 C2513 1.400 . S
C2514 C2517 1.386 . S
H2515 C2531 0.930 . S
H2516 C2532 0.931 . S
C2517 H2505 0.929 . S
C2517 C2511 1.390 . S
C2517 C2514 1.386 . S
C2518 C2513 1.490 . S
C2518 C2520 1.395 . S
C2518 C2521 1.403 . S
H2519 C2525 0.930 . S
C2520 H2506 0.930 . S
C2520 C2518 1.395 . S
C2520 C2523 1.403 . S
C2521 C2518 1.403 . S
C2521 C2522 1.524 . S
C2521 C2525 1.400 . S
C2522 H2507 0.960 . S
C2522 H2508 0.960 . S
C2522 H2509 0.960 . S
C2522 C2521 1.524 . S
C2523 C2520 1.403 . S
C2523 C2524 1.392 . S
C2523 C2527 1.495 . S
C2524 C2523 1.392 . S
C2524 C2525 1.385 . S
C2524 C2526 1.478 . S
C2525 H2519 0.930 . S
C2525 C2521 1.400 . S
C2525 C2524 1.385 . S
C2526 C2524 1.478 . S
C2526 C2528 1.381 . S
C2526 C2532 1.383 . S
C2527 C2523 1.495 . S
C2527 H2533 0.959 . S
C2527 H2534 0.961 . S
C2527 H2535 0.960 . S
C2528 C2526 1.381 . S
C2528 C2529 1.394 . S
C2528 H2536 0.930 . S
C2529 C2528 1.394 . S
C2529 C2530 1.383 . S
C2529 H2537 0.929 . S
C2530 C2529 1.383 . S
C2530 C2531 1.377 . S
C2531 H2515 0.930 . S
C2531 C2530 1.377 . S
C2531 C2532 1.379 . S
C2532 H2516 0.931 . S
C2532 C2526 1.383 . S
C2532 C2531 1.379 . S
H2533 C2527 0.959 . S
H2534 C2527 0.961 . S
H2535 C2527 0.960 . S
H2536 C2528 0.930 . S
H2537 C2529 0.929 . S
H2538 C2546 0.929 . S
H2539 C2548 0.930 . S
H2540 C2550 0.930 . S
H2541 C2553 0.929 . S
H2542 C2556 0.930 . S
H2543 C2558 0.960 . S
H2544 C2558 0.960 . S
H2545 C2558 0.960 . S
C2546 H2538 0.929 . S
C2546 C2547 1.377 . S
C2546 C2548 1.384 . S
C2547 C2546 1.377 . S
C2547 C2553 1.390 . S
C2548 H2539 0.930 . S
C2548 C2546 1.384 . S
C2548 C2549 1.372 . S
C2549 C2548 1.372 . S
C2549 C2550 1.400 . S
C2549 C2554 1.490 . S
C2550 H2540 0.930 . S
C2550 C2549 1.400 . S
C2550 C2553 1.386 . S
H2551 C2567 0.930 . S
H2552 C2568 0.931 . S
C2553 H2541 0.929 . S
C2553 C2547 1.390 . S
C2553 C2550 1.386 . S
C2554 C2549 1.490 . S
C2554 C2556 1.395 . S
C2554 C2557 1.403 . S
H2555 C2561 0.930 . S
C2556 H2542 0.930 . S
C2556 C2554 1.395 . S
C2556 C2559 1.403 . S
C2557 C2554 1.403 . S
C2557 C2558 1.524 . S
C2557 C2561 1.400 . S
C2558 H2543 0.960 . S
C2558 H2544 0.960 . S
C2558 H2545 0.960 . S
C2558 C2557 1.524 . S
C2559 C2556 1.403 . S
C2559 C2560 1.392 . S
C2559 C2563 1.495 . S
C2560 C2559 1.392 . S
C2560 C2561 1.385 . S
C2560 C2562 1.478 . S
C2561 H2555 0.930 . S
C2561 C2557 1.400 . S
C2561 C2560 1.385 . S
C2562 C2560 1.478 . S
C2562 C2564 1.381 . S
C2562 C2568 1.383 . S
C2563 C2559 1.495 . S
C2563 H2569 0.959 . S
C2563 H2570 0.961 . S
C2563 H2571 0.960 . S
C2564 C2562 1.381 . S
C2564 C2565 1.394 . S
C2564 H2572 0.930 . S
C2565 C2564 1.394 . S
C2565 C2566 1.383 . S
C2565 H2573 0.929 . S
C2566 C2565 1.383 . S
C2566 C2567 1.377 . S
C2567 H2551 0.930 . S
C2567 C2566 1.377 . S
C2567 C2568 1.379 . S
C2568 H2552 0.931 . S
C2568 C2562 1.383 . S
C2568 C2567 1.379 . S
H2569 C2563 0.959 . S
H2570 C2563 0.961 . S
H2571 C2563 0.960 . S
H2572 C2564 0.930 . S
H2573 C2565 0.929 . S
H2574 C2582 0.929 . S
H2575 C2584 0.930 . S
H2576 C2586 0.930 . S
H2577 C2589 0.929 . S
H2578 C2592 0.930 . S
H2579 C2594 0.960 . S
H2580 C2594 0.960 . S
H2581 C2594 0.960 . S
C2582 H2574 0.929 . S
C2582 C2583 1.377 . S
C2582 C2584 1.384 . S
C2583 C2582 1.377 . S
C2583 C2589 1.390 . S
C2584 H2575 0.930 . S
C2584 C2582 1.384 . S
C2584 C2585 1.372 . S
C2585 C2584 1.372 . S
C2585 C2586 1.400 . S
C2585 C2590 1.490 . S
C2586 H2576 0.930 . S
C2586 C2585 1.400 . S
C2586 C2589 1.386 . S
H2587 C2603 0.930 . S
H2588 C2604 0.931 . S
C2589 H2577 0.929 . S
C2589 C2583 1.390 . S
C2589 C2586 1.386 . S
C2590 C2585 1.490 . S
C2590 C2592 1.395 . S
C2590 C2593 1.403 . S
H2591 C2597 0.930 . S
C2592 H2578 0.930 . S
C2592 C2590 1.395 . S
C2592 C2595 1.403 . S
C2593 C2590 1.403 . S
C2593 C2594 1.524 . S
C2593 C2597 1.400 . S
C2594 H2579 0.960 . S
C2594 H2580 0.960 . S
C2594 H2581 0.960 . S
C2594 C2593 1.524 . S
C2595 C2592 1.403 . S
C2595 C2596 1.392 . S
C2595 C2599 1.495 . S
C2596 C2595 1.392 . S
C2596 C2597 1.385 . S
C2596 C2598 1.478 . S
C2597 H2591 0.930 . S
C2597 C2593 1.400 . S
C2597 C2596 1.385 . S
C2598 C2596 1.478 . S
C2598 C2600 1.381 . S
C2598 C2604 1.383 . S
C2599 C2595 1.495 . S
C2599 H2605 0.959 . S
C2599 H2606 0.961 . S
C2599 H2607 0.960 . S
C2600 C2598 1.381 . S
C2600 C2601 1.394 . S
C2600 H2608 0.930 . S
C2601 C2600 1.394 . S
C2601 C2602 1.383 . S
C2601 H2609 0.929 . S
C2602 C2601 1.383 . S
C2602 C2603 1.377 . S
C2603 H2587 0.930 . S
C2603 C2602 1.377 . S
C2603 C2604 1.379 . S
C2604 H2588 0.931 . S
C2604 C2598 1.383 . S
C2604 C2603 1.379 . S
H2605 C2599 0.959 . S
H2606 C2599 0.961 . S
H2607 C2599 0.960 . S
H2608 C2600 0.930 . S
H2609 C2601 0.929 . S
H2610 C2618 0.929 . S
H2611 C2620 0.930 . S
H2612 C2622 0.930 . S
H2613 C2625 0.929 . S
H2614 C2628 0.930 . S
H2615 C2630 0.960 . S
H2616 C2630 0.960 . S
H2617 C2630 0.960 . S
C2618 H2610 0.929 . S
C2618 C2619 1.377 . S
C2618 C2620 1.384 . S
C2619 C2618 1.377 . S
C2619 C2625 1.390 . S
C2620 H2611 0.930 . S
C2620 C2618 1.384 . S
C2620 C2621 1.372 . S
C2621 C2620 1.372 . S
C2621 C2622 1.400 . S
C2621 C2626 1.490 . S
C2622 H2612 0.930 . S
C2622 C2621 1.400 . S
C2622 C2625 1.386 . S
H2623 C2639 0.930 . S
H2624 C2640 0.931 . S
C2625 H2613 0.929 . S
C2625 C2619 1.390 . S
C2625 C2622 1.386 . S
C2626 C2621 1.490 . S
C2626 C2628 1.395 . S
C2626 C2629 1.403 . S
H2627 C2633 0.930 . S
C2628 H2614 0.930 . S
C2628 C2626 1.395 . S
C2628 C2631 1.403 . S
C2629 C2626 1.403 . S
C2629 C2630 1.524 . S
C2629 C2633 1.400 . S
C2630 H2615 0.960 . S
C2630 H2616 0.960 . S
C2630 H2617 0.960 . S
C2630 C2629 1.524 . S
C2631 C2628 1.403 . S
C2631 C2632 1.392 . S
C2631 C2635 1.495 . S
C2632 C2631 1.392 . S
C2632 C2633 1.385 . S
C2632 C2634 1.478 . S
C2633 H2627 0.930 . S
C2633 C2629 1.400 . S
C2633 C2632 1.385 . S
C2634 C2632 1.478 . S
C2634 C2636 1.381 . S
C2634 C2640 1.383 . S
C2635 C2631 1.495 . S
C2635 H2641 0.959 . S
C2635 H2642 0.961 . S
C2635 H2643 0.960 . S
C2636 C2634 1.381 . S
C2636 C2637 1.394 . S
C2636 H2644 0.930 . S
C2637 C2636 1.394 . S
C2637 C2638 1.383 . S
C2637 H2645 0.929 . S
C2638 C2637 1.383 . S
C2638 C2639 1.377 . S
C2639 H2623 0.930 . S
C2639 C2638 1.377 . S
C2639 C2640 1.379 . S
C2640 H2624 0.931 . S
C2640 C2634 1.383 . S
C2640 C2639 1.379 . S
H2641 C2635 0.959 . S
H2642 C2635 0.961 . S
H2643 C2635 0.960 . S
H2644 C2636 0.930 . S
H2645 C2637 0.929 . S
H2646 C2654 0.929 . S
H2647 C2656 0.930 . S
H2648 C2658 0.930 . S
H2649 C2661 0.929 . S
H2650 C2664 0.930 . S
H2651 C2666 0.960 . S
H2652 C2666 0.960 . S
H2653 C2666 0.960 . S
C2654 H2646 0.929 . S
C2654 C2655 1.377 . S
C2654 C2656 1.384 . S
C2655 C2654 1.377 . S
C2655 C2661 1.390 . S
C2656 H2647 0.930 . S
C2656 C2654 1.384 . S
C2656 C2657 1.372 . S
C2657 C2656 1.372 . S
C2657 C2658 1.400 . S
C2657 C2662 1.490 . S
C2658 H2648 0.930 . S
C2658 C2657 1.400 . S
C2658 C2661 1.386 . S
H2659 C2675 0.930 . S
H2660 C2676 0.931 . S
C2661 H2649 0.929 . S
C2661 C2655 1.390 . S
C2661 C2658 1.386 . S
C2662 C2657 1.490 . S
C2662 C2664 1.395 . S
C2662 C2665 1.403 . S
H2663 C2669 0.930 . S
C2664 H2650 0.930 . S
C2664 C2662 1.395 . S
C2664 C2667 1.403 . S
C2665 C2662 1.403 . S
C2665 C2666 1.524 . S
C2665 C2669 1.400 . S
C2666 H2651 0.960 . S
C2666 H2652 0.960 . S
C2666 H2653 0.960 . S
C2666 C2665 1.524 . S
C2667 C2664 1.403 . S
C2667 C2668 1.392 . S
C2667 C2671 1.495 . S
C2668 C2667 1.392 . S
C2668 C2669 1.385 . S
C2668 C2670 1.478 . S
C2669 H2663 0.930 . S
C2669 C2665 1.400 . S
C2669 C2668 1.385 . S
C2670 C2668 1.478 . S
C2670 C2672 1.381 . S
C2670 C2676 1.383 . S
C2671 C2667 1.495 . S
C2671 H2677 0.959 . S
C2671 H2678 0.961 . S
C2671 H2679 0.960 . S
C2672 C2670 1.381 . S
C2672 C2673 1.394 . S
C2672 H2680 0.930 . S
C2673 C2672 1.394 . S
C2673 C2674 1.383 . S
C2673 H2681 0.929 . S
C2674 C2673 1.383 . S
C2674 C2675 1.377 . S
C2675 H2659 0.930 . S
C2675 C2674 1.377 . S
C2675 C2676 1.379 . S
C2676 H2660 0.931 . S
C2676 C2670 1.383 . S
C2676 C2675 1.379 . S
H2677 C2671 0.959 . S
H2678 C2671 0.961 . S
H2679 C2671 0.960 . S
H2680 C2672 0.930 . S
H2681 C2673 0.929 . S
H2682 C2690 0.929 . S
H2683 C2692 0.930 . S
H2684 C2694 0.930 . S
H2685 C2697 0.929 . S
H2686 C2700 0.930 . S
H2687 C2702 0.960 . S
H2688 C2702 0.960 . S
H2689 C2702 0.960 . S
C2690 H2682 0.929 . S
C2690 C2691 1.377 . S
C2690 C2692 1.384 . S
C2691 C2690 1.377 . S
C2691 C2697 1.390 . S
C2692 H2683 0.930 . S
C2692 C2690 1.384 . S
C2692 C2693 1.372 . S
C2693 C2692 1.372 . S
C2693 C2694 1.400 . S
C2693 C2698 1.490 . S
C2694 H2684 0.930 . S
C2694 C2693 1.400 . S
C2694 C2697 1.386 . S
H2695 C2711 0.930 . S
H2696 C2712 0.931 . S
C2697 H2685 0.929 . S
C2697 C2691 1.390 . S
C2697 C2694 1.386 . S
C2698 C2693 1.490 . S
C2698 C2700 1.395 . S
C2698 C2701 1.403 . S
H2699 C2705 0.930 . S
C2700 H2686 0.930 . S
C2700 C2698 1.395 . S
C2700 C2703 1.403 . S
C2701 C2698 1.403 . S
C2701 C2702 1.524 . S
C2701 C2705 1.400 . S
C2702 H2687 0.960 . S
C2702 H2688 0.960 . S
C2702 H2689 0.960 . S
C2702 C2701 1.524 . S
C2703 C2700 1.403 . S
C2703 C2704 1.392 . S
C2703 C2707 1.495 . S
C2704 C2703 1.392 . S
C2704 C2705 1.385 . S
C2704 C2706 1.478 . S
C2705 H2699 0.930 . S
C2705 C2701 1.400 . S
C2705 C2704 1.385 . S
C2706 C2704 1.478 . S
C2706 C2708 1.381 . S
C2706 C2712 1.383 . S
C2707 C2703 1.495 . S
C2707 H2713 0.959 . S
C2707 H2714 0.961 . S
C2707 H2715 0.960 . S
C2708 C2706 1.381 . S
C2708 C2709 1.394 . S
C2708 H2716 0.930 . S
C2709 C2708 1.394 . S
C2709 C2710 1.383 . S
C2709 H2717 0.929 . S
C2710 C2709 1.383 . S
C2710 C2711 1.377 . S
C2711 H2695 0.930 . S
C2711 C2710 1.377 . S
C2711 C2712 1.379 . S
C2712 H2696 0.931 . S
C2712 C2706 1.383 . S
C2712 C2711 1.379 . S
H2713 C2707 0.959 . S
H2714 C2707 0.961 . S
H2715 C2707 0.960 . S
H2716 C2708 0.930 . S
H2717 C2709 0.929 . S
H2718 C2726 0.929 . S
H2719 C2728 0.930 . S
H2720 C2730 0.930 . S
H2721 C2733 0.929 . S
H2722 C2736 0.930 . S
H2723 C2738 0.960 . S
H2724 C2738 0.960 . S
H2725 C2738 0.960 . S
C2726 H2718 0.929 . S
C2726 C2727 1.377 . S
C2726 C2728 1.384 . S
C2727 C2726 1.377 . S
C2727 C2733 1.390 . S
C2728 H2719 0.930 . S
C2728 C2726 1.384 . S
C2728 C2729 1.372 . S
C2729 C2728 1.372 . S
C2729 C2730 1.400 . S
C2729 C2734 1.490 . S
C2730 H2720 0.930 . S
C2730 C2729 1.400 . S
C2730 C2733 1.386 . S
H2731 C2747 0.930 . S
H2732 C2748 0.931 . S
C2733 H2721 0.929 . S
C2733 C2727 1.390 . S
C2733 C2730 1.386 . S
C2734 C2729 1.490 . S
C2734 C2736 1.395 . S
C2734 C2737 1.403 . S
H2735 C2741 0.930 . S
C2736 H2722 0.930 . S
C2736 C2734 1.395 . S
C2736 C2739 1.403 . S
C2737 C2734 1.403 . S
C2737 C2738 1.524 . S
C2737 C2741 1.400 . S
C2738 H2723 0.960 . S
C2738 H2724 0.960 . S
C2738 H2725 0.960 . S
C2738 C2737 1.524 . S
C2739 C2736 1.403 . S
C2739 C2740 1.392 . S
C2739 C2743 1.495 . S
C2740 C2739 1.392 . S
C2740 C2741 1.385 . S
C2740 C2742 1.478 . S
C2741 H2735 0.930 . S
C2741 C2737 1.400 . S
C2741 C2740 1.385 . S
C2742 C2740 1.478 . S
C2742 C2744 1.381 . S
C2742 C2748 1.383 . S
C2743 C2739 1.495 . S
C2743 H2749 0.959 . S
C2743 H2750 0.961 . S
C2743 H2751 0.960 . S
C2744 C2742 1.381 . S
C2744 C2745 1.394 . S
C2744 H2752 0.930 . S
C2745 C2744 1.394 . S
C2745 C2746 1.383 . S
C2745 H2753 0.929 . S
C2746 C2745 1.383 . S
C2746 C2747 1.377 . S
C2747 H2731 0.930 . S
C2747 C2746 1.377 . S
C2747 C2748 1.379 . S
C2748 H2732 0.931 . S
C2748 C2742 1.383 . S
C2748 C2747 1.379 . S
H2749 C2743 0.959 . S
H2750 C2743 0.961 . S
H2751 C2743 0.960 . S
H2752 C2744 0.930 . S
H2753 C2745 0.929 . S
H2754 C2762 0.929 . S
H2755 C2764 0.930 . S
H2756 C2766 0.930 . S
H2757 C2769 0.929 . S
H2758 C2772 0.930 . S
H2759 C2774 0.960 . S
H2760 C2774 0.960 . S
H2761 C2774 0.960 . S
C2762 H2754 0.929 . S
C2762 C2763 1.392 . S
C2762 C2764 1.384 . S
C2763 C2762 1.392 . S
C2763 C2769 1.366 1_554 S
C2764 H2755 0.930 . S
C2764 C2762 1.384 . S
C2764 C2765 1.372 1_554 S
C2765 C2764 1.372 1_556 S
C2765 C2766 1.400 . S
C2765 C2770 1.490 . S
C2766 H2756 0.930 . S
C2766 C2765 1.400 . S
C2766 C2769 1.386 . S
H2767 C2783 0.930 . S
H2768 C2784 0.931 . S
C2769 H2757 0.929 . S
C2769 C2763 1.366 1_556 S
C2769 C2766 1.386 . S
C2770 C2765 1.490 . S
C2770 C2772 1.395 . S
C2770 C2773 1.403 . S
H2771 C2777 0.930 . S
C2772 H2758 0.930 . S
C2772 C2770 1.395 . S
C2772 C2775 1.403 . S
C2773 C2770 1.403 . S
C2773 C2774 1.524 . S
C2773 C2777 1.400 . S
C2774 H2759 0.960 . S
C2774 H2760 0.960 . S
C2774 H2761 0.960 . S
C2774 C2773 1.524 . S
C2775 C2772 1.403 . S
C2775 C2776 1.392 . S
C2775 C2779 1.495 . S
C2776 C2775 1.392 . S
C2776 C2777 1.385 . S
C2776 C2778 1.478 . S
C2777 H2771 0.930 . S
C2777 C2773 1.400 . S
C2777 C2776 1.385 . S
C2778 C2776 1.478 . S
C2778 C2780 1.381 . S
C2778 C2784 1.383 . S
C2779 C2775 1.495 . S
C2779 H2785 0.959 . S
C2779 H2786 0.961 . S
C2779 H2787 0.960 . S
C2780 C2778 1.381 . S
C2780 C2781 1.394 . S
C2780 H2788 0.930 . S
C2781 C2780 1.394 . S
C2781 C2782 1.383 . S
C2781 H2789 0.929 . S
C2782 C2781 1.383 . S
C2782 C2783 1.377 . S
C2783 H2767 0.930 . S
C2783 C2782 1.377 . S
C2783 C2784 1.379 . S
C2784 H2768 0.931 . S
C2784 C2778 1.383 . S
C2784 C2783 1.379 . S
H2785 C2779 0.959 . S
H2786 C2779 0.961 . S
H2787 C2779 0.960 . S
H2788 C2780 0.930 . S
H2789 C2781 0.929 . S
H2790 C2798 0.929 . S
H2791 C2800 0.929 . S
H2792 C2802 0.930 . S
H2793 C2805 0.929 . S
H2794 C2808 0.930 1_554 S
H2795 C2810 0.960 . S
H2796 C2810 0.960 . S
H2797 C2810 0.960 . S
C2798 H2790 0.929 . S
C2798 C2799 1.377 1_554 S
C2798 C2800 1.383 . S
C2799 C2798 1.377 1_556 S
C2799 C2805 1.390 . S
C2800 H2791 0.929 . S
C2800 C2798 1.383 . S
C2800 C2801 1.374 1_554 S
C2801 C2800 1.374 1_556 S
C2801 C2802 1.400 . S
C2801 C2806 1.490 . S
C2802 H2792 0.930 . S
C2802 C2801 1.400 . S
C2802 C2805 1.386 . S
H2803 C2819 0.930 . S
H2804 C2820 0.931 . S
C2805 H2793 0.929 . S
C2805 C2799 1.390 . S
C2805 C2802 1.386 . S
C2806 C2801 1.490 . S
C2806 C2808 1.395 . S
C2806 C2809 1.403 . S
H2807 C2813 0.930 . S
C2808 H2794 0.930 1_556 S
C2808 C2806 1.395 . S
C2808 C2811 1.403 . S
C2809 C2806 1.403 . S
C2809 C2810 1.524 . S
C2809 C2813 1.400 . S
C2810 H2795 0.960 . S
C2810 H2796 0.960 . S
C2810 H2797 0.960 . S
C2810 C2809 1.524 . S
C2811 C2808 1.403 . S
C2811 C2812 1.392 . S
C2811 C2815 1.495 1_556 S
C2812 C2811 1.392 . S
C2812 C2813 1.385 . S
C2812 C2814 1.478 . S
C2813 H2807 0.930 . S
C2813 C2809 1.400 . S
C2813 C2812 1.385 . S
C2814 C2812 1.478 . S
C2814 C2816 1.381 . S
C2814 C2820 1.383 . S
C2815 C2811 1.495 1_554 S
C2815 H2821 0.959 . S
C2815 H2822 0.961 . S
C2815 H2823 0.960 . S
C2816 C2814 1.381 . S
C2816 C2817 1.394 . S
C2816 H2824 0.930 . S
C2817 C2816 1.394 . S
C2817 C2818 1.383 . S
C2817 H2825 0.929 . S
C2818 C2817 1.383 . S
C2818 C2819 1.377 . S
C2819 H2803 0.930 . S
C2819 C2818 1.377 . S
C2819 C2820 1.379 . S
C2820 H2804 0.931 . S
C2820 C2814 1.383 . S
C2820 C2819 1.379 . S
H2821 C2815 0.959 . S
H2822 C2815 0.961 . S
H2823 C2815 0.960 . S
H2824 C2816 0.930 . S
H2825 C2817 0.929 . S
H2826 C2834 0.929 . S
H2827 C2836 0.929 . S
H2828 C2838 0.930 . S
H2829 C2841 0.929 . S
H2830 C2844 0.930 . S
H2831 C2846 0.963 . S
H2832 C2846 0.976 . S
H2833 C2846 0.954 1_556 S
C2834 H2826 0.929 . S
C2834 C2835 1.365 1_554 S
C2834 C2836 1.384 1_554 S
C2835 C2834 1.365 1_556 S
C2835 C2841 1.421 . S
C2836 H2827 0.929 . S
C2836 C2834 1.384 1_556 S
C2836 C2837 1.372 . S
C2837 C2836 1.372 . S
C2837 C2838 1.400 . S
C2837 C2842 1.490 . S
C2838 H2828 0.930 . S
C2838 C2837 1.400 . S
C2838 C2841 1.386 . S
H2839 C2855 0.930 . S
H2840 C2856 0.931 . S
C2841 H2829 0.929 . S
C2841 C2835 1.421 . S
C2841 C2838 1.386 . S
C2842 C2837 1.490 . S
C2842 C2844 1.395 . S
C2842 C2845 1.403 . S
H2843 C2849 0.930 . S
C2844 H2830 0.930 . S
C2844 C2842 1.395 . S
C2844 C2847 1.403 . S
C2845 C2842 1.403 . S
C2845 C2846 1.512 1_556 S
C2845 C2849 1.400 . S
C2846 H2831 0.963 . S
C2846 H2832 0.976 . S
C2846 H2833 0.954 1_554 S
C2846 C2845 1.512 1_554 S
C2847 C2844 1.403 . S
C2847 C2848 1.392 . S
C2847 C2851 1.495 . S
C2848 C2847 1.392 . S
C2848 C2849 1.385 . S
C2848 C2850 1.478 . S
C2849 H2843 0.930 . S
C2849 C2845 1.400 . S
C2849 C2848 1.385 . S
C2850 C2848 1.478 . S
C2850 C2852 1.381 . S
C2850 C2856 1.383 . S
C2851 C2847 1.495 . S
C2851 H2857 0.959 . S
C2851 H2858 0.961 . S
C2851 H2859 0.960 . S
C2852 C2850 1.381 . S
C2852 C2853 1.394 . S
C2852 H2860 0.930 . S
C2853 C2852 1.394 . S
C2853 C2854 1.383 . S
C2853 H2861 0.929 . S
C2854 C2853 1.383 . S
C2854 C2855 1.377 . S
C2855 H2839 0.930 . S
C2855 C2854 1.377 . S
C2855 C2856 1.379 . S
C2856 H2840 0.931 . S
C2856 C2850 1.383 . S
C2856 C2855 1.379 . S
H2857 C2851 0.959 . S
H2858 C2851 0.961 . S
H2859 C2851 0.960 . S
H2860 C2852 0.930 . S
H2861 C2853 0.929 . S
H2862 C2870 0.929 . S
H2863 C2872 0.930 . S
H2864 C2874 0.930 . S
H2865 C2877 0.929 . S
H2866 C2880 0.930 . S
H2867 C2882 0.960 . S
H2868 C2882 0.960 . S
H2869 C2882 0.960 . S
C2870 H2862 0.929 . S
C2870 C2871 1.377 . S
C2870 C2872 1.384 . S
C2871 C2870 1.377 . S
C2871 C2877 1.390 . S
C2872 H2863 0.930 . S
C2872 C2870 1.384 . S
C2872 C2873 1.372 . S
C2873 C2872 1.372 . S
C2873 C2874 1.400 . S
C2873 C2878 1.490 . S
C2874 H2864 0.930 . S
C2874 C2873 1.400 . S
C2874 C2877 1.386 . S
H2875 C2891 0.930 . S
H2876 C2892 0.931 . S
C2877 H2865 0.929 . S
C2877 C2871 1.390 . S
C2877 C2874 1.386 . S
C2878 C2873 1.490 . S
C2878 C2880 1.395 . S
C2878 C2881 1.403 . S
H2879 C2885 0.930 . S
C2880 H2866 0.930 . S
C2880 C2878 1.395 . S
C2880 C2883 1.403 . S
C2881 C2878 1.403 . S
C2881 C2882 1.524 1_556 S
C2881 C2885 1.400 . S
C2882 H2867 0.960 . S
C2882 H2868 0.960 . S
C2882 H2869 0.960 . S
C2882 C2881 1.524 1_554 S
C2883 C2880 1.403 . S
C2883 C2884 1.392 . S
C2883 C2887 1.495 . S
C2884 C2883 1.392 . S
C2884 C2885 1.385 . S
C2884 C2886 1.478 . S
C2885 H2879 0.930 . S
C2885 C2881 1.400 . S
C2885 C2884 1.385 . S
C2886 C2884 1.478 . S
C2886 C2888 1.381 . S
C2886 C2892 1.383 . S
C2887 C2883 1.495 . S
C2887 H2893 0.959 . S
C2887 H2894 0.961 . S
C2887 H2895 0.960 . S
C2888 C2886 1.381 . S
C2888 C2889 1.394 . S
C2888 H2896 0.930 . S
C2889 C2888 1.394 . S
C2889 C2890 1.383 . S
C2889 H2897 0.929 . S
C2890 C2889 1.383 . S
C2890 C2891 1.377 . S
C2891 H2875 0.930 . S
C2891 C2890 1.377 . S
C2891 C2892 1.379 . S
C2892 H2876 0.931 . S
C2892 C2886 1.383 . S
C2892 C2891 1.379 . S
H2893 C2887 0.959 . S
H2894 C2887 0.961 . S
H2895 C2887 0.960 . S
H2896 C2888 0.930 . S
H2897 C2889 0.929 . S
H2898 C2906 0.928 1_554 S
H2899 C2908 0.930 . S
H2900 C2910 0.930 . S
H2901 C2913 0.929 . S
H2902 C2916 0.930 . S
H2903 C2918 0.960 . S
H2904 C2918 0.960 1_554 S
H2905 C2918 0.960 . S
C2906 H2898 0.928 1_556 S
C2906 C2907 1.378 . S
C2906 C2908 1.384 . S
C2907 C2906 1.378 . S
C2907 C2913 1.390 . S
C2908 H2899 0.930 . S
C2908 C2906 1.384 . S
C2908 C2909 1.372 . S
C2909 C2908 1.372 . S
C2909 C2910 1.400 . S
C2909 C2914 1.490 . S
C2910 H2900 0.930 . S
C2910 C2909 1.400 . S
C2910 C2913 1.386 . S
H2911 C2927 0.930 . S
H2912 C2928 0.931 . S
C2913 H2901 0.929 . S
C2913 C2907 1.390 . S
C2913 C2910 1.386 . S
C2914 C2909 1.490 . S
C2914 C2916 1.395 . S
C2914 C2917 1.403 . S
H2915 C2921 0.930 . S
C2916 H2902 0.930 . S
C2916 C2914 1.395 . S
C2916 C2919 1.403 . S
C2917 C2914 1.403 . S
C2917 C2918 1.524 . S
C2917 C2921 1.400 . S
C2918 H2903 0.960 . S
C2918 H2904 0.960 1_556 S
C2918 H2905 0.960 . S
C2918 C2917 1.524 . S
C2919 C2916 1.403 . S
C2919 C2920 1.392 . S
C2919 C2923 1.495 . S
C2920 C2919 1.392 . S
C2920 C2921 1.385 . S
C2920 C2922 1.478 . S
C2921 H2915 0.930 . S
C2921 C2917 1.400 . S
C2921 C2920 1.385 . S
C2922 C2920 1.478 . S
C2922 C2924 1.381 . S
C2922 C2928 1.383 . S
C2923 C2919 1.495 . S
C2923 H2929 0.959 . S
C2923 H2930 0.961 . S
C2923 H2931 0.960 . S
C2924 C2922 1.381 . S
C2924 C2925 1.394 . S
C2924 H2932 0.930 . S
C2925 C2924 1.394 . S
C2925 C2926 1.383 . S
C2925 H2933 0.929 . S
C2926 C2925 1.383 . S
C2926 C2927 1.377 . S
C2927 H2911 0.930 . S
C2927 C2926 1.377 . S
C2927 C2928 1.379 . S
C2928 H2912 0.931 . S
C2928 C2922 1.383 . S
C2928 C2927 1.379 . S
H2929 C2923 0.959 . S
H2930 C2923 0.961 . S
H2931 C2923 0.960 . S
H2932 C2924 0.930 . S
H2933 C2925 0.929 . S
H2934 C2942 0.929 . S
H2935 C2944 0.930 . S
H2936 C2946 0.930 . S
H2937 C2949 0.929 . S
H2938 C2952 0.930 . S
H2939 C2954 0.960 . S
H2940 C2954 0.960 . S
H2941 C2954 0.960 1_554 S
C2942 H2934 0.929 . S
C2942 C2943 1.377 . S
C2942 C2944 1.384 . S
C2943 C2942 1.377 . S
C2943 C2949 1.390 1_556 S
C2944 H2935 0.930 . S
C2944 C2942 1.384 . S
C2944 C2945 1.372 . S
C2945 C2944 1.372 . S
C2945 C2946 1.400 1_556 S
C2945 C2950 1.490 . S
C2946 H2936 0.930 . S
C2946 C2945 1.400 1_554 S
C2946 C2949 1.386 . S
H2947 C2963 0.930 . S
H2948 C2964 0.931 . S
C2949 H2937 0.929 . S
C2949 C2943 1.390 1_554 S
C2949 C2946 1.386 . S
C2950 C2945 1.490 . S
C2950 C2952 1.395 . S
C2950 C2953 1.403 . S
H2951 C2957 0.930 . S
C2952 H2938 0.930 . S
C2952 C2950 1.395 . S
C2952 C2955 1.403 . S
C2953 C2950 1.403 . S
C2953 C2954 1.524 . S
C2953 C2957 1.400 . S
C2954 H2939 0.960 . S
C2954 H2940 0.960 . S
C2954 H2941 0.960 1_556 S
C2954 C2953 1.524 . S
C2955 C2952 1.403 . S
C2955 C2956 1.392 . S
C2955 C2959 1.495 . S
C2956 C2955 1.392 . S
C2956 C2957 1.385 . S
C2956 C2958 1.478 . S
C2957 H2951 0.930 . S
C2957 C2953 1.400 . S
C2957 C2956 1.385 . S
C2958 C2956 1.478 . S
C2958 C2960 1.381 . S
C2958 C2964 1.383 . S
C2959 C2955 1.495 . S
C2959 H2965 0.959 . S
C2959 H2966 0.961 . S
C2959 H2967 0.960 . S
C2960 C2958 1.381 . S
C2960 C2961 1.394 . S
C2960 H2968 0.930 . S
C2961 C2960 1.394 . S
C2961 C2962 1.383 . S
C2961 H2969 0.929 . S
C2962 C2961 1.383 . S
C2962 C2963 1.377 . S
C2963 H2947 0.930 . S
C2963 C2962 1.377 . S
C2963 C2964 1.379 . S
C2964 H2948 0.931 . S
C2964 C2958 1.383 . S
C2964 C2963 1.379 . S
H2965 C2959 0.959 . S
H2966 C2959 0.961 . S
H2967 C2959 0.960 . S
H2968 C2960 0.930 . S
H2969 C2961 0.929 . S
H2970 C2978 0.915 1_556 S
H2971 C2980 0.930 . S
H2972 C2982 0.930 . S
H2973 C2985 0.929 . S
H2974 C2988 0.930 . S
H2975 C2990 0.960 . S
H2976 C2990 0.960 . S
H2977 C2990 0.960 . S
C2978 H2970 0.915 1_554 S
C2978 C2979 1.377 . S
C2978 C2980 1.384 . S
C2979 C2978 1.377 . S
C2979 C2985 1.390 . S
C2980 H2971 0.930 . S
C2980 C2978 1.384 . S
C2980 C2981 1.372 . S
C2981 C2980 1.372 . S
C2981 C2982 1.400 . S
C2981 C2986 1.490 . S
C2982 H2972 0.930 . S
C2982 C2981 1.400 . S
C2982 C2985 1.386 . S
H2983 C2999 0.930 . S
H2984 C3000 0.931 . S
C2985 H2973 0.929 . S
C2985 C2979 1.390 . S
C2985 C2982 1.386 . S
C2986 C2981 1.490 . S
C2986 C2988 1.395 . S
C2986 C2989 1.403 . S
H2987 C2993 0.930 . S
C2988 H2974 0.930 . S
C2988 C2986 1.395 . S
C2988 C2991 1.403 . S
C2989 C2986 1.403 . S
C2989 C2990 1.524 . S
C2989 C2993 1.400 . S
C2990 H2975 0.960 . S
C2990 H2976 0.960 . S
C2990 H2977 0.960 . S
C2990 C2989 1.524 . S
C2991 C2988 1.403 . S
C2991 C2992 1.392 . S
C2991 C2995 1.495 . S
C2992 C2991 1.392 . S
C2992 C2993 1.385 . S
C2992 C2994 1.478 . S
C2993 H2987 0.930 . S
C2993 C2989 1.400 . S
C2993 C2992 1.385 . S
C2994 C2992 1.478 . S
C2994 C2996 1.381 . S
C2994 C3000 1.383 . S
C2995 C2991 1.495 . S
C2995 H3001 0.959 . S
C2995 H3002 0.961 . S
C2995 H3003 0.960 . S
C2996 C2994 1.381 . S
C2996 C2997 1.394 . S
C2996 H3004 0.930 . S
C2997 C2996 1.394 . S
C2997 C2998 1.383 . S
C2997 H3005 0.929 . S
C2998 C2997 1.383 . S
C2998 C2999 1.377 . S
C2999 H2983 0.930 . S
C2999 C2998 1.377 . S
C2999 C3000 1.379 . S
C3000 H2984 0.931 . S
C3000 C2994 1.383 . S
C3000 C2999 1.379 . S
H3001 C2995 0.959 . S
H3002 C2995 0.961 . S
H3003 C2995 0.960 . S
H3004 C2996 0.930 . S
H3005 C2997 0.929 . S
H3006 C3014 0.929 . S
H3007 C3016 0.930 . S
H3008 C3018 0.930 . S
H3009 C3021 0.929 . S
H3010 C3024 0.930 . S
H3011 C3026 0.960 . S
H3012 C3026 0.960 . S
H3013 C3026 0.960 . S
C3014 H3006 0.929 . S
C3014 C3015 1.377 . S
C3014 C3016 1.384 . S
C3015 C3014 1.377 . S
C3015 C3021 1.390 . S
C3016 H3007 0.930 . S
C3016 C3014 1.384 . S
C3016 C3017 1.372 . S
C3017 C3016 1.372 . S
C3017 C3018 1.400 . S
C3017 C3022 1.490 . S
C3018 H3008 0.930 . S
C3018 C3017 1.400 . S
C3018 C3021 1.386 . S
H3019 C3035 0.930 . S
H3020 C3036 0.931 . S
C3021 H3009 0.929 . S
C3021 C3015 1.390 . S
C3021 C3018 1.386 . S
C3022 C3017 1.490 . S
C3022 C3024 1.395 . S
C3022 C3025 1.403 . S
H3023 C3029 0.930 . S
C3024 H3010 0.930 . S
C3024 C3022 1.395 . S
C3024 C3027 1.403 . S
C3025 C3022 1.403 . S
C3025 C3026 1.524 . S
C3025 C3029 1.400 . S
C3026 H3011 0.960 . S
C3026 H3012 0.960 . S
C3026 H3013 0.960 . S
C3026 C3025 1.524 . S
C3027 C3024 1.403 . S
C3027 C3028 1.392 . S
C3027 C3031 1.495 . S
C3028 C3027 1.392 . S
C3028 C3029 1.385 . S
C3028 C3030 1.478 . S
C3029 H3023 0.930 . S
C3029 C3025 1.400 . S
C3029 C3028 1.385 . S
C3030 C3028 1.478 . S
C3030 C3032 1.381 . S
C3030 C3036 1.383 . S
C3031 C3027 1.495 . S
C3031 H3037 0.959 . S
C3031 H3038 0.961 . S
C3031 H3039 0.960 . S
C3032 C3030 1.381 . S
C3032 C3033 1.394 . S
C3032 H3040 0.930 . S
C3033 C3032 1.394 . S
C3033 C3034 1.383 . S
C3033 H3041 0.929 . S
C3034 C3033 1.383 . S
C3034 C3035 1.377 . S
C3035 H3019 0.930 . S
C3035 C3034 1.377 . S
C3035 C3036 1.379 . S
C3036 H3020 0.931 . S
C3036 C3030 1.383 . S
C3036 C3035 1.379 . S
H3037 C3031 0.959 . S
H3038 C3031 0.961 . S
H3039 C3031 0.960 . S
H3040 C3032 0.930 . S
H3041 C3033 0.929 . S
H3042 C3050 0.929 . S
H3043 C3052 0.930 . S
H3044 C3054 0.930 . S
H3045 C3057 0.929 . S
H3046 C3060 0.930 . S
H3047 C3062 0.960 . S
H3048 C3062 0.960 . S
H3049 C3062 0.960 . S
C3050 H3042 0.929 . S
C3050 C3051 1.377 . S
C3050 C3052 1.384 . S
C3051 C3050 1.377 . S
C3051 C3057 1.390 . S
C3052 H3043 0.930 . S
C3052 C3050 1.384 . S
C3052 C3053 1.372 . S
C3053 C3052 1.372 . S
C3053 C3054 1.400 . S
C3053 C3058 1.490 . S
C3054 H3044 0.930 . S
C3054 C3053 1.400 . S
C3054 C3057 1.386 . S
H3055 C3071 0.930 . S
H3056 C3072 0.931 . S
C3057 H3045 0.929 . S
C3057 C3051 1.390 . S
C3057 C3054 1.386 . S
C3058 C3053 1.490 . S
C3058 C3060 1.395 . S
C3058 C3061 1.403 . S
H3059 C3065 0.930 . S
C3060 H3046 0.930 . S
C3060 C3058 1.395 . S
C3060 C3063 1.403 . S
C3061 C3058 1.403 . S
C3061 C3062 1.524 . S
C3061 C3065 1.400 . S
C3062 H3047 0.960 . S
C3062 H3048 0.960 . S
C3062 H3049 0.960 . S
C3062 C3061 1.524 . S
C3063 C3060 1.403 . S
C3063 C3064 1.392 . S
C3063 C3067 1.495 . S
C3064 C3063 1.392 . S
C3064 C3065 1.385 . S
C3064 C3066 1.478 . S
C3065 H3059 0.930 . S
C3065 C3061 1.400 . S
C3065 C3064 1.385 . S
C3066 C3064 1.478 . S
C3066 C3068 1.381 . S
C3066 C3072 1.383 . S
C3067 C3063 1.495 . S
C3067 H3073 0.959 . S
C3067 H3074 0.961 . S
C3067 H3075 0.960 . S
C3068 C3066 1.381 . S
C3068 C3069 1.394 . S
C3068 H3076 0.930 . S
C3069 C3068 1.394 . S
C3069 C3070 1.383 . S
C3069 H3077 0.929 . S
C3070 C3069 1.383 . S
C3070 C3071 1.377 . S
C3071 H3055 0.930 . S
C3071 C3070 1.377 . S
C3071 C3072 1.379 . S
C3072 H3056 0.931 . S
C3072 C3066 1.383 . S
C3072 C3071 1.379 . S
H3073 C3067 0.959 . S
H3074 C3067 0.961 . S
H3075 C3067 0.960 . S
H3076 C3068 0.930 . S
H3077 C3069 0.929 . S
H3078 C3086 0.929 . S
H3079 C3088 0.930 . S
H3080 C3090 0.930 . S
H3081 C3093 0.929 . S
H3082 C3096 0.930 . S
H3083 C3098 0.960 . S
H3084 C3098 0.960 . S
H3085 C3098 0.960 . S
C3086 H3078 0.929 . S
C3086 C3087 1.377 . S
C3086 C3088 1.384 . S
C3087 C3086 1.377 . S
C3087 C3093 1.390 . S
C3088 H3079 0.930 . S
C3088 C3086 1.384 . S
C3088 C3089 1.372 . S
C3089 C3088 1.372 . S
C3089 C3090 1.400 . S
C3089 C3094 1.490 . S
C3090 H3080 0.930 . S
C3090 C3089 1.400 . S
C3090 C3093 1.386 . S
H3091 C3107 0.930 . S
H3092 C3108 0.931 . S
C3093 H3081 0.929 . S
C3093 C3087 1.390 . S
C3093 C3090 1.386 . S
C3094 C3089 1.490 . S
C3094 C3096 1.395 . S
C3094 C3097 1.403 . S
H3095 C3101 0.930 . S
C3096 H3082 0.930 . S
C3096 C3094 1.395 . S
C3096 C3099 1.403 . S
C3097 C3094 1.403 . S
C3097 C3098 1.524 . S
C3097 C3101 1.400 . S
C3098 H3083 0.960 . S
C3098 H3084 0.960 . S
C3098 H3085 0.960 . S
C3098 C3097 1.524 . S
C3099 C3096 1.403 . S
C3099 C3100 1.392 . S
C3099 C3103 1.495 . S
C3100 C3099 1.392 . S
C3100 C3101 1.385 . S
C3100 C3102 1.478 . S
C3101 H3095 0.930 . S
C3101 C3097 1.400 . S
C3101 C3100 1.385 . S
C3102 C3100 1.478 . S
C3102 C3104 1.381 . S
C3102 C3108 1.383 . S
C3103 C3099 1.495 . S
C3103 H3109 0.959 . S
C3103 H3110 0.961 . S
C3103 H3111 0.960 . S
C3104 C3102 1.381 . S
C3104 C3105 1.394 . S
C3104 H3112 0.930 . S
C3105 C3104 1.394 . S
C3105 C3106 1.383 . S
C3105 H3113 0.929 . S
C3106 C3105 1.383 . S
C3106 C3107 1.377 . S
C3107 H3091 0.930 . S
C3107 C3106 1.377 . S
C3107 C3108 1.379 . S
C3108 H3092 0.931 . S
C3108 C3102 1.383 . S
C3108 C3107 1.379 . S
H3109 C3103 0.959 . S
H3110 C3103 0.961 . S
H3111 C3103 0.960 . S
H3112 C3104 0.930 . S
H3113 C3105 0.929 . S
H3114 C3122 0.929 . S
H3115 C3124 0.930 . S
H3116 C3126 0.930 . S
H3117 C3129 0.929 . S
H3118 C3132 0.930 . S
H3119 C3134 0.960 . S
H3120 C3134 0.960 . S
H3121 C3134 0.960 . S
C3122 H3114 0.929 . S
C3122 C3123 1.377 . S
C3122 C3124 1.384 . S
C3123 C3122 1.377 . S
C3123 C3129 1.390 . S
C3124 H3115 0.930 . S
C3124 C3122 1.384 . S
C3124 C3125 1.372 . S
C3125 C3124 1.372 . S
C3125 C3126 1.400 . S
C3125 C3130 1.490 . S
C3126 H3116 0.930 . S
C3126 C3125 1.400 . S
C3126 C3129 1.386 . S
H3127 C3143 0.930 . S
H3128 C3144 0.931 . S
C3129 H3117 0.929 . S
C3129 C3123 1.390 . S
C3129 C3126 1.386 . S
C3130 C3125 1.490 . S
C3130 C3132 1.395 . S
C3130 C3133 1.403 . S
H3131 C3137 0.930 . S
C3132 H3118 0.930 . S
C3132 C3130 1.395 . S
C3132 C3135 1.403 . S
C3133 C3130 1.403 . S
C3133 C3134 1.524 . S
C3133 C3137 1.400 . S
C3134 H3119 0.960 . S
C3134 H3120 0.960 . S
C3134 H3121 0.960 . S
C3134 C3133 1.524 . S
C3135 C3132 1.403 . S
C3135 C3136 1.392 . S
C3135 C3139 1.495 . S
C3136 C3135 1.392 . S
C3136 C3137 1.385 . S
C3136 C3138 1.478 . S
C3137 H3131 0.930 . S
C3137 C3133 1.400 . S
C3137 C3136 1.385 . S
C3138 C3136 1.478 . S
C3138 C3140 1.381 . S
C3138 C3144 1.383 . S
C3139 C3135 1.495 . S
C3139 H3145 0.959 . S
C3139 H3146 0.961 . S
C3139 H3147 0.960 . S
C3140 C3138 1.381 . S
C3140 C3141 1.394 . S
C3140 H3148 0.930 . S
C3141 C3140 1.394 . S
C3141 C3142 1.383 . S
C3141 H3149 0.929 . S
C3142 C3141 1.383 . S
C3142 C3143 1.377 . S
C3143 H3127 0.930 . S
C3143 C3142 1.377 . S
C3143 C3144 1.379 . S
C3144 H3128 0.931 . S
C3144 C3138 1.383 . S
C3144 C3143 1.379 . S
H3145 C3139 0.959 . S
H3146 C3139 0.961 . S
H3147 C3139 0.960 . S
H3148 C3140 0.930 . S
H3149 C3141 0.929 . S
H3150 C3158 0.929 . S
H3151 C3160 0.930 . S
H3152 C3162 0.930 . S
H3153 C3165 0.929 1_455 S
H3154 C3168 0.930 . S
H3155 C3170 0.960 . S
H3156 C3170 0.960 . S
H3157 C3170 0.960 . S
C3158 H3150 0.929 . S
C3158 C3159 1.377 . S
C3158 C3160 1.384 . S
C3159 C3158 1.377 . S
C3159 C3165 1.390 . S
C3160 H3151 0.930 . S
C3160 C3158 1.384 . S
C3160 C3161 1.372 . S
C3161 C3160 1.372 . S
C3161 C3162 1.400 . S
C3161 C3166 1.490 . S
C3162 H3152 0.930 . S
C3162 C3161 1.400 . S
C3162 C3165 1.386 . S
H3163 C3179 0.930 . S
H3164 C3180 0.931 . S
C3165 H3153 0.929 1_655 S
C3165 C3159 1.390 . S
C3165 C3162 1.386 . S
C3166 C3161 1.490 . S
C3166 C3168 1.395 . S
C3166 C3169 1.403 . S
H3167 C3173 0.930 . S
C3168 H3154 0.930 . S
C3168 C3166 1.395 . S
C3168 C3171 1.403 . S
C3169 C3166 1.403 . S
C3169 C3170 1.524 . S
C3169 C3173 1.400 . S
C3170 H3155 0.960 . S
C3170 H3156 0.960 . S
C3170 H3157 0.960 . S
C3170 C3169 1.524 . S
C3171 C3168 1.403 . S
C3171 C3172 1.392 . S
C3171 C3175 1.495 . S
C3172 C3171 1.392 . S
C3172 C3173 1.385 . S
C3172 C3174 1.478 . S
C3173 H3167 0.930 . S
C3173 C3169 1.400 . S
C3173 C3172 1.385 . S
C3174 C3172 1.478 . S
C3174 C3176 1.381 . S
C3174 C3180 1.383 . S
C3175 C3171 1.495 . S
C3175 H3181 0.959 . S
C3175 H3182 0.961 . S
C3175 H3183 0.960 . S
C3176 C3174 1.381 . S
C3176 C3177 1.394 . S
C3176 H3184 0.930 . S
C3177 C3176 1.394 . S
C3177 C3178 1.383 . S
C3177 H3185 0.929 . S
C3178 C3177 1.383 . S
C3178 C3179 1.377 . S
C3179 H3163 0.930 . S
C3179 C3178 1.377 . S
C3179 C3180 1.379 . S
C3180 H3164 0.931 . S
C3180 C3174 1.383 . S
C3180 C3179 1.379 . S
H3181 C3175 0.959 . S
H3182 C3175 0.961 . S
H3183 C3175 0.960 . S
H3184 C3176 0.930 . S
H3185 C3177 0.929 . S
H3186 C3194 0.929 . S
H3187 C3196 0.930 . S
H3188 C3198 0.930 . S
H3189 C3201 0.929 . S
H3190 C3204 0.930 . S
H3191 C3206 0.960 . S
H3192 C3206 0.960 . S
H3193 C3206 0.960 . S
C3194 H3186 0.929 . S
C3194 C3195 1.377 . S
C3194 C3196 1.384 . S
C3195 C3194 1.377 . S
C3195 C3201 1.390 . S
C3196 H3187 0.930 . S
C3196 C3194 1.384 . S
C3196 C3197 1.372 . S
C3197 C3196 1.372 . S
C3197 C3198 1.400 . S
C3197 C3202 1.490 . S
C3198 H3188 0.930 . S
C3198 C3197 1.400 . S
C3198 C3201 1.386 . S
H3199 C3215 0.930 . S
H3200 C3216 0.931 . S
C3201 H3189 0.929 . S
C3201 C3195 1.390 . S
C3201 C3198 1.386 . S
C3202 C3197 1.490 . S
C3202 C3204 1.395 . S
C3202 C3205 1.403 . S
H3203 C3209 0.930 . S
C3204 H3190 0.930 . S
C3204 C3202 1.395 . S
C3204 C3207 1.403 . S
C3205 C3202 1.403 . S
C3205 C3206 1.524 . S
C3205 C3209 1.400 . S
C3206 H3191 0.960 . S
C3206 H3192 0.960 . S
C3206 H3193 0.960 . S
C3206 C3205 1.524 . S
C3207 C3204 1.403 . S
C3207 C3208 1.392 . S
C3207 C3211 1.495 . S
C3208 C3207 1.392 . S
C3208 C3209 1.385 . S
C3208 C3210 1.478 . S
C3209 H3203 0.930 . S
C3209 C3205 1.400 . S
C3209 C3208 1.385 . S
C3210 C3208 1.478 . S
C3210 C3212 1.394 . S
C3210 C3216 1.383 . S
C3211 C3207 1.495 . S
C3211 H3217 0.959 . S
C3211 H3218 0.961 . S
C3211 H3219 0.960 . S
C3212 C3210 1.394 . S
C3212 C3213 1.386 1_455 S
C3212 H3220 0.926 1_455 S
C3213 C3212 1.386 1_655 S
C3213 C3214 1.383 1_655 S
C3213 H3221 0.929 . S
C3214 C3213 1.383 1_455 S
C3214 C3215 1.377 . S
C3215 H3199 0.930 . S
C3215 C3214 1.377 . S
C3215 C3216 1.379 . S
C3216 H3200 0.931 . S
C3216 C3210 1.383 . S
C3216 C3215 1.379 . S
H3217 C3211 0.959 . S
H3218 C3211 0.961 . S
H3219 C3211 0.960 . S
H3220 C3212 0.926 1_655 S
H3221 C3213 0.929 . S
H3222 C3230 0.929 . S
H3223 C3232 0.930 . S
H3224 C3234 0.930 . S
H3225 C3237 0.929 . S
H3226 C3240 0.930 . S
H3227 C3242 0.960 . S
H3228 C3242 0.960 . S
H3229 C3242 0.960 . S
C3230 H3222 0.929 . S
C3230 C3231 1.377 . S
C3230 C3232 1.384 . S
C3231 C3230 1.377 . S
C3231 C3237 1.390 . S
C3232 H3223 0.930 . S
C3232 C3230 1.384 . S
C3232 C3233 1.372 . S
C3233 C3232 1.372 . S
C3233 C3234 1.400 . S
C3233 C3238 1.490 . S
C3234 H3224 0.930 . S
C3234 C3233 1.400 . S
C3234 C3237 1.386 . S
H3235 C3251 0.930 . S
H3236 C3252 0.931 . S
C3237 H3225 0.929 . S
C3237 C3231 1.390 . S
C3237 C3234 1.386 . S
C3238 C3233 1.490 . S
C3238 C3240 1.395 . S
C3238 C3241 1.403 . S
H3239 C3245 0.930 . S
C3240 H3226 0.930 . S
C3240 C3238 1.395 . S
C3240 C3243 1.403 . S
C3241 C3238 1.403 . S
C3241 C3242 1.524 . S
C3241 C3245 1.400 . S
C3242 H3227 0.960 . S
C3242 H3228 0.960 . S
C3242 H3229 0.960 . S
C3242 C3241 1.524 . S
C3243 C3240 1.403 . S
C3243 C3244 1.392 . S
C3243 C3247 1.495 . S
C3244 C3243 1.392 . S
C3244 C3245 1.385 . S
C3244 C3246 1.478 . S
C3245 H3239 0.930 . S
C3245 C3241 1.400 . S
C3245 C3244 1.385 . S
C3246 C3244 1.478 . S
C3246 C3248 1.381 . S
C3246 C3252 1.383 . S
C3247 C3243 1.495 . S
C3247 H3253 0.959 . S
C3247 H3254 0.961 . S
C3247 H3255 0.960 . S
C3248 C3246 1.381 . S
C3248 C3249 1.394 . S
C3248 H3256 0.930 . S
C3249 C3248 1.394 . S
C3249 C3250 1.383 . S
C3249 H3257 0.929 . S
C3250 C3249 1.383 . S
C3250 C3251 1.377 . S
C3251 H3235 0.930 . S
C3251 C3250 1.377 . S
C3251 C3252 1.379 . S
C3252 H3236 0.931 . S
C3252 C3246 1.383 . S
C3252 C3251 1.379 . S
H3253 C3247 0.959 . S
H3254 C3247 0.961 . S
H3255 C3247 0.960 . S
H3256 C3248 0.930 . S
H3257 C3249 0.929 . S
H3258 C3266 0.929 . S
H3259 C3268 0.930 . S
H3260 C3270 0.990 . S
H3261 C3273 0.929 . S
H3262 C3276 0.930 . S
H3263 C3278 0.960 . S
H3264 C3278 0.960 1_565 S
H3265 C3278 0.960 . S
C3266 H3258 0.929 . S
C3266 C3267 1.377 . S
C3266 C3268 1.384 . S
C3267 C3266 1.377 . S
C3267 C3273 1.390 . S
C3268 H3259 0.930 . S
C3268 C3266 1.384 . S
C3268 C3269 1.372 . S
C3269 C3268 1.372 . S
C3269 C3270 1.400 . S
C3269 C3274 1.490 . S
C3270 H3260 0.990 . S
C3270 C3269 1.400 . S
C3270 C3273 1.386 . S
H3271 C3287 0.930 . S
H3272 C3288 0.930 1_545 S
C3273 H3261 0.929 . S
C3273 C3267 1.390 . S
C3273 C3270 1.386 . S
C3274 C3269 1.490 . S
C3274 C3276 1.395 . S
C3274 C3277 1.403 . S
H3275 C3281 0.930 1_545 S
C3276 H3262 0.930 . S
C3276 C3274 1.395 . S
C3276 C3279 1.403 . S
C3277 C3274 1.403 . S
C3277 C3278 1.524 1_565 S
C3277 C3281 1.400 . S
C3278 H3263 0.960 . S
C3278 H3264 0.960 1_545 S
C3278 H3265 0.960 . S
C3278 C3277 1.524 1_545 S
C3279 C3276 1.403 . S
C3279 C3280 1.392 . S
C3279 C3283 1.495 . S
C3280 C3279 1.392 . S
C3280 C3281 1.385 . S
C3280 C3282 1.478 . S
C3281 H3275 0.930 1_565 S
C3281 C3277 1.400 . S
C3281 C3280 1.385 . S
C3282 C3280 1.478 . S
C3282 C3284 1.381 . S
C3282 C3288 1.384 . S
C3283 C3279 1.495 . S
C3283 H3289 0.959 . S
C3283 H3290 0.961 . S
C3283 H3291 0.960 . S
C3284 C3282 1.381 . S
C3284 C3285 1.394 . S
C3284 H3292 0.930 . S
C3285 C3284 1.394 . S
C3285 C3286 1.383 . S
C3285 H3293 0.929 . S
C3286 C3285 1.383 . S
C3286 C3287 1.377 1_565 S
C3287 H3271 0.930 . S
C3287 C3286 1.377 1_545 S
C3287 C3288 1.380 1_545 S
C3288 H3272 0.930 1_565 S
C3288 C3282 1.384 . S
C3288 C3287 1.380 1_565 S
H3289 C3283 0.959 . S
H3290 C3283 0.961 . S
H3291 C3283 0.960 . S
H3292 C3284 0.930 . S
H3293 C3285 0.929 . S
H3294 C3302 0.929 . S
H3295 C3304 0.930 . S
H3296 C3306 0.930 . S
H3297 C3309 0.929 . S
H3298 C3312 0.930 . S
H3299 C3314 0.960 . S
H3300 C3314 0.960 . S
H3301 C3314 0.960 . S
C3302 H3294 0.929 . S
C3302 C3303 1.377 . S
C3302 C3304 1.384 . S
C3303 C3302 1.377 . S
C3303 C3309 1.390 . S
C3304 H3295 0.930 . S
C3304 C3302 1.384 . S
C3304 C3305 1.372 . S
C3305 C3304 1.372 . S
C3305 C3306 1.400 . S
C3305 C3310 1.490 . S
C3306 H3296 0.930 . S
C3306 C3305 1.400 . S
C3306 C3309 1.386 . S
H3307 C3323 0.930 . S
H3308 C3324 0.931 . S
C3309 H3297 0.929 . S
C3309 C3303 1.390 . S
C3309 C3306 1.386 . S
C3310 C3305 1.490 . S
C3310 C3312 1.395 . S
C3310 C3313 1.403 . S
H3311 C3317 0.930 1_545 S
C3312 H3298 0.930 . S
C3312 C3310 1.395 . S
C3312 C3315 1.403 . S
C3313 C3310 1.403 . S
C3313 C3314 1.524 1_565 S
C3313 C3317 1.400 . S
C3314 H3299 0.960 . S
C3314 H3300 0.960 . S
C3314 H3301 0.960 . S
C3314 C3313 1.524 1_545 S
C3315 C3312 1.403 . S
C3315 C3316 1.392 . S
C3315 C3319 1.495 . S
C3316 C3315 1.392 . S
C3316 C3317 1.385 . S
C3316 C3318 1.478 . S
C3317 H3311 0.930 1_565 S
C3317 C3313 1.400 . S
C3317 C3316 1.385 . S
C3318 C3316 1.478 . S
C3318 C3320 1.381 . S
C3318 C3324 1.383 . S
C3319 C3315 1.495 . S
C3319 H3325 0.959 . S
C3319 H3326 0.961 . S
C3319 H3327 0.960 . S
C3320 C3318 1.381 . S
C3320 C3321 1.394 . S
C3320 H3328 0.930 . S
C3321 C3320 1.394 . S
C3321 C3322 1.383 . S
C3321 H3329 0.929 . S
C3322 C3321 1.383 . S
C3322 C3323 1.377 . S
C3323 H3307 0.930 . S
C3323 C3322 1.377 . S
C3323 C3324 1.379 . S
C3324 H3308 0.931 . S
C3324 C3318 1.383 . S
C3324 C3323 1.379 . S
H3325 C3319 0.959 . S
H3326 C3319 0.961 . S
H3327 C3319 0.960 . S
H3328 C3320 0.930 . S
H3329 C3321 0.929 . S
H3330 C3338 0.929 . S
H3331 C3340 0.930 . S
H3332 C3342 0.930 . S
H3333 C3345 0.929 . S
H3334 C3348 0.930 . S
H3335 C3350 0.960 . S
H3336 C3350 0.960 . S
H3337 C3350 0.960 . S
C3338 H3330 0.929 . S
C3338 C3339 1.377 . S
C3338 C3340 1.384 . S
C3339 C3338 1.377 . S
C3339 C3345 1.390 . S
C3340 H3331 0.930 . S
C3340 C3338 1.384 . S
C3340 C3341 1.372 . S
C3341 C3340 1.372 . S
C3341 C3342 1.400 . S
C3341 C3346 1.490 . S
C3342 H3332 0.930 . S
C3342 C3341 1.400 . S
C3342 C3345 1.386 . S
H3343 C3359 0.930 . S
H3344 C3360 0.886 1_655 S
C3345 H3333 0.929 . S
C3345 C3339 1.390 . S
C3345 C3342 1.386 . S
C3346 C3341 1.490 . S
C3346 C3348 1.395 . S
C3346 C3349 1.403 . S
H3347 C3353 0.930 1_655 S
C3348 H3334 0.930 . S
C3348 C3346 1.395 . S
C3348 C3351 1.403 . S
C3349 C3346 1.403 . S
C3349 C3350 1.524 1_455 S
C3349 C3353 1.400 . S
C3350 H3335 0.960 . S
C3350 H3336 0.960 . S
C3350 H3337 0.960 . S
C3350 C3349 1.524 1_655 S
C3351 C3348 1.403 . S
C3351 C3352 1.392 . S
C3351 C3355 1.495 . S
C3352 C3351 1.392 . S
C3352 C3353 1.385 . S
C3352 C3354 1.478 . S
C3353 H3347 0.930 1_455 S
C3353 C3349 1.400 . S
C3353 C3352 1.385 . S
C3354 C3352 1.478 . S
C3354 C3356 1.381 . S
C3354 C3360 1.409 . S
C3355 C3351 1.495 . S
C3355 H3361 0.959 . S
C3355 H3362 0.961 . S
C3355 H3363 0.960 . S
C3356 C3354 1.381 . S
C3356 C3357 1.394 . S
C3356 H3364 0.930 . S
C3357 C3356 1.394 . S
C3357 C3358 1.383 . S
C3357 H3365 0.929 . S
C3358 C3357 1.383 . S
C3358 C3359 1.377 1_455 S
C3359 H3343 0.930 . S
C3359 C3358 1.377 1_655 S
C3359 C3360 1.402 1_655 S
C3360 H3344 0.886 1_455 S
C3360 C3354 1.409 . S
C3360 C3359 1.402 1_455 S
H3361 C3355 0.959 . S
H3362 C3355 0.961 . S
H3363 C3355 0.960 . S
H3364 C3356 0.930 . S
H3365 C3357 0.929 . S
H3366 C3374 0.929 . S
H3367 C3376 0.930 . S
H3368 C3378 0.930 . S
H3369 C3381 0.929 . S
H3370 C3384 0.930 . S
H3371 C3386 0.960 . S
H3372 C3386 0.960 . S
H3373 C3386 0.960 . S
C3374 H3366 0.929 . S
C3374 C3375 1.377 . S
C3374 C3376 1.384 . S
C3375 C3374 1.377 . S
C3375 C3381 1.390 . S
C3376 H3367 0.930 . S
C3376 C3374 1.384 . S
C3376 C3377 1.372 . S
C3377 C3376 1.372 . S
C3377 C3378 1.400 . S
C3377 C3382 1.490 . S
C3378 H3368 0.930 . S
C3378 C3377 1.400 . S
C3378 C3381 1.386 . S
H3379 C3395 0.930 . S
H3380 C3396 0.931 . S
C3381 H3369 0.929 . S
C3381 C3375 1.390 . S
C3381 C3378 1.386 . S
C3382 C3377 1.490 . S
C3382 C3384 1.395 . S
C3382 C3385 1.403 . S
H3383 C3389 0.930 . S
C3384 H3370 0.930 . S
C3384 C3382 1.395 . S
C3384 C3387 1.403 . S
C3385 C3382 1.403 . S
C3385 C3386 1.524 . S
C3385 C3389 1.400 . S
C3386 H3371 0.960 . S
C3386 H3372 0.960 . S
C3386 H3373 0.960 . S
C3386 C3385 1.524 . S
C3387 C3384 1.403 . S
C3387 C3388 1.392 . S
C3387 C3391 1.495 . S
C3388 C3387 1.392 . S
C3388 C3389 1.385 . S
C3388 C3390 1.478 . S
C3389 H3383 0.930 . S
C3389 C3385 1.400 . S
C3389 C3388 1.385 . S
C3390 C3388 1.478 . S
C3390 C3392 1.381 . S
C3390 C3396 1.383 . S
C3391 C3387 1.495 . S
C3391 H3397 0.959 . S
C3391 H3398 0.961 . S
C3391 H3399 0.960 . S
C3392 C3390 1.381 . S
C3392 C3393 1.394 . S
C3392 H3400 0.930 . S
C3393 C3392 1.394 . S
C3393 C3394 1.383 . S
C3393 H3401 0.929 . S
C3394 C3393 1.383 . S
C3394 C3395 1.377 . S
C3395 H3379 0.930 . S
C3395 C3394 1.377 . S
C3395 C3396 1.379 . S
C3396 H3380 0.931 . S
C3396 C3390 1.383 . S
C3396 C3395 1.379 . S
H3397 C3391 0.959 . S
H3398 C3391 0.961 . S
H3399 C3391 0.960 . S
H3400 C3392 0.930 . S
H3401 C3393 0.929 . S
H3402 C3410 0.929 . S
H3403 C3412 0.930 . S
H3404 C3414 0.930 . S
H3405 C3417 0.929 . S
H3406 C3420 0.930 . S
H3407 C3422 0.960 . S
H3408 C3422 0.960 . S
H3409 C3422 0.960 . S
C3410 H3402 0.929 . S
C3410 C3411 1.377 . S
C3410 C3412 1.384 . S
C3411 C3410 1.377 . S
C3411 C3417 1.390 . S
C3412 H3403 0.930 . S
C3412 C3410 1.384 . S
C3412 C3413 1.372 . S
C3413 C3412 1.372 . S
C3413 C3414 1.400 . S
C3413 C3418 1.490 . S
C3414 H3404 0.930 . S
C3414 C3413 1.400 . S
C3414 C3417 1.386 . S
H3415 C3431 0.930 . S
H3416 C3432 0.931 . S
C3417 H3405 0.929 . S
C3417 C3411 1.390 . S
C3417 C3414 1.386 . S
C3418 C3413 1.490 . S
C3418 C3420 1.395 . S
C3418 C3421 1.403 . S
H3419 C3425 0.930 . S
C3420 H3406 0.930 . S
C3420 C3418 1.395 . S
C3420 C3423 1.403 . S
C3421 C3418 1.403 . S
C3421 C3422 1.524 . S
C3421 C3425 1.400 . S
C3422 H3407 0.960 . S
C3422 H3408 0.960 . S
C3422 H3409 0.960 . S
C3422 C3421 1.524 . S
C3423 C3420 1.403 . S
C3423 C3424 1.392 . S
C3423 C3427 1.495 . S
C3424 C3423 1.392 . S
C3424 C3425 1.385 . S
C3424 C3426 1.478 . S
C3425 H3419 0.930 . S
C3425 C3421 1.400 . S
C3425 C3424 1.385 . S
C3426 C3424 1.478 . S
C3426 C3428 1.381 . S
C3426 C3432 1.383 . S
C3427 C3423 1.495 . S
C3427 H3433 0.959 . S
C3427 H3434 0.961 . S
C3427 H3435 0.960 . S
C3428 C3426 1.381 . S
C3428 C3429 1.394 . S
C3428 H3436 0.930 . S
C3429 C3428 1.394 . S
C3429 C3430 1.383 . S
C3429 H3437 0.929 . S
C3430 C3429 1.383 . S
C3430 C3431 1.377 . S
C3431 H3415 0.930 . S
C3431 C3430 1.377 . S
C3431 C3432 1.379 . S
C3432 H3416 0.931 . S
C3432 C3426 1.383 . S
C3432 C3431 1.379 . S
H3433 C3427 0.959 . S
H3434 C3427 0.961 . S
H3435 C3427 0.960 . S
H3436 C3428 0.930 . S
H3437 C3429 0.929 . S
H3438 C3446 0.929 . S
H3439 C3448 0.930 . S
H3440 C3450 0.930 . S
H3441 C3453 0.929 . S
H3442 C3456 0.930 . S
H3443 C3458 0.960 . S
H3444 C3458 0.960 . S
H3445 C3458 0.960 . S
C3446 H3438 0.929 . S
C3446 C3447 1.377 . S
C3446 C3448 1.384 . S
C3447 C3446 1.377 . S
C3447 C3453 1.390 . S
C3448 H3439 0.930 . S
C3448 C3446 1.384 . S
C3448 C3449 1.372 . S
C3449 C3448 1.372 . S
C3449 C3450 1.400 . S
C3449 C3454 1.490 . S
C3450 H3440 0.930 . S
C3450 C3449 1.400 . S
C3450 C3453 1.386 . S
H3451 C3467 0.930 . S
H3452 C3468 0.931 . S
C3453 H3441 0.929 . S
C3453 C3447 1.390 . S
C3453 C3450 1.386 . S
C3454 C3449 1.490 . S
C3454 C3456 1.395 . S
C3454 C3457 1.403 . S
H3455 C3461 0.930 . S
C3456 H3442 0.930 . S
C3456 C3454 1.395 . S
C3456 C3459 1.403 . S
C3457 C3454 1.403 . S
C3457 C3458 1.524 . S
C3457 C3461 1.400 . S
C3458 H3443 0.960 . S
C3458 H3444 0.960 . S
C3458 H3445 0.960 . S
C3458 C3457 1.524 . S
C3459 C3456 1.403 . S
C3459 C3460 1.392 . S
C3459 C3463 1.495 . S
C3460 C3459 1.392 . S
C3460 C3461 1.385 . S
C3460 C3462 1.478 . S
C3461 H3455 0.930 . S
C3461 C3457 1.400 . S
C3461 C3460 1.385 . S
C3462 C3460 1.478 . S
C3462 C3464 1.381 . S
C3462 C3468 1.383 . S
C3463 C3459 1.495 . S
C3463 H3469 0.959 . S
C3463 H3470 0.961 . S
C3463 H3471 0.960 . S
C3464 C3462 1.381 . S
C3464 C3465 1.394 . S
C3464 H3472 0.930 . S
C3465 C3464 1.394 . S
C3465 C3466 1.383 . S
C3465 H3473 0.929 . S
C3466 C3465 1.383 . S
C3466 C3467 1.377 . S
C3467 H3451 0.930 . S
C3467 C3466 1.377 . S
C3467 C3468 1.379 . S
C3468 H3452 0.931 . S
C3468 C3462 1.383 . S
C3468 C3467 1.379 . S
H3469 C3463 0.959 . S
H3470 C3463 0.961 . S
H3471 C3463 0.960 . S
H3472 C3464 0.930 . S
H3473 C3465 0.929 . S
H3474 C3482 0.929 . S
H3475 C3484 0.930 . S
H3476 C3486 0.930 . S
H3477 C3489 0.929 . S
H3478 C3492 0.930 . S
H3479 C3494 0.960 . S
H3480 C3494 0.960 . S
H3481 C3494 0.960 . S
C3482 H3474 0.929 . S
C3482 C3483 1.377 . S
C3482 C3484 1.384 . S
C3483 C3482 1.377 . S
C3483 C3489 1.390 . S
C3484 H3475 0.930 . S
C3484 C3482 1.384 . S
C3484 C3485 1.372 . S
C3485 C3484 1.372 . S
C3485 C3486 1.400 . S
C3485 C3490 1.490 . S
C3486 H3476 0.930 . S
C3486 C3485 1.400 . S
C3486 C3489 1.386 . S
H3487 C3503 0.930 . S
H3488 C3504 0.931 . S
C3489 H3477 0.929 . S
C3489 C3483 1.390 . S
C3489 C3486 1.386 . S
C3490 C3485 1.490 . S
C3490 C3492 1.395 . S
C3490 C3493 1.403 . S
H3491 C3497 0.930 . S
C3492 H3478 0.930 . S
C3492 C3490 1.395 . S
C3492 C3495 1.403 . S
C3493 C3490 1.403 . S
C3493 C3494 1.524 . S
C3493 C3497 1.400 . S
C3494 H3479 0.960 . S
C3494 H3480 0.960 . S
C3494 H3481 0.960 . S
C3494 C3493 1.524 . S
C3495 C3492 1.403 . S
C3495 C3496 1.392 . S
C3495 C3499 1.495 . S
C3496 C3495 1.392 . S
C3496 C3497 1.385 . S
C3496 C3498 1.478 . S
C3497 H3491 0.930 . S
C3497 C3493 1.400 . S
C3497 C3496 1.385 . S
C3498 C3496 1.478 . S
C3498 C3500 1.381 . S
C3498 C3504 1.383 . S
C3499 C3495 1.495 . S
C3499 H3505 0.959 . S
C3499 H3506 0.961 . S
C3499 H3507 0.960 . S
C3500 C3498 1.381 . S
C3500 C3501 1.394 . S
C3500 H3508 0.930 . S
C3501 C3500 1.394 . S
C3501 C3502 1.383 . S
C3501 H3509 0.929 . S
C3502 C3501 1.383 . S
C3502 C3503 1.377 . S
C3503 H3487 0.930 . S
C3503 C3502 1.377 . S
C3503 C3504 1.379 . S
C3504 H3488 0.931 . S
C3504 C3498 1.383 . S
C3504 C3503 1.379 . S
H3505 C3499 0.959 . S
H3506 C3499 0.961 . S
H3507 C3499 0.960 . S
H3508 C3500 0.930 . S
H3509 C3501 0.929 . S
H3510 C3518 0.929 . S
H3511 C3520 0.930 . S
H3512 C3522 0.930 . S
H3513 C3525 0.929 . S
H3514 C3528 0.930 . S
H3515 C3530 0.960 . S
H3516 C3530 0.960 . S
H3517 C3530 0.960 . S
C3518 H3510 0.929 . S
C3518 C3519 1.377 . S
C3518 C3520 1.384 . S
C3519 C3518 1.377 . S
C3519 C3525 1.390 . S
C3520 H3511 0.930 . S
C3520 C3518 1.384 . S
C3520 C3521 1.372 . S
C3521 C3520 1.372 . S
C3521 C3522 1.400 . S
C3521 C3526 1.490 . S
C3522 H3512 0.930 . S
C3522 C3521 1.400 . S
C3522 C3525 1.386 . S
H3523 C3539 0.930 . S
H3524 C3540 0.919 1_565 S
C3525 H3513 0.929 . S
C3525 C3519 1.390 . S
C3525 C3522 1.386 . S
C3526 C3521 1.490 . S
C3526 C3528 1.395 . S
C3526 C3529 1.403 . S
H3527 C3533 0.930 . S
C3528 H3514 0.930 . S
C3528 C3526 1.395 . S
C3528 C3531 1.403 . S
C3529 C3526 1.403 . S
C3529 C3530 1.524 . S
C3529 C3533 1.400 . S
C3530 H3515 0.960 . S
C3530 H3516 0.960 . S
C3530 H3517 0.960 . S
C3530 C3529 1.524 . S
C3531 C3528 1.403 . S
C3531 C3532 1.392 . S
C3531 C3535 1.495 . S
C3532 C3531 1.392 . S
C3532 C3533 1.385 . S
C3532 C3534 1.478 . S
C3533 H3527 0.930 . S
C3533 C3529 1.400 . S
C3533 C3532 1.385 . S
C3534 C3532 1.478 . S
C3534 C3536 1.381 . S
C3534 C3540 1.430 . S
C3535 C3531 1.495 . S
C3535 H3541 0.959 . S
C3535 H3542 0.891 1_545 S
C3535 H3543 0.960 . S
C3536 C3534 1.381 . S
C3536 C3537 1.394 . S
C3536 H3544 0.930 . S
C3537 C3536 1.394 . S
C3537 C3538 1.383 . S
C3537 H3545 0.929 . S
C3538 C3537 1.383 . S
C3538 C3539 1.377 1_545 S
C3539 H3523 0.930 . S
C3539 C3538 1.377 1_565 S
C3539 C3540 1.346 1_565 S
C3540 H3524 0.919 1_545 S
C3540 C3534 1.430 . S
C3540 C3539 1.346 1_545 S
H3541 C3535 0.959 . S
H3542 C3535 0.891 1_565 S
H3543 C3535 0.960 . S
H3544 C3536 0.930 . S
H3545 C3537 0.929 . S
H3546 C3554 0.929 . S
H3547 C3556 0.930 . S
H3548 C3558 0.930 . S
H3549 C3561 0.929 . S
H3550 C3564 0.930 1_455 S
H3551 C3566 0.960 . S
H3552 C3566 0.960 . S
H3553 C3566 0.960 . S
C3554 H3546 0.929 . S
C3554 C3555 1.377 . S
C3554 C3556 1.384 . S
C3555 C3554 1.377 . S
C3555 C3561 1.390 . S
C3556 H3547 0.930 . S
C3556 C3554 1.384 . S
C3556 C3557 1.372 . S
C3557 C3556 1.372 . S
C3557 C3558 1.400 . S
C3557 C3562 1.490 . S
C3558 H3548 0.930 . S
C3558 C3557 1.400 . S
C3558 C3561 1.386 . S
H3559 C3575 0.926 . S
H3560 C3576 0.931 . S
C3561 H3549 0.929 . S
C3561 C3555 1.390 . S
C3561 C3558 1.386 . S
C3562 C3557 1.490 . S
C3562 C3564 1.395 . S
C3562 C3565 1.403 . S
H3563 C3569 0.930 . S
C3564 H3550 0.930 1_655 S
C3564 C3562 1.395 . S
C3564 C3567 1.399 . S
C3565 C3562 1.403 . S
C3565 C3566 1.524 . S
C3565 C3569 1.400 . S
C3566 H3551 0.960 . S
C3566 H3552 0.960 . S
C3566 H3553 0.960 . S
C3566 C3565 1.524 . S
C3567 C3564 1.399 . S
C3567 C3568 1.406 . S
C3567 C3571 1.486 1_655 S
C3568 C3567 1.406 . S
C3568 C3569 1.385 . S
C3568 C3570 1.478 . S
C3569 H3563 0.930 . S
C3569 C3565 1.400 . S
C3569 C3568 1.385 . S
C3570 C3568 1.478 . S
C3570 C3572 1.381 . S
C3570 C3576 1.383 . S
C3571 C3567 1.486 1_455 S
C3571 H3577 0.959 . S
C3571 H3578 0.961 . S
C3571 H3579 0.960 . S
C3572 C3570 1.381 . S
C3572 C3573 1.394 . S
C3572 H3580 0.930 . S
C3573 C3572 1.394 . S
C3573 C3574 1.383 . S
C3573 H3581 0.929 . S
C3574 C3573 1.383 . S
C3574 C3575 1.377 . S
C3575 H3559 0.926 . S
C3575 C3574 1.377 . S
C3575 C3576 1.379 . S
C3576 H3560 0.931 . S
C3576 C3570 1.383 . S
C3576 C3575 1.379 . S
H3577 C3571 0.959 . S
H3578 C3571 0.961 . S
H3579 C3571 0.960 . S
H3580 C3572 0.930 . S
H3581 C3573 0.929 . S
H3582 C3590 0.929 . S
H3583 C3592 0.930 . S
H3584 C3594 0.930 . S
H3585 C3597 0.929 . S
H3586 C3600 0.930 . S
H3587 C3602 0.960 . S
H3588 C3602 0.960 . S
H3589 C3602 0.960 . S
C3590 H3582 0.929 . S
C3590 C3591 1.377 . S
C3590 C3592 1.384 . S
C3591 C3590 1.377 . S
C3591 C3597 1.390 . S
C3592 H3583 0.930 . S
C3592 C3590 1.384 . S
C3592 C3593 1.372 . S
C3593 C3592 1.372 . S
C3593 C3594 1.400 . S
C3593 C3598 1.490 . S
C3594 H3584 0.930 . S
C3594 C3593 1.400 . S
C3594 C3597 1.386 . S
H3595 C3611 0.930 . S
H3596 C3612 0.931 . S
C3597 H3585 0.929 . S
C3597 C3591 1.390 . S
C3597 C3594 1.386 . S
C3598 C3593 1.490 . S
C3598 C3600 1.395 . S
C3598 C3601 1.403 . S
H3599 C3605 0.930 . S
C3600 H3586 0.930 . S
C3600 C3598 1.395 . S
C3600 C3603 1.403 . S
C3601 C3598 1.403 . S
C3601 C3602 1.524 . S
C3601 C3605 1.400 . S
C3602 H3587 0.960 . S
C3602 H3588 0.960 . S
C3602 H3589 0.960 . S
C3602 C3601 1.524 . S
C3603 C3600 1.403 . S
C3603 C3604 1.392 . S
C3603 C3607 1.495 . S
C3604 C3603 1.392 . S
C3604 C3605 1.385 . S
C3604 C3606 1.478 . S
C3605 H3599 0.930 . S
C3605 C3601 1.400 . S
C3605 C3604 1.385 . S
C3606 C3604 1.478 . S
C3606 C3608 1.381 . S
C3606 C3612 1.383 . S
C3607 C3603 1.495 . S
C3607 H3613 0.959 . S
C3607 H3614 0.961 . S
C3607 H3615 0.960 . S
C3608 C3606 1.381 . S
C3608 C3609 1.394 . S
C3608 H3616 0.930 . S
C3609 C3608 1.394 . S
C3609 C3610 1.383 . S
C3609 H3617 0.929 . S
C3610 C3609 1.383 . S
C3610 C3611 1.377 . S
C3611 H3595 0.930 . S
C3611 C3610 1.377 . S
C3611 C3612 1.379 . S
C3612 H3596 0.931 . S
C3612 C3606 1.383 . S
C3612 C3611 1.379 . S
H3613 C3607 0.959 . S
H3614 C3607 0.961 . S
H3615 C3607 0.960 . S
H3616 C3608 0.930 . S
H3617 C3609 0.929 . S
H3618 C3626 0.929 . S
H3619 C3628 0.930 . S
H3620 C3630 0.930 . S
H3621 C3633 0.929 . S
H3622 C3636 0.930 . S
H3623 C3638 0.960 . S
H3624 C3638 0.960 . S
H3625 C3638 0.960 . S
C3626 H3618 0.929 . S
C3626 C3627 1.377 . S
C3626 C3628 1.384 . S
C3627 C3626 1.377 . S
C3627 C3633 1.390 . S
C3628 H3619 0.930 . S
C3628 C3626 1.384 . S
C3628 C3629 1.372 . S
C3629 C3628 1.372 . S
C3629 C3630 1.400 . S
C3629 C3634 1.490 . S
C3630 H3620 0.930 . S
C3630 C3629 1.400 . S
C3630 C3633 1.386 . S
H3631 C3647 0.930 . S
H3632 C3648 0.931 . S
C3633 H3621 0.929 . S
C3633 C3627 1.390 . S
C3633 C3630 1.386 . S
C3634 C3629 1.490 . S
C3634 C3636 1.395 . S
C3634 C3637 1.403 . S
H3635 C3641 0.930 . S
C3636 H3622 0.930 . S
C3636 C3634 1.395 . S
C3636 C3639 1.403 . S
C3637 C3634 1.403 . S
C3637 C3638 1.524 . S
C3637 C3641 1.400 . S
C3638 H3623 0.960 . S
C3638 H3624 0.960 . S
C3638 H3625 0.960 . S
C3638 C3637 1.524 . S
C3639 C3636 1.403 . S
C3639 C3640 1.392 . S
C3639 C3643 1.495 . S
C3640 C3639 1.392 . S
C3640 C3641 1.385 . S
C3640 C3642 1.478 . S
C3641 H3635 0.930 . S
C3641 C3637 1.400 . S
C3641 C3640 1.385 . S
C3642 C3640 1.478 . S
C3642 C3644 1.381 . S
C3642 C3648 1.383 . S
C3643 C3639 1.495 . S
C3643 H3649 0.959 . S
C3643 H3650 0.961 . S
C3643 H3651 0.960 . S
C3644 C3642 1.381 . S
C3644 C3645 1.394 . S
C3644 H3652 0.930 . S
C3645 C3644 1.394 . S
C3645 C3646 1.383 . S
C3645 H3653 0.929 . S
C3646 C3645 1.383 . S
C3646 C3647 1.377 . S
C3647 H3631 0.930 . S
C3647 C3646 1.377 . S
C3647 C3648 1.379 . S
C3648 H3632 0.931 . S
C3648 C3642 1.383 . S
C3648 C3647 1.379 . S
H3649 C3643 0.959 . S
H3650 C3643 0.961 . S
H3651 C3643 0.960 . S
H3652 C3644 0.930 . S
H3653 C3645 0.929 . S
H3654 C3662 0.929 . S
H3655 C3664 0.930 . S
H3656 C3666 0.930 . S
H3657 C3669 0.929 . S
H3658 C3672 0.930 . S
H3659 C3674 0.960 . S
H3660 C3674 0.960 . S
H3661 C3674 0.960 . S
C3662 H3654 0.929 . S
C3662 C3663 1.377 . S
C3662 C3664 1.384 . S
C3663 C3662 1.377 . S
C3663 C3669 1.390 . S
C3664 H3655 0.930 . S
C3664 C3662 1.384 . S
C3664 C3665 1.372 . S
C3665 C3664 1.372 . S
C3665 C3666 1.400 . S
C3665 C3670 1.490 . S
C3666 H3656 0.930 . S
C3666 C3665 1.400 . S
C3666 C3669 1.386 . S
H3667 C3683 0.930 . S
H3668 C3684 0.931 . S
C3669 H3657 0.929 . S
C3669 C3663 1.390 . S
C3669 C3666 1.386 . S
C3670 C3665 1.490 . S
C3670 C3672 1.395 . S
C3670 C3673 1.403 . S
H3671 C3677 0.930 . S
C3672 H3658 0.930 . S
C3672 C3670 1.395 . S
C3672 C3675 1.403 . S
C3673 C3670 1.403 . S
C3673 C3674 1.524 . S
C3673 C3677 1.400 . S
C3674 H3659 0.960 . S
C3674 H3660 0.960 . S
C3674 H3661 0.960 . S
C3674 C3673 1.524 . S
C3675 C3672 1.403 . S
C3675 C3676 1.392 . S
C3675 C3679 1.495 . S
C3676 C3675 1.392 . S
C3676 C3677 1.385 . S
C3676 C3678 1.478 . S
C3677 H3671 0.930 . S
C3677 C3673 1.400 . S
C3677 C3676 1.385 . S
C3678 C3676 1.478 . S
C3678 C3680 1.381 . S
C3678 C3684 1.383 . S
C3679 C3675 1.495 . S
C3679 H3685 0.959 . S
C3679 H3686 0.961 . S
C3679 H3687 0.960 . S
C3680 C3678 1.381 . S
C3680 C3681 1.394 . S
C3680 H3688 0.930 . S
C3681 C3680 1.394 . S
C3681 C3682 1.383 . S
C3681 H3689 0.929 . S
C3682 C3681 1.383 . S
C3682 C3683 1.377 . S
C3683 H3667 0.930 . S
C3683 C3682 1.377 . S
C3683 C3684 1.379 . S
C3684 H3668 0.931 . S
C3684 C3678 1.383 . S
C3684 C3683 1.379 . S
H3685 C3679 0.959 . S
H3686 C3679 0.961 . S
H3687 C3679 0.960 . S
H3688 C3680 0.930 . S
H3689 C3681 0.929 . S
H3690 C3698 0.929 . S
H3691 C3700 0.930 . S
H3692 C3702 0.930 . S
H3693 C3705 0.929 . S
H3694 C3708 0.930 . S
H3695 C3710 0.960 . S
H3696 C3710 0.960 . S
H3697 C3710 0.960 . S
C3698 H3690 0.929 . S
C3698 C3699 1.377 . S
C3698 C3700 1.384 . S
C3699 C3698 1.377 . S
C3699 C3705 1.390 . S
C3700 H3691 0.930 . S
C3700 C3698 1.384 . S
C3700 C3701 1.372 . S
C3701 C3700 1.372 . S
C3701 C3702 1.400 . S
C3701 C3706 1.490 . S
C3702 H3692 0.930 . S
C3702 C3701 1.400 . S
C3702 C3705 1.386 . S
H3703 C3719 0.930 . S
H3704 C3720 0.931 . S
C3705 H3693 0.929 . S
C3705 C3699 1.390 . S
C3705 C3702 1.386 . S
C3706 C3701 1.490 . S
C3706 C3708 1.395 . S
C3706 C3709 1.403 . S
H3707 C3713 0.930 . S
C3708 H3694 0.930 . S
C3708 C3706 1.395 . S
C3708 C3711 1.403 . S
C3709 C3706 1.403 . S
C3709 C3710 1.524 . S
C3709 C3713 1.400 . S
C3710 H3695 0.960 . S
C3710 H3696 0.960 . S
C3710 H3697 0.960 . S
C3710 C3709 1.524 . S
C3711 C3708 1.403 . S
C3711 C3712 1.392 . S
C3711 C3715 1.495 . S
C3712 C3711 1.392 . S
C3712 C3713 1.385 . S
C3712 C3714 1.478 . S
C3713 H3707 0.930 . S
C3713 C3709 1.400 . S
C3713 C3712 1.385 . S
C3714 C3712 1.478 . S
C3714 C3716 1.381 . S
C3714 C3720 1.383 . S
C3715 C3711 1.495 . S
C3715 H3721 0.959 . S
C3715 H3722 0.961 . S
C3715 H3723 0.960 . S
C3716 C3714 1.381 . S
C3716 C3717 1.394 . S
C3716 H3724 0.930 . S
C3717 C3716 1.394 . S
C3717 C3718 1.383 . S
C3717 H3725 0.929 . S
C3718 C3717 1.383 . S
C3718 C3719 1.377 . S
C3719 H3703 0.930 . S
C3719 C3718 1.377 . S
C3719 C3720 1.379 . S
C3720 H3704 0.931 . S
C3720 C3714 1.383 . S
C3720 C3719 1.379 . S
H3721 C3715 0.959 . S
H3722 C3715 0.961 . S
H3723 C3715 0.960 . S
H3724 C3716 0.930 . S
H3725 C3717 0.929 . S
H3726 C3734 0.929 . S
H3727 C3736 0.930 . S
H3728 C3738 0.930 . S
H3729 C3741 0.929 . S
H3730 C3744 0.930 . S
H3731 C3746 0.960 . S
H3732 C3746 0.960 . S
H3733 C3746 0.960 . S
C3734 H3726 0.929 . S
C3734 C3735 1.377 . S
C3734 C3736 1.384 . S
C3735 C3734 1.377 . S
C3735 C3741 1.390 . S
C3736 H3727 0.930 . S
C3736 C3734 1.384 . S
C3736 C3737 1.372 . S
C3737 C3736 1.372 . S
C3737 C3738 1.400 . S
C3737 C3742 1.490 . S
C3738 H3728 0.930 . S
C3738 C3737 1.400 . S
C3738 C3741 1.386 . S
H3739 C3755 0.930 . S
H3740 C3756 0.931 . S
C3741 H3729 0.929 . S
C3741 C3735 1.390 . S
C3741 C3738 1.386 . S
C3742 C3737 1.490 . S
C3742 C3744 1.395 . S
C3742 C3745 1.403 . S
H3743 C3749 0.930 . S
C3744 H3730 0.930 . S
C3744 C3742 1.395 . S
C3744 C3747 1.403 . S
C3745 C3742 1.403 . S
C3745 C3746 1.524 . S
C3745 C3749 1.400 . S
C3746 H3731 0.960 . S
C3746 H3732 0.960 . S
C3746 H3733 0.960 . S
C3746 C3745 1.524 . S
C3747 C3744 1.403 . S
C3747 C3748 1.392 . S
C3747 C3751 1.495 . S
C3748 C3747 1.392 . S
C3748 C3749 1.385 . S
C3748 C3750 1.478 . S
C3749 H3743 0.930 . S
C3749 C3745 1.400 . S
C3749 C3748 1.385 . S
C3750 C3748 1.478 . S
C3750 C3752 1.381 . S
C3750 C3756 1.383 . S
C3751 C3747 1.495 . S
C3751 H3757 0.959 . S
C3751 H3758 0.961 . S
C3751 H3759 0.960 . S
C3752 C3750 1.381 . S
C3752 C3753 1.394 . S
C3752 H3760 0.930 . S
C3753 C3752 1.394 . S
C3753 C3754 1.383 . S
C3753 H3761 0.929 . S
C3754 C3753 1.383 . S
C3754 C3755 1.377 . S
C3755 H3739 0.930 . S
C3755 C3754 1.377 . S
C3755 C3756 1.379 . S
C3756 H3740 0.931 . S
C3756 C3750 1.383 . S
C3756 C3755 1.379 . S
H3757 C3751 0.959 . S
H3758 C3751 0.961 . S
H3759 C3751 0.960 . S
H3760 C3752 0.930 . S
H3761 C3753 0.929 . S
H3762 C3770 0.929 1_545 S
H3763 C3772 0.930 . S
H3764 C3774 0.930 . S
H3765 C3777 0.929 . S
H3766 C3780 0.930 . S
H3767 C3782 0.960 . S
H3768 C3782 0.960 . S
H3769 C3782 0.960 . S
C3770 H3762 0.929 1_565 S
C3770 C3771 1.377 . S
C3770 C3772 1.384 . S
C3771 C3770 1.377 . S
C3771 C3777 1.390 . S
C3772 H3763 0.930 . S
C3772 C3770 1.384 . S
C3772 C3773 1.372 . S
C3773 C3772 1.372 . S
C3773 C3774 1.400 . S
C3773 C3778 1.490 . S
C3774 H3764 0.930 . S
C3774 C3773 1.400 . S
C3774 C3777 1.386 . S
H3775 C3791 0.930 . S
H3776 C3792 0.931 . S
C3777 H3765 0.929 . S
C3777 C3771 1.390 . S
C3777 C3774 1.386 . S
C3778 C3773 1.490 . S
C3778 C3780 1.395 . S
C3778 C3781 1.403 . S
H3779 C3785 0.930 . S
C3780 H3766 0.930 . S
C3780 C3778 1.395 . S
C3780 C3783 1.403 . S
C3781 C3778 1.403 . S
C3781 C3782 1.524 . S
C3781 C3785 1.400 . S
C3782 H3767 0.960 . S
C3782 H3768 0.960 . S
C3782 H3769 0.960 . S
C3782 C3781 1.524 . S
C3783 C3780 1.403 . S
C3783 C3784 1.392 . S
C3783 C3787 1.495 . S
C3784 C3783 1.392 . S
C3784 C3785 1.385 . S
C3784 C3786 1.478 . S
C3785 H3779 0.930 . S
C3785 C3781 1.400 . S
C3785 C3784 1.385 . S
C3786 C3784 1.478 . S
C3786 C3788 1.381 . S
C3786 C3792 1.383 . S
C3787 C3783 1.495 . S
C3787 H3793 0.959 . S
C3787 H3794 0.961 . S
C3787 H3795 0.960 . S
C3788 C3786 1.381 . S
C3788 C3789 1.394 . S
C3788 H3796 0.930 . S
C3789 C3788 1.394 . S
C3789 C3790 1.383 . S
C3789 H3797 0.929 . S
C3790 C3789 1.383 . S
C3790 C3791 1.377 . S
C3791 H3775 0.930 . S
C3791 C3790 1.377 . S
C3791 C3792 1.379 . S
C3792 H3776 0.931 . S
C3792 C3786 1.383 . S
C3792 C3791 1.379 . S
H3793 C3787 0.959 . S
H3794 C3787 0.961 . S
H3795 C3787 0.960 . S
H3796 C3788 0.930 . S
H3797 C3789 0.929 . S
H3798 C3806 0.929 . S
H3799 C3808 0.930 . S
H3800 C3810 0.930 . S
H3801 C3813 0.929 1_655 S
H3802 C3816 0.930 . S
H3803 C3818 0.960 . S
H3804 C3818 0.960 . S
H3805 C3818 0.960 . S
C3806 H3798 0.929 . S
C3806 C3807 1.377 . S
C3806 C3808 1.384 . S
C3807 C3806 1.377 . S
C3807 C3813 1.390 . S
C3808 H3799 0.930 . S
C3808 C3806 1.384 . S
C3808 C3809 1.372 . S
C3809 C3808 1.372 . S
C3809 C3810 1.400 . S
C3809 C3814 1.490 . S
C3810 H3800 0.930 . S
C3810 C3809 1.400 . S
C3810 C3813 1.386 . S
H3811 C3827 0.930 . S
H3812 C3828 0.931 . S
C3813 H3801 0.929 1_455 S
C3813 C3807 1.390 . S
C3813 C3810 1.386 . S
C3814 C3809 1.490 . S
C3814 C3816 1.395 . S
C3814 C3817 1.403 . S
H3815 C3821 0.930 . S
C3816 H3802 0.930 . S
C3816 C3814 1.395 . S
C3816 C3819 1.403 . S
C3817 C3814 1.403 . S
C3817 C3818 1.524 . S
C3817 C3821 1.400 . S
C3818 H3803 0.960 . S
C3818 H3804 0.960 . S
C3818 H3805 0.960 . S
C3818 C3817 1.524 . S
C3819 C3816 1.403 . S
C3819 C3820 1.392 . S
C3819 C3823 1.495 . S
C3820 C3819 1.392 . S
C3820 C3821 1.385 . S
C3820 C3822 1.478 . S
C3821 H3815 0.930 . S
C3821 C3817 1.400 . S
C3821 C3820 1.385 . S
C3822 C3820 1.478 . S
C3822 C3824 1.381 . S
C3822 C3828 1.383 . S
C3823 C3819 1.495 . S
C3823 H3829 0.959 . S
C3823 H3830 0.961 . S
C3823 H3831 0.960 . S
C3824 C3822 1.381 . S
C3824 C3825 1.394 . S
C3824 H3832 0.930 . S
C3825 C3824 1.394 . S
C3825 C3826 1.383 . S
C3825 H3833 0.929 . S
C3826 C3825 1.383 . S
C3826 C3827 1.377 . S
C3827 H3811 0.930 . S
C3827 C3826 1.377 . S
C3827 C3828 1.379 . S
C3828 H3812 0.931 . S
C3828 C3822 1.383 . S
C3828 C3827 1.379 . S
H3829 C3823 0.959 . S
H3830 C3823 0.961 . S
H3831 C3823 0.960 . S
H3832 C3824 0.930 . S
H3833 C3825 0.929 . S
H3834 C3842 0.929 . S
H3835 C3844 0.930 . S
H3836 C3846 0.930 . S
H3837 C3849 0.929 . S
H3838 C3852 0.930 . S
H3839 C3854 0.872 1_455 S
H3840 C3854 1.047 . S
H3841 C3854 0.952 1_455 S
C3842 H3834 0.929 . S
C3842 C3843 1.377 . S
C3842 C3844 1.384 . S
C3843 C3842 1.377 . S
C3843 C3849 1.390 . S
C3844 H3835 0.930 . S
C3844 C3842 1.384 . S
C3844 C3845 1.372 . S
C3845 C3844 1.372 . S
C3845 C3846 1.400 . S
C3845 C3850 1.490 . S
C3846 H3836 0.930 . S
C3846 C3845 1.400 . S
C3846 C3849 1.386 . S
H3847 C3863 0.937 . S
H3848 C3864 0.931 1_455 S
C3849 H3837 0.929 . S
C3849 C3843 1.390 . S
C3849 C3846 1.386 . S
C3850 C3845 1.490 . S
C3850 C3852 1.395 . S
C3850 C3853 1.403 . S
H3851 C3857 0.930 . S
C3852 H3838 0.930 . S
C3852 C3850 1.395 . S
C3852 C3855 1.403 . S
C3853 C3850 1.403 . S
C3853 C3854 1.547 . S
C3853 C3857 1.400 . S
C3854 H3839 0.872 1_655 S
C3854 H3840 1.047 . S
C3854 H3841 0.952 1_655 S
C3854 C3853 1.547 . S
C3855 C3852 1.403 . S
C3855 C3856 1.392 . S
C3855 C3859 1.495 . S
C3856 C3855 1.392 . S
C3856 C3857 1.385 . S
C3856 C3858 1.478 . S
C3857 H3851 0.930 . S
C3857 C3853 1.400 . S
C3857 C3856 1.385 . S
C3858 C3856 1.478 . S
C3858 C3860 1.381 . S
C3858 C3864 1.383 . S
C3859 C3855 1.495 . S
C3859 H3865 0.959 . S
C3859 H3866 0.961 . S
C3859 H3867 0.960 . S
C3860 C3858 1.381 . S
C3860 C3861 1.394 . S
C3860 H3868 0.930 . S
C3861 C3860 1.394 . S
C3861 C3862 1.383 . S
C3861 H3869 0.929 . S
C3862 C3861 1.383 . S
C3862 C3863 1.375 1_655 S
C3863 H3847 0.937 . S
C3863 C3862 1.375 1_455 S
C3863 C3864 1.374 1_455 S
C3864 H3848 0.931 1_655 S
C3864 C3858 1.383 . S
C3864 C3863 1.374 1_655 S
H3865 C3859 0.959 . S
H3866 C3859 0.961 . S
H3867 C3859 0.960 . S
H3868 C3860 0.930 . S
H3869 C3861 0.929 . S
H3870 C3878 0.929 . S
H3871 C3880 0.930 . S
H3872 C3882 0.930 . S
H3873 C3885 0.929 . S
H3874 C3888 0.930 . S
H3875 C3890 0.960 . S
H3876 C3890 0.960 . S
H3877 C3890 0.960 . S
C3878 H3870 0.929 . S
C3878 C3879 1.377 . S
C3878 C3880 1.384 . S
C3879 C3878 1.377 . S
C3879 C3885 1.390 . S
C3880 H3871 0.930 . S
C3880 C3878 1.384 . S
C3880 C3881 1.372 . S
C3881 C3880 1.372 . S
C3881 C3882 1.400 . S
C3881 C3886 1.490 . S
C3882 H3872 0.930 . S
C3882 C3881 1.400 . S
C3882 C3885 1.386 . S
H3883 C3899 0.930 . S
H3884 C3900 0.931 . S
C3885 H3873 0.929 . S
C3885 C3879 1.390 . S
C3885 C3882 1.386 . S
C3886 C3881 1.490 . S
C3886 C3888 1.395 . S
C3886 C3889 1.403 . S
H3887 C3893 0.930 . S
C3888 H3874 0.930 . S
C3888 C3886 1.395 . S
C3888 C3891 1.403 . S
C3889 C3886 1.403 . S
C3889 C3890 1.524 . S
C3889 C3893 1.400 . S
C3890 H3875 0.960 . S
C3890 H3876 0.960 . S
C3890 H3877 0.960 . S
C3890 C3889 1.524 . S
C3891 C3888 1.403 . S
C3891 C3892 1.392 . S
C3891 C3895 1.495 . S
C3892 C3891 1.392 . S
C3892 C3893 1.385 . S
C3892 C3894 1.478 . S
C3893 H3887 0.930 . S
C3893 C3889 1.400 . S
C3893 C3892 1.385 . S
C3894 C3892 1.478 . S
C3894 C3896 1.381 . S
C3894 C3900 1.383 . S
C3895 C3891 1.495 . S
C3895 H3901 0.959 . S
C3895 H3902 0.961 . S
C3895 H3903 0.960 . S
C3896 C3894 1.381 . S
C3896 C3897 1.394 . S
C3896 H3904 0.930 . S
C3897 C3896 1.394 . S
C3897 C3898 1.383 . S
C3897 H3905 0.929 . S
C3898 C3897 1.383 . S
C3898 C3899 1.377 . S
C3899 H3883 0.930 . S
C3899 C3898 1.377 . S
C3899 C3900 1.379 . S
C3900 H3884 0.931 . S
C3900 C3894 1.383 . S
C3900 C3899 1.379 . S
H3901 C3895 0.959 . S
H3902 C3895 0.961 . S
H3903 C3895 0.960 . S
H3904 C3896 0.930 . S
H3905 C3897 0.929 . S
H3906 C3914 0.929 . S
H3907 C3916 0.930 . S
H3908 C3918 0.930 . S
H3909 C3921 0.929 . S
H3910 C3924 0.930 . S
H3911 C3926 0.999 . S
H3912 C3926 0.959 1_545 S
H3913 C3926 1.017 . S
C3914 H3906 0.929 . S
C3914 C3915 1.377 . S
C3914 C3916 1.384 . S
C3915 C3914 1.377 . S
C3915 C3921 1.390 . S
C3916 H3907 0.930 . S
C3916 C3914 1.384 . S
C3916 C3917 1.372 . S
C3917 C3916 1.372 . S
C3917 C3918 1.400 . S
C3917 C3922 1.490 . S
C3918 H3908 0.930 . S
C3918 C3917 1.400 . S
C3918 C3921 1.386 . S
H3919 C3935 0.930 . S
H3920 C3936 0.931 1_565 S
C3921 H3909 0.929 . S
C3921 C3915 1.390 . S
C3921 C3918 1.386 . S
C3922 C3917 1.490 . S
C3922 C3924 1.395 . S
C3922 C3925 1.403 . S
H3923 C3929 0.920 1_565 S
C3924 H3910 0.930 . S
C3924 C3922 1.395 . S
C3924 C3927 1.403 . S
C3925 C3922 1.403 . S
C3925 C3926 1.440 1_545 S
C3925 C3929 1.400 . S
C3926 H3911 0.999 . S
C3926 H3912 0.959 1_565 S
C3926 H3913 1.017 . S
C3926 C3925 1.440 1_565 S
C3927 C3924 1.403 . S
C3927 C3928 1.392 . S
C3927 C3931 1.495 . S
C3928 C3927 1.392 . S
C3928 C3929 1.385 . S
C3928 C3930 1.478 . S
C3929 H3923 0.920 1_545 S
C3929 C3925 1.400 . S
C3929 C3928 1.385 . S
C3930 C3928 1.478 . S
C3930 C3932 1.381 . S
C3930 C3936 1.383 . S
C3931 C3927 1.495 . S
C3931 H3937 0.959 . S
C3931 H3938 0.961 . S
C3931 H3939 0.960 . S
C3932 C3930 1.381 . S
C3932 C3933 1.394 . S
C3932 H3940 0.930 . S
C3933 C3932 1.394 . S
C3933 C3934 1.383 . S
C3933 H3941 0.929 . S
C3934 C3933 1.383 . S
C3934 C3935 1.377 1_545 S
C3935 H3919 0.930 . S
C3935 C3934 1.377 1_565 S
C3935 C3936 1.379 1_565 S
C3936 H3920 0.931 1_545 S
C3936 C3930 1.383 . S
C3936 C3935 1.379 1_545 S
H3937 C3931 0.959 . S
H3938 C3931 0.961 . S
H3939 C3931 0.960 . S
H3940 C3932 0.930 . S
H3941 C3933 0.929 . S
C1359 C8 1.529 . S
C1378 C839 1.499 . S
C1395 C18 1.546 . S
C1414 C883 1.512 . S
C1450 C963 1.518 . S
C1431 C31 1.554 . S
C1467 C34 1.573 . S
C1486 C1007 1.587 . S
C1503 C5 1.555 . S
C1522 C1087 1.519 . S
C1539 C21 1.552 . S
C1558 C1149 1.570 . S
C1575 C47 1.512 . S
C1594 C1069 1.487 . S
C1630 C1131 1.516 . S
C1611 C57 1.541 . S
C1666 C1025 1.569 . S
C1647 C70 1.573 . S
C1683 C73 1.532 . S
C1702 C945 1.535 . S
C1738 C821 1.566 . S
C1719 C44 1.563 . S
C1755 C60 1.553 . S
C1774 C901 1.545 . S
C1791 C86 1.593 . S
C1810 C1211 1.592 . S
C1827 C96 1.565 . S
C1846 C1255 1.528 . S
C1882 C1335 1.570 . S
C1863 C109 1.645 . S
C1899 C112 1.653 . S
C1918 C281 1.597 . S
C1935 C83 1.631 . S
C1954 C325 1.644 . S
C1971 C99 1.581 . S
C1990 C405 1.586 . S
C2007 C125 1.569 . S
C2026 C343 1.591 . S
C2043 C135 1.571 . S
C2062 C387 1.530 . S
C2098 C263 1.576 . S
C2079 C148 1.634 . S
C2134 C1317 1.644 . S
C2115 C151 1.675 . S
C2170 C1193 1.552 . S
C2151 C122 1.611 . S
C2206 C1273 1.596 . S
C2187 C138 1.594 . S
C2223 C164 1.573 . S
C2242 C467 1.588 . S
C2259 C174 1.555 . S
C2278 C529 1.559 . S
C2295 C187 1.628 . S
C2314 C573 1.616 . S
C2331 C190 1.672 . S
C2350 C635 1.696 . S
C2386 C697 1.607 . S
C2367 C161 1.634 . S
C2422 C777 1.581 . S
C2403 C177 1.597 . S
C2458 C715 1.629 . S
C2439 C203 1.607 . S
C2494 C759 1.576 . S
C2475 C213 1.577 . S
C2511 C226 1.631 . S
C2530 C653 1.605 . S
C2566 C591 1.662 . S
C2547 C229 1.639 . S
C2583 C200 1.632 . S
C2602 C449 1.620 . S
C2638 C511 1.590 . S
C2619 C216 1.595 . S
C2674 C287 1.320 . S
C2655 C0 1.333 . S
C2691 C23 1.338 . S
C2710 C331 1.292 . S
C2746 C411 1.268 . S
C2727 C36 1.363 . S
C2782 C473 1.322 . S
C2763 C26 1.364 . S
C2818 C535 1.289 . S
C2799 C10 1.333 1_556 S
C2854 C579 1.280 . S
C2835 C13 1.302 1_556 S
C2871 C39 1.342 . S
C2890 C597 1.311 . S
C2907 C62 1.321 1_556 S
C2926 C455 1.239 . S
C2943 C75 1.318 1_556 S
C2962 C517 1.224 . S
C2979 C65 1.408 . S
C2998 C349 1.406 . S
C3034 C393 1.203 . S
C3015 C49 1.315 . S
C3051 C52 1.324 . S
C3070 C269 1.319 . S
C3106 C641 1.340 . S
C3087 C78 1.330 . S
C3123 C101 1.403 1_545 S
C3142 C703 1.359 . S
C3159 C114 1.412 1_655 S
C3178 C783 1.347 . S
C3214 C845 1.293 . S
C3195 C104 1.281 . S
C3231 C88 1.329 . S
C3250 C889 1.250 . S
C3267 C91 1.192 . S
C3286 C969 1.130 . S
C3303 C117 1.221 . S
C3322 C951 1.175 . S
C3339 C140 1.267 . S
C3358 C827 1.219 . S
C3394 C907 1.322 . S
C3375 C153 1.358 . S
C3411 C143 1.368 . S
C3430 C721 1.373 . S
C3447 C127 1.406 1_545 S
C3466 C765 1.307 . S
C3502 C659 1.366 . S
C3483 C130 1.365 . S
C3538 C1013 1.201 . S
C3519 C156 1.257 . S
C3555 C179 1.251 . S
C3574 C1093 1.184 . S
C3591 C192 1.347 . S
C3610 C1155 1.248 . S
C3646 C1217 1.287 . S
C3627 C182 1.333 . S
C3682 C1261 1.351 . S
C3663 C166 1.410 1_565 S
C3699 C169 1.364 . S
C3718 C1341 1.339 . S
C3735 C195 1.346 . S
C3754 C1323 1.310 . S
C3771 C218 1.395 1_565 S
C3790 C1199 1.335 . S
C3826 C1279 1.313 . S
C3807 C231 1.388 1_455 S
C3862 C1075 1.253 . S
C3843 C221 1.265 . S
C3898 C1137 1.251 . S
C3879 C205 1.341 . S
C3915 C208 1.225 . S
C3934 C1031 1.225 . S
