# Generated by pormake.
# Topology nom, (4,4)-cn, num edge types: 1
# Building blocks:
#     Node 0, Type 0, BuildingBlock: NAHDIM_clean_linker_0, # of connection points: 4
#     Node 1, Type 0, BuildingBlock: NAHDIM_clean_linker_0, # of connection points: 4
#     Node 2, Type 0, BuildingBlock: NAHDIM_clean_linker_0, # of connection points: 4
#     Node 3, Type 0, BuildingBlock: NAHDIM_clean_linker_0, # of connection points: 4
#     Node 4, Type 0, BuildingBlock: NAHDIM_clean_linker_0, # of connection points: 4
#     Node 5, Type 0, BuildingBlock: NAHDIM_clean_linker_0, # of connection points: 4
#     Node 6, Type 1, BuildingBlock: GALJAG_clean_sbu_0, # of connection points: 4
#     Node 7, Type 1, BuildingBlock: GALJAG_clean_sbu_0, # of connection points: 4
#     Node 8, Type 1, BuildingBlock: GALJAG_clean_sbu_0, # of connection points: 4
#     Node 9, Type 1, BuildingBlock: GALJAG_clean_sbu_0, # of connection points: 4
#     Node 10, Type 1, BuildingBlock: GALJAG_clean_sbu_0, # of connection points: 4
#     Node 11, Type 1, BuildingBlock: GALJAG_clean_sbu_0, # of connection points: 4
#     Edge 12, Type (0, 1), BuildingBlock: CIFDUS_clean_linker_0, # of connection points: 2
#     Edge 13, Type (0, 1), BuildingBlock: CIFDUS_clean_linker_0, # of connection points: 2
#     Edge 14, Type (0, 1), BuildingBlock: CIFDUS_clean_linker_0, # of connection points: 2
#     Edge 15, Type (0, 1), BuildingBlock: CIFDUS_clean_linker_0, # of connection points: 2
#     Edge 16, Type (0, 1), BuildingBlock: CIFDUS_clean_linker_0, # of connection points: 2
#     Edge 17, Type (0, 1), BuildingBlock: CIFDUS_clean_linker_0, # of connection points: 2
#     Edge 18, Type (0, 1), BuildingBlock: CIFDUS_clean_linker_0, # of connection points: 2
#     Edge 19, Type (0, 1), BuildingBlock: CIFDUS_clean_linker_0, # of connection points: 2
#     Edge 20, Type (0, 1), BuildingBlock: CIFDUS_clean_linker_0, # of connection points: 2
#     Edge 21, Type (0, 1), BuildingBlock: CIFDUS_clean_linker_0, # of connection points: 2
#     Edge 22, Type (0, 1), BuildingBlock: CIFDUS_clean_linker_0, # of connection points: 2
#     Edge 23, Type (0, 1), BuildingBlock: CIFDUS_clean_linker_0, # of connection points: 2
#     Edge 24, Type (0, 1), BuildingBlock: CIFDUS_clean_linker_0, # of connection points: 2
#     Edge 25, Type (0, 1), BuildingBlock: CIFDUS_clean_linker_0, # of connection points: 2
#     Edge 26, Type (0, 1), BuildingBlock: CIFDUS_clean_linker_0, # of connection points: 2
#     Edge 27, Type (0, 1), BuildingBlock: CIFDUS_clean_linker_0, # of connection points: 2
#     Edge 28, Type (0, 1), BuildingBlock: CIFDUS_clean_linker_0, # of connection points: 2
#     Edge 29, Type (0, 1), BuildingBlock: CIFDUS_clean_linker_0, # of connection points: 2
#     Edge 30, Type (0, 1), BuildingBlock: CIFDUS_clean_linker_0, # of connection points: 2
#     Edge 31, Type (0, 1), BuildingBlock: CIFDUS_clean_linker_0, # of connection points: 2
#     Edge 32, Type (0, 1), BuildingBlock: CIFDUS_clean_linker_0, # of connection points: 2
#     Edge 33, Type (0, 1), BuildingBlock: CIFDUS_clean_linker_0, # of connection points: 2
#     Edge 34, Type (0, 1), BuildingBlock: CIFDUS_clean_linker_0, # of connection points: 2
#     Edge 35, Type (0, 1), BuildingBlock: CIFDUS_clean_linker_0, # of connection points: 2
# Relax obj value: 0.026
# Max RMSD: 0.128
# Mean RMSD: 0.098
data_MOF--net-nom--node1-GALJAG_clean_sbu_0--node2-NAHDIM_clean_linker_0--edge1-CIFDUS_clean_linker_0
_symmetry_space_group_name_H-M    P1
_symmetry_Int_Tables_number       1
_symmetry_cell_setting            triclinic
loop_
_symmetry_equiv_pos_as_xyz
'x, y, z'
_cell_length_a     52.523941
_cell_length_b     52.452986
_cell_length_c     65.610707
_cell_angle_alpha  90.189286
_cell_angle_beta   90.197174
_cell_angle_gamma 120.0881
loop_
_atom_site_label
_atom_site_type_symbol
_atom_site_fract_x
_atom_site_fract_y
_atom_site_fract_z
_atom_type_partial_charge
C0 C 0.19063 0.64762 0.2278 0.0
C1 C 0.19924 0.66021 0.24949 0.0
C2 C 0.15186 0.64828 0.26485 0.0
C3 C 0.14119 0.61788 0.26713 0.0
C4 C 0.11291 0.59912 0.27473 0.0
C5 C 0.09469 0.61081 0.27995 0.0
C6 C 0.10537 0.64136 0.27791 0.0
C7 C 0.13392 0.65971 0.27051 0.0
C8 C 0.10227 0.56666 0.27686 0.0
C9 C 0.08641 0.6545 0.2832 0.0
C10 C 0.91127 0.46512 0.18196 0.0
C11 C 0.92727 0.4708 0.20171 0.0
C12 C 0.95326 0.51104 0.22635 0.0
C13 C 0.95793 0.53839 0.23304 0.0
C14 C 0.97741 0.55356 0.24917 0.0
C15 C 0.99263 0.54099 0.2588 0.0
C16 C 0.988 0.51328 0.25215 0.0
C17 C 0.96831 0.49853 0.23604 0.0
C18 C 0.9817 0.58296 0.25599 0.0
C19 C 0.00394 0.4993 0.26208 0.0
C20 C 0.88558 0.48631 0.36821 0.0
C21 C 0.89957 0.51718 0.36829 0.0
C22 C 0.93015 0.53435 0.36616 0.0
C23 C 0.94704 0.52031 0.36429 0.0
C24 C 0.93326 0.48931 0.36594 0.0
C25 C 0.90256 0.47264 0.36796 0.0
C26 C 0.9443 0.56745 0.36512 0.0
C27 C 0.95081 0.47378 0.36457 0.0
C28 C 0.16131 0.65192 0.42762 0.0
C29 C 0.13715 0.62289 0.43652 0.0
C30 C 0.09075 0.6084 0.41891 0.0
C31 C 0.0761 0.62238 0.41123 0.0
C32 C 0.05613 0.61013 0.39492 0.0
C33 C 0.0504 0.58295 0.38637 0.0
C34 C 0.06443 0.56818 0.39453 0.0
C35 C 0.08436 0.58099 0.4108 0.0
C36 C 0.04118 0.6262 0.38678 0.0
C37 C 0.05817 0.53877 0.38611 0.0
C38 C 0.06389 0.59076 0.28637 0.0
C39 C 0.04283 0.57624 0.27107 0.0
C40 C 0.01343 0.55676 0.27583 0.0
C41 C 0.0045 0.55197 0.29642 0.0
C42 C 0.97493 0.53322 0.3017 0.0
C43 C 0.96632 0.52868 0.32199 0.0
C44 C 0.98702 0.54235 0.33782 0.0
C45 C 0.97843 0.53786 0.35849 0.0
C46 C 0.99954 0.55126 0.37388 0.0
C47 C 0.02924 0.56959 0.36919 0.0
C48 C 0.03823 0.57495 0.34857 0.0
C49 C 0.06783 0.59376 0.34327 0.0
C50 C 0.07633 0.59904 0.32292 0.0
C51 C 0.05558 0.58557 0.3071 0.0
C52 C 0.0257 0.56627 0.31211 0.0
C53 C 0.017 0.56114 0.33285 0.0
C54 C 0.83342 0.45892 0.33496 0.0
C55 C 0.83718 0.47405 0.3557 0.0
O56 O 0.17891 0.66724 0.2571 0.0
O57 O 0.11021 0.62153 0.43448 0.0
O58 O 0.85583 0.46921 0.36801 0.0
O59 O 0.9343 0.49765 0.21052 0.0
H60 H 0.19997 0.64337 0.25932 0.0
H61 H 0.16924 0.62669 0.22788 0.0
H62 H 0.18848 0.66333 0.21762 0.0
H63 H 0.20749 0.64295 0.2215 0.0
H64 H 0.15449 0.60836 0.26284 0.0
H65 H 0.14224 0.68311 0.26877 0.0
H66 H 0.08449 0.55408 0.26555 0.0
H67 H 0.12012 0.56151 0.27437 0.0
H68 H 0.09291 0.55896 0.29227 0.0
H69 H 0.09772 0.67858 0.28032 0.0
H70 H 0.06573 0.64352 0.27411 0.0
H71 H 0.08026 0.65058 0.29954 0.0
H72 H 0.91769 0.45219 0.21273 0.0
H73 H 0.94099 0.46477 0.16046 0.0
H74 H 0.88896 0.44532 0.18483 0.0
H75 H 0.90277 0.48103 0.18113 0.0
H76 H 0.94622 0.54786 0.22552 0.0
H77 H 0.96486 0.47733 0.23109 0.0
H78 H 0.97587 0.58191 0.27234 0.0
H79 H 0.00522 0.60014 0.25448 0.0
H80 H 0.9681 0.58969 0.24701 0.0
H81 H 0.99804 0.47769 0.25511 0.0
H82 H 0.02807 0.51421 0.26078 0.0
H83 H 0.99861 0.49605 0.27857 0.0
H84 H 0.84664 0.49786 0.35235 0.0
H85 H 0.88666 0.52794 0.36977 0.0
H86 H 0.89157 0.4488 0.36842 0.0
H87 H 0.9548 0.57524 0.35002 0.0
H88 H 0.92821 0.57504 0.36747 0.0
H89 H 0.96185 0.57783 0.3769 0.0
H90 H 0.93735 0.44998 0.36823 0.0
H91 H 0.95952 0.47597 0.34889 0.0
H92 H 0.96994 0.48423 0.37517 0.0
H93 H 0.13755 0.60489 0.42783 0.0
H94 H 0.18315 0.65362 0.42941 0.0
H95 H 0.15712 0.65282 0.4111 0.0
H96 H 0.16179 0.67107 0.43529 0.0
H97 H 0.08076 0.64325 0.41785 0.0
H98 H 0.0944 0.56922 0.41736 0.0
H99 H 0.04563 0.63036 0.37024 0.0
H100 H 0.017 0.61225 0.38862 0.0
H101 H 0.04866 0.64757 0.39471 0.0
H102 H 0.07084 0.53006 0.39415 0.0
H103 H 0.03432 0.52254 0.38746 0.0
H104 H 0.06374 0.54092 0.36967 0.0
H105 H 0.04947 0.57994 0.25521 0.0
H106 H 0.95805 0.52198 0.29019 0.0
H107 H 0.94319 0.51416 0.32507 0.0
H108 H 0.99273 0.54762 0.3897 0.0
H109 H 0.08473 0.60473 0.35481 0.0
H110 H 0.09939 0.61377 0.31972 0.0
H111 H 0.81661 0.46052 0.3256 0.0
H112 H 0.82689 0.43539 0.33678 0.0
H113 H 0.85462 0.46999 0.32663 0.0
C114 C 0.41848 0.84994 0.59217 0.0
C115 C 0.4086 0.84085 0.57002 0.0
C116 C 0.41614 0.88674 0.55436 0.0
C117 C 0.44697 0.90051 0.55274 0.0
C118 C 0.46355 0.92934 0.54534 0.0
C119 C 0.4492 0.94504 0.53984 0.0
C120 C 0.41823 0.93135 0.54151 0.0
C121 C 0.40212 0.90223 0.5485 0.0
C122 C 0.49652 0.94319 0.54363 0.0
C123 C 0.40218 0.94762 0.53624 0.0
C124 C 0.5379 0.13193 0.64221 0.0
C125 C 0.5213 0.11258 0.62469 0.0
C126 C 0.52766 0.08937 0.5944 0.0
C127 C 0.49792 0.07541 0.58833 0.0
C128 C 0.48754 0.0556 0.57187 0.0
C129 C 0.50706 0.04893 0.5615 0.0
C130 C 0.53691 0.06255 0.56769 0.0
C131 C 0.54691 0.08296 0.58389 0.0
C132 C 0.45562 0.04176 0.56557 0.0
C133 C 0.55817 0.05546 0.55724 0.0
C134 C 0.54126 0.15676 0.45233 0.0
C135 C 0.51154 0.13928 0.45788 0.0
C136 C 0.49872 0.10876 0.46012 0.0
C137 C 0.51598 0.09535 0.45703 0.0
C138 C 0.54552 0.11256 0.45068 0.0
C139 C 0.55771 0.14309 0.44822 0.0
C140 C 0.46689 0.09096 0.46644 0.0
C141 C 0.56444 0.09884 0.44726 0.0
C142 C 0.37446 0.87718 0.39292 0.0
C143 C 0.40529 0.90208 0.3875 0.0
C144 C 0.42396 0.94966 0.40453 0.0
C145 C 0.41262 0.96526 0.41455 0.0
C146 C 0.42888 0.98595 0.4298 0.0
C147 C 0.45754 0.99162 0.43473 0.0
C148 C 0.46972 0.97692 0.42391 0.0
C149 C 0.45277 0.95603 0.40889 0.0
C150 C 0.41535 0.00162 0.44069 0.0
C151 C 0.50051 0.98314 0.42836 0.0
C152 C 0.46679 0.9763 0.53348 0.0
C153 C 0.48013 0.99759 0.54882 0.0
C154 C 0.49596 0.02759 0.54424 0.0
C155 C 0.4989 0.03677 0.52373 0.0
C156 C 0.51429 0.06679 0.5186 0.0
C157 C 0.51643 0.07566 0.49844 0.0
C158 C 0.50291 0.05489 0.48263 0.0
C159 C 0.50362 0.06384 0.46223 0.0
C160 C 0.48965 0.04273 0.44688 0.0
C161 C 0.47445 0.01265 0.45139 0.0
C162 C 0.47348 0.00324 0.47172 0.0
C163 C 0.45821 0.97318 0.47685 0.0
C164 C 0.45649 0.96424 0.49701 0.0
C165 C 0.46958 0.98503 0.51285 0.0
C166 C 0.4856 0.01541 0.50799 0.0
C167 C 0.48762 0.0245 0.4874 0.0
C168 C 0.5503 0.20621 0.48315 0.0
C169 C 0.54554 0.20458 0.45997 0.0
O170 O 0.39912 0.85889 0.56162 0.0
O171 O 0.40663 0.92888 0.39063 0.0
O172 O 0.55495 0.18669 0.45114 0.0
O173 O 0.53842 0.10884 0.61027 0.0
H174 H 0.42746 0.8427 0.56118 0.0
H175 H 0.43749 0.87275 0.59282 0.0
H176 H 0.40036 0.84912 0.60136 0.0
H177 H 0.4254 0.83502 0.59906 0.0
H178 H 0.45848 0.88919 0.55728 0.0
H179 H 0.37839 0.89155 0.5498 0.0
H180 H 0.50737 0.96104 0.55517 0.0
H181 H 0.50397 0.927 0.54609 0.0
H182 H 0.50393 0.95326 0.52836 0.0
H183 H 0.37848 0.93484 0.54021 0.0
H184 H 0.41236 0.96912 0.54439 0.0
H185 H 0.40404 0.95222 0.51965 0.0
H186 H 0.50478 0.11756 0.61792 0.0
H187 H 0.52351 0.10292 0.66734 0.0
H188 H 0.56165 0.14478 0.63737 0.0
H189 H 0.5343 0.15133 0.64118 0.0
H190 H 0.48258 0.07995 0.59623 0.0
H191 H 0.56976 0.09367 0.58866 0.0
H192 H 0.44414 0.0178 0.56886 0.0
H193 H 0.44408 0.0516 0.57373 0.0
H194 H 0.45386 0.04432 0.54892 0.0
H195 H 0.57994 0.06587 0.56502 0.0
H196 H 0.54897 0.03123 0.55674 0.0
H197 H 0.56142 0.06333 0.54127 0.0
H198 H 0.52173 0.19551 0.45695 0.0
H199 H 0.49805 0.14904 0.46076 0.0
H200 H 0.58052 0.1566 0.44377 0.0
H201 H 0.46557 0.08235 0.48207 0.0
H202 H 0.45568 0.10415 0.46631 0.0
H203 H 0.45481 0.07177 0.45608 0.0
H204 H 0.58674 0.11504 0.44169 0.0
H205 H 0.56672 0.08927 0.46176 0.0
H206 H 0.55368 0.08056 0.43601 0.0
H207 H 0.42076 0.89964 0.39786 0.0
H208 H 0.37275 0.85541 0.39035 0.0
H209 H 0.36999 0.87891 0.40925 0.0
H210 H 0.35743 0.87842 0.38358 0.0
H211 H 0.39058 0.96057 0.41075 0.0
H212 H 0.46212 0.94491 0.40048 0.0
H213 H 0.41714 6e-05 0.45746 0.0
H214 H 0.42754 0.0253 0.43661 0.0
H215 H 0.39181 0.9925 0.43657 0.0
H216 H 0.50744 0.97119 0.41779 0.0
H217 H 0.51627 0.00716 0.42717 0.0
H218 H 0.50174 0.97649 0.44421 0.0
H219 H 0.47754 0.99074 0.56463 0.0
H220 H 0.52477 0.08381 0.53012 0.0
H221 H 0.52859 0.09909 0.49546 0.0
H222 H 0.48964 0.04983 0.43137 0.0
H223 H 0.44728 0.95621 0.46535 0.0
H224 H 0.44441 0.94083 0.50006 0.0
H225 H 0.54427 0.22179 0.49012 0.0
H226 H 0.57361 0.21353 0.48695 0.0
H227 H 0.53624 0.1842 0.49002 0.0
C228 C 0.48931 0.32412 0.73261 0.0
C229 C 0.52179 0.34837 0.73228 0.0
C230 C 0.52355 0.38406 0.7083 0.0
C231 C 0.54617 0.41341 0.70922 0.0
C232 C 0.54099 0.4363 0.70378 0.0
C233 C 0.51243 0.42945 0.69745 0.0
C234 C 0.48961 0.39961 0.69624 0.0
C235 C 0.4957 0.37723 0.70123 0.0
C236 C 0.56593 0.46775 0.70491 0.0
C237 C 0.4587 0.39121 0.68989 0.0
C238 C 0.44026 0.52087 0.81302 0.0
C239 C 0.44257 0.50551 0.79467 0.0
C240 C 0.47029 0.51495 0.7632 0.0
C241 C 0.4499 0.48814 0.75387 0.0
C242 C 0.45615 0.47951 0.7352 0.0
C243 C 0.48354 0.4978 0.72575 0.0
C244 C 0.50391 0.52506 0.73484 0.0
C245 C 0.49685 0.53342 0.75339 0.0
C246 C 0.4337 0.45043 0.72582 0.0
C247 C 0.53335 0.54495 0.72518 0.0
C248 C 0.42601 0.56345 0.61881 0.0
C249 C 0.40891 0.53474 0.62618 0.0
C250 C 0.42101 0.51637 0.62849 0.0
C251 C 0.45106 0.52737 0.62382 0.0
C252 C 0.46808 0.55613 0.61585 0.0
C253 C 0.45512 0.57367 0.61314 0.0
C254 C 0.40172 0.48535 0.63609 0.0
C255 C 0.50008 0.56853 0.61057 0.0
C256 C 0.50622 0.37096 0.55416 0.0
C257 C 0.51605 0.40341 0.55066 0.0
C258 C 0.48901 0.42546 0.56545 0.0
C259 C 0.46159 0.41604 0.57426 0.0
C260 C 0.45808 0.43287 0.58947 0.0
C261 C 0.48255 0.46008 0.59555 0.0
C262 C 0.50984 0.47076 0.58556 0.0
C263 C 0.51283 0.45325 0.57061 0.0
C264 C 0.42855 0.42102 0.59961 0.0
C265 C 0.53607 0.50016 0.5912 0.0
C266 C 0.50588 0.45336 0.69313 0.0
C267 C 0.50138 0.46725 0.70977 0.0
C268 C 0.49139 0.48719 0.70714 0.0
C269 C 0.48604 0.49393 0.68729 0.0
C270 C 0.4755 0.51351 0.68409 0.0
C271 C 0.46916 0.51902 0.66453 0.0
C272 C 0.47267 0.50479 0.64744 0.0
C273 C 0.46474 0.50896 0.62759 0.0
C274 C 0.46872 0.49459 0.61096 0.0
C275 C 0.48026 0.47592 0.61359 0.0
C276 C 0.48804 0.47125 0.63332 0.0
C277 C 0.4993 0.45222 0.63651 0.0
C278 C 0.50585 0.4469 0.65604 0.0
C279 C 0.5011 0.46012 0.67314 0.0
C280 C 0.49075 0.48017 0.67024 0.0
C281 C 0.48406 0.48562 0.6503 0.0
C282 C 0.42314 0.62026 0.63983 0.0
C283 C 0.40201 0.58861 0.6329 0.0
O284 O 0.529 0.36232 0.71352 0.0
O285 O 0.49177 0.40712 0.55219 0.0
O286 O 0.41477 0.5816 0.617 0.0
O287 O 0.46522 0.52347 0.78163 0.0
H288 H 0.52562 0.36481 0.74446 0.0
H289 H 0.47494 0.334 0.73229 0.0
H290 H 0.48402 0.30911 0.7193 0.0
H291 H 0.48419 0.31103 0.74683 0.0
H292 H 0.56782 0.4183 0.71433 0.0
H293 H 0.47864 0.35436 0.69976 0.0
H294 H 0.56192 0.47933 0.7176 0.0
H295 H 0.58751 0.46916 0.70754 0.0
H296 H 0.56701 0.47948 0.69059 0.0
H297 H 0.44268 0.36772 0.69312 0.0
H298 H 0.45146 0.40517 0.69788 0.0
H299 H 0.45815 0.39479 0.67328 0.0
H300 H 0.4415 0.48406 0.79767 0.0
H301 H 0.39918 0.51867 0.80917 0.0
H302 H 0.44515 0.51034 0.82626 0.0
H303 H 0.46171 0.54236 0.81433 0.0
H304 H 0.4291 0.47367 0.76111 0.0
H305 H 0.51238 0.55412 0.76061 0.0
H306 H 0.4304 0.45329 0.70944 0.0
H307 H 0.4419 0.43466 0.72681 0.0
H308 H 0.41211 0.44065 0.73363 0.0
H309 H 0.54684 0.5654 0.73422 0.0
H310 H 0.54573 0.53302 0.72361 0.0
H311 H 0.53005 0.55111 0.70963 0.0
H312 H 0.39825 0.57399 0.64622 0.0
H313 H 0.38609 0.52673 0.63 0.0
H314 H 0.46794 0.59581 0.60721 0.0
H315 H 0.40786 0.48382 0.65205 0.0
H316 H 0.37802 0.47866 0.63572 0.0
H317 H 0.40497 0.46952 0.62676 0.0
H318 H 0.51087 0.5921 0.60615 0.0
H319 H 0.51214 0.56634 0.62376 0.0
H320 H 0.50192 0.55578 0.59769 0.0
H321 H 0.53256 0.41613 0.56278 0.0
H322 H 0.52533 0.36739 0.55312 0.0
H323 H 0.49656 0.36432 0.5696 0.0
H324 H 0.48935 0.35672 0.54271 0.0
H325 H 0.44323 0.3948 0.56983 0.0
H326 H 0.53379 0.46115 0.5631 0.0
H327 H 0.43074 0.41807 0.61616 0.0
H328 H 0.42079 0.43709 0.59804 0.0
H329 H 0.41165 0.39958 0.59299 0.0
H330 H 0.55461 0.50687 0.58043 0.0
H331 H 0.52973 0.51742 0.59149 0.0
H332 H 0.54377 0.49889 0.60674 0.0
H333 H 0.5044 0.46141 0.72509 0.0
H334 H 0.47189 0.52467 0.6967 0.0
H335 H 0.46109 0.53429 0.663 0.0
H336 H 0.4623 0.4976 0.59582 0.0
H337 H 0.50293 0.44097 0.62399 0.0
H338 H 0.51433 0.43196 0.65759 0.0
H339 H 0.41377 0.62631 0.65289 0.0
H340 H 0.44435 0.62236 0.64481 0.0
H341 H 0.4275 0.63591 0.62714 0.0
C342 C 0.17153 0.48763 0.91938 0.0
C343 C 0.18579 0.51077 0.90265 0.0
C344 C 0.14864 0.49644 0.87611 0.0
C345 C 0.14594 0.52155 0.87391 0.0
C346 C 0.11994 0.51926 0.86611 0.0
C347 C 0.09609 0.49121 0.86065 0.0
C348 C 0.09908 0.46593 0.86253 0.0
C349 C 0.12564 0.46903 0.86985 0.0
C350 C 0.11782 0.54677 0.86393 0.0
C351 C 0.07403 0.43554 0.85732 0.0
C352 C 0.00319 0.51998 0.9638 0.0
C353 C 0.97733 0.49121 0.95567 0.0
C354 C 0.97892 0.49214 0.91878 0.0
C355 C 0.97727 0.4653 0.91396 0.0
C356 C 0.98975 0.46209 0.89595 0.0
C357 C 0.00432 0.48633 0.88261 0.0
C358 C 0.00485 0.51303 0.88705 0.0
C359 C 0.99167 0.51541 0.905 0.0
C360 C 0.98815 0.43309 0.89147 0.0
C361 C 0.02038 0.53941 0.87329 0.0
C362 C 0.89238 0.44175 0.76638 0.0
C363 C 0.8962 0.4202 0.77622 0.0
C364 C 0.92441 0.42586 0.78179 0.0
C365 C 0.94915 0.45396 0.77792 0.0
C366 C 0.94525 0.47558 0.7678 0.0
C367 C 0.91689 0.46895 0.76182 0.0
C368 C 0.92775 0.40174 0.79167 0.0
C369 C 0.97097 0.50577 0.76337 0.0
C370 C 0.15072 0.47793 0.7103 0.0
C371 C 0.13058 0.49108 0.70837 0.0
C372 C 0.08255 0.46868 0.72468 0.0
C373 C 0.06228 0.44188 0.73345 0.0
C374 C 0.0434 0.4407 0.74897 0.0
C375 C 0.04456 0.46699 0.75552 0.0
C376 C 0.06398 0.49399 0.74594 0.0
C377 C 0.08279 0.49456 0.73058 0.0
C378 C 0.0227 0.41152 0.75871 0.0
C379 C 0.06513 0.52227 0.75214 0.0
C380 C 0.06741 0.48803 0.85436 0.0
C381 C 0.04946 0.48892 0.86967 0.0
C382 C 0.02156 0.48472 0.86526 0.0
C383 C 0.01086 0.47897 0.84498 0.0
C384 C 0.9826 0.47385 0.84004 0.0
C385 C 0.97225 0.46806 0.82001 0.0
C386 C 0.98967 0.46691 0.80419 0.0
C387 C 0.97919 0.46047 0.78383 0.0
C388 C 0.99747 0.46034 0.76844 0.0
C389 C 0.02605 0.46644 0.77274 0.0
C390 C 0.03669 0.47222 0.79304 0.0
C391 C 0.06515 0.47783 0.79795 0.0
C392 C 0.07536 0.48325 0.81798 0.0
C393 C 0.05749 0.48323 0.83389 0.0
C394 C 0.02895 0.47827 0.82923 0.0
C395 C 0.01842 0.47245 0.80881 0.0
C396 C 0.82869 0.44503 0.77559 0.0
C397 C 0.84094 0.42413 0.77365 0.0
O398 O 0.17337 0.49814 0.88395 0.0
O399 O 0.10161 0.46885 0.71068 0.0
O400 O 0.8653 0.43683 0.76106 0.0
O401 O 0.96874 0.49617 0.93676 0.0
H402 H 0.1818 0.52924 0.9062 0.0
H403 H 0.14751 0.47944 0.91985 0.0
H404 H 0.17491 0.46866 0.91641 0.0
H405 H 0.1811 0.49737 0.93451 0.0
H406 H 0.16423 0.54293 0.87813 0.0
H407 H 0.12819 0.44986 0.8714 0.0
H408 H 0.1026 0.54678 0.87563 0.0
H409 H 0.13953 0.56713 0.86589 0.0
H410 H 0.10868 0.5472 0.84873 0.0
H411 H 0.07877 0.41795 0.86186 0.0
H412 H 0.05355 0.4316 0.86498 0.0
H413 H 0.06989 0.43381 0.84064 0.0
H414 H 0.98506 0.475 0.95434 0.0
H415 H 0.01026 0.51641 0.979 0.0
H416 H 0.02212 0.52786 0.95324 0.0
H417 H 0.99702 0.53732 0.96514 0.0
H418 H 0.96644 0.44697 0.92438 0.0
H419 H 0.99245 0.53591 0.90881 0.0
H420 H 0.98116 0.42631 0.87543 0.0
H421 H 0.01033 0.43567 0.89343 0.0
H422 H 0.97264 0.4153 0.90175 0.0
H423 H 0.01925 0.55874 0.8791 0.0
H424 H 0.04386 0.54567 0.87177 0.0
H425 H 0.01034 0.53373 0.85783 0.0
H426 H 0.84743 0.42134 0.78933 0.0
H427 H 0.87715 0.39886 0.77925 0.0
H428 H 0.91362 0.48529 0.75404 0.0
H429 H 0.93386 0.40733 0.80795 0.0
H430 H 0.90711 0.38006 0.79086 0.0
H431 H 0.94563 0.39972 0.78423 0.0
H432 H 0.96379 0.52133 0.75816 0.0
H433 H 0.98503 0.51509 0.77716 0.0
H434 H 0.98467 0.50395 0.75124 0.0
H435 H 0.13731 0.50761 0.72093 0.0
H436 H 0.17408 0.49531 0.70821 0.0
H437 H 0.14843 0.46833 0.72572 0.0
H438 H 0.14489 0.4602 0.69882 0.0
H439 H 0.06196 0.42198 0.72853 0.0
H440 H 0.09764 0.51519 0.72321 0.0
H441 H 0.02745 0.41271 0.7753 0.0
H442 H -0.00033 0.40668 0.75692 0.0
H443 H 0.02456 0.39308 0.75195 0.0
H444 H 0.08019 0.54112 0.74241 0.0
H445 H 0.04276 0.51951 0.75124 0.0
H446 H 0.0727 0.52763 0.76821 0.0
H447 H 0.05727 0.49276 0.88534 0.0
H448 H 0.96816 0.47421 0.85163 0.0
H449 H 0.95037 0.4644 0.8171 0.0
H450 H 0.98942 0.45563 0.75284 0.0
H451 H 0.07983 0.47795 0.78636 0.0
H452 H 0.09743 0.48742 0.82087 0.0
H453 H 0.82206 0.44922 0.76043 0.0
H454 H 0.8093 0.4355 0.78584 0.0
H455 H 0.84577 0.46639 0.78219 0.0
C456 C 0.52861 0.87018 0.8937 0.0
C457 C 0.51023 0.85446 0.91246 0.0
C458 C 0.53003 0.89261 0.93879 0.0
C459 C 0.50634 0.89745 0.9418 0.0
C460 C 0.51094 0.9241 0.95017 0.0
C461 C 0.53979 0.9463 0.95556 0.0
C462 C 0.56352 0.94098 0.95326 0.0
C463 C 0.55819 0.91393 0.94517 0.0
C464 C 0.48505 0.92877 0.95295 0.0
C465 C 0.59461 0.96419 0.95874 0.0
C466 C 0.59441 0.11901 0.84947 0.0
C467 C 0.59527 0.1014 0.86689 0.0
C468 C 0.56873 0.07694 0.89775 0.0
C469 C 0.59206 0.07459 0.90634 0.0
C470 C 0.58811 0.0585 0.92421 0.0
C471 C 0.5602 0.0441 0.93361 0.0
C472 C 0.53683 0.04691 0.92532 0.0
C473 C 0.54152 0.06357 0.90756 0.0
C474 C 0.61363 0.05624 0.93277 0.0
C475 C 0.50677 0.03167 0.93493 0.0
C476 C 0.59359 0.15121 0.048 0.0
C477 C 0.61523 0.14544 0.0406 0.0
C478 C 0.60857 0.11646 0.03646 0.0
C479 C 0.57945 0.09291 0.03931 0.0
C480 C 0.55788 0.09869 0.04742 0.0
C481 C 0.56543 0.12781 0.05198 0.0
C482 C 0.63255 0.1111 0.0288 0.0
C483 C 0.52669 0.0742 0.05082 0.0
C484 C 0.54198 0.88381 0.10525 0.0
C485 C 0.52807 0.90338 0.10516 0.0
C486 C 0.55233 0.9531 0.09129 0.0
C487 C 0.58022 0.97443 0.08469 0.0
C488 C 0.58354 0.9948 0.06963 0.0
C489 C 0.55827 0.99413 0.06141 0.0
C490 C 0.53006 0.97371 0.06895 0.0
C491 C 0.52737 0.95327 0.08377 0.0
C492 C 0.61395 0.01645 0.06208 0.0
C493 C 0.50275 0.97311 0.06106 0.0
C494 C 0.54548 0.97589 0.96193 0.0
C495 C 0.54847 0.99549 0.94654 0.0
C496 C 0.55505 0.02419 0.95105 0.0
C497 C 0.55848 0.03374 0.97156 0.0
C498 C 0.56502 0.06245 0.97665 0.0
C499 C 0.56883 0.07176 0.99689 0.0
C500 C 0.56669 0.05286 0.0128 0.0
C501 C 0.5714 0.06239 0.0334 0.0
C502 C 0.56854 0.0428 0.04882 0.0
C503 C 0.5612 0.01385 0.04429 0.0
C504 C 0.55693 0.00406 0.02378 0.0
C505 C 0.55011 0.97523 0.01866 0.0
C506 C 0.54605 0.96584 0.99844 0.0
C507 C 0.5489 0.98498 0.98256 0.0
C508 C 0.55554 0.01407 0.98737 0.0
C509 C 0.55966 0.02366 0.008 0.0
C510 C 0.5963 0.21645 0.03281 0.0
C511 C 0.61494 0.20246 0.03813 0.0
O512 O 0.52643 0.86754 0.93003 0.0
O513 O 0.55029 0.93263 0.10479 0.0
O514 O 0.59922 0.17912 0.05126 0.0
O515 O 0.57157 0.09149 0.88001 0.0
H516 H 0.48998 0.85617 0.91205 0.0
H517 H 0.53428 0.89363 0.89385 0.0
H518 H 0.54934 0.86936 0.89359 0.0
H519 H 0.51595 0.8597 0.87952 0.0
H520 H 0.48424 0.88044 0.93779 0.0
H521 H 0.57622 0.90971 0.94309 0.0
H522 H 0.48688 0.94585 0.94215 0.0
H523 H 0.4637 0.90827 0.95021 0.0
H524 H 0.48519 0.93689 0.96863 0.0
H525 H 0.61071 0.95686 0.95551 0.0
H526 H 0.60098 0.98462 0.95003 0.0
H527 H 0.59595 0.96977 0.97518 0.0
H528 H 0.60055 0.0839 0.86279 0.0
H529 H 0.5923 0.1055 0.83552 0.0
H530 H 0.57117 0.1148 0.84849 0.0
H531 H 0.63117 0.16134 0.85481 0.0
H532 H 0.61338 0.08503 0.8991 0.0
H533 H 0.52368 0.0656 0.90094 0.0
H534 H 0.61634 0.06167 0.9493 0.0
H535 H 0.60904 0.03325 0.93108 0.0
H536 H 0.63464 0.07113 0.92494 0.0
H537 H 0.49103 0.03647 0.92686 0.0
H538 H 0.49784 0.00748 0.93481 0.0
H539 H 0.5085 0.03872 0.95109 0.0
H540 H 0.61909 0.19439 0.02346 0.0
H541 H 0.63732 0.1636 0.03813 0.0
H542 H 0.54904 0.13257 0.05797 0.0
H543 H 0.62895 0.10532 0.01236 0.0
H544 H 0.65475 0.13082 0.03073 0.0
H545 H 0.632 0.09231 0.03697 0.0
H546 H 0.51194 0.08266 0.05543 0.0
H547 H 0.51778 0.0608 0.0367 0.0
H548 H 0.52646 0.05939 0.06296 0.0
H549 H 0.51436 0.89757 0.09105 0.0
H550 H 0.52462 0.86017 0.10542 0.0
H551 H 0.55539 0.88788 0.0913 0.0
H552 H 0.55651 0.88863 0.11878 0.0
H553 H 0.59936 0.97437 0.09086 0.0
H554 H 0.5058 0.93746 0.08946 0.0
H555 H 0.61506 0.01387 0.04536 0.0
H556 H 0.61868 0.03929 0.065 0.0
H557 H 0.63129 0.0135 0.06959 0.0
H558 H 0.48295 0.95826 0.07009 0.0
H559 H 0.50581 0.99565 0.06137 0.0
H560 H 0.4988 0.9654 0.04498 0.0
H561 H 0.54625 0.98847 0.93073 0.0
H562 H 0.56724 0.07803 0.96502 0.0
H563 H 0.57366 0.09406 0.99988 0.0
H564 H 0.57207 0.0502 0.06458 0.0
H565 H 0.54792 0.95958 0.03021 0.0
H566 H 0.54082 0.94342 0.99539 0.0
H567 H 0.59057 0.22451 0.04677 0.0
H568 H 0.60841 0.2352 0.02222 0.0
H569 H 0.57557 0.19988 0.02521 0.0
C570 C 0.71097 0.53944 0.08724 0.0
C571 C 0.68987 0.50715 0.09279 0.0
C572 C 0.65574 0.51191 0.11477 0.0
C573 C 0.62618 0.48989 0.11355 0.0
C574 C 0.60374 0.49643 0.11737 0.0
C575 C 0.6113 0.52571 0.1223 0.0
C576 C 0.64133 0.54801 0.12342 0.0
C577 C 0.6632 0.54064 0.12005 0.0
C578 C 0.57204 0.47207 0.11636 0.0
C579 C 0.6504 0.57964 0.12819 0.0
C580 C 0.49591 0.58423 0.01047 0.0
C581 C 0.51621 0.58393 0.0262 0.0
C582 C 0.51541 0.56039 0.05842 0.0
C583 C 0.54452 0.58123 0.06394 0.0
C584 C 0.55732 0.57782 0.08176 0.0
C585 C 0.54091 0.55287 0.09417 0.0
C586 C 0.51164 0.53184 0.08867 0.0
C587 C 0.49919 0.53607 0.07094 0.0
C588 C 0.58847 0.60089 0.08728 0.0
C589 C 0.49362 0.50475 0.1014 0.0
C590 C 0.49427 0.62813 0.20731 0.0
C591 C 0.52446 0.64253 0.20362 0.0
C592 C 0.53844 0.62684 0.19788 0.0
C593 C 0.52175 0.59579 0.19611 0.0
C594 C 0.49101 0.58103 0.19929 0.0
C595 C 0.47747 0.59737 0.20463 0.0
C596 C 0.57117 0.64343 0.19413 0.0
C597 C 0.47261 0.54795 0.19742 0.0
C598 C 0.66226 0.52628 0.26574 0.0
C599 C 0.62942 0.51343 0.2698 0.0
C600 C 0.60798 0.54153 0.25626 0.0
C601 C 0.6193 0.57024 0.2492 0.0
C602 C 0.60553 0.57642 0.23317 0.0
C603 C 0.57929 0.5533 0.22452 0.0
C604 C 0.56664 0.52454 0.23265 0.0
C605 C 0.58128 0.5189 0.24838 0.0
C606 C 0.61936 0.60748 0.22521 0.0
C607 C 0.53806 0.49964 0.2244 0.0
C608 C 0.58806 0.53326 0.12648 0.0
C609 C 0.57389 0.53754 0.10989 0.0
C610 C 0.55467 0.54843 0.11261 0.0
C611 C 0.54976 0.5558 0.1324 0.0
C612 C 0.53233 0.56886 0.1356 0.0
C613 C 0.52814 0.57653 0.15514 0.0
C614 C 0.54077 0.57094 0.17224 0.0
C615 C 0.53691 0.57885 0.19214 0.0
C616 C 0.54917 0.57229 0.20885 0.0
C617 C 0.5661 0.55882 0.20623 0.0
C618 C 0.57114 0.55173 0.18639 0.0
C619 C 0.5892 0.5394 0.18313 0.0
C620 C 0.59448 0.53301 0.16356 0.0
C621 C 0.58189 0.53865 0.14647 0.0
C622 C 0.56307 0.55044 0.14941 0.0
C623 C 0.55813 0.5575 0.16937 0.0
C624 C 0.44561 0.62065 0.23937 0.0
C625 C 0.45365 0.63563 0.21845 0.0
O626 O 0.67718 0.50522 0.11163 0.0
O627 O 0.6233 0.53623 0.27064 0.0
O628 O 0.48267 0.6448 0.21376 0.0
O629 O 0.5023 0.56295 0.04123 0.0
H630 H 0.67219 0.49715 0.08097 0.0
H631 H 0.69856 0.55121 0.08498 0.0
H632 H 0.7276 0.55066 0.09953 0.0
H633 H 0.7225 0.54087 0.07276 0.0
H634 H 0.62077 0.46761 0.10973 0.0
H635 H 0.68622 0.55735 0.12137 0.0
H636 H 0.56075 0.47626 0.10357 0.0
H637 H 0.56991 0.45009 0.11405 0.0
H638 H 0.56057 0.47174 0.13063 0.0
H639 H 0.67416 0.59487 0.1253 0.0
H640 H 0.63736 0.58676 0.11891 0.0
H641 H 0.64603 0.58163 0.14449 0.0
H642 H 0.53625 0.58434 0.02017 0.0
H643 H 0.49942 0.62587 0.01455 0.0
H644 H 0.50231 0.57757 0.99589 0.0
H645 H 0.47446 0.56285 0.01201 0.0
H646 H 0.5574 0.60025 0.05446 0.0
H647 H 0.47678 0.52015 0.06661 0.0
H648 H 0.58964 0.60789 0.10342 0.0
H649 H 0.60305 0.59134 0.0857 0.0
H650 H 0.59703 0.62063 0.0774 0.0
H651 H 0.47208 0.48935 0.09418 0.0
H652 H 0.50596 0.49293 0.10391 0.0
H653 H 0.48953 0.51138 0.11657 0.0
H654 H 0.43888 0.61978 0.20663 0.0
H655 H 0.53718 0.66626 0.20552 0.0
H656 H 0.45396 0.58586 0.20698 0.0
H657 H 0.57611 0.6366 0.17932 0.0
H658 H 0.58039 0.66768 0.19405 0.0
H659 H 0.58244 0.63803 0.20625 0.0
H660 H 0.44894 0.53971 0.20039 0.0
H661 H 0.47488 0.54092 0.18188 0.0
H662 H 0.4807 0.53749 0.20839 0.0
H663 H 0.61734 0.49808 0.25694 0.0
H664 H 0.66772 0.50839 0.26489 0.0
H665 H 0.6681 0.53815 0.25098 0.0
H666 H 0.67569 0.54204 0.27801 0.0
H667 H 0.63965 0.58761 0.25575 0.0
H668 H 0.57197 0.49686 0.25449 0.0
H669 H 0.62163 0.60762 0.20839 0.0
H670 H 0.60487 0.61661 0.22882 0.0
H671 H 0.64138 0.62216 0.23208 0.0
H672 H 0.52898 0.47986 0.23429 0.0
H673 H 0.52148 0.50677 0.2229 0.0
H674 H 0.54175 0.49337 0.20899 0.0
H675 H 0.57852 0.5331 0.09459 0.0
H676 H 0.52203 0.57362 0.123 0.0
H677 H 0.51476 0.58679 0.15668 0.0
H678 H 0.546 0.57831 0.22408 0.0
H679 H 0.59971 0.53478 0.19566 0.0
H680 H 0.60861 0.5236 0.16198 0.0
H681 H 0.46074 0.63555 0.2514 0.0
H682 H 0.42268 0.61448 0.24336 0.0
H683 H 0.44701 0.60026 0.2393 0.0
In684 In 0.63015 0.42639 0.41439 0.0
O685 O 0.67936 0.46036 0.41633 0.0
O686 O 0.66591 0.42011 0.40043 0.0
C687 C 0.61097 0.43713 0.44969 0.0
C688 C 0.61961 0.4511 0.38183 0.0
C689 C 0.60417 0.36783 0.41942 0.0
O690 O 0.63707 0.44249 0.44749 0.0
O691 O 0.59515 0.42758 0.4339 0.0
O692 O 0.59217 0.37954 0.40935 0.0
O693 O 0.62922 0.38564 0.42669 0.0
C694 C 0.68686 0.44475 0.40609 0.0
O695 O 0.61303 0.42442 0.38207 0.0
O696 O 0.63056 0.46495 0.39824 0.0
In697 In 0.2293 0.62039 0.57993 0.0
O698 O 0.25995 0.60365 0.56945 0.0
O699 O 0.25656 0.60931 0.60121 0.0
C700 C 0.19687 0.60794 0.54536 0.0
C701 C 0.19214 0.59437 0.61133 0.0
C702 C 0.26772 0.67893 0.57784 0.0
O703 O 0.20953 0.59394 0.55064 0.0
O704 O 0.19971 0.62751 0.55787 0.0
O705 O 0.24346 0.66877 0.587 0.0
O706 O 0.27213 0.65971 0.56973 0.0
C707 C 0.26829 0.60219 0.58726 0.0
O708 O 0.20998 0.62176 0.61066 0.0
O709 O 0.19206 0.58028 0.59565 0.0
In710 In 0.63758 0.23007 0.74454 0.0
O711 O 0.68581 0.26182 0.7352 0.0
O712 O 0.67305 0.26159 0.76596 0.0
C713 C 0.61133 0.1905 0.71421 0.0
C714 C 0.6293 0.19293 0.77529 0.0
C715 C 0.61354 0.26421 0.73838 0.0
O716 O 0.63905 0.20445 0.71639 0.0
O717 O 0.59752 0.19638 0.72735 0.0
O718 O 0.60896 0.24928 0.75443 0.0
O719 O 0.63049 0.2622 0.72572 0.0
C720 C 0.69337 0.27232 0.75303 0.0
O721 O 0.61629 0.20771 0.77451 0.0
O722 O 0.64556 0.19626 0.7602 0.0
In723 In 0.41995 0.6214 0.90705 0.0
O724 O 0.37921 0.61652 0.92334 0.0
O725 O 0.37312 0.58396 0.90152 0.0
C726 C 0.45102 0.61576 0.93798 0.0
C727 C 0.42732 0.59792 0.87243 0.0
C728 C 0.439 0.67952 0.90283 0.0
O729 O 0.42459 0.60942 0.94 0.0
O730 O 0.4612 0.62404 0.92036 0.0
O731 O 0.45401 0.66999 0.91146 0.0
O732 O 0.41454 0.65975 0.8959 0.0
C733 C 0.36132 0.59339 0.9138 0.0
O734 O 0.43162 0.62384 0.87326 0.0
O735 O 0.41996 0.58428 0.88912 0.0
In736 In 0.81404 0.39819 0.07205 0.0
O737 O 0.83041 0.38438 0.10001 0.0
O738 O 0.84767 0.43008 0.09493 0.0
C739 C 0.77144 0.34205 0.06376 0.0
C740 C 0.78168 0.42521 0.07291 0.0
C741 C 0.85681 0.41754 0.04372 0.0
O742 O 0.77315 0.35432 0.08067 0.0
O743 O 0.7916 0.35771 0.05147 0.0
O744 O 0.84157 0.42967 0.0467 0.0
O745 O 0.85053 0.39582 0.05507 0.0
C746 C 0.84771 0.41046 0.10597 0.0
O747 O 0.78884 0.41786 0.05653 0.0
O748 O 0.7911 0.41925 0.08884 0.0
In749 In 0.42783 0.82104 0.24573 0.0
O750 O 0.45722 0.80126 0.25214 0.0
O751 O 0.42636 0.78336 0.22772 0.0
C752 C 0.43736 0.85251 0.28031 0.0
C753 C 0.45449 0.85834 0.21444 0.0
C754 C 0.37057 0.78172 0.25184 0.0
O755 O 0.44958 0.8375 0.27672 0.0
O756 O 0.42115 0.85259 0.26607 0.0
O757 O 0.37851 0.80308 0.23969 0.0
O758 O 0.39135 0.78088 0.26086 0.0
C759 C 0.44601 0.78221 0.23808 0.0
O760 O 0.42741 0.83938 0.21418 0.0
O761 O 0.46761 0.85932 0.2308 0.0
H762 H 0.24919 0.66684 0.26713 0.0
H763 H 0.21716 0.71439 0.232 0.0
H764 H 0.2672 0.75674 0.22993 0.0
H765 H 0.32061 0.77923 0.2369 0.0
H766 H 0.35133 0.73114 0.27293 0.0
H767 H 0.30127 0.69019 0.27596 0.0
C768 C 0.2531 0.68656 0.25916 0.0
C769 C 0.22958 0.6874 0.24959 0.0
C770 C 0.28173 0.71072 0.25815 0.0
C771 C 0.23499 0.71319 0.23939 0.0
C772 C 0.26357 0.73736 0.23819 0.0
C773 C 0.31624 0.75985 0.24551 0.0
C774 C 0.33968 0.75818 0.25455 0.0
C775 C 0.28721 0.73623 0.2473 0.0
C776 C 0.33371 0.73301 0.26578 0.0
C777 C 0.30508 0.7095 0.26751 0.0
H778 H 0.5222 0.23421 0.44075 0.0
H779 H 0.6054 0.24302 0.45853 0.0
H780 H 0.6311 0.29412 0.44673 0.0
H781 H 0.62933 0.33702 0.43336 0.0
H782 H 0.54607 0.32739 0.41472 0.0
H783 H 0.52089 0.27559 0.42469 0.0
C784 C 0.54599 0.24722 0.44186 0.0
C785 C 0.56186 0.23504 0.45078 0.0
C786 C 0.56052 0.27636 0.43496 0.0
C787 C 0.59271 0.25207 0.45194 0.0
C788 C 0.60737 0.28123 0.4452 0.0
C789 C 0.6057 0.32348 0.43134 0.0
C790 C 0.58949 0.33598 0.42351 0.0
C791 C 0.59142 0.29374 0.43703 0.0
C792 C 0.55897 0.31821 0.42074 0.0
C793 C 0.54457 0.28866 0.42649 0.0
H794 H 0.38376 0.59455 0.59452 0.0
H795 H 0.35565 0.57723 0.65715 0.0
H796 H 0.31074 0.57791 0.64839 0.0
H797 H 0.28131 0.58692 0.62347 0.0
H798 H 0.3086 0.60317 0.56067 0.0
H799 H 0.35175 0.5988 0.56886 0.0
C800 C 0.36752 0.5903 0.60616 0.0
C801 C 0.37286 0.58549 0.62645 0.0
C802 C 0.3417 0.59064 0.601 0.0
C803 C 0.35183 0.58062 0.64141 0.0
C804 C 0.32624 0.58112 0.63643 0.0
C805 C 0.29654 0.58915 0.61154 0.0
C806 C 0.29198 0.5956 0.59155 0.0
C807 C 0.3212 0.5866 0.61636 0.0
C808 C 0.31167 0.59818 0.57618 0.0
C809 C 0.33641 0.59584 0.58088 0.0
H810 H 0.80572 0.37479 0.79506 0.0
H811 H 0.82267 0.40816 0.73372 0.0
H812 H 0.78011 0.36246 0.7213 0.0
H813 H 0.73519 0.31476 0.72861 0.0
H814 H 0.71771 0.28357 0.79058 0.0
H815 H 0.76345 0.32628 0.80197 0.0
C816 C 0.80042 0.37178 0.77891 0.0
C817 C 0.81747 0.3946 0.76531 0.0
C818 C 0.77566 0.34585 0.77202 0.0
C819 C 0.81007 0.39069 0.74445 0.0
C820 C 0.78566 0.36465 0.73738 0.0
C821 C 0.74177 0.31715 0.74451 0.0
C822 C 0.72308 0.29619 0.75876 0.0
C823 C 0.76789 0.34229 0.7511 0.0
C824 C 0.73165 0.29957 0.77936 0.0
C825 C 0.75778 0.324 0.7859 0.0
H826 H 0.45904 0.80841 0.89799 0.0
H827 H 0.54244 0.82872 0.92445 0.0
H828 H 0.52807 0.77661 0.92324 0.0
H829 H 0.49133 0.72519 0.91543 0.0
H830 H 0.40816 0.70486 0.88842 0.0
H831 H 0.42294 0.75709 0.88898 0.0
C832 C 0.47394 0.80133 0.9036 0.0
C833 C 0.50137 0.82222 0.91185 0.0
C834 C 0.46563 0.77141 0.90269 0.0
C835 C 0.52088 0.81293 0.91854 0.0
C836 C 0.51274 0.78319 0.91775 0.0
C837 C 0.47649 0.73222 0.90958 0.0
C838 C 0.44867 0.71122 0.90196 0.0
C839 C 0.48509 0.76222 0.91 0.0
C840 C 0.42972 0.72063 0.89435 0.0
C841 C 0.43812 0.75046 0.89472 0.0
H842 H 0.70093 0.48142 0.0607 0.0
H843 H 0.71792 0.49753 0.12518 0.0
H844 H 0.74706 0.47305 0.12471 0.0
H845 H 0.76859 0.44792 0.10584 0.0
H846 H 0.7537 0.43405 0.04101 0.0
H847 H 0.72301 0.45687 0.04172 0.0
C848 C 0.71074 0.4792 0.07467 0.0
C849 C 0.70653 0.49049 0.09302 0.0
C850 C 0.72805 0.46574 0.0742 0.0
C851 C 0.72012 0.48833 0.11094 0.0
C852 C 0.73697 0.47451 0.11066 0.0
C853 C 0.75858 0.44986 0.09188 0.0
C854 C 0.76337 0.43929 0.0734 0.0
C855 C 0.74118 0.46324 0.09237 0.0
C856 C 0.75039 0.44207 0.05542 0.0
C857 C 0.73279 0.45507 0.05582 0.0
H858 H 0.35119 0.81723 0.58237 0.0
H859 H 0.41142 0.79319 0.55599 0.0
H860 H 0.37296 0.74147 0.55552 0.0
H861 H 0.3229 0.70303 0.5633 0.0
H862 H 0.26244 0.72583 0.59082 0.0
H863 H 0.30027 0.77814 0.59012 0.0
C864 C 0.35573 0.80062 0.57641 0.0
C865 C 0.38402 0.80906 0.56903 0.0
C866 C 0.33357 0.77078 0.57644 0.0
C867 C 0.38977 0.78731 0.56156 0.0
C868 C 0.36783 0.75773 0.56133 0.0
C869 C 0.3179 0.71943 0.56907 0.0
C870 C 0.28993 0.71062 0.57708 0.0
C871 C 0.33975 0.74923 0.56882 0.0
C872 C 0.28386 0.73211 0.5846 0.0
C873 C 0.30547 0.76198 0.5842 0.0
H874 H 0.54977 0.33026 0.70518 0.0
H875 H 0.53545 0.33518 0.76943 0.0
H876 H 0.56251 0.30963 0.77725 0.0
H877 H 0.58902 0.2846 0.76564 0.0
H878 H 0.60553 0.28242 0.70148 0.0
H879 H 0.57917 0.30861 0.69381 0.0
C880 C 0.553 0.32627 0.72093 0.0
C881 C 0.54097 0.33503 0.73676 0.0
C882 C 0.56889 0.31198 0.7253 0.0
C883 C 0.54487 0.32901 0.75703 0.0
C884 C 0.56022 0.31432 0.76149 0.0
C885 C 0.58692 0.29001 0.75001 0.0
C886 C 0.59901 0.28149 0.73414 0.0
C887 C 0.57214 0.3055 0.74573 0.0
C888 C 0.59643 0.28882 0.71396 0.0
C889 C 0.5813 0.30372 0.70955 0.0
H890 H 0.22789 0.55663 0.92471 0.0
H891 H 0.21707 0.49013 0.88112 0.0
H892 H 0.27008 0.50913 0.88144 0.0
H893 H 0.31963 0.54534 0.89348 0.0
H894 H 0.33061 0.61141 0.93755 0.0
H895 H 0.27741 0.59166 0.93789 0.0
C896 C 0.23725 0.54649 0.91518 0.0
C897 C 0.2187 0.52265 0.90243 0.0
C898 C 0.2677 0.55727 0.91566 0.0
C899 C 0.23093 0.50906 0.89063 0.0
C900 C 0.26122 0.51978 0.89091 0.0
C901 C 0.31036 0.55529 0.90328 0.0
C902 C 0.32903 0.57985 0.91544 0.0
C903 C 0.27983 0.54398 0.90327 0.0
C904 C 0.3167 0.59247 0.92806 0.0
C905 C 0.2863 0.58127 0.9282 0.0
H906 H 0.66897 0.23038 0.02052 0.0
H907 H 0.62514 0.22598 0.07691 0.0
H908 H 0.67065 0.26726 0.09068 0.0
H909 H 0.72168 0.30735 0.0854 0.0
H910 H 0.76475 0.31194 0.0285 0.0
H911 H 0.72094 0.26764 0.01633 0.0
C912 C 0.66956 0.23816 0.03595 0.0
C913 C 0.64383 0.22514 0.04771 0.0
C914 C 0.69562 0.26204 0.04362 0.0
C915 C 0.64478 0.23557 0.06763 0.0
C916 C 0.67073 0.25923 0.07546 0.0
C917 C 0.7216 0.29836 0.07047 0.0
C918 C 0.74634 0.31304 0.05782 0.0
C919 C 0.69613 0.27304 0.06342 0.0
C920 C 0.74594 0.30115 0.03851 0.0
C921 C 0.72086 0.27585 0.0315 0.0
H922 H 0.4868 0.6878 0.23869 0.0
H923 H 0.41128 0.64278 0.19896 0.0
H924 H 0.40358 0.68503 0.20046 0.0
H925 H 0.41704 0.73372 0.21422 0.0
H926 H 0.49109 0.77788 0.25532 0.0
H927 H 0.50081 0.73704 0.25205 0.0
C928 C 0.46876 0.68737 0.23029 0.0
C929 C 0.44969 0.66228 0.21867 0.0
C930 C 0.46422 0.71151 0.23149 0.0
C931 C 0.42631 0.66188 0.20793 0.0
C932 C 0.42189 0.68599 0.20881 0.0
C933 C 0.43549 0.73454 0.22231 0.0
C934 C 0.45336 0.75876 0.23498 0.0
C935 C 0.44055 0.71078 0.22067 0.0
C936 C 0.47703 0.75944 0.24549 0.0
C937 C 0.48255 0.7361 0.24365 0.0
H938 H 0.81674 0.50721 0.37353 0.0
H939 H 0.79342 0.41673 0.36328 0.0
H940 H 0.7454 0.39991 0.37867 0.0
H941 H 0.70904 0.41098 0.3932 0.0
H942 H 0.73292 0.50122 0.40512 0.0
H943 H 0.78197 0.51814 0.39113 0.0
C944 C 0.8011 0.48382 0.37465 0.0
C945 C 0.80813 0.46331 0.36643 0.0
C946 C 0.77375 0.4743 0.38386 0.0
C947 C 0.78813 0.43302 0.36871 0.0
C948 C 0.76074 0.42338 0.37764 0.0
C949 C 0.72509 0.43435 0.39287 0.0
C950 C 0.7174 0.45489 0.39995 0.0
C951 C 0.75314 0.44383 0.38491 0.0
C952 C 0.73842 0.48504 0.39973 0.0
C953 C 0.76637 0.4947 0.39166 0.0
H954 H 0.15584 0.58766 0.45355 0.0
H955 H 0.13295 0.65355 0.46918 0.0
H956 H 0.14732 0.65314 0.50466 0.0
H957 H 0.16953 0.63644 0.53061 0.0
H958 H 0.19266 0.57071 0.51478 0.0
H959 H 0.17465 0.56834 0.48007 0.0
C960 C 0.15367 0.60165 0.46479 0.0
C961 C 0.14337 0.62061 0.45878 0.0
C962 C 0.16206 0.60137 0.48509 0.0
C963 C 0.14078 0.63874 0.47349 0.0
C964 C 0.14904 0.63854 0.49373 0.0
C965 C 0.17029 0.62133 0.51963 0.0
C966 C 0.18258 0.60391 0.52522 0.0
C967 C 0.16015 0.62029 0.49963 0.0
C968 C 0.18335 0.58439 0.51085 0.0
C969 C 0.17315 0.5831 0.49097 0.0
H970 H 0.55689 0.08332 0.6408 0.0
H971 H 0.4693 0.10065 0.65038 0.0
H972 H 0.50368 0.14464 0.68087 0.0
H973 H 0.55773 0.17508 0.70005 0.0
H974 H 0.63083 0.15964 0.69283 0.0
H975 H 0.60612 0.12084 0.66732 0.0
C976 C 0.54648 0.09366 0.64887 0.0
C977 C 0.51135 0.0909 0.63977 0.0
C978 C 0.56639 0.12268 0.66722 0.0
C979 C 0.49076 0.10453 0.65501 0.0
C980 C 0.51289 0.13295 0.67306 0.0
C981 C 0.56709 0.16325 0.69256 0.0
C982 C 0.59559 0.16893 0.69767 0.0
C983 C 0.55014 0.14212 0.6783 0.0
C984 C 0.6088 0.15405 0.68821 0.0
C985 C 0.59477 0.13151 0.67355 0.0
H986 H 0.43699 0.5571 0.77537 0.0
H987 H 0.38566 0.45597 0.81071 0.0
H988 H 0.38799 0.48592 0.84838 0.0
H989 H 0.40814 0.54025 0.86695 0.0
H990 H 0.44832 0.6247 0.83648 0.0
H991 H 0.44852 0.60468 0.80309 0.0
C992 C 0.42683 0.54376 0.78868 0.0
C993 C 0.41587 0.50398 0.78978 0.0
C994 C 0.42852 0.56011 0.81314 0.0
C995 C 0.39396 0.47946 0.81106 0.0
C996 C 0.397 0.49843 0.83459 0.0
C997 C 0.41683 0.55293 0.85315 0.0
C998 C 0.42844 0.58372 0.85319 0.0
C999 C 0.41491 0.53798 0.83537 0.0
C1000 C 0.43959 0.60114 0.83536 0.0
C1001 C 0.43983 0.58994 0.81595 0.0
H1002 H 0.96066 0.44668 0.98297 0.0
H1003 H 0.93801 0.51062 0.96196 0.0
H1004 H 0.89877 0.49356 0.98729 0.0
H1005 H 0.87143 0.46087 0.01578 0.0
H1006 H 0.89432 0.39692 0.03662 0.0
H1007 H 0.9329 0.41353 0.01098 0.0
C1008 C 0.9469 0.45664 0.98381 0.0
C1009 C 0.95188 0.47953 0.97042 0.0
C1010 C 0.92455 0.44682 0.99844 0.0
C1011 C 0.93426 0.49264 0.97191 0.0
C1012 C 0.91195 0.48299 0.98644 0.0
C1013 C 0.88487 0.45058 0.01469 0.0
C1014 C 0.88006 0.42775 0.0281 0.0
C1015 C 0.90697 0.46016 0.99984 0.0
C1016 C 0.89758 0.41456 0.02648 0.0
C1017 C 0.91965 0.42403 0.01182 0.0
H1018 H 0.54534 0.92263 0.14436 0.0
H1019 H 0.4682 0.86922 0.10764 0.0
H1020 H 0.43768 0.85338 0.1382 0.0
H1021 H 0.43392 0.85068 0.17554 0.0
H1022 H 0.51157 0.9025 0.21231 0.0
H1023 H 0.54076 0.92349 0.18161 0.0
C1024 C 0.52175 0.90803 0.14307 0.0
C1025 C 0.50898 0.89726 0.12379 0.0
C1026 C 0.50446 0.89863 0.16072 0.0
C1027 C 0.47846 0.87797 0.12231 0.0
C1028 C 0.46104 0.86883 0.13978 0.0
C1029 C 0.4571 0.86702 0.17683 0.0
C1030 C 0.4706 0.87487 0.19615 0.0
C1031 C 0.47392 0.87846 0.1591 0.0
C1032 C 0.50068 0.89599 0.1976 0.0
C1033 C 0.51743 0.90791 0.18005 0.0
H1034 H 0.63598 0.53509 0.30872 0.0
H1035 H 0.60568 0.45414 0.27502 0.0
H1036 H 0.5973 0.42703 0.30686 0.0
H1037 H 0.60227 0.42712 0.34408 0.0
H1038 H 0.63363 0.50836 0.37773 0.0
H1039 H 0.63733 0.53449 0.34615 0.0
C1040 C 0.62699 0.51143 0.3084 0.0
C1041 C 0.62109 0.49654 0.28958 0.0
C1042 C 0.62251 0.49608 0.32674 0.0
C1043 C 0.61003 0.46597 0.28935 0.0
C1044 C 0.60534 0.45051 0.30752 0.0
C1045 C 0.60949 0.45045 0.34452 0.0
C1046 C 0.61785 0.46582 0.36318 0.0
C1047 C 0.61199 0.46542 0.32629 0.0
C1048 C 0.62717 0.49604 0.36354 0.0
C1049 C 0.62939 0.51103 0.34549 0.0
H1050 H 0.4428 0.88457 0.3732 0.0
H1051 H 0.3827 0.91265 0.35276 0.0
H1052 H 0.38951 0.90248 0.31738 0.0
H1053 H 0.40924 0.88145 0.29271 0.0
H1054 H 0.46884 0.85274 0.31343 0.0
H1055 H 0.46595 0.86776 0.34819 0.0
C1056 C 0.43156 0.88886 0.36095 0.0
C1057 C 0.41224 0.89927 0.36554 0.0
C1058 C 0.43542 0.88276 0.34072 0.0
C1059 C 0.39771 0.90467 0.34955 0.0
C1060 C 0.40154 0.89878 0.32935 0.0
C1061 C 0.42195 0.87892 0.30478 0.0
C1062 C 0.43903 0.86577 0.30053 0.0
C1063 C 0.41987 0.88724 0.32481 0.0
C1064 C 0.45543 0.86269 0.31632 0.0
C1065 C 0.4537 0.87117 0.33622 0.0
H1066 H 0.57441 0.43204 0.54145 0.0
H1067 H 0.48861 0.39441 0.5134 0.0
H1068 H 0.51091 0.40456 0.4796 0.0
H1069 H 0.5543 0.42022 0.45818 0.0
H1070 H 0.64005 0.45583 0.48612 0.0
H1071 H 0.61836 0.45086 0.51983 0.0
C1072 C 0.56071 0.42658 0.52791 0.0
C1073 C 0.52998 0.41287 0.52989 0.0
C1074 C 0.57365 0.432 0.50855 0.0
C1075 C 0.51235 0.40538 0.51224 0.0
C1076 C 0.52507 0.41104 0.49294 0.0
C1077 C 0.56832 0.42734 0.47162 0.0
C1078 C 0.59871 0.43824 0.46968 0.0
C1079 C 0.55564 0.42383 0.49093 0.0
C1080 C 0.61658 0.44731 0.48723 0.0
C1081 C 0.60418 0.44436 0.5065 0.0
H1082 H 0.15439 0.54979 0.70079 0.0
H1083 H 0.11606 0.46556 0.67025 0.0
H1084 H 0.1289 0.49009 0.63713 0.0
H1085 H 0.15566 0.53566 0.61722 0.0
H1086 H 0.19403 0.61985 0.64797 0.0
H1087 H 0.17601 0.59519 0.68059 0.0
C1088 C 0.14848 0.53683 0.68686 0.0
C1089 C 0.1347 0.50596 0.68794 0.0
C1090 C 0.156 0.55108 0.66792 0.0
C1091 C 0.12693 0.48938 0.66977 0.0
C1092 C 0.13429 0.50339 0.65086 0.0
C1093 C 0.15959 0.5486 0.63101 0.0
C1094 C 0.17644 0.57953 0.63019 0.0
C1095 C 0.14951 0.53426 0.64978 0.0
C1096 C 0.18124 0.59601 0.64818 0.0
C1097 C 0.17107 0.58192 0.66687 0.0
H1098 H 0.65567 0.12077 0.8507 0.0
H1099 H 0.58961 0.15141 0.88899 0.0
H1100 H 0.58421 0.17738 0.85137 0.0
H1101 H 0.59944 0.18662 0.81024 0.0
H1102 H 0.65742 0.16249 0.77956 0.0
H1103 H 0.66461 0.13916 0.80901 0.0
C1104 C 0.64363 0.13252 0.85118 0.0
C1105 C 0.6191 0.12866 0.87278 0.0
C1106 C 0.63751 0.14789 0.82858 0.0
C1107 C 0.60148 0.1518 0.87545 0.0
C1108 C 0.59704 0.16647 0.85177 0.0
C1109 C 0.61236 0.17577 0.81068 0.0
C1110 C 0.62844 0.17579 0.79344 0.0
C1111 C 0.61416 0.16345 0.82885 0.0
C1112 C 0.6459 0.16203 0.79334 0.0
C1113 C 0.65044 0.14856 0.81024 0.0
H1114 H 0.56022 0.63839 0.0042 0.0
H1115 H 0.47144 0.59245 0.05269 0.0
H1116 H 0.43427 0.58737 0.01826 0.0
H1117 H 0.43292 0.59586 0.97631 0.0
H1118 H 0.50904 0.63644 0.93679 0.0
H1119 H 0.54407 0.64353 0.96332 0.0
C1120 C 0.53718 0.63041 0.00713 0.0
C1121 C 0.51923 0.61129 0.03122 0.0
C1122 C 0.51195 0.62481 0.98678 0.0
C1123 C 0.48071 0.60096 0.03787 0.0
C1124 C 0.45768 0.59655 0.0162 0.0
C1125 C 0.4564 0.6053 0.97435 0.0
C1126 C 0.46954 0.61605 0.95517 0.0
C1127 C 0.47337 0.60753 0.99119 0.0
C1128 C 0.50031 0.62878 0.95189 0.0
C1129 C 0.52095 0.63321 0.96705 0.0
H1130 H 0.92781 0.41549 0.18933 0.0
H1131 H 0.97018 0.52649 0.17683 0.0
H1132 H 0.93092 0.51106 0.14203 0.0
H1133 H 0.88552 0.46492 0.12038 0.0
H1134 H 0.85242 0.37185 0.13032 0.0
H1135 H 0.88424 0.3794 0.15934 0.0
C1136 C 0.92961 0.43327 0.17999 0.0
C1137 C 0.94934 0.47232 0.18895 0.0
C1138 C 0.90528 0.42632 0.15874 0.0
C1139 C 0.95637 0.50378 0.17211 0.0
C1140 C 0.93089 0.49393 0.15117 0.0
C1141 C 0.88586 0.44768 0.1292 0.0
C1142 C 0.86726 0.41769 0.12402 0.0
C1143 C 0.9054 0.45585 0.14534 0.0
C1144 C 0.86723 0.39439 0.13506 0.0
C1145 C 0.88552 0.39834 0.15183 0.0
loop_
_geom_bond_atom_site_label_1
_geom_bond_atom_site_label_2
_geom_bond_distance
_geom_bond_site_symmetry_2
_ccdc_geom_bond_type
C0 C1 1.560 . S
C0 H61 0.959 . S
C0 H62 0.959 . S
C0 H63 0.960 . S
C1 C0 1.560 . S
C1 O56 1.426 . S
C1 H60 0.980 . S
C2 C3 1.407 . S
C2 C7 1.418 . S
C2 O56 1.334 . S
C3 C2 1.407 . S
C3 C4 1.360 . S
C3 H64 0.929 . S
C4 C3 1.360 . S
C4 C5 1.401 . S
C4 C8 1.527 . S
C5 C4 1.401 . S
C5 C6 1.405 . S
C5 C38 1.587 . S
C6 C5 1.405 . S
C6 C7 1.332 . S
C6 C9 1.496 . S
C7 C2 1.418 . S
C7 C6 1.332 . S
C7 H65 0.929 . S
C8 C4 1.527 . S
C8 H66 0.959 . S
C8 H67 0.961 . S
C8 H68 0.961 . S
C9 C6 1.496 . S
C9 H69 0.960 . S
C9 H70 0.960 . S
C9 H71 0.961 . S
C10 C11 1.517 . S
C10 H73 0.961 . S
C10 H74 0.960 . S
C10 H75 0.959 . S
C11 C10 1.517 . S
C11 O59 1.468 . S
C11 H72 0.980 . S
C12 C13 1.349 . S
C12 C17 1.367 . S
C12 O59 1.408 . S
C13 C12 1.349 . S
C13 C14 1.419 . S
C13 H76 0.930 . S
C14 C13 1.419 . S
C14 C15 1.435 1_655 S
C14 C18 1.541 1_655 S
C15 C14 1.435 1_455 S
C15 C16 1.384 1_455 S
C15 C40 1.553 . S
C16 C15 1.384 1_655 S
C16 C17 1.364 . S
C16 C19 1.450 1_655 S
C17 C12 1.367 . S
C17 C16 1.364 . S
C17 H77 0.931 . S
C18 C14 1.541 1_455 S
C18 H78 0.959 . S
C18 H79 0.961 . S
C18 H80 0.959 1_455 S
C19 C16 1.450 1_455 S
C19 H81 0.960 . S
C19 H82 0.960 . S
C19 H83 0.960 1_455 S
C20 C21 1.309 . S
C20 C25 1.304 . S
C20 O58 1.435 . S
C21 C20 1.309 . S
C21 C22 1.476 . S
C21 H85 0.930 . S
C22 C21 1.476 . S
C22 C23 1.400 . S
C22 C26 1.567 . S
C23 C22 1.400 . S
C23 C24 1.373 . S
C23 C45 1.432 . S
C24 C23 1.373 . S
C24 C25 1.339 . S
C24 C27 1.530 . S
C25 C20 1.304 . S
C25 C24 1.339 . S
C25 H86 0.930 . S
C26 C22 1.567 . S
C26 H87 0.961 . S
C26 H88 0.960 . S
C26 H89 0.958 . S
C27 C24 1.530 . S
C27 H90 0.961 . S
C27 H91 0.960 . S
C27 H92 0.960 . S
C28 C29 1.530 . S
C28 H94 0.961 . S
C28 H95 0.961 . S
C28 H96 0.959 . S
C29 C28 1.530 . S
C29 O57 1.412 . S
C29 H93 0.980 . S
C30 C31 1.288 . S
C30 C35 1.377 . S
C30 O57 1.393 . S
C31 C30 1.288 . S
C31 C32 1.369 . S
C31 H97 0.932 . S
C32 C31 1.369 . S
C32 C33 1.398 . S
C32 C36 1.527 . S
C33 C32 1.398 . S
C33 C34 1.380 . S
C33 C47 1.497 . S
C34 C33 1.380 . S
C34 C35 1.383 . S
C34 C37 1.603 . S
C35 C30 1.377 . S
C35 C34 1.383 . S
C35 H98 0.929 . S
C36 C32 1.527 . S
C36 H99 0.961 . S
C36 H100 0.959 . S
C36 H101 0.959 . S
C37 C34 1.603 . S
C37 H102 0.960 . S
C37 H103 0.962 . S
C37 H104 0.961 . S
C38 C5 1.587 . S
C38 C39 1.360 . S
C38 C51 1.412 . S
C39 C38 1.360 . S
C39 C40 1.365 . S
C39 H105 0.929 . S
C40 C15 1.553 . S
C40 C39 1.365 . S
C40 C41 1.404 . S
C41 C40 1.404 . S
C41 C42 1.395 1_455 S
C41 C52 1.451 . S
C42 C41 1.395 1_655 S
C42 C43 1.322 . S
C42 H106 0.930 . S
C43 C42 1.322 . S
C43 C44 1.459 . S
C43 H107 0.929 . S
C44 C43 1.459 . S
C44 C45 1.445 . S
C44 C53 1.395 1_655 S
C45 C23 1.432 . S
C45 C44 1.445 . S
C45 C46 1.370 . S
C46 C45 1.370 . S
C46 C47 1.438 1_655 S
C46 H108 0.930 . S
C47 C33 1.497 . S
C47 C46 1.438 1_455 S
C47 C48 1.360 . S
C48 C47 1.360 . S
C48 C49 1.401 . S
C48 C53 1.446 . S
C49 C48 1.401 . S
C49 C50 1.347 . S
C49 H109 0.929 . S
C50 C49 1.347 . S
C50 C51 1.455 . S
C50 H110 0.930 . S
C51 C38 1.412 . S
C51 C50 1.455 . S
C51 C52 1.331 . S
C52 C41 1.451 . S
C52 C51 1.331 . S
C52 C53 1.497 . S
C53 C44 1.395 1_455 S
C53 C48 1.446 . S
C53 C52 1.497 . S
C54 C55 1.582 . S
C54 H111 0.962 . S
C54 H112 0.959 . S
C54 H113 0.958 . S
C55 C54 1.582 . S
C55 O58 1.458 . S
C55 H84 0.980 . S
O56 C1 1.426 . S
O56 C2 1.334 . S
O57 C29 1.412 . S
O57 C30 1.393 . S
O58 C20 1.435 . S
O58 C55 1.458 . S
O59 C11 1.468 . S
O59 C12 1.408 . S
H60 C1 0.980 . S
H61 C0 0.959 . S
H62 C0 0.959 . S
H63 C0 0.960 . S
H64 C3 0.929 . S
H65 C7 0.929 . S
H66 C8 0.959 . S
H67 C8 0.961 . S
H68 C8 0.961 . S
H69 C9 0.960 . S
H70 C9 0.960 . S
H71 C9 0.961 . S
H72 C11 0.980 . S
H73 C10 0.961 . S
H74 C10 0.960 . S
H75 C10 0.959 . S
H76 C13 0.930 . S
H77 C17 0.931 . S
H78 C18 0.959 . S
H79 C18 0.961 . S
H80 C18 0.959 1_655 S
H81 C19 0.960 . S
H82 C19 0.960 . S
H83 C19 0.960 1_655 S
H84 C55 0.980 . S
H85 C21 0.930 . S
H86 C25 0.930 . S
H87 C26 0.961 . S
H88 C26 0.960 . S
H89 C26 0.958 . S
H90 C27 0.961 . S
H91 C27 0.960 . S
H92 C27 0.960 . S
H93 C29 0.980 . S
H94 C28 0.961 . S
H95 C28 0.961 . S
H96 C28 0.959 . S
H97 C31 0.932 . S
H98 C35 0.929 . S
H99 C36 0.961 . S
H100 C36 0.959 . S
H101 C36 0.959 . S
H102 C37 0.960 . S
H103 C37 0.962 . S
H104 C37 0.961 . S
H105 C39 0.929 . S
H106 C42 0.930 . S
H107 C43 0.929 . S
H108 C46 0.930 . S
H109 C49 0.929 . S
H110 C50 0.930 . S
H111 C54 0.962 . S
H112 C54 0.959 . S
H113 C54 0.958 . S
C114 C115 1.560 . S
C114 H175 0.959 . S
C114 H176 0.959 . S
C114 H177 0.960 . S
C115 C114 1.560 . S
C115 O170 1.426 . S
C115 H174 0.980 . S
C116 C117 1.407 . S
C116 C121 1.418 . S
C116 O170 1.334 . S
C117 C116 1.407 . S
C117 C118 1.360 . S
C117 H178 0.929 . S
C118 C117 1.360 . S
C118 C119 1.401 . S
C118 C122 1.527 . S
C119 C118 1.401 . S
C119 C120 1.405 . S
C119 C152 1.587 . S
C120 C119 1.405 . S
C120 C121 1.332 . S
C120 C123 1.496 . S
C121 C116 1.418 . S
C121 C120 1.332 . S
C121 H179 0.929 . S
C122 C118 1.527 . S
C122 H180 0.959 . S
C122 H181 0.961 . S
C122 H182 0.961 . S
C123 C120 1.496 . S
C123 H183 0.960 . S
C123 H184 0.960 . S
C123 H185 0.961 . S
C124 C125 1.517 . S
C124 H187 0.961 . S
C124 H188 0.960 . S
C124 H189 0.959 . S
C125 C124 1.517 . S
C125 O173 1.468 . S
C125 H186 0.980 . S
C126 C127 1.349 . S
C126 C131 1.367 . S
C126 O173 1.408 . S
C127 C126 1.349 . S
C127 C128 1.407 . S
C127 H190 0.930 . S
C128 C127 1.407 . S
C128 C129 1.449 . S
C128 C132 1.535 . S
C129 C128 1.449 . S
C129 C130 1.384 . S
C129 C154 1.553 . S
C130 C129 1.384 . S
C130 C131 1.364 . S
C130 C133 1.450 . S
C131 C126 1.367 . S
C131 C130 1.364 . S
C131 H191 0.931 . S
C132 C128 1.535 . S
C132 H192 0.959 . S
C132 H193 0.961 . S
C132 H194 0.959 . S
C133 C130 1.450 . S
C133 H195 0.960 . S
C133 H196 0.960 . S
C133 H197 0.960 . S
C134 C135 1.309 . S
C134 C139 1.304 . S
C134 O172 1.435 . S
C135 C134 1.309 . S
C135 C136 1.476 . S
C135 H199 0.930 . S
C136 C135 1.476 . S
C136 C137 1.400 . S
C136 C140 1.567 . S
C137 C136 1.400 . S
C137 C138 1.373 . S
C137 C159 1.432 . S
C138 C137 1.373 . S
C138 C139 1.339 . S
C138 C141 1.530 . S
C139 C134 1.304 . S
C139 C138 1.339 . S
C139 H200 0.930 . S
C140 C136 1.567 . S
C140 H201 0.961 . S
C140 H202 0.960 . S
C140 H203 0.958 . S
C141 C138 1.530 . S
C141 H204 0.961 . S
C141 H205 0.960 . S
C141 H206 0.960 . S
C142 C143 1.530 . S
C142 H208 0.961 . S
C142 H209 0.961 . S
C142 H210 0.959 . S
C143 C142 1.530 . S
C143 O171 1.412 . S
C143 H207 0.980 . S
C144 C145 1.288 . S
C144 C149 1.377 . S
C144 O171 1.393 . S
C145 C144 1.288 . S
C145 C146 1.369 . S
C145 H211 0.932 . S
C146 C145 1.369 . S
C146 C147 1.385 . S
C146 C150 1.527 1_565 S
C147 C146 1.385 . S
C147 C148 1.405 . S
C147 C161 1.487 1_565 S
C148 C147 1.405 . S
C148 C149 1.383 . S
C148 C151 1.603 . S
C149 C144 1.377 . S
C149 C148 1.383 . S
C149 H212 0.929 . S
C150 C146 1.527 1_545 S
C150 H213 0.961 . S
C150 H214 0.959 . S
C150 H215 0.959 . S
C151 C148 1.603 . S
C151 H216 0.960 . S
C151 H217 0.962 1_565 S
C151 H218 0.961 . S
C152 C119 1.587 . S
C152 C153 1.360 . S
C152 C165 1.412 . S
C153 C152 1.360 . S
C153 C154 1.365 1_565 S
C153 H219 0.929 . S
C154 C129 1.553 . S
C154 C153 1.365 1_545 S
C154 C155 1.404 . S
C155 C154 1.404 . S
C155 C156 1.395 . S
C155 C166 1.451 . S
C156 C155 1.395 . S
C156 C157 1.322 . S
C156 H220 0.930 . S
C157 C156 1.322 . S
C157 C158 1.459 . S
C157 H221 0.929 . S
C158 C157 1.459 . S
C158 C159 1.445 . S
C158 C167 1.395 . S
C159 C137 1.432 . S
C159 C158 1.445 . S
C159 C160 1.370 . S
C160 C159 1.370 . S
C160 C161 1.438 . S
C160 H222 0.930 . S
C161 C147 1.487 1_545 S
C161 C160 1.438 . S
C161 C162 1.360 . S
C162 C161 1.360 . S
C162 C163 1.401 1_545 S
C162 C167 1.446 . S
C163 C162 1.401 1_565 S
C163 C164 1.347 . S
C163 H223 0.929 . S
C164 C163 1.347 . S
C164 C165 1.455 . S
C164 H224 0.930 . S
C165 C152 1.412 . S
C165 C164 1.455 . S
C165 C166 1.331 1_565 S
C166 C155 1.451 . S
C166 C165 1.331 1_545 S
C166 C167 1.497 . S
C167 C158 1.395 . S
C167 C162 1.446 . S
C167 C166 1.497 . S
C168 C169 1.582 . S
C168 H225 0.962 . S
C168 H226 0.959 . S
C168 H227 0.958 . S
C169 C168 1.582 . S
C169 O172 1.458 . S
C169 H198 0.980 . S
O170 C115 1.426 . S
O170 C116 1.334 . S
O171 C143 1.412 . S
O171 C144 1.393 . S
O172 C134 1.435 . S
O172 C169 1.458 . S
O173 C125 1.468 . S
O173 C126 1.408 . S
H174 C115 0.980 . S
H175 C114 0.959 . S
H176 C114 0.959 . S
H177 C114 0.960 . S
H178 C117 0.929 . S
H179 C121 0.929 . S
H180 C122 0.959 . S
H181 C122 0.961 . S
H182 C122 0.961 . S
H183 C123 0.960 . S
H184 C123 0.960 . S
H185 C123 0.961 . S
H186 C125 0.980 . S
H187 C124 0.961 . S
H188 C124 0.960 . S
H189 C124 0.959 . S
H190 C127 0.930 . S
H191 C131 0.931 . S
H192 C132 0.959 . S
H193 C132 0.961 . S
H194 C132 0.959 . S
H195 C133 0.960 . S
H196 C133 0.960 . S
H197 C133 0.960 . S
H198 C169 0.980 . S
H199 C135 0.930 . S
H200 C139 0.930 . S
H201 C140 0.961 . S
H202 C140 0.960 . S
H203 C140 0.958 . S
H204 C141 0.961 . S
H205 C141 0.960 . S
H206 C141 0.960 . S
H207 C143 0.980 . S
H208 C142 0.961 . S
H209 C142 0.961 . S
H210 C142 0.959 . S
H211 C145 0.932 . S
H212 C149 0.929 . S
H213 C150 0.961 . S
H214 C150 0.959 . S
H215 C150 0.959 . S
H216 C151 0.960 . S
H217 C151 0.962 1_545 S
H218 C151 0.961 . S
H219 C153 0.929 . S
H220 C156 0.930 . S
H221 C157 0.929 . S
H222 C160 0.930 . S
H223 C163 0.929 . S
H224 C164 0.930 . S
H225 C168 0.962 . S
H226 C168 0.959 . S
H227 C168 0.958 . S
C228 C229 1.560 . S
C228 H289 0.959 . S
C228 H290 0.959 . S
C228 H291 0.960 . S
C229 C228 1.560 . S
C229 O284 1.426 . S
C229 H288 0.980 . S
C230 C231 1.407 . S
C230 C235 1.418 . S
C230 O284 1.334 . S
C231 C230 1.407 . S
C231 C232 1.360 . S
C231 H292 0.929 . S
C232 C231 1.360 . S
C232 C233 1.401 . S
C232 C236 1.527 . S
C233 C232 1.401 . S
C233 C234 1.405 . S
C233 C266 1.587 . S
C234 C233 1.405 . S
C234 C235 1.332 . S
C234 C237 1.496 . S
C235 C230 1.418 . S
C235 C234 1.332 . S
C235 H293 0.929 . S
C236 C232 1.527 . S
C236 H294 0.959 . S
C236 H295 0.961 . S
C236 H296 0.961 . S
C237 C234 1.496 . S
C237 H297 0.960 . S
C237 H298 0.960 . S
C237 H299 0.961 . S
C238 C239 1.517 . S
C238 H301 0.961 . S
C238 H302 0.960 . S
C238 H303 0.959 . S
C239 C238 1.517 . S
C239 O287 1.468 . S
C239 H300 0.980 . S
C240 C241 1.349 . S
C240 C245 1.367 . S
C240 O287 1.408 . S
C241 C240 1.349 . S
C241 C242 1.407 . S
C241 H304 0.930 . S
C242 C241 1.407 . S
C242 C243 1.449 . S
C242 C246 1.535 . S
C243 C242 1.449 . S
C243 C244 1.384 . S
C243 C268 1.553 . S
C244 C243 1.384 . S
C244 C245 1.364 . S
C244 C247 1.450 . S
C245 C240 1.367 . S
C245 C244 1.364 . S
C245 H305 0.931 . S
C246 C242 1.535 . S
C246 H306 0.959 . S
C246 H307 0.961 . S
C246 H308 0.959 . S
C247 C244 1.450 . S
C247 H309 0.960 . S
C247 H310 0.960 . S
C247 H311 0.960 . S
C248 C249 1.309 . S
C248 C253 1.304 . S
C248 O286 1.435 . S
C249 C248 1.309 . S
C249 C250 1.476 . S
C249 H313 0.930 . S
C250 C249 1.476 . S
C250 C251 1.400 . S
C250 C254 1.567 . S
C251 C250 1.400 . S
C251 C252 1.373 . S
C251 C273 1.432 . S
C252 C251 1.373 . S
C252 C253 1.339 . S
C252 C255 1.530 . S
C253 C248 1.304 . S
C253 C252 1.339 . S
C253 H314 0.930 . S
C254 C250 1.567 . S
C254 H315 0.961 . S
C254 H316 0.960 . S
C254 H317 0.958 . S
C255 C252 1.530 . S
C255 H318 0.961 . S
C255 H319 0.960 . S
C255 H320 0.960 . S
C256 C257 1.530 . S
C256 H322 0.961 . S
C256 H323 0.961 . S
C256 H324 0.959 . S
C257 C256 1.530 . S
C257 O285 1.412 . S
C257 H321 0.980 . S
C258 C259 1.288 . S
C258 C263 1.377 . S
C258 O285 1.393 . S
C259 C258 1.288 . S
C259 C260 1.369 . S
C259 H325 0.932 . S
C260 C259 1.369 . S
C260 C261 1.398 . S
C260 C264 1.527 . S
C261 C260 1.398 . S
C261 C262 1.380 . S
C261 C275 1.497 . S
C262 C261 1.380 . S
C262 C263 1.383 . S
C262 C265 1.603 . S
C263 C258 1.377 . S
C263 C262 1.383 . S
C263 H326 0.929 . S
C264 C260 1.527 . S
C264 H327 0.961 . S
C264 H328 0.959 . S
C264 H329 0.959 . S
C265 C262 1.603 . S
C265 H330 0.960 . S
C265 H331 0.962 . S
C265 H332 0.961 . S
C266 C233 1.587 . S
C266 C267 1.360 . S
C266 C279 1.412 . S
C267 C266 1.360 . S
C267 C268 1.365 . S
C267 H333 0.929 . S
C268 C243 1.553 . S
C268 C267 1.365 . S
C268 C269 1.404 . S
C269 C268 1.404 . S
C269 C270 1.395 . S
C269 C280 1.451 . S
C270 C269 1.395 . S
C270 C271 1.322 . S
C270 H334 0.930 . S
C271 C270 1.322 . S
C271 C272 1.459 . S
C271 H335 0.929 . S
C272 C271 1.459 . S
C272 C273 1.445 . S
C272 C281 1.395 . S
C273 C251 1.432 . S
C273 C272 1.445 . S
C273 C274 1.370 . S
C274 C273 1.370 . S
C274 C275 1.438 . S
C274 H336 0.930 . S
C275 C261 1.497 . S
C275 C274 1.438 . S
C275 C276 1.360 . S
C276 C275 1.360 . S
C276 C277 1.401 . S
C276 C281 1.446 . S
C277 C276 1.401 . S
C277 C278 1.347 . S
C277 H337 0.929 . S
C278 C277 1.347 . S
C278 C279 1.455 . S
C278 H338 0.930 . S
C279 C266 1.412 . S
C279 C278 1.455 . S
C279 C280 1.331 . S
C280 C269 1.451 . S
C280 C279 1.331 . S
C280 C281 1.497 . S
C281 C272 1.395 . S
C281 C276 1.446 . S
C281 C280 1.497 . S
C282 C283 1.582 . S
C282 H339 0.962 . S
C282 H340 0.959 . S
C282 H341 0.958 . S
C283 C282 1.582 . S
C283 O286 1.458 . S
C283 H312 0.980 . S
O284 C229 1.426 . S
O284 C230 1.334 . S
O285 C257 1.412 . S
O285 C258 1.393 . S
O286 C248 1.435 . S
O286 C283 1.458 . S
O287 C239 1.468 . S
O287 C240 1.408 . S
H288 C229 0.980 . S
H289 C228 0.959 . S
H290 C228 0.959 . S
H291 C228 0.960 . S
H292 C231 0.929 . S
H293 C235 0.929 . S
H294 C236 0.959 . S
H295 C236 0.961 . S
H296 C236 0.961 . S
H297 C237 0.960 . S
H298 C237 0.960 . S
H299 C237 0.961 . S
H300 C239 0.980 . S
H301 C238 0.961 . S
H302 C238 0.960 . S
H303 C238 0.959 . S
H304 C241 0.930 . S
H305 C245 0.931 . S
H306 C246 0.959 . S
H307 C246 0.961 . S
H308 C246 0.959 . S
H309 C247 0.960 . S
H310 C247 0.960 . S
H311 C247 0.960 . S
H312 C283 0.980 . S
H313 C249 0.930 . S
H314 C253 0.930 . S
H315 C254 0.961 . S
H316 C254 0.960 . S
H317 C254 0.958 . S
H318 C255 0.961 . S
H319 C255 0.960 . S
H320 C255 0.960 . S
H321 C257 0.980 . S
H322 C256 0.961 . S
H323 C256 0.961 . S
H324 C256 0.959 . S
H325 C259 0.932 . S
H326 C263 0.929 . S
H327 C264 0.961 . S
H328 C264 0.959 . S
H329 C264 0.959 . S
H330 C265 0.960 . S
H331 C265 0.962 . S
H332 C265 0.961 . S
H333 C267 0.929 . S
H334 C270 0.930 . S
H335 C271 0.929 . S
H336 C274 0.930 . S
H337 C277 0.929 . S
H338 C278 0.930 . S
H339 C282 0.962 . S
H340 C282 0.959 . S
H341 C282 0.958 . S
C342 C343 1.560 . S
C342 H403 0.959 . S
C342 H404 0.959 . S
C342 H405 0.960 . S
C343 C342 1.560 . S
C343 O398 1.426 . S
C343 H402 0.980 . S
C344 C345 1.407 . S
C344 C349 1.418 . S
C344 O398 1.334 . S
C345 C344 1.407 . S
C345 C346 1.360 . S
C345 H406 0.929 . S
C346 C345 1.360 . S
C346 C347 1.401 . S
C346 C350 1.527 . S
C347 C346 1.401 . S
C347 C348 1.405 . S
C347 C380 1.587 . S
C348 C347 1.405 . S
C348 C349 1.332 . S
C348 C351 1.496 . S
C349 C344 1.418 . S
C349 C348 1.332 . S
C349 H407 0.929 . S
C350 C346 1.527 . S
C350 H408 0.959 . S
C350 H409 0.961 . S
C350 H410 0.961 . S
C351 C348 1.496 . S
C351 H411 0.960 . S
C351 H412 0.960 . S
C351 H413 0.961 . S
C352 C353 1.517 . S
C352 H415 0.961 . S
C352 H416 0.960 . S
C352 H417 0.959 . S
C353 C352 1.517 . S
C353 O401 1.468 . S
C353 H414 0.980 . S
C354 C355 1.349 . S
C354 C359 1.367 . S
C354 O401 1.408 . S
C355 C354 1.349 . S
C355 C356 1.438 . S
C355 H418 0.930 . S
C356 C355 1.438 . S
C356 C357 1.458 1_655 S
C356 C360 1.504 1_655 S
C357 C356 1.458 1_455 S
C357 C358 1.384 1_455 S
C357 C382 1.553 . S
C358 C357 1.384 1_655 S
C358 C359 1.364 . S
C358 C361 1.450 1_655 S
C359 C354 1.367 . S
C359 C358 1.364 . S
C359 H419 0.931 . S
C360 C356 1.504 1_455 S
C360 H420 0.959 . S
C360 H421 0.961 . S
C360 H422 0.959 1_455 S
C361 C358 1.450 1_455 S
C361 H423 0.960 . S
C361 H424 0.960 . S
C361 H425 0.960 1_455 S
C362 C363 1.309 . S
C362 C367 1.304 . S
C362 O400 1.435 . S
C363 C362 1.309 . S
C363 C364 1.476 . S
C363 H427 0.930 . S
C364 C363 1.476 . S
C364 C365 1.400 . S
C364 C368 1.567 . S
C365 C364 1.400 . S
C365 C366 1.373 . S
C365 C387 1.432 . S
C366 C365 1.373 . S
C366 C367 1.339 . S
C366 C369 1.530 . S
C367 C362 1.304 . S
C367 C366 1.339 . S
C367 H428 0.930 . S
C368 C364 1.567 . S
C368 H429 0.961 . S
C368 H430 0.960 . S
C368 H431 0.958 . S
C369 C366 1.530 . S
C369 H432 0.961 . S
C369 H433 0.960 . S
C369 H434 0.960 . S
C370 C371 1.530 . S
C370 H436 0.961 . S
C370 H437 0.961 . S
C370 H438 0.959 . S
C371 C370 1.530 . S
C371 O399 1.412 . S
C371 H435 0.980 . S
C372 C373 1.288 . S
C372 C377 1.377 . S
C372 O399 1.393 . S
C373 C372 1.288 . S
C373 C374 1.369 . S
C373 H439 0.932 . S
C374 C373 1.369 . S
C374 C375 1.398 . S
C374 C378 1.527 . S
C375 C374 1.398 . S
C375 C376 1.380 . S
C375 C389 1.497 . S
C376 C375 1.380 . S
C376 C377 1.383 . S
C376 C379 1.603 . S
C377 C372 1.377 . S
C377 C376 1.383 . S
C377 H440 0.929 . S
C378 C374 1.527 . S
C378 H441 0.961 . S
C378 H442 0.959 . S
C378 H443 0.959 . S
C379 C376 1.603 . S
C379 H444 0.960 . S
C379 H445 0.962 . S
C379 H446 0.961 . S
C380 C347 1.587 . S
C380 C381 1.360 . S
C380 C393 1.412 . S
C381 C380 1.360 . S
C381 C382 1.365 . S
C381 H447 0.929 . S
C382 C357 1.553 . S
C382 C381 1.365 . S
C382 C383 1.404 . S
C383 C382 1.404 . S
C383 C384 1.395 1_455 S
C383 C394 1.451 . S
C384 C383 1.395 1_655 S
C384 C385 1.322 . S
C384 H448 0.930 . S
C385 C384 1.322 . S
C385 C386 1.459 . S
C385 H449 0.929 . S
C386 C385 1.459 . S
C386 C387 1.445 . S
C386 C395 1.395 1_655 S
C387 C365 1.432 . S
C387 C386 1.445 . S
C387 C388 1.370 . S
C388 C387 1.370 . S
C388 C389 1.438 1_655 S
C388 H450 0.930 . S
C389 C375 1.497 . S
C389 C388 1.438 1_455 S
C389 C390 1.360 . S
C390 C389 1.360 . S
C390 C391 1.401 . S
C390 C395 1.446 . S
C391 C390 1.401 . S
C391 C392 1.347 . S
C391 H451 0.929 . S
C392 C391 1.347 . S
C392 C393 1.455 . S
C392 H452 0.930 . S
C393 C380 1.412 . S
C393 C392 1.455 . S
C393 C394 1.331 . S
C394 C383 1.451 . S
C394 C393 1.331 . S
C394 C395 1.497 . S
C395 C386 1.395 1_455 S
C395 C390 1.446 . S
C395 C394 1.497 . S
C396 C397 1.582 . S
C396 H453 0.962 . S
C396 H454 0.959 . S
C396 H455 0.958 . S
C397 C396 1.582 . S
C397 O400 1.458 . S
C397 H426 0.980 . S
O398 C343 1.426 . S
O398 C344 1.334 . S
O399 C371 1.412 . S
O399 C372 1.393 . S
O400 C362 1.435 . S
O400 C397 1.458 . S
O401 C353 1.468 . S
O401 C354 1.408 . S
H402 C343 0.980 . S
H403 C342 0.959 . S
H404 C342 0.959 . S
H405 C342 0.960 . S
H406 C345 0.929 . S
H407 C349 0.929 . S
H408 C350 0.959 . S
H409 C350 0.961 . S
H410 C350 0.961 . S
H411 C351 0.960 . S
H412 C351 0.960 . S
H413 C351 0.961 . S
H414 C353 0.980 . S
H415 C352 0.961 . S
H416 C352 0.960 . S
H417 C352 0.959 . S
H418 C355 0.930 . S
H419 C359 0.931 . S
H420 C360 0.959 . S
H421 C360 0.961 . S
H422 C360 0.959 1_655 S
H423 C361 0.960 . S
H424 C361 0.960 . S
H425 C361 0.960 1_655 S
H426 C397 0.980 . S
H427 C363 0.930 . S
H428 C367 0.930 . S
H429 C368 0.961 . S
H430 C368 0.960 . S
H431 C368 0.958 . S
H432 C369 0.961 . S
H433 C369 0.960 . S
H434 C369 0.960 . S
H435 C371 0.980 . S
H436 C370 0.961 . S
H437 C370 0.961 . S
H438 C370 0.959 . S
H439 C373 0.932 . S
H440 C377 0.929 . S
H441 C378 0.961 . S
H442 C378 0.959 . S
H443 C378 0.959 . S
H444 C379 0.960 . S
H445 C379 0.962 . S
H446 C379 0.961 . S
H447 C381 0.929 . S
H448 C384 0.930 . S
H449 C385 0.929 . S
H450 C388 0.930 . S
H451 C391 0.929 . S
H452 C392 0.930 . S
H453 C396 0.962 . S
H454 C396 0.959 . S
H455 C396 0.958 . S
C456 C457 1.560 . S
C456 H517 0.959 . S
C456 H518 0.959 . S
C456 H519 0.960 . S
C457 C456 1.560 . S
C457 O512 1.426 . S
C457 H516 0.980 . S
C458 C459 1.407 . S
C458 C463 1.418 . S
C458 O512 1.334 . S
C459 C458 1.407 . S
C459 C460 1.360 . S
C459 H520 0.929 . S
C460 C459 1.360 . S
C460 C461 1.401 . S
C460 C464 1.527 . S
C461 C460 1.401 . S
C461 C462 1.405 . S
C461 C494 1.587 . S
C462 C461 1.405 . S
C462 C463 1.332 . S
C462 C465 1.496 . S
C463 C458 1.418 . S
C463 C462 1.332 . S
C463 H521 0.929 . S
C464 C460 1.527 . S
C464 H522 0.959 . S
C464 H523 0.961 . S
C464 H524 0.961 . S
C465 C462 1.496 . S
C465 H525 0.960 . S
C465 H526 0.960 . S
C465 H527 0.961 . S
C466 C467 1.517 . S
C466 H529 0.961 . S
C466 H530 0.960 . S
C466 H531 0.959 . S
C467 C466 1.517 . S
C467 O515 1.468 . S
C467 H528 0.980 . S
C468 C469 1.349 . S
C468 C473 1.367 . S
C468 O515 1.408 . S
C469 C468 1.349 . S
C469 C470 1.407 . S
C469 H532 0.930 . S
C470 C469 1.407 . S
C470 C471 1.449 . S
C470 C474 1.535 . S
C471 C470 1.449 . S
C471 C472 1.384 . S
C471 C496 1.553 . S
C472 C471 1.384 . S
C472 C473 1.364 . S
C472 C475 1.450 . S
C473 C468 1.367 . S
C473 C472 1.364 . S
C473 H533 0.931 . S
C474 C470 1.535 . S
C474 H534 0.959 . S
C474 H535 0.961 . S
C474 H536 0.959 . S
C475 C472 1.450 . S
C475 H537 0.960 . S
C475 H538 0.960 . S
C475 H539 0.960 . S
C476 C477 1.309 . S
C476 C481 1.304 . S
C476 O514 1.435 . S
C477 C476 1.309 . S
C477 C478 1.476 . S
C477 H541 0.930 . S
C478 C477 1.476 . S
C478 C479 1.400 . S
C478 C482 1.567 . S
C479 C478 1.400 . S
C479 C480 1.373 . S
C479 C501 1.432 . S
C480 C479 1.373 . S
C480 C481 1.339 . S
C480 C483 1.530 . S
C481 C476 1.304 . S
C481 C480 1.339 . S
C481 H542 0.930 . S
C482 C478 1.567 . S
C482 H543 0.961 . S
C482 H544 0.960 . S
C482 H545 0.958 . S
C483 C480 1.530 . S
C483 H546 0.961 . S
C483 H547 0.960 . S
C483 H548 0.960 . S
C484 C485 1.530 . S
C484 H550 0.961 . S
C484 H551 0.961 . S
C484 H552 0.959 . S
C485 C484 1.530 . S
C485 O513 1.412 . S
C485 H549 0.980 . S
C486 C487 1.288 . S
C486 C491 1.377 . S
C486 O513 1.393 . S
C487 C486 1.288 . S
C487 C488 1.369 . S
C487 H553 0.932 . S
C488 C487 1.369 . S
C488 C489 1.404 . S
C488 C492 1.527 1_565 S
C489 C488 1.404 . S
C489 C490 1.380 . S
C489 C503 1.492 1_565 S
C490 C489 1.380 . S
C490 C491 1.383 . S
C490 C493 1.603 . S
C491 C486 1.377 . S
C491 C490 1.383 . S
C491 H554 0.929 . S
C492 C488 1.527 1_545 S
C492 H555 0.961 . S
C492 H556 0.959 . S
C492 H557 0.959 . S
C493 C490 1.603 . S
C493 H558 0.960 . S
C493 H559 0.962 1_565 S
C493 H560 0.961 . S
C494 C461 1.587 . S
C494 C495 1.360 . S
C494 C507 1.412 . S
C495 C494 1.360 . S
C495 C496 1.365 1_565 S
C495 H561 0.929 . S
C496 C471 1.553 . S
C496 C495 1.365 1_545 S
C496 C497 1.404 . S
C497 C496 1.404 . S
C497 C498 1.395 . S
C497 C508 1.451 . S
C498 C497 1.395 . S
C498 C499 1.322 . S
C498 H562 0.930 . S
C499 C498 1.322 . S
C499 C500 1.459 1_556 S
C499 H563 0.929 . S
C500 C499 1.459 1_554 S
C500 C501 1.445 . S
C500 C509 1.391 1_554 S
C501 C479 1.432 . S
C501 C500 1.445 . S
C501 C502 1.370 . S
C502 C501 1.370 . S
C502 C503 1.438 . S
C502 H564 0.930 . S
C503 C489 1.492 1_545 S
C503 C502 1.438 . S
C503 C504 1.360 . S
C504 C503 1.360 . S
C504 C505 1.401 1_545 S
C504 C509 1.407 1_554 S
C505 C504 1.401 1_565 S
C505 C506 1.347 1_554 S
C505 H565 0.929 . S
C506 C505 1.347 1_556 S
C506 C507 1.455 . S
C506 H566 0.930 . S
C507 C494 1.412 . S
C507 C506 1.455 . S
C507 C508 1.331 1_565 S
C508 C497 1.451 . S
C508 C507 1.331 1_545 S
C508 C509 1.541 . S
C509 C500 1.391 1_556 S
C509 C504 1.407 1_556 S
C509 C508 1.541 . S
C510 C511 1.582 . S
C510 H567 0.962 . S
C510 H568 0.959 . S
C510 H569 0.958 . S
C511 C510 1.582 . S
C511 O514 1.458 . S
C511 H540 0.980 . S
O512 C457 1.426 . S
O512 C458 1.334 . S
O513 C485 1.412 . S
O513 C486 1.393 . S
O514 C476 1.435 . S
O514 C511 1.458 . S
O515 C467 1.468 . S
O515 C468 1.408 . S
H516 C457 0.980 . S
H517 C456 0.959 . S
H518 C456 0.959 . S
H519 C456 0.960 . S
H520 C459 0.929 . S
H521 C463 0.929 . S
H522 C464 0.959 . S
H523 C464 0.961 . S
H524 C464 0.961 . S
H525 C465 0.960 . S
H526 C465 0.960 . S
H527 C465 0.961 . S
H528 C467 0.980 . S
H529 C466 0.961 . S
H530 C466 0.960 . S
H531 C466 0.959 . S
H532 C469 0.930 . S
H533 C473 0.931 . S
H534 C474 0.959 . S
H535 C474 0.961 . S
H536 C474 0.959 . S
H537 C475 0.960 . S
H538 C475 0.960 . S
H539 C475 0.960 . S
H540 C511 0.980 . S
H541 C477 0.930 . S
H542 C481 0.930 . S
H543 C482 0.961 . S
H544 C482 0.960 . S
H545 C482 0.958 . S
H546 C483 0.961 . S
H547 C483 0.960 . S
H548 C483 0.960 . S
H549 C485 0.980 . S
H550 C484 0.961 . S
H551 C484 0.961 . S
H552 C484 0.959 . S
H553 C487 0.932 . S
H554 C491 0.929 . S
H555 C492 0.961 . S
H556 C492 0.959 . S
H557 C492 0.959 . S
H558 C493 0.960 . S
H559 C493 0.962 1_545 S
H560 C493 0.961 . S
H561 C495 0.929 . S
H562 C498 0.930 . S
H563 C499 0.929 . S
H564 C502 0.930 . S
H565 C505 0.929 . S
H566 C506 0.930 . S
H567 C510 0.962 . S
H568 C510 0.959 . S
H569 C510 0.958 . S
C570 C571 1.560 . S
C570 H631 0.959 . S
C570 H632 0.959 . S
C570 H633 0.960 . S
C571 C570 1.560 . S
C571 O626 1.426 . S
C571 H630 0.980 . S
C572 C573 1.407 . S
C572 C577 1.418 . S
C572 O626 1.334 . S
C573 C572 1.407 . S
C573 C574 1.360 . S
C573 H634 0.929 . S
C574 C573 1.360 . S
C574 C575 1.401 . S
C574 C578 1.527 . S
C575 C574 1.401 . S
C575 C576 1.405 . S
C575 C608 1.587 . S
C576 C575 1.405 . S
C576 C577 1.332 . S
C576 C579 1.496 . S
C577 C572 1.418 . S
C577 C576 1.332 . S
C577 H635 0.929 . S
C578 C574 1.527 . S
C578 H636 0.959 . S
C578 H637 0.961 . S
C578 H638 0.961 . S
C579 C576 1.496 . S
C579 H639 0.960 . S
C579 H640 0.960 . S
C579 H641 0.961 . S
C580 C581 1.517 . S
C580 H643 0.961 . S
C580 H644 0.960 . S
C580 H645 0.959 . S
C581 C580 1.517 . S
C581 O629 1.468 . S
C581 H642 0.980 . S
C582 C583 1.349 . S
C582 C587 1.367 . S
C582 O629 1.408 . S
C583 C582 1.349 . S
C583 C584 1.407 . S
C583 H646 0.930 . S
C584 C583 1.407 . S
C584 C585 1.449 . S
C584 C588 1.535 . S
C585 C584 1.449 . S
C585 C586 1.384 . S
C585 C610 1.553 . S
C586 C585 1.384 . S
C586 C587 1.364 . S
C586 C589 1.450 . S
C587 C582 1.367 . S
C587 C586 1.364 . S
C587 H647 0.931 . S
C588 C584 1.535 . S
C588 H648 0.959 . S
C588 H649 0.961 . S
C588 H650 0.959 . S
C589 C586 1.450 . S
C589 H651 0.960 . S
C589 H652 0.960 . S
C589 H653 0.960 . S
C590 C591 1.309 . S
C590 C595 1.304 . S
C590 O628 1.435 . S
C591 C590 1.309 . S
C591 C592 1.476 . S
C591 H655 0.930 . S
C592 C591 1.476 . S
C592 C593 1.400 . S
C592 C596 1.567 . S
C593 C592 1.400 . S
C593 C594 1.373 . S
C593 C615 1.432 . S
C594 C593 1.373 . S
C594 C595 1.339 . S
C594 C597 1.530 . S
C595 C590 1.304 . S
C595 C594 1.339 . S
C595 H656 0.930 . S
C596 C592 1.567 . S
C596 H657 0.961 . S
C596 H658 0.960 . S
C596 H659 0.958 . S
C597 C594 1.530 . S
C597 H660 0.961 . S
C597 H661 0.960 . S
C597 H662 0.960 . S
C598 C599 1.530 . S
C598 H664 0.961 . S
C598 H665 0.961 . S
C598 H666 0.959 . S
C599 C598 1.530 . S
C599 O627 1.412 . S
C599 H663 0.980 . S
C600 C601 1.288 . S
C600 C605 1.377 . S
C600 O627 1.393 . S
C601 C600 1.288 . S
C601 C602 1.369 . S
C601 H667 0.932 . S
C602 C601 1.369 . S
C602 C603 1.398 . S
C602 C606 1.527 . S
C603 C602 1.398 . S
C603 C604 1.380 . S
C603 C617 1.497 . S
C604 C603 1.380 . S
C604 C605 1.383 . S
C604 C607 1.603 . S
C605 C600 1.377 . S
C605 C604 1.383 . S
C605 H668 0.929 . S
C606 C602 1.527 . S
C606 H669 0.961 . S
C606 H670 0.959 . S
C606 H671 0.959 . S
C607 C604 1.603 . S
C607 H672 0.960 . S
C607 H673 0.962 . S
C607 H674 0.961 . S
C608 C575 1.587 . S
C608 C609 1.360 . S
C608 C621 1.412 . S
C609 C608 1.360 . S
C609 C610 1.365 . S
C609 H675 0.929 . S
C610 C585 1.553 . S
C610 C609 1.365 . S
C610 C611 1.404 . S
C611 C610 1.404 . S
C611 C612 1.395 . S
C611 C622 1.451 . S
C612 C611 1.395 . S
C612 C613 1.322 . S
C612 H676 0.930 . S
C613 C612 1.322 . S
C613 C614 1.459 . S
C613 H677 0.929 . S
C614 C613 1.459 . S
C614 C615 1.445 . S
C614 C623 1.395 . S
C615 C593 1.432 . S
C615 C614 1.445 . S
C615 C616 1.370 . S
C616 C615 1.370 . S
C616 C617 1.438 . S
C616 H678 0.930 . S
C617 C603 1.497 . S
C617 C616 1.438 . S
C617 C618 1.360 . S
C618 C617 1.360 . S
C618 C619 1.401 . S
C618 C623 1.446 . S
C619 C618 1.401 . S
C619 C620 1.347 . S
C619 H679 0.929 . S
C620 C619 1.347 . S
C620 C621 1.455 . S
C620 H680 0.930 . S
C621 C608 1.412 . S
C621 C620 1.455 . S
C621 C622 1.331 . S
C622 C611 1.451 . S
C622 C621 1.331 . S
C622 C623 1.497 . S
C623 C614 1.395 . S
C623 C618 1.446 . S
C623 C622 1.497 . S
C624 C625 1.582 . S
C624 H681 0.962 . S
C624 H682 0.959 . S
C624 H683 0.958 . S
C625 C624 1.582 . S
C625 O628 1.458 . S
C625 H654 0.980 . S
O626 C571 1.426 . S
O626 C572 1.334 . S
O627 C599 1.412 . S
O627 C600 1.393 . S
O628 C590 1.435 . S
O628 C625 1.458 . S
O629 C581 1.468 . S
O629 C582 1.408 . S
H630 C571 0.980 . S
H631 C570 0.959 . S
H632 C570 0.959 . S
H633 C570 0.960 . S
H634 C573 0.929 . S
H635 C577 0.929 . S
H636 C578 0.959 . S
H637 C578 0.961 . S
H638 C578 0.961 . S
H639 C579 0.960 . S
H640 C579 0.960 . S
H641 C579 0.961 . S
H642 C581 0.980 . S
H643 C580 0.961 . S
H644 C580 0.960 . S
H645 C580 0.959 . S
H646 C583 0.930 . S
H647 C587 0.931 . S
H648 C588 0.959 . S
H649 C588 0.961 . S
H650 C588 0.959 . S
H651 C589 0.960 . S
H652 C589 0.960 . S
H653 C589 0.960 . S
H654 C625 0.980 . S
H655 C591 0.930 . S
H656 C595 0.930 . S
H657 C596 0.961 . S
H658 C596 0.960 . S
H659 C596 0.958 . S
H660 C597 0.961 . S
H661 C597 0.960 . S
H662 C597 0.960 . S
H663 C599 0.980 . S
H664 C598 0.961 . S
H665 C598 0.961 . S
H666 C598 0.959 . S
H667 C601 0.932 . S
H668 C605 0.929 . S
H669 C606 0.961 . S
H670 C606 0.959 . S
H671 C606 0.959 . S
H672 C607 0.960 . S
H673 C607 0.962 . S
H674 C607 0.961 . S
H675 C609 0.929 . S
H676 C612 0.930 . S
H677 C613 0.929 . S
H678 C616 0.930 . S
H679 C619 0.929 . S
H680 C620 0.930 . S
H681 C624 0.962 . S
H682 C624 0.959 . S
H683 C624 0.958 . S
In684 O685 2.294 . S
In684 O686 2.326 . S
In684 O690 2.266 . S
In684 O691 2.326 . S
In684 O692 2.266 . S
In684 O693 2.326 . S
In684 O695 2.294 . S
In684 O696 2.326 . S
O685 In684 2.294 . S
O685 C694 1.240 . S
O686 In684 2.326 . S
O686 C694 1.252 . S
C687 O690 1.252 . S
C687 O691 1.260 . S
C688 O695 1.240 . S
C688 O696 1.252 . S
C689 O692 1.252 . S
C689 O693 1.260 . S
O690 In684 2.266 . S
O690 C687 1.252 . S
O691 In684 2.326 . S
O691 C687 1.260 . S
O692 In684 2.266 . S
O692 C689 1.252 . S
O693 In684 2.326 . S
O693 C689 1.260 . S
C694 O685 1.240 . S
C694 O686 1.252 . S
O695 In684 2.294 . S
O695 C688 1.240 . S
O696 In684 2.326 . S
O696 C688 1.252 . S
In697 O698 2.294 . S
In697 O699 2.326 . S
In697 O703 2.266 . S
In697 O704 2.326 . S
In697 O705 2.266 . S
In697 O706 2.326 . S
In697 O708 2.294 . S
In697 O709 2.326 . S
O698 In697 2.294 . S
O698 C707 1.240 . S
O699 In697 2.326 . S
O699 C707 1.252 . S
C700 O703 1.252 . S
C700 O704 1.260 . S
C701 O708 1.240 . S
C701 O709 1.252 . S
C702 O705 1.252 . S
C702 O706 1.260 . S
O703 In697 2.266 . S
O703 C700 1.252 . S
O704 In697 2.326 . S
O704 C700 1.260 . S
O705 In697 2.266 . S
O705 C702 1.252 . S
O706 In697 2.326 . S
O706 C702 1.260 . S
C707 O698 1.240 . S
C707 O699 1.252 . S
O708 In697 2.294 . S
O708 C701 1.240 . S
O709 In697 2.326 . S
O709 C701 1.252 . S
In710 O711 2.294 . S
In710 O712 2.326 . S
In710 O716 2.266 . S
In710 O717 2.326 . S
In710 O718 2.266 . S
In710 O719 2.326 . S
In710 O721 2.294 . S
In710 O722 2.326 . S
O711 In710 2.294 . S
O711 C720 1.240 . S
O712 In710 2.326 . S
O712 C720 1.252 . S
C713 O716 1.252 . S
C713 O717 1.260 . S
C714 O721 1.240 . S
C714 O722 1.252 . S
C715 O718 1.252 . S
C715 O719 1.260 . S
O716 In710 2.266 . S
O716 C713 1.252 . S
O717 In710 2.326 . S
O717 C713 1.260 . S
O718 In710 2.266 . S
O718 C715 1.252 . S
O719 In710 2.326 . S
O719 C715 1.260 . S
C720 O711 1.240 . S
C720 O712 1.252 . S
O721 In710 2.294 . S
O721 C714 1.240 . S
O722 In710 2.326 . S
O722 C714 1.252 . S
In723 O724 2.294 . S
In723 O725 2.326 . S
In723 O729 2.266 . S
In723 O730 2.326 . S
In723 O731 2.266 . S
In723 O732 2.326 . S
In723 O734 2.294 . S
In723 O735 2.326 . S
O724 In723 2.294 . S
O724 C733 1.240 . S
O725 In723 2.326 . S
O725 C733 1.252 . S
C726 O729 1.252 . S
C726 O730 1.260 . S
C727 O734 1.240 . S
C727 O735 1.252 . S
C728 O731 1.252 . S
C728 O732 1.260 . S
O729 In723 2.266 . S
O729 C726 1.252 . S
O730 In723 2.326 . S
O730 C726 1.260 . S
O731 In723 2.266 . S
O731 C728 1.252 . S
O732 In723 2.326 . S
O732 C728 1.260 . S
C733 O724 1.240 . S
C733 O725 1.252 . S
O734 In723 2.294 . S
O734 C727 1.240 . S
O735 In723 2.326 . S
O735 C727 1.252 . S
In736 O737 2.294 . S
In736 O738 2.326 . S
In736 O742 2.266 . S
In736 O743 2.326 . S
In736 O744 2.266 . S
In736 O745 2.326 . S
In736 O747 2.294 . S
In736 O748 2.326 . S
O737 In736 2.294 . S
O737 C746 1.240 . S
O738 In736 2.326 . S
O738 C746 1.252 . S
C739 O742 1.252 . S
C739 O743 1.260 . S
C740 O747 1.240 . S
C740 O748 1.252 . S
C741 O744 1.252 . S
C741 O745 1.260 . S
O742 In736 2.266 . S
O742 C739 1.252 . S
O743 In736 2.326 . S
O743 C739 1.260 . S
O744 In736 2.266 . S
O744 C741 1.252 . S
O745 In736 2.326 . S
O745 C741 1.260 . S
C746 O737 1.240 . S
C746 O738 1.252 . S
O747 In736 2.294 . S
O747 C740 1.240 . S
O748 In736 2.326 . S
O748 C740 1.252 . S
In749 O750 2.294 . S
In749 O751 2.326 . S
In749 O755 2.266 . S
In749 O756 2.326 . S
In749 O757 2.266 . S
In749 O758 2.326 . S
In749 O760 2.294 . S
In749 O761 2.326 . S
O750 In749 2.294 . S
O750 C759 1.240 . S
O751 In749 2.326 . S
O751 C759 1.252 . S
C752 O755 1.252 . S
C752 O756 1.260 . S
C753 O760 1.240 . S
C753 O761 1.252 . S
C754 O757 1.252 . S
C754 O758 1.260 . S
O755 In749 2.266 . S
O755 C752 1.252 . S
O756 In749 2.326 . S
O756 C752 1.260 . S
O757 In749 2.266 . S
O757 C754 1.252 . S
O758 In749 2.326 . S
O758 C754 1.260 . S
C759 O750 1.240 . S
C759 O751 1.252 . S
O760 In749 2.294 . S
O760 C753 1.240 . S
O761 In749 2.326 . S
O761 C753 1.252 . S
H762 C768 0.930 . S
H763 C771 0.930 . S
H764 C772 0.930 . S
H765 C773 0.930 . S
H766 C776 0.930 . S
H767 C777 0.930 . S
C768 H762 0.930 . S
C768 C769 1.355 . S
C768 C770 1.415 . S
C769 C768 1.355 . S
C769 C771 1.419 . S
C770 C768 1.415 . S
C770 C775 1.425 . S
C770 C777 1.409 . S
C771 H763 0.930 . S
C771 C769 1.419 . S
C771 C772 1.362 . S
C772 H764 0.930 . S
C772 C771 1.362 . S
C772 C775 1.409 . S
C773 H765 0.930 . S
C773 C774 1.355 . S
C773 C775 1.415 . S
C774 C773 1.355 . S
C774 C776 1.419 . S
C775 C770 1.425 . S
C775 C772 1.409 . S
C775 C773 1.415 . S
C776 H766 0.930 . S
C776 C774 1.419 . S
C776 C777 1.362 . S
C777 H767 0.930 . S
C777 C770 1.409 . S
C777 C776 1.362 . S
H778 C784 0.930 . S
H779 C787 0.930 . S
H780 C788 0.930 . S
H781 C789 0.930 . S
H782 C792 0.930 . S
H783 C793 0.930 . S
C784 H778 0.930 . S
C784 C785 1.355 . S
C784 C786 1.415 . S
C785 C784 1.355 . S
C785 C787 1.419 . S
C786 C784 1.415 . S
C786 C791 1.425 . S
C786 C793 1.409 . S
C787 H779 0.930 . S
C787 C785 1.419 . S
C787 C788 1.362 . S
C788 H780 0.930 . S
C788 C787 1.362 . S
C788 C791 1.409 . S
C789 H781 0.930 . S
C789 C790 1.355 . S
C789 C791 1.415 . S
C790 C789 1.355 . S
C790 C792 1.419 . S
C791 C786 1.425 . S
C791 C788 1.409 . S
C791 C789 1.415 . S
C792 H782 0.930 . S
C792 C790 1.419 . S
C792 C793 1.362 . S
C793 H783 0.930 . S
C793 C786 1.409 . S
C793 C792 1.362 . S
H794 C800 0.930 . S
H795 C803 0.930 . S
H796 C804 0.930 . S
H797 C805 0.930 . S
H798 C808 0.930 . S
H799 C809 0.930 . S
C800 H794 0.930 . S
C800 C801 1.355 . S
C800 C802 1.415 . S
C801 C800 1.355 . S
C801 C803 1.419 . S
C802 C800 1.415 . S
C802 C807 1.425 . S
C802 C809 1.409 . S
C803 H795 0.930 . S
C803 C801 1.419 . S
C803 C804 1.362 . S
C804 H796 0.930 . S
C804 C803 1.362 . S
C804 C807 1.409 . S
C805 H797 0.930 . S
C805 C806 1.355 . S
C805 C807 1.415 . S
C806 C805 1.355 . S
C806 C808 1.419 . S
C807 C802 1.425 . S
C807 C804 1.409 . S
C807 C805 1.415 . S
C808 H798 0.930 . S
C808 C806 1.419 . S
C808 C809 1.362 . S
C809 H799 0.930 . S
C809 C802 1.409 . S
C809 C808 1.362 . S
H810 C816 0.930 . S
H811 C819 0.930 . S
H812 C820 0.930 . S
H813 C821 0.930 . S
H814 C824 0.930 . S
H815 C825 0.930 . S
C816 H810 0.930 . S
C816 C817 1.355 . S
C816 C818 1.415 . S
C817 C816 1.355 . S
C817 C819 1.419 . S
C818 C816 1.415 . S
C818 C823 1.425 . S
C818 C825 1.409 . S
C819 H811 0.930 . S
C819 C817 1.419 . S
C819 C820 1.362 . S
C820 H812 0.930 . S
C820 C819 1.362 . S
C820 C823 1.409 . S
C821 H813 0.930 . S
C821 C822 1.355 . S
C821 C823 1.415 . S
C822 C821 1.355 . S
C822 C824 1.419 . S
C823 C818 1.425 . S
C823 C820 1.409 . S
C823 C821 1.415 . S
C824 H814 0.930 . S
C824 C822 1.419 . S
C824 C825 1.362 . S
C825 H815 0.930 . S
C825 C818 1.409 . S
C825 C824 1.362 . S
H826 C832 0.930 . S
H827 C835 0.930 . S
H828 C836 0.930 . S
H829 C837 0.930 . S
H830 C840 0.930 . S
H831 C841 0.930 . S
C832 H826 0.930 . S
C832 C833 1.355 . S
C832 C834 1.415 . S
C833 C832 1.355 . S
C833 C835 1.419 . S
C834 C832 1.415 . S
C834 C839 1.425 . S
C834 C841 1.409 . S
C835 H827 0.930 . S
C835 C833 1.419 . S
C835 C836 1.362 . S
C836 H828 0.930 . S
C836 C835 1.362 . S
C836 C839 1.409 . S
C837 H829 0.930 . S
C837 C838 1.355 . S
C837 C839 1.415 . S
C838 C837 1.355 . S
C838 C840 1.419 . S
C839 C834 1.425 . S
C839 C836 1.409 . S
C839 C837 1.415 . S
C840 H830 0.930 . S
C840 C838 1.419 . S
C840 C841 1.362 . S
C841 H831 0.930 . S
C841 C834 1.409 . S
C841 C840 1.362 . S
H842 C848 0.930 . S
H843 C851 0.930 . S
H844 C852 0.930 . S
H845 C853 0.930 . S
H846 C856 0.930 . S
H847 C857 0.930 . S
C848 H842 0.930 . S
C848 C849 1.355 . S
C848 C850 1.415 . S
C849 C848 1.355 . S
C849 C851 1.419 . S
C850 C848 1.415 . S
C850 C855 1.425 . S
C850 C857 1.409 . S
C851 H843 0.930 . S
C851 C849 1.419 . S
C851 C852 1.362 . S
C852 H844 0.930 . S
C852 C851 1.362 . S
C852 C855 1.409 . S
C853 H845 0.930 . S
C853 C854 1.355 . S
C853 C855 1.415 . S
C854 C853 1.355 . S
C854 C856 1.419 . S
C855 C850 1.425 . S
C855 C852 1.409 . S
C855 C853 1.415 . S
C856 H846 0.930 . S
C856 C854 1.419 . S
C856 C857 1.362 . S
C857 H847 0.930 . S
C857 C850 1.409 . S
C857 C856 1.362 . S
H858 C864 0.930 . S
H859 C867 0.930 . S
H860 C868 0.930 . S
H861 C869 0.930 . S
H862 C872 0.930 . S
H863 C873 0.930 . S
C864 H858 0.930 . S
C864 C865 1.355 . S
C864 C866 1.415 . S
C865 C864 1.355 . S
C865 C867 1.419 . S
C866 C864 1.415 . S
C866 C871 1.425 . S
C866 C873 1.409 . S
C867 H859 0.930 . S
C867 C865 1.419 . S
C867 C868 1.362 . S
C868 H860 0.930 . S
C868 C867 1.362 . S
C868 C871 1.409 . S
C869 H861 0.930 . S
C869 C870 1.355 . S
C869 C871 1.415 . S
C870 C869 1.355 . S
C870 C872 1.419 . S
C871 C866 1.425 . S
C871 C868 1.409 . S
C871 C869 1.415 . S
C872 H862 0.930 . S
C872 C870 1.419 . S
C872 C873 1.362 . S
C873 H863 0.930 . S
C873 C866 1.409 . S
C873 C872 1.362 . S
H874 C880 0.930 . S
H875 C883 0.930 . S
H876 C884 0.930 . S
H877 C885 0.930 . S
H878 C888 0.930 . S
H879 C889 0.930 . S
C880 H874 0.930 . S
C880 C881 1.355 . S
C880 C882 1.415 . S
C881 C880 1.355 . S
C881 C883 1.419 . S
C882 C880 1.415 . S
C882 C887 1.425 . S
C882 C889 1.409 . S
C883 H875 0.930 . S
C883 C881 1.419 . S
C883 C884 1.362 . S
C884 H876 0.930 . S
C884 C883 1.362 . S
C884 C887 1.409 . S
C885 H877 0.930 . S
C885 C886 1.355 . S
C885 C887 1.415 . S
C886 C885 1.355 . S
C886 C888 1.419 . S
C887 C882 1.425 . S
C887 C884 1.409 . S
C887 C885 1.415 . S
C888 H878 0.930 . S
C888 C886 1.419 . S
C888 C889 1.362 . S
C889 H879 0.930 . S
C889 C882 1.409 . S
C889 C888 1.362 . S
H890 C896 0.930 . S
H891 C899 0.930 . S
H892 C900 0.930 . S
H893 C901 0.930 . S
H894 C904 0.930 . S
H895 C905 0.930 . S
C896 H890 0.930 . S
C896 C897 1.355 . S
C896 C898 1.415 . S
C897 C896 1.355 . S
C897 C899 1.419 . S
C898 C896 1.415 . S
C898 C903 1.425 . S
C898 C905 1.409 . S
C899 H891 0.930 . S
C899 C897 1.419 . S
C899 C900 1.362 . S
C900 H892 0.930 . S
C900 C899 1.362 . S
C900 C903 1.409 . S
C901 H893 0.930 . S
C901 C902 1.355 . S
C901 C903 1.415 . S
C902 C901 1.355 . S
C902 C904 1.419 . S
C903 C898 1.425 . S
C903 C900 1.409 . S
C903 C901 1.415 . S
C904 H894 0.930 . S
C904 C902 1.419 . S
C904 C905 1.362 . S
C905 H895 0.930 . S
C905 C898 1.409 . S
C905 C904 1.362 . S
H906 C912 0.930 . S
H907 C915 0.930 . S
H908 C916 0.930 . S
H909 C917 0.930 . S
H910 C920 0.930 . S
H911 C921 0.930 . S
C912 H906 0.930 . S
C912 C913 1.355 . S
C912 C914 1.415 . S
C913 C912 1.355 . S
C913 C915 1.419 . S
C914 C912 1.415 . S
C914 C919 1.425 . S
C914 C921 1.409 . S
C915 H907 0.930 . S
C915 C913 1.419 . S
C915 C916 1.362 . S
C916 H908 0.930 . S
C916 C915 1.362 . S
C916 C919 1.409 . S
C917 H909 0.930 . S
C917 C918 1.355 . S
C917 C919 1.415 . S
C918 C917 1.355 . S
C918 C920 1.419 . S
C919 C914 1.425 . S
C919 C916 1.409 . S
C919 C917 1.415 . S
C920 H910 0.930 . S
C920 C918 1.419 . S
C920 C921 1.362 . S
C921 H911 0.930 . S
C921 C914 1.409 . S
C921 C920 1.362 . S
H922 C928 0.930 . S
H923 C931 0.930 . S
H924 C932 0.930 . S
H925 C933 0.930 . S
H926 C936 0.930 . S
H927 C937 0.930 . S
C928 H922 0.930 . S
C928 C929 1.355 . S
C928 C930 1.415 . S
C929 C928 1.355 . S
C929 C931 1.419 . S
C930 C928 1.415 . S
C930 C935 1.425 . S
C930 C937 1.409 . S
C931 H923 0.930 . S
C931 C929 1.419 . S
C931 C932 1.362 . S
C932 H924 0.930 . S
C932 C931 1.362 . S
C932 C935 1.409 . S
C933 H925 0.930 . S
C933 C934 1.355 . S
C933 C935 1.415 . S
C934 C933 1.355 . S
C934 C936 1.419 . S
C935 C930 1.425 . S
C935 C932 1.409 . S
C935 C933 1.415 . S
C936 H926 0.930 . S
C936 C934 1.419 . S
C936 C937 1.362 . S
C937 H927 0.930 . S
C937 C930 1.409 . S
C937 C936 1.362 . S
H938 C944 0.930 . S
H939 C947 0.930 . S
H940 C948 0.930 . S
H941 C949 0.930 . S
H942 C952 0.930 . S
H943 C953 0.930 . S
C944 H938 0.930 . S
C944 C945 1.355 . S
C944 C946 1.415 . S
C945 C944 1.355 . S
C945 C947 1.419 . S
C946 C944 1.415 . S
C946 C951 1.425 . S
C946 C953 1.409 . S
C947 H939 0.930 . S
C947 C945 1.419 . S
C947 C948 1.362 . S
C948 H940 0.930 . S
C948 C947 1.362 . S
C948 C951 1.409 . S
C949 H941 0.930 . S
C949 C950 1.355 . S
C949 C951 1.415 . S
C950 C949 1.355 . S
C950 C952 1.419 . S
C951 C946 1.425 . S
C951 C948 1.409 . S
C951 C949 1.415 . S
C952 H942 0.930 . S
C952 C950 1.419 . S
C952 C953 1.362 . S
C953 H943 0.930 . S
C953 C946 1.409 . S
C953 C952 1.362 . S
H954 C960 0.930 . S
H955 C963 0.930 . S
H956 C964 0.930 . S
H957 C965 0.930 . S
H958 C968 0.930 . S
H959 C969 0.930 . S
C960 H954 0.930 . S
C960 C961 1.355 . S
C960 C962 1.415 . S
C961 C960 1.355 . S
C961 C963 1.419 . S
C962 C960 1.415 . S
C962 C967 1.425 . S
C962 C969 1.409 . S
C963 H955 0.930 . S
C963 C961 1.419 . S
C963 C964 1.362 . S
C964 H956 0.930 . S
C964 C963 1.362 . S
C964 C967 1.409 . S
C965 H957 0.930 . S
C965 C966 1.355 . S
C965 C967 1.415 . S
C966 C965 1.355 . S
C966 C968 1.419 . S
C967 C962 1.425 . S
C967 C964 1.409 . S
C967 C965 1.415 . S
C968 H958 0.930 . S
C968 C966 1.419 . S
C968 C969 1.362 . S
C969 H959 0.930 . S
C969 C962 1.409 . S
C969 C968 1.362 . S
H970 C976 0.930 . S
H971 C979 0.930 . S
H972 C980 0.930 . S
H973 C981 0.930 . S
H974 C984 0.930 . S
H975 C985 0.930 . S
C976 H970 0.930 . S
C976 C977 1.355 . S
C976 C978 1.415 . S
C977 C976 1.355 . S
C977 C979 1.419 . S
C978 C976 1.415 . S
C978 C983 1.425 . S
C978 C985 1.409 . S
C979 H971 0.930 . S
C979 C977 1.419 . S
C979 C980 1.362 . S
C980 H972 0.930 . S
C980 C979 1.362 . S
C980 C983 1.409 . S
C981 H973 0.930 . S
C981 C982 1.355 . S
C981 C983 1.415 . S
C982 C981 1.355 . S
C982 C984 1.419 . S
C983 C978 1.425 . S
C983 C980 1.409 . S
C983 C981 1.415 . S
C984 H974 0.930 . S
C984 C982 1.419 . S
C984 C985 1.362 . S
C985 H975 0.930 . S
C985 C978 1.409 . S
C985 C984 1.362 . S
H986 C992 0.930 . S
H987 C995 0.930 . S
H988 C996 0.930 . S
H989 C997 0.930 . S
H990 C1000 0.930 . S
H991 C1001 0.930 . S
C992 H986 0.930 . S
C992 C993 1.355 . S
C992 C994 1.415 . S
C993 C992 1.355 . S
C993 C995 1.419 . S
C994 C992 1.415 . S
C994 C999 1.425 . S
C994 C1001 1.409 . S
C995 H987 0.930 . S
C995 C993 1.419 . S
C995 C996 1.362 . S
C996 H988 0.930 . S
C996 C995 1.362 . S
C996 C999 1.409 . S
C997 H989 0.930 . S
C997 C998 1.355 . S
C997 C999 1.415 . S
C998 C997 1.355 . S
C998 C1000 1.419 . S
C999 C994 1.425 . S
C999 C996 1.409 . S
C999 C997 1.415 . S
C1000 H990 0.930 . S
C1000 C998 1.419 . S
C1000 C1001 1.362 . S
C1001 H991 0.930 . S
C1001 C994 1.409 . S
C1001 C1000 1.362 . S
H1002 C1008 0.930 . S
H1003 C1011 0.930 . S
H1004 C1012 0.930 . S
H1005 C1013 0.930 . S
H1006 C1016 0.930 . S
H1007 C1017 0.930 . S
C1008 H1002 0.930 . S
C1008 C1009 1.355 . S
C1008 C1010 1.415 . S
C1009 C1008 1.355 . S
C1009 C1011 1.419 . S
C1010 C1008 1.415 . S
C1010 C1015 1.425 . S
C1010 C1017 1.409 1_556 S
C1011 H1003 0.930 . S
C1011 C1009 1.419 . S
C1011 C1012 1.362 . S
C1012 H1004 0.930 . S
C1012 C1011 1.362 . S
C1012 C1015 1.409 . S
C1013 H1005 0.930 . S
C1013 C1014 1.355 . S
C1013 C1015 1.415 1_554 S
C1014 C1013 1.355 . S
C1014 C1016 1.419 . S
C1015 C1010 1.425 . S
C1015 C1012 1.409 . S
C1015 C1013 1.415 1_556 S
C1016 H1006 0.930 . S
C1016 C1014 1.419 . S
C1016 C1017 1.362 . S
C1017 H1007 0.930 . S
C1017 C1010 1.409 1_554 S
C1017 C1016 1.362 . S
H1018 C1024 0.930 . S
H1019 C1027 0.930 . S
H1020 C1028 0.930 . S
H1021 C1029 0.930 . S
H1022 C1032 0.930 . S
H1023 C1033 0.930 . S
C1024 H1018 0.930 . S
C1024 C1025 1.355 . S
C1024 C1026 1.415 . S
C1025 C1024 1.355 . S
C1025 C1027 1.419 . S
C1026 C1024 1.415 . S
C1026 C1031 1.425 . S
C1026 C1033 1.409 . S
C1027 H1019 0.930 . S
C1027 C1025 1.419 . S
C1027 C1028 1.362 . S
C1028 H1020 0.930 . S
C1028 C1027 1.362 . S
C1028 C1031 1.409 . S
C1029 H1021 0.930 . S
C1029 C1030 1.355 . S
C1029 C1031 1.415 . S
C1030 C1029 1.355 . S
C1030 C1032 1.419 . S
C1031 C1026 1.425 . S
C1031 C1028 1.409 . S
C1031 C1029 1.415 . S
C1032 H1022 0.930 . S
C1032 C1030 1.419 . S
C1032 C1033 1.362 . S
C1033 H1023 0.930 . S
C1033 C1026 1.409 . S
C1033 C1032 1.362 . S
H1034 C1040 0.930 . S
H1035 C1043 0.930 . S
H1036 C1044 0.930 . S
H1037 C1045 0.930 . S
H1038 C1048 0.930 . S
H1039 C1049 0.930 . S
C1040 H1034 0.930 . S
C1040 C1041 1.355 . S
C1040 C1042 1.415 . S
C1041 C1040 1.355 . S
C1041 C1043 1.419 . S
C1042 C1040 1.415 . S
C1042 C1047 1.425 . S
C1042 C1049 1.409 . S
C1043 H1035 0.930 . S
C1043 C1041 1.419 . S
C1043 C1044 1.362 . S
C1044 H1036 0.930 . S
C1044 C1043 1.362 . S
C1044 C1047 1.409 . S
C1045 H1037 0.930 . S
C1045 C1046 1.355 . S
C1045 C1047 1.415 . S
C1046 C1045 1.355 . S
C1046 C1048 1.419 . S
C1047 C1042 1.425 . S
C1047 C1044 1.409 . S
C1047 C1045 1.415 . S
C1048 H1038 0.930 . S
C1048 C1046 1.419 . S
C1048 C1049 1.362 . S
C1049 H1039 0.930 . S
C1049 C1042 1.409 . S
C1049 C1048 1.362 . S
H1050 C1056 0.930 . S
H1051 C1059 0.930 . S
H1052 C1060 0.930 . S
H1053 C1061 0.930 . S
H1054 C1064 0.930 . S
H1055 C1065 0.930 . S
C1056 H1050 0.930 . S
C1056 C1057 1.355 . S
C1056 C1058 1.415 . S
C1057 C1056 1.355 . S
C1057 C1059 1.419 . S
C1058 C1056 1.415 . S
C1058 C1063 1.425 . S
C1058 C1065 1.409 . S
C1059 H1051 0.930 . S
C1059 C1057 1.419 . S
C1059 C1060 1.362 . S
C1060 H1052 0.930 . S
C1060 C1059 1.362 . S
C1060 C1063 1.409 . S
C1061 H1053 0.930 . S
C1061 C1062 1.355 . S
C1061 C1063 1.415 . S
C1062 C1061 1.355 . S
C1062 C1064 1.419 . S
C1063 C1058 1.425 . S
C1063 C1060 1.409 . S
C1063 C1061 1.415 . S
C1064 H1054 0.930 . S
C1064 C1062 1.419 . S
C1064 C1065 1.362 . S
C1065 H1055 0.930 . S
C1065 C1058 1.409 . S
C1065 C1064 1.362 . S
H1066 C1072 0.930 . S
H1067 C1075 0.930 . S
H1068 C1076 0.930 . S
H1069 C1077 0.930 . S
H1070 C1080 0.930 . S
H1071 C1081 0.930 . S
C1072 H1066 0.930 . S
C1072 C1073 1.355 . S
C1072 C1074 1.415 . S
C1073 C1072 1.355 . S
C1073 C1075 1.419 . S
C1074 C1072 1.415 . S
C1074 C1079 1.425 . S
C1074 C1081 1.409 . S
C1075 H1067 0.930 . S
C1075 C1073 1.419 . S
C1075 C1076 1.362 . S
C1076 H1068 0.930 . S
C1076 C1075 1.362 . S
C1076 C1079 1.409 . S
C1077 H1069 0.930 . S
C1077 C1078 1.355 . S
C1077 C1079 1.415 . S
C1078 C1077 1.355 . S
C1078 C1080 1.419 . S
C1079 C1074 1.425 . S
C1079 C1076 1.409 . S
C1079 C1077 1.415 . S
C1080 H1070 0.930 . S
C1080 C1078 1.419 . S
C1080 C1081 1.362 . S
C1081 H1071 0.930 . S
C1081 C1074 1.409 . S
C1081 C1080 1.362 . S
H1082 C1088 0.930 . S
H1083 C1091 0.930 . S
H1084 C1092 0.930 . S
H1085 C1093 0.930 . S
H1086 C1096 0.930 . S
H1087 C1097 0.930 . S
C1088 H1082 0.930 . S
C1088 C1089 1.355 . S
C1088 C1090 1.415 . S
C1089 C1088 1.355 . S
C1089 C1091 1.419 . S
C1090 C1088 1.415 . S
C1090 C1095 1.425 . S
C1090 C1097 1.409 . S
C1091 H1083 0.930 . S
C1091 C1089 1.419 . S
C1091 C1092 1.362 . S
C1092 H1084 0.930 . S
C1092 C1091 1.362 . S
C1092 C1095 1.409 . S
C1093 H1085 0.930 . S
C1093 C1094 1.355 . S
C1093 C1095 1.415 . S
C1094 C1093 1.355 . S
C1094 C1096 1.419 . S
C1095 C1090 1.425 . S
C1095 C1092 1.409 . S
C1095 C1093 1.415 . S
C1096 H1086 0.930 . S
C1096 C1094 1.419 . S
C1096 C1097 1.362 . S
C1097 H1087 0.930 . S
C1097 C1090 1.409 . S
C1097 C1096 1.362 . S
H1098 C1104 0.930 . S
H1099 C1107 0.930 . S
H1100 C1108 0.930 . S
H1101 C1109 0.930 . S
H1102 C1112 0.930 . S
H1103 C1113 0.930 . S
C1104 H1098 0.930 . S
C1104 C1105 1.355 . S
C1104 C1106 1.415 . S
C1105 C1104 1.355 . S
C1105 C1107 1.419 . S
C1106 C1104 1.415 . S
C1106 C1111 1.425 . S
C1106 C1113 1.409 . S
C1107 H1099 0.930 . S
C1107 C1105 1.419 . S
C1107 C1108 1.362 . S
C1108 H1100 0.930 . S
C1108 C1107 1.362 . S
C1108 C1111 1.409 . S
C1109 H1101 0.930 . S
C1109 C1110 1.355 . S
C1109 C1111 1.415 . S
C1110 C1109 1.355 . S
C1110 C1112 1.419 . S
C1111 C1106 1.425 . S
C1111 C1108 1.409 . S
C1111 C1109 1.415 . S
C1112 H1102 0.930 . S
C1112 C1110 1.419 . S
C1112 C1113 1.362 . S
C1113 H1103 0.930 . S
C1113 C1106 1.409 . S
C1113 C1112 1.362 . S
H1114 C1120 0.930 . S
H1115 C1123 0.930 . S
H1116 C1124 0.930 . S
H1117 C1125 0.930 . S
H1118 C1128 0.930 . S
H1119 C1129 0.930 . S
C1120 H1114 0.930 . S
C1120 C1121 1.355 . S
C1120 C1122 1.415 1_554 S
C1121 C1120 1.355 . S
C1121 C1123 1.419 . S
C1122 C1120 1.415 1_556 S
C1122 C1127 1.425 . S
C1122 C1129 1.409 . S
C1123 H1115 0.930 . S
C1123 C1121 1.419 . S
C1123 C1124 1.362 . S
C1124 H1116 0.930 . S
C1124 C1123 1.362 . S
C1124 C1127 1.409 1_554 S
C1125 H1117 0.930 . S
C1125 C1126 1.355 . S
C1125 C1127 1.415 . S
C1126 C1125 1.355 . S
C1126 C1128 1.419 . S
C1127 C1122 1.425 . S
C1127 C1124 1.409 1_556 S
C1127 C1125 1.415 . S
C1128 H1118 0.930 . S
C1128 C1126 1.419 . S
C1128 C1129 1.362 . S
C1129 H1119 0.930 . S
C1129 C1122 1.409 . S
C1129 C1128 1.362 . S
H1130 C1136 0.930 . S
H1131 C1139 0.930 . S
H1132 C1140 0.930 . S
H1133 C1141 0.930 . S
H1134 C1144 0.930 . S
H1135 C1145 0.930 . S
C1136 H1130 0.930 . S
C1136 C1137 1.355 . S
C1136 C1138 1.415 . S
C1137 C1136 1.355 . S
C1137 C1139 1.419 . S
C1138 C1136 1.415 . S
C1138 C1143 1.425 . S
C1138 C1145 1.409 . S
C1139 H1131 0.930 . S
C1139 C1137 1.419 . S
C1139 C1140 1.362 . S
C1140 H1132 0.930 . S
C1140 C1139 1.362 . S
C1140 C1143 1.409 . S
C1141 H1133 0.930 . S
C1141 C1142 1.355 . S
C1141 C1143 1.415 . S
C1142 C1141 1.355 . S
C1142 C1144 1.419 . S
C1143 C1138 1.425 . S
C1143 C1140 1.409 . S
C1143 C1141 1.415 . S
C1144 H1134 0.930 . S
C1144 C1142 1.419 . S
C1144 C1145 1.362 . S
C1145 H1135 0.930 . S
C1145 C1138 1.409 . S
C1145 C1144 1.362 . S
C774 C754 1.584 . S
C769 C1 1.221 . S
C785 C169 1.344 . S
C790 C689 1.727 . S
C801 C283 1.335 . S
C806 C707 1.687 . S
C817 C397 1.293 . S
C822 C720 1.543 . S
C838 C728 1.435 . S
C833 C457 1.114 . S
C849 C571 1.202 . S
C854 C740 1.461 . S
C865 C115 1.248 . S
C870 C702 1.607 . S
C881 C229 1.042 . S
C886 C715 1.464 . S
C897 C343 1.179 . S
C902 C733 1.433 . S
C918 C739 1.553 . S
C913 C511 1.307 . S
C934 C759 1.691 . S
C929 C625 1.292 . S
C950 C694 1.732 . S
C945 C55 1.351 . S
C961 C29 1.277 . S
C966 C700 1.553 . S
C977 C125 1.002 . S
C982 C713 1.657 . S
C998 C727 1.557 . S
C993 C239 0.765 . S
C1009 C353 0.952 . S
C1014 C741 1.582 . S
C1030 C753 1.481 . S
C1025 C485 1.193 . S
C1046 C688 1.556 . S
C1041 C599 1.234 . S
C1062 C752 1.560 . S
C1057 C143 1.292 . S
C1073 C257 1.344 . S
C1078 C687 1.543 . S
C1094 C701 1.486 . S
C1089 C371 1.237 . S
C1105 C467 0.797 . S
C1110 C714 1.547 . S
C1121 C581 0.976 . S
C1126 C726 1.598 . S
C1137 C11 0.993 . S
C1142 C746 1.646 . S
