# Generated by pormake.
# Topology eea, (3,6)-cn, num edge types: 1
# Building blocks:
#     Node 0, Type 0, BuildingBlock: VETTIZ_charged_linker_0, # of connection points: 3
#     Node 1, Type 0, BuildingBlock: VETTIZ_charged_linker_0, # of connection points: 3
#     Node 2, Type 0, BuildingBlock: VETTIZ_charged_linker_0, # of connection points: 3
#     Node 3, Type 0, BuildingBlock: VETTIZ_charged_linker_0, # of connection points: 3
#     Node 4, Type 0, BuildingBlock: VETTIZ_charged_linker_0, # of connection points: 3
#     Node 5, Type 0, BuildingBlock: VETTIZ_charged_linker_0, # of connection points: 3
#     Node 6, Type 0, BuildingBlock: VETTIZ_charged_linker_0, # of connection points: 3
#     Node 7, Type 0, BuildingBlock: VETTIZ_charged_linker_0, # of connection points: 3
#     Node 8, Type 0, BuildingBlock: VETTIZ_charged_linker_0, # of connection points: 3
#     Node 9, Type 0, BuildingBlock: VETTIZ_charged_linker_0, # of connection points: 3
#     Node 10, Type 0, BuildingBlock: VETTIZ_charged_linker_0, # of connection points: 3
#     Node 11, Type 0, BuildingBlock: VETTIZ_charged_linker_0, # of connection points: 3
#     Node 12, Type 0, BuildingBlock: VETTIZ_charged_linker_0, # of connection points: 3
#     Node 13, Type 0, BuildingBlock: VETTIZ_charged_linker_0, # of connection points: 3
#     Node 14, Type 0, BuildingBlock: VETTIZ_charged_linker_0, # of connection points: 3
#     Node 15, Type 0, BuildingBlock: VETTIZ_charged_linker_0, # of connection points: 3
#     Node 16, Type 0, BuildingBlock: VETTIZ_charged_linker_0, # of connection points: 3
#     Node 17, Type 0, BuildingBlock: VETTIZ_charged_linker_0, # of connection points: 3
#     Node 18, Type 1, BuildingBlock: NUHQIS_clean_sbu_0, # of connection points: 6
#     Node 19, Type 1, BuildingBlock: NUHQIS_clean_sbu_0, # of connection points: 6
#     Node 20, Type 1, BuildingBlock: NUHQIS_clean_sbu_0, # of connection points: 6
#     Node 21, Type 1, BuildingBlock: NUHQIS_clean_sbu_0, # of connection points: 6
#     Node 22, Type 1, BuildingBlock: NUHQIS_clean_sbu_0, # of connection points: 6
#     Node 23, Type 1, BuildingBlock: NUHQIS_clean_sbu_0, # of connection points: 6
#     Node 24, Type 1, BuildingBlock: NUHQIS_clean_sbu_0, # of connection points: 6
#     Node 25, Type 1, BuildingBlock: NUHQIS_clean_sbu_0, # of connection points: 6
#     Node 26, Type 1, BuildingBlock: NUHQIS_clean_sbu_0, # of connection points: 6
#     Edge 27, Type (0, 1), BuildingBlock: TEMPAE_clean_linker_10, # of connection points: 2
#     Edge 28, Type (0, 1), BuildingBlock: TEMPAE_clean_linker_10, # of connection points: 2
#     Edge 29, Type (0, 1), BuildingBlock: TEMPAE_clean_linker_10, # of connection points: 2
#     Edge 30, Type (0, 1), BuildingBlock: TEMPAE_clean_linker_10, # of connection points: 2
#     Edge 31, Type (0, 1), BuildingBlock: TEMPAE_clean_linker_10, # of connection points: 2
#     Edge 32, Type (0, 1), BuildingBlock: TEMPAE_clean_linker_10, # of connection points: 2
#     Edge 33, Type (0, 1), BuildingBlock: TEMPAE_clean_linker_10, # of connection points: 2
#     Edge 34, Type (0, 1), BuildingBlock: TEMPAE_clean_linker_10, # of connection points: 2
#     Edge 35, Type (0, 1), BuildingBlock: TEMPAE_clean_linker_10, # of connection points: 2
#     Edge 36, Type (0, 1), BuildingBlock: TEMPAE_clean_linker_10, # of connection points: 2
#     Edge 37, Type (0, 1), BuildingBlock: TEMPAE_clean_linker_10, # of connection points: 2
#     Edge 38, Type (0, 1), BuildingBlock: TEMPAE_clean_linker_10, # of connection points: 2
#     Edge 39, Type (0, 1), BuildingBlock: TEMPAE_clean_linker_10, # of connection points: 2
#     Edge 40, Type (0, 1), BuildingBlock: TEMPAE_clean_linker_10, # of connection points: 2
#     Edge 41, Type (0, 1), BuildingBlock: TEMPAE_clean_linker_10, # of connection points: 2
#     Edge 42, Type (0, 1), BuildingBlock: TEMPAE_clean_linker_10, # of connection points: 2
#     Edge 43, Type (0, 1), BuildingBlock: TEMPAE_clean_linker_10, # of connection points: 2
#     Edge 44, Type (0, 1), BuildingBlock: TEMPAE_clean_linker_10, # of connection points: 2
#     Edge 45, Type (0, 1), BuildingBlock: TEMPAE_clean_linker_10, # of connection points: 2
#     Edge 46, Type (0, 1), BuildingBlock: TEMPAE_clean_linker_10, # of connection points: 2
#     Edge 47, Type (0, 1), BuildingBlock: TEMPAE_clean_linker_10, # of connection points: 2
#     Edge 48, Type (0, 1), BuildingBlock: TEMPAE_clean_linker_10, # of connection points: 2
#     Edge 49, Type (0, 1), BuildingBlock: TEMPAE_clean_linker_10, # of connection points: 2
#     Edge 50, Type (0, 1), BuildingBlock: TEMPAE_clean_linker_10, # of connection points: 2
#     Edge 51, Type (0, 1), BuildingBlock: TEMPAE_clean_linker_10, # of connection points: 2
#     Edge 52, Type (0, 1), BuildingBlock: TEMPAE_clean_linker_10, # of connection points: 2
#     Edge 53, Type (0, 1), BuildingBlock: TEMPAE_clean_linker_10, # of connection points: 2
#     Edge 54, Type (0, 1), BuildingBlock: TEMPAE_clean_linker_10, # of connection points: 2
#     Edge 55, Type (0, 1), BuildingBlock: TEMPAE_clean_linker_10, # of connection points: 2
#     Edge 56, Type (0, 1), BuildingBlock: TEMPAE_clean_linker_10, # of connection points: 2
#     Edge 57, Type (0, 1), BuildingBlock: TEMPAE_clean_linker_10, # of connection points: 2
#     Edge 58, Type (0, 1), BuildingBlock: TEMPAE_clean_linker_10, # of connection points: 2
#     Edge 59, Type (0, 1), BuildingBlock: TEMPAE_clean_linker_10, # of connection points: 2
#     Edge 60, Type (0, 1), BuildingBlock: TEMPAE_clean_linker_10, # of connection points: 2
#     Edge 61, Type (0, 1), BuildingBlock: TEMPAE_clean_linker_10, # of connection points: 2
#     Edge 62, Type (0, 1), BuildingBlock: TEMPAE_clean_linker_10, # of connection points: 2
#     Edge 63, Type (0, 1), BuildingBlock: TEMPAE_clean_linker_10, # of connection points: 2
#     Edge 64, Type (0, 1), BuildingBlock: TEMPAE_clean_linker_10, # of connection points: 2
#     Edge 65, Type (0, 1), BuildingBlock: TEMPAE_clean_linker_10, # of connection points: 2
#     Edge 66, Type (0, 1), BuildingBlock: TEMPAE_clean_linker_10, # of connection points: 2
#     Edge 67, Type (0, 1), BuildingBlock: TEMPAE_clean_linker_10, # of connection points: 2
#     Edge 68, Type (0, 1), BuildingBlock: TEMPAE_clean_linker_10, # of connection points: 2
#     Edge 69, Type (0, 1), BuildingBlock: TEMPAE_clean_linker_10, # of connection points: 2
#     Edge 70, Type (0, 1), BuildingBlock: TEMPAE_clean_linker_10, # of connection points: 2
#     Edge 71, Type (0, 1), BuildingBlock: TEMPAE_clean_linker_10, # of connection points: 2
#     Edge 72, Type (0, 1), BuildingBlock: TEMPAE_clean_linker_10, # of connection points: 2
#     Edge 73, Type (0, 1), BuildingBlock: TEMPAE_clean_linker_10, # of connection points: 2
#     Edge 74, Type (0, 1), BuildingBlock: TEMPAE_clean_linker_10, # of connection points: 2
#     Edge 75, Type (0, 1), BuildingBlock: TEMPAE_clean_linker_10, # of connection points: 2
#     Edge 76, Type (0, 1), BuildingBlock: TEMPAE_clean_linker_10, # of connection points: 2
#     Edge 77, Type (0, 1), BuildingBlock: TEMPAE_clean_linker_10, # of connection points: 2
#     Edge 78, Type (0, 1), BuildingBlock: TEMPAE_clean_linker_10, # of connection points: 2
#     Edge 79, Type (0, 1), BuildingBlock: TEMPAE_clean_linker_10, # of connection points: 2
#     Edge 80, Type (0, 1), BuildingBlock: TEMPAE_clean_linker_10, # of connection points: 2
# Relax obj value: 0.035
# Max RMSD: 0.134
# Mean RMSD: 0.075
data_MOF--net-eea--node1-NUHQIS_clean_sbu_0--node2-VETTIZ_charged_linker_0--edge1-TEMPAE_clean_linker_10
_symmetry_space_group_name_H-M    P1
_symmetry_Int_Tables_number       1
_symmetry_cell_setting            triclinic
loop_
_symmetry_equiv_pos_as_xyz
'x, y, z'
_cell_length_a     62.449829
_cell_length_b     62.672505
_cell_length_c     91.269655
_cell_angle_alpha  93.409544
_cell_angle_beta   93.334629
_cell_angle_gamma 119.80893
loop_
_atom_site_label
_atom_site_type_symbol
_atom_site_fract_x
_atom_site_fract_y
_atom_site_fract_z
_atom_type_partial_charge
C0 C 0.25756 0.19288 0.38938 0.0
C1 C 0.25962 0.21461 0.39618 0.0
C2 C 0.27142 0.22332 0.41067 0.0
C3 C 0.27721 0.18792 0.41162 0.0
C4 C 0.26639 0.1799 0.39725 0.0
C5 C 0.2645 0.1559 0.39178 0.0
H6 H 0.27502 0.057 0.40612 0.0
C7 C 0.28305 0.16936 0.4169 0.0
C8 C 0.27577 0.15066 0.40527 0.0
H9 H 0.2465 0.07011 0.36543 0.0
H10 H 0.25701 0.11071 0.37602 0.0
H11 H 0.32379 0.11215 0.41243 0.0
H12 H 0.25088 0.07826 0.42716 0.0
H13 H 0.27192 0.09623 0.44248 0.0
H14 H 0.27398 0.07098 0.43357 0.0
H15 H 0.3148 0.09081 0.4262 0.0
H16 H 0.32752 0.12354 0.431 0.0
C17 C 0.28045 0.16053 0.37866 0.0
C18 C 0.23661 0.13643 0.388 0.0
C19 C 0.31656 0.17767 0.47035 0.0
C20 C 0.32228 0.16249 0.47852 0.0
C21 C 0.3202 0.14095 0.47124 0.0
C22 C 0.31212 0.13438 0.45619 0.0
C23 C 0.3058 0.14933 0.44828 0.0
C24 C 0.30838 0.17075 0.4553 0.0
C25 C 0.30072 0.18429 0.44507 0.0
C26 C 0.29294 0.16733 0.43082 0.0
C27 C 0.29581 0.14681 0.43283 0.0
C28 C 0.32368 0.20988 0.44375 0.0
C29 C 0.27858 0.18542 0.45112 0.0
C30 C 0.27144 0.06881 0.39943 0.0
C31 C 0.25976 0.06034 0.38498 0.0
C32 C 0.25516 0.07615 0.37667 0.0
C33 C 0.26131 0.09972 0.38284 0.0
C34 C 0.27197 0.10752 0.39753 0.0
C35 C 0.27729 0.09235 0.40548 0.0
C36 C 0.28831 0.10362 0.42099 0.0
C37 C 0.28842 0.1279 0.42108 0.0
C38 C 0.27869 0.12998 0.40734 0.0
C39 C 0.31494 0.10766 0.42291 0.0
C40 C 0.27059 0.08645 0.43171 0.0
H41 H 0.2887 0.21746 0.42947 0.0
H42 H 0.24894 0.18591 0.37818 0.0
H43 H 0.22507 0.13952 0.39575 0.0
H44 H 0.23237 0.11732 0.38911 0.0
H45 H 0.22992 0.13744 0.37666 0.0
H46 H 0.29712 0.17936 0.38023 0.0
H47 H 0.26975 0.15899 0.36811 0.0
H48 H 0.28794 0.14788 0.37756 0.0
H49 H 0.31825 0.19449 0.47556 0.0
H50 H 0.32417 0.12875 0.47728 0.0
H51 H 0.31064 0.11761 0.45137 0.0
H52 H 0.3409 0.20871 0.44416 0.0
H53 H 0.32611 0.22362 0.45292 0.0
H54 H 0.32283 0.21711 0.43312 0.0
H55 H 0.26588 0.16783 0.45565 0.0
H56 H 0.26685 0.18768 0.44257 0.0
H57 H 0.2851 0.20062 0.46014 0.0
H58 H 0.27314 0.23998 0.41617 0.0
C59 C 0.28026 0.21012 0.41841 0.0
C60 C 0.95757 0.1798 0.39566 0.0
C61 C 0.97818 0.20249 0.40149 0.0
C62 C 0.9786 0.212 0.41599 0.0
C63 C 0.93833 0.17642 0.41846 0.0
C64 C 0.93803 0.16719 0.40425 0.0
C65 C 0.91504 0.14277 0.39959 0.0
H66 H 0.80719 0.04746 0.41618 0.0
C67 C 0.91519 0.15844 0.4244 0.0
C68 C 0.90156 0.1387 0.41334 0.0
H69 H 0.84059 0.05631 0.37514 0.0
H70 H 0.87425 0.09642 0.38508 0.0
H71 H 0.85642 0.06765 0.4372 0.0
H72 H 0.81718 0.10292 0.42097 0.0
H73 H 0.82801 0.11522 0.4394 0.0
H74 H 0.80668 0.08249 0.4352 0.0
H75 H 0.82842 0.06322 0.44426 0.0
H76 H 0.85851 0.08816 0.4519 0.0
C77 C 0.92293 0.12321 0.39642 0.0
C78 C 0.90067 0.14601 0.38628 0.0
C79 C 0.89727 0.1739 0.47672 0.0
C80 C 0.87774 0.15944 0.4851 0.0
C81 C 0.85827 0.13636 0.47867 0.0
C82 C 0.85817 0.12764 0.46421 0.0
C83 C 0.87783 0.14203 0.45599 0.0
C84 C 0.89703 0.16472 0.46223 0.0
C85 C 0.91663 0.17693 0.45181 0.0
C86 C 0.90574 0.15799 0.43829 0.0
C87 C 0.88298 0.13766 0.44088 0.0
C88 C 0.94117 0.17969 0.45883 0.0
C89 C 0.9183 0.20165 0.44863 0.0
C90 C 0.82182 0.05804 0.40937 0.0
C91 C 0.8213 0.0487 0.39488 0.0
C92 C 0.84048 0.0632 0.38629 0.0
C93 C 0.8601 0.08643 0.39213 0.0
C94 C 0.86059 0.09535 0.40672 0.0
C95 C 0.84151 0.08133 0.41501 0.0
C96 C 0.8449 0.09392 0.4302 0.0
C97 C 0.86935 0.11769 0.42972 0.0
C98 C 0.87849 0.11834 0.41599 0.0
C99 C 0.84702 0.07746 0.44158 0.0
C100 C 0.82306 0.09882 0.43168 0.0
H101 H 0.96012 0.20737 0.43539 0.0
H102 H 0.95676 0.17178 0.38465 0.0
H103 H 0.90326 0.16496 0.38707 0.0
H104 H 0.88039 0.1336 0.38579 0.0
H105 H 0.9072 0.14305 0.37569 0.0
H106 H 0.93887 0.12675 0.40433 0.0
H107 H 0.92874 0.12364 0.38511 0.0
H108 H 0.90828 0.10423 0.3978 0.0
H109 H 0.91255 0.19165 0.48144 0.0
H110 H 0.84289 0.12508 0.48484 0.0
H111 H 0.84276 0.10994 0.46002 0.0
H112 H 0.9375 0.16349 0.46488 0.0
H113 H 0.95122 0.19651 0.46681 0.0
H114 H 0.95363 0.18027 0.45058 0.0
H115 H 0.89945 0.1994 0.44709 0.0
H116 H 0.92672 0.20843 0.43837 0.0
H117 H 0.92901 0.21617 0.45794 0.0
H118 H 0.99415 0.22958 0.42071 0.0
C119 C 0.95878 0.19913 0.42448 0.0
C120 C 0.96221 0.79121 0.40367 0.0
C121 C 0.9821 0.7888 0.40957 0.0
C122 C 0.98118 0.78047 0.42367 0.0
C123 C 0.94064 0.77643 0.42548 0.0
C124 C 0.94192 0.78513 0.41179 0.0
C125 C 0.91972 0.78737 0.40714 0.0
H126 H 0.80805 0.77277 0.42045 0.0
C127 C 0.91673 0.7715 0.43084 0.0
C128 C 0.90456 0.77808 0.42011 0.0
H129 H 0.84972 0.80313 0.38339 0.0
H130 H 0.8824 0.79685 0.39356 0.0
H131 H 0.8189 0.72792 0.42183 0.0
H132 H 0.85427 0.80074 0.44504 0.0
H133 H 0.85287 0.78051 0.45795 0.0
H134 H 0.82448 0.77642 0.44882 0.0
H135 H 0.80532 0.73592 0.43642 0.0
H136 H 0.82674 0.72496 0.44007 0.0
C137 C 0.90643 0.77005 0.39275 0.0
C138 C 0.92865 0.81505 0.40575 0.0
C139 C 0.8907 0.73415 0.47956 0.0
C140 C 0.869 0.72668 0.48672 0.0
C141 C 0.85003 0.73006 0.48017 0.0
C142 C 0.85239 0.74041 0.46676 0.0
C143 C 0.87397 0.74755 0.45968 0.0
C144 C 0.89272 0.74439 0.46603 0.0
C145 C 0.91415 0.75286 0.45668 0.0
C146 C 0.9051 0.76157 0.44372 0.0
C147 C 0.88155 0.75845 0.44562 0.0
C148 C 0.91685 0.73029 0.45188 0.0
C149 C 0.93749 0.77441 0.46567 0.0
C150 C 0.82416 0.77789 0.41449 0.0
C151 C 0.82632 0.78853 0.40111 0.0
C152 C 0.84773 0.7952 0.3938 0.0
C153 C 0.86667 0.79144 0.39971 0.0
C154 C 0.86435 0.78095 0.41313 0.0
C155 C 0.84338 0.77442 0.42031 0.0
C156 C 0.84437 0.76392 0.43458 0.0
C157 C 0.86944 0.76539 0.43482 0.0
C158 C 0.88095 0.77524 0.42219 0.0
C159 C 0.82267 0.73682 0.43333 0.0
C160 C 0.8438 0.78105 0.44734 0.0
H161 H 0.96085 0.76776 0.44223 0.0
H162 H 0.96256 0.798 0.393 0.0
H163 H 0.94563 0.82732 0.41336 0.0
H164 H 0.915 0.82036 0.40894 0.0
H165 H 0.93314 0.8198 0.39437 0.0
H166 H 0.90642 0.75234 0.39321 0.0
H167 H 0.91591 0.7787 0.38301 0.0
H168 H 0.88669 0.76465 0.39084 0.0
H169 H 0.90558 0.7317 0.48424 0.0
H170 H 0.83333 0.72491 0.48552 0.0
H171 H 0.83723 0.74244 0.46245 0.0
H172 H 0.89831 0.7136 0.44874 0.0
H173 H 0.9263 0.72609 0.461 0.0
H174 H 0.92703 0.73276 0.44206 0.0
H175 H 0.93257 0.78649 0.47236 0.0
H176 H 0.95132 0.78677 0.45863 0.0
H177 H 0.94641 0.76737 0.47337 0.0
H178 H 0.99628 0.77843 0.42844 0.0
C179 C 0.96055 0.77418 0.43163 0.0
C180 C 0.16347 0.21275 0.60286 0.0
C181 C 0.18671 0.21961 0.59791 0.0
C182 C 0.19335 0.23229 0.58522 0.0
C183 C 0.15367 0.23072 0.58246 0.0
C184 C 0.14745 0.21875 0.59511 0.0
C185 C 0.12266 0.21407 0.59935 0.0
H186 H 0.0198 0.2231 0.58574 0.0
C187 C 0.13288 0.2342 0.57706 0.0
C188 C 0.1148 0.22476 0.58701 0.0
H189 H 0.03942 0.19364 0.62256 0.0
H190 H 0.07736 0.20227 0.61257 0.0
H191 H 0.07529 0.27083 0.58469 0.0
H192 H 0.03791 0.1981 0.56081 0.0
H193 H 0.05387 0.21975 0.5484 0.0
H194 H 0.0293 0.22085 0.55725 0.0
H195 H 0.04927 0.26077 0.57112 0.0
H196 H 0.08043 0.2738 0.56597 0.0
C197 C 0.12685 0.22865 0.6146 0.0
C198 C 0.10529 0.18575 0.59893 0.0
C199 C 0.13581 0.27112 0.5286 0.0
C200 C 0.11938 0.27631 0.52045 0.0
C201 C 0.09698 0.27119 0.52622 0.0
C202 C 0.09106 0.26105 0.53974 0.0
C203 C 0.10766 0.25588 0.54768 0.0
C204 C 0.12964 0.26101 0.54207 0.0
C205 C 0.14519 0.25451 0.55197 0.0
C206 C 0.12879 0.24424 0.56434 0.0
C207 C 0.1068 0.24509 0.56183 0.0
C208 C 0.16984 0.27859 0.55741 0.0
C209 C 0.14845 0.23448 0.54329 0.0
C210 C 0.03238 0.21869 0.59168 0.0
C211 C 0.02644 0.20753 0.60496 0.0
C212 C 0.04326 0.20185 0.61223 0.0
C213 C 0.06545 0.20705 0.60645 0.0
C214 C 0.07111 0.21812 0.59321 0.0
C215 C 0.05472 0.22374 0.58601 0.0
C216 C 0.06392 0.23525 0.57196 0.0
C217 C 0.08867 0.23598 0.5721 0.0
C218 C 0.09269 0.22586 0.58458 0.0
C219 C 0.06731 0.26151 0.57335 0.0
C220 C 0.04531 0.2178 0.55885 0.0
H221 H 0.18297 0.24726 0.56777 0.0
H222 H 0.15812 0.20338 0.61275 0.0
H223 H 0.10823 0.17593 0.58939 0.0
H224 H 0.08543 0.18004 0.59741 0.0
H225 H 0.10892 0.17874 0.60912 0.0
H226 H 0.14545 0.24567 0.61622 0.0
H227 H 0.12569 0.21731 0.62374 0.0
H228 H 0.11368 0.23543 0.61579 0.0
H229 H 0.15303 0.2745 0.52449 0.0
H230 H 0.0841 0.27529 0.52034 0.0
H231 H 0.07379 0.25766 0.54351 0.0
H232 H 0.16727 0.29495 0.55799 0.0
H233 H 0.18433 0.28204 0.54987 0.0
H234 H 0.17699 0.27845 0.56875 0.0
H235 H 0.13072 0.22054 0.53683 0.0
H236 H 0.15357 0.22385 0.55048 0.0
H237 H 0.16267 0.2428 0.53543 0.0
H238 H 0.21121 0.23775 0.58125 0.0
C239 C 0.17692 0.23775 0.57742 0.0
C240 C 0.74912 0.80872 0.61639 0.0
C241 C 0.74588 0.78644 0.60973 0.0
C242 C 0.7315 0.77624 0.59604 0.0
C243 C 0.7252 0.81137 0.59538 0.0
C244 C 0.73843 0.82068 0.60913 0.0
C245 C 0.73979 0.84432 0.61483 0.0
H246 H 0.72177 0.93937 0.6022 0.0
C247 C 0.71758 0.82893 0.5906 0.0
C248 C 0.72572 0.84805 0.60208 0.0
H249 H 0.75519 0.92875 0.64186 0.0
H250 H 0.74536 0.88837 0.63124 0.0
H251 H 0.74539 0.91843 0.57975 0.0
H252 H 0.6747 0.88455 0.59732 0.0
H253 H 0.6691 0.8715 0.57897 0.0
H254 H 0.68126 0.90434 0.58279 0.0
H255 H 0.72151 0.9254 0.57465 0.0
H256 H 0.72284 0.90018 0.56508 0.0
C257 C 0.76749 0.86482 0.61705 0.0
C258 C 0.72621 0.83984 0.62902 0.0
C259 C 0.67921 0.81858 0.53809 0.0
C260 C 0.67211 0.83315 0.53029 0.0
C261 C 0.67353 0.85418 0.53784 0.0
C262 C 0.6825 0.86099 0.55276 0.0
C263 C 0.6904 0.8468 0.56026 0.0
C264 C 0.68827 0.82573 0.55302 0.0
C265 C 0.6974 0.81286 0.56288 0.0
C266 C 0.70581 0.83002 0.5771 0.0
C267 C 0.70182 0.84994 0.57541 0.0
C268 C 0.71933 0.81243 0.55606 0.0
C269 C 0.67528 0.78695 0.5647 0.0
C270 C 0.7269 0.92827 0.60858 0.0
C271 C 0.73944 0.93726 0.62282 0.0
C272 C 0.74541 0.92214 0.6309 0.0
C273 C 0.73986 0.89879 0.62466 0.0
C274 C 0.7283 0.8905 0.61017 0.0
C275 C 0.72149 0.90491 0.60252 0.0
C276 C 0.70912 0.893 0.58731 0.0
C277 C 0.70989 0.86915 0.58705 0.0
C278 C 0.72143 0.86799 0.60037 0.0
C279 C 0.72531 0.91005 0.57601 0.0
C280 C 0.68218 0.88818 0.5864 0.0
H281 H 0.7107 0.78023 0.57827 0.0
H282 H 0.75972 0.81662 0.62707 0.0
H283 H 0.71162 0.82012 0.62899 0.0
H284 H 0.71615 0.85016 0.63003 0.0
H285 H 0.73932 0.84478 0.63906 0.0
H286 H 0.77744 0.8632 0.60771 0.0
H287 H 0.77683 0.86334 0.62736 0.0
H288 H 0.77033 0.88366 0.61736 0.0
H289 H 0.67799 0.80212 0.53266 0.0
H290 H 0.66843 0.86587 0.53208 0.0
H291 H 0.68346 0.87739 0.55778 0.0
H292 H 0.73203 0.83068 0.55222 0.0
H293 H 0.71258 0.79827 0.54641 0.0
H294 H 0.73096 0.80889 0.56394 0.0
H295 H 0.65744 0.78697 0.56391 0.0
H296 H 0.67659 0.78086 0.57567 0.0
H297 H 0.67364 0.77288 0.55601 0.0
H298 H 0.72874 0.75896 0.59081 0.0
C299 C 0.72117 0.78865 0.58879 0.0
C300 C 0.05167 0.81544 0.6113 0.0
C301 C 0.03212 0.79235 0.60513 0.0
C302 C 0.03355 0.78295 0.591 0.0
C303 C 0.07315 0.81998 0.58933 0.0
C304 C 0.07178 0.82883 0.60328 0.0
C305 C 0.09359 0.85387 0.60832 0.0
H306 H 0.20145 0.95242 0.59499 0.0
C307 C 0.09643 0.83893 0.58396 0.0
C308 C 0.1084 0.85875 0.59513 0.0
H309 H 0.16205 0.94212 0.63375 0.0
H310 H 0.13053 0.90146 0.62314 0.0
H311 H 0.19385 0.89745 0.59097 0.0
H312 H 0.15437 0.93069 0.57203 0.0
H313 H 0.15478 0.91086 0.5578 0.0
H314 H 0.18369 0.93642 0.56644 0.0
H315 H 0.20557 0.91828 0.57702 0.0
H316 H 0.1854 0.88544 0.57236 0.0
C317 C 0.10751 0.85156 0.62223 0.0
C318 C 0.08394 0.87224 0.61072 0.0
C319 C 0.11937 0.82665 0.53254 0.0
C320 C 0.13997 0.84146 0.52496 0.0
C321 C 0.15884 0.86436 0.53205 0.0
C322 C 0.1574 0.87241 0.54637 0.0
C323 C 0.1368 0.85754 0.5538 0.0
C324 C 0.11823 0.83501 0.54696 0.0
C325 C 0.0979 0.82175 0.55679 0.0
C326 C 0.10732 0.84019 0.57052 0.0
C327 C 0.13009 0.86112 0.56861 0.0
C328 C 0.09689 0.79728 0.55989 0.0
C329 C 0.07346 0.81833 0.54916 0.0
C330 C 0.18614 0.94124 0.60123 0.0
C331 C 0.18416 0.95044 0.6152 0.0
C332 C 0.16381 0.9355 0.6229 0.0
C333 C 0.14556 0.91186 0.61672 0.0
C334 C 0.14755 0.90304 0.60264 0.0
C335 C 0.16762 0.91762 0.59516 0.0
C336 C 0.16634 0.90538 0.58019 0.0
C337 C 0.14214 0.88106 0.57993 0.0
C338 C 0.13131 0.87983 0.5931 0.0
C339 C 0.18898 0.9015 0.57996 0.0
C340 C 0.16489 0.92161 0.56842 0.0
H341 H 0.05388 0.78868 0.57231 0.0
H342 H 0.05137 0.82304 0.62221 0.0
H343 H 0.06725 0.86688 0.60296 0.0
H344 H 0.09743 0.89122 0.60846 0.0
H345 H 0.07869 0.87271 0.6221 0.0
H346 H 0.10697 0.83351 0.62139 0.0
H347 H 0.09895 0.85274 0.63235 0.0
H348 H 0.12745 0.86558 0.6237 0.0
H349 H 0.10462 0.8089 0.52743 0.0
H350 H 0.17467 0.87635 0.52641 0.0
H351 H 0.17238 0.89005 0.55105 0.0
H352 H 0.11589 0.79991 0.56132 0.0
H353 H 0.08624 0.78267 0.55062 0.0
H354 H 0.0888 0.79043 0.57023 0.0
H355 H 0.07689 0.83524 0.54397 0.0
H356 H 0.05955 0.81534 0.55691 0.0
H357 H 0.06518 0.80262 0.54034 0.0
H358 H 0.01864 0.76523 0.58597 0.0
C359 C 0.05395 0.79665 0.58306 0.0
C360 C 0.92196 0.52265 0.72223 0.0
C361 C 0.924 0.54412 0.7294 0.0
C362 C 0.93542 0.5521 0.74399 0.0
C363 C 0.94103 0.5165 0.7443 0.0
C364 C 0.93053 0.50921 0.72984 0.0
C365 C 0.92876 0.48547 0.72392 0.0
H366 H 0.93917 0.38579 0.73607 0.0
C367 C 0.9468 0.49767 0.74918 0.0
C368 C 0.93978 0.47956 0.73723 0.0
H369 H 0.91119 0.401 0.69596 0.0
H370 H 0.92157 0.44111 0.70732 0.0
H371 H 0.98785 0.44077 0.74328 0.0
H372 H 0.91471 0.40616 0.75774 0.0
H373 H 0.93581 0.42307 0.77326 0.0
H374 H 0.93757 0.39819 0.76358 0.0
H375 H 0.97876 0.41887 0.75672 0.0
H376 H 0.99136 0.45147 0.76197 0.0
C377 C 0.94501 0.49085 0.71089 0.0
C378 C 0.90091 0.46609 0.71984 0.0
C379 C 0.97966 0.50347 0.80245 0.0
C380 C 0.98561 0.48808 0.81024 0.0
C381 C 0.98376 0.46693 0.80255 0.0
C382 C 0.97569 0.46096 0.78747 0.0
C383 C 0.96921 0.47616 0.77994 0.0
C384 C 0.97157 0.4972 0.78737 0.0
C385 C 0.96399 0.51121 0.77749 0.0
C386 C 0.95648 0.49496 0.76297 0.0
C387 C 0.95941 0.47436 0.76453 0.0
C388 C 0.98692 0.53701 0.7766 0.0
C389 C 0.94169 0.51187 0.78363 0.0
C390 C 0.93569 0.39798 0.72968 0.0
C391 C 0.9242 0.39022 0.71515 0.0
C392 C 0.91972 0.40648 0.70724 0.0
C393 C 0.92578 0.42976 0.71386 0.0
C394 C 0.93622 0.43682 0.72862 0.0
C395 C 0.94144 0.42124 0.73619 0.0
C396 C 0.95224 0.43175 0.75184 0.0
C397 C 0.95227 0.45604 0.75245 0.0
C398 C 0.94274 0.45879 0.73885 0.0
C399 C 0.97889 0.43583 0.7537 0.0
C400 C 0.93439 0.41393 0.76225 0.0
H401 H 0.95215 0.5452 0.76263 0.0
H402 H 0.91364 0.51625 0.71095 0.0
H403 H 0.88919 0.46879 0.72762 0.0
H404 H 0.89664 0.44689 0.72064 0.0
H405 H 0.89447 0.4676 0.70855 0.0
H406 H 0.96163 0.5097 0.71278 0.0
H407 H 0.93449 0.48977 0.70037 0.0
H408 H 0.95258 0.47831 0.70954 0.0
H409 H 0.98121 0.52003 0.80799 0.0
H410 H 0.98797 0.45462 0.8083 0.0
H411 H 0.97441 0.44448 0.78233 0.0
H412 H 0.00422 0.53597 0.77697 0.0
H413 H 0.98909 0.55031 0.78597 0.0
H414 H 0.98626 0.54474 0.76613 0.0
H415 H 0.92884 0.49389 0.78772 0.0
H416 H 0.93018 0.51473 0.77524 0.0
H417 H 0.948 0.52649 0.793 0.0
H418 H 0.93712 0.56857 0.74976 0.0
C419 C 0.94397 0.53842 0.75147 0.0
C420 C 0.62738 0.51685 0.73037 0.0
C421 C 0.64828 0.5391 0.73645 0.0
C422 C 0.6487 0.54837 0.75101 0.0
C423 C 0.60739 0.51386 0.75282 0.0
C424 C 0.6073 0.50471 0.73864 0.0
C425 C 0.58368 0.48117 0.73348 0.0
H426 H 0.47111 0.39017 0.74713 0.0
C427 C 0.58322 0.49689 0.75815 0.0
C428 C 0.56933 0.47777 0.74679 0.0
H429 H 0.50842 0.39689 0.70776 0.0
H430 H 0.54259 0.4362 0.71828 0.0
H431 H 0.52007 0.41021 0.7706 0.0
H432 H 0.48213 0.44436 0.75092 0.0
H433 H 0.49498 0.46084 0.76837 0.0
H434 H 0.47218 0.42828 0.76699 0.0
H435 H 0.48961 0.40375 0.77435 0.0
H436 H 0.51699 0.42878 0.78461 0.0
C437 C 0.59009 0.46042 0.73067 0.0
C438 C 0.5711 0.48573 0.7198 0.0
C439 C 0.5632 0.51314 0.80969 0.0
C440 C 0.54153 0.50099 0.81689 0.0
C441 C 0.52056 0.47996 0.80952 0.0
C442 C 0.52109 0.4709 0.79527 0.0
C443 C 0.5428 0.48304 0.78819 0.0
C444 C 0.5633 0.50402 0.79525 0.0
C445 C 0.58415 0.51512 0.78551 0.0
C446 C 0.57286 0.49705 0.77162 0.0
C447 C 0.54873 0.47818 0.7734 0.0
C448 C 0.60681 0.51479 0.79303 0.0
C449 C 0.58906 0.54123 0.78272 0.0
C450 C 0.48672 0.40014 0.74082 0.0
C451 C 0.48715 0.39042 0.72663 0.0
C452 C 0.50757 0.40411 0.71866 0.0
C453 C 0.5275 0.42686 0.72485 0.0
C454 C 0.52706 0.43612 0.73917 0.0
C455 C 0.50677 0.42297 0.74683 0.0
C456 C 0.50937 0.43592 0.7618 0.0
C457 C 0.5349 0.4587 0.76199 0.0
C458 C 0.54514 0.45861 0.74875 0.0
C459 C 0.50886 0.41886 0.77355 0.0
C460 C 0.48858 0.44262 0.76218 0.0
H461 H 0.62969 0.54391 0.77019 0.0
H462 H 0.62659 0.50893 0.71933 0.0
H463 H 0.57462 0.50502 0.7207 0.0
H464 H 0.55068 0.47403 0.71864 0.0
H465 H 0.57833 0.48278 0.7095 0.0
H466 H 0.60572 0.46333 0.73863 0.0
H467 H 0.59571 0.45998 0.71939 0.0
H468 H 0.57473 0.44191 0.73231 0.0
H469 H 0.57948 0.52951 0.81509 0.0
H470 H 0.50376 0.47027 0.81493 0.0
H471 H 0.50456 0.4547 0.79035 0.0
H472 H 0.60087 0.49708 0.79792 0.0
H473 H 0.61662 0.53007 0.80205 0.0
H474 H 0.62018 0.51607 0.78525 0.0
H475 H 0.57139 0.54156 0.7816 0.0
H476 H 0.59733 0.54728 0.77232 0.0
H477 H 0.60126 0.55513 0.792 0.0
H478 H 0.66453 0.56557 0.75595 0.0
C479 C 0.62837 0.53588 0.75922 0.0
C480 C 0.62873 0.12391 0.73732 0.0
C481 C 0.64638 0.11734 0.7418 0.0
C482 C 0.64315 0.10451 0.75442 0.0
C483 C 0.60528 0.1054 0.75795 0.0
C484 C 0.60833 0.11755 0.7454 0.0
C485 C 0.58728 0.12204 0.74154 0.0
H486 H 0.47683 0.10982 0.75574 0.0
C487 C 0.58192 0.10146 0.76368 0.0
C488 C 0.57124 0.11098 0.75395 0.0
H489 H 0.51962 0.14239 0.71944 0.0
H490 H 0.55147 0.1345 0.72905 0.0
H491 H 0.48662 0.06332 0.75599 0.0
H492 H 0.52205 0.13535 0.78023 0.0
H493 H 0.52318 0.11537 0.79251 0.0
H494 H 0.49346 0.1104 0.785 0.0
H495 H 0.47224 0.07224 0.76967 0.0
H496 H 0.49189 0.05981 0.77461 0.0
C497 C 0.5741 0.10764 0.72629 0.0
C498 C 0.59794 0.15035 0.74219 0.0
C499 C 0.55554 0.06281 0.81202 0.0
C500 C 0.53493 0.05737 0.81992 0.0
C501 C 0.51698 0.06283 0.81407 0.0
C502 C 0.51931 0.0733 0.80071 0.0
C503 C 0.53988 0.07857 0.79295 0.0
C504 C 0.55761 0.07335 0.79859 0.0
C505 C 0.57813 0.08022 0.78866 0.0
C506 C 0.57002 0.09089 0.77637 0.0
C507 C 0.54749 0.08972 0.77896 0.0
C508 C 0.5779 0.05633 0.78297 0.0
C509 C 0.60282 0.09996 0.79744 0.0
C510 C 0.49299 0.11506 0.74982 0.0
C511 C 0.49566 0.12673 0.73678 0.0
C512 C 0.5172 0.13362 0.72957 0.0
C513 C 0.53563 0.12886 0.73513 0.0
C514 C 0.53267 0.11709 0.74811 0.0
C515 C 0.51171 0.11055 0.75529 0.0
C516 C 0.51209 0.09878 0.76914 0.0
C517 C 0.53645 0.09882 0.76889 0.0
C518 C 0.54835 0.10951 0.75652 0.0
C519 C 0.4895 0.07217 0.76742 0.0
C520 C 0.51254 0.11561 0.78247 0.0
H521 H 0.62145 0.08903 0.77213 0.0
H522 H 0.63049 0.13337 0.72752 0.0
H523 H 0.61304 0.16023 0.75136 0.0
H524 H 0.58411 0.15587 0.74449 0.0
H525 H 0.60583 0.15753 0.73178 0.0
H526 H 0.57493 0.09033 0.72466 0.0
H527 H 0.58295 0.11889 0.71716 0.0
H528 H 0.55408 0.10137 0.72509 0.0
H529 H 0.56959 0.0587 0.81609 0.0
H530 H 0.50117 0.05932 0.81997 0.0
H531 H 0.50498 0.07696 0.79696 0.0
H532 H 0.55864 0.04032 0.7813 0.0
H533 H 0.58878 0.05177 0.79095 0.0
H534 H 0.58502 0.05746 0.77207 0.0
H535 H 0.60025 0.11413 0.80375 0.0
H536 H 0.61757 0.11022 0.79032 0.0
H537 H 0.60959 0.09143 0.80546 0.0
H538 H 0.65655 0.09925 0.75806 0.0
C539 C 0.6228 0.09865 0.76257 0.0
C540 C 0.82986 0.54826 0.93622 0.0
C541 C 0.8527 0.55404 0.93099 0.0
C542 C 0.8585 0.56485 0.9176 0.0
C543 C 0.81907 0.5638 0.91491 0.0
C544 C 0.81349 0.55338 0.92809 0.0
C545 C 0.78871 0.5488 0.93226 0.0
H546 H 0.68543 0.55688 0.91806 0.0
C547 C 0.79809 0.5668 0.90925 0.0
C548 C 0.78031 0.55817 0.91942 0.0
H549 H 0.70432 0.52643 0.95457 0.0
H550 H 0.74263 0.53549 0.94483 0.0
H551 H 0.74161 0.60446 0.91638 0.0
H552 H 0.70284 0.53104 0.89336 0.0
H553 H 0.71883 0.5521 0.88068 0.0
H554 H 0.69463 0.55397 0.8895 0.0
H555 H 0.71506 0.59414 0.90318 0.0
H556 H 0.74584 0.60653 0.89749 0.0
C557 C 0.79313 0.56466 0.94702 0.0
C558 C 0.77168 0.52058 0.93277 0.0
C559 C 0.80022 0.60124 0.85998 0.0
C560 C 0.7838 0.60628 0.85172 0.0
C561 C 0.76175 0.60199 0.85762 0.0
C562 C 0.75606 0.5926 0.87137 0.0
C563 C 0.77257 0.5874 0.87939 0.0
C564 C 0.79429 0.59189 0.87367 0.0
C565 C 0.80987 0.58563 0.88372 0.0
C566 C 0.79376 0.57617 0.89629 0.0
C567 C 0.77187 0.57722 0.89375 0.0
C568 C 0.83472 0.60973 0.88876 0.0
C569 C 0.81271 0.56505 0.87538 0.0
C570 C 0.698 0.55239 0.92396 0.0
C571 C 0.6919 0.54097 0.93713 0.0
C572 C 0.70852 0.53505 0.94438 0.0
C573 C 0.73082 0.54043 0.93871 0.0
C574 C 0.73669 0.55174 0.92555 0.0
C575 C 0.72034 0.55737 0.9183 0.0
C576 C 0.72937 0.56836 0.90409 0.0
C577 C 0.75398 0.56877 0.90419 0.0
C578 C 0.75815 0.55914 0.91687 0.0
C579 C 0.73308 0.59473 0.9052 0.0
C580 C 0.71047 0.55066 0.89116 0.0
H581 H 0.84733 0.57784 0.89941 0.0
H582 H 0.82496 0.54023 0.94656 0.0
H583 H 0.77627 0.50986 0.92465 0.0
H584 H 0.7519 0.51421 0.92965 0.0
H585 H 0.77374 0.51502 0.94386 0.0
H586 H 0.8104 0.58292 0.94739 0.0
H587 H 0.79513 0.55538 0.95657 0.0
H588 H 0.77834 0.5691 0.94861 0.0
H589 H 0.81755 0.60473 0.85596 0.0
H590 H 0.74866 0.60554 0.85149 0.0
H591 H 0.73897 0.58967 0.87521 0.0
H592 H 0.8321 0.62607 0.88952 0.0
H593 H 0.8487 0.61308 0.88087 0.0
H594 H 0.84254 0.60977 0.89994 0.0
H595 H 0.79503 0.55137 0.86876 0.0
H596 H 0.81703 0.55414 0.88281 0.0
H597 H 0.82728 0.57289 0.86768 0.0
H598 H 0.87586 0.56927 0.91325 0.0
C599 C 0.84184 0.56971 0.90954 0.0
C600 C 0.40272 0.13026 0.95351 0.0
C601 C 0.40004 0.10799 0.94716 0.0
C602 C 0.38712 0.09816 0.93301 0.0
C603 C 0.38191 0.1338 0.93129 0.0
C604 C 0.39364 0.14282 0.94541 0.0
C605 C 0.39641 0.16744 0.95027 0.0
H606 H 0.3896 0.26717 0.93302 0.0
C607 C 0.37651 0.15234 0.9255 0.0
C608 C 0.38484 0.172 0.93663 0.0
H609 H 0.41676 0.25527 0.97463 0.0
H610 H 0.40468 0.21373 0.96508 0.0
H611 H 0.41221 0.24214 0.91259 0.0
H612 H 0.34004 0.21393 0.92788 0.0
H613 H 0.33518 0.20022 0.90975 0.0
H614 H 0.34951 0.23341 0.91315 0.0
H615 H 0.39044 0.25105 0.906 0.0
H616 H 0.39025 0.2242 0.8976 0.0
C617 C 0.42452 0.18649 0.95343 0.0
C618 C 0.38126 0.16441 0.96365 0.0
C619 C 0.34133 0.14079 0.87208 0.0
C620 C 0.33643 0.15595 0.86335 0.0
C621 C 0.34003 0.17856 0.86997 0.0
C622 C 0.34873 0.18616 0.88489 0.0
C623 C 0.35422 0.17117 0.89334 0.0
C624 C 0.35023 0.14877 0.88698 0.0
C625 C 0.35752 0.13553 0.89766 0.0
C626 C 0.36649 0.1537 0.91145 0.0
C627 C 0.36465 0.1746 0.90879 0.0
C628 C 0.37875 0.1327 0.89159 0.0
C629 C 0.33407 0.11079 0.89979 0.0
C630 C 0.39296 0.25558 0.94005 0.0
C631 C 0.40433 0.26454 0.95454 0.0
C632 C 0.40792 0.24874 0.96345 0.0
C633 C 0.40106 0.22468 0.95784 0.0
C634 C 0.39062 0.21633 0.94314 0.0
C635 C 0.38622 0.2315 0.93461 0.0
C636 C 0.37461 0.21934 0.91932 0.0
C637 C 0.37315 0.19451 0.92002 0.0
C638 C 0.38282 0.19301 0.93392 0.0
C639 C 0.39258 0.23493 0.9082 0.0
C640 C 0.34854 0.21665 0.91727 0.0
H641 H 0.36876 0.10278 0.91423 0.0
H642 H 0.4122 0.13806 0.96446 0.0
H643 H 0.36486 0.14545 0.96302 0.0
H644 H 0.37339 0.17679 0.96405 0.0
H645 H 0.39269 0.16761 0.97421 0.0
H646 H 0.4352 0.18303 0.94521 0.0
H647 H 0.43186 0.18529 0.96455 0.0
H648 H 0.42905 0.20573 0.95256 0.0
H649 H 0.33856 0.1232 0.8674 0.0
H650 H 0.33684 0.19084 0.86351 0.0
H651 H 0.35135 0.20369 0.88918 0.0
H652 H 0.39145 0.14933 0.88623 0.0
H653 H 0.37129 0.11644 0.88321 0.0
H654 H 0.39077 0.1311 0.90026 0.0
H655 H 0.31742 0.11296 0.89959 0.0
H656 H 0.3352 0.10416 0.9106 0.0
H657 H 0.33045 0.0962 0.89088 0.0
H658 H 0.38487 0.08104 0.92788 0.0
C659 C 0.37798 0.11092 0.92506 0.0
C660 C 0.71372 0.1554 0.94173 0.0
C661 C 0.69312 0.13296 0.93559 0.0
C662 C 0.69277 0.12399 0.92097 0.0
C663 C 0.73343 0.15939 0.91907 0.0
C664 C 0.73348 0.16824 0.93333 0.0
C665 C 0.75648 0.19252 0.93827 0.0
H666 H 0.86584 0.28725 0.92299 0.0
C667 C 0.75698 0.17725 0.91349 0.0
C668 C 0.77045 0.19671 0.92473 0.0
H669 H 0.83018 0.27935 0.96311 0.0
H670 H 0.79678 0.23911 0.95306 0.0
H671 H 0.85717 0.23369 0.91927 0.0
H672 H 0.81654 0.26588 0.90065 0.0
H673 H 0.81809 0.24678 0.88636 0.0
H674 H 0.84637 0.27234 0.89557 0.0
H675 H 0.86635 0.25063 0.90346 0.0
H676 H 0.84484 0.21772 0.90168 0.0
C677 C 0.77028 0.18893 0.95172 0.0
C678 C 0.74869 0.2122 0.94135 0.0
C679 C 0.77759 0.1614 0.86202 0.0
C680 C 0.79871 0.17471 0.85451 0.0
C681 C 0.81853 0.1972 0.8614 0.0
C682 C 0.81756 0.20629 0.87552 0.0
C683 C 0.79654 0.19283 0.88297 0.0
C684 C 0.777 0.17073 0.8763 0.0
C685 C 0.7565 0.15891 0.88622 0.0
C686 C 0.76713 0.17757 0.89988 0.0
C687 C 0.7905 0.19742 0.89777 0.0
C688 C 0.75351 0.13364 0.88942 0.0
C689 C 0.73285 0.15728 0.87864 0.0
C690 C 0.85076 0.27685 0.92957 0.0
C691 C 0.85053 0.28649 0.94381 0.0
C692 C 0.83083 0.27222 0.95214 0.0
C693 C 0.81137 0.24894 0.94623 0.0
C694 C 0.8116 0.23977 0.93184 0.0
C695 C 0.83124 0.25356 0.92385 0.0
C696 C 0.82863 0.24076 0.90886 0.0
C697 C 0.80386 0.21724 0.90903 0.0
C698 C 0.79395 0.2168 0.92246 0.0
C699 C 0.85037 0.2355 0.90813 0.0
C700 C 0.8275 0.25722 0.89716 0.0
H701 H 0.71157 0.12924 0.90168 0.0
H702 H 0.71437 0.163 0.95283 0.0
H703 H 0.7325 0.20845 0.9336 0.0
H704 H 0.76326 0.23105 0.93963 0.0
H705 H 0.74334 0.21223 0.95274 0.0
H706 H 0.76838 0.17027 0.95055 0.0
H707 H 0.76266 0.19069 0.96213 0.0
H708 H 0.79048 0.20196 0.95286 0.0
H709 H 0.76211 0.14402 0.85701 0.0
H710 H 0.83479 0.20799 0.85575 0.0
H711 H 0.83327 0.22354 0.88006 0.0
H712 H 0.77194 0.135 0.89118 0.0
H713 H 0.74264 0.11934 0.88003 0.0
H714 H 0.74463 0.12705 0.89958 0.0
H715 H 0.73761 0.17399 0.87285 0.0
H716 H 0.71986 0.15665 0.88653 0.0
H717 H 0.72298 0.14089 0.87032 0.0
H718 H 0.67713 0.10666 0.91603 0.0
C719 C 0.71283 0.13706 0.9127 0.0
C720 C 0.58363 0.84849 0.05551 0.0
C721 C 0.58476 0.86949 0.06273 0.0
C722 C 0.59424 0.8765 0.07771 0.0
C723 C 0.60083 0.84155 0.07806 0.0
C724 C 0.59168 0.83484 0.06335 0.0
C725 C 0.5908 0.81152 0.05743 0.0
H726 H 0.60361 0.71324 0.07002 0.0
C727 C 0.60707 0.82309 0.083 0.0
C728 C 0.60129 0.8055 0.07094 0.0
H729 H 0.57495 0.72743 0.02978 0.0
H730 H 0.58451 0.76736 0.04103 0.0
H731 H 0.65127 0.76794 0.07708 0.0
H732 H 0.57839 0.73352 0.09193 0.0
H733 H 0.60027 0.74945 0.10734 0.0
H734 H 0.60106 0.72478 0.09677 0.0
H735 H 0.64327 0.74779 0.09148 0.0
H736 H 0.65497 0.78056 0.09537 0.0
C737 C 0.608 0.81772 0.04486 0.0
C738 C 0.56326 0.79174 0.0527 0.0
C739 C 0.63889 0.82919 0.1365 0.0
C740 C 0.64631 0.8148 0.14426 0.0
C741 C 0.64647 0.79477 0.13644 0.0
C742 C 0.63866 0.7887 0.12133 0.0
C743 C 0.63058 0.80278 0.11387 0.0
C744 C 0.6313 0.82297 0.12137 0.0
C745 C 0.62294 0.83635 0.11147 0.0
C746 C 0.6167 0.82059 0.09686 0.0
C747 C 0.6209 0.80077 0.0984 0.0
C748 C 0.64507 0.86282 0.11096 0.0
C749 C 0.59967 0.83536 0.11728 0.0
C750 C 0.59981 0.72517 0.06358 0.0
C751 C 0.58833 0.71715 0.04906 0.0
C752 C 0.58346 0.73309 0.04107 0.0
C753 C 0.58903 0.75626 0.04762 0.0
C754 C 0.59939 0.76353 0.06238 0.0
C755 C 0.60505 0.7483 0.07003 0.0
C756 C 0.61564 0.75897 0.08569 0.0
C757 C 0.61473 0.78277 0.08627 0.0
C758 C 0.60514 0.78526 0.0726 0.0
C759 C 0.64263 0.76398 0.08764 0.0
C760 C 0.59814 0.7408 0.09608 0.0
H761 H 0.60931 0.86891 0.09677 0.0
H762 H 0.57609 0.84243 0.04407 0.0
H763 H 0.55061 0.79457 0.05961 0.0
H764 H 0.55911 0.77275 0.0542 0.0
H765 H 0.55781 0.79254 0.04103 0.0
H766 H 0.62491 0.83622 0.04752 0.0
H767 H 0.59842 0.81804 0.0343 0.0
H768 H 0.615 0.80477 0.04316 0.0
H769 H 0.63845 0.84466 0.14212 0.0
H770 H 0.6527 0.78375 0.142 0.0
H771 H 0.639 0.77313 0.11607 0.0
H772 H 0.66299 0.86296 0.11175 0.0
H773 H 0.64598 0.87561 0.12025 0.0
H774 H 0.64451 0.87051 0.10045 0.0
H775 H 0.58751 0.8171 0.12129 0.0
H776 H 0.58779 0.83737 0.1087 0.0
H777 H 0.60494 0.8498 0.12662 0.0
H778 H 0.59551 0.89278 0.08346 0.0
C779 C 0.60235 0.86269 0.08539 0.0
C780 C 0.29398 0.85394 0.06475 0.0
C781 C 0.31367 0.87735 0.07037 0.0
C782 C 0.31235 0.88794 0.08414 0.0
C783 C 0.27252 0.8516 0.0865 0.0
C784 C 0.27385 0.84149 0.07293 0.0
C785 C 0.25196 0.81624 0.06848 0.0
H786 H 0.14303 0.72069 0.08332 0.0
C787 C 0.24909 0.83347 0.09213 0.0
C788 C 0.23708 0.81277 0.08154 0.0
H789 H 0.1831 0.72651 0.04529 0.0
H790 H 0.21504 0.76754 0.05499 0.0
H791 H 0.19009 0.74403 0.10686 0.0
H792 H 0.15125 0.77541 0.08484 0.0
H793 H 0.15991 0.78981 0.10297 0.0
H794 H 0.13939 0.75677 0.09977 0.0
H795 H 0.16051 0.73888 0.11159 0.0
H796 H 0.18916 0.76497 0.12007 0.0
C797 C 0.26144 0.79759 0.06716 0.0
C798 C 0.23819 0.81736 0.05411 0.0
C799 C 0.22539 0.85107 0.14226 0.0
C800 C 0.20446 0.83733 0.14987 0.0
C801 C 0.18544 0.81413 0.14322 0.0
C802 C 0.18708 0.80471 0.12935 0.0
C803 C 0.20802 0.81848 0.1219 0.0
C804 C 0.2267 0.84134 0.12826 0.0
C805 C 0.24734 0.85331 0.11844 0.0
C806 C 0.23799 0.83369 0.1053 0.0
C807 C 0.21498 0.81333 0.10751 0.0
C808 C 0.2715 0.85705 0.12669 0.0
C809 C 0.24882 0.87749 0.11417 0.0
C810 C 0.15861 0.73094 0.07705 0.0
C811 C 0.16062 0.72037 0.06355 0.0
C812 C 0.18132 0.73416 0.05581 0.0
C813 C 0.1998 0.75804 0.06144 0.0
C814 C 0.1977 0.76829 0.07503 0.0
C815 C 0.17736 0.75479 0.08258 0.0
C816 C 0.17852 0.7685 0.09697 0.0
C817 C 0.20294 0.79246 0.0968 0.0
C818 C 0.21399 0.7922 0.08392 0.0
C819 C 0.17945 0.75339 0.10961 0.0
C820 C 0.15608 0.77279 0.09627 0.0
H821 H 0.29204 0.88408 0.10269 0.0
H822 H 0.29415 0.84539 0.05412 0.0
H823 H 0.23855 0.83531 0.05423 0.0
H824 H 0.2183 0.80319 0.05266 0.0
H825 H 0.247 0.8155 0.04426 0.0
H826 H 0.27829 0.80366 0.07494 0.0
H827 H 0.26637 0.7957 0.05584 0.0
H828 H 0.24796 0.77911 0.07017 0.0
H829 H 0.24027 0.86901 0.14704 0.0
H830 H 0.16936 0.80293 0.14891 0.0
H831 H 0.17198 0.7869 0.12502 0.0
H832 H 0.26769 0.84071 0.13263 0.0
H833 H 0.27982 0.87352 0.13497 0.0
H834 H 0.28549 0.85898 0.11923 0.0
H835 H 0.22992 0.87498 0.11211 0.0
H836 H 0.25742 0.88337 0.10383 0.0
H837 H 0.25922 0.89276 0.12313 0.0
H838 H 0.32736 0.90588 0.0888 0.0
C839 C 0.2919 0.87519 0.09223 0.0
C840 C 0.29168 0.45064 0.06829 0.0
C841 C 0.31168 0.44867 0.07449 0.0
C842 C 0.31109 0.44166 0.08894 0.0
C843 C 0.2708 0.43829 0.09056 0.0
C844 C 0.27169 0.44561 0.0765 0.0
C845 C 0.2495 0.44775 0.07162 0.0
H846 H 0.14127 0.44083 0.08611 0.0
C847 C 0.24732 0.4345 0.09603 0.0
C848 C 0.23495 0.44028 0.08496 0.0
H849 H 0.17879 0.46157 0.04661 0.0
H850 H 0.21107 0.45484 0.05698 0.0
H851 H 0.14827 0.39489 0.08925 0.0
H852 H 0.19074 0.46963 0.10966 0.0
H853 H 0.18696 0.44979 0.12337 0.0
H854 H 0.15999 0.44817 0.11387 0.0
H855 H 0.13826 0.40562 0.10461 0.0
H856 H 0.15852 0.39301 0.10716 0.0
C857 C 0.23544 0.42904 0.05782 0.0
C858 C 0.2587 0.47511 0.06909 0.0
C859 C 0.22278 0.40183 0.14601 0.0
C860 C 0.20164 0.39578 0.1535 0.0
C861 C 0.18318 0.40004 0.14706 0.0
C862 C 0.18541 0.40967 0.13342 0.0
C863 C 0.20632 0.41519 0.12596 0.0
C864 C 0.22466 0.41137 0.13226 0.0
C865 C 0.24551 0.41831 0.12258 0.0
C866 C 0.23635 0.4264 0.10936 0.0
C867 C 0.21341 0.42462 0.11148 0.0
C868 C 0.24718 0.39494 0.11836 0.0
C869 C 0.26951 0.43998 0.13097 0.0
C870 C 0.15657 0.44409 0.07977 0.0
C871 C 0.15752 0.45183 0.06553 0.0
C872 C 0.17751 0.45543 0.05754 0.0
C873 C 0.19634 0.45163 0.06363 0.0
C874 C 0.19523 0.44403 0.07788 0.0
C875 C 0.17547 0.44016 0.08565 0.0
C876 C 0.17698 0.43125 0.10044 0.0
C877 C 0.20121 0.431 0.1004 0.0
C878 C 0.21185 0.43861 0.08719 0.0
C879 C 0.15433 0.40491 0.10053 0.0
C880 C 0.17859 0.45051 0.11256 0.0
H881 H 0.2913 0.43093 0.10785 0.0
H882 H 0.29175 0.45639 0.05732 0.0
H883 H 0.27489 0.48786 0.07712 0.0
H884 H 0.24472 0.48064 0.07087 0.0
H885 H 0.26458 0.47891 0.05783 0.0
H886 H 0.23638 0.41187 0.05862 0.0
H887 H 0.2436 0.43695 0.0476 0.0
H888 H 0.21542 0.42273 0.05657 0.0
H889 H 0.23728 0.39874 0.15059 0.0
H890 H 0.16697 0.39606 0.15267 0.0
H891 H 0.17065 0.4124 0.12919 0.0
H892 H 0.22832 0.37859 0.1155 0.0
H893 H 0.25635 0.39085 0.12769 0.0
H894 H 0.25716 0.3964 0.10856 0.0
H895 H 0.26533 0.45254 0.13778 0.0
H896 H 0.28278 0.4519 0.12351 0.0
H897 H 0.27884 0.43311 0.13849 0.0
H898 H 0.32625 0.43994 0.09394 0.0
C899 C 0.29074 0.43636 0.09697 0.0
C900 C 0.4982 0.88294 0.27107 0.0
C901 C 0.51964 0.88593 0.26506 0.0
C902 C 0.5244 0.89446 0.251 0.0
C903 C 0.48677 0.89694 0.24926 0.0
C904 C 0.48203 0.88837 0.26298 0.0
C905 C 0.45798 0.88531 0.26755 0.0
H906 H 0.35474 0.89328 0.25301 0.0
C907 C 0.46618 0.90066 0.24376 0.0
C908 C 0.44919 0.89373 0.25438 0.0
H909 H 0.37568 0.86703 0.29095 0.0
H910 H 0.41345 0.87512 0.28095 0.0
H911 H 0.4111 0.94074 0.25047 0.0
H912 H 0.37184 0.86629 0.22879 0.0
H913 H 0.38687 0.88691 0.21567 0.0
H914 H 0.36298 0.88875 0.22487 0.0
H915 H 0.38442 0.92998 0.23732 0.0
H916 H 0.41506 0.94169 0.23153 0.0
C917 C 0.46395 0.90289 0.28177 0.0
C918 C 0.44039 0.85755 0.26921 0.0
C919 C 0.46856 0.93447 0.1943 0.0
C920 C 0.45245 0.93988 0.186 0.0
C921 C 0.43045 0.93587 0.19187 0.0
C922 C 0.42462 0.9266 0.20565 0.0
C923 C 0.44091 0.92118 0.21372 0.0
C924 C 0.46245 0.92516 0.20797 0.0
C925 C 0.47757 0.91822 0.2179 0.0
C926 C 0.4617 0.90953 0.23062 0.0
C927 C 0.44018 0.91127 0.22819 0.0
C928 C 0.50292 0.94181 0.22273 0.0
C929 C 0.47932 0.89694 0.20953 0.0
C930 C 0.36761 0.88948 0.25916 0.0
C931 C 0.36209 0.87933 0.27277 0.0
C932 C 0.37925 0.87446 0.28037 0.0
C933 C 0.40129 0.87929 0.27456 0.0
C934 C 0.40642 0.88906 0.26091 0.0
C935 C 0.38978 0.89404 0.25341 0.0
C936 C 0.39839 0.904 0.23889 0.0
C937 C 0.42281 0.90405 0.23895 0.0
C938 C 0.42737 0.89533 0.25194 0.0
C939 C 0.40236 0.93045 0.23943 0.0
C940 C 0.37904 0.88574 0.22632 0.0
H941 H 0.51292 0.90659 0.23251 0.0
H942 H 0.49384 0.87606 0.28175 0.0
H943 H 0.44423 0.84553 0.26165 0.0
H944 H 0.42066 0.85148 0.26615 0.0
H945 H 0.44261 0.85322 0.28064 0.0
H946 H 0.48135 0.92075 0.28126 0.0
H947 H 0.46654 0.89461 0.29167 0.0
H948 H 0.44964 0.90799 0.2834 0.0
H949 H 0.48581 0.93763 0.19033 0.0
H950 H 0.4175 0.93957 0.18571 0.0
H951 H 0.40759 0.9239 0.20945 0.0
H952 H 0.50056 0.95815 0.22484 0.0
H953 H 0.51576 0.9458 0.21403 0.0
H954 H 0.51203 0.94075 0.23317 0.0
H955 H 0.46234 0.88501 0.20184 0.0
H956 H 0.4805 0.88418 0.21696 0.0
H957 H 0.49543 0.90425 0.2029 0.0
H958 H 0.54087 0.89704 0.24618 0.0
C959 C 0.50817 0.90007 0.24311 0.0
C960 C 0.08444 0.48018 0.28405 0.0
C961 C 0.08404 0.45946 0.27698 0.0
C962 C 0.07319 0.45111 0.2623 0.0
C963 C 0.06408 0.48441 0.26186 0.0
C964 C 0.0745 0.49237 0.27631 0.0
C965 C 0.07465 0.51542 0.282 0.0
H966 H 0.05769 0.61074 0.26808 0.0
C967 C 0.05637 0.50177 0.25684 0.0
C968 C 0.06249 0.51995 0.2686 0.0
H969 H 0.0883 0.59938 0.30862 0.0
H970 H 0.07887 0.55907 0.29813 0.0
H971 H 0.08272 0.59048 0.24645 0.0
H972 H 0.01066 0.55545 0.26232 0.0
H973 H 0.00639 0.54238 0.24409 0.0
H974 H 0.01776 0.57512 0.24771 0.0
H975 H 0.05904 0.5976 0.24106 0.0
H976 H 0.06083 0.57278 0.23135 0.0
C977 C 0.10207 0.53614 0.28585 0.0
C978 C 0.05857 0.50943 0.29512 0.0
C979 C 0.01969 0.49109 0.2039 0.0
C980 C 0.01201 0.50508 0.19595 0.0
C981 C 0.01278 0.52589 0.20335 0.0
C982 C 0.02151 0.53295 0.2183 0.0
C983 C 0.0298 0.51922 0.22597 0.0
C984 C 0.02848 0.49847 0.21884 0.0
C985 C 0.03815 0.48619 0.2288 0.0
C986 C 0.04548 0.50305 0.24306 0.0
C987 C 0.04074 0.52245 0.24127 0.0
C988 C 0.06089 0.48697 0.22231 0.0
C989 C 0.01659 0.45985 0.23036 0.0
C990 C 0.06227 0.59948 0.27468 0.0
C991 C 0.07399 0.6083 0.28911 0.0
C992 C 0.0792 0.59295 0.29749 0.0
C993 C 0.07392 0.56965 0.29132 0.0
C994 C 0.06345 0.56165 0.27661 0.0
C995 C 0.05718 0.5762 0.26868 0.0
C996 C 0.04599 0.56461 0.25324 0.0
C997 C 0.04731 0.54107 0.25308 0.0
C998 C 0.05777 0.53959 0.26673 0.0
C999 C 0.06279 0.58221 0.24236 0.0
C1000 C 0.01884 0.5592 0.25161 0.0
H1001 H 0.05517 0.45621 0.24356 0.0
H1002 H 0.09293 0.48719 0.29527 0.0
H1003 H 0.04272 0.4901 0.29343 0.0
H1004 H 0.0499 0.52101 0.29637 0.0
H1005 H 0.06961 0.51144 0.30563 0.0
H1006 H 0.11415 0.53441 0.27794 0.0
H1007 H 0.10921 0.53519 0.29709 0.0
H1008 H 0.10498 0.55488 0.28508 0.0
H1009 H 0.01908 0.47484 0.19859 0.0
H1010 H 0.00729 0.5372 0.19747 0.0
H1011 H 0.02194 0.54915 0.22322 0.0
H1012 H 0.07162 0.50423 0.21695 0.0
H1013 H 0.05505 0.47111 0.21384 0.0
H1014 H 0.07439 0.48723 0.23078 0.0
H1015 H 0.99878 0.45977 0.23081 0.0
H1016 H 0.01904 0.45262 0.24068 0.0
H1017 H 0.0142 0.4467 0.22084 0.0
H1018 H 0.07245 0.43498 0.2567 0.0
C1019 C 0.0631 0.4634 0.25472 0.0
C1020 C 0.37562 0.48025 0.27344 0.0
C1021 C 0.35705 0.45613 0.26807 0.0
C1022 C 0.35831 0.4463 0.25403 0.0
C1023 C 0.39649 0.48423 0.25126 0.0
C1024 C 0.39502 0.49379 0.26497 0.0
C1025 C 0.41619 0.51951 0.26937 0.0
H1026 H 0.52372 0.61718 0.25456 0.0
C1027 C 0.41928 0.50321 0.24548 0.0
C1028 C 0.43083 0.52386 0.25612 0.0
H1029 H 0.48401 0.60974 0.29294 0.0
H1030 H 0.45209 0.56886 0.28286 0.0
H1031 H 0.51582 0.56235 0.25214 0.0
H1032 H 0.47695 0.59474 0.23137 0.0
H1033 H 0.47634 0.57335 0.21783 0.0
H1034 H 0.50577 0.59912 0.2257 0.0
H1035 H 0.5279 0.58262 0.23794 0.0
H1036 H 0.50799 0.54969 0.23363 0.0
C1037 C 0.4308 0.51901 0.28356 0.0
C1038 C 0.40551 0.5371 0.27101 0.0
C1039 C 0.44321 0.48753 0.19502 0.0
C1040 C 0.46371 0.50203 0.18729 0.0
C1041 C 0.48201 0.52566 0.1938 0.0
C1042 C 0.48014 0.53473 0.20772 0.0
C1043 C 0.45971 0.52012 0.21534 0.0
C1044 C 0.44166 0.49691 0.20906 0.0
C1045 C 0.42145 0.48412 0.21904 0.0
C1046 C 0.43029 0.50366 0.23218 0.0
C1047 C 0.45272 0.52466 0.22987 0.0
C1048 C 0.42143 0.46054 0.22321 0.0
C1049 C 0.39666 0.47917 0.211 0.0
C1050 C 0.50824 0.60662 0.26083 0.0
C1051 C 0.50637 0.61664 0.27457 0.0
C1052 C 0.48572 0.60249 0.28227 0.0
C1053 C 0.46727 0.5787 0.27642 0.0
C1054 C 0.4694 0.5689 0.26268 0.0
C1055 C 0.48957 0.58287 0.25511 0.0
C1056 C 0.48847 0.56968 0.24054 0.0
C1057 C 0.46437 0.54541 0.24066 0.0
C1058 C 0.45339 0.54504 0.25367 0.0
C1059 C 0.51124 0.56594 0.24092 0.0
C1060 C 0.48698 0.58494 0.22814 0.0
H1061 H 0.37794 0.4517 0.23505 0.0
H1062 H 0.37502 0.4886 0.28403 0.0
H1063 H 0.38864 0.53062 0.26317 0.0
H1064 H 0.41844 0.55598 0.2683 0.0
H1065 H 0.40021 0.53813 0.28233 0.0
H1066 H 0.43136 0.50151 0.28328 0.0
H1067 H 0.42201 0.5203 0.29355 0.0
H1068 H 0.45046 0.53379 0.28486 0.0
H1069 H 0.42889 0.46926 0.19033 0.0
H1070 H 0.49772 0.5374 0.18799 0.0
H1071 H 0.4947 0.55287 0.21196 0.0
H1072 H 0.44071 0.46395 0.22494 0.0
H1073 H 0.41117 0.44508 0.21434 0.0
H1074 H 0.41349 0.45448 0.23369 0.0
H1075 H 0.39948 0.49527 0.2051 0.0
H1076 H 0.38263 0.47651 0.21861 0.0
H1077 H 0.38882 0.46274 0.20273 0.0
H1078 H 0.34431 0.42771 0.24965 0.0
C1079 C 0.37793 0.46021 0.24561 0.0
Tb1080 Tb 0.4965 0.98348 0.98828 0.0
Eu1081 Eu 0.51657 0.01782 0.02052 0.0
C1082 C 0.52411 0.97144 0.01298 0.0
C1083 C 0.46496 0.96772 0.01552 0.0
C1084 C 0.49013 0.97177 0.94753 0.0
C1085 C 0.51609 0.98093 0.92716 0.0
C1086 C 0.50973 0.97154 0.9408 0.0
C1087 C 0.4768 0.9813 0.94014 0.0
C1088 C 0.48314 0.99066 0.92651 0.0
C1089 C 0.50293 0.99071 0.91984 0.0
C1090 C 0.48389 0.96245 0.96224 0.0
O1091 O 0.49733 0.01792 0.98551 0.0
O1092 O 0.48865 0.02508 0.00852 0.0
O1093 O 0.54249 0.04153 0.0046 0.0
O1094 O 0.5362 0.00877 0.98857 0.0
C1095 C 0.48766 0.02726 0.99434 0.0
O1096 O 0.50968 0.03744 0.03852 0.0
O1097 O 0.54277 0.03459 0.04039 0.0
O1098 O 0.53466 0.99457 0.01867 0.0
O1099 O 0.505 0.96189 0.00287 0.0
O1100 O 0.46435 0.96932 1.00117 0.0
O1101 O 0.48559 0.98064 0.02419 0.0
C1102 C 0.54916 0.0323 0.99362 0.0
O1103 O 0.50183 0.96352 0.97091 0.0
O1104 O 0.47046 0.96915 0.96953 0.0
C1105 C 0.52175 0.03036 0.06171 0.0
C1106 C 0.50605 0.01101 0.08881 0.0
C1107 C 0.5189 0.03673 0.08792 0.0
C1108 C 0.52658 0.0463 0.07447 0.0
C1109 C 0.50932 0.00474 0.0626 0.0
C1110 C 0.50149 0.99515 0.07599 0.0
C1111 C 0.52825 0.0402 0.04733 0.0
H1112 H 0.53158 0.98086 0.92246 0.0
H1113 H 0.52035 0.96427 0.94613 0.0
H1114 H 0.46146 0.98162 0.94489 0.0
H1115 H 0.47228 0.99761 0.9211 0.0
H1116 H 0.52253 0.04944 0.09755 0.0
H1117 H 0.53597 0.06611 0.07398 0.0
H1118 H 0.50548 0.99211 0.05289 0.0
H1119 H 0.49199 0.9753 0.07632 0.0
Tb1120 Tb 0.01975 0.51176 0.98926 0.0
Eu1121 Eu 0.98546 0.49748 0.01697 0.0
C1122 C 0.03354 0.54972 0.01726 0.0
C1123 C 0.03412 0.4924 0.01686 0.0
C1124 C 0.03915 0.51838 0.95143 0.0
C1125 C 0.05261 0.52563 0.92692 0.0
C1126 C 0.0582 0.52881 0.94222 0.0
C1127 C 0.01441 0.50449 0.94523 0.0
C1128 C 0.00879 0.50128 0.92994 0.0
C1129 C 0.02783 0.51198 0.92062 0.0
C1130 C 0.04514 0.52307 0.96748 0.0
O1131 O 0.9953 0.47169 0.98624 0.0
O1132 O 0.96288 0.46896 0.9981 0.0
O1133 O 0.97397 0.51883 1.00252 0.0
O1134 O 0.98526 0.50934 0.98075 0.0
C1135 C 0.97187 0.45952 0.98879 0.0
O1136 O 0.96158 0.46999 0.03097 0.0
O1137 O 0.9686 0.50757 0.03428 0.0
O1138 O 0.02133 0.53159 0.02529 0.0
O1139 O 0.03056 0.5461 0.00278 0.0
O1140 O 0.04231 0.50882 0.00724 0.0
O1141 O 0.011 0.4819 0.02002 0.0
C1142 C 0.9725 0.51711 0.98804 0.0
O1143 O 0.03793 0.53708 0.97404 0.0
O1144 O 0.04012 0.50387 0.97451 0.0
C1145 C 0.96413 0.48626 0.05523 0.0
C1146 C 0.97384 0.4868 0.08576 0.0
C1147 C 0.9493 0.47436 0.07904 0.0
C1148 C 0.9445 0.47414 0.06387 0.0
C1149 C 0.98866 0.49842 0.06182 0.0
C1150 C 0.99348 0.49875 0.07699 0.0
C1151 C 0.95896 0.48598 0.03934 0.0
H1152 H 0.06769 0.53381 0.92003 0.0
H1153 H 0.07739 0.53962 0.94687 0.0
H1154 H 0.99946 0.49646 0.95224 0.0
H1155 H 0.98952 0.4909 0.92542 0.0
H1156 H 0.93382 0.4652 0.08555 0.0
H1157 H 0.92548 0.46462 0.05889 0.0
H1158 H 0.00404 0.50769 0.05524 0.0
H1159 H 0.01256 0.50822 0.08185 0.0
Tb1160 Tb 0.50865 0.48658 0.01622 0.0
Eu1161 Eu 0.48407 0.49579 0.98621 0.0
C1162 C 0.4761 0.44356 0.99238 0.0
C1163 C 0.53772 0.50001 0.98773 0.0
C1164 C 0.51631 0.47968 0.05533 0.0
C1165 C 0.51573 0.46987 0.08069 0.0
C1166 C 0.52389 0.47011 0.0667 0.0
C1167 C 0.50037 0.48891 0.05804 0.0
C1168 C 0.49227 0.48875 0.072 0.0
C1169 C 0.49987 0.47925 0.0835 0.0
C1170 C 0.5239 0.47894 0.04046 0.0
O1171 O 0.51038 0.52196 0.02012 0.0
O1172 O 0.51531 0.53233 0.99659 0.0
O1173 O 0.46067 0.49635 0.00402 0.0
O1174 O 0.47 0.47394 0.01956 0.0
C1175 C 0.5185 0.53879 0.01081 0.0
O1176 O 0.47776 0.51945 0.97201 0.0
O1177 O 0.46225 0.48061 0.96484 0.0
O1178 O 0.46427 0.45527 0.98908 0.0
O1179 O 0.49793 0.45531 1.00002 0.0
O1180 O 0.53924 0.50201 1.00228 0.0
O1181 O 0.51683 0.49311 0.97962 0.0
C1182 C 0.45615 0.48332 0.0154 0.0
O1183 O 0.50689 0.46148 0.031 0.0
O1184 O 0.53491 0.50004 0.03484 0.0
C1185 C 0.47754 0.50796 0.94675 0.0
C1186 C 0.49722 0.5133 0.9193 0.0
C1187 C 0.5131 0.52424 0.93242 0.0
C1188 C 0.50333 0.52141 0.94606 0.0
C1189 C 0.46169 0.49767 0.93365 0.0
C1190 C 0.47143 0.50026 0.92004 0.0
C1191 C 0.46712 0.50214 0.961 0.0
H1192 H 0.5221 0.46266 0.08936 0.0
H1193 H 0.53603 0.46274 0.06476 0.0
H1194 H 0.49406 0.49609 0.04932 0.0
H1195 H 0.47982 0.49581 0.07376 0.0
H1196 H 0.53304 0.53416 0.93216 0.0
H1197 H 0.51594 0.52911 0.95607 0.0
H1198 H 0.44177 0.48699 0.93397 0.0
H1199 H 0.4588 0.49178 0.91008 0.0
Tb1200 Tb 0.16058 0.31834 0.3207 0.0
Eu1201 Eu 0.17779 0.35178 0.35333 0.0
C1202 C 0.18286 0.30438 0.34772 0.0
C1203 C 0.12417 0.30343 0.3451 0.0
C1204 C 0.15611 0.30746 0.28028 0.0
C1205 C 0.15607 0.3014 0.2537 0.0
C1206 C 0.15002 0.29169 0.26729 0.0
C1207 C 0.16826 0.33311 0.27951 0.0
C1208 C 0.17439 0.34285 0.26597 0.0
C1209 C 0.16842 0.32714 0.25285 0.0
C1210 C 0.1508 0.29731 0.29468 0.0
O1211 O 0.14403 0.34176 0.32099 0.0
O1212 O 0.17192 0.37471 0.33732 0.0
O1213 O 0.2123 0.36458 0.34156 0.0
O1214 O 0.19267 0.3537 0.31803 0.0
C1215 C 0.15413 0.36501 0.3264 0.0
O1216 O 0.17113 0.37226 0.37097 0.0
O1217 O 0.20234 0.3663 0.37386 0.0
O1218 O 0.17473 0.31533 0.35657 0.0
O1219 O 0.18337 0.30736 0.33359 0.0
O1220 O 0.13289 0.29492 0.33489 0.0
O1221 O 0.13649 0.32658 0.35082 0.0
C1222 C 0.21277 0.36565 0.32726 0.0
O1223 O 0.17023 0.30213 0.30342 0.0
O1224 O 0.13511 0.30085 0.30176 0.0
C1225 C 0.18048 0.36357 0.39449 0.0
C1226 C 0.16563 0.34455 0.42177 0.0
C1227 C 0.18078 0.37016 0.42104 0.0
C1228 C 0.18816 0.37956 0.40752 0.0
C1229 C 0.16522 0.33805 0.39512 0.0
C1230 C 0.15789 0.32862 0.40861 0.0
C1231 C 0.18843 0.37336 0.38027 0.0
H1232 H 0.15085 0.28871 0.24383 0.0
H1233 H 0.14069 0.27184 0.26765 0.0
H1234 H 0.17324 0.34565 0.28943 0.0
H1235 H 0.18418 0.36274 0.26582 0.0
H1236 H 0.18729 0.38292 0.43097 0.0
H1237 H 0.19997 0.3993 0.40726 0.0
H1238 H 0.15898 0.32539 0.38514 0.0
H1239 H 0.14596 0.30887 0.40873 0.0
Tb1240 Tb 0.68182 0.83713 0.32319 0.0
Eu1241 Eu 0.64756 0.82348 0.35091 0.0
C1242 C 0.69609 0.87623 0.35023 0.0
C1243 C 0.69601 0.81893 0.35181 0.0
C1244 C 0.7018 0.84626 0.2853 0.0
C1245 C 0.68568 0.85777 0.26418 0.0
C1246 C 0.69061 0.85901 0.27943 0.0
C1247 C 0.70794 0.83231 0.27568 0.0
C1248 C 0.70279 0.83087 0.26045 0.0
C1249 C 0.69162 0.8436 0.25449 0.0
C1250 C 0.70692 0.84691 0.30135 0.0
O1251 O 0.64698 0.80408 0.31511 0.0
O1252 O 0.63762 0.78822 0.33721 0.0
O1253 O 0.625 0.82665 0.33197 0.0
O1254 O 0.65754 0.85254 0.31954 0.0
C1255 C 0.63507 0.78527 0.32276 0.0
O1256 O 0.62666 0.797 0.36619 0.0
O1257 O 0.62739 0.83194 0.36685 0.0
O1258 O 0.67301 0.86479 0.35341 0.0
O1259 O 0.70422 0.86561 0.34105 0.0
O1260 O 0.69354 0.81703 0.33729 0.0
O1261 O 0.68326 0.82609 0.35958 0.0
C1262 C 0.63414 0.84255 0.32215 0.0
O1263 O 0.70524 0.86343 0.3098 0.0
O1264 O 0.6969 0.82552 0.30664 0.0
C1265 C 0.62557 0.81455 0.38926 0.0
C1266 C 0.63475 0.81725 0.42004 0.0
C1267 C 0.61033 0.80425 0.41315 0.0
C1268 C 0.60579 0.80293 0.39786 0.0
C1269 C 0.64997 0.82774 0.39605 0.0
C1270 C 0.65453 0.82914 0.41135 0.0
C1271 C 0.62068 0.81171 0.37317 0.0
H1272 H 0.67734 0.86805 0.25998 0.0
H1273 H 0.68559 0.86988 0.2866 0.0
H1274 H 0.71649 0.82225 0.27997 0.0
H1275 H 0.7072 0.81941 0.25336 0.0
H1276 H 0.59472 0.79518 0.41958 0.0
H1277 H 0.58686 0.7926 0.39273 0.0
H1278 H 0.66546 0.83663 0.3895 0.0
H1279 H 0.67355 0.83905 0.41633 0.0
Tb1280 Tb 0.17985 0.82941 0.35202 0.0
Eu1281 Eu 0.15624 0.83969 0.3219 0.0
C1282 C 0.14688 0.78676 0.32793 0.0
C1283 C 0.20878 0.84179 0.32354 0.0
C1284 C 0.18764 0.82193 0.39117 0.0
C1285 C 0.18744 0.81159 0.4164 0.0
C1286 C 0.19511 0.81182 0.40228 0.0
C1287 C 0.17232 0.83174 0.39431 0.0
C1288 C 0.16472 0.8316 0.40843 0.0
C1289 C 0.17218 0.82152 0.41964 0.0
C1290 C 0.1948 0.82118 0.37617 0.0
O1291 O 0.18174 0.86479 0.35628 0.0
O1292 O 0.18746 0.87571 0.33291 0.0
O1293 O 0.13265 0.84029 0.33962 0.0
O1294 O 0.14119 0.81713 0.35501 0.0
C1295 C 0.19015 0.88185 0.34712 0.0
O1296 O 0.15436 0.86522 0.3072 0.0
O1297 O 0.13241 0.82584 0.30114 0.0
O1298 O 0.13578 0.79899 0.32423 0.0
O1299 O 0.16849 0.79796 0.33584 0.0
O1300 O 0.21046 0.84466 0.33808 0.0
O1301 O 0.18784 0.83476 0.31545 0.0
C1302 C 0.12763 0.82681 0.35082 0.0
O1303 O 0.17747 0.804 0.36674 0.0
O1304 O 0.20609 0.84234 0.37063 0.0
C1305 C 0.15067 0.85088 0.2822 0.0
C1306 C 0.16871 0.8555 0.25422 0.0
C1307 C 0.15305 0.86482 0.25774 0.0
C1308 C 0.14407 0.86248 0.27163 0.0
C1309 C 0.16677 0.84212 0.27884 0.0
C1310 C 0.17568 0.84438 0.265 0.0
C1311 C 0.1408 0.84773 0.29668 0.0
H1312 H 0.19371 0.80393 0.42485 0.0
H1313 H 0.20679 0.80402 0.40001 0.0
H1314 H 0.16609 0.83934 0.38579 0.0
H1315 H 0.15274 0.83912 0.41052 0.0
H1316 H 0.1472 0.87331 0.24963 0.0
H1317 H 0.13174 0.86944 0.27405 0.0
H1318 H 0.1722 0.83322 0.28687 0.0
H1319 H 0.18796 0.83731 0.26271 0.0
Tb1320 Tb 0.82834 0.64999 0.65338 0.0
Eu1321 Eu 0.8466 0.68452 0.68566 0.0
C1322 C 0.85096 0.63682 0.68041 0.0
C1323 C 0.79248 0.63707 0.67807 0.0
C1324 C 0.82277 0.63761 0.6132 0.0
C1325 C 0.82383 0.6315 0.58674 0.0
C1326 C 0.81807 0.62189 0.60037 0.0
C1327 C 0.83317 0.66308 0.6122 0.0
C1328 C 0.83904 0.67273 0.59862 0.0
C1329 C 0.83455 0.6571 0.58569 0.0
C1330 C 0.81827 0.62781 0.62771 0.0
O1331 O 0.81355 0.67485 0.65232 0.0
O1332 O 0.83915 0.70699 0.67007 0.0
O1333 O 0.88057 0.69749 0.67319 0.0
O1334 O 0.85956 0.68545 0.6501 0.0
C1335 C 0.8228 0.69768 0.65837 0.0
O1336 O 0.84106 0.70566 0.70344 0.0
O1337 O 0.87142 0.69841 0.7061 0.0
O1338 O 0.84251 0.6477 0.68905 0.0
O1339 O 0.85191 0.63998 0.66633 0.0
O1340 O 0.80067 0.62781 0.66795 0.0
O1341 O 0.80525 0.66038 0.68337 0.0
C1342 C 0.88022 0.69817 0.6588 0.0
O1343 O 0.83822 0.6337 0.63628 0.0
O1344 O 0.80229 0.63074 0.63489 0.0
C1345 C 0.8497 0.69594 0.72678 0.0
C1346 C 0.83364 0.67643 0.75382 0.0
C1347 C 0.8491 0.70207 0.75328 0.0
C1348 C 0.85705 0.71171 0.73989 0.0
C1349 C 0.83417 0.6704 0.72721 0.0
C1350 C 0.82626 0.66074 0.74057 0.0
C1351 C 0.85801 0.70598 0.71265 0.0
H1352 H 0.81977 0.61885 0.57701 0.0
H1353 H 0.81013 0.60219 0.60092 0.0
H1354 H 0.83709 0.67558 0.62199 0.0
H1355 H 0.84756 0.69253 0.59833 0.0
H1356 H 0.85487 0.71476 0.76319 0.0
H1357 H 0.8689 0.73147 0.73976 0.0
H1358 H 0.82824 0.6579 0.71719 0.0
H1359 H 0.81466 0.64092 0.74055 0.0
Tb1360 Tb 0.35242 0.17557 0.65718 0.0
Eu1361 Eu 0.31956 0.16518 0.68553 0.0
C1362 C 0.36506 0.21742 0.68182 0.0
C1363 C 0.36773 0.15951 0.68641 0.0
C1364 C 0.3713 0.18316 0.61937 0.0
C1365 C 0.385 0.19278 0.59508 0.0
C1366 C 0.39047 0.1934 0.61021 0.0
C1367 C 0.34657 0.17241 0.6133 0.0
C1368 C 0.34107 0.17169 0.59816 0.0
C1369 C 0.36024 0.18184 0.58889 0.0
C1370 C 0.37726 0.18421 0.63525 0.0
O1371 O 0.31768 0.14158 0.65075 0.0
O1372 O 0.31082 0.12876 0.67374 0.0
O1373 O 0.29618 0.1684 0.66716 0.0
O1374 O 0.32615 0.18787 0.65134 0.0
C1375 C 0.30714 0.12389 0.65935 0.0
O1376 O 0.29014 0.13961 0.69806 0.0
O1377 O 0.31111 0.17859 0.70567 0.0
O1378 O 0.34164 0.20615 0.68419 0.0
O1379 O 0.37403 0.20561 0.6744 0.0
O1380 O 0.36531 0.15711 0.67188 0.0
O1381 O 0.35503 0.16699 0.69401 0.0
C1382 C 0.30391 0.18054 0.65554 0.0
O1383 O 0.37572 0.20111 0.64339 0.0
O1384 O 0.367 0.16305 0.64082 0.0
C1385 C 0.29836 0.1508 0.72372 0.0
C1386 C 0.30558 0.14323 0.75323 0.0
C1387 C 0.28188 0.13707 0.74694 0.0
C1388 C 0.27832 0.14092 0.73228 0.0
C1389 C 0.32185 0.15604 0.72977 0.0
C1390 C 0.32546 0.15238 0.74444 0.0
C1391 C 0.29489 0.15657 0.70874 0.0
H1392 H 0.40012 0.20051 0.58818 0.0
H1393 H 0.40966 0.20183 0.61477 0.0
H1394 H 0.33155 0.16462 0.62028 0.0
H1395 H 0.32184 0.16339 0.59371 0.0
H1396 H 0.2663 0.13018 0.75351 0.0
H1397 H 0.26008 0.13674 0.72775 0.0
H1398 H 0.3375 0.16351 0.72325 0.0
H1399 H 0.34385 0.15704 0.74898 0.0
Tb1400 Tb 0.84466 0.15993 0.68391 0.0
Eu1401 Eu 0.81967 0.16737 0.6532 0.0
C1402 C 0.81008 0.11549 0.66113 0.0
C1403 C 0.87295 0.17092 0.65533 0.0
C1404 C 0.85389 0.15496 0.72314 0.0
C1405 C 0.84929 0.14176 0.74779 0.0
C1406 C 0.85768 0.14183 0.7339 0.0
C1407 C 0.84167 0.16809 0.7264 0.0
C1408 C 0.83333 0.16808 0.74027 0.0
C1409 C 0.83693 0.15481 0.75111 0.0
C1410 C 0.86074 0.15327 0.70816 0.0
O1411 O 0.84593 0.19508 0.68727 0.0
O1412 O 0.85038 0.2044 0.66351 0.0
O1413 O 0.79464 0.16687 0.67025 0.0
O1414 O 0.80705 0.14986 0.68834 0.0
C1415 C 0.85347 0.21141 0.67765 0.0
O1416 O 0.81391 0.19086 0.63851 0.0
O1417 O 0.79896 0.15208 0.63155 0.0
O1418 O 0.79877 0.1274 0.65719 0.0
O1419 O 0.8322 0.12735 0.66845 0.0
O1420 O 0.87492 0.17508 0.6698 0.0
O1421 O 0.85171 0.16267 0.6473 0.0
C1422 C 0.79182 0.15683 0.6828 0.0
O1423 O 0.84318 0.1355 0.6991 0.0
O1424 O 0.8718 0.17396 0.70209 0.0
C1425 C 0.81526 0.17958 0.61357 0.0
C1426 C 0.83513 0.18693 0.58606 0.0
C1427 C 0.81428 0.18942 0.58828 0.0
C1428 C 0.80438 0.18567 0.60191 0.0
C1429 C 0.83658 0.17806 0.6116 0.0
C1430 C 0.84635 0.18156 0.598 0.0
C1431 C 0.80381 0.17351 0.62751 0.0
H1432 H 0.85261 0.13162 0.75597 0.0
H1433 H 0.86686 0.13139 0.7315 0.0
H1434 H 0.83824 0.17804 0.71814 0.0
H1435 H 0.82366 0.17809 0.74241 0.0
H1436 H 0.80539 0.19395 0.57943 0.0
H1437 H 0.78798 0.18706 0.60325 0.0
H1438 H 0.84527 0.17345 0.62048 0.0
H1439 H 0.86215 0.1791 0.59672 0.0
C1440 C 0.34644 0.91565 0.06061 0.0
C1441 C 0.33553 0.89024 0.06189 0.0
C1442 C 0.36678 0.92775 0.05237 0.0
C1443 C 0.37645 0.91412 0.04526 0.0
C1444 C 0.36547 0.88847 0.04647 0.0
C1445 C 0.34524 0.87688 0.0548 0.0
C1446 C 0.37808 0.95517 0.05138 0.0
C1447 C 0.37536 0.87333 0.03918 0.0
C1448 C 0.41847 0.9421 0.0148 0.0
C1449 C 0.44204 0.95226 0.02255 0.0
C1450 C 0.39687 0.92944 0.02201 0.0
C1451 C 0.39896 0.92693 0.03728 0.0
C1452 C 0.42269 0.93668 0.04505 0.0
C1453 C 0.44386 0.94912 0.03761 0.0
C1454 C 0.37183 0.91916 0.01336 0.0
C1455 C 0.4258 0.9344 0.06134 0.0
H1456 H 0.33887 0.92603 0.0659 0.0
H1457 H 0.3372 0.85732 0.05593 0.0
H1458 H 0.39764 0.96503 0.05635 0.0
H1459 H 0.37824 0.95894 0.03965 0.0
H1460 H 0.36787 0.96293 0.05711 0.0
H1461 H 0.36398 0.85335 0.04059 0.0
H1462 H 0.37591 0.87551 0.02721 0.0
H1463 H 0.39467 0.88006 0.04394 0.0
H1464 H 0.41689 0.94452 0.0032 0.0
H1465 H 0.46193 0.95672 0.04372 0.0
H1466 H 0.36185 0.92809 0.01802 0.0
H1467 H 0.36037 0.89905 0.0143 0.0
H1468 H 0.37332 0.9221 1.00149 0.0
H1469 H 0.41791 0.94406 0.06766 0.0
H1470 H 0.44556 0.94236 0.06565 0.0
H1471 H 0.41551 0.91469 0.06347 0.0
C1472 C 0.12755 0.44722 0.04438 0.0
C1473 C 0.13796 0.4564 0.05899 0.0
C1474 C 0.10984 0.45226 0.03782 0.0
C1475 C 0.10256 0.4671 0.04599 0.0
C1476 C 0.11277 0.47616 0.06082 0.0
C1477 C 0.13022 0.47056 0.06717 0.0
C1478 C 0.09916 0.44194 0.02206 0.0
C1479 C 0.10572 0.49227 0.06985 0.0
C1480 C 0.07722 0.50077 0.02388 0.0
C1481 C 0.05156 0.48607 0.02454 0.0
C1482 C 0.09399 0.49501 0.031 0.0
C1483 C 0.08492 0.47384 0.03883 0.0
C1484 C 0.05906 0.45893 0.03957 0.0
C1485 C 0.0427 0.46531 0.0325 0.0
C1486 C 0.12144 0.51157 0.03009 0.0
C1487 C 0.04863 0.43606 0.04767 0.0
H1488 H 0.13324 0.43601 0.03808 0.0
H1489 H 0.13838 0.47787 0.07842 0.0
H1490 H 0.07861 0.43121 0.02138 0.0
H1491 H 0.10428 0.4573 0.01504 0.0
H1492 H 0.10588 0.42978 0.01745 0.0
H1493 H 0.11476 0.49723 0.08135 0.0
H1494 H 0.11115 0.50956 0.06462 0.0
H1495 H 0.08532 0.4827 0.07018 0.0
H1496 H 0.08428 0.51695 0.01786 0.0
H1497 H 0.02292 0.45379 0.03304 0.0
H1498 H 0.12904 0.50096 0.02449 0.0
H1499 H 0.13133 0.51834 0.04135 0.0
H1500 H 0.12554 0.52778 0.02397 0.0
H1501 H 0.0539 0.42292 0.04273 0.0
H1502 H 0.02809 0.42654 0.04732 0.0
H1503 H 0.05662 0.44098 0.05937 0.0
C1504 C 0.59517 0.68135 0.04402 0.0
C1505 C 0.57977 0.69161 0.04264 0.0
C1506 C 0.58661 0.65673 0.0386 0.0
C1507 C 0.56202 0.64205 0.03182 0.0
C1508 C 0.5465 0.65242 0.03028 0.0
C1509 C 0.5556 0.6771 0.03567 0.0
C1510 C 0.60375 0.64633 0.04029 0.0
C1511 C 0.52009 0.63727 0.02323 0.0
C1512 C 0.54266 0.58353 0.00685 0.0
C1513 C 0.53052 0.56523 0.01633 0.0
C1514 C 0.55362 0.60868 0.01186 0.0
C1515 C 0.55217 0.61564 0.02664 0.0
C1516 C 0.54026 0.59727 0.03632 0.0
C1517 C 0.52968 0.57228 0.03106 0.0
C1518 C 0.5664 0.62779 1.00128 0.0
C1519 C 0.53817 0.604 0.05213 0.0
H1520 H 0.61391 0.69262 0.04933 0.0
H1521 H 0.54352 0.68487 0.0348 0.0
H1522 H 0.59598 0.63087 0.04733 0.0
H1523 H 0.60531 0.63873 0.02937 0.0
H1524 H 0.62262 0.66046 0.0453 0.0
H1525 H 0.51062 0.64827 0.02263 0.0
H1526 H 0.51975 0.62957 0.0119 0.0
H1527 H 0.50936 0.62142 0.02963 0.0
H1528 H 0.54356 0.57822 0.99548 0.0
H1529 H 0.52033 0.55824 0.03845 0.0
H1530 H 0.58561 0.6414 0.00599 0.0
H1531 H 0.55646 0.63813 0.99955 0.0
H1532 H 0.56713 0.61938 0.99039 0.0
H1533 H 0.55684 0.61694 0.05787 0.0
H1534 H 0.52901 0.58754 0.05835 0.0
H1535 H 0.52732 0.61364 0.05241 0.0
C1536 C 0.88132 0.3162 0.96427 0.0
C1537 C 0.87028 0.31167 0.94977 0.0
C1538 C 0.89922 0.3402 0.97022 0.0
C1539 C 0.90601 0.36011 0.96148 0.0
C1540 C 0.89529 0.35557 0.94673 0.0
C1541 C 0.87759 0.33136 0.94103 0.0
C1542 C 0.91043 0.34433 0.98596 0.0
C1543 C 0.90188 0.37636 0.93713 0.0
C1544 C 0.92948 0.42329 0.98192 0.0
C1545 C 0.95518 0.43443 0.9813 0.0
C1546 C 0.9133 0.39924 0.97536 0.0
C1547 C 0.92306 0.38587 0.96809 0.0
C1548 C 0.94895 0.39703 0.96728 0.0
C1549 C 0.96473 0.42128 0.97385 0.0
C1550 C 0.88576 0.38805 0.9763 0.0
C1551 C 0.95998 0.38324 0.95968 0.0
H1552 H 0.8759 0.30095 0.97098 0.0
H1553 H 0.86889 0.32794 0.92985 0.0
H1554 H 0.93098 0.35459 0.98647 0.0
H1555 H 0.905 0.35581 0.99276 0.0
H1556 H 0.90438 0.32671 0.99094 0.0
H1557 H 0.89297 0.36954 0.92564 0.0
H1558 H 0.89589 0.38905 0.94185 0.0
H1559 H 0.92226 0.38733 0.93684 0.0
H1560 H 0.92191 0.43339 0.98756 0.0
H1561 H 0.98458 0.42974 0.97336 0.0
H1562 H 0.87877 0.37133 0.98231 0.0
H1563 H 0.87572 0.38216 0.96506 0.0
H1564 H 0.88114 0.40116 0.98203 0.0
H1565 H 0.95547 0.36635 0.96515 0.0
H1566 H 0.98045 0.39466 0.95985 0.0
H1567 H 0.95177 0.37717 0.94804 0.0
C1568 C 0.66167 0.55309 0.94591 0.0
C1569 C 0.66835 0.53497 0.94344 0.0
C1570 C 0.64042 0.54801 0.95297 0.0
C1571 C 0.62526 0.52412 0.95742 0.0
C1572 C 0.63158 0.50559 0.95455 0.0
C1573 C 0.65313 0.51129 0.94772 0.0
C1574 C 0.63448 0.56836 0.95597 0.0
C1575 C 0.61572 0.47976 0.95884 0.0
C1576 C 0.58342 0.51508 0.98809 0.0
C1577 C 0.56021 0.50614 0.98007 0.0
C1578 C 0.60478 0.52134 0.98086 0.0
C1579 C 0.60292 0.51848 0.96523 0.0
C1580 C 0.57959 0.50956 0.95708 0.0
C1581 C 0.55859 0.50356 0.96458 0.0
C1582 C 0.62935 0.53099 0.98995 0.0
C1583 C 0.57672 0.50611 0.94042 0.0
H1584 H 0.67353 0.57146 0.94273 0.0
H1585 H 0.65813 0.49718 0.9457 0.0
H1586 H 0.61556 0.56251 0.95091 0.0
H1587 H 0.63472 0.57211 0.96803 0.0
H1588 H 0.64788 0.5858 0.9516 0.0
H1589 H 0.62272 0.46725 0.95537 0.0
H1590 H 0.61516 0.48035 0.97098 0.0
H1591 H 0.59638 0.4718 0.95376 0.0
H1592 H 0.58497 0.51731 1.00004 0.0
H1593 H 0.54083 0.49678 0.95822 0.0
H1594 H 0.64311 0.54929 0.9867 0.0
H1595 H 0.63666 0.51831 0.98782 0.0
H1596 H 0.62785 0.53291 1.00197 0.0
H1597 H 0.58937 0.52373 0.93599 0.0
H1598 H 0.55744 0.49969 0.9357 0.0
H1599 H 0.58198 0.49238 0.93655 0.0
C1600 C 0.43655 0.11036 0.96149 0.0
C1601 C 0.41208 0.09599 0.95491 0.0
C1602 C 0.44871 0.09944 0.96845 0.0
C1603 C 0.43607 0.07352 0.96885 0.0
C1604 C 0.41125 0.05891 0.96242 0.0
C1605 C 0.39955 0.07034 0.95546 0.0
C1606 C 0.47526 0.1156 0.97508 0.0
C1607 C 0.39718 0.0312 0.96272 0.0
C1608 C 0.47518 0.0431 0.97297 0.0
C1609 C 0.47501 0.03976 0.98804 0.0
C1610 C 0.4625 0.05398 0.96659 0.0
C1611 C 0.44925 0.06164 0.97549 0.0
C1612 C 0.44902 0.05839 0.99071 0.0
C1613 C 0.46197 0.04753 0.99682 0.0
C1614 C 0.4633 0.05727 0.95033 0.0
C1615 C 0.43501 0.06631 1.0005 0.0
H1616 H 0.44644 0.13017 0.96088 0.0
H1617 H 0.38057 0.05923 0.95049 0.0
H1618 H 0.47702 0.1127 0.98686 0.0
H1619 H 0.48744 0.11042 0.96932 0.0
H1620 H 0.48213 0.13555 0.97429 0.0
H1621 H 0.37769 0.02263 0.95772 0.0
H1622 H 0.40655 0.02288 0.95661 0.0
H1623 H 0.3971 0.02651 0.97425 0.0
H1624 H 0.48518 0.03713 0.96608 0.0
H1625 H 0.46164 0.04488 0.00845 0.0
H1626 H 0.47155 0.07716 0.94875 0.0
H1627 H 0.4442 0.04755 0.94464 0.0
H1628 H 0.47428 0.05009 0.94493 0.0
H1629 H 0.44227 0.08645 1.00044 0.0
H1630 H 0.43643 0.06222 0.01208 0.0
H1631 H 0.41512 0.05674 0.99618 0.0
C1632 C 0.67706 0.11576 0.95919 0.0
C1633 C 0.67225 0.11899 0.94453 0.0
C1634 C 0.65764 0.10274 0.96787 0.0
C1635 C 0.6328 0.09283 0.96176 0.0
C1636 C 0.62782 0.09625 0.94701 0.0
C1637 C 0.64762 0.10919 0.93854 0.0
C1638 C 0.6637 0.09915 0.98347 0.0
C1639 C 0.60157 0.08604 0.94014 0.0
C1640 C 0.58195 0.03745 0.97751 0.0
C1641 C 0.5716 0.0483 0.9864 0.0
C1642 C 0.60206 0.05179 0.96964 0.0
C1643 C 0.612 0.07767 0.97053 0.0
C1644 C 0.60193 0.08886 0.97964 0.0
C1645 C 0.5819 0.07403 0.98756 0.0
C1646 C 0.61245 0.03916 0.96021 0.0
C1647 C 0.61196 0.11639 0.98076 0.0
H1648 H 0.69607 0.12308 0.96382 0.0
H1649 H 0.64386 0.11191 0.92727 0.0
H1650 H 0.65511 0.10611 0.99131 0.0
H1651 H 0.65583 0.07915 0.98457 0.0
H1652 H 0.684 0.10879 0.98673 0.0
H1653 H 0.60088 0.09129 0.92878 0.0
H1654 H 0.59134 0.06558 0.93969 0.0
H1655 H 0.59169 0.09284 0.94701 0.0
H1656 H 0.57422 0.01759 0.97662 0.0
H1657 H 0.57387 0.0825 0.99432 0.0
H1658 H 0.6326 0.04736 0.96346 0.0
H1659 H 0.61026 0.04206 0.94847 0.0
H1660 H 0.60314 0.01896 0.96112 0.0
H1661 H 0.6321 0.12643 0.98447 0.0
H1662 H 0.60242 0.12229 0.98855 0.0
H1663 H 0.60972 0.122 0.96973 0.0
C1664 C 0.862 0.52621 0.94541 0.0
C1665 C 0.87043 0.54884 0.93944 0.0
C1666 C 0.87854 0.52098 0.95333 0.0
C1667 C 0.90414 0.5389 0.95545 0.0
C1668 C 0.91274 0.56184 0.94953 0.0
C1669 C 0.89581 0.56649 0.94155 0.0
C1670 C 0.86866 0.49621 0.95934 0.0
C1671 C 0.93983 0.58152 0.95166 0.0
C1672 C 0.94342 0.53389 0.98708 0.0
C1673 C 0.9553 0.52305 0.9797 0.0
C1674 C 0.92688 0.53932 0.97932 0.0
C1675 C 0.92192 0.53359 0.96381 0.0
C1676 C 0.93386 0.52267 0.9563 0.0
C1677 C 0.95046 0.51763 0.96431 0.0
C1678 C 0.91469 0.55116 0.98772 0.0
C1679 C 0.92895 0.51611 0.93979 0.0
H1680 H 0.84246 0.51238 0.94368 0.0
H1681 H 0.90239 0.58413 0.93713 0.0
H1682 H 0.87779 0.48638 0.95469 0.0
H1683 H 0.87306 0.49886 0.97149 0.0
H1684 H 0.84827 0.48429 0.95673 0.0
H1685 H 0.9435 0.59845 0.94647 0.0
H1686 H 0.94617 0.58663 0.96361 0.0
H1687 H 0.95115 0.57426 0.94685 0.0
H1688 H 0.94708 0.53824 0.99895 0.0
H1689 H 0.95946 0.50919 0.95849 0.0
H1690 H 0.89424 0.53897 0.98616 0.0
H1691 H 0.91901 0.56887 0.98336 0.0
H1692 H 0.92083 0.55483 0.99973 0.0
H1693 H 0.90892 0.50287 0.93672 0.0
H1694 H 0.93976 0.50775 0.9356 0.0
H1695 H 0.93372 0.53289 0.93414 0.0
C1696 C 0.40965 0.2966 0.97442 0.0
C1697 C 0.41352 0.2906 0.96015 0.0
C1698 C 0.41916 0.32131 0.98 0.0
C1699 C 0.43296 0.3404 0.97111 0.0
C1700 C 0.43675 0.33443 0.95666 0.0
C1701 C 0.42694 0.30959 0.95134 0.0
C1702 C 0.4146 0.32701 0.99544 0.0
C1703 C 0.4515 0.35431 0.94689 0.0
C1704 C 0.44086 0.40397 0.97986 0.0
C1705 C 0.46487 0.41703 0.98724 0.0
C1706 C 0.4301 0.3789 0.97473 0.0
C1707 C 0.44373 0.36667 0.97697 0.0
C1708 C 0.46789 0.37968 0.9845 0.0
C1709 C 0.47816 0.40471 0.98958 0.0
C1710 C 0.40425 0.36557 0.96678 0.0
C1711 C 0.483 0.36722 0.98704 0.0
H1712 H 0.39908 0.28193 0.9812 0.0
H1713 H 0.43028 0.30502 0.94038 0.0
H1714 H 0.43255 0.33835 1.00234 0.0
H1715 H 0.40515 0.33802 0.99516 0.0
H1716 H 0.40309 0.31001 1.00081 0.0
H1717 H 0.45241 0.34654 0.93584 0.0
H1718 H 0.44311 0.36614 0.94542 0.0
H1719 H 0.47069 0.36642 0.9522 0.0
H1720 H 0.43043 0.41332 0.97805 0.0
H1721 H 0.49672 0.41467 0.99527 0.0
H1722 H 0.39205 0.34911 0.97237 0.0
H1723 H 0.40472 0.35888 0.95534 0.0
H1724 H 0.39586 0.37757 0.96632 0.0
H1725 H 0.47275 0.3509 0.99319 0.0
H1726 H 0.50133 0.37983 0.99331 0.0
H1727 H 0.48605 0.36045 0.97629 0.0
C1728 C 0.14826 0.67819 0.05198 0.0
C1729 C 0.14136 0.69499 0.05755 0.0
C1730 C 0.13032 0.65429 0.04593 0.0
C1731 C 0.10489 0.64711 0.04535 0.0
C1732 C 0.09779 0.66389 0.05111 0.0
C1733 C 0.11614 0.68764 0.05721 0.0
C1734 C 0.13859 0.63681 0.04003 0.0
C1735 C 0.07086 0.65693 0.05057 0.0
C1736 C 0.06165 0.59502 0.01624 0.0
C1737 C 0.05111 0.57474 0.02457 0.0
C1738 C 0.07884 0.61875 0.02293 0.0
C1739 C 0.08581 0.62226 0.0383 0.0
C1740 C 0.07508 0.60194 0.04681 0.0
C1741 C 0.05777 0.57842 0.03985 0.0
C1742 C 0.08977 0.64002 0.01351 0.0
C1743 C 0.08221 0.60498 0.06321 0.0
H1744 H 0.16774 0.68373 0.05242 0.0
H1745 H 0.11079 0.70068 0.06141 0.0
H1746 H 0.12966 0.61949 0.04547 0.0
H1747 H 0.13267 0.63172 0.02803 0.0
H1748 H 0.15903 0.64499 0.04177 0.0
H1749 H 0.06841 0.67187 0.0559 0.0
H1750 H 0.06263 0.65273 0.03893 0.0
H1751 H 0.06028 0.63997 0.05615 0.0
H1752 H 0.05653 0.59238 0.00445 0.0
H1753 H 0.04975 0.56285 0.04636 0.0
H1754 H 0.11013 0.64787 0.01389 0.0
H1755 H 0.08657 0.65499 0.0179 0.0
H1756 H 0.08171 0.63435 1.00181 0.0
H1757 H 0.10231 0.61158 0.06535 0.0
H1758 H 0.07168 0.58744 0.0683 0.0
H1759 H 0.07886 0.61915 0.06874 0.0
C1760 C 0.3288 0.44345 0.05122 0.0
C1761 C 0.33299 0.45392 0.06586 0.0
C1762 C 0.34865 0.44832 0.04285 0.0
C1763 C 0.37334 0.46441 0.04916 0.0
C1764 C 0.37768 0.4752 0.0639 0.0
C1765 C 0.35746 0.46965 0.07212 0.0
C1766 C 0.3432 0.43598 0.0273 0.0
C1767 C 0.40367 0.49272 0.07098 0.0
C1768 C 0.42571 0.45934 0.03305 0.0
C1769 C 0.43469 0.47843 0.02376 0.0
C1770 C 0.40572 0.45452 0.04127 0.0
C1771 C 0.39461 0.46941 0.04044 0.0
C1772 C 0.4037 0.48885 0.03118 0.0
C1773 C 0.42347 0.49299 0.02285 0.0
C1774 C 0.3964 0.43335 0.05078 0.0
C1775 C 0.39267 0.50543 0.03019 0.0
H1776 H 0.30993 0.4311 0.04639 0.0
H1777 H 0.36077 0.47799 0.08337 0.0
H1778 H 0.35099 0.45015 0.01941 0.0
H1779 H 0.35226 0.42465 0.02626 0.0
H1780 H 0.323 0.42389 0.02403 0.0
H1781 H 0.40388 0.50015 0.08238 0.0
H1782 H 0.41455 0.48313 0.07137 0.0
H1783 H 0.41322 0.50843 0.06426 0.0
H1784 H 0.43418 0.44792 0.03381 0.0
H1785 H 0.43042 0.50791 0.01582 0.0
H1786 H 0.37643 0.42015 0.04748 0.0
H1787 H 0.39816 0.44037 0.06249 0.0
H1788 H 0.40672 0.42318 0.04997 0.0
H1789 H 0.37271 0.49432 0.02609 0.0
H1790 H 0.40216 0.52007 0.02275 0.0
H1791 H 0.39393 0.51437 0.04132 0.0
C1792 C 0.58204 0.88974 0.04043 0.0
C1793 C 0.57567 0.88378 0.05471 0.0
C1794 C 0.57354 0.90323 0.03272 0.0
C1795 C 0.55823 0.91082 0.03944 0.0
C1796 C 0.5515 0.90461 0.05378 0.0
C1797 C 0.56037 0.89121 0.06127 0.0
C1798 C 0.58127 0.90973 0.01749 0.0
C1799 C 0.53509 0.91229 0.06127 0.0
C1800 C 0.55617 0.96672 0.02765 0.0
C1801 C 0.53347 0.95576 0.01879 0.0
C1802 C 0.56471 0.95227 0.03413 0.0
C1803 C 0.55011 0.92621 0.03178 0.0
C1804 C 0.52744 0.91499 0.02257 0.0
C1805 C 0.51941 0.92993 0.01613 0.0
C1806 C 0.5891 0.96492 0.04377 0.0
C1807 C 0.51137 0.88723 0.01988 0.0
H1808 H 0.59404 0.88419 0.03539 0.0
H1809 H 0.55511 0.8863 0.07222 0.0
H1810 H 0.56466 0.90302 0.00947 0.0
H1811 H 0.5923 0.93011 0.0175 0.0
H1812 H 0.59254 0.90168 0.01362 0.0
H1813 H 0.53088 0.90523 0.07224 0.0
H1814 H 0.54427 0.93275 0.06276 0.0
H1815 H 0.51737 0.90538 0.05426 0.0
H1816 H 0.56725 0.98668 0.02967 0.0
H1817 H 0.50182 0.92134 0.00933 0.0
H1818 H 0.60151 0.95833 0.03987 0.0
H1819 H 0.58585 0.96016 0.05525 0.0
H1820 H 0.59878 0.98536 0.04388 0.0
H1821 H 0.52224 0.87904 0.01559 0.0
H1822 H 0.49484 0.88142 0.01191 0.0
H1823 H 0.505 0.87948 0.03044 0.0
C1824 C 0.99425 0.21779 0.37745 0.0
C1825 C 0.99904 0.21605 0.39242 0.0
C1826 C 0.01368 0.23042 0.36869 0.0
C1827 C 0.03853 0.24161 0.37504 0.0
C1828 C 0.04353 0.23968 0.3901 0.0
C1829 C 0.02372 0.22696 0.39861 0.0
C1830 C 0.00759 0.2323 0.35273 0.0
C1831 C 0.0698 0.25137 0.39728 0.0
C1832 C 0.09141 0.26127 0.3506 0.0
C1833 C 0.10071 0.28682 0.35124 0.0
C1834 C 0.07086 0.24614 0.35809 0.0
C1835 C 0.05931 0.25684 0.36626 0.0
C1836 C 0.06807 0.28246 0.36643 0.0
C1837 C 0.08865 0.29709 0.35898 0.0
C1838 C 0.06204 0.21888 0.35768 0.0
C1839 C 0.05614 0.29459 0.37486 0.0
H1840 H 0.97523 0.20966 0.37263 0.0
H1841 H 0.02756 0.22538 0.41011 0.0
H1842 H 0.0143 0.25192 0.35099 0.0
H1843 H 0.01722 0.22572 0.34548 0.0
H1844 H 0.98735 0.22139 0.34925 0.0
H1845 H 0.07056 0.24715 0.40889 0.0
H1846 H 0.08043 0.24478 0.39097 0.0
H1847 H 0.07924 0.27173 0.39715 0.0
H1848 H 0.10075 0.25326 0.34472 0.0
H1849 H 0.09558 0.31681 0.35943 0.0
H1850 H 0.04189 0.20787 0.35402 0.0
H1851 H 0.06476 0.2143 0.36894 0.0
H1852 H 0.0721 0.21318 0.35019 0.0
H1853 H 0.03597 0.28512 0.37132 0.0
H1854 H 0.06442 0.3145 0.37327 0.0
H1855 H 0.05829 0.29291 0.38682 0.0
C1856 C 0.81261 0.81524 0.38904 0.0
C1857 C 0.80646 0.79279 0.39472 0.0
C1858 C 0.7942 0.81933 0.38254 0.0
C1859 C 0.769 0.80044 0.38158 0.0
C1860 C 0.76263 0.77783 0.38744 0.0
C1861 C 0.78143 0.77432 0.394 0.0
C1862 C 0.80176 0.84379 0.37657 0.0
C1863 C 0.73599 0.75718 0.38653 0.0
C1864 C 0.71988 0.81884 0.37487 0.0
C1865 C 0.71393 0.8133 0.35954 0.0
C1866 C 0.73755 0.8145 0.38223 0.0
C1867 C 0.74943 0.80419 0.37408 0.0
C1868 C 0.74318 0.79813 0.35865 0.0
C1869 C 0.7256 0.80284 0.35156 0.0
C1870 C 0.74383 0.82137 0.39868 0.0
C1871 C 0.75529 0.78693 0.34958 0.0
H1872 H 0.83189 0.82971 0.38976 0.0
H1873 H 0.77659 0.75685 0.39825 0.0
H1874 H 0.79631 0.8408 0.36451 0.0
H1875 H 0.79195 0.85251 0.38172 0.0
H1876 H 0.82206 0.85685 0.37861 0.0
H1877 H 0.73406 0.741 0.39197 0.0
H1878 H 0.72455 0.76387 0.39179 0.0
H1879 H 0.72835 0.75104 0.3748 0.0
H1880 H 0.71103 0.82697 0.38114 0.0
H1881 H 0.72107 0.79838 0.33973 0.0
H1882 H 0.76369 0.83572 0.4011 0.0
H1883 H 0.741 0.80506 0.40427 0.0
H1884 H 0.73241 0.82855 0.40347 0.0
H1885 H 0.77555 0.8 0.35023 0.0
H1886 H 0.74767 0.78238 0.33779 0.0
H1887 H 0.75266 0.76981 0.35406 0.0
C1888 C 0.26627 0.02425 0.38052 0.0
C1889 C 0.25098 0.0346 0.37891 0.0
C1890 C 0.25762 -0.00048 0.37531 0.0
C1891 C 0.23307 0.98485 0.36849 0.0
C1892 C 0.21762 0.99527 0.36676 0.0
C1893 C 0.2268 0.02005 0.37196 0.0
C1894 C 0.27467 0.98906 0.37719 0.0
C1895 C 0.19126 0.98013 0.35964 0.0
C1896 C 0.21437 0.92665 0.34343 0.0
C1897 C 0.20205 0.90821 0.35279 0.0
C1898 C 0.22513 0.95173 0.34851 0.0
C1899 C 0.22331 0.95849 0.36325 0.0
C1900 C 0.21121 0.93999 0.37282 0.0
C1901 C 0.20082 0.91504 0.36749 0.0
C1902 C 0.23809 0.97098 0.33803 0.0
C1903 C 0.20875 0.94652 0.38859 0.0
H1904 H 0.28502 0.03554 0.38581 0.0
H1905 H 0.21482 0.02791 0.37091 0.0
H1906 H 0.26661 0.97343 0.3841 0.0
H1907 H 0.2766 0.98167 0.3663 0.0
H1908 H 0.29343 0.00309 0.38243 0.0
H1909 H 0.18176 0.9911 0.35904 0.0
H1910 H 0.19104 0.97254 0.3483 0.0
H1911 H 0.18048 0.96419 0.36598 0.0
H1912 H 0.21556 0.92151 0.33208 0.0
H1913 H 0.19131 0.90088 0.37478 0.0
H1914 H 0.25724 0.98457 0.34287 0.0
H1915 H 0.22816 0.98132 0.33627 0.0
H1916 H 0.23902 0.96272 0.32715 0.0
H1917 H 0.22732 0.95946 0.39447 0.0
H1918 H 0.19949 0.92998 0.39473 0.0
H1919 H 0.19784 0.95609 0.38879 0.0
C1920 C 0.55102 0.64891 0.28085 0.0
C1921 C 0.52588 0.64174 0.28088 0.0
C1922 C 0.56965 0.67239 0.28714 0.0
C1923 C 0.56293 0.68909 0.29352 0.0
C1924 C 0.53758 0.68209 0.29336 0.0
C1925 C 0.51935 0.65845 0.28708 0.0
C1926 C 0.59648 0.67915 0.28722 0.0
C1927 C 0.52971 0.69949 0.29996 0.0
C1928 C 0.60715 0.73979 0.32304 0.0
C1929 C 0.61754 0.76053 0.31508 0.0
C1930 C 0.5897 0.71635 0.31609 0.0
C1931 C 0.58233 0.71362 0.30082 0.0
C1932 C 0.59298 0.73439 0.29266 0.0
C1933 C 0.61055 0.75761 0.29988 0.0
C1934 C 0.5789 0.69458 0.32513 0.0
C1935 C 0.58545 0.73217 0.27637 0.0
H1936 H 0.55611 0.63594 0.27618 0.0
H1937 H 0.49993 0.65306 0.28694 0.0
H1938 H 0.60701 0.69639 0.28189 0.0
H1939 H 0.60501 0.68276 0.29877 0.0
H1940 H 0.59862 0.66433 0.28141 0.0
H1941 H 0.50928 0.6915 0.29849 0.0
H1942 H 0.53599 0.70402 0.31193 0.0
H1943 H 0.53859 0.71709 0.29479 0.0
H1944 H 0.61254 0.74184 0.33477 0.0
H1945 H 0.61845 0.77355 0.29365 0.0
H1946 H 0.58176 0.67967 0.32022 0.0
H1947 H 0.5586 0.6869 0.32505 0.0
H1948 H 0.58731 0.69965 0.33677 0.0
H1949 H 0.58841 0.71808 0.27036 0.0
H1950 H 0.596 0.74996 0.27153 0.0
H1951 H 0.56537 0.72586 0.27453 0.0
C1952 C 0.3305 0.89077 0.27995 0.0
C1953 C 0.3386 0.87353 0.27917 0.0
C1954 C 0.30927 0.88602 0.28696 0.0
C1955 C 0.29569 0.86339 0.29319 0.0
C1956 C 0.30346 0.84568 0.29209 0.0
C1957 C 0.32481 0.851 0.28515 0.0
C1958 C 0.30167 0.90542 0.28796 0.0
C1959 C 0.28934 0.82118 0.29836 0.0
C1960 C 0.25475 0.85869 0.3237 0.0
C1961 C 0.23107 0.84705 0.3159 0.0
C1962 C 0.27595 0.8644 0.31642 0.0
C1963 C 0.27345 0.85819 0.30099 0.0
C1964 C 0.2496 0.84639 0.29307 0.0
C1965 C 0.22877 0.84102 0.3006 0.0
C1966 C 0.30107 0.87711 0.32526 0.0
C1967 C 0.24603 0.83927 0.27663 0.0
H1968 H 0.34118 0.90828 0.27546 0.0
H1969 H 0.33078 0.83745 0.2844 0.0
H1970 H 0.28229 0.89752 0.28297 0.0
H1971 H 0.30224 0.91153 0.29971 0.0
H1972 H 0.31389 0.92184 0.28232 0.0
H1973 H 0.29746 0.80917 0.29627 0.0
H1974 H 0.28927 0.8243 0.31045 0.0
H1975 H 0.26974 0.81122 0.29349 0.0
H1976 H 0.2568 0.86357 0.33549 0.0
H1977 H 0.2106 0.83194 0.29443 0.0
H1978 H 0.31362 0.89467 0.32072 0.0
H1979 H 0.30959 0.86527 0.3244 0.0
H1980 H 0.29997 0.88126 0.33711 0.0
H1981 H 0.25697 0.8559 0.27085 0.0
H1982 H 0.22627 0.8303 0.27208 0.0
H1983 H 0.25297 0.82638 0.27413 0.0
C1984 C 0.0903 0.44119 0.2993 0.0
C1985 C 0.09531 0.44689 0.28482 0.0
C1986 C 0.10069 0.42909 0.30681 0.0
C1987 C 0.11658 0.42274 0.29968 0.0
C1988 C 0.1221 0.42891 0.28517 0.0
C1989 C 0.11129 0.44083 0.27788 0.0
C1990 C 0.09415 0.42252 0.32221 0.0
C1991 C 0.1391 0.42256 0.27726 0.0
C1992 C 0.15785 0.40594 0.32254 0.0
C1993 C 0.14446 0.38008 0.32008 0.0
C1994 C 0.14898 0.42018 0.31602 0.0
C1995 C 0.12611 0.40818 0.307 0.0
C1996 C 0.11233 0.38208 0.30471 0.0
C1997 C 0.12173 0.36837 0.31121 0.0
C1998 C 0.16422 0.44801 0.31858 0.0
C1999 C 0.08773 0.3686 0.29528 0.0
H2000 H 0.07782 0.44574 0.30464 0.0
H2001 H 0.11547 0.44558 0.26677 0.0
H2002 H 0.08392 0.40213 0.32227 0.0
H2003 H 0.11127 0.4299 0.32989 0.0
H2004 H 0.0825 0.42985 0.32646 0.0
H2005 H 0.14263 0.42992 0.26634 0.0
H2006 H 0.15713 0.4301 0.28407 0.0
H2007 H 0.13079 0.4022 0.27559 0.0
H2008 H 0.17548 0.41508 0.32933 0.0
H2009 H 0.11115 0.34837 0.30934 0.0
H2010 H 0.15309 0.45552 0.32337 0.0
H2011 H 0.16947 0.45583 0.3079 0.0
H2012 H 0.18139 0.45448 0.3261 0.0
H2013 H 0.07474 0.37415 0.29954 0.0
H2014 H 0.07898 0.3482 0.29499 0.0
H2015 H 0.09035 0.3737 0.28382 0.0
C2016 C 0.34154 0.44253 0.29248 0.0
C2017 C 0.33655 0.44161 0.27718 0.0
C2018 C 0.32235 0.43034 0.30145 0.0
C2019 C 0.29752 0.41671 0.29496 0.0
C2020 C 0.29235 0.41517 0.27948 0.0
C2021 C 0.31194 0.42766 0.27078 0.0
C2022 C 0.32862 0.43232 0.31788 0.0
C2023 C 0.26609 0.40067 0.27216 0.0
C2024 C 0.24822 0.36755 0.31553 0.0
C2025 C 0.23632 0.37982 0.32096 0.0
C2026 C 0.26855 0.37951 0.30731 0.0
C2027 C 0.27692 0.40424 0.30439 0.0
C2028 C 0.26519 0.41685 0.31018 0.0
C2029 C 0.24487 0.40439 0.31837 0.0
C2030 C 0.2805 0.36542 0.30133 0.0
C2031 C 0.27359 0.44321 0.30732 0.0
H2032 H 0.36055 0.4529 0.29749 0.0
H2033 H 0.3079 0.42704 0.259 0.0
H2034 H 0.31946 0.44105 0.32381 0.0
H2035 H 0.32149 0.41361 0.32157 0.0
H2036 H 0.34891 0.44338 0.32117 0.0
H2037 H 0.26525 0.40069 0.25997 0.0
H2038 H 0.25719 0.38125 0.27486 0.0
H2039 H 0.255 0.40863 0.27642 0.0
H2040 H 0.24111 0.34833 0.31735 0.0
H2041 H 0.23517 0.41355 0.32236 0.0
H2042 H 0.30077 0.37585 0.30465 0.0
H2043 H 0.27788 0.36328 0.28909 0.0
H2044 H 0.2726 0.34677 0.30524 0.0
H2045 H 0.29368 0.45519 0.31089 0.0
H2046 H 0.26325 0.45071 0.31315 0.0
H2047 H 0.27092 0.44424 0.29531 0.0
C2048 C 0.54522 0.86532 0.26635 0.0
C2049 C 0.53687 0.87997 0.27334 0.0
C2050 C 0.56118 0.85918 0.27411 0.0
C2051 C 0.56927 0.86821 0.28917 0.0
C2052 C 0.56111 0.88325 0.29623 0.0
C2053 C 0.54486 0.88879 0.28825 0.0
C2054 C 0.56913 0.84277 0.26625 0.0
C2055 C 0.56959 0.89354 0.3122 0.0
C2056 C 0.59177 0.83465 0.31352 0.0
C2057 C 0.61762 0.84918 0.31371 0.0
C2058 C 0.57584 0.84051 0.30548 0.0
C2059 C 0.58599 0.86163 0.2976 0.0
C2060 C 0.61207 0.87646 0.29779 0.0
C2061 C 0.62756 0.86995 0.30574 0.0
C2062 C 0.54814 0.824 0.30537 0.0
C2063 C 0.62361 0.89929 0.28967 0.0
H2064 H 0.53887 0.85826 0.25486 0.0
H2065 H 0.53862 0.90031 0.29365 0.0
H2066 H 0.58964 0.85244 0.26662 0.0
H2067 H 0.56323 0.82582 0.27192 0.0
H2068 H 0.56116 0.83725 0.25453 0.0
H2069 H 0.56206 0.90546 0.31595 0.0
H2070 H 0.56364 0.87819 0.3193 0.0
H2071 H 0.59015 0.90454 0.31384 0.0
H2072 H 0.5839 0.81845 0.31954 0.0
H2073 H 0.64751 0.88132 0.30585 0.0
H2074 H 0.53953 0.81694 0.29386 0.0
H2075 H 0.53992 0.83473 0.31001 0.0
H2076 H 0.54321 0.80799 0.31184 0.0
H2077 H 0.61725 0.89424 0.27772 0.0
H2078 H 0.64421 0.90902 0.29107 0.0
H2079 H 0.61754 0.91229 0.29372 0.0
C2080 C 0.0952 0.65335 0.28624 0.0
C2081 C 0.08252 0.63406 0.295 0.0
C2082 C 0.10489 0.67804 0.29184 0.0
C2083 C 0.1017 0.68352 0.30653 0.0
C2084 C 0.08849 0.66412 0.31536 0.0
C2085 C 0.07913 0.63956 0.30949 0.0
C2086 C 0.11904 0.69826 0.28213 0.0
C2087 C 0.08456 0.66933 0.33103 0.0
C2088 C 0.14812 0.74752 0.32483 0.0
C2089 C 0.13504 0.76014 0.32292 0.0
C2090 C 0.13731 0.72242 0.31977 0.0
C2091 C 0.1128 0.70966 0.31272 0.0
C2092 C 0.09931 0.72215 0.31103 0.0
C2093 C 0.11064 0.74729 0.3161 0.0
C2094 C 0.1523 0.7097 0.32167 0.0
C2095 C 0.07307 0.70905 0.30366 0.0
H2096 H 0.09819 0.64917 0.2751 0.0
H2097 H 0.06916 0.62464 0.31623 0.0
H2098 H 0.11061 0.71015 0.28127 0.0
H2099 H 0.13845 0.71022 0.28714 0.0
H2100 H 0.11934 0.69082 0.27084 0.0
H2101 H 0.07306 0.65212 0.33623 0.0
H2102 H 0.10273 0.68024 0.33777 0.0
H2103 H 0.07537 0.6806 0.33131 0.0
H2104 H 0.16698 0.75732 0.3301 0.0
H2105 H 0.10035 0.75688 0.31468 0.0
H2106 H 0.15491 0.70322 0.3107 0.0
H2107 H 0.14219 0.69317 0.32769 0.0
H2108 H 0.17083 0.72206 0.3278 0.0
H2109 H 0.07283 0.70275 0.292 0.0
H2110 H 0.06471 0.7211 0.30387 0.0
H2111 H 0.06127 0.69236 0.30918 0.0
C2112 C 0.79421 0.00364 0.39732 0.0
C2113 C 0.80126 0.02364 0.38886 0.0
C2114 C 0.77622 0.97959 0.39152 0.0
C2115 C 0.76492 0.97549 0.37694 0.0
C2116 C 0.77152 0.9957 0.36848 0.0
C2117 C 0.7897 0.01954 0.37453 0.0
C2118 C 0.76983 0.95847 0.40083 0.0
C2119 C 0.7597 0.99207 0.35294 0.0
C2120 C 0.73909 0.91216 0.35601 0.0
C2121 C 0.71359 0.90148 0.35731 0.0
C2122 C 0.75597 0.93615 0.36245 0.0
C2123 C 0.74714 0.94991 0.37028 0.0
C2124 C 0.72146 0.93926 0.37166 0.0
C2125 C 0.70497 0.9151 0.36521 0.0
C2126 C 0.78326 0.9468 0.36085 0.0
C2127 C 0.71138 0.95347 0.37985 0.0
H2128 H 0.8033 0.00671 0.40836 0.0
H2129 H 0.79491 0.03501 0.36803 0.0
H2130 H 0.74953 0.94788 0.40156 0.0
H2131 H 0.77508 0.94554 0.39557 0.0
H2132 H 0.77945 0.96492 0.41218 0.0
H2133 H 0.76591 0.00986 0.34814 0.0
H2134 H 0.76441 0.98038 0.34578 0.0
H2135 H 0.7392 0.98225 0.35278 0.0
H2136 H 0.74595 0.90174 0.35 0.0
H2137 H 0.6853 0.90702 0.36622 0.0
H2138 H 0.79391 0.95225 0.37189 0.0
H2139 H 0.79023 0.96372 0.35503 0.0
H2140 H 0.78714 0.93351 0.35462 0.0
H2141 H 0.72005 0.95905 0.39141 0.0
H2142 H 0.69092 0.94253 0.37995 0.0
H2143 H 0.71617 0.97067 0.37466 0.0
C2144 C 0.9995 0.78554 0.38601 0.0
C2145 C 0.00354 0.79482 0.4009 0.0
C2146 C 0.01945 0.79108 0.37759 0.0
C2147 C 0.04408 0.80663 0.38413 0.0
C2148 C 0.04827 0.81629 0.39913 0.0
C2149 C 0.02796 0.81008 0.40737 0.0
C2150 C 0.01414 0.77994 0.36176 0.0
C2151 C 0.07422 0.83318 0.40647 0.0
C2152 C 0.09622 0.80171 0.36765 0.0
C2153 C 0.10588 0.8216 0.35896 0.0
C2154 C 0.07607 0.79658 0.37577 0.0
C2155 C 0.06546 0.81195 0.37545 0.0
C2156 C 0.07515 0.83214 0.36675 0.0
C2157 C 0.0951 0.8366 0.3585 0.0
C2158 C 0.06607 0.7746 0.38466 0.0
C2159 C 0.06463 0.8492 0.3663 0.0
H2160 H 0.98066 0.77355 0.38101 0.0
H2161 H 0.03115 0.81751 0.41883 0.0
H2162 H 0.02245 0.79477 0.35433 0.0
H2163 H 0.02279 0.76829 0.36029 0.0
H2164 H 0.99395 0.7684 0.35828 0.0
H2165 H 0.07431 0.83998 0.41801 0.0
H2166 H 0.08482 0.8233 0.40656 0.0
H2167 H 0.08412 0.84933 0.40012 0.0
H2168 H 0.1043 0.78991 0.36804 0.0
H2169 H 0.10258 0.85211 0.35192 0.0
H2170 H 0.04608 0.76189 0.38112 0.0
H2171 H 0.0677 0.78082 0.39651 0.0
H2172 H 0.07603 0.76413 0.38346 0.0
H2173 H 0.0447 0.83858 0.36209 0.0
H2174 H 0.07448 0.8643 0.35921 0.0
H2175 H 0.06588 0.85752 0.37763 0.0
C2176 C 0.26144 0.25327 0.38871 0.0
C2177 C 0.24854 0.22745 0.3884 0.0
C2178 C 0.25082 0.26551 0.38157 0.0
C2179 C 0.2267 0.25157 0.37401 0.0
C2180 C 0.21367 0.2255 0.37357 0.0
C2181 C 0.22475 0.21375 0.38077 0.0
C2182 C 0.26529 0.29336 0.38221 0.0
C2183 C 0.18786 0.21004 0.36572 0.0
C2184 C 0.18996 0.28426 0.36878 0.0
C2185 C 0.1929 0.2896 0.35407 0.0
C2186 C 0.20066 0.27167 0.37534 0.0
C2187 C 0.21473 0.26432 0.36701 0.0
C2188 C 0.21747 0.26928 0.3521 0.0
C2189 C 0.20644 0.28181 0.34577 0.0
C2190 C 0.19716 0.26652 0.39125 0.0
C2191 C 0.23239 0.26172 0.3429 0.0
H2192 H 0.27992 0.26388 0.39447 0.0
H2193 H 0.21456 0.1938 0.38068 0.0
H2194 H 0.26717 0.29915 0.37088 0.0
H2195 H 0.25513 0.30125 0.38785 0.0
H2196 H 0.28411 0.30141 0.38815 0.0
H2197 H 0.18058 0.1899 0.366 0.0
H2198 H 0.17501 0.21489 0.37092 0.0
H2199 H 0.18779 0.214 0.35404 0.0
H2200 H 0.17944 0.29011 0.37526 0.0
H2201 H 0.20887 0.28596 0.33442 0.0
H2202 H 0.21543 0.27579 0.39794 0.0
H2203 H 0.18863 0.24639 0.39213 0.0
H2204 H 0.18523 0.27303 0.39609 0.0
H2205 H 0.25187 0.27092 0.34797 0.0
H2206 H 0.23238 0.26657 0.33139 0.0
H2207 H 0.22484 0.24149 0.34261 0.0
C2208 C 0.69388 0.56332 0.73353 0.0
C2209 C 0.66919 0.55264 0.72741 0.0
C2210 C 0.71363 0.57586 0.72494 0.0
C2211 C 0.70853 0.57777 0.70989 0.0
C2212 C 0.68366 0.56694 0.70365 0.0
C2213 C 0.66433 0.55458 0.71249 0.0
C2214 C 0.73996 0.5873 0.73201 0.0
C2215 C 0.67746 0.56885 0.68771 0.0
C2216 C 0.75825 0.63205 0.69278 0.0
C2217 C 0.76946 0.6211 0.68479 0.0
C2218 C 0.73824 0.61808 0.7008 0.0
C2219 C 0.72918 0.59245 0.70092 0.0
C2220 C 0.73993 0.58108 0.69256 0.0
C2221 C 0.75993 0.59556 0.68452 0.0
C2222 C 0.72714 0.63089 0.70942 0.0
C2223 C 0.73073 0.55378 0.69245 0.0
H2224 H 0.69777 0.56167 0.74501 0.0
H2225 H 0.64531 0.54673 0.70773 0.0
H2226 H 0.75035 0.5805 0.72564 0.0
H2227 H 0.74959 0.60767 0.73185 0.0
H2228 H 0.74078 0.58312 0.74362 0.0
H2229 H 0.65717 0.5584 0.68436 0.0
H2230 H 0.68466 0.58852 0.68591 0.0
H2231 H 0.68658 0.56174 0.68039 0.0
H2232 H 0.7654 0.65178 0.69297 0.0
H2233 H 0.76865 0.58704 0.67848 0.0
H2234 H 0.72953 0.62927 0.72137 0.0
H2235 H 0.70693 0.62186 0.70609 0.0
H2236 H 0.73582 0.65081 0.70776 0.0
H2237 H 0.73343 0.54945 0.70379 0.0
H2238 H 0.74051 0.54761 0.68503 0.0
H2239 H 0.71055 0.54297 0.68887 0.0
C2240 C 0.48263 0.15441 0.72531 0.0
C2241 C 0.4761 0.13158 0.73056 0.0
C2242 C 0.46455 0.15891 0.71873 0.0
C2243 C 0.43929 0.14005 0.71725 0.0
C2244 C 0.43252 0.11708 0.72275 0.0
C2245 C 0.451 0.11316 0.72939 0.0
C2246 C 0.47253 0.18373 0.71316 0.0
C2247 C 0.40583 0.09645 0.72129 0.0
C2248 C 0.3905 0.15872 0.7098 0.0
C2249 C 0.3854 0.15378 0.69439 0.0
C2250 C 0.40775 0.15408 0.71741 0.0
C2251 C 0.42014 0.14412 0.70946 0.0
C2252 C 0.41476 0.1387 0.69395 0.0
C2253 C 0.39755 0.14366 0.68661 0.0
C2254 C 0.41303 0.16022 0.73394 0.0
C2255 C 0.42742 0.1279 0.68507 0.0
H2256 H 0.50196 0.16884 0.72636 0.0
H2257 H 0.44586 0.0954 0.73331 0.0
H2258 H 0.46788 0.18134 0.70103 0.0
H2259 H 0.46234 0.19215 0.71816 0.0
H2260 H 0.49276 0.19677 0.71569 0.0
H2261 H 0.40351 0.08006 0.72664 0.0
H2262 H 0.39408 0.10298 0.7263 0.0
H2263 H 0.39885 0.09067 0.70945 0.0
H2264 H 0.38125 0.16655 0.71594 0.0
H2265 H 0.3937 0.13964 0.67473 0.0
H2266 H 0.43277 0.17462 0.73681 0.0
H2267 H 0.40997 0.14366 0.73934 0.0
H2268 H 0.4012 0.16702 0.73857 0.0
H2269 H 0.44772 0.14096 0.68619 0.0
H2270 H 0.42053 0.12389 0.67316 0.0
H2271 H 0.42444 0.11052 0.68935 0.0
C2272 C 0.89116 0.35045 0.70163 0.0
C2273 C 0.91535 0.36469 0.70862 0.0
C2274 C 0.88179 0.32574 0.69618 0.0
C2275 C 0.89705 0.31508 0.69768 0.0
C2276 C 0.92169 0.32951 0.70442 0.0
C2277 C 0.93052 0.35416 0.7099 0.0
C2278 C 0.85533 0.31085 0.68919 0.0
C2279 C 0.93856 0.3188 0.70605 0.0
C2280 C 0.86443 0.2454 0.69749 0.0
C2281 C 0.8652 0.23796 0.68283 0.0
C2282 C 0.87499 0.27048 0.7025 0.0
C2283 C 0.88682 0.28855 0.69265 0.0
C2284 C 0.88808 0.28121 0.67791 0.0
C2285 C 0.87712 0.25596 0.67315 0.0
C2286 C 0.87308 0.27762 0.71827 0.0
C2287 C 0.90077 0.3 0.66715 0.0
H2288 H 0.87927 0.35844 0.70083 0.0
H2289 H 0.94929 0.36522 0.71521 0.0
H2290 H 0.85479 0.30285 0.67791 0.0
H2291 H 0.84443 0.29521 0.69571 0.0
H2292 H 0.84616 0.32213 0.68849 0.0
H2293 H 0.95759 0.33283 0.71091 0.0
H2294 H 0.93079 0.30352 0.71323 0.0
H2295 H 0.93977 0.31088 0.69515 0.0
H2296 H 0.85522 0.23159 0.70503 0.0
H2297 H 0.87795 0.25035 0.66182 0.0
H2298 H 0.86258 0.28761 0.71847 0.0
H2299 H 0.89185 0.29036 0.72397 0.0
H2300 H 0.86368 0.26132 0.7246 0.0
H2301 H 0.89108 0.31059 0.66547 0.0
H2302 H 0.90109 0.2913 0.65627 0.0
H2303 H 0.92013 0.31345 0.67169 0.0
C2304 C 0.22827 0.98413 0.62154 0.0
C2305 C 0.20287 0.97576 0.62162 0.0
C2306 C 0.2461 0.00808 0.62764 0.0
C2307 C 0.23828 0.02404 0.6338 0.0
C2308 C 0.21266 0.0157 0.63382 0.0
C2309 C 0.19526 0.99161 0.62778 0.0
C2310 C 0.27328 0.01628 0.62756 0.0
C2311 C 0.20361 0.03228 0.64015 0.0
C2312 C 0.28171 0.07855 0.66154 0.0
C2313 C 0.29029 0.09823 0.65272 0.0
C2314 C 0.26518 0.05421 0.65545 0.0
C2315 C 0.25685 0.0495 0.64023 0.0
C2316 C 0.26563 0.06924 0.63124 0.0
C2317 C 0.28235 0.09337 0.63758 0.0
C2318 C 0.25638 0.03357 0.66535 0.0
C2319 C 0.25699 0.06495 0.61498 0.0
H2320 H 0.23417 0.97181 0.61688 0.0
H2321 H 0.17562 0.98527 0.62767 0.0
H2322 H 0.28257 0.03279 0.62143 0.0
H2323 H 0.28243 0.02169 0.63902 0.0
H2324 H 0.27626 0.00156 0.62243 0.0
H2325 H 0.18304 0.023 0.63921 0.0
H2326 H 0.21074 0.0382 0.65196 0.0
H2327 H 0.21085 0.04922 0.63434 0.0
H2328 H 0.28788 0.08213 0.67323 0.0
H2329 H 0.28884 0.10848 0.6307 0.0
H2330 H 0.26018 0.01905 0.66089 0.0
H2331 H 0.23602 0.02479 0.66567 0.0
H2332 H 0.26547 0.04018 0.67682 0.0
H2333 H 0.26091 0.05123 0.60941 0.0
H2334 H 0.26606 0.08221 0.60945 0.0
H2335 H 0.23661 0.0572 0.61344 0.0
C2336 C 0.98916 0.1794 0.61749 0.0
C2337 C 0.00297 0.20183 0.6114 0.0
C2338 C 0.96778 0.17421 0.62437 0.0
C2339 C 0.95991 0.19185 0.62523 0.0
C2340 C 0.97347 0.21434 0.61886 0.0
C2341 C 0.9948 0.21904 0.612 0.0
C2342 C 0.95374 0.1499 0.63087 0.0
C2343 C 0.9657 0.23363 0.61953 0.0
C2344 C 0.89292 0.16934 0.63251 0.0
C2345 C 0.89524 0.17604 0.64773 0.0
C2346 C 0.91378 0.17462 0.62503 0.0
C2347 C 0.93764 0.1868 0.63294 0.0
C2348 C 0.94016 0.19358 0.64831 0.0
C2349 C 0.91896 0.1881 0.65551 0.0
C2350 C 0.91023 0.16706 0.60865 0.0
C2351 C 0.96528 0.20661 0.65715 0.0
H2352 H 0.99508 0.16582 0.61686 0.0
H2353 H 0.00547 0.23649 0.60744 0.0
H2354 H 0.9535 0.15332 0.64291 0.0
H2355 H 0.93418 0.13971 0.62591 0.0
H2356 H 0.96203 0.13797 0.62906 0.0
H2357 H 0.97785 0.24988 0.61375 0.0
H2358 H 0.94632 0.22551 0.6145 0.0
H2359 H 0.96623 0.24006 0.63121 0.0
H2360 H 0.87473 0.15983 0.62637 0.0
H2361 H 0.92102 0.19345 0.66725 0.0
H2362 H 0.91737 0.15428 0.60634 0.0
H2363 H 0.921 0.18354 0.60271 0.0
H2364 H 0.89045 0.15782 0.60409 0.0
H2365 H 0.97392 0.19486 0.65647 0.0
H2366 H 0.96417 0.21103 0.66895 0.0
H2367 H 0.97774 0.22405 0.65246 0.0
C2368 C 0.78374 0.78696 0.62034 0.0
C2369 C 0.75795 0.77422 0.617 0.0
C2370 C 0.79561 0.77569 0.62724 0.0
C2371 C 0.7812 0.75137 0.63119 0.0
C2372 C 0.75506 0.73858 0.62802 0.0
C2373 C 0.74374 0.75009 0.62077 0.0
C2374 C 0.82356 0.78963 0.63008 0.0
C2375 C 0.73906 0.7128 0.63233 0.0
C2376 C 0.80939 0.71066 0.63619 0.0
C2377 C 0.81409 0.71302 0.65157 0.0
C2378 C 0.7995 0.72375 0.62939 0.0
C2379 C 0.79348 0.73895 0.63824 0.0
C2380 C 0.79849 0.74165 0.6538 0.0
C2381 C 0.80913 0.72888 0.66029 0.0
C2382 C 0.79515 0.72098 0.61276 0.0
C2383 C 0.7918 0.75729 0.66358 0.0
H2384 H 0.79463 0.80562 0.61731 0.0
H2385 H 0.72376 0.74043 0.61825 0.0
H2386 H 0.82926 0.79148 0.64204 0.0
H2387 H 0.83118 0.77917 0.62433 0.0
H2388 H 0.83202 0.80839 0.62628 0.0
H2389 H 0.71895 0.70593 0.62972 0.0
H2390 H 0.7437 0.69986 0.62645 0.0
H2391 H 0.74277 0.71246 0.64433 0.0
H2392 H 0.81346 0.69851 0.62947 0.0
H2393 H 0.81262 0.73049 0.67219 0.0
H2394 H 0.80395 0.73944 0.60857 0.0
H2395 H 0.77498 0.71175 0.60927 0.0
H2396 H 0.80264 0.70997 0.60749 0.0
H2397 H 0.80082 0.77646 0.66045 0.0
H2398 H 0.79741 0.75787 0.67544 0.0
H2399 H 0.77147 0.74979 0.66206 0.0
C2400 C 0.9998 0.75314 0.61426 0.0
C2401 C 0.01021 0.77861 0.6134 0.0
C2402 C 0.97941 0.74024 0.62234 0.0
C2403 C 0.96912 0.75312 0.62964 0.0
C2404 C 0.97959 0.77882 0.62882 0.0
C2405 C 0.99996 0.79123 0.62071 0.0
C2406 C 0.96872 0.71281 0.62295 0.0
C2407 C 0.96899 0.79315 0.6363 0.0
C2408 C 0.90158 0.71663 0.63677 0.0
C2409 C 0.90324 0.71343 0.65182 0.0
C2410 C 0.92284 0.72949 0.62948 0.0
C2411 C 0.9465 0.73949 0.63739 0.0
C2412 C 0.94842 0.73666 0.65263 0.0
C2413 C 0.92672 0.72368 0.65969 0.0
C2414 C 0.91993 0.7322 0.61325 0.0
C2415 C 0.97338 0.74709 0.6614 0.0
H2416 H 0.00782 0.74336 0.60877 0.0
H2417 H 0.00769 0.81085 0.61991 0.0
H2418 H 0.96839 0.7086 0.6346 0.0
H2419 H 0.94926 0.70268 0.61781 0.0
H2420 H 0.97945 0.70573 0.61717 0.0
H2421 H 0.97995 0.81326 0.63512 0.0
H2422 H 0.94964 0.78606 0.63149 0.0
H2423 H 0.96839 0.79056 0.64822 0.0
H2424 H 0.88355 0.70893 0.63057 0.0
H2425 H 0.92816 0.72117 0.67128 0.0
H2426 H 0.92901 0.72382 0.6069 0.0
H2427 H 0.92924 0.75207 0.61145 0.0
H2428 H 0.90017 0.72328 0.60871 0.0
H2429 H 0.98388 0.73889 0.65655 0.0
H2430 H 0.97173 0.74345 0.67316 0.0
H2431 H 0.98443 0.76735 0.66086 0.0
C2432 C 0.228 0.23277 0.61144 0.0
C2433 C 0.20412 0.21382 0.60604 0.0
C2434 C 0.24452 0.22762 0.61946 0.0
C2435 C 0.23716 0.20285 0.62179 0.0
C2436 C 0.21316 0.1836 0.6161 0.0
C2437 C 0.1968 0.18937 0.60846 0.0
C2438 C 0.26968 0.24873 0.62566 0.0
C2439 C 0.2048 0.15691 0.61804 0.0
C2440 C 0.28823 0.18819 0.63171 0.0
C2441 C 0.28696 0.18631 0.6469 0.0
C2442 C 0.2719 0.19319 0.62335 0.0
C2443 C 0.25438 0.19713 0.63043 0.0
C2444 C 0.2533 0.19561 0.64583 0.0
C2445 C 0.26936 0.18987 0.65383 0.0
C2446 C 0.27322 0.19399 0.60691 0.0
C2447 C 0.23535 0.2003 0.65387 0.0
H2448 H 0.23355 0.2517 0.60964 0.0
H2449 H 0.17835 0.17472 0.60418 0.0
H2450 H 0.27191 0.24891 0.63783 0.0
H2451 H 0.28451 0.24622 0.6212 0.0
H2452 H 0.27242 0.26696 0.62303 0.0
H2453 H 0.186 0.14406 0.61237 0.0
H2454 H 0.21808 0.1519 0.61362 0.0
H2455 H 0.20457 0.15419 0.62994 0.0
H2456 H 0.30167 0.18522 0.62629 0.0
H2457 H 0.26846 0.18864 0.6656 0.0
H2458 H 0.27772 0.21255 0.60388 0.0
H2459 H 0.2549 0.18045 0.60096 0.0
H2460 H 0.2874 0.18981 0.60302 0.0
H2461 H 0.2383 0.21889 0.65207 0.0
H2462 H 0.23738 0.19917 0.66593 0.0
H2463 H 0.21601 0.18661 0.64943 0.0
C2464 C 0.75963 0.9823 0.62002 0.0
C2465 C 0.74773 0.96291 0.62883 0.0
C2466 C 0.76891 0.00688 0.62568 0.0
C2467 C 0.76607 0.01215 0.6405 0.0
C2468 C 0.75366 0.99263 0.64939 0.0
C2469 C 0.74472 0.96818 0.64345 0.0
C2470 C 0.78223 0.02724 0.61591 0.0
C2471 C 0.7501 0.9976 0.66519 0.0
C2472 C 0.81196 0.07659 0.65835 0.0
C2473 C 0.79837 0.08874 0.6566 0.0
C2474 C 0.80146 0.05148 0.65344 0.0
C2475 C 0.77673 0.0382 0.64674 0.0
C2476 C 0.76269 0.05016 0.64531 0.0
C2477 C 0.77372 0.07535 0.65021 0.0
C2478 C 0.81704 0.03933 0.65506 0.0
C2479 C 0.73619 0.03649 0.63832 0.0
H2480 H 0.7623 0.97828 0.60877 0.0
H2481 H 0.73534 0.95316 0.65023 0.0
H2482 H 0.77324 0.03866 0.61526 0.0
H2483 H 0.80168 0.03962 0.62072 0.0
H2484 H 0.78239 0.01995 0.60455 0.0
H2485 H 0.73921 0.98029 0.67043 0.0
H2486 H 0.76841 0.00888 0.67173 0.0
H2487 H 0.74044 0.00841 0.66571 0.0
H2488 H 0.83101 0.08682 0.66329 0.0
H2489 H 0.76304 0.08457 0.64893 0.0
H2490 H 0.8196 0.03312 0.64399 0.0
H2491 H 0.80745 0.02269 0.66105 0.0
H2492 H 0.83561 0.05199 0.66106 0.0
H2493 H 0.73565 0.03043 0.62657 0.0
H2494 H 0.72734 0.04808 0.63888 0.0
H2495 H 0.72504 0.01963 0.64386 0.0
C2496 C 0.45854 0.34561 0.72888 0.0
C2497 C 0.46699 0.36562 0.72034 0.0
C2498 C 0.44085 0.32165 0.72276 0.0
C2499 C 0.4313 0.31768 0.70778 0.0
C2500 C 0.43918 0.33794 0.69924 0.0
C2501 C 0.45703 0.36168 0.70561 0.0
C2502 C 0.43305 0.30046 0.73218 0.0
C2503 C 0.4292 0.33445 0.68327 0.0
C2504 C 0.40754 0.25408 0.68775 0.0
C2505 C 0.38183 0.24326 0.68818 0.0
C2506 C 0.42381 0.27831 0.69406 0.0
C2507 C 0.41412 0.29215 0.70084 0.0
C2508 C 0.38818 0.28149 0.70116 0.0
C2509 C 0.37233 0.2571 0.69487 0.0
C2510 C 0.45139 0.28901 0.69359 0.0
C2511 C 0.37722 0.29579 0.70821 0.0
H2512 H 0.46641 0.34857 0.74022 0.0
H2513 H 0.46334 0.37719 0.69904 0.0
H2514 H 0.41255 0.2899 0.732 0.0
H2515 H 0.43886 0.28754 0.72763 0.0
H2516 H 0.44127 0.30684 0.74382 0.0
H2517 H 0.43604 0.3523 0.67844 0.0
H2518 H 0.43483 0.32291 0.6767 0.0
H2519 H 0.40863 0.32452 0.68221 0.0
H2520 H 0.41506 0.2435 0.68264 0.0
H2521 H 0.35247 0.2489 0.69519 0.0
H2522 H 0.46082 0.29426 0.70498 0.0
H2523 H 0.45914 0.30607 0.68787 0.0
H2524 H 0.4559 0.27583 0.68784 0.0
H2525 H 0.38415 0.30103 0.72007 0.0
H2526 H 0.35662 0.28504 0.70721 0.0
H2527 H 0.38317 0.31318 0.70299 0.0
C2528 C 0.67282 0.10527 0.72786 0.0
C2529 C 0.66788 0.12366 0.73318 0.0
C2530 C 0.69256 0.11088 0.71922 0.0
C2531 C 0.70812 0.13561 0.71613 0.0
C2532 C 0.70334 0.15429 0.72165 0.0
C2533 C 0.6831 0.14803 0.72994 0.0
C2534 C 0.69669 0.09033 0.71333 0.0
C2535 C 0.7198 0.18094 0.71895 0.0
C2536 C 0.7728 0.15236 0.70657 0.0
C2537 C 0.77063 0.15267 0.6912 0.0
C2538 C 0.75282 0.1474 0.71481 0.0
C2539 C 0.7298 0.142 0.7075 0.0
C2540 C 0.7275 0.14238 0.69197 0.0
C2541 C 0.74805 0.14803 0.68402 0.0
C2542 C 0.75635 0.14783 0.73137 0.0
C2543 C 0.70314 0.13623 0.68372 0.0
H2544 H 0.6609 0.08637 0.73022 0.0
H2545 H 0.67936 0.16229 0.73411 0.0
H2546 H 0.6966 0.08978 0.70115 0.0
H2547 H 0.71514 0.09382 0.71787 0.0
H2548 H 0.68232 0.07195 0.71617 0.0
H2549 H 0.71367 0.19327 0.72408 0.0
H2550 H 0.73916 0.18746 0.72349 0.0
H2551 H 0.71996 0.18268 0.70693 0.0
H2552 H 0.79027 0.15614 0.71221 0.0
H2553 H 0.74621 0.14805 0.67214 0.0
H2554 H 0.74352 0.12937 0.7348 0.0
H2555 H 0.7518 0.16116 0.73685 0.0
H2556 H 0.77562 0.15306 0.73541 0.0
H2557 H 0.68865 0.11724 0.68551 0.0
H2558 H 0.70438 0.13738 0.67167 0.0
H2559 H 0.69699 0.14902 0.68801 0.0
C2560 C 0.88978 0.54434 0.71393 0.0
C2561 C 0.9134 0.55754 0.72179 0.0
C2562 C 0.87928 0.55661 0.70672 0.0
C2563 C 0.89275 0.5827 0.70739 0.0
C2564 C 0.91667 0.59615 0.71524 0.0
C2565 C 0.92669 0.58339 0.7224 0.0
C2566 C 0.85364 0.54166 0.69858 0.0
C2567 C 0.9316 0.62401 0.71612 0.0
C2568 C 0.87431 0.61396 0.67889 0.0
C2569 C 0.86067 0.6219 0.68696 0.0
C2570 C 0.88485 0.60111 0.68539 0.0
C2571 C 0.88148 0.59597 0.70025 0.0
C2572 C 0.86735 0.60354 0.70835 0.0
C2573 C 0.85717 0.61646 0.70162 0.0
C2574 C 0.89986 0.59334 0.67643 0.0
C2575 C 0.86316 0.59819 0.72418 0.0
H2576 H 0.87929 0.52437 0.71361 0.0
H2577 H 0.94504 0.59362 0.72835 0.0
H2578 H 0.84089 0.54686 0.70356 0.0
H2579 H 0.85413 0.54576 0.6869 0.0
H2580 H 0.84589 0.52145 0.69882 0.0
H2581 H 0.95014 0.63165 0.72236 0.0
H2582 H 0.93414 0.63005 0.70486 0.0
H2583 H 0.92144 0.63207 0.72158 0.0
H2584 H 0.87716 0.61818 0.66757 0.0
H2585 H 0.84656 0.62243 0.70793 0.0
H2586 H 0.89189 0.57304 0.676 0.0
H2587 H 0.91912 0.6021 0.68179 0.0
H2588 H 0.9005 0.59852 0.66497 0.0
H2589 H 0.85418 0.578 0.72495 0.0
H2590 H 0.85135 0.60498 0.72885 0.0
H2591 H 0.88121 0.60705 0.73109 0.0
C2592 C 0.47001 0.9408 0.16173 0.0
C2593 C 0.45874 0.94966 0.17134 0.0
C2594 C 0.47711 0.95054 0.14822 0.0
C2595 C 0.47265 0.96949 0.14403 0.0
C2596 C 0.46079 0.97817 0.15349 0.0
C2597 C 0.45407 0.96823 0.16703 0.0
C2598 C 0.48969 0.94073 0.13848 0.0
C2599 C 0.45555 0.99824 0.14941 0.0
C2600 C 0.51279 0.01116 0.11627 0.0
C2601 C 0.49729 0.0007 0.10301 0.0
C2602 C 0.50493 0.0013 0.12968 0.0
C2603 C 0.48091 0.98056 0.12991 0.0
C2604 C 0.46506 0.9701 0.11658 0.0
C2605 C 0.47346 0.98023 0.10332 0.0
C2606 C 0.52251 0.01287 0.14359 0.0
C2607 C 0.43924 0.94815 0.11633 0.0
H2608 H 0.47328 0.92613 0.16477 0.0
H2609 H 0.44564 0.97544 0.17439 0.0
H2610 H 0.47896 0.93339 0.12747 0.0
H2611 H 0.50841 0.95594 0.13677 0.0
H2612 H 0.49165 0.92582 0.14326 0.0
H2613 H 0.44526 0.00222 0.15765 0.0
H2614 H 0.47325 0.01549 0.1485 0.0
H2615 H 0.44456 0.9928 0.13847 0.0
H2616 H 0.53131 0.02679 0.11612 0.0
H2617 H 0.46124 0.97224 0.09316 0.0
H2618 H 0.52637 0.99904 0.14828 0.0
H2619 H 0.51388 0.01877 0.15201 0.0
H2620 H 0.54041 0.02915 0.14162 0.0
H2621 H 0.44022 0.93222 0.12026 0.0
H2622 H 0.42905 0.94249 0.10512 0.0
H2623 H 0.42846 0.95258 0.12395 0.0
C2624 C 0.98444 0.5008 0.17357 0.0
C2625 C 0.00438 0.49889 0.17986 0.0
C2626 C 0.97848 0.49723 0.15824 0.0
C2627 C 0.99271 0.49146 0.149 0.0
C2628 C 0.01224 0.48856 0.15529 0.0
C2629 C 0.0179 0.49239 0.17065 0.0
C2630 C 0.95747 0.50042 0.15192 0.0
C2631 C 0.02776 0.48232 0.14577 0.0
C2632 C 0.96647 0.46641 0.1092 0.0
C2633 C 0.97893 0.48775 0.10192 0.0
C2634 C 0.97093 0.46724 0.12452 0.0
C2635 C 0.98812 0.48998 0.13273 0.0
C2636 C 1.00081 0.51155 0.12542 0.0
C2637 C 0.99609 0.51016 0.11009 0.0
C2638 C 0.95724 0.44384 0.13195 0.0
C2639 C 0.01917 0.53618 0.13381 0.0
H2640 H 0.97367 0.50542 0.18064 0.0
H2641 H 0.03351 0.49115 0.17542 0.0
H2642 H 0.96486 0.51638 0.14524 0.0
H2643 H 0.94407 0.48381 0.14446 0.0
H2644 H 0.94739 0.50362 0.16064 0.0
H2645 H 0.04092 0.47875 0.15241 0.0
H2646 H 0.01566 0.46577 0.13791 0.0
H2647 H 0.03853 0.49785 0.13915 0.0
H2648 H 0.95339 0.449 0.10287 0.0
H2649 H 0.00551 0.52675 0.10452 0.0
H2650 H 0.94602 0.44618 0.1402 0.0
H2651 H 0.97069 0.43996 0.13797 0.0
H2652 H 0.94475 0.42758 0.12395 0.0
H2653 H 0.0098 0.54149 0.14204 0.0
H2654 H 0.02766 0.55114 0.12644 0.0
H2655 H 0.03419 0.53478 0.13997 0.0
C2656 C 0.44621 0.48277 0.16132 0.0
C2657 C 0.46625 0.49329 0.17234 0.0
C2658 C 0.44948 0.47767 0.14666 0.0
C2659 C 0.47335 0.48328 0.14299 0.0
C2660 C 0.4933 0.49268 0.15424 0.0
C2661 C 0.48948 0.49746 0.16875 0.0
C2662 C 0.4277 0.46742 0.135 0.0
C2663 C 0.51902 0.49883 0.15083 0.0
C2664 C 0.48384 0.45904 0.1065 0.0
C2665 C 0.49169 0.47961 0.09844 0.0
C2666 C 0.47692 0.45959 0.12084 0.0
C2667 C 0.47812 0.4813 0.12731 0.0
C2668 C 0.48554 0.50192 0.1191 0.0
C2669 C 0.49217 0.5008 0.10477 0.0
C2670 C 0.46884 0.43714 0.12918 0.0
C2671 C 0.48725 0.5255 0.12563 0.0
H2672 H 0.42823 0.47959 0.16401 0.0
H2673 H 0.50492 0.50514 0.17729 0.0
H2674 H 0.43048 0.48179 0.12757 0.0
H2675 H 0.42627 0.45148 0.12811 0.0
H2676 H 0.4099 0.4614 0.13986 0.0
H2677 H 0.53212 0.50446 0.16095 0.0
H2678 H 0.5184 0.4827 0.14467 0.0
H2679 H 0.52642 0.51418 0.14368 0.0
H2680 H 0.48308 0.44248 0.10157 0.0
H2681 H 0.49844 0.51684 0.09866 0.0
H2682 H 0.45069 0.43168 0.1334 0.0
H2683 H 0.48245 0.44162 0.13888 0.0
H2684 H 0.4672 0.42113 0.12222 0.0
H2685 H 0.46931 0.52152 0.12963 0.0
H2686 H 0.49219 0.53943 0.11756 0.0
H2687 H 0.5015 0.53368 0.13528 0.0
C2688 C 0.01221 0.49043 0.83262 0.0
C2689 C 0.99294 0.49345 0.82639 0.0
C2690 C 0.0184 0.49409 0.84793 0.0
C2691 C 0.00501 0.50095 0.85724 0.0
C2692 C 0.98585 0.5045 0.85101 0.0
C2693 C 0.98003 0.50069 0.83565 0.0
C2694 C 0.03903 0.49026 0.85417 0.0
C2695 C 0.97116 0.51182 0.86059 0.0
C2696 C 0.00401 0.48623 0.89703 0.0
C2697 C 0.02188 0.50917 0.90438 0.0
C2698 C 0.99827 0.48333 0.88169 0.0
C2699 C 0.01069 0.50388 0.87352 0.0
C2700 C 0.02866 0.52711 0.88088 0.0
C2701 C 0.03405 0.52948 0.89623 0.0
C2702 C 0.97904 0.45823 0.87421 0.0
C2703 C 0.04218 0.54947 0.87254 0.0
H2704 H 0.02248 0.48518 0.82549 0.0
H2705 H 0.96491 0.50274 0.83092 0.0
H2706 H 0.05339 0.50725 0.86098 0.0
H2707 H 0.03162 0.47519 0.86151 0.0
H2708 H 0.048 0.48546 0.84541 0.0
H2709 H 0.95751 0.51477 0.85399 0.0
H2710 H 0.96106 0.49721 0.86791 0.0
H2711 H 0.98385 0.52906 0.86779 0.0
H2712 H 0.99475 0.47042 0.90326 0.0
H2713 H 0.04761 0.54734 0.90188 0.0
H2714 H 0.98753 0.45171 0.86603 0.0
H2715 H 0.96389 0.45951 0.86811 0.0
H2716 H 0.97086 0.44421 0.88218 0.0
H2717 H 0.05239 0.54579 0.86413 0.0
H2718 H 0.05558 0.56624 0.87992 0.0
H2719 H 0.02866 0.55332 0.86659 0.0
C2720 C 0.521 0.51377 0.83524 0.0
C2721 C 0.54032 0.50948 0.83214 0.0
C2722 C 0.51684 0.51769 0.84983 0.0
C2723 C 0.53212 0.51685 0.8616 0.0
C2724 C 0.55254 0.51388 0.85851 0.0
C2725 C 0.5565 0.51038 0.84376 0.0
C2726 C 0.49515 0.52123 0.85261 0.0
C2727 C 0.56913 0.51267 0.87073 0.0
C2728 C 0.52519 0.537 0.90041 0.0
C2729 C 0.50739 0.5144 0.9049 0.0
C2730 C 0.5339 0.53813 0.88644 0.0
C2731 C 0.52485 0.5161 0.8769 0.0
C2732 C 0.50752 0.49317 0.88165 0.0
C2733 C 0.49888 0.49264 0.89553 0.0
C2734 C 0.55214 0.56293 0.8817 0.0
C2735 C 0.49768 0.46919 0.87193 0.0
H2736 H 0.50859 0.51321 0.8262 0.0
H2737 H 0.57133 0.50688 0.84133 0.0
H2738 H 0.48049 0.50451 0.85695 0.0
H2739 H 0.50094 0.53708 0.86105 0.0
H2740 H 0.48703 0.52447 0.84242 0.0
H2741 H 0.58592 0.51351 0.86665 0.0
H2742 H 0.57501 0.52802 0.87955 0.0
H2743 H 0.55869 0.49511 0.87579 0.0
H2744 H 0.53174 0.55384 0.90765 0.0
H2745 H 0.48542 0.47511 0.8991 0.0
H2746 H 0.54331 0.56714 0.87227 0.0
H2747 H 0.56848 0.56254 0.87786 0.0
H2748 H 0.55862 0.5781 0.89074 0.0
H2749 H 0.48688 0.46931 0.86188 0.0
H2750 H 0.48553 0.45283 0.87763 0.0
H2751 H 0.51329 0.46717 0.8683 0.0
C2752 C 0.5084 0.02802 0.83746 0.0
C2753 C 0.53192 0.04632 0.83426 0.0
C2754 C 0.50468 0.01874 0.8513 0.0
C2755 C 0.52499 0.02781 0.86229 0.0
C2756 C 0.54895 0.04572 0.85901 0.0
C2757 C 0.55213 0.05475 0.84505 0.0
C2758 C 0.47885 -0.00042 0.85426 0.0
C2759 C 0.57112 0.0558 0.87038 0.0
C2760 C 0.50914 0.0222 0.90211 0.0
C2761 C 0.50969 0.0008 0.90529 0.0
C2762 C 0.51458 0.03143 0.88831 0.0
C2763 C 0.52084 0.0191 0.87734 0.0
C2764 C 0.52197 0.99782 0.88056 0.0
C2765 C 0.51634 0.98892 0.89445 0.0
C2766 C 0.5132 0.0542 0.88538 0.0
C2767 C 0.52859 0.98411 0.86921 0.0
H2768 H 0.49274 0.02101 0.82913 0.0
H2769 H 0.57034 0.069 0.84275 0.0
H2770 H 0.47882 0.98297 0.85786 0.0
H2771 H 0.47266 0.00707 0.86336 0.0
H2772 H 0.46518 0.99384 0.8444 0.0
H2773 H 0.5887 0.06857 0.86586 0.0
H2774 H 0.56859 0.06592 0.87989 0.0
H2775 H 0.57281 0.04044 0.87464 0.0
H2776 H 0.50449 0.03182 0.91047 0.0
H2777 H 0.51659 0.97225 0.89668 0.0
H2778 H 0.49866 0.04955 0.87619 0.0
H2779 H 0.53107 0.06855 0.88192 0.0
H2780 H 0.50887 0.06213 0.89521 0.0
H2781 H 0.51426 0.97638 0.8596 0.0
H2782 H 0.53006 0.96875 0.87369 0.0
H2783 H 0.54649 0.99699 0.86509 0.0
C2784 C 0.15001 0.30485 0.50408 0.0
C2785 C 0.12559 0.28687 0.50601 0.0
C2786 C 0.15634 0.31439 0.49043 0.0
C2787 C 0.1378 0.30591 0.47836 0.0
C2788 C 0.11306 0.28802 0.48026 0.0
C2789 C 0.10726 0.27869 0.49402 0.0
C2790 C 0.18294 0.33345 0.4889 0.0
C2791 C 0.09273 0.27851 0.46769 0.0
C2792 C 0.15069 0.34622 0.44662 0.0
C2793 C 0.15812 0.33446 0.4362 0.0
C2794 C 0.1438 0.33701 0.46031 0.0
C2795 C 0.14443 0.31556 0.46372 0.0
C2796 C 0.1518 0.30354 0.45322 0.0
C2797 C 0.1585 0.3131 0.43961 0.0
C2798 C 0.13588 0.35027 0.47113 0.0
C2799 C 0.15289 0.28073 0.45644 0.0
H2800 H 0.16425 0.31163 0.5133 0.0
H2801 H 0.08842 0.26459 0.4953 0.0
H2802 H 0.19024 0.32646 0.48019 0.0
H2803 H 0.18399 0.35059 0.48544 0.0
H2804 H 0.19514 0.33819 0.49935 0.0
H2805 H 0.0743 0.26514 0.47106 0.0
H2806 H 0.09163 0.29414 0.46335 0.0
H2807 H 0.09702 0.26929 0.45851 0.0
H2808 H 0.15001 0.36253 0.44402 0.0
H2809 H 0.16451 0.30405 0.43172 0.0
H2810 H 0.14841 0.35667 0.48153 0.0
H2811 H 0.11689 0.33741 0.47394 0.0
H2812 H 0.13604 0.3665 0.46673 0.0
H2813 H 0.16623 0.28507 0.46627 0.0
H2814 H 0.15862 0.27333 0.44703 0.0
H2815 H 0.13448 0.26607 0.45904 0.0
C2816 C 0.64491 0.82996 0.508 0.0
C2817 C 0.66453 0.82744 0.51418 0.0
C2818 C 0.63913 0.82699 0.49267 0.0
C2819 C 0.65326 0.82127 0.48331 0.0
C2820 C 0.67251 0.81782 0.48948 0.0
C2821 C 0.67795 0.82099 0.50485 0.0
C2822 C 0.61838 0.83069 0.48648 0.0
C2823 C 0.68793 0.81164 0.47984 0.0
C2824 C 0.62699 0.79681 0.44346 0.0
C2825 C 0.63958 0.81822 0.43624 0.0
C2826 C 0.63135 0.79747 0.45877 0.0
C2827 C 0.64866 0.82008 0.46705 0.0
C2828 C 0.66148 0.84173 0.45982 0.0
C2829 C 0.65681 0.84052 0.44449 0.0
C2830 C 0.61747 0.77399 0.4661 0.0
C2831 C 0.68001 0.86621 0.4683 0.0
H2832 H 0.63425 0.83458 0.51517 0.0
H2833 H 0.69332 0.8193 0.50955 0.0
H2834 H 0.626 0.8468 0.47992 0.0
H2835 H 0.60483 0.81429 0.47893 0.0
H2836 H 0.60843 0.83393 0.49527 0.0
H2837 H 0.70105 0.80789 0.48637 0.0
H2838 H 0.67574 0.79521 0.47191 0.0
H2839 H 0.69873 0.82726 0.47329 0.0
H2840 H 0.61391 0.77945 0.43708 0.0
H2841 H 0.66638 0.85716 0.43898 0.0
H2842 H 0.60648 0.77643 0.47448 0.0
H2843 H 0.6308 0.76978 0.47196 0.0
H2844 H 0.60473 0.75789 0.45807 0.0
H2845 H 0.67077 0.87153 0.47661 0.0
H2846 H 0.68858 0.88126 0.461 0.0
H2847 H 0.69496 0.86457 0.47437 0.0
C2848 C 0.16494 0.83776 0.50553 0.0
C2849 C 0.14201 0.83376 0.5096 0.0
C2850 C 0.16822 0.83362 0.49078 0.0
C2851 C 0.148 0.82505 0.47979 0.0
C2852 C 0.12445 0.81976 0.4839 0.0
C2853 C 0.12173 0.82421 0.49878 0.0
C2854 C 0.19361 0.8394 0.48689 0.0
C2855 C 0.1024 0.8104 0.47251 0.0
C2856 C 0.16576 0.84315 0.44147 0.0
C2857 C 0.1645 0.82179 0.43474 0.0
C2858 C 0.15974 0.84417 0.45597 0.0
C2859 C 0.15212 0.82328 0.46395 0.0
C2860 C 0.15011 0.8014 0.45709 0.0
C2861 C 0.15643 0.80096 0.44258 0.0
C2862 C 0.16231 0.86792 0.46292 0.0
C2863 C 0.14179 0.77866 0.46517 0.0
H2864 H 0.18056 0.84467 0.51389 0.0
H2865 H 0.10399 0.82119 0.50183 0.0
H2866 H 0.19243 0.82319 0.48047 0.0
H2867 H 0.20096 0.85487 0.47984 0.0
H2868 H 0.20704 0.84465 0.49682 0.0
H2869 H 0.0849 0.8048 0.47763 0.0
H2870 H 0.10545 0.8251 0.4653 0.0
H2871 H 0.10022 0.79436 0.46535 0.0
H2872 H 0.1722 0.85939 0.43552 0.0
H2873 H 0.15506 0.78427 0.43736 0.0
H2874 H 0.17691 0.87563 0.47238 0.0
H2875 H 0.14472 0.86429 0.46728 0.0
H2876 H 0.16725 0.88207 0.455 0.0
H2877 H 0.15562 0.78261 0.47465 0.0
H2878 H 0.13949 0.76261 0.45794 0.0
H2879 H 0.12393 0.77353 0.46969 0.0
C2880 C 0.64621 0.80086 0.16944 0.0
C2881 C 0.65338 0.82026 0.16046 0.0
C2882 C 0.65276 0.80557 0.18472 0.0
C2883 C 0.6665 0.8303 0.19125 0.0
C2884 C 0.67356 0.85 0.18233 0.0
C2885 C 0.66706 0.84475 0.16702 0.0
C2886 C 0.64503 0.78405 0.19387 0.0
C2887 C 0.68802 0.8766 0.18895 0.0
C2888 C 0.66353 0.83966 0.23239 0.0
C2889 C 0.68581 0.84167 0.23826 0.0
C2890 C 0.65735 0.83672 0.21709 0.0
C2891 C 0.67367 0.83541 0.20743 0.0
C2892 C 0.69637 0.83784 0.21325 0.0
C2893 C 0.70224 0.84112 0.22858 0.0
C2894 C 0.63309 0.83444 0.21127 0.0
C2895 C 0.71418 0.83638 0.20329 0.0
H2896 H 0.63521 0.78189 0.16454 0.0
H2897 H 0.67295 0.85986 0.16018 0.0
H2898 H 0.66164 0.78531 0.19989 0.0
H2899 H 0.63314 0.7847 0.20226 0.0
H2900 H 0.63467 0.76593 0.18706 0.0
H2901 H 0.69144 0.88977 0.18054 0.0
H2902 H 0.6778 0.87988 0.19752 0.0
H2903 H 0.70614 0.88064 0.19444 0.0
H2904 H 0.65056 0.83974 0.23975 0.0
H2905 H 0.71972 0.84316 0.233 0.0
H2906 H 0.62075 0.81572 0.20547 0.0
H2907 H 0.63635 0.84795 0.20313 0.0
H2908 H 0.6233 0.83758 0.2202 0.0
H2909 H 0.70506 0.81798 0.1968 0.0
H2910 H 0.73137 0.8393 0.20956 0.0
H2911 H 0.71937 0.85043 0.19532 0.0
C2912 C 0.17939 0.84302 0.16849 0.0
C2913 C 0.20229 0.84626 0.16488 0.0
C2914 C 0.17565 0.84751 0.18309 0.0
C2915 C 0.19537 0.85568 0.19438 0.0
C2916 C 0.21902 0.86059 0.19068 0.0
C2917 C 0.2222 0.85578 0.17595 0.0
C2918 C 0.15016 0.8421 0.18652 0.0
C2919 C 0.24058 0.86958 0.20238 0.0
C2920 C 0.18529 0.87764 0.23182 0.0
C2921 C 0.17683 0.85626 0.23917 0.0
C2922 C 0.19223 0.87808 0.2174 0.0
C2923 C 0.19038 0.85654 0.21012 0.0
C2924 C 0.18221 0.83505 0.21759 0.0
C2925 C 0.17561 0.8352 0.232 0.0
C2926 C 0.20114 0.90143 0.20986 0.0
C2927 C 0.17972 0.8116 0.21019 0.0
H2928 H 0.16407 0.83615 0.15993 0.0
H2929 H 0.23992 0.85826 0.17324 0.0
H2930 H 0.14192 0.82601 0.19308 0.0
H2931 H 0.15139 0.85805 0.19327 0.0
H2932 H 0.13744 0.83787 0.17638 0.0
H2933 H 0.25839 0.87567 0.19753 0.0
H2934 H 0.24229 0.88517 0.20977 0.0
H2935 H 0.23731 0.85445 0.20928 0.0
H2936 H 0.18654 0.89406 0.23737 0.0
H2937 H 0.16881 0.81852 0.23754 0.0
H2938 H 0.18784 0.89813 0.20022 0.0
H2939 H 0.21928 0.90681 0.20565 0.0
H2940 H 0.20316 0.91707 0.21737 0.0
H2941 H 0.16573 0.80467 0.20043 0.0
H2942 H 0.174 0.79679 0.21771 0.0
H2943 H 0.19759 0.81536 0.20619 0.0
C2944 C 0.17517 0.36548 0.1706 0.0
C2945 C 0.19841 0.38493 0.1679 0.0
C2946 C 0.17119 0.35592 0.18435 0.0
C2947 C 0.19093 0.36599 0.19578 0.0
C2948 C 0.21462 0.38523 0.19305 0.0
C2949 C 0.2181 0.39443 0.17913 0.0
C2950 C 0.14569 0.33527 0.18671 0.0
C2951 C 0.23615 0.39651 0.20493 0.0
C2952 C 0.17243 0.35784 0.23502 0.0
C2953 C 0.17496 0.33756 0.23837 0.0
C2954 C 0.17809 0.36759 0.22137 0.0
C2955 C 0.18643 0.3568 0.21069 0.0
C2956 C 0.18934 0.33655 0.21405 0.0
C2957 C 0.18361 0.32722 0.22782 0.0
C2958 C 0.17468 0.38917 0.21826 0.0
C2959 C 0.19821 0.32453 0.20302 0.0
H2960 H 0.15995 0.35771 0.16191 0.0
H2961 H 0.23607 0.40956 0.17719 0.0
H2962 H 0.14686 0.31927 0.19035 0.0
H2963 H 0.13806 0.34155 0.19558 0.0
H2964 H 0.13252 0.32896 0.17657 0.0
H2965 H 0.25365 0.41051 0.20087 0.0
H2966 H 0.23194 0.40549 0.21429 0.0
H2967 H 0.23908 0.3819 0.20929 0.0
H2968 H 0.16548 0.36582 0.24297 0.0
H2969 H 0.18606 0.31184 0.23036 0.0
H2970 H 0.16019 0.38353 0.20889 0.0
H2971 H 0.19213 0.4045 0.21499 0.0
H2972 H 0.16918 0.3962 0.22794 0.0
H2973 H 0.18487 0.31671 0.19294 0.0
H2974 H 0.20029 0.30948 0.20748 0.0
H2975 H 0.21632 0.33852 0.19963 0.0
C2976 C 0.79995 0.60637 0.82709 0.0
C2977 C 0.78973 0.61593 0.83703 0.0
C2978 C 0.80636 0.61572 0.8134 0.0
C2979 C 0.80252 0.63518 0.80948 0.0
C2980 C 0.79189 0.6447 0.81936 0.0
C2981 C 0.78561 0.63496 0.83299 0.0
C2982 C 0.81747 0.6049 0.80317 0.0
C2983 C 0.78757 0.6655 0.81565 0.0
C2984 C 0.84193 0.67562 0.78107 0.0
C2985 C 0.82546 0.66607 0.76813 0.0
C2986 C 0.83463 0.66589 0.79457 0.0
C2987 C 0.81026 0.646 0.79523 0.0
C2988 C 0.7935 0.63629 0.78225 0.0
C2989 C 0.80127 0.64644 0.76889 0.0
C2990 C 0.85312 0.67677 0.80814 0.0
C2991 C 0.76736 0.61509 0.78244 0.0
H2992 H 0.80284 0.5914 0.82999 0.0
H2993 H 0.77797 0.64266 0.84063 0.0
H2994 H 0.80614 0.59801 0.79233 0.0
H2995 H 0.83636 0.61943 0.80118 0.0
H2996 H 0.81873 0.58944 0.80769 0.0
H2997 H 0.77843 0.67032 0.82429 0.0
H2998 H 0.80553 0.68219 0.81432 0.0
H2999 H 0.77584 0.66032 0.805 0.0
H3000 H 0.86076 0.69049 0.7806 0.0
H3001 H 0.78825 0.63911 0.75904 0.0
H3002 H 0.85646 0.66239 0.81245 0.0
H3003 H 0.84556 0.68324 0.81696 0.0
H3004 H 0.87117 0.69255 0.80587 0.0
H3005 H 0.7678 0.59874 0.78612 0.0
H3006 H 0.75654 0.60976 0.77143 0.0
H3007 H 0.75754 0.62017 0.79045 0.0
C3008 C 0.31175 0.15436 0.84023 0.0
C3009 C 0.32895 0.14911 0.84724 0.0
C3010 C 0.3068 0.15091 0.82484 0.0
C3011 C 0.31908 0.14161 0.81623 0.0
C3012 C 0.33537 0.13492 0.82326 0.0
C3013 C 0.34025 0.1389 0.83868 0.0
C3014 C 0.28935 0.15834 0.81775 0.0
C3015 C 0.34856 0.12466 0.81445 0.0
C3016 C 0.29388 0.12086 0.77591 0.0
C3017 C 0.30991 0.14183 0.76918 0.0
C3018 C 0.29707 0.12014 0.7912 0.0
C3019 C 0.31651 0.14103 0.79991 0.0
C3020 C 0.33299 0.16206 0.79311 0.0
C3021 C 0.32956 0.16214 0.77782 0.0
C3022 C 0.27942 0.09726 0.79805 0.0
C3023 C 0.35379 0.18482 0.80205 0.0
H3024 H 0.30253 0.16174 0.84679 0.0
H3025 H 0.35373 0.13498 0.84396 0.0
H3026 H 0.29981 0.17417 0.81127 0.0
H3027 H 0.27488 0.14291 0.80998 0.0
H3028 H 0.28011 0.16379 0.82601 0.0
H3029 H 0.35819 0.11759 0.82157 0.0
H3030 H 0.33523 0.10946 0.80611 0.0
H3031 H 0.36251 0.13936 0.8084 0.0
H3032 H 0.27879 0.10507 0.76921 0.0
H3033 H 0.34178 0.17849 0.77266 0.0
H3034 H 0.26849 0.10167 0.80555 0.0
H3035 H 0.28995 0.09072 0.80481 0.0
H3036 H 0.26637 0.082 0.78963 0.0
H3037 H 0.34599 0.19266 0.80991 0.0
H3038 H 0.3654 0.19934 0.79501 0.0
H3039 H 0.36589 0.17988 0.80864 0.0
C3040 C 0.7814 0.15881 0.82814 0.0
C3041 C 0.80052 0.16586 0.83945 0.0
C3042 C 0.7847 0.15417 0.81342 0.0
C3043 C 0.80762 0.1566 0.81002 0.0
C3044 C 0.82638 0.16227 0.82154 0.0
C3045 C 0.82258 0.16679 0.8361 0.0
C3046 C 0.7642 0.148 0.80144 0.0
C3047 C 0.85102 0.16487 0.81842 0.0
C3048 C 0.81635 0.13298 0.77279 0.0
C3049 C 0.82806 0.15483 0.76587 0.0
C3050 C 0.80873 0.13303 0.78697 0.0
C3051 C 0.81304 0.15549 0.79442 0.0
C3052 C 0.82429 0.17747 0.78733 0.0
C3053 C 0.83164 0.17687 0.77316 0.0
C3054 C 0.79662 0.1092 0.79413 0.0
C3055 C 0.82931 0.20183 0.79492 0.0
H3056 H 0.76435 0.15816 0.8307 0.0
H3057 H 0.83724 0.17185 0.84487 0.0
H3058 H 0.76981 0.16389 0.79481 0.0
H3059 H 0.76086 0.13192 0.79384 0.0
H3060 H 0.74656 0.14379 0.80601 0.0
H3061 H 0.86285 0.16742 0.82868 0.0
H3062 H 0.84813 0.14832 0.8115 0.0
H3063 H 0.86117 0.18106 0.81214 0.0
H3064 H 0.81315 0.11581 0.76711 0.0
H3065 H 0.84088 0.19386 0.76794 0.0
H3066 H 0.77887 0.10592 0.79808 0.0
H3067 H 0.80882 0.11055 0.8039 0.0
H3068 H 0.79291 0.09303 0.78646 0.0
H3069 H 0.812 0.20003 0.79874 0.0
H3070 H 0.83691 0.21693 0.78759 0.0
H3071 H 0.84279 0.20719 0.80481 0.0
C3072 C 0.34802 0.1647 0.50129 0.0
C3073 C 0.3294 0.16834 0.49468 0.0
C3074 C 0.35353 0.16817 0.51666 0.0
C3075 C 0.34022 0.17566 0.52563 0.0
C3076 C 0.32197 0.18017 0.51902 0.0
C3077 C 0.31672 0.17639 0.50362 0.0
C3078 C 0.37315 0.16321 0.52331 0.0
C3079 C 0.30748 0.18828 0.52824 0.0
C3080 C 0.33588 0.15853 0.56495 0.0
C3081 C 0.35447 0.18063 0.57278 0.0
C3082 C 0.33085 0.15677 0.54961 0.0
C3083 C 0.34467 0.17767 0.54195 0.0
C3084 C 0.36316 0.20018 0.54983 0.0
C3085 C 0.3679 0.20136 0.56516 0.0
C3086 C 0.31109 0.1324 0.54157 0.0
C3087 C 0.37807 0.2229 0.54204 0.0
H3088 H 0.35817 0.15888 0.49443 0.0
H3089 H 0.30211 0.17897 0.49861 0.0
H3090 H 0.38745 0.1797 0.53051 0.0
H3091 H 0.36464 0.14777 0.53032 0.0
H3092 H 0.38242 0.15835 0.51477 0.0
H3093 H 0.29516 0.19266 0.52137 0.0
H3094 H 0.29592 0.17342 0.53508 0.0
H3095 H 0.32033 0.20485 0.53591 0.0
H3096 H 0.32565 0.1424 0.57078 0.0
H3097 H 0.38208 0.21856 0.57121 0.0
H3098 H 0.31952 0.12548 0.53358 0.0
H3099 H 0.29699 0.13493 0.53518 0.0
H3100 H 0.30159 0.11811 0.54921 0.0
H3101 H 0.38882 0.21922 0.53402 0.0
H3102 H 0.39118 0.2392 0.54984 0.0
H3103 H 0.36548 0.22752 0.5357 0.0
C3104 C 0.87918 0.19099 0.50402 0.0
C3105 C 0.87709 0.16791 0.50051 0.0
C3106 C 0.87488 0.19747 0.51813 0.0
C3107 C 0.86857 0.18051 0.52893 0.0
C3108 C 0.86786 0.1578 0.52564 0.0
C3109 C 0.87204 0.15175 0.51146 0.0
C3110 C 0.87578 0.22184 0.52121 0.0
C3111 C 0.86155 0.13932 0.53687 0.0
C3112 C 0.86959 0.19825 0.56966 0.0
C3113 C 0.84417 0.18818 0.57117 0.0
C3114 C 0.87799 0.19684 0.55587 0.0
C3115 C 0.86061 0.18533 0.54324 0.0
C3116 C 0.83511 0.17627 0.54456 0.0
C3117 C 0.8272 0.17767 0.55848 0.0
C3118 C 0.90533 0.20668 0.55494 0.0
C3119 C 0.81596 0.16398 0.53135 0.0
H3120 H 0.88297 0.20345 0.49553 0.0
H3121 H 0.87072 0.13401 0.5088 0.0
H3122 H 0.85674 0.21844 0.52221 0.0
H3123 H 0.887 0.23163 0.53184 0.0
H3124 H 0.88368 0.23408 0.51232 0.0
H3125 H 0.86379 0.12347 0.53297 0.0
H3126 H 0.87352 0.14837 0.54738 0.0
H3127 H 0.84204 0.13206 0.53928 0.0
H3128 H 0.88294 0.20684 0.57932 0.0
H3129 H 0.80752 0.16951 0.55948 0.0
H3130 H 0.91191 0.21893 0.54596 0.0
H3131 H 0.90856 0.19107 0.55225 0.0
H3132 H 0.91666 0.21714 0.56544 0.0
H3133 H 0.82145 0.17586 0.52216 0.0
H3134 H 0.79725 0.16 0.53395 0.0
H3135 H 0.8148 0.1463 0.52741 0.0
C3136 C 0.88491 0.72575 0.51257 0.0
C3137 C 0.86577 0.71544 0.50097 0.0
C3138 C 0.88119 0.71638 0.52643 0.0
C3139 C 0.85783 0.69611 0.52872 0.0
C3140 C 0.83872 0.68517 0.51691 0.0
C3141 C 0.84292 0.69495 0.50323 0.0
C3142 C 0.90202 0.72862 0.53873 0.0
C3143 C 0.81363 0.6634 0.5188 0.0
C3144 C 0.85131 0.65816 0.56108 0.0
C3145 C 0.84108 0.66746 0.5712 0.0
C3146 C 0.85722 0.66755 0.54734 0.0
C3147 C 0.85293 0.68681 0.54358 0.0
C3148 C 0.84295 0.69652 0.55381 0.0
C3149 C 0.8371 0.68671 0.56743 0.0
C3150 C 0.86784 0.65668 0.53678 0.0
C3151 C 0.83804 0.71702 0.55026 0.0
H3152 H 0.90255 0.74168 0.51096 0.0
H3153 H 0.82816 0.6866 0.49426 0.0
H3154 H 0.89655 0.73695 0.54778 0.0
H3155 H 0.90573 0.71469 0.54339 0.0
H3156 H 0.91944 0.74332 0.53497 0.0
H3157 H 0.80107 0.6564 0.50837 0.0
H3158 H 0.81576 0.64811 0.52277 0.0
H3159 H 0.80469 0.66882 0.52726 0.0
H3160 H 0.85488 0.64361 0.56394 0.0
H3161 H 0.82893 0.69386 0.57504 0.0
H3162 H 0.88586 0.67144 0.53375 0.0
H3163 H 0.85517 0.64836 0.52645 0.0
H3164 H 0.8707 0.64224 0.54149 0.0
H3165 H 0.85523 0.73309 0.5473 0.0
H3166 H 0.83124 0.72329 0.55963 0.0
H3167 H 0.82399 0.71062 0.54057 0.0
loop_
_geom_bond_atom_site_label_1
_geom_bond_atom_site_label_2
_geom_bond_distance
_geom_bond_site_symmetry_2
_ccdc_geom_bond_type
C0 C1 1.391 . S
C0 C4 1.391 . S
C0 H42 0.948 . S
C1 C0 1.391 . S
C1 C2 1.391 . S
C2 C1 1.391 . S
C2 H58 0.947 . S
C2 C59 1.392 . S
C3 C4 1.391 . S
C3 C7 1.397 . S
C3 C59 1.419 . S
C4 C0 1.391 . S
C4 C3 1.391 . S
C4 C5 1.399 . S
C5 C4 1.399 . S
C5 C8 1.396 . S
C5 C17 1.453 . S
C5 C18 1.684 . S
H6 C30 0.948 . S
C7 C3 1.397 . S
C7 C8 1.394 . S
C7 C26 1.723 . S
C8 C5 1.396 . S
C8 C7 1.394 . S
C8 C38 1.723 . S
H9 C32 0.947 . S
H10 C33 0.948 . S
H11 C39 0.982 . S
H12 C40 0.979 . S
H13 C40 0.980 . S
H14 C40 0.983 . S
H15 C39 0.979 . S
H16 C39 0.977 . S
C17 C5 1.453 . S
C17 H46 0.982 . S
C17 H47 0.979 . S
C17 H48 0.977 . S
C18 C5 1.684 . S
C18 H43 0.979 . S
C18 H44 0.980 . S
C18 H45 0.983 . S
C19 C20 1.391 . S
C19 C24 1.391 . S
C19 H49 0.948 . S
C20 C19 1.391 . S
C20 C21 1.391 . S
C21 C20 1.391 . S
C21 C22 1.392 . S
C21 H50 0.947 . S
C22 C21 1.392 . S
C22 C23 1.419 . S
C22 H51 0.948 . S
C23 C22 1.419 . S
C23 C24 1.391 . S
C23 C27 1.397 . S
C24 C19 1.391 . S
C24 C23 1.391 . S
C24 C25 1.399 . S
C25 C24 1.399 . S
C25 C26 1.396 . S
C25 C28 1.453 . S
C25 C29 1.684 . S
C26 C7 1.723 . S
C26 C25 1.396 . S
C26 C27 1.394 . S
C27 C23 1.397 . S
C27 C26 1.394 . S
C27 C37 1.723 . S
C28 C25 1.453 . S
C28 H52 0.982 . S
C28 H53 0.979 . S
C28 H54 0.977 . S
C29 C25 1.684 . S
C29 H55 0.979 . S
C29 H56 0.980 . S
C29 H57 0.983 . S
C30 H6 0.948 . S
C30 C31 1.391 . S
C30 C35 1.391 . S
C31 C30 1.391 . S
C31 C32 1.391 . S
C32 H9 0.947 . S
C32 C31 1.391 . S
C32 C33 1.392 . S
C33 H10 0.948 . S
C33 C32 1.392 . S
C33 C34 1.419 . S
C34 C33 1.419 . S
C34 C35 1.391 . S
C34 C38 1.397 . S
C35 C30 1.391 . S
C35 C34 1.391 . S
C35 C36 1.399 . S
C36 C35 1.399 . S
C36 C37 1.396 . S
C36 C39 1.453 . S
C36 C40 1.684 . S
C37 C27 1.723 . S
C37 C36 1.396 . S
C37 C38 1.394 . S
C38 C8 1.723 . S
C38 C34 1.397 . S
C38 C37 1.394 . S
C39 H11 0.982 . S
C39 H15 0.979 . S
C39 H16 0.977 . S
C39 C36 1.453 . S
C40 H12 0.979 . S
C40 H13 0.980 . S
C40 H14 0.983 . S
C40 C36 1.684 . S
H41 C59 0.948 . S
H42 C0 0.948 . S
H43 C18 0.979 . S
H44 C18 0.980 . S
H45 C18 0.983 . S
H46 C17 0.982 . S
H47 C17 0.979 . S
H48 C17 0.977 . S
H49 C19 0.948 . S
H50 C21 0.947 . S
H51 C22 0.948 . S
H52 C28 0.982 . S
H53 C28 0.979 . S
H54 C28 0.977 . S
H55 C29 0.979 . S
H56 C29 0.980 . S
H57 C29 0.983 . S
H58 C2 0.947 . S
C59 C2 1.392 . S
C59 C3 1.419 . S
C59 H41 0.948 . S
C60 C61 1.391 . S
C60 C64 1.391 . S
C60 H102 0.948 . S
C61 C60 1.391 . S
C61 C62 1.391 . S
C62 C61 1.391 . S
C62 H118 0.947 . S
C62 C119 1.392 . S
C63 C64 1.391 . S
C63 C67 1.397 . S
C63 C119 1.419 . S
C64 C60 1.391 . S
C64 C63 1.391 . S
C64 C65 1.399 . S
C65 C64 1.399 . S
C65 C68 1.396 . S
C65 C77 1.453 . S
C65 C78 1.684 . S
H66 C90 0.948 . S
C67 C63 1.397 . S
C67 C68 1.394 . S
C67 C86 1.723 . S
C68 C65 1.396 . S
C68 C67 1.394 . S
C68 C98 1.723 . S
H69 C92 0.947 . S
H70 C93 0.948 . S
H71 C99 0.982 . S
H72 C100 0.979 . S
H73 C100 0.980 . S
H74 C100 0.983 . S
H75 C99 0.979 . S
H76 C99 0.977 . S
C77 C65 1.453 . S
C77 H106 0.982 . S
C77 H107 0.979 . S
C77 H108 0.977 . S
C78 C65 1.684 . S
C78 H103 0.979 . S
C78 H104 0.980 . S
C78 H105 0.983 . S
C79 C80 1.391 . S
C79 C84 1.391 . S
C79 H109 0.948 . S
C80 C79 1.391 . S
C80 C81 1.391 . S
C81 C80 1.391 . S
C81 C82 1.392 . S
C81 H110 0.947 . S
C82 C81 1.392 . S
C82 C83 1.419 . S
C82 H111 0.948 . S
C83 C82 1.419 . S
C83 C84 1.391 . S
C83 C87 1.397 . S
C84 C79 1.391 . S
C84 C83 1.391 . S
C84 C85 1.399 . S
C85 C84 1.399 . S
C85 C86 1.396 . S
C85 C88 1.453 . S
C85 C89 1.684 . S
C86 C67 1.723 . S
C86 C85 1.396 . S
C86 C87 1.394 . S
C87 C83 1.397 . S
C87 C86 1.394 . S
C87 C97 1.723 . S
C88 C85 1.453 . S
C88 H112 0.982 . S
C88 H113 0.979 . S
C88 H114 0.977 . S
C89 C85 1.684 . S
C89 H115 0.979 . S
C89 H116 0.980 . S
C89 H117 0.983 . S
C90 H66 0.948 . S
C90 C91 1.391 . S
C90 C95 1.391 . S
C91 C90 1.391 . S
C91 C92 1.391 . S
C92 H69 0.947 . S
C92 C91 1.391 . S
C92 C93 1.392 . S
C93 H70 0.948 . S
C93 C92 1.392 . S
C93 C94 1.419 . S
C94 C93 1.419 . S
C94 C95 1.391 . S
C94 C98 1.397 . S
C95 C90 1.391 . S
C95 C94 1.391 . S
C95 C96 1.399 . S
C96 C95 1.399 . S
C96 C97 1.396 . S
C96 C99 1.453 . S
C96 C100 1.684 . S
C97 C87 1.723 . S
C97 C96 1.396 . S
C97 C98 1.394 . S
C98 C68 1.723 . S
C98 C94 1.397 . S
C98 C97 1.394 . S
C99 H71 0.982 . S
C99 H75 0.979 . S
C99 H76 0.977 . S
C99 C96 1.453 . S
C100 H72 0.979 . S
C100 H73 0.980 . S
C100 H74 0.983 . S
C100 C96 1.684 . S
H101 C119 0.948 . S
H102 C60 0.948 . S
H103 C78 0.979 . S
H104 C78 0.980 . S
H105 C78 0.983 . S
H106 C77 0.982 . S
H107 C77 0.979 . S
H108 C77 0.977 . S
H109 C79 0.948 . S
H110 C81 0.947 . S
H111 C82 0.948 . S
H112 C88 0.982 . S
H113 C88 0.979 . S
H114 C88 0.977 . S
H115 C89 0.979 . S
H116 C89 0.980 . S
H117 C89 0.983 . S
H118 C62 0.947 . S
C119 C62 1.392 . S
C119 C63 1.419 . S
C119 H101 0.948 . S
C120 C121 1.391 . S
C120 C124 1.391 . S
C120 H162 0.948 . S
C121 C120 1.391 . S
C121 C122 1.391 . S
C122 C121 1.391 . S
C122 H178 0.947 . S
C122 C179 1.392 . S
C123 C124 1.391 . S
C123 C127 1.397 . S
C123 C179 1.419 . S
C124 C120 1.391 . S
C124 C123 1.391 . S
C124 C125 1.399 . S
C125 C124 1.399 . S
C125 C128 1.396 . S
C125 C137 1.453 . S
C125 C138 1.684 . S
H126 C150 0.948 . S
C127 C123 1.397 . S
C127 C128 1.394 . S
C127 C146 1.723 . S
C128 C125 1.396 . S
C128 C127 1.394 . S
C128 C158 1.723 . S
H129 C152 0.947 . S
H130 C153 0.948 . S
H131 C159 0.982 . S
H132 C160 0.979 . S
H133 C160 0.980 . S
H134 C160 0.983 . S
H135 C159 0.979 . S
H136 C159 0.977 . S
C137 C125 1.453 . S
C137 H166 0.982 . S
C137 H167 0.979 . S
C137 H168 0.977 . S
C138 C125 1.684 . S
C138 H163 0.979 . S
C138 H164 0.980 . S
C138 H165 0.983 . S
C139 C140 1.391 . S
C139 C144 1.391 . S
C139 H169 0.948 . S
C140 C139 1.391 . S
C140 C141 1.391 . S
C141 C140 1.391 . S
C141 C142 1.392 . S
C141 H170 0.947 . S
C142 C141 1.392 . S
C142 C143 1.419 . S
C142 H171 0.948 . S
C143 C142 1.419 . S
C143 C144 1.391 . S
C143 C147 1.397 . S
C144 C139 1.391 . S
C144 C143 1.391 . S
C144 C145 1.399 . S
C145 C144 1.399 . S
C145 C146 1.396 . S
C145 C148 1.453 . S
C145 C149 1.684 . S
C146 C127 1.723 . S
C146 C145 1.396 . S
C146 C147 1.394 . S
C147 C143 1.397 . S
C147 C146 1.394 . S
C147 C157 1.723 . S
C148 C145 1.453 . S
C148 H172 0.982 . S
C148 H173 0.979 . S
C148 H174 0.977 . S
C149 C145 1.684 . S
C149 H175 0.979 . S
C149 H176 0.980 . S
C149 H177 0.983 . S
C150 H126 0.948 . S
C150 C151 1.391 . S
C150 C155 1.391 . S
C151 C150 1.391 . S
C151 C152 1.391 . S
C152 H129 0.947 . S
C152 C151 1.391 . S
C152 C153 1.392 . S
C153 H130 0.948 . S
C153 C152 1.392 . S
C153 C154 1.419 . S
C154 C153 1.419 . S
C154 C155 1.391 . S
C154 C158 1.397 . S
C155 C150 1.391 . S
C155 C154 1.391 . S
C155 C156 1.399 . S
C156 C155 1.399 . S
C156 C157 1.396 . S
C156 C159 1.453 . S
C156 C160 1.684 . S
C157 C147 1.723 . S
C157 C156 1.396 . S
C157 C158 1.394 . S
C158 C128 1.723 . S
C158 C154 1.397 . S
C158 C157 1.394 . S
C159 H131 0.982 . S
C159 H135 0.979 . S
C159 H136 0.977 . S
C159 C156 1.453 . S
C160 H132 0.979 . S
C160 H133 0.980 . S
C160 H134 0.983 . S
C160 C156 1.684 . S
H161 C179 0.948 . S
H162 C120 0.948 . S
H163 C138 0.979 . S
H164 C138 0.980 . S
H165 C138 0.983 . S
H166 C137 0.982 . S
H167 C137 0.979 . S
H168 C137 0.977 . S
H169 C139 0.948 . S
H170 C141 0.947 . S
H171 C142 0.948 . S
H172 C148 0.982 . S
H173 C148 0.979 . S
H174 C148 0.977 . S
H175 C149 0.979 . S
H176 C149 0.980 . S
H177 C149 0.983 . S
H178 C122 0.947 . S
C179 C122 1.392 . S
C179 C123 1.419 . S
C179 H161 0.948 . S
C180 C181 1.391 . S
C180 C184 1.391 . S
C180 H222 0.948 . S
C181 C180 1.391 . S
C181 C182 1.391 . S
C182 C181 1.391 . S
C182 H238 0.947 . S
C182 C239 1.392 . S
C183 C184 1.391 . S
C183 C187 1.397 . S
C183 C239 1.419 . S
C184 C180 1.391 . S
C184 C183 1.391 . S
C184 C185 1.399 . S
C185 C184 1.399 . S
C185 C188 1.396 . S
C185 C197 1.453 . S
C185 C198 1.684 . S
H186 C210 0.948 . S
C187 C183 1.397 . S
C187 C188 1.394 . S
C187 C206 1.723 . S
C188 C185 1.396 . S
C188 C187 1.394 . S
C188 C218 1.723 . S
H189 C212 0.947 . S
H190 C213 0.948 . S
H191 C219 0.982 . S
H192 C220 0.979 . S
H193 C220 0.980 . S
H194 C220 0.983 . S
H195 C219 0.979 . S
H196 C219 0.977 . S
C197 C185 1.453 . S
C197 H226 0.982 . S
C197 H227 0.979 . S
C197 H228 0.977 . S
C198 C185 1.684 . S
C198 H223 0.979 . S
C198 H224 0.980 . S
C198 H225 0.983 . S
C199 C200 1.391 . S
C199 C204 1.391 . S
C199 H229 0.948 . S
C200 C199 1.391 . S
C200 C201 1.391 . S
C201 C200 1.391 . S
C201 C202 1.392 . S
C201 H230 0.947 . S
C202 C201 1.392 . S
C202 C203 1.419 . S
C202 H231 0.948 . S
C203 C202 1.419 . S
C203 C204 1.391 . S
C203 C207 1.397 . S
C204 C199 1.391 . S
C204 C203 1.391 . S
C204 C205 1.399 . S
C205 C204 1.399 . S
C205 C206 1.396 . S
C205 C208 1.453 . S
C205 C209 1.684 . S
C206 C187 1.723 . S
C206 C205 1.396 . S
C206 C207 1.394 . S
C207 C203 1.397 . S
C207 C206 1.394 . S
C207 C217 1.723 . S
C208 C205 1.453 . S
C208 H232 0.982 . S
C208 H233 0.979 . S
C208 H234 0.977 . S
C209 C205 1.684 . S
C209 H235 0.979 . S
C209 H236 0.980 . S
C209 H237 0.983 . S
C210 H186 0.948 . S
C210 C211 1.391 . S
C210 C215 1.391 . S
C211 C210 1.391 . S
C211 C212 1.391 . S
C212 H189 0.947 . S
C212 C211 1.391 . S
C212 C213 1.392 . S
C213 H190 0.948 . S
C213 C212 1.392 . S
C213 C214 1.419 . S
C214 C213 1.419 . S
C214 C215 1.391 . S
C214 C218 1.397 . S
C215 C210 1.391 . S
C215 C214 1.391 . S
C215 C216 1.399 . S
C216 C215 1.399 . S
C216 C217 1.396 . S
C216 C219 1.453 . S
C216 C220 1.684 . S
C217 C207 1.723 . S
C217 C216 1.396 . S
C217 C218 1.394 . S
C218 C188 1.723 . S
C218 C214 1.397 . S
C218 C217 1.394 . S
C219 H191 0.982 . S
C219 H195 0.979 . S
C219 H196 0.977 . S
C219 C216 1.453 . S
C220 H192 0.979 . S
C220 H193 0.980 . S
C220 H194 0.983 . S
C220 C216 1.684 . S
H221 C239 0.948 . S
H222 C180 0.948 . S
H223 C198 0.979 . S
H224 C198 0.980 . S
H225 C198 0.983 . S
H226 C197 0.982 . S
H227 C197 0.979 . S
H228 C197 0.977 . S
H229 C199 0.948 . S
H230 C201 0.947 . S
H231 C202 0.948 . S
H232 C208 0.982 . S
H233 C208 0.979 . S
H234 C208 0.977 . S
H235 C209 0.979 . S
H236 C209 0.980 . S
H237 C209 0.983 . S
H238 C182 0.947 . S
C239 C182 1.392 . S
C239 C183 1.419 . S
C239 H221 0.948 . S
C240 C241 1.391 . S
C240 C244 1.391 . S
C240 H282 0.948 . S
C241 C240 1.391 . S
C241 C242 1.391 . S
C242 C241 1.391 . S
C242 H298 0.947 . S
C242 C299 1.392 . S
C243 C244 1.391 . S
C243 C247 1.397 . S
C243 C299 1.419 . S
C244 C240 1.391 . S
C244 C243 1.391 . S
C244 C245 1.399 . S
C245 C244 1.399 . S
C245 C248 1.396 . S
C245 C257 1.453 . S
C245 C258 1.684 . S
H246 C270 0.948 . S
C247 C243 1.397 . S
C247 C248 1.394 . S
C247 C266 1.723 . S
C248 C245 1.396 . S
C248 C247 1.394 . S
C248 C278 1.723 . S
H249 C272 0.947 . S
H250 C273 0.948 . S
H251 C279 0.982 . S
H252 C280 0.979 . S
H253 C280 0.980 . S
H254 C280 0.983 . S
H255 C279 0.979 . S
H256 C279 0.977 . S
C257 C245 1.453 . S
C257 H286 0.982 . S
C257 H287 0.979 . S
C257 H288 0.977 . S
C258 C245 1.684 . S
C258 H283 0.979 . S
C258 H284 0.980 . S
C258 H285 0.983 . S
C259 C260 1.391 . S
C259 C264 1.391 . S
C259 H289 0.948 . S
C260 C259 1.391 . S
C260 C261 1.391 . S
C261 C260 1.391 . S
C261 C262 1.392 . S
C261 H290 0.947 . S
C262 C261 1.392 . S
C262 C263 1.419 . S
C262 H291 0.948 . S
C263 C262 1.419 . S
C263 C264 1.391 . S
C263 C267 1.397 . S
C264 C259 1.391 . S
C264 C263 1.391 . S
C264 C265 1.399 . S
C265 C264 1.399 . S
C265 C266 1.396 . S
C265 C268 1.453 . S
C265 C269 1.684 . S
C266 C247 1.723 . S
C266 C265 1.396 . S
C266 C267 1.394 . S
C267 C263 1.397 . S
C267 C266 1.394 . S
C267 C277 1.723 . S
C268 C265 1.453 . S
C268 H292 0.982 . S
C268 H293 0.979 . S
C268 H294 0.977 . S
C269 C265 1.684 . S
C269 H295 0.979 . S
C269 H296 0.980 . S
C269 H297 0.983 . S
C270 H246 0.948 . S
C270 C271 1.391 . S
C270 C275 1.391 . S
C271 C270 1.391 . S
C271 C272 1.391 . S
C272 H249 0.947 . S
C272 C271 1.391 . S
C272 C273 1.392 . S
C273 H250 0.948 . S
C273 C272 1.392 . S
C273 C274 1.419 . S
C274 C273 1.419 . S
C274 C275 1.391 . S
C274 C278 1.397 . S
C275 C270 1.391 . S
C275 C274 1.391 . S
C275 C276 1.399 . S
C276 C275 1.399 . S
C276 C277 1.396 . S
C276 C279 1.453 . S
C276 C280 1.684 . S
C277 C267 1.723 . S
C277 C276 1.396 . S
C277 C278 1.394 . S
C278 C248 1.723 . S
C278 C274 1.397 . S
C278 C277 1.394 . S
C279 H251 0.982 . S
C279 H255 0.979 . S
C279 H256 0.977 . S
C279 C276 1.453 . S
C280 H252 0.979 . S
C280 H253 0.980 . S
C280 H254 0.983 . S
C280 C276 1.684 . S
H281 C299 0.948 . S
H282 C240 0.948 . S
H283 C258 0.979 . S
H284 C258 0.980 . S
H285 C258 0.983 . S
H286 C257 0.982 . S
H287 C257 0.979 . S
H288 C257 0.977 . S
H289 C259 0.948 . S
H290 C261 0.947 . S
H291 C262 0.948 . S
H292 C268 0.982 . S
H293 C268 0.979 . S
H294 C268 0.977 . S
H295 C269 0.979 . S
H296 C269 0.980 . S
H297 C269 0.983 . S
H298 C242 0.947 . S
C299 C242 1.392 . S
C299 C243 1.419 . S
C299 H281 0.948 . S
C300 C301 1.391 . S
C300 C304 1.391 . S
C300 H342 0.948 . S
C301 C300 1.391 . S
C301 C302 1.391 . S
C302 C301 1.391 . S
C302 H358 0.947 . S
C302 C359 1.392 . S
C303 C304 1.391 . S
C303 C307 1.397 . S
C303 C359 1.419 . S
C304 C300 1.391 . S
C304 C303 1.391 . S
C304 C305 1.399 . S
C305 C304 1.399 . S
C305 C308 1.396 . S
C305 C317 1.453 . S
C305 C318 1.684 . S
H306 C330 0.948 . S
C307 C303 1.397 . S
C307 C308 1.394 . S
C307 C326 1.723 . S
C308 C305 1.396 . S
C308 C307 1.394 . S
C308 C338 1.723 . S
H309 C332 0.947 . S
H310 C333 0.948 . S
H311 C339 0.982 . S
H312 C340 0.979 . S
H313 C340 0.980 . S
H314 C340 0.983 . S
H315 C339 0.979 . S
H316 C339 0.977 . S
C317 C305 1.453 . S
C317 H346 0.982 . S
C317 H347 0.979 . S
C317 H348 0.977 . S
C318 C305 1.684 . S
C318 H343 0.979 . S
C318 H344 0.980 . S
C318 H345 0.983 . S
C319 C320 1.391 . S
C319 C324 1.391 . S
C319 H349 0.948 . S
C320 C319 1.391 . S
C320 C321 1.391 . S
C321 C320 1.391 . S
C321 C322 1.392 . S
C321 H350 0.947 . S
C322 C321 1.392 . S
C322 C323 1.419 . S
C322 H351 0.948 . S
C323 C322 1.419 . S
C323 C324 1.391 . S
C323 C327 1.397 . S
C324 C319 1.391 . S
C324 C323 1.391 . S
C324 C325 1.399 . S
C325 C324 1.399 . S
C325 C326 1.396 . S
C325 C328 1.453 . S
C325 C329 1.684 . S
C326 C307 1.723 . S
C326 C325 1.396 . S
C326 C327 1.394 . S
C327 C323 1.397 . S
C327 C326 1.394 . S
C327 C337 1.723 . S
C328 C325 1.453 . S
C328 H352 0.982 . S
C328 H353 0.979 . S
C328 H354 0.977 . S
C329 C325 1.684 . S
C329 H355 0.979 . S
C329 H356 0.980 . S
C329 H357 0.983 . S
C330 H306 0.948 . S
C330 C331 1.391 . S
C330 C335 1.391 . S
C331 C330 1.391 . S
C331 C332 1.391 . S
C332 H309 0.947 . S
C332 C331 1.391 . S
C332 C333 1.392 . S
C333 H310 0.948 . S
C333 C332 1.392 . S
C333 C334 1.419 . S
C334 C333 1.419 . S
C334 C335 1.391 . S
C334 C338 1.397 . S
C335 C330 1.391 . S
C335 C334 1.391 . S
C335 C336 1.399 . S
C336 C335 1.399 . S
C336 C337 1.396 . S
C336 C339 1.453 . S
C336 C340 1.684 . S
C337 C327 1.723 . S
C337 C336 1.396 . S
C337 C338 1.394 . S
C338 C308 1.723 . S
C338 C334 1.397 . S
C338 C337 1.394 . S
C339 H311 0.982 . S
C339 H315 0.979 . S
C339 H316 0.977 . S
C339 C336 1.453 . S
C340 H312 0.979 . S
C340 H313 0.980 . S
C340 H314 0.983 . S
C340 C336 1.684 . S
H341 C359 0.948 . S
H342 C300 0.948 . S
H343 C318 0.979 . S
H344 C318 0.980 . S
H345 C318 0.983 . S
H346 C317 0.982 . S
H347 C317 0.979 . S
H348 C317 0.977 . S
H349 C319 0.948 . S
H350 C321 0.947 . S
H351 C322 0.948 . S
H352 C328 0.982 . S
H353 C328 0.979 . S
H354 C328 0.977 . S
H355 C329 0.979 . S
H356 C329 0.980 . S
H357 C329 0.983 . S
H358 C302 0.947 . S
C359 C302 1.392 . S
C359 C303 1.419 . S
C359 H341 0.948 . S
C360 C361 1.391 . S
C360 C364 1.391 . S
C360 H402 0.948 . S
C361 C360 1.391 . S
C361 C362 1.391 . S
C362 C361 1.391 . S
C362 H418 0.947 . S
C362 C419 1.392 . S
C363 C364 1.391 . S
C363 C367 1.397 . S
C363 C419 1.419 . S
C364 C360 1.391 . S
C364 C363 1.391 . S
C364 C365 1.399 . S
C365 C364 1.399 . S
C365 C368 1.396 . S
C365 C377 1.453 . S
C365 C378 1.684 . S
H366 C390 0.948 . S
C367 C363 1.397 . S
C367 C368 1.394 . S
C367 C386 1.723 . S
C368 C365 1.396 . S
C368 C367 1.394 . S
C368 C398 1.723 . S
H369 C392 0.947 . S
H370 C393 0.948 . S
H371 C399 0.982 . S
H372 C400 0.979 . S
H373 C400 0.980 . S
H374 C400 0.983 . S
H375 C399 0.979 . S
H376 C399 0.977 . S
C377 C365 1.453 . S
C377 H406 0.982 . S
C377 H407 0.979 . S
C377 H408 0.977 . S
C378 C365 1.684 . S
C378 H403 0.979 . S
C378 H404 0.980 . S
C378 H405 0.983 . S
C379 C380 1.391 . S
C379 C384 1.391 . S
C379 H409 0.948 . S
C380 C379 1.391 . S
C380 C381 1.391 . S
C381 C380 1.391 . S
C381 C382 1.392 . S
C381 H410 0.947 . S
C382 C381 1.392 . S
C382 C383 1.419 . S
C382 H411 0.948 . S
C383 C382 1.419 . S
C383 C384 1.391 . S
C383 C387 1.397 . S
C384 C379 1.391 . S
C384 C383 1.391 . S
C384 C385 1.399 . S
C385 C384 1.399 . S
C385 C386 1.396 . S
C385 C388 1.453 . S
C385 C389 1.684 . S
C386 C367 1.723 . S
C386 C385 1.396 . S
C386 C387 1.394 . S
C387 C383 1.397 . S
C387 C386 1.394 . S
C387 C397 1.723 . S
C388 C385 1.453 . S
C388 H412 0.982 1_655 S
C388 H413 0.979 . S
C388 H414 0.977 . S
C389 C385 1.684 . S
C389 H415 0.979 . S
C389 H416 0.980 . S
C389 H417 0.983 . S
C390 H366 0.948 . S
C390 C391 1.391 . S
C390 C395 1.391 . S
C391 C390 1.391 . S
C391 C392 1.391 . S
C392 H369 0.947 . S
C392 C391 1.391 . S
C392 C393 1.392 . S
C393 H370 0.948 . S
C393 C392 1.392 . S
C393 C394 1.419 . S
C394 C393 1.419 . S
C394 C395 1.391 . S
C394 C398 1.397 . S
C395 C390 1.391 . S
C395 C394 1.391 . S
C395 C396 1.399 . S
C396 C395 1.399 . S
C396 C397 1.396 . S
C396 C399 1.453 . S
C396 C400 1.684 . S
C397 C387 1.723 . S
C397 C396 1.396 . S
C397 C398 1.394 . S
C398 C368 1.723 . S
C398 C394 1.397 . S
C398 C397 1.394 . S
C399 H371 0.982 . S
C399 H375 0.979 . S
C399 H376 0.977 . S
C399 C396 1.453 . S
C400 H372 0.979 . S
C400 H373 0.980 . S
C400 H374 0.983 . S
C400 C396 1.684 . S
H401 C419 0.948 . S
H402 C360 0.948 . S
H403 C378 0.979 . S
H404 C378 0.980 . S
H405 C378 0.983 . S
H406 C377 0.982 . S
H407 C377 0.979 . S
H408 C377 0.977 . S
H409 C379 0.948 . S
H410 C381 0.947 . S
H411 C382 0.948 . S
H412 C388 0.982 1_455 S
H413 C388 0.979 . S
H414 C388 0.977 . S
H415 C389 0.979 . S
H416 C389 0.980 . S
H417 C389 0.983 . S
H418 C362 0.947 . S
C419 C362 1.392 . S
C419 C363 1.419 . S
C419 H401 0.948 . S
C420 C421 1.391 . S
C420 C424 1.391 . S
C420 H462 0.948 . S
C421 C420 1.391 . S
C421 C422 1.391 . S
C422 C421 1.391 . S
C422 H478 0.947 . S
C422 C479 1.392 . S
C423 C424 1.391 . S
C423 C427 1.397 . S
C423 C479 1.419 . S
C424 C420 1.391 . S
C424 C423 1.391 . S
C424 C425 1.399 . S
C425 C424 1.399 . S
C425 C428 1.396 . S
C425 C437 1.453 . S
C425 C438 1.684 . S
H426 C450 0.948 . S
C427 C423 1.397 . S
C427 C428 1.394 . S
C427 C446 1.723 . S
C428 C425 1.396 . S
C428 C427 1.394 . S
C428 C458 1.723 . S
H429 C452 0.947 . S
H430 C453 0.948 . S
H431 C459 0.982 . S
H432 C460 0.979 . S
H433 C460 0.980 . S
H434 C460 0.983 . S
H435 C459 0.979 . S
H436 C459 0.977 . S
C437 C425 1.453 . S
C437 H466 0.982 . S
C437 H467 0.979 . S
C437 H468 0.977 . S
C438 C425 1.684 . S
C438 H463 0.979 . S
C438 H464 0.980 . S
C438 H465 0.983 . S
C439 C440 1.391 . S
C439 C444 1.391 . S
C439 H469 0.948 . S
C440 C439 1.391 . S
C440 C441 1.391 . S
C441 C440 1.391 . S
C441 C442 1.392 . S
C441 H470 0.947 . S
C442 C441 1.392 . S
C442 C443 1.419 . S
C442 H471 0.948 . S
C443 C442 1.419 . S
C443 C444 1.391 . S
C443 C447 1.397 . S
C444 C439 1.391 . S
C444 C443 1.391 . S
C444 C445 1.399 . S
C445 C444 1.399 . S
C445 C446 1.396 . S
C445 C448 1.453 . S
C445 C449 1.684 . S
C446 C427 1.723 . S
C446 C445 1.396 . S
C446 C447 1.394 . S
C447 C443 1.397 . S
C447 C446 1.394 . S
C447 C457 1.723 . S
C448 C445 1.453 . S
C448 H472 0.982 . S
C448 H473 0.979 . S
C448 H474 0.977 . S
C449 C445 1.684 . S
C449 H475 0.979 . S
C449 H476 0.980 . S
C449 H477 0.983 . S
C450 H426 0.948 . S
C450 C451 1.391 . S
C450 C455 1.391 . S
C451 C450 1.391 . S
C451 C452 1.391 . S
C452 H429 0.947 . S
C452 C451 1.391 . S
C452 C453 1.392 . S
C453 H430 0.948 . S
C453 C452 1.392 . S
C453 C454 1.419 . S
C454 C453 1.419 . S
C454 C455 1.391 . S
C454 C458 1.397 . S
C455 C450 1.391 . S
C455 C454 1.391 . S
C455 C456 1.399 . S
C456 C455 1.399 . S
C456 C457 1.396 . S
C456 C459 1.453 . S
C456 C460 1.684 . S
C457 C447 1.723 . S
C457 C456 1.396 . S
C457 C458 1.394 . S
C458 C428 1.723 . S
C458 C454 1.397 . S
C458 C457 1.394 . S
C459 H431 0.982 . S
C459 H435 0.979 . S
C459 H436 0.977 . S
C459 C456 1.453 . S
C460 H432 0.979 . S
C460 H433 0.980 . S
C460 H434 0.983 . S
C460 C456 1.684 . S
H461 C479 0.948 . S
H462 C420 0.948 . S
H463 C438 0.979 . S
H464 C438 0.980 . S
H465 C438 0.983 . S
H466 C437 0.982 . S
H467 C437 0.979 . S
H468 C437 0.977 . S
H469 C439 0.948 . S
H470 C441 0.947 . S
H471 C442 0.948 . S
H472 C448 0.982 . S
H473 C448 0.979 . S
H474 C448 0.977 . S
H475 C449 0.979 . S
H476 C449 0.980 . S
H477 C449 0.983 . S
H478 C422 0.947 . S
C479 C422 1.392 . S
C479 C423 1.419 . S
C479 H461 0.948 . S
C480 C481 1.391 . S
C480 C484 1.391 . S
C480 H522 0.948 . S
C481 C480 1.391 . S
C481 C482 1.391 . S
C482 C481 1.391 . S
C482 H538 0.947 . S
C482 C539 1.392 . S
C483 C484 1.391 . S
C483 C487 1.397 . S
C483 C539 1.419 . S
C484 C480 1.391 . S
C484 C483 1.391 . S
C484 C485 1.399 . S
C485 C484 1.399 . S
C485 C488 1.396 . S
C485 C497 1.453 . S
C485 C498 1.684 . S
H486 C510 0.948 . S
C487 C483 1.397 . S
C487 C488 1.394 . S
C487 C506 1.723 . S
C488 C485 1.396 . S
C488 C487 1.394 . S
C488 C518 1.723 . S
H489 C512 0.947 . S
H490 C513 0.948 . S
H491 C519 0.982 . S
H492 C520 0.979 . S
H493 C520 0.980 . S
H494 C520 0.983 . S
H495 C519 0.979 . S
H496 C519 0.977 . S
C497 C485 1.453 . S
C497 H526 0.982 . S
C497 H527 0.979 . S
C497 H528 0.977 . S
C498 C485 1.684 . S
C498 H523 0.979 . S
C498 H524 0.980 . S
C498 H525 0.983 . S
C499 C500 1.391 . S
C499 C504 1.391 . S
C499 H529 0.948 . S
C500 C499 1.391 . S
C500 C501 1.391 . S
C501 C500 1.391 . S
C501 C502 1.392 . S
C501 H530 0.947 . S
C502 C501 1.392 . S
C502 C503 1.419 . S
C502 H531 0.948 . S
C503 C502 1.419 . S
C503 C504 1.391 . S
C503 C507 1.397 . S
C504 C499 1.391 . S
C504 C503 1.391 . S
C504 C505 1.399 . S
C505 C504 1.399 . S
C505 C506 1.396 . S
C505 C508 1.453 . S
C505 C509 1.684 . S
C506 C487 1.723 . S
C506 C505 1.396 . S
C506 C507 1.394 . S
C507 C503 1.397 . S
C507 C506 1.394 . S
C507 C517 1.723 . S
C508 C505 1.453 . S
C508 H532 0.982 . S
C508 H533 0.979 . S
C508 H534 0.977 . S
C509 C505 1.684 . S
C509 H535 0.979 . S
C509 H536 0.980 . S
C509 H537 0.983 . S
C510 H486 0.948 . S
C510 C511 1.391 . S
C510 C515 1.391 . S
C511 C510 1.391 . S
C511 C512 1.391 . S
C512 H489 0.947 . S
C512 C511 1.391 . S
C512 C513 1.392 . S
C513 H490 0.948 . S
C513 C512 1.392 . S
C513 C514 1.419 . S
C514 C513 1.419 . S
C514 C515 1.391 . S
C514 C518 1.397 . S
C515 C510 1.391 . S
C515 C514 1.391 . S
C515 C516 1.399 . S
C516 C515 1.399 . S
C516 C517 1.396 . S
C516 C519 1.453 . S
C516 C520 1.684 . S
C517 C507 1.723 . S
C517 C516 1.396 . S
C517 C518 1.394 . S
C518 C488 1.723 . S
C518 C514 1.397 . S
C518 C517 1.394 . S
C519 H491 0.982 . S
C519 H495 0.979 . S
C519 H496 0.977 . S
C519 C516 1.453 . S
C520 H492 0.979 . S
C520 H493 0.980 . S
C520 H494 0.983 . S
C520 C516 1.684 . S
H521 C539 0.948 . S
H522 C480 0.948 . S
H523 C498 0.979 . S
H524 C498 0.980 . S
H525 C498 0.983 . S
H526 C497 0.982 . S
H527 C497 0.979 . S
H528 C497 0.977 . S
H529 C499 0.948 . S
H530 C501 0.947 . S
H531 C502 0.948 . S
H532 C508 0.982 . S
H533 C508 0.979 . S
H534 C508 0.977 . S
H535 C509 0.979 . S
H536 C509 0.980 . S
H537 C509 0.983 . S
H538 C482 0.947 . S
C539 C482 1.392 . S
C539 C483 1.419 . S
C539 H521 0.948 . S
C540 C541 1.391 . S
C540 C544 1.391 . S
C540 H582 0.948 . S
C541 C540 1.391 . S
C541 C542 1.391 . S
C542 C541 1.391 . S
C542 H598 0.947 . S
C542 C599 1.392 . S
C543 C544 1.391 . S
C543 C547 1.397 . S
C543 C599 1.419 . S
C544 C540 1.391 . S
C544 C543 1.391 . S
C544 C545 1.399 . S
C545 C544 1.399 . S
C545 C548 1.396 . S
C545 C557 1.453 . S
C545 C558 1.684 . S
H546 C570 0.948 . S
C547 C543 1.397 . S
C547 C548 1.394 . S
C547 C566 1.723 . S
C548 C545 1.396 . S
C548 C547 1.394 . S
C548 C578 1.723 . S
H549 C572 0.947 . S
H550 C573 0.948 . S
H551 C579 0.982 . S
H552 C580 0.979 . S
H553 C580 0.980 . S
H554 C580 0.983 . S
H555 C579 0.979 . S
H556 C579 0.977 . S
C557 C545 1.453 . S
C557 H586 0.982 . S
C557 H587 0.979 . S
C557 H588 0.977 . S
C558 C545 1.684 . S
C558 H583 0.979 . S
C558 H584 0.980 . S
C558 H585 0.983 . S
C559 C560 1.391 . S
C559 C564 1.391 . S
C559 H589 0.948 . S
C560 C559 1.391 . S
C560 C561 1.391 . S
C561 C560 1.391 . S
C561 C562 1.392 . S
C561 H590 0.947 . S
C562 C561 1.392 . S
C562 C563 1.419 . S
C562 H591 0.948 . S
C563 C562 1.419 . S
C563 C564 1.391 . S
C563 C567 1.397 . S
C564 C559 1.391 . S
C564 C563 1.391 . S
C564 C565 1.399 . S
C565 C564 1.399 . S
C565 C566 1.396 . S
C565 C568 1.453 . S
C565 C569 1.684 . S
C566 C547 1.723 . S
C566 C565 1.396 . S
C566 C567 1.394 . S
C567 C563 1.397 . S
C567 C566 1.394 . S
C567 C577 1.723 . S
C568 C565 1.453 . S
C568 H592 0.982 . S
C568 H593 0.979 . S
C568 H594 0.977 . S
C569 C565 1.684 . S
C569 H595 0.979 . S
C569 H596 0.980 . S
C569 H597 0.983 . S
C570 H546 0.948 . S
C570 C571 1.391 . S
C570 C575 1.391 . S
C571 C570 1.391 . S
C571 C572 1.391 . S
C572 H549 0.947 . S
C572 C571 1.391 . S
C572 C573 1.392 . S
C573 H550 0.948 . S
C573 C572 1.392 . S
C573 C574 1.419 . S
C574 C573 1.419 . S
C574 C575 1.391 . S
C574 C578 1.397 . S
C575 C570 1.391 . S
C575 C574 1.391 . S
C575 C576 1.399 . S
C576 C575 1.399 . S
C576 C577 1.396 . S
C576 C579 1.453 . S
C576 C580 1.684 . S
C577 C567 1.723 . S
C577 C576 1.396 . S
C577 C578 1.394 . S
C578 C548 1.723 . S
C578 C574 1.397 . S
C578 C577 1.394 . S
C579 H551 0.982 . S
C579 H555 0.979 . S
C579 H556 0.977 . S
C579 C576 1.453 . S
C580 H552 0.979 . S
C580 H553 0.980 . S
C580 H554 0.983 . S
C580 C576 1.684 . S
H581 C599 0.948 . S
H582 C540 0.948 . S
H583 C558 0.979 . S
H584 C558 0.980 . S
H585 C558 0.983 . S
H586 C557 0.982 . S
H587 C557 0.979 . S
H588 C557 0.977 . S
H589 C559 0.948 . S
H590 C561 0.947 . S
H591 C562 0.948 . S
H592 C568 0.982 . S
H593 C568 0.979 . S
H594 C568 0.977 . S
H595 C569 0.979 . S
H596 C569 0.980 . S
H597 C569 0.983 . S
H598 C542 0.947 . S
C599 C542 1.392 . S
C599 C543 1.419 . S
C599 H581 0.948 . S
C600 C601 1.391 . S
C600 C604 1.391 . S
C600 H642 0.948 . S
C601 C600 1.391 . S
C601 C602 1.391 . S
C602 C601 1.391 . S
C602 H658 0.947 . S
C602 C659 1.392 . S
C603 C604 1.391 . S
C603 C607 1.397 . S
C603 C659 1.419 . S
C604 C600 1.391 . S
C604 C603 1.391 . S
C604 C605 1.399 . S
C605 C604 1.399 . S
C605 C608 1.396 . S
C605 C617 1.453 . S
C605 C618 1.684 . S
H606 C630 0.948 . S
C607 C603 1.397 . S
C607 C608 1.394 . S
C607 C626 1.723 . S
C608 C605 1.396 . S
C608 C607 1.394 . S
C608 C638 1.723 . S
H609 C632 0.947 . S
H610 C633 0.948 . S
H611 C639 0.982 . S
H612 C640 0.979 . S
H613 C640 0.980 . S
H614 C640 0.983 . S
H615 C639 0.979 . S
H616 C639 0.977 . S
C617 C605 1.453 . S
C617 H646 0.982 . S
C617 H647 0.979 . S
C617 H648 0.977 . S
C618 C605 1.684 . S
C618 H643 0.979 . S
C618 H644 0.980 . S
C618 H645 0.983 . S
C619 C620 1.391 . S
C619 C624 1.391 . S
C619 H649 0.948 . S
C620 C619 1.391 . S
C620 C621 1.391 . S
C621 C620 1.391 . S
C621 C622 1.392 . S
C621 H650 0.947 . S
C622 C621 1.392 . S
C622 C623 1.419 . S
C622 H651 0.948 . S
C623 C622 1.419 . S
C623 C624 1.391 . S
C623 C627 1.397 . S
C624 C619 1.391 . S
C624 C623 1.391 . S
C624 C625 1.399 . S
C625 C624 1.399 . S
C625 C626 1.396 . S
C625 C628 1.453 . S
C625 C629 1.684 . S
C626 C607 1.723 . S
C626 C625 1.396 . S
C626 C627 1.394 . S
C627 C623 1.397 . S
C627 C626 1.394 . S
C627 C637 1.723 . S
C628 C625 1.453 . S
C628 H652 0.982 . S
C628 H653 0.979 . S
C628 H654 0.977 . S
C629 C625 1.684 . S
C629 H655 0.979 . S
C629 H656 0.980 . S
C629 H657 0.983 . S
C630 H606 0.948 . S
C630 C631 1.391 . S
C630 C635 1.391 . S
C631 C630 1.391 . S
C631 C632 1.391 . S
C632 H609 0.947 . S
C632 C631 1.391 . S
C632 C633 1.392 . S
C633 H610 0.948 . S
C633 C632 1.392 . S
C633 C634 1.419 . S
C634 C633 1.419 . S
C634 C635 1.391 . S
C634 C638 1.397 . S
C635 C630 1.391 . S
C635 C634 1.391 . S
C635 C636 1.399 . S
C636 C635 1.399 . S
C636 C637 1.396 . S
C636 C639 1.453 . S
C636 C640 1.684 . S
C637 C627 1.723 . S
C637 C636 1.396 . S
C637 C638 1.394 . S
C638 C608 1.723 . S
C638 C634 1.397 . S
C638 C637 1.394 . S
C639 H611 0.982 . S
C639 H615 0.979 . S
C639 H616 0.977 . S
C639 C636 1.453 . S
C640 H612 0.979 . S
C640 H613 0.980 . S
C640 H614 0.983 . S
C640 C636 1.684 . S
H641 C659 0.948 . S
H642 C600 0.948 . S
H643 C618 0.979 . S
H644 C618 0.980 . S
H645 C618 0.983 . S
H646 C617 0.982 . S
H647 C617 0.979 . S
H648 C617 0.977 . S
H649 C619 0.948 . S
H650 C621 0.947 . S
H651 C622 0.948 . S
H652 C628 0.982 . S
H653 C628 0.979 . S
H654 C628 0.977 . S
H655 C629 0.979 . S
H656 C629 0.980 . S
H657 C629 0.983 . S
H658 C602 0.947 . S
C659 C602 1.392 . S
C659 C603 1.419 . S
C659 H641 0.948 . S
C660 C661 1.391 . S
C660 C664 1.391 . S
C660 H702 0.948 . S
C661 C660 1.391 . S
C661 C662 1.391 . S
C662 C661 1.391 . S
C662 H718 0.947 . S
C662 C719 1.392 . S
C663 C664 1.391 . S
C663 C667 1.397 . S
C663 C719 1.419 . S
C664 C660 1.391 . S
C664 C663 1.391 . S
C664 C665 1.399 . S
C665 C664 1.399 . S
C665 C668 1.396 . S
C665 C677 1.453 . S
C665 C678 1.684 . S
H666 C690 0.948 . S
C667 C663 1.397 . S
C667 C668 1.394 . S
C667 C686 1.723 . S
C668 C665 1.396 . S
C668 C667 1.394 . S
C668 C698 1.723 . S
H669 C692 0.947 . S
H670 C693 0.948 . S
H671 C699 0.982 . S
H672 C700 0.979 . S
H673 C700 0.980 . S
H674 C700 0.983 . S
H675 C699 0.979 . S
H676 C699 0.977 . S
C677 C665 1.453 . S
C677 H706 0.982 . S
C677 H707 0.979 . S
C677 H708 0.977 . S
C678 C665 1.684 . S
C678 H703 0.979 . S
C678 H704 0.980 . S
C678 H705 0.983 . S
C679 C680 1.391 . S
C679 C684 1.391 . S
C679 H709 0.948 . S
C680 C679 1.391 . S
C680 C681 1.391 . S
C681 C680 1.391 . S
C681 C682 1.392 . S
C681 H710 0.947 . S
C682 C681 1.392 . S
C682 C683 1.419 . S
C682 H711 0.948 . S
C683 C682 1.419 . S
C683 C684 1.391 . S
C683 C687 1.397 . S
C684 C679 1.391 . S
C684 C683 1.391 . S
C684 C685 1.399 . S
C685 C684 1.399 . S
C685 C686 1.396 . S
C685 C688 1.453 . S
C685 C689 1.684 . S
C686 C667 1.723 . S
C686 C685 1.396 . S
C686 C687 1.394 . S
C687 C683 1.397 . S
C687 C686 1.394 . S
C687 C697 1.723 . S
C688 C685 1.453 . S
C688 H712 0.982 . S
C688 H713 0.979 . S
C688 H714 0.977 . S
C689 C685 1.684 . S
C689 H715 0.979 . S
C689 H716 0.980 . S
C689 H717 0.983 . S
C690 H666 0.948 . S
C690 C691 1.391 . S
C690 C695 1.391 . S
C691 C690 1.391 . S
C691 C692 1.391 . S
C692 H669 0.947 . S
C692 C691 1.391 . S
C692 C693 1.392 . S
C693 H670 0.948 . S
C693 C692 1.392 . S
C693 C694 1.419 . S
C694 C693 1.419 . S
C694 C695 1.391 . S
C694 C698 1.397 . S
C695 C690 1.391 . S
C695 C694 1.391 . S
C695 C696 1.399 . S
C696 C695 1.399 . S
C696 C697 1.396 . S
C696 C699 1.453 . S
C696 C700 1.684 . S
C697 C687 1.723 . S
C697 C696 1.396 . S
C697 C698 1.394 . S
C698 C668 1.723 . S
C698 C694 1.397 . S
C698 C697 1.394 . S
C699 H671 0.982 . S
C699 H675 0.979 . S
C699 H676 0.977 . S
C699 C696 1.453 . S
C700 H672 0.979 . S
C700 H673 0.980 . S
C700 H674 0.983 . S
C700 C696 1.684 . S
H701 C719 0.948 . S
H702 C660 0.948 . S
H703 C678 0.979 . S
H704 C678 0.980 . S
H705 C678 0.983 . S
H706 C677 0.982 . S
H707 C677 0.979 . S
H708 C677 0.977 . S
H709 C679 0.948 . S
H710 C681 0.947 . S
H711 C682 0.948 . S
H712 C688 0.982 . S
H713 C688 0.979 . S
H714 C688 0.977 . S
H715 C689 0.979 . S
H716 C689 0.980 . S
H717 C689 0.983 . S
H718 C662 0.947 . S
C719 C662 1.392 . S
C719 C663 1.419 . S
C719 H701 0.948 . S
C720 C721 1.391 . S
C720 C724 1.391 . S
C720 H762 0.948 . S
C721 C720 1.391 . S
C721 C722 1.391 . S
C722 C721 1.391 . S
C722 H778 0.947 . S
C722 C779 1.392 . S
C723 C724 1.391 . S
C723 C727 1.397 . S
C723 C779 1.419 . S
C724 C720 1.391 . S
C724 C723 1.391 . S
C724 C725 1.399 . S
C725 C724 1.399 . S
C725 C728 1.396 . S
C725 C737 1.453 . S
C725 C738 1.684 . S
H726 C750 0.948 . S
C727 C723 1.397 . S
C727 C728 1.394 . S
C727 C746 1.723 . S
C728 C725 1.396 . S
C728 C727 1.394 . S
C728 C758 1.723 . S
H729 C752 0.947 . S
H730 C753 0.948 . S
H731 C759 0.982 . S
H732 C760 0.979 . S
H733 C760 0.980 . S
H734 C760 0.983 . S
H735 C759 0.979 . S
H736 C759 0.977 . S
C737 C725 1.453 . S
C737 H766 0.982 . S
C737 H767 0.979 . S
C737 H768 0.977 . S
C738 C725 1.684 . S
C738 H763 0.979 . S
C738 H764 0.980 . S
C738 H765 0.983 . S
C739 C740 1.391 . S
C739 C744 1.391 . S
C739 H769 0.948 . S
C740 C739 1.391 . S
C740 C741 1.391 . S
C741 C740 1.391 . S
C741 C742 1.392 . S
C741 H770 0.947 . S
C742 C741 1.392 . S
C742 C743 1.419 . S
C742 H771 0.948 . S
C743 C742 1.419 . S
C743 C744 1.391 . S
C743 C747 1.397 . S
C744 C739 1.391 . S
C744 C743 1.391 . S
C744 C745 1.399 . S
C745 C744 1.399 . S
C745 C746 1.396 . S
C745 C748 1.453 . S
C745 C749 1.684 . S
C746 C727 1.723 . S
C746 C745 1.396 . S
C746 C747 1.394 . S
C747 C743 1.397 . S
C747 C746 1.394 . S
C747 C757 1.723 . S
C748 C745 1.453 . S
C748 H772 0.982 . S
C748 H773 0.979 . S
C748 H774 0.977 . S
C749 C745 1.684 . S
C749 H775 0.979 . S
C749 H776 0.980 . S
C749 H777 0.983 . S
C750 H726 0.948 . S
C750 C751 1.391 . S
C750 C755 1.391 . S
C751 C750 1.391 . S
C751 C752 1.391 . S
C752 H729 0.947 . S
C752 C751 1.391 . S
C752 C753 1.392 . S
C753 H730 0.948 . S
C753 C752 1.392 . S
C753 C754 1.419 . S
C754 C753 1.419 . S
C754 C755 1.391 . S
C754 C758 1.397 . S
C755 C750 1.391 . S
C755 C754 1.391 . S
C755 C756 1.399 . S
C756 C755 1.399 . S
C756 C757 1.396 . S
C756 C759 1.453 . S
C756 C760 1.684 . S
C757 C747 1.723 . S
C757 C756 1.396 . S
C757 C758 1.394 . S
C758 C728 1.723 . S
C758 C754 1.397 . S
C758 C757 1.394 . S
C759 H731 0.982 . S
C759 H735 0.979 . S
C759 H736 0.977 . S
C759 C756 1.453 . S
C760 H732 0.979 . S
C760 H733 0.980 . S
C760 H734 0.983 . S
C760 C756 1.684 . S
H761 C779 0.948 . S
H762 C720 0.948 . S
H763 C738 0.979 . S
H764 C738 0.980 . S
H765 C738 0.983 . S
H766 C737 0.982 . S
H767 C737 0.979 . S
H768 C737 0.977 . S
H769 C739 0.948 . S
H770 C741 0.947 . S
H771 C742 0.948 . S
H772 C748 0.982 . S
H773 C748 0.979 . S
H774 C748 0.977 . S
H775 C749 0.979 . S
H776 C749 0.980 . S
H777 C749 0.983 . S
H778 C722 0.947 . S
C779 C722 1.392 . S
C779 C723 1.419 . S
C779 H761 0.948 . S
C780 C781 1.391 . S
C780 C784 1.391 . S
C780 H822 0.948 . S
C781 C780 1.391 . S
C781 C782 1.391 . S
C782 C781 1.391 . S
C782 H838 0.947 . S
C782 C839 1.392 . S
C783 C784 1.391 . S
C783 C787 1.397 . S
C783 C839 1.419 . S
C784 C780 1.391 . S
C784 C783 1.391 . S
C784 C785 1.399 . S
C785 C784 1.399 . S
C785 C788 1.396 . S
C785 C797 1.453 . S
C785 C798 1.684 . S
H786 C810 0.948 . S
C787 C783 1.397 . S
C787 C788 1.394 . S
C787 C806 1.723 . S
C788 C785 1.396 . S
C788 C787 1.394 . S
C788 C818 1.723 . S
H789 C812 0.947 . S
H790 C813 0.948 . S
H791 C819 0.982 . S
H792 C820 0.979 . S
H793 C820 0.980 . S
H794 C820 0.983 . S
H795 C819 0.979 . S
H796 C819 0.977 . S
C797 C785 1.453 . S
C797 H826 0.982 . S
C797 H827 0.979 . S
C797 H828 0.977 . S
C798 C785 1.684 . S
C798 H823 0.979 . S
C798 H824 0.980 . S
C798 H825 0.983 . S
C799 C800 1.391 . S
C799 C804 1.391 . S
C799 H829 0.948 . S
C800 C799 1.391 . S
C800 C801 1.391 . S
C801 C800 1.391 . S
C801 C802 1.392 . S
C801 H830 0.947 . S
C802 C801 1.392 . S
C802 C803 1.419 . S
C802 H831 0.948 . S
C803 C802 1.419 . S
C803 C804 1.391 . S
C803 C807 1.397 . S
C804 C799 1.391 . S
C804 C803 1.391 . S
C804 C805 1.399 . S
C805 C804 1.399 . S
C805 C806 1.396 . S
C805 C808 1.453 . S
C805 C809 1.684 . S
C806 C787 1.723 . S
C806 C805 1.396 . S
C806 C807 1.394 . S
C807 C803 1.397 . S
C807 C806 1.394 . S
C807 C817 1.723 . S
C808 C805 1.453 . S
C808 H832 0.982 . S
C808 H833 0.979 . S
C808 H834 0.977 . S
C809 C805 1.684 . S
C809 H835 0.979 . S
C809 H836 0.980 . S
C809 H837 0.983 . S
C810 H786 0.948 . S
C810 C811 1.391 . S
C810 C815 1.391 . S
C811 C810 1.391 . S
C811 C812 1.391 . S
C812 H789 0.947 . S
C812 C811 1.391 . S
C812 C813 1.392 . S
C813 H790 0.948 . S
C813 C812 1.392 . S
C813 C814 1.419 . S
C814 C813 1.419 . S
C814 C815 1.391 . S
C814 C818 1.397 . S
C815 C810 1.391 . S
C815 C814 1.391 . S
C815 C816 1.399 . S
C816 C815 1.399 . S
C816 C817 1.396 . S
C816 C819 1.453 . S
C816 C820 1.684 . S
C817 C807 1.723 . S
C817 C816 1.396 . S
C817 C818 1.394 . S
C818 C788 1.723 . S
C818 C814 1.397 . S
C818 C817 1.394 . S
C819 H791 0.982 . S
C819 H795 0.979 . S
C819 H796 0.977 . S
C819 C816 1.453 . S
C820 H792 0.979 . S
C820 H793 0.980 . S
C820 H794 0.983 . S
C820 C816 1.684 . S
H821 C839 0.948 . S
H822 C780 0.948 . S
H823 C798 0.979 . S
H824 C798 0.980 . S
H825 C798 0.983 . S
H826 C797 0.982 . S
H827 C797 0.979 . S
H828 C797 0.977 . S
H829 C799 0.948 . S
H830 C801 0.947 . S
H831 C802 0.948 . S
H832 C808 0.982 . S
H833 C808 0.979 . S
H834 C808 0.977 . S
H835 C809 0.979 . S
H836 C809 0.980 . S
H837 C809 0.983 . S
H838 C782 0.947 . S
C839 C782 1.392 . S
C839 C783 1.419 . S
C839 H821 0.948 . S
C840 C841 1.391 . S
C840 C844 1.391 . S
C840 H882 0.948 . S
C841 C840 1.391 . S
C841 C842 1.391 . S
C842 C841 1.391 . S
C842 H898 0.947 . S
C842 C899 1.392 . S
C843 C844 1.391 . S
C843 C847 1.397 . S
C843 C899 1.419 . S
C844 C840 1.391 . S
C844 C843 1.391 . S
C844 C845 1.399 . S
C845 C844 1.399 . S
C845 C848 1.396 . S
C845 C857 1.453 . S
C845 C858 1.684 . S
H846 C870 0.948 . S
C847 C843 1.397 . S
C847 C848 1.394 . S
C847 C866 1.723 . S
C848 C845 1.396 . S
C848 C847 1.394 . S
C848 C878 1.723 . S
H849 C872 0.947 . S
H850 C873 0.948 . S
H851 C879 0.982 . S
H852 C880 0.979 . S
H853 C880 0.980 . S
H854 C880 0.983 . S
H855 C879 0.979 . S
H856 C879 0.977 . S
C857 C845 1.453 . S
C857 H886 0.982 . S
C857 H887 0.979 . S
C857 H888 0.977 . S
C858 C845 1.684 . S
C858 H883 0.979 . S
C858 H884 0.980 . S
C858 H885 0.983 . S
C859 C860 1.391 . S
C859 C864 1.391 . S
C859 H889 0.948 . S
C860 C859 1.391 . S
C860 C861 1.391 . S
C861 C860 1.391 . S
C861 C862 1.392 . S
C861 H890 0.947 . S
C862 C861 1.392 . S
C862 C863 1.419 . S
C862 H891 0.948 . S
C863 C862 1.419 . S
C863 C864 1.391 . S
C863 C867 1.397 . S
C864 C859 1.391 . S
C864 C863 1.391 . S
C864 C865 1.399 . S
C865 C864 1.399 . S
C865 C866 1.396 . S
C865 C868 1.453 . S
C865 C869 1.684 . S
C866 C847 1.723 . S
C866 C865 1.396 . S
C866 C867 1.394 . S
C867 C863 1.397 . S
C867 C866 1.394 . S
C867 C877 1.723 . S
C868 C865 1.453 . S
C868 H892 0.982 . S
C868 H893 0.979 . S
C868 H894 0.977 . S
C869 C865 1.684 . S
C869 H895 0.979 . S
C869 H896 0.980 . S
C869 H897 0.983 . S
C870 H846 0.948 . S
C870 C871 1.391 . S
C870 C875 1.391 . S
C871 C870 1.391 . S
C871 C872 1.391 . S
C872 H849 0.947 . S
C872 C871 1.391 . S
C872 C873 1.392 . S
C873 H850 0.948 . S
C873 C872 1.392 . S
C873 C874 1.419 . S
C874 C873 1.419 . S
C874 C875 1.391 . S
C874 C878 1.397 . S
C875 C870 1.391 . S
C875 C874 1.391 . S
C875 C876 1.399 . S
C876 C875 1.399 . S
C876 C877 1.396 . S
C876 C879 1.453 . S
C876 C880 1.684 . S
C877 C867 1.723 . S
C877 C876 1.396 . S
C877 C878 1.394 . S
C878 C848 1.723 . S
C878 C874 1.397 . S
C878 C877 1.394 . S
C879 H851 0.982 . S
C879 H855 0.979 . S
C879 H856 0.977 . S
C879 C876 1.453 . S
C880 H852 0.979 . S
C880 H853 0.980 . S
C880 H854 0.983 . S
C880 C876 1.684 . S
H881 C899 0.948 . S
H882 C840 0.948 . S
H883 C858 0.979 . S
H884 C858 0.980 . S
H885 C858 0.983 . S
H886 C857 0.982 . S
H887 C857 0.979 . S
H888 C857 0.977 . S
H889 C859 0.948 . S
H890 C861 0.947 . S
H891 C862 0.948 . S
H892 C868 0.982 . S
H893 C868 0.979 . S
H894 C868 0.977 . S
H895 C869 0.979 . S
H896 C869 0.980 . S
H897 C869 0.983 . S
H898 C842 0.947 . S
C899 C842 1.392 . S
C899 C843 1.419 . S
C899 H881 0.948 . S
C900 C901 1.391 . S
C900 C904 1.391 . S
C900 H942 0.948 . S
C901 C900 1.391 . S
C901 C902 1.391 . S
C902 C901 1.391 . S
C902 H958 0.947 . S
C902 C959 1.392 . S
C903 C904 1.391 . S
C903 C907 1.397 . S
C903 C959 1.419 . S
C904 C900 1.391 . S
C904 C903 1.391 . S
C904 C905 1.399 . S
C905 C904 1.399 . S
C905 C908 1.396 . S
C905 C917 1.453 . S
C905 C918 1.684 . S
H906 C930 0.948 . S
C907 C903 1.397 . S
C907 C908 1.394 . S
C907 C926 1.723 . S
C908 C905 1.396 . S
C908 C907 1.394 . S
C908 C938 1.723 . S
H909 C932 0.947 . S
H910 C933 0.948 . S
H911 C939 0.982 . S
H912 C940 0.979 . S
H913 C940 0.980 . S
H914 C940 0.983 . S
H915 C939 0.979 . S
H916 C939 0.977 . S
C917 C905 1.453 . S
C917 H946 0.982 . S
C917 H947 0.979 . S
C917 H948 0.977 . S
C918 C905 1.684 . S
C918 H943 0.979 . S
C918 H944 0.980 . S
C918 H945 0.983 . S
C919 C920 1.391 . S
C919 C924 1.391 . S
C919 H949 0.948 . S
C920 C919 1.391 . S
C920 C921 1.391 . S
C921 C920 1.391 . S
C921 C922 1.392 . S
C921 H950 0.947 . S
C922 C921 1.392 . S
C922 C923 1.419 . S
C922 H951 0.948 . S
C923 C922 1.419 . S
C923 C924 1.391 . S
C923 C927 1.397 . S
C924 C919 1.391 . S
C924 C923 1.391 . S
C924 C925 1.399 . S
C925 C924 1.399 . S
C925 C926 1.396 . S
C925 C928 1.453 . S
C925 C929 1.684 . S
C926 C907 1.723 . S
C926 C925 1.396 . S
C926 C927 1.394 . S
C927 C923 1.397 . S
C927 C926 1.394 . S
C927 C937 1.723 . S
C928 C925 1.453 . S
C928 H952 0.982 . S
C928 H953 0.979 . S
C928 H954 0.977 . S
C929 C925 1.684 . S
C929 H955 0.979 . S
C929 H956 0.980 . S
C929 H957 0.983 . S
C930 H906 0.948 . S
C930 C931 1.391 . S
C930 C935 1.391 . S
C931 C930 1.391 . S
C931 C932 1.391 . S
C932 H909 0.947 . S
C932 C931 1.391 . S
C932 C933 1.392 . S
C933 H910 0.948 . S
C933 C932 1.392 . S
C933 C934 1.419 . S
C934 C933 1.419 . S
C934 C935 1.391 . S
C934 C938 1.397 . S
C935 C930 1.391 . S
C935 C934 1.391 . S
C935 C936 1.399 . S
C936 C935 1.399 . S
C936 C937 1.396 . S
C936 C939 1.453 . S
C936 C940 1.684 . S
C937 C927 1.723 . S
C937 C936 1.396 . S
C937 C938 1.394 . S
C938 C908 1.723 . S
C938 C934 1.397 . S
C938 C937 1.394 . S
C939 H911 0.982 . S
C939 H915 0.979 . S
C939 H916 0.977 . S
C939 C936 1.453 . S
C940 H912 0.979 . S
C940 H913 0.980 . S
C940 H914 0.983 . S
C940 C936 1.684 . S
H941 C959 0.948 . S
H942 C900 0.948 . S
H943 C918 0.979 . S
H944 C918 0.980 . S
H945 C918 0.983 . S
H946 C917 0.982 . S
H947 C917 0.979 . S
H948 C917 0.977 . S
H949 C919 0.948 . S
H950 C921 0.947 . S
H951 C922 0.948 . S
H952 C928 0.982 . S
H953 C928 0.979 . S
H954 C928 0.977 . S
H955 C929 0.979 . S
H956 C929 0.980 . S
H957 C929 0.983 . S
H958 C902 0.947 . S
C959 C902 1.392 . S
C959 C903 1.419 . S
C959 H941 0.948 . S
C960 C961 1.391 . S
C960 C964 1.391 . S
C960 H1002 0.948 . S
C961 C960 1.391 . S
C961 C962 1.391 . S
C962 C961 1.391 . S
C962 H1018 0.947 . S
C962 C1019 1.392 . S
C963 C964 1.391 . S
C963 C967 1.397 . S
C963 C1019 1.419 . S
C964 C960 1.391 . S
C964 C963 1.391 . S
C964 C965 1.399 . S
C965 C964 1.399 . S
C965 C968 1.396 . S
C965 C977 1.453 . S
C965 C978 1.684 . S
H966 C990 0.948 . S
C967 C963 1.397 . S
C967 C968 1.394 . S
C967 C986 1.723 . S
C968 C965 1.396 . S
C968 C967 1.394 . S
C968 C998 1.723 . S
H969 C992 0.947 . S
H970 C993 0.948 . S
H971 C999 0.982 . S
H972 C1000 0.979 1_655 S
H973 C1000 0.980 . S
H974 C1000 0.983 . S
H975 C999 0.979 . S
H976 C999 0.977 . S
C977 C965 1.453 . S
C977 H1006 0.982 . S
C977 H1007 0.979 . S
C977 H1008 0.977 . S
C978 C965 1.684 . S
C978 H1003 0.979 . S
C978 H1004 0.980 . S
C978 H1005 0.983 . S
C979 C980 1.391 . S
C979 C984 1.391 . S
C979 H1009 0.948 . S
C980 C979 1.391 . S
C980 C981 1.391 . S
C981 C980 1.391 . S
C981 C982 1.392 . S
C981 H1010 0.947 . S
C982 C981 1.392 . S
C982 C983 1.419 . S
C982 H1011 0.948 . S
C983 C982 1.419 . S
C983 C984 1.391 . S
C983 C987 1.397 . S
C984 C979 1.391 . S
C984 C983 1.391 . S
C984 C985 1.399 . S
C985 C984 1.399 . S
C985 C986 1.396 . S
C985 C988 1.453 . S
C985 C989 1.684 . S
C986 C967 1.723 . S
C986 C985 1.396 . S
C986 C987 1.394 . S
C987 C983 1.397 . S
C987 C986 1.394 . S
C987 C997 1.723 . S
C988 C985 1.453 . S
C988 H1012 0.982 . S
C988 H1013 0.979 . S
C988 H1014 0.977 . S
C989 C985 1.684 . S
C989 H1015 0.979 1_455 S
C989 H1016 0.980 . S
C989 H1017 0.983 . S
C990 H966 0.948 . S
C990 C991 1.391 . S
C990 C995 1.391 . S
C991 C990 1.391 . S
C991 C992 1.391 . S
C992 H969 0.947 . S
C992 C991 1.391 . S
C992 C993 1.392 . S
C993 H970 0.948 . S
C993 C992 1.392 . S
C993 C994 1.419 . S
C994 C993 1.419 . S
C994 C995 1.391 . S
C994 C998 1.397 . S
C995 C990 1.391 . S
C995 C994 1.391 . S
C995 C996 1.399 . S
C996 C995 1.399 . S
C996 C997 1.396 . S
C996 C999 1.453 . S
C996 C1000 1.684 . S
C997 C987 1.723 . S
C997 C996 1.396 . S
C997 C998 1.394 . S
C998 C968 1.723 . S
C998 C994 1.397 . S
C998 C997 1.394 . S
C999 H971 0.982 . S
C999 H975 0.979 . S
C999 H976 0.977 . S
C999 C996 1.453 . S
C1000 H972 0.979 1_455 S
C1000 H973 0.980 . S
C1000 H974 0.983 . S
C1000 C996 1.684 . S
H1001 C1019 0.948 . S
H1002 C960 0.948 . S
H1003 C978 0.979 . S
H1004 C978 0.980 . S
H1005 C978 0.983 . S
H1006 C977 0.982 . S
H1007 C977 0.979 . S
H1008 C977 0.977 . S
H1009 C979 0.948 . S
H1010 C981 0.947 . S
H1011 C982 0.948 . S
H1012 C988 0.982 . S
H1013 C988 0.979 . S
H1014 C988 0.977 . S
H1015 C989 0.979 1_655 S
H1016 C989 0.980 . S
H1017 C989 0.983 . S
H1018 C962 0.947 . S
C1019 C962 1.392 . S
C1019 C963 1.419 . S
C1019 H1001 0.948 . S
C1020 C1021 1.391 . S
C1020 C1024 1.391 . S
C1020 H1062 0.948 . S
C1021 C1020 1.391 . S
C1021 C1022 1.391 . S
C1022 C1021 1.391 . S
C1022 H1078 0.947 . S
C1022 C1079 1.392 . S
C1023 C1024 1.391 . S
C1023 C1027 1.397 . S
C1023 C1079 1.419 . S
C1024 C1020 1.391 . S
C1024 C1023 1.391 . S
C1024 C1025 1.399 . S
C1025 C1024 1.399 . S
C1025 C1028 1.396 . S
C1025 C1037 1.453 . S
C1025 C1038 1.684 . S
H1026 C1050 0.948 . S
C1027 C1023 1.397 . S
C1027 C1028 1.394 . S
C1027 C1046 1.723 . S
C1028 C1025 1.396 . S
C1028 C1027 1.394 . S
C1028 C1058 1.723 . S
H1029 C1052 0.947 . S
H1030 C1053 0.948 . S
H1031 C1059 0.982 . S
H1032 C1060 0.979 . S
H1033 C1060 0.980 . S
H1034 C1060 0.983 . S
H1035 C1059 0.979 . S
H1036 C1059 0.977 . S
C1037 C1025 1.453 . S
C1037 H1066 0.982 . S
C1037 H1067 0.979 . S
C1037 H1068 0.977 . S
C1038 C1025 1.684 . S
C1038 H1063 0.979 . S
C1038 H1064 0.980 . S
C1038 H1065 0.983 . S
C1039 C1040 1.391 . S
C1039 C1044 1.391 . S
C1039 H1069 0.948 . S
C1040 C1039 1.391 . S
C1040 C1041 1.391 . S
C1041 C1040 1.391 . S
C1041 C1042 1.392 . S
C1041 H1070 0.947 . S
C1042 C1041 1.392 . S
C1042 C1043 1.419 . S
C1042 H1071 0.948 . S
C1043 C1042 1.419 . S
C1043 C1044 1.391 . S
C1043 C1047 1.397 . S
C1044 C1039 1.391 . S
C1044 C1043 1.391 . S
C1044 C1045 1.399 . S
C1045 C1044 1.399 . S
C1045 C1046 1.396 . S
C1045 C1048 1.453 . S
C1045 C1049 1.684 . S
C1046 C1027 1.723 . S
C1046 C1045 1.396 . S
C1046 C1047 1.394 . S
C1047 C1043 1.397 . S
C1047 C1046 1.394 . S
C1047 C1057 1.723 . S
C1048 C1045 1.453 . S
C1048 H1072 0.982 . S
C1048 H1073 0.979 . S
C1048 H1074 0.977 . S
C1049 C1045 1.684 . S
C1049 H1075 0.979 . S
C1049 H1076 0.980 . S
C1049 H1077 0.983 . S
C1050 H1026 0.948 . S
C1050 C1051 1.391 . S
C1050 C1055 1.391 . S
C1051 C1050 1.391 . S
C1051 C1052 1.391 . S
C1052 H1029 0.947 . S
C1052 C1051 1.391 . S
C1052 C1053 1.392 . S
C1053 H1030 0.948 . S
C1053 C1052 1.392 . S
C1053 C1054 1.419 . S
C1054 C1053 1.419 . S
C1054 C1055 1.391 . S
C1054 C1058 1.397 . S
C1055 C1050 1.391 . S
C1055 C1054 1.391 . S
C1055 C1056 1.399 . S
C1056 C1055 1.399 . S
C1056 C1057 1.396 . S
C1056 C1059 1.453 . S
C1056 C1060 1.684 . S
C1057 C1047 1.723 . S
C1057 C1056 1.396 . S
C1057 C1058 1.394 . S
C1058 C1028 1.723 . S
C1058 C1054 1.397 . S
C1058 C1057 1.394 . S
C1059 H1031 0.982 . S
C1059 H1035 0.979 . S
C1059 H1036 0.977 . S
C1059 C1056 1.453 . S
C1060 H1032 0.979 . S
C1060 H1033 0.980 . S
C1060 H1034 0.983 . S
C1060 C1056 1.684 . S
H1061 C1079 0.948 . S
H1062 C1020 0.948 . S
H1063 C1038 0.979 . S
H1064 C1038 0.980 . S
H1065 C1038 0.983 . S
H1066 C1037 0.982 . S
H1067 C1037 0.979 . S
H1068 C1037 0.977 . S
H1069 C1039 0.948 . S
H1070 C1041 0.947 . S
H1071 C1042 0.948 . S
H1072 C1048 0.982 . S
H1073 C1048 0.979 . S
H1074 C1048 0.977 . S
H1075 C1049 0.979 . S
H1076 C1049 0.980 . S
H1077 C1049 0.983 . S
H1078 C1022 0.947 . S
C1079 C1022 1.392 . S
C1079 C1023 1.419 . S
C1079 H1061 0.948 . S
Tb1080 C1090 2.825 . S
Tb1080 O1091 2.347 1_565 S
Tb1080 O1094 2.366 1_565 S
Tb1080 O1099 2.418 . S
Tb1080 O1100 2.384 . S
Tb1080 O1103 2.479 . S
Tb1080 O1104 2.458 1_565 S
Eu1081 O1092 2.418 . S
Eu1081 O1093 2.384 . S
Eu1081 O1096 2.479 . S
Eu1081 O1097 2.465 1_545 S
Eu1081 O1098 2.347 1_545 S
Eu1081 O1101 2.366 1_545 S
Eu1081 C1111 2.825 . S
C1082 O1098 1.259 . S
C1082 O1099 1.265 1_554 S
C1083 O1100 1.255 1_554 S
C1083 O1101 1.265 . S
C1084 C1086 1.380 . S
C1084 C1087 1.374 1_565 S
C1084 C1090 1.507 . S
C1085 C1086 1.384 . S
C1085 C1089 1.387 1_565 S
C1085 H1112 0.930 . S
C1086 C1084 1.380 . S
C1086 C1085 1.384 . S
C1086 H1113 0.931 . S
C1087 C1084 1.374 1_545 S
C1087 C1088 1.390 . S
C1087 H1114 0.930 . S
C1088 C1087 1.390 . S
C1088 C1089 1.391 . S
C1088 H1115 0.930 . S
C1089 C1085 1.387 1_545 S
C1089 C1088 1.391 . S
C1090 Tb1080 2.825 . S
C1090 C1084 1.507 . S
C1090 O1103 1.238 . S
C1090 O1104 1.227 1_565 S
O1091 Tb1080 2.347 1_545 S
O1091 C1095 1.259 . S
O1092 Eu1081 2.418 . S
O1092 C1095 1.265 1_554 S
O1093 Eu1081 2.384 . S
O1093 C1102 1.255 1_554 S
O1094 Tb1080 2.366 1_545 S
O1094 C1102 1.265 . S
C1095 O1091 1.259 . S
C1095 O1092 1.265 1_556 S
O1096 Eu1081 2.479 . S
O1096 C1111 1.238 . S
O1097 Eu1081 2.465 1_565 S
O1097 C1111 1.237 1_565 S
O1098 Eu1081 2.347 1_565 S
O1098 C1082 1.259 . S
O1099 Tb1080 2.418 . S
O1099 C1082 1.265 1_556 S
O1100 Tb1080 2.384 . S
O1100 C1083 1.255 1_556 S
O1101 Eu1081 2.366 1_565 S
O1101 C1083 1.265 . S
C1102 O1093 1.255 1_556 S
C1102 O1094 1.265 . S
O1103 Tb1080 2.479 . S
O1103 C1090 1.238 . S
O1104 Tb1080 2.458 1_545 S
O1104 C1090 1.227 1_545 S
C1105 C1108 1.380 . S
C1105 C1109 1.374 1_545 S
C1105 C1111 1.507 . S
C1106 C1107 1.387 1_565 S
C1106 C1110 1.391 . S
C1107 C1106 1.387 1_545 S
C1107 C1108 1.384 . S
C1107 H1116 0.930 . S
C1108 C1105 1.380 . S
C1108 C1107 1.384 . S
C1108 H1117 0.931 . S
C1109 C1105 1.374 1_565 S
C1109 C1110 1.390 . S
C1109 H1118 0.930 . S
C1110 C1106 1.391 . S
C1110 C1109 1.390 . S
C1110 H1119 0.930 . S
C1111 Eu1081 2.825 . S
C1111 O1096 1.238 . S
C1111 O1097 1.237 1_545 S
C1111 C1105 1.507 . S
H1112 C1085 0.930 . S
H1113 C1086 0.931 . S
H1114 C1087 0.930 . S
H1115 C1088 0.930 . S
H1116 C1107 0.930 . S
H1117 C1108 0.931 . S
H1118 C1109 0.930 . S
H1119 C1110 0.930 . S
Tb1120 C1130 2.825 . S
Tb1120 O1131 2.347 1_455 S
Tb1120 O1134 2.366 1_455 S
Tb1120 O1139 2.418 . S
Tb1120 O1140 2.384 1_556 S
Tb1120 O1143 2.479 . S
Tb1120 O1144 2.471 1_455 S
Eu1121 O1132 2.418 . S
Eu1121 O1133 2.384 1_554 S
Eu1121 O1136 2.479 . S
Eu1121 O1137 2.471 1_655 S
Eu1121 O1138 2.347 1_655 S
Eu1121 O1141 2.366 1_655 S
Eu1121 C1151 2.825 . S
C1122 O1138 1.259 . S
C1122 O1139 1.265 1_554 S
C1123 O1140 1.255 . S
C1123 O1141 1.265 . S
C1124 C1126 1.380 . S
C1124 C1127 1.374 1_455 S
C1124 C1130 1.507 . S
C1125 C1126 1.384 . S
C1125 C1129 1.387 1_455 S
C1125 H1152 0.930 . S
C1126 C1124 1.380 . S
C1126 C1125 1.384 . S
C1126 H1153 0.931 . S
C1127 C1124 1.374 1_655 S
C1127 C1128 1.390 . S
C1127 H1154 0.930 . S
C1128 C1127 1.390 . S
C1128 C1129 1.391 . S
C1128 H1155 0.930 . S
C1129 C1125 1.387 1_655 S
C1129 C1128 1.391 . S
C1130 Tb1120 2.825 . S
C1130 C1124 1.507 . S
C1130 O1143 1.238 . S
C1130 O1144 1.247 1_455 S
O1131 Tb1120 2.347 1_655 S
O1131 C1135 1.259 . S
O1132 Eu1121 2.418 . S
O1132 C1135 1.265 1_554 S
O1133 Eu1121 2.384 1_556 S
O1133 C1142 1.255 . S
O1134 Tb1120 2.366 1_655 S
O1134 C1142 1.265 . S
C1135 O1131 1.259 . S
C1135 O1132 1.265 1_556 S
O1136 Eu1121 2.479 . S
O1136 C1151 1.238 . S
O1137 Eu1121 2.471 1_455 S
O1137 C1151 1.247 1_455 S
O1138 Eu1121 2.347 1_455 S
O1138 C1122 1.259 . S
O1139 Tb1120 2.418 . S
O1139 C1122 1.265 1_556 S
O1140 Tb1120 2.384 1_554 S
O1140 C1123 1.255 . S
O1141 Eu1121 2.366 1_455 S
O1141 C1123 1.265 . S
C1142 O1133 1.255 . S
C1142 O1134 1.265 . S
O1143 Tb1120 2.479 . S
O1143 C1130 1.238 . S
O1144 Tb1120 2.471 1_655 S
O1144 C1130 1.247 1_655 S
C1145 C1148 1.380 . S
C1145 C1149 1.374 1_655 S
C1145 C1151 1.507 . S
C1146 C1147 1.387 1_455 S
C1146 C1150 1.391 . S
C1147 C1146 1.387 1_655 S
C1147 C1148 1.384 . S
C1147 H1156 0.930 . S
C1148 C1145 1.380 . S
C1148 C1147 1.384 . S
C1148 H1157 0.931 . S
C1149 C1145 1.374 1_455 S
C1149 C1150 1.390 . S
C1149 H1158 0.930 . S
C1150 C1146 1.391 . S
C1150 C1149 1.390 . S
C1150 H1159 0.930 . S
C1151 Eu1121 2.825 . S
C1151 O1136 1.238 . S
C1151 O1137 1.247 1_655 S
C1151 C1145 1.507 . S
H1152 C1125 0.930 . S
H1153 C1126 0.931 . S
H1154 C1127 0.930 . S
H1155 C1128 0.930 . S
H1156 C1147 0.930 . S
H1157 C1148 0.931 . S
H1158 C1149 0.930 . S
H1159 C1150 0.930 . S
Tb1160 C1170 2.825 . S
Tb1160 O1171 2.347 . S
Tb1160 O1174 2.366 . S
Tb1160 O1179 2.418 . S
Tb1160 O1180 2.402 . S
Tb1160 O1183 2.479 . S
Tb1160 O1184 2.471 . S
Eu1161 O1172 2.418 . S
Eu1161 O1173 2.321 1_556 S
Eu1161 O1176 2.479 . S
Eu1161 O1177 2.471 . S
Eu1161 O1178 2.347 . S
Eu1161 O1181 2.366 . S
Eu1161 C1191 2.825 . S
C1162 O1178 1.259 . S
C1162 O1179 1.265 1_556 S
C1163 O1180 1.235 1_556 S
C1163 O1181 1.265 . S
C1164 C1166 1.380 . S
C1164 C1167 1.374 . S
C1164 C1170 1.507 . S
C1165 C1166 1.384 . S
C1165 C1169 1.387 . S
C1165 H1192 0.930 . S
C1166 C1164 1.380 . S
C1166 C1165 1.384 . S
C1166 H1193 0.931 . S
C1167 C1164 1.374 . S
C1167 C1168 1.390 . S
C1167 H1194 0.930 . S
C1168 C1167 1.390 . S
C1168 C1169 1.391 . S
C1168 H1195 0.930 . S
C1169 C1165 1.387 . S
C1169 C1168 1.391 . S
C1170 Tb1160 2.825 . S
C1170 C1164 1.507 . S
C1170 O1183 1.238 . S
C1170 O1184 1.247 . S
O1171 Tb1160 2.347 . S
O1171 C1175 1.259 . S
O1172 Eu1161 2.418 . S
O1172 C1175 1.265 1_556 S
O1173 Eu1161 2.321 1_554 S
O1173 C1182 1.329 . S
O1174 Tb1160 2.366 . S
O1174 C1182 1.265 . S
C1175 O1171 1.259 . S
C1175 O1172 1.265 1_554 S
O1176 Eu1161 2.479 . S
O1176 C1191 1.238 . S
O1177 Eu1161 2.471 . S
O1177 C1191 1.247 . S
O1178 Eu1161 2.347 . S
O1178 C1162 1.259 . S
O1179 Tb1160 2.418 . S
O1179 C1162 1.265 1_554 S
O1180 Tb1160 2.402 . S
O1180 C1163 1.235 1_554 S
O1181 Eu1161 2.366 . S
O1181 C1163 1.265 . S
C1182 O1173 1.329 . S
C1182 O1174 1.265 . S
O1183 Tb1160 2.479 . S
O1183 C1170 1.238 . S
O1184 Tb1160 2.471 . S
O1184 C1170 1.247 . S
C1185 C1188 1.380 . S
C1185 C1189 1.374 . S
C1185 C1191 1.507 . S
C1186 C1187 1.387 . S
C1186 C1190 1.391 . S
C1187 C1186 1.387 . S
C1187 C1188 1.384 . S
C1187 H1196 0.930 . S
C1188 C1185 1.380 . S
C1188 C1187 1.384 . S
C1188 H1197 0.931 . S
C1189 C1185 1.374 . S
C1189 C1190 1.390 . S
C1189 H1198 0.930 . S
C1190 C1186 1.391 . S
C1190 C1189 1.390 . S
C1190 H1199 0.930 . S
C1191 Eu1161 2.825 . S
C1191 O1176 1.238 . S
C1191 O1177 1.247 . S
C1191 C1185 1.507 . S
H1192 C1165 0.930 . S
H1193 C1166 0.931 . S
H1194 C1167 0.930 . S
H1195 C1168 0.930 . S
H1196 C1187 0.930 . S
H1197 C1188 0.931 . S
H1198 C1189 0.930 . S
H1199 C1190 0.930 . S
Tb1200 C1210 2.825 . S
Tb1200 O1211 2.347 . S
Tb1200 O1214 2.366 . S
Tb1200 O1219 2.418 . S
Tb1200 O1220 2.384 . S
Tb1200 O1223 2.479 . S
Tb1200 O1224 2.471 . S
Eu1201 O1212 2.418 . S
Eu1201 O1213 2.384 . S
Eu1201 O1216 2.479 . S
Eu1201 O1217 2.471 . S
Eu1201 O1218 2.347 . S
Eu1201 O1221 2.366 . S
Eu1201 C1231 2.825 . S
C1202 O1218 1.259 . S
C1202 O1219 1.265 . S
C1203 O1220 1.255 . S
C1203 O1221 1.265 . S
C1204 C1206 1.380 . S
C1204 C1207 1.374 . S
C1204 C1210 1.507 . S
C1205 C1206 1.384 . S
C1205 C1209 1.387 . S
C1205 H1232 0.930 . S
C1206 C1204 1.380 . S
C1206 C1205 1.384 . S
C1206 H1233 0.931 . S
C1207 C1204 1.374 . S
C1207 C1208 1.390 . S
C1207 H1234 0.930 . S
C1208 C1207 1.390 . S
C1208 C1209 1.391 . S
C1208 H1235 0.930 . S
C1209 C1205 1.387 . S
C1209 C1208 1.391 . S
C1210 Tb1200 2.825 . S
C1210 C1204 1.507 . S
C1210 O1223 1.238 . S
C1210 O1224 1.247 . S
O1211 Tb1200 2.347 . S
O1211 C1215 1.259 . S
O1212 Eu1201 2.418 . S
O1212 C1215 1.265 . S
O1213 Eu1201 2.384 . S
O1213 C1222 1.255 . S
O1214 Tb1200 2.366 . S
O1214 C1222 1.265 . S
C1215 O1211 1.259 . S
C1215 O1212 1.265 . S
O1216 Eu1201 2.479 . S
O1216 C1231 1.238 . S
O1217 Eu1201 2.471 . S
O1217 C1231 1.247 . S
O1218 Eu1201 2.347 . S
O1218 C1202 1.259 . S
O1219 Tb1200 2.418 . S
O1219 C1202 1.265 . S
O1220 Tb1200 2.384 . S
O1220 C1203 1.255 . S
O1221 Eu1201 2.366 . S
O1221 C1203 1.265 . S
C1222 O1213 1.255 . S
C1222 O1214 1.265 . S
O1223 Tb1200 2.479 . S
O1223 C1210 1.238 . S
O1224 Tb1200 2.471 . S
O1224 C1210 1.247 . S
C1225 C1228 1.380 . S
C1225 C1229 1.374 . S
C1225 C1231 1.507 . S
C1226 C1227 1.387 . S
C1226 C1230 1.391 . S
C1227 C1226 1.387 . S
C1227 C1228 1.384 . S
C1227 H1236 0.930 . S
C1228 C1225 1.380 . S
C1228 C1227 1.384 . S
C1228 H1237 0.931 . S
C1229 C1225 1.374 . S
C1229 C1230 1.390 . S
C1229 H1238 0.930 . S
C1230 C1226 1.391 . S
C1230 C1229 1.390 . S
C1230 H1239 0.930 . S
C1231 Eu1201 2.825 . S
C1231 O1216 1.238 . S
C1231 O1217 1.247 . S
C1231 C1225 1.507 . S
H1232 C1205 0.930 . S
H1233 C1206 0.931 . S
H1234 C1207 0.930 . S
H1235 C1208 0.930 . S
H1236 C1227 0.930 . S
H1237 C1228 0.931 . S
H1238 C1229 0.930 . S
H1239 C1230 0.930 . S
Tb1240 C1250 2.825 . S
Tb1240 O1251 2.347 . S
Tb1240 O1254 2.366 . S
Tb1240 O1259 2.418 . S
Tb1240 O1260 2.384 . S
Tb1240 O1263 2.479 . S
Tb1240 O1264 2.471 . S
Eu1241 O1252 2.418 . S
Eu1241 O1253 2.384 . S
Eu1241 O1256 2.479 . S
Eu1241 O1257 2.471 . S
Eu1241 O1258 2.347 . S
Eu1241 O1261 2.366 . S
Eu1241 C1271 2.825 . S
C1242 O1258 1.259 . S
C1242 O1259 1.265 . S
C1243 O1260 1.255 . S
C1243 O1261 1.265 . S
C1244 C1246 1.380 . S
C1244 C1247 1.374 . S
C1244 C1250 1.507 . S
C1245 C1246 1.384 . S
C1245 C1249 1.387 . S
C1245 H1272 0.930 . S
C1246 C1244 1.380 . S
C1246 C1245 1.384 . S
C1246 H1273 0.931 . S
C1247 C1244 1.374 . S
C1247 C1248 1.390 . S
C1247 H1274 0.930 . S
C1248 C1247 1.390 . S
C1248 C1249 1.391 . S
C1248 H1275 0.930 . S
C1249 C1245 1.387 . S
C1249 C1248 1.391 . S
C1250 Tb1240 2.825 . S
C1250 C1244 1.507 . S
C1250 O1263 1.238 . S
C1250 O1264 1.247 . S
O1251 Tb1240 2.347 . S
O1251 C1255 1.259 . S
O1252 Eu1241 2.418 . S
O1252 C1255 1.265 . S
O1253 Eu1241 2.384 . S
O1253 C1262 1.255 . S
O1254 Tb1240 2.366 . S
O1254 C1262 1.265 . S
C1255 O1251 1.259 . S
C1255 O1252 1.265 . S
O1256 Eu1241 2.479 . S
O1256 C1271 1.238 . S
O1257 Eu1241 2.471 . S
O1257 C1271 1.247 . S
O1258 Eu1241 2.347 . S
O1258 C1242 1.259 . S
O1259 Tb1240 2.418 . S
O1259 C1242 1.265 . S
O1260 Tb1240 2.384 . S
O1260 C1243 1.255 . S
O1261 Eu1241 2.366 . S
O1261 C1243 1.265 . S
C1262 O1253 1.255 . S
C1262 O1254 1.265 . S
O1263 Tb1240 2.479 . S
O1263 C1250 1.238 . S
O1264 Tb1240 2.471 . S
O1264 C1250 1.247 . S
C1265 C1268 1.380 . S
C1265 C1269 1.374 . S
C1265 C1271 1.507 . S
C1266 C1267 1.387 . S
C1266 C1270 1.391 . S
C1267 C1266 1.387 . S
C1267 C1268 1.384 . S
C1267 H1276 0.930 . S
C1268 C1265 1.380 . S
C1268 C1267 1.384 . S
C1268 H1277 0.931 . S
C1269 C1265 1.374 . S
C1269 C1270 1.390 . S
C1269 H1278 0.930 . S
C1270 C1266 1.391 . S
C1270 C1269 1.390 . S
C1270 H1279 0.930 . S
C1271 Eu1241 2.825 . S
C1271 O1256 1.238 . S
C1271 O1257 1.247 . S
C1271 C1265 1.507 . S
H1272 C1245 0.930 . S
H1273 C1246 0.931 . S
H1274 C1247 0.930 . S
H1275 C1248 0.930 . S
H1276 C1267 0.930 . S
H1277 C1268 0.931 . S
H1278 C1269 0.930 . S
H1279 C1270 0.930 . S
Tb1280 C1290 2.825 . S
Tb1280 O1291 2.347 . S
Tb1280 O1294 2.366 . S
Tb1280 O1299 2.418 . S
Tb1280 O1300 2.384 . S
Tb1280 O1303 2.479 . S
Tb1280 O1304 2.471 . S
Eu1281 O1292 2.418 . S
Eu1281 O1293 2.384 . S
Eu1281 O1296 2.479 . S
Eu1281 O1297 2.471 . S
Eu1281 O1298 2.347 . S
Eu1281 O1301 2.366 . S
Eu1281 C1311 2.825 . S
C1282 O1298 1.259 . S
C1282 O1299 1.265 . S
C1283 O1300 1.255 . S
C1283 O1301 1.265 . S
C1284 C1286 1.380 . S
C1284 C1287 1.374 . S
C1284 C1290 1.507 . S
C1285 C1286 1.384 . S
C1285 C1289 1.387 . S
C1285 H1312 0.930 . S
C1286 C1284 1.380 . S
C1286 C1285 1.384 . S
C1286 H1313 0.931 . S
C1287 C1284 1.374 . S
C1287 C1288 1.390 . S
C1287 H1314 0.930 . S
C1288 C1287 1.390 . S
C1288 C1289 1.391 . S
C1288 H1315 0.930 . S
C1289 C1285 1.387 . S
C1289 C1288 1.391 . S
C1290 Tb1280 2.825 . S
C1290 C1284 1.507 . S
C1290 O1303 1.238 . S
C1290 O1304 1.247 . S
O1291 Tb1280 2.347 . S
O1291 C1295 1.259 . S
O1292 Eu1281 2.418 . S
O1292 C1295 1.265 . S
O1293 Eu1281 2.384 . S
O1293 C1302 1.255 . S
O1294 Tb1280 2.366 . S
O1294 C1302 1.265 . S
C1295 O1291 1.259 . S
C1295 O1292 1.265 . S
O1296 Eu1281 2.479 . S
O1296 C1311 1.238 . S
O1297 Eu1281 2.471 . S
O1297 C1311 1.247 . S
O1298 Eu1281 2.347 . S
O1298 C1282 1.259 . S
O1299 Tb1280 2.418 . S
O1299 C1282 1.265 . S
O1300 Tb1280 2.384 . S
O1300 C1283 1.255 . S
O1301 Eu1281 2.366 . S
O1301 C1283 1.265 . S
C1302 O1293 1.255 . S
C1302 O1294 1.265 . S
O1303 Tb1280 2.479 . S
O1303 C1290 1.238 . S
O1304 Tb1280 2.471 . S
O1304 C1290 1.247 . S
C1305 C1308 1.380 . S
C1305 C1309 1.374 . S
C1305 C1311 1.507 . S
C1306 C1307 1.387 . S
C1306 C1310 1.391 . S
C1307 C1306 1.387 . S
C1307 C1308 1.384 . S
C1307 H1316 0.930 . S
C1308 C1305 1.380 . S
C1308 C1307 1.384 . S
C1308 H1317 0.931 . S
C1309 C1305 1.374 . S
C1309 C1310 1.390 . S
C1309 H1318 0.930 . S
C1310 C1306 1.391 . S
C1310 C1309 1.390 . S
C1310 H1319 0.930 . S
C1311 Eu1281 2.825 . S
C1311 O1296 1.238 . S
C1311 O1297 1.247 . S
C1311 C1305 1.507 . S
H1312 C1285 0.930 . S
H1313 C1286 0.931 . S
H1314 C1287 0.930 . S
H1315 C1288 0.930 . S
H1316 C1307 0.930 . S
H1317 C1308 0.931 . S
H1318 C1309 0.930 . S
H1319 C1310 0.930 . S
Tb1320 C1330 2.825 . S
Tb1320 O1331 2.347 . S
Tb1320 O1334 2.366 . S
Tb1320 O1339 2.418 . S
Tb1320 O1340 2.384 . S
Tb1320 O1343 2.479 . S
Tb1320 O1344 2.471 . S
Eu1321 O1332 2.418 . S
Eu1321 O1333 2.384 . S
Eu1321 O1336 2.479 . S
Eu1321 O1337 2.471 . S
Eu1321 O1338 2.347 . S
Eu1321 O1341 2.366 . S
Eu1321 C1351 2.825 . S
C1322 O1338 1.259 . S
C1322 O1339 1.265 . S
C1323 O1340 1.255 . S
C1323 O1341 1.265 . S
C1324 C1326 1.380 . S
C1324 C1327 1.374 . S
C1324 C1330 1.507 . S
C1325 C1326 1.384 . S
C1325 C1329 1.387 . S
C1325 H1352 0.930 . S
C1326 C1324 1.380 . S
C1326 C1325 1.384 . S
C1326 H1353 0.931 . S
C1327 C1324 1.374 . S
C1327 C1328 1.390 . S
C1327 H1354 0.930 . S
C1328 C1327 1.390 . S
C1328 C1329 1.391 . S
C1328 H1355 0.930 . S
C1329 C1325 1.387 . S
C1329 C1328 1.391 . S
C1330 Tb1320 2.825 . S
C1330 C1324 1.507 . S
C1330 O1343 1.238 . S
C1330 O1344 1.247 . S
O1331 Tb1320 2.347 . S
O1331 C1335 1.259 . S
O1332 Eu1321 2.418 . S
O1332 C1335 1.265 . S
O1333 Eu1321 2.384 . S
O1333 C1342 1.255 . S
O1334 Tb1320 2.366 . S
O1334 C1342 1.265 . S
C1335 O1331 1.259 . S
C1335 O1332 1.265 . S
O1336 Eu1321 2.479 . S
O1336 C1351 1.238 . S
O1337 Eu1321 2.471 . S
O1337 C1351 1.247 . S
O1338 Eu1321 2.347 . S
O1338 C1322 1.259 . S
O1339 Tb1320 2.418 . S
O1339 C1322 1.265 . S
O1340 Tb1320 2.384 . S
O1340 C1323 1.255 . S
O1341 Eu1321 2.366 . S
O1341 C1323 1.265 . S
C1342 O1333 1.255 . S
C1342 O1334 1.265 . S
O1343 Tb1320 2.479 . S
O1343 C1330 1.238 . S
O1344 Tb1320 2.471 . S
O1344 C1330 1.247 . S
C1345 C1348 1.380 . S
C1345 C1349 1.374 . S
C1345 C1351 1.507 . S
C1346 C1347 1.387 . S
C1346 C1350 1.391 . S
C1347 C1346 1.387 . S
C1347 C1348 1.384 . S
C1347 H1356 0.930 . S
C1348 C1345 1.380 . S
C1348 C1347 1.384 . S
C1348 H1357 0.931 . S
C1349 C1345 1.374 . S
C1349 C1350 1.390 . S
C1349 H1358 0.930 . S
C1350 C1346 1.391 . S
C1350 C1349 1.390 . S
C1350 H1359 0.930 . S
C1351 Eu1321 2.825 . S
C1351 O1336 1.238 . S
C1351 O1337 1.247 . S
C1351 C1345 1.507 . S
H1352 C1325 0.930 . S
H1353 C1326 0.931 . S
H1354 C1327 0.930 . S
H1355 C1328 0.930 . S
H1356 C1347 0.930 . S
H1357 C1348 0.931 . S
H1358 C1349 0.930 . S
H1359 C1350 0.930 . S
Tb1360 C1370 2.825 . S
Tb1360 O1371 2.347 . S
Tb1360 O1374 2.366 . S
Tb1360 O1379 2.418 . S
Tb1360 O1380 2.384 . S
Tb1360 O1383 2.479 . S
Tb1360 O1384 2.471 . S
Eu1361 O1372 2.418 . S
Eu1361 O1373 2.384 . S
Eu1361 O1376 2.479 . S
Eu1361 O1377 2.471 . S
Eu1361 O1378 2.347 . S
Eu1361 O1381 2.366 . S
Eu1361 C1391 2.825 . S
C1362 O1378 1.259 . S
C1362 O1379 1.265 . S
C1363 O1380 1.255 . S
C1363 O1381 1.265 . S
C1364 C1366 1.380 . S
C1364 C1367 1.374 . S
C1364 C1370 1.507 . S
C1365 C1366 1.384 . S
C1365 C1369 1.387 . S
C1365 H1392 0.930 . S
C1366 C1364 1.380 . S
C1366 C1365 1.384 . S
C1366 H1393 0.931 . S
C1367 C1364 1.374 . S
C1367 C1368 1.390 . S
C1367 H1394 0.930 . S
C1368 C1367 1.390 . S
C1368 C1369 1.391 . S
C1368 H1395 0.930 . S
C1369 C1365 1.387 . S
C1369 C1368 1.391 . S
C1370 Tb1360 2.825 . S
C1370 C1364 1.507 . S
C1370 O1383 1.238 . S
C1370 O1384 1.247 . S
O1371 Tb1360 2.347 . S
O1371 C1375 1.259 . S
O1372 Eu1361 2.418 . S
O1372 C1375 1.265 . S
O1373 Eu1361 2.384 . S
O1373 C1382 1.255 . S
O1374 Tb1360 2.366 . S
O1374 C1382 1.265 . S
C1375 O1371 1.259 . S
C1375 O1372 1.265 . S
O1376 Eu1361 2.479 . S
O1376 C1391 1.238 . S
O1377 Eu1361 2.471 . S
O1377 C1391 1.247 . S
O1378 Eu1361 2.347 . S
O1378 C1362 1.259 . S
O1379 Tb1360 2.418 . S
O1379 C1362 1.265 . S
O1380 Tb1360 2.384 . S
O1380 C1363 1.255 . S
O1381 Eu1361 2.366 . S
O1381 C1363 1.265 . S
C1382 O1373 1.255 . S
C1382 O1374 1.265 . S
O1383 Tb1360 2.479 . S
O1383 C1370 1.238 . S
O1384 Tb1360 2.471 . S
O1384 C1370 1.247 . S
C1385 C1388 1.380 . S
C1385 C1389 1.374 . S
C1385 C1391 1.507 . S
C1386 C1387 1.387 . S
C1386 C1390 1.391 . S
C1387 C1386 1.387 . S
C1387 C1388 1.384 . S
C1387 H1396 0.930 . S
C1388 C1385 1.380 . S
C1388 C1387 1.384 . S
C1388 H1397 0.931 . S
C1389 C1385 1.374 . S
C1389 C1390 1.390 . S
C1389 H1398 0.930 . S
C1390 C1386 1.391 . S
C1390 C1389 1.390 . S
C1390 H1399 0.930 . S
C1391 Eu1361 2.825 . S
C1391 O1376 1.238 . S
C1391 O1377 1.247 . S
C1391 C1385 1.507 . S
H1392 C1365 0.930 . S
H1393 C1366 0.931 . S
H1394 C1367 0.930 . S
H1395 C1368 0.930 . S
H1396 C1387 0.930 . S
H1397 C1388 0.931 . S
H1398 C1389 0.930 . S
H1399 C1390 0.930 . S
Tb1400 C1410 2.825 . S
Tb1400 O1411 2.347 . S
Tb1400 O1414 2.366 . S
Tb1400 O1419 2.418 . S
Tb1400 O1420 2.384 . S
Tb1400 O1423 2.479 . S
Tb1400 O1424 2.471 . S
Eu1401 O1412 2.418 . S
Eu1401 O1413 2.384 . S
Eu1401 O1416 2.479 . S
Eu1401 O1417 2.471 . S
Eu1401 O1418 2.347 . S
Eu1401 O1421 2.366 . S
Eu1401 C1431 2.825 . S
C1402 O1418 1.259 . S
C1402 O1419 1.265 . S
C1403 O1420 1.255 . S
C1403 O1421 1.265 . S
C1404 C1406 1.380 . S
C1404 C1407 1.374 . S
C1404 C1410 1.507 . S
C1405 C1406 1.384 . S
C1405 C1409 1.387 . S
C1405 H1432 0.930 . S
C1406 C1404 1.380 . S
C1406 C1405 1.384 . S
C1406 H1433 0.931 . S
C1407 C1404 1.374 . S
C1407 C1408 1.390 . S
C1407 H1434 0.930 . S
C1408 C1407 1.390 . S
C1408 C1409 1.391 . S
C1408 H1435 0.930 . S
C1409 C1405 1.387 . S
C1409 C1408 1.391 . S
C1410 Tb1400 2.825 . S
C1410 C1404 1.507 . S
C1410 O1423 1.238 . S
C1410 O1424 1.247 . S
O1411 Tb1400 2.347 . S
O1411 C1415 1.259 . S
O1412 Eu1401 2.418 . S
O1412 C1415 1.265 . S
O1413 Eu1401 2.384 . S
O1413 C1422 1.255 . S
O1414 Tb1400 2.366 . S
O1414 C1422 1.265 . S
C1415 O1411 1.259 . S
C1415 O1412 1.265 . S
O1416 Eu1401 2.479 . S
O1416 C1431 1.238 . S
O1417 Eu1401 2.471 . S
O1417 C1431 1.247 . S
O1418 Eu1401 2.347 . S
O1418 C1402 1.259 . S
O1419 Tb1400 2.418 . S
O1419 C1402 1.265 . S
O1420 Tb1400 2.384 . S
O1420 C1403 1.255 . S
O1421 Eu1401 2.366 . S
O1421 C1403 1.265 . S
C1422 O1413 1.255 . S
C1422 O1414 1.265 . S
O1423 Tb1400 2.479 . S
O1423 C1410 1.238 . S
O1424 Tb1400 2.471 . S
O1424 C1410 1.247 . S
C1425 C1428 1.380 . S
C1425 C1429 1.374 . S
C1425 C1431 1.507 . S
C1426 C1427 1.387 . S
C1426 C1430 1.391 . S
C1427 C1426 1.387 . S
C1427 C1428 1.384 . S
C1427 H1436 0.930 . S
C1428 C1425 1.380 . S
C1428 C1427 1.384 . S
C1428 H1437 0.931 . S
C1429 C1425 1.374 . S
C1429 C1430 1.390 . S
C1429 H1438 0.930 . S
C1430 C1426 1.391 . S
C1430 C1429 1.390 . S
C1430 H1439 0.930 . S
C1431 Eu1401 2.825 . S
C1431 O1416 1.238 . S
C1431 O1417 1.247 . S
C1431 C1425 1.507 . S
H1432 C1405 0.930 . S
H1433 C1406 0.931 . S
H1434 C1407 0.930 . S
H1435 C1408 0.930 . S
H1436 C1427 0.930 . S
H1437 C1428 0.931 . S
H1438 C1429 0.930 . S
H1439 C1430 0.930 . S
C1440 C1441 1.391 . S
C1440 C1442 1.394 . S
C1440 H1456 0.931 . S
C1441 C1440 1.391 . S
C1441 C1445 1.376 . S
C1442 C1440 1.394 . S
C1442 C1443 1.369 . S
C1442 C1446 1.531 . S
C1443 C1442 1.369 . S
C1443 C1444 1.410 . S
C1443 C1451 1.503 . S
C1444 C1443 1.410 . S
C1444 C1445 1.392 . S
C1444 C1447 1.511 . S
C1445 C1441 1.376 . S
C1445 C1444 1.392 . S
C1445 H1457 0.929 . S
C1446 C1442 1.531 . S
C1446 H1458 0.960 . S
C1446 H1459 0.962 . S
C1446 H1460 0.960 . S
C1447 C1444 1.511 . S
C1447 H1461 0.961 . S
C1447 H1462 0.961 . S
C1447 H1463 0.961 . S
C1448 C1449 1.370 . S
C1448 C1450 1.363 . S
C1448 H1464 0.931 . S
C1449 C1448 1.370 . S
C1449 C1453 1.408 . S
C1450 C1448 1.363 . S
C1450 C1451 1.370 . S
C1450 C1454 1.524 . S
C1451 C1443 1.503 . S
C1451 C1450 1.370 . S
C1451 C1452 1.403 . S
C1452 C1451 1.403 . S
C1452 C1453 1.404 . S
C1452 C1455 1.539 . S
C1453 C1449 1.408 . S
C1453 C1452 1.404 . S
C1453 H1465 0.930 . S
C1454 C1450 1.524 . S
C1454 H1466 0.956 . S
C1454 H1467 0.961 . S
C1454 H1468 0.961 . S
C1455 C1452 1.539 . S
C1455 H1469 0.958 . S
C1455 H1470 0.961 . S
C1455 H1471 0.960 . S
H1456 C1440 0.931 . S
H1457 C1445 0.929 . S
H1458 C1446 0.960 . S
H1459 C1446 0.962 . S
H1460 C1446 0.960 . S
H1461 C1447 0.961 . S
H1462 C1447 0.961 . S
H1463 C1447 0.961 . S
H1464 C1448 0.931 . S
H1465 C1453 0.930 . S
H1466 C1454 0.956 . S
H1467 C1454 0.961 . S
H1468 C1454 0.961 . S
H1469 C1455 0.958 . S
H1470 C1455 0.961 . S
H1471 C1455 0.960 . S
C1472 C1473 1.391 . S
C1472 C1474 1.394 . S
C1472 H1488 0.931 . S
C1473 C1472 1.391 . S
C1473 C1477 1.376 . S
C1474 C1472 1.394 . S
C1474 C1475 1.369 . S
C1474 C1478 1.531 . S
C1475 C1474 1.369 . S
C1475 C1476 1.410 . S
C1475 C1483 1.503 . S
C1476 C1475 1.410 . S
C1476 C1477 1.392 . S
C1476 C1479 1.511 . S
C1477 C1473 1.376 . S
C1477 C1476 1.392 . S
C1477 H1489 0.929 . S
C1478 C1474 1.531 . S
C1478 H1490 0.960 . S
C1478 H1491 0.962 . S
C1478 H1492 0.960 . S
C1479 C1476 1.511 . S
C1479 H1493 0.961 . S
C1479 H1494 0.961 . S
C1479 H1495 0.961 . S
C1480 C1481 1.370 . S
C1480 C1482 1.363 . S
C1480 H1496 0.931 . S
C1481 C1480 1.370 . S
C1481 C1485 1.408 . S
C1482 C1480 1.363 . S
C1482 C1483 1.370 . S
C1482 C1486 1.524 . S
C1483 C1475 1.503 . S
C1483 C1482 1.370 . S
C1483 C1484 1.403 . S
C1484 C1483 1.403 . S
C1484 C1485 1.404 . S
C1484 C1487 1.539 . S
C1485 C1481 1.408 . S
C1485 C1484 1.404 . S
C1485 H1497 0.930 . S
C1486 C1482 1.524 . S
C1486 H1498 0.956 . S
C1486 H1499 0.961 . S
C1486 H1500 0.961 . S
C1487 C1484 1.539 . S
C1487 H1501 0.958 . S
C1487 H1502 0.961 . S
C1487 H1503 0.960 . S
H1488 C1472 0.931 . S
H1489 C1477 0.929 . S
H1490 C1478 0.960 . S
H1491 C1478 0.962 . S
H1492 C1478 0.960 . S
H1493 C1479 0.961 . S
H1494 C1479 0.961 . S
H1495 C1479 0.961 . S
H1496 C1480 0.931 . S
H1497 C1485 0.930 . S
H1498 C1486 0.956 . S
H1499 C1486 0.961 . S
H1500 C1486 0.961 . S
H1501 C1487 0.958 . S
H1502 C1487 0.961 . S
H1503 C1487 0.960 . S
C1504 C1505 1.391 . S
C1504 C1506 1.394 . S
C1504 H1520 0.931 . S
C1505 C1504 1.391 . S
C1505 C1509 1.376 . S
C1506 C1504 1.394 . S
C1506 C1507 1.369 . S
C1506 C1510 1.531 . S
C1507 C1506 1.369 . S
C1507 C1508 1.410 . S
C1507 C1515 1.503 . S
C1508 C1507 1.410 . S
C1508 C1509 1.392 . S
C1508 C1511 1.511 . S
C1509 C1505 1.376 . S
C1509 C1508 1.392 . S
C1509 H1521 0.929 . S
C1510 C1506 1.531 . S
C1510 H1522 0.960 . S
C1510 H1523 0.962 . S
C1510 H1524 0.960 . S
C1511 C1508 1.511 . S
C1511 H1525 0.961 1_554 S
C1511 H1526 0.943 1_554 S
C1511 H1527 0.961 . S
C1512 C1513 1.370 . S
C1512 C1514 1.363 . S
C1512 H1528 0.892 1_554 S
C1513 C1512 1.370 . S
C1513 C1517 1.408 . S
C1514 C1512 1.363 . S
C1514 C1515 1.370 . S
C1514 C1518 1.524 . S
C1515 C1507 1.503 . S
C1515 C1514 1.370 . S
C1515 C1516 1.403 . S
C1516 C1515 1.403 . S
C1516 C1517 1.404 . S
C1516 C1519 1.539 . S
C1517 C1513 1.408 . S
C1517 C1516 1.404 . S
C1517 H1529 0.930 . S
C1518 C1514 1.524 . S
C1518 H1530 0.956 . S
C1518 H1531 0.961 1_554 S
C1518 H1532 0.961 1_554 S
C1519 C1516 1.539 . S
C1519 H1533 0.958 . S
C1519 H1534 0.961 . S
C1519 H1535 0.960 . S
H1520 C1504 0.931 . S
H1521 C1509 0.929 . S
H1522 C1510 0.960 . S
H1523 C1510 0.962 . S
H1524 C1510 0.960 . S
H1525 C1511 0.961 1_556 S
H1526 C1511 0.943 1_556 S
H1527 C1511 0.961 . S
H1528 C1512 0.892 1_556 S
H1529 C1517 0.930 . S
H1530 C1518 0.956 . S
H1531 C1518 0.961 1_556 S
H1532 C1518 0.961 1_556 S
H1533 C1519 0.958 . S
H1534 C1519 0.961 . S
H1535 C1519 0.960 . S
C1536 C1537 1.391 . S
C1536 C1538 1.394 . S
C1536 H1552 0.931 . S
C1537 C1536 1.391 . S
C1537 C1541 1.376 . S
C1538 C1536 1.394 . S
C1538 C1539 1.369 . S
C1538 C1542 1.531 . S
C1539 C1538 1.369 . S
C1539 C1540 1.410 . S
C1539 C1547 1.503 . S
C1540 C1539 1.410 . S
C1540 C1541 1.392 . S
C1540 C1543 1.511 . S
C1541 C1537 1.376 . S
C1541 C1540 1.392 . S
C1541 H1553 0.929 . S
C1542 C1538 1.531 . S
C1542 H1554 0.960 . S
C1542 H1555 1.005 . S
C1542 H1556 0.960 . S
C1543 C1540 1.511 . S
C1543 H1557 0.961 . S
C1543 H1558 0.961 . S
C1543 H1559 0.961 . S
C1544 C1545 1.370 . S
C1544 C1546 1.363 . S
C1544 H1560 0.931 1_556 S
C1545 C1544 1.370 . S
C1545 C1549 1.408 . S
C1546 C1544 1.363 . S
C1546 C1547 1.370 . S
C1546 C1550 1.524 . S
C1547 C1539 1.503 . S
C1547 C1546 1.370 . S
C1547 C1548 1.403 . S
C1548 C1547 1.403 . S
C1548 C1549 1.404 . S
C1548 C1551 1.539 . S
C1549 C1545 1.408 . S
C1549 C1548 1.404 . S
C1549 H1561 0.930 . S
C1550 C1546 1.524 . S
C1550 H1562 0.956 1_556 S
C1550 H1563 0.961 . S
C1550 H1564 0.961 1_556 S
C1551 C1548 1.539 . S
C1551 H1565 0.958 . S
C1551 H1566 0.961 . S
C1551 H1567 0.960 . S
H1552 C1536 0.931 . S
H1553 C1541 0.929 . S
H1554 C1542 0.960 . S
H1555 C1542 1.005 . S
H1556 C1542 0.960 . S
H1557 C1543 0.961 . S
H1558 C1543 0.961 . S
H1559 C1543 0.961 . S
H1560 C1544 0.931 1_554 S
H1561 C1549 0.930 . S
H1562 C1550 0.956 1_554 S
H1563 C1550 0.961 . S
H1564 C1550 0.961 1_554 S
H1565 C1551 0.958 . S
H1566 C1551 0.961 . S
H1567 C1551 0.960 . S
C1568 C1569 1.391 . S
C1568 C1570 1.394 . S
C1568 H1584 0.931 . S
C1569 C1568 1.391 . S
C1569 C1573 1.376 . S
C1570 C1568 1.394 . S
C1570 C1571 1.369 . S
C1570 C1574 1.531 . S
C1571 C1570 1.369 . S
C1571 C1572 1.410 . S
C1571 C1579 1.503 . S
C1572 C1571 1.410 . S
C1572 C1573 1.392 . S
C1572 C1575 1.511 . S
C1573 C1569 1.376 . S
C1573 C1572 1.392 . S
C1573 H1585 0.929 . S
C1574 C1570 1.531 . S
C1574 H1586 0.960 . S
C1574 H1587 0.962 . S
C1574 H1588 0.960 . S
C1575 C1572 1.511 . S
C1575 H1589 0.961 . S
C1575 H1590 0.961 . S
C1575 H1591 0.961 . S
C1576 C1577 1.370 . S
C1576 C1578 1.363 . S
C1576 H1592 0.931 . S
C1577 C1576 1.370 . S
C1577 C1581 1.408 . S
C1578 C1576 1.363 . S
C1578 C1579 1.370 . S
C1578 C1582 1.524 . S
C1579 C1571 1.503 . S
C1579 C1578 1.370 . S
C1579 C1580 1.403 . S
C1580 C1579 1.403 . S
C1580 C1581 1.404 . S
C1580 C1583 1.539 . S
C1581 C1577 1.408 . S
C1581 C1580 1.404 . S
C1581 H1593 0.930 . S
C1582 C1578 1.524 . S
C1582 H1594 0.956 . S
C1582 H1595 0.961 . S
C1582 H1596 0.961 . S
C1583 C1580 1.539 . S
C1583 H1597 0.958 . S
C1583 H1598 0.961 . S
C1583 H1599 0.960 . S
H1584 C1568 0.931 . S
H1585 C1573 0.929 . S
H1586 C1574 0.960 . S
H1587 C1574 0.962 . S
H1588 C1574 0.960 . S
H1589 C1575 0.961 . S
H1590 C1575 0.961 . S
H1591 C1575 0.961 . S
H1592 C1576 0.931 . S
H1593 C1581 0.930 . S
H1594 C1582 0.956 . S
H1595 C1582 0.961 . S
H1596 C1582 0.961 . S
H1597 C1583 0.958 . S
H1598 C1583 0.961 . S
H1599 C1583 0.960 . S
C1600 C1601 1.391 . S
C1600 C1602 1.394 . S
C1600 H1616 0.931 . S
C1601 C1600 1.391 . S
C1601 C1605 1.376 . S
C1602 C1600 1.394 . S
C1602 C1603 1.369 . S
C1602 C1606 1.531 . S
C1603 C1602 1.369 . S
C1603 C1604 1.410 . S
C1603 C1611 1.503 . S
C1604 C1603 1.410 . S
C1604 C1605 1.392 . S
C1604 C1607 1.511 . S
C1605 C1601 1.376 . S
C1605 C1604 1.392 . S
C1605 H1617 0.929 . S
C1606 C1602 1.531 . S
C1606 H1618 0.960 1_556 S
C1606 H1619 0.962 . S
C1606 H1620 0.960 1_556 S
C1607 C1604 1.511 . S
C1607 H1621 0.961 . S
C1607 H1622 0.961 . S
C1607 H1623 0.961 . S
C1608 C1609 1.370 . S
C1608 C1610 1.363 . S
C1608 H1624 0.931 . S
C1609 C1608 1.370 . S
C1609 C1613 1.408 1_556 S
C1610 C1608 1.363 . S
C1610 C1611 1.370 . S
C1610 C1614 1.524 . S
C1611 C1603 1.503 . S
C1611 C1610 1.370 . S
C1611 C1612 1.403 . S
C1612 C1611 1.403 . S
C1612 C1613 1.404 1_556 S
C1612 C1615 1.539 1_556 S
C1613 C1609 1.408 1_554 S
C1613 C1612 1.404 1_554 S
C1613 H1625 0.930 . S
C1614 C1610 1.524 . S
C1614 H1626 0.956 . S
C1614 H1627 0.961 . S
C1614 H1628 0.961 . S
C1615 C1612 1.539 1_554 S
C1615 H1629 0.958 . S
C1615 H1630 0.961 . S
C1615 H1631 0.960 . S
H1616 C1600 0.931 . S
H1617 C1605 0.929 . S
H1618 C1606 0.960 1_554 S
H1619 C1606 0.962 . S
H1620 C1606 0.960 1_554 S
H1621 C1607 0.961 . S
H1622 C1607 0.961 . S
H1623 C1607 0.961 . S
H1624 C1608 0.931 . S
H1625 C1613 0.930 . S
H1626 C1614 0.956 . S
H1627 C1614 0.961 . S
H1628 C1614 0.961 . S
H1629 C1615 0.958 . S
H1630 C1615 0.961 . S
H1631 C1615 0.960 . S
C1632 C1633 1.391 . S
C1632 C1634 1.394 . S
C1632 H1648 0.931 . S
C1633 C1632 1.391 . S
C1633 C1637 1.376 . S
C1634 C1632 1.394 . S
C1634 C1635 1.369 . S
C1634 C1638 1.531 . S
C1635 C1634 1.369 . S
C1635 C1636 1.410 . S
C1635 C1643 1.503 . S
C1636 C1635 1.410 . S
C1636 C1637 1.392 . S
C1636 C1639 1.511 . S
C1637 C1633 1.376 . S
C1637 C1636 1.392 . S
C1637 H1649 0.929 . S
C1638 C1634 1.531 . S
C1638 H1650 0.960 . S
C1638 H1651 0.957 1_556 S
C1638 H1652 0.960 1_556 S
C1639 C1636 1.511 . S
C1639 H1653 0.961 . S
C1639 H1654 0.961 . S
C1639 H1655 0.961 . S
C1640 C1641 1.370 . S
C1640 C1642 1.363 . S
C1640 H1656 0.931 . S
C1641 C1640 1.370 . S
C1641 C1645 1.408 . S
C1642 C1640 1.363 . S
C1642 C1643 1.370 . S
C1642 C1646 1.524 . S
C1643 C1635 1.503 . S
C1643 C1642 1.370 . S
C1643 C1644 1.403 . S
C1644 C1643 1.403 . S
C1644 C1645 1.404 . S
C1644 C1647 1.539 . S
C1645 C1641 1.408 . S
C1645 C1644 1.404 . S
C1645 H1657 0.930 . S
C1646 C1642 1.524 . S
C1646 H1658 0.956 . S
C1646 H1659 0.961 . S
C1646 H1660 0.961 . S
C1647 C1644 1.539 . S
C1647 H1661 0.958 . S
C1647 H1662 0.961 . S
C1647 H1663 0.960 . S
H1648 C1632 0.931 . S
H1649 C1637 0.929 . S
H1650 C1638 0.960 . S
H1651 C1638 0.957 1_554 S
H1652 C1638 0.960 1_554 S
H1653 C1639 0.961 . S
H1654 C1639 0.961 . S
H1655 C1639 0.961 . S
H1656 C1640 0.931 . S
H1657 C1645 0.930 . S
H1658 C1646 0.956 . S
H1659 C1646 0.961 . S
H1660 C1646 0.961 . S
H1661 C1647 0.958 . S
H1662 C1647 0.961 . S
H1663 C1647 0.960 . S
C1664 C1665 1.391 . S
C1664 C1666 1.394 . S
C1664 H1680 0.931 . S
C1665 C1664 1.391 . S
C1665 C1669 1.376 . S
C1666 C1664 1.394 . S
C1666 C1667 1.369 . S
C1666 C1670 1.531 . S
C1667 C1666 1.369 . S
C1667 C1668 1.410 . S
C1667 C1675 1.503 . S
C1668 C1667 1.410 . S
C1668 C1669 1.392 . S
C1668 C1671 1.511 . S
C1669 C1665 1.376 . S
C1669 C1668 1.392 . S
C1669 H1681 0.929 . S
C1670 C1666 1.531 . S
C1670 H1682 0.960 . S
C1670 H1683 0.962 . S
C1670 H1684 0.960 . S
C1671 C1668 1.511 . S
C1671 H1685 0.961 . S
C1671 H1686 0.961 . S
C1671 H1687 0.961 . S
C1672 C1673 1.370 . S
C1672 C1674 1.363 . S
C1672 H1688 0.931 . S
C1673 C1672 1.370 . S
C1673 C1677 1.408 . S
C1674 C1672 1.363 . S
C1674 C1675 1.370 . S
C1674 C1678 1.524 . S
C1675 C1667 1.503 . S
C1675 C1674 1.370 . S
C1675 C1676 1.403 . S
C1676 C1675 1.403 . S
C1676 C1677 1.404 . S
C1676 C1679 1.539 . S
C1677 C1673 1.408 . S
C1677 C1676 1.404 . S
C1677 H1689 0.930 . S
C1678 C1674 1.524 . S
C1678 H1690 0.956 . S
C1678 H1691 0.961 . S
C1678 H1692 0.961 . S
C1679 C1676 1.539 . S
C1679 H1693 0.958 . S
C1679 H1694 0.961 . S
C1679 H1695 0.960 . S
H1680 C1664 0.931 . S
H1681 C1669 0.929 . S
H1682 C1670 0.960 . S
H1683 C1670 0.962 . S
H1684 C1670 0.960 . S
H1685 C1671 0.961 . S
H1686 C1671 0.961 . S
H1687 C1671 0.961 . S
H1688 C1672 0.931 . S
H1689 C1677 0.930 . S
H1690 C1678 0.956 . S
H1691 C1678 0.961 . S
H1692 C1678 0.961 . S
H1693 C1679 0.958 . S
H1694 C1679 0.961 . S
H1695 C1679 0.960 . S
C1696 C1697 1.391 . S
C1696 C1698 1.394 . S
C1696 H1712 0.931 . S
C1697 C1696 1.391 . S
C1697 C1701 1.376 . S
C1698 C1696 1.394 . S
C1698 C1699 1.369 . S
C1698 C1702 1.531 . S
C1699 C1698 1.369 . S
C1699 C1700 1.410 . S
C1699 C1707 1.503 . S
C1700 C1699 1.410 . S
C1700 C1701 1.392 . S
C1700 C1703 1.511 . S
C1701 C1697 1.376 . S
C1701 C1700 1.392 . S
C1701 H1713 0.929 . S
C1702 C1698 1.531 . S
C1702 H1714 0.960 1_556 S
C1702 H1715 0.962 . S
C1702 H1716 0.960 1_556 S
C1703 C1700 1.511 . S
C1703 H1717 0.961 . S
C1703 H1718 0.961 . S
C1703 H1719 0.961 . S
C1704 C1705 1.370 . S
C1704 C1706 1.363 . S
C1704 H1720 0.931 . S
C1705 C1704 1.370 . S
C1705 C1709 1.381 1_556 S
C1706 C1704 1.363 . S
C1706 C1707 1.370 . S
C1706 C1710 1.524 . S
C1707 C1699 1.503 . S
C1707 C1706 1.370 . S
C1707 C1708 1.403 . S
C1708 C1707 1.403 . S
C1708 C1709 1.404 1_556 S
C1708 C1711 1.539 1_556 S
C1709 C1705 1.381 1_554 S
C1709 C1708 1.404 1_554 S
C1709 H1721 0.958 . S
C1710 C1706 1.524 . S
C1710 H1722 0.956 . S
C1710 H1723 0.961 . S
C1710 H1724 0.961 . S
C1711 C1708 1.539 1_554 S
C1711 H1725 0.958 . S
C1711 H1726 0.961 . S
C1711 H1727 0.960 . S
H1712 C1696 0.931 . S
H1713 C1701 0.929 . S
H1714 C1702 0.960 1_554 S
H1715 C1702 0.962 . S
H1716 C1702 0.960 1_554 S
H1717 C1703 0.961 . S
H1718 C1703 0.961 . S
H1719 C1703 0.961 . S
H1720 C1704 0.931 . S
H1721 C1709 0.958 . S
H1722 C1710 0.956 . S
H1723 C1710 0.961 . S
H1724 C1710 0.961 . S
H1725 C1711 0.958 . S
H1726 C1711 0.961 . S
H1727 C1711 0.960 . S
C1728 C1729 1.391 . S
C1728 C1730 1.394 . S
C1728 H1744 0.931 . S
C1729 C1728 1.391 . S
C1729 C1733 1.376 . S
C1730 C1728 1.394 . S
C1730 C1731 1.369 . S
C1730 C1734 1.531 . S
C1731 C1730 1.369 . S
C1731 C1732 1.410 . S
C1731 C1739 1.503 . S
C1732 C1731 1.410 . S
C1732 C1733 1.392 . S
C1732 C1735 1.511 . S
C1733 C1729 1.376 . S
C1733 C1732 1.392 . S
C1733 H1745 0.929 . S
C1734 C1730 1.531 . S
C1734 H1746 0.960 . S
C1734 H1747 0.962 . S
C1734 H1748 0.960 . S
C1735 C1732 1.511 . S
C1735 H1749 0.984 . S
C1735 H1750 0.961 . S
C1735 H1751 0.961 . S
C1736 C1737 1.370 . S
C1736 C1738 1.363 . S
C1736 H1752 0.931 . S
C1737 C1736 1.370 . S
C1737 C1741 1.408 . S
C1738 C1736 1.363 . S
C1738 C1739 1.370 . S
C1738 C1742 1.524 . S
C1739 C1731 1.503 . S
C1739 C1738 1.370 . S
C1739 C1740 1.403 . S
C1740 C1739 1.403 . S
C1740 C1741 1.404 . S
C1740 C1743 1.539 . S
C1741 C1737 1.408 . S
C1741 C1740 1.404 . S
C1741 H1753 0.930 . S
C1742 C1738 1.524 . S
C1742 H1754 0.956 . S
C1742 H1755 0.961 . S
C1742 H1756 0.916 1_554 S
C1743 C1740 1.539 . S
C1743 H1757 0.958 . S
C1743 H1758 0.961 . S
C1743 H1759 0.960 . S
H1744 C1728 0.931 . S
H1745 C1733 0.929 . S
H1746 C1734 0.960 . S
H1747 C1734 0.962 . S
H1748 C1734 0.960 . S
H1749 C1735 0.984 . S
H1750 C1735 0.961 . S
H1751 C1735 0.961 . S
H1752 C1736 0.931 . S
H1753 C1741 0.930 . S
H1754 C1742 0.956 . S
H1755 C1742 0.961 . S
H1756 C1742 0.916 1_556 S
H1757 C1743 0.958 . S
H1758 C1743 0.961 . S
H1759 C1743 0.960 . S
C1760 C1761 1.391 . S
C1760 C1762 1.394 . S
C1760 H1776 0.931 . S
C1761 C1760 1.391 . S
C1761 C1765 1.376 . S
C1762 C1760 1.394 . S
C1762 C1763 1.369 . S
C1762 C1766 1.531 . S
C1763 C1762 1.369 . S
C1763 C1764 1.410 . S
C1763 C1771 1.503 . S
C1764 C1763 1.410 . S
C1764 C1765 1.392 . S
C1764 C1767 1.511 . S
C1765 C1761 1.376 . S
C1765 C1764 1.392 . S
C1765 H1777 0.929 . S
C1766 C1762 1.531 . S
C1766 H1778 0.960 . S
C1766 H1779 0.962 . S
C1766 H1780 0.960 . S
C1767 C1764 1.511 . S
C1767 H1781 0.961 . S
C1767 H1782 0.961 . S
C1767 H1783 0.961 . S
C1768 C1769 1.370 . S
C1768 C1770 1.363 . S
C1768 H1784 0.931 . S
C1769 C1768 1.370 . S
C1769 C1773 1.408 . S
C1770 C1768 1.363 . S
C1770 C1771 1.370 . S
C1770 C1774 1.524 . S
C1771 C1763 1.503 . S
C1771 C1770 1.370 . S
C1771 C1772 1.403 . S
C1772 C1771 1.403 . S
C1772 C1773 1.404 . S
C1772 C1775 1.539 . S
C1773 C1769 1.408 . S
C1773 C1772 1.404 . S
C1773 H1785 0.930 . S
C1774 C1770 1.524 . S
C1774 H1786 0.956 . S
C1774 H1787 0.961 . S
C1774 H1788 0.961 . S
C1775 C1772 1.539 . S
C1775 H1789 0.958 . S
C1775 H1790 0.961 . S
C1775 H1791 0.960 . S
H1776 C1760 0.931 . S
H1777 C1765 0.929 . S
H1778 C1766 0.960 . S
H1779 C1766 0.962 . S
H1780 C1766 0.960 . S
H1781 C1767 0.961 . S
H1782 C1767 0.961 . S
H1783 C1767 0.961 . S
H1784 C1768 0.931 . S
H1785 C1773 0.930 . S
H1786 C1774 0.956 . S
H1787 C1774 0.961 . S
H1788 C1774 0.961 . S
H1789 C1775 0.958 . S
H1790 C1775 0.961 . S
H1791 C1775 0.960 . S
C1792 C1793 1.391 . S
C1792 C1794 1.394 . S
C1792 H1808 0.931 . S
C1793 C1792 1.391 . S
C1793 C1797 1.376 . S
C1794 C1792 1.394 . S
C1794 C1795 1.369 . S
C1794 C1798 1.531 1_554 S
C1795 C1794 1.369 . S
C1795 C1796 1.410 . S
C1795 C1803 1.503 . S
C1796 C1795 1.410 . S
C1796 C1797 1.392 . S
C1796 C1799 1.511 . S
C1797 C1793 1.376 . S
C1797 C1796 1.392 . S
C1797 H1809 0.929 . S
C1798 C1794 1.531 1_556 S
C1798 H1810 0.960 . S
C1798 H1811 0.962 . S
C1798 H1812 0.960 . S
C1799 C1796 1.511 . S
C1799 H1813 0.961 . S
C1799 H1814 0.961 . S
C1799 H1815 0.961 . S
C1800 C1801 1.370 . S
C1800 C1802 1.363 . S
C1800 H1816 0.931 . S
C1801 C1800 1.370 . S
C1801 C1805 1.408 . S
C1802 C1800 1.363 . S
C1802 C1803 1.370 . S
C1802 C1806 1.524 . S
C1803 C1795 1.503 . S
C1803 C1802 1.370 . S
C1803 C1804 1.403 . S
C1804 C1803 1.403 . S
C1804 C1805 1.404 . S
C1804 C1807 1.539 . S
C1805 C1801 1.408 . S
C1805 C1804 1.404 . S
C1805 H1817 0.930 . S
C1806 C1802 1.524 . S
C1806 H1818 0.956 . S
C1806 H1819 0.961 . S
C1806 H1820 0.961 . S
C1807 C1804 1.539 . S
C1807 H1821 0.958 . S
C1807 H1822 0.961 . S
C1807 H1823 0.960 . S
H1808 C1792 0.931 . S
H1809 C1797 0.929 . S
H1810 C1798 0.960 . S
H1811 C1798 0.962 . S
H1812 C1798 0.960 . S
H1813 C1799 0.961 . S
H1814 C1799 0.961 . S
H1815 C1799 0.961 . S
H1816 C1800 0.931 . S
H1817 C1805 0.930 . S
H1818 C1806 0.956 . S
H1819 C1806 0.961 . S
H1820 C1806 0.961 . S
H1821 C1807 0.958 . S
H1822 C1807 0.961 . S
H1823 C1807 0.960 . S
C1824 C1825 1.391 . S
C1824 C1826 1.394 1_655 S
C1824 H1840 0.931 . S
C1825 C1824 1.391 . S
C1825 C1829 1.376 . S
C1826 C1824 1.394 1_455 S
C1826 C1827 1.369 . S
C1826 C1830 1.531 . S
C1827 C1826 1.369 . S
C1827 C1828 1.410 . S
C1827 C1835 1.503 . S
C1828 C1827 1.410 . S
C1828 C1829 1.392 1_455 S
C1828 C1831 1.511 . S
C1829 C1825 1.376 . S
C1829 C1828 1.392 1_655 S
C1829 H1841 0.929 . S
C1830 C1826 1.531 . S
C1830 H1842 0.960 . S
C1830 H1843 0.962 . S
C1830 H1844 0.960 1_455 S
C1831 C1828 1.511 . S
C1831 H1845 0.961 . S
C1831 H1846 0.961 . S
C1831 H1847 0.961 . S
C1832 C1833 1.370 . S
C1832 C1834 1.363 . S
C1832 H1848 0.931 . S
C1833 C1832 1.370 . S
C1833 C1837 1.408 . S
C1834 C1832 1.363 . S
C1834 C1835 1.370 . S
C1834 C1838 1.524 . S
C1835 C1827 1.503 . S
C1835 C1834 1.370 . S
C1835 C1836 1.403 . S
C1836 C1835 1.403 . S
C1836 C1837 1.404 . S
C1836 C1839 1.539 . S
C1837 C1833 1.408 . S
C1837 C1836 1.404 . S
C1837 H1849 0.930 . S
C1838 C1834 1.524 . S
C1838 H1850 0.956 . S
C1838 H1851 0.961 . S
C1838 H1852 0.961 . S
C1839 C1836 1.539 . S
C1839 H1853 0.958 . S
C1839 H1854 0.961 . S
C1839 H1855 0.960 . S
H1840 C1824 0.931 . S
H1841 C1829 0.929 . S
H1842 C1830 0.960 . S
H1843 C1830 0.962 . S
H1844 C1830 0.960 1_655 S
H1845 C1831 0.961 . S
H1846 C1831 0.961 . S
H1847 C1831 0.961 . S
H1848 C1832 0.931 . S
H1849 C1837 0.930 . S
H1850 C1838 0.956 . S
H1851 C1838 0.961 . S
H1852 C1838 0.961 . S
H1853 C1839 0.958 . S
H1854 C1839 0.961 . S
H1855 C1839 0.960 . S
C1856 C1857 1.391 . S
C1856 C1858 1.394 . S
C1856 H1872 0.931 . S
C1857 C1856 1.391 . S
C1857 C1861 1.376 . S
C1858 C1856 1.394 . S
C1858 C1859 1.369 . S
C1858 C1862 1.531 . S
C1859 C1858 1.369 . S
C1859 C1860 1.410 . S
C1859 C1867 1.503 . S
C1860 C1859 1.410 . S
C1860 C1861 1.392 . S
C1860 C1863 1.511 . S
C1861 C1857 1.376 . S
C1861 C1860 1.392 . S
C1861 H1873 0.929 . S
C1862 C1858 1.531 . S
C1862 H1874 0.960 . S
C1862 H1875 0.962 . S
C1862 H1876 0.960 . S
C1863 C1860 1.511 . S
C1863 H1877 0.961 . S
C1863 H1878 0.961 . S
C1863 H1879 0.961 . S
C1864 C1865 1.370 . S
C1864 C1866 1.363 . S
C1864 H1880 0.931 . S
C1865 C1864 1.370 . S
C1865 C1869 1.408 . S
C1866 C1864 1.363 . S
C1866 C1867 1.370 . S
C1866 C1870 1.524 . S
C1867 C1859 1.503 . S
C1867 C1866 1.370 . S
C1867 C1868 1.403 . S
C1868 C1867 1.403 . S
C1868 C1869 1.404 . S
C1868 C1871 1.539 . S
C1869 C1865 1.408 . S
C1869 C1868 1.404 . S
C1869 H1881 0.930 . S
C1870 C1866 1.524 . S
C1870 H1882 0.956 . S
C1870 H1883 0.961 . S
C1870 H1884 0.961 . S
C1871 C1868 1.539 . S
C1871 H1885 0.958 . S
C1871 H1886 0.961 . S
C1871 H1887 0.960 . S
H1872 C1856 0.931 . S
H1873 C1861 0.929 . S
H1874 C1862 0.960 . S
H1875 C1862 0.962 . S
H1876 C1862 0.960 . S
H1877 C1863 0.961 . S
H1878 C1863 0.961 . S
H1879 C1863 0.961 . S
H1880 C1864 0.931 . S
H1881 C1869 0.930 . S
H1882 C1870 0.956 . S
H1883 C1870 0.961 . S
H1884 C1870 0.961 . S
H1885 C1871 0.958 . S
H1886 C1871 0.961 . S
H1887 C1871 0.960 . S
C1888 C1889 1.391 . S
C1888 C1890 1.394 . S
C1888 H1904 0.931 . S
C1889 C1888 1.391 . S
C1889 C1893 1.376 . S
C1890 C1888 1.394 . S
C1890 C1891 1.369 1_545 S
C1890 C1894 1.531 1_545 S
C1891 C1890 1.369 1_565 S
C1891 C1892 1.410 1_565 S
C1891 C1899 1.503 . S
C1892 C1891 1.410 1_545 S
C1892 C1893 1.392 . S
C1892 C1895 1.511 1_545 S
C1893 C1889 1.376 . S
C1893 C1892 1.392 . S
C1893 H1905 0.929 . S
C1894 C1890 1.531 1_565 S
C1894 H1906 0.960 . S
C1894 H1907 0.962 . S
C1894 H1908 0.960 . S
C1895 C1892 1.511 1_565 S
C1895 H1909 0.961 1_565 S
C1895 H1910 0.961 . S
C1895 H1911 0.961 . S
C1896 C1897 1.370 . S
C1896 C1898 1.363 . S
C1896 H1912 0.931 . S
C1897 C1896 1.370 . S
C1897 C1901 1.408 . S
C1898 C1896 1.363 . S
C1898 C1899 1.370 . S
C1898 C1902 1.524 . S
C1899 C1891 1.503 . S
C1899 C1898 1.370 . S
C1899 C1900 1.403 . S
C1900 C1899 1.403 . S
C1900 C1901 1.404 . S
C1900 C1903 1.539 . S
C1901 C1897 1.408 . S
C1901 C1900 1.404 . S
C1901 H1913 0.930 . S
C1902 C1898 1.524 . S
C1902 H1914 0.956 . S
C1902 H1915 0.961 . S
C1902 H1916 0.961 . S
C1903 C1900 1.539 . S
C1903 H1917 0.958 . S
C1903 H1918 0.961 . S
C1903 H1919 0.960 . S
H1904 C1888 0.931 . S
H1905 C1893 0.929 . S
H1906 C1894 0.960 . S
H1907 C1894 0.962 . S
H1908 C1894 0.960 . S
H1909 C1895 0.961 1_545 S
H1910 C1895 0.961 . S
H1911 C1895 0.961 . S
H1912 C1896 0.931 . S
H1913 C1901 0.930 . S
H1914 C1902 0.956 . S
H1915 C1902 0.961 . S
H1916 C1902 0.961 . S
H1917 C1903 0.958 . S
H1918 C1903 0.961 . S
H1919 C1903 0.960 . S
C1920 C1921 1.391 . S
C1920 C1922 1.394 . S
C1920 H1936 0.931 . S
C1921 C1920 1.391 . S
C1921 C1925 1.376 . S
C1922 C1920 1.394 . S
C1922 C1923 1.369 . S
C1922 C1926 1.531 . S
C1923 C1922 1.369 . S
C1923 C1924 1.410 . S
C1923 C1931 1.503 . S
C1924 C1923 1.410 . S
C1924 C1925 1.392 . S
C1924 C1927 1.511 . S
C1925 C1921 1.376 . S
C1925 C1924 1.392 . S
C1925 H1937 0.929 . S
C1926 C1922 1.531 . S
C1926 H1938 0.960 . S
C1926 H1939 0.962 . S
C1926 H1940 0.960 . S
C1927 C1924 1.511 . S
C1927 H1941 0.961 . S
C1927 H1942 0.961 . S
C1927 H1943 0.961 . S
C1928 C1929 1.370 . S
C1928 C1930 1.363 . S
C1928 H1944 0.931 . S
C1929 C1928 1.370 . S
C1929 C1933 1.408 . S
C1930 C1928 1.363 . S
C1930 C1931 1.370 . S
C1930 C1934 1.524 . S
C1931 C1923 1.503 . S
C1931 C1930 1.370 . S
C1931 C1932 1.403 . S
C1932 C1931 1.403 . S
C1932 C1933 1.404 . S
C1932 C1935 1.539 . S
C1933 C1929 1.408 . S
C1933 C1932 1.404 . S
C1933 H1945 0.930 . S
C1934 C1930 1.524 . S
C1934 H1946 0.956 . S
C1934 H1947 0.961 . S
C1934 H1948 0.961 . S
C1935 C1932 1.539 . S
C1935 H1949 0.958 . S
C1935 H1950 0.961 . S
C1935 H1951 0.960 . S
H1936 C1920 0.931 . S
H1937 C1925 0.929 . S
H1938 C1926 0.960 . S
H1939 C1926 0.962 . S
H1940 C1926 0.960 . S
H1941 C1927 0.961 . S
H1942 C1927 0.961 . S
H1943 C1927 0.961 . S
H1944 C1928 0.931 . S
H1945 C1933 0.930 . S
H1946 C1934 0.956 . S
H1947 C1934 0.961 . S
H1948 C1934 0.961 . S
H1949 C1935 0.958 . S
H1950 C1935 0.961 . S
H1951 C1935 0.960 . S
C1952 C1953 1.391 . S
C1952 C1954 1.394 . S
C1952 H1968 0.931 . S
C1953 C1952 1.391 . S
C1953 C1957 1.376 . S
C1954 C1952 1.394 . S
C1954 C1955 1.369 . S
C1954 C1958 1.531 . S
C1955 C1954 1.369 . S
C1955 C1956 1.410 . S
C1955 C1963 1.503 . S
C1956 C1955 1.410 . S
C1956 C1957 1.392 . S
C1956 C1959 1.511 . S
C1957 C1953 1.376 . S
C1957 C1956 1.392 . S
C1957 H1969 0.929 . S
C1958 C1954 1.531 . S
C1958 H1970 0.960 . S
C1958 H1971 0.962 . S
C1958 H1972 0.960 . S
C1959 C1956 1.511 . S
C1959 H1973 0.961 . S
C1959 H1974 0.961 . S
C1959 H1975 0.961 . S
C1960 C1961 1.370 . S
C1960 C1962 1.363 . S
C1960 H1976 0.931 . S
C1961 C1960 1.370 . S
C1961 C1965 1.408 . S
C1962 C1960 1.363 . S
C1962 C1963 1.370 . S
C1962 C1966 1.524 . S
C1963 C1955 1.503 . S
C1963 C1962 1.370 . S
C1963 C1964 1.403 . S
C1964 C1963 1.403 . S
C1964 C1965 1.404 . S
C1964 C1967 1.539 . S
C1965 C1961 1.408 . S
C1965 C1964 1.404 . S
C1965 H1977 0.930 . S
C1966 C1962 1.524 . S
C1966 H1978 0.956 . S
C1966 H1979 0.961 . S
C1966 H1980 0.961 . S
C1967 C1964 1.539 . S
C1967 H1981 0.958 . S
C1967 H1982 0.961 . S
C1967 H1983 0.960 . S
H1968 C1952 0.931 . S
H1969 C1957 0.929 . S
H1970 C1958 0.960 . S
H1971 C1958 0.962 . S
H1972 C1958 0.960 . S
H1973 C1959 0.961 . S
H1974 C1959 0.961 . S
H1975 C1959 0.961 . S
H1976 C1960 0.931 . S
H1977 C1965 0.930 . S
H1978 C1966 0.956 . S
H1979 C1966 0.961 . S
H1980 C1966 0.961 . S
H1981 C1967 0.958 . S
H1982 C1967 0.961 . S
H1983 C1967 0.960 . S
C1984 C1985 1.391 . S
C1984 C1986 1.394 . S
C1984 H2000 0.931 . S
C1985 C1984 1.391 . S
C1985 C1989 1.376 . S
C1986 C1984 1.394 . S
C1986 C1987 1.369 . S
C1986 C1990 1.531 . S
C1987 C1986 1.369 . S
C1987 C1988 1.410 . S
C1987 C1995 1.503 . S
C1988 C1987 1.410 . S
C1988 C1989 1.392 . S
C1988 C1991 1.511 . S
C1989 C1985 1.376 . S
C1989 C1988 1.392 . S
C1989 H2001 0.929 . S
C1990 C1986 1.531 . S
C1990 H2002 0.960 . S
C1990 H2003 0.962 . S
C1990 H2004 0.960 . S
C1991 C1988 1.511 . S
C1991 H2005 0.961 . S
C1991 H2006 0.961 . S
C1991 H2007 0.961 . S
C1992 C1993 1.370 . S
C1992 C1994 1.363 . S
C1992 H2008 0.931 . S
C1993 C1992 1.370 . S
C1993 C1997 1.408 . S
C1994 C1992 1.363 . S
C1994 C1995 1.370 . S
C1994 C1998 1.524 . S
C1995 C1987 1.503 . S
C1995 C1994 1.370 . S
C1995 C1996 1.403 . S
C1996 C1995 1.403 . S
C1996 C1997 1.404 . S
C1996 C1999 1.539 . S
C1997 C1993 1.408 . S
C1997 C1996 1.404 . S
C1997 H2009 0.930 . S
C1998 C1994 1.524 . S
C1998 H2010 0.956 . S
C1998 H2011 0.961 . S
C1998 H2012 0.961 . S
C1999 C1996 1.539 . S
C1999 H2013 0.958 . S
C1999 H2014 0.961 . S
C1999 H2015 0.960 . S
H2000 C1984 0.931 . S
H2001 C1989 0.929 . S
H2002 C1990 0.960 . S
H2003 C1990 0.962 . S
H2004 C1990 0.960 . S
H2005 C1991 0.961 . S
H2006 C1991 0.961 . S
H2007 C1991 0.961 . S
H2008 C1992 0.931 . S
H2009 C1997 0.930 . S
H2010 C1998 0.956 . S
H2011 C1998 0.961 . S
H2012 C1998 0.961 . S
H2013 C1999 0.958 . S
H2014 C1999 0.961 . S
H2015 C1999 0.960 . S
C2016 C2017 1.391 . S
C2016 C2018 1.394 . S
C2016 H2032 0.931 . S
C2017 C2016 1.391 . S
C2017 C2021 1.376 . S
C2018 C2016 1.394 . S
C2018 C2019 1.369 . S
C2018 C2022 1.531 . S
C2019 C2018 1.369 . S
C2019 C2020 1.410 . S
C2019 C2027 1.503 . S
C2020 C2019 1.410 . S
C2020 C2021 1.392 . S
C2020 C2023 1.511 . S
C2021 C2017 1.376 . S
C2021 C2020 1.392 . S
C2021 H2033 0.929 . S
C2022 C2018 1.531 . S
C2022 H2034 0.960 . S
C2022 H2035 0.962 . S
C2022 H2036 0.960 . S
C2023 C2020 1.511 . S
C2023 H2037 0.961 . S
C2023 H2038 0.961 . S
C2023 H2039 0.961 . S
C2024 C2025 1.370 . S
C2024 C2026 1.363 . S
C2024 H2040 0.931 . S
C2025 C2024 1.370 . S
C2025 C2029 1.408 . S
C2026 C2024 1.363 . S
C2026 C2027 1.370 . S
C2026 C2030 1.524 . S
C2027 C2019 1.503 . S
C2027 C2026 1.370 . S
C2027 C2028 1.403 . S
C2028 C2027 1.403 . S
C2028 C2029 1.404 . S
C2028 C2031 1.539 . S
C2029 C2025 1.408 . S
C2029 C2028 1.404 . S
C2029 H2041 0.930 . S
C2030 C2026 1.524 . S
C2030 H2042 0.956 . S
C2030 H2043 0.961 . S
C2030 H2044 0.961 . S
C2031 C2028 1.539 . S
C2031 H2045 0.958 . S
C2031 H2046 0.961 . S
C2031 H2047 0.960 . S
H2032 C2016 0.931 . S
H2033 C2021 0.929 . S
H2034 C2022 0.960 . S
H2035 C2022 0.962 . S
H2036 C2022 0.960 . S
H2037 C2023 0.961 . S
H2038 C2023 0.961 . S
H2039 C2023 0.961 . S
H2040 C2024 0.931 . S
H2041 C2029 0.930 . S
H2042 C2030 0.956 . S
H2043 C2030 0.961 . S
H2044 C2030 0.961 . S
H2045 C2031 0.958 . S
H2046 C2031 0.961 . S
H2047 C2031 0.960 . S
C2048 C2049 1.391 . S
C2048 C2050 1.394 . S
C2048 H2064 0.931 . S
C2049 C2048 1.391 . S
C2049 C2053 1.376 . S
C2050 C2048 1.394 . S
C2050 C2051 1.369 . S
C2050 C2054 1.531 . S
C2051 C2050 1.369 . S
C2051 C2052 1.410 . S
C2051 C2059 1.503 . S
C2052 C2051 1.410 . S
C2052 C2053 1.392 . S
C2052 C2055 1.511 . S
C2053 C2049 1.376 . S
C2053 C2052 1.392 . S
C2053 H2065 0.929 . S
C2054 C2050 1.531 . S
C2054 H2066 0.960 . S
C2054 H2067 0.962 . S
C2054 H2068 0.960 . S
C2055 C2052 1.511 . S
C2055 H2069 0.961 . S
C2055 H2070 0.961 . S
C2055 H2071 0.961 . S
C2056 C2057 1.370 . S
C2056 C2058 1.363 . S
C2056 H2072 0.931 . S
C2057 C2056 1.370 . S
C2057 C2061 1.408 . S
C2058 C2056 1.363 . S
C2058 C2059 1.370 . S
C2058 C2062 1.524 . S
C2059 C2051 1.503 . S
C2059 C2058 1.370 . S
C2059 C2060 1.403 . S
C2060 C2059 1.403 . S
C2060 C2061 1.404 . S
C2060 C2063 1.539 . S
C2061 C2057 1.408 . S
C2061 C2060 1.404 . S
C2061 H2073 0.930 . S
C2062 C2058 1.524 . S
C2062 H2074 0.956 . S
C2062 H2075 0.961 . S
C2062 H2076 0.961 . S
C2063 C2060 1.539 . S
C2063 H2077 0.958 . S
C2063 H2078 0.961 . S
C2063 H2079 0.960 . S
H2064 C2048 0.931 . S
H2065 C2053 0.929 . S
H2066 C2054 0.960 . S
H2067 C2054 0.962 . S
H2068 C2054 0.960 . S
H2069 C2055 0.961 . S
H2070 C2055 0.961 . S
H2071 C2055 0.961 . S
H2072 C2056 0.931 . S
H2073 C2061 0.930 . S
H2074 C2062 0.956 . S
H2075 C2062 0.961 . S
H2076 C2062 0.961 . S
H2077 C2063 0.958 . S
H2078 C2063 0.961 . S
H2079 C2063 0.960 . S
C2080 C2081 1.391 . S
C2080 C2082 1.394 . S
C2080 H2096 0.931 . S
C2081 C2080 1.391 . S
C2081 C2085 1.376 . S
C2082 C2080 1.394 . S
C2082 C2083 1.369 . S
C2082 C2086 1.531 . S
C2083 C2082 1.369 . S
C2083 C2084 1.410 . S
C2083 C2091 1.503 . S
C2084 C2083 1.410 . S
C2084 C2085 1.392 . S
C2084 C2087 1.511 . S
C2085 C2081 1.376 . S
C2085 C2084 1.392 . S
C2085 H2097 0.929 . S
C2086 C2082 1.531 . S
C2086 H2098 0.960 . S
C2086 H2099 0.962 . S
C2086 H2100 0.960 . S
C2087 C2084 1.511 . S
C2087 H2101 0.961 . S
C2087 H2102 0.961 . S
C2087 H2103 0.961 . S
C2088 C2089 1.370 . S
C2088 C2090 1.363 . S
C2088 H2104 0.931 . S
C2089 C2088 1.370 . S
C2089 C2093 1.408 . S
C2090 C2088 1.363 . S
C2090 C2091 1.370 . S
C2090 C2094 1.524 . S
C2091 C2083 1.503 . S
C2091 C2090 1.370 . S
C2091 C2092 1.403 . S
C2092 C2091 1.403 . S
C2092 C2093 1.404 . S
C2092 C2095 1.539 . S
C2093 C2089 1.408 . S
C2093 C2092 1.404 . S
C2093 H2105 0.930 . S
C2094 C2090 1.524 . S
C2094 H2106 0.956 . S
C2094 H2107 0.961 . S
C2094 H2108 0.961 . S
C2095 C2092 1.539 . S
C2095 H2109 0.958 . S
C2095 H2110 0.961 . S
C2095 H2111 0.960 . S
H2096 C2080 0.931 . S
H2097 C2085 0.929 . S
H2098 C2086 0.960 . S
H2099 C2086 0.962 . S
H2100 C2086 0.960 . S
H2101 C2087 0.961 . S
H2102 C2087 0.961 . S
H2103 C2087 0.961 . S
H2104 C2088 0.931 . S
H2105 C2093 0.930 . S
H2106 C2094 0.956 . S
H2107 C2094 0.961 . S
H2108 C2094 0.961 . S
H2109 C2095 0.958 . S
H2110 C2095 0.961 . S
H2111 C2095 0.960 . S
C2112 C2113 1.391 . S
C2112 C2114 1.394 1_545 S
C2112 H2128 0.931 . S
C2113 C2112 1.391 . S
C2113 C2117 1.376 . S
C2114 C2112 1.394 1_565 S
C2114 C2115 1.369 . S
C2114 C2118 1.531 . S
C2115 C2114 1.369 . S
C2115 C2116 1.391 1_565 S
C2115 C2123 1.503 . S
C2116 C2115 1.391 1_545 S
C2116 C2117 1.410 . S
C2116 C2119 1.513 1_545 S
C2117 C2113 1.376 . S
C2117 C2116 1.410 . S
C2117 H2129 0.929 . S
C2118 C2114 1.531 . S
C2118 H2130 0.960 . S
C2118 H2131 0.962 . S
C2118 H2132 0.960 . S
C2119 C2116 1.513 1_565 S
C2119 H2133 0.921 1_565 S
C2119 H2134 0.961 . S
C2119 H2135 0.961 . S
C2120 C2121 1.370 . S
C2120 C2122 1.363 . S
C2120 H2136 0.931 . S
C2121 C2120 1.370 . S
C2121 C2125 1.408 . S
C2122 C2120 1.363 . S
C2122 C2123 1.370 . S
C2122 C2126 1.524 . S
C2123 C2115 1.503 . S
C2123 C2122 1.370 . S
C2123 C2124 1.403 . S
C2124 C2123 1.403 . S
C2124 C2125 1.404 . S
C2124 C2127 1.539 . S
C2125 C2121 1.408 . S
C2125 C2124 1.404 . S
C2125 H2137 0.930 . S
C2126 C2122 1.524 . S
C2126 H2138 0.956 . S
C2126 H2139 0.961 . S
C2126 H2140 0.961 . S
C2127 C2124 1.539 . S
C2127 H2141 0.958 . S
C2127 H2142 0.961 . S
C2127 H2143 0.960 . S
H2128 C2112 0.931 . S
H2129 C2117 0.929 . S
H2130 C2118 0.960 . S
H2131 C2118 0.962 . S
H2132 C2118 0.960 . S
H2133 C2119 0.921 1_545 S
H2134 C2119 0.961 . S
H2135 C2119 0.961 . S
H2136 C2120 0.931 . S
H2137 C2125 0.930 . S
H2138 C2126 0.956 . S
H2139 C2126 0.961 . S
H2140 C2126 0.961 . S
H2141 C2127 0.958 . S
H2142 C2127 0.961 . S
H2143 C2127 0.960 . S
C2144 C2145 1.391 . S
C2144 C2146 1.394 1_655 S
C2144 H2160 0.931 . S
C2145 C2144 1.391 . S
C2145 C2149 1.376 1_655 S
C2146 C2144 1.394 1_455 S
C2146 C2147 1.369 . S
C2146 C2150 1.531 . S
C2147 C2146 1.369 . S
C2147 C2148 1.410 . S
C2147 C2155 1.503 . S
C2148 C2147 1.410 . S
C2148 C2149 1.392 . S
C2148 C2151 1.511 . S
C2149 C2145 1.376 1_455 S
C2149 C2148 1.392 . S
C2149 H2161 0.929 . S
C2150 C2146 1.531 . S
C2150 H2162 0.960 . S
C2150 H2163 0.962 . S
C2150 H2164 0.993 . S
C2151 C2148 1.511 . S
C2151 H2165 0.961 . S
C2151 H2166 0.961 . S
C2151 H2167 0.961 . S
C2152 C2153 1.370 . S
C2152 C2154 1.363 . S
C2152 H2168 0.931 . S
C2153 C2152 1.370 . S
C2153 C2157 1.408 . S
C2154 C2152 1.363 . S
C2154 C2155 1.370 . S
C2154 C2158 1.524 . S
C2155 C2147 1.503 . S
C2155 C2154 1.370 . S
C2155 C2156 1.403 . S
C2156 C2155 1.403 . S
C2156 C2157 1.404 . S
C2156 C2159 1.539 . S
C2157 C2153 1.408 . S
C2157 C2156 1.404 . S
C2157 H2169 0.930 . S
C2158 C2154 1.524 . S
C2158 H2170 0.956 . S
C2158 H2171 0.961 . S
C2158 H2172 0.961 . S
C2159 C2156 1.539 . S
C2159 H2173 0.958 . S
C2159 H2174 0.961 . S
C2159 H2175 0.960 . S
H2160 C2144 0.931 . S
H2161 C2149 0.929 . S
H2162 C2150 0.960 . S
H2163 C2150 0.962 . S
H2164 C2150 0.993 . S
H2165 C2151 0.961 . S
H2166 C2151 0.961 . S
H2167 C2151 0.961 . S
H2168 C2152 0.931 . S
H2169 C2157 0.930 . S
H2170 C2158 0.956 . S
H2171 C2158 0.961 . S
H2172 C2158 0.961 . S
H2173 C2159 0.958 . S
H2174 C2159 0.961 . S
H2175 C2159 0.960 . S
C2176 C2177 1.391 . S
C2176 C2178 1.394 . S
C2176 H2192 0.931 . S
C2177 C2176 1.391 . S
C2177 C2181 1.376 . S
C2178 C2176 1.394 . S
C2178 C2179 1.369 . S
C2178 C2182 1.531 . S
C2179 C2178 1.369 . S
C2179 C2180 1.410 . S
C2179 C2187 1.503 . S
C2180 C2179 1.410 . S
C2180 C2181 1.392 . S
C2180 C2183 1.511 . S
C2181 C2177 1.376 . S
C2181 C2180 1.392 . S
C2181 H2193 0.929 . S
C2182 C2178 1.531 . S
C2182 H2194 0.960 . S
C2182 H2195 0.962 . S
C2182 H2196 0.960 . S
C2183 C2180 1.511 . S
C2183 H2197 0.961 . S
C2183 H2198 0.961 . S
C2183 H2199 0.961 . S
C2184 C2185 1.370 . S
C2184 C2186 1.363 . S
C2184 H2200 0.931 . S
C2185 C2184 1.370 . S
C2185 C2189 1.408 . S
C2186 C2184 1.363 . S
C2186 C2187 1.370 . S
C2186 C2190 1.524 . S
C2187 C2179 1.503 . S
C2187 C2186 1.370 . S
C2187 C2188 1.403 . S
C2188 C2187 1.403 . S
C2188 C2189 1.404 . S
C2188 C2191 1.539 . S
C2189 C2185 1.408 . S
C2189 C2188 1.404 . S
C2189 H2201 0.930 . S
C2190 C2186 1.524 . S
C2190 H2202 0.956 . S
C2190 H2203 0.961 . S
C2190 H2204 0.961 . S
C2191 C2188 1.539 . S
C2191 H2205 0.958 . S
C2191 H2206 0.961 . S
C2191 H2207 0.960 . S
H2192 C2176 0.931 . S
H2193 C2181 0.929 . S
H2194 C2182 0.960 . S
H2195 C2182 0.962 . S
H2196 C2182 0.960 . S
H2197 C2183 0.961 . S
H2198 C2183 0.961 . S
H2199 C2183 0.961 . S
H2200 C2184 0.931 . S
H2201 C2189 0.930 . S
H2202 C2190 0.956 . S
H2203 C2190 0.961 . S
H2204 C2190 0.961 . S
H2205 C2191 0.958 . S
H2206 C2191 0.961 . S
H2207 C2191 0.960 . S
C2208 C2209 1.391 . S
C2208 C2210 1.394 . S
C2208 H2224 0.931 . S
C2209 C2208 1.391 . S
C2209 C2213 1.376 . S
C2210 C2208 1.394 . S
C2210 C2211 1.369 . S
C2210 C2214 1.531 . S
C2211 C2210 1.369 . S
C2211 C2212 1.410 . S
C2211 C2219 1.503 . S
C2212 C2211 1.410 . S
C2212 C2213 1.392 . S
C2212 C2215 1.511 . S
C2213 C2209 1.376 . S
C2213 C2212 1.392 . S
C2213 H2225 0.929 . S
C2214 C2210 1.531 . S
C2214 H2226 0.960 . S
C2214 H2227 0.962 . S
C2214 H2228 0.960 . S
C2215 C2212 1.511 . S
C2215 H2229 0.961 . S
C2215 H2230 0.961 . S
C2215 H2231 0.961 . S
C2216 C2217 1.370 . S
C2216 C2218 1.363 . S
C2216 H2232 0.931 . S
C2217 C2216 1.370 . S
C2217 C2221 1.408 . S
C2218 C2216 1.363 . S
C2218 C2219 1.370 . S
C2218 C2222 1.524 . S
C2219 C2211 1.503 . S
C2219 C2218 1.370 . S
C2219 C2220 1.403 . S
C2220 C2219 1.403 . S
C2220 C2221 1.404 . S
C2220 C2223 1.539 . S
C2221 C2217 1.408 . S
C2221 C2220 1.404 . S
C2221 H2233 0.930 . S
C2222 C2218 1.524 . S
C2222 H2234 0.956 . S
C2222 H2235 0.961 . S
C2222 H2236 0.961 . S
C2223 C2220 1.539 . S
C2223 H2237 0.958 . S
C2223 H2238 0.961 . S
C2223 H2239 0.960 . S
H2224 C2208 0.931 . S
H2225 C2213 0.929 . S
H2226 C2214 0.960 . S
H2227 C2214 0.962 . S
H2228 C2214 0.960 . S
H2229 C2215 0.961 . S
H2230 C2215 0.961 . S
H2231 C2215 0.961 . S
H2232 C2216 0.931 . S
H2233 C2221 0.930 . S
H2234 C2222 0.956 . S
H2235 C2222 0.961 . S
H2236 C2222 0.961 . S
H2237 C2223 0.958 . S
H2238 C2223 0.961 . S
H2239 C2223 0.960 . S
C2240 C2241 1.391 . S
C2240 C2242 1.394 . S
C2240 H2256 0.931 . S
C2241 C2240 1.391 . S
C2241 C2245 1.376 . S
C2242 C2240 1.394 . S
C2242 C2243 1.369 . S
C2242 C2246 1.531 . S
C2243 C2242 1.369 . S
C2243 C2244 1.410 . S
C2243 C2251 1.503 . S
C2244 C2243 1.410 . S
C2244 C2245 1.392 . S
C2244 C2247 1.511 . S
C2245 C2241 1.376 . S
C2245 C2244 1.392 . S
C2245 H2257 0.929 . S
C2246 C2242 1.531 . S
C2246 H2258 0.960 . S
C2246 H2259 0.962 . S
C2246 H2260 0.960 . S
C2247 C2244 1.511 . S
C2247 H2261 0.961 . S
C2247 H2262 0.961 . S
C2247 H2263 0.961 . S
C2248 C2249 1.370 . S
C2248 C2250 1.363 . S
C2248 H2264 0.931 . S
C2249 C2248 1.370 . S
C2249 C2253 1.408 . S
C2250 C2248 1.363 . S
C2250 C2251 1.370 . S
C2250 C2254 1.524 . S
C2251 C2243 1.503 . S
C2251 C2250 1.370 . S
C2251 C2252 1.403 . S
C2252 C2251 1.403 . S
C2252 C2253 1.404 . S
C2252 C2255 1.539 . S
C2253 C2249 1.408 . S
C2253 C2252 1.404 . S
C2253 H2265 0.930 . S
C2254 C2250 1.524 . S
C2254 H2266 0.956 . S
C2254 H2267 0.961 . S
C2254 H2268 0.961 . S
C2255 C2252 1.539 . S
C2255 H2269 0.958 . S
C2255 H2270 0.961 . S
C2255 H2271 0.960 . S
H2256 C2240 0.931 . S
H2257 C2245 0.929 . S
H2258 C2246 0.960 . S
H2259 C2246 0.962 . S
H2260 C2246 0.960 . S
H2261 C2247 0.961 . S
H2262 C2247 0.961 . S
H2263 C2247 0.961 . S
H2264 C2248 0.931 . S
H2265 C2253 0.930 . S
H2266 C2254 0.956 . S
H2267 C2254 0.961 . S
H2268 C2254 0.961 . S
H2269 C2255 0.958 . S
H2270 C2255 0.961 . S
H2271 C2255 0.960 . S
C2272 C2273 1.391 . S
C2272 C2274 1.394 . S
C2272 H2288 0.931 . S
C2273 C2272 1.391 . S
C2273 C2277 1.376 . S
C2274 C2272 1.394 . S
C2274 C2275 1.369 . S
C2274 C2278 1.531 . S
C2275 C2274 1.369 . S
C2275 C2276 1.410 . S
C2275 C2283 1.503 . S
C2276 C2275 1.410 . S
C2276 C2277 1.392 . S
C2276 C2279 1.511 . S
C2277 C2273 1.376 . S
C2277 C2276 1.392 . S
C2277 H2289 0.929 . S
C2278 C2274 1.531 . S
C2278 H2290 0.960 . S
C2278 H2291 0.962 . S
C2278 H2292 0.960 . S
C2279 C2276 1.511 . S
C2279 H2293 0.961 . S
C2279 H2294 0.961 . S
C2279 H2295 0.961 . S
C2280 C2281 1.370 . S
C2280 C2282 1.363 . S
C2280 H2296 0.931 . S
C2281 C2280 1.370 . S
C2281 C2285 1.408 . S
C2282 C2280 1.363 . S
C2282 C2283 1.370 . S
C2282 C2286 1.524 . S
C2283 C2275 1.503 . S
C2283 C2282 1.370 . S
C2283 C2284 1.403 . S
C2284 C2283 1.403 . S
C2284 C2285 1.404 . S
C2284 C2287 1.539 . S
C2285 C2281 1.408 . S
C2285 C2284 1.404 . S
C2285 H2297 0.930 . S
C2286 C2282 1.524 . S
C2286 H2298 0.956 . S
C2286 H2299 0.961 . S
C2286 H2300 0.961 . S
C2287 C2284 1.539 . S
C2287 H2301 0.958 . S
C2287 H2302 0.961 . S
C2287 H2303 0.960 . S
H2288 C2272 0.931 . S
H2289 C2277 0.929 . S
H2290 C2278 0.960 . S
H2291 C2278 0.962 . S
H2292 C2278 0.960 . S
H2293 C2279 0.961 . S
H2294 C2279 0.961 . S
H2295 C2279 0.961 . S
H2296 C2280 0.931 . S
H2297 C2285 0.930 . S
H2298 C2286 0.956 . S
H2299 C2286 0.961 . S
H2300 C2286 0.961 . S
H2301 C2287 0.958 . S
H2302 C2287 0.961 . S
H2303 C2287 0.960 . S
C2304 C2305 1.391 . S
C2304 C2306 1.394 1_565 S
C2304 H2320 0.931 . S
C2305 C2304 1.391 . S
C2305 C2309 1.376 . S
C2306 C2304 1.394 1_545 S
C2306 C2307 1.369 . S
C2306 C2310 1.531 . S
C2307 C2306 1.369 . S
C2307 C2308 1.409 . S
C2307 C2315 1.503 . S
C2308 C2307 1.409 . S
C2308 C2309 1.394 1_545 S
C2308 C2311 1.510 . S
C2309 C2305 1.376 . S
C2309 C2308 1.394 1_565 S
C2309 H2321 0.929 . S
C2310 C2306 1.531 . S
C2310 H2322 0.960 . S
C2310 H2323 0.962 . S
C2310 H2324 0.960 . S
C2311 C2308 1.510 . S
C2311 H2325 0.959 . S
C2311 H2326 0.961 . S
C2311 H2327 0.961 . S
C2312 C2313 1.370 . S
C2312 C2314 1.363 . S
C2312 H2328 0.931 . S
C2313 C2312 1.370 . S
C2313 C2317 1.408 . S
C2314 C2312 1.363 . S
C2314 C2315 1.370 . S
C2314 C2318 1.524 . S
C2315 C2307 1.503 . S
C2315 C2314 1.370 . S
C2315 C2316 1.403 . S
C2316 C2315 1.403 . S
C2316 C2317 1.404 . S
C2316 C2319 1.539 . S
C2317 C2313 1.408 . S
C2317 C2316 1.404 . S
C2317 H2329 0.930 . S
C2318 C2314 1.524 . S
C2318 H2330 0.956 . S
C2318 H2331 0.961 . S
C2318 H2332 0.961 . S
C2319 C2316 1.539 . S
C2319 H2333 0.958 . S
C2319 H2334 0.961 . S
C2319 H2335 0.960 . S
H2320 C2304 0.931 . S
H2321 C2309 0.929 . S
H2322 C2310 0.960 . S
H2323 C2310 0.962 . S
H2324 C2310 0.960 . S
H2325 C2311 0.959 . S
H2326 C2311 0.961 . S
H2327 C2311 0.961 . S
H2328 C2312 0.931 . S
H2329 C2317 0.930 . S
H2330 C2318 0.956 . S
H2331 C2318 0.961 . S
H2332 C2318 0.961 . S
H2333 C2319 0.958 . S
H2334 C2319 0.961 . S
H2335 C2319 0.960 . S
C2336 C2337 1.391 1_655 S
C2336 C2338 1.394 . S
C2336 H2352 0.931 . S
C2337 C2336 1.391 1_455 S
C2337 C2341 1.376 . S
C2338 C2336 1.394 . S
C2338 C2339 1.369 . S
C2338 C2342 1.531 . S
C2339 C2338 1.369 . S
C2339 C2340 1.410 . S
C2339 C2347 1.503 . S
C2340 C2339 1.410 . S
C2340 C2341 1.392 1_655 S
C2340 C2343 1.511 . S
C2341 C2337 1.376 . S
C2341 C2340 1.392 1_455 S
C2341 H2353 0.929 . S
C2342 C2338 1.531 . S
C2342 H2354 0.960 . S
C2342 H2355 0.962 . S
C2342 H2356 0.960 . S
C2343 C2340 1.511 . S
C2343 H2357 0.968 . S
C2343 H2358 0.961 . S
C2343 H2359 0.961 . S
C2344 C2345 1.370 . S
C2344 C2346 1.363 . S
C2344 H2360 0.931 . S
C2345 C2344 1.370 . S
C2345 C2349 1.408 . S
C2346 C2344 1.363 . S
C2346 C2347 1.370 . S
C2346 C2350 1.524 . S
C2347 C2339 1.503 . S
C2347 C2346 1.370 . S
C2347 C2348 1.403 . S
C2348 C2347 1.403 . S
C2348 C2349 1.404 . S
C2348 C2351 1.539 . S
C2349 C2345 1.408 . S
C2349 C2348 1.404 . S
C2349 H2361 0.930 . S
C2350 C2346 1.524 . S
C2350 H2362 0.956 . S
C2350 H2363 0.961 . S
C2350 H2364 0.961 . S
C2351 C2348 1.539 . S
C2351 H2365 0.958 . S
C2351 H2366 0.961 . S
C2351 H2367 0.960 . S
H2352 C2336 0.931 . S
H2353 C2341 0.929 . S
H2354 C2342 0.960 . S
H2355 C2342 0.962 . S
H2356 C2342 0.960 . S
H2357 C2343 0.968 . S
H2358 C2343 0.961 . S
H2359 C2343 0.961 . S
H2360 C2344 0.931 . S
H2361 C2349 0.930 . S
H2362 C2350 0.956 . S
H2363 C2350 0.961 . S
H2364 C2350 0.961 . S
H2365 C2351 0.958 . S
H2366 C2351 0.961 . S
H2367 C2351 0.960 . S
C2368 C2369 1.391 . S
C2368 C2370 1.394 . S
C2368 H2384 0.931 . S
C2369 C2368 1.391 . S
C2369 C2373 1.376 . S
C2370 C2368 1.394 . S
C2370 C2371 1.369 . S
C2370 C2374 1.531 . S
C2371 C2370 1.369 . S
C2371 C2372 1.410 . S
C2371 C2379 1.503 . S
C2372 C2371 1.410 . S
C2372 C2373 1.392 . S
C2372 C2375 1.511 . S
C2373 C2369 1.376 . S
C2373 C2372 1.392 . S
C2373 H2385 0.929 . S
C2374 C2370 1.531 . S
C2374 H2386 0.960 . S
C2374 H2387 0.962 . S
C2374 H2388 0.960 . S
C2375 C2372 1.511 . S
C2375 H2389 0.961 . S
C2375 H2390 0.961 . S
C2375 H2391 0.961 . S
C2376 C2377 1.370 . S
C2376 C2378 1.363 . S
C2376 H2392 0.931 . S
C2377 C2376 1.370 . S
C2377 C2381 1.408 . S
C2378 C2376 1.363 . S
C2378 C2379 1.370 . S
C2378 C2382 1.524 . S
C2379 C2371 1.503 . S
C2379 C2378 1.370 . S
C2379 C2380 1.403 . S
C2380 C2379 1.403 . S
C2380 C2381 1.404 . S
C2380 C2383 1.539 . S
C2381 C2377 1.408 . S
C2381 C2380 1.404 . S
C2381 H2393 0.930 . S
C2382 C2378 1.524 . S
C2382 H2394 0.956 . S
C2382 H2395 0.961 . S
C2382 H2396 0.961 . S
C2383 C2380 1.539 . S
C2383 H2397 0.958 . S
C2383 H2398 0.961 . S
C2383 H2399 0.960 . S
H2384 C2368 0.931 . S
H2385 C2373 0.929 . S
H2386 C2374 0.960 . S
H2387 C2374 0.962 . S
H2388 C2374 0.960 . S
H2389 C2375 0.961 . S
H2390 C2375 0.961 . S
H2391 C2375 0.961 . S
H2392 C2376 0.931 . S
H2393 C2381 0.930 . S
H2394 C2382 0.956 . S
H2395 C2382 0.961 . S
H2396 C2382 0.961 . S
H2397 C2383 0.958 . S
H2398 C2383 0.961 . S
H2399 C2383 0.960 . S
C2400 C2401 1.391 . S
C2400 C2402 1.394 1_455 S
C2400 H2416 0.931 . S
C2401 C2400 1.391 . S
C2401 C2405 1.376 . S
C2402 C2400 1.394 1_655 S
C2402 C2403 1.369 . S
C2402 C2406 1.531 . S
C2403 C2402 1.369 . S
C2403 C2404 1.410 . S
C2403 C2411 1.503 . S
C2404 C2403 1.410 . S
C2404 C2405 1.392 1_655 S
C2404 C2407 1.511 . S
C2405 C2401 1.376 . S
C2405 C2404 1.392 1_455 S
C2405 H2417 0.929 . S
C2406 C2402 1.531 . S
C2406 H2418 0.960 . S
C2406 H2419 0.962 . S
C2406 H2420 0.960 . S
C2407 C2404 1.511 . S
C2407 H2421 0.961 1_655 S
C2407 H2422 0.961 . S
C2407 H2423 0.961 . S
C2408 C2409 1.370 . S
C2408 C2410 1.363 . S
C2408 H2424 0.931 . S
C2409 C2408 1.370 . S
C2409 C2413 1.408 . S
C2410 C2408 1.363 . S
C2410 C2411 1.370 . S
C2410 C2414 1.524 . S
C2411 C2403 1.503 . S
C2411 C2410 1.370 . S
C2411 C2412 1.403 . S
C2412 C2411 1.403 . S
C2412 C2413 1.404 . S
C2412 C2415 1.539 . S
C2413 C2409 1.408 . S
C2413 C2412 1.404 . S
C2413 H2425 0.930 . S
C2414 C2410 1.524 . S
C2414 H2426 0.956 . S
C2414 H2427 0.961 . S
C2414 H2428 0.961 . S
C2415 C2412 1.539 . S
C2415 H2429 0.958 . S
C2415 H2430 0.961 . S
C2415 H2431 0.960 . S
H2416 C2400 0.931 . S
H2417 C2405 0.929 . S
H2418 C2406 0.960 . S
H2419 C2406 0.962 . S
H2420 C2406 0.960 . S
H2421 C2407 0.961 1_455 S
H2422 C2407 0.961 . S
H2423 C2407 0.961 . S
H2424 C2408 0.931 . S
H2425 C2413 0.930 . S
H2426 C2414 0.956 . S
H2427 C2414 0.961 . S
H2428 C2414 0.961 . S
H2429 C2415 0.958 . S
H2430 C2415 0.961 . S
H2431 C2415 0.960 . S
C2432 C2433 1.391 . S
C2432 C2434 1.394 . S
C2432 H2448 0.931 . S
C2433 C2432 1.391 . S
C2433 C2437 1.376 . S
C2434 C2432 1.394 . S
C2434 C2435 1.369 . S
C2434 C2438 1.531 . S
C2435 C2434 1.369 . S
C2435 C2436 1.410 . S
C2435 C2443 1.503 . S
C2436 C2435 1.410 . S
C2436 C2437 1.392 . S
C2436 C2439 1.511 . S
C2437 C2433 1.376 . S
C2437 C2436 1.392 . S
C2437 H2449 0.929 . S
C2438 C2434 1.531 . S
C2438 H2450 0.960 . S
C2438 H2451 0.962 . S
C2438 H2452 0.960 . S
C2439 C2436 1.511 . S
C2439 H2453 0.961 . S
C2439 H2454 0.961 . S
C2439 H2455 0.961 . S
C2440 C2441 1.370 . S
C2440 C2442 1.363 . S
C2440 H2456 0.931 . S
C2441 C2440 1.370 . S
C2441 C2445 1.408 . S
C2442 C2440 1.363 . S
C2442 C2443 1.370 . S
C2442 C2446 1.524 . S
C2443 C2435 1.503 . S
C2443 C2442 1.370 . S
C2443 C2444 1.403 . S
C2444 C2443 1.403 . S
C2444 C2445 1.404 . S
C2444 C2447 1.539 . S
C2445 C2441 1.408 . S
C2445 C2444 1.404 . S
C2445 H2457 0.930 . S
C2446 C2442 1.524 . S
C2446 H2458 0.956 . S
C2446 H2459 0.961 . S
C2446 H2460 0.961 . S
C2447 C2444 1.539 . S
C2447 H2461 0.958 . S
C2447 H2462 0.961 . S
C2447 H2463 0.960 . S
H2448 C2432 0.931 . S
H2449 C2437 0.929 . S
H2450 C2438 0.960 . S
H2451 C2438 0.962 . S
H2452 C2438 0.960 . S
H2453 C2439 0.961 . S
H2454 C2439 0.961 . S
H2455 C2439 0.961 . S
H2456 C2440 0.931 . S
H2457 C2445 0.930 . S
H2458 C2446 0.956 . S
H2459 C2446 0.961 . S
H2460 C2446 0.961 . S
H2461 C2447 0.958 . S
H2462 C2447 0.961 . S
H2463 C2447 0.960 . S
C2464 C2465 1.391 . S
C2464 C2466 1.394 . S
C2464 H2480 0.931 . S
C2465 C2464 1.391 . S
C2465 C2469 1.376 . S
C2466 C2464 1.394 . S
C2466 C2467 1.369 1_565 S
C2466 C2470 1.531 1_565 S
C2467 C2466 1.369 1_545 S
C2467 C2468 1.410 1_545 S
C2467 C2475 1.503 . S
C2468 C2467 1.410 1_565 S
C2468 C2469 1.392 . S
C2468 C2471 1.511 1_565 S
C2469 C2465 1.376 . S
C2469 C2468 1.392 . S
C2469 H2481 0.929 . S
C2470 C2466 1.531 1_545 S
C2470 H2482 0.960 . S
C2470 H2483 0.962 . S
C2470 H2484 0.960 . S
C2471 C2468 1.511 1_545 S
C2471 H2485 0.961 1_545 S
C2471 H2486 0.961 . S
C2471 H2487 0.961 . S
C2472 C2473 1.370 . S
C2472 C2474 1.363 . S
C2472 H2488 0.931 . S
C2473 C2472 1.370 . S
C2473 C2477 1.408 . S
C2474 C2472 1.363 . S
C2474 C2475 1.370 . S
C2474 C2478 1.524 . S
C2475 C2467 1.503 . S
C2475 C2474 1.370 . S
C2475 C2476 1.403 . S
C2476 C2475 1.403 . S
C2476 C2477 1.404 . S
C2476 C2479 1.539 . S
C2477 C2473 1.408 . S
C2477 C2476 1.404 . S
C2477 H2489 0.930 . S
C2478 C2474 1.524 . S
C2478 H2490 0.956 . S
C2478 H2491 0.961 . S
C2478 H2492 0.961 . S
C2479 C2476 1.539 . S
C2479 H2493 0.958 . S
C2479 H2494 0.961 . S
C2479 H2495 0.960 . S
H2480 C2464 0.931 . S
H2481 C2469 0.929 . S
H2482 C2470 0.960 . S
H2483 C2470 0.962 . S
H2484 C2470 0.960 . S
H2485 C2471 0.961 1_565 S
H2486 C2471 0.961 . S
H2487 C2471 0.961 . S
H2488 C2472 0.931 . S
H2489 C2477 0.930 . S
H2490 C2478 0.956 . S
H2491 C2478 0.961 . S
H2492 C2478 0.961 . S
H2493 C2479 0.958 . S
H2494 C2479 0.961 . S
H2495 C2479 0.960 . S
C2496 C2497 1.391 . S
C2496 C2498 1.394 . S
C2496 H2512 0.931 . S
C2497 C2496 1.391 . S
C2497 C2501 1.376 . S
C2498 C2496 1.394 . S
C2498 C2499 1.369 . S
C2498 C2502 1.531 . S
C2499 C2498 1.369 . S
C2499 C2500 1.410 . S
C2499 C2507 1.503 . S
C2500 C2499 1.410 . S
C2500 C2501 1.392 . S
C2500 C2503 1.511 . S
C2501 C2497 1.376 . S
C2501 C2500 1.392 . S
C2501 H2513 0.929 . S
C2502 C2498 1.531 . S
C2502 H2514 0.960 . S
C2502 H2515 0.962 . S
C2502 H2516 0.960 . S
C2503 C2500 1.511 . S
C2503 H2517 0.961 . S
C2503 H2518 0.961 . S
C2503 H2519 0.961 . S
C2504 C2505 1.370 . S
C2504 C2506 1.363 . S
C2504 H2520 0.931 . S
C2505 C2504 1.370 . S
C2505 C2509 1.408 . S
C2506 C2504 1.363 . S
C2506 C2507 1.370 . S
C2506 C2510 1.524 . S
C2507 C2499 1.503 . S
C2507 C2506 1.370 . S
C2507 C2508 1.403 . S
C2508 C2507 1.403 . S
C2508 C2509 1.404 . S
C2508 C2511 1.539 . S
C2509 C2505 1.408 . S
C2509 C2508 1.404 . S
C2509 H2521 0.930 . S
C2510 C2506 1.524 . S
C2510 H2522 0.956 . S
C2510 H2523 0.961 . S
C2510 H2524 0.961 . S
C2511 C2508 1.539 . S
C2511 H2525 0.958 . S
C2511 H2526 0.961 . S
C2511 H2527 0.960 . S
H2512 C2496 0.931 . S
H2513 C2501 0.929 . S
H2514 C2502 0.960 . S
H2515 C2502 0.962 . S
H2516 C2502 0.960 . S
H2517 C2503 0.961 . S
H2518 C2503 0.961 . S
H2519 C2503 0.961 . S
H2520 C2504 0.931 . S
H2521 C2509 0.930 . S
H2522 C2510 0.956 . S
H2523 C2510 0.961 . S
H2524 C2510 0.961 . S
H2525 C2511 0.958 . S
H2526 C2511 0.961 . S
H2527 C2511 0.960 . S
C2528 C2529 1.391 . S
C2528 C2530 1.394 . S
C2528 H2544 0.931 . S
C2529 C2528 1.391 . S
C2529 C2533 1.376 . S
C2530 C2528 1.394 . S
C2530 C2531 1.369 . S
C2530 C2534 1.531 . S
C2531 C2530 1.369 . S
C2531 C2532 1.410 . S
C2531 C2539 1.503 . S
C2532 C2531 1.410 . S
C2532 C2533 1.392 . S
C2532 C2535 1.511 . S
C2533 C2529 1.376 . S
C2533 C2532 1.392 . S
C2533 H2545 0.929 . S
C2534 C2530 1.531 . S
C2534 H2546 0.960 . S
C2534 H2547 0.962 . S
C2534 H2548 0.960 . S
C2535 C2532 1.511 . S
C2535 H2549 0.961 . S
C2535 H2550 0.961 . S
C2535 H2551 0.961 . S
C2536 C2537 1.370 . S
C2536 C2538 1.363 . S
C2536 H2552 0.931 . S
C2537 C2536 1.370 . S
C2537 C2541 1.408 . S
C2538 C2536 1.363 . S
C2538 C2539 1.370 . S
C2538 C2542 1.524 . S
C2539 C2531 1.503 . S
C2539 C2538 1.370 . S
C2539 C2540 1.403 . S
C2540 C2539 1.403 . S
C2540 C2541 1.404 . S
C2540 C2543 1.539 . S
C2541 C2537 1.408 . S
C2541 C2540 1.404 . S
C2541 H2553 0.930 . S
C2542 C2538 1.524 . S
C2542 H2554 0.956 . S
C2542 H2555 0.961 . S
C2542 H2556 0.961 . S
C2543 C2540 1.539 . S
C2543 H2557 0.958 . S
C2543 H2558 0.961 . S
C2543 H2559 0.960 . S
H2544 C2528 0.931 . S
H2545 C2533 0.929 . S
H2546 C2534 0.960 . S
H2547 C2534 0.962 . S
H2548 C2534 0.960 . S
H2549 C2535 0.961 . S
H2550 C2535 0.961 . S
H2551 C2535 0.961 . S
H2552 C2536 0.931 . S
H2553 C2541 0.930 . S
H2554 C2542 0.956 . S
H2555 C2542 0.961 . S
H2556 C2542 0.961 . S
H2557 C2543 0.958 . S
H2558 C2543 0.961 . S
H2559 C2543 0.960 . S
C2560 C2561 1.391 . S
C2560 C2562 1.394 . S
C2560 H2576 0.931 . S
C2561 C2560 1.391 . S
C2561 C2565 1.376 . S
C2562 C2560 1.394 . S
C2562 C2563 1.369 . S
C2562 C2566 1.531 . S
C2563 C2562 1.369 . S
C2563 C2564 1.410 . S
C2563 C2571 1.503 . S
C2564 C2563 1.410 . S
C2564 C2565 1.392 . S
C2564 C2567 1.511 . S
C2565 C2561 1.376 . S
C2565 C2564 1.392 . S
C2565 H2577 0.929 . S
C2566 C2562 1.531 . S
C2566 H2578 0.960 . S
C2566 H2579 0.962 . S
C2566 H2580 0.960 . S
C2567 C2564 1.511 . S
C2567 H2581 0.961 . S
C2567 H2582 0.961 . S
C2567 H2583 0.961 . S
C2568 C2569 1.370 . S
C2568 C2570 1.363 . S
C2568 H2584 0.931 . S
C2569 C2568 1.370 . S
C2569 C2573 1.408 . S
C2570 C2568 1.363 . S
C2570 C2571 1.370 . S
C2570 C2574 1.524 . S
C2571 C2563 1.503 . S
C2571 C2570 1.370 . S
C2571 C2572 1.403 . S
C2572 C2571 1.403 . S
C2572 C2573 1.404 . S
C2572 C2575 1.539 . S
C2573 C2569 1.408 . S
C2573 C2572 1.404 . S
C2573 H2585 0.930 . S
C2574 C2570 1.524 . S
C2574 H2586 0.956 . S
C2574 H2587 0.961 . S
C2574 H2588 0.961 . S
C2575 C2572 1.539 . S
C2575 H2589 0.958 . S
C2575 H2590 0.961 . S
C2575 H2591 0.960 . S
H2576 C2560 0.931 . S
H2577 C2565 0.929 . S
H2578 C2566 0.960 . S
H2579 C2566 0.962 . S
H2580 C2566 0.960 . S
H2581 C2567 0.961 . S
H2582 C2567 0.961 . S
H2583 C2567 0.961 . S
H2584 C2568 0.931 . S
H2585 C2573 0.930 . S
H2586 C2574 0.956 . S
H2587 C2574 0.961 . S
H2588 C2574 0.961 . S
H2589 C2575 0.958 . S
H2590 C2575 0.961 . S
H2591 C2575 0.960 . S
C2592 C2593 1.391 . S
C2592 C2594 1.394 . S
C2592 H2608 0.931 . S
C2593 C2592 1.391 . S
C2593 C2597 1.376 . S
C2594 C2592 1.394 . S
C2594 C2595 1.369 . S
C2594 C2598 1.531 . S
C2595 C2594 1.369 . S
C2595 C2596 1.410 . S
C2595 C2603 1.503 . S
C2596 C2595 1.410 . S
C2596 C2597 1.392 . S
C2596 C2599 1.511 . S
C2597 C2593 1.376 . S
C2597 C2596 1.392 . S
C2597 H2609 0.929 . S
C2598 C2594 1.531 . S
C2598 H2610 0.960 . S
C2598 H2611 0.962 . S
C2598 H2612 0.960 . S
C2599 C2596 1.511 . S
C2599 H2613 0.961 . S
C2599 H2614 0.961 . S
C2599 H2615 0.961 . S
C2600 C2601 1.370 1_545 S
C2600 C2602 1.363 1_545 S
C2600 H2616 0.931 . S
C2601 C2600 1.370 1_565 S
C2601 C2605 1.408 . S
C2602 C2600 1.363 1_565 S
C2602 C2603 1.370 . S
C2602 C2606 1.524 1_565 S
C2603 C2595 1.503 . S
C2603 C2602 1.370 . S
C2603 C2604 1.403 . S
C2604 C2603 1.403 . S
C2604 C2605 1.404 . S
C2604 C2607 1.539 . S
C2605 C2601 1.408 . S
C2605 C2604 1.404 . S
C2605 H2617 0.930 . S
C2606 C2602 1.524 1_545 S
C2606 H2618 0.956 . S
C2606 H2619 0.961 . S
C2606 H2620 0.961 . S
C2607 C2604 1.539 . S
C2607 H2621 0.958 . S
C2607 H2622 0.961 . S
C2607 H2623 0.960 . S
H2608 C2592 0.931 . S
H2609 C2597 0.929 . S
H2610 C2598 0.960 . S
H2611 C2598 0.962 . S
H2612 C2598 0.960 . S
H2613 C2599 0.961 . S
H2614 C2599 0.961 . S
H2615 C2599 0.961 . S
H2616 C2600 0.931 . S
H2617 C2605 0.930 . S
H2618 C2606 0.956 . S
H2619 C2606 0.961 . S
H2620 C2606 0.961 . S
H2621 C2607 0.958 . S
H2622 C2607 0.961 . S
H2623 C2607 0.960 . S
C2624 C2625 1.391 1_655 S
C2624 C2626 1.394 . S
C2624 H2640 0.931 . S
C2625 C2624 1.391 1_455 S
C2625 C2629 1.376 . S
C2626 C2624 1.394 . S
C2626 C2627 1.369 1_655 S
C2626 C2630 1.531 . S
C2627 C2626 1.369 1_455 S
C2627 C2628 1.410 . S
C2627 C2635 1.503 . S
C2628 C2627 1.410 . S
C2628 C2629 1.392 . S
C2628 C2631 1.511 . S
C2629 C2625 1.376 . S
C2629 C2628 1.392 . S
C2629 H2641 0.929 . S
C2630 C2626 1.531 . S
C2630 H2642 0.960 . S
C2630 H2643 0.962 . S
C2630 H2644 0.960 . S
C2631 C2628 1.511 . S
C2631 H2645 0.961 . S
C2631 H2646 0.961 . S
C2631 H2647 0.961 . S
C2632 C2633 1.370 . S
C2632 C2634 1.363 . S
C2632 H2648 0.931 1_455 S
C2633 C2632 1.370 . S
C2633 C2637 1.408 . S
C2634 C2632 1.363 . S
C2634 C2635 1.370 . S
C2634 C2638 1.524 1_455 S
C2635 C2627 1.503 . S
C2635 C2634 1.370 . S
C2635 C2636 1.403 . S
C2636 C2635 1.403 . S
C2636 C2637 1.404 . S
C2636 C2639 1.539 . S
C2637 C2633 1.408 . S
C2637 C2636 1.404 . S
C2637 H2649 0.930 . S
C2638 C2634 1.524 1_655 S
C2638 H2650 0.956 . S
C2638 H2651 0.961 1_655 S
C2638 H2652 0.961 . S
C2639 C2636 1.539 . S
C2639 H2653 0.958 . S
C2639 H2654 0.961 . S
C2639 H2655 0.960 . S
H2640 C2624 0.931 . S
H2641 C2629 0.929 . S
H2642 C2630 0.960 . S
H2643 C2630 0.962 . S
H2644 C2630 0.960 . S
H2645 C2631 0.961 . S
H2646 C2631 0.961 . S
H2647 C2631 0.961 . S
H2648 C2632 0.931 1_655 S
H2649 C2637 0.930 . S
H2650 C2638 0.956 . S
H2651 C2638 0.961 1_455 S
H2652 C2638 0.961 . S
H2653 C2639 0.958 . S
H2654 C2639 0.961 . S
H2655 C2639 0.960 . S
C2656 C2657 1.391 . S
C2656 C2658 1.394 . S
C2656 H2672 0.931 . S
C2657 C2656 1.391 . S
C2657 C2661 1.376 . S
C2658 C2656 1.394 . S
C2658 C2659 1.369 . S
C2658 C2662 1.531 . S
C2659 C2658 1.369 . S
C2659 C2660 1.410 . S
C2659 C2667 1.503 . S
C2660 C2659 1.410 . S
C2660 C2661 1.392 . S
C2660 C2663 1.511 . S
C2661 C2657 1.376 . S
C2661 C2660 1.392 . S
C2661 H2673 0.929 . S
C2662 C2658 1.531 . S
C2662 H2674 0.960 . S
C2662 H2675 0.962 . S
C2662 H2676 0.960 . S
C2663 C2660 1.511 . S
C2663 H2677 0.961 . S
C2663 H2678 0.961 . S
C2663 H2679 0.961 . S
C2664 C2665 1.370 . S
C2664 C2666 1.363 . S
C2664 H2680 0.931 . S
C2665 C2664 1.370 . S
C2665 C2669 1.408 . S
C2666 C2664 1.363 . S
C2666 C2667 1.370 . S
C2666 C2670 1.524 . S
C2667 C2659 1.503 . S
C2667 C2666 1.370 . S
C2667 C2668 1.403 . S
C2668 C2667 1.403 . S
C2668 C2669 1.404 . S
C2668 C2671 1.539 . S
C2669 C2665 1.408 . S
C2669 C2668 1.404 . S
C2669 H2681 0.930 . S
C2670 C2666 1.524 . S
C2670 H2682 0.956 . S
C2670 H2683 0.961 . S
C2670 H2684 0.961 . S
C2671 C2668 1.539 . S
C2671 H2685 0.958 . S
C2671 H2686 0.961 . S
C2671 H2687 0.960 . S
H2672 C2656 0.931 . S
H2673 C2661 0.929 . S
H2674 C2662 0.960 . S
H2675 C2662 0.962 . S
H2676 C2662 0.960 . S
H2677 C2663 0.961 . S
H2678 C2663 0.961 . S
H2679 C2663 0.961 . S
H2680 C2664 0.931 . S
H2681 C2669 0.930 . S
H2682 C2670 0.956 . S
H2683 C2670 0.961 . S
H2684 C2670 0.961 . S
H2685 C2671 0.958 . S
H2686 C2671 0.961 . S
H2687 C2671 0.960 . S
C2688 C2689 1.391 1_455 S
C2688 C2690 1.394 . S
C2688 H2704 0.931 . S
C2689 C2688 1.391 1_655 S
C2689 C2693 1.376 . S
C2690 C2688 1.394 . S
C2690 C2691 1.369 1_455 S
C2690 C2694 1.531 . S
C2691 C2690 1.369 1_655 S
C2691 C2692 1.410 . S
C2691 C2699 1.503 . S
C2692 C2691 1.410 . S
C2692 C2693 1.392 . S
C2692 C2695 1.511 . S
C2693 C2689 1.376 . S
C2693 C2692 1.392 . S
C2693 H2705 0.929 . S
C2694 C2690 1.531 . S
C2694 H2706 0.960 . S
C2694 H2707 0.962 . S
C2694 H2708 0.960 . S
C2695 C2692 1.511 . S
C2695 H2709 0.961 . S
C2695 H2710 0.961 . S
C2695 H2711 0.961 . S
C2696 C2697 1.370 . S
C2696 C2698 1.363 . S
C2696 H2712 0.931 . S
C2697 C2696 1.370 . S
C2697 C2701 1.408 . S
C2698 C2696 1.363 . S
C2698 C2699 1.370 . S
C2698 C2702 1.524 . S
C2699 C2691 1.503 . S
C2699 C2698 1.370 . S
C2699 C2700 1.403 . S
C2700 C2699 1.403 . S
C2700 C2701 1.404 . S
C2700 C2703 1.539 . S
C2701 C2697 1.408 . S
C2701 C2700 1.404 . S
C2701 H2713 0.930 . S
C2702 C2698 1.524 . S
C2702 H2714 0.956 1_655 S
C2702 H2715 0.961 . S
C2702 H2716 0.961 . S
C2703 C2700 1.539 . S
C2703 H2717 0.958 1_655 S
C2703 H2718 0.961 . S
C2703 H2719 0.960 . S
H2704 C2688 0.931 . S
H2705 C2693 0.929 . S
H2706 C2694 0.960 . S
H2707 C2694 0.962 . S
H2708 C2694 0.960 . S
H2709 C2695 0.961 . S
H2710 C2695 0.961 . S
H2711 C2695 0.961 . S
H2712 C2696 0.931 . S
H2713 C2701 0.930 . S
H2714 C2702 0.956 1_455 S
H2715 C2702 0.961 . S
H2716 C2702 0.961 . S
H2717 C2703 0.958 1_455 S
H2718 C2703 0.961 . S
H2719 C2703 0.960 . S
C2720 C2721 1.391 . S
C2720 C2722 1.394 . S
C2720 H2736 0.931 . S
C2721 C2720 1.391 . S
C2721 C2725 1.376 . S
C2722 C2720 1.394 . S
C2722 C2723 1.369 . S
C2722 C2726 1.531 . S
C2723 C2722 1.369 . S
C2723 C2724 1.410 . S
C2723 C2731 1.503 . S
C2724 C2723 1.410 . S
C2724 C2725 1.392 . S
C2724 C2727 1.511 . S
C2725 C2721 1.376 . S
C2725 C2724 1.392 . S
C2725 H2737 0.929 . S
C2726 C2722 1.531 . S
C2726 H2738 0.960 . S
C2726 H2739 0.962 . S
C2726 H2740 0.960 . S
C2727 C2724 1.511 . S
C2727 H2741 0.961 . S
C2727 H2742 0.961 . S
C2727 H2743 0.961 . S
C2728 C2729 1.370 . S
C2728 C2730 1.363 . S
C2728 H2744 0.931 . S
C2729 C2728 1.370 . S
C2729 C2733 1.408 . S
C2730 C2728 1.363 . S
C2730 C2731 1.370 . S
C2730 C2734 1.524 . S
C2731 C2723 1.503 . S
C2731 C2730 1.370 . S
C2731 C2732 1.403 . S
C2732 C2731 1.403 . S
C2732 C2733 1.404 . S
C2732 C2735 1.539 . S
C2733 C2729 1.408 . S
C2733 C2732 1.404 . S
C2733 H2745 0.930 . S
C2734 C2730 1.524 . S
C2734 H2746 0.956 . S
C2734 H2747 0.961 . S
C2734 H2748 0.961 . S
C2735 C2732 1.539 . S
C2735 H2749 0.958 . S
C2735 H2750 0.961 . S
C2735 H2751 0.960 . S
H2736 C2720 0.931 . S
H2737 C2725 0.929 . S
H2738 C2726 0.960 . S
H2739 C2726 0.962 . S
H2740 C2726 0.960 . S
H2741 C2727 0.961 . S
H2742 C2727 0.961 . S
H2743 C2727 0.961 . S
H2744 C2728 0.931 . S
H2745 C2733 0.930 . S
H2746 C2734 0.956 . S
H2747 C2734 0.961 . S
H2748 C2734 0.961 . S
H2749 C2735 0.958 . S
H2750 C2735 0.961 . S
H2751 C2735 0.960 . S
C2752 C2753 1.391 . S
C2752 C2754 1.394 . S
C2752 H2768 0.931 . S
C2753 C2752 1.391 . S
C2753 C2757 1.376 . S
C2754 C2752 1.394 . S
C2754 C2755 1.369 . S
C2754 C2758 1.531 . S
C2755 C2754 1.369 . S
C2755 C2756 1.410 . S
C2755 C2763 1.503 . S
C2756 C2755 1.410 . S
C2756 C2757 1.392 . S
C2756 C2759 1.511 . S
C2757 C2753 1.376 . S
C2757 C2756 1.392 . S
C2757 H2769 0.929 . S
C2758 C2754 1.531 . S
C2758 H2770 0.960 1_545 S
C2758 H2771 0.962 . S
C2758 H2772 0.960 1_545 S
C2759 C2756 1.511 . S
C2759 H2773 0.961 . S
C2759 H2774 0.961 . S
C2759 H2775 0.961 . S
C2760 C2761 1.370 . S
C2760 C2762 1.363 . S
C2760 H2776 0.931 . S
C2761 C2760 1.370 . S
C2761 C2765 1.408 1_545 S
C2762 C2760 1.363 . S
C2762 C2763 1.370 . S
C2762 C2766 1.524 . S
C2763 C2755 1.503 . S
C2763 C2762 1.370 . S
C2763 C2764 1.403 1_545 S
C2764 C2763 1.403 1_565 S
C2764 C2765 1.404 . S
C2764 C2767 1.539 . S
C2765 C2761 1.408 1_565 S
C2765 C2764 1.404 . S
C2765 H2777 0.930 . S
C2766 C2762 1.524 . S
C2766 H2778 0.956 . S
C2766 H2779 0.961 . S
C2766 H2780 0.961 . S
C2767 C2764 1.539 . S
C2767 H2781 0.958 . S
C2767 H2782 0.961 . S
C2767 H2783 0.960 . S
H2768 C2752 0.931 . S
H2769 C2757 0.929 . S
H2770 C2758 0.960 1_565 S
H2771 C2758 0.962 . S
H2772 C2758 0.960 1_565 S
H2773 C2759 0.961 . S
H2774 C2759 0.961 . S
H2775 C2759 0.961 . S
H2776 C2760 0.931 . S
H2777 C2765 0.930 . S
H2778 C2766 0.956 . S
H2779 C2766 0.961 . S
H2780 C2766 0.961 . S
H2781 C2767 0.958 . S
H2782 C2767 0.961 . S
H2783 C2767 0.960 . S
C2784 C2785 1.391 . S
C2784 C2786 1.394 . S
C2784 H2800 0.931 . S
C2785 C2784 1.391 . S
C2785 C2789 1.376 . S
C2786 C2784 1.394 . S
C2786 C2787 1.369 . S
C2786 C2790 1.531 . S
C2787 C2786 1.369 . S
C2787 C2788 1.410 . S
C2787 C2795 1.503 . S
C2788 C2787 1.410 . S
C2788 C2789 1.392 . S
C2788 C2791 1.511 . S
C2789 C2785 1.376 . S
C2789 C2788 1.392 . S
C2789 H2801 0.929 . S
C2790 C2786 1.531 . S
C2790 H2802 0.960 . S
C2790 H2803 0.962 . S
C2790 H2804 0.960 . S
C2791 C2788 1.511 . S
C2791 H2805 0.961 . S
C2791 H2806 0.961 . S
C2791 H2807 0.961 . S
C2792 C2793 1.370 . S
C2792 C2794 1.363 . S
C2792 H2808 0.931 . S
C2793 C2792 1.370 . S
C2793 C2797 1.408 . S
C2794 C2792 1.363 . S
C2794 C2795 1.370 . S
C2794 C2798 1.524 . S
C2795 C2787 1.503 . S
C2795 C2794 1.370 . S
C2795 C2796 1.403 . S
C2796 C2795 1.403 . S
C2796 C2797 1.404 . S
C2796 C2799 1.539 . S
C2797 C2793 1.408 . S
C2797 C2796 1.404 . S
C2797 H2809 0.930 . S
C2798 C2794 1.524 . S
C2798 H2810 0.956 . S
C2798 H2811 0.961 . S
C2798 H2812 0.961 . S
C2799 C2796 1.539 . S
C2799 H2813 0.958 . S
C2799 H2814 0.961 . S
C2799 H2815 0.960 . S
H2800 C2784 0.931 . S
H2801 C2789 0.929 . S
H2802 C2790 0.960 . S
H2803 C2790 0.962 . S
H2804 C2790 0.960 . S
H2805 C2791 0.961 . S
H2806 C2791 0.961 . S
H2807 C2791 0.961 . S
H2808 C2792 0.931 . S
H2809 C2797 0.930 . S
H2810 C2798 0.956 . S
H2811 C2798 0.961 . S
H2812 C2798 0.961 . S
H2813 C2799 0.958 . S
H2814 C2799 0.961 . S
H2815 C2799 0.960 . S
C2816 C2817 1.391 . S
C2816 C2818 1.394 . S
C2816 H2832 0.931 . S
C2817 C2816 1.391 . S
C2817 C2821 1.376 . S
C2818 C2816 1.394 . S
C2818 C2819 1.369 . S
C2818 C2822 1.531 . S
C2819 C2818 1.369 . S
C2819 C2820 1.410 . S
C2819 C2827 1.503 . S
C2820 C2819 1.410 . S
C2820 C2821 1.392 . S
C2820 C2823 1.511 . S
C2821 C2817 1.376 . S
C2821 C2820 1.392 . S
C2821 H2833 0.929 . S
C2822 C2818 1.531 . S
C2822 H2834 0.960 . S
C2822 H2835 0.962 . S
C2822 H2836 0.960 . S
C2823 C2820 1.511 . S
C2823 H2837 0.961 . S
C2823 H2838 0.961 . S
C2823 H2839 0.961 . S
C2824 C2825 1.370 . S
C2824 C2826 1.363 . S
C2824 H2840 0.931 . S
C2825 C2824 1.370 . S
C2825 C2829 1.408 . S
C2826 C2824 1.363 . S
C2826 C2827 1.370 . S
C2826 C2830 1.524 . S
C2827 C2819 1.503 . S
C2827 C2826 1.370 . S
C2827 C2828 1.403 . S
C2828 C2827 1.403 . S
C2828 C2829 1.404 . S
C2828 C2831 1.539 . S
C2829 C2825 1.408 . S
C2829 C2828 1.404 . S
C2829 H2841 0.930 . S
C2830 C2826 1.524 . S
C2830 H2842 0.956 . S
C2830 H2843 0.961 . S
C2830 H2844 0.961 . S
C2831 C2828 1.539 . S
C2831 H2845 0.958 . S
C2831 H2846 0.961 . S
C2831 H2847 0.960 . S
H2832 C2816 0.931 . S
H2833 C2821 0.929 . S
H2834 C2822 0.960 . S
H2835 C2822 0.962 . S
H2836 C2822 0.960 . S
H2837 C2823 0.961 . S
H2838 C2823 0.961 . S
H2839 C2823 0.961 . S
H2840 C2824 0.931 . S
H2841 C2829 0.930 . S
H2842 C2830 0.956 . S
H2843 C2830 0.961 . S
H2844 C2830 0.961 . S
H2845 C2831 0.958 . S
H2846 C2831 0.961 . S
H2847 C2831 0.960 . S
C2848 C2849 1.391 . S
C2848 C2850 1.394 . S
C2848 H2864 0.931 . S
C2849 C2848 1.391 . S
C2849 C2853 1.376 . S
C2850 C2848 1.394 . S
C2850 C2851 1.369 . S
C2850 C2854 1.531 . S
C2851 C2850 1.369 . S
C2851 C2852 1.410 . S
C2851 C2859 1.503 . S
C2852 C2851 1.410 . S
C2852 C2853 1.392 . S
C2852 C2855 1.511 . S
C2853 C2849 1.376 . S
C2853 C2852 1.392 . S
C2853 H2865 0.929 . S
C2854 C2850 1.531 . S
C2854 H2866 0.960 . S
C2854 H2867 0.962 . S
C2854 H2868 0.960 . S
C2855 C2852 1.511 . S
C2855 H2869 0.961 . S
C2855 H2870 0.961 . S
C2855 H2871 0.961 . S
C2856 C2857 1.370 . S
C2856 C2858 1.363 . S
C2856 H2872 0.931 . S
C2857 C2856 1.370 . S
C2857 C2861 1.408 . S
C2858 C2856 1.363 . S
C2858 C2859 1.370 . S
C2858 C2862 1.524 . S
C2859 C2851 1.503 . S
C2859 C2858 1.370 . S
C2859 C2860 1.403 . S
C2860 C2859 1.403 . S
C2860 C2861 1.404 . S
C2860 C2863 1.539 . S
C2861 C2857 1.408 . S
C2861 C2860 1.404 . S
C2861 H2873 0.930 . S
C2862 C2858 1.524 . S
C2862 H2874 0.956 . S
C2862 H2875 0.961 . S
C2862 H2876 0.961 . S
C2863 C2860 1.539 . S
C2863 H2877 0.958 . S
C2863 H2878 0.961 . S
C2863 H2879 0.960 . S
H2864 C2848 0.931 . S
H2865 C2853 0.929 . S
H2866 C2854 0.960 . S
H2867 C2854 0.962 . S
H2868 C2854 0.960 . S
H2869 C2855 0.961 . S
H2870 C2855 0.961 . S
H2871 C2855 0.961 . S
H2872 C2856 0.931 . S
H2873 C2861 0.930 . S
H2874 C2862 0.956 . S
H2875 C2862 0.961 . S
H2876 C2862 0.961 . S
H2877 C2863 0.958 . S
H2878 C2863 0.961 . S
H2879 C2863 0.960 . S
C2880 C2881 1.391 . S
C2880 C2882 1.394 . S
C2880 H2896 0.931 . S
C2881 C2880 1.391 . S
C2881 C2885 1.376 . S
C2882 C2880 1.394 . S
C2882 C2883 1.369 . S
C2882 C2886 1.531 . S
C2883 C2882 1.369 . S
C2883 C2884 1.410 . S
C2883 C2891 1.503 . S
C2884 C2883 1.410 . S
C2884 C2885 1.392 . S
C2884 C2887 1.511 . S
C2885 C2881 1.376 . S
C2885 C2884 1.392 . S
C2885 H2897 0.929 . S
C2886 C2882 1.531 . S
C2886 H2898 0.960 . S
C2886 H2899 0.962 . S
C2886 H2900 0.960 . S
C2887 C2884 1.511 . S
C2887 H2901 0.961 . S
C2887 H2902 0.961 . S
C2887 H2903 0.961 . S
C2888 C2889 1.370 . S
C2888 C2890 1.363 . S
C2888 H2904 0.931 . S
C2889 C2888 1.370 . S
C2889 C2893 1.408 . S
C2890 C2888 1.363 . S
C2890 C2891 1.370 . S
C2890 C2894 1.524 . S
C2891 C2883 1.503 . S
C2891 C2890 1.370 . S
C2891 C2892 1.403 . S
C2892 C2891 1.403 . S
C2892 C2893 1.404 . S
C2892 C2895 1.539 . S
C2893 C2889 1.408 . S
C2893 C2892 1.404 . S
C2893 H2905 0.930 . S
C2894 C2890 1.524 . S
C2894 H2906 0.956 . S
C2894 H2907 0.961 . S
C2894 H2908 0.961 . S
C2895 C2892 1.539 . S
C2895 H2909 0.958 . S
C2895 H2910 0.961 . S
C2895 H2911 0.960 . S
H2896 C2880 0.931 . S
H2897 C2885 0.929 . S
H2898 C2886 0.960 . S
H2899 C2886 0.962 . S
H2900 C2886 0.960 . S
H2901 C2887 0.961 . S
H2902 C2887 0.961 . S
H2903 C2887 0.961 . S
H2904 C2888 0.931 . S
H2905 C2893 0.930 . S
H2906 C2894 0.956 . S
H2907 C2894 0.961 . S
H2908 C2894 0.961 . S
H2909 C2895 0.958 . S
H2910 C2895 0.961 . S
H2911 C2895 0.960 . S
C2912 C2913 1.391 . S
C2912 C2914 1.394 . S
C2912 H2928 0.931 . S
C2913 C2912 1.391 . S
C2913 C2917 1.376 . S
C2914 C2912 1.394 . S
C2914 C2915 1.369 . S
C2914 C2918 1.531 . S
C2915 C2914 1.369 . S
C2915 C2916 1.410 . S
C2915 C2923 1.503 . S
C2916 C2915 1.410 . S
C2916 C2917 1.392 . S
C2916 C2919 1.511 . S
C2917 C2913 1.376 . S
C2917 C2916 1.392 . S
C2917 H2929 0.929 . S
C2918 C2914 1.531 . S
C2918 H2930 0.960 . S
C2918 H2931 0.962 . S
C2918 H2932 0.960 . S
C2919 C2916 1.511 . S
C2919 H2933 0.961 . S
C2919 H2934 0.961 . S
C2919 H2935 0.961 . S
C2920 C2921 1.370 . S
C2920 C2922 1.363 . S
C2920 H2936 0.931 . S
C2921 C2920 1.370 . S
C2921 C2925 1.408 . S
C2922 C2920 1.363 . S
C2922 C2923 1.370 . S
C2922 C2926 1.524 . S
C2923 C2915 1.503 . S
C2923 C2922 1.370 . S
C2923 C2924 1.403 . S
C2924 C2923 1.403 . S
C2924 C2925 1.404 . S
C2924 C2927 1.539 . S
C2925 C2921 1.408 . S
C2925 C2924 1.404 . S
C2925 H2937 0.930 . S
C2926 C2922 1.524 . S
C2926 H2938 0.956 . S
C2926 H2939 0.961 . S
C2926 H2940 0.961 . S
C2927 C2924 1.539 . S
C2927 H2941 0.958 . S
C2927 H2942 0.961 . S
C2927 H2943 0.960 . S
H2928 C2912 0.931 . S
H2929 C2917 0.929 . S
H2930 C2918 0.960 . S
H2931 C2918 0.962 . S
H2932 C2918 0.960 . S
H2933 C2919 0.961 . S
H2934 C2919 0.961 . S
H2935 C2919 0.961 . S
H2936 C2920 0.931 . S
H2937 C2925 0.930 . S
H2938 C2926 0.956 . S
H2939 C2926 0.961 . S
H2940 C2926 0.961 . S
H2941 C2927 0.958 . S
H2942 C2927 0.961 . S
H2943 C2927 0.960 . S
C2944 C2945 1.391 . S
C2944 C2946 1.394 . S
C2944 H2960 0.931 . S
C2945 C2944 1.391 . S
C2945 C2949 1.376 . S
C2946 C2944 1.394 . S
C2946 C2947 1.369 . S
C2946 C2950 1.531 . S
C2947 C2946 1.369 . S
C2947 C2948 1.410 . S
C2947 C2955 1.503 . S
C2948 C2947 1.410 . S
C2948 C2949 1.392 . S
C2948 C2951 1.511 . S
C2949 C2945 1.376 . S
C2949 C2948 1.392 . S
C2949 H2961 0.929 . S
C2950 C2946 1.531 . S
C2950 H2962 0.960 . S
C2950 H2963 0.962 . S
C2950 H2964 0.960 . S
C2951 C2948 1.511 . S
C2951 H2965 0.961 . S
C2951 H2966 0.961 . S
C2951 H2967 0.961 . S
C2952 C2953 1.370 . S
C2952 C2954 1.363 . S
C2952 H2968 0.931 . S
C2953 C2952 1.370 . S
C2953 C2957 1.408 . S
C2954 C2952 1.363 . S
C2954 C2955 1.370 . S
C2954 C2958 1.524 . S
C2955 C2947 1.503 . S
C2955 C2954 1.370 . S
C2955 C2956 1.403 . S
C2956 C2955 1.403 . S
C2956 C2957 1.404 . S
C2956 C2959 1.539 . S
C2957 C2953 1.408 . S
C2957 C2956 1.404 . S
C2957 H2969 0.930 . S
C2958 C2954 1.524 . S
C2958 H2970 0.956 . S
C2958 H2971 0.961 . S
C2958 H2972 0.961 . S
C2959 C2956 1.539 . S
C2959 H2973 0.958 . S
C2959 H2974 0.961 . S
C2959 H2975 0.960 . S
H2960 C2944 0.931 . S
H2961 C2949 0.929 . S
H2962 C2950 0.960 . S
H2963 C2950 0.962 . S
H2964 C2950 0.960 . S
H2965 C2951 0.961 . S
H2966 C2951 0.961 . S
H2967 C2951 0.961 . S
H2968 C2952 0.931 . S
H2969 C2957 0.930 . S
H2970 C2958 0.956 . S
H2971 C2958 0.961 . S
H2972 C2958 0.961 . S
H2973 C2959 0.958 . S
H2974 C2959 0.961 . S
H2975 C2959 0.960 . S
C2976 C2977 1.391 . S
C2976 C2978 1.394 . S
C2976 H2992 0.931 . S
C2977 C2976 1.391 . S
C2977 C2981 1.376 . S
C2978 C2976 1.394 . S
C2978 C2979 1.369 . S
C2978 C2982 1.531 . S
C2979 C2978 1.369 . S
C2979 C2980 1.410 . S
C2979 C2987 1.503 . S
C2980 C2979 1.410 . S
C2980 C2981 1.392 . S
C2980 C2983 1.511 . S
C2981 C2977 1.376 . S
C2981 C2980 1.392 . S
C2981 H2993 0.929 . S
C2982 C2978 1.531 . S
C2982 H2994 0.960 . S
C2982 H2995 0.962 . S
C2982 H2996 0.960 . S
C2983 C2980 1.511 . S
C2983 H2997 0.961 . S
C2983 H2998 0.961 . S
C2983 H2999 0.961 . S
C2984 C2985 1.370 . S
C2984 C2986 1.363 . S
C2984 H3000 0.931 . S
C2985 C2984 1.370 . S
C2985 C2989 1.408 . S
C2986 C2984 1.363 . S
C2986 C2987 1.370 . S
C2986 C2990 1.524 . S
C2987 C2979 1.503 . S
C2987 C2986 1.370 . S
C2987 C2988 1.403 . S
C2988 C2987 1.403 . S
C2988 C2989 1.404 . S
C2988 C2991 1.539 . S
C2989 C2985 1.408 . S
C2989 C2988 1.404 . S
C2989 H3001 0.930 . S
C2990 C2986 1.524 . S
C2990 H3002 0.956 . S
C2990 H3003 0.961 . S
C2990 H3004 0.961 . S
C2991 C2988 1.539 . S
C2991 H3005 0.958 . S
C2991 H3006 0.961 . S
C2991 H3007 0.960 . S
H2992 C2976 0.931 . S
H2993 C2981 0.929 . S
H2994 C2982 0.960 . S
H2995 C2982 0.962 . S
H2996 C2982 0.960 . S
H2997 C2983 0.961 . S
H2998 C2983 0.961 . S
H2999 C2983 0.961 . S
H3000 C2984 0.931 . S
H3001 C2989 0.930 . S
H3002 C2990 0.956 . S
H3003 C2990 0.961 . S
H3004 C2990 0.961 . S
H3005 C2991 0.958 . S
H3006 C2991 0.961 . S
H3007 C2991 0.960 . S
C3008 C3009 1.391 . S
C3008 C3010 1.394 . S
C3008 H3024 0.931 . S
C3009 C3008 1.391 . S
C3009 C3013 1.376 . S
C3010 C3008 1.394 . S
C3010 C3011 1.369 . S
C3010 C3014 1.531 . S
C3011 C3010 1.369 . S
C3011 C3012 1.410 . S
C3011 C3019 1.503 . S
C3012 C3011 1.410 . S
C3012 C3013 1.392 . S
C3012 C3015 1.511 . S
C3013 C3009 1.376 . S
C3013 C3012 1.392 . S
C3013 H3025 0.929 . S
C3014 C3010 1.531 . S
C3014 H3026 0.960 . S
C3014 H3027 0.962 . S
C3014 H3028 0.960 . S
C3015 C3012 1.511 . S
C3015 H3029 0.961 . S
C3015 H3030 0.961 . S
C3015 H3031 0.961 . S
C3016 C3017 1.370 . S
C3016 C3018 1.363 . S
C3016 H3032 0.931 . S
C3017 C3016 1.370 . S
C3017 C3021 1.408 . S
C3018 C3016 1.363 . S
C3018 C3019 1.370 . S
C3018 C3022 1.524 . S
C3019 C3011 1.503 . S
C3019 C3018 1.370 . S
C3019 C3020 1.403 . S
C3020 C3019 1.403 . S
C3020 C3021 1.404 . S
C3020 C3023 1.539 . S
C3021 C3017 1.408 . S
C3021 C3020 1.404 . S
C3021 H3033 0.930 . S
C3022 C3018 1.524 . S
C3022 H3034 0.956 . S
C3022 H3035 0.961 . S
C3022 H3036 0.961 . S
C3023 C3020 1.539 . S
C3023 H3037 0.958 . S
C3023 H3038 0.961 . S
C3023 H3039 0.960 . S
H3024 C3008 0.931 . S
H3025 C3013 0.929 . S
H3026 C3014 0.960 . S
H3027 C3014 0.962 . S
H3028 C3014 0.960 . S
H3029 C3015 0.961 . S
H3030 C3015 0.961 . S
H3031 C3015 0.961 . S
H3032 C3016 0.931 . S
H3033 C3021 0.930 . S
H3034 C3022 0.956 . S
H3035 C3022 0.961 . S
H3036 C3022 0.961 . S
H3037 C3023 0.958 . S
H3038 C3023 0.961 . S
H3039 C3023 0.960 . S
C3040 C3041 1.391 . S
C3040 C3042 1.394 . S
C3040 H3056 0.931 . S
C3041 C3040 1.391 . S
C3041 C3045 1.376 . S
C3042 C3040 1.394 . S
C3042 C3043 1.369 . S
C3042 C3046 1.531 . S
C3043 C3042 1.369 . S
C3043 C3044 1.410 . S
C3043 C3051 1.503 . S
C3044 C3043 1.410 . S
C3044 C3045 1.392 . S
C3044 C3047 1.511 . S
C3045 C3041 1.376 . S
C3045 C3044 1.392 . S
C3045 H3057 0.929 . S
C3046 C3042 1.531 . S
C3046 H3058 0.960 . S
C3046 H3059 0.962 . S
C3046 H3060 0.960 . S
C3047 C3044 1.511 . S
C3047 H3061 0.961 . S
C3047 H3062 0.961 . S
C3047 H3063 0.961 . S
C3048 C3049 1.370 . S
C3048 C3050 1.363 . S
C3048 H3064 0.931 . S
C3049 C3048 1.370 . S
C3049 C3053 1.408 . S
C3050 C3048 1.363 . S
C3050 C3051 1.370 . S
C3050 C3054 1.524 . S
C3051 C3043 1.503 . S
C3051 C3050 1.370 . S
C3051 C3052 1.403 . S
C3052 C3051 1.403 . S
C3052 C3053 1.404 . S
C3052 C3055 1.539 . S
C3053 C3049 1.408 . S
C3053 C3052 1.404 . S
C3053 H3065 0.930 . S
C3054 C3050 1.524 . S
C3054 H3066 0.956 . S
C3054 H3067 0.961 . S
C3054 H3068 0.961 . S
C3055 C3052 1.539 . S
C3055 H3069 0.958 . S
C3055 H3070 0.961 . S
C3055 H3071 0.960 . S
H3056 C3040 0.931 . S
H3057 C3045 0.929 . S
H3058 C3046 0.960 . S
H3059 C3046 0.962 . S
H3060 C3046 0.960 . S
H3061 C3047 0.961 . S
H3062 C3047 0.961 . S
H3063 C3047 0.961 . S
H3064 C3048 0.931 . S
H3065 C3053 0.930 . S
H3066 C3054 0.956 . S
H3067 C3054 0.961 . S
H3068 C3054 0.961 . S
H3069 C3055 0.958 . S
H3070 C3055 0.961 . S
H3071 C3055 0.960 . S
C3072 C3073 1.391 . S
C3072 C3074 1.394 . S
C3072 H3088 0.931 . S
C3073 C3072 1.391 . S
C3073 C3077 1.376 . S
C3074 C3072 1.394 . S
C3074 C3075 1.369 . S
C3074 C3078 1.531 . S
C3075 C3074 1.369 . S
C3075 C3076 1.410 . S
C3075 C3083 1.503 . S
C3076 C3075 1.410 . S
C3076 C3077 1.392 . S
C3076 C3079 1.511 . S
C3077 C3073 1.376 . S
C3077 C3076 1.392 . S
C3077 H3089 0.929 . S
C3078 C3074 1.531 . S
C3078 H3090 0.960 . S
C3078 H3091 0.962 . S
C3078 H3092 0.960 . S
C3079 C3076 1.511 . S
C3079 H3093 0.961 . S
C3079 H3094 0.961 . S
C3079 H3095 0.961 . S
C3080 C3081 1.370 . S
C3080 C3082 1.363 . S
C3080 H3096 0.931 . S
C3081 C3080 1.370 . S
C3081 C3085 1.408 . S
C3082 C3080 1.363 . S
C3082 C3083 1.370 . S
C3082 C3086 1.524 . S
C3083 C3075 1.503 . S
C3083 C3082 1.370 . S
C3083 C3084 1.403 . S
C3084 C3083 1.403 . S
C3084 C3085 1.404 . S
C3084 C3087 1.539 . S
C3085 C3081 1.408 . S
C3085 C3084 1.404 . S
C3085 H3097 0.930 . S
C3086 C3082 1.524 . S
C3086 H3098 0.956 . S
C3086 H3099 0.961 . S
C3086 H3100 0.961 . S
C3087 C3084 1.539 . S
C3087 H3101 0.958 . S
C3087 H3102 0.961 . S
C3087 H3103 0.960 . S
H3088 C3072 0.931 . S
H3089 C3077 0.929 . S
H3090 C3078 0.960 . S
H3091 C3078 0.962 . S
H3092 C3078 0.960 . S
H3093 C3079 0.961 . S
H3094 C3079 0.961 . S
H3095 C3079 0.961 . S
H3096 C3080 0.931 . S
H3097 C3085 0.930 . S
H3098 C3086 0.956 . S
H3099 C3086 0.961 . S
H3100 C3086 0.961 . S
H3101 C3087 0.958 . S
H3102 C3087 0.961 . S
H3103 C3087 0.960 . S
C3104 C3105 1.391 . S
C3104 C3106 1.394 . S
C3104 H3120 0.931 . S
C3105 C3104 1.391 . S
C3105 C3109 1.376 . S
C3106 C3104 1.394 . S
C3106 C3107 1.369 . S
C3106 C3110 1.531 . S
C3107 C3106 1.369 . S
C3107 C3108 1.410 . S
C3107 C3115 1.503 . S
C3108 C3107 1.410 . S
C3108 C3109 1.392 . S
C3108 C3111 1.511 . S
C3109 C3105 1.376 . S
C3109 C3108 1.392 . S
C3109 H3121 0.929 . S
C3110 C3106 1.531 . S
C3110 H3122 0.960 . S
C3110 H3123 0.962 . S
C3110 H3124 0.960 . S
C3111 C3108 1.511 . S
C3111 H3125 0.961 . S
C3111 H3126 0.961 . S
C3111 H3127 0.961 . S
C3112 C3113 1.370 . S
C3112 C3114 1.363 . S
C3112 H3128 0.931 . S
C3113 C3112 1.370 . S
C3113 C3117 1.408 . S
C3114 C3112 1.363 . S
C3114 C3115 1.370 . S
C3114 C3118 1.524 . S
C3115 C3107 1.503 . S
C3115 C3114 1.370 . S
C3115 C3116 1.403 . S
C3116 C3115 1.403 . S
C3116 C3117 1.404 . S
C3116 C3119 1.539 . S
C3117 C3113 1.408 . S
C3117 C3116 1.404 . S
C3117 H3129 0.930 . S
C3118 C3114 1.524 . S
C3118 H3130 0.956 . S
C3118 H3131 0.961 . S
C3118 H3132 0.961 . S
C3119 C3116 1.539 . S
C3119 H3133 0.958 . S
C3119 H3134 0.961 . S
C3119 H3135 0.960 . S
H3120 C3104 0.931 . S
H3121 C3109 0.929 . S
H3122 C3110 0.960 . S
H3123 C3110 0.962 . S
H3124 C3110 0.960 . S
H3125 C3111 0.961 . S
H3126 C3111 0.961 . S
H3127 C3111 0.961 . S
H3128 C3112 0.931 . S
H3129 C3117 0.930 . S
H3130 C3118 0.956 . S
H3131 C3118 0.961 . S
H3132 C3118 0.961 . S
H3133 C3119 0.958 . S
H3134 C3119 0.961 . S
H3135 C3119 0.960 . S
C3136 C3137 1.391 . S
C3136 C3138 1.394 . S
C3136 H3152 0.931 . S
C3137 C3136 1.391 . S
C3137 C3141 1.376 . S
C3138 C3136 1.394 . S
C3138 C3139 1.369 . S
C3138 C3142 1.531 . S
C3139 C3138 1.369 . S
C3139 C3140 1.410 . S
C3139 C3147 1.503 . S
C3140 C3139 1.410 . S
C3140 C3141 1.392 . S
C3140 C3143 1.511 . S
C3141 C3137 1.376 . S
C3141 C3140 1.392 . S
C3141 H3153 0.929 . S
C3142 C3138 1.531 . S
C3142 H3154 0.960 . S
C3142 H3155 0.962 . S
C3142 H3156 0.960 . S
C3143 C3140 1.511 . S
C3143 H3157 0.961 . S
C3143 H3158 0.961 . S
C3143 H3159 0.961 . S
C3144 C3145 1.370 . S
C3144 C3146 1.363 . S
C3144 H3160 0.931 . S
C3145 C3144 1.370 . S
C3145 C3149 1.408 . S
C3146 C3144 1.363 . S
C3146 C3147 1.370 . S
C3146 C3150 1.524 . S
C3147 C3139 1.503 . S
C3147 C3146 1.370 . S
C3147 C3148 1.403 . S
C3148 C3147 1.403 . S
C3148 C3149 1.404 . S
C3148 C3151 1.539 . S
C3149 C3145 1.408 . S
C3149 C3148 1.404 . S
C3149 H3161 0.930 . S
C3150 C3146 1.524 . S
C3150 H3162 0.956 . S
C3150 H3163 0.961 . S
C3150 H3164 0.961 . S
C3151 C3148 1.539 . S
C3151 H3165 0.958 . S
C3151 H3166 0.961 . S
C3151 H3167 0.960 . S
H3152 C3136 0.931 . S
H3153 C3141 0.929 . S
H3154 C3142 0.960 . S
H3155 C3142 0.962 . S
H3156 C3142 0.960 . S
H3157 C3143 0.961 . S
H3158 C3143 0.961 . S
H3159 C3143 0.961 . S
H3160 C3144 0.931 . S
H3161 C3149 0.930 . S
H3162 C3150 0.956 . S
H3163 C3150 0.961 . S
H3164 C3150 0.961 . S
H3165 C3151 0.958 . S
H3166 C3151 0.961 . S
H3167 C3151 0.960 . S
C1441 C781 1.672 . S
C1449 C1083 1.692 . S
C1473 C871 1.775 . S
C1481 C1123 1.797 . S
C1505 C751 1.671 . S
C1513 C1175 1.762 . S
C1537 C691 1.545 . S
C1545 C1135 1.580 . S
C1577 C1163 1.471 . S
C1569 C571 1.442 . S
C1601 C601 1.446 . S
C1609 C1095 1.430 . S
C1641 C1102 1.700 . S
C1633 C661 1.596 . S
C1673 C1142 1.805 . S
C1665 C541 1.710 . S
C1697 C631 1.770 . S
C1705 C1162 1.749 . S
C1729 C811 1.601 . S
C1737 C1122 1.577 . S
C1761 C841 1.432 . S
C1769 C1182 1.479 . S
C1801 C1082 1.445 . S
C1793 C721 1.322 . S
C1833 C1203 1.688 . S
C1825 C61 1.687 . S
C1857 C151 1.768 . S
C1865 C1243 1.796 . S
C1889 C31 1.679 . S
C1897 C1295 1.764 . S
C1921 C1051 1.526 . S
C1929 C1255 1.580 . S
C1953 C931 1.442 . S
C1961 C1283 1.472 . S
C1985 C961 1.427 . S
C1993 C1215 1.439 . S
C2017 C1021 1.593 . S
C2025 C1222 1.699 . S
C2049 C901 1.722 . S
C2057 C1262 1.801 . S
C2089 C1282 1.763 . S
C2081 C991 1.782 . S
C2113 C91 1.599 . S
C2121 C1242 1.578 . S
C2153 C1302 1.478 . S
C2145 C121 1.443 . S
C2177 C1 1.394 . S
C2185 C1202 1.432 . S
C2217 C1323 1.694 . S
C2209 C421 1.691 . S
C2241 C511 1.762 . S
C2249 C1363 1.796 . S
C2281 C1415 1.749 . S
C2273 C391 1.721 . S
C2313 C1375 1.577 . S
C2305 C331 1.506 . S
C2345 C1403 1.478 . S
C2337 C211 1.373 . S
C2369 C241 1.443 . S
C2377 C1335 1.432 . S
C2401 C301 1.648 . S
C2409 C1342 1.688 . S
C2433 C181 1.761 . S
C2441 C1382 1.796 . S
C2473 C1402 1.755 . S
C2465 C271 1.792 . S
C2497 C451 1.600 . S
C2505 C1362 1.577 . S
C2529 C481 1.446 . S
C2537 C1422 1.477 . S
C2561 C361 1.300 . S
C2569 C1322 1.449 . S
C2593 C920 1.272 . S
C2601 C1106 1.320 . S
C2633 C1146 1.859 . S
C2625 C980 1.847 . S
C2657 C1040 1.493 . S
C2665 C1169 1.575 . S
C2689 C380 1.820 . S
C2697 C1129 1.864 . S
C2721 C440 1.541 . S
C2729 C1186 1.582 . S
C2761 C1089 1.318 . S
C2753 C500 1.318 . S
C2785 C200 1.303 . S
C2793 C1226 1.311 . S
C2817 C260 1.849 . S
C2825 C1266 1.863 . S
C2849 C320 1.543 . S
C2857 C1289 1.580 . S
C2881 C740 1.803 . S
C2889 C1249 1.852 . S
C2921 C1306 1.581 . S
C2913 C800 1.538 . S
C2945 C860 1.323 . S
C2953 C1209 1.321 . S
C2977 C560 1.269 . S
C2985 C1346 1.321 . S
C3009 C620 1.848 . S
C3017 C1386 1.863 . S
C3049 C1409 1.580 . S
C3041 C680 1.485 . S
C3073 C20 1.824 . S
C3081 C1369 1.863 . S
C3105 C80 1.553 . S
C3113 C1426 1.574 . S
C3137 C140 1.272 . S
C3145 C1329 1.310 . S
