# Generated by pormake.
# Topology zzz, (3,6)-cn, num edge types: 1
# Building blocks:
#     Node 0, Type 0, BuildingBlock: CUQRIR_clean_linker_1, # of connection points: 3
#     Node 1, Type 0, BuildingBlock: CUQRIR_clean_linker_1, # of connection points: 3
#     Node 2, Type 0, BuildingBlock: CUQRIR_clean_linker_1, # of connection points: 3
#     Node 3, Type 0, BuildingBlock: CUQRIR_clean_linker_1, # of connection points: 3
#     Node 4, Type 0, BuildingBlock: CUQRIR_clean_linker_1, # of connection points: 3
#     Node 5, Type 0, BuildingBlock: CUQRIR_clean_linker_1, # of connection points: 3
#     Node 6, Type 0, BuildingBlock: CUQRIR_clean_linker_1, # of connection points: 3
#     Node 7, Type 0, BuildingBlock: CUQRIR_clean_linker_1, # of connection points: 3
#     Node 8, Type 1, BuildingBlock: KUMBOL_clean_sbu_0, # of connection points: 6
#     Node 9, Type 1, BuildingBlock: KUMBOL_clean_sbu_0, # of connection points: 6
#     Node 10, Type 1, BuildingBlock: KUMBOL_clean_sbu_0, # of connection points: 6
#     Node 11, Type 1, BuildingBlock: KUMBOL_clean_sbu_0, # of connection points: 6
#     Edge 12, Type (0, 1), BuildingBlock: UVAHIK_clean_linker_0, # of connection points: 2
#     Edge 13, Type (0, 1), BuildingBlock: UVAHIK_clean_linker_0, # of connection points: 2
#     Edge 14, Type (0, 1), BuildingBlock: UVAHIK_clean_linker_0, # of connection points: 2
#     Edge 15, Type (0, 1), BuildingBlock: UVAHIK_clean_linker_0, # of connection points: 2
#     Edge 16, Type (0, 1), BuildingBlock: UVAHIK_clean_linker_0, # of connection points: 2
#     Edge 17, Type (0, 1), BuildingBlock: UVAHIK_clean_linker_0, # of connection points: 2
#     Edge 18, Type (0, 1), BuildingBlock: UVAHIK_clean_linker_0, # of connection points: 2
#     Edge 19, Type (0, 1), BuildingBlock: UVAHIK_clean_linker_0, # of connection points: 2
#     Edge 20, Type (0, 1), BuildingBlock: UVAHIK_clean_linker_0, # of connection points: 2
#     Edge 21, Type (0, 1), BuildingBlock: UVAHIK_clean_linker_0, # of connection points: 2
#     Edge 22, Type (0, 1), BuildingBlock: UVAHIK_clean_linker_0, # of connection points: 2
#     Edge 23, Type (0, 1), BuildingBlock: UVAHIK_clean_linker_0, # of connection points: 2
#     Edge 24, Type (0, 1), BuildingBlock: UVAHIK_clean_linker_0, # of connection points: 2
#     Edge 25, Type (0, 1), BuildingBlock: UVAHIK_clean_linker_0, # of connection points: 2
#     Edge 26, Type (0, 1), BuildingBlock: UVAHIK_clean_linker_0, # of connection points: 2
#     Edge 27, Type (0, 1), BuildingBlock: UVAHIK_clean_linker_0, # of connection points: 2
#     Edge 28, Type (0, 1), BuildingBlock: UVAHIK_clean_linker_0, # of connection points: 2
#     Edge 29, Type (0, 1), BuildingBlock: UVAHIK_clean_linker_0, # of connection points: 2
#     Edge 30, Type (0, 1), BuildingBlock: UVAHIK_clean_linker_0, # of connection points: 2
#     Edge 31, Type (0, 1), BuildingBlock: UVAHIK_clean_linker_0, # of connection points: 2
#     Edge 32, Type (0, 1), BuildingBlock: UVAHIK_clean_linker_0, # of connection points: 2
#     Edge 33, Type (0, 1), BuildingBlock: UVAHIK_clean_linker_0, # of connection points: 2
#     Edge 34, Type (0, 1), BuildingBlock: UVAHIK_clean_linker_0, # of connection points: 2
#     Edge 35, Type (0, 1), BuildingBlock: UVAHIK_clean_linker_0, # of connection points: 2
# Relax obj value: 0.165
# Max RMSD: 0.154
# Mean RMSD: 0.116
data_MOF--net-zzz--node1-KUMBOL_clean_sbu_0--node2-CUQRIR_clean_linker_1--edge1-UVAHIK_clean_linker_0
_symmetry_space_group_name_H-M    P1
_symmetry_Int_Tables_number       1
_symmetry_cell_setting            triclinic
loop_
_symmetry_equiv_pos_as_xyz
'x, y, z'
_cell_length_a     62.274926
_cell_length_b     62.177151
_cell_length_c     17.297575
_cell_angle_alpha  91.237424
_cell_angle_beta   89.661564
_cell_angle_gamma 89.833952
loop_
_atom_site_label
_atom_site_type_symbol
_atom_site_fract_x
_atom_site_fract_y
_atom_site_fract_z
_atom_type_partial_charge
C0 C 0.75056 0.52929 0.21392 0.0
N1 N 0.7713 0.53608 0.21727 0.0
N2 N 0.74052 0.53734 0.15091 0.0
C3 C 0.74062 0.51376 0.26864 0.0
C4 C 0.75592 0.54923 0.11652 0.0
N5 N 0.77442 0.54853 0.15678 0.0
C6 C 0.75287 0.56168 0.04384 0.0
H7 H 0.72793 0.50414 0.23946 0.0
H8 H 0.73314 0.52298 0.31744 0.0
H9 H 0.75297 0.50288 0.29249 0.0
H10 H 0.73596 0.56712 0.03862 0.0
H11 H 0.75681 0.55111 0.99321 0.0
H12 H 0.76369 0.57582 0.04294 0.0
C13 C 0.99851 0.76036 0.22658 0.0
N14 N 0.98763 0.77884 0.24445 0.0
N15 N 0.9856 0.74595 0.18894 0.0
C16 C 0.02194 0.75693 0.24197 0.0
C17 C 0.96653 0.75643 0.18458 0.0
N18 N 0.96775 0.77633 0.21786 0.0
C19 C 0.94707 0.74755 0.14386 0.0
H20 H 0.03145 0.76805 0.20608 0.0
H21 H 0.02692 0.74011 0.22848 0.0
H22 H 0.02545 0.76085 0.30344 0.0
H23 H 0.94394 0.73085 0.16186 0.0
H24 H 0.95017 0.7471 0.0806 0.0
H25 H 0.93252 0.75737 0.15643 0.0
C26 C 0.77607 0.991 0.2667 0.0
N27 N 0.75434 0.98975 0.26044 0.0
N28 N 0.78571 0.98727 0.19669 0.0
C29 C 0.78777 0.99615 0.34018 0.0
C30 C 0.76904 0.98407 0.14797 0.0
N31 N 0.75013 0.98544 0.18657 0.0
C32 C 0.77109 0.98174 0.0613 0.0
H33 H 0.78851 0.01388 0.34816 0.0
H34 H 0.80441 0.98973 0.33762 0.0
H35 H 0.77905 0.98949 0.39039 0.0
H36 H 0.76919 0.96453 0.04457 0.0
H37 H 0.7869 0.98734 0.0401 0.0
H38 H 0.75828 0.99095 0.03229 0.0
C39 C 0.53732 0.78939 0.24752 0.0
N40 N 0.54621 0.76954 0.25345 0.0
N41 N 0.54514 0.79944 0.18434 0.0
C42 C 0.52023 0.79847 0.30031 0.0
C43 C 0.55897 0.78493 0.15208 0.0
N44 N 0.55969 0.76689 0.19411 0.0
C45 C 0.57003 0.78753 0.07533 0.0
H46 H 0.50427 0.79412 0.27658 0.0
H47 H 0.52129 0.81627 0.30394 0.0
H48 H 0.52161 0.79171 0.35893 0.0
H49 H 0.5602 0.77967 0.02956 0.0
H50 H 0.58603 0.77967 0.07507 0.0
H51 H 0.57194 0.80477 0.06158 0.0
C52 C 0.28374 0.50619 0.07559 0.0
N53 N 0.26498 0.49607 0.05875 0.0
N54 N 0.29595 0.49408 0.12315 0.0
C55 C 0.28911 0.52863 0.05233 0.0
C56 C 0.28388 0.47634 0.13452 0.0
N57 N 0.26522 0.47746 0.09518 0.0
C58 C 0.29015 0.4582 0.18586 0.0
H59 H 0.28182 0.53222 0.99563 0.0
H60 H 0.30675 0.53091 0.04944 0.0
H61 H 0.28242 0.54011 0.09626 0.0
H62 H 0.28577 0.46254 0.24649 0.0
H63 H 0.30777 0.4555 0.18323 0.0
H64 H 0.28169 0.44315 0.16892 0.0
C65 C 0.02013 0.27467 0.12568 0.0
N66 N 0.03164 0.25669 0.10651 0.0
N67 N 0.03213 0.28865 0.16914 0.0
C68 C 0.99685 0.27771 0.10711 0.0
C69 C 0.05128 0.27845 0.17529 0.0
N70 N 0.05104 0.25923 0.13707 0.0
C71 C 0.07018 0.28729 0.21911 0.0
H72 H 0.9949 0.2778 0.0434 0.0
H73 H 0.99041 0.29293 0.13273 0.0
H74 H 0.98752 0.26391 0.12902 0.0
H75 H 0.06857 0.283 0.2808 0.0
H76 H 0.07062 0.3051 0.21595 0.0
H77 H 0.08546 0.28043 0.19613 0.0
C78 C 0.26014 0.03264 0.08289 0.0
N79 N 0.27817 0.04246 0.05654 0.0
N80 N 0.24774 0.04668 0.12522 0.0
C81 C 0.25541 1.00911 0.0724 0.0
C82 C 0.25896 0.06533 0.12316 0.0
N83 N 0.27736 0.0628 0.08186 0.0
C84 C 0.25168 0.08625 0.1601 0.0
H85 H 0.2486 1.00261 0.12652 0.0
H86 H 0.27002 0.99988 0.05533 0.0
H87 H 0.24322 1.00704 0.02634 0.0
H88 H 0.25716 0.08706 0.22099 0.0
H89 H 0.23389 0.08743 0.15996 0.0
H90 H 0.25861 0.10011 0.12927 0.0
C91 C 0.47986 0.24821 0.9966 0.0
N92 N 0.47474 0.26934 0.99035 0.0
N93 N 0.47064 0.23992 0.06084 0.0
C94 C 0.49546 0.23625 0.94496 0.0
C95 C 0.45992 0.25689 0.09326 0.0
N96 N 0.46247 0.27471 0.05085 0.0
C97 C 0.44725 0.25627 0.16745 0.0
H98 H 0.48683 0.22327 0.91312 0.0
H99 H 0.50796 0.22853 0.98056 0.0
H100 H 0.50317 0.24699 0.90267 0.0
H101 H 0.45791 0.26038 0.21669 0.0
H102 H 0.44055 0.23998 0.17627 0.0
H103 H 0.43401 0.26826 0.16693 0.0
Gd104 Gd 1.00227 0.02216 0.58582 0.0
Gd105 Gd 0.03479 0.01222 0.75931 0.0
C106 C 0.06015 0.06427 0.92616 0.0
C107 C 0.09861 0.06242 0.90246 0.0
C108 C 0.0744 0.03836 0.8328 0.0
C109 C 0.05702 0.04772 0.87021 0.0
C110 C 0.09546 0.04524 0.84969 0.0
C111 C 0.08097 0.07192 0.9407 0.0
C112 C 0.04234 0.0722 0.96743 0.0
C113 C 0.02217 0.06323 0.95393 0.0
N114 N 0.03715 0.03988 0.85482 0.0
C115 C 0.01991 0.04681 0.898 0.0
H116 H 1.00416 0.04019 0.88866 0.0
C117 C 0.0876 1.00999 0.75268 0.0
N118 N 0.07079 0.02164 0.78317 0.0
C119 C 0.10878 0.01629 0.76707 0.0
C120 C 0.11272 0.03419 0.81497 0.0
H121 H 0.08462 0.9962 0.71522 0.0
H122 H 0.08365 0.08477 0.98283 0.0
H123 H 0.02904 0.98865 0.46397 0.0
H124 H 0.04405 0.08488 0.0109 0.0
H125 H 1.00832 0.06898 0.98642 0.0
H126 H 0.11464 0.06807 0.91568 0.0
H127 H 0.95423 0.04525 0.62429 0.0
H128 H 0.98401 0.94719 0.35056 0.0
H129 H 0.02144 0.95893 0.3723 0.0
H130 H 0.91597 0.97454 0.43871 0.0
H131 H 0.12201 1.00736 0.74116 0.0
H132 H 0.12914 0.03899 0.82637 0.0
H133 H 0.94469 0.95283 0.37701 0.0
H134 H 0.91606 0.03837 0.59953 0.0
N135 N 0.9963 0.99355 0.49644 0.0
C136 C 0.98726 0.96028 0.39113 0.0
C137 C 1.00838 0.96691 0.40304 0.0
C138 C 0.97053 0.9711 0.42988 0.0
C139 C 0.97564 0.98809 0.48198 0.0
C140 C 0.01261 0.98382 0.45536 0.0
N141 N 0.96526 0.01747 0.56123 0.0
C142 C 0.95957 1.00041 0.51575 0.0
C143 C 0.92813 0.02752 0.57574 0.0
C144 C 0.92203 1.00957 0.53139 0.0
C145 C 0.9499 0.03138 0.5895 0.0
C146 C 0.93783 0.99592 0.49977 0.0
H147 H 0.90515 1.00667 0.52059 0.0
O148 O 0.99733 0.05384 0.53718 0.0
O149 O 0.01928 0.03673 0.68752 0.0
O150 O 0.99892 0.01453 0.7871 0.0
O151 O 0.9797 1.00731 0.67368 0.0
O152 O 0.99091 0.05117 0.65604 0.0
O153 O 0.01556 0.0298 0.47319 0.0
O154 O 0.04919 0.9844 0.81191 0.0
O155 O 0.01703 0.99744 0.66025 0.0
O156 O 0.03777 0.01663 0.55923 0.0
O157 O 0.05585 0.02818 0.66923 0.0
O158 O 0.04588 0.98329 0.68738 0.0
O159 O 0.02011 0.99839 0.86102 0.0
C160 C 1.00644 0.05201 0.70476 0.0
C161 C 0.93258 0.97834 0.45118 0.0
C162 C 0.94892 0.96597 0.41614 0.0
C163 C 0.01085 0.05011 0.48055 0.0
C164 C 0.02949 0.06465 0.47561 0.0
C165 C 0.03936 0.07213 0.54381 0.0
C166 C 0.03896 0.06927 0.40385 0.0
C167 C 0.05824 0.08112 0.40074 0.0
C168 C 0.05853 0.08349 0.54116 0.0
C169 C 0.06799 0.08791 0.47028 0.0
C170 C 0.981 1.00892 0.75037 0.0
C171 C 0.02931 0.98172 0.64355 0.0
C172 C 0.03283 0.98168 0.85804 0.0
C173 C 0.0222 0.96045 0.85386 0.0
C174 C 0.02975 0.94424 0.80247 0.0
C175 C 1.00375 0.9566 0.89882 0.0
C176 C 0.99292 0.93679 0.89268 0.0
C177 C 0.01897 0.92474 0.79536 0.0
C178 C 1.00077 0.92096 0.84017 0.0
C179 C 0.05516 0.02438 0.59354 0.0
H180 H 0.03258 0.06872 0.59949 0.0
H181 H 0.03146 0.06357 0.35089 0.0
H182 H 0.06605 0.08894 0.59432 0.0
H183 H 0.08256 0.09738 0.46998 0.0
H184 H 0.04393 0.94657 0.76718 0.0
H185 H 0.99779 0.96909 0.93808 0.0
H186 H 0.02488 0.9124 0.7555 0.0
H187 H 0.99326 0.90531 0.83512 0.0
Gd188 Gd 0.50871 0.99825 0.52977 0.0
Gd189 Gd 0.51197 0.03803 0.68712 0.0
C190 C 0.49012 0.03872 0.94013 0.0
C191 C 0.45345 0.05171 0.93253 0.0
C192 C 0.47515 0.04732 0.81527 0.0
C193 C 0.49212 0.04003 0.85894 0.0
C194 C 0.4557 0.05355 0.85214 0.0
C195 C 0.4706 0.04424 0.9764 0.0
C196 C 0.50798 0.03243 0.98286 0.0
C197 C 0.52742 0.0283 0.945 0.0
N198 N 0.5109 0.03505 0.82263 0.0
C199 C 0.5287 0.03002 0.8647 0.0
H200 H 0.54392 0.02697 0.83649 0.0
C201 C 0.46143 0.05697 0.69381 0.0
N202 N 0.47773 0.04868 0.73728 0.0
C203 C 0.44203 0.0635 0.72805 0.0
C204 C 0.43907 0.06165 0.80739 0.0
H205 H 0.46251 0.05799 0.63204 0.0
H206 H 0.46875 0.0432 0.03855 0.0
H207 H 0.53516 0.03801 0.4391 0.0
H208 H 0.50706 0.03121 0.0452 0.0
H209 H 0.54148 0.02387 0.97764 0.0
H210 H 0.43859 0.05628 0.96147 0.0
H211 H 0.50606 0.94561 0.56109 0.0
H212 H 0.59177 0.01178 0.33352 0.0
H213 H 0.56735 0.04255 0.35933 0.0
H214 H 0.59032 0.93776 0.40458 0.0
H215 H 0.4292 0.06966 0.69277 0.0
H216 H 0.42391 0.06652 0.8335 0.0
H217 H 0.60046 0.97282 0.35218 0.0
H218 H 0.52831 0.91293 0.54193 0.0
N219 N 0.54037 1.00456 0.45736 0.0
C220 C 0.57735 1.00953 0.36771 0.0
C221 C 0.5636 0.02692 0.38212 0.0
C222 C 0.57237 0.98948 0.39802 0.0
C223 C 0.55342 0.98745 0.44252 0.0
C224 C 0.54515 0.02417 0.42728 0.0
N225 N 0.52926 0.96651 0.513 0.0
C226 C 0.54784 0.96786 0.47231 0.0
C227 C 0.53416 0.92832 0.5229 0.0
C228 C 0.55399 0.92971 0.4854 0.0
C229 C 0.52173 0.94688 0.5346 0.0
C230 C 0.56087 0.94957 0.4581 0.0
H231 H 0.56353 0.91529 0.47576 0.0
O232 O 0.48713 0.97511 0.4758 0.0
O233 O 0.48987 0.01816 0.61622 0.0
O234 O 0.51371 1.00489 0.74174 0.0
O235 O 0.51781 0.9801 0.63772 0.0
O236 O 0.48046 0.98643 0.60019 0.0
O237 O 0.49718 1.00296 0.41327 0.0
O238 O 0.52717 0.06447 0.62832 0.0
O239 O 0.53015 0.02103 0.59213 0.0
O240 O 0.49986 0.03072 0.48133 0.0
O241 O 0.4966 0.05444 0.58667 0.0
O242 O 0.54537 0.02394 0.69715 0.0
O243 O 0.5233 0.06623 0.75171 0.0
C244 C 0.47672 1.00401 0.63862 0.0
C245 C 0.58002 0.95158 0.41555 0.0
C246 C 0.58574 0.97151 0.38545 0.0
C247 C 0.48366 0.98709 0.41644 0.0
C248 C 0.46103 0.99235 0.39974 0.0
C249 C 0.44421 0.98094 0.43462 0.0
C250 C 0.45609 1.00994 0.35316 0.0
C251 C 0.43481 0.01693 0.3455 0.0
C252 C 0.42296 0.98744 0.42517 0.0
C253 C 0.41826 1.00546 0.38162 0.0
C254 C 0.517 0.9851 0.7129 0.0
C255 C 0.5473 0.01645 0.62765 0.0
C256 C 0.53164 0.07511 0.69122 0.0
C257 C 0.55394 0.08235 0.69667 0.0
C258 C 0.56035 0.10112 0.65959 0.0
C259 C 0.56924 0.06976 0.73364 0.0
C260 C 0.59092 0.07566 0.73342 0.0
C261 C 0.58193 0.10726 0.66004 0.0
C262 C 0.59721 0.09461 0.69688 0.0
C263 C 0.49539 0.04991 0.51182 0.0
H264 H 0.44746 0.96724 0.47038 0.0
H265 H 0.46884 0.01869 0.32513 0.0
H266 H 0.41011 0.97868 0.45263 0.0
H267 H 0.40165 1.01034 0.37568 0.0
H268 H 0.54872 0.11088 0.62975 0.0
H269 H 0.56429 0.05545 0.76334 0.0
H270 H 0.58684 0.12176 0.63136 0.0
H271 H 0.61389 0.0995 0.6964 0.0
Gd272 Gd 0.49667 0.52833 0.71261 0.0
Gd273 Gd 0.53875 0.51209 0.57474 0.0
C274 C 0.59792 0.48208 0.68911 0.0
C275 C 0.62081 0.51297 0.71148 0.0
C276 C 0.58575 0.5174 0.65108 0.0
C277 C 0.58203 0.49553 0.65699 0.0
C278 C 0.60539 0.52622 0.6777 0.0
C279 C 0.61707 0.49096 0.71728 0.0
C280 C 0.59444 0.45992 0.69011 0.0
C281 C 0.57624 0.45146 0.65496 0.0
N282 N 0.5634 0.48722 0.62893 0.0
C283 C 0.56131 0.46528 0.62215 0.0
H284 H 0.54857 0.45797 0.58916 0.0
C285 C 0.57457 0.55144 0.60887 0.0
N286 N 0.57036 0.53004 0.6194 0.0
C287 C 0.59364 0.56079 0.63488 0.0
C288 C 0.60906 0.54819 0.66997 0.0
H289 H 0.56391 0.56182 0.57887 0.0
H290 H 0.62927 0.48087 0.74252 0.0
H291 H 0.47877 0.57373 0.6189 0.0
H292 H 0.60618 0.44915 0.7145 0.0
H293 H 0.57397 0.43421 0.65104 0.0
H294 H 0.63578 0.51959 0.73292 0.0
H295 H 0.47612 0.49071 0.8303 0.0
H296 H 0.41615 0.56181 0.53394 0.0
H297 H 0.4481 0.58502 0.54499 0.0
H298 H 0.39626 0.49594 0.65096 0.0
H299 H 0.59654 0.57775 0.62679 0.0
H300 H 0.62384 0.55552 0.68997 0.0
H301 H 0.39714 0.5284 0.57255 0.0
H302 H 0.44421 0.46765 0.83875 0.0
N303 N 0.46645 0.5425 0.64502 0.0
C304 C 0.43001 0.55635 0.56576 0.0
C305 C 0.44803 0.56941 0.57153 0.0
C306 C 0.42973 0.53684 0.60402 0.0
C307 C 0.44826 0.53043 0.64467 0.0
C308 C 0.46592 0.56246 0.61263 0.0
N309 N 0.46506 0.50768 0.73225 0.0
C310 C 0.44771 0.51225 0.68871 0.0
C311 C 0.44507 0.47987 0.79522 0.0
C312 C 0.42787 0.4831 0.74568 0.0
C313 C 0.4633 0.49278 0.78926 0.0
C314 C 0.42871 0.49992 0.69345 0.0
H315 H 0.41361 0.47327 0.75097 0.0
O316 O 0.48259 0.53359 0.82665 0.0
O317 O 0.53245 0.52635 0.69255 0.0
O318 O 0.52124 0.48202 0.6153 0.0
O319 O 0.50199 0.49258 0.72538 0.0
O320 O 0.52016 0.51366 0.79434 0.0
O321 O 0.50096 0.55878 0.77431 0.0
O322 O 0.55816 0.51863 0.47313 0.0
O323 O 0.50323 0.51348 0.59686 0.0
O324 O 0.50986 0.55779 0.65203 0.0
O325 O 0.53193 0.54663 0.54926 0.0
O326 O 0.51363 0.52172 0.48793 0.0
O327 O 0.54346 0.48738 0.48631 0.0
C328 C 0.53746 0.51766 0.75595 0.0
C329 C 0.41083 0.5054 0.64898 0.0
C330 C 0.41131 0.5239 0.60455 0.0
C331 C 0.49251 0.5517 0.83788 0.0
C332 C 0.50556 0.55363 0.90893 0.0
C333 C 0.4997 0.54237 0.97534 0.0
C334 C 0.52398 0.56664 0.91094 0.0
C335 C 0.53601 0.56924 0.97921 0.0
C336 C 0.51195 0.5442 0.04241 0.0
C337 C 0.52984 0.55765 0.04474 0.0
C338 C 0.51052 0.47759 0.67949 0.0
C339 C 0.49695 0.51933 0.53111 0.0
C340 C 0.55354 0.5002 0.43984 0.0
C341 C 0.54585 0.50053 0.35893 0.0
C342 C 0.54909 0.5185 0.31237 0.0
C343 C 0.5353 0.48247 0.32741 0.0
C344 C 0.52799 0.48212 0.25059 0.0
C345 C 0.54171 0.51837 0.23616 0.0
C346 C 0.53119 0.50033 0.20528 0.0
C347 C 0.52137 0.56165 0.58908 0.0
H348 H 0.48562 0.53218 0.97554 0.0
H349 H 0.52879 0.57502 0.85945 0.0
H350 H 0.50723 0.53558 0.09345 0.0
H351 H 0.53827 0.55959 0.09894 0.0
H352 H 0.55729 0.53264 0.33469 0.0
H353 H 0.53255 0.46866 0.36326 0.0
H354 H 0.54429 0.53227 0.20074 0.0
H355 H 0.52593 0.50049 0.14574 0.0
Gd356 Gd 1.00843 0.50204 0.74104 0.0
Gd357 Gd 0.02274 0.53772 0.58924 0.0
C358 C 1.00701 0.60913 0.62064 0.0
C359 C 0.97982 0.61434 0.52267 0.0
C360 C 0.99656 0.57924 0.53697 0.0
C361 C 1.00864 0.58721 0.59815 0.0
C362 C 0.98261 0.59295 0.4968 0.0
C363 C 0.99198 0.62241 0.58456 0.0
C364 C 0.02127 0.61732 0.67597 0.0
C365 C 0.03736 0.60406 0.70436 0.0
N366 N 0.02335 0.57408 0.63089 0.0
C367 C 0.03837 0.58245 0.68028 0.0
H368 H 0.05096 0.57261 0.7031 0.0
C369 C 0.99138 0.55133 0.44395 0.0
N370 N 0.99977 0.55856 0.51274 0.0
C371 C 0.97741 0.5643 0.40229 0.0
C372 C 0.97263 0.58505 0.42973 0.0
H373 H 0.99514 0.53546 0.42135 0.0
H374 H 0.9903 0.63918 0.60193 0.0
H375 H 0.96004 0.50932 0.82851 0.0
H376 H 0.02053 0.63404 0.69483 0.0
H377 H 0.04892 0.61042 0.74528 0.0
H378 H 0.96893 0.625 0.49326 0.0
H379 H 0.04534 0.46338 0.69022 0.0
H380 H 0.92212 0.45342 0.78276 0.0
H381 H 0.92587 0.48998 0.84004 0.0
H382 H 0.97195 0.40411 0.66366 0.0
H383 H 0.97038 0.5583 0.34898 0.0
H384 H 0.96186 0.5951 0.39717 0.0
H385 H 0.93932 0.42164 0.71552 0.0
H386 H 0.04556 0.42562 0.64852 0.0
N387 N 0.9755 0.48442 0.76184 0.0
C388 C 0.9372 0.4619 0.77703 0.0
C389 C 0.93926 0.48251 0.80955 0.0
C390 C 0.9549 0.45211 0.7404 0.0
C391 C 0.9742 0.46384 0.73439 0.0
C392 C 0.95873 0.49346 0.80268 0.0
N393 N 0.01125 0.46533 0.70415 0.0
C394 C 0.9926 0.45399 0.70495 0.0
C395 C 0.03052 0.43344 0.66369 0.0
C396 C 0.01134 0.42201 0.65909 0.0
C397 C 0.03024 0.45509 0.68728 0.0
C398 C 0.99212 0.43211 0.68128 0.0
H399 H 0.01162 0.40527 0.64039 0.0
O400 O 0.02654 0.51388 0.83998 0.0
O401 O 0.01602 0.53635 0.71523 0.0
O402 O 0.04907 0.53544 0.67949 0.0
O403 O 0.04392 0.50024 0.71034 0.0
O404 O 0.98889 0.53087 0.78112 0.0
O405 O 0.01045 0.48358 0.84671 0.0
O406 O 0.04304 0.55638 0.51323 0.0
O407 O 0.02095 0.50299 0.62125 0.0
O408 O 0.97782 0.50761 0.67091 0.0
O409 O 0.98625 0.53623 0.5904 0.0
O410 O 1.00852 0.51103 0.51506 0.0
O411 O 0.04891 0.52251 0.52413 0.0
C412 C 1.00053 0.54558 0.75074 0.0
C413 C 0.97265 0.4208 0.68284 0.0
C414 C 0.95408 0.43078 0.71232 0.0
C415 C 0.02176 0.49793 0.88351 0.0
C416 C 0.0151 0.50369 0.96273 0.0
C417 C 0.02791 0.49744 0.02472 0.0
C418 C 0.99652 0.51598 0.97701 0.0
C419 C 0.99063 0.52198 0.0531 0.0
C420 C 0.02218 0.50338 0.10038 0.0
C421 C 1.00371 0.51564 0.11465 0.0
C422 C 0.05653 0.51725 0.70719 0.0
C423 C 0.01163 0.49543 0.56153 0.0
C424 C 0.05323 0.53965 0.48575 0.0
C425 C 0.05467 0.53691 0.40086 0.0
C426 C 0.04316 0.55012 0.35078 0.0
C427 C 0.06817 0.52084 0.36956 0.0
C428 C 0.0711 0.51835 0.289 0.0
C429 C 0.04537 0.54735 0.27079 0.0
C430 C 0.05938 0.53177 0.23994 0.0
C431 C 0.97238 0.52242 0.62008 0.0
H432 H 0.04238 0.48804 0.01456 0.0
H433 H 0.98651 0.5205 0.92906 0.0
H434 H 0.03199 0.49843 0.14823 0.0
H435 H 0.99966 0.52015 0.17382 0.0
H436 H 0.03257 0.56265 0.37317 0.0
H437 H 0.07651 0.51037 0.40871 0.0
H438 H 0.0365 0.55762 0.2325 0.0
H439 H 0.0614 0.5307 0.17779 0.0
C440 C 0.22846 0.04795 0.25085 0.0
C441 C 0.22876 0.0425 0.17155 0.0
C442 C 0.20965 0.04596 0.29502 0.0
C443 C 0.15595 0.01967 0.29935 0.0
H444 H 0.14275 0.06473 0.45091 0.0
C445 C 0.07475 0.02161 0.46568 0.0
C446 C 0.07476 0.02771 0.54462 0.0
C447 C 0.0931 0.02405 0.41938 0.0
C448 C 0.14625 0.05183 0.40965 0.0
H449 H 0.20969 0.03007 0.07687 0.0
H450 H 0.17666 0.02634 0.15396 0.0
H451 H 0.17528 0.06702 0.37239 0.0
H452 H 0.09411 0.04236 0.63501 0.0
H453 H 0.12632 0.04601 0.55513 0.0
H454 H 0.12704 1.00438 0.33696 0.0
C455 C 0.19104 0.03218 0.18226 0.0
C456 C 0.16499 0.05315 0.36432 0.0
C457 C 0.20994 0.03427 0.13793 0.0
C458 C 0.09357 0.03697 0.57517 0.0
C459 C 0.11202 0.03933 0.52879 0.0
C460 C 0.13725 0.0183 0.34486 0.0
C461 C 0.19051 0.03833 0.26134 0.0
C462 C 0.17021 0.03705 0.30863 0.0
C463 C 0.11217 0.03266 0.45027 0.0
C464 C 0.1321 0.03433 0.40098 0.0
H465 H 0.24285 0.05394 0.27862 0.0
H466 H 0.21014 0.05038 0.35588 0.0
H467 H 0.15946 1.0068 0.25798 0.0
H468 H 0.06054 0.01478 0.43922 0.0
H469 H 0.09226 0.01923 0.35896 0.0
C470 C 0.48291 0.21905 0.17185 0.0
C471 C 0.47486 0.21951 0.09635 0.0
C472 C 0.48523 0.19961 0.20999 0.0
C473 C 0.46715 0.14229 0.20516 0.0
H474 H 0.51154 0.13725 0.36005 0.0
C475 C 0.48804 0.08901 0.48922 0.0
C476 C 0.48999 0.06785 0.45936 0.0
C477 C 0.48555 0.10636 0.43988 0.0
C478 C 0.49901 0.13844 0.31714 0.0
H479 H 0.46366 0.19995 1.00019 0.0
H480 H 0.46851 0.16557 0.0655 0.0
H481 H 0.51026 0.16898 0.28059 0.0
H482 H 0.49022 0.04854 0.35344 0.0
H483 H 0.48484 0.07886 0.26751 0.0
H484 H 0.45643 0.11117 0.24142 0.0
C485 C 0.47247 0.18035 0.09638 0.0
C486 C 0.49816 0.15674 0.27167 0.0
C487 C 0.46994 0.19997 0.05841 0.0
C488 C 0.48844 0.06449 0.37875 0.0
C489 C 0.48548 0.08188 0.32937 0.0
C490 C 0.46826 0.12373 0.24999 0.0
C491 C 0.47995 0.1799 0.17322 0.0
C492 C 0.48192 0.15925 0.21616 0.0
C493 C 0.48457 0.10305 0.3594 0.0
C494 C 0.48394 0.12186 0.30759 0.0
H495 H 0.4871 0.23387 0.20195 0.0
H496 H 0.49067 0.2002 0.2693 0.0
H497 H 0.45429 0.14359 0.16368 0.0
H498 H 0.48915 0.09237 0.55076 0.0
H499 H 0.48471 0.12249 0.46471 0.0
C500 C 0.33541 0.49858 0.12298 0.0
C501 C 0.31568 0.49958 0.16238 0.0
C502 C 0.35481 0.50109 0.16329 0.0
C503 C 0.37758 0.49901 0.364 0.0
H504 H 0.42707 0.52462 0.26603 0.0
C505 C 0.46216 0.49946 0.50863 0.0
C506 C 0.47523 0.51749 0.49692 0.0
C507 C 0.44268 0.49707 0.46842 0.0
C508 C 0.41341 0.51763 0.29505 0.0
H509 H 0.30058 0.50426 0.27405 0.0
H510 H 0.33419 0.50954 0.34454 0.0
H511 H 0.39339 0.52229 0.19664 0.0
H512 H 0.47875 0.54655 0.43178 0.0
H513 H 0.44466 0.54306 0.36463 0.0
H514 H 0.39746 0.49504 0.46347 0.0
C515 C 0.33497 0.50631 0.28286 0.0
C516 C 0.39402 0.51598 0.25441 0.0
C517 C 0.31565 0.5036 0.24253 0.0
C518 C 0.46874 0.53272 0.44307 0.0
C519 C 0.44927 0.53051 0.4037 0.0
C520 C 0.39695 0.50082 0.40492 0.0
C521 C 0.35495 0.50477 0.24419 0.0
C522 C 0.37573 0.50665 0.28808 0.0
C523 C 0.43591 0.5126 0.41518 0.0
C524 C 0.4152 0.51022 0.37125 0.0
H525 H 0.33579 0.49509 0.06139 0.0
H526 H 0.3697 0.49944 0.13112 0.0
H527 H 0.3641 0.49138 0.39197 0.0
H528 H 0.46716 0.48708 0.54786 0.0
H529 H 0.43315 0.48285 0.47818 0.0
C530 C 0.02361 0.32762 0.16596 0.0
C531 C 0.02595 0.30866 0.20776 0.0
C532 C 0.02072 0.34759 0.20464 0.0
C533 C 1.00495 0.37324 0.39409 0.0
H534 H 0.03857 0.42141 0.32309 0.0
C535 C 0.99407 0.46127 0.51539 0.0
C536 C 0.01288 0.47296 0.53093 0.0
C537 C 0.99506 0.44096 0.47804 0.0
C538 C 0.02911 0.40813 0.34398 0.0
H539 H 0.02682 0.2956 0.3223 0.0
H540 H 0.02129 0.33025 0.39018 0.0
H541 H 0.04061 0.38683 0.25348 0.0
H542 H 0.04735 0.47323 0.51539 0.0
H543 H 0.04919 0.43791 0.44959 0.0
H544 H 0.99351 0.3946 0.48478 0.0
C545 C 0.0216 0.32985 0.32757 0.0
C546 C 0.0301 0.3883 0.30344 0.0
C547 C 0.02475 0.30997 0.28887 0.0
C548 C 0.03266 0.46426 0.50614 0.0
C549 C 0.03365 0.44413 0.46768 0.0
C550 C 1.00374 0.39317 0.43407 0.0
C551 C 0.0199 0.34905 0.28618 0.0
C552 C 0.01813 0.37049 0.32802 0.0
C553 C 0.01487 0.43216 0.45289 0.0
C554 C 0.01592 0.41089 0.40991 0.0
H555 H 0.02476 0.32703 0.10347 0.0
H556 H 0.01929 0.36194 0.17064 0.0
H557 H 0.9954 0.35998 0.41468 0.0
H558 H 0.97856 0.46791 0.53191 0.0
H559 H 0.98024 0.4324 0.46694 0.0
C560 C 0.81819 0.96996 0.1419 0.0
C561 C 0.80808 0.9883 0.17404 0.0
C562 C 0.83781 0.97157 0.10213 0.0
C563 C 0.88378 1.00863 0.06068 0.0
H564 H 0.88976 0.97252 0.87616 0.0
C565 C 0.96264 1.00692 0.88043 0.0
C566 C 0.9614 1.00529 0.79914 0.0
C567 C 0.94441 1.00431 0.92716 0.0
C568 C 0.88836 0.98289 0.92705 0.0
H569 H 0.8107 0.02266 0.19115 0.0
H570 H 0.84503 0.02571 0.12196 0.0
H571 H 0.85796 0.96937 0.95757 0.0
H572 H 0.93967 0.9987 0.70424 0.0
H573 H 0.90774 0.99471 0.78544 0.0
H574 H 0.91388 0.02262 0.0288 0.0
C575 C 0.83808 1.00991 0.12833 0.0
C576 C 0.87016 0.98085 0.97473 0.0
C577 C 0.81846 1.00822 0.16851 0.0
C578 C 0.94131 1.00043 0.76628 0.0
C579 C 0.92297 0.99792 0.8132 0.0
C580 C 0.90197 1.01069 0.01293 0.0
C581 C 0.84779 0.99167 0.09255 0.0
C582 C 0.86755 0.99366 0.04249 0.0
C583 C 0.92419 1.00001 0.89451 0.0
C584 C 0.9046 0.99784 0.94527 0.0
H585 H 0.81031 0.95449 0.14442 0.0
H586 H 0.84486 0.95705 0.07721 0.0
H587 H 0.88257 0.01872 0.11234 0.0
H588 H 0.97777 1.01027 0.90865 0.0
H589 H 0.94628 1.00551 0.98929 0.0
C590 C 0.52631 0.81841 0.08134 0.0
C591 C 0.53805 0.81917 0.15022 0.0
C592 C 0.52265 0.83712 0.03981 0.0
C593 C 0.52457 0.89707 0.04911 0.0
H594 H 0.53257 0.89033 0.82749 0.0
C595 C 0.52846 0.96988 0.84066 0.0
C596 C 0.51891 0.96707 0.76769 0.0
C597 C 0.53038 0.95251 0.89093 0.0
C598 C 0.52999 0.89254 0.88911 0.0
H599 H 0.55473 0.83993 0.2312 0.0
H600 H 0.54833 0.87295 0.15891 0.0
H601 H 0.53568 0.8592 0.90911 0.0
H602 H 0.50267 0.9441 0.69286 0.0
H603 H 0.50602 0.91404 0.77915 0.0
H604 H 0.5189 0.93055 0.02857 0.0
C605 C 0.54171 0.85794 0.13715 0.0
C606 C 0.53176 0.87461 0.93612 0.0
C607 C 0.54536 0.83912 0.17871 0.0
C608 C 0.51085 0.94668 0.74714 0.0
C609 C 0.5127 0.9294 0.7971 0.0
C610 C 0.52274 0.91509 1.00185 0.0
C611 C 0.53079 0.85709 0.06597 0.0
C612 C 0.52892 0.87653 0.01674 0.0
C613 C 0.5227 0.93194 0.86944 0.0
C614 C 0.52525 0.91304 0.92101 0.0
H615 H 0.52068 0.80312 0.05828 0.0
H616 H 0.51382 0.83586 0.98617 0.0
H617 H 0.52218 0.89917 0.11088 0.0
H618 H 0.53492 0.98532 0.85822 0.0
H619 H 0.53832 0.95511 0.94585 0.0
C620 C 0.7172 0.52339 0.04639 0.0
C621 C 0.71936 0.53271 0.12059 0.0
C622 C 0.69697 0.52119 0.01208 0.0
C623 C 0.64155 0.54361 0.01852 0.0
H624 H 0.6288 0.49349 0.89003 0.0
C625 C 0.56835 0.53953 0.80806 0.0
C626 C 0.55813 0.51956 0.79762 0.0
C627 C 0.5871 0.54129 0.85279 0.0
C628 C 0.63193 0.50757 0.92604 0.0
H629 H 0.70203 0.54674 0.21775 0.0
H630 H 0.66638 0.54277 0.15832 0.0
H631 H 0.66265 0.49538 0.95918 0.0
H632 H 0.55821 0.48632 0.83157 0.0
H633 H 0.59102 0.48912 0.90794 0.0
H634 H 0.61068 0.55572 0.98534 0.0
C635 C 0.6804 0.53729 0.12618 0.0
C636 C 0.65155 0.50875 0.9653 0.0
C637 C 0.70074 0.53935 0.16073 0.0
C638 C 0.56628 0.50171 0.83626 0.0
C639 C 0.58509 0.50337 0.88004 0.0
C640 C 0.62192 0.54248 0.97876 0.0
C641 C 0.67824 0.52835 0.05091 0.0
C642 C 0.65675 0.52681 0.01191 0.0
C643 C 0.59601 0.52311 0.88823 0.0
C644 C 0.61681 0.52444 0.93175 0.0
H645 H 0.73134 0.51823 0.01422 0.0
H646 H 0.69612 0.51446 0.95393 0.0
H647 H 0.64499 0.55788 0.05317 0.0
H648 H 0.56185 0.55376 0.78165 0.0
H649 H 0.59489 0.55679 0.85779 0.0
C650 C 0.98061 0.70656 0.17542 0.0
C651 C 0.99091 0.72542 0.15209 0.0
C652 C 0.98303 0.68721 0.13281 0.0
C653 C 0.01654 0.65888 0.98161 0.0
H654 H 0.96518 0.62465 0.95174 0.0
C655 C 0.01791 0.57266 0.84002 0.0
C656 C 1.00127 0.56725 0.78864 0.0
C657 C 0.01741 0.59217 0.88269 0.0
C658 C 0.97968 0.63404 0.9589 0.0
H659 H 0.01235 0.73869 0.06712 0.0
H660 H 0.01693 0.70485 0.99263 0.0
H661 H 0.96344 0.65778 0.02957 0.0
H662 H 0.97055 0.57741 0.74476 0.0
H663 H 0.96967 0.61158 0.81834 0.0
H664 H 0.0327 0.63512 0.91015 0.0
C665 C 1.00697 0.7049 0.04415 0.0
C666 C 0.97875 0.65299 1.00456 0.0
C667 C 1.00443 0.72431 0.0868 0.0
C668 C 0.98383 0.58145 0.78248 0.0
C669 C 0.98327 0.60093 0.82529 0.0
C670 C 0.0175 0.6398 0.93635 0.0
C671 C 0.99592 0.68612 0.06552 0.0
C672 C 0.99715 0.66575 0.01682 0.0
C673 C 1.00002 0.60658 0.87632 0.0
C674 C 0.99907 0.62708 0.92416 0.0
H675 H 0.97018 0.70698 0.22573 0.0
H676 H 0.9746 0.6731 0.15231 0.0
H677 H 0.03109 0.66811 0.98982 0.0
H678 H 0.0312 0.56166 0.84785 0.0
H679 H 0.03041 0.59569 0.9222 0.0
C680 C 0.07316 0.23376 0.20817 0.0
C681 C 0.06727 0.24273 0.13788 0.0
C682 C 0.08409 0.21416 0.209 0.0
C683 C 0.08445 0.16519 0.09126 0.0
H684 H 0.11311 0.14487 0.27385 0.0
C685 C 0.05359 0.09883 0.27378 0.0
C686 C 0.06717 0.08878 0.32656 0.0
C687 C 0.06214 0.11232 0.21798 0.0
C688 C 0.10559 0.15002 0.22107 0.0
H689 H 0.06988 0.23974 0.01356 0.0
H690 H 0.08927 0.20539 0.01435 0.0
H691 H 0.1157 0.1825 0.24103 0.0
H692 H 0.1004 0.08195 0.35406 0.0
H693 H 0.11533 0.10576 0.25706 0.0
H694 H 0.07316 0.13291 0.07426 0.0
C695 C 0.08523 0.21327 0.06897 0.0
C696 C 0.10689 0.17174 0.20278 0.0
C697 C 0.07427 0.23292 0.06835 0.0
C698 C 0.08953 0.09004 0.31545 0.0
C699 C 0.09809 0.10361 0.25982 0.0
C700 C 0.08305 0.14345 0.10969 0.0
C701 C 0.08932 0.20313 0.13934 0.0
C702 C 0.09492 0.17985 0.14126 0.0
C703 C 0.08441 0.11604 0.21422 0.0
C704 C 0.09233 0.136 0.17798 0.0
H705 H 0.06761 0.24094 0.26229 0.0
H706 H 0.08661 0.20681 0.2644 0.0
H707 H 0.07552 0.17079 0.0422 0.0
H708 H 0.03631 0.09813 0.28064 0.0
H709 H 0.05108 0.12161 0.18386 0.0
C710 C 0.30648 0.08151 0.01317 0.0
C711 C 0.29545 0.07717 0.08209 0.0
C712 C 0.32734 0.0898 0.01551 0.0
C713 C 0.37324 0.07892 0.05644 0.0
H714 H 0.39611 0.10993 0.23411 0.0
C715 C 0.43777 0.03906 0.22601 0.0
C716 C 0.42971 0.03639 0.30125 0.0
C717 C 0.42991 0.0556 0.18021 0.0
C718 C 0.39021 0.10143 0.18323 0.0
H719 H 0.29637 0.08026 0.20666 0.0
H720 H 0.33219 0.09524 0.21139 0.0
H721 H 0.36169 0.12072 0.18037 0.0
H722 H 0.40937 0.05034 0.39109 0.0
H723 H 0.39527 0.07861 0.31177 0.0
H724 H 0.4003 0.05806 0.06437 0.0
C725 C 0.32504 0.09233 0.15521 0.0
C726 C 0.37054 0.10769 0.15225 0.0
C727 C 0.30443 0.08371 0.15277 0.0
C728 C 0.41541 0.05173 0.33253 0.0
C729 C 0.40765 0.06823 0.28718 0.0
C730 C 0.39279 0.07253 0.0878 0.0
C731 C 0.33724 0.09421 0.08696 0.0
C732 C 0.36097 0.09516 0.09337 0.0
C733 C 0.41394 0.06973 0.20916 0.0
C734 C 0.40034 0.08242 0.15628 0.0
H735 H 0.29961 0.07691 0.95795 0.0
H736 H 0.3363 0.09117 0.96198 0.0
H737 H 0.36648 0.06915 0.01017 0.0
H738 H 0.44905 0.02757 0.20087 0.0
H739 H 0.43528 0.05647 0.12072 0.0
C740 C 0.44804 0.31132 0.0343 0.0
C741 C 0.45948 0.29651 0.07832 0.0
C742 C 0.44932 0.33337 0.05167 0.0
C743 C 0.46693 0.37248 0.20346 0.0
H744 H 0.485 0.40751 0.03192 0.0
C745 C 0.52453 0.44212 0.23956 0.0
C746 C 0.51715 0.4626 0.21901 0.0
C747 C 0.51324 0.42373 0.21765 0.0
C748 C 0.47955 0.39803 0.08 0.0
H749 H 0.48044 0.29268 0.17606 0.0
H750 H 0.48229 0.33092 0.20826 0.0
H751 H 0.47098 0.37124 1.00657 0.0
H752 H 0.49272 0.47965 0.15527 0.0
H753 H 0.47329 0.447 0.11446 0.0
H754 H 0.47683 0.39868 0.277 0.0
C755 C 0.4722 0.32574 0.16064 0.0
C756 C 0.47148 0.37733 0.06566 0.0
C757 C 0.4711 0.30384 0.14266 0.0
C758 C 0.49884 0.46411 0.17193 0.0
C759 C 0.48767 0.44553 0.1489 0.0
C760 C 0.47512 0.39299 0.2177 0.0
C761 C 0.46181 0.34081 0.11414 0.0
C762 C 0.46587 0.36407 0.12756 0.0
C763 C 0.49454 0.42529 0.17346 0.0
C764 C 0.48216 0.40561 0.15633 0.0
H765 H 0.43895 0.30586 0.98454 0.0
H766 H 0.44105 0.3446 0.01516 0.0
H767 H 0.46237 0.36278 0.25216 0.0
H768 H 0.53891 0.44029 0.27374 0.0
H769 H 0.51902 0.4082 0.23594 0.0
C770 C 0.23566 0.45635 0.03868 0.0
C771 C 0.24665 0.46406 0.1042 0.0
C772 C 0.21424 0.44993 0.04476 0.0
C773 C 0.16801 0.4638 0.07264 0.0
H774 H 0.1418 0.4421 0.25912 0.0
C775 C 0.08473 0.49258 0.18412 0.0
C776 C 0.08729 0.50272 0.25722 0.0
C777 C 0.10077 0.47901 0.15334 0.0
C778 C 0.14875 0.44781 0.20581 0.0
H779 H 0.245 0.46894 0.22804 0.0
H780 H 0.20799 0.45717 0.23979 0.0
H781 H 0.17839 0.43125 0.22434 0.0
H782 H 0.10918 0.50639 0.35424 0.0
H783 H 0.13628 0.48226 0.30229 0.0
H784 H 0.13895 0.48166 0.05744 0.0
C785 C 0.21565 0.45606 0.18345 0.0
C786 C 0.16966 0.44164 0.18599 0.0
C787 C 0.2369 0.46275 0.17705 0.0
C788 C 0.10606 0.49845 0.2992 0.0
C789 C 0.12175 0.4846 0.26928 0.0
C790 C 0.14704 0.46987 0.09229 0.0
C791 C 0.20372 0.45078 0.11685 0.0
C792 C 0.17997 0.45071 0.12205 0.0
C793 C 0.11942 0.47496 0.1958 0.0
C794 C 0.1378 0.46299 0.16167 0.0
H795 H 0.24308 0.45711 0.98206 0.0
H796 H 0.2055 0.44579 0.9926 0.0
H797 H 0.17552 0.47118 0.0232 0.0
H798 H 0.07051 0.49524 0.15009 0.0
H799 H 0.09874 0.47189 0.09615 0.0
C800 C 0.94597 0.79999 0.13774 0.0
C801 C 0.95234 0.79352 0.21129 0.0
C802 C 0.93598 0.81984 0.12839 0.0
C803 C 0.91578 0.86436 0.12219 0.0
H804 H 0.96384 0.89956 0.1873 0.0
C805 C 0.95807 0.91804 0.91814 0.0
C806 C 0.97452 0.9317 0.94445 0.0
C807 C 0.94423 0.90834 0.9705 0.0
C808 C 0.9497 0.89063 0.17014 0.0
H809 H 0.95134 0.80144 0.33354 0.0
H810 H 0.9348 0.83693 0.317 0.0
H811 H 0.95747 0.8658 0.24843 0.0
H812 H 0.98689 0.94879 0.04544 0.0
H813 H 0.96191 0.93297 0.1361 0.0
H814 H 0.90857 0.88873 0.04092 0.0
C815 C 0.93711 0.82643 0.26684 0.0
C816 C 0.94607 0.87108 0.20581 0.0
C817 C 0.94665 0.80626 0.27628 0.0
C818 C 0.97469 0.93801 0.02302 0.0
C819 C 0.96048 0.92867 0.07537 0.0
C820 C 0.9191 0.8842 0.08743 0.0
C821 C 0.93265 0.8338 0.19234 0.0
C822 C 0.93015 0.85706 0.17813 0.0
C823 C 0.94621 0.91242 0.05057 0.0
C824 C 0.93727 0.89669 0.10635 0.0
H825 H 0.95046 0.79058 0.08677 0.0
H826 H 0.93305 0.82518 0.07018 0.0
H827 H 0.90316 0.85393 0.10058 0.0
H828 H 0.95687 0.91354 0.85747 0.0
H829 H 0.93345 0.89615 0.94801 0.0
C830 C 0.72034 0.97243 0.10486 0.0
C831 C 0.72959 0.98857 0.15154 0.0
C832 C 0.70154 0.97671 0.06391 0.0
C833 C 0.67449 0.99836 0.93999 0.0
H834 H 0.63132 0.03769 0.02344 0.0
C835 C 0.62008 0.0718 0.82983 0.0
C836 C 0.60655 0.06231 0.77448 0.0
C837 C 0.63281 0.05895 0.87614 0.0
C838 C 0.64318 0.02657 0.99962 0.0
H839 H 0.72707 0.02155 0.19224 0.0
H840 H 0.69422 0.02903 0.12281 0.0
H841 H 0.65614 0.02017 0.11086 0.0
H842 H 0.59633 0.03217 0.72126 0.0
H843 H 0.61922 1.00964 0.80122 0.0
H844 H 0.66172 1.00536 0.82832 0.0
C845 C 0.70094 0.01296 0.11865 0.0
C846 C 0.65732 0.01654 0.04943 0.0
C847 C 0.71969 1.00873 0.1586 0.0
C848 C 0.60665 0.03982 0.76371 0.0
C849 C 0.61966 0.02697 0.80927 0.0
C850 C 0.66013 1.00826 0.89008 0.0
C851 C 0.69185 0.99714 0.06983 0.0
C852 C 0.67374 1.00314 0.01979 0.0
C853 C 0.6324 0.03645 0.86708 0.0
C854 C 0.64503 0.02313 0.91949 0.0
H855 H 0.72801 0.95684 0.0986 0.0
H856 H 0.69487 0.96426 0.02653 0.0
H857 H 0.68707 0.98821 0.91552 0.0
H858 H 0.62014 0.08907 0.8395 0.0
H859 H 0.6428 0.06656 0.91983 0.0
C860 C 0.59049 0.74277 0.16491 0.0
C861 C 0.56824 0.74644 0.16858 0.0
C862 C 0.59844 0.72231 0.14417 0.0
C863 C 0.58788 0.66687 0.15775 0.0
H864 H 0.59818 0.65451 0.94 0.0
C865 C 0.57062 0.58354 0.03583 0.0
C866 C 0.55325 0.58578 0.98476 0.0
C867 C 0.58399 0.60105 0.05301 0.0
C868 C 0.59602 0.65766 1.0014 0.0
H869 H 0.53689 0.73231 0.15297 0.0
H870 H 0.55066 0.69644 0.11863 0.0
H871 H 0.59952 0.69173 0.98899 0.0
H872 H 0.53779 0.6079 0.9065 0.0
H873 H 0.56128 0.63766 0.93421 0.0
H874 H 0.58217 0.63323 0.16927 0.0
C875 C 0.56193 0.70927 0.13149 0.0
C876 C 0.59687 0.6789 0.02934 0.0
C877 C 0.55408 0.72964 0.15087 0.0
C878 C 0.55104 0.60522 0.94537 0.0
C879 C 0.56461 0.62247 0.96131 0.0
C880 C 0.58719 0.64564 0.13006 0.0
C881 C 0.58411 0.70544 0.12832 0.0
C882 C 0.59154 0.68368 0.10664 0.0
C883 C 0.58053 0.62093 0.01804 0.0
C884 C 0.58978 0.64104 0.05062 0.0
H885 H 0.60157 0.75562 0.17914 0.0
H886 H 0.61562 0.71958 0.14155 0.0
H887 H 0.5835 0.67034 0.21748 0.0
H888 H 0.57328 0.56861 0.06549 0.0
H889 H 0.59626 0.5994 0.09664 0.0
C890 C 0.80528 0.54954 0.06831 0.0
C891 C 0.79479 0.55737 0.13494 0.0
C892 C 0.82693 0.55416 0.05592 0.0
C893 C 0.87281 0.56774 0.03255 0.0
H894 H 0.90575 0.56173 0.22036 0.0
C895 C 0.96373 0.5506 0.02067 0.0
C896 C 0.97026 0.53376 0.06831 0.0
C897 C 0.94358 0.56026 0.03123 0.0
C898 C 0.89682 0.56349 0.16731 0.0
H899 H 0.79767 0.57738 0.2378 0.0
H900 H 0.8354 0.58638 0.2151 0.0
H901 H 0.86722 0.56699 0.2288 0.0
H902 H 0.96102 0.51422 0.16527 0.0
H903 H 0.92599 0.53073 0.18305 0.0
H904 H 0.90229 0.56258 0.97097 0.0
C905 C 0.82724 0.57615 0.17329 0.0
C906 C 0.87468 0.5668 0.17212 0.0
C907 C 0.80565 0.57125 0.18605 0.0
C908 C 0.95659 0.52734 0.12831 0.0
C909 C 0.93649 0.5369 0.13864 0.0
C910 C 0.89495 0.56423 0.02771 0.0
C911 C 0.83841 0.56693 0.10972 0.0
C912 C 0.86225 0.56808 0.10469 0.0
C913 C 0.92955 0.55321 0.08943 0.0
C914 C 0.90707 0.56121 0.09498 0.0
H915 H 0.79715 0.53852 0.02907 0.0
H916 H 0.83495 0.54645 1.00699 0.0
H917 H 0.86384 0.56919 0.97947 0.0
H918 H 0.97408 0.55611 0.97464 0.0
H919 H 0.93886 0.57298 0.99301 0.0
C920 C 0.02047 0.23557 0.9901 0.0
C921 C 0.0242 0.23682 0.07003 0.0
C922 C 0.01766 0.2155 0.95219 0.0
C923 C 0.03015 0.15703 0.97538 0.0
H924 H 0.99156 0.14892 0.80253 0.0
C925 C 0.99177 0.08256 0.78427 0.0
C926 C 0.0099 0.07162 0.75426 0.0
C927 C 0.99373 0.10246 0.82305 0.0
C928 C 1.00253 0.15096 0.85049 0.0
H929 H 0.02717 0.21817 0.1733 0.0
H930 H 0.02201 0.18325 0.1082 0.0
H931 H 0.99325 0.18394 0.8695 0.0
H932 H 0.04436 0.07363 0.73903 0.0
H933 H 0.04797 0.10819 0.81039 0.0
H934 H 0.03959 0.12404 0.9554 0.0
C935 C 0.02152 0.19762 0.07398 0.0
C936 C 1.00358 0.17112 0.88879 0.0
C937 C 0.02419 0.21765 0.11168 0.0
C938 C 0.03017 0.08126 0.76371 0.0
C939 C 0.03219 0.10113 0.80396 0.0
C940 C 0.02951 0.13704 0.93584 0.0
C941 C 0.01864 0.19612 0.99327 0.0
C942 C 0.01738 0.17451 0.95213 0.0
C943 C 0.01392 0.1121 0.83331 0.0
C944 C 0.01556 0.13368 0.87318 0.0
H945 H 0.02084 0.25005 0.95647 0.0
H946 H 0.01569 0.21515 0.89004 0.0
H947 H 0.04081 0.15879 0.02407 0.0
H948 H 0.97589 0.07578 0.77673 0.0
H949 H 0.97936 0.11038 0.84508 0.0
C950 C 0.29726 0.0314 0.93634 0.0
C951 C 0.29656 0.0328 0.01731 0.0
C952 C 0.31655 0.02641 0.89712 0.0
C953 C 0.37659 0.02455 0.92892 0.0
H954 H 0.37653 0.99921 0.72239 0.0
C955 C 0.45573 1.00189 0.76293 0.0
C956 C 0.45673 1.00729 0.68457 0.0
C957 C 0.43632 1.00382 0.80468 0.0
C958 C 0.37688 1.0065 0.77979 0.0
H959 H 0.31523 0.02961 0.12104 0.0
H960 H 0.34858 0.01957 0.05394 0.0
H961 H 0.34284 1.00361 0.79279 0.0
H962 H 0.43793 0.01703 0.58659 0.0
H963 H 0.40409 0.02045 0.65888 0.0
H964 H 0.41078 0.02704 0.91583 0.0
C965 C 0.33456 0.02294 0.01956 0.0
C966 C 0.3574 1.00914 0.82049 0.0
C967 C 0.31533 0.02826 0.05852 0.0
C968 C 0.43772 0.01344 0.64762 0.0
C969 C 0.41829 0.01516 0.68899 0.0
C970 C 0.39607 0.02175 0.88841 0.0
C971 C 0.33571 0.02238 0.93789 0.0
C972 C 0.35679 0.01848 0.8956 0.0
C973 C 0.41729 1.01056 0.7684 0.0
C974 C 0.39653 0.01288 0.81286 0.0
H975 H 0.28312 0.03539 0.90339 0.0
H976 H 0.3165 0.02666 0.83462 0.0
H977 H 0.37716 0.03192 0.98598 0.0
H978 H 0.46999 0.99635 0.79208 0.0
H979 H 0.43619 0.99977 0.86524 0.0
C980 C 0.50224 0.29618 0.95921 0.0
C981 C 0.48364 0.28488 0.93842 0.0
C982 C 0.50764 0.31532 0.92246 0.0
C983 C 0.49271 0.35101 0.75742 0.0
H984 H 0.51559 0.39535 0.89406 0.0
C985 C 0.51095 0.43746 0.65007 0.0
C986 C 0.50812 0.45475 0.70297 0.0
C987 C 0.50936 0.41608 0.67437 0.0
C988 C 0.50896 0.38333 0.85493 0.0
H989 H 0.45646 0.28412 0.86191 0.0
H990 H 0.46548 0.31758 0.79789 0.0
H991 H 0.51053 0.3594 0.94144 0.0
H992 H 0.5015 0.46282 0.82339 0.0
H993 H 0.49734 0.42615 0.86431 0.0
H994 H 0.48996 0.37536 0.6723 0.0
C995 C 0.47636 0.31163 0.84109 0.0
C996 C 0.50645 0.3624 0.88189 0.0
C997 C 0.47117 0.29236 0.87736 0.0
C998 C 0.5034 0.45006 0.78041 0.0
C999 C 0.50146 0.42881 0.8044 0.0
C1000 C 0.49497 0.37206 0.73067 0.0
C1001 C 0.49433 0.32381 0.86477 0.0
C1002 C 0.49818 0.34588 0.8338 0.0
C1003 C 0.50463 0.4114 0.75214 0.0
C1004 C 0.50297 0.38863 0.77921 0.0
H1005 H 0.51184 0.29085 1.0072 0.0
H1006 H 0.52188 0.32383 0.94135 0.0
H1007 H 0.48654 0.3388 0.71801 0.0
H1008 H 0.51439 0.4404 0.58981 0.0
H1009 H 0.51214 0.40325 0.63219 0.0
C1010 C 0.24413 0.50205 0.93996 0.0
C1011 C 0.24626 0.50457 0.02036 0.0
C1012 C 0.2241 0.50496 0.90444 0.0
C1013 C 0.16936 0.52839 0.93231 0.0
H1014 H 0.15248 0.48469 0.7815 0.0
C1015 C 0.09108 0.53503 0.75028 0.0
C1016 C 0.07869 0.51627 0.74017 0.0
C1017 C 0.11156 0.5342 0.78391 0.0
C1018 C 0.15687 0.49702 0.82366 0.0
H1019 H 0.22934 0.5125 0.12647 0.0
H1020 H 0.19445 0.5182 0.0648 0.0
H1021 H 0.18801 0.48305 0.84038 0.0
H1022 H 0.0785 0.48184 0.75763 0.0
H1023 H 0.11419 0.48038 0.81515 0.0
H1024 H 0.13814 0.54228 0.91594 0.0
C1025 C 0.20821 0.51412 0.02872 0.0
C1026 C 0.17739 0.4962 0.85688 0.0
C1027 C 0.22819 0.51103 0.06414 0.0
C1028 C 0.08751 0.49663 0.76406 0.0
C1029 C 0.10808 0.49577 0.79691 0.0
C1030 C 0.14892 0.52935 0.89838 0.0
C1031 C 0.20573 0.51061 0.94852 0.0
C1032 C 0.18396 0.51187 0.91177 0.0
C1033 C 0.1204 0.51456 0.80772 0.0
C1034 C 0.14232 0.51365 0.84363 0.0
H1035 H 0.2577 0.49658 0.90536 0.0
H1036 H 0.22291 0.50231 0.84254 0.0
H1037 H 0.17381 0.54076 0.9742 0.0
H1038 H 0.08489 0.55047 0.73288 0.0
H1039 H 0.12059 0.54898 0.79048 0.0
C1040 C 0.99534 0.81803 0.24211 0.0
C1041 C 0.99577 0.79842 0.28124 0.0
C1042 C 0.99918 0.83764 0.28156 0.0
C1043 C 0.99311 0.87684 0.39235 0.0
H1044 H 0.03978 0.88329 0.53801 0.0
C1045 C 1.00332 0.95296 0.59588 0.0
C1046 C 0.02425 0.96136 0.60031 0.0
C1047 C 0.99948 0.93301 0.55814 0.0
C1048 C 0.02666 0.88181 0.49747 0.0
H1049 H 1.00131 0.78403 0.39183 0.0
H1050 H 1.00898 0.81814 0.46045 0.0
H1051 H 0.03477 0.84898 0.4687 0.0
H1052 H 0.05759 0.95485 0.57235 0.0
H1053 H 0.05099 0.92031 0.50724 0.0
H1054 H 0.98495 0.90966 0.4214 0.0
C1055 C 1.00545 0.81842 0.39926 0.0
C1056 C 0.0237 0.86204 0.458 0.0
C1057 C 1.00124 0.79882 0.35994 0.0
C1058 C 0.04124 0.94901 0.56873 0.0
C1059 C 0.03746 0.9291 0.53183 0.0
C1060 C 0.99587 0.89653 0.43267 0.0
C1061 C 1.00398 0.83819 0.3611 0.0
C1062 C 1.007 0.85927 0.40422 0.0
C1063 C 0.01655 0.92075 0.52565 0.0
C1064 C 0.01282 0.89941 0.48534 0.0
H1065 H 0.99113 0.81822 0.18149 0.0
H1066 H 0.99822 0.85243 0.24981 0.0
H1067 H 0.9799 0.87531 0.35239 0.0
H1068 H 0.98998 0.96177 0.62174 0.0
H1069 H 0.98319 0.92703 0.55534 0.0
C1070 C 0.72422 0.97462 0.33451 0.0
C1071 C 0.73781 0.99208 0.31952 0.0
C1072 C 0.70507 0.97751 0.37678 0.0
C1073 C 0.6697 0.98829 0.49991 0.0
H1074 H 0.63142 0.03123 0.41764 0.0
C1075 C 0.57991 0.99372 0.59759 0.0
C1076 C 0.569 0.01342 0.59277 0.0
C1077 C 0.60096 0.99136 0.56846 0.0
C1078 C 0.64191 0.01944 0.44303 0.0
H1079 H 0.74203 0.02626 0.33754 0.0
H1080 H 0.7082 0.03156 0.41038 0.0
H1081 H 0.66765 0.0273 0.36532 0.0
H1082 H 0.57239 0.04675 0.56228 0.0
H1083 H 0.60916 0.04312 0.5145 0.0
H1084 H 0.64444 0.98073 0.57916 0.0
C1085 C 0.71262 0.0155 0.39054 0.0
C1086 C 0.66278 0.01715 0.4124 0.0
C1087 C 0.73211 0.01246 0.34989 0.0
C1088 C 0.58008 0.0311 0.56328 0.0
C1089 C 0.60125 0.02892 0.53563 0.0
C1090 C 0.64898 0.99088 0.5318 0.0
C1091 C 0.69866 0.99809 0.40341 0.0
C1092 C 0.67693 1.00144 0.43995 0.0
C1093 C 0.61204 1.0089 0.53636 0.0
C1094 C 0.63456 1.0064 0.5036 0.0
H1095 H 0.72802 0.95887 0.31014 0.0
H1096 H 0.69469 0.96379 0.38498 0.0
H1097 H 0.68019 0.97607 0.52273 0.0
H1098 H 0.57197 0.98 0.62253 0.0
H1099 H 0.60829 0.97559 0.57002 0.0
C1100 C 0.55865 0.74307 0.34697 0.0
C1101 C 0.5416 0.75295 0.30857 0.0
C1102 C 0.5556 0.72378 0.38568 0.0
C1103 C 0.51457 0.68596 0.46203 0.0
H1104 H 0.55961 0.6438 0.42395 0.0
C1105 C 0.51567 0.60184 0.60687 0.0
C1106 C 0.52275 0.58418 0.56105 0.0
C1107 C 0.51729 0.62293 0.57979 0.0
C1108 C 0.54678 0.65527 0.43492 0.0
H1109 H 0.50777 0.75084 0.28272 0.0
H1110 H 0.50217 0.71713 0.35138 0.0
H1111 H 0.56316 0.67969 0.3726 0.0
H1112 H 0.53682 0.57511 0.4499 0.0
H1113 H 0.53949 0.61155 0.40303 0.0
H1114 H 0.49797 0.66119 0.52286 0.0
C1115 C 0.51795 0.72439 0.35224 0.0
C1116 C 0.54896 0.67604 0.40626 0.0
C1117 C 0.52106 0.74379 0.31338 0.0
C1118 C 0.53136 0.58823 0.48736 0.0
C1119 C 0.53299 0.60924 0.46044 0.0
C1120 C 0.5124 0.66511 0.49099 0.0
C1121 C 0.53535 0.71376 0.38683 0.0
C1122 C 0.53291 0.69173 0.41932 0.0
C1123 C 0.5261 0.62695 0.50629 0.0
C1124 C 0.52845 0.64941 0.47746 0.0
H1125 H 0.57465 0.74978 0.3435 0.0
H1126 H 0.5693 0.71638 0.41286 0.0
H1127 H 0.50192 0.69759 0.47356 0.0
H1128 H 0.50908 0.59942 0.66409 0.0
H1129 H 0.51201 0.63614 0.61716 0.0
C1130 C 0.78911 0.53638 0.34552 0.0
C1131 C 0.78835 0.52918 0.26806 0.0
C1132 C 0.80787 0.53367 0.3895 0.0
C1133 C 0.86661 0.52853 0.36149 0.0
H1134 H 0.86824 0.5129 0.57717 0.0
C1135 C 0.94263 0.54074 0.54814 0.0
C1136 C 0.9498 0.52306 0.59061 0.0
C1137 C 0.92239 0.54069 0.51304 0.0
C1138 C 0.86805 0.51724 0.51689 0.0
H1139 H 0.80611 0.51259 0.17718 0.0
H1140 H 0.83878 0.5079 0.25295 0.0
H1141 H 0.83378 0.51343 0.50865 0.0
H1142 H 0.94046 0.49177 0.63211 0.0
H1143 H 0.90471 0.49204 0.5731 0.0
H1144 H 0.9007 0.53276 0.3697 0.0
C1145 C 0.82506 0.51579 0.28006 0.0
C1146 C 0.84828 0.51769 0.47773 0.0
C1147 C 0.8063 0.51828 0.23677 0.0
C1148 C 0.93556 0.50573 0.60019 0.0
C1149 C 0.91506 0.50584 0.5661 0.0
C1150 C 0.88623 0.52851 0.40089 0.0
C1151 C 0.82636 0.52391 0.35651 0.0
C1152 C 0.84729 0.52327 0.39929 0.0
C1153 C 0.90839 0.52315 0.52064 0.0
C1154 C 0.88728 0.52285 0.47914 0.0
H1155 H 0.77561 0.54512 0.37055 0.0
H1156 H 0.80827 0.5402 0.448 0.0
H1157 H 0.86654 0.53301 0.30137 0.0
H1158 H 0.95273 0.55468 0.54136 0.0
H1159 H 0.91768 0.55448 0.4798 0.0
loop_
_geom_bond_atom_site_label_1
_geom_bond_atom_site_label_2
_geom_bond_distance
_geom_bond_site_symmetry_2
_ccdc_geom_bond_type
C0 N1 1.317 . S
C0 N2 1.348 . S
C0 C3 1.485 . S
N1 C0 1.317 . S
N1 N5 1.370 . S
N2 C0 1.348 . S
N2 C4 1.346 . S
C3 C0 1.485 . S
C3 H7 0.960 . S
C3 H8 0.961 . S
C3 H9 0.960 . S
C4 N2 1.346 . S
C4 N5 1.307 . S
C4 C6 1.486 . S
N5 N1 1.370 . S
N5 C4 1.307 . S
C6 C4 1.486 . S
C6 H10 0.960 . S
C6 H11 0.960 . S
C6 H12 0.959 . S
H7 C3 0.960 . S
H8 C3 0.961 . S
H9 C3 0.960 . S
H10 C6 0.960 . S
H11 C6 0.960 . S
H12 C6 0.959 . S
C13 N14 1.317 . S
C13 N15 1.348 . S
C13 C16 1.485 . S
N14 C13 1.317 . S
N14 N18 1.370 . S
N15 C13 1.348 . S
N15 C17 1.346 . S
C16 C13 1.485 . S
C16 H20 0.960 . S
C16 H21 0.961 . S
C16 H22 0.960 . S
C17 N15 1.346 . S
C17 N18 1.307 . S
C17 C19 1.486 . S
N18 N14 1.370 . S
N18 C17 1.307 . S
C19 C17 1.486 . S
C19 H23 0.960 . S
C19 H24 0.960 . S
C19 H25 0.959 . S
H20 C16 0.960 . S
H21 C16 0.961 . S
H22 C16 0.960 . S
H23 C19 0.960 . S
H24 C19 0.960 . S
H25 C19 0.959 . S
C26 N27 1.317 . S
C26 N28 1.348 . S
C26 C29 1.485 . S
N27 C26 1.317 . S
N27 N31 1.370 . S
N28 C26 1.348 . S
N28 C30 1.346 . S
C29 C26 1.485 . S
C29 H33 0.960 . S
C29 H34 0.961 . S
C29 H35 0.960 . S
C30 N28 1.346 . S
C30 N31 1.307 . S
C30 C32 1.486 . S
N31 N27 1.370 . S
N31 C30 1.307 . S
C32 C30 1.486 . S
C32 H36 0.960 . S
C32 H37 0.960 . S
C32 H38 0.959 . S
H33 C29 0.960 . S
H34 C29 0.961 . S
H35 C29 0.960 . S
H36 C32 0.960 . S
H37 C32 0.960 . S
H38 C32 0.959 . S
C39 N40 1.317 . S
C39 N41 1.348 . S
C39 C42 1.485 . S
N40 C39 1.317 . S
N40 N44 1.370 . S
N41 C39 1.348 . S
N41 C43 1.346 . S
C42 C39 1.485 . S
C42 H46 0.960 . S
C42 H47 0.961 . S
C42 H48 0.960 . S
C43 N41 1.346 . S
C43 N44 1.307 . S
C43 C45 1.486 . S
N44 N40 1.370 . S
N44 C43 1.307 . S
C45 C43 1.486 . S
C45 H49 0.960 . S
C45 H50 0.960 . S
C45 H51 0.959 . S
H46 C42 0.960 . S
H47 C42 0.961 . S
H48 C42 0.960 . S
H49 C45 0.960 . S
H50 C45 0.960 . S
H51 C45 0.959 . S
C52 N53 1.317 . S
C52 N54 1.348 1_556 S
C52 C55 1.485 . S
N53 C52 1.317 . S
N53 N57 1.370 1_556 S
N54 C52 1.348 1_554 S
N54 C56 1.346 . S
C55 C52 1.485 . S
C55 H59 0.960 . S
C55 H60 0.961 . S
C55 H61 0.960 . S
C56 N54 1.346 . S
C56 N57 1.307 . S
C56 C58 1.486 . S
N57 N53 1.370 1_554 S
N57 C56 1.307 . S
C58 C56 1.486 . S
C58 H62 0.960 . S
C58 H63 0.960 . S
C58 H64 0.959 . S
H59 C55 0.960 . S
H60 C55 0.961 . S
H61 C55 0.960 . S
H62 C58 0.960 . S
H63 C58 0.960 . S
H64 C58 0.959 . S
C65 N66 1.317 . S
C65 N67 1.348 1_556 S
C65 C68 1.485 . S
N66 C65 1.317 . S
N66 N70 1.370 1_556 S
N67 C65 1.348 1_554 S
N67 C69 1.346 . S
C68 C65 1.485 . S
C68 H72 0.960 . S
C68 H73 0.961 . S
C68 H74 0.960 . S
C69 N67 1.346 . S
C69 N70 1.307 . S
C69 C71 1.486 . S
N70 N66 1.370 1_554 S
N70 C69 1.307 . S
C71 C69 1.486 . S
C71 H75 0.960 . S
C71 H76 0.960 . S
C71 H77 0.959 . S
H72 C68 0.960 . S
H73 C68 0.961 . S
H74 C68 0.960 . S
H75 C71 0.960 . S
H76 C71 0.960 . S
H77 C71 0.959 . S
C78 N79 1.317 . S
C78 N80 1.348 1_556 S
C78 C81 1.485 . S
N79 C78 1.317 . S
N79 N83 1.370 1_556 S
N80 C78 1.348 1_554 S
N80 C82 1.346 . S
C81 C78 1.485 . S
C81 H85 0.960 . S
C81 H86 0.961 . S
C81 H87 0.960 . S
C82 N80 1.346 . S
C82 N83 1.307 . S
C82 C84 1.486 . S
N83 N79 1.370 1_554 S
N83 C82 1.307 . S
C84 C82 1.486 . S
C84 H88 0.960 . S
C84 H89 0.960 . S
C84 H90 0.959 . S
H85 C81 0.960 . S
H86 C81 0.961 . S
H87 C81 0.960 . S
H88 C84 0.960 . S
H89 C84 0.960 . S
H90 C84 0.959 . S
C91 N92 1.317 . S
C91 N93 1.348 1_556 S
C91 C94 1.485 . S
N92 C91 1.317 . S
N92 N96 1.370 1_556 S
N93 C91 1.348 1_554 S
N93 C95 1.346 . S
C94 C91 1.485 . S
C94 H98 0.960 . S
C94 H99 0.961 . S
C94 H100 0.960 . S
C95 N93 1.346 . S
C95 N96 1.307 . S
C95 C97 1.486 . S
N96 N92 1.370 1_554 S
N96 C95 1.307 . S
C97 C95 1.486 . S
C97 H101 0.960 . S
C97 H102 0.960 . S
C97 H103 0.959 . S
H98 C94 0.960 . S
H99 C94 0.961 . S
H100 C94 0.960 . S
H101 C97 0.960 . S
H102 C97 0.960 . S
H103 C97 0.959 . S
Gd104 N135 2.661 . S
Gd104 N141 2.601 . S
Gd104 O148 2.545 . S
Gd104 O149 2.606 1_655 S
Gd104 O151 2.429 . S
Gd104 O152 2.545 1_655 S
Gd104 O153 2.412 . S
Gd104 O155 2.362 1_545 S
Gd104 O156 2.324 1_655 S
Gd104 C163 2.828 . S
Gd105 N114 2.661 1_565 S
Gd105 N118 2.590 1_565 S
Gd105 O149 2.362 1_565 S
Gd105 O150 2.324 1_455 S
Gd105 O154 2.545 . S
Gd105 O155 2.606 1_455 S
Gd105 O157 2.429 . S
Gd105 O158 2.545 . S
Gd105 O159 2.412 . S
Gd105 C172 2.828 . S
C106 C109 1.417 . S
C106 C111 1.431 . S
C106 C112 1.412 . S
C107 C110 1.437 . S
C107 C111 1.317 . S
C107 H126 0.929 . S
C108 C109 1.426 . S
C108 C110 1.413 . S
C108 N118 1.387 . S
C109 C106 1.417 . S
C109 C108 1.426 . S
C109 N114 1.350 . S
C110 C107 1.437 . S
C110 C108 1.413 . S
C110 C120 1.391 . S
C111 C106 1.431 . S
C111 C107 1.317 . S
C111 H122 0.930 1_556 S
C112 C106 1.412 . S
C112 C113 1.355 . S
C112 H124 0.930 1_556 S
C113 C112 1.355 . S
C113 C115 1.402 . S
C113 H125 0.930 1_455 S
N114 Gd105 2.661 1_545 S
N114 C109 1.350 . S
N114 C115 1.307 . S
C115 C113 1.402 . S
C115 N114 1.307 . S
C115 H116 0.930 1_455 S
H116 C115 0.930 1_655 S
C117 N118 1.315 1_565 S
C117 C119 1.394 . S
C117 H121 0.930 . S
N118 Gd105 2.590 1_545 S
N118 C108 1.387 . S
N118 C117 1.315 1_545 S
C119 C117 1.394 . S
C119 C120 1.359 1_565 S
C119 H131 0.930 . S
C120 C110 1.391 . S
C120 C119 1.359 1_545 S
C120 H132 0.929 . S
H121 C117 0.930 . S
H122 C111 0.930 1_554 S
H123 C140 0.930 . S
H124 C112 0.930 1_554 S
H125 C113 0.930 1_655 S
H126 C107 0.929 . S
H127 C145 0.930 . S
H128 C136 0.930 . S
H129 C137 0.930 . S
H130 C161 0.929 . S
H131 C119 0.930 . S
H132 C120 0.929 . S
H133 C162 0.930 . S
H134 C143 0.930 . S
N135 Gd104 2.661 . S
N135 C139 1.350 1_545 S
N135 C140 1.307 1_645 S
C136 H128 0.930 . S
C136 C137 1.355 1_655 S
C136 C138 1.412 . S
C137 H129 0.930 . S
C137 C136 1.355 1_455 S
C137 C140 1.402 . S
C138 C136 1.412 . S
C138 C139 1.417 . S
C138 C162 1.431 . S
C139 N135 1.350 1_565 S
C139 C138 1.417 . S
C139 C142 1.426 1_565 S
C140 H123 0.930 . S
C140 N135 1.307 1_465 S
C140 C137 1.402 . S
N141 Gd104 2.601 . S
N141 C142 1.359 . S
N141 C145 1.334 . S
C142 C139 1.426 1_545 S
C142 N141 1.359 . S
C142 C146 1.413 . S
C143 H134 0.930 . S
C143 C144 1.359 . S
C143 C145 1.394 . S
C144 C143 1.359 . S
C144 C146 1.391 . S
C144 H147 0.929 . S
C145 H127 0.930 . S
C145 N141 1.334 . S
C145 C143 1.394 . S
C146 C142 1.413 . S
C146 C144 1.391 . S
C146 C161 1.437 1_545 S
H147 C144 0.929 . S
O148 Gd104 2.545 . S
O148 C163 1.258 . S
O149 Gd104 2.606 1_455 S
O149 Gd105 2.362 1_545 S
O149 C160 1.284 . S
O150 Gd105 2.324 1_655 S
O150 C170 1.254 1_565 S
O151 Gd104 2.429 . S
O151 C170 1.268 . S
O152 Gd104 2.545 1_455 S
O152 C160 1.250 . S
O153 Gd104 2.412 . S
O153 C163 1.252 . S
O154 Gd105 2.545 . S
O154 C172 1.258 . S
O155 Gd104 2.362 1_565 S
O155 Gd105 2.606 1_655 S
O155 C171 1.284 . S
O156 Gd104 2.324 1_455 S
O156 C179 1.254 . S
O157 Gd105 2.429 . S
O157 C179 1.268 1_565 S
O158 Gd105 2.545 . S
O158 C171 1.250 1_455 S
O159 Gd105 2.412 . S
O159 C172 1.252 . S
C160 O149 1.284 . S
C160 O152 1.250 . S
C161 H130 0.929 . S
C161 C146 1.437 1_565 S
C161 C162 1.317 . S
C162 H133 0.930 . S
C162 C138 1.431 . S
C162 C161 1.317 . S
C163 Gd104 2.828 . S
C163 O148 1.258 . S
C163 O153 1.252 . S
C163 C164 1.497 . S
C164 C163 1.497 . S
C164 C165 1.395 . S
C164 C166 1.380 . S
C165 C164 1.395 . S
C165 C168 1.398 . S
C165 H180 0.930 . S
C166 C164 1.380 . S
C166 C167 1.391 . S
C166 H181 0.930 1_655 S
C167 C166 1.391 . S
C167 C169 1.387 . S
C168 C165 1.398 . S
C168 C169 1.380 . S
C168 H182 0.930 . S
C169 C167 1.387 . S
C169 C168 1.380 . S
C169 H183 0.930 . S
C170 O150 1.254 1_545 S
C170 O151 1.268 . S
C171 O155 1.284 . S
C171 O158 1.250 1_655 S
C172 Gd105 2.828 . S
C172 O154 1.258 . S
C172 O159 1.252 . S
C172 C173 1.497 . S
C173 C172 1.497 . S
C173 C174 1.395 . S
C173 C175 1.380 . S
C174 C173 1.395 . S
C174 C177 1.398 . S
C174 H184 0.930 . S
C175 C173 1.380 . S
C175 C176 1.391 . S
C175 H185 0.891 1_455 S
C176 C175 1.391 . S
C176 C178 1.387 . S
C177 C174 1.398 . S
C177 C178 1.380 . S
C177 H186 0.930 . S
C178 C176 1.387 . S
C178 C177 1.380 . S
C178 H187 0.930 . S
C179 O156 1.254 . S
C179 O157 1.268 1_545 S
H180 C165 0.930 . S
H181 C166 0.930 1_455 S
H182 C168 0.930 . S
H183 C169 0.930 . S
H184 C174 0.930 . S
H185 C175 0.891 1_655 S
H186 C177 0.930 . S
H187 C178 0.930 . S
Gd188 N219 2.661 . S
Gd188 N225 2.601 . S
Gd188 O232 2.545 . S
Gd188 O233 2.606 1_565 S
Gd188 O235 2.429 . S
Gd188 O236 2.545 1_565 S
Gd188 O237 2.412 1_565 S
Gd188 O239 2.367 . S
Gd188 O240 2.324 1_565 S
Gd188 C247 2.828 . S
Gd189 N198 2.661 . S
Gd189 N202 2.601 . S
Gd189 O233 2.362 . S
Gd189 O234 2.324 1_545 S
Gd189 O238 2.545 . S
Gd189 O239 2.588 1_545 S
Gd189 O241 2.429 . S
Gd189 O242 2.545 . S
Gd189 O243 2.412 . S
Gd189 C256 2.828 . S
C190 C193 1.417 . S
C190 C195 1.431 . S
C190 C196 1.412 . S
C191 C194 1.437 . S
C191 C195 1.317 . S
C191 H210 0.929 . S
C192 C193 1.426 . S
C192 C194 1.413 . S
C192 N202 1.359 . S
C193 C190 1.417 . S
C193 C192 1.426 . S
C193 N198 1.350 . S
C194 C191 1.437 . S
C194 C192 1.413 . S
C194 C204 1.391 . S
C195 C190 1.431 . S
C195 C191 1.317 . S
C195 H206 0.930 1_556 S
C196 C190 1.412 . S
C196 C197 1.355 . S
C196 H208 0.930 1_556 S
C197 C196 1.355 . S
C197 C199 1.402 . S
C197 H209 0.930 1_545 S
N198 Gd189 2.661 . S
N198 C193 1.350 . S
N198 C199 1.307 . S
C199 C197 1.402 . S
C199 N198 1.307 . S
C199 H200 0.930 1_545 S
H200 C199 0.930 1_565 S
C201 N202 1.334 . S
C201 C203 1.394 . S
C201 H205 0.930 . S
N202 Gd189 2.601 . S
N202 C192 1.359 . S
N202 C201 1.334 . S
C203 C201 1.394 . S
C203 C204 1.359 . S
C203 H215 0.930 . S
C204 C194 1.391 . S
C204 C203 1.359 . S
C204 H216 0.929 . S
H205 C201 0.930 . S
H206 C195 0.930 1_554 S
H207 C224 0.930 . S
H208 C196 0.930 1_554 S
H209 C197 0.930 1_565 S
H210 C191 0.929 . S
H211 C229 0.930 . S
H212 C220 0.930 . S
H213 C221 0.930 . S
H214 C245 0.929 . S
H215 C203 0.930 . S
H216 C204 0.929 . S
H217 C246 0.930 . S
H218 C227 0.930 . S
N219 Gd188 2.661 . S
N219 C223 1.350 . S
N219 C224 1.307 1_565 S
C220 H212 0.930 . S
C220 C221 1.355 1_565 S
C220 C222 1.412 . S
C221 H213 0.930 . S
C221 C220 1.355 1_545 S
C221 C224 1.402 . S
C222 C220 1.412 . S
C222 C223 1.417 . S
C222 C246 1.431 . S
C223 N219 1.350 . S
C223 C222 1.417 . S
C223 C226 1.426 . S
C224 H207 0.930 . S
C224 N219 1.307 1_545 S
C224 C221 1.402 . S
N225 Gd188 2.601 . S
N225 C226 1.359 . S
N225 C229 1.334 . S
C226 C223 1.426 . S
C226 N225 1.359 . S
C226 C230 1.413 . S
C227 H218 0.930 . S
C227 C228 1.359 . S
C227 C229 1.394 . S
C228 C227 1.359 . S
C228 C230 1.391 . S
C228 H231 0.929 . S
C229 H211 0.930 . S
C229 N225 1.334 . S
C229 C227 1.394 . S
C230 C226 1.413 . S
C230 C228 1.391 . S
C230 C245 1.437 . S
H231 C228 0.929 . S
O232 Gd188 2.545 . S
O232 C247 1.258 . S
O233 Gd188 2.606 1_545 S
O233 Gd189 2.362 . S
O233 C244 1.284 . S
O234 Gd189 2.324 1_565 S
O234 C254 1.254 . S
O235 Gd188 2.429 . S
O235 C254 1.268 . S
O236 Gd188 2.545 1_545 S
O236 C244 1.250 . S
O237 Gd188 2.412 1_545 S
O237 C247 1.252 1_545 S
O238 Gd189 2.545 . S
O238 C256 1.258 . S
O239 Gd188 2.367 . S
O239 Gd189 2.588 1_565 S
O239 C255 1.284 . S
O240 Gd188 2.324 1_545 S
O240 C263 1.254 . S
O241 Gd189 2.429 . S
O241 C263 1.268 . S
O242 Gd189 2.545 . S
O242 C255 1.253 1_545 S
O243 Gd189 2.412 . S
O243 C256 1.252 . S
C244 O233 1.284 . S
C244 O236 1.250 . S
C245 H214 0.929 . S
C245 C230 1.437 . S
C245 C246 1.317 . S
C246 H217 0.930 . S
C246 C222 1.431 . S
C246 C245 1.317 . S
C247 Gd188 2.828 . S
C247 O232 1.258 . S
C247 O237 1.252 1_565 S
C247 C248 1.497 . S
C248 C247 1.497 . S
C248 C249 1.395 . S
C248 C250 1.349 1_565 S
C249 C248 1.395 . S
C249 C252 1.398 . S
C249 H264 0.930 . S
C250 C248 1.349 1_545 S
C250 C251 1.387 1_545 S
C250 H265 0.965 . S
C251 C250 1.387 1_565 S
C251 C253 1.438 . S
C252 C249 1.398 . S
C252 C253 1.380 . S
C252 H266 0.930 . S
C253 C251 1.438 . S
C253 C252 1.380 . S
C253 H267 0.930 . S
C254 O234 1.254 . S
C254 O235 1.268 . S
C255 O239 1.284 . S
C255 O242 1.253 1_565 S
C256 Gd189 2.828 . S
C256 O238 1.258 . S
C256 O243 1.252 . S
C256 C257 1.497 . S
C257 C256 1.497 . S
C257 C258 1.395 . S
C257 C259 1.380 . S
C258 C257 1.395 . S
C258 C261 1.398 . S
C258 H268 0.930 . S
C259 C257 1.380 . S
C259 C260 1.391 . S
C259 H269 0.930 . S
C260 C259 1.391 . S
C260 C262 1.387 . S
C261 C258 1.398 . S
C261 C262 1.380 . S
C261 H270 0.930 . S
C262 C260 1.387 . S
C262 C261 1.380 . S
C262 H271 0.930 . S
C263 O240 1.254 . S
C263 O241 1.268 . S
H264 C249 0.930 . S
H265 C250 0.965 . S
H266 C252 0.930 . S
H267 C253 0.930 . S
H268 C258 0.930 . S
H269 C259 0.930 . S
H270 C261 0.930 . S
H271 C262 0.930 . S
Gd272 N303 2.661 . S
Gd272 N309 2.601 . S
Gd272 O316 2.545 . S
Gd272 O317 2.606 . S
Gd272 O319 2.429 . S
Gd272 O320 2.545 . S
Gd272 O321 2.412 . S
Gd272 O323 2.362 . S
Gd272 O324 2.324 . S
Gd272 C331 2.828 . S
Gd273 N282 2.661 . S
Gd273 N286 2.601 . S
Gd273 O317 2.362 . S
Gd273 O318 2.324 . S
Gd273 O322 2.545 . S
Gd273 O323 2.606 . S
Gd273 O325 2.429 . S
Gd273 O326 2.545 . S
Gd273 O327 2.412 . S
Gd273 C340 2.828 . S
C274 C277 1.417 . S
C274 C279 1.431 . S
C274 C280 1.412 . S
C275 C278 1.437 . S
C275 C279 1.317 . S
C275 H294 0.929 . S
C276 C277 1.426 . S
C276 C278 1.413 . S
C276 N286 1.359 . S
C277 C274 1.417 . S
C277 C276 1.426 . S
C277 N282 1.350 . S
C278 C275 1.437 . S
C278 C276 1.413 . S
C278 C288 1.391 . S
C279 C274 1.431 . S
C279 C275 1.317 . S
C279 H290 0.930 . S
C280 C274 1.412 . S
C280 C281 1.355 . S
C280 H292 0.930 . S
C281 C280 1.355 . S
C281 C283 1.402 . S
C281 H293 0.930 . S
N282 Gd273 2.661 . S
N282 C277 1.350 . S
N282 C283 1.307 . S
C283 C281 1.402 . S
C283 N282 1.307 . S
C283 H284 0.930 . S
H284 C283 0.930 . S
C285 N286 1.334 . S
C285 C287 1.394 . S
C285 H289 0.930 . S
N286 Gd273 2.601 . S
N286 C276 1.359 . S
N286 C285 1.334 . S
C287 C285 1.394 . S
C287 C288 1.359 . S
C287 H299 0.930 . S
C288 C278 1.391 . S
C288 C287 1.359 . S
C288 H300 0.929 . S
H289 C285 0.930 . S
H290 C279 0.930 . S
H291 C308 0.930 . S
H292 C280 0.930 . S
H293 C281 0.930 . S
H294 C275 0.929 . S
H295 C313 0.930 . S
H296 C304 0.930 . S
H297 C305 0.930 . S
H298 C329 0.929 . S
H299 C287 0.930 . S
H300 C288 0.929 . S
H301 C330 0.930 . S
H302 C311 0.930 . S
N303 Gd272 2.661 . S
N303 C307 1.350 . S
N303 C308 1.307 . S
C304 H296 0.930 . S
C304 C305 1.355 . S
C304 C306 1.412 . S
C305 H297 0.930 . S
C305 C304 1.355 . S
C305 C308 1.402 . S
C306 C304 1.412 . S
C306 C307 1.417 . S
C306 C330 1.431 . S
C307 N303 1.350 . S
C307 C306 1.417 . S
C307 C310 1.426 . S
C308 H291 0.930 . S
C308 N303 1.307 . S
C308 C305 1.402 . S
N309 Gd272 2.601 . S
N309 C310 1.359 . S
N309 C313 1.334 . S
C310 C307 1.426 . S
C310 N309 1.359 . S
C310 C314 1.413 . S
C311 H302 0.930 . S
C311 C312 1.359 . S
C311 C313 1.394 . S
C312 C311 1.359 . S
C312 C314 1.391 . S
C312 H315 0.929 . S
C313 H295 0.930 . S
C313 N309 1.334 . S
C313 C311 1.394 . S
C314 C310 1.413 . S
C314 C312 1.391 . S
C314 C329 1.437 . S
H315 C312 0.929 . S
O316 Gd272 2.545 . S
O316 C331 1.258 . S
O317 Gd272 2.606 . S
O317 Gd273 2.362 . S
O317 C328 1.284 . S
O318 Gd273 2.324 . S
O318 C338 1.254 . S
O319 Gd272 2.429 . S
O319 C338 1.268 . S
O320 Gd272 2.545 . S
O320 C328 1.250 . S
O321 Gd272 2.412 . S
O321 C331 1.252 . S
O322 Gd273 2.545 . S
O322 C340 1.258 . S
O323 Gd272 2.362 . S
O323 Gd273 2.606 . S
O323 C339 1.284 . S
O324 Gd272 2.324 . S
O324 C347 1.254 . S
O325 Gd273 2.429 . S
O325 C347 1.268 . S
O326 Gd273 2.545 . S
O326 C339 1.250 . S
O327 Gd273 2.412 . S
O327 C340 1.252 . S
C328 O317 1.284 . S
C328 O320 1.250 . S
C329 H298 0.929 . S
C329 C314 1.437 . S
C329 C330 1.317 . S
C330 H301 0.930 . S
C330 C306 1.431 . S
C330 C329 1.317 . S
C331 Gd272 2.828 . S
C331 O316 1.258 . S
C331 O321 1.252 . S
C331 C332 1.497 . S
C332 C331 1.497 . S
C332 C333 1.395 . S
C332 C334 1.380 . S
C333 C332 1.395 . S
C333 C336 1.398 1_556 S
C333 H348 0.930 . S
C334 C332 1.380 . S
C334 C335 1.391 . S
C334 H349 0.930 . S
C335 C334 1.391 . S
C335 C337 1.387 1_556 S
C336 C333 1.398 1_554 S
C336 C337 1.380 . S
C336 H350 0.930 . S
C337 C335 1.387 1_554 S
C337 C336 1.380 . S
C337 H351 0.930 . S
C338 O318 1.254 . S
C338 O319 1.268 . S
C339 O323 1.284 . S
C339 O326 1.250 . S
C340 Gd273 2.828 . S
C340 O322 1.258 . S
C340 O327 1.252 . S
C340 C341 1.497 . S
C341 C340 1.497 . S
C341 C342 1.395 . S
C341 C343 1.380 . S
C342 C341 1.395 . S
C342 C345 1.398 . S
C342 H352 0.930 . S
C343 C341 1.380 . S
C343 C344 1.391 . S
C343 H353 0.930 . S
C344 C343 1.391 . S
C344 C346 1.387 . S
C345 C342 1.398 . S
C345 C346 1.380 . S
C345 H354 0.930 . S
C346 C344 1.387 . S
C346 C345 1.380 . S
C346 H355 0.930 . S
C347 O324 1.254 . S
C347 O325 1.268 . S
H348 C333 0.930 . S
H349 C334 0.930 . S
H350 C336 0.930 . S
H351 C337 0.930 . S
H352 C342 0.930 . S
H353 C343 0.930 . S
H354 C345 0.930 . S
H355 C346 0.930 . S
Gd356 N387 2.661 . S
Gd356 N393 2.601 . S
Gd356 O400 2.545 . S
Gd356 O401 2.606 1_655 S
Gd356 O403 2.429 1_655 S
Gd356 O404 2.545 . S
Gd356 O405 2.412 . S
Gd356 O407 2.362 1_655 S
Gd356 O408 2.324 . S
Gd356 C415 2.828 . S
Gd357 N366 2.661 . S
Gd357 N370 2.601 . S
Gd357 O401 2.362 . S
Gd357 O402 2.324 . S
Gd357 O406 2.545 . S
Gd357 O407 2.606 . S
Gd357 O409 2.429 1_455 S
Gd357 O410 2.545 . S
Gd357 O411 2.412 . S
Gd357 C424 2.828 . S
C358 C361 1.417 . S
C358 C363 1.431 . S
C358 C364 1.412 . S
C359 C362 1.437 . S
C359 C363 1.317 . S
C359 H378 0.929 . S
C360 C361 1.426 . S
C360 C362 1.413 . S
C360 N370 1.359 . S
C361 C358 1.417 . S
C361 C360 1.426 . S
C361 N366 1.350 . S
C362 C359 1.437 . S
C362 C360 1.413 . S
C362 C372 1.391 . S
C363 C358 1.431 . S
C363 C359 1.317 . S
C363 H374 0.930 . S
C364 C358 1.412 . S
C364 C365 1.355 . S
C364 H376 0.930 . S
C365 C364 1.355 . S
C365 C367 1.402 . S
C365 H377 0.930 . S
N366 Gd357 2.661 . S
N366 C361 1.350 . S
N366 C367 1.307 . S
C367 C365 1.402 . S
C367 N366 1.307 . S
C367 H368 0.930 . S
H368 C367 0.930 . S
C369 N370 1.334 . S
C369 C371 1.394 1_455 S
C369 H373 0.930 1_455 S
N370 Gd357 2.601 . S
N370 C360 1.359 . S
N370 C369 1.334 . S
C371 C369 1.394 1_655 S
C371 C372 1.356 1_655 S
C371 H383 0.934 . S
C372 C362 1.391 . S
C372 C371 1.356 1_455 S
C372 H384 0.929 . S
H373 C369 0.930 1_655 S
H374 C363 0.930 . S
H375 C392 0.930 . S
H376 C364 0.930 . S
H377 C365 0.930 . S
H378 C359 0.929 . S
H379 C397 0.930 . S
H380 C388 0.930 . S
H381 C389 0.930 . S
H382 C413 0.929 . S
H383 C371 0.934 . S
H384 C372 0.929 . S
H385 C414 0.930 . S
H386 C395 0.930 . S
N387 Gd356 2.661 . S
N387 C391 1.350 . S
N387 C392 1.307 . S
C388 H380 0.930 . S
C388 C389 1.355 . S
C388 C390 1.412 . S
C389 H381 0.930 . S
C389 C388 1.355 . S
C389 C392 1.402 . S
C390 C388 1.412 . S
C390 C391 1.417 . S
C390 C414 1.431 . S
C391 N387 1.350 . S
C391 C390 1.417 . S
C391 C394 1.426 . S
C392 H375 0.930 . S
C392 N387 1.307 . S
C392 C389 1.402 . S
N393 Gd356 2.601 . S
N393 C394 1.359 . S
N393 C397 1.334 1_655 S
C394 C391 1.426 . S
C394 N393 1.359 . S
C394 C398 1.413 . S
C395 H386 0.930 . S
C395 C396 1.359 . S
C395 C397 1.394 . S
C396 C395 1.359 . S
C396 C398 1.391 1_455 S
C396 H399 0.929 . S
C397 H379 0.930 . S
C397 N393 1.334 1_455 S
C397 C395 1.394 . S
C398 C394 1.413 . S
C398 C396 1.391 1_655 S
C398 C413 1.437 . S
H399 C396 0.929 . S
O400 Gd356 2.545 . S
O400 C415 1.258 . S
O401 Gd356 2.606 1_455 S
O401 Gd357 2.362 . S
O401 C412 1.284 1_455 S
O402 Gd357 2.324 . S
O402 C422 1.254 . S
O403 Gd356 2.429 1_455 S
O403 C422 1.268 . S
O404 Gd356 2.545 . S
O404 C412 1.250 . S
O405 Gd356 2.412 . S
O405 C415 1.252 . S
O406 Gd357 2.545 . S
O406 C424 1.258 . S
O407 Gd356 2.362 1_455 S
O407 Gd357 2.606 . S
O407 C423 1.284 . S
O408 Gd356 2.324 . S
O408 C431 1.254 . S
O409 Gd357 2.429 1_655 S
O409 C431 1.268 . S
O410 Gd357 2.545 . S
O410 C423 1.250 . S
O411 Gd357 2.412 . S
O411 C424 1.252 . S
C412 O401 1.284 1_655 S
C412 O404 1.250 . S
C413 H382 0.929 . S
C413 C398 1.437 . S
C413 C414 1.317 . S
C414 H385 0.930 . S
C414 C390 1.431 . S
C414 C413 1.317 . S
C415 Gd356 2.828 . S
C415 O400 1.258 . S
C415 O405 1.252 . S
C415 C416 1.497 . S
C416 C415 1.497 . S
C416 C417 1.395 . S
C416 C418 1.380 . S
C417 C416 1.395 . S
C417 C420 1.398 1_556 S
C417 H432 0.930 . S
C418 C416 1.380 . S
C418 C419 1.391 . S
C418 H433 0.930 . S
C419 C418 1.391 . S
C419 C421 1.387 1_556 S
C420 C417 1.398 1_554 S
C420 C421 1.380 . S
C420 H434 0.930 . S
C421 C419 1.387 1_554 S
C421 C420 1.380 . S
C421 H435 0.930 . S
C422 O402 1.254 . S
C422 O403 1.268 . S
C423 O407 1.284 . S
C423 O410 1.250 . S
C424 Gd357 2.828 . S
C424 O406 1.258 . S
C424 O411 1.252 . S
C424 C425 1.497 . S
C425 C424 1.497 . S
C425 C426 1.395 . S
C425 C427 1.380 . S
C426 C425 1.395 . S
C426 C429 1.398 . S
C426 H436 0.930 . S
C427 C425 1.380 . S
C427 C428 1.391 . S
C427 H437 0.930 . S
C428 C427 1.391 . S
C428 C430 1.387 . S
C429 C426 1.398 . S
C429 C430 1.380 . S
C429 H438 0.930 . S
C430 C428 1.387 . S
C430 C429 1.380 . S
C430 H439 0.930 . S
C431 O408 1.254 . S
C431 O409 1.268 . S
H432 C417 0.930 . S
H433 C418 0.930 . S
H434 C420 0.930 . S
H435 C421 0.930 . S
H436 C426 0.930 . S
H437 C427 0.930 . S
H438 C429 0.930 . S
H439 C430 0.930 . S
C440 C441 1.349 . S
C440 C442 1.327 . S
C440 H465 0.950 . S
C441 C440 1.349 . S
C441 C457 1.349 . S
C442 C440 1.327 . S
C442 C461 1.429 . S
C442 H466 0.950 . S
C443 C460 1.574 . S
C443 C462 1.368 . S
C443 H467 0.949 . S
H444 C448 0.949 . S
C445 C446 1.349 . S
C445 C447 1.327 . S
C445 H468 0.950 . S
C446 C445 1.349 . S
C446 C458 1.349 . S
C447 C445 1.327 . S
C447 C463 1.429 . S
C447 H469 0.950 . S
C448 H444 0.949 . S
C448 C456 1.574 . S
C448 C464 1.368 . S
H449 C457 0.950 . S
H450 C455 0.950 . S
H451 C456 0.949 . S
H452 C458 0.926 1_565 S
H453 C459 0.950 . S
H454 C460 0.949 . S
C455 H450 0.950 . S
C455 C457 1.327 . S
C455 C461 1.429 . S
C456 C448 1.574 . S
C456 H451 0.949 . S
C456 C462 1.368 . S
C457 C441 1.349 . S
C457 H449 0.950 . S
C457 C455 1.327 . S
C458 C446 1.349 . S
C458 H452 0.926 1_545 S
C458 C459 1.327 . S
C459 H453 0.950 . S
C459 C458 1.327 . S
C459 C463 1.429 . S
C460 C443 1.574 . S
C460 H454 0.949 . S
C460 C464 1.368 . S
C461 C442 1.429 . S
C461 C455 1.429 . S
C461 C462 1.523 . S
C462 C443 1.368 . S
C462 C456 1.368 . S
C462 C461 1.523 . S
C463 C447 1.429 . S
C463 C459 1.429 . S
C463 C464 1.523 . S
C464 C448 1.368 . S
C464 C460 1.368 . S
C464 C463 1.523 . S
H465 C440 0.950 . S
H466 C442 0.950 . S
H467 C443 0.949 . S
H468 C445 0.950 . S
H469 C447 0.950 . S
C470 C471 1.349 . S
C470 C472 1.327 . S
C470 H495 0.950 . S
C471 C470 1.349 . S
C471 C487 1.349 . S
C472 C470 1.327 . S
C472 C491 1.429 . S
C472 H496 0.950 . S
C473 C490 1.574 . S
C473 C492 1.368 . S
C473 H497 0.949 . S
H474 C478 0.949 . S
C475 C476 1.349 . S
C475 C477 1.327 . S
C475 H498 0.950 . S
C476 C475 1.349 . S
C476 C488 1.349 . S
C477 C475 1.327 . S
C477 C493 1.429 . S
C477 H499 0.950 . S
C478 H474 0.949 . S
C478 C486 1.574 . S
C478 C494 1.368 . S
H479 C487 0.950 . S
H480 C485 0.950 . S
H481 C486 0.949 . S
H482 C488 0.950 . S
H483 C489 0.950 . S
H484 C490 0.949 . S
C485 H480 0.950 . S
C485 C487 1.327 . S
C485 C491 1.429 . S
C486 C478 1.574 . S
C486 H481 0.949 . S
C486 C492 1.368 . S
C487 C471 1.349 . S
C487 H479 0.950 . S
C487 C485 1.327 . S
C488 C476 1.349 . S
C488 H482 0.950 . S
C488 C489 1.327 . S
C489 H483 0.950 . S
C489 C488 1.327 . S
C489 C493 1.429 . S
C490 C473 1.574 . S
C490 H484 0.949 . S
C490 C494 1.368 . S
C491 C472 1.429 . S
C491 C485 1.429 . S
C491 C492 1.523 . S
C492 C473 1.368 . S
C492 C486 1.368 . S
C492 C491 1.523 . S
C493 C477 1.429 . S
C493 C489 1.429 . S
C493 C494 1.523 . S
C494 C478 1.368 . S
C494 C490 1.368 . S
C494 C493 1.523 . S
H495 C470 0.950 . S
H496 C472 0.950 . S
H497 C473 0.949 . S
H498 C475 0.950 . S
H499 C477 0.950 . S
C500 C501 1.349 . S
C500 C502 1.327 . S
C500 H525 0.950 . S
C501 C500 1.349 . S
C501 C517 1.349 . S
C502 C500 1.327 . S
C502 C521 1.429 . S
C502 H526 0.950 . S
C503 C520 1.574 . S
C503 C522 1.368 . S
C503 H527 0.949 . S
H504 C508 0.949 . S
C505 C506 1.349 . S
C505 C507 1.327 . S
C505 H528 0.950 . S
C506 C505 1.349 . S
C506 C518 1.349 . S
C507 C505 1.327 . S
C507 C523 1.429 . S
C507 H529 0.950 . S
C508 H504 0.949 . S
C508 C516 1.574 . S
C508 C524 1.368 . S
H509 C517 0.950 . S
H510 C515 0.950 . S
H511 C516 0.949 . S
H512 C518 0.950 . S
H513 C519 0.950 . S
H514 C520 0.949 . S
C515 H510 0.950 . S
C515 C517 1.327 . S
C515 C521 1.429 . S
C516 C508 1.574 . S
C516 H511 0.949 . S
C516 C522 1.368 . S
C517 C501 1.349 . S
C517 H509 0.950 . S
C517 C515 1.327 . S
C518 C506 1.349 . S
C518 H512 0.950 . S
C518 C519 1.327 . S
C519 H513 0.950 . S
C519 C518 1.327 . S
C519 C523 1.429 . S
C520 C503 1.574 . S
C520 H514 0.949 . S
C520 C524 1.368 . S
C521 C502 1.429 . S
C521 C515 1.429 . S
C521 C522 1.523 . S
C522 C503 1.368 . S
C522 C516 1.368 . S
C522 C521 1.523 . S
C523 C507 1.429 . S
C523 C519 1.429 . S
C523 C524 1.523 . S
C524 C508 1.368 . S
C524 C520 1.368 . S
C524 C523 1.523 . S
H525 C500 0.950 . S
H526 C502 0.950 . S
H527 C503 0.949 . S
H528 C505 0.950 . S
H529 C507 0.950 . S
C530 C531 1.349 . S
C530 C532 1.327 . S
C530 H555 0.950 . S
C531 C530 1.349 . S
C531 C547 1.349 . S
C532 C530 1.327 . S
C532 C551 1.429 . S
C532 H556 0.950 . S
C533 C550 1.574 . S
C533 C552 1.368 . S
C533 H557 0.949 . S
H534 C538 0.949 . S
C535 C536 1.349 . S
C535 C537 1.327 . S
C535 H558 0.950 . S
C536 C535 1.349 . S
C536 C548 1.349 . S
C537 C535 1.327 . S
C537 C553 1.429 . S
C537 H559 0.950 . S
C538 H534 0.949 . S
C538 C546 1.574 . S
C538 C554 1.368 . S
H539 C547 0.950 . S
H540 C545 0.950 . S
H541 C546 0.949 . S
H542 C548 0.950 . S
H543 C549 0.950 . S
H544 C550 0.949 . S
C545 H540 0.950 . S
C545 C547 1.327 . S
C545 C551 1.429 . S
C546 C538 1.574 . S
C546 H541 0.949 . S
C546 C552 1.368 . S
C547 C531 1.349 . S
C547 H539 0.950 . S
C547 C545 1.327 . S
C548 C536 1.349 . S
C548 H542 0.950 . S
C548 C549 1.327 . S
C549 H543 0.950 . S
C549 C548 1.327 . S
C549 C553 1.429 . S
C550 C533 1.574 . S
C550 H544 0.949 . S
C550 C554 1.368 . S
C551 C532 1.429 . S
C551 C545 1.429 . S
C551 C552 1.523 . S
C552 C533 1.368 . S
C552 C546 1.368 . S
C552 C551 1.523 . S
C553 C537 1.429 . S
C553 C549 1.429 . S
C553 C554 1.523 . S
C554 C538 1.368 . S
C554 C550 1.368 . S
C554 C553 1.523 . S
H555 C530 0.950 . S
H556 C532 0.950 . S
H557 C533 0.949 . S
H558 C535 0.950 . S
H559 C537 0.950 . S
C560 C561 1.349 . S
C560 C562 1.327 . S
C560 H585 0.950 . S
C561 C560 1.349 . S
C561 C577 1.349 . S
C562 C560 1.327 . S
C562 C581 1.429 . S
C562 H586 0.950 . S
C563 C580 1.574 1_554 S
C563 C582 1.368 . S
C563 H587 0.949 . S
H564 C568 0.949 . S
C565 C566 1.349 1_545 S
C565 C567 1.319 1_545 S
C565 H588 0.950 . S
C566 C565 1.349 1_565 S
C566 C578 1.349 . S
C567 C565 1.319 1_565 S
C567 C583 1.460 . S
C567 H589 0.930 1_565 S
C568 H564 0.949 . S
C568 C576 1.574 . S
C568 C584 1.368 . S
H569 C577 0.950 . S
H570 C575 0.950 . S
H571 C576 0.949 . S
H572 C578 0.950 . S
H573 C579 0.950 . S
H574 C580 0.961 1_554 S
C575 H570 0.950 . S
C575 C577 1.327 . S
C575 C581 1.429 . S
C576 C568 1.574 . S
C576 H571 0.949 . S
C576 C582 1.368 1_556 S
C577 C561 1.349 . S
C577 H569 0.950 . S
C577 C575 1.327 . S
C578 C566 1.349 . S
C578 H572 0.950 . S
C578 C579 1.327 . S
C579 H573 0.950 . S
C579 C578 1.327 . S
C579 C583 1.429 . S
C580 C563 1.574 1_556 S
C580 H574 0.961 1_556 S
C580 C584 1.368 . S
C581 C562 1.429 . S
C581 C575 1.429 . S
C581 C582 1.523 . S
C582 C563 1.368 . S
C582 C576 1.368 1_554 S
C582 C581 1.523 . S
C583 C567 1.460 . S
C583 C579 1.429 . S
C583 C584 1.523 . S
C584 C568 1.368 . S
C584 C580 1.368 . S
C584 C583 1.523 . S
H585 C560 0.950 . S
H586 C562 0.950 . S
H587 C563 0.949 . S
H588 C565 0.950 . S
H589 C567 0.930 1_545 S
C590 C591 1.349 . S
C590 C592 1.327 . S
C590 H615 0.950 . S
C591 C590 1.349 . S
C591 C607 1.349 . S
C592 C590 1.327 . S
C592 C611 1.429 . S
C592 H616 0.950 . S
C593 C610 1.574 1_554 S
C593 C612 1.368 . S
C593 H617 0.949 . S
H594 C598 0.949 . S
C595 C596 1.349 . S
C595 C597 1.327 . S
C595 H618 0.950 . S
C596 C595 1.349 . S
C596 C608 1.349 . S
C597 C595 1.327 . S
C597 C613 1.429 . S
C597 H619 0.950 . S
C598 H594 0.949 . S
C598 C606 1.574 . S
C598 C614 1.368 . S
H599 C607 0.950 . S
H600 C605 0.950 . S
H601 C606 0.949 . S
H602 C608 0.950 . S
H603 C609 0.950 . S
H604 C610 0.949 . S
C605 H600 0.950 . S
C605 C607 1.327 . S
C605 C611 1.429 . S
C606 C598 1.574 . S
C606 H601 0.949 . S
C606 C612 1.368 1_556 S
C607 C591 1.349 . S
C607 H599 0.950 . S
C607 C605 1.327 . S
C608 C596 1.349 . S
C608 H602 0.950 . S
C608 C609 1.327 . S
C609 H603 0.950 . S
C609 C608 1.327 . S
C609 C613 1.429 . S
C610 C593 1.574 1_556 S
C610 H604 0.949 . S
C610 C614 1.368 . S
C611 C592 1.429 . S
C611 C605 1.429 . S
C611 C612 1.523 . S
C612 C593 1.368 . S
C612 C606 1.368 1_554 S
C612 C611 1.523 . S
C613 C597 1.429 . S
C613 C609 1.429 . S
C613 C614 1.523 . S
C614 C598 1.368 . S
C614 C610 1.368 . S
C614 C613 1.523 . S
H615 C590 0.950 . S
H616 C592 0.950 . S
H617 C593 0.949 . S
H618 C595 0.950 . S
H619 C597 0.950 . S
C620 C621 1.349 . S
C620 C622 1.327 . S
C620 H645 0.950 . S
C621 C620 1.349 . S
C621 C637 1.349 . S
C622 C620 1.327 . S
C622 C641 1.429 . S
C622 H646 0.950 . S
C623 C640 1.574 . S
C623 C642 1.368 1_556 S
C623 H647 0.949 . S
H624 C628 0.949 . S
C625 C626 1.349 . S
C625 C627 1.327 . S
C625 H648 0.950 . S
C626 C625 1.349 . S
C626 C638 1.349 . S
C627 C625 1.327 . S
C627 C643 1.429 . S
C627 H649 0.950 . S
C628 H624 0.949 . S
C628 C636 1.574 1_556 S
C628 C644 1.368 . S
H629 C637 0.950 . S
H630 C635 0.950 . S
H631 C636 0.949 . S
H632 C638 0.950 . S
H633 C639 0.950 . S
H634 C640 0.949 . S
C635 H630 0.950 . S
C635 C637 1.327 . S
C635 C641 1.429 . S
C636 C628 1.574 1_554 S
C636 H631 0.949 . S
C636 C642 1.368 . S
C637 C621 1.349 . S
C637 H629 0.950 . S
C637 C635 1.327 . S
C638 C626 1.349 . S
C638 H632 0.950 . S
C638 C639 1.327 . S
C639 H633 0.950 . S
C639 C638 1.327 . S
C639 C643 1.429 . S
C640 C623 1.574 . S
C640 H634 0.949 . S
C640 C644 1.368 . S
C641 C622 1.429 . S
C641 C635 1.429 . S
C641 C642 1.523 . S
C642 C623 1.368 1_554 S
C642 C636 1.368 . S
C642 C641 1.523 . S
C643 C627 1.429 . S
C643 C639 1.429 . S
C643 C644 1.523 . S
C644 C628 1.368 . S
C644 C640 1.368 . S
C644 C643 1.523 . S
H645 C620 0.950 . S
H646 C622 0.950 . S
H647 C623 0.949 . S
H648 C625 0.950 . S
H649 C627 0.950 . S
C650 C651 1.349 . S
C650 C652 1.327 . S
C650 H675 0.950 . S
C651 C650 1.349 . S
C651 C667 1.349 . S
C652 C650 1.327 . S
C652 C671 1.429 . S
C652 H676 0.950 . S
C653 C670 1.574 . S
C653 C672 1.368 1_556 S
C653 H677 0.949 1_556 S
H654 C658 0.949 . S
C655 C656 1.349 1_455 S
C655 C657 1.327 . S
C655 H678 0.950 . S
C656 C655 1.349 1_655 S
C656 C668 1.349 . S
C657 C655 1.327 . S
C657 C673 1.429 1_455 S
C657 H679 0.950 . S
C658 H654 0.949 . S
C658 C666 1.574 1_556 S
C658 C674 1.368 . S
H659 C667 0.950 . S
H660 C665 0.950 . S
H661 C666 0.949 . S
H662 C668 0.950 . S
H663 C669 0.950 . S
H664 C670 0.949 1_455 S
C665 H660 0.950 . S
C665 C667 1.327 . S
C665 C671 1.429 . S
C666 C658 1.574 1_554 S
C666 H661 0.949 . S
C666 C672 1.368 . S
C667 C651 1.349 . S
C667 H659 0.950 . S
C667 C665 1.327 . S
C668 C656 1.349 . S
C668 H662 0.950 . S
C668 C669 1.327 . S
C669 H663 0.950 . S
C669 C668 1.327 . S
C669 C673 1.429 . S
C670 C653 1.574 . S
C670 H664 0.949 1_655 S
C670 C674 1.368 . S
C671 C652 1.429 . S
C671 C665 1.429 . S
C671 C672 1.523 . S
C672 C653 1.368 1_554 S
C672 C666 1.368 . S
C672 C671 1.523 . S
C673 C657 1.429 1_655 S
C673 C669 1.429 . S
C673 C674 1.523 . S
C674 C658 1.368 . S
C674 C670 1.368 . S
C674 C673 1.523 . S
H675 C650 0.950 . S
H676 C652 0.950 . S
H677 C653 0.949 1_554 S
H678 C655 0.950 . S
H679 C657 0.950 . S
C680 C681 1.349 . S
C680 C682 1.327 . S
C680 H705 0.950 . S
C681 C680 1.349 . S
C681 C697 1.349 . S
C682 C680 1.327 . S
C682 C701 1.429 . S
C682 H706 0.950 . S
C683 C700 1.574 . S
C683 C702 1.368 . S
C683 H707 0.949 . S
H684 C688 0.949 . S
C685 C686 1.349 . S
C685 C687 1.327 . S
C685 H708 0.950 . S
C686 C685 1.349 . S
C686 C698 1.349 1_455 S
C687 C685 1.327 . S
C687 C703 1.429 . S
C687 H709 0.950 . S
C688 H684 0.949 . S
C688 C696 1.574 . S
C688 C704 1.368 . S
H689 C697 0.950 1_556 S
H690 C695 0.950 . S
H691 C696 0.949 . S
H692 C698 0.950 . S
H693 C699 0.956 . S
H694 C700 0.949 . S
C695 H690 0.950 . S
C695 C697 1.327 . S
C695 C701 1.429 . S
C696 C688 1.574 . S
C696 H691 0.949 . S
C696 C702 1.368 . S
C697 C681 1.349 . S
C697 H689 0.950 1_554 S
C697 C695 1.327 . S
C698 C686 1.349 1_655 S
C698 H692 0.950 . S
C698 C699 1.327 1_655 S
C699 H693 0.956 . S
C699 C698 1.327 1_455 S
C699 C703 1.429 . S
C700 C683 1.574 . S
C700 H694 0.949 . S
C700 C704 1.368 . S
C701 C682 1.429 . S
C701 C695 1.429 . S
C701 C702 1.523 . S
C702 C683 1.368 . S
C702 C696 1.368 . S
C702 C701 1.523 . S
C703 C687 1.429 . S
C703 C699 1.429 . S
C703 C704 1.523 . S
C704 C688 1.368 . S
C704 C700 1.368 . S
C704 C703 1.523 . S
H705 C680 0.950 . S
H706 C682 0.950 . S
H707 C683 0.949 . S
H708 C685 0.950 . S
H709 C687 0.950 . S
C710 C711 1.349 . S
C710 C712 1.327 . S
C710 H735 0.950 . S
C711 C710 1.349 . S
C711 C727 1.349 . S
C712 C710 1.327 . S
C712 C731 1.429 . S
C712 H736 0.950 . S
C713 C730 1.574 . S
C713 C732 1.368 . S
C713 H737 0.949 . S
H714 C718 0.949 . S
C715 C716 1.349 1_565 S
C715 C717 1.338 . S
C715 H738 0.950 . S
C716 C715 1.349 1_545 S
C716 C728 1.349 . S
C717 C715 1.338 . S
C717 C733 1.396 1_565 S
C717 H739 0.973 . S
C718 H714 0.949 . S
C718 C726 1.574 . S
C718 C734 1.368 . S
H719 C727 0.950 . S
H720 C725 0.950 . S
H721 C726 0.949 . S
H722 C728 0.950 . S
H723 C729 0.950 . S
H724 C730 0.949 1_565 S
C725 H720 0.950 . S
C725 C727 1.327 . S
C725 C731 1.429 . S
C726 C718 1.574 . S
C726 H721 0.949 . S
C726 C732 1.368 . S
C727 C711 1.349 . S
C727 H719 0.950 . S
C727 C725 1.327 . S
C728 C716 1.349 . S
C728 H722 0.950 . S
C728 C729 1.327 . S
C729 H723 0.950 . S
C729 C728 1.327 . S
C729 C733 1.429 . S
C730 C713 1.574 . S
C730 H724 0.949 1_545 S
C730 C734 1.368 . S
C731 C712 1.429 . S
C731 C725 1.429 . S
C731 C732 1.523 . S
C732 C713 1.368 . S
C732 C726 1.368 . S
C732 C731 1.523 . S
C733 C717 1.396 1_545 S
C733 C729 1.429 . S
C733 C734 1.523 . S
C734 C718 1.368 . S
C734 C730 1.368 . S
C734 C733 1.523 . S
H735 C710 0.950 . S
H736 C712 0.950 . S
H737 C713 0.949 . S
H738 C715 0.950 . S
H739 C717 0.973 . S
C740 C741 1.349 . S
C740 C742 1.327 . S
C740 H765 0.950 1_554 S
C741 C740 1.349 . S
C741 C757 1.349 . S
C742 C740 1.327 . S
C742 C761 1.429 . S
C742 H766 0.950 . S
C743 C760 1.574 . S
C743 C762 1.368 . S
C743 H767 0.949 . S
H744 C748 0.949 . S
C745 C746 1.349 . S
C745 C747 1.327 . S
C745 H768 0.950 . S
C746 C745 1.349 . S
C746 C758 1.349 . S
C747 C745 1.327 . S
C747 C763 1.429 . S
C747 H769 0.950 . S
C748 H744 0.949 . S
C748 C756 1.574 . S
C748 C764 1.368 . S
H749 C757 0.950 . S
H750 C755 0.950 . S
H751 C756 0.949 . S
H752 C758 0.950 . S
H753 C759 0.950 . S
H754 C760 0.949 . S
C755 H750 0.950 . S
C755 C757 1.327 . S
C755 C761 1.429 . S
C756 C748 1.574 . S
C756 H751 0.949 . S
C756 C762 1.368 . S
C757 C741 1.349 . S
C757 H749 0.950 . S
C757 C755 1.327 . S
C758 C746 1.349 . S
C758 H752 0.950 . S
C758 C759 1.327 . S
C759 H753 0.950 . S
C759 C758 1.327 . S
C759 C763 1.429 . S
C760 C743 1.574 . S
C760 H754 0.949 . S
C760 C764 1.368 . S
C761 C742 1.429 . S
C761 C755 1.429 . S
C761 C762 1.523 . S
C762 C743 1.368 . S
C762 C756 1.368 . S
C762 C761 1.523 . S
C763 C747 1.429 . S
C763 C759 1.429 . S
C763 C764 1.523 . S
C764 C748 1.368 . S
C764 C760 1.368 . S
C764 C763 1.523 . S
H765 C740 0.950 1_556 S
H766 C742 0.950 . S
H767 C743 0.949 . S
H768 C745 0.950 . S
H769 C747 0.950 . S
C770 C771 1.349 . S
C770 C772 1.327 . S
C770 H795 0.950 . S
C771 C770 1.349 . S
C771 C787 1.349 . S
C772 C770 1.327 . S
C772 C791 1.429 . S
C772 H796 0.950 . S
C773 C790 1.574 . S
C773 C792 1.368 . S
C773 H797 0.949 . S
H774 C778 0.949 . S
C775 C776 1.349 . S
C775 C777 1.327 . S
C775 H798 0.950 . S
C776 C775 1.349 . S
C776 C788 1.349 . S
C777 C775 1.327 . S
C777 C793 1.429 . S
C777 H799 0.950 . S
C778 H774 0.949 . S
C778 C786 1.574 . S
C778 C794 1.368 . S
H779 C787 0.950 1_556 S
H780 C785 0.950 . S
H781 C786 0.949 . S
H782 C788 0.950 . S
H783 C789 0.950 . S
H784 C790 0.949 . S
C785 H780 0.950 . S
C785 C787 1.327 . S
C785 C791 1.429 . S
C786 C778 1.574 . S
C786 H781 0.949 . S
C786 C792 1.368 . S
C787 C771 1.349 . S
C787 H779 0.950 1_554 S
C787 C785 1.327 . S
C788 C776 1.349 . S
C788 H782 0.950 . S
C788 C789 1.327 . S
C789 H783 0.950 . S
C789 C788 1.327 . S
C789 C793 1.429 . S
C790 C773 1.574 . S
C790 H784 0.949 . S
C790 C794 1.368 . S
C791 C772 1.429 . S
C791 C785 1.429 . S
C791 C792 1.523 . S
C792 C773 1.368 . S
C792 C786 1.368 . S
C792 C791 1.523 . S
C793 C777 1.429 . S
C793 C789 1.429 . S
C793 C794 1.523 . S
C794 C778 1.368 . S
C794 C790 1.368 . S
C794 C793 1.523 . S
H795 C770 0.950 . S
H796 C772 0.950 . S
H797 C773 0.949 . S
H798 C775 0.950 . S
H799 C777 0.950 . S
C800 C801 1.349 . S
C800 C802 1.327 . S
C800 H825 0.950 . S
C801 C800 1.349 . S
C801 C817 1.349 . S
C802 C800 1.327 . S
C802 C821 1.429 . S
C802 H826 0.950 . S
C803 C820 1.574 . S
C803 C822 1.368 . S
C803 H827 0.949 . S
H804 C808 0.949 1_455 S
C805 C806 1.349 1_655 S
C805 C807 1.327 . S
C805 H828 0.950 . S
C806 C805 1.349 1_455 S
C806 C818 1.349 . S
C807 C805 1.327 . S
C807 C823 1.429 . S
C807 H829 0.950 . S
C808 H804 0.949 1_655 S
C808 C816 1.574 . S
C808 C824 1.368 . S
H809 C817 0.950 . S
H810 C815 0.950 . S
H811 C816 0.977 . S
H812 C818 0.950 . S
H813 C819 0.950 1_554 S
H814 C820 0.949 1_556 S
C815 H810 0.950 . S
C815 C817 1.327 . S
C815 C821 1.429 . S
C816 C808 1.574 . S
C816 H811 0.977 . S
C816 C822 1.368 . S
C817 C801 1.349 . S
C817 H809 0.950 . S
C817 C815 1.327 . S
C818 C806 1.349 . S
C818 H812 0.950 . S
C818 C819 1.327 . S
C819 H813 0.950 1_556 S
C819 C818 1.327 . S
C819 C823 1.429 1_455 S
C820 C803 1.574 . S
C820 H814 0.949 1_554 S
C820 C824 1.368 . S
C821 C802 1.429 . S
C821 C815 1.429 . S
C821 C822 1.523 . S
C822 C803 1.368 . S
C822 C816 1.368 . S
C822 C821 1.523 . S
C823 C807 1.429 . S
C823 C819 1.429 1_655 S
C823 C824 1.523 1_556 S
C824 C808 1.368 . S
C824 C820 1.368 . S
C824 C823 1.523 1_554 S
H825 C800 0.950 . S
H826 C802 0.950 . S
H827 C803 0.949 . S
H828 C805 0.950 . S
H829 C807 0.950 . S
C830 C831 1.349 . S
C830 C832 1.327 . S
C830 H855 0.950 . S
C831 C830 1.349 . S
C831 C847 1.349 . S
C832 C830 1.327 . S
C832 C851 1.429 . S
C832 H856 0.950 . S
C833 C850 1.574 1_565 S
C833 C852 1.368 . S
C833 H857 0.949 1_565 S
H834 C838 0.946 1_556 S
C835 C836 1.349 . S
C835 C837 1.327 . S
C835 H858 0.950 . S
C836 C835 1.349 . S
C836 C848 1.349 1_545 S
C837 C835 1.327 . S
C837 C853 1.429 1_545 S
C837 H859 0.950 1_556 S
C838 H834 0.946 1_554 S
C838 C846 1.574 . S
C838 C854 1.368 . S
H839 C847 0.950 . S
H840 C845 0.950 . S
H841 C846 0.949 . S
H842 C848 0.950 . S
H843 C849 0.950 . S
H844 C850 0.949 . S
C845 H840 0.950 . S
C845 C847 1.327 . S
C845 C851 1.429 . S
C846 C838 1.574 . S
C846 H841 0.949 . S
C846 C852 1.368 . S
C847 C831 1.349 . S
C847 H839 0.950 . S
C847 C845 1.327 . S
C848 C836 1.349 1_565 S
C848 H842 0.950 . S
C848 C849 1.327 . S
C849 H843 0.950 . S
C849 C848 1.327 . S
C849 C853 1.429 . S
C850 C833 1.574 1_545 S
C850 H844 0.949 . S
C850 C854 1.368 1_545 S
C851 C832 1.429 . S
C851 C845 1.429 . S
C851 C852 1.523 . S
C852 C833 1.368 . S
C852 C846 1.368 . S
C852 C851 1.523 . S
C853 C837 1.429 1_565 S
C853 C849 1.429 . S
C853 C854 1.523 1_556 S
C854 C838 1.368 . S
C854 C850 1.368 1_565 S
C854 C853 1.523 1_554 S
H855 C830 0.950 . S
H856 C832 0.950 . S
H857 C833 0.949 1_545 S
H858 C835 0.950 . S
H859 C837 0.950 1_554 S
C860 C861 1.349 . S
C860 C862 1.327 . S
C860 H885 0.950 . S
C861 C860 1.349 . S
C861 C877 1.349 . S
C862 C860 1.327 . S
C862 C881 1.429 . S
C862 H886 0.950 . S
C863 C880 1.574 . S
C863 C882 1.368 . S
C863 H887 0.949 . S
H864 C868 0.949 . S
C865 C866 1.349 . S
C865 C867 1.327 1_556 S
C865 H888 0.950 1_556 S
C866 C865 1.349 . S
C866 C878 1.349 . S
C867 C865 1.327 1_554 S
C867 C883 1.429 1_554 S
C867 H889 0.950 . S
C868 H864 0.949 . S
C868 C876 1.574 1_556 S
C868 C884 1.368 1_556 S
H869 C877 0.950 . S
H870 C875 0.950 . S
H871 C876 0.949 . S
H872 C878 0.950 . S
H873 C879 0.950 . S
H874 C880 0.949 . S
C875 H870 0.950 . S
C875 C877 1.327 . S
C875 C881 1.429 . S
C876 C868 1.574 1_554 S
C876 H871 0.949 . S
C876 C882 1.368 . S
C877 C861 1.349 . S
C877 H869 0.950 . S
C877 C875 1.327 . S
C878 C866 1.349 . S
C878 H872 0.950 . S
C878 C879 1.327 . S
C879 H873 0.950 . S
C879 C878 1.327 . S
C879 C883 1.429 . S
C880 C863 1.574 . S
C880 H874 0.949 . S
C880 C884 1.368 . S
C881 C862 1.429 . S
C881 C875 1.429 . S
C881 C882 1.523 . S
C882 C863 1.368 . S
C882 C876 1.368 . S
C882 C881 1.523 . S
C883 C867 1.429 1_556 S
C883 C879 1.429 . S
C883 C884 1.523 1_556 S
C884 C868 1.368 1_554 S
C884 C880 1.368 . S
C884 C883 1.523 1_554 S
H885 C860 0.950 . S
H886 C862 0.950 . S
H887 C863 0.949 . S
H888 C865 0.950 1_554 S
H889 C867 0.950 . S
C890 C891 1.349 . S
C890 C892 1.327 . S
C890 H915 0.950 . S
C891 C890 1.349 . S
C891 C907 1.349 . S
C892 C890 1.327 . S
C892 C911 1.429 . S
C892 H916 0.950 . S
C893 C910 1.574 . S
C893 C912 1.368 . S
C893 H917 0.949 . S
H894 C898 0.949 . S
C895 C896 1.349 . S
C895 C897 1.327 . S
C895 H918 0.950 . S
C896 C895 1.349 . S
C896 C908 1.349 . S
C897 C895 1.327 . S
C897 C913 1.429 . S
C897 H919 0.950 . S
C898 H894 0.949 . S
C898 C906 1.574 . S
C898 C914 1.368 . S
H899 C907 0.950 . S
H900 C905 0.950 . S
H901 C906 0.949 . S
H902 C908 0.950 . S
H903 C909 0.954 . S
H904 C910 0.949 1_556 S
C905 H900 0.950 . S
C905 C907 1.327 . S
C905 C911 1.429 . S
C906 C898 1.574 . S
C906 H901 0.949 . S
C906 C912 1.368 . S
C907 C891 1.349 . S
C907 H899 0.950 . S
C907 C905 1.327 . S
C908 C896 1.349 . S
C908 H902 0.950 . S
C908 C909 1.323 1_556 S
C909 H903 0.954 . S
C909 C908 1.323 1_554 S
C909 C913 1.428 1_554 S
C910 C893 1.574 . S
C910 H904 0.949 1_554 S
C910 C914 1.368 . S
C911 C892 1.429 . S
C911 C905 1.429 . S
C911 C912 1.523 . S
C912 C893 1.368 . S
C912 C906 1.368 . S
C912 C911 1.523 . S
C913 C897 1.429 . S
C913 C909 1.428 1_556 S
C913 C914 1.523 1_556 S
C914 C898 1.368 . S
C914 C910 1.368 . S
C914 C913 1.523 1_554 S
H915 C890 0.950 . S
H916 C892 0.950 . S
H917 C893 0.949 . S
H918 C895 0.950 . S
H919 C897 0.950 . S
C920 C921 1.349 . S
C920 C922 1.327 . S
C920 H945 0.950 . S
C921 C920 1.349 . S
C921 C937 1.349 . S
C922 C920 1.327 . S
C922 C941 1.429 . S
C922 H946 0.950 . S
C923 C940 1.574 . S
C923 C942 1.368 . S
C923 H947 0.949 . S
H924 C928 0.949 . S
C925 C926 1.349 . S
C925 C927 1.327 . S
C925 H948 0.950 . S
C926 C925 1.349 . S
C926 C938 1.349 . S
C927 C925 1.327 . S
C927 C943 1.429 . S
C927 H949 0.950 . S
C928 H924 0.949 . S
C928 C936 1.574 . S
C928 C944 1.368 . S
H929 C937 0.950 1_554 S
H930 C935 0.950 . S
H931 C936 0.949 . S
H932 C938 0.950 . S
H933 C939 0.950 . S
H934 C940 0.949 . S
C935 H930 0.950 . S
C935 C937 1.327 . S
C935 C941 1.429 . S
C936 C928 1.574 . S
C936 H931 0.949 . S
C936 C942 1.368 . S
C937 C921 1.349 . S
C937 H929 0.950 1_556 S
C937 C935 1.327 . S
C938 C926 1.349 . S
C938 H932 0.950 . S
C938 C939 1.327 . S
C939 H933 0.950 . S
C939 C938 1.327 . S
C939 C943 1.429 . S
C940 C923 1.574 . S
C940 H934 0.949 . S
C940 C944 1.368 . S
C941 C922 1.429 . S
C941 C935 1.429 . S
C941 C942 1.523 . S
C942 C923 1.368 . S
C942 C936 1.368 . S
C942 C941 1.523 . S
C943 C927 1.429 . S
C943 C939 1.429 . S
C943 C944 1.523 . S
C944 C928 1.368 . S
C944 C940 1.368 . S
C944 C943 1.523 . S
H945 C920 0.950 . S
H946 C922 0.950 . S
H947 C923 0.949 . S
H948 C925 0.950 . S
H949 C927 0.950 . S
C950 C951 1.349 . S
C950 C952 1.327 . S
C950 H975 0.950 . S
C951 C950 1.349 . S
C951 C967 1.349 . S
C952 C950 1.327 . S
C952 C971 1.429 . S
C952 H976 0.950 . S
C953 C970 1.574 . S
C953 C972 1.368 . S
C953 H977 0.949 . S
H954 C958 0.949 . S
C955 C956 1.349 . S
C955 C957 1.327 . S
C955 H978 0.950 . S
C956 C955 1.349 . S
C956 C968 1.349 . S
C957 C955 1.327 . S
C957 C973 1.429 . S
C957 H979 0.950 . S
C958 H954 0.949 . S
C958 C966 1.574 . S
C958 C974 1.368 . S
H959 C967 0.950 . S
H960 C965 0.950 . S
H961 C966 0.949 . S
H962 C968 0.950 . S
H963 C969 0.950 . S
H964 C970 0.949 . S
C965 H960 0.950 . S
C965 C967 1.327 . S
C965 C971 1.429 . S
C966 C958 1.574 . S
C966 H961 0.949 . S
C966 C972 1.368 . S
C967 C951 1.349 . S
C967 H959 0.950 . S
C967 C965 1.327 . S
C968 C956 1.349 . S
C968 H962 0.950 . S
C968 C969 1.327 . S
C969 H963 0.950 . S
C969 C968 1.327 . S
C969 C973 1.429 . S
C970 C953 1.574 . S
C970 H964 0.949 . S
C970 C974 1.368 . S
C971 C952 1.429 . S
C971 C965 1.429 . S
C971 C972 1.523 . S
C972 C953 1.368 . S
C972 C966 1.368 . S
C972 C971 1.523 . S
C973 C957 1.429 . S
C973 C969 1.429 . S
C973 C974 1.523 . S
C974 C958 1.368 . S
C974 C970 1.368 . S
C974 C973 1.523 . S
H975 C950 0.950 . S
H976 C952 0.950 . S
H977 C953 0.949 . S
H978 C955 0.950 . S
H979 C957 0.950 . S
C980 C981 1.349 . S
C980 C982 1.327 . S
C980 H1005 0.950 1_556 S
C981 C980 1.349 . S
C981 C997 1.349 . S
C982 C980 1.327 . S
C982 C1001 1.429 . S
C982 H1006 0.950 . S
C983 C1000 1.574 . S
C983 C1002 1.368 . S
C983 H1007 0.949 . S
H984 C988 0.949 . S
C985 C986 1.349 . S
C985 C987 1.327 . S
C985 H1008 0.950 . S
C986 C985 1.349 . S
C986 C998 1.349 . S
C987 C985 1.327 . S
C987 C1003 1.429 . S
C987 H1009 0.950 . S
C988 H984 0.949 . S
C988 C996 1.574 . S
C988 C1004 1.368 . S
H989 C997 0.950 . S
H990 C995 0.950 . S
H991 C996 0.949 . S
H992 C998 0.950 . S
H993 C999 0.950 . S
H994 C1000 0.949 . S
C995 H990 0.950 . S
C995 C997 1.327 . S
C995 C1001 1.429 . S
C996 C988 1.574 . S
C996 H991 0.949 . S
C996 C1002 1.368 . S
C997 C981 1.349 . S
C997 H989 0.950 . S
C997 C995 1.327 . S
C998 C986 1.349 . S
C998 H992 0.950 . S
C998 C999 1.327 . S
C999 H993 0.950 . S
C999 C998 1.327 . S
C999 C1003 1.429 . S
C1000 C983 1.574 . S
C1000 H994 0.949 . S
C1000 C1004 1.368 . S
C1001 C982 1.429 . S
C1001 C995 1.429 . S
C1001 C1002 1.523 . S
C1002 C983 1.368 . S
C1002 C996 1.368 . S
C1002 C1001 1.523 . S
C1003 C987 1.429 . S
C1003 C999 1.429 . S
C1003 C1004 1.523 . S
C1004 C988 1.368 . S
C1004 C1000 1.368 . S
C1004 C1003 1.523 . S
H1005 C980 0.950 1_554 S
H1006 C982 0.950 . S
H1007 C983 0.949 . S
H1008 C985 0.950 . S
H1009 C987 0.950 . S
C1010 C1011 1.349 . S
C1010 C1012 1.327 . S
C1010 H1035 0.950 1_556 S
C1011 C1010 1.349 . S
C1011 C1027 1.349 . S
C1012 C1010 1.327 . S
C1012 C1031 1.429 . S
C1012 H1036 0.950 . S
C1013 C1030 1.574 . S
C1013 C1032 1.368 . S
C1013 H1037 0.949 . S
H1014 C1018 0.949 . S
C1015 C1016 1.349 . S
C1015 C1017 1.327 . S
C1015 H1038 0.950 . S
C1016 C1015 1.349 . S
C1016 C1028 1.349 . S
C1017 C1015 1.327 . S
C1017 C1033 1.429 . S
C1017 H1039 0.950 . S
C1018 H1014 0.949 . S
C1018 C1026 1.574 . S
C1018 C1034 1.368 . S
H1019 C1027 0.950 . S
H1020 C1025 0.950 . S
H1021 C1026 0.949 . S
H1022 C1028 0.950 . S
H1023 C1029 0.950 . S
H1024 C1030 0.949 . S
C1025 H1020 0.950 . S
C1025 C1027 1.327 . S
C1025 C1031 1.429 . S
C1026 C1018 1.574 . S
C1026 H1021 0.949 . S
C1026 C1032 1.368 . S
C1027 C1011 1.349 . S
C1027 H1019 0.950 . S
C1027 C1025 1.327 . S
C1028 C1016 1.349 . S
C1028 H1022 0.950 . S
C1028 C1029 1.327 . S
C1029 H1023 0.950 . S
C1029 C1028 1.327 . S
C1029 C1033 1.429 . S
C1030 C1013 1.574 . S
C1030 H1024 0.949 . S
C1030 C1034 1.368 . S
C1031 C1012 1.429 . S
C1031 C1025 1.429 . S
C1031 C1032 1.523 . S
C1032 C1013 1.368 . S
C1032 C1026 1.368 . S
C1032 C1031 1.523 . S
C1033 C1017 1.429 . S
C1033 C1029 1.429 . S
C1033 C1034 1.523 . S
C1034 C1018 1.368 . S
C1034 C1030 1.368 . S
C1034 C1033 1.523 . S
H1035 C1010 0.950 1_554 S
H1036 C1012 0.950 . S
H1037 C1013 0.949 . S
H1038 C1015 0.950 . S
H1039 C1017 0.950 . S
C1040 C1041 1.349 . S
C1040 C1042 1.327 . S
C1040 H1065 0.950 . S
C1041 C1040 1.349 . S
C1041 C1057 1.349 . S
C1042 C1040 1.327 . S
C1042 C1061 1.429 . S
C1042 H1066 0.950 . S
C1043 C1060 1.574 . S
C1043 C1062 1.368 . S
C1043 H1067 0.949 . S
H1044 C1048 0.949 1_455 S
C1045 C1046 1.349 . S
C1045 C1047 1.327 . S
C1045 H1068 0.950 . S
C1046 C1045 1.349 . S
C1046 C1058 1.349 1_655 S
C1047 C1045 1.327 . S
C1047 C1063 1.429 . S
C1047 H1069 0.950 . S
C1048 H1044 0.949 1_655 S
C1048 C1056 1.574 . S
C1048 C1064 1.368 . S
H1049 C1057 0.950 . S
H1050 C1055 0.950 . S
H1051 C1056 0.949 . S
H1052 C1058 0.950 . S
H1053 C1059 0.950 1_455 S
H1054 C1060 0.949 . S
C1055 H1050 0.950 . S
C1055 C1057 1.327 . S
C1055 C1061 1.429 . S
C1056 C1048 1.574 . S
C1056 H1051 0.949 . S
C1056 C1062 1.368 . S
C1057 C1041 1.349 . S
C1057 H1049 0.950 . S
C1057 C1055 1.327 . S
C1058 C1046 1.349 1_455 S
C1058 H1052 0.950 . S
C1058 C1059 1.327 1_455 S
C1059 H1053 0.950 1_655 S
C1059 C1058 1.327 1_655 S
C1059 C1063 1.429 . S
C1060 C1043 1.574 . S
C1060 H1054 0.949 . S
C1060 C1064 1.368 . S
C1061 C1042 1.429 . S
C1061 C1055 1.429 . S
C1061 C1062 1.523 . S
C1062 C1043 1.368 . S
C1062 C1056 1.368 . S
C1062 C1061 1.523 . S
C1063 C1047 1.429 . S
C1063 C1059 1.429 . S
C1063 C1064 1.523 . S
C1064 C1048 1.368 . S
C1064 C1060 1.368 . S
C1064 C1063 1.523 . S
H1065 C1040 0.950 . S
H1066 C1042 0.950 . S
H1067 C1043 0.949 . S
H1068 C1045 0.950 . S
H1069 C1047 0.950 . S
C1070 C1071 1.349 . S
C1070 C1072 1.327 . S
C1070 H1095 0.950 . S
C1071 C1070 1.349 . S
C1071 C1087 1.349 . S
C1072 C1070 1.327 . S
C1072 C1091 1.429 . S
C1072 H1096 0.950 . S
C1073 C1090 1.574 . S
C1073 C1092 1.368 . S
C1073 H1097 0.949 . S
H1074 C1078 0.949 . S
C1075 C1076 1.349 . S
C1075 C1077 1.327 . S
C1075 H1098 0.950 . S
C1076 C1075 1.349 . S
C1076 C1088 1.349 . S
C1077 C1075 1.327 . S
C1077 C1093 1.429 . S
C1077 H1099 0.950 . S
C1078 H1074 0.949 . S
C1078 C1086 1.574 . S
C1078 C1094 1.368 . S
H1079 C1087 0.950 . S
H1080 C1085 0.950 . S
H1081 C1086 0.949 . S
H1082 C1088 0.950 . S
H1083 C1089 0.950 . S
H1084 C1090 0.949 . S
C1085 H1080 0.950 . S
C1085 C1087 1.327 . S
C1085 C1091 1.429 . S
C1086 C1078 1.574 . S
C1086 H1081 0.949 . S
C1086 C1092 1.368 . S
C1087 C1071 1.349 . S
C1087 H1079 0.950 . S
C1087 C1085 1.327 . S
C1088 C1076 1.349 . S
C1088 H1082 0.950 . S
C1088 C1089 1.327 . S
C1089 H1083 0.950 . S
C1089 C1088 1.327 . S
C1089 C1093 1.429 . S
C1090 C1073 1.574 . S
C1090 H1084 0.949 . S
C1090 C1094 1.368 . S
C1091 C1072 1.429 . S
C1091 C1085 1.429 . S
C1091 C1092 1.523 . S
C1092 C1073 1.368 . S
C1092 C1086 1.368 . S
C1092 C1091 1.523 . S
C1093 C1077 1.429 . S
C1093 C1089 1.429 . S
C1093 C1094 1.523 . S
C1094 C1078 1.368 . S
C1094 C1090 1.368 . S
C1094 C1093 1.523 . S
H1095 C1070 0.950 . S
H1096 C1072 0.950 . S
H1097 C1073 0.949 . S
H1098 C1075 0.950 . S
H1099 C1077 0.950 . S
C1100 C1101 1.349 . S
C1100 C1102 1.327 . S
C1100 H1125 0.950 . S
C1101 C1100 1.349 . S
C1101 C1117 1.349 . S
C1102 C1100 1.327 . S
C1102 C1121 1.429 . S
C1102 H1126 0.950 . S
C1103 C1120 1.574 . S
C1103 C1122 1.368 . S
C1103 H1127 0.949 . S
H1104 C1108 0.949 . S
C1105 C1106 1.349 . S
C1105 C1107 1.327 . S
C1105 H1128 0.950 . S
C1106 C1105 1.349 . S
C1106 C1118 1.349 . S
C1107 C1105 1.327 . S
C1107 C1123 1.429 . S
C1107 H1129 0.950 . S
C1108 H1104 0.949 . S
C1108 C1116 1.574 . S
C1108 C1124 1.368 . S
H1109 C1117 0.950 . S
H1110 C1115 0.950 . S
H1111 C1116 0.949 . S
H1112 C1118 0.950 . S
H1113 C1119 0.950 . S
H1114 C1120 0.949 . S
C1115 H1110 0.950 . S
C1115 C1117 1.327 . S
C1115 C1121 1.429 . S
C1116 C1108 1.574 . S
C1116 H1111 0.949 . S
C1116 C1122 1.368 . S
C1117 C1101 1.349 . S
C1117 H1109 0.950 . S
C1117 C1115 1.327 . S
C1118 C1106 1.349 . S
C1118 H1112 0.950 . S
C1118 C1119 1.327 . S
C1119 H1113 0.950 . S
C1119 C1118 1.327 . S
C1119 C1123 1.429 . S
C1120 C1103 1.574 . S
C1120 H1114 0.949 . S
C1120 C1124 1.368 . S
C1121 C1102 1.429 . S
C1121 C1115 1.429 . S
C1121 C1122 1.523 . S
C1122 C1103 1.368 . S
C1122 C1116 1.368 . S
C1122 C1121 1.523 . S
C1123 C1107 1.429 . S
C1123 C1119 1.429 . S
C1123 C1124 1.523 . S
C1124 C1108 1.368 . S
C1124 C1120 1.368 . S
C1124 C1123 1.523 . S
H1125 C1100 0.950 . S
H1126 C1102 0.950 . S
H1127 C1103 0.949 . S
H1128 C1105 0.950 . S
H1129 C1107 0.950 . S
C1130 C1131 1.349 . S
C1130 C1132 1.327 . S
C1130 H1155 0.950 . S
C1131 C1130 1.349 . S
C1131 C1147 1.349 . S
C1132 C1130 1.327 . S
C1132 C1151 1.429 . S
C1132 H1156 0.950 . S
C1133 C1150 1.574 . S
C1133 C1152 1.368 . S
C1133 H1157 0.949 . S
H1134 C1138 0.949 . S
C1135 C1136 1.349 . S
C1135 C1137 1.327 . S
C1135 H1158 0.950 . S
C1136 C1135 1.349 . S
C1136 C1148 1.349 . S
C1137 C1135 1.327 . S
C1137 C1153 1.429 . S
C1137 H1159 0.950 . S
C1138 H1134 0.949 . S
C1138 C1146 1.574 . S
C1138 C1154 1.368 . S
H1139 C1147 0.950 . S
H1140 C1145 0.950 . S
H1141 C1146 0.949 . S
H1142 C1148 0.950 . S
H1143 C1149 0.950 . S
H1144 C1150 0.949 . S
C1145 H1140 0.950 . S
C1145 C1147 1.327 . S
C1145 C1151 1.429 . S
C1146 C1138 1.574 . S
C1146 H1141 0.949 . S
C1146 C1152 1.368 . S
C1147 C1131 1.349 . S
C1147 H1139 0.950 . S
C1147 C1145 1.327 . S
C1148 C1136 1.349 . S
C1148 H1142 0.950 . S
C1148 C1149 1.327 . S
C1149 H1143 0.950 . S
C1149 C1148 1.327 . S
C1149 C1153 1.429 . S
C1150 C1133 1.574 . S
C1150 H1144 0.949 . S
C1150 C1154 1.368 . S
C1151 C1132 1.429 . S
C1151 C1145 1.429 . S
C1151 C1152 1.523 . S
C1152 C1133 1.368 . S
C1152 C1146 1.368 . S
C1152 C1151 1.523 . S
C1153 C1137 1.429 . S
C1153 C1149 1.429 . S
C1153 C1154 1.523 . S
C1154 C1138 1.368 . S
C1154 C1150 1.368 . S
C1154 C1153 1.523 . S
H1155 C1130 0.950 . S
H1156 C1132 0.950 . S
H1157 C1133 0.949 . S
H1158 C1135 0.950 . S
H1159 C1137 0.950 . S
C441 N80 1.845 . S
C446 C179 1.854 . S
C476 C263 1.878 . S
C471 N93 1.869 . S
C506 C339 1.899 . S
C501 N54 1.978 . S
C536 C423 1.877 . S
C531 N67 1.956 . S
C566 C170 1.854 1_565 S
C561 N28 1.854 . S
C591 N41 1.879 . S
C596 C254 1.878 . S
C621 N2 1.989 . S
C626 C328 1.899 . S
C651 N15 1.966 . S
C656 C412 1.877 . S
C686 C167 0.505 1_455 S
C681 N70 0.415 . S
C716 C251 0.439 1_545 S
C711 N83 0.385 . S
C746 C344 0.484 . S
C741 N96 0.350 . S
C771 N57 0.381 . S
C776 C428 0.491 . S
C801 N18 0.408 . S
C806 C176 0.505 . S
C836 C260 0.495 . S
C831 N31 0.376 . S
C866 C335 0.484 . S
C861 N44 0.340 . S
C891 N5 0.372 . S
C896 C419 0.491 . S
C921 N66 2.008 . S
C926 C160 1.954 . S
C951 N79 1.976 . S
C956 C244 1.922 . S
C986 C338 1.906 . S
C981 N92 1.871 . S
C1016 C422 1.936 . S
C1011 N53 1.900 . S
C1041 N14 2.024 . S
C1046 C171 1.953 . S
C1076 C255 1.920 . S
C1071 N27 1.991 . S
C1106 C347 1.907 . S
C1101 N40 1.888 . S
C1131 N1 1.918 . S
C1136 C431 1.936 . S
