# Generated by pormake.
# Topology csq, (4,8)-cn, num edge types: 1
# Building blocks:
#     Node 0, Type 0, BuildingBlock: GIZVER_clean_linker_0, # of connection points: 4
#     Node 1, Type 0, BuildingBlock: GIZVER_clean_linker_0, # of connection points: 4
#     Node 2, Type 0, BuildingBlock: GIZVER_clean_linker_0, # of connection points: 4
#     Node 3, Type 0, BuildingBlock: GIZVER_clean_linker_0, # of connection points: 4
#     Node 4, Type 0, BuildingBlock: GIZVER_clean_linker_0, # of connection points: 4
#     Node 5, Type 0, BuildingBlock: GIZVER_clean_linker_0, # of connection points: 4
#     Node 6, Type 1, BuildingBlock: TAGTUT_clean_sbu_1, # of connection points: 8
#     Node 7, Type 1, BuildingBlock: TAGTUT_clean_sbu_1, # of connection points: 8
#     Node 8, Type 1, BuildingBlock: TAGTUT_clean_sbu_1, # of connection points: 8
#     Edge 9, Type (0, 1), BuildingBlock: XUDNAN_clean_linker_2, # of connection points: 2
#     Edge 10, Type (0, 1), BuildingBlock: XUDNAN_clean_linker_2, # of connection points: 2
#     Edge 11, Type (0, 1), BuildingBlock: XUDNAN_clean_linker_2, # of connection points: 2
#     Edge 12, Type (0, 1), BuildingBlock: XUDNAN_clean_linker_2, # of connection points: 2
#     Edge 13, Type (0, 1), BuildingBlock: XUDNAN_clean_linker_2, # of connection points: 2
#     Edge 14, Type (0, 1), BuildingBlock: XUDNAN_clean_linker_2, # of connection points: 2
#     Edge 15, Type (0, 1), BuildingBlock: XUDNAN_clean_linker_2, # of connection points: 2
#     Edge 16, Type (0, 1), BuildingBlock: XUDNAN_clean_linker_2, # of connection points: 2
#     Edge 17, Type (0, 1), BuildingBlock: XUDNAN_clean_linker_2, # of connection points: 2
#     Edge 18, Type (0, 1), BuildingBlock: XUDNAN_clean_linker_2, # of connection points: 2
#     Edge 19, Type (0, 1), BuildingBlock: XUDNAN_clean_linker_2, # of connection points: 2
#     Edge 20, Type (0, 1), BuildingBlock: XUDNAN_clean_linker_2, # of connection points: 2
#     Edge 21, Type (0, 1), BuildingBlock: XUDNAN_clean_linker_2, # of connection points: 2
#     Edge 22, Type (0, 1), BuildingBlock: XUDNAN_clean_linker_2, # of connection points: 2
#     Edge 23, Type (0, 1), BuildingBlock: XUDNAN_clean_linker_2, # of connection points: 2
#     Edge 24, Type (0, 1), BuildingBlock: XUDNAN_clean_linker_2, # of connection points: 2
#     Edge 25, Type (0, 1), BuildingBlock: XUDNAN_clean_linker_2, # of connection points: 2
#     Edge 26, Type (0, 1), BuildingBlock: XUDNAN_clean_linker_2, # of connection points: 2
#     Edge 27, Type (0, 1), BuildingBlock: XUDNAN_clean_linker_2, # of connection points: 2
#     Edge 28, Type (0, 1), BuildingBlock: XUDNAN_clean_linker_2, # of connection points: 2
#     Edge 29, Type (0, 1), BuildingBlock: XUDNAN_clean_linker_2, # of connection points: 2
#     Edge 30, Type (0, 1), BuildingBlock: XUDNAN_clean_linker_2, # of connection points: 2
#     Edge 31, Type (0, 1), BuildingBlock: XUDNAN_clean_linker_2, # of connection points: 2
#     Edge 32, Type (0, 1), BuildingBlock: XUDNAN_clean_linker_2, # of connection points: 2
# Relax obj value: 0.046
# Max RMSD: 0.134
# Mean RMSD: 0.097
data_MOF--net-csq--node1-TAGTUT_clean_sbu_1--node2-GIZVER_clean_linker_0--edge1-XUDNAN_clean_linker_2
_symmetry_space_group_name_H-M    P1
_symmetry_Int_Tables_number       1
_symmetry_cell_setting            triclinic
loop_
_symmetry_equiv_pos_as_xyz
'x, y, z'
_cell_length_a     54.631387
_cell_length_b     54.16425
_cell_length_c     18.419238
_cell_angle_alpha  93.286535
_cell_angle_beta   92.002023
_cell_angle_gamma 119.83082
loop_
_atom_site_label
_atom_site_type_symbol
_atom_site_fract_x
_atom_site_fract_y
_atom_site_fract_z
_atom_type_partial_charge
H0 H 0.24641 0.52783 0.0211 0.0
H1 H 0.2397 0.53158 0.25335 0.0
H2 H 0.1655 0.50012 0.10662 0.0
H3 H 0.28691 0.56321 0.1098 0.0
H4 H 0.28532 0.55801 0.20434 0.0
H5 H 0.29064 0.52834 0.01964 0.0
H6 H 0.33601 0.49042 0.11277 0.0
H7 H 0.29774 0.5255 0.25241 0.0
C8 C 0.23355 0.52329 0.06735 0.0
C9 C 0.20434 0.51216 0.05548 0.0
C10 C 0.24649 0.53005 0.13838 0.0
C11 C 0.22974 0.52526 0.19839 0.0
C12 C 0.20045 0.51455 0.18714 0.0
C13 C 0.18794 0.50762 0.11556 0.0
C14 C 0.27838 0.54646 0.14897 0.0
C15 C 0.2913 0.52763 0.1371 0.0
C16 C 0.29718 0.52128 0.06653 0.0
C17 C 0.31275 0.50712 0.05685 0.0
C18 C 0.32248 0.49966 0.11875 0.0
C19 C 0.31736 0.50646 0.18911 0.0
C20 C 0.30091 0.51945 0.19791 0.0
H21 H 0.81551 0.26762 0.04665 0.0
H22 H 0.78837 0.28554 0.24854 0.0
H23 H 0.82909 0.35165 0.10452 0.0
H24 H 0.79365 0.23069 0.12393 0.0
H25 H 0.80115 0.24473 0.21686 0.0
H26 H 0.74484 0.22193 0.06392 0.0
H27 H 0.67937 0.16845 0.19951 0.0
H28 H 0.76333 0.22594 0.29384 0.0
C29 C 0.81193 0.2821 0.08163 0.0
C30 C 0.82429 0.31104 0.06773 0.0
C31 C 0.79732 0.27237 0.14492 0.0
C32 C 0.7963 0.29213 0.19575 0.0
C33 C 0.80913 0.32114 0.18299 0.0
C34 C 0.8199 0.32943 0.11518 0.0
C35 C 0.78849 0.24267 0.16589 0.0
C36 C 0.75729 0.22536 0.17725 0.0
C37 C 0.73748 0.21476 0.11665 0.0
C38 C 0.70893 0.19437 0.1236 0.0
C39 C 0.70057 0.18566 0.19347 0.0
C40 C 0.71962 0.19747 0.25573 0.0
C41 C 0.74811 0.21728 0.24692 0.0
H42 H 0.54229 0.8009 0.95076 0.0
H43 H 0.57676 0.81384 0.1725 0.0
H44 H 0.52409 0.84852 0.11212 0.0
H45 H 0.57984 0.79034 0.98354 0.0
H46 H 0.5944 0.79652 0.07505 0.0
H47 H 0.53814 0.74532 0.93989 0.0
H48 H 0.52143 0.67362 0.06052 0.0
H49 H 0.57457 0.75897 0.15924 0.0
C50 C 0.54312 0.80809 0.00739 0.0
C51 C 0.53071 0.82472 0.02602 0.0
C52 C 0.5583 0.8025 0.06148 0.0
C53 C 0.56264 0.8155 0.13277 0.0
C54 C 0.55129 0.8331 0.15019 0.0
C55 C 0.53311 0.83509 0.09847 0.0
C56 C 0.57407 0.78714 0.04099 0.0
C57 C 0.55698 0.75551 0.04986 0.0
C58 C 0.54011 0.73666 0.98992 0.0
C59 C 0.52809 0.70697 0.99198 0.0
C60 C 0.53087 0.6964 0.0578 0.0
C61 C 0.54788 0.71469 0.11831 0.0
C62 C 0.56056 0.74442 0.11427 0.0
H63 H 0.7488 0.54744 0.95743 0.0
H64 H 0.76426 0.56503 0.1902 0.0
H65 H 0.67884 0.51675 0.09154 0.0
H66 H 0.79432 0.58667 0.01174 0.0
H67 H 0.80117 0.59384 0.10848 0.0
H68 H 0.81301 0.56035 0.95058 0.0
H69 H 0.84967 0.52057 0.0772 0.0
H70 H 0.80281 0.55482 0.1806 0.0
C71 C 0.74093 0.54516 0.0113 0.0
C72 C 0.71183 0.52966 0.0187 0.0
C73 C 0.75989 0.55806 0.07311 0.0
C74 C 0.74938 0.55512 0.14293 0.0
C75 C 0.71998 0.53994 0.15142 0.0
C76 C 0.70153 0.52736 0.0881 0.0
C77 C 0.79113 0.57634 0.06379 0.0
C78 C 0.80581 0.55898 0.06501 0.0
C79 C 0.81659 0.55329 0.00167 0.0
C80 C 0.83265 0.53941 0.00477 0.0
C81 C 0.8365 0.53021 0.07203 0.0
C82 C 0.82542 0.53537 0.1349 0.0
C83 C 0.8104 0.54995 0.13129 0.0
H84 H 0.29059 0.76105 0.00746 0.0
H85 H 0.3017 0.77352 0.24139 0.0
H86 H 0.35235 0.84263 0.11123 0.0
H87 H 0.28599 0.7215 0.09788 0.0
H88 H 0.27782 0.72665 0.1879 0.0
H89 H 0.25221 0.7089 0.99396 0.0
H90 H 0.16643 0.6813 0.03811 0.0
H91 H 0.23219 0.72369 0.21124 0.0
C92 C 0.30045 0.775 0.05694 0.0
C93 C 0.32109 0.80364 0.05216 0.0
C94 C 0.29401 0.76392 0.12543 0.0
C95 C 0.30742 0.78218 0.18916 0.0
C96 C 0.32882 0.81079 0.18572 0.0
C97 C 0.3354 0.8211 0.11637 0.0
C98 C 0.27657 0.73206 0.13101 0.0
C99 C 0.24595 0.71958 0.10453 0.0
C100 C 0.23704 0.70796 0.03168 0.0
C101 C 0.20829 0.69367 0.00893 0.0
C102 C 0.18861 0.69198 0.05743 0.0
C103 C 0.19661 0.70165 0.13103 0.0
C104 C 0.22559 0.71636 0.15421 0.0
H105 H 0.49897 0.25951 0.02591 0.0
H106 H 0.5175 0.27928 0.25909 0.0
H107 H 0.48211 0.32067 0.13719 0.0
H108 H 0.52633 0.2424 0.09115 0.0
H109 H 0.53966 0.25631 0.18327 0.0
H110 H 0.47279 0.20429 0.07134 0.0
H111 H 0.44443 0.14463 0.23627 0.0
H112 H 0.5257 0.22046 0.26546 0.0
C113 C 0.49827 0.27042 0.07631 0.0
C114 C 0.48922 0.29054 0.07424 0.0
C115 C 0.50797 0.26568 0.14353 0.0
C116 C 0.50877 0.2816 0.20789 0.0
C117 C 0.49905 0.30114 0.20544 0.0
C118 C 0.48872 0.30481 0.13914 0.0
C119 C 0.5201 0.24596 0.14591 0.0
C120 C 0.49912 0.21728 0.17111 0.0
C121 C 0.47509 0.19818 0.12492 0.0
C122 C 0.45608 0.17066 0.14518 0.0
C123 C 0.46004 0.16441 0.21609 0.0
C124 C 0.48639 0.18028 0.25543 0.0
C125 C 0.50542 0.20759 0.23488 0.0
C126 C 0.97824 0.43204 0.7689 0.0
C127 C 0.06347 0.48451 0.6954 0.0
C128 C 0.04318 0.57114 0.70782 0.0
Mg129 Mg 1.00392 0.45234 0.62119 0.0
O130 O 0.99806 0.48235 0.65405 0.0
Mg131 Mg 0.01611 0.50358 0.75023 0.0
Mg132 Mg 0.00964 0.51481 0.59365 0.0
O133 O 0.02015 0.54712 0.53259 0.0
Mg134 Mg 0.01007 0.57434 0.56498 0.0
Mg135 Mg 1.00119 0.52481 0.43727 0.0
C136 C 0.97361 0.45797 0.47766 0.0
C137 C 0.05418 0.51513 0.47781 0.0
O138 O 0.98996 0.45822 0.79645 0.0
O139 O 0.98129 0.42547 0.7033 0.0
O140 O 0.05441 0.49737 0.7372 0.0
O141 O 0.04812 0.46657 0.64231 0.0
O142 O 0.98148 0.44316 0.51381 0.0
O143 O 0.98135 0.48391 0.4993 0.0
C144 C 0.96549 0.51622 0.70881 0.0
O145 O 0.97323 0.51957 0.64333 0.0
O146 O 0.97822 0.50996 0.7576 0.0
O147 O 0.02449 0.56961 0.39128 0.0
O148 O 0.03239 0.6026 0.4832 0.0
O149 O 0.96136 0.52752 0.45068 0.0
C150 C 0.03538 0.59582 0.41756 0.0
O151 O 0.9652 0.55766 0.54344 0.0
O152 O 0.03021 0.58226 0.67521 0.0
C153 C 0.95062 0.53884 0.4914 0.0
O154 O 0.0385 0.54585 0.68821 0.0
O155 O 0.0466 0.51083 0.54339 0.0
O156 O 0.04045 0.52082 0.43028 0.0
C157 C 0.44177 0.02722 0.80656 0.0
C158 C 0.42717 0.9442 0.727 0.0
C159 C 0.53576 0.98144 0.78493 0.0
Mg160 Mg 0.45003 1.00173 0.66042 0.0
O161 O 0.48583 0.01654 0.71234 0.0
Mg162 Mg 0.48728 1.00145 0.80753 0.0
Mg163 Mg 0.51265 0.00832 0.66221 0.0
O164 O 0.53883 0.9998 0.60965 0.0
Mg165 Mg 0.57473 0.01121 0.65438 0.0
Mg166 Mg 0.53692 0.01465 0.51392 0.0
C167 C 0.49167 0.03659 0.53919 0.0
C168 C 0.47465 0.96003 0.53003 0.0
O169 O 0.4587 0.02094 0.84108 0.0
O170 O 0.43579 0.02182 0.73758 0.0
O171 O 0.44738 0.95849 0.77586 0.0
O172 O 0.42426 0.95563 0.67082 0.0
O173 O 0.4665 0.02436 0.56141 0.0
O174 O 0.5116 0.03389 0.56951 0.0
C175 C 0.54871 0.05793 0.79359 0.0
O176 O 0.54801 0.04846 0.72763 0.0
O177 O 0.52826 0.04438 0.83393 0.0
O178 O 0.56133 0.99139 0.47481 0.0
O179 O 0.58334 0.98694 0.5751 0.0
O180 O 0.57913 0.05623 0.54097 0.0
C181 C 0.57622 0.98208 0.50659 0.0
O182 O 0.60353 0.0557 0.63975 0.0
O183 O 0.55993 0.99229 0.75714 0.0
C184 C 0.60076 0.06848 0.5866 0.0
O185 O 0.51521 0.98387 0.75649 0.0
O186 O 0.47666 0.96791 0.59788 0.0
O187 O 0.49439 0.97405 0.48851 0.0
C188 C 0.56071 0.58836 0.46069 0.0
C189 C 0.59291 0.53169 0.51214 0.0
C190 C 0.48433 0.44766 0.49341 0.0
Mg191 Mg 0.56703 0.56193 0.60078 0.0
O192 O 0.52998 0.53536 0.56289 0.0
Mg193 Mg 0.52582 0.51611 0.46384 0.0
Mg194 Mg 0.50731 0.5015 0.61748 0.0
O195 O 0.48539 0.46759 0.67177 0.0
Mg196 Mg 0.44878 0.43908 0.63598 0.0
Mg197 Mg 0.49104 0.48694 0.77087 0.0
C198 C 0.53295 0.55474 0.73807 0.0
C199 C 0.55159 0.49595 0.72729 0.0
O200 O 0.5468 0.56298 0.42766 0.0
O201 O 0.56979 0.593 0.52821 0.0
O202 O 0.56977 0.51949 0.47189 0.0
O203 O 0.59625 0.54809 0.56865 0.0
O204 O 0.55723 0.56101 0.7157 0.0
O205 O 0.51074 0.53076 0.71698 0.0
C206 C 0.46419 0.50686 0.50301 0.0
O207 O 0.46742 0.50095 0.56783 0.0
O208 O 0.48312 0.51284 0.45757 0.0
O209 O 0.47188 0.44076 0.80877 0.0
O210 O 0.44538 0.40945 0.71364 0.0
O211 O 0.44728 0.4835 0.76146 0.0
C212 C 0.45661 0.41503 0.77908 0.0
O213 O 0.42049 0.45527 0.66351 0.0
O214 O 0.46175 0.43298 0.52691 0.0
C215 C 0.42457 0.47227 0.71965 0.0
O216 O 0.50375 0.47277 0.51891 0.0
O217 O 0.54717 0.50192 0.6638 0.0
O218 O 0.53382 0.49009 0.77574 0.0
H219 H 0.17056 0.54198 0.19971 0.0
H220 H 0.19116 0.48573 0.31135 0.0
H221 H 0.15826 0.48193 0.40602 0.0
H222 H 0.16572 0.57849 0.36503 0.0
H223 H 0.13663 0.58222 0.33137 0.0
H224 H 0.16175 0.58263 0.26961 0.0
H225 H 0.12426 0.54073 0.18484 0.0
H226 H 0.09737 0.54065 0.23843 0.0
H227 H 0.09897 0.50837 0.22224 0.0
H228 H 0.11932 0.48214 0.4839 0.0
H229 H 0.07963 0.4861 0.53367 0.0
H230 H 0.0863 0.54243 0.36813 0.0
C231 C 0.16832 0.52903 0.24447 0.0
C232 C 0.18316 0.51398 0.24822 0.0
C233 C 0.17997 0.4975 0.30786 0.0
C234 C 0.16132 0.49521 0.36163 0.0
C235 C 0.14646 0.50994 0.35536 0.0
C236 C 0.15015 0.52678 0.29842 0.0
C237 C 0.13173 0.54024 0.30248 0.0
C238 C 0.15006 0.57283 0.31785 0.0
C239 C 0.11191 0.53199 0.23289 0.0
C240 C 0.11558 0.52694 0.36765 0.0
C241 C 0.12468 0.51006 0.399 0.0
C242 C 0.11224 0.49546 0.4597 0.0
C243 C 0.08972 0.49786 0.48784 0.0
C244 C 0.07961 0.51434 0.45454 0.0
C245 C 0.09322 0.52936 0.39452 0.0
H246 H 0.66841 0.18363 0.30863 0.0
H247 H 0.74757 0.18654 0.36607 0.0
H248 H 0.72777 0.16237 0.47666 0.0
H249 H 0.64649 0.18749 0.49875 0.0
H250 H 0.61006 0.16196 0.47059 0.0
H251 H 0.63264 0.186 0.40731 0.0
H252 H 0.62084 0.14284 0.31521 0.0
H253 H 0.59824 0.11889 0.37792 0.0
H254 H 0.6267 0.11482 0.34397 0.0
H255 H 0.69682 0.13058 0.56911 0.0
H256 H 0.65732 0.09162 0.6265 0.0
H257 H 0.59781 0.10715 0.50398 0.0
C258 C 0.68186 0.17975 0.34515 0.0
C259 C 0.70964 0.18714 0.32836 0.0
C260 C 0.72645 0.18167 0.37803 0.0
C261 C 0.71532 0.16785 0.44113 0.0
C262 C 0.6874 0.15972 0.45418 0.0
C263 C 0.67093 0.16557 0.40743 0.0
C264 C 0.64042 0.15091 0.4267 0.0
C265 C 0.63192 0.17291 0.45239 0.0
C266 C 0.6204 0.13066 0.36216 0.0
C267 C 0.64191 0.13459 0.48909 0.0
C268 C 0.66931 0.14062 0.50587 0.0
C269 C 0.67539 0.12611 0.55734 0.0
C270 C 0.65281 0.10406 0.58997 0.0
C271 C 0.62451 0.09636 0.56968 0.0
C272 C 0.61925 0.11271 0.52101 0.0
H273 H 0.5548 0.66762 0.11588 0.0
H274 H 0.55574 0.73326 0.26506 0.0
H275 H 0.56358 0.71034 0.36897 0.0
H276 H 0.51294 0.61052 0.22138 0.0
H277 H 0.53021 0.59059 0.1968 0.0
H278 H 0.52843 0.61429 0.13497 0.0
H279 H 0.58302 0.64088 0.13211 0.0
H280 H 0.58502 0.61736 0.19435 0.0
H281 H 0.60487 0.65548 0.21639 0.0
H282 H 0.56938 0.67856 0.45674 0.0
H283 H 0.56899 0.63956 0.52072 0.0
H284 H 0.55891 0.59247 0.3126 0.0
C285 C 0.55626 0.67722 0.17019 0.0
C286 C 0.55423 0.70223 0.18184 0.0
C287 C 0.5574 0.71432 0.25428 0.0
C288 C 0.56175 0.70135 0.3137 0.0
C289 C 0.56271 0.67623 0.29984 0.0
C290 C 0.55981 0.66422 0.22973 0.0
C291 C 0.55933 0.63601 0.22893 0.0
C292 C 0.53105 0.61141 0.19344 0.0
C293 C 0.58457 0.63755 0.19069 0.0
C294 C 0.56223 0.63376 0.30987 0.0
C295 C 0.56468 0.6574 0.34991 0.0
C296 C 0.56752 0.66003 0.42583 0.0
C297 C 0.5674 0.63777 0.46166 0.0
C298 C 0.56396 0.61292 0.42167 0.0
C299 C 0.56158 0.61114 0.34472 0.0
H300 H 0.85495 0.57221 0.25242 0.0
H301 H 0.81331 0.48287 0.17342 0.0
H302 H 0.83202 0.47233 0.28429 0.0
H303 H 0.91612 0.57768 0.3024 0.0
H304 H 0.9254 0.60224 0.38243 0.0
H305 H 0.90175 0.60125 0.31099 0.0
H306 H 0.86404 0.59182 0.4037 0.0
H307 H 0.88773 0.59266 0.47578 0.0
H308 H 0.85273 0.56204 0.45872 0.0
H309 H 0.86297 0.47309 0.38426 0.0
H310 H 0.90662 0.48551 0.45803 0.0
H311 H 0.92996 0.57466 0.4737 0.0
C312 C 0.84877 0.55028 0.26062 0.0
C313 C 0.83234 0.52819 0.20583 0.0
C314 C 0.82557 0.49989 0.21577 0.0
C315 C 0.83591 0.49374 0.27877 0.0
C316 C 0.853 0.51618 0.33101 0.0
C317 C 0.85939 0.54395 0.32265 0.0
C318 C 0.88258 0.56492 0.37847 0.0
C319 C 0.90794 0.58783 0.34132 0.0
C320 C 0.87107 0.57867 0.43238 0.0
C321 C 0.88991 0.54495 0.41554 0.0
C322 C 0.87177 0.51677 0.38933 0.0
C323 C 0.87673 0.49488 0.4069 0.0
C324 C 0.90159 0.50211 0.44872 0.0
C325 C 0.92122 0.53094 0.47196 0.0
C326 C 0.91464 0.5524 0.45863 0.0
H327 H 0.3573 0.87005 0.20961 0.0
H328 H 0.34038 0.79403 0.31649 0.0
H329 H 0.37065 0.82438 0.42325 0.0
H330 H 0.43001 0.90516 0.25939 0.0
H331 H 0.43405 0.94033 0.26893 0.0
H332 H 0.40648 0.91289 0.20708 0.0
H333 H 0.36911 0.92032 0.27267 0.0
H334 H 0.39663 0.94776 0.335 0.0
H335 H 0.36705 0.91762 0.36962 0.0
H336 H 0.40537 0.86354 0.5178 0.0
H337 H 0.44573 0.90728 0.58204 0.0
H338 H 0.44542 0.95602 0.40388 0.0
C339 C 0.35976 0.85942 0.25485 0.0
C340 C 0.34572 0.82922 0.2534 0.0
C341 C 0.34973 0.81689 0.3157 0.0
C342 C 0.36723 0.83404 0.37701 0.0
C343 C 0.38119 0.86359 0.37528 0.0
C344 C 0.37796 0.87612 0.31521 0.0
C345 C 0.39806 0.90807 0.32255 0.0
C346 C 0.41835 0.91713 0.26085 0.0
C347 C 0.38173 0.9244 0.32513 0.0
C348 C 0.41349 0.91148 0.39551 0.0
C349 C 0.4029 0.88576 0.42633 0.0
C350 C 0.41388 0.88377 0.49401 0.0
C351 C 0.4367 0.90862 0.53013 0.0
C352 C 0.4487 0.93471 0.4972 0.0
C353 C 0.43668 0.93617 0.4297 0.0
H354 H 0.45805 0.30534 0.2741 0.0
H355 H 0.54888 0.34448 0.2676 0.0
H356 H 0.55512 0.38838 0.33502 0.0
H357 H 0.45346 0.36448 0.2395 0.0
H358 H 0.42608 0.35871 0.29958 0.0
H359 H 0.42854 0.3288 0.26094 0.0
H360 H 0.43232 0.31331 0.38952 0.0
H361 H 0.42849 0.34236 0.42851 0.0
H362 H 0.45849 0.33903 0.45762 0.0
H363 H 0.55064 0.42999 0.38762 0.0
H364 H 0.53684 0.46252 0.44799 0.0
H365 H 0.44859 0.39578 0.4188 0.0
C366 C 0.47926 0.32265 0.29034 0.0
C367 C 0.50306 0.32148 0.2675 0.0
C368 C 0.53052 0.34482 0.28679 0.0
C369 C 0.53418 0.36995 0.32379 0.0
C370 C 0.51012 0.37111 0.34132 0.0
C371 C 0.48324 0.34776 0.32726 0.0
C372 C 0.46081 0.35474 0.34944 0.0
C373 C 0.44107 0.35149 0.28341 0.0
C374 C 0.44405 0.33628 0.40989 0.0
C375 C 0.47923 0.38575 0.37767 0.0
C376 C 0.50757 0.39493 0.37163 0.0
C377 C 0.52852 0.42291 0.39347 0.0
C378 C 0.52039 0.44141 0.42673 0.0
C379 C 0.49159 0.43175 0.43845 0.0
C380 C 0.47076 0.40389 0.41068 0.0
H381 H 0.56666 0.8666 0.94813 0.0
H382 H 0.47851 0.81837 0.99316 0.0
H383 H 0.47009 0.85493 0.94082 0.0
H384 H 0.57501 0.93219 0.00614 0.0
H385 H 0.5993 0.95221 0.94008 0.0
H386 H 0.59757 0.92011 0.96809 0.0
H387 H 0.58698 0.89798 0.8342 0.0
H388 H 0.58998 0.93051 0.80529 0.0
H389 H 0.5584 0.8968 0.7792 0.0
H390 H 0.47317 0.8997 0.89414 0.0
H391 H 0.48513 0.94511 0.84144 0.0
H392 H 0.57251 0.96511 0.83829 0.0
C393 C 0.54526 0.86295 0.94299 0.0
C394 C 0.52294 0.83914 0.97169 0.0
C395 C 0.49556 0.83592 0.9686 0.0
C396 C 0.49076 0.85683 0.94018 0.0
C397 C 0.51369 0.88096 0.91621 0.0
C398 C 0.54032 0.88388 0.91646 0.0
C399 C 0.56192 0.91273 0.89352 0.0
C400 C 0.58479 0.93033 0.95566 0.0
C401 C 0.57508 0.9093 0.8239 0.0
C402 C 0.54329 0.92552 0.87931 0.0
C403 C 0.5156 0.90703 0.89297 0.0
C404 C 0.49462 0.91425 0.88255 0.0
C405 C 0.50172 0.94024 0.85332 0.0
C406 C 0.52969 0.95875 0.83492 0.0
C407 C 0.55086 0.95164 0.85148 0.0
H408 H 0.70362 0.55786 0.91144 0.0
H409 H 0.6732 0.47374 0.98573 0.0
H410 H 0.63273 0.45375 0.89352 0.0
H411 H 0.64168 0.55492 0.90027 0.0
H412 H 0.64573 0.57367 0.81977 0.0
H413 H 0.67646 0.58008 0.87452 0.0
H414 H 0.69598 0.5668 0.76181 0.0
H415 H 0.66522 0.56047 0.70623 0.0
H416 H 0.67447 0.53291 0.70957 0.0
H417 H 0.59117 0.44526 0.819 0.0
H418 H 0.5511 0.44859 0.76498 0.0
H419 H 0.60712 0.53781 0.73481 0.0
C420 C 0.68911 0.53502 0.90534 0.0
C421 C 0.69155 0.5171 0.95416 0.0
C422 C 0.6717 0.48756 0.9477 0.0
C423 C 0.6488 0.47607 0.89533 0.0
C424 C 0.64615 0.49445 0.84984 0.0
C425 C 0.66592 0.5233 0.85359 0.0
C426 C 0.65566 0.53911 0.80729 0.0
C427 C 0.65482 0.56335 0.85324 0.0
C428 C 0.67392 0.55049 0.74237 0.0
C429 C 0.62619 0.51512 0.78186 0.0
C430 C 0.62152 0.48938 0.80538 0.0
C431 C 0.59482 0.46498 0.79795 0.0
C432 C 0.5722 0.46706 0.76755 0.0
C433 C 0.57645 0.49327 0.74469 0.0
C434 C 0.60381 0.51736 0.74972 0.0
H435 H 0.18009 0.63656 0.98174 0.0
H436 H 0.20785 0.71545 0.8805 0.0
H437 H 0.17099 0.68944 0.77999 0.0
H438 H 0.15173 0.58512 0.80153 0.0
H439 H 0.12274 0.55914 0.84827 0.0
H440 H 0.15691 0.5814 0.89659 0.0
H441 H 0.13304 0.59736 0.99289 0.0
H442 H 0.09908 0.57645 0.94356 0.0
H443 H 0.11343 0.61427 0.96447 0.0
H444 H 0.12447 0.66004 0.71725 0.0
H445 H 0.07545 0.62597 0.67526 0.0
H446 H 0.07594 0.56382 0.8137 0.0
C447 C 0.17961 0.64776 0.9353 0.0
C448 C 0.19701 0.67775 0.9372 0.0
C449 C 0.19519 0.69238 0.87833 0.0
C450 C 0.17411 0.67775 0.82159 0.0
C451 C 0.15547 0.64858 0.82472 0.0
C452 C 0.15854 0.63339 0.87861 0.0
C453 C 0.13314 0.60334 0.87583 0.0
C454 C 0.14164 0.58093 0.85426 0.0
C455 C 0.11885 0.59755 0.94849 0.0
C456 C 0.11442 0.60481 0.81568 0.0
C457 C 0.12795 0.63104 0.78685 0.0
C458 C 0.11402 0.63909 0.73748 0.0
C459 C 0.08584 0.61963 0.71512 0.0
C460 C 0.07164 0.59211 0.74156 0.0
C461 C 0.08625 0.58459 0.79237 0.0
H462 H 0.43885 0.11352 0.15085 0.0
H463 H 0.4327 0.17174 0.00803 0.0
H464 H 0.41773 0.13476 0.90561 0.0
H465 H 0.47328 0.09433 0.04739 0.0
H466 H 0.45733 0.05761 0.06858 0.0
H467 H 0.45771 0.08382 0.13293 0.0
H468 H 0.40338 0.05437 0.13572 0.0
H469 H 0.40262 0.02759 0.07127 0.0
H470 H 0.38141 0.04372 0.05165 0.0
H471 H 0.41496 0.09652 0.81557 0.0
H472 H 0.42484 0.06211 0.74868 0.0
H473 H 0.4355 0.0312 0.95264 0.0
C474 C 0.43322 0.11873 0.09976 0.0
C475 C 0.43787 0.14642 0.0888 0.0
C476 C 0.43021 0.15122 0.01876 0.0
C477 C 0.4213 0.1301 0.96004 0.0
C478 C 0.41955 0.10407 0.9724 0.0
C479 C 0.42481 0.09822 0.04119 0.0
C480 C 0.42677 0.07128 0.03955 0.0
C481 C 0.45549 0.07714 0.074 0.0
C482 C 0.40206 0.04785 0.07672 0.0
C483 C 0.424 0.06396 0.95849 0.0
C484 C 0.41876 0.08241 0.92055 0.0
C485 C 0.41833 0.08157 0.84482 0.0
C486 C 0.42409 0.06197 0.80734 0.0
C487 C 0.43098 0.044 0.84576 0.0
C488 C 0.43012 0.04454 0.92201 0.0
H489 H 0.31451 0.46033 -0.00151 0.0
H490 H 0.33479 0.54596 0.9541 0.0
H491 H 0.35976 0.54313 0.84733 0.0
H492 H 0.37923 0.46866 0.96723 0.0
H493 H 0.36667 0.43301 0.92616 0.0
H494 H 0.34578 0.43953 0.98929 0.0
H495 H 0.30323 0.41739 0.89243 0.0
H496 H 0.32403 0.41069 0.82882 0.0
H497 H 0.30762 0.43109 0.80399 0.0
H498 H 0.39003 0.53442 0.76025 0.0
H499 H 0.42089 0.51964 0.69837 0.0
H500 H 0.38046 0.43964 0.79811 0.0
C501 C 0.32348 0.47817 0.96499 0.0
C502 C 0.32246 0.50328 0.98445 0.0
C503 C 0.33475 0.52627 0.93961 0.0
C504 C 0.34913 0.5249 0.87898 0.0
C505 C 0.35073 0.50024 0.86316 0.0
C506 C 0.33786 0.47712 0.90444 0.0
C507 C 0.34502 0.45429 0.88109 0.0
C508 C 0.36007 0.44856 0.9447 0.0
C509 C 0.31838 0.42673 0.8497 0.0
C510 C 0.36485 0.46859 0.82215 0.0
C511 C 0.36767 0.49498 0.81191 0.0
C512 C 0.38725 0.51342 0.76604 0.0
C513 C 0.40461 0.50487 0.7309 0.0
C514 C 0.40215 0.47811 0.74149 0.0
C515 C 0.38174 0.45963 0.78669 0.0
H516 H 0.87299 0.3637 0.08028 0.0
H517 H 0.82589 0.2869 0.93223 0.0
H518 H 0.86325 0.308 0.84573 0.0
H519 H 0.89158 0.41201 0.94045 0.0
H520 H 0.9254 0.43732 0.98643 0.0
H521 H 0.89632 0.41493 0.03854 0.0
H522 H 0.9271 0.39674 0.09996 0.0
H523 H 0.95617 0.41873 0.04712 0.0
H524 H 0.94287 0.3808 0.04397 0.0
H525 H 0.90561 0.33792 0.77556 0.0
H526 H 0.94586 0.37567 0.71927 0.0
H527 H 0.96223 0.43479 0.90882 0.0
C528 C 0.86983 0.35128 0.02912 0.0
C529 C 0.84596 0.32355 0.01307 0.0
C530 C 0.84389 0.30801 0.94636 0.0
C531 C 0.86501 0.31986 0.89683 0.0
C532 C 0.88792 0.34735 0.91452 0.0
C533 C 0.89015 0.36299 0.97858 0.0
C534 C 0.91573 0.3928 0.98289 0.0
C535 C 0.90671 0.4156 0.9873 0.0
C536 C 0.9367 0.39753 0.04731 0.0
C537 C 0.92765 0.39164 0.91072 0.0
C538 C 0.91157 0.36505 0.87282 0.0
C539 C 0.91824 0.35881 0.80464 0.0
C540 C 0.94132 0.38053 0.77328 0.0
C541 C 0.95732 0.40846 0.80937 0.0
C542 C 0.95062 0.41377 0.87981 0.0
H543 H 0.84505 0.49678 0.967 0.0
H544 H 0.85577 0.5768 0.89827 0.0
H545 H 0.88567 0.5757 0.80278 0.0
H546 H 0.91551 0.5158 0.95733 0.0
H547 H 0.90868 0.48058 0.92667 0.0
H548 H 0.88376 0.48463 0.98 0.0
H549 H 0.84392 0.45458 0.87861 0.0
H550 H 0.86885 0.45049 0.82499 0.0
H551 H 0.84844 0.46507 0.78669 0.0
H552 H 0.91937 0.56922 0.72431 0.0
H553 H 0.95491 0.55868 0.6743 0.0
H554 H 0.92463 0.48477 0.7987 0.0
C555 C 0.85338 0.51403 0.93165 0.0
C556 C 0.84767 0.53681 0.94067 0.0
C557 C 0.85902 0.55867 0.89209 0.0
C558 C 0.87628 0.55836 0.83767 0.0
C559 C 0.88221 0.53612 0.83224 0.0
C560 C 0.87108 0.51434 0.87802 0.0
C561 C 0.88304 0.49457 0.86635 0.0
C562 C 0.89868 0.49388 0.93675 0.0
C563 C 0.85967 0.46439 0.83742 0.0
C564 C 0.90337 0.50918 0.80859 0.0
C565 C 0.90213 0.53275 0.78837 0.0
C566 C 0.92005 0.55045 0.73858 0.0
C567 C 0.93998 0.54414 0.70962 0.0
C568 C 0.94198 0.5205 0.73089 0.0
C569 C 0.92323 0.50273 0.78056 0.0
H570 H 0.37385 0.82839 0.00483 0.0
H571 H 0.28807 0.80672 0.94061 0.0
H572 H 0.30498 0.83432 0.83206 0.0
H573 H 0.4033 0.8962 0.9722 0.0
H574 H 0.43571 0.90162 0.93774 0.0
H575 H 0.41797 0.87446 -0.00102 0.0
H576 H 0.41415 0.83468 0.91066 0.0
H577 H 0.43253 0.85931 0.84369 0.0
H578 H 0.39815 0.82886 0.81946 0.0
H579 H 0.3336 0.87177 0.74228 0.0
H580 H 0.3698 0.91418 0.68573 0.0
H581 H 0.43584 0.90905 0.80903 0.0
C582 C 0.35851 0.8287 0.96656 0.0
C583 C 0.32971 0.8154 0.9806 0.0
C584 C 0.31023 0.81655 0.93011 0.0
C585 C 0.31969 0.83218 0.86842 0.0
C586 C 0.34858 0.84603 0.85753 0.0
C587 C 0.36754 0.84395 0.90506 0.0
C588 C 0.39771 0.86319 0.88753 0.0
C589 C 0.41468 0.88511 0.95287 0.0
C590 C 0.41147 0.84548 0.86406 0.0
C591 C 0.39313 0.8773 0.82417 0.0
C592 C 0.36471 0.86705 0.80656 0.0
C593 C 0.35586 0.87942 0.75463 0.0
C594 C 0.37656 0.90341 0.72229 0.0
C595 C 0.40568 0.91487 0.74272 0.0
C596 C 0.4138 0.9007 0.7918 0.0
H597 H 0.5201 0.34288 0.02883 0.0
H598 H 0.44384 0.26164 0.9731 0.0
H599 H 0.42743 0.28436 0.88499 0.0
H600 H 0.48727 0.38177 0.04021 0.0
H601 H 0.51458 0.41349 0.00479 0.0
H602 H 0.5236 0.39008 0.0492 0.0
H603 H 0.54721 0.38406 0.93513 0.0
H604 H 0.53921 0.40832 0.89103 0.0
H605 H 0.52761 0.37325 0.84735 0.0
H606 H 0.41728 0.31802 0.81429 0.0
H607 H 0.41541 0.3584 0.76287 0.0
H608 H 0.49663 0.4177 0.87683 0.0
C609 C 0.50061 0.32963 0.99525 0.0
C610 C 0.48348 0.30043 0.006 0.0
C611 C 0.45755 0.28384 0.96377 0.0
C612 C 0.448 0.2967 0.9144 0.0
C613 C 0.46465 0.32607 0.90863 0.0
C614 C 0.49063 0.34221 0.9474 0.0
C615 C 0.50311 0.37377 0.93879 0.0
C616 C 0.50737 0.39075 0.01263 0.0
C617 C 0.53092 0.38553 0.90079 0.0
C618 C 0.4799 0.37308 0.89023 0.0
C619 C 0.45805 0.34543 0.87241 0.0
C620 C 0.43434 0.3397 0.8278 0.0
C621 C 0.43335 0.36276 0.79934 0.0
C622 C 0.45563 0.39121 0.81688 0.0
C623 C 0.47896 0.39628 0.86371 0.0
H624 H 0.15541 0.46652 0.99322 0.0
H625 H 0.22314 0.5504 0.95196 0.0
H626 H 0.19743 0.54787 0.83635 0.0
H627 H 0.13503 0.43625 0.79528 0.0
H628 H 0.09805 0.41719 0.81219 0.0
H629 H 0.12444 0.42296 0.88304 0.0
H630 H 0.10445 0.44688 0.97002 0.0
H631 H 0.07811 0.44113 0.89981 0.0
H632 H 0.10156 0.47669 0.94161 0.0
H633 H 0.16031 0.54104 0.74205 0.0
H634 H 0.11523 0.52944 0.67511 0.0
H635 H 0.07256 0.44907 0.77249 0.0
C636 C 0.16517 0.4839 0.95851 0.0
C637 C 0.1913 0.50851 0.98094 0.0
C638 C 0.20336 0.53111 0.93497 0.0
C639 C 0.18891 0.52986 0.86923 0.0
C640 C 0.16269 0.50564 0.84966 0.0
C641 C 0.15113 0.48286 0.8925 0.0
C642 C 0.1213 0.46085 0.86408 0.0
C643 C 0.11962 0.43264 0.83702 0.0
C644 C 0.10013 0.45615 0.92231 0.0
C645 C 0.11725 0.47557 0.80122 0.0
C646 C 0.14151 0.50121 0.79295 0.0
C647 C 0.14155 0.52052 0.74581 0.0
C648 C 0.11598 0.51381 0.70788 0.0
C649 C 0.09104 0.48793 0.71692 0.0
C650 C 0.09184 0.46829 0.76231 0.0
H651 H 0.65045 0.17005 0.11621 0.0
H652 H 0.71975 0.18548 0.98118 0.0
H653 H 0.6855 0.15887 0.8773 0.0
H654 H 0.61083 0.09819 0.05426 0.0
H655 H 0.5769 0.09596 0.05923 0.0
H656 H 0.60658 0.12189 0.11864 0.0
H657 H 0.59968 0.16235 0.07145 0.0
H658 H 0.56995 0.13647 0.01163 0.0
H659 H 0.59917 0.16631 0.97498 0.0
H660 H 0.64383 0.12736 0.78967 0.0
H661 H 0.59874 0.0887 0.73096 0.0
H662 H 0.55719 0.08689 0.9285 0.0
C663 C 0.65876 0.16805 0.06517 0.0
C664 C 0.68827 0.18044 0.05811 0.0
C665 C 0.69758 0.1773 0.98888 0.0
C666 C 0.67817 0.16193 0.92907 0.0
C667 C 0.6494 0.14928 0.93911 0.0
C668 C 0.63971 0.15184 0.00573 0.0
C669 C 0.60791 0.13272 0.00528 0.0
C670 C 0.60012 0.1109 0.06273 0.0
C671 C 0.59332 0.15053 0.01648 0.0
C672 C 0.60136 0.11837 0.92852 0.0
C673 C 0.62546 0.12896 0.89058 0.0
C674 C 0.62487 0.1188 0.81906 0.0
C675 C 0.59915 0.09662 0.78623 0.0
C676 C 0.57455 0.08411 0.82545 0.0
C677 C 0.57563 0.09574 0.89705 0.0
H678 H 0.48739 0.64953 0.97104 0.0
H679 H 0.54959 0.71979 0.85817 0.0
H680 H 0.54832 0.68582 0.76347 0.0
H681 H 0.52047 0.61377 0.9652 0.0
H682 H 0.49095 0.5778 0.95145 0.0
H683 H 0.48623 0.60563 0.99403 0.0
H684 H 0.44603 0.59491 0.89688 0.0
H685 H 0.44992 0.56627 0.85476 0.0
H686 H 0.45211 0.59408 0.80143 0.0
H687 H 0.55321 0.64736 0.70572 0.0
H688 H 0.55916 0.60583 0.67911 0.0
H689 H 0.49664 0.55873 0.83114 0.0
C690 C 0.49999 0.65783 0.92503 0.0
C691 C 0.51889 0.68754 0.92337 0.0
C692 C 0.53458 0.69737 0.86127 0.0
C693 C 0.53419 0.67807 0.80689 0.0
C694 C 0.51796 0.64897 0.81489 0.0
C695 C 0.50053 0.63871 0.87147 0.0
C696 C 0.48958 0.60697 0.87556 0.0
C697 C 0.4973 0.60071 0.95099 0.0
C698 C 0.45751 0.58953 0.85597 0.0
C699 C 0.50563 0.60175 0.81684 0.0
C700 C 0.5212 0.62611 0.78129 0.0
C701 C 0.54049 0.62791 0.73153 0.0
C702 C 0.54405 0.60432 0.71769 0.0
C703 C 0.52847 0.57916 0.75362 0.0
C704 C 0.50856 0.57766 0.80259 0.0
H705 H 0.47647 0.12589 0.23383 0.0
H706 H 0.51727 0.20036 0.39013 0.0
H707 H 0.52889 0.17255 0.47372 0.0
H708 H 0.44122 0.07643 0.35709 0.0
H709 H 0.44472 0.04825 0.31067 0.0
H710 H 0.44445 0.07552 0.26011 0.0
H711 H 0.49397 0.08803 0.21197 0.0
H712 H 0.49254 0.05965 0.26146 0.0
H713 H 0.5225 0.0953 0.27699 0.0
H714 H 0.53337 0.13493 0.54196 0.0
H715 H 0.52544 0.09082 0.59508 0.0
H716 H 0.47581 0.04024 0.3985 0.0
C717 C 0.4876 0.13647 0.28584 0.0
C718 C 0.49531 0.16519 0.30612 0.0
C719 C 0.511 0.17839 0.37354 0.0
C720 C 0.51772 0.16274 0.4211 0.0
C721 C 0.50873 0.13408 0.39998 0.0
C722 C 0.49389 0.12114 0.33385 0.0
C723 C 0.48414 0.08953 0.32593 0.0
C724 C 0.45172 0.07138 0.31269 0.0
C725 C 0.49914 0.08271 0.2655 0.0
C726 C 0.49431 0.08611 0.39985 0.0
C727 C 0.50958 0.11225 0.44058 0.0
C728 C 0.52149 0.11448 0.51039 0.0
C729 C 0.51699 0.08936 0.53988 0.0
C730 C 0.50012 0.06233 0.50044 0.0
C731 C 0.4889 0.06071 0.42931 0.0
H732 H 0.37398 0.53176 0.20532 0.0
H733 H 0.29843 0.47914 0.31463 0.0
H734 H 0.32814 0.47669 0.4166 0.0
H735 H 0.40997 0.4959 0.24489 0.0
H736 H 0.44435 0.52767 0.25699 0.0
H737 H 0.41698 0.52687 0.19813 0.0
H738 H 0.42275 0.57192 0.27219 0.0
H739 H 0.45013 0.57276 0.33151 0.0
H740 H 0.41967 0.57172 0.36932 0.0
H741 H 0.36747 0.47747 0.50171 0.0
H742 H 0.4111 0.48071 0.55774 0.0
H743 H 0.45902 0.53367 0.38943 0.0
C744 C 0.36369 0.5198 0.25093 0.0
C745 C 0.33406 0.5053 0.25221 0.0
C746 C 0.32122 0.49025 0.31302 0.0
C747 C 0.33791 0.48885 0.37095 0.0
C748 C 0.36727 0.50309 0.36727 0.0
C749 C 0.3799 0.51846 0.30876 0.0
C750 C 0.41151 0.53094 0.3149 0.0
C751 C 0.42125 0.51965 0.24991 0.0
C752 C 0.42691 0.56378 0.32246 0.0
C753 C 0.41482 0.51942 0.38481 0.0
C754 C 0.38931 0.5037 0.41526 0.0
C755 C 0.38754 0.48997 0.4785 0.0
C756 C 0.4124 0.49193 0.51007 0.0
C757 C 0.43839 0.50718 0.4776 0.0
C758 C 0.43947 0.52161 0.41542 0.0
H759 H 0.83686 0.3197 0.305 0.0
H760 H 0.81286 0.37404 0.19553 0.0
H761 H 0.85292 0.41657 0.26323 0.0
H762 H 0.86784 0.36678 0.48381 0.0
H763 H 0.89493 0.35705 0.4891 0.0
H764 H 0.86013 0.33174 0.44831 0.0
H765 H 0.88325 0.32634 0.33258 0.0
H766 H 0.91791 0.35288 0.37052 0.0
H767 H 0.90446 0.35731 0.28444 0.0
H768 H 0.90181 0.45295 0.32124 0.0
H769 H 0.9495 0.47975 0.38547 0.0
H770 H 0.94094 0.40021 0.45029 0.0
C771 C 0.83872 0.34031 0.29867 0.0
C772 C 0.82174 0.34353 0.24485 0.0
C773 C 0.82559 0.37111 0.2368 0.0
C774 C 0.8485 0.39539 0.27437 0.0
C775 C 0.86684 0.39153 0.32069 0.0
C776 C 0.86157 0.36458 0.33484 0.0
C777 C 0.8859 0.36586 0.37979 0.0
C778 C 0.87665 0.35471 0.45471 0.0
C779 C 0.8986 0.34964 0.33936 0.0
C780 C 0.90618 0.39762 0.3864 0.0
C781 C 0.89489 0.41221 0.3526 0.0
C782 C 0.91052 0.44173 0.34942 0.0
C783 C 0.9377 0.45678 0.38548 0.0
C784 C 0.94893 0.44225 0.42392 0.0
C785 C 0.93318 0.41216 0.42171 0.0
H786 H 0.56756 0.88924 0.15274 0.0
H787 H 0.56061 0.82469 0.29305 0.0
H788 H 0.5753 0.86019 0.40042 0.0
H789 H 0.62529 0.95311 0.25872 0.0
H790 H 0.60881 0.97403 0.24007 0.0
H791 H 0.6042 0.9458 0.17432 0.0
H792 H 0.54978 0.92261 0.17552 0.0
H793 H 0.55411 0.95063 0.24094 0.0
H794 H 0.53355 0.91387 0.26096 0.0
H795 H 0.58509 0.901 0.49203 0.0
H796 H 0.58438 0.94085 0.56132 0.0
H797 H 0.57967 0.9762 0.3592 0.0
C798 C 0.56921 0.88246 0.20599 0.0
C799 C 0.56246 0.85407 0.21499 0.0
C800 C 0.56566 0.84634 0.28521 0.0
C801 C 0.57407 0.86638 0.34619 0.0
C802 C 0.57928 0.89388 0.33536 0.0
C803 C 0.57684 0.9018 0.2668 0.0
C804 C 0.5795 0.93098 0.2696 0.0
C805 C 0.60604 0.95224 0.23355 0.0
C806 C 0.55264 0.9294 0.23475 0.0
C807 C 0.58261 0.93793 0.35101 0.0
C808 C 0.58344 0.91676 0.38796 0.0
C809 C 0.5848 0.91782 0.46368 0.0
C810 C 0.58443 0.94061 0.50249 0.0
C811 C 0.58196 0.96161 0.46538 0.0
C812 C 0.58171 0.96054 0.38882 0.0
H813 H 0.66884 0.4982 0.19746 0.0
H814 H 0.74346 0.57933 0.27256 0.0
H815 H 0.72167 0.57977 0.38643 0.0
H816 H 0.62226 0.52024 0.24903 0.0
H817 H 0.59529 0.48585 0.27332 0.0
H818 H 0.61929 0.48794 0.20652 0.0
H819 H 0.63371 0.45776 0.28256 0.0
H820 H 0.6098 0.45583 0.34996 0.0
H821 H 0.64664 0.46944 0.3767 0.0
H822 H 0.68968 0.57484 0.48616 0.0
H823 H 0.64894 0.56851 0.55317 0.0
H824 H 0.59318 0.4941 0.4059 0.0
C825 C 0.68092 0.51613 0.23748 0.0
C826 C 0.70823 0.53867 0.22467 0.0
C827 C 0.72298 0.56126 0.28044 0.0
C828 C 0.71065 0.56182 0.34577 0.0
C829 C 0.68336 0.53983 0.3549 0.0
C830 C 0.66858 0.51753 0.30183 0.0
C831 C 0.63804 0.499 0.31929 0.0
C832 C 0.61753 0.49824 0.25846 0.0
C833 C 0.63169 0.46871 0.33295 0.0
C834 C 0.63766 0.51505 0.38901 0.0
C835 C 0.66425 0.53795 0.41004 0.0
C836 C 0.66884 0.55682 0.47053 0.0
C837 C 0.6455 0.55297 0.50851 0.0
C838 C 0.61777 0.53085 0.48473 0.0
C839 C 0.61409 0.5111 0.42576 0.0
H840 H 0.14908 0.64962 0.12816 0.0
H841 H 0.19288 0.73258 0.25153 0.0
H842 H 0.15298 0.71632 0.33197 0.0
H843 H 0.07788 0.63946 0.13445 0.0
H844 H 0.06238 0.60156 0.1408 0.0
H845 H 0.09381 0.62051 0.09262 0.0
H846 H 0.11962 0.60181 0.17387 0.0
H847 H 0.08853 0.58289 0.22294 0.0
H848 H 0.12168 0.60855 0.27146 0.0
H849 H 0.10849 0.68922 0.40124 0.0
H850 H 0.06673 0.65347 0.45881 0.0
H851 H 0.0522 0.58988 0.28255 0.0
C852 C 0.15017 0.6648 0.17091 0.0
C853 C 0.1739 0.69265 0.18259 0.0
C854 C 0.17488 0.7112 0.24141 0.0
C855 C 0.15218 0.70224 0.28669 0.0
C856 C 0.12872 0.67484 0.27172 0.0
C857 C 0.12771 0.65649 0.21503 0.0
C858 C 0.10107 0.62768 0.2116 0.0
C859 C 0.0827 0.62198 0.14065 0.0
C860 C 0.10814 0.60379 0.22044 0.0
C861 C 0.08739 0.63213 0.27699 0.0
C862 C 0.10337 0.65954 0.31055 0.0
C863 C 0.09573 0.66784 0.37488 0.0
C864 C 0.07186 0.64734 0.40705 0.0
C865 C 0.05605 0.61875 0.37524 0.0
C866 C 0.06351 0.61153 0.308 0.0
loop_
_geom_bond_atom_site_label_1
_geom_bond_atom_site_label_2
_geom_bond_distance
_geom_bond_site_symmetry_2
_ccdc_geom_bond_type
H0 C8 0.930 . S
H1 C11 0.930 . S
H2 C13 0.930 . S
H3 C14 0.970 . S
H4 C14 0.970 . S
H5 C16 0.930 . S
H6 C18 0.930 . S
H7 C20 0.930 . S
C8 H0 0.930 . S
C8 C9 1.382 . S
C8 C10 1.426 . S
C9 C8 1.382 . S
C9 C13 1.389 . S
C10 C8 1.426 . S
C10 C11 1.375 . S
C10 C14 1.532 . S
C11 H1 0.930 . S
C11 C10 1.375 . S
C11 C12 1.416 . S
C12 C11 1.416 . S
C12 C13 1.371 . S
C13 H2 0.930 . S
C13 C9 1.389 . S
C13 C12 1.371 . S
C14 H3 0.970 . S
C14 H4 0.970 . S
C14 C10 1.532 . S
C14 C15 1.499 . S
C15 C14 1.499 . S
C15 C16 1.370 . S
C15 C20 1.415 . S
C16 H5 0.930 . S
C16 C15 1.370 . S
C16 C17 1.407 . S
C17 C16 1.407 . S
C17 C18 1.365 . S
C18 H6 0.930 . S
C18 C17 1.365 . S
C18 C19 1.393 . S
C19 C18 1.393 . S
C19 C20 1.387 . S
C20 H7 0.930 . S
C20 C15 1.415 . S
C20 C19 1.387 . S
H21 C29 0.930 . S
H22 C32 0.930 . S
H23 C34 0.930 . S
H24 C35 0.970 . S
H25 C35 0.970 . S
H26 C37 0.930 . S
H27 C39 0.930 . S
H28 C41 0.930 . S
C29 H21 0.930 . S
C29 C30 1.382 . S
C29 C31 1.426 . S
C30 C29 1.382 . S
C30 C34 1.389 . S
C31 C29 1.426 . S
C31 C32 1.375 . S
C31 C35 1.532 . S
C32 H22 0.930 . S
C32 C31 1.375 . S
C32 C33 1.416 . S
C33 C32 1.416 . S
C33 C34 1.371 . S
C34 H23 0.930 . S
C34 C30 1.389 . S
C34 C33 1.371 . S
C35 H24 0.970 . S
C35 H25 0.970 . S
C35 C31 1.532 . S
C35 C36 1.499 . S
C36 C35 1.499 . S
C36 C37 1.370 . S
C36 C41 1.415 . S
C37 H26 0.930 . S
C37 C36 1.370 . S
C37 C38 1.407 . S
C38 C37 1.407 . S
C38 C39 1.365 . S
C39 H27 0.930 . S
C39 C38 1.365 . S
C39 C40 1.393 . S
C40 C39 1.393 . S
C40 C41 1.387 . S
C41 H28 0.930 . S
C41 C36 1.415 . S
C41 C40 1.387 . S
H42 C50 0.930 . S
H43 C53 0.930 . S
H44 C55 0.930 . S
H45 C56 0.970 1_556 S
H46 C56 0.970 . S
H47 C58 0.930 . S
H48 C60 0.930 . S
H49 C62 0.930 . S
C50 H42 0.930 . S
C50 C51 1.382 . S
C50 C52 1.426 1_556 S
C51 C50 1.382 . S
C51 C55 1.389 1_556 S
C52 C50 1.426 1_554 S
C52 C53 1.375 . S
C52 C56 1.532 . S
C53 H43 0.930 . S
C53 C52 1.375 . S
C53 C54 1.416 . S
C54 C53 1.416 . S
C54 C55 1.371 . S
C55 H44 0.930 . S
C55 C51 1.389 1_554 S
C55 C54 1.371 . S
C56 H45 0.970 1_554 S
C56 H46 0.970 . S
C56 C52 1.532 . S
C56 C57 1.499 . S
C57 C56 1.499 . S
C57 C58 1.370 1_554 S
C57 C62 1.415 . S
C58 H47 0.930 . S
C58 C57 1.370 1_556 S
C58 C59 1.407 . S
C59 C58 1.407 . S
C59 C60 1.365 1_556 S
C60 H48 0.930 . S
C60 C59 1.365 1_554 S
C60 C61 1.393 . S
C61 C60 1.393 . S
C61 C62 1.387 . S
C62 H49 0.930 . S
C62 C57 1.415 . S
C62 C61 1.387 . S
H63 C71 0.930 1_556 S
H64 C74 0.930 . S
H65 C76 0.930 . S
H66 C77 0.970 . S
H67 C77 0.970 . S
H68 C79 0.930 1_556 S
H69 C81 0.930 . S
H70 C83 0.930 . S
C71 H63 0.930 1_554 S
C71 C72 1.382 1_554 S
C71 C73 1.426 . S
C72 C71 1.382 1_556 S
C72 C76 1.389 1_556 S
C73 C71 1.426 . S
C73 C74 1.375 . S
C73 C77 1.532 . S
C74 H64 0.930 . S
C74 C73 1.375 . S
C74 C75 1.416 . S
C75 C74 1.416 . S
C75 C76 1.371 . S
C76 H65 0.930 . S
C76 C72 1.389 1_554 S
C76 C75 1.371 . S
C77 H66 0.970 . S
C77 H67 0.970 . S
C77 C73 1.532 . S
C77 C78 1.499 . S
C78 C77 1.499 . S
C78 C79 1.370 . S
C78 C83 1.415 . S
C79 H68 0.930 1_554 S
C79 C78 1.370 . S
C79 C80 1.407 . S
C80 C79 1.407 . S
C80 C81 1.365 . S
C81 H69 0.930 . S
C81 C80 1.365 . S
C81 C82 1.393 . S
C82 C81 1.393 . S
C82 C83 1.387 . S
C83 H70 0.930 . S
C83 C78 1.415 . S
C83 C82 1.387 . S
H84 C92 0.930 1_556 S
H85 C95 0.930 . S
H86 C97 0.930 . S
H87 C98 0.970 . S
H88 C98 0.970 . S
H89 C100 0.930 1_556 S
H90 C102 0.930 . S
H91 C104 0.930 . S
C92 H84 0.930 1_554 S
C92 C93 1.382 . S
C92 C94 1.426 . S
C93 C92 1.382 . S
C93 C97 1.389 . S
C94 C92 1.426 . S
C94 C95 1.375 . S
C94 C98 1.532 . S
C95 H85 0.930 . S
C95 C94 1.375 . S
C95 C96 1.416 . S
C96 C95 1.416 . S
C96 C97 1.371 . S
C97 H86 0.930 . S
C97 C93 1.389 . S
C97 C96 1.371 . S
C98 H87 0.970 . S
C98 H88 0.970 . S
C98 C94 1.532 . S
C98 C99 1.499 . S
C99 C98 1.499 . S
C99 C100 1.370 . S
C99 C104 1.415 . S
C100 H89 0.930 1_554 S
C100 C99 1.370 . S
C100 C101 1.407 . S
C101 C100 1.407 . S
C101 C102 1.365 . S
C102 H90 0.930 . S
C102 C101 1.365 . S
C102 C103 1.393 . S
C103 C102 1.393 . S
C103 C104 1.387 . S
C104 H91 0.930 . S
C104 C99 1.415 . S
C104 C103 1.387 . S
H105 C113 0.930 . S
H106 C116 0.930 . S
H107 C118 0.930 . S
H108 C119 0.970 . S
H109 C119 0.970 . S
H110 C121 0.930 . S
H111 C123 0.930 . S
H112 C125 0.930 . S
C113 H105 0.930 . S
C113 C114 1.382 . S
C113 C115 1.426 . S
C114 C113 1.382 . S
C114 C118 1.389 . S
C115 C113 1.426 . S
C115 C116 1.375 . S
C115 C119 1.532 . S
C116 H106 0.930 . S
C116 C115 1.375 . S
C116 C117 1.416 . S
C117 C116 1.416 . S
C117 C118 1.371 . S
C118 H107 0.930 . S
C118 C114 1.389 . S
C118 C117 1.371 . S
C119 H108 0.970 . S
C119 H109 0.970 . S
C119 C115 1.532 . S
C119 C120 1.499 . S
C120 C119 1.499 . S
C120 C121 1.370 . S
C120 C125 1.415 . S
C121 H110 0.930 . S
C121 C120 1.370 . S
C121 C122 1.407 . S
C122 C121 1.407 . S
C122 C123 1.365 . S
C123 H111 0.930 . S
C123 C122 1.365 . S
C123 C124 1.393 . S
C124 C123 1.393 . S
C124 C125 1.387 . S
C125 H112 0.930 . S
C125 C120 1.415 . S
C125 C124 1.387 . S
C126 O138 1.241 . S
C126 O139 1.280 . S
C127 O140 1.277 . S
C127 O141 1.245 . S
C128 O152 1.247 . S
C128 O154 1.289 . S
Mg129 O130 1.926 . S
Mg129 O139 1.984 . S
Mg129 O141 1.988 1_655 S
Mg129 O142 2.061 . S
O130 Mg129 1.926 . S
O130 Mg131 1.986 1_655 S
O130 Mg132 1.917 1_655 S
Mg131 O130 1.986 1_455 S
Mg131 O138 2.042 1_455 S
Mg131 O140 2.041 . S
Mg131 O146 2.038 1_455 S
Mg131 O154 2.238 . S
Mg132 O130 1.917 1_455 S
Mg132 O133 1.917 . S
Mg132 O143 2.106 1_455 S
Mg132 O145 2.079 1_455 S
Mg132 O154 2.106 . S
Mg132 O155 2.079 . S
O133 Mg132 1.917 . S
O133 Mg134 1.926 . S
O133 Mg135 1.986 . S
Mg134 O133 1.926 . S
Mg134 O148 1.984 . S
Mg134 O151 1.988 1_455 S
Mg134 O152 2.061 . S
Mg135 O133 1.986 . S
Mg135 O143 2.238 1_455 S
Mg135 O147 2.042 . S
Mg135 O149 2.041 1_455 S
Mg135 O156 2.038 . S
C136 O142 1.247 . S
C136 O143 1.289 . S
C137 O155 1.245 . S
C137 O156 1.274 . S
O138 C126 1.241 . S
O138 Mg131 2.042 1_655 S
O139 C126 1.280 . S
O139 Mg129 1.984 . S
O140 C127 1.277 . S
O140 Mg131 2.041 . S
O141 C127 1.245 . S
O141 Mg129 1.988 1_455 S
O142 Mg129 2.061 . S
O142 C136 1.247 . S
O143 Mg132 2.106 1_655 S
O143 Mg135 2.238 1_655 S
O143 C136 1.289 . S
C144 O145 1.245 . S
C144 O146 1.274 . S
O145 Mg132 2.079 1_655 S
O145 C144 1.245 . S
O146 Mg131 2.038 1_655 S
O146 C144 1.274 . S
O147 Mg135 2.042 . S
O147 C150 1.241 . S
O148 Mg134 1.984 . S
O148 C150 1.280 . S
O149 Mg135 2.041 1_655 S
O149 C153 1.277 . S
C150 O147 1.241 . S
C150 O148 1.280 . S
O151 Mg134 1.988 1_655 S
O151 C153 1.245 . S
O152 C128 1.247 . S
O152 Mg134 2.061 . S
C153 O149 1.277 . S
C153 O151 1.245 . S
O154 C128 1.289 . S
O154 Mg131 2.238 . S
O154 Mg132 2.106 . S
O155 Mg132 2.079 . S
O155 C137 1.245 . S
O156 Mg135 2.038 . S
O156 C137 1.274 . S
C157 O169 1.241 . S
C157 O170 1.280 . S
C158 O171 1.277 . S
C158 O172 1.245 . S
C159 O183 1.247 . S
C159 O185 1.289 . S
Mg160 O161 1.926 . S
Mg160 O170 1.984 . S
Mg160 O172 1.988 1_545 S
Mg160 O173 2.061 . S
O161 Mg160 1.926 . S
O161 Mg162 1.986 . S
O161 Mg163 1.917 . S
Mg162 O161 1.986 . S
Mg162 O169 2.042 . S
Mg162 O171 2.041 1_545 S
Mg162 O177 2.038 . S
Mg162 O185 2.238 1_545 S
Mg163 O161 1.917 . S
Mg163 O164 1.917 1_545 S
Mg163 O174 2.106 . S
Mg163 O176 2.079 . S
Mg163 O185 2.106 1_545 S
Mg163 O186 2.079 1_545 S
O164 Mg163 1.917 1_565 S
O164 Mg165 1.926 . S
O164 Mg166 1.986 1_565 S
Mg165 O164 1.926 . S
Mg165 O179 1.984 . S
Mg165 O182 1.988 1_565 S
Mg165 O183 2.061 . S
Mg166 O164 1.986 1_545 S
Mg166 O174 2.238 . S
Mg166 O178 2.042 1_545 S
Mg166 O180 2.041 . S
Mg166 O187 2.038 1_545 S
C167 O173 1.247 . S
C167 O174 1.289 . S
C168 O186 1.245 . S
C168 O187 1.274 . S
O169 C157 1.241 . S
O169 Mg162 2.042 . S
O170 C157 1.280 . S
O170 Mg160 1.984 . S
O171 C158 1.277 . S
O171 Mg162 2.041 1_565 S
O172 C158 1.245 . S
O172 Mg160 1.988 1_565 S
O173 Mg160 2.061 . S
O173 C167 1.247 . S
O174 Mg163 2.106 . S
O174 Mg166 2.238 . S
O174 C167 1.289 . S
C175 O176 1.245 . S
C175 O177 1.274 . S
O176 Mg163 2.079 . S
O176 C175 1.245 . S
O177 Mg162 2.038 . S
O177 C175 1.274 . S
O178 Mg166 2.042 1_565 S
O178 C181 1.241 . S
O179 Mg165 1.984 . S
O179 C181 1.280 . S
O180 Mg166 2.041 . S
O180 C184 1.277 . S
C181 O178 1.241 . S
C181 O179 1.280 . S
O182 Mg165 1.988 1_545 S
O182 C184 1.245 . S
O183 C159 1.247 . S
O183 Mg165 2.061 . S
C184 O180 1.277 . S
C184 O182 1.245 . S
O185 C159 1.289 . S
O185 Mg162 2.238 1_565 S
O185 Mg163 2.106 1_565 S
O186 Mg163 2.079 1_565 S
O186 C168 1.245 . S
O187 Mg166 2.038 1_565 S
O187 C168 1.274 . S
C188 O200 1.241 . S
C188 O201 1.280 . S
C189 O202 1.277 . S
C189 O203 1.245 . S
C190 O214 1.247 . S
C190 O216 1.289 . S
Mg191 O192 1.926 . S
Mg191 O201 1.984 . S
Mg191 O203 1.988 . S
Mg191 O204 2.061 . S
O192 Mg191 1.926 . S
O192 Mg193 1.986 . S
O192 Mg194 1.917 . S
Mg193 O192 1.986 . S
Mg193 O200 2.042 . S
Mg193 O202 2.041 . S
Mg193 O208 2.038 . S
Mg193 O216 2.238 . S
Mg194 O192 1.917 . S
Mg194 O195 1.917 . S
Mg194 O205 2.106 . S
Mg194 O207 2.079 . S
Mg194 O216 2.106 . S
Mg194 O217 2.079 . S
O195 Mg194 1.917 . S
O195 Mg196 1.926 . S
O195 Mg197 1.986 . S
Mg196 O195 1.926 . S
Mg196 O210 1.984 . S
Mg196 O213 1.988 . S
Mg196 O214 2.061 . S
Mg197 O195 1.986 . S
Mg197 O205 2.238 . S
Mg197 O209 2.042 . S
Mg197 O211 2.041 . S
Mg197 O218 2.038 . S
C198 O204 1.247 . S
C198 O205 1.289 . S
C199 O217 1.245 . S
C199 O218 1.274 . S
O200 C188 1.241 . S
O200 Mg193 2.042 . S
O201 C188 1.280 . S
O201 Mg191 1.984 . S
O202 C189 1.277 . S
O202 Mg193 2.041 . S
O203 C189 1.245 . S
O203 Mg191 1.988 . S
O204 Mg191 2.061 . S
O204 C198 1.247 . S
O205 Mg194 2.106 . S
O205 Mg197 2.238 . S
O205 C198 1.289 . S
C206 O207 1.245 . S
C206 O208 1.274 . S
O207 Mg194 2.079 . S
O207 C206 1.245 . S
O208 Mg193 2.038 . S
O208 C206 1.274 . S
O209 Mg197 2.042 . S
O209 C212 1.241 . S
O210 Mg196 1.984 . S
O210 C212 1.280 . S
O211 Mg197 2.041 . S
O211 C215 1.277 . S
C212 O209 1.241 . S
C212 O210 1.280 . S
O213 Mg196 1.988 . S
O213 C215 1.245 . S
O214 C190 1.247 . S
O214 Mg196 2.061 . S
C215 O211 1.277 . S
C215 O213 1.245 . S
O216 C190 1.289 . S
O216 Mg193 2.238 . S
O216 Mg194 2.106 . S
O217 Mg194 2.079 . S
O217 C199 1.245 . S
O218 Mg197 2.038 . S
O218 C199 1.274 . S
H219 C231 0.930 . S
H220 C233 0.930 . S
H221 C234 0.930 . S
H222 C238 0.959 . S
H223 C238 0.959 . S
H224 C238 0.961 . S
H225 C239 0.960 . S
H226 C239 0.961 . S
H227 C239 0.959 . S
H228 C242 0.929 . S
H229 C243 0.931 . S
H230 C245 0.930 . S
C231 H219 0.930 . S
C231 C232 1.399 . S
C231 C236 1.399 . S
C232 C231 1.399 . S
C232 C233 1.376 . S
C233 H220 0.930 . S
C233 C232 1.376 . S
C233 C234 1.388 . S
C234 H221 0.930 . S
C234 C233 1.388 . S
C234 C235 1.390 . S
C235 C234 1.390 . S
C235 C236 1.394 . S
C235 C241 1.465 . S
C236 C231 1.399 . S
C236 C235 1.394 . S
C236 C237 1.516 . S
C237 C236 1.516 . S
C237 C238 1.502 . S
C237 C239 1.561 . S
C237 C240 1.526 . S
C238 H222 0.959 . S
C238 H223 0.959 . S
C238 H224 0.961 . S
C238 C237 1.502 . S
C239 H225 0.960 . S
C239 H226 0.961 . S
C239 H227 0.959 . S
C239 C237 1.561 . S
C240 C237 1.526 . S
C240 C241 1.396 . S
C240 C245 1.390 . S
C241 C235 1.465 . S
C241 C240 1.396 . S
C241 C242 1.399 . S
C242 H228 0.929 . S
C242 C241 1.399 . S
C242 C243 1.385 . S
C243 H229 0.931 . S
C243 C242 1.385 . S
C243 C244 1.389 . S
C244 C243 1.389 . S
C244 C245 1.387 . S
C245 H230 0.930 . S
C245 C240 1.390 . S
C245 C244 1.387 . S
H246 C258 0.930 . S
H247 C260 0.930 . S
H248 C261 0.930 . S
H249 C265 0.959 . S
H250 C265 0.959 . S
H251 C265 0.961 . S
H252 C266 0.960 . S
H253 C266 0.961 . S
H254 C266 0.959 . S
H255 C269 0.929 . S
H256 C270 0.931 . S
H257 C272 0.930 . S
C258 H246 0.930 . S
C258 C259 1.399 . S
C258 C263 1.399 . S
C259 C258 1.399 . S
C259 C260 1.376 . S
C260 H247 0.930 . S
C260 C259 1.376 . S
C260 C261 1.388 . S
C261 H248 0.930 . S
C261 C260 1.388 . S
C261 C262 1.390 . S
C262 C261 1.390 . S
C262 C263 1.394 . S
C262 C268 1.465 . S
C263 C258 1.399 . S
C263 C262 1.394 . S
C263 C264 1.516 . S
C264 C263 1.516 . S
C264 C265 1.502 . S
C264 C266 1.561 . S
C264 C267 1.526 . S
C265 H249 0.959 . S
C265 H250 0.959 . S
C265 H251 0.961 . S
C265 C264 1.502 . S
C266 H252 0.960 . S
C266 H253 0.961 . S
C266 H254 0.959 . S
C266 C264 1.561 . S
C267 C264 1.526 . S
C267 C268 1.396 . S
C267 C272 1.390 . S
C268 C262 1.465 . S
C268 C267 1.396 . S
C268 C269 1.399 . S
C269 H255 0.929 . S
C269 C268 1.399 . S
C269 C270 1.385 . S
C270 H256 0.931 . S
C270 C269 1.385 . S
C270 C271 1.389 . S
C271 C270 1.389 . S
C271 C272 1.387 . S
C272 H257 0.930 . S
C272 C267 1.390 . S
C272 C271 1.387 . S
H273 C285 0.930 . S
H274 C287 0.930 . S
H275 C288 0.930 . S
H276 C292 0.959 . S
H277 C292 0.959 . S
H278 C292 0.961 . S
H279 C293 0.960 . S
H280 C293 0.961 . S
H281 C293 0.959 . S
H282 C296 0.929 . S
H283 C297 0.931 . S
H284 C299 0.930 . S
C285 H273 0.930 . S
C285 C286 1.399 . S
C285 C290 1.399 . S
C286 C285 1.399 . S
C286 C287 1.376 . S
C287 H274 0.930 . S
C287 C286 1.376 . S
C287 C288 1.388 . S
C288 H275 0.930 . S
C288 C287 1.388 . S
C288 C289 1.390 . S
C289 C288 1.390 . S
C289 C290 1.394 . S
C289 C295 1.465 . S
C290 C285 1.399 . S
C290 C289 1.394 . S
C290 C291 1.516 . S
C291 C290 1.516 . S
C291 C292 1.502 . S
C291 C293 1.561 . S
C291 C294 1.526 . S
C292 H276 0.959 . S
C292 H277 0.959 . S
C292 H278 0.961 . S
C292 C291 1.502 . S
C293 H279 0.960 . S
C293 H280 0.961 . S
C293 H281 0.959 . S
C293 C291 1.561 . S
C294 C291 1.526 . S
C294 C295 1.396 . S
C294 C299 1.390 . S
C295 C289 1.465 . S
C295 C294 1.396 . S
C295 C296 1.399 . S
C296 H282 0.929 . S
C296 C295 1.399 . S
C296 C297 1.385 . S
C297 H283 0.931 . S
C297 C296 1.385 . S
C297 C298 1.389 . S
C298 C297 1.389 . S
C298 C299 1.387 . S
C299 H284 0.930 . S
C299 C294 1.390 . S
C299 C298 1.387 . S
H300 C312 0.930 . S
H301 C314 0.930 . S
H302 C315 0.930 . S
H303 C319 0.959 . S
H304 C319 0.959 . S
H305 C319 0.961 . S
H306 C320 0.960 . S
H307 C320 0.961 . S
H308 C320 0.959 . S
H309 C323 0.929 . S
H310 C324 0.931 . S
H311 C326 0.930 . S
C312 H300 0.930 . S
C312 C313 1.399 . S
C312 C317 1.399 . S
C313 C312 1.399 . S
C313 C314 1.376 . S
C314 H301 0.930 . S
C314 C313 1.376 . S
C314 C315 1.388 . S
C315 H302 0.930 . S
C315 C314 1.388 . S
C315 C316 1.390 . S
C316 C315 1.390 . S
C316 C317 1.394 . S
C316 C322 1.465 . S
C317 C312 1.399 . S
C317 C316 1.394 . S
C317 C318 1.516 . S
C318 C317 1.516 . S
C318 C319 1.502 . S
C318 C320 1.561 . S
C318 C321 1.526 . S
C319 H303 0.959 . S
C319 H304 0.959 . S
C319 H305 0.961 . S
C319 C318 1.502 . S
C320 H306 0.960 . S
C320 H307 0.961 . S
C320 H308 0.959 . S
C320 C318 1.561 . S
C321 C318 1.526 . S
C321 C322 1.396 . S
C321 C326 1.390 . S
C322 C316 1.465 . S
C322 C321 1.396 . S
C322 C323 1.399 . S
C323 H309 0.929 . S
C323 C322 1.399 . S
C323 C324 1.385 . S
C324 H310 0.931 . S
C324 C323 1.385 . S
C324 C325 1.389 . S
C325 C324 1.389 . S
C325 C326 1.387 . S
C326 H311 0.930 . S
C326 C321 1.390 . S
C326 C325 1.387 . S
H327 C339 0.930 . S
H328 C341 0.930 . S
H329 C342 0.930 . S
H330 C346 0.959 . S
H331 C346 0.959 . S
H332 C346 0.961 . S
H333 C347 0.960 . S
H334 C347 0.961 . S
H335 C347 0.959 . S
H336 C350 0.929 . S
H337 C351 0.931 . S
H338 C353 0.930 . S
C339 H327 0.930 . S
C339 C340 1.399 . S
C339 C344 1.399 . S
C340 C339 1.399 . S
C340 C341 1.376 . S
C341 H328 0.930 . S
C341 C340 1.376 . S
C341 C342 1.388 . S
C342 H329 0.930 . S
C342 C341 1.388 . S
C342 C343 1.390 . S
C343 C342 1.390 . S
C343 C344 1.394 . S
C343 C349 1.465 . S
C344 C339 1.399 . S
C344 C343 1.394 . S
C344 C345 1.516 . S
C345 C344 1.516 . S
C345 C346 1.502 . S
C345 C347 1.561 . S
C345 C348 1.526 . S
C346 H330 0.959 . S
C346 H331 0.959 . S
C346 H332 0.961 . S
C346 C345 1.502 . S
C347 H333 0.960 . S
C347 H334 0.961 . S
C347 H335 0.959 . S
C347 C345 1.561 . S
C348 C345 1.526 . S
C348 C349 1.396 . S
C348 C353 1.390 . S
C349 C343 1.465 . S
C349 C348 1.396 . S
C349 C350 1.399 . S
C350 H336 0.929 . S
C350 C349 1.399 . S
C350 C351 1.385 . S
C351 H337 0.931 . S
C351 C350 1.385 . S
C351 C352 1.389 . S
C352 C351 1.389 . S
C352 C353 1.387 . S
C353 H338 0.930 . S
C353 C348 1.390 . S
C353 C352 1.387 . S
H354 C366 0.930 . S
H355 C368 0.930 . S
H356 C369 0.930 . S
H357 C373 0.959 . S
H358 C373 0.959 . S
H359 C373 0.961 . S
H360 C374 0.960 . S
H361 C374 0.961 . S
H362 C374 0.959 . S
H363 C377 0.929 . S
H364 C378 0.931 . S
H365 C380 0.930 . S
C366 H354 0.930 . S
C366 C367 1.399 . S
C366 C371 1.399 . S
C367 C366 1.399 . S
C367 C368 1.376 . S
C368 H355 0.930 . S
C368 C367 1.376 . S
C368 C369 1.388 . S
C369 H356 0.930 . S
C369 C368 1.388 . S
C369 C370 1.390 . S
C370 C369 1.390 . S
C370 C371 1.394 . S
C370 C376 1.465 . S
C371 C366 1.399 . S
C371 C370 1.394 . S
C371 C372 1.516 . S
C372 C371 1.516 . S
C372 C373 1.502 . S
C372 C374 1.561 . S
C372 C375 1.526 . S
C373 H357 0.959 . S
C373 H358 0.959 . S
C373 H359 0.961 . S
C373 C372 1.502 . S
C374 H360 0.960 . S
C374 H361 0.961 . S
C374 H362 0.959 . S
C374 C372 1.561 . S
C375 C372 1.526 . S
C375 C376 1.396 . S
C375 C380 1.390 . S
C376 C370 1.465 . S
C376 C375 1.396 . S
C376 C377 1.399 . S
C377 H363 0.929 . S
C377 C376 1.399 . S
C377 C378 1.385 . S
C378 H364 0.931 . S
C378 C377 1.385 . S
C378 C379 1.389 . S
C379 C378 1.389 . S
C379 C380 1.387 . S
C380 H365 0.930 . S
C380 C375 1.390 . S
C380 C379 1.387 . S
H381 C393 0.930 . S
H382 C395 0.930 . S
H383 C396 0.930 . S
H384 C400 0.959 . S
H385 C400 0.959 . S
H386 C400 0.961 . S
H387 C401 0.960 . S
H388 C401 0.961 . S
H389 C401 0.959 . S
H390 C404 0.929 . S
H391 C405 0.931 . S
H392 C407 0.930 . S
C393 H381 0.930 . S
C393 C394 1.399 . S
C393 C398 1.399 . S
C394 C393 1.399 . S
C394 C395 1.376 . S
C395 H382 0.930 . S
C395 C394 1.376 . S
C395 C396 1.388 . S
C396 H383 0.930 . S
C396 C395 1.388 . S
C396 C397 1.390 . S
C397 C396 1.390 . S
C397 C398 1.394 . S
C397 C403 1.465 . S
C398 C393 1.399 . S
C398 C397 1.394 . S
C398 C399 1.516 . S
C399 C398 1.516 . S
C399 C400 1.502 . S
C399 C401 1.561 . S
C399 C402 1.526 . S
C400 H384 0.959 . S
C400 H385 0.959 . S
C400 H386 0.961 . S
C400 C399 1.502 . S
C401 H387 0.960 . S
C401 H388 0.961 . S
C401 H389 0.959 . S
C401 C399 1.561 . S
C402 C399 1.526 . S
C402 C403 1.396 . S
C402 C407 1.390 . S
C403 C397 1.465 . S
C403 C402 1.396 . S
C403 C404 1.399 . S
C404 H390 0.929 . S
C404 C403 1.399 . S
C404 C405 1.385 . S
C405 H391 0.931 . S
C405 C404 1.385 . S
C405 C406 1.389 . S
C406 C405 1.389 . S
C406 C407 1.387 . S
C407 H392 0.930 . S
C407 C402 1.390 . S
C407 C406 1.387 . S
H408 C420 0.930 . S
H409 C422 0.930 . S
H410 C423 0.930 . S
H411 C427 0.959 . S
H412 C427 0.959 . S
H413 C427 0.961 . S
H414 C428 0.960 . S
H415 C428 0.961 . S
H416 C428 0.959 . S
H417 C431 0.929 . S
H418 C432 0.931 . S
H419 C434 0.930 . S
C420 H408 0.930 . S
C420 C421 1.399 . S
C420 C425 1.399 . S
C421 C420 1.399 . S
C421 C422 1.376 . S
C422 H409 0.930 . S
C422 C421 1.376 . S
C422 C423 1.388 . S
C423 H410 0.930 . S
C423 C422 1.388 . S
C423 C424 1.390 . S
C424 C423 1.390 . S
C424 C425 1.394 . S
C424 C430 1.465 . S
C425 C420 1.399 . S
C425 C424 1.394 . S
C425 C426 1.516 . S
C426 C425 1.516 . S
C426 C427 1.502 . S
C426 C428 1.561 . S
C426 C429 1.526 . S
C427 H411 0.959 . S
C427 H412 0.959 . S
C427 H413 0.961 . S
C427 C426 1.502 . S
C428 H414 0.960 . S
C428 H415 0.961 . S
C428 H416 0.959 . S
C428 C426 1.561 . S
C429 C426 1.526 . S
C429 C430 1.396 . S
C429 C434 1.390 . S
C430 C424 1.465 . S
C430 C429 1.396 . S
C430 C431 1.399 . S
C431 H417 0.929 . S
C431 C430 1.399 . S
C431 C432 1.385 . S
C432 H418 0.931 . S
C432 C431 1.385 . S
C432 C433 1.389 . S
C433 C432 1.389 . S
C433 C434 1.387 . S
C434 H419 0.930 . S
C434 C429 1.390 . S
C434 C433 1.387 . S
H435 C447 0.930 1_554 S
H436 C449 0.930 . S
H437 C450 0.930 . S
H438 C454 0.959 . S
H439 C454 0.959 . S
H440 C454 0.961 1_554 S
H441 C455 0.960 1_554 S
H442 C455 0.961 . S
H443 C455 0.959 . S
H444 C458 0.929 . S
H445 C459 0.931 . S
H446 C461 0.930 . S
C447 H435 0.930 1_556 S
C447 C448 1.399 . S
C447 C452 1.399 . S
C448 C447 1.399 . S
C448 C449 1.376 . S
C449 H436 0.930 . S
C449 C448 1.376 . S
C449 C450 1.388 . S
C450 H437 0.930 . S
C450 C449 1.388 . S
C450 C451 1.390 . S
C451 C450 1.390 . S
C451 C452 1.394 . S
C451 C457 1.465 . S
C452 C447 1.399 . S
C452 C451 1.394 . S
C452 C453 1.516 . S
C453 C452 1.516 . S
C453 C454 1.502 . S
C453 C455 1.561 . S
C453 C456 1.526 . S
C454 H438 0.959 . S
C454 H439 0.959 . S
C454 H440 0.961 1_556 S
C454 C453 1.502 . S
C455 H441 0.960 1_556 S
C455 H442 0.961 . S
C455 H443 0.959 . S
C455 C453 1.561 . S
C456 C453 1.526 . S
C456 C457 1.396 . S
C456 C461 1.390 . S
C457 C451 1.465 . S
C457 C456 1.396 . S
C457 C458 1.399 . S
C458 H444 0.929 . S
C458 C457 1.399 . S
C458 C459 1.385 . S
C459 H445 0.931 . S
C459 C458 1.385 . S
C459 C460 1.389 . S
C460 C459 1.389 . S
C460 C461 1.387 . S
C461 H446 0.930 . S
C461 C456 1.390 . S
C461 C460 1.387 . S
H462 C474 0.930 . S
H463 C476 0.930 . S
H464 C477 0.930 . S
H465 C481 0.959 . S
H466 C481 0.959 . S
H467 C481 0.961 . S
H468 C482 0.960 . S
H469 C482 0.961 . S
H470 C482 0.959 1_556 S
H471 C485 0.929 . S
H472 C486 0.931 . S
H473 C488 0.930 . S
C474 H462 0.930 . S
C474 C475 1.399 . S
C474 C479 1.399 . S
C475 C474 1.399 . S
C475 C476 1.376 . S
C476 H463 0.930 . S
C476 C475 1.376 . S
C476 C477 1.388 1_554 S
C477 H464 0.930 . S
C477 C476 1.388 1_556 S
C477 C478 1.390 . S
C478 C477 1.390 . S
C478 C479 1.394 1_556 S
C478 C484 1.465 . S
C479 C474 1.399 . S
C479 C478 1.394 1_554 S
C479 C480 1.516 . S
C480 C479 1.516 . S
C480 C481 1.502 . S
C480 C482 1.561 . S
C480 C483 1.526 1_554 S
C481 H465 0.959 . S
C481 H466 0.959 . S
C481 H467 0.961 . S
C481 C480 1.502 . S
C482 H468 0.960 . S
C482 H469 0.961 . S
C482 H470 0.959 1_554 S
C482 C480 1.561 . S
C483 C480 1.526 1_556 S
C483 C484 1.396 . S
C483 C488 1.390 . S
C484 C478 1.465 . S
C484 C483 1.396 . S
C484 C485 1.399 . S
C485 H471 0.929 . S
C485 C484 1.399 . S
C485 C486 1.385 . S
C486 H472 0.931 . S
C486 C485 1.385 . S
C486 C487 1.389 . S
C487 C486 1.389 . S
C487 C488 1.387 . S
C488 H473 0.930 . S
C488 C483 1.390 . S
C488 C487 1.387 . S
H489 C501 0.930 . S
H490 C503 0.930 . S
H491 C504 0.930 . S
H492 C508 0.959 1_554 S
H493 C508 0.959 . S
H494 C508 0.961 1_554 S
H495 C509 0.960 . S
H496 C509 0.961 . S
H497 C509 0.959 . S
H498 C512 0.929 . S
H499 C513 0.931 . S
H500 C515 0.930 . S
C501 H489 0.930 . S
C501 C502 1.399 . S
C501 C506 1.399 1_554 S
C502 C501 1.399 . S
C502 C503 1.376 . S
C503 H490 0.930 . S
C503 C502 1.376 . S
C503 C504 1.388 1_554 S
C504 H491 0.930 . S
C504 C503 1.388 1_556 S
C504 C505 1.390 . S
C505 C504 1.390 . S
C505 C506 1.394 . S
C505 C511 1.465 . S
C506 C501 1.399 1_556 S
C506 C505 1.394 . S
C506 C507 1.516 . S
C507 C506 1.516 . S
C507 C508 1.502 . S
C507 C509 1.561 . S
C507 C510 1.526 . S
C508 H492 0.959 1_556 S
C508 H493 0.959 . S
C508 H494 0.961 1_556 S
C508 C507 1.502 . S
C509 H495 0.960 . S
C509 H496 0.961 . S
C509 H497 0.959 . S
C509 C507 1.561 . S
C510 C507 1.526 . S
C510 C511 1.396 . S
C510 C515 1.390 . S
C511 C505 1.465 . S
C511 C510 1.396 . S
C511 C512 1.399 . S
C512 H498 0.929 . S
C512 C511 1.399 . S
C512 C513 1.385 . S
C513 H499 0.931 . S
C513 C512 1.385 . S
C513 C514 1.389 . S
C514 C513 1.389 . S
C514 C515 1.387 . S
C515 H500 0.930 . S
C515 C510 1.390 . S
C515 C514 1.387 . S
H516 C528 0.930 . S
H517 C530 0.930 . S
H518 C531 0.930 . S
H519 C535 0.959 1_556 S
H520 C535 0.959 . S
H521 C535 0.961 . S
H522 C536 0.960 . S
H523 C536 0.961 . S
H524 C536 0.959 . S
H525 C539 0.929 . S
H526 C540 0.931 . S
H527 C542 0.930 . S
C528 H516 0.930 . S
C528 C529 1.399 . S
C528 C533 1.399 1_554 S
C529 C528 1.399 . S
C529 C530 1.376 1_554 S
C530 H517 0.930 . S
C530 C529 1.376 1_556 S
C530 C531 1.388 . S
C531 H518 0.930 . S
C531 C530 1.388 . S
C531 C532 1.390 . S
C532 C531 1.390 . S
C532 C533 1.394 . S
C532 C538 1.465 . S
C533 C528 1.399 1_556 S
C533 C532 1.394 . S
C533 C534 1.516 1_556 S
C534 C533 1.516 1_554 S
C534 C535 1.502 . S
C534 C536 1.561 . S
C534 C537 1.526 1_554 S
C535 H519 0.959 1_554 S
C535 H520 0.959 . S
C535 H521 0.961 . S
C535 C534 1.502 . S
C536 H522 0.960 . S
C536 H523 0.961 . S
C536 H524 0.959 . S
C536 C534 1.561 . S
C537 C534 1.526 1_556 S
C537 C538 1.396 . S
C537 C542 1.390 . S
C538 C532 1.465 . S
C538 C537 1.396 . S
C538 C539 1.399 . S
C539 H525 0.929 . S
C539 C538 1.399 . S
C539 C540 1.385 . S
C540 H526 0.931 . S
C540 C539 1.385 . S
C540 C541 1.389 . S
C541 C540 1.389 . S
C541 C542 1.387 . S
C542 H527 0.930 . S
C542 C537 1.390 . S
C542 C541 1.387 . S
H543 C555 0.930 . S
H544 C557 0.930 . S
H545 C558 0.930 . S
H546 C562 0.959 . S
H547 C562 0.959 . S
H548 C562 0.961 1_554 S
H549 C563 0.960 . S
H550 C563 0.961 . S
H551 C563 0.959 . S
H552 C566 0.929 . S
H553 C567 0.931 . S
H554 C569 0.930 . S
C555 H543 0.930 . S
C555 C556 1.399 . S
C555 C560 1.399 . S
C556 C555 1.399 . S
C556 C557 1.376 . S
C557 H544 0.930 . S
C557 C556 1.376 . S
C557 C558 1.388 . S
C558 H545 0.930 . S
C558 C557 1.388 . S
C558 C559 1.390 . S
C559 C558 1.390 . S
C559 C560 1.394 . S
C559 C565 1.465 . S
C560 C555 1.399 . S
C560 C559 1.394 . S
C560 C561 1.516 . S
C561 C560 1.516 . S
C561 C562 1.502 . S
C561 C563 1.561 . S
C561 C564 1.526 . S
C562 H546 0.959 . S
C562 H547 0.959 . S
C562 H548 0.961 1_556 S
C562 C561 1.502 . S
C563 H549 0.960 . S
C563 H550 0.961 . S
C563 H551 0.959 . S
C563 C561 1.561 . S
C564 C561 1.526 . S
C564 C565 1.396 . S
C564 C569 1.390 . S
C565 C559 1.465 . S
C565 C564 1.396 . S
C565 C566 1.399 . S
C566 H552 0.929 . S
C566 C565 1.399 . S
C566 C567 1.385 . S
C567 H553 0.931 . S
C567 C566 1.385 . S
C567 C568 1.389 . S
C568 C567 1.389 . S
C568 C569 1.387 . S
C569 H554 0.930 . S
C569 C564 1.390 . S
C569 C568 1.387 . S
H570 C582 0.930 . S
H571 C584 0.930 . S
H572 C585 0.930 . S
H573 C589 0.959 . S
H574 C589 0.959 . S
H575 C589 0.961 . S
H576 C590 0.960 . S
H577 C590 0.961 . S
H578 C590 0.959 . S
H579 C593 0.929 . S
H580 C594 0.931 . S
H581 C596 0.930 . S
C582 H570 0.930 . S
C582 C583 1.399 . S
C582 C587 1.399 . S
C583 C582 1.399 . S
C583 C584 1.376 . S
C584 H571 0.930 . S
C584 C583 1.376 . S
C584 C585 1.388 . S
C585 H572 0.930 . S
C585 C584 1.388 . S
C585 C586 1.390 . S
C586 C585 1.390 . S
C586 C587 1.394 . S
C586 C592 1.465 . S
C587 C582 1.399 . S
C587 C586 1.394 . S
C587 C588 1.516 . S
C588 C587 1.516 . S
C588 C589 1.502 . S
C588 C590 1.561 . S
C588 C591 1.526 . S
C589 H573 0.959 . S
C589 H574 0.959 . S
C589 H575 0.961 . S
C589 C588 1.502 . S
C590 H576 0.960 . S
C590 H577 0.961 . S
C590 H578 0.959 . S
C590 C588 1.561 . S
C591 C588 1.526 . S
C591 C592 1.396 . S
C591 C596 1.390 . S
C592 C586 1.465 . S
C592 C591 1.396 . S
C592 C593 1.399 . S
C593 H579 0.929 . S
C593 C592 1.399 . S
C593 C594 1.385 . S
C594 H580 0.931 . S
C594 C593 1.385 . S
C594 C595 1.389 . S
C595 C594 1.389 . S
C595 C596 1.387 . S
C596 H581 0.930 . S
C596 C591 1.390 . S
C596 C595 1.387 . S
H597 C609 0.930 . S
H598 C611 0.930 . S
H599 C612 0.930 . S
H600 C616 0.959 . S
H601 C616 0.959 . S
H602 C616 0.961 . S
H603 C617 0.960 . S
H604 C617 0.961 . S
H605 C617 0.959 . S
H606 C620 0.929 . S
H607 C621 0.931 . S
H608 C623 0.930 . S
C609 H597 0.930 . S
C609 C610 1.399 . S
C609 C614 1.399 . S
C610 C609 1.399 . S
C610 C611 1.376 . S
C611 H598 0.930 . S
C611 C610 1.376 . S
C611 C612 1.388 1_554 S
C612 H599 0.930 . S
C612 C611 1.388 1_556 S
C612 C613 1.390 . S
C613 C612 1.390 . S
C613 C614 1.394 1_556 S
C613 C619 1.465 . S
C614 C609 1.399 . S
C614 C613 1.394 1_554 S
C614 C615 1.516 . S
C615 C614 1.516 . S
C615 C616 1.502 . S
C615 C617 1.561 . S
C615 C618 1.526 1_554 S
C616 H600 0.959 . S
C616 H601 0.959 . S
C616 H602 0.961 . S
C616 C615 1.502 . S
C617 H603 0.960 . S
C617 H604 0.961 . S
C617 H605 0.959 . S
C617 C615 1.561 . S
C618 C615 1.526 1_556 S
C618 C619 1.396 . S
C618 C623 1.390 . S
C619 C613 1.465 . S
C619 C618 1.396 . S
C619 C620 1.399 . S
C620 H606 0.929 . S
C620 C619 1.399 . S
C620 C621 1.385 . S
C621 H607 0.931 . S
C621 C620 1.385 . S
C621 C622 1.389 . S
C622 C621 1.389 . S
C622 C623 1.387 . S
C623 H608 0.930 . S
C623 C618 1.390 . S
C623 C622 1.387 . S
H624 C636 0.930 . S
H625 C638 0.930 . S
H626 C639 0.930 . S
H627 C643 0.959 . S
H628 C643 0.959 . S
H629 C643 0.961 . S
H630 C644 0.960 . S
H631 C644 0.961 . S
H632 C644 0.959 . S
H633 C647 0.929 . S
H634 C648 0.931 . S
H635 C650 0.930 . S
C636 H624 0.930 . S
C636 C637 1.399 1_556 S
C636 C641 1.399 . S
C637 C636 1.399 1_554 S
C637 C638 1.376 . S
C638 H625 0.930 . S
C638 C637 1.376 . S
C638 C639 1.388 . S
C639 H626 0.930 . S
C639 C638 1.388 . S
C639 C640 1.390 1_554 S
C640 C639 1.390 1_556 S
C640 C641 1.394 . S
C640 C646 1.465 . S
C641 C636 1.399 . S
C641 C640 1.394 . S
C641 C642 1.516 . S
C642 C641 1.516 . S
C642 C643 1.502 . S
C642 C644 1.561 . S
C642 C645 1.526 . S
C643 H627 0.959 . S
C643 H628 0.959 . S
C643 H629 0.961 . S
C643 C642 1.502 . S
C644 H630 0.960 . S
C644 H631 0.961 . S
C644 H632 0.959 . S
C644 C642 1.561 . S
C645 C642 1.526 . S
C645 C646 1.396 . S
C645 C650 1.390 . S
C646 C640 1.465 . S
C646 C645 1.396 . S
C646 C647 1.399 . S
C647 H633 0.929 . S
C647 C646 1.399 . S
C647 C648 1.385 . S
C648 H634 0.931 . S
C648 C647 1.385 . S
C648 C649 1.389 . S
C649 C648 1.389 . S
C649 C650 1.387 . S
C650 H635 0.930 . S
C650 C645 1.390 . S
C650 C649 1.387 . S
H651 C663 0.930 . S
H652 C665 0.930 . S
H653 C666 0.930 . S
H654 C670 0.959 . S
H655 C670 0.959 . S
H656 C670 0.961 . S
H657 C671 0.960 . S
H658 C671 0.961 . S
H659 C671 0.959 . S
H660 C674 0.929 . S
H661 C675 0.931 . S
H662 C677 0.930 . S
C663 H651 0.930 . S
C663 C664 1.399 1_556 S
C663 C668 1.399 . S
C664 C663 1.399 1_554 S
C664 C665 1.376 . S
C665 H652 0.930 . S
C665 C664 1.376 . S
C665 C666 1.388 . S
C666 H653 0.930 . S
C666 C665 1.388 . S
C666 C667 1.390 1_554 S
C667 C666 1.390 1_556 S
C667 C668 1.394 . S
C667 C673 1.465 . S
C668 C663 1.399 . S
C668 C667 1.394 . S
C668 C669 1.516 . S
C669 C668 1.516 . S
C669 C670 1.502 . S
C669 C671 1.561 . S
C669 C672 1.526 . S
C670 H654 0.959 . S
C670 H655 0.959 . S
C670 H656 0.961 . S
C670 C669 1.502 . S
C671 H657 0.960 . S
C671 H658 0.961 . S
C671 H659 0.959 . S
C671 C669 1.561 . S
C672 C669 1.526 . S
C672 C673 1.396 . S
C672 C677 1.390 . S
C673 C667 1.465 . S
C673 C672 1.396 . S
C673 C674 1.399 . S
C674 H660 0.929 . S
C674 C673 1.399 . S
C674 C675 1.385 . S
C675 H661 0.931 . S
C675 C674 1.385 . S
C675 C676 1.389 . S
C676 C675 1.389 . S
C676 C677 1.387 . S
C677 H662 0.930 . S
C677 C672 1.390 . S
C677 C676 1.387 . S
H678 C690 0.930 . S
H679 C692 0.930 . S
H680 C693 0.930 . S
H681 C697 0.959 . S
H682 C697 0.959 . S
H683 C697 0.961 . S
H684 C698 0.960 . S
H685 C698 0.961 . S
H686 C698 0.959 . S
H687 C701 0.929 . S
H688 C702 0.931 . S
H689 C704 0.930 . S
C690 H678 0.930 . S
C690 C691 1.399 . S
C690 C695 1.399 . S
C691 C690 1.399 . S
C691 C692 1.376 . S
C692 H679 0.930 . S
C692 C691 1.376 . S
C692 C693 1.388 . S
C693 H680 0.930 . S
C693 C692 1.388 . S
C693 C694 1.390 . S
C694 C693 1.390 . S
C694 C695 1.394 . S
C694 C700 1.465 . S
C695 C690 1.399 . S
C695 C694 1.394 . S
C695 C696 1.516 . S
C696 C695 1.516 . S
C696 C697 1.502 . S
C696 C698 1.561 . S
C696 C699 1.526 . S
C697 H681 0.959 . S
C697 H682 0.959 . S
C697 H683 0.961 . S
C697 C696 1.502 . S
C698 H684 0.960 . S
C698 H685 0.961 . S
C698 H686 0.959 . S
C698 C696 1.561 . S
C699 C696 1.526 . S
C699 C700 1.396 . S
C699 C704 1.390 . S
C700 C694 1.465 . S
C700 C699 1.396 . S
C700 C701 1.399 . S
C701 H687 0.929 . S
C701 C700 1.399 . S
C701 C702 1.385 . S
C702 H688 0.931 . S
C702 C701 1.385 . S
C702 C703 1.389 . S
C703 C702 1.389 . S
C703 C704 1.387 . S
C704 H689 0.930 . S
C704 C699 1.390 . S
C704 C703 1.387 . S
H705 C717 0.930 . S
H706 C719 0.930 . S
H707 C720 0.930 . S
H708 C724 0.959 . S
H709 C724 0.959 . S
H710 C724 0.961 . S
H711 C725 0.960 . S
H712 C725 0.961 . S
H713 C725 0.959 . S
H714 C728 0.929 . S
H715 C729 0.931 . S
H716 C731 0.930 . S
C717 H705 0.930 . S
C717 C718 1.399 . S
C717 C722 1.399 . S
C718 C717 1.399 . S
C718 C719 1.376 . S
C719 H706 0.930 . S
C719 C718 1.376 . S
C719 C720 1.388 . S
C720 H707 0.930 . S
C720 C719 1.388 . S
C720 C721 1.390 . S
C721 C720 1.390 . S
C721 C722 1.394 . S
C721 C727 1.465 . S
C722 C717 1.399 . S
C722 C721 1.394 . S
C722 C723 1.516 . S
C723 C722 1.516 . S
C723 C724 1.502 . S
C723 C725 1.561 . S
C723 C726 1.526 . S
C724 H708 0.959 . S
C724 H709 0.959 . S
C724 H710 0.961 . S
C724 C723 1.502 . S
C725 H711 0.960 . S
C725 H712 0.961 . S
C725 H713 0.959 . S
C725 C723 1.561 . S
C726 C723 1.526 . S
C726 C727 1.396 . S
C726 C731 1.390 . S
C727 C721 1.465 . S
C727 C726 1.396 . S
C727 C728 1.399 . S
C728 H714 0.929 . S
C728 C727 1.399 . S
C728 C729 1.385 . S
C729 H715 0.931 . S
C729 C728 1.385 . S
C729 C730 1.389 . S
C730 C729 1.389 . S
C730 C731 1.387 . S
C731 H716 0.930 . S
C731 C726 1.390 . S
C731 C730 1.387 . S
H732 C744 0.930 . S
H733 C746 0.930 . S
H734 C747 0.930 . S
H735 C751 0.959 . S
H736 C751 0.959 . S
H737 C751 0.961 . S
H738 C752 0.960 . S
H739 C752 0.961 . S
H740 C752 0.959 . S
H741 C755 0.929 . S
H742 C756 0.931 . S
H743 C758 0.930 . S
C744 H732 0.930 . S
C744 C745 1.399 . S
C744 C749 1.399 . S
C745 C744 1.399 . S
C745 C746 1.376 . S
C746 H733 0.930 . S
C746 C745 1.376 . S
C746 C747 1.388 . S
C747 H734 0.930 . S
C747 C746 1.388 . S
C747 C748 1.390 . S
C748 C747 1.390 . S
C748 C749 1.394 . S
C748 C754 1.465 . S
C749 C744 1.399 . S
C749 C748 1.394 . S
C749 C750 1.516 . S
C750 C749 1.516 . S
C750 C751 1.502 . S
C750 C752 1.561 . S
C750 C753 1.526 . S
C751 H735 0.959 . S
C751 H736 0.959 . S
C751 H737 0.961 . S
C751 C750 1.502 . S
C752 H738 0.960 . S
C752 H739 0.961 . S
C752 H740 0.959 . S
C752 C750 1.561 . S
C753 C750 1.526 . S
C753 C754 1.396 . S
C753 C758 1.390 . S
C754 C748 1.465 . S
C754 C753 1.396 . S
C754 C755 1.399 . S
C755 H741 0.929 . S
C755 C754 1.399 . S
C755 C756 1.385 . S
C756 H742 0.931 . S
C756 C755 1.385 . S
C756 C757 1.389 . S
C757 C756 1.389 . S
C757 C758 1.387 . S
C758 H743 0.930 . S
C758 C753 1.390 . S
C758 C757 1.387 . S
H759 C771 0.930 . S
H760 C773 0.930 . S
H761 C774 0.930 . S
H762 C778 0.959 . S
H763 C778 0.959 . S
H764 C778 0.961 . S
H765 C779 0.960 . S
H766 C779 0.961 . S
H767 C779 0.959 . S
H768 C782 0.929 . S
H769 C783 0.931 . S
H770 C785 0.930 . S
C771 H759 0.930 . S
C771 C772 1.399 . S
C771 C776 1.399 . S
C772 C771 1.399 . S
C772 C773 1.376 . S
C773 H760 0.930 . S
C773 C772 1.376 . S
C773 C774 1.388 . S
C774 H761 0.930 . S
C774 C773 1.388 . S
C774 C775 1.390 . S
C775 C774 1.390 . S
C775 C776 1.394 . S
C775 C781 1.465 . S
C776 C771 1.399 . S
C776 C775 1.394 . S
C776 C777 1.516 . S
C777 C776 1.516 . S
C777 C778 1.502 . S
C777 C779 1.561 . S
C777 C780 1.526 . S
C778 H762 0.959 . S
C778 H763 0.959 . S
C778 H764 0.961 . S
C778 C777 1.502 . S
C779 H765 0.960 . S
C779 H766 0.961 . S
C779 H767 0.959 . S
C779 C777 1.561 . S
C780 C777 1.526 . S
C780 C781 1.396 . S
C780 C785 1.390 . S
C781 C775 1.465 . S
C781 C780 1.396 . S
C781 C782 1.399 . S
C782 H768 0.929 . S
C782 C781 1.399 . S
C782 C783 1.385 . S
C783 H769 0.931 . S
C783 C782 1.385 . S
C783 C784 1.389 . S
C784 C783 1.389 . S
C784 C785 1.387 . S
C785 H770 0.930 . S
C785 C780 1.390 . S
C785 C784 1.387 . S
H786 C798 0.930 . S
H787 C800 0.930 . S
H788 C801 0.930 . S
H789 C805 0.959 . S
H790 C805 0.959 . S
H791 C805 0.961 . S
H792 C806 0.960 . S
H793 C806 0.961 . S
H794 C806 0.959 . S
H795 C809 0.929 . S
H796 C810 0.931 . S
H797 C812 0.930 . S
C798 H786 0.930 . S
C798 C799 1.399 . S
C798 C803 1.399 . S
C799 C798 1.399 . S
C799 C800 1.376 . S
C800 H787 0.930 . S
C800 C799 1.376 . S
C800 C801 1.388 . S
C801 H788 0.930 . S
C801 C800 1.388 . S
C801 C802 1.390 . S
C802 C801 1.390 . S
C802 C803 1.394 . S
C802 C808 1.465 . S
C803 C798 1.399 . S
C803 C802 1.394 . S
C803 C804 1.516 . S
C804 C803 1.516 . S
C804 C805 1.502 . S
C804 C806 1.561 . S
C804 C807 1.526 . S
C805 H789 0.959 . S
C805 H790 0.959 . S
C805 H791 0.961 . S
C805 C804 1.502 . S
C806 H792 0.960 . S
C806 H793 0.961 . S
C806 H794 0.959 . S
C806 C804 1.561 . S
C807 C804 1.526 . S
C807 C808 1.396 . S
C807 C812 1.390 . S
C808 C802 1.465 . S
C808 C807 1.396 . S
C808 C809 1.399 . S
C809 H795 0.929 . S
C809 C808 1.399 . S
C809 C810 1.385 . S
C810 H796 0.931 . S
C810 C809 1.385 . S
C810 C811 1.389 . S
C811 C810 1.389 . S
C811 C812 1.387 . S
C812 H797 0.930 . S
C812 C807 1.390 . S
C812 C811 1.387 . S
H813 C825 0.930 . S
H814 C827 0.930 . S
H815 C828 0.930 . S
H816 C832 0.959 . S
H817 C832 0.959 . S
H818 C832 0.961 . S
H819 C833 0.960 . S
H820 C833 0.961 . S
H821 C833 0.959 . S
H822 C836 0.929 . S
H823 C837 0.931 . S
H824 C839 0.930 . S
C825 H813 0.930 . S
C825 C826 1.399 . S
C825 C830 1.399 . S
C826 C825 1.399 . S
C826 C827 1.376 . S
C827 H814 0.930 . S
C827 C826 1.376 . S
C827 C828 1.388 . S
C828 H815 0.930 . S
C828 C827 1.388 . S
C828 C829 1.390 . S
C829 C828 1.390 . S
C829 C830 1.394 . S
C829 C835 1.465 . S
C830 C825 1.399 . S
C830 C829 1.394 . S
C830 C831 1.516 . S
C831 C830 1.516 . S
C831 C832 1.502 . S
C831 C833 1.561 . S
C831 C834 1.526 . S
C832 H816 0.959 . S
C832 H817 0.959 . S
C832 H818 0.961 . S
C832 C831 1.502 . S
C833 H819 0.960 . S
C833 H820 0.961 . S
C833 H821 0.959 . S
C833 C831 1.561 . S
C834 C831 1.526 . S
C834 C835 1.396 . S
C834 C839 1.390 . S
C835 C829 1.465 . S
C835 C834 1.396 . S
C835 C836 1.399 . S
C836 H822 0.929 . S
C836 C835 1.399 . S
C836 C837 1.385 . S
C837 H823 0.931 . S
C837 C836 1.385 . S
C837 C838 1.389 . S
C838 C837 1.389 . S
C838 C839 1.387 . S
C839 H824 0.930 . S
C839 C834 1.390 . S
C839 C838 1.387 . S
H840 C852 0.930 . S
H841 C854 0.930 . S
H842 C855 0.930 . S
H843 C859 0.959 . S
H844 C859 0.959 . S
H845 C859 0.961 . S
H846 C860 0.960 . S
H847 C860 0.961 . S
H848 C860 0.959 . S
H849 C863 0.929 . S
H850 C864 0.931 . S
H851 C866 0.930 . S
C852 H840 0.930 . S
C852 C853 1.399 . S
C852 C857 1.399 . S
C853 C852 1.399 . S
C853 C854 1.376 . S
C854 H841 0.930 . S
C854 C853 1.376 . S
C854 C855 1.388 . S
C855 H842 0.930 . S
C855 C854 1.388 . S
C855 C856 1.390 . S
C856 C855 1.390 . S
C856 C857 1.394 . S
C856 C862 1.465 . S
C857 C852 1.399 . S
C857 C856 1.394 . S
C857 C858 1.516 . S
C858 C857 1.516 . S
C858 C859 1.502 . S
C858 C860 1.561 . S
C858 C861 1.526 . S
C859 H843 0.959 . S
C859 H844 0.959 . S
C859 H845 0.961 . S
C859 C858 1.502 . S
C860 H846 0.960 . S
C860 H847 0.961 . S
C860 H848 0.959 . S
C860 C858 1.561 . S
C861 C858 1.526 . S
C861 C862 1.396 . S
C861 C866 1.390 . S
C862 C856 1.465 . S
C862 C861 1.396 . S
C862 C863 1.399 . S
C863 H849 0.929 . S
C863 C862 1.399 . S
C863 C864 1.385 . S
C864 H850 0.931 . S
C864 C863 1.385 . S
C864 C865 1.389 . S
C865 C864 1.389 . S
C865 C866 1.387 . S
C866 H851 0.930 . S
C866 C861 1.390 . S
C866 C865 1.387 . S
C232 C12 1.727 . S
C244 C137 1.816 . S
C259 C40 1.569 . S
C271 C184 1.590 . S
C298 C188 1.791 . S
C286 C61 1.837 . S
C325 C153 1.535 . S
C313 C82 1.538 . S
C340 C96 1.692 . S
C352 C168 1.786 . S
C379 C190 1.148 . S
C367 C117 1.110 . S
C406 C159 1.515 . S
C394 C51 1.556 . S
C421 C72 1.449 . S
C433 C199 1.457 . S
C460 C128 1.383 . S
C448 C101 1.420 1_556 S
C475 C122 1.442 . S
C487 C157 1.465 . S
C502 C17 1.840 . S
C514 C215 1.919 . S
C541 C126 1.511 . S
C529 C30 1.533 . S
C568 C144 1.848 . S
C556 C80 1.856 1_556 S
C595 C158 1.592 . S
C583 C93 1.577 1_556 S
C622 C212 1.798 . S
C610 C114 1.771 . S
C649 C127 1.506 . S
C637 C9 1.421 . S
C676 C175 1.695 . S
C664 C38 1.735 . S
C691 C59 1.160 . S
C703 C198 1.085 . S
C730 C167 1.517 . S
C718 C124 1.472 . S
C757 C206 1.363 . S
C745 C19 1.358 . S
C784 C136 1.380 . S
C772 C33 1.442 . S
C811 C181 1.446 . S
C799 C54 1.462 . S
C826 C75 1.837 . S
C838 C189 1.859 . S
C853 C103 1.490 . S
C865 C150 1.504 . S
