# Generated by pormake.
# Topology zzz, (3,6)-cn, num edge types: 1
# Building blocks:
#     Node 0, Type 0, BuildingBlock: BETDIP_clean_linker_0, # of connection points: 3
#     Node 1, Type 0, BuildingBlock: BETDIP_clean_linker_0, # of connection points: 3
#     Node 2, Type 0, BuildingBlock: BETDIP_clean_linker_0, # of connection points: 3
#     Node 3, Type 0, BuildingBlock: BETDIP_clean_linker_0, # of connection points: 3
#     Node 4, Type 0, BuildingBlock: BETDIP_clean_linker_0, # of connection points: 3
#     Node 5, Type 0, BuildingBlock: BETDIP_clean_linker_0, # of connection points: 3
#     Node 6, Type 0, BuildingBlock: BETDIP_clean_linker_0, # of connection points: 3
#     Node 7, Type 0, BuildingBlock: BETDIP_clean_linker_0, # of connection points: 3
#     Node 8, Type 1, BuildingBlock: KUMBUR_clean_sbu_1, # of connection points: 6
#     Node 9, Type 1, BuildingBlock: KUMBUR_clean_sbu_1, # of connection points: 6
#     Node 10, Type 1, BuildingBlock: KUMBUR_clean_sbu_1, # of connection points: 6
#     Node 11, Type 1, BuildingBlock: KUMBUR_clean_sbu_1, # of connection points: 6
#     Edge 12, Type (0, 1), BuildingBlock: MIFKUJ_clean_linker_0, # of connection points: 2
#     Edge 13, Type (0, 1), BuildingBlock: MIFKUJ_clean_linker_0, # of connection points: 2
#     Edge 14, Type (0, 1), BuildingBlock: MIFKUJ_clean_linker_0, # of connection points: 2
#     Edge 15, Type (0, 1), BuildingBlock: MIFKUJ_clean_linker_0, # of connection points: 2
#     Edge 16, Type (0, 1), BuildingBlock: MIFKUJ_clean_linker_0, # of connection points: 2
#     Edge 17, Type (0, 1), BuildingBlock: MIFKUJ_clean_linker_0, # of connection points: 2
#     Edge 18, Type (0, 1), BuildingBlock: MIFKUJ_clean_linker_0, # of connection points: 2
#     Edge 19, Type (0, 1), BuildingBlock: MIFKUJ_clean_linker_0, # of connection points: 2
#     Edge 20, Type (0, 1), BuildingBlock: MIFKUJ_clean_linker_0, # of connection points: 2
#     Edge 21, Type (0, 1), BuildingBlock: MIFKUJ_clean_linker_0, # of connection points: 2
#     Edge 22, Type (0, 1), BuildingBlock: MIFKUJ_clean_linker_0, # of connection points: 2
#     Edge 23, Type (0, 1), BuildingBlock: MIFKUJ_clean_linker_0, # of connection points: 2
#     Edge 24, Type (0, 1), BuildingBlock: MIFKUJ_clean_linker_0, # of connection points: 2
#     Edge 25, Type (0, 1), BuildingBlock: MIFKUJ_clean_linker_0, # of connection points: 2
#     Edge 26, Type (0, 1), BuildingBlock: MIFKUJ_clean_linker_0, # of connection points: 2
#     Edge 27, Type (0, 1), BuildingBlock: MIFKUJ_clean_linker_0, # of connection points: 2
#     Edge 28, Type (0, 1), BuildingBlock: MIFKUJ_clean_linker_0, # of connection points: 2
#     Edge 29, Type (0, 1), BuildingBlock: MIFKUJ_clean_linker_0, # of connection points: 2
#     Edge 30, Type (0, 1), BuildingBlock: MIFKUJ_clean_linker_0, # of connection points: 2
#     Edge 31, Type (0, 1), BuildingBlock: MIFKUJ_clean_linker_0, # of connection points: 2
#     Edge 32, Type (0, 1), BuildingBlock: MIFKUJ_clean_linker_0, # of connection points: 2
#     Edge 33, Type (0, 1), BuildingBlock: MIFKUJ_clean_linker_0, # of connection points: 2
#     Edge 34, Type (0, 1), BuildingBlock: MIFKUJ_clean_linker_0, # of connection points: 2
#     Edge 35, Type (0, 1), BuildingBlock: MIFKUJ_clean_linker_0, # of connection points: 2
# Relax obj value: 0.148
# Max RMSD: 0.090
# Mean RMSD: 0.076
data_MOF--net-zzz--node1-KUMBUR_clean_sbu_1--node2-BETDIP_clean_linker_0--edge1-MIFKUJ_clean_linker_0
_symmetry_space_group_name_H-M    P1
_symmetry_Int_Tables_number       1
_symmetry_cell_setting            triclinic
loop_
_symmetry_equiv_pos_as_xyz
'x, y, z'
_cell_length_a     65.308966
_cell_length_b     65.11952
_cell_length_c     20.428948
_cell_angle_alpha  90.169785
_cell_angle_beta   90.066866
_cell_angle_gamma 90.375721
loop_
_atom_site_label
_atom_site_type_symbol
_atom_site_fract_x
_atom_site_fract_y
_atom_site_fract_z
_atom_type_partial_charge
H0 H 0.76046 0.51833 0.28889 0.0
H1 H 0.7495 0.56406 0.14079 0.0
H2 H 0.80707 0.56258 0.24293 0.0
H3 H 0.71442 0.55909 0.20562 0.0
C4 C 0.71537 0.54414 0.18201 0.0
C5 C 0.76546 0.53171 0.26173 0.0
C6 C 0.78499 0.54066 0.27489 0.0
C7 C 0.75227 0.54057 0.21388 0.0
C8 C 0.75923 0.5577 0.17846 0.0
C9 C 0.77916 0.56547 0.18678 0.0
C10 C 0.79146 0.55721 0.23651 0.0
N11 N 0.73278 0.53162 0.19692 0.0
H12 H 1.01061 0.761 0.32918 0.0
H13 H 0.98238 0.75611 0.13846 0.0
H14 H 0.98166 0.8134 0.24011 0.0
H15 H 0.97113 0.72427 0.19245 0.0
C16 C 0.98717 0.71994 0.19537 0.0
C17 C 1.00167 0.76763 0.29002 0.0
C18 C 0.99637 0.78887 0.29228 0.0
C19 C 0.99557 0.75522 0.23544 0.0
C20 C 0.98538 0.76464 0.18312 0.0
C21 C 0.9804 0.78538 0.18517 0.0
C22 C 0.98508 0.79709 0.24041 0.0
N23 N 1.00069 0.73383 0.2295 0.0
H24 H 0.78076 0.01879 0.32344 0.0
H25 H 0.7897 0.98564 0.14261 0.0
H26 H 0.73164 0.98294 0.24032 0.0
H27 H 0.82456 0.98108 0.22307 0.0
C28 C 0.82502 0.99692 0.20647 0.0
C29 C 0.77509 1.00836 0.28614 0.0
C30 C 0.75472 1.00047 0.29023 0.0
C31 C 0.78816 1.00227 0.23363 0.0
C32 C 0.78029 0.98934 0.18464 0.0
C33 C 0.75991 0.98268 0.186 0.0
C34 C 0.7476 0.98768 0.23987 0.0
N35 N 0.8086 1.01012 0.22602 0.0
H36 H 0.5203 0.78565 0.31385 0.0
H37 H 0.55584 0.79473 0.13796 0.0
H38 H 0.55694 0.73671 0.2356 0.0
H39 H 0.5593 0.82734 0.19089 0.0
C40 C 0.54281 0.82936 0.18792 0.0
C41 C 0.53103 0.78002 0.27777 0.0
C42 C 0.53883 0.75965 0.28298 0.0
C43 C 0.53772 0.79317 0.22596 0.0
C44 C 0.55135 0.78533 0.17919 0.0
C45 C 0.55813 0.76507 0.18172 0.0
C46 C 0.55219 0.75263 0.23434 0.0
N47 N 0.53021 0.81374 0.2175 0.0
H48 H 0.27705 0.5016 0.94535 0.0
H49 H 0.28358 0.49446 0.15515 0.0
H50 H 0.22417 0.49468 0.07048 0.0
H51 H 0.30567 0.52585 0.12248 0.0
C52 C 0.31491 0.51409 0.09901 0.0
C53 C 0.27028 0.49951 0.99322 0.0
C54 C 0.24852 0.49718 0.99949 0.0
C55 C 0.28314 0.49919 0.05039 0.0
C56 C 0.27413 0.49561 0.11168 0.0
C57 C 0.25309 0.49336 0.11776 0.0
C58 C 0.24058 0.49507 0.06292 0.0
N59 N 0.30497 0.50225 0.0484 0.0
H60 H 0.03505 0.29111 0.92249 0.0
H61 H 0.04635 0.2906 0.1311 0.0
H62 H 0.05422 0.23571 0.01951 0.0
H63 H 0.01544 0.31077 0.11748 0.0
C64 C 0.02462 0.32218 0.09177 0.0
C65 C 0.03996 0.28319 0.96623 0.0
C66 C 0.04508 0.26188 0.96305 0.0
C67 C 0.04083 0.29393 0.0275 0.0
C68 C 0.04634 0.28298 0.0839 0.0
C69 C 0.05044 0.26202 0.08109 0.0
C70 C 0.05086 0.25202 0.02074 0.0
N71 N 0.03544 0.31525 0.03456 0.0
H72 H 0.25601 0.02777 0.96188 0.0
H73 H 0.2493 0.06318 0.13929 0.0
H74 H 0.30745 0.06057 0.04209 0.0
H75 H 0.23666 0.02742 0.16411 0.0
C76 C 0.22423 0.03067 0.13021 0.0
C77 C 0.26229 0.0382 0.99816 0.0
C78 C 0.28302 0.04498 0.99319 0.0
C79 C 0.25008 0.04448 0.05247 0.0
C80 C 0.25865 0.05796 0.09888 0.0
C81 C 0.27941 0.0633 0.09729 0.0
C82 C 0.29119 0.05716 0.04339 0.0
N83 N 0.22991 0.03637 0.06471 0.0
H84 H 0.51083 0.26497 0.96807 0.0
H85 H 0.47508 0.25797 0.14413 0.0
H86 H 0.47457 0.31507 0.04025 0.0
H87 H 0.51594 0.246 0.16045 0.0
C88 C 0.50933 0.23353 0.13166 0.0
C89 C 0.49974 0.27091 1.0025 0.0
C90 C 0.49258 0.29143 0.99624 0.0
C91 C 0.49317 0.25858 0.05623 0.0
C92 C 0.47956 0.26696 0.10186 0.0
C93 C 0.47301 0.28731 0.09678 0.0
C94 C 0.47895 0.29903 0.04283 0.0
N95 N 0.50114 0.23848 0.06849 0.0
Tb96 Tb 1.00097 0.03069 0.58626 0.0
C97 C 0.06412 0.04542 0.80166 0.0
N98 N 0.06528 0.0363 0.74199 0.0
C99 C 0.09702 0.05376 0.72074 0.0
C100 C 0.07897 0.05987 0.82217 0.0
C101 C 0.08186 0.03959 0.70255 0.0
C102 C 0.09547 0.06413 0.78051 0.0
C103 C 0.04663 0.04862 0.90547 0.0
C104 C 0.04822 0.03979 0.84259 0.0
C105 C 0.06078 0.0638 0.9251 0.0
C106 C 0.07698 0.06934 0.88363 0.0
Tb107 Tb 0.04049 1.01265 0.718 0.0
N108 N 0.03528 0.02457 0.82258 0.0
C109 C 0.03146 0.04128 0.94777 0.0
C110 C 0.02192 0.016 0.8663 0.0
C111 C 0.01932 0.02461 0.92851 0.0
H112 H 0.08346 0.03129 0.6571 0.0
H113 H 1.00835 0.01798 0.96217 0.0
H114 H 0.95585 0.02113 0.66131 0.0
H115 H 0.02771 1.0075 0.34832 0.0
H116 H 0.01372 1.00209 0.85458 0.0
H117 H 0.02971 0.04767 0.99644 0.0
H118 H 0.02723 0.02868 0.44864 0.0
H119 H 0.10996 0.05658 0.68887 0.0
H120 H 0.05971 0.07087 0.97305 0.0
H121 H 0.08809 0.08067 0.90003 0.0
H122 H 0.92865 0.99515 0.65465 0.0
H123 H 0.10723 0.07511 0.79448 0.0
H124 H 1.00215 0.97963 0.3333 0.0
N125 N 0.97343 1.00853 0.58326 0.0
C126 C 0.97284 0.9956 0.53075 0.0
C127 C 0.94124 0.99478 0.62029 0.0
C128 C 0.95697 0.98102 0.52293 0.0
C129 C 0.95717 1.00915 0.6253 0.0
C130 C 0.94135 0.98036 0.56964 0.0
N131 N 1.0025 1.01216 0.4917 0.0
C132 C 0.01634 0.01626 0.44333 0.0
C133 C 0.98715 0.98542 0.42601 0.0
C134 C 0.98761 0.99778 0.48269 0.0
C135 C 1.00199 0.98878 0.37768 0.0
C136 C 0.01649 1.00445 0.38606 0.0
H137 H 0.92885 0.96941 0.56541 0.0
H138 H 0.94483 0.95668 0.46116 0.0
H139 H 0.97133 0.96051 0.37636 0.0
O140 O 1.00497 0.05703 0.53049 0.0
O141 O 0.01685 1.00121 0.57602 0.0
O142 O 0.01859 0.98945 0.68013 0.0
O143 O 0.97428 0.04422 0.54594 0.0
O144 O 0.03326 0.03908 0.56551 0.0
O145 O 0.05174 1.01352 0.61638 0.0
O146 O 0.05485 0.99479 0.78996 0.0
O147 O 0.03934 0.04586 0.69275 0.0
O148 O 1.00555 0.05117 0.67073 0.0
O149 O 0.06339 0.99208 0.68883 0.0
O150 O 1.00787 1.00566 0.74089 0.0
O151 O 0.98977 0.0311 0.68832 0.0
C152 C 0.01603 0.9859 0.61725 0.0
C153 C 0.97727 0.07533 0.48061 0.0
C154 C 0.98303 0.10853 0.4313 0.0
C155 C 0.96334 0.10784 0.40372 0.0
C156 C 0.95744 0.07468 0.45409 0.0
C157 C 0.95052 0.09096 0.41561 0.0
C158 C 0.98984 0.09234 0.46955 0.0
C159 C 0.04973 0.02747 0.57014 0.0
C160 C 0.98542 0.0585 0.5193 0.0
C161 C 0.95681 0.9681 0.46768 0.0
C162 C 0.97185 0.97032 0.41927 0.0
C163 C 0.02333 0.05808 0.69165 0.0
C164 C 0.0628 0.96187 0.74951 0.0
C165 C 0.04306 0.93159 0.7786 0.0
C166 C 0.05702 0.91924 0.74465 0.0
C167 C 0.07687 0.9494 0.71638 0.0
C168 C 0.04592 0.95284 0.78094 0.0
C169 C 0.07399 0.92813 0.71427 0.0
C170 C 0.99162 0.01759 0.73607 0.0
C171 C 0.06505 0.98425 0.74695 0.0
H172 H 0.95787 0.12038 0.3738 0.0
H173 H 0.94748 0.06159 0.46248 0.0
H174 H 0.93528 0.09047 0.39479 0.0
H175 H 1.00518 0.09295 0.49002 0.0
H176 H 0.05497 0.90272 0.74278 0.0
H177 H 0.08991 0.95614 0.6915 0.0
H178 H 0.03481 0.96225 0.80637 0.0
H179 H 0.08491 0.91852 0.68906 0.0
Tb180 Tb 0.52673 0.04502 0.70574 0.0
C181 C 0.50833 0.95968 0.59736 0.0
N182 N 0.52086 0.97434 0.57191 0.0
C183 C 0.54652 0.94902 0.55028 0.0
C184 C 0.51464 0.93907 0.60153 0.0
C185 C 0.53964 0.96928 0.54759 0.0
C186 C 0.53403 0.93386 0.57777 0.0
C187 C 0.4754 0.95053 0.64345 0.0
C188 C 0.48909 0.96547 0.61896 0.0
C189 C 0.48185 0.93009 0.64993 0.0
C190 C 0.50143 0.92437 0.62898 0.0
Tb191 Tb 0.50822 1.00693 0.57103 0.0
N192 N 0.48333 0.98539 0.61165 0.0
C193 C 0.45533 0.95637 0.65776 0.0
C194 C 0.46306 0.99032 0.61718 0.0
C195 C 0.44899 0.97622 0.64283 0.0
H196 H 0.54923 0.98078 0.52563 0.0
H197 H 0.43315 0.98055 0.64954 0.0
H198 H 0.48479 0.05835 0.78987 0.0
H199 H 0.58419 0.09047 0.58167 0.0
H200 H 0.4574 1.00497 0.60086 0.0
H201 H 0.44434 0.94537 0.67674 0.0
H202 H 0.56899 0.05881 0.62501 0.0
H203 H 0.56144 0.94512 0.53106 0.0
H204 H 0.4716 0.91846 0.66935 0.0
H205 H 0.50606 0.90848 0.63317 0.0
H206 H 0.465 0.08971 0.80899 0.0
H207 H 0.53943 0.91817 0.57993 0.0
H208 H 0.5659 0.12341 0.59341 0.0
N209 N 0.50695 0.07299 0.72875 0.0
C210 C 0.51404 0.09117 0.70489 0.0
C211 C 0.47864 0.0903 0.77899 0.0
C212 C 0.50345 0.10962 0.71628 0.0
C213 C 0.48973 0.07241 0.76681 0.0
C214 C 0.48544 0.10897 0.75328 0.0
N215 N 0.54176 0.07309 0.6586 0.0
C216 C 0.56054 0.07279 0.6294 0.0
C217 C 0.54029 0.10985 0.64525 0.0
C218 C 0.53214 0.09126 0.66935 0.0
C219 C 0.55907 0.10945 0.61241 0.0
C220 C 0.5694 0.09088 0.60552 0.0
H221 H 0.47687 0.12282 0.76321 0.0
H222 H 0.50331 0.14245 0.69917 0.0
H223 H 0.53562 0.14267 0.63731 0.0
O224 O 0.5549 0.04323 0.75375 0.0
O225 O 0.51227 0.05791 0.61626 0.0
O226 O 0.52154 0.03572 0.535 0.0
O227 O 0.52844 0.0569 0.8023 0.0
O228 O 0.5515 0.02734 0.65616 0.0
O229 O 0.53986 0.0171 0.55375 0.0
O230 O 0.48677 0.01537 0.50018 0.0
O231 O 0.52472 0.99361 0.65613 0.0
O232 O 0.51702 1.01471 0.74248 0.0
O233 O 0.50891 0.99201 0.47938 0.0
O234 O 0.48557 0.02685 0.62286 0.0
O235 O 0.49763 0.02976 0.72752 0.0
C236 C 0.51612 0.05406 0.55429 0.0
C237 C 0.56045 0.05618 0.86332 0.0
C238 C 0.59252 0.05065 0.92038 0.0
C239 C 0.58555 0.0628 0.97266 0.0
C240 C 0.55346 0.06818 0.91579 0.0
C241 C 0.56607 0.07154 0.97017 0.0
C242 C 0.57999 0.04766 0.86573 0.0
C243 C 0.55488 0.02083 0.59556 0.0
C244 C 0.5477 0.05229 0.80568 0.0
C245 C 0.51126 0.12812 0.69103 0.0
C246 C 0.52965 0.12824 0.65573 0.0
C247 C 0.52139 0.9964 0.71906 0.0
C248 C 0.4757 0.98827 0.43381 0.0
C249 C 0.44093 0.98681 0.3923 0.0
C250 C 0.44129 0.96532 0.39475 0.0
C251 C 0.47617 0.96669 0.43558 0.0
C252 C 0.45819 0.99814 0.41083 0.0
C253 C 0.45902 0.9553 0.41557 0.0
C254 C 0.48225 0.02856 0.68642 0.0
C255 C 0.49244 1.0011 0.45952 0.0
H256 H 0.59493 0.06512 0.01585 0.0
H257 H 0.53836 0.07495 0.91472 0.0
H258 H 0.56067 0.08076 0.01071 0.0
H259 H 0.5855 0.0385 0.82506 0.0
H260 H 0.42794 0.95638 0.38065 0.0
H261 H 0.48954 0.95867 0.45329 0.0
H262 H 0.45766 1.01481 0.4099 0.0
H263 H 0.45936 0.9387 0.41724 0.0
Tb264 Tb 0.53914 0.51327 0.56534 0.0
C265 C 0.46614 0.50544 0.7565 0.0
N266 N 0.46785 0.51868 0.70558 0.0
C267 C 0.43218 0.51387 0.68097 0.0
C268 C 0.44764 0.49494 0.76938 0.0
C269 C 0.45079 0.52416 0.67138 0.0
C270 C 0.43073 0.49876 0.72913 0.0
C271 C 0.4805 0.49256 0.85763 0.0
C272 C 0.48222 0.50434 0.80017 0.0
C273 C 0.46268 0.48087 0.8684 0.0
C274 C 0.44625 0.48206 0.8243 0.0
Tb275 Tb 0.49926 0.53397 0.69182 0.0
N276 N 0.49908 0.51608 0.78827 0.0
C277 C 0.49634 0.49366 0.90377 0.0
C278 C 0.51371 0.51856 0.83563 0.0
C279 C 0.5128 0.50706 0.89332 0.0
H280 H 0.45136 0.53731 0.63971 0.0
H281 H 0.52468 0.50871 0.92998 0.0
H282 H 0.58309 0.5211 0.64518 0.0
H283 H 0.5114 0.54188 0.33181 0.0
H284 H 0.52604 0.52944 0.82928 0.0
H285 H 0.49559 0.4849 0.94872 0.0
H286 H 0.50884 0.52272 0.43323 0.0
H287 H 0.41882 0.51807 0.65273 0.0
H288 H 0.46112 0.47152 0.91192 0.0
H289 H 0.43224 0.47369 0.83467 0.0
H290 H 0.61459 0.54048 0.62914 0.0
H291 H 0.41619 0.49111 0.73754 0.0
H292 H 0.54305 0.56108 0.30587 0.0
N293 N 0.56822 0.53283 0.56025 0.0
C294 C 0.57092 0.54334 0.50352 0.0
C295 C 0.60229 0.54195 0.59421 0.0
C296 C 0.58936 0.55403 0.49082 0.0
C297 C 0.58396 0.53133 0.60411 0.0
C298 C 0.60498 0.55356 0.53767 0.0
N299 N 0.53786 0.53217 0.47057 0.0
C300 C 0.52231 0.53167 0.42573 0.0
C301 C 0.55779 0.55347 0.39752 0.0
C302 C 0.55527 0.54304 0.45739 0.0
C303 C 0.54174 0.55319 0.3523 0.0
C304 C 0.52385 0.54239 0.3668 0.0
H305 H 0.6194 0.56146 0.52959 0.0
H306 H 0.60622 0.57194 0.41949 0.0
H307 H 0.57901 0.57028 0.33657 0.0
O308 O 0.54885 0.49606 0.48396 0.0
O309 O 0.53697 0.54667 0.58614 0.0
O310 O 0.50276 0.55061 0.59916 0.0
O311 O 0.56296 0.49226 0.57847 0.0
O312 O 0.5073 0.50594 0.53451 0.0
O313 O 0.4858 0.52786 0.59324 0.0
O314 O 0.50763 0.56274 0.73038 0.0
O315 O 0.51218 0.50335 0.7086 0.0
O316 O 0.51773 0.49009 0.60637 0.0
O317 O 0.47647 0.55206 0.73516 0.0
O318 O 0.53226 0.53977 0.713 0.0
O319 O 0.54831 0.51172 0.66871 0.0
C320 C 0.52045 0.55794 0.57934 0.0
C321 C 0.56473 0.46422 0.50693 0.0
C322 C 0.552 0.43128 0.46761 0.0
C323 C 0.57142 0.42277 0.47941 0.0
C324 C 0.58383 0.45538 0.51962 0.0
C325 C 0.58711 0.4347 0.50615 0.0
C326 C 0.54867 0.45209 0.48204 0.0
C327 C 0.48933 0.51494 0.54395 0.0
C328 C 0.56255 0.4863 0.51783 0.0
C329 C 0.59199 0.56407 0.43079 0.0
C330 C 0.57639 0.56344 0.38391 0.0
C331 C 0.51302 0.4876 0.66858 0.0
C332 C 0.48918 0.57085 0.82474 0.0
C333 C 0.50051 0.59385 0.91078 0.0
C334 C 0.4922 0.58064 0.95805 0.0
C335 C 0.48044 0.55778 0.87194 0.0
C336 C 0.49898 0.58884 0.84448 0.0
C337 C 0.48204 0.56269 0.93843 0.0
C338 C 0.5475 0.52651 0.71264 0.0
C339 C 0.48954 0.56573 0.75505 0.0
H340 H 0.5745 0.40682 0.46836 0.0
H341 H 0.59632 0.46458 0.53917 0.0
H342 H 0.60193 0.42797 0.51565 0.0
H343 H 0.5339 0.45892 0.47212 0.0
H344 H 0.49331 0.58435 0.00966 0.0
H345 H 0.47263 0.54376 0.85774 0.0
H346 H 0.50587 0.59882 0.808 0.0
H347 H 0.47546 0.55254 0.97473 0.0
Tb348 Tb 0.025 0.54544 0.5739 0.0
C349 C 0.03722 0.46639 0.75513 0.0
N350 N 0.02316 0.46956 0.70728 0.0
C351 C 0.02531 0.43408 0.67565 0.0
C352 C 0.0468 0.4472 0.76269 0.0
C353 C 0.0161 0.45335 0.67069 0.0
C354 C 0.04112 0.43113 0.72069 0.0
C355 C 0.05225 0.47801 0.85735 0.0
C356 C 0.03977 0.48146 0.80207 0.0
C357 C 0.06335 0.4597 0.86193 0.0
C358 C 0.06058 0.44426 0.81471 0.0
Tb359 Tb 1.00948 0.50187 0.703 0.0
N360 N 0.02806 0.49849 0.7974 0.0
C361 C 0.05216 0.49247 0.90818 0.0
C362 C 0.02629 0.51143 0.85 0.0
C363 C 0.03874 0.50902 0.9051 0.0
H364 H 1.00351 0.4554 0.63689 0.0
H365 H 0.03767 0.5197 0.94565 0.0
H366 H 0.99435 0.58406 0.60798 0.0
H367 H 0.05781 0.52401 0.34108 0.0
H368 H 0.0151 0.52349 0.85077 0.0
H369 H 0.06152 0.4904 0.95145 0.0
H370 H 0.05695 0.52732 0.46201 0.0
H371 H 0.02009 0.42148 0.6451 0.0
H372 H 0.07322 0.45687 0.90357 0.0
H373 H 0.06833 0.42973 0.8208 0.0
H374 H 0.96933 0.60547 0.54932 0.0
H375 H 0.04803 0.41612 0.7251 0.0
H376 H 0.02936 0.53781 0.27452 0.0
N377 N 1.00112 0.56547 0.52496 0.0
C378 C 0.99889 0.56294 0.45947 0.0
C379 C 0.97733 0.59339 0.52361 0.0
C380 C 0.98488 0.57488 0.42377 0.0
C381 C 0.99142 0.58114 0.55683 0.0
C382 C 0.97363 0.58988 0.45709 0.0
N383 N 0.02774 0.54155 0.46318 0.0
C384 C 0.04444 0.53321 0.43298 0.0
C385 C 0.01273 0.54933 0.35846 0.0
C386 C 0.01272 0.55044 0.42732 0.0
C387 C 0.02878 0.53901 0.32739 0.0
C388 C 0.04494 0.53129 0.36477 0.0
H389 H 0.96282 0.59948 0.43135 0.0
H390 H 0.97278 0.5813 0.32725 0.0
H391 H 0.99712 0.55882 0.26996 0.0
O392 O 0.05221 0.55867 0.61181 0.0
O393 O 0.99274 0.5407 0.60428 0.0
O394 O 0.98996 0.506 0.61605 0.0
O395 O 0.03541 0.57325 0.53469 0.0
O396 O 0.02404 0.51476 0.52722 0.0
O397 O 0.01901 0.48926 0.60637 0.0
O398 O 0.97991 0.50975 0.73478 0.0
O399 O 0.03807 0.51933 0.71388 0.0
O400 O 0.0487 0.52371 0.60865 0.0
O401 O 0.99297 0.47959 0.75631 0.0
O402 O 1.00853 0.53322 0.74367 0.0
O403 O 0.01517 0.55876 0.66689 0.0
C404 C 0.98228 0.52349 0.5956 0.0
C405 C 0.07045 0.57852 0.53318 0.0
C406 C 0.10134 0.56808 0.47664 0.0
C407 C 0.10409 0.58828 0.45418 0.0
C408 C 0.07333 0.59864 0.5104 0.0
C409 C 0.09006 0.60346 0.47085 0.0
C410 C 0.08438 0.56319 0.51568 0.0
C411 C 0.02301 0.4953 0.54559 0.0
C412 C 0.05183 0.57375 0.57003 0.0
C413 C 0.98366 0.57249 0.35554 0.0
C414 C 0.99755 0.5597 0.32291 0.0
C415 C 0.05285 0.51946 0.67041 0.0
C416 C 0.95893 0.48612 0.79758 0.0
C417 C 0.93044 0.49627 0.8661 0.0
C418 C 0.92456 0.47554 0.87206 0.0
C419 C 0.9531 0.46544 0.80404 0.0
C420 C 0.9476 0.5014 0.82854 0.0
C421 C 0.93588 0.46022 0.84102 0.0
C422 C 1.01056 0.5526 0.72624 0.0
C423 C 0.97757 0.4919 0.76269 0.0
H424 H 0.11695 0.59223 0.42312 0.0
H425 H 0.06243 0.61054 0.52235 0.0
H426 H 0.0921 0.61895 0.45282 0.0
H427 H 0.08206 0.54757 0.53223 0.0
H428 H 0.91109 0.47123 0.8998 0.0
H429 H 0.96186 0.45339 0.78075 0.0
H430 H 0.95248 0.51731 0.82486 0.0
H431 H 0.93131 0.44428 0.84571 0.0
H432 H 0.21809 0.04835 0.2475 0.0
H433 H 0.18676 0.04998 0.31199 0.0
H434 H 0.15303 0.02219 0.15288 0.0
H435 H 0.18466 0.02142 0.08647 0.0
H436 H 0.12829 0.04848 0.21821 0.0
H437 H 0.17102 0.99296 0.28311 0.0
H438 H 0.20327 0.9765 0.31657 0.0
H439 H 0.20584 1.01462 0.4883 0.0
H440 H 0.17373 0.0315 0.4554 0.0
H441 H 0.07651 0.99763 0.53199 0.0
H442 H 0.10315 0.99929 0.44867 0.0
H443 H 0.08793 0.06257 0.41106 0.0
H444 H 0.06028 0.06044 0.49192 0.0
H445 H 0.13605 0.01666 0.43704 0.0
H446 H 0.10475 0.07907 0.26392 0.0
H447 H 0.07147 0.09248 0.22673 0.0
H448 H 0.04322 0.03392 0.26329 0.0
H449 H 0.07637 0.02009 0.30009 0.0
C450 C 0.20392 0.043 0.2255 0.0
C451 C 0.20393 0.03474 0.16178 0.0
C452 C 0.18594 0.04378 0.2628 0.0
C453 C 0.1674 0.03565 0.23865 0.0
C454 C 0.16705 0.02845 0.1733 0.0
C455 C 0.18515 0.02805 0.13512 0.0
C456 C 0.14916 0.03344 0.28375 0.0
C457 C 0.12998 0.04148 0.26598 0.0
C458 C 0.15094 0.02394 0.34597 0.0
C459 C 0.17006 1.01359 0.36655 0.0
C460 C 0.17852 0.99789 0.32787 0.0
C461 C 0.19677 0.98848 0.34673 0.0
C462 C 0.20662 0.99453 0.40446 0.0
C463 C 0.1982 1.00996 0.44357 0.0
C464 C 0.17996 0.01943 0.42489 0.0
C465 C 0.07871 1.0119 0.50572 0.0
C466 C 0.06613 0.0289 0.5189 0.0
C467 C 0.0941 1.01288 0.45781 0.0
C468 C 0.09775 0.03099 0.42194 0.0
C469 C 0.08532 0.04813 0.43586 0.0
C470 C 0.06953 0.04699 0.48284 0.0
C471 C 0.115 0.03191 0.37232 0.0
C472 C 0.13413 0.02362 0.38928 0.0
C473 C 0.11292 0.04066 0.30886 0.0
C474 C 0.09302 0.04861 0.28517 0.0
C475 C 0.09146 0.06902 0.26362 0.0
C476 C 0.07262 0.0767 0.24276 0.0
C477 C 0.05524 0.06407 0.24282 0.0
C478 C 0.05669 0.0437 0.26347 0.0
C479 C 0.0755 0.03593 0.28437 0.0
H480 H 0.04066 0.07007 0.22676 0.0
H481 H 0.22076 0.98725 0.41894 0.0
H482 H 0.48151 0.20102 0.11756 0.0
H483 H 0.48048 0.16896 0.18226 0.0
H484 H 0.53595 0.18738 0.28133 0.0
H485 H 0.53668 0.21927 0.21868 0.0
H486 H 0.53625 0.1462 0.23902 0.0
H487 H 0.49029 0.19299 0.35346 0.0
H488 H 0.45934 0.21433 0.36184 0.0
H489 H 0.42157 0.1617 0.31955 0.0
H490 H 0.45233 0.14012 0.30991 0.0
H491 H 0.54728 0.0764 0.49999 0.0
H492 H 0.54507 0.10571 0.42669 0.0
H493 H 0.47954 0.09668 0.41358 0.0
H494 H 0.4818 0.06944 0.4957 0.0
H495 H 0.48195 0.13212 0.40209 0.0
H496 H 0.52306 0.08497 0.28016 0.0
H497 H 0.55115 0.06259 0.24359 0.0
H498 H 0.59455 0.11136 0.2767 0.0
H499 H 0.56671 0.13403 0.3134 0.0
C500 C 0.49364 0.19801 0.15237 0.0
C501 C 0.50936 0.21261 0.16229 0.0
C502 C 0.49293 0.17977 0.18992 0.0
C503 C 0.5081 0.17567 0.23737 0.0
C504 C 0.52404 0.19003 0.24544 0.0
C505 C 0.5245 0.20829 0.20923 0.0
C506 C 0.50783 0.1566 0.27906 0.0
C507 C 0.52444 0.14312 0.27507 0.0
C508 C 0.49203 0.15196 0.32423 0.0
C509 C 0.47362 0.16501 0.33012 0.0
C510 C 0.4754 0.18602 0.34528 0.0
C511 C 0.45789 0.19815 0.3504 0.0
C512 C 0.43851 0.18939 0.341 0.0
C513 C 0.43659 0.16848 0.32665 0.0
C514 C 0.45406 0.15629 0.32136 0.0
C515 C 0.53238 0.0811 0.48286 0.0
C516 C 0.51471 0.07096 0.5052 0.0
C517 C 0.53109 0.09759 0.43873 0.0
C518 C 0.51215 0.10358 0.41149 0.0
C519 C 0.49446 0.09291 0.43306 0.0
C520 C 0.49571 0.0771 0.47992 0.0
C521 C 0.51065 0.12122 0.36286 0.0
C522 C 0.49377 0.13468 0.36576 0.0
C523 C 0.52586 0.12541 0.31459 0.0
C524 C 0.54281 0.11114 0.29974 0.0
C525 C 0.53863 0.09081 0.28057 0.0
C526 C 0.5545 0.07812 0.25943 0.0
C527 C 0.5746 0.08562 0.25733 0.0
C528 C 0.57896 0.10563 0.27793 0.0
C529 C 0.56315 0.1184 0.29885 0.0
H530 H 0.58683 0.07598 0.23956 0.0
H531 H 0.42497 0.19881 0.34501 0.0
H532 H 0.31873 0.51431 0.23018 0.0
H533 H 0.34946 0.51029 0.29673 0.0
H534 H 0.38443 0.49668 0.12336 0.0
H535 H 0.35307 0.50002 0.05612 0.0
H536 H 0.39859 0.47432 0.23333 0.0
H537 H 0.38429 0.54586 0.18674 0.0
H538 H 0.36187 0.5762 0.18293 0.0
H539 H 0.35199 0.57194 0.39024 0.0
H540 H 0.3742 0.54148 0.39515 0.0
H541 H 0.48961 0.49119 0.42984 0.0
H542 H 0.46372 0.48924 0.34407 0.0
H543 H 0.42335 0.52613 0.46279 0.0
H544 H 0.45081 0.53223 0.53801 0.0
H545 H 0.41429 0.537 0.36218 0.0
H546 H 0.42439 0.46385 0.41352 0.0
H547 H 0.44519 0.4324 0.42135 0.0
H548 H 0.46049 0.43706 0.21757 0.0
H549 H 0.44005 0.46871 0.20876 0.0
C550 C 0.33286 0.51002 0.20611 0.0
C551 C 0.33336 0.50755 0.13763 0.0
C552 C 0.35055 0.50784 0.24438 0.0
C553 C 0.36962 0.5037 0.21548 0.0
C554 C 0.37003 0.5 0.14727 0.0
C555 C 0.35206 0.50186 0.10871 0.0
C556 C 0.38894 0.50498 0.25639 0.0
C557 C 0.4021 0.48803 0.26156 0.0
C558 C 0.3937 0.52271 0.29402 0.0
C559 C 0.38084 0.54138 0.29122 0.0
C560 C 0.37731 0.55139 0.23145 0.0
C561 C 0.36464 0.5686 0.22911 0.0
C562 C 0.3555 0.57598 0.28629 0.0
C563 C 0.35909 0.56622 0.346 0.0
C564 C 0.37175 0.54902 0.34861 0.0
C565 C 0.47527 0.49912 0.43737 0.0
C566 C 0.47249 0.51153 0.49352 0.0
C567 C 0.46001 0.49755 0.38828 0.0
C568 C 0.44064 0.50689 0.3959 0.0
C569 C 0.4378 0.51866 0.45325 0.0
C570 C 0.45357 0.52157 0.49909 0.0
C571 C 0.42351 0.50561 0.34477 0.0
C572 C 0.41084 0.5229 0.33605 0.0
C573 C 0.41897 0.48793 0.30561 0.0
C574 C 0.43086 0.46872 0.3107 0.0
C575 C 0.43222 0.45817 0.37047 0.0
C576 C 0.44396 0.44036 0.37508 0.0
C577 C 0.45417 0.43281 0.32007 0.0
C578 C 0.4526 0.44298 0.26016 0.0
C579 C 0.44096 0.46085 0.25534 0.0
H580 H 0.46325 0.41908 0.32399 0.0
H581 H 0.34566 0.58927 0.28434 0.0
H582 H 0.03028 0.36268 0.04969 0.0
H583 H 0.03152 0.39368 0.11921 0.0
H584 H 0.031 0.35548 0.29152 0.0
H585 H 0.02853 0.32503 0.22254 0.0
H586 H 1.00653 0.38257 0.31588 0.0
H587 H 0.07481 0.38767 0.2284 0.0
H588 H 0.10145 0.39022 0.14326 0.0
H589 H 0.0742 0.44553 0.07077 0.0
H590 H 0.04728 0.44319 0.15516 0.0
H591 H 0.03648 0.45551 0.55916 0.0
H592 H 0.03741 0.42809 0.4774 0.0
H593 H 0.01823 0.47075 0.32915 0.0
H594 H 0.01578 0.49796 0.41232 0.0
H595 H 0.05101 0.44383 0.28752 0.0
H596 H 0.98394 0.43851 0.38382 0.0
H597 H 0.95964 0.43601 0.47582 0.0
H598 H 0.98766 0.37985 0.53781 0.0
H599 H 0.01232 0.38217 0.44667 0.0
C600 C 0.03082 0.36098 0.10237 0.0
C601 C 0.02937 0.34132 0.13043 0.0
C602 C 0.03156 0.37878 0.14251 0.0
C603 C 0.03136 0.37732 0.21171 0.0
C604 C 0.03088 0.35748 0.2389 0.0
C605 C 0.02967 0.33991 0.19915 0.0
C606 C 0.03042 0.39599 0.25657 0.0
C607 C 0.01659 0.39573 0.30962 0.0
C608 C 0.0429 0.41383 0.24879 0.0
C609 C 0.05889 0.41511 0.19754 0.0
C610 C 0.0744 0.40027 0.19393 0.0
C611 C 0.08957 0.40171 0.14592 0.0
C612 C 0.08948 0.41799 0.10151 0.0
C613 C 0.07423 0.4329 0.10512 0.0
C614 C 0.05902 0.43154 0.15305 0.0
C615 C 0.03181 0.459 0.50985 0.0
C616 C 0.02538 0.47896 0.4936 0.0
C617 C 0.03272 0.4433 0.46248 0.0
C618 C 0.02769 0.4471 0.39664 0.0
C619 C 0.02216 0.46725 0.37939 0.0
C620 C 0.02085 0.48289 0.42722 0.0
C621 C 0.02764 0.42987 0.34693 0.0
C622 C 0.0411 0.43053 0.29318 0.0
C623 C 0.0151 0.4122 0.35452 0.0
C624 C 1.00009 0.41061 0.40873 0.0
C625 C 0.985 0.4257 0.41732 0.0
C626 C 0.97116 0.42431 0.46928 0.0
C627 C 0.97214 0.40781 0.51273 0.0
C628 C 0.98693 0.39263 0.50416 0.0
C629 C 1.00083 0.39396 0.45231 0.0
H630 H 0.96142 0.40677 0.55295 0.0
H631 H 0.10125 0.41908 0.06441 0.0
H632 H 0.82596 0.02429 0.10197 0.0
H633 H 0.85404 0.02915 0.02247 0.0
H634 H 0.89157 0.98738 0.13243 0.0
H635 H 0.86349 0.98203 0.21 0.0
H636 H 0.91402 0.02174 0.09044 0.0
H637 H 0.87039 0.96984 1.00275 0.0
H638 H 0.83808 0.95398 0.96514 0.0
H639 H 0.8322 1.00024 0.81707 0.0
H640 H 0.86437 0.01659 0.85457 0.0
H641 H 0.98266 0.98625 0.82388 0.0
H642 H 0.95506 0.98493 0.9056 0.0
H643 H 0.933 0.04341 0.83906 0.0
H644 H 0.96122 0.04556 0.76058 0.0
H645 H 0.90304 1.00131 0.85881 0.0
H646 H 0.94836 0.05346 0.95581 0.0
H647 H 0.98188 0.066 0.99538 0.0
H648 H 0.98554 0.01512 0.12799 0.0
H649 H 0.95221 1.00203 0.08803 0.0
C650 C 0.84035 0.0165 0.10983 0.0
C651 C 0.84257 1.00298 0.16302 0.0
C652 C 0.85637 0.01913 0.064 0.0
C653 C 0.8751 1.00862 0.07103 0.0
C654 C 0.87747 0.99577 0.12561 0.0
C655 C 0.86136 0.99276 0.17017 0.0
C656 C 0.89196 1.01021 0.02073 0.0
C657 C 0.91152 0.01725 0.03987 0.0
C658 C 0.88907 1.00422 0.95446 0.0
C659 C 0.86961 0.99463 0.93214 0.0
C660 C 0.86208 0.97679 0.96271 0.0
C661 C 0.84382 0.96767 0.9413 0.0
C662 C 0.83304 0.97615 0.88893 0.0
C663 C 0.84053 0.99373 0.85778 0.0
C664 C 0.85878 1.00294 0.8791 0.0
C665 C 0.97225 0.99907 0.82745 0.0
C666 C 0.97459 0.01619 0.78586 0.0
C667 C 0.95628 0.99818 0.8739 0.0
C668 C 0.94189 1.01411 0.87895 0.0
C669 C 0.94387 0.03094 0.83654 0.0
C670 C 0.9601 0.0321 0.79142 0.0
C671 C 0.92483 1.01327 0.92836 0.0
C672 C 0.90536 1.00611 0.90917 0.0
C673 C 0.92785 0.0189 0.99472 0.0
C674 C 0.94795 0.02661 0.01825 0.0
C675 C 0.95645 0.04478 0.99267 0.0
C676 C 0.97537 0.05204 0.01539 0.0
C677 C 0.98582 0.04137 0.06422 0.0
C678 C 0.97741 0.02337 0.0902 0.0
C679 C 0.95853 0.01602 0.06749 0.0
H680 H 1.00042 0.04704 0.08194 0.0
H681 H 0.81892 0.96905 0.87235 0.0
H682 H 0.51233 0.85887 0.19285 0.0
H683 H 0.50688 0.88692 0.1145 0.0
H684 H 0.55262 0.86089 0.98704 0.0
H685 H 0.55887 0.83392 0.06718 0.0
H686 H 0.55984 0.89796 0.98696 0.0
H687 H 0.49521 0.86234 0.95842 0.0
H688 H 0.46268 0.84687 0.99579 0.0
H689 H 0.44397 0.90503 0.07435 0.0
H690 H 0.47647 0.92079 0.03792 0.0
H691 H 0.54056 0.95895 0.70389 0.0
H692 H 0.54163 0.93014 0.78093 0.0
H693 H 0.50523 0.96458 0.91799 0.0
H694 H 0.50381 0.99323 0.84069 0.0
H695 H 0.49256 0.92452 0.91491 0.0
H696 H 0.55667 0.9599 0.94199 0.0
H697 H 0.58916 0.97554 0.90555 0.0
H698 H 0.60862 0.91747 0.82843 0.0
H699 H 0.57615 0.90147 0.86421 0.0
C700 C 0.52083 0.85894 0.14738 0.0
C701 C 0.53584 0.84398 0.13597 0.0
C702 C 0.51773 0.87505 0.10215 0.0
C703 C 0.52917 0.87629 0.0434 0.0
C704 C 0.54359 0.86073 0.03148 0.0
C705 C 0.54702 0.84506 0.07721 0.0
C706 C 0.52712 0.89405 0.99574 0.0
C707 C 0.54503 0.90337 0.97062 0.0
C708 C 0.50796 0.90204 0.97498 0.0
C709 C 0.48832 0.89268 0.99593 0.0
C710 C 0.48418 0.87179 0.98388 0.0
C711 C 0.46575 0.86299 1.00487 0.0
C712 C 0.45129 0.87495 0.03756 0.0
C713 C 0.45519 0.89578 0.04907 0.0
C714 C 0.47359 0.90466 0.02817 0.0
C715 C 0.53257 0.96033 0.75003 0.0
C716 C 0.52206 0.97852 0.76556 0.0
C717 C 0.53334 0.94384 0.79456 0.0
C718 C 0.52366 0.94505 0.85615 0.0
C719 C 0.51285 0.96308 0.87118 0.0
C720 C 0.51217 0.97958 0.82684 0.0
C721 C 0.52522 0.92782 0.90535 0.0
C722 C 0.5073 0.91882 0.93102 0.0
C723 C 0.54434 0.92003 0.92645 0.0
C724 C 0.56392 0.92954 0.90524 0.0
C725 C 0.56783 0.95049 0.9169 0.0
C726 C 0.58625 0.95942 0.89643 0.0
C727 C 0.60092 0.94754 0.86445 0.0
C728 C 0.59723 0.92667 0.85314 0.0
C729 C 0.57884 0.91764 0.87363 0.0
H730 H 0.61517 0.9545 0.8486 0.0
H731 H 0.43705 0.8681 0.05387 0.0
H732 H 0.67578 0.55549 0.19203 0.0
H733 H 0.6477 0.55046 0.1138 0.0
H734 H 0.68793 0.51649 0.98717 0.0
H735 H 0.71608 0.52088 0.06719 0.0
H736 H 0.66213 0.553 0.92881 0.0
H737 H 0.6563 0.48909 0.05132 0.0
H738 H 0.65301 0.46928 0.15351 0.0
H739 H 0.59729 0.50084 0.19934 0.0
H740 H 0.60041 0.52106 0.09785 0.0
H741 H 0.57253 0.49566 0.75557 0.0
H742 H 0.60065 0.49748 0.8349 0.0
H743 H 0.58882 0.5618 0.86521 0.0
H744 H 0.56045 0.56002 0.78596 0.0
H745 H 0.60111 0.50913 0.97 0.0
H746 H 0.62748 0.58456 0.88719 0.0
H747 H 0.63055 0.6067 0.78959 0.0
H748 H 0.6453 0.55413 0.6719 0.0
H749 H 0.64128 0.53157 0.76826 0.0
C750 C 0.67858 0.54655 0.14817 0.0
C751 C 0.69813 0.53829 0.13666 0.0
C752 C 0.66249 0.54379 0.10318 0.0
C753 C 0.66554 0.53314 0.04416 0.0
C754 C 0.68508 0.52475 0.0323 0.0
C755 C 0.70114 0.52707 0.07841 0.0
C756 C 0.64836 0.53128 0.99504 0.0
C757 C 0.64889 0.54327 0.93789 0.0
C758 C 0.63069 0.51905 0.00675 0.0
C759 C 0.62868 0.5067 0.06725 0.0
C760 C 0.64343 0.49192 0.08344 0.0
C761 C 0.64158 0.48059 0.14119 0.0
C762 C 0.62497 0.48383 0.18296 0.0
C763 C 0.61015 0.49836 0.16696 0.0
C764 C 0.61194 0.50973 0.10929 0.0
C765 C 0.57585 0.51024 0.77906 0.0
C766 C 0.56416 0.52773 0.76371 0.0
C767 C 0.59199 0.51124 0.82473 0.0
C768 C 0.59724 0.52983 0.85595 0.0
C769 C 0.58543 0.5473 0.84139 0.0
C770 C 0.56905 0.54624 0.79625 0.0
C771 C 0.61494 0.53076 0.90362 0.0
C772 C 0.61443 0.51873 0.96078 0.0
C773 C 0.63243 0.54329 0.89285 0.0
C774 C 0.63403 0.55648 0.83451 0.0
C775 C 0.63118 0.57775 0.84025 0.0
C776 C 0.63291 0.59032 0.78514 0.0
C777 C 0.63787 0.58177 0.7244 0.0
C778 C 0.64106 0.56064 0.71869 0.0
C779 C 0.63889 0.54794 0.77337 0.0
H780 H 0.63938 0.59153 0.68186 0.0
H781 H 0.62357 0.47505 0.22766 0.0
H782 H 0.01765 0.69024 0.20619 0.0
H783 H 0.02307 0.66073 0.13258 0.0
H784 H 0.97666 0.68395 1.00219 0.0
H785 H 0.9705 0.71235 0.07729 0.0
H786 H 0.96974 0.64658 0.01149 0.0
H787 H 0.03467 0.68315 0.97532 0.0
H788 H 0.06748 0.69835 0.01199 0.0
H789 H 0.08546 0.64034 0.09254 0.0
H790 H 0.0527 0.62487 0.05676 0.0
H791 H 0.98576 0.58646 0.72512 0.0
H792 H 0.98342 0.61387 0.80729 0.0
H793 H 0.02845 0.58313 0.92583 0.0
H794 H 0.0313 0.5562 0.84234 0.0
H795 H 0.03665 0.62161 0.93107 0.0
H796 H 0.97456 0.58402 0.96312 0.0
H797 H 0.94185 0.56737 0.93263 0.0
H798 H 0.91825 0.62532 0.8686 0.0
H799 H 0.9509 0.64228 0.89778 0.0
C800 C 1.00891 0.68915 0.16123 0.0
C801 C 0.9937 0.70373 0.14756 0.0
C802 C 0.01201 0.67224 0.11874 0.0
C803 C 1.00039 0.66983 0.06059 0.0
C804 C 0.9858 0.68499 0.04639 0.0
C805 C 0.98237 0.70144 0.08933 0.0
C806 C 1.0024 0.6514 0.01547 0.0
C807 C 0.98444 0.64143 0.9933 0.0
C808 C 0.02147 0.64364 0.99331 0.0
C809 C 0.0412 0.65292 0.01388 0.0
C810 C 0.0456 0.67368 1.00106 0.0
C811 C 0.06419 0.68233 0.02165 0.0
C812 C 0.07852 0.67033 0.05471 0.0
C813 C 0.07434 0.64963 0.06699 0.0
C814 C 0.05579 0.6409 0.04649 0.0
C815 C 0.99509 0.58552 0.76884 0.0
C816 C 1.00833 0.56881 0.7778 0.0
C817 C 0.99364 0.60117 0.81632 0.0
C818 C 1.00543 0.6006 0.87426 0.0
C819 C 0.01895 0.58403 0.88246 0.0
C820 C 0.02035 0.56837 0.83501 0.0
C821 C 1.00396 0.61741 0.92534 0.0
C822 C 0.02197 0.62688 0.94901 0.0
C823 C 0.98493 0.62458 0.94958 0.0
C824 C 0.96527 0.61439 0.93202 0.0
C825 C 0.96246 0.59319 0.94207 0.0
C826 C 0.94392 0.5837 0.92509 0.0
C827 C 0.92805 0.59529 0.89843 0.0
C828 C 0.9306 0.61638 0.88908 0.0
C829 C 0.94911 0.62594 0.90587 0.0
H830 H 0.91375 0.58797 0.88494 0.0
H831 H 0.09287 0.67707 0.07071 0.0
H832 H 0.06988 0.26972 0.19887 0.0
H833 H 0.06564 0.24992 0.30093 0.0
H834 H 0.02602 0.2072 0.19889 0.0
H835 H 0.02946 0.22684 0.09959 0.0
H836 H 1.00962 0.22348 0.31527 0.0
H837 H 0.07326 0.19398 0.2205 0.0
H838 H 0.10957 0.19781 0.18916 0.0
H839 H 0.12467 0.21642 0.38534 0.0
H840 H 0.08836 0.2129 0.4175 0.0
H841 H 0.99548 0.12325 0.31442 0.0
H842 H 0.01741 0.15324 0.29531 0.0
H843 H 0.02424 0.16206 0.50365 0.0
H844 H 1.00265 0.13166 0.52308 0.0
H845 H 0.06114 0.17301 0.39039 0.0
H846 H 0.99025 0.18797 0.47355 0.0
H847 H 0.9542 0.17629 0.47334 0.0
H848 H 0.95285 0.17938 0.26345 0.0
H849 H 0.98892 0.19083 0.26245 0.0
C850 C 0.06036 0.25605 0.19872 0.0
C851 C 0.05019 0.24966 0.14132 0.0
C852 C 0.05798 0.24486 0.25664 0.0
C853 C 0.04533 0.2274 0.25705 0.0
C854 C 0.03567 0.22082 0.19944 0.0
C855 C 0.03793 0.23189 0.1424 0.0
C856 C 0.04152 0.21532 0.31619 0.0
C857 C 0.02099 0.213 0.33453 0.0
C858 C 0.05641 0.20165 0.34026 0.0
C859 C 0.07816 0.20343 0.32116 0.0
C860 C 0.08433 0.199 0.25678 0.0
C861 C 0.10489 0.2011 0.23889 0.0
C862 C 0.11941 0.20742 0.28518 0.0
C863 C 0.1134 0.21158 0.34951 0.0
C864 C 0.09285 0.20954 0.36758 0.0
C865 C 1.00189 0.13147 0.3559 0.0
C866 C 0.99697 0.12581 0.41994 0.0
C867 C 0.01471 0.14821 0.34512 0.0
C868 C 0.02225 0.15968 0.39829 0.0
C869 C 0.01862 0.15318 0.46238 0.0
C870 C 1.00605 0.13617 0.47322 0.0
C871 C 0.02914 0.18067 0.38559 0.0
C872 C 0.05005 0.18453 0.37642 0.0
C873 C 0.01445 0.19535 0.36678 0.0
C874 C 0.99219 0.19048 0.36808 0.0
C875 C 0.98218 0.18634 0.42747 0.0
C876 C 0.96178 0.17967 0.42751 0.0
C877 C 0.95122 0.17716 0.36844 0.0
C878 C 0.961 0.18144 0.3092 0.0
C879 C 0.98139 0.18811 0.30889 0.0
H880 H 0.93548 0.17185 0.36857 0.0
H881 H 0.13532 0.20906 0.27125 0.0
H882 H 0.31365 0.08827 0.10762 0.0
H883 H 0.33923 0.08317 0.1926 0.0
H884 H 0.29428 0.05276 0.31282 0.0
H885 H 0.26937 0.05526 0.22576 0.0
H886 H 0.34872 0.08285 0.32971 0.0
H887 H 0.30167 0.01603 0.315 0.0
H888 H 0.27859 0.99499 0.24568 0.0
H889 H 0.32046 1.00091 0.0849 0.0
H890 H 0.34287 0.02297 0.15185 0.0
H891 H 0.40545 0.98869 0.46021 0.0
H892 H 0.37615 1.01115 0.43735 0.0
H893 H 0.40551 0.03178 0.26027 0.0
H894 H 0.43528 1.01031 0.28493 0.0
H895 H 0.35763 1.00817 0.29063 0.0
H896 H 0.40867 0.06426 0.30897 0.0
H897 H 0.43382 0.08594 0.36683 0.0
H898 H 0.38818 0.10265 0.50788 0.0
H899 H 0.36292 0.08042 0.45186 0.0
C900 C 0.30901 0.08085 0.15265 0.0
C901 C 0.28994 0.07076 0.15747 0.0
C902 C 0.32361 0.07825 0.20163 0.0
C903 C 0.31878 0.06647 0.25678 0.0
C904 C 0.29839 0.06102 0.26876 0.0
C905 C 0.28403 0.06276 0.21874 0.0
C906 C 0.33534 0.05532 0.2896 0.0
C907 C 0.35057 0.06644 0.32276 0.0
C908 C 0.33784 0.03401 0.27852 0.0
C909 C 0.32358 0.02172 0.2376 0.0
C910 C 0.3056 1.01329 0.26426 0.0
C911 C 0.29258 1.00124 0.22528 0.0
C912 C 0.29778 0.997 0.16029 0.0
C913 C 0.31601 1.00476 0.13431 0.0
C914 C 0.32878 0.01719 0.17257 0.0
C915 C 0.4056 0.99822 0.41683 0.0
C916 C 0.42239 0.99799 0.37425 0.0
C917 C 0.38916 1.01122 0.4045 0.0
C918 C 0.38944 0.02408 0.3496 0.0
C919 C 0.40574 0.02299 0.30521 0.0
C920 C 0.4224 1.0104 0.31832 0.0
C921 C 0.37102 0.03557 0.33195 0.0
C922 C 0.35554 0.02442 0.30042 0.0
C923 C 0.36859 0.05687 0.34395 0.0
C924 C 0.38417 0.06965 0.37828 0.0
C925 C 0.40418 0.07177 0.35382 0.0
C926 C 0.41842 0.08442 0.38584 0.0
C927 C 0.41271 0.0954 0.44168 0.0
C928 C 0.39269 0.09393 0.46512 0.0
C929 C 0.37844 0.08125 0.43334 0.0
H930 H 0.42373 0.10524 0.46624 0.0
H931 H 0.28784 0.98747 0.13039 0.0
H932 H 0.4421 0.31581 0.10408 0.0
H933 H 0.44022 0.34279 0.18782 0.0
H934 H 0.48659 0.31131 0.29983 0.0
H935 H 0.48775 0.28452 0.21939 0.0
H936 H 0.46803 0.33057 0.37878 0.0
H937 H 0.50661 0.35499 0.17011 0.0
H938 H 0.517 0.37255 0.04875 0.0
H939 H 0.43989 0.41376 0.08452 0.0
H940 H 0.44086 0.39088 0.1983 0.0
H941 H 0.5552 0.40483 0.36539 0.0
H942 H 0.52896 0.38165 0.32222 0.0
H943 H 0.4852 0.40565 0.46005 0.0
H944 H 0.51163 0.42897 0.50445 0.0
H945 H 0.48828 0.39611 0.27441 0.0
H946 H 0.46742 0.34962 0.50886 0.0
H947 H 0.48456 0.33306 0.60269 0.0
H948 H 0.54133 0.33255 0.49676 0.0
H949 H 0.52446 0.34881 0.40233 0.0
C950 C 0.45109 0.31429 0.14839 0.0
C951 C 0.46529 0.29826 0.15488 0.0
C952 C 0.45022 0.32982 0.19565 0.0
C953 C 0.46371 0.3295 0.24913 0.0
C954 C 0.47591 0.31208 0.25932 0.0
C955 C 0.47652 0.29653 0.21304 0.0
C956 C 0.4679 0.348 0.28922 0.0
C957 C 0.47188 0.34517 0.35624 0.0
C958 C 0.47327 0.36697 0.2601 0.0
C959 C 0.4727 0.37109 0.18938 0.0
C960 C 0.49566 0.36504 0.147 0.0
C961 C 0.50238 0.3767 0.07097 0.0
C962 C 0.47285 0.40329 0.0336 0.0
C963 C 0.4527 0.40363 0.09233 0.0
C964 C 0.45323 0.38842 0.16409 0.0
C965 C 0.54006 0.40509 0.38692 0.0
C966 C 0.53552 0.41846 0.43882 0.0
C967 C 0.52512 0.39187 0.36228 0.0
C968 C 0.50543 0.39163 0.38939 0.0
C969 C 0.5005 0.40542 0.43963 0.0
C970 C 0.51549 0.41884 0.46424 0.0
C971 C 0.48996 0.37772 0.36104 0.0
C972 C 0.48333 0.38192 0.29753 0.0
C973 C 0.48439 0.35897 0.39069 0.0
C974 C 0.49484 0.35109 0.44962 0.0
C975 C 0.48361 0.34622 0.50611 0.0
C976 C 0.49324 0.3367 0.55909 0.0
C977 C 0.51403 0.33182 0.55578 0.0
C978 C 0.52525 0.3364 0.49941 0.0
C979 C 0.51569 0.34587 0.44631 0.0
H980 H 0.52145 0.32452 0.59691 0.0
H981 H 0.47151 0.4133 0.99093 0.0
H982 H 0.22726 0.46251 0.15072 0.0
H983 H 0.20191 0.46401 0.23841 0.0
H984 H 0.23095 0.51879 0.31434 0.0
H985 H 0.25629 0.51746 0.22612 0.0
H986 H 0.2079 0.49019 0.41121 0.0
H987 H 0.20093 0.53182 0.20909 0.0
H988 H 0.20211 0.53509 0.08876 0.0
H989 H 0.15892 0.48545 0.06925 0.0
H990 H 0.15754 0.48189 0.18967 0.0
H991 H 0.14223 0.56964 0.4956 0.0
H992 H 0.16769 0.54526 0.45622 0.0
H993 H 0.11954 0.50667 0.37774 0.0
H994 H 0.09389 0.53117 0.41756 0.0
H995 H 0.14888 0.51794 0.2867 0.0
H996 H 0.14771 0.48638 0.49466 0.0
H997 H 0.14748 0.48345 0.61498 0.0
H998 H 0.20591 0.51384 0.62532 0.0
H999 H 0.20655 0.51697 0.505 0.0
C1000 C 0.22878 0.47428 0.18807 0.0
C1001 C 0.24336 0.49008 0.18164 0.0
C1002 C 0.21439 0.47506 0.23809 0.0
C1003 C 0.21457 0.49161 0.2819 0.0
C1004 C 0.23078 0.50585 0.28088 0.0
C1005 C 0.24518 0.50511 0.23059 0.0
C1006 C 0.19562 0.49702 0.3161 0.0
C1007 C 0.19489 0.49615 0.38442 0.0
C1008 C 0.17863 0.50431 0.28032 0.0
C1009 C 0.17921 0.50653 0.20812 0.0
C1010 C 0.19173 0.52158 0.17906 0.0
C1011 C 0.19239 0.52352 0.11095 0.0
C1012 C 0.18056 0.51051 0.07143 0.0
C1013 C 0.16804 0.49553 0.09997 0.0
C1014 C 0.16727 0.49358 0.16813 0.0
C1015 C 0.13712 0.55578 0.47087 0.0
C1016 C 0.11626 0.55223 0.45905 0.0
C1017 C 0.15159 0.54179 0.44903 0.0
C1018 C 0.14541 0.52411 0.41477 0.0
C1019 C 0.1245 0.52016 0.4047 0.0
C1020 C 0.10995 0.53409 0.42734 0.0
C1021 C 0.1611 0.51149 0.38259 0.0
C1022 C 0.16142 0.51122 0.314 0.0
C1023 C 0.17764 0.50321 0.41831 0.0
C1024 C 0.17719 0.50188 0.49077 0.0
C1025 C 0.16046 0.49257 0.52259 0.0
C1026 C 0.16028 0.49082 0.59075 0.0
C1027 C 0.17669 0.4984 0.6276 0.0
C1028 C 0.19327 0.50788 0.59654 0.0
C1029 C 0.19358 0.50957 0.52836 0.0
H1030 H 0.17664 0.49685 0.68018 0.0
H1031 H 0.18108 0.51207 0.01874 0.0
H1032 H 1.00533 0.78879 0.08282 0.0
H1033 H 1.00396 0.81484 0.99893 0.0
H1034 H 0.9437 0.83259 0.06507 0.0
H1035 H 0.94609 0.80736 0.15403 0.0
H1036 H 0.98648 0.8269 0.90262 0.0
H1037 H 0.93862 0.88373 0.05313 0.0
H1038 H 0.92775 0.88938 0.16752 0.0
H1039 H 0.98221 0.8598 0.23669 0.0
H1040 H 0.99348 0.85423 0.12276 0.0
H1041 H 1.01082 0.91129 0.72654 0.0
H1042 H 0.98553 0.89043 0.78477 0.0
H1043 H 0.0138 0.90773 0.96834 0.0
H1044 H 0.0376 0.93026 0.90969 0.0
H1045 H 0.97697 0.89699 0.9932 0.0
H1046 H 0.03253 0.86788 0.87867 0.0
H1047 H 0.05531 0.86153 0.78475 0.0
H1048 H 1.00542 0.83388 0.67862 0.0
H1049 H 0.98224 0.84035 0.77185 0.0
C1050 C 0.99151 0.7978 0.07803 0.0
C1051 C 0.97582 0.79624 0.12432 0.0
C1052 C 0.99067 0.81272 0.02994 0.0
C1053 C 0.97387 0.82603 0.0263 0.0
C1054 C 0.95704 0.82286 0.06805 0.0
C1055 C 0.95825 0.80834 0.11815 0.0
C1056 C 0.97573 0.84458 0.98495 0.0
C1057 C 0.98401 0.84221 0.92207 0.0
C1058 C 0.97311 0.86463 0.01093 0.0
C1059 C 0.96671 0.86833 0.07954 0.0
C1060 C 0.94828 0.87851 0.09281 0.0
C1061 C 0.94205 0.88169 0.15753 0.0
C1062 C 0.95424 0.87488 0.20934 0.0
C1063 C 0.97275 0.86501 0.19655 0.0
C1064 C 0.97907 0.86186 0.13194 0.0
C1065 C 1.01081 0.91138 0.77927 0.0
C1066 C 0.02597 0.92209 0.81384 0.0
C1067 C 0.99652 0.89944 0.81263 0.0
C1068 C 0.99819 0.89705 0.88069 0.0
C1069 C 0.01223 0.90928 0.91579 0.0
C1070 C 0.02597 0.92193 0.88239 0.0
C1071 C 0.98869 0.87909 0.91287 0.0
C1072 C 0.97877 0.88166 0.97316 0.0
C1073 C 0.99176 0.85903 0.88781 0.0
C1074 C 1.00558 0.85488 0.83171 0.0
C1075 C 0.02639 0.86057 0.83511 0.0
C1076 C 0.03937 0.85694 0.78207 0.0
C1077 C 0.0318 0.84739 0.72563 0.0
C1078 C 1.01124 0.84135 0.7223 0.0
C1079 C 0.99816 0.845 0.77521 0.0
H1080 H 0.04187 0.84459 0.68458 0.0
H1081 H 0.94935 0.8773 0.25936 0.0
H1082 H 0.73179 0.9514 0.17401 0.0
H1083 H 0.70433 0.95179 0.09287 0.0
H1084 H 0.73744 0.99736 0.98197 0.0
H1085 H 0.76457 0.99733 0.06258 0.0
H1086 H 0.69062 0.99324 0.10356 0.0
H1087 H 0.72119 1.00239 0.85366 0.0
H1088 H 0.74461 0.9852 0.77672 0.0
H1089 H 0.72189 0.92631 0.83845 0.0
H1090 H 0.69897 0.94326 0.91794 0.0
H1091 H 0.62947 0.06661 0.95781 0.0
H1092 H 0.66155 0.04779 0.97209 0.0
H1093 H 0.63211 0.99227 0.90318 0.0
H1094 H 0.60017 1.01094 0.88849 0.0
H1095 H 0.67499 0.99662 0.86598 0.0
H1096 H 0.62929 1.00242 0.05626 0.0
H1097 H 0.60927 0.02407 0.13152 0.0
H1098 H 0.6642 0.05524 0.19278 0.0
H1099 H 0.68446 0.03431 0.11592 0.0
C1100 C 0.73372 0.96061 0.13035 0.0
C1101 C 0.74988 0.9749 0.12582 0.0
C1102 C 0.71809 0.96071 0.08383 0.0
C1103 C 0.71874 0.97489 0.03234 0.0
C1104 C 0.7367 0.98622 0.0212 0.0
C1105 C 0.75227 0.98622 0.06778 0.0
C1106 C 0.69943 0.98318 0.00687 0.0
C1107 C 0.68693 0.99356 0.05174 0.0
C1108 C 0.69513 0.98424 0.93941 0.0
C1109 C 0.70836 0.97403 0.89101 0.0
C1110 C 0.72115 0.98578 0.85041 0.0
C1111 C 0.7344 0.97609 0.80671 0.0
C1112 C 0.73458 0.95466 0.80206 0.0
C1113 C 0.7217 0.94289 0.84193 0.0
C1114 C 0.70873 0.95252 0.88674 0.0
C1115 C 0.62997 0.05046 0.9451 0.0
C1116 C 0.61235 0.04008 0.92341 0.0
C1117 C 0.64828 0.03984 0.95235 0.0
C1118 C 0.64898 0.01869 0.93907 0.0
C1119 C 0.6318 1.00862 0.91319 0.0
C1120 C 0.61357 0.01925 0.9055 0.0
C1121 C 0.66621 1.00644 0.96287 0.0
C1122 C 0.67835 0.99569 0.91791 0.0
C1123 C 0.67041 1.00527 0.03064 0.0
C1124 C 0.65837 0.01688 0.07996 0.0
C1125 C 0.6371 1.01392 0.08563 0.0
C1126 C 0.6257 0.02612 0.12841 0.0
C1127 C 0.63546 0.04104 0.16684 0.0
C1128 C 0.65666 0.0437 0.16286 0.0
C1129 C 0.6681 0.03171 0.11958 0.0
H1130 H 0.6266 0.05054 0.19973 0.0
H1131 H 0.74475 0.94719 0.76779 0.0
H1132 H 0.58859 0.73607 0.17768 0.0
H1133 H 0.58982 0.70948 0.09365 0.0
H1134 H 0.55117 0.74589 0.96916 0.0
H1135 H 0.54895 0.77192 0.05318 0.0
H1136 H 0.53178 0.71437 0.04476 0.0
H1137 H 0.5878 0.72377 0.89851 0.0
H1138 H 0.62379 0.72962 0.86726 0.0
H1139 H 0.64081 0.6729 0.95847 0.0
H1140 H 0.60497 0.66687 0.99135 0.0
H1141 H 0.49226 0.63168 0.86494 0.0
H1142 H 0.51102 0.66349 0.88791 0.0
H1143 H 0.55136 0.63078 0.01798 0.0
H1144 H 0.53255 0.59869 0.99482 0.0
H1145 H 0.57107 0.66068 0.92783 0.0
H1146 H 0.51805 0.65387 0.08876 0.0
H1147 H 0.48294 0.6476 0.12832 0.0
H1148 H 0.46158 0.69956 0.0195 0.0
H1149 H 0.49655 0.7059 0.97818 0.0
C1150 C 0.58115 0.73885 0.13116 0.0
C1151 C 0.56772 0.75548 0.12356 0.0
C1152 C 0.58215 0.72378 0.08269 0.0
C1153 C 0.56997 0.72555 0.0265 0.0
C1154 C 0.56046 0.74425 0.01281 0.0
C1155 C 0.55917 0.75916 0.06146 0.0
C1156 C 0.56068 0.70672 0.99971 0.0
C1157 C 0.54024 0.70289 0.01747 0.0
C1158 C 0.57211 0.69143 0.96758 0.0
C1159 C 0.59369 0.69496 0.9479 0.0
C1160 C 0.59924 0.71264 0.91252 0.0
C1161 C 0.61962 0.71597 0.89438 0.0
C1162 C 0.63459 0.70166 0.911 0.0
C1163 C 0.6292 0.68398 0.94567 0.0
C1164 C 0.60884 0.68059 0.96401 0.0
C1165 C 0.50512 0.63134 0.89849 0.0
C1166 C 0.51094 0.61299 0.92894 0.0
C1167 C 0.51586 0.64937 0.91105 0.0
C1168 C 0.53253 0.64925 0.95416 0.0
C1169 C 0.53859 0.63093 0.98411 0.0
C1170 C 0.5277 0.61283 0.97186 0.0
C1171 C 0.5423 0.66873 0.97221 0.0
C1172 C 0.56267 0.67248 0.95381 0.0
C1173 C 0.53099 0.68397 1.00502 0.0
C1174 C 0.50989 0.68019 0.02962 0.0
C1175 C 0.50584 0.66381 0.07258 0.0
C1176 C 0.48596 0.66027 0.09546 0.0
C1177 C 0.47002 0.67313 0.07625 0.0
C1178 C 0.47394 0.68958 0.03419 0.0
C1179 C 0.49378 0.69315 0.01101 0.0
H1180 H 0.45465 0.67039 0.09412 0.0
H1181 H 0.65036 0.70427 0.8969 0.0
H1182 H 0.81031 0.59432 0.20055 0.0
H1183 H 0.83754 0.59624 0.12068 0.0
H1184 H 0.79681 0.57185 0.97286 0.0
H1185 H 0.77066 0.56682 0.05432 0.0
H1186 H 0.82203 0.54446 1.00119 0.0
H1187 H 0.83126 0.61515 0.94973 0.0
H1188 H 0.83443 0.65235 0.97029 0.0
H1189 H 0.88804 0.64224 0.08741 0.0
H1190 H 0.88502 0.60495 0.06853 0.0
H1191 H 0.91963 0.53278 0.8124 0.0
H1192 H 0.89455 0.55702 0.8548 0.0
H1193 H 0.89031 0.5221 0.03346 0.0
H1194 H 0.91456 0.4971 0.98965 0.0
H1195 H 0.88769 0.58167 0.96916 0.0
H1196 H 0.84167 0.51205 0.05659 0.0
H1197 H 0.83918 0.47481 0.03478 0.0
H1198 H 0.85749 0.48464 0.83551 0.0
H1199 H 0.85992 0.52196 0.85596 0.0
C1200 C 0.80694 0.58974 0.15066 0.0
C1201 C 0.789 0.57854 0.13563 0.0
C1202 C 0.82252 0.59133 0.10429 0.0
C1203 C 0.81955 0.58315 0.04133 0.0
C1204 C 0.79966 0.5775 0.02202 0.0
C1205 C 0.78452 0.57474 0.06921 0.0
C1206 C 0.83722 0.57411 0.00633 0.0
C1207 C 0.83614 0.55293 0.99278 0.0
C1208 C 0.85592 0.58478 0.99645 0.0
C1209 C 0.85786 0.60722 0.00781 0.0
C1210 C 0.84365 0.62083 0.98023 0.0
C1211 C 0.84543 0.64195 0.99155 0.0
C1212 C 0.86141 0.64965 0.03017 0.0
C1213 C 0.87567 0.63625 0.05746 0.0
C1214 C 0.87396 0.61513 0.04635 0.0
C1215 C 0.91352 0.53042 0.86102 0.0
C1216 C 0.91831 0.51268 0.89678 0.0
C1217 C 0.8995 0.54446 0.88553 0.0
C1218 C 0.89055 0.54117 0.94677 0.0
C1219 C 0.89698 0.52467 0.9856 0.0
C1220 C 0.9106 0.51033 0.96038 0.0
C1221 C 0.87205 0.55254 0.9649 0.0
C1222 C 0.87319 0.57376 0.9758 0.0
C1223 C 0.8532 0.5421 0.97154 0.0
C1224 C 0.85103 0.51977 0.95793 0.0
C1225 C 0.84501 0.50627 0.00801 0.0
C1226 C 0.84368 0.48515 0.99592 0.0
C1227 C 0.84824 0.47737 0.93383 0.0
C1228 C 0.85405 0.4907 0.8836 0.0
C1229 C 0.85541 0.51183 0.89542 0.0
H1230 H 0.84723 0.46102 0.92462 0.0
H1231 H 0.86275 0.666 0.0389 0.0
H1232 H 1.00994 0.25004 0.89761 0.0
H1233 H 1.00528 0.21764 0.83747 0.0
H1234 H 0.07032 0.20696 0.84817 0.0
H1235 H 0.07498 0.2399 0.90309 0.0
H1236 H 0.05968 0.18895 0.74857 0.0
H1237 H 0.02926 0.18648 0.96483 0.0
H1238 H 1.00559 0.19753 0.05204 0.0
H1239 H 0.95421 0.18543 0.92599 0.0
H1240 H 0.97759 0.1744 0.83799 0.0
H1241 H 0.05835 0.0801 0.72204 0.0
H1242 H 0.06152 0.11534 0.76102 0.0
H1243 H 0.99642 0.12326 0.73706 0.0
H1244 H 0.99303 0.08716 0.70499 0.0
H1245 H 1.00604 0.14297 0.839 0.0
H1246 H 0.03821 0.14355 0.6239 0.0
H1247 H 0.06305 0.13125 0.54197 0.0
H1248 H 0.11268 0.1457 0.67272 0.0
H1249 H 0.08812 0.15802 0.75544 0.0
C1250 C 0.02334 0.24133 0.88382 0.0
C1251 C 0.04288 0.24789 0.90463 0.0
C1252 C 0.02063 0.22233 0.8511 0.0
C1253 C 0.03731 0.20898 0.84028 0.0
C1254 C 0.057 0.21649 0.85585 0.0
C1255 C 0.05974 0.23563 0.88681 0.0
C1256 C 0.03448 0.18698 0.81634 0.0
C1257 C 0.04798 0.17897 0.76902 0.0
C1258 C 0.01918 0.17349 0.84152 0.0
C1259 C 1.00515 0.17982 0.89471 0.0
C1260 C 0.01291 0.18624 0.95573 0.0
C1261 C 0.99955 0.1925 1.00527 0.0
C1262 C 0.97842 0.19225 0.99448 0.0
C1263 C 0.97058 0.18564 0.93425 0.0
C1264 C 0.98387 0.17935 0.88458 0.0
C1265 C 0.04462 0.08906 0.72695 0.0
C1266 C 0.0254 0.0803 0.71197 0.0
C1267 C 0.04649 0.10963 0.74767 0.0
C1268 C 0.0293 0.12261 0.75101 0.0
C1269 C 1.01007 0.11391 0.73527 0.0
C1270 C 1.00814 0.09313 0.71638 0.0
C1271 C 0.03122 0.14501 0.77134 0.0
C1272 C 0.0176 0.15303 0.8182 0.0
C1273 C 0.04659 0.15843 0.7464 0.0
C1274 C 0.06133 0.15162 0.69586 0.0
C1275 C 0.05442 0.1441 0.6351 0.0
C1276 C 0.06845 0.13712 0.58856 0.0
C1277 C 0.08943 0.13766 0.60218 0.0
C1278 C 0.09643 0.1453 0.66221 0.0
C1279 C 0.08247 0.15235 0.70884 0.0
H1280 H 0.10026 0.13218 0.56619 0.0
H1281 H 0.9681 0.19715 0.03283 0.0
H1282 H 0.30602 1.01014 0.98766 0.0
H1283 H 0.33973 1.00718 0.93472 0.0
H1284 H 0.32888 0.06371 0.83175 0.0
H1285 H 0.29581 0.06715 0.88762 0.0
H1286 H 0.34825 0.03546 0.75292 0.0
H1287 H 0.35707 0.06563 0.95979 0.0
H1288 H 0.35634 0.07128 0.07899 0.0
H1289 H 0.39258 0.01731 0.10823 0.0
H1290 H 0.39314 1.01103 0.98901 0.0
H1291 H 0.45126 0.05464 0.65027 0.0
H1292 H 0.4173 0.05817 0.69995 0.0
H1293 H 0.43087 1.00848 0.8321 0.0
H1294 H 0.46551 1.00644 0.78636 0.0
H1295 H 0.40949 0.03388 0.89641 0.0
H1296 H 0.39997 1.00761 0.67185 0.0
H1297 H 0.40553 1.01254 0.55364 0.0
H1298 H 0.37078 0.06832 0.56044 0.0
H1299 H 0.36602 0.06428 0.67848 0.0
C1300 C 0.31062 0.02159 0.95233 0.0
C1301 C 0.29801 0.03869 0.94137 0.0
C1302 C 0.33003 0.02005 0.92256 0.0
C1303 C 0.33721 0.0354 0.87974 0.0
C1304 C 0.3239 0.05164 0.86455 0.0
C1305 C 0.30474 0.05342 0.89564 0.0
C1306 C 0.35872 0.03498 0.85262 0.0
C1307 C 0.36161 0.03507 0.78452 0.0
C1308 C 0.37639 0.03485 0.89325 0.0
C1309 C 0.37491 0.03769 0.9653 0.0
C1310 C 0.36457 0.05472 0.99158 0.0
C1311 C 0.36431 0.05813 0.05918 0.0
C1312 C 0.37456 0.04476 0.1011 0.0
C1313 C 0.38476 0.02773 0.07561 0.0
C1314 C 0.385 0.0242 0.00801 0.0
C1315 C 0.44691 0.04442 0.68969 0.0
C1316 C 0.46097 0.02999 0.71346 0.0
C1317 C 0.42733 0.04632 0.71812 0.0
C1318 C 0.42076 0.03307 0.76881 0.0
C1319 C 0.43509 0.01885 0.79295 0.0
C1320 C 0.45494 0.01755 0.76636 0.0
C1321 C 0.39912 0.03369 0.79632 0.0
C1322 C 0.39615 0.03373 0.86473 0.0
C1323 C 0.38134 0.03454 0.75607 0.0
C1324 C 0.38276 0.03571 0.68399 0.0
C1325 C 0.39348 0.02087 0.64783 0.0
C1326 C 0.39662 0.0236 0.58077 0.0
C1327 C 0.38861 0.04079 0.54918 0.0
C1328 C 0.37719 0.0551 0.58445 0.0
C1329 C 0.37431 0.05265 0.65154 0.0
H1330 H 0.39131 0.04307 0.49755 0.0
H1331 H 0.37445 0.0475 0.15342 0.0
H1332 H 0.52373 0.31893 0.0125 0.0
H1333 H 0.52755 0.35192 0.95551 0.0
H1334 H 0.48011 0.33391 0.82006 0.0
H1335 H 0.47633 0.30091 0.87697 0.0
H1336 H 0.51477 0.35444 0.76172 0.0
H1337 H 0.46987 0.3586 0.96013 0.0
H1338 H 0.45769 0.36127 0.08607 0.0
H1339 H 0.51416 0.42565 0.09686 0.0
H1340 H 0.51916 0.41414 0.97229 0.0
H1341 H 0.49828 0.4518 0.61251 0.0
H1342 H 0.4943 0.4181 0.66404 0.0
H1343 H 0.52191 0.44175 0.84113 0.0
H1344 H 0.5245 0.4756 0.79116 0.0
H1345 H 0.49552 0.41801 0.87934 0.0
H1346 H 0.55156 0.39944 0.73169 0.0
H1347 H 0.56926 0.39881 0.62467 0.0
H1348 H 0.514 0.37792 0.53249 0.0
H1349 H 0.49644 0.37687 0.63883 0.0
C1350 C 0.51477 0.32164 0.96875 0.0
C1351 C 0.50021 0.30691 0.94795 0.0
C1352 C 0.51655 0.34078 0.93731 0.0
C1353 C 0.50368 0.3458 0.88461 0.0
C1354 C 0.4901 0.3306 0.86101 0.0
C1355 C 0.48821 0.31151 0.89273 0.0
C1356 C 0.50433 0.36672 0.85365 0.0
C1357 C 0.51043 0.36827 0.78786 0.0
C1358 C 0.49975 0.38518 0.88788 0.0
C1359 C 0.49543 0.38602 0.9592 0.0
C1360 C 0.47721 0.36998 0.99099 0.0
C1361 C 0.46947 0.37233 0.07111 0.0
C1362 C 0.4882 0.40132 0.12967 0.0
C1363 C 0.50503 0.41296 0.07854 0.0
C1364 C 0.508 0.40542 0.99991 0.0
C1365 C 0.5036 0.44973 0.66229 0.0
C1366 C 0.51169 0.4665 0.69751 0.0
C1367 C 0.50156 0.43027 0.69181 0.0
C1368 C 0.50831 0.42675 0.75662 0.0
C1369 C 0.51647 0.44363 0.79142 0.0
C1370 C 0.51801 0.46314 0.76256 0.0
C1371 C 0.50675 0.40579 0.78867 0.0
C1372 C 0.50017 0.40415 0.854 0.0
C1373 C 0.51253 0.38745 0.75652 0.0
C1374 C 0.52283 0.38794 0.69271 0.0
C1375 C 0.54332 0.39445 0.68836 0.0
C1376 C 0.55336 0.39413 0.62801 0.0
C1377 C 0.54287 0.38761 0.57204 0.0
C1378 C 0.52227 0.38203 0.57606 0.0
C1379 C 0.51234 0.38166 0.63631 0.0
H1380 H 0.55061 0.38685 0.52548 0.0
H1381 H 0.48157 0.3929 0.1222 0.0
H1382 H 0.21528 0.47189 0.99008 0.0
H1383 H 0.18455 0.47713 0.92999 0.0
H1384 H 0.21492 0.52288 0.81142 0.0
H1385 H 0.24493 0.52098 0.88447 0.0
H1386 H 0.18157 0.53457 0.80373 0.0
H1387 H 0.19527 0.46446 0.76504 0.0
H1388 H 0.20445 0.42846 0.78778 0.0
H1389 H 0.15149 0.42192 0.91056 0.0
H1390 H 0.14209 0.45789 0.88898 0.0
H1391 H 0.08866 0.51741 0.59697 0.0
H1392 H 0.12404 0.51375 0.63681 0.0
H1393 H 0.102 0.51107 0.83515 0.0
H1394 H 0.06718 0.51659 0.79641 0.0
H1395 H 0.13221 0.47679 0.7816 0.0
H1396 H 0.12175 0.55224 0.80012 0.0
H1397 H 0.11341 0.5844 0.7426 0.0
H1398 H 0.16387 0.57508 0.61147 0.0
H1399 H 0.17239 0.54282 0.6679 0.0
C1400 C 0.21564 0.48332 0.95166 0.0
C1401 C 0.23281 0.49641 0.94436 0.0
C1402 C 0.19782 0.4858 0.91471 0.0
C1403 C 0.19681 0.49978 0.86239 0.0
C1404 C 0.21465 0.51189 0.85101 0.0
C1405 C 0.23223 0.5105 0.89206 0.0
C1406 C 0.17688 0.5022 0.82342 0.0
C1407 C 0.17118 0.52164 0.79861 0.0
C1408 C 0.16267 0.48564 0.81334 0.0
C1409 C 0.16806 0.46389 0.82562 0.0
C1410 C 0.18562 0.45534 0.79698 0.0
C1411 C 0.19085 0.43495 0.80968 0.0
C1412 C 0.17858 0.42293 0.85066 0.0
C1413 C 0.16098 0.43124 0.8788 0.0
C1414 C 0.15565 0.4516 0.86619 0.0
C1415 C 0.09132 0.51627 0.64911 0.0
C1416 C 0.0747 0.51698 0.6932 0.0
C1417 C 0.11164 0.51399 0.67188 0.0
C1418 C 0.11584 0.51185 0.73919 0.0
C1419 C 0.09931 0.51247 0.78302 0.0
C1420 C 0.0792 0.51539 0.76052 0.0
C1421 C 0.13726 0.50886 0.76489 0.0
C1422 C 0.14301 0.48941 0.78708 0.0
C1423 C 0.15191 0.52494 0.76827 0.0
C1424 C 0.14764 0.54509 0.73801 0.0
C1425 C 0.13107 0.55708 0.75907 0.0
C1426 C 0.1263 0.57531 0.72662 0.0
C1427 C 0.13808 0.58176 0.67332 0.0
C1428 C 0.15476 0.57009 0.65275 0.0
C1429 C 0.15959 0.55185 0.68505 0.0
H1430 H 0.13428 0.59582 0.64801 0.0
H1431 H 0.18269 0.40716 0.86056 0.0
H1432 H 0.98425 0.79441 0.42101 0.0
H1433 H 0.98898 0.8258 0.48679 0.0
H1434 H 0.02718 0.85126 0.33459 0.0
H1435 H 0.02367 0.81955 0.27227 0.0
H1436 H 0.04106 0.86617 0.43322 0.0
H1437 H 0.97098 0.86187 0.36316 0.0
H1438 H 0.93629 0.84699 0.35241 0.0
H1439 H 0.92949 0.84762 0.56151 0.0
H1440 H 0.96423 0.86235 0.57344 0.0
H1441 H 0.02803 0.97251 0.49663 0.0
H1442 H 0.02507 0.93823 0.44911 0.0
H1443 H 0.99749 0.91612 0.62677 0.0
H1444 H 1.00068 0.95071 0.67571 0.0
H1445 H 0.97906 0.89885 0.52517 0.0
H1446 H 0.05098 0.90943 0.58241 0.0
H1447 H 0.08367 0.92866 0.57547 0.0
H1448 H 0.08497 0.91962 0.36758 0.0
H1449 H 0.05211 0.90085 0.37262 0.0
C1450 C 0.99442 0.80635 0.40329 0.0
C1451 C 1.00394 0.8042 0.34191 0.0
C1452 C 0.9967 0.82465 0.44011 0.0
C1453 C 1.00799 0.84157 0.41547 0.0
C1454 C 0.01838 0.83879 0.35576 0.0
C1455 C 0.01651 0.82044 0.32002 0.0
C1456 C 1.00865 0.86233 0.44957 0.0
C1457 C 0.02735 0.87323 0.45265 0.0
C1458 C 0.99102 0.87201 0.47613 0.0
C1459 C 0.97027 0.86294 0.46919 0.0
C1460 C 0.96213 0.85868 0.40682 0.0
C1461 C 0.94246 0.85031 0.40053 0.0
C1462 C 0.93072 0.84629 0.45627 0.0
C1463 C 0.93862 0.85069 0.5184 0.0
C1464 C 0.95829 0.85906 0.52496 0.0
C1465 C 0.02144 0.96038 0.52613 0.0
C1466 C 0.01479 0.96445 0.59047 0.0
C1467 C 0.01988 0.94062 0.49886 0.0
C1468 C 1.01183 0.92413 0.53524 0.0
C1469 C 1.00451 0.92831 0.59869 0.0
C1470 C 1.00629 0.94811 0.62653 0.0
C1471 C 1.01132 0.90259 0.50749 0.0
C1472 C 0.99271 0.89159 0.50599 0.0
C1473 C 0.02888 0.89313 0.48009 0.0
C1474 C 0.04903 0.90378 0.47789 0.0
C1475 C 0.05822 0.91157 0.53521 0.0
C1476 C 0.07675 0.92241 0.53163 0.0
C1477 C 0.08637 0.9253 0.47131 0.0
C1478 C 0.07752 0.91735 0.41431 0.0
C1479 C 0.05894 0.90662 0.41746 0.0
H1480 H 0.1007 0.93371 0.46876 0.0
H1481 H 0.91549 0.83982 0.45131 0.0
H1482 H 0.73437 0.03685 0.30991 0.0
H1483 H 0.70229 0.04155 0.37096 0.0
H1484 H 0.70615 0.97931 0.4411 0.0
H1485 H 0.73828 0.97491 0.38161 0.0
H1486 H 0.66705 0.0239 0.35258 0.0
H1487 H 0.67656 0.97126 0.57643 0.0
H1488 H 0.70405 0.95876 0.64868 0.0
H1489 H 0.73899 1.01364 0.61271 0.0
H1490 H 0.71156 0.02665 0.54119 0.0
H1491 H 0.56805 1.00577 0.47662 0.0
H1492 H 0.6026 1.00079 0.43773 0.0
H1493 H 0.6264 0.02859 0.61419 0.0
H1494 H 0.5916 0.03036 0.65837 0.0
H1495 H 0.65255 1.00352 0.58164 0.0
H1496 H 0.61891 0.05414 0.43818 0.0
H1497 H 0.58902 0.06221 0.36918 0.0
H1498 H 0.60197 1.01028 0.24622 0.0
H1499 H 0.63201 1.00204 0.31414 0.0
C1500 C 0.72889 0.02454 0.34098 0.0
C1501 C 0.73939 1.00573 0.3425 0.0
C1502 C 0.71025 0.02707 0.37508 0.0
C1503 C 0.70151 1.01088 0.41172 0.0
C1504 C 0.71247 0.99234 0.41502 0.0
C1505 C 0.73105 0.98984 0.38115 0.0
C1506 C 0.68041 1.01282 0.44209 0.0
C1507 C 0.66406 0.01966 0.40301 0.0
C1508 C 0.67592 1.00701 0.50765 0.0
C1509 C 0.69213 0.99979 0.55271 0.0
C1510 C 0.69004 0.98073 0.5843 0.0
C1511 C 0.70562 0.97354 0.62506 0.0
C1512 C 0.72333 0.98531 0.63464 0.0
C1513 C 0.72532 1.00448 0.60473 0.0
C1514 C 0.70977 1.01177 0.56408 0.0
C1515 C 0.58052 1.01035 0.50844 0.0
C1516 C 0.57662 0.01839 0.57136 0.0
C1517 C 0.60058 1.00806 0.48488 0.0
C1518 C 0.61763 0.01528 0.52079 0.0
C1519 C 0.61382 0.02308 0.58421 0.0
C1520 C 0.59373 0.02428 0.60947 0.0
C1521 C 0.6392 1.01483 0.49244 0.0
C1522 C 0.65561 1.00814 0.53165 0.0
C1523 C 0.64378 0.02072 0.42691 0.0
C1524 C 0.6276 0.02746 0.38127 0.0
C1525 C 0.61556 0.04469 0.39571 0.0
C1526 C 0.59856 0.04924 0.35687 0.0
C1527 C 0.59362 0.03675 0.30326 0.0
C1528 C 0.60588 0.01997 0.28756 0.0
C1529 C 0.62296 0.01544 0.32589 0.0
H1530 H 0.58024 0.03996 0.27394 0.0
H1531 H 0.73557 0.97952 0.66487 0.0
H1532 H 0.50193 0.73991 0.30792 0.0
H1533 H 0.49743 0.70741 0.36806 0.0
H1534 H 0.56042 0.71053 0.43036 0.0
H1535 H 0.56477 0.74289 0.37151 0.0
H1536 H 0.55254 0.67447 0.37204 0.0
H1537 H 0.5219 0.71395 0.5411 0.0
H1538 H 0.49784 0.7384 0.59113 0.0
H1539 H 0.44714 0.69998 0.5342 0.0
H1540 H 0.4709 0.67543 0.48292 0.0
H1541 H 0.55499 0.58175 0.55805 0.0
H1542 H 0.55728 0.6168 0.51667 0.0
H1543 H 0.49157 0.61824 0.49552 0.0
H1544 H 0.48926 0.5834 0.53948 0.0
H1545 H 0.50072 0.65292 0.53521 0.0
H1546 H 0.53147 0.61759 0.34686 0.0
H1547 H 0.55583 0.59736 0.28114 0.0
H1548 H 0.60634 0.62883 0.37255 0.0
H1549 H 0.58222 0.64974 0.43706 0.0
C1550 C 0.5145 0.73417 0.33708 0.0
C1551 C 0.53361 0.74438 0.33585 0.0
C1552 C 0.51201 0.71537 0.37098 0.0
C1553 C 0.52862 0.70618 0.40392 0.0
C1554 C 0.54731 0.71703 0.40556 0.0
C1555 C 0.54972 0.73578 0.37248 0.0
C1556 C 0.52735 0.68458 0.43114 0.0
C1557 C 0.54133 0.66989 0.40844 0.0
C1558 C 0.51252 0.67815 0.47754 0.0
C1559 C 0.49817 0.69298 0.50744 0.0
C1560 C 0.50561 0.71083 0.53856 0.0
C1561 C 0.49203 0.72468 0.56732 0.0
C1562 C 0.47097 0.72078 0.56566 0.0
C1563 C 0.46346 0.703 0.53532 0.0
C1564 C 0.47697 0.68911 0.50642 0.0
C1565 C 0.541 0.5894 0.54405 0.0
C1566 C 0.52194 0.57943 0.55201 0.0
C1567 C 0.54233 0.60962 0.51955 0.0
C1568 C 0.52465 0.62057 0.5009 0.0
C1569 C 0.50559 0.61054 0.50904 0.0
C1570 C 0.50425 0.59041 0.53423 0.0
C1571 C 0.52583 0.64252 0.47538 0.0
C1572 C 0.51189 0.65738 0.4986 0.0
C1573 C 0.54072 0.64921 0.42923 0.0
C1574 C 0.5551 0.635 0.39712 0.0
C1575 C 0.54777 0.61997 0.35348 0.0
C1576 C 0.56152 0.6086 0.31587 0.0
C1577 C 0.58261 0.61187 0.32252 0.0
C1578 C 0.59001 0.62638 0.36725 0.0
C1579 C 0.57632 0.63808 0.40402 0.0
H1580 H 0.59324 0.6031 0.29318 0.0
H1581 H 0.46048 0.73151 0.58804 0.0
H1582 H 0.7995 0.56153 0.38072 0.0
H1583 H 0.83189 0.55581 0.43836 0.0
H1584 H 0.83921 0.4985 0.33579 0.0
H1585 H 0.80687 0.50446 0.27652 0.0
H1586 H 0.84893 0.51364 0.51184 0.0
H1587 H 0.8687 0.51285 0.26951 0.0
H1588 H 0.86372 0.52868 0.16093 0.0
H1589 H 0.87583 0.58829 0.2432 0.0
H1590 H 0.88062 0.57278 0.35239 0.0
H1591 H 0.95447 0.49139 0.58174 0.0
H1592 H 0.92006 0.49192 0.5333 0.0
H1593 H 0.927 0.55645 0.49288 0.0
H1594 H 0.96063 0.55605 0.54405 0.0
H1595 H 0.90973 0.53754 0.38729 0.0
H1596 H 0.89406 0.54401 0.61155 0.0
H1597 H 0.89543 0.53676 0.7294 0.0
H1598 H 0.87372 0.4753 0.69435 0.0
H1599 H 0.87169 0.48246 0.5757 0.0
C1600 C 0.80756 0.54728 0.37229 0.0
C1601 C 0.80022 0.53325 0.3248 0.0
C1602 C 0.82627 0.54414 0.40483 0.0
C1603 C 0.83827 0.52684 0.39113 0.0
C1604 C 0.83037 0.51206 0.3471 0.0
C1605 C 0.81164 0.51528 0.31397 0.0
C1606 C 0.85955 0.52521 0.4193 0.0
C1607 C 0.86227 0.51828 0.48385 0.0
C1608 C 0.87697 0.5325 0.38488 0.0
C1609 C 0.87484 0.54168 0.31901 0.0
C1610 C 0.87019 0.52933 0.26441 0.0
C1611 C 0.86741 0.53824 0.2028 0.0
C1612 C 0.86939 0.55949 0.1952 0.0
C1613 C 0.87427 0.57184 0.24916 0.0
C1614 C 0.87703 0.563 0.31088 0.0
C1615 C 0.94875 0.50575 0.56264 0.0
C1616 C 0.96094 0.52372 0.56612 0.0
C1617 C 0.92892 0.50603 0.53481 0.0
C1618 C 0.92068 0.52422 0.50853 0.0
C1619 C 0.93282 0.54209 0.51175 0.0
C1620 C 0.95237 0.54186 0.54092 0.0
C1621 C 0.8994 0.52471 0.47884 0.0
C1622 C 0.89657 0.53206 0.41459 0.0
C1623 C 0.88179 0.51829 0.51414 0.0
C1624 C 0.88304 0.51365 0.58487 0.0
C1625 C 0.88973 0.52889 0.62894 0.0
C1626 C 0.89059 0.5248 0.69592 0.0
C1627 C 0.88501 0.50544 0.71947 0.0
C1628 C 0.87818 0.49024 0.676 0.0
C1629 C 0.87704 0.49435 0.60888 0.0
H1630 H 0.88589 0.50227 0.77135 0.0
H1631 H 0.8672 0.56636 0.14752 0.0
loop_
_geom_bond_atom_site_label_1
_geom_bond_atom_site_label_2
_geom_bond_distance
_geom_bond_site_symmetry_2
_ccdc_geom_bond_type
H0 C5 0.930 . S
H1 C8 0.930 . S
H2 C10 0.930 . S
H3 C4 1.016 . S
C4 H3 1.016 . S
C4 N11 1.286 . S
C5 H0 0.930 . S
C5 C6 1.397 . S
C5 C7 1.361 . S
C6 C5 1.397 . S
C6 C10 1.390 . S
C7 C5 1.361 . S
C7 C8 1.393 . S
C7 N11 1.413 . S
C8 H1 0.930 . S
C8 C7 1.393 . S
C8 C9 1.399 . S
C9 C8 1.399 . S
C9 C10 1.381 . S
C10 H2 0.930 . S
C10 C6 1.390 . S
C10 C9 1.381 . S
N11 C4 1.286 . S
N11 C7 1.413 . S
H12 C17 0.930 . S
H13 C20 0.930 . S
H14 C22 0.930 . S
H15 C16 1.016 . S
C16 H15 1.016 . S
C16 N23 1.286 . S
C17 H12 0.930 . S
C17 C18 1.397 . S
C17 C19 1.361 . S
C18 C17 1.397 . S
C18 C22 1.390 . S
C19 C17 1.361 . S
C19 C20 1.393 . S
C19 N23 1.413 . S
C20 H13 0.930 . S
C20 C19 1.393 . S
C20 C21 1.399 . S
C21 C20 1.399 . S
C21 C22 1.381 . S
C22 H14 0.930 . S
C22 C18 1.390 . S
C22 C21 1.381 . S
N23 C16 1.286 . S
N23 C19 1.413 . S
H24 C29 0.930 . S
H25 C32 0.930 . S
H26 C34 0.930 . S
H27 C28 1.016 . S
C28 H27 1.016 . S
C28 N35 1.286 . S
C29 H24 0.930 . S
C29 C30 1.397 . S
C29 C31 1.361 . S
C30 C29 1.397 . S
C30 C34 1.390 . S
C31 C29 1.361 . S
C31 C32 1.393 . S
C31 N35 1.413 . S
C32 H25 0.930 . S
C32 C31 1.393 . S
C32 C33 1.399 . S
C33 C32 1.399 . S
C33 C34 1.381 . S
C34 H26 0.930 . S
C34 C30 1.390 . S
C34 C33 1.381 . S
N35 C28 1.286 . S
N35 C31 1.413 . S
H36 C41 0.930 . S
H37 C44 0.930 . S
H38 C46 0.930 . S
H39 C40 1.016 . S
C40 H39 1.016 . S
C40 N47 1.286 . S
C41 H36 0.930 . S
C41 C42 1.397 . S
C41 C43 1.361 . S
C42 C41 1.397 . S
C42 C46 1.390 . S
C43 C41 1.361 . S
C43 C44 1.393 . S
C43 N47 1.413 . S
C44 H37 0.930 . S
C44 C43 1.393 . S
C44 C45 1.399 . S
C45 C44 1.399 . S
C45 C46 1.381 . S
C46 H38 0.930 . S
C46 C42 1.390 . S
C46 C45 1.381 . S
N47 C40 1.286 . S
N47 C43 1.413 . S
H48 C53 0.930 . S
H49 C56 0.930 . S
H50 C58 0.930 . S
H51 C52 1.016 . S
C52 H51 1.016 . S
C52 N59 1.286 . S
C53 H48 0.930 . S
C53 C54 1.397 . S
C53 C55 1.361 1_556 S
C54 C53 1.397 . S
C54 C58 1.390 1_556 S
C55 C53 1.361 1_554 S
C55 C56 1.393 . S
C55 N59 1.413 . S
C56 H49 0.930 . S
C56 C55 1.393 . S
C56 C57 1.399 . S
C57 C56 1.399 . S
C57 C58 1.381 . S
C58 H50 0.930 . S
C58 C54 1.390 1_554 S
C58 C57 1.381 . S
N59 C52 1.286 . S
N59 C55 1.413 . S
H60 C65 0.930 . S
H61 C68 0.930 . S
H62 C70 0.930 . S
H63 C64 1.016 . S
C64 H63 1.016 . S
C64 N71 1.286 . S
C65 H60 0.930 . S
C65 C66 1.397 . S
C65 C67 1.361 1_556 S
C66 C65 1.397 . S
C66 C70 1.390 1_556 S
C67 C65 1.361 1_554 S
C67 C68 1.393 . S
C67 N71 1.413 . S
C68 H61 0.930 . S
C68 C67 1.393 . S
C68 C69 1.399 . S
C69 C68 1.399 . S
C69 C70 1.381 . S
C70 H62 0.930 . S
C70 C66 1.390 1_554 S
C70 C69 1.381 . S
N71 C64 1.286 . S
N71 C67 1.413 . S
H72 C77 0.930 . S
H73 C80 0.930 . S
H74 C82 0.930 . S
H75 C76 1.016 . S
C76 H75 1.016 . S
C76 N83 1.286 . S
C77 H72 0.930 . S
C77 C78 1.397 . S
C77 C79 1.361 1_556 S
C78 C77 1.397 . S
C78 C82 1.390 1_556 S
C79 C77 1.361 1_554 S
C79 C80 1.393 . S
C79 N83 1.413 . S
C80 H73 0.930 . S
C80 C79 1.393 . S
C80 C81 1.399 . S
C81 C80 1.399 . S
C81 C82 1.381 . S
C82 H74 0.930 . S
C82 C78 1.390 1_554 S
C82 C81 1.381 . S
N83 C76 1.286 . S
N83 C79 1.413 . S
H84 C89 0.930 . S
H85 C92 0.930 . S
H86 C94 0.930 . S
H87 C88 1.016 . S
C88 H87 1.016 . S
C88 N95 1.286 . S
C89 H84 0.930 . S
C89 C90 1.397 . S
C89 C91 1.361 1_556 S
C90 C89 1.397 . S
C90 C94 1.390 1_556 S
C91 C89 1.361 1_554 S
C91 C92 1.393 . S
C91 N95 1.413 . S
C92 H85 0.930 . S
C92 C91 1.393 . S
C92 C93 1.399 . S
C93 C92 1.399 . S
C93 C94 1.381 . S
C94 H86 0.930 . S
C94 C90 1.390 1_554 S
C94 C93 1.381 . S
N95 C88 1.286 . S
N95 C91 1.413 . S
Tb96 N125 2.617 . S
Tb96 N131 2.572 . S
Tb96 O140 2.465 1_655 S
Tb96 O141 2.387 1_545 S
Tb96 O143 2.428 . S
Tb96 O144 2.308 1_655 S
Tb96 O148 2.349 1_655 S
Tb96 O151 2.393 . S
Tb96 C160 2.802 . S
C97 N98 1.379 . S
C97 C100 1.416 . S
C97 C104 1.424 . S
N98 C97 1.379 . S
N98 C101 1.340 . S
N98 Tb107 2.617 1_545 S
C99 C101 1.407 . S
C99 C102 1.339 . S
C99 H119 0.930 . S
C100 C97 1.416 . S
C100 C102 1.416 . S
C100 C106 1.448 . S
C101 N98 1.340 . S
C101 C99 1.407 . S
C101 H112 0.909 1_545 S
C102 C99 1.339 . S
C102 C100 1.416 . S
C102 H123 0.930 . S
C103 C104 1.413 . S
C103 C105 1.427 . S
C103 C109 1.416 . S
C104 C97 1.424 . S
C104 C103 1.413 . S
C104 N108 1.361 . S
C105 C103 1.427 . S
C105 C106 1.328 . S
C105 H120 0.929 . S
C106 C100 1.448 . S
C106 C105 1.328 . S
C106 H121 0.930 . S
Tb107 N98 2.617 1_565 S
Tb107 N108 2.572 1_565 S
Tb107 O142 2.349 . S
Tb107 O145 2.393 . S
Tb107 O146 2.465 . S
Tb107 O147 2.387 1_565 S
Tb107 O149 2.428 . S
Tb107 O150 2.308 1_465 S
Tb107 C171 2.802 . S
N108 C104 1.361 . S
N108 Tb107 2.572 1_545 S
N108 C110 1.340 . S
C109 C103 1.416 . S
C109 C111 1.332 . S
C109 H117 0.931 . S
C110 N108 1.340 . S
C110 C111 1.407 . S
C110 H116 0.930 1_455 S
C111 C109 1.332 . S
C111 C110 1.407 . S
C111 H113 0.929 1_455 S
H112 C101 0.909 1_565 S
H113 C111 0.929 1_655 S
H114 C129 0.930 . S
H115 C136 0.934 . S
H116 C110 0.930 1_655 S
H117 C109 0.931 . S
H118 C132 0.930 . S
H119 C99 0.930 . S
H120 C105 0.929 . S
H121 C106 0.930 . S
H122 C127 0.930 . S
H123 C102 0.930 . S
H124 C135 0.931 . S
N125 Tb96 2.617 . S
N125 C126 1.379 . S
N125 C129 1.334 . S
C126 N125 1.379 . S
C126 C128 1.416 1_545 S
C126 C134 1.424 . S
C127 H122 0.930 . S
C127 C129 1.390 . S
C127 C130 1.335 1_545 S
C128 C126 1.416 1_565 S
C128 C130 1.417 . S
C128 C161 1.448 . S
C129 H114 0.930 . S
C129 N125 1.334 . S
C129 C127 1.390 . S
C130 C127 1.335 1_565 S
C130 C128 1.417 . S
C130 H137 0.933 . S
N131 Tb96 2.572 . S
N131 C132 1.340 1_655 S
N131 C134 1.361 . S
C132 H118 0.930 . S
C132 N131 1.340 1_455 S
C132 C136 1.388 1_545 S
C133 C134 1.413 1_565 S
C133 C135 1.416 . S
C133 C162 1.427 . S
C134 C126 1.424 . S
C134 N131 1.361 . S
C134 C133 1.413 1_545 S
C135 H124 0.931 . S
C135 C133 1.416 . S
C135 C136 1.349 1_655 S
C136 H115 0.934 . S
C136 C132 1.388 1_565 S
C136 C135 1.349 1_455 S
H137 C130 0.933 . S
H138 C161 0.930 . S
H139 C162 0.929 . S
O140 Tb96 2.465 1_455 S
O140 C160 1.264 1_455 S
O141 Tb96 2.387 1_565 S
O141 C152 1.264 . S
O142 Tb107 2.349 . S
O142 C152 1.243 1_455 S
O143 Tb96 2.428 . S
O143 C160 1.256 . S
O144 Tb96 2.308 1_455 S
O144 C159 1.266 . S
O145 Tb107 2.393 . S
O145 C159 1.248 1_565 S
O146 Tb107 2.465 . S
O146 C171 1.264 . S
O147 Tb107 2.387 1_545 S
O147 C163 1.264 . S
O148 Tb96 2.349 1_455 S
O148 C163 1.243 . S
O149 Tb107 2.428 . S
O149 C171 1.256 . S
O150 Tb107 2.308 1_645 S
O150 C170 1.266 . S
O151 Tb96 2.393 . S
O151 C170 1.248 . S
C152 O141 1.264 . S
C152 O142 1.243 1_655 S
C153 C156 1.399 . S
C153 C158 1.350 1_655 S
C153 C160 1.496 . S
C154 C155 1.399 . S
C154 C158 1.386 1_655 S
C155 C154 1.399 . S
C155 C157 1.380 . S
C155 H172 0.929 . S
C156 C153 1.399 . S
C156 C157 1.392 . S
C156 H173 0.929 . S
C157 C155 1.380 . S
C157 C156 1.392 . S
C157 H174 0.929 . S
C158 C153 1.350 1_455 S
C158 C154 1.386 1_455 S
C158 H175 0.969 . S
C159 O144 1.266 . S
C159 O145 1.248 1_545 S
C160 Tb96 2.802 . S
C160 O140 1.264 1_655 S
C160 O143 1.256 . S
C160 C153 1.496 . S
C161 C128 1.448 . S
C161 H138 0.930 . S
C161 C162 1.328 . S
C162 C133 1.427 . S
C162 H139 0.929 . S
C162 C161 1.328 . S
C163 O147 1.264 . S
C163 O148 1.243 . S
C164 C167 1.399 . S
C164 C168 1.383 . S
C164 C171 1.496 . S
C165 C166 1.399 . S
C165 C168 1.389 . S
C166 C165 1.399 . S
C166 C169 1.380 . S
C166 H176 0.929 . S
C167 C164 1.399 . S
C167 C169 1.392 . S
C167 H177 0.929 . S
C168 C164 1.383 . S
C168 C165 1.389 . S
C168 H178 0.881 1_455 S
C169 C166 1.380 . S
C169 C167 1.392 . S
C169 H179 0.929 . S
C170 O150 1.266 . S
C170 O151 1.248 . S
C171 Tb107 2.802 . S
C171 O146 1.264 . S
C171 O149 1.256 . S
C171 C164 1.496 . S
H172 C155 0.929 . S
H173 C156 0.929 . S
H174 C157 0.929 . S
H175 C158 0.969 . S
H176 C166 0.929 . S
H177 C167 0.929 . S
H178 C168 0.881 1_655 S
H179 C169 0.929 . S
Tb180 N209 2.617 . S
Tb180 N215 2.572 . S
Tb180 O224 2.465 . S
Tb180 O225 2.387 . S
Tb180 O227 2.428 . S
Tb180 O228 2.308 . S
Tb180 O232 2.349 1_545 S
Tb180 O235 2.393 . S
Tb180 C244 2.802 . S
C181 N182 1.379 . S
C181 C184 1.416 . S
C181 C188 1.424 . S
N182 C181 1.379 . S
N182 C185 1.334 . S
N182 Tb191 2.617 . S
C183 C185 1.390 . S
C183 C186 1.339 . S
C183 H203 0.930 . S
C184 C181 1.416 . S
C184 C186 1.416 . S
C184 C190 1.448 . S
C185 N182 1.334 . S
C185 C183 1.390 . S
C185 H196 0.930 . S
C186 C183 1.339 . S
C186 C184 1.416 . S
C186 H207 0.930 . S
C187 C188 1.413 . S
C187 C189 1.427 . S
C187 C193 1.416 . S
C188 C181 1.424 . S
C188 C187 1.413 . S
C188 N192 1.361 . S
C189 C187 1.427 . S
C189 C190 1.328 . S
C189 H204 0.929 . S
C190 C184 1.448 . S
C190 C189 1.328 . S
C190 H205 0.930 . S
Tb191 N182 2.617 . S
Tb191 N192 2.572 . S
Tb191 O226 2.349 1_565 S
Tb191 O229 2.393 . S
Tb191 O230 2.470 . S
Tb191 O231 2.387 . S
Tb191 O233 2.428 . S
Tb191 O234 2.308 1_565 S
Tb191 C255 2.802 . S
N192 C188 1.361 . S
N192 Tb191 2.572 . S
N192 C194 1.340 . S
C193 C187 1.416 . S
C193 C195 1.332 . S
C193 H201 0.931 . S
C194 N192 1.340 . S
C194 C195 1.407 . S
C194 H200 0.930 . S
C195 C193 1.332 . S
C195 C194 1.407 . S
C195 H197 0.929 . S
H196 C185 0.930 . S
H197 C195 0.929 . S
H198 C213 0.930 . S
H199 C220 0.929 . S
H200 C194 0.930 . S
H201 C193 0.931 . S
H202 C216 0.930 . S
H203 C183 0.930 . S
H204 C189 0.929 . S
H205 C190 0.930 . S
H206 C211 0.930 . S
H207 C186 0.930 . S
H208 C219 0.931 . S
N209 Tb180 2.617 . S
N209 C210 1.379 . S
N209 C213 1.334 . S
C210 N209 1.379 . S
C210 C212 1.416 . S
C210 C218 1.424 . S
C211 H206 0.930 . S
C211 C213 1.390 . S
C211 C214 1.339 . S
C212 C210 1.416 . S
C212 C214 1.416 . S
C212 C245 1.448 . S
C213 H198 0.930 . S
C213 N209 1.334 . S
C213 C211 1.390 . S
C214 C211 1.339 . S
C214 C212 1.416 . S
C214 H221 0.930 . S
N215 Tb180 2.572 . S
N215 C216 1.340 . S
N215 C218 1.361 . S
C216 H202 0.930 . S
C216 N215 1.340 . S
C216 C220 1.407 . S
C217 C218 1.413 . S
C217 C219 1.416 . S
C217 C246 1.427 . S
C218 C210 1.424 . S
C218 N215 1.361 . S
C218 C217 1.413 . S
C219 H208 0.931 . S
C219 C217 1.416 . S
C219 C220 1.332 . S
C220 H199 0.929 . S
C220 C216 1.407 . S
C220 C219 1.332 . S
H221 C214 0.930 . S
H222 C245 0.930 . S
H223 C246 0.929 . S
O224 Tb180 2.465 . S
O224 C244 1.264 . S
O225 Tb180 2.387 . S
O225 C236 1.264 . S
O226 Tb191 2.349 1_545 S
O226 C236 1.243 . S
O227 Tb180 2.428 . S
O227 C244 1.256 . S
O228 Tb180 2.308 . S
O228 C243 1.266 . S
O229 Tb191 2.393 . S
O229 C243 1.248 1_565 S
O230 Tb191 2.470 . S
O230 C255 1.267 . S
O231 Tb191 2.387 . S
O231 C247 1.264 . S
O232 Tb180 2.349 1_565 S
O232 C247 1.243 . S
O233 Tb191 2.428 . S
O233 C255 1.256 . S
O234 Tb191 2.308 1_545 S
O234 C254 1.266 . S
O235 Tb180 2.393 . S
O235 C254 1.248 . S
C236 O225 1.264 . S
C236 O226 1.243 . S
C237 C240 1.399 . S
C237 C242 1.383 . S
C237 C244 1.496 . S
C238 C239 1.399 . S
C238 C242 1.389 . S
C239 C238 1.399 . S
C239 C241 1.380 . S
C239 H256 0.929 . S
C240 C237 1.399 . S
C240 C241 1.392 . S
C240 H257 0.929 . S
C241 C239 1.380 . S
C241 C240 1.392 . S
C241 H258 0.929 1_556 S
C242 C237 1.383 . S
C242 C238 1.389 . S
C242 H259 0.931 . S
C243 O228 1.266 . S
C243 O229 1.248 1_545 S
C244 Tb180 2.802 . S
C244 O224 1.264 . S
C244 O227 1.256 . S
C244 C237 1.496 . S
C245 C212 1.448 . S
C245 H222 0.930 . S
C245 C246 1.328 . S
C246 C217 1.427 . S
C246 H223 0.929 . S
C246 C245 1.328 . S
C247 O231 1.264 . S
C247 O232 1.243 . S
C248 C251 1.402 . S
C248 C252 1.379 1_565 S
C248 C255 1.498 . S
C249 C250 1.399 . S
C249 C252 1.389 . S
C250 C249 1.399 . S
C250 C253 1.380 1_545 S
C250 H260 0.929 . S
C251 C248 1.402 . S
C251 C253 1.392 . S
C251 H261 0.929 . S
C252 C248 1.379 1_545 S
C252 C249 1.389 . S
C252 H262 0.931 . S
C253 C250 1.380 1_565 S
C253 C251 1.392 . S
C253 H263 0.929 . S
C254 O234 1.266 . S
C254 O235 1.248 . S
C255 Tb191 2.802 . S
C255 O230 1.267 . S
C255 O233 1.256 . S
C255 C248 1.498 . S
H256 C239 0.929 . S
H257 C240 0.929 . S
H258 C241 0.929 1_554 S
H259 C242 0.931 . S
H260 C250 0.929 . S
H261 C251 0.929 . S
H262 C252 0.931 . S
H263 C253 0.929 . S
Tb264 N293 2.617 . S
Tb264 N299 2.572 . S
Tb264 O308 2.465 . S
Tb264 O309 2.387 . S
Tb264 O311 2.428 . S
Tb264 O312 2.308 . S
Tb264 O316 2.349 . S
Tb264 O319 2.393 . S
Tb264 C328 2.802 . S
C265 N266 1.379 . S
C265 C268 1.416 . S
C265 C272 1.424 . S
N266 C265 1.379 . S
N266 C269 1.334 . S
N266 Tb275 2.617 . S
C267 C269 1.390 . S
C267 C270 1.339 . S
C267 H287 0.930 . S
C268 C265 1.416 . S
C268 C270 1.416 . S
C268 C274 1.448 . S
C269 N266 1.334 . S
C269 C267 1.390 . S
C269 H280 0.930 . S
C270 C267 1.339 . S
C270 C268 1.416 . S
C270 H291 0.930 . S
C271 C272 1.413 . S
C271 C273 1.427 . S
C271 C277 1.416 . S
C272 C265 1.424 . S
C272 C271 1.413 . S
C272 N276 1.361 . S
C273 C271 1.427 . S
C273 C274 1.328 . S
C273 H288 0.929 . S
C274 C268 1.448 . S
C274 C273 1.328 . S
C274 H289 0.930 . S
Tb275 N266 2.617 . S
Tb275 N276 2.572 . S
Tb275 O310 2.349 . S
Tb275 O313 2.393 . S
Tb275 O314 2.465 . S
Tb275 O315 2.387 . S
Tb275 O317 2.428 . S
Tb275 O318 2.308 . S
Tb275 C339 2.802 . S
N276 C272 1.361 . S
N276 Tb275 2.572 . S
N276 C278 1.340 . S
C277 C271 1.416 . S
C277 C279 1.332 . S
C277 H285 0.931 . S
C278 N276 1.340 . S
C278 C279 1.407 . S
C278 H284 0.930 . S
C279 C277 1.332 . S
C279 C278 1.407 . S
C279 H281 0.929 . S
H280 C269 0.930 . S
H281 C279 0.929 . S
H282 C297 0.930 . S
H283 C304 0.929 . S
H284 C278 0.930 . S
H285 C277 0.931 . S
H286 C300 0.930 . S
H287 C267 0.930 . S
H288 C273 0.929 . S
H289 C274 0.930 . S
H290 C295 0.930 . S
H291 C270 0.930 . S
H292 C303 0.931 . S
N293 Tb264 2.617 . S
N293 C294 1.379 . S
N293 C297 1.334 . S
C294 N293 1.379 . S
C294 C296 1.416 . S
C294 C302 1.424 . S
C295 H290 0.930 . S
C295 C297 1.390 . S
C295 C298 1.339 . S
C296 C294 1.416 . S
C296 C298 1.416 . S
C296 C329 1.448 . S
C297 H282 0.930 . S
C297 N293 1.334 . S
C297 C295 1.390 . S
C298 C295 1.339 . S
C298 C296 1.416 . S
C298 H305 0.930 . S
N299 Tb264 2.572 . S
N299 C300 1.340 . S
N299 C302 1.361 . S
C300 H286 0.930 . S
C300 N299 1.340 . S
C300 C304 1.407 . S
C301 C302 1.413 . S
C301 C303 1.416 . S
C301 C330 1.427 . S
C302 C294 1.424 . S
C302 N299 1.361 . S
C302 C301 1.413 . S
C303 H292 0.931 . S
C303 C301 1.416 . S
C303 C304 1.332 . S
C304 H283 0.929 . S
C304 C300 1.407 . S
C304 C303 1.332 . S
H305 C298 0.930 . S
H306 C329 0.930 . S
H307 C330 0.929 . S
O308 Tb264 2.465 . S
O308 C328 1.264 . S
O309 Tb264 2.387 . S
O309 C320 1.264 . S
O310 Tb275 2.349 . S
O310 C320 1.243 . S
O311 Tb264 2.428 . S
O311 C328 1.256 . S
O312 Tb264 2.308 . S
O312 C327 1.266 . S
O313 Tb275 2.393 . S
O313 C327 1.248 . S
O314 Tb275 2.465 . S
O314 C339 1.264 . S
O315 Tb275 2.387 . S
O315 C331 1.264 . S
O316 Tb264 2.349 . S
O316 C331 1.243 . S
O317 Tb275 2.428 . S
O317 C339 1.256 . S
O318 Tb275 2.308 . S
O318 C338 1.266 . S
O319 Tb264 2.393 . S
O319 C338 1.248 . S
C320 O309 1.264 . S
C320 O310 1.243 . S
C321 C324 1.399 . S
C321 C326 1.383 . S
C321 C328 1.496 . S
C322 C323 1.399 . S
C322 C326 1.389 . S
C323 C322 1.399 . S
C323 C325 1.380 . S
C323 H340 0.929 . S
C324 C321 1.399 . S
C324 C325 1.392 . S
C324 H341 0.929 . S
C325 C323 1.380 . S
C325 C324 1.392 . S
C325 H342 0.929 . S
C326 C321 1.383 . S
C326 C322 1.389 . S
C326 H343 0.931 . S
C327 O312 1.266 . S
C327 O313 1.248 . S
C328 Tb264 2.802 . S
C328 O308 1.264 . S
C328 O311 1.256 . S
C328 C321 1.496 . S
C329 C296 1.448 . S
C329 H306 0.930 . S
C329 C330 1.328 . S
C330 C301 1.427 . S
C330 H307 0.929 . S
C330 C329 1.328 . S
C331 O315 1.264 . S
C331 O316 1.243 . S
C332 C335 1.399 . S
C332 C336 1.383 . S
C332 C339 1.496 . S
C333 C334 1.399 . S
C333 C336 1.389 . S
C334 C333 1.399 . S
C334 C337 1.380 . S
C334 H344 0.929 . S
C335 C332 1.399 . S
C335 C337 1.392 . S
C335 H345 0.929 . S
C336 C332 1.383 . S
C336 C333 1.389 . S
C336 H346 0.931 . S
C337 C334 1.380 . S
C337 C335 1.392 . S
C337 H347 0.929 . S
C338 O318 1.266 . S
C338 O319 1.248 . S
C339 Tb275 2.802 . S
C339 O314 1.264 . S
C339 O317 1.256 . S
C339 C332 1.496 . S
H340 C323 0.929 . S
H341 C324 0.929 . S
H342 C325 0.929 . S
H343 C326 0.931 . S
H344 C334 0.929 . S
H345 C335 0.929 . S
H346 C336 0.931 . S
H347 C337 0.929 . S
Tb348 N377 2.617 . S
Tb348 N383 2.572 . S
Tb348 O392 2.465 . S
Tb348 O393 2.387 1_455 S
Tb348 O395 2.428 . S
Tb348 O396 2.308 . S
Tb348 O400 2.349 . S
Tb348 O403 2.393 . S
Tb348 C412 2.802 . S
C349 N350 1.365 1_455 S
C349 C352 1.416 . S
C349 C356 1.424 . S
N350 C349 1.365 1_655 S
N350 C353 1.338 . S
N350 Tb359 2.625 . S
C351 C353 1.390 1_455 S
C351 C354 1.339 . S
C351 H371 0.930 . S
C352 C349 1.416 . S
C352 C354 1.416 . S
C352 C358 1.448 . S
C353 N350 1.338 . S
C353 C351 1.390 1_655 S
C353 H364 0.930 . S
C354 C351 1.339 . S
C354 C352 1.416 . S
C354 H375 0.930 . S
C355 C356 1.413 . S
C355 C357 1.427 . S
C355 C361 1.416 . S
C356 C349 1.424 . S
C356 C355 1.413 . S
C356 N360 1.361 . S
C357 C355 1.427 . S
C357 C358 1.328 . S
C357 H372 0.929 . S
C358 C352 1.448 . S
C358 C357 1.328 . S
C358 H373 0.930 . S
Tb359 N350 2.625 . S
Tb359 N360 2.572 1_655 S
Tb359 O394 2.349 . S
Tb359 O397 2.393 . S
Tb359 O398 2.465 . S
Tb359 O399 2.387 1_655 S
Tb359 O401 2.428 . S
Tb359 O402 2.293 1_655 S
Tb359 C423 2.802 . S
N360 C356 1.361 . S
N360 Tb359 2.572 1_455 S
N360 C362 1.340 . S
C361 C355 1.416 . S
C361 C363 1.332 . S
C361 H369 0.931 . S
C362 N360 1.340 . S
C362 C363 1.407 . S
C362 H368 0.943 . S
C363 C361 1.332 . S
C363 C362 1.407 . S
C363 H365 0.929 . S
H364 C353 0.930 . S
H365 C363 0.929 . S
H366 C381 0.930 . S
H367 C388 0.929 . S
H368 C362 0.943 . S
H369 C361 0.931 . S
H370 C384 0.930 . S
H371 C351 0.930 . S
H372 C357 0.929 . S
H373 C358 0.930 . S
H374 C379 0.930 . S
H375 C354 0.930 . S
H376 C387 0.931 . S
N377 Tb348 2.617 . S
N377 C378 1.379 . S
N377 C381 1.334 . S
C378 N377 1.379 . S
C378 C380 1.416 1_455 S
C378 C386 1.424 . S
C379 H374 0.930 . S
C379 C381 1.390 . S
C379 C382 1.339 1_455 S
C380 C378 1.416 1_655 S
C380 C382 1.416 . S
C380 C413 1.448 . S
C381 H366 0.930 . S
C381 N377 1.334 . S
C381 C379 1.390 . S
C382 C379 1.339 1_655 S
C382 C380 1.416 . S
C382 H389 0.930 . S
N383 Tb348 2.572 . S
N383 C384 1.340 . S
N383 C386 1.361 . S
C384 H370 0.930 . S
C384 N383 1.340 . S
C384 C388 1.407 1_455 S
C385 C386 1.413 1_655 S
C385 C387 1.416 . S
C385 C414 1.427 . S
C386 C378 1.424 . S
C386 N383 1.361 . S
C386 C385 1.413 1_455 S
C387 H376 0.931 . S
C387 C385 1.416 . S
C387 C388 1.332 . S
C388 H367 0.929 . S
C388 C384 1.407 1_655 S
C388 C387 1.332 . S
H389 C382 0.930 . S
H390 C413 0.930 . S
H391 C414 0.929 . S
O392 Tb348 2.465 . S
O392 C412 1.264 . S
O393 Tb348 2.387 1_655 S
O393 C404 1.264 . S
O394 Tb359 2.349 . S
O394 C404 1.243 . S
O395 Tb348 2.428 . S
O395 C412 1.256 . S
O396 Tb348 2.308 . S
O396 C411 1.266 . S
O397 Tb359 2.393 . S
O397 C411 1.248 1_655 S
O398 Tb359 2.465 . S
O398 C423 1.264 . S
O399 Tb359 2.387 1_455 S
O399 C415 1.264 . S
O400 Tb348 2.349 . S
O400 C415 1.243 . S
O401 Tb359 2.428 . S
O401 C423 1.256 . S
O402 Tb359 2.293 1_455 S
O402 C422 1.279 . S
O403 Tb348 2.393 . S
O403 C422 1.248 . S
C404 O393 1.264 . S
C404 O394 1.243 . S
C405 C408 1.399 . S
C405 C410 1.383 . S
C405 C412 1.496 . S
C406 C407 1.399 . S
C406 C410 1.389 . S
C407 C406 1.399 . S
C407 C409 1.380 . S
C407 H424 0.929 . S
C408 C405 1.399 . S
C408 C409 1.392 . S
C408 H425 0.929 . S
C409 C407 1.380 . S
C409 C408 1.392 . S
C409 H426 0.929 . S
C410 C405 1.383 . S
C410 C406 1.389 . S
C410 H427 0.931 . S
C411 O396 1.266 . S
C411 O397 1.248 1_455 S
C412 Tb348 2.802 . S
C412 O392 1.264 . S
C412 O395 1.256 . S
C412 C405 1.496 . S
C413 C380 1.448 . S
C413 H390 0.930 . S
C413 C414 1.328 . S
C414 C385 1.427 . S
C414 H391 0.929 . S
C414 C413 1.328 . S
C415 O399 1.264 . S
C415 O400 1.243 . S
C416 C419 1.399 . S
C416 C420 1.383 . S
C416 C423 1.496 . S
C417 C418 1.399 . S
C417 C420 1.389 . S
C418 C417 1.399 . S
C418 C421 1.380 . S
C418 H428 0.929 . S
C419 C416 1.399 . S
C419 C421 1.392 . S
C419 H429 0.929 . S
C420 C416 1.383 . S
C420 C417 1.389 . S
C420 H430 0.931 . S
C421 C418 1.380 . S
C421 C419 1.392 . S
C421 H431 0.929 . S
C422 O402 1.279 . S
C422 O403 1.248 . S
C423 Tb359 2.802 . S
C423 O398 1.264 . S
C423 O401 1.256 . S
C423 C416 1.496 . S
H424 C407 0.929 . S
H425 C408 0.929 . S
H426 C409 0.929 . S
H427 C410 0.931 . S
H428 C418 0.929 . S
H429 C419 0.929 . S
H430 C420 0.931 . S
H431 C421 0.929 . S
H432 C450 0.951 . S
H433 C452 0.951 . S
H434 C454 0.950 . S
H435 C455 0.950 . S
H436 C457 0.950 . S
H437 C460 0.950 . S
H438 C461 0.950 . S
H439 C463 0.950 . S
H440 C464 0.950 . S
H441 C465 0.951 . S
H442 C467 0.951 . S
H443 C469 0.950 . S
H444 C470 0.950 . S
H445 C472 0.950 . S
H446 C475 0.950 . S
H447 C476 0.950 . S
H448 C478 0.950 . S
H449 C479 0.950 . S
C450 H432 0.951 . S
C450 C451 1.366 . S
C450 C452 1.388 . S
C451 C450 1.366 . S
C451 C455 1.385 . S
C452 H433 0.951 . S
C452 C450 1.388 . S
C452 C453 1.366 . S
C453 C452 1.366 . S
C453 C454 1.414 . S
C453 C456 1.499 . S
C454 H434 0.950 . S
C454 C453 1.414 . S
C454 C455 1.374 . S
C455 H435 0.950 . S
C455 C451 1.385 . S
C455 C454 1.374 . S
C456 C453 1.499 . S
C456 C457 1.373 . S
C456 C458 1.389 . S
C457 H436 0.950 . S
C457 C456 1.373 . S
C457 C473 1.377 . S
C458 C456 1.389 . S
C458 C459 1.524 . S
C458 C472 1.377 . S
C459 C458 1.524 . S
C459 C460 1.397 1_545 S
C459 C464 1.363 . S
C460 H437 0.950 . S
C460 C459 1.397 1_565 S
C460 C461 1.334 . S
C461 H438 0.950 . S
C461 C460 1.334 . S
C461 C462 1.287 . S
C462 C461 1.287 . S
C462 C463 1.524 1_565 S
C462 H481 0.913 . S
C463 H439 0.950 . S
C463 C462 1.524 1_545 S
C463 C464 1.415 . S
C464 H440 0.950 . S
C464 C459 1.363 . S
C464 C463 1.415 . S
C465 H441 0.951 . S
C465 C466 1.366 . S
C465 C467 1.388 . S
C466 C465 1.366 . S
C466 C470 1.385 . S
C467 H442 0.951 . S
C467 C465 1.388 . S
C467 C468 1.366 . S
C468 C467 1.366 . S
C468 C469 1.414 . S
C468 C471 1.499 . S
C469 H443 0.950 . S
C469 C468 1.414 . S
C469 C470 1.374 . S
C470 H444 0.950 . S
C470 C466 1.385 . S
C470 C469 1.374 . S
C471 C468 1.499 . S
C471 C472 1.373 . S
C471 C473 1.389 . S
C472 H445 0.950 . S
C472 C458 1.377 . S
C472 C471 1.373 . S
C473 C457 1.377 . S
C473 C471 1.389 . S
C473 C474 1.524 . S
C474 C473 1.524 . S
C474 C475 1.397 . S
C474 C479 1.363 . S
C475 H446 0.950 . S
C475 C474 1.397 . S
C475 C476 1.334 . S
C476 H447 0.950 . S
C476 C475 1.334 . S
C476 C477 1.287 . S
C477 C476 1.287 . S
C477 C478 1.524 . S
C477 H480 0.999 . S
C478 H448 0.950 . S
C478 C477 1.524 . S
C478 C479 1.415 . S
C479 H449 0.950 . S
C479 C474 1.363 . S
C479 C478 1.415 . S
H480 C477 0.999 . S
H481 C462 0.913 . S
H482 C500 0.951 . S
H483 C502 0.951 . S
H484 C504 0.950 . S
H485 C505 0.950 . S
H486 C507 0.950 . S
H487 C510 0.950 . S
H488 C511 0.950 . S
H489 C513 0.950 . S
H490 C514 0.950 . S
H491 C515 0.951 . S
H492 C517 0.951 . S
H493 C519 0.950 . S
H494 C520 0.950 . S
H495 C522 0.950 . S
H496 C525 0.950 . S
H497 C526 0.950 . S
H498 C528 0.950 . S
H499 C529 0.950 . S
C500 H482 0.951 . S
C500 C501 1.366 . S
C500 C502 1.388 . S
C501 C500 1.366 . S
C501 C505 1.385 . S
C502 H483 0.951 . S
C502 C500 1.388 . S
C502 C503 1.366 . S
C503 C502 1.366 . S
C503 C504 1.414 . S
C503 C506 1.499 . S
C504 H484 0.950 . S
C504 C503 1.414 . S
C504 C505 1.374 . S
C505 H485 0.950 . S
C505 C501 1.385 . S
C505 C504 1.374 . S
C506 C503 1.499 . S
C506 C507 1.373 . S
C506 C508 1.389 . S
C507 H486 0.950 . S
C507 C506 1.373 . S
C507 C523 1.377 . S
C508 C506 1.389 . S
C508 C509 1.524 . S
C508 C522 1.377 . S
C509 C508 1.524 . S
C509 C510 1.397 . S
C509 C514 1.363 . S
C510 H487 0.950 . S
C510 C509 1.397 . S
C510 C511 1.334 . S
C511 H488 0.950 . S
C511 C510 1.334 . S
C511 C512 1.287 . S
C512 C511 1.287 . S
C512 C513 1.524 . S
C512 H531 0.913 . S
C513 H489 0.950 . S
C513 C512 1.524 . S
C513 C514 1.415 . S
C514 H490 0.950 . S
C514 C509 1.363 . S
C514 C513 1.415 . S
C515 H491 0.951 . S
C515 C516 1.366 . S
C515 C517 1.388 . S
C516 C515 1.366 . S
C516 C520 1.385 . S
C517 H492 0.951 . S
C517 C515 1.388 . S
C517 C518 1.366 . S
C518 C517 1.366 . S
C518 C519 1.414 . S
C518 C521 1.499 . S
C519 H493 0.950 . S
C519 C518 1.414 . S
C519 C520 1.374 . S
C520 H494 0.950 . S
C520 C516 1.385 . S
C520 C519 1.374 . S
C521 C518 1.499 . S
C521 C522 1.373 . S
C521 C523 1.389 . S
C522 H495 0.950 . S
C522 C508 1.377 . S
C522 C521 1.373 . S
C523 C507 1.377 . S
C523 C521 1.389 . S
C523 C524 1.524 . S
C524 C523 1.524 . S
C524 C525 1.397 . S
C524 C529 1.363 . S
C525 H496 0.950 . S
C525 C524 1.397 . S
C525 C526 1.334 . S
C526 H497 0.950 . S
C526 C525 1.334 . S
C526 C527 1.287 . S
C527 C526 1.287 . S
C527 C528 1.524 . S
C527 H530 0.999 . S
C528 H498 0.950 . S
C528 C527 1.524 . S
C528 C529 1.415 . S
C529 H499 0.950 . S
C529 C524 1.363 . S
C529 C528 1.415 . S
H530 C527 0.999 . S
H531 C512 0.913 . S
H532 C550 0.951 . S
H533 C552 0.951 . S
H534 C554 0.950 . S
H535 C555 0.950 . S
H536 C557 0.950 . S
H537 C560 0.950 . S
H538 C561 0.950 . S
H539 C563 0.950 . S
H540 C564 0.950 . S
H541 C565 0.951 . S
H542 C567 0.951 . S
H543 C569 0.950 . S
H544 C570 0.950 . S
H545 C572 0.950 . S
H546 C575 0.950 . S
H547 C576 0.950 . S
H548 C578 0.950 . S
H549 C579 0.950 . S
C550 H532 0.951 . S
C550 C551 1.366 . S
C550 C552 1.388 . S
C551 C550 1.366 . S
C551 C555 1.385 . S
C552 H533 0.951 . S
C552 C550 1.388 . S
C552 C553 1.366 . S
C553 C552 1.366 . S
C553 C554 1.414 . S
C553 C556 1.499 . S
C554 H534 0.950 . S
C554 C553 1.414 . S
C554 C555 1.374 . S
C555 H535 0.950 . S
C555 C551 1.385 . S
C555 C554 1.374 . S
C556 C553 1.499 . S
C556 C557 1.373 . S
C556 C558 1.389 . S
C557 H536 0.950 . S
C557 C556 1.373 . S
C557 C573 1.377 . S
C558 C556 1.389 . S
C558 C559 1.524 . S
C558 C572 1.377 . S
C559 C558 1.524 . S
C559 C560 1.397 . S
C559 C564 1.363 . S
C560 H537 0.950 . S
C560 C559 1.397 . S
C560 C561 1.334 . S
C561 H538 0.950 . S
C561 C560 1.334 . S
C561 C562 1.287 . S
C562 C561 1.287 . S
C562 C563 1.524 . S
C562 H581 0.913 . S
C563 H539 0.950 . S
C563 C562 1.524 . S
C563 C564 1.415 . S
C564 H540 0.950 . S
C564 C559 1.363 . S
C564 C563 1.415 . S
C565 H541 0.951 . S
C565 C566 1.366 . S
C565 C567 1.388 . S
C566 C565 1.366 . S
C566 C570 1.385 . S
C567 H542 0.951 . S
C567 C565 1.388 . S
C567 C568 1.366 . S
C568 C567 1.366 . S
C568 C569 1.414 . S
C568 C571 1.499 . S
C569 H543 0.950 . S
C569 C568 1.414 . S
C569 C570 1.374 . S
C570 H544 0.950 . S
C570 C566 1.385 . S
C570 C569 1.374 . S
C571 C568 1.499 . S
C571 C572 1.373 . S
C571 C573 1.389 . S
C572 H545 0.950 . S
C572 C558 1.377 . S
C572 C571 1.373 . S
C573 C557 1.377 . S
C573 C571 1.389 . S
C573 C574 1.524 . S
C574 C573 1.524 . S
C574 C575 1.397 . S
C574 C579 1.363 . S
C575 H546 0.950 . S
C575 C574 1.397 . S
C575 C576 1.334 . S
C576 H547 0.950 . S
C576 C575 1.334 . S
C576 C577 1.287 . S
C577 C576 1.287 . S
C577 C578 1.524 . S
C577 H580 0.999 . S
C578 H548 0.950 . S
C578 C577 1.524 . S
C578 C579 1.415 . S
C579 H549 0.950 . S
C579 C574 1.363 . S
C579 C578 1.415 . S
H580 C577 0.999 . S
H581 C562 0.913 . S
H582 C600 0.951 . S
H583 C602 0.951 . S
H584 C604 0.950 . S
H585 C605 0.950 . S
H586 C607 0.950 . S
H587 C610 0.950 . S
H588 C611 0.950 . S
H589 C613 0.950 . S
H590 C614 0.950 . S
H591 C615 0.951 . S
H592 C617 0.951 . S
H593 C619 0.950 . S
H594 C620 0.950 . S
H595 C622 0.950 . S
H596 C625 0.950 . S
H597 C626 0.950 . S
H598 C628 0.950 . S
H599 C629 0.950 1_455 S
C600 H582 0.951 . S
C600 C601 1.366 . S
C600 C602 1.388 . S
C601 C600 1.366 . S
C601 C605 1.385 . S
C602 H583 0.951 . S
C602 C600 1.388 . S
C602 C603 1.366 . S
C603 C602 1.366 . S
C603 C604 1.414 . S
C603 C606 1.499 . S
C604 H584 0.950 . S
C604 C603 1.414 . S
C604 C605 1.374 . S
C605 H585 0.950 . S
C605 C601 1.385 . S
C605 C604 1.374 . S
C606 C603 1.499 . S
C606 C607 1.373 . S
C606 C608 1.389 . S
C607 H586 0.950 . S
C607 C606 1.373 . S
C607 C623 1.377 . S
C608 C606 1.389 . S
C608 C609 1.524 . S
C608 C622 1.377 . S
C609 C608 1.524 . S
C609 C610 1.397 . S
C609 C614 1.363 . S
C610 H587 0.950 . S
C610 C609 1.397 . S
C610 C611 1.334 . S
C611 H588 0.950 . S
C611 C610 1.334 . S
C611 C612 1.287 . S
C612 C611 1.287 . S
C612 C613 1.524 . S
C612 H631 0.913 . S
C613 H589 0.950 . S
C613 C612 1.524 . S
C613 C614 1.415 . S
C614 H590 0.950 . S
C614 C609 1.363 . S
C614 C613 1.415 . S
C615 H591 0.951 . S
C615 C616 1.366 . S
C615 C617 1.388 . S
C616 C615 1.366 . S
C616 C620 1.385 . S
C617 H592 0.951 . S
C617 C615 1.388 . S
C617 C618 1.366 . S
C618 C617 1.366 . S
C618 C619 1.414 . S
C618 C621 1.499 . S
C619 H593 0.950 . S
C619 C618 1.414 . S
C619 C620 1.374 . S
C620 H594 0.950 . S
C620 C616 1.385 . S
C620 C619 1.374 . S
C621 C618 1.499 . S
C621 C622 1.373 . S
C621 C623 1.389 . S
C622 H595 0.950 . S
C622 C608 1.377 . S
C622 C621 1.373 . S
C623 C607 1.377 . S
C623 C621 1.389 . S
C623 C624 1.524 1_455 S
C624 C623 1.524 1_655 S
C624 C625 1.397 . S
C624 C629 1.363 . S
C625 H596 0.950 . S
C625 C624 1.397 . S
C625 C626 1.334 . S
C626 H597 0.950 . S
C626 C625 1.334 . S
C626 C627 1.287 . S
C627 C626 1.287 . S
C627 C628 1.524 . S
C627 H630 0.999 . S
C628 H598 0.950 . S
C628 C627 1.524 . S
C628 C629 1.415 . S
C629 H599 0.950 1_655 S
C629 C624 1.363 . S
C629 C628 1.415 . S
H630 C627 0.999 . S
H631 C612 0.913 . S
H632 C650 0.951 . S
H633 C652 0.952 1_556 S
H634 C654 0.950 . S
H635 C655 0.950 . S
H636 C657 0.950 . S
H637 C660 0.950 . S
H638 C661 0.950 . S
H639 C663 0.950 . S
H640 C664 0.950 . S
H641 C665 0.951 . S
H642 C667 0.951 . S
H643 C669 0.950 . S
H644 C670 0.950 . S
H645 C672 0.950 . S
H646 C675 0.950 . S
H647 C676 0.950 . S
H648 C678 0.950 . S
H649 C679 0.950 1_565 S
C650 H632 0.951 . S
C650 C651 1.366 . S
C650 C652 1.388 . S
C651 C650 1.366 . S
C651 C655 1.385 . S
C652 H633 0.952 1_554 S
C652 C650 1.388 . S
C652 C653 1.366 . S
C653 C652 1.366 . S
C653 C654 1.414 . S
C653 C656 1.499 . S
C654 H634 0.950 . S
C654 C653 1.414 . S
C654 C655 1.374 . S
C655 H635 0.950 . S
C655 C651 1.385 . S
C655 C654 1.374 . S
C656 C653 1.499 . S
C656 C657 1.373 . S
C656 C658 1.389 1_554 S
C657 H636 0.950 . S
C657 C656 1.373 . S
C657 C673 1.377 1_554 S
C658 C656 1.389 1_556 S
C658 C659 1.524 . S
C658 C672 1.377 . S
C659 C658 1.524 . S
C659 C660 1.397 . S
C659 C664 1.363 . S
C660 H637 0.950 . S
C660 C659 1.397 . S
C660 C661 1.334 . S
C661 H638 0.950 . S
C661 C660 1.334 . S
C661 C662 1.287 . S
C662 C661 1.287 . S
C662 C663 1.524 . S
C662 H681 0.913 . S
C663 H639 0.950 . S
C663 C662 1.524 . S
C663 C664 1.415 . S
C664 H640 0.950 . S
C664 C659 1.363 . S
C664 C663 1.415 . S
C665 H641 0.951 . S
C665 C666 1.363 1_565 S
C665 C667 1.388 . S
C666 C665 1.363 1_545 S
C666 C670 1.387 . S
C667 H642 0.951 . S
C667 C665 1.388 . S
C667 C668 1.366 . S
C668 C667 1.366 . S
C668 C669 1.414 1_565 S
C668 C671 1.499 . S
C669 H643 0.950 . S
C669 C668 1.414 1_545 S
C669 C670 1.374 . S
C670 H644 0.950 . S
C670 C666 1.387 . S
C670 C669 1.374 . S
C671 C668 1.499 . S
C671 C672 1.373 . S
C671 C673 1.389 . S
C672 H645 0.950 . S
C672 C658 1.377 . S
C672 C671 1.373 . S
C673 C657 1.377 1_556 S
C673 C671 1.389 . S
C673 C674 1.524 1_565 S
C674 C673 1.524 1_545 S
C674 C675 1.397 . S
C674 C679 1.363 1_556 S
C675 H646 0.950 . S
C675 C674 1.397 . S
C675 C676 1.334 . S
C676 H647 0.950 . S
C676 C675 1.334 . S
C676 C677 1.287 1_556 S
C677 C676 1.287 1_554 S
C677 C678 1.524 . S
C677 H680 0.999 . S
C678 H648 0.950 . S
C678 C677 1.524 . S
C678 C679 1.415 . S
C679 H649 0.950 1_545 S
C679 C674 1.363 1_554 S
C679 C678 1.415 . S
H680 C677 0.999 . S
H681 C662 0.913 . S
H682 C700 0.951 . S
H683 C702 0.951 . S
H684 C704 0.950 . S
H685 C705 0.950 . S
H686 C707 0.950 . S
H687 C710 0.950 1_556 S
H688 C711 0.950 . S
H689 C713 0.950 . S
H690 C714 0.950 . S
H691 C715 0.951 . S
H692 C717 0.951 . S
H693 C719 0.950 . S
H694 C720 0.950 . S
H695 C722 0.950 . S
H696 C725 0.950 . S
H697 C726 0.950 . S
H698 C728 0.950 . S
H699 C729 0.950 . S
C700 H682 0.951 . S
C700 C701 1.366 . S
C700 C702 1.388 . S
C701 C700 1.366 . S
C701 C705 1.385 . S
C702 H683 0.951 . S
C702 C700 1.388 . S
C702 C703 1.366 . S
C703 C702 1.366 . S
C703 C704 1.414 . S
C703 C706 1.499 . S
C704 H684 0.950 . S
C704 C703 1.414 . S
C704 C705 1.374 . S
C705 H685 0.950 . S
C705 C701 1.385 . S
C705 C704 1.374 . S
C706 C703 1.499 . S
C706 C707 1.373 1_554 S
C706 C708 1.389 1_554 S
C707 H686 0.950 . S
C707 C706 1.373 1_556 S
C707 C723 1.377 . S
C708 C706 1.389 1_556 S
C708 C709 1.524 1_556 S
C708 C722 1.377 . S
C709 C708 1.524 1_554 S
C709 C710 1.397 . S
C709 C714 1.363 . S
C710 H687 0.950 1_554 S
C710 C709 1.397 . S
C710 C711 1.334 . S
C711 H688 0.950 . S
C711 C710 1.334 . S
C711 C712 1.287 . S
C712 C711 1.287 . S
C712 C713 1.524 . S
C712 H731 0.913 . S
C713 H689 0.950 . S
C713 C712 1.524 . S
C713 C714 1.415 . S
C714 H690 0.950 . S
C714 C709 1.363 . S
C714 C713 1.415 . S
C715 H691 0.951 . S
C715 C716 1.366 . S
C715 C717 1.388 . S
C716 C715 1.366 . S
C716 C720 1.385 . S
C717 H692 0.951 . S
C717 C715 1.388 . S
C717 C718 1.366 . S
C718 C717 1.366 . S
C718 C719 1.414 . S
C718 C721 1.499 . S
C719 H693 0.950 . S
C719 C718 1.414 . S
C719 C720 1.374 . S
C720 H694 0.950 . S
C720 C716 1.385 . S
C720 C719 1.374 . S
C721 C718 1.499 . S
C721 C722 1.373 . S
C721 C723 1.389 . S
C722 H695 0.950 . S
C722 C708 1.377 . S
C722 C721 1.373 . S
C723 C707 1.377 . S
C723 C721 1.389 . S
C723 C724 1.524 . S
C724 C723 1.524 . S
C724 C725 1.397 . S
C724 C729 1.363 . S
C725 H696 0.950 . S
C725 C724 1.397 . S
C725 C726 1.334 . S
C726 H697 0.950 . S
C726 C725 1.334 . S
C726 C727 1.287 . S
C727 C726 1.287 . S
C727 C728 1.524 . S
C727 H730 0.999 . S
C728 H698 0.950 . S
C728 C727 1.524 . S
C728 C729 1.415 . S
C729 H699 0.950 . S
C729 C724 1.363 . S
C729 C728 1.415 . S
H730 C727 0.999 . S
H731 C712 0.913 . S
H732 C750 0.951 . S
H733 C752 0.951 . S
H734 C754 0.950 1_556 S
H735 C755 0.950 . S
H736 C757 0.950 . S
H737 C760 0.950 . S
H738 C761 0.950 . S
H739 C763 0.950 . S
H740 C764 0.950 . S
H741 C765 0.951 . S
H742 C767 0.951 . S
H743 C769 0.950 . S
H744 C770 0.950 . S
H745 C772 0.950 . S
H746 C775 0.950 . S
H747 C776 0.950 . S
H748 C778 0.950 . S
H749 C779 0.950 . S
C750 H732 0.951 . S
C750 C751 1.366 . S
C750 C752 1.388 . S
C751 C750 1.366 . S
C751 C755 1.385 . S
C752 H733 0.951 . S
C752 C750 1.388 . S
C752 C753 1.366 . S
C753 C752 1.366 . S
C753 C754 1.414 . S
C753 C756 1.499 . S
C754 H734 0.950 1_554 S
C754 C753 1.414 . S
C754 C755 1.374 . S
C755 H735 0.950 . S
C755 C751 1.385 . S
C755 C754 1.374 . S
C756 C753 1.499 . S
C756 C757 1.373 1_554 S
C756 C758 1.389 . S
C757 H736 0.950 . S
C757 C756 1.373 1_556 S
C757 C773 1.377 . S
C758 C756 1.389 . S
C758 C759 1.524 . S
C758 C772 1.377 1_554 S
C759 C758 1.524 . S
C759 C760 1.397 . S
C759 C764 1.363 . S
C760 H737 0.950 . S
C760 C759 1.397 . S
C760 C761 1.334 . S
C761 H738 0.950 . S
C761 C760 1.334 . S
C761 C762 1.287 . S
C762 C761 1.287 . S
C762 C763 1.524 . S
C762 H781 0.913 . S
C763 H739 0.950 . S
C763 C762 1.524 . S
C763 C764 1.415 . S
C764 H740 0.950 . S
C764 C759 1.363 . S
C764 C763 1.415 . S
C765 H741 0.951 . S
C765 C766 1.366 . S
C765 C767 1.388 . S
C766 C765 1.366 . S
C766 C770 1.385 . S
C767 H742 0.951 . S
C767 C765 1.388 . S
C767 C768 1.366 . S
C768 C767 1.366 . S
C768 C769 1.414 . S
C768 C771 1.499 . S
C769 H743 0.950 . S
C769 C768 1.414 . S
C769 C770 1.374 . S
C770 H744 0.950 . S
C770 C766 1.385 . S
C770 C769 1.374 . S
C771 C768 1.499 . S
C771 C772 1.373 . S
C771 C773 1.389 . S
C772 H745 0.950 . S
C772 C758 1.377 1_556 S
C772 C771 1.373 . S
C773 C757 1.377 . S
C773 C771 1.389 . S
C773 C774 1.524 . S
C774 C773 1.524 . S
C774 C775 1.397 . S
C774 C779 1.363 . S
C775 H746 0.950 . S
C775 C774 1.397 . S
C775 C776 1.334 . S
C776 H747 0.950 . S
C776 C775 1.334 . S
C776 C777 1.287 . S
C777 C776 1.287 . S
C777 C778 1.524 . S
C777 H780 0.999 . S
C778 H748 0.950 . S
C778 C777 1.524 . S
C778 C779 1.415 . S
C779 H749 0.950 . S
C779 C774 1.363 . S
C779 C778 1.415 . S
H780 C777 0.999 . S
H781 C762 0.913 . S
H782 C800 0.951 . S
H783 C802 0.951 . S
H784 C804 0.950 1_556 S
H785 C805 0.950 . S
H786 C807 0.950 . S
H787 C810 0.950 . S
H788 C811 0.950 . S
H789 C813 0.950 . S
H790 C814 0.950 . S
H791 C815 0.951 . S
H792 C817 0.951 . S
H793 C819 0.955 . S
H794 C820 0.950 . S
H795 C822 0.950 . S
H796 C825 0.950 . S
H797 C826 0.950 . S
H798 C828 0.950 . S
H799 C829 0.950 . S
C800 H782 0.951 . S
C800 C801 1.366 . S
C800 C802 1.388 . S
C801 C800 1.366 . S
C801 C805 1.385 . S
C802 H783 0.951 . S
C802 C800 1.388 . S
C802 C803 1.366 . S
C803 C802 1.366 . S
C803 C804 1.414 . S
C803 C806 1.499 . S
C804 H784 0.950 1_554 S
C804 C803 1.414 . S
C804 C805 1.374 . S
C805 H785 0.950 . S
C805 C801 1.385 . S
C805 C804 1.374 . S
C806 C803 1.499 . S
C806 C807 1.373 1_554 S
C806 C808 1.389 1_654 S
C807 H786 0.950 . S
C807 C806 1.373 1_556 S
C807 C823 1.377 . S
C808 C806 1.389 1_456 S
C808 C809 1.524 1_556 S
C808 C822 1.377 . S
C809 C808 1.524 1_554 S
C809 C810 1.397 . S
C809 C814 1.363 . S
C810 H787 0.950 . S
C810 C809 1.397 . S
C810 C811 1.334 . S
C811 H788 0.950 . S
C811 C810 1.334 . S
C811 C812 1.287 . S
C812 C811 1.287 . S
C812 C813 1.524 . S
C812 H831 0.913 . S
C813 H789 0.950 . S
C813 C812 1.524 . S
C813 C814 1.415 . S
C814 H790 0.950 . S
C814 C809 1.363 . S
C814 C813 1.415 . S
C815 H791 0.951 . S
C815 C816 1.366 . S
C815 C817 1.388 . S
C816 C815 1.366 . S
C816 C820 1.385 1_655 S
C817 H792 0.951 . S
C817 C815 1.388 . S
C817 C818 1.366 . S
C818 C817 1.366 . S
C818 C819 1.408 1_655 S
C818 C821 1.499 . S
C819 H793 0.955 . S
C819 C818 1.408 1_455 S
C819 C820 1.376 . S
C820 H794 0.950 . S
C820 C816 1.385 1_455 S
C820 C819 1.376 . S
C821 C818 1.499 . S
C821 C822 1.373 1_655 S
C821 C823 1.389 . S
C822 H795 0.950 . S
C822 C808 1.377 . S
C822 C821 1.373 1_455 S
C823 C807 1.377 . S
C823 C821 1.389 . S
C823 C824 1.524 . S
C824 C823 1.524 . S
C824 C825 1.397 . S
C824 C829 1.363 . S
C825 H796 0.950 . S
C825 C824 1.397 . S
C825 C826 1.334 . S
C826 H797 0.950 . S
C826 C825 1.334 . S
C826 C827 1.287 . S
C827 C826 1.287 . S
C827 C828 1.524 . S
C827 H830 0.999 . S
C828 H798 0.950 . S
C828 C827 1.524 . S
C828 C829 1.415 . S
C829 H799 0.950 . S
C829 C824 1.363 . S
C829 C828 1.415 . S
H830 C827 0.999 . S
H831 C812 0.913 . S
H832 C850 0.951 . S
H833 C852 0.951 . S
H834 C854 0.950 . S
H835 C855 0.950 . S
H836 C857 0.957 . S
H837 C860 0.950 . S
H838 C861 0.950 . S
H839 C863 0.950 . S
H840 C864 0.950 . S
H841 C865 0.936 1_655 S
H842 C867 0.951 . S
H843 C869 0.950 . S
H844 C870 0.950 . S
H845 C872 0.950 . S
H846 C875 0.950 . S
H847 C876 0.950 . S
H848 C878 0.950 . S
H849 C879 0.950 . S
C850 H832 0.951 . S
C850 C851 1.366 . S
C850 C852 1.388 . S
C851 C850 1.366 . S
C851 C855 1.385 . S
C852 H833 0.951 . S
C852 C850 1.388 . S
C852 C853 1.366 . S
C853 C852 1.366 . S
C853 C854 1.414 . S
C853 C856 1.499 . S
C854 H834 0.950 . S
C854 C853 1.414 . S
C854 C855 1.374 . S
C855 H835 0.950 . S
C855 C851 1.385 . S
C855 C854 1.374 . S
C856 C853 1.499 . S
C856 C857 1.373 . S
C856 C858 1.389 . S
C857 H836 0.957 . S
C857 C856 1.373 . S
C857 C873 1.377 . S
C858 C856 1.389 . S
C858 C859 1.524 . S
C858 C872 1.377 . S
C859 C858 1.524 . S
C859 C860 1.397 . S
C859 C864 1.363 . S
C860 H837 0.950 . S
C860 C859 1.397 . S
C860 C861 1.334 . S
C861 H838 0.950 . S
C861 C860 1.334 . S
C861 C862 1.287 . S
C862 C861 1.287 . S
C862 C863 1.524 . S
C862 H881 0.913 . S
C863 H839 0.950 . S
C863 C862 1.524 . S
C863 C864 1.415 . S
C864 H840 0.950 . S
C864 C859 1.363 . S
C864 C863 1.415 . S
C865 H841 0.936 1_455 S
C865 C866 1.366 . S
C865 C867 1.388 . S
C866 C865 1.366 . S
C866 C870 1.385 . S
C867 H842 0.951 . S
C867 C865 1.388 . S
C867 C868 1.366 . S
C868 C867 1.366 . S
C868 C869 1.414 . S
C868 C871 1.499 . S
C869 H843 0.950 . S
C869 C868 1.414 . S
C869 C870 1.374 . S
C870 H844 0.950 . S
C870 C866 1.385 . S
C870 C869 1.374 . S
C871 C868 1.499 . S
C871 C872 1.373 . S
C871 C873 1.389 . S
C872 H845 0.950 . S
C872 C858 1.377 . S
C872 C871 1.373 . S
C873 C857 1.377 . S
C873 C871 1.389 . S
C873 C874 1.524 1_455 S
C874 C873 1.524 1_655 S
C874 C875 1.397 . S
C874 C879 1.363 . S
C875 H846 0.950 . S
C875 C874 1.397 . S
C875 C876 1.334 . S
C876 H847 0.950 . S
C876 C875 1.334 . S
C876 C877 1.287 . S
C877 C876 1.287 . S
C877 C878 1.524 . S
C877 H880 0.999 . S
C878 H848 0.950 . S
C878 C877 1.524 . S
C878 C879 1.415 . S
C879 H849 0.950 . S
C879 C874 1.363 . S
C879 C878 1.415 . S
H880 C877 0.999 . S
H881 C862 0.913 . S
H882 C900 0.951 . S
H883 C902 0.951 . S
H884 C904 0.950 . S
H885 C905 0.950 . S
H886 C907 0.950 . S
H887 C910 0.950 . S
H888 C911 0.950 . S
H889 C913 0.950 . S
H890 C914 0.950 1_545 S
H891 C915 0.951 . S
H892 C917 0.951 . S
H893 C919 0.950 . S
H894 C920 0.950 . S
H895 C922 0.950 . S
H896 C925 0.950 . S
H897 C926 0.950 . S
H898 C928 0.950 . S
H899 C929 0.950 . S
C900 H882 0.951 . S
C900 C901 1.366 . S
C900 C902 1.388 . S
C901 C900 1.366 . S
C901 C905 1.385 . S
C902 H883 0.951 . S
C902 C900 1.388 . S
C902 C903 1.366 . S
C903 C902 1.366 . S
C903 C904 1.414 . S
C903 C906 1.499 . S
C904 H884 0.950 . S
C904 C903 1.414 . S
C904 C905 1.374 . S
C905 H885 0.950 . S
C905 C901 1.385 . S
C905 C904 1.374 . S
C906 C903 1.499 . S
C906 C907 1.373 . S
C906 C908 1.389 . S
C907 H886 0.950 . S
C907 C906 1.373 . S
C907 C923 1.377 . S
C908 C906 1.389 . S
C908 C909 1.552 . S
C908 C922 1.377 . S
C909 C908 1.552 . S
C909 C910 1.375 1_545 S
C909 C914 1.356 1_545 S
C910 H887 0.950 . S
C910 C909 1.375 1_565 S
C910 C911 1.334 . S
C911 H888 0.950 . S
C911 C910 1.334 . S
C911 C912 1.287 . S
C912 C911 1.287 . S
C912 C913 1.524 . S
C912 H931 0.913 . S
C913 H889 0.950 . S
C913 C912 1.524 . S
C913 C914 1.415 . S
C914 H890 0.950 1_565 S
C914 C909 1.356 1_565 S
C914 C913 1.415 . S
C915 H891 0.951 . S
C915 C916 1.366 . S
C915 C917 1.388 . S
C916 C915 1.366 . S
C916 C920 1.385 . S
C917 H892 0.951 . S
C917 C915 1.388 . S
C917 C918 1.366 . S
C918 C917 1.366 . S
C918 C919 1.414 . S
C918 C921 1.499 . S
C919 H893 0.950 . S
C919 C918 1.414 . S
C919 C920 1.374 . S
C920 H894 0.950 . S
C920 C916 1.385 . S
C920 C919 1.374 . S
C921 C918 1.499 . S
C921 C922 1.373 . S
C921 C923 1.389 . S
C922 H895 0.950 . S
C922 C908 1.377 . S
C922 C921 1.373 . S
C923 C907 1.377 . S
C923 C921 1.389 . S
C923 C924 1.524 . S
C924 C923 1.524 . S
C924 C925 1.397 . S
C924 C929 1.363 . S
C925 H896 0.950 . S
C925 C924 1.397 . S
C925 C926 1.334 . S
C926 H897 0.950 . S
C926 C925 1.334 . S
C926 C927 1.287 . S
C927 C926 1.287 . S
C927 C928 1.524 . S
C927 H930 0.999 . S
C928 H898 0.950 . S
C928 C927 1.524 . S
C928 C929 1.415 . S
C929 H899 0.950 . S
C929 C924 1.363 . S
C929 C928 1.415 . S
H930 C927 0.999 . S
H931 C912 0.913 . S
H932 C950 0.951 . S
H933 C952 0.951 . S
H934 C954 0.950 . S
H935 C955 0.950 . S
H936 C957 0.950 . S
H937 C960 0.950 . S
H938 C961 0.950 1_556 S
H939 C963 0.950 . S
H940 C964 0.950 . S
H941 C965 0.951 . S
H942 C967 0.951 . S
H943 C969 0.950 . S
H944 C970 0.950 . S
H945 C972 0.950 . S
H946 C975 0.950 . S
H947 C976 0.950 . S
H948 C978 0.950 . S
H949 C979 0.950 . S
C950 H932 0.951 . S
C950 C951 1.366 . S
C950 C952 1.388 . S
C951 C950 1.366 . S
C951 C955 1.385 . S
C952 H933 0.951 . S
C952 C950 1.388 . S
C952 C953 1.366 . S
C953 C952 1.366 . S
C953 C954 1.414 . S
C953 C956 1.499 . S
C954 H934 0.950 . S
C954 C953 1.414 . S
C954 C955 1.374 . S
C955 H935 0.950 . S
C955 C951 1.385 . S
C955 C954 1.374 . S
C956 C953 1.499 . S
C956 C957 1.373 . S
C956 C958 1.389 . S
C957 H936 0.950 . S
C957 C956 1.373 . S
C957 C973 1.377 . S
C958 C956 1.389 . S
C958 C959 1.524 . S
C958 C972 1.377 . S
C959 C958 1.524 . S
C959 C960 1.397 . S
C959 C964 1.363 . S
C960 H937 0.950 . S
C960 C959 1.397 . S
C960 C961 1.334 . S
C961 H938 0.950 1_554 S
C961 C960 1.334 . S
C961 C962 1.287 . S
C962 C961 1.287 . S
C962 C963 1.524 . S
C962 H981 0.913 1_554 S
C963 H939 0.950 . S
C963 C962 1.524 . S
C963 C964 1.415 . S
C964 H940 0.950 . S
C964 C959 1.363 . S
C964 C963 1.415 . S
C965 H941 0.951 . S
C965 C966 1.366 . S
C965 C967 1.388 . S
C966 C965 1.366 . S
C966 C970 1.385 . S
C967 H942 0.951 . S
C967 C965 1.388 . S
C967 C968 1.366 . S
C968 C967 1.366 . S
C968 C969 1.414 . S
C968 C971 1.499 . S
C969 H943 0.950 . S
C969 C968 1.414 . S
C969 C970 1.374 . S
C970 H944 0.950 . S
C970 C966 1.385 . S
C970 C969 1.374 . S
C971 C968 1.499 . S
C971 C972 1.373 . S
C971 C973 1.389 . S
C972 H945 0.950 . S
C972 C958 1.377 . S
C972 C971 1.373 . S
C973 C957 1.377 . S
C973 C971 1.389 . S
C973 C974 1.524 . S
C974 C973 1.524 . S
C974 C975 1.397 . S
C974 C979 1.363 . S
C975 H946 0.950 . S
C975 C974 1.397 . S
C975 C976 1.334 . S
C976 H947 0.950 . S
C976 C975 1.334 . S
C976 C977 1.287 . S
C977 C976 1.287 . S
C977 C978 1.524 . S
C977 H980 0.999 . S
C978 H948 0.950 . S
C978 C977 1.524 . S
C978 C979 1.415 . S
C979 H949 0.950 . S
C979 C974 1.363 . S
C979 C978 1.415 . S
H980 C977 0.999 . S
H981 C962 0.913 1_556 S
H982 C1000 0.951 . S
H983 C1002 0.951 . S
H984 C1004 0.950 . S
H985 C1005 0.950 . S
H986 C1007 0.950 . S
H987 C1010 0.950 . S
H988 C1011 0.950 1_556 S
H989 C1013 0.950 1_556 S
H990 C1014 0.950 . S
H991 C1015 0.951 . S
H992 C1017 0.951 . S
H993 C1019 0.950 . S
H994 C1020 0.950 . S
H995 C1022 0.950 . S
H996 C1025 0.950 . S
H997 C1026 0.950 . S
H998 C1028 0.950 . S
H999 C1029 0.950 . S
C1000 H982 0.951 . S
C1000 C1001 1.366 . S
C1000 C1002 1.388 . S
C1001 C1000 1.366 . S
C1001 C1005 1.385 . S
C1002 H983 0.951 . S
C1002 C1000 1.388 . S
C1002 C1003 1.366 . S
C1003 C1002 1.366 . S
C1003 C1004 1.414 . S
C1003 C1006 1.499 . S
C1004 H984 0.950 . S
C1004 C1003 1.414 . S
C1004 C1005 1.374 . S
C1005 H985 0.950 . S
C1005 C1001 1.385 . S
C1005 C1004 1.374 . S
C1006 C1003 1.499 . S
C1006 C1007 1.373 . S
C1006 C1008 1.389 . S
C1007 H986 0.950 . S
C1007 C1006 1.373 . S
C1007 C1023 1.377 . S
C1008 C1006 1.389 . S
C1008 C1009 1.524 . S
C1008 C1022 1.377 . S
C1009 C1008 1.524 . S
C1009 C1010 1.397 . S
C1009 C1014 1.363 . S
C1010 H987 0.950 . S
C1010 C1009 1.397 . S
C1010 C1011 1.334 . S
C1011 H988 0.950 1_554 S
C1011 C1010 1.334 . S
C1011 C1012 1.287 1_554 S
C1012 C1011 1.287 1_556 S
C1012 C1013 1.524 1_556 S
C1012 H1031 0.913 . S
C1013 H989 0.950 1_554 S
C1013 C1012 1.524 1_554 S
C1013 C1014 1.415 . S
C1014 H990 0.950 . S
C1014 C1009 1.363 . S
C1014 C1013 1.415 . S
C1015 H991 0.951 . S
C1015 C1016 1.366 . S
C1015 C1017 1.388 . S
C1016 C1015 1.366 . S
C1016 C1020 1.385 . S
C1017 H992 0.951 . S
C1017 C1015 1.388 . S
C1017 C1018 1.366 . S
C1018 C1017 1.366 . S
C1018 C1019 1.414 . S
C1018 C1021 1.499 . S
C1019 H993 0.950 . S
C1019 C1018 1.414 . S
C1019 C1020 1.374 . S
C1020 H994 0.950 . S
C1020 C1016 1.385 . S
C1020 C1019 1.374 . S
C1021 C1018 1.499 . S
C1021 C1022 1.373 . S
C1021 C1023 1.389 . S
C1022 H995 0.950 . S
C1022 C1008 1.377 . S
C1022 C1021 1.373 . S
C1023 C1007 1.377 . S
C1023 C1021 1.389 . S
C1023 C1024 1.524 . S
C1024 C1023 1.524 . S
C1024 C1025 1.397 . S
C1024 C1029 1.363 . S
C1025 H996 0.950 . S
C1025 C1024 1.397 . S
C1025 C1026 1.334 . S
C1026 H997 0.950 . S
C1026 C1025 1.334 . S
C1026 C1027 1.287 . S
C1027 C1026 1.287 . S
C1027 C1028 1.524 . S
C1027 H1030 0.999 . S
C1028 H998 0.950 . S
C1028 C1027 1.524 . S
C1028 C1029 1.415 . S
C1029 H999 0.950 . S
C1029 C1024 1.363 . S
C1029 C1028 1.415 . S
H1030 C1027 0.999 . S
H1031 C1012 0.913 . S
H1032 C1050 0.951 . S
H1033 C1052 0.951 . S
H1034 C1054 0.950 . S
H1035 C1055 0.950 . S
H1036 C1057 0.955 1_556 S
H1037 C1060 0.950 . S
H1038 C1061 0.950 . S
H1039 C1063 0.950 . S
H1040 C1064 0.950 . S
H1041 C1065 0.951 . S
H1042 C1067 0.951 . S
H1043 C1069 0.950 1_554 S
H1044 C1070 0.950 . S
H1045 C1072 0.950 . S
H1046 C1075 0.950 . S
H1047 C1076 0.950 . S
H1048 C1078 0.950 . S
H1049 C1079 0.950 1_655 S
C1050 H1032 0.951 . S
C1050 C1051 1.366 . S
C1050 C1052 1.388 . S
C1051 C1050 1.366 . S
C1051 C1055 1.385 . S
C1052 H1033 0.951 . S
C1052 C1050 1.388 . S
C1052 C1053 1.366 . S
C1053 C1052 1.366 . S
C1053 C1054 1.414 . S
C1053 C1056 1.499 . S
C1054 H1034 0.950 . S
C1054 C1053 1.414 . S
C1054 C1055 1.374 . S
C1055 H1035 0.950 . S
C1055 C1051 1.385 . S
C1055 C1054 1.374 . S
C1056 C1053 1.499 . S
C1056 C1057 1.373 . S
C1056 C1058 1.389 . S
C1057 H1036 0.955 1_554 S
C1057 C1056 1.373 . S
C1057 C1073 1.366 1_654 S
C1058 C1056 1.389 . S
C1058 C1059 1.524 . S
C1058 C1072 1.377 . S
C1059 C1058 1.524 . S
C1059 C1060 1.397 . S
C1059 C1064 1.363 . S
C1060 H1037 0.950 . S
C1060 C1059 1.397 . S
C1060 C1061 1.334 . S
C1061 H1038 0.950 . S
C1061 C1060 1.334 . S
C1061 C1062 1.287 . S
C1062 C1061 1.287 . S
C1062 C1063 1.524 . S
C1062 H1081 0.913 . S
C1063 H1039 0.950 . S
C1063 C1062 1.524 . S
C1063 C1064 1.415 . S
C1064 H1040 0.950 . S
C1064 C1059 1.363 . S
C1064 C1063 1.415 . S
C1065 H1041 0.951 . S
C1065 C1066 1.366 1_655 S
C1065 C1067 1.388 . S
C1066 C1065 1.366 1_455 S
C1066 C1070 1.385 . S
C1067 H1042 0.951 . S
C1067 C1065 1.388 . S
C1067 C1068 1.366 . S
C1068 C1067 1.366 . S
C1068 C1069 1.414 1_655 S
C1068 C1071 1.499 . S
C1069 H1043 0.950 1_556 S
C1069 C1068 1.414 1_455 S
C1069 C1070 1.374 . S
C1070 H1044 0.950 . S
C1070 C1066 1.385 . S
C1070 C1069 1.374 . S
C1071 C1068 1.499 . S
C1071 C1072 1.373 1_556 S
C1071 C1073 1.377 1_655 S
C1072 H1045 0.950 . S
C1072 C1058 1.377 . S
C1072 C1071 1.373 1_554 S
C1073 C1057 1.366 1_456 S
C1073 C1071 1.377 1_455 S
C1073 C1074 1.552 . S
C1074 C1073 1.552 . S
C1074 C1075 1.397 . S
C1074 C1079 1.363 . S
C1075 H1046 0.950 . S
C1075 C1074 1.397 . S
C1075 C1076 1.334 . S
C1076 H1047 0.950 . S
C1076 C1075 1.334 . S
C1076 C1077 1.287 . S
C1077 C1076 1.287 . S
C1077 C1078 1.524 . S
C1077 H1080 0.999 . S
C1078 H1048 0.950 . S
C1078 C1077 1.524 . S
C1078 C1079 1.415 . S
C1079 H1049 0.950 1_455 S
C1079 C1074 1.363 . S
C1079 C1078 1.415 . S
H1080 C1077 0.999 . S
H1081 C1062 0.913 . S
H1082 C1100 0.951 . S
H1083 C1102 0.951 . S
H1084 C1104 0.950 1_545 S
H1085 C1105 0.950 1_545 S
H1086 C1107 0.962 . S
H1087 C1110 0.950 . S
H1088 C1111 0.950 . S
H1089 C1113 0.950 . S
H1090 C1114 0.950 . S
H1091 C1115 0.951 . S
H1092 C1117 0.951 . S
H1093 C1119 0.950 . S
H1094 C1120 0.950 . S
H1095 C1122 0.950 . S
H1096 C1125 0.950 1_565 S
H1097 C1126 0.950 . S
H1098 C1128 0.950 . S
H1099 C1129 0.950 . S
C1100 H1082 0.951 . S
C1100 C1101 1.366 . S
C1100 C1102 1.388 . S
C1101 C1100 1.366 . S
C1101 C1105 1.385 . S
C1102 H1083 0.951 . S
C1102 C1100 1.388 . S
C1102 C1103 1.366 . S
C1103 C1102 1.366 . S
C1103 C1104 1.414 . S
C1103 C1106 1.499 . S
C1104 H1084 0.950 1_565 S
C1104 C1103 1.414 . S
C1104 C1105 1.374 . S
C1105 H1085 0.950 1_565 S
C1105 C1101 1.385 . S
C1105 C1104 1.374 . S
C1106 C1103 1.499 . S
C1106 C1107 1.358 1_565 S
C1106 C1108 1.389 . S
C1107 H1086 0.962 . S
C1107 C1106 1.358 1_545 S
C1107 C1123 1.381 . S
C1108 C1106 1.389 . S
C1108 C1109 1.524 1_554 S
C1108 C1122 1.377 1_554 S
C1109 C1108 1.524 1_556 S
C1109 C1110 1.397 . S
C1109 C1114 1.363 . S
C1110 H1087 0.950 . S
C1110 C1109 1.397 . S
C1110 C1111 1.334 . S
C1111 H1088 0.950 . S
C1111 C1110 1.334 . S
C1111 C1112 1.287 . S
C1112 C1111 1.287 . S
C1112 C1113 1.524 . S
C1112 H1131 0.913 . S
C1113 H1089 0.950 . S
C1113 C1112 1.524 . S
C1113 C1114 1.415 . S
C1114 H1090 0.950 . S
C1114 C1109 1.363 . S
C1114 C1113 1.415 . S
C1115 H1091 0.951 . S
C1115 C1116 1.366 . S
C1115 C1117 1.388 . S
C1116 C1115 1.366 . S
C1116 C1120 1.385 1_545 S
C1117 H1092 0.951 . S
C1117 C1115 1.388 . S
C1117 C1118 1.314 1_545 S
C1118 C1117 1.314 1_565 S
C1118 C1119 1.455 . S
C1118 C1121 1.512 . S
C1119 H1093 0.950 . S
C1119 C1118 1.455 . S
C1119 C1120 1.374 . S
C1120 H1094 0.950 . S
C1120 C1116 1.385 1_565 S
C1120 C1119 1.374 . S
C1121 C1118 1.512 . S
C1121 C1122 1.373 . S
C1121 C1123 1.389 1_566 S
C1122 H1095 0.950 . S
C1122 C1108 1.377 1_556 S
C1122 C1121 1.373 . S
C1123 C1107 1.381 . S
C1123 C1121 1.389 1_544 S
C1123 C1124 1.524 . S
C1124 C1123 1.524 . S
C1124 C1125 1.397 . S
C1124 C1129 1.363 . S
C1125 H1096 0.950 1_545 S
C1125 C1124 1.397 . S
C1125 C1126 1.334 . S
C1126 H1097 0.950 . S
C1126 C1125 1.334 . S
C1126 C1127 1.287 . S
C1127 C1126 1.287 . S
C1127 C1128 1.524 . S
C1127 H1130 0.999 . S
C1128 H1098 0.950 . S
C1128 C1127 1.524 . S
C1128 C1129 1.415 . S
C1129 H1099 0.950 . S
C1129 C1124 1.363 . S
C1129 C1128 1.415 . S
H1130 C1127 0.999 . S
H1131 C1112 0.913 . S
H1132 C1150 0.951 . S
H1133 C1152 0.951 . S
H1134 C1154 0.950 . S
H1135 C1155 0.950 . S
H1136 C1157 0.950 . S
H1137 C1160 0.950 . S
H1138 C1161 0.950 . S
H1139 C1163 0.950 . S
H1140 C1164 0.950 . S
H1141 C1165 0.951 . S
H1142 C1167 0.951 . S
H1143 C1169 0.950 . S
H1144 C1170 0.950 . S
H1145 C1172 0.950 . S
H1146 C1175 0.950 . S
H1147 C1176 0.950 . S
H1148 C1178 0.950 . S
H1149 C1179 0.950 . S
C1150 H1132 0.951 . S
C1150 C1151 1.366 . S
C1150 C1152 1.388 . S
C1151 C1150 1.366 . S
C1151 C1155 1.385 . S
C1152 H1133 0.951 . S
C1152 C1150 1.388 . S
C1152 C1153 1.366 . S
C1153 C1152 1.366 . S
C1153 C1154 1.414 . S
C1153 C1156 1.499 . S
C1154 H1134 0.950 . S
C1154 C1153 1.414 . S
C1154 C1155 1.374 . S
C1155 H1135 0.950 . S
C1155 C1151 1.385 . S
C1155 C1154 1.374 . S
C1156 C1153 1.499 . S
C1156 C1157 1.373 . S
C1156 C1158 1.389 . S
C1157 H1136 0.950 . S
C1157 C1156 1.373 . S
C1157 C1173 1.377 . S
C1158 C1156 1.389 . S
C1158 C1159 1.524 . S
C1158 C1172 1.377 1_554 S
C1159 C1158 1.524 . S
C1159 C1160 1.397 1_554 S
C1159 C1164 1.363 . S
C1160 H1137 0.950 . S
C1160 C1159 1.397 1_556 S
C1160 C1161 1.334 . S
C1161 H1138 0.950 . S
C1161 C1160 1.334 . S
C1161 C1162 1.287 . S
C1162 C1161 1.287 . S
C1162 C1163 1.524 1_556 S
C1162 H1181 0.913 . S
C1163 H1139 0.950 . S
C1163 C1162 1.524 1_554 S
C1163 C1164 1.415 . S
C1164 H1140 0.950 . S
C1164 C1159 1.363 . S
C1164 C1163 1.415 . S
C1165 H1141 0.951 . S
C1165 C1166 1.366 . S
C1165 C1167 1.388 . S
C1166 C1165 1.366 . S
C1166 C1170 1.385 . S
C1167 H1142 0.951 . S
C1167 C1165 1.388 . S
C1167 C1168 1.366 . S
C1168 C1167 1.366 . S
C1168 C1169 1.414 . S
C1168 C1171 1.499 . S
C1169 H1143 0.950 . S
C1169 C1168 1.414 . S
C1169 C1170 1.374 . S
C1170 H1144 0.950 . S
C1170 C1166 1.385 . S
C1170 C1169 1.374 . S
C1171 C1168 1.499 . S
C1171 C1172 1.373 . S
C1171 C1173 1.389 1_556 S
C1172 H1145 0.950 . S
C1172 C1158 1.377 1_556 S
C1172 C1171 1.373 . S
C1173 C1157 1.377 . S
C1173 C1171 1.389 1_554 S
C1173 C1174 1.524 . S
C1174 C1173 1.524 . S
C1174 C1175 1.397 . S
C1174 C1179 1.363 . S
C1175 H1146 0.950 . S
C1175 C1174 1.397 . S
C1175 C1176 1.334 . S
C1176 H1147 0.950 . S
C1176 C1175 1.334 . S
C1176 C1177 1.287 . S
C1177 C1176 1.287 . S
C1177 C1178 1.524 . S
C1177 H1180 0.999 . S
C1178 H1148 0.950 . S
C1178 C1177 1.524 . S
C1178 C1179 1.415 . S
C1179 H1149 0.950 . S
C1179 C1174 1.363 . S
C1179 C1178 1.415 . S
H1180 C1177 0.999 . S
H1181 C1162 0.913 . S
H1182 C1200 0.951 . S
H1183 C1202 0.951 . S
H1184 C1204 0.950 . S
H1185 C1205 0.950 . S
H1186 C1207 0.950 . S
H1187 C1210 0.950 . S
H1188 C1211 0.950 . S
H1189 C1213 0.950 . S
H1190 C1214 0.950 . S
H1191 C1215 0.951 . S
H1192 C1217 0.951 . S
H1193 C1219 0.950 1_554 S
H1194 C1220 0.950 . S
H1195 C1222 0.950 . S
H1196 C1225 0.950 1_554 S
H1197 C1226 0.950 . S
H1198 C1228 0.950 . S
H1199 C1229 0.950 . S
C1200 H1182 0.951 . S
C1200 C1201 1.366 . S
C1200 C1202 1.388 . S
C1201 C1200 1.366 . S
C1201 C1205 1.385 . S
C1202 H1183 0.951 . S
C1202 C1200 1.388 . S
C1202 C1203 1.366 . S
C1203 C1202 1.366 . S
C1203 C1204 1.414 . S
C1203 C1206 1.499 . S
C1204 H1184 0.950 . S
C1204 C1203 1.414 . S
C1204 C1205 1.374 . S
C1205 H1185 0.950 . S
C1205 C1201 1.385 . S
C1205 C1204 1.374 . S
C1206 C1203 1.499 . S
C1206 C1207 1.373 . S
C1206 C1208 1.389 . S
C1207 H1186 0.950 . S
C1207 C1206 1.373 . S
C1207 C1223 1.377 1_554 S
C1208 C1206 1.389 . S
C1208 C1209 1.524 . S
C1208 C1222 1.377 . S
C1209 C1208 1.524 . S
C1209 C1210 1.397 . S
C1209 C1214 1.363 . S
C1210 H1187 0.950 . S
C1210 C1209 1.397 . S
C1210 C1211 1.334 . S
C1211 H1188 0.950 . S
C1211 C1210 1.334 . S
C1211 C1212 1.287 . S
C1212 C1211 1.287 . S
C1212 C1213 1.524 . S
C1212 H1231 0.913 . S
C1213 H1189 0.950 . S
C1213 C1212 1.524 . S
C1213 C1214 1.415 . S
C1214 H1190 0.950 . S
C1214 C1209 1.363 . S
C1214 C1213 1.415 . S
C1215 H1191 0.951 . S
C1215 C1216 1.366 . S
C1215 C1217 1.388 . S
C1216 C1215 1.366 . S
C1216 C1220 1.385 . S
C1217 H1192 0.951 . S
C1217 C1215 1.388 . S
C1217 C1218 1.366 . S
C1218 C1217 1.366 . S
C1218 C1219 1.414 . S
C1218 C1221 1.499 . S
C1219 H1193 0.950 1_556 S
C1219 C1218 1.414 . S
C1219 C1220 1.374 . S
C1220 H1194 0.950 . S
C1220 C1216 1.385 . S
C1220 C1219 1.374 . S
C1221 C1218 1.499 . S
C1221 C1222 1.373 1_556 S
C1221 C1223 1.389 . S
C1222 H1195 0.950 . S
C1222 C1208 1.377 . S
C1222 C1221 1.373 1_554 S
C1223 C1207 1.377 1_556 S
C1223 C1221 1.389 . S
C1223 C1224 1.524 . S
C1224 C1223 1.524 . S
C1224 C1225 1.397 . S
C1224 C1229 1.363 . S
C1225 H1196 0.950 1_556 S
C1225 C1224 1.397 . S
C1225 C1226 1.334 . S
C1226 H1197 0.950 . S
C1226 C1225 1.334 . S
C1226 C1227 1.287 . S
C1227 C1226 1.287 . S
C1227 C1228 1.524 . S
C1227 H1230 0.999 . S
C1228 H1198 0.950 . S
C1228 C1227 1.524 . S
C1228 C1229 1.415 . S
C1229 H1199 0.950 . S
C1229 C1224 1.363 . S
C1229 C1228 1.415 . S
H1230 C1227 0.999 . S
H1231 C1212 0.913 . S
H1232 C1250 0.951 . S
H1233 C1252 0.951 . S
H1234 C1254 0.950 . S
H1235 C1255 0.950 . S
H1236 C1257 0.950 . S
H1237 C1260 0.950 1_455 S
H1238 C1261 0.950 1_554 S
H1239 C1263 0.950 . S
H1240 C1264 0.950 . S
H1241 C1265 0.951 . S
H1242 C1267 0.951 . S
H1243 C1269 0.950 1_655 S
H1244 C1270 0.950 1_655 S
H1245 C1272 0.950 1_655 S
H1246 C1275 0.950 . S
H1247 C1276 0.950 . S
H1248 C1278 0.950 . S
H1249 C1279 0.950 . S
C1250 H1232 0.951 . S
C1250 C1251 1.366 . S
C1250 C1252 1.388 . S
C1251 C1250 1.366 . S
C1251 C1255 1.385 . S
C1252 H1233 0.951 . S
C1252 C1250 1.388 . S
C1252 C1253 1.366 . S
C1253 C1252 1.366 . S
C1253 C1254 1.414 . S
C1253 C1256 1.499 . S
C1254 H1234 0.950 . S
C1254 C1253 1.414 . S
C1254 C1255 1.374 . S
C1255 H1235 0.950 . S
C1255 C1251 1.385 . S
C1255 C1254 1.374 . S
C1256 C1253 1.499 . S
C1256 C1257 1.373 . S
C1256 C1258 1.389 . S
C1257 H1236 0.950 . S
C1257 C1256 1.373 . S
C1257 C1273 1.377 . S
C1258 C1256 1.389 . S
C1258 C1259 1.524 1_455 S
C1258 C1272 1.377 . S
C1259 C1258 1.524 1_655 S
C1259 C1260 1.397 . S
C1259 C1264 1.363 . S
C1260 H1237 0.950 1_655 S
C1260 C1259 1.397 . S
C1260 C1261 1.334 . S
C1261 H1238 0.950 1_556 S
C1261 C1260 1.334 . S
C1261 C1262 1.287 . S
C1262 C1261 1.287 . S
C1262 C1263 1.524 . S
C1262 H1281 0.913 . S
C1263 H1239 0.950 . S
C1263 C1262 1.524 . S
C1263 C1264 1.415 . S
C1264 H1240 0.950 . S
C1264 C1259 1.363 . S
C1264 C1263 1.415 . S
C1265 H1241 0.951 . S
C1265 C1266 1.366 . S
C1265 C1267 1.388 . S
C1266 C1265 1.366 . S
C1266 C1270 1.385 . S
C1267 H1242 0.951 . S
C1267 C1265 1.388 . S
C1267 C1268 1.366 . S
C1268 C1267 1.366 . S
C1268 C1269 1.414 . S
C1268 C1271 1.499 . S
C1269 H1243 0.950 1_455 S
C1269 C1268 1.414 . S
C1269 C1270 1.374 . S
C1270 H1244 0.950 1_455 S
C1270 C1266 1.385 . S
C1270 C1269 1.374 . S
C1271 C1268 1.499 . S
C1271 C1272 1.373 . S
C1271 C1273 1.389 . S
C1272 H1245 0.950 1_455 S
C1272 C1258 1.377 . S
C1272 C1271 1.373 . S
C1273 C1257 1.377 . S
C1273 C1271 1.389 . S
C1273 C1274 1.524 . S
C1274 C1273 1.524 . S
C1274 C1275 1.397 . S
C1274 C1279 1.363 . S
C1275 H1246 0.950 . S
C1275 C1274 1.397 . S
C1275 C1276 1.334 . S
C1276 H1247 0.950 . S
C1276 C1275 1.334 . S
C1276 C1277 1.287 . S
C1277 C1276 1.287 . S
C1277 C1278 1.524 . S
C1277 H1280 0.999 . S
C1278 H1248 0.950 . S
C1278 C1277 1.524 . S
C1278 C1279 1.415 . S
C1279 H1249 0.950 . S
C1279 C1274 1.363 . S
C1279 C1278 1.415 . S
H1280 C1277 0.999 . S
H1281 C1262 0.913 . S
H1282 C1300 0.951 . S
H1283 C1302 0.951 . S
H1284 C1304 0.950 . S
H1285 C1305 0.950 . S
H1286 C1307 0.950 . S
H1287 C1310 0.950 . S
H1288 C1311 0.950 . S
H1289 C1313 0.950 . S
H1290 C1314 0.950 1_565 S
H1291 C1315 0.951 . S
H1292 C1317 0.951 . S
H1293 C1319 0.950 1_565 S
H1294 C1320 0.950 1_565 S
H1295 C1322 0.950 . S
H1296 C1325 0.950 . S
H1297 C1326 0.950 . S
H1298 C1328 0.950 . S
H1299 C1329 0.950 . S
C1300 H1282 0.951 . S
C1300 C1301 1.366 . S
C1300 C1302 1.388 . S
C1301 C1300 1.366 . S
C1301 C1305 1.385 . S
C1302 H1283 0.951 . S
C1302 C1300 1.388 . S
C1302 C1303 1.366 . S
C1303 C1302 1.366 . S
C1303 C1304 1.414 . S
C1303 C1306 1.499 . S
C1304 H1284 0.950 . S
C1304 C1303 1.414 . S
C1304 C1305 1.374 . S
C1305 H1285 0.950 . S
C1305 C1301 1.385 . S
C1305 C1304 1.374 . S
C1306 C1303 1.499 . S
C1306 C1307 1.373 . S
C1306 C1308 1.389 . S
C1307 H1286 0.950 . S
C1307 C1306 1.373 . S
C1307 C1323 1.377 . S
C1308 C1306 1.389 . S
C1308 C1309 1.524 . S
C1308 C1322 1.377 . S
C1309 C1308 1.524 . S
C1309 C1310 1.397 . S
C1309 C1314 1.363 . S
C1310 H1287 0.950 . S
C1310 C1309 1.397 . S
C1310 C1311 1.334 1_556 S
C1311 H1288 0.950 . S
C1311 C1310 1.334 1_554 S
C1311 C1312 1.287 . S
C1312 C1311 1.287 . S
C1312 C1313 1.524 1_545 S
C1312 H1331 0.913 . S
C1313 H1289 0.950 . S
C1313 C1312 1.524 1_565 S
C1313 C1314 1.415 1_564 S
C1314 H1290 0.950 1_545 S
C1314 C1309 1.363 . S
C1314 C1313 1.415 1_546 S
C1315 H1291 0.951 . S
C1315 C1316 1.366 . S
C1315 C1317 1.388 . S
C1316 C1315 1.366 . S
C1316 C1320 1.385 . S
C1317 H1292 0.951 . S
C1317 C1315 1.388 . S
C1317 C1318 1.366 . S
C1318 C1317 1.366 . S
C1318 C1319 1.414 . S
C1318 C1321 1.499 . S
C1319 H1293 0.950 1_545 S
C1319 C1318 1.414 . S
C1319 C1320 1.374 . S
C1320 H1294 0.950 1_545 S
C1320 C1316 1.385 . S
C1320 C1319 1.374 . S
C1321 C1318 1.499 . S
C1321 C1322 1.373 . S
C1321 C1323 1.389 . S
C1322 H1295 0.950 . S
C1322 C1308 1.377 . S
C1322 C1321 1.373 . S
C1323 C1307 1.377 . S
C1323 C1321 1.389 . S
C1323 C1324 1.524 . S
C1324 C1323 1.524 . S
C1324 C1325 1.397 . S
C1324 C1329 1.363 . S
C1325 H1296 0.950 . S
C1325 C1324 1.397 . S
C1325 C1326 1.334 . S
C1326 H1297 0.950 . S
C1326 C1325 1.334 . S
C1326 C1327 1.287 . S
C1327 C1326 1.287 . S
C1327 C1328 1.524 . S
C1327 H1330 0.999 . S
C1328 H1298 0.950 . S
C1328 C1327 1.524 . S
C1328 C1329 1.415 . S
C1329 H1299 0.950 . S
C1329 C1324 1.363 . S
C1329 C1328 1.415 . S
H1330 C1327 0.999 . S
H1331 C1312 0.913 . S
H1332 C1350 0.951 . S
H1333 C1352 0.951 . S
H1334 C1354 0.950 . S
H1335 C1355 0.950 . S
H1336 C1357 0.950 . S
H1337 C1360 0.950 . S
H1338 C1361 0.950 . S
H1339 C1363 0.950 . S
H1340 C1364 0.950 . S
H1341 C1365 0.951 . S
H1342 C1367 0.951 . S
H1343 C1369 0.950 . S
H1344 C1370 0.950 . S
H1345 C1372 0.950 . S
H1346 C1375 0.950 . S
H1347 C1376 0.950 . S
H1348 C1378 0.950 . S
H1349 C1379 0.950 . S
C1350 H1332 0.951 . S
C1350 C1351 1.366 . S
C1350 C1352 1.388 . S
C1351 C1350 1.366 . S
C1351 C1355 1.385 . S
C1352 H1333 0.951 . S
C1352 C1350 1.388 . S
C1352 C1353 1.366 . S
C1353 C1352 1.366 . S
C1353 C1354 1.414 . S
C1353 C1356 1.499 . S
C1354 H1334 0.950 . S
C1354 C1353 1.414 . S
C1354 C1355 1.374 . S
C1355 H1335 0.950 . S
C1355 C1351 1.385 . S
C1355 C1354 1.374 . S
C1356 C1353 1.499 . S
C1356 C1357 1.373 . S
C1356 C1358 1.389 . S
C1357 H1336 0.950 . S
C1357 C1356 1.373 . S
C1357 C1373 1.377 . S
C1358 C1356 1.389 . S
C1358 C1359 1.524 . S
C1358 C1372 1.377 . S
C1359 C1358 1.524 . S
C1359 C1360 1.397 . S
C1359 C1364 1.363 . S
C1360 H1337 0.950 . S
C1360 C1359 1.397 . S
C1360 C1361 1.334 1_556 S
C1361 H1338 0.950 . S
C1361 C1360 1.334 1_554 S
C1361 C1362 1.287 . S
C1362 C1361 1.287 . S
C1362 C1363 1.524 . S
C1362 H1381 0.913 . S
C1363 H1339 0.950 . S
C1363 C1362 1.524 . S
C1363 C1364 1.415 1_554 S
C1364 H1340 0.950 . S
C1364 C1359 1.363 . S
C1364 C1363 1.415 1_556 S
C1365 H1341 0.951 . S
C1365 C1366 1.366 . S
C1365 C1367 1.388 . S
C1366 C1365 1.366 . S
C1366 C1370 1.385 . S
C1367 H1342 0.951 . S
C1367 C1365 1.388 . S
C1367 C1368 1.366 . S
C1368 C1367 1.366 . S
C1368 C1369 1.414 . S
C1368 C1371 1.499 . S
C1369 H1343 0.950 . S
C1369 C1368 1.414 . S
C1369 C1370 1.374 . S
C1370 H1344 0.950 . S
C1370 C1366 1.385 . S
C1370 C1369 1.374 . S
C1371 C1368 1.499 . S
C1371 C1372 1.373 . S
C1371 C1373 1.389 . S
C1372 H1345 0.950 . S
C1372 C1358 1.377 . S
C1372 C1371 1.373 . S
C1373 C1357 1.377 . S
C1373 C1371 1.389 . S
C1373 C1374 1.524 . S
C1374 C1373 1.524 . S
C1374 C1375 1.397 . S
C1374 C1379 1.363 . S
C1375 H1346 0.950 . S
C1375 C1374 1.397 . S
C1375 C1376 1.334 . S
C1376 H1347 0.950 . S
C1376 C1375 1.334 . S
C1376 C1377 1.287 . S
C1377 C1376 1.287 . S
C1377 C1378 1.524 . S
C1377 H1380 0.999 . S
C1378 H1348 0.950 . S
C1378 C1377 1.524 . S
C1378 C1379 1.415 . S
C1379 H1349 0.950 . S
C1379 C1374 1.363 . S
C1379 C1378 1.415 . S
H1380 C1377 0.999 . S
H1381 C1362 0.913 . S
H1382 C1400 0.951 . S
H1383 C1402 0.951 . S
H1384 C1404 0.950 . S
H1385 C1405 0.950 . S
H1386 C1407 0.950 . S
H1387 C1410 0.950 . S
H1388 C1411 0.950 . S
H1389 C1413 0.950 1_554 S
H1390 C1414 0.950 . S
H1391 C1415 0.951 . S
H1392 C1417 0.951 . S
H1393 C1419 0.950 . S
H1394 C1420 0.950 . S
H1395 C1422 0.950 . S
H1396 C1425 0.950 . S
H1397 C1426 0.950 . S
H1398 C1428 0.950 . S
H1399 C1429 0.950 . S
C1400 H1382 0.951 . S
C1400 C1401 1.366 . S
C1400 C1402 1.388 . S
C1401 C1400 1.366 . S
C1401 C1405 1.385 . S
C1402 H1383 0.951 . S
C1402 C1400 1.388 . S
C1402 C1403 1.366 . S
C1403 C1402 1.366 . S
C1403 C1404 1.414 . S
C1403 C1406 1.499 . S
C1404 H1384 0.950 . S
C1404 C1403 1.414 . S
C1404 C1405 1.374 . S
C1405 H1385 0.950 . S
C1405 C1401 1.385 . S
C1405 C1404 1.374 . S
C1406 C1403 1.499 . S
C1406 C1407 1.373 . S
C1406 C1408 1.389 . S
C1407 H1386 0.950 . S
C1407 C1406 1.373 . S
C1407 C1423 1.377 . S
C1408 C1406 1.389 . S
C1408 C1409 1.524 . S
C1408 C1422 1.377 . S
C1409 C1408 1.524 . S
C1409 C1410 1.397 . S
C1409 C1414 1.363 . S
C1410 H1387 0.950 . S
C1410 C1409 1.397 . S
C1410 C1411 1.334 . S
C1411 H1388 0.950 . S
C1411 C1410 1.334 . S
C1411 C1412 1.287 . S
C1412 C1411 1.287 . S
C1412 C1413 1.524 . S
C1412 H1431 0.913 . S
C1413 H1389 0.950 1_556 S
C1413 C1412 1.524 . S
C1413 C1414 1.415 . S
C1414 H1390 0.950 . S
C1414 C1409 1.363 . S
C1414 C1413 1.415 . S
C1415 H1391 0.951 . S
C1415 C1416 1.366 . S
C1415 C1417 1.388 . S
C1416 C1415 1.366 . S
C1416 C1420 1.385 . S
C1417 H1392 0.951 . S
C1417 C1415 1.388 . S
C1417 C1418 1.366 . S
C1418 C1417 1.366 . S
C1418 C1419 1.414 . S
C1418 C1421 1.499 . S
C1419 H1393 0.950 . S
C1419 C1418 1.414 . S
C1419 C1420 1.374 . S
C1420 H1394 0.950 . S
C1420 C1416 1.385 . S
C1420 C1419 1.374 . S
C1421 C1418 1.499 . S
C1421 C1422 1.373 . S
C1421 C1423 1.389 . S
C1422 H1395 0.950 . S
C1422 C1408 1.377 . S
C1422 C1421 1.373 . S
C1423 C1407 1.377 . S
C1423 C1421 1.389 . S
C1423 C1424 1.524 . S
C1424 C1423 1.524 . S
C1424 C1425 1.397 . S
C1424 C1429 1.363 . S
C1425 H1396 0.950 . S
C1425 C1424 1.397 . S
C1425 C1426 1.334 . S
C1426 H1397 0.950 . S
C1426 C1425 1.334 . S
C1426 C1427 1.287 . S
C1427 C1426 1.287 . S
C1427 C1428 1.524 . S
C1427 H1430 0.999 . S
C1428 H1398 0.950 . S
C1428 C1427 1.524 . S
C1428 C1429 1.415 . S
C1429 H1399 0.950 . S
C1429 C1424 1.363 . S
C1429 C1428 1.415 . S
H1430 C1427 0.999 . S
H1431 C1412 0.913 . S
H1432 C1450 0.951 . S
H1433 C1452 0.951 . S
H1434 C1454 0.950 . S
H1435 C1455 0.950 . S
H1436 C1457 0.966 . S
H1437 C1460 0.950 . S
H1438 C1461 0.950 . S
H1439 C1463 0.950 . S
H1440 C1464 0.950 . S
H1441 C1465 0.954 . S
H1442 C1467 0.951 1_455 S
H1443 C1469 0.950 . S
H1444 C1470 0.950 . S
H1445 C1472 0.950 . S
H1446 C1475 0.950 . S
H1447 C1476 0.950 . S
H1448 C1478 0.950 . S
H1449 C1479 0.950 . S
C1450 H1432 0.951 . S
C1450 C1451 1.366 . S
C1450 C1452 1.388 . S
C1451 C1450 1.366 . S
C1451 C1455 1.385 . S
C1452 H1433 0.951 . S
C1452 C1450 1.388 . S
C1452 C1453 1.366 . S
C1453 C1452 1.366 . S
C1453 C1454 1.414 . S
C1453 C1456 1.499 . S
C1454 H1434 0.950 . S
C1454 C1453 1.414 . S
C1454 C1455 1.374 . S
C1455 H1435 0.950 . S
C1455 C1451 1.385 . S
C1455 C1454 1.374 . S
C1456 C1453 1.499 . S
C1456 C1457 1.355 1_655 S
C1456 C1458 1.389 . S
C1457 H1436 0.966 . S
C1457 C1456 1.355 1_455 S
C1457 C1473 1.380 . S
C1458 C1456 1.389 . S
C1458 C1459 1.524 . S
C1458 C1472 1.377 . S
C1459 C1458 1.524 . S
C1459 C1460 1.397 . S
C1459 C1464 1.363 . S
C1460 H1437 0.950 . S
C1460 C1459 1.397 . S
C1460 C1461 1.334 . S
C1461 H1438 0.950 . S
C1461 C1460 1.334 . S
C1461 C1462 1.287 . S
C1462 C1461 1.287 . S
C1462 C1463 1.524 . S
C1462 H1481 0.913 . S
C1463 H1439 0.950 . S
C1463 C1462 1.524 . S
C1463 C1464 1.415 . S
C1464 H1440 0.950 . S
C1464 C1459 1.363 . S
C1464 C1463 1.415 . S
C1465 H1441 0.954 . S
C1465 C1466 1.364 1_455 S
C1465 C1467 1.387 1_455 S
C1466 C1465 1.364 1_655 S
C1466 C1470 1.385 . S
C1467 H1442 0.951 1_655 S
C1467 C1465 1.387 1_655 S
C1467 C1468 1.366 . S
C1468 C1467 1.366 . S
C1468 C1469 1.414 . S
C1468 C1471 1.499 . S
C1469 H1443 0.950 . S
C1469 C1468 1.414 . S
C1469 C1470 1.374 . S
C1470 H1444 0.950 . S
C1470 C1466 1.385 . S
C1470 C1469 1.374 . S
C1471 C1468 1.499 . S
C1471 C1472 1.373 . S
C1471 C1473 1.389 1_655 S
C1472 H1445 0.950 . S
C1472 C1458 1.377 . S
C1472 C1471 1.373 . S
C1473 C1457 1.380 . S
C1473 C1471 1.389 1_455 S
C1473 C1474 1.524 . S
C1474 C1473 1.524 . S
C1474 C1475 1.397 . S
C1474 C1479 1.363 . S
C1475 H1446 0.950 . S
C1475 C1474 1.397 . S
C1475 C1476 1.334 . S
C1476 H1447 0.950 . S
C1476 C1475 1.334 . S
C1476 C1477 1.287 . S
C1477 C1476 1.287 . S
C1477 C1478 1.524 . S
C1477 H1480 0.999 . S
C1478 H1448 0.950 . S
C1478 C1477 1.524 . S
C1478 C1479 1.415 . S
C1479 H1449 0.950 . S
C1479 C1474 1.363 . S
C1479 C1478 1.415 . S
H1480 C1477 0.999 . S
H1481 C1462 0.913 . S
H1482 C1500 0.951 . S
H1483 C1502 0.951 1_545 S
H1484 C1504 0.950 . S
H1485 C1505 0.950 . S
H1486 C1507 0.950 . S
H1487 C1510 0.950 . S
H1488 C1511 0.950 . S
H1489 C1513 0.950 . S
H1490 C1514 0.915 1_545 S
H1491 C1515 0.951 . S
H1492 C1517 0.951 . S
H1493 C1519 0.950 . S
H1494 C1520 0.950 . S
H1495 C1522 0.950 . S
H1496 C1525 0.950 . S
H1497 C1526 0.950 . S
H1498 C1528 0.950 . S
H1499 C1529 0.950 . S
C1500 H1482 0.951 . S
C1500 C1501 1.366 . S
C1500 C1502 1.388 . S
C1501 C1500 1.366 . S
C1501 C1505 1.385 . S
C1502 H1483 0.951 1_565 S
C1502 C1500 1.388 . S
C1502 C1503 1.366 . S
C1503 C1502 1.366 . S
C1503 C1504 1.414 . S
C1503 C1506 1.499 . S
C1504 H1484 0.950 . S
C1504 C1503 1.414 . S
C1504 C1505 1.374 . S
C1505 H1485 0.950 . S
C1505 C1501 1.385 . S
C1505 C1504 1.374 . S
C1506 C1503 1.499 . S
C1506 C1507 1.373 . S
C1506 C1508 1.389 . S
C1507 H1486 0.950 . S
C1507 C1506 1.373 . S
C1507 C1523 1.377 . S
C1508 C1506 1.389 . S
C1508 C1509 1.524 . S
C1508 C1522 1.377 . S
C1509 C1508 1.524 . S
C1509 C1510 1.397 . S
C1509 C1514 1.363 . S
C1510 H1487 0.950 . S
C1510 C1509 1.397 . S
C1510 C1511 1.334 . S
C1511 H1488 0.950 . S
C1511 C1510 1.334 . S
C1511 C1512 1.287 . S
C1512 C1511 1.287 . S
C1512 C1513 1.524 . S
C1512 H1531 0.913 . S
C1513 H1489 0.950 . S
C1513 C1512 1.524 . S
C1513 C1514 1.415 . S
C1514 H1490 0.915 1_565 S
C1514 C1509 1.363 . S
C1514 C1513 1.415 . S
C1515 H1491 0.951 . S
C1515 C1516 1.366 . S
C1515 C1517 1.388 . S
C1516 C1515 1.366 . S
C1516 C1520 1.385 1_565 S
C1517 H1492 0.951 . S
C1517 C1515 1.388 . S
C1517 C1518 1.366 . S
C1518 C1517 1.366 . S
C1518 C1519 1.414 1_565 S
C1518 C1521 1.499 . S
C1519 H1493 0.950 . S
C1519 C1518 1.414 1_545 S
C1519 C1520 1.374 . S
C1520 H1494 0.950 . S
C1520 C1516 1.385 1_545 S
C1520 C1519 1.374 . S
C1521 C1518 1.499 . S
C1521 C1522 1.373 . S
C1521 C1523 1.389 . S
C1522 H1495 0.950 . S
C1522 C1508 1.377 . S
C1522 C1521 1.373 . S
C1523 C1507 1.377 . S
C1523 C1521 1.389 . S
C1523 C1524 1.524 . S
C1524 C1523 1.524 . S
C1524 C1525 1.397 1_565 S
C1524 C1529 1.363 . S
C1525 H1496 0.950 . S
C1525 C1524 1.397 1_545 S
C1525 C1526 1.334 . S
C1526 H1497 0.950 . S
C1526 C1525 1.334 . S
C1526 C1527 1.287 . S
C1527 C1526 1.287 . S
C1527 C1528 1.524 1_545 S
C1527 H1530 0.999 . S
C1528 H1498 0.950 . S
C1528 C1527 1.524 1_565 S
C1528 C1529 1.415 . S
C1529 H1499 0.950 . S
C1529 C1524 1.363 . S
C1529 C1528 1.415 . S
H1530 C1527 0.999 . S
H1531 C1512 0.913 . S
H1532 C1550 0.951 . S
H1533 C1552 0.951 . S
H1534 C1554 0.950 . S
H1535 C1555 0.950 . S
H1536 C1557 0.950 . S
H1537 C1560 0.950 . S
H1538 C1561 0.950 . S
H1539 C1563 0.950 . S
H1540 C1564 0.950 . S
H1541 C1565 0.951 . S
H1542 C1567 0.951 . S
H1543 C1569 0.950 . S
H1544 C1570 0.950 . S
H1545 C1572 0.950 . S
H1546 C1575 0.950 . S
H1547 C1576 0.950 . S
H1548 C1578 0.950 . S
H1549 C1579 0.950 . S
C1550 H1532 0.951 . S
C1550 C1551 1.366 . S
C1550 C1552 1.388 . S
C1551 C1550 1.366 . S
C1551 C1555 1.385 . S
C1552 H1533 0.951 . S
C1552 C1550 1.388 . S
C1552 C1553 1.366 . S
C1553 C1552 1.366 . S
C1553 C1554 1.414 . S
C1553 C1556 1.499 . S
C1554 H1534 0.950 . S
C1554 C1553 1.414 . S
C1554 C1555 1.374 . S
C1555 H1535 0.950 . S
C1555 C1551 1.385 . S
C1555 C1554 1.374 . S
C1556 C1553 1.499 . S
C1556 C1557 1.373 . S
C1556 C1558 1.389 . S
C1557 H1536 0.950 . S
C1557 C1556 1.373 . S
C1557 C1573 1.377 . S
C1558 C1556 1.389 . S
C1558 C1559 1.524 . S
C1558 C1572 1.377 . S
C1559 C1558 1.524 . S
C1559 C1560 1.397 . S
C1559 C1564 1.363 . S
C1560 H1537 0.950 . S
C1560 C1559 1.397 . S
C1560 C1561 1.334 . S
C1561 H1538 0.950 . S
C1561 C1560 1.334 . S
C1561 C1562 1.287 . S
C1562 C1561 1.287 . S
C1562 C1563 1.524 . S
C1562 H1581 0.913 . S
C1563 H1539 0.950 . S
C1563 C1562 1.524 . S
C1563 C1564 1.415 . S
C1564 H1540 0.950 . S
C1564 C1559 1.363 . S
C1564 C1563 1.415 . S
C1565 H1541 0.951 . S
C1565 C1566 1.366 . S
C1565 C1567 1.388 . S
C1566 C1565 1.366 . S
C1566 C1570 1.385 . S
C1567 H1542 0.951 . S
C1567 C1565 1.388 . S
C1567 C1568 1.366 . S
C1568 C1567 1.366 . S
C1568 C1569 1.414 . S
C1568 C1571 1.499 . S
C1569 H1543 0.950 . S
C1569 C1568 1.414 . S
C1569 C1570 1.374 . S
C1570 H1544 0.950 . S
C1570 C1566 1.385 . S
C1570 C1569 1.374 . S
C1571 C1568 1.499 . S
C1571 C1572 1.373 . S
C1571 C1573 1.389 . S
C1572 H1545 0.950 . S
C1572 C1558 1.377 . S
C1572 C1571 1.373 . S
C1573 C1557 1.377 . S
C1573 C1571 1.389 . S
C1573 C1574 1.524 . S
C1574 C1573 1.524 . S
C1574 C1575 1.397 . S
C1574 C1579 1.363 . S
C1575 H1546 0.950 . S
C1575 C1574 1.397 . S
C1575 C1576 1.334 . S
C1576 H1547 0.950 . S
C1576 C1575 1.334 . S
C1576 C1577 1.287 . S
C1577 C1576 1.287 . S
C1577 C1578 1.524 . S
C1577 H1580 0.999 . S
C1578 H1548 0.950 . S
C1578 C1577 1.524 . S
C1578 C1579 1.415 . S
C1579 H1549 0.950 . S
C1579 C1574 1.363 . S
C1579 C1578 1.415 . S
H1580 C1577 0.999 . S
H1581 C1562 0.913 . S
H1582 C1600 0.951 . S
H1583 C1602 0.951 . S
H1584 C1604 0.950 . S
H1585 C1605 0.950 . S
H1586 C1607 0.950 . S
H1587 C1610 0.950 . S
H1588 C1611 0.950 . S
H1589 C1613 0.950 . S
H1590 C1614 0.950 . S
H1591 C1615 0.951 . S
H1592 C1617 0.951 . S
H1593 C1619 0.950 . S
H1594 C1620 0.950 . S
H1595 C1622 0.950 . S
H1596 C1625 0.950 . S
H1597 C1626 0.950 . S
H1598 C1628 0.950 . S
H1599 C1629 0.950 . S
C1600 H1582 0.951 . S
C1600 C1601 1.366 . S
C1600 C1602 1.388 . S
C1601 C1600 1.366 . S
C1601 C1605 1.385 . S
C1602 H1583 0.951 . S
C1602 C1600 1.388 . S
C1602 C1603 1.366 . S
C1603 C1602 1.366 . S
C1603 C1604 1.414 . S
C1603 C1606 1.499 . S
C1604 H1584 0.950 . S
C1604 C1603 1.414 . S
C1604 C1605 1.374 . S
C1605 H1585 0.950 . S
C1605 C1601 1.385 . S
C1605 C1604 1.374 . S
C1606 C1603 1.499 . S
C1606 C1607 1.373 . S
C1606 C1608 1.389 . S
C1607 H1586 0.950 . S
C1607 C1606 1.373 . S
C1607 C1623 1.377 . S
C1608 C1606 1.389 . S
C1608 C1609 1.524 . S
C1608 C1622 1.377 . S
C1609 C1608 1.524 . S
C1609 C1610 1.397 . S
C1609 C1614 1.363 . S
C1610 H1587 0.950 . S
C1610 C1609 1.397 . S
C1610 C1611 1.334 . S
C1611 H1588 0.950 . S
C1611 C1610 1.334 . S
C1611 C1612 1.287 . S
C1612 C1611 1.287 . S
C1612 C1613 1.524 . S
C1612 H1631 0.913 . S
C1613 H1589 0.950 . S
C1613 C1612 1.524 . S
C1613 C1614 1.415 . S
C1614 H1590 0.950 . S
C1614 C1609 1.363 . S
C1614 C1613 1.415 . S
C1615 H1591 0.951 . S
C1615 C1616 1.366 . S
C1615 C1617 1.388 . S
C1616 C1615 1.366 . S
C1616 C1620 1.385 . S
C1617 H1592 0.951 . S
C1617 C1615 1.388 . S
C1617 C1618 1.366 . S
C1618 C1617 1.366 . S
C1618 C1619 1.414 . S
C1618 C1621 1.499 . S
C1619 H1593 0.950 . S
C1619 C1618 1.414 . S
C1619 C1620 1.374 . S
C1620 H1594 0.950 . S
C1620 C1616 1.385 . S
C1620 C1619 1.374 . S
C1621 C1618 1.499 . S
C1621 C1622 1.373 . S
C1621 C1623 1.389 . S
C1622 H1595 0.950 . S
C1622 C1608 1.377 . S
C1622 C1621 1.373 . S
C1623 C1607 1.377 . S
C1623 C1621 1.389 . S
C1623 C1624 1.524 . S
C1624 C1623 1.524 . S
C1624 C1625 1.397 . S
C1624 C1629 1.363 . S
C1625 H1596 0.950 . S
C1625 C1624 1.397 . S
C1625 C1626 1.334 . S
C1626 H1597 0.950 . S
C1626 C1625 1.334 . S
C1626 C1627 1.287 . S
C1627 C1626 1.287 . S
C1627 C1628 1.524 . S
C1627 H1630 0.999 . S
C1628 H1598 0.950 . S
C1628 C1627 1.524 . S
C1628 C1629 1.415 . S
C1629 H1599 0.950 . S
C1629 C1624 1.363 . S
C1629 C1628 1.415 . S
H1630 C1627 0.999 . S
H1631 C1612 0.913 . S
C451 C76 1.833 . S
C466 C159 1.941 . S
C516 C236 1.961 . S
C501 C88 1.839 . S
C566 C327 1.930 . S
C551 C52 1.821 . S
C616 C411 1.920 . S
C601 C64 1.811 . S
C666 C170 1.944 . S
C651 C28 1.840 . S
C701 C40 1.846 . S
C716 C247 1.961 . S
C751 C4 1.826 . S
C766 C338 1.929 . S
C801 C16 1.819 . S
C816 C422 1.920 1_655 S
C866 C154 0.551 1_455 S
C851 C69 0.461 . S
C916 C249 0.545 . S
C901 C81 0.435 . S
C966 C322 0.549 . S
C951 C93 0.464 . S
C1001 C57 0.446 . S
C1016 C406 0.539 . S
C1051 C21 0.470 . S
C1066 C165 0.551 . S
C1116 C238 0.548 . S
C1101 C33 0.443 . S
C1166 C333 0.549 . S
C1151 C45 0.471 . S
C1201 C9 0.453 . S
C1216 C417 0.541 . S
C1251 C66 1.866 . S
C1266 C163 2.012 . S
C1301 C78 1.862 . S
C1316 C254 2.006 . S
C1366 C331 2.032 . S
C1351 C90 1.884 . S
C1416 C415 2.037 . S
C1401 C54 1.890 . S
C1451 C18 1.857 . S
C1466 C152 2.012 . S
C1516 C243 2.006 1_565 S
C1501 C30 1.850 . S
C1566 C320 2.031 . S
C1551 C42 1.872 . S
C1601 C6 1.881 . S
C1616 C404 2.037 . S
