# Generated by pormake.
# Topology rtl, (3,6)-cn, num edge types: 1
# Building blocks:
#     Node 0, Type 0, BuildingBlock: VETTIZ_charged_linker_0, # of connection points: 3
#     Node 1, Type 0, BuildingBlock: VETTIZ_charged_linker_0, # of connection points: 3
#     Node 2, Type 0, BuildingBlock: VETTIZ_charged_linker_0, # of connection points: 3
#     Node 3, Type 0, BuildingBlock: VETTIZ_charged_linker_0, # of connection points: 3
#     Node 4, Type 1, BuildingBlock: FUNLAD_clean_sbu_0, # of connection points: 6
#     Node 5, Type 1, BuildingBlock: FUNLAD_clean_sbu_0, # of connection points: 6
#     Edge 6, Type (0, 1), BuildingBlock: FUNLAD_clean_linker_0, # of connection points: 2
#     Edge 7, Type (0, 1), BuildingBlock: FUNLAD_clean_linker_0, # of connection points: 2
#     Edge 8, Type (0, 1), BuildingBlock: FUNLAD_clean_linker_0, # of connection points: 2
#     Edge 9, Type (0, 1), BuildingBlock: FUNLAD_clean_linker_0, # of connection points: 2
#     Edge 10, Type (0, 1), BuildingBlock: FUNLAD_clean_linker_0, # of connection points: 2
#     Edge 11, Type (0, 1), BuildingBlock: FUNLAD_clean_linker_0, # of connection points: 2
#     Edge 12, Type (0, 1), BuildingBlock: FUNLAD_clean_linker_0, # of connection points: 2
#     Edge 13, Type (0, 1), BuildingBlock: FUNLAD_clean_linker_0, # of connection points: 2
#     Edge 14, Type (0, 1), BuildingBlock: FUNLAD_clean_linker_0, # of connection points: 2
#     Edge 15, Type (0, 1), BuildingBlock: FUNLAD_clean_linker_0, # of connection points: 2
#     Edge 16, Type (0, 1), BuildingBlock: FUNLAD_clean_linker_0, # of connection points: 2
#     Edge 17, Type (0, 1), BuildingBlock: FUNLAD_clean_linker_0, # of connection points: 2
# Relax obj value: 0.030
# Max RMSD: 0.091
# Mean RMSD: 0.078
data_MOF--net-rtl--node1-FUNLAD_clean_sbu_0--node2-VETTIZ_charged_linker_0--edge1-FUNLAD_clean_linker_0
_symmetry_space_group_name_H-M    P1
_symmetry_Int_Tables_number       1
_symmetry_cell_setting            triclinic
loop_
_symmetry_equiv_pos_as_xyz
'x, y, z'
_cell_length_a     54.438854
_cell_length_b     44.453925
_cell_length_c     32.077104
_cell_angle_alpha  89.973775
_cell_angle_beta   90.892075
_cell_angle_gamma 90.72217
loop_
_atom_site_label
_atom_site_type_symbol
_atom_site_fract_x
_atom_site_fract_y
_atom_site_fract_z
_atom_type_partial_charge
C0 C 0.09547 0.7927 0.87864 0.0
C1 C 0.07602 0.81318 0.87681 0.0
C2 C 0.06187 0.81785 0.91255 0.0
C3 C 0.08816 0.78458 0.95227 0.0
C4 C 0.10129 0.7788 0.9167 0.0
C5 C 0.12268 0.75843 0.92526 0.0
H6 H 0.19836 0.69198 0.06548 0.0
C7 C 0.10044 0.76929 0.98757 0.0
C8 C 0.12057 0.75373 0.97204 0.0
H9 H 0.20262 0.69174 0.93094 0.0
H10 H 0.16425 0.71791 0.92574 0.0
H11 H 0.18064 0.75941 0.07429 0.0
H12 H 0.13838 0.6767 0.06816 0.0
H13 H 0.12601 0.6996 0.10714 0.0
H14 H 0.15715 0.68659 0.11272 0.0
H15 H 0.1807 0.73251 0.11607 0.0
H16 H 0.15755 0.76097 0.11185 0.0
C17 C 0.14653 0.77577 0.91385 0.0
C18 C 0.11833 0.72878 0.90066 0.0
C19 C 0.07281 0.79206 0.13378 0.0
C20 C 0.08269 0.7859 0.17349 0.0
C21 C 0.10241 0.76574 0.17715 0.0
C22 C 0.113 0.75337 0.14142 0.0
C23 C 0.10385 0.7614 0.10171 0.0
C24 C 0.08371 0.77992 0.09859 0.0
C25 C 0.07688 0.78724 0.05431 0.0
C26 C 0.09634 0.77025 0.03108 0.0
C27 C 0.11216 0.75515 0.05883 0.0
C28 C 0.07939 0.82187 0.04849 0.0
C29 C 0.05081 0.7742 0.04523 0.0
C30 C 0.19083 0.69726 0.03492 0.0
C31 C 0.20372 0.69018 0.99857 0.0
C32 C 0.19333 0.69752 0.95941 0.0
C33 C 0.171 0.71265 0.95643 0.0
C34 C 0.15893 0.72085 0.99299 0.0
C35 C 0.16852 0.71257 0.03139 0.0
C36 C 0.15293 0.72315 0.06677 0.0
C37 C 0.13254 0.73924 0.04317 0.0
C38 C 0.13641 0.73814 -3e-05 0.0
C39 C 0.16865 0.74503 0.09404 0.0
C40 C 0.14314 0.69519 0.09033 0.0
H41 H 0.05655 0.80853 0.97642 0.0
H42 H 0.10669 0.78878 0.85163 0.0
H43 H 0.09837 0.72382 0.89622 0.0
H44 H 0.12555 0.70892 0.9174 0.0
H45 H 0.1266 0.73003 0.86926 0.0
H46 H 0.14561 0.79963 0.92413 0.0
H47 H 0.14931 0.77572 0.87961 0.0
H48 H 0.16315 0.76688 0.92926 0.0
H49 H 0.05743 0.8071 0.12995 0.0
H50 H 0.11033 0.76063 0.20747 0.0
H51 H 0.1284 0.73882 0.14602 0.0
H52 H 0.09359 0.83165 0.07003 0.0
H53 H 0.06181 0.83328 0.05482 0.0
H54 H 0.08569 0.8284 0.01718 0.0
H55 H 0.04807 0.75234 0.06156 0.0
H56 H 0.04756 0.76906 0.01188 0.0
H57 H 0.03642 0.78974 0.05605 0.0
H58 H 0.04655 0.83317 0.9116 0.0
C59 C 0.06772 0.8035 0.95014 0.0
C60 C 0.58741 0.71986 0.64743 0.0
C61 C 0.5671 0.70004 0.64935 0.0
C62 C 0.55339 0.69381 0.61268 0.0
C63 C 0.58124 0.72477 0.57259 0.0
C64 C 0.59418 0.73187 0.60874 0.0
C65 C 0.61607 0.75195 0.60039 0.0
H66 H 0.69031 0.81902 0.45941 0.0
C67 C 0.59385 0.73919 0.53728 0.0
C68 C 0.61418 0.75541 0.55329 0.0
H69 H 0.69883 0.81824 0.59365 0.0
H70 H 0.66016 0.79143 0.59978 0.0
H71 H 0.67293 0.75067 0.45134 0.0
H72 H 0.63276 0.83329 0.45707 0.0
H73 H 0.61697 0.80995 0.42124 0.0
H74 H 0.64814 0.82178 0.41077 0.0
H75 H 0.67248 0.77764 0.40968 0.0
H76 H 0.6493 0.7486 0.41355 0.0
C77 C 0.63953 0.73498 0.61413 0.0
C78 C 0.61234 0.78222 0.62314 0.0
C79 C 0.56553 0.71504 0.38944 0.0
C80 C 0.57453 0.72311 0.35006 0.0
C81 C 0.59398 0.7443 0.3478 0.0
C82 C 0.60491 0.75624 0.38413 0.0
C83 C 0.59645 0.74681 0.42325 0.0
C84 C 0.57668 0.72713 0.42538 0.0
C85 C 0.57006 0.71969 0.46955 0.0
C86 C 0.58943 0.73771 0.4936 0.0
C87 C 0.60498 0.75327 0.46635 0.0
C88 C 0.57308 0.68532 0.47577 0.0
C89 C 0.54379 0.73135 0.47737 0.0
C90 C 0.68392 0.81297 0.49015 0.0
C91 C 0.69781 0.82049 0.52605 0.0
C92 C 0.68848 0.81282 0.56549 0.0
C93 C 0.6661 0.79704 0.56897 0.0
C94 C 0.65293 0.7887 0.53263 0.0
C95 C 0.66173 0.79714 0.49413 0.0
C96 C 0.64549 0.7863 0.4588 0.0
C97 C 0.62555 0.76971 0.48237 0.0
C98 C 0.63004 0.77099 0.52562 0.0
C99 C 0.66069 0.76481 0.43155 0.0
C100 C 0.63535 0.81411 0.43536 0.0
H101 H 0.54925 0.70014 0.54766 0.0
H102 H 0.59835 0.72498 0.67508 0.0
H103 H 0.59264 0.78859 0.62245 0.0
H104 H 0.62206 0.80121 0.60814 0.0
H105 H 0.61833 0.78078 0.65633 0.0
H106 H 0.63786 0.71066 0.60625 0.0
H107 H 0.64268 0.73679 0.64834 0.0
H108 H 0.65619 0.74287 0.59811 0.0
H109 H 0.55078 0.69865 0.39245 0.0
H110 H 0.60096 0.75139 0.31788 0.0
H111 H 0.61988 0.77187 0.38033 0.0
H112 H 0.58938 0.67711 0.45882 0.0
H113 H 0.55672 0.67272 0.46371 0.0
H114 H 0.57644 0.67884 0.50853 0.0
H115 H 0.53976 0.75149 0.45795 0.0
H116 H 0.54131 0.739 0.50983 0.0
H117 H 0.52966 0.71391 0.46963 0.0
H118 H 0.53742 0.67904 0.61354 0.0
C119 C 0.56027 0.70615 0.57445 0.0
C120 C 0.91515 0.22114 0.1421 0.0
C121 C 0.93455 0.2005 0.14383 0.0
C122 C 0.94454 0.19022 0.10619 0.0
C123 C 0.91512 0.21944 0.06645 0.0
C124 C 0.90574 0.23021 0.10324 0.0
C125 C 0.88445 0.25092 0.09581 0.0
H126 H 0.80354 0.31393 0.96027 0.0
C127 C 0.90036 0.2318 0.0316 0.0
C128 C 0.8824 0.25037 0.04853 0.0
H129 H 0.8073 0.32397 0.09431 0.0
H130 H 0.84326 0.2928 0.09738 0.0
H131 H 0.86286 0.32104 0.94564 0.0
H132 H 0.81388 0.24496 0.95878 0.0
H133 H 0.83499 0.23556 0.92028 0.0
H134 H 0.81484 0.26697 0.91191 0.0
H135 H 0.84075 0.31031 0.90612 0.0
H136 H 0.87097 0.29415 0.90829 0.0
C137 C 0.8918 0.28253 0.11247 0.0
C138 C 0.86149 0.23681 0.11653 0.0
C139 C 0.91708 0.19836 0.88358 0.0
C140 C 0.90536 0.20398 0.84506 0.0
C141 C 0.88543 0.22391 0.84352 0.0
C142 C 0.87716 0.23779 0.87987 0.0
C143 C 0.88879 0.23148 0.91829 0.0
C144 C 0.90848 0.21217 0.9196 0.0
C145 C 0.91815 0.20735 0.96319 0.0
C146 C 0.90107 0.22701 0.98789 0.0
C147 C 0.88393 0.24108 0.96147 0.0
C148 C 0.94505 0.21914 0.9654 0.0
C149 C 0.91492 0.17352 0.974 0.0
C150 C 0.81232 0.30979 0.99022 0.0
C151 C 0.80253 0.32139 0.02711 0.0
C152 C 0.81431 0.31499 0.06551 0.0
C153 C 0.83524 0.29697 0.06721 0.0
C154 C 0.84447 0.28499 0.03014 0.0
C155 C 0.83317 0.29172 0.99247 0.0
C156 C 0.84533 0.27678 0.95631 0.0
C157 C 0.86583 0.26002 0.97848 0.0
C158 C 0.86517 0.2648 0.02174 0.0
C159 C 0.85543 0.30168 0.9272 0.0
C160 C 0.82639 0.25504 0.93531 0.0
H161 H 0.94322 0.19061 0.04024 0.0
H162 H 0.90723 0.22981 0.17036 0.0
H163 H 0.86128 0.21192 0.1129 0.0
H164 H 0.84404 0.24422 0.10221 0.0
H165 H 0.86131 0.24186 0.15043 0.0
H166 H 0.9117 0.2872 0.10778 0.0
H167 H 0.88826 0.28442 0.14637 0.0
H168 H 0.88229 0.30087 0.0958 0.0
H169 H 0.93218 0.18278 0.8859 0.0
H170 H 0.87625 0.22879 0.81413 0.0
H171 H 0.86186 0.25263 0.8767 0.0
H172 H 0.94743 0.23948 0.94555 0.0
H173 H 0.95799 0.20189 0.95428 0.0
H174 H 0.95078 0.22647 0.99703 0.0
H175 H 0.8981 0.16389 0.95868 0.0
H176 H 0.91226 0.1694 0.00757 0.0
H177 H 0.93082 0.16029 0.96334 0.0
H178 H 0.95925 0.17405 0.10646 0.0
C179 C 0.93502 0.19965 0.06764 0.0
C180 C 0.41815 0.27801 0.3779 0.0
C181 C 0.43839 0.2979 0.37574 0.0
C182 C 0.45138 0.30551 0.41267 0.0
C183 C 0.42326 0.27509 0.45311 0.0
C184 C 0.41102 0.26678 0.41676 0.0
C185 C 0.38983 0.24562 0.4248 0.0
H186 H 0.31668 0.17447 0.56324 0.0
C187 C 0.41055 0.2607 0.48837 0.0
C188 C 0.39111 0.24311 0.47202 0.0
H189 H 0.31153 0.17258 0.42855 0.0
H190 H 0.34824 0.20322 0.42422 0.0
H191 H 0.3753 0.16618 0.56973 0.0
H192 H 0.32984 0.24477 0.57023 0.0
H193 H 0.35269 0.24969 0.60895 0.0
H194 H 0.33113 0.21881 0.61306 0.0
H195 H 0.35735 0.17622 0.61396 0.0
H196 H 0.38799 0.19118 0.60686 0.0
C197 C 0.3951 0.21521 0.40327 0.0
C198 C 0.36594 0.26099 0.40949 0.0
C199 C 0.43606 0.28812 0.63647 0.0
C200 C 0.42683 0.28021 0.67574 0.0
C201 C 0.40756 0.25876 0.67786 0.0
C202 C 0.39724 0.2461 0.64147 0.0
C203 C 0.40616 0.25504 0.60242 0.0
C204 C 0.42553 0.27534 0.60048 0.0
C205 C 0.43265 0.28231 0.55641 0.0
C206 C 0.41413 0.26316 0.53215 0.0
C207 C 0.39856 0.24739 0.55921 0.0
C208 C 0.45935 0.27161 0.55011 0.0
C209 C 0.42883 0.3164 0.54888 0.0
C210 C 0.3234 0.18076 0.53281 0.0
C211 C 0.31108 0.17116 0.4962 0.0
C212 C 0.32076 0.17941 0.45724 0.0
C213 C 0.342 0.19742 0.45478 0.0
C214 C 0.35371 0.20746 0.49164 0.0
C215 C 0.34457 0.19879 0.52981 0.0
C216 C 0.35944 0.21155 0.56569 0.0
C217 C 0.37899 0.22936 0.54275 0.0
C218 C 0.37542 0.22707 0.4994 0.0
C219 C 0.37055 0.18507 0.59076 0.0
C220 C 0.34253 0.23217 0.5912 0.0
H221 H 0.45438 0.30123 0.47824 0.0
H222 H 0.40803 0.27141 0.34996 0.0
H223 H 0.36638 0.28537 0.41737 0.0
H224 H 0.34928 0.25198 0.42439 0.0
H225 H 0.36367 0.25899 0.37512 0.0
H226 H 0.41517 0.2108 0.40274 0.0
H227 H 0.38822 0.21505 0.37049 0.0
H228 H 0.38716 0.19575 0.42002 0.0
H229 H 0.45064 0.30475 0.63356 0.0
H230 H 0.40036 0.25188 0.70772 0.0
H231 H 0.38248 0.23015 0.64515 0.0
H232 H 0.46367 0.25204 0.57047 0.0
H233 H 0.47289 0.28976 0.55771 0.0
H234 H 0.4625 0.26343 0.51809 0.0
H235 H 0.41181 0.32409 0.56417 0.0
H236 H 0.4263 0.32225 0.5157 0.0
H237 H 0.44446 0.32986 0.56192 0.0
H238 H 0.46692 0.32095 0.41185 0.0
C239 C 0.44396 0.2942 0.45126 0.0
C240 C 0.01736 0.9623 0.44706 0.0
N241 N 0.05503 0.03227 0.50904 0.0
C242 C 0.07526 0.01459 0.50893 0.0
C243 C 0.09876 0.02755 0.50955 0.0
C244 C 0.10149 0.05901 0.51039 0.0
C245 C 0.08027 0.07668 0.51039 0.0
C246 C 0.05714 0.0628 0.50968 0.0
Zn247 Zn 0.02086 0.01276 0.50849 0.0
C248 C 0.98717 0.04173 0.44687 0.0
N249 N 0.9496 0.97157 0.50698 0.0
C250 C 0.94703 0.9411 0.5081 0.0
C251 C 0.92969 0.98974 0.50812 0.0
C252 C 0.9061 0.9774 0.51136 0.0
C253 C 0.90291 0.94604 0.51339 0.0
C254 C 0.92375 0.92779 0.51125 0.0
Zn255 Zn 0.98389 0.99082 0.50677 0.0
O256 O 0.03163 0.98268 0.46163 0.0
C257 C 0.01743 0.96166 0.56804 0.0
O258 O 0.9955 0.96018 0.46032 0.0
H259 H 0.93212 0.0139 0.50714 0.0
H260 H 0.07317 0.99037 0.50851 0.0
H261 H 0.96312 0.92708 0.50736 0.0
O262 O 0.03225 0.9817 0.55486 0.0
O263 O 0.99562 0.96054 0.55343 0.0
H264 H 0.04083 0.07643 0.50962 0.0
O265 O 0.97298 0.02175 0.55353 0.0
O266 O 0.00973 0.04248 0.55543 0.0
O267 O 0.97265 0.02128 0.45981 0.0
O268 O 0.00884 0.04355 0.46207 0.0
C269 C 0.98788 0.04127 0.56863 0.0
H270 H 0.11461 0.01308 0.50998 0.0
H271 H 0.08152 0.10102 0.51044 0.0
H272 H 0.89051 0.99228 0.51231 0.0
H273 H 0.92216 0.90353 0.51314 0.0
C274 C 0.48508 0.45804 0.95706 0.0
N275 N 0.55333 0.47108 0.01736 0.0
C276 C 0.55501 0.44072 0.02168 0.0
C277 C 0.57794 0.42721 0.02533 0.0
C278 C 0.59938 0.44508 0.02443 0.0
C279 C 0.59712 0.47631 0.01925 0.0
C280 C 0.57381 0.4889 0.01585 0.0
Zn281 Zn 0.51941 0.49019 0.01505 0.0
C282 C 0.51596 0.53761 0.94968 0.0
N283 N 0.4486 0.53032 0.01156 0.0
C284 C 0.42834 0.51218 0.01384 0.0
C285 C 0.44658 0.56075 0.00936 0.0
C286 C 0.42349 0.57407 0.00967 0.0
C287 C 0.40226 0.55591 0.01236 0.0
C288 C 0.40491 0.52455 0.01432 0.0
Zn289 Zn 0.48261 0.51139 0.01305 0.0
O290 O 0.50691 0.45727 0.97163 0.0
C291 C 0.48627 0.46377 0.07831 0.0
O292 O 0.47083 0.4787 0.96886 0.0
H293 H 0.46293 0.57476 0.00775 0.0
H294 H 0.5385 0.42696 0.02268 0.0
H295 H 0.43035 0.48803 0.0155 0.0
O296 O 0.50799 0.46241 0.0646 0.0
O297 O 0.47144 0.48254 0.06232 0.0
H298 H 0.57205 0.513 0.01256 0.0
O299 O 0.4949 0.54384 0.05706 0.0
O300 O 0.53135 0.52336 0.05857 0.0
O301 O 0.49438 0.53991 0.96388 0.0
O302 O 0.53039 0.51822 0.9653 0.0
C303 C 0.51687 0.54359 0.07095 0.0
H304 H 0.57886 0.40301 0.02871 0.0
H305 H 0.61318 0.49093 0.01881 0.0
H306 H 0.42231 0.59836 0.00856 0.0
H307 H 0.38903 0.50969 0.01585 0.0
C308 C 0.2699 0.16122 0.52774 0.0
C309 C 0.28777 0.15357 0.49854 0.0
C310 C 0.24755 0.14552 0.52902 0.0
C311 C 0.24246 0.12189 0.50085 0.0
C312 C 0.26059 0.11371 0.47249 0.0
C313 C 0.28295 0.12947 0.47115 0.0
C314 C 0.21867 0.10509 0.50045 0.0
C315 C 0.19749 0.11714 0.51338 0.0
C316 C 0.17333 0.10111 0.51247 0.0
C317 C 0.1544 0.11225 0.53715 0.0
C318 C 0.13119 0.09852 0.53669 0.0
C319 C 0.12629 0.07334 0.51128 0.0
H320 H 0.1821 0.06713 0.46629 0.0
C321 C 0.14516 0.06219 0.48644 0.0
C322 C 0.1684 0.07595 0.48686 0.0
H323 H 0.14182 0.04318 0.46592 0.0
H324 H 0.273 0.17973 0.5492 0.0
H325 H 0.23447 0.15189 0.55236 0.0
H326 H 0.2573 0.09535 0.45082 0.0
H327 H 0.2965 0.1227 0.44876 0.0
H328 H 0.21874 0.08241 0.48801 0.0
H329 H 0.19762 0.13998 0.52535 0.0
H330 H 0.1576 0.13165 0.55704 0.0
H331 H 0.11714 0.10748 0.55655 0.0
C332 C 0.23321 0.65252 0.02867 0.0
C333 C 0.22837 0.67638 0.00112 0.0
C334 C 0.2565 0.63952 0.0304 0.0
C335 C 0.2754 0.65023 0.00458 0.0
C336 C 0.27062 0.67449 0.97781 0.0
C337 C 0.24738 0.68732 0.97591 0.0
C338 C 0.30047 0.63736 0.00499 0.0
C339 C 0.30553 0.609 0.0169 0.0
C340 C 0.33057 0.59603 0.01529 0.0
C341 C 0.3362 0.57144 0.04102 0.0
C342 C 0.35943 0.55842 0.04015 0.0
C343 C 0.37752 0.5696 0.01324 0.0
H344 H 0.34477 0.625 0.96623 0.0
C345 C 0.3718 0.59393 0.98702 0.0
C346 C 0.34858 0.60692 0.98784 0.0
H347 H 0.38514 0.60262 0.96524 0.0
H348 H 0.21893 0.64369 0.04857 0.0
H349 H 0.25961 0.62146 0.05238 0.0
H350 H 0.28488 0.68344 0.95794 0.0
H351 H 0.24436 0.70607 0.95496 0.0
H352 H 0.31514 0.65183 0.99377 0.0
H353 H 0.29094 0.59453 0.02843 0.0
H354 H 0.32265 0.56241 0.06219 0.0
H355 H 0.36331 0.53984 0.06098 0.0
C356 C 0.72979 0.85861 0.54899 0.0
C357 C 0.7223 0.83521 0.52205 0.0
C358 C 0.75288 0.87242 0.54481 0.0
C359 C 0.76906 0.86287 0.51371 0.0
C360 C 0.76143 0.83958 0.48679 0.0
C361 C 0.73842 0.82584 0.49096 0.0
C362 C 0.79375 0.87676 0.50738 0.0
C363 C 0.80598 0.8935 0.53614 0.0
C364 C 0.83084 0.90665 0.52916 0.0
C365 C 0.83809 0.93242 0.55165 0.0
C366 C 0.86137 0.94532 0.54629 0.0
C367 C 0.87806 0.9325 0.51861 0.0
H368 H 0.84313 0.87317 0.48486 0.0
C369 C 0.87095 0.90645 0.49652 0.0
C370 C 0.84764 0.8936 0.50177 0.0
H371 H 0.88338 0.89604 0.47494 0.0
H372 H 0.71763 0.86664 0.57284 0.0
H373 H 0.75759 0.89084 0.56551 0.0
H374 H 0.77342 0.83176 0.46252 0.0
H375 H 0.73337 0.80759 0.47004 0.0
H376 H 0.80226 0.87255 0.4776 0.0
H377 H 0.79759 0.89831 0.56581 0.0
H378 H 0.82566 0.94272 0.57333 0.0
H379 H 0.86644 0.96507 0.56437 0.0
C380 C 0.76099 0.33368 0.05454 0.0
C381 C 0.77963 0.33916 0.02563 0.0
C382 C 0.73889 0.34927 0.05205 0.0
C383 C 0.73502 0.37101 0.02071 0.0
C384 C 0.75376 0.37653 0.99197 0.0
C385 C 0.77582 0.36085 0.9944 0.0
C386 C 0.71144 0.38731 0.01555 0.0
C387 C 0.69454 0.38955 0.04564 0.0
C388 C 0.67046 0.40444 0.03941 0.0
C389 C 0.65079 0.39557 0.06457 0.0
C390 C 0.62775 0.40867 0.0596 0.0
C391 C 0.62392 0.43124 0.0296 0.0
H392 H 0.6816 0.43555 0.99061 0.0
C393 C 0.64371 0.44059 0.00492 0.0
C394 C 0.66676 0.42738 0.00976 0.0
H395 H 0.64133 0.45793 0.98153 0.0
H396 H 0.76317 0.31663 0.07841 0.0
H397 H 0.72479 0.34341 0.07405 0.0
H398 H 0.7513 0.393 0.96738 0.0
H399 H 0.78992 0.36572 0.97182 0.0
H400 H 0.7079 0.39752 0.98534 0.0
H401 H 0.69784 0.37932 0.07586 0.0
H402 H 0.65319 0.37821 0.08796 0.0
H403 H 0.613 0.40135 0.07964 0.0
C404 C 0.06966 0.83379 0.20645 0.0
C405 C 0.07375 0.80275 0.21004 0.0
C406 C 0.06114 0.8502 0.2401 0.0
C407 C 0.05672 0.83605 0.2785 0.0
C408 C 0.06051 0.80494 0.28213 0.0
C409 C 0.0692 0.78844 0.24828 0.0
C410 C 0.04757 0.85338 0.31454 0.0
C411 C 0.05382 0.88249 0.32055 0.0
C412 C 0.04433 0.90146 0.35459 0.0
C413 C 0.05814 0.92686 0.36691 0.0
C414 C 0.04941 0.94641 0.39709 0.0
C415 C 0.02642 0.94125 0.41527 0.0
H416 H 0.00991 0.87714 0.36337 0.0
C417 C 0.01247 0.91585 0.40293 0.0
C418 C 0.02135 0.89608 0.37289 0.0
H419 H 0.99467 0.91129 0.41636 0.0
H420 H 0.07321 0.84556 0.17754 0.0
H421 H 0.05772 0.87393 0.23565 0.0
H422 H 0.05698 0.79347 0.31127 0.0
H423 H 0.07203 0.76449 0.25181 0.0
H424 H 0.03622 0.84167 0.33705 0.0
H425 H 0.0672 0.89296 0.30015 0.0
H426 H 0.07578 0.93169 0.35303 0.0
H427 H 0.06062 0.96577 0.40581 0.0
C428 C 0.55579 0.65341 0.6884 0.0
C429 C 0.56084 0.68447 0.68872 0.0
C430 C 0.54973 0.63838 0.72506 0.0
C431 C 0.54862 0.65409 0.76301 0.0
C432 C 0.55339 0.68521 0.76333 0.0
C433 C 0.55971 0.70025 0.72658 0.0
C434 C 0.54162 0.63856 0.80214 0.0
C435 C 0.54737 0.60967 0.80969 0.0
C436 C 0.53957 0.59285 0.84728 0.0
C437 C 0.55367 0.56841 0.86081 0.0
C438 C 0.5462 0.55082 0.8945 0.0
C439 C 0.52419 0.55699 0.91497 0.0
H440 H 0.50601 0.6175 0.85776 0.0
C441 C 0.51004 0.58149 0.90149 0.0
C442 C 0.51767 0.59931 0.86802 0.0
H443 H 0.49296 0.58678 0.91658 0.0
H444 H 0.55665 0.64062 0.65973 0.0
H445 H 0.54548 0.61455 0.72337 0.0
H446 H 0.55239 0.69786 0.79211 0.0
H447 H 0.56332 0.72426 0.72761 0.0
H448 H 0.53226 0.65152 0.82564 0.0
H449 H 0.55892 0.59786 0.7879 0.0
H450 H 0.57049 0.56279 0.84513 0.0
H451 H 0.5575 0.53207 0.90401 0.0
C452 C 0.92668 0.18059 0.21572 0.0
C453 C 0.94343 0.18822 0.18438 0.0
C454 C 0.93467 0.1664 0.25227 0.0
C455 C 0.9596 0.15918 0.25811 0.0
C456 C 0.97647 0.16815 0.22773 0.0
C457 C 0.9685 0.18243 0.19123 0.0
C458 C 0.96866 0.14187 0.29485 0.0
C459 C 0.95421 0.12297 0.3168 0.0
C460 C 0.96323 0.1031 0.35101 0.0
C461 C 0.94806 0.07909 0.36364 0.0
C462 C 0.95577 0.0593 0.39485 0.0
C463 C 0.9789 0.06306 0.4143 0.0
H464 H 0.99823 0.12594 0.36355 0.0
C465 C 0.99397 0.08737 0.40232 0.0
C466 C 0.9862 0.10729 0.3712 0.0
H467 H 0.01178 0.0911 0.4171 0.0
H468 H 0.90723 0.18467 0.2115 0.0
H469 H 0.92117 0.16099 0.27557 0.0
H470 H 0.99584 0.16335 0.23167 0.0
H471 H 0.98196 0.1886 0.16814 0.0
H472 H 0.98823 0.14301 0.3015 0.0
H473 H 0.93505 0.12021 0.30764 0.0
H474 H 0.93022 0.07538 0.34896 0.0
H475 H 0.94365 0.0409 0.40346 0.0
C476 C 0.42027 0.30496 0.74494 0.0
C477 C 0.43643 0.29556 0.7139 0.0
C478 C 0.42892 0.32186 0.77894 0.0
C479 C 0.45395 0.33005 0.78244 0.0
C480 C 0.47024 0.31944 0.75247 0.0
C481 C 0.46159 0.30247 0.71853 0.0
C482 C 0.46371 0.34986 0.81637 0.0
C483 C 0.44975 0.36978 0.83669 0.0
C484 C 0.45944 0.39167 0.8682 0.0
C485 C 0.4447 0.41614 0.87879 0.0
C486 C 0.45298 0.43761 0.90766 0.0
C487 C 0.47627 0.43512 0.92673 0.0
H488 H 0.49433 0.36997 0.88189 0.0
C489 C 0.49095 0.41045 0.9167 0.0
C490 C 0.4826 0.38885 0.88796 0.0
H491 H 0.50887 0.40769 0.93126 0.0
H492 H 0.40076 0.30008 0.74235 0.0
H493 H 0.41586 0.32855 0.80214 0.0
H494 H 0.48966 0.32495 0.7547 0.0
H495 H 0.47461 0.29505 0.69562 0.0
H496 H 0.48338 0.34949 0.82216 0.0
H497 H 0.43047 0.37165 0.82814 0.0
H498 H 0.42673 0.41884 0.86438 0.0
H499 H 0.44116 0.45627 0.91481 0.0
C500 C 0.58087 0.69853 0.28074 0.0
C501 C 0.56479 0.70786 0.31193 0.0
C502 C 0.5722 0.68147 0.24693 0.0
C503 C 0.54723 0.673 0.24382 0.0
C504 C 0.53098 0.68359 0.27386 0.0
C505 C 0.53964 0.70075 0.30761 0.0
C506 C 0.53753 0.65284 0.21025 0.0
C507 C 0.5516 0.63285 0.19028 0.0
C508 C 0.54207 0.61065 0.15908 0.0
C509 C 0.55705 0.58638 0.14858 0.0
C510 C 0.54892 0.56465 0.11994 0.0
C511 C 0.52555 0.5667 0.10108 0.0
H512 H 0.50689 0.63171 0.1455 0.0
C513 C 0.51063 0.59115 0.11105 0.0
C514 C 0.51882 0.61301 0.13951 0.0
H515 H 0.49263 0.59358 0.09662 0.0
H516 H 0.60037 0.70353 0.28309 0.0
H517 H 0.58521 0.67483 0.22363 0.0
H518 H 0.51158 0.67786 0.27188 0.0
H519 H 0.52667 0.7081 0.33064 0.0
H520 H 0.51786 0.65303 0.20449 0.0
H521 H 0.5709 0.63121 0.19887 0.0
H522 H 0.5751 0.58403 0.16285 0.0
H523 H 0.56092 0.54616 0.11282 0.0
C524 C 0.93853 0.18526 0.79883 0.0
C525 C 0.91342 0.18818 0.80705 0.0
C526 C 0.94624 0.16861 0.76462 0.0
C527 C 0.92893 0.15413 0.7381 0.0
C528 C 0.90381 0.158 0.74559 0.0
C529 C 0.89611 0.1748 0.77969 0.0
C530 C 0.93614 0.13473 0.70261 0.0
C531 C 0.95858 0.12262 0.69899 0.0
C532 C 0.9653 0.10223 0.66447 0.0
C533 C 0.99002 0.10078 0.65301 0.0
C534 C 0.99729 0.08122 0.62161 0.0
C535 C 0.98001 0.06229 0.60139 0.0
H536 H 0.92886 0.08305 0.65314 0.0
C537 C 0.95526 0.06351 0.61307 0.0
C538 C 0.94796 0.08327 0.64429 0.0
H539 H 0.94153 0.04909 0.59823 0.0
H540 H 0.95227 0.19587 0.81893 0.0
H541 H 0.96575 0.1674 0.75928 0.0
H542 H 0.89004 0.14738 0.72554 0.0
H543 H 0.87662 0.17653 0.78536 0.0
H544 H 0.92208 0.12962 0.6792 0.0
H545 H 0.97291 0.12768 0.72186 0.0
H546 H 0.00378 0.11492 0.66833 0.0
H547 H 0.01653 0.08076 0.6135 0.0
C548 C 0.42739 0.32414 0.30902 0.0
C549 C 0.4454 0.31184 0.3356 0.0
C550 C 0.43413 0.33959 0.27293 0.0
C551 C 0.45906 0.343 0.26273 0.0
C552 C 0.47694 0.32951 0.28832 0.0
C553 C 0.47021 0.3143 0.32458 0.0
C554 C 0.46714 0.3606 0.22597 0.0
C555 C 0.45482 0.38464 0.21136 0.0
C556 C 0.46342 0.40416 0.17665 0.0
C557 C 0.44664 0.4239 0.15777 0.0
C558 C 0.45399 0.44329 0.12586 0.0
C559 C 0.47838 0.44344 0.11221 0.0
H560 H 0.50177 0.39055 0.17748 0.0
C561 C 0.49525 0.42385 0.13119 0.0
C562 C 0.48793 0.40454 0.16315 0.0
H563 H 0.51424 0.42356 0.12161 0.0
H564 H 0.40811 0.32258 0.31675 0.0
H565 H 0.41978 0.34882 0.25321 0.0
H566 H 0.49624 0.33147 0.28085 0.0
H567 H 0.48445 0.30465 0.34419 0.0
H568 H 0.48439 0.35424 0.21227 0.0
H569 H 0.43771 0.39082 0.22587 0.0
H570 H 0.42771 0.42433 0.16771 0.0
H571 H 0.44053 0.45812 0.11191 0.0
C572 C 0.07038 0.81816 0.79928 0.0
C573 C 0.07159 0.83146 0.83897 0.0
C574 C 0.06626 0.83586 0.76382 0.0
C575 C 0.06353 0.86719 0.76758 0.0
C576 C 0.06533 0.88043 0.80718 0.0
C577 C 0.06911 0.86276 0.84254 0.0
C578 C 0.05914 0.88689 0.73104 0.0
C579 C 0.04642 0.87787 0.69691 0.0
C580 C 0.03991 0.89891 0.66274 0.0
C581 C 0.01753 0.8948 0.64115 0.0
C582 C 0.01023 0.91517 0.61034 0.0
C583 C 0.02541 0.9398 0.60005 0.0
H584 H 0.07313 0.92642 0.66694 0.0
C585 C 0.04822 0.94333 0.62066 0.0
C586 C 0.05541 0.92311 0.65174 0.0
H587 H 0.06045 0.9619 0.61311 0.0
H588 H 0.0724 0.79409 0.79574 0.0
H589 H 0.06558 0.82504 0.7336 0.0
H590 H 0.06352 0.90454 0.81084 0.0
H591 H 0.07043 0.87365 0.87272 0.0
H592 H 0.06472 0.91036 0.73403 0.0
H593 H 0.03858 0.85528 0.69566 0.0
H594 H 0.00538 0.87618 0.64882 0.0
H595 H 0.99265 0.91163 0.5947 0.0
loop_
_geom_bond_atom_site_label_1
_geom_bond_atom_site_label_2
_geom_bond_distance
_geom_bond_site_symmetry_2
_ccdc_geom_bond_type
C0 C1 1.391 . S
C0 C4 1.391 . S
C0 H42 0.948 . S
C1 C0 1.391 . S
C1 C2 1.391 . S
C2 C1 1.391 . S
C2 H58 0.947 . S
C2 C59 1.392 . S
C3 C4 1.391 . S
C3 C7 1.397 . S
C3 C59 1.419 . S
C4 C0 1.391 . S
C4 C3 1.391 . S
C4 C5 1.399 . S
C5 C4 1.399 . S
C5 C8 1.396 . S
C5 C17 1.453 . S
C5 C18 1.684 . S
H6 C30 0.948 . S
C7 C3 1.397 . S
C7 C8 1.394 . S
C7 C26 1.723 1_556 S
C8 C5 1.396 . S
C8 C7 1.394 . S
C8 C38 1.723 1_556 S
H9 C32 0.947 . S
H10 C33 0.948 . S
H11 C39 0.982 . S
H12 C40 0.979 . S
H13 C40 0.980 . S
H14 C40 0.983 . S
H15 C39 0.979 . S
H16 C39 0.977 . S
C17 C5 1.453 . S
C17 H46 0.982 . S
C17 H47 0.979 . S
C17 H48 0.977 . S
C18 C5 1.684 . S
C18 H43 0.979 . S
C18 H44 0.980 . S
C18 H45 0.983 . S
C19 C20 1.391 . S
C19 C24 1.391 . S
C19 H49 0.948 . S
C20 C19 1.391 . S
C20 C21 1.391 . S
C21 C20 1.391 . S
C21 C22 1.392 . S
C21 H50 0.947 . S
C22 C21 1.392 . S
C22 C23 1.419 . S
C22 H51 0.948 . S
C23 C22 1.419 . S
C23 C24 1.391 . S
C23 C27 1.397 . S
C24 C19 1.391 . S
C24 C23 1.391 . S
C24 C25 1.399 . S
C25 C24 1.399 . S
C25 C26 1.396 . S
C25 C28 1.453 . S
C25 C29 1.684 . S
C26 C7 1.723 1_554 S
C26 C25 1.396 . S
C26 C27 1.394 . S
C27 C23 1.397 . S
C27 C26 1.394 . S
C27 C37 1.723 . S
C28 C25 1.453 . S
C28 H52 0.982 . S
C28 H53 0.979 . S
C28 H54 0.977 . S
C29 C25 1.684 . S
C29 H55 0.979 . S
C29 H56 0.980 . S
C29 H57 0.983 . S
C30 H6 0.948 . S
C30 C31 1.391 . S
C30 C35 1.391 . S
C31 C30 1.391 . S
C31 C32 1.391 1_554 S
C32 H9 0.947 . S
C32 C31 1.391 1_556 S
C32 C33 1.392 . S
C33 H10 0.948 . S
C33 C32 1.392 . S
C33 C34 1.419 1_556 S
C34 C33 1.419 1_554 S
C34 C35 1.391 . S
C34 C38 1.397 . S
C35 C30 1.391 . S
C35 C34 1.391 . S
C35 C36 1.399 . S
C36 C35 1.399 . S
C36 C37 1.396 . S
C36 C39 1.453 . S
C36 C40 1.684 . S
C37 C27 1.723 . S
C37 C36 1.396 . S
C37 C38 1.394 . S
C38 C8 1.723 1_554 S
C38 C34 1.397 . S
C38 C37 1.394 . S
C39 H11 0.982 . S
C39 H15 0.979 . S
C39 H16 0.977 . S
C39 C36 1.453 . S
C40 H12 0.979 . S
C40 H13 0.980 . S
C40 H14 0.983 . S
C40 C36 1.684 . S
H41 C59 0.948 . S
H42 C0 0.948 . S
H43 C18 0.979 . S
H44 C18 0.980 . S
H45 C18 0.983 . S
H46 C17 0.982 . S
H47 C17 0.979 . S
H48 C17 0.977 . S
H49 C19 0.948 . S
H50 C21 0.947 . S
H51 C22 0.948 . S
H52 C28 0.982 . S
H53 C28 0.979 . S
H54 C28 0.977 . S
H55 C29 0.979 . S
H56 C29 0.980 . S
H57 C29 0.983 . S
H58 C2 0.947 . S
C59 C2 1.392 . S
C59 C3 1.419 . S
C59 H41 0.948 . S
C60 C61 1.391 . S
C60 C64 1.391 . S
C60 H102 0.948 . S
C61 C60 1.391 . S
C61 C62 1.391 . S
C62 C61 1.391 . S
C62 H118 0.947 . S
C62 C119 1.392 . S
C63 C64 1.391 . S
C63 C67 1.397 . S
C63 C119 1.419 . S
C64 C60 1.391 . S
C64 C63 1.391 . S
C64 C65 1.399 . S
C65 C64 1.399 . S
C65 C68 1.396 . S
C65 C77 1.453 . S
C65 C78 1.684 . S
H66 C90 0.948 . S
C67 C63 1.397 . S
C67 C68 1.394 . S
C67 C86 1.723 . S
C68 C65 1.396 . S
C68 C67 1.394 . S
C68 C98 1.723 . S
H69 C92 0.947 . S
H70 C93 0.948 . S
H71 C99 0.982 . S
H72 C100 0.979 . S
H73 C100 0.980 . S
H74 C100 0.983 . S
H75 C99 0.979 . S
H76 C99 0.977 . S
C77 C65 1.453 . S
C77 H106 0.982 . S
C77 H107 0.979 . S
C77 H108 0.977 . S
C78 C65 1.684 . S
C78 H103 0.979 . S
C78 H104 0.980 . S
C78 H105 0.983 . S
C79 C80 1.391 . S
C79 C84 1.391 . S
C79 H109 0.948 . S
C80 C79 1.391 . S
C80 C81 1.391 . S
C81 C80 1.391 . S
C81 C82 1.392 . S
C81 H110 0.947 . S
C82 C81 1.392 . S
C82 C83 1.419 . S
C82 H111 0.948 . S
C83 C82 1.419 . S
C83 C84 1.391 . S
C83 C87 1.397 . S
C84 C79 1.391 . S
C84 C83 1.391 . S
C84 C85 1.399 . S
C85 C84 1.399 . S
C85 C86 1.396 . S
C85 C88 1.453 . S
C85 C89 1.684 . S
C86 C67 1.723 . S
C86 C85 1.396 . S
C86 C87 1.394 . S
C87 C83 1.397 . S
C87 C86 1.394 . S
C87 C97 1.723 . S
C88 C85 1.453 . S
C88 H112 0.982 . S
C88 H113 0.979 . S
C88 H114 0.977 . S
C89 C85 1.684 . S
C89 H115 0.979 . S
C89 H116 0.980 . S
C89 H117 0.983 . S
C90 H66 0.948 . S
C90 C91 1.391 . S
C90 C95 1.391 . S
C91 C90 1.391 . S
C91 C92 1.391 . S
C92 H69 0.947 . S
C92 C91 1.391 . S
C92 C93 1.392 . S
C93 H70 0.948 . S
C93 C92 1.392 . S
C93 C94 1.419 . S
C94 C93 1.419 . S
C94 C95 1.391 . S
C94 C98 1.397 . S
C95 C90 1.391 . S
C95 C94 1.391 . S
C95 C96 1.399 . S
C96 C95 1.399 . S
C96 C97 1.396 . S
C96 C99 1.453 . S
C96 C100 1.684 . S
C97 C87 1.723 . S
C97 C96 1.396 . S
C97 C98 1.394 . S
C98 C68 1.723 . S
C98 C94 1.397 . S
C98 C97 1.394 . S
C99 H71 0.982 . S
C99 H75 0.979 . S
C99 H76 0.977 . S
C99 C96 1.453 . S
C100 H72 0.979 . S
C100 H73 0.980 . S
C100 H74 0.983 . S
C100 C96 1.684 . S
H101 C119 0.948 . S
H102 C60 0.948 . S
H103 C78 0.979 . S
H104 C78 0.980 . S
H105 C78 0.983 . S
H106 C77 0.982 . S
H107 C77 0.979 . S
H108 C77 0.977 . S
H109 C79 0.948 . S
H110 C81 0.947 . S
H111 C82 0.948 . S
H112 C88 0.982 . S
H113 C88 0.979 . S
H114 C88 0.977 . S
H115 C89 0.979 . S
H116 C89 0.980 . S
H117 C89 0.983 . S
H118 C62 0.947 . S
C119 C62 1.392 . S
C119 C63 1.419 . S
C119 H101 0.948 . S
C120 C121 1.391 . S
C120 C124 1.391 . S
C120 H162 0.948 . S
C121 C120 1.391 . S
C121 C122 1.391 . S
C122 C121 1.391 . S
C122 H178 0.947 . S
C122 C179 1.392 . S
C123 C124 1.391 . S
C123 C127 1.397 . S
C123 C179 1.419 . S
C124 C120 1.391 . S
C124 C123 1.391 . S
C124 C125 1.399 . S
C125 C124 1.399 . S
C125 C128 1.396 . S
C125 C137 1.453 . S
C125 C138 1.684 . S
H126 C150 0.948 . S
C127 C123 1.397 . S
C127 C128 1.394 . S
C127 C146 1.723 1_554 S
C128 C125 1.396 . S
C128 C127 1.394 . S
C128 C158 1.723 . S
H129 C152 0.947 . S
H130 C153 0.948 . S
H131 C159 0.982 . S
H132 C160 0.979 . S
H133 C160 0.980 . S
H134 C160 0.983 . S
H135 C159 0.979 . S
H136 C159 0.977 . S
C137 C125 1.453 . S
C137 H166 0.982 . S
C137 H167 0.979 . S
C137 H168 0.977 . S
C138 C125 1.684 . S
C138 H163 0.979 . S
C138 H164 0.980 . S
C138 H165 0.983 . S
C139 C140 1.391 . S
C139 C144 1.391 . S
C139 H169 0.948 . S
C140 C139 1.391 . S
C140 C141 1.391 . S
C141 C140 1.391 . S
C141 C142 1.392 . S
C141 H170 0.947 . S
C142 C141 1.392 . S
C142 C143 1.419 . S
C142 H171 0.948 . S
C143 C142 1.419 . S
C143 C144 1.391 . S
C143 C147 1.397 . S
C144 C139 1.391 . S
C144 C143 1.391 . S
C144 C145 1.399 . S
C145 C144 1.399 . S
C145 C146 1.396 . S
C145 C148 1.453 . S
C145 C149 1.684 . S
C146 C127 1.723 1_556 S
C146 C145 1.396 . S
C146 C147 1.394 . S
C147 C143 1.397 . S
C147 C146 1.394 . S
C147 C157 1.723 . S
C148 C145 1.453 . S
C148 H172 0.982 . S
C148 H173 0.979 . S
C148 H174 0.977 1_556 S
C149 C145 1.684 . S
C149 H175 0.979 . S
C149 H176 0.980 1_556 S
C149 H177 0.983 . S
C150 H126 0.948 . S
C150 C151 1.391 1_556 S
C150 C155 1.391 . S
C151 C150 1.391 1_554 S
C151 C152 1.391 . S
C152 H129 0.947 . S
C152 C151 1.391 . S
C152 C153 1.392 . S
C153 H130 0.948 . S
C153 C152 1.392 . S
C153 C154 1.419 . S
C154 C153 1.419 . S
C154 C155 1.391 1_554 S
C154 C158 1.397 . S
C155 C150 1.391 . S
C155 C154 1.391 1_556 S
C155 C156 1.399 . S
C156 C155 1.399 . S
C156 C157 1.396 . S
C156 C159 1.453 . S
C156 C160 1.684 . S
C157 C147 1.723 . S
C157 C156 1.396 . S
C157 C158 1.394 1_556 S
C158 C128 1.723 . S
C158 C154 1.397 . S
C158 C157 1.394 1_554 S
C159 H131 0.982 . S
C159 H135 0.979 . S
C159 H136 0.977 . S
C159 C156 1.453 . S
C160 H132 0.979 . S
C160 H133 0.980 . S
C160 H134 0.983 . S
C160 C156 1.684 . S
H161 C179 0.948 . S
H162 C120 0.948 . S
H163 C138 0.979 . S
H164 C138 0.980 . S
H165 C138 0.983 . S
H166 C137 0.982 . S
H167 C137 0.979 . S
H168 C137 0.977 . S
H169 C139 0.948 . S
H170 C141 0.947 . S
H171 C142 0.948 . S
H172 C148 0.982 . S
H173 C148 0.979 . S
H174 C148 0.977 1_554 S
H175 C149 0.979 . S
H176 C149 0.980 1_554 S
H177 C149 0.983 . S
H178 C122 0.947 . S
C179 C122 1.392 . S
C179 C123 1.419 . S
C179 H161 0.948 . S
C180 C181 1.391 . S
C180 C184 1.391 . S
C180 H222 0.948 . S
C181 C180 1.391 . S
C181 C182 1.391 . S
C182 C181 1.391 . S
C182 H238 0.947 . S
C182 C239 1.392 . S
C183 C184 1.391 . S
C183 C187 1.397 . S
C183 C239 1.419 . S
C184 C180 1.391 . S
C184 C183 1.391 . S
C184 C185 1.399 . S
C185 C184 1.399 . S
C185 C188 1.396 . S
C185 C197 1.453 . S
C185 C198 1.684 . S
H186 C210 0.948 . S
C187 C183 1.397 . S
C187 C188 1.394 . S
C187 C206 1.723 . S
C188 C185 1.396 . S
C188 C187 1.394 . S
C188 C218 1.723 . S
H189 C212 0.947 . S
H190 C213 0.948 . S
H191 C219 0.982 . S
H192 C220 0.979 . S
H193 C220 0.980 . S
H194 C220 0.983 . S
H195 C219 0.979 . S
H196 C219 0.977 . S
C197 C185 1.453 . S
C197 H226 0.982 . S
C197 H227 0.979 . S
C197 H228 0.977 . S
C198 C185 1.684 . S
C198 H223 0.979 . S
C198 H224 0.980 . S
C198 H225 0.983 . S
C199 C200 1.391 . S
C199 C204 1.391 . S
C199 H229 0.948 . S
C200 C199 1.391 . S
C200 C201 1.391 . S
C201 C200 1.391 . S
C201 C202 1.392 . S
C201 H230 0.947 . S
C202 C201 1.392 . S
C202 C203 1.419 . S
C202 H231 0.948 . S
C203 C202 1.419 . S
C203 C204 1.391 . S
C203 C207 1.397 . S
C204 C199 1.391 . S
C204 C203 1.391 . S
C204 C205 1.399 . S
C205 C204 1.399 . S
C205 C206 1.396 . S
C205 C208 1.453 . S
C205 C209 1.684 . S
C206 C187 1.723 . S
C206 C205 1.396 . S
C206 C207 1.394 . S
C207 C203 1.397 . S
C207 C206 1.394 . S
C207 C217 1.723 . S
C208 C205 1.453 . S
C208 H232 0.982 . S
C208 H233 0.979 . S
C208 H234 0.977 . S
C209 C205 1.684 . S
C209 H235 0.979 . S
C209 H236 0.980 . S
C209 H237 0.983 . S
C210 H186 0.948 . S
C210 C211 1.391 . S
C210 C215 1.391 . S
C211 C210 1.391 . S
C211 C212 1.391 . S
C212 H189 0.947 . S
C212 C211 1.391 . S
C212 C213 1.392 . S
C213 H190 0.948 . S
C213 C212 1.392 . S
C213 C214 1.419 . S
C214 C213 1.419 . S
C214 C215 1.391 . S
C214 C218 1.397 . S
C215 C210 1.391 . S
C215 C214 1.391 . S
C215 C216 1.399 . S
C216 C215 1.399 . S
C216 C217 1.396 . S
C216 C219 1.453 . S
C216 C220 1.684 . S
C217 C207 1.723 . S
C217 C216 1.396 . S
C217 C218 1.394 . S
C218 C188 1.723 . S
C218 C214 1.397 . S
C218 C217 1.394 . S
C219 H191 0.982 . S
C219 H195 0.979 . S
C219 H196 0.977 . S
C219 C216 1.453 . S
C220 H192 0.979 . S
C220 H193 0.980 . S
C220 H194 0.983 . S
C220 C216 1.684 . S
H221 C239 0.948 . S
H222 C180 0.948 . S
H223 C198 0.979 . S
H224 C198 0.980 . S
H225 C198 0.983 . S
H226 C197 0.982 . S
H227 C197 0.979 . S
H228 C197 0.977 . S
H229 C199 0.948 . S
H230 C201 0.947 . S
H231 C202 0.948 . S
H232 C208 0.982 . S
H233 C208 0.979 . S
H234 C208 0.977 . S
H235 C209 0.979 . S
H236 C209 0.980 . S
H237 C209 0.983 . S
H238 C182 0.947 . S
C239 C182 1.392 . S
C239 C183 1.419 . S
C239 H221 0.948 . S
C240 O256 1.251 . S
C240 O258 1.254 1_455 S
N241 C242 1.333 . S
N241 C246 1.307 . S
N241 Zn247 2.020 . S
C242 N241 1.333 . S
C242 C243 1.379 . S
C242 H260 0.952 . S
C243 C242 1.379 . S
C243 C244 1.390 . S
C243 H270 0.949 . S
C244 C243 1.390 . S
C244 C245 1.357 . S
C245 C244 1.357 . S
C245 C246 1.370 . S
C245 H271 0.950 . S
C246 N241 1.307 . S
C246 C245 1.370 . S
C246 H264 0.948 . S
Zn247 N241 2.020 . S
Zn247 O256 2.039 1_545 S
Zn247 O262 2.034 1_545 S
Zn247 O266 2.025 . S
Zn247 O268 2.024 . S
C248 O267 1.246 . S
C248 O268 1.249 1_655 S
N249 C250 1.307 . S
N249 C251 1.333 . S
N249 Zn255 2.020 . S
C250 N249 1.307 . S
C250 C254 1.370 . S
C250 H261 0.948 . S
C251 N249 1.333 . S
C251 C252 1.379 . S
C251 H259 0.951 . S
C252 C251 1.379 . S
C252 C253 1.390 . S
C252 H272 0.949 . S
C253 C252 1.390 . S
C253 C254 1.357 . S
C254 C250 1.370 . S
C254 C253 1.357 . S
C254 H273 0.950 . S
Zn255 N249 2.020 . S
Zn255 O258 2.025 . S
Zn255 O263 2.024 . S
Zn255 O265 2.039 1_565 S
Zn255 O267 2.034 1_565 S
O256 C240 1.251 . S
O256 Zn247 2.039 1_565 S
C257 O262 1.246 . S
C257 O263 1.249 1_455 S
O258 C240 1.254 1_655 S
O258 Zn255 2.025 . S
H259 C251 0.951 . S
H260 C242 0.952 . S
H261 C250 0.948 . S
O262 Zn247 2.034 1_565 S
O262 C257 1.246 . S
O263 Zn255 2.024 . S
O263 C257 1.249 1_655 S
H264 C246 0.948 . S
O265 Zn255 2.039 1_545 S
O265 C269 1.251 . S
O266 Zn247 2.025 . S
O266 C269 1.254 1_455 S
O267 C248 1.246 . S
O267 Zn255 2.034 1_545 S
O268 Zn247 2.024 . S
O268 C248 1.249 1_455 S
C269 O265 1.251 . S
C269 O266 1.254 1_655 S
H270 C243 0.949 . S
H271 C245 0.950 . S
H272 C252 0.949 . S
H273 C254 0.950 . S
C274 O290 1.251 . S
C274 O292 1.254 . S
N275 C276 1.337 . S
N275 C280 1.307 . S
N275 Zn281 2.020 . S
C276 N275 1.337 . S
C276 C277 1.379 1_554 S
C276 H294 0.947 1_554 S
C277 C276 1.379 1_556 S
C277 C278 1.385 1_556 S
C277 H304 0.954 . S
C278 C277 1.385 1_554 S
C278 C279 1.357 . S
C279 C278 1.357 . S
C279 C280 1.370 . S
C279 H305 0.950 . S
C280 N275 1.307 . S
C280 C279 1.370 . S
C280 H298 0.948 . S
Zn281 N275 2.020 . S
Zn281 O290 2.039 1_554 S
Zn281 O296 2.034 . S
Zn281 O300 2.025 . S
Zn281 O302 2.024 1_554 S
C282 O301 1.246 . S
C282 O302 1.249 . S
N283 C284 1.307 . S
N283 C285 1.333 . S
N283 Zn289 2.020 . S
C284 N283 1.307 . S
C284 C288 1.370 . S
C284 H295 0.948 1_554 S
C285 N283 1.333 . S
C285 C286 1.379 . S
C285 H293 0.952 . S
C286 C285 1.379 . S
C286 C287 1.390 . S
C286 H306 0.949 . S
C287 C286 1.390 . S
C287 C288 1.357 . S
C288 C284 1.370 . S
C288 C287 1.357 . S
C288 H307 0.950 1_554 S
Zn289 N283 2.020 . S
Zn289 O292 2.025 1_554 S
Zn289 O297 2.024 . S
Zn289 O299 2.039 . S
Zn289 O301 2.034 1_554 S
O290 C274 1.251 . S
O290 Zn281 2.039 1_556 S
C291 O296 1.246 . S
C291 O297 1.249 . S
O292 C274 1.254 . S
O292 Zn289 2.025 1_556 S
H293 C285 0.952 . S
H294 C276 0.947 1_556 S
H295 C284 0.948 1_556 S
O296 Zn281 2.034 . S
O296 C291 1.246 . S
O297 Zn289 2.024 . S
O297 C291 1.249 . S
H298 C280 0.948 . S
O299 Zn289 2.039 . S
O299 C303 1.251 . S
O300 Zn281 2.025 . S
O300 C303 1.254 . S
O301 C282 1.246 . S
O301 Zn289 2.034 1_556 S
O302 Zn281 2.024 1_556 S
O302 C282 1.249 . S
C303 O299 1.251 . S
C303 O300 1.254 . S
H304 C277 0.954 . S
H305 C279 0.950 . S
H306 C286 0.949 . S
H307 C288 0.950 1_556 S
C308 C309 1.386 . S
C308 C310 1.383 . S
C308 H324 0.951 . S
C309 C308 1.386 . S
C309 C313 1.383 . S
C310 C308 1.383 . S
C310 C311 1.402 . S
C310 H325 0.951 . S
C311 C310 1.402 . S
C311 C312 1.375 . S
C311 C314 1.481 . S
C312 C311 1.375 . S
C312 C313 1.367 . S
C312 H326 0.951 . S
C313 C309 1.383 . S
C313 C312 1.367 . S
C313 H327 0.950 . S
C314 C311 1.481 . S
C314 C315 1.297 . S
C314 H328 0.950 . S
C315 C314 1.297 . S
C315 C316 1.479 . S
C315 H329 0.950 . S
C316 C315 1.479 . S
C316 C317 1.375 . S
C316 C322 1.404 . S
C317 C316 1.375 . S
C317 C318 1.369 . S
C317 H330 0.950 . S
C318 C317 1.369 . S
C318 C319 1.392 . S
C318 H331 0.951 . S
C319 C318 1.392 . S
C319 C321 1.384 . S
H320 C322 0.949 . S
C321 C319 1.384 . S
C321 C322 1.385 . S
C321 H323 0.950 . S
C322 C316 1.404 . S
C322 H320 0.949 . S
C322 C321 1.385 . S
H323 C321 0.950 . S
H324 C308 0.951 . S
H325 C310 0.951 . S
H326 C312 0.951 . S
H327 C313 0.950 . S
H328 C314 0.950 . S
H329 C315 0.950 . S
H330 C317 0.950 . S
H331 C318 0.951 . S
C332 C333 1.386 . S
C332 C334 1.383 . S
C332 H348 0.951 . S
C333 C332 1.386 . S
C333 C337 1.383 1_554 S
C334 C332 1.383 . S
C334 C335 1.399 1_554 S
C334 H349 0.951 . S
C335 C334 1.399 1_556 S
C335 C336 1.377 . S
C335 C338 1.481 . S
C336 C335 1.377 . S
C336 C337 1.367 . S
C336 H350 0.951 . S
C337 C333 1.383 1_556 S
C337 C336 1.367 . S
C337 H351 0.950 . S
C338 C335 1.481 . S
C338 C339 1.297 1_556 S
C338 H352 0.950 . S
C339 C338 1.297 1_554 S
C339 C340 1.479 . S
C339 H353 0.950 . S
C340 C339 1.479 . S
C340 C341 1.375 . S
C340 C346 1.404 1_554 S
C341 C340 1.375 . S
C341 C342 1.369 . S
C341 H354 0.950 . S
C342 C341 1.369 . S
C342 C343 1.392 . S
C342 H355 0.951 . S
C343 C342 1.392 . S
C343 C345 1.384 1_554 S
H344 C346 0.949 . S
C345 C343 1.384 1_556 S
C345 C346 1.385 . S
C345 H347 0.950 . S
C346 C340 1.404 1_556 S
C346 H344 0.949 . S
C346 C345 1.385 . S
H347 C345 0.950 . S
H348 C332 0.951 . S
H349 C334 0.951 . S
H350 C336 0.951 . S
H351 C337 0.950 . S
H352 C338 0.950 . S
H353 C339 0.950 . S
H354 C341 0.950 . S
H355 C342 0.951 . S
C356 C357 1.386 . S
C356 C358 1.383 . S
C356 H372 0.951 . S
C357 C356 1.386 . S
C357 C361 1.383 . S
C358 C356 1.383 . S
C358 C359 1.402 . S
C358 H373 0.951 . S
C359 C358 1.402 . S
C359 C360 1.375 . S
C359 C362 1.481 . S
C360 C359 1.375 . S
C360 C361 1.367 . S
C360 H374 0.951 . S
C361 C357 1.383 . S
C361 C360 1.367 . S
C361 H375 0.950 . S
C362 C359 1.481 . S
C362 C363 1.297 . S
C362 H376 0.950 . S
C363 C362 1.297 . S
C363 C364 1.479 . S
C363 H377 0.950 . S
C364 C363 1.479 . S
C364 C365 1.375 . S
C364 C370 1.404 . S
C365 C364 1.375 . S
C365 C366 1.369 . S
C365 H378 0.950 . S
C366 C365 1.369 . S
C366 C367 1.392 . S
C366 H379 0.951 . S
C367 C366 1.392 . S
C367 C369 1.384 . S
H368 C370 0.949 . S
C369 C367 1.384 . S
C369 C370 1.385 . S
C369 H371 0.950 . S
C370 C364 1.404 . S
C370 H368 0.949 . S
C370 C369 1.385 . S
H371 C369 0.950 . S
H372 C356 0.951 . S
H373 C358 0.951 . S
H374 C360 0.951 . S
H375 C361 0.950 . S
H376 C362 0.950 . S
H377 C363 0.950 . S
H378 C365 0.950 . S
H379 C366 0.951 . S
C380 C381 1.386 . S
C380 C382 1.383 . S
C380 H396 0.951 . S
C381 C380 1.386 . S
C381 C385 1.383 1_554 S
C382 C380 1.383 . S
C382 C383 1.402 . S
C382 H397 0.951 . S
C383 C382 1.402 . S
C383 C384 1.375 1_554 S
C383 C386 1.481 . S
C384 C383 1.375 1_556 S
C384 C385 1.367 . S
C384 H398 0.951 . S
C385 C381 1.383 1_556 S
C385 C384 1.367 . S
C385 H399 0.950 . S
C386 C383 1.481 . S
C386 C387 1.297 . S
C386 H400 0.950 . S
C387 C386 1.297 . S
C387 C388 1.479 . S
C387 H401 0.950 . S
C388 C387 1.479 . S
C388 C389 1.375 . S
C388 C394 1.404 . S
C389 C388 1.375 . S
C389 C390 1.369 . S
C389 H402 0.950 . S
C390 C389 1.369 . S
C390 C391 1.392 . S
C390 H403 0.951 . S
C391 C390 1.392 . S
C391 C393 1.384 . S
H392 C394 0.949 . S
C393 C391 1.384 . S
C393 C394 1.385 . S
C393 H395 0.948 1_554 S
C394 C388 1.404 . S
C394 H392 0.949 . S
C394 C393 1.385 . S
H395 C393 0.948 1_556 S
H396 C380 0.951 . S
H397 C382 0.951 . S
H398 C384 0.951 . S
H399 C385 0.950 . S
H400 C386 0.950 . S
H401 C387 0.950 . S
H402 C389 0.950 . S
H403 C390 0.951 . S
C404 C405 1.386 . S
C404 C406 1.383 . S
C404 H420 0.951 . S
C405 C404 1.386 . S
C405 C409 1.383 . S
C406 C404 1.383 . S
C406 C407 1.402 . S
C406 H421 0.951 . S
C407 C406 1.402 . S
C407 C408 1.375 . S
C407 C410 1.481 . S
C408 C407 1.375 . S
C408 C409 1.367 . S
C408 H422 0.951 . S
C409 C405 1.383 . S
C409 C408 1.367 . S
C409 H423 0.950 . S
C410 C407 1.481 . S
C410 C411 1.297 . S
C410 H424 0.950 . S
C411 C410 1.297 . S
C411 C412 1.479 . S
C411 H425 0.950 . S
C412 C411 1.479 . S
C412 C413 1.375 . S
C412 C418 1.404 . S
C413 C412 1.375 . S
C413 C414 1.369 . S
C413 H426 0.950 . S
C414 C413 1.369 . S
C414 C415 1.392 . S
C414 H427 0.951 . S
C415 C414 1.392 . S
C415 C417 1.384 . S
H416 C418 0.949 . S
C417 C415 1.384 . S
C417 C418 1.385 . S
C417 H419 0.950 . S
C418 C412 1.404 . S
C418 H416 0.949 . S
C418 C417 1.385 . S
H419 C417 0.950 . S
H420 C404 0.951 . S
H421 C406 0.951 . S
H422 C408 0.951 . S
H423 C409 0.950 . S
H424 C410 0.950 . S
H425 C411 0.950 . S
H426 C413 0.950 . S
H427 C414 0.951 . S
C428 C429 1.386 . S
C428 C430 1.383 . S
C428 H444 0.951 . S
C429 C428 1.386 . S
C429 C433 1.383 . S
C430 C428 1.383 . S
C430 C431 1.402 . S
C430 H445 0.951 . S
C431 C430 1.402 . S
C431 C432 1.375 . S
C431 C434 1.481 . S
C432 C431 1.375 . S
C432 C433 1.367 . S
C432 H446 0.951 . S
C433 C429 1.383 . S
C433 C432 1.367 . S
C433 H447 0.950 . S
C434 C431 1.481 . S
C434 C435 1.297 . S
C434 H448 0.950 . S
C435 C434 1.297 . S
C435 C436 1.479 . S
C435 H449 0.950 . S
C436 C435 1.479 . S
C436 C437 1.375 . S
C436 C442 1.404 . S
C437 C436 1.375 . S
C437 C438 1.369 . S
C437 H450 0.950 . S
C438 C437 1.369 . S
C438 C439 1.392 . S
C438 H451 0.951 . S
C439 C438 1.392 . S
C439 C441 1.384 . S
H440 C442 0.949 . S
C441 C439 1.384 . S
C441 C442 1.385 . S
C441 H443 0.950 . S
C442 C436 1.404 . S
C442 H440 0.949 . S
C442 C441 1.385 . S
H443 C441 0.950 . S
H444 C428 0.951 . S
H445 C430 0.951 . S
H446 C432 0.951 . S
H447 C433 0.950 . S
H448 C434 0.950 . S
H449 C435 0.950 . S
H450 C437 0.950 . S
H451 C438 0.951 . S
C452 C453 1.386 . S
C452 C454 1.383 . S
C452 H468 0.951 . S
C453 C452 1.386 . S
C453 C457 1.383 . S
C454 C452 1.383 . S
C454 C455 1.402 . S
C454 H469 0.951 . S
C455 C454 1.402 . S
C455 C456 1.375 . S
C455 C458 1.481 . S
C456 C455 1.375 . S
C456 C457 1.367 . S
C456 H470 0.951 . S
C457 C453 1.383 . S
C457 C456 1.367 . S
C457 H471 0.950 . S
C458 C455 1.481 . S
C458 C459 1.297 . S
C458 H472 0.950 . S
C459 C458 1.297 . S
C459 C460 1.479 . S
C459 H473 0.950 . S
C460 C459 1.479 . S
C460 C461 1.375 . S
C460 C466 1.404 . S
C461 C460 1.375 . S
C461 C462 1.369 . S
C461 H474 0.950 . S
C462 C461 1.369 . S
C462 C463 1.392 . S
C462 H475 0.951 . S
C463 C462 1.392 . S
C463 C465 1.384 . S
H464 C466 0.949 . S
C465 C463 1.384 . S
C465 C466 1.385 . S
C465 H467 0.950 . S
C466 C460 1.404 . S
C466 H464 0.949 . S
C466 C465 1.385 . S
H467 C465 0.950 . S
H468 C452 0.951 . S
H469 C454 0.951 . S
H470 C456 0.951 . S
H471 C457 0.950 . S
H472 C458 0.950 . S
H473 C459 0.950 . S
H474 C461 0.950 . S
H475 C462 0.951 . S
C476 C477 1.386 . S
C476 C478 1.383 . S
C476 H492 0.951 . S
C477 C476 1.386 . S
C477 C481 1.383 . S
C478 C476 1.383 . S
C478 C479 1.402 . S
C478 H493 0.951 . S
C479 C478 1.402 . S
C479 C480 1.375 . S
C479 C482 1.481 . S
C480 C479 1.375 . S
C480 C481 1.367 . S
C480 H494 0.951 . S
C481 C477 1.383 . S
C481 C480 1.367 . S
C481 H495 0.950 . S
C482 C479 1.481 . S
C482 C483 1.297 . S
C482 H496 0.950 . S
C483 C482 1.297 . S
C483 C484 1.479 . S
C483 H497 0.950 . S
C484 C483 1.479 . S
C484 C485 1.375 . S
C484 C490 1.404 . S
C485 C484 1.375 . S
C485 C486 1.369 . S
C485 H498 0.950 . S
C486 C485 1.369 . S
C486 C487 1.392 . S
C486 H499 0.951 . S
C487 C486 1.392 . S
C487 C489 1.384 . S
H488 C490 0.949 . S
C489 C487 1.384 . S
C489 C490 1.385 . S
C489 H491 0.950 . S
C490 C484 1.404 . S
C490 H488 0.949 . S
C490 C489 1.385 . S
H491 C489 0.950 . S
H492 C476 0.951 . S
H493 C478 0.951 . S
H494 C480 0.951 . S
H495 C481 0.950 . S
H496 C482 0.950 . S
H497 C483 0.950 . S
H498 C485 0.950 . S
H499 C486 0.951 . S
C500 C501 1.386 . S
C500 C502 1.383 . S
C500 H516 0.951 . S
C501 C500 1.386 . S
C501 C505 1.383 . S
C502 C500 1.383 . S
C502 C503 1.402 . S
C502 H517 0.951 . S
C503 C502 1.402 . S
C503 C504 1.375 . S
C503 C506 1.481 . S
C504 C503 1.375 . S
C504 C505 1.367 . S
C504 H518 0.951 . S
C505 C501 1.383 . S
C505 C504 1.367 . S
C505 H519 0.950 . S
C506 C503 1.481 . S
C506 C507 1.297 . S
C506 H520 0.950 . S
C507 C506 1.297 . S
C507 C508 1.479 . S
C507 H521 0.950 . S
C508 C507 1.479 . S
C508 C509 1.375 . S
C508 C514 1.404 . S
C509 C508 1.375 . S
C509 C510 1.369 . S
C509 H522 0.950 . S
C510 C509 1.369 . S
C510 C511 1.392 . S
C510 H523 0.951 . S
C511 C510 1.392 . S
C511 C513 1.384 . S
H512 C514 0.949 . S
C513 C511 1.384 . S
C513 C514 1.385 . S
C513 H515 0.950 . S
C514 C508 1.404 . S
C514 H512 0.949 . S
C514 C513 1.385 . S
H515 C513 0.950 . S
H516 C500 0.951 . S
H517 C502 0.951 . S
H518 C504 0.951 . S
H519 C505 0.950 . S
H520 C506 0.950 . S
H521 C507 0.950 . S
H522 C509 0.950 . S
H523 C510 0.951 . S
C524 C525 1.386 . S
C524 C526 1.383 . S
C524 H540 0.951 . S
C525 C524 1.386 . S
C525 C529 1.383 . S
C526 C524 1.383 . S
C526 C527 1.402 . S
C526 H541 0.951 . S
C527 C526 1.402 . S
C527 C528 1.375 . S
C527 C530 1.481 . S
C528 C527 1.375 . S
C528 C529 1.367 . S
C528 H542 0.951 . S
C529 C525 1.383 . S
C529 C528 1.367 . S
C529 H543 0.950 . S
C530 C527 1.481 . S
C530 C531 1.297 . S
C530 H544 0.950 . S
C531 C530 1.297 . S
C531 C532 1.479 . S
C531 H545 0.950 . S
C532 C531 1.479 . S
C532 C533 1.375 . S
C532 C538 1.404 . S
C533 C532 1.375 . S
C533 C534 1.369 . S
C533 H546 0.950 1_655 S
C534 C533 1.369 . S
C534 C535 1.392 . S
C534 H547 0.951 1_655 S
C535 C534 1.392 . S
C535 C537 1.384 . S
H536 C538 0.949 . S
C537 C535 1.384 . S
C537 C538 1.385 . S
C537 H539 0.950 . S
C538 C532 1.404 . S
C538 H536 0.949 . S
C538 C537 1.385 . S
H539 C537 0.950 . S
H540 C524 0.951 . S
H541 C526 0.951 . S
H542 C528 0.951 . S
H543 C529 0.950 . S
H544 C530 0.950 . S
H545 C531 0.950 . S
H546 C533 0.950 1_455 S
H547 C534 0.951 1_455 S
C548 C549 1.386 . S
C548 C550 1.383 . S
C548 H564 0.951 . S
C549 C548 1.386 . S
C549 C553 1.383 . S
C550 C548 1.383 . S
C550 C551 1.402 . S
C550 H565 0.951 . S
C551 C550 1.402 . S
C551 C552 1.375 . S
C551 C554 1.481 . S
C552 C551 1.375 . S
C552 C553 1.367 . S
C552 H566 0.951 . S
C553 C549 1.383 . S
C553 C552 1.367 . S
C553 H567 0.950 . S
C554 C551 1.481 . S
C554 C555 1.297 . S
C554 H568 0.950 . S
C555 C554 1.297 . S
C555 C556 1.479 . S
C555 H569 0.950 . S
C556 C555 1.479 . S
C556 C557 1.375 . S
C556 C562 1.404 . S
C557 C556 1.375 . S
C557 C558 1.369 . S
C557 H570 0.950 . S
C558 C557 1.369 . S
C558 C559 1.392 . S
C558 H571 0.951 . S
C559 C558 1.392 . S
C559 C561 1.384 . S
H560 C562 0.949 . S
C561 C559 1.384 . S
C561 C562 1.385 . S
C561 H563 0.950 . S
C562 C556 1.404 . S
C562 H560 0.949 . S
C562 C561 1.385 . S
H563 C561 0.950 . S
H564 C548 0.951 . S
H565 C550 0.951 . S
H566 C552 0.951 . S
H567 C553 0.950 . S
H568 C554 0.950 . S
H569 C555 0.950 . S
H570 C557 0.950 . S
H571 C558 0.951 . S
C572 C573 1.386 . S
C572 C574 1.383 . S
C572 H588 0.951 . S
C573 C572 1.386 . S
C573 C577 1.383 . S
C574 C572 1.383 . S
C574 C575 1.402 . S
C574 H589 0.951 . S
C575 C574 1.402 . S
C575 C576 1.375 . S
C575 C578 1.481 . S
C576 C575 1.375 . S
C576 C577 1.367 . S
C576 H590 0.951 . S
C577 C573 1.383 . S
C577 C576 1.367 . S
C577 H591 0.950 . S
C578 C575 1.481 . S
C578 C579 1.297 . S
C578 H592 0.950 . S
C579 C578 1.297 . S
C579 C580 1.479 . S
C579 H593 0.950 . S
C580 C579 1.479 . S
C580 C581 1.375 . S
C580 C586 1.404 . S
C581 C580 1.375 . S
C581 C582 1.369 . S
C581 H594 0.950 . S
C582 C581 1.369 . S
C582 C583 1.392 . S
C582 H595 0.951 . S
C583 C582 1.392 . S
C583 C585 1.384 . S
H584 C586 0.949 . S
C585 C583 1.384 . S
C585 C586 1.385 . S
C585 H587 0.950 . S
C586 C580 1.404 . S
C586 H584 0.949 . S
C586 C585 1.385 . S
H587 C585 0.950 . S
H588 C572 0.951 . S
H589 C574 0.951 . S
H590 C576 0.951 . S
H591 C577 0.950 . S
H592 C578 0.950 . S
H593 C579 0.950 . S
H594 C581 0.950 . S
H595 C582 0.951 . S
C319 C244 1.642 . S
C309 C211 1.571 . S
C333 C31 1.531 . S
C343 C287 1.538 . S
C357 C91 1.626 . S
C367 C253 1.640 . S
C381 C151 1.524 . S
C391 C278 1.543 . S
C415 C240 1.610 . S
C405 C20 1.626 . S
C439 C282 1.712 . S
C429 C61 1.689 . S
C453 C121 1.490 . S
C463 C248 1.619 . S
C477 C200 1.650 . S
C487 C274 1.701 . S
C511 C303 1.709 . S
C501 C80 1.703 . S
C535 C269 1.616 . S
C525 C140 1.543 . S
C559 C291 1.720 . S
C549 C181 1.582 . S
C573 C1 1.552 . S
C583 C257 1.598 . S
