# Generated by pormake.
# Topology nom, (4,4)-cn, num edge types: 1
# Building blocks:
#     Node 0, Type 0, BuildingBlock: MIFKUJ_clean_linker_1, # of connection points: 4
#     Node 1, Type 0, BuildingBlock: MIFKUJ_clean_linker_1, # of connection points: 4
#     Node 2, Type 0, BuildingBlock: MIFKUJ_clean_linker_1, # of connection points: 4
#     Node 3, Type 0, BuildingBlock: MIFKUJ_clean_linker_1, # of connection points: 4
#     Node 4, Type 0, BuildingBlock: MIFKUJ_clean_linker_1, # of connection points: 4
#     Node 5, Type 0, BuildingBlock: MIFKUJ_clean_linker_1, # of connection points: 4
#     Node 6, Type 1, BuildingBlock: GALJAG_clean_sbu_0, # of connection points: 4
#     Node 7, Type 1, BuildingBlock: GALJAG_clean_sbu_0, # of connection points: 4
#     Node 8, Type 1, BuildingBlock: GALJAG_clean_sbu_0, # of connection points: 4
#     Node 9, Type 1, BuildingBlock: GALJAG_clean_sbu_0, # of connection points: 4
#     Node 10, Type 1, BuildingBlock: GALJAG_clean_sbu_0, # of connection points: 4
#     Node 11, Type 1, BuildingBlock: GALJAG_clean_sbu_0, # of connection points: 4
#     Edge 12, Type (0, 1), None
#     Edge 13, Type (0, 1), None
#     Edge 14, Type (0, 1), None
#     Edge 15, Type (0, 1), None
#     Edge 16, Type (0, 1), None
#     Edge 17, Type (0, 1), None
#     Edge 18, Type (0, 1), None
#     Edge 19, Type (0, 1), None
#     Edge 20, Type (0, 1), None
#     Edge 21, Type (0, 1), None
#     Edge 22, Type (0, 1), None
#     Edge 23, Type (0, 1), None
#     Edge 24, Type (0, 1), None
#     Edge 25, Type (0, 1), None
#     Edge 26, Type (0, 1), None
#     Edge 27, Type (0, 1), None
#     Edge 28, Type (0, 1), None
#     Edge 29, Type (0, 1), None
#     Edge 30, Type (0, 1), None
#     Edge 31, Type (0, 1), None
#     Edge 32, Type (0, 1), None
#     Edge 33, Type (0, 1), None
#     Edge 34, Type (0, 1), None
#     Edge 35, Type (0, 1), None
# Relax obj value: 0.004
# Max RMSD: 0.109
# Mean RMSD: 0.081
data_MOF--net-nom--node1-GALJAG_clean_sbu_0--node2-MIFKUJ_clean_linker_1--edge1-none
_symmetry_space_group_name_H-M    P1
_symmetry_Int_Tables_number       1
_symmetry_cell_setting            triclinic
loop_
_symmetry_equiv_pos_as_xyz
'x, y, z'
_cell_length_a     28.792368
_cell_length_b     28.675323
_cell_length_c     30.917611
_cell_angle_alpha  90.025879
_cell_angle_beta   90.001607
_cell_angle_gamma 120.00835
loop_
_atom_site_label
_atom_site_type_symbol
_atom_site_fract_x
_atom_site_fract_y
_atom_site_fract_z
_atom_type_partial_charge
H0 H 0.94367 0.41214 0.25554 0.0
H1 H 0.88269 0.37821 0.19326 0.0
H2 H 0.86471 0.51893 0.1985 0.0
H3 H 0.92448 0.55174 0.26153 0.0
H4 H 0.04404 0.53391 0.25577 0.0
H5 H 0.87185 0.4064 0.32585 0.0
H6 H 0.77925 0.37543 0.34766 0.0
H7 H 0.83047 0.52752 0.41162 0.0
H8 H 0.92253 0.55911 0.38831 0.0
H9 H 0.06449 0.61777 0.43095 0.0
H10 H 0.12389 0.64347 0.49374 0.0
H11 H 0.19213 0.54982 0.44446 0.0
H12 H 0.13193 0.5235 0.38202 0.0
H13 H 0.98747 0.52282 0.40871 0.0
H14 H 0.12101 0.66237 0.31756 0.0
H15 H 0.21281 0.72421 0.29342 0.0
H16 H 0.23738 0.5891 0.27246 0.0
H17 H 0.14455 0.5272 0.29525 0.0
C18 C 0.93806 0.48413 0.26314 0.0
C19 C 0.92609 0.43529 0.24343 0.0
C20 C 0.89134 0.41602 0.20796 0.0
C21 C 0.86921 0.44607 0.191 0.0
C22 C 0.88142 0.49508 0.21081 0.0
C23 C 0.91529 0.51376 0.24684 0.0
C24 C 0.97681 0.50551 0.29924 0.0
C25 C 0.03159 0.53042 0.28931 0.0
C26 C 0.96072 0.50487 0.34257 0.0
C27 C 0.90412 0.48541 0.35483 0.0
C28 C 0.86303 0.43351 0.34374 0.0
C29 C 0.8102 0.41569 0.35656 0.0
C30 C 0.79776 0.44911 0.38137 0.0
C31 C 0.83891 0.50084 0.39266 0.0
C32 C 0.89152 0.51887 0.37937 0.0
C33 C 0.09408 0.56916 0.40147 0.0
C34 C 0.09244 0.60301 0.43351 0.0
C35 C 0.12638 0.6176 0.46943 0.0
C36 C 0.1625 0.59843 0.47413 0.0
C37 C 0.16471 0.5652 0.44174 0.0
C38 C 0.1307 0.5506 0.4058 0.0
C39 C 0.05466 0.54971 0.36543 0.0
C40 C -0.00013 0.5255 0.37524 0.0
C41 C 0.07056 0.55418 0.32174 0.0
C42 C 0.12657 0.59051 0.30859 0.0
C43 C 0.14624 0.64618 0.30766 0.0
C44 C 0.1984 0.68133 0.29357 0.0
C45 C 0.23197 0.66132 0.28097 0.0
C46 C 0.21219 0.60547 0.282 0.0
C47 C 0.15947 0.57018 0.29512 0.0
H48 H 0.39891 0.92886 0.56424 0.0
H49 H 0.33419 0.83643 0.58464 0.0
H50 H 0.42532 0.7797 0.51331 0.0
H51 H 0.49148 0.87265 0.49451 0.0
H52 H 0.50044 0.99117 0.58131 0.0
H53 H 0.39837 0.91873 0.44258 0.0
H54 H 0.36735 0.85577 0.38152 0.0
H55 H 0.53 0.89189 0.35826 0.0
H56 H 0.56082 0.95551 0.41906 0.0
H57 H 0.64766 0.16375 0.49813 0.0
H58 H 0.67397 0.25643 0.47821 0.0
H59 H 0.51159 0.20344 0.43732 0.0
H60 H 0.48498 0.11141 0.45942 0.0
H61 H 0.53641 0.04826 0.42781 0.0
H62 H 0.64093 0.1231 0.5655 0.0
H63 H 0.67119 0.183 0.62856 0.0
H64 H 0.50664 0.13544 0.65784 0.0
H65 H 0.47701 0.0776 0.59368 0.0
C66 C 0.44988 0.9078 0.52743 0.0
C67 C 0.40536 0.89663 0.55333 0.0
C68 C 0.36826 0.8438 0.56486 0.0
C69 C 0.37459 0.80098 0.55032 0.0
C70 C 0.41924 0.81202 0.52462 0.0
C71 C 0.45692 0.86507 0.51366 0.0
C72 C 0.48804 0.96436 0.51501 0.0
C73 C 0.50872 0.00356 0.54771 0.0
C74 C 0.50087 0.98062 0.47137 0.0
C75 C 0.48178 0.94155 0.43525 0.0
C76 C 0.42722 0.9129 0.42437 0.0
C77 C 0.40965 0.87702 0.38952 0.0
C78 C 0.44631 0.8689 0.36521 0.0
C79 C 0.50086 0.89716 0.37656 0.0
C80 C 0.51851 0.9336 0.41108 0.0
C81 C 0.5641 0.13103 0.48138 0.0
C82 C 0.61751 0.17231 0.48594 0.0
C83 C 0.63254 0.2251 0.47414 0.0
C84 C 0.59467 0.23703 0.45644 0.0
C85 C 0.54156 0.19536 0.45087 0.0
C86 C 0.52636 0.14289 0.4635 0.0
C87 C 0.54664 0.07491 0.49408 0.0
C88 C 0.52968 0.03573 0.46143 0.0
C89 C 0.5383 0.05857 0.53784 0.0
C90 C 0.55694 0.09743 0.57412 0.0
C91 C 0.61162 0.12698 0.58473 0.0
C92 C 0.62877 0.16056 0.62108 0.0
C93 C 0.59126 0.16377 0.6481 0.0
C94 C 0.53646 0.13365 0.63765 0.0
C95 C 0.51948 0.10088 0.60091 0.0
H96 H 0.53841 0.62903 0.73878 0.0
H97 H 0.51106 0.66244 0.80125 0.0
H98 H 0.36696 0.50738 0.81321 0.0
H99 H 0.39398 0.47488 0.74997 0.0
H100 H 0.5181 0.49448 0.74696 0.0
H101 H 0.48616 0.63425 0.6731 0.0
H102 H 0.4241 0.66504 0.65168 0.0
H103 H 0.31958 0.50989 0.59366 0.0
H104 H 0.38062 0.47865 0.61672 0.0
H105 H 0.46835 0.42957 0.56637 0.0
H106 H 0.50318 0.4038 0.50453 0.0
H107 H 0.66109 0.48337 0.5621 0.0
H108 H 0.62594 0.50958 0.6241 0.0
H109 H 0.48742 0.52122 0.5935 0.0
H110 H 0.50045 0.37948 0.64745 0.0
H111 H 0.53147 0.31802 0.66943 0.0
H112 H 0.62936 0.42957 0.76891 0.0
H113 H 0.60202 0.49358 0.74452 0.0
C114 C 0.46769 0.54988 0.73949 0.0
C115 C 0.50057 0.60262 0.75456 0.0
C116 C 0.485 0.62155 0.79025 0.0
C117 C 0.43694 0.58749 0.8121 0.0
C118 C 0.40427 0.53451 0.79704 0.0
C119 C 0.41946 0.51593 0.7609 0.0
C120 C 0.48579 0.52913 0.70335 0.0
C121 C 0.51279 0.50119 0.71325 0.0
C122 C 0.47433 0.5341 0.65978 0.0
C123 C 0.43746 0.55379 0.64738 0.0
C124 C 0.44932 0.60649 0.65674 0.0
C125 C 0.41407 0.62417 0.64407 0.0
C126 C 0.367 0.58975 0.62107 0.0
C127 C 0.35559 0.53729 0.61127 0.0
C128 C 0.39041 0.51944 0.62444 0.0
C129 C 0.54446 0.47152 0.59997 0.0
C130 C 0.51051 0.44165 0.56572 0.0
C131 C 0.53048 0.42682 0.53039 0.0
C132 C 0.58494 0.44175 0.52837 0.0
C133 C 0.61896 0.4714 0.56273 0.0
C134 C 0.59887 0.48615 0.59825 0.0
C135 C 0.52303 0.48876 0.63663 0.0
C136 C 0.49452 0.51538 0.62701 0.0
C137 C 0.53001 0.47914 0.68053 0.0
C138 C 0.55002 0.44224 0.69333 0.0
C139 C 0.53 0.39188 0.673 0.0
C140 C 0.54702 0.35626 0.68602 0.0
C141 C 0.58248 0.36917 0.72091 0.0
C142 C 0.60156 0.41867 0.74212 0.0
C143 C 0.58601 0.45521 0.72809 0.0
H144 H 0.08757 0.62326 0.75568 0.0
H145 H 0.14857 0.6572 0.69345 0.0
H146 H 0.16629 0.51632 0.69839 0.0
H147 H 0.10649 0.48349 0.76139 0.0
H148 H 0.98705 0.50139 0.75575 0.0
H149 H 0.1593 0.62893 0.82592 0.0
H150 H 0.25189 0.65986 0.84775 0.0
H151 H 0.20063 0.50775 0.91155 0.0
H152 H 0.10857 0.4762 0.88823 0.0
H153 H 0.96654 0.4175 0.93078 0.0
H154 H 0.90713 0.39176 0.99355 0.0
H155 H 0.83918 0.48576 0.94454 0.0
H156 H 0.8994 0.51212 0.88214 0.0
H157 H 0.04369 0.51258 0.90869 0.0
H158 H 0.91032 0.37305 0.81698 0.0
H159 H 0.81843 0.3112 0.79295 0.0
H160 H 0.79343 0.4462 0.77315 0.0
H161 H 0.88634 0.50812 0.7958 0.0
C162 C 0.09305 0.55119 0.76314 0.0
C163 C 0.1051 0.60007 0.74352 0.0
C164 C 0.13986 0.61936 0.70807 0.0
C165 C 0.16192 0.58926 0.69105 0.0
C166 C 0.14963 0.5402 0.71076 0.0
C167 C 0.11574 0.52151 0.74676 0.0
C168 C 0.05431 0.52981 0.79922 0.0
C169 C -0.00048 0.50491 0.78929 0.0
C170 C 0.07041 0.53049 0.84256 0.0
C171 C 0.127 0.54991 0.85482 0.0
C172 C 0.1681 0.6018 0.84378 0.0
C173 C 0.22094 0.6196 0.85661 0.0
C174 C 0.23336 0.58616 0.88138 0.0
C175 C 0.19219 0.53444 0.89262 0.0
C176 C 0.13959 0.51643 0.87932 0.0
C177 C 0.93708 0.46627 0.90144 0.0
C178 C 0.93864 0.43232 0.9334 0.0
C179 C 0.9047 0.41772 0.9693 0.0
C180 C 0.86866 0.43697 0.97407 0.0
C181 C 0.86654 0.47031 0.94176 0.0
C182 C 0.90055 0.48493 0.90584 0.0
C183 C 0.97649 0.4857 0.86541 0.0
C184 C 0.03128 0.5099 0.87522 0.0
C185 C 0.96057 0.48119 0.82172 0.0
C186 C 0.90454 0.44486 0.80857 0.0
C187 C 0.88497 0.38921 0.80734 0.0
C188 C 0.83276 0.35406 0.79333 0.0
C189 C 0.79905 0.37403 0.7811 0.0
C190 C 0.81873 0.42986 0.78241 0.0
C191 C 0.8715 0.46517 0.79545 0.0
H192 H 0.63205 0.10648 0.06418 0.0
H193 H 0.69687 0.19892 0.08453 0.0
H194 H 0.60574 0.25564 0.01323 0.0
H195 H 0.53948 0.16268 0.99449 0.0
H196 H 0.53051 0.04425 0.0813 0.0
H197 H 0.6325 0.11639 0.94255 0.0
H198 H 0.66355 0.17935 0.88154 0.0
H199 H 0.50095 0.14343 0.85832 0.0
H200 H 0.4701 0.07981 0.91905 0.0
H201 H 0.38318 0.87158 0.99783 0.0
H202 H 0.35695 0.77887 0.97796 0.0
H203 H 0.51951 0.8318 0.9377 0.0
H204 H 0.54604 0.92385 0.95975 0.0
H205 H 0.49443 0.98694 0.9278 0.0
H206 H 0.38995 0.912 0.06532 0.0
H207 H 0.35971 0.85207 0.12831 0.0
H208 H 0.52433 0.90021 0.15794 0.0
H209 H 0.55395 0.95807 0.09385 0.0
C210 C 0.58107 0.12753 0.0274 0.0
C211 C 0.62562 0.13871 0.05327 0.0
C212 C 0.66278 0.19156 0.06477 0.0
C213 C 0.65648 0.23437 0.05021 0.0
C214 C 0.6118 0.22333 0.02455 0.0
C215 C 0.57406 0.17027 0.01362 0.0
C216 C 0.54287 0.07096 0.01499 0.0
C217 C 0.5222 0.03181 0.0477 0.0
C218 C 0.53001 0.05464 0.97135 0.0
C219 C 0.54911 0.09366 0.93523 0.0
C220 C 0.60366 0.12226 0.92436 0.0
C221 C 0.62126 0.15814 0.88954 0.0
C222 C 0.58462 0.16633 0.86526 0.0
C223 C 0.53007 0.13811 0.87659 0.0
C224 C 0.5124 0.10166 0.91107 0.0
C225 C 0.46682 0.90426 0.98139 0.0
C226 C 0.41338 0.863 0.98578 0.0
C227 C 0.3984 0.81019 0.97402 0.0
C228 C 0.43635 0.79824 0.95652 0.0
C229 C 0.48949 0.8399 0.95111 0.0
C230 C 0.50464 0.89238 0.9637 0.0
C231 C 0.48424 0.96038 0.99408 0.0
C232 C 0.50117 0.99952 0.96142 0.0
C233 C 0.49261 0.97679 0.03783 0.0
C234 C 0.47399 0.93797 0.07411 0.0
C235 C 0.41929 0.90824 0.0846 0.0
C236 C 0.40215 0.87465 0.12091 0.0
C237 C 0.43967 0.87157 0.14802 0.0
C238 C 0.4945 0.90188 0.13769 0.0
C239 C 0.51147 0.93467 0.10099 0.0
H240 H 0.49283 0.40623 0.23858 0.0
H241 H 0.52017 0.3728 0.30102 0.0
H242 H 0.66403 0.528 0.31339 0.0
H243 H 0.63703 0.56053 0.25019 0.0
H244 H 0.51307 0.54093 0.24698 0.0
H245 H 0.54492 0.40102 0.17294 0.0
H246 H 0.607 0.37026 0.15148 0.0
H247 H 0.71161 0.5255 0.09378 0.0
H248 H 0.65056 0.55671 0.11688 0.0
H249 H 0.56276 0.60565 0.06641 0.0
H250 H 0.52792 0.63142 1.00459 0.0
H251 H 0.37004 0.55194 0.06213 0.0
H252 H 0.40519 0.52574 0.12412 0.0
H253 H 0.54368 0.51403 0.09352 0.0
H254 H 0.53075 0.65585 0.1475 0.0
H255 H 0.49969 0.71731 0.16942 0.0
H256 H 0.40176 0.60586 0.26884 0.0
H257 H 0.42914 0.54185 0.24451 0.0
C258 C 0.56344 0.48546 0.2395 0.0
C259 C 0.53062 0.43267 0.25445 0.0
C260 C 0.54619 0.41373 0.29012 0.0
C261 C 0.59417 0.44782 0.31208 0.0
C262 C 0.62678 0.50085 0.29714 0.0
C263 C 0.6116 0.51945 0.26102 0.0
C264 C 0.54535 0.5062 0.20337 0.0
C265 C 0.51838 0.53418 0.21327 0.0
C266 C 0.55679 0.5012 0.1598 0.0
C267 C 0.59368 0.48153 0.14739 0.0
C268 C 0.58179 0.42881 0.15665 0.0
C269 C 0.61704 0.41114 0.14395 0.0
C270 C 0.66415 0.44559 0.12103 0.0
C271 C 0.67558 0.49807 0.11133 0.0
C272 C 0.64075 0.51591 0.12453 0.0
C273 C 0.48666 0.56375 0.1 0.0
C274 C 0.52059 0.59359 0.06575 0.0
C275 C 0.50063 0.60842 0.03044 0.0
C276 C 0.44617 0.59352 0.02841 0.0
C277 C 0.41216 0.5639 0.06277 0.0
C278 C 0.43225 0.54915 0.09827 0.0
C279 C 0.5081 0.54653 0.13665 0.0
C280 C 0.53659 0.5199 0.12702 0.0
C281 C 0.50116 0.5562 0.18056 0.0
C282 C 0.48117 0.59314 0.19335 0.0
C283 C 0.50119 0.64348 0.17303 0.0
C284 C 0.48415 0.67909 0.18601 0.0
C285 C 0.44866 0.66621 0.22086 0.0
C286 C 0.42959 0.61674 0.24208 0.0
C287 C 0.44516 0.5802 0.22809 0.0
In288 In 0.64072 0.39474 0.42102 0.0
O289 O 0.73038 0.45469 0.42349 0.0
O290 O 0.70285 0.38764 0.38073 0.0
C291 C 0.60551 0.42607 0.49048 0.0
C292 C 0.60997 0.42862 0.35069 0.0
C293 C 0.61055 0.29266 0.44386 0.0
O294 O 0.65419 0.43963 0.48566 0.0
O295 O 0.57527 0.39758 0.46026 0.0
O296 O 0.58362 0.30377 0.41785 0.0
O297 O 0.65232 0.33288 0.45834 0.0
C298 C 0.7422 0.43002 0.39559 0.0
O299 O 0.58845 0.37947 0.36085 0.0
O300 O 0.64625 0.46038 0.37618 0.0
In301 In 0.26258 0.64285 0.58292 0.0
O302 O 0.29238 0.58279 0.58059 0.0
O303 O 0.33356 0.6514 0.62154 0.0
C304 C 0.19737 0.61301 0.51277 0.0
C305 C 0.19707 0.60846 0.65263 0.0
C306 C 0.33474 0.7451 0.56187 0.0
O307 O 0.23074 0.59732 0.51878 0.0
O308 O 0.1963 0.64264 0.54237 0.0
O309 O 0.30025 0.73364 0.59131 0.0
O310 O 0.33261 0.70506 0.54303 0.0
C311 C 0.33003 0.60849 0.6073 0.0
O312 O 0.22032 0.65683 0.64009 0.0
O313 O 0.20624 0.57756 0.62977 0.0
In314 In 0.63805 0.26553 0.75561 0.0
O315 O 0.72632 0.28854 0.7576 0.0
O316 O 0.7068 0.34899 0.77288 0.0
C317 C 0.6088 0.19845 0.68693 0.0
C318 C 0.60325 0.20254 0.82734 0.0
C319 C 0.60071 0.33167 0.73392 0.0
O320 O 0.65677 0.23517 0.69307 0.0
O321 O 0.57631 0.19493 0.71585 0.0
O322 O 0.61115 0.32611 0.77266 0.0
O323 O 0.60848 0.30366 0.7066 0.0
C324 C 0.7428 0.3365 0.76932 0.0
O325 O 0.57491 0.21828 0.80811 0.0
O326 O 0.64865 0.2189 0.81073 0.0
In327 In 0.39039 0.64052 0.9211 0.0
O328 O 0.30072 0.58056 0.92351 0.0
O329 O 0.32827 0.64762 0.8808 0.0
C330 C 0.4256 0.60919 0.99054 0.0
C331 C 0.42115 0.60666 0.85074 0.0
C332 C 0.42051 0.74261 0.94396 0.0
O333 O 0.37692 0.59565 0.98572 0.0
O334 O 0.45583 0.63767 0.96034 0.0
O335 O 0.4475 0.73149 0.918 0.0
O336 O 0.37874 0.70239 0.9584 0.0
C337 C 0.28891 0.60524 0.89562 0.0
O338 O 0.4427 0.65581 0.86098 0.0
O339 O 0.38482 0.5749 0.87617 0.0
In340 In 0.76857 0.39251 0.08282 0.0
O341 O 0.81088 0.37854 0.13994 0.0
O342 O 0.82485 0.45778 0.12976 0.0
C343 C 0.69638 0.29025 0.06174 0.0
C344 C 0.70112 0.42687 0.10723 0.0
C345 C 0.83378 0.42236 0.01269 0.0
O346 O 0.73089 0.30174 0.09119 0.0
O347 O 0.69853 0.33029 0.0429 0.0
O348 O 0.80043 0.43808 0.01873 0.0
O349 O 0.83482 0.3927 0.04224 0.0
C350 C 0.83408 0.42689 0.15256 0.0
O351 O 0.73877 0.45258 0.08055 0.0
O352 O 0.69759 0.38394 0.12143 0.0
In353 In 0.39294 0.76979 0.25544 0.0
O354 O 0.41987 0.70927 0.27255 0.0
O355 O 0.42264 0.73169 0.20648 0.0
C356 C 0.42771 0.83272 0.32724 0.0
C357 C 0.42214 0.83687 0.1868 0.0
C358 C 0.28819 0.69883 0.26911 0.0
O359 O 0.45608 0.81704 0.30798 0.0
O360 O 0.38229 0.81634 0.31063 0.0
O361 O 0.3047 0.74687 0.25764 0.0
O362 O 0.32415 0.68626 0.2724 0.0
C363 C 0.43038 0.7037 0.23383 0.0
O364 O 0.3742 0.80004 0.19285 0.0
O365 O 0.45462 0.84049 0.21578 0.0
loop_
_geom_bond_atom_site_label_1
_geom_bond_atom_site_label_2
_geom_bond_distance
_geom_bond_site_symmetry_2
_ccdc_geom_bond_type
H0 C19 0.949 . S
H1 C20 0.950 . S
H2 C22 0.950 . S
H3 C23 0.950 . S
H4 C25 0.950 . S
H5 C28 0.950 . S
H6 C29 0.950 . S
H7 C31 0.951 . S
H8 C32 0.949 . S
H9 C34 0.949 . S
H10 C35 0.950 . S
H11 C37 0.950 . S
H12 C38 0.950 . S
H13 C40 0.950 1_655 S
H14 C43 0.950 . S
H15 C44 0.950 . S
H16 C46 0.951 . S
H17 C47 0.949 . S
C18 C19 1.376 . S
C18 C23 1.386 . S
C18 C24 1.483 . S
C19 H0 0.949 . S
C19 C18 1.376 . S
C19 C20 1.397 . S
C20 H1 0.950 . S
C20 C19 1.397 . S
C20 C21 1.391 . S
C21 C20 1.391 . S
C21 C22 1.405 . S
C22 H2 0.950 . S
C22 C21 1.405 . S
C22 C23 1.367 . S
C23 H3 0.950 . S
C23 C18 1.386 . S
C23 C22 1.367 . S
C24 C18 1.483 . S
C24 C25 1.382 1_655 S
C24 C26 1.403 . S
C25 H4 0.950 . S
C25 C24 1.382 1_455 S
C25 C41 1.411 . S
C26 C24 1.403 . S
C26 C27 1.489 . S
C26 C40 1.411 1_655 S
C27 C26 1.489 . S
C27 C28 1.383 . S
C27 C32 1.382 . S
C28 H5 0.950 . S
C28 C27 1.383 . S
C28 C29 1.395 . S
C29 H6 0.950 . S
C29 C28 1.395 . S
C29 C30 1.288 . S
C30 C29 1.288 . S
C30 C31 1.392 . S
C31 H7 0.951 . S
C31 C30 1.392 . S
C31 C32 1.392 . S
C32 H8 0.949 . S
C32 C27 1.382 . S
C32 C31 1.392 . S
C33 C34 1.376 . S
C33 C38 1.386 . S
C33 C39 1.483 . S
C34 H9 0.949 . S
C34 C33 1.376 . S
C34 C35 1.397 . S
C35 H10 0.950 . S
C35 C34 1.397 . S
C35 C36 1.391 . S
C36 C35 1.391 . S
C36 C37 1.405 . S
C37 H11 0.950 . S
C37 C36 1.405 . S
C37 C38 1.367 . S
C38 H12 0.950 . S
C38 C33 1.386 . S
C38 C37 1.367 . S
C39 C33 1.483 . S
C39 C40 1.382 . S
C39 C41 1.403 . S
C40 H13 0.950 1_455 S
C40 C26 1.411 1_455 S
C40 C39 1.382 . S
C41 C25 1.411 . S
C41 C39 1.403 . S
C41 C42 1.489 . S
C42 C41 1.489 . S
C42 C43 1.383 . S
C42 C47 1.382 . S
C43 H14 0.950 . S
C43 C42 1.383 . S
C43 C44 1.395 . S
C44 H15 0.950 . S
C44 C43 1.395 . S
C44 C45 1.288 . S
C45 C44 1.288 . S
C45 C46 1.392 . S
C46 H16 0.951 . S
C46 C45 1.392 . S
C46 C47 1.392 . S
C47 H17 0.949 . S
C47 C42 1.382 . S
C47 C46 1.392 . S
H48 C67 0.949 . S
H49 C68 0.950 . S
H50 C70 0.950 . S
H51 C71 0.950 . S
H52 C73 0.950 . S
H53 C76 0.950 . S
H54 C77 0.950 . S
H55 C79 0.951 . S
H56 C80 0.949 . S
H57 C82 0.949 . S
H58 C83 0.950 . S
H59 C85 0.950 . S
H60 C86 0.950 . S
H61 C88 0.950 . S
H62 C91 0.950 . S
H63 C92 0.950 . S
H64 C94 0.951 . S
H65 C95 0.949 . S
C66 C67 1.376 . S
C66 C71 1.386 . S
C66 C72 1.483 . S
C67 H48 0.949 . S
C67 C66 1.376 . S
C67 C68 1.397 . S
C68 H49 0.950 . S
C68 C67 1.397 . S
C68 C69 1.391 . S
C69 C68 1.391 . S
C69 C70 1.405 . S
C70 H50 0.950 . S
C70 C69 1.405 . S
C70 C71 1.367 . S
C71 H51 0.950 . S
C71 C66 1.386 . S
C71 C70 1.367 . S
C72 C66 1.483 . S
C72 C73 1.382 . S
C72 C74 1.403 . S
C73 H52 0.950 . S
C73 C72 1.382 . S
C73 C89 1.411 1_565 S
C74 C72 1.403 . S
C74 C75 1.489 . S
C74 C88 1.411 1_565 S
C75 C74 1.489 . S
C75 C76 1.383 . S
C75 C80 1.382 . S
C76 H53 0.950 . S
C76 C75 1.383 . S
C76 C77 1.395 . S
C77 H54 0.950 . S
C77 C76 1.395 . S
C77 C78 1.288 . S
C78 C77 1.288 . S
C78 C79 1.392 . S
C79 H55 0.951 . S
C79 C78 1.392 . S
C79 C80 1.392 . S
C80 H56 0.949 . S
C80 C75 1.382 . S
C80 C79 1.392 . S
C81 C82 1.376 . S
C81 C86 1.386 . S
C81 C87 1.483 . S
C82 H57 0.949 . S
C82 C81 1.376 . S
C82 C83 1.397 . S
C83 H58 0.950 . S
C83 C82 1.397 . S
C83 C84 1.391 . S
C84 C83 1.391 . S
C84 C85 1.405 . S
C85 H59 0.950 . S
C85 C84 1.405 . S
C85 C86 1.367 . S
C86 H60 0.950 . S
C86 C81 1.386 . S
C86 C85 1.367 . S
C87 C81 1.483 . S
C87 C88 1.382 . S
C87 C89 1.403 . S
C88 H61 0.950 . S
C88 C74 1.411 1_545 S
C88 C87 1.382 . S
C89 C73 1.411 1_545 S
C89 C87 1.403 . S
C89 C90 1.489 . S
C90 C89 1.489 . S
C90 C91 1.383 . S
C90 C95 1.382 . S
C91 H62 0.950 . S
C91 C90 1.383 . S
C91 C92 1.395 . S
C92 H63 0.950 . S
C92 C91 1.395 . S
C92 C93 1.288 . S
C93 C92 1.288 . S
C93 C94 1.392 . S
C94 H64 0.951 . S
C94 C93 1.392 . S
C94 C95 1.392 . S
C95 H65 0.949 . S
C95 C90 1.382 . S
C95 C94 1.392 . S
H96 C115 0.949 . S
H97 C116 0.950 . S
H98 C118 0.950 . S
H99 C119 0.950 . S
H100 C121 0.950 . S
H101 C124 0.950 . S
H102 C125 0.950 . S
H103 C127 0.951 . S
H104 C128 0.949 . S
H105 C130 0.949 . S
H106 C131 0.950 . S
H107 C133 0.950 . S
H108 C134 0.950 . S
H109 C136 0.950 . S
H110 C139 0.950 . S
H111 C140 0.950 . S
H112 C142 0.951 . S
H113 C143 0.949 . S
C114 C115 1.376 . S
C114 C119 1.386 . S
C114 C120 1.483 . S
C115 H96 0.949 . S
C115 C114 1.376 . S
C115 C116 1.397 . S
C116 H97 0.950 . S
C116 C115 1.397 . S
C116 C117 1.391 . S
C117 C116 1.391 . S
C117 C118 1.405 . S
C118 H98 0.950 . S
C118 C117 1.405 . S
C118 C119 1.367 . S
C119 H99 0.950 . S
C119 C114 1.386 . S
C119 C118 1.367 . S
C120 C114 1.483 . S
C120 C121 1.382 . S
C120 C122 1.403 . S
C121 H100 0.950 . S
C121 C120 1.382 . S
C121 C137 1.411 . S
C122 C120 1.403 . S
C122 C123 1.489 . S
C122 C136 1.411 . S
C123 C122 1.489 . S
C123 C124 1.383 . S
C123 C128 1.382 . S
C124 H101 0.950 . S
C124 C123 1.383 . S
C124 C125 1.395 . S
C125 H102 0.950 . S
C125 C124 1.395 . S
C125 C126 1.288 . S
C126 C125 1.288 . S
C126 C127 1.392 . S
C127 H103 0.951 . S
C127 C126 1.392 . S
C127 C128 1.392 . S
C128 H104 0.949 . S
C128 C123 1.382 . S
C128 C127 1.392 . S
C129 C130 1.376 . S
C129 C134 1.386 . S
C129 C135 1.483 . S
C130 H105 0.949 . S
C130 C129 1.376 . S
C130 C131 1.397 . S
C131 H106 0.950 . S
C131 C130 1.397 . S
C131 C132 1.391 . S
C132 C131 1.391 . S
C132 C133 1.405 . S
C133 H107 0.950 . S
C133 C132 1.405 . S
C133 C134 1.367 . S
C134 H108 0.950 . S
C134 C129 1.386 . S
C134 C133 1.367 . S
C135 C129 1.483 . S
C135 C136 1.382 . S
C135 C137 1.403 . S
C136 H109 0.950 . S
C136 C122 1.411 . S
C136 C135 1.382 . S
C137 C121 1.411 . S
C137 C135 1.403 . S
C137 C138 1.489 . S
C138 C137 1.489 . S
C138 C139 1.383 . S
C138 C143 1.382 . S
C139 H110 0.950 . S
C139 C138 1.383 . S
C139 C140 1.395 . S
C140 H111 0.950 . S
C140 C139 1.395 . S
C140 C141 1.288 . S
C141 C140 1.288 . S
C141 C142 1.392 . S
C142 H112 0.951 . S
C142 C141 1.392 . S
C142 C143 1.392 . S
C143 H113 0.949 . S
C143 C138 1.382 . S
C143 C142 1.392 . S
H144 C163 0.949 . S
H145 C164 0.950 . S
H146 C166 0.950 . S
H147 C167 0.950 . S
H148 C169 0.945 1_655 S
H149 C172 0.950 . S
H150 C173 0.950 . S
H151 C175 0.951 . S
H152 C176 0.949 . S
H153 C178 0.949 . S
H154 C179 0.950 . S
H155 C181 0.950 . S
H156 C182 0.950 . S
H157 C184 0.950 . S
H158 C187 0.950 . S
H159 C188 0.950 . S
H160 C190 0.951 . S
H161 C191 0.949 . S
C162 C163 1.376 . S
C162 C167 1.386 . S
C162 C168 1.483 . S
C163 H144 0.949 . S
C163 C162 1.376 . S
C163 C164 1.397 . S
C164 H145 0.950 . S
C164 C163 1.397 . S
C164 C165 1.391 . S
C165 C164 1.391 . S
C165 C166 1.405 . S
C166 H146 0.950 . S
C166 C165 1.405 . S
C166 C167 1.367 . S
C167 H147 0.950 . S
C167 C162 1.386 . S
C167 C166 1.367 . S
C168 C162 1.483 . S
C168 C169 1.396 . S
C168 C170 1.403 . S
C169 H148 0.945 1_455 S
C169 C168 1.396 . S
C169 C185 1.402 1_455 S
C170 C168 1.403 . S
C170 C171 1.489 . S
C170 C184 1.411 . S
C171 C170 1.489 . S
C171 C172 1.383 . S
C171 C176 1.382 . S
C172 H149 0.950 . S
C172 C171 1.383 . S
C172 C173 1.395 . S
C173 H150 0.950 . S
C173 C172 1.395 . S
C173 C174 1.288 . S
C174 C173 1.288 . S
C174 C175 1.392 . S
C175 H151 0.951 . S
C175 C174 1.392 . S
C175 C176 1.392 . S
C176 H152 0.949 . S
C176 C171 1.382 . S
C176 C175 1.392 . S
C177 C178 1.376 . S
C177 C182 1.386 . S
C177 C183 1.483 . S
C178 H153 0.949 . S
C178 C177 1.376 . S
C178 C179 1.397 . S
C179 H154 0.950 . S
C179 C178 1.397 . S
C179 C180 1.391 . S
C180 C179 1.391 . S
C180 C181 1.405 . S
C181 H155 0.950 . S
C181 C180 1.405 . S
C181 C182 1.367 . S
C182 H156 0.950 . S
C182 C177 1.386 . S
C182 C181 1.367 . S
C183 C177 1.483 . S
C183 C184 1.382 1_655 S
C183 C185 1.403 . S
C184 H157 0.950 . S
C184 C170 1.411 . S
C184 C183 1.382 1_455 S
C185 C169 1.402 1_655 S
C185 C183 1.403 . S
C185 C186 1.489 . S
C186 C185 1.489 . S
C186 C187 1.383 . S
C186 C191 1.382 . S
C187 H158 0.950 . S
C187 C186 1.383 . S
C187 C188 1.395 . S
C188 H159 0.950 . S
C188 C187 1.395 . S
C188 C189 1.288 . S
C189 C188 1.288 . S
C189 C190 1.392 . S
C190 H160 0.951 . S
C190 C189 1.392 . S
C190 C191 1.392 . S
C191 H161 0.949 . S
C191 C186 1.382 . S
C191 C190 1.392 . S
H192 C211 0.949 . S
H193 C212 0.950 . S
H194 C214 0.950 . S
H195 C215 0.954 . S
H196 C217 0.950 . S
H197 C220 0.950 . S
H198 C221 0.950 . S
H199 C223 0.951 . S
H200 C224 0.949 . S
H201 C226 0.949 . S
H202 C227 0.950 . S
H203 C229 0.950 . S
H204 C230 0.939 1_554 S
H205 C232 0.950 . S
H206 C235 0.950 . S
H207 C236 0.950 . S
H208 C238 0.951 . S
H209 C239 0.949 . S
C210 C211 1.376 . S
C210 C215 1.385 1_554 S
C210 C216 1.478 1_554 S
C211 H192 0.949 . S
C211 C210 1.376 . S
C211 C212 1.397 . S
C212 H193 0.950 . S
C212 C211 1.397 . S
C212 C213 1.391 . S
C213 C212 1.391 . S
C213 C214 1.405 . S
C214 H194 0.950 . S
C214 C213 1.405 . S
C214 C215 1.365 1_554 S
C215 H195 0.954 . S
C215 C210 1.385 1_556 S
C215 C214 1.365 1_556 S
C216 C210 1.478 1_556 S
C216 C217 1.364 1_556 S
C216 C218 1.424 . S
C217 H196 0.950 . S
C217 C216 1.364 1_554 S
C217 C233 1.411 1_545 S
C218 C216 1.424 . S
C218 C219 1.489 . S
C218 C232 1.411 1_545 S
C219 C218 1.489 . S
C219 C220 1.383 . S
C219 C224 1.382 . S
C220 H197 0.950 . S
C220 C219 1.383 . S
C220 C221 1.395 . S
C221 H198 0.950 . S
C221 C220 1.395 . S
C221 C222 1.288 . S
C222 C221 1.288 . S
C222 C223 1.392 . S
C223 H199 0.951 . S
C223 C222 1.392 . S
C223 C224 1.392 . S
C224 H200 0.949 . S
C224 C219 1.382 . S
C224 C223 1.392 . S
C225 C226 1.376 . S
C225 C230 1.386 . S
C225 C231 1.483 . S
C226 H201 0.949 . S
C226 C225 1.376 . S
C226 C227 1.397 . S
C227 H202 0.950 . S
C227 C226 1.397 . S
C227 C228 1.391 . S
C228 C227 1.391 . S
C228 C229 1.405 . S
C229 H203 0.950 . S
C229 C228 1.405 . S
C229 C230 1.367 . S
C230 H204 0.939 1_556 S
C230 C225 1.386 . S
C230 C229 1.367 . S
C231 C225 1.483 . S
C231 C232 1.382 . S
C231 C233 1.403 1_556 S
C232 H205 0.950 . S
C232 C218 1.411 1_565 S
C232 C231 1.382 . S
C233 C217 1.411 1_565 S
C233 C231 1.403 1_554 S
C233 C234 1.489 . S
C234 C233 1.489 . S
C234 C235 1.383 . S
C234 C239 1.382 . S
C235 H206 0.950 . S
C235 C234 1.383 . S
C235 C236 1.395 . S
C236 H207 0.950 . S
C236 C235 1.395 . S
C236 C237 1.288 . S
C237 C236 1.288 . S
C237 C238 1.392 . S
C238 H208 0.951 . S
C238 C237 1.392 . S
C238 C239 1.392 . S
C239 H209 0.949 . S
C239 C234 1.382 . S
C239 C238 1.392 . S
H240 C259 0.949 . S
H241 C260 0.950 . S
H242 C262 0.950 . S
H243 C263 0.950 . S
H244 C265 0.950 . S
H245 C268 0.950 . S
H246 C269 0.950 . S
H247 C271 0.951 . S
H248 C272 0.949 . S
H249 C274 0.949 . S
H250 C275 0.950 . S
H251 C277 0.950 . S
H252 C278 0.950 . S
H253 C280 0.950 . S
H254 C283 0.950 . S
H255 C284 0.950 . S
H256 C286 0.951 . S
H257 C287 0.949 . S
C258 C259 1.376 . S
C258 C263 1.386 . S
C258 C264 1.483 . S
C259 H240 0.949 . S
C259 C258 1.376 . S
C259 C260 1.397 . S
C260 H241 0.950 . S
C260 C259 1.397 . S
C260 C261 1.391 . S
C261 C260 1.391 . S
C261 C262 1.405 . S
C262 H242 0.950 . S
C262 C261 1.405 . S
C262 C263 1.367 . S
C263 H243 0.950 . S
C263 C258 1.386 . S
C263 C262 1.367 . S
C264 C258 1.483 . S
C264 C265 1.382 . S
C264 C266 1.403 . S
C265 H244 0.950 . S
C265 C264 1.382 . S
C265 C281 1.411 . S
C266 C264 1.403 . S
C266 C267 1.489 . S
C266 C280 1.411 . S
C267 C266 1.489 . S
C267 C268 1.383 . S
C267 C272 1.382 . S
C268 H245 0.950 . S
C268 C267 1.383 . S
C268 C269 1.395 . S
C269 H246 0.950 . S
C269 C268 1.395 . S
C269 C270 1.288 . S
C270 C269 1.288 . S
C270 C271 1.392 . S
C271 H247 0.951 . S
C271 C270 1.392 . S
C271 C272 1.392 . S
C272 H248 0.949 . S
C272 C267 1.382 . S
C272 C271 1.392 . S
C273 C274 1.376 . S
C273 C278 1.386 . S
C273 C279 1.483 . S
C274 H249 0.949 . S
C274 C273 1.376 . S
C274 C275 1.397 . S
C275 H250 0.950 . S
C275 C274 1.397 . S
C275 C276 1.391 . S
C276 C275 1.391 . S
C276 C277 1.405 . S
C277 H251 0.950 . S
C277 C276 1.405 . S
C277 C278 1.367 . S
C278 H252 0.950 . S
C278 C273 1.386 . S
C278 C277 1.367 . S
C279 C273 1.483 . S
C279 C280 1.382 . S
C279 C281 1.403 . S
C280 H253 0.950 . S
C280 C266 1.411 . S
C280 C279 1.382 . S
C281 C265 1.411 . S
C281 C279 1.403 . S
C281 C282 1.489 . S
C282 C281 1.489 . S
C282 C283 1.383 . S
C282 C287 1.382 . S
C283 H254 0.950 . S
C283 C282 1.383 . S
C283 C284 1.395 . S
C284 H255 0.950 . S
C284 C283 1.395 . S
C284 C285 1.288 . S
C285 C284 1.288 . S
C285 C286 1.392 . S
C286 H256 0.951 . S
C286 C285 1.392 . S
C286 C287 1.392 . S
C287 H257 0.949 . S
C287 C282 1.382 . S
C287 C286 1.392 . S
In288 O289 2.294 . S
In288 O290 2.326 . S
In288 O294 2.266 . S
In288 O295 2.326 . S
In288 O296 2.266 . S
In288 O297 2.326 . S
In288 O299 2.294 . S
In288 O300 2.326 . S
O289 In288 2.294 . S
O289 C298 1.240 . S
O290 In288 2.326 . S
O290 C298 1.252 . S
C291 O294 1.252 . S
C291 O295 1.260 . S
C292 O299 1.240 . S
C292 O300 1.252 . S
C293 O296 1.252 . S
C293 O297 1.260 . S
O294 In288 2.266 . S
O294 C291 1.252 . S
O295 In288 2.326 . S
O295 C291 1.260 . S
O296 In288 2.266 . S
O296 C293 1.252 . S
O297 In288 2.326 . S
O297 C293 1.260 . S
C298 O289 1.240 . S
C298 O290 1.252 . S
O299 In288 2.294 . S
O299 C292 1.240 . S
O300 In288 2.326 . S
O300 C292 1.252 . S
In301 O302 2.294 . S
In301 O303 2.326 . S
In301 O307 2.266 . S
In301 O308 2.326 . S
In301 O309 2.266 . S
In301 O310 2.326 . S
In301 O312 2.294 . S
In301 O313 2.326 . S
O302 In301 2.294 . S
O302 C311 1.240 . S
O303 In301 2.326 . S
O303 C311 1.252 . S
C304 O307 1.252 . S
C304 O308 1.260 . S
C305 O312 1.240 . S
C305 O313 1.252 . S
C306 O309 1.252 . S
C306 O310 1.260 . S
O307 In301 2.266 . S
O307 C304 1.252 . S
O308 In301 2.326 . S
O308 C304 1.260 . S
O309 In301 2.266 . S
O309 C306 1.252 . S
O310 In301 2.326 . S
O310 C306 1.260 . S
C311 O302 1.240 . S
C311 O303 1.252 . S
O312 In301 2.294 . S
O312 C305 1.240 . S
O313 In301 2.326 . S
O313 C305 1.252 . S
In314 O315 2.294 . S
In314 O316 2.326 . S
In314 O320 2.266 . S
In314 O321 2.326 . S
In314 O322 2.266 . S
In314 O323 2.326 . S
In314 O325 2.294 . S
In314 O326 2.326 . S
O315 In314 2.294 . S
O315 C324 1.240 . S
O316 In314 2.326 . S
O316 C324 1.252 . S
C317 O320 1.252 . S
C317 O321 1.260 . S
C318 O325 1.240 . S
C318 O326 1.252 . S
C319 O322 1.252 . S
C319 O323 1.260 . S
O320 In314 2.266 . S
O320 C317 1.252 . S
O321 In314 2.326 . S
O321 C317 1.260 . S
O322 In314 2.266 . S
O322 C319 1.252 . S
O323 In314 2.326 . S
O323 C319 1.260 . S
C324 O315 1.240 . S
C324 O316 1.252 . S
O325 In314 2.294 . S
O325 C318 1.240 . S
O326 In314 2.326 . S
O326 C318 1.252 . S
In327 O328 2.294 . S
In327 O329 2.326 . S
In327 O333 2.266 . S
In327 O334 2.326 . S
In327 O335 2.266 . S
In327 O336 2.326 . S
In327 O338 2.294 . S
In327 O339 2.326 . S
O328 In327 2.294 . S
O328 C337 1.240 . S
O329 In327 2.326 . S
O329 C337 1.252 . S
C330 O333 1.252 . S
C330 O334 1.260 . S
C331 O338 1.240 . S
C331 O339 1.252 . S
C332 O335 1.252 . S
C332 O336 1.260 . S
O333 In327 2.266 . S
O333 C330 1.252 . S
O334 In327 2.326 . S
O334 C330 1.260 . S
O335 In327 2.266 . S
O335 C332 1.252 . S
O336 In327 2.326 . S
O336 C332 1.260 . S
C337 O328 1.240 . S
C337 O329 1.252 . S
O338 In327 2.294 . S
O338 C331 1.240 . S
O339 In327 2.326 . S
O339 C331 1.252 . S
In340 O341 2.294 . S
In340 O342 2.326 . S
In340 O346 2.266 . S
In340 O347 2.326 . S
In340 O348 2.266 . S
In340 O349 2.326 . S
In340 O351 2.294 . S
In340 O352 2.326 . S
O341 In340 2.294 . S
O341 C350 1.240 . S
O342 In340 2.326 . S
O342 C350 1.252 . S
C343 O346 1.252 . S
C343 O347 1.260 . S
C344 O351 1.240 . S
C344 O352 1.252 . S
C345 O348 1.252 . S
C345 O349 1.260 . S
O346 In340 2.266 . S
O346 C343 1.252 . S
O347 In340 2.326 . S
O347 C343 1.260 . S
O348 In340 2.266 . S
O348 C345 1.252 . S
O349 In340 2.326 . S
O349 C345 1.260 . S
C350 O341 1.240 . S
C350 O342 1.252 . S
O351 In340 2.294 . S
O351 C344 1.240 . S
O352 In340 2.326 . S
O352 C344 1.252 . S
In353 O354 2.294 . S
In353 O355 2.326 . S
In353 O359 2.266 . S
In353 O360 2.326 . S
In353 O361 2.266 . S
In353 O362 2.326 . S
In353 O364 2.294 . S
In353 O365 2.326 . S
O354 In353 2.294 . S
O354 C363 1.240 . S
O355 In353 2.326 . S
O355 C363 1.252 . S
C356 O359 1.252 . S
C356 O360 1.260 . S
C357 O364 1.240 . S
C357 O365 1.252 . S
C358 O361 1.252 . S
C358 O362 1.260 . S
O359 In353 2.266 . S
O359 C356 1.252 . S
O360 In353 2.326 . S
O360 C356 1.260 . S
O361 In353 2.266 . S
O361 C358 1.252 . S
O362 In353 2.326 . S
O362 C358 1.260 . S
C363 O354 1.240 . S
C363 O355 1.252 . S
O364 In353 2.294 . S
O364 C357 1.240 . S
O365 In353 2.326 . S
O365 C357 1.252 . S
C358 C45 1.657 . S
C84 C293 1.637 . S
C126 C311 1.594 . S
C189 C324 1.651 . S
C332 C228 1.645 . S
C270 C344 1.593 . S
C69 C306 1.615 . S
C141 C319 1.657 . S
C174 C337 1.593 . S
C343 C213 1.621 . S
C363 C285 1.651 . S
C298 C30 1.595 . S
C36 C304 1.754 . S
C93 C317 1.795 . S
C331 C117 1.709 . S
C180 C345 1.759 1_556 S
C357 C237 1.780 . S
C292 C261 1.707 . S
C356 C78 1.675 . S
C132 C291 1.754 . S
C305 C165 1.707 . S
C222 C318 1.661 . S
C276 C330 1.759 1_554 S
C21 C350 1.709 . S
