# Generated by pormake.
# Topology zzz, (3,6)-cn, num edge types: 1
# Building blocks:
#     Node 0, Type 0, BuildingBlock: QEWDON_clean_linker_0, # of connection points: 3
#     Node 1, Type 0, BuildingBlock: QEWDON_clean_linker_0, # of connection points: 3
#     Node 2, Type 0, BuildingBlock: QEWDON_clean_linker_0, # of connection points: 3
#     Node 3, Type 0, BuildingBlock: QEWDON_clean_linker_0, # of connection points: 3
#     Node 4, Type 0, BuildingBlock: QEWDON_clean_linker_0, # of connection points: 3
#     Node 5, Type 0, BuildingBlock: QEWDON_clean_linker_0, # of connection points: 3
#     Node 6, Type 0, BuildingBlock: QEWDON_clean_linker_0, # of connection points: 3
#     Node 7, Type 0, BuildingBlock: QEWDON_clean_linker_0, # of connection points: 3
#     Node 8, Type 1, BuildingBlock: BETDEL_clean_sbu_0, # of connection points: 6
#     Node 9, Type 1, BuildingBlock: BETDEL_clean_sbu_0, # of connection points: 6
#     Node 10, Type 1, BuildingBlock: BETDEL_clean_sbu_0, # of connection points: 6
#     Node 11, Type 1, BuildingBlock: BETDEL_clean_sbu_0, # of connection points: 6
#     Edge 12, Type (0, 1), BuildingBlock: ZUJKAS_clean_linker_0, # of connection points: 2
#     Edge 13, Type (0, 1), BuildingBlock: ZUJKAS_clean_linker_0, # of connection points: 2
#     Edge 14, Type (0, 1), BuildingBlock: ZUJKAS_clean_linker_0, # of connection points: 2
#     Edge 15, Type (0, 1), BuildingBlock: ZUJKAS_clean_linker_0, # of connection points: 2
#     Edge 16, Type (0, 1), BuildingBlock: ZUJKAS_clean_linker_0, # of connection points: 2
#     Edge 17, Type (0, 1), BuildingBlock: ZUJKAS_clean_linker_0, # of connection points: 2
#     Edge 18, Type (0, 1), BuildingBlock: ZUJKAS_clean_linker_0, # of connection points: 2
#     Edge 19, Type (0, 1), BuildingBlock: ZUJKAS_clean_linker_0, # of connection points: 2
#     Edge 20, Type (0, 1), BuildingBlock: ZUJKAS_clean_linker_0, # of connection points: 2
#     Edge 21, Type (0, 1), BuildingBlock: ZUJKAS_clean_linker_0, # of connection points: 2
#     Edge 22, Type (0, 1), BuildingBlock: ZUJKAS_clean_linker_0, # of connection points: 2
#     Edge 23, Type (0, 1), BuildingBlock: ZUJKAS_clean_linker_0, # of connection points: 2
#     Edge 24, Type (0, 1), BuildingBlock: ZUJKAS_clean_linker_0, # of connection points: 2
#     Edge 25, Type (0, 1), BuildingBlock: ZUJKAS_clean_linker_0, # of connection points: 2
#     Edge 26, Type (0, 1), BuildingBlock: ZUJKAS_clean_linker_0, # of connection points: 2
#     Edge 27, Type (0, 1), BuildingBlock: ZUJKAS_clean_linker_0, # of connection points: 2
#     Edge 28, Type (0, 1), BuildingBlock: ZUJKAS_clean_linker_0, # of connection points: 2
#     Edge 29, Type (0, 1), BuildingBlock: ZUJKAS_clean_linker_0, # of connection points: 2
#     Edge 30, Type (0, 1), BuildingBlock: ZUJKAS_clean_linker_0, # of connection points: 2
#     Edge 31, Type (0, 1), BuildingBlock: ZUJKAS_clean_linker_0, # of connection points: 2
#     Edge 32, Type (0, 1), BuildingBlock: ZUJKAS_clean_linker_0, # of connection points: 2
#     Edge 33, Type (0, 1), BuildingBlock: ZUJKAS_clean_linker_0, # of connection points: 2
#     Edge 34, Type (0, 1), BuildingBlock: ZUJKAS_clean_linker_0, # of connection points: 2
#     Edge 35, Type (0, 1), BuildingBlock: ZUJKAS_clean_linker_0, # of connection points: 2
# Relax obj value: 0.088
# Max RMSD: 0.190
# Mean RMSD: 0.068
data_MOF--net-zzz--node1-BETDEL_clean_sbu_0--node2-QEWDON_clean_linker_0--edge1-ZUJKAS_clean_linker_0
_symmetry_space_group_name_H-M    P1
_symmetry_Int_Tables_number       1
_symmetry_cell_setting            triclinic
loop_
_symmetry_equiv_pos_as_xyz
'x, y, z'
_cell_length_a     68.607815
_cell_length_b     69.885165
_cell_length_c     18.741607
_cell_angle_alpha  91.651939
_cell_angle_beta   88.267614
_cell_angle_gamma 94.629182
loop_
_atom_site_label
_atom_site_type_symbol
_atom_site_fract_x
_atom_site_fract_y
_atom_site_fract_z
_atom_type_partial_charge
H0 H 0.76421 0.52086 0.9952 0.0
C1 C 0.77178 0.51649 0.04121 0.0
C2 C 0.79058 0.51018 0.03148 0.0
C3 C 0.76324 0.51799 0.1105 0.0
H4 H 0.81591 0.50159 0.08288 0.0
C5 C 0.80097 0.50548 0.09064 0.0
C6 C 0.79338 0.50772 0.15991 0.0
C7 C 0.77442 0.51381 0.16994 0.0
C8 C 0.7433 0.52512 0.1209 0.0
H9 H 0.76855 0.51533 0.2239 0.0
C10 C 0.72832 0.52047 0.0713 0.0
C11 C 0.7096 0.52736 0.08193 0.0
C12 C 0.73921 0.53702 0.18047 0.0
H13 H 0.75037 0.54145 0.21849 0.0
C14 C 0.72077 0.54379 0.19119 0.0
H15 H 0.73102 0.5112 0.02535 0.0
C16 C 0.70608 0.539 0.1426 0.0
H17 H 0.692 0.54477 0.15185 0.0
H18 H 0.71789 0.55298 0.23717 0.0
H19 H 0.99757 0.76366 0.96228 0.0
C20 C 1.00112 0.77117 0.01218 0.0
C21 C 0.01013 0.78991 0.01057 0.0
C22 C 0.9957 0.76263 0.07802 0.0
H23 H 0.01976 0.81494 0.07343 0.0
C24 C 0.01382 0.80007 0.07475 0.0
C25 C 1.00766 0.79237 0.14021 0.0
C26 C 0.99878 0.77358 0.14204 0.0
C27 C 0.98549 0.74294 0.07956 0.0
H28 H 0.99409 0.76771 0.19318 0.0
C29 C 0.99084 0.72826 0.03108 0.0
C30 C 0.98084 0.70979 0.03195 0.0
C31 C 0.96997 0.73881 0.12893 0.0
H32 H 0.96508 0.74978 0.16572 0.0
C33 C 0.96022 0.72054 0.13067 0.0
H34 H 1.00268 0.73122 0.99244 0.0
C35 C 0.96559 0.70613 0.08282 0.0
H36 H 0.95786 0.69204 0.08609 0.0
H37 H 0.94837 0.71754 0.16916 0.0
H38 H 0.75726 0.99978 0.98523 0.0
C39 C 0.74838 1.00008 0.03396 0.0
C40 C 0.73155 0.01022 0.03546 0.0
C41 C 0.75326 0.98986 0.09392 0.0
H42 H 0.70571 0.01693 0.0955 0.0
C43 C 0.71924 0.00989 0.09634 0.0
C44 C 0.72312 0.99917 0.15541 0.0
C45 C 0.7403 0.98942 0.1545 0.0
C46 C 0.77125 0.97893 0.09171 0.0
H47 H 0.74342 0.98153 0.20113 0.0
C48 C 0.78829 0.98533 0.05162 0.0
C49 C 0.80505 0.97482 0.04955 0.0
C50 C 0.77139 0.96171 0.12887 0.0
H51 H 0.75855 0.95584 0.15813 0.0
C52 C 0.78801 0.95145 0.12761 0.0
H53 H 0.78876 0.99861 0.02303 0.0
C54 C 0.80472 0.95794 0.08852 0.0
H55 H 0.81728 0.94947 0.08744 0.0
H56 H 0.78785 0.93823 0.15645 0.0
H57 H 0.52104 0.75424 0.99392 0.0
C58 C 0.51951 0.74667 0.04365 0.0
C59 C 0.51012 0.72808 0.04356 0.0
C60 C 0.52767 0.75497 0.10682 0.0
H61 H 0.50285 0.7028 0.10455 0.0
C62 C 0.50911 0.71759 0.10608 0.0
C63 C 0.51794 0.72491 0.16815 0.0
C64 C 0.52695 0.74371 0.16899 0.0
C65 C 0.53808 0.77473 0.10646 0.0
H66 H 0.53344 0.74933 0.21798 0.0
C67 C 0.53234 0.78923 0.06174 0.0
C68 C 0.54269 0.80759 0.06056 0.0
C69 C 0.5543 0.77909 0.15 0.0
H70 H 0.55973 0.76838 0.1831 0.0
C71 C 0.56415 0.79731 0.15063 0.0
H72 H 0.52001 0.78623 0.02738 0.0
C73 C 0.55841 0.81144 0.10673 0.0
H74 H 0.56634 0.82547 0.10914 0.0
H75 H 0.57647 0.80045 0.18501 0.0
H76 H 0.26118 0.51279 0.159 0.0
C77 C 0.25304 0.50821 0.11206 0.0
C78 C 0.23319 0.50199 0.12032 0.0
C79 C 0.26198 0.50943 0.04325 0.0
H80 H 0.20653 0.49337 0.06699 0.0
C81 C 0.22214 0.49713 0.06013 0.0
C82 C 0.23021 0.49914 0.99132 0.0
C83 C 0.25022 0.50508 0.98281 0.0
C84 C 0.28308 0.51665 0.03473 0.0
H85 H 0.25644 0.5064 0.92924 0.0
C86 C 0.2971 0.51264 0.08523 0.0
C87 C 0.31674 0.52039 0.07846 0.0
C88 C 0.28923 0.52831 0.97696 0.0
H89 H 0.27897 0.53223 0.93823 0.0
C90 C 0.30867 0.53557 0.96914 0.0
H91 H 0.29274 0.50375 0.13026 0.0
C92 C 0.3223 0.53169 0.01927 0.0
H93 H 0.3373 0.53755 0.01151 0.0
H94 H 0.31316 0.54447 0.92427 0.0
H95 H 1.00859 0.25502 0.1818 0.0
C96 C 0.01331 0.24789 0.13291 0.0
C97 C 0.02151 0.2302 0.13674 0.0
C98 C 0.01008 0.25572 0.06607 0.0
H99 H 0.03203 0.20629 0.07626 0.0
C100 C 0.02672 0.22046 0.07359 0.0
C101 C 0.02286 0.22747 0.00695 0.0
C102 C 0.01468 0.24516 0.00305 0.0
C103 C 1.00031 0.27397 0.06242 0.0
H104 H 0.01164 0.25045 0.9511 0.0
C105 C 1.00473 0.28947 0.11092 0.0
C106 C 0.99468 0.30628 0.10931 0.0
C107 C 0.98588 0.27571 0.01174 0.0
H108 H 0.98177 0.26399 0.97474 0.0
C109 C 0.97613 0.29241 0.00933 0.0
H110 H 0.01577 0.28839 0.15044 0.0
C111 C 0.98042 0.30757 0.05775 0.0
H112 H 0.97263 0.32038 0.05462 0.0
H113 H 0.96504 0.29355 0.97013 0.0
H114 H 0.26336 1.00496 0.14255 0.0
C115 C 0.27402 0.01 0.10213 0.0
C116 C 0.29388 0.01105 0.11799 0.0
C117 C 0.26811 0.01446 0.03344 0.0
H118 H 0.32338 0.01706 0.07859 0.0
C119 C 0.308 0.01671 0.066 0.0
C120 C 0.30271 0.02093 0.99718 0.0
C121 C 0.28274 0.01983 0.98086 0.0
C122 C 0.24685 0.01234 0.01599 0.0
H123 H 0.27875 0.02324 0.92753 0.0
C124 C 0.2321 0.01591 0.06821 0.0
C125 C 0.21205 0.01279 0.05251 0.0
C126 C 0.24109 1.00585 0.94744 0.0
H127 H 0.25178 1.00242 0.9064 0.0
C128 C 0.22134 1.00305 0.93129 0.0
H129 H 0.23616 0.02129 0.12088 0.0
C130 C 0.20695 1.00638 0.98321 0.0
H131 H 0.19177 1.00344 0.96935 0.0
H132 H 0.21716 0.9979 0.87847 0.0
H133 H 0.51478 0.26232 0.14515 0.0
C134 C 0.51036 0.27021 0.10027 0.0
C135 C 0.50632 0.28946 0.11116 0.0
C136 C 0.50938 0.26152 0.03125 0.0
H137 H 0.49952 0.31536 0.06122 0.0
C138 C 0.5017 0.30022 0.0532 0.0
C139 C 0.50148 0.29233 0.98417 0.0
C140 C 0.50498 0.27292 0.9731 0.0
C141 C 0.51396 0.24102 0.01931 0.0
H142 H 0.50442 0.26693 0.91924 0.0
C143 C 0.50949 0.227 0.07192 0.0
C144 C 0.51373 0.20774 0.05913 0.0
C145 C 0.52315 0.23532 0.95475 0.0
H146 H 0.52755 0.24559 0.91407 0.0
C147 C 0.52719 0.21628 0.94194 0.0
H148 H 0.50236 0.23085 0.12203 0.0
C149 C 0.52245 0.20257 0.99341 0.0
H150 H 0.526 0.18792 0.98242 0.0
H151 H 0.53423 0.21216 0.89199 0.0
Dy152 Dy 0.01815 0.99926 0.64985 0.0
C153 C 1.00548 0.04731 0.40839 0.0
C154 C 0.01111 0.97338 0.75475 0.0
Dy155 Dy 1.007 0.01983 0.50799 0.0
O156 O 0.02694 0.98495 0.74869 0.0
O157 O 0.99894 0.97682 0.70585 0.0
O158 O 0.05068 0.99814 0.62326 0.0
O159 O 0.03212 0.00906 0.55299 0.0
C160 C 0.04958 1.00548 0.56053 0.0
C161 C 0.97728 1.00645 0.59405 0.0
O162 O 0.01056 0.99059 0.46015 0.0
O163 O 0.01016 0.97546 0.56998 0.0
O164 O 0.99073 0.0403 0.44699 0.0
O165 O 0.02087 0.03844 0.4214 0.0
O166 O 0.97614 0.00705 0.52492 0.0
O167 O 0.99367 0.01409 0.61324 0.0
O168 O 0.01884 0.02939 0.69407 0.0
O169 O 0.01771 0.0439 0.5833 0.0
C170 C 0.00999 0.97491 0.49902 0.0
C171 C 0.01999 0.04481 0.65364 0.0
Dy172 Dy 0.49643 0.99816 0.52774 0.0
C173 C 0.56817 0.02808 0.66393 0.0
C174 C 0.46004 0.98841 0.47855 0.0
Dy175 Dy 0.53065 0.01922 0.62538 0.0
O176 O 0.47527 0.99359 0.43823 0.0
O177 O 0.46492 0.98806 0.54485 0.0
O178 O 0.51905 0.981 0.47049 0.0
O179 O 0.52705 0.00817 0.51634 0.0
C180 C 0.53356 0.99351 0.48655 0.0
C181 C 0.49433 0.02086 0.68439 0.0
O182 O 0.52594 0.04241 0.54862 0.0
O183 O 0.49686 0.02927 0.4974 0.0
O184 O 0.55427 0.03973 0.67203 0.0
O185 O 0.5614 0.01172 0.63626 0.0
O186 O 0.50993 0.028 0.71724 0.0
O187 O 0.49998 0.01349 0.62669 0.0
O188 O 0.49989 0.97565 0.60824 0.0
O189 O 0.52899 0.98843 0.65961 0.0
C190 C 0.51061 0.04366 0.50743 0.0
C191 C 0.5149 0.97438 0.65066 0.0
Dy192 Dy 0.50466 0.51835 0.64327 0.0
C193 C 0.5225 0.47236 0.40401 0.0
C194 C 0.50109 0.54476 0.75213 0.0
Dy195 Dy 0.51941 0.49924 0.51165 0.0
O196 O 0.48663 0.53486 0.72195 0.0
O197 O 0.5175 0.53941 0.72528 0.0
O198 O 0.47415 0.5061 0.62146 0.0
O199 O 0.49316 0.51405 0.53556 0.0
C200 C 0.47637 0.50646 0.55239 0.0
C201 C 0.54769 0.51111 0.60264 0.0
O202 O 0.51948 0.52838 0.46486 0.0
O203 O 0.51607 0.54329 0.57579 0.0
O204 O 0.53713 0.48161 0.43556 0.0
O205 O 0.50629 0.47873 0.4285 0.0
O206 O 0.54997 0.51134 0.53357 0.0
O207 O 0.53089 0.50351 0.61933 0.0
O208 O 0.50534 0.4893 0.68989 0.0
O209 O 0.50701 0.47446 0.57841 0.0
C210 C 0.51938 0.54417 0.50584 0.0
C211 C 0.50438 0.47356 0.64863 0.0
Dy212 Dy 1.00111 0.5062 0.64722 0.0
C213 C 0.04548 0.51169 0.38205 0.0
C214 C 0.97923 0.50921 0.77045 0.0
Dy215 Dy 0.02361 0.51324 0.50585 0.0
O216 O 0.98364 0.4932 0.73941 0.0
O217 O 0.98813 0.5235 0.73669 0.0
O218 O 0.98908 0.47746 0.60521 0.0
O219 O 0.01722 0.48836 0.57197 0.0
C220 C 1.00401 0.47494 0.56283 0.0
C221 C 0.01987 0.54441 0.59079 0.0
O222 O 0.99272 0.5093 0.46596 0.0
O223 O 0.97711 0.51314 0.57649 0.0
O224 O 0.03965 0.52725 0.41244 0.0
O225 O 0.03807 0.49693 0.41696 0.0
O226 O 0.0352 0.54212 0.55018 0.0
O227 O 1.00709 0.53077 0.58006 0.0
O228 O 0.03207 0.50896 0.68691 0.0
O229 O 0.04776 0.50644 0.57581 0.0
C230 C 0.97662 0.51128 0.50597 0.0
C231 C 0.04819 0.50747 0.64644 0.0
H232 H 0.17661 0.02771 0.03701 0.0
H233 H 0.14951 0.02869 0.12436 0.0
H234 H 0.18444 1.00493 0.28189 0.0
H235 H 0.21156 1.00349 0.19436 0.0
H236 H 0.13101 0.99598 0.19477 0.0
H237 H 0.16157 0.0514 0.38799 0.0
H238 H 0.17138 0.04883 0.29797 0.0
H239 H 0.17707 0.03247 0.36504 0.0
C240 C 0.1786 0.02269 0.09022 0.0
C241 C 0.19632 0.0154 0.10826 0.0
C242 C 0.16308 0.02336 0.14024 0.0
C243 C 0.16494 0.017 0.20983 0.0
C244 C 0.18275 0.01021 0.22884 0.0
H245 H 0.08785 1.0008 0.58184 0.0
H246 H 0.11529 1.00407 0.49551 0.0
C247 C 0.19829 0.00944 0.17868 0.0
C248 C 0.14786 0.01641 0.26093 0.0
H249 H 0.13171 0.03418 0.42196 0.0
C250 C 0.1311 1.00442 0.24427 0.0
C251 C 0.14802 0.02735 0.32561 0.0
C252 C 0.16539 0.04088 0.34527 0.0
C253 C 0.11469 1.00271 0.29123 0.0
C254 C 0.11479 0.0137 0.35598 0.0
C255 C 0.13155 0.0258 0.37235 0.0
C256 C 0.09798 0.01235 0.40856 0.0
C257 C 0.0977 0.98862 0.27201 0.0
C258 C 0.07906 0.01619 0.38909 0.0
C259 C 0.06328 0.01415 0.43842 0.0
C260 C 0.06616 0.00857 0.50846 0.0
C261 C 0.08515 1.00516 0.52826 0.0
C262 C 0.10088 0.00707 0.47896 0.0
H263 H 0.10207 0.97769 0.23169 0.0
H264 H 0.09144 0.98109 0.31986 0.0
H265 H 0.08608 0.99647 0.24884 0.0
H266 H 0.07645 0.02065 0.33561 0.0
H267 H 0.04881 0.01659 0.42137 0.0
H268 H 0.52546 0.20863 0.19777 0.0
H269 H 0.52342 0.18173 0.28014 0.0
H270 H 0.49056 0.1464 0.12604 0.0
H271 H 0.49318 0.17295 0.04309 0.0
H272 H 0.49472 0.15913 0.34552 0.0
H273 H 0.53549 0.11437 0.15395 0.0
H274 H 0.53316 0.13952 0.14063 0.0
H275 H 0.51366 0.12189 0.11692 0.0
C276 C 0.51757 0.19518 0.1821 0.0
C277 C 0.50966 0.19279 0.1138 0.0
C278 C 0.51647 0.1798 0.22902 0.0
C279 C 0.50734 0.1618 0.20857 0.0
C280 C 0.49826 0.15988 0.14225 0.0
H281 H 0.48599 0.05004 0.39934 0.0
H282 H 0.4848 0.07922 0.33104 0.0
C283 C 0.49961 0.17512 0.09509 0.0
C284 C 0.50787 0.14485 0.25506 0.0
H285 H 0.52071 0.09852 0.255 0.0
C286 C 0.50051 0.14593 0.32581 0.0
C287 C 0.51562 0.12761 0.22981 0.0
C288 C 0.52512 0.12581 0.15646 0.0
C289 C 0.50023 0.13013 0.37101 0.0
C290 C 0.50746 0.11281 0.34489 0.0
C291 C 0.51498 0.11177 0.27463 0.0
C292 C 0.50748 0.09556 0.38956 0.0
C293 C 0.49189 0.13186 0.44605 0.0
C294 C 0.52068 0.09504 0.44512 0.0
C295 C 0.52155 0.07829 0.48397 0.0
C296 C 0.50915 0.06173 0.46829 0.0
C297 C 0.49572 0.06247 0.41324 0.0
C298 C 0.49501 0.07916 0.374 0.0
H299 H 0.48438 0.14526 0.45509 0.0
H300 H 0.48136 0.11935 0.45765 0.0
H301 H 0.50389 0.13188 0.48443 0.0
H302 H 0.53058 0.10747 0.4575 0.0
H303 H 0.53206 0.0783 0.52595 0.0
H304 H 0.34406 0.54673 0.13471 0.0
H305 H 0.36997 0.54146 0.21655 0.0
H306 H 0.34878 0.48186 0.23012 0.0
H307 H 0.32298 0.48694 0.14612 0.0
H308 H 0.3682 0.52907 0.35456 0.0
H309 H 0.40681 0.47866 0.17634 0.0
H310 H 0.38821 0.49295 0.14487 0.0
H311 H 0.38139 0.47174 0.19464 0.0
C312 C 0.34495 0.53244 0.15457 0.0
C313 C 0.33155 0.5172 0.13292 0.0
C314 C 0.35973 0.52947 0.20181 0.0
C315 C 0.36159 0.51119 0.22865 0.0
C316 C 0.3479 0.49602 0.20903 0.0
H317 H 0.43831 0.4947 0.58461 0.0
H318 H 0.41018 0.49429 0.50699 0.0
C319 C 0.33302 0.49899 0.16164 0.0
C320 C 0.3779 0.5083 0.27715 0.0
H321 H 0.41961 0.48505 0.291 0.0
C322 C 0.37937 0.51935 0.34084 0.0
C323 C 0.39266 0.49583 0.25882 0.0
C324 C 0.39238 0.48421 0.18971 0.0
C325 C 0.39516 0.51836 0.38642 0.0
C326 C 0.4098 0.50571 0.36859 0.0
C327 C 0.40833 0.49462 0.30498 0.0
C328 C 0.42707 0.50438 0.41417 0.0
C329 C 0.39634 0.53134 0.45218 0.0
C330 C 0.44608 0.5094 0.38717 0.0
C331 C 0.46222 0.50952 0.43139 0.0
C332 C 0.45967 0.50455 0.50345 0.0
C333 C 0.44074 0.49877 0.52953 0.0
C334 C 0.42462 0.49863 0.48531 0.0
H335 H 0.38676 0.54336 0.44898 0.0
H336 H 0.39151 0.52291 0.49969 0.0
H337 H 0.41158 0.53745 0.46027 0.0
H338 H 0.44836 0.51378 0.33237 0.0
H339 H 0.47664 0.51396 0.40965 0.0
H340 H 0.96801 0.32587 0.18613 0.0
H341 H 0.97411 0.35381 0.2663 0.0
H342 H 0.03626 0.3513 0.23165 0.0
H343 H 0.03024 0.32326 0.15063 0.0
H344 H 0.99897 0.3569 0.39514 0.0
H345 H 0.02333 0.40766 0.18018 0.0
H346 H 1.00889 0.38539 0.16167 0.0
H347 H 0.03422 0.38507 0.1821 0.0
C348 C 0.98299 0.33127 0.19545 0.0
C349 C 0.99865 0.32246 0.16159 0.0
C350 C 0.98645 0.34717 0.24149 0.0
C351 C 1.00562 0.35474 0.25424 0.0
C352 C 0.02135 0.34578 0.22189 0.0
H353 H 0.03676 0.46329 0.49145 0.0
H354 H 0.03937 0.43371 0.41868 0.0
C355 C 0.0179 0.3297 0.17611 0.0
C356 C 1.00885 0.37213 0.30098 0.0
H357 H 0.02044 0.42058 0.29682 0.0
C358 C 1.00385 0.3708 0.37387 0.0
C359 C 0.01537 0.3902 0.27312 0.0
C360 C 0.02071 0.39236 0.19495 0.0
C361 C 1.00478 0.38714 0.41945 0.0
C362 C 0.01033 0.4054 0.39095 0.0
C363 C 0.01609 0.40662 0.31855 0.0
C364 C 0.00896 0.42343 0.43433 0.0
C365 C 0.99974 0.38466 0.49774 0.0
C366 C 0.99095 0.42771 0.46585 0.0
C367 C 0.98945 0.4445 0.50716 0.0
C368 C 1.00588 0.45753 0.51718 0.0
C369 C 0.02385 0.45353 0.48437 0.0
C370 C 0.02536 0.43662 0.44304 0.0
H371 H 1.00222 0.36997 0.51477 0.0
H372 H 1.00851 0.39525 0.53142 0.0
H373 H 0.98402 0.38679 0.50754 0.0
H374 H 0.97797 0.41806 0.45828 0.0
H375 H 0.97537 0.4473 0.53119 0.0
H376 H 0.84317 0.97766 0.08957 0.0
H377 H 0.87256 0.98446 0.01439 0.0
H378 H 0.83651 0.99125 0.8336 0.0
H379 H 0.80707 0.98504 0.90938 0.0
H380 H 0.88544 0.96471 0.9041 0.0
H381 H 0.87397 0.03745 0.81247 0.0
H382 H 0.85935 0.02629 0.88379 0.0
H383 H 0.85382 0.02043 0.79198 0.0
C384 C 0.84153 0.98088 0.03398 0.0
C385 C 0.8228 0.98091 0.00547 0.0
C386 C 0.85835 0.98474 0.99097 0.0
C387 C 0.85688 0.98862 0.91825 0.0
C388 C 0.83814 0.98885 0.88983 0.0
H389 H 0.93966 0.9958 0.55826 0.0
H390 H 0.91086 0.99115 0.63837 0.0
C391 C 0.82128 0.98524 0.93315 0.0
C392 C 0.87492 0.9913 0.87174 0.0
H393 H 0.89887 0.02106 0.75013 0.0
C394 C 0.88842 0.97714 0.871 0.0
C395 C 0.87895 0.00751 0.82835 0.0
C396 C 0.86586 0.02387 0.82965 0.0
C397 C 0.90551 0.97859 0.8274 0.0
C398 C 0.90925 0.99457 0.78316 0.0
C399 C 0.89589 0.00876 0.78388 0.0
C400 C 0.92692 0.99673 0.73526 0.0
C401 C 0.91932 0.96286 0.82776 0.0
C402 C 0.94553 1.00135 0.76322 0.0
C403 C 0.96201 1.00416 0.71751 0.0
C404 C 0.96018 1.00226 0.64304 0.0
C405 C 0.94157 0.99731 0.61536 0.0
C406 C 0.92509 0.99469 0.66102 0.0
H407 H 0.91302 0.95016 0.85732 0.0
H408 H 0.92315 0.95824 0.77224 0.0
H409 H 0.93308 0.96842 0.85351 0.0
H410 H 0.94724 1.00313 0.82035 0.0
H411 H 0.97613 0.00811 0.7404 0.0
H412 H 0.56783 0.83292 0.98731 0.0
H413 H 0.5601 0.8596 0.91554 0.0
H414 H 0.49852 0.84301 0.94427 0.0
H415 H 0.50614 0.81678 0.0203 0.0
H416 H 0.54245 0.8616 0.79352 0.0
H417 H 0.49943 0.89863 0.0036 0.0
H418 H 0.51343 0.87872 0.02265 0.0
H419 H 0.48992 0.87452 0.98255 0.0
C420 C 0.55259 0.83504 0.9795 0.0
C421 C 0.53762 0.82283 0.0112 0.0
C422 C 0.54819 0.85026 0.93763 0.0
C423 C 0.52871 0.85369 0.92552 0.0
C424 C 0.51367 0.84106 0.95434 0.0
H425 H 0.48627 0.94499 0.67039 0.0
H426 H 0.48852 0.9152 0.73461 0.0
C427 C 0.51807 0.82585 0.99704 0.0
C428 C 0.52448 0.87054 0.88272 0.0
H429 H 0.50192 0.91256 0.88995 0.0
C430 C 0.53353 0.87268 0.81471 0.0
C431 C 0.51286 0.88512 0.91008 0.0
C432 C 0.50349 0.88429 0.98394 0.0
C433 C 0.5315 0.88898 0.77408 0.0
C434 C 0.52012 0.90358 0.80186 0.0
C435 C 0.51062 0.90129 0.86879 0.0
C436 C 0.51865 0.92171 0.76335 0.0
C437 C 0.54165 0.89059 0.70174 0.0
C438 C 0.53479 0.93535 0.75881 0.0
C439 C 0.53353 0.95246 0.72271 0.0
C440 C 0.51611 0.95627 0.68984 0.0
C441 C 0.49994 0.94254 0.69467 0.0
C442 C 0.50117 0.92551 0.73151 0.0
H443 H 0.54695 0.87671 0.68236 0.0
H444 H 0.53163 0.89558 0.66198 0.0
H445 H 0.55441 0.90136 0.70521 0.0
H446 H 0.54838 0.93276 0.78344 0.0
H447 H 0.54629 0.96262 0.72007 0.0
H448 H 0.71185 0.52878 0.93536 0.0
H449 H 0.68463 0.52546 0.85246 0.0
H450 H 0.64419 0.51264 0.02839 0.0
H451 H 0.67118 0.51611 0.11117 0.0
H452 H 0.65645 0.49601 0.8194 0.0
H453 H 0.62114 0.55806 0.94178 0.0
H454 H 0.64573 0.55297 0.96175 0.0
H455 H 0.6251 0.53994 0.00448 0.0
C456 C 0.69718 0.52501 0.95616 0.0
C457 C 0.69366 0.52297 0.03002 0.0
C458 C 0.68162 0.52321 0.90879 0.0
C459 C 0.66226 0.51932 0.93435 0.0
C460 C 0.65889 0.51624 0.00754 0.0
H461 H 0.54695 0.50588 0.74712 0.0
H462 H 0.57492 0.50778 0.82652 0.0
C463 C 0.67436 0.51815 0.05481 0.0
C464 C 0.64552 0.51877 0.88507 0.0
H465 H 0.60265 0.53893 0.857 0.0
C466 C 0.64475 0.50547 0.82737 0.0
C467 C 0.63021 0.53114 0.89527 0.0
C468 C 0.63062 0.54646 0.95373 0.0
C469 C 0.62892 0.50389 0.78082 0.0
C470 C 0.61355 0.51613 0.79155 0.0
C471 C 0.61436 0.52948 0.84897 0.0
C472 C 0.59654 0.51539 0.74354 0.0
C473 C 0.62857 0.48881 0.72153 0.0
C474 C 0.5993 0.51949 0.67084 0.0
C475 C 0.58336 0.51849 0.62554 0.0
C476 C 0.5643 0.5134 0.65198 0.0
C477 C 0.56147 0.50978 0.72513 0.0
C478 C 0.57744 0.51084 0.77051 0.0
H479 H 0.63867 0.47757 0.73126 0.0
H480 H 0.61358 0.48182 0.7152 0.0
H481 H 0.63323 0.49572 0.67055 0.0
H482 H 0.61382 0.52346 0.64905 0.0
H483 H 0.58601 0.52148 0.56955 0.0
H484 H 0.01745 0.7006 0.98533 0.0
H485 H 0.02562 0.67401 0.90454 0.0
H486 H 0.96424 0.65673 0.8839 0.0
H487 H 0.95596 0.6836 0.96171 0.0
H488 H 0.01759 0.63556 0.92269 0.0
H489 H 0.98264 0.6566 0.67771 0.0
H490 H 0.98679 0.67295 0.75302 0.0
H491 H 0.96593 0.65557 0.7532 0.0
C492 C 1.00569 0.69137 0.96243 0.0
C493 C 0.98604 0.69426 0.98018 0.0
C494 C 0.01038 0.67608 0.91666 0.0
C495 C 0.99554 0.6635 0.88728 0.0
C496 C 0.97595 0.66645 0.90457 0.0
H497 H 0.98572 0.55506 0.65267 0.0
H498 H 0.98079 0.58411 0.72541 0.0
C499 C 0.97125 0.6817 0.94999 0.0
C500 C 1.00042 0.6467 0.84143 0.0
H501 H 0.99092 0.62398 0.68075 0.0
C502 C 0.01196 0.63315 0.86946 0.0
C503 C 0.99308 0.64354 0.77188 0.0
C504 C 0.98159 0.65804 0.73688 0.0
C505 C 0.01579 0.61624 0.83083 0.0
C506 C 1.00799 0.61287 0.76222 0.0
C507 C 0.99675 0.62655 0.73364 0.0
C508 C 0.01117 0.59513 0.71947 0.0
C509 C 0.02767 0.60182 0.86438 0.0
C510 C 0.02986 0.59176 0.69178 0.0
C511 C 0.0327 0.5752 0.65018 0.0
C512 C 0.0169 0.56171 0.63577 0.0
C513 C 0.9982 0.56511 0.66357 0.0
C514 C 0.99535 0.58172 0.70482 0.0
H515 H 0.0296 0.60487 0.92235 0.0
H516 H 0.02059 0.58706 0.85703 0.0
H517 H 0.04236 0.60222 0.8378 0.0
H518 H 0.04221 0.60205 0.70173 0.0
H519 H 0.04725 0.57297 0.62923 0.0
H520 H 0.05155 0.21335 0.1947 0.0
H521 H 0.04728 0.18446 0.26577 0.0
H522 H 0.98601 0.19281 0.29741 0.0
H523 H 0.99015 0.22155 0.22521 0.0
H524 H 0.02912 0.16959 0.39973 0.0
H525 H 0.98938 0.1462 0.15323 0.0
H526 H 1.00434 0.16859 0.15969 0.0
H527 H 0.9805 0.16634 0.20237 0.0
C528 C 0.0374 0.20957 0.21998 0.0
C529 C 0.02111 0.21943 0.20358 0.0
C530 C 0.03496 0.19303 0.26033 0.0
C531 C 0.01623 0.18627 0.28491 0.0
C532 C 1.00053 0.19771 0.27783 0.0
H533 H 0.97493 0.06883 0.38796 0.0
H534 H 0.97689 0.10293 0.35936 0.0
C535 C 1.00295 0.21425 0.23724 0.0
C536 C 0.01262 0.16588 0.30381 0.0
H537 H 0.99317 0.1227 0.23732 0.0
C538 C 0.02111 0.15934 0.36475 0.0
C539 C 1.00236 0.15254 0.2573 0.0
C540 C 0.99372 0.15865 0.18914 0.0
C541 C 0.01957 0.13973 0.38048 0.0
C542 C 0.00963 0.12641 0.3332 0.0
C543 C 1.00082 0.133 0.27316 0.0
C544 C 1.00837 0.1055 0.34464 0.0
C545 C 0.02853 0.1334 0.44756 0.0
C546 C 0.02534 0.09553 0.34217 0.0
C547 C 0.02424 0.07602 0.35753 0.0
C548 C 1.00614 0.06626 0.37567 0.0
C549 C 0.98905 0.07601 0.37391 0.0
C550 C 0.99016 0.09549 0.3582 0.0
H551 H 0.03143 0.14556 0.48628 0.0
H552 H 0.01884 0.12204 0.47391 0.0
H553 H 0.04266 0.12735 0.43349 0.0
H554 H 0.03948 0.10295 0.33014 0.0
H555 H 0.03764 0.06885 0.35879 0.0
H556 H 0.30749 0.97705 0.14456 0.0
H557 H 0.32957 0.97111 0.23944 0.0
H558 H 0.31913 0.02602 0.33854 0.0
H559 H 0.29736 0.03214 0.24162 0.0
H560 H 0.35598 0.02448 0.30416 0.0
H561 H 0.33303 0.95787 0.44393 0.0
H562 H 0.3318 0.95344 0.34951 0.0
H563 H 0.31625 0.97018 0.39265 0.0
C564 C 0.30917 0.98737 0.18867 0.0
C565 C 0.30072 1.00494 0.18664 0.0
C566 C 0.32174 0.98396 0.24313 0.0
C567 C 0.32595 0.99805 0.29663 0.0
C568 C 0.316 0.01489 0.29811 0.0
H569 H 0.42708 0.98425 0.56266 0.0
H570 H 0.39334 0.98654 0.52661 0.0
C571 C 0.30349 0.01835 0.24318 0.0
C572 C 0.34355 0.99693 0.33986 0.0
H573 H 0.36853 0.96564 0.43142 0.0
C574 C 0.3585 0.01179 0.3335 0.0
C575 C 0.3469 0.98049 0.37868 0.0
C576 C 0.33101 0.96472 0.39218 0.0
C577 C 0.37704 0.01012 0.36066 0.0
C578 C 0.38092 0.99291 0.39341 0.0
C579 C 0.36565 0.97861 0.40447 0.0
C580 C 0.40092 0.98946 0.41437 0.0
C581 C 0.39243 0.02668 0.35267 0.0
C582 C 0.41622 0.98964 0.36275 0.0
C583 C 0.43548 0.98842 0.38314 0.0
C584 C 0.43966 0.98677 0.45536 0.0
C585 C 0.42422 0.98548 0.5065 0.0
C586 C 0.40496 0.98681 0.48611 0.0
H587 H 0.38572 0.04048 0.34681 0.0
H588 H 0.40211 0.02806 0.39927 0.0
H589 H 0.40157 0.02419 0.30394 0.0
H590 H 0.4133 0.99126 0.30686 0.0
H591 H 0.44712 0.98938 0.34275 0.0
H592 H 0.47922 0.30656 0.19308 0.0
H593 H 0.48651 0.33544 0.267 0.0
H594 H 0.54793 0.32624 0.25336 0.0
H595 H 0.54063 0.2974 0.17817 0.0
H596 H 0.50798 0.35003 0.38843 0.0
H597 H 0.54211 0.37312 0.12792 0.0
H598 H 0.52734 0.35075 0.13691 0.0
H599 H 0.55195 0.35307 0.16802 0.0
C600 C 0.49413 0.31012 0.20928 0.0
C601 C 0.5094 0.29995 0.17973 0.0
C602 C 0.49832 0.32669 0.25107 0.0
C603 C 0.51781 0.33323 0.26369 0.0
C604 C 0.53282 0.32155 0.243 0.0
H605 H 0.5551 0.4536 0.37109 0.0
H606 H 0.55595 0.4194 0.33855 0.0
C607 C 0.52863 0.30495 0.20094 0.0
C608 C 0.52229 0.3536 0.28537 0.0
H609 H 0.53919 0.39687 0.21723 0.0
C610 C 0.51508 0.36025 0.35157 0.0
C611 C 0.53134 0.36693 0.23655 0.0
C612 C 0.53853 0.36073 0.16313 0.0
C613 C 0.51634 0.37993 0.36971 0.0
C614 C 0.52479 0.39323 0.3199 0.0
C615 C 0.5327 0.38657 0.25501 0.0
C616 C 0.52453 0.41417 0.33265 0.0
C617 C 0.50837 0.38641 0.44154 0.0
C618 C 0.50666 0.42263 0.33612 0.0
C619 C 0.50615 0.44213 0.35363 0.0
C620 C 0.52352 0.45344 0.36806 0.0
C621 C 0.54151 0.44521 0.35995 0.0
C622 C 0.54201 0.42569 0.34205 0.0
H623 H 0.50658 0.37444 0.47952 0.0
H624 H 0.51814 0.39824 0.46509 0.0
H625 H 0.49382 0.39189 0.43485 0.0
H626 H 0.49306 0.414 0.32738 0.0
H627 H 0.49208 0.44809 0.35964 0.0
H628 H 0.22603 0.53474 0.19273 0.0
H629 H 0.19547 0.53871 0.26006 0.0
H630 H 0.18347 0.47718 0.26181 0.0
H631 H 0.214 0.47326 0.19499 0.0
H632 H 0.16376 0.52459 0.17931 0.0
H633 H 0.15736 0.4943 0.44978 0.0
H634 H 0.18067 0.50183 0.40766 0.0
H635 H 0.16834 0.47891 0.38442 0.0
C636 C 0.21754 0.52208 0.21194 0.0
C637 C 0.22224 0.5037 0.18872 0.0
C638 C 0.19995 0.52435 0.24964 0.0
C639 C 0.18711 0.50825 0.26525 0.0
C640 C 0.19323 0.4898 0.25113 0.0
H641 H 0.064 0.48037 0.33685 0.0
H642 H 0.09857 0.48029 0.30089 0.0
C643 C 0.21076 0.48754 0.21326 0.0
C644 C 0.16608 0.51055 0.27929 0.0
H645 H 0.12733 0.4972 0.39 0.0
C646 C 0.15582 0.51891 0.22603 0.0
C647 C 0.15576 0.5028 0.33945 0.0
C648 C 0.16611 0.4941 0.39893 0.0
C649 C 0.13541 0.51921 0.23023 0.0
C650 C 0.12504 0.51121 0.2899 0.0
C651 C 0.13533 0.50317 0.34391 0.0
C652 C 0.10352 0.51123 0.29829 0.0
C653 C 0.12508 0.52744 0.16955 0.0
C654 C 0.09468 0.52863 0.30523 0.0
C655 C 0.07488 0.52871 0.32488 0.0
C656 C 0.06373 0.51139 0.33877 0.0
C657 C 0.07223 0.49393 0.32618 0.0
C658 C 0.09201 0.49387 0.30639 0.0
H659 H 0.13438 0.52817 0.11997 0.0
H660 H 0.1112 0.51876 0.158 0.0
H661 H 0.12151 0.54225 0.18464 0.0
H662 H 0.10334 0.5422 0.29999 0.0
H663 H 0.06875 0.54238 0.33476 0.0
H664 H 0.98135 0.79712 0.9218 0.0
H665 H 0.98121 0.82659 0.85472 0.0
H666 H 0.04282 0.83877 0.89054 0.0
H667 H 0.04303 0.8092 0.95641 0.0
H668 H 0.98962 0.85858 0.94 0.0
H669 H 0.03757 0.86232 0.69699 0.0
H670 H 0.02815 0.8398 0.73466 0.0
H671 H 0.04916 0.85311 0.77192 0.0
C672 C 0.99511 0.80543 0.91122 0.0
C673 C 0.01218 0.80102 0.94455 0.0
C674 C 0.99497 0.82239 0.87359 0.0
C675 C 0.01195 0.83498 0.86829 0.0
C676 C 0.0296 0.82921 0.89313 0.0
H677 H 0.04026 0.95679 0.82016 0.0
H678 H 0.03973 0.92304 0.85318 0.0
C679 C 0.02974 0.81226 0.93066 0.0
C680 C 0.0104 0.85545 0.85264 0.0
H681 H 0.03035 0.89248 0.75256 0.0
C682 C 0.99829 0.86593 0.89819 0.0
C683 C 0.02199 0.86507 0.79911 0.0
C684 C 0.03482 0.85446 0.74745 0.0
C685 C 0.99779 0.88585 0.8928 0.0
C686 C 0.00954 0.8955 0.83982 0.0
C687 C 0.02149 0.88503 0.79362 0.0
C688 C 0.00919 0.91639 0.82986 0.0
C689 C 0.98516 0.89647 0.94522 0.0
C690 C 0.99203 0.92392 0.80835 0.0
C691 C 0.99227 0.94315 0.79007 0.0
C692 C 0.00971 0.95513 0.79261 0.0
C693 C 0.02658 0.94791 0.81845 0.0
C694 C 0.02635 0.92861 0.83654 0.0
H695 H 0.98112 0.88793 0.99331 0.0
H696 H 0.99272 0.91042 0.96244 0.0
H697 H 0.97145 0.89946 0.91915 0.0
H698 H 0.9787 0.91469 0.8021 0.0
H699 H 0.97909 0.94833 0.76978 0.0
H700 H 0.72529 0.0477 0.01797 0.0
H701 H 0.7037 0.05962 0.93031 0.0
H702 H 0.69904 1.00378 0.82512 0.0
H703 H 0.72118 0.9921 0.91104 0.0
H704 H 0.69517 0.03408 0.73098 0.0
H705 H 0.64749 0.03908 0.97576 0.0
H706 H 0.67007 0.05395 0.97673 0.0
H707 H 0.67044 0.02825 0.97565 0.0
C708 C 0.72036 0.0383 0.97402 0.0
C709 C 0.72473 0.019 0.97108 0.0
C710 C 0.70793 0.04505 0.92443 0.0
C711 C 0.69934 0.03241 0.87264 0.0
C712 C 0.70544 0.01374 0.86492 0.0
H713 H 0.59763 1.00486 0.64391 0.0
H714 H 0.6311 0.01029 0.68446 0.0
C715 C 0.71813 0.00708 0.91382 0.0
C716 C 0.68171 0.03727 0.8355 0.0
H717 H 0.63343 0.04392 0.8669 0.0
C718 C 0.68173 0.03655 0.76057 0.0
C719 C 0.66414 0.04038 0.87433 0.0
C720 C 0.66287 0.04032 0.955 0.0
C721 C 0.66449 0.03831 0.72346 0.0
C722 C 0.64682 0.04061 0.76249 0.0
C723 C 0.64703 0.04229 0.83716 0.0
C724 C 0.62751 0.03882 0.72856 0.0
C725 C 0.66529 0.03725 0.64295 0.0
C726 C 0.61425 0.05297 0.74049 0.0
C727 C 0.59497 0.04979 0.71785 0.0
C728 C 0.58869 0.03235 0.68367 0.0
C729 C 0.60212 0.01846 0.6701 0.0
C730 C 0.62132 0.02164 0.6925 0.0
H731 H 0.67996 0.04257 0.62164 0.0
H732 H 0.66255 0.02204 0.62478 0.0
H733 H 0.65409 0.0457 0.61996 0.0
H734 H 0.61868 0.06623 0.76906 0.0
H735 H 0.58488 0.06073 0.72879 0.0
H736 H 0.47394 0.71248 0.01008 0.0
H737 H 0.46853 0.68247 0.94059 0.0
H738 H 0.52853 0.68811 0.86411 0.0
H739 H 0.53399 0.71815 0.93359 0.0
H740 H 0.49185 0.66556 0.77072 0.0
H741 H 0.50791 0.64413 0.0462 0.0
H742 H 0.4911 0.66228 0.0354 0.0
H743 H 0.51651 0.66736 0.01285 0.0
C744 C 0.48557 0.70797 0.97463 0.0
C745 C 0.5044 0.71747 0.97737 0.0
C746 C 0.48252 0.69076 0.93543 0.0
C747 C 0.49823 0.68303 0.8984 0.0
C748 C 0.51625 0.69395 0.89241 0.0
H749 H 0.53034 0.56838 0.80942 0.0
H750 H 0.52848 0.602 0.84803 0.0
C751 C 0.51931 0.7112 0.93161 0.0
C752 C 0.49731 0.66223 0.88186 0.0
H753 H 0.50248 0.61943 0.95994 0.0
C754 C 0.49403 0.65542 0.81191 0.0
C755 C 0.50039 0.64918 0.93602 0.0
C756 C 0.50426 0.65597 0.01192 0.0
C757 C 0.49375 0.63569 0.79467 0.0
C758 C 0.49674 0.62265 0.84898 0.0
C759 C 0.50005 0.62952 0.9188 0.0
C760 C 0.49731 0.60187 0.83351 0.0
C761 C 0.49074 0.6289 0.71836 0.0
C762 C 0.48023 0.59056 0.81602 0.0
C763 C 0.4812 0.5713 0.795 0.0
C764 C 0.49931 0.5632 0.79078 0.0
C765 C 0.5162 0.57426 0.81249 0.0
C766 C 0.51518 0.59347 0.83402 0.0
H767 H 0.49152 0.64102 0.68102 0.0
H768 H 0.5019 0.61892 0.7013 0.0
H769 H 0.47614 0.62093 0.71425 0.0
H770 H 0.46627 0.5968 0.81639 0.0
H771 H 0.46798 0.56311 0.77821 0.0
H772 H 0.80425 0.4809 0.95182 0.0
H773 H 0.83568 0.48406 0.88671 0.0
H774 H 0.83495 0.54569 0.89786 0.0
H775 H 0.80351 0.54254 0.96348 0.0
H776 H 0.85709 0.50525 0.76933 0.0
H777 H 0.87608 0.53073 0.04512 0.0
H778 H 0.85243 0.51908 0.02445 0.0
H779 H 0.85847 0.54361 0.00096 0.0
C780 C 0.81018 0.49505 0.93612 0.0
C781 C 0.80165 0.51149 0.963 0.0
C782 C 0.82824 0.49686 0.8996 0.0
C783 C 0.83782 0.51512 0.88954 0.0
C784 C 0.82783 0.53149 0.90613 0.0
H785 H 0.96306 0.5421 0.81394 0.0
H786 H 0.92851 0.54474 0.84678 0.0
C787 C 0.80974 0.52968 0.94267 0.0
C788 C 0.85924 0.5168 0.87669 0.0
H789 H 0.90215 0.52708 0.96319 0.0
C790 C 0.86696 0.51022 0.81128 0.0
C791 C 0.87203 0.52304 0.93222 0.0
C792 C 0.86443 0.52939 0.00491 0.0
C793 C 0.88724 0.50967 0.79995 0.0
C794 C 0.89995 0.51556 0.85595 0.0
C795 C 0.89227 0.52255 0.92069 0.0
C796 C 0.92125 0.51406 0.84839 0.0
C797 C 0.89496 0.5027 0.72839 0.0
C798 C 0.92871 0.49597 0.84323 0.0
C799 C 0.94844 0.49441 0.82552 0.0
C800 C 0.96091 0.51095 0.8123 0.0
C801 C 0.95377 0.52911 0.82401 0.0
C802 C 0.93403 0.53065 0.84207 0.0
H803 H 0.88377 0.50245 0.68668 0.0
H804 H 0.90804 0.51195 0.71066 0.0
H805 H 0.89943 0.48789 0.73324 0.0
H806 H 0.91906 0.48303 0.84931 0.0
H807 H 0.95354 0.48023 0.81682 0.0
H808 H 0.05596 0.21397 0.9482 0.0
H809 H 0.05767 0.18501 0.87209 0.0
H810 H 0.99477 0.18035 0.85858 0.0
H811 H 0.99323 0.20975 0.93175 0.0
H812 H 0.0438 0.1514 0.9124 0.0
H813 H 1.00866 0.16479 0.65932 0.0
H814 H 0.01602 0.18397 0.72172 0.0
H815 H 0.99301 0.16995 0.73451 0.0
C816 C 0.04264 0.20725 0.9258 0.0
C817 C 0.02451 0.21424 0.94443 0.0
C818 C 0.04357 0.19058 0.8831 0.0
C819 C 0.02636 0.18044 0.85909 0.0
C820 C 1.00831 0.18808 0.87455 0.0
H821 H 0.01212 0.05617 0.79241 0.0
H822 H 0.01437 0.08904 0.84242 0.0
C823 C 1.00742 0.20494 0.91628 0.0
C824 C 0.02709 0.16082 0.82624 0.0
H825 H 0.01037 0.13166 0.68818 0.0
C826 C 0.0367 0.14718 0.8628 0.0
C827 C 0.01796 0.15522 0.76135 0.0
C828 C 1.00852 0.16933 0.71664 0.0
C829 C 0.03715 0.12814 0.83713 0.0
C830 C 0.02713 0.12229 0.77428 0.0
C831 C 0.01785 0.13601 0.73691 0.0
C832 C 0.02632 0.10215 0.74546 0.0
C833 C 0.0487 0.11463 0.87712 0.0
C834 C 0.03188 0.09851 0.674 0.0
C835 C 0.03026 0.07983 0.6451 0.0
C836 C 0.02315 0.06426 0.68708 0.0
C837 C 0.01792 0.0678 0.75903 0.0
C838 C 0.01928 0.08661 0.78771 0.0
H839 H 0.0603 0.12258 0.90888 0.0
H840 H 0.03873 0.10637 0.91484 0.0
H841 H 0.05567 0.10434 0.84015 0.0
H842 H 0.03735 0.11019 0.6402 0.0
H843 H 0.03445 0.07762 0.58946 0.0
H844 H 0.33217 0.04935 0.0014 0.0
H845 H 0.3629 0.05072 0.9312 0.0
H846 H 0.34095 1.00165 0.80439 0.0
H847 H 0.31004 1.00032 0.87473 0.0
H848 H 0.37692 0.99728 0.87131 0.0
H849 H 0.38033 0.06549 0.72572 0.0
H850 H 0.37374 0.06788 0.81888 0.0
H851 H 0.35764 0.05385 0.76014 0.0
C852 C 0.33364 0.03932 0.95676 0.0
C853 C 0.31866 0.02487 0.94292 0.0
C854 C 0.35122 0.04009 0.91672 0.0
C855 C 0.35424 0.02635 0.86222 0.0
C856 C 0.3389 0.01247 0.84588 0.0
H857 H 0.46232 0.02144 0.6025 0.0
H858 H 0.42798 0.02198 0.64245 0.0
C859 C 0.32119 0.01183 0.88556 0.0
C860 C 0.37409 0.02518 0.82869 0.0
H861 H 0.41046 0.05087 0.73539 0.0
C862 C 0.38416 0.00891 0.84092 0.0
C863 C 0.38356 0.04033 0.78894 0.0
C864 C 0.37323 0.05782 0.77196 0.0
C865 C 0.40361 0.00766 0.81647 0.0
C866 C 0.41333 0.02312 0.77916 0.0
C867 C 0.40307 0.03911 0.76475 0.0
C868 C 0.43418 0.02292 0.75504 0.0
C869 C 0.41368 0.98981 0.83083 0.0
C870 C 0.44913 0.02351 0.80496 0.0
C871 C 0.46875 0.02308 0.78212 0.0
C872 C 0.47372 0.02183 0.70901 0.0
C873 C 0.4588 0.02166 0.65917 0.0
C874 C 0.43922 0.02223 0.68192 0.0
H875 H 0.40308 0.97768 0.84645 0.0
H876 H 0.42228 0.9853 0.78297 0.0
H877 H 0.42395 0.99289 0.87509 0.0
H878 H 0.4456 0.02434 0.86164 0.0
H879 H 0.48 0.02342 0.82159 0.0
H880 H 0.53134 0.31069 0.90996 0.0
H881 H 0.52993 0.34019 0.84357 0.0
H882 H 0.46691 0.33451 0.86278 0.0
H883 H 0.46846 0.30542 0.93221 0.0
H884 H 0.51505 0.35223 0.72651 0.0
H885 H 0.47822 0.38567 0.96012 0.0
H886 H 0.48772 0.36242 0.9634 0.0
H887 H 0.46435 0.36487 0.92479 0.0
C888 C 0.51718 0.3154 0.89769 0.0
C889 C 0.49999 0.30569 0.92513 0.0
C890 C 0.51637 0.33237 0.86035 0.0
C891 C 0.49834 0.33996 0.84979 0.0
C892 C 0.48104 0.32932 0.87201 0.0
H893 H 0.49082 0.43998 0.58318 0.0
H894 H 0.48838 0.40776 0.63109 0.0
C895 C 0.48187 0.31248 0.91037 0.0
C896 C 0.49789 0.3595 0.81993 0.0
H897 H 0.48222 0.40411 0.85609 0.0
C898 C 0.50784 0.36356 0.75481 0.0
C899 C 0.48892 0.37451 0.85762 0.0
C900 C 0.47939 0.37176 0.93068 0.0
C901 C 0.50898 0.38204 0.72624 0.0
C902 C 0.49931 0.39683 0.76248 0.0
C903 C 0.48944 0.39279 0.82774 0.0
C904 C 0.49962 0.41668 0.73459 0.0
C905 C 0.52116 0.38559 0.65879 0.0
C906 C 0.50565 0.43275 0.7779 0.0
C907 C 0.50653 0.45136 0.75114 0.0
C908 C 0.50158 0.45426 0.68027 0.0
C909 C 0.49499 0.43824 0.63777 0.0
C910 C 0.49377 0.41972 0.6649 0.0
H911 H 0.53229 0.37496 0.65087 0.0
H912 H 0.5115 0.38416 0.61224 0.0
H913 H 0.5288 0.40022 0.65955 0.0
H914 H 0.51009 0.43087 0.83206 0.0
H915 H 0.51172 0.46338 0.78515 0.0
H916 H 0.20436 0.46889 0.95722 0.0
H917 H 0.17504 0.47001 0.8871 0.0
H918 H 0.19449 0.52743 0.82389 0.0
H919 H 0.22379 0.52642 0.89537 0.0
H920 H 0.15762 0.52531 0.88457 0.0
H921 H 0.16202 0.46754 0.67789 0.0
H922 H 0.16557 0.45936 0.76608 0.0
H923 H 0.18299 0.47701 0.72733 0.0
C924 C 0.20276 0.48145 0.926 0.0
C925 C 0.21646 0.4975 0.93122 0.0
C926 C 0.18595 0.48211 0.886 0.0
C927 C 0.18251 0.49879 0.84989 0.0
C928 C 0.19682 0.51438 0.85115 0.0
H929 H 0.08391 0.50848 0.5781 0.0
H930 H 0.11588 0.50699 0.62898 0.0
C931 C 0.21371 0.51371 0.89116 0.0
C932 C 0.16313 0.50062 0.8178 0.0
H933 H 0.13046 0.47905 0.70067 0.0
C934 C 0.15176 0.5153 0.84384 0.0
C935 C 0.15544 0.4876 0.7646 0.0
C936 C 0.16721 0.47211 0.7318 0.0
C937 C 0.13286 0.51714 0.81902 0.0
C938 C 0.12488 0.5037 0.76764 0.0
C939 C 0.1364 0.48922 0.74076 0.0
C940 C 0.10504 0.50491 0.73826 0.0
C941 C 0.12177 0.53369 0.84718 0.0
C942 C 0.08807 0.50418 0.78261 0.0
C943 C 0.06953 0.50516 0.75351 0.0
C944 C 0.06761 0.50665 0.67938 0.0
C945 C 0.08467 0.50727 0.63541 0.0
C946 C 0.10308 0.5064 0.66443 0.0
H947 H 0.1317 0.54535 0.87101 0.0
H948 H 0.11356 0.53977 0.80419 0.0
H949 H 0.11113 0.52851 0.88946 0.0
H950 H 0.08911 0.50263 0.83964 0.0
H951 H 0.05674 0.50454 0.78892 0.0
H952 H 0.03931 0.81061 0.20399 0.0
H953 H 0.03933 0.84007 0.27805 0.0
H954 H 0.97621 0.83541 0.28224 0.0
H955 H 0.97625 0.80558 0.21073 0.0
H956 H 0.02628 0.87154 0.23119 0.0
H957 H 0.98568 0.8535 0.48299 0.0
H958 H 0.99456 0.83533 0.42286 0.0
H959 H 0.972 0.8457 0.40599 0.0
C960 C 0.02549 0.8154 0.22397 0.0
C961 C 1.00778 0.80569 0.20294 0.0
C962 C 0.02548 0.83236 0.26543 0.0
C963 C 1.00777 0.84003 0.28597 0.0
C964 C 0.99006 0.82964 0.26868 0.0
H965 H 0.9996 0.96408 0.36157 0.0
H966 H 0.9983 0.93156 0.30756 0.0
C967 C 0.99007 0.81252 0.22804 0.0
C968 C 1.00792 0.85987 0.31734 0.0
H969 H 0.98972 0.88678 0.45499 0.0
C970 C 0.01842 0.87483 0.28053 0.0
C971 C 0.99768 0.86423 0.38165 0.0
C972 C 0.98702 0.84881 0.42602 0.0
C973 C 0.01901 0.89396 0.30612 0.0
C974 C 1.00826 0.89841 0.36924 0.0
C975 C 0.99777 0.88345 0.40611 0.0
C976 C 1.00869 0.91825 0.40072 0.0
C977 C 0.0316 0.90906 0.26624 0.0
C978 C 0.01445 0.92156 0.47143 0.0
C979 C 0.01484 0.93994 0.50256 0.0
C980 C 0.00959 0.9556 0.46371 0.0
C981 C 1.00388 0.95237 0.39268 0.0
C982 C 1.00324 0.9338 0.3617 0.0
H983 H 0.04287 0.90261 0.23149 0.0
H984 H 0.02225 0.91683 0.23155 0.0
H985 H 0.03908 0.91964 0.30366 0.0
H986 H 0.01878 0.90988 0.50268 0.0
H987 H 0.01945 0.94185 0.55725 0.0
H988 H 0.70622 0.96571 0.20965 0.0
H989 H 0.67584 0.96173 0.28245 0.0
H990 H 0.6744 0.02322 0.30092 0.0
H991 H 0.7047 0.02726 0.22837 0.0
H992 H 0.66249 1.0005 0.43237 0.0
H993 H 0.62419 0.97592 0.18426 0.0
H994 H 0.64551 0.96408 0.20593 0.0
H995 H 0.64806 0.98885 0.18208 0.0
C996 C 0.69977 0.97836 0.23124 0.0
C997 C 0.70782 0.9968 0.21323 0.0
C998 C 0.68232 0.97607 0.27222 0.0
C999 C 0.67273 0.99218 0.29625 0.0
C1000 C 0.68152 0.0106 0.28277 0.0
H1001 H 0.56328 0.02182 0.49094 0.0
H1002 H 0.59733 0.01998 0.45121 0.0
C1003 C 0.69883 0.01289 0.24141 0.0
C1004 C 0.65273 0.99 0.32943 0.0
H1005 H 0.60489 0.97861 0.28888 0.0
C1006 C 0.64989 0.99557 0.40128 0.0
C1007 C 0.63631 0.98355 0.28878 0.0
C1008 C 0.6385 0.97784 0.21084 0.0
C1009 C 0.63104 0.99491 0.43354 0.0
C1010 C 0.61452 0.98905 0.39221 0.0
C1011 C 0.61747 0.9831 0.32072 0.0
C1012 C 0.59401 0.9898 0.42063 0.0
C1013 C 0.62908 1.00025 0.51183 0.0
C1014 C 0.58051 0.97359 0.41531 0.0
C1015 C 0.56089 0.97468 0.43744 0.0
C1016 C 0.55439 0.992 0.46522 0.0
C1017 C 0.5679 0.00818 0.4707 0.0
C1018 C 0.58745 0.00711 0.44843 0.0
H1019 H 0.64264 0.99799 0.54033 0.0
H1020 H 0.62651 0.0157 0.51782 0.0
H1021 H 0.61665 0.99171 0.53787 0.0
H1022 H 0.58512 0.9601 0.39352 0.0
H1023 H 0.55081 0.962 0.4324 0.0
H1024 H 0.55135 0.71237 0.21833 0.0
H1025 H 0.55382 0.6826 0.28271 0.0
H1026 H 0.49102 0.67617 0.30993 0.0
H1027 H 0.48853 0.7056 0.24403 0.0
H1028 H 0.54261 0.66714 0.41194 0.0
H1029 H 0.50208 0.62807 0.19425 0.0
H1030 H 0.51089 0.65301 0.18876 0.0
H1031 H 0.48844 0.64623 0.23707 0.0
C1032 C 0.53816 0.70497 0.2405 0.0
C1033 C 0.51976 0.71131 0.22654 0.0
C1034 C 0.53955 0.68784 0.27659 0.0
C1035 C 0.52256 0.67681 0.29927 0.0
C1036 C 0.5043 0.68413 0.29122 0.0
H1037 H 0.51256 0.57849 0.57106 0.0
H1038 H 0.51476 0.61014 0.51971 0.0
C1039 C 0.50289 0.70111 0.25464 0.0
C1040 C 0.52378 0.65712 0.3266 0.0
H1041 H 0.50725 0.61015 0.29732 0.0
C1042 C 0.53494 0.65467 0.38675 0.0
C1043 C 0.51429 0.64071 0.2925 0.0
C1044 C 0.50343 0.64206 0.22413 0.0
C1045 C 0.53627 0.6364 0.41521 0.0
C1046 C 0.52574 0.62014 0.38378 0.0
C1047 C 0.51514 0.62255 0.32215 0.0
C1048 C 0.52494 0.60067 0.41513 0.0
C1049 C 0.54922 0.63474 0.47803 0.0
C1050 C 0.52924 0.58444 0.37303 0.0
C1051 C 0.52761 0.56605 0.40209 0.0
C1052 C 0.52171 0.56353 0.47396 0.0
C1053 C 0.51742 0.57982 0.51577 0.0
C1054 C 0.51883 0.59807 0.48657 0.0
H1055 H 0.56113 0.64649 0.47926 0.0
H1056 H 0.54035 0.63592 0.52825 0.0
H1057 H 0.55589 0.62077 0.47674 0.0
H1058 H 0.53382 0.58599 0.31754 0.0
H1059 H 0.53096 0.55384 0.3683 0.0
H1060 H 0.80608 0.53563 0.25599 0.0
H1061 H 0.83598 0.53606 0.32515 0.0
H1062 H 0.84242 0.47711 0.26118 0.0
H1063 H 0.81258 0.47664 0.19232 0.0
H1064 H 0.85318 0.48676 0.40593 0.0
H1065 H 0.88876 0.537 0.20784 0.0
H1066 H 0.86679 0.54457 0.25086 0.0
H1067 H 0.86556 0.52362 0.1929 0.0
C1068 C 0.81343 0.52255 0.25925 0.0
C1069 C 0.80695 0.50606 0.21927 0.0
C1070 C 0.83068 0.52289 0.29778 0.0
C1071 C 0.84166 0.50674 0.29704 0.0
C1072 C 0.83426 0.48976 0.26221 0.0
H1073 H 0.96691 0.50318 0.36576 0.0
H1074 H 0.93421 0.50177 0.31499 0.0
C1075 C 0.81713 0.48945 0.2234 0.0
C1076 C 0.86156 0.50789 0.32721 0.0
H1077 H 0.90788 0.52924 0.30414 0.0
C1078 C 0.86513 0.4961 0.38395 0.0
C1079 C 0.87726 0.51971 0.2972 0.0
C1080 C 0.87456 0.53184 0.23343 0.0
C1081 C 0.88388 0.49608 0.41241 0.0
C1082 C 0.89947 0.50839 0.38397 0.0
C1083 C 0.89595 0.51992 0.32634 0.0
C1084 C 0.91944 0.50967 0.41395 0.0
C1085 C 0.88689 0.48255 0.47174 0.0
C1086 C 0.92215 0.51503 0.48588 0.0
C1087 C 0.94072 0.51579 0.51491 0.0
C1088 C 0.9572 0.51143 0.4726 0.0
C1089 C 0.9546 0.50662 0.3999 0.0
C1090 C 0.93589 0.50578 0.37086 0.0
H1091 H 0.8754 0.4704 0.47276 0.0
H1092 H 0.90142 0.47665 0.4662 0.0
H1093 H 0.8861 0.49047 0.52381 0.0
H1094 H 0.90984 0.51861 0.51983 0.0
H1095 H 0.94209 0.51975 0.57094 0.0
loop_
_geom_bond_atom_site_label_1
_geom_bond_atom_site_label_2
_geom_bond_distance
_geom_bond_site_symmetry_2
_ccdc_geom_bond_type
H0 C1 0.949 1_556 S
C1 H0 0.949 1_554 S
C1 C2 1.395 . S
C1 C3 1.391 . S
C2 C1 1.395 . S
C2 C5 1.390 . S
C3 C1 1.391 . S
C3 C7 1.387 . S
C3 C8 1.491 . S
H4 C5 0.950 . S
C5 C2 1.390 . S
C5 H4 0.950 . S
C5 C6 1.378 . S
C6 C5 1.378 . S
C6 C7 1.409 . S
C7 C3 1.387 . S
C7 C6 1.409 . S
C7 H9 0.951 . S
C8 C3 1.491 . S
C8 C10 1.382 . S
C8 C12 1.404 . S
H9 C7 0.951 . S
C10 C8 1.382 . S
C10 C11 1.390 . S
C10 H15 0.949 1_554 S
C11 C10 1.390 . S
C11 C16 1.399 . S
C12 C8 1.404 . S
C12 H13 0.950 . S
C12 C14 1.375 . S
H13 C12 0.950 . S
C14 C12 1.375 . S
C14 C16 1.382 . S
C14 H18 0.950 . S
H15 C10 0.949 1_556 S
C16 C11 1.399 . S
C16 C14 1.382 . S
C16 H17 0.952 . S
H17 C16 0.952 . S
H18 C14 0.950 . S
H19 C20 0.949 . S
C20 H19 0.949 . S
C20 C21 1.395 . S
C20 C22 1.391 1_556 S
C21 C20 1.395 . S
C21 C24 1.392 1_556 S
C22 C20 1.391 1_554 S
C22 C26 1.387 . S
C22 C27 1.491 . S
H23 C24 0.949 1_455 S
C24 C21 1.392 1_554 S
C24 H23 0.949 1_655 S
C24 C25 1.378 . S
C25 C24 1.378 . S
C25 C26 1.409 . S
C26 C22 1.387 . S
C26 C25 1.409 . S
C26 H28 0.951 . S
C27 C22 1.491 . S
C27 C29 1.382 1_554 S
C27 C31 1.404 . S
H28 C26 0.951 . S
C29 C27 1.382 1_556 S
C29 C30 1.390 . S
C29 H34 0.949 1_655 S
C30 C29 1.390 . S
C30 C35 1.399 1_556 S
C31 C27 1.404 . S
C31 H32 0.950 . S
C31 C33 1.375 . S
H32 C31 0.950 . S
C33 C31 1.375 . S
C33 C35 1.382 . S
C33 H37 0.950 . S
H34 C29 0.949 1_455 S
C35 C30 1.399 1_554 S
C35 C33 1.382 . S
C35 H36 0.952 . S
H36 C35 0.952 . S
H37 C33 0.950 . S
H38 C39 0.949 . S
C39 H38 0.949 . S
C39 C40 1.395 . S
C39 C41 1.391 1_556 S
C40 C39 1.395 . S
C40 C43 1.390 1_556 S
C41 C39 1.391 1_554 S
C41 C45 1.387 . S
C41 C46 1.491 . S
H42 C43 0.950 . S
C43 C40 1.390 1_554 S
C43 H42 0.950 . S
C43 C44 1.378 . S
C44 C43 1.378 . S
C44 C45 1.409 . S
C45 C41 1.387 . S
C45 C44 1.409 . S
C45 H47 0.951 . S
C46 C41 1.491 . S
C46 C48 1.382 1_554 S
C46 C50 1.404 . S
H47 C45 0.951 . S
C48 C46 1.382 1_556 S
C48 C49 1.390 . S
C48 H53 0.949 . S
C49 C48 1.390 . S
C49 C54 1.399 1_556 S
C50 C46 1.404 . S
C50 H51 0.950 . S
C50 C52 1.375 . S
H51 C50 0.950 . S
C52 C50 1.375 . S
C52 C54 1.382 . S
C52 H56 0.950 . S
H53 C48 0.949 . S
C54 C49 1.399 1_554 S
C54 C52 1.382 . S
C54 H55 0.952 . S
H55 C54 0.952 . S
H56 C52 0.950 . S
H57 C58 0.949 . S
C58 H57 0.949 . S
C58 C59 1.395 . S
C58 C60 1.391 . S
C59 C58 1.395 . S
C59 C62 1.390 . S
C60 C58 1.391 . S
C60 C64 1.387 . S
C60 C65 1.491 . S
H61 C62 0.950 . S
C62 C59 1.390 . S
C62 H61 0.950 . S
C62 C63 1.378 . S
C63 C62 1.378 . S
C63 C64 1.409 . S
C64 C60 1.387 . S
C64 C63 1.409 . S
C64 H66 0.951 . S
C65 C60 1.491 . S
C65 C67 1.382 . S
C65 C69 1.404 . S
H66 C64 0.951 . S
C67 C65 1.382 . S
C67 C68 1.390 . S
C67 H72 0.949 . S
C68 C67 1.390 . S
C68 C73 1.399 . S
C69 C65 1.404 . S
C69 H70 0.950 . S
C69 C71 1.375 . S
H70 C69 0.950 . S
C71 C69 1.375 . S
C71 C73 1.382 . S
C71 H75 0.950 . S
H72 C67 0.949 . S
C73 C68 1.399 . S
C73 C71 1.382 . S
C73 H74 0.952 . S
H74 C73 0.952 . S
H75 C71 0.950 . S
H76 C77 0.949 . S
C77 H76 0.949 . S
C77 C78 1.395 . S
C77 C79 1.391 . S
C78 C77 1.395 . S
C78 C81 1.390 . S
C79 C77 1.391 . S
C79 C83 1.387 . S
C79 C84 1.491 . S
H80 C81 0.950 . S
C81 C78 1.390 . S
C81 H80 0.950 . S
C81 C82 1.378 . S
C82 C81 1.378 . S
C82 C83 1.409 . S
C83 C79 1.387 . S
C83 C82 1.409 . S
C83 H85 0.951 1_554 S
C84 C79 1.491 . S
C84 C86 1.382 . S
C84 C88 1.404 . S
H85 C83 0.951 1_556 S
C86 C84 1.382 . S
C86 C87 1.390 . S
C86 H91 0.949 . S
C87 C86 1.390 . S
C87 C92 1.399 . S
C88 C84 1.404 . S
C88 H89 0.950 . S
C88 C90 1.375 . S
H89 C88 0.950 . S
C90 C88 1.375 . S
C90 C92 1.382 . S
C90 H94 0.950 . S
H91 C86 0.949 . S
C92 C87 1.399 . S
C92 C90 1.382 . S
C92 H93 0.952 . S
H93 C92 0.952 . S
H94 C90 0.950 . S
H95 C96 0.949 . S
C96 H95 0.949 . S
C96 C97 1.395 . S
C96 C98 1.391 . S
C97 C96 1.395 . S
C97 C100 1.390 . S
C98 C96 1.391 . S
C98 C102 1.387 . S
C98 C103 1.491 1_455 S
H99 C100 0.950 . S
C100 C97 1.390 . S
C100 H99 0.950 . S
C100 C101 1.378 . S
C101 C100 1.378 . S
C101 C102 1.409 . S
C102 C98 1.387 . S
C102 C101 1.409 . S
C102 H104 0.951 1_554 S
C103 C98 1.491 1_655 S
C103 C105 1.382 1_655 S
C103 C107 1.404 . S
H104 C102 0.951 1_556 S
C105 C103 1.382 1_455 S
C105 C106 1.390 . S
C105 H110 0.949 . S
C106 C105 1.390 . S
C106 C111 1.399 1_455 S
C107 C103 1.404 . S
C107 H108 0.950 . S
C107 C109 1.375 . S
H108 C107 0.950 . S
C109 C107 1.375 . S
C109 C111 1.382 . S
C109 H113 0.950 . S
H110 C105 0.949 . S
C111 C106 1.399 1_655 S
C111 C109 1.382 . S
C111 H112 0.952 . S
H112 C111 0.952 . S
H113 C109 0.950 . S
H114 C115 0.949 . S
C115 H114 0.949 . S
C115 C116 1.395 . S
C115 C117 1.391 . S
C116 C115 1.395 . S
C116 C119 1.390 . S
C117 C115 1.391 . S
C117 C121 1.387 . S
C117 C122 1.491 . S
H118 C119 0.950 . S
C119 C116 1.390 . S
C119 H118 0.950 . S
C119 C120 1.378 . S
C120 C119 1.378 . S
C120 C121 1.409 . S
C121 C117 1.387 . S
C121 C120 1.409 . S
C121 H123 0.951 . S
C122 C117 1.491 . S
C122 C124 1.382 . S
C122 C126 1.404 . S
H123 C121 0.951 . S
C124 C122 1.382 . S
C124 C125 1.390 . S
C124 H129 0.949 . S
C125 C124 1.390 . S
C125 C130 1.399 . S
C126 C122 1.404 . S
C126 H127 0.950 . S
C126 C128 1.375 . S
H127 C126 0.950 . S
C128 C126 1.375 . S
C128 C130 1.382 . S
C128 H132 0.950 . S
H129 C124 0.949 . S
C130 C125 1.399 . S
C130 C128 1.382 . S
C130 H131 0.952 . S
H131 C130 0.952 . S
H132 C128 0.950 . S
H133 C134 0.949 . S
C134 H133 0.949 . S
C134 C135 1.395 . S
C134 C136 1.391 . S
C135 C134 1.395 . S
C135 C138 1.390 . S
C136 C134 1.391 . S
C136 C140 1.387 1_554 S
C136 C141 1.491 . S
H137 C138 0.950 . S
C138 C135 1.390 . S
C138 H137 0.950 . S
C138 C139 1.378 1_554 S
C139 C138 1.378 1_556 S
C139 C140 1.409 . S
C140 C136 1.387 1_556 S
C140 C139 1.409 . S
C140 H142 0.951 . S
C141 C136 1.491 . S
C141 C143 1.382 . S
C141 C145 1.404 1_554 S
H142 C140 0.951 . S
C143 C141 1.382 . S
C143 C144 1.390 . S
C143 H148 0.949 . S
C144 C143 1.390 . S
C144 C149 1.399 . S
C145 C141 1.404 1_556 S
C145 H146 0.950 . S
C145 C147 1.375 . S
H146 C145 0.950 . S
C147 C145 1.375 . S
C147 C149 1.382 1_556 S
C147 H151 0.950 . S
H148 C143 0.949 . S
C149 C144 1.399 . S
C149 C147 1.382 1_554 S
C149 H150 0.952 . S
H150 C149 0.952 . S
H151 C147 0.950 . S
Dy152 O156 2.398 . S
Dy152 O157 2.491 1_455 S
Dy152 O158 2.403 . S
Dy152 O159 2.664 1_565 S
Dy152 O163 2.326 . S
Dy152 O167 2.310 1_455 S
Dy152 O168 2.351 1_565 S
C153 O164 1.185 . S
C153 O165 1.355 1_655 S
C154 O156 1.185 . S
C154 O157 1.355 1_455 S
Dy155 O159 2.310 1_655 S
Dy155 O162 2.351 1_545 S
Dy155 O164 2.398 . S
Dy155 O165 2.491 1_655 S
Dy155 O166 2.403 . S
Dy155 O167 2.664 1_545 S
Dy155 O169 2.326 . S
O156 Dy152 2.398 . S
O156 C154 1.185 . S
O157 Dy152 2.491 1_655 S
O157 C154 1.355 1_655 S
O158 Dy152 2.403 . S
O158 C160 1.254 1_565 S
O159 Dy152 2.664 1_545 S
O159 Dy155 2.310 1_455 S
O159 C160 1.268 . S
C160 O158 1.254 1_545 S
C160 O159 1.268 . S
C161 O166 1.226 1_565 S
C161 O167 1.283 . S
O162 Dy155 2.351 1_565 S
O162 C170 1.252 . S
O163 Dy152 2.326 . S
O163 C170 1.263 1_455 S
O164 C153 1.185 . S
O164 Dy155 2.398 . S
O165 C153 1.355 1_455 S
O165 Dy155 2.491 1_455 S
O166 Dy155 2.403 . S
O166 C161 1.226 1_545 S
O167 Dy152 2.310 1_655 S
O167 Dy155 2.664 1_565 S
O167 C161 1.283 . S
O168 Dy152 2.351 1_545 S
O168 C171 1.249 . S
O169 Dy155 2.326 . S
O169 C171 1.267 1_655 S
C170 O162 1.252 . S
C170 O163 1.263 1_655 S
C171 O168 1.249 . S
C171 O169 1.267 1_455 S
Dy172 O176 2.398 . S
Dy172 O177 2.491 1_565 S
Dy172 O178 2.403 . S
Dy172 O179 2.664 . S
Dy172 O183 2.326 1_565 S
Dy172 O187 2.310 1_565 S
Dy172 O188 2.351 . S
C173 O184 1.214 . S
C173 O185 1.347 1_545 S
C174 O176 1.185 1_545 S
C174 O177 1.355 . S
Dy175 O179 2.310 1_545 S
Dy175 O182 2.351 . S
Dy175 O184 2.398 . S
Dy175 O185 2.491 1_545 S
Dy175 O186 2.403 . S
Dy175 O187 2.664 . S
Dy175 O189 2.326 1_545 S
O176 Dy172 2.398 . S
O176 C174 1.185 1_565 S
O177 Dy172 2.491 1_545 S
O177 C174 1.355 . S
O178 Dy172 2.403 . S
O178 C180 1.254 . S
O179 Dy172 2.664 . S
O179 Dy175 2.310 1_565 S
O179 C180 1.268 . S
C180 O178 1.254 . S
C180 O179 1.268 . S
C181 O186 1.254 . S
C181 O187 1.268 . S
O182 Dy175 2.351 . S
O182 C190 1.249 . S
O183 Dy172 2.326 1_545 S
O183 C190 1.267 . S
O184 C173 1.214 . S
O184 Dy175 2.398 . S
O185 C173 1.347 1_565 S
O185 Dy175 2.491 1_565 S
O186 Dy175 2.403 . S
O186 C181 1.254 . S
O187 Dy172 2.310 1_545 S
O187 Dy175 2.664 . S
O187 C181 1.268 . S
O188 Dy172 2.351 . S
O188 C191 1.249 . S
O189 Dy175 2.326 1_565 S
O189 C191 1.267 . S
C190 O182 1.249 . S
C190 O183 1.267 . S
C191 O188 1.249 . S
C191 O189 1.267 . S
Dy192 O196 2.398 . S
Dy192 O197 2.491 . S
Dy192 O198 2.403 . S
Dy192 O199 2.664 . S
Dy192 O203 2.326 . S
Dy192 O207 2.310 . S
Dy192 O208 2.351 . S
C193 O204 1.185 . S
C193 O205 1.355 . S
C194 O196 1.185 . S
C194 O197 1.355 . S
Dy195 O199 2.310 . S
Dy195 O202 2.351 . S
Dy195 O204 2.398 . S
Dy195 O205 2.491 . S
Dy195 O206 2.403 . S
Dy195 O207 2.664 . S
Dy195 O209 2.326 . S
O196 Dy192 2.398 . S
O196 C194 1.185 . S
O197 Dy192 2.491 . S
O197 C194 1.355 . S
O198 Dy192 2.403 . S
O198 C200 1.254 . S
O199 Dy192 2.664 . S
O199 Dy195 2.310 . S
O199 C200 1.268 . S
C200 O198 1.254 . S
C200 O199 1.268 . S
C201 O206 1.254 . S
C201 O207 1.268 . S
O202 Dy195 2.351 . S
O202 C210 1.249 . S
O203 Dy192 2.326 . S
O203 C210 1.267 . S
O204 C193 1.185 . S
O204 Dy195 2.398 . S
O205 C193 1.355 . S
O205 Dy195 2.491 . S
O206 Dy195 2.403 . S
O206 C201 1.254 . S
O207 Dy192 2.310 . S
O207 Dy195 2.664 . S
O207 C201 1.268 . S
O208 Dy192 2.351 . S
O208 C211 1.249 . S
O209 Dy195 2.326 . S
O209 C211 1.267 . S
C210 O202 1.249 . S
C210 O203 1.267 . S
C211 O208 1.249 . S
C211 O209 1.267 . S
Dy212 O216 2.398 . S
Dy212 O217 2.491 . S
Dy212 O218 2.403 . S
Dy212 O219 2.664 1_655 S
Dy212 O223 2.326 . S
Dy212 O227 2.310 . S
Dy212 O228 2.351 1_655 S
C213 O224 1.185 . S
C213 O225 1.355 . S
C214 O216 1.185 . S
C214 O217 1.355 . S
Dy215 O219 2.310 . S
Dy215 O222 2.351 1_455 S
Dy215 O224 2.398 . S
Dy215 O225 2.491 . S
Dy215 O226 2.403 . S
Dy215 O227 2.664 1_455 S
Dy215 O229 2.326 . S
O216 Dy212 2.398 . S
O216 C214 1.185 . S
O217 Dy212 2.491 . S
O217 C214 1.355 . S
O218 Dy212 2.403 . S
O218 C220 1.254 1_655 S
O219 Dy212 2.664 1_455 S
O219 Dy215 2.310 . S
O219 C220 1.268 . S
C220 O218 1.254 1_455 S
C220 O219 1.268 . S
C221 O226 1.254 . S
C221 O227 1.268 1_455 S
O222 Dy215 2.351 1_655 S
O222 C230 1.249 . S
O223 Dy212 2.326 . S
O223 C230 1.267 . S
O224 C213 1.185 . S
O224 Dy215 2.398 . S
O225 C213 1.355 . S
O225 Dy215 2.491 . S
O226 Dy215 2.403 . S
O226 C221 1.254 . S
O227 Dy212 2.310 . S
O227 Dy215 2.664 1_655 S
O227 C221 1.268 1_655 S
O228 Dy212 2.351 1_455 S
O228 C231 1.249 . S
O229 Dy215 2.326 . S
O229 C231 1.267 . S
C230 O222 1.249 . S
C230 O223 1.267 . S
C231 O228 1.249 . S
C231 O229 1.267 . S
H232 C240 0.929 . S
H233 C242 0.930 . S
H234 C244 0.930 . S
H235 C247 0.929 . S
H236 C250 0.930 . S
H237 C252 0.960 . S
H238 C252 0.960 . S
H239 C252 0.960 . S
C240 H232 0.929 . S
C240 C241 1.377 . S
C240 C242 1.384 . S
C241 C240 1.377 . S
C241 C247 1.390 . S
C242 H233 0.930 . S
C242 C240 1.384 . S
C242 C243 1.372 . S
C243 C242 1.372 . S
C243 C244 1.400 . S
C243 C248 1.490 . S
C244 H234 0.930 . S
C244 C243 1.400 . S
C244 C247 1.386 . S
H245 C261 0.903 1_565 S
H246 C262 0.931 . S
C247 H235 0.929 . S
C247 C241 1.390 . S
C247 C244 1.386 . S
C248 C243 1.490 . S
C248 C250 1.395 . S
C248 C251 1.403 . S
H249 C255 0.930 . S
C250 H236 0.930 . S
C250 C248 1.395 . S
C250 C253 1.403 . S
C251 C248 1.403 . S
C251 C252 1.524 . S
C251 C255 1.400 . S
C252 H237 0.960 . S
C252 H238 0.960 . S
C252 H239 0.960 . S
C252 C251 1.524 . S
C253 C250 1.403 . S
C253 C254 1.392 . S
C253 C257 1.495 1_545 S
C254 C253 1.392 . S
C254 C255 1.385 . S
C254 C256 1.478 . S
C255 H249 0.930 . S
C255 C251 1.400 . S
C255 C254 1.385 . S
C256 C254 1.478 . S
C256 C258 1.381 . S
C256 C262 1.383 . S
C257 C253 1.495 1_565 S
C257 H263 0.959 . S
C257 H264 0.961 . S
C257 H265 0.960 1_565 S
C258 C256 1.381 . S
C258 C259 1.394 . S
C258 H266 0.930 . S
C259 C258 1.394 . S
C259 C260 1.383 . S
C259 H267 0.929 . S
C260 C259 1.383 . S
C260 C261 1.377 . S
C261 H245 0.903 1_545 S
C261 C260 1.377 . S
C261 C262 1.379 . S
C262 H246 0.931 . S
C262 C256 1.383 . S
C262 C261 1.379 . S
H263 C257 0.959 . S
H264 C257 0.961 . S
H265 C257 0.960 1_545 S
H266 C258 0.930 . S
H267 C259 0.929 . S
H268 C276 0.929 . S
H269 C278 0.930 . S
H270 C280 0.930 . S
H271 C283 0.929 . S
H272 C286 0.930 . S
H273 C288 0.960 . S
H274 C288 0.960 . S
H275 C288 0.960 . S
C276 H268 0.929 . S
C276 C277 1.377 . S
C276 C278 1.384 . S
C277 C276 1.377 . S
C277 C283 1.390 . S
C278 H269 0.930 . S
C278 C276 1.384 . S
C278 C279 1.372 . S
C279 C278 1.372 . S
C279 C280 1.400 . S
C279 C284 1.490 . S
C280 H270 0.930 . S
C280 C279 1.400 . S
C280 C283 1.386 . S
H281 C297 0.930 . S
H282 C298 0.931 . S
C283 H271 0.929 . S
C283 C277 1.390 . S
C283 C280 1.386 . S
C284 C279 1.490 . S
C284 C286 1.395 . S
C284 C287 1.403 . S
H285 C291 0.930 . S
C286 H272 0.930 . S
C286 C284 1.395 . S
C286 C289 1.403 . S
C287 C284 1.403 . S
C287 C288 1.524 . S
C287 C291 1.400 . S
C288 H273 0.960 . S
C288 H274 0.960 . S
C288 H275 0.960 . S
C288 C287 1.524 . S
C289 C286 1.403 . S
C289 C290 1.392 . S
C289 C293 1.495 . S
C290 C289 1.392 . S
C290 C291 1.385 . S
C290 C292 1.478 . S
C291 H285 0.930 . S
C291 C287 1.400 . S
C291 C290 1.385 . S
C292 C290 1.478 . S
C292 C294 1.381 . S
C292 C298 1.383 . S
C293 C289 1.495 . S
C293 H299 0.959 . S
C293 H300 0.961 . S
C293 H301 0.960 . S
C294 C292 1.381 . S
C294 C295 1.394 . S
C294 H302 0.930 . S
C295 C294 1.394 . S
C295 C296 1.383 . S
C295 H303 0.929 . S
C296 C295 1.383 . S
C296 C297 1.377 . S
C297 H281 0.930 . S
C297 C296 1.377 . S
C297 C298 1.379 . S
C298 H282 0.931 . S
C298 C292 1.383 . S
C298 C297 1.379 . S
H299 C293 0.959 . S
H300 C293 0.961 . S
H301 C293 0.960 . S
H302 C294 0.930 . S
H303 C295 0.929 . S
H304 C312 0.929 . S
H305 C314 0.930 . S
H306 C316 0.930 . S
H307 C319 0.929 . S
H308 C322 0.930 . S
H309 C324 0.960 . S
H310 C324 0.960 . S
H311 C324 0.960 . S
C312 H304 0.929 . S
C312 C313 1.377 . S
C312 C314 1.384 . S
C313 C312 1.377 . S
C313 C319 1.390 . S
C314 H305 0.930 . S
C314 C312 1.384 . S
C314 C315 1.372 . S
C315 C314 1.372 . S
C315 C316 1.400 . S
C315 C320 1.490 . S
C316 H306 0.930 . S
C316 C315 1.400 . S
C316 C319 1.386 . S
H317 C333 0.930 . S
H318 C334 0.931 . S
C319 H307 0.929 . S
C319 C313 1.390 . S
C319 C316 1.386 . S
C320 C315 1.490 . S
C320 C322 1.395 . S
C320 C323 1.403 . S
H321 C327 0.930 . S
C322 H308 0.930 . S
C322 C320 1.395 . S
C322 C325 1.403 . S
C323 C320 1.403 . S
C323 C324 1.524 . S
C323 C327 1.400 . S
C324 H309 0.960 . S
C324 H310 0.960 . S
C324 H311 0.960 . S
C324 C323 1.524 . S
C325 C322 1.403 . S
C325 C326 1.392 . S
C325 C329 1.495 . S
C326 C325 1.392 . S
C326 C327 1.385 . S
C326 C328 1.478 . S
C327 H321 0.930 . S
C327 C323 1.400 . S
C327 C326 1.385 . S
C328 C326 1.478 . S
C328 C330 1.381 . S
C328 C334 1.383 . S
C329 C325 1.495 . S
C329 H335 0.959 . S
C329 H336 0.961 . S
C329 H337 0.960 . S
C330 C328 1.381 . S
C330 C331 1.394 . S
C330 H338 0.930 . S
C331 C330 1.394 . S
C331 C332 1.383 . S
C331 H339 0.929 . S
C332 C331 1.383 . S
C332 C333 1.377 . S
C333 H317 0.930 . S
C333 C332 1.377 . S
C333 C334 1.379 . S
C334 H318 0.931 . S
C334 C328 1.383 . S
C334 C333 1.379 . S
H335 C329 0.959 . S
H336 C329 0.961 . S
H337 C329 0.960 . S
H338 C330 0.930 . S
H339 C331 0.929 . S
H340 C348 0.929 . S
H341 C350 0.930 . S
H342 C352 0.930 . S
H343 C355 0.929 . S
H344 C358 0.930 . S
H345 C360 0.960 . S
H346 C360 0.960 1_655 S
H347 C360 0.960 . S
C348 H340 0.929 . S
C348 C349 1.377 1_655 S
C348 C350 1.384 . S
C349 C348 1.377 1_455 S
C349 C355 1.390 . S
C350 H341 0.930 . S
C350 C348 1.384 . S
C350 C351 1.372 1_655 S
C351 C350 1.372 1_455 S
C351 C352 1.400 . S
C351 C356 1.490 . S
C352 H342 0.930 . S
C352 C351 1.400 . S
C352 C355 1.386 . S
H353 C369 0.930 . S
H354 C370 0.931 . S
C355 H343 0.929 . S
C355 C349 1.390 . S
C355 C352 1.386 . S
C356 C351 1.490 . S
C356 C358 1.395 . S
C356 C359 1.403 . S
H357 C363 0.930 . S
C358 H344 0.930 . S
C358 C356 1.395 . S
C358 C361 1.403 . S
C359 C356 1.403 . S
C359 C360 1.524 . S
C359 C363 1.400 . S
C360 H345 0.960 . S
C360 H346 0.960 1_455 S
C360 H347 0.960 . S
C360 C359 1.524 . S
C361 C358 1.403 . S
C361 C362 1.392 . S
C361 C365 1.495 . S
C362 C361 1.392 . S
C362 C363 1.385 . S
C362 C364 1.478 . S
C363 H357 0.930 . S
C363 C359 1.400 . S
C363 C362 1.385 . S
C364 C362 1.478 . S
C364 C366 1.381 1_455 S
C364 C370 1.383 . S
C365 C361 1.495 . S
C365 H371 0.958 . S
C365 H372 0.961 . S
C365 H373 0.960 1_455 S
C366 C364 1.381 1_655 S
C366 C367 1.394 . S
C366 H374 0.930 . S
C367 C366 1.394 . S
C367 C368 1.383 1_655 S
C367 H375 0.929 . S
C368 C367 1.383 1_455 S
C368 C369 1.377 . S
C369 H353 0.930 . S
C369 C368 1.377 . S
C369 C370 1.379 . S
C370 H354 0.931 . S
C370 C364 1.383 . S
C370 C369 1.379 . S
H371 C365 0.958 . S
H372 C365 0.961 . S
H373 C365 0.960 1_655 S
H374 C366 0.930 . S
H375 C367 0.929 . S
H376 C384 0.929 . S
H377 C386 0.930 . S
H378 C388 0.930 . S
H379 C391 0.929 . S
H380 C394 0.930 . S
H381 C396 0.960 . S
H382 C396 0.960 . S
H383 C396 0.960 . S
C384 H376 0.929 . S
C384 C385 1.377 . S
C384 C386 1.384 . S
C385 C384 1.377 . S
C385 C391 1.390 . S
C386 H377 0.930 . S
C386 C384 1.384 . S
C386 C387 1.372 . S
C387 C386 1.372 . S
C387 C388 1.400 . S
C387 C392 1.490 . S
C388 H378 0.930 . S
C388 C387 1.400 . S
C388 C391 1.386 . S
H389 C405 0.930 . S
H390 C406 0.931 . S
C391 H379 0.929 . S
C391 C385 1.390 . S
C391 C388 1.386 . S
C392 C387 1.490 . S
C392 C394 1.395 . S
C392 C395 1.403 . S
H393 C399 0.930 1_545 S
C394 H380 0.930 . S
C394 C392 1.395 . S
C394 C397 1.403 . S
C395 C392 1.403 . S
C395 C396 1.524 1_565 S
C395 C399 1.400 . S
C396 H381 0.960 . S
C396 H382 0.960 . S
C396 H383 0.960 . S
C396 C395 1.524 1_545 S
C397 C394 1.403 . S
C397 C398 1.392 . S
C397 C401 1.495 . S
C398 C397 1.392 . S
C398 C399 1.385 . S
C398 C400 1.478 . S
C399 H393 0.930 1_565 S
C399 C395 1.400 . S
C399 C398 1.385 . S
C400 C398 1.478 . S
C400 C402 1.381 . S
C400 C406 1.383 . S
C401 C397 1.495 . S
C401 H407 0.959 . S
C401 H408 0.961 . S
C401 H409 0.960 . S
C402 C400 1.381 . S
C402 C403 1.394 . S
C402 H410 0.930 . S
C403 C402 1.394 . S
C403 C404 1.383 . S
C403 H411 0.929 . S
C404 C403 1.383 . S
C404 C405 1.377 . S
C405 H389 0.930 . S
C405 C404 1.377 . S
C405 C406 1.379 . S
C406 H390 0.931 . S
C406 C400 1.383 . S
C406 C405 1.379 . S
H407 C401 0.959 . S
H408 C401 0.961 . S
H409 C401 0.960 . S
H410 C402 0.930 . S
H411 C403 0.929 . S
H412 C420 0.929 . S
H413 C422 0.930 . S
H414 C424 0.930 . S
H415 C427 0.929 . S
H416 C430 0.930 . S
H417 C432 0.960 . S
H418 C432 0.960 1_554 S
H419 C432 0.960 . S
C420 H412 0.929 . S
C420 C421 1.377 . S
C420 C422 1.384 . S
C421 C420 1.377 . S
C421 C427 1.390 . S
C422 H413 0.930 . S
C422 C420 1.384 . S
C422 C423 1.372 . S
C423 C422 1.372 . S
C423 C424 1.400 . S
C423 C428 1.490 . S
C424 H414 0.930 . S
C424 C423 1.400 . S
C424 C427 1.386 . S
H425 C441 0.930 . S
H426 C442 0.931 . S
C427 H415 0.929 . S
C427 C421 1.390 . S
C427 C424 1.386 . S
C428 C423 1.490 . S
C428 C430 1.395 . S
C428 C431 1.403 . S
H429 C435 0.930 . S
C430 H416 0.930 . S
C430 C428 1.395 . S
C430 C433 1.403 . S
C431 C428 1.403 . S
C431 C432 1.524 . S
C431 C435 1.400 . S
C432 H417 0.960 . S
C432 H418 0.960 1_556 S
C432 H419 0.960 . S
C432 C431 1.524 . S
C433 C430 1.403 . S
C433 C434 1.392 . S
C433 C437 1.495 . S
C434 C433 1.392 . S
C434 C435 1.385 . S
C434 C436 1.478 . S
C435 H429 0.930 . S
C435 C431 1.400 . S
C435 C434 1.385 . S
C436 C434 1.478 . S
C436 C438 1.381 . S
C436 C442 1.383 . S
C437 C433 1.495 . S
C437 H443 0.959 . S
C437 H444 0.961 . S
C437 H445 0.960 . S
C438 C436 1.381 . S
C438 C439 1.394 . S
C438 H446 0.930 . S
C439 C438 1.394 . S
C439 C440 1.383 . S
C439 H447 0.929 . S
C440 C439 1.383 . S
C440 C441 1.377 . S
C441 H425 0.930 . S
C441 C440 1.377 . S
C441 C442 1.379 . S
C442 H426 0.931 . S
C442 C436 1.383 . S
C442 C441 1.379 . S
H443 C437 0.959 . S
H444 C437 0.961 . S
H445 C437 0.960 . S
H446 C438 0.930 . S
H447 C439 0.929 . S
H448 C456 0.929 . S
H449 C458 0.930 . S
H450 C460 0.930 . S
H451 C463 0.929 1_554 S
H452 C466 0.930 . S
H453 C468 0.960 . S
H454 C468 0.960 . S
H455 C468 0.960 . S
C456 H448 0.929 . S
C456 C457 1.377 . S
C456 C458 1.384 . S
C457 C456 1.377 . S
C457 C463 1.390 . S
C458 H449 0.930 . S
C458 C456 1.384 . S
C458 C459 1.372 . S
C459 C458 1.372 . S
C459 C460 1.400 . S
C459 C464 1.490 . S
C460 H450 0.930 . S
C460 C459 1.400 . S
C460 C463 1.386 . S
H461 C477 0.930 . S
H462 C478 0.931 . S
C463 H451 0.929 1_556 S
C463 C457 1.390 . S
C463 C460 1.386 . S
C464 C459 1.490 . S
C464 C466 1.395 . S
C464 C467 1.403 . S
H465 C471 0.930 . S
C466 H452 0.930 . S
C466 C464 1.395 . S
C466 C469 1.403 . S
C467 C464 1.403 . S
C467 C468 1.524 . S
C467 C471 1.400 . S
C468 H453 0.960 . S
C468 H454 0.960 . S
C468 H455 0.960 . S
C468 C467 1.524 . S
C469 C466 1.403 . S
C469 C470 1.392 . S
C469 C473 1.495 . S
C470 C469 1.392 . S
C470 C471 1.385 . S
C470 C472 1.478 . S
C471 H465 0.930 . S
C471 C467 1.400 . S
C471 C470 1.385 . S
C472 C470 1.478 . S
C472 C474 1.381 . S
C472 C478 1.383 . S
C473 C469 1.495 . S
C473 H479 0.959 . S
C473 H480 0.961 . S
C473 H481 0.960 . S
C474 C472 1.381 . S
C474 C475 1.394 . S
C474 H482 0.930 . S
C475 C474 1.394 . S
C475 C476 1.383 . S
C475 H483 0.929 . S
C476 C475 1.383 . S
C476 C477 1.377 . S
C477 H461 0.930 . S
C477 C476 1.377 . S
C477 C478 1.379 . S
C478 H462 0.931 . S
C478 C472 1.383 . S
C478 C477 1.379 . S
H479 C473 0.959 . S
H480 C473 0.961 . S
H481 C473 0.960 . S
H482 C474 0.930 . S
H483 C475 0.929 . S
H484 C492 0.929 . S
H485 C494 0.930 . S
H486 C496 0.930 . S
H487 C499 0.929 . S
H488 C502 0.930 . S
H489 C504 0.960 . S
H490 C504 0.960 . S
H491 C504 0.960 . S
C492 H484 0.929 . S
C492 C493 1.377 1_455 S
C492 C494 1.384 . S
C493 C492 1.377 1_655 S
C493 C499 1.390 . S
C494 H485 0.930 . S
C494 C492 1.384 . S
C494 C495 1.398 . S
C495 C494 1.398 . S
C495 C496 1.371 1_455 S
C495 C500 1.494 . S
C496 H486 0.930 . S
C496 C495 1.371 1_655 S
C496 C499 1.386 . S
H497 C513 0.930 . S
H498 C514 0.931 . S
C499 H487 0.929 . S
C499 C493 1.390 . S
C499 C496 1.386 . S
C500 C495 1.494 . S
C500 C502 1.395 . S
C500 C503 1.403 1_455 S
H501 C507 0.930 . S
C502 H488 0.930 . S
C502 C500 1.395 . S
C502 C505 1.403 . S
C503 C500 1.403 1_655 S
C503 C504 1.524 . S
C503 C507 1.400 . S
C504 H489 0.960 . S
C504 H490 0.960 . S
C504 H491 0.960 . S
C504 C503 1.524 . S
C505 C502 1.403 . S
C505 C506 1.392 . S
C505 C509 1.495 . S
C506 C505 1.392 . S
C506 C507 1.385 1_455 S
C506 C508 1.478 . S
C507 H501 0.930 . S
C507 C503 1.400 . S
C507 C506 1.385 1_655 S
C508 C506 1.478 . S
C508 C510 1.381 . S
C508 C514 1.383 1_455 S
C509 C505 1.495 . S
C509 H515 0.959 . S
C509 H516 0.961 . S
C509 H517 0.960 . S
C510 C508 1.381 . S
C510 C511 1.394 . S
C510 H518 0.930 . S
C511 C510 1.394 . S
C511 C512 1.383 . S
C511 H519 0.929 . S
C512 C511 1.383 . S
C512 C513 1.377 1_455 S
C513 H497 0.930 . S
C513 C512 1.377 1_655 S
C513 C514 1.379 . S
C514 H498 0.931 . S
C514 C508 1.383 1_655 S
C514 C513 1.379 . S
H515 C509 0.959 . S
H516 C509 0.961 . S
H517 C509 0.960 . S
H518 C510 0.930 . S
H519 C511 0.929 . S
H520 C528 0.929 . S
H521 C530 0.930 . S
H522 C532 0.930 . S
H523 C535 0.929 . S
H524 C538 0.930 . S
H525 C540 0.960 . S
H526 C540 0.960 . S
H527 C540 0.960 . S
C528 H520 0.929 . S
C528 C529 1.377 . S
C528 C530 1.384 . S
C529 C528 1.377 . S
C529 C535 1.390 1_455 S
C530 H521 0.930 . S
C530 C528 1.384 . S
C530 C531 1.372 . S
C531 C530 1.372 . S
C531 C532 1.400 1_455 S
C531 C536 1.490 . S
C532 H522 0.930 . S
C532 C531 1.400 1_655 S
C532 C535 1.386 . S
H533 C549 0.930 . S
H534 C550 0.931 . S
C535 H523 0.929 . S
C535 C529 1.390 1_655 S
C535 C532 1.386 . S
C536 C531 1.490 . S
C536 C538 1.395 . S
C536 C539 1.403 1_455 S
H537 C543 0.930 . S
C538 H524 0.930 . S
C538 C536 1.395 . S
C538 C541 1.403 . S
C539 C536 1.403 1_655 S
C539 C540 1.524 . S
C539 C543 1.400 . S
C540 H525 0.960 . S
C540 H526 0.960 . S
C540 H527 0.960 . S
C540 C539 1.524 . S
C541 C538 1.403 . S
C541 C542 1.392 . S
C541 C545 1.495 . S
C542 C541 1.392 . S
C542 C543 1.385 1_455 S
C542 C544 1.478 . S
C543 H537 0.930 . S
C543 C539 1.400 . S
C543 C542 1.385 1_655 S
C544 C542 1.478 . S
C544 C546 1.381 . S
C544 C550 1.383 1_455 S
C545 C541 1.495 . S
C545 H551 0.959 . S
C545 H552 0.961 . S
C545 H553 0.960 . S
C546 C544 1.381 . S
C546 C547 1.394 . S
C546 H554 0.930 . S
C547 C546 1.394 . S
C547 C548 1.383 1_455 S
C547 H555 0.929 . S
C548 C547 1.383 1_655 S
C548 C549 1.377 . S
C549 H533 0.930 . S
C549 C548 1.377 . S
C549 C550 1.379 . S
C550 H534 0.931 . S
C550 C544 1.383 1_655 S
C550 C549 1.379 . S
H551 C545 0.959 . S
H552 C545 0.961 . S
H553 C545 0.960 . S
H554 C546 0.930 . S
H555 C547 0.929 . S
H556 C564 0.929 . S
H557 C566 0.930 . S
H558 C568 0.930 . S
H559 C571 0.929 . S
H560 C574 0.930 . S
H561 C576 0.960 . S
H562 C576 0.960 . S
H563 C576 0.960 . S
C564 H556 0.929 . S
C564 C565 1.377 . S
C564 C566 1.384 . S
C565 C564 1.377 . S
C565 C571 1.390 . S
C566 H557 0.930 . S
C566 C564 1.384 . S
C566 C567 1.372 . S
C567 C566 1.372 . S
C567 C568 1.400 . S
C567 C572 1.490 . S
C568 H558 0.930 . S
C568 C567 1.400 . S
C568 C571 1.386 . S
H569 C585 0.930 . S
H570 C586 0.931 . S
C571 H559 0.929 . S
C571 C565 1.390 . S
C571 C568 1.386 . S
C572 C567 1.490 . S
C572 C574 1.395 . S
C572 C575 1.403 . S
H573 C579 0.930 . S
C574 H560 0.930 . S
C574 C572 1.395 . S
C574 C577 1.403 . S
C575 C572 1.403 . S
C575 C576 1.524 . S
C575 C579 1.400 . S
C576 H561 0.960 . S
C576 H562 0.960 . S
C576 H563 0.960 . S
C576 C575 1.524 . S
C577 C574 1.403 . S
C577 C578 1.392 . S
C577 C581 1.495 . S
C578 C577 1.392 . S
C578 C579 1.385 . S
C578 C580 1.478 . S
C579 H573 0.930 . S
C579 C575 1.400 . S
C579 C578 1.385 . S
C580 C578 1.478 . S
C580 C582 1.409 . S
C580 C586 1.383 . S
C581 C577 1.495 . S
C581 H587 0.959 . S
C581 H588 0.961 . S
C581 H589 0.960 . S
C582 C580 1.409 . S
C582 C583 1.383 1_545 S
C582 H590 0.914 1_545 S
C583 C582 1.383 1_565 S
C583 C584 1.383 1_565 S
C583 H591 0.929 . S
C584 C583 1.383 1_545 S
C584 C585 1.377 . S
C585 H569 0.930 . S
C585 C584 1.377 . S
C585 C586 1.379 . S
C586 H570 0.931 . S
C586 C580 1.383 . S
C586 C585 1.379 . S
H587 C581 0.959 . S
H588 C581 0.961 . S
H589 C581 0.960 . S
H590 C582 0.914 1_565 S
H591 C583 0.929 . S
H592 C600 0.929 . S
H593 C602 0.930 . S
H594 C604 0.930 . S
H595 C607 0.929 . S
H596 C610 0.930 . S
H597 C612 0.960 . S
H598 C612 0.960 . S
H599 C612 0.960 . S
C600 H592 0.929 . S
C600 C601 1.377 . S
C600 C602 1.384 . S
C601 C600 1.377 . S
C601 C607 1.390 . S
C602 H593 0.930 . S
C602 C600 1.384 . S
C602 C603 1.372 . S
C603 C602 1.372 . S
C603 C604 1.400 . S
C603 C608 1.490 . S
C604 H594 0.930 . S
C604 C603 1.400 . S
C604 C607 1.386 . S
H605 C621 0.930 . S
H606 C622 0.931 . S
C607 H595 0.929 . S
C607 C601 1.390 . S
C607 C604 1.386 . S
C608 C603 1.490 . S
C608 C610 1.395 . S
C608 C611 1.403 . S
H609 C615 0.930 . S
C610 H596 0.930 . S
C610 C608 1.395 . S
C610 C613 1.403 . S
C611 C608 1.403 . S
C611 C612 1.524 . S
C611 C615 1.400 . S
C612 H597 0.960 . S
C612 H598 0.960 . S
C612 H599 0.960 . S
C612 C611 1.524 . S
C613 C610 1.403 . S
C613 C614 1.392 . S
C613 C617 1.495 . S
C614 C613 1.392 . S
C614 C615 1.385 . S
C614 C616 1.478 . S
C615 H609 0.930 . S
C615 C611 1.400 . S
C615 C614 1.385 . S
C616 C614 1.478 . S
C616 C618 1.381 . S
C616 C622 1.383 . S
C617 C613 1.495 . S
C617 H623 0.959 . S
C617 H624 0.961 . S
C617 H625 0.960 . S
C618 C616 1.381 . S
C618 C619 1.394 . S
C618 H626 0.930 . S
C619 C618 1.394 . S
C619 C620 1.383 . S
C619 H627 0.929 . S
C620 C619 1.383 . S
C620 C621 1.377 . S
C621 H605 0.930 . S
C621 C620 1.377 . S
C621 C622 1.379 . S
C622 H606 0.931 . S
C622 C616 1.383 . S
C622 C621 1.379 . S
H623 C617 0.959 . S
H624 C617 0.961 . S
H625 C617 0.960 . S
H626 C618 0.930 . S
H627 C619 0.929 . S
H628 C636 0.929 . S
H629 C638 0.930 . S
H630 C640 0.930 . S
H631 C643 0.929 . S
H632 C646 0.930 . S
H633 C648 0.960 . S
H634 C648 0.960 . S
H635 C648 0.960 . S
C636 H628 0.929 . S
C636 C637 1.377 . S
C636 C638 1.384 . S
C637 C636 1.377 . S
C637 C643 1.390 . S
C638 H629 0.930 . S
C638 C636 1.384 . S
C638 C639 1.372 . S
C639 C638 1.372 . S
C639 C640 1.400 . S
C639 C644 1.490 . S
C640 H630 0.930 . S
C640 C639 1.400 . S
C640 C643 1.386 . S
H641 C657 0.930 . S
H642 C658 0.931 . S
C643 H631 0.929 . S
C643 C637 1.390 . S
C643 C640 1.386 . S
C644 C639 1.490 . S
C644 C646 1.395 . S
C644 C647 1.403 . S
H645 C651 0.930 . S
C646 H632 0.930 . S
C646 C644 1.395 . S
C646 C649 1.403 . S
C647 C644 1.403 . S
C647 C648 1.524 . S
C647 C651 1.400 . S
C648 H633 0.960 . S
C648 H634 0.960 . S
C648 H635 0.960 . S
C648 C647 1.524 . S
C649 C646 1.403 . S
C649 C650 1.392 . S
C649 C653 1.495 . S
C650 C649 1.392 . S
C650 C651 1.385 . S
C650 C652 1.478 . S
C651 H645 0.930 . S
C651 C647 1.400 . S
C651 C650 1.385 . S
C652 C650 1.478 . S
C652 C654 1.381 . S
C652 C658 1.383 . S
C653 C649 1.495 . S
C653 H659 0.959 . S
C653 H660 0.961 . S
C653 H661 0.960 . S
C654 C652 1.381 . S
C654 C655 1.394 . S
C654 H662 0.930 . S
C655 C654 1.394 . S
C655 C656 1.383 . S
C655 H663 0.929 . S
C656 C655 1.383 . S
C656 C657 1.377 . S
C657 H641 0.930 . S
C657 C656 1.377 . S
C657 C658 1.379 . S
C658 H642 0.931 . S
C658 C652 1.383 . S
C658 C657 1.379 . S
H659 C653 0.959 . S
H660 C653 0.961 . S
H661 C653 0.960 . S
H662 C654 0.930 . S
H663 C655 0.929 . S
H664 C672 0.929 . S
H665 C674 0.930 . S
H666 C676 0.930 . S
H667 C679 0.929 . S
H668 C682 0.930 . S
H669 C684 0.960 . S
H670 C684 0.960 . S
H671 C684 0.960 . S
C672 H664 0.929 . S
C672 C673 1.377 . S
C672 C674 1.384 . S
C673 C672 1.377 . S
C673 C679 1.390 1_655 S
C674 H665 0.930 . S
C674 C672 1.384 . S
C674 C675 1.360 1_655 S
C675 C674 1.360 1_455 S
C675 C676 1.413 . S
C675 C680 1.489 . S
C676 H666 0.930 . S
C676 C675 1.413 . S
C676 C679 1.386 . S
H677 C693 0.930 . S
H678 C694 0.931 . S
C679 H667 0.929 . S
C679 C673 1.390 1_455 S
C679 C676 1.386 . S
C680 C675 1.489 . S
C680 C682 1.395 1_455 S
C680 C683 1.403 . S
H681 C687 0.930 . S
C682 H668 0.930 . S
C682 C680 1.395 1_655 S
C682 C685 1.403 . S
C683 C680 1.403 . S
C683 C684 1.524 . S
C683 C687 1.400 . S
C684 H669 0.960 . S
C684 H670 0.960 . S
C684 H671 0.960 . S
C684 C683 1.524 . S
C685 C682 1.403 . S
C685 C686 1.392 1_655 S
C685 C689 1.495 . S
C686 C685 1.392 1_455 S
C686 C687 1.385 . S
C686 C688 1.478 . S
C687 H681 0.930 . S
C687 C683 1.400 . S
C687 C686 1.385 . S
C688 C686 1.478 . S
C688 C690 1.381 1_455 S
C688 C694 1.383 . S
C689 C685 1.495 . S
C689 H695 0.959 . S
C689 H696 0.961 . S
C689 H697 0.960 . S
C690 C688 1.381 1_655 S
C690 C691 1.394 . S
C690 H698 0.930 . S
C691 C690 1.394 . S
C691 C692 1.383 1_655 S
C691 H699 0.929 . S
C692 C691 1.383 1_455 S
C692 C693 1.377 . S
C693 H677 0.930 . S
C693 C692 1.377 . S
C693 C694 1.379 . S
C694 H678 0.931 . S
C694 C688 1.383 . S
C694 C693 1.379 . S
H695 C689 0.959 . S
H696 C689 0.961 . S
H697 C689 0.960 . S
H698 C690 0.930 . S
H699 C691 0.929 . S
H700 C708 0.929 . S
H701 C710 0.930 . S
H702 C712 0.930 . S
H703 C715 0.929 . S
H704 C718 0.930 . S
H705 C720 0.960 . S
H706 C720 0.960 1_554 S
H707 C720 0.960 . S
C708 H700 0.929 . S
C708 C709 1.377 . S
C708 C710 1.384 . S
C709 C708 1.377 . S
C709 C715 1.390 . S
C710 H701 0.930 . S
C710 C708 1.384 . S
C710 C711 1.372 . S
C711 C710 1.372 . S
C711 C712 1.400 . S
C711 C716 1.490 . S
C712 H702 0.930 . S
C712 C711 1.400 . S
C712 C715 1.386 . S
H713 C729 0.930 . S
H714 C730 0.931 . S
C715 H703 0.929 . S
C715 C709 1.390 . S
C715 C712 1.386 . S
C716 C711 1.490 . S
C716 C718 1.395 . S
C716 C719 1.403 . S
H717 C723 0.930 . S
C718 H704 0.930 . S
C718 C716 1.395 . S
C718 C721 1.403 . S
C719 C716 1.403 . S
C719 C720 1.524 . S
C719 C723 1.400 . S
C720 H705 0.960 . S
C720 H706 0.960 1_556 S
C720 H707 0.960 . S
C720 C719 1.524 . S
C721 C718 1.403 . S
C721 C722 1.392 . S
C721 C725 1.495 1_565 S
C722 C721 1.392 . S
C722 C723 1.385 . S
C722 C724 1.478 . S
C723 H717 0.930 . S
C723 C719 1.400 . S
C723 C722 1.385 . S
C724 C722 1.478 . S
C724 C726 1.381 1_565 S
C724 C730 1.383 . S
C725 C721 1.495 1_545 S
C725 H731 0.959 . S
C725 H732 0.969 . S
C725 H733 0.960 . S
C726 C724 1.381 1_545 S
C726 C727 1.394 . S
C726 H734 0.930 . S
C727 C726 1.394 . S
C727 C728 1.383 1_545 S
C727 H735 0.929 . S
C728 C727 1.383 1_565 S
C728 C729 1.377 . S
C729 H713 0.930 . S
C729 C728 1.377 . S
C729 C730 1.379 . S
C730 H714 0.931 . S
C730 C724 1.383 . S
C730 C729 1.379 . S
H731 C725 0.959 . S
H732 C725 0.969 . S
H733 C725 0.960 . S
H734 C726 0.930 . S
H735 C727 0.929 . S
H736 C744 0.929 . S
H737 C746 0.930 . S
H738 C748 0.930 . S
H739 C751 0.929 . S
H740 C754 0.930 . S
H741 C756 0.960 . S
H742 C756 0.960 . S
H743 C756 0.960 . S
C744 H736 0.929 . S
C744 C745 1.377 . S
C744 C746 1.384 . S
C745 C744 1.377 . S
C745 C751 1.390 1_554 S
C746 H737 0.930 . S
C746 C744 1.384 . S
C746 C747 1.372 1_554 S
C747 C746 1.372 1_556 S
C747 C748 1.400 . S
C747 C752 1.490 . S
C748 H738 0.930 . S
C748 C747 1.400 . S
C748 C751 1.386 . S
H749 C765 0.930 . S
H750 C766 0.931 . S
C751 H739 0.929 . S
C751 C745 1.390 1_556 S
C751 C748 1.386 . S
C752 C747 1.490 . S
C752 C754 1.395 . S
C752 C755 1.403 . S
H753 C759 0.930 . S
C754 H740 0.930 . S
C754 C752 1.395 . S
C754 C757 1.403 . S
C755 C752 1.403 . S
C755 C756 1.524 . S
C755 C759 1.400 . S
C756 H741 0.960 . S
C756 H742 0.960 . S
C756 H743 0.960 . S
C756 C755 1.524 . S
C757 C754 1.403 . S
C757 C758 1.392 . S
C757 C761 1.495 . S
C758 C757 1.392 . S
C758 C759 1.385 . S
C758 C760 1.478 . S
C759 H753 0.930 . S
C759 C755 1.400 . S
C759 C758 1.385 . S
C760 C758 1.478 . S
C760 C762 1.381 . S
C760 C766 1.383 . S
C761 C757 1.495 . S
C761 H767 0.959 . S
C761 H768 0.961 . S
C761 H769 0.960 . S
C762 C760 1.381 . S
C762 C763 1.394 . S
C762 H770 0.930 . S
C763 C762 1.394 . S
C763 C764 1.383 . S
C763 H771 0.929 . S
C764 C763 1.383 . S
C764 C765 1.377 . S
C765 H749 0.930 . S
C765 C764 1.377 . S
C765 C766 1.379 . S
C766 H750 0.931 . S
C766 C760 1.383 . S
C766 C765 1.379 . S
H767 C761 0.959 . S
H768 C761 0.961 . S
H769 C761 0.960 . S
H770 C762 0.930 . S
H771 C763 0.929 . S
H772 C780 0.929 1_554 S
H773 C782 0.930 . S
H774 C784 0.930 . S
H775 C787 0.929 . S
H776 C790 0.930 . S
H777 C792 0.960 . S
H778 C792 0.960 . S
H779 C792 0.960 . S
C780 H772 0.929 1_556 S
C780 C781 1.377 . S
C780 C782 1.384 . S
C781 C780 1.377 . S
C781 C787 1.390 . S
C782 H773 0.930 . S
C782 C780 1.384 . S
C782 C783 1.372 . S
C783 C782 1.372 . S
C783 C784 1.400 . S
C783 C788 1.490 . S
C784 H774 0.930 . S
C784 C783 1.400 . S
C784 C787 1.386 . S
H785 C801 0.930 . S
H786 C802 0.931 . S
C787 H775 0.929 . S
C787 C781 1.390 . S
C787 C784 1.386 . S
C788 C783 1.490 . S
C788 C790 1.395 . S
C788 C791 1.403 . S
H789 C795 0.930 . S
C790 H776 0.930 . S
C790 C788 1.395 . S
C790 C793 1.403 . S
C791 C788 1.403 . S
C791 C792 1.524 . S
C791 C795 1.400 . S
C792 H777 0.960 . S
C792 H778 0.960 . S
C792 H779 0.960 . S
C792 C791 1.524 . S
C793 C790 1.403 . S
C793 C794 1.392 . S
C793 C797 1.495 . S
C794 C793 1.392 . S
C794 C795 1.385 . S
C794 C796 1.478 . S
C795 H789 0.930 . S
C795 C791 1.400 . S
C795 C794 1.385 . S
C796 C794 1.478 . S
C796 C798 1.381 . S
C796 C802 1.383 . S
C797 C793 1.495 . S
C797 H803 0.959 . S
C797 H804 0.961 . S
C797 H805 0.960 . S
C798 C796 1.381 . S
C798 C799 1.394 . S
C798 H806 0.930 . S
C799 C798 1.394 . S
C799 C800 1.383 . S
C799 H807 0.929 . S
C800 C799 1.383 . S
C800 C801 1.377 . S
C801 H785 0.930 . S
C801 C800 1.377 . S
C801 C802 1.379 . S
C802 H786 0.931 . S
C802 C796 1.383 . S
C802 C801 1.379 . S
H803 C797 0.959 . S
H804 C797 0.961 . S
H805 C797 0.960 . S
H806 C798 0.930 . S
H807 C799 0.929 . S
H808 C816 0.929 . S
H809 C818 0.930 . S
H810 C820 0.930 1_554 S
H811 C823 0.929 . S
H812 C826 0.930 . S
H813 C828 0.960 . S
H814 C828 0.960 . S
H815 C828 0.960 . S
C816 H808 0.929 . S
C816 C817 1.377 . S
C816 C818 1.384 . S
C817 C816 1.377 . S
C817 C823 1.390 1_556 S
C818 H809 0.930 . S
C818 C816 1.384 . S
C818 C819 1.372 . S
C819 C818 1.372 . S
C819 C820 1.400 . S
C819 C824 1.490 . S
C820 H810 0.930 1_556 S
C820 C819 1.400 . S
C820 C823 1.386 1_556 S
H821 C837 0.930 . S
H822 C838 0.931 . S
C823 H811 0.929 . S
C823 C817 1.390 1_554 S
C823 C820 1.386 1_554 S
C824 C819 1.490 . S
C824 C826 1.395 . S
C824 C827 1.403 1_455 S
H825 C831 0.930 . S
C826 H812 0.930 . S
C826 C824 1.395 . S
C826 C829 1.403 . S
C827 C824 1.403 1_655 S
C827 C828 1.524 . S
C827 C831 1.400 . S
C828 H813 0.960 . S
C828 H814 0.960 . S
C828 H815 0.960 . S
C828 C827 1.524 . S
C829 C826 1.403 . S
C829 C830 1.392 . S
C829 C833 1.495 . S
C830 C829 1.392 . S
C830 C831 1.385 1_455 S
C830 C832 1.478 . S
C831 H825 0.930 . S
C831 C827 1.400 . S
C831 C830 1.385 1_655 S
C832 C830 1.478 . S
C832 C834 1.381 . S
C832 C838 1.383 . S
C833 C829 1.495 . S
C833 H839 0.959 . S
C833 H840 0.961 . S
C833 H841 0.960 . S
C834 C832 1.381 . S
C834 C835 1.394 . S
C834 H842 0.930 . S
C835 C834 1.394 . S
C835 C836 1.383 . S
C835 H843 0.929 . S
C836 C835 1.383 . S
C836 C837 1.377 . S
C837 H821 0.930 . S
C837 C836 1.377 . S
C837 C838 1.379 . S
C838 H822 0.931 . S
C838 C832 1.383 . S
C838 C837 1.379 . S
H839 C833 0.959 . S
H840 C833 0.961 . S
H841 C833 0.960 . S
H842 C834 0.930 . S
H843 C835 0.929 . S
H844 C852 0.929 . S
H845 C854 0.930 . S
H846 C856 0.930 . S
H847 C859 0.929 . S
H848 C862 0.930 . S
H849 C864 0.960 . S
H850 C864 0.960 . S
H851 C864 0.960 . S
C852 H844 0.929 . S
C852 C853 1.377 . S
C852 C854 1.384 . S
C853 C852 1.377 . S
C853 C859 1.390 1_554 S
C854 H845 0.930 . S
C854 C852 1.384 . S
C854 C855 1.372 1_554 S
C855 C854 1.372 1_556 S
C855 C856 1.400 . S
C855 C860 1.490 . S
C856 H846 0.930 . S
C856 C855 1.400 . S
C856 C859 1.386 . S
H857 C873 0.910 1_565 S
H858 C874 0.931 . S
C859 H847 0.929 . S
C859 C853 1.390 1_556 S
C859 C856 1.386 . S
C860 C855 1.490 . S
C860 C862 1.395 . S
C860 C863 1.403 . S
H861 C867 0.930 . S
C862 H848 0.930 . S
C862 C860 1.395 . S
C862 C865 1.403 . S
C863 C860 1.403 . S
C863 C864 1.524 . S
C863 C867 1.400 . S
C864 H849 0.960 . S
C864 H850 0.960 . S
C864 H851 0.960 . S
C864 C863 1.524 . S
C865 C862 1.403 . S
C865 C866 1.392 . S
C865 C869 1.495 . S
C866 C865 1.392 . S
C866 C867 1.385 . S
C866 C868 1.478 . S
C867 H861 0.930 . S
C867 C863 1.400 . S
C867 C866 1.385 . S
C868 C866 1.478 . S
C868 C870 1.381 . S
C868 C874 1.383 . S
C869 C865 1.495 . S
C869 H875 0.959 1_545 S
C869 H876 0.961 1_545 S
C869 H877 0.960 . S
C870 C868 1.381 . S
C870 C871 1.394 . S
C870 H878 0.930 . S
C871 C870 1.394 . S
C871 C872 1.383 . S
C871 H879 0.929 . S
C872 C871 1.383 . S
C872 C873 1.377 . S
C873 H857 0.910 1_545 S
C873 C872 1.377 . S
C873 C874 1.379 . S
C874 H858 0.931 . S
C874 C868 1.383 . S
C874 C873 1.379 . S
H875 C869 0.959 1_565 S
H876 C869 0.961 1_565 S
H877 C869 0.960 . S
H878 C870 0.930 . S
H879 C871 0.929 . S
H880 C888 0.929 . S
H881 C890 0.930 . S
H882 C892 0.930 . S
H883 C895 0.929 . S
H884 C898 0.930 . S
H885 C900 0.960 . S
H886 C900 0.960 . S
H887 C900 0.960 . S
C888 H880 0.929 . S
C888 C889 1.377 . S
C888 C890 1.384 . S
C889 C888 1.377 . S
C889 C895 1.390 . S
C890 H881 0.930 . S
C890 C888 1.384 . S
C890 C891 1.372 . S
C891 C890 1.372 . S
C891 C892 1.400 . S
C891 C896 1.490 . S
C892 H882 0.930 . S
C892 C891 1.400 . S
C892 C895 1.386 . S
H893 C909 0.930 . S
H894 C910 0.931 . S
C895 H883 0.929 . S
C895 C889 1.390 . S
C895 C892 1.386 . S
C896 C891 1.490 . S
C896 C898 1.395 . S
C896 C899 1.403 . S
H897 C903 0.930 . S
C898 H884 0.930 . S
C898 C896 1.395 . S
C898 C901 1.403 . S
C899 C896 1.403 . S
C899 C900 1.524 . S
C899 C903 1.400 . S
C900 H885 0.960 . S
C900 H886 0.960 . S
C900 H887 0.960 . S
C900 C899 1.524 . S
C901 C898 1.403 . S
C901 C902 1.392 . S
C901 C905 1.495 . S
C902 C901 1.392 . S
C902 C903 1.385 . S
C902 C904 1.478 . S
C903 H897 0.930 . S
C903 C899 1.400 . S
C903 C902 1.385 . S
C904 C902 1.478 . S
C904 C906 1.381 . S
C904 C910 1.383 . S
C905 C901 1.495 . S
C905 H911 0.959 . S
C905 H912 0.961 . S
C905 H913 0.960 . S
C906 C904 1.381 . S
C906 C907 1.394 . S
C906 H914 0.930 . S
C907 C906 1.394 . S
C907 C908 1.383 . S
C907 H915 0.929 . S
C908 C907 1.383 . S
C908 C909 1.377 . S
C909 H893 0.930 . S
C909 C908 1.377 . S
C909 C910 1.379 . S
C910 H894 0.931 . S
C910 C904 1.383 . S
C910 C909 1.379 . S
H911 C905 0.959 . S
H912 C905 0.961 . S
H913 C905 0.960 . S
H914 C906 0.930 . S
H915 C907 0.929 . S
H916 C924 0.929 . S
H917 C926 0.930 . S
H918 C928 0.930 . S
H919 C931 0.929 . S
H920 C934 0.930 . S
H921 C936 0.960 . S
H922 C936 0.960 . S
H923 C936 0.960 . S
C924 H916 0.929 . S
C924 C925 1.377 . S
C924 C926 1.384 . S
C925 C924 1.377 . S
C925 C931 1.390 . S
C926 H917 0.930 . S
C926 C924 1.384 . S
C926 C927 1.372 . S
C927 C926 1.372 . S
C927 C928 1.400 . S
C927 C932 1.490 . S
C928 H918 0.930 . S
C928 C927 1.400 . S
C928 C931 1.386 . S
H929 C945 0.930 . S
H930 C946 0.931 . S
C931 H919 0.929 . S
C931 C925 1.390 . S
C931 C928 1.386 . S
C932 C927 1.490 . S
C932 C934 1.395 . S
C932 C935 1.403 . S
H933 C939 0.930 . S
C934 H920 0.930 . S
C934 C932 1.395 . S
C934 C937 1.403 . S
C935 C932 1.403 . S
C935 C936 1.524 . S
C935 C939 1.400 . S
C936 H921 0.960 . S
C936 H922 0.960 . S
C936 H923 0.960 . S
C936 C935 1.524 . S
C937 C934 1.403 . S
C937 C938 1.392 . S
C937 C941 1.495 . S
C938 C937 1.392 . S
C938 C939 1.385 . S
C938 C940 1.478 . S
C939 H933 0.930 . S
C939 C935 1.400 . S
C939 C938 1.385 . S
C940 C938 1.478 . S
C940 C942 1.381 . S
C940 C946 1.383 . S
C941 C937 1.495 . S
C941 H947 0.959 . S
C941 H948 0.961 . S
C941 H949 0.960 . S
C942 C940 1.381 . S
C942 C943 1.394 . S
C942 H950 0.930 . S
C943 C942 1.394 . S
C943 C944 1.383 . S
C943 H951 0.929 . S
C944 C943 1.383 . S
C944 C945 1.377 . S
C945 H929 0.930 . S
C945 C944 1.377 . S
C945 C946 1.379 . S
C946 H930 0.931 . S
C946 C940 1.383 . S
C946 C945 1.379 . S
H947 C941 0.959 . S
H948 C941 0.961 . S
H949 C941 0.960 . S
H950 C942 0.930 . S
H951 C943 0.929 . S
H952 C960 0.929 . S
H953 C962 0.930 . S
H954 C964 0.930 . S
H955 C967 0.929 . S
H956 C970 0.930 . S
H957 C972 0.960 . S
H958 C972 0.960 . S
H959 C972 0.960 . S
C960 H952 0.929 . S
C960 C961 1.377 1_455 S
C960 C962 1.384 . S
C961 C960 1.377 1_655 S
C961 C967 1.390 . S
C962 H953 0.930 . S
C962 C960 1.384 . S
C962 C963 1.372 1_455 S
C963 C962 1.372 1_655 S
C963 C964 1.400 . S
C963 C968 1.490 . S
C964 H954 0.930 . S
C964 C963 1.400 . S
C964 C967 1.386 . S
H965 C981 0.930 . S
H966 C982 0.931 . S
C967 H955 0.929 . S
C967 C961 1.390 . S
C967 C964 1.386 . S
C968 C963 1.490 . S
C968 C970 1.395 1_655 S
C968 C971 1.403 . S
H969 C975 0.930 . S
C970 H956 0.930 . S
C970 C968 1.395 1_455 S
C970 C973 1.403 . S
C971 C968 1.403 . S
C971 C972 1.524 . S
C971 C975 1.400 . S
C972 H957 0.960 . S
C972 H958 0.960 . S
C972 H959 0.960 . S
C972 C971 1.524 . S
C973 C970 1.403 . S
C973 C974 1.392 . S
C973 C977 1.495 . S
C974 C973 1.392 . S
C974 C975 1.385 1_455 S
C974 C976 1.483 . S
C975 H969 0.930 . S
C975 C971 1.400 . S
C975 C974 1.385 1_655 S
C976 C974 1.483 . S
C976 C978 1.407 . S
C976 C982 1.351 1_455 S
C977 C973 1.495 . S
C977 H983 0.959 . S
C977 H984 0.961 . S
C977 H985 0.960 . S
C978 C976 1.407 . S
C978 C979 1.394 . S
C978 H986 0.930 . S
C979 C978 1.394 . S
C979 C980 1.383 1_455 S
C979 H987 0.929 . S
C980 C979 1.383 1_655 S
C980 C981 1.377 . S
C981 H965 0.930 . S
C981 C980 1.377 . S
C981 C982 1.379 . S
C982 H966 0.931 . S
C982 C976 1.351 1_655 S
C982 C981 1.379 . S
H983 C977 0.959 . S
H984 C977 0.961 . S
H985 C977 0.960 . S
H986 C978 0.930 . S
H987 C979 0.929 . S
H988 C996 0.929 . S
H989 C998 0.930 . S
H990 C1000 0.930 . S
H991 C1003 0.929 . S
H992 C1006 0.930 . S
H993 C1008 0.960 . S
H994 C1008 0.960 . S
H995 C1008 0.960 . S
C996 H988 0.929 . S
C996 C997 1.377 . S
C996 C998 1.384 . S
C997 C996 1.377 . S
C997 C1003 1.390 . S
C998 H989 0.930 . S
C998 C996 1.384 . S
C998 C999 1.372 . S
C999 C998 1.372 . S
C999 C1000 1.400 . S
C999 C1004 1.490 . S
C1000 H990 0.930 . S
C1000 C999 1.400 . S
C1000 C1003 1.386 . S
H1001 C1017 0.930 . S
H1002 C1018 0.931 . S
C1003 H991 0.929 . S
C1003 C997 1.390 . S
C1003 C1000 1.386 . S
C1004 C999 1.490 . S
C1004 C1006 1.395 . S
C1004 C1007 1.403 . S
H1005 C1011 0.930 . S
C1006 H992 0.930 . S
C1006 C1004 1.395 . S
C1006 C1009 1.403 . S
C1007 C1004 1.403 . S
C1007 C1008 1.524 . S
C1007 C1011 1.400 . S
C1008 H993 0.960 . S
C1008 H994 0.960 . S
C1008 H995 0.960 . S
C1008 C1007 1.524 . S
C1009 C1006 1.403 . S
C1009 C1010 1.392 . S
C1009 C1013 1.495 . S
C1010 C1009 1.392 . S
C1010 C1011 1.385 . S
C1010 C1012 1.478 . S
C1011 H1005 0.930 . S
C1011 C1007 1.400 . S
C1011 C1010 1.385 . S
C1012 C1010 1.478 . S
C1012 C1014 1.381 . S
C1012 C1018 1.383 1_565 S
C1013 C1009 1.495 . S
C1013 H1019 0.959 . S
C1013 H1020 0.961 . S
C1013 H1021 0.960 . S
C1014 C1012 1.381 . S
C1014 C1015 1.394 . S
C1014 H1022 0.930 . S
C1015 C1014 1.394 . S
C1015 C1016 1.383 . S
C1015 H1023 0.929 . S
C1016 C1015 1.383 . S
C1016 C1017 1.377 1_565 S
C1017 H1001 0.930 . S
C1017 C1016 1.377 1_545 S
C1017 C1018 1.379 . S
C1018 H1002 0.931 . S
C1018 C1012 1.383 1_545 S
C1018 C1017 1.379 . S
H1019 C1013 0.959 . S
H1020 C1013 0.961 . S
H1021 C1013 0.960 . S
H1022 C1014 0.930 . S
H1023 C1015 0.929 . S
H1024 C1032 0.929 . S
H1025 C1034 0.930 . S
H1026 C1036 0.930 . S
H1027 C1039 0.929 . S
H1028 C1042 0.930 . S
H1029 C1044 0.960 . S
H1030 C1044 0.960 . S
H1031 C1044 0.960 . S
C1032 H1024 0.929 . S
C1032 C1033 1.377 . S
C1032 C1034 1.384 . S
C1033 C1032 1.377 . S
C1033 C1039 1.390 . S
C1034 H1025 0.930 . S
C1034 C1032 1.384 . S
C1034 C1035 1.372 . S
C1035 C1034 1.372 . S
C1035 C1036 1.400 . S
C1035 C1040 1.490 . S
C1036 H1026 0.930 . S
C1036 C1035 1.400 . S
C1036 C1039 1.386 . S
H1037 C1053 0.930 . S
H1038 C1054 0.931 . S
C1039 H1027 0.929 . S
C1039 C1033 1.390 . S
C1039 C1036 1.386 . S
C1040 C1035 1.490 . S
C1040 C1042 1.395 . S
C1040 C1043 1.403 . S
H1041 C1047 0.930 . S
C1042 H1028 0.930 . S
C1042 C1040 1.395 . S
C1042 C1045 1.403 . S
C1043 C1040 1.403 . S
C1043 C1044 1.524 . S
C1043 C1047 1.400 . S
C1044 H1029 0.960 . S
C1044 H1030 0.960 . S
C1044 H1031 0.960 . S
C1044 C1043 1.524 . S
C1045 C1042 1.403 . S
C1045 C1046 1.392 . S
C1045 C1049 1.495 . S
C1046 C1045 1.392 . S
C1046 C1047 1.385 . S
C1046 C1048 1.478 . S
C1047 H1041 0.930 . S
C1047 C1043 1.400 . S
C1047 C1046 1.385 . S
C1048 C1046 1.478 . S
C1048 C1050 1.381 . S
C1048 C1054 1.383 . S
C1049 C1045 1.495 . S
C1049 H1055 0.959 . S
C1049 H1056 0.961 . S
C1049 H1057 0.960 . S
C1050 C1048 1.381 . S
C1050 C1051 1.394 . S
C1050 H1058 0.930 . S
C1051 C1050 1.394 . S
C1051 C1052 1.383 . S
C1051 H1059 0.929 . S
C1052 C1051 1.383 . S
C1052 C1053 1.377 . S
C1053 H1037 0.930 . S
C1053 C1052 1.377 . S
C1053 C1054 1.379 . S
C1054 H1038 0.931 . S
C1054 C1048 1.383 . S
C1054 C1053 1.379 . S
H1055 C1049 0.959 . S
H1056 C1049 0.961 . S
H1057 C1049 0.960 . S
H1058 C1050 0.930 . S
H1059 C1051 0.929 . S
H1060 C1068 0.929 . S
H1061 C1070 0.930 . S
H1062 C1072 0.930 . S
H1063 C1075 0.929 . S
H1064 C1078 0.930 . S
H1065 C1080 0.960 . S
H1066 C1080 0.960 . S
H1067 C1080 0.960 . S
C1068 H1060 0.929 . S
C1068 C1069 1.377 . S
C1068 C1070 1.384 . S
C1069 C1068 1.377 . S
C1069 C1075 1.390 . S
C1070 H1061 0.930 . S
C1070 C1068 1.384 . S
C1070 C1071 1.372 . S
C1071 C1070 1.372 . S
C1071 C1072 1.400 . S
C1071 C1076 1.490 . S
C1072 H1062 0.930 . S
C1072 C1071 1.400 . S
C1072 C1075 1.386 . S
H1073 C1089 0.930 . S
H1074 C1090 0.931 . S
C1075 H1063 0.929 . S
C1075 C1069 1.390 . S
C1075 C1072 1.386 . S
C1076 C1071 1.490 . S
C1076 C1078 1.395 . S
C1076 C1079 1.403 . S
H1077 C1083 0.930 . S
C1078 H1064 0.930 . S
C1078 C1076 1.395 . S
C1078 C1081 1.403 . S
C1079 C1076 1.403 . S
C1079 C1080 1.524 . S
C1079 C1083 1.400 . S
C1080 H1065 0.960 . S
C1080 H1066 0.960 . S
C1080 H1067 0.960 . S
C1080 C1079 1.524 . S
C1081 C1078 1.403 . S
C1081 C1082 1.392 . S
C1081 C1085 1.495 . S
C1082 C1081 1.392 . S
C1082 C1083 1.385 . S
C1082 C1084 1.478 . S
C1083 H1077 0.930 . S
C1083 C1079 1.400 . S
C1083 C1082 1.385 . S
C1084 C1082 1.478 . S
C1084 C1086 1.381 . S
C1084 C1090 1.383 . S
C1085 C1081 1.495 . S
C1085 H1091 0.959 . S
C1085 H1092 0.961 . S
C1085 H1093 0.960 . S
C1086 C1084 1.381 . S
C1086 C1087 1.394 . S
C1086 H1094 0.930 . S
C1087 C1086 1.394 . S
C1087 C1088 1.383 . S
C1087 H1095 0.929 . S
C1088 C1087 1.383 . S
C1088 C1089 1.377 . S
C1089 H1073 0.930 . S
C1089 C1088 1.377 . S
C1089 C1090 1.379 . S
C1090 H1074 0.931 . S
C1090 C1084 1.383 . S
C1090 C1089 1.379 . S
H1091 C1085 0.959 . S
H1092 C1085 0.961 . S
H1093 C1085 0.960 . S
H1094 C1086 0.930 . S
H1095 C1087 0.929 . S
C241 C125 1.634 . S
C260 C160 1.736 . S
C296 C190 1.876 . S
C277 C144 1.778 . S
C332 C200 1.449 . S
C313 C87 1.413 . S
C368 C220 1.312 . S
C349 C106 1.270 . S
C404 C161 1.753 . S
C385 C49 1.705 . S
C421 C68 1.848 1_556 S
C440 C191 1.877 . S
C457 C11 1.420 1_556 S
C476 C201 1.451 . S
C493 C30 1.291 . S
C512 C221 1.324 . S
C548 C153 0.776 . S
C529 C97 0.748 . S
C584 C174 0.460 . S
C565 C116 0.506 . S
C620 C193 0.966 . S
C601 C135 0.938 . S
C637 C78 0.635 . S
C656 C213 0.585 . S
C673 C21 0.769 . S
C692 C154 0.739 . S
C728 C173 0.315 1_565 S
C709 C40 0.487 . S
C764 C194 0.964 . S
C745 C59 0.944 . S
C781 C2 0.621 1_556 S
C800 C214 0.640 . S
C817 C101 1.513 1_556 S
C836 C171 1.573 . S
C853 C120 1.329 . S
C872 C181 1.390 . S
C908 C211 1.780 . S
C889 C139 1.708 . S
C944 C231 1.796 . S
C925 C82 1.737 1_556 S
C961 C25 1.514 . S
C980 C170 1.541 . S
C1016 C180 1.392 . S
C997 C44 1.331 . S
C1052 C210 1.800 . S
C1033 C63 1.713 . S
C1069 C6 1.732 . S
C1088 C230 1.789 . S
