# Generated by pormake.
# Topology anh, (6,3)-cn, num edge types: 1
# Building blocks:
#     Node 0, Type 0, BuildingBlock: VOLQOD_clean_sbu_1, # of connection points: 6
#     Node 1, Type 0, BuildingBlock: VOLQOD_clean_sbu_1, # of connection points: 6
#     Node 2, Type 0, BuildingBlock: VOLQOD_clean_sbu_1, # of connection points: 6
#     Node 3, Type 1, BuildingBlock: BELTOD_clean_linker_0, # of connection points: 3
#     Node 4, Type 1, BuildingBlock: BELTOD_clean_linker_0, # of connection points: 3
#     Node 5, Type 1, BuildingBlock: BELTOD_clean_linker_0, # of connection points: 3
#     Node 6, Type 1, BuildingBlock: BELTOD_clean_linker_0, # of connection points: 3
#     Node 7, Type 1, BuildingBlock: BELTOD_clean_linker_0, # of connection points: 3
#     Node 8, Type 1, BuildingBlock: BELTOD_clean_linker_0, # of connection points: 3
#     Edge 9, Type (0, 1), BuildingBlock: KIFKEQ_clean_linker_1, # of connection points: 2
#     Edge 10, Type (0, 1), BuildingBlock: KIFKEQ_clean_linker_1, # of connection points: 2
#     Edge 11, Type (0, 1), BuildingBlock: KIFKEQ_clean_linker_1, # of connection points: 2
#     Edge 12, Type (0, 1), BuildingBlock: KIFKEQ_clean_linker_1, # of connection points: 2
#     Edge 13, Type (0, 1), BuildingBlock: KIFKEQ_clean_linker_1, # of connection points: 2
#     Edge 14, Type (0, 1), BuildingBlock: KIFKEQ_clean_linker_1, # of connection points: 2
#     Edge 15, Type (0, 1), BuildingBlock: KIFKEQ_clean_linker_1, # of connection points: 2
#     Edge 16, Type (0, 1), BuildingBlock: KIFKEQ_clean_linker_1, # of connection points: 2
#     Edge 17, Type (0, 1), BuildingBlock: KIFKEQ_clean_linker_1, # of connection points: 2
#     Edge 18, Type (0, 1), BuildingBlock: KIFKEQ_clean_linker_1, # of connection points: 2
#     Edge 19, Type (0, 1), BuildingBlock: KIFKEQ_clean_linker_1, # of connection points: 2
#     Edge 20, Type (0, 1), BuildingBlock: KIFKEQ_clean_linker_1, # of connection points: 2
#     Edge 21, Type (0, 1), BuildingBlock: KIFKEQ_clean_linker_1, # of connection points: 2
#     Edge 22, Type (0, 1), BuildingBlock: KIFKEQ_clean_linker_1, # of connection points: 2
#     Edge 23, Type (0, 1), BuildingBlock: KIFKEQ_clean_linker_1, # of connection points: 2
#     Edge 24, Type (0, 1), BuildingBlock: KIFKEQ_clean_linker_1, # of connection points: 2
#     Edge 25, Type (0, 1), BuildingBlock: KIFKEQ_clean_linker_1, # of connection points: 2
#     Edge 26, Type (0, 1), BuildingBlock: KIFKEQ_clean_linker_1, # of connection points: 2
# Relax obj value: 0.161
# Max RMSD: 0.227
# Mean RMSD: 0.107
data_MOF--net-anh--node1-VOLQOD_clean_sbu_1--node2-BELTOD_clean_linker_0--edge1-KIFKEQ_clean_linker_1
_symmetry_space_group_name_H-M    P1
_symmetry_Int_Tables_number       1
_symmetry_cell_setting            triclinic
loop_
_symmetry_equiv_pos_as_xyz
'x, y, z'
_cell_length_a     32.830431
_cell_length_b     32.762591
_cell_length_c     69.375428
_cell_angle_alpha  89.943083
_cell_angle_beta   89.687931
_cell_angle_gamma 120.21951
loop_
_atom_site_label
_atom_site_type_symbol
_atom_site_fract_x
_atom_site_fract_y
_atom_site_fract_z
_atom_type_partial_charge
O0 O 0.00027 0.56131 0.20633 0.0
Zn1 Zn 0.00304 0.58458 0.17897 0.0
O2 O 0.01381 0.54581 0.16024 0.0
Zn3 Zn 0.96214 0.51656 0.14194 0.0
Zn4 Zn 0.01893 0.49696 0.17396 0.0
Zn5 Zn 0.07164 0.58407 0.14578 0.0
O6 O 0.98444 0.53074 0.11417 0.0
O7 O 0.05923 0.58649 0.11773 0.0
O8 O 0.94203 0.58384 0.17334 0.0
O9 O 0.91968 0.54276 0.14606 0.0
O10 O 0.92189 0.44605 0.14665 0.0
O11 O 0.96292 0.43361 0.16886 0.0
O12 O 0.07677 0.49498 0.16646 0.0
O13 O 0.05779 0.65196 0.17826 0.0
O14 O 0.11481 0.55722 0.14719 0.0
O15 O 0.10554 0.6499 0.15594 0.0
C16 C 0.01012 0.53135 0.21333 0.0
C17 C 0.0239 0.56178 0.10702 0.0
C18 C 0.92718 0.41843 0.15797 0.0
C19 C 0.91424 0.56703 0.15904 0.0
C20 C 0.11194 0.5215 0.15578 0.0
C21 C 0.09613 0.6722 0.16855 0.0
O22 O 0.0201 0.5063 0.20246 0.0
O23 O 0.45777 0.02302 0.45549 0.0
Zn24 Zn 0.43571 0.02075 0.48303 0.0
O25 O 0.47735 0.01413 0.50129 0.0
Zn26 Zn 0.5102 0.0706 0.51659 0.0
Zn27 Zn 0.52328 0.00485 0.48723 0.0
Zn28 Zn 0.44146 0.96126 0.51874 0.0
O29 O 0.50905 0.05548 0.54469 0.0
O30 O 0.45097 0.981 0.54665 0.0
O31 O 0.43061 0.07883 0.48877 0.0
O32 O 0.47804 0.10795 0.51407 0.0
O33 O 0.57758 0.11107 0.50781 0.0
O34 O 0.58801 0.06151 0.4895 0.0
O35 O 0.5248 0.94758 0.4964 0.0
O36 O 0.37057 0.96336 0.4852 0.0
O37 O 0.46414 0.91483 0.51674 0.0
O38 O 0.37301 0.92653 0.51174 0.0
C39 C 0.48493 0.00959 0.44833 0.0
C40 C 0.48177 0.01904 0.55466 0.0
C41 C 0.60392 0.10164 0.49746 0.0
C42 C 0.44861 0.10861 0.5024 0.0
C43 C 0.49798 0.9144 0.50789 0.0
C44 C 0.35049 0.93006 0.49755 0.0
O45 O 0.50902 -0.0019 0.459 0.0
O46 O 0.45082 0.45841 0.7904 0.0
Zn47 Zn 0.4285 0.43595 0.81778 0.0
O48 O 0.47753 0.47488 0.8366 0.0
Zn49 Zn 0.45402 0.50293 0.85512 0.0
Zn50 Zn 0.53145 0.52503 0.82319 0.0
Zn51 Zn 0.49798 0.43705 0.85055 0.0
O52 O 0.46263 0.48892 0.88274 0.0
O53 O 0.48543 0.43615 0.87888 0.0
O54 O 0.3682 0.43714 0.82316 0.0
O55 O 0.38515 0.47548 0.85111 0.0
O56 O 0.48323 0.57348 0.85077 0.0
O57 O 0.53727 0.58748 0.82836 0.0
O58 O 0.59171 0.52883 0.83089 0.0
O59 O 0.41428 0.36812 0.819 0.0
O60 O 0.56787 0.46291 0.8477 0.0
O61 O 0.46413 0.37069 0.84115 0.0
C62 C 0.49087 0.48928 0.78363 0.0
C63 C 0.47338 0.45961 0.88975 0.0
C64 C 0.51611 0.60177 0.83944 0.0
C65 C 0.35619 0.45232 0.83779 0.0
C66 C 0.60064 0.50072 0.84011 0.0
C67 C 0.43183 0.34794 0.82889 0.0
O68 O 0.52483 0.51553 0.7947 0.0
P69 P 0.54657 0.98076 0.24018 0.0
H70 H 0.50743 0.95373 0.20175 0.0
H71 H 0.42768 0.92159 0.18919 0.0
H72 H 0.37984 0.93792 0.24529 0.0
H73 H 0.45868 0.96812 0.25786 0.0
H74 H 0.64715 0.01835 0.23612 0.0
H75 H 0.70974 0.08789 0.21967 0.0
H76 H 0.60829 0.12755 0.20204 0.0
H77 H 0.54572 0.05764 0.21848 0.0
H78 H 0.54813 0.92706 0.27351 0.0
H79 H 0.5468 0.05602 0.26285 0.0
O80 O 0.55707 0.93667 0.23612 0.0
H81 H 0.54058 0.93549 0.30797 0.0
H82 H 0.53651 0.06355 0.29734 0.0
C83 C 0.48915 0.96323 0.23071 0.0
C84 C 0.47982 0.95088 0.21126 0.0
C85 C 0.43429 0.93292 0.20407 0.0
C86 C 0.39732 0.92706 0.21627 0.0
C87 C 0.40738 0.94144 0.23558 0.0
C88 C 0.45279 0.95908 0.24276 0.0
C89 C 0.59183 0.03251 0.2282 0.0
C90 C 0.6384 0.04195 0.22865 0.0
C91 C 0.67412 0.08179 0.21933 0.0
C92 C 0.66385 0.11303 0.20947 0.0
C93 C 0.61709 0.10368 0.20924 0.0
C94 C 0.58137 0.06386 0.21868 0.0
C95 C 0.54823 0.99105 0.26568 0.0
C96 C 0.54661 0.95748 0.27862 0.0
C97 C 0.54161 0.96205 0.29836 0.0
C98 C 0.53708 -0.00021 0.3055 0.0
C99 C 0.54031 0.03427 0.29245 0.0
C100 C 0.54613 0.03003 0.2727 0.0
P101 P 0.59465 0.54858 0.57553 0.0
H102 H 0.55999 0.53053 0.53577 0.0
H103 H 0.51173 0.45735 0.5178 0.0
H104 H 0.50307 0.37613 0.5683 0.0
H105 H 0.55198 0.4489 0.586 0.0
H106 H 0.65456 0.63438 0.55305 0.0
H107 H 0.6399 0.69415 0.53891 0.0
H108 H 0.49939 0.62264 0.56347 0.0
H109 H 0.51385 0.56249 0.57698 0.0
H110 H 0.65217 0.58623 0.61004 0.0
H111 H 0.50512 0.49594 0.59668 0.0
O112 O 0.65085 0.56317 0.57249 0.0
H113 H 0.63307 0.57632 0.64443 0.0
H114 H 0.48582 0.48473 0.631 0.0
C115 C 0.55824 0.49511 0.56243 0.0
C116 C 0.5472 0.49697 0.54304 0.0
C117 C 0.5197 0.45527 0.53278 0.0
C118 C 0.50279 0.41127 0.54183 0.0
C119 C 0.51448 0.40965 0.56116 0.0
C120 C 0.54253 0.45122 0.57128 0.0
C121 C 0.58552 0.59449 0.56631 0.0
C122 C 0.62076 0.63183 0.55549 0.0
C123 C 0.61236 0.66599 0.54745 0.0
C124 C 0.56846 0.66311 0.55005 0.0
C125 C 0.53335 0.62556 0.56097 0.0
C126 C 0.54177 0.59144 0.56893 0.0
C127 C 0.58023 0.54098 0.60084 0.0
C128 C 0.61582 0.5639 0.61452 0.0
C129 C 0.60484 0.55803 0.63418 0.0
C130 C 0.55794 0.52929 0.6405 0.0
C131 C 0.52223 0.50732 0.62667 0.0
C132 C 0.53328 0.5134 0.60702 0.0
P133 P 0.08255 0.64945 0.89774 0.0
H134 H 0.10658 0.64137 0.85819 0.0
H135 H 0.13383 0.59231 0.84267 0.0
H136 H 0.13699 0.53421 0.89828 0.0
H137 H 0.10847 0.58208 0.9135 0.0
H138 H 0.03474 0.70098 0.88665 0.0
H139 H 0.95591 0.6745 0.87372 0.0
H140 H 0.92821 0.53095 0.87262 0.0
H141 H 0.00694 0.55751 0.88526 0.0
H142 H 0.14586 0.69442 0.93017 0.0
H143 H 0.0027 0.58192 0.92179 0.0
O144 O 0.11937 0.70663 0.89321 0.0
H145 H 0.13673 0.67968 0.96497 0.0
H146 H -0.00703 0.56788 0.95633 0.0
C147 C 0.10596 0.61568 0.88697 0.0
C148 C 0.11337 0.61814 0.867 0.0
C149 C 0.12887 0.59007 0.85816 0.0
C150 C 0.13735 0.55912 0.86921 0.0
C151 C 0.12991 0.55694 0.88928 0.0
C152 C 0.11418 0.58485 0.89807 0.0
C153 C 0.0267 0.63126 0.88669 0.0
C154 C 0.01195 0.66397 0.88332 0.0
C155 C 0.96709 0.64888 0.87593 0.0
C156 C 0.93625 0.60075 0.87221 0.0
C157 C 0.95137 0.5682 0.87544 0.0
C158 C -0.00364 0.5834 0.88254 0.0
C159 C 0.07475 0.64 0.92339 0.0
C160 C 0.11231 0.66702 0.93582 0.0
C161 C 0.10698 0.6586 0.9557 0.0
C162 C 0.06403 0.6227 0.96344 0.0
C163 C 0.02665 0.59547 0.95085 0.0
C164 C 0.03207 0.60386 0.93103 0.0
P165 P 0.05458 0.47664 0.42064 0.0
H166 H 0.05645 0.50071 0.46123 0.0
H167 H 0.08666 0.57603 0.47803 0.0
H168 H 0.12932 0.64979 0.42343 0.0
H169 H 0.09911 0.57465 0.40677 0.0
H170 H 0.01965 0.37631 0.42688 0.0
H171 H 0.94736 0.3132 0.44171 0.0
H172 H 0.9003 0.41269 0.45278 0.0
H173 H 0.97248 0.47555 0.43781 0.0
H174 H 0.0803 0.44631 0.38529 0.0
H175 H 0.0004 0.51293 0.4012 0.0
O176 O 0.09724 0.46332 0.42244 0.0
H177 H 0.06536 0.45267 0.35127 0.0
H178 H 0.98546 0.51965 0.36705 0.0
C179 C 0.0742 0.53195 0.43272 0.0
C180 C 0.07154 0.53305 0.45286 0.0
C181 C 0.08896 0.57607 0.46245 0.0
C182 C 0.10976 0.61873 0.45202 0.0
C183 C 0.11237 0.61743 0.43182 0.0
C184 C 0.09518 0.57442 0.42227 0.0
C185 C 0.00181 0.4307 0.43173 0.0
C186 C -0.00611 0.38456 0.43262 0.0
C187 C 0.95255 0.34854 0.44099 0.0
C188 C 0.91853 0.35825 0.44856 0.0
C189 C 0.92636 0.40447 0.44738 0.0
C190 C 0.96749 0.44033 0.43882 0.0
C191 C 0.04227 0.48006 0.39568 0.0
C192 C 0.05956 0.46234 0.38145 0.0
C193 C 0.05073 0.4657 0.36202 0.0
C194 C 0.02446 0.48689 0.35653 0.0
C195 C 0.00631 0.50371 0.37088 0.0
C196 C 0.01473 0.49982 0.39034 0.0
P197 P 0.5754 0.0431 0.76222 0.0
H198 H 0.56781 0.07953 0.79939 0.0
H199 H 0.51601 0.10728 0.81164 0.0
H200 H 0.43822 0.06584 0.75832 0.0
H201 H 0.48999 0.03833 0.74617 0.0
H202 H 0.63839 0.00544 0.76506 0.0
H203 H 0.63119 0.93517 0.78069 0.0
H204 H 0.48978 0.89448 0.7992 0.0
H205 H 0.49742 0.96508 0.78365 0.0
H206 H 0.61558 0.11073 0.73074 0.0
H207 H 0.51836 0.96146 0.73748 0.0
O208 O 0.62943 0.08759 0.76698 0.0
H209 H 0.59961 0.1047 0.69623 0.0
H210 H 0.50126 0.95521 0.70296 0.0
C211 C 0.53353 0.05799 0.77175 0.0
C212 C 0.53926 0.07597 0.79045 0.0
C213 C 0.50935 0.09134 0.79748 0.0
C214 C 0.47322 0.08894 0.78586 0.0
C215 C 0.46609 0.06859 0.76749 0.0
C216 C 0.49586 0.05298 0.76052 0.0
C217 C 0.56878 0.99074 0.77347 0.0
C218 C 0.60592 0.98142 0.77253 0.0
C219 C 0.60165 0.94118 0.78139 0.0
C220 C 0.55999 0.90945 0.79126 0.0
C221 C 0.52258 0.9187 0.79198 0.0
C222 C 0.52685 0.95894 0.78303 0.0
C223 C 0.56892 0.03639 0.73654 0.0
C224 C 0.5914 0.07647 0.72471 0.0
C225 C 0.58176 0.07306 0.70503 0.0
C226 C 0.54892 0.02952 0.69687 0.0
C227 C 0.52715 0.98914 0.70875 0.0
C228 C 0.53694 0.99262 0.72847 0.0
P229 P 0.44299 0.36696 0.09851 0.0
H230 H 0.47511 0.36832 0.13756 0.0
H231 H 0.55098 0.41655 0.15342 0.0
H232 H 0.61209 0.48569 0.09904 0.0
H233 H 0.53609 0.43893 0.08361 0.0
H234 H 0.34104 0.32401 0.09764 0.0
H235 H 0.28752 0.35013 0.10932 0.0
H236 H 0.40564 0.4736 0.13433 0.0
H237 H 0.45879 0.44856 0.12181 0.0
H238 H 0.45929 0.32187 0.06537 0.0
H239 H 0.43601 0.43836 0.07567 0.0
O240 O 0.42173 0.30944 0.10237 0.0
H241 H 0.46565 0.33836 0.03074 0.0
H242 H 0.44079 0.45417 0.04114 0.0
C243 C 0.50008 0.39971 0.10941 0.0
C244 C 0.50503 0.39376 0.12909 0.0
C245 C 0.54839 0.42139 0.13812 0.0
C246 C 0.58766 0.45526 0.12755 0.0
C247 C 0.58243 0.46073 0.10775 0.0
C248 C 0.53898 0.43342 0.0988 0.0
C249 C 0.40365 0.38374 0.1092 0.0
C250 C 0.35518 0.35637 0.10586 0.0
C251 C 0.32467 0.3713 0.1126 0.0
C252 C 0.34226 0.41395 0.12282 0.0
C253 C 0.39094 0.44089 0.12633 0.0
C254 C 0.42139 0.42618 0.11939 0.0
C255 C 0.44608 0.37815 0.073 0.0
C256 C 0.45493 0.35059 0.06014 0.0
C257 C 0.45841 0.36 0.04035 0.0
C258 C 0.45337 0.39739 0.03313 0.0
C259 C 0.44521 0.42535 0.04619 0.0
C260 C 0.44192 0.41599 0.06595 0.0
H261 H 0.12631 0.45837 0.17605 0.0
H262 H 0.18092 0.55631 0.12812 0.0
H263 H 0.18425 0.43448 0.16953 0.0
H264 H 0.23767 0.53122 0.12118 0.0
H265 H 0.35948 0.50481 0.12241 0.0
H266 H 0.30693 0.53308 0.1323 0.0
H267 H 0.1989 0.39002 0.14615 0.0
H268 H 0.2526 0.36213 0.13745 0.0
C269 C 0.15069 0.4748 0.16412 0.0
C270 C 0.14894 0.50914 0.15256 0.0
C271 C 0.18371 0.46088 0.16031 0.0
C272 C 0.21542 0.48067 0.14475 0.0
C273 C 0.21423 0.5157 0.13344 0.0
C274 C 0.18152 0.52995 0.13737 0.0
C275 C 0.32486 0.47946 0.12792 0.0
C276 C 0.31031 0.43116 0.12916 0.0
C277 C 0.29446 0.49562 0.13334 0.0
C278 C 0.2486 0.46384 0.13994 0.0
C279 C 0.23418 0.41559 0.14135 0.0
C280 C 0.26475 0.39947 0.13609 0.0
H281 H 0.67518 0.09055 0.48302 0.0
H282 H 0.64349 0.19691 0.50239 0.0
H283 H 0.75363 0.15211 0.47315 0.0
H284 H 0.7213 0.25859 0.49183 0.0
H285 H 0.87753 0.36012 0.48263 0.0
H286 H 0.80421 0.29747 0.49676 0.0
H287 H 0.78664 0.20842 0.44785 0.0
H288 H 0.86043 0.27052 0.43414 0.0
C289 C 0.68504 0.12711 0.48523 0.0
C290 C 0.65303 0.13888 0.49336 0.0
C291 C 0.72991 0.16243 0.47945 0.0
C292 C 0.74362 0.21036 0.48144 0.0
C293 C 0.71216 0.22207 0.49024 0.0
C294 C 0.66743 0.18669 0.49624 0.0
C295 C 0.85788 0.32705 0.47497 0.0
C296 C 0.87457 0.32007 0.45732 0.0
C297 C 0.81587 0.29121 0.48302 0.0
C298 C 0.78949 0.24782 0.47347 0.0
C299 C 0.80648 0.24095 0.45583 0.0
C300 C 0.84866 0.27658 0.4479 0.0
H301 H 0.59727 0.67628 0.82574 0.0
H302 H 0.45951 0.63855 0.848 0.0
H303 H 0.61061 0.75376 0.8166 0.0
H304 H 0.47225 0.71584 0.83828 0.0
H305 H 0.52315 0.87239 0.82685 0.0
H306 H 0.51607 0.80142 0.8418 0.0
H307 H 0.57877 0.77847 0.79105 0.0
H308 H 0.58619 0.84922 0.77632 0.0
C309 C 0.57004 0.6848 0.82889 0.0
C310 C 0.52712 0.65117 0.83737 0.0
C311 C 0.57753 0.72907 0.82352 0.0
C312 C 0.54207 0.74058 0.82629 0.0
C313 C 0.50033 0.70812 0.83597 0.0
C314 C 0.493 0.66383 0.84154 0.0
C315 C 0.53527 0.852 0.81892 0.0
C316 C 0.55543 0.86645 0.80045 0.0
C317 C 0.53127 0.81144 0.82748 0.0
C318 C 0.54728 0.78453 0.81771 0.0
C319 C 0.56718 0.799 0.7992 0.0
C320 C 0.57131 0.83949 0.79071 0.0
H321 H 0.85385 0.55636 0.18831 0.0
H322 H 0.87786 0.58384 0.12724 0.0
H323 H 0.77285 0.54046 0.18452 0.0
H324 H 0.7978 0.56889 0.12348 0.0
H325 H 0.62762 0.42598 0.15477 0.0
H326 H 0.70827 0.4684 0.16638 0.0
H327 H 0.73532 0.59017 0.13248 0.0
H328 H 0.65394 0.54832 0.12124 0.0
C329 C 0.84239 0.5609 0.17426 0.0
C330 C 0.87168 0.57098 0.15802 0.0
C331 C 0.7961 0.55153 0.17207 0.0
C332 C 0.77908 0.55316 0.1537 0.0
C333 C 0.81006 0.56775 0.13783 0.0
C334 C 0.8558 0.57613 0.13995 0.0
C335 C 0.65013 0.46231 0.15026 0.0
C336 C 0.63447 0.48342 0.1368 0.0
C337 C 0.69638 0.48668 0.15698 0.0
C338 C 0.72802 0.53248 0.15026 0.0
C339 C 0.71165 0.55475 0.13777 0.0
C340 C 0.66524 0.53057 0.1312 0.0
H341 H 0.2909 0.86116 0.52269 0.0
H342 H 0.30142 0.90926 0.46388 0.0
H343 H 0.2204 0.78705 0.51453 0.0
H344 H 0.2323 0.83475 0.45555 0.0
H345 H 0.16696 0.64381 0.48326 0.0
H346 H 0.21388 0.72198 0.4969 0.0
H347 H 0.15095 0.77621 0.45735 0.0
H348 H 0.10449 0.69753 0.44338 0.0
C349 C 0.27767 0.85627 0.50811 0.0
C350 C 0.30228 0.89068 0.49384 0.0
C351 C 0.23742 0.81368 0.5034 0.0
C352 C 0.22131 0.8044 0.48428 0.0
C353 C 0.24348 0.8406 0.47044 0.0
C354 C 0.2834 0.88341 0.4752 0.0
C355 C 0.16223 0.67213 0.4778 0.0
C356 C 0.13243 0.66469 0.46214 0.0
C357 C 0.18903 0.71707 0.48569 0.0
C358 C 0.18644 0.75561 0.47817 0.0
C359 C 0.15439 0.7475 0.46326 0.0
C360 C 0.12779 0.7025 0.45527 0.0
H361 H 0.37809 0.29149 0.79915 0.0
H362 H 0.45543 0.29224 0.84951 0.0
H363 H 0.36971 0.21598 0.78946 0.0
H364 H 0.44844 0.21828 0.83961 0.0
H365 H 0.4335 0.08464 0.82119 0.0
H366 H 0.40472 0.13594 0.83291 0.0
H367 H 0.42741 0.19929 0.77628 0.0
H368 H 0.45492 0.14756 0.76462 0.0
C369 C 0.39247 0.27516 0.80835 0.0
C370 C 0.41831 0.29837 0.82488 0.0
C371 C 0.38788 0.23202 0.80275 0.0
C372 C 0.40901 0.21137 0.81358 0.0
C373 C 0.43135 0.23278 0.83095 0.0
C374 C 0.43584 0.27566 0.83654 0.0
C375 C 0.43127 0.10887 0.81121 0.0
C376 C 0.44702 0.11258 0.79208 0.0
C377 C 0.41485 0.13825 0.81789 0.0
C378 C 0.41444 0.17227 0.80562 0.0
C379 C 0.42668 0.17323 0.78611 0.0
C380 C 0.44269 0.14362 0.7794 0.0
H381 H 0.44219 0.83244 0.5276 0.0
H382 H 0.57514 0.90855 0.497 0.0
H383 H 0.45991 0.77085 0.53587 0.0
H384 H 0.59257 0.84647 0.50522 0.0
H385 H 0.62783 0.75879 0.54831 0.0
H386 H 0.61066 0.8182 0.5359 0.0
H387 H 0.4707 0.70823 0.52037 0.0
H388 H 0.48797 0.64872 0.5325 0.0
C389 C 0.47502 0.83587 0.5225 0.0
C390 C 0.50736 0.87552 0.51171 0.0
C391 C 0.48501 0.80041 0.52714 0.0
C392 C 0.52764 0.80397 0.5212 0.0
C393 C 0.55963 0.84311 0.51012 0.0
C394 C 0.54949 0.87846 0.50534 0.0
C395 C 0.59369 0.74724 0.54195 0.0
C396 C 0.55913 0.69909 0.54153 0.0
C397 C 0.58388 0.78125 0.53485 0.0
C398 C 0.53928 0.76777 0.52727 0.0
C399 C 0.50514 0.7196 0.5264 0.0
C400 C 0.515 0.6856 0.5334 0.0
H401 H 0.63436 0.44263 0.85024 0.0
H402 H 0.67883 0.58765 0.836 0.0
H403 H 0.71608 0.46471 0.85594 0.0
H404 H 0.76003 0.6102 0.84259 0.0
H405 H 0.90743 0.63366 0.84221 0.0
H406 H 0.82652 0.60676 0.83233 0.0
H407 H 0.77495 0.50499 0.87905 0.0
H408 H 0.85573 0.53061 0.88822 0.0
C409 C 0.66161 0.47924 0.84838 0.0
C410 C 0.6502 0.51342 0.84273 0.0
C411 C 0.70843 0.49199 0.85176 0.0
C412 C 0.74474 0.53934 0.84986 0.0
C413 C 0.73322 0.5733 0.84389 0.0
C414 C 0.68655 0.56042 0.84023 0.0
C415 C 0.8786 0.60539 0.85023 0.0
C416 C 0.88754 0.58409 0.86592 0.0
C417 C 0.8323 0.59008 0.84466 0.0
C418 C 0.79408 0.55371 0.85491 0.0
C419 C 0.80337 0.53235 0.87056 0.0
C420 C 0.84961 0.54717 0.87591 0.0
H421 H 0.09919 0.72571 0.19951 0.0
H422 H 0.17711 0.72891 0.14854 0.0
H423 H 0.16742 0.7988 0.21055 0.0
H424 H 0.24516 0.80089 0.15973 0.0
H425 H 0.36319 0.93509 0.18126 0.0
H426 H 0.28412 0.88379 0.16855 0.0
H427 H 0.24134 0.80978 0.2231 0.0
H428 H 0.31969 0.86052 0.23569 0.0
C429 C 0.13043 0.74248 0.19046 0.0
C430 C 0.13306 0.72097 0.17334 0.0
C431 C 0.16957 0.78422 0.19683 0.0
C432 C 0.21193 0.80525 0.18617 0.0
C433 C 0.21307 0.78586 0.16826 0.0
C434 C 0.17408 0.74422 0.16192 0.0
C435 C 0.33662 0.90824 0.19058 0.0
C436 C 0.34788 0.9016 0.20941 0.0
C437 C 0.29136 0.879 0.18333 0.0
C438 C 0.25652 0.84254 0.19477 0.0
C439 C 0.26703 0.83795 0.21398 0.0
C440 C 0.31215 0.86709 0.22121 0.0
H441 H 0.43473 0.13978 0.53623 0.0
H442 H 0.43592 0.1611 0.47479 0.0
H443 H 0.43054 0.21051 0.54189 0.0
H444 H 0.4319 0.2331 0.48043 0.0
H445 H 0.52616 0.38909 0.50725 0.0
H446 H 0.49473 0.30998 0.49401 0.0
H447 H 0.3882 0.25386 0.53881 0.0
H448 H 0.42043 0.33298 0.55226 0.0
C449 C 0.43287 0.15916 0.52392 0.0
C450 C 0.43619 0.14551 0.50511 0.0
C451 C 0.42999 0.19949 0.52713 0.0
C452 C 0.43098 0.22751 0.51159 0.0
C453 C 0.4312 0.21218 0.49266 0.0
C454 C 0.43332 0.17105 0.48943 0.0
C455 C 0.49499 0.36007 0.51383 0.0
C456 C 0.47629 0.36673 0.531 0.0
C457 C 0.47679 0.31476 0.50619 0.0
C458 C 0.43955 0.27561 0.51561 0.0
C459 C 0.4175 0.2833 0.53148 0.0
C460 C 0.43593 0.32845 0.53919 0.0
H461 H 0.30291 0.43577 0.86979 0.0
H462 H 0.30528 0.46048 0.80857 0.0
H463 H 0.23674 0.44887 0.87366 0.0
H464 H 0.23875 0.47416 0.81243 0.0
H465 H 0.11344 0.46773 0.87721 0.0
H466 H 0.15354 0.42637 0.86596 0.0
H467 H 0.2431 0.54499 0.82921 0.0
H468 H 0.20388 0.58666 0.84064 0.0
C469 C 0.28815 0.44252 0.85707 0.0
C470 C 0.30926 0.44755 0.83893 0.0
C471 C 0.25008 0.44978 0.85925 0.0
C472 C 0.23288 0.46296 0.84336 0.0
C473 C 0.25159 0.4643 0.82492 0.0
C474 C 0.28934 0.45618 0.82269 0.0
C475 C 0.14138 0.48477 0.86658 0.0
C476 C 0.15607 0.53086 0.8601 0.0
C477 C 0.164 0.46091 0.86003 0.0
C478 C 0.20152 0.48255 0.84679 0.0
C479 C 0.21385 0.52713 0.83923 0.0
C480 C 0.19144 0.55111 0.84585 0.0
H481 H 0.93434 0.34496 0.17225 0.0
H482 H 0.83351 0.38044 0.1498 0.0
H483 H 0.87027 0.26783 0.18219 0.0
H484 H 0.76911 0.30366 0.16035 0.0
H485 H 0.66306 0.14819 0.17369 0.0
H486 H 0.72688 0.21822 0.15788 0.0
H487 H 0.81414 0.24407 0.208 0.0
H488 H 0.75093 0.17418 0.22354 0.0
C489 C 0.89844 0.33601 0.16922 0.0
C490 C 0.88892 0.36894 0.16045 0.0
C491 C 0.8617 0.29195 0.17506 0.0
C492 C 0.81453 0.27999 0.17249 0.0
C493 C 0.80503 0.31168 0.16252 0.0
C494 C 0.84194 0.35571 0.15647 0.0
C495 C 0.69592 0.16902 0.18129 0.0
C496 C 0.70212 0.15562 0.19981 0.0
C497 C 0.73245 0.20905 0.17224 0.0
C498 C 0.77582 0.23649 0.18158 0.0
C499 C 0.7817 0.22309 0.20016 0.0
C500 C 0.74539 0.18312 0.20913 0.0
H501 H 0.10251 0.62575 0.08719 0.0
H502 H 0.95747 0.5163 0.07898 0.0
H503 H 0.11178 0.6398 0.05262 0.0
H504 H 0.96676 0.53104 0.04427 0.0
H505 H 0.01942 0.53711 0.98196 0.0
H506 H 0.00881 0.52197 0.01657 0.0
H507 H 0.08464 0.67218 0.02724 0.0
H508 H 0.09505 0.68738 0.99264 0.0
C509 C 0.0725 0.60472 0.07804 0.0
C510 C 0.02919 0.56986 0.0859 0.0
C511 C 0.0778 0.61303 0.0582 0.0
C512 C 0.03998 0.58668 0.04572 0.0
C513 C -0.0033 0.55162 0.05352 0.0
C514 C 0.99133 0.54334 0.07341 0.0
C515 C 0.03346 0.56692 0.99169 0.0
C516 C 0.05809 0.61348 0.98454 0.0
C517 C 0.02735 0.55822 0.01151 0.0
C518 C 0.04586 0.59586 0.02464 0.0
C519 C 0.07053 0.6424 0.0175 0.0
C520 C 0.07656 0.65111 0.99768 0.0
H521 H 0.51347 0.95693 0.42837 0.0
H522 H 0.46702 0.05803 0.42057 0.0
H523 H 0.52382 0.95513 0.39362 0.0
H524 H 0.47819 0.05662 0.38563 0.0
H525 H 0.56905 0.07828 0.3286 0.0
H526 H 0.55272 0.08064 0.36288 0.0
H527 H 0.46747 0.92863 0.364 0.0
H528 H 0.48172 0.92598 0.32969 0.0
C529 C 0.50545 0.97876 0.41923 0.0
C530 C 0.48943 0.00763 0.42719 0.0
C531 C 0.51121 0.97755 0.39935 0.0
C532 C 0.50181 0.00575 0.38702 0.0
C533 C 0.48585 0.03473 0.3949 0.0
C534 C 0.47922 0.03529 0.41483 0.0
C535 C 0.5462 0.04537 0.33604 0.0
C536 C 0.52716 0.00189 0.32634 0.0
C537 C 0.53697 0.0468 0.35567 0.0
C538 C 0.50907 0.0048 0.36602 0.0
C539 C 0.48957 0.96147 0.35635 0.0
C540 C 0.49816 0.96003 0.33673 0.0
H541 H 0.57362 0.54605 0.76469 0.0
H542 H 0.42661 0.44475 0.75469 0.0
H543 H 0.58808 0.55451 0.73015 0.0
H544 H 0.44149 0.45314 0.71991 0.0
H545 H 0.48229 0.52534 0.65933 0.0
H546 H 0.46426 0.51403 0.6938 0.0
H547 H 0.58965 0.50557 0.70341 0.0
H548 H 0.6074 0.51619 0.66902 0.0
C549 C 0.54431 0.52552 0.75514 0.0
C550 C 0.49891 0.49461 0.76251 0.0
C551 C 0.55274 0.53021 0.73533 0.0
C552 C 0.51601 0.50428 0.72234 0.0
C553 C 0.47043 0.47378 0.72961 0.0
C554 C 0.46199 0.46884 0.74951 0.0
C555 C 0.50573 0.52053 0.66877 0.0
C556 C 0.54647 0.52197 0.66142 0.0
C557 C 0.49537 0.51407 0.6885 0.0
C558 C 0.52566 0.50916 0.7013 0.0
C559 C 0.56606 0.51005 0.69393 0.0
C560 C 0.57629 0.51629 0.67423 0.0
H561 H 0.53994 0.09509 0.57681 0.0
H562 H 0.43754 0.94592 0.58048 0.0
H563 H 0.55387 0.09642 0.61126 0.0
H564 H 0.45114 0.94758 0.61509 0.0
H565 H 0.53476 0.96087 0.67076 0.0
H566 H 0.51522 0.95757 0.63666 0.0
H567 H 0.51462 0.08857 0.64229 0.0
H568 H 0.53388 0.09178 0.6763 0.0
C569 C 0.52006 0.06264 0.58497 0.0
C570 C 0.48769 0.02036 0.57584 0.0
C571 C 0.52791 0.06349 0.60476 0.0
C572 C 0.50368 0.02208 0.61589 0.0
C573 C 0.47076 0.97993 0.60685 0.0
C574 C 0.46274 0.97909 0.58704 0.0
C575 C 0.53001 0.9887 0.66475 0.0
C576 C 0.53629 0.02679 0.6762 0.0
C577 C 0.51875 0.98678 0.64523 0.0
C578 C 0.51356 0.02292 0.63678 0.0
C579 C 0.51917 0.06061 0.6483 0.0
C580 C 0.53033 0.06249 0.66778 0.0
H581 H 0.45394 0.50576 0.91815 0.0
H582 H 0.48792 0.39561 0.9092 0.0
H583 H 0.44896 0.49111 0.95286 0.0
H584 H 0.48339 0.38151 0.94376 0.0
H585 H 0.4172 0.33343 0.00374 0.0
H586 H 0.42234 0.34933 0.96923 0.0
H587 H 0.50101 0.49927 0.98031 0.0
H588 H 0.49643 0.48346 0.01486 0.0
C589 C 0.4605 0.47858 0.92356 0.0
C590 C 0.47124 0.45182 0.91086 0.0
C591 C 0.45786 0.47036 0.94344 0.0
C592 C 0.46562 0.43504 0.95102 0.0
C593 C 0.47659 0.40852 0.93834 0.0
C594 C 0.47946 0.41686 0.91852 0.0
C595 C 0.43604 0.36979 0.99883 0.0
C596 C 0.4565 0.40715 0.01208 0.0
C597 C 0.43889 0.37889 0.97905 0.0
C598 C 0.46211 0.42556 0.97206 0.0
C599 C 0.48234 0.46296 0.98528 0.0
C600 C 0.47967 0.45386 0.00507 0.0
H601 H 0.0416 0.48068 0.233 0.0
H602 H 0.97874 0.56783 0.24157 0.0
H603 H 0.04204 0.46988 0.26756 0.0
H604 H 0.97785 0.55572 0.27636 0.0
H605 H 0.03551 0.56556 0.33809 0.0
H606 H 0.02975 0.57626 0.30357 0.0
H607 H 0.99017 0.43057 0.29394 0.0
H608 H -0.00289 0.42044 0.32834 0.0
C609 C 0.02748 0.49727 0.24226 0.0
C610 C 0.01006 0.52509 0.23448 0.0
C611 C 0.02742 0.49076 0.26212 0.0
C612 C 0.00958 0.51155 0.27477 0.0
C613 C 0.99223 0.53953 0.26703 0.0
C614 C 0.99257 0.54633 0.24709 0.0
C615 C 0.02505 0.53575 0.32857 0.0
C616 C 0.01713 0.49228 0.33584 0.0
C617 C 0.02164 0.54181 0.30881 0.0
C618 C 0.00993 0.50441 0.29593 0.0
C619 C 0.00036 0.46046 0.30337 0.0
C620 C 0.00415 0.45455 0.32308 0.0
loop_
_geom_bond_atom_site_label_1
_geom_bond_atom_site_label_2
_geom_bond_distance
_geom_bond_site_symmetry_2
_ccdc_geom_bond_type
O0 Zn1 1.954 1_655 S
O0 C16 1.222 1_655 S
Zn1 O0 1.954 1_455 S
Zn1 O2 1.949 . S
Zn1 O8 1.919 1_455 S
Zn1 O13 1.924 . S
O2 Zn1 1.949 . S
O2 Zn3 1.923 1_455 S
O2 Zn4 1.950 . S
O2 Zn5 1.945 . S
Zn3 O2 1.923 1_655 S
Zn3 O6 1.933 . S
Zn3 O9 1.941 . S
Zn3 O10 1.965 . S
Zn4 O2 1.950 . S
Zn4 O11 1.938 1_455 S
Zn4 O12 1.906 . S
Zn4 O22 1.953 . S
Zn5 O2 1.945 . S
Zn5 O7 1.932 . S
Zn5 O14 1.977 . S
Zn5 O15 1.910 . S
O6 Zn3 1.933 . S
O6 C17 1.226 1_655 S
O7 Zn5 1.932 . S
O7 C17 1.307 . S
O8 Zn1 1.919 1_655 S
O8 C19 1.253 . S
O9 Zn3 1.941 . S
O9 C19 1.283 . S
O10 Zn3 1.965 . S
O10 C18 1.303 . S
O11 Zn4 1.938 1_655 S
O11 C18 1.247 . S
O12 Zn4 1.906 . S
O12 C20 1.304 . S
O13 Zn1 1.924 . S
O13 C21 1.311 . S
O14 Zn5 1.977 . S
O14 C20 1.272 . S
O15 Zn5 1.910 . S
O15 C21 1.231 . S
C16 O0 1.222 1_455 S
C16 O22 1.298 . S
C17 O6 1.226 1_455 S
C17 O7 1.307 . S
C18 O10 1.303 . S
C18 O11 1.247 . S
C19 O8 1.253 . S
C19 O9 1.283 . S
C20 O12 1.304 . S
C20 O14 1.272 . S
C21 O13 1.311 . S
C21 O15 1.231 . S
O22 Zn4 1.953 . S
O22 C16 1.298 . S
O23 Zn24 1.953 . S
O23 C39 1.225 . S
Zn24 O23 1.953 . S
Zn24 O25 1.949 . S
Zn24 O31 1.919 . S
Zn24 O36 1.924 1_545 S
O25 Zn24 1.949 . S
O25 Zn26 1.923 . S
O25 Zn27 1.950 . S
O25 Zn28 1.945 1_545 S
Zn26 O25 1.923 . S
Zn26 O29 1.933 . S
Zn26 O32 1.941 . S
Zn26 O33 1.965 . S
Zn27 O25 1.950 . S
Zn27 O34 1.938 . S
Zn27 O35 1.906 1_545 S
Zn27 O45 1.955 1_545 S
Zn28 O25 1.945 1_565 S
Zn28 O30 1.932 . S
Zn28 O37 1.977 . S
Zn28 O38 1.910 . S
O29 Zn26 1.933 . S
O29 C40 1.226 . S
O30 Zn28 1.932 . S
O30 C40 1.307 1_565 S
O31 Zn24 1.919 . S
O31 C42 1.253 . S
O32 Zn26 1.941 . S
O32 C42 1.283 . S
O33 Zn26 1.965 . S
O33 C41 1.303 . S
O34 Zn27 1.938 . S
O34 C41 1.247 . S
O35 Zn27 1.906 1_565 S
O35 C43 1.304 . S
O36 Zn24 1.924 1_565 S
O36 C44 1.311 . S
O37 Zn28 1.977 . S
O37 C43 1.272 . S
O38 Zn28 1.910 . S
O38 C44 1.231 . S
C39 O23 1.225 . S
C39 O45 1.288 1_545 S
C40 O29 1.226 . S
C40 O30 1.307 1_545 S
C41 O33 1.303 . S
C41 O34 1.247 . S
C42 O31 1.253 . S
C42 O32 1.283 . S
C43 O35 1.304 . S
C43 O37 1.272 . S
C44 O36 1.311 . S
C44 O38 1.231 . S
O45 Zn27 1.955 1_565 S
O45 C39 1.288 1_565 S
O46 Zn47 1.953 . S
O46 C62 1.225 . S
Zn47 O46 1.953 . S
Zn47 O48 1.949 . S
Zn47 O54 1.919 . S
Zn47 O59 1.924 . S
O48 Zn47 1.949 . S
O48 Zn49 1.923 . S
O48 Zn50 1.950 . S
O48 Zn51 1.945 . S
Zn49 O48 1.923 . S
Zn49 O52 1.933 . S
Zn49 O55 1.941 . S
Zn49 O56 1.965 . S
Zn50 O48 1.950 . S
Zn50 O57 1.938 . S
Zn50 O58 1.906 . S
Zn50 O68 1.953 . S
Zn51 O48 1.945 . S
Zn51 O53 1.932 . S
Zn51 O60 1.977 . S
Zn51 O61 1.910 . S
O52 Zn49 1.933 . S
O52 C63 1.226 . S
O53 Zn51 1.932 . S
O53 C63 1.307 . S
O54 Zn47 1.919 . S
O54 C65 1.253 . S
O55 Zn49 1.941 . S
O55 C65 1.283 . S
O56 Zn49 1.965 . S
O56 C64 1.303 . S
O57 Zn50 1.938 . S
O57 C64 1.247 . S
O58 Zn50 1.906 . S
O58 C66 1.304 . S
O59 Zn47 1.924 . S
O59 C67 1.311 . S
O60 Zn51 1.977 . S
O60 C66 1.272 . S
O61 Zn51 1.910 . S
O61 C67 1.231 . S
C62 O46 1.225 . S
C62 O68 1.298 . S
C63 O52 1.226 . S
C63 O53 1.307 . S
C64 O56 1.303 . S
C64 O57 1.247 . S
C65 O54 1.253 . S
C65 O55 1.283 . S
C66 O58 1.304 . S
C66 O60 1.272 . S
C67 O59 1.311 . S
C67 O61 1.231 . S
O68 Zn50 1.953 . S
O68 C62 1.298 . S
P69 O80 1.490 . S
P69 C83 1.812 . S
P69 C89 1.803 1_565 S
P69 C95 1.819 1_565 S
H70 C84 0.941 . S
H71 C85 0.939 . S
H72 C87 0.940 . S
H73 C88 0.940 . S
H74 C90 0.939 . S
H75 C91 0.942 . S
H76 C93 0.940 . S
H77 C94 0.939 . S
H78 C96 0.941 . S
H79 C100 0.939 . S
O80 P69 1.490 . S
H81 C97 0.939 . S
H82 C99 0.940 . S
C83 P69 1.812 . S
C83 C84 1.389 . S
C83 C88 1.391 . S
C84 H70 0.941 . S
C84 C83 1.389 . S
C84 C85 1.397 . S
C85 H71 0.939 . S
C85 C84 1.397 . S
C85 C86 1.378 . S
C86 C85 1.378 . S
C86 C87 1.378 . S
C87 H72 0.940 . S
C87 C86 1.378 . S
C87 C88 1.396 . S
C88 H73 0.940 . S
C88 C83 1.391 . S
C88 C87 1.396 . S
C89 P69 1.803 1_545 S
C89 C90 1.378 . S
C89 C94 1.400 . S
C90 H74 0.939 . S
C90 C89 1.378 . S
C90 C91 1.361 . S
C91 H75 0.942 . S
C91 C90 1.361 . S
C91 C92 1.369 . S
C92 C91 1.369 . S
C92 C93 1.404 . S
C93 H76 0.940 . S
C93 C92 1.404 . S
C93 C94 1.389 . S
C94 H77 0.939 . S
C94 C89 1.400 . S
C94 C93 1.389 . S
C95 P69 1.819 1_545 S
C95 C96 1.392 1_545 S
C95 C100 1.390 . S
C96 H78 0.941 . S
C96 C95 1.392 1_565 S
C96 C97 1.396 . S
C97 H81 0.939 . S
C97 C96 1.396 . S
C97 C98 1.397 1_565 S
C98 C97 1.397 1_545 S
C98 C99 1.385 . S
C99 H82 0.940 . S
C99 C98 1.385 . S
C99 C100 1.388 . S
C100 H79 0.939 . S
C100 C95 1.390 . S
C100 C99 1.388 . S
P101 O112 1.490 . S
P101 C115 1.812 . S
P101 C121 1.803 . S
P101 C127 1.819 . S
H102 C116 0.941 . S
H103 C117 0.939 . S
H104 C119 0.940 . S
H105 C120 0.940 . S
H106 C122 0.939 . S
H107 C123 0.942 . S
H108 C125 0.940 . S
H109 C126 0.939 . S
H110 C128 0.941 . S
H111 C132 0.939 . S
O112 P101 1.490 . S
H113 C129 0.939 . S
H114 C131 0.940 . S
C115 P101 1.812 . S
C115 C116 1.389 . S
C115 C120 1.391 . S
C116 H102 0.941 . S
C116 C115 1.389 . S
C116 C117 1.397 . S
C117 H103 0.939 . S
C117 C116 1.397 . S
C117 C118 1.378 . S
C118 C117 1.378 . S
C118 C119 1.378 . S
C119 H104 0.940 . S
C119 C118 1.378 . S
C119 C120 1.396 . S
C120 H105 0.940 . S
C120 C115 1.391 . S
C120 C119 1.396 . S
C121 P101 1.803 . S
C121 C122 1.378 . S
C121 C126 1.400 . S
C122 H106 0.939 . S
C122 C121 1.378 . S
C122 C123 1.361 . S
C123 H107 0.942 . S
C123 C122 1.361 . S
C123 C124 1.369 . S
C124 C123 1.369 . S
C124 C125 1.404 . S
C125 H108 0.940 . S
C125 C124 1.404 . S
C125 C126 1.389 . S
C126 H109 0.939 . S
C126 C121 1.400 . S
C126 C125 1.389 . S
C127 P101 1.819 . S
C127 C128 1.391 . S
C127 C132 1.391 . S
C128 H110 0.941 . S
C128 C127 1.391 . S
C128 C129 1.396 . S
C129 H113 0.939 . S
C129 C128 1.396 . S
C129 C130 1.397 . S
C130 C129 1.397 . S
C130 C131 1.385 . S
C131 H114 0.940 . S
C131 C130 1.385 . S
C131 C132 1.388 . S
C132 H111 0.939 . S
C132 C127 1.391 . S
C132 C131 1.388 . S
P133 O144 1.490 . S
P133 C147 1.812 . S
P133 C153 1.792 1_455 S
P133 C159 1.819 . S
H134 C148 0.941 . S
H135 C149 0.939 . S
H136 C151 0.940 . S
H137 C152 0.940 . S
H138 C154 0.939 . S
H139 C155 0.942 . S
H140 C157 0.940 . S
H141 C158 0.939 . S
H142 C160 0.941 . S
H143 C164 0.939 . S
O144 P133 1.490 . S
H145 C161 0.939 . S
H146 C163 0.940 . S
C147 P133 1.812 . S
C147 C148 1.389 . S
C147 C152 1.391 . S
C148 H134 0.941 . S
C148 C147 1.389 . S
C148 C149 1.397 . S
C149 H135 0.939 . S
C149 C148 1.397 . S
C149 C150 1.378 . S
C150 C149 1.378 . S
C150 C151 1.378 . S
C151 H136 0.940 . S
C151 C150 1.378 . S
C151 C152 1.396 . S
C152 H137 0.940 . S
C152 C147 1.391 . S
C152 C151 1.396 . S
C153 P133 1.792 1_655 S
C153 C154 1.390 . S
C153 C158 1.400 . S
C154 H138 0.939 . S
C154 C153 1.390 . S
C154 C155 1.361 . S
C155 H139 0.942 . S
C155 C154 1.361 . S
C155 C156 1.369 . S
C156 C155 1.369 . S
C156 C157 1.404 . S
C157 H140 0.940 . S
C157 C156 1.404 . S
C157 C158 1.389 . S
C158 H141 0.939 . S
C158 C153 1.400 . S
C158 C157 1.389 . S
C159 P133 1.819 . S
C159 C160 1.391 . S
C159 C164 1.391 1_455 S
C160 H142 0.941 . S
C160 C159 1.391 . S
C160 C161 1.396 . S
C161 H145 0.939 . S
C161 C160 1.396 . S
C161 C162 1.397 . S
C162 C161 1.397 . S
C162 C163 1.385 1_455 S
C163 H146 0.940 . S
C163 C162 1.385 1_655 S
C163 C164 1.388 . S
C164 H143 0.939 . S
C164 C159 1.391 1_655 S
C164 C163 1.388 . S
P165 O176 1.490 . S
P165 C179 1.812 . S
P165 C185 1.803 1_455 S
P165 C191 1.819 . S
H166 C180 0.941 . S
H167 C181 0.939 . S
H168 C183 0.940 . S
H169 C184 0.940 . S
H170 C186 0.939 . S
H171 C187 0.942 . S
H172 C189 0.940 . S
H173 C190 0.939 . S
H174 C192 0.941 . S
H175 C196 0.939 . S
O176 P165 1.490 . S
H177 C193 0.939 . S
H178 C195 0.940 . S
C179 P165 1.812 . S
C179 C180 1.389 . S
C179 C184 1.391 . S
C180 H166 0.941 . S
C180 C179 1.389 . S
C180 C181 1.397 . S
C181 H167 0.939 . S
C181 C180 1.397 . S
C181 C182 1.378 . S
C182 C181 1.378 . S
C182 C183 1.378 . S
C183 H168 0.940 . S
C183 C182 1.378 . S
C183 C184 1.396 . S
C184 H169 0.940 . S
C184 C179 1.391 . S
C184 C183 1.396 . S
C185 P165 1.803 1_655 S
C185 C186 1.378 . S
C185 C190 1.400 . S
C186 H170 0.939 . S
C186 C185 1.378 . S
C186 C187 1.361 . S
C187 H171 0.942 . S
C187 C186 1.361 . S
C187 C188 1.369 . S
C188 C187 1.369 . S
C188 C189 1.404 . S
C189 H172 0.940 . S
C189 C188 1.404 . S
C189 C190 1.389 . S
C190 H173 0.939 . S
C190 C185 1.400 . S
C190 C189 1.389 . S
C191 P165 1.819 . S
C191 C192 1.391 . S
C191 C196 1.391 1_455 S
C192 H174 0.941 . S
C192 C191 1.391 . S
C192 C193 1.396 . S
C193 H177 0.939 . S
C193 C192 1.396 . S
C193 C194 1.397 . S
C194 C193 1.397 . S
C194 C195 1.385 1_455 S
C195 H178 0.940 . S
C195 C194 1.385 1_655 S
C195 C196 1.388 . S
C196 H175 0.939 . S
C196 C191 1.391 1_655 S
C196 C195 1.388 . S
P197 O208 1.490 . S
P197 C211 1.812 . S
P197 C217 1.803 1_545 S
P197 C223 1.819 . S
H198 C212 0.941 . S
H199 C213 0.939 . S
H200 C215 0.940 . S
H201 C216 0.940 . S
H202 C218 0.939 . S
H203 C219 0.942 . S
H204 C221 0.940 . S
H205 C222 0.939 . S
H206 C224 0.941 . S
H207 C228 0.939 . S
O208 P197 1.490 . S
H209 C225 0.939 . S
H210 C227 0.940 . S
C211 P197 1.812 . S
C211 C212 1.389 . S
C211 C216 1.391 . S
C212 H198 0.941 . S
C212 C211 1.389 . S
C212 C213 1.397 . S
C213 H199 0.939 . S
C213 C212 1.397 . S
C213 C214 1.378 . S
C214 C213 1.378 . S
C214 C215 1.378 . S
C215 H200 0.940 . S
C215 C214 1.378 . S
C215 C216 1.396 . S
C216 H201 0.940 . S
C216 C211 1.391 . S
C216 C215 1.396 . S
C217 P197 1.803 1_565 S
C217 C218 1.378 . S
C217 C222 1.400 . S
C218 H202 0.939 . S
C218 C217 1.378 . S
C218 C219 1.361 . S
C219 H203 0.942 . S
C219 C218 1.361 . S
C219 C220 1.369 . S
C220 C219 1.369 . S
C220 C221 1.404 . S
C221 H204 0.940 . S
C221 C220 1.404 . S
C221 C222 1.389 . S
C222 H205 0.939 . S
C222 C217 1.400 . S
C222 C221 1.389 . S
C223 P197 1.819 . S
C223 C224 1.391 . S
C223 C228 1.391 1_545 S
C224 H206 0.941 . S
C224 C223 1.391 . S
C224 C225 1.396 . S
C225 H209 0.939 . S
C225 C224 1.396 . S
C225 C226 1.397 . S
C226 C225 1.397 . S
C226 C227 1.385 1_545 S
C227 H210 0.940 . S
C227 C226 1.385 1_565 S
C227 C228 1.388 . S
C228 H207 0.939 . S
C228 C223 1.391 1_565 S
C228 C227 1.388 . S
P229 O240 1.490 . S
P229 C243 1.812 . S
P229 C249 1.803 . S
P229 C255 1.819 . S
H230 C244 0.941 . S
H231 C245 0.939 . S
H232 C247 0.940 . S
H233 C248 0.940 . S
H234 C250 0.939 . S
H235 C251 0.942 . S
H236 C253 0.940 . S
H237 C254 0.939 . S
H238 C256 0.941 . S
H239 C260 0.939 . S
O240 P229 1.490 . S
H241 C257 0.939 . S
H242 C259 0.940 . S
C243 P229 1.812 . S
C243 C244 1.389 . S
C243 C248 1.391 . S
C244 H230 0.941 . S
C244 C243 1.389 . S
C244 C245 1.397 . S
C245 H231 0.939 . S
C245 C244 1.397 . S
C245 C246 1.378 . S
C246 C245 1.378 . S
C246 C247 1.378 . S
C247 H232 0.940 . S
C247 C246 1.378 . S
C247 C248 1.396 . S
C248 H233 0.940 . S
C248 C243 1.391 . S
C248 C247 1.396 . S
C249 P229 1.803 . S
C249 C250 1.378 . S
C249 C254 1.400 . S
C250 H234 0.939 . S
C250 C249 1.378 . S
C250 C251 1.361 . S
C251 H235 0.942 . S
C251 C250 1.361 . S
C251 C252 1.369 . S
C252 C251 1.369 . S
C252 C253 1.404 . S
C253 H236 0.940 . S
C253 C252 1.404 . S
C253 C254 1.389 . S
C254 H237 0.939 . S
C254 C249 1.400 . S
C254 C253 1.389 . S
C255 P229 1.819 . S
C255 C256 1.391 . S
C255 C260 1.391 . S
C256 H238 0.941 . S
C256 C255 1.391 . S
C256 C257 1.396 . S
C257 H241 0.939 . S
C257 C256 1.396 . S
C257 C258 1.397 . S
C258 C257 1.397 . S
C258 C259 1.385 . S
C259 H242 0.940 . S
C259 C258 1.385 . S
C259 C260 1.388 . S
C260 H239 0.939 . S
C260 C255 1.391 . S
C260 C259 1.388 . S
H261 C269 0.950 . S
H262 C274 0.950 . S
H263 C271 0.950 . S
H264 C273 0.950 . S
H265 C275 0.950 . S
H266 C277 0.950 . S
H267 C279 0.950 . S
H268 C280 0.950 . S
C269 H261 0.950 . S
C269 C270 1.386 . S
C269 C271 1.391 . S
C270 C269 1.386 . S
C270 C274 1.393 . S
C271 H263 0.950 . S
C271 C269 1.391 . S
C271 C272 1.400 . S
C272 C271 1.400 . S
C272 C273 1.398 . S
C272 C278 1.491 . S
C273 H264 0.950 . S
C273 C272 1.398 . S
C273 C274 1.391 . S
C274 H262 0.950 . S
C274 C270 1.393 . S
C274 C273 1.391 . S
C275 H265 0.950 . S
C275 C276 1.386 . S
C275 C277 1.391 . S
C276 C275 1.386 . S
C276 C280 1.393 . S
C277 H266 0.950 . S
C277 C275 1.391 . S
C277 C278 1.400 . S
C278 C272 1.491 . S
C278 C277 1.400 . S
C278 C279 1.398 . S
C279 H267 0.950 . S
C279 C278 1.398 . S
C279 C280 1.391 . S
C280 H268 0.950 . S
C280 C276 1.393 . S
C280 C279 1.391 . S
H281 C289 0.950 . S
H282 C294 0.950 . S
H283 C291 0.950 . S
H284 C293 0.950 . S
H285 C295 0.950 . S
H286 C297 0.950 . S
H287 C299 0.950 . S
H288 C300 0.950 . S
C289 H281 0.950 . S
C289 C290 1.386 . S
C289 C291 1.391 . S
C290 C289 1.386 . S
C290 C294 1.393 . S
C291 H283 0.950 . S
C291 C289 1.391 . S
C291 C292 1.400 . S
C292 C291 1.400 . S
C292 C293 1.398 . S
C292 C298 1.491 . S
C293 H284 0.950 . S
C293 C292 1.398 . S
C293 C294 1.391 . S
C294 H282 0.950 . S
C294 C290 1.393 . S
C294 C293 1.391 . S
C295 H285 0.950 . S
C295 C296 1.386 . S
C295 C297 1.391 . S
C296 C295 1.386 . S
C296 C300 1.393 . S
C297 H286 0.950 . S
C297 C295 1.391 . S
C297 C298 1.400 . S
C298 C292 1.491 . S
C298 C297 1.400 . S
C298 C299 1.398 . S
C299 H287 0.950 . S
C299 C298 1.398 . S
C299 C300 1.391 . S
C300 H288 0.950 . S
C300 C296 1.393 . S
C300 C299 1.391 . S
H301 C309 0.950 . S
H302 C314 0.950 . S
H303 C311 0.950 . S
H304 C313 0.950 . S
H305 C315 0.950 . S
H306 C317 0.950 . S
H307 C319 0.950 . S
H308 C320 0.950 . S
C309 H301 0.950 . S
C309 C310 1.386 . S
C309 C311 1.391 . S
C310 C309 1.386 . S
C310 C314 1.393 . S
C311 H303 0.950 . S
C311 C309 1.391 . S
C311 C312 1.400 . S
C312 C311 1.400 . S
C312 C313 1.398 . S
C312 C318 1.491 . S
C313 H304 0.950 . S
C313 C312 1.398 . S
C313 C314 1.391 . S
C314 H302 0.950 . S
C314 C310 1.393 . S
C314 C313 1.391 . S
C315 H305 0.950 . S
C315 C316 1.386 . S
C315 C317 1.391 . S
C316 C315 1.386 . S
C316 C320 1.393 . S
C317 H306 0.950 . S
C317 C315 1.391 . S
C317 C318 1.400 . S
C318 C312 1.491 . S
C318 C317 1.400 . S
C318 C319 1.398 . S
C319 H307 0.950 . S
C319 C318 1.398 . S
C319 C320 1.391 . S
C320 H308 0.950 . S
C320 C316 1.393 . S
C320 C319 1.391 . S
H321 C329 0.950 . S
H322 C334 0.950 . S
H323 C331 0.950 . S
H324 C333 0.950 . S
H325 C335 0.950 . S
H326 C337 0.950 . S
H327 C339 0.950 . S
H328 C340 0.950 . S
C329 H321 0.950 . S
C329 C330 1.386 . S
C329 C331 1.391 . S
C330 C329 1.386 . S
C330 C334 1.393 . S
C331 H323 0.950 . S
C331 C329 1.391 . S
C331 C332 1.400 . S
C332 C331 1.400 . S
C332 C333 1.398 . S
C332 C338 1.491 . S
C333 H324 0.950 . S
C333 C332 1.398 . S
C333 C334 1.391 . S
C334 H322 0.950 . S
C334 C330 1.393 . S
C334 C333 1.391 . S
C335 H325 0.950 . S
C335 C336 1.386 . S
C335 C337 1.391 . S
C336 C335 1.386 . S
C336 C340 1.393 . S
C337 H326 0.950 . S
C337 C335 1.391 . S
C337 C338 1.400 . S
C338 C332 1.491 . S
C338 C337 1.400 . S
C338 C339 1.398 . S
C339 H327 0.950 . S
C339 C338 1.398 . S
C339 C340 1.391 . S
C340 H328 0.950 . S
C340 C336 1.393 . S
C340 C339 1.391 . S
H341 C349 0.950 . S
H342 C354 0.950 . S
H343 C351 0.950 . S
H344 C353 0.950 . S
H345 C355 0.950 . S
H346 C357 0.950 . S
H347 C359 0.950 . S
H348 C360 0.950 . S
C349 H341 0.950 . S
C349 C350 1.386 . S
C349 C351 1.391 . S
C350 C349 1.386 . S
C350 C354 1.393 . S
C351 H343 0.950 . S
C351 C349 1.391 . S
C351 C352 1.400 . S
C352 C351 1.400 . S
C352 C353 1.398 . S
C352 C358 1.491 . S
C353 H344 0.950 . S
C353 C352 1.398 . S
C353 C354 1.391 . S
C354 H342 0.950 . S
C354 C350 1.393 . S
C354 C353 1.391 . S
C355 H345 0.950 . S
C355 C356 1.386 . S
C355 C357 1.391 . S
C356 C355 1.386 . S
C356 C360 1.393 . S
C357 H346 0.950 . S
C357 C355 1.391 . S
C357 C358 1.400 . S
C358 C352 1.491 . S
C358 C357 1.400 . S
C358 C359 1.398 . S
C359 H347 0.950 . S
C359 C358 1.398 . S
C359 C360 1.391 . S
C360 H348 0.950 . S
C360 C356 1.393 . S
C360 C359 1.391 . S
H361 C369 0.950 . S
H362 C374 0.950 . S
H363 C371 0.950 . S
H364 C373 0.950 . S
H365 C375 0.950 . S
H366 C377 0.950 . S
H367 C379 0.950 . S
H368 C380 0.950 . S
C369 H361 0.950 . S
C369 C370 1.386 . S
C369 C371 1.391 . S
C370 C369 1.386 . S
C370 C374 1.393 . S
C371 H363 0.950 . S
C371 C369 1.391 . S
C371 C372 1.400 . S
C372 C371 1.400 . S
C372 C373 1.398 . S
C372 C378 1.491 . S
C373 H364 0.950 . S
C373 C372 1.398 . S
C373 C374 1.391 . S
C374 H362 0.950 . S
C374 C370 1.393 . S
C374 C373 1.391 . S
C375 H365 0.950 . S
C375 C376 1.386 . S
C375 C377 1.391 . S
C376 C375 1.386 . S
C376 C380 1.393 . S
C377 H366 0.950 . S
C377 C375 1.391 . S
C377 C378 1.400 . S
C378 C372 1.491 . S
C378 C377 1.400 . S
C378 C379 1.398 . S
C379 H367 0.950 . S
C379 C378 1.398 . S
C379 C380 1.391 . S
C380 H368 0.950 . S
C380 C376 1.393 . S
C380 C379 1.391 . S
H381 C389 0.950 . S
H382 C394 0.950 . S
H383 C391 0.950 . S
H384 C393 0.950 . S
H385 C395 0.950 . S
H386 C397 0.950 . S
H387 C399 0.950 . S
H388 C400 0.950 . S
C389 H381 0.950 . S
C389 C390 1.386 . S
C389 C391 1.391 . S
C390 C389 1.386 . S
C390 C394 1.393 . S
C391 H383 0.950 . S
C391 C389 1.391 . S
C391 C392 1.400 . S
C392 C391 1.400 . S
C392 C393 1.398 . S
C392 C398 1.491 . S
C393 H384 0.950 . S
C393 C392 1.398 . S
C393 C394 1.391 . S
C394 H382 0.950 . S
C394 C390 1.393 . S
C394 C393 1.391 . S
C395 H385 0.950 . S
C395 C396 1.386 . S
C395 C397 1.391 . S
C396 C395 1.386 . S
C396 C400 1.393 . S
C397 H386 0.950 . S
C397 C395 1.391 . S
C397 C398 1.400 . S
C398 C392 1.491 . S
C398 C397 1.400 . S
C398 C399 1.398 . S
C399 H387 0.950 . S
C399 C398 1.398 . S
C399 C400 1.391 . S
C400 H388 0.950 . S
C400 C396 1.393 . S
C400 C399 1.391 . S
H401 C409 0.950 . S
H402 C414 0.950 . S
H403 C411 0.950 . S
H404 C413 0.950 . S
H405 C415 0.950 . S
H406 C417 0.950 . S
H407 C419 0.950 . S
H408 C420 0.950 . S
C409 H401 0.950 . S
C409 C410 1.386 . S
C409 C411 1.391 . S
C410 C409 1.386 . S
C410 C414 1.393 . S
C411 H403 0.950 . S
C411 C409 1.391 . S
C411 C412 1.400 . S
C412 C411 1.400 . S
C412 C413 1.398 . S
C412 C418 1.491 . S
C413 H404 0.950 . S
C413 C412 1.398 . S
C413 C414 1.391 . S
C414 H402 0.950 . S
C414 C410 1.393 . S
C414 C413 1.391 . S
C415 H405 0.950 . S
C415 C416 1.386 . S
C415 C417 1.391 . S
C416 C415 1.386 . S
C416 C420 1.393 . S
C417 H406 0.950 . S
C417 C415 1.391 . S
C417 C418 1.400 . S
C418 C412 1.491 . S
C418 C417 1.400 . S
C418 C419 1.398 . S
C419 H407 0.950 . S
C419 C418 1.398 . S
C419 C420 1.391 . S
C420 H408 0.950 . S
C420 C416 1.393 . S
C420 C419 1.391 . S
H421 C429 0.950 . S
H422 C434 0.950 . S
H423 C431 0.950 . S
H424 C433 0.950 . S
H425 C435 0.950 . S
H426 C437 0.950 . S
H427 C439 0.950 . S
H428 C440 0.950 . S
C429 H421 0.950 . S
C429 C430 1.386 . S
C429 C431 1.391 . S
C430 C429 1.386 . S
C430 C434 1.393 . S
C431 H423 0.950 . S
C431 C429 1.391 . S
C431 C432 1.400 . S
C432 C431 1.400 . S
C432 C433 1.398 . S
C432 C438 1.491 . S
C433 H424 0.950 . S
C433 C432 1.398 . S
C433 C434 1.391 . S
C434 H422 0.950 . S
C434 C430 1.393 . S
C434 C433 1.391 . S
C435 H425 0.950 . S
C435 C436 1.386 . S
C435 C437 1.391 . S
C436 C435 1.386 . S
C436 C440 1.393 . S
C437 H426 0.950 . S
C437 C435 1.391 . S
C437 C438 1.400 . S
C438 C432 1.491 . S
C438 C437 1.400 . S
C438 C439 1.398 . S
C439 H427 0.950 . S
C439 C438 1.398 . S
C439 C440 1.391 . S
C440 H428 0.950 . S
C440 C436 1.393 . S
C440 C439 1.391 . S
H441 C449 0.950 . S
H442 C454 0.950 . S
H443 C451 0.950 . S
H444 C453 0.950 . S
H445 C455 0.950 . S
H446 C457 0.950 . S
H447 C459 0.950 . S
H448 C460 0.950 . S
C449 H441 0.950 . S
C449 C450 1.386 . S
C449 C451 1.391 . S
C450 C449 1.386 . S
C450 C454 1.393 . S
C451 H443 0.950 . S
C451 C449 1.391 . S
C451 C452 1.400 . S
C452 C451 1.400 . S
C452 C453 1.398 . S
C452 C458 1.491 . S
C453 H444 0.950 . S
C453 C452 1.398 . S
C453 C454 1.391 . S
C454 H442 0.950 . S
C454 C450 1.393 . S
C454 C453 1.391 . S
C455 H445 0.950 . S
C455 C456 1.386 . S
C455 C457 1.391 . S
C456 C455 1.386 . S
C456 C460 1.393 . S
C457 H446 0.950 . S
C457 C455 1.391 . S
C457 C458 1.400 . S
C458 C452 1.491 . S
C458 C457 1.400 . S
C458 C459 1.398 . S
C459 H447 0.950 . S
C459 C458 1.398 . S
C459 C460 1.391 . S
C460 H448 0.950 . S
C460 C456 1.393 . S
C460 C459 1.391 . S
H461 C469 0.950 . S
H462 C474 0.950 . S
H463 C471 0.950 . S
H464 C473 0.950 . S
H465 C475 0.950 . S
H466 C477 0.950 . S
H467 C479 0.950 . S
H468 C480 0.950 . S
C469 H461 0.950 . S
C469 C470 1.386 . S
C469 C471 1.391 . S
C470 C469 1.386 . S
C470 C474 1.393 . S
C471 H463 0.950 . S
C471 C469 1.391 . S
C471 C472 1.400 . S
C472 C471 1.400 . S
C472 C473 1.398 . S
C472 C478 1.491 . S
C473 H464 0.950 . S
C473 C472 1.398 . S
C473 C474 1.391 . S
C474 H462 0.950 . S
C474 C470 1.393 . S
C474 C473 1.391 . S
C475 H465 0.950 . S
C475 C476 1.386 . S
C475 C477 1.391 . S
C476 C475 1.386 . S
C476 C480 1.393 . S
C477 H466 0.950 . S
C477 C475 1.391 . S
C477 C478 1.400 . S
C478 C472 1.491 . S
C478 C477 1.400 . S
C478 C479 1.398 . S
C479 H467 0.950 . S
C479 C478 1.398 . S
C479 C480 1.391 . S
C480 H468 0.950 . S
C480 C476 1.393 . S
C480 C479 1.391 . S
H481 C489 0.950 . S
H482 C494 0.950 . S
H483 C491 0.950 . S
H484 C493 0.950 . S
H485 C495 0.950 . S
H486 C497 0.950 . S
H487 C499 0.950 . S
H488 C500 0.950 . S
C489 H481 0.950 . S
C489 C490 1.386 . S
C489 C491 1.391 . S
C490 C489 1.386 . S
C490 C494 1.393 . S
C491 H483 0.950 . S
C491 C489 1.391 . S
C491 C492 1.400 . S
C492 C491 1.400 . S
C492 C493 1.398 . S
C492 C498 1.491 . S
C493 H484 0.950 . S
C493 C492 1.398 . S
C493 C494 1.391 . S
C494 H482 0.950 . S
C494 C490 1.393 . S
C494 C493 1.391 . S
C495 H485 0.950 . S
C495 C496 1.386 . S
C495 C497 1.391 . S
C496 C495 1.386 . S
C496 C500 1.393 . S
C497 H486 0.950 . S
C497 C495 1.391 . S
C497 C498 1.400 . S
C498 C492 1.491 . S
C498 C497 1.400 . S
C498 C499 1.398 . S
C499 H487 0.950 . S
C499 C498 1.398 . S
C499 C500 1.391 . S
C500 H488 0.950 . S
C500 C496 1.393 . S
C500 C499 1.391 . S
H501 C509 0.950 . S
H502 C514 0.950 . S
H503 C511 0.950 . S
H504 C513 0.950 . S
H505 C515 0.947 . S
H506 C517 0.950 . S
H507 C519 0.950 . S
H508 C520 0.950 1_556 S
C509 H501 0.950 . S
C509 C510 1.386 . S
C509 C511 1.391 . S
C510 C509 1.386 . S
C510 C514 1.393 1_455 S
C511 H503 0.950 . S
C511 C509 1.391 . S
C511 C512 1.400 . S
C512 C511 1.400 . S
C512 C513 1.398 1_455 S
C512 C518 1.491 . S
C513 H504 0.950 . S
C513 C512 1.398 1_655 S
C513 C514 1.391 . S
C514 H502 0.950 . S
C514 C510 1.393 1_655 S
C514 C513 1.391 . S
C515 H505 0.947 . S
C515 C516 1.384 1_655 S
C515 C517 1.395 1_556 S
C516 C515 1.384 1_455 S
C516 C520 1.393 1_556 S
C517 H506 0.950 . S
C517 C515 1.395 1_554 S
C517 C518 1.400 1_655 S
C518 C512 1.491 . S
C518 C517 1.400 1_455 S
C518 C519 1.398 . S
C519 H507 0.950 . S
C519 C518 1.398 . S
C519 C520 1.391 . S
C520 H508 0.950 1_554 S
C520 C516 1.393 1_554 S
C520 C519 1.391 . S
H521 C529 0.950 . S
H522 C534 0.950 . S
H523 C531 0.950 . S
H524 C533 0.950 . S
H525 C535 0.950 . S
H526 C537 0.950 . S
H527 C539 0.950 . S
H528 C540 0.950 . S
C529 H521 0.950 . S
C529 C530 1.386 1_565 S
C529 C531 1.391 . S
C530 C529 1.386 1_545 S
C530 C534 1.393 . S
C531 H523 0.950 . S
C531 C529 1.391 . S
C531 C532 1.400 1_565 S
C532 C531 1.400 1_545 S
C532 C533 1.398 . S
C532 C538 1.491 . S
C533 H524 0.950 . S
C533 C532 1.398 . S
C533 C534 1.391 . S
C534 H522 0.950 . S
C534 C530 1.393 . S
C534 C533 1.391 . S
C535 H525 0.950 . S
C535 C536 1.386 . S
C535 C537 1.391 . S
C536 C535 1.386 . S
C536 C540 1.393 1_545 S
C537 H526 0.950 . S
C537 C535 1.391 . S
C537 C538 1.400 . S
C538 C532 1.491 . S
C538 C537 1.400 . S
C538 C539 1.398 1_545 S
C539 H527 0.950 . S
C539 C538 1.398 1_565 S
C539 C540 1.391 . S
C540 H528 0.950 . S
C540 C536 1.393 1_565 S
C540 C539 1.391 . S
H541 C549 0.950 . S
H542 C554 0.950 . S
H543 C551 0.950 . S
H544 C553 0.950 . S
H545 C555 0.950 . S
H546 C557 0.950 . S
H547 C559 0.950 . S
H548 C560 0.950 . S
C549 H541 0.950 . S
C549 C550 1.386 . S
C549 C551 1.391 . S
C550 C549 1.386 . S
C550 C554 1.393 . S
C551 H543 0.950 . S
C551 C549 1.391 . S
C551 C552 1.400 . S
C552 C551 1.400 . S
C552 C553 1.398 . S
C552 C558 1.491 . S
C553 H544 0.950 . S
C553 C552 1.398 . S
C553 C554 1.391 . S
C554 H542 0.950 . S
C554 C550 1.393 . S
C554 C553 1.391 . S
C555 H545 0.950 . S
C555 C556 1.386 . S
C555 C557 1.391 . S
C556 C555 1.386 . S
C556 C560 1.393 . S
C557 H546 0.950 . S
C557 C555 1.391 . S
C557 C558 1.400 . S
C558 C552 1.491 . S
C558 C557 1.400 . S
C558 C559 1.398 . S
C559 H547 0.950 . S
C559 C558 1.398 . S
C559 C560 1.391 . S
C560 H548 0.950 . S
C560 C556 1.393 . S
C560 C559 1.391 . S
H561 C569 0.950 . S
H562 C574 0.950 . S
H563 C571 0.950 . S
H564 C573 0.950 . S
H565 C575 0.950 . S
H566 C577 0.950 . S
H567 C579 0.950 . S
H568 C580 0.950 . S
C569 H561 0.950 . S
C569 C570 1.386 . S
C569 C571 1.391 . S
C570 C569 1.386 . S
C570 C574 1.393 1_545 S
C571 H563 0.950 . S
C571 C569 1.391 . S
C571 C572 1.400 . S
C572 C571 1.400 . S
C572 C573 1.398 1_545 S
C572 C578 1.491 . S
C573 H564 0.950 . S
C573 C572 1.398 1_565 S
C573 C574 1.391 . S
C574 H562 0.950 . S
C574 C570 1.393 1_565 S
C574 C573 1.391 . S
C575 H565 0.950 . S
C575 C576 1.386 1_565 S
C575 C577 1.391 . S
C576 C575 1.386 1_545 S
C576 C580 1.393 . S
C577 H566 0.950 . S
C577 C575 1.391 . S
C577 C578 1.400 1_565 S
C578 C572 1.491 . S
C578 C577 1.400 1_545 S
C578 C579 1.398 . S
C579 H567 0.950 . S
C579 C578 1.398 . S
C579 C580 1.391 . S
C580 H568 0.950 . S
C580 C576 1.393 . S
C580 C579 1.391 . S
H581 C589 0.950 . S
H582 C594 0.950 . S
H583 C591 0.950 . S
H584 C593 0.950 . S
H585 C595 0.950 1_554 S
H586 C597 0.950 . S
H587 C599 0.950 . S
H588 C600 0.951 1_554 S
C589 H581 0.950 . S
C589 C590 1.386 . S
C589 C591 1.391 . S
C590 C589 1.386 . S
C590 C594 1.393 . S
C591 H583 0.950 . S
C591 C589 1.391 . S
C591 C592 1.400 . S
C592 C591 1.400 . S
C592 C593 1.398 . S
C592 C598 1.491 . S
C593 H584 0.950 . S
C593 C592 1.398 . S
C593 C594 1.391 . S
C594 H582 0.950 . S
C594 C590 1.393 . S
C594 C593 1.391 . S
C595 H585 0.950 1_556 S
C595 C596 1.386 1_556 S
C595 C597 1.391 . S
C596 C595 1.386 1_554 S
C596 C600 1.394 1_554 S
C597 H586 0.950 . S
C597 C595 1.391 . S
C597 C598 1.400 . S
C598 C592 1.491 . S
C598 C597 1.400 . S
C598 C599 1.398 . S
C599 H587 0.950 . S
C599 C598 1.398 . S
C599 C600 1.387 . S
C600 H588 0.951 1_556 S
C600 C596 1.394 1_556 S
C600 C599 1.387 . S
H601 C609 0.950 . S
H602 C614 0.950 . S
H603 C611 0.950 . S
H604 C613 0.950 . S
H605 C615 0.950 . S
H606 C617 0.950 . S
H607 C619 0.950 . S
H608 C620 0.950 . S
C609 H601 0.950 . S
C609 C610 1.386 . S
C609 C611 1.391 . S
C610 C609 1.386 . S
C610 C614 1.393 1_455 S
C611 H603 0.950 . S
C611 C609 1.391 . S
C611 C612 1.400 . S
C612 C611 1.400 . S
C612 C613 1.398 1_455 S
C612 C618 1.491 . S
C613 H604 0.950 . S
C613 C612 1.398 1_655 S
C613 C614 1.391 . S
C614 H602 0.950 . S
C614 C610 1.393 1_655 S
C614 C613 1.391 . S
C615 H605 0.950 . S
C615 C616 1.386 1_655 S
C615 C617 1.391 . S
C616 C615 1.386 1_455 S
C616 C620 1.393 . S
C617 H606 0.950 . S
C617 C615 1.391 . S
C617 C618 1.400 1_655 S
C618 C612 1.491 . S
C618 C617 1.400 1_455 S
C618 C619 1.398 . S
C619 H607 0.950 . S
C619 C618 1.398 . S
C619 C620 1.391 . S
C620 H608 0.950 . S
C620 C616 1.393 . S
C620 C619 1.391 . S
C270 C20 1.169 . S
C276 C252 1.175 . S
C290 C41 1.249 . S
C296 C188 1.201 . S
C310 C64 1.272 . S
C316 C220 1.219 . S
C330 C19 1.260 . S
C336 C246 1.289 . S
C356 C182 1.232 . S
C350 C44 1.238 . S
C376 C214 1.224 . S
C370 C67 1.214 . S
C390 C43 1.192 . S
C396 C124 1.195 . S
C410 C66 1.158 . S
C416 C156 1.161 . S
C430 C21 1.227 . S
C436 C86 1.237 . S
C456 C118 1.257 . S
C450 C42 1.209 . S
C476 C150 1.292 . S
C470 C65 1.232 . S
C490 C18 1.249 . S
C496 C92 1.197 . S
C516 C162 1.432 . S
C510 C17 1.464 . S
C530 C39 1.462 . S
C536 C98 1.421 . S
C550 C62 1.479 . S
C556 C130 1.444 . S
C576 C226 1.404 . S
C570 C40 1.449 . S
C596 C258 1.446 . S
C590 C63 1.467 . S
C610 C16 1.461 . S
C616 C194 1.423 . S
