# Generated by pormake.
# Topology ptr, (4,4)-cn, num edge types: 1
# Building blocks:
#     Node 0, Type 0, BuildingBlock: QUQFOY_clean_sbu_1, # of connection points: 4
#     Node 1, Type 0, BuildingBlock: QUQFOY_clean_sbu_1, # of connection points: 4
#     Node 2, Type 0, BuildingBlock: QUQFOY_clean_sbu_1, # of connection points: 4
#     Node 3, Type 0, BuildingBlock: QUQFOY_clean_sbu_1, # of connection points: 4
#     Node 4, Type 0, BuildingBlock: QUQFOY_clean_sbu_1, # of connection points: 4
#     Node 5, Type 0, BuildingBlock: QUQFOY_clean_sbu_1, # of connection points: 4
#     Node 6, Type 0, BuildingBlock: QUQFOY_clean_sbu_1, # of connection points: 4
#     Node 7, Type 0, BuildingBlock: QUQFOY_clean_sbu_1, # of connection points: 4
#     Node 8, Type 0, BuildingBlock: QUQFOY_clean_sbu_1, # of connection points: 4
#     Node 9, Type 0, BuildingBlock: QUQFOY_clean_sbu_1, # of connection points: 4
#     Node 10, Type 0, BuildingBlock: QUQFOY_clean_sbu_1, # of connection points: 4
#     Node 11, Type 0, BuildingBlock: QUQFOY_clean_sbu_1, # of connection points: 4
#     Node 12, Type 0, BuildingBlock: QUQFOY_clean_sbu_1, # of connection points: 4
#     Node 13, Type 0, BuildingBlock: QUQFOY_clean_sbu_1, # of connection points: 4
#     Node 14, Type 0, BuildingBlock: QUQFOY_clean_sbu_1, # of connection points: 4
#     Node 15, Type 0, BuildingBlock: QUQFOY_clean_sbu_1, # of connection points: 4
#     Node 16, Type 0, BuildingBlock: QUQFOY_clean_sbu_1, # of connection points: 4
#     Node 17, Type 0, BuildingBlock: QUQFOY_clean_sbu_1, # of connection points: 4
#     Node 18, Type 1, BuildingBlock: KUFVIS_clean_linker_0, # of connection points: 4
#     Node 19, Type 1, BuildingBlock: KUFVIS_clean_linker_0, # of connection points: 4
#     Node 20, Type 1, BuildingBlock: KUFVIS_clean_linker_0, # of connection points: 4
#     Node 21, Type 1, BuildingBlock: KUFVIS_clean_linker_0, # of connection points: 4
#     Node 22, Type 1, BuildingBlock: KUFVIS_clean_linker_0, # of connection points: 4
#     Node 23, Type 1, BuildingBlock: KUFVIS_clean_linker_0, # of connection points: 4
#     Node 24, Type 1, BuildingBlock: KUFVIS_clean_linker_0, # of connection points: 4
#     Node 25, Type 1, BuildingBlock: KUFVIS_clean_linker_0, # of connection points: 4
#     Node 26, Type 1, BuildingBlock: KUFVIS_clean_linker_0, # of connection points: 4
#     Node 27, Type 1, BuildingBlock: KUFVIS_clean_linker_0, # of connection points: 4
#     Node 28, Type 1, BuildingBlock: KUFVIS_clean_linker_0, # of connection points: 4
#     Node 29, Type 1, BuildingBlock: KUFVIS_clean_linker_0, # of connection points: 4
#     Node 30, Type 1, BuildingBlock: KUFVIS_clean_linker_0, # of connection points: 4
#     Node 31, Type 1, BuildingBlock: KUFVIS_clean_linker_0, # of connection points: 4
#     Node 32, Type 1, BuildingBlock: KUFVIS_clean_linker_0, # of connection points: 4
#     Node 33, Type 1, BuildingBlock: KUFVIS_clean_linker_0, # of connection points: 4
#     Node 34, Type 1, BuildingBlock: KUFVIS_clean_linker_0, # of connection points: 4
#     Node 35, Type 1, BuildingBlock: KUFVIS_clean_linker_0, # of connection points: 4
#     Edge 36, Type (0, 1), BuildingBlock: TEMPAE_clean_linker_10, # of connection points: 2
#     Edge 37, Type (0, 1), BuildingBlock: TEMPAE_clean_linker_10, # of connection points: 2
#     Edge 38, Type (0, 1), BuildingBlock: TEMPAE_clean_linker_10, # of connection points: 2
#     Edge 39, Type (0, 1), BuildingBlock: TEMPAE_clean_linker_10, # of connection points: 2
#     Edge 40, Type (0, 1), BuildingBlock: TEMPAE_clean_linker_10, # of connection points: 2
#     Edge 41, Type (0, 1), BuildingBlock: TEMPAE_clean_linker_10, # of connection points: 2
#     Edge 42, Type (0, 1), BuildingBlock: TEMPAE_clean_linker_10, # of connection points: 2
#     Edge 43, Type (0, 1), BuildingBlock: TEMPAE_clean_linker_10, # of connection points: 2
#     Edge 44, Type (0, 1), BuildingBlock: TEMPAE_clean_linker_10, # of connection points: 2
#     Edge 45, Type (0, 1), BuildingBlock: TEMPAE_clean_linker_10, # of connection points: 2
#     Edge 46, Type (0, 1), BuildingBlock: TEMPAE_clean_linker_10, # of connection points: 2
#     Edge 47, Type (0, 1), BuildingBlock: TEMPAE_clean_linker_10, # of connection points: 2
#     Edge 48, Type (0, 1), BuildingBlock: TEMPAE_clean_linker_10, # of connection points: 2
#     Edge 49, Type (0, 1), BuildingBlock: TEMPAE_clean_linker_10, # of connection points: 2
#     Edge 50, Type (0, 1), BuildingBlock: TEMPAE_clean_linker_10, # of connection points: 2
#     Edge 51, Type (0, 1), BuildingBlock: TEMPAE_clean_linker_10, # of connection points: 2
#     Edge 52, Type (0, 1), BuildingBlock: TEMPAE_clean_linker_10, # of connection points: 2
#     Edge 53, Type (0, 1), BuildingBlock: TEMPAE_clean_linker_10, # of connection points: 2
#     Edge 54, Type (0, 1), BuildingBlock: TEMPAE_clean_linker_10, # of connection points: 2
#     Edge 55, Type (0, 1), BuildingBlock: TEMPAE_clean_linker_10, # of connection points: 2
#     Edge 56, Type (0, 1), BuildingBlock: TEMPAE_clean_linker_10, # of connection points: 2
#     Edge 57, Type (0, 1), BuildingBlock: TEMPAE_clean_linker_10, # of connection points: 2
#     Edge 58, Type (0, 1), BuildingBlock: TEMPAE_clean_linker_10, # of connection points: 2
#     Edge 59, Type (0, 1), BuildingBlock: TEMPAE_clean_linker_10, # of connection points: 2
#     Edge 60, Type (0, 1), BuildingBlock: TEMPAE_clean_linker_10, # of connection points: 2
#     Edge 61, Type (0, 1), BuildingBlock: TEMPAE_clean_linker_10, # of connection points: 2
#     Edge 62, Type (0, 1), BuildingBlock: TEMPAE_clean_linker_10, # of connection points: 2
#     Edge 63, Type (0, 1), BuildingBlock: TEMPAE_clean_linker_10, # of connection points: 2
#     Edge 64, Type (0, 1), BuildingBlock: TEMPAE_clean_linker_10, # of connection points: 2
#     Edge 65, Type (0, 1), BuildingBlock: TEMPAE_clean_linker_10, # of connection points: 2
#     Edge 66, Type (0, 1), BuildingBlock: TEMPAE_clean_linker_10, # of connection points: 2
#     Edge 67, Type (0, 1), BuildingBlock: TEMPAE_clean_linker_10, # of connection points: 2
#     Edge 68, Type (0, 1), BuildingBlock: TEMPAE_clean_linker_10, # of connection points: 2
#     Edge 69, Type (0, 1), BuildingBlock: TEMPAE_clean_linker_10, # of connection points: 2
#     Edge 70, Type (0, 1), BuildingBlock: TEMPAE_clean_linker_10, # of connection points: 2
#     Edge 71, Type (0, 1), BuildingBlock: TEMPAE_clean_linker_10, # of connection points: 2
#     Edge 72, Type (0, 1), BuildingBlock: TEMPAE_clean_linker_10, # of connection points: 2
#     Edge 73, Type (0, 1), BuildingBlock: TEMPAE_clean_linker_10, # of connection points: 2
#     Edge 74, Type (0, 1), BuildingBlock: TEMPAE_clean_linker_10, # of connection points: 2
#     Edge 75, Type (0, 1), BuildingBlock: TEMPAE_clean_linker_10, # of connection points: 2
#     Edge 76, Type (0, 1), BuildingBlock: TEMPAE_clean_linker_10, # of connection points: 2
#     Edge 77, Type (0, 1), BuildingBlock: TEMPAE_clean_linker_10, # of connection points: 2
#     Edge 78, Type (0, 1), BuildingBlock: TEMPAE_clean_linker_10, # of connection points: 2
#     Edge 79, Type (0, 1), BuildingBlock: TEMPAE_clean_linker_10, # of connection points: 2
#     Edge 80, Type (0, 1), BuildingBlock: TEMPAE_clean_linker_10, # of connection points: 2
#     Edge 81, Type (0, 1), BuildingBlock: TEMPAE_clean_linker_10, # of connection points: 2
#     Edge 82, Type (0, 1), BuildingBlock: TEMPAE_clean_linker_10, # of connection points: 2
#     Edge 83, Type (0, 1), BuildingBlock: TEMPAE_clean_linker_10, # of connection points: 2
#     Edge 84, Type (0, 1), BuildingBlock: TEMPAE_clean_linker_10, # of connection points: 2
#     Edge 85, Type (0, 1), BuildingBlock: TEMPAE_clean_linker_10, # of connection points: 2
#     Edge 86, Type (0, 1), BuildingBlock: TEMPAE_clean_linker_10, # of connection points: 2
#     Edge 87, Type (0, 1), BuildingBlock: TEMPAE_clean_linker_10, # of connection points: 2
#     Edge 88, Type (0, 1), BuildingBlock: TEMPAE_clean_linker_10, # of connection points: 2
#     Edge 89, Type (0, 1), BuildingBlock: TEMPAE_clean_linker_10, # of connection points: 2
#     Edge 90, Type (0, 1), BuildingBlock: TEMPAE_clean_linker_10, # of connection points: 2
#     Edge 91, Type (0, 1), BuildingBlock: TEMPAE_clean_linker_10, # of connection points: 2
#     Edge 92, Type (0, 1), BuildingBlock: TEMPAE_clean_linker_10, # of connection points: 2
#     Edge 93, Type (0, 1), BuildingBlock: TEMPAE_clean_linker_10, # of connection points: 2
#     Edge 94, Type (0, 1), BuildingBlock: TEMPAE_clean_linker_10, # of connection points: 2
#     Edge 95, Type (0, 1), BuildingBlock: TEMPAE_clean_linker_10, # of connection points: 2
#     Edge 96, Type (0, 1), BuildingBlock: TEMPAE_clean_linker_10, # of connection points: 2
#     Edge 97, Type (0, 1), BuildingBlock: TEMPAE_clean_linker_10, # of connection points: 2
#     Edge 98, Type (0, 1), BuildingBlock: TEMPAE_clean_linker_10, # of connection points: 2
#     Edge 99, Type (0, 1), BuildingBlock: TEMPAE_clean_linker_10, # of connection points: 2
#     Edge 100, Type (0, 1), BuildingBlock: TEMPAE_clean_linker_10, # of connection points: 2
#     Edge 101, Type (0, 1), BuildingBlock: TEMPAE_clean_linker_10, # of connection points: 2
#     Edge 102, Type (0, 1), BuildingBlock: TEMPAE_clean_linker_10, # of connection points: 2
#     Edge 103, Type (0, 1), BuildingBlock: TEMPAE_clean_linker_10, # of connection points: 2
#     Edge 104, Type (0, 1), BuildingBlock: TEMPAE_clean_linker_10, # of connection points: 2
#     Edge 105, Type (0, 1), BuildingBlock: TEMPAE_clean_linker_10, # of connection points: 2
#     Edge 106, Type (0, 1), BuildingBlock: TEMPAE_clean_linker_10, # of connection points: 2
#     Edge 107, Type (0, 1), BuildingBlock: TEMPAE_clean_linker_10, # of connection points: 2
# Relax obj value: 0.019
# Max RMSD: 0.075
# Mean RMSD: 0.059
data_MOF--net-ptr--node1-QUQFOY_clean_sbu_1--node2-KUFVIS_clean_linker_0--edge1-TEMPAE_clean_linker_10
_symmetry_space_group_name_H-M    P1
_symmetry_Int_Tables_number       1
_symmetry_cell_setting            triclinic
loop_
_symmetry_equiv_pos_as_xyz
'x, y, z'
_cell_length_a     80.655788
_cell_length_b     80.66184
_cell_length_c     51.043623
_cell_angle_alpha  90.076578
_cell_angle_beta   89.967871
_cell_angle_gamma 120.01489
loop_
_atom_site_label
_atom_site_type_symbol
_atom_site_fract_x
_atom_site_fract_y
_atom_site_fract_z
_atom_type_partial_charge
O0 O 0.03625 0.40571 0.04297 0.0
Cd1 Cd 0.03667 0.38915 0.01237 0.0
Cd2 Cd 0.99883 0.37014 0.0241 0.0
O3 O 1.00785 0.38518 0.059 0.0
O4 O 0.0644 0.39751 0.00725 0.0
O5 O 0.04296 0.36841 0.02023 0.0
C6 C 0.0606 0.38077 0.01499 0.0
C7 C 0.97722 0.33711 0.0213 0.0
C8 C 0.02356 0.40097 0.06064 0.0
C9 C 1.01143 0.3936 0.97481 0.0
O10 O 0.99872 0.38618 0.99257 0.0
O11 O 0.02718 0.39369 0.97707 0.0
O12 O 0.97175 0.34886 0.029 0.0
O13 O 0.99521 0.34399 0.01633 0.0
O14 O 0.62978 0.63729 0.03833 0.0
Cd15 Cd 0.64604 0.65354 0.00697 0.0
Cd16 Cd 0.66451 0.63398 0.01799 0.0
O17 O 0.64987 0.6284 0.05312 0.0
O18 O 0.63969 0.67444 0.00211 0.0
O19 O 0.66826 0.67995 0.01458 0.0
C20 C 0.65688 0.68649 0.00957 0.0
C21 C 0.69726 0.64414 0.01481 0.0
C22 C 0.6345 0.62906 0.05562 0.0
C23 C 0.64044 0.6233 0.96915 0.0
O24 O 0.64819 0.61811 0.98651 0.0
O25 O 0.64031 0.63893 0.97176 0.0
O26 O 0.68499 0.62699 0.0221 0.0
O27 O 0.69106 0.6559 0.01061 0.0
O28 O 0.41896 0.03958 0.98007 0.0
Cd29 Cd 0.40523 0.04181 0.01304 0.0
Cd30 Cd 0.38678 1.0029 0.00738 0.0
O31 O 0.39968 1.00908 0.97089 0.0
O32 O 0.41181 0.06925 0.01228 0.0
O33 O 0.38201 0.04511 0.01017 0.0
C34 C 0.3938 0.06334 0.00986 0.0
C35 C 0.35413 0.98026 0.01258 0.0
C36 C 0.41404 0.02524 0.96513 0.0
C37 C 0.41412 0.02091 0.05316 0.0
O38 O 0.40475 1.0063 0.03855 0.0
O39 O 0.41453 0.03656 0.04813 0.0
O40 O 0.36643 0.97515 0.00634 0.0
O41 O 0.36025 0.99835 0.01526 0.0
O42 O 1.0169 0.62892 0.96769 0.0
Cd43 Cd 1.00831 0.63711 0.0012 0.0
Cd44 Cd 0.04891 0.65572 0.01052 0.0
O45 O 0.04786 0.64192 0.97576 0.0
O46 O 0.98101 0.6294 0.9931 0.0
O47 O 1.00292 0.65919 0.00242 0.0
C48 C 0.98546 0.647 -0.00389 0.0
C49 C 0.07364 0.68755 0.01698 0.0
C50 C 0.03335 0.63162 0.96146 0.0
C51 C 0.02209 0.62566 0.04938 0.0
O52 O 0.03908 0.63843 0.04333 0.0
O53 O 1.00791 0.62282 0.03519 0.0
O54 O 0.07701 0.67354 0.01655 0.0
O55 O 0.05619 0.68361 0.01337 0.0
O56 O 0.41123 0.39729 0.96995 0.0
Cd57 Cd 0.4025 0.38022 0.003 0.0
Cd58 Cd 0.38245 0.40035 0.0113 0.0
O59 O 0.39701 0.41427 0.97741 0.0
O60 O 0.41169 0.36144 -0.00134 0.0
O61 O 0.38101 0.35268 0.00066 0.0
C62 C 0.39407 0.34795 -0.0016 0.0
C63 C 0.34976 0.39033 0.01568 0.0
C64 C 0.40799 0.41067 0.96356 0.0
C65 C 0.41169 0.40446 0.05183 0.0
O66 O 0.39857 0.40803 0.04535 0.0
O67 O 0.41538 0.39377 0.03761 0.0
O68 O 0.36276 0.40801 0.01861 0.0
O69 O 0.35515 0.37819 0.00972 0.0
O70 O 0.62042 0.98781 0.02867 0.0
Cd71 Cd 0.63385 0.9842 -0.00316 0.0
Cd72 Cd 0.65297 0.02509 -0.00182 0.0
O73 O 0.63834 0.01917 0.0336 0.0
O74 O 0.62636 0.95648 -0.00214 0.0
O75 O 0.6562 0.97992 0.00272 0.0
C76 C 0.64404 0.96176 0.00236 0.0
C77 C 0.68478 0.05072 -0.00449 0.0
C78 C 0.6247 1.00305 0.04121 0.0
C79 C 0.62612 1.00371 0.95261 0.0
O80 O 0.63653 0.01949 0.9645 0.0
O81 O 0.62426 0.98811 0.96135 0.0
O82 O 0.67059 0.05363 -0.00135 0.0
O83 O 0.68104 0.03318 0.99443 0.0
O84 O 0.70115 0.73673 0.38164 0.0
Cd85 Cd 0.70749 0.72761 0.34728 0.0
Cd86 Cd 0.6678 0.70746 0.34327 0.0
O87 O 0.66971 0.72194 0.3776 0.0
O88 O 0.73522 0.73625 0.35206 0.0
O89 O 0.71319 0.70586 0.3463 0.0
C90 C 0.73086 0.71859 0.35052 0.0
C91 C 0.64637 0.67449 0.34031 0.0
C92 C 0.6849 0.73333 0.38994 0.0
C93 C 0.68984 0.73645 0.3012 0.0
O94 O 0.6736 0.72341 0.30941 0.0
O95 O 0.70513 0.7403 0.3134 0.0
O96 O 0.64039 0.68658 0.34154 0.0
O97 O 0.66462 0.681 0.34106 0.0
O98 O 0.30237 0.96598 0.39357 0.0
Cd99 Cd 0.31159 0.98172 0.35899 0.0
Cd100 Cd 0.33122 0.96087 0.35645 0.0
O101 O 0.31919 0.95122 0.39266 0.0
O102 O 0.30252 1.00062 0.36348 0.0
O103 O 0.33302 1.00949 0.35817 0.0
C104 C 0.32008 1.01419 0.36197 0.0
C105 C 0.36354 0.97044 0.34959 0.0
C106 C 0.30701 0.95448 0.40376 0.0
C107 C 0.30131 0.95309 0.31507 0.0
O108 O 0.31273 0.94841 0.32539 0.0
O109 O 0.29957 0.96681 0.32441 0.0
O110 O 0.35089 0.95276 0.35345 0.0
O111 O 0.35794 0.98291 0.34997 0.0
O112 O 0.08261 0.365 0.31059 0.0
Cd113 Cd 0.07301 0.37298 0.34336 0.0
Cd114 Cd 0.05272 0.33281 0.35092 0.0
O115 O 0.06763 0.33371 0.31736 0.0
O116 O 0.08049 0.40059 0.33908 0.0
O117 O 0.05033 0.37715 0.33991 0.0
C118 C 0.06255 0.39522 0.33797 0.0
C119 C 1.02028 0.3091 0.35438 0.0
C120 C 0.07908 0.3483 0.30394 0.0
C121 C 0.08123 0.35768 0.39268 0.0
O122 O 0.06837 0.34107 0.38537 0.0
O123 O 0.08515 0.37227 0.37881 0.0
O124 O 0.03378 0.30519 0.35766 0.0
O125 O 0.02504 0.32652 0.34866 0.0
O126 O 0.68312 0.96016 0.29873 0.0
Cd127 Cd 0.67286 0.96729 0.3316 0.0
Cd128 Cd 0.71267 0.98567 0.34357 0.0
O129 O 0.71356 0.9722 0.30948 0.0
O130 O 0.64607 0.95993 0.32128 0.0
O131 O 0.66759 0.98941 0.33276 0.0
C132 C 0.65041 0.97744 0.32504 0.0
C133 C 0.73661 0.01758 0.35059 0.0
C134 C 0.6997 0.96265 0.29383 0.0
C135 C 0.68417 0.95538 0.38116 0.0
O136 O 0.70125 0.96848 0.3763 0.0
O137 O 0.67062 0.95222 0.36552 0.0
O138 O 0.73984 1.00365 0.35415 0.0
O139 O 0.71978 1.01356 0.34276 0.0
O140 O 0.07687 0.73377 0.29658 0.0
Cd141 Cd 0.06961 0.71725 0.33012 0.0
Cd142 Cd 0.04795 0.73707 0.33806 0.0
O143 O 0.06112 0.74936 0.30289 0.0
O144 O 0.07997 0.6996 0.3232 0.0
O145 O 0.04923 0.68915 0.33004 0.0
C146 C 0.06273 0.68545 0.32498 0.0
C147 C 1.01589 0.72903 0.34463 0.0
C148 C 0.07249 0.74619 0.28935 0.0
C149 C 0.07848 0.74271 0.37791 0.0
O150 O 0.06527 0.74601 0.37087 0.0
O151 O 0.08232 0.73171 0.36454 0.0
O152 O 0.02945 0.74659 0.3433 0.0
O153 O 1.02039 0.71585 0.34177 0.0
O154 O 0.2957 0.33258 0.37854 0.0
Cd155 Cd 0.30527 0.32531 0.34538 0.0
Cd156 Cd 0.32603 0.36683 0.34048 0.0
O157 O 0.31026 0.36412 0.37389 0.0
O158 O 0.29512 0.29705 0.34817 0.0
O159 O 0.32603 0.3183 0.34856 0.0
C160 C 0.31254 0.30062 0.34976 0.0
C161 C 0.35785 0.39191 0.33697 0.0
C162 C 0.29881 0.3489 0.38623 0.0
C163 C 0.29811 0.34296 0.29761 0.0
O164 O 0.31091 0.35928 0.30583 0.0
O165 O 0.29385 0.32784 0.31042 0.0
O166 O 0.34368 0.39493 0.33495 0.0
O167 O 0.35415 0.37468 0.34184 0.0
O168 O 0.36612 0.07078 0.70919 0.0
Cd169 Cd 0.36707 0.05634 0.67626 0.0
Cd170 Cd 0.32779 0.03843 0.68573 0.0
O171 O 0.33605 0.05245 0.72136 0.0
O172 O 0.39502 0.06484 0.67459 0.0
O173 O 0.37261 0.03447 0.67879 0.0
C174 C 0.39055 0.04724 0.67761 0.0
C175 C 0.30369 1.0062 0.68206 0.0
C176 C 0.35265 0.06674 0.72537 0.0
C177 C 0.34402 0.06417 0.63812 0.0
O178 O 0.33022 0.05552 0.65415 0.0
O179 O 0.3598 0.0645 0.64174 0.0
O180 O 0.29976 0.01929 0.68865 0.0
O181 O 0.32149 1.01128 0.67859 0.0
O182 O 0.96039 0.30031 0.71074 0.0
Cd183 Cd 0.97487 0.31655 0.67865 0.0
Cd184 Cd 0.99424 0.29633 0.68414 0.0
O185 O 0.97916 0.2883 0.71932 0.0
O186 O 0.96865 0.33767 0.67618 0.0
O187 O 0.99773 0.34286 0.68485 0.0
C188 C 0.98628 0.34958 0.68182 0.0
C189 C 0.0269 0.3059 0.68144 0.0
C190 C 0.96485 0.29025 0.72507 0.0
C191 C 0.96866 0.28803 0.6368 0.0
O192 O 0.97875 0.28327 0.65055 0.0
O193 O 0.96642 0.30196 0.64358 0.0
O194 O 1.01414 0.28839 0.68629 0.0
O195 O 1.02123 0.31827 0.67937 0.0
O196 O 0.74808 0.70138 0.64828 0.0
Cd197 Cd 0.7403 0.71039 0.68169 0.0
Cd198 Cd 0.72066 0.67027 0.69042 0.0
O199 O 0.7354 0.67052 0.65695 0.0
O200 O 0.74802 0.73756 0.67307 0.0
O201 O 0.71819 0.71564 0.68243 0.0
C202 C 0.73037 0.73302 0.67579 0.0
C203 C 0.68825 0.64636 0.69494 0.0
C204 C 0.74559 0.68494 0.64245 0.0
C205 C 0.75046 0.6964 0.73037 0.0
O206 O 0.73696 0.67978 0.72425 0.0
O207 O 0.75444 0.71074 0.71583 0.0
O208 O 0.70194 0.64275 0.69853 0.0
O209 O 0.69281 0.66358 0.68837 0.0
O210 O 0.34529 0.2926 0.63421 0.0
Cd211 Cd 0.33752 0.30109 0.66845 0.0
Cd212 Cd 0.37833 0.31979 0.67442 0.0
O213 O 0.37681 0.30807 0.63811 0.0
O214 O 0.30989 0.2928 0.66182 0.0
O215 O 0.33174 0.32289 0.66974 0.0
C216 C 0.31418 0.31038 0.66444 0.0
C217 C 0.40237 0.35162 0.68271 0.0
C218 C 0.36172 0.2967 0.62557 0.0
C219 C 0.35326 0.28875 0.7133 0.0
O220 O 0.36997 0.30037 0.70477 0.0
O221 O 0.33844 0.2876 0.70266 0.0
O222 O 0.40639 0.33817 0.67958 0.0
O223 O 0.38461 0.3471 0.68098 0.0
O224 O 0.74821 0.06455 0.63975 0.0
Cd225 Cd 0.73859 0.04724 0.67253 0.0
Cd226 Cd 0.71883 0.06887 0.68008 0.0
O227 O 0.73333 0.08106 0.64557 0.0
O228 O 0.74794 0.02854 0.6681 0.0
O229 O 0.71725 0.01972 0.66871 0.0
C230 C 0.73035 0.01505 0.66649 0.0
C231 C 0.68686 0.06185 0.68424 0.0
C232 C 0.74469 0.07756 0.63253 0.0
C233 C 0.74733 0.07199 0.72135 0.0
O234 O 0.73525 0.07677 0.7138 0.0
O235 O 0.75026 0.06036 0.70801 0.0
O236 O 0.70089 0.07923 0.6838 0.0
O237 O 0.69087 0.04827 0.68207 0.0
O238 O 0.95535 0.65518 0.70446 0.0
Cd239 Cd 0.96892 0.65096 0.67326 0.0
Cd240 Cd 0.98887 0.69122 0.67379 0.0
O241 O 0.97422 0.68643 0.70904 0.0
O242 O 0.96039 0.62304 0.67428 0.0
O243 O 0.99055 0.64568 0.6796 0.0
C244 C 0.97789 0.62767 0.67884 0.0
C245 C 1.0214 0.71493 0.67089 0.0
C246 C 0.96007 0.67066 0.71666 0.0
C247 C 0.96225 0.67043 0.62817 0.0
O248 O 0.97272 0.68625 0.63993 0.0
O249 O 0.96009 0.65484 0.63734 0.0
O250 O 1.0082 0.71933 0.67393 0.0
O251 O 1.01625 0.69697 0.67011 0.0
H252 H 0.24702 0.35077 0.11842 0.0
H253 H 0.2026 0.35359 0.07645 0.0
H254 H 0.20123 0.34952 0.16143 0.0
H255 H 0.17133 0.338 0.15845 0.0
H256 H 0.13403 0.35568 0.12591 0.0
H257 H 0.18283 0.36466 0.08157 0.0
C258 C 0.23342 0.35046 0.11854 0.0
C259 C 0.22422 0.34871 0.14233 0.0
C260 C 0.22578 0.35226 0.09487 0.0
C261 C 0.20848 0.35265 0.09503 0.0
C262 C 0.19889 0.35137 0.11904 0.0
C263 C 0.20743 0.34985 0.14258 0.0
C264 C 0.18023 0.35167 0.12003 0.0
C265 C 0.16827 0.34488 0.14257 0.0
C266 C 0.15186 0.34663 0.14504 0.0
C267 C 0.14663 0.3542 0.12418 0.0
C268 C 0.15747 0.36025 0.10119 0.0
C269 C 0.17431 0.35914 0.09912 0.0
H270 H 0.68673 0.90233 0.11999 0.0
H271 H 0.67082 0.84953 0.08079 0.0
H272 H 0.70391 0.86469 0.15285 0.0
H273 H 0.68991 0.8347 0.15975 0.0
H274 H 0.68116 0.78413 0.121 0.0
H275 H 0.68031 0.82829 0.07566 0.0
C276 C 0.68726 0.88917 0.11889 0.0
C277 C 0.6959 0.88458 0.1391 0.0
C278 C 0.67859 0.8768 0.0977 0.0
C279 C 0.6784 0.85925 0.09672 0.0
C280 C 0.68708 0.85408 0.11691 0.0
C281 C 0.69632 0.86741 0.13758 0.0
C282 C 0.68572 0.83465 0.11749 0.0
C283 C 0.68774 0.82703 0.14158 0.0
C284 C 0.68691 0.80924 0.14278 0.0
C285 C 0.68266 0.79826 0.12004 0.0
C286 C 0.6798 0.80481 0.09609 0.0
C287 C 0.68191 0.82322 0.09456 0.0
H288 H 0.25811 0.90386 0.1297 0.0
H289 H 0.21417 0.86131 0.08089 0.0
H290 H 0.20818 0.85812 0.16538 0.0
H291 H 0.17762 0.84807 0.15553 0.0
H292 H 0.13827 0.79413 0.12104 0.0
H293 H 0.1935 0.82833 0.08593 0.0
C294 C 0.24443 0.89076 0.12798 0.0
C295 C 0.23391 0.88193 0.15055 0.0
C296 C 0.23788 0.88301 0.10304 0.0
C297 C 0.21945 0.86685 0.1003 0.0
C298 C 0.20808 0.8579 0.12277 0.0
C299 C 0.21589 0.86538 0.1478 0.0
C300 C 0.18826 0.84069 0.12078 0.0
C301 C 0.17445 0.83757 0.14027 0.0
C302 C 0.1565 0.82077 0.14064 0.0
C303 C 0.15194 0.80736 0.12062 0.0
C304 C 0.16503 0.81002 0.10083 0.0
C305 C 0.1832 0.82674 0.10075 0.0
H306 H 0.36301 0.12948 0.90067 0.0
H307 H 0.35984 0.17384 0.9426 0.0
H308 H 0.36907 0.17786 0.85849 0.0
H309 H 0.3533 0.19316 0.8591 0.0
H310 H 0.36143 0.24407 0.89669 0.0
H311 H 0.37434 0.20619 0.93902 0.0
C312 C 0.36345 0.14314 0.90057 0.0
C313 C 0.36591 0.15268 0.87687 0.0
C314 C 0.3616 0.15078 0.92427 0.0
C315 C 0.36178 0.16834 0.92421 0.0
C316 C 0.36385 0.17827 0.90035 0.0
C317 C 0.36637 0.17031 0.87689 0.0
C318 C 0.36319 0.19665 0.89955 0.0
C319 C 0.35753 0.20218 0.87629 0.0
C320 C 0.35777 0.21971 0.87468 0.0
C321 C 0.36208 0.23096 0.89721 0.0
C322 C 0.36836 0.22638 0.92011 0.0
C323 C 0.36887 0.20923 0.92142 0.0
H324 H 0.79106 0.1259 0.89843 0.0
H325 H 0.82614 0.17735 0.9417 0.0
H326 H 0.84626 0.1661 0.86855 0.0
H327 H 0.85922 0.19697 0.86347 0.0
H328 H 0.9038 0.24366 0.90593 0.0
H329 H 0.85797 0.19796 0.94841 0.0
C330 C 0.80456 0.13917 0.90058 0.0
C331 C 0.81827 0.14489 0.88079 0.0
C332 C 0.8074 0.15055 0.92265 0.0
C333 C 0.82448 0.16832 0.92506 0.0
C334 C 0.83876 0.17462 0.90524 0.0
C335 C 0.83551 0.16228 0.88359 0.0
C336 C 0.85656 0.19419 0.90594 0.0
C337 C 0.86561 0.20332 0.88211 0.0
C338 C 0.8827 0.22104 0.88187 0.0
C339 C 0.89043 0.23013 0.9057 0.0
C340 C 0.88121 0.22235 0.92948 0.0
C341 C 0.86457 0.20412 0.92978 0.0
H342 H 0.79944 0.6813 0.9026 0.0
H343 H 0.83635 0.66499 0.94115 0.0
H344 H 0.8518 0.69298 0.86546 0.0
H345 H 0.86116 0.67082 0.86002 0.0
H346 H 0.91005 0.67278 0.89577 0.0
H347 H 0.87066 0.68053 0.94359 0.0
C348 C 0.81279 0.6811 0.90297 0.0
C349 C 0.82519 0.68817 0.88153 0.0
C350 C 0.81675 0.67292 0.92448 0.0
C351 C 0.83368 0.67188 0.92481 0.0
C352 C 0.84647 0.67877 0.90327 0.0
C353 C 0.8421 0.68718 0.88194 0.0
C354 C 0.8638 0.67639 0.90194 0.0
C355 C 0.86966 0.67284 0.8774 0.0
C356 C 0.88627 0.67147 0.87506 0.0
C357 C 0.89701 0.67349 0.8975 0.0
C358 C 0.89151 0.67657 0.92218 0.0
C359 C 0.87474 0.67784 0.92453 0.0
H360 H 0.9155 0.69133 0.45659 0.0
H361 H 0.87491 0.70311 0.41944 0.0
H362 H 0.8605 0.67052 0.49169 0.0
H363 H 0.84467 0.68563 0.49982 0.0
H364 H 0.79691 0.68427 0.46175 0.0
H365 H 0.84224 0.68667 0.41499 0.0
C366 C 0.90131 0.68969 0.45617 0.0
C367 C 0.88861 0.68022 0.47668 0.0
C368 C 0.89641 0.69767 0.43539 0.0
C369 C 0.87829 0.6963 0.43516 0.0
C370 C 0.8651 0.6869 0.45588 0.0
C371 C 0.87043 0.67851 0.47615 0.0
C372 C 0.8461 0.68623 0.45717 0.0
C373 C 0.83745 0.68527 0.4818 0.0
C374 C 0.81935 0.68372 0.48351 0.0
C375 C 0.81033 0.68426 0.46046 0.0
C376 C 0.81836 0.68523 0.43578 0.0
C377 C 0.83629 0.68628 0.43414 0.0
H378 H 0.34589 0.23159 0.4533 0.0
H379 H 0.33052 0.17841 0.41514 0.0
H380 H 0.35904 0.19202 0.49054 0.0
H381 H 0.33693 0.16029 0.49619 0.0
H382 H 0.33982 0.1137 0.46091 0.0
H383 H 0.34757 0.16072 0.41288 0.0
C384 C 0.34609 0.21823 0.45299 0.0
C385 C 0.35352 0.21333 0.47439 0.0
C386 C 0.33794 0.20589 0.43164 0.0
C387 C 0.33738 0.18816 0.43135 0.0
C388 C 0.34469 0.1827 0.45286 0.0
C389 C 0.35301 0.19566 0.47408 0.0
C390 C 0.34273 0.1632 0.45434 0.0
C391 C 0.33913 0.15385 0.47888 0.0
C392 C 0.33801 0.13601 0.48133 0.0
C393 C 0.34035 0.12736 0.45904 0.0
C394 C 0.34374 0.13602 0.43439 0.0
C395 C 0.3447 0.1539 0.4319 0.0
H396 H 0.92237 0.23296 0.45173 0.0
H397 H 0.87272 0.19316 0.40864 0.0
H398 H 0.87437 0.18952 0.49334 0.0
H399 H 0.84386 0.17678 0.49051 0.0
H400 H 0.8005 0.12532 0.45514 0.0
H401 H 0.85143 0.16142 0.41164 0.0
C402 C 0.9079 0.22082 0.45172 0.0
C403 C 0.89893 0.21276 0.47547 0.0
C404 C 0.89852 0.21406 0.42779 0.0
C405 C 0.87998 0.19791 0.42727 0.0
C406 C 0.8708 0.18856 0.45096 0.0
C407 C 0.88075 0.19619 0.4749 0.0
C408 C 0.85078 0.17139 0.45121 0.0
C409 C 0.83916 0.16717 0.4739 0.0
C410 C 0.82117 0.15051 0.47558 0.0
C411 C 0.81413 0.13853 0.45376 0.0
C412 C 0.82451 0.14277 0.43037 0.0
C413 C 0.84311 0.15887 0.42934 0.0
H414 H 0.04072 0.46971 0.23278 0.0
H415 H 0.03628 0.51306 0.27519 0.0
H416 H 0.03582 0.5124 0.18999 0.0
H417 H 1.01876 0.52567 0.19266 0.0
H418 H 0.02531 0.57683 0.22696 0.0
H419 H 0.04234 0.54282 0.27105 0.0
C420 C 0.03947 0.4825 0.23254 0.0
C421 C 0.03785 0.48995 0.2087 0.0
C422 C 0.03976 0.49123 0.25628 0.0
C423 C 0.03681 0.50705 0.25649 0.0
C424 C 0.03469 0.51486 0.23255 0.0
C425 C 0.03592 0.50631 0.20877 0.0
C426 C 0.03141 0.53182 0.23184 0.0
C427 C 0.02358 0.53545 0.20906 0.0
C428 C 1.02169 0.55178 0.20694 0.0
C429 C 0.02632 0.56394 0.22851 0.0
C430 C 0.03301 0.56038 0.25186 0.0
C431 C 0.03617 0.54471 0.25331 0.0
H432 H 0.46256 0.45819 0.22994 0.0
H433 H 0.4992 0.50891 0.27329 0.0
H434 H 0.51284 0.502 0.19306 0.0
H435 H 0.52649 0.53234 0.19042 0.0
H436 H 0.57079 0.57997 0.23148 0.0
H437 H 0.52892 0.53238 0.27553 0.0
C438 C 0.47572 0.47189 0.23103 0.0
C439 C 0.48709 0.47917 0.20873 0.0
C440 C 0.48049 0.48211 0.25459 0.0
C441 C 0.49641 0.50082 0.25535 0.0
C442 C 0.5084 0.50876 0.23301 0.0
C443 C 0.50369 0.49723 0.21011 0.0
C444 C 0.52552 0.5289 0.23299 0.0
C445 C 0.53327 0.53857 0.2089 0.0
C446 C 0.54969 0.55682 0.20817 0.0
C447 C 0.55796 0.56597 0.23173 0.0
C448 C 0.55003 0.55759 0.25582 0.0
C449 C 0.53424 0.53885 0.2566 0.0
H450 H 0.46029 1.00269 0.23283 0.0
H451 H 0.50132 0.99187 0.2706 0.0
H452 H 0.51 1.01223 0.19038 0.0
H453 H 0.5243 0.9953 0.18732 0.0
H454 H 0.57565 1.00303 0.22268 0.0
H455 H 0.5342 1.00724 0.27053 0.0
C456 C 0.47363 1.00249 0.23195 0.0
C457 C 0.48397 1.00717 0.20855 0.0
C458 C 0.47966 0.99683 0.25413 0.0
C459 C 0.49713 0.99687 0.25356 0.0
C460 C 0.50851 1.00248 0.23055 0.0
C461 C 0.50174 1.00786 0.20827 0.0
C462 C 0.52692 1.00193 0.22902 0.0
C463 C 0.53317 0.99865 0.2046 0.0
C464 C 0.55076 0.99919 0.20217 0.0
C465 C 0.56199 1.0025 0.22447 0.0
C466 C 0.55604 1.00507 0.24913 0.0
C467 C 0.53847 1.00478 0.25147 0.0
H468 H 0.58092 0.02548 0.78217 0.0
H469 H 0.54374 0.04116 0.74301 0.0
H470 H 0.52664 1.01017 0.81644 0.0
H471 H 0.51651 0.03227 0.82238 0.0
H472 H 0.46681 0.02733 0.78482 0.0
H473 H 0.50875 0.02252 0.73869 0.0
C474 C 0.56726 0.02504 0.78125 0.0
C475 C 0.55416 0.01665 0.8017 0.0
C476 C 0.56366 0.03376 0.7601 0.0
C477 C 0.54629 0.03396 0.75908 0.0
C478 C 0.53279 0.02574 0.7797 0.0
C479 C 0.53688 0.01689 0.80072 0.0
C480 C 0.51485 0.02701 0.78044 0.0
C481 C 0.50817 0.02993 0.80473 0.0
C482 C 0.49091 0.03016 0.80643 0.0
C483 C 0.48032 0.02749 0.78361 0.0
C484 C 0.48656 0.02481 0.7592 0.0
C485 C 0.50403 0.02484 0.75751 0.0
H486 H 1.01624 0.56435 0.79293 0.0
H487 H 0.9972 0.51024 0.7556 0.0
H488 H 0.0278 0.52348 0.82949 0.0
H489 H 1.00727 0.49249 0.8363 0.0
H490 H 1.0014 0.44249 0.79862 0.0
H491 H 1.00899 0.4897 0.75151 0.0
C492 C 1.01563 0.55061 0.79263 0.0
C493 C 0.02307 0.54536 0.81368 0.0
C494 C 1.00654 0.53816 0.77167 0.0
C495 C 1.00494 0.51999 0.77147 0.0
C496 C 1.0123 0.51415 0.7925 0.0
C497 C 1.02164 0.52725 0.81334 0.0
C498 C 1.00924 0.49415 0.79374 0.0
C499 C 1.00718 0.48525 0.81839 0.0
C500 C 1.00429 0.46664 0.82025 0.0
C501 C 1.00314 0.4567 0.79731 0.0
C502 C 1.00411 0.46456 0.77259 0.0
C503 C 1.00767 0.48351 0.77073 0.0
H504 H 0.58966 0.56653 0.7929 0.0
H505 H 0.54114 0.52749 0.74673 0.0
H506 H 0.5428 0.51843 0.83014 0.0
H507 H 0.5113 0.51056 0.82512 0.0
H508 H 0.46946 0.45734 0.79106 0.0
H509 H 0.52246 0.49223 0.75063 0.0
C510 C 0.57578 0.55359 0.7916 0.0
C511 C 0.56732 0.5431 0.81428 0.0
C512 C 0.5666 0.54815 0.76729 0.0
C513 C 0.54839 0.53154 0.76548 0.0
C514 C 0.53929 0.52078 0.78832 0.0
C515 C 0.54916 0.52668 0.81253 0.0
C516 C 0.5194 0.50376 0.78772 0.0
C517 C 0.50694 0.50033 0.80919 0.0
C518 C 0.48892 0.48365 0.81055 0.0
C519 C 0.48311 0.47055 0.78989 0.0
C520 C 0.49497 0.4735 0.76829 0.0
C521 C 0.51307 0.49025 0.76698 0.0
H522 H 0.69227 0.79478 0.56724 0.0
H523 H 0.69291 0.84153 0.60815 0.0
H524 H 0.68918 0.83803 0.52326 0.0
H525 H 0.67399 0.85355 0.52756 0.0
H526 H 0.69116 0.90945 0.55661 0.0
H527 H 0.70584 0.87333 0.6004 0.0
C528 C 0.69145 0.8078 0.5668 0.0
C529 C 0.68945 0.81481 0.54277 0.0
C530 C 0.69264 0.81723 0.59032 0.0
C531 C 0.69238 0.83458 0.58978 0.0
C532 C 0.69085 0.84242 0.56556 0.0
C533 C 0.68982 0.83239 0.54217 0.0
C534 C 0.6901 0.86077 0.5642 0.0
C535 C 0.68137 0.86433 0.54244 0.0
C536 C 0.68198 0.88192 0.53939 0.0
C537 C 0.69048 0.89576 0.55895 0.0
C538 C 0.69884 0.89269 0.58104 0.0
C539 C 0.69867 0.87521 0.58372 0.0
H540 H 0.12192 0.79182 0.56029 0.0
H541 H 0.16253 0.83585 0.61079 0.0
H542 H 0.17359 0.83637 0.52737 0.0
H543 H 0.20312 0.85237 0.53754 0.0
H544 H 0.23781 0.90625 0.57501 0.0
H545 H 0.18367 0.86687 0.60883 0.0
C546 C 0.13568 0.80473 0.56291 0.0
C547 C 0.14775 0.8127 0.54138 0.0
C548 C 0.14062 0.81328 0.58766 0.0
C549 C 0.15865 0.82985 0.59131 0.0
C550 C 0.17121 0.83861 0.5697 0.0
C551 C 0.16509 0.82991 0.54467 0.0
C552 C 0.19032 0.85692 0.57258 0.0
C553 C 0.20477 0.86207 0.55322 0.0
C554 C 0.2217 0.87994 0.55363 0.0
C555 C 0.2249 0.89231 0.57457 0.0
C556 C 0.21153 0.88745 0.5947 0.0
C557 C 0.19417 0.86988 0.59368 0.0
H558 H 0.12775 0.34273 0.56816 0.0
H559 H 0.16689 0.32988 0.60746 0.0
H560 H 0.18237 0.36076 0.53367 0.0
H561 H 0.19801 0.34592 0.52696 0.0
H562 H 0.24397 0.34426 0.56563 0.0
H563 H 0.19903 0.34307 0.61189 0.0
C564 C 0.14169 0.34379 0.56896 0.0
C565 C 0.15447 0.3523 0.54822 0.0
C566 C 0.1462 0.33605 0.59046 0.0
C567 C 0.16395 0.33662 0.5912 0.0
C568 C 0.17728 0.34505 0.57037 0.0
C569 C 0.17237 0.35335 0.54937 0.0
C570 C 0.19585 0.34468 0.5696 0.0
C571 C 0.2047 0.34563 0.54515 0.0
C572 C 0.22242 0.34636 0.54372 0.0
C573 C 0.23079 0.34477 0.56675 0.0
C574 C 0.22256 0.34362 0.59126 0.0
C575 C 0.20505 0.34355 0.59278 0.0
C576 C 0.03965 0.43434 0.07828 0.0
C577 C 0.02651 0.41478 0.08181 0.0
C578 C 0.04194 0.4479 0.0973 0.0
C579 C 0.03114 0.44175 0.1207 0.0
C580 C 1.01798 0.42201 0.12452 0.0
C581 C 1.01566 0.40877 0.10489 0.0
C582 C 0.05584 0.46884 0.09226 0.0
C583 C 1.00649 0.41485 0.14947 0.0
C584 C 0.05028 0.47261 0.18158 0.0
C585 C 0.0379 0.48006 0.18406 0.0
C586 C 0.0484 0.46038 0.16087 0.0
C587 C 0.03413 0.45585 0.14165 0.0
C588 C 0.0224 0.4643 0.14303 0.0
C589 C 0.02433 0.47622 0.16435 0.0
C590 C 0.06116 0.45164 0.16022 0.0
C591 C 1.00733 0.46017 0.12254 0.0
H592 H 0.0479 0.43914 0.06033 0.0
H593 H 1.00548 0.3937 0.10771 0.0
H594 H 0.04835 0.47719 0.09383 0.0
H595 H 0.06731 0.4745 0.1073 0.0
H596 H 0.0626 0.47135 0.07261 0.0
H597 H 0.99692 0.39906 0.14945 0.0
H598 H 1.01629 0.41887 0.16653 0.0
H599 H 0.99764 0.4217 0.15226 0.0
H600 H 0.06111 0.47587 0.19641 0.0
H601 H 1.01468 0.48185 0.16615 0.0
H602 H 0.06886 0.45476 0.14125 0.0
H603 H 0.0523 0.43584 0.16194 0.0
H604 H 0.07188 0.45702 0.1763 0.0
H605 H 1.01366 0.46258 0.10264 0.0
H606 H 1.00066 0.46924 0.12505 0.0
H607 H 0.99593 0.44493 0.12371 0.0
C608 C 0.62762 0.61393 0.10013 0.0
C609 C 0.6212 0.61883 0.07752 0.0
C610 C 0.61487 0.60347 0.12043 0.0
C611 C 0.59515 0.59742 0.11779 0.0
C612 C 0.58856 0.60221 0.09492 0.0
C613 C 0.60169 0.61303 0.07521 0.0
C614 C 0.62252 0.599 0.14478 0.0
C615 C 0.56762 0.59573 0.09116 0.0
C616 C 0.56163 0.55661 0.16268 0.0
C617 C 0.55879 0.5666 0.18308 0.0
C618 C 0.57282 0.56637 0.14073 0.0
C619 C 0.58157 0.58658 0.13936 0.0
C620 C 0.578 0.59659 0.1593 0.0
C621 C 0.56647 0.58646 0.18067 0.0
C622 C 0.57591 0.55514 0.11952 0.0
C623 C 0.58711 0.61813 0.15871 0.0
H624 H 0.64267 0.61836 0.10205 0.0
H625 H 0.59655 0.61655 0.05764 0.0
H626 H 0.61916 0.60498 0.16226 0.0
H627 H 0.61548 0.58328 0.14752 0.0
H628 H 0.63826 0.60493 0.14392 0.0
H629 H 0.56473 0.60021 0.07192 0.0
H630 H 0.55897 0.5799 0.0926 0.0
H631 H 0.56265 0.60171 0.10689 0.0
H632 H 0.55582 0.5413 0.16439 0.0
H633 H 0.56396 0.59424 0.19604 0.0
H634 H 0.59107 0.5586 0.11968 0.0
H635 H 0.57305 0.55917 0.09997 0.0
H636 H 0.5666 0.53944 0.12213 0.0
H637 H 0.60292 0.62479 0.15965 0.0
H638 H 0.58234 0.62368 0.17528 0.0
H639 H 0.58363 0.62278 0.14008 0.0
C640 C 0.42988 0.03194 0.09705 0.0
C641 C 0.42552 0.01991 0.07521 0.0
C642 C 0.44057 0.03088 0.11808 0.0
C643 C 0.44752 0.01786 0.11687 0.0
C644 C 0.44371 1.00616 0.09443 0.0
C645 C 0.43254 1.00713 0.07406 0.0
C646 C 0.44388 0.04322 0.14196 0.0
C647 C 0.45119 0.9924 0.09209 0.0
C648 C 0.48607 0.02388 0.16562 0.0
C649 C 0.47516 1.00988 0.18435 0.0
C650 C 0.47736 0.02655 0.14334 0.0
C651 C 0.45726 0.01521 0.13998 0.0
C652 C 0.44625 1.00099 0.15867 0.0
C653 C 0.45534 0.99828 0.18023 0.0
C654 C 0.48963 0.04153 0.12343 0.0
C655 C 0.42476 0.98866 0.15605 0.0
H656 H 0.4245 0.04184 0.098 0.0
H657 H 0.42949 0.99802 0.05702 0.0
H658 H 0.43676 0.03398 0.15919 0.0
H659 H 0.45939 0.05173 0.14643 0.0
H660 H 0.43823 0.05317 0.1394 0.0
H661 H 0.44855 0.98569 0.07238 0.0
H662 H 0.46681 0.99992 0.09608 0.0
H663 H 0.44417 0.98088 0.1069 0.0
H664 H 0.50135 0.03294 0.16854 0.0
H665 H 0.44679 0.98696 0.194 0.0
H666 H 0.48538 0.05263 0.12226 0.0
H667 H 0.48737 0.03491 0.10373 0.0
H668 H 0.50511 0.0486 0.1283 0.0
H669 H 0.41817 0.99784 0.15444 0.0
H670 H 0.41819 0.97884 0.17294 0.0
H671 H 0.42116 0.97996 0.1379 0.0
C672 C 0.41904 1.01358 0.92183 0.0
C673 C 0.42613 0.02711 0.94214 0.0
C674 C 0.43072 0.0149 0.90056 0.0
C675 C 0.45009 0.02985 0.89987 0.0
C676 C 0.45736 0.04343 0.92045 0.0
C677 C 0.44526 0.04202 0.94117 0.0
C678 C 0.42231 1.00037 0.87871 0.0
C679 C 0.47799 0.05936 0.9207 0.0
C680 C 0.48283 0.02195 0.85404 0.0
C681 C 0.48308 0.03233 0.83186 0.0
C682 C 0.47275 0.02159 0.87676 0.0
C683 C 0.46249 0.03163 0.87714 0.0
C684 C 0.46344 0.04281 0.85526 0.0
C685 C 0.47391 0.04323 0.83309 0.0
C686 C 0.47245 1.00986 0.89995 0.0
C687 C 0.45267 0.05367 0.85475 0.0
H688 H 0.40429 1.00203 0.92246 0.0
H689 H 0.45094 0.05239 0.95696 0.0
H690 H 0.42361 1.00775 0.85984 0.0
H691 H 0.43039 0.99264 0.8767 0.0
H692 H 0.40697 0.98972 0.88208 0.0
H693 H 0.4816 0.06839 0.93858 0.0
H694 H 0.48763 0.05327 0.91959 0.0
H695 H 0.48097 0.06864 0.90329 0.0
H696 H 0.48979 1.01343 0.85326 0.0
H697 H 0.47439 0.05163 0.81626 0.0
H698 H 0.45784 0.99739 0.90244 0.0
H699 H 0.47604 0.01849 0.91818 0.0
H700 H 0.48266 1.00451 0.8976 0.0
H701 H 0.43707 0.04346 0.85626 0.0
H702 H 0.4554 0.06219 0.83655 0.0
H703 H 0.45676 0.06347 0.87181 0.0
C704 C 0.99594 0.41084 0.95516 0.0
C705 C 1.00866 0.40381 0.9527 0.0
C706 C 0.9943 0.42197 0.93532 0.0
C707 C 1.00533 0.4258 0.91223 0.0
C708 C 1.01793 0.41844 0.90941 0.0
C709 C 1.01959 0.4077 0.92981 0.0
C710 C 0.98099 0.42986 0.93921 0.0
C711 C 0.02962 0.42186 0.88482 0.0
C712 C 0.98912 0.43765 0.84892 0.0
C713 C 1.0026 0.45717 0.84587 0.0
C714 C 0.98948 0.42741 0.87082 0.0
C715 C 1.00335 0.437 0.89056 0.0
C716 C 1.01607 0.457 0.8886 0.0
C717 C 1.01563 0.46686 0.86616 0.0
C718 C 0.97571 0.40609 0.87205 0.0
C719 C 0.03077 0.4678 0.9096 0.0
H720 H 0.98764 0.40811 0.97297 0.0
H721 H 0.02943 0.40231 0.92781 0.0
H722 H 0.98914 0.44571 0.93767 0.0
H723 H 0.96995 0.42449 0.9236 0.0
H724 H 0.97369 0.42588 0.95854 0.0
H725 H 0.03852 0.4149 0.88556 0.0
H726 H 1.02 0.41627 0.86755 0.0
H727 H 0.03919 0.43745 0.88178 0.0
H728 H 0.9787 0.43018 0.83357 0.0
H729 H 0.02608 0.48192 0.86393 0.0
H730 H 0.96791 0.4022 0.89097 0.0
H731 H 0.98382 0.39834 0.87089 0.0
H732 H 0.96509 0.40102 0.85586 0.0
H733 H 0.02397 0.46429 0.92924 0.0
H734 H 0.03799 0.48354 0.90671 0.0
H735 H 0.0418 0.46343 0.90941 0.0
C736 C 0.62483 0.61695 0.92497 0.0
C737 C 0.63024 0.61032 0.9469 0.0
C738 C 0.61433 0.60449 0.90443 0.0
C739 C 0.60883 0.58485 0.90606 0.0
C740 C 0.61422 0.57807 0.92816 0.0
C741 C 0.62499 0.5909 0.94819 0.0
C742 C 0.60914 0.61234 0.88096 0.0
C743 C 0.60839 0.5572 0.93078 0.0
C744 C 0.56751 0.55217 0.86139 0.0
C745 C 0.5773 0.5505 0.83976 0.0
C746 C 0.57752 0.56254 0.88375 0.0
C747 C 0.59777 0.57158 0.88431 0.0
C748 C 0.60759 0.56897 0.86318 0.0
C749 C 0.59722 0.5583 0.84131 0.0
C750 C 0.56651 0.56468 0.90616 0.0
C751 C 0.62916 0.57837 0.86294 0.0
H752 H 0.62884 0.63191 0.92382 0.0
H753 H 0.62893 0.5856 0.9652 0.0
H754 H 0.61494 0.60951 0.86285 0.0
H755 H 0.59335 0.605 0.87879 0.0
H756 H 0.61473 0.62799 0.88252 0.0
H757 H 0.61354 0.55417 0.94935 0.0
H758 H 0.59256 0.54822 0.93003 0.0
H759 H 0.61418 0.55278 0.91414 0.0
H760 H 0.55215 0.54627 0.86029 0.0
H761 H 0.60483 0.55675 0.82483 0.0
H762 H 0.56945 0.57965 0.90697 0.0
H763 H 0.5712 0.56164 0.92509 0.0
H764 H 0.55081 0.55499 0.90409 0.0
H765 H 0.63555 0.59416 0.86228 0.0
H766 H 0.63449 0.57386 0.84584 0.0
H767 H 0.63432 0.57492 0.88113 0.0
C768 C 1.0204 0.61249 0.92024 0.0
C769 C 0.03515 0.62102 0.93881 0.0
C770 C 1.02088 0.60073 0.90029 0.0
C771 C 0.03636 0.59714 0.89902 0.0
C772 C 0.0515 0.606 0.91736 0.0
C773 C 0.05078 0.61794 0.93691 0.0
C774 C 1.00461 0.59186 0.88082 0.0
C775 C 0.06815 0.6024 0.91683 0.0
C776 C 0.02366 0.55132 0.86205 0.0
C777 C 0.03037 0.55837 0.83683 0.0
C778 C 0.02662 0.56386 0.883 0.0
C779 C 0.0364 0.5839 0.87857 0.0
C780 C 0.04447 0.59109 0.85364 0.0
C781 C 0.0415 0.57825 0.83317 0.0
C782 C 1.01812 0.55561 0.90942 0.0
C783 C 0.05501 0.61231 0.84799 0.0
H784 H 1.00829 0.61482 0.92148 0.0
H785 H 0.06217 0.62432 0.95131 0.0
H786 H 1.01027 0.59557 0.86055 0.0
H787 H 0.99708 0.57604 0.88251 0.0
H788 H 0.99404 0.59669 0.88384 0.0
H789 H 0.07921 0.61107 0.93167 0.0
H790 H 0.06293 0.58703 0.92064 0.0
H791 H 0.07492 0.60572 0.89717 0.0
H792 H 1.01498 0.536 0.86505 0.0
H793 H 0.047 0.5838 0.81381 0.0
H794 H 1.00561 0.55752 0.91308 0.0
H795 H 0.02869 0.56325 0.92522 0.0
H796 H 1.01329 0.54009 0.91067 0.0
H797 H 0.04469 0.61761 0.84803 0.0
H798 H 0.06233 0.61568 0.82867 0.0
H799 H 0.06579 0.62027 0.86342 0.0
C800 C 0.42079 0.44142 0.9384 0.0
C801 C 0.41822 0.42293 0.94071 0.0
C802 C 0.432 0.45377 0.91813 0.0
C803 C 0.44058 0.44736 0.89951 0.0
C804 C 0.43755 0.42851 0.90133 0.0
C805 C 0.42655 0.41661 0.92198 0.0
C806 C 0.43507 0.47381 0.91701 0.0
C807 C 0.44614 0.42096 0.88162 0.0
C808 C 0.45669 0.46927 0.83208 0.0
C809 C 0.47671 0.47842 0.83446 0.0
C810 C 0.44469 0.46003 0.85351 0.0
C811 C 0.45287 0.4602 0.8781 0.0
C812 C 0.47303 0.47088 0.8812 0.0
C813 C 0.48473 0.4798 0.85931 0.0
C814 C 0.4233 0.44884 0.84928 0.0
C815 C 0.48233 0.47173 0.9072 0.0
H816 H 0.41455 0.44649 0.95292 0.0
H817 H 0.42457 0.40233 0.92354 0.0
H818 H 0.45051 0.48435 0.9196 0.0
H819 H 0.43081 0.47653 0.89755 0.0
H820 H 0.42684 0.47638 0.93236 0.0
H821 H 0.44188 0.40577 0.88528 0.0
H822 H 0.4416 0.42215 0.86152 0.0
H823 H 0.46199 0.4297 0.88228 0.0
H824 H 0.45039 0.46845 0.81302 0.0
H825 H 0.50015 0.48676 0.86135 0.0
H826 H 0.41575 0.45192 0.86504 0.0
H827 H 0.4183 0.43329 0.85001 0.0
H828 H 0.41911 0.45208 0.83007 0.0
H829 H 0.475 0.47483 0.92327 0.0
H830 H 0.49776 0.4828 0.90737 0.0
H831 H 0.48102 0.45763 0.91135 0.0
C832 C 0.62059 0.01947 0.91409 0.0
C833 C 0.61456 1.00324 0.92982 0.0
C834 C 0.60908 0.01958 0.89353 0.0
C835 C 0.59086 1.00324 0.8891 0.0
C836 C 0.58467 0.98682 0.90498 0.0
C837 C 0.59671 0.98692 0.92493 0.0
C838 C 0.61642 0.03721 0.87658 0.0
C839 C 0.56516 0.96933 0.90131 0.0
C840 C 0.55743 1.01442 0.85033 0.0
C841 C 0.55985 1.0094 0.82487 0.0
C842 C 0.56648 1.01135 0.8718 0.0
C843 C 0.57847 1.00342 0.8676 0.0
C844 C 0.57988 0.99714 0.84224 0.0
C845 C 0.5703 0.99992 0.8213 0.0
C846 C 0.56414 0.01768 0.89872 0.0
C847 C 0.59262 0.98877 0.8368 0.0
H848 H 0.63437 0.0321 0.91782 0.0
H849 H 0.59185 0.97443 0.93732 0.0
H850 H 0.61632 0.03333 0.85569 0.0
H851 H 0.60686 0.04335 0.87843 0.0
H852 H 0.63119 0.04841 0.88196 0.0
H853 H 0.56252 0.9577 0.91527 0.0
H854 H 0.5539 0.97324 0.90408 0.0
H855 H 0.56366 0.96374 0.88106 0.0
H856 H 0.54944 0.02178 0.85332 0.0
H857 H 0.57186 0.99559 0.80176 0.0
H858 H 0.57759 0.03076 0.90448 0.0
H859 H 0.56132 1.00646 0.91344 0.0
H860 H 0.55229 0.02093 0.89938 0.0
H861 H 0.60781 0.99998 0.83973 0.0
H862 H 0.59093 0.98319 0.81649 0.0
H863 H 0.58949 0.97699 0.85067 0.0
C864 C 0.59388 0.98681 0.06589 0.0
C865 C 0.61282 1.00197 0.06397 0.0
C866 C 0.58211 0.98566 0.08687 0.0
C867 C 0.58961 0.99975 0.10678 0.0
C868 C 0.60874 0.01509 0.10498 0.0
C869 C 0.62005 0.01615 0.0834 0.0
C870 C 0.56168 0.96933 0.08778 0.0
C871 C 0.61736 0.03018 0.12612 0.0
C872 C 0.55733 1.00689 0.15427 0.0
C873 C 0.55815 0.99704 0.17641 0.0
C874 C 0.56692 1.00732 0.13105 0.0
C875 C 0.5778 0.99794 0.13016 0.0
C876 C 0.57795 0.98729 0.15205 0.0
C877 C 0.56791 0.98675 0.17473 0.0
C878 C 0.56603 0.01842 0.10783 0.0
C879 C 0.58943 0.97714 0.15197 0.0
H880 H 0.5881 0.97595 0.05071 0.0
H881 H 0.63468 0.02788 0.08199 0.0
H882 H 0.55959 0.96023 0.10514 0.0
H883 H 0.55172 0.97499 0.08981 0.0
H884 H 0.55771 0.9602 0.06997 0.0
H885 H 0.63238 0.04126 0.12169 0.0
H886 H 0.60874 0.03732 0.12859 0.0
H887 H 0.6171 0.02337 0.14511 0.0
H888 H 0.54989 0.01494 0.15543 0.0
H889 H 0.56823 0.97873 0.19156 0.0
H890 H 0.56222 1.00953 0.08983 0.0
H891 H 0.58031 0.03121 0.10454 0.0
H892 H 0.55543 0.02323 0.11072 0.0
H893 H 0.58503 0.96696 0.13532 0.0
H894 H 0.5877 0.96914 0.17042 0.0
H895 H 0.60484 0.98774 0.14933 0.0
C896 C 1.00328 0.59463 0.07355 0.0
C897 C 1.01908 0.61327 0.0724 0.0
C898 C 1.00124 0.5822 0.09419 0.0
C899 C 1.01512 0.58872 0.11441 0.0
C900 C 0.03079 0.6077 0.11369 0.0
C901 C 0.03269 0.61965 0.09257 0.0
C902 C 0.98454 0.56197 0.09402 0.0
C903 C 0.04569 0.61538 0.13515 0.0
C904 C 1.00512 0.56611 0.18188 0.0
C905 C 1.01645 0.55738 0.18177 0.0
C906 C 1.00371 0.57554 0.15964 0.0
C907 C 1.01348 0.57586 0.13644 0.0
C908 C 0.02346 0.56556 0.13545 0.0
C909 C 0.02494 0.55655 0.15818 0.0
C910 C 0.99297 0.58636 0.16164 0.0
C911 C 0.03369 0.56516 0.1109 0.0
H912 H 0.99282 0.58954 0.05786 0.0
H913 H 0.04489 0.63406 0.09185 0.0
H914 H 0.98989 0.55172 0.0929 0.0
H915 H 0.97627 0.55896 0.11249 0.0
H916 H 0.97472 0.55927 0.07725 0.0
H917 H 0.05659 0.63068 0.13218 0.0
H918 H 0.03872 0.61387 0.15443 0.0
H919 H 0.05312 0.60694 0.13596 0.0
H920 H 0.99812 0.56643 0.19986 0.0
H921 H 0.03375 0.5499 0.15784 0.0
H922 H 0.98324 0.58311 0.14466 0.0
H923 H 1.00333 0.60198 0.16131 0.0
H924 H 0.98442 0.58296 0.17995 0.0
H925 H 0.02433 0.56204 0.09351 0.0
H926 H 0.0383 0.5543 0.11204 0.0
H927 H 0.04657 0.57942 0.10786 0.0
C928 C 0.41721 0.42131 0.0949 0.0
C929 C 0.42383 0.41413 0.07496 0.0
C930 C 0.42905 0.43161 0.11604 0.0
C931 C 0.44813 0.4352 0.11696 0.0
C932 C 0.45488 0.42793 0.09693 0.0
C933 C 0.44258 0.4173 0.07632 0.0
C934 C 0.42117 0.43875 0.13733 0.0
C935 C 0.47523 0.43177 0.09694 0.0
C936 C 0.48079 0.4774 0.16031 0.0
C937 C 0.48048 0.46817 0.18373 0.0
C938 C 0.47123 0.46682 0.13786 0.0
C939 C 0.4609 0.44655 0.139 0.0
C940 C 0.46154 0.43718 0.16205 0.0
C941 C 0.47153 0.44809 0.18398 0.0
C942 C 0.4713 0.47735 0.1134 0.0
C943 C 0.45066 0.41561 0.16417 0.0
H944 H 0.40272 0.41887 0.09398 0.0
H945 H 0.44787 0.41199 0.0608 0.0
H946 H 0.4227 0.43339 0.15668 0.0
H947 H 0.42945 0.45461 0.13811 0.0
H948 H 0.40583 0.43414 0.13421 0.0
H949 H 0.47819 0.42491 0.0801 0.0
H950 H 0.48533 0.44743 0.09614 0.0
H951 H 0.47822 0.42645 0.11535 0.0
H952 H 0.48759 0.49288 0.15991 0.0
H953 H 0.4716 0.44084 0.20182 0.0
H954 H 0.45691 0.47567 0.11048 0.0
H955 H 0.4745 0.47122 0.09594 0.0
H956 H 0.48196 0.49289 0.11453 0.0
H957 H 0.43505 0.41035 0.16343 0.0
H958 H 0.45387 0.41052 0.18266 0.0
H959 H 0.4541 0.40909 0.14741 0.0
C960 C 0.66942 0.74886 0.41438 0.0
C961 C 0.68398 0.74421 0.41269 0.0
C962 C 0.66949 0.7609 0.43434 0.0
C963 C 0.68419 0.76802 0.45344 0.0
C964 C 0.69865 0.76296 0.4522 0.0
C965 C 0.69851 0.75133 0.43163 0.0
C966 C 0.65407 0.7663 0.43469 0.0
C967 C 0.71426 0.76981 0.47262 0.0
C968 C 0.69623 0.81177 0.49524 0.0
C969 C 0.68672 0.80323 0.51868 0.0
C970 C 0.69494 0.8005 0.47341 0.0
C971 C 0.68417 0.78027 0.47528 0.0
C972 C 0.67405 0.77163 0.49856 0.0
C973 C 0.6752 0.7832 0.51975 0.0
C974 C 0.70556 0.81023 0.44864 0.0
C975 C 0.66257 0.75012 0.50151 0.0
H976 H 0.65832 0.74363 0.39953 0.0
H977 H 0.70979 0.74776 0.43037 0.0
H978 H 0.6459 0.76157 0.4533 0.0
H979 H 0.66068 0.7821 0.43374 0.0
H980 H 0.64389 0.75987 0.4181 0.0
H981 H 0.72418 0.76423 0.46917 0.0
H982 H 0.72268 0.78568 0.4727 0.0
H983 H 0.70782 0.76522 0.49238 0.0
H984 H 0.70519 0.8272 0.4942 0.0
H985 H 0.66733 0.77647 0.53752 0.0
H986 H 0.69585 0.80451 0.43148 0.0
H987 H 0.71739 0.8072 0.44541 0.0
H988 H 0.7117 0.826 0.44944 0.0
H989 H 0.65168 0.74376 0.48577 0.0
H990 H 0.65519 0.74567 0.52075 0.0
H991 H 0.67218 0.74403 0.49952 0.0
C992 C 0.28627 0.94906 0.44308 0.0
C993 C 0.29666 0.94324 0.42726 0.0
C994 C 0.27494 0.93757 0.46387 0.0
C995 C 0.27365 0.91966 0.46864 0.0
C996 C 0.28434 0.91384 0.45301 0.0
C997 C 0.29585 0.92578 0.43267 0.0
C998 C 0.26408 0.94448 0.48046 0.0
C999 C 0.28313 0.89474 0.45721 0.0
C1000 C 0.25518 0.89823 0.53585 0.0
C1001 C 0.23542 0.88687 0.53124 0.0
C1002 C 0.26793 0.90846 0.5155 0.0
C1003 C 0.26083 0.90695 0.48974 0.0
C1004 C 0.24116 0.8943 0.48458 0.0
C1005 C 0.22866 0.8845 0.50541 0.0
C1006 C 0.28877 0.92182 0.52189 0.0
C1007 C 0.2331 0.89195 0.45727 0.0
H1008 H 0.28686 0.96253 0.43906 0.0
H1009 H 0.30367 0.92107 0.42038 0.0
H1010 H 0.24846 0.93462 0.47823 0.0
H1011 H 0.26761 0.94444 0.50146 0.0
H1012 H 0.26736 0.95915 0.47504 0.0
H1013 H 0.29289 0.89264 0.44402 0.0
H1014 H 0.28671 0.89341 0.47779 0.0
H1015 H 0.26824 0.88303 0.45364 0.0
H1016 H 0.2606 0.89984 0.55567 0.0
H1017 H 0.21343 0.87587 0.50163 0.0
H1018 H 0.29222 0.93685 0.51905 0.0
H1019 H 0.29809 0.91929 0.50848 0.0
H1020 H 0.2923 0.92016 0.54241 0.0
H1021 H 0.23344 0.90534 0.45127 0.0
H1022 H 0.21808 0.87996 0.45599 0.0
H1023 H 0.24195 0.88933 0.44306 0.0
C1024 C 0.11053 0.37635 0.42055 0.0
C1025 C 0.09276 0.35972 0.41644 0.0
C1026 C 0.12244 0.37765 0.44153 0.0
C1027 C 0.11634 0.36205 0.45902 0.0
C1028 C 0.09817 0.34548 0.45544 0.0
C1029 C 0.08667 0.34448 0.43414 0.0
C1030 C 0.14176 0.39548 0.44455 0.0
C1031 C 0.09096 0.32865 0.47388 0.0
C1032 C 0.15051 0.35287 0.49949 0.0
C1033 C 0.14802 0.3584 0.52459 0.0
C1034 C 0.14115 0.35502 0.47762 0.0
C1035 C 0.12892 0.36277 0.48096 0.0
C1036 C 0.12738 0.36954 0.50592 0.0
C1037 C 0.13705 0.3674 0.52735 0.0
C1038 C 0.14343 0.34789 0.45126 0.0
C1039 C 0.11454 0.37791 0.51038 0.0
H1040 H 0.11544 0.38816 0.40688 0.0
H1041 H 0.07295 0.33161 0.43121 0.0
H1042 H 0.14326 0.40154 0.4645 0.0
H1043 H 0.15323 0.39182 0.44218 0.0
H1044 H 0.14408 0.40665 0.42997 0.0
H1045 H 0.07623 0.31712 0.46895 0.0
H1046 H 0.10063 0.32258 0.4732 0.0
H1047 H 0.09102 0.33339 0.49431 0.0
H1048 H 0.15885 0.3458 0.49715 0.0
H1049 H 0.13533 0.37203 0.54661 0.0
H1050 H 0.14639 0.35874 0.43589 0.0
H1051 H 0.12989 0.33477 0.4459 0.0
H1052 H 0.15516 0.34446 0.45123 0.0
H1053 H 0.11736 0.38906 0.49555 0.0
H1054 H 0.11645 0.38432 0.53021 0.0
H1055 H 0.09936 0.36649 0.50818 0.0
C1056 C 0.09817 0.36077 0.26261 0.0
C1057 C 0.08903 0.34596 0.28094 0.0
C1058 C 0.10814 0.35902 0.24121 0.0
C1059 C 0.10931 0.34216 0.23822 0.0
C1060 C 0.10017 0.32716 0.25668 0.0
C1061 C 0.09002 0.32918 0.27769 0.0
C1062 C 0.11741 0.37522 0.22173 0.0
C1063 C 0.1013 0.30909 0.25438 0.0
C1064 C 0.12064 0.33333 0.16915 0.0
C1065 C 0.14069 0.34199 0.16991 0.0
C1066 C 0.11014 0.33253 0.19152 0.0
C1067 C 0.11985 0.34025 0.21544 0.0
C1068 C 0.13989 0.34765 0.21684 0.0
C1069 C 0.15009 0.34852 0.19403 0.0
C1070 C 0.08881 0.32452 0.1891 0.0
C1071 C 0.15074 0.35569 0.24209 0.0
H1072 H 0.09744 0.37376 0.26489 0.0
H1073 H 0.08315 0.31772 0.29188 0.0
H1074 H 0.13307 0.38077 0.22103 0.0
H1075 H 0.11167 0.36994 0.20181 0.0
H1076 H 0.11496 0.38725 0.22664 0.0
H1077 H 0.09355 0.29883 0.27048 0.0
H1078 H 0.09516 0.30193 0.23541 0.0
H1079 H 0.11649 0.31268 0.25468 0.0
H1080 H 0.11321 0.32791 0.15069 0.0
H1081 H 0.16557 0.35531 0.19481 0.0
H1082 H 0.08553 0.33625 0.19152 0.0
H1083 H 0.08109 0.3139 0.20478 0.0
H1084 H 0.08319 0.31757 0.16981 0.0
H1085 H 0.15109 0.36929 0.24685 0.0
H1086 H 0.16571 0.35861 0.2408 0.0
H1087 H 0.14344 0.34565 0.25852 0.0
C1088 C 0.70615 0.76674 0.27517 0.0
C1089 C 0.6908 0.748 0.27815 0.0
C1090 C 0.70661 0.77832 0.25433 0.0
C1091 C 0.69158 0.77082 0.23572 0.0
C1092 C 0.6762 0.7518 0.23842 0.0
C1093 C 0.67589 0.74071 0.25977 0.0
C1094 C 0.72306 0.79863 0.25238 0.0
C1095 C 0.66013 0.74313 0.21865 0.0
C1096 C 0.68152 0.80254 0.19118 0.0
C1097 C 0.68996 0.80151 0.16766 0.0
C1098 C 0.68264 0.7933 0.2139 0.0
C1099 C 0.69215 0.78255 0.2129 0.0
C1100 C 0.70132 0.78209 0.18952 0.0
C1101 C 0.70033 0.79177 0.16734 0.0
C1102 C 0.67304 0.79445 0.23867 0.0
C1103 C 0.71148 0.77068 0.18753 0.0
H1104 H 0.7176 0.77254 0.28951 0.0
H1105 H 0.66401 0.72622 0.26197 0.0
H1106 H 0.73086 0.80064 0.23369 0.0
H1107 H 0.7175 0.80875 0.25227 0.0
H1108 H 0.73335 0.80246 0.26884 0.0
H1109 H 0.64935 0.72807 0.2234 0.0
H1110 H 0.65279 0.75164 0.21774 0.0
H1111 H 0.666 0.7435 0.19885 0.0
H1112 H 0.67341 0.80994 0.19161 0.0
H1113 H 0.70729 0.79128 0.14942 0.0
H1114 H 0.68303 0.7985 0.25551 0.0
H1115 H 0.66052 0.7802 0.24307 0.0
H1116 H 0.66804 0.80498 0.23705 0.0
H1117 H 0.72248 0.77511 0.2031 0.0
H1118 H 0.71851 0.77241 0.16822 0.0
H1119 H 0.70105 0.75526 0.19054 0.0
C1120 C 0.28331 0.92228 0.29072 0.0
C1121 C 0.28948 0.94188 0.29252 0.0
C1122 C 0.27243 0.91135 0.26929 0.0
C1123 C 0.26816 0.92035 0.24871 0.0
C1124 C 0.27413 0.9401 0.25061 0.0
C1125 C 0.28447 0.95058 0.27273 0.0
C1126 C 0.26586 0.89023 0.26843 0.0
C1127 C 0.27029 0.95034 0.22877 0.0
C1128 C 0.26196 0.89853 0.18104 0.0
C1129 C 0.24217 0.89025 0.17675 0.0
C1130 C 0.27052 0.90844 0.20422 0.0
C1131 C 0.25897 0.90952 0.22425 0.0
C1132 C 0.23887 0.90035 0.22075 0.0
C1133 C 0.23071 0.891 0.19691 0.0
C1134 C 0.29203 0.91814 0.20699 0.0
C1135 C 0.22602 0.90069 0.24199 0.0
H1136 H 0.28691 0.91545 0.30622 0.0
H1137 H 0.28925 0.96573 0.2741 0.0
H1138 H 0.25034 0.88183 0.26392 0.0
H1139 H 0.27352 0.88736 0.2526 0.0
H1140 H 0.26853 0.88502 0.28721 0.0
H1141 H 0.27517 0.96552 0.23371 0.0
H1142 H 0.2778 0.94998 0.21074 0.0
H1143 H 0.25477 0.94297 0.22422 0.0
H1144 H 0.27092 0.89754 0.16601 0.0
H1145 H 0.21544 0.88474 0.19385 0.0
H1146 H 0.29583 0.91215 0.22399 0.0
H1147 H 0.29803 0.93366 0.21075 0.0
H1148 H 0.29901 0.91643 0.18923 0.0
H1149 H 0.22886 0.89564 0.26077 0.0
H1150 H 0.2106 0.8916 0.23707 0.0
H1151 H 0.22912 0.91557 0.24515 0.0
C1152 C 0.68784 0.9445 0.25171 0.0
C1153 C 0.7024 0.95315 0.27053 0.0
C1154 C 0.68937 0.93411 0.23068 0.0
C1155 C 0.70582 0.93217 0.2284 0.0
C1156 C 0.72077 0.94118 0.24698 0.0
C1157 C 0.71892 0.95163 0.26778 0.0
C1158 C 0.67317 0.92492 0.21113 0.0
C1159 C 0.7385 0.9394 0.24527 0.0
C1160 C 0.69649 0.88883 0.18781 0.0
C1161 C 0.70246 0.89697 0.16289 0.0
C1162 C 0.69868 0.9003 0.20977 0.0
C1163 C 0.70699 0.92037 0.20671 0.0
C1164 C 0.71438 0.92878 0.182 0.0
C1165 C 0.7121 0.91699 0.16043 0.0
C1166 C 0.6908 0.89076 0.23584 0.0
C1167 C 0.72344 0.9501 0.17786 0.0
H1168 H 0.67505 0.94564 0.25354 0.0
H1169 H 0.73022 0.95818 0.28226 0.0
H1170 H 0.67866 0.92985 0.19103 0.0
H1171 H 0.66688 0.90914 0.21146 0.0
H1172 H 0.66163 0.92826 0.21522 0.0
H1173 H 0.74924 0.94804 0.26047 0.0
H1174 H 0.73453 0.92418 0.24765 0.0
H1175 H 0.74522 0.94405 0.22568 0.0
H1176 H 0.68893 0.87339 0.18988 0.0
H1177 H 0.71701 0.9234 0.14128 0.0
H1178 H 0.67764 0.89133 0.24043 0.0
H1179 H 0.70127 0.89843 0.25173 0.0
H1180 H 0.68717 0.87553 0.23583 0.0
H1181 H 0.71223 0.95421 0.17889 0.0
H1182 H 0.73069 0.95464 0.15854 0.0
H1183 H 0.73403 0.95808 0.19349 0.0
C1184 C 0.09149 0.75258 0.24811 0.0
C1185 C 0.08226 0.75831 0.26622 0.0
C1186 C 0.10259 0.76474 0.22774 0.0
C1187 C 0.10477 0.78324 0.22559 0.0
C1188 C 0.09509 0.78895 0.24338 0.0
C1189 C 0.08383 0.77636 0.26338 0.0
C1190 C 0.11237 0.75794 0.20887 0.0
C1191 C 0.0972 0.80861 0.24187 0.0
C1192 C 0.15016 0.81716 0.18892 0.0
C1193 C 0.14321 0.81559 0.16333 0.0
C1194 C 0.13761 0.80786 0.20989 0.0
C1195 C 0.11767 0.79662 0.20508 0.0
C1196 C 0.11048 0.79637 0.17972 0.0
C1197 C 0.12333 0.80599 0.15921 0.0
C1198 C 0.14583 0.80881 0.23677 0.0
C1199 C 0.08935 0.78464 0.17371 0.0
H1200 H 0.09028 0.73863 0.25008 0.0
H1201 H 0.07688 0.78097 0.27743 0.0
H1202 H 0.10853 0.75924 0.18841 0.0
H1203 H 0.12814 0.76707 0.21073 0.0
H1204 H 0.10845 0.74282 0.21242 0.0
H1205 H 0.08765 0.81035 0.25591 0.0
H1206 H 0.11223 0.81962 0.24625 0.0
H1207 H 0.09398 0.81143 0.22179 0.0
H1208 H 0.16548 0.82446 0.1923 0.0
H1209 H 0.11785 0.80501 0.13953 0.0
H1210 H 0.1449 0.79492 0.24127 0.0
H1211 H 0.13751 0.81136 0.25195 0.0
H1212 H 0.16108 0.82028 0.23815 0.0
H1213 H 0.08491 0.76921 0.17399 0.0
H1214 H 0.08583 0.78811 0.15417 0.0
H1215 H 0.08081 0.78694 0.1888 0.0
C1216 C 0.29476 0.35617 0.25503 0.0
C1217 C 0.2868 0.34192 0.27428 0.0
C1218 C 0.28367 0.35635 0.23398 0.0
C1219 C 0.26403 0.34225 0.23258 0.0
C1220 C 0.25593 0.32778 0.25193 0.0
C1221 C 0.26749 0.32764 0.27238 0.0
C1222 C 0.29297 0.37169 0.21331 0.0
C1223 C 0.23496 0.31274 0.25138 0.0
C1224 C 0.2337 0.35543 0.18993 0.0
C1225 C 0.23255 0.34565 0.16665 0.0
C1226 C 0.24325 0.35383 0.21199 0.0
C1227 C 0.25213 0.3425 0.21052 0.0
C1228 C 0.25045 0.33211 0.1874 0.0
C1229 C 0.24045 0.33358 0.16596 0.0
C1230 C 0.24435 0.36475 0.23658 0.0
C1231 C 0.2599 0.32005 0.18489 0.0
H1232 H 0.30969 0.36722 0.25645 0.0
H1233 H 0.26122 0.31677 0.28747 0.0
H1234 H 0.29097 0.36502 0.19368 0.0
H1235 H 0.28603 0.38059 0.21288 0.0
H1236 H 0.30854 0.38121 0.21681 0.0
H1237 H 0.23086 0.30254 0.26798 0.0
H1238 H 0.22612 0.31974 0.2522 0.0
H1239 H 0.23142 0.30455 0.23278 0.0
H1240 H 0.22773 0.36483 0.19066 0.0
H1241 H 0.23919 0.32555 0.1483 0.0
H1242 H 0.25934 0.37628 0.23988 0.0
H1243 H 0.23998 0.35512 0.25384 0.0
H1244 H 0.23512 0.37133 0.23548 0.0
H1245 H 0.27564 0.32929 0.18688 0.0
H1246 H 0.25678 0.31245 0.16579 0.0
H1247 H 0.25503 0.3093 0.20084 0.0
C1248 C 0.28146 0.33587 0.42841 0.0
C1249 C 0.28791 0.34992 0.40887 0.0
C1250 C 0.27031 0.33607 0.44938 0.0
C1251 C 0.26502 0.35037 0.45042 0.0
C1252 C 0.2713 0.36447 0.43056 0.0
C1253 C 0.28291 0.36424 0.41019 0.0
C1254 C 0.26435 0.3211 0.47056 0.0
C1255 C 0.26559 0.37968 0.43069 0.0
C1256 C 0.22318 0.33889 0.49584 0.0
C1257 C 0.23276 0.34901 0.51848 0.0
C1258 C 0.23343 0.3399 0.473 0.0
C1259 C 0.25371 0.35101 0.47304 0.0
C1260 C 0.26334 0.36185 0.49547 0.0
C1261 C 0.25275 0.36095 0.51769 0.0
C1262 C 0.22264 0.32853 0.44918 0.0
C1263 C 0.28493 0.3737 0.4965 0.0
H1264 H 0.28532 0.32479 0.42745 0.0
H1265 H 0.28762 0.37496 0.39488 0.0
H1266 H 0.2698 0.32814 0.48983 0.0
H1267 H 0.24852 0.31268 0.47192 0.0
H1268 H 0.2698 0.31108 0.46695 0.0
H1269 H 0.27101 0.38912 0.41323 0.0
H1270 H 0.24976 0.37286 0.43126 0.0
H1271 H 0.27122 0.38866 0.44853 0.0
H1272 H 0.20777 0.32964 0.49623 0.0
H1273 H 0.26023 0.36926 0.53486 0.0
H1274 H 0.22546 0.31656 0.44608 0.0
H1275 H 0.22763 0.33767 0.43142 0.0
H1276 H 0.20694 0.3225 0.4512 0.0
H1277 H 0.29115 0.36421 0.49444 0.0
H1278 H 0.29017 0.38183 0.51513 0.0
H1279 H 0.29039 0.38398 0.47997 0.0
C1280 C 0.69439 0.94853 0.42413 0.0
C1281 C 0.68042 0.94303 0.40453 0.0
C1282 C 0.69182 0.93651 0.44545 0.0
C1283 C 0.67494 0.9184 0.44718 0.0
C1284 C 0.66061 0.91285 0.42772 0.0
C1285 C 0.66347 0.92528 0.40668 0.0
C1286 C 0.70736 0.94314 0.46598 0.0
C1287 C 0.64248 0.89362 0.4288 0.0
C1288 C 0.68215 0.88429 0.49043 0.0
C1289 C 0.67579 0.8871 0.51472 0.0
C1290 C 0.68062 0.89327 0.4677 0.0
C1291 C 0.67263 0.90539 0.46937 0.0
C1292 C 0.66471 0.90693 0.49338 0.0
C1293 C 0.6663 0.89769 0.51572 0.0
C1294 C 0.68896 0.89099 0.44239 0.0
C1295 C 0.65599 0.91962 0.49606 0.0
H1296 H 0.70748 0.96224 0.42274 0.0
H1297 H 0.65264 0.92084 0.39155 0.0
H1298 H 0.70135 0.94287 0.48563 0.0
H1299 H 0.71317 0.93324 0.46657 0.0
H1300 H 0.71936 0.95785 0.46217 0.0
H1301 H 0.63235 0.89179 0.41282 0.0
H1302 H 0.64607 0.88204 0.42721 0.0
H1303 H 0.63519 0.89179 0.44789 0.0
H1304 H 0.68957 0.87621 0.48949 0.0
H1305 H 0.66107 0.89965 0.53437 0.0
H1306 H 0.70257 0.90438 0.43819 0.0
H1307 H 0.67909 0.88846 0.42581 0.0
H1308 H 0.69198 0.87898 0.4433 0.0
H1309 H 0.66752 0.93484 0.49531 0.0
H1310 H 0.64812 0.91716 0.51482 0.0
H1311 H 0.64604 0.9172 0.47962 0.0
C1312 C 0.08258 0.75929 0.4208 0.0
C1313 C 0.09006 0.75257 0.40138 0.0
C1314 C 0.09356 0.76932 0.44268 0.0
C1315 C 0.11265 0.77312 0.44495 0.0
C1316 C 0.12034 0.76649 0.42532 0.0
C1317 C 0.10888 0.75609 0.4039 0.0
C1318 C 0.08466 0.77575 0.46349 0.0
C1319 C 0.14074 0.77056 0.42681 0.0
C1320 C 0.14291 0.81329 0.49269 0.0
C1321 C 0.14148 0.80296 0.51547 0.0
C1322 C 0.1345 0.80378 0.46907 0.0
C1323 C 0.1242 0.78349 0.4684 0.0
C1324 C 0.12359 0.77304 0.49097 0.0
C1325 C 0.13242 0.78291 0.51408 0.0
C1326 C 0.13583 0.81542 0.44522 0.0
C1327 C 0.11266 0.75142 0.4912 0.0
H1328 H 0.06803 0.75656 0.419 0.0
H1329 H 0.11481 0.75113 0.38878 0.0
H1330 H 0.08506 0.76955 0.4827 0.0
H1331 H 0.09299 0.79156 0.46555 0.0
H1332 H 0.06956 0.77145 0.45894 0.0
H1333 H 0.14471 0.76479 0.40965 0.0
H1334 H 0.1507 0.78624 0.42792 0.0
H1335 H 0.14283 0.7642 0.44487 0.0
H1336 H 0.14983 0.82877 0.49356 0.0
H1337 H 0.13165 0.77483 0.53145 0.0
H1338 H 0.12161 0.81384 0.4411 0.0
H1339 H 0.14001 0.81013 0.42778 0.0
H1340 H 0.14633 0.83088 0.44793 0.0
H1341 H 0.09715 0.74618 0.4886 0.0
H1342 H 0.11465 0.74547 0.50978 0.0
H1343 H 0.11724 0.7457 0.47467 0.0
C1344 C 0.34333 0.07425 0.76884 0.0
C1345 C 0.35601 0.07993 0.74758 0.0
C1346 C 0.34595 0.08713 0.78915 0.0
C1347 C 0.36137 0.10624 0.78787 0.0
C1348 C 0.37418 0.11206 0.76643 0.0
C1349 C 0.37146 0.09879 0.74671 0.0
C1350 C 0.33223 0.08028 0.812 0.0
C1351 C 0.39059 0.13237 0.76412 0.0
C1352 C 0.35624 0.14229 0.83025 0.0
C1353 C 0.36715 0.1434 0.85227 0.0
C1354 C 0.35481 0.1308 0.80864 0.0
C1355 C 0.3643 0.12002 0.80927 0.0
C1356 C 0.37606 0.12183 0.83089 0.0
C1357 C 0.37753 0.13368 0.85193 0.0
C1358 C 0.34251 0.12959 0.78563 0.0
C1359 C 0.38637 0.11056 0.83241 0.0
H1360 H 0.33138 0.05971 0.76964 0.0
H1361 H 0.38121 0.10339 0.73019 0.0
H1362 H 0.34022 0.08248 0.83057 0.0
H1363 H 0.32489 0.08879 0.81333 0.0
H1364 H 0.3212 0.0649 0.81031 0.0
H1365 H 0.3991 0.13468 0.74599 0.0
H1366 H 0.38502 0.14247 0.76414 0.0
H1367 H 0.40026 0.13601 0.78125 0.0
H1368 H 0.34812 0.14967 0.83039 0.0
H1369 H 0.38632 0.13481 0.86864 0.0
H1370 H 0.32973 0.11504 0.78465 0.0
H1371 H 0.35053 0.13197 0.76704 0.0
H1372 H 0.3376 0.14021 0.78701 0.0
H1373 H 0.37576 0.09501 0.83268 0.0
H1374 H 0.3955 0.11412 0.85017 0.0
H1375 H 0.3955 0.11332 0.81487 0.0
C1376 C 0.93303 0.27466 0.74733 0.0
C1377 C 0.95241 0.27972 0.74756 0.0
C1378 C 0.92071 0.26411 0.7679 0.0
C1379 C 0.92803 0.2589 0.7896 0.0
C1380 C 0.9476 0.26402 0.79002 0.0
C1381 C 0.9595 0.27415 0.7688 0.0
C1382 C 0.89986 0.25855 0.7664 0.0
C1383 C 0.95604 0.25913 0.8131 0.0
C1384 C 0.90192 0.2504 0.85442 0.0
C1385 C 0.89278 0.23039 0.85698 0.0
C1386 C 0.91343 0.25979 0.83268 0.0
C1387 C 0.91542 0.24893 0.81243 0.0
C1388 C 0.90549 0.22868 0.81416 0.0
C1389 C 0.89443 0.21965 0.83653 0.0
C1390 C 0.92387 0.28141 0.83174 0.0
C1391 C 0.90686 0.21658 0.79262 0.0
H1392 H 0.92738 0.27866 0.73077 0.0
H1393 H 0.97446 0.27802 0.76906 0.0
H1394 H 0.89066 0.24285 0.76894 0.0
H1395 H 0.89634 0.26552 0.7825 0.0
H1396 H 0.89619 0.2627 0.74747 0.0
H1397 H 0.97148 0.26402 0.81034 0.0
H1398 H 0.95438 0.26587 0.83112 0.0
H1399 H 0.94823 0.24343 0.81634 0.0
H1400 H 0.90032 0.25884 0.8697 0.0
H1401 H 0.88754 0.20422 0.83832 0.0
H1402 H 0.91952 0.28629 0.81408 0.0
H1403 H 0.93952 0.28707 0.8303 0.0
H1404 H 0.92103 0.28776 0.8493 0.0
H1405 H 0.90317 0.22042 0.77348 0.0
H1406 H 0.89721 0.20102 0.79606 0.0
H1407 H 0.92178 0.21942 0.79114 0.0
C1408 C 0.78122 0.71431 0.75569 0.0
C1409 C 0.76262 0.69854 0.75344 0.0
C1410 C 0.7936 0.71528 0.77582 0.0
C1411 C 0.78715 0.70025 0.79435 0.0
C1412 C 0.76817 0.68464 0.79269 0.0
C1413 C 0.75621 0.68393 0.77222 0.0
C1414 C 0.81377 0.73208 0.7768 0.0
C1415 C 0.76057 0.66846 0.81229 0.0
C1416 C 0.81994 0.68807 0.83299 0.0
C1417 C 0.81914 0.69481 0.85804 0.0
C1418 C 0.81062 0.69085 0.81159 0.0
C1419 C 0.80014 0.70048 0.81536 0.0
C1420 C 0.80045 0.70849 0.84017 0.0
C1421 C 0.81004 0.70567 0.86112 0.0
C1422 C 0.81091 0.68234 0.78536 0.0
C1423 C 0.78952 0.71887 0.8451 0.0
H1424 H 0.78637 0.7256 0.74115 0.0
H1425 H 0.74185 0.67173 0.77073 0.0
H1426 H 0.81683 0.73888 0.79644 0.0
H1427 H 0.8241 0.72701 0.77351 0.0
H1428 H 0.81628 0.74307 0.76181 0.0
H1429 H 0.74526 0.65775 0.80886 0.0
H1430 H 0.76903 0.66107 0.81118 0.0
H1431 H 0.76211 0.67418 0.83247 0.0
H1432 H 0.82684 0.67959 0.83042 0.0
H1433 H 0.80964 0.71122 0.88032 0.0
H1434 H 0.81408 0.69288 0.76947 0.0
H1435 H 0.79659 0.66979 0.78133 0.0
H1436 H 0.82167 0.67759 0.7847 0.0
H1437 H 0.7926 0.72966 0.8296 0.0
H1438 H 0.79303 0.72617 0.86445 0.0
H1439 H 0.77392 0.70847 0.84452 0.0
C1440 C 0.76134 0.69618 0.59879 0.0
C1441 C 0.75582 0.68306 0.61951 0.0
C1442 C 0.77206 0.69539 0.57764 0.0
C1443 C 0.77784 0.68144 0.57746 0.0
C1444 C 0.77239 0.66821 0.59839 0.0
C1445 C 0.76124 0.66903 0.61901 0.0
C1446 C 0.77712 0.70944 0.55538 0.0
C1447 C 0.77859 0.65338 0.59919 0.0
C1448 C 0.78947 0.66915 0.51069 0.0
C1449 C 0.80937 0.68149 0.50904 0.0
C1450 C 0.77914 0.66864 0.53306 0.0
C1451 C 0.78896 0.68035 0.55479 0.0
C1452 C 0.80919 0.69191 0.554 0.0
C1453 C 0.81916 0.69247 0.53105 0.0
C1454 C 0.75759 0.65623 0.5329 0.0
C1455 C 0.82022 0.70426 0.57703 0.0
H1456 H 0.75718 0.70704 0.59906 0.0
H1457 H 0.75724 0.65902 0.63516 0.0
H1458 H 0.7929 0.7182 0.55336 0.0
H1459 H 0.77145 0.70159 0.53667 0.0
H1460 H 0.77129 0.7192 0.55831 0.0
H1461 H 0.77357 0.64445 0.61716 0.0
H1462 H 0.77294 0.64385 0.58185 0.0
H1463 H 0.79444 0.66053 0.59832 0.0
H1464 H 0.78182 0.6602 0.49407 0.0
H1465 H 0.8345 0.70205 0.53002 0.0
H1466 H 0.75098 0.66542 0.5342 0.0
H1467 H 0.75268 0.64663 0.55018 0.0
H1468 H 0.75221 0.64733 0.5149 0.0
H1469 H 0.81698 0.71602 0.57941 0.0
H1470 H 0.83594 0.71066 0.57454 0.0
H1471 H 0.81581 0.69574 0.59536 0.0
C1472 C 0.35448 0.0805 0.59457 0.0
C1473 C 0.34195 0.07488 0.616 0.0
C1474 C 0.35282 0.091 0.57382 0.0
C1475 C 0.33853 0.09632 0.57478 0.0
C1476 C 0.32601 0.0909 0.59652 0.0
C1477 C 0.32775 0.0801 0.61674 0.0
C1478 C 0.36623 0.09623 0.55073 0.0
C1479 C 0.31081 0.09657 0.59845 0.0
C1480 C 0.34678 0.13673 0.52866 0.0
C1481 C 0.33553 0.12647 0.50711 0.0
C1482 C 0.34721 0.12717 0.55144 0.0
C1483 C 0.33628 0.10691 0.5525 0.0
C1484 C 0.32406 0.09663 0.5314 0.0
C1485 C 0.32368 0.10655 0.50912 0.0
C1486 C 0.3601 0.13867 0.57381 0.0
C1487 C 0.3122 0.07503 0.53168 0.0
H1488 H 0.36546 0.07651 0.59387 0.0
H1489 H 0.31816 0.07601 0.63339 0.0
H1490 H 0.35787 0.09005 0.53251 0.0
H1491 H 0.37439 0.11201 0.54824 0.0
H1492 H 0.37655 0.09102 0.55298 0.0
H1493 H 0.30268 0.09183 0.61712 0.0
H1494 H 0.31749 0.11235 0.59693 0.0
H1495 H 0.30059 0.09025 0.58193 0.0
H1496 H 0.35603 0.15211 0.52721 0.0
H1497 H 0.31467 0.09859 0.49269 0.0
H1498 H 0.37234 0.13606 0.57509 0.0
H1499 H 0.35226 0.1341 0.59268 0.0
H1500 H 0.36583 0.15428 0.57129 0.0
H1501 H 0.32182 0.06889 0.53181 0.0
H1502 H 0.30259 0.06929 0.5144 0.0
H1503 H 0.30337 0.07003 0.5497 0.0
C1504 C 0.96642 0.2682 0.59783 0.0
C1505 C 0.95824 0.27633 0.6138 0.0
C1506 C 0.95646 0.2569 0.57607 0.0
C1507 C 0.93762 0.25311 0.57081 0.0
C1508 C 0.92909 0.26079 0.58747 0.0
C1509 C 0.93964 0.2726 0.60848 0.0
C1510 C 0.96631 0.24955 0.55825 0.0
C1511 C 0.90885 0.25663 0.58301 0.0
C1512 C 0.91898 0.24283 0.50116 0.0
C1513 C 0.90836 0.2227 0.50047 0.0
C1514 C 0.92886 0.25276 0.52367 0.0
C1515 C 0.92743 0.24245 0.54673 0.0
C1516 C 0.91617 0.22219 0.54669 0.0
C1517 C 0.90698 0.21253 0.52345 0.0
C1518 C 0.94095 0.27434 0.52267 0.0
C1519 C 0.91383 0.21077 0.57118 0.0
H1520 H 0.9808 0.27107 0.602 0.0
H1521 H 0.93317 0.27861 0.62113 0.0
H1522 H 0.95763 0.23375 0.55649 0.0
H1523 H 0.96765 0.25557 0.53831 0.0
H1524 H 0.98082 0.25342 0.56538 0.0
H1525 H 0.9037 0.26215 0.59916 0.0
H1526 H 0.90806 0.2633 0.56442 0.0
H1527 H 0.899 0.24097 0.58113 0.0
H1528 H 0.91963 0.25099 0.48396 0.0
H1529 H 0.89892 0.19702 0.52327 0.0
H1530 H 0.95579 0.27897 0.52907 0.0
H1531 H 0.93511 0.28085 0.53632 0.0
H1532 H 0.94151 0.28009 0.50272 0.0
H1533 H 0.92791 0.21284 0.57742 0.0
H1534 H 0.90381 0.19521 0.56829 0.0
H1535 H 0.9084 0.21593 0.5874 0.0
C1536 C 0.37929 0.28432 0.59889 0.0
C1537 C 0.36316 0.28644 0.6023 0.0
C1538 C 0.37999 0.27276 0.57879 0.0
C1539 C 0.36435 0.26339 0.56133 0.0
C1540 C 0.34831 0.26599 0.56413 0.0
C1541 C 0.34782 0.27731 0.58474 0.0
C1542 C 0.39719 0.2701 0.57674 0.0
C1543 C 0.33151 0.2566 0.54555 0.0
C1544 C 0.36992 0.24613 0.49446 0.0
C1545 C 0.3599 0.22616 0.49777 0.0
C1546 C 0.37213 0.25848 0.51522 0.0
C1547 C 0.36457 0.25074 0.54016 0.0
C1548 C 0.35591 0.23072 0.5442 0.0
C1549 C 0.35356 0.21864 0.52291 0.0
C1550 C 0.38139 0.2797 0.50998 0.0
C1551 C 0.3481 0.22195 0.57067 0.0
H1552 H 0.39113 0.29113 0.61256 0.0
H1553 H 0.33533 0.27889 0.58723 0.0
H1554 H 0.3927 0.2548 0.57979 0.0
H1555 H 0.40353 0.27404 0.55686 0.0
H1556 H 0.40842 0.27883 0.59136 0.0
H1557 H 0.32054 0.26073 0.54968 0.0
H1558 H 0.33651 0.26057 0.52505 0.0
H1559 H 0.32467 0.2408 0.54704 0.0
H1560 H 0.37521 0.25207 0.47519 0.0
H1561 H 0.34574 0.20326 0.52568 0.0
H1562 H 0.39258 0.28796 0.52482 0.0
H1563 H 0.37046 0.28417 0.51151 0.0
H1564 H 0.38798 0.2836 0.4902 0.0
H1565 H 0.35883 0.2298 0.58622 0.0
H1566 H 0.34403 0.2066 0.57141 0.0
H1567 H 0.33525 0.22308 0.57516 0.0
C1568 C 0.76257 0.08285 0.59044 0.0
C1569 C 0.75492 0.0896 0.60958 0.0
C1570 C 0.77316 0.09447 0.56933 0.0
C1571 C 0.77658 0.11346 0.56759 0.0
C1572 C 0.7689 0.12037 0.58685 0.0
C1573 C 0.75798 0.10828 0.60746 0.0
C1574 C 0.78074 0.0864 0.54887 0.0
C1575 C 0.77255 0.14063 0.58596 0.0
C1576 C 0.81906 0.14546 0.52431 0.0
C1577 C 0.80999 0.14449 0.50046 0.0
C1578 C 0.80832 0.13639 0.54686 0.0
C1579 C 0.78806 0.12589 0.54539 0.0
C1580 C 0.77884 0.12592 0.52184 0.0
C1581 C 0.78991 0.13542 0.4998 0.0
C1582 C 0.81869 0.13711 0.57182 0.0
C1583 C 0.75729 0.11483 0.51934 0.0
H1584 H 0.7602 0.06842 0.59193 0.0
H1585 H 0.7523 0.11367 0.62236 0.0
H1586 H 0.77552 0.08747 0.52918 0.0
H1587 H 0.79661 0.09488 0.5484 0.0
H1588 H 0.77633 0.07118 0.55264 0.0
H1589 H 0.76551 0.14379 0.60239 0.0
H1590 H 0.78818 0.15086 0.58684 0.0
H1591 H 0.76727 0.14321 0.56722 0.0
H1592 H 0.83454 0.15236 0.52504 0.0
H1593 H 0.78278 0.13498 0.48159 0.0
H1594 H 0.81722 0.12288 0.5755 0.0
H1595 H 0.81228 0.14049 0.58878 0.0
H1596 H 0.83418 0.14792 0.57083 0.0
H1597 H 0.75216 0.09927 0.5207 0.0
H1598 H 0.75232 0.11763 0.50044 0.0
H1599 H 0.75055 0.11848 0.53559 0.0
C1600 C 0.95648 0.68625 0.58988 0.0
C1601 C 0.95094 0.66982 0.60501 0.0
C1602 C 0.94508 0.68606 0.56897 0.0
C1603 C 0.92751 0.66918 0.56352 0.0
C1604 C 0.92187 0.65254 0.57868 0.0
C1605 C 0.93376 0.653 0.59905 0.0
C1606 C 0.95178 0.70397 0.55282 0.0
C1607 C 0.90307 0.63441 0.57382 0.0
C1608 C 0.89231 0.67791 0.5251 0.0
C1609 C 0.89541 0.67376 0.49948 0.0
C1610 C 0.9019 0.67548 0.54641 0.0
C1611 C 0.91509 0.66904 0.54189 0.0
C1612 C 0.91737 0.66371 0.51631 0.0
C1613 C 0.90729 0.66587 0.4955 0.0
C1614 C 0.8987 0.68081 0.57355 0.0
C1615 C 0.93137 0.6569 0.51063 0.0
H1616 H 0.96974 0.69926 0.59439 0.0
H1617 H 0.92927 0.64031 0.61091 0.0
H1618 H 0.95239 0.70076 0.5318 0.0
H1619 H 0.94145 0.70918 0.55464 0.0
H1620 H 0.96615 0.71565 0.55893 0.0
H1621 H 0.90088 0.62263 0.5872 0.0
H1622 H 0.89106 0.63725 0.57651 0.0
H1623 H 0.90238 0.62953 0.55332 0.0
H1624 H 0.88324 0.68408 0.52837 0.0
H1625 H 0.90942 0.66223 0.47581 0.0
H1626 H 0.91168 0.6941 0.58001 0.0
H1627 H 0.89622 0.66939 0.58775 0.0
H1628 H 0.88632 0.68326 0.57425 0.0
H1629 H 0.94617 0.66874 0.51431 0.0
H1630 H 0.93044 0.65203 0.49003 0.0
H1631 H 0.92881 0.64496 0.52387 0.0
C1632 C 0.95576 0.68426 0.7586 0.0
C1633 C 0.94811 0.67034 0.73884 0.0
C1634 C 0.94436 0.68391 0.77966 0.0
C1635 C 0.92474 0.66962 0.78055 0.0
C1636 C 0.91683 0.65587 0.76025 0.0
C1637 C 0.92867 0.65624 0.73984 0.0
C1638 C 0.95342 0.69856 0.80126 0.0
C1639 C 0.89589 0.64073 0.76014 0.0
C1640 C 0.90152 0.65701 0.84762 0.0
C1641 C 0.8933 0.66875 0.84933 0.0
C1642 C 0.91151 0.65694 0.82521 0.0
C1643 C 0.9128 0.66842 0.80351 0.0
C1644 C 0.90335 0.67923 0.80431 0.0
C1645 C 0.89383 0.67941 0.82733 0.0
C1646 C 0.92147 0.64529 0.82527 0.0
C1647 C 0.90394 0.69121 0.78126 0.0
H1648 H 0.97076 0.69518 0.75786 0.0
H1649 H 0.9226 0.64562 0.72438 0.0
H1650 H 0.94579 0.70673 0.80347 0.0
H1651 H 0.95212 0.69122 0.82016 0.0
H1652 H 0.9688 0.70882 0.79752 0.0
H1653 H 0.8917 0.63193 0.74199 0.0
H1654 H 0.89266 0.63109 0.7772 0.0
H1655 H 0.8869 0.64751 0.76201 0.0
H1656 H 0.90076 0.64835 0.86431 0.0
H1657 H 0.88757 0.68855 0.82847 0.0
H1658 H 0.93715 0.65496 0.82326 0.0
H1659 H 0.91669 0.63535 0.80833 0.0
H1660 H 0.91871 0.63681 0.84352 0.0
H1661 H 0.9187 0.7034 0.77872 0.0
H1662 H 0.8941 0.697 0.78384 0.0
H1663 H 0.90004 0.68262 0.76297 0.0
C1664 C 0.36354 0.26824 0.73636 0.0
C1665 C 0.35123 0.27577 0.73503 0.0
C1666 C 0.36253 0.2565 0.75726 0.0
C1667 C 0.34935 0.25275 0.77784 0.0
C1668 C 0.33647 0.25987 0.7762 0.0
C1669 C 0.33736 0.27106 0.75454 0.0
C1670 C 0.37616 0.24878 0.75782 0.0
C1671 C 0.32258 0.25667 0.79806 0.0
C1672 C 0.34199 0.21591 0.83033 0.0
C1673 C 0.35535 0.22756 0.84935 0.0
C1674 C 0.33983 0.2238 0.80681 0.0
C1675 C 0.35099 0.24382 0.80252 0.0
C1676 C 0.36446 0.25557 0.82161 0.0
C1677 C 0.36675 0.24728 0.84435 0.0
C1678 C 0.32574 0.21076 0.78649 0.0
C1679 C 0.37657 0.27701 0.81806 0.0
H1680 H 0.37405 0.27158 0.72101 0.0
H1681 H 0.32781 0.27686 0.75347 0.0
H1682 H 0.38728 0.25645 0.77298 0.0
H1683 H 0.36844 0.23337 0.76308 0.0
H1684 H 0.38342 0.25054 0.73868 0.0
H1685 H 0.31234 0.26153 0.79274 0.0
H1686 H 0.31437 0.2413 0.8034 0.0
H1687 H 0.33065 0.26466 0.81573 0.0
H1688 H 0.33311 0.20069 0.83388 0.0
H1689 H 0.37767 0.25641 0.85828 0.0
H1690 H 0.33323 0.21234 0.76762 0.0
H1691 H 0.31471 0.21487 0.78295 0.0
H1692 H 0.31849 0.19548 0.79248 0.0
H1693 H 0.38634 0.28024 0.80113 0.0
H1694 H 0.38535 0.28426 0.83565 0.0
H1695 H 0.36732 0.28323 0.8138 0.0
C1696 C 0.77679 0.08207 0.74842 0.0
C1697 C 0.75906 0.08112 0.74503 0.0
C1698 C 0.78877 0.09204 0.76965 0.0
C1699 C 0.78272 0.10098 0.78818 0.0
C1700 C 0.76461 0.09963 0.78522 0.0
C1701 C 0.7531 0.08989 0.76357 0.0
C1702 C 0.80808 0.09341 0.77191 0.0
C1703 C 0.75745 0.10865 0.80484 0.0
C1704 C 0.80265 0.11338 0.85715 0.0
C1705 C 0.8132 0.13347 0.85613 0.0
C1706 C 0.79345 0.10248 0.83482 0.0
C1707 C 0.7952 0.11186 0.81071 0.0
C1708 C 0.80732 0.13197 0.80901 0.0
C1709 C 0.8161 0.14256 0.83178 0.0
C1710 C 0.78067 0.08109 0.83756 0.0
C1711 C 0.80992 0.14247 0.78352 0.0
H1712 H 0.78159 0.07549 0.73403 0.0
H1713 H 0.7394 0.08916 0.76114 0.0
H1714 H 0.81957 0.10862 0.7707 0.0
H1715 H 0.80949 0.08795 0.79123 0.0
H1716 H 0.81046 0.08523 0.75627 0.0
H1717 H 0.74276 0.10571 0.80022 0.0
H1718 H 0.75741 0.10317 0.82479 0.0
H1719 H 0.7672 0.12438 0.80525 0.0
H1720 H 0.80066 0.10622 0.87582 0.0
H1721 H 0.82415 0.15806 0.83077 0.0
H1722 H 0.78351 0.07345 0.82167 0.0
H1723 H 0.76548 0.07739 0.83581 0.0
H1724 H 0.78259 0.07576 0.85673 0.0
H1725 H 0.81273 0.13507 0.76725 0.0
H1726 H 0.82188 0.15751 0.78454 0.0
H1727 H 0.79658 0.14261 0.77874 0.0
C1728 C 0.07366 0.36237 0.0379 0.0
C1729 C 0.0763 0.37666 0.02003 0.0
C1730 C 0.08919 0.36043 0.04634 0.0
C1731 C 0.10776 0.37278 0.03617 0.0
C1732 C 0.11022 0.38627 0.01663 0.0
C1733 C 0.09452 0.38823 0.00906 0.0
C1734 C 0.08591 0.34599 0.06745 0.0
C1735 C 0.1296 0.39927 0.00466 0.0
C1736 C 0.14623 0.38213 0.08589 0.0
C1737 C 0.15032 0.36758 0.07995 0.0
C1738 C 0.13337 0.38489 0.07062 0.0
C1739 C 0.12467 0.37304 0.04851 0.0
C1740 C 0.13048 0.35983 0.04072 0.0
C1741 C 0.14317 0.35712 0.05672 0.0
C1742 C 0.12765 0.39913 0.0798 0.0
C1743 C 0.1221 0.34742 0.01677 0.0
H1744 H 0.05965 0.35341 0.0465 0.0
H1745 H 0.09663 0.3992 0.99503 0.0
H1746 H 0.09171 0.33671 0.06125 0.0
H1747 H 0.09363 0.35358 0.08553 0.0
H1748 H 0.07049 0.33676 0.07224 0.0
H1749 H 0.1285 0.40628 0.98655 0.0
H1750 H 0.13866 0.41062 0.01892 0.0
H1751 H 0.13701 0.39117 -5e-05 0.0
H1752 H 0.15177 0.3902 0.1039 0.0
H1753 H 0.14622 0.34578 0.05219 0.0
H1754 H 0.11267 0.39133 0.08705 0.0
H1755 H 0.12821 0.40838 0.06338 0.0
H1756 H 0.137 0.40842 0.09585 0.0
H1757 H 0.1075 0.33555 0.02135 0.0
H1758 H 0.1309 0.3411 0.01027 0.0
H1759 H 0.12086 0.35575 0.00037 0.0
C1760 C 0.65358 0.71538 0.00139 0.0
C1761 C 0.66258 0.70678 0.01464 0.0
C1762 C 0.6569 0.73364 0.00863 0.0
C1763 C 0.66888 0.74318 0.03031 0.0
C1764 C 0.67864 0.73489 0.04297 0.0
C1765 C 0.67561 0.71695 0.03469 0.0
C1766 C 0.64684 0.74227 0.99387 0.0
C1767 C 0.69125 0.74431 0.06652 0.0
C1768 C 0.6869 0.79443 0.05318 0.0
C1769 C 0.67409 0.79132 0.07365 0.0
C1770 C 0.68448 0.77912 0.0371 0.0
C1771 C 0.66922 0.76032 0.0422 0.0
C1772 C 0.6554 0.75756 0.06142 0.0
C1773 C 0.65787 0.77313 0.07659 0.0
C1774 C 0.69905 0.78285 0.01605 0.0
C1775 C 0.63902 0.73784 0.06789 0.0
H1776 H 0.64362 0.70764 0.98568 0.0
H1777 H 0.68253 0.71034 0.04508 0.0
H1778 H 0.63453 0.74068 0.00554 0.0
H1779 H 0.65663 0.7578 0.9906 0.0
H1780 H 0.64136 0.73516 0.97462 0.0
H1781 H 0.69853 0.73651 0.07337 0.0
H1782 H 0.70229 0.75925 0.06186 0.0
H1783 H 0.68245 0.74489 0.08285 0.0
H1784 H 0.69953 0.80843 0.05099 0.0
H1785 H 0.64801 0.77073 0.09252 0.0
H1786 H 0.69207 0.77417 -0.00169 0.0
H1787 H 0.70944 0.77873 0.0233 0.0
H1788 H 0.70712 0.79823 0.01051 0.0
H1789 H 0.63103 0.73044 0.04991 0.0
H1790 H 0.62882 0.73832 0.08209 0.0
H1791 H 0.64476 0.72909 0.07647 0.0
C1792 C 0.32402 0.96888 0.0384 0.0
C1793 C 0.33403 0.96561 0.01852 0.0
C1794 C 0.30629 0.95403 0.04744 0.0
C1795 C 0.29805 0.93564 0.0357 0.0
C1796 C 0.30738 0.93278 0.0141 0.0
C1797 C 0.32545 0.94767 0.00614 0.0
C1798 C 0.29713 0.95768 0.07088 0.0
C1799 C 0.29875 0.91371 0.00025 0.0
C1800 C 0.27006 0.89521 0.08353 0.0
C1801 C 0.25143 0.89219 0.08089 0.0
C1802 C 0.28515 0.90865 0.06805 0.0
C1803 C 0.28147 0.91895 0.04869 0.0
C1804 C 0.26232 0.91449 0.04403 0.0
C1805 C 0.24748 0.90129 0.06046 0.0
C1806 C 0.30526 0.91296 0.07409 0.0
C1807 C 0.25764 0.92451 0.02284 0.0
H1808 H 0.33063 0.9827 0.04808 0.0
H1809 H 0.33305 0.94514 0.99054 0.0
H1810 H 0.28197 0.95315 0.06666 0.0
H1811 H 0.29725 0.94905 0.08774 0.0
H1812 H 0.30469 0.973 0.07674 0.0
H1813 H 0.30559 0.91491 0.98091 0.0
H1814 H 0.30071 0.90342 0.0124 0.0
H1815 H 0.28314 0.90767 -0.00266 0.0
H1816 H 0.2731 0.88809 0.09926 0.0
H1817 H 0.23313 0.89904 0.0584 0.0
H1818 H 0.31385 0.92786 0.08145 0.0
H1819 H 0.31235 0.91185 0.0561 0.0
H1820 H 0.30557 0.90313 0.08906 0.0
H1821 H 0.26131 0.939 0.0297 0.0
H1822 H 0.24217 0.91656 0.01776 0.0
H1823 H 0.26614 0.92625 0.00489 0.0
C1824 C 0.37468 0.07942 0.01978 0.0
C1825 C 0.38732 0.07703 0.0035 0.0
C1826 C 0.36879 0.0927 0.01333 0.0
C1827 C 0.37501 0.10304 0.98948 0.0
C1828 C 0.38771 0.10045 0.97301 0.0
C1829 C 0.394 0.08779 0.98053 0.0
C1830 C 0.35587 0.09553 0.03192 0.0
C1831 C 0.39432 0.11067 0.94702 0.0
C1832 C 0.34745 0.12026 0.94913 0.0
C1833 C 0.36047 0.14002 0.94846 0.0
C1834 C 0.35098 0.10797 0.96455 0.0
C1835 C 0.36759 0.11574 0.98044 0.0
C1836 C 0.37907 0.13592 0.98291 0.0
C1837 C 0.37552 0.14788 0.96658 0.0
C1838 C 0.33838 0.08663 0.96091 0.0
C1839 C 0.39633 0.14483 0.00066 0.0
H1840 H 0.36966 0.07115 0.03768 0.0
H1841 H 0.40374 0.08584 0.96797 0.0
H1842 H 0.36064 0.11098 0.03404 0.0
H1843 H 0.34108 0.08833 0.02403 0.0
H1844 H 0.35549 0.08949 0.0516 0.0
H1845 H 0.40364 0.10654 0.93615 0.0
H1846 H 0.38175 0.10737 0.93457 0.0
H1847 H 0.40239 0.12638 0.95016 0.0
H1848 H 0.33571 0.11418 0.93522 0.0
H1849 H 0.3856 0.16314 0.96622 0.0
H1850 H 0.33528 0.07906 0.97994 0.0
H1851 H 0.34597 0.08124 0.94847 0.0
H1852 H 0.3246 0.08292 0.95127 0.0
H1853 H 0.39331 0.13672 0.01927 0.0
H1854 H 0.40087 0.15999 0.00517 0.0
H1855 H 0.40843 0.14446 0.99088 0.0
C1856 C 0.94554 0.30754 0.02942 0.0
C1857 C 0.96289 0.31686 0.01559 0.0
C1858 C 0.93066 0.28942 0.0215 0.0
C1859 C 0.93287 0.28084 -0.00148 0.0
C1860 C 0.95072 0.28983 0.98525 0.0
C1861 C 0.96562 0.30755 0.99424 0.0
C1862 C 0.91225 0.27997 0.03695 0.0
C1863 C 0.95365 0.2815 0.96033 0.0
C1864 C 0.89946 0.23069 0.97189 0.0
C1865 C 0.88933 0.23466 0.953 0.0
C1866 C 0.91256 0.24525 0.98876 0.0
C1867 C 0.91593 0.2642 0.98599 0.0
C1868 C 0.90451 0.26776 0.96837 0.0
C1869 C 0.89118 0.25289 0.95246 0.0
C1870 C 0.92375 0.24061 0.00814 0.0
C1871 C 0.90768 0.2877 0.9643 0.0
H1872 H 0.94343 0.31461 0.0461 0.0
H1873 H 0.97895 0.31475 0.9834 0.0
H1874 H 0.90128 0.28199 0.02671 0.0
H1875 H 0.90665 0.26433 0.03863 0.0
H1876 H 0.91422 0.28615 0.05694 0.0
H1877 H 0.96863 0.28971 0.95309 0.0
H1878 H 0.94995 0.26644 0.96348 0.0
H1879 H 0.94398 0.28147 0.94484 0.0
H1880 H 0.8982 0.21667 0.9722 0.0
H1881 H 0.88341 0.25597 0.93771 0.0
H1882 H 0.92591 0.24859 0.02673 0.0
H1883 H 0.93808 0.24492 -0.0001 0.0
H1884 H 0.91644 0.22504 0.01246 0.0
H1885 H 0.90717 0.29414 0.98325 0.0
H1886 H 0.89686 0.28783 0.95096 0.0
H1887 H 0.9221 0.29696 0.95574 0.0
C1888 C 0.72476 0.63792 0.01779 0.0
C1889 C 0.71736 0.64941 0.00895 0.0
C1890 C 0.7427 0.64109 0.0092 0.0
C1891 C 0.7533 0.65579 0.99082 0.0
C1892 C 0.74632 0.66803 0.98288 0.0
C1893 C 0.72855 0.66481 0.99225 0.0
C1894 C 0.74983 0.62807 0.01876 0.0
C1895 C 0.75701 0.68376 0.96309 0.0
C1896 C 0.80486 0.67397 0.96945 0.0
C1897 C 0.80196 0.66467 0.94528 0.0
C1898 C 0.7892 0.67014 0.98573 0.0
C1899 C 0.77032 0.65699 0.9773 0.0
C1900 C 0.76758 0.64649 0.95387 0.0
C1901 C 0.78344 0.65037 0.93829 0.0
C1902 C 0.7928 0.68121 0.01092 0.0
C1903 C 0.74778 0.6324 0.94395 0.0
H1904 H 0.71627 0.62608 0.03089 0.0
H1905 H 0.72295 0.67373 0.98528 0.0
H1906 H 0.74822 0.61791 0.00296 0.0
H1907 H 0.76526 0.63647 0.02381 0.0
H1908 H 0.74174 0.61966 0.03618 0.0
H1909 H 0.75034 0.69279 0.96023 0.0
H1910 H 0.77207 0.69308 0.96937 0.0
H1911 H 0.75729 0.67736 0.94394 0.0
H1912 H 0.81914 0.68518 0.97473 0.0
H1913 H 0.78122 0.64331 0.91947 0.0
H1914 H 0.78343 0.67182 0.02681 0.0
H1915 H 0.7894 0.69283 0.00807 0.0
H1916 H 0.80798 0.68779 0.01725 0.0
H1917 H 0.73923 0.62207 0.95953 0.0
H1918 H 0.74819 0.62428 0.9266 0.0
H1919 H 0.74024 0.64021 0.93838 0.0
C1920 C 0.95876 0.6452 0.96953 0.0
C1921 C 0.9711 0.65295 0.99101 0.0
C1922 C 0.94543 0.65098 0.96342 0.0
C1923 C 0.94374 0.66424 0.97989 0.0
C1924 C 0.95567 0.67154 0.00229 0.0
C1925 C 0.96956 0.66616 0.00723 0.0
C1926 C 0.93354 0.64326 0.93884 0.0
C1927 C 0.95378 0.68501 0.02097 0.0
C1928 C 0.9237 0.69075 0.94251 0.0
C1929 C 0.90394 0.67797 0.94459 0.0
C1930 C 0.93699 0.68737 0.95569 0.0
C1931 C 0.93034 0.67121 0.97226 0.0
C1932 C 0.91042 0.6599 0.97737 0.0
C1933 C 0.89738 0.66325 0.96315 0.0
C1934 C 0.95796 0.69966 0.94906 0.0
C1935 C 0.90274 0.64312 -0.00411 0.0
H1936 H 0.96 0.63504 0.95692 0.0
H1937 H 0.97895 0.67199 0.02405 0.0
H1938 H 0.9181 0.63523 0.94391 0.0
H1939 H 0.93586 0.65527 0.92587 0.0
H1940 H 0.93706 0.63358 0.92769 0.0
H1941 H 0.96237 0.68749 0.03906 0.0
H1942 H 0.95862 0.699 0.01132 0.0
H1943 H 0.93855 0.67918 0.02651 0.0
H1944 H 0.92879 0.70216 0.92813 0.0
H1945 H 0.88214 0.65329 0.96481 0.0
H1946 H 0.96229 0.69151 0.93593 0.0
H1947 H 0.96694 0.70342 0.9669 0.0
H1948 H 0.96103 0.71309 0.93895 0.0
H1949 H 0.90226 0.6307 0.98577 0.0
H1950 H 0.88802 0.63883 0.00254 0.0
H1951 H 0.91216 0.64653 0.01327 0.0
C1952 C 0.37423 0.31591 0.97758 0.0
C1953 C 0.38922 0.32786 0.99436 0.0
C1954 C 0.37135 0.29782 0.97037 0.0
C1955 C 0.38328 0.29125 0.98105 0.0
C1956 C 0.39745 0.30271 -0.00034 0.0
C1957 C 0.40056 0.32108 0.00561 0.0
C1958 C 0.35639 0.28633 0.94995 0.0
C1959 C 0.40988 0.29594 0.01243 0.0
C1960 C 0.36537 0.23906 0.96364 0.0
C1961 C 0.37596 0.24122 0.94088 0.0
C1962 C 0.36876 0.25519 0.97857 0.0
C1963 C 0.38258 0.27377 0.96992 0.0
C1964 C 0.39434 0.27573 0.94818 0.0
C1965 C 0.39108 0.2594 0.93425 0.0
C1966 C 0.35656 0.2524 0.00237 0.0
C1967 C 0.40904 0.29517 0.93786 0.0
H1968 H 0.36552 0.32119 0.9688 0.0
H1969 H 0.41204 0.33026 0.01886 0.0
H1970 H 0.36346 0.28485 0.93214 0.0
H1971 H 0.34651 0.27171 0.95732 0.0
H1972 H 0.34784 0.2931 0.94431 0.0
H1973 H 0.41734 0.3046 0.03003 0.0
H1974 H 0.4012 0.28068 0.01823 0.0
H1975 H 0.42087 0.2971 -0.00168 0.0
H1976 H 0.35357 0.22503 0.96867 0.0
H1977 H 0.39917 0.26103 0.9165 0.0
H1978 H 0.34486 0.25523 -0.00288 0.0
H1979 H 0.36512 0.26254 0.01819 0.0
H1980 H 0.34999 0.23754 0.00999 0.0
H1981 H 0.40168 0.30272 0.93035 0.0
H1982 H 0.41776 0.29417 0.92175 0.0
H1983 H 0.41882 0.30409 0.95374 0.0
C1984 C 0.71758 0.06493 0.97603 0.0
C1985 C 0.70447 0.06708 0.9916 0.0
C1986 C 0.73533 0.08084 0.96919 0.0
C1987 C 0.74037 0.09929 0.97884 0.0
C1988 C 0.72768 0.10129 -0.00401 0.0
C1989 C 0.70974 0.08524 0.00177 0.0
C1990 C 0.7482 0.07803 0.95042 0.0
C1991 C 0.73273 0.1205 0.00749 0.0
C1992 C 0.79282 0.13562 0.96576 0.0
C1993 C 0.79141 0.14326 0.94178 0.0
C1994 C 0.77621 0.12246 0.97949 0.0
C1995 C 0.7579 0.11652 0.96856 0.0
C1996 C 0.75653 0.12556 0.94555 0.0
C1997 C 0.77329 0.13899 0.93269 0.0
C1998 C 0.77833 0.11378 0.00452 0.0
C1999 C 0.73743 0.11964 0.93291 0.0
H2000 H 0.71356 0.05096 0.96802 0.0
H2001 H 0.69972 0.08696 0.01404 0.0
H2002 H 0.74984 0.0861 0.93208 0.0
H2003 H 0.76268 0.08377 0.95902 0.0
H2004 H 0.74251 0.06273 0.94536 0.0
H2005 H 0.72293 0.11914 0.02369 0.0
H2006 H 0.74765 0.12792 0.01497 0.0
H2007 H 0.73184 0.12969 0.99205 0.0
H2008 H 0.80679 0.13873 0.9727 0.0
H2009 H 0.77221 0.14478 0.91401 0.0
H2010 H 0.77615 0.09932 0.00037 0.0
H2011 H 0.76739 0.11214 0.01909 0.0
H2012 H 0.79279 0.1226 0.01325 0.0
H2013 H 0.73118 0.10481 0.9253 0.0
H2014 H 0.73872 0.12918 0.9164 0.0
H2015 H 0.72725 0.1197 0.94746 0.0
C2016 C 0.63741 0.92791 0.00369 0.0
C2017 C 0.6497 0.94739 0.0092 0.0
C2018 C 0.64122 0.91382 0.01335 0.0
C2019 C 0.65744 0.91931 0.02944 0.0
C2020 C 0.6704 0.93903 0.03392 0.0
C2021 C 0.66647 0.95283 0.02352 0.0
C2022 C 0.62732 0.89303 0.00748 0.0
C2023 C 0.68778 0.94554 0.05118 0.0
C2024 C 0.65605 0.88809 0.08569 0.0
C2025 C 0.66932 0.88274 0.07757 0.0
C2026 C 0.65122 0.89907 0.06954 0.0
C2027 C 0.65966 0.90462 0.0444 0.0
C2028 C 0.67167 0.89771 0.03513 0.0
C2029 C 0.67648 0.88691 0.05195 0.0
C2030 C 0.63836 0.90606 0.08034 0.0
C2031 C 0.68051 0.90284 0.00821 0.0
H2032 H 0.6245 0.92359 0.9924 0.0
H2033 H 0.67602 0.96784 0.0279 0.0
H2034 H 0.63511 0.8854 0.00224 0.0
H2035 H 0.61866 0.88602 0.02518 0.0
H2036 H 0.61742 0.89132 0.99123 0.0
H2037 H 0.69716 0.96136 0.0512 0.0
H2038 H 0.68314 0.94075 0.0716 0.0
H2039 H 0.69632 0.93898 0.04461 0.0
H2040 H 0.6505 0.88482 0.10552 0.0
H2041 H 0.68685 0.88289 0.04571 0.0
H2042 H 0.6267 0.90307 0.06632 0.0
H2043 H 0.64678 0.92181 0.0832 0.0
H2044 H 0.63186 0.8993 0.09941 0.0
H2045 H 0.66985 0.90164 0.99348 0.0
H2046 H 0.68636 0.89354 0.00212 0.0
H2047 H 0.69239 0.91791 0.00821 0.0
C2048 C 0.10834 0.71287 0.01705 0.0
C2049 C 0.08924 0.70728 0.0229 0.0
C2050 C 0.12346 0.73086 0.02486 0.0
C2051 C 0.11946 0.74328 0.03973 0.0
C2052 C 0.10013 0.73792 0.04494 0.0
C2053 C 0.08525 0.72013 0.0361 0.0
C2054 C 0.14376 0.73626 0.01804 0.0
C2055 C 0.09516 0.7505 0.0612 0.0
C2056 C 0.15375 0.77582 0.0919 0.0
C2057 C 0.15915 0.79403 0.08194 0.0
C2058 C 0.14172 0.75918 0.07767 0.0
C2059 C 0.13529 0.76076 0.05248 0.0
C2060 C 0.1424 0.77916 0.04118 0.0
C2061 C 0.1541 0.79565 0.05621 0.0
C2062 C 0.13442 0.73998 0.09075 0.0
C2063 C 0.13651 0.78148 0.01402 0.0
H2064 H 0.11149 0.70306 0.00659 0.0
H2065 H 0.07053 0.71585 0.04076 0.0
H2066 H 0.15181 0.75123 0.01082 0.0
H2067 H 0.1512 0.73541 0.03581 0.0
H2068 H 0.14429 0.72663 0.00289 0.0
H2069 H 0.07946 0.74465 0.06265 0.0
H2070 H 0.10103 0.75196 0.08128 0.0
H2071 H 0.10178 0.76506 0.05265 0.0
H2072 H 0.15755 0.77459 0.1119 0.0
H2073 H 0.15808 0.80969 0.04858 0.0
H2074 H 0.13619 0.73 0.07765 0.0
H2075 H 0.11889 0.73355 0.09485 0.0
H2076 H 0.14192 0.74114 0.1095 0.0
H2077 H 0.1365 0.77074 0.00041 0.0
H2078 H 0.14615 0.79605 0.00611 0.0
H2079 H 0.12174 0.77915 0.01461 0.0
C2080 C 0.31509 0.37422 0.00267 0.0
C2081 C 0.32951 0.38413 0.02129 0.0
C2082 C 0.29585 0.36861 0.00825 0.0
C2083 C 0.2909 0.3722 0.03345 0.0
C2084 C 0.30554 0.38214 0.05229 0.0
C2085 C 0.32467 0.38834 0.04574 0.0
C2086 C 0.28087 0.35885 0.98726 0.0
C2087 C 0.30098 0.38577 0.0797 0.0
C2088 C 0.24605 0.37164 0.05716 0.0
C2089 C 0.2371 0.35428 0.07087 0.0
C2090 C 0.26255 0.37682 0.04199 0.0
C2091 C 0.27046 0.36457 0.04123 0.0
C2092 C 0.26014 0.34612 0.05259 0.0
C2093 C 0.24338 0.34109 0.06679 0.0
C2094 C 0.27254 0.3962 0.02903 0.0
C2095 C 0.26804 0.33265 0.05289 0.0
H2096 H 0.31893 0.37119 0.98362 0.0
H2097 H 0.33587 0.39598 0.06012 0.0
H2098 H 0.27114 0.34367 0.9926 0.0
H2099 H 0.27198 0.36577 0.98555 0.0
H2100 H 0.28732 0.35929 0.96786 0.0
H2101 H 0.31395 0.39309 0.09225 0.0
H2102 H 0.29415 0.39475 0.07895 0.0
H2103 H 0.29066 0.37201 0.08911 0.0
H2104 H 0.24127 0.38189 0.06024 0.0
H2105 H 0.23642 0.32762 0.07735 0.0
H2106 H 0.27879 0.39555 0.00994 0.0
H2107 H 0.28441 0.40649 0.04174 0.0
H2108 H 0.2626 0.40178 0.02582 0.0
H2109 H 0.27353 0.3318 0.03334 0.0
H2110 H 0.25711 0.31797 0.05908 0.0
H2111 H 0.28021 0.33814 0.06684 0.0
C2112 C 0.75704 0.72093 0.37836 0.0
C2113 C 0.74542 0.71314 0.35627 0.0
C2114 C 0.77 0.71504 0.38588 0.0
C2115 C 0.7721 0.70169 0.37016 0.0
C2116 C 0.76114 0.69462 0.34688 0.0
C2117 C 0.74749 0.70002 0.34061 0.0
C2118 C 0.78073 0.72243 0.41141 0.0
C2119 C 0.76338 0.68105 0.32882 0.0
C2120 C 0.81597 0.70072 0.39434 0.0
C2121 C 0.80754 0.68571 0.41247 0.0
C2122 C 0.80449 0.70475 0.37771 0.0
C2123 C 0.78427 0.69391 0.38003 0.0
C2124 C 0.77587 0.67742 0.3961 0.0
C2125 C 0.78765 0.6733 0.41165 0.0
C2126 C 0.81397 0.72157 0.35929 0.0
C2127 C 0.75442 0.66536 0.39924 0.0
H2128 H 0.75533 0.73102 0.39051 0.0
H2129 H 0.73859 0.69414 0.32334 0.0
H2130 H 0.77745 0.71025 0.42465 0.0
H2131 H 0.79638 0.73016 0.40779 0.0
H2132 H 0.77701 0.73229 0.42168 0.0
H2133 H 0.76047 0.68318 0.30819 0.0
H2134 H 0.77795 0.68287 0.32996 0.0
H2135 H 0.75283 0.66609 0.33425 0.0
H2136 H 0.83135 0.71021 0.39458 0.0
H2137 H 0.78114 0.66135 0.42517 0.0
H2138 H 0.81398 0.73412 0.3682 0.0
H2139 H 0.80599 0.71829 0.34052 0.0
H2140 H 0.82904 0.72554 0.35518 0.0
H2141 H 0.74884 0.67404 0.40856 0.0
H2142 H 0.75019 0.65248 0.41149 0.0
H2143 H 0.74745 0.66065 0.37984 0.0
C2144 C 0.33844 0.04924 0.35065 0.0
C2145 C 0.32509 0.03431 0.36646 0.0
C2146 C 0.34303 0.06833 0.35521 0.0
C2147 C 0.33484 0.07263 0.37692 0.0
C2148 C 0.3214 0.05748 0.39295 0.0
C2149 C 0.31639 0.03853 0.38713 0.0
C2150 C 0.35673 0.08386 0.33695 0.0
C2151 C 0.31274 0.06132 0.41684 0.0
C2152 C 0.35927 0.11897 0.4151 0.0
C2153 C 0.34609 0.12539 0.41222 0.0
C2154 C 0.35677 0.10262 0.40189 0.0
C2155 C 0.34112 0.09286 0.38451 0.0
C2156 C 0.32951 0.10101 0.37861 0.0
C2157 C 0.33194 0.11706 0.39288 0.0
C2158 C 0.36936 0.09445 0.40932 0.0
C2159 C 0.31333 0.09169 0.35915 0.0
H2160 H 0.34503 0.04594 0.33446 0.0
H2161 H 0.30612 0.02698 0.39943 0.0
H2162 H 0.35148 0.09386 0.3322 0.0
H2163 H 0.37088 0.09229 0.34657 0.0
H2164 H 0.35878 0.07787 0.31841 0.0
H2165 H 0.30301 0.04801 0.42771 0.0
H2166 H 0.32425 0.07122 0.43034 0.0
H2167 H 0.30451 0.06835 0.41099 0.0
H2168 H 0.37025 0.12545 0.43005 0.0
H2169 H 0.3217 0.12195 0.39058 0.0
H2170 H 0.37401 0.0898 0.39172 0.0
H2171 H 0.36108 0.08164 0.42184 0.0
H2172 H 0.38229 0.10492 0.42033 0.0
H2173 H 0.31753 0.08607 0.34207 0.0
H2174 H 0.30885 0.10189 0.3521 0.0
H2175 H 0.30081 0.07945 0.36858 0.0
C2176 C 0.99549 0.28298 0.38154 0.0
C2177 C 1.00013 0.29424 0.35895 0.0
C2178 C 0.97647 0.26914 0.38714 0.0
C2179 C 0.96176 0.2658 0.36906 0.0
C2180 C 0.96651 0.27665 0.34562 0.0
C2181 C 0.98562 0.29111 0.34113 0.0
C2182 C 0.9721 0.25845 0.41283 0.0
C2183 C 0.95145 0.27297 0.32533 0.0
C2184 C 0.91804 0.2188 0.38759 0.0
C2185 C 0.90876 0.22535 0.4043 0.0
C2186 C 0.93418 0.23186 0.37301 0.0
C2187 C 0.94144 0.25182 0.37602 0.0
C2188 C 0.93072 0.25821 0.39053 0.0
C2189 C 0.91431 0.24483 0.40408 0.0
C2190 C 0.94461 0.22437 0.35668 0.0
C2191 C 0.93794 0.27925 0.39492 0.0
H2192 H 1.00673 0.28547 0.39534 0.0
H2193 H 0.98929 0.29969 0.32348 0.0
H2194 H 0.96146 0.26048 0.42409 0.0
H2195 H 0.96573 0.24289 0.40913 0.0
H2196 H 0.98507 0.26329 0.42515 0.0
H2197 H 0.95779 0.28097 0.3069 0.0
H2198 H 0.943 0.25745 0.32078 0.0
H2199 H 0.94133 0.2773 0.33309 0.0
H2200 H 0.91386 0.20377 0.38782 0.0
H2201 H 0.90718 0.24989 0.41719 0.0
H2202 H 0.9567 0.22524 0.36815 0.0
H2203 H 0.9506 0.23307 0.33869 0.0
H2204 H 0.93502 0.20917 0.35102 0.0
H2205 H 0.95002 0.28496 0.40906 0.0
H2206 H 0.92663 0.28183 0.403 0.0
H2207 H 0.94339 0.28746 0.37649 0.0
C2208 C 0.06284 0.42551 0.3493 0.0
C2209 C 0.05643 0.40941 0.33309 0.0
C2210 C 0.05891 0.44022 0.34315 0.0
C2211 C 0.0493 0.43926 0.31948 0.0
C2212 C 0.04237 0.4227 0.30344 0.0
C2213 C 0.04569 0.4078 0.31076 0.0
C2214 C 0.06571 0.45708 0.36147 0.0
C2215 C 0.03256 0.42124 0.27765 0.0
C2216 C 0.0295 0.47088 0.29661 0.0
C2217 C 0.04419 0.48343 0.27985 0.0
C2218 C 0.03165 0.45753 0.31196 0.0
C2219 C 0.04856 0.45633 0.3096 0.0
C2220 C 0.06401 0.47019 0.29447 0.0
C2221 C 0.06174 0.48377 0.28024 0.0
C2222 C 1.01522 0.44373 0.32895 0.0
C2223 C 0.08217 0.46936 0.29079 0.0
H2224 H 0.07109 0.42668 0.36668 0.0
H2225 H 0.0409 0.3954 0.29816 0.0
H2226 H 0.07888 0.46945 0.3535 0.0
H2227 H 0.05474 0.46148 0.36337 0.0
H2228 H 0.06904 0.4538 0.38125 0.0
H2229 H 0.02775 0.40731 0.2677 0.0
H2230 H 1.01993 0.42303 0.28074 0.0
H2231 H 0.04252 0.43291 0.2644 0.0
H2232 H 1.01584 0.47042 0.29614 0.0
H2233 H 0.07301 0.49335 0.267 0.0
H2234 H 1.02054 0.4408 0.34744 0.0
H2235 H 1.0068 0.42994 0.31843 0.0
H2236 H 1.00549 0.44932 0.33377 0.0
H2237 H 0.08818 0.4686 0.30997 0.0
H2238 H 0.0933 0.48196 0.27991 0.0
H2239 H 0.07889 0.45622 0.27969 0.0
C2240 C 0.6163 0.64433 0.35165 0.0
C2241 C 0.63262 0.65401 0.33588 0.0
C2242 C 0.60167 0.62573 0.3452 0.0
C2243 C 0.60295 0.61715 0.32162 0.0
C2244 C 0.61984 0.62665 0.30624 0.0
C2245 C 0.63465 0.64482 0.3139 0.0
C2246 C 0.58445 0.61573 0.36289 0.0
C2247 C 0.62166 0.61837 0.28056 0.0
C2248 C 0.57022 0.56655 0.29643 0.0
C2249 C 0.55854 0.56975 0.27932 0.0
C2250 C 0.58364 0.58144 0.31257 0.0
C2251 C 0.58574 0.59996 0.31071 0.0
C2252 C 0.57273 0.60262 0.29515 0.0
C2253 C 0.55908 0.58739 0.28007 0.0
C2254 C 0.5965 0.57771 0.33 0.0
C2255 C 0.57452 0.62209 0.29208 0.0
H2256 H 0.61482 0.65145 0.36878 0.0
H2257 H 0.64723 0.65243 0.30162 0.0
H2258 H 0.57255 0.61734 0.35488 0.0
H2259 H 0.57942 0.60019 0.3641 0.0
H2260 H 0.58766 0.62189 0.38298 0.0
H2261 H 0.63597 0.62719 0.27144 0.0
H2262 H 0.61915 0.60368 0.28351 0.0
H2263 H 0.61061 0.61736 0.26665 0.0
H2264 H 0.5699 0.55296 0.29577 0.0
H2265 H 0.55007 0.58983 0.26671 0.0
H2266 H 0.59952 0.58582 0.34864 0.0
H2267 H 0.61036 0.58246 0.31995 0.0
H2268 H 0.59004 0.56222 0.3345 0.0
H2269 H 0.57466 0.62832 0.31148 0.0
H2270 H 0.56265 0.62149 0.2803 0.0
H2271 H 0.58827 0.63194 0.28223 0.0
C2272 C 0.39144 0.96506 0.35274 0.0
C2273 C 0.3835 0.97585 0.34309 0.0
C2274 C 0.40941 0.96843 0.34404 0.0
C2275 C 0.41928 0.98236 0.32444 0.0
C2276 C 0.41168 0.99386 0.31554 0.0
C2277 C 0.39403 0.99067 0.32532 0.0
C2278 C 0.41735 0.95641 0.35487 0.0
C2279 C 0.42149 1.00862 0.29428 0.0
C2280 C 0.46997 1.00038 0.29952 0.0
C2281 C 0.46619 0.98958 0.27653 0.0
C2282 C 0.45499 0.99711 0.31681 0.0
C2283 C 0.43589 0.9831 0.31044 0.0
C2284 C 0.43239 0.97115 0.28835 0.0
C2285 C 0.44763 0.97438 0.27193 0.0
C2286 C 0.45945 1.00961 0.34075 0.0
C2287 C 0.41232 0.95617 0.2805 0.0
H2288 H 0.38342 0.95372 0.36674 0.0
H2289 H 0.38789 0.99898 0.31777 0.0
H2290 H 0.4153 0.94529 0.34037 0.0
H2291 H 0.43296 0.96536 0.3586 0.0
H2292 H 0.41011 0.94914 0.37336 0.0
H2293 H 0.41429 0.01707 0.29053 0.0
H2294 H 0.43661 0.01861 0.29964 0.0
H2295 H 0.42155 1.00137 0.2758 0.0
H2296 H 0.4843 1.01224 0.30299 0.0
H2297 H 0.44475 0.9661 0.25403 0.0
H2298 H 0.45061 1.00119 0.35768 0.0
H2299 H 0.45605 0.0211 0.33675 0.0
H2300 H 0.47482 0.01645 0.34619 0.0
H2301 H 0.40472 0.94658 0.29721 0.0
H2302 H 0.41219 0.94729 0.26377 0.0
H2303 H 0.40413 0.9633 0.27479 0.0
C2304 C 0.63456 0.99671 0.3356 0.0
C2305 C 0.63622 0.98351 0.3195 0.0
C2306 C 0.62069 1.00206 0.3304 0.0
C2307 C 0.60887 0.99469 0.30792 0.0
C2308 C 0.61071 0.98147 0.29154 0.0
C2309 C 0.62405 0.97577 0.29786 0.0
C2310 C 0.61865 0.01552 0.34893 0.0
C2311 C 0.59889 0.97366 0.26691 0.0
C2312 C 0.5622 0.99266 0.29069 0.0
C2313 C 0.56857 1.00709 0.2717 0.0
C2314 C 0.57541 0.98983 0.30529 0.0
C2315 C 0.5953 1.00139 0.3002 0.0
C2316 C 0.60172 0.01737 0.28334 0.0
C2317 C 0.58825 0.02022 0.26971 0.0
C2318 C 0.56796 0.97321 0.32407 0.0
C2319 C 0.62267 0.02995 0.27683 0.0
H2320 H 0.64382 1.00253 0.35255 0.0
H2321 H 0.62537 0.96562 0.28535 0.0
H2322 H 0.62288 0.02927 0.33895 0.0
H2323 H 0.60346 1.00933 0.35494 0.0
H2324 H 0.6276 0.01853 0.36676 0.0
H2325 H 0.60257 0.96407 0.25582 0.0
H2326 H 0.58345 0.9655 0.27192 0.0
H2327 H 0.60112 0.98562 0.2539 0.0
H2328 H 0.54702 0.98248 0.29234 0.0
H2329 H 0.59319 0.03146 0.25511 0.0
H2330 H 0.57739 0.9769 0.3415 0.0
H2331 H 0.56772 0.96083 0.31421 0.0
H2332 H 0.55317 0.96874 0.33064 0.0
H2333 H 0.63165 0.03375 0.29468 0.0
H2334 H 0.62553 0.04337 0.26685 0.0
H2335 H 0.6272 0.02202 0.26359 0.0
C2336 C 0.05432 0.65242 0.3392 0.0
C2337 C 0.05857 0.66581 0.31917 0.0
C2338 C 0.05094 0.63386 0.3335 0.0
C2339 C 0.05136 0.62854 0.30711 0.0
C2340 C 0.05567 0.64217 0.28691 0.0
C2341 C 0.05947 0.6607 0.29325 0.0
C2342 C 0.04689 0.61996 0.35562 0.0
C2343 C 0.0559 0.63709 0.25846 0.0
C2344 C 0.05589 0.58661 0.28173 0.0
C2345 C 0.03704 0.57412 0.27366 0.0
C2346 C 0.06058 0.60372 0.29512 0.0
C2347 C 0.04614 0.6085 0.30003 0.0
C2348 C 0.02684 0.59498 0.29413 0.0
C2349 C 0.02254 0.5779 0.28129 0.0
C2350 C 0.08124 0.61742 0.30186 0.0
C2351 C 1.01095 0.59941 0.29863 0.0
H2352 H 0.05387 0.65654 0.3593 0.0
H2353 H 0.06287 0.67117 0.27785 0.0
H2354 H 0.03214 0.60762 0.3538 0.0
H2355 H 0.05683 0.61421 0.35456 0.0
H2356 H 0.04839 0.6267 0.37513 0.0
H2357 H 0.0594 0.64929 0.24514 0.0
H2358 H 0.06658 0.63244 0.25541 0.0
H2359 H 0.04169 0.62493 0.25285 0.0
H2360 H 0.06715 0.58382 0.27571 0.0
H2361 H 1.00796 0.56825 0.27498 0.0
H2362 H 0.08244 0.62408 0.32132 0.0
H2363 H 0.08745 0.62909 0.28713 0.0
H2364 H 0.08988 0.61018 0.30194 0.0
H2365 H 1.01194 0.60539 0.31851 0.0
H2366 H 0.99656 0.58652 0.29626 0.0
H2367 H 1.01233 0.61037 0.28431 0.0
C2368 C 0.38108 0.41557 0.30578 0.0
C2369 C 0.37741 0.40729 0.33069 0.0
C2370 C 0.39964 0.42953 0.29835 0.0
C2371 C 0.41483 0.43601 0.31672 0.0
C2372 C 0.41096 0.42834 0.34246 0.0
C2373 C 0.39233 0.41368 0.34896 0.0
C2374 C 0.4031 0.43674 0.27045 0.0
C2375 C 0.42649 0.43539 0.36297 0.0
C2376 C 0.46224 0.45339 0.28263 0.0
C2377 C 0.46775 0.47256 0.27743 0.0
C2378 C 0.44574 0.44159 0.29717 0.0
C2379 C 0.43484 0.44932 0.30778 0.0
C2380 C 0.4418 0.46928 0.3056 0.0
C2381 C 0.45808 0.48068 0.29008 0.0
C2382 C 0.43885 0.42041 0.29846 0.0
C2383 C 0.43117 0.4783 0.3178 0.0
H2384 H 0.36947 0.41055 0.29171 0.0
H2385 H 0.38937 0.40738 0.36835 0.0
H2386 H 0.40919 0.45248 0.27019 0.0
H2387 H 0.41368 0.43368 0.26096 0.0
H2388 H 0.38979 0.43005 0.25854 0.0
H2389 H 0.42046 0.43115 0.38301 0.0
H2390 H 0.43588 0.42927 0.35921 0.0
H2391 H 0.43556 0.45122 0.36219 0.0
H2392 H 0.4699 0.44715 0.27317 0.0
H2393 H 0.46232 0.4955 0.28627 0.0
H2394 H 0.4259 0.41253 0.28604 0.0
H2395 H 0.43479 0.41501 0.31874 0.0
H2396 H 0.44986 0.417 0.29147 0.0
H2397 H 0.41876 0.47542 0.30531 0.0
H2398 H 0.44047 0.49406 0.31974 0.0
H2399 H 0.42559 0.4721 0.33743 0.0
C2400 C 0.33204 0.28796 0.37038 0.0
C2401 C 0.31663 0.28491 0.35447 0.0
C2402 C 0.33438 0.27258 0.37833 0.0
C2403 C 0.32139 0.25378 0.36937 0.0
C2404 C 0.30665 0.2509 0.3517 0.0
C2405 C 0.3042 0.26643 0.3449 0.0
C2406 C 0.35005 0.27629 0.39766 0.0
C2407 C 0.29299 0.2313 0.34083 0.0
C2408 C 0.33849 0.219 0.38708 0.0
C2409 C 0.32919 0.21204 0.4111 0.0
C2410 C 0.33478 0.23131 0.37176 0.0
C2411 C 0.32191 0.23712 0.38119 0.0
C2412 C 0.31125 0.22867 0.40427 0.0
C2413 C 0.31484 0.21602 0.41869 0.0
C2414 C 0.34579 0.2393 0.34666 0.0
C2415 C 0.29757 0.23453 0.41536 0.0
H2416 H 0.3416 0.30221 0.3779 0.0
H2417 H 0.29237 0.26407 0.33235 0.0
H2418 H 0.34359 0.26869 0.41629 0.0
H2419 H 0.35911 0.27063 0.38999 0.0
H2420 H 0.35936 0.29178 0.40199 0.0
H2421 H 0.28485 0.23205 0.32376 0.0
H2422 H 0.30084 0.22388 0.33477 0.0
H2423 H 0.28259 0.22245 0.3562 0.0
H2424 H 0.34973 0.21608 0.38131 0.0
H2425 H 0.30777 0.21073 0.43741 0.0
H2426 H 0.35795 0.25392 0.35028 0.0
H2427 H 0.33658 0.24036 0.33139 0.0
H2428 H 0.35164 0.23033 0.33909 0.0
H2429 H 0.30576 0.24966 0.42197 0.0
H2430 H 0.28932 0.22552 0.43227 0.0
H2431 H 0.28734 0.2336 0.40016 0.0
C2432 C 0.75913 0.0415 0.3824 0.0
C2433 C 0.75144 0.03736 0.35711 0.0
C2434 C 0.77274 0.06026 0.38968 0.0
C2435 C 0.77947 0.07514 0.37082 0.0
C2436 C 0.77237 0.0708 0.34481 0.0
C2437 C 0.75806 0.052 0.33841 0.0
C2438 C 0.77935 0.06425 0.41784 0.0
C2439 C 0.77977 0.08602 0.32386 0.0
C2440 C 0.79608 0.12338 0.40226 0.0
C2441 C 0.81526 0.12929 0.40811 0.0
C2442 C 0.78452 0.10638 0.38849 0.0
C2443 C 0.79253 0.09534 0.37932 0.0
C2444 C 0.8125 0.10255 0.38219 0.0
C2445 C 0.82364 0.11937 0.39692 0.0
C2446 C 0.76331 0.09923 0.38649 0.0
C2447 C 0.8218 0.09172 0.37158 0.0
H2448 H 0.75396 0.0301 0.3968 0.0
H2449 H 0.75225 0.04867 0.31872 0.0
H2450 H 0.79509 0.07049 0.41886 0.0
H2451 H 0.77597 0.07488 0.42637 0.0
H2452 H 0.7725 0.05113 0.43013 0.0
H2453 H 0.77492 0.07983 0.30399 0.0
H2454 H 0.77468 0.09627 0.32767 0.0
H2455 H 0.79566 0.09427 0.32416 0.0
H2456 H 0.78963 0.13118 0.41065 0.0
H2457 H 0.83845 0.12388 0.40128 0.0
H2458 H 0.75543 0.08667 0.39958 0.0
H2459 H 0.7581 0.09445 0.36628 0.0
H2460 H 0.7597 0.11033 0.39225 0.0
H2461 H 0.81886 0.07973 0.38497 0.0
H2462 H 0.83757 0.10106 0.36991 0.0
H2463 H 0.81588 0.08552 0.35206 0.0
C2464 C 0.98421 0.7082 0.36601 0.0
C2465 C 0.99609 0.72439 0.35099 0.0
C2466 C 0.96654 0.70515 0.37555 0.0
C2467 C 0.9603 0.71827 0.36918 0.0
C2468 C 0.97164 0.73389 0.35242 0.0
C2469 C 0.98958 0.73698 0.34396 0.0
C2470 C 0.95514 0.68853 0.39381 0.0
C2471 C 0.96523 0.74778 0.34428 0.0
C2472 C 0.90853 0.69949 0.38971 0.0
C2473 C 0.91113 0.7075 0.41479 0.0
C2474 C 0.92438 0.70419 0.37337 0.0
C2475 C 0.94316 0.7168 0.3827 0.0
C2476 C 0.94559 0.72624 0.40701 0.0
C2477 C 0.92952 0.72168 0.42252 0.0
C2478 C 0.92109 0.69448 0.34709 0.0
C2479 C 0.96525 0.73962 0.418 0.0
H2480 H 0.98923 0.6985 0.37158 0.0
H2481 H 0.99866 0.74943 0.33212 0.0
H2482 H 0.95426 0.694 0.41343 0.0
H2483 H 0.94029 0.67964 0.38647 0.0
H2484 H 0.9616 0.67925 0.39607 0.0
H2485 H 0.97373 0.75683 0.32753 0.0
H2486 H 0.94986 0.74001 0.33875 0.0
H2487 H 0.96691 0.75733 0.36096 0.0
H2488 H 0.89434 0.68844 0.38374 0.0
H2489 H 0.93152 0.72785 0.44196 0.0
H2490 H 0.92392 0.6824 0.34863 0.0
H2491 H 0.931 0.70455 0.33215 0.0
H2492 H 0.90612 0.6887 0.34027 0.0
H2493 H 0.97252 0.73138 0.42267 0.0
H2494 H 0.96464 0.74694 0.43612 0.0
H2495 H 0.9742 0.75065 0.40338 0.0
C2496 C 0.41819 0.05159 0.70392 0.0
C2497 C 0.40562 0.04242 0.68308 0.0
C2498 C 0.43199 0.0467 0.71104 0.0
C2499 C 0.43392 0.03289 0.69614 0.0
C2500 C 0.42182 0.02425 0.67417 0.0
C2501 C 0.40741 0.02874 0.66833 0.0
C2502 C 0.44399 0.0558 0.73521 0.0
C2503 C 0.42374 1.01005 0.65703 0.0
C2504 C 0.48062 0.03605 0.7163 0.0
C2505 C 0.47415 0.02232 0.73627 0.0
C2506 C 0.46746 0.03814 0.70046 0.0
C2507 C 0.44754 0.02665 0.70538 0.0
C2508 C 0.44107 1.01132 0.72339 0.0
C2509 C 0.45448 1.00913 0.73821 0.0
C2510 C 0.47491 0.0538 0.68017 0.0
C2511 C 0.42005 0.9987 0.72945 0.0
H2512 H 0.41669 0.0621 0.71537 0.0
H2513 H 0.39775 0.02176 0.65205 0.0
H2514 H 0.44203 0.04454 0.7494 0.0
H2515 H 0.45938 0.06389 0.72992 0.0
H2516 H 0.44023 0.06576 0.7451 0.0
H2517 H 0.41865 1.01005 0.63681 0.0
H2518 H 0.43878 1.01316 0.6561 0.0
H2519 H 0.4148 0.99545 0.66512 0.0
H2520 H 0.49581 0.0462 0.71458 0.0
H2521 H 0.44948 0.99834 0.75347 0.0
H2522 H 0.47464 0.06645 0.68821 0.0
H2523 H 0.46573 0.049 0.66241 0.0
H2524 H 0.48988 0.05832 0.67447 0.0
H2525 H 0.41468 1.00729 0.73955 0.0
H2526 H 0.41731 0.98644 0.74224 0.0
H2527 H 0.4117 0.99302 0.71116 0.0
C2528 C 1.00481 0.37933 0.70826 0.0
C2529 C 0.99249 0.36991 0.68723 0.0
C2530 C 1.00783 0.39715 0.71713 0.0
C2531 C 0.99888 0.4061 0.70401 0.0
C2532 C 0.98789 0.39742 0.68122 0.0
C2533 C 0.98443 0.3792 0.67348 0.0
C2534 C 1.01929 0.40557 0.74186 0.0
C2535 C 0.9789 0.40687 0.66583 0.0
C2536 C 0.98444 0.43349 0.75004 0.0
C2537 C 1.00065 0.45187 0.74962 0.0
C2538 C 0.98328 0.41873 0.73428 0.0
C2539 C 0.9984 0.42256 0.71675 0.0
C2540 C 1.01379 0.44164 0.71403 0.0
C2541 C 1.01489 0.45609 0.73083 0.0
C2542 C 0.96669 0.39867 0.73828 0.0
C2543 C 0.02971 0.44657 0.69467 0.0
H2544 H 1.01098 0.37213 0.719 0.0
H2545 H 0.97503 0.37203 0.65702 0.0
H2546 H 0.03054 0.42066 0.7386 0.0
H2547 H 1.00973 0.40551 0.75757 0.0
H2548 H 0.02621 0.39746 0.74886 0.0
H2549 H 0.97474 0.40073 0.64582 0.0
H2550 H 0.96585 0.40474 0.67606 0.0
H2551 H 0.98889 0.42252 0.66424 0.0
H2552 H 0.97334 0.43027 0.76445 0.0
H2553 H 0.02745 0.47026 0.73044 0.0
H2554 H 0.97207 0.38943 0.74622 0.0
H2555 H 0.95957 0.39239 0.71935 0.0
H2556 H 0.95582 0.39826 0.75204 0.0
H2557 H 0.04003 0.44273 0.70304 0.0
H2558 H 0.03759 0.46212 0.69014 0.0
H2559 H 0.02406 0.43841 0.67616 0.0
C2560 C 0.65322 0.62922 0.68332 0.0
C2561 C 0.66812 0.63134 0.6997 0.0
C2562 C 0.63414 0.61471 0.68794 0.0
C2563 C 0.62981 0.6027 0.71017 0.0
C2564 C 0.64489 0.60497 0.7268 0.0
C2565 C 0.66385 0.61895 0.72102 0.0
C2566 C 0.61865 0.61225 0.66912 0.0
C2567 C 0.641 0.59298 0.75122 0.0
C2568 C 0.58297 0.58039 0.74718 0.0
C2569 C 0.57696 0.56084 0.74482 0.0
C2570 C 0.59934 0.59432 0.7341 0.0
C2571 C 0.60957 0.58853 0.71743 0.0
C2572 C 0.60187 0.56874 0.71203 0.0
C2573 C 0.58577 0.55507 0.72613 0.0
C2574 C 0.60703 0.61511 0.74103 0.0
C2575 C 0.61175 0.56194 0.69342 0.0
H2576 H 0.65655 0.63867 0.66663 0.0
H2577 H 0.67534 0.62062 0.73376 0.0
H2578 H 0.60982 0.59699 0.66333 0.0
H2579 H 0.60899 0.61646 0.67876 0.0
H2580 H 0.62463 0.62106 0.65118 0.0
H2581 H 0.65424 0.597 0.76254 0.0
H2582 H 0.63083 0.59463 0.76411 0.0
H2583 H 0.63425 0.57762 0.7459 0.0
H2584 H 0.57619 0.58486 0.76174 0.0
H2585 H 0.58124 0.54 0.72432 0.0
H2586 H 0.61213 0.62428 0.72335 0.0
H2587 H 0.61946 0.6199 0.75441 0.0
H2588 H 0.59611 0.61744 0.75098 0.0
H2589 H 0.61748 0.57155 0.67618 0.0
H2590 H 0.60188 0.54711 0.68654 0.0
H2591 H 0.62398 0.56207 0.70354 0.0
C2592 C 0.71349 0.7512 0.68676 0.0
C2593 C 0.72424 0.74697 0.66922 0.0
C2594 C 0.70786 0.76466 0.68022 0.0
C2595 C 0.71226 0.77326 0.65505 0.0
C2596 C 0.72307 0.76887 0.63732 0.0
C2597 C 0.72929 0.75614 0.64488 0.0
C2598 C 0.69715 0.76957 0.70012 0.0
C2599 C 0.72758 0.77711 0.60996 0.0
C2600 C 0.68143 0.78852 0.61845 0.0
C2601 C 0.69437 0.80809 0.61467 0.0
C2602 C 0.68641 0.77713 0.6335 0.0
C2603 C 0.70448 0.78568 0.64604 0.0
C2604 C 0.71636 0.8059 0.64544 0.0
C2605 C 0.7113 0.8169 0.62939 0.0
C2606 C 0.67336 0.75567 0.63296 0.0
C2607 C 0.73527 0.81572 0.65968 0.0
H2608 H 0.70978 0.74424 0.70573 0.0
H2609 H 0.73757 0.7528 0.63133 0.0
H2610 H 0.70309 0.7853 0.70099 0.0
H2611 H 0.6819 0.76299 0.69432 0.0
H2612 H 0.6978 0.76434 0.72001 0.0
H2613 H 0.73558 0.77175 0.59833 0.0
H2614 H 0.71412 0.7734 0.59944 0.0
H2615 H 0.73626 0.79294 0.61089 0.0
H2616 H 0.66828 0.78172 0.60714 0.0
H2617 H 0.72135 0.83201 0.62656 0.0
H2618 H 0.67181 0.74947 0.65277 0.0
H2619 H 0.67971 0.7492 0.62011 0.0
H2620 H 0.65889 0.75153 0.62536 0.0
H2621 H 0.73412 0.80893 0.679 0.0
H2622 H 0.74039 0.83119 0.66267 0.0
H2623 H 0.74617 0.81443 0.64799 0.0
C2624 C 0.26955 0.97978 0.68623 0.0
C2625 C 0.28809 0.98641 0.67641 0.0
C2626 C 0.25411 0.962 0.67833 0.0
C2627 C 0.25717 0.95087 0.65955 0.0
C2628 C 0.27601 0.95719 0.65037 0.0
C2629 C 0.29125 0.97474 0.65918 0.0
C2630 C 0.23442 0.95554 0.68926 0.0
C2631 C 0.27993 0.94595 0.63005 0.0
C2632 C 0.22336 0.89918 0.63986 0.0
C2633 C 0.21655 0.90176 0.61587 0.0
C2634 C 0.23524 0.91499 0.65584 0.0
C2635 C 0.24066 0.93375 0.64722 0.0
C2636 C 0.2322 0.93613 0.62428 0.0
C2637 C 0.2201 0.92008 0.60905 0.0
C2638 C 0.24336 0.91174 0.68064 0.0
C2639 C 0.23758 0.95578 0.61415 0.0
H2640 H 0.26702 0.98866 0.69974 0.0
H2641 H 0.30551 0.9798 0.65143 0.0
H2642 H 0.22553 0.95727 0.67414 0.0
H2643 H 0.22717 0.94015 0.69459 0.0
H2644 H 0.23497 0.96397 0.70681 0.0
H2645 H 0.29544 0.95242 0.62568 0.0
H2646 H 0.27442 0.93104 0.63681 0.0
H2647 H 0.27232 0.94525 0.6116 0.0
H2648 H 0.22082 0.88505 0.64501 0.0
H2649 H 0.21499 0.92208 0.59032 0.0
H2650 H 0.24397 0.92148 0.69645 0.0
H2651 H 0.25819 0.91482 0.67694 0.0
H2652 H 0.23476 0.8967 0.68752 0.0
H2653 H 0.2367 0.96472 0.63 0.0
H2654 H 0.22823 0.95511 0.59773 0.0
H2655 H 0.25261 0.96306 0.6071 0.0
C2656 C 0.05856 0.32698 0.6601 0.0
C2657 C 0.04698 0.31107 0.67579 0.0
C2658 C 0.07631 0.33018 0.65066 0.0
C2659 C 0.08288 0.31743 0.65761 0.0
C2660 C 0.07191 0.3022 0.67511 0.0
C2661 C 0.05397 0.29903 0.68368 0.0
C2662 C 0.08738 0.34647 0.63178 0.0
C2663 C 0.07864 0.28865 0.68372 0.0
C2664 C 0.11288 0.31302 0.60396 0.0
C2665 C 0.13143 0.32712 0.61123 0.0
C2666 C 0.09704 0.30883 0.61977 0.0
C2667 C 0.09983 0.3187 0.64379 0.0
C2668 C 0.11875 0.33144 0.65254 0.0
C2669 C 0.13438 0.33565 0.63599 0.0
C2670 C 0.07722 0.2952 0.60948 0.0
C2671 C 0.12241 0.34174 0.67841 0.0
H2672 H 0.05325 0.33632 0.65386 0.0
H2673 H 0.04517 0.28679 0.69602 0.0
H2674 H 0.10239 0.35542 0.63846 0.0
H2675 H 0.08777 0.34063 0.61223 0.0
H2676 H 0.08094 0.35576 0.62958 0.0
H2677 H 0.07046 0.27996 0.70091 0.0
H2678 H 0.07678 0.27875 0.66743 0.0
H2679 H 0.0941 0.29665 0.68877 0.0
H2680 H 0.11062 0.30645 0.58476 0.0
H2681 H 0.14868 0.34666 0.64157 0.0
H2682 H 0.06984 0.30331 0.60469 0.0
H2683 H 0.06855 0.28445 0.62456 0.0
H2684 H 0.07756 0.28754 0.59156 0.0
H2685 H 0.11943 0.3537 0.67646 0.0
H2686 H 0.13751 0.34777 0.68483 0.0
H2687 H 0.11279 0.33198 0.69384 0.0
C2688 C 0.2895 0.31079 0.63586 0.0
C2689 C 0.29959 0.316 0.65953 0.0
C2690 C 0.27593 0.31632 0.63007 0.0
C2691 C 0.27167 0.32659 0.64894 0.0
C2692 C 0.28131 0.3312 0.6734 0.0
C2693 C 0.29553 0.32625 0.67817 0.0
C2694 C 0.26656 0.31162 0.60337 0.0
C2695 C 0.27661 0.34133 0.69447 0.0
C2696 C 0.25271 0.35591 0.61654 0.0
C2697 C 0.23315 0.34237 0.61433 0.0
C2698 C 0.26535 0.35158 0.62968 0.0
C2699 C 0.25814 0.33351 0.64188 0.0
C2700 C 0.23803 0.32091 0.64292 0.0
C2701 C 0.22574 0.32537 0.62875 0.0
C2702 C 0.2866 0.36537 0.62742 0.0
C2703 C 0.22962 0.30193 0.65683 0.0
H2704 H 0.29268 0.30288 0.62147 0.0
H2705 H 0.30319 0.33005 0.69664 0.0
H2706 H 0.25085 0.30236 0.60545 0.0
H2707 H 0.26924 0.32496 0.59339 0.0
H2708 H 0.27195 0.30415 0.59064 0.0
H2709 H 0.28371 0.3419 0.71336 0.0
H2710 H 0.28123 0.35619 0.68827 0.0
H2711 H 0.26089 0.33398 0.69764 0.0
H2712 H 0.25846 0.36908 0.60537 0.0
H2713 H 0.21066 0.31482 0.62708 0.0
H2714 H 0.29285 0.35961 0.61317 0.0
H2715 H 0.29388 0.36705 0.64644 0.0
H2716 H 0.28974 0.37972 0.62055 0.0
H2717 H 0.23092 0.29146 0.64414 0.0
H2718 H 0.21421 0.29611 0.66133 0.0
H2719 H 0.23743 0.30328 0.67532 0.0
C2720 C 0.70886 0.98274 0.64699 0.0
C2721 C 0.72562 0.99513 0.66068 0.0
C2722 C 0.70554 0.96482 0.63807 0.0
C2723 C 0.71904 0.95891 0.64363 0.0
C2724 C 0.73531 0.97083 0.65907 0.0
C2725 C 0.73858 0.98893 0.66702 0.0
C2726 C 0.68816 0.95275 0.62128 0.0
C2727 C 0.74971 0.96484 0.66623 0.0
C2728 C 0.70096 0.90669 0.62571 0.0
C2729 C 0.70811 0.90866 0.60019 0.0
C2730 C 0.70556 0.92297 0.64112 0.0
C2731 C 0.71725 0.94152 0.63045 0.0
C2732 C 0.72572 0.94343 0.60551 0.0
C2733 C 0.72124 0.92699 0.59089 0.0
C2734 C 0.69684 0.9203 0.66801 0.0
C2735 C 0.73815 0.96283 0.59316 0.0
H2736 H 0.69884 0.98748 0.64198 0.0
H2737 H 0.75147 0.99838 0.67788 0.0
H2738 H 0.6928 0.9516 0.6012 0.0
H2739 H 0.6799 0.93804 0.62928 0.0
H2740 H 0.67853 0.95887 0.61991 0.0
H2741 H 0.7596 0.97401 0.68193 0.0
H2742 H 0.74234 0.94971 0.67284 0.0
H2743 H 0.75836 0.96589 0.64875 0.0
H2744 H 0.69074 0.89255 0.63291 0.0
H2745 H 0.72682 0.92851 0.57116 0.0
H2746 H 0.6846 0.92293 0.66715 0.0
H2747 H 0.70741 0.93069 0.68211 0.0
H2748 H 0.6915 0.90556 0.67548 0.0
H2749 H 0.72941 0.96967 0.58924 0.0
H2750 H 0.74462 0.96187 0.57441 0.0
H2751 H 0.74983 0.97234 0.60668 0.0
C2752 C 0.04867 0.7483 0.6777 0.0
C2753 C 0.04152 0.73012 0.66637 0.0
C2754 C 0.06683 0.76357 0.67083 0.0
C2755 C 0.07773 0.76083 0.65132 0.0
C2756 C 0.07088 0.74225 0.6407 0.0
C2757 C 0.05302 0.72706 0.64871 0.0
C2758 C 0.07391 0.78287 0.68353 0.0
C2759 C 0.08174 0.73869 0.61941 0.0
C2760 C 0.1073 0.80055 0.60327 0.0
C2761 C 0.12595 0.80438 0.60864 0.0
C2762 C 0.09161 0.7871 0.61786 0.0
C2763 C 0.09463 0.77763 0.63909 0.0
C2764 C 0.11365 0.78299 0.64642 0.0
C2765 C 0.12914 0.79616 0.63085 0.0
C2766 C 0.07168 0.7818 0.60897 0.0
C2767 C 0.11758 0.77392 0.66962 0.0
H2768 H 0.0399 0.75068 0.69159 0.0
H2769 H 0.0475 0.71305 0.63983 0.0
H2770 H 0.08938 0.78965 0.68825 0.0
H2771 H 0.0721 0.79248 0.66978 0.0
H2772 H 0.06589 0.78176 0.70177 0.0
H2773 H 0.07506 0.72328 0.61424 0.0
H2774 H 0.08225 0.74677 0.60155 0.0
H2775 H 0.09673 0.74392 0.62561 0.0
H2776 H 0.10484 0.807 0.58616 0.0
H2777 H 0.14352 0.79904 0.63504 0.0
H2778 H 0.06335 0.78287 0.6255 0.0
H2779 H 0.06403 0.76672 0.60208 0.0
H2780 H 0.07185 0.79108 0.5928 0.0
H2781 H 0.10797 0.77225 0.68623 0.0
H2782 H 0.13269 0.78251 0.67625 0.0
H2783 H 0.11483 0.75946 0.66413 0.0
C2784 C 0.97028 0.59355 0.67814 0.0
C2785 C 0.98281 0.61271 0.68505 0.0
C2786 C 0.97331 0.5788 0.68708 0.0
C2787 C 0.98895 0.58329 0.70389 0.0
C2788 C 1.00221 0.60272 0.70976 0.0
C2789 C 0.99908 0.61721 0.70001 0.0
C2790 C 0.95918 0.55836 0.67972 0.0
C2791 C 1.01897 0.60814 0.72784 0.0
C2792 C 0.98478 0.5501 0.75891 0.0
C2793 C 0.99801 0.54459 0.75122 0.0
C2794 C 0.98081 0.56176 0.74289 0.0
C2795 C 0.99009 0.56782 0.71832 0.0
C2796 C 1.00201 0.56073 0.70936 0.0
C2797 C 1.00598 0.54926 0.72608 0.0
C2798 C 0.96803 0.56896 0.75335 0.0
C2799 C 1.01171 0.56639 0.68299 0.0
H2800 H 0.95778 0.59 0.66629 0.0
H2801 H 1.00881 0.63198 0.70542 0.0
H2802 H 0.96674 0.55049 0.67454 0.0
H2803 H 0.94978 0.55096 0.6967 0.0
H2804 H 0.95 0.55754 0.66297 0.0
H2805 H 0.02871 0.62388 0.72891 0.0
H2806 H 1.01363 0.60276 0.74787 0.0
H2807 H 0.02732 0.60139 0.72124 0.0
H2808 H 0.97868 0.54648 0.77843 0.0
H2809 H 1.01633 0.54511 0.72024 0.0
H2810 H 0.95694 0.56672 0.73874 0.0
H2811 H 0.97671 0.58458 0.75713 0.0
H2812 H 0.9608 0.56173 0.77187 0.0
H2813 H 1.00171 0.5661 0.66783 0.0
H2814 H 1.01718 0.5568 0.67677 0.0
H2815 H 0.02398 0.58123 0.68405 0.0
C2816 C 0.41356 0.38335 0.7044 0.0
C2817 C 0.41767 0.37136 0.68924 0.0
C2818 C 0.42829 0.40117 0.71342 0.0
C2819 C 0.44757 0.40742 0.70644 0.0
C2820 C 0.45163 0.39588 0.68973 0.0
C2821 C 0.43669 0.37785 0.68171 0.0
C2822 C 0.42331 0.4128 0.73163 0.0
C2823 C 0.47184 0.40224 0.68109 0.0
C2824 C 0.48175 0.45972 0.72402 0.0
C2825 C 0.48805 0.45777 0.74879 0.0
C2826 C 0.46964 0.44343 0.70889 0.0
C2827 C 0.46345 0.42488 0.71913 0.0
C2828 C 0.47104 0.42303 0.74325 0.0
C2829 C 0.48338 0.43948 0.75759 0.0
C2830 C 0.46242 0.44607 0.68288 0.0
C2831 C 0.46479 0.40364 0.75515 0.0
H2832 H 0.39891 0.37838 0.71034 0.0
H2833 H 0.43992 0.36872 0.66972 0.0
H2834 H 0.42991 0.41392 0.75111 0.0
H2835 H 0.4292 0.42756 0.724 0.0
H2836 H 0.40761 0.40637 0.73426 0.0
H2837 H 0.47226 0.39314 0.66504 0.0
H2838 H 0.47907 0.41734 0.67435 0.0
H2839 H 0.48017 0.40151 0.69788 0.0
H2840 H 0.48517 0.47383 0.71732 0.0
H2841 H 0.48816 0.438 0.77686 0.0
H2842 H 0.44748 0.44303 0.6851 0.0
H2843 H 0.46236 0.43594 0.66809 0.0
H2844 H 0.47126 0.46092 0.67541 0.0
H2845 H 0.44938 0.39663 0.76038 0.0
H2846 H 0.47304 0.40465 0.77308 0.0
H2847 H 0.46647 0.39424 0.74084 0.0
C2848 C 0.65424 0.04206 0.70365 0.0
C2849 C 0.66701 0.05782 0.68856 0.0
C2850 C 0.63629 0.03951 0.71093 0.0
C2851 C 0.63066 0.05265 0.70209 0.0
C2852 C 0.64301 0.06784 0.68533 0.0
C2853 C 0.66121 0.07049 0.67924 0.0
C2854 C 0.62382 0.02338 0.72934 0.0
C2855 C 0.63731 0.08169 0.67457 0.0
C2856 C 0.57798 0.0346 0.7163 0.0
C2857 C 0.57927 0.04328 0.74058 0.0
C2858 C 0.59465 0.03885 0.70209 0.0
C2859 C 0.61291 0.0516 0.71288 0.0
C2860 C 0.61408 0.06162 0.73625 0.0
C2861 C 0.59725 0.05755 0.74954 0.0
C2862 C 0.59271 0.0285 0.67665 0.0
C2863 C 0.63313 0.07512 0.74883 0.0
H2864 H 0.65872 0.03231 0.71099 0.0
H2865 H 0.67099 0.08259 0.66734 0.0
H2866 H 0.6219 0.02935 0.74796 0.0
H2867 H 0.60941 1.01433 0.72069 0.0
H2868 H 0.63003 1.01414 0.73392 0.0
H2869 H 0.64686 0.09048 0.65838 0.0
H2870 H 0.62234 0.07389 0.66729 0.0
H2871 H 0.63801 0.09148 0.69036 0.0
H2872 H 0.56413 0.02341 0.70946 0.0
H2873 H 0.59823 0.06411 0.76848 0.0
H2874 H 0.59526 0.01639 0.68019 0.0
H2875 H 0.60348 0.03818 0.66218 0.0
H2876 H 0.57818 0.02267 0.6681 0.0
H2877 H 0.63988 0.06685 0.7558 0.0
H2878 H 0.63162 0.08293 0.76577 0.0
H2879 H 0.643 0.08574 0.73441 0.0
loop_
_geom_bond_atom_site_label_1
_geom_bond_atom_site_label_2
_geom_bond_distance
_geom_bond_site_symmetry_2
_ccdc_geom_bond_type
O0 Cd1 2.223 . S
O0 C8 1.315 . S
Cd1 O0 2.223 . S
Cd1 O4 2.297 . S
Cd1 O5 2.439 . S
Cd1 O11 2.240 1_554 S
Cd2 O3 2.240 . S
Cd2 O10 2.223 1_554 S
Cd2 O12 2.297 1_554 S
Cd2 O13 2.439 1_554 S
O3 Cd2 2.240 . S
O3 C8 1.279 1_655 S
O4 Cd1 2.297 . S
O4 C6 1.247 . S
O5 Cd1 2.439 . S
O5 C6 1.208 . S
C6 O4 1.247 . S
C6 O5 1.208 . S
C7 O12 1.247 . S
C7 O13 1.208 . S
C8 O0 1.315 . S
C8 O3 1.279 1_455 S
C9 O10 1.315 . S
C9 O11 1.279 1_655 S
O10 Cd2 2.223 1_556 S
O10 C9 1.315 . S
O11 Cd1 2.240 1_556 S
O11 C9 1.279 1_455 S
O12 Cd2 2.297 1_556 S
O12 C7 1.247 . S
O13 Cd2 2.439 1_556 S
O13 C7 1.208 . S
O14 Cd15 2.223 . S
O14 C22 1.315 . S
Cd15 O14 2.223 . S
Cd15 O18 2.297 . S
Cd15 O19 2.439 . S
Cd15 O25 2.240 1_554 S
Cd16 O17 2.240 . S
Cd16 O24 2.223 1_554 S
Cd16 O26 2.297 1_554 S
Cd16 O27 2.439 1_554 S
O17 Cd16 2.240 . S
O17 C22 1.279 . S
O18 Cd15 2.297 . S
O18 C20 1.247 . S
O19 Cd15 2.439 . S
O19 C20 1.208 . S
C20 O18 1.247 . S
C20 O19 1.208 . S
C21 O26 1.247 . S
C21 O27 1.208 . S
C22 O14 1.315 . S
C22 O17 1.279 . S
C23 O24 1.315 . S
C23 O25 1.279 . S
O24 Cd16 2.223 1_556 S
O24 C23 1.315 . S
O25 Cd15 2.240 1_556 S
O25 C23 1.279 . S
O26 Cd16 2.297 1_556 S
O26 C21 1.247 . S
O27 Cd16 2.439 1_556 S
O27 C21 1.208 . S
O28 Cd29 2.223 1_556 S
O28 C36 1.315 . S
Cd29 O28 2.223 1_554 S
Cd29 O32 2.297 1_554 S
Cd29 O33 2.439 1_554 S
Cd29 O39 2.240 . S
Cd30 O31 2.240 1_554 S
Cd30 O38 2.223 . S
Cd30 O40 2.297 . S
Cd30 O41 2.439 . S
O31 Cd30 2.240 1_556 S
O31 C36 1.279 1_565 S
O32 Cd29 2.297 1_556 S
O32 C34 1.247 . S
O33 Cd29 2.439 1_556 S
O33 C34 1.208 . S
C34 O32 1.247 . S
C34 O33 1.208 . S
C35 O40 1.247 . S
C35 O41 1.208 . S
C36 O28 1.315 . S
C36 O31 1.279 1_545 S
C37 O38 1.315 . S
C37 O39 1.279 1_565 S
O38 Cd30 2.223 . S
O38 C37 1.315 . S
O39 Cd29 2.240 . S
O39 C37 1.279 1_545 S
O40 Cd30 2.297 . S
O40 C35 1.247 . S
O41 Cd30 2.439 . S
O41 C35 1.208 . S
O42 Cd43 2.223 1_556 S
O42 C50 1.315 . S
Cd43 O42 2.223 1_554 S
Cd43 O46 2.297 1_554 S
Cd43 O47 2.439 1_554 S
Cd43 O53 2.240 . S
Cd44 O45 2.240 1_554 S
Cd44 O52 2.223 . S
Cd44 O54 2.297 . S
Cd44 O55 2.439 . S
O45 Cd44 2.240 1_556 S
O45 C50 1.279 1_455 S
O46 Cd43 2.297 1_556 S
O46 C48 1.247 . S
O47 Cd43 2.439 1_556 S
O47 C48 1.208 . S
C48 O46 1.247 . S
C48 O47 1.208 . S
C49 O54 1.247 . S
C49 O55 1.208 . S
C50 O42 1.315 . S
C50 O45 1.279 1_655 S
C51 O52 1.315 . S
C51 O53 1.279 1_455 S
O52 Cd44 2.223 . S
O52 C51 1.315 . S
O53 Cd43 2.240 . S
O53 C51 1.279 1_655 S
O54 Cd44 2.297 . S
O54 C49 1.247 . S
O55 Cd44 2.439 . S
O55 C49 1.208 . S
O56 Cd57 2.223 1_556 S
O56 C64 1.315 . S
Cd57 O56 2.223 1_554 S
Cd57 O60 2.297 1_554 S
Cd57 O61 2.439 1_554 S
Cd57 O67 2.240 . S
Cd58 O59 2.240 1_554 S
Cd58 O66 2.223 . S
Cd58 O68 2.297 . S
Cd58 O69 2.439 . S
O59 Cd58 2.240 1_556 S
O59 C64 1.279 . S
O60 Cd57 2.297 1_556 S
O60 C62 1.247 . S
O61 Cd57 2.439 1_556 S
O61 C62 1.208 . S
C62 O60 1.247 . S
C62 O61 1.208 . S
C63 O68 1.247 . S
C63 O69 1.208 . S
C64 O56 1.315 . S
C64 O59 1.279 . S
C65 O66 1.315 . S
C65 O67 1.279 . S
O66 Cd58 2.223 . S
O66 C65 1.315 . S
O67 Cd57 2.240 . S
O67 C65 1.279 . S
O68 Cd58 2.297 . S
O68 C63 1.247 . S
O69 Cd58 2.439 . S
O69 C63 1.208 . S
O70 Cd71 2.223 . S
O70 C78 1.315 . S
Cd71 O70 2.223 . S
Cd71 O74 2.297 . S
Cd71 O75 2.439 . S
Cd71 O81 2.240 1_554 S
Cd72 O73 2.240 . S
Cd72 O80 2.223 1_554 S
Cd72 O82 2.297 1_554 S
Cd72 O83 2.439 1_554 S
O73 Cd72 2.240 . S
O73 C78 1.279 1_545 S
O74 Cd71 2.297 . S
O74 C76 1.247 . S
O75 Cd71 2.439 . S
O75 C76 1.208 . S
C76 O74 1.247 . S
C76 O75 1.208 . S
C77 O82 1.247 . S
C77 O83 1.208 . S
C78 O70 1.315 . S
C78 O73 1.279 1_565 S
C79 O80 1.315 . S
C79 O81 1.279 1_545 S
O80 Cd72 2.223 1_556 S
O80 C79 1.315 . S
O81 Cd71 2.240 1_556 S
O81 C79 1.279 1_565 S
O82 Cd72 2.297 1_556 S
O82 C77 1.247 . S
O83 Cd72 2.439 1_556 S
O83 C77 1.208 . S
O84 Cd85 2.223 . S
O84 C92 1.315 . S
Cd85 O84 2.223 . S
Cd85 O88 2.297 . S
Cd85 O89 2.439 . S
Cd85 O95 2.240 . S
Cd86 O87 2.240 . S
Cd86 O94 2.223 . S
Cd86 O96 2.297 . S
Cd86 O97 2.439 . S
O87 Cd86 2.240 . S
O87 C92 1.279 . S
O88 Cd85 2.297 . S
O88 C90 1.247 . S
O89 Cd85 2.439 . S
O89 C90 1.208 . S
C90 O88 1.247 . S
C90 O89 1.208 . S
C91 O96 1.247 . S
C91 O97 1.208 . S
C92 O84 1.315 . S
C92 O87 1.279 . S
C93 O94 1.315 . S
C93 O95 1.279 . S
O94 Cd86 2.223 . S
O94 C93 1.315 . S
O95 Cd85 2.240 . S
O95 C93 1.279 . S
O96 Cd86 2.297 . S
O96 C91 1.247 . S
O97 Cd86 2.439 . S
O97 C91 1.208 . S
O98 Cd99 2.223 . S
O98 C106 1.315 . S
Cd99 O98 2.223 . S
Cd99 O102 2.297 1_565 S
Cd99 O103 2.439 1_565 S
Cd99 O109 2.240 . S
Cd100 O101 2.240 . S
Cd100 O108 2.223 . S
Cd100 O110 2.297 . S
Cd100 O111 2.439 . S
O101 Cd100 2.240 . S
O101 C106 1.279 . S
O102 Cd99 2.297 1_545 S
O102 C104 1.247 . S
O103 Cd99 2.439 1_545 S
O103 C104 1.208 . S
C104 O102 1.247 . S
C104 O103 1.208 . S
C105 O110 1.247 . S
C105 O111 1.208 . S
C106 O98 1.315 . S
C106 O101 1.279 . S
C107 O108 1.315 . S
C107 O109 1.279 . S
O108 Cd100 2.223 . S
O108 C107 1.315 . S
O109 Cd99 2.240 . S
O109 C107 1.279 . S
O110 Cd100 2.297 . S
O110 C105 1.247 . S
O111 Cd100 2.439 . S
O111 C105 1.208 . S
O112 Cd113 2.223 . S
O112 C120 1.315 . S
Cd113 O112 2.223 . S
Cd113 O116 2.297 . S
Cd113 O117 2.439 . S
Cd113 O123 2.240 . S
Cd114 O115 2.240 . S
Cd114 O122 2.223 . S
Cd114 O124 2.297 1_455 S
Cd114 O125 2.439 1_455 S
O115 Cd114 2.240 . S
O115 C120 1.279 . S
O116 Cd113 2.297 . S
O116 C118 1.247 . S
O117 Cd113 2.439 . S
O117 C118 1.208 . S
C118 O116 1.247 . S
C118 O117 1.208 . S
C119 O124 1.247 . S
C119 O125 1.208 . S
C120 O112 1.315 . S
C120 O115 1.279 . S
C121 O122 1.315 . S
C121 O123 1.279 . S
O122 Cd114 2.223 . S
O122 C121 1.315 . S
O123 Cd113 2.240 . S
O123 C121 1.279 . S
O124 Cd114 2.297 1_655 S
O124 C119 1.247 . S
O125 Cd114 2.439 1_655 S
O125 C119 1.208 . S
O126 Cd127 2.223 . S
O126 C134 1.315 . S
Cd127 O126 2.223 . S
Cd127 O130 2.297 . S
Cd127 O131 2.439 . S
Cd127 O137 2.240 . S
Cd128 O129 2.240 . S
Cd128 O136 2.223 . S
Cd128 O138 2.297 1_565 S
Cd128 O139 2.439 1_565 S
O129 Cd128 2.240 . S
O129 C134 1.279 . S
O130 Cd127 2.297 . S
O130 C132 1.247 . S
O131 Cd127 2.439 . S
O131 C132 1.208 . S
C132 O130 1.247 . S
C132 O131 1.208 . S
C133 O138 1.247 . S
C133 O139 1.208 . S
C134 O126 1.315 . S
C134 O129 1.279 . S
C135 O136 1.315 . S
C135 O137 1.279 . S
O136 Cd128 2.223 . S
O136 C135 1.315 . S
O137 Cd127 2.240 . S
O137 C135 1.279 . S
O138 Cd128 2.297 1_545 S
O138 C133 1.247 . S
O139 Cd128 2.439 1_545 S
O139 C133 1.208 . S
O140 Cd141 2.223 . S
O140 C148 1.315 . S
Cd141 O140 2.223 . S
Cd141 O144 2.297 . S
Cd141 O145 2.439 . S
Cd141 O151 2.240 . S
Cd142 O143 2.240 . S
Cd142 O150 2.223 . S
Cd142 O152 2.297 1_455 S
Cd142 O153 2.439 1_455 S
O143 Cd142 2.240 . S
O143 C148 1.279 . S
O144 Cd141 2.297 . S
O144 C146 1.247 . S
O145 Cd141 2.439 . S
O145 C146 1.208 . S
C146 O144 1.247 . S
C146 O145 1.208 . S
C147 O152 1.247 . S
C147 O153 1.208 . S
C148 O140 1.315 . S
C148 O143 1.279 . S
C149 O150 1.315 . S
C149 O151 1.279 . S
O150 Cd142 2.223 . S
O150 C149 1.315 . S
O151 Cd141 2.240 . S
O151 C149 1.279 . S
O152 Cd142 2.297 1_655 S
O152 C147 1.247 . S
O153 Cd142 2.439 1_655 S
O153 C147 1.208 . S
O154 Cd155 2.223 . S
O154 C162 1.315 . S
Cd155 O154 2.223 . S
Cd155 O158 2.297 . S
Cd155 O159 2.439 . S
Cd155 O165 2.240 . S
Cd156 O157 2.240 . S
Cd156 O164 2.223 . S
Cd156 O166 2.297 . S
Cd156 O167 2.439 . S
O157 Cd156 2.240 . S
O157 C162 1.279 . S
O158 Cd155 2.297 . S
O158 C160 1.247 . S
O159 Cd155 2.439 . S
O159 C160 1.208 . S
C160 O158 1.247 . S
C160 O159 1.208 . S
C161 O166 1.247 . S
C161 O167 1.208 . S
C162 O154 1.315 . S
C162 O157 1.279 . S
C163 O164 1.315 . S
C163 O165 1.279 . S
O164 Cd156 2.223 . S
O164 C163 1.315 . S
O165 Cd155 2.240 . S
O165 C163 1.279 . S
O166 Cd156 2.297 . S
O166 C161 1.247 . S
O167 Cd156 2.439 . S
O167 C161 1.208 . S
O168 Cd169 2.223 . S
O168 C176 1.315 . S
Cd169 O168 2.223 . S
Cd169 O172 2.297 . S
Cd169 O173 2.439 . S
Cd169 O179 2.240 . S
Cd170 O171 2.240 . S
Cd170 O178 2.223 . S
Cd170 O180 2.297 1_545 S
Cd170 O181 2.439 1_545 S
O171 Cd170 2.240 . S
O171 C176 1.279 . S
O172 Cd169 2.297 . S
O172 C174 1.247 . S
O173 Cd169 2.439 . S
O173 C174 1.208 . S
C174 O172 1.247 . S
C174 O173 1.208 . S
C175 O180 1.247 . S
C175 O181 1.208 . S
C176 O168 1.315 . S
C176 O171 1.279 . S
C177 O178 1.315 . S
C177 O179 1.279 . S
O178 Cd170 2.223 . S
O178 C177 1.315 . S
O179 Cd169 2.240 . S
O179 C177 1.279 . S
O180 Cd170 2.297 1_565 S
O180 C175 1.247 . S
O181 Cd170 2.439 1_565 S
O181 C175 1.208 . S
O182 Cd183 2.223 . S
O182 C190 1.315 . S
Cd183 O182 2.223 . S
Cd183 O186 2.297 . S
Cd183 O187 2.439 . S
Cd183 O193 2.240 . S
Cd184 O185 2.240 . S
Cd184 O192 2.223 . S
Cd184 O194 2.297 1_655 S
Cd184 O195 2.439 1_655 S
O185 Cd184 2.240 . S
O185 C190 1.279 . S
O186 Cd183 2.297 . S
O186 C188 1.247 . S
O187 Cd183 2.439 . S
O187 C188 1.208 . S
C188 O186 1.247 . S
C188 O187 1.208 . S
C189 O194 1.247 . S
C189 O195 1.208 . S
C190 O182 1.315 . S
C190 O185 1.279 . S
C191 O192 1.315 . S
C191 O193 1.279 . S
O192 Cd184 2.223 . S
O192 C191 1.315 . S
O193 Cd183 2.240 . S
O193 C191 1.279 . S
O194 Cd184 2.297 1_455 S
O194 C189 1.247 . S
O195 Cd184 2.439 1_455 S
O195 C189 1.208 . S
O196 Cd197 2.223 . S
O196 C204 1.315 . S
Cd197 O196 2.223 . S
Cd197 O200 2.297 . S
Cd197 O201 2.439 . S
Cd197 O207 2.240 . S
Cd198 O199 2.240 . S
Cd198 O206 2.223 . S
Cd198 O208 2.297 . S
Cd198 O209 2.439 . S
O199 Cd198 2.240 . S
O199 C204 1.279 . S
O200 Cd197 2.297 . S
O200 C202 1.247 . S
O201 Cd197 2.439 . S
O201 C202 1.208 . S
C202 O200 1.247 . S
C202 O201 1.208 . S
C203 O208 1.247 . S
C203 O209 1.208 . S
C204 O196 1.315 . S
C204 O199 1.279 . S
C205 O206 1.315 . S
C205 O207 1.279 . S
O206 Cd198 2.223 . S
O206 C205 1.315 . S
O207 Cd197 2.240 . S
O207 C205 1.279 . S
O208 Cd198 2.297 . S
O208 C203 1.247 . S
O209 Cd198 2.439 . S
O209 C203 1.208 . S
O210 Cd211 2.223 . S
O210 C218 1.315 . S
Cd211 O210 2.223 . S
Cd211 O214 2.297 . S
Cd211 O215 2.439 . S
Cd211 O221 2.240 . S
Cd212 O213 2.240 . S
Cd212 O220 2.223 . S
Cd212 O222 2.297 . S
Cd212 O223 2.439 . S
O213 Cd212 2.240 . S
O213 C218 1.279 . S
O214 Cd211 2.297 . S
O214 C216 1.247 . S
O215 Cd211 2.439 . S
O215 C216 1.208 . S
C216 O214 1.247 . S
C216 O215 1.208 . S
C217 O222 1.247 . S
C217 O223 1.208 . S
C218 O210 1.315 . S
C218 O213 1.279 . S
C219 O220 1.315 . S
C219 O221 1.279 . S
O220 Cd212 2.223 . S
O220 C219 1.315 . S
O221 Cd211 2.240 . S
O221 C219 1.279 . S
O222 Cd212 2.297 . S
O222 C217 1.247 . S
O223 Cd212 2.439 . S
O223 C217 1.208 . S
O224 Cd225 2.223 . S
O224 C232 1.315 . S
Cd225 O224 2.223 . S
Cd225 O228 2.297 1_545 S
Cd225 O229 2.439 1_545 S
Cd225 O235 2.240 . S
Cd226 O227 2.240 . S
Cd226 O234 2.223 . S
Cd226 O236 2.297 . S
Cd226 O237 2.439 . S
O227 Cd226 2.240 . S
O227 C232 1.279 . S
O228 Cd225 2.297 1_565 S
O228 C230 1.247 . S
O229 Cd225 2.439 1_565 S
O229 C230 1.208 . S
C230 O228 1.247 . S
C230 O229 1.208 . S
C231 O236 1.247 . S
C231 O237 1.208 . S
C232 O224 1.315 . S
C232 O227 1.279 . S
C233 O234 1.315 . S
C233 O235 1.279 . S
O234 Cd226 2.223 . S
O234 C233 1.315 . S
O235 Cd225 2.240 . S
O235 C233 1.279 . S
O236 Cd226 2.297 . S
O236 C231 1.247 . S
O237 Cd226 2.439 . S
O237 C231 1.208 . S
O238 Cd239 2.223 . S
O238 C246 1.315 . S
Cd239 O238 2.223 . S
Cd239 O242 2.297 . S
Cd239 O243 2.439 . S
Cd239 O249 2.240 . S
Cd240 O241 2.240 . S
Cd240 O248 2.223 . S
Cd240 O250 2.297 1_655 S
Cd240 O251 2.439 1_655 S
O241 Cd240 2.240 . S
O241 C246 1.279 . S
O242 Cd239 2.297 . S
O242 C244 1.247 . S
O243 Cd239 2.439 . S
O243 C244 1.208 . S
C244 O242 1.247 . S
C244 O243 1.208 . S
C245 O250 1.247 . S
C245 O251 1.208 . S
C246 O238 1.315 . S
C246 O241 1.279 . S
C247 O248 1.315 . S
C247 O249 1.279 . S
O248 Cd240 2.223 . S
O248 C247 1.315 . S
O249 Cd239 2.240 . S
O249 C247 1.279 . S
O250 Cd240 2.297 1_455 S
O250 C245 1.247 . S
O251 Cd240 2.439 1_455 S
O251 C245 1.208 . S
H252 C258 0.930 . S
H253 C261 0.931 . S
H254 C263 0.931 . S
H255 C265 0.930 . S
H256 C267 0.930 . S
H257 C269 0.931 . S
C258 H252 0.930 . S
C258 C259 1.380 . S
C258 C260 1.394 . S
C259 C258 1.380 . S
C259 C263 1.382 . S
C260 C258 1.394 . S
C260 C261 1.400 . S
C261 H253 0.931 . S
C261 C260 1.400 . S
C261 C262 1.375 . S
C262 C261 1.375 . S
C262 C263 1.415 . S
C262 C264 1.501 . S
C263 H254 0.931 . S
C263 C259 1.382 . S
C263 C262 1.415 . S
C264 C262 1.501 . S
C264 C265 1.384 . S
C264 C269 1.408 . S
C265 H255 0.930 . S
C265 C264 1.384 . S
C265 C266 1.389 . S
C266 C265 1.389 . S
C266 C267 1.405 . S
C267 H256 0.930 . S
C267 C266 1.405 . S
C267 C268 1.364 . S
C268 C267 1.364 . S
C268 C269 1.400 . S
C269 H257 0.931 . S
C269 C264 1.408 . S
C269 C268 1.400 . S
H270 C276 0.930 . S
H271 C279 0.931 . S
H272 C281 0.931 . S
H273 C283 0.930 . S
H274 C285 0.930 . S
H275 C287 0.931 . S
C276 H270 0.930 . S
C276 C277 1.380 . S
C276 C278 1.394 . S
C277 C276 1.380 . S
C277 C281 1.382 . S
C278 C276 1.394 . S
C278 C279 1.400 . S
C279 H271 0.931 . S
C279 C278 1.400 . S
C279 C280 1.375 . S
C280 C279 1.375 . S
C280 C281 1.415 . S
C280 C282 1.501 . S
C281 H272 0.931 . S
C281 C277 1.382 . S
C281 C280 1.415 . S
C282 C280 1.501 . S
C282 C283 1.384 . S
C282 C287 1.408 . S
C283 H273 0.930 . S
C283 C282 1.384 . S
C283 C284 1.389 . S
C284 C283 1.389 . S
C284 C285 1.405 . S
C285 H274 0.930 . S
C285 C284 1.405 . S
C285 C286 1.364 . S
C286 C285 1.364 . S
C286 C287 1.400 . S
C287 H275 0.931 . S
C287 C282 1.408 . S
C287 C286 1.400 . S
H288 C294 0.930 . S
H289 C297 0.931 . S
H290 C299 0.931 . S
H291 C301 0.930 . S
H292 C303 0.930 . S
H293 C305 0.931 . S
C294 H288 0.930 . S
C294 C295 1.380 . S
C294 C296 1.394 . S
C295 C294 1.380 . S
C295 C299 1.382 . S
C296 C294 1.394 . S
C296 C297 1.400 . S
C297 H289 0.931 . S
C297 C296 1.400 . S
C297 C298 1.375 . S
C298 C297 1.375 . S
C298 C299 1.415 . S
C298 C300 1.501 . S
C299 H290 0.931 . S
C299 C295 1.382 . S
C299 C298 1.415 . S
C300 C298 1.501 . S
C300 C301 1.384 . S
C300 C305 1.408 . S
C301 H291 0.930 . S
C301 C300 1.384 . S
C301 C302 1.389 . S
C302 C301 1.389 . S
C302 C303 1.405 . S
C303 H292 0.930 . S
C303 C302 1.405 . S
C303 C304 1.364 . S
C304 C303 1.364 . S
C304 C305 1.400 . S
C305 H293 0.931 . S
C305 C300 1.408 . S
C305 C304 1.400 . S
H306 C312 0.930 . S
H307 C315 0.931 . S
H308 C317 0.931 . S
H309 C319 0.930 . S
H310 C321 0.930 . S
H311 C323 0.931 . S
C312 H306 0.930 . S
C312 C313 1.380 . S
C312 C314 1.394 . S
C313 C312 1.380 . S
C313 C317 1.382 . S
C314 C312 1.394 . S
C314 C315 1.400 . S
C315 H307 0.931 . S
C315 C314 1.400 . S
C315 C316 1.375 . S
C316 C315 1.375 . S
C316 C317 1.415 . S
C316 C318 1.501 . S
C317 H308 0.931 . S
C317 C313 1.382 . S
C317 C316 1.415 . S
C318 C316 1.501 . S
C318 C319 1.384 . S
C318 C323 1.408 . S
C319 H309 0.930 . S
C319 C318 1.384 . S
C319 C320 1.389 . S
C320 C319 1.389 . S
C320 C321 1.405 . S
C321 H310 0.930 . S
C321 C320 1.405 . S
C321 C322 1.364 . S
C322 C321 1.364 . S
C322 C323 1.400 . S
C323 H311 0.931 . S
C323 C318 1.408 . S
C323 C322 1.400 . S
H324 C330 0.930 . S
H325 C333 0.931 . S
H326 C335 0.931 . S
H327 C337 0.930 . S
H328 C339 0.930 . S
H329 C341 0.931 . S
C330 H324 0.930 . S
C330 C331 1.380 . S
C330 C332 1.394 . S
C331 C330 1.380 . S
C331 C335 1.382 . S
C332 C330 1.394 . S
C332 C333 1.400 . S
C333 H325 0.931 . S
C333 C332 1.400 . S
C333 C334 1.375 . S
C334 C333 1.375 . S
C334 C335 1.415 . S
C334 C336 1.501 . S
C335 H326 0.931 . S
C335 C331 1.382 . S
C335 C334 1.415 . S
C336 C334 1.501 . S
C336 C337 1.384 . S
C336 C341 1.408 . S
C337 H327 0.930 . S
C337 C336 1.384 . S
C337 C338 1.389 . S
C338 C337 1.389 . S
C338 C339 1.405 . S
C339 H328 0.930 . S
C339 C338 1.405 . S
C339 C340 1.364 . S
C340 C339 1.364 . S
C340 C341 1.400 . S
C341 H329 0.931 . S
C341 C336 1.408 . S
C341 C340 1.400 . S
H342 C348 0.930 . S
H343 C351 0.931 . S
H344 C353 0.931 . S
H345 C355 0.930 . S
H346 C357 0.930 . S
H347 C359 0.931 . S
C348 H342 0.930 . S
C348 C349 1.380 . S
C348 C350 1.394 . S
C349 C348 1.380 . S
C349 C353 1.382 . S
C350 C348 1.394 . S
C350 C351 1.400 . S
C351 H343 0.931 . S
C351 C350 1.400 . S
C351 C352 1.375 . S
C352 C351 1.375 . S
C352 C353 1.415 . S
C352 C354 1.501 . S
C353 H344 0.931 . S
C353 C349 1.382 . S
C353 C352 1.415 . S
C354 C352 1.501 . S
C354 C355 1.384 . S
C354 C359 1.408 . S
C355 H345 0.930 . S
C355 C354 1.384 . S
C355 C356 1.389 . S
C356 C355 1.389 . S
C356 C357 1.405 . S
C357 H346 0.930 . S
C357 C356 1.405 . S
C357 C358 1.364 . S
C358 C357 1.364 . S
C358 C359 1.400 . S
C359 H347 0.931 . S
C359 C354 1.408 . S
C359 C358 1.400 . S
H360 C366 0.930 . S
H361 C369 0.931 . S
H362 C371 0.931 . S
H363 C373 0.930 . S
H364 C375 0.930 . S
H365 C377 0.931 . S
C366 H360 0.930 . S
C366 C367 1.380 . S
C366 C368 1.394 . S
C367 C366 1.380 . S
C367 C371 1.382 . S
C368 C366 1.394 . S
C368 C369 1.400 . S
C369 H361 0.931 . S
C369 C368 1.400 . S
C369 C370 1.375 . S
C370 C369 1.375 . S
C370 C371 1.415 . S
C370 C372 1.501 . S
C371 H362 0.931 . S
C371 C367 1.382 . S
C371 C370 1.415 . S
C372 C370 1.501 . S
C372 C373 1.384 . S
C372 C377 1.408 . S
C373 H363 0.930 . S
C373 C372 1.384 . S
C373 C374 1.389 . S
C374 C373 1.389 . S
C374 C375 1.405 . S
C375 H364 0.930 . S
C375 C374 1.405 . S
C375 C376 1.364 . S
C376 C375 1.364 . S
C376 C377 1.400 . S
C377 H365 0.931 . S
C377 C372 1.408 . S
C377 C376 1.400 . S
H378 C384 0.930 . S
H379 C387 0.931 . S
H380 C389 0.931 . S
H381 C391 0.930 . S
H382 C393 0.930 . S
H383 C395 0.931 . S
C384 H378 0.930 . S
C384 C385 1.380 . S
C384 C386 1.394 . S
C385 C384 1.380 . S
C385 C389 1.382 . S
C386 C384 1.394 . S
C386 C387 1.400 . S
C387 H379 0.931 . S
C387 C386 1.400 . S
C387 C388 1.375 . S
C388 C387 1.375 . S
C388 C389 1.415 . S
C388 C390 1.501 . S
C389 H380 0.931 . S
C389 C385 1.382 . S
C389 C388 1.415 . S
C390 C388 1.501 . S
C390 C391 1.384 . S
C390 C395 1.408 . S
C391 H381 0.930 . S
C391 C390 1.384 . S
C391 C392 1.389 . S
C392 C391 1.389 . S
C392 C393 1.405 . S
C393 H382 0.930 . S
C393 C392 1.405 . S
C393 C394 1.364 . S
C394 C393 1.364 . S
C394 C395 1.400 . S
C395 H383 0.931 . S
C395 C390 1.408 . S
C395 C394 1.400 . S
H396 C402 0.930 . S
H397 C405 0.931 . S
H398 C407 0.931 . S
H399 C409 0.930 . S
H400 C411 0.930 . S
H401 C413 0.931 . S
C402 H396 0.930 . S
C402 C403 1.380 . S
C402 C404 1.394 . S
C403 C402 1.380 . S
C403 C407 1.382 . S
C404 C402 1.394 . S
C404 C405 1.400 . S
C405 H397 0.931 . S
C405 C404 1.400 . S
C405 C406 1.375 . S
C406 C405 1.375 . S
C406 C407 1.415 . S
C406 C408 1.501 . S
C407 H398 0.931 . S
C407 C403 1.382 . S
C407 C406 1.415 . S
C408 C406 1.501 . S
C408 C409 1.384 . S
C408 C413 1.408 . S
C409 H399 0.930 . S
C409 C408 1.384 . S
C409 C410 1.389 . S
C410 C409 1.389 . S
C410 C411 1.405 . S
C411 H400 0.930 . S
C411 C410 1.405 . S
C411 C412 1.364 . S
C412 C411 1.364 . S
C412 C413 1.400 . S
C413 H401 0.931 . S
C413 C408 1.408 . S
C413 C412 1.400 . S
H414 C420 0.920 . S
H415 C423 0.931 . S
H416 C425 0.931 . S
H417 C427 0.930 . S
H418 C429 0.930 . S
H419 C431 0.940 1_655 S
C420 H414 0.920 . S
C420 C421 1.389 . S
C420 C422 1.396 1_655 S
C421 C420 1.389 . S
C421 C425 1.382 . S
C422 C420 1.396 1_455 S
C422 C423 1.400 . S
C423 H415 0.931 . S
C423 C422 1.400 . S
C423 C424 1.375 . S
C424 C423 1.375 . S
C424 C425 1.415 1_455 S
C424 C426 1.501 . S
C425 H416 0.931 . S
C425 C421 1.382 . S
C425 C424 1.415 1_655 S
C426 C424 1.501 . S
C426 C427 1.384 . S
C426 C431 1.419 . S
C427 H417 0.930 . S
C427 C426 1.384 . S
C427 C428 1.389 . S
C428 C427 1.389 . S
C428 C429 1.405 . S
C429 H418 0.930 . S
C429 C428 1.405 . S
C429 C430 1.360 . S
C430 C429 1.360 . S
C430 C431 1.394 . S
C431 H419 0.940 1_455 S
C431 C426 1.419 . S
C431 C430 1.394 . S
H432 C438 0.930 . S
H433 C441 0.931 . S
H434 C443 0.931 . S
H435 C445 0.930 . S
H436 C447 0.930 . S
H437 C449 0.931 . S
C438 H432 0.930 . S
C438 C439 1.380 . S
C438 C440 1.394 . S
C439 C438 1.380 . S
C439 C443 1.382 . S
C440 C438 1.394 . S
C440 C441 1.400 . S
C441 H433 0.931 . S
C441 C440 1.400 . S
C441 C442 1.375 . S
C442 C441 1.375 . S
C442 C443 1.415 . S
C442 C444 1.501 . S
C443 H434 0.931 . S
C443 C439 1.382 . S
C443 C442 1.415 . S
C444 C442 1.501 . S
C444 C445 1.384 . S
C444 C449 1.408 . S
C445 H435 0.930 . S
C445 C444 1.384 . S
C445 C446 1.389 . S
C446 C445 1.389 . S
C446 C447 1.405 . S
C447 H436 0.930 . S
C447 C446 1.405 . S
C447 C448 1.364 . S
C448 C447 1.364 . S
C448 C449 1.400 . S
C449 H437 0.931 . S
C449 C444 1.408 . S
C449 C448 1.400 . S
H450 C456 0.943 . S
H451 C459 0.931 . S
H452 C461 0.931 . S
H453 C463 0.930 . S
H454 C465 0.930 . S
H455 C467 0.920 1_545 S
C456 H450 0.943 . S
C456 C457 1.377 . S
C456 C458 1.384 1_545 S
C457 C456 1.377 . S
C457 C461 1.382 . S
C458 C456 1.384 1_565 S
C458 C459 1.400 . S
C459 H451 0.931 . S
C459 C458 1.400 . S
C459 C460 1.375 . S
C460 C459 1.375 . S
C460 C461 1.415 1_565 S
C460 C462 1.501 . S
C461 H452 0.931 . S
C461 C457 1.382 . S
C461 C460 1.415 1_545 S
C462 C460 1.501 . S
C462 C463 1.384 . S
C462 C467 1.401 . S
C463 H453 0.930 . S
C463 C462 1.384 . S
C463 C464 1.389 . S
C464 C463 1.389 . S
C464 C465 1.405 . S
C465 H454 0.930 . S
C465 C464 1.405 . S
C465 C466 1.372 . S
C466 C465 1.372 . S
C466 C467 1.407 . S
C467 H455 0.920 1_565 S
C467 C462 1.401 . S
C467 C466 1.407 . S
H468 C474 0.913 . S
H469 C477 0.931 . S
H470 C479 0.927 1_545 S
H471 C481 0.930 . S
H472 C483 0.930 . S
H473 C485 0.931 . S
C474 H468 0.913 . S
C474 C475 1.382 . S
C474 C476 1.416 1_545 S
C475 C474 1.382 . S
C475 C479 1.401 1_545 S
C476 C474 1.416 1_565 S
C476 C477 1.376 . S
C477 H469 0.931 . S
C477 C476 1.376 . S
C477 C478 1.375 . S
C478 C477 1.375 . S
C478 C479 1.414 . S
C478 C480 1.501 . S
C479 H470 0.927 1_565 S
C479 C475 1.401 1_565 S
C479 C478 1.414 . S
C480 C478 1.501 . S
C480 C481 1.384 . S
C480 C485 1.408 1_565 S
C481 H471 0.930 . S
C481 C480 1.384 . S
C481 C482 1.389 . S
C482 C481 1.389 . S
C482 C483 1.405 . S
C483 H472 0.930 . S
C483 C482 1.405 . S
C483 C484 1.364 1_565 S
C484 C483 1.364 1_545 S
C484 C485 1.400 . S
C485 H473 0.931 . S
C485 C480 1.408 1_545 S
C485 C484 1.400 . S
H486 C492 0.953 . S
H487 C495 0.931 . S
H488 C497 0.934 1_655 S
H489 C499 0.930 . S
H490 C501 0.930 . S
H491 C503 0.931 . S
C492 H486 0.953 . S
C492 C493 1.378 . S
C492 C494 1.367 1_655 S
C493 C492 1.378 . S
C493 C497 1.362 1_655 S
C494 C492 1.367 1_455 S
C494 C495 1.434 . S
C495 H487 0.931 . S
C495 C494 1.434 . S
C495 C496 1.375 . S
C496 C495 1.375 . S
C496 C497 1.417 . S
C496 C498 1.501 . S
C497 H488 0.934 1_455 S
C497 C493 1.362 1_455 S
C497 C496 1.417 . S
C498 C496 1.501 . S
C498 C499 1.384 . S
C498 C503 1.408 1_455 S
C499 H489 0.930 . S
C499 C498 1.384 . S
C499 C500 1.389 . S
C500 C499 1.389 . S
C500 C501 1.405 . S
C501 H490 0.930 . S
C501 C500 1.405 . S
C501 C502 1.364 1_455 S
C502 C501 1.364 1_655 S
C502 C503 1.400 . S
C503 H491 0.931 . S
C503 C498 1.408 1_655 S
C503 C502 1.400 . S
H504 C510 0.930 . S
H505 C513 0.931 . S
H506 C515 0.931 . S
H507 C517 0.930 . S
H508 C519 0.930 . S
H509 C521 0.931 . S
C510 H504 0.930 . S
C510 C511 1.380 . S
C510 C512 1.394 . S
C511 C510 1.380 . S
C511 C515 1.382 . S
C512 C510 1.394 . S
C512 C513 1.400 . S
C513 H505 0.931 . S
C513 C512 1.400 . S
C513 C514 1.375 . S
C514 C513 1.375 . S
C514 C515 1.415 . S
C514 C516 1.501 . S
C515 H506 0.931 . S
C515 C511 1.382 . S
C515 C514 1.415 . S
C516 C514 1.501 . S
C516 C517 1.384 . S
C516 C521 1.408 . S
C517 H507 0.930 . S
C517 C516 1.384 . S
C517 C518 1.389 . S
C518 C517 1.389 . S
C518 C519 1.405 . S
C519 H508 0.930 . S
C519 C518 1.405 . S
C519 C520 1.364 . S
C520 C519 1.364 . S
C520 C521 1.400 . S
C521 H509 0.931 . S
C521 C516 1.408 . S
C521 C520 1.400 . S
H522 C528 0.930 . S
H523 C531 0.931 . S
H524 C533 0.931 . S
H525 C535 0.930 . S
H526 C537 0.930 . S
H527 C539 0.931 . S
C528 H522 0.930 . S
C528 C529 1.380 . S
C528 C530 1.394 . S
C529 C528 1.380 . S
C529 C533 1.382 . S
C530 C528 1.394 . S
C530 C531 1.400 . S
C531 H523 0.931 . S
C531 C530 1.400 . S
C531 C532 1.375 . S
C532 C531 1.375 . S
C532 C533 1.415 . S
C532 C534 1.501 . S
C533 H524 0.931 . S
C533 C529 1.382 . S
C533 C532 1.415 . S
C534 C532 1.501 . S
C534 C535 1.384 . S
C534 C539 1.408 . S
C535 H525 0.930 . S
C535 C534 1.384 . S
C535 C536 1.389 . S
C536 C535 1.389 . S
C536 C537 1.405 . S
C537 H526 0.930 . S
C537 C536 1.405 . S
C537 C538 1.364 . S
C538 C537 1.364 . S
C538 C539 1.400 . S
C539 H527 0.931 . S
C539 C534 1.408 . S
C539 C538 1.400 . S
H540 C546 0.930 . S
H541 C549 0.931 . S
H542 C551 0.931 . S
H543 C553 0.930 . S
H544 C555 0.930 . S
H545 C557 0.931 . S
C546 H540 0.930 . S
C546 C547 1.380 . S
C546 C548 1.394 . S
C547 C546 1.380 . S
C547 C551 1.382 . S
C548 C546 1.394 . S
C548 C549 1.400 . S
C549 H541 0.931 . S
C549 C548 1.400 . S
C549 C550 1.375 . S
C550 C549 1.375 . S
C550 C551 1.415 . S
C550 C552 1.501 . S
C551 H542 0.931 . S
C551 C547 1.382 . S
C551 C550 1.415 . S
C552 C550 1.501 . S
C552 C553 1.384 . S
C552 C557 1.408 . S
C553 H543 0.930 . S
C553 C552 1.384 . S
C553 C554 1.389 . S
C554 C553 1.389 . S
C554 C555 1.405 . S
C555 H544 0.930 . S
C555 C554 1.405 . S
C555 C556 1.364 . S
C556 C555 1.364 . S
C556 C557 1.400 . S
C557 H545 0.931 . S
C557 C552 1.408 . S
C557 C556 1.400 . S
H558 C564 0.930 . S
H559 C567 0.931 . S
H560 C569 0.931 . S
H561 C571 0.930 . S
H562 C573 0.930 . S
H563 C575 0.931 . S
C564 H558 0.930 . S
C564 C565 1.380 . S
C564 C566 1.394 . S
C565 C564 1.380 . S
C565 C569 1.382 . S
C566 C564 1.394 . S
C566 C567 1.400 . S
C567 H559 0.931 . S
C567 C566 1.400 . S
C567 C568 1.375 . S
C568 C567 1.375 . S
C568 C569 1.415 . S
C568 C570 1.501 . S
C569 H560 0.931 . S
C569 C565 1.382 . S
C569 C568 1.415 . S
C570 C568 1.501 . S
C570 C571 1.384 . S
C570 C575 1.408 . S
C571 H561 0.930 . S
C571 C570 1.384 . S
C571 C572 1.389 . S
C572 C571 1.389 . S
C572 C573 1.405 . S
C573 H562 0.930 . S
C573 C572 1.405 . S
C573 C574 1.364 . S
C574 C573 1.364 . S
C574 C575 1.400 . S
C575 H563 0.931 . S
C575 C570 1.408 . S
C575 C574 1.400 . S
C576 C577 1.386 1_455 S
C576 C578 1.394 . S
C576 H592 0.931 . S
C577 C576 1.386 1_655 S
C577 C581 1.390 . S
C578 C576 1.394 . S
C578 C579 1.369 1_455 S
C578 C582 1.531 . S
C579 C578 1.369 1_655 S
C579 C580 1.410 . S
C579 C587 1.503 . S
C580 C579 1.410 . S
C580 C581 1.392 . S
C580 C583 1.511 . S
C581 C577 1.390 . S
C581 C580 1.392 . S
C581 H593 0.929 . S
C582 C578 1.531 . S
C582 H594 0.960 . S
C582 H595 0.962 . S
C582 H596 0.960 . S
C583 C580 1.511 . S
C583 H597 0.961 . S
C583 H598 0.961 . S
C583 H599 0.961 . S
C584 C585 1.370 1_455 S
C584 C586 1.363 . S
C584 H600 0.931 . S
C585 C584 1.370 1_655 S
C585 C589 1.408 . S
C586 C584 1.363 . S
C586 C587 1.370 1_455 S
C586 C590 1.524 . S
C587 C579 1.503 . S
C587 C586 1.370 1_655 S
C587 C588 1.403 . S
C588 C587 1.403 . S
C588 C589 1.404 . S
C588 C591 1.539 . S
C589 C585 1.408 . S
C589 C588 1.404 . S
C589 H601 0.930 . S
C590 C586 1.524 . S
C590 H602 0.956 . S
C590 H603 0.961 . S
C590 H604 0.961 . S
C591 C588 1.539 . S
C591 H605 0.958 . S
C591 H606 0.961 . S
C591 H607 0.960 . S
H592 C576 0.931 . S
H593 C581 0.929 . S
H594 C582 0.960 . S
H595 C582 0.962 . S
H596 C582 0.960 . S
H597 C583 0.961 . S
H598 C583 0.961 . S
H599 C583 0.961 . S
H600 C584 0.931 . S
H601 C589 0.930 . S
H602 C590 0.956 . S
H603 C590 0.961 . S
H604 C590 0.961 . S
H605 C591 0.958 . S
H606 C591 0.961 . S
H607 C591 0.960 . S
C608 C609 1.391 . S
C608 C610 1.394 . S
C608 H624 0.931 . S
C609 C608 1.391 . S
C609 C613 1.376 . S
C610 C608 1.394 . S
C610 C611 1.369 . S
C610 C614 1.531 . S
C611 C610 1.369 . S
C611 C612 1.410 . S
C611 C619 1.503 . S
C612 C611 1.410 . S
C612 C613 1.392 . S
C612 C615 1.511 . S
C613 C609 1.376 . S
C613 C612 1.392 . S
C613 H625 0.929 . S
C614 C610 1.531 . S
C614 H626 0.960 . S
C614 H627 0.962 . S
C614 H628 0.960 . S
C615 C612 1.511 . S
C615 H629 0.961 . S
C615 H630 0.961 . S
C615 H631 0.961 . S
C616 C617 1.370 . S
C616 C618 1.363 . S
C616 H632 0.931 . S
C617 C616 1.370 . S
C617 C621 1.408 . S
C618 C616 1.363 . S
C618 C619 1.370 . S
C618 C622 1.524 . S
C619 C611 1.503 . S
C619 C618 1.370 . S
C619 C620 1.403 . S
C620 C619 1.403 . S
C620 C621 1.404 . S
C620 C623 1.539 . S
C621 C617 1.408 . S
C621 C620 1.404 . S
C621 H633 0.930 . S
C622 C618 1.524 . S
C622 H634 0.956 . S
C622 H635 0.961 . S
C622 H636 0.961 . S
C623 C620 1.539 . S
C623 H637 0.958 . S
C623 H638 0.961 . S
C623 H639 0.960 . S
H624 C608 0.931 . S
H625 C613 0.929 . S
H626 C614 0.960 . S
H627 C614 0.962 . S
H628 C614 0.960 . S
H629 C615 0.961 . S
H630 C615 0.961 . S
H631 C615 0.961 . S
H632 C616 0.931 . S
H633 C621 0.930 . S
H634 C622 0.956 . S
H635 C622 0.961 . S
H636 C622 0.961 . S
H637 C623 0.958 . S
H638 C623 0.961 . S
H639 C623 0.960 . S
C640 C641 1.391 1_545 S
C640 C642 1.394 . S
C640 H656 0.931 . S
C641 C640 1.391 1_565 S
C641 C645 1.376 . S
C642 C640 1.394 . S
C642 C643 1.369 1_545 S
C642 C646 1.531 . S
C643 C642 1.369 1_565 S
C643 C644 1.410 . S
C643 C651 1.514 1_565 S
C644 C643 1.410 . S
C644 C645 1.392 . S
C644 C647 1.511 . S
C645 C641 1.376 . S
C645 C644 1.392 . S
C645 H657 0.929 . S
C646 C642 1.531 . S
C646 H658 0.960 . S
C646 H659 0.962 . S
C646 H660 0.960 . S
C647 C644 1.511 . S
C647 H661 0.961 . S
C647 H662 0.961 . S
C647 H663 0.961 . S
C648 C649 1.370 . S
C648 C650 1.363 . S
C648 H664 0.931 . S
C649 C648 1.370 . S
C649 C653 1.408 1_545 S
C650 C648 1.363 . S
C650 C651 1.374 . S
C650 C654 1.524 . S
C651 C643 1.514 1_545 S
C651 C650 1.374 . S
C651 C652 1.390 1_545 S
C652 C651 1.390 1_565 S
C652 C653 1.404 . S
C652 C655 1.539 . S
C653 C649 1.408 1_565 S
C653 C652 1.404 . S
C653 H665 0.930 . S
C654 C650 1.524 . S
C654 H666 0.956 . S
C654 H667 0.961 . S
C654 H668 0.961 . S
C655 C652 1.539 . S
C655 H669 0.958 . S
C655 H670 0.961 . S
C655 H671 0.960 . S
H656 C640 0.931 . S
H657 C645 0.929 . S
H658 C646 0.960 . S
H659 C646 0.962 . S
H660 C646 0.960 . S
H661 C647 0.961 . S
H662 C647 0.961 . S
H663 C647 0.961 . S
H664 C648 0.931 . S
H665 C653 0.930 . S
H666 C654 0.956 . S
H667 C654 0.961 . S
H668 C654 0.961 . S
H669 C655 0.958 . S
H670 C655 0.961 . S
H671 C655 0.960 . S
C672 C673 1.391 . S
C672 C674 1.405 . S
C672 H688 0.969 1_545 S
C673 C672 1.391 . S
C673 C677 1.376 . S
C674 C672 1.405 . S
C674 C675 1.351 . S
C674 C678 1.531 1_545 S
C675 C674 1.351 . S
C675 C676 1.410 . S
C675 C683 1.534 . S
C676 C675 1.410 . S
C676 C677 1.392 . S
C676 C679 1.511 . S
C677 C673 1.376 . S
C677 C676 1.392 . S
C677 H689 0.929 . S
C678 C674 1.531 1_565 S
C678 H690 0.960 1_565 S
C678 H691 0.962 . S
C678 H692 0.960 1_565 S
C679 C676 1.511 . S
C679 H693 0.961 . S
C679 H694 0.961 . S
C679 H695 0.961 . S
C680 C681 1.370 . S
C680 C682 1.363 . S
C680 H696 0.931 . S
C681 C680 1.370 . S
C681 C685 1.408 1_565 S
C682 C680 1.363 . S
C682 C683 1.311 1_565 S
C682 C686 1.524 . S
C683 C675 1.534 . S
C683 C682 1.311 1_545 S
C683 C684 1.434 . S
C684 C683 1.434 . S
C684 C685 1.404 . S
C684 C687 1.539 . S
C685 C681 1.408 1_545 S
C685 C684 1.404 . S
C685 H697 0.930 . S
C686 C682 1.524 . S
C686 H698 0.956 . S
C686 H699 0.961 . S
C686 H700 0.961 . S
C687 C684 1.539 . S
C687 H701 0.958 . S
C687 H702 0.961 . S
C687 H703 0.960 . S
H688 C672 0.969 1_565 S
H689 C677 0.929 . S
H690 C678 0.960 1_545 S
H691 C678 0.962 . S
H692 C678 0.960 1_545 S
H693 C679 0.961 . S
H694 C679 0.961 . S
H695 C679 0.961 . S
H696 C680 0.931 . S
H697 C685 0.930 . S
H698 C686 0.956 . S
H699 C686 0.961 . S
H700 C686 0.961 . S
H701 C687 0.958 . S
H702 C687 0.961 . S
H703 C687 0.960 . S
C704 C705 1.331 1_655 S
C704 C706 1.394 . S
C704 H720 0.931 . S
C705 C704 1.331 1_455 S
C705 C709 1.415 . S
C706 C704 1.394 . S
C706 C707 1.369 1_655 S
C706 C710 1.531 . S
C707 C706 1.369 1_455 S
C707 C708 1.410 . S
C707 C715 1.503 . S
C708 C707 1.410 . S
C708 C709 1.392 . S
C708 C711 1.511 . S
C709 C705 1.415 . S
C709 C708 1.392 . S
C709 H721 0.929 . S
C710 C706 1.531 . S
C710 H722 0.960 . S
C710 H723 0.962 . S
C710 H724 0.960 . S
C711 C708 1.511 . S
C711 H725 0.961 . S
C711 H726 0.961 . S
C711 H727 0.961 . S
C712 C713 1.370 1_655 S
C712 C714 1.363 . S
C712 H728 0.931 . S
C713 C712 1.370 1_455 S
C713 C717 1.408 . S
C714 C712 1.363 . S
C714 C715 1.370 1_655 S
C714 C718 1.524 . S
C715 C707 1.503 . S
C715 C714 1.370 1_455 S
C715 C716 1.403 . S
C716 C715 1.403 . S
C716 C717 1.404 . S
C716 C719 1.539 . S
C717 C713 1.408 . S
C717 C716 1.404 . S
C717 H729 0.930 . S
C718 C714 1.524 . S
C718 H730 0.956 . S
C718 H731 0.961 . S
C718 H732 0.961 . S
C719 C716 1.539 . S
C719 H733 0.958 . S
C719 H734 0.961 . S
C719 H735 0.960 . S
H720 C704 0.931 . S
H721 C709 0.929 . S
H722 C710 0.960 . S
H723 C710 0.962 . S
H724 C710 0.960 . S
H725 C711 0.961 . S
H726 C711 0.961 . S
H727 C711 0.961 . S
H728 C712 0.931 . S
H729 C717 0.930 . S
H730 C718 0.956 . S
H731 C718 0.961 . S
H732 C718 0.961 . S
H733 C719 0.958 . S
H734 C719 0.961 . S
H735 C719 0.960 . S
C736 C737 1.391 . S
C736 C738 1.394 . S
C736 H752 0.931 . S
C737 C736 1.391 . S
C737 C741 1.376 . S
C738 C736 1.394 . S
C738 C739 1.369 . S
C738 C742 1.531 . S
C739 C738 1.369 . S
C739 C740 1.410 . S
C739 C747 1.503 . S
C740 C739 1.410 . S
C740 C741 1.392 . S
C740 C743 1.511 . S
C741 C737 1.376 . S
C741 C740 1.392 . S
C741 H753 0.929 . S
C742 C738 1.531 . S
C742 H754 0.960 . S
C742 H755 0.962 . S
C742 H756 0.960 . S
C743 C740 1.511 . S
C743 H757 0.961 . S
C743 H758 0.961 . S
C743 H759 0.961 . S
C744 C745 1.370 . S
C744 C746 1.363 . S
C744 H760 0.931 . S
C745 C744 1.370 . S
C745 C749 1.408 . S
C746 C744 1.363 . S
C746 C747 1.370 . S
C746 C750 1.524 . S
C747 C739 1.503 . S
C747 C746 1.370 . S
C747 C748 1.403 . S
C748 C747 1.403 . S
C748 C749 1.404 . S
C748 C751 1.539 . S
C749 C745 1.408 . S
C749 C748 1.404 . S
C749 H761 0.930 . S
C750 C746 1.524 . S
C750 H762 0.956 . S
C750 H763 0.961 . S
C750 H764 0.961 . S
C751 C748 1.539 . S
C751 H765 0.958 . S
C751 H766 0.961 . S
C751 H767 0.960 . S
H752 C736 0.931 . S
H753 C741 0.929 . S
H754 C742 0.960 . S
H755 C742 0.962 . S
H756 C742 0.960 . S
H757 C743 0.961 . S
H758 C743 0.961 . S
H759 C743 0.961 . S
H760 C744 0.931 . S
H761 C749 0.930 . S
H762 C750 0.956 . S
H763 C750 0.961 . S
H764 C750 0.961 . S
H765 C751 0.958 . S
H766 C751 0.961 . S
H767 C751 0.960 . S
C768 C769 1.396 . S
C768 C770 1.394 . S
C768 H784 0.931 . S
C769 C768 1.396 . S
C769 C773 1.368 1_655 S
C770 C768 1.394 . S
C770 C771 1.344 1_655 S
C770 C774 1.531 . S
C771 C770 1.344 1_455 S
C771 C772 1.425 . S
C771 C779 1.510 . S
C772 C771 1.425 . S
C772 C773 1.392 . S
C772 C775 1.511 . S
C773 C769 1.368 1_455 S
C773 C772 1.392 . S
C773 H785 0.929 . S
C774 C770 1.531 . S
C774 H786 0.960 . S
C774 H787 0.962 . S
C774 H788 0.960 . S
C775 C772 1.511 . S
C775 H789 0.961 . S
C775 H790 0.961 . S
C775 H791 0.961 . S
C776 C777 1.374 . S
C776 C778 1.363 . S
C776 H792 0.931 . S
C777 C776 1.374 . S
C777 C781 1.412 1_655 S
C778 C776 1.363 . S
C778 C779 1.372 1_655 S
C778 C782 1.524 . S
C779 C771 1.510 . S
C779 C778 1.372 1_455 S
C779 C780 1.404 . S
C780 C779 1.404 . S
C780 C781 1.404 . S
C780 C783 1.539 . S
C781 C777 1.412 1_455 S
C781 C780 1.404 . S
C781 H793 0.930 . S
C782 C778 1.524 . S
C782 H794 0.956 . S
C782 H795 0.972 . S
C782 H796 0.961 . S
C783 C780 1.539 . S
C783 H797 0.958 . S
C783 H798 0.961 . S
C783 H799 0.960 . S
H784 C768 0.931 . S
H785 C773 0.929 . S
H786 C774 0.960 . S
H787 C774 0.962 . S
H788 C774 0.960 . S
H789 C775 0.961 . S
H790 C775 0.961 . S
H791 C775 0.961 . S
H792 C776 0.931 . S
H793 C781 0.930 . S
H794 C782 0.956 . S
H795 C782 0.972 . S
H796 C782 0.961 . S
H797 C783 0.958 . S
H798 C783 0.961 . S
H799 C783 0.960 . S
C800 C801 1.391 . S
C800 C802 1.394 . S
C800 H816 0.931 . S
C801 C800 1.391 . S
C801 C805 1.376 . S
C802 C800 1.394 . S
C802 C803 1.369 . S
C802 C806 1.531 . S
C803 C802 1.369 . S
C803 C804 1.410 . S
C803 C811 1.503 . S
C804 C803 1.410 . S
C804 C805 1.392 . S
C804 C807 1.511 . S
C805 C801 1.376 . S
C805 C804 1.392 . S
C805 H817 0.929 . S
C806 C802 1.531 . S
C806 H818 0.960 . S
C806 H819 0.962 . S
C806 H820 0.960 . S
C807 C804 1.511 . S
C807 H821 0.961 . S
C807 H822 0.961 . S
C807 H823 0.961 . S
C808 C809 1.370 . S
C808 C810 1.363 . S
C808 H824 0.931 . S
C809 C808 1.370 . S
C809 C813 1.408 . S
C810 C808 1.363 . S
C810 C811 1.370 . S
C810 C814 1.524 . S
C811 C803 1.503 . S
C811 C810 1.370 . S
C811 C812 1.403 . S
C812 C811 1.403 . S
C812 C813 1.404 . S
C812 C815 1.539 . S
C813 C809 1.408 . S
C813 C812 1.404 . S
C813 H825 0.930 . S
C814 C810 1.524 . S
C814 H826 0.956 . S
C814 H827 0.961 . S
C814 H828 0.961 . S
C815 C812 1.539 . S
C815 H829 0.958 . S
C815 H830 0.961 . S
C815 H831 0.960 . S
H816 C800 0.931 . S
H817 C805 0.929 . S
H818 C806 0.960 . S
H819 C806 0.962 . S
H820 C806 0.960 . S
H821 C807 0.961 . S
H822 C807 0.961 . S
H823 C807 0.961 . S
H824 C808 0.931 . S
H825 C813 0.930 . S
H826 C814 0.956 . S
H827 C814 0.961 . S
H828 C814 0.961 . S
H829 C815 0.958 . S
H830 C815 0.961 . S
H831 C815 0.960 . S
C832 C833 1.391 . S
C832 C834 1.394 . S
C832 H848 0.931 . S
C833 C832 1.391 . S
C833 C837 1.376 1_545 S
C834 C832 1.394 . S
C834 C835 1.369 . S
C834 C838 1.531 . S
C835 C834 1.369 . S
C835 C836 1.410 1_545 S
C835 C843 1.503 . S
C836 C835 1.410 1_565 S
C836 C837 1.392 . S
C836 C839 1.511 . S
C837 C833 1.376 1_565 S
C837 C836 1.392 . S
C837 H849 0.929 . S
C838 C834 1.531 . S
C838 H850 0.960 . S
C838 H851 0.962 . S
C838 H852 0.960 . S
C839 C836 1.511 . S
C839 H853 0.961 . S
C839 H854 0.961 . S
C839 H855 0.961 . S
C840 C841 1.370 1_565 S
C840 C842 1.360 . S
C840 H856 0.918 . S
C841 C840 1.370 1_545 S
C841 C845 1.390 . S
C842 C840 1.360 . S
C842 C843 1.386 1_565 S
C842 C846 1.527 . S
C843 C835 1.503 . S
C843 C842 1.386 1_545 S
C843 C844 1.403 . S
C844 C843 1.403 . S
C844 C845 1.404 . S
C844 C847 1.539 . S
C845 C841 1.390 . S
C845 C844 1.404 . S
C845 H857 0.930 . S
C846 C842 1.527 . S
C846 H858 0.956 1_565 S
C846 H859 0.961 . S
C846 H860 0.961 . S
C847 C844 1.539 . S
C847 H861 0.958 . S
C847 H862 0.961 1_545 S
C847 H863 0.960 1_545 S
H848 C832 0.931 . S
H849 C837 0.929 . S
H850 C838 0.960 . S
H851 C838 0.962 . S
H852 C838 0.960 . S
H853 C839 0.961 . S
H854 C839 0.961 . S
H855 C839 0.961 . S
H856 C840 0.918 . S
H857 C845 0.930 . S
H858 C846 0.956 1_545 S
H859 C846 0.961 . S
H860 C846 0.961 . S
H861 C847 0.958 . S
H862 C847 0.961 1_565 S
H863 C847 0.960 1_565 S
C864 C865 1.391 . S
C864 C866 1.394 . S
C864 H880 0.931 . S
C865 C864 1.391 . S
C865 C869 1.376 1_565 S
C866 C864 1.394 . S
C866 C867 1.369 . S
C866 C870 1.531 . S
C867 C866 1.369 . S
C867 C868 1.410 1_565 S
C867 C875 1.503 . S
C868 C867 1.410 1_545 S
C868 C869 1.392 . S
C868 C871 1.511 . S
C869 C865 1.376 1_545 S
C869 C868 1.392 . S
C869 H881 0.929 . S
C870 C866 1.531 . S
C870 H882 0.960 . S
C870 H883 0.962 . S
C870 H884 0.960 . S
C871 C868 1.511 . S
C871 H885 0.961 . S
C871 H886 0.961 . S
C871 H887 0.961 . S
C872 C873 1.370 1_545 S
C872 C874 1.363 . S
C872 H888 0.931 . S
C873 C872 1.370 1_565 S
C873 C877 1.408 . S
C874 C872 1.363 . S
C874 C875 1.370 1_545 S
C874 C878 1.524 . S
C875 C867 1.503 . S
C875 C874 1.370 1_565 S
C875 C876 1.403 . S
C876 C875 1.403 . S
C876 C877 1.404 . S
C876 C879 1.539 . S
C877 C873 1.408 . S
C877 C876 1.404 . S
C877 H889 0.930 . S
C878 C874 1.524 . S
C878 H890 0.956 . S
C878 H891 0.961 . S
C878 H892 0.961 . S
C879 C876 1.539 . S
C879 H893 0.958 . S
C879 H894 0.961 . S
C879 H895 0.960 . S
H880 C864 0.931 . S
H881 C869 0.929 . S
H882 C870 0.960 . S
H883 C870 0.962 . S
H884 C870 0.960 . S
H885 C871 0.961 . S
H886 C871 0.961 . S
H887 C871 0.961 . S
H888 C872 0.931 . S
H889 C877 0.930 . S
H890 C878 0.956 . S
H891 C878 0.961 . S
H892 C878 0.961 . S
H893 C879 0.958 . S
H894 C879 0.961 . S
H895 C879 0.960 . S
C896 C897 1.391 1_655 S
C896 C898 1.394 . S
C896 H912 0.931 . S
C897 C896 1.391 1_455 S
C897 C901 1.376 . S
C898 C896 1.394 . S
C898 C899 1.369 1_655 S
C898 C902 1.531 . S
C899 C898 1.369 1_455 S
C899 C900 1.410 . S
C899 C907 1.503 . S
C900 C899 1.410 . S
C900 C901 1.392 . S
C900 C903 1.511 . S
C901 C897 1.376 . S
C901 C900 1.392 . S
C901 H913 0.929 . S
C902 C898 1.531 . S
C902 H914 0.960 . S
C902 H915 0.962 . S
C902 H916 0.960 . S
C903 C900 1.511 . S
C903 H917 0.961 . S
C903 H918 0.961 . S
C903 H919 0.961 . S
C904 C905 1.370 1_655 S
C904 C906 1.363 . S
C904 H920 0.931 . S
C905 C904 1.370 1_455 S
C905 C909 1.408 . S
C906 C904 1.363 . S
C906 C907 1.370 1_655 S
C906 C910 1.524 . S
C907 C899 1.503 . S
C907 C906 1.370 1_455 S
C907 C908 1.403 . S
C908 C907 1.403 . S
C908 C909 1.404 . S
C908 C911 1.539 . S
C909 C905 1.408 . S
C909 C908 1.404 . S
C909 H921 0.930 . S
C910 C906 1.524 . S
C910 H922 0.956 . S
C910 H923 0.961 . S
C910 H924 0.961 . S
C911 C908 1.539 . S
C911 H925 0.958 . S
C911 H926 0.961 . S
C911 H927 0.960 . S
H912 C896 0.931 . S
H913 C901 0.929 . S
H914 C902 0.960 . S
H915 C902 0.962 . S
H916 C902 0.960 . S
H917 C903 0.961 . S
H918 C903 0.961 . S
H919 C903 0.961 . S
H920 C904 0.931 . S
H921 C909 0.930 . S
H922 C910 0.956 . S
H923 C910 0.961 . S
H924 C910 0.961 . S
H925 C911 0.958 . S
H926 C911 0.961 . S
H927 C911 0.960 . S
C928 C929 1.391 . S
C928 C930 1.394 . S
C928 H944 0.931 . S
C929 C928 1.391 . S
C929 C933 1.376 . S
C930 C928 1.394 . S
C930 C931 1.369 . S
C930 C934 1.531 . S
C931 C930 1.369 . S
C931 C932 1.410 . S
C931 C939 1.503 . S
C932 C931 1.410 . S
C932 C933 1.392 . S
C932 C935 1.511 . S
C933 C929 1.376 . S
C933 C932 1.392 . S
C933 H945 0.929 . S
C934 C930 1.531 . S
C934 H946 0.960 . S
C934 H947 0.962 . S
C934 H948 0.960 . S
C935 C932 1.511 . S
C935 H949 0.961 . S
C935 H950 0.961 . S
C935 H951 0.961 . S
C936 C937 1.370 . S
C936 C938 1.363 . S
C936 H952 0.931 . S
C937 C936 1.370 . S
C937 C941 1.408 . S
C938 C936 1.363 . S
C938 C939 1.370 . S
C938 C942 1.524 . S
C939 C931 1.503 . S
C939 C938 1.370 . S
C939 C940 1.403 . S
C940 C939 1.403 . S
C940 C941 1.404 . S
C940 C943 1.539 . S
C941 C937 1.408 . S
C941 C940 1.404 . S
C941 H953 0.930 . S
C942 C938 1.524 . S
C942 H954 0.956 . S
C942 H955 0.961 . S
C942 H956 0.961 . S
C943 C940 1.539 . S
C943 H957 0.958 . S
C943 H958 0.961 . S
C943 H959 0.960 . S
H944 C928 0.931 . S
H945 C933 0.929 . S
H946 C934 0.960 . S
H947 C934 0.962 . S
H948 C934 0.960 . S
H949 C935 0.961 . S
H950 C935 0.961 . S
H951 C935 0.961 . S
H952 C936 0.931 . S
H953 C941 0.930 . S
H954 C942 0.956 . S
H955 C942 0.961 . S
H956 C942 0.961 . S
H957 C943 0.958 . S
H958 C943 0.961 . S
H959 C943 0.960 . S
C960 C961 1.391 . S
C960 C962 1.394 . S
C960 H976 0.931 . S
C961 C960 1.391 . S
C961 C965 1.376 . S
C962 C960 1.394 . S
C962 C963 1.369 . S
C962 C966 1.531 . S
C963 C962 1.369 . S
C963 C964 1.410 . S
C963 C971 1.503 . S
C964 C963 1.410 . S
C964 C965 1.392 . S
C964 C967 1.511 . S
C965 C961 1.376 . S
C965 C964 1.392 . S
C965 H977 0.929 . S
C966 C962 1.531 . S
C966 H978 0.960 . S
C966 H979 0.962 . S
C966 H980 0.960 . S
C967 C964 1.511 . S
C967 H981 0.961 . S
C967 H982 0.961 . S
C967 H983 0.961 . S
C968 C969 1.370 . S
C968 C970 1.363 . S
C968 H984 0.931 . S
C969 C968 1.370 . S
C969 C973 1.408 . S
C970 C968 1.363 . S
C970 C971 1.370 . S
C970 C974 1.524 . S
C971 C963 1.503 . S
C971 C970 1.370 . S
C971 C972 1.403 . S
C972 C971 1.403 . S
C972 C973 1.404 . S
C972 C975 1.539 . S
C973 C969 1.408 . S
C973 C972 1.404 . S
C973 H985 0.930 . S
C974 C970 1.524 . S
C974 H986 0.956 . S
C974 H987 0.961 . S
C974 H988 0.961 . S
C975 C972 1.539 . S
C975 H989 0.958 . S
C975 H990 0.961 . S
C975 H991 0.960 . S
H976 C960 0.931 . S
H977 C965 0.929 . S
H978 C966 0.960 . S
H979 C966 0.962 . S
H980 C966 0.960 . S
H981 C967 0.961 . S
H982 C967 0.961 . S
H983 C967 0.961 . S
H984 C968 0.931 . S
H985 C973 0.930 . S
H986 C974 0.956 . S
H987 C974 0.961 . S
H988 C974 0.961 . S
H989 C975 0.958 . S
H990 C975 0.961 . S
H991 C975 0.960 . S
C992 C993 1.391 . S
C992 C994 1.394 . S
C992 H1008 0.931 . S
C993 C992 1.391 . S
C993 C997 1.376 . S
C994 C992 1.394 . S
C994 C995 1.369 . S
C994 C998 1.531 . S
C995 C994 1.369 . S
C995 C996 1.410 . S
C995 C1003 1.503 . S
C996 C995 1.410 . S
C996 C997 1.392 . S
C996 C999 1.511 . S
C997 C993 1.376 . S
C997 C996 1.392 . S
C997 H1009 0.929 . S
C998 C994 1.531 . S
C998 H1010 0.960 . S
C998 H1011 0.962 . S
C998 H1012 0.960 . S
C999 C996 1.511 . S
C999 H1013 0.961 . S
C999 H1014 0.961 . S
C999 H1015 0.961 . S
C1000 C1001 1.370 . S
C1000 C1002 1.363 . S
C1000 H1016 0.931 . S
C1001 C1000 1.370 . S
C1001 C1005 1.408 . S
C1002 C1000 1.363 . S
C1002 C1003 1.370 . S
C1002 C1006 1.524 . S
C1003 C995 1.503 . S
C1003 C1002 1.370 . S
C1003 C1004 1.403 . S
C1004 C1003 1.403 . S
C1004 C1005 1.404 . S
C1004 C1007 1.539 . S
C1005 C1001 1.408 . S
C1005 C1004 1.404 . S
C1005 H1017 0.930 . S
C1006 C1002 1.524 . S
C1006 H1018 0.956 . S
C1006 H1019 0.961 . S
C1006 H1020 0.961 . S
C1007 C1004 1.539 . S
C1007 H1021 0.958 . S
C1007 H1022 0.961 . S
C1007 H1023 0.960 . S
H1008 C992 0.931 . S
H1009 C997 0.929 . S
H1010 C998 0.960 . S
H1011 C998 0.962 . S
H1012 C998 0.960 . S
H1013 C999 0.961 . S
H1014 C999 0.961 . S
H1015 C999 0.961 . S
H1016 C1000 0.931 . S
H1017 C1005 0.930 . S
H1018 C1006 0.956 . S
H1019 C1006 0.961 . S
H1020 C1006 0.961 . S
H1021 C1007 0.958 . S
H1022 C1007 0.961 . S
H1023 C1007 0.960 . S
C1024 C1025 1.391 . S
C1024 C1026 1.394 . S
C1024 H1040 0.931 . S
C1025 C1024 1.391 . S
C1025 C1029 1.376 . S
C1026 C1024 1.394 . S
C1026 C1027 1.369 . S
C1026 C1030 1.531 . S
C1027 C1026 1.369 . S
C1027 C1028 1.410 . S
C1027 C1035 1.503 . S
C1028 C1027 1.410 . S
C1028 C1029 1.392 . S
C1028 C1031 1.511 . S
C1029 C1025 1.376 . S
C1029 C1028 1.392 . S
C1029 H1041 0.929 . S
C1030 C1026 1.531 . S
C1030 H1042 0.960 . S
C1030 H1043 0.962 . S
C1030 H1044 0.960 . S
C1031 C1028 1.511 . S
C1031 H1045 0.961 . S
C1031 H1046 0.961 . S
C1031 H1047 0.961 . S
C1032 C1033 1.370 . S
C1032 C1034 1.363 . S
C1032 H1048 0.931 . S
C1033 C1032 1.370 . S
C1033 C1037 1.408 . S
C1034 C1032 1.363 . S
C1034 C1035 1.370 . S
C1034 C1038 1.524 . S
C1035 C1027 1.503 . S
C1035 C1034 1.370 . S
C1035 C1036 1.403 . S
C1036 C1035 1.403 . S
C1036 C1037 1.404 . S
C1036 C1039 1.539 . S
C1037 C1033 1.408 . S
C1037 C1036 1.404 . S
C1037 H1049 0.930 . S
C1038 C1034 1.524 . S
C1038 H1050 0.956 . S
C1038 H1051 0.961 . S
C1038 H1052 0.961 . S
C1039 C1036 1.539 . S
C1039 H1053 0.958 . S
C1039 H1054 0.961 . S
C1039 H1055 0.960 . S
H1040 C1024 0.931 . S
H1041 C1029 0.929 . S
H1042 C1030 0.960 . S
H1043 C1030 0.962 . S
H1044 C1030 0.960 . S
H1045 C1031 0.961 . S
H1046 C1031 0.961 . S
H1047 C1031 0.961 . S
H1048 C1032 0.931 . S
H1049 C1037 0.930 . S
H1050 C1038 0.956 . S
H1051 C1038 0.961 . S
H1052 C1038 0.961 . S
H1053 C1039 0.958 . S
H1054 C1039 0.961 . S
H1055 C1039 0.960 . S
C1056 C1057 1.391 . S
C1056 C1058 1.394 . S
C1056 H1072 0.931 . S
C1057 C1056 1.391 . S
C1057 C1061 1.376 . S
C1058 C1056 1.394 . S
C1058 C1059 1.369 . S
C1058 C1062 1.531 . S
C1059 C1058 1.369 . S
C1059 C1060 1.410 . S
C1059 C1067 1.503 . S
C1060 C1059 1.410 . S
C1060 C1061 1.392 . S
C1060 C1063 1.511 . S
C1061 C1057 1.376 . S
C1061 C1060 1.392 . S
C1061 H1073 0.929 . S
C1062 C1058 1.531 . S
C1062 H1074 0.960 . S
C1062 H1075 0.962 . S
C1062 H1076 0.960 . S
C1063 C1060 1.511 . S
C1063 H1077 0.961 . S
C1063 H1078 0.961 . S
C1063 H1079 0.961 . S
C1064 C1065 1.370 . S
C1064 C1066 1.363 . S
C1064 H1080 0.931 . S
C1065 C1064 1.370 . S
C1065 C1069 1.408 . S
C1066 C1064 1.363 . S
C1066 C1067 1.370 . S
C1066 C1070 1.524 . S
C1067 C1059 1.503 . S
C1067 C1066 1.370 . S
C1067 C1068 1.403 . S
C1068 C1067 1.403 . S
C1068 C1069 1.404 . S
C1068 C1071 1.539 . S
C1069 C1065 1.408 . S
C1069 C1068 1.404 . S
C1069 H1081 0.930 . S
C1070 C1066 1.524 . S
C1070 H1082 0.956 . S
C1070 H1083 0.961 . S
C1070 H1084 0.961 . S
C1071 C1068 1.539 . S
C1071 H1085 0.958 . S
C1071 H1086 0.961 . S
C1071 H1087 0.960 . S
H1072 C1056 0.931 . S
H1073 C1061 0.929 . S
H1074 C1062 0.960 . S
H1075 C1062 0.962 . S
H1076 C1062 0.960 . S
H1077 C1063 0.961 . S
H1078 C1063 0.961 . S
H1079 C1063 0.961 . S
H1080 C1064 0.931 . S
H1081 C1069 0.930 . S
H1082 C1070 0.956 . S
H1083 C1070 0.961 . S
H1084 C1070 0.961 . S
H1085 C1071 0.958 . S
H1086 C1071 0.961 . S
H1087 C1071 0.960 . S
C1088 C1089 1.391 . S
C1088 C1090 1.394 . S
C1088 H1104 0.931 . S
C1089 C1088 1.391 . S
C1089 C1093 1.376 . S
C1090 C1088 1.394 . S
C1090 C1091 1.369 . S
C1090 C1094 1.531 . S
C1091 C1090 1.369 . S
C1091 C1092 1.410 . S
C1091 C1099 1.503 . S
C1092 C1091 1.410 . S
C1092 C1093 1.392 . S
C1092 C1095 1.511 . S
C1093 C1089 1.376 . S
C1093 C1092 1.392 . S
C1093 H1105 0.929 . S
C1094 C1090 1.531 . S
C1094 H1106 0.960 . S
C1094 H1107 0.962 . S
C1094 H1108 0.960 . S
C1095 C1092 1.511 . S
C1095 H1109 0.961 . S
C1095 H1110 0.961 . S
C1095 H1111 0.961 . S
C1096 C1097 1.370 . S
C1096 C1098 1.363 . S
C1096 H1112 0.931 . S
C1097 C1096 1.370 . S
C1097 C1101 1.408 . S
C1098 C1096 1.363 . S
C1098 C1099 1.370 . S
C1098 C1102 1.524 . S
C1099 C1091 1.503 . S
C1099 C1098 1.370 . S
C1099 C1100 1.403 . S
C1100 C1099 1.403 . S
C1100 C1101 1.404 . S
C1100 C1103 1.539 . S
C1101 C1097 1.408 . S
C1101 C1100 1.404 . S
C1101 H1113 0.930 . S
C1102 C1098 1.524 . S
C1102 H1114 0.956 . S
C1102 H1115 0.961 . S
C1102 H1116 0.961 . S
C1103 C1100 1.539 . S
C1103 H1117 0.958 . S
C1103 H1118 0.961 . S
C1103 H1119 0.960 . S
H1104 C1088 0.931 . S
H1105 C1093 0.929 . S
H1106 C1094 0.960 . S
H1107 C1094 0.962 . S
H1108 C1094 0.960 . S
H1109 C1095 0.961 . S
H1110 C1095 0.961 . S
H1111 C1095 0.961 . S
H1112 C1096 0.931 . S
H1113 C1101 0.930 . S
H1114 C1102 0.956 . S
H1115 C1102 0.961 . S
H1116 C1102 0.961 . S
H1117 C1103 0.958 . S
H1118 C1103 0.961 . S
H1119 C1103 0.960 . S
C1120 C1121 1.391 . S
C1120 C1122 1.394 . S
C1120 H1136 0.931 . S
C1121 C1120 1.391 . S
C1121 C1125 1.376 . S
C1122 C1120 1.394 . S
C1122 C1123 1.369 . S
C1122 C1126 1.531 . S
C1123 C1122 1.369 . S
C1123 C1124 1.410 . S
C1123 C1131 1.503 . S
C1124 C1123 1.410 . S
C1124 C1125 1.392 . S
C1124 C1127 1.511 . S
C1125 C1121 1.376 . S
C1125 C1124 1.392 . S
C1125 H1137 0.929 . S
C1126 C1122 1.531 . S
C1126 H1138 0.960 . S
C1126 H1139 0.962 . S
C1126 H1140 0.960 . S
C1127 C1124 1.511 . S
C1127 H1141 0.961 . S
C1127 H1142 0.961 . S
C1127 H1143 0.961 . S
C1128 C1129 1.370 . S
C1128 C1130 1.363 . S
C1128 H1144 0.931 . S
C1129 C1128 1.370 . S
C1129 C1133 1.408 . S
C1130 C1128 1.363 . S
C1130 C1131 1.370 . S
C1130 C1134 1.524 . S
C1131 C1123 1.503 . S
C1131 C1130 1.370 . S
C1131 C1132 1.403 . S
C1132 C1131 1.403 . S
C1132 C1133 1.404 . S
C1132 C1135 1.539 . S
C1133 C1129 1.408 . S
C1133 C1132 1.404 . S
C1133 H1145 0.930 . S
C1134 C1130 1.524 . S
C1134 H1146 0.956 . S
C1134 H1147 0.961 . S
C1134 H1148 0.961 . S
C1135 C1132 1.539 . S
C1135 H1149 0.958 . S
C1135 H1150 0.961 . S
C1135 H1151 0.960 . S
H1136 C1120 0.931 . S
H1137 C1125 0.929 . S
H1138 C1126 0.960 . S
H1139 C1126 0.962 . S
H1140 C1126 0.960 . S
H1141 C1127 0.961 . S
H1142 C1127 0.961 . S
H1143 C1127 0.961 . S
H1144 C1128 0.931 . S
H1145 C1133 0.930 . S
H1146 C1134 0.956 . S
H1147 C1134 0.961 . S
H1148 C1134 0.961 . S
H1149 C1135 0.958 . S
H1150 C1135 0.961 . S
H1151 C1135 0.960 . S
C1152 C1153 1.391 . S
C1152 C1154 1.394 . S
C1152 H1168 0.931 . S
C1153 C1152 1.391 . S
C1153 C1157 1.376 . S
C1154 C1152 1.394 . S
C1154 C1155 1.369 . S
C1154 C1158 1.531 . S
C1155 C1154 1.369 . S
C1155 C1156 1.410 . S
C1155 C1163 1.503 . S
C1156 C1155 1.410 . S
C1156 C1157 1.392 . S
C1156 C1159 1.511 . S
C1157 C1153 1.376 . S
C1157 C1156 1.392 . S
C1157 H1169 0.929 . S
C1158 C1154 1.531 . S
C1158 H1170 0.960 . S
C1158 H1171 0.962 . S
C1158 H1172 0.960 . S
C1159 C1156 1.511 . S
C1159 H1173 0.961 . S
C1159 H1174 0.961 . S
C1159 H1175 0.961 . S
C1160 C1161 1.370 . S
C1160 C1162 1.363 . S
C1160 H1176 0.931 . S
C1161 C1160 1.370 . S
C1161 C1165 1.408 . S
C1162 C1160 1.363 . S
C1162 C1163 1.370 . S
C1162 C1166 1.524 . S
C1163 C1155 1.503 . S
C1163 C1162 1.370 . S
C1163 C1164 1.403 . S
C1164 C1163 1.403 . S
C1164 C1165 1.404 . S
C1164 C1167 1.539 . S
C1165 C1161 1.408 . S
C1165 C1164 1.404 . S
C1165 H1177 0.930 . S
C1166 C1162 1.524 . S
C1166 H1178 0.956 . S
C1166 H1179 0.961 . S
C1166 H1180 0.961 . S
C1167 C1164 1.539 . S
C1167 H1181 0.958 . S
C1167 H1182 0.961 . S
C1167 H1183 0.960 . S
H1168 C1152 0.931 . S
H1169 C1157 0.929 . S
H1170 C1158 0.960 . S
H1171 C1158 0.962 . S
H1172 C1158 0.960 . S
H1173 C1159 0.961 . S
H1174 C1159 0.961 . S
H1175 C1159 0.961 . S
H1176 C1160 0.931 . S
H1177 C1165 0.930 . S
H1178 C1166 0.956 . S
H1179 C1166 0.961 . S
H1180 C1166 0.961 . S
H1181 C1167 0.958 . S
H1182 C1167 0.961 . S
H1183 C1167 0.960 . S
C1184 C1185 1.391 . S
C1184 C1186 1.394 . S
C1184 H1200 0.931 . S
C1185 C1184 1.391 . S
C1185 C1189 1.376 . S
C1186 C1184 1.394 . S
C1186 C1187 1.369 . S
C1186 C1190 1.531 . S
C1187 C1186 1.369 . S
C1187 C1188 1.410 . S
C1187 C1195 1.503 . S
C1188 C1187 1.410 . S
C1188 C1189 1.392 . S
C1188 C1191 1.511 . S
C1189 C1185 1.376 . S
C1189 C1188 1.392 . S
C1189 H1201 0.929 . S
C1190 C1186 1.531 . S
C1190 H1202 0.960 . S
C1190 H1203 0.962 . S
C1190 H1204 0.960 . S
C1191 C1188 1.511 . S
C1191 H1205 0.961 . S
C1191 H1206 0.961 . S
C1191 H1207 0.961 . S
C1192 C1193 1.370 . S
C1192 C1194 1.363 . S
C1192 H1208 0.931 . S
C1193 C1192 1.370 . S
C1193 C1197 1.408 . S
C1194 C1192 1.363 . S
C1194 C1195 1.370 . S
C1194 C1198 1.524 . S
C1195 C1187 1.503 . S
C1195 C1194 1.370 . S
C1195 C1196 1.403 . S
C1196 C1195 1.403 . S
C1196 C1197 1.404 . S
C1196 C1199 1.539 . S
C1197 C1193 1.408 . S
C1197 C1196 1.404 . S
C1197 H1209 0.930 . S
C1198 C1194 1.524 . S
C1198 H1210 0.956 . S
C1198 H1211 0.961 . S
C1198 H1212 0.961 . S
C1199 C1196 1.539 . S
C1199 H1213 0.958 . S
C1199 H1214 0.961 . S
C1199 H1215 0.960 . S
H1200 C1184 0.931 . S
H1201 C1189 0.929 . S
H1202 C1190 0.960 . S
H1203 C1190 0.962 . S
H1204 C1190 0.960 . S
H1205 C1191 0.961 . S
H1206 C1191 0.961 . S
H1207 C1191 0.961 . S
H1208 C1192 0.931 . S
H1209 C1197 0.930 . S
H1210 C1198 0.956 . S
H1211 C1198 0.961 . S
H1212 C1198 0.961 . S
H1213 C1199 0.958 . S
H1214 C1199 0.961 . S
H1215 C1199 0.960 . S
C1216 C1217 1.391 . S
C1216 C1218 1.394 . S
C1216 H1232 0.931 . S
C1217 C1216 1.391 . S
C1217 C1221 1.376 . S
C1218 C1216 1.394 . S
C1218 C1219 1.369 . S
C1218 C1222 1.531 . S
C1219 C1218 1.369 . S
C1219 C1220 1.410 . S
C1219 C1227 1.503 . S
C1220 C1219 1.410 . S
C1220 C1221 1.392 . S
C1220 C1223 1.511 . S
C1221 C1217 1.376 . S
C1221 C1220 1.392 . S
C1221 H1233 0.929 . S
C1222 C1218 1.531 . S
C1222 H1234 0.960 . S
C1222 H1235 0.962 . S
C1222 H1236 0.960 . S
C1223 C1220 1.511 . S
C1223 H1237 0.961 . S
C1223 H1238 0.961 . S
C1223 H1239 0.961 . S
C1224 C1225 1.370 . S
C1224 C1226 1.363 . S
C1224 H1240 0.931 . S
C1225 C1224 1.370 . S
C1225 C1229 1.408 . S
C1226 C1224 1.363 . S
C1226 C1227 1.370 . S
C1226 C1230 1.524 . S
C1227 C1219 1.503 . S
C1227 C1226 1.370 . S
C1227 C1228 1.403 . S
C1228 C1227 1.403 . S
C1228 C1229 1.404 . S
C1228 C1231 1.539 . S
C1229 C1225 1.408 . S
C1229 C1228 1.404 . S
C1229 H1241 0.930 . S
C1230 C1226 1.524 . S
C1230 H1242 0.956 . S
C1230 H1243 0.961 . S
C1230 H1244 0.961 . S
C1231 C1228 1.539 . S
C1231 H1245 0.958 . S
C1231 H1246 0.961 . S
C1231 H1247 0.960 . S
H1232 C1216 0.931 . S
H1233 C1221 0.929 . S
H1234 C1222 0.960 . S
H1235 C1222 0.962 . S
H1236 C1222 0.960 . S
H1237 C1223 0.961 . S
H1238 C1223 0.961 . S
H1239 C1223 0.961 . S
H1240 C1224 0.931 . S
H1241 C1229 0.930 . S
H1242 C1230 0.956 . S
H1243 C1230 0.961 . S
H1244 C1230 0.961 . S
H1245 C1231 0.958 . S
H1246 C1231 0.961 . S
H1247 C1231 0.960 . S
C1248 C1249 1.391 . S
C1248 C1250 1.394 . S
C1248 H1264 0.931 . S
C1249 C1248 1.391 . S
C1249 C1253 1.376 . S
C1250 C1248 1.394 . S
C1250 C1251 1.369 . S
C1250 C1254 1.531 . S
C1251 C1250 1.369 . S
C1251 C1252 1.410 . S
C1251 C1259 1.503 . S
C1252 C1251 1.410 . S
C1252 C1253 1.392 . S
C1252 C1255 1.511 . S
C1253 C1249 1.376 . S
C1253 C1252 1.392 . S
C1253 H1265 0.929 . S
C1254 C1250 1.531 . S
C1254 H1266 0.960 . S
C1254 H1267 0.962 . S
C1254 H1268 0.960 . S
C1255 C1252 1.511 . S
C1255 H1269 0.961 . S
C1255 H1270 0.961 . S
C1255 H1271 0.961 . S
C1256 C1257 1.370 . S
C1256 C1258 1.363 . S
C1256 H1272 0.931 . S
C1257 C1256 1.370 . S
C1257 C1261 1.408 . S
C1258 C1256 1.363 . S
C1258 C1259 1.370 . S
C1258 C1262 1.524 . S
C1259 C1251 1.503 . S
C1259 C1258 1.370 . S
C1259 C1260 1.403 . S
C1260 C1259 1.403 . S
C1260 C1261 1.404 . S
C1260 C1263 1.539 . S
C1261 C1257 1.408 . S
C1261 C1260 1.404 . S
C1261 H1273 0.930 . S
C1262 C1258 1.524 . S
C1262 H1274 0.956 . S
C1262 H1275 0.961 . S
C1262 H1276 0.961 . S
C1263 C1260 1.539 . S
C1263 H1277 0.958 . S
C1263 H1278 0.961 . S
C1263 H1279 0.960 . S
H1264 C1248 0.931 . S
H1265 C1253 0.929 . S
H1266 C1254 0.960 . S
H1267 C1254 0.962 . S
H1268 C1254 0.960 . S
H1269 C1255 0.961 . S
H1270 C1255 0.961 . S
H1271 C1255 0.961 . S
H1272 C1256 0.931 . S
H1273 C1261 0.930 . S
H1274 C1262 0.956 . S
H1275 C1262 0.961 . S
H1276 C1262 0.961 . S
H1277 C1263 0.958 . S
H1278 C1263 0.961 . S
H1279 C1263 0.960 . S
C1280 C1281 1.391 . S
C1280 C1282 1.394 . S
C1280 H1296 0.931 . S
C1281 C1280 1.391 . S
C1281 C1285 1.376 . S
C1282 C1280 1.394 . S
C1282 C1283 1.369 . S
C1282 C1286 1.531 . S
C1283 C1282 1.369 . S
C1283 C1284 1.410 . S
C1283 C1291 1.503 . S
C1284 C1283 1.410 . S
C1284 C1285 1.392 . S
C1284 C1287 1.511 . S
C1285 C1281 1.376 . S
C1285 C1284 1.392 . S
C1285 H1297 0.929 . S
C1286 C1282 1.531 . S
C1286 H1298 0.960 . S
C1286 H1299 0.962 . S
C1286 H1300 0.960 . S
C1287 C1284 1.511 . S
C1287 H1301 0.961 . S
C1287 H1302 0.961 . S
C1287 H1303 0.961 . S
C1288 C1289 1.370 . S
C1288 C1290 1.363 . S
C1288 H1304 0.931 . S
C1289 C1288 1.370 . S
C1289 C1293 1.408 . S
C1290 C1288 1.363 . S
C1290 C1291 1.370 . S
C1290 C1294 1.524 . S
C1291 C1283 1.503 . S
C1291 C1290 1.370 . S
C1291 C1292 1.403 . S
C1292 C1291 1.403 . S
C1292 C1293 1.404 . S
C1292 C1295 1.539 . S
C1293 C1289 1.408 . S
C1293 C1292 1.404 . S
C1293 H1305 0.930 . S
C1294 C1290 1.524 . S
C1294 H1306 0.956 . S
C1294 H1307 0.961 . S
C1294 H1308 0.961 . S
C1295 C1292 1.539 . S
C1295 H1309 0.958 . S
C1295 H1310 0.961 . S
C1295 H1311 0.960 . S
H1296 C1280 0.931 . S
H1297 C1285 0.929 . S
H1298 C1286 0.960 . S
H1299 C1286 0.962 . S
H1300 C1286 0.960 . S
H1301 C1287 0.961 . S
H1302 C1287 0.961 . S
H1303 C1287 0.961 . S
H1304 C1288 0.931 . S
H1305 C1293 0.930 . S
H1306 C1294 0.956 . S
H1307 C1294 0.961 . S
H1308 C1294 0.961 . S
H1309 C1295 0.958 . S
H1310 C1295 0.961 . S
H1311 C1295 0.960 . S
C1312 C1313 1.391 . S
C1312 C1314 1.394 . S
C1312 H1328 0.931 . S
C1313 C1312 1.391 . S
C1313 C1317 1.376 . S
C1314 C1312 1.394 . S
C1314 C1315 1.369 . S
C1314 C1318 1.531 . S
C1315 C1314 1.369 . S
C1315 C1316 1.410 . S
C1315 C1323 1.503 . S
C1316 C1315 1.410 . S
C1316 C1317 1.392 . S
C1316 C1319 1.511 . S
C1317 C1313 1.376 . S
C1317 C1316 1.392 . S
C1317 H1329 0.929 . S
C1318 C1314 1.531 . S
C1318 H1330 0.960 . S
C1318 H1331 0.962 . S
C1318 H1332 0.960 . S
C1319 C1316 1.511 . S
C1319 H1333 0.961 . S
C1319 H1334 0.961 . S
C1319 H1335 0.961 . S
C1320 C1321 1.370 . S
C1320 C1322 1.363 . S
C1320 H1336 0.931 . S
C1321 C1320 1.370 . S
C1321 C1325 1.408 . S
C1322 C1320 1.363 . S
C1322 C1323 1.370 . S
C1322 C1326 1.524 . S
C1323 C1315 1.503 . S
C1323 C1322 1.370 . S
C1323 C1324 1.403 . S
C1324 C1323 1.403 . S
C1324 C1325 1.404 . S
C1324 C1327 1.539 . S
C1325 C1321 1.408 . S
C1325 C1324 1.404 . S
C1325 H1337 0.930 . S
C1326 C1322 1.524 . S
C1326 H1338 0.956 . S
C1326 H1339 0.961 . S
C1326 H1340 0.961 . S
C1327 C1324 1.539 . S
C1327 H1341 0.958 . S
C1327 H1342 0.961 . S
C1327 H1343 0.960 . S
H1328 C1312 0.931 . S
H1329 C1317 0.929 . S
H1330 C1318 0.960 . S
H1331 C1318 0.962 . S
H1332 C1318 0.960 . S
H1333 C1319 0.961 . S
H1334 C1319 0.961 . S
H1335 C1319 0.961 . S
H1336 C1320 0.931 . S
H1337 C1325 0.930 . S
H1338 C1326 0.956 . S
H1339 C1326 0.961 . S
H1340 C1326 0.961 . S
H1341 C1327 0.958 . S
H1342 C1327 0.961 . S
H1343 C1327 0.960 . S
C1344 C1345 1.391 . S
C1344 C1346 1.394 . S
C1344 H1360 0.931 . S
C1345 C1344 1.391 . S
C1345 C1349 1.376 . S
C1346 C1344 1.394 . S
C1346 C1347 1.369 . S
C1346 C1350 1.531 . S
C1347 C1346 1.369 . S
C1347 C1348 1.410 . S
C1347 C1355 1.503 . S
C1348 C1347 1.410 . S
C1348 C1349 1.392 . S
C1348 C1351 1.511 . S
C1349 C1345 1.376 . S
C1349 C1348 1.392 . S
C1349 H1361 0.929 . S
C1350 C1346 1.531 . S
C1350 H1362 0.960 . S
C1350 H1363 0.962 . S
C1350 H1364 0.960 . S
C1351 C1348 1.511 . S
C1351 H1365 0.961 . S
C1351 H1366 0.961 . S
C1351 H1367 0.961 . S
C1352 C1353 1.370 . S
C1352 C1354 1.363 . S
C1352 H1368 0.931 . S
C1353 C1352 1.370 . S
C1353 C1357 1.408 . S
C1354 C1352 1.363 . S
C1354 C1355 1.370 . S
C1354 C1358 1.524 . S
C1355 C1347 1.503 . S
C1355 C1354 1.370 . S
C1355 C1356 1.403 . S
C1356 C1355 1.403 . S
C1356 C1357 1.404 . S
C1356 C1359 1.539 . S
C1357 C1353 1.408 . S
C1357 C1356 1.404 . S
C1357 H1369 0.930 . S
C1358 C1354 1.524 . S
C1358 H1370 0.956 . S
C1358 H1371 0.961 . S
C1358 H1372 0.961 . S
C1359 C1356 1.539 . S
C1359 H1373 0.958 . S
C1359 H1374 0.961 . S
C1359 H1375 0.960 . S
H1360 C1344 0.931 . S
H1361 C1349 0.929 . S
H1362 C1350 0.960 . S
H1363 C1350 0.962 . S
H1364 C1350 0.960 . S
H1365 C1351 0.961 . S
H1366 C1351 0.961 . S
H1367 C1351 0.961 . S
H1368 C1352 0.931 . S
H1369 C1357 0.930 . S
H1370 C1358 0.956 . S
H1371 C1358 0.961 . S
H1372 C1358 0.961 . S
H1373 C1359 0.958 . S
H1374 C1359 0.961 . S
H1375 C1359 0.960 . S
C1376 C1377 1.391 . S
C1376 C1378 1.394 . S
C1376 H1392 0.931 . S
C1377 C1376 1.391 . S
C1377 C1381 1.376 . S
C1378 C1376 1.394 . S
C1378 C1379 1.369 . S
C1378 C1382 1.531 . S
C1379 C1378 1.369 . S
C1379 C1380 1.410 . S
C1379 C1387 1.503 . S
C1380 C1379 1.410 . S
C1380 C1381 1.392 . S
C1380 C1383 1.511 . S
C1381 C1377 1.376 . S
C1381 C1380 1.392 . S
C1381 H1393 0.929 . S
C1382 C1378 1.531 . S
C1382 H1394 0.960 . S
C1382 H1395 0.962 . S
C1382 H1396 0.960 . S
C1383 C1380 1.511 . S
C1383 H1397 0.961 . S
C1383 H1398 0.961 . S
C1383 H1399 0.961 . S
C1384 C1385 1.370 . S
C1384 C1386 1.363 . S
C1384 H1400 0.931 . S
C1385 C1384 1.370 . S
C1385 C1389 1.408 . S
C1386 C1384 1.363 . S
C1386 C1387 1.370 . S
C1386 C1390 1.524 . S
C1387 C1379 1.503 . S
C1387 C1386 1.370 . S
C1387 C1388 1.403 . S
C1388 C1387 1.403 . S
C1388 C1389 1.404 . S
C1388 C1391 1.539 . S
C1389 C1385 1.408 . S
C1389 C1388 1.404 . S
C1389 H1401 0.930 . S
C1390 C1386 1.524 . S
C1390 H1402 0.956 . S
C1390 H1403 0.961 . S
C1390 H1404 0.961 . S
C1391 C1388 1.539 . S
C1391 H1405 0.958 . S
C1391 H1406 0.961 . S
C1391 H1407 0.960 . S
H1392 C1376 0.931 . S
H1393 C1381 0.929 . S
H1394 C1382 0.960 . S
H1395 C1382 0.962 . S
H1396 C1382 0.960 . S
H1397 C1383 0.961 . S
H1398 C1383 0.961 . S
H1399 C1383 0.961 . S
H1400 C1384 0.931 . S
H1401 C1389 0.930 . S
H1402 C1390 0.956 . S
H1403 C1390 0.961 . S
H1404 C1390 0.961 . S
H1405 C1391 0.958 . S
H1406 C1391 0.961 . S
H1407 C1391 0.960 . S
C1408 C1409 1.391 . S
C1408 C1410 1.394 . S
C1408 H1424 0.931 . S
C1409 C1408 1.391 . S
C1409 C1413 1.376 . S
C1410 C1408 1.394 . S
C1410 C1411 1.369 . S
C1410 C1414 1.531 . S
C1411 C1410 1.369 . S
C1411 C1412 1.410 . S
C1411 C1419 1.503 . S
C1412 C1411 1.410 . S
C1412 C1413 1.392 . S
C1412 C1415 1.511 . S
C1413 C1409 1.376 . S
C1413 C1412 1.392 . S
C1413 H1425 0.929 . S
C1414 C1410 1.531 . S
C1414 H1426 0.960 . S
C1414 H1427 0.962 . S
C1414 H1428 0.960 . S
C1415 C1412 1.511 . S
C1415 H1429 0.961 . S
C1415 H1430 0.961 . S
C1415 H1431 0.961 . S
C1416 C1417 1.370 . S
C1416 C1418 1.363 . S
C1416 H1432 0.931 . S
C1417 C1416 1.370 . S
C1417 C1421 1.408 . S
C1418 C1416 1.363 . S
C1418 C1419 1.370 . S
C1418 C1422 1.524 . S
C1419 C1411 1.503 . S
C1419 C1418 1.370 . S
C1419 C1420 1.403 . S
C1420 C1419 1.403 . S
C1420 C1421 1.404 . S
C1420 C1423 1.539 . S
C1421 C1417 1.408 . S
C1421 C1420 1.404 . S
C1421 H1433 0.930 . S
C1422 C1418 1.524 . S
C1422 H1434 0.956 . S
C1422 H1435 0.961 . S
C1422 H1436 0.961 . S
C1423 C1420 1.539 . S
C1423 H1437 0.958 . S
C1423 H1438 0.961 . S
C1423 H1439 0.960 . S
H1424 C1408 0.931 . S
H1425 C1413 0.929 . S
H1426 C1414 0.960 . S
H1427 C1414 0.962 . S
H1428 C1414 0.960 . S
H1429 C1415 0.961 . S
H1430 C1415 0.961 . S
H1431 C1415 0.961 . S
H1432 C1416 0.931 . S
H1433 C1421 0.930 . S
H1434 C1422 0.956 . S
H1435 C1422 0.961 . S
H1436 C1422 0.961 . S
H1437 C1423 0.958 . S
H1438 C1423 0.961 . S
H1439 C1423 0.960 . S
C1440 C1441 1.391 . S
C1440 C1442 1.394 . S
C1440 H1456 0.931 . S
C1441 C1440 1.391 . S
C1441 C1445 1.376 . S
C1442 C1440 1.394 . S
C1442 C1443 1.369 . S
C1442 C1446 1.531 . S
C1443 C1442 1.369 . S
C1443 C1444 1.410 . S
C1443 C1451 1.503 . S
C1444 C1443 1.410 . S
C1444 C1445 1.392 . S
C1444 C1447 1.511 . S
C1445 C1441 1.376 . S
C1445 C1444 1.392 . S
C1445 H1457 0.929 . S
C1446 C1442 1.531 . S
C1446 H1458 0.960 . S
C1446 H1459 0.962 . S
C1446 H1460 0.960 . S
C1447 C1444 1.511 . S
C1447 H1461 0.961 . S
C1447 H1462 0.961 . S
C1447 H1463 0.961 . S
C1448 C1449 1.370 . S
C1448 C1450 1.363 . S
C1448 H1464 0.931 . S
C1449 C1448 1.370 . S
C1449 C1453 1.408 . S
C1450 C1448 1.363 . S
C1450 C1451 1.370 . S
C1450 C1454 1.524 . S
C1451 C1443 1.503 . S
C1451 C1450 1.370 . S
C1451 C1452 1.403 . S
C1452 C1451 1.403 . S
C1452 C1453 1.404 . S
C1452 C1455 1.539 . S
C1453 C1449 1.408 . S
C1453 C1452 1.404 . S
C1453 H1465 0.930 . S
C1454 C1450 1.524 . S
C1454 H1466 0.956 . S
C1454 H1467 0.961 . S
C1454 H1468 0.961 . S
C1455 C1452 1.539 . S
C1455 H1469 0.958 . S
C1455 H1470 0.961 . S
C1455 H1471 0.960 . S
H1456 C1440 0.931 . S
H1457 C1445 0.929 . S
H1458 C1446 0.960 . S
H1459 C1446 0.962 . S
H1460 C1446 0.960 . S
H1461 C1447 0.961 . S
H1462 C1447 0.961 . S
H1463 C1447 0.961 . S
H1464 C1448 0.931 . S
H1465 C1453 0.930 . S
H1466 C1454 0.956 . S
H1467 C1454 0.961 . S
H1468 C1454 0.961 . S
H1469 C1455 0.958 . S
H1470 C1455 0.961 . S
H1471 C1455 0.960 . S
C1472 C1473 1.391 . S
C1472 C1474 1.394 . S
C1472 H1488 0.931 . S
C1473 C1472 1.391 . S
C1473 C1477 1.376 . S
C1474 C1472 1.394 . S
C1474 C1475 1.369 . S
C1474 C1478 1.531 . S
C1475 C1474 1.369 . S
C1475 C1476 1.410 . S
C1475 C1483 1.503 . S
C1476 C1475 1.410 . S
C1476 C1477 1.392 . S
C1476 C1479 1.511 . S
C1477 C1473 1.376 . S
C1477 C1476 1.392 . S
C1477 H1489 0.929 . S
C1478 C1474 1.531 . S
C1478 H1490 0.960 . S
C1478 H1491 0.962 . S
C1478 H1492 0.960 . S
C1479 C1476 1.511 . S
C1479 H1493 0.961 . S
C1479 H1494 0.961 . S
C1479 H1495 0.961 . S
C1480 C1481 1.370 . S
C1480 C1482 1.363 . S
C1480 H1496 0.931 . S
C1481 C1480 1.370 . S
C1481 C1485 1.408 . S
C1482 C1480 1.363 . S
C1482 C1483 1.370 . S
C1482 C1486 1.524 . S
C1483 C1475 1.503 . S
C1483 C1482 1.370 . S
C1483 C1484 1.403 . S
C1484 C1483 1.403 . S
C1484 C1485 1.404 . S
C1484 C1487 1.539 . S
C1485 C1481 1.408 . S
C1485 C1484 1.404 . S
C1485 H1497 0.930 . S
C1486 C1482 1.524 . S
C1486 H1498 0.956 . S
C1486 H1499 0.961 . S
C1486 H1500 0.961 . S
C1487 C1484 1.539 . S
C1487 H1501 0.958 . S
C1487 H1502 0.961 . S
C1487 H1503 0.960 . S
H1488 C1472 0.931 . S
H1489 C1477 0.929 . S
H1490 C1478 0.960 . S
H1491 C1478 0.962 . S
H1492 C1478 0.960 . S
H1493 C1479 0.961 . S
H1494 C1479 0.961 . S
H1495 C1479 0.961 . S
H1496 C1480 0.931 . S
H1497 C1485 0.930 . S
H1498 C1486 0.956 . S
H1499 C1486 0.961 . S
H1500 C1486 0.961 . S
H1501 C1487 0.958 . S
H1502 C1487 0.961 . S
H1503 C1487 0.960 . S
C1504 C1505 1.391 . S
C1504 C1506 1.394 . S
C1504 H1520 0.931 . S
C1505 C1504 1.391 . S
C1505 C1509 1.376 . S
C1506 C1504 1.394 . S
C1506 C1507 1.369 . S
C1506 C1510 1.531 . S
C1507 C1506 1.369 . S
C1507 C1508 1.410 . S
C1507 C1515 1.503 . S
C1508 C1507 1.410 . S
C1508 C1509 1.392 . S
C1508 C1511 1.511 . S
C1509 C1505 1.376 . S
C1509 C1508 1.392 . S
C1509 H1521 0.929 . S
C1510 C1506 1.531 . S
C1510 H1522 0.960 . S
C1510 H1523 0.962 . S
C1510 H1524 0.960 . S
C1511 C1508 1.511 . S
C1511 H1525 0.961 . S
C1511 H1526 0.961 . S
C1511 H1527 0.961 . S
C1512 C1513 1.370 . S
C1512 C1514 1.363 . S
C1512 H1528 0.931 . S
C1513 C1512 1.370 . S
C1513 C1517 1.408 . S
C1514 C1512 1.363 . S
C1514 C1515 1.370 . S
C1514 C1518 1.524 . S
C1515 C1507 1.503 . S
C1515 C1514 1.370 . S
C1515 C1516 1.403 . S
C1516 C1515 1.403 . S
C1516 C1517 1.404 . S
C1516 C1519 1.539 . S
C1517 C1513 1.408 . S
C1517 C1516 1.404 . S
C1517 H1529 0.930 . S
C1518 C1514 1.524 . S
C1518 H1530 0.956 . S
C1518 H1531 0.961 . S
C1518 H1532 0.961 . S
C1519 C1516 1.539 . S
C1519 H1533 0.958 . S
C1519 H1534 0.961 . S
C1519 H1535 0.960 . S
H1520 C1504 0.931 . S
H1521 C1509 0.929 . S
H1522 C1510 0.960 . S
H1523 C1510 0.962 . S
H1524 C1510 0.960 . S
H1525 C1511 0.961 . S
H1526 C1511 0.961 . S
H1527 C1511 0.961 . S
H1528 C1512 0.931 . S
H1529 C1517 0.930 . S
H1530 C1518 0.956 . S
H1531 C1518 0.961 . S
H1532 C1518 0.961 . S
H1533 C1519 0.958 . S
H1534 C1519 0.961 . S
H1535 C1519 0.960 . S
C1536 C1537 1.391 . S
C1536 C1538 1.394 . S
C1536 H1552 0.931 . S
C1537 C1536 1.391 . S
C1537 C1541 1.376 . S
C1538 C1536 1.394 . S
C1538 C1539 1.369 . S
C1538 C1542 1.531 . S
C1539 C1538 1.369 . S
C1539 C1540 1.410 . S
C1539 C1547 1.503 . S
C1540 C1539 1.410 . S
C1540 C1541 1.392 . S
C1540 C1543 1.511 . S
C1541 C1537 1.376 . S
C1541 C1540 1.392 . S
C1541 H1553 0.929 . S
C1542 C1538 1.531 . S
C1542 H1554 0.960 . S
C1542 H1555 0.962 . S
C1542 H1556 0.960 . S
C1543 C1540 1.511 . S
C1543 H1557 0.961 . S
C1543 H1558 0.961 . S
C1543 H1559 0.961 . S
C1544 C1545 1.370 . S
C1544 C1546 1.363 . S
C1544 H1560 0.931 . S
C1545 C1544 1.370 . S
C1545 C1549 1.408 . S
C1546 C1544 1.363 . S
C1546 C1547 1.370 . S
C1546 C1550 1.524 . S
C1547 C1539 1.503 . S
C1547 C1546 1.370 . S
C1547 C1548 1.403 . S
C1548 C1547 1.403 . S
C1548 C1549 1.404 . S
C1548 C1551 1.539 . S
C1549 C1545 1.408 . S
C1549 C1548 1.404 . S
C1549 H1561 0.930 . S
C1550 C1546 1.524 . S
C1550 H1562 0.956 . S
C1550 H1563 0.961 . S
C1550 H1564 0.961 . S
C1551 C1548 1.539 . S
C1551 H1565 0.958 . S
C1551 H1566 0.961 . S
C1551 H1567 0.960 . S
H1552 C1536 0.931 . S
H1553 C1541 0.929 . S
H1554 C1542 0.960 . S
H1555 C1542 0.962 . S
H1556 C1542 0.960 . S
H1557 C1543 0.961 . S
H1558 C1543 0.961 . S
H1559 C1543 0.961 . S
H1560 C1544 0.931 . S
H1561 C1549 0.930 . S
H1562 C1550 0.956 . S
H1563 C1550 0.961 . S
H1564 C1550 0.961 . S
H1565 C1551 0.958 . S
H1566 C1551 0.961 . S
H1567 C1551 0.960 . S
C1568 C1569 1.391 . S
C1568 C1570 1.394 . S
C1568 H1584 0.931 . S
C1569 C1568 1.391 . S
C1569 C1573 1.376 . S
C1570 C1568 1.394 . S
C1570 C1571 1.369 . S
C1570 C1574 1.531 . S
C1571 C1570 1.369 . S
C1571 C1572 1.410 . S
C1571 C1579 1.503 . S
C1572 C1571 1.410 . S
C1572 C1573 1.392 . S
C1572 C1575 1.511 . S
C1573 C1569 1.376 . S
C1573 C1572 1.392 . S
C1573 H1585 0.929 . S
C1574 C1570 1.531 . S
C1574 H1586 0.960 . S
C1574 H1587 0.962 . S
C1574 H1588 0.960 . S
C1575 C1572 1.511 . S
C1575 H1589 0.961 . S
C1575 H1590 0.961 . S
C1575 H1591 0.961 . S
C1576 C1577 1.370 . S
C1576 C1578 1.363 . S
C1576 H1592 0.931 . S
C1577 C1576 1.370 . S
C1577 C1581 1.408 . S
C1578 C1576 1.363 . S
C1578 C1579 1.370 . S
C1578 C1582 1.524 . S
C1579 C1571 1.503 . S
C1579 C1578 1.370 . S
C1579 C1580 1.403 . S
C1580 C1579 1.403 . S
C1580 C1581 1.404 . S
C1580 C1583 1.539 . S
C1581 C1577 1.408 . S
C1581 C1580 1.404 . S
C1581 H1593 0.930 . S
C1582 C1578 1.524 . S
C1582 H1594 0.956 . S
C1582 H1595 0.961 . S
C1582 H1596 0.961 . S
C1583 C1580 1.539 . S
C1583 H1597 0.958 . S
C1583 H1598 0.961 . S
C1583 H1599 0.960 . S
H1584 C1568 0.931 . S
H1585 C1573 0.929 . S
H1586 C1574 0.960 . S
H1587 C1574 0.962 . S
H1588 C1574 0.960 . S
H1589 C1575 0.961 . S
H1590 C1575 0.961 . S
H1591 C1575 0.961 . S
H1592 C1576 0.931 . S
H1593 C1581 0.930 . S
H1594 C1582 0.956 . S
H1595 C1582 0.961 . S
H1596 C1582 0.961 . S
H1597 C1583 0.958 . S
H1598 C1583 0.961 . S
H1599 C1583 0.960 . S
C1600 C1601 1.391 . S
C1600 C1602 1.394 . S
C1600 H1616 0.931 . S
C1601 C1600 1.391 . S
C1601 C1605 1.376 . S
C1602 C1600 1.394 . S
C1602 C1603 1.369 . S
C1602 C1606 1.531 . S
C1603 C1602 1.369 . S
C1603 C1604 1.410 . S
C1603 C1611 1.503 . S
C1604 C1603 1.410 . S
C1604 C1605 1.392 . S
C1604 C1607 1.511 . S
C1605 C1601 1.376 . S
C1605 C1604 1.392 . S
C1605 H1617 0.929 . S
C1606 C1602 1.531 . S
C1606 H1618 0.960 . S
C1606 H1619 0.962 . S
C1606 H1620 0.960 . S
C1607 C1604 1.511 . S
C1607 H1621 0.961 . S
C1607 H1622 0.961 . S
C1607 H1623 0.961 . S
C1608 C1609 1.370 . S
C1608 C1610 1.363 . S
C1608 H1624 0.931 . S
C1609 C1608 1.370 . S
C1609 C1613 1.408 . S
C1610 C1608 1.363 . S
C1610 C1611 1.370 . S
C1610 C1614 1.524 . S
C1611 C1603 1.503 . S
C1611 C1610 1.370 . S
C1611 C1612 1.403 . S
C1612 C1611 1.403 . S
C1612 C1613 1.404 . S
C1612 C1615 1.539 . S
C1613 C1609 1.408 . S
C1613 C1612 1.404 . S
C1613 H1625 0.930 . S
C1614 C1610 1.524 . S
C1614 H1626 0.956 . S
C1614 H1627 0.961 . S
C1614 H1628 0.961 . S
C1615 C1612 1.539 . S
C1615 H1629 0.958 . S
C1615 H1630 0.961 . S
C1615 H1631 0.960 . S
H1616 C1600 0.931 . S
H1617 C1605 0.929 . S
H1618 C1606 0.960 . S
H1619 C1606 0.962 . S
H1620 C1606 0.960 . S
H1621 C1607 0.961 . S
H1622 C1607 0.961 . S
H1623 C1607 0.961 . S
H1624 C1608 0.931 . S
H1625 C1613 0.930 . S
H1626 C1614 0.956 . S
H1627 C1614 0.961 . S
H1628 C1614 0.961 . S
H1629 C1615 0.958 . S
H1630 C1615 0.961 . S
H1631 C1615 0.960 . S
C1632 C1633 1.391 . S
C1632 C1634 1.394 . S
C1632 H1648 0.931 . S
C1633 C1632 1.391 . S
C1633 C1637 1.376 . S
C1634 C1632 1.394 . S
C1634 C1635 1.369 . S
C1634 C1638 1.531 . S
C1635 C1634 1.369 . S
C1635 C1636 1.410 . S
C1635 C1643 1.503 . S
C1636 C1635 1.410 . S
C1636 C1637 1.392 . S
C1636 C1639 1.511 . S
C1637 C1633 1.376 . S
C1637 C1636 1.392 . S
C1637 H1649 0.929 . S
C1638 C1634 1.531 . S
C1638 H1650 0.960 . S
C1638 H1651 0.962 . S
C1638 H1652 0.960 . S
C1639 C1636 1.511 . S
C1639 H1653 0.961 . S
C1639 H1654 0.961 . S
C1639 H1655 0.961 . S
C1640 C1641 1.370 . S
C1640 C1642 1.363 . S
C1640 H1656 0.931 . S
C1641 C1640 1.370 . S
C1641 C1645 1.408 . S
C1642 C1640 1.363 . S
C1642 C1643 1.370 . S
C1642 C1646 1.524 . S
C1643 C1635 1.503 . S
C1643 C1642 1.370 . S
C1643 C1644 1.403 . S
C1644 C1643 1.403 . S
C1644 C1645 1.404 . S
C1644 C1647 1.539 . S
C1645 C1641 1.408 . S
C1645 C1644 1.404 . S
C1645 H1657 0.930 . S
C1646 C1642 1.524 . S
C1646 H1658 0.956 . S
C1646 H1659 0.961 . S
C1646 H1660 0.961 . S
C1647 C1644 1.539 . S
C1647 H1661 0.958 . S
C1647 H1662 0.961 . S
C1647 H1663 0.960 . S
H1648 C1632 0.931 . S
H1649 C1637 0.929 . S
H1650 C1638 0.960 . S
H1651 C1638 0.962 . S
H1652 C1638 0.960 . S
H1653 C1639 0.961 . S
H1654 C1639 0.961 . S
H1655 C1639 0.961 . S
H1656 C1640 0.931 . S
H1657 C1645 0.930 . S
H1658 C1646 0.956 . S
H1659 C1646 0.961 . S
H1660 C1646 0.961 . S
H1661 C1647 0.958 . S
H1662 C1647 0.961 . S
H1663 C1647 0.960 . S
C1664 C1665 1.391 . S
C1664 C1666 1.394 . S
C1664 H1680 0.931 . S
C1665 C1664 1.391 . S
C1665 C1669 1.376 . S
C1666 C1664 1.394 . S
C1666 C1667 1.369 . S
C1666 C1670 1.531 . S
C1667 C1666 1.369 . S
C1667 C1668 1.410 . S
C1667 C1675 1.503 . S
C1668 C1667 1.410 . S
C1668 C1669 1.392 . S
C1668 C1671 1.511 . S
C1669 C1665 1.376 . S
C1669 C1668 1.392 . S
C1669 H1681 0.929 . S
C1670 C1666 1.531 . S
C1670 H1682 0.960 . S
C1670 H1683 0.962 . S
C1670 H1684 0.960 . S
C1671 C1668 1.511 . S
C1671 H1685 0.961 . S
C1671 H1686 0.961 . S
C1671 H1687 0.961 . S
C1672 C1673 1.370 . S
C1672 C1674 1.363 . S
C1672 H1688 0.931 . S
C1673 C1672 1.370 . S
C1673 C1677 1.408 . S
C1674 C1672 1.363 . S
C1674 C1675 1.370 . S
C1674 C1678 1.524 . S
C1675 C1667 1.503 . S
C1675 C1674 1.370 . S
C1675 C1676 1.403 . S
C1676 C1675 1.403 . S
C1676 C1677 1.404 . S
C1676 C1679 1.539 . S
C1677 C1673 1.408 . S
C1677 C1676 1.404 . S
C1677 H1689 0.930 . S
C1678 C1674 1.524 . S
C1678 H1690 0.956 . S
C1678 H1691 0.961 . S
C1678 H1692 0.961 . S
C1679 C1676 1.539 . S
C1679 H1693 0.958 . S
C1679 H1694 0.961 . S
C1679 H1695 0.960 . S
H1680 C1664 0.931 . S
H1681 C1669 0.929 . S
H1682 C1670 0.960 . S
H1683 C1670 0.962 . S
H1684 C1670 0.960 . S
H1685 C1671 0.961 . S
H1686 C1671 0.961 . S
H1687 C1671 0.961 . S
H1688 C1672 0.931 . S
H1689 C1677 0.930 . S
H1690 C1678 0.956 . S
H1691 C1678 0.961 . S
H1692 C1678 0.961 . S
H1693 C1679 0.958 . S
H1694 C1679 0.961 . S
H1695 C1679 0.960 . S
C1696 C1697 1.391 . S
C1696 C1698 1.394 . S
C1696 H1712 0.931 . S
C1697 C1696 1.391 . S
C1697 C1701 1.376 . S
C1698 C1696 1.394 . S
C1698 C1699 1.369 . S
C1698 C1702 1.531 . S
C1699 C1698 1.369 . S
C1699 C1700 1.410 . S
C1699 C1707 1.503 . S
C1700 C1699 1.410 . S
C1700 C1701 1.392 . S
C1700 C1703 1.511 . S
C1701 C1697 1.376 . S
C1701 C1700 1.392 . S
C1701 H1713 0.929 . S
C1702 C1698 1.531 . S
C1702 H1714 0.960 . S
C1702 H1715 0.962 . S
C1702 H1716 0.960 . S
C1703 C1700 1.511 . S
C1703 H1717 0.961 . S
C1703 H1718 0.961 . S
C1703 H1719 0.961 . S
C1704 C1705 1.370 . S
C1704 C1706 1.363 . S
C1704 H1720 0.931 . S
C1705 C1704 1.370 . S
C1705 C1709 1.408 . S
C1706 C1704 1.363 . S
C1706 C1707 1.370 . S
C1706 C1710 1.524 . S
C1707 C1699 1.503 . S
C1707 C1706 1.370 . S
C1707 C1708 1.403 . S
C1708 C1707 1.403 . S
C1708 C1709 1.404 . S
C1708 C1711 1.539 . S
C1709 C1705 1.408 . S
C1709 C1708 1.404 . S
C1709 H1721 0.930 . S
C1710 C1706 1.524 . S
C1710 H1722 0.956 . S
C1710 H1723 0.961 . S
C1710 H1724 0.961 . S
C1711 C1708 1.539 . S
C1711 H1725 0.958 . S
C1711 H1726 0.961 . S
C1711 H1727 0.960 . S
H1712 C1696 0.931 . S
H1713 C1701 0.929 . S
H1714 C1702 0.960 . S
H1715 C1702 0.962 . S
H1716 C1702 0.960 . S
H1717 C1703 0.961 . S
H1718 C1703 0.961 . S
H1719 C1703 0.961 . S
H1720 C1704 0.931 . S
H1721 C1709 0.930 . S
H1722 C1710 0.956 . S
H1723 C1710 0.961 . S
H1724 C1710 0.961 . S
H1725 C1711 0.958 . S
H1726 C1711 0.961 . S
H1727 C1711 0.960 . S
C1728 C1729 1.391 . S
C1728 C1730 1.394 . S
C1728 H1744 0.931 . S
C1729 C1728 1.391 . S
C1729 C1733 1.376 . S
C1730 C1728 1.394 . S
C1730 C1731 1.369 . S
C1730 C1734 1.531 . S
C1731 C1730 1.369 . S
C1731 C1732 1.410 . S
C1731 C1739 1.503 . S
C1732 C1731 1.410 . S
C1732 C1733 1.392 . S
C1732 C1735 1.511 . S
C1733 C1729 1.376 . S
C1733 C1732 1.392 . S
C1733 H1745 0.929 . S
C1734 C1730 1.531 . S
C1734 H1746 0.960 . S
C1734 H1747 0.962 . S
C1734 H1748 0.960 . S
C1735 C1732 1.511 . S
C1735 H1749 0.961 . S
C1735 H1750 0.961 . S
C1735 H1751 0.961 . S
C1736 C1737 1.370 . S
C1736 C1738 1.363 . S
C1736 H1752 0.931 . S
C1737 C1736 1.370 . S
C1737 C1741 1.408 . S
C1738 C1736 1.363 . S
C1738 C1739 1.370 . S
C1738 C1742 1.524 . S
C1739 C1731 1.503 . S
C1739 C1738 1.370 . S
C1739 C1740 1.403 . S
C1740 C1739 1.403 . S
C1740 C1741 1.404 . S
C1740 C1743 1.539 . S
C1741 C1737 1.408 . S
C1741 C1740 1.404 . S
C1741 H1753 0.930 . S
C1742 C1738 1.524 . S
C1742 H1754 0.956 . S
C1742 H1755 0.961 . S
C1742 H1756 0.961 . S
C1743 C1740 1.539 . S
C1743 H1757 0.958 . S
C1743 H1758 0.961 . S
C1743 H1759 0.960 . S
H1744 C1728 0.931 . S
H1745 C1733 0.929 . S
H1746 C1734 0.960 . S
H1747 C1734 0.962 . S
H1748 C1734 0.960 . S
H1749 C1735 0.961 . S
H1750 C1735 0.961 . S
H1751 C1735 0.961 . S
H1752 C1736 0.931 . S
H1753 C1741 0.930 . S
H1754 C1742 0.956 . S
H1755 C1742 0.961 . S
H1756 C1742 0.961 . S
H1757 C1743 0.958 . S
H1758 C1743 0.961 . S
H1759 C1743 0.960 . S
C1760 C1761 1.391 . S
C1760 C1762 1.394 . S
C1760 H1776 0.931 . S
C1761 C1760 1.391 . S
C1761 C1765 1.376 . S
C1762 C1760 1.394 . S
C1762 C1763 1.369 . S
C1762 C1766 1.531 . S
C1763 C1762 1.369 . S
C1763 C1764 1.410 . S
C1763 C1771 1.503 . S
C1764 C1763 1.410 . S
C1764 C1765 1.392 . S
C1764 C1767 1.511 . S
C1765 C1761 1.376 . S
C1765 C1764 1.392 . S
C1765 H1777 0.929 . S
C1766 C1762 1.531 . S
C1766 H1778 0.960 . S
C1766 H1779 0.962 . S
C1766 H1780 0.960 . S
C1767 C1764 1.511 . S
C1767 H1781 0.961 . S
C1767 H1782 0.961 . S
C1767 H1783 0.961 . S
C1768 C1769 1.370 . S
C1768 C1770 1.363 . S
C1768 H1784 0.931 . S
C1769 C1768 1.370 . S
C1769 C1773 1.408 . S
C1770 C1768 1.363 . S
C1770 C1771 1.370 . S
C1770 C1774 1.524 . S
C1771 C1763 1.503 . S
C1771 C1770 1.370 . S
C1771 C1772 1.403 . S
C1772 C1771 1.403 . S
C1772 C1773 1.404 . S
C1772 C1775 1.539 . S
C1773 C1769 1.408 . S
C1773 C1772 1.404 . S
C1773 H1785 0.930 . S
C1774 C1770 1.524 . S
C1774 H1786 0.956 . S
C1774 H1787 0.961 . S
C1774 H1788 0.961 . S
C1775 C1772 1.539 . S
C1775 H1789 0.958 . S
C1775 H1790 0.961 . S
C1775 H1791 0.960 . S
H1776 C1760 0.931 . S
H1777 C1765 0.929 . S
H1778 C1766 0.960 . S
H1779 C1766 0.962 . S
H1780 C1766 0.960 . S
H1781 C1767 0.961 . S
H1782 C1767 0.961 . S
H1783 C1767 0.961 . S
H1784 C1768 0.931 . S
H1785 C1773 0.930 . S
H1786 C1774 0.956 . S
H1787 C1774 0.961 . S
H1788 C1774 0.961 . S
H1789 C1775 0.958 . S
H1790 C1775 0.961 . S
H1791 C1775 0.960 . S
C1792 C1793 1.391 . S
C1792 C1794 1.394 . S
C1792 H1808 0.931 . S
C1793 C1792 1.391 . S
C1793 C1797 1.376 . S
C1794 C1792 1.394 . S
C1794 C1795 1.369 . S
C1794 C1798 1.531 . S
C1795 C1794 1.369 . S
C1795 C1796 1.410 . S
C1795 C1803 1.503 . S
C1796 C1795 1.410 . S
C1796 C1797 1.392 . S
C1796 C1799 1.511 . S
C1797 C1793 1.376 . S
C1797 C1796 1.392 . S
C1797 H1809 0.929 . S
C1798 C1794 1.531 . S
C1798 H1810 0.960 . S
C1798 H1811 0.962 . S
C1798 H1812 0.960 . S
C1799 C1796 1.511 . S
C1799 H1813 0.961 . S
C1799 H1814 0.961 . S
C1799 H1815 0.961 . S
C1800 C1801 1.370 . S
C1800 C1802 1.363 . S
C1800 H1816 0.931 . S
C1801 C1800 1.370 . S
C1801 C1805 1.408 . S
C1802 C1800 1.363 . S
C1802 C1803 1.370 . S
C1802 C1806 1.524 . S
C1803 C1795 1.503 . S
C1803 C1802 1.370 . S
C1803 C1804 1.403 . S
C1804 C1803 1.403 . S
C1804 C1805 1.404 . S
C1804 C1807 1.539 . S
C1805 C1801 1.408 . S
C1805 C1804 1.404 . S
C1805 H1817 0.930 . S
C1806 C1802 1.524 . S
C1806 H1818 0.956 . S
C1806 H1819 0.961 . S
C1806 H1820 0.961 . S
C1807 C1804 1.539 . S
C1807 H1821 0.958 . S
C1807 H1822 0.961 . S
C1807 H1823 0.960 . S
H1808 C1792 0.931 . S
H1809 C1797 0.929 . S
H1810 C1798 0.960 . S
H1811 C1798 0.962 . S
H1812 C1798 0.960 . S
H1813 C1799 0.961 . S
H1814 C1799 0.961 . S
H1815 C1799 0.961 . S
H1816 C1800 0.931 . S
H1817 C1805 0.930 . S
H1818 C1806 0.956 . S
H1819 C1806 0.961 . S
H1820 C1806 0.961 . S
H1821 C1807 0.958 . S
H1822 C1807 0.961 . S
H1823 C1807 0.960 . S
C1824 C1825 1.391 . S
C1824 C1826 1.394 . S
C1824 H1840 0.931 . S
C1825 C1824 1.391 . S
C1825 C1829 1.376 . S
C1826 C1824 1.394 . S
C1826 C1827 1.369 . S
C1826 C1830 1.531 . S
C1827 C1826 1.369 . S
C1827 C1828 1.410 . S
C1827 C1835 1.503 . S
C1828 C1827 1.410 . S
C1828 C1829 1.392 . S
C1828 C1831 1.511 . S
C1829 C1825 1.376 . S
C1829 C1828 1.392 . S
C1829 H1841 0.929 . S
C1830 C1826 1.531 . S
C1830 H1842 0.960 . S
C1830 H1843 0.962 . S
C1830 H1844 0.960 . S
C1831 C1828 1.511 . S
C1831 H1845 0.961 . S
C1831 H1846 0.961 . S
C1831 H1847 0.961 . S
C1832 C1833 1.370 . S
C1832 C1834 1.363 . S
C1832 H1848 0.931 . S
C1833 C1832 1.370 . S
C1833 C1837 1.408 . S
C1834 C1832 1.363 . S
C1834 C1835 1.370 . S
C1834 C1838 1.524 . S
C1835 C1827 1.503 . S
C1835 C1834 1.370 . S
C1835 C1836 1.403 . S
C1836 C1835 1.403 . S
C1836 C1837 1.404 . S
C1836 C1839 1.539 . S
C1837 C1833 1.408 . S
C1837 C1836 1.404 . S
C1837 H1849 0.930 . S
C1838 C1834 1.524 . S
C1838 H1850 0.956 . S
C1838 H1851 0.961 . S
C1838 H1852 0.961 . S
C1839 C1836 1.539 . S
C1839 H1853 0.958 . S
C1839 H1854 0.961 . S
C1839 H1855 0.960 . S
H1840 C1824 0.931 . S
H1841 C1829 0.929 . S
H1842 C1830 0.960 . S
H1843 C1830 0.962 . S
H1844 C1830 0.960 . S
H1845 C1831 0.961 . S
H1846 C1831 0.961 . S
H1847 C1831 0.961 . S
H1848 C1832 0.931 . S
H1849 C1837 0.930 . S
H1850 C1838 0.956 . S
H1851 C1838 0.961 . S
H1852 C1838 0.961 . S
H1853 C1839 0.958 . S
H1854 C1839 0.961 . S
H1855 C1839 0.960 . S
C1856 C1857 1.391 . S
C1856 C1858 1.394 . S
C1856 H1872 0.926 . S
C1857 C1856 1.391 . S
C1857 C1861 1.376 . S
C1858 C1856 1.394 . S
C1858 C1859 1.369 . S
C1858 C1862 1.531 . S
C1859 C1858 1.369 . S
C1859 C1860 1.410 . S
C1859 C1867 1.503 . S
C1860 C1859 1.410 . S
C1860 C1861 1.392 . S
C1860 C1863 1.511 . S
C1861 C1857 1.376 . S
C1861 C1860 1.392 . S
C1861 H1873 0.929 . S
C1862 C1858 1.531 . S
C1862 H1874 0.960 . S
C1862 H1875 0.962 . S
C1862 H1876 0.960 . S
C1863 C1860 1.511 . S
C1863 H1877 0.961 . S
C1863 H1878 0.961 . S
C1863 H1879 0.961 . S
C1864 C1865 1.370 . S
C1864 C1866 1.363 . S
C1864 H1880 0.931 . S
C1865 C1864 1.370 . S
C1865 C1869 1.408 . S
C1866 C1864 1.363 . S
C1866 C1867 1.370 . S
C1866 C1870 1.524 . S
C1867 C1859 1.503 . S
C1867 C1866 1.370 . S
C1867 C1868 1.403 . S
C1868 C1867 1.403 . S
C1868 C1869 1.404 . S
C1868 C1871 1.539 . S
C1869 C1865 1.408 . S
C1869 C1868 1.404 . S
C1869 H1881 0.930 . S
C1870 C1866 1.524 . S
C1870 H1882 0.956 . S
C1870 H1883 0.961 . S
C1870 H1884 0.961 . S
C1871 C1868 1.539 . S
C1871 H1885 0.958 . S
C1871 H1886 0.961 . S
C1871 H1887 0.960 . S
H1872 C1856 0.926 . S
H1873 C1861 0.929 . S
H1874 C1862 0.960 . S
H1875 C1862 0.962 . S
H1876 C1862 0.960 . S
H1877 C1863 0.961 . S
H1878 C1863 0.961 . S
H1879 C1863 0.961 . S
H1880 C1864 0.931 . S
H1881 C1869 0.930 . S
H1882 C1870 0.956 . S
H1883 C1870 0.961 . S
H1884 C1870 0.961 . S
H1885 C1871 0.958 . S
H1886 C1871 0.961 . S
H1887 C1871 0.960 . S
C1888 C1889 1.391 . S
C1888 C1890 1.394 . S
C1888 H1904 0.931 1_556 S
C1889 C1888 1.391 . S
C1889 C1893 1.376 . S
C1890 C1888 1.394 . S
C1890 C1891 1.369 . S
C1890 C1894 1.531 . S
C1891 C1890 1.369 . S
C1891 C1892 1.410 . S
C1891 C1899 1.503 . S
C1892 C1891 1.410 . S
C1892 C1893 1.392 . S
C1892 C1895 1.511 . S
C1893 C1889 1.376 . S
C1893 C1892 1.392 . S
C1893 H1905 0.929 . S
C1894 C1890 1.531 . S
C1894 H1906 0.960 . S
C1894 H1907 0.962 . S
C1894 H1908 0.960 1_556 S
C1895 C1892 1.511 . S
C1895 H1909 0.961 . S
C1895 H1910 0.961 . S
C1895 H1911 0.961 . S
C1896 C1897 1.370 . S
C1896 C1898 1.363 . S
C1896 H1912 0.931 . S
C1897 C1896 1.370 . S
C1897 C1901 1.408 . S
C1898 C1896 1.363 . S
C1898 C1899 1.370 . S
C1898 C1902 1.524 . S
C1899 C1891 1.503 . S
C1899 C1898 1.370 . S
C1899 C1900 1.403 . S
C1900 C1899 1.403 . S
C1900 C1901 1.404 . S
C1900 C1903 1.539 . S
C1901 C1897 1.408 . S
C1901 C1900 1.404 . S
C1901 H1913 0.930 . S
C1902 C1898 1.524 . S
C1902 H1914 0.956 . S
C1902 H1915 0.961 . S
C1902 H1916 0.961 . S
C1903 C1900 1.539 . S
C1903 H1917 0.958 . S
C1903 H1918 0.961 . S
C1903 H1919 0.960 . S
H1904 C1888 0.931 1_554 S
H1905 C1893 0.929 . S
H1906 C1894 0.960 . S
H1907 C1894 0.962 . S
H1908 C1894 0.960 1_554 S
H1909 C1895 0.961 . S
H1910 C1895 0.961 . S
H1911 C1895 0.961 . S
H1912 C1896 0.931 . S
H1913 C1901 0.930 . S
H1914 C1902 0.956 . S
H1915 C1902 0.961 . S
H1916 C1902 0.961 . S
H1917 C1903 0.958 . S
H1918 C1903 0.961 . S
H1919 C1903 0.960 . S
C1920 C1921 1.391 . S
C1920 C1922 1.394 . S
C1920 H1936 0.931 . S
C1921 C1920 1.391 . S
C1921 C1925 1.376 . S
C1922 C1920 1.394 . S
C1922 C1923 1.369 . S
C1922 C1926 1.531 . S
C1923 C1922 1.369 . S
C1923 C1924 1.410 . S
C1923 C1931 1.503 . S
C1924 C1923 1.410 . S
C1924 C1925 1.392 . S
C1924 C1927 1.511 . S
C1925 C1921 1.376 . S
C1925 C1924 1.392 . S
C1925 H1937 0.929 1_556 S
C1926 C1922 1.531 . S
C1926 H1938 0.960 . S
C1926 H1939 0.962 . S
C1926 H1940 0.960 . S
C1927 C1924 1.511 . S
C1927 H1941 0.961 1_556 S
C1927 H1942 0.961 . S
C1927 H1943 0.961 . S
C1928 C1929 1.370 . S
C1928 C1930 1.363 . S
C1928 H1944 0.931 . S
C1929 C1928 1.370 . S
C1929 C1933 1.408 . S
C1930 C1928 1.363 . S
C1930 C1931 1.370 . S
C1930 C1934 1.524 . S
C1931 C1923 1.503 . S
C1931 C1930 1.370 . S
C1931 C1932 1.403 . S
C1932 C1931 1.403 . S
C1932 C1933 1.404 . S
C1932 C1935 1.539 . S
C1933 C1929 1.408 . S
C1933 C1932 1.404 . S
C1933 H1945 0.930 . S
C1934 C1930 1.524 . S
C1934 H1946 0.956 . S
C1934 H1947 0.961 . S
C1934 H1948 0.961 . S
C1935 C1932 1.539 . S
C1935 H1949 0.958 . S
C1935 H1950 0.961 . S
C1935 H1951 0.960 . S
H1936 C1920 0.931 . S
H1937 C1925 0.929 1_554 S
H1938 C1926 0.960 . S
H1939 C1926 0.962 . S
H1940 C1926 0.960 . S
H1941 C1927 0.961 1_554 S
H1942 C1927 0.961 . S
H1943 C1927 0.961 . S
H1944 C1928 0.931 . S
H1945 C1933 0.930 . S
H1946 C1934 0.956 . S
H1947 C1934 0.961 . S
H1948 C1934 0.961 . S
H1949 C1935 0.958 . S
H1950 C1935 0.961 . S
H1951 C1935 0.960 . S
C1952 C1953 1.391 . S
C1952 C1954 1.394 . S
C1952 H1968 0.931 . S
C1953 C1952 1.391 . S
C1953 C1957 1.376 . S
C1954 C1952 1.394 . S
C1954 C1955 1.369 . S
C1954 C1958 1.531 . S
C1955 C1954 1.369 . S
C1955 C1956 1.410 . S
C1955 C1963 1.503 . S
C1956 C1955 1.410 . S
C1956 C1957 1.392 . S
C1956 C1959 1.511 . S
C1957 C1953 1.376 . S
C1957 C1956 1.392 . S
C1957 H1969 0.929 . S
C1958 C1954 1.531 . S
C1958 H1970 0.960 . S
C1958 H1971 0.962 . S
C1958 H1972 0.960 . S
C1959 C1956 1.511 . S
C1959 H1973 0.971 . S
C1959 H1974 0.961 . S
C1959 H1975 0.961 . S
C1960 C1961 1.370 . S
C1960 C1962 1.363 . S
C1960 H1976 0.931 . S
C1961 C1960 1.370 . S
C1961 C1965 1.408 . S
C1962 C1960 1.363 . S
C1962 C1963 1.370 . S
C1962 C1966 1.524 . S
C1963 C1955 1.503 . S
C1963 C1962 1.370 . S
C1963 C1964 1.403 . S
C1964 C1963 1.403 . S
C1964 C1965 1.404 . S
C1964 C1967 1.539 . S
C1965 C1961 1.408 . S
C1965 C1964 1.404 . S
C1965 H1977 0.930 . S
C1966 C1962 1.524 . S
C1966 H1978 0.956 . S
C1966 H1979 0.961 . S
C1966 H1980 0.961 . S
C1967 C1964 1.539 . S
C1967 H1981 0.958 . S
C1967 H1982 0.961 . S
C1967 H1983 0.960 . S
H1968 C1952 0.931 . S
H1969 C1957 0.929 . S
H1970 C1958 0.960 . S
H1971 C1958 0.962 . S
H1972 C1958 0.960 . S
H1973 C1959 0.971 . S
H1974 C1959 0.961 . S
H1975 C1959 0.961 . S
H1976 C1960 0.931 . S
H1977 C1965 0.930 . S
H1978 C1966 0.956 . S
H1979 C1966 0.961 . S
H1980 C1966 0.961 . S
H1981 C1967 0.958 . S
H1982 C1967 0.961 . S
H1983 C1967 0.960 . S
C1984 C1985 1.391 . S
C1984 C1986 1.394 . S
C1984 H2000 0.931 . S
C1985 C1984 1.391 . S
C1985 C1989 1.376 . S
C1986 C1984 1.394 . S
C1986 C1987 1.369 . S
C1986 C1990 1.531 . S
C1987 C1986 1.369 . S
C1987 C1988 1.410 . S
C1987 C1995 1.503 . S
C1988 C1987 1.410 . S
C1988 C1989 1.392 . S
C1988 C1991 1.511 . S
C1989 C1985 1.376 . S
C1989 C1988 1.392 . S
C1989 H2001 0.929 . S
C1990 C1986 1.531 . S
C1990 H2002 0.960 . S
C1990 H2003 0.962 . S
C1990 H2004 0.960 . S
C1991 C1988 1.511 . S
C1991 H2005 0.961 . S
C1991 H2006 0.961 . S
C1991 H2007 0.961 . S
C1992 C1993 1.370 . S
C1992 C1994 1.363 . S
C1992 H2008 0.931 . S
C1993 C1992 1.370 . S
C1993 C1997 1.408 . S
C1994 C1992 1.363 . S
C1994 C1995 1.370 . S
C1994 C1998 1.524 . S
C1995 C1987 1.503 . S
C1995 C1994 1.370 . S
C1995 C1996 1.403 . S
C1996 C1995 1.403 . S
C1996 C1997 1.404 . S
C1996 C1999 1.539 . S
C1997 C1993 1.408 . S
C1997 C1996 1.404 . S
C1997 H2009 0.930 . S
C1998 C1994 1.524 . S
C1998 H2010 0.956 . S
C1998 H2011 0.961 . S
C1998 H2012 0.961 . S
C1999 C1996 1.539 . S
C1999 H2013 0.958 . S
C1999 H2014 0.961 . S
C1999 H2015 0.960 . S
H2000 C1984 0.931 . S
H2001 C1989 0.929 . S
H2002 C1990 0.960 . S
H2003 C1990 0.962 . S
H2004 C1990 0.960 . S
H2005 C1991 0.961 . S
H2006 C1991 0.961 . S
H2007 C1991 0.961 . S
H2008 C1992 0.931 . S
H2009 C1997 0.930 . S
H2010 C1998 0.956 . S
H2011 C1998 0.961 . S
H2012 C1998 0.961 . S
H2013 C1999 0.958 . S
H2014 C1999 0.961 . S
H2015 C1999 0.960 . S
C2016 C2017 1.391 . S
C2016 C2018 1.394 . S
C2016 H2032 0.931 . S
C2017 C2016 1.391 . S
C2017 C2021 1.376 . S
C2018 C2016 1.394 . S
C2018 C2019 1.369 . S
C2018 C2022 1.531 . S
C2019 C2018 1.369 . S
C2019 C2020 1.410 . S
C2019 C2027 1.503 . S
C2020 C2019 1.410 . S
C2020 C2021 1.392 . S
C2020 C2023 1.511 . S
C2021 C2017 1.376 . S
C2021 C2020 1.392 . S
C2021 H2033 0.929 . S
C2022 C2018 1.531 . S
C2022 H2034 0.960 . S
C2022 H2035 0.962 . S
C2022 H2036 0.960 . S
C2023 C2020 1.511 . S
C2023 H2037 0.961 . S
C2023 H2038 0.961 . S
C2023 H2039 0.961 . S
C2024 C2025 1.370 . S
C2024 C2026 1.363 . S
C2024 H2040 0.931 . S
C2025 C2024 1.370 . S
C2025 C2029 1.408 . S
C2026 C2024 1.363 . S
C2026 C2027 1.370 . S
C2026 C2030 1.524 . S
C2027 C2019 1.503 . S
C2027 C2026 1.370 . S
C2027 C2028 1.403 . S
C2028 C2027 1.403 . S
C2028 C2029 1.404 . S
C2028 C2031 1.539 . S
C2029 C2025 1.408 . S
C2029 C2028 1.404 . S
C2029 H2041 0.930 . S
C2030 C2026 1.524 . S
C2030 H2042 0.956 . S
C2030 H2043 0.961 . S
C2030 H2044 0.961 . S
C2031 C2028 1.539 . S
C2031 H2045 0.958 . S
C2031 H2046 0.961 . S
C2031 H2047 0.960 . S
H2032 C2016 0.931 . S
H2033 C2021 0.929 . S
H2034 C2022 0.960 . S
H2035 C2022 0.962 . S
H2036 C2022 0.960 . S
H2037 C2023 0.961 . S
H2038 C2023 0.961 . S
H2039 C2023 0.961 . S
H2040 C2024 0.931 . S
H2041 C2029 0.930 . S
H2042 C2030 0.956 . S
H2043 C2030 0.961 . S
H2044 C2030 0.961 . S
H2045 C2031 0.958 . S
H2046 C2031 0.961 . S
H2047 C2031 0.960 . S
C2048 C2049 1.391 . S
C2048 C2050 1.394 . S
C2048 H2064 0.931 . S
C2049 C2048 1.391 . S
C2049 C2053 1.376 . S
C2050 C2048 1.394 . S
C2050 C2051 1.369 . S
C2050 C2054 1.531 . S
C2051 C2050 1.369 . S
C2051 C2052 1.410 . S
C2051 C2059 1.503 . S
C2052 C2051 1.410 . S
C2052 C2053 1.392 . S
C2052 C2055 1.511 . S
C2053 C2049 1.376 . S
C2053 C2052 1.392 . S
C2053 H2065 0.929 . S
C2054 C2050 1.531 . S
C2054 H2066 0.960 . S
C2054 H2067 0.962 . S
C2054 H2068 0.960 . S
C2055 C2052 1.511 . S
C2055 H2069 0.961 . S
C2055 H2070 0.961 . S
C2055 H2071 0.961 . S
C2056 C2057 1.370 . S
C2056 C2058 1.363 . S
C2056 H2072 0.931 . S
C2057 C2056 1.370 . S
C2057 C2061 1.408 . S
C2058 C2056 1.363 . S
C2058 C2059 1.370 . S
C2058 C2062 1.524 . S
C2059 C2051 1.503 . S
C2059 C2058 1.370 . S
C2059 C2060 1.403 . S
C2060 C2059 1.403 . S
C2060 C2061 1.404 . S
C2060 C2063 1.539 . S
C2061 C2057 1.408 . S
C2061 C2060 1.404 . S
C2061 H2073 0.930 . S
C2062 C2058 1.524 . S
C2062 H2074 0.956 . S
C2062 H2075 0.961 . S
C2062 H2076 0.961 . S
C2063 C2060 1.539 . S
C2063 H2077 0.958 . S
C2063 H2078 0.961 . S
C2063 H2079 0.960 . S
H2064 C2048 0.931 . S
H2065 C2053 0.929 . S
H2066 C2054 0.960 . S
H2067 C2054 0.962 . S
H2068 C2054 0.960 . S
H2069 C2055 0.961 . S
H2070 C2055 0.961 . S
H2071 C2055 0.961 . S
H2072 C2056 0.931 . S
H2073 C2061 0.930 . S
H2074 C2062 0.956 . S
H2075 C2062 0.961 . S
H2076 C2062 0.961 . S
H2077 C2063 0.958 . S
H2078 C2063 0.961 . S
H2079 C2063 0.960 . S
C2080 C2081 1.391 . S
C2080 C2082 1.394 . S
C2080 H2096 0.931 . S
C2081 C2080 1.391 . S
C2081 C2085 1.376 . S
C2082 C2080 1.394 . S
C2082 C2083 1.369 . S
C2082 C2086 1.531 . S
C2083 C2082 1.369 . S
C2083 C2084 1.410 . S
C2083 C2091 1.503 . S
C2084 C2083 1.410 . S
C2084 C2085 1.392 . S
C2084 C2087 1.511 . S
C2085 C2081 1.376 . S
C2085 C2084 1.392 . S
C2085 H2097 0.929 . S
C2086 C2082 1.531 . S
C2086 H2098 0.960 . S
C2086 H2099 0.962 . S
C2086 H2100 0.960 . S
C2087 C2084 1.511 . S
C2087 H2101 0.961 . S
C2087 H2102 0.961 . S
C2087 H2103 0.961 . S
C2088 C2089 1.370 . S
C2088 C2090 1.363 . S
C2088 H2104 0.931 . S
C2089 C2088 1.370 . S
C2089 C2093 1.408 . S
C2090 C2088 1.363 . S
C2090 C2091 1.370 . S
C2090 C2094 1.524 . S
C2091 C2083 1.503 . S
C2091 C2090 1.370 . S
C2091 C2092 1.403 . S
C2092 C2091 1.403 . S
C2092 C2093 1.404 . S
C2092 C2095 1.539 . S
C2093 C2089 1.408 . S
C2093 C2092 1.404 . S
C2093 H2105 0.930 . S
C2094 C2090 1.524 . S
C2094 H2106 0.956 . S
C2094 H2107 0.961 . S
C2094 H2108 0.961 . S
C2095 C2092 1.539 . S
C2095 H2109 0.958 . S
C2095 H2110 0.961 . S
C2095 H2111 0.960 . S
H2096 C2080 0.931 . S
H2097 C2085 0.929 . S
H2098 C2086 0.960 . S
H2099 C2086 0.962 . S
H2100 C2086 0.960 . S
H2101 C2087 0.961 . S
H2102 C2087 0.961 . S
H2103 C2087 0.961 . S
H2104 C2088 0.931 . S
H2105 C2093 0.930 . S
H2106 C2094 0.956 . S
H2107 C2094 0.961 . S
H2108 C2094 0.961 . S
H2109 C2095 0.958 . S
H2110 C2095 0.961 . S
H2111 C2095 0.960 . S
C2112 C2113 1.391 . S
C2112 C2114 1.394 . S
C2112 H2128 0.931 . S
C2113 C2112 1.391 . S
C2113 C2117 1.376 . S
C2114 C2112 1.394 . S
C2114 C2115 1.369 . S
C2114 C2118 1.531 . S
C2115 C2114 1.369 . S
C2115 C2116 1.410 . S
C2115 C2123 1.503 . S
C2116 C2115 1.410 . S
C2116 C2117 1.392 . S
C2116 C2119 1.511 . S
C2117 C2113 1.376 . S
C2117 C2116 1.392 . S
C2117 H2129 0.929 . S
C2118 C2114 1.531 . S
C2118 H2130 0.960 . S
C2118 H2131 0.962 . S
C2118 H2132 0.960 . S
C2119 C2116 1.511 . S
C2119 H2133 0.961 . S
C2119 H2134 0.961 . S
C2119 H2135 0.961 . S
C2120 C2121 1.370 . S
C2120 C2122 1.363 . S
C2120 H2136 0.931 . S
C2121 C2120 1.370 . S
C2121 C2125 1.408 . S
C2122 C2120 1.363 . S
C2122 C2123 1.370 . S
C2122 C2126 1.524 . S
C2123 C2115 1.503 . S
C2123 C2122 1.370 . S
C2123 C2124 1.403 . S
C2124 C2123 1.403 . S
C2124 C2125 1.404 . S
C2124 C2127 1.539 . S
C2125 C2121 1.408 . S
C2125 C2124 1.404 . S
C2125 H2137 0.930 . S
C2126 C2122 1.524 . S
C2126 H2138 0.956 . S
C2126 H2139 0.961 . S
C2126 H2140 0.961 . S
C2127 C2124 1.539 . S
C2127 H2141 0.958 . S
C2127 H2142 0.961 . S
C2127 H2143 0.960 . S
H2128 C2112 0.931 . S
H2129 C2117 0.929 . S
H2130 C2118 0.960 . S
H2131 C2118 0.962 . S
H2132 C2118 0.960 . S
H2133 C2119 0.961 . S
H2134 C2119 0.961 . S
H2135 C2119 0.961 . S
H2136 C2120 0.931 . S
H2137 C2125 0.930 . S
H2138 C2126 0.956 . S
H2139 C2126 0.961 . S
H2140 C2126 0.961 . S
H2141 C2127 0.958 . S
H2142 C2127 0.961 . S
H2143 C2127 0.960 . S
C2144 C2145 1.391 . S
C2144 C2146 1.394 . S
C2144 H2160 0.931 . S
C2145 C2144 1.391 . S
C2145 C2149 1.376 . S
C2146 C2144 1.394 . S
C2146 C2147 1.369 . S
C2146 C2150 1.531 . S
C2147 C2146 1.369 . S
C2147 C2148 1.410 . S
C2147 C2155 1.503 . S
C2148 C2147 1.410 . S
C2148 C2149 1.392 . S
C2148 C2151 1.511 . S
C2149 C2145 1.376 . S
C2149 C2148 1.392 . S
C2149 H2161 0.929 . S
C2150 C2146 1.531 . S
C2150 H2162 0.960 . S
C2150 H2163 0.962 . S
C2150 H2164 0.960 . S
C2151 C2148 1.511 . S
C2151 H2165 0.961 . S
C2151 H2166 0.961 . S
C2151 H2167 0.961 . S
C2152 C2153 1.370 . S
C2152 C2154 1.363 . S
C2152 H2168 0.931 . S
C2153 C2152 1.370 . S
C2153 C2157 1.408 . S
C2154 C2152 1.363 . S
C2154 C2155 1.370 . S
C2154 C2158 1.524 . S
C2155 C2147 1.503 . S
C2155 C2154 1.370 . S
C2155 C2156 1.403 . S
C2156 C2155 1.403 . S
C2156 C2157 1.404 . S
C2156 C2159 1.539 . S
C2157 C2153 1.408 . S
C2157 C2156 1.404 . S
C2157 H2169 0.930 . S
C2158 C2154 1.524 . S
C2158 H2170 0.956 . S
C2158 H2171 0.961 . S
C2158 H2172 0.961 . S
C2159 C2156 1.539 . S
C2159 H2173 0.958 . S
C2159 H2174 0.961 . S
C2159 H2175 0.960 . S
H2160 C2144 0.931 . S
H2161 C2149 0.929 . S
H2162 C2150 0.960 . S
H2163 C2150 0.962 . S
H2164 C2150 0.960 . S
H2165 C2151 0.961 . S
H2166 C2151 0.961 . S
H2167 C2151 0.961 . S
H2168 C2152 0.931 . S
H2169 C2157 0.930 . S
H2170 C2158 0.956 . S
H2171 C2158 0.961 . S
H2172 C2158 0.961 . S
H2173 C2159 0.958 . S
H2174 C2159 0.961 . S
H2175 C2159 0.960 . S
C2176 C2177 1.391 . S
C2176 C2178 1.394 . S
C2176 H2192 0.931 . S
C2177 C2176 1.391 . S
C2177 C2181 1.376 . S
C2178 C2176 1.394 . S
C2178 C2179 1.369 . S
C2178 C2182 1.531 . S
C2179 C2178 1.369 . S
C2179 C2180 1.410 . S
C2179 C2187 1.503 . S
C2180 C2179 1.410 . S
C2180 C2181 1.392 . S
C2180 C2183 1.511 . S
C2181 C2177 1.376 . S
C2181 C2180 1.392 . S
C2181 H2193 0.929 . S
C2182 C2178 1.531 . S
C2182 H2194 0.960 . S
C2182 H2195 0.962 . S
C2182 H2196 0.960 . S
C2183 C2180 1.511 . S
C2183 H2197 0.961 . S
C2183 H2198 0.961 . S
C2183 H2199 0.961 . S
C2184 C2185 1.370 . S
C2184 C2186 1.363 . S
C2184 H2200 0.931 . S
C2185 C2184 1.370 . S
C2185 C2189 1.408 . S
C2186 C2184 1.363 . S
C2186 C2187 1.370 . S
C2186 C2190 1.524 . S
C2187 C2179 1.503 . S
C2187 C2186 1.370 . S
C2187 C2188 1.403 . S
C2188 C2187 1.403 . S
C2188 C2189 1.404 . S
C2188 C2191 1.539 . S
C2189 C2185 1.408 . S
C2189 C2188 1.404 . S
C2189 H2201 0.930 . S
C2190 C2186 1.524 . S
C2190 H2202 0.956 . S
C2190 H2203 0.961 . S
C2190 H2204 0.961 . S
C2191 C2188 1.539 . S
C2191 H2205 0.958 . S
C2191 H2206 0.961 . S
C2191 H2207 0.960 . S
H2192 C2176 0.931 . S
H2193 C2181 0.929 . S
H2194 C2182 0.960 . S
H2195 C2182 0.962 . S
H2196 C2182 0.960 . S
H2197 C2183 0.961 . S
H2198 C2183 0.961 . S
H2199 C2183 0.961 . S
H2200 C2184 0.931 . S
H2201 C2189 0.930 . S
H2202 C2190 0.956 . S
H2203 C2190 0.961 . S
H2204 C2190 0.961 . S
H2205 C2191 0.958 . S
H2206 C2191 0.961 . S
H2207 C2191 0.960 . S
C2208 C2209 1.391 . S
C2208 C2210 1.394 . S
C2208 H2224 0.931 . S
C2209 C2208 1.391 . S
C2209 C2213 1.376 1_455 S
C2210 C2208 1.394 . S
C2210 C2211 1.369 . S
C2210 C2214 1.531 . S
C2211 C2210 1.369 . S
C2211 C2212 1.410 1_455 S
C2211 C2219 1.503 . S
C2212 C2211 1.410 1_655 S
C2212 C2213 1.392 . S
C2212 C2215 1.511 . S
C2213 C2209 1.376 1_655 S
C2213 C2212 1.392 . S
C2213 H2225 0.929 . S
C2214 C2210 1.531 . S
C2214 H2226 0.960 . S
C2214 H2227 0.962 . S
C2214 H2228 0.960 . S
C2215 C2212 1.511 . S
C2215 H2229 0.961 . S
C2215 H2230 0.961 . S
C2215 H2231 0.961 . S
C2216 C2217 1.370 . S
C2216 C2218 1.363 . S
C2216 H2232 0.931 . S
C2217 C2216 1.370 . S
C2217 C2221 1.408 . S
C2218 C2216 1.363 . S
C2218 C2219 1.370 . S
C2218 C2222 1.524 . S
C2219 C2211 1.503 . S
C2219 C2218 1.370 . S
C2219 C2220 1.403 . S
C2220 C2219 1.403 . S
C2220 C2221 1.404 . S
C2220 C2223 1.539 1_455 S
C2221 C2217 1.408 . S
C2221 C2220 1.404 . S
C2221 H2233 0.930 1_455 S
C2222 C2218 1.524 . S
C2222 H2234 0.956 . S
C2222 H2235 0.961 . S
C2222 H2236 0.961 . S
C2223 C2220 1.539 1_655 S
C2223 H2237 0.958 1_655 S
C2223 H2238 0.961 . S
C2223 H2239 0.960 . S
H2224 C2208 0.931 . S
H2225 C2213 0.929 . S
H2226 C2214 0.960 . S
H2227 C2214 0.962 . S
H2228 C2214 0.960 . S
H2229 C2215 0.961 . S
H2230 C2215 0.961 . S
H2231 C2215 0.961 . S
H2232 C2216 0.931 . S
H2233 C2221 0.930 1_655 S
H2234 C2222 0.956 . S
H2235 C2222 0.961 . S
H2236 C2222 0.961 . S
H2237 C2223 0.958 1_455 S
H2238 C2223 0.961 . S
H2239 C2223 0.960 . S
C2240 C2241 1.391 . S
C2240 C2242 1.394 . S
C2240 H2256 0.931 . S
C2241 C2240 1.391 . S
C2241 C2245 1.376 . S
C2242 C2240 1.394 . S
C2242 C2243 1.369 . S
C2242 C2246 1.531 . S
C2243 C2242 1.369 . S
C2243 C2244 1.410 . S
C2243 C2251 1.503 . S
C2244 C2243 1.410 . S
C2244 C2245 1.392 . S
C2244 C2247 1.511 . S
C2245 C2241 1.376 . S
C2245 C2244 1.392 . S
C2245 H2257 0.929 . S
C2246 C2242 1.531 . S
C2246 H2258 0.960 . S
C2246 H2259 0.962 . S
C2246 H2260 0.960 . S
C2247 C2244 1.511 . S
C2247 H2261 0.961 . S
C2247 H2262 0.961 . S
C2247 H2263 0.961 . S
C2248 C2249 1.370 . S
C2248 C2250 1.363 . S
C2248 H2264 0.931 . S
C2249 C2248 1.370 . S
C2249 C2253 1.408 . S
C2250 C2248 1.363 . S
C2250 C2251 1.370 . S
C2250 C2254 1.524 . S
C2251 C2243 1.503 . S
C2251 C2250 1.370 . S
C2251 C2252 1.403 . S
C2252 C2251 1.403 . S
C2252 C2253 1.404 . S
C2252 C2255 1.539 . S
C2253 C2249 1.408 . S
C2253 C2252 1.404 . S
C2253 H2265 0.930 . S
C2254 C2250 1.524 . S
C2254 H2266 0.956 . S
C2254 H2267 0.961 . S
C2254 H2268 0.961 . S
C2255 C2252 1.539 . S
C2255 H2269 0.958 . S
C2255 H2270 0.961 . S
C2255 H2271 0.960 . S
H2256 C2240 0.931 . S
H2257 C2245 0.929 . S
H2258 C2246 0.960 . S
H2259 C2246 0.962 . S
H2260 C2246 0.960 . S
H2261 C2247 0.961 . S
H2262 C2247 0.961 . S
H2263 C2247 0.961 . S
H2264 C2248 0.931 . S
H2265 C2253 0.930 . S
H2266 C2254 0.956 . S
H2267 C2254 0.961 . S
H2268 C2254 0.961 . S
H2269 C2255 0.958 . S
H2270 C2255 0.961 . S
H2271 C2255 0.960 . S
C2272 C2273 1.391 . S
C2272 C2274 1.394 . S
C2272 H2288 0.931 . S
C2273 C2272 1.391 . S
C2273 C2277 1.376 1_565 S
C2274 C2272 1.394 . S
C2274 C2275 1.369 . S
C2274 C2278 1.531 . S
C2275 C2274 1.369 . S
C2275 C2276 1.410 1_565 S
C2275 C2283 1.503 . S
C2276 C2275 1.410 1_545 S
C2276 C2277 1.392 . S
C2276 C2279 1.511 . S
C2277 C2273 1.376 1_545 S
C2277 C2276 1.392 . S
C2277 H2289 0.929 . S
C2278 C2274 1.531 . S
C2278 H2290 0.960 . S
C2278 H2291 0.962 . S
C2278 H2292 0.960 . S
C2279 C2276 1.511 . S
C2279 H2293 0.961 . S
C2279 H2294 0.961 . S
C2279 H2295 0.961 . S
C2280 C2281 1.370 . S
C2280 C2282 1.363 . S
C2280 H2296 0.931 1_565 S
C2281 C2280 1.370 . S
C2281 C2285 1.408 . S
C2282 C2280 1.363 . S
C2282 C2283 1.370 . S
C2282 C2286 1.524 1_565 S
C2283 C2275 1.503 . S
C2283 C2282 1.370 . S
C2283 C2284 1.403 . S
C2284 C2283 1.403 . S
C2284 C2285 1.404 . S
C2284 C2287 1.539 . S
C2285 C2281 1.408 . S
C2285 C2284 1.404 . S
C2285 H2297 0.930 . S
C2286 C2282 1.524 1_545 S
C2286 H2298 0.956 1_545 S
C2286 H2299 0.961 . S
C2286 H2300 0.961 . S
C2287 C2284 1.539 . S
C2287 H2301 0.958 . S
C2287 H2302 0.961 . S
C2287 H2303 0.960 . S
H2288 C2272 0.931 . S
H2289 C2277 0.929 . S
H2290 C2278 0.960 . S
H2291 C2278 0.962 . S
H2292 C2278 0.960 . S
H2293 C2279 0.961 . S
H2294 C2279 0.961 . S
H2295 C2279 0.961 . S
H2296 C2280 0.931 1_545 S
H2297 C2285 0.930 . S
H2298 C2286 0.956 1_565 S
H2299 C2286 0.961 . S
H2300 C2286 0.961 . S
H2301 C2287 0.958 . S
H2302 C2287 0.961 . S
H2303 C2287 0.960 . S
C2304 C2305 1.391 1_545 S
C2304 C2306 1.394 . S
C2304 H2320 0.931 . S
C2305 C2304 1.391 1_565 S
C2305 C2309 1.376 . S
C2306 C2304 1.394 . S
C2306 C2307 1.369 1_545 S
C2306 C2310 1.531 . S
C2307 C2306 1.369 1_565 S
C2307 C2308 1.410 . S
C2307 C2315 1.503 . S
C2308 C2307 1.410 . S
C2308 C2309 1.392 . S
C2308 C2311 1.511 . S
C2309 C2305 1.376 . S
C2309 C2308 1.392 . S
C2309 H2321 0.929 . S
C2310 C2306 1.531 . S
C2310 H2322 0.960 . S
C2310 H2323 0.962 . S
C2310 H2324 0.960 . S
C2311 C2308 1.511 . S
C2311 H2325 0.961 . S
C2311 H2326 0.961 . S
C2311 H2327 0.961 . S
C2312 C2313 1.372 1_565 S
C2312 C2314 1.363 . S
C2312 H2328 0.931 . S
C2313 C2312 1.372 1_545 S
C2313 C2317 1.408 . S
C2314 C2312 1.363 . S
C2314 C2315 1.370 . S
C2314 C2318 1.524 . S
C2315 C2307 1.503 . S
C2315 C2314 1.370 . S
C2315 C2316 1.403 1_565 S
C2316 C2315 1.403 1_545 S
C2316 C2317 1.404 . S
C2316 C2319 1.539 . S
C2317 C2313 1.408 . S
C2317 C2316 1.404 . S
C2317 H2329 0.930 . S
C2318 C2314 1.524 . S
C2318 H2330 0.956 . S
C2318 H2331 0.961 . S
C2318 H2332 0.961 . S
C2319 C2316 1.539 . S
C2319 H2333 0.958 . S
C2319 H2334 0.961 . S
C2319 H2335 0.960 . S
H2320 C2304 0.931 . S
H2321 C2309 0.929 . S
H2322 C2310 0.960 . S
H2323 C2310 0.962 . S
H2324 C2310 0.960 . S
H2325 C2311 0.961 . S
H2326 C2311 0.961 . S
H2327 C2311 0.961 . S
H2328 C2312 0.931 . S
H2329 C2317 0.930 . S
H2330 C2318 0.956 . S
H2331 C2318 0.961 . S
H2332 C2318 0.961 . S
H2333 C2319 0.958 . S
H2334 C2319 0.961 . S
H2335 C2319 0.960 . S
C2336 C2337 1.391 . S
C2336 C2338 1.394 1_455 S
C2336 H2352 0.924 1_455 S
C2337 C2336 1.391 . S
C2337 C2341 1.376 . S
C2338 C2336 1.394 1_655 S
C2338 C2339 1.369 1_655 S
C2338 C2342 1.531 . S
C2339 C2338 1.369 1_455 S
C2339 C2340 1.410 . S
C2339 C2347 1.487 . S
C2340 C2339 1.410 . S
C2340 C2341 1.392 . S
C2340 C2343 1.511 . S
C2341 C2337 1.376 . S
C2341 C2340 1.392 . S
C2341 H2353 0.929 . S
C2342 C2338 1.531 . S
C2342 H2354 0.960 . S
C2342 H2355 0.962 1_655 S
C2342 H2356 0.960 . S
C2343 C2340 1.511 . S
C2343 H2357 0.961 . S
C2343 H2358 0.961 . S
C2343 H2359 0.961 1_455 S
C2344 C2345 1.361 1_455 S
C2344 C2346 1.363 . S
C2344 H2360 0.931 . S
C2345 C2344 1.361 1_655 S
C2345 C2349 1.425 . S
C2346 C2344 1.363 . S
C2346 C2347 1.411 . S
C2346 C2350 1.524 . S
C2347 C2339 1.487 . S
C2347 C2346 1.411 . S
C2347 C2348 1.380 1_455 S
C2348 C2347 1.380 1_655 S
C2348 C2349 1.404 . S
C2348 C2351 1.539 . S
C2349 C2345 1.425 . S
C2349 C2348 1.404 . S
C2349 H2361 0.930 . S
C2350 C2346 1.524 . S
C2350 H2362 0.956 . S
C2350 H2363 0.961 . S
C2350 H2364 0.961 . S
C2351 C2348 1.539 . S
C2351 H2365 0.958 . S
C2351 H2366 0.961 . S
C2351 H2367 0.960 . S
H2352 C2336 0.924 1_655 S
H2353 C2341 0.929 . S
H2354 C2342 0.960 . S
H2355 C2342 0.962 1_455 S
H2356 C2342 0.960 . S
H2357 C2343 0.961 . S
H2358 C2343 0.961 . S
H2359 C2343 0.961 1_655 S
H2360 C2344 0.931 . S
H2361 C2349 0.930 . S
H2362 C2350 0.956 . S
H2363 C2350 0.961 . S
H2364 C2350 0.961 . S
H2365 C2351 0.958 . S
H2366 C2351 0.961 . S
H2367 C2351 0.960 . S
C2368 C2369 1.391 . S
C2368 C2370 1.394 . S
C2368 H2384 0.931 . S
C2369 C2368 1.391 . S
C2369 C2373 1.376 . S
C2370 C2368 1.394 . S
C2370 C2371 1.369 . S
C2370 C2374 1.531 . S
C2371 C2370 1.369 . S
C2371 C2372 1.410 . S
C2371 C2379 1.503 . S
C2372 C2371 1.410 . S
C2372 C2373 1.392 . S
C2372 C2375 1.511 . S
C2373 C2369 1.376 . S
C2373 C2372 1.392 . S
C2373 H2385 0.929 . S
C2374 C2370 1.531 . S
C2374 H2386 0.960 . S
C2374 H2387 0.962 . S
C2374 H2388 0.960 . S
C2375 C2372 1.511 . S
C2375 H2389 0.961 . S
C2375 H2390 0.961 . S
C2375 H2391 0.961 . S
C2376 C2377 1.370 . S
C2376 C2378 1.363 . S
C2376 H2392 0.931 . S
C2377 C2376 1.370 . S
C2377 C2381 1.408 . S
C2378 C2376 1.363 . S
C2378 C2379 1.370 . S
C2378 C2382 1.524 . S
C2379 C2371 1.503 . S
C2379 C2378 1.370 . S
C2379 C2380 1.403 . S
C2380 C2379 1.403 . S
C2380 C2381 1.404 . S
C2380 C2383 1.539 . S
C2381 C2377 1.408 . S
C2381 C2380 1.404 . S
C2381 H2393 0.930 . S
C2382 C2378 1.524 . S
C2382 H2394 0.956 . S
C2382 H2395 0.961 . S
C2382 H2396 0.961 . S
C2383 C2380 1.539 . S
C2383 H2397 0.958 . S
C2383 H2398 0.961 . S
C2383 H2399 0.960 . S
H2384 C2368 0.931 . S
H2385 C2373 0.929 . S
H2386 C2374 0.960 . S
H2387 C2374 0.962 . S
H2388 C2374 0.960 . S
H2389 C2375 0.961 . S
H2390 C2375 0.961 . S
H2391 C2375 0.961 . S
H2392 C2376 0.931 . S
H2393 C2381 0.930 . S
H2394 C2382 0.956 . S
H2395 C2382 0.961 . S
H2396 C2382 0.961 . S
H2397 C2383 0.958 . S
H2398 C2383 0.961 . S
H2399 C2383 0.960 . S
C2400 C2401 1.391 . S
C2400 C2402 1.394 . S
C2400 H2416 0.931 . S
C2401 C2400 1.391 . S
C2401 C2405 1.376 . S
C2402 C2400 1.394 . S
C2402 C2403 1.369 . S
C2402 C2406 1.531 . S
C2403 C2402 1.369 . S
C2403 C2404 1.410 . S
C2403 C2411 1.503 . S
C2404 C2403 1.410 . S
C2404 C2405 1.392 . S
C2404 C2407 1.511 . S
C2405 C2401 1.376 . S
C2405 C2404 1.392 . S
C2405 H2417 0.929 . S
C2406 C2402 1.531 . S
C2406 H2418 0.960 . S
C2406 H2419 0.962 . S
C2406 H2420 0.960 . S
C2407 C2404 1.511 . S
C2407 H2421 0.961 . S
C2407 H2422 0.961 . S
C2407 H2423 0.961 . S
C2408 C2409 1.370 . S
C2408 C2410 1.363 . S
C2408 H2424 0.931 . S
C2409 C2408 1.370 . S
C2409 C2413 1.408 . S
C2410 C2408 1.363 . S
C2410 C2411 1.370 . S
C2410 C2414 1.524 . S
C2411 C2403 1.503 . S
C2411 C2410 1.370 . S
C2411 C2412 1.403 . S
C2412 C2411 1.403 . S
C2412 C2413 1.404 . S
C2412 C2415 1.539 . S
C2413 C2409 1.408 . S
C2413 C2412 1.404 . S
C2413 H2425 0.930 . S
C2414 C2410 1.524 . S
C2414 H2426 0.956 . S
C2414 H2427 0.961 . S
C2414 H2428 0.961 . S
C2415 C2412 1.539 . S
C2415 H2429 0.958 . S
C2415 H2430 0.961 . S
C2415 H2431 0.960 . S
H2416 C2400 0.931 . S
H2417 C2405 0.929 . S
H2418 C2406 0.960 . S
H2419 C2406 0.962 . S
H2420 C2406 0.960 . S
H2421 C2407 0.961 . S
H2422 C2407 0.961 . S
H2423 C2407 0.961 . S
H2424 C2408 0.931 . S
H2425 C2413 0.930 . S
H2426 C2414 0.956 . S
H2427 C2414 0.961 . S
H2428 C2414 0.961 . S
H2429 C2415 0.958 . S
H2430 C2415 0.961 . S
H2431 C2415 0.960 . S
C2432 C2433 1.391 . S
C2432 C2434 1.394 . S
C2432 H2448 0.931 . S
C2433 C2432 1.391 . S
C2433 C2437 1.376 . S
C2434 C2432 1.394 . S
C2434 C2435 1.369 . S
C2434 C2438 1.531 . S
C2435 C2434 1.369 . S
C2435 C2436 1.410 . S
C2435 C2443 1.503 . S
C2436 C2435 1.410 . S
C2436 C2437 1.392 . S
C2436 C2439 1.511 . S
C2437 C2433 1.376 . S
C2437 C2436 1.392 . S
C2437 H2449 0.929 . S
C2438 C2434 1.531 . S
C2438 H2450 0.960 . S
C2438 H2451 0.962 . S
C2438 H2452 0.960 . S
C2439 C2436 1.511 . S
C2439 H2453 0.961 . S
C2439 H2454 0.961 . S
C2439 H2455 0.961 . S
C2440 C2441 1.370 . S
C2440 C2442 1.363 . S
C2440 H2456 0.931 . S
C2441 C2440 1.370 . S
C2441 C2445 1.408 . S
C2442 C2440 1.363 . S
C2442 C2443 1.370 . S
C2442 C2446 1.524 . S
C2443 C2435 1.503 . S
C2443 C2442 1.370 . S
C2443 C2444 1.403 . S
C2444 C2443 1.403 . S
C2444 C2445 1.404 . S
C2444 C2447 1.539 . S
C2445 C2441 1.408 . S
C2445 C2444 1.404 . S
C2445 H2457 0.930 . S
C2446 C2442 1.524 . S
C2446 H2458 0.956 . S
C2446 H2459 0.961 . S
C2446 H2460 0.961 . S
C2447 C2444 1.539 . S
C2447 H2461 0.958 . S
C2447 H2462 0.961 . S
C2447 H2463 0.960 . S
H2448 C2432 0.931 . S
H2449 C2437 0.929 . S
H2450 C2438 0.960 . S
H2451 C2438 0.962 . S
H2452 C2438 0.960 . S
H2453 C2439 0.961 . S
H2454 C2439 0.961 . S
H2455 C2439 0.961 . S
H2456 C2440 0.931 . S
H2457 C2445 0.930 . S
H2458 C2446 0.956 . S
H2459 C2446 0.961 . S
H2460 C2446 0.961 . S
H2461 C2447 0.958 . S
H2462 C2447 0.961 . S
H2463 C2447 0.960 . S
C2464 C2465 1.391 . S
C2464 C2466 1.394 . S
C2464 H2480 0.931 . S
C2465 C2464 1.391 . S
C2465 C2469 1.376 . S
C2466 C2464 1.394 . S
C2466 C2467 1.369 . S
C2466 C2470 1.531 . S
C2467 C2466 1.369 . S
C2467 C2468 1.410 . S
C2467 C2475 1.503 . S
C2468 C2467 1.410 . S
C2468 C2469 1.392 . S
C2468 C2471 1.511 . S
C2469 C2465 1.376 . S
C2469 C2468 1.392 . S
C2469 H2481 0.929 . S
C2470 C2466 1.531 . S
C2470 H2482 0.960 . S
C2470 H2483 0.962 . S
C2470 H2484 0.960 . S
C2471 C2468 1.511 . S
C2471 H2485 0.961 . S
C2471 H2486 0.961 . S
C2471 H2487 0.961 . S
C2472 C2473 1.370 . S
C2472 C2474 1.363 . S
C2472 H2488 0.931 . S
C2473 C2472 1.370 . S
C2473 C2477 1.408 . S
C2474 C2472 1.363 . S
C2474 C2475 1.370 . S
C2474 C2478 1.524 . S
C2475 C2467 1.503 . S
C2475 C2474 1.370 . S
C2475 C2476 1.403 . S
C2476 C2475 1.403 . S
C2476 C2477 1.404 . S
C2476 C2479 1.539 . S
C2477 C2473 1.408 . S
C2477 C2476 1.404 . S
C2477 H2489 0.930 . S
C2478 C2474 1.524 . S
C2478 H2490 0.956 . S
C2478 H2491 0.961 . S
C2478 H2492 0.961 . S
C2479 C2476 1.539 . S
C2479 H2493 0.958 . S
C2479 H2494 0.961 . S
C2479 H2495 0.960 . S
H2480 C2464 0.931 . S
H2481 C2469 0.929 . S
H2482 C2470 0.960 . S
H2483 C2470 0.962 . S
H2484 C2470 0.960 . S
H2485 C2471 0.961 . S
H2486 C2471 0.961 . S
H2487 C2471 0.961 . S
H2488 C2472 0.931 . S
H2489 C2477 0.930 . S
H2490 C2478 0.956 . S
H2491 C2478 0.961 . S
H2492 C2478 0.961 . S
H2493 C2479 0.958 . S
H2494 C2479 0.961 . S
H2495 C2479 0.960 . S
C2496 C2497 1.391 . S
C2496 C2498 1.394 . S
C2496 H2512 0.931 . S
C2497 C2496 1.391 . S
C2497 C2501 1.376 1_545 S
C2498 C2496 1.394 . S
C2498 C2499 1.369 . S
C2498 C2502 1.531 . S
C2499 C2498 1.369 . S
C2499 C2500 1.410 1_545 S
C2499 C2507 1.503 . S
C2500 C2499 1.410 1_565 S
C2500 C2501 1.392 . S
C2500 C2503 1.511 . S
C2501 C2497 1.376 1_565 S
C2501 C2500 1.392 . S
C2501 H2513 0.929 . S
C2502 C2498 1.531 . S
C2502 H2514 0.960 . S
C2502 H2515 0.962 . S
C2502 H2516 0.960 . S
C2503 C2500 1.511 . S
C2503 H2517 0.961 . S
C2503 H2518 0.961 . S
C2503 H2519 0.961 . S
C2504 C2505 1.370 . S
C2504 C2506 1.363 . S
C2504 H2520 0.931 . S
C2505 C2504 1.370 . S
C2505 C2509 1.408 1_545 S
C2506 C2504 1.363 . S
C2506 C2507 1.370 . S
C2506 C2510 1.524 . S
C2507 C2499 1.503 . S
C2507 C2506 1.370 . S
C2507 C2508 1.403 1_545 S
C2508 C2507 1.403 1_565 S
C2508 C2509 1.404 . S
C2508 C2511 1.539 . S
C2509 C2505 1.408 1_565 S
C2509 C2508 1.404 . S
C2509 H2521 0.930 . S
C2510 C2506 1.524 . S
C2510 H2522 0.956 . S
C2510 H2523 0.961 . S
C2510 H2524 0.961 . S
C2511 C2508 1.539 . S
C2511 H2525 0.958 . S
C2511 H2526 0.961 . S
C2511 H2527 0.960 . S
H2512 C2496 0.931 . S
H2513 C2501 0.929 . S
H2514 C2502 0.960 . S
H2515 C2502 0.962 . S
H2516 C2502 0.960 . S
H2517 C2503 0.961 . S
H2518 C2503 0.961 . S
H2519 C2503 0.961 . S
H2520 C2504 0.931 . S
H2521 C2509 0.930 . S
H2522 C2510 0.956 . S
H2523 C2510 0.961 . S
H2524 C2510 0.961 . S
H2525 C2511 0.958 . S
H2526 C2511 0.961 . S
H2527 C2511 0.960 . S
C2528 C2529 1.391 1_455 S
C2528 C2530 1.394 . S
C2528 H2544 0.931 . S
C2529 C2528 1.391 1_655 S
C2529 C2533 1.376 . S
C2530 C2528 1.394 . S
C2530 C2531 1.369 1_455 S
C2530 C2534 1.531 . S
C2531 C2530 1.369 1_655 S
C2531 C2532 1.410 . S
C2531 C2539 1.503 . S
C2532 C2531 1.410 . S
C2532 C2533 1.392 . S
C2532 C2535 1.511 . S
C2533 C2529 1.376 . S
C2533 C2532 1.392 . S
C2533 H2545 0.929 . S
C2534 C2530 1.531 . S
C2534 H2546 0.960 . S
C2534 H2547 0.962 . S
C2534 H2548 0.960 . S
C2535 C2532 1.511 . S
C2535 H2549 0.961 . S
C2535 H2550 0.961 . S
C2535 H2551 0.961 . S
C2536 C2537 1.370 . S
C2536 C2538 1.363 . S
C2536 H2552 0.931 . S
C2537 C2536 1.370 . S
C2537 C2541 1.408 . S
C2538 C2536 1.363 . S
C2538 C2539 1.370 . S
C2538 C2542 1.524 . S
C2539 C2531 1.503 . S
C2539 C2538 1.370 . S
C2539 C2540 1.403 . S
C2540 C2539 1.403 . S
C2540 C2541 1.404 . S
C2540 C2543 1.538 1_655 S
C2541 C2537 1.408 . S
C2541 C2540 1.404 . S
C2541 H2553 0.946 1_655 S
C2542 C2538 1.524 . S
C2542 H2554 0.956 . S
C2542 H2555 0.961 . S
C2542 H2556 0.961 . S
C2543 C2540 1.538 1_455 S
C2543 H2557 0.972 . S
C2543 H2558 0.949 1_455 S
C2543 H2559 0.959 1_455 S
H2544 C2528 0.931 . S
H2545 C2533 0.929 . S
H2546 C2534 0.960 . S
H2547 C2534 0.962 . S
H2548 C2534 0.960 . S
H2549 C2535 0.961 . S
H2550 C2535 0.961 . S
H2551 C2535 0.961 . S
H2552 C2536 0.931 . S
H2553 C2541 0.946 1_455 S
H2554 C2542 0.956 . S
H2555 C2542 0.961 . S
H2556 C2542 0.961 . S
H2557 C2543 0.972 . S
H2558 C2543 0.949 1_655 S
H2559 C2543 0.959 1_655 S
C2560 C2561 1.391 . S
C2560 C2562 1.394 . S
C2560 H2576 0.931 . S
C2561 C2560 1.391 . S
C2561 C2565 1.376 . S
C2562 C2560 1.394 . S
C2562 C2563 1.369 . S
C2562 C2566 1.531 . S
C2563 C2562 1.369 . S
C2563 C2564 1.410 . S
C2563 C2571 1.503 . S
C2564 C2563 1.410 . S
C2564 C2565 1.392 . S
C2564 C2567 1.511 . S
C2565 C2561 1.376 . S
C2565 C2564 1.392 . S
C2565 H2577 0.929 . S
C2566 C2562 1.531 . S
C2566 H2578 0.960 . S
C2566 H2579 0.962 . S
C2566 H2580 0.960 . S
C2567 C2564 1.511 . S
C2567 H2581 0.961 . S
C2567 H2582 0.961 . S
C2567 H2583 0.961 . S
C2568 C2569 1.370 . S
C2568 C2570 1.363 . S
C2568 H2584 0.931 . S
C2569 C2568 1.370 . S
C2569 C2573 1.408 . S
C2570 C2568 1.363 . S
C2570 C2571 1.370 . S
C2570 C2574 1.524 . S
C2571 C2563 1.503 . S
C2571 C2570 1.370 . S
C2571 C2572 1.403 . S
C2572 C2571 1.403 . S
C2572 C2573 1.404 . S
C2572 C2575 1.539 . S
C2573 C2569 1.408 . S
C2573 C2572 1.404 . S
C2573 H2585 0.930 . S
C2574 C2570 1.524 . S
C2574 H2586 0.956 . S
C2574 H2587 0.961 . S
C2574 H2588 0.961 . S
C2575 C2572 1.539 . S
C2575 H2589 0.958 . S
C2575 H2590 0.961 . S
C2575 H2591 0.960 . S
H2576 C2560 0.931 . S
H2577 C2565 0.929 . S
H2578 C2566 0.960 . S
H2579 C2566 0.962 . S
H2580 C2566 0.960 . S
H2581 C2567 0.961 . S
H2582 C2567 0.961 . S
H2583 C2567 0.961 . S
H2584 C2568 0.931 . S
H2585 C2573 0.930 . S
H2586 C2574 0.956 . S
H2587 C2574 0.961 . S
H2588 C2574 0.961 . S
H2589 C2575 0.958 . S
H2590 C2575 0.961 . S
H2591 C2575 0.960 . S
C2592 C2593 1.391 . S
C2592 C2594 1.394 . S
C2592 H2608 0.931 . S
C2593 C2592 1.391 . S
C2593 C2597 1.376 . S
C2594 C2592 1.394 . S
C2594 C2595 1.369 . S
C2594 C2598 1.531 . S
C2595 C2594 1.369 . S
C2595 C2596 1.410 . S
C2595 C2603 1.503 . S
C2596 C2595 1.410 . S
C2596 C2597 1.392 . S
C2596 C2599 1.511 . S
C2597 C2593 1.376 . S
C2597 C2596 1.392 . S
C2597 H2609 0.929 . S
C2598 C2594 1.531 . S
C2598 H2610 0.960 . S
C2598 H2611 0.962 . S
C2598 H2612 0.960 . S
C2599 C2596 1.511 . S
C2599 H2613 0.961 . S
C2599 H2614 0.961 . S
C2599 H2615 0.961 . S
C2600 C2601 1.370 . S
C2600 C2602 1.363 . S
C2600 H2616 0.931 . S
C2601 C2600 1.370 . S
C2601 C2605 1.408 . S
C2602 C2600 1.363 . S
C2602 C2603 1.370 . S
C2602 C2606 1.524 . S
C2603 C2595 1.503 . S
C2603 C2602 1.370 . S
C2603 C2604 1.403 . S
C2604 C2603 1.403 . S
C2604 C2605 1.404 . S
C2604 C2607 1.539 . S
C2605 C2601 1.408 . S
C2605 C2604 1.404 . S
C2605 H2617 0.930 . S
C2606 C2602 1.524 . S
C2606 H2618 0.956 . S
C2606 H2619 0.961 . S
C2606 H2620 0.961 . S
C2607 C2604 1.539 . S
C2607 H2621 0.958 . S
C2607 H2622 0.961 . S
C2607 H2623 0.960 . S
H2608 C2592 0.931 . S
H2609 C2597 0.929 . S
H2610 C2598 0.960 . S
H2611 C2598 0.962 . S
H2612 C2598 0.960 . S
H2613 C2599 0.961 . S
H2614 C2599 0.961 . S
H2615 C2599 0.961 . S
H2616 C2600 0.931 . S
H2617 C2605 0.930 . S
H2618 C2606 0.956 . S
H2619 C2606 0.961 . S
H2620 C2606 0.961 . S
H2621 C2607 0.958 . S
H2622 C2607 0.961 . S
H2623 C2607 0.960 . S
C2624 C2625 1.391 . S
C2624 C2626 1.394 . S
C2624 H2640 0.931 . S
C2625 C2624 1.391 . S
C2625 C2629 1.376 . S
C2626 C2624 1.394 . S
C2626 C2627 1.369 . S
C2626 C2630 1.531 . S
C2627 C2626 1.369 . S
C2627 C2628 1.410 . S
C2627 C2635 1.503 . S
C2628 C2627 1.410 . S
C2628 C2629 1.392 . S
C2628 C2631 1.511 . S
C2629 C2625 1.376 . S
C2629 C2628 1.392 . S
C2629 H2641 0.929 . S
C2630 C2626 1.531 . S
C2630 H2642 0.960 . S
C2630 H2643 0.962 . S
C2630 H2644 0.960 . S
C2631 C2628 1.511 . S
C2631 H2645 0.961 . S
C2631 H2646 0.961 . S
C2631 H2647 0.961 . S
C2632 C2633 1.370 . S
C2632 C2634 1.363 . S
C2632 H2648 0.931 . S
C2633 C2632 1.370 . S
C2633 C2637 1.408 . S
C2634 C2632 1.363 . S
C2634 C2635 1.370 . S
C2634 C2638 1.524 . S
C2635 C2627 1.503 . S
C2635 C2634 1.370 . S
C2635 C2636 1.403 . S
C2636 C2635 1.403 . S
C2636 C2637 1.404 . S
C2636 C2639 1.539 . S
C2637 C2633 1.408 . S
C2637 C2636 1.404 . S
C2637 H2649 0.930 . S
C2638 C2634 1.524 . S
C2638 H2650 0.956 . S
C2638 H2651 0.961 . S
C2638 H2652 0.961 . S
C2639 C2636 1.539 . S
C2639 H2653 0.958 . S
C2639 H2654 0.961 . S
C2639 H2655 0.960 . S
H2640 C2624 0.931 . S
H2641 C2629 0.929 . S
H2642 C2630 0.960 . S
H2643 C2630 0.962 . S
H2644 C2630 0.960 . S
H2645 C2631 0.961 . S
H2646 C2631 0.961 . S
H2647 C2631 0.961 . S
H2648 C2632 0.931 . S
H2649 C2637 0.930 . S
H2650 C2638 0.956 . S
H2651 C2638 0.961 . S
H2652 C2638 0.961 . S
H2653 C2639 0.958 . S
H2654 C2639 0.961 . S
H2655 C2639 0.960 . S
C2656 C2657 1.391 . S
C2656 C2658 1.394 . S
C2656 H2672 0.931 . S
C2657 C2656 1.391 . S
C2657 C2661 1.376 . S
C2658 C2656 1.394 . S
C2658 C2659 1.369 . S
C2658 C2662 1.531 . S
C2659 C2658 1.369 . S
C2659 C2660 1.410 . S
C2659 C2667 1.503 . S
C2660 C2659 1.410 . S
C2660 C2661 1.392 . S
C2660 C2663 1.511 . S
C2661 C2657 1.376 . S
C2661 C2660 1.392 . S
C2661 H2673 0.929 . S
C2662 C2658 1.531 . S
C2662 H2674 0.960 . S
C2662 H2675 0.962 . S
C2662 H2676 0.960 . S
C2663 C2660 1.511 . S
C2663 H2677 0.961 . S
C2663 H2678 0.961 . S
C2663 H2679 0.961 . S
C2664 C2665 1.370 . S
C2664 C2666 1.363 . S
C2664 H2680 0.931 . S
C2665 C2664 1.370 . S
C2665 C2669 1.408 . S
C2666 C2664 1.363 . S
C2666 C2667 1.370 . S
C2666 C2670 1.524 . S
C2667 C2659 1.503 . S
C2667 C2666 1.370 . S
C2667 C2668 1.403 . S
C2668 C2667 1.403 . S
C2668 C2669 1.404 . S
C2668 C2671 1.539 . S
C2669 C2665 1.408 . S
C2669 C2668 1.404 . S
C2669 H2681 0.930 . S
C2670 C2666 1.524 . S
C2670 H2682 0.956 . S
C2670 H2683 0.961 . S
C2670 H2684 0.961 . S
C2671 C2668 1.539 . S
C2671 H2685 0.958 . S
C2671 H2686 0.961 . S
C2671 H2687 0.960 . S
H2672 C2656 0.931 . S
H2673 C2661 0.929 . S
H2674 C2662 0.960 . S
H2675 C2662 0.962 . S
H2676 C2662 0.960 . S
H2677 C2663 0.961 . S
H2678 C2663 0.961 . S
H2679 C2663 0.961 . S
H2680 C2664 0.931 . S
H2681 C2669 0.930 . S
H2682 C2670 0.956 . S
H2683 C2670 0.961 . S
H2684 C2670 0.961 . S
H2685 C2671 0.958 . S
H2686 C2671 0.961 . S
H2687 C2671 0.960 . S
C2688 C2689 1.391 . S
C2688 C2690 1.394 . S
C2688 H2704 0.931 . S
C2689 C2688 1.391 . S
C2689 C2693 1.376 . S
C2690 C2688 1.394 . S
C2690 C2691 1.369 . S
C2690 C2694 1.531 . S
C2691 C2690 1.369 . S
C2691 C2692 1.410 . S
C2691 C2699 1.503 . S
C2692 C2691 1.410 . S
C2692 C2693 1.392 . S
C2692 C2695 1.511 . S
C2693 C2689 1.376 . S
C2693 C2692 1.392 . S
C2693 H2705 0.929 . S
C2694 C2690 1.531 . S
C2694 H2706 0.960 . S
C2694 H2707 0.962 . S
C2694 H2708 0.960 . S
C2695 C2692 1.511 . S
C2695 H2709 0.961 . S
C2695 H2710 0.961 . S
C2695 H2711 0.961 . S
C2696 C2697 1.370 . S
C2696 C2698 1.363 . S
C2696 H2712 0.931 . S
C2697 C2696 1.370 . S
C2697 C2701 1.408 . S
C2698 C2696 1.363 . S
C2698 C2699 1.370 . S
C2698 C2702 1.524 . S
C2699 C2691 1.503 . S
C2699 C2698 1.370 . S
C2699 C2700 1.403 . S
C2700 C2699 1.403 . S
C2700 C2701 1.404 . S
C2700 C2703 1.539 . S
C2701 C2697 1.408 . S
C2701 C2700 1.404 . S
C2701 H2713 0.930 . S
C2702 C2698 1.524 . S
C2702 H2714 0.956 . S
C2702 H2715 0.961 . S
C2702 H2716 0.961 . S
C2703 C2700 1.539 . S
C2703 H2717 0.958 . S
C2703 H2718 0.961 . S
C2703 H2719 0.960 . S
H2704 C2688 0.931 . S
H2705 C2693 0.929 . S
H2706 C2694 0.960 . S
H2707 C2694 0.962 . S
H2708 C2694 0.960 . S
H2709 C2695 0.961 . S
H2710 C2695 0.961 . S
H2711 C2695 0.961 . S
H2712 C2696 0.931 . S
H2713 C2701 0.930 . S
H2714 C2702 0.956 . S
H2715 C2702 0.961 . S
H2716 C2702 0.961 . S
H2717 C2703 0.958 . S
H2718 C2703 0.961 . S
H2719 C2703 0.960 . S
C2720 C2721 1.391 . S
C2720 C2722 1.394 . S
C2720 H2736 0.931 . S
C2721 C2720 1.391 . S
C2721 C2725 1.376 . S
C2722 C2720 1.394 . S
C2722 C2723 1.369 . S
C2722 C2726 1.531 . S
C2723 C2722 1.369 . S
C2723 C2724 1.410 . S
C2723 C2731 1.503 . S
C2724 C2723 1.410 . S
C2724 C2725 1.392 . S
C2724 C2727 1.511 . S
C2725 C2721 1.376 . S
C2725 C2724 1.392 . S
C2725 H2737 0.929 . S
C2726 C2722 1.531 . S
C2726 H2738 0.960 . S
C2726 H2739 0.962 . S
C2726 H2740 0.960 . S
C2727 C2724 1.511 . S
C2727 H2741 0.961 . S
C2727 H2742 0.961 . S
C2727 H2743 0.961 . S
C2728 C2729 1.370 . S
C2728 C2730 1.363 . S
C2728 H2744 0.931 . S
C2729 C2728 1.370 . S
C2729 C2733 1.408 . S
C2730 C2728 1.363 . S
C2730 C2731 1.370 . S
C2730 C2734 1.524 . S
C2731 C2723 1.503 . S
C2731 C2730 1.370 . S
C2731 C2732 1.403 . S
C2732 C2731 1.403 . S
C2732 C2733 1.404 . S
C2732 C2735 1.539 . S
C2733 C2729 1.408 . S
C2733 C2732 1.404 . S
C2733 H2745 0.930 . S
C2734 C2730 1.524 . S
C2734 H2746 0.956 . S
C2734 H2747 0.961 . S
C2734 H2748 0.961 . S
C2735 C2732 1.539 . S
C2735 H2749 0.958 . S
C2735 H2750 0.961 . S
C2735 H2751 0.960 . S
H2736 C2720 0.931 . S
H2737 C2725 0.929 . S
H2738 C2726 0.960 . S
H2739 C2726 0.962 . S
H2740 C2726 0.960 . S
H2741 C2727 0.961 . S
H2742 C2727 0.961 . S
H2743 C2727 0.961 . S
H2744 C2728 0.931 . S
H2745 C2733 0.930 . S
H2746 C2734 0.956 . S
H2747 C2734 0.961 . S
H2748 C2734 0.961 . S
H2749 C2735 0.958 . S
H2750 C2735 0.961 . S
H2751 C2735 0.960 . S
C2752 C2753 1.391 . S
C2752 C2754 1.394 . S
C2752 H2768 0.931 . S
C2753 C2752 1.391 . S
C2753 C2757 1.376 . S
C2754 C2752 1.394 . S
C2754 C2755 1.369 . S
C2754 C2758 1.531 . S
C2755 C2754 1.369 . S
C2755 C2756 1.410 . S
C2755 C2763 1.503 . S
C2756 C2755 1.410 . S
C2756 C2757 1.392 . S
C2756 C2759 1.511 . S
C2757 C2753 1.376 . S
C2757 C2756 1.392 . S
C2757 H2769 0.929 . S
C2758 C2754 1.531 . S
C2758 H2770 0.960 . S
C2758 H2771 0.962 . S
C2758 H2772 0.960 . S
C2759 C2756 1.511 . S
C2759 H2773 0.961 . S
C2759 H2774 0.961 . S
C2759 H2775 0.961 . S
C2760 C2761 1.370 . S
C2760 C2762 1.363 . S
C2760 H2776 0.931 . S
C2761 C2760 1.370 . S
C2761 C2765 1.408 . S
C2762 C2760 1.363 . S
C2762 C2763 1.370 . S
C2762 C2766 1.524 . S
C2763 C2755 1.503 . S
C2763 C2762 1.370 . S
C2763 C2764 1.403 . S
C2764 C2763 1.403 . S
C2764 C2765 1.404 . S
C2764 C2767 1.539 . S
C2765 C2761 1.408 . S
C2765 C2764 1.404 . S
C2765 H2777 0.930 . S
C2766 C2762 1.524 . S
C2766 H2778 0.956 . S
C2766 H2779 0.961 . S
C2766 H2780 0.961 . S
C2767 C2764 1.539 . S
C2767 H2781 0.958 . S
C2767 H2782 0.961 . S
C2767 H2783 0.960 . S
H2768 C2752 0.931 . S
H2769 C2757 0.929 . S
H2770 C2758 0.960 . S
H2771 C2758 0.962 . S
H2772 C2758 0.960 . S
H2773 C2759 0.961 . S
H2774 C2759 0.961 . S
H2775 C2759 0.961 . S
H2776 C2760 0.931 . S
H2777 C2765 0.930 . S
H2778 C2766 0.956 . S
H2779 C2766 0.961 . S
H2780 C2766 0.961 . S
H2781 C2767 0.958 . S
H2782 C2767 0.961 . S
H2783 C2767 0.960 . S
C2784 C2785 1.391 . S
C2784 C2786 1.394 . S
C2784 H2800 0.931 . S
C2785 C2784 1.391 . S
C2785 C2789 1.376 1_655 S
C2786 C2784 1.394 . S
C2786 C2787 1.369 . S
C2786 C2790 1.531 . S
C2787 C2786 1.369 . S
C2787 C2788 1.410 1_655 S
C2787 C2795 1.503 . S
C2788 C2787 1.410 1_455 S
C2788 C2789 1.392 . S
C2788 C2791 1.511 . S
C2789 C2785 1.376 1_455 S
C2789 C2788 1.392 . S
C2789 H2801 0.929 . S
C2790 C2786 1.531 . S
C2790 H2802 0.960 . S
C2790 H2803 0.962 . S
C2790 H2804 0.960 . S
C2791 C2788 1.511 . S
C2791 H2805 0.961 . S
C2791 H2806 0.961 . S
C2791 H2807 0.961 . S
C2792 C2793 1.369 . S
C2792 C2794 1.363 . S
C2792 H2808 0.931 . S
C2793 C2792 1.369 . S
C2793 C2797 1.409 1_655 S
C2794 C2792 1.363 . S
C2794 C2795 1.370 . S
C2794 C2798 1.524 . S
C2795 C2787 1.503 . S
C2795 C2794 1.370 . S
C2795 C2796 1.403 1_655 S
C2796 C2795 1.403 1_455 S
C2796 C2797 1.404 . S
C2796 C2799 1.539 . S
C2797 C2793 1.409 1_455 S
C2797 C2796 1.404 . S
C2797 H2809 0.930 . S
C2798 C2794 1.524 . S
C2798 H2810 0.956 . S
C2798 H2811 0.961 . S
C2798 H2812 0.961 . S
C2799 C2796 1.539 . S
C2799 H2813 0.958 . S
C2799 H2814 0.961 . S
C2799 H2815 0.960 . S
H2800 C2784 0.931 . S
H2801 C2789 0.929 . S
H2802 C2790 0.960 . S
H2803 C2790 0.962 . S
H2804 C2790 0.960 . S
H2805 C2791 0.961 . S
H2806 C2791 0.961 . S
H2807 C2791 0.961 . S
H2808 C2792 0.931 . S
H2809 C2797 0.930 . S
H2810 C2798 0.956 . S
H2811 C2798 0.961 . S
H2812 C2798 0.961 . S
H2813 C2799 0.958 . S
H2814 C2799 0.961 . S
H2815 C2799 0.960 . S
C2816 C2817 1.391 . S
C2816 C2818 1.394 . S
C2816 H2832 0.931 . S
C2817 C2816 1.391 . S
C2817 C2821 1.376 . S
C2818 C2816 1.394 . S
C2818 C2819 1.369 . S
C2818 C2822 1.531 . S
C2819 C2818 1.369 . S
C2819 C2820 1.410 . S
C2819 C2827 1.503 . S
C2820 C2819 1.410 . S
C2820 C2821 1.392 . S
C2820 C2823 1.511 . S
C2821 C2817 1.376 . S
C2821 C2820 1.392 . S
C2821 H2833 0.929 . S
C2822 C2818 1.531 . S
C2822 H2834 0.960 . S
C2822 H2835 0.962 . S
C2822 H2836 0.960 . S
C2823 C2820 1.511 . S
C2823 H2837 0.961 . S
C2823 H2838 0.961 . S
C2823 H2839 0.961 . S
C2824 C2825 1.370 . S
C2824 C2826 1.363 . S
C2824 H2840 0.931 . S
C2825 C2824 1.370 . S
C2825 C2829 1.408 . S
C2826 C2824 1.363 . S
C2826 C2827 1.370 . S
C2826 C2830 1.524 . S
C2827 C2819 1.503 . S
C2827 C2826 1.370 . S
C2827 C2828 1.403 . S
C2828 C2827 1.403 . S
C2828 C2829 1.404 . S
C2828 C2831 1.539 . S
C2829 C2825 1.408 . S
C2829 C2828 1.404 . S
C2829 H2841 0.930 . S
C2830 C2826 1.524 . S
C2830 H2842 0.956 . S
C2830 H2843 0.961 . S
C2830 H2844 0.961 . S
C2831 C2828 1.539 . S
C2831 H2845 0.958 . S
C2831 H2846 0.961 . S
C2831 H2847 0.960 . S
H2832 C2816 0.931 . S
H2833 C2821 0.929 . S
H2834 C2822 0.960 . S
H2835 C2822 0.962 . S
H2836 C2822 0.960 . S
H2837 C2823 0.961 . S
H2838 C2823 0.961 . S
H2839 C2823 0.961 . S
H2840 C2824 0.931 . S
H2841 C2829 0.930 . S
H2842 C2830 0.956 . S
H2843 C2830 0.961 . S
H2844 C2830 0.961 . S
H2845 C2831 0.958 . S
H2846 C2831 0.961 . S
H2847 C2831 0.960 . S
C2848 C2849 1.391 . S
C2848 C2850 1.394 . S
C2848 H2864 0.931 . S
C2849 C2848 1.391 . S
C2849 C2853 1.376 1_545 S
C2850 C2848 1.394 . S
C2850 C2851 1.369 . S
C2850 C2854 1.531 . S
C2851 C2850 1.369 . S
C2851 C2852 1.410 1_545 S
C2851 C2859 1.503 . S
C2852 C2851 1.410 1_565 S
C2852 C2853 1.392 . S
C2852 C2855 1.511 . S
C2853 C2849 1.376 1_565 S
C2853 C2852 1.392 . S
C2853 H2865 0.929 . S
C2854 C2850 1.531 . S
C2854 H2866 0.960 . S
C2854 H2867 0.962 . S
C2854 H2868 0.960 . S
C2855 C2852 1.511 . S
C2855 H2869 0.961 . S
C2855 H2870 0.961 . S
C2855 H2871 0.961 . S
C2856 C2857 1.330 1_565 S
C2856 C2858 1.363 . S
C2856 H2872 0.931 . S
C2857 C2856 1.330 1_545 S
C2857 C2861 1.435 . S
C2858 C2856 1.363 . S
C2858 C2859 1.370 1_565 S
C2858 C2862 1.524 . S
C2859 C2851 1.503 . S
C2859 C2858 1.370 1_545 S
C2859 C2860 1.403 . S
C2860 C2859 1.403 . S
C2860 C2861 1.404 . S
C2860 C2863 1.539 . S
C2861 C2857 1.435 . S
C2861 C2860 1.404 . S
C2861 H2873 0.930 . S
C2862 C2858 1.524 . S
C2862 H2874 0.956 . S
C2862 H2875 0.961 . S
C2862 H2876 0.961 . S
C2863 C2860 1.539 . S
C2863 H2877 0.958 . S
C2863 H2878 0.961 . S
C2863 H2879 0.960 . S
H2864 C2848 0.931 . S
H2865 C2853 0.929 . S
H2866 C2854 0.960 . S
H2867 C2854 0.962 . S
H2868 C2854 0.960 . S
H2869 C2855 0.961 . S
H2870 C2855 0.961 . S
H2871 C2855 0.961 . S
H2872 C2856 0.931 . S
H2873 C2861 0.930 . S
H2874 C2862 0.956 . S
H2875 C2862 0.961 . S
H2876 C2862 0.961 . S
H2877 C2863 0.958 . S
H2878 C2863 0.961 . S
H2879 C2863 0.960 . S
C577 C8 1.532 1_655 S
C585 C421 1.531 . S
C609 C22 1.537 . S
C617 C446 1.526 . S
C649 C457 1.513 . S
C641 C37 1.535 . S
C673 C36 1.523 . S
C681 C482 1.525 . S
C705 C9 1.563 1_455 S
C713 C500 1.542 . S
C737 C23 1.546 . S
C745 C511 1.517 . S
C769 C50 1.537 . S
C777 C493 1.507 . S
C809 C518 1.522 . S
C801 C64 1.506 . S
C841 C475 1.515 . S
C833 C79 1.525 . S
C865 C78 1.510 . S
C873 C464 1.505 . S
C905 C428 1.521 . S
C897 C51 1.503 . S
C929 C65 1.534 . S
C937 C439 1.511 . S
C961 C92 1.556 . S
C969 C529 1.520 . S
C993 C106 1.533 . S
C1001 C554 1.542 . S
C1033 C565 1.519 . S
C1025 C121 1.554 . S
C1057 C120 1.536 . S
C1065 C266 1.543 . S
C1089 C93 1.563 . S
C1097 C284 1.538 . S
C1121 C107 1.544 . S
C1129 C295 1.539 . S
C1153 C134 1.539 . S
C1161 C277 1.510 . S
C1185 C148 1.546 . S
C1193 C302 1.522 . S
C1225 C259 1.510 . S
C1217 C163 1.529 . S
C1257 C572 1.523 . S
C1249 C162 1.548 . S
C1289 C536 1.523 . S
C1281 C135 1.547 . S
C1321 C547 1.515 . S
C1313 C149 1.541 . S
C1345 C176 1.534 . S
C1353 C313 1.517 . S
C1377 C190 1.556 . S
C1385 C338 1.543 . S
C1409 C205 1.561 . S
C1417 C349 1.522 . S
C1441 C204 1.531 . S
C1449 C374 1.539 . S
C1481 C392 1.527 . S
C1473 C177 1.545 . S
C1513 C403 1.542 . S
C1505 C191 1.550 . S
C1545 C385 1.526 . S
C1537 C218 1.509 . S
C1577 C410 1.517 . S
C1569 C232 1.539 . S
C1601 C247 1.545 . S
C1609 C367 1.516 . S
C1641 C356 1.530 . S
C1633 C246 1.529 . S
C1665 C219 1.516 . S
C1673 C320 1.514 . S
C1705 C331 1.529 . S
C1697 C233 1.512 . S
C1737 C268 1.462 . S
C1729 C6 1.473 . S
C1761 C20 1.440 . S
C1769 C286 1.453 . S
C1801 C296 1.455 . S
C1793 C35 1.492 . S
C1833 C314 1.460 . S
C1825 C34 1.446 . S
C1865 C340 1.444 . S
C1857 C7 1.452 . S
C1897 C350 1.451 . S
C1889 C21 1.440 . S
C1921 C48 1.465 . S
C1929 C358 1.455 . S
C1953 C62 1.466 . S
C1961 C322 1.438 . S
C1985 C77 1.465 . S
C1993 C332 1.467 . S
C2017 C76 1.485 . S
C2025 C278 1.473 . S
C2057 C304 1.463 . S
C2049 C49 1.491 . S
C2081 C63 1.505 . S
C2089 C260 1.444 . S
C2121 C376 1.445 . S
C2113 C90 1.499 . S
C2145 C104 1.446 . S
C2153 C394 1.459 . S
C2177 C119 1.490 . S
C2185 C404 1.441 . S
C2217 C422 1.435 . S
C2209 C118 1.475 . S
C2241 C91 1.448 . S
C2249 C448 1.448 . S
C2273 C105 1.470 . S
C2281 C458 1.439 . S
C2305 C132 1.505 . S
C2313 C466 1.444 1_545 S
C2337 C146 1.506 . S
C2345 C430 1.433 1_655 S
C2377 C440 1.469 . S
C2369 C161 1.462 . S
C2401 C160 1.467 . S
C2409 C386 1.449 . S
C2433 C133 1.468 . S
C2441 C412 1.465 . S
C2473 C368 1.454 . S
C2465 C147 1.471 . S
C2505 C484 1.435 . S
C2497 C174 1.487 . S
C2529 C188 1.464 . S
C2537 C502 1.462 . S
C2561 C203 1.450 . S
C2569 C512 1.463 . S
C2601 C530 1.452 . S
C2593 C202 1.441 . S
C2633 C556 1.437 . S
C2625 C175 1.485 . S
C2657 C189 1.488 . S
C2665 C566 1.464 . S
C2689 C216 1.462 . S
C2697 C574 1.453 . S
C2721 C230 1.480 . S
C2729 C538 1.439 . S
C2761 C548 1.466 . S
C2753 C245 1.503 . S
C2793 C494 1.444 1_655 S
C2785 C244 1.473 . S
C2825 C520 1.465 . S
C2817 C217 1.475 . S
C2849 C231 1.458 . S
C2857 C476 1.504 1_545 S
