# Generated by pormake.
# Topology anh, (6,3)-cn, num edge types: 1
# Building blocks:
#     Node 0, Type 0, BuildingBlock: BETDEL_clean_sbu_0, # of connection points: 6
#     Node 1, Type 0, BuildingBlock: BETDEL_clean_sbu_0, # of connection points: 6
#     Node 2, Type 0, BuildingBlock: BETDEL_clean_sbu_0, # of connection points: 6
#     Node 3, Type 1, BuildingBlock: QEWDON_clean_linker_0, # of connection points: 3
#     Node 4, Type 1, BuildingBlock: QEWDON_clean_linker_0, # of connection points: 3
#     Node 5, Type 1, BuildingBlock: QEWDON_clean_linker_0, # of connection points: 3
#     Node 6, Type 1, BuildingBlock: QEWDON_clean_linker_0, # of connection points: 3
#     Node 7, Type 1, BuildingBlock: QEWDON_clean_linker_0, # of connection points: 3
#     Node 8, Type 1, BuildingBlock: QEWDON_clean_linker_0, # of connection points: 3
#     Edge 9, Type (0, 1), BuildingBlock: XIVTED_clean_linker_0, # of connection points: 2
#     Edge 10, Type (0, 1), BuildingBlock: XIVTED_clean_linker_0, # of connection points: 2
#     Edge 11, Type (0, 1), BuildingBlock: XIVTED_clean_linker_0, # of connection points: 2
#     Edge 12, Type (0, 1), BuildingBlock: XIVTED_clean_linker_0, # of connection points: 2
#     Edge 13, Type (0, 1), BuildingBlock: XIVTED_clean_linker_0, # of connection points: 2
#     Edge 14, Type (0, 1), BuildingBlock: XIVTED_clean_linker_0, # of connection points: 2
#     Edge 15, Type (0, 1), BuildingBlock: XIVTED_clean_linker_0, # of connection points: 2
#     Edge 16, Type (0, 1), BuildingBlock: XIVTED_clean_linker_0, # of connection points: 2
#     Edge 17, Type (0, 1), BuildingBlock: XIVTED_clean_linker_0, # of connection points: 2
#     Edge 18, Type (0, 1), BuildingBlock: XIVTED_clean_linker_0, # of connection points: 2
#     Edge 19, Type (0, 1), BuildingBlock: XIVTED_clean_linker_0, # of connection points: 2
#     Edge 20, Type (0, 1), BuildingBlock: XIVTED_clean_linker_0, # of connection points: 2
#     Edge 21, Type (0, 1), BuildingBlock: XIVTED_clean_linker_0, # of connection points: 2
#     Edge 22, Type (0, 1), BuildingBlock: XIVTED_clean_linker_0, # of connection points: 2
#     Edge 23, Type (0, 1), BuildingBlock: XIVTED_clean_linker_0, # of connection points: 2
#     Edge 24, Type (0, 1), BuildingBlock: XIVTED_clean_linker_0, # of connection points: 2
#     Edge 25, Type (0, 1), BuildingBlock: XIVTED_clean_linker_0, # of connection points: 2
#     Edge 26, Type (0, 1), BuildingBlock: XIVTED_clean_linker_0, # of connection points: 2
# Relax obj value: 0.094
# Max RMSD: 0.136
# Mean RMSD: 0.126
data_MOF--net-anh--node1-BETDEL_clean_sbu_0--node2-QEWDON_clean_linker_0--edge1-XIVTED_clean_linker_0
_symmetry_space_group_name_H-M    P1
_symmetry_Int_Tables_number       1
_symmetry_cell_setting            triclinic
loop_
_symmetry_equiv_pos_as_xyz
'x, y, z'
_cell_length_a     31.651139
_cell_length_b     31.57484
_cell_length_c     46.909737
_cell_angle_alpha  93.617391
_cell_angle_beta   93.986925
_cell_angle_gamma 120.2216
loop_
_atom_site_label
_atom_site_type_symbol
_atom_site_fract_x
_atom_site_fract_y
_atom_site_fract_z
_atom_type_partial_charge
Dy0 Dy 0.05508 0.46385 0.16007 0.0
C1 C 0.94646 0.56496 0.18133 0.0
C2 C 0.11604 0.42961 0.14763 0.0
Dy3 Dy 0.99507 0.51988 0.16313 0.0
O4 O 0.10131 0.43141 0.17257 0.0
O5 O 0.09671 0.44593 0.12915 0.0
O6 O 0.03596 0.44234 0.20432 0.0
O7 O 0.04372 0.50863 0.19237 0.0
C8 C 0.03143 0.48011 0.21168 0.0
C9 C 0.99855 0.49221 0.10812 0.0
O10 O 0.07291 0.58413 0.17082 0.0
O11 O 0.1157 0.54357 0.16056 0.0
O12 O 0.97994 0.58187 0.16382 0.0
O13 O 0.93979 0.5234 0.18915 0.0
O14 O 0.97513 0.51459 0.11501 0.0
O15 O 1.01639 0.48565 0.13091 0.0
O16 O 0.97726 0.40062 0.14898 0.0
O17 O 0.93876 0.44089 0.16793 0.0
C18 C 0.11428 0.58469 0.1664 0.0
C19 C 0.93797 0.39997 0.15804 0.0
Dy20 Dy 0.51976 0.04456 0.49296 0.0
C21 C 0.72532 0.16351 0.52189 0.0
C22 C 0.42252 0.98168 0.4739 0.0
Dy23 Dy 0.62813 0.09664 0.50418 0.0
O24 O 0.4395 1.00717 0.49897 0.0
O25 O 0.45866 0.99108 0.45895 0.0
O26 O 0.51696 0.07505 0.53655 0.0
O27 O 0.57042 0.05532 0.53097 0.0
C28 C 0.55452 0.07416 0.54864 0.0
C29 C 0.59338 0.06742 0.44837 0.0
O30 O 0.61465 0.02187 0.51292 0.0
O31 O 0.53544 0.98184 0.48946 0.0
O32 O 0.70826 0.13465 0.4979 0.0
O33 O 0.68921 0.15416 0.53687 0.0
O34 O 0.63173 0.06769 0.46025 0.0
O35 O 0.57727 0.08569 0.46627 0.0
O36 O 0.53297 0.11951 0.48541 0.0
O37 O 0.6126 0.15944 0.50798 0.0
C38 C 0.57439 0.98081 0.50108 0.0
C39 C 0.57335 0.16053 0.49705 0.0
Dy40 Dy 0.62603 0.61284 0.82891 0.0
C41 C 0.52777 0.40588 0.85056 0.0
C42 C 0.6669 0.69942 0.80539 0.0
Dy43 Dy 0.56374 0.4994 0.83629 0.0
O44 O 0.68737 0.69017 0.82724 0.0
O45 O 0.62422 0.66079 0.79605 0.0
O46 O 0.63761 0.64363 0.87552 0.0
O47 O 0.59874 0.56826 0.86333 0.0
C48 C 0.6135 0.6005 0.88455 0.0
C49 C 0.56542 0.52454 0.78259 0.0
O50 O 0.50973 0.52242 0.84692 0.0
O51 O 0.54667 0.59555 0.82548 0.0
O52 O 0.51453 0.41747 0.8269 0.0
O53 O 0.56004 0.44572 0.86688 0.0
O54 O 0.52761 0.48737 0.79117 0.0
O55 O 0.60094 0.54381 0.80226 0.0
O56 O 0.68592 0.59381 0.8285 0.0
O57 O 0.64097 0.51208 0.83858 0.0
C58 C 0.50871 0.56046 0.83697 0.0
C59 C 0.68311 0.55176 0.8343 0.0
H60 H 0.54818 0.04475 0.22151 0.0
C61 C 0.51636 1.00857 0.21487 0.0
C62 C 0.48795 0.98186 0.23608 0.0
C63 C 0.50293 0.98971 0.18551 0.0
H64 H 0.42274 0.91575 0.24424 0.0
C65 C 0.44462 0.93638 0.22787 0.0
C66 C 0.42998 0.91623 0.19897 0.0
C67 C 0.46 0.94234 0.17803 0.0
C68 C 0.53211 0.02024 0.16277 0.0
H69 H 0.44902 0.92573 0.15592 0.0
C70 C 0.58262 0.05809 0.16876 0.0
C71 C 0.60849 0.08695 0.14716 0.0
C72 C 0.50867 1.0129 0.1347 0.0
H73 H 0.4699 0.98648 0.12907 0.0
C74 C 0.53438 0.0406 0.11331 0.0
H75 H 0.60236 0.06498 0.18988 0.0
C76 C 0.58375 0.07714 0.11939 0.0
H77 H 0.60231 0.09882 0.10245 0.0
H78 H 0.51559 0.03426 0.09193 0.0
H79 H 0.55964 0.58917 0.56158 0.0
C80 C 0.5662 0.56053 0.55308 0.0
C81 C 0.58044 0.53638 0.57228 0.0
C82 C 0.5581 0.54636 0.52326 0.0
H83 H 0.5966 0.47843 0.5766 0.0
C84 C 0.58731 0.49804 0.56157 0.0
C85 C 0.57864 0.48216 0.532 0.0
C86 C 0.56419 0.50668 0.51292 0.0
C87 C 0.53843 0.56959 0.50344 0.0
H88 H 0.55768 0.49474 0.49008 0.0
C89 C 0.55415 0.62073 0.50746 0.0
C90 C 0.53276 0.64095 0.48925 0.0
C91 C 0.50109 0.53937 0.48106 0.0
H92 H 0.48712 0.50009 0.47772 0.0
C93 C 0.47966 0.55884 0.46334 0.0
H94 H 0.5833 0.64468 0.52436 0.0
C95 C 0.49493 0.60877 0.46743 0.0
H96 H 0.47614 0.62187 0.45364 0.0
H97 H 0.45038 0.53483 0.44651 0.0
H98 H 0.11544 0.54447 0.89901 0.0
C99 C 0.08204 0.54172 0.88924 0.0
C100 C 0.04035 0.52213 0.90429 0.0
C101 C 0.08106 0.55888 0.86223 0.0
H102 H 0.9665 0.50836 0.90477 0.0
C103 C 0.99757 0.52068 0.89245 0.0
C104 C 0.99497 0.53747 0.86582 0.0
C105 C 0.03656 0.55574 0.85063 0.0
C106 C 0.12701 0.58315 0.84714 0.0
H107 H 0.03373 0.56722 0.82969 0.0
C108 C 0.16554 0.57208 0.85087 0.0
C109 C 0.20924 0.59796 0.83747 0.0
C110 C 0.13359 0.6201 0.82952 0.0
H111 H 0.10697 0.63183 0.82686 0.0
C112 C 0.17538 0.64393 0.81546 0.0
H113 H 0.16219 0.54426 0.86438 0.0
C114 C 0.21264 0.633 0.81926 0.0
H115 H 0.2446 0.65249 0.80794 0.0
H116 H 0.17929 0.67179 0.80179 0.0
H117 H 0.97343 0.54465 0.43041 0.0
C118 C 1.00646 0.58083 0.43359 0.0
C119 C 0.02971 0.60249 0.40969 0.0
C120 C 0.02488 0.60659 0.46139 0.0
H121 H 0.08994 0.66611 0.39528 0.0
C122 C 0.07198 0.64958 0.41378 0.0
C123 C 0.09197 0.67506 0.44136 0.0
C124 C 0.06787 0.65351 0.46506 0.0
C125 C 0.99896 0.58518 0.48661 0.0
H126 H 0.08331 0.6726 0.48652 0.0
C127 C 0.98074 0.53522 0.49023 0.0
C128 C 0.95466 0.5145 0.51367 0.0
C129 C 0.99175 0.61474 0.50705 0.0
H130 H 1.00491 0.65318 0.50469 0.0
C131 C 0.96641 0.59473 0.5304 0.0
H132 H 0.98751 0.51278 0.47493 0.0
C133 C 0.9477 0.54502 0.53365 0.0
H134 H 0.92677 0.5304 0.5515 0.0
H135 H 0.96055 0.61769 0.54584 0.0
H136 H 0.59627 0.03184 0.76841 0.0
C137 C 0.58729 0.05705 0.77919 0.0
C138 C 0.57542 0.0861 0.76264 0.0
C139 C 0.58789 0.06071 0.8094 0.0
H140 H 0.55066 0.13858 0.76407 0.0
C141 C 0.56146 0.11711 0.77653 0.0
C142 C 0.56207 0.12152 0.80648 0.0
C143 C 0.57646 0.0943 0.82276 0.0
C144 C 0.59992 0.02949 0.82709 0.0
H145 H 0.57834 0.09938 0.84593 0.0
C146 C 0.63039 1.01194 0.81782 0.0
C147 C 0.63994 0.98113 0.83401 0.0
C148 C 0.57992 1.01589 0.85327 0.0
H149 H 0.55467 0.02646 0.86083 0.0
C150 C 0.59117 0.98712 0.86996 0.0
H151 H 0.64682 0.02177 0.79802 0.0
C152 C 0.62093 0.96973 0.86044 0.0
H153 H 0.62727 0.94554 0.87314 0.0
H154 H 0.57558 0.97707 0.88999 0.0
H155 H 0.54128 0.58814 0.10328 0.0
C156 C 0.57538 0.5924 0.11319 0.0
C157 C 0.60964 0.5924 0.09571 0.0
C158 C 0.58486 0.5975 0.14334 0.0
H159 H 0.68067 0.59879 0.0952 0.0
C160 C 0.654 0.59855 0.1086 0.0
C161 C 0.66414 0.60427 0.13863 0.0
C162 C 0.62934 0.60332 0.15583 0.0
C163 C 0.54799 0.59528 0.16196 0.0
H164 H 0.63683 0.60675 0.17902 0.0
C165 C 0.49781 0.56011 0.15462 0.0
C166 C 0.46305 0.55613 0.17291 0.0
C167 C 0.56293 0.62701 0.18773 0.0
H168 H 0.60125 0.65497 0.19376 0.0
C169 C 0.52847 0.62312 0.20598 0.0
H170 H 0.48585 0.53486 0.13507 0.0
C171 C 0.4788 0.58778 0.19872 0.0
H172 H 0.45256 0.58582 0.21301 0.0
H173 H 0.54028 0.6477 0.22576 0.0
H174 H 0.1705 0.45195 0.10226 0.0
H175 H 0.39735 0.49223 0.20617 0.0
H176 H 0.15941 0.39644 0.18476 0.0
H177 H 0.40873 0.53835 0.12104 0.0
H178 H 0.30817 0.44145 0.19437 0.0
H179 H 0.25418 0.46637 0.10356 0.0
C180 C 0.18517 0.44137 0.12022 0.0
C181 C 0.15873 0.42411 0.14376 0.0
C182 C 0.33012 0.46202 0.17806 0.0
C183 C 0.25432 0.44139 0.14574 0.0
C184 C 0.38097 0.49122 0.18489 0.0
C185 C 0.41013 0.52016 0.16473 0.0
C186 C 0.30823 0.4625 0.15106 0.0
C187 C 0.38737 0.51677 0.13725 0.0
C188 C 0.23303 0.44987 0.12106 0.0
C189 C 0.17912 0.41073 0.16643 0.0
N190 N 0.3376 0.48919 0.13137 0.0
N191 N 0.22615 0.42063 0.16715 0.0
H192 H 0.76348 0.23474 0.56802 0.0
H193 H 0.91632 0.43681 0.47074 0.0
H194 H 0.79478 0.19864 0.48488 0.0
H195 H 0.94214 0.46896 0.56336 0.0
H196 H 0.87369 0.34921 0.476 0.0
H197 H 0.83109 0.31993 0.56836 0.0
C198 C 0.7855 0.24443 0.55024 0.0
C199 C 0.77326 0.2099 0.52624 0.0
C200 C 0.88931 0.37548 0.49518 0.0
C201 C 0.84938 0.30713 0.5261 0.0
C202 C 0.91396 0.42575 0.49222 0.0
C203 C 0.93266 0.46086 0.51663 0.0
C204 C 0.88224 0.35987 0.52271 0.0
C205 C 0.92723 0.44354 0.54386 0.0
C206 C 0.82393 0.29304 0.55038 0.0
C207 C 0.8028 0.22429 0.50371 0.0
N208 N 0.90181 0.39431 0.54616 0.0
N209 N 0.8388 0.27212 0.50389 0.0
H210 H 0.62358 0.72686 0.76392 0.0
H211 H 0.7144 0.97212 0.8605 0.0
H212 H 0.745 0.78586 0.83132 0.0
H213 H 0.62008 0.93154 0.7806 0.0
H214 H 0.73936 0.91366 0.84457 0.0
H215 H 0.63479 0.80912 0.7628 0.0
C216 C 0.65354 0.75748 0.77789 0.0
C217 C 0.68258 0.74955 0.79827 0.0
C218 C 0.71416 0.91835 0.83015 0.0
C219 C 0.69489 0.84326 0.79767 0.0
C220 C 0.69987 0.95164 0.83931 0.0
C221 C 0.66451 0.95586 0.82205 0.0
C222 C 0.69194 0.88824 0.80386 0.0
C223 C 0.64722 0.92908 0.79463 0.0
C224 C 0.65991 0.80447 0.77732 0.0
C225 C 0.72119 0.79038 0.81567 0.0
N226 N 0.66018 0.89546 0.78665 0.0
N227 N 0.72544 0.83534 0.81552 0.0
H228 H 0.86633 0.52651 0.211 0.0
H229 H 0.75737 0.66554 0.12591 0.0
H230 H 0.95077 0.64577 0.16128 0.0
H231 H 0.67619 0.55557 0.1817 0.0
H232 H 0.8326 0.66816 0.14486 0.0
H233 H 0.80123 0.54685 0.20796 0.0
C234 C 0.8716 0.55771 0.20003 0.0
C235 C 0.9133 0.58392 0.18585 0.0
C236 C 0.7985 0.64391 0.15328 0.0
C237 C 0.83901 0.60679 0.1818 0.0
C238 C 0.75556 0.64218 0.1423 0.0
C239 C 0.71056 0.60976 0.15196 0.0
C240 C 0.79623 0.61244 0.17377 0.0
C241 C 0.71022 0.58099 0.17364 0.0
C242 C 0.83441 0.56922 0.19819 0.0
C243 C 0.9187 0.6242 0.17212 0.0
N244 N 0.75233 0.58247 0.18353 0.0
N245 N 0.88149 0.63386 0.16996 0.0
H246 H 0.38454 0.91497 0.42588 0.0
H247 H 0.11778 0.75799 0.47818 0.0
H248 H 0.3442 0.95797 0.50382 0.0
H249 H 0.17338 0.7021 0.41334 0.0
H250 H 0.19605 0.83659 0.48404 0.0
H251 H 0.30157 0.84256 0.41621 0.0
C252 C 0.35793 0.90947 0.44072 0.0
C253 C 0.3711 0.9421 0.46575 0.0
C254 C 0.19087 0.80711 0.46844 0.0
C255 C 0.27657 0.85941 0.45506 0.0
C256 C 0.14638 0.76215 0.46522 0.0
C257 C 0.13886 0.72332 0.44519 0.0
C258 C 0.22799 0.81331 0.45143 0.0
C259 C 0.17703 0.73116 0.42868 0.0
C260 C 0.31073 0.86806 0.43531 0.0
C261 C 0.3354 0.93341 0.48433 0.0
N262 N 0.21985 0.77517 0.43218 0.0
N263 N 0.28975 0.89266 0.47871 0.0
H264 H 0.56946 0.37781 0.8928 0.0
H265 H 0.61107 0.18894 0.85394 0.0
H266 H 0.46644 0.32127 0.81569 0.0
H267 H 0.48318 0.13204 0.79135 0.0
H268 H 0.59407 0.25106 0.87365 0.0
H269 H 0.5701 0.30078 0.89061 0.0
C270 C 0.54631 0.3487 0.87568 0.0
C271 C 0.51876 0.35616 0.85401 0.0
C272 C 0.56874 0.2245 0.85613 0.0
C273 C 0.52098 0.26881 0.85039 0.0
C274 C 0.57871 0.18895 0.84477 0.0
C275 C 0.54889 0.1558 0.82073 0.0
C276 C 0.52849 0.2268 0.84333 0.0
C277 C 0.50771 0.15764 0.80952 0.0
C278 C 0.54727 0.30486 0.8741 0.0
C279 C 0.48891 0.31725 0.83254 0.0
N280 N 0.49908 0.1929 0.82071 0.0
N281 N 0.49148 0.27559 0.83099 0.0
H282 H 0.5196 0.90002 0.46179 0.0
H283 H 0.56258 0.70676 0.53913 0.0
H284 H 0.62367 0.95075 0.53823 0.0
H285 H 0.53839 0.69923 0.44676 0.0
H286 H 0.57727 0.7915 0.54303 0.0
H287 H 0.51513 0.82031 0.45982 0.0
C288 C 0.54145 0.89438 0.47826 0.0
C289 C 0.57217 0.93236 0.50017 0.0
C290 C 0.56897 0.77112 0.52197 0.0
C291 C 0.56661 0.84031 0.49823 0.0
C292 C 0.56081 0.72277 0.51966 0.0
C293 C 0.54803 0.69478 0.49257 0.0
C294 C 0.56359 0.79139 0.49707 0.0
C295 C 0.54626 0.71809 0.46822 0.0
C296 C 0.53904 0.84885 0.47703 0.0
C297 C 0.59975 0.92267 0.52084 0.0
N298 N 0.55308 0.76432 0.47109 0.0
N299 N 0.59596 0.87743 0.51957 0.0
H300 H 0.69283 0.47242 0.84551 0.0
H301 H 0.98645 0.61184 0.84291 0.0
H302 H 0.77827 0.62312 0.82682 0.0
H303 H 0.89861 0.4642 0.8656 0.0
H304 H 0.91083 0.61504 0.83272 0.0
H305 H 0.76751 0.46763 0.84943 0.0
C306 C 0.72721 0.5046 0.84212 0.0
C307 C 0.72882 0.54835 0.83589 0.0
C308 C 0.90809 0.5818 0.83971 0.0
C309 C 0.8155 0.54298 0.84042 0.0
C310 C 0.95128 0.57978 0.84528 0.0
C311 C 0.94916 0.53778 0.85533 0.0
C312 C 0.86223 0.54143 0.84406 0.0
C313 C 0.90234 0.49762 0.85827 0.0
C314 C 0.77007 0.50178 0.84438 0.0
C315 C 0.77492 0.5886 0.83173 0.0
N316 N 0.8611 0.50056 0.85285 0.0
N317 N 0.81627 0.58499 0.83414 0.0
H318 H 0.20595 0.60568 0.15267 0.0
H319 H 0.34025 0.89059 0.21602 0.0
H320 H 0.13001 0.67563 0.18665 0.0
H321 H 0.41148 0.83265 0.16471 0.0
H322 H 0.2639 0.81078 0.20676 0.0
H323 H 0.28223 0.68648 0.15828 0.0
C324 C 0.20516 0.63788 0.1613 0.0
C325 C 0.16116 0.63348 0.16924 0.0
C326 C 0.29603 0.81537 0.19735 0.0
C327 C 0.24876 0.72633 0.17581 0.0
C328 C 0.33976 0.861 0.2027 0.0
C329 C 0.38251 0.86839 0.19123 0.0
C330 C 0.2947 0.77611 0.18062 0.0
C331 C 0.3794 0.82871 0.17387 0.0
C332 C 0.24879 0.68408 0.1644 0.0
C333 C 0.16272 0.67683 0.18018 0.0
N334 N 0.33644 0.78418 0.16931 0.0
N335 N 0.20563 0.7211 0.18326 0.0
H336 H 0.50186 0.1805 0.47646 0.0
H337 H 0.65169 0.46262 0.54744 0.0
H338 H 0.64859 0.25136 0.52151 0.0
H339 H 0.51236 0.40001 0.49464 0.0
H340 H 0.65162 0.38587 0.53658 0.0
H341 H 0.50494 0.25995 0.48154 0.0
C342 C 0.53482 0.21267 0.48728 0.0
C343 C 0.57497 0.20885 0.49861 0.0
C344 C 0.62117 0.38885 0.52711 0.0
C345 C 0.57864 0.30026 0.50462 0.0
C346 C 0.62122 0.43282 0.53331 0.0
C347 C 0.58191 0.43793 0.52203 0.0
C348 C 0.58124 0.34897 0.50965 0.0
C349 C 0.54362 0.39797 0.50367 0.0
C350 C 0.53655 0.25813 0.49016 0.0
C351 C 0.61663 0.25211 0.51242 0.0
N352 N 0.54398 0.3551 0.4983 0.0
N353 N 0.61722 0.29564 0.51512 0.0
H354 H 0.41631 0.48897 0.84818 0.0
H355 H 0.30671 0.6692 0.84688 0.0
H356 H 0.49751 0.64029 0.83007 0.0
H357 H 0.21188 0.51109 0.83906 0.0
H358 H 0.37813 0.65915 0.84779 0.0
H359 H 0.34289 0.49625 0.85093 0.0
C360 C 0.41889 0.52379 0.84485 0.0
C361 C 0.46352 0.56409 0.83882 0.0
C362 C 0.34182 0.62651 0.84593 0.0
C363 C 0.3793 0.57269 0.84227 0.0
C364 C 0.30077 0.63217 0.84541 0.0
C365 C 0.25272 0.5909 0.84231 0.0
C366 C 0.33557 0.57912 0.84368 0.0
C367 C 0.24799 0.54402 0.84139 0.0
C368 C 0.37679 0.5278 0.84637 0.0
C369 C 0.46418 0.6081 0.83464 0.0
N370 N 0.28881 0.53938 0.84188 0.0
N371 N 0.42301 0.61121 0.83657 0.0
H372 H 0.91172 0.30919 0.12999 0.0
H373 H 0.649 0.16413 0.19042 0.0
H374 H 0.85767 0.38021 0.18607 0.0
H375 H 0.68593 0.1065 0.11662 0.0
H376 H 0.73085 0.23916 0.19482 0.0
H377 H 0.83429 0.23085 0.12995 0.0
C378 C 0.88374 0.30839 0.14237 0.0
C379 C 0.89136 0.35169 0.15789 0.0
C380 C 0.7212 0.20987 0.17783 0.0
C381 C 0.80254 0.26165 0.15821 0.0
C382 C 0.67467 0.16682 0.17551 0.0
C383 C 0.6605 0.12896 0.1531 0.0
C384 C 0.75414 0.21494 0.1578 0.0
C385 C 0.69516 0.13485 0.13413 0.0
C386 C 0.83946 0.26359 0.14231 0.0
C387 C 0.8535 0.34806 0.17355 0.0
N388 N 0.74014 0.1769 0.13687 0.0
N389 N 0.81097 0.30401 0.17335 0.0
H390 H 0.93004 0.45434 0.06185 0.0
H391 H 0.11408 0.56676 0.94993 0.0
H392 H 0.08375 0.50884 0.08723 0.0
H393 H 0.96825 0.44106 0.92531 0.0
H394 H 0.10686 0.54797 -2e-05 0.0
H395 H 0.94407 0.45074 0.0114 0.0
C396 C 0.96659 0.46454 0.05668 0.0
C397 C 1.00571 0.48146 0.0785 0.0
C398 C 0.07695 0.52399 0.98345 0.0
C399 C 1.02256 0.47935 0.02094 0.0
C400 C 0.08107 0.53457 0.95486 0.0
C401 C 0.04127 0.50606 0.93343 0.0
C402 C 0.03253 0.48519 0.99059 0.0
C403 C 0.99931 0.46493 0.94122 0.0
C404 C 0.97463 0.46252 0.02794 0.0
C405 C 0.05259 0.49495 0.07084 0.0
N406 N 0.99563 0.45637 0.96919 0.0
N407 N 0.06005 0.49469 0.04255 0.0
H408 H 0.63955 0.049 0.40684 0.0
H409 H 0.43282 0.98636 0.27757 0.0
H410 H 0.51287 0.06273 0.41873 0.0
H411 H 0.57949 0.0188 0.26518 0.0
H412 H 0.45868 1.00996 0.32939 0.0
H413 H 0.61517 0.03267 0.355 0.0
C414 C 0.60652 0.04855 0.3985 0.0
C415 C 0.57815 0.05723 0.41706 0.0
C416 C 0.48528 1.01231 0.31529 0.0
C417 C 0.54984 0.03828 0.35767 0.0
C418 C 0.47053 0.99872 0.28577 0.0
C419 C 0.50406 1.00048 0.26708 0.0
C420 C 0.53369 0.02706 0.32626 0.0
C421 C 0.55257 0.01718 0.27878 0.0
C422 C 0.59274 0.03943 0.36888 0.0
C423 C 0.53573 0.05622 0.4051 0.0
N424 N 0.56578 0.02934 0.30763 0.0
N425 N 0.52264 0.0466 0.37611 0.0
H426 H 0.4901 0.49606 0.74025 0.0
H427 H 0.65564 0.557 0.61361 0.0
H428 H 0.64857 0.57838 0.75672 0.0
H429 H 0.51061 0.53822 0.60242 0.0
H430 H 0.65425 0.563 0.66592 0.0
H431 H 0.49623 0.50857 0.68936 0.0
C432 C 0.52617 0.51711 0.73313 0.0
C433 C 0.56889 0.53594 0.75255 0.0
C434 C 0.62309 0.55838 0.65202 0.0
C435 C 0.57624 0.54978 0.69446 0.0
C436 C 0.62385 0.55488 0.62225 0.0
C437 C 0.5832 0.54716 0.60378 0.0
C438 C 0.58089 0.55292 0.66332 0.0
C439 C 0.54282 0.54455 0.61597 0.0
C440 C 0.52966 0.52439 0.70415 0.0
C441 C 0.61476 0.56315 0.74234 0.0
N442 N 0.54235 0.54665 0.64498 0.0
N443 N 0.61728 0.56864 0.71385 0.0
H444 H 0.54725 0.13701 0.58704 0.0
H445 H 0.55313 1.00699 0.72285 0.0
H446 H 0.58687 0.02483 0.58132 0.0
H447 H 0.605 0.16317 0.72986 0.0
H448 H 0.5561 1.00704 0.67082 0.0
H449 H 0.55839 0.14202 0.6396 0.0
C450 C 0.55874 0.11378 0.59696 0.0
C451 C 0.56629 0.08058 0.58004 0.0
C452 C 0.56707 0.04122 0.68393 0.0
C453 C 0.57777 0.08512 0.63983 0.0
C454 C 0.56555 0.04137 0.71366 0.0
C455 C 0.57825 0.08506 0.73099 0.0
C456 C 0.58041 0.08476 0.67138 0.0
C457 C 0.59336 0.12821 0.7175 0.0
C458 C 0.56514 0.11669 0.62684 0.0
C459 C 0.58104 0.05112 0.59377 0.0
N460 N 0.59337 0.12681 0.68852 0.0
N461 N 0.58555 0.05347 0.62299 0.0
H462 H 0.58924 0.51772 0.91154 0.0
H463 H 0.57957 0.64288 0.06287 0.0
H464 H 0.61568 0.66579 0.92546 0.0
H465 H 0.61805 0.52985 0.05656 0.0
H466 H 0.57163 0.63911 0.0103 0.0
H467 H 0.57967 0.50977 0.96297 0.0
C468 C 0.59236 0.54817 0.92535 0.0
C469 C 0.60357 0.59254 0.91449 0.0
C470 C 0.58137 0.61483 0.02045 0.0
C471 C 0.5922 0.58368 0.97267 0.0
C472 C 0.58563 0.61679 0.05036 0.0
C473 C 0.59994 0.58698 0.06397 0.0
C474 C 0.59092 0.58242 0.00406 0.0
C475 C 0.60761 0.55392 0.04681 0.0
C476 C 0.58712 0.54375 0.95458 0.0
C477 C 0.60749 0.63112 0.93314 0.0
N478 N 0.60314 0.55259 0.01768 0.0
N479 N 0.60177 0.62581 0.96132 0.0
H480 H 1.00962 0.42522 0.25706 0.0
H481 H 1.01109 0.63623 0.36118 0.0
H482 H 0.02456 0.55973 0.23008 0.0
H483 H 1.01014 0.50965 0.39137 0.0
H484 H 0.99972 0.60019 0.31165 0.0
H485 H 0.9953 0.44777 0.30491 0.0
C486 C 1.0094 0.45924 0.26116 0.0
C487 C 1.01872 0.49093 0.23977 0.0
C488 C 1.00128 0.57985 0.32904 0.0
C489 C 1.00228 0.51685 0.29421 0.0
C490 C 1.0076 0.60035 0.35728 0.0
C491 C 1.01215 0.57608 0.38028 0.0
C492 C 1.00001 0.53493 0.32371 0.0
C493 C 1.00686 0.52949 0.37417 0.0
C494 C 1.00117 0.47206 0.28842 0.0
C495 C 1.01776 0.53439 0.24605 0.0
N496 N 1.00184 0.51071 0.3464 0.0
N497 N 1.01006 0.54623 0.27275 0.0
loop_
_geom_bond_atom_site_label_1
_geom_bond_atom_site_label_2
_geom_bond_distance
_geom_bond_site_symmetry_2
_ccdc_geom_bond_type
Dy0 O4 2.398 . S
Dy0 O5 2.491 . S
Dy0 O6 2.403 . S
Dy0 O7 2.664 . S
Dy0 O11 2.326 . S
Dy0 O15 2.310 . S
Dy0 O16 2.351 1_455 S
C1 O12 1.185 . S
C1 O13 1.355 . S
C2 O4 1.185 . S
C2 O5 1.355 . S
Dy3 O7 2.320 . S
Dy3 O10 2.367 . S
Dy3 O12 2.379 1_455 S
Dy3 O13 2.475 1_455 S
Dy3 O14 2.408 . S
Dy3 O15 2.681 . S
Dy3 O17 2.325 1_455 S
O4 Dy0 2.398 . S
O4 C2 1.185 . S
O5 Dy0 2.491 . S
O5 C2 1.355 . S
O6 Dy0 2.403 . S
O6 C8 1.254 . S
O7 Dy0 2.664 . S
O7 Dy3 2.320 . S
O7 C8 1.268 . S
C8 O6 1.254 . S
C8 O7 1.268 . S
C9 O14 1.254 . S
C9 O15 1.268 . S
O10 Dy3 2.367 . S
O10 C18 1.249 . S
O11 Dy0 2.326 . S
O11 C18 1.267 . S
O12 C1 1.185 . S
O12 Dy3 2.379 1_655 S
O13 C1 1.355 . S
O13 Dy3 2.475 1_655 S
O14 Dy3 2.408 . S
O14 C9 1.254 . S
O15 Dy0 2.310 . S
O15 Dy3 2.681 . S
O15 C9 1.268 . S
O16 Dy0 2.351 1_655 S
O16 C19 1.249 . S
O17 Dy3 2.325 1_655 S
O17 C19 1.267 . S
C18 O10 1.249 . S
C18 O11 1.267 . S
C19 O16 1.249 . S
C19 O17 1.267 . S
Dy20 O24 2.384 1_545 S
Dy20 O25 2.475 1_545 S
Dy20 O26 2.401 . S
Dy20 O27 2.666 . S
Dy20 O31 2.304 1_545 S
Dy20 O35 2.308 . S
Dy20 O36 2.374 . S
C21 O32 1.185 . S
C21 O33 1.355 . S
C22 O24 1.185 . S
C22 O25 1.355 . S
Dy23 O27 2.310 . S
Dy23 O30 2.351 1_545 S
Dy23 O32 2.398 . S
Dy23 O33 2.491 . S
Dy23 O34 2.403 . S
Dy23 O35 2.664 . S
Dy23 O37 2.326 . S
O24 Dy20 2.384 1_565 S
O24 C22 1.185 . S
O25 Dy20 2.475 1_565 S
O25 C22 1.355 . S
O26 Dy20 2.401 . S
O26 C28 1.254 . S
O27 Dy20 2.666 . S
O27 Dy23 2.310 . S
O27 C28 1.268 . S
C28 O26 1.254 . S
C28 O27 1.268 . S
C29 O34 1.254 . S
C29 O35 1.268 . S
O30 Dy23 2.351 1_565 S
O30 C38 1.249 . S
O31 Dy20 2.304 1_565 S
O31 C38 1.267 . S
O32 C21 1.185 . S
O32 Dy23 2.398 . S
O33 C21 1.355 . S
O33 Dy23 2.491 . S
O34 Dy23 2.403 . S
O34 C29 1.254 . S
O35 Dy20 2.308 . S
O35 Dy23 2.664 . S
O35 C29 1.268 . S
O36 Dy20 2.374 . S
O36 C39 1.249 . S
O37 Dy23 2.326 . S
O37 C39 1.267 . S
C38 O30 1.249 . S
C38 O31 1.267 . S
C39 O36 1.249 . S
C39 O37 1.267 . S
Dy40 O44 2.398 . S
Dy40 O45 2.491 . S
Dy40 O46 2.403 . S
Dy40 O47 2.664 . S
Dy40 O51 2.326 . S
Dy40 O55 2.310 . S
Dy40 O56 2.351 . S
C41 O52 1.185 . S
C41 O53 1.355 . S
C42 O44 1.185 . S
C42 O45 1.355 . S
Dy43 O47 2.310 . S
Dy43 O50 2.351 . S
Dy43 O52 2.398 . S
Dy43 O53 2.491 . S
Dy43 O54 2.403 . S
Dy43 O55 2.664 . S
Dy43 O57 2.326 . S
O44 Dy40 2.398 . S
O44 C42 1.185 . S
O45 Dy40 2.491 . S
O45 C42 1.355 . S
O46 Dy40 2.403 . S
O46 C48 1.254 . S
O47 Dy40 2.664 . S
O47 Dy43 2.310 . S
O47 C48 1.268 . S
C48 O46 1.254 . S
C48 O47 1.268 . S
C49 O54 1.254 . S
C49 O55 1.268 . S
O50 Dy43 2.351 . S
O50 C58 1.249 . S
O51 Dy40 2.326 . S
O51 C58 1.267 . S
O52 C41 1.185 . S
O52 Dy43 2.398 . S
O53 C41 1.355 . S
O53 Dy43 2.491 . S
O54 Dy43 2.403 . S
O54 C49 1.254 . S
O55 Dy40 2.310 . S
O55 Dy43 2.664 . S
O55 C49 1.268 . S
O56 Dy40 2.351 . S
O56 C59 1.249 . S
O57 Dy43 2.326 . S
O57 C59 1.267 . S
C58 O50 1.249 . S
C58 O51 1.267 . S
C59 O56 1.249 . S
C59 O57 1.267 . S
H60 C61 0.949 . S
C61 H60 0.949 . S
C61 C62 1.395 . S
C61 C63 1.391 . S
C62 C61 1.395 . S
C62 C65 1.390 1_545 S
C63 C61 1.391 . S
C63 C67 1.387 1_545 S
C63 C68 1.491 . S
H64 C65 0.950 . S
C65 C62 1.390 1_565 S
C65 H64 0.950 . S
C65 C66 1.378 . S
C66 C65 1.378 . S
C66 C67 1.409 . S
C67 C63 1.387 1_565 S
C67 C66 1.409 . S
C67 H69 0.951 . S
C68 C63 1.491 . S
C68 C70 1.382 . S
C68 C72 1.404 . S
H69 C67 0.951 . S
C70 C68 1.382 . S
C70 C71 1.390 . S
C70 H75 0.949 . S
C71 C70 1.390 . S
C71 C76 1.399 . S
C72 C68 1.404 . S
C72 H73 0.950 . S
C72 C74 1.375 . S
H73 C72 0.950 . S
C74 C72 1.375 . S
C74 C76 1.382 . S
C74 H78 0.950 . S
H75 C70 0.949 . S
C76 C71 1.399 . S
C76 C74 1.382 . S
C76 H77 0.952 . S
H77 C76 0.952 . S
H78 C74 0.950 . S
H79 C80 0.949 . S
C80 H79 0.949 . S
C80 C81 1.395 . S
C80 C82 1.391 . S
C81 C80 1.395 . S
C81 C84 1.390 . S
C82 C80 1.391 . S
C82 C86 1.387 . S
C82 C87 1.491 . S
H83 C84 0.950 . S
C84 C81 1.390 . S
C84 H83 0.950 . S
C84 C85 1.378 . S
C85 C84 1.378 . S
C85 C86 1.409 . S
C86 C82 1.387 . S
C86 C85 1.409 . S
C86 H88 0.951 . S
C87 C82 1.491 . S
C87 C89 1.382 . S
C87 C91 1.404 . S
H88 C86 0.951 . S
C89 C87 1.382 . S
C89 C90 1.390 . S
C89 H94 0.949 . S
C90 C89 1.390 . S
C90 C95 1.399 . S
C91 C87 1.404 . S
C91 H92 0.950 . S
C91 C93 1.375 . S
H92 C91 0.950 . S
C93 C91 1.375 . S
C93 C95 1.382 . S
C93 H97 0.950 . S
H94 C89 0.949 . S
C95 C90 1.399 . S
C95 C93 1.382 . S
C95 H96 0.952 . S
H96 C95 0.952 . S
H97 C93 0.950 . S
H98 C99 0.949 . S
C99 H98 0.949 . S
C99 C100 1.395 . S
C99 C101 1.391 . S
C100 C99 1.395 . S
C100 C103 1.390 . S
C101 C99 1.391 . S
C101 C105 1.387 . S
C101 C106 1.491 . S
H102 C103 0.950 1_655 S
C103 C100 1.390 . S
C103 H102 0.950 1_455 S
C103 C104 1.378 1_455 S
C104 C103 1.378 1_655 S
C104 C105 1.409 1_655 S
C105 C101 1.387 . S
C105 C104 1.409 1_455 S
C105 H107 0.951 . S
C106 C101 1.491 . S
C106 C108 1.382 . S
C106 C110 1.404 . S
H107 C105 0.951 . S
C108 C106 1.382 . S
C108 C109 1.390 . S
C108 H113 0.949 . S
C109 C108 1.390 . S
C109 C114 1.399 . S
C110 C106 1.404 . S
C110 H111 0.950 . S
C110 C112 1.375 . S
H111 C110 0.950 . S
C112 C110 1.375 . S
C112 C114 1.382 . S
C112 H116 0.950 . S
H113 C108 0.949 . S
C114 C109 1.399 . S
C114 C112 1.382 . S
C114 H115 0.952 . S
H115 C114 0.952 . S
H116 C112 0.950 . S
H117 C118 0.949 . S
C118 H117 0.949 . S
C118 C119 1.395 1_655 S
C118 C120 1.391 . S
C119 C118 1.395 1_455 S
C119 C122 1.390 . S
C120 C118 1.391 . S
C120 C124 1.389 1_655 S
C120 C125 1.489 . S
H121 C122 0.950 . S
C122 C119 1.390 . S
C122 H121 0.950 . S
C122 C123 1.378 . S
C123 C122 1.378 . S
C123 C124 1.409 . S
C124 C120 1.389 1_455 S
C124 C123 1.409 . S
C124 H126 0.951 . S
C125 C120 1.489 . S
C125 C127 1.382 . S
C125 C129 1.404 . S
H126 C124 0.951 . S
C127 C125 1.382 . S
C127 C128 1.390 . S
C127 H132 0.949 . S
C128 C127 1.390 . S
C128 C133 1.399 . S
C129 C125 1.404 . S
C129 H130 0.950 . S
C129 C131 1.375 . S
H130 C129 0.950 . S
C131 C129 1.375 . S
C131 C133 1.382 . S
C131 H135 0.950 . S
H132 C127 0.949 . S
C133 C128 1.399 . S
C133 C131 1.382 . S
C133 H134 0.952 . S
H134 C133 0.952 . S
H135 C131 0.950 . S
H136 C137 0.949 1_565 S
C137 H136 0.949 1_545 S
C137 C138 1.395 . S
C137 C139 1.391 . S
C138 C137 1.395 . S
C138 C141 1.390 . S
C139 C137 1.391 . S
C139 C143 1.387 . S
C139 C144 1.491 1_545 S
H140 C141 0.950 . S
C141 C138 1.390 . S
C141 H140 0.950 . S
C141 C142 1.378 . S
C142 C141 1.378 . S
C142 C143 1.409 . S
C143 C139 1.387 . S
C143 C142 1.409 . S
C143 H145 0.951 . S
C144 C139 1.491 1_565 S
C144 C146 1.382 . S
C144 C148 1.404 . S
H145 C143 0.951 . S
C146 C144 1.382 . S
C146 C147 1.390 . S
C146 H151 0.949 . S
C147 C146 1.390 . S
C147 C152 1.399 . S
C148 C144 1.404 . S
C148 H149 0.950 1_565 S
C148 C150 1.375 . S
H149 C148 0.950 1_545 S
C150 C148 1.375 . S
C150 C152 1.382 . S
C150 H154 0.950 . S
H151 C146 0.949 . S
C152 C147 1.399 . S
C152 C150 1.382 . S
C152 H153 0.952 . S
H153 C152 0.952 . S
H154 C150 0.950 . S
H155 C156 0.949 . S
C156 H155 0.949 . S
C156 C157 1.395 . S
C156 C158 1.391 . S
C157 C156 1.395 . S
C157 C160 1.390 . S
C158 C156 1.391 . S
C158 C162 1.387 . S
C158 C163 1.491 . S
H159 C160 0.950 . S
C160 C157 1.390 . S
C160 H159 0.950 . S
C160 C161 1.378 . S
C161 C160 1.378 . S
C161 C162 1.409 . S
C162 C158 1.387 . S
C162 C161 1.409 . S
C162 H164 0.951 . S
C163 C158 1.491 . S
C163 C165 1.382 . S
C163 C167 1.404 . S
H164 C162 0.951 . S
C165 C163 1.382 . S
C165 C166 1.390 . S
C165 H170 0.949 . S
C166 C165 1.390 . S
C166 C171 1.399 . S
C167 C163 1.404 . S
C167 H168 0.950 . S
C167 C169 1.375 . S
H168 C167 0.950 . S
C169 C167 1.375 . S
C169 C171 1.382 . S
C169 H173 0.950 . S
H170 C165 0.949 . S
C171 C166 1.399 . S
C171 C169 1.382 . S
C171 H172 0.952 . S
H172 C171 0.952 . S
H173 C169 0.950 . S
H174 C180 0.930 . S
H175 C184 0.930 . S
H176 C189 0.929 . S
H177 C187 0.929 . S
H178 C182 0.929 . S
H179 C188 0.929 . S
C180 H174 0.930 . S
C180 C181 1.367 . S
C180 C188 1.378 . S
C181 C180 1.367 . S
C181 C189 1.433 . S
C182 H178 0.929 . S
C182 C184 1.378 . S
C182 C186 1.350 . S
C183 C186 1.463 . S
C183 C188 1.350 . S
C183 N191 1.427 . S
C184 H175 0.930 . S
C184 C182 1.378 . S
C184 C185 1.367 . S
C185 C184 1.367 . S
C185 C187 1.433 . S
C186 C182 1.350 . S
C186 C183 1.463 . S
C186 N190 1.427 . S
C187 H177 0.929 . S
C187 C185 1.433 . S
C187 N190 1.384 . S
C188 H179 0.929 . S
C188 C180 1.378 . S
C188 C183 1.350 . S
C189 H176 0.929 . S
C189 C181 1.433 . S
C189 N191 1.384 . S
N190 C186 1.427 . S
N190 C187 1.384 . S
N191 C183 1.427 . S
N191 C189 1.384 . S
H192 C198 0.930 . S
H193 C202 0.930 . S
H194 C207 0.929 . S
H195 C205 0.929 . S
H196 C200 0.929 . S
H197 C206 0.929 . S
C198 H192 0.930 . S
C198 C199 1.367 . S
C198 C206 1.378 . S
C199 C198 1.367 . S
C199 C207 1.433 . S
C200 H196 0.929 . S
C200 C202 1.378 . S
C200 C204 1.350 . S
C201 C204 1.463 . S
C201 C206 1.350 . S
C201 N209 1.427 . S
C202 H193 0.930 . S
C202 C200 1.378 . S
C202 C203 1.367 . S
C203 C202 1.367 . S
C203 C205 1.433 . S
C204 C200 1.350 . S
C204 C201 1.463 . S
C204 N208 1.427 . S
C205 H195 0.929 . S
C205 C203 1.433 . S
C205 N208 1.384 . S
C206 H197 0.929 . S
C206 C198 1.378 . S
C206 C201 1.350 . S
C207 H194 0.929 . S
C207 C199 1.433 . S
C207 N209 1.384 . S
N208 C204 1.427 . S
N208 C205 1.384 . S
N209 C201 1.427 . S
N209 C207 1.384 . S
H210 C216 0.930 . S
H211 C220 0.930 . S
H212 C225 0.929 . S
H213 C223 0.929 . S
H214 C218 0.929 . S
H215 C224 0.929 . S
C216 H210 0.930 . S
C216 C217 1.367 . S
C216 C224 1.378 . S
C217 C216 1.367 . S
C217 C225 1.433 . S
C218 H214 0.929 . S
C218 C220 1.378 . S
C218 C222 1.350 . S
C219 C222 1.463 . S
C219 C224 1.350 . S
C219 N227 1.427 . S
C220 H211 0.930 . S
C220 C218 1.378 . S
C220 C221 1.367 . S
C221 C220 1.367 . S
C221 C223 1.433 . S
C222 C218 1.350 . S
C222 C219 1.463 . S
C222 N226 1.427 . S
C223 H213 0.929 . S
C223 C221 1.433 . S
C223 N226 1.384 . S
C224 H215 0.929 . S
C224 C216 1.378 . S
C224 C219 1.350 . S
C225 H212 0.929 . S
C225 C217 1.433 . S
C225 N227 1.384 . S
N226 C222 1.427 . S
N226 C223 1.384 . S
N227 C219 1.427 . S
N227 C225 1.384 . S
H228 C234 0.930 . S
H229 C238 0.930 . S
H230 C243 0.929 . S
H231 C241 0.929 . S
H232 C236 0.929 . S
H233 C242 0.929 . S
C234 H228 0.930 . S
C234 C235 1.367 . S
C234 C242 1.378 . S
C235 C234 1.367 . S
C235 C243 1.433 . S
C236 H232 0.929 . S
C236 C238 1.378 . S
C236 C240 1.350 . S
C237 C240 1.463 . S
C237 C242 1.350 . S
C237 N245 1.427 . S
C238 H229 0.930 . S
C238 C236 1.378 . S
C238 C239 1.367 . S
C239 C238 1.367 . S
C239 C241 1.433 . S
C240 C236 1.350 . S
C240 C237 1.463 . S
C240 N244 1.427 . S
C241 H231 0.929 . S
C241 C239 1.433 . S
C241 N244 1.384 . S
C242 H233 0.929 . S
C242 C234 1.378 . S
C242 C237 1.350 . S
C243 H230 0.929 . S
C243 C235 1.433 . S
C243 N245 1.384 . S
N244 C240 1.427 . S
N244 C241 1.384 . S
N245 C237 1.427 . S
N245 C243 1.384 . S
H246 C252 0.930 . S
H247 C256 0.930 . S
H248 C261 0.929 . S
H249 C259 0.929 . S
H250 C254 0.929 . S
H251 C260 0.929 . S
C252 H246 0.930 . S
C252 C253 1.367 . S
C252 C260 1.378 . S
C253 C252 1.367 . S
C253 C261 1.433 . S
C254 H250 0.929 . S
C254 C256 1.378 . S
C254 C258 1.350 . S
C255 C258 1.463 . S
C255 C260 1.350 . S
C255 N263 1.427 . S
C256 H247 0.930 . S
C256 C254 1.378 . S
C256 C257 1.367 . S
C257 C256 1.367 . S
C257 C259 1.433 . S
C258 C254 1.350 . S
C258 C255 1.463 . S
C258 N262 1.427 . S
C259 H249 0.929 . S
C259 C257 1.433 . S
C259 N262 1.384 . S
C260 H251 0.929 . S
C260 C252 1.378 . S
C260 C255 1.350 . S
C261 H248 0.929 . S
C261 C253 1.433 . S
C261 N263 1.384 . S
N262 C258 1.427 . S
N262 C259 1.384 . S
N263 C255 1.427 . S
N263 C261 1.384 . S
H264 C270 0.930 . S
H265 C274 0.930 . S
H266 C279 0.929 . S
H267 C277 0.929 . S
H268 C272 0.929 . S
H269 C278 0.929 . S
C270 H264 0.930 . S
C270 C271 1.367 . S
C270 C278 1.378 . S
C271 C270 1.367 . S
C271 C279 1.433 . S
C272 H268 0.929 . S
C272 C274 1.378 . S
C272 C276 1.350 . S
C273 C276 1.463 . S
C273 C278 1.350 . S
C273 N281 1.427 . S
C274 H265 0.930 . S
C274 C272 1.378 . S
C274 C275 1.367 . S
C275 C274 1.367 . S
C275 C277 1.433 . S
C276 C272 1.350 . S
C276 C273 1.463 . S
C276 N280 1.427 . S
C277 H267 0.929 . S
C277 C275 1.433 . S
C277 N280 1.384 . S
C278 H269 0.929 . S
C278 C270 1.378 . S
C278 C273 1.350 . S
C279 H266 0.929 . S
C279 C271 1.433 . S
C279 N281 1.384 . S
N280 C276 1.427 . S
N280 C277 1.384 . S
N281 C273 1.427 . S
N281 C279 1.384 . S
H282 C288 0.930 . S
H283 C292 0.930 . S
H284 C297 0.929 . S
H285 C295 0.929 . S
H286 C290 0.929 . S
H287 C296 0.929 . S
C288 H282 0.930 . S
C288 C289 1.367 . S
C288 C296 1.378 . S
C289 C288 1.367 . S
C289 C297 1.433 . S
C290 H286 0.929 . S
C290 C292 1.378 . S
C290 C294 1.350 . S
C291 C294 1.463 . S
C291 C296 1.350 . S
C291 N299 1.427 . S
C292 H283 0.930 . S
C292 C290 1.378 . S
C292 C293 1.367 . S
C293 C292 1.367 . S
C293 C295 1.433 . S
C294 C290 1.350 . S
C294 C291 1.463 . S
C294 N298 1.427 . S
C295 H285 0.929 . S
C295 C293 1.433 . S
C295 N298 1.384 . S
C296 H287 0.929 . S
C296 C288 1.378 . S
C296 C291 1.350 . S
C297 H284 0.929 . S
C297 C289 1.433 . S
C297 N299 1.384 . S
N298 C294 1.427 . S
N298 C295 1.384 . S
N299 C291 1.427 . S
N299 C297 1.384 . S
H300 C306 0.930 . S
H301 C310 0.930 . S
H302 C315 0.929 . S
H303 C313 0.929 . S
H304 C308 0.929 . S
H305 C314 0.929 . S
C306 H300 0.930 . S
C306 C307 1.367 . S
C306 C314 1.378 . S
C307 C306 1.367 . S
C307 C315 1.433 . S
C308 H304 0.929 . S
C308 C310 1.378 . S
C308 C312 1.350 . S
C309 C312 1.463 . S
C309 C314 1.350 . S
C309 N317 1.427 . S
C310 H301 0.930 . S
C310 C308 1.378 . S
C310 C311 1.367 . S
C311 C310 1.367 . S
C311 C313 1.433 . S
C312 C308 1.350 . S
C312 C309 1.463 . S
C312 N316 1.427 . S
C313 H303 0.929 . S
C313 C311 1.433 . S
C313 N316 1.384 . S
C314 H305 0.929 . S
C314 C306 1.378 . S
C314 C309 1.350 . S
C315 H302 0.929 . S
C315 C307 1.433 . S
C315 N317 1.384 . S
N316 C312 1.427 . S
N316 C313 1.384 . S
N317 C309 1.427 . S
N317 C315 1.384 . S
H318 C324 0.930 . S
H319 C328 0.930 . S
H320 C333 0.929 . S
H321 C331 0.929 . S
H322 C326 0.929 . S
H323 C332 0.929 . S
C324 H318 0.930 . S
C324 C325 1.367 . S
C324 C332 1.378 . S
C325 C324 1.367 . S
C325 C333 1.433 . S
C326 H322 0.929 . S
C326 C328 1.378 . S
C326 C330 1.350 . S
C327 C330 1.463 . S
C327 C332 1.350 . S
C327 N335 1.427 . S
C328 H319 0.930 . S
C328 C326 1.378 . S
C328 C329 1.367 . S
C329 C328 1.367 . S
C329 C331 1.433 . S
C330 C326 1.350 . S
C330 C327 1.463 . S
C330 N334 1.427 . S
C331 H321 0.929 . S
C331 C329 1.433 . S
C331 N334 1.384 . S
C332 H323 0.929 . S
C332 C324 1.378 . S
C332 C327 1.350 . S
C333 H320 0.929 . S
C333 C325 1.433 . S
C333 N335 1.384 . S
N334 C330 1.427 . S
N334 C331 1.384 . S
N335 C327 1.427 . S
N335 C333 1.384 . S
H336 C342 0.930 . S
H337 C346 0.930 . S
H338 C351 0.929 . S
H339 C349 0.929 . S
H340 C344 0.929 . S
H341 C350 0.929 . S
C342 H336 0.930 . S
C342 C343 1.367 . S
C342 C350 1.378 . S
C343 C342 1.367 . S
C343 C351 1.433 . S
C344 H340 0.929 . S
C344 C346 1.378 . S
C344 C348 1.350 . S
C345 C348 1.463 . S
C345 C350 1.350 . S
C345 N353 1.427 . S
C346 H337 0.930 . S
C346 C344 1.378 . S
C346 C347 1.367 . S
C347 C346 1.367 . S
C347 C349 1.433 . S
C348 C344 1.350 . S
C348 C345 1.463 . S
C348 N352 1.427 . S
C349 H339 0.929 . S
C349 C347 1.433 . S
C349 N352 1.384 . S
C350 H341 0.929 . S
C350 C342 1.378 . S
C350 C345 1.350 . S
C351 H338 0.929 . S
C351 C343 1.433 . S
C351 N353 1.384 . S
N352 C348 1.427 . S
N352 C349 1.384 . S
N353 C345 1.427 . S
N353 C351 1.384 . S
H354 C360 0.930 . S
H355 C364 0.930 . S
H356 C369 0.929 . S
H357 C367 0.929 . S
H358 C362 0.929 . S
H359 C368 0.929 . S
C360 H354 0.930 . S
C360 C361 1.367 . S
C360 C368 1.378 . S
C361 C360 1.367 . S
C361 C369 1.433 . S
C362 H358 0.929 . S
C362 C364 1.378 . S
C362 C366 1.350 . S
C363 C366 1.463 . S
C363 C368 1.350 . S
C363 N371 1.427 . S
C364 H355 0.930 . S
C364 C362 1.378 . S
C364 C365 1.367 . S
C365 C364 1.367 . S
C365 C367 1.433 . S
C366 C362 1.350 . S
C366 C363 1.463 . S
C366 N370 1.427 . S
C367 H357 0.929 . S
C367 C365 1.433 . S
C367 N370 1.384 . S
C368 H359 0.929 . S
C368 C360 1.378 . S
C368 C363 1.350 . S
C369 H356 0.929 . S
C369 C361 1.433 . S
C369 N371 1.384 . S
N370 C366 1.427 . S
N370 C367 1.384 . S
N371 C363 1.427 . S
N371 C369 1.384 . S
H372 C378 0.930 . S
H373 C382 0.930 . S
H374 C387 0.929 . S
H375 C385 0.929 . S
H376 C380 0.929 . S
H377 C386 0.929 . S
C378 H372 0.930 . S
C378 C379 1.367 . S
C378 C386 1.378 . S
C379 C378 1.367 . S
C379 C387 1.433 . S
C380 H376 0.929 . S
C380 C382 1.378 . S
C380 C384 1.350 . S
C381 C384 1.463 . S
C381 C386 1.350 . S
C381 N389 1.427 . S
C382 H373 0.930 . S
C382 C380 1.378 . S
C382 C383 1.367 . S
C383 C382 1.367 . S
C383 C385 1.433 . S
C384 C380 1.350 . S
C384 C381 1.463 . S
C384 N388 1.427 . S
C385 H375 0.929 . S
C385 C383 1.433 . S
C385 N388 1.384 . S
C386 H377 0.929 . S
C386 C378 1.378 . S
C386 C381 1.350 . S
C387 H374 0.929 . S
C387 C379 1.433 . S
C387 N389 1.384 . S
N388 C384 1.427 . S
N388 C385 1.384 . S
N389 C381 1.427 . S
N389 C387 1.384 . S
H390 C396 0.930 . S
H391 C400 0.930 . S
H392 C405 0.929 . S
H393 C403 0.929 1_655 S
H394 C398 0.929 . S
H395 C404 0.943 . S
C396 H390 0.930 . S
C396 C397 1.367 1_655 S
C396 C404 1.382 . S
C397 C396 1.367 1_455 S
C397 C405 1.433 . S
C398 H394 0.929 . S
C398 C400 1.378 . S
C398 C402 1.350 . S
C399 C402 1.463 1_554 S
C399 C404 1.331 1_455 S
C399 N407 1.427 . S
C400 H391 0.930 . S
C400 C398 1.378 . S
C400 C401 1.367 . S
C401 C400 1.367 . S
C401 C403 1.433 . S
C402 C398 1.350 . S
C402 C399 1.463 1_556 S
C402 N406 1.427 . S
C403 H393 0.929 1_455 S
C403 C401 1.433 . S
C403 N406 1.384 . S
C404 H395 0.943 . S
C404 C396 1.382 . S
C404 C399 1.331 1_655 S
C405 H392 0.929 . S
C405 C397 1.433 . S
C405 N407 1.384 . S
N406 C402 1.427 . S
N406 C403 1.384 . S
N407 C399 1.427 . S
N407 C405 1.384 . S
H408 C414 0.930 . S
H409 C418 0.930 . S
H410 C423 0.929 . S
H411 C421 0.929 . S
H412 C416 0.929 . S
H413 C422 0.929 . S
C414 H408 0.930 . S
C414 C415 1.367 . S
C414 C422 1.378 . S
C415 C414 1.367 . S
C415 C423 1.433 1_545 S
C416 H412 0.929 . S
C416 C418 1.378 . S
C416 C420 1.350 1_565 S
C417 C420 1.463 . S
C417 C422 1.350 . S
C417 N425 1.427 1_545 S
C418 H409 0.930 . S
C418 C416 1.378 . S
C418 C419 1.367 1_565 S
C419 C418 1.367 1_545 S
C419 C421 1.433 . S
C420 C416 1.350 1_545 S
C420 C417 1.463 . S
C420 N424 1.427 . S
C421 H411 0.929 . S
C421 C419 1.433 . S
C421 N424 1.384 . S
C422 H413 0.929 . S
C422 C414 1.378 . S
C422 C417 1.350 . S
C423 H410 0.929 . S
C423 C415 1.433 1_565 S
C423 N425 1.384 . S
N424 C420 1.427 . S
N424 C421 1.384 . S
N425 C417 1.427 1_565 S
N425 C423 1.384 . S
H426 C432 0.930 . S
H427 C436 0.930 . S
H428 C441 0.929 . S
H429 C439 0.929 . S
H430 C434 0.929 . S
H431 C440 0.929 . S
C432 H426 0.930 . S
C432 C433 1.367 . S
C432 C440 1.378 . S
C433 C432 1.367 . S
C433 C441 1.433 . S
C434 H430 0.929 . S
C434 C436 1.378 . S
C434 C438 1.350 . S
C435 C438 1.463 . S
C435 C440 1.350 . S
C435 N443 1.427 . S
C436 H427 0.930 . S
C436 C434 1.378 . S
C436 C437 1.367 . S
C437 C436 1.367 . S
C437 C439 1.433 . S
C438 C434 1.350 . S
C438 C435 1.463 . S
C438 N442 1.427 . S
C439 H429 0.929 . S
C439 C437 1.433 . S
C439 N442 1.384 . S
C440 H431 0.929 . S
C440 C432 1.378 . S
C440 C435 1.350 . S
C441 H428 0.929 . S
C441 C433 1.433 . S
C441 N443 1.384 . S
N442 C438 1.427 . S
N442 C439 1.384 . S
N443 C435 1.427 . S
N443 C441 1.384 . S
H444 C450 0.930 . S
H445 C454 0.930 1_565 S
H446 C459 0.929 1_565 S
H447 C457 0.929 . S
H448 C452 0.929 1_565 S
H449 C458 0.929 . S
C450 H444 0.930 . S
C450 C451 1.367 . S
C450 C458 1.378 . S
C451 C450 1.367 . S
C451 C459 1.433 . S
C452 H448 0.929 1_545 S
C452 C454 1.378 . S
C452 C456 1.350 . S
C453 C456 1.463 . S
C453 C458 1.350 . S
C453 N461 1.427 . S
C454 H445 0.930 1_545 S
C454 C452 1.378 . S
C454 C455 1.367 . S
C455 C454 1.367 . S
C455 C457 1.433 . S
C456 C452 1.350 . S
C456 C453 1.463 . S
C456 N460 1.427 . S
C457 H447 0.929 . S
C457 C455 1.433 . S
C457 N460 1.384 . S
C458 H449 0.929 . S
C458 C450 1.378 . S
C458 C453 1.350 . S
C459 H446 0.929 1_545 S
C459 C451 1.433 . S
C459 N461 1.384 . S
N460 C456 1.427 . S
N460 C457 1.384 . S
N461 C453 1.427 . S
N461 C459 1.384 . S
H462 C468 0.930 . S
H463 C472 0.930 . S
H464 C477 0.929 . S
H465 C475 0.929 . S
H466 C470 0.929 . S
H467 C476 0.929 . S
C468 H462 0.930 . S
C468 C469 1.367 . S
C468 C476 1.378 . S
C469 C468 1.367 . S
C469 C477 1.433 . S
C470 H466 0.929 . S
C470 C472 1.378 . S
C470 C474 1.350 . S
C471 C474 1.463 1_556 S
C471 C476 1.350 . S
C471 N479 1.427 . S
C472 H463 0.930 . S
C472 C470 1.378 . S
C472 C473 1.367 . S
C473 C472 1.367 . S
C473 C475 1.433 . S
C474 C470 1.350 . S
C474 C471 1.463 1_554 S
C474 N478 1.427 . S
C475 H465 0.929 . S
C475 C473 1.433 . S
C475 N478 1.384 . S
C476 H467 0.929 . S
C476 C468 1.378 . S
C476 C471 1.350 . S
C477 H464 0.929 . S
C477 C469 1.433 . S
C477 N479 1.384 . S
N478 C474 1.427 . S
N478 C475 1.384 . S
N479 C471 1.427 . S
N479 C477 1.384 . S
H480 C486 0.930 . S
H481 C490 0.930 . S
H482 C495 0.929 . S
H483 C493 0.929 . S
H484 C488 0.929 . S
H485 C494 0.929 . S
C486 H480 0.930 . S
C486 C487 1.367 . S
C486 C494 1.378 . S
C487 C486 1.367 . S
C487 C495 1.433 . S
C488 H484 0.929 . S
C488 C490 1.378 . S
C488 C492 1.350 . S
C489 C492 1.463 . S
C489 C494 1.350 . S
C489 N497 1.427 . S
C490 H481 0.930 . S
C490 C488 1.378 . S
C490 C491 1.367 . S
C491 C490 1.367 . S
C491 C493 1.433 . S
C492 C488 1.350 . S
C492 C489 1.463 . S
C492 N496 1.427 . S
C493 H483 0.929 . S
C493 C491 1.433 . S
C493 N496 1.384 . S
C494 H485 0.929 . S
C494 C486 1.378 . S
C494 C489 1.350 . S
C495 H482 0.929 . S
C495 C487 1.433 . S
C495 N497 1.384 . S
N496 C492 1.427 . S
N496 C493 1.384 . S
N497 C489 1.427 . S
N497 C495 1.384 . S
C181 C2 1.216 . S
C185 C166 1.178 . S
C199 C21 1.104 . S
C203 C128 1.078 . S
C217 C42 1.182 . S
C221 C147 1.142 . S
C235 C1 0.925 . S
C239 C161 0.917 . S
C257 C123 0.996 . S
C253 C22 1.007 . S
C275 C142 0.903 . S
C271 C41 0.913 . S
C289 C38 1.986 . S
C293 C90 1.923 . S
C307 C59 1.872 . S
C311 C104 1.842 . S
C325 C18 1.796 . S
C329 C66 1.771 . S
C347 C85 1.838 . S
C343 C39 1.869 . S
C365 C109 1.910 . S
C361 C58 1.970 . S
C379 C19 2.066 . S
C383 C71 1.998 . S
C401 C100 1.595 . S
C397 C9 1.576 . S
C415 C29 1.550 . S
C419 C62 1.655 . S
C433 C49 1.585 . S
C437 C81 1.618 . S
C455 C138 1.572 . S
C451 C28 1.564 . S
C473 C157 1.533 . S
C469 C48 1.507 . S
C487 C8 1.438 . S
C491 C119 1.489 . S
