# Generated by pormake.
# Topology cml, (3,6)-cn, num edge types: 1
# Building blocks:
#     Node 0, Type 0, BuildingBlock: MIDCAF_clean_linker_0, # of connection points: 3
#     Node 1, Type 0, BuildingBlock: MIDCAF_clean_linker_0, # of connection points: 3
#     Node 2, Type 0, BuildingBlock: MIDCAF_clean_linker_0, # of connection points: 3
#     Node 3, Type 0, BuildingBlock: MIDCAF_clean_linker_0, # of connection points: 3
#     Node 4, Type 0, BuildingBlock: MIDCAF_clean_linker_0, # of connection points: 3
#     Node 5, Type 0, BuildingBlock: MIDCAF_clean_linker_0, # of connection points: 3
#     Node 6, Type 0, BuildingBlock: MIDCAF_clean_linker_0, # of connection points: 3
#     Node 7, Type 0, BuildingBlock: MIDCAF_clean_linker_0, # of connection points: 3
#     Node 8, Type 1, BuildingBlock: OJICUG_clean_sbu_0, # of connection points: 6
#     Node 9, Type 1, BuildingBlock: OJICUG_clean_sbu_0, # of connection points: 6
#     Node 10, Type 1, BuildingBlock: OJICUG_clean_sbu_0, # of connection points: 6
#     Node 11, Type 1, BuildingBlock: OJICUG_clean_sbu_0, # of connection points: 6
#     Edge 12, Type (0, 1), BuildingBlock: XIVTED_clean_linker_0, # of connection points: 2
#     Edge 13, Type (0, 1), BuildingBlock: XIVTED_clean_linker_0, # of connection points: 2
#     Edge 14, Type (0, 1), BuildingBlock: XIVTED_clean_linker_0, # of connection points: 2
#     Edge 15, Type (0, 1), BuildingBlock: XIVTED_clean_linker_0, # of connection points: 2
#     Edge 16, Type (0, 1), BuildingBlock: XIVTED_clean_linker_0, # of connection points: 2
#     Edge 17, Type (0, 1), BuildingBlock: XIVTED_clean_linker_0, # of connection points: 2
#     Edge 18, Type (0, 1), BuildingBlock: XIVTED_clean_linker_0, # of connection points: 2
#     Edge 19, Type (0, 1), BuildingBlock: XIVTED_clean_linker_0, # of connection points: 2
#     Edge 20, Type (0, 1), BuildingBlock: XIVTED_clean_linker_0, # of connection points: 2
#     Edge 21, Type (0, 1), BuildingBlock: XIVTED_clean_linker_0, # of connection points: 2
#     Edge 22, Type (0, 1), BuildingBlock: XIVTED_clean_linker_0, # of connection points: 2
#     Edge 23, Type (0, 1), BuildingBlock: XIVTED_clean_linker_0, # of connection points: 2
#     Edge 24, Type (0, 1), BuildingBlock: XIVTED_clean_linker_0, # of connection points: 2
#     Edge 25, Type (0, 1), BuildingBlock: XIVTED_clean_linker_0, # of connection points: 2
#     Edge 26, Type (0, 1), BuildingBlock: XIVTED_clean_linker_0, # of connection points: 2
#     Edge 27, Type (0, 1), BuildingBlock: XIVTED_clean_linker_0, # of connection points: 2
#     Edge 28, Type (0, 1), BuildingBlock: XIVTED_clean_linker_0, # of connection points: 2
#     Edge 29, Type (0, 1), BuildingBlock: XIVTED_clean_linker_0, # of connection points: 2
#     Edge 30, Type (0, 1), BuildingBlock: XIVTED_clean_linker_0, # of connection points: 2
#     Edge 31, Type (0, 1), BuildingBlock: XIVTED_clean_linker_0, # of connection points: 2
#     Edge 32, Type (0, 1), BuildingBlock: XIVTED_clean_linker_0, # of connection points: 2
#     Edge 33, Type (0, 1), BuildingBlock: XIVTED_clean_linker_0, # of connection points: 2
#     Edge 34, Type (0, 1), BuildingBlock: XIVTED_clean_linker_0, # of connection points: 2
#     Edge 35, Type (0, 1), BuildingBlock: XIVTED_clean_linker_0, # of connection points: 2
# Relax obj value: 0.074
# Max RMSD: 0.086
# Mean RMSD: 0.082
data_MOF--net-cml--node1-OJICUG_clean_sbu_0--node2-MIDCAF_clean_linker_0--edge1-XIVTED_clean_linker_0
_symmetry_space_group_name_H-M    P1
_symmetry_Int_Tables_number       1
_symmetry_cell_setting            triclinic
loop_
_symmetry_equiv_pos_as_xyz
'x, y, z'
_cell_length_a     47.335824
_cell_length_b     47.968149
_cell_length_c     45.120857
_cell_angle_alpha  90.10948
_cell_angle_beta   90.033972
_cell_angle_gamma 89.800608
loop_
_atom_site_label
_atom_site_type_symbol
_atom_site_fract_x
_atom_site_fract_y
_atom_site_fract_z
_atom_type_partial_charge
C0 C 0.30506 0.40054 0.10998 0.0
C1 C 0.30415 0.3724 0.11849 0.0
C2 C 0.28843 0.35355 0.10128 0.0
C3 C 0.27446 0.36259 0.07565 0.0
H4 H 0.21268 0.34214 0.01247 0.0
H5 H 0.17911 0.31385 0.98493 0.0
H6 H 0.17913 0.37413 0.91394 0.0
H7 H 0.21307 0.4023 0.9411 0.0
H8 H 0.25308 0.45266 0.94315 0.0
H9 H 0.2776 0.49025 0.9178 0.0
H10 H 0.32649 0.50629 0.99687 0.0
H11 H 0.30175 0.46925 0.02243 0.0
H12 H 0.29309 0.43124 0.07821 0.0
H13 H 0.31728 0.41554 0.12251 0.0
H14 H 0.28719 0.33178 0.10744 0.0
H15 H 0.26303 0.34747 0.06247 0.0
N16 N 0.24551 0.38385 0.02289 0.0
N17 N 0.24502 0.41635 0.98409 0.0
N18 N 0.27325 0.42413 0.0258 0.0
C19 C 0.23567 0.39208 0.99593 0.0
C20 C 0.26378 0.43251 -0.00112 0.0
C21 C 0.26424 0.39991 0.03801 0.0
C22 C 0.2155 0.3746 0.97914 0.0
C23 C 0.20562 0.34939 0.99098 0.0
C24 C 0.18629 0.33321 0.97524 0.0
C25 C 0.17639 0.34187 0.94734 0.0
C26 C 0.18658 0.36681 0.93526 0.0
C27 C 0.2059 0.38303 0.95099 0.0
C28 C 0.27573 0.45762 0.98473 0.0
C29 C 0.26873 0.46447 0.95532 0.0
C30 C 0.28285 0.48594 0.94071 0.0
C31 C 0.30415 0.50102 0.95523 0.0
C32 C 0.31 0.49522 0.98512 0.0
C33 C 0.29594 0.47378 -0.00028 0.0
C34 C 0.27629 0.39058 0.06662 0.0
C35 C 0.29134 0.4095 0.08437 0.0
C36 C 0.69101 0.58745 0.6125 0.0
C37 C 0.69192 0.61567 0.62084 0.0
C38 C 0.70814 0.63425 0.60396 0.0
C39 C 0.7225 0.62492 0.57871 0.0
H40 H 0.77776 0.64901 0.51349 0.0
H41 H 0.81035 0.67865 0.48663 0.0
H42 H 0.82223 0.61393 0.42101 0.0
H43 H 0.78899 0.58441 0.44743 0.0
H44 H 0.72507 0.5479 0.44207 0.0
H45 H 0.69724 0.51175 0.41839 0.0
H46 H 0.68593 0.4715 0.50331 0.0
H47 H 0.71237 0.50878 0.52712 0.0
H48 H 0.7033 0.55643 0.58102 0.0
H49 H 0.67843 0.57266 0.62486 0.0
H50 H 0.7094 0.65607 0.61003 0.0
H51 H 0.73424 0.6399 0.56574 0.0
N52 N 0.75133 0.6039 0.52626 0.0
N53 N 0.75144 0.57228 0.48655 0.0
N54 N 0.7238 0.56347 0.52853 0.0
C55 C 0.76095 0.59624 0.49905 0.0
C56 C 0.73299 0.55576 0.50124 0.0
C57 C 0.73282 0.58755 0.54118 0.0
C58 C 0.78082 0.61426 0.48271 0.0
C59 C 0.78728 0.64103 0.49335 0.0
C60 C 0.80607 0.65801 0.478 0.0
C61 C 0.819 0.64856 0.45178 0.0
C62 C 0.81237 0.62191 0.44096 0.0
C63 C 0.79344 0.60494 0.45625 0.0
C64 C 0.7205 0.53132 0.48647 0.0
C65 C 0.71699 0.53108 0.45558 0.0
C66 C 0.70111 0.5102 0.44198 0.0
C67 C 0.68887 0.48883 0.45895 0.0
C68 C 0.69425 0.48807 0.48963 0.0
C69 C 0.7096 0.50929 0.50329 0.0
C70 C 0.72059 0.59689 0.56971 0.0
C71 C 0.70512 0.57818 0.5872 0.0
C72 C 0.68934 0.4021 0.1146 0.0
C73 C 0.68995 0.37388 0.12285 0.0
C74 C 0.70649 0.35515 0.10621 0.0
C75 C 0.72133 0.36433 0.08125 0.0
H76 H 0.7848 0.34396 0.01867 0.0
H77 H 0.81394 0.31284 0.98882 0.0
H78 H 0.80485 0.36815 0.9139 0.0
H79 H 0.77645 0.39963 0.94381 0.0
H80 H 0.74334 0.4542 0.94905 0.0
H81 H 0.71853 0.49175 0.92366 0.0
H82 H 0.67136 0.50949 0.00348 0.0
H83 H 0.6964 0.47243 0.02908 0.0
H84 H 0.70235 0.43302 0.08364 0.0
H85 H 0.67654 0.41705 0.12666 0.0
H86 H 0.7076 0.33332 0.11221 0.0
H87 H 0.73325 0.34925 0.06842 0.0
N88 N 0.75015 0.38501 0.02848 0.0
N89 N 0.75116 0.4177 0.98987 0.0
N90 N 0.7239 0.4264 0.03209 0.0
C91 C 0.75986 0.393 0.00142 0.0
C92 C 0.73327 0.43457 0.00508 0.0
C93 C 0.73224 0.40175 0.04401 0.0
C94 C 0.77824 0.37432 0.9837 0.0
C95 C 0.78908 0.34955 0.99587 0.0
C96 C 0.80563 0.3316 0.97868 0.0
C97 C 0.8116 0.33794 0.94891 0.0
C98 C 0.80095 0.3628 0.93684 0.0
C99 C 0.78453 0.38081 0.95403 0.0
C100 C 0.72155 0.45995 0.99101 0.0
C101 C 0.72804 0.46639 0.96138 0.0
C102 C 0.71374 0.48784 0.94675 0.0
C103 C 0.69276 0.50334 0.96145 0.0
C104 C 0.68755 0.49806 0.99157 0.0
C105 C 0.7018 0.47662 0.0062 0.0
C106 C 0.71969 0.39239 0.07234 0.0
C107 C 0.70401 0.41123 0.0897 0.0
C108 C 0.29284 0.58139 0.61775 0.0
C109 C 0.30153 0.60927 0.62089 0.0
C110 C 0.29102 0.62925 0.6009 0.0
C111 C 0.27398 0.62114 0.57705 0.0
H112 H 0.20541 0.64271 0.51675 0.0
H113 H 0.17708 0.67378 0.48607 0.0
H114 H 0.18522 0.61665 0.41238 0.0
H115 H 0.21288 0.58527 0.44308 0.0
H116 H 0.26137 0.54036 0.44655 0.0
H117 H 0.28921 0.50369 0.42388 0.0
H118 H 0.30221 0.46616 0.50998 0.0
H119 H 0.27562 0.50406 0.53285 0.0
H120 H 0.27118 0.55137 0.59108 0.0
H121 H 0.29976 0.56558 0.63326 0.0
H122 H 0.29732 0.65088 0.60256 0.0
H123 H 0.26753 0.63672 0.56105 0.0
N124 N 0.2381 0.60054 0.52814 0.0
N125 N 0.23761 0.56772 0.48954 0.0
N126 N 0.26292 0.55835 0.53296 0.0
C127 C 0.22905 0.59262 0.50077 0.0
C128 C 0.25443 0.55045 0.5055 0.0
C129 C 0.25487 0.58334 0.54442 0.0
C130 C 0.21146 0.61147 0.48245 0.0
C131 C 0.20114 0.63673 0.49403 0.0
C132 C 0.18505 0.65463 0.47637 0.0
C133 C 0.17901 0.64773 0.44673 0.0
C134 C 0.18921 0.62243 0.43521 0.0
C135 C 0.2052 0.60449 0.45286 0.0
C136 C 0.26667 0.52531 0.49155 0.0
C137 C 0.26975 0.52402 0.46062 0.0
C138 C 0.28567 0.50279 0.44755 0.0
C139 C 0.29844 0.48204 0.46507 0.0
C140 C 0.29345 0.48222 0.49584 0.0
C141 C 0.27801 0.50381 0.50897 0.0
C142 C 0.26747 0.59287 0.5726 0.0
C143 C 0.27627 0.57324 0.59371 0.0
C144 C 0.79909 0.90385 0.11622 0.0
C145 C 0.79779 0.87574 0.12478 0.0
C146 C 0.78093 0.85731 0.10823 0.0
C147 C 0.76648 0.86666 0.08302 0.0
H148 H 0.70188 0.84843 0.02089 0.0
H149 H 0.67079 0.81876 0.99169 0.0
H150 H 0.67929 0.87449 0.91712 0.0
H151 H 0.70965 0.9045 0.94634 0.0
H152 H 0.75089 0.95271 0.94754 0.0
H153 H 0.77808 0.98757 0.92083 0.0
H154 H 0.8257 0.00525 0.00034 0.0
H155 H 0.79835 0.97086 0.02724 0.0
H156 H 0.7871 0.93476 0.08468 0.0
H157 H 0.81214 0.91854 0.12823 0.0
H158 H 0.77933 0.83558 0.11446 0.0
H159 H 0.75436 0.8518 0.0702 0.0
N160 N 0.73765 0.88833 0.0303 0.0
N161 N 0.73933 0.91953 0.99036 0.0
N162 N 0.76759 0.92715 0.03204 0.0
C163 C 0.72849 0.89624 0.00297 0.0
C164 C 0.75883 0.93513 0.00473 0.0
C165 C 0.75711 0.90388 0.04505 0.0
C166 C 0.70841 0.87881 0.98599 0.0
C167 C 0.69699 0.85447 0.99834 0.0
C168 C 0.67932 0.83735 0.98153 0.0
C169 C 0.67276 0.84417 0.952 0.0
C170 C 0.6837 0.86879 0.93987 0.0
C171 C 0.70127 0.88593 0.95667 0.0
C172 C 0.77264 0.95872 0.98951 0.0
C173 C 0.76686 0.9643 0.9595 0.0
C174 C 0.78253 0.98416 0.94409 0.0
C175 C 0.80417 -0.00107 0.9584 0.0
C176 C 0.80899 -0.00564 0.98874 0.0
C177 C 0.7934 0.97448 0.00413 0.0
C178 C 0.76893 0.89453 0.07375 0.0
C179 C 0.78488 0.91311 0.09104 0.0
C180 C 0.19094 0.08519 0.6138 0.0
C181 C 0.1918 0.11349 0.62183 0.0
C182 C 0.20833 0.13185 0.60496 0.0
C183 C 0.22313 0.12217 0.5801 0.0
H184 H 0.29014 0.13927 0.52058 0.0
H185 H 0.32133 0.16908 0.49187 0.0
H186 H 0.31307 0.11377 0.41666 0.0
H187 H 0.28264 0.08358 0.44545 0.0
H188 H 0.24495 0.03309 0.44758 0.0
H189 H 0.21974 -0.00315 0.42068 0.0
H190 H 0.17045 0.97913 0.4989 0.0
H191 H 0.19577 0.01506 0.52603 0.0
H192 H 0.2037 0.05377 0.58302 0.0
H193 H 0.17813 0.07057 0.62612 0.0
H194 H 0.20955 0.15373 0.61077 0.0
H195 H 0.23515 0.13694 0.56713 0.0
N196 N 0.25354 0.09986 0.52887 0.0
N197 N 0.25405 0.06753 0.48983 0.0
N198 N 0.22475 0.06021 0.53074 0.0
C199 C 0.26376 0.09148 0.50211 0.0
C200 C 0.23462 0.05173 0.50398 0.0
C201 C 0.23412 0.08418 0.54339 0.0
C202 C 0.28376 0.10907 0.48535 0.0
C203 C 0.29508 0.13337 0.49799 0.0
C204 C 0.31282 0.15056 0.48145 0.0
C205 C 0.3195 0.1439 0.45189 0.0
C206 C 0.30859 0.11935 0.43945 0.0
C207 C 0.29099 0.1021 0.456 0.0
C208 C 0.22214 0.02727 0.48891 0.0
C209 C 0.22904 0.02122 0.45925 0.0
C210 C 0.21453 0.00054 0.44373 0.0
C211 C 0.19297 0.98538 0.4576 0.0
C212 C 0.18712 0.99035 0.48767 0.0
C213 C 0.20153 0.0111 0.50317 0.0
C214 C 0.22133 0.09403 0.57147 0.0
C215 C 0.20546 0.0756 0.58891 0.0
C216 C 0.16791 0.89033 0.08545 0.0
C217 C 0.18013 0.87108 0.10501 0.0
C218 C 0.20869 0.86376 0.10173 0.0
C219 C 0.22468 0.8752 0.07872 0.0
H220 H 0.27721 0.84748 0.0086 0.0
H221 H 0.30965 0.81779 0.98157 0.0
H222 H 0.33089 0.88644 0.92392 0.0
H223 H 0.29753 0.91621 0.95052 0.0
H224 H 0.24737 0.96308 0.944 0.0
H225 H 0.22403 0.00191 0.91901 0.0
H226 H 0.17509 0.01844 0.99795 0.0
H227 H 0.19861 0.98024 0.02305 0.0
H228 H 0.17394 0.91701 0.04817 0.0
H229 H 0.14596 0.89642 0.08781 0.0
H230 H 0.21846 0.84899 0.11673 0.0
H231 H 0.24661 0.86905 0.07634 0.0
N232 N 0.24991 0.89172 0.02157 0.0
N233 N 0.2557 0.92689 0.98599 0.0
N234 N 0.22137 0.93163 0.02305 0.0
C235 C 0.26345 0.90173 0.99726 0.0
C236 C 0.2348 0.94207 -0.00103 0.0
C237 C 0.22886 0.90659 0.03454 0.0
C238 C 0.28473 0.8843 0.98181 0.0
C239 C 0.28887 0.85643 0.99031 0.0
C240 C 0.30763 0.83936 0.97484 0.0
C241 C 0.323 0.84976 0.95064 0.0
C242 C 0.31913 0.87771 0.94224 0.0
C243 C 0.30015 0.89481 0.95765 0.0
C244 C 0.22448 0.96822 0.98536 0.0
C245 C 0.23208 0.97538 0.95624 0.0
C246 C 0.21863 -0.00246 0.94185 0.0
C247 C 0.1975 0.01302 0.95638 0.0
C248 C 0.19141 0.00708 0.98616 0.0
C249 C 0.20474 0.98494 0.00048 0.0
C250 C 0.21248 0.89467 0.05924 0.0
C251 C 0.184 0.90224 0.06297 0.0
C252 C 0.8035 0.084 0.61014 0.0
C253 C 0.80216 0.11226 0.61831 0.0
C254 C 0.78509 0.13047 0.60168 0.0
C255 C 0.77036 0.12073 0.57683 0.0
H256 H 0.70355 0.13708 0.5169 0.0
H257 H 0.67271 0.16746 0.48831 0.0
H258 H 0.68502 0.11539 0.41108 0.0
H259 H 0.71524 0.08452 0.43982 0.0
H260 H 0.75275 0.03179 0.44342 0.0
H261 H 0.77922 -0.00471 0.41794 0.0
H262 H 0.82432 0.97704 0.49892 0.0
H263 H 0.79764 0.01298 0.52456 0.0
H264 H 0.79118 0.05257 0.5793 0.0
H265 H 0.81672 0.06947 0.62222 0.0
H266 H 0.78346 0.1523 0.60762 0.0
H267 H 0.758 0.13542 0.56399 0.0
N268 N 0.74128 0.09871 0.52473 0.0
N269 N 0.74152 0.06638 0.48562 0.0
N270 N 0.76976 0.05876 0.52739 0.0
C271 C 0.73164 0.09047 0.4977 0.0
C272 C 0.76049 0.05034 0.50039 0.0
C273 C 0.76028 0.08284 0.53976 0.0
C274 C 0.71199 0.10839 0.48068 0.0
C275 C 0.69964 0.13202 0.49386 0.0
C276 C 0.68209 0.14956 0.47739 0.0
C277 C 0.67662 0.14399 0.44732 0.0
C278 C 0.68859 0.12013 0.43426 0.0
C279 C 0.70603 0.10249 0.45076 0.0
C280 C 0.77335 0.02564 0.48596 0.0
C281 C 0.76795 0.01968 0.45596 0.0
C282 C 0.78321 -0.00114 0.44128 0.0
C283 C 0.80407 0.98351 0.45633 0.0
C284 C 0.80826 0.98834 0.48673 0.0
C285 C 0.79307 0.00916 0.50139 0.0
C286 C 0.77271 0.09267 0.56801 0.0
C287 C 0.78898 0.07434 0.58532 0.0
Sc288 Sc -0.00302 0.79113 0.29748 0.0
Sc289 Sc -0.00037 0.86471 0.30501 0.0
Sc290 Sc 0.00161 0.82258 0.36809 0.0
O291 O -0.00061 0.82608 0.32344 0.0
C292 C 0.95852 0.77379 0.35218 0.0
C293 C 0.95377 0.83251 0.26563 0.0
C294 C 0.95869 0.8732 0.36053 0.0
C295 C 0.039 0.8301 0.26089 0.0
C296 C 0.04271 0.7741 0.34641 0.0
C297 C 0.04397 0.87294 0.35719 0.0
O298 O 0.96543 0.77146 0.32506 0.0
O299 O 0.9653 0.85438 0.2759 0.0
O300 O 0.96855 0.85263 0.37496 0.0
O301 O 0.02829 0.80646 0.26676 0.0
O302 O 0.03462 0.79229 0.36507 0.0
O303 O 0.03402 0.87966 0.33205 0.0
O304 O 0.03084 0.77044 0.32136 0.0
O305 O 0.0309 0.85267 0.27304 0.0
O306 O 0.03385 0.85331 0.37258 0.0
O307 O 0.96282 0.80806 0.27119 0.0
O308 O 0.97008 0.79108 0.3696 0.0
O309 O 0.96826 0.88052 0.33539 0.0
Sc310 Sc 0.99477 0.19638 0.79909 0.0
Sc311 Sc 0.99664 0.12307 0.80874 0.0
Sc312 Sc 0.99348 0.16673 0.87064 0.0
O313 O 0.995 0.16214 0.82606 0.0
C314 C 0.03286 0.21785 0.85222 0.0
C315 C 0.03936 0.15631 0.76703 0.0
C316 C 0.0395 0.11894 0.8633 0.0
C317 C 0.95377 0.15415 0.76515 0.0
C318 C 0.9493 0.21215 0.84905 0.0
C319 C 0.95428 0.11346 0.86214 0.0
O320 O 0.02664 0.21808 0.82478 0.0
O321 O 0.02991 0.1343 0.77901 0.0
O322 O 0.02926 0.1397 0.87723 0.0
O323 O 0.96254 0.17871 0.77061 0.0
O324 O 0.95795 0.19412 0.86755 0.0
O325 O 0.96338 0.10719 0.83652 0.0
O326 O 0.96116 0.21637 0.8241 0.0
O327 O 0.96452 0.13251 0.77687 0.0
O328 O 0.96414 0.13357 0.87709 0.0
O329 O 0.02853 0.18029 0.77142 0.0
O330 O 0.02191 0.20099 0.87045 0.0
O331 O 0.02913 0.10991 0.83911 0.0
Sc332 Sc 0.49598 0.29227 0.30226 0.0
Sc333 Sc 0.49424 0.3655 0.31286 0.0
Sc334 Sc 0.49569 0.32125 0.37436 0.0
O335 O 0.49531 0.32629 0.32976 0.0
C336 C 0.45401 0.27304 0.35339 0.0
C337 C 0.45236 0.33286 0.26955 0.0
C338 C 0.45198 0.37134 0.36751 0.0
C339 C 0.53782 0.33447 0.2698 0.0
C340 C 0.53881 0.27403 0.35326 0.0
C341 C 0.53682 0.37293 0.36709 0.0
O342 O 0.46362 0.27079 0.32716 0.0
O343 O 0.46171 0.35485 0.28178 0.0
O344 O 0.46271 0.3511 0.38169 0.0
O345 O 0.52862 0.30998 0.27457 0.0
O346 O 0.52884 0.29099 0.37219 0.0
O347 O 0.52692 0.38051 0.34217 0.0
O348 O 0.52903 0.27161 0.32712 0.0
O349 O 0.52723 0.35608 0.28181 0.0
O350 O 0.52755 0.35206 0.38125 0.0
O351 O 0.46281 0.3088 0.2743 0.0
O352 O 0.46367 0.29013 0.3723 0.0
O353 O 0.46093 0.37907 0.34228 0.0
Sc354 Sc 0.49621 0.69655 0.80053 0.0
Sc355 Sc 0.49877 0.62319 0.80973 0.0
Sc356 Sc 0.49837 0.66648 0.87199 0.0
O357 O 0.4977 0.66216 0.82734 0.0
C358 C 0.5396 0.71481 0.85123 0.0
C359 C 0.54065 0.65657 0.76764 0.0
C360 C 0.54105 0.61573 0.86406 0.0
C361 C 0.45558 0.65442 0.76631 0.0
C362 C 0.45519 0.71468 0.85309 0.0
C363 C 0.45565 0.61601 0.86332 0.0
O364 O 0.52875 0.71793 0.8256 0.0
O365 O 0.53183 0.63442 0.77987 0.0
O366 O 0.53108 0.63617 0.87853 0.0
O367 O 0.46334 0.67912 0.77258 0.0
O368 O 0.4662 0.69768 0.87126 0.0
O369 O 0.46555 0.60854 0.83832 0.0
O370 O 0.46332 0.71678 0.82631 0.0
O371 O 0.46691 0.63298 0.77778 0.0
O372 O 0.4656 0.63627 0.87815 0.0
O373 O 0.5294 0.6804 0.77201 0.0
O374 O 0.53096 0.69695 0.86981 0.0
O375 O 0.5313 0.60832 0.83908 0.0
H376 H 0.17367 0.32909 0.88788 0.0
H377 H 0.03757 0.2337 0.9096 0.0
H378 H 0.1296 0.31742 0.97064 0.0
H379 H 0.07368 0.24879 0.82323 0.0
H380 H 0.0714 0.26526 0.93131 0.0
H381 H 0.1376 0.30091 0.86284 0.0
C382 C 0.15635 0.32073 0.90073 0.0
C383 C 0.15477 0.32534 0.93146 0.0
C384 C 0.07205 0.26185 0.90759 0.0
C385 C 0.11371 0.29318 0.90307 0.0
C386 C 0.05272 0.24366 0.8951 0.0
C387 C 0.05296 0.23832 0.86452 0.0
C388 C 0.09212 0.27488 0.88953 0.0
C389 C 0.07283 0.25228 0.84692 0.0
C390 C 0.13586 0.30463 0.88645 0.0
C391 C 0.13202 0.31393 0.94706 0.0
N392 N 0.09186 0.26984 0.85975 0.0
N393 N 0.1125 0.29836 0.93272 0.0
H394 H 0.86001 0.68084 0.4766 0.0
H395 H 0.92593 0.73396 0.32401 0.0
H396 H 0.82574 0.65637 0.39177 0.0
H397 H 0.9418 0.7711 0.40978 0.0
H398 H 0.89166 0.70255 0.34741 0.0
H399 H 0.89331 0.71102 0.4514 0.0
C400 C 0.85934 0.68198 0.45264 0.0
C401 C 0.83982 0.66631 0.4363 0.0
C402 C 0.90267 0.7177 0.36093 0.0
C403 C 0.8783 0.70062 0.40715 0.0
C404 C 0.9222 0.73559 0.34763 0.0
C405 C 0.93687 0.75518 0.36492 0.0
C406 C 0.89809 0.71935 0.39165 0.0
C407 C 0.93114 0.75638 0.39544 0.0
C408 C 0.87847 0.69914 0.43822 0.0
C409 C 0.84053 0.66802 0.40521 0.0
N410 N 0.91235 0.73868 0.40775 0.0
N411 N 0.85947 0.68496 0.39158 0.0
H412 H 0.81018 0.28086 0.94794 0.0
H413 H 0.93571 0.26498 0.83031 0.0
H414 H 0.85215 0.35108 0.90774 0.0
H415 H 0.90809 0.19926 0.88864 0.0
H416 H 0.89896 0.29549 0.85108 0.0
H417 H 0.84034 0.24947 0.91935 0.0
C418 C 0.82578 0.2897 0.93316 0.0
C419 C 0.82886 0.31867 0.93054 0.0
C420 C 0.90085 0.27429 0.85907 0.0
C421 C 0.86313 0.2828 0.89735 0.0
C422 C 0.92165 0.25686 0.84712 0.0
C423 C 0.92514 0.22971 0.85806 0.0
C424 C 0.88333 0.26431 0.88181 0.0
C425 C 0.90641 0.22021 0.87989 0.0
C426 C 0.84285 0.27175 0.91669 0.0
C427 C 0.84892 0.32889 0.91039 0.0
N428 N 0.88642 0.23752 0.89114 0.0
N429 N 0.86542 0.31097 0.89467 0.0
H430 H 0.18177 0.70465 0.44419 0.0
H431 H 0.0544 0.72045 0.32859 0.0
H432 H 0.13787 0.63434 0.40624 0.0
H433 H 0.08506 0.78683 0.38462 0.0
H434 H 0.0909 0.68952 0.34921 0.0
H435 H 0.15196 0.73593 0.41517 0.0
C436 C 0.16582 0.69578 0.42979 0.0
C437 C 0.16207 0.66684 0.42795 0.0
C438 C 0.08973 0.71095 0.35671 0.0
C439 C 0.12814 0.70253 0.39431 0.0
C440 C 0.06907 0.7286 0.34485 0.0
C441 C 0.06653 0.75607 0.35524 0.0
C442 C 0.10804 0.72107 0.37876 0.0
C443 C 0.08601 0.76564 0.37635 0.0
C444 C 0.14894 0.71364 0.41308 0.0
C445 C 0.14158 0.65651 0.40827 0.0
N446 N 0.10583 0.74813 0.3875 0.0
N447 N 0.12523 0.67436 0.39234 0.0
H448 H 0.63138 0.85823 0.91189 0.0
H449 H 0.58185 0.70163 0.88924 0.0
H450 H 0.67415 0.78721 0.9501 0.0
H451 H 0.55012 0.76911 0.83544 0.0
H452 H 0.61676 0.73292 0.91049 0.0
H453 H 0.6021 0.82647 0.88267 0.0
C454 C 0.63478 0.83598 0.91397 0.0
C455 C 0.65508 0.82535 0.93371 0.0
C456 C 0.60241 0.74092 0.89383 0.0
C457 C 0.62154 0.789 0.90054 0.0
C458 C 0.58243 0.72307 0.88172 0.0
C459 C 0.56293 0.73293 0.8608 0.0
C460 C 0.60266 0.76904 0.88533 0.0
C461 C 0.56481 0.76076 0.85155 0.0
C462 C 0.61804 0.81789 0.89731 0.0
C463 C 0.65836 0.79635 0.93569 0.0
N464 N 0.58412 0.77803 0.86424 0.0
N465 N 0.64166 0.77921 0.91947 0.0
H466 H 0.36087 0.12992 0.41172 0.0
H467 H 0.41347 0.28569 0.39356 0.0
H468 H 0.31852 0.20088 0.45084 0.0
H469 H 0.4418 0.21955 0.3357 0.0
H470 H 0.37826 0.25455 0.41433 0.0
H471 H 0.39058 0.16176 0.38326 0.0
C472 C 0.35764 0.15217 0.41415 0.0
C473 C 0.33734 0.16276 0.43395 0.0
C474 C 0.39193 0.24683 0.39689 0.0
C475 C 0.37142 0.19918 0.40169 0.0
C476 C 0.4121 0.26458 0.38508 0.0
C477 C 0.4307 0.25503 0.36311 0.0
C478 C 0.3906 0.21911 0.38704 0.0
C479 C 0.42781 0.22764 0.35265 0.0
C480 C 0.37463 0.1703 0.39792 0.0
C481 C 0.33431 0.19177 0.4364 0.0
N482 N 0.40834 0.21042 0.36505 0.0
N483 N 0.35128 0.20893 0.42062 0.0
H484 H 0.33285 0.8468 0.89044 0.0
H485 H 0.42847 0.71094 0.90625 0.0
H486 H 0.35854 0.81046 0.97376 0.0
H487 H 0.43128 0.76136 0.82703 0.0
H488 H 0.39617 0.74416 0.9284 0.0
H489 H 0.36394 0.81373 0.86449 0.0
C490 C 0.34514 0.83207 0.9033 0.0
C491 C 0.34282 0.83122 0.93436 0.0
C492 C 0.4038 0.74803 0.90616 0.0
C493 C 0.37776 0.79318 0.9048 0.0
C494 C 0.42223 0.72898 0.89337 0.0
C495 C 0.43301 0.73352 0.86481 0.0
C496 C 0.3958 0.77191 0.89039 0.0
C497 C 0.42363 0.75712 0.84917 0.0
C498 C 0.36271 0.81315 0.88844 0.0
C499 C 0.35906 0.81151 0.94981 0.0
N500 N 0.40559 0.77561 0.86225 0.0
N501 N 0.37564 0.79322 0.93487 0.0
H502 H 0.63687 0.1309 0.40507 0.0
H503 H 0.57787 0.28558 0.39554 0.0
H504 H 0.67573 0.20099 0.44913 0.0
H505 H 0.55344 0.22187 0.333 0.0
H506 H 0.61398 0.25448 0.41516 0.0
H507 H 0.60629 0.16325 0.37798 0.0
C508 C 0.63919 0.15308 0.40885 0.0
C509 C 0.6587 0.16322 0.42969 0.0
C510 C 0.60095 0.24731 0.39696 0.0
C511 C 0.62358 0.20022 0.39904 0.0
C512 C 0.58025 0.26503 0.38581 0.0
C513 C 0.56249 0.25615 0.3628 0.0
C514 C 0.60368 0.22027 0.38537 0.0
C515 C 0.56672 0.22947 0.35078 0.0
C516 C 0.62168 0.1715 0.39342 0.0
C517 C 0.66055 0.19216 0.43385 0.0
N518 N 0.5867 0.21225 0.3625 0.0
N519 N 0.64308 0.20959 0.41885 0.0
H520 H 0.32584 0.49496 0.89945 0.0
H521 H 0.42674 0.62716 0.91456 0.0
H522 H 0.32388 0.55191 0.97364 0.0
H523 H 0.42843 0.57052 0.83997 0.0
H524 H 0.38669 0.60179 0.93472 0.0
H525 H 0.36024 0.52488 0.87508 0.0
C526 C 0.33225 0.51404 0.91039 0.0
C527 C 0.3221 0.52087 0.93872 0.0
C528 C 0.39576 0.59495 0.9139 0.0
C529 C 0.36197 0.55488 0.91122 0.0
C530 C 0.41873 0.60937 0.90238 0.0
C531 C 0.4312 0.60083 0.87561 0.0
C532 C 0.38514 0.57173 0.89862 0.0
C533 C 0.41966 0.57777 0.86076 0.0
C534 C 0.3521 0.53098 0.89657 0.0
C535 C 0.3315 0.54563 0.95201 0.0
N536 N 0.39736 0.56395 0.87255 0.0
N537 N 0.35108 0.56164 0.93824 0.0
H538 H 0.68978 0.46614 0.40261 0.0
H539 H 0.55138 0.37532 0.42542 0.0
H540 H 0.64107 0.46668 0.48365 0.0
H541 H 0.57537 0.40663 0.33939 0.0
H542 H 0.59005 0.40156 0.44765 0.0
H543 H 0.65335 0.4372 0.37954 0.0
C544 C 0.67158 0.46019 0.41563 0.0
C545 C 0.6686 0.46902 0.44521 0.0
C546 C 0.58683 0.40266 0.42391 0.0
C547 C 0.62732 0.43547 0.41905 0.0
C548 C 0.56484 0.38767 0.41118 0.0
C549 C 0.56008 0.38894 0.38052 0.0
C550 C 0.60448 0.41872 0.40584 0.0
C551 C 0.57816 0.40532 0.36316 0.0
C552 C 0.65088 0.44362 0.40243 0.0
C553 C 0.64475 0.46006 0.46105 0.0
N554 N 0.59973 0.41954 0.37607 0.0
N555 N 0.62509 0.44378 0.44778 0.0
H556 H 0.67336 0.55473 0.97914 0.0
H557 H 0.56865 0.57024 0.84084 0.0
H558 H 0.66987 0.49632 0.90634 0.0
H559 H 0.56912 0.62623 0.91599 0.0
H560 H 0.60853 0.5451 0.86246 0.0
H561 H 0.63824 0.58373 0.95399 0.0
C562 C 0.66536 0.54813 0.95777 0.0
C563 C 0.67443 0.52299 0.94491 0.0
C564 C 0.59994 0.56293 0.87417 0.0
C565 C 0.63424 0.55599 0.91604 0.0
C566 C 0.5771 0.57727 0.86187 0.0
C567 C 0.5653 0.60027 0.87671 0.0
C568 C 0.61109 0.57164 0.9015 0.0
C569 C 0.57733 0.6085 0.90382 0.0
C570 C 0.64535 0.56469 0.9434 0.0
C571 C 0.66369 0.51564 0.91697 0.0
N572 N 0.59948 0.59414 0.91536 0.0
N573 N 0.64399 0.53194 0.90359 0.0
H574 H 0.34688 0.46082 0.48993 0.0
H575 H 0.41148 0.40348 0.34034 0.0
H576 H 0.29758 0.45817 0.40927 0.0
H577 H 0.43808 0.37329 0.42607 0.0
H578 H 0.37199 0.42796 0.36431 0.0
H579 H 0.38264 0.43197 0.46626 0.0
C580 C 0.34319 0.45383 0.46744 0.0
C581 C 0.31897 0.4621 0.45167 0.0
C582 C 0.38645 0.41582 0.37775 0.0
C583 C 0.36066 0.4298 0.42408 0.0
C584 C 0.40906 0.40206 0.36416 0.0
C585 C 0.42811 0.38642 0.38127 0.0
C586 C 0.38329 0.4143 0.40864 0.0
C587 C 0.42386 0.38506 0.41202 0.0
C588 C 0.36385 0.43753 0.45386 0.0
C589 C 0.31607 0.45286 0.4222 0.0
N590 N 0.40205 0.39903 0.42475 0.0
N591 N 0.33683 0.43746 0.40924 0.0
H592 H 0.82723 0.9901 0.90354 0.0
H593 H 0.92656 0.12383 0.91406 0.0
H594 H 0.82439 0.05006 0.97496 0.0
H595 H 0.92793 0.06681 0.8398 0.0
H596 H 0.8878 0.09774 0.93544 0.0
H597 H 0.86205 0.01904 0.87825 0.0
C598 C 0.8336 0.00957 0.91369 0.0
C599 C 0.82301 0.01764 0.94149 0.0
C600 C 0.89649 0.0909 0.91445 0.0
C601 C 0.86319 0.05053 0.91293 0.0
C602 C 0.91877 0.10576 0.90221 0.0
C603 C 0.93074 0.09741 0.87512 0.0
C604 C 0.88602 0.06738 0.89963 0.0
C605 C 0.91947 0.07394 0.86078 0.0
C606 C 0.85365 0.02596 0.89934 0.0
C607 C 0.83233 0.04284 0.95379 0.0
N608 N 0.89778 0.05965 0.87329 0.0
N609 N 0.852 0.0583 0.9395 0.0
H610 H 0.17419 0.93366 0.47371 0.0
H611 H 0.07053 0.91918 0.33441 0.0
H612 H 0.17066 0.99337 0.40236 0.0
H613 H 0.07344 0.86145 0.40777 0.0
H614 H 0.11007 0.94462 0.35647 0.0
H615 H 0.14029 0.9046 0.44717 0.0
C616 C 0.16639 0.94055 0.45236 0.0
C617 C 0.17508 0.96602 0.44031 0.0
C618 C 0.10208 0.9263 0.36762 0.0
C619 C 0.13623 0.93299 0.40982 0.0
C620 C 0.07949 0.9118 0.35506 0.0
C621 C 0.06841 0.8883 0.36938 0.0
C622 C 0.11364 0.9172 0.39463 0.0
C623 C 0.08101 0.8796 0.39602 0.0
C624 C 0.14709 0.92395 0.43717 0.0
C625 C 0.16466 0.97377 0.41235 0.0
N626 N 0.10283 0.89411 0.4078 0.0
N627 N 0.14556 0.95743 0.39816 0.0
H628 H 0.17741 0.06404 0.97467 0.0
H629 H 0.06934 0.07547 0.83908 0.0
H630 H 0.17564 0.00679 0.90076 0.0
H631 H 0.06828 0.13106 0.91456 0.0
H632 H 0.11136 0.05292 0.85911 0.0
H633 H 0.14103 0.09216 0.95032 0.0
C634 C 0.16961 0.05757 0.95316 0.0
C635 C 0.1794 0.0329 0.93985 0.0
C636 C 0.10199 0.07011 0.87126 0.0
C637 C 0.13774 0.06485 0.91196 0.0
C638 C 0.07788 0.08295 0.85989 0.0
C639 C 0.06501 0.10506 0.87529 0.0
C640 C 0.11337 0.07935 0.89827 0.0
C641 C 0.0773 0.11397 0.90201 0.0
C642 C 0.14886 0.07362 0.93928 0.0
C643 C 0.16888 0.02573 0.91177 0.0
N644 N 0.10072 0.10099 0.91271 0.0
N645 N 0.14841 0.04147 0.89892 0.0
H646 H 0.82379 0.9322 0.47366 0.0
H647 H 0.93127 0.91882 0.3375 0.0
H648 H 0.82847 0.99166 0.40215 0.0
H649 H 0.93061 0.86283 0.41242 0.0
H650 H 0.89105 0.94369 0.35882 0.0
H651 H 0.86003 0.90406 0.44914 0.0
C652 C 0.83231 0.93923 0.4527 0.0
C653 C 0.82322 0.9644 0.44003 0.0
C654 C 0.8997 0.92593 0.37056 0.0
C655 C 0.86469 0.93236 0.41186 0.0
C656 C 0.92274 0.91175 0.35843 0.0
C657 C 0.93453 0.88877 0.37326 0.0
C658 C 0.88833 0.91709 0.39768 0.0
C659 C 0.92239 0.88051 0.40025 0.0
C660 C 0.85297 0.92315 0.43869 0.0
C661 C 0.83465 0.97229 0.4126 0.0
N662 N 0.90001 0.89469 0.41159 0.0
N663 N 0.85495 0.95643 0.39955 0.0
H664 H 0.31007 0.3978 0.17246 0.0
H665 H 0.4325 0.29508 0.22855 0.0
H666 H 0.33723 0.32549 0.1229 0.0
H667 H 0.41629 0.37707 0.26458 0.0
H668 H 0.39276 0.30159 0.19428 0.0
H669 H 0.34357 0.3857 0.21151 0.0
C670 C 0.32296 0.37924 0.16991 0.0
C671 C 0.32115 0.36286 0.1442 0.0
C672 C 0.3979 0.31805 0.20982 0.0
C673 C 0.35958 0.34885 0.18884 0.0
C674 C 0.42054 0.31435 0.22937 0.0
C675 C 0.42795 0.33568 0.24925 0.0
C676 C 0.38245 0.3431 0.21042 0.0
C677 C 0.41164 0.36019 0.2494 0.0
C678 C 0.34207 0.37233 0.19221 0.0
C679 C 0.33791 0.33869 0.14237 0.0
N680 N 0.38974 0.36321 0.23028 0.0
N681 N 0.35667 0.33255 0.16427 0.0
H682 H 0.68513 0.59136 0.67509 0.0
H683 H 0.56004 0.69368 0.72572 0.0
H684 H 0.65862 0.66249 0.62355 0.0
H685 H 0.57842 0.61374 0.76533 0.0
H686 H 0.60065 0.68714 0.6925 0.0
H687 H 0.65108 0.60429 0.71329 0.0
C688 C 0.67226 0.60984 0.67194 0.0
C689 C 0.67443 0.62565 0.64595 0.0
C690 C 0.59578 0.67117 0.70861 0.0
C691 C 0.63529 0.64059 0.68954 0.0
C692 C 0.57265 0.67488 0.72755 0.0
C693 C 0.56558 0.65407 0.74806 0.0
C694 C 0.612 0.64663 0.71051 0.0
C695 C 0.58274 0.63017 0.74957 0.0
C696 C 0.65283 0.61724 0.69374 0.0
C697 C 0.65764 0.64974 0.64329 0.0
N698 N 0.60503 0.62711 0.73104 0.0
N699 N 0.63852 0.65632 0.66468 0.0
H700 H 0.65772 0.32645 0.12536 0.0
H701 H 0.57192 0.37999 0.26588 0.0
H702 H 0.68039 0.39923 0.17638 0.0
H703 H 0.56017 0.29768 0.229 0.0
H704 H 0.61188 0.38686 0.23294 0.0
H705 H 0.62294 0.31435 0.16329 0.0
C706 C 0.65577 0.33961 0.14478 0.0
C707 C 0.67178 0.36409 0.14752 0.0
C708 C 0.6007 0.36722 0.23209 0.0
C709 C 0.63165 0.35066 0.19062 0.0
C710 C 0.5777 0.36333 0.25079 0.0
C711 C 0.56245 0.33829 0.25004 0.0
C712 C 0.60848 0.34608 0.21213 0.0
C713 C 0.57126 0.31734 0.23026 0.0
C714 C 0.63577 0.33278 0.16632 0.0
C715 C 0.6681 0.3805 0.17301 0.0
N716 N 0.59358 0.3218 0.21187 0.0
N717 N 0.64824 0.37365 0.19338 0.0
H718 H 0.34758 0.57845 0.63684 0.0
H719 H 0.41696 0.69227 0.74363 0.0
H720 H 0.30664 0.65734 0.65461 0.0
H721 H 0.44163 0.60555 0.73951 0.0
H722 H 0.37861 0.68234 0.70831 0.0
H723 H 0.38435 0.59041 0.67189 0.0
C724 C 0.34602 0.59817 0.64845 0.0
C725 C 0.32359 0.61668 0.64303 0.0
C726 C 0.39248 0.66559 0.71528 0.0
C727 C 0.36647 0.63095 0.68297 0.0
C728 C 0.41441 0.67125 0.73529 0.0
C729 C 0.43255 0.64973 0.74463 0.0
C730 C 0.389 0.63834 0.70439 0.0
C731 C 0.42818 0.62285 0.73317 0.0
C732 C 0.36727 0.60512 0.66835 0.0
C733 C 0.32353 0.64243 0.65804 0.0
N734 N 0.40699 0.618 0.7137 0.0
N735 N 0.34468 0.64883 0.67737 0.0
H736 H 0.80746 0.90099 0.17829 0.0
H737 H 0.92934 0.79461 0.22758 0.0
H738 H 0.82947 0.82777 0.12745 0.0
H739 H 0.91979 0.87835 0.26157 0.0
H740 H 0.88763 0.8021 0.19618 0.0
H741 H 0.84295 0.88808 0.21507 0.0
C742 C 0.8196 0.88206 0.17499 0.0
C743 C 0.81578 0.86567 0.14953 0.0
C744 C 0.89468 0.81873 0.21064 0.0
C745 C 0.85646 0.85073 0.19159 0.0
C746 C 0.91844 0.81448 0.22855 0.0
C747 C 0.92828 0.83599 0.24698 0.0
C748 C 0.88053 0.84451 0.21152 0.0
C749 C 0.91326 0.86129 0.24742 0.0
C750 C 0.83986 0.8747 0.196 0.0
C751 C 0.83168 0.841 0.14677 0.0
N752 N 0.8902 0.86482 0.22996 0.0
N753 N 0.85156 0.83441 0.1674 0.0
H754 H 0.18425 0.08954 0.67615 0.0
H755 H 0.05975 0.1932 0.72541 0.0
H756 H 0.15867 0.16053 0.62389 0.0
H757 H 0.07643 0.11285 0.76487 0.0
H758 H 0.1005 0.1861 0.69251 0.0
H759 H 0.14982 0.1028 0.71384 0.0
C760 C 0.1715 0.10805 0.67272 0.0
C761 C 0.17405 0.12373 0.64667 0.0
C762 C 0.09523 0.17015 0.70851 0.0
C763 C 0.13449 0.13906 0.68973 0.0
C764 C 0.07202 0.17419 0.72728 0.0
C765 C 0.06443 0.15344 0.74767 0.0
C766 C 0.11104 0.14536 0.71046 0.0
C767 C 0.08117 0.12926 0.74922 0.0
C768 C 0.15185 0.11564 0.69425 0.0
C769 C 0.15741 0.14788 0.64368 0.0
N770 N 0.10357 0.1259 0.73086 0.0
N771 N 0.13808 0.15466 0.66482 0.0
H772 H 0.18988 0.87461 0.16437 0.0
H773 H 0.04781 0.79739 0.21188 0.0
H774 H 0.13118 0.84179 0.10023 0.0
H775 H 0.08296 0.86642 0.26086 0.0
H776 H 0.08525 0.80291 0.1746 0.0
H777 H 0.15762 0.86054 0.20426 0.0
C778 C 0.17044 0.86395 0.15882 0.0
C779 C 0.16294 0.85941 0.12918 0.0
C780 C 0.08479 0.81662 0.19369 0.0
C781 C 0.12633 0.84325 0.17425 0.0
C782 C 0.06357 0.81346 0.21492 0.0
C783 C 0.0622 0.8317 0.23921 0.0
C784 C 0.10502 0.83769 0.19729 0.0
C785 C 0.08309 0.8522 0.24219 0.0
C786 C 0.15205 0.8561 0.18144 0.0
C787 C 0.13748 0.84574 0.12292 0.0
N788 N 0.10369 0.85462 0.22148 0.0
N789 N 0.11999 0.83814 0.14531 0.0
H790 H 0.83369 0.16018 0.62046 0.0
H791 H 0.92014 0.10842 0.76101 0.0
H792 H 0.81185 0.08772 0.67206 0.0
H793 H 0.93115 0.19078 0.72434 0.0
H794 H 0.88025 0.10115 0.72815 0.0
H795 H 0.86836 0.17309 0.65835 0.0
C796 C 0.83579 0.14727 0.64 0.0
C797 C 0.82009 0.12263 0.64293 0.0
C798 C 0.89123 0.1209 0.7273 0.0
C799 C 0.86004 0.13699 0.68596 0.0
C800 C 0.91422 0.12502 0.74596 0.0
C801 C 0.92926 0.15018 0.74525 0.0
C802 C 0.88323 0.14192 0.7074 0.0
C803 C 0.92023 0.17102 0.72553 0.0
C804 C 0.85572 0.15457 0.66151 0.0
C805 C 0.82391 0.10657 0.66858 0.0
N806 N 0.89791 0.16633 0.70714 0.0
N807 N 0.84368 0.11387 0.6889 0.0
loop_
_geom_bond_atom_site_label_1
_geom_bond_atom_site_label_2
_geom_bond_distance
_geom_bond_site_symmetry_2
_ccdc_geom_bond_type
C0 C1 1.384 . S
C0 H13 0.947 . S
C0 C35 1.382 . S
C1 C0 1.384 . S
C1 C2 1.378 . S
C2 C1 1.378 . S
C2 C3 1.378 . S
C2 H14 0.952 . S
C3 C2 1.378 . S
C3 H15 0.950 . S
C3 C34 1.383 . S
H4 C23 0.947 . S
H5 C24 0.946 1_554 S
H6 C26 0.953 . S
H7 C27 0.945 . S
H8 C29 0.952 . S
H9 C30 0.949 . S
H10 C32 0.950 . S
H11 C33 0.948 1_554 S
H12 C35 0.951 . S
H13 C0 0.947 . S
H14 C2 0.952 . S
H15 C3 0.950 . S
N16 C19 1.382 1_554 S
N16 C21 1.363 . S
N17 C19 1.371 . S
N17 C20 1.372 . S
N18 C20 1.361 1_554 S
N18 C21 1.377 . S
C19 N16 1.382 1_556 S
C19 N17 1.371 . S
C19 C22 1.480 . S
C20 N17 1.372 . S
C20 N18 1.361 1_556 S
C20 C28 1.457 . S
C21 N16 1.363 . S
C21 N18 1.377 . S
C21 C34 1.479 . S
C22 C19 1.480 . S
C22 C23 1.383 1_556 S
C22 C27 1.385 . S
C23 H4 0.947 . S
C23 C22 1.383 1_554 S
C23 C24 1.388 1_554 S
C24 H5 0.946 1_556 S
C24 C23 1.388 1_556 S
C24 C25 1.384 . S
C25 C24 1.384 . S
C25 C26 1.377 . S
C26 H6 0.953 . S
C26 C25 1.377 . S
C26 C27 1.369 . S
C27 H7 0.945 . S
C27 C22 1.385 . S
C27 C26 1.369 . S
C28 C20 1.457 . S
C28 C29 1.372 . S
C28 C33 1.364 . S
C29 H8 0.952 . S
C29 C28 1.372 . S
C29 C30 1.389 . S
C30 H9 0.949 . S
C30 C29 1.389 . S
C30 C31 1.387 . S
C31 C30 1.387 . S
C31 C32 1.372 . S
C32 H10 0.950 . S
C32 C31 1.372 . S
C32 C33 1.379 . S
C33 H11 0.948 1_556 S
C33 C28 1.364 . S
C33 C32 1.379 . S
C34 C3 1.383 . S
C34 C21 1.479 . S
C34 C35 1.398 . S
C35 C0 1.382 . S
C35 H12 0.951 . S
C35 C34 1.398 . S
C36 C37 1.384 . S
C36 H49 0.947 . S
C36 C71 1.382 . S
C37 C36 1.384 . S
C37 C38 1.378 . S
C38 C37 1.378 . S
C38 C39 1.378 . S
C38 H50 0.952 . S
C39 C38 1.378 . S
C39 H51 0.950 . S
C39 C70 1.383 . S
H40 C59 0.947 . S
H41 C60 0.946 . S
H42 C62 0.953 . S
H43 C63 0.945 . S
H44 C65 0.952 . S
H45 C66 0.949 . S
H46 C68 0.950 . S
H47 C69 0.948 . S
H48 C71 0.951 . S
H49 C36 0.947 . S
H50 C38 0.952 . S
H51 C39 0.950 . S
N52 C55 1.382 . S
N52 C57 1.363 . S
N53 C55 1.371 . S
N53 C56 1.372 . S
N54 C56 1.361 . S
N54 C57 1.377 . S
C55 N52 1.382 . S
C55 N53 1.371 . S
C55 C58 1.480 . S
C56 N53 1.372 . S
C56 N54 1.361 . S
C56 C64 1.457 . S
C57 N52 1.363 . S
C57 N54 1.377 . S
C57 C70 1.479 . S
C58 C55 1.480 . S
C58 C59 1.383 . S
C58 C63 1.385 . S
C59 H40 0.947 . S
C59 C58 1.383 . S
C59 C60 1.388 . S
C60 H41 0.946 . S
C60 C59 1.388 . S
C60 C61 1.384 . S
C61 C60 1.384 . S
C61 C62 1.377 . S
C62 H42 0.953 . S
C62 C61 1.377 . S
C62 C63 1.369 . S
C63 H43 0.945 . S
C63 C58 1.385 . S
C63 C62 1.369 . S
C64 C56 1.457 . S
C64 C65 1.372 . S
C64 C69 1.364 . S
C65 H44 0.952 . S
C65 C64 1.372 . S
C65 C66 1.389 . S
C66 H45 0.949 . S
C66 C65 1.389 . S
C66 C67 1.387 . S
C67 C66 1.387 . S
C67 C68 1.372 . S
C68 H46 0.950 . S
C68 C67 1.372 . S
C68 C69 1.379 . S
C69 H47 0.948 . S
C69 C64 1.364 . S
C69 C68 1.379 . S
C70 C39 1.383 . S
C70 C57 1.479 . S
C70 C71 1.398 . S
C71 C36 1.382 . S
C71 H48 0.951 . S
C71 C70 1.398 . S
C72 C73 1.384 . S
C72 H85 0.947 . S
C72 C107 1.382 . S
C73 C72 1.384 . S
C73 C74 1.378 . S
C74 C73 1.378 . S
C74 C75 1.378 . S
C74 H86 0.952 . S
C75 C74 1.378 . S
C75 H87 0.950 . S
C75 C106 1.383 . S
H76 C95 0.947 . S
H77 C96 0.946 . S
H78 C98 0.953 . S
H79 C99 0.945 . S
H80 C101 0.952 . S
H81 C102 0.949 . S
H82 C104 0.950 . S
H83 C105 0.948 1_554 S
H84 C107 0.951 . S
H85 C72 0.947 . S
H86 C74 0.952 . S
H87 C75 0.950 . S
N88 C91 1.382 . S
N88 C93 1.363 . S
N89 C91 1.371 1_556 S
N89 C92 1.372 . S
N90 C92 1.361 1_554 S
N90 C93 1.377 . S
C91 N88 1.382 . S
C91 N89 1.371 1_554 S
C91 C94 1.480 1_554 S
C92 N89 1.372 . S
C92 N90 1.361 1_556 S
C92 C100 1.457 . S
C93 N88 1.363 . S
C93 N90 1.377 . S
C93 C106 1.479 . S
C94 C91 1.480 1_556 S
C94 C95 1.383 1_556 S
C94 C99 1.385 . S
C95 H76 0.947 . S
C95 C94 1.383 1_554 S
C95 C96 1.388 1_554 S
C96 H77 0.946 . S
C96 C95 1.388 1_556 S
C96 C97 1.384 . S
C97 C96 1.384 . S
C97 C98 1.377 . S
C98 H78 0.953 . S
C98 C97 1.377 . S
C98 C99 1.369 . S
C99 H79 0.945 . S
C99 C94 1.385 . S
C99 C98 1.369 . S
C100 C92 1.457 . S
C100 C101 1.372 . S
C100 C105 1.364 . S
C101 H80 0.952 . S
C101 C100 1.372 . S
C101 C102 1.389 . S
C102 H81 0.949 . S
C102 C101 1.389 . S
C102 C103 1.387 . S
C103 C102 1.387 . S
C103 C104 1.372 . S
C104 H82 0.950 . S
C104 C103 1.372 . S
C104 C105 1.379 . S
C105 H83 0.948 1_556 S
C105 C100 1.364 . S
C105 C104 1.379 . S
C106 C75 1.383 . S
C106 C93 1.479 . S
C106 C107 1.398 . S
C107 C72 1.382 . S
C107 H84 0.951 . S
C107 C106 1.398 . S
C108 C109 1.384 . S
C108 H121 0.947 . S
C108 C143 1.382 . S
C109 C108 1.384 . S
C109 C110 1.378 . S
C110 C109 1.378 . S
C110 C111 1.378 . S
C110 H122 0.952 . S
C111 C110 1.378 . S
C111 H123 0.950 . S
C111 C142 1.383 . S
H112 C131 0.947 . S
H113 C132 0.946 . S
H114 C134 0.953 . S
H115 C135 0.945 . S
H116 C137 0.952 . S
H117 C138 0.949 . S
H118 C140 0.950 . S
H119 C141 0.948 . S
H120 C143 0.951 . S
H121 C108 0.947 . S
H122 C110 0.952 . S
H123 C111 0.950 . S
N124 C127 1.382 . S
N124 C129 1.363 . S
N125 C127 1.371 . S
N125 C128 1.372 . S
N126 C128 1.361 . S
N126 C129 1.377 . S
C127 N124 1.382 . S
C127 N125 1.371 . S
C127 C130 1.480 . S
C128 N125 1.372 . S
C128 N126 1.361 . S
C128 C136 1.457 . S
C129 N124 1.363 . S
C129 N126 1.377 . S
C129 C142 1.479 . S
C130 C127 1.480 . S
C130 C131 1.383 . S
C130 C135 1.385 . S
C131 H112 0.947 . S
C131 C130 1.383 . S
C131 C132 1.388 . S
C132 H113 0.946 . S
C132 C131 1.388 . S
C132 C133 1.384 . S
C133 C132 1.384 . S
C133 C134 1.377 . S
C134 H114 0.953 . S
C134 C133 1.377 . S
C134 C135 1.369 . S
C135 H115 0.945 . S
C135 C130 1.385 . S
C135 C134 1.369 . S
C136 C128 1.457 . S
C136 C137 1.372 . S
C136 C141 1.364 . S
C137 H116 0.952 . S
C137 C136 1.372 . S
C137 C138 1.389 . S
C138 H117 0.949 . S
C138 C137 1.389 . S
C138 C139 1.387 . S
C139 C138 1.387 . S
C139 C140 1.372 . S
C140 H118 0.950 . S
C140 C139 1.372 . S
C140 C141 1.379 . S
C141 H119 0.948 . S
C141 C136 1.364 . S
C141 C140 1.379 . S
C142 C111 1.383 . S
C142 C129 1.479 . S
C142 C143 1.398 . S
C143 C108 1.382 . S
C143 H120 0.951 . S
C143 C142 1.398 . S
C144 C145 1.384 . S
C144 H157 0.947 . S
C144 C179 1.382 . S
C145 C144 1.384 . S
C145 C146 1.378 . S
C146 C145 1.378 . S
C146 C147 1.378 . S
C146 H158 0.952 . S
C147 C146 1.378 . S
C147 H159 0.950 . S
C147 C178 1.383 . S
H148 C167 0.947 . S
H149 C168 0.946 1_554 S
H150 C170 0.953 . S
H151 C171 0.945 . S
H152 C173 0.952 . S
H153 C174 0.949 . S
H154 C176 0.950 . S
H155 C177 0.948 1_554 S
H156 C179 0.951 . S
H157 C144 0.947 . S
H158 C146 0.952 . S
H159 C147 0.950 . S
N160 C163 1.382 1_554 S
N160 C165 1.363 . S
N161 C163 1.371 . S
N161 C164 1.372 . S
N162 C164 1.361 1_554 S
N162 C165 1.377 . S
C163 N160 1.382 1_556 S
C163 N161 1.371 . S
C163 C166 1.480 . S
C164 N161 1.372 . S
C164 N162 1.361 1_556 S
C164 C172 1.457 . S
C165 N160 1.363 . S
C165 N162 1.377 . S
C165 C178 1.479 . S
C166 C163 1.480 . S
C166 C167 1.383 1_556 S
C166 C171 1.385 . S
C167 H148 0.947 . S
C167 C166 1.383 1_554 S
C167 C168 1.388 1_554 S
C168 H149 0.946 1_556 S
C168 C167 1.388 1_556 S
C168 C169 1.384 . S
C169 C168 1.384 . S
C169 C170 1.377 . S
C170 H150 0.953 . S
C170 C169 1.377 . S
C170 C171 1.369 . S
C171 H151 0.945 . S
C171 C166 1.385 . S
C171 C170 1.369 . S
C172 C164 1.457 . S
C172 C173 1.372 . S
C172 C177 1.364 . S
C173 H152 0.952 . S
C173 C172 1.372 . S
C173 C174 1.389 . S
C174 H153 0.949 . S
C174 C173 1.389 . S
C174 C175 1.387 . S
C175 C174 1.387 . S
C175 C176 1.372 . S
C176 H154 0.950 . S
C176 C175 1.372 . S
C176 C177 1.379 . S
C177 H155 0.948 1_556 S
C177 C172 1.364 . S
C177 C176 1.379 . S
C178 C147 1.383 . S
C178 C165 1.479 . S
C178 C179 1.398 . S
C179 C144 1.382 . S
C179 H156 0.951 . S
C179 C178 1.398 . S
C180 C181 1.384 . S
C180 H193 0.947 . S
C180 C215 1.382 . S
C181 C180 1.384 . S
C181 C182 1.378 . S
C182 C181 1.378 . S
C182 C183 1.378 . S
C182 H194 0.952 . S
C183 C182 1.378 . S
C183 H195 0.950 . S
C183 C214 1.383 . S
H184 C203 0.947 . S
H185 C204 0.946 . S
H186 C206 0.953 . S
H187 C207 0.945 . S
H188 C209 0.952 . S
H189 C210 0.949 . S
H190 C212 0.950 . S
H191 C213 0.948 . S
H192 C215 0.951 . S
H193 C180 0.947 . S
H194 C182 0.952 . S
H195 C183 0.950 . S
N196 C199 1.382 . S
N196 C201 1.363 . S
N197 C199 1.371 . S
N197 C200 1.372 . S
N198 C200 1.361 . S
N198 C201 1.377 . S
C199 N196 1.382 . S
C199 N197 1.371 . S
C199 C202 1.480 . S
C200 N197 1.372 . S
C200 N198 1.361 . S
C200 C208 1.457 . S
C201 N196 1.363 . S
C201 N198 1.377 . S
C201 C214 1.479 . S
C202 C199 1.480 . S
C202 C203 1.383 . S
C202 C207 1.385 . S
C203 H184 0.947 . S
C203 C202 1.383 . S
C203 C204 1.388 . S
C204 H185 0.946 . S
C204 C203 1.388 . S
C204 C205 1.384 . S
C205 C204 1.384 . S
C205 C206 1.377 . S
C206 H186 0.953 . S
C206 C205 1.377 . S
C206 C207 1.369 . S
C207 H187 0.945 . S
C207 C202 1.385 . S
C207 C206 1.369 . S
C208 C200 1.457 . S
C208 C209 1.372 . S
C208 C213 1.364 . S
C209 H188 0.952 . S
C209 C208 1.372 . S
C209 C210 1.389 . S
C210 H189 0.949 . S
C210 C209 1.389 . S
C210 C211 1.387 . S
C211 C210 1.387 . S
C211 C212 1.372 . S
C212 H190 0.950 . S
C212 C211 1.372 . S
C212 C213 1.379 . S
C213 H191 0.948 . S
C213 C208 1.364 . S
C213 C212 1.379 . S
C214 C183 1.383 . S
C214 C201 1.479 . S
C214 C215 1.398 . S
C215 C180 1.382 . S
C215 H192 0.951 . S
C215 C214 1.398 . S
C216 C217 1.384 . S
C216 H229 0.947 . S
C216 C251 1.382 . S
C217 C216 1.384 . S
C217 C218 1.378 . S
C218 C217 1.378 . S
C218 C219 1.378 . S
C218 H230 0.952 . S
C219 C218 1.378 . S
C219 H231 0.950 . S
C219 C250 1.383 . S
H220 C239 0.947 . S
H221 C240 0.946 . S
H222 C242 0.953 . S
H223 C243 0.945 . S
H224 C245 0.952 . S
H225 C246 0.949 . S
H226 C248 0.950 1_545 S
H227 C249 0.948 1_554 S
H228 C251 0.951 . S
H229 C216 0.947 . S
H230 C218 0.952 . S
H231 C219 0.950 . S
N232 C235 1.382 . S
N232 C237 1.363 . S
N233 C235 1.371 1_556 S
N233 C236 1.372 . S
N234 C236 1.361 1_554 S
N234 C237 1.377 . S
C235 N232 1.382 . S
C235 N233 1.371 1_554 S
C235 C238 1.480 1_554 S
C236 N233 1.372 . S
C236 N234 1.361 1_556 S
C236 C244 1.457 . S
C237 N232 1.363 . S
C237 N234 1.377 . S
C237 C250 1.479 . S
C238 C235 1.480 1_556 S
C238 C239 1.383 1_556 S
C238 C243 1.385 . S
C239 H220 0.947 . S
C239 C238 1.383 1_554 S
C239 C240 1.388 1_554 S
C240 H221 0.946 . S
C240 C239 1.388 1_556 S
C240 C241 1.384 . S
C241 C240 1.384 . S
C241 C242 1.377 . S
C242 H222 0.953 . S
C242 C241 1.377 . S
C242 C243 1.369 . S
C243 H223 0.945 . S
C243 C238 1.385 . S
C243 C242 1.369 . S
C244 C236 1.457 . S
C244 C245 1.372 . S
C244 C249 1.364 . S
C245 H224 0.952 . S
C245 C244 1.372 . S
C245 C246 1.389 . S
C246 H225 0.949 . S
C246 C245 1.389 . S
C246 C247 1.387 . S
C247 C246 1.387 . S
C247 C248 1.372 . S
C248 H226 0.950 1_565 S
C248 C247 1.372 . S
C248 C249 1.379 . S
C249 H227 0.948 1_556 S
C249 C244 1.364 . S
C249 C248 1.379 . S
C250 C219 1.383 . S
C250 C237 1.479 . S
C250 C251 1.398 . S
C251 C216 1.382 . S
C251 H228 0.951 . S
C251 C250 1.398 . S
C252 C253 1.384 . S
C252 H265 0.947 . S
C252 C287 1.382 . S
C253 C252 1.384 . S
C253 C254 1.378 . S
C254 C253 1.378 . S
C254 C255 1.378 . S
C254 H266 0.952 . S
C255 C254 1.378 . S
C255 H267 0.950 . S
C255 C286 1.383 . S
H256 C275 0.947 . S
H257 C276 0.946 . S
H258 C278 0.953 . S
H259 C279 0.945 . S
H260 C281 0.952 . S
H261 C282 0.949 . S
H262 C284 0.950 1_565 S
H263 C285 0.948 . S
H264 C287 0.951 . S
H265 C252 0.947 . S
H266 C254 0.952 . S
H267 C255 0.950 . S
N268 C271 1.382 . S
N268 C273 1.363 . S
N269 C271 1.371 . S
N269 C272 1.372 . S
N270 C272 1.361 . S
N270 C273 1.377 . S
C271 N268 1.382 . S
C271 N269 1.371 . S
C271 C274 1.480 . S
C272 N269 1.372 . S
C272 N270 1.361 . S
C272 C280 1.457 . S
C273 N268 1.363 . S
C273 N270 1.377 . S
C273 C286 1.479 . S
C274 C271 1.480 . S
C274 C275 1.383 . S
C274 C279 1.385 . S
C275 H256 0.947 . S
C275 C274 1.383 . S
C275 C276 1.388 . S
C276 H257 0.946 . S
C276 C275 1.388 . S
C276 C277 1.384 . S
C277 C276 1.384 . S
C277 C278 1.377 . S
C278 H258 0.953 . S
C278 C277 1.377 . S
C278 C279 1.369 . S
C279 H259 0.945 . S
C279 C274 1.385 . S
C279 C278 1.369 . S
C280 C272 1.457 . S
C280 C281 1.372 . S
C280 C285 1.364 . S
C281 H260 0.952 . S
C281 C280 1.372 . S
C281 C282 1.389 . S
C282 H261 0.949 . S
C282 C281 1.389 . S
C282 C283 1.387 . S
C283 C282 1.387 . S
C283 C284 1.372 . S
C284 H262 0.950 1_545 S
C284 C283 1.372 . S
C284 C285 1.379 . S
C285 H263 0.948 . S
C285 C280 1.364 . S
C285 C284 1.379 . S
C286 C255 1.383 . S
C286 C273 1.479 . S
C286 C287 1.398 . S
C287 C252 1.382 . S
C287 H264 0.951 . S
C287 C286 1.398 . S
Sc288 O291 2.025 . S
Sc288 O298 2.105 1_455 S
Sc288 O301 2.105 . S
Sc288 O304 2.105 . S
Sc288 O307 2.105 1_455 S
Sc289 O291 2.025 . S
Sc289 O299 2.105 1_455 S
Sc289 O303 2.105 . S
Sc289 O305 2.105 . S
Sc289 O309 2.105 1_455 S
Sc290 O291 2.025 . S
Sc290 O300 2.105 1_455 S
Sc290 O302 2.105 . S
Sc290 O306 2.105 . S
Sc290 O308 2.105 1_455 S
O291 Sc288 2.025 . S
O291 Sc289 2.025 . S
O291 Sc290 2.025 . S
C292 O298 1.268 . S
C292 O308 1.268 . S
C293 O299 1.268 . S
C293 O307 1.268 . S
C294 O300 1.268 . S
C294 O309 1.268 . S
C295 O301 1.268 . S
C295 O305 1.268 . S
C296 O302 1.268 . S
C296 O304 1.268 . S
C297 O303 1.268 . S
C297 O306 1.268 . S
O298 Sc288 2.105 1_655 S
O298 C292 1.268 . S
O299 Sc289 2.105 1_655 S
O299 C293 1.268 . S
O300 Sc290 2.105 1_655 S
O300 C294 1.268 . S
O301 Sc288 2.105 . S
O301 C295 1.268 . S
O302 Sc290 2.105 . S
O302 C296 1.268 . S
O303 Sc289 2.105 . S
O303 C297 1.268 . S
O304 Sc288 2.105 . S
O304 C296 1.268 . S
O305 Sc289 2.105 . S
O305 C295 1.268 . S
O306 Sc290 2.105 . S
O306 C297 1.268 . S
O307 Sc288 2.105 1_655 S
O307 C293 1.268 . S
O308 Sc290 2.105 1_655 S
O308 C292 1.268 . S
O309 Sc289 2.105 1_655 S
O309 C294 1.268 . S
Sc310 O313 2.025 . S
Sc310 O320 2.105 . S
Sc310 O323 2.105 1_455 S
Sc310 O326 2.105 1_455 S
Sc310 O329 2.105 . S
Sc311 O313 2.025 . S
Sc311 O321 2.105 . S
Sc311 O325 2.105 1_455 S
Sc311 O327 2.105 1_455 S
Sc311 O331 2.105 . S
Sc312 O313 2.025 . S
Sc312 O322 2.105 . S
Sc312 O324 2.105 1_455 S
Sc312 O328 2.105 1_455 S
Sc312 O330 2.105 . S
O313 Sc310 2.025 . S
O313 Sc311 2.025 . S
O313 Sc312 2.025 . S
C314 O320 1.268 . S
C314 O330 1.268 . S
C315 O321 1.268 . S
C315 O329 1.268 . S
C316 O322 1.268 . S
C316 O331 1.268 . S
C317 O323 1.268 . S
C317 O327 1.268 . S
C318 O324 1.268 . S
C318 O326 1.268 . S
C319 O325 1.268 . S
C319 O328 1.268 . S
O320 Sc310 2.105 . S
O320 C314 1.268 . S
O321 Sc311 2.105 . S
O321 C315 1.268 . S
O322 Sc312 2.105 . S
O322 C316 1.268 . S
O323 Sc310 2.105 1_655 S
O323 C317 1.268 . S
O324 Sc312 2.105 1_655 S
O324 C318 1.268 . S
O325 Sc311 2.105 1_655 S
O325 C319 1.268 . S
O326 Sc310 2.105 1_655 S
O326 C318 1.268 . S
O327 Sc311 2.105 1_655 S
O327 C317 1.268 . S
O328 Sc312 2.105 1_655 S
O328 C319 1.268 . S
O329 Sc310 2.105 . S
O329 C315 1.268 . S
O330 Sc312 2.105 . S
O330 C314 1.268 . S
O331 Sc311 2.105 . S
O331 C316 1.268 . S
Sc332 O335 2.025 . S
Sc332 O342 2.105 . S
Sc332 O345 2.105 . S
Sc332 O348 2.105 . S
Sc332 O351 2.105 . S
Sc333 O335 2.025 . S
Sc333 O343 2.105 . S
Sc333 O347 2.105 . S
Sc333 O349 2.105 . S
Sc333 O353 2.105 . S
Sc334 O335 2.025 . S
Sc334 O344 2.105 . S
Sc334 O346 2.105 . S
Sc334 O350 2.105 . S
Sc334 O352 2.105 . S
O335 Sc332 2.025 . S
O335 Sc333 2.025 . S
O335 Sc334 2.025 . S
C336 O342 1.268 . S
C336 O352 1.268 . S
C337 O343 1.268 . S
C337 O351 1.268 . S
C338 O344 1.268 . S
C338 O353 1.268 . S
C339 O345 1.268 . S
C339 O349 1.268 . S
C340 O346 1.268 . S
C340 O348 1.268 . S
C341 O347 1.268 . S
C341 O350 1.268 . S
O342 Sc332 2.105 . S
O342 C336 1.268 . S
O343 Sc333 2.105 . S
O343 C337 1.268 . S
O344 Sc334 2.105 . S
O344 C338 1.268 . S
O345 Sc332 2.105 . S
O345 C339 1.268 . S
O346 Sc334 2.105 . S
O346 C340 1.268 . S
O347 Sc333 2.105 . S
O347 C341 1.268 . S
O348 Sc332 2.105 . S
O348 C340 1.268 . S
O349 Sc333 2.105 . S
O349 C339 1.268 . S
O350 Sc334 2.105 . S
O350 C341 1.268 . S
O351 Sc332 2.105 . S
O351 C337 1.268 . S
O352 Sc334 2.105 . S
O352 C336 1.268 . S
O353 Sc333 2.105 . S
O353 C338 1.268 . S
Sc354 O357 2.025 . S
Sc354 O364 2.105 . S
Sc354 O367 2.105 . S
Sc354 O370 2.105 . S
Sc354 O373 2.105 . S
Sc355 O357 2.025 . S
Sc355 O365 2.105 . S
Sc355 O369 2.105 . S
Sc355 O371 2.105 . S
Sc355 O375 2.105 . S
Sc356 O357 2.025 . S
Sc356 O366 2.105 . S
Sc356 O368 2.105 . S
Sc356 O372 2.105 . S
Sc356 O374 2.105 . S
O357 Sc354 2.025 . S
O357 Sc355 2.025 . S
O357 Sc356 2.025 . S
C358 O364 1.268 . S
C358 O374 1.268 . S
C359 O365 1.268 . S
C359 O373 1.268 . S
C360 O366 1.268 . S
C360 O375 1.268 . S
C361 O367 1.268 . S
C361 O371 1.268 . S
C362 O368 1.268 . S
C362 O370 1.268 . S
C363 O369 1.268 . S
C363 O372 1.268 . S
O364 Sc354 2.105 . S
O364 C358 1.268 . S
O365 Sc355 2.105 . S
O365 C359 1.268 . S
O366 Sc356 2.105 . S
O366 C360 1.268 . S
O367 Sc354 2.105 . S
O367 C361 1.268 . S
O368 Sc356 2.105 . S
O368 C362 1.268 . S
O369 Sc355 2.105 . S
O369 C363 1.268 . S
O370 Sc354 2.105 . S
O370 C362 1.268 . S
O371 Sc355 2.105 . S
O371 C361 1.268 . S
O372 Sc356 2.105 . S
O372 C363 1.268 . S
O373 Sc354 2.105 . S
O373 C359 1.268 . S
O374 Sc356 2.105 . S
O374 C358 1.268 . S
O375 Sc355 2.105 . S
O375 C360 1.268 . S
H376 C382 0.930 . S
H377 C386 0.930 . S
H378 C391 0.929 . S
H379 C389 0.929 . S
H380 C384 0.929 . S
H381 C390 0.929 . S
C382 H376 0.930 . S
C382 C383 1.367 . S
C382 C390 1.378 . S
C383 C382 1.367 . S
C383 C391 1.433 . S
C384 H380 0.929 . S
C384 C386 1.378 . S
C384 C388 1.350 . S
C385 C388 1.463 . S
C385 C390 1.350 . S
C385 N393 1.427 . S
C386 H377 0.930 . S
C386 C384 1.378 . S
C386 C387 1.367 . S
C387 C386 1.367 . S
C387 C389 1.433 . S
C388 C384 1.350 . S
C388 C385 1.463 . S
C388 N392 1.427 . S
C389 H379 0.929 . S
C389 C387 1.433 . S
C389 N392 1.384 . S
C390 H381 0.929 . S
C390 C382 1.378 . S
C390 C385 1.350 . S
C391 H378 0.929 . S
C391 C383 1.433 . S
C391 N393 1.384 . S
N392 C388 1.427 . S
N392 C389 1.384 . S
N393 C385 1.427 . S
N393 C391 1.384 . S
H394 C400 0.930 . S
H395 C404 0.930 . S
H396 C409 0.929 . S
H397 C407 0.929 . S
H398 C402 0.929 . S
H399 C408 0.929 . S
C400 H394 0.930 . S
C400 C401 1.367 . S
C400 C408 1.378 . S
C401 C400 1.367 . S
C401 C409 1.433 . S
C402 H398 0.929 . S
C402 C404 1.378 . S
C402 C406 1.350 . S
C403 C406 1.463 . S
C403 C408 1.350 . S
C403 N411 1.427 . S
C404 H395 0.930 . S
C404 C402 1.378 . S
C404 C405 1.367 . S
C405 C404 1.367 . S
C405 C407 1.433 . S
C406 C402 1.350 . S
C406 C403 1.463 . S
C406 N410 1.427 . S
C407 H397 0.929 . S
C407 C405 1.433 . S
C407 N410 1.384 . S
C408 H399 0.929 . S
C408 C400 1.378 . S
C408 C403 1.350 . S
C409 H396 0.929 . S
C409 C401 1.433 . S
C409 N411 1.384 . S
N410 C406 1.427 . S
N410 C407 1.384 . S
N411 C403 1.427 . S
N411 C409 1.384 . S
H412 C418 0.930 . S
H413 C422 0.930 . S
H414 C427 0.929 . S
H415 C425 0.929 . S
H416 C420 0.929 . S
H417 C426 0.929 . S
C418 H412 0.930 . S
C418 C419 1.367 . S
C418 C426 1.378 . S
C419 C418 1.367 . S
C419 C427 1.433 . S
C420 H416 0.929 . S
C420 C422 1.378 . S
C420 C424 1.350 . S
C421 C424 1.463 . S
C421 C426 1.350 . S
C421 N429 1.427 . S
C422 H413 0.930 . S
C422 C420 1.378 . S
C422 C423 1.367 . S
C423 C422 1.367 . S
C423 C425 1.433 . S
C424 C420 1.350 . S
C424 C421 1.463 . S
C424 N428 1.427 . S
C425 H415 0.929 . S
C425 C423 1.433 . S
C425 N428 1.384 . S
C426 H417 0.929 . S
C426 C418 1.378 . S
C426 C421 1.350 . S
C427 H414 0.929 . S
C427 C419 1.433 . S
C427 N429 1.384 . S
N428 C424 1.427 . S
N428 C425 1.384 . S
N429 C421 1.427 . S
N429 C427 1.384 . S
H430 C436 0.930 . S
H431 C440 0.930 . S
H432 C445 0.929 . S
H433 C443 0.929 . S
H434 C438 0.929 . S
H435 C444 0.929 . S
C436 H430 0.930 . S
C436 C437 1.367 . S
C436 C444 1.378 . S
C437 C436 1.367 . S
C437 C445 1.433 . S
C438 H434 0.929 . S
C438 C440 1.378 . S
C438 C442 1.350 . S
C439 C442 1.463 . S
C439 C444 1.350 . S
C439 N447 1.427 . S
C440 H431 0.930 . S
C440 C438 1.378 . S
C440 C441 1.367 . S
C441 C440 1.367 . S
C441 C443 1.433 . S
C442 C438 1.350 . S
C442 C439 1.463 . S
C442 N446 1.427 . S
C443 H433 0.929 . S
C443 C441 1.433 . S
C443 N446 1.384 . S
C444 H435 0.929 . S
C444 C436 1.378 . S
C444 C439 1.350 . S
C445 H432 0.929 . S
C445 C437 1.433 . S
C445 N447 1.384 . S
N446 C442 1.427 . S
N446 C443 1.384 . S
N447 C439 1.427 . S
N447 C445 1.384 . S
H448 C454 0.930 . S
H449 C458 0.930 . S
H450 C463 0.929 . S
H451 C461 0.929 . S
H452 C456 0.929 . S
H453 C462 0.929 . S
C454 H448 0.930 . S
C454 C455 1.367 . S
C454 C462 1.378 . S
C455 C454 1.367 . S
C455 C463 1.433 . S
C456 H452 0.929 . S
C456 C458 1.378 . S
C456 C460 1.350 . S
C457 C460 1.463 . S
C457 C462 1.350 . S
C457 N465 1.427 . S
C458 H449 0.930 . S
C458 C456 1.378 . S
C458 C459 1.367 . S
C459 C458 1.367 . S
C459 C461 1.433 . S
C460 C456 1.350 . S
C460 C457 1.463 . S
C460 N464 1.427 . S
C461 H451 0.929 . S
C461 C459 1.433 . S
C461 N464 1.384 . S
C462 H453 0.929 . S
C462 C454 1.378 . S
C462 C457 1.350 . S
C463 H450 0.929 . S
C463 C455 1.433 . S
C463 N465 1.384 . S
N464 C460 1.427 . S
N464 C461 1.384 . S
N465 C457 1.427 . S
N465 C463 1.384 . S
H466 C472 0.930 . S
H467 C476 0.930 . S
H468 C481 0.929 . S
H469 C479 0.929 . S
H470 C474 0.929 . S
H471 C480 0.929 . S
C472 H466 0.930 . S
C472 C473 1.367 . S
C472 C480 1.378 . S
C473 C472 1.367 . S
C473 C481 1.433 . S
C474 H470 0.929 . S
C474 C476 1.378 . S
C474 C478 1.350 . S
C475 C478 1.463 . S
C475 C480 1.350 . S
C475 N483 1.427 . S
C476 H467 0.930 . S
C476 C474 1.378 . S
C476 C477 1.367 . S
C477 C476 1.367 . S
C477 C479 1.433 . S
C478 C474 1.350 . S
C478 C475 1.463 . S
C478 N482 1.427 . S
C479 H469 0.929 . S
C479 C477 1.433 . S
C479 N482 1.384 . S
C480 H471 0.929 . S
C480 C472 1.378 . S
C480 C475 1.350 . S
C481 H468 0.929 . S
C481 C473 1.433 . S
C481 N483 1.384 . S
N482 C478 1.427 . S
N482 C479 1.384 . S
N483 C475 1.427 . S
N483 C481 1.384 . S
H484 C490 0.930 . S
H485 C494 0.930 . S
H486 C499 0.929 . S
H487 C497 0.929 . S
H488 C492 0.929 . S
H489 C498 0.929 . S
C490 H484 0.930 . S
C490 C491 1.367 . S
C490 C498 1.378 . S
C491 C490 1.367 . S
C491 C499 1.433 . S
C492 H488 0.929 . S
C492 C494 1.378 . S
C492 C496 1.350 . S
C493 C496 1.463 . S
C493 C498 1.350 . S
C493 N501 1.427 . S
C494 H485 0.930 . S
C494 C492 1.378 . S
C494 C495 1.367 . S
C495 C494 1.367 . S
C495 C497 1.433 . S
C496 C492 1.350 . S
C496 C493 1.463 . S
C496 N500 1.427 . S
C497 H487 0.929 . S
C497 C495 1.433 . S
C497 N500 1.384 . S
C498 H489 0.929 . S
C498 C490 1.378 . S
C498 C493 1.350 . S
C499 H486 0.929 . S
C499 C491 1.433 . S
C499 N501 1.384 . S
N500 C496 1.427 . S
N500 C497 1.384 . S
N501 C493 1.427 . S
N501 C499 1.384 . S
H502 C508 0.930 . S
H503 C512 0.930 . S
H504 C517 0.929 . S
H505 C515 0.929 . S
H506 C510 0.929 . S
H507 C516 0.929 . S
C508 H502 0.930 . S
C508 C509 1.367 . S
C508 C516 1.378 . S
C509 C508 1.367 . S
C509 C517 1.433 . S
C510 H506 0.929 . S
C510 C512 1.378 . S
C510 C514 1.350 . S
C511 C514 1.463 . S
C511 C516 1.350 . S
C511 N519 1.427 . S
C512 H503 0.930 . S
C512 C510 1.378 . S
C512 C513 1.367 . S
C513 C512 1.367 . S
C513 C515 1.433 . S
C514 C510 1.350 . S
C514 C511 1.463 . S
C514 N518 1.427 . S
C515 H505 0.929 . S
C515 C513 1.433 . S
C515 N518 1.384 . S
C516 H507 0.929 . S
C516 C508 1.378 . S
C516 C511 1.350 . S
C517 H504 0.929 . S
C517 C509 1.433 . S
C517 N519 1.384 . S
N518 C514 1.427 . S
N518 C515 1.384 . S
N519 C511 1.427 . S
N519 C517 1.384 . S
H520 C526 0.930 . S
H521 C530 0.930 . S
H522 C535 0.929 . S
H523 C533 0.929 . S
H524 C528 0.929 . S
H525 C534 0.929 . S
C526 H520 0.930 . S
C526 C527 1.367 . S
C526 C534 1.378 . S
C527 C526 1.367 . S
C527 C535 1.433 . S
C528 H524 0.929 . S
C528 C530 1.378 . S
C528 C532 1.350 . S
C529 C532 1.463 . S
C529 C534 1.350 . S
C529 N537 1.427 . S
C530 H521 0.930 . S
C530 C528 1.378 . S
C530 C531 1.367 . S
C531 C530 1.367 . S
C531 C533 1.433 . S
C532 C528 1.350 . S
C532 C529 1.463 . S
C532 N536 1.427 . S
C533 H523 0.929 . S
C533 C531 1.433 . S
C533 N536 1.384 . S
C534 H525 0.929 . S
C534 C526 1.378 . S
C534 C529 1.350 . S
C535 H522 0.929 . S
C535 C527 1.433 . S
C535 N537 1.384 . S
N536 C532 1.427 . S
N536 C533 1.384 . S
N537 C529 1.427 . S
N537 C535 1.384 . S
H538 C544 0.930 . S
H539 C548 0.930 . S
H540 C553 0.929 . S
H541 C551 0.929 . S
H542 C546 0.929 . S
H543 C552 0.929 . S
C544 H538 0.930 . S
C544 C545 1.367 . S
C544 C552 1.378 . S
C545 C544 1.367 . S
C545 C553 1.433 . S
C546 H542 0.929 . S
C546 C548 1.378 . S
C546 C550 1.350 . S
C547 C550 1.463 . S
C547 C552 1.350 . S
C547 N555 1.427 . S
C548 H539 0.930 . S
C548 C546 1.378 . S
C548 C549 1.367 . S
C549 C548 1.367 . S
C549 C551 1.433 . S
C550 C546 1.350 . S
C550 C547 1.463 . S
C550 N554 1.427 . S
C551 H541 0.929 . S
C551 C549 1.433 . S
C551 N554 1.384 . S
C552 H543 0.929 . S
C552 C544 1.378 . S
C552 C547 1.350 . S
C553 H540 0.929 . S
C553 C545 1.433 . S
C553 N555 1.384 . S
N554 C550 1.427 . S
N554 C551 1.384 . S
N555 C547 1.427 . S
N555 C553 1.384 . S
H556 C562 0.930 . S
H557 C566 0.930 . S
H558 C571 0.929 . S
H559 C569 0.929 . S
H560 C564 0.929 . S
H561 C570 0.929 . S
C562 H556 0.930 . S
C562 C563 1.367 . S
C562 C570 1.378 . S
C563 C562 1.367 . S
C563 C571 1.433 . S
C564 H560 0.929 . S
C564 C566 1.378 . S
C564 C568 1.350 . S
C565 C568 1.463 . S
C565 C570 1.350 . S
C565 N573 1.427 . S
C566 H557 0.930 . S
C566 C564 1.378 . S
C566 C567 1.367 . S
C567 C566 1.367 . S
C567 C569 1.433 . S
C568 C564 1.350 . S
C568 C565 1.463 . S
C568 N572 1.427 . S
C569 H559 0.929 . S
C569 C567 1.433 . S
C569 N572 1.384 . S
C570 H561 0.929 . S
C570 C562 1.378 . S
C570 C565 1.350 . S
C571 H558 0.929 . S
C571 C563 1.433 . S
C571 N573 1.384 . S
N572 C568 1.427 . S
N572 C569 1.384 . S
N573 C565 1.427 . S
N573 C571 1.384 . S
H574 C580 0.930 . S
H575 C584 0.930 . S
H576 C589 0.929 . S
H577 C587 0.929 . S
H578 C582 0.929 . S
H579 C588 0.929 . S
C580 H574 0.930 . S
C580 C581 1.367 . S
C580 C588 1.378 . S
C581 C580 1.367 . S
C581 C589 1.433 . S
C582 H578 0.929 . S
C582 C584 1.378 . S
C582 C586 1.350 . S
C583 C586 1.463 . S
C583 C588 1.350 . S
C583 N591 1.427 . S
C584 H575 0.930 . S
C584 C582 1.378 . S
C584 C585 1.367 . S
C585 C584 1.367 . S
C585 C587 1.433 . S
C586 C582 1.350 . S
C586 C583 1.463 . S
C586 N590 1.427 . S
C587 H577 0.929 . S
C587 C585 1.433 . S
C587 N590 1.384 . S
C588 H579 0.929 . S
C588 C580 1.378 . S
C588 C583 1.350 . S
C589 H576 0.929 . S
C589 C581 1.433 . S
C589 N591 1.384 . S
N590 C586 1.427 . S
N590 C587 1.384 . S
N591 C583 1.427 . S
N591 C589 1.384 . S
H592 C598 0.930 . S
H593 C602 0.930 . S
H594 C607 0.929 . S
H595 C605 0.929 . S
H596 C600 0.929 . S
H597 C606 0.929 . S
C598 H592 0.930 . S
C598 C599 1.367 . S
C598 C606 1.378 . S
C599 C598 1.367 . S
C599 C607 1.433 . S
C600 H596 0.929 . S
C600 C602 1.378 . S
C600 C604 1.350 . S
C601 C604 1.463 . S
C601 C606 1.350 . S
C601 N609 1.427 . S
C602 H593 0.930 . S
C602 C600 1.378 . S
C602 C603 1.367 . S
C603 C602 1.367 . S
C603 C605 1.433 . S
C604 C600 1.350 . S
C604 C601 1.463 . S
C604 N608 1.427 . S
C605 H595 0.929 . S
C605 C603 1.433 . S
C605 N608 1.384 . S
C606 H597 0.929 . S
C606 C598 1.378 . S
C606 C601 1.350 . S
C607 H594 0.929 . S
C607 C599 1.433 . S
C607 N609 1.384 . S
N608 C604 1.427 . S
N608 C605 1.384 . S
N609 C601 1.427 . S
N609 C607 1.384 . S
H610 C616 0.930 . S
H611 C620 0.930 . S
H612 C625 0.929 . S
H613 C623 0.929 . S
H614 C618 0.929 . S
H615 C624 0.929 . S
C616 H610 0.930 . S
C616 C617 1.367 . S
C616 C624 1.378 . S
C617 C616 1.367 . S
C617 C625 1.433 . S
C618 H614 0.929 . S
C618 C620 1.378 . S
C618 C622 1.350 . S
C619 C622 1.463 . S
C619 C624 1.350 . S
C619 N627 1.427 . S
C620 H611 0.930 . S
C620 C618 1.378 . S
C620 C621 1.367 . S
C621 C620 1.367 . S
C621 C623 1.433 . S
C622 C618 1.350 . S
C622 C619 1.463 . S
C622 N626 1.427 . S
C623 H613 0.929 . S
C623 C621 1.433 . S
C623 N626 1.384 . S
C624 H615 0.929 . S
C624 C616 1.378 . S
C624 C619 1.350 . S
C625 H612 0.929 . S
C625 C617 1.433 . S
C625 N627 1.384 . S
N626 C622 1.427 . S
N626 C623 1.384 . S
N627 C619 1.427 . S
N627 C625 1.384 . S
H628 C634 0.930 . S
H629 C638 0.930 . S
H630 C643 0.929 1_565 S
H631 C641 0.929 . S
H632 C636 0.929 . S
H633 C642 0.929 . S
C634 H628 0.930 . S
C634 C635 1.367 . S
C634 C642 1.378 . S
C635 C634 1.367 . S
C635 C643 1.433 . S
C636 H632 0.929 . S
C636 C638 1.378 . S
C636 C640 1.350 . S
C637 C640 1.463 . S
C637 C642 1.350 . S
C637 N645 1.427 . S
C638 H629 0.930 . S
C638 C636 1.378 . S
C638 C639 1.367 . S
C639 C638 1.367 . S
C639 C641 1.433 . S
C640 C636 1.350 . S
C640 C637 1.463 . S
C640 N644 1.427 . S
C641 H631 0.929 . S
C641 C639 1.433 . S
C641 N644 1.384 . S
C642 H633 0.929 . S
C642 C634 1.378 . S
C642 C637 1.350 . S
C643 H630 0.929 1_545 S
C643 C635 1.433 . S
C643 N645 1.384 . S
N644 C640 1.427 . S
N644 C641 1.384 . S
N645 C637 1.427 . S
N645 C643 1.384 . S
H646 C652 0.930 . S
H647 C656 0.930 . S
H648 C661 0.929 1_545 S
H649 C659 0.929 . S
H650 C654 0.929 . S
H651 C660 0.929 . S
C652 H646 0.930 . S
C652 C653 1.367 . S
C652 C660 1.378 . S
C653 C652 1.367 . S
C653 C661 1.433 . S
C654 H650 0.929 . S
C654 C656 1.378 . S
C654 C658 1.350 . S
C655 C658 1.463 . S
C655 C660 1.350 . S
C655 N663 1.427 . S
C656 H647 0.930 . S
C656 C654 1.378 . S
C656 C657 1.367 . S
C657 C656 1.367 . S
C657 C659 1.433 . S
C658 C654 1.350 . S
C658 C655 1.463 . S
C658 N662 1.427 . S
C659 H649 0.929 . S
C659 C657 1.433 . S
C659 N662 1.384 . S
C660 H651 0.929 . S
C660 C652 1.378 . S
C660 C655 1.350 . S
C661 H648 0.929 1_565 S
C661 C653 1.433 . S
C661 N663 1.384 . S
N662 C658 1.427 . S
N662 C659 1.384 . S
N663 C655 1.427 . S
N663 C661 1.384 . S
H664 C670 0.930 . S
H665 C674 0.930 . S
H666 C679 0.929 . S
H667 C677 0.929 . S
H668 C672 0.929 . S
H669 C678 0.929 . S
C670 H664 0.930 . S
C670 C671 1.367 . S
C670 C678 1.378 . S
C671 C670 1.367 . S
C671 C679 1.433 . S
C672 H668 0.929 . S
C672 C674 1.378 . S
C672 C676 1.350 . S
C673 C676 1.463 . S
C673 C678 1.350 . S
C673 N681 1.427 . S
C674 H665 0.930 . S
C674 C672 1.378 . S
C674 C675 1.367 . S
C675 C674 1.367 . S
C675 C677 1.433 . S
C676 C672 1.350 . S
C676 C673 1.463 . S
C676 N680 1.427 . S
C677 H667 0.929 . S
C677 C675 1.433 . S
C677 N680 1.384 . S
C678 H669 0.929 . S
C678 C670 1.378 . S
C678 C673 1.350 . S
C679 H666 0.929 . S
C679 C671 1.433 . S
C679 N681 1.384 . S
N680 C676 1.427 . S
N680 C677 1.384 . S
N681 C673 1.427 . S
N681 C679 1.384 . S
H682 C688 0.930 . S
H683 C692 0.930 . S
H684 C697 0.929 . S
H685 C695 0.929 . S
H686 C690 0.929 . S
H687 C696 0.929 . S
C688 H682 0.930 . S
C688 C689 1.367 . S
C688 C696 1.378 . S
C689 C688 1.367 . S
C689 C697 1.433 . S
C690 H686 0.929 . S
C690 C692 1.378 . S
C690 C694 1.350 . S
C691 C694 1.463 . S
C691 C696 1.350 . S
C691 N699 1.427 . S
C692 H683 0.930 . S
C692 C690 1.378 . S
C692 C693 1.367 . S
C693 C692 1.367 . S
C693 C695 1.433 . S
C694 C690 1.350 . S
C694 C691 1.463 . S
C694 N698 1.427 . S
C695 H685 0.929 . S
C695 C693 1.433 . S
C695 N698 1.384 . S
C696 H687 0.929 . S
C696 C688 1.378 . S
C696 C691 1.350 . S
C697 H684 0.929 . S
C697 C689 1.433 . S
C697 N699 1.384 . S
N698 C694 1.427 . S
N698 C695 1.384 . S
N699 C691 1.427 . S
N699 C697 1.384 . S
H700 C706 0.930 . S
H701 C710 0.930 . S
H702 C715 0.929 . S
H703 C713 0.929 . S
H704 C708 0.929 . S
H705 C714 0.929 . S
C706 H700 0.930 . S
C706 C707 1.367 . S
C706 C714 1.378 . S
C707 C706 1.367 . S
C707 C715 1.433 . S
C708 H704 0.929 . S
C708 C710 1.378 . S
C708 C712 1.350 . S
C709 C712 1.463 . S
C709 C714 1.350 . S
C709 N717 1.427 . S
C710 H701 0.930 . S
C710 C708 1.378 . S
C710 C711 1.367 . S
C711 C710 1.367 . S
C711 C713 1.433 . S
C712 C708 1.350 . S
C712 C709 1.463 . S
C712 N716 1.427 . S
C713 H703 0.929 . S
C713 C711 1.433 . S
C713 N716 1.384 . S
C714 H705 0.929 . S
C714 C706 1.378 . S
C714 C709 1.350 . S
C715 H702 0.929 . S
C715 C707 1.433 . S
C715 N717 1.384 . S
N716 C712 1.427 . S
N716 C713 1.384 . S
N717 C709 1.427 . S
N717 C715 1.384 . S
H718 C724 0.930 . S
H719 C728 0.930 . S
H720 C733 0.929 . S
H721 C731 0.929 . S
H722 C726 0.929 . S
H723 C732 0.929 . S
C724 H718 0.930 . S
C724 C725 1.367 . S
C724 C732 1.378 . S
C725 C724 1.367 . S
C725 C733 1.433 . S
C726 H722 0.929 . S
C726 C728 1.378 . S
C726 C730 1.350 . S
C727 C730 1.463 . S
C727 C732 1.350 . S
C727 N735 1.427 . S
C728 H719 0.930 . S
C728 C726 1.378 . S
C728 C729 1.367 . S
C729 C728 1.367 . S
C729 C731 1.433 . S
C730 C726 1.350 . S
C730 C727 1.463 . S
C730 N734 1.427 . S
C731 H721 0.929 . S
C731 C729 1.433 . S
C731 N734 1.384 . S
C732 H723 0.929 . S
C732 C724 1.378 . S
C732 C727 1.350 . S
C733 H720 0.929 . S
C733 C725 1.433 . S
C733 N735 1.384 . S
N734 C730 1.427 . S
N734 C731 1.384 . S
N735 C727 1.427 . S
N735 C733 1.384 . S
H736 C742 0.930 . S
H737 C746 0.930 . S
H738 C751 0.929 . S
H739 C749 0.929 . S
H740 C744 0.929 . S
H741 C750 0.929 . S
C742 H736 0.930 . S
C742 C743 1.367 . S
C742 C750 1.378 . S
C743 C742 1.367 . S
C743 C751 1.433 . S
C744 H740 0.929 . S
C744 C746 1.378 . S
C744 C748 1.350 . S
C745 C748 1.463 . S
C745 C750 1.350 . S
C745 N753 1.427 . S
C746 H737 0.930 . S
C746 C744 1.378 . S
C746 C747 1.367 . S
C747 C746 1.367 . S
C747 C749 1.433 . S
C748 C744 1.350 . S
C748 C745 1.463 . S
C748 N752 1.427 . S
C749 H739 0.929 . S
C749 C747 1.433 . S
C749 N752 1.384 . S
C750 H741 0.929 . S
C750 C742 1.378 . S
C750 C745 1.350 . S
C751 H738 0.929 . S
C751 C743 1.433 . S
C751 N753 1.384 . S
N752 C748 1.427 . S
N752 C749 1.384 . S
N753 C745 1.427 . S
N753 C751 1.384 . S
H754 C760 0.930 . S
H755 C764 0.930 . S
H756 C769 0.929 . S
H757 C767 0.929 . S
H758 C762 0.929 . S
H759 C768 0.929 . S
C760 H754 0.930 . S
C760 C761 1.367 . S
C760 C768 1.378 . S
C761 C760 1.367 . S
C761 C769 1.433 . S
C762 H758 0.929 . S
C762 C764 1.378 . S
C762 C766 1.350 . S
C763 C766 1.463 . S
C763 C768 1.350 . S
C763 N771 1.427 . S
C764 H755 0.930 . S
C764 C762 1.378 . S
C764 C765 1.367 . S
C765 C764 1.367 . S
C765 C767 1.433 . S
C766 C762 1.350 . S
C766 C763 1.463 . S
C766 N770 1.427 . S
C767 H757 0.929 . S
C767 C765 1.433 . S
C767 N770 1.384 . S
C768 H759 0.929 . S
C768 C760 1.378 . S
C768 C763 1.350 . S
C769 H756 0.929 . S
C769 C761 1.433 . S
C769 N771 1.384 . S
N770 C766 1.427 . S
N770 C767 1.384 . S
N771 C763 1.427 . S
N771 C769 1.384 . S
H772 C778 0.930 . S
H773 C782 0.930 . S
H774 C787 0.929 . S
H775 C785 0.929 . S
H776 C780 0.929 . S
H777 C786 0.929 . S
C778 H772 0.930 . S
C778 C779 1.367 . S
C778 C786 1.378 . S
C779 C778 1.367 . S
C779 C787 1.433 . S
C780 H776 0.929 . S
C780 C782 1.378 . S
C780 C784 1.350 . S
C781 C784 1.463 . S
C781 C786 1.350 . S
C781 N789 1.427 . S
C782 H773 0.930 . S
C782 C780 1.378 . S
C782 C783 1.367 . S
C783 C782 1.367 . S
C783 C785 1.433 . S
C784 C780 1.350 . S
C784 C781 1.463 . S
C784 N788 1.427 . S
C785 H775 0.929 . S
C785 C783 1.433 . S
C785 N788 1.384 . S
C786 H777 0.929 . S
C786 C778 1.378 . S
C786 C781 1.350 . S
C787 H774 0.929 . S
C787 C779 1.433 . S
C787 N789 1.384 . S
N788 C784 1.427 . S
N788 C785 1.384 . S
N789 C781 1.427 . S
N789 C787 1.384 . S
H790 C796 0.930 . S
H791 C800 0.930 . S
H792 C805 0.929 . S
H793 C803 0.929 . S
H794 C798 0.929 . S
H795 C804 0.929 . S
C796 H790 0.930 . S
C796 C797 1.367 . S
C796 C804 1.378 . S
C797 C796 1.367 . S
C797 C805 1.433 . S
C798 H794 0.929 . S
C798 C800 1.378 . S
C798 C802 1.350 . S
C799 C802 1.463 . S
C799 C804 1.350 . S
C799 N807 1.427 . S
C800 H791 0.930 . S
C800 C798 1.378 . S
C800 C801 1.367 . S
C801 C800 1.367 . S
C801 C803 1.433 . S
C802 C798 1.350 . S
C802 C799 1.463 . S
C802 N806 1.427 . S
C803 H793 0.929 . S
C803 C801 1.433 . S
C803 N806 1.384 . S
C804 H795 0.929 . S
C804 C796 1.378 . S
C804 C799 1.350 . S
C805 H792 0.929 . S
C805 C797 1.433 . S
C805 N807 1.384 . S
N806 C802 1.427 . S
N806 C803 1.384 . S
N807 C799 1.427 . S
N807 C805 1.384 . S
C383 C25 1.519 . S
C387 C314 1.510 . S
C405 C292 1.524 . S
C401 C61 1.532 . S
C423 C318 1.512 . S
C419 C97 1.555 . S
C441 C296 1.516 . S
C437 C133 1.553 . S
C459 C358 1.516 . S
C455 C169 1.523 . S
C477 C336 1.517 . S
C473 C205 1.523 . S
C491 C241 1.552 . S
C495 C362 1.515 . S
C513 C340 1.523 . S
C509 C277 1.556 . S
C527 C31 1.534 . S
C531 C363 1.564 . S
C549 C341 1.563 . S
C545 C67 1.536 . S
C563 C103 1.554 . S
C567 C360 1.566 . S
C581 C139 1.551 . S
C585 C338 1.570 . S
C603 C319 1.564 . S
C599 C175 1.535 1_545 S
C617 C211 1.526 1_565 S
C621 C297 1.566 . S
C639 C316 1.566 . S
C635 C247 1.552 1_545 S
C657 C294 1.566 . S
C653 C283 1.556 1_565 S
C675 C337 1.534 . S
C671 C1 1.517 . S
C693 C359 1.533 . S
C689 C37 1.518 . S
C707 C73 1.539 . S
C711 C339 1.529 . S
C729 C361 1.537 . S
C725 C109 1.535 . S
C747 C293 1.529 . S
C743 C145 1.521 . S
C761 C181 1.519 . S
C765 C315 1.527 . S
C779 C217 1.541 . S
C783 C295 1.527 . S
C797 C253 1.539 . S
C801 C317 1.532 . S
