# Generated by pormake.
# Topology rtl, (3,6)-cn, num edge types: 1
# Building blocks:
#     Node 0, Type 0, BuildingBlock: PAMTOO_clean_linker_0, # of connection points: 3
#     Node 1, Type 0, BuildingBlock: PAMTOO_clean_linker_0, # of connection points: 3
#     Node 2, Type 0, BuildingBlock: PAMTOO_clean_linker_0, # of connection points: 3
#     Node 3, Type 0, BuildingBlock: PAMTOO_clean_linker_0, # of connection points: 3
#     Node 4, Type 1, BuildingBlock: KUMBOL_clean_sbu_1, # of connection points: 6
#     Node 5, Type 1, BuildingBlock: KUMBOL_clean_sbu_1, # of connection points: 6
#     Edge 6, Type (0, 1), BuildingBlock: UVAHIK_clean_linker_0, # of connection points: 2
#     Edge 7, Type (0, 1), BuildingBlock: UVAHIK_clean_linker_0, # of connection points: 2
#     Edge 8, Type (0, 1), BuildingBlock: UVAHIK_clean_linker_0, # of connection points: 2
#     Edge 9, Type (0, 1), BuildingBlock: UVAHIK_clean_linker_0, # of connection points: 2
#     Edge 10, Type (0, 1), BuildingBlock: UVAHIK_clean_linker_0, # of connection points: 2
#     Edge 11, Type (0, 1), BuildingBlock: UVAHIK_clean_linker_0, # of connection points: 2
#     Edge 12, Type (0, 1), BuildingBlock: UVAHIK_clean_linker_0, # of connection points: 2
#     Edge 13, Type (0, 1), BuildingBlock: UVAHIK_clean_linker_0, # of connection points: 2
#     Edge 14, Type (0, 1), BuildingBlock: UVAHIK_clean_linker_0, # of connection points: 2
#     Edge 15, Type (0, 1), BuildingBlock: UVAHIK_clean_linker_0, # of connection points: 2
#     Edge 16, Type (0, 1), BuildingBlock: UVAHIK_clean_linker_0, # of connection points: 2
#     Edge 17, Type (0, 1), BuildingBlock: UVAHIK_clean_linker_0, # of connection points: 2
# Relax obj value: 0.051
# Max RMSD: 0.206
# Mean RMSD: 0.157
data_MOF--net-rtl--node1-KUMBOL_clean_sbu_1--node2-PAMTOO_clean_linker_0--edge1-UVAHIK_clean_linker_0
_symmetry_space_group_name_H-M    P1
_symmetry_Int_Tables_number       1
_symmetry_cell_setting            triclinic
loop_
_symmetry_equiv_pos_as_xyz
'x, y, z'
_cell_length_a     45.217229
_cell_length_b     45.325163
_cell_length_c     34.320766
_cell_angle_alpha  81.605499
_cell_angle_beta   99.548592
_cell_angle_gamma 90.89508
loop_
_atom_site_label
_atom_site_type_symbol
_atom_site_fract_x
_atom_site_fract_y
_atom_site_fract_z
_atom_type_partial_charge
H0 H 0.17894 0.88356 0.00529 0.0
H1 H 0.23984 0.82057 0.08435 0.0
H2 H 0.23552 0.8278 0.95743 0.0
H3 H 0.23627 0.76807 1.00166 0.0
C4 C 0.25322 0.77094 0.02831 0.0
O5 O 0.26144 0.80049 0.02694 0.0
H6 H 0.24268 0.76392 0.05525 0.0
C7 C 0.19587 0.86616 0.01014 0.0
C8 C 0.20528 0.85694 0.97687 0.0
C9 C 0.20782 0.85321 0.04925 0.0
C10 C 0.23057 0.83141 0.05468 0.0
C11 C 0.24064 0.82248 0.02157 0.0
C12 C 0.22817 0.83542 0.98279 0.0
H13 H 0.63763 0.67211 0.61119 0.0
H14 H 0.70298 0.72506 0.55442 0.0
H15 H 0.69948 0.7266 0.67821 0.0
H16 H 0.71196 0.78636 0.63497 0.0
C17 C 0.72087 0.77889 0.60965 0.0
O18 O 0.72594 0.74846 0.6176 0.0
H19 H 0.70363 0.78448 0.58241 0.0
C20 C 0.65595 0.68783 0.61243 0.0
C21 C 0.66691 0.69805 0.64883 0.0
C22 C 0.66887 0.69703 0.57806 0.0
C23 C 0.6924 0.71775 0.58023 0.0
C24 C 0.70314 0.72865 0.61609 0.0
C25 C 0.69072 0.71845 0.65045 0.0
H26 H 0.8493 0.12919 0.04969 0.0
H27 H 0.78661 0.19297 0.97603 0.0
H28 H 0.79796 0.18674 0.10336 0.0
H29 H 0.73599 0.19095 0.06264 0.0
C30 C 0.73876 0.20669 0.03541 0.0
O31 O 0.7687 0.21331 0.03585 0.0
H32 H 0.73016 0.1956 0.00894 0.0
C33 C 0.83276 0.14672 0.04695 0.0
C34 C 0.8255 0.15605 0.08161 0.0
C35 C 0.81922 0.16001 0.00864 0.0
C36 C 0.79758 0.1826 0.00519 0.0
C37 C 0.78969 0.19172 0.0394 0.0
C38 C 0.80381 0.17875 0.07736 0.0
H39 H 0.37622 0.35797 0.44387 0.0
H40 H 0.3223 0.2915 0.50109 0.0
H41 H 0.32875 0.29323 0.37729 0.0
H42 H 0.26879 0.27555 0.39141 0.0
C43 C 0.27349 0.27172 0.42461 0.0
O44 O 0.3039 0.26679 0.43714 0.0
H45 H 0.26619 0.29222 0.43495 0.0
C46 C 0.36133 0.33904 0.44232 0.0
C47 C 0.35393 0.32737 0.4062 0.0
C48 C 0.35031 0.3262 0.47678 0.0
C49 C 0.33146 0.30134 0.47497 0.0
C50 C 0.32351 0.28965 0.43907 0.0
C51 C 0.33516 0.30232 0.40495 0.0
C52 C 0.94669 0.08133 0.49126 0.0
C53 C 0.89773 0.05842 0.48499 0.0
C54 C 0.92829 0.058 0.50237 0.0
C55 C 0.88652 0.08176 0.45474 0.0
C56 C 0.93522 0.10564 0.46252 0.0
C57 C 0.90522 0.10537 0.44359 0.0
N58 N 0.97575 0.08058 0.50939 0.0
C59 C 0.99407 0.10434 0.50266 0.0
C60 C 0.95422 0.1296 0.45407 0.0
C61 C 0.98366 0.12911 0.47464 0.0
Gd62 Gd 0.03515 0.97802 0.50787 0.0
Gd63 Gd 0.99182 0.03818 0.55526 0.0
N64 N 0.93978 0.03603 0.53213 0.0
C65 C 0.87911 0.03602 0.49966 0.0
C66 C 0.92105 0.01604 0.54915 0.0
C67 C 0.89071 0.01512 0.53249 0.0
H68 H 0.92925 1.00106 0.57604 0.0
H69 H 0.87618 0.99864 0.54545 0.0
H70 H 0.10677 0.99743 0.52389 0.0
H71 H 0.01682 0.10392 0.51854 0.0
H72 H 0.15398 0.9796 0.56845 0.0
H73 H 0.85552 0.03551 0.48713 0.0
H74 H 0.8632 0.08225 0.44068 0.0
H75 H 0.98963 0.91768 0.50857 0.0
H76 H 0.94626 0.14871 0.43219 0.0
H77 H 0.99836 0.14772 0.46879 0.0
H78 H 0.12543 0.88973 0.64582 0.0
H79 H 0.8961 0.1236 0.42093 0.0
H80 H 0.02682 0.8525 0.60676 0.0
H81 H 0.9857 0.86962 0.55129 0.0
N82 N 0.03055 0.92971 0.5428 0.0
C83 C 0.05449 0.91954 0.57076 0.0
C84 C 0.00694 0.9113 0.53401 0.0
C85 C 0.02823 0.87408 0.58885 0.0
C86 C 1.00495 0.88368 0.55762 0.0
C87 C 0.05387 0.89161 0.59489 0.0
H88 H 0.07906 0.86032 0.64211 0.0
N89 N 0.08075 0.96218 0.54813 0.0
C90 C 0.08062 0.93598 0.57291 0.0
C91 C 0.13333 0.9413 0.5978 0.0
C92 C 0.10678 0.92509 0.59908 0.0
C93 C 0.10682 0.97728 0.54509 0.0
C94 C 0.13345 0.96725 0.57021 0.0
O95 O 0.9962 0.04442 0.48967 0.0
O96 O 0.99118 0.99728 0.47379 0.0
O97 O 0.05297 0.99076 0.45281 0.0
O98 O 0.04602 0.94435 0.47347 0.0
O99 O 0.97961 0.98925 0.56809 0.0
O100 O 0.98564 0.97025 0.51111 0.0
O101 O 0.05405 0.99331 0.56684 0.0
O102 O 0.01245 0.99725 0.59505 0.0
O103 O 0.96667 0.05626 0.59538 0.0
O104 O 0.01409 0.06464 0.59915 0.0
O105 O 0.05287 0.02527 0.4988 0.0
O106 O 0.0397 0.05084 0.54799 0.0
C107 C 0.98594 0.02601 0.46455 0.0
C108 C 0.97229 0.97026 0.54249 0.0
C109 C 0.04102 0.95889 0.40423 0.0
C110 C 0.0488 0.94633 0.33978 0.0
C111 C 0.99832 0.95471 0.35253 0.0
C112 C 0.00998 0.96022 0.39102 0.0
C113 C 0.01748 0.94763 0.32713 0.0
C114 C 0.06031 0.95225 0.37858 0.0
C115 C 0.05364 0.96359 0.44502 0.0
C116 C 0.10572 0.8982 0.62494 0.0
C117 C 0.07928 0.88152 0.62291 0.0
H118 H 0.15393 0.93367 0.6174 0.0
C119 C 0.0407 0.98987 0.59823 0.0
C120 C 0.05635 0.04726 0.52064 0.0
C121 C 0.9943 0.05771 0.65953 0.0
C122 C 0.97681 0.05959 0.72286 0.0
C123 C 0.01989 0.02871 0.72059 0.0
C124 C 0.01716 0.03771 0.67952 0.0
C125 C 0.99989 0.03952 0.74218 0.0
C126 C 0.97425 0.06866 0.68136 0.0
C127 C 0.99044 0.06642 0.61583 0.0
H128 H 0.97431 0.95558 0.34249 0.0
H129 H 0.99484 0.96523 0.41058 0.0
H130 H 0.00765 0.94268 0.29786 0.0
H131 H 0.0843 0.95182 0.38898 0.0
H132 H 0.03759 0.0133 0.73576 0.0
H133 H 0.03288 0.02897 0.66343 0.0
H134 H 1.00274 0.03242 0.77411 0.0
H135 H 0.95634 0.08376 0.66586 0.0
C136 C 0.59452 0.57112 0.03448 0.0
C137 C 0.57467 0.62128 0.02727 0.0
C138 C 0.57215 0.5903 0.03881 0.0
C139 C 0.59922 0.63237 0.00949 0.0
C140 C 0.62001 0.58222 0.01869 0.0
C141 C 0.6219 0.61288 0.00531 0.0
N142 N 0.59176 0.54156 0.04698 0.0
C143 C 0.61465 0.52209 0.04776 0.0
C144 C 0.64306 0.56221 0.01756 0.0
C145 C 0.64054 0.53207 0.0327 0.0
Gd146 Gd 0.48639 0.49042 0.99216 0.0
Gd147 Gd 0.54786 0.52641 0.0716 0.0
N148 N 0.54905 0.57886 0.05686 0.0
C149 C 0.55307 0.64025 0.03539 0.0
C150 C 0.52961 0.59749 0.06809 0.0
C151 C 0.53078 0.62833 0.05661 0.0
H152 H 0.51341 0.58875 0.08647 0.0
H153 H 0.5148 0.64291 0.06473 0.0
H154 H 0.50514 0.41862 0.01041 0.0
H155 H 0.61261 0.49882 0.05944 0.0
H156 H 0.48586 0.37099 0.04181 0.0
H157 H 0.55417 0.66419 0.02698 0.0
H158 H 0.60136 0.65607 1.00002 0.0
H159 H 0.42754 0.53874 0.97413 0.0
H160 H 0.66305 0.56986 0.00572 0.0
H161 H 0.65845 0.51653 0.03263 0.0
H162 H 0.39442 0.39934 0.08134 0.0
H163 H 0.6411 0.62183 0.99254 0.0
H164 H 0.36009 0.50027 0.03908 0.0
H165 H 0.37914 0.54296 0.99693 0.0
N166 N 0.43798 0.4958 0.00763 0.0
C167 C 0.42677 0.47128 0.02789 0.0
C168 C 0.42041 0.52065 0.99447 0.0
C169 C 0.38184 0.49867 0.0302 0.0
C170 C 0.39255 0.52283 0.00652 0.0
C171 C 0.39856 0.47213 0.04014 0.0
H172 H 0.36601 0.44655 0.07054 0.0
N173 N 0.46948 0.44458 0.0212 0.0
C174 C 0.44267 0.44469 0.03402 0.0
C175 C 0.44693 0.39154 0.05567 0.0
C176 C 0.43093 0.41826 0.05242 0.0
C177 C 0.48449 0.41847 0.02241 0.0
C178 C 0.47362 0.3916 0.04008 0.0
O179 O 0.55538 0.52631 0.00773 0.0
O180 O 0.50858 0.53333 0.9701 0.0
O181 O 0.49678 0.46916 0.94334 0.0
O182 O 0.45262 0.48761 0.9397 0.0
O183 O 0.49945 0.54209 0.06273 0.0
O184 O 0.481 0.53961 0.99646 0.0
O185 O 0.49893 0.46909 0.057 0.0
O186 O 0.50484 0.50889 0.09094 0.0
O187 O 0.5666 0.54587 0.12531 0.0
O188 O 0.57193 0.49825 0.12308 0.0
O189 O 0.53375 0.47263 0.99965 0.0
O190 O 0.55702 0.4787 0.06374 0.0
C191 C 0.53762 0.53806 0.97505 0.0
C192 C 0.48161 0.55195 0.02907 0.0
C193 C 0.47067 0.48659 0.87926 0.0
C194 C 0.45982 0.47962 0.80913 0.0
C195 C 0.48471 0.52458 0.82834 0.0
C196 C 0.48356 0.51426 0.86843 0.0
C197 C 0.47306 0.50735 0.79882 0.0
C198 C 0.45863 0.46946 0.84959 0.0
C199 C 0.47061 0.47474 0.9214 0.0
C200 C 0.40358 0.41931 0.06649 0.0
C201 C 0.38746 0.44622 0.06047 0.0
H202 H 0.43866 0.37074 0.06959 0.0
C203 C 0.49525 0.48177 0.08786 0.0
C204 C 0.55397 0.46495 0.03189 0.0
C205 C 0.59469 0.51563 0.18467 0.0
C206 C 0.60998 0.53152 0.25019 0.0
C207 C 0.62788 0.48427 0.23672 0.0
C208 C 0.61176 0.48938 0.19806 0.0
C209 C 0.627 0.50509 0.26265 0.0
C210 C 0.59409 0.53686 0.21078 0.0
C211 C 0.5774 0.52019 0.14373 0.0
H212 H 0.49476 0.54593 0.82013 0.0
H213 H 0.4929 0.52769 0.89099 0.0
H214 H 0.47411 0.51582 0.76789 0.0
H215 H 0.44895 0.44791 0.8581 0.0
H216 H 0.64108 0.46404 0.24668 0.0
H217 H 0.61275 0.47277 0.17858 0.0
H218 H 0.63987 0.50059 0.29248 0.0
H219 H 0.58072 0.55702 0.20086 0.0
C220 C 0.24975 0.22127 0.41875 0.0
C221 C 0.25566 0.24543 0.44016 0.0
C222 C 0.23071 0.19832 0.43101 0.0
C223 C 0.16839 0.18447 0.48831 0.0
H224 H 0.18151 0.10159 0.47937 0.0
C225 C 0.08722 0.09171 0.53818 0.0
C226 C 0.08064 0.06907 0.51411 0.0
C227 C 0.11 0.11226 0.53173 0.0
C228 C 0.17731 0.12468 0.48167 0.0
H229 H 0.24809 0.26362 0.4926 0.0
H230 H 0.21493 0.22352 0.51425 0.0
H231 H 0.21934 0.13854 0.46419 0.0
H232 H 0.09319 0.05047 0.46427 0.0
H233 H 0.13234 0.08645 0.45269 0.0
H234 H 0.12617 0.17083 0.50503 0.0
C235 C 0.22439 0.22257 0.48746 0.0
C236 C 0.19908 0.14587 0.47303 0.0
C237 C 0.2435 0.24544 0.47525 0.0
C238 C 0.09758 0.06749 0.48355 0.0
C239 C 0.12028 0.08806 0.47705 0.0
C240 C 0.14659 0.16332 0.49679 0.0
C241 C 0.21726 0.19902 0.46505 0.0
C242 C 0.19483 0.17608 0.47603 0.0
C243 C 0.12681 0.11079 0.50098 0.0
C244 C 0.15062 0.13314 0.49335 0.0
H245 H 0.25908 0.22066 0.39178 0.0
H246 H 0.22566 0.18063 0.41293 0.0
H247 H 0.16411 0.20759 0.49031 0.0
H248 H 0.07482 0.09358 0.56214 0.0
H249 H 0.11462 0.12915 0.55116 0.0
C250 C 0.29473 0.73575 0.06522 0.0
C251 C 0.28016 0.75158 0.02911 0.0
C252 C 0.31826 0.716 0.06552 0.0
C253 C 0.37365 0.69482 0.00568 0.0
H254 H 0.37112 0.61774 0.07104 0.0
C255 C 0.44822 0.5946 0.99328 0.0
C256 C 0.46 0.57622 0.02891 0.0
C257 C 0.42732 0.61708 0.9933 0.0
C258 C 0.37246 0.63927 0.05302 0.0
H259 H 0.27976 0.76074 0.96538 0.0
H260 H 0.32085 0.72606 0.96568 0.0
H261 H 0.33372 0.6556 0.07164 0.0
H262 H 0.4593 0.5671 0.09254 0.0
H263 H 0.42345 0.60656 0.09278 0.0
H264 H 0.41243 0.67836 0.98702 0.0
C265 C 0.3141 0.72877 0.99379 0.0
C266 C 0.35098 0.66102 0.05338 0.0
C267 C 0.29051 0.74849 0.99353 0.0
C268 C 0.4507 0.58096 0.06459 0.0
C269 C 0.42991 0.60342 0.06465 0.0
C270 C 0.39524 0.67305 0.0054 0.0
C271 C 0.32787 0.71185 0.02972 0.0
C272 C 0.35128 0.68907 0.02974 0.0
C273 C 0.41778 0.62166 0.02899 0.0
C274 C 0.39491 0.64499 0.0291 0.0
H275 H 0.28745 0.73813 0.09313 0.0
H276 H 0.32878 0.70379 0.0938 0.0
H277 H 0.37471 0.71629 0.98742 0.0
H278 H 0.45507 0.59153 0.96534 0.0
H279 H 0.41823 0.63049 0.96522 0.0
C280 C 0.75734 0.80153 0.56524 0.0
C281 C 0.74952 0.79523 0.60351 0.0
C282 C 0.78276 0.81853 0.55906 0.0
C283 C 0.83331 0.87387 0.60476 0.0
H284 H 0.88351 0.85803 0.52877 0.0
C285 C 0.94219 0.93946 0.58832 0.0
C286 C 0.94835 0.94826 0.54952 0.0
C287 C 0.91895 0.91961 0.59507 0.0
C288 C 0.86955 0.86296 0.54981 0.0
H289 H 0.76305 0.80011 0.6657 0.0
H290 H 0.80765 0.82949 0.6552 0.0
H291 H 0.84169 0.82505 0.5406 0.0
H292 H 0.93512 0.94287 0.48737 0.0
H293 H 0.89441 0.90824 0.49905 0.0
H294 H 0.86095 0.91183 0.61382 0.0
C295 C 0.79377 0.82205 0.62967 0.0
C296 C 0.84554 0.84401 0.55663 0.0
C297 C 0.76835 0.80506 0.6358 0.0
C298 C 0.93104 0.93636 0.51765 0.0
C299 C 0.90776 0.91644 0.52439 0.0
C300 C 0.85727 0.89277 0.59795 0.0
C301 C 0.80107 0.82945 0.59111 0.0
C302 C 0.82708 0.8492 0.58422 0.0
C303 C 0.90123 0.90799 0.56318 0.0
C304 C 0.87575 0.88761 0.5704 0.0
H305 H 0.7433 0.79395 0.53992 0.0
H306 H 0.78751 0.82386 0.52894 0.0
H307 H 0.81927 0.87898 0.62561 0.0
H308 H 0.95534 0.94798 0.61357 0.0
H309 H 0.91498 0.91323 0.62541 0.0
C310 C 0.70226 0.24738 0.99955 0.0
C311 C 0.72113 0.23479 0.03453 0.0
C312 C 0.68508 0.27282 0.99931 0.0
C313 C 0.67907 0.33696 0.05314 0.0
H314 H 0.59619 0.3388 1.0005 0.0
C315 C 0.59488 0.42871 0.06662 0.0
C316 C 0.57421 0.43937 0.03228 0.0
C317 C 0.61339 0.40413 0.06709 0.0
C318 C 0.61939 0.33887 0.01491 0.0
H319 H 0.73777 0.23929 0.09617 0.0
H320 H 0.70766 0.28382 0.09596 0.0
H321 H 0.62764 0.29567 1.00058 0.0
H322 H 0.55723 0.43266 0.97124 0.0
H323 H 0.58968 0.3903 0.97193 0.0
H324 H 0.67082 0.38024 0.06735 0.0
C325 C 0.70611 0.2741 0.06869 0.0
C326 C 0.63743 0.31409 0.01497 0.0
C327 C 0.72321 0.24857 0.06894 0.0
C328 C 0.57274 0.42504 0.99833 0.0
C329 C 0.59125 0.40054 0.99878 0.0
C330 C 0.66103 0.36182 0.05299 0.0
C331 C 0.68659 0.28636 0.03397 0.0
C332 C 0.6675 0.31283 0.034 0.0
C333 C 0.61171 0.38964 0.03322 0.0
C334 C 0.63096 0.36312 0.03378 0.0
H335 H 0.70054 0.23734 0.9725 0.0
H336 H 0.67068 0.28198 0.97188 0.0
H337 H 0.70224 0.33685 0.0677 0.0
H338 H 0.59662 0.43912 0.09337 0.0
H339 H 0.62863 0.39616 0.09429 0.0
C340 C 0.21382 0.86412 0.12047 0.0
C341 C 0.19539 0.86191 0.08366 0.0
C342 C 0.20186 0.87376 0.15171 0.0
C343 C 0.14541 0.92184 0.17052 0.0
H344 H 0.13838 0.86942 0.26835 0.0
C345 C 0.06268 0.94776 0.27141 0.0
C346 C 0.06928 0.93847 0.31285 0.0
C347 C 0.08129 0.93963 0.246 0.0
C348 C 0.14068 0.88468 0.24168 0.0
H349 H 0.14944 0.86648 0.05212 0.0
H350 H 0.12928 0.8846 0.10567 0.0
H351 H 0.16638 0.85281 0.22029 0.0
H352 H 0.10113 0.91332 0.35984 0.0
H353 H 0.13432 0.90054 0.31586 0.0
H354 H 0.12024 0.95393 0.19149 0.0
C355 C 0.15294 0.87901 0.11012 0.0
C356 C 0.15665 0.87504 0.21416 0.0
C357 C 0.16464 0.86885 0.07937 0.0
C358 C 0.09541 0.92128 0.3282 0.0
C359 C 0.11429 0.91351 0.30281 0.0
C360 C 0.12995 0.93172 0.19826 0.0
C361 C 0.17143 0.88177 0.14637 0.0
C362 C 0.15849 0.8933 0.178 0.0
C363 C 0.10738 0.92236 0.26128 0.0
C364 C 0.12662 0.91298 0.23376 0.0
H365 H 0.23758 0.85912 0.12486 0.0
H366 H 0.21646 0.8757 0.1796 0.0
H367 H 0.14674 0.93633 0.14282 0.0
H368 H 0.04308 0.9614 0.25842 0.0
H369 H 0.07479 0.9465 0.2142 0.0
C370 C 0.67283 0.67354 0.7203 0.0
C371 C 0.65407 0.68613 0.68515 0.0
C372 C 0.66056 0.65925 0.75294 0.0
C373 C 0.59261 0.65282 0.79976 0.0
H374 H 0.62189 0.57288 0.84312 0.0
C375 C 0.53313 0.57571 0.91271 0.0
C376 C 0.55079 0.55562 0.94217 0.0
C377 C 0.54577 0.59238 0.88195 0.0
C378 C 0.61372 0.59536 0.83206 0.0
H379 H 0.60784 0.69474 0.65725 0.0
H380 H 0.58642 0.67034 0.71457 0.0
H381 H 0.64445 0.60175 0.7903 0.0
H382 H 0.59532 0.53666 0.96151 0.0
H383 H 0.61785 0.56693 0.91002 0.0
H384 H 0.56232 0.64686 0.84197 0.0
C385 C 0.61058 0.67131 0.71677 0.0
C386 C 0.62666 0.61188 0.80156 0.0
C387 C 0.62283 0.68515 0.68392 0.0
C388 C 0.58127 0.55248 0.93997 0.0
C389 C 0.59406 0.56951 0.90978 0.0
C390 C 0.57995 0.63648 0.83074 0.0
C391 C 0.62929 0.65768 0.75137 0.0
C392 C 0.61618 0.64074 0.78491 0.0
C393 C 0.57652 0.58966 0.8801 0.0
C394 C 0.5902 0.6074 0.84728 0.0
H395 H 0.69696 0.67376 0.722 0.0
H396 H 0.67554 0.64914 0.77932 0.0
H397 H 0.5842 0.6751 0.78771 0.0
H398 H 0.50951 0.57862 0.91344 0.0
H399 H 0.53127 0.60714 0.85937 0.0
C400 C 0.82529 0.13728 0.15458 0.0
C401 C 0.84084 0.14226 0.12193 0.0
C402 C 0.83975 0.12395 0.19216 0.0
C403 C 0.90187 0.07398 0.24067 0.0
H404 H 0.89958 0.11156 0.33471 0.0
C405 C 0.97188 0.06798 0.40891 0.0
C406 C 0.96907 0.03793 0.42483 0.0
C407 C 0.95471 0.07987 0.37251 0.0
C408 C 0.9003 0.10082 0.30867 0.0
H409 H 0.88427 0.13778 0.10401 0.0
H410 H 0.90892 0.1136 0.16903 0.0
H411 H 0.87185 0.13407 0.26991 0.0
H412 H 0.9471 0.99631 0.41419 0.0
H413 H 0.91792 0.01688 0.34945 0.0
H414 H 0.93029 0.04072 0.27942 0.0
C415 C 0.8855 0.11991 0.16533 0.0
C416 C 0.88433 0.11357 0.27175 0.0
C417 C 0.87125 0.13365 0.128 0.0
C418 C 0.94968 0.0196 0.40271 0.0
C419 C 0.93293 0.03136 0.36581 0.0
C420 C 0.9174 0.06095 0.2777 0.0
C421 C 0.86991 0.11491 0.19775 0.0
C422 C 0.88531 0.10048 0.23731 0.0
C423 C 0.93501 0.06171 0.35067 0.0
C424 C 0.91708 0.07447 0.31192 0.0
H425 H 0.80179 0.14318 0.15104 0.0
H426 H 0.82719 0.12019 0.21668 0.0
H427 H 0.90282 0.06337 0.21458 0.0
H428 H 0.98737 0.08238 0.4246 0.0
H429 H 0.95715 0.10322 0.36115 0.0
C430 C 0.37021 0.3215 0.55029 0.0
C431 C 0.35831 0.33934 0.51425 0.0
C432 C 0.37976 0.33448 0.58483 0.0
C433 C 0.37079 0.40105 0.63174 0.0
H434 H 0.45128 0.3829 0.68915 0.0
C435 C 0.4643 0.45666 0.74807 0.0
C436 C 0.44759 0.46124 0.77778 0.0
C437 C 0.45274 0.43955 0.71836 0.0
C438 C 0.42874 0.38812 0.67344 0.0
H439 H 0.34603 0.38444 0.4863 0.0
H440 H 0.3622 0.40702 0.54668 0.0
H441 H 0.43131 0.35678 0.63294 0.0
H442 H 0.40567 0.45157 0.7996 0.0
H443 H 0.38526 0.42195 0.74724 0.0
H444 H 0.36831 0.4326 0.67194 0.0
C445 C 0.36435 0.38309 0.54825 0.0
C446 C 0.41723 0.37302 0.64152 0.0
C447 C 0.35528 0.37021 0.51366 0.0
C448 C 0.4191 0.44829 0.7772 0.0
C449 C 0.40736 0.43151 0.74714 0.0
C450 C 0.38213 0.41585 0.664 0.0
C451 C 0.37703 0.36544 0.58407 0.0
C452 C 0.3883 0.37965 0.61998 0.0
C453 C 0.42407 0.42697 0.7174 0.0
C454 C 0.41139 0.40985 0.68483 0.0
H455 H 0.37291 0.29767 0.55146 0.0
H456 H 0.38932 0.32035 0.61211 0.0
H457 H 0.34836 0.40649 0.61579 0.0
H458 H 0.48642 0.46617 0.74797 0.0
H459 H 0.46602 0.43664 0.69564 0.0
C460 C 0.6509 0.65364 0.54267 0.0
C461 C 0.65857 0.68397 0.54066 0.0
C462 C 0.64144 0.64107 0.50795 0.0
C463 C 0.64651 0.64946 0.40146 0.0
H464 H 0.58155 0.59253 0.39862 0.0
C465 C 0.61286 0.58371 0.26791 0.0
C466 C 0.60892 0.55296 0.27889 0.0
C467 C 0.61477 0.6032 0.29645 0.0
C468 C 0.59981 0.60828 0.39894 0.0
H469 H 0.66209 0.72483 0.50003 0.0
H470 H 0.64609 0.70258 0.4392 0.0
H471 H 0.59327 0.62004 0.45512 0.0
H472 H 0.60223 0.51884 0.32782 0.0
H473 H 0.60593 0.55245 0.37738 0.0
H474 H 0.65371 0.63696 0.3459 0.0
C475 C 0.64743 0.68864 0.4679 0.0
C476 C 0.60651 0.62406 0.43133 0.0
C477 C 0.65669 0.70134 0.50277 0.0
C478 C 0.60568 0.54235 0.31851 0.0
C479 C 0.60746 0.56173 0.34687 0.0
C480 C 0.63989 0.63354 0.36907 0.0
C481 C 0.63962 0.65836 0.47014 0.0
C482 C 0.63039 0.6443 0.43347 0.0
C483 C 0.61249 0.59234 0.33643 0.0
C484 C 0.61693 0.6122 0.36791 0.0
H485 H 0.65276 0.63932 0.57114 0.0
H486 H 0.63621 0.61753 0.51072 0.0
H487 H 0.66515 0.66478 0.40232 0.0
H488 H 0.61551 0.59254 0.23763 0.0
H489 H 0.61836 0.62669 0.28732 0.0
C490 C 0.83443 0.17218 0.94088 0.0
C491 C 0.82862 0.15076 0.97262 0.0
C492 C 0.84615 0.1636 0.90891 0.0
C493 C 0.85899 0.09792 0.85991 0.0
H494 H 0.92563 0.14429 0.82673 0.0
C495 C 0.94425 0.05162 0.77602 0.0
C496 C 0.95558 0.07093 0.74616 0.0
C497 C 0.92549 0.06242 0.79935 0.0
C498 C 0.90675 0.13135 0.83512 0.0
H499 H 0.82905 0.10339 0.99456 0.0
H500 H 0.84993 0.08848 0.93935 0.0
H501 H 0.89818 0.16133 0.87474 0.0
H502 H 0.95562 0.11671 0.71701 0.0
H503 H 0.92256 0.13554 0.75752 0.0
H504 H 0.86806 0.06758 0.82093 0.0
C505 C 0.84533 0.11191 0.93893 0.0
C506 C 0.89096 0.14114 0.86266 0.0
C507 C 0.83366 0.12048 0.97086 0.0
C508 C 0.94715 0.10122 0.73961 0.0
C509 C 0.92844 0.11205 0.76308 0.0
C510 C 0.87481 0.08811 0.83241 0.0
C511 C 0.85222 0.13339 0.90788 0.0
C512 C 0.86718 0.12432 0.87588 0.0
C513 C 0.9176 0.09282 0.79348 0.0
C514 C 0.89918 0.10447 0.82014 0.0
H515 H 0.83093 0.19569 0.94142 0.0
H516 H 0.85082 0.18068 0.88523 0.0
H517 H 0.84047 0.08469 0.8689 0.0
H518 H 0.94999 0.0281 0.78151 0.0
H519 H 0.91781 0.04702 0.82274 0.0
C520 C 0.37836 0.32524 0.34563 0.0
C521 C 0.3656 0.34201 0.3701 0.0
C522 C 0.39157 0.33952 0.31376 0.0
C523 C 0.42431 0.41245 0.27924 0.0
H524 H 0.41837 0.38244 0.17809 0.0
C525 C 0.46484 0.48064 0.14269 0.0
C526 C 0.48063 0.46524 0.11987 0.0
C527 C 0.45045 0.46503 0.17239 0.0
C528 C 0.42046 0.39094 0.20633 0.0
H529 H 0.35512 0.38685 0.37881 0.0
H530 H 0.3776 0.41163 0.32324 0.0
H531 H 0.39337 0.35603 0.23078 0.0
H532 H 0.49465 0.42157 0.11116 0.0
H533 H 0.46925 0.39421 0.16271 0.0
H534 H 0.45126 0.44736 0.25488 0.0
C535 C 0.37832 0.3875 0.32922 0.0
C536 C 0.40615 0.37578 0.23655 0.0
C537 C 0.36531 0.37328 0.36105 0.0
C538 C 0.48208 0.43396 0.1277 0.0
C539 C 0.46754 0.41831 0.15724 0.0
C540 C 0.43849 0.4276 0.24907 0.0
C541 C 0.39215 0.37089 0.30557 0.0
C542 C 0.40773 0.38646 0.27335 0.0
C543 C 0.45159 0.43366 0.18004 0.0
C544 C 0.43665 0.41715 0.21216 0.0
H545 H 0.37907 0.30112 0.35198 0.0
H546 H 0.40215 0.32599 0.29636 0.0
H547 H 0.42667 0.42098 0.30745 0.0
H548 H 0.46323 0.50476 0.13718 0.0
H549 H 0.4381 0.47755 0.18907 0.0
C550 C 0.15807 0.86936 0.92855 0.0
C551 C 0.18955 0.86876 0.9363 0.0
C552 C 0.1427 0.8821 0.89145 0.0
C553 C 0.15112 0.90719 0.78613 0.0
H554 H 0.07961 0.95346 0.7861 0.0
C555 C 0.08901 0.98094 0.64546 0.0
C556 C 0.05778 0.97758 0.63751 0.0
C557 C 0.10555 0.96782 0.68168 0.0
C558 C 0.09939 0.94041 0.78563 0.0
H559 H 0.22973 0.88027 0.91104 0.0
H560 H 0.20283 0.90321 0.84596 0.0
H561 H 0.10821 0.9301 0.84922 0.0
H562 H 0.01906 0.95908 0.66176 0.0
H563 H 0.04793 0.93664 0.72567 0.0
H564 H 0.14232 0.91807 0.72231 0.0
C565 C 0.19 0.89347 0.86852 0.0
C566 C 0.11577 0.92693 0.82177 0.0
C567 C 0.20543 0.88041 0.90574 0.0
C568 C 0.04316 0.96191 0.6671 0.0
C569 C 0.05967 0.94908 0.70359 0.0
C570 C 0.13482 0.92091 0.74993 0.0
C571 C 0.15842 0.89484 0.86116 0.0
C572 C 0.14169 0.9099 0.82251 0.0
C573 C 0.09107 0.95162 0.71103 0.0
C574 C 0.10868 0.93747 0.74935 0.0
H575 H 0.14526 0.86001 0.95137 0.0
H576 H 0.11842 0.88198 0.88656 0.0
H577 H 0.17074 0.89399 0.78552 0.0
H578 H 0.10069 0.99367 0.62359 0.0
H579 H 0.12966 0.97059 0.68689 0.0
loop_
_geom_bond_atom_site_label_1
_geom_bond_atom_site_label_2
_geom_bond_distance
_geom_bond_site_symmetry_2
_ccdc_geom_bond_type
H0 C7 0.929 . S
H1 C10 0.930 . S
H2 C12 0.929 . S
H3 C4 0.969 . S
C4 H3 0.969 . S
C4 O5 1.550 . S
C4 H6 0.973 . S
O5 C4 1.550 . S
O5 C11 1.412 . S
H6 C4 0.973 . S
C7 H0 0.929 . S
C7 C8 1.400 1_554 S
C7 C9 1.364 . S
C8 C7 1.400 1_556 S
C8 C12 1.377 . S
C9 C7 1.364 . S
C9 C10 1.374 . S
C10 H1 0.930 . S
C10 C9 1.374 . S
C10 C11 1.383 . S
C11 O5 1.412 . S
C11 C10 1.383 . S
C11 C12 1.394 1_554 S
C12 H2 0.929 . S
C12 C8 1.377 . S
C12 C11 1.394 1_556 S
H13 C20 0.929 . S
H14 C23 0.930 . S
H15 C25 0.929 . S
H16 C17 0.969 . S
C17 H16 0.969 . S
C17 O18 1.550 . S
C17 H19 0.973 . S
O18 C17 1.550 . S
O18 C24 1.412 . S
H19 C17 0.973 . S
C20 H13 0.929 . S
C20 C21 1.400 . S
C20 C22 1.364 . S
C21 C20 1.400 . S
C21 C25 1.377 . S
C22 C20 1.364 . S
C22 C23 1.374 . S
C23 H14 0.930 . S
C23 C22 1.374 . S
C23 C24 1.383 . S
C24 O18 1.412 . S
C24 C23 1.383 . S
C24 C25 1.394 . S
C25 H15 0.929 . S
C25 C21 1.377 . S
C25 C24 1.394 . S
H26 C33 0.929 . S
H27 C36 0.930 1_556 S
H28 C38 0.929 . S
H29 C30 0.969 . S
C30 H29 0.969 . S
C30 O31 1.550 . S
C30 H32 0.973 1_554 S
O31 C30 1.550 . S
O31 C37 1.412 . S
H32 C30 0.973 1_556 S
C33 H26 0.929 . S
C33 C34 1.400 . S
C33 C35 1.364 . S
C34 C33 1.400 . S
C34 C38 1.377 . S
C35 C33 1.364 . S
C35 C36 1.374 . S
C36 H27 0.930 1_554 S
C36 C35 1.374 . S
C36 C37 1.383 . S
C37 O31 1.412 . S
C37 C36 1.383 . S
C37 C38 1.394 . S
C38 H28 0.929 . S
C38 C34 1.377 . S
C38 C37 1.394 . S
H39 C46 0.929 . S
H40 C49 0.930 . S
H41 C51 0.929 . S
H42 C43 0.969 . S
C43 H42 0.969 . S
C43 O44 1.550 . S
C43 H45 0.973 . S
O44 C43 1.550 . S
O44 C50 1.412 . S
H45 C43 0.973 . S
C46 H39 0.929 . S
C46 C47 1.400 . S
C46 C48 1.364 . S
C47 C46 1.400 . S
C47 C51 1.377 . S
C48 C46 1.364 . S
C48 C49 1.374 . S
C49 H40 0.930 . S
C49 C48 1.374 . S
C49 C50 1.383 . S
C50 O44 1.412 . S
C50 C49 1.383 . S
C50 C51 1.394 . S
C51 H41 0.929 . S
C51 C47 1.377 . S
C51 C50 1.394 . S
C52 C54 1.422 . S
C52 C56 1.415 . S
C52 N58 1.369 . S
C53 C54 1.421 . S
C53 C55 1.417 . S
C53 C65 1.422 . S
C54 C52 1.422 . S
C54 C53 1.421 . S
C54 N64 1.359 . S
C55 C53 1.417 . S
C55 C57 1.329 . S
C55 H74 0.930 . S
C56 C52 1.415 . S
C56 C57 1.437 . S
C56 C60 1.413 . S
C57 C55 1.329 . S
C57 C56 1.437 . S
C57 H79 0.929 . S
N58 C52 1.369 . S
N58 C59 1.338 1_655 S
N58 Gd63 2.622 . S
C59 N58 1.338 1_455 S
C59 C61 1.378 . S
C59 H71 0.929 . S
C60 C56 1.413 . S
C60 C61 1.348 1_655 S
C60 H76 0.931 . S
C61 C59 1.378 . S
C61 C60 1.348 1_455 S
C61 H77 0.930 . S
Gd62 N82 2.622 . S
Gd62 N89 2.570 . S
Gd62 O96 2.353 1_465 S
Gd62 O97 2.468 . S
Gd62 O98 2.427 . S
Gd62 O100 2.388 1_455 S
Gd62 O101 2.386 . S
Gd62 O105 2.307 1_565 S
Gd62 C115 2.805 . S
Gd63 N58 2.622 . S
Gd63 N64 2.570 . S
Gd63 O95 2.386 . S
Gd63 O99 2.307 1_545 S
Gd63 O102 2.353 1_655 S
Gd63 O103 2.468 . S
Gd63 O104 2.427 . S
Gd63 O106 2.388 1_655 S
Gd63 C127 2.805 . S
N64 C54 1.359 . S
N64 Gd63 2.570 . S
N64 C66 1.343 . S
C65 C53 1.422 . S
C65 C67 1.321 . S
C65 H73 0.931 . S
C66 N64 1.343 . S
C66 C67 1.390 . S
C66 H68 0.931 . S
C67 C65 1.321 . S
C67 C66 1.390 . S
C67 H69 0.930 . S
H68 C66 0.931 . S
H69 C67 0.930 . S
H70 C93 0.931 . S
H71 C59 0.929 . S
H72 C94 0.930 . S
H73 C65 0.931 . S
H74 C55 0.930 . S
H75 C84 0.929 1_655 S
H76 C60 0.931 . S
H77 C61 0.930 . S
H78 C116 0.930 . S
H79 C57 0.929 . S
H80 C85 0.931 . S
H81 C86 0.930 1_655 S
N82 Gd62 2.622 . S
N82 C83 1.369 . S
N82 C84 1.338 . S
C83 N82 1.369 . S
C83 C87 1.415 . S
C83 C90 1.422 . S
C84 H75 0.929 1_455 S
C84 N82 1.338 . S
C84 C86 1.378 . S
C85 H80 0.931 . S
C85 C86 1.348 . S
C85 C87 1.413 . S
C86 H81 0.930 1_455 S
C86 C84 1.378 . S
C86 C85 1.348 . S
C87 C83 1.415 . S
C87 C85 1.413 . S
C87 C117 1.437 . S
H88 C117 0.929 . S
N89 Gd62 2.570 . S
N89 C90 1.359 . S
N89 C93 1.343 . S
C90 C83 1.422 . S
C90 N89 1.359 . S
C90 C92 1.421 . S
C91 C92 1.422 . S
C91 C94 1.321 . S
C91 H118 0.931 . S
C92 C90 1.421 . S
C92 C91 1.422 . S
C92 C116 1.417 . S
C93 H70 0.931 . S
C93 N89 1.343 . S
C93 C94 1.390 . S
C94 H72 0.930 . S
C94 C91 1.321 . S
C94 C93 1.390 . S
O95 Gd63 2.386 . S
O95 C107 1.265 . S
O96 Gd62 2.353 1_645 S
O96 C107 1.242 . S
O97 Gd62 2.468 . S
O97 C115 1.263 . S
O98 Gd62 2.427 . S
O98 C115 1.252 . S
O99 Gd63 2.307 1_565 S
O99 C108 1.261 . S
O100 Gd62 2.388 1_655 S
O100 C108 1.252 . S
O101 Gd62 2.386 . S
O101 C119 1.265 . S
O102 Gd63 2.353 1_455 S
O102 C119 1.242 1_545 S
O103 Gd63 2.468 . S
O103 C127 1.263 . S
O104 Gd63 2.427 . S
O104 C127 1.252 . S
O105 Gd62 2.307 1_545 S
O105 C120 1.261 . S
O106 Gd63 2.388 1_455 S
O106 C120 1.252 . S
C107 O95 1.265 . S
C107 O96 1.242 . S
C108 O99 1.261 . S
C108 O100 1.252 . S
C109 C112 1.394 . S
C109 C114 1.370 . S
C109 C115 1.500 . S
C110 C113 1.383 . S
C110 C114 1.395 . S
C111 C112 1.396 . S
C111 C113 1.365 . S
C111 H128 0.929 . S
C112 C109 1.394 . S
C112 C111 1.396 . S
C112 H129 0.930 . S
C113 C110 1.383 . S
C113 C111 1.365 . S
C113 H130 0.931 . S
C114 C109 1.370 . S
C114 C110 1.395 . S
C114 H131 0.930 . S
C115 Gd62 2.805 . S
C115 O97 1.263 . S
C115 O98 1.252 . S
C115 C109 1.500 . S
C116 H78 0.930 . S
C116 C92 1.417 . S
C116 C117 1.329 . S
C117 C87 1.437 . S
C117 H88 0.929 . S
C117 C116 1.329 . S
H118 C91 0.931 . S
C119 O101 1.265 . S
C119 O102 1.242 1_565 S
C120 O105 1.261 . S
C120 O106 1.252 . S
C121 C124 1.394 . S
C121 C126 1.370 . S
C121 C127 1.500 . S
C122 C125 1.383 . S
C122 C126 1.395 . S
C123 C124 1.396 . S
C123 C125 1.365 . S
C123 H132 0.929 . S
C124 C121 1.394 . S
C124 C123 1.396 . S
C124 H133 0.930 . S
C125 C122 1.383 . S
C125 C123 1.365 . S
C125 H134 0.931 . S
C126 C121 1.370 . S
C126 C122 1.395 . S
C126 H135 0.930 . S
C127 Gd63 2.805 . S
C127 O103 1.263 . S
C127 O104 1.252 . S
C127 C121 1.500 . S
H128 C111 0.929 . S
H129 C112 0.930 . S
H130 C113 0.931 . S
H131 C114 0.930 . S
H132 C123 0.929 . S
H133 C124 0.930 . S
H134 C125 0.931 . S
H135 C126 0.930 . S
C136 C138 1.422 . S
C136 C140 1.415 . S
C136 N142 1.369 . S
C137 C138 1.421 . S
C137 C139 1.417 . S
C137 C149 1.422 . S
C138 C136 1.422 . S
C138 C137 1.421 . S
C138 N148 1.359 . S
C139 C137 1.417 . S
C139 C141 1.329 . S
C139 H158 0.930 . S
C140 C136 1.415 . S
C140 C141 1.437 . S
C140 C144 1.413 . S
C141 C139 1.329 . S
C141 C140 1.437 . S
C141 H163 0.929 . S
N142 C136 1.369 . S
N142 C143 1.338 . S
N142 Gd147 2.622 . S
C143 N142 1.338 . S
C143 C145 1.378 . S
C143 H155 0.929 . S
C144 C140 1.413 . S
C144 C145 1.348 . S
C144 H160 0.931 . S
C145 C143 1.378 . S
C145 C144 1.348 . S
C145 H161 0.930 . S
Gd146 N166 2.622 . S
Gd146 N173 2.570 1_556 S
Gd146 O180 2.353 . S
Gd146 O181 2.468 . S
Gd146 O182 2.427 . S
Gd146 O184 2.388 . S
Gd146 O185 2.386 1_556 S
Gd146 O189 2.307 1_556 S
Gd146 C199 2.805 . S
Gd147 N142 2.622 . S
Gd147 N148 2.570 . S
Gd147 O179 2.386 1_554 S
Gd147 O183 2.307 . S
Gd147 O186 2.353 . S
Gd147 O187 2.468 . S
Gd147 O188 2.427 . S
Gd147 O190 2.388 . S
Gd147 C211 2.805 . S
N148 C138 1.359 . S
N148 Gd147 2.570 . S
N148 C150 1.343 . S
C149 C137 1.422 . S
C149 C151 1.321 . S
C149 H157 0.931 . S
C150 N148 1.343 . S
C150 C151 1.390 . S
C150 H152 0.931 . S
C151 C149 1.321 . S
C151 C150 1.390 . S
C151 H153 0.930 . S
H152 C150 0.931 . S
H153 C151 0.930 . S
H154 C177 0.931 . S
H155 C143 0.929 . S
H156 C178 0.930 . S
H157 C149 0.931 . S
H158 C139 0.930 . S
H159 C168 0.929 . S
H160 C144 0.931 . S
H161 C145 0.930 . S
H162 C200 0.930 . S
H163 C141 0.929 . S
H164 C169 0.931 . S
H165 C170 0.930 . S
N166 Gd146 2.622 . S
N166 C167 1.369 1_556 S
N166 C168 1.338 . S
C167 N166 1.369 1_554 S
C167 C171 1.415 . S
C167 C174 1.422 . S
C168 H159 0.929 . S
C168 N166 1.338 . S
C168 C170 1.378 . S
C169 H164 0.931 . S
C169 C170 1.348 1_554 S
C169 C171 1.413 . S
C170 H165 0.930 . S
C170 C168 1.378 . S
C170 C169 1.348 1_556 S
C171 C167 1.415 . S
C171 C169 1.413 . S
C171 C201 1.437 . S
H172 C201 0.929 . S
N173 Gd146 2.570 1_554 S
N173 C174 1.359 . S
N173 C177 1.343 . S
C174 C167 1.422 . S
C174 N173 1.359 . S
C174 C176 1.421 . S
C175 C176 1.422 . S
C175 C178 1.321 . S
C175 H202 0.931 . S
C176 C174 1.421 . S
C176 C175 1.422 . S
C176 C200 1.417 . S
C177 H154 0.931 . S
C177 N173 1.343 . S
C177 C178 1.390 . S
C178 H156 0.930 . S
C178 C175 1.321 . S
C178 C177 1.390 . S
O179 Gd147 2.386 1_556 S
O179 C191 1.265 . S
O180 Gd146 2.353 . S
O180 C191 1.242 . S
O181 Gd146 2.468 . S
O181 C199 1.263 . S
O182 Gd146 2.427 . S
O182 C199 1.252 . S
O183 Gd147 2.307 . S
O183 C192 1.261 . S
O184 Gd146 2.388 . S
O184 C192 1.252 1_556 S
O185 Gd146 2.386 1_554 S
O185 C203 1.265 . S
O186 Gd147 2.353 . S
O186 C203 1.242 . S
O187 Gd147 2.468 . S
O187 C211 1.263 . S
O188 Gd147 2.427 . S
O188 C211 1.252 . S
O189 Gd146 2.307 1_554 S
O189 C204 1.261 . S
O190 Gd147 2.388 . S
O190 C204 1.252 . S
C191 O179 1.265 . S
C191 O180 1.242 . S
C192 O183 1.261 . S
C192 O184 1.252 1_554 S
C193 C196 1.394 . S
C193 C198 1.370 . S
C193 C199 1.500 . S
C194 C197 1.383 . S
C194 C198 1.395 . S
C195 C196 1.396 . S
C195 C197 1.365 . S
C195 H212 0.929 . S
C196 C193 1.394 . S
C196 C195 1.396 . S
C196 H213 0.930 . S
C197 C194 1.383 . S
C197 C195 1.365 . S
C197 H214 0.931 . S
C198 C193 1.370 . S
C198 C194 1.395 . S
C198 H215 0.930 . S
C199 Gd146 2.805 . S
C199 O181 1.263 . S
C199 O182 1.252 . S
C199 C193 1.500 . S
C200 H162 0.930 . S
C200 C176 1.417 . S
C200 C201 1.329 . S
C201 C171 1.437 . S
C201 H172 0.929 . S
C201 C200 1.329 . S
H202 C175 0.931 . S
C203 O185 1.265 . S
C203 O186 1.242 . S
C204 O189 1.261 . S
C204 O190 1.252 . S
C205 C208 1.394 . S
C205 C210 1.370 . S
C205 C211 1.500 . S
C206 C209 1.383 . S
C206 C210 1.395 . S
C207 C208 1.396 . S
C207 C209 1.365 . S
C207 H216 0.929 . S
C208 C205 1.394 . S
C208 C207 1.396 . S
C208 H217 0.930 . S
C209 C206 1.383 . S
C209 C207 1.365 . S
C209 H218 0.931 . S
C210 C205 1.370 . S
C210 C206 1.395 . S
C210 H219 0.930 . S
C211 Gd147 2.805 . S
C211 O187 1.263 . S
C211 O188 1.252 . S
C211 C205 1.500 . S
H212 C195 0.929 . S
H213 C196 0.930 . S
H214 C197 0.931 . S
H215 C198 0.930 . S
H216 C207 0.929 . S
H217 C208 0.930 . S
H218 C209 0.931 . S
H219 C210 0.930 . S
C220 C221 1.349 . S
C220 C222 1.327 . S
C220 H245 0.950 . S
C221 C220 1.349 . S
C221 C237 1.349 . S
C222 C220 1.327 . S
C222 C241 1.429 . S
C222 H246 0.950 . S
C223 C240 1.574 . S
C223 C242 1.368 . S
C223 H247 0.949 . S
H224 C228 0.949 . S
C225 C226 1.349 . S
C225 C227 1.327 . S
C225 H248 0.950 . S
C226 C225 1.349 . S
C226 C238 1.349 . S
C227 C225 1.327 . S
C227 C243 1.429 . S
C227 H249 0.950 . S
C228 H224 0.949 . S
C228 C236 1.574 . S
C228 C244 1.368 . S
H229 C237 0.950 . S
H230 C235 0.950 . S
H231 C236 0.949 . S
H232 C238 0.950 . S
H233 C239 0.950 . S
H234 C240 0.949 . S
C235 H230 0.950 . S
C235 C237 1.327 . S
C235 C241 1.429 . S
C236 C228 1.574 . S
C236 H231 0.949 . S
C236 C242 1.368 . S
C237 C221 1.349 . S
C237 H229 0.950 . S
C237 C235 1.327 . S
C238 C226 1.349 . S
C238 H232 0.950 . S
C238 C239 1.327 . S
C239 H233 0.950 . S
C239 C238 1.327 . S
C239 C243 1.429 . S
C240 C223 1.574 . S
C240 H234 0.949 . S
C240 C244 1.368 . S
C241 C222 1.429 . S
C241 C235 1.429 . S
C241 C242 1.523 . S
C242 C223 1.368 . S
C242 C236 1.368 . S
C242 C241 1.523 . S
C243 C227 1.429 . S
C243 C239 1.429 . S
C243 C244 1.523 . S
C244 C228 1.368 . S
C244 C240 1.368 . S
C244 C243 1.523 . S
H245 C220 0.950 . S
H246 C222 0.950 . S
H247 C223 0.949 . S
H248 C225 0.950 . S
H249 C227 0.950 . S
C250 C251 1.349 . S
C250 C252 1.327 . S
C250 H275 0.950 . S
C251 C250 1.349 . S
C251 C267 1.349 . S
C252 C250 1.327 . S
C252 C271 1.429 . S
C252 H276 0.950 . S
C253 C270 1.574 . S
C253 C272 1.368 . S
C253 H277 0.940 1_554 S
H254 C258 0.949 . S
C255 C256 1.349 . S
C255 C257 1.327 . S
C255 H278 0.950 1_554 S
C256 C255 1.349 . S
C256 C268 1.349 . S
C257 C255 1.327 . S
C257 C273 1.429 . S
C257 H279 0.950 1_554 S
C258 H254 0.949 . S
C258 C266 1.574 . S
C258 C274 1.368 . S
H259 C267 0.950 . S
H260 C265 0.966 . S
H261 C266 0.949 . S
H262 C268 0.950 . S
H263 C269 0.950 . S
H264 C270 0.949 1_556 S
C265 H260 0.966 . S
C265 C267 1.327 . S
C265 C271 1.429 . S
C266 C258 1.574 . S
C266 H261 0.949 . S
C266 C272 1.368 . S
C267 C251 1.349 . S
C267 H259 0.950 . S
C267 C265 1.327 . S
C268 C256 1.349 . S
C268 H262 0.950 . S
C268 C269 1.327 . S
C269 H263 0.950 . S
C269 C268 1.327 . S
C269 C273 1.429 . S
C270 C253 1.574 . S
C270 H264 0.949 1_554 S
C270 C274 1.368 . S
C271 C252 1.429 . S
C271 C265 1.429 . S
C271 C272 1.523 . S
C272 C253 1.368 . S
C272 C266 1.368 . S
C272 C271 1.523 . S
C273 C257 1.429 . S
C273 C269 1.429 . S
C273 C274 1.523 . S
C274 C258 1.368 . S
C274 C270 1.368 . S
C274 C273 1.523 . S
H275 C250 0.950 . S
H276 C252 0.950 . S
H277 C253 0.940 1_556 S
H278 C255 0.950 1_556 S
H279 C257 0.950 1_556 S
C280 C281 1.349 . S
C280 C282 1.327 . S
C280 H305 0.950 . S
C281 C280 1.349 . S
C281 C297 1.349 . S
C282 C280 1.327 . S
C282 C301 1.429 . S
C282 H306 0.950 . S
C283 C300 1.574 . S
C283 C302 1.368 . S
C283 H307 0.949 . S
H284 C288 0.949 . S
C285 C286 1.349 . S
C285 C287 1.327 . S
C285 H308 0.950 . S
C286 C285 1.349 . S
C286 C298 1.349 . S
C287 C285 1.327 . S
C287 C303 1.429 . S
C287 H309 0.950 . S
C288 H284 0.949 . S
C288 C296 1.574 . S
C288 C304 1.368 . S
H289 C297 0.950 . S
H290 C295 0.950 . S
H291 C296 0.949 . S
H292 C298 0.950 . S
H293 C299 0.950 . S
H294 C300 0.949 . S
C295 H290 0.950 . S
C295 C297 1.327 . S
C295 C301 1.429 . S
C296 C288 1.574 . S
C296 H291 0.949 . S
C296 C302 1.368 . S
C297 C281 1.349 . S
C297 H289 0.950 . S
C297 C295 1.327 . S
C298 C286 1.349 . S
C298 H292 0.950 . S
C298 C299 1.327 . S
C299 H293 0.950 . S
C299 C298 1.327 . S
C299 C303 1.429 . S
C300 C283 1.574 . S
C300 H294 0.949 . S
C300 C304 1.368 . S
C301 C282 1.429 . S
C301 C295 1.429 . S
C301 C302 1.523 . S
C302 C283 1.368 . S
C302 C296 1.368 . S
C302 C301 1.523 . S
C303 C287 1.429 . S
C303 C299 1.429 . S
C303 C304 1.523 . S
C304 C288 1.368 . S
C304 C300 1.368 . S
C304 C303 1.523 . S
H305 C280 0.950 . S
H306 C282 0.950 . S
H307 C283 0.949 . S
H308 C285 0.950 . S
H309 C287 0.950 . S
C310 C311 1.349 1_556 S
C310 C312 1.327 . S
C310 H335 0.950 . S
C311 C310 1.349 1_554 S
C311 C327 1.349 . S
C312 C310 1.327 . S
C312 C331 1.429 1_556 S
C312 H336 0.950 . S
C313 C330 1.574 . S
C313 C332 1.368 . S
C313 H337 0.949 . S
H314 C318 0.949 . S
C315 C316 1.349 . S
C315 C317 1.327 . S
C315 H338 0.950 . S
C316 C315 1.349 . S
C316 C328 1.349 1_554 S
C317 C315 1.327 . S
C317 C333 1.429 . S
C317 H339 0.950 . S
C318 H314 0.949 . S
C318 C326 1.574 . S
C318 C334 1.368 1_556 S
H319 C327 0.950 . S
H320 C325 0.950 . S
H321 C326 0.949 . S
H322 C328 0.950 . S
H323 C329 0.950 . S
H324 C330 0.949 . S
C325 H320 0.950 . S
C325 C327 1.327 . S
C325 C331 1.429 . S
C326 C318 1.574 . S
C326 H321 0.949 . S
C326 C332 1.368 1_556 S
C327 C311 1.349 . S
C327 H319 0.950 . S
C327 C325 1.327 . S
C328 C316 1.349 1_556 S
C328 H322 0.950 . S
C328 C329 1.327 . S
C329 H323 0.950 . S
C329 C328 1.327 . S
C329 C333 1.429 1_556 S
C330 C313 1.574 . S
C330 H324 0.949 . S
C330 C334 1.368 . S
C331 C312 1.429 1_554 S
C331 C325 1.429 . S
C331 C332 1.523 . S
C332 C313 1.368 . S
C332 C326 1.368 1_554 S
C332 C331 1.523 . S
C333 C317 1.429 . S
C333 C329 1.429 1_554 S
C333 C334 1.523 . S
C334 C318 1.368 1_554 S
C334 C330 1.368 . S
C334 C333 1.523 . S
H335 C310 0.950 . S
H336 C312 0.950 . S
H337 C313 0.949 . S
H338 C315 0.950 . S
H339 C317 0.950 . S
C340 C341 1.349 . S
C340 C342 1.327 . S
C340 H365 0.950 . S
C341 C340 1.349 . S
C341 C357 1.349 . S
C342 C340 1.327 . S
C342 C361 1.429 . S
C342 H366 0.950 . S
C343 C360 1.574 . S
C343 C362 1.368 . S
C343 H367 0.949 . S
H344 C348 0.949 . S
C345 C346 1.349 . S
C345 C347 1.327 . S
C345 H368 0.950 . S
C346 C345 1.349 . S
C346 C358 1.349 . S
C347 C345 1.327 . S
C347 C363 1.429 . S
C347 H369 0.950 . S
C348 H344 0.949 . S
C348 C356 1.574 . S
C348 C364 1.368 . S
H349 C357 0.950 . S
H350 C355 0.950 . S
H351 C356 0.949 . S
H352 C358 0.950 . S
H353 C359 0.950 . S
H354 C360 0.949 . S
C355 H350 0.950 . S
C355 C357 1.327 . S
C355 C361 1.429 . S
C356 C348 1.574 . S
C356 H351 0.949 . S
C356 C362 1.368 . S
C357 C341 1.349 . S
C357 H349 0.950 . S
C357 C355 1.327 . S
C358 C346 1.349 . S
C358 H352 0.950 . S
C358 C359 1.327 . S
C359 H353 0.950 . S
C359 C358 1.327 . S
C359 C363 1.429 . S
C360 C343 1.574 . S
C360 H354 0.949 . S
C360 C364 1.368 . S
C361 C342 1.429 . S
C361 C355 1.429 . S
C361 C362 1.523 . S
C362 C343 1.368 . S
C362 C356 1.368 . S
C362 C361 1.523 . S
C363 C347 1.429 . S
C363 C359 1.429 . S
C363 C364 1.523 . S
C364 C348 1.368 . S
C364 C360 1.368 . S
C364 C363 1.523 . S
H365 C340 0.950 . S
H366 C342 0.950 . S
H367 C343 0.949 . S
H368 C345 0.950 . S
H369 C347 0.950 . S
C370 C371 1.349 . S
C370 C372 1.327 . S
C370 H395 0.950 . S
C371 C370 1.349 . S
C371 C387 1.349 . S
C372 C370 1.327 . S
C372 C391 1.429 . S
C372 H396 0.950 . S
C373 C390 1.574 . S
C373 C392 1.368 . S
C373 H397 0.949 . S
H374 C378 0.949 . S
C375 C376 1.349 . S
C375 C377 1.327 . S
C375 H398 0.950 . S
C376 C375 1.349 . S
C376 C388 1.349 . S
C377 C375 1.327 . S
C377 C393 1.429 . S
C377 H399 0.950 . S
C378 H374 0.949 . S
C378 C386 1.574 . S
C378 C394 1.368 . S
H379 C387 0.950 . S
H380 C385 0.950 . S
H381 C386 0.949 . S
H382 C388 0.950 . S
H383 C389 0.950 . S
H384 C390 0.949 . S
C385 H380 0.950 . S
C385 C387 1.327 . S
C385 C391 1.429 . S
C386 C378 1.574 . S
C386 H381 0.949 . S
C386 C392 1.368 . S
C387 C371 1.349 . S
C387 H379 0.950 . S
C387 C385 1.327 . S
C388 C376 1.349 . S
C388 H382 0.950 . S
C388 C389 1.327 . S
C389 H383 0.950 . S
C389 C388 1.327 . S
C389 C393 1.429 . S
C390 C373 1.574 . S
C390 H384 0.949 . S
C390 C394 1.368 . S
C391 C372 1.429 . S
C391 C385 1.429 . S
C391 C392 1.523 . S
C392 C373 1.368 . S
C392 C386 1.368 . S
C392 C391 1.523 . S
C393 C377 1.429 . S
C393 C389 1.429 . S
C393 C394 1.523 . S
C394 C378 1.368 . S
C394 C390 1.368 . S
C394 C393 1.523 . S
H395 C370 0.950 . S
H396 C372 0.950 . S
H397 C373 0.949 . S
H398 C375 0.950 . S
H399 C377 0.950 . S
C400 C401 1.349 . S
C400 C402 1.327 . S
C400 H425 0.950 . S
C401 C400 1.349 . S
C401 C417 1.349 . S
C402 C400 1.327 . S
C402 C421 1.429 . S
C402 H426 0.950 . S
C403 C420 1.574 . S
C403 C422 1.368 . S
C403 H427 0.949 . S
H404 C408 0.949 . S
C405 C406 1.349 . S
C405 C407 1.327 . S
C405 H428 0.950 . S
C406 C405 1.349 . S
C406 C418 1.349 . S
C407 C405 1.327 . S
C407 C423 1.429 . S
C407 H429 0.950 . S
C408 H404 0.949 . S
C408 C416 1.574 . S
C408 C424 1.368 . S
H409 C417 0.950 . S
H410 C415 0.950 . S
H411 C416 0.949 . S
H412 C418 0.950 . S
H413 C419 0.950 . S
H414 C420 0.949 . S
C415 H410 0.950 . S
C415 C417 1.327 . S
C415 C421 1.429 . S
C416 C408 1.574 . S
C416 H411 0.949 . S
C416 C422 1.368 . S
C417 C401 1.349 . S
C417 H409 0.950 . S
C417 C415 1.327 . S
C418 C406 1.349 . S
C418 H412 0.950 . S
C418 C419 1.327 . S
C419 H413 0.950 . S
C419 C418 1.327 . S
C419 C423 1.429 . S
C420 C403 1.574 . S
C420 H414 0.949 . S
C420 C424 1.368 . S
C421 C402 1.429 . S
C421 C415 1.429 . S
C421 C422 1.523 . S
C422 C403 1.368 . S
C422 C416 1.368 . S
C422 C421 1.523 . S
C423 C407 1.429 . S
C423 C419 1.429 . S
C423 C424 1.523 . S
C424 C408 1.368 . S
C424 C420 1.368 . S
C424 C423 1.523 . S
H425 C400 0.950 . S
H426 C402 0.950 . S
H427 C403 0.949 . S
H428 C405 0.950 . S
H429 C407 0.950 . S
C430 C431 1.349 . S
C430 C432 1.327 . S
C430 H455 0.950 . S
C431 C430 1.349 . S
C431 C447 1.349 . S
C432 C430 1.327 . S
C432 C451 1.429 . S
C432 H456 0.950 . S
C433 C450 1.574 . S
C433 C452 1.368 . S
C433 H457 0.949 . S
H434 C438 0.949 . S
C435 C436 1.349 . S
C435 C437 1.327 . S
C435 H458 0.950 . S
C436 C435 1.349 . S
C436 C448 1.349 . S
C437 C435 1.327 . S
C437 C453 1.429 . S
C437 H459 0.950 . S
C438 H434 0.949 . S
C438 C446 1.574 . S
C438 C454 1.368 . S
H439 C447 0.950 . S
H440 C445 0.950 . S
H441 C446 0.949 . S
H442 C448 0.950 . S
H443 C449 0.950 . S
H444 C450 0.949 . S
C445 H440 0.950 . S
C445 C447 1.327 . S
C445 C451 1.429 . S
C446 C438 1.574 . S
C446 H441 0.949 . S
C446 C452 1.368 . S
C447 C431 1.349 . S
C447 H439 0.950 . S
C447 C445 1.327 . S
C448 C436 1.349 . S
C448 H442 0.950 . S
C448 C449 1.327 . S
C449 H443 0.950 . S
C449 C448 1.327 . S
C449 C453 1.429 . S
C450 C433 1.574 . S
C450 H444 0.949 . S
C450 C454 1.368 . S
C451 C432 1.429 . S
C451 C445 1.429 . S
C451 C452 1.523 . S
C452 C433 1.368 . S
C452 C446 1.368 . S
C452 C451 1.523 . S
C453 C437 1.429 . S
C453 C449 1.429 . S
C453 C454 1.523 . S
C454 C438 1.368 . S
C454 C450 1.368 . S
C454 C453 1.523 . S
H455 C430 0.950 . S
H456 C432 0.950 . S
H457 C433 0.949 . S
H458 C435 0.950 . S
H459 C437 0.950 . S
C460 C461 1.349 . S
C460 C462 1.327 . S
C460 H485 0.950 . S
C461 C460 1.349 . S
C461 C477 1.349 . S
C462 C460 1.327 . S
C462 C481 1.429 . S
C462 H486 0.950 . S
C463 C480 1.574 . S
C463 C482 1.368 . S
C463 H487 0.949 . S
H464 C468 0.949 . S
C465 C466 1.349 . S
C465 C467 1.327 . S
C465 H488 0.950 . S
C466 C465 1.349 . S
C466 C478 1.349 . S
C467 C465 1.327 . S
C467 C483 1.429 . S
C467 H489 0.950 . S
C468 H464 0.949 . S
C468 C476 1.574 . S
C468 C484 1.368 . S
H469 C477 0.950 . S
H470 C475 0.950 . S
H471 C476 0.949 . S
H472 C478 0.950 . S
H473 C479 0.950 . S
H474 C480 0.949 . S
C475 H470 0.950 . S
C475 C477 1.327 . S
C475 C481 1.429 . S
C476 C468 1.574 . S
C476 H471 0.949 . S
C476 C482 1.368 . S
C477 C461 1.349 . S
C477 H469 0.950 . S
C477 C475 1.327 . S
C478 C466 1.349 . S
C478 H472 0.950 . S
C478 C479 1.327 . S
C479 H473 0.950 . S
C479 C478 1.327 . S
C479 C483 1.429 . S
C480 C463 1.574 . S
C480 H474 0.949 . S
C480 C484 1.368 . S
C481 C462 1.429 . S
C481 C475 1.429 . S
C481 C482 1.523 . S
C482 C463 1.368 . S
C482 C476 1.368 . S
C482 C481 1.523 . S
C483 C467 1.429 . S
C483 C479 1.429 . S
C483 C484 1.523 . S
C484 C468 1.368 . S
C484 C480 1.368 . S
C484 C483 1.523 . S
H485 C460 0.950 . S
H486 C462 0.950 . S
H487 C463 0.949 . S
H488 C465 0.950 . S
H489 C467 0.950 . S
C490 C491 1.349 . S
C490 C492 1.327 . S
C490 H515 0.950 . S
C491 C490 1.349 . S
C491 C507 1.349 . S
C492 C490 1.327 . S
C492 C511 1.429 . S
C492 H516 0.950 . S
C493 C510 1.574 . S
C493 C512 1.368 . S
C493 H517 0.949 . S
H494 C498 0.949 . S
C495 C496 1.349 . S
C495 C497 1.327 . S
C495 H518 0.950 . S
C496 C495 1.349 . S
C496 C508 1.349 . S
C497 C495 1.327 . S
C497 C513 1.429 . S
C497 H519 0.950 . S
C498 H494 0.949 . S
C498 C506 1.574 . S
C498 C514 1.368 . S
H499 C507 0.950 . S
H500 C505 0.950 . S
H501 C506 0.949 . S
H502 C508 0.950 . S
H503 C509 0.950 . S
H504 C510 0.949 . S
C505 H500 0.950 . S
C505 C507 1.327 . S
C505 C511 1.429 . S
C506 C498 1.574 . S
C506 H501 0.949 . S
C506 C512 1.368 . S
C507 C491 1.349 . S
C507 H499 0.950 . S
C507 C505 1.327 . S
C508 C496 1.349 . S
C508 H502 0.950 . S
C508 C509 1.327 . S
C509 H503 0.950 . S
C509 C508 1.327 . S
C509 C513 1.429 . S
C510 C493 1.574 . S
C510 H504 0.949 . S
C510 C514 1.368 . S
C511 C492 1.429 . S
C511 C505 1.429 . S
C511 C512 1.523 . S
C512 C493 1.368 . S
C512 C506 1.368 . S
C512 C511 1.523 . S
C513 C497 1.429 . S
C513 C509 1.429 . S
C513 C514 1.523 . S
C514 C498 1.368 . S
C514 C510 1.368 . S
C514 C513 1.523 . S
H515 C490 0.950 . S
H516 C492 0.950 . S
H517 C493 0.949 . S
H518 C495 0.950 . S
H519 C497 0.950 . S
C520 C521 1.349 . S
C520 C522 1.327 . S
C520 H545 0.950 . S
C521 C520 1.349 . S
C521 C537 1.349 . S
C522 C520 1.327 . S
C522 C541 1.429 . S
C522 H546 0.950 . S
C523 C540 1.574 . S
C523 C542 1.368 . S
C523 H547 0.949 . S
H524 C528 0.949 . S
C525 C526 1.349 . S
C525 C527 1.327 . S
C525 H548 0.950 . S
C526 C525 1.349 . S
C526 C538 1.349 . S
C527 C525 1.327 . S
C527 C543 1.429 . S
C527 H549 0.950 . S
C528 H524 0.949 . S
C528 C536 1.574 . S
C528 C544 1.368 . S
H529 C537 0.950 . S
H530 C535 0.950 . S
H531 C536 0.949 . S
H532 C538 0.950 . S
H533 C539 0.950 . S
H534 C540 0.949 . S
C535 H530 0.950 . S
C535 C537 1.327 . S
C535 C541 1.429 . S
C536 C528 1.574 . S
C536 H531 0.949 . S
C536 C542 1.368 . S
C537 C521 1.349 . S
C537 H529 0.950 . S
C537 C535 1.327 . S
C538 C526 1.349 . S
C538 H532 0.950 . S
C538 C539 1.327 . S
C539 H533 0.950 . S
C539 C538 1.327 . S
C539 C543 1.429 . S
C540 C523 1.574 . S
C540 H534 0.949 . S
C540 C544 1.368 . S
C541 C522 1.429 . S
C541 C535 1.429 . S
C541 C542 1.523 . S
C542 C523 1.368 . S
C542 C536 1.368 . S
C542 C541 1.523 . S
C543 C527 1.429 . S
C543 C539 1.429 . S
C543 C544 1.523 . S
C544 C528 1.368 . S
C544 C540 1.368 . S
C544 C543 1.523 . S
H545 C520 0.950 . S
H546 C522 0.950 . S
H547 C523 0.949 . S
H548 C525 0.950 . S
H549 C527 0.950 . S
C550 C551 1.349 . S
C550 C552 1.327 . S
C550 H575 0.950 . S
C551 C550 1.349 . S
C551 C567 1.349 . S
C552 C550 1.327 . S
C552 C571 1.429 . S
C552 H576 0.950 . S
C553 C570 1.574 . S
C553 C572 1.368 . S
C553 H577 0.949 . S
H554 C558 0.949 . S
C555 C556 1.349 . S
C555 C557 1.327 . S
C555 H578 0.950 . S
C556 C555 1.349 . S
C556 C568 1.349 . S
C557 C555 1.327 . S
C557 C573 1.429 . S
C557 H579 0.950 . S
C558 H554 0.949 . S
C558 C566 1.574 . S
C558 C574 1.368 . S
H559 C567 0.950 . S
H560 C565 0.950 . S
H561 C566 0.949 . S
H562 C568 0.950 . S
H563 C569 0.950 . S
H564 C570 0.949 . S
C565 H560 0.950 . S
C565 C567 1.327 . S
C565 C571 1.429 . S
C566 C558 1.574 . S
C566 H561 0.949 . S
C566 C572 1.368 . S
C567 C551 1.349 . S
C567 H559 0.950 . S
C567 C565 1.327 . S
C568 C556 1.349 . S
C568 H562 0.950 . S
C568 C569 1.327 . S
C569 H563 0.950 . S
C569 C568 1.327 . S
C569 C573 1.429 . S
C570 C553 1.574 . S
C570 H564 0.949 . S
C570 C574 1.368 . S
C571 C552 1.429 . S
C571 C565 1.429 . S
C571 C572 1.523 . S
C572 C553 1.368 . S
C572 C566 1.368 . S
C572 C571 1.523 . S
C573 C557 1.429 . S
C573 C569 1.429 . S
C573 C574 1.523 . S
C574 C558 1.368 . S
C574 C570 1.368 . S
C574 C573 1.523 . S
H575 C550 0.950 . S
H576 C552 0.950 . S
H577 C553 0.949 . S
H578 C555 0.950 . S
H579 C557 0.950 . S
C226 C120 1.679 . S
C221 C43 1.599 . S
C251 C4 1.628 . S
C256 C192 1.662 . S
C281 C17 1.629 . S
C286 C108 1.679 . S
C311 C30 1.665 . S
C316 C204 1.662 . S
C346 C110 1.429 . S
C341 C9 1.596 . S
C376 C191 1.693 . S
C371 C21 1.690 . S
C401 C34 1.633 . S
C406 C107 1.636 . S
C431 C48 1.595 . S
C436 C194 1.422 . S
C466 C206 1.422 . S
C461 C22 1.596 . S
C496 C122 1.429 . S
C491 C35 1.597 1_556 S
C526 C203 1.693 . S
C521 C47 1.687 . S
C551 C8 1.629 . S
C556 C119 1.636 . S
