# Generated by pormake.
# Topology sqc, (4,8)-cn, num edge types: 1
# Building blocks:
#     Node 0, Type 0, BuildingBlock: GIZVER_clean_linker_0, # of connection points: 4
#     Node 1, Type 0, BuildingBlock: GIZVER_clean_linker_0, # of connection points: 4
#     Node 2, Type 0, BuildingBlock: GIZVER_clean_linker_0, # of connection points: 4
#     Node 3, Type 0, BuildingBlock: GIZVER_clean_linker_0, # of connection points: 4
#     Node 4, Type 0, BuildingBlock: GIZVER_clean_linker_0, # of connection points: 4
#     Node 5, Type 0, BuildingBlock: GIZVER_clean_linker_0, # of connection points: 4
#     Node 6, Type 0, BuildingBlock: GIZVER_clean_linker_0, # of connection points: 4
#     Node 7, Type 0, BuildingBlock: GIZVER_clean_linker_0, # of connection points: 4
#     Node 8, Type 1, BuildingBlock: VETTIZ_charged_sbu_0, # of connection points: 8
#     Node 9, Type 1, BuildingBlock: VETTIZ_charged_sbu_0, # of connection points: 8
#     Node 10, Type 1, BuildingBlock: VETTIZ_charged_sbu_0, # of connection points: 8
#     Node 11, Type 1, BuildingBlock: VETTIZ_charged_sbu_0, # of connection points: 8
#     Edge 12, Type (0, 1), BuildingBlock: MIFKUJ_clean_linker_0, # of connection points: 2
#     Edge 13, Type (0, 1), BuildingBlock: MIFKUJ_clean_linker_0, # of connection points: 2
#     Edge 14, Type (0, 1), BuildingBlock: MIFKUJ_clean_linker_0, # of connection points: 2
#     Edge 15, Type (0, 1), BuildingBlock: MIFKUJ_clean_linker_0, # of connection points: 2
#     Edge 16, Type (0, 1), BuildingBlock: MIFKUJ_clean_linker_0, # of connection points: 2
#     Edge 17, Type (0, 1), BuildingBlock: MIFKUJ_clean_linker_0, # of connection points: 2
#     Edge 18, Type (0, 1), BuildingBlock: MIFKUJ_clean_linker_0, # of connection points: 2
#     Edge 19, Type (0, 1), BuildingBlock: MIFKUJ_clean_linker_0, # of connection points: 2
#     Edge 20, Type (0, 1), BuildingBlock: MIFKUJ_clean_linker_0, # of connection points: 2
#     Edge 21, Type (0, 1), BuildingBlock: MIFKUJ_clean_linker_0, # of connection points: 2
#     Edge 22, Type (0, 1), BuildingBlock: MIFKUJ_clean_linker_0, # of connection points: 2
#     Edge 23, Type (0, 1), BuildingBlock: MIFKUJ_clean_linker_0, # of connection points: 2
#     Edge 24, Type (0, 1), BuildingBlock: MIFKUJ_clean_linker_0, # of connection points: 2
#     Edge 25, Type (0, 1), BuildingBlock: MIFKUJ_clean_linker_0, # of connection points: 2
#     Edge 26, Type (0, 1), BuildingBlock: MIFKUJ_clean_linker_0, # of connection points: 2
#     Edge 27, Type (0, 1), BuildingBlock: MIFKUJ_clean_linker_0, # of connection points: 2
#     Edge 28, Type (0, 1), BuildingBlock: MIFKUJ_clean_linker_0, # of connection points: 2
#     Edge 29, Type (0, 1), BuildingBlock: MIFKUJ_clean_linker_0, # of connection points: 2
#     Edge 30, Type (0, 1), BuildingBlock: MIFKUJ_clean_linker_0, # of connection points: 2
#     Edge 31, Type (0, 1), BuildingBlock: MIFKUJ_clean_linker_0, # of connection points: 2
#     Edge 32, Type (0, 1), BuildingBlock: MIFKUJ_clean_linker_0, # of connection points: 2
#     Edge 33, Type (0, 1), BuildingBlock: MIFKUJ_clean_linker_0, # of connection points: 2
#     Edge 34, Type (0, 1), BuildingBlock: MIFKUJ_clean_linker_0, # of connection points: 2
#     Edge 35, Type (0, 1), BuildingBlock: MIFKUJ_clean_linker_0, # of connection points: 2
#     Edge 36, Type (0, 1), BuildingBlock: MIFKUJ_clean_linker_0, # of connection points: 2
#     Edge 37, Type (0, 1), BuildingBlock: MIFKUJ_clean_linker_0, # of connection points: 2
#     Edge 38, Type (0, 1), BuildingBlock: MIFKUJ_clean_linker_0, # of connection points: 2
#     Edge 39, Type (0, 1), BuildingBlock: MIFKUJ_clean_linker_0, # of connection points: 2
#     Edge 40, Type (0, 1), BuildingBlock: MIFKUJ_clean_linker_0, # of connection points: 2
#     Edge 41, Type (0, 1), BuildingBlock: MIFKUJ_clean_linker_0, # of connection points: 2
#     Edge 42, Type (0, 1), BuildingBlock: MIFKUJ_clean_linker_0, # of connection points: 2
#     Edge 43, Type (0, 1), BuildingBlock: MIFKUJ_clean_linker_0, # of connection points: 2
# Relax obj value: 0.167
# Max RMSD: 0.279
# Mean RMSD: 0.219
data_MOF--net-sqc--node1-VETTIZ_charged_sbu_0--node2-GIZVER_clean_linker_0--edge1-MIFKUJ_clean_linker_0
_symmetry_space_group_name_H-M    P1
_symmetry_Int_Tables_number       1
_symmetry_cell_setting            triclinic
loop_
_symmetry_equiv_pos_as_xyz
'x, y, z'
_cell_length_a     31.845747
_cell_length_b     31.884072
_cell_length_c     86.079153
_cell_angle_alpha  90.203762
_cell_angle_beta   89.93922
_cell_angle_gamma 89.938705
loop_
_atom_site_label
_atom_site_type_symbol
_atom_site_fract_x
_atom_site_fract_y
_atom_site_fract_z
_atom_type_partial_charge
H0 H 0.95802 1.00378 0.48961 0.0
H1 H 0.94111 0.07618 0.53157 0.0
H2 H 0.84851 0.9857 0.51798 0.0
H3 H 0.99178 0.07411 0.4938 0.0
H4 H 0.99006 0.09901 0.51221 0.0
H5 H 0.04649 0.02491 0.48731 0.0
H6 H 0.15299 0.02178 0.51789 0.0
H7 H 0.03752 0.07676 0.53359 0.0
C8 C 0.94067 0.01012 0.5002 0.0
C9 C 0.90188 0.99002 0.50276 0.0
C10 C 0.95592 0.04032 0.51086 0.0
C11 C 0.93128 0.05083 0.52398 0.0
C12 C 0.89197 0.03182 0.52638 0.0
C13 C 0.8789 1.00016 0.51615 0.0
C14 C 0.99301 0.06777 0.5065 0.0
C15 C 0.03576 0.04953 0.51046 0.0
C16 C 0.06 0.02991 0.49871 0.0
C17 C 0.10276 0.02086 0.50117 0.0
C18 C 0.12017 0.02898 0.51581 0.0
C19 C 0.09742 0.04977 0.52742 0.0
C20 C 0.05481 0.05916 0.52489 0.0
H21 H 0.31392 0.81572 0.75293 0.0
H22 H 0.26946 0.81575 0.80023 0.0
H23 H 0.23492 0.91574 0.76965 0.0
H24 H 0.35296 0.77939 0.77474 0.0
H25 H 0.3276 0.7714 0.79291 0.0
H26 H 0.3437 0.72986 0.75384 0.0
H27 H 0.27273 0.61861 0.76287 0.0
H28 H 0.26425 0.72369 0.79435 0.0
C29 C 0.29467 0.82954 0.76199 0.0
C30 C 0.27351 0.86762 0.75925 0.0
C31 C 0.29314 0.81033 0.7767 0.0
C32 C 0.26956 0.82932 0.7887 0.0
C33 C 0.24759 0.86683 0.78601 0.0
C34 C 0.24956 0.88535 0.77129 0.0
C35 C 0.3218 0.77365 0.7802 0.0
C36 C 0.30467 0.7321 0.77448 0.0
C37 C 0.32067 0.71342 0.76081 0.0
C38 C 0.30828 0.67278 0.7565 0.0
C39 C 0.28003 0.65083 0.76589 0.0
C40 C 0.26398 0.66851 0.77965 0.0
C41 C 0.27596 0.70962 0.78371 0.0
H42 H 0.5502 1.00038 0.03273 0.0
H43 H 0.563 0.06949 0.99021 0.0
H44 H 0.66218 0.98793 0.00508 0.0
H45 H 0.51478 0.07111 0.02821 0.0
H46 H 0.51328 0.09232 0.00915 0.0
H47 H 0.46889 0.014 0.0358 0.0
H48 H 0.36022 0.99525 0.00729 0.0
H49 H 0.46727 0.06121 0.98901 0.0
C50 C 0.56789 0.00733 0.0223 0.0
C51 C 0.60751 0.98874 0.01988 0.0
C52 C 0.55181 0.03664 0.01166 0.0
C53 C 0.57503 0.04638 0.99827 0.0
C54 C 0.61474 0.02847 0.99573 0.0
C55 C 0.63044 0.99957 0.00652 0.0
C56 C 0.51346 0.06228 0.0157 0.0
C57 C 0.47307 0.03907 0.01258 0.0
C58 C 0.45357 0.01668 0.02461 0.0
C59 C 0.41283 1.00104 0.0227 0.0
C60 C 0.39229 0.0062 0.00845 0.0
C61 C 0.41157 0.02751 0.99609 0.0
C62 C 0.45232 0.04363 0.99823 0.0
H63 H 0.18069 0.21988 0.25346 0.0
H64 H 0.25548 0.22141 0.29511 0.0
H65 H 0.26008 0.11505 0.26445 0.0
H66 H 0.16052 0.26328 0.27591 0.0
H67 H 0.19116 0.26348 0.29311 0.0
H68 H 0.18352 0.30525 0.25257 0.0
H69 H 0.24189 0.42125 0.26572 0.0
H70 H 0.24213 0.31762 0.29755 0.0
C71 C 0.20437 0.20551 0.26075 0.0
C72 C 0.22028 0.16558 0.25686 0.0
C73 C 0.21708 0.22602 0.27451 0.0
C74 C 0.24665 0.20645 0.28427 0.0
C75 C 0.26292 0.16664 0.28055 0.0
C76 C 0.24971 0.14684 0.26681 0.0
C77 C 0.19345 0.26436 0.28021 0.0
C78 C 0.21274 0.30568 0.27528 0.0
C79 C 0.20227 0.3231 0.26075 0.0
C80 C 0.21276 0.36483 0.25736 0.0
C81 C 0.23463 0.38878 0.26833 0.0
C82 C 0.24542 0.37221 0.28286 0.0
C83 C 0.23528 0.3302 0.28614 0.0
H84 H 0.68361 0.30566 0.27485 0.0
H85 H 0.74945 0.31546 0.23131 0.0
H86 H 0.75696 0.41528 0.26482 0.0
H87 H 0.66525 0.2614 0.25228 0.0
H88 H 0.69462 0.26398 0.23472 0.0
H89 H 0.69406 0.22345 0.27531 0.0
H90 H 0.77267 0.1185 0.26317 0.0
H91 H 0.75413 0.21804 0.2305 0.0
C92 C 0.70543 0.32226 0.26742 0.0
C93 C 0.71862 0.36288 0.27153 0.0
C94 C 0.71753 0.30441 0.25307 0.0
C95 C 0.74272 0.32781 0.2428 0.0
C96 C 0.75593 0.3685 0.24677 0.0
C97 C 0.74579 0.3844 0.26152 0.0
C98 C 0.69774 0.26389 0.24759 0.0
C99 C 0.72234 0.22564 0.25255 0.0
C100 C 0.71522 0.20791 0.26727 0.0
C101 C 0.73346 0.16924 0.2713 0.0
C102 C 0.76019 0.14933 0.26057 0.0
C103 C 0.76811 0.16668 0.24592 0.0
C104 C 0.74915 0.205 0.24197 0.0
H105 H 0.6906 0.72314 0.74322 0.0
H106 H 0.7565 0.72765 0.78683 0.0
H107 H 0.7609 0.61608 0.7586 0.0
H108 H 0.67248 0.77538 0.76259 0.0
H109 H 0.69656 0.77493 0.78122 0.0
H110 H 0.71082 0.80739 0.7397 0.0
H111 H 0.7858 0.91385 0.75277 0.0
H112 H 0.75224 0.82237 0.78704 0.0
C113 C 0.71174 0.70878 0.75152 0.0
C114 C 0.72529 0.66734 0.74914 0.0
C115 C 0.72355 0.73103 0.76497 0.0
C116 C 0.74922 0.71134 0.7761 0.0
C117 C 0.76244 0.66957 0.77399 0.0
C118 C 0.75131 0.64844 0.76024 0.0
C119 C 0.70337 0.77286 0.76856 0.0
C120 C 0.73035 0.80956 0.76373 0.0
C121 C 0.72911 0.82423 0.74831 0.0
C122 C 0.74944 0.86177 0.7442 0.0
C123 C 0.77138 0.88409 0.75568 0.0
C124 C 0.77215 0.87052 0.77115 0.0
C125 C 0.75264 0.83253 0.77504 0.0
H126 H 0.47188 0.5139 0.04588 0.0
H127 H 0.46948 0.47607 0.99778 0.0
H128 H 0.3664 0.54594 0.01734 0.0
H129 H 0.51531 0.45512 0.03647 0.0
H130 H 0.51389 0.43943 0.01666 0.0
H131 H 0.55489 0.52275 0.04393 0.0
H132 H 0.66952 0.53591 0.01818 0.0
H133 H 0.57077 0.45776 1.00025 0.0
C134 C 0.45714 0.51458 0.03454 0.0
C135 C 0.41775 0.53396 0.03283 0.0
C136 C 0.47658 0.49429 0.02184 0.0
C137 C 0.45559 0.49317 0.0074 0.0
C138 C 0.41575 0.51191 0.0056 0.0
C139 C 0.39778 0.53297 0.01833 0.0
C140 C 0.51538 0.46744 0.02439 0.0
C141 C 0.55666 0.49023 0.02179 0.0
C142 C 0.57306 0.5166 0.03351 0.0
C143 C 0.61372 0.53333 0.03214 0.0
C144 C 0.63787 0.52354 0.01901 0.0
C145 C 0.62339 0.49549 0.00762 0.0
C146 C 0.58208 0.48002 0.00881 0.0
H147 H 0.03942 0.49671 0.53343 0.0
H148 H 0.04401 0.55001 0.48765 0.0
H149 H 0.1467 0.47521 0.5041 0.0
H150 H 1.00006 0.56216 0.52679 0.0
H151 H 0.99717 0.57917 0.50715 0.0
H152 H 0.96507 0.49239 0.53446 0.0
H153 H 0.84802 0.47347 0.51078 0.0
H154 H 0.93927 0.55824 0.49191 0.0
C155 C 0.0553 0.50015 0.52239 0.0
C156 C 0.09475 0.48134 0.52005 0.0
C157 C 0.03688 0.5251 0.51081 0.0
C158 C 0.05773 0.5302 0.4965 0.0
C159 C 0.09702 0.51124 0.49387 0.0
C160 C 0.11514 0.48718 0.50573 0.0
C161 C 0.99819 0.5507 0.51458 0.0
C162 C 0.95798 0.52594 0.5128 0.0
C163 C 0.94512 0.49784 0.52449 0.0
C164 C 0.90563 0.47832 0.52371 0.0
C165 C 0.8791 0.48728 0.51116 0.0
C166 C 0.89043 0.51666 0.49983 0.0
C167 C 0.93055 0.53484 0.50042 0.0
Fe168 Fe 1.00345 0.74186 0.17596 0.0
O169 O 0.01169 0.73793 0.15326 0.0
Fe170 Fe 0.96416 0.76215 0.13909 0.0
Fe171 Fe 0.06103 0.76169 0.1419 0.0
O172 O 0.00774 0.73829 0.15319 0.0
O173 O 0.01296 0.78866 0.12833 0.0
O174 O 0.01729 0.78856 0.12847 0.0
Fe175 Fe 0.01978 0.78706 0.10565 0.0
C176 C 0.0613 0.81756 0.17037 0.0
O177 O 0.05371 0.70123 0.17566 0.0
O178 O 0.10003 0.72871 0.15757 0.0
O179 O 0.97459 0.7416 0.10226 0.0
O180 O 0.96715 0.70987 0.125 0.0
O181 O 0.91867 0.72931 0.15202 0.0
O182 O 0.95665 0.69871 0.1719 0.0
O183 O 0.06452 0.70951 0.12764 0.0
O184 O 0.06654 0.7424 0.10495 0.0
C185 C 0.92419 0.70132 0.16284 0.0
O186 O 0.96865 0.82759 0.10656 0.0
O187 O 0.92454 0.79172 0.12318 0.0
O188 O 0.0468 0.78925 0.17927 0.0
O189 O 0.06166 0.81428 0.15568 0.0
C190 C 0.09018 0.70344 0.16893 0.0
C191 C 0.07768 0.71224 0.11369 0.0
C192 C 0.10309 0.82027 0.11756 0.0
O193 O 0.10667 0.79169 0.1283 0.0
O194 O 0.06892 0.82828 0.10976 0.0
C195 C 0.96018 0.7117 0.11046 0.0
O196 O 0.95837 0.81503 0.15257 0.0
O197 O 0.95664 0.78717 0.17616 0.0
C198 C 0.93182 0.81951 0.11246 0.0
C199 C 0.94983 0.81757 0.16694 0.0
Fe200 Fe 0.47644 0.77159 0.42678 0.0
O201 O 0.47305 0.76808 0.40393 0.0
Fe202 Fe 0.49973 0.81639 0.39076 0.0
Fe203 Fe 0.49605 0.71944 0.39196 0.0
O204 O 0.4734 0.77211 0.40392 0.0
O205 O 0.52432 0.76774 0.37912 0.0
O206 O 0.52385 0.76352 0.37911 0.0
Fe207 Fe 0.52313 0.76314 0.35636 0.0
C208 C 0.55048 0.71342 0.42016 0.0
O209 O 0.43198 0.72534 0.42476 0.0
O210 O 0.46187 0.67961 0.40704 0.0
O211 O 0.47975 0.81072 0.35366 0.0
O212 O 0.44787 0.818 0.37651 0.0
O213 O 0.46819 0.86145 0.40464 0.0
O214 O 0.43679 0.8221 0.424 0.0
O215 O 0.44405 0.71814 0.37783 0.0
O216 O 0.47587 0.71885 0.35481 0.0
C217 C 0.4404 0.85563 0.4156 0.0
O218 O 0.56631 0.81176 0.35834 0.0
O219 O 0.53161 0.85617 0.37542 0.0
O220 O 0.52014 0.7237 0.42904 0.0
O221 O 0.54851 0.71803 0.40557 0.0
C222 C 0.43338 0.68983 0.41733 0.0
C223 C 0.44547 0.70787 0.36353 0.0
C224 C 0.55388 0.67731 0.36715 0.0
O225 O 0.52539 0.67398 0.37798 0.0
O226 O 0.56227 0.71174 0.35963 0.0
C227 C 0.45035 0.82585 0.36205 0.0
O228 O 0.55255 0.81801 0.40449 0.0
O229 O 0.52546 0.81416 0.4283 0.0
C230 C 0.55968 0.8483 0.36474 0.0
C231 C 0.55587 0.82205 0.41913 0.0
Fe232 Fe 0.4988 0.23921 0.67889 0.0
O233 O 0.49846 0.23319 0.65615 0.0
Fe234 Fe 0.44815 0.25874 0.64356 0.0
Fe235 Fe 0.54561 0.25403 0.64294 0.0
O236 O 0.49425 0.23331 0.65617 0.0
O237 O 0.49526 0.2797 0.63028 0.0
O238 O 0.49958 0.27954 0.63026 0.0
Fe239 Fe 0.49629 0.27366 0.60754 0.0
C240 C 0.5557 0.31173 0.67019 0.0
O241 O 0.5437 0.19337 0.67649 0.0
O242 O 0.5874 0.22194 0.65788 0.0
O243 O 0.44817 0.23033 0.60682 0.0
O244 O 0.44231 0.20444 0.63069 0.0
O245 O 0.40491 0.23138 0.6591 0.0
O246 O 0.44665 0.20119 0.67805 0.0
O247 O 0.5449 0.19957 0.63012 0.0
O248 O 0.54015 0.22602 0.60632 0.0
C249 C 0.41157 0.20552 0.67056 0.0
O250 O 0.44839 0.31738 0.60921 0.0
O251 O 0.40633 0.28919 0.62847 0.0
O252 O 0.54788 0.28151 0.67936 0.0
O253 O 0.54941 0.30864 0.65566 0.0
C254 C 0.57819 0.19393 0.6684 0.0
C255 C 0.55246 0.19765 0.61564 0.0
C256 C 0.5836 0.30641 0.61576 0.0
O257 O 0.58897 0.28081 0.6274 0.0
O258 O 0.54802 0.31288 0.60869 0.0
C259 C 0.43353 0.20339 0.61627 0.0
O260 O 0.4503 0.31354 0.65627 0.0
O261 O 0.45788 0.28943 0.68042 0.0
C262 C 0.41282 0.3136 0.61656 0.0
C263 C 0.44895 0.31869 0.67093 0.0
Fe264 Fe 0.03658 0.27031 0.92603 0.0
O265 O 0.04066 0.27074 0.90318 0.0
Fe266 Fe 0.01989 0.32443 0.89137 0.0
Fe267 Fe 0.01467 0.22725 0.88945 0.0
O268 O 0.04114 0.27482 0.90321 0.0
O269 O 0.99053 0.28097 0.87849 0.0
O270 O 0.99055 0.27652 0.87834 0.0
Fe271 Fe 0.99136 0.28083 0.85566 0.0
C272 C 0.0701 0.18492 0.91469 0.0
O273 O 0.98621 0.2291 0.92695 0.0
O274 O 0.96163 0.22463 0.90279 0.0
O275 O 0.95307 0.33248 0.85935 0.0
O276 O 0.99132 0.37048 0.8774 0.0
O277 O 0.96758 0.32902 0.90517 0.0
O278 O 0.99492 0.31985 0.92862 0.0
O279 O 0.98299 0.18788 0.87388 0.0
O280 O 0.94779 0.23273 0.85746 0.0
C281 C 0.96627 0.33405 0.91978 0.0
O282 O 0.0389 0.32411 0.85414 0.0
O283 O 0.07173 0.32398 0.87697 0.0
O284 O 0.07424 0.21813 0.92332 0.0
O285 O 0.04465 0.18109 0.90293 0.0
C286 C 0.95767 0.21895 0.91728 0.0
C287 C 0.95448 0.19586 0.86346 0.0
C288 C 0.06456 0.21878 0.86085 0.0
O289 O 0.06704 0.22659 0.87534 0.0
O290 O 0.03438 0.23292 0.85268 0.0
C291 C 0.96186 0.3669 0.86691 0.0
O292 O 0.0563 0.3625 0.90669 0.0
O293 O 0.08274 0.31499 0.92451 0.0
C294 C 0.07018 0.33367 0.86263 0.0
C295 C 0.08357 0.35062 0.91722 0.0
H296 H 0.09045 0.96241 0.47769 0.0
H297 H 0.14166 0.94005 0.45789 0.0
H298 H 0.23145 0.02862 0.47622 0.0
H299 H 0.18017 0.05264 0.49504 0.0
H300 H 0.23978 0.02871 0.44724 0.0
H301 H 0.22912 0.91787 0.48536 0.0
H302 H 0.1928 0.86323 0.5005 0.0
H303 H 0.15816 0.79996 0.4583 0.0
H304 H 0.19388 0.85455 0.44291 0.0
H305 H 0.43887 0.92524 0.43423 0.0
H306 H 0.37506 0.96103 0.44353 0.0
H307 H 0.30017 0.88622 0.41227 0.0
H308 H 0.36381 0.85114 0.40285 0.0
H309 H 0.27807 0.87824 0.44382 0.0
H310 H 0.29831 0.98738 0.40636 0.0
H311 H 0.33499 0.04346 0.39223 0.0
H312 H 0.3563 0.10956 0.43504 0.0
H313 H 0.31948 0.05384 0.44946 0.0
C314 C 0.12092 0.97741 0.4773 0.0
C315 C 0.13154 0.0085 0.48824 0.0
C316 C 0.15036 0.96436 0.46608 0.0
C317 C 0.19099 0.98191 0.46574 0.0
C318 C 0.20063 0.01425 0.47621 0.0
C319 C 0.1713 0.02759 0.48717 0.0
C320 C 0.22446 0.96632 0.45499 0.0
C321 C 0.24821 0.99577 0.44661 0.0
C322 C 0.23519 0.92327 0.45377 0.0
C323 C 0.21366 0.89054 0.46299 0.0
C324 C 0.21347 0.89247 0.47932 0.0
C325 C 0.19305 0.86149 0.48794 0.0
C326 C 0.17306 0.82823 0.48036 0.0
C327 C 0.17356 0.82581 0.46415 0.0
C328 C 0.19388 0.85674 0.45547 0.0
C329 C 0.40898 0.91804 0.42886 0.0
C330 C 0.40616 0.88618 0.41763 0.0
C331 C 0.37252 0.93819 0.43423 0.0
C332 C 0.3328 0.92618 0.42861 0.0
C333 C 0.33041 0.89605 0.41673 0.0
C334 C 0.36678 0.87635 0.41126 0.0
C335 C 0.29385 0.9408 0.43651 0.0
C336 C 0.2692 0.91109 0.44435 0.0
C337 C 0.28285 0.98363 0.4375 0.0
C338 C 0.30645 0.01629 0.42899 0.0
C339 C 0.31123 0.01364 0.41278 0.0
C340 C 0.33193 0.04546 0.40471 0.0
C341 C 0.34813 0.08002 0.41273 0.0
C342 C 0.34374 0.08278 0.42885 0.0
C343 C 0.32284 0.05115 0.43697 0.0
H344 H 0.3639 0.10479 0.40645 0.0
H345 H 0.15728 0.80427 0.48705 0.0
H346 H 0.21674 0.91568 0.74315 0.0
H347 H 0.23262 0.96968 0.72407 0.0
H348 H 0.36213 0.92981 0.72322 0.0
H349 H 0.34708 0.87763 0.74309 0.0
H350 H 0.36004 0.00861 0.72793 0.0
H351 H 0.29336 0.91907 0.69113 0.0
H352 H 0.2378 0.8738 0.68032 0.0
H353 H 0.15189 0.97769 0.68049 0.0
H354 H 0.20678 0.02348 0.6915 0.0
H355 H 0.39174 0.13416 0.65545 0.0
H356 H 0.35608 0.07347 0.66664 0.0
H357 H 0.32752 0.14591 0.70772 0.0
H358 H 0.36285 0.20689 0.69637 0.0
H359 H 0.28006 0.04832 0.68076 0.0
H360 H 0.36465 0.08971 0.73808 0.0
H361 H 0.4255 0.13134 0.7469 0.0
H362 H 0.48478 0.11448 0.70247 0.0
H363 H 0.42467 0.07218 0.69351 0.0
C364 C 0.24855 0.91801 0.73877 0.0
C365 C 0.28074 0.8926 0.74487 0.0
C366 C 0.25749 0.9487 0.72769 0.0
C367 C 0.29863 0.95401 0.72218 0.0
C368 C 0.33016 0.92653 0.72736 0.0
C369 C 0.32137 0.89623 0.73861 0.0
C370 C 0.30973 0.99096 0.71247 0.0
C371 C 0.34251 0.01698 0.71759 0.0
C372 C 0.28724 1.00207 0.69888 0.0
C373 C 0.25411 0.97463 0.69227 0.0
C374 C 0.26252 0.9322 0.68898 0.0
C375 C 0.23117 0.90645 0.68279 0.0
C376 C 0.19131 0.92283 0.67975 0.0
C377 C 0.18277 0.96503 0.68286 0.0
C378 C 0.21401 0.99091 0.68906 0.0
C379 C 0.37538 0.13791 0.66639 0.0
C380 C 0.37873 0.17547 0.67485 0.0
C381 C 0.35546 0.10304 0.67288 0.0
C382 C 0.33947 0.10508 0.68805 0.0
C383 C 0.33972 0.14369 0.69599 0.0
C384 C 0.3596 0.17856 0.68949 0.0
C385 C 0.32954 0.06581 0.69649 0.0
C386 C 0.29725 0.0396 0.69113 0.0
C387 C 0.35316 0.0537 0.70964 0.0
C388 C 0.38994 0.07822 0.71508 0.0
C389 C 0.39077 0.09474 0.73023 0.0
C390 C 0.42513 0.11846 0.73525 0.0
C391 C 0.45891 0.12568 0.72523 0.0
C392 C 0.45853 0.10899 0.7102 0.0
C393 C 0.42432 0.08516 0.70515 0.0
H394 H 0.48542 0.14412 0.72913 0.0
H395 H 0.16708 0.90285 0.67496 0.0
H396 H 0.3575 0.97567 0.98038 0.0
H397 H 0.30465 0.99623 0.9614 0.0
H398 H 0.35618 0.12131 0.96039 0.0
H399 H 0.40765 0.10154 0.98004 0.0
H400 H 0.27824 0.12696 0.96562 0.0
H401 H 0.35729 0.05365 0.92801 0.0
H402 H 0.39752 0.99591 0.91604 0.0
H403 H 0.28799 0.91754 0.91684 0.0
H404 H 0.24721 0.97459 0.92905 0.0
H405 H 0.13198 0.15361 0.89629 0.0
H406 H 0.19525 0.11779 0.90566 0.0
H407 H 0.13772 0.10414 0.95076 0.0
H408 H 0.07568 0.14186 0.94159 0.0
H409 H 0.22474 0.04801 0.92001 0.0
H410 H 0.20231 0.13885 0.97797 0.0
H411 H 0.16611 0.20252 0.98739 0.0
H412 H 0.17286 0.25606 0.94176 0.0
H413 H 0.20968 0.19303 0.93213 0.0
C414 C 0.35798 0.00743 0.97596 0.0
C415 C 0.38646 0.03711 0.98194 0.0
C416 C 0.32797 0.01904 0.96494 0.0
C417 C 0.32622 0.06041 0.95943 0.0
C418 C 0.3567 0.08924 0.9645 0.0
C419 C 0.38647 0.07775 0.97565 0.0
C420 C 0.28956 0.07484 0.95012 0.0
C421 C 0.2669 0.1097 0.95559 0.0
C422 C 0.27482 0.05298 0.93683 0.0
C423 C 0.29927 0.01835 0.9296 0.0
C424 C 0.34186 0.02398 0.92578 0.0
C425 C 0.36475 0.99138 0.91892 0.0
C426 C 0.34536 0.95304 0.91571 0.0
C427 C 0.30299 0.94725 0.91935 0.0
C428 C 0.27995 0.97973 0.92623 0.0
C429 C 0.13239 0.1415 0.908 0.0
C430 C 0.09932 0.15059 0.91826 0.0
C431 C 0.16856 0.12116 0.91337 0.0
C432 C 0.17167 0.1094 0.92904 0.0
C433 C 0.13635 0.11378 0.93871 0.0
C434 C 0.10076 0.13494 0.93345 0.0
C435 C 0.21311 0.09882 0.93593 0.0
C436 C 0.23649 0.06504 0.93 0.0
C437 C 0.22947 0.12245 0.9485 0.0
C438 C 0.20846 0.16106 0.95431 0.0
C439 C 0.19632 0.16433 0.96998 0.0
C440 C 0.17565 0.20029 0.97535 0.0
C441 C 0.1671 0.23327 0.96517 0.0
C442 C 0.17941 0.23046 0.94962 0.0
C443 C 0.20018 0.19463 0.9442 0.0
H444 H 0.151 0.26103 0.96935 0.0
H445 H 0.36313 0.92786 0.91039 0.0
H446 H 0.13812 0.15895 0.24725 0.0
H447 H 0.10895 0.10728 0.2292 0.0
H448 H 0.23364 0.06122 0.21942 0.0
H449 H 0.26314 0.1143 0.2367 0.0
H450 H 0.18741 0.05502 0.19419 0.0
H451 H 0.16782 0.0213 0.24876 0.0
H452 H 0.14042 0.03327 0.27524 0.0
H453 H 0.01429 0.0328 0.25787 0.0
H454 H 0.04069 0.02157 0.23128 0.0
H455 H 0.14242 0.84374 0.1721 0.0
H456 H 0.16872 0.90799 0.18453 0.0
H457 H 0.04139 0.94349 0.19604 0.0
H458 H 0.01601 0.87834 0.18441 0.0
H459 H 0.08639 0.95831 0.21927 0.0
H460 H 0.10564 0.9832 0.16472 0.0
H461 H 0.13297 0.97047 0.13841 0.0
H462 H 0.25915 0.98518 0.15502 0.0
H463 H 0.23267 0.99755 0.18156 0.0
C464 C 0.15949 0.13883 0.24087 0.0
C465 C 0.20301 0.14041 0.24366 0.0
C466 C 0.14268 0.10887 0.23067 0.0
C467 C 0.16896 0.07942 0.22328 0.0
C468 C 0.21259 0.08317 0.2251 0.0
C469 C 0.22942 0.11341 0.2351 0.0
C470 C 0.15132 0.04254 0.21481 0.0
C471 C 0.16542 0.03371 0.19966 0.0
C472 C 0.12208 0.01502 0.22186 0.0
C473 C 0.10633 0.02134 0.23795 0.0
C474 C 0.13426 0.02411 0.25055 0.0
C475 C 0.11892 0.03068 0.2656 0.0
C476 C 0.07576 0.03393 0.26822 0.0
C477 C 0.04775 0.03047 0.25582 0.0
C478 C 0.06288 0.02407 0.24075 0.0
C479 C 0.12031 0.86549 0.17731 0.0
C480 C 0.07724 0.85643 0.17741 0.0
C481 C 0.13521 0.90232 0.18429 0.0
C482 C 0.10705 0.93132 0.19098 0.0
C483 C 0.06389 0.92199 0.19093 0.0
C484 C 0.04925 0.88478 0.18431 0.0
C485 C 0.12229 0.97058 0.19855 0.0
C486 C 0.10797 0.97973 0.21363 0.0
C487 C 0.1512 0.99829 0.19136 0.0
C488 C 0.16703 0.99139 0.17525 0.0
C489 C 0.1392 0.98386 0.16285 0.0
C490 C 0.15458 0.97657 0.14785 0.0
C491 C 0.19777 0.97702 0.14504 0.0
C492 C 0.22568 0.98486 0.15721 0.0
C493 C 0.21048 0.99206 0.17224 0.0
H494 H 0.2096 0.97129 0.13343 0.0
H495 H 0.06401 0.03899 0.27989 0.0
H496 H 0.09175 0.0314 0.5587 0.0
H497 H 0.14401 0.05001 0.57881 0.0
H498 H 0.21155 0.12415 0.54531 0.0
H499 H 0.15955 0.10654 0.52551 0.0
H500 H 0.25663 0.05134 0.56164 0.0
H501 H 0.17697 0.18088 0.56909 0.0
H502 H 0.11298 0.22135 0.57527 0.0
H503 H 0.10382 0.15938 0.61936 0.0
H504 H 0.16764 0.11828 0.61334 0.0
H505 H 0.41948 0.17881 0.58637 0.0
H506 H 0.35841 0.14245 0.5761 0.0
H507 H 0.30981 0.1273 0.62255 0.0
H508 H 0.37019 0.16604 0.6328 0.0
H509 H 0.24979 0.15288 0.60531 0.0
H510 H 0.34397 0.04049 0.59962 0.0
H511 H 0.4096 1.00325 0.59314 0.0
H512 H 0.39359 0.03399 0.54499 0.0
H513 H 0.32819 0.07197 0.55118 0.0
C514 C 0.117 0.05277 0.55586 0.0
C515 C 0.12172 0.06755 0.5406 0.0
C516 C 0.14692 0.06313 0.56728 0.0
C517 C 0.18182 0.0881 0.56346 0.0
C518 C 0.18501 0.10469 0.54846 0.0
C519 C 0.15518 0.09478 0.5372 0.0
C520 C 0.21735 0.09425 0.57438 0.0
C521 C 0.25537 0.07372 0.57116 0.0
C522 C 0.21514 0.1221 0.58713 0.0
C523 C 0.17648 0.14602 0.59066 0.0
C524 C 0.16094 0.17551 0.58001 0.0
C525 C 0.12485 0.19868 0.58351 0.0
C526 C 0.10421 0.19277 0.59767 0.0
C527 C 0.11974 0.1638 0.60838 0.0
C528 C 0.15587 0.14057 0.60493 0.0
C529 C 0.3963 0.16698 0.59446 0.0
C530 C 0.40029 0.17459 0.61049 0.0
C531 C 0.36137 0.14579 0.58857 0.0
C532 C 0.32961 0.1311 0.59853 0.0
C533 C 0.33399 0.13775 0.6146 0.0
C534 C 0.36894 0.1593 0.62051 0.0
C535 C 0.29046 0.11256 0.59183 0.0
C536 C 0.25142 0.13011 0.59596 0.0
C537 C 0.29191 0.08228 0.57975 0.0
C538 C 0.33115 0.05921 0.57589 0.0
C539 C 0.35454 0.03952 0.58765 0.0
C540 C 0.39171 0.01825 0.58403 0.0
C541 C 0.40576 0.01627 0.56867 0.0
C542 C 0.38264 0.03551 0.55688 0.0
C543 C 0.34546 0.05684 0.56044 0.0
H544 H 0.43456 0.99981 0.56589 0.0
H545 H 0.07628 0.21077 0.60037 0.0
H546 H 0.16763 0.89653 0.78649 0.0
H547 H 0.14081 0.95327 0.80292 0.0
H548 H 0.25467 0.95045 0.82995 0.0
H549 H 0.28165 0.89327 0.81349 0.0
H550 H 0.17645 0.97294 0.84735 0.0
H551 H 0.25716 0.01197 0.80213 0.0
H552 H 0.2747 0.00593 0.7743 0.0
H553 H 0.15081 0.04777 0.76223 0.0
H554 H 0.13221 0.05313 0.79 0.0
H555 H 0.13851 0.18549 0.87207 0.0
H556 H 0.17591 0.12336 0.86219 0.0
H557 H 0.08828 0.11499 0.82411 0.0
H558 H 0.05133 0.1763 0.8338 0.0
H559 H 0.1634 0.0988 0.81389 0.0
H560 H 0.08032 0.05667 0.85811 0.0
H561 H 0.05844 0.05752 0.8856 0.0
H562 H 0.18191 0.01847 0.89938 0.0
H563 H 0.20499 0.01877 0.87202 0.0
C564 C 0.18624 0.90691 0.79631 0.0
C565 C 0.22677 0.89074 0.79868 0.0
C566 C 0.17096 0.93938 0.80566 0.0
C567 C 0.19608 0.95652 0.81747 0.0
C568 C 0.23483 0.93764 0.82089 0.0
C569 C 0.25014 0.9049 0.81152 0.0
C570 C 0.1846 0.99777 0.82434 0.0
C571 C 0.17424 1.00071 0.84015 0.0
C572 C 0.18143 0.03383 0.81487 0.0
C573 C 0.19321 0.0327 0.79816 0.0
C574 C 0.23361 0.01975 0.79354 0.0
C575 C 0.24373 0.01639 0.77778 0.0
C576 C 0.21387 0.0264 0.7665 0.0
C577 C 0.1739 0.04 0.77097 0.0
C578 C 0.16356 0.04323 0.78673 0.0
C579 C 0.12741 0.17035 0.86159 0.0
C580 C 0.09153 0.18552 0.85392 0.0
C581 C 0.14878 0.13489 0.85593 0.0
C582 C 0.1345 0.11394 0.84252 0.0
C583 C 0.09997 0.13041 0.83447 0.0
C584 C 0.07884 0.16571 0.84006 0.0
C585 C 0.15405 0.07414 0.83693 0.0
C586 C 0.16614 0.07138 0.82126 0.0
C587 C 0.15843 0.03831 0.84655 0.0
C588 C 0.14456 0.03831 0.86302 0.0
C589 C 0.10298 0.04876 0.86702 0.0
C590 C 0.09035 0.04905 0.88258 0.0
C591 C 0.11882 0.03821 0.89424 0.0
C592 C 0.15997 0.0271 0.89035 0.0
C593 C 0.17287 0.02714 0.87482 0.0
H594 H 0.10899 0.0384 0.90628 0.0
H595 H 0.22172 0.02364 0.7543 0.0
H596 H 0.33835 0.02818 0.03405 0.0
H597 H 0.29678 0.99771 0.05503 0.0
H598 H 0.3926 0.90409 0.06235 0.0
H599 H 0.43479 0.93505 0.04129 0.0
H600 H 0.31026 0.87198 0.05843 0.0
H601 H 0.3805 0.97368 0.08947 0.0
H602 H 0.40763 0.04364 0.09639 0.0
H603 H 0.28196 0.09246 0.09756 0.0
H604 H 0.25406 0.02294 0.09039 0.0
H605 H 0.18357 0.79123 0.11904 0.0
H606 H 0.2459 0.8229 0.10729 0.0
H607 H 0.17237 0.92948 0.09305 0.0
H608 H 0.10964 0.89803 0.10462 0.0
H609 H 0.25385 0.95056 0.10377 0.0
H610 H 0.18466 0.85599 0.06889 0.0
H611 H 0.1547 0.78942 0.05948 0.0
H612 H 0.27543 0.73037 0.06309 0.0
H613 H 0.30594 0.79632 0.07311 0.0
C614 C 0.35066 1.00128 0.04022 0.0
C615 C 0.38948 0.98364 0.03604 0.0
C616 C 0.3271 0.98414 0.05227 0.0
C617 C 0.34181 0.9489 0.0603 0.0
C618 C 0.38092 0.93148 0.05631 0.0
C619 C 0.4049 0.94909 0.04435 0.0
C620 C 0.31435 0.92873 0.07195 0.0
C621 C 0.29883 0.88858 0.06862 0.0
C622 C 0.2986 0.95114 0.08493 0.0
C623 C 0.3152 0.99307 0.08929 0.0
C624 C 0.35864 0.99939 0.09107 0.0
C625 C 0.37417 0.03897 0.09507 0.0
C626 C 0.34655 0.07249 0.09739 0.0
C627 C 0.30332 0.06647 0.09576 0.0
C628 C 0.28763 0.02695 0.09174 0.0
C629 C 0.18082 0.82185 0.11372 0.0
C630 C 0.14167 0.84209 0.11263 0.0
C631 C 0.21642 0.83971 0.10697 0.0
C632 C 0.21355 0.87816 0.09921 0.0
C633 C 0.17513 0.89971 0.09899 0.0
C634 C 0.13934 0.88163 0.10552 0.0
C635 C 0.24944 0.89411 0.09009 0.0
C636 C 0.26626 0.93347 0.09385 0.0
C637 C 0.26603 0.87121 0.07736 0.0
C638 C 0.24745 0.83097 0.07202 0.0
C639 C 0.2047 0.82863 0.06799 0.0
C640 C 0.18764 0.79104 0.0625 0.0
C641 C 0.21316 0.75571 0.06071 0.0
C642 C 0.25572 0.75778 0.06454 0.0
C643 C 0.27288 0.79521 0.07018 0.0
H644 H 0.19997 0.72672 0.05633 0.0
H645 H 0.35863 0.10311 0.10049 0.0
H646 H 0.33262 0.11966 0.27409 0.0
H647 H 0.36481 0.06666 0.29072 0.0
H648 H 0.28518 0.10507 0.32872 0.0
H649 H 0.25207 0.15776 0.31201 0.0
H650 H 0.37313 0.07912 0.33694 0.0
H651 H 0.24971 0.03216 0.30937 0.0
H652 H 0.2073 0.02488 0.28567 0.0
H653 H 0.30496 0.95178 0.2643 0.0
H654 H 0.34866 0.95973 0.2878 0.0
H655 H 0.40025 0.88379 0.37714 0.0
H656 H 0.36735 0.9462 0.36582 0.0
H657 H 0.41128 0.90856 0.32042 0.0
H658 H 0.44282 0.84606 0.33148 0.0
H659 H 0.33633 0.93683 0.31783 0.0
H660 H 0.46099 0.98261 0.34452 0.0
H661 H 0.50864 0.99647 0.36656 0.0
H662 H 0.41536 0.07395 0.38816 0.0
H663 H 0.36658 0.06016 0.36649 0.0
C664 C 0.32255 0.11747 0.28608 0.0
C665 C 0.28935 0.14252 0.29166 0.0
C666 C 0.34108 0.08727 0.29558 0.0
C667 C 0.32695 0.08159 0.31087 0.0
C668 C 0.29652 0.10901 0.31695 0.0
C669 C 0.27772 0.1392 0.30739 0.0
C670 C 0.3399 0.04369 0.31962 0.0
C671 C 0.36468 0.04792 0.33298 0.0
C672 C 0.32938 1.00312 0.3142 0.0
C673 C 0.30259 0.99687 0.3003 0.0
C674 C 0.26228 0.01476 0.29959 0.0
C675 C 0.23799 0.01052 0.28617 0.0
C676 C 0.25335 0.98789 0.27345 0.0
C677 C 0.29309 0.96935 0.27416 0.0
C678 C 0.31766 0.97374 0.28752 0.0
C679 C 0.40204 0.88835 0.3647 0.0
C680 C 0.42424 0.85979 0.35523 0.0
C681 C 0.38371 0.92438 0.35827 0.0
C682 C 0.38747 0.93262 0.34228 0.0
C683 C 0.408 0.90315 0.33278 0.0
C684 C 0.42606 0.86726 0.33915 0.0
C685 C 0.37052 0.97174 0.33519 0.0
C686 C 0.34471 0.96783 0.32204 0.0
C687 C 0.38073 0.0125 0.34074 0.0
C688 C 0.40967 0.01954 0.35402 0.0
C689 C 0.45024 1.00197 0.3541 0.0
C690 C 0.47749 0.00987 0.3665 0.0
C691 C 0.46479 0.03554 0.37881 0.0
C692 C 0.42488 0.05363 0.37871 0.0
C693 C 0.39741 0.04576 0.36639 0.0
H694 H 0.48602 0.04171 0.38835 0.0
H695 H 0.23445 0.98468 0.26307 0.0
H696 H 0.90392 0.05459 0.55723 0.0
H697 H 0.85014 0.08034 0.57559 0.0
H698 H 0.75664 0.07165 0.53947 0.0
H699 H 0.80968 0.04852 0.52122 0.0
H700 H 0.74834 0.14189 0.55373 0.0
H701 H 0.76956 0.99728 0.57006 0.0
H702 H 0.81126 0.93841 0.58039 0.0
H703 H 0.83689 0.00904 0.62187 0.0
H704 H 0.79579 0.06855 0.61169 0.0
H705 H 0.55349 0.1576 0.5877 0.0
H706 H 0.61381 0.1232 0.57552 0.0
H707 H 0.68529 0.13956 0.61766 0.0
H708 H 0.62399 0.17166 0.63019 0.0
H709 H 0.712 0.07142 0.60321 0.0
H710 H 0.68701 0.21393 0.58736 0.0
H711 H 0.64522 0.27241 0.577 0.0
H712 H 0.62741 0.20563 0.53417 0.0
H713 H 0.66867 0.14623 0.54434 0.0
C714 C 0.8719 0.05851 0.55326 0.0
C715 C 0.861 0.04868 0.53784 0.0
C716 C 0.84112 0.0728 0.56378 0.0
C717 C 0.79906 0.07737 0.559 0.0
C718 C 0.78867 0.06827 0.54353 0.0
C719 C 0.81912 0.05454 0.5331 0.0
C720 C 0.76526 0.09266 0.5696 0.0
C721 C 0.74029 0.12614 0.56448 0.0
C722 C 0.75544 0.0733 0.58395 0.0
C723 C 0.78009 0.03754 0.59003 0.0
C724 C 0.7844 1.00038 0.58132 0.0
C725 C 0.80787 0.96688 0.58716 0.0
C726 C 0.82684 0.97004 0.60175 0.0
C727 C 0.82228 0.00667 0.61055 0.0
C728 C 0.7989 0.04028 0.60476 0.0
C729 C 0.58162 0.15253 0.59451 0.0
C730 C 0.58418 0.16755 0.60982 0.0
C731 C 0.61627 0.13329 0.58751 0.0
C732 C 0.65475 0.13034 0.59545 0.0
C733 C 0.65622 0.14198 0.6112 0.0
C734 C 0.62108 0.16018 0.61838 0.0
C735 C 0.69394 0.11913 0.58685 0.0
C736 C 0.72015 0.08708 0.59246 0.0
C737 C 0.70504 0.13965 0.57285 0.0
C738 C 0.68069 0.17555 0.56665 0.0
C739 C 0.67405 0.21163 0.57575 0.0
C740 C 0.65044 0.24496 0.56991 0.0
C741 C 0.63361 0.24283 0.55495 0.0
C742 C 0.64045 0.20728 0.54576 0.0
C743 C 0.66397 0.17376 0.55155 0.0
H744 H 0.61531 0.26874 0.55049 0.0
H745 H 0.84499 0.94407 0.60625 0.0
H746 H 0.6552 0.16463 0.28462 0.0
H747 H 0.63221 0.11605 0.3048 0.0
H748 H 0.75909 0.07112 0.30991 0.0
H749 H 0.78291 0.12104 0.2903 0.0
H750 H 0.69444 0.00935 0.30104 0.0
H751 H 0.72348 0.11658 0.33895 0.0
H752 H 0.71839 0.18742 0.35037 0.0
H753 H 0.58482 0.1736 0.35485 0.0
H754 H 0.58901 0.10289 0.34323 0.0
H755 H 0.6413 0.85136 0.35486 0.0
H756 H 0.67712 0.91081 0.34265 0.0
H757 H 0.56412 0.98487 0.34685 0.0
H758 H 0.52903 0.92613 0.35966 0.0
H759 H 0.62729 0.03313 0.35234 0.0
H760 H 0.59306 0.93412 0.31247 0.0
H761 H 0.59163 0.86537 0.29926 0.0
H762 H 0.72622 0.86594 0.29614 0.0
H763 H 0.72847 0.93449 0.30952 0.0
C764 C 0.67859 0.14567 0.29043 0.0
C765 C 0.72089 0.14644 0.28566 0.0
C766 C 0.66529 0.11769 0.3019 0.0
C767 C 0.69394 0.08985 0.30871 0.0
C768 C 0.73651 0.09226 0.3047 0.0
C769 C 0.74997 0.12066 0.29344 0.0
C770 C 0.67869 0.05509 0.31855 0.0
C771 C 0.68053 0.01433 0.31241 0.0
C772 C 0.65913 0.06207 0.33306 0.0
C773 C 0.65653 0.10457 0.34007 0.0
C774 C 0.69296 0.12879 0.34223 0.0
C775 C 0.69025 0.16889 0.34877 0.0
C776 C 0.6513 0.18504 0.3533 0.0
C777 C 0.61498 0.16107 0.35132 0.0
C778 C 0.61751 0.12096 0.34477 0.0
C779 C 0.62441 0.88056 0.35333 0.0
C780 C 0.58258 0.88444 0.35829 0.0
C781 C 0.64477 0.91444 0.34631 0.0
C782 C 0.62316 0.95227 0.34366 0.0
C783 C 0.58158 0.95625 0.34889 0.0
C784 C 0.56158 0.92274 0.35621 0.0
C785 C 0.64298 0.98709 0.33485 0.0
C786 C 0.64175 0.02791 0.34108 0.0
C787 C 0.66217 0.98041 0.32019 0.0
C788 C 0.66096 0.93917 0.31217 0.0
C789 C 0.62237 0.91942 0.30908 0.0
C790 C 0.62141 0.88052 0.30154 0.0
C791 C 0.65882 0.86124 0.29691 0.0
C792 C 0.69727 0.88088 0.29977 0.0
C793 C 0.69841 0.91975 0.30732 0.0
H794 H 0.65801 0.83113 0.29107 0.0
H795 H 0.64927 0.21609 0.35837 0.0
H796 H 0.65848 0.92037 0.01554 0.0
H797 H 0.70427 0.88788 0.03453 0.0
H798 H 0.64711 0.96196 0.07094 0.0
H799 H 0.60379 0.99749 0.05169 0.0
H800 H 0.72383 0.96862 0.07445 0.0
H801 H 0.63951 0.84879 0.0677 0.0
H802 H 0.59968 0.79241 0.05476 0.0
H803 H 0.71317 0.74559 0.03402 0.0
H804 H 0.75363 0.80215 0.04658 0.0
H805 H 0.8551 0.83362 0.12581 0.0
H806 H 0.79142 0.85987 0.11306 0.0
H807 H 0.86031 0.8753 0.07035 0.0
H808 H 0.92428 0.85004 0.08301 0.0
H809 H 0.77017 0.82006 0.07459 0.0
H810 H 0.84713 0.95628 0.07911 0.0
H811 H 0.88306 0.00886 0.09546 0.0
H812 H 0.77414 0.01812 0.12473 0.0
H813 H 0.73783 0.96514 0.10864 0.0
C814 C 0.65539 0.92966 0.0276 0.0
C815 C 0.62787 0.9622 0.03198 0.0
C816 C 0.68123 0.91043 0.03855 0.0
C817 C 0.67923 0.92213 0.05429 0.0
C818 C 0.64953 0.95242 0.05888 0.0
C819 C 0.62427 0.9724 0.04785 0.0
C820 C 0.71137 0.90642 0.06544 0.0
C821 C 0.73311 0.93589 0.07462 0.0
C822 C 0.72393 0.8637 0.0659 0.0
C823 C 0.69961 0.83001 0.05803 0.0
C824 C 0.65596 0.82677 0.06025 0.0
C825 C 0.63326 0.7947 0.053 0.0
C826 C 0.65387 0.76548 0.04356 0.0
C827 C 0.69724 0.76827 0.04133 0.0
C828 C 0.72007 0.80032 0.04853 0.0
C829 C 0.85682 0.84318 0.11376 0.0
C830 C 0.89475 0.83993 0.10542 0.0
C831 C 0.82045 0.85804 0.10652 0.0
C832 C 0.82138 0.8693 0.09081 0.0
C833 C 0.8592 0.86675 0.08252 0.0
C834 C 0.89573 0.85264 0.0898 0.0
C835 C 0.78265 0.8825 0.08279 0.0
C836 C 0.7599 0.85251 0.07439 0.0
C837 C 0.7684 0.92431 0.08334 0.0
C838 C 0.79003 0.95648 0.09281 0.0
C839 C 0.83104 0.96926 0.08912 0.0
C840 C 0.85142 0.99919 0.09831 0.0
C841 C 0.83095 0.01672 0.11116 0.0
C842 C 0.78999 0.00447 0.1148 0.0
C843 C 0.7695 0.97453 0.10565 0.0
H844 H 0.84679 0.03987 0.11827 0.0
H845 H 0.63626 0.74063 0.03798 0.0
H846 H 0.75634 0.95358 0.77441 0.0
H847 H 0.78808 1.00298 0.79252 0.0
H848 H 0.85651 0.90193 0.81406 0.0
H849 H 0.82498 0.85188 0.79555 0.0
H850 H 0.82143 0.96295 0.83552 0.0
H851 H 0.90634 0.95754 0.78989 0.0
H852 H 0.92162 0.95878 0.76183 0.0
H853 H 0.87588 0.08526 0.75911 0.0
H854 H 0.85881 0.08427 0.78702 0.0
H855 H 0.96208 0.11262 0.87105 0.0
H856 H 0.93015 0.0527 0.85791 0.0
H857 H 0.8621 0.13661 0.82785 0.0
H858 H 0.89412 0.19677 0.84075 0.0
H859 H 0.90415 0.07775 0.81163 0.0
H860 H 0.81133 0.08065 0.85586 0.0
H861 H 0.79442 0.08096 0.88378 0.0
H862 H 0.85581 0.96196 0.88918 0.0
H863 H 0.87333 0.96104 0.86123 0.0
C864 C 0.77831 0.94182 0.78292 0.0
C865 C 0.78905 0.89905 0.7833 0.0
C866 C 0.79618 0.97004 0.79335 0.0
C867 C 0.82514 0.9562 0.80445 0.0
C868 C 0.83433 0.91318 0.80549 0.0
C869 C 0.81641 0.88471 0.79495 0.0
C870 C 0.84702 0.98755 0.81426 0.0
C871 C 0.84019 0.98765 0.83037 0.0
C872 C 0.8709 0.0201 0.80745 0.0
C873 C 0.88089 0.02066 0.79057 0.0
C874 C 0.89898 0.98543 0.78328 0.0
C875 C 0.90796 0.98609 0.76738 0.0
C876 C 0.89957 0.02201 0.75867 0.0
C877 C 0.88224 0.05738 0.76585 0.0
C878 C 0.87278 0.05675 0.7817 0.0
C879 C 0.93988 0.11849 0.86179 0.0
C880 C 0.93101 0.1597 0.85689 0.0
C881 C 0.92155 0.08408 0.85432 0.0
C882 C 0.89378 0.09018 0.84189 0.0
C883 C 0.88362 0.13121 0.83737 0.0
C884 C 0.90192 0.16561 0.84481 0.0
C885 C 0.87747 0.05403 0.83283 0.0
C886 C 0.88566 0.0529 0.81683 0.0
C887 C 0.85483 0.02076 0.83974 0.0
C888 C 0.84403 0.021 0.8565 0.0
C889 C 0.8215 0.05469 0.86302 0.0
C890 C 0.81176 0.05496 0.87885 0.0
C891 C 0.82423 0.02164 0.88829 0.0
C892 C 0.84625 0.98782 0.88187 0.0
C893 C 0.85602 0.98735 0.86602 0.0
H894 H 0.8167 0.02197 0.90055 0.0
H895 H 0.9066 0.02249 0.74637 0.0
H896 H 0.85982 0.91643 0.50708 0.0
H897 H 0.80883 0.8848 0.48966 0.0
H898 H 0.84466 0.97124 0.45354 0.0
H899 H 0.89402 0.00509 0.47148 0.0
H900 H 0.76434 0.9704 0.45508 0.0
H901 H 0.86404 0.86054 0.45134 0.0
H902 H 0.91657 0.81237 0.46242 0.0
H903 H 0.82003 0.75038 0.4885 0.0
H904 H 0.76691 0.79853 0.47773 0.0
H905 H 0.61942 0.86428 0.40439 0.0
H906 H 0.68625 0.88805 0.41544 0.0
H907 H 0.65209 0.83493 0.45965 0.0
H908 H 0.58502 0.8115 0.44878 0.0
H909 H 0.73734 0.81767 0.45017 0.0
H910 H 0.64062 0.93524 0.45527 0.0
H911 H 0.59083 0.98752 0.44499 0.0
H912 H 0.68634 0.03524 0.41458 0.0
H913 H 0.73656 0.98282 0.42455 0.0
C914 C 0.85754 0.9282 0.49532 0.0
C915 C 0.88092 0.96348 0.49073 0.0
C916 C 0.82842 0.90983 0.48527 0.0
C917 C 0.82278 0.92524 0.47013 0.0
C918 C 0.8482 0.95871 0.46514 0.0
C919 C 0.87698 0.97765 0.47534 0.0
C920 C 0.788 0.90855 0.46017 0.0
C921 C 0.75917 0.93698 0.4537 0.0
C922 C 0.78057 0.86491 0.45841 0.0
C923 C 0.81157 0.83344 0.46384 0.0
C924 C 0.85399 0.83657 0.45941 0.0
C925 C 0.88388 0.80938 0.46567 0.0
C926 C 0.8717 0.77875 0.47631 0.0
C927 C 0.82943 0.77442 0.48037 0.0
C928 C 0.79937 0.80154 0.47413 0.0
C929 C 0.62612 0.8576 0.41646 0.0
C930 C 0.59661 0.83634 0.42574 0.0
C931 C 0.66437 0.87119 0.42275 0.0
C932 C 0.67417 0.86336 0.43839 0.0
C933 C 0.64524 0.84128 0.44756 0.0
C934 C 0.60674 0.82822 0.44136 0.0
C935 C 0.71373 0.87959 0.4454 0.0
C936 C 0.74325 0.85104 0.4513 0.0
C937 C 0.72222 0.92308 0.44639 0.0
C938 C 0.69217 0.95482 0.44052 0.0
C939 C 0.65089 0.95667 0.4463 0.0
C940 C 0.62262 0.98636 0.44055 0.0
C941 C 0.63538 0.0146 0.42911 0.0
C942 C 0.67649 0.0133 0.42343 0.0
C943 C 0.70487 0.98362 0.42913 0.0
H944 H 0.61344 0.03756 0.42467 0.0
H945 H 0.89507 0.75832 0.48137 0.0
H946 H 0.746 0.14606 0.21615 0.0
H947 H 0.77949 0.09334 0.19938 0.0
H948 H 0.87727 0.07642 0.23344 0.0
H949 H 0.84421 0.12928 0.2501 0.0
H950 H 0.90839 0.07247 0.20414 0.0
H951 H 0.79383 0.01239 0.23301 0.0
H952 H 0.72031 0.00697 0.24179 0.0
H953 H 0.68002 0.98841 0.19467 0.0
H954 H 0.75333 0.99436 0.18559 0.0
H955 H 0.94561 0.84372 0.19727 0.0
H956 H 0.91981 0.91111 0.20721 0.0
H957 H 0.88553 0.94796 0.16082 0.0
H958 H 0.91322 0.88159 0.15062 0.0
H959 H 0.82266 0.946 0.19321 0.0
H960 H 0.94333 0.9997 0.16526 0.0
H961 H 0.01678 0.01214 0.15768 0.0
H962 H 0.0469 0.04686 0.20453 0.0
H963 H 0.9743 0.03169 0.21269 0.0
C964 C 0.77529 0.13195 0.21983 0.0
C965 C 0.79245 0.14162 0.23445 0.0
C966 C 0.79416 0.10155 0.21032 0.0
C967 C 0.8305 0.08042 0.21527 0.0
C968 C 0.84918 0.09216 0.22939 0.0
C969 C 0.83025 0.12231 0.23892 0.0
C970 C 0.84757 0.04406 0.20642 0.0
C971 C 0.88978 0.04468 0.20178 0.0
C972 C 0.82299 0.00812 0.20317 0.0
C973 C 0.77896 0.00432 0.2086 0.0
C974 C 0.76925 0.0075 0.22451 0.0
C975 C 0.72763 0.00428 0.22954 0.0
C976 C 0.6955 0.99748 0.21879 0.0
C977 C 0.70494 0.99377 0.20298 0.0
C978 C 0.74651 0.99705 0.19789 0.0
C979 C 0.93278 0.8662 0.18915 0.0
C980 C 0.93188 0.85734 0.17312 0.0
C981 C 0.91845 0.90484 0.19484 0.0
C982 C 0.90191 0.93492 0.18469 0.0
C983 C 0.89936 0.92563 0.16878 0.0
C984 C 0.9149 0.88754 0.163 0.0
C985 C 0.88373 0.97424 0.19101 0.0
C986 C 0.84125 0.97394 0.19534 0.0
C987 C 0.90837 0.01024 0.19415 0.0
C988 C 0.95331 0.01351 0.18966 0.0
C989 C 0.96587 0.00815 0.17411 0.0
C990 C 0.00741 0.01595 0.1697 0.0
C991 C 0.03649 0.03008 0.18066 0.0
C992 C 0.02442 0.03542 0.19612 0.0
C993 C 0.98319 0.02686 0.20067 0.0
H994 H 0.06825 0.03748 0.17718 0.0
H995 H 0.66329 0.99498 0.2227 0.0
H996 H 0.66692 0.9826 0.97681 0.0
H997 H 0.72169 0.00963 0.95954 0.0
H998 H 0.68103 0.13612 0.96926 0.0
H999 H 0.62676 0.10953 0.98661 0.0
H1000 H 0.70278 0.12617 0.93897 0.0
H1001 H 0.76011 0.09326 0.98952 0.0
H1002 H 0.77548 0.04618 0.01147 0.0
H1003 H 0.84631 0.96537 0.9812 0.0
H1004 H 0.83076 0.01169 0.95901 0.0
H1005 H 0.92115 0.22402 0.94608 0.0
H1006 H 0.8584 0.18696 0.9552 0.0
H1007 H 0.84729 0.1257 0.9107 0.0
H1008 H 0.90816 0.16427 0.90123 0.0
H1009 H 0.84932 0.09685 0.95516 0.0
H1010 H 0.78032 0.13247 0.90337 0.0
H1011 H 0.75934 0.18273 0.88314 0.0
H1012 H 0.7025 0.26146 0.91786 0.0
H1013 H 0.72524 0.21247 0.93834 0.0
C1014 C 0.66934 0.01615 0.97509 0.0
C1015 C 0.64266 0.04393 0.98316 0.0
C1016 C 0.7006 0.0315 0.96523 0.0
C1017 C 0.70576 0.07488 0.96331 0.0
C1018 C 0.67754 0.10252 0.97057 0.0
C1019 C 0.64635 0.08723 0.98044 0.0
C1020 C 0.74225 0.09196 0.95472 0.0
C1021 C 0.73489 0.11955 0.94241 0.0
C1022 C 0.78405 0.08317 0.95922 0.0
C1023 C 0.79387 0.05565 0.97259 0.0
C1024 C 0.77871 0.06529 0.98753 0.0
C1025 C 0.78747 0.03877 1.00001 0.0
C1026 C 0.81175 1.00274 0.99772 0.0
C1027 C 0.82743 0.99324 0.98295 0.0
C1028 C 0.81866 0.01962 0.97042 0.0
C1029 C 0.90478 0.20329 0.93815 0.0
C1030 C 0.91919 0.19766 0.92286 0.0
C1031 C 0.86883 0.18229 0.94333 0.0
C1032 C 0.84657 0.15531 0.93335 0.0
C1033 C 0.8618 0.14859 0.91826 0.0
C1034 C 0.8972 0.17018 0.91295 0.0
C1035 C 0.81 0.1315 0.93939 0.0
C1036 C 0.81733 0.10274 0.9514 0.0
C1037 C 0.76807 0.13948 0.93466 0.0
C1038 C 0.75688 0.17007 0.92245 0.0
C1039 C 0.76519 0.16141 0.90675 0.0
C1040 C 0.75248 0.18944 0.89521 0.0
C1041 C 0.73019 0.22567 0.89923 0.0
C1042 C 0.72016 0.23364 0.91477 0.0
C1043 C 0.73325 0.20588 0.92634 0.0
H1044 H 0.72023 0.24727 0.89029 0.0
H1045 H 0.8185 0.98224 0.0074 0.0
H1046 H 0.80779 0.9007 0.72586 0.0
H1047 H 0.79321 0.95203 0.7055 0.0
H1048 H 0.66154 0.92142 0.70771 0.0
H1049 H 0.67573 0.87061 0.72826 0.0
H1050 H 0.69069 0.94569 0.67694 0.0
H1051 H 0.69018 0.99549 0.73089 0.0
H1052 H 0.72277 1.00268 0.75673 0.0
H1053 H 0.83003 0.06243 0.73617 0.0
H1054 H 0.79786 0.05563 0.71021 0.0
H1055 H 0.55605 0.11542 0.67654 0.0
H1056 H 0.60112 0.05578 0.68187 0.0
H1057 H 0.71046 0.13013 0.6713 0.0
H1058 H 0.66476 0.19081 0.66557 0.0
H1059 H 0.71123 0.08593 0.70105 0.0
H1060 H 0.69442 0.05633 0.64776 0.0
H1061 H 0.65649 0.05003 0.62293 0.0
H1062 H 0.57989 0.95208 0.64194 0.0
H1063 H 0.61671 0.95831 0.66702 0.0
C1064 C 0.7759 0.90398 0.72167 0.0
C1065 C 0.74281 0.88209 0.72886 0.0
C1066 C 0.76766 0.93323 0.71001 0.0
C1067 C 0.72624 0.94094 0.70527 0.0
C1068 C 0.69376 0.91586 0.71118 0.0
C1069 C 0.70195 0.8867 0.72292 0.0
C1070 C 0.71575 0.97955 0.6965 0.0
C1071 C 0.69543 0.97641 0.68209 0.0
C1072 C 0.72288 0.01968 0.70308 0.0
C1073 C 0.74187 0.02472 0.71866 0.0
C1074 C 0.72079 0.01002 0.73191 0.0
C1075 C 0.73919 0.01399 0.74657 0.0
C1076 C 0.77864 0.03268 0.74811 0.0
C1077 C 0.79957 0.0478 0.73499 0.0
C1078 C 0.78121 0.04402 0.7203 0.0
C1079 C 0.58968 0.11929 0.67526 0.0
C1080 C 0.60692 0.15804 0.67083 0.0
C1081 C 0.61538 0.08495 0.67818 0.0
C1082 C 0.65906 0.08842 0.67687 0.0
C1083 C 0.67671 0.12685 0.67227 0.0
C1084 C 0.65069 0.16137 0.66902 0.0
C1085 C 0.68525 0.05219 0.6816 0.0
C1086 C 0.70812 0.05555 0.69545 0.0
C1087 C 0.6803 0.01238 0.67448 0.0
C1088 C 0.65835 0.00787 0.65933 0.0
C1089 C 0.66933 0.03359 0.6467 0.0
C1090 C 0.64803 0.03003 0.63257 0.0
C1091 C 0.61583 1.00067 0.63086 0.0
C1092 C 0.60489 0.97477 0.64328 0.0
C1093 C 0.62602 0.97826 0.65746 0.0
H1094 H 0.59937 0.99799 0.61991 0.0
H1095 H 0.79284 0.03558 0.75948 0.0
H1096 H 0.70434 0.47215 0.01237 0.0
H1097 H 0.7573 0.45246 0.9933 0.0
H1098 H 0.66449 0.45815 0.95697 0.0
H1099 H 0.61114 0.48048 0.97614 0.0
H1100 H 0.72388 0.38222 0.95764 0.0
H1101 H 0.72184 0.53106 0.956 0.0
H1102 H 0.72186 0.60375 0.96577 0.0
H1103 H 0.84361 0.58475 0.98594 0.0
H1104 H 0.8437 0.51144 0.97681 0.0
H1105 H 0.91268 0.3887 0.90526 0.0
H1106 H 0.85186 0.42514 0.91653 0.0
H1107 H 0.87765 0.36865 0.96091 0.0
H1108 H 0.93883 0.33269 0.94989 0.0
H1109 H 0.84541 0.4778 0.95019 0.0
H1110 H 0.78987 0.31654 0.96338 0.0
H1111 H 0.80815 0.24714 0.95252 0.0
H1112 H 0.80666 0.29805 0.90641 0.0
H1113 H 0.78711 0.36738 0.91698 0.0
C1114 C 0.6952 0.4701 1.0003 0.0
C1115 C 0.65376 0.47936 0.99575 0.0
C1116 C 0.72548 0.45834 0.98942 0.0
C1117 C 0.71504 0.45445 0.9737 0.0
C1118 C 0.67322 0.46129 0.96908 0.0
C1119 C 0.64279 0.47391 0.98003 0.0
C1120 C 0.74873 0.44396 0.96236 0.0
C1121 C 0.74984 0.40358 0.95576 0.0
C1122 C 0.78296 0.47165 0.95987 0.0
C1123 C 0.78255 0.51545 0.96583 0.0
C1124 C 0.74832 0.54208 0.96275 0.0
C1125 C 0.74835 0.58348 0.96815 0.0
C1126 C 0.78269 0.59885 0.97648 0.0
C1127 C 0.81704 0.57282 0.97946 0.0
C1128 C 0.81699 0.53127 0.97423 0.0
C1129 C 0.90568 0.38437 0.91747 0.0
C1130 C 0.9305 0.35756 0.92667 0.0
C1131 C 0.87121 0.4056 0.92391 0.0
C1132 C 0.86058 0.39985 0.93957 0.0
C1133 C 0.88573 0.37386 0.94884 0.0
C1134 C 0.92051 0.35314 0.9425 0.0
C1135 C 0.82046 0.41637 0.94591 0.0
C1136 C 0.81857 0.45731 0.95172 0.0
C1137 C 0.78525 0.38985 0.94742 0.0
C1138 C 0.78701 0.34691 0.94096 0.0
C1139 C 0.7923 0.31256 0.9509 0.0
C1140 C 0.80345 0.27341 0.94481 0.0
C1141 C 0.80961 0.26852 0.92882 0.0
C1142 C 0.8025 0.3021 0.91881 0.0
C1143 C 0.79095 0.34115 0.92482 0.0
H1144 H 0.81924 0.23859 0.92409 0.0
H1145 H 0.78271 0.63095 0.98061 0.0
H1146 H 0.73563 0.45029 0.24216 0.0
H1147 H 0.7636 0.49861 0.2232 0.0
H1148 H 0.84323 0.4011 0.20458 0.0
H1149 H 0.81637 0.35212 0.22434 0.0
H1150 H 0.88464 0.47743 0.20659 0.0
H1151 H 0.75792 0.42807 0.18467 0.0
H1152 H 0.68341 0.40734 0.18393 0.0
H1153 H 0.6465 0.5337 0.1947 0.0
H1154 H 0.72082 0.5551 0.19576 0.0
H1155 H 0.93124 0.62603 0.14918 0.0
H1156 H 0.89677 0.56129 0.15746 0.0
H1157 H 0.8195 0.63244 0.18918 0.0
H1158 H 0.85328 0.69756 0.1805 0.0
H1159 H 0.78061 0.55816 0.17575 0.0
H1160 H 0.90773 0.61288 0.20016 0.0
H1161 H 0.98523 0.65092 0.19836 0.0
H1162 H 0.03038 0.48493 0.17735 0.0
H1163 H 0.94383 0.47015 0.18171 0.0
C1164 C 0.75973 0.439 0.2343 0.0
C1165 C 0.77418 0.39732 0.23497 0.0
C1166 C 0.77529 0.46668 0.22327 0.0
C1167 C 0.80504 0.45338 0.21231 0.0
C1168 C 0.8201 0.41195 0.21292 0.0
C1169 C 0.80457 0.38398 0.22412 0.0
C1170 C 0.81938 0.48349 0.20029 0.0
C1171 C 0.86207 0.49444 0.19959 0.0
C1172 C 0.78992 0.5057 0.19111 0.0
C1173 C 0.74503 0.49315 0.19036 0.0
C1174 C 0.73394 0.4514 0.18697 0.0
C1175 C 0.69172 0.43953 0.18649 0.0
C1176 C 0.66024 0.46917 0.18928 0.0
C1177 C 0.67092 0.51077 0.19254 0.0
C1178 C 0.7131 0.52281 0.19305 0.0
C1179 C 0.90515 0.62803 0.15722 0.0
C1180 C 0.89431 0.66657 0.16406 0.0
C1181 C 0.88598 0.59101 0.16212 0.0
C1182 C 0.85665 0.59206 0.17425 0.0
C1183 C 0.84246 0.63103 0.17989 0.0
C1184 C 0.86159 0.66818 0.17493 0.0
C1185 C 0.8453 0.55309 0.18257 0.0
C1186 C 0.80322 0.54055 0.18254 0.0
C1187 C 0.87543 0.52922 0.19093 0.0
C1188 C 0.92062 0.54046 0.19107 0.0
C1189 C 0.93323 0.59344 0.19603 0.0
C1190 C 0.9828 0.61829 0.19503 0.0
C1191 C 0.02883 0.59147 0.18876 0.0
C1192 C 0.01071 0.51073 0.18155 0.0
C1193 C 0.956 0.50093 0.18448 0.0
H1194 H 0.05784 0.60918 0.18825 0.0
H1195 H 0.62757 0.45991 0.18891 0.0
H1196 H 0.89803 0.53427 0.46857 0.0
H1197 H 0.84377 0.56367 0.45141 0.0
H1198 H 0.75609 0.56507 0.48965 0.0
H1199 H 0.80951 0.53643 0.50668 0.0
H1200 H 0.71971 0.53638 0.46317 0.0
H1201 H 0.81376 0.64854 0.47901 0.0
H1202 H 0.88389 0.68069 0.48013 0.0
H1203 H 0.88555 0.69143 0.43042 0.0
H1204 H 0.81636 0.65692 0.42893 0.0
H1205 H 0.56287 0.68593 0.44993 0.0
H1206 H 0.62466 0.65001 0.46026 0.0
H1207 H 0.68619 0.66045 0.41579 0.0
H1208 H 0.62462 0.69637 0.40533 0.0
H1209 H 0.73965 0.67815 0.44073 0.0
H1210 H 0.64668 0.57042 0.42418 0.0
H1211 H 0.57905 0.53344 0.42181 0.0
H1212 H 0.57623 0.51432 0.47116 0.0
H1213 H 0.64358 0.55181 0.47386 0.0
C1214 C 0.86708 0.54072 0.47324 0.0
C1215 C 0.85796 0.53256 0.48894 0.0
C1216 C 0.83614 0.55735 0.46344 0.0
C1217 C 0.79588 0.56649 0.46927 0.0
C1218 C 0.78674 0.55781 0.48485 0.0
C1219 C 0.81739 0.54128 0.49457 0.0
C1220 C 0.76329 0.5871 0.45965 0.0
C1221 C 0.72407 0.56741 0.45829 0.0
C1222 C 0.7694 0.62707 0.45287 0.0
C1223 C 0.81016 0.64942 0.45384 0.0
C1224 C 0.82927 0.65723 0.46829 0.0
C1225 C 0.86896 0.67572 0.46898 0.0
C1226 C 0.88923 0.68806 0.45535 0.0
C1227 C 0.86989 0.68173 0.44097 0.0
C1228 C 0.83055 0.66239 0.44019 0.0
C1229 C 0.58958 0.68082 0.44236 0.0
C1230 C 0.58858 0.69367 0.42677 0.0
C1231 C 0.62483 0.66022 0.44827 0.0
C1232 C 0.65975 0.65221 0.43872 0.0
C1233 C 0.6595 0.66626 0.42332 0.0
C1234 C 0.62416 0.6866 0.41736 0.0
C1235 C 0.69583 0.62793 0.44478 0.0
C1236 C 0.73556 0.64688 0.44542 0.0
C1237 C 0.69041 0.58709 0.45079 0.0
C1238 C 0.65003 0.56424 0.44924 0.0
C1239 C 0.63149 0.55863 0.43455 0.0
C1240 C 0.59322 0.53753 0.43314 0.0
C1241 C 0.57331 0.52162 0.44633 0.0
C1242 C 0.59168 0.52669 0.46095 0.0
C1243 C 0.62992 0.54783 0.46243 0.0
H1244 H 0.54368 0.50528 0.44522 0.0
H1245 H 0.91983 0.70273 0.45593 0.0
H1246 H 0.64303 0.65796 0.74118 0.0
H1247 H 0.61311 0.6027 0.72485 0.0
H1248 H 0.73764 0.56145 0.71237 0.0
H1249 H 0.7678 0.61611 0.729 0.0
H1250 H 0.61604 0.57349 0.69452 0.0
H1251 H 0.74058 0.45589 0.7166 0.0
H1252 H 0.78884 0.44838 0.73884 0.0
H1253 H 0.7056 0.52162 0.76736 0.0
H1254 H 0.65648 0.52879 0.7454 0.0
H1255 H 0.59244 0.37727 0.65461 0.0
H1256 H 0.62042 0.44231 0.66574 0.0
H1257 H 0.58418 0.40119 0.71153 0.0
H1258 H 0.55745 0.33589 0.7006 0.0
H1259 H 0.65918 0.43234 0.71271 0.0
H1260 H 0.52883 0.47299 0.68973 0.0
H1261 H 0.47777 0.48059 0.66842 0.0
H1262 H 0.56249 0.56229 0.64431 0.0
H1263 H 0.61487 0.55383 0.66513 0.0
C1264 C 0.66402 0.63802 0.73453 0.0
C1265 C 0.70775 0.64111 0.73643 0.0
C1266 C 0.64684 0.60646 0.72518 0.0
C1267 C 0.67306 0.57766 0.71752 0.0
C1268 C 0.71679 0.58303 0.71833 0.0
C1269 C 0.734 0.61425 0.72781 0.0
C1270 C 0.65505 0.53912 0.71043 0.0
C1271 C 0.62558 0.54256 0.69838 0.0
C1272 C 0.66658 0.49884 0.71583 0.0
C1273 C 0.69511 0.49323 0.7293 0.0
C1274 C 0.73246 0.47012 0.72765 0.0
C1275 C 0.75996 0.46595 0.74021 0.0
C1276 C 0.75036 0.48463 0.75449 0.0
C1277 C 0.71306 0.50725 0.75629 0.0
C1278 C 0.68537 0.51135 0.74379 0.0
C1279 C 0.59048 0.3821 0.66705 0.0
C1280 C 0.57282 0.35128 0.67672 0.0
C1281 C 0.60634 0.41938 0.67339 0.0
C1282 C 0.60413 0.42688 0.68948 0.0
C1283 C 0.58645 0.39613 0.69911 0.0
C1284 C 0.57112 0.35875 0.69282 0.0
C1285 C 0.62071 0.46634 0.69645 0.0
C1286 C 0.64979 0.46311 0.70864 0.0
C1287 C 0.60799 0.50669 0.69136 0.0
C1288 C 0.57606 0.5124 0.67896 0.0
C1289 C 0.53683 0.49225 0.67982 0.0
C1290 C 0.50762 0.49669 0.66781 0.0
C1291 C 0.51684 0.52196 0.65505 0.0
C1292 C 0.55538 0.54272 0.65421 0.0
C1293 C 0.58491 0.53799 0.66609 0.0
H1294 H 0.49412 0.52547 0.6458 0.0
H1295 H 0.77178 0.48152 0.76418 0.0
H1296 H 0.64747 0.61151 0.03132 0.0
H1297 H 0.70145 0.6389 0.0488 0.0
H1298 H 0.68507 0.53217 0.0788 0.0
H1299 H 0.63038 0.5049 0.06135 0.0
H1300 H 0.71007 0.61312 0.09478 0.0
H1301 H 0.76025 0.51493 0.05561 0.0
H1302 H 0.76214 0.48525 0.02914 0.0
H1303 H 0.79576 0.60583 0.01084 0.0
H1304 H 0.79515 0.63581 0.03728 0.0
H1305 H 0.91964 0.64379 0.12332 0.0
H1306 H 0.85762 0.60754 0.11312 0.0
H1307 H 0.86236 0.68438 0.072 0.0
H1308 H 0.9246 0.7193 0.0818 0.0
H1309 H 0.84225 0.60858 0.06413 0.0
H1310 H 0.79438 0.70558 0.10489 0.0
H1311 H 0.79726 0.73093 0.132 0.0
H1312 H 0.76032 0.60926 0.14829 0.0
H1313 H 0.75742 0.58317 0.12126 0.0
C1314 C 0.65402 0.5949 0.04201 0.0
C1315 C 0.63472 0.55618 0.04501 0.0
C1316 C 0.685 0.61044 0.05196 0.0
C1317 C 0.69765 0.58729 0.06501 0.0
C1318 C 0.67565 0.55062 0.06885 0.0
C1319 C 0.64431 0.53515 0.05891 0.0
C1320 C 0.73815 0.59766 0.07271 0.0
C1321 C 0.73907 0.61171 0.08818 0.0
C1322 C 0.77608 0.5955 0.0642 0.0
C1323 C 0.77747 0.57756 0.04834 0.0
C1324 C 0.76804 0.53503 0.04591 0.0
C1325 C 0.76891 0.51815 0.03092 0.0
C1326 C 0.77862 0.54367 0.01825 0.0
C1327 C 0.78815 0.58602 0.02061 0.0
C1328 C 0.78788 0.60292 0.03561 0.0
C1329 C 0.90781 0.65242 0.11202 0.0
C1330 C 0.92705 0.68471 0.1035 0.0
C1331 C 0.87209 0.63194 0.10624 0.0
C1332 C 0.85456 0.64388 0.09193 0.0
C1333 C 0.87502 0.67463 0.08309 0.0
C1334 C 0.91084 0.69462 0.08875 0.0
C1335 C 0.8144 0.62573 0.08609 0.0
C1336 C 0.81346 0.60988 0.07087 0.0
C1337 C 0.77678 0.626 0.09496 0.0
C1338 C 0.77581 0.64241 0.11109 0.0
C1339 C 0.78669 0.68431 0.11426 0.0
C1340 C 0.78841 0.69878 0.12961 0.0
C1341 C 0.779 0.67171 0.14186 0.0
C1342 C 0.76752 0.6302 0.13879 0.0
C1343 C 0.76572 0.61559 0.12346 0.0
H1344 H 0.78057 0.68289 0.15373 0.0
H1345 H 0.77886 0.53057 0.00665 0.0
H1346 H 0.70369 0.33463 0.30145 0.0
H1347 H 0.67622 0.37603 0.32355 0.0
H1348 H 0.66474 0.48404 0.29392 0.0
H1349 H 0.69029 0.44328 0.27194 0.0
H1350 H 0.7177 0.4823 0.32763 0.0
H1351 H 0.58101 0.47115 0.29806 0.0
H1352 H 0.52563 0.42783 0.28597 0.0
H1353 H 0.51403 0.35645 0.32799 0.0
H1354 H 0.5696 0.39931 0.34024 0.0
H1355 H 0.61155 0.66833 0.34374 0.0
H1356 H 0.64262 0.60374 0.33394 0.0
H1357 H 0.5786 0.53314 0.3694 0.0
H1358 H 0.54679 0.59787 0.37933 0.0
H1359 H 0.56651 0.50033 0.33995 0.0
H1360 H 0.68181 0.5384 0.37139 0.0
H1361 H 0.7349 0.58514 0.38299 0.0
H1362 H 0.78902 0.60605 0.33797 0.0
H1363 H 0.73583 0.55998 0.32605 0.0
C1364 C 0.69485 0.36706 0.29966 0.0
C1365 C 0.70012 0.38588 0.28501 0.0
C1366 C 0.67933 0.39061 0.31227 0.0
C1367 C 0.66886 0.43308 0.31031 0.0
C1368 C 0.67298 0.4514 0.29565 0.0
C1369 C 0.68798 0.42805 0.28314 0.0
C1370 C 0.65506 0.45983 0.32341 0.0
C1371 C 0.68474 0.48607 0.33052 0.0
C1372 C 0.61225 0.46407 0.32733 0.0
C1373 C 0.57969 0.43787 0.31994 0.0
C1374 C 0.56689 0.44592 0.30463 0.0
C1375 C 0.53542 0.42157 0.29778 0.0
C1376 C 0.51644 0.38929 0.30619 0.0
C1377 C 0.52886 0.38136 0.32147 0.0
C1378 C 0.56033 0.40564 0.32837 0.0
C1379 C 0.60439 0.63929 0.34966 0.0
C1380 C 0.57633 0.6385 0.36229 0.0
C1381 C 0.62243 0.6023 0.34406 0.0
C1382 C 0.61315 0.56363 0.351 0.0
C1383 C 0.58629 0.56268 0.36392 0.0
C1384 C 0.56813 0.59978 0.36956 0.0
C1385 C 0.62897 0.52435 0.34376 0.0
C1386 C 0.59969 0.49587 0.33763 0.0
C1387 C 0.67225 0.51827 0.34072 0.0
C1388 C 0.70468 0.54576 0.34781 0.0
C1389 C 0.70487 0.55315 0.36394 0.0
C1390 C 0.73501 0.57952 0.37058 0.0
C1391 C 0.76531 0.59857 0.36122 0.0
C1392 C 0.76556 0.59123 0.34521 0.0
C1393 C 0.73545 0.56492 0.33851 0.0
H1394 H 0.78861 0.61899 0.36638 0.0
H1395 H 0.49203 0.37051 0.30087 0.0
H1396 H 0.90632 0.49825 0.55466 0.0
H1397 H 0.86161 0.46755 0.57488 0.0
H1398 H 0.81873 0.374 0.54235 0.0
H1399 H 0.86398 0.40369 0.52225 0.0
H1400 H 0.76286 0.45513 0.56167 0.0
H1401 H 0.84741 0.32086 0.5614 0.0
H1402 H 0.91516 0.28527 0.56587 0.0
H1403 H 0.92177 0.33904 0.61161 0.0
H1404 H 0.85432 0.37543 0.60729 0.0
H1405 H 0.59315 0.33708 0.58653 0.0
H1406 H 0.65579 0.36594 0.57475 0.0
H1407 H 0.72169 0.35488 0.61836 0.0
H1408 H 0.65933 0.32253 0.62998 0.0
H1409 H 0.77288 0.33444 0.59769 0.0
H1410 H 0.68445 0.45421 0.60173 0.0
H1411 H 0.61952 0.49591 0.59932 0.0
H1412 H 0.62318 0.4813 0.54973 0.0
H1413 H 0.68781 0.43907 0.55185 0.0
C1414 C 0.88886 0.46998 0.55203 0.0
C1415 C 0.88848 0.45347 0.53684 0.0
C1416 C 0.86318 0.45264 0.56357 0.0
C1417 C 0.83716 0.41841 0.5601 0.0
C1418 C 0.83907 0.40005 0.5453 0.0
C1419 C 0.86479 0.41716 0.53382 0.0
C1420 C 0.80266 0.40657 0.57072 0.0
C1421 C 0.76481 0.4287 0.56955 0.0
C1422 C 0.80602 0.37334 0.5814 0.0
C1423 C 0.84626 0.35127 0.58394 0.0
C1424 C 0.86358 0.32547 0.57233 0.0
C1425 C 0.90185 0.30505 0.57485 0.0
C1426 C 0.92285 0.31002 0.58899 0.0
C1427 C 0.90555 0.3353 0.60065 0.0
C1428 C 0.86732 0.35581 0.59817 0.0
C1429 C 0.62073 0.3412 0.59374 0.0
C1430 C 0.6211 0.32756 0.60924 0.0
C1431 C 0.65667 0.35812 0.58697 0.0
C1432 C 0.69348 0.36389 0.59571 0.0
C1433 C 0.69379 0.35094 0.61132 0.0
C1434 C 0.65805 0.33262 0.61799 0.0
C1435 C 0.73173 0.38189 0.58823 0.0
C1436 C 0.77054 0.36124 0.59001 0.0
C1437 C 0.72949 0.41732 0.57832 0.0
C1438 C 0.69093 0.44332 0.57697 0.0
C1439 C 0.67133 0.45977 0.59032 0.0
C1440 C 0.63457 0.4835 0.589 0.0
C1441 C 0.61722 0.49121 0.57438 0.0
C1442 C 0.63666 0.47533 0.56104 0.0
C1443 C 0.67341 0.45156 0.5623 0.0
H1444 H 0.58872 0.50953 0.57339 0.0
H1445 H 0.95246 0.29419 0.59093 0.0
H1446 H 0.82686 0.69556 0.79315 0.0
H1447 H 0.86123 0.65511 0.81383 0.0
H1448 H 0.77989 0.55019 0.80402 0.0
H1449 H 0.7449 0.59047 0.78391 0.0
H1450 H 0.78657 0.56034 0.83424 0.0
H1451 H 0.88166 0.55596 0.79049 0.0
H1452 H 0.92908 0.58423 0.77044 0.0
H1453 H 0.00629 0.63968 0.80584 0.0
H1454 H 0.9589 0.61226 0.8261 0.0
H1455 H 0.89467 0.3719 0.84729 0.0
H1456 H 0.86084 0.43469 0.83738 0.0
H1457 H 0.94069 0.51185 0.866 0.0
H1458 H 0.97497 0.44872 0.87625 0.0
H1459 H 0.93902 0.52908 0.83178 0.0
H1460 H 0.8483 0.51705 0.87547 0.0
H1461 H 0.80304 0.47942 0.89401 0.0
H1462 H 0.71845 0.44683 0.85709 0.0
H1463 H 0.76361 0.48355 0.83826 0.0
C1464 C 0.81621 0.66397 0.79551 0.0
C1465 C 0.78357 0.64606 0.78671 0.0
C1466 C 0.83599 0.64082 0.80726 0.0
C1467 C 0.82338 0.59944 0.81042 0.0
C1468 C 0.79024 0.582 0.80184 0.0
C1469 C 0.77058 0.60497 0.79018 0.0
C1470 C 0.84472 0.57338 0.82236 0.0
C1471 C 0.81994 0.55363 0.83372 0.0
C1472 C 0.88849 0.56532 0.82198 0.0
C1473 C 0.91629 0.58277 0.80979 0.0
C1474 C 0.90841 0.57469 0.79399 0.0
C1475 C 0.93536 0.59044 0.78259 0.0
C1476 C 0.97055 0.61393 0.78686 0.0
C1477 C 0.97891 0.62165 0.80254 0.0
C1478 C 0.952 0.60606 0.81399 0.0
C1479 C 0.90491 0.40205 0.8517 0.0
C1480 C 0.93813 0.40512 0.86242 0.0
C1481 C 0.88532 0.43796 0.84604 0.0
C1482 C 0.8984 0.4778 0.85092 0.0
C1483 C 0.93021 0.48126 0.86212 0.0
C1484 C 0.94969 0.44513 0.86796 0.0
C1485 C 0.8806 0.51523 0.84321 0.0
C1486 C 0.90594 0.53692 0.83262 0.0
C1487 C 0.83728 0.52448 0.84409 0.0
C1488 C 0.8095 0.50297 0.85542 0.0
C1489 C 0.82019 0.50164 0.87127 0.0
C1490 C 0.79453 0.48048 0.88184 0.0
C1491 C 0.7579 0.46073 0.87673 0.0
C1492 C 0.74682 0.46217 0.86104 0.0
C1493 C 0.77242 0.48321 0.85041 0.0
H1494 H 0.7381 0.44434 0.88493 0.0
H1495 H 0.99144 0.626 0.77802 0.0
H1496 H 0.39367 0.49246 0.05902 0.0
H1497 H 0.34146 0.51587 0.07826 0.0
H1498 H 0.33479 0.63634 0.05577 0.0
H1499 H 0.38631 0.61278 0.03644 0.0
H1500 H 0.33131 0.64094 0.08889 0.0
H1501 H 0.26734 0.56607 0.04572 0.0
H1502 H 0.25807 0.50462 0.0286 0.0
H1503 H 0.2252 0.42904 0.06797 0.0
H1504 H 0.23498 0.49 0.08537 0.0
H1505 H 0.13405 0.73191 0.09124 0.0
H1506 H 0.19689 0.69405 0.0836 0.0
H1507 H 0.16815 0.59624 0.11628 0.0
H1508 H 0.10448 0.63479 0.12445 0.0
H1509 H 0.19344 0.56955 0.08415 0.0
H1510 H 0.23902 0.65353 0.12602 0.0
H1511 H 0.24661 0.71715 0.14204 0.0
H1512 H 0.31496 0.77707 0.1053 0.0
H1513 H 0.30685 0.71431 0.08888 0.0
C1514 C 0.38196 0.52434 0.05851 0.0
C1515 C 0.3941 0.55096 0.04632 0.0
C1516 C 0.35196 0.53757 0.06942 0.0
C1517 C 0.33402 0.57776 0.06839 0.0
C1518 C 0.34828 0.60527 0.05683 0.0
C1519 C 0.37771 0.59185 0.0458 0.0
C1520 C 0.29761 0.59008 0.07825 0.0
C1521 C 0.30115 0.62539 0.08792 0.0
C1522 C 0.25861 0.5689 0.0773 0.0
C1523 C 0.25245 0.53239 0.06686 0.0
C1524 C 0.25851 0.53625 0.05074 0.0
C1525 C 0.25311 0.50154 0.04098 0.0
C1526 C 0.24119 0.46291 0.0472 0.0
C1527 C 0.23454 0.45896 0.06318 0.0
C1528 C 0.24002 0.49357 0.07299 0.0
C1529 C 0.14046 0.70211 0.09676 0.0
C1530 C 0.11384 0.68626 0.10843 0.0
C1531 C 0.17673 0.68069 0.09241 0.0
C1532 C 0.18736 0.64259 0.0994 0.0
C1533 C 0.16051 0.62575 0.11076 0.0
C1534 C 0.12422 0.64774 0.11541 0.0
C1535 C 0.22676 0.62128 0.09448 0.0
C1536 C 0.22381 0.58446 0.08559 0.0
C1537 C 0.26629 0.64126 0.09612 0.0
C1538 C 0.27162 0.67923 0.10605 0.0
C1539 C 0.25513 0.68044 0.12123 0.0
C1540 C 0.25964 0.71638 0.13042 0.0
C1541 C 0.28114 0.75118 0.12468 0.0
C1542 C 0.29824 0.7501 0.10973 0.0
C1543 C 0.29356 0.71436 0.10045 0.0
H1544 H 0.2846 0.77899 0.13181 0.0
H1545 H 0.23699 0.43607 0.03963 0.0
H1546 H 0.26643 0.66515 0.81163 0.0
H1547 H 0.23284 0.61341 0.82842 0.0
H1548 H 0.17374 0.55707 0.78835 0.0
H1549 H 0.20395 0.61073 0.77183 0.0
H1550 H 0.12335 0.55096 0.81012 0.0
H1551 H 0.27146 0.52114 0.8063 0.0
H1552 H 0.34707 0.53624 0.80897 0.0
H1553 H 0.3314 0.55428 0.8581 0.0
H1554 H 0.25555 0.53979 0.85567 0.0
H1555 H 0.09117 0.34327 0.83229 0.0
H1556 H 0.12577 0.40358 0.82055 0.0
H1557 H 0.15045 0.45472 0.86607 0.0
H1558 H 0.11598 0.39392 0.87799 0.0
H1559 H 0.21602 0.46836 0.84479 0.0
H1560 H 0.06492 0.48245 0.84628 0.0
H1561 H 0.99209 0.46173 0.84069 0.0
H1562 H 0.01635 0.4673 0.79178 0.0
H1563 H 0.09003 0.48629 0.79696 0.0
C1564 C 0.24523 0.64257 0.80645 0.0
C1565 C 0.23854 0.64177 0.79028 0.0
C1566 C 0.22662 0.61243 0.81606 0.0
C1567 C 0.20183 0.58026 0.80964 0.0
C1568 C 0.19309 0.5811 0.79365 0.0
C1569 C 0.2108 0.61169 0.78414 0.0
C1570 C 0.18596 0.54476 0.81925 0.0
C1571 C 0.14383 0.53272 0.81757 0.0
C1572 C 0.21226 0.52127 0.82929 0.0
C1573 C 0.25781 0.5299 0.83078 0.0
C1574 C 0.28412 0.52861 0.81765 0.0
C1575 C 0.327 0.53702 0.81912 0.0
C1576 C 0.344 0.54635 0.83369 0.0
C1577 C 0.31817 0.54716 0.84682 0.0
C1578 C 0.27524 0.53884 0.84541 0.0
C1579 C 0.10487 0.36681 0.83984 0.0
C1580 C 0.10051 0.364 0.85606 0.0
C1581 C 0.12438 0.40142 0.8331 0.0
C1582 C 0.13959 0.43421 0.84242 0.0
C1583 C 0.1385 0.42994 0.85866 0.0
C1584 C 0.11907 0.39504 0.86546 0.0
C1585 C 0.15401 0.47383 0.83511 0.0
C1586 C 0.19564 0.4868 0.83737 0.0
C1587 C 0.12764 0.49731 0.82511 0.0
C1588 C 0.08326 0.48548 0.82204 0.0
C1589 C 0.05497 0.47879 0.83433 0.0
C1590 C 0.01346 0.46737 0.83124 0.0
C1591 C 0.99948 0.46334 0.81594 0.0
C1592 C 0.02716 0.47043 0.80365 0.0
C1593 C 0.06888 0.48136 0.80665 0.0
H1594 H 0.96719 0.45476 0.81363 0.0
H1595 H 0.37722 0.55285 0.83481 0.0
H1596 H 0.09209 0.49779 0.55158 0.0
H1597 H 0.13472 0.46615 0.57185 0.0
H1598 H 0.19367 0.38587 0.5377 0.0
H1599 H 0.14782 0.41369 0.51777 0.0
H1600 H 0.19077 0.345 0.56179 0.0
H1601 H 0.23536 0.48638 0.55148 0.0
H1602 H 0.22745 0.56312 0.54936 0.0
H1603 H 0.19515 0.57074 0.59774 0.0
H1604 H 0.20241 0.49392 0.60009 0.0
H1605 H 0.4029 0.33748 0.5865 0.0
H1606 H 0.33963 0.36475 0.5742 0.0
H1607 H 0.27596 0.36543 0.6184 0.0
H1608 H 0.33922 0.33688 0.6309 0.0
H1609 H 0.27324 0.44443 0.59402 0.0
H1610 H 0.2497 0.29466 0.60172 0.0
H1611 H 0.27275 0.22128 0.59955 0.0
H1612 H 0.27866 0.23232 0.5499 0.0
H1613 H 0.25811 0.3067 0.55184 0.0
C1614 C 0.11303 0.47241 0.54841 0.0
C1615 C 0.11687 0.45895 0.53286 0.0
C1616 C 0.13807 0.45484 0.56004 0.0
C1617 C 0.16857 0.42456 0.55629 0.0
C1618 C 0.17077 0.40946 0.54096 0.0
C1619 C 0.14486 0.42598 0.52946 0.0
C1620 C 0.19982 0.40998 0.56795 0.0
C1621 C 0.20868 0.36689 0.56882 0.0
C1622 C 0.22324 0.4383 0.57729 0.0
C1623 C 0.21887 0.48442 0.57591 0.0
C1624 C 0.22629 0.50442 0.56164 0.0
C1625 C 0.22196 0.54791 0.56039 0.0
C1626 C 0.21065 0.57177 0.57339 0.0
C1627 C 0.20379 0.5522 0.58767 0.0
C1628 C 0.20801 0.50869 0.58897 0.0
C1629 C 0.37574 0.34397 0.59371 0.0
C1630 C 0.37605 0.33496 0.60969 0.0
C1631 C 0.33959 0.35938 0.58662 0.0
C1632 C 0.30327 0.3667 0.5954 0.0
C1633 C 0.30383 0.35975 0.61148 0.0
C1634 C 0.33986 0.34343 0.61857 0.0
C1635 C 0.26451 0.37997 0.58741 0.0
C1636 C 0.25443 0.42271 0.58724 0.0
C1637 C 0.24141 0.35162 0.5781 0.0
C1638 C 0.25279 0.30651 0.57696 0.0
C1639 C 0.25648 0.28169 0.59035 0.0
C1640 C 0.26904 0.2398 0.58915 0.0
C1641 C 0.27695 0.22201 0.57458 0.0
C1642 C 0.27252 0.24614 0.56118 0.0
C1643 C 0.26063 0.28824 0.56234 0.0
H1644 H 0.28655 0.18959 0.57361 0.0
H1645 H 0.20733 0.60544 0.57241 0.0
H1646 H 0.31426 0.35983 0.30165 0.0
H1647 H 0.34621 0.41078 0.31965 0.0
H1648 H 0.24862 0.49991 0.30878 0.0
H1649 H 0.21659 0.44931 0.29116 0.0
H1650 H 0.37949 0.48445 0.31334 0.0
H1651 H 0.2285 0.56423 0.33921 0.0
H1652 H 0.1583 0.54309 0.34838 0.0
H1653 H 0.20267 0.41752 0.35573 0.0
H1654 H 0.2733 0.43801 0.34686 0.0
H1655 H 0.42703 0.69044 0.33327 0.0
H1656 H 0.39073 0.62889 0.32308 0.0
H1657 H 0.3635 0.58853 0.3698 0.0
H1658 H 0.39886 0.65086 0.3801 0.0
H1659 H 0.30039 0.56914 0.35201 0.0
H1660 H 0.44678 0.5504 0.34904 0.0
H1661 H 0.52026 0.56609 0.34256 0.0
H1662 H 0.49204 0.55781 0.29394 0.0
H1663 H 0.41769 0.54397 0.30005 0.0
C1664 C 0.29937 0.39006 0.30335 0.0
C1665 C 0.26319 0.40073 0.29489 0.0
C1666 C 0.31769 0.41921 0.31356 0.0
C1667 C 0.2997 0.45919 0.31568 0.0
C1668 C 0.26284 0.46919 0.30758 0.0
C1669 C 0.24477 0.44033 0.29736 0.0
C1670 C 0.32067 0.49191 0.32535 0.0
C1671 C 0.36226 0.50285 0.32185 0.0
C1672 C 0.29868 0.51516 0.33684 0.0
C1673 C 0.25618 0.50262 0.34221 0.0
C1674 C 0.22336 0.53214 0.34283 0.0
C1675 C 0.18346 0.52026 0.34798 0.0
C1676 C 0.176 0.47896 0.35258 0.0
C1677 C 0.20844 0.44946 0.35209 0.0
C1678 C 0.24841 0.46118 0.34698 0.0
C1679 C 0.41261 0.66893 0.34139 0.0
C1680 C 0.41617 0.67548 0.3575 0.0
C1681 C 0.39215 0.63348 0.33554 0.0
C1682 C 0.37546 0.60329 0.34566 0.0
C1683 C 0.37648 0.6111 0.36174 0.0
C1684 C 0.39656 0.64692 0.36762 0.0
C1685 C 0.35843 0.56308 0.33937 0.0
C1686 C 0.3177 0.55066 0.34356 0.0
C1687 C 0.38167 0.53775 0.32882 0.0
C1688 C 0.4264 0.54649 0.32503 0.0
C1689 C 0.45602 0.55242 0.33695 0.0
C1690 C 0.4979 0.56099 0.33334 0.0
C1691 C 0.51095 0.56279 0.31787 0.0
C1692 C 0.48194 0.55639 0.30594 0.0
C1693 C 0.43983 0.54836 0.30946 0.0
H1694 H 0.54352 0.56913 0.31514 0.0
H1695 H 0.14509 0.46983 0.35656 0.0
H1696 H 0.40561 0.43932 0.98889 0.0
H1697 H 0.35337 0.42495 0.96884 0.0
H1698 H 0.31297 0.55404 0.97046 0.0
H1699 H 0.36551 0.56872 0.99049 0.0
H1700 H 0.24741 0.50272 0.97326 0.0
H1701 H 0.36202 0.51404 0.93798 0.0
H1702 H 0.43318 0.50073 0.92777 0.0
H1703 H 0.40526 0.36947 0.92354 0.0
H1704 H 0.33411 0.38187 0.93393 0.0
H1705 H 0.08898 0.43761 0.91854 0.0
H1706 H 0.14898 0.47884 0.92842 0.0
H1707 H 0.21982 0.36466 0.93454 0.0
H1708 H 0.16126 0.32417 0.92466 0.0
H1709 H 0.27002 0.42418 0.92413 0.0
H1710 H 0.16363 0.41078 0.96459 0.0
H1711 H 0.09305 0.42152 0.97577 0.0
H1712 H 0.10658 0.5548 0.97079 0.0
H1713 H 0.17709 0.54475 0.95939 0.0
C1714 C 0.38661 0.46501 0.98464 0.0
C1715 C 0.38981 0.50517 0.99136 0.0
C1716 C 0.35652 0.45671 0.97318 0.0
C1717 C 0.32912 0.48842 0.96807 0.0
C1718 C 0.33356 0.529 0.97423 0.0
C1719 C 0.36366 0.53733 0.98568 0.0
C1720 C 0.29373 0.47819 0.95736 0.0
C1721 C 0.25246 0.48648 0.96231 0.0
C1722 C 0.30004 0.4565 0.94316 0.0
C1723 C 0.34276 0.44889 0.93681 0.0
C1724 C 0.37113 0.48229 0.93497 0.0
C1725 C 0.41146 0.47491 0.92913 0.0
C1726 C 0.42375 0.43427 0.92503 0.0
C1727 C 0.39569 0.40094 0.92672 0.0
C1728 C 0.35533 0.40814 0.93255 0.0
C1729 C 0.11768 0.42162 0.92176 0.0
C1730 C 0.1201 0.37762 0.92107 0.0
C1731 C 0.15185 0.44509 0.92747 0.0
C1732 C 0.18888 0.42481 0.93242 0.0
C1733 C 0.19182 0.38117 0.93084 0.0
C1734 C 0.15799 0.35797 0.92529 0.0
C1735 C 0.22387 0.44754 0.9403 0.0
C1736 C 0.26509 0.4415 0.93485 0.0
C1737 C 0.21757 0.47098 0.95411 0.0
C1738 C 0.1753 0.477 0.96096 0.0
C1739 C 0.15138 0.44235 0.96577 0.0
C1740 C 0.11144 0.44831 0.97216 0.0
C1741 C 0.09528 0.48881 0.97394 0.0
C1742 C 0.11909 0.52344 0.96936 0.0
C1743 C 0.15903 0.51764 0.96294 0.0
H1744 H 0.06435 0.49337 0.97889 0.0
H1745 H 0.45499 0.42862 0.92052 0.0
H1746 H 0.38766 0.64232 0.75477 0.0
H1747 H 0.41387 0.58955 0.73648 0.0
H1748 H 0.29816 0.59794 0.71053 0.0
H1749 H 0.27133 0.64916 0.7294 0.0
H1750 H 0.31153 0.52221 0.71484 0.0
H1751 H 0.39917 0.6298 0.69663 0.0
H1752 H 0.45025 0.68773 0.69612 0.0
H1753 H 0.54589 0.60579 0.71369 0.0
H1754 H 0.49525 0.54769 0.71483 0.0
H1755 H 0.39588 0.37672 0.6581 0.0
H1756 H 0.3736 0.44406 0.66942 0.0
H1757 H 0.45323 0.42224 0.70905 0.0
H1758 H 0.47451 0.35446 0.69809 0.0
H1759 H 0.45649 0.50746 0.69466 0.0
H1760 H 0.35919 0.40301 0.71473 0.0
H1761 H 0.30733 0.34624 0.71158 0.0
H1762 H 0.22855 0.42785 0.68475 0.0
H1763 H 0.28031 0.48495 0.68755 0.0
C1764 C 0.36853 0.63384 0.74485 0.0
C1765 C 0.32781 0.65012 0.74331 0.0
C1766 C 0.38346 0.60362 0.73436 0.0
C1767 C 0.35821 0.58964 0.72196 0.0
C1768 C 0.31832 0.60789 0.71998 0.0
C1769 C 0.30312 0.63752 0.73063 0.0
C1770 C 0.3715 0.55307 0.71219 0.0
C1771 C 0.34303 0.51975 0.71011 0.0
C1772 C 0.4127 0.54902 0.70606 0.0
C1773 C 0.44307 0.58441 0.70602 0.0
C1774 C 0.4309 0.62425 0.70066 0.0
C1775 C 0.45986 0.65715 0.70023 0.0
C1776 C 0.50127 0.65052 0.70496 0.0
C1777 C 0.51379 0.61098 0.71014 0.0
C1778 C 0.48492 0.57806 0.7107 0.0
C1779 C 0.40867 0.38637 0.66921 0.0
C1780 C 0.4366 0.36015 0.6773 0.0
C1781 C 0.39593 0.42477 0.67565 0.0
C1782 C 0.41164 0.43796 0.6901 0.0
C1783 C 0.44068 0.41255 0.69791 0.0
C1784 C 0.45262 0.37377 0.69167 0.0
C1785 C 0.39675 0.4775 0.69741 0.0
C1786 C 0.42492 0.51091 0.69911 0.0
C1787 C 0.35507 0.48224 0.70274 0.0
C1788 C 0.32382 0.44806 0.7012 0.0
C1789 C 0.33099 0.40872 0.70804 0.0
C1790 C 0.30158 0.37651 0.70634 0.0
C1791 C 0.26473 0.38339 0.69793 0.0
C1792 C 0.25715 0.42254 0.69124 0.0
C1793 C 0.28649 0.45484 0.69289 0.0
H1794 H 0.24199 0.35841 0.69662 0.0
H1795 H 0.52371 0.67597 0.70455 0.0
H1796 H 0.14218 0.45546 0.47631 0.0
H1797 H 0.1959 0.47198 0.45693 0.0
H1798 H 0.16336 0.60304 0.46013 0.0
H1799 H 0.10985 0.5868 0.47961 0.0
H1800 H 0.18643 0.57839 0.42984 0.0
H1801 H 0.23764 0.56469 0.48305 0.0
H1802 H 0.24726 0.52529 0.5074 0.0
H1803 H 0.31436 0.42914 0.48262 0.0
H1804 H 0.30445 0.46769 0.45806 0.0
H1805 H 0.35574 0.71117 0.42725 0.0
H1806 H 0.29733 0.66588 0.43365 0.0
H1807 H 0.37064 0.5572 0.421 0.0
H1808 H 0.43039 0.60317 0.41432 0.0
H1809 H 0.32926 0.55253 0.45085 0.0
H1810 H 0.29288 0.57686 0.39859 0.0
H1811 H 0.28359 0.6178 0.37461 0.0
H1812 H 0.18984 0.69361 0.39704 0.0
H1813 H 0.199 0.65364 0.42127 0.0
C1814 C 0.14588 0.48771 0.47264 0.0
C1815 C 0.12215 0.51992 0.47965 0.0
C1816 C 0.17653 0.49706 0.46154 0.0
C1817 C 0.1841 0.53881 0.45728 0.0
C1818 C 0.15804 0.57059 0.46326 0.0
C1819 C 0.12736 0.56126 0.47437 0.0
C1820 C 0.22219 0.55018 0.44825 0.0
C1821 C 0.21768 0.5726 0.43436 0.0
C1822 C 0.26305 0.54139 0.4539 0.0
C1823 C 0.2699 0.51879 0.46871 0.0
C1824 C 0.25423 0.53503 0.48279 0.0
C1825 C 0.25973 0.51286 0.49662 0.0
C1826 C 0.2813 0.47467 0.49655 0.0
C1827 C 0.29757 0.45867 0.48265 0.0
C1828 C 0.29202 0.48066 0.46877 0.0
C1829 C 0.35978 0.67765 0.42577 0.0
C1830 C 0.39804 0.66076 0.42044 0.0
C1831 C 0.32605 0.65179 0.42932 0.0
C1832 C 0.32945 0.60822 0.42769 0.0
C1833 C 0.36738 0.59085 0.42226 0.0
C1834 C 0.40138 0.61705 0.41845 0.0
C1835 C 0.29348 0.58191 0.43267 0.0
C1836 C 0.29821 0.55696 0.44594 0.0
C1837 C 0.25288 0.58828 0.4264 0.0
C1838 C 0.2467 0.61221 0.41179 0.0
C1839 C 0.27041 0.60239 0.39845 0.0
C1840 C 0.26516 0.62541 0.3848 0.0
C1841 C 0.23613 0.65825 0.3843 0.0
C1842 C 0.21226 0.66811 0.39744 0.0
C1843 C 0.21741 0.64521 0.41114 0.0
H1844 H 0.23214 0.67607 0.37372 0.0
H1845 H 0.2855 0.45753 0.50727 0.0
H1846 H 0.24058 0.35947 0.22728 0.0
H1847 H 0.22255 0.40764 0.20599 0.0
H1848 H 0.13181 0.4689 0.23567 0.0
H1849 H 0.14937 0.42065 0.25668 0.0
H1850 H 0.10398 0.46824 0.20643 0.0
H1851 H 0.23394 0.50272 0.23322 0.0
H1852 H 0.30617 0.48852 0.24211 0.0
H1853 H 0.34629 0.4719 0.19483 0.0
H1854 H 0.27407 0.48543 0.18569 0.0
H1855 H 0.10965 0.6851 0.19865 0.0
H1856 H 0.13601 0.61755 0.20777 0.0
H1857 H 0.16533 0.58175 0.16066 0.0
H1858 H 0.13759 0.6493 0.15137 0.0
H1859 H 0.22394 0.55901 0.19157 0.0
H1860 H 0.09549 0.54618 0.16331 0.0
H1861 H 0.02284 0.57203 0.15095 0.0
H1862 H 0.97077 0.54465 0.21188 0.0
H1863 H 0.05208 0.52434 0.21635 0.0
C1864 C 0.21585 0.38238 0.22898 0.0
C1865 C 0.19617 0.38647 0.2435 0.0
C1866 C 0.20575 0.41004 0.2169 0.0
C1867 C 0.17618 0.44232 0.21928 0.0
C1868 C 0.15458 0.44429 0.23349 0.0
C1869 C 0.16462 0.41678 0.2455 0.0
C1870 C 0.17088 0.47711 0.20795 0.0
C1871 C 0.13019 0.48791 0.20305 0.0
C1872 C 0.20521 0.50246 0.20332 0.0
C1873 C 0.24857 0.4945 0.20879 0.0
C1874 C 0.25812 0.49572 0.22474 0.0
C1875 C 0.29904 0.48784 0.22982 0.0
C1876 C 0.33077 0.47917 0.21904 0.0
C1877 C 0.32165 0.4785 0.20317 0.0
C1878 C 0.28074 0.48625 0.19803 0.0
C1879 C 0.12312 0.66347 0.19028 0.0
C1880 C 0.12084 0.67195 0.17429 0.0
C1881 C 0.13781 0.62475 0.19549 0.0
C1882 C 0.15051 0.59404 0.1848 0.0
C1883 C 0.15417 0.60467 0.16902 0.0
C1884 C 0.13889 0.64342 0.16374 0.0
C1885 C 0.15705 0.55055 0.19033 0.0
C1886 C 0.19788 0.53845 0.19437 0.0
C1887 C 0.12267 0.52429 0.19431 0.0
C1888 C 0.07858 0.53496 0.19015 0.0
C1889 C 0.06935 0.54871 0.17126 0.0
C1890 C 0.02347 0.56436 0.16317 0.0
C1891 C 0.97825 0.56793 0.17359 0.0
C1892 C 0.99099 0.54695 0.20162 0.0
C1893 C 0.04246 0.53342 0.2048 0.0
H1894 H 0.9754 0.5634 0.18163 0.0
H1895 H 0.36245 0.4731 0.223 0.0
loop_
_geom_bond_atom_site_label_1
_geom_bond_atom_site_label_2
_geom_bond_distance
_geom_bond_site_symmetry_2
_ccdc_geom_bond_type
H0 C8 0.930 . S
H1 C11 0.930 . S
H2 C13 0.930 . S
H3 C14 0.970 . S
H4 C14 0.970 . S
H5 C16 0.930 . S
H6 C18 0.934 . S
H7 C20 0.930 . S
C8 H0 0.930 . S
C8 C9 1.382 . S
C8 C10 1.426 . S
C9 C8 1.382 . S
C9 C13 1.389 . S
C10 C8 1.426 . S
C10 C11 1.375 . S
C10 C14 1.532 1_655 S
C11 H1 0.930 . S
C11 C10 1.375 . S
C11 C12 1.416 . S
C12 C11 1.416 . S
C12 C13 1.371 . S
C13 H2 0.930 . S
C13 C9 1.389 . S
C13 C12 1.371 . S
C14 H3 0.970 . S
C14 H4 0.970 . S
C14 C10 1.532 1_455 S
C14 C15 1.499 . S
C15 C14 1.499 . S
C15 C16 1.370 . S
C15 C20 1.415 . S
C16 H5 0.930 . S
C16 C15 1.370 . S
C16 C17 1.406 1_545 S
C17 C16 1.406 1_565 S
C17 C18 1.364 1_565 S
C18 H6 0.934 . S
C18 C17 1.364 1_545 S
C18 C19 1.393 . S
C19 C18 1.393 . S
C19 C20 1.387 . S
C20 H7 0.930 . S
C20 C15 1.415 . S
C20 C19 1.387 . S
H21 C29 0.930 . S
H22 C32 0.930 . S
H23 C34 0.930 . S
H24 C35 0.970 . S
H25 C35 0.970 . S
H26 C37 0.930 . S
H27 C39 0.930 . S
H28 C41 0.930 . S
C29 H21 0.930 . S
C29 C30 1.382 . S
C29 C31 1.426 . S
C30 C29 1.382 . S
C30 C34 1.389 . S
C31 C29 1.426 . S
C31 C32 1.375 . S
C31 C35 1.532 . S
C32 H22 0.930 . S
C32 C31 1.375 . S
C32 C33 1.416 . S
C33 C32 1.416 . S
C33 C34 1.371 . S
C34 H23 0.930 . S
C34 C30 1.389 . S
C34 C33 1.371 . S
C35 H24 0.970 . S
C35 H25 0.970 . S
C35 C31 1.532 . S
C35 C36 1.499 . S
C36 C35 1.499 . S
C36 C37 1.370 . S
C36 C41 1.415 . S
C37 H26 0.930 . S
C37 C36 1.370 . S
C37 C38 1.407 . S
C38 C37 1.407 . S
C38 C39 1.365 . S
C39 H27 0.930 . S
C39 C38 1.365 . S
C39 C40 1.393 . S
C40 C39 1.393 . S
C40 C41 1.387 . S
C41 H28 0.930 . S
C41 C36 1.415 . S
C41 C40 1.387 . S
H42 C50 0.930 1_565 S
H43 C53 0.930 . S
H44 C55 0.930 . S
H45 C56 0.970 . S
H46 C56 0.970 . S
H47 C58 0.930 1_565 S
H48 C60 0.930 . S
H49 C62 0.930 . S
C50 H42 0.930 1_545 S
C50 C51 1.382 1_545 S
C50 C52 1.426 . S
C51 C50 1.382 1_565 S
C51 C55 1.389 . S
C52 C50 1.426 . S
C52 C53 1.375 . S
C52 C56 1.532 . S
C53 H43 0.930 . S
C53 C52 1.375 . S
C53 C54 1.416 . S
C54 C53 1.416 . S
C54 C55 1.371 1_545 S
C55 H44 0.930 . S
C55 C51 1.389 . S
C55 C54 1.371 1_565 S
C56 H45 0.970 . S
C56 H46 0.970 . S
C56 C52 1.532 . S
C56 C57 1.499 . S
C57 C56 1.499 . S
C57 C58 1.370 . S
C57 C62 1.415 . S
C58 H47 0.930 1_545 S
C58 C57 1.370 . S
C58 C59 1.407 1_545 S
C59 C58 1.407 1_565 S
C59 C60 1.365 . S
C60 H48 0.930 . S
C60 C59 1.365 . S
C60 C61 1.393 1_565 S
C61 C60 1.393 1_545 S
C61 C62 1.387 . S
C62 H49 0.930 . S
C62 C57 1.415 . S
C62 C61 1.387 . S
H63 C71 0.930 . S
H64 C74 0.930 . S
H65 C76 0.930 . S
H66 C77 0.970 . S
H67 C77 0.970 . S
H68 C79 0.930 . S
H69 C81 0.930 . S
H70 C83 0.930 . S
C71 H63 0.930 . S
C71 C72 1.382 . S
C71 C73 1.426 . S
C72 C71 1.382 . S
C72 C76 1.389 . S
C73 C71 1.426 . S
C73 C74 1.375 . S
C73 C77 1.532 . S
C74 H64 0.930 . S
C74 C73 1.375 . S
C74 C75 1.416 . S
C75 C74 1.416 . S
C75 C76 1.371 . S
C76 H65 0.930 . S
C76 C72 1.389 . S
C76 C75 1.371 . S
C77 H66 0.970 . S
C77 H67 0.970 . S
C77 C73 1.532 . S
C77 C78 1.499 . S
C78 C77 1.499 . S
C78 C79 1.370 . S
C78 C83 1.415 . S
C79 H68 0.930 . S
C79 C78 1.370 . S
C79 C80 1.407 . S
C80 C79 1.407 . S
C80 C81 1.365 . S
C81 H69 0.930 . S
C81 C80 1.365 . S
C81 C82 1.393 . S
C82 C81 1.393 . S
C82 C83 1.387 . S
C83 H70 0.930 . S
C83 C78 1.415 . S
C83 C82 1.387 . S
H84 C92 0.930 . S
H85 C95 0.930 . S
H86 C97 0.930 . S
H87 C98 0.970 . S
H88 C98 0.970 . S
H89 C100 0.930 . S
H90 C102 0.930 . S
H91 C104 0.930 . S
C92 H84 0.930 . S
C92 C93 1.382 . S
C92 C94 1.426 . S
C93 C92 1.382 . S
C93 C97 1.389 . S
C94 C92 1.426 . S
C94 C95 1.375 . S
C94 C98 1.532 . S
C95 H85 0.930 . S
C95 C94 1.375 . S
C95 C96 1.416 . S
C96 C95 1.416 . S
C96 C97 1.371 . S
C97 H86 0.930 . S
C97 C93 1.389 . S
C97 C96 1.371 . S
C98 H87 0.970 . S
C98 H88 0.970 . S
C98 C94 1.532 . S
C98 C99 1.499 . S
C99 C98 1.499 . S
C99 C100 1.370 . S
C99 C104 1.415 . S
C100 H89 0.930 . S
C100 C99 1.370 . S
C100 C101 1.407 . S
C101 C100 1.407 . S
C101 C102 1.365 . S
C102 H90 0.930 . S
C102 C101 1.365 . S
C102 C103 1.393 . S
C103 C102 1.393 . S
C103 C104 1.387 . S
C104 H91 0.930 . S
C104 C99 1.415 . S
C104 C103 1.387 . S
H105 C113 0.930 . S
H106 C116 0.930 . S
H107 C118 0.930 . S
H108 C119 0.970 . S
H109 C119 0.970 . S
H110 C121 0.930 . S
H111 C123 0.930 . S
H112 C125 0.930 . S
C113 H105 0.930 . S
C113 C114 1.382 . S
C113 C115 1.426 . S
C114 C113 1.382 . S
C114 C118 1.389 . S
C115 C113 1.426 . S
C115 C116 1.375 . S
C115 C119 1.532 . S
C116 H106 0.930 . S
C116 C115 1.375 . S
C116 C117 1.416 . S
C117 C116 1.416 . S
C117 C118 1.371 . S
C118 H107 0.930 . S
C118 C114 1.389 . S
C118 C117 1.371 . S
C119 H108 0.970 . S
C119 H109 0.970 . S
C119 C115 1.532 . S
C119 C120 1.499 . S
C120 C119 1.499 . S
C120 C121 1.370 . S
C120 C125 1.415 . S
C121 H110 0.930 . S
C121 C120 1.370 . S
C121 C122 1.407 . S
C122 C121 1.407 . S
C122 C123 1.365 . S
C123 H111 0.930 . S
C123 C122 1.365 . S
C123 C124 1.393 . S
C124 C123 1.393 . S
C124 C125 1.387 . S
C125 H112 0.930 . S
C125 C120 1.415 . S
C125 C124 1.387 . S
H126 C134 0.930 . S
H127 C137 0.930 . S
H128 C139 0.930 . S
H129 C140 0.970 . S
H130 C140 0.970 . S
H131 C142 0.930 . S
H132 C144 0.930 . S
H133 C146 0.930 . S
C134 H126 0.930 . S
C134 C135 1.382 . S
C134 C136 1.426 . S
C135 C134 1.382 . S
C135 C139 1.389 . S
C136 C134 1.426 . S
C136 C137 1.375 . S
C136 C140 1.532 . S
C137 H127 0.930 . S
C137 C136 1.375 . S
C137 C138 1.416 . S
C138 C137 1.416 . S
C138 C139 1.371 . S
C139 H128 0.930 . S
C139 C135 1.389 . S
C139 C138 1.371 . S
C140 H129 0.970 . S
C140 H130 0.970 . S
C140 C136 1.532 . S
C140 C141 1.499 . S
C141 C140 1.499 . S
C141 C142 1.370 . S
C141 C146 1.415 . S
C142 H131 0.930 . S
C142 C141 1.370 . S
C142 C143 1.407 . S
C143 C142 1.407 . S
C143 C144 1.365 . S
C144 H132 0.930 . S
C144 C143 1.365 . S
C144 C145 1.393 . S
C145 C144 1.393 . S
C145 C146 1.387 . S
C146 H133 0.930 . S
C146 C141 1.415 . S
C146 C145 1.387 . S
H147 C155 0.930 . S
H148 C158 0.930 . S
H149 C160 0.930 . S
H150 C161 0.971 . S
H151 C161 0.970 . S
H152 C163 0.930 . S
H153 C165 0.930 . S
H154 C167 0.930 . S
C155 H147 0.930 . S
C155 C156 1.382 . S
C155 C157 1.426 . S
C156 C155 1.382 . S
C156 C160 1.389 . S
C157 C155 1.426 . S
C157 C158 1.375 . S
C157 C161 1.532 . S
C158 H148 0.930 . S
C158 C157 1.375 . S
C158 C159 1.416 . S
C159 C158 1.416 . S
C159 C160 1.371 . S
C160 H149 0.930 . S
C160 C156 1.389 . S
C160 C159 1.371 . S
C161 H150 0.971 . S
C161 H151 0.970 . S
C161 C157 1.532 . S
C161 C162 1.499 1_455 S
C162 C161 1.499 1_655 S
C162 C163 1.370 . S
C162 C167 1.415 . S
C163 H152 0.930 . S
C163 C162 1.370 . S
C163 C164 1.407 . S
C164 C163 1.407 . S
C164 C165 1.365 . S
C165 H153 0.930 . S
C165 C164 1.365 . S
C165 C166 1.393 . S
C166 C165 1.393 . S
C166 C167 1.387 . S
C167 H154 0.930 . S
C167 C162 1.415 . S
C167 C166 1.387 . S
Fe168 O169 1.886 . S
Fe168 O172 1.715 1_455 S
Fe168 O177 2.077 . S
Fe168 O182 1.935 1_455 S
Fe168 O188 2.077 . S
Fe168 O197 1.935 1_455 S
O169 Fe168 1.886 . S
O169 Fe171 1.715 . S
Fe170 O172 1.886 . S
Fe170 O173 1.715 . S
Fe170 O180 1.935 . S
Fe170 O181 2.077 . S
Fe170 O187 1.935 . S
Fe170 O196 2.077 . S
Fe171 O169 1.715 . S
Fe171 O174 1.886 . S
Fe171 O178 1.935 . S
Fe171 O183 2.077 . S
Fe171 O189 1.935 . S
Fe171 O193 2.077 . S
O172 Fe168 1.715 1_655 S
O172 Fe170 1.886 . S
O173 Fe170 1.715 . S
O173 Fe175 1.878 1_655 S
O174 Fe171 1.886 . S
O174 Fe175 1.723 . S
Fe175 O173 1.878 1_455 S
Fe175 O174 1.723 . S
Fe175 O179 2.070 1_455 S
Fe175 O184 1.941 . S
Fe175 O186 2.070 1_455 S
Fe175 O194 1.941 . S
C176 O188 1.381 . S
C176 O189 1.421 . S
O177 Fe168 2.077 . S
O177 C190 1.381 . S
O178 Fe171 1.935 . S
O178 C190 1.421 . S
O179 Fe175 2.070 1_655 S
O179 C195 1.381 . S
O180 Fe170 1.935 . S
O180 C195 1.421 . S
O181 Fe170 2.077 . S
O181 C185 1.381 . S
O182 Fe168 1.935 1_655 S
O182 C185 1.421 . S
O183 Fe171 2.077 . S
O183 C191 1.381 . S
O184 Fe175 1.941 . S
O184 C191 1.421 . S
C185 O181 1.381 . S
C185 O182 1.421 . S
O186 Fe175 2.070 1_655 S
O186 C198 1.381 . S
O187 Fe170 1.935 . S
O187 C198 1.421 . S
O188 Fe168 2.077 . S
O188 C176 1.381 . S
O189 Fe171 1.935 . S
O189 C176 1.421 . S
C190 O177 1.381 . S
C190 O178 1.421 . S
C191 O183 1.381 . S
C191 O184 1.421 . S
C192 O193 1.381 . S
C192 O194 1.421 . S
O193 Fe171 2.077 . S
O193 C192 1.381 . S
O194 Fe175 1.941 . S
O194 C192 1.421 . S
C195 O179 1.381 . S
C195 O180 1.421 . S
O196 Fe170 2.077 . S
O196 C199 1.381 . S
O197 Fe168 1.935 1_655 S
O197 C199 1.421 . S
C198 O186 1.381 . S
C198 O187 1.421 . S
C199 O196 1.381 . S
C199 O197 1.421 . S
Fe200 O201 1.886 . S
Fe200 O204 1.715 . S
Fe200 O209 2.077 . S
Fe200 O214 1.935 . S
Fe200 O220 2.077 . S
Fe200 O229 1.935 . S
O201 Fe200 1.886 . S
O201 Fe203 1.715 . S
Fe202 O204 1.886 . S
Fe202 O205 1.715 . S
Fe202 O212 1.935 . S
Fe202 O213 2.077 . S
Fe202 O219 1.935 . S
Fe202 O228 2.077 . S
Fe203 O201 1.715 . S
Fe203 O206 1.886 . S
Fe203 O210 1.935 . S
Fe203 O215 2.077 . S
Fe203 O221 1.935 . S
Fe203 O225 2.077 . S
O204 Fe200 1.715 . S
O204 Fe202 1.886 . S
O205 Fe202 1.715 . S
O205 Fe207 1.886 . S
O206 Fe203 1.886 . S
O206 Fe207 1.715 . S
Fe207 O205 1.886 . S
Fe207 O206 1.715 . S
Fe207 O211 2.077 . S
Fe207 O216 1.935 . S
Fe207 O218 2.077 . S
Fe207 O226 1.935 . S
C208 O220 1.381 . S
C208 O221 1.421 . S
O209 Fe200 2.077 . S
O209 C222 1.381 . S
O210 Fe203 1.935 . S
O210 C222 1.421 . S
O211 Fe207 2.077 . S
O211 C227 1.381 . S
O212 Fe202 1.935 . S
O212 C227 1.421 . S
O213 Fe202 2.077 . S
O213 C217 1.381 . S
O214 Fe200 1.935 . S
O214 C217 1.421 . S
O215 Fe203 2.077 . S
O215 C223 1.381 . S
O216 Fe207 1.935 . S
O216 C223 1.421 . S
C217 O213 1.381 . S
C217 O214 1.421 . S
O218 Fe207 2.077 . S
O218 C230 1.381 . S
O219 Fe202 1.935 . S
O219 C230 1.421 . S
O220 Fe200 2.077 . S
O220 C208 1.381 . S
O221 Fe203 1.935 . S
O221 C208 1.421 . S
C222 O209 1.381 . S
C222 O210 1.421 . S
C223 O215 1.381 . S
C223 O216 1.421 . S
C224 O225 1.381 . S
C224 O226 1.421 . S
O225 Fe203 2.077 . S
O225 C224 1.381 . S
O226 Fe207 1.935 . S
O226 C224 1.421 . S
C227 O211 1.381 . S
C227 O212 1.421 . S
O228 Fe202 2.077 . S
O228 C231 1.381 . S
O229 Fe200 1.935 . S
O229 C231 1.421 . S
C230 O218 1.381 . S
C230 O219 1.421 . S
C231 O228 1.381 . S
C231 O229 1.421 . S
Fe232 O233 1.886 . S
Fe232 O236 1.715 . S
Fe232 O241 2.077 . S
Fe232 O246 1.935 . S
Fe232 O252 2.077 . S
Fe232 O261 1.935 . S
O233 Fe232 1.886 . S
O233 Fe235 1.715 . S
Fe234 O236 1.886 . S
Fe234 O237 1.715 . S
Fe234 O244 1.935 . S
Fe234 O245 2.077 . S
Fe234 O251 1.935 . S
Fe234 O260 2.077 . S
Fe235 O233 1.715 . S
Fe235 O238 1.886 . S
Fe235 O242 1.935 . S
Fe235 O247 2.077 . S
Fe235 O253 1.935 . S
Fe235 O257 2.077 . S
O236 Fe232 1.715 . S
O236 Fe234 1.886 . S
O237 Fe234 1.715 . S
O237 Fe239 1.886 . S
O238 Fe235 1.886 . S
O238 Fe239 1.715 . S
Fe239 O237 1.886 . S
Fe239 O238 1.715 . S
Fe239 O243 2.077 . S
Fe239 O248 1.935 . S
Fe239 O250 2.077 . S
Fe239 O258 1.935 . S
C240 O252 1.381 . S
C240 O253 1.421 . S
O241 Fe232 2.077 . S
O241 C254 1.381 . S
O242 Fe235 1.935 . S
O242 C254 1.421 . S
O243 Fe239 2.077 . S
O243 C259 1.381 . S
O244 Fe234 1.935 . S
O244 C259 1.421 . S
O245 Fe234 2.077 . S
O245 C249 1.381 . S
O246 Fe232 1.935 . S
O246 C249 1.421 . S
O247 Fe235 2.077 . S
O247 C255 1.381 . S
O248 Fe239 1.935 . S
O248 C255 1.421 . S
C249 O245 1.381 . S
C249 O246 1.421 . S
O250 Fe239 2.077 . S
O250 C262 1.381 . S
O251 Fe234 1.935 . S
O251 C262 1.421 . S
O252 Fe232 2.077 . S
O252 C240 1.381 . S
O253 Fe235 1.935 . S
O253 C240 1.421 . S
C254 O241 1.381 . S
C254 O242 1.421 . S
C255 O247 1.381 . S
C255 O248 1.421 . S
C256 O257 1.381 . S
C256 O258 1.421 . S
O257 Fe235 2.077 . S
O257 C256 1.381 . S
O258 Fe239 1.935 . S
O258 C256 1.421 . S
C259 O243 1.381 . S
C259 O244 1.421 . S
O260 Fe234 2.077 . S
O260 C263 1.381 . S
O261 Fe232 1.935 . S
O261 C263 1.421 . S
C262 O250 1.381 . S
C262 O251 1.421 . S
C263 O260 1.381 . S
C263 O261 1.421 . S
Fe264 O265 1.886 . S
Fe264 O268 1.715 . S
Fe264 O273 2.077 1_455 S
Fe264 O278 1.935 1_455 S
Fe264 O284 2.077 . S
Fe264 O293 1.935 . S
O265 Fe264 1.886 . S
O265 Fe267 1.715 . S
Fe266 O268 1.886 . S
Fe266 O269 1.715 . S
Fe266 O276 1.935 1_455 S
Fe266 O277 2.077 1_455 S
Fe266 O283 1.935 . S
Fe266 O292 2.077 . S
Fe267 O265 1.715 . S
Fe267 O270 1.886 . S
Fe267 O274 1.935 1_455 S
Fe267 O279 2.077 1_455 S
Fe267 O285 1.935 . S
Fe267 O289 2.077 . S
O268 Fe264 1.715 . S
O268 Fe266 1.886 . S
O269 Fe266 1.715 . S
O269 Fe271 1.886 . S
O270 Fe267 1.886 . S
O270 Fe271 1.715 . S
Fe271 O269 1.886 . S
Fe271 O270 1.715 . S
Fe271 O275 2.077 1_455 S
Fe271 O280 1.935 1_455 S
Fe271 O282 2.077 . S
Fe271 O290 1.935 . S
C272 O284 1.381 . S
C272 O285 1.421 . S
O273 Fe264 2.077 1_655 S
O273 C286 1.381 . S
O274 Fe267 1.935 1_655 S
O274 C286 1.421 . S
O275 Fe271 2.077 1_655 S
O275 C291 1.381 . S
O276 Fe266 1.935 1_655 S
O276 C291 1.421 . S
O277 Fe266 2.077 1_655 S
O277 C281 1.381 . S
O278 Fe264 1.935 1_655 S
O278 C281 1.421 . S
O279 Fe267 2.077 1_655 S
O279 C287 1.381 . S
O280 Fe271 1.935 1_655 S
O280 C287 1.421 . S
C281 O277 1.381 . S
C281 O278 1.421 . S
O282 Fe271 2.077 . S
O282 C294 1.381 . S
O283 Fe266 1.935 . S
O283 C294 1.421 . S
O284 Fe264 2.077 . S
O284 C272 1.381 . S
O285 Fe267 1.935 . S
O285 C272 1.421 . S
C286 O273 1.381 . S
C286 O274 1.421 . S
C287 O279 1.381 . S
C287 O280 1.421 . S
C288 O289 1.381 . S
C288 O290 1.421 . S
O289 Fe267 2.077 . S
O289 C288 1.381 . S
O290 Fe271 1.935 . S
O290 C288 1.421 . S
C291 O275 1.381 . S
C291 O276 1.421 . S
O292 Fe266 2.077 . S
O292 C295 1.381 . S
O293 Fe264 1.935 . S
O293 C295 1.421 . S
C294 O282 1.381 . S
C294 O283 1.421 . S
C295 O292 1.381 . S
C295 O293 1.421 . S
H296 C314 0.951 . S
H297 C316 0.951 . S
H298 C318 0.950 . S
H299 C319 0.950 1_545 S
H300 C321 0.950 . S
H301 C324 0.950 . S
H302 C325 0.950 . S
H303 C327 0.950 . S
H304 C328 0.950 . S
H305 C329 0.951 . S
H306 C331 0.951 . S
H307 C333 0.950 . S
H308 C334 0.950 . S
H309 C336 0.950 . S
H310 C339 0.950 . S
H311 C340 0.950 . S
H312 C342 0.950 . S
H313 C343 0.950 . S
C314 H296 0.951 . S
C314 C315 1.366 . S
C314 C316 1.388 . S
C315 C314 1.366 . S
C315 C319 1.385 . S
C316 H297 0.951 . S
C316 C314 1.388 . S
C316 C317 1.366 . S
C317 C316 1.366 . S
C317 C318 1.414 . S
C317 C320 1.499 . S
C318 H298 0.950 . S
C318 C317 1.414 . S
C318 C319 1.374 . S
C319 H299 0.950 1_565 S
C319 C315 1.385 . S
C319 C318 1.374 . S
C320 C317 1.499 . S
C320 C321 1.373 . S
C320 C322 1.389 . S
C321 H300 0.950 . S
C321 C320 1.373 . S
C321 C337 1.377 . S
C322 C320 1.389 . S
C322 C323 1.524 . S
C322 C336 1.377 . S
C323 C322 1.524 . S
C323 C324 1.397 . S
C323 C328 1.363 . S
C324 H301 0.950 . S
C324 C323 1.397 . S
C324 C325 1.334 . S
C325 H302 0.950 . S
C325 C324 1.334 . S
C325 C326 1.287 . S
C326 C325 1.287 . S
C326 C327 1.524 . S
C326 H345 0.913 . S
C327 H303 0.950 . S
C327 C326 1.524 . S
C327 C328 1.415 . S
C328 H304 0.950 . S
C328 C323 1.363 . S
C328 C327 1.415 . S
C329 H305 0.951 . S
C329 C330 1.366 . S
C329 C331 1.388 . S
C330 C329 1.366 . S
C330 C334 1.385 . S
C331 H306 0.951 . S
C331 C329 1.388 . S
C331 C332 1.366 . S
C332 C331 1.366 . S
C332 C333 1.414 . S
C332 C335 1.499 . S
C333 H307 0.950 . S
C333 C332 1.414 . S
C333 C334 1.374 . S
C334 H308 0.950 . S
C334 C330 1.385 . S
C334 C333 1.374 . S
C335 C332 1.499 . S
C335 C336 1.373 . S
C335 C337 1.389 . S
C336 H309 0.950 . S
C336 C322 1.377 . S
C336 C335 1.373 . S
C337 C321 1.377 . S
C337 C335 1.389 . S
C337 C338 1.524 . S
C338 C337 1.524 . S
C338 C339 1.397 . S
C338 C343 1.363 1_565 S
C339 H310 0.950 . S
C339 C338 1.397 . S
C339 C340 1.334 1_565 S
C340 H311 0.950 . S
C340 C339 1.334 1_545 S
C340 C341 1.287 . S
C341 C340 1.287 . S
C341 C342 1.524 . S
C341 H344 0.999 . S
C342 H312 0.950 . S
C342 C341 1.524 . S
C342 C343 1.415 . S
C343 H313 0.950 . S
C343 C338 1.363 1_545 S
C343 C342 1.415 . S
H344 C341 0.999 . S
H345 C326 0.913 . S
H346 C364 0.951 . S
H347 C366 0.951 . S
H348 C368 0.950 . S
H349 C369 0.950 . S
H350 C371 0.951 1_565 S
H351 C374 0.950 . S
H352 C375 0.950 . S
H353 C377 0.950 . S
H354 C378 0.950 1_545 S
H355 C379 0.951 . S
H356 C381 0.951 . S
H357 C383 0.950 . S
H358 C384 0.950 . S
H359 C386 0.950 . S
H360 C389 0.950 . S
H361 C390 0.950 . S
H362 C392 0.950 . S
H363 C393 0.950 . S
C364 H346 0.951 . S
C364 C365 1.366 . S
C364 C366 1.388 . S
C365 C364 1.366 . S
C365 C369 1.385 . S
C366 H347 0.951 . S
C366 C364 1.388 . S
C366 C367 1.366 . S
C367 C366 1.366 . S
C367 C368 1.414 . S
C367 C370 1.499 . S
C368 H348 0.950 . S
C368 C367 1.414 . S
C368 C369 1.374 . S
C369 H349 0.950 . S
C369 C365 1.385 . S
C369 C368 1.374 . S
C370 C367 1.499 . S
C370 C371 1.373 1_565 S
C370 C372 1.389 . S
C371 H350 0.951 1_545 S
C371 C370 1.373 1_545 S
C371 C387 1.377 . S
C372 C370 1.389 . S
C372 C373 1.524 . S
C372 C386 1.377 1_565 S
C373 C372 1.524 . S
C373 C374 1.397 . S
C373 C378 1.363 . S
C374 H351 0.950 . S
C374 C373 1.397 . S
C374 C375 1.334 . S
C375 H352 0.950 . S
C375 C374 1.334 . S
C375 C376 1.287 . S
C376 C375 1.287 . S
C376 C377 1.524 . S
C376 H395 0.913 . S
C377 H353 0.950 . S
C377 C376 1.524 . S
C377 C378 1.415 . S
C378 H354 0.950 1_565 S
C378 C373 1.363 . S
C378 C377 1.415 . S
C379 H355 0.951 . S
C379 C380 1.366 . S
C379 C381 1.388 . S
C380 C379 1.366 . S
C380 C384 1.385 . S
C381 H356 0.951 . S
C381 C379 1.388 . S
C381 C382 1.366 . S
C382 C381 1.366 . S
C382 C383 1.414 . S
C382 C385 1.499 . S
C383 H357 0.950 . S
C383 C382 1.414 . S
C383 C384 1.374 . S
C384 H358 0.950 . S
C384 C380 1.385 . S
C384 C383 1.374 . S
C385 C382 1.499 . S
C385 C386 1.373 . S
C385 C387 1.389 . S
C386 H359 0.950 . S
C386 C372 1.377 1_545 S
C386 C385 1.373 . S
C387 C371 1.377 . S
C387 C385 1.389 . S
C387 C388 1.524 . S
C388 C387 1.524 . S
C388 C389 1.397 . S
C388 C393 1.363 . S
C389 H360 0.950 . S
C389 C388 1.397 . S
C389 C390 1.334 . S
C390 H361 0.950 . S
C390 C389 1.334 . S
C390 C391 1.287 . S
C391 C390 1.287 . S
C391 C392 1.524 . S
C391 H394 0.999 . S
C392 H362 0.950 . S
C392 C391 1.524 . S
C392 C393 1.415 . S
C393 H363 0.950 . S
C393 C388 1.363 . S
C393 C392 1.415 . S
H394 C391 0.999 . S
H395 C376 0.913 . S
H396 C414 0.951 1_565 S
H397 C416 0.951 . S
H398 C418 0.950 . S
H399 C419 0.950 . S
H400 C421 0.950 . S
H401 C424 0.950 . S
H402 C425 0.950 . S
H403 C427 0.950 . S
H404 C428 0.950 . S
H405 C429 0.951 . S
H406 C431 0.951 . S
H407 C433 0.950 . S
H408 C434 0.950 . S
H409 C436 0.950 . S
H410 C439 0.950 . S
H411 C440 0.950 . S
H412 C442 0.950 . S
H413 C443 0.950 . S
C414 H396 0.951 1_545 S
C414 C415 1.366 . S
C414 C416 1.388 . S
C415 C414 1.366 . S
C415 C419 1.385 . S
C416 H397 0.951 . S
C416 C414 1.388 . S
C416 C417 1.366 . S
C417 C416 1.366 . S
C417 C418 1.414 . S
C417 C420 1.499 . S
C418 H398 0.950 . S
C418 C417 1.414 . S
C418 C419 1.374 . S
C419 H399 0.950 . S
C419 C415 1.385 . S
C419 C418 1.374 . S
C420 C417 1.499 . S
C420 C421 1.373 . S
C420 C422 1.389 . S
C421 H400 0.950 . S
C421 C420 1.373 . S
C421 C437 1.377 . S
C422 C420 1.389 . S
C422 C423 1.524 . S
C422 C436 1.377 . S
C423 C422 1.524 . S
C423 C424 1.397 . S
C423 C428 1.363 . S
C424 H401 0.950 . S
C424 C423 1.397 . S
C424 C425 1.334 . S
C425 H402 0.950 . S
C425 C424 1.334 . S
C425 C426 1.287 . S
C426 C425 1.287 . S
C426 C427 1.524 1_545 S
C426 H445 0.913 1_545 S
C427 H403 0.950 . S
C427 C426 1.524 1_565 S
C427 C428 1.415 1_565 S
C428 H404 0.950 . S
C428 C423 1.363 . S
C428 C427 1.415 1_545 S
C429 H405 0.951 . S
C429 C430 1.366 . S
C429 C431 1.388 . S
C430 C429 1.366 . S
C430 C434 1.385 . S
C431 H406 0.951 . S
C431 C429 1.388 . S
C431 C432 1.366 . S
C432 C431 1.366 . S
C432 C433 1.414 . S
C432 C435 1.499 . S
C433 H407 0.950 . S
C433 C432 1.414 . S
C433 C434 1.374 . S
C434 H408 0.950 . S
C434 C430 1.385 . S
C434 C433 1.374 . S
C435 C432 1.499 . S
C435 C436 1.373 . S
C435 C437 1.389 . S
C436 H409 0.950 . S
C436 C422 1.377 . S
C436 C435 1.373 . S
C437 C421 1.377 . S
C437 C435 1.389 . S
C437 C438 1.524 . S
C438 C437 1.524 . S
C438 C439 1.397 . S
C438 C443 1.363 . S
C439 H410 0.950 . S
C439 C438 1.397 . S
C439 C440 1.334 . S
C440 H411 0.950 . S
C440 C439 1.334 . S
C440 C441 1.287 . S
C441 C440 1.287 . S
C441 C442 1.524 . S
C441 H444 0.999 . S
C442 H412 0.950 . S
C442 C441 1.524 . S
C442 C443 1.415 . S
C443 H413 0.950 . S
C443 C438 1.363 . S
C443 C442 1.415 . S
H444 C441 0.999 . S
H445 C426 0.913 1_565 S
H446 C464 0.951 . S
H447 C466 0.951 . S
H448 C468 0.950 . S
H449 C469 0.950 . S
H450 C471 0.950 . S
H451 C474 0.950 . S
H452 C475 0.950 . S
H453 C477 0.950 . S
H454 C478 0.950 . S
H455 C479 0.951 . S
H456 C481 0.951 . S
H457 C483 0.950 . S
H458 C484 0.950 . S
H459 C486 0.950 . S
H460 C489 0.950 . S
H461 C490 0.950 . S
H462 C492 0.950 . S
H463 C493 0.950 . S
C464 H446 0.951 . S
C464 C465 1.366 . S
C464 C466 1.388 . S
C465 C464 1.366 . S
C465 C469 1.385 . S
C466 H447 0.951 . S
C466 C464 1.388 . S
C466 C467 1.366 . S
C467 C466 1.366 . S
C467 C468 1.414 . S
C467 C470 1.499 . S
C468 H448 0.950 . S
C468 C467 1.414 . S
C468 C469 1.374 . S
C469 H449 0.950 . S
C469 C465 1.385 . S
C469 C468 1.374 . S
C470 C467 1.499 . S
C470 C471 1.373 . S
C470 C472 1.389 . S
C471 H450 0.950 . S
C471 C470 1.373 . S
C471 C487 1.377 1_545 S
C472 C470 1.389 . S
C472 C473 1.524 . S
C472 C486 1.377 1_545 S
C473 C472 1.524 . S
C473 C474 1.397 . S
C473 C478 1.363 . S
C474 H451 0.950 . S
C474 C473 1.397 . S
C474 C475 1.334 . S
C475 H452 0.950 . S
C475 C474 1.334 . S
C475 C476 1.287 . S
C476 C475 1.287 . S
C476 C477 1.524 . S
C476 H495 0.913 . S
C477 H453 0.950 . S
C477 C476 1.524 . S
C477 C478 1.415 . S
C478 H454 0.950 . S
C478 C473 1.363 . S
C478 C477 1.415 . S
C479 H455 0.951 . S
C479 C480 1.366 . S
C479 C481 1.388 . S
C480 C479 1.366 . S
C480 C484 1.385 . S
C481 H456 0.951 . S
C481 C479 1.388 . S
C481 C482 1.366 . S
C482 C481 1.366 . S
C482 C483 1.414 . S
C482 C485 1.499 . S
C483 H457 0.950 . S
C483 C482 1.414 . S
C483 C484 1.374 . S
C484 H458 0.950 . S
C484 C480 1.385 . S
C484 C483 1.374 . S
C485 C482 1.499 . S
C485 C486 1.373 . S
C485 C487 1.389 . S
C486 H459 0.950 . S
C486 C472 1.377 1_565 S
C486 C485 1.373 . S
C487 C471 1.377 1_565 S
C487 C485 1.389 . S
C487 C488 1.524 . S
C488 C487 1.524 . S
C488 C489 1.397 . S
C488 C493 1.363 . S
C489 H460 0.950 . S
C489 C488 1.397 . S
C489 C490 1.334 . S
C490 H461 0.950 . S
C490 C489 1.334 . S
C490 C491 1.287 . S
C491 C490 1.287 . S
C491 C492 1.524 . S
C491 H494 0.999 . S
C492 H462 0.950 . S
C492 C491 1.524 . S
C492 C493 1.415 . S
C493 H463 0.950 . S
C493 C488 1.363 . S
C493 C492 1.415 . S
H494 C491 0.999 . S
H495 C476 0.913 . S
H496 C514 0.951 . S
H497 C516 0.951 . S
H498 C518 0.950 . S
H499 C519 0.950 . S
H500 C521 0.950 . S
H501 C524 0.950 . S
H502 C525 0.950 . S
H503 C527 0.950 . S
H504 C528 0.950 . S
H505 C529 0.951 . S
H506 C531 0.951 . S
H507 C533 0.950 . S
H508 C534 0.950 . S
H509 C536 0.950 . S
H510 C539 0.950 . S
H511 C540 0.950 . S
H512 C542 0.950 . S
H513 C543 0.950 . S
C514 H496 0.951 . S
C514 C515 1.366 . S
C514 C516 1.388 . S
C515 C514 1.366 . S
C515 C519 1.385 . S
C516 H497 0.951 . S
C516 C514 1.388 . S
C516 C517 1.366 . S
C517 C516 1.366 . S
C517 C518 1.414 . S
C517 C520 1.499 . S
C518 H498 0.950 . S
C518 C517 1.414 . S
C518 C519 1.374 . S
C519 H499 0.950 . S
C519 C515 1.385 . S
C519 C518 1.374 . S
C520 C517 1.499 . S
C520 C521 1.373 . S
C520 C522 1.389 . S
C521 H500 0.950 . S
C521 C520 1.373 . S
C521 C537 1.377 . S
C522 C520 1.389 . S
C522 C523 1.524 . S
C522 C536 1.377 . S
C523 C522 1.524 . S
C523 C524 1.397 . S
C523 C528 1.363 . S
C524 H501 0.950 . S
C524 C523 1.397 . S
C524 C525 1.334 . S
C525 H502 0.950 . S
C525 C524 1.334 . S
C525 C526 1.287 . S
C526 C525 1.287 . S
C526 C527 1.524 . S
C526 H545 0.913 . S
C527 H503 0.950 . S
C527 C526 1.524 . S
C527 C528 1.415 . S
C528 H504 0.950 . S
C528 C523 1.363 . S
C528 C527 1.415 . S
C529 H505 0.951 . S
C529 C530 1.366 . S
C529 C531 1.388 . S
C530 C529 1.366 . S
C530 C534 1.385 . S
C531 H506 0.951 . S
C531 C529 1.388 . S
C531 C532 1.366 . S
C532 C531 1.366 . S
C532 C533 1.414 . S
C532 C535 1.499 . S
C533 H507 0.950 . S
C533 C532 1.414 . S
C533 C534 1.374 . S
C534 H508 0.950 . S
C534 C530 1.385 . S
C534 C533 1.374 . S
C535 C532 1.499 . S
C535 C536 1.373 . S
C535 C537 1.389 . S
C536 H509 0.950 . S
C536 C522 1.377 . S
C536 C535 1.373 . S
C537 C521 1.377 . S
C537 C535 1.389 . S
C537 C538 1.524 . S
C538 C537 1.524 . S
C538 C539 1.397 . S
C538 C543 1.363 . S
C539 H510 0.950 . S
C539 C538 1.397 . S
C539 C540 1.334 . S
C540 H511 0.950 . S
C540 C539 1.334 . S
C540 C541 1.287 . S
C541 C540 1.287 . S
C541 C542 1.524 . S
C541 H544 0.999 . S
C542 H512 0.950 . S
C542 C541 1.524 . S
C542 C543 1.415 . S
C543 H513 0.950 . S
C543 C538 1.363 . S
C543 C542 1.415 . S
H544 C541 0.999 . S
H545 C526 0.913 . S
H546 C564 0.951 . S
H547 C566 0.951 . S
H548 C568 0.950 . S
H549 C569 0.950 . S
H550 C571 0.950 . S
H551 C574 0.950 . S
H552 C575 0.950 . S
H553 C577 0.950 . S
H554 C578 0.950 . S
H555 C579 0.951 . S
H556 C581 0.951 . S
H557 C583 0.950 . S
H558 C584 0.950 . S
H559 C586 0.950 . S
H560 C589 0.950 . S
H561 C590 0.950 . S
H562 C592 0.950 . S
H563 C593 0.950 . S
C564 H546 0.951 . S
C564 C565 1.366 . S
C564 C566 1.388 . S
C565 C564 1.366 . S
C565 C569 1.385 . S
C566 H547 0.951 . S
C566 C564 1.388 . S
C566 C567 1.366 . S
C567 C566 1.366 . S
C567 C568 1.414 . S
C567 C570 1.499 . S
C568 H548 0.950 . S
C568 C567 1.414 . S
C568 C569 1.374 . S
C569 H549 0.950 . S
C569 C565 1.385 . S
C569 C568 1.374 . S
C570 C567 1.499 . S
C570 C571 1.373 . S
C570 C572 1.389 1_565 S
C571 H550 0.950 . S
C571 C570 1.373 . S
C571 C587 1.377 1_565 S
C572 C570 1.389 1_545 S
C572 C573 1.524 . S
C572 C586 1.377 . S
C573 C572 1.524 . S
C573 C574 1.397 . S
C573 C578 1.363 . S
C574 H551 0.950 . S
C574 C573 1.397 . S
C574 C575 1.334 . S
C575 H552 0.950 . S
C575 C574 1.334 . S
C575 C576 1.287 . S
C576 C575 1.287 . S
C576 C577 1.524 . S
C576 H595 0.913 . S
C577 H553 0.950 . S
C577 C576 1.524 . S
C577 C578 1.415 . S
C578 H554 0.950 . S
C578 C573 1.363 . S
C578 C577 1.415 . S
C579 H555 0.951 . S
C579 C580 1.366 . S
C579 C581 1.388 . S
C580 C579 1.366 . S
C580 C584 1.385 . S
C581 H556 0.951 . S
C581 C579 1.388 . S
C581 C582 1.366 . S
C582 C581 1.366 . S
C582 C583 1.414 . S
C582 C585 1.499 . S
C583 H557 0.950 . S
C583 C582 1.414 . S
C583 C584 1.374 . S
C584 H558 0.950 . S
C584 C580 1.385 . S
C584 C583 1.374 . S
C585 C582 1.499 . S
C585 C586 1.373 . S
C585 C587 1.389 . S
C586 H559 0.950 . S
C586 C572 1.377 . S
C586 C585 1.373 . S
C587 C571 1.377 1_545 S
C587 C585 1.389 . S
C587 C588 1.524 . S
C588 C587 1.524 . S
C588 C589 1.397 . S
C588 C593 1.363 1_545 S
C589 H560 0.950 . S
C589 C588 1.397 . S
C589 C590 1.334 . S
C590 H561 0.950 . S
C590 C589 1.334 . S
C590 C591 1.287 1_545 S
C591 C590 1.287 1_565 S
C591 C592 1.524 . S
C591 H594 0.999 . S
C592 H562 0.950 . S
C592 C591 1.524 . S
C592 C593 1.415 . S
C593 H563 0.950 . S
C593 C588 1.363 1_565 S
C593 C592 1.415 . S
H594 C591 0.999 . S
H595 C576 0.913 . S
H596 C614 0.951 1_545 S
H597 C616 0.951 . S
H598 C618 0.950 . S
H599 C619 0.950 . S
H600 C621 0.950 . S
H601 C624 0.950 . S
H602 C625 0.950 . S
H603 C627 0.950 . S
H604 C628 0.950 . S
H605 C629 0.951 . S
H606 C631 0.951 . S
H607 C633 0.950 . S
H608 C634 0.950 . S
H609 C636 0.950 . S
H610 C639 0.950 . S
H611 C640 0.950 . S
H612 C642 0.950 . S
H613 C643 0.950 . S
C614 H596 0.951 1_565 S
C614 C615 1.366 . S
C614 C616 1.388 . S
C615 C614 1.366 . S
C615 C619 1.385 . S
C616 H597 0.951 . S
C616 C614 1.388 . S
C616 C617 1.366 . S
C617 C616 1.366 . S
C617 C618 1.414 . S
C617 C620 1.499 . S
C618 H598 0.950 . S
C618 C617 1.414 . S
C618 C619 1.374 . S
C619 H599 0.950 . S
C619 C615 1.385 . S
C619 C618 1.374 . S
C620 C617 1.499 . S
C620 C621 1.373 . S
C620 C622 1.389 . S
C621 H600 0.950 . S
C621 C620 1.373 . S
C621 C637 1.377 . S
C622 C620 1.389 . S
C622 C623 1.524 . S
C622 C636 1.377 . S
C623 C622 1.524 . S
C623 C624 1.397 . S
C623 C628 1.363 1_565 S
C624 H601 0.950 . S
C624 C623 1.397 . S
C624 C625 1.334 1_565 S
C625 H602 0.950 . S
C625 C624 1.334 1_545 S
C625 C626 1.287 . S
C626 C625 1.287 . S
C626 C627 1.524 . S
C626 H645 0.913 . S
C627 H603 0.950 . S
C627 C626 1.524 . S
C627 C628 1.415 . S
C628 H604 0.950 . S
C628 C623 1.363 1_545 S
C628 C627 1.415 . S
C629 H605 0.951 . S
C629 C630 1.366 . S
C629 C631 1.388 . S
C630 C629 1.366 . S
C630 C634 1.385 . S
C631 H606 0.951 . S
C631 C629 1.388 . S
C631 C632 1.366 . S
C632 C631 1.366 . S
C632 C633 1.414 . S
C632 C635 1.499 . S
C633 H607 0.950 . S
C633 C632 1.414 . S
C633 C634 1.374 . S
C634 H608 0.950 . S
C634 C630 1.385 . S
C634 C633 1.374 . S
C635 C632 1.499 . S
C635 C636 1.373 . S
C635 C637 1.389 . S
C636 H609 0.950 . S
C636 C622 1.377 . S
C636 C635 1.373 . S
C637 C621 1.377 . S
C637 C635 1.389 . S
C637 C638 1.524 . S
C638 C637 1.524 . S
C638 C639 1.397 . S
C638 C643 1.363 . S
C639 H610 0.950 . S
C639 C638 1.397 . S
C639 C640 1.334 . S
C640 H611 0.950 . S
C640 C639 1.334 . S
C640 C641 1.287 . S
C641 C640 1.287 . S
C641 C642 1.524 . S
C641 H644 0.999 . S
C642 H612 0.950 . S
C642 C641 1.524 . S
C642 C643 1.415 . S
C643 H613 0.950 . S
C643 C638 1.363 . S
C643 C642 1.415 . S
H644 C641 0.999 . S
H645 C626 0.913 . S
H646 C664 0.951 . S
H647 C666 0.951 . S
H648 C668 0.950 . S
H649 C669 0.950 . S
H650 C671 0.950 . S
H651 C674 0.950 1_545 S
H652 C675 0.950 . S
H653 C677 0.950 . S
H654 C678 0.950 . S
H655 C679 0.951 . S
H656 C681 0.951 . S
H657 C683 0.950 . S
H658 C684 0.950 . S
H659 C686 0.950 . S
H660 C689 0.950 1_565 S
H661 C690 0.950 . S
H662 C692 0.950 . S
H663 C693 0.950 . S
C664 H646 0.951 . S
C664 C665 1.366 . S
C664 C666 1.388 . S
C665 C664 1.366 . S
C665 C669 1.385 . S
C666 H647 0.951 . S
C666 C664 1.388 . S
C666 C667 1.366 . S
C667 C666 1.366 . S
C667 C668 1.414 . S
C667 C670 1.499 . S
C668 H648 0.950 . S
C668 C667 1.414 . S
C668 C669 1.374 . S
C669 H649 0.950 . S
C669 C665 1.385 . S
C669 C668 1.374 . S
C670 C667 1.499 . S
C670 C671 1.373 . S
C670 C672 1.389 1_545 S
C671 H650 0.950 . S
C671 C670 1.373 . S
C671 C687 1.377 . S
C672 C670 1.389 1_565 S
C672 C673 1.524 . S
C672 C686 1.377 . S
C673 C672 1.524 . S
C673 C674 1.397 . S
C673 C678 1.363 . S
C674 H651 0.950 1_565 S
C674 C673 1.397 . S
C674 C675 1.334 . S
C675 H652 0.950 . S
C675 C674 1.334 . S
C675 C676 1.287 . S
C676 C675 1.287 . S
C676 C677 1.524 . S
C676 H695 0.913 . S
C677 H653 0.950 . S
C677 C676 1.524 . S
C677 C678 1.415 . S
C678 H654 0.950 . S
C678 C673 1.363 . S
C678 C677 1.415 . S
C679 H655 0.951 . S
C679 C680 1.366 . S
C679 C681 1.388 . S
C680 C679 1.366 . S
C680 C684 1.385 . S
C681 H656 0.951 . S
C681 C679 1.388 . S
C681 C682 1.366 . S
C682 C681 1.366 . S
C682 C683 1.414 . S
C682 C685 1.499 . S
C683 H657 0.950 . S
C683 C682 1.414 . S
C683 C684 1.374 . S
C684 H658 0.950 . S
C684 C680 1.385 . S
C684 C683 1.374 . S
C685 C682 1.499 . S
C685 C686 1.373 . S
C685 C687 1.389 1_565 S
C686 H659 0.950 . S
C686 C672 1.377 . S
C686 C685 1.373 . S
C687 C671 1.377 . S
C687 C685 1.389 1_545 S
C687 C688 1.524 . S
C688 C687 1.524 . S
C688 C689 1.397 . S
C688 C693 1.363 . S
C689 H660 0.950 1_545 S
C689 C688 1.397 . S
C689 C690 1.334 . S
C690 H661 0.950 . S
C690 C689 1.334 . S
C690 C691 1.287 . S
C691 C690 1.287 . S
C691 C692 1.524 . S
C691 H694 0.999 . S
C692 H662 0.950 . S
C692 C691 1.524 . S
C692 C693 1.415 . S
C693 H663 0.950 . S
C693 C688 1.363 . S
C693 C692 1.415 . S
H694 C691 0.999 . S
H695 C676 0.913 . S
H696 C714 0.951 . S
H697 C716 0.951 . S
H698 C718 0.950 . S
H699 C719 0.950 . S
H700 C721 0.950 . S
H701 C724 0.950 . S
H702 C725 0.950 . S
H703 C727 0.950 . S
H704 C728 0.950 . S
H705 C729 0.951 . S
H706 C731 0.951 . S
H707 C733 0.950 . S
H708 C734 0.950 . S
H709 C736 0.950 . S
H710 C739 0.950 . S
H711 C740 0.950 . S
H712 C742 0.950 . S
H713 C743 0.950 . S
C714 H696 0.951 . S
C714 C715 1.366 . S
C714 C716 1.388 . S
C715 C714 1.366 . S
C715 C719 1.385 . S
C716 H697 0.951 . S
C716 C714 1.388 . S
C716 C717 1.366 . S
C717 C716 1.366 . S
C717 C718 1.414 . S
C717 C720 1.499 . S
C718 H698 0.950 . S
C718 C717 1.414 . S
C718 C719 1.374 . S
C719 H699 0.950 . S
C719 C715 1.385 . S
C719 C718 1.374 . S
C720 C717 1.499 . S
C720 C721 1.373 . S
C720 C722 1.389 . S
C721 H700 0.950 . S
C721 C720 1.373 . S
C721 C737 1.377 . S
C722 C720 1.389 . S
C722 C723 1.524 . S
C722 C736 1.377 . S
C723 C722 1.524 . S
C723 C724 1.397 . S
C723 C728 1.363 . S
C724 H701 0.950 . S
C724 C723 1.397 . S
C724 C725 1.334 . S
C725 H702 0.950 . S
C725 C724 1.334 . S
C725 C726 1.287 . S
C726 C725 1.287 . S
C726 C727 1.524 . S
C726 H745 0.913 . S
C727 H703 0.950 . S
C727 C726 1.524 . S
C727 C728 1.415 . S
C728 H704 0.950 . S
C728 C723 1.363 . S
C728 C727 1.415 . S
C729 H705 0.951 . S
C729 C730 1.366 . S
C729 C731 1.388 . S
C730 C729 1.366 . S
C730 C734 1.385 . S
C731 H706 0.951 . S
C731 C729 1.388 . S
C731 C732 1.366 . S
C732 C731 1.366 . S
C732 C733 1.414 . S
C732 C735 1.499 . S
C733 H707 0.950 . S
C733 C732 1.414 . S
C733 C734 1.374 . S
C734 H708 0.950 . S
C734 C730 1.385 . S
C734 C733 1.374 . S
C735 C732 1.499 . S
C735 C736 1.373 . S
C735 C737 1.389 . S
C736 H709 0.950 . S
C736 C722 1.377 . S
C736 C735 1.373 . S
C737 C721 1.377 . S
C737 C735 1.389 . S
C737 C738 1.524 . S
C738 C737 1.524 . S
C738 C739 1.397 . S
C738 C743 1.363 . S
C739 H710 0.950 . S
C739 C738 1.397 . S
C739 C740 1.334 . S
C740 H711 0.950 . S
C740 C739 1.334 . S
C740 C741 1.287 . S
C741 C740 1.287 . S
C741 C742 1.524 . S
C741 H744 0.999 . S
C742 H712 0.950 . S
C742 C741 1.524 . S
C742 C743 1.415 . S
C743 H713 0.950 . S
C743 C738 1.363 . S
C743 C742 1.415 . S
H744 C741 0.999 . S
H745 C726 0.913 . S
H746 C764 0.951 . S
H747 C766 0.951 . S
H748 C768 0.950 . S
H749 C769 0.950 . S
H750 C771 0.950 . S
H751 C774 0.950 . S
H752 C775 0.950 . S
H753 C777 0.950 . S
H754 C778 0.950 . S
H755 C779 0.951 . S
H756 C781 0.951 . S
H757 C783 0.950 . S
H758 C784 0.950 . S
H759 C786 0.950 . S
H760 C789 0.950 . S
H761 C790 0.950 . S
H762 C792 0.950 . S
H763 C793 0.950 . S
C764 H746 0.951 . S
C764 C765 1.366 . S
C764 C766 1.388 . S
C765 C764 1.366 . S
C765 C769 1.385 . S
C766 H747 0.951 . S
C766 C764 1.388 . S
C766 C767 1.366 . S
C767 C766 1.366 . S
C767 C768 1.414 . S
C767 C770 1.499 . S
C768 H748 0.950 . S
C768 C767 1.414 . S
C768 C769 1.374 . S
C769 H749 0.950 . S
C769 C765 1.385 . S
C769 C768 1.374 . S
C770 C767 1.499 . S
C770 C771 1.373 1_545 S
C770 C772 1.389 . S
C771 H750 0.950 . S
C771 C770 1.373 1_565 S
C771 C787 1.377 . S
C772 C770 1.389 . S
C772 C773 1.524 . S
C772 C786 1.377 . S
C773 C772 1.524 . S
C773 C774 1.397 . S
C773 C778 1.363 . S
C774 H751 0.950 . S
C774 C773 1.397 . S
C774 C775 1.334 . S
C775 H752 0.950 . S
C775 C774 1.334 . S
C775 C776 1.287 . S
C776 C775 1.287 . S
C776 C777 1.524 . S
C776 H795 0.913 . S
C777 H753 0.950 . S
C777 C776 1.524 . S
C777 C778 1.415 . S
C778 H754 0.950 . S
C778 C773 1.363 . S
C778 C777 1.415 . S
C779 H755 0.951 . S
C779 C780 1.366 . S
C779 C781 1.388 . S
C780 C779 1.366 . S
C780 C784 1.385 . S
C781 H756 0.951 . S
C781 C779 1.388 . S
C781 C782 1.366 . S
C782 C781 1.366 . S
C782 C783 1.414 . S
C782 C785 1.499 . S
C783 H757 0.950 . S
C783 C782 1.414 . S
C783 C784 1.374 . S
C784 H758 0.950 . S
C784 C780 1.385 . S
C784 C783 1.374 . S
C785 C782 1.499 . S
C785 C786 1.373 1_565 S
C785 C787 1.389 . S
C786 H759 0.950 . S
C786 C772 1.377 . S
C786 C785 1.373 1_545 S
C787 C771 1.377 . S
C787 C785 1.389 . S
C787 C788 1.524 . S
C788 C787 1.524 . S
C788 C789 1.397 . S
C788 C793 1.363 . S
C789 H760 0.950 . S
C789 C788 1.397 . S
C789 C790 1.334 . S
C790 H761 0.950 . S
C790 C789 1.334 . S
C790 C791 1.287 . S
C791 C790 1.287 . S
C791 C792 1.524 . S
C791 H794 0.999 . S
C792 H762 0.950 . S
C792 C791 1.524 . S
C792 C793 1.415 . S
C793 H763 0.950 . S
C793 C788 1.363 . S
C793 C792 1.415 . S
H794 C791 0.999 . S
H795 C776 0.913 . S
H796 C814 0.951 . S
H797 C816 0.951 . S
H798 C818 0.950 . S
H799 C819 0.950 . S
H800 C821 0.950 . S
H801 C824 0.950 . S
H802 C825 0.950 . S
H803 C827 0.950 . S
H804 C828 0.950 . S
H805 C829 0.951 . S
H806 C831 0.951 . S
H807 C833 0.950 . S
H808 C834 0.950 . S
H809 C836 0.950 . S
H810 C839 0.950 . S
H811 C840 0.944 1_545 S
H812 C842 0.957 . S
H813 C843 0.950 . S
C814 H796 0.951 . S
C814 C815 1.366 . S
C814 C816 1.388 . S
C815 C814 1.366 . S
C815 C819 1.385 . S
C816 H797 0.951 . S
C816 C814 1.388 . S
C816 C817 1.366 . S
C817 C816 1.366 . S
C817 C818 1.414 . S
C817 C820 1.499 . S
C818 H798 0.950 . S
C818 C817 1.414 . S
C818 C819 1.374 . S
C819 H799 0.950 . S
C819 C815 1.385 . S
C819 C818 1.374 . S
C820 C817 1.499 . S
C820 C821 1.373 . S
C820 C822 1.389 . S
C821 H800 0.950 . S
C821 C820 1.373 . S
C821 C837 1.377 . S
C822 C820 1.389 . S
C822 C823 1.524 . S
C822 C836 1.377 . S
C823 C822 1.524 . S
C823 C824 1.397 . S
C823 C828 1.363 . S
C824 H801 0.950 . S
C824 C823 1.397 . S
C824 C825 1.334 . S
C825 H802 0.950 . S
C825 C824 1.334 . S
C825 C826 1.287 . S
C826 C825 1.287 . S
C826 C827 1.524 . S
C826 H845 0.913 . S
C827 H803 0.950 . S
C827 C826 1.524 . S
C827 C828 1.415 . S
C828 H804 0.950 . S
C828 C823 1.363 . S
C828 C827 1.415 . S
C829 H805 0.951 . S
C829 C830 1.366 . S
C829 C831 1.388 . S
C830 C829 1.366 . S
C830 C834 1.385 . S
C831 H806 0.951 . S
C831 C829 1.388 . S
C831 C832 1.366 . S
C832 C831 1.366 . S
C832 C833 1.414 . S
C832 C835 1.499 . S
C833 H807 0.950 . S
C833 C832 1.414 . S
C833 C834 1.374 . S
C834 H808 0.950 . S
C834 C830 1.385 . S
C834 C833 1.374 . S
C835 C832 1.499 . S
C835 C836 1.373 . S
C835 C837 1.389 . S
C836 H809 0.950 . S
C836 C822 1.377 . S
C836 C835 1.373 . S
C837 C821 1.377 . S
C837 C835 1.389 . S
C837 C838 1.524 . S
C838 C837 1.524 . S
C838 C839 1.397 . S
C838 C843 1.363 . S
C839 H810 0.950 . S
C839 C838 1.397 . S
C839 C840 1.349 . S
C840 H811 0.944 1_565 S
C840 C839 1.349 . S
C840 C841 1.279 1_565 S
C841 C840 1.279 1_545 S
C841 C842 1.530 . S
C841 H844 0.999 . S
C842 H812 0.957 . S
C842 C841 1.530 . S
C842 C843 1.402 1_545 S
C843 H813 0.950 . S
C843 C838 1.363 . S
C843 C842 1.402 1_565 S
H844 C841 0.999 . S
H845 C826 0.913 . S
H846 C864 0.951 . S
H847 C866 0.951 . S
H848 C868 0.950 . S
H849 C869 0.950 . S
H850 C871 0.950 . S
H851 C874 0.950 1_565 S
H852 C875 0.950 1_565 S
H853 C877 0.950 . S
H854 C878 0.950 . S
H855 C879 0.951 . S
H856 C881 0.951 . S
H857 C883 0.950 . S
H858 C884 0.950 . S
H859 C886 0.950 . S
H860 C889 0.950 . S
H861 C890 0.950 . S
H862 C892 0.950 . S
H863 C893 0.950 . S
C864 H846 0.951 . S
C864 C865 1.366 . S
C864 C866 1.388 . S
C865 C864 1.366 . S
C865 C869 1.385 . S
C866 H847 0.951 . S
C866 C864 1.388 . S
C866 C867 1.366 . S
C867 C866 1.366 . S
C867 C868 1.414 . S
C867 C870 1.499 . S
C868 H848 0.950 . S
C868 C867 1.414 . S
C868 C869 1.374 . S
C869 H849 0.950 . S
C869 C865 1.385 . S
C869 C868 1.374 . S
C870 C867 1.499 . S
C870 C871 1.373 . S
C870 C872 1.389 1_565 S
C871 H850 0.950 . S
C871 C870 1.373 . S
C871 C887 1.377 1_565 S
C872 C870 1.389 1_545 S
C872 C873 1.524 . S
C872 C886 1.377 . S
C873 C872 1.524 . S
C873 C874 1.397 . S
C873 C878 1.363 . S
C874 H851 0.950 1_545 S
C874 C873 1.397 . S
C874 C875 1.334 . S
C875 H852 0.950 1_545 S
C875 C874 1.334 . S
C875 C876 1.287 . S
C876 C875 1.287 . S
C876 C877 1.524 . S
C876 H895 0.913 . S
C877 H853 0.950 . S
C877 C876 1.524 . S
C877 C878 1.415 . S
C878 H854 0.950 . S
C878 C873 1.363 . S
C878 C877 1.415 . S
C879 H855 0.951 . S
C879 C880 1.366 . S
C879 C881 1.388 . S
C880 C879 1.366 . S
C880 C884 1.385 . S
C881 H856 0.951 . S
C881 C879 1.388 . S
C881 C882 1.366 . S
C882 C881 1.366 . S
C882 C883 1.414 . S
C882 C885 1.499 . S
C883 H857 0.950 . S
C883 C882 1.414 . S
C883 C884 1.374 . S
C884 H858 0.950 . S
C884 C880 1.385 . S
C884 C883 1.374 . S
C885 C882 1.499 . S
C885 C886 1.373 . S
C885 C887 1.389 . S
C886 H859 0.950 . S
C886 C872 1.377 . S
C886 C885 1.373 . S
C887 C871 1.377 1_545 S
C887 C885 1.389 . S
C887 C888 1.524 . S
C888 C887 1.524 . S
C888 C889 1.397 . S
C888 C893 1.363 1_545 S
C889 H860 0.950 . S
C889 C888 1.397 . S
C889 C890 1.334 . S
C890 H861 0.950 . S
C890 C889 1.334 . S
C890 C891 1.287 . S
C891 C890 1.287 . S
C891 C892 1.524 1_545 S
C891 H894 1.002 . S
C892 H862 0.950 . S
C892 C891 1.524 1_565 S
C892 C893 1.415 . S
C893 H863 0.950 . S
C893 C888 1.363 1_565 S
C893 C892 1.415 . S
H894 C891 1.002 . S
H895 C876 0.913 . S
H896 C914 0.951 . S
H897 C916 0.951 . S
H898 C918 0.950 . S
H899 C919 0.950 1_545 S
H900 C921 0.950 . S
H901 C924 0.950 . S
H902 C925 0.950 . S
H903 C927 0.950 . S
H904 C928 0.950 . S
H905 C929 0.951 . S
H906 C931 0.951 . S
H907 C933 0.950 . S
H908 C934 0.950 . S
H909 C936 0.950 . S
H910 C939 0.950 . S
H911 C940 0.950 . S
H912 C942 0.950 . S
H913 C943 0.950 . S
C914 H896 0.951 . S
C914 C915 1.366 . S
C914 C916 1.388 . S
C915 C914 1.366 . S
C915 C919 1.385 . S
C916 H897 0.951 . S
C916 C914 1.388 . S
C916 C917 1.366 . S
C917 C916 1.366 . S
C917 C918 1.414 . S
C917 C920 1.499 . S
C918 H898 0.950 . S
C918 C917 1.414 . S
C918 C919 1.374 . S
C919 H899 0.950 1_565 S
C919 C915 1.385 . S
C919 C918 1.374 . S
C920 C917 1.499 . S
C920 C921 1.373 . S
C920 C922 1.389 . S
C921 H900 0.950 . S
C921 C920 1.373 . S
C921 C937 1.377 . S
C922 C920 1.389 . S
C922 C923 1.524 . S
C922 C936 1.377 . S
C923 C922 1.524 . S
C923 C924 1.397 . S
C923 C928 1.363 . S
C924 H901 0.950 . S
C924 C923 1.397 . S
C924 C925 1.334 . S
C925 H902 0.950 . S
C925 C924 1.334 . S
C925 C926 1.287 . S
C926 C925 1.287 . S
C926 C927 1.524 . S
C926 H945 0.913 . S
C927 H903 0.950 . S
C927 C926 1.524 . S
C927 C928 1.415 . S
C928 H904 0.950 . S
C928 C923 1.363 . S
C928 C927 1.415 . S
C929 H905 0.951 . S
C929 C930 1.366 . S
C929 C931 1.388 . S
C930 C929 1.366 . S
C930 C934 1.385 . S
C931 H906 0.951 . S
C931 C929 1.388 . S
C931 C932 1.366 . S
C932 C931 1.366 . S
C932 C933 1.414 . S
C932 C935 1.499 . S
C933 H907 0.950 . S
C933 C932 1.414 . S
C933 C934 1.374 . S
C934 H908 0.950 . S
C934 C930 1.385 . S
C934 C933 1.374 . S
C935 C932 1.499 . S
C935 C936 1.373 . S
C935 C937 1.389 . S
C936 H909 0.950 . S
C936 C922 1.377 . S
C936 C935 1.373 . S
C937 C921 1.377 . S
C937 C935 1.389 . S
C937 C938 1.524 . S
C938 C937 1.524 . S
C938 C939 1.397 . S
C938 C943 1.363 1_565 S
C939 H910 0.950 . S
C939 C938 1.397 . S
C939 C940 1.334 . S
C940 H911 0.950 . S
C940 C939 1.334 . S
C940 C941 1.287 1_565 S
C941 C940 1.287 1_545 S
C941 C942 1.524 . S
C941 H944 0.999 . S
C942 H912 0.950 . S
C942 C941 1.524 . S
C942 C943 1.415 . S
C943 H913 0.950 . S
C943 C938 1.363 1_545 S
C943 C942 1.415 . S
H944 C941 0.999 . S
H945 C926 0.913 . S
H946 C964 0.951 . S
H947 C966 0.951 . S
H948 C968 0.950 . S
H949 C969 0.950 . S
H950 C971 0.950 . S
H951 C974 0.950 . S
H952 C975 0.950 . S
H953 C977 0.950 . S
H954 C978 0.950 . S
H955 C979 0.951 . S
H956 C981 0.951 . S
H957 C983 0.950 . S
H958 C984 0.950 . S
H959 C986 0.950 . S
H960 C989 0.949 . S
H961 C990 0.950 . S
H962 C992 0.950 . S
H963 C993 0.950 . S
C964 H946 0.951 . S
C964 C965 1.366 . S
C964 C966 1.388 . S
C965 C964 1.366 . S
C965 C969 1.385 . S
C966 H947 0.951 . S
C966 C964 1.388 . S
C966 C967 1.366 . S
C967 C966 1.366 . S
C967 C968 1.414 . S
C967 C970 1.499 . S
C968 H948 0.950 . S
C968 C967 1.414 . S
C968 C969 1.374 . S
C969 H949 0.950 . S
C969 C965 1.385 . S
C969 C968 1.374 . S
C970 C967 1.499 . S
C970 C971 1.373 . S
C970 C972 1.389 1_545 S
C971 H950 0.950 . S
C971 C970 1.373 . S
C971 C987 1.377 1_545 S
C972 C970 1.389 1_565 S
C972 C973 1.524 . S
C972 C986 1.377 . S
C973 C972 1.524 . S
C973 C974 1.397 . S
C973 C978 1.363 . S
C974 H951 0.950 . S
C974 C973 1.397 . S
C974 C975 1.334 . S
C975 H952 0.950 . S
C975 C974 1.334 . S
C975 C976 1.287 . S
C976 C975 1.287 . S
C976 C977 1.524 . S
C976 H995 0.913 . S
C977 H953 0.950 . S
C977 C976 1.524 . S
C977 C978 1.415 . S
C978 H954 0.950 . S
C978 C973 1.363 . S
C978 C977 1.415 . S
C979 H955 0.951 . S
C979 C980 1.366 . S
C979 C981 1.388 . S
C980 C979 1.366 . S
C980 C984 1.385 . S
C981 H956 0.951 . S
C981 C979 1.388 . S
C981 C982 1.366 . S
C982 C981 1.366 . S
C982 C983 1.414 . S
C982 C985 1.499 . S
C983 H957 0.950 . S
C983 C982 1.414 . S
C983 C984 1.374 . S
C984 H958 0.950 . S
C984 C980 1.385 . S
C984 C983 1.374 . S
C985 C982 1.499 . S
C985 C986 1.373 . S
C985 C987 1.389 . S
C986 H959 0.950 . S
C986 C972 1.377 . S
C986 C985 1.373 . S
C987 C971 1.377 1_565 S
C987 C985 1.389 . S
C987 C988 1.524 1_565 S
C988 C987 1.524 1_545 S
C988 C989 1.397 1_545 S
C988 C993 1.363 . S
C989 H960 0.949 . S
C989 C988 1.397 1_565 S
C989 C990 1.334 1_565 S
C990 H961 0.950 . S
C990 C989 1.334 1_545 S
C990 C991 1.287 1_655 S
C991 C990 1.287 1_455 S
C991 C992 1.524 . S
C991 H994 0.999 . S
C992 H962 0.950 . S
C992 C991 1.524 . S
C992 C993 1.415 1_455 S
C993 H963 0.950 . S
C993 C988 1.363 . S
C993 C992 1.415 1_655 S
H994 C991 0.999 . S
H995 C976 0.913 . S
H996 C1014 0.951 1_565 S
H997 C1016 0.951 . S
H998 C1018 0.950 . S
H999 C1019 0.950 1_554 S
H1000 C1021 0.950 . S
H1001 C1024 0.950 . S
H1002 C1025 0.950 1_554 S
H1003 C1027 0.950 . S
H1004 C1028 0.950 . S
H1005 C1029 0.951 . S
H1006 C1031 0.951 . S
H1007 C1033 0.950 . S
H1008 C1034 0.950 . S
H1009 C1036 0.950 . S
H1010 C1039 0.950 . S
H1011 C1040 0.950 . S
H1012 C1042 0.950 . S
H1013 C1043 0.950 . S
C1014 H996 0.951 1_545 S
C1014 C1015 1.366 . S
C1014 C1016 1.388 . S
C1015 C1014 1.366 . S
C1015 C1019 1.385 . S
C1016 H997 0.951 . S
C1016 C1014 1.388 . S
C1016 C1017 1.366 . S
C1017 C1016 1.366 . S
C1017 C1018 1.414 . S
C1017 C1020 1.499 . S
C1018 H998 0.950 . S
C1018 C1017 1.414 . S
C1018 C1019 1.374 . S
C1019 H999 0.950 1_556 S
C1019 C1015 1.385 . S
C1019 C1018 1.374 . S
C1020 C1017 1.499 . S
C1020 C1021 1.373 . S
C1020 C1022 1.389 . S
C1021 H1000 0.950 . S
C1021 C1020 1.373 . S
C1021 C1037 1.377 . S
C1022 C1020 1.389 . S
C1022 C1023 1.524 . S
C1022 C1036 1.377 . S
C1023 C1022 1.524 . S
C1023 C1024 1.397 . S
C1023 C1028 1.363 1_545 S
C1024 H1001 0.950 . S
C1024 C1023 1.397 . S
C1024 C1025 1.334 1_545 S
C1025 H1002 0.950 1_556 S
C1025 C1024 1.334 1_565 S
C1025 C1026 1.287 . S
C1026 C1025 1.287 . S
C1026 C1027 1.524 . S
C1026 H1045 0.913 . S
C1027 H1003 0.950 . S
C1027 C1026 1.524 . S
C1027 C1028 1.415 . S
C1028 H1004 0.950 . S
C1028 C1023 1.363 1_565 S
C1028 C1027 1.415 . S
C1029 H1005 0.951 . S
C1029 C1030 1.366 . S
C1029 C1031 1.388 . S
C1030 C1029 1.366 . S
C1030 C1034 1.385 . S
C1031 H1006 0.951 . S
C1031 C1029 1.388 . S
C1031 C1032 1.366 . S
C1032 C1031 1.366 . S
C1032 C1033 1.414 . S
C1032 C1035 1.499 . S
C1033 H1007 0.950 . S
C1033 C1032 1.414 . S
C1033 C1034 1.374 . S
C1034 H1008 0.950 . S
C1034 C1030 1.385 . S
C1034 C1033 1.374 . S
C1035 C1032 1.499 . S
C1035 C1036 1.373 . S
C1035 C1037 1.389 . S
C1036 H1009 0.950 . S
C1036 C1022 1.377 . S
C1036 C1035 1.373 . S
C1037 C1021 1.377 . S
C1037 C1035 1.389 . S
C1037 C1038 1.524 . S
C1038 C1037 1.524 . S
C1038 C1039 1.397 . S
C1038 C1043 1.363 . S
C1039 H1010 0.950 . S
C1039 C1038 1.397 . S
C1039 C1040 1.334 . S
C1040 H1011 0.950 . S
C1040 C1039 1.334 . S
C1040 C1041 1.287 . S
C1041 C1040 1.287 . S
C1041 C1042 1.524 . S
C1041 H1044 0.999 . S
C1042 H1012 0.950 . S
C1042 C1041 1.524 . S
C1042 C1043 1.415 . S
C1043 H1013 0.950 . S
C1043 C1038 1.363 . S
C1043 C1042 1.415 . S
H1044 C1041 0.999 . S
H1045 C1026 0.913 . S
H1046 C1064 0.951 . S
H1047 C1066 0.951 . S
H1048 C1068 0.950 . S
H1049 C1069 0.950 . S
H1050 C1071 0.950 . S
H1051 C1074 0.950 . S
H1052 C1075 0.950 . S
H1053 C1077 0.950 . S
H1054 C1078 0.950 . S
H1055 C1079 0.951 . S
H1056 C1081 0.951 . S
H1057 C1083 0.950 . S
H1058 C1084 0.950 . S
H1059 C1086 0.950 . S
H1060 C1089 0.950 . S
H1061 C1090 0.950 . S
H1062 C1092 0.950 . S
H1063 C1093 0.950 . S
C1064 H1046 0.951 . S
C1064 C1065 1.366 . S
C1064 C1066 1.388 . S
C1065 C1064 1.366 . S
C1065 C1069 1.385 . S
C1066 H1047 0.951 . S
C1066 C1064 1.388 . S
C1066 C1067 1.366 . S
C1067 C1066 1.366 . S
C1067 C1068 1.414 . S
C1067 C1070 1.499 . S
C1068 H1048 0.950 . S
C1068 C1067 1.414 . S
C1068 C1069 1.374 . S
C1069 H1049 0.950 . S
C1069 C1065 1.385 . S
C1069 C1068 1.374 . S
C1070 C1067 1.499 . S
C1070 C1071 1.373 . S
C1070 C1072 1.389 1_565 S
C1071 H1050 0.950 . S
C1071 C1070 1.373 . S
C1071 C1087 1.377 1_565 S
C1072 C1070 1.389 1_545 S
C1072 C1073 1.524 . S
C1072 C1086 1.377 . S
C1073 C1072 1.524 . S
C1073 C1074 1.397 . S
C1073 C1078 1.363 . S
C1074 H1051 0.950 . S
C1074 C1073 1.397 . S
C1074 C1075 1.334 . S
C1075 H1052 0.950 . S
C1075 C1074 1.334 . S
C1075 C1076 1.287 . S
C1076 C1075 1.287 . S
C1076 C1077 1.524 . S
C1076 H1095 0.913 . S
C1077 H1053 0.950 . S
C1077 C1076 1.524 . S
C1077 C1078 1.415 . S
C1078 H1054 0.950 . S
C1078 C1073 1.363 . S
C1078 C1077 1.415 . S
C1079 H1055 0.951 . S
C1079 C1080 1.366 . S
C1079 C1081 1.388 . S
C1080 C1079 1.366 . S
C1080 C1084 1.385 . S
C1081 H1056 0.951 . S
C1081 C1079 1.388 . S
C1081 C1082 1.366 . S
C1082 C1081 1.366 . S
C1082 C1083 1.414 . S
C1082 C1085 1.499 . S
C1083 H1057 0.950 . S
C1083 C1082 1.414 . S
C1083 C1084 1.374 . S
C1084 H1058 0.950 . S
C1084 C1080 1.385 . S
C1084 C1083 1.374 . S
C1085 C1082 1.499 . S
C1085 C1086 1.373 . S
C1085 C1087 1.389 . S
C1086 H1059 0.950 . S
C1086 C1072 1.377 . S
C1086 C1085 1.373 . S
C1087 C1071 1.377 1_545 S
C1087 C1085 1.389 . S
C1087 C1088 1.524 . S
C1088 C1087 1.524 . S
C1088 C1089 1.397 . S
C1088 C1093 1.363 1_545 S
C1089 H1060 0.950 . S
C1089 C1088 1.397 . S
C1089 C1090 1.334 . S
C1090 H1061 0.950 . S
C1090 C1089 1.334 . S
C1090 C1091 1.287 1_545 S
C1091 C1090 1.287 1_565 S
C1091 C1092 1.524 . S
C1091 H1094 0.999 . S
C1092 H1062 0.950 . S
C1092 C1091 1.524 . S
C1092 C1093 1.415 . S
C1093 H1063 0.950 . S
C1093 C1088 1.363 1_565 S
C1093 C1092 1.415 . S
H1094 C1091 0.999 . S
H1095 C1076 0.913 . S
H1096 C1114 0.951 1_554 S
H1097 C1116 0.951 . S
H1098 C1118 0.950 . S
H1099 C1119 0.950 . S
H1100 C1121 0.950 . S
H1101 C1124 0.950 . S
H1102 C1125 0.950 . S
H1103 C1127 0.950 . S
H1104 C1128 0.950 . S
H1105 C1129 0.951 . S
H1106 C1131 0.951 . S
H1107 C1133 0.950 . S
H1108 C1134 0.950 . S
H1109 C1136 0.950 . S
H1110 C1139 0.950 . S
H1111 C1140 0.950 . S
H1112 C1142 0.950 . S
H1113 C1143 0.950 . S
C1114 H1096 0.951 1_556 S
C1114 C1115 1.366 . S
C1114 C1116 1.388 . S
C1115 C1114 1.366 . S
C1115 C1119 1.385 . S
C1116 H1097 0.951 . S
C1116 C1114 1.388 . S
C1116 C1117 1.366 . S
C1117 C1116 1.366 . S
C1117 C1118 1.414 . S
C1117 C1120 1.499 . S
C1118 H1098 0.950 . S
C1118 C1117 1.414 . S
C1118 C1119 1.374 . S
C1119 H1099 0.950 . S
C1119 C1115 1.385 . S
C1119 C1118 1.374 . S
C1120 C1117 1.499 . S
C1120 C1121 1.373 . S
C1120 C1122 1.389 . S
C1121 H1100 0.950 . S
C1121 C1120 1.373 . S
C1121 C1137 1.377 . S
C1122 C1120 1.389 . S
C1122 C1123 1.524 . S
C1122 C1136 1.377 . S
C1123 C1122 1.524 . S
C1123 C1124 1.397 . S
C1123 C1128 1.363 . S
C1124 H1101 0.950 . S
C1124 C1123 1.397 . S
C1124 C1125 1.334 . S
C1125 H1102 0.950 . S
C1125 C1124 1.334 . S
C1125 C1126 1.287 . S
C1126 C1125 1.287 . S
C1126 C1127 1.524 . S
C1126 H1145 0.913 . S
C1127 H1103 0.950 . S
C1127 C1126 1.524 . S
C1127 C1128 1.415 . S
C1128 H1104 0.950 . S
C1128 C1123 1.363 . S
C1128 C1127 1.415 . S
C1129 H1105 0.951 . S
C1129 C1130 1.366 . S
C1129 C1131 1.388 . S
C1130 C1129 1.366 . S
C1130 C1134 1.385 . S
C1131 H1106 0.951 . S
C1131 C1129 1.388 . S
C1131 C1132 1.366 . S
C1132 C1131 1.366 . S
C1132 C1133 1.414 . S
C1132 C1135 1.499 . S
C1133 H1107 0.950 . S
C1133 C1132 1.414 . S
C1133 C1134 1.374 . S
C1134 H1108 0.950 . S
C1134 C1130 1.385 . S
C1134 C1133 1.374 . S
C1135 C1132 1.499 . S
C1135 C1136 1.373 . S
C1135 C1137 1.389 . S
C1136 H1109 0.950 . S
C1136 C1122 1.377 . S
C1136 C1135 1.373 . S
C1137 C1121 1.377 . S
C1137 C1135 1.389 . S
C1137 C1138 1.524 . S
C1138 C1137 1.524 . S
C1138 C1139 1.397 . S
C1138 C1143 1.363 . S
C1139 H1110 0.950 . S
C1139 C1138 1.397 . S
C1139 C1140 1.334 . S
C1140 H1111 0.950 . S
C1140 C1139 1.334 . S
C1140 C1141 1.287 . S
C1141 C1140 1.287 . S
C1141 C1142 1.524 . S
C1141 H1144 0.999 . S
C1142 H1112 0.950 . S
C1142 C1141 1.524 . S
C1142 C1143 1.415 . S
C1143 H1113 0.950 . S
C1143 C1138 1.363 . S
C1143 C1142 1.415 . S
H1144 C1141 0.999 . S
H1145 C1126 0.913 . S
H1146 C1164 0.951 . S
H1147 C1166 0.951 . S
H1148 C1168 0.950 . S
H1149 C1169 0.950 . S
H1150 C1171 0.950 . S
H1151 C1174 0.950 . S
H1152 C1175 0.950 . S
H1153 C1177 0.950 . S
H1154 C1178 0.950 . S
H1155 C1179 0.951 . S
H1156 C1181 0.951 . S
H1157 C1183 0.950 . S
H1158 C1184 0.950 . S
H1159 C1186 0.950 . S
H1160 C1189 0.950 . S
H1161 C1190 0.950 . S
H1162 C1192 0.950 . S
H1163 C1193 0.950 . S
C1164 H1146 0.951 . S
C1164 C1165 1.366 . S
C1164 C1166 1.388 . S
C1165 C1164 1.366 . S
C1165 C1169 1.385 . S
C1166 H1147 0.951 . S
C1166 C1164 1.388 . S
C1166 C1167 1.366 . S
C1167 C1166 1.366 . S
C1167 C1168 1.414 . S
C1167 C1170 1.499 . S
C1168 H1148 0.950 . S
C1168 C1167 1.414 . S
C1168 C1169 1.374 . S
C1169 H1149 0.950 . S
C1169 C1165 1.385 . S
C1169 C1168 1.374 . S
C1170 C1167 1.499 . S
C1170 C1171 1.373 . S
C1170 C1172 1.389 . S
C1171 H1150 0.950 . S
C1171 C1170 1.373 . S
C1171 C1187 1.377 . S
C1172 C1170 1.389 . S
C1172 C1173 1.524 . S
C1172 C1186 1.377 . S
C1173 C1172 1.524 . S
C1173 C1174 1.397 . S
C1173 C1178 1.363 . S
C1174 H1151 0.950 . S
C1174 C1173 1.397 . S
C1174 C1175 1.334 . S
C1175 H1152 0.950 . S
C1175 C1174 1.334 . S
C1175 C1176 1.287 . S
C1176 C1175 1.287 . S
C1176 C1177 1.524 . S
C1176 H1195 0.913 . S
C1177 H1153 0.950 . S
C1177 C1176 1.524 . S
C1177 C1178 1.415 . S
C1178 H1154 0.950 . S
C1178 C1173 1.363 . S
C1178 C1177 1.415 . S
C1179 H1155 0.951 . S
C1179 C1180 1.366 . S
C1179 C1181 1.388 . S
C1180 C1179 1.366 . S
C1180 C1184 1.385 . S
C1181 H1156 0.951 . S
C1181 C1179 1.388 . S
C1181 C1182 1.366 . S
C1182 C1181 1.366 . S
C1182 C1183 1.414 . S
C1182 C1185 1.499 . S
C1183 H1157 0.950 . S
C1183 C1182 1.414 . S
C1183 C1184 1.374 . S
C1184 H1158 0.950 . S
C1184 C1180 1.385 . S
C1184 C1183 1.374 . S
C1185 C1182 1.499 . S
C1185 C1186 1.373 . S
C1185 C1187 1.389 . S
C1186 H1159 0.950 . S
C1186 C1172 1.377 . S
C1186 C1185 1.373 . S
C1187 C1171 1.377 . S
C1187 C1185 1.389 . S
C1187 C1188 1.524 . S
C1188 C1187 1.524 . S
C1188 C1189 1.397 . S
C1188 C1193 1.363 . S
C1189 H1160 0.950 . S
C1189 C1188 1.397 . S
C1189 C1190 1.334 . S
C1190 H1161 0.950 . S
C1190 C1189 1.334 . S
C1190 C1191 1.287 1_655 S
C1191 C1190 1.287 1_455 S
C1191 C1192 1.524 . S
C1191 H1194 0.999 . S
C1192 H1162 0.950 . S
C1192 C1191 1.524 . S
C1192 C1193 1.415 1_455 S
C1193 H1163 0.950 . S
C1193 C1188 1.363 . S
C1193 C1192 1.415 1_655 S
H1194 C1191 0.999 . S
H1195 C1176 0.913 . S
H1196 C1214 0.951 . S
H1197 C1216 0.951 . S
H1198 C1218 0.950 . S
H1199 C1219 0.950 . S
H1200 C1221 0.950 . S
H1201 C1224 0.950 . S
H1202 C1225 0.950 . S
H1203 C1227 0.950 . S
H1204 C1228 0.950 . S
H1205 C1229 0.951 . S
H1206 C1231 0.951 . S
H1207 C1233 0.950 . S
H1208 C1234 0.950 . S
H1209 C1236 0.950 . S
H1210 C1239 0.950 . S
H1211 C1240 0.950 . S
H1212 C1242 0.950 . S
H1213 C1243 0.950 . S
C1214 H1196 0.951 . S
C1214 C1215 1.366 . S
C1214 C1216 1.388 . S
C1215 C1214 1.366 . S
C1215 C1219 1.385 . S
C1216 H1197 0.951 . S
C1216 C1214 1.388 . S
C1216 C1217 1.366 . S
C1217 C1216 1.366 . S
C1217 C1218 1.414 . S
C1217 C1220 1.499 . S
C1218 H1198 0.950 . S
C1218 C1217 1.414 . S
C1218 C1219 1.374 . S
C1219 H1199 0.950 . S
C1219 C1215 1.385 . S
C1219 C1218 1.374 . S
C1220 C1217 1.499 . S
C1220 C1221 1.373 . S
C1220 C1222 1.389 . S
C1221 H1200 0.950 . S
C1221 C1220 1.373 . S
C1221 C1237 1.377 . S
C1222 C1220 1.389 . S
C1222 C1223 1.524 . S
C1222 C1236 1.377 . S
C1223 C1222 1.524 . S
C1223 C1224 1.397 . S
C1223 C1228 1.363 . S
C1224 H1201 0.950 . S
C1224 C1223 1.397 . S
C1224 C1225 1.334 . S
C1225 H1202 0.950 . S
C1225 C1224 1.334 . S
C1225 C1226 1.287 . S
C1226 C1225 1.287 . S
C1226 C1227 1.524 . S
C1226 H1245 0.913 . S
C1227 H1203 0.950 . S
C1227 C1226 1.524 . S
C1227 C1228 1.415 . S
C1228 H1204 0.950 . S
C1228 C1223 1.363 . S
C1228 C1227 1.415 . S
C1229 H1205 0.951 . S
C1229 C1230 1.366 . S
C1229 C1231 1.388 . S
C1230 C1229 1.366 . S
C1230 C1234 1.385 . S
C1231 H1206 0.951 . S
C1231 C1229 1.388 . S
C1231 C1232 1.366 . S
C1232 C1231 1.366 . S
C1232 C1233 1.414 . S
C1232 C1235 1.499 . S
C1233 H1207 0.950 . S
C1233 C1232 1.414 . S
C1233 C1234 1.374 . S
C1234 H1208 0.950 . S
C1234 C1230 1.385 . S
C1234 C1233 1.374 . S
C1235 C1232 1.499 . S
C1235 C1236 1.373 . S
C1235 C1237 1.389 . S
C1236 H1209 0.950 . S
C1236 C1222 1.377 . S
C1236 C1235 1.373 . S
C1237 C1221 1.377 . S
C1237 C1235 1.389 . S
C1237 C1238 1.524 . S
C1238 C1237 1.524 . S
C1238 C1239 1.397 . S
C1238 C1243 1.363 . S
C1239 H1210 0.950 . S
C1239 C1238 1.397 . S
C1239 C1240 1.334 . S
C1240 H1211 0.950 . S
C1240 C1239 1.334 . S
C1240 C1241 1.287 . S
C1241 C1240 1.287 . S
C1241 C1242 1.524 . S
C1241 H1244 0.999 . S
C1242 H1212 0.950 . S
C1242 C1241 1.524 . S
C1242 C1243 1.415 . S
C1243 H1213 0.950 . S
C1243 C1238 1.363 . S
C1243 C1242 1.415 . S
H1244 C1241 0.999 . S
H1245 C1226 0.913 . S
H1246 C1264 0.951 . S
H1247 C1266 0.951 . S
H1248 C1268 0.950 . S
H1249 C1269 0.950 . S
H1250 C1271 0.950 . S
H1251 C1274 0.950 . S
H1252 C1275 0.950 . S
H1253 C1277 0.950 . S
H1254 C1278 0.950 . S
H1255 C1279 0.951 . S
H1256 C1281 0.951 . S
H1257 C1283 0.950 . S
H1258 C1284 0.950 . S
H1259 C1286 0.950 . S
H1260 C1289 0.950 . S
H1261 C1290 0.950 . S
H1262 C1292 0.950 . S
H1263 C1293 0.950 . S
C1264 H1246 0.951 . S
C1264 C1265 1.366 . S
C1264 C1266 1.388 . S
C1265 C1264 1.366 . S
C1265 C1269 1.385 . S
C1266 H1247 0.951 . S
C1266 C1264 1.388 . S
C1266 C1267 1.366 . S
C1267 C1266 1.366 . S
C1267 C1268 1.414 . S
C1267 C1270 1.499 . S
C1268 H1248 0.950 . S
C1268 C1267 1.414 . S
C1268 C1269 1.374 . S
C1269 H1249 0.950 . S
C1269 C1265 1.385 . S
C1269 C1268 1.374 . S
C1270 C1267 1.499 . S
C1270 C1271 1.373 . S
C1270 C1272 1.389 . S
C1271 H1250 0.950 . S
C1271 C1270 1.373 . S
C1271 C1287 1.377 . S
C1272 C1270 1.389 . S
C1272 C1273 1.524 . S
C1272 C1286 1.377 . S
C1273 C1272 1.524 . S
C1273 C1274 1.397 . S
C1273 C1278 1.363 . S
C1274 H1251 0.950 . S
C1274 C1273 1.397 . S
C1274 C1275 1.334 . S
C1275 H1252 0.950 . S
C1275 C1274 1.334 . S
C1275 C1276 1.287 . S
C1276 C1275 1.287 . S
C1276 C1277 1.524 . S
C1276 H1295 0.913 . S
C1277 H1253 0.950 . S
C1277 C1276 1.524 . S
C1277 C1278 1.415 . S
C1278 H1254 0.950 . S
C1278 C1273 1.363 . S
C1278 C1277 1.415 . S
C1279 H1255 0.951 . S
C1279 C1280 1.366 . S
C1279 C1281 1.388 . S
C1280 C1279 1.366 . S
C1280 C1284 1.385 . S
C1281 H1256 0.951 . S
C1281 C1279 1.388 . S
C1281 C1282 1.366 . S
C1282 C1281 1.366 . S
C1282 C1283 1.414 . S
C1282 C1285 1.499 . S
C1283 H1257 0.950 . S
C1283 C1282 1.414 . S
C1283 C1284 1.374 . S
C1284 H1258 0.950 . S
C1284 C1280 1.385 . S
C1284 C1283 1.374 . S
C1285 C1282 1.499 . S
C1285 C1286 1.373 . S
C1285 C1287 1.389 . S
C1286 H1259 0.950 . S
C1286 C1272 1.377 . S
C1286 C1285 1.373 . S
C1287 C1271 1.377 . S
C1287 C1285 1.389 . S
C1287 C1288 1.524 . S
C1288 C1287 1.524 . S
C1288 C1289 1.397 . S
C1288 C1293 1.363 . S
C1289 H1260 0.950 . S
C1289 C1288 1.397 . S
C1289 C1290 1.334 . S
C1290 H1261 0.950 . S
C1290 C1289 1.334 . S
C1290 C1291 1.287 . S
C1291 C1290 1.287 . S
C1291 C1292 1.524 . S
C1291 H1294 0.999 . S
C1292 H1262 0.950 . S
C1292 C1291 1.524 . S
C1292 C1293 1.415 . S
C1293 H1263 0.950 . S
C1293 C1288 1.363 . S
C1293 C1292 1.415 . S
H1294 C1291 0.999 . S
H1295 C1276 0.913 . S
H1296 C1314 0.951 . S
H1297 C1316 0.951 . S
H1298 C1318 0.950 . S
H1299 C1319 0.950 . S
H1300 C1321 0.950 . S
H1301 C1324 0.950 . S
H1302 C1325 0.950 . S
H1303 C1327 0.950 . S
H1304 C1328 0.950 . S
H1305 C1329 0.951 . S
H1306 C1331 0.951 . S
H1307 C1333 0.950 . S
H1308 C1334 0.950 . S
H1309 C1336 0.950 . S
H1310 C1339 0.950 . S
H1311 C1340 0.950 . S
H1312 C1342 0.950 . S
H1313 C1343 0.950 . S
C1314 H1296 0.951 . S
C1314 C1315 1.366 . S
C1314 C1316 1.388 . S
C1315 C1314 1.366 . S
C1315 C1319 1.385 . S
C1316 H1297 0.951 . S
C1316 C1314 1.388 . S
C1316 C1317 1.366 . S
C1317 C1316 1.366 . S
C1317 C1318 1.414 . S
C1317 C1320 1.499 . S
C1318 H1298 0.950 . S
C1318 C1317 1.414 . S
C1318 C1319 1.374 . S
C1319 H1299 0.950 . S
C1319 C1315 1.385 . S
C1319 C1318 1.374 . S
C1320 C1317 1.499 . S
C1320 C1321 1.373 . S
C1320 C1322 1.389 . S
C1321 H1300 0.950 . S
C1321 C1320 1.373 . S
C1321 C1337 1.377 . S
C1322 C1320 1.389 . S
C1322 C1323 1.524 . S
C1322 C1336 1.377 . S
C1323 C1322 1.524 . S
C1323 C1324 1.397 . S
C1323 C1328 1.363 . S
C1324 H1301 0.950 . S
C1324 C1323 1.397 . S
C1324 C1325 1.334 . S
C1325 H1302 0.950 . S
C1325 C1324 1.334 . S
C1325 C1326 1.287 . S
C1326 C1325 1.287 . S
C1326 C1327 1.524 . S
C1326 H1345 0.913 1_554 S
C1327 H1303 0.950 . S
C1327 C1326 1.524 . S
C1327 C1328 1.415 . S
C1328 H1304 0.950 . S
C1328 C1323 1.363 . S
C1328 C1327 1.415 . S
C1329 H1305 0.951 . S
C1329 C1330 1.366 . S
C1329 C1331 1.388 . S
C1330 C1329 1.366 . S
C1330 C1334 1.385 . S
C1331 H1306 0.951 . S
C1331 C1329 1.388 . S
C1331 C1332 1.366 . S
C1332 C1331 1.366 . S
C1332 C1333 1.414 . S
C1332 C1335 1.499 . S
C1333 H1307 0.950 . S
C1333 C1332 1.414 . S
C1333 C1334 1.374 . S
C1334 H1308 0.950 . S
C1334 C1330 1.385 . S
C1334 C1333 1.374 . S
C1335 C1332 1.499 . S
C1335 C1336 1.373 . S
C1335 C1337 1.389 . S
C1336 H1309 0.950 . S
C1336 C1322 1.377 . S
C1336 C1335 1.373 . S
C1337 C1321 1.377 . S
C1337 C1335 1.389 . S
C1337 C1338 1.524 . S
C1338 C1337 1.524 . S
C1338 C1339 1.397 . S
C1338 C1343 1.363 . S
C1339 H1310 0.950 . S
C1339 C1338 1.397 . S
C1339 C1340 1.334 . S
C1340 H1311 0.950 . S
C1340 C1339 1.334 . S
C1340 C1341 1.287 . S
C1341 C1340 1.287 . S
C1341 C1342 1.524 . S
C1341 H1344 0.999 . S
C1342 H1312 0.950 . S
C1342 C1341 1.524 . S
C1342 C1343 1.415 . S
C1343 H1313 0.950 . S
C1343 C1338 1.363 . S
C1343 C1342 1.415 . S
H1344 C1341 0.999 . S
H1345 C1326 0.913 1_556 S
H1346 C1364 0.951 . S
H1347 C1366 0.951 . S
H1348 C1368 0.950 . S
H1349 C1369 0.950 . S
H1350 C1371 0.950 . S
H1351 C1374 0.950 . S
H1352 C1375 0.950 . S
H1353 C1377 0.950 . S
H1354 C1378 0.950 . S
H1355 C1379 0.951 . S
H1356 C1381 0.951 . S
H1357 C1383 0.950 . S
H1358 C1384 0.950 . S
H1359 C1386 0.950 . S
H1360 C1389 0.950 . S
H1361 C1390 0.950 . S
H1362 C1392 0.950 . S
H1363 C1393 0.950 . S
C1364 H1346 0.951 . S
C1364 C1365 1.366 . S
C1364 C1366 1.388 . S
C1365 C1364 1.366 . S
C1365 C1369 1.385 . S
C1366 H1347 0.951 . S
C1366 C1364 1.388 . S
C1366 C1367 1.366 . S
C1367 C1366 1.366 . S
C1367 C1368 1.414 . S
C1367 C1370 1.499 . S
C1368 H1348 0.950 . S
C1368 C1367 1.414 . S
C1368 C1369 1.374 . S
C1369 H1349 0.950 . S
C1369 C1365 1.385 . S
C1369 C1368 1.374 . S
C1370 C1367 1.499 . S
C1370 C1371 1.373 . S
C1370 C1372 1.389 . S
C1371 H1350 0.950 . S
C1371 C1370 1.373 . S
C1371 C1387 1.377 . S
C1372 C1370 1.389 . S
C1372 C1373 1.524 . S
C1372 C1386 1.377 . S
C1373 C1372 1.524 . S
C1373 C1374 1.397 . S
C1373 C1378 1.363 . S
C1374 H1351 0.950 . S
C1374 C1373 1.397 . S
C1374 C1375 1.334 . S
C1375 H1352 0.950 . S
C1375 C1374 1.334 . S
C1375 C1376 1.287 . S
C1376 C1375 1.287 . S
C1376 C1377 1.524 . S
C1376 H1395 0.913 . S
C1377 H1353 0.950 . S
C1377 C1376 1.524 . S
C1377 C1378 1.415 . S
C1378 H1354 0.950 . S
C1378 C1373 1.363 . S
C1378 C1377 1.415 . S
C1379 H1355 0.951 . S
C1379 C1380 1.366 . S
C1379 C1381 1.388 . S
C1380 C1379 1.366 . S
C1380 C1384 1.385 . S
C1381 H1356 0.951 . S
C1381 C1379 1.388 . S
C1381 C1382 1.366 . S
C1382 C1381 1.366 . S
C1382 C1383 1.414 . S
C1382 C1385 1.499 . S
C1383 H1357 0.950 . S
C1383 C1382 1.414 . S
C1383 C1384 1.374 . S
C1384 H1358 0.950 . S
C1384 C1380 1.385 . S
C1384 C1383 1.374 . S
C1385 C1382 1.499 . S
C1385 C1386 1.373 . S
C1385 C1387 1.389 . S
C1386 H1359 0.950 . S
C1386 C1372 1.377 . S
C1386 C1385 1.373 . S
C1387 C1371 1.377 . S
C1387 C1385 1.389 . S
C1387 C1388 1.524 . S
C1388 C1387 1.524 . S
C1388 C1389 1.397 . S
C1388 C1393 1.363 . S
C1389 H1360 0.950 . S
C1389 C1388 1.397 . S
C1389 C1390 1.334 . S
C1390 H1361 0.950 . S
C1390 C1389 1.334 . S
C1390 C1391 1.287 . S
C1391 C1390 1.287 . S
C1391 C1392 1.524 . S
C1391 H1394 0.999 . S
C1392 H1362 0.950 . S
C1392 C1391 1.524 . S
C1392 C1393 1.415 . S
C1393 H1363 0.950 . S
C1393 C1388 1.363 . S
C1393 C1392 1.415 . S
H1394 C1391 0.999 . S
H1395 C1376 0.913 . S
H1396 C1414 0.951 . S
H1397 C1416 0.951 . S
H1398 C1418 0.950 . S
H1399 C1419 0.950 . S
H1400 C1421 0.950 . S
H1401 C1424 0.950 . S
H1402 C1425 0.950 . S
H1403 C1427 0.950 . S
H1404 C1428 0.950 . S
H1405 C1429 0.951 . S
H1406 C1431 0.951 . S
H1407 C1433 0.950 . S
H1408 C1434 0.950 . S
H1409 C1436 0.950 . S
H1410 C1439 0.950 . S
H1411 C1440 0.950 . S
H1412 C1442 0.950 . S
H1413 C1443 0.950 . S
C1414 H1396 0.951 . S
C1414 C1415 1.366 . S
C1414 C1416 1.388 . S
C1415 C1414 1.366 . S
C1415 C1419 1.385 . S
C1416 H1397 0.951 . S
C1416 C1414 1.388 . S
C1416 C1417 1.366 . S
C1417 C1416 1.366 . S
C1417 C1418 1.414 . S
C1417 C1420 1.499 . S
C1418 H1398 0.950 . S
C1418 C1417 1.414 . S
C1418 C1419 1.374 . S
C1419 H1399 0.950 . S
C1419 C1415 1.385 . S
C1419 C1418 1.374 . S
C1420 C1417 1.499 . S
C1420 C1421 1.373 . S
C1420 C1422 1.389 . S
C1421 H1400 0.950 . S
C1421 C1420 1.373 . S
C1421 C1437 1.377 . S
C1422 C1420 1.389 . S
C1422 C1423 1.524 . S
C1422 C1436 1.377 . S
C1423 C1422 1.524 . S
C1423 C1424 1.397 . S
C1423 C1428 1.363 . S
C1424 H1401 0.950 . S
C1424 C1423 1.397 . S
C1424 C1425 1.334 . S
C1425 H1402 0.950 . S
C1425 C1424 1.334 . S
C1425 C1426 1.287 . S
C1426 C1425 1.287 . S
C1426 C1427 1.524 . S
C1426 H1445 0.913 . S
C1427 H1403 0.950 . S
C1427 C1426 1.524 . S
C1427 C1428 1.415 . S
C1428 H1404 0.950 . S
C1428 C1423 1.363 . S
C1428 C1427 1.415 . S
C1429 H1405 0.951 . S
C1429 C1430 1.366 . S
C1429 C1431 1.388 . S
C1430 C1429 1.366 . S
C1430 C1434 1.385 . S
C1431 H1406 0.951 . S
C1431 C1429 1.388 . S
C1431 C1432 1.366 . S
C1432 C1431 1.366 . S
C1432 C1433 1.414 . S
C1432 C1435 1.499 . S
C1433 H1407 0.950 . S
C1433 C1432 1.414 . S
C1433 C1434 1.374 . S
C1434 H1408 0.950 . S
C1434 C1430 1.385 . S
C1434 C1433 1.374 . S
C1435 C1432 1.499 . S
C1435 C1436 1.373 . S
C1435 C1437 1.389 . S
C1436 H1409 0.950 . S
C1436 C1422 1.377 . S
C1436 C1435 1.373 . S
C1437 C1421 1.377 . S
C1437 C1435 1.389 . S
C1437 C1438 1.524 . S
C1438 C1437 1.524 . S
C1438 C1439 1.397 . S
C1438 C1443 1.363 . S
C1439 H1410 0.950 . S
C1439 C1438 1.397 . S
C1439 C1440 1.334 . S
C1440 H1411 0.950 . S
C1440 C1439 1.334 . S
C1440 C1441 1.287 . S
C1441 C1440 1.287 . S
C1441 C1442 1.524 . S
C1441 H1444 0.999 . S
C1442 H1412 0.950 . S
C1442 C1441 1.524 . S
C1442 C1443 1.415 . S
C1443 H1413 0.950 . S
C1443 C1438 1.363 . S
C1443 C1442 1.415 . S
H1444 C1441 0.999 . S
H1445 C1426 0.913 . S
H1446 C1464 0.951 . S
H1447 C1466 0.951 . S
H1448 C1468 0.950 . S
H1449 C1469 0.950 . S
H1450 C1471 0.950 . S
H1451 C1474 0.950 . S
H1452 C1475 0.950 . S
H1453 C1477 0.950 1_455 S
H1454 C1478 0.950 . S
H1455 C1479 0.951 . S
H1456 C1481 0.951 . S
H1457 C1483 0.950 . S
H1458 C1484 0.950 . S
H1459 C1486 0.950 . S
H1460 C1489 0.950 . S
H1461 C1490 0.950 . S
H1462 C1492 0.950 . S
H1463 C1493 0.950 . S
C1464 H1446 0.951 . S
C1464 C1465 1.366 . S
C1464 C1466 1.388 . S
C1465 C1464 1.366 . S
C1465 C1469 1.385 . S
C1466 H1447 0.951 . S
C1466 C1464 1.388 . S
C1466 C1467 1.366 . S
C1467 C1466 1.366 . S
C1467 C1468 1.414 . S
C1467 C1470 1.499 . S
C1468 H1448 0.950 . S
C1468 C1467 1.414 . S
C1468 C1469 1.374 . S
C1469 H1449 0.950 . S
C1469 C1465 1.385 . S
C1469 C1468 1.374 . S
C1470 C1467 1.499 . S
C1470 C1471 1.373 . S
C1470 C1472 1.389 . S
C1471 H1450 0.950 . S
C1471 C1470 1.373 . S
C1471 C1487 1.377 . S
C1472 C1470 1.389 . S
C1472 C1473 1.524 . S
C1472 C1486 1.377 . S
C1473 C1472 1.524 . S
C1473 C1474 1.397 . S
C1473 C1478 1.363 . S
C1474 H1451 0.950 . S
C1474 C1473 1.397 . S
C1474 C1475 1.334 . S
C1475 H1452 0.950 . S
C1475 C1474 1.334 . S
C1475 C1476 1.287 . S
C1476 C1475 1.287 . S
C1476 C1477 1.524 . S
C1476 H1495 0.913 1_655 S
C1477 H1453 0.950 1_655 S
C1477 C1476 1.524 . S
C1477 C1478 1.415 . S
C1478 H1454 0.950 . S
C1478 C1473 1.363 . S
C1478 C1477 1.415 . S
C1479 H1455 0.951 . S
C1479 C1480 1.366 . S
C1479 C1481 1.388 . S
C1480 C1479 1.366 . S
C1480 C1484 1.385 . S
C1481 H1456 0.951 . S
C1481 C1479 1.388 . S
C1481 C1482 1.366 . S
C1482 C1481 1.366 . S
C1482 C1483 1.414 . S
C1482 C1485 1.499 . S
C1483 H1457 0.950 . S
C1483 C1482 1.414 . S
C1483 C1484 1.374 . S
C1484 H1458 0.950 . S
C1484 C1480 1.385 . S
C1484 C1483 1.374 . S
C1485 C1482 1.499 . S
C1485 C1486 1.373 . S
C1485 C1487 1.389 . S
C1486 H1459 0.950 . S
C1486 C1472 1.377 . S
C1486 C1485 1.373 . S
C1487 C1471 1.377 . S
C1487 C1485 1.389 . S
C1487 C1488 1.524 . S
C1488 C1487 1.524 . S
C1488 C1489 1.397 . S
C1488 C1493 1.363 . S
C1489 H1460 0.950 . S
C1489 C1488 1.397 . S
C1489 C1490 1.334 . S
C1490 H1461 0.950 . S
C1490 C1489 1.334 . S
C1490 C1491 1.287 . S
C1491 C1490 1.287 . S
C1491 C1492 1.524 . S
C1491 H1494 0.999 . S
C1492 H1462 0.950 . S
C1492 C1491 1.524 . S
C1492 C1493 1.415 . S
C1493 H1463 0.950 . S
C1493 C1488 1.363 . S
C1493 C1492 1.415 . S
H1494 C1491 0.999 . S
H1495 C1476 0.913 1_455 S
H1496 C1514 0.951 . S
H1497 C1516 0.951 . S
H1498 C1518 0.950 . S
H1499 C1519 0.950 . S
H1500 C1521 0.950 . S
H1501 C1524 0.950 . S
H1502 C1525 0.950 . S
H1503 C1527 0.950 . S
H1504 C1528 0.950 . S
H1505 C1529 0.951 . S
H1506 C1531 0.951 . S
H1507 C1533 0.950 . S
H1508 C1534 0.950 . S
H1509 C1536 0.950 . S
H1510 C1539 0.950 . S
H1511 C1540 0.950 . S
H1512 C1542 0.950 . S
H1513 C1543 0.950 . S
C1514 H1496 0.951 . S
C1514 C1515 1.366 . S
C1514 C1516 1.388 . S
C1515 C1514 1.366 . S
C1515 C1519 1.385 . S
C1516 H1497 0.951 . S
C1516 C1514 1.388 . S
C1516 C1517 1.366 . S
C1517 C1516 1.366 . S
C1517 C1518 1.414 . S
C1517 C1520 1.499 . S
C1518 H1498 0.950 . S
C1518 C1517 1.414 . S
C1518 C1519 1.374 . S
C1519 H1499 0.950 . S
C1519 C1515 1.385 . S
C1519 C1518 1.374 . S
C1520 C1517 1.499 . S
C1520 C1521 1.373 . S
C1520 C1522 1.389 . S
C1521 H1500 0.950 . S
C1521 C1520 1.373 . S
C1521 C1537 1.377 . S
C1522 C1520 1.389 . S
C1522 C1523 1.524 . S
C1522 C1536 1.377 . S
C1523 C1522 1.524 . S
C1523 C1524 1.397 . S
C1523 C1528 1.363 . S
C1524 H1501 0.950 . S
C1524 C1523 1.397 . S
C1524 C1525 1.334 . S
C1525 H1502 0.950 . S
C1525 C1524 1.334 . S
C1525 C1526 1.287 . S
C1526 C1525 1.287 . S
C1526 C1527 1.524 . S
C1526 H1545 0.913 . S
C1527 H1503 0.950 . S
C1527 C1526 1.524 . S
C1527 C1528 1.415 . S
C1528 H1504 0.950 . S
C1528 C1523 1.363 . S
C1528 C1527 1.415 . S
C1529 H1505 0.951 . S
C1529 C1530 1.366 . S
C1529 C1531 1.388 . S
C1530 C1529 1.366 . S
C1530 C1534 1.385 . S
C1531 H1506 0.951 . S
C1531 C1529 1.388 . S
C1531 C1532 1.366 . S
C1532 C1531 1.366 . S
C1532 C1533 1.414 . S
C1532 C1535 1.499 . S
C1533 H1507 0.950 . S
C1533 C1532 1.414 . S
C1533 C1534 1.374 . S
C1534 H1508 0.950 . S
C1534 C1530 1.385 . S
C1534 C1533 1.374 . S
C1535 C1532 1.499 . S
C1535 C1536 1.373 . S
C1535 C1537 1.389 . S
C1536 H1509 0.950 . S
C1536 C1522 1.377 . S
C1536 C1535 1.373 . S
C1537 C1521 1.377 . S
C1537 C1535 1.389 . S
C1537 C1538 1.524 . S
C1538 C1537 1.524 . S
C1538 C1539 1.397 . S
C1538 C1543 1.363 . S
C1539 H1510 0.950 . S
C1539 C1538 1.397 . S
C1539 C1540 1.334 . S
C1540 H1511 0.950 . S
C1540 C1539 1.334 . S
C1540 C1541 1.287 . S
C1541 C1540 1.287 . S
C1541 C1542 1.524 . S
C1541 H1544 0.999 . S
C1542 H1512 0.950 . S
C1542 C1541 1.524 . S
C1542 C1543 1.415 . S
C1543 H1513 0.950 . S
C1543 C1538 1.363 . S
C1543 C1542 1.415 . S
H1544 C1541 0.999 . S
H1545 C1526 0.913 . S
H1546 C1564 0.951 . S
H1547 C1566 0.951 . S
H1548 C1568 0.950 . S
H1549 C1569 0.950 . S
H1550 C1571 0.950 . S
H1551 C1574 0.950 . S
H1552 C1575 0.950 . S
H1553 C1577 0.950 . S
H1554 C1578 0.950 . S
H1555 C1579 0.951 . S
H1556 C1581 0.951 . S
H1557 C1583 0.950 . S
H1558 C1584 0.950 . S
H1559 C1586 0.950 . S
H1560 C1589 0.950 . S
H1561 C1590 0.950 1_655 S
H1562 C1592 0.950 . S
H1563 C1593 0.950 . S
C1564 H1546 0.951 . S
C1564 C1565 1.366 . S
C1564 C1566 1.388 . S
C1565 C1564 1.366 . S
C1565 C1569 1.385 . S
C1566 H1547 0.951 . S
C1566 C1564 1.388 . S
C1566 C1567 1.366 . S
C1567 C1566 1.366 . S
C1567 C1568 1.414 . S
C1567 C1570 1.499 . S
C1568 H1548 0.950 . S
C1568 C1567 1.414 . S
C1568 C1569 1.374 . S
C1569 H1549 0.950 . S
C1569 C1565 1.385 . S
C1569 C1568 1.374 . S
C1570 C1567 1.499 . S
C1570 C1571 1.373 . S
C1570 C1572 1.389 . S
C1571 H1550 0.950 . S
C1571 C1570 1.373 . S
C1571 C1587 1.377 . S
C1572 C1570 1.389 . S
C1572 C1573 1.524 . S
C1572 C1586 1.377 . S
C1573 C1572 1.524 . S
C1573 C1574 1.397 . S
C1573 C1578 1.363 . S
C1574 H1551 0.950 . S
C1574 C1573 1.397 . S
C1574 C1575 1.334 . S
C1575 H1552 0.950 . S
C1575 C1574 1.334 . S
C1575 C1576 1.287 . S
C1576 C1575 1.287 . S
C1576 C1577 1.524 . S
C1576 H1595 0.913 . S
C1577 H1553 0.950 . S
C1577 C1576 1.524 . S
C1577 C1578 1.415 . S
C1578 H1554 0.950 . S
C1578 C1573 1.363 . S
C1578 C1577 1.415 . S
C1579 H1555 0.951 . S
C1579 C1580 1.366 . S
C1579 C1581 1.388 . S
C1580 C1579 1.366 . S
C1580 C1584 1.385 . S
C1581 H1556 0.951 . S
C1581 C1579 1.388 . S
C1581 C1582 1.366 . S
C1582 C1581 1.366 . S
C1582 C1583 1.414 . S
C1582 C1585 1.499 . S
C1583 H1557 0.950 . S
C1583 C1582 1.414 . S
C1583 C1584 1.374 . S
C1584 H1558 0.950 . S
C1584 C1580 1.385 . S
C1584 C1583 1.374 . S
C1585 C1582 1.499 . S
C1585 C1586 1.373 . S
C1585 C1587 1.389 . S
C1586 H1559 0.950 . S
C1586 C1572 1.377 . S
C1586 C1585 1.373 . S
C1587 C1571 1.377 . S
C1587 C1585 1.389 . S
C1587 C1588 1.524 . S
C1588 C1587 1.524 . S
C1588 C1589 1.397 . S
C1588 C1593 1.363 . S
C1589 H1560 0.950 . S
C1589 C1588 1.397 . S
C1589 C1590 1.334 . S
C1590 H1561 0.950 1_455 S
C1590 C1589 1.334 . S
C1590 C1591 1.287 1_455 S
C1591 C1590 1.287 1_655 S
C1591 C1592 1.524 1_655 S
C1591 H1594 0.999 . S
C1592 H1562 0.950 . S
C1592 C1591 1.524 1_455 S
C1592 C1593 1.415 . S
C1593 H1563 0.950 . S
C1593 C1588 1.363 . S
C1593 C1592 1.415 . S
H1594 C1591 0.999 . S
H1595 C1576 0.913 . S
H1596 C1614 0.951 . S
H1597 C1616 0.951 . S
H1598 C1618 0.950 . S
H1599 C1619 0.950 . S
H1600 C1621 0.950 . S
H1601 C1624 0.950 . S
H1602 C1625 0.950 . S
H1603 C1627 0.950 . S
H1604 C1628 0.950 . S
H1605 C1629 0.951 . S
H1606 C1631 0.951 . S
H1607 C1633 0.950 . S
H1608 C1634 0.950 . S
H1609 C1636 0.950 . S
H1610 C1639 0.950 . S
H1611 C1640 0.950 . S
H1612 C1642 0.950 . S
H1613 C1643 0.950 . S
C1614 H1596 0.951 . S
C1614 C1615 1.366 . S
C1614 C1616 1.388 . S
C1615 C1614 1.366 . S
C1615 C1619 1.385 . S
C1616 H1597 0.951 . S
C1616 C1614 1.388 . S
C1616 C1617 1.366 . S
C1617 C1616 1.366 . S
C1617 C1618 1.414 . S
C1617 C1620 1.499 . S
C1618 H1598 0.950 . S
C1618 C1617 1.414 . S
C1618 C1619 1.374 . S
C1619 H1599 0.950 . S
C1619 C1615 1.385 . S
C1619 C1618 1.374 . S
C1620 C1617 1.499 . S
C1620 C1621 1.373 . S
C1620 C1622 1.389 . S
C1621 H1600 0.950 . S
C1621 C1620 1.373 . S
C1621 C1637 1.377 . S
C1622 C1620 1.389 . S
C1622 C1623 1.524 . S
C1622 C1636 1.377 . S
C1623 C1622 1.524 . S
C1623 C1624 1.397 . S
C1623 C1628 1.363 . S
C1624 H1601 0.950 . S
C1624 C1623 1.397 . S
C1624 C1625 1.334 . S
C1625 H1602 0.950 . S
C1625 C1624 1.334 . S
C1625 C1626 1.287 . S
C1626 C1625 1.287 . S
C1626 C1627 1.524 . S
C1626 H1645 0.913 . S
C1627 H1603 0.950 . S
C1627 C1626 1.524 . S
C1627 C1628 1.415 . S
C1628 H1604 0.950 . S
C1628 C1623 1.363 . S
C1628 C1627 1.415 . S
C1629 H1605 0.951 . S
C1629 C1630 1.366 . S
C1629 C1631 1.388 . S
C1630 C1629 1.366 . S
C1630 C1634 1.385 . S
C1631 H1606 0.951 . S
C1631 C1629 1.388 . S
C1631 C1632 1.366 . S
C1632 C1631 1.366 . S
C1632 C1633 1.414 . S
C1632 C1635 1.499 . S
C1633 H1607 0.950 . S
C1633 C1632 1.414 . S
C1633 C1634 1.374 . S
C1634 H1608 0.950 . S
C1634 C1630 1.385 . S
C1634 C1633 1.374 . S
C1635 C1632 1.499 . S
C1635 C1636 1.373 . S
C1635 C1637 1.389 . S
C1636 H1609 0.950 . S
C1636 C1622 1.377 . S
C1636 C1635 1.373 . S
C1637 C1621 1.377 . S
C1637 C1635 1.389 . S
C1637 C1638 1.524 . S
C1638 C1637 1.524 . S
C1638 C1639 1.397 . S
C1638 C1643 1.363 . S
C1639 H1610 0.950 . S
C1639 C1638 1.397 . S
C1639 C1640 1.334 . S
C1640 H1611 0.950 . S
C1640 C1639 1.334 . S
C1640 C1641 1.287 . S
C1641 C1640 1.287 . S
C1641 C1642 1.524 . S
C1641 H1644 0.999 . S
C1642 H1612 0.950 . S
C1642 C1641 1.524 . S
C1642 C1643 1.415 . S
C1643 H1613 0.950 . S
C1643 C1638 1.363 . S
C1643 C1642 1.415 . S
H1644 C1641 0.999 . S
H1645 C1626 0.913 . S
H1646 C1664 0.951 . S
H1647 C1666 0.951 . S
H1648 C1668 0.950 . S
H1649 C1669 0.950 . S
H1650 C1671 0.950 . S
H1651 C1674 0.950 . S
H1652 C1675 0.950 . S
H1653 C1677 0.950 . S
H1654 C1678 0.950 . S
H1655 C1679 0.951 . S
H1656 C1681 0.951 . S
H1657 C1683 0.950 . S
H1658 C1684 0.950 . S
H1659 C1686 0.950 . S
H1660 C1689 0.950 . S
H1661 C1690 0.950 . S
H1662 C1692 0.950 . S
H1663 C1693 0.950 . S
C1664 H1646 0.951 . S
C1664 C1665 1.366 . S
C1664 C1666 1.388 . S
C1665 C1664 1.366 . S
C1665 C1669 1.385 . S
C1666 H1647 0.951 . S
C1666 C1664 1.388 . S
C1666 C1667 1.366 . S
C1667 C1666 1.366 . S
C1667 C1668 1.414 . S
C1667 C1670 1.499 . S
C1668 H1648 0.950 . S
C1668 C1667 1.414 . S
C1668 C1669 1.374 . S
C1669 H1649 0.950 . S
C1669 C1665 1.385 . S
C1669 C1668 1.374 . S
C1670 C1667 1.499 . S
C1670 C1671 1.373 . S
C1670 C1672 1.389 . S
C1671 H1650 0.950 . S
C1671 C1670 1.373 . S
C1671 C1687 1.377 . S
C1672 C1670 1.389 . S
C1672 C1673 1.524 . S
C1672 C1686 1.377 . S
C1673 C1672 1.524 . S
C1673 C1674 1.397 . S
C1673 C1678 1.363 . S
C1674 H1651 0.950 . S
C1674 C1673 1.397 . S
C1674 C1675 1.334 . S
C1675 H1652 0.950 . S
C1675 C1674 1.334 . S
C1675 C1676 1.287 . S
C1676 C1675 1.287 . S
C1676 C1677 1.524 . S
C1676 H1695 0.913 . S
C1677 H1653 0.950 . S
C1677 C1676 1.524 . S
C1677 C1678 1.415 . S
C1678 H1654 0.950 . S
C1678 C1673 1.363 . S
C1678 C1677 1.415 . S
C1679 H1655 0.951 . S
C1679 C1680 1.366 . S
C1679 C1681 1.388 . S
C1680 C1679 1.366 . S
C1680 C1684 1.385 . S
C1681 H1656 0.951 . S
C1681 C1679 1.388 . S
C1681 C1682 1.366 . S
C1682 C1681 1.366 . S
C1682 C1683 1.414 . S
C1682 C1685 1.499 . S
C1683 H1657 0.950 . S
C1683 C1682 1.414 . S
C1683 C1684 1.374 . S
C1684 H1658 0.950 . S
C1684 C1680 1.385 . S
C1684 C1683 1.374 . S
C1685 C1682 1.499 . S
C1685 C1686 1.373 . S
C1685 C1687 1.389 . S
C1686 H1659 0.950 . S
C1686 C1672 1.377 . S
C1686 C1685 1.373 . S
C1687 C1671 1.377 . S
C1687 C1685 1.389 . S
C1687 C1688 1.524 . S
C1688 C1687 1.524 . S
C1688 C1689 1.397 . S
C1688 C1693 1.363 . S
C1689 H1660 0.950 . S
C1689 C1688 1.397 . S
C1689 C1690 1.334 . S
C1690 H1661 0.950 . S
C1690 C1689 1.334 . S
C1690 C1691 1.287 . S
C1691 C1690 1.287 . S
C1691 C1692 1.524 . S
C1691 H1694 0.999 . S
C1692 H1662 0.950 . S
C1692 C1691 1.524 . S
C1692 C1693 1.415 . S
C1693 H1663 0.950 . S
C1693 C1688 1.363 . S
C1693 C1692 1.415 . S
H1694 C1691 0.999 . S
H1695 C1676 0.913 . S
H1696 C1714 0.951 . S
H1697 C1716 0.951 . S
H1698 C1718 0.950 . S
H1699 C1719 0.950 . S
H1700 C1721 0.950 . S
H1701 C1724 0.950 . S
H1702 C1725 0.950 . S
H1703 C1727 0.950 . S
H1704 C1728 0.950 . S
H1705 C1729 0.951 . S
H1706 C1731 0.951 . S
H1707 C1733 0.950 . S
H1708 C1734 0.950 . S
H1709 C1736 0.950 . S
H1710 C1739 0.950 . S
H1711 C1740 0.950 . S
H1712 C1742 0.950 . S
H1713 C1743 0.950 . S
C1714 H1696 0.951 . S
C1714 C1715 1.366 . S
C1714 C1716 1.388 . S
C1715 C1714 1.366 . S
C1715 C1719 1.385 . S
C1716 H1697 0.951 . S
C1716 C1714 1.388 . S
C1716 C1717 1.366 . S
C1717 C1716 1.366 . S
C1717 C1718 1.414 . S
C1717 C1720 1.499 . S
C1718 H1698 0.950 . S
C1718 C1717 1.414 . S
C1718 C1719 1.374 . S
C1719 H1699 0.950 . S
C1719 C1715 1.385 . S
C1719 C1718 1.374 . S
C1720 C1717 1.499 . S
C1720 C1721 1.373 . S
C1720 C1722 1.389 . S
C1721 H1700 0.950 . S
C1721 C1720 1.373 . S
C1721 C1737 1.377 . S
C1722 C1720 1.389 . S
C1722 C1723 1.524 . S
C1722 C1736 1.377 . S
C1723 C1722 1.524 . S
C1723 C1724 1.397 . S
C1723 C1728 1.363 . S
C1724 H1701 0.950 . S
C1724 C1723 1.397 . S
C1724 C1725 1.334 . S
C1725 H1702 0.950 . S
C1725 C1724 1.334 . S
C1725 C1726 1.287 . S
C1726 C1725 1.287 . S
C1726 C1727 1.524 . S
C1726 H1745 0.913 . S
C1727 H1703 0.950 . S
C1727 C1726 1.524 . S
C1727 C1728 1.415 . S
C1728 H1704 0.950 . S
C1728 C1723 1.363 . S
C1728 C1727 1.415 . S
C1729 H1705 0.951 . S
C1729 C1730 1.366 . S
C1729 C1731 1.388 . S
C1730 C1729 1.366 . S
C1730 C1734 1.385 . S
C1731 H1706 0.951 . S
C1731 C1729 1.388 . S
C1731 C1732 1.366 . S
C1732 C1731 1.366 . S
C1732 C1733 1.414 . S
C1732 C1735 1.499 . S
C1733 H1707 0.950 . S
C1733 C1732 1.414 . S
C1733 C1734 1.374 . S
C1734 H1708 0.950 . S
C1734 C1730 1.385 . S
C1734 C1733 1.374 . S
C1735 C1732 1.499 . S
C1735 C1736 1.373 . S
C1735 C1737 1.389 . S
C1736 H1709 0.950 . S
C1736 C1722 1.377 . S
C1736 C1735 1.373 . S
C1737 C1721 1.377 . S
C1737 C1735 1.389 . S
C1737 C1738 1.524 . S
C1738 C1737 1.524 . S
C1738 C1739 1.397 . S
C1738 C1743 1.363 . S
C1739 H1710 0.950 . S
C1739 C1738 1.397 . S
C1739 C1740 1.334 . S
C1740 H1711 0.950 . S
C1740 C1739 1.334 . S
C1740 C1741 1.287 . S
C1741 C1740 1.287 . S
C1741 C1742 1.524 . S
C1741 H1744 0.999 . S
C1742 H1712 0.950 . S
C1742 C1741 1.524 . S
C1742 C1743 1.415 . S
C1743 H1713 0.950 . S
C1743 C1738 1.363 . S
C1743 C1742 1.415 . S
H1744 C1741 0.999 . S
H1745 C1726 0.913 . S
H1746 C1764 0.951 . S
H1747 C1766 0.951 . S
H1748 C1768 0.950 . S
H1749 C1769 0.950 . S
H1750 C1771 0.950 . S
H1751 C1774 0.950 . S
H1752 C1775 0.950 . S
H1753 C1777 0.950 . S
H1754 C1778 0.950 . S
H1755 C1779 0.951 . S
H1756 C1781 0.951 . S
H1757 C1783 0.950 . S
H1758 C1784 0.950 . S
H1759 C1786 0.950 . S
H1760 C1789 0.950 . S
H1761 C1790 0.950 . S
H1762 C1792 0.950 . S
H1763 C1793 0.950 . S
C1764 H1746 0.951 . S
C1764 C1765 1.366 . S
C1764 C1766 1.388 . S
C1765 C1764 1.366 . S
C1765 C1769 1.385 . S
C1766 H1747 0.951 . S
C1766 C1764 1.388 . S
C1766 C1767 1.366 . S
C1767 C1766 1.366 . S
C1767 C1768 1.414 . S
C1767 C1770 1.499 . S
C1768 H1748 0.950 . S
C1768 C1767 1.414 . S
C1768 C1769 1.374 . S
C1769 H1749 0.950 . S
C1769 C1765 1.385 . S
C1769 C1768 1.374 . S
C1770 C1767 1.499 . S
C1770 C1771 1.373 . S
C1770 C1772 1.389 . S
C1771 H1750 0.950 . S
C1771 C1770 1.373 . S
C1771 C1787 1.377 . S
C1772 C1770 1.389 . S
C1772 C1773 1.524 . S
C1772 C1786 1.377 . S
C1773 C1772 1.524 . S
C1773 C1774 1.397 . S
C1773 C1778 1.363 . S
C1774 H1751 0.950 . S
C1774 C1773 1.397 . S
C1774 C1775 1.334 . S
C1775 H1752 0.950 . S
C1775 C1774 1.334 . S
C1775 C1776 1.287 . S
C1776 C1775 1.287 . S
C1776 C1777 1.524 . S
C1776 H1795 0.913 . S
C1777 H1753 0.950 . S
C1777 C1776 1.524 . S
C1777 C1778 1.415 . S
C1778 H1754 0.950 . S
C1778 C1773 1.363 . S
C1778 C1777 1.415 . S
C1779 H1755 0.951 . S
C1779 C1780 1.366 . S
C1779 C1781 1.388 . S
C1780 C1779 1.366 . S
C1780 C1784 1.385 . S
C1781 H1756 0.951 . S
C1781 C1779 1.388 . S
C1781 C1782 1.366 . S
C1782 C1781 1.366 . S
C1782 C1783 1.414 . S
C1782 C1785 1.499 . S
C1783 H1757 0.950 . S
C1783 C1782 1.414 . S
C1783 C1784 1.374 . S
C1784 H1758 0.950 . S
C1784 C1780 1.385 . S
C1784 C1783 1.374 . S
C1785 C1782 1.499 . S
C1785 C1786 1.373 . S
C1785 C1787 1.389 . S
C1786 H1759 0.950 . S
C1786 C1772 1.377 . S
C1786 C1785 1.373 . S
C1787 C1771 1.377 . S
C1787 C1785 1.389 . S
C1787 C1788 1.524 . S
C1788 C1787 1.524 . S
C1788 C1789 1.397 . S
C1788 C1793 1.363 . S
C1789 H1760 0.950 . S
C1789 C1788 1.397 . S
C1789 C1790 1.334 . S
C1790 H1761 0.950 . S
C1790 C1789 1.334 . S
C1790 C1791 1.287 . S
C1791 C1790 1.287 . S
C1791 C1792 1.524 . S
C1791 H1794 0.999 . S
C1792 H1762 0.950 . S
C1792 C1791 1.524 . S
C1792 C1793 1.415 . S
C1793 H1763 0.950 . S
C1793 C1788 1.363 . S
C1793 C1792 1.415 . S
H1794 C1791 0.999 . S
H1795 C1776 0.913 . S
H1796 C1814 0.951 . S
H1797 C1816 0.951 . S
H1798 C1818 0.950 . S
H1799 C1819 0.950 . S
H1800 C1821 0.950 . S
H1801 C1824 0.950 . S
H1802 C1825 0.950 . S
H1803 C1827 0.950 . S
H1804 C1828 0.950 . S
H1805 C1829 0.951 . S
H1806 C1831 0.951 . S
H1807 C1833 0.950 . S
H1808 C1834 0.950 . S
H1809 C1836 0.950 . S
H1810 C1839 0.950 . S
H1811 C1840 0.950 . S
H1812 C1842 0.950 . S
H1813 C1843 0.950 . S
C1814 H1796 0.951 . S
C1814 C1815 1.366 . S
C1814 C1816 1.388 . S
C1815 C1814 1.366 . S
C1815 C1819 1.385 . S
C1816 H1797 0.951 . S
C1816 C1814 1.388 . S
C1816 C1817 1.366 . S
C1817 C1816 1.366 . S
C1817 C1818 1.414 . S
C1817 C1820 1.499 . S
C1818 H1798 0.950 . S
C1818 C1817 1.414 . S
C1818 C1819 1.374 . S
C1819 H1799 0.950 . S
C1819 C1815 1.385 . S
C1819 C1818 1.374 . S
C1820 C1817 1.499 . S
C1820 C1821 1.373 . S
C1820 C1822 1.389 . S
C1821 H1800 0.950 . S
C1821 C1820 1.373 . S
C1821 C1837 1.377 . S
C1822 C1820 1.389 . S
C1822 C1823 1.524 . S
C1822 C1836 1.377 . S
C1823 C1822 1.524 . S
C1823 C1824 1.397 . S
C1823 C1828 1.363 . S
C1824 H1801 0.950 . S
C1824 C1823 1.397 . S
C1824 C1825 1.334 . S
C1825 H1802 0.950 . S
C1825 C1824 1.334 . S
C1825 C1826 1.287 . S
C1826 C1825 1.287 . S
C1826 C1827 1.524 . S
C1826 H1845 0.913 . S
C1827 H1803 0.950 . S
C1827 C1826 1.524 . S
C1827 C1828 1.415 . S
C1828 H1804 0.950 . S
C1828 C1823 1.363 . S
C1828 C1827 1.415 . S
C1829 H1805 0.951 . S
C1829 C1830 1.366 . S
C1829 C1831 1.388 . S
C1830 C1829 1.366 . S
C1830 C1834 1.385 . S
C1831 H1806 0.951 . S
C1831 C1829 1.388 . S
C1831 C1832 1.366 . S
C1832 C1831 1.366 . S
C1832 C1833 1.414 . S
C1832 C1835 1.499 . S
C1833 H1807 0.950 . S
C1833 C1832 1.414 . S
C1833 C1834 1.374 . S
C1834 H1808 0.950 . S
C1834 C1830 1.385 . S
C1834 C1833 1.374 . S
C1835 C1832 1.499 . S
C1835 C1836 1.373 . S
C1835 C1837 1.389 . S
C1836 H1809 0.950 . S
C1836 C1822 1.377 . S
C1836 C1835 1.373 . S
C1837 C1821 1.377 . S
C1837 C1835 1.389 . S
C1837 C1838 1.524 . S
C1838 C1837 1.524 . S
C1838 C1839 1.397 . S
C1838 C1843 1.363 . S
C1839 H1810 0.950 . S
C1839 C1838 1.397 . S
C1839 C1840 1.334 . S
C1840 H1811 0.950 . S
C1840 C1839 1.334 . S
C1840 C1841 1.287 . S
C1841 C1840 1.287 . S
C1841 C1842 1.524 . S
C1841 H1844 0.999 . S
C1842 H1812 0.950 . S
C1842 C1841 1.524 . S
C1842 C1843 1.415 . S
C1843 H1813 0.950 . S
C1843 C1838 1.363 . S
C1843 C1842 1.415 . S
H1844 C1841 0.999 . S
H1845 C1826 0.913 . S
H1846 C1864 0.951 . S
H1847 C1866 0.951 . S
H1848 C1868 0.950 . S
H1849 C1869 0.950 . S
H1850 C1871 0.950 . S
H1851 C1874 0.950 . S
H1852 C1875 0.950 . S
H1853 C1877 0.950 . S
H1854 C1878 0.950 . S
H1855 C1879 0.951 . S
H1856 C1881 0.951 . S
H1857 C1883 0.950 . S
H1858 C1884 0.950 . S
H1859 C1886 0.950 . S
H1860 C1889 0.950 . S
H1861 C1890 0.950 1_655 S
H1862 C1892 0.950 . S
H1863 C1893 0.950 . S
C1864 H1846 0.951 . S
C1864 C1865 1.366 . S
C1864 C1866 1.388 . S
C1865 C1864 1.366 . S
C1865 C1869 1.385 . S
C1866 H1847 0.951 . S
C1866 C1864 1.388 . S
C1866 C1867 1.366 . S
C1867 C1866 1.366 . S
C1867 C1868 1.414 . S
C1867 C1870 1.499 . S
C1868 H1848 0.950 . S
C1868 C1867 1.414 . S
C1868 C1869 1.374 . S
C1869 H1849 0.950 . S
C1869 C1865 1.385 . S
C1869 C1868 1.374 . S
C1870 C1867 1.499 . S
C1870 C1871 1.373 . S
C1870 C1872 1.389 . S
C1871 H1850 0.950 . S
C1871 C1870 1.373 . S
C1871 C1887 1.377 . S
C1872 C1870 1.389 . S
C1872 C1873 1.524 . S
C1872 C1886 1.377 . S
C1873 C1872 1.524 . S
C1873 C1874 1.397 . S
C1873 C1878 1.363 . S
C1874 H1851 0.950 . S
C1874 C1873 1.397 . S
C1874 C1875 1.334 . S
C1875 H1852 0.950 . S
C1875 C1874 1.334 . S
C1875 C1876 1.287 . S
C1876 C1875 1.287 . S
C1876 C1877 1.524 . S
C1876 H1895 0.913 . S
C1877 H1853 0.950 . S
C1877 C1876 1.524 . S
C1877 C1878 1.415 . S
C1878 H1854 0.950 . S
C1878 C1873 1.363 . S
C1878 C1877 1.415 . S
C1879 H1855 0.951 . S
C1879 C1880 1.366 . S
C1879 C1881 1.388 . S
C1880 C1879 1.366 . S
C1880 C1884 1.385 . S
C1881 H1856 0.951 . S
C1881 C1879 1.388 . S
C1881 C1882 1.366 . S
C1882 C1881 1.366 . S
C1882 C1883 1.414 . S
C1882 C1885 1.499 . S
C1883 H1857 0.950 . S
C1883 C1882 1.414 . S
C1883 C1884 1.374 . S
C1884 H1858 0.950 . S
C1884 C1880 1.385 . S
C1884 C1883 1.374 . S
C1885 C1882 1.499 . S
C1885 C1886 1.373 . S
C1885 C1887 1.389 . S
C1886 H1859 0.950 . S
C1886 C1872 1.377 . S
C1886 C1885 1.373 . S
C1887 C1871 1.377 . S
C1887 C1885 1.389 . S
C1887 C1888 1.524 . S
C1888 C1887 1.524 . S
C1888 C1889 1.397 . S
C1888 C1893 1.363 . S
C1889 H1860 0.950 . S
C1889 C1888 1.397 . S
C1889 C1890 1.334 . S
C1890 H1861 0.950 1_455 S
C1890 C1889 1.334 . S
C1890 C1891 1.287 1_455 S
C1891 C1890 1.287 1_655 S
C1891 C1892 1.524 1_655 S
C1891 H1894 0.999 . S
C1892 H1862 0.950 . S
C1892 C1891 1.524 1_455 S
C1892 C1893 1.415 . S
C1893 H1863 0.950 . S
C1893 C1888 1.363 . S
C1893 C1892 1.415 . S
H1894 C1891 0.999 . S
H1895 C1876 0.913 . S
C330 C217 1.540 . S
C315 C17 1.484 . S
C365 C30 1.467 . S
C380 C249 1.505 . S
C415 C61 1.463 1_556 S
C430 C272 1.499 . S
C480 C176 1.545 . S
C465 C72 1.499 . S
C530 C259 1.374 . S
C515 C19 1.462 . S
C580 C288 1.421 . S
C565 C33 1.450 . S
C630 C192 1.426 . S
C615 C59 1.465 . S
C680 C227 1.382 . S
C665 C75 1.424 . S
C715 C12 1.435 . S
C730 C255 1.395 . S
C765 C101 1.445 . S
C780 C230 1.383 . S
C815 C51 1.411 . S
C830 C198 1.350 . S
C880 C287 1.357 . S
C865 C124 1.415 . S
C930 C231 1.535 . S
C915 C9 1.490 1_565 S
C965 C103 1.489 . S
C980 C199 1.521 . S
C1015 C54 1.502 1_556 S
C1030 C286 1.570 . S
C1080 C254 1.576 . S
C1065 C122 1.516 . S
C1115 C145 1.470 1_556 S
C1130 C281 1.496 . S
C1165 C96 1.465 . S
C1180 C185 1.531 . S
C1215 C166 1.497 . S
C1230 C208 1.533 . S
C1265 C114 1.470 . S
C1280 C240 1.516 . S
C1330 C195 1.412 . S
C1315 C143 1.465 . S
C1365 C93 1.459 . S
C1380 C224 1.393 . S
C1415 C164 1.434 . S
C1430 C256 1.396 . S
C1480 C291 1.412 . S
C1465 C117 1.455 . S
C1515 C135 1.417 . S
C1530 C191 1.371 . S
C1565 C40 1.412 . S
C1580 C294 1.342 . S
C1615 C156 1.440 . S
C1630 C262 1.378 . S
C1680 C223 1.387 . S
C1665 C82 1.446 . S
C1730 C295 1.565 . S
C1715 C138 1.504 1_556 S
C1780 C263 1.564 . S
C1765 C38 1.511 . S
C1830 C222 1.537 . S
C1815 C159 1.471 . S
C1880 C190 1.547 . S
C1865 C80 1.487 . S
