# Generated by pormake.
# Topology anh, (6,3)-cn, num edge types: 1
# Building blocks:
#     Node 0, Type 0, BuildingBlock: GEDQOX_clean_sbu_0, # of connection points: 6
#     Node 1, Type 0, BuildingBlock: GEDQOX_clean_sbu_0, # of connection points: 6
#     Node 2, Type 0, BuildingBlock: GEDQOX_clean_sbu_0, # of connection points: 6
#     Node 3, Type 1, BuildingBlock: BELTOD_clean_linker_0, # of connection points: 3
#     Node 4, Type 1, BuildingBlock: BELTOD_clean_linker_0, # of connection points: 3
#     Node 5, Type 1, BuildingBlock: BELTOD_clean_linker_0, # of connection points: 3
#     Node 6, Type 1, BuildingBlock: BELTOD_clean_linker_0, # of connection points: 3
#     Node 7, Type 1, BuildingBlock: BELTOD_clean_linker_0, # of connection points: 3
#     Node 8, Type 1, BuildingBlock: BELTOD_clean_linker_0, # of connection points: 3
#     Edge 9, Type (0, 1), BuildingBlock: AJUNOK_clean_linker_0, # of connection points: 2
#     Edge 10, Type (0, 1), BuildingBlock: AJUNOK_clean_linker_0, # of connection points: 2
#     Edge 11, Type (0, 1), BuildingBlock: AJUNOK_clean_linker_0, # of connection points: 2
#     Edge 12, Type (0, 1), BuildingBlock: AJUNOK_clean_linker_0, # of connection points: 2
#     Edge 13, Type (0, 1), BuildingBlock: AJUNOK_clean_linker_0, # of connection points: 2
#     Edge 14, Type (0, 1), BuildingBlock: AJUNOK_clean_linker_0, # of connection points: 2
#     Edge 15, Type (0, 1), BuildingBlock: AJUNOK_clean_linker_0, # of connection points: 2
#     Edge 16, Type (0, 1), BuildingBlock: AJUNOK_clean_linker_0, # of connection points: 2
#     Edge 17, Type (0, 1), BuildingBlock: AJUNOK_clean_linker_0, # of connection points: 2
#     Edge 18, Type (0, 1), BuildingBlock: AJUNOK_clean_linker_0, # of connection points: 2
#     Edge 19, Type (0, 1), BuildingBlock: AJUNOK_clean_linker_0, # of connection points: 2
#     Edge 20, Type (0, 1), BuildingBlock: AJUNOK_clean_linker_0, # of connection points: 2
#     Edge 21, Type (0, 1), BuildingBlock: AJUNOK_clean_linker_0, # of connection points: 2
#     Edge 22, Type (0, 1), BuildingBlock: AJUNOK_clean_linker_0, # of connection points: 2
#     Edge 23, Type (0, 1), BuildingBlock: AJUNOK_clean_linker_0, # of connection points: 2
#     Edge 24, Type (0, 1), BuildingBlock: AJUNOK_clean_linker_0, # of connection points: 2
#     Edge 25, Type (0, 1), BuildingBlock: AJUNOK_clean_linker_0, # of connection points: 2
#     Edge 26, Type (0, 1), BuildingBlock: AJUNOK_clean_linker_0, # of connection points: 2
# Relax obj value: 0.213
# Max RMSD: 0.228
# Mean RMSD: 0.160
data_MOF--net-anh--node1-GEDQOX_clean_sbu_0--node2-BELTOD_clean_linker_0--edge1-AJUNOK_clean_linker_0
_symmetry_space_group_name_H-M    P1
_symmetry_Int_Tables_number       1
_symmetry_cell_setting            triclinic
loop_
_symmetry_equiv_pos_as_xyz
'x, y, z'
_cell_length_a     26.543869
_cell_length_b     25.691667
_cell_length_c     47.120996
_cell_angle_alpha  92.579733
_cell_angle_beta   92.89668
_cell_angle_gamma 100.36379
loop_
_atom_site_label
_atom_site_type_symbol
_atom_site_fract_x
_atom_site_fract_y
_atom_site_fract_z
_atom_type_partial_charge
Nd0 Nd 0.11521 0.56092 0.15394 0.0
Nd1 Nd 0.09525 0.43462 0.15534 0.0
C2 C 0.14421 0.65614 0.13562 0.0
C3 C 0.18969 0.69799 0.14322 0.0
C4 C 0.23429 0.7006 0.128 0.0
C5 C 0.27944 0.73529 0.13745 0.0
C6 C 0.28085 0.76797 0.16227 0.0
C7 C 0.23555 0.7677 0.17647 0.0
C8 C 0.19046 0.73306 0.16708 0.0
C9 C 0.12147 0.53227 0.20957 0.0
C10 C 0.2146 0.4939 0.15422 0.0
C11 C 1.05908 0.33552 0.16579 0.0
C12 C 1.00728 0.30462 0.16914 0.0
C13 C 0.98034 0.31255 0.19342 0.0
C14 C 0.93156 0.28286 0.1963 0.0
C15 C 0.90864 0.24473 0.17498 0.0
C16 C 0.93489 0.23788 0.15034 0.0
C17 C 0.9839 0.26726 0.14755 0.0
C18 C 0.10073 0.47806 0.10349 0.0
C19 C 0.99456 0.49955 0.1537 0.0
O20 O 0.15323 0.61307 0.12229 0.0
O21 O 0.11058 0.64612 0.15511 0.0
O22 O 0.12708 0.58113 0.20245 0.0
O23 O 0.11403 0.50237 0.18732 0.0
O24 O 0.19615 0.53762 0.14877 0.0
O25 O 0.18384 0.4499 0.16081 0.0
O26 O 1.07813 0.37175 0.18591 0.0
O27 O 1.06847 0.35102 0.14019 0.0
O28 O 0.12084 0.43664 0.10885 0.0
O29 O 1.07924 0.49293 0.1246 0.0
O30 O 1.01265 0.45501 0.15766 0.0
O31 O 1.02602 0.54505 0.15013 0.0
H32 H 0.23487 0.67453 0.10935 0.0
H33 H 0.31375 0.73509 0.12597 0.0
H34 H 0.23524 0.79365 0.1952 0.0
H35 H 0.15665 0.73275 0.17907 0.0
H36 H 0.99701 0.3413 0.21037 0.0
H37 H 0.91233 0.28877 0.2156 0.0
H38 H 0.91775 0.20947 0.13333 0.0
H39 H 1.0036 0.26064 0.1285 0.0
Nd40 Nd 0.51763 0.01535 0.52292 0.0
Nd41 Nd 0.62998 0.04001 0.5177 0.0
C42 C 0.42392 0.97158 0.53474 0.0
C43 C 0.39169 0.91967 0.52627 0.0
C44 C 0.37173 0.88595 0.54722 0.0
C45 C 0.34384 0.83528 0.53954 0.0
C46 C 0.33523 0.81764 0.51074 0.0
C47 C 0.35542 0.85138 0.48983 0.0
C48 C 0.38349 0.9018 0.49749 0.0
C49 C 0.54713 0.02345 0.46771 0.0
C50 C 0.58365 0.91713 0.5193 0.0
C51 C 0.72383 0.08327 0.50563 0.0
C52 C 0.75336 0.13789 0.505 0.0
C53 C 0.75499 0.16478 0.47965 0.0
C54 C 0.78604 0.21455 0.47843 0.0
C55 C 0.81622 0.2385 0.50251 0.0
C56 C 0.81294 0.21271 0.52818 0.0
C57 C 0.78189 0.16288 0.52942 0.0
C58 C 0.60255 0.02449 0.57212 0.0
C59 C 0.56375 0.13674 0.52375 0.0
O60 O 0.4643 0.97013 0.55155 0.0
O61 O 0.43344 1.00523 0.51478 0.0
O62 O 0.5085 0.04233 0.47695 0.0
O63 O 0.56704 1.00006 0.48692 0.0
O64 O 0.54252 0.93434 0.52765 0.0
O65 O 0.62248 0.95015 0.50988 0.0
O66 O 0.6864 0.06852 0.48616 0.0
O67 O 0.71227 0.06616 0.53061 0.0
O68 O 0.63997 1.00628 0.56098 0.0
O69 O 0.58137 0.05164 0.55497 0.0
O70 O 0.60224 0.11984 0.5118 0.0
O71 O 0.52805 0.10351 0.53534 0.0
H72 H 0.3784 0.89854 0.56956 0.0
H73 H 0.32969 0.80965 0.55613 0.0
H74 H 0.34928 0.83883 0.46747 0.0
H75 H 0.39912 0.92651 0.48084 0.0
H76 H 0.73366 0.1466 0.46044 0.0
H77 H 0.78877 0.23276 0.45814 0.0
H78 H 0.83604 0.23016 0.54701 0.0
H79 H 0.78152 0.14332 0.54932 0.0
Nd80 Nd 0.53633 0.5011 0.83175 0.0
Nd81 Nd 0.64845 0.52059 0.84166 0.0
C82 C 0.44493 0.46793 0.80645 0.0
C83 C 0.41372 0.49087 0.78583 0.0
C84 C 0.36786 0.46055 0.77386 0.0
C85 C 0.3284 0.48625 0.76461 0.0
C86 C 0.33429 0.54134 0.77029 0.0
C87 C 0.38433 0.57095 0.77354 0.0
C88 C 0.42407 0.54568 0.78256 0.0
C89 C 0.56739 0.51779 0.88836 0.0
C90 C 0.59328 0.6226 0.83812 0.0
C91 C 0.74055 0.51697 0.86214 0.0
C92 C 0.78168 0.49889 0.84667 0.0
C93 C 0.79405 0.44877 0.8509 0.0
C94 C 0.83488 0.433 0.83732 0.0
C95 C 0.86533 0.46811 0.82023 0.0
C96 C 0.84781 0.51481 0.81297 0.0
C97 C 0.8068 0.53011 0.82618 0.0
C98 C 0.63313 0.53044 0.78425 0.0
C99 C 0.59242 0.39983 0.82957 0.0
O100 O 0.48643 0.45442 0.79709 0.0
O101 O 0.45219 0.49264 0.8317 0.0
O102 O 0.52949 0.53697 0.87687 0.0
O103 O 0.58578 0.48976 0.87027 0.0
O104 O 0.5551 0.5898 0.82419 0.0
O105 O 0.6304 0.60393 0.85191 0.0
O106 O 0.70128 0.48003 0.86638 0.0
O107 O 0.72737 0.56148 0.85464 0.0
O108 O 0.67779 0.53675 0.79754 0.0
O109 O 0.59797 0.51982 0.8013 0.0
O110 O 0.63436 0.43363 0.82541 0.0
O111 O 0.55087 0.41654 0.83712 0.0
H112 H 0.36012 0.41789 0.77519 0.0
H113 H 0.29041 0.46267 0.76031 0.0
H114 H 0.39057 0.6138 0.77614 0.0
H115 H 0.46036 0.56946 0.79054 0.0
H116 H 0.77357 0.42268 0.86561 0.0
H117 H 0.84591 0.39586 0.84261 0.0
H118 H 0.86887 0.54316 0.79962 0.0
H119 H 0.79666 0.56784 0.82128 0.0
P120 P 0.62435 0.97862 0.25432 0.0
H121 H 0.60079 0.91152 0.20213 0.0
H122 H 0.51945 0.86488 0.1787 0.0
H123 H 0.43625 0.94097 0.2396 0.0
H124 H 0.51735 0.98796 0.26275 0.0
H125 H 0.71584 0.05194 0.27511 0.0
H126 H 0.77523 0.11855 0.25185 0.0
H127 H 0.67527 0.09339 0.17558 0.0
H128 H 0.61512 0.02701 0.19898 0.0
H129 H 0.60017 0.9085 0.29991 0.0
H130 H 0.61854 0.07644 0.28888 0.0
O131 O 0.66039 0.93169 0.25358 0.0
H132 H 0.58338 0.92307 0.34983 0.0
H133 H 0.60284 0.09146 0.33936 0.0
C134 C 0.56497 0.95219 0.2345 0.0
C135 C 0.565 0.91873 0.21016 0.0
C136 C 0.51871 0.8923 0.19676 0.0
C137 C 0.47195 0.89888 0.20772 0.0
C138 C 0.47201 0.9348 0.23109 0.0
C139 C 0.51827 0.9616 0.24429 0.0
C140 C 0.66071 0.03518 0.23898 0.0
C141 C 0.70574 0.06192 0.25372 0.0
C142 C 0.73963 0.09976 0.24047 0.0
C143 C 0.7292 0.11095 0.21218 0.0
C144 C 0.68345 0.08554 0.19757 0.0
C145 C 0.64926 0.04773 0.21095 0.0
C146 C 0.61226 0.99148 0.291 0.0
C147 C 0.60128 0.94862 0.30837 0.0
C148 C 0.59181 0.95701 0.33688 0.0
C149 C 0.59312 0.00852 0.3486 0.0
C150 C 0.60218 0.05143 0.33089 0.0
C151 C 0.61153 0.04292 0.30218 0.0
P152 P 0.63722 0.53696 0.56415 0.0
H153 H 0.66723 0.47117 0.51835 0.0
H154 H 0.64208 0.37711 0.5058 0.0
H155 H 0.51277 0.36983 0.55862 0.0
H156 H 0.54017 0.46423 0.57236 0.0
H157 H 0.70313 0.63661 0.55403 0.0
H158 H 0.68673 0.7221 0.54003 0.0
H159 H 0.52469 0.65769 0.52883 0.0
H160 H 0.54151 0.5712 0.5434 0.0
H161 H 0.67257 0.47417 0.60748 0.0
H162 H 0.57697 0.59308 0.60304 0.0
O163 O 0.70011 0.53882 0.56196 0.0
H164 H 0.66508 0.473 0.65889 0.0
H165 H 0.56929 0.59187 0.65484 0.0
C166 C 0.60607 0.47469 0.5466 0.0
C167 C 0.63254 0.44985 0.5266 0.0
C168 C 0.61778 0.39573 0.51925 0.0
C169 C 0.57534 0.36542 0.53123 0.0
C170 C 0.54606 0.39171 0.54928 0.0
C171 C 0.56132 0.44589 0.55691 0.0
C172 C 0.62359 0.59714 0.5495 0.0
C173 C 0.66405 0.64023 0.54809 0.0
C174 C 0.65468 0.68935 0.54 0.0
C175 C 0.60444 0.69695 0.53346 0.0
C176 C 0.56383 0.6533 0.53411 0.0
C177 C 0.57335 0.60377 0.54217 0.0
C178 C 0.62638 0.53453 0.60155 0.0
C179 C 0.64974 0.49987 0.61757 0.0
C180 C 0.64535 0.49911 0.6469 0.0
C181 C 0.61695 0.53261 0.66079 0.0
C182 C 0.59128 0.56556 0.64457 0.0
C183 C 0.59599 0.56652 0.61504 0.0
P184 P 0.13775 0.69277 0.92233 0.0
H185 H 0.23185 0.74636 0.89749 0.0
H186 H 0.27935 0.70992 0.86054 0.0
H187 H 0.20173 0.5521 0.87711 0.0
H188 H 0.16088 0.58751 0.91541 0.0
H189 H 1.02536 0.65762 0.92099 0.0
H190 H 0.97305 0.59065 0.8882 0.0
H191 H 0.09167 0.61246 0.82808 0.0
H192 H 0.14125 0.68237 0.85961 0.0
H193 H 0.17311 0.72074 0.98163 0.0
H194 H 1.07893 0.5876 0.93392 0.0
O195 O 0.14843 0.75846 0.92811 0.0
H196 H 0.16679 0.66942 0.02459 0.0
H197 H 1.07225 0.53766 0.97651 0.0
C198 C 0.1924 0.66983 0.90913 0.0
C199 C 0.2278 0.70379 0.89425 0.0
C200 C 0.25335 0.68296 0.87241 0.0
C201 C 0.24225 0.62829 0.86481 0.0
C202 C 0.21131 0.59441 0.88209 0.0
C203 C 0.18792 0.61492 0.9045 0.0
C204 C 0.08915 0.67133 0.89388 0.0
C205 C 1.0392 0.64961 0.9003 0.0
C206 C 1.00985 0.61065 0.88175 0.0
C207 C 1.03001 0.59401 0.85646 0.0
C208 C 1.07582 0.62311 0.84778 0.0
C209 C 0.10442 0.66297 0.8661 0.0
C210 C 0.1248 0.65917 0.95469 0.0
C211 C 0.15006 0.6813 0.98047 0.0
C212 C 0.14709 0.6519 0.0048 0.0
C213 C 0.11941 0.59987 0.00339 0.0
C214 C 0.09387 0.5778 0.97782 0.0
C215 C 0.09679 0.60707 0.95363 0.0
P216 P 0.13334 0.45725 0.42445 0.0
H217 H 0.20691 0.48137 0.47337 0.0
H218 H 0.25329 0.56512 0.4964 0.0
H219 H 0.17208 0.65205 0.43919 0.0
H220 H 0.12602 0.5682 0.41581 0.0
H221 H 1.07399 0.35149 0.422 0.0
H222 H 0.99736 0.31121 0.44504 0.0
H223 H 0.98345 0.46418 0.48225 0.0
H224 H 1.06104 0.50483 0.45909 0.0
H225 H 0.20291 0.4557 0.37893 0.0
H226 H 1.04641 0.47582 0.38723 0.0
O227 O 0.17206 0.41345 0.42911 0.0
H228 H 0.19422 0.46748 0.32778 0.0
H229 H 1.03735 0.48717 0.33588 0.0
C230 C 0.16399 0.51877 0.44249 0.0
C231 C 0.199 0.5184 0.46576 0.0
C232 C 0.22529 0.56601 0.47897 0.0
C233 C 0.21608 0.61443 0.46935 0.0
C234 C 0.17954 0.61485 0.44681 0.0
C235 C 0.15352 0.56718 0.43345 0.0
C236 C 1.07372 0.43077 0.43933 0.0
C237 C 1.05447 0.37652 0.435 0.0
C238 C 1.01083 0.35358 0.44817 0.0
C239 C 0.98526 0.38462 0.46567 0.0
C240 C 1.00288 0.43958 0.46894 0.0
C241 C 1.04713 0.46262 0.45581 0.0
C242 C 0.12516 0.46431 0.38676 0.0
C243 C 0.16648 0.46204 0.36967 0.0
C244 C 0.16142 0.46847 0.34044 0.0
C245 C 0.11511 0.47804 0.32787 0.0
C246 C 1.07357 0.48007 0.34506 0.0
C247 C 1.07865 0.47346 0.37435 0.0
P248 P 0.64554 0.02113 0.7898 0.0
H249 H 0.68546 0.09662 0.83747 0.0
H250 H 0.66709 0.18498 0.84927 0.0
H251 H 0.5327 0.15188 0.79155 0.0
H252 H 0.55026 0.06307 0.78015 0.0
H253 H 0.70012 0.93429 0.78387 0.0
H254 H 0.68528 0.8434 0.79847 0.0
H255 H 0.54964 0.87057 0.8394 0.0
H256 H 0.56451 0.96236 0.82405 0.0
H257 H 0.66051 0.10132 0.7483 0.0
H258 H 0.58497 0.93811 0.74973 0.0
O259 O 0.70912 0.04086 0.7915 0.0
H260 H 0.6372 0.10071 0.69741 0.0
H261 H 0.56194 0.93729 0.69864 0.0
C262 C 0.61968 0.07338 0.80763 0.0
C263 C 0.65077 0.1073 0.82827 0.0
C264 C 0.64049 0.1579 0.8349 0.0
C265 C 0.59887 0.175 0.82105 0.0
C266 C 0.56499 0.1393 0.80247 0.0
C267 C 0.57498 0.08851 0.79607 0.0
C268 C 0.63398 0.95546 0.8033 0.0
C269 C 0.66746 0.92107 0.79629 0.0
C270 C 0.65896 0.86896 0.8047 0.0
C271 C 0.61636 0.84949 0.82018 0.0
C272 C 0.58259 0.88409 0.82726 0.0
C273 C 0.59122 0.93667 0.81873 0.0
C274 C 0.62515 0.0196 0.75268 0.0
C275 C 0.63853 0.06549 0.73768 0.0
C276 C 0.62465 0.06533 0.70872 0.0
C277 C 0.59731 0.01911 0.69422 0.0
C278 C 0.58285 0.97347 0.70943 0.0
C279 C 0.59632 0.97383 0.73855 0.0
P280 P 0.59697 0.4623 0.10688 0.0
H281 H 0.65247 0.4268 0.15626 0.0
H282 H 0.7441 0.43707 0.16992 0.0
H283 H 0.77744 0.55516 0.10796 0.0
H284 H 0.68574 0.54656 0.09543 0.0
H285 H 0.49527 0.39721 0.09991 0.0
H286 H 0.41006 0.4072 0.11272 0.0
H287 H 0.47362 0.55661 0.15758 0.0
H288 H 0.56003 0.5468 0.14363 0.0
H289 H 0.66189 0.44341 0.06082 0.0
H290 H 0.53312 0.52199 0.07172 0.0
O291 O 0.59335 0.3967 0.10422 0.0
H292 H 0.66056 0.46216 0.01042 0.0
H293 H 0.52963 0.53812 0.02111 0.0
C294 C 0.66112 0.48565 0.12465 0.0
C295 C 0.67917 0.45633 0.14625 0.0
C296 C 0.73217 0.46136 0.15359 0.0
C297 C 0.76925 0.49553 0.13935 0.0
C298 C 0.75074 0.52797 0.11935 0.0
C299 C 0.69769 0.52319 0.11219 0.0
C300 C 0.5352 0.47046 0.1213 0.0
C301 C 0.49153 0.43192 0.11296 0.0
C302 C 0.44212 0.43774 0.12034 0.0
C303 C 0.4337 0.48278 0.13627 0.0
C304 C 0.47765 0.52162 0.14488 0.0
C305 C 0.52761 0.51576 0.13728 0.0
C306 C 0.59775 0.48129 0.07022 0.0
C307 C 0.63348 0.46501 0.05242 0.0
C308 C 0.63244 0.47546 0.0235 0.0
C309 C 0.59515 0.50196 0.01151 0.0
C310 C 0.55977 0.51886 0.02957 0.0
C311 C 0.56133 0.50903 0.05863 0.0
C312 C 0.29109 0.44609 0.15404 0.0
C313 C 0.27152 0.49343 0.15147 0.0
C314 C 0.34312 0.44358 0.14991 0.0
C315 C 0.37908 0.48825 0.14299 0.0
H316 H 0.2658 0.41002 0.15889 0.0
H317 H 0.35518 0.40579 0.15206 0.0
S318 S 0.34898 0.62274 0.13437 0.0
N319 N 0.29386 0.58696 0.14224 0.0
N320 N 0.39044 0.58195 0.13415 0.0
C321 C 0.36038 0.53618 0.14095 0.0
C322 C 0.30724 0.53879 0.14517 0.0
C323 C 0.90816 0.28125 0.50772 0.0
C324 C 0.85737 0.28484 0.49928 0.0
C325 C 0.94954 0.31696 0.49864 0.0
C326 C 0.94165 0.35772 0.48099 0.0
H327 H 0.91626 0.24816 0.51951 0.0
H328 H 0.98809 0.31055 0.50392 0.0
S329 S 0.81636 0.39073 0.45771 0.0
N330 N 0.80135 0.3372 0.47595 0.0
N331 N 0.87972 0.40447 0.45869 0.0
C332 C 0.89126 0.3651 0.47473 0.0
C333 C 0.84891 0.32849 0.48389 0.0
C334 C 0.64312 0.71606 0.84341 0.0
C335 C 0.59634 0.68112 0.83651 0.0
C336 C 0.6486 0.77055 0.83907 0.0
C337 C 0.60746 0.79277 0.82788 0.0
H338 H 0.67646 0.70105 0.85132 0.0
H339 H 0.68579 0.79542 0.84403 0.0
S340 S 0.47569 0.71954 0.80827 0.0
N341 N 0.50703 0.67369 0.81952 0.0
N342 N 0.51762 0.77567 0.81118 0.0
C343 C 0.5599 0.75876 0.82202 0.0
C344 C 0.55432 0.70316 0.82632 0.0
C345 C 0.91636 0.54447 0.14884 0.0
C346 C 0.93689 0.49762 0.15128 0.0
C347 C 0.86282 0.54358 0.1454 0.0
C348 C 0.82656 0.4958 0.14423 0.0
H349 H 0.94189 0.58251 0.14943 0.0
H350 H 0.84977 0.58096 0.14374 0.0
S351 S 0.85937 0.36126 0.14778 0.0
N352 N 0.91552 0.40148 0.1514 0.0
N353 N 0.81621 0.39984 0.1445 0.0
C354 C 0.84657 0.4486 0.1465 0.0
C355 C 0.90107 0.4495 0.15009 0.0
C356 C 0.32465 0.73149 0.48217 0.0
C357 C 0.30544 0.76418 0.50216 0.0
C358 C 0.29581 0.6824 0.47215 0.0
C359 C 0.24677 0.66456 0.48166 0.0
H360 H 0.3621 0.74416 0.47406 0.0
H361 H 0.31152 0.65865 0.45647 0.0
S362 S 0.17942 0.73364 0.53428 0.0
N363 N 0.23456 0.77425 0.5315 0.0
N364 N 0.18057 0.68165 0.51253 0.0
C365 C 0.22745 0.69597 0.50199 0.0
C366 C 0.25683 0.74587 0.51234 0.0
C367 C 0.56975 0.30825 0.84683 0.0
C368 C 0.59263 0.34238 0.82664 0.0
C369 C 0.57164 0.25384 0.84503 0.0
C370 C 0.59547 0.23188 0.82264 0.0
H371 H 0.55139 0.32394 0.86448 0.0
H372 H 0.55461 0.22886 0.86122 0.0
S373 S 0.6578 0.30349 0.76346 0.0
N374 N 0.63824 0.34993 0.78318 0.0
N375 N 0.64051 0.24761 0.77939 0.0
C376 C 0.61734 0.26533 0.80203 0.0
C377 C 0.61627 0.32067 0.80413 0.0
C378 C 0.62192 0.83682 0.50674 0.0
C379 C 0.58623 0.86001 0.52167 0.0
C380 C 0.62622 0.78356 0.5098 0.0
C381 C 0.59513 0.75134 0.52798 0.0
H382 H 0.64702 0.86001 0.4927 0.0
H383 H 0.65463 0.76762 0.49809 0.0
S384 S 0.49682 0.79325 0.57269 0.0
N385 N 0.51944 0.84635 0.55562 0.0
N386 N 0.52827 0.74706 0.56159 0.0
C387 C 0.55896 0.77387 0.54279 0.0
C388 C 0.55437 0.82794 0.53961 0.0
C389 C 0.94626 0.46076 0.84545 0.0
C390 C 0.92122 0.46711 0.81908 0.0
C391 C 0.98622 0.50029 0.85671 0.0
C392 C 1.00425 0.5443 0.84094 0.0
H393 H 0.92888 0.43225 0.85995 0.0
H394 H 0.99908 0.49934 0.87886 0.0
S395 S 0.97596 0.5543 0.76378 0.0
N396 N 0.9354 0.50148 0.77237 0.0
N397 N 1.01041 0.57747 0.79335 0.0
C398 C 0.99035 0.54108 0.81167 0.0
C399 C 0.94987 0.50012 0.80035 0.0
C400 C 0.36161 0.83337 0.15633 0.0
C401 C 0.32984 0.80081 0.17399 0.0
C402 C 0.40778 0.86507 0.16729 0.0
C403 C 0.42341 0.86536 0.19625 0.0
H404 H 0.35037 0.83486 0.134 0.0
H405 H 0.43107 0.88997 0.15314 0.0
S406 S 0.35751 0.78251 0.25052 0.0
N407 N 0.31983 0.76734 0.22125 0.0
N408 N 0.40605 0.82752 0.24182 0.0
C409 C 0.39277 0.83204 0.21391 0.0
C410 C 0.3461 0.79961 0.20279 0.0
C411 C 0.55308 0.22046 0.54997 0.0
C412 C 0.56168 0.19388 0.52448 0.0
C413 C 0.55563 0.27562 0.55166 0.0
C414 C 0.56588 0.30619 0.52775 0.0
H415 H 0.54652 0.19881 0.56906 0.0
H416 H 0.5516 0.29462 0.5722 0.0
S417 S 0.58262 0.25316 0.45485 0.0
N418 N 0.57616 0.20069 0.47426 0.0
N419 N 0.5783 0.30381 0.47689 0.0
C420 C 0.57143 0.2792 0.5017 0.0
C421 C 0.57 0.22324 0.5002 0.0
C422 C 0.29339 0.53275 0.81584 0.0
C423 C 0.2991 0.55904 0.79029 0.0
C424 C 0.27565 0.55589 0.83959 0.0
C425 C 0.26104 0.60568 0.83876 0.0
H426 H 0.30672 0.4957 0.81844 0.0
H427 H 0.2754 0.53514 0.8591 0.0
S428 S 0.26236 0.68788 0.77578 0.0
N429 N 0.28649 0.63602 0.76484 0.0
N430 N 0.24815 0.67821 0.8091 0.0
C431 C 0.26332 0.6311 0.81278 0.0
C432 C 0.28326 0.60799 0.78864 0.0
C433 C 0.81845 0.23207 0.19049 0.0
C434 C 0.859 0.21009 0.17964 0.0
C435 C 0.7744 0.1996 0.19935 0.0
C436 C 0.76951 0.14428 0.19742 0.0
H437 H 0.82167 0.27466 0.19316 0.0
H438 H 0.74513 0.21781 0.20894 0.0
S439 S 0.86284 0.06675 0.16959 0.0
N440 N 0.89011 0.12918 0.1667 0.0
N441 N 0.8068 0.06854 0.18293 0.0
C442 C 0.80828 0.12172 0.18536 0.0
C443 C 0.85318 0.15457 0.17648 0.0
C444 C 0.14312 0.50288 0.05851 0.0
C445 C 0.1043 0.50704 0.07724 0.0
C446 C 0.14837 0.53357 0.03455 0.0
C447 C 0.11494 0.56899 0.02885 0.0
H448 H 0.17 0.47663 0.06266 0.0
H449 H 0.17869 0.52979 0.02047 0.0
S450 S 1.00498 0.59144 0.06988 0.0
N451 N 1.03021 0.54718 0.08737 0.0
N452 N 1.04078 0.6048 0.04255 0.0
C453 C 1.07555 0.57263 0.04697 0.0
C454 C 1.07005 0.54159 0.07117 0.0
C455 C 0.5358 0.04765 0.41706 0.0
C456 C 0.5619 0.02294 0.43779 0.0
C457 C 0.5473 0.04466 0.38829 0.0
C458 C 0.58512 0.01665 0.37932 0.0
H459 H 0.5056 0.06856 0.42299 0.0
H460 H 0.52529 0.06283 0.37286 0.0
S461 S 0.6684 0.95008 0.42548 0.0
N462 N 0.62997 0.97292 0.44744 0.0
N463 N 0.6517 0.96793 0.39365 0.0
C464 C 0.61297 0.99385 0.39999 0.0
C465 C 0.60135 0.99685 0.42916 0.0
C466 C 0.67008 0.54545 0.73728 0.0
C467 C 0.62613 0.53414 0.75301 0.0
C468 C 0.66632 0.54608 0.7076 0.0
C469 C 0.61844 0.53569 0.69233 0.0
H470 H 0.70805 0.55304 0.74789 0.0
H471 H 0.70135 0.55423 0.69643 0.0
S472 S 0.49137 0.50614 0.7231 0.0
N473 N 0.53285 0.51433 0.75101 0.0
N474 N 0.5259 0.51526 0.69493 0.0
C475 C 0.57397 0.52592 0.70766 0.0
C476 C 0.57779 0.52514 0.73807 0.0
C477 C 0.61085 0.98002 0.61722 0.0
C478 C 0.59292 0.0202 0.60254 0.0
C479 C 0.60913 0.97824 0.64676 0.0
C480 C 0.58991 0.01693 0.66279 0.0
H481 H 0.62786 0.95053 0.60588 0.0
H482 H 0.62547 0.94794 0.65727 0.0
S483 S 0.53316 0.12711 0.63427 0.0
N484 N 0.55115 0.09686 0.60585 0.0
N485 N 0.54851 0.09397 0.6617 0.0
C486 C 0.56938 0.05577 0.64826 0.0
C487 C 0.57058 0.0572 0.61802 0.0
C488 C 0.59054 0.47066 0.9312 0.0
C489 C 0.57757 0.51632 0.91959 0.0
C490 C 0.59679 0.46676 0.96078 0.0
C491 C 0.5913 0.50876 0.98005 0.0
H492 H 0.59424 0.43689 0.91735 0.0
H493 H 0.60465 0.42985 0.96858 0.0
S494 S 0.56579 0.64023 0.96002 0.0
N495 N 0.56396 0.60612 0.9293 0.0
N496 N 0.57795 0.59996 0.98479 0.0
C497 C 0.58087 0.5557 0.96852 0.0
C498 C 0.57353 0.55921 0.93837 0.0
C499 C 0.12819 0.46813 0.24769 0.0
C500 C 0.11562 0.51614 0.23913 0.0
C501 C 0.12688 0.4553 0.2764 0.0
C502 C 0.11183 0.48952 0.29729 0.0
H503 H 0.14078 0.44128 0.23234 0.0
H504 H 0.13828 0.41869 0.28238 0.0
S505 S 1.07167 0.61811 0.28526 0.0
N506 N 1.08524 0.59667 0.2535 0.0
N507 N 1.08232 0.5723 0.3071 0.0
C508 C 0.09732 0.53658 0.28869 0.0
C509 C 0.09938 0.54996 0.25969 0.0
loop_
_geom_bond_atom_site_label_1
_geom_bond_atom_site_label_2
_geom_bond_distance
_geom_bond_site_symmetry_2
_ccdc_geom_bond_type
Nd0 C2 2.836 . S
Nd0 O20 2.500 . S
Nd0 O21 2.492 . S
Nd0 O22 2.487 . S
Nd0 O23 2.682 . S
Nd0 O24 2.410 . S
Nd0 O29 2.414 . S
Nd0 O31 2.424 1_455 S
Nd1 C11 2.836 . S
Nd1 O23 2.414 1_655 S
Nd1 O25 2.424 1_655 S
Nd1 O26 2.500 . S
Nd1 O27 2.492 . S
Nd1 O28 2.487 . S
Nd1 O29 2.682 1_655 S
Nd1 O30 2.410 . S
C2 Nd0 2.836 . S
C2 C3 1.498 . S
C2 O20 1.258 . S
C2 O21 1.239 . S
C3 C2 1.498 . S
C3 C4 1.366 . S
C3 C8 1.407 . S
C4 C3 1.366 . S
C4 C5 1.392 . S
C4 H32 0.930 . S
C5 C4 1.392 . S
C5 C6 1.398 . S
C5 H33 0.929 . S
C6 C5 1.398 . S
C6 C7 1.352 . S
C7 C6 1.352 . S
C7 C8 1.384 . S
C7 H34 0.930 . S
C8 C3 1.407 . S
C8 C7 1.384 . S
C8 H35 0.929 . S
C9 O22 1.241 . S
C9 O23 1.273 . S
C10 O24 1.251 . S
C10 O25 1.268 . S
C11 Nd1 2.836 . S
C11 C12 1.498 . S
C11 O26 1.258 . S
C11 O27 1.239 . S
C12 C11 1.498 . S
C12 C13 1.366 . S
C12 C17 1.407 . S
C13 C12 1.366 . S
C13 C14 1.392 . S
C13 H36 0.930 . S
C14 C13 1.392 . S
C14 C15 1.398 . S
C14 H37 0.929 . S
C15 C14 1.398 . S
C15 C16 1.352 . S
C16 C15 1.352 . S
C16 C17 1.384 . S
C16 H38 0.930 . S
C17 C12 1.407 . S
C17 C16 1.384 . S
C17 H39 0.929 . S
C18 O28 1.241 1_455 S
C18 O29 1.273 . S
C19 O30 1.251 . S
C19 O31 1.268 . S
O20 Nd0 2.500 . S
O20 C2 1.258 . S
O21 Nd0 2.492 . S
O21 C2 1.239 . S
O22 Nd0 2.487 . S
O22 C9 1.241 . S
O23 Nd0 2.682 . S
O23 Nd1 2.414 1_455 S
O23 C9 1.273 . S
O24 Nd0 2.410 . S
O24 C10 1.251 . S
O25 Nd1 2.424 1_455 S
O25 C10 1.268 . S
O26 Nd1 2.500 . S
O26 C11 1.258 . S
O27 Nd1 2.492 . S
O27 C11 1.239 . S
O28 Nd1 2.487 . S
O28 C18 1.241 1_655 S
O29 Nd0 2.414 . S
O29 Nd1 2.682 1_455 S
O29 C18 1.273 . S
O30 Nd1 2.410 . S
O30 C19 1.251 . S
O31 Nd0 2.424 1_655 S
O31 C19 1.268 . S
H32 C4 0.930 . S
H33 C5 0.929 . S
H34 C7 0.930 . S
H35 C8 0.929 . S
H36 C13 0.930 . S
H37 C14 0.929 . S
H38 C16 0.930 . S
H39 C17 0.929 . S
Nd40 C42 2.838 . S
Nd40 O60 2.502 . S
Nd40 O61 2.493 . S
Nd40 O62 2.487 . S
Nd40 O63 2.682 1_565 S
Nd40 O64 2.412 . S
Nd40 O69 2.414 1_565 S
Nd40 O71 2.422 1_565 S
Nd41 C51 2.836 . S
Nd41 O63 2.414 . S
Nd41 O65 2.424 1_545 S
Nd41 O66 2.500 . S
Nd41 O67 2.492 . S
Nd41 O68 2.487 . S
Nd41 O69 2.682 . S
Nd41 O70 2.410 . S
C42 Nd40 2.838 . S
C42 C43 1.498 . S
C42 O60 1.258 . S
C42 O61 1.239 . S
C43 C42 1.498 . S
C43 C44 1.366 . S
C43 C48 1.407 . S
C44 C43 1.366 . S
C44 C45 1.392 . S
C44 H72 0.930 . S
C45 C44 1.392 . S
C45 C46 1.398 . S
C45 H73 0.929 . S
C46 C45 1.398 . S
C46 C47 1.352 . S
C47 C46 1.352 . S
C47 C48 1.384 . S
C47 H74 0.930 . S
C48 C43 1.407 . S
C48 C47 1.384 . S
C48 H75 0.929 . S
C49 O62 1.241 1_545 S
C49 O63 1.273 . S
C50 O64 1.251 . S
C50 O65 1.268 . S
C51 Nd41 2.836 . S
C51 C52 1.498 . S
C51 O66 1.258 . S
C51 O67 1.239 . S
C52 C51 1.498 . S
C52 C53 1.366 . S
C52 C57 1.407 . S
C53 C52 1.366 . S
C53 C54 1.392 . S
C53 H76 0.930 . S
C54 C53 1.392 . S
C54 C55 1.398 . S
C54 H77 0.929 . S
C55 C54 1.398 . S
C55 C56 1.352 . S
C56 C55 1.352 . S
C56 C57 1.384 . S
C56 H78 0.930 . S
C57 C52 1.407 . S
C57 C56 1.384 . S
C57 H79 0.929 . S
C58 O68 1.241 . S
C58 O69 1.273 . S
C59 O70 1.251 . S
C59 O71 1.268 . S
O60 Nd40 2.502 . S
O60 C42 1.258 . S
O61 Nd40 2.493 . S
O61 C42 1.239 . S
O62 Nd40 2.487 . S
O62 C49 1.241 1_565 S
O63 Nd40 2.682 1_545 S
O63 Nd41 2.414 . S
O63 C49 1.273 . S
O64 Nd40 2.412 . S
O64 C50 1.251 . S
O65 Nd41 2.424 1_565 S
O65 C50 1.268 . S
O66 Nd41 2.500 . S
O66 C51 1.258 . S
O67 Nd41 2.492 . S
O67 C51 1.239 . S
O68 Nd41 2.487 . S
O68 C58 1.241 . S
O69 Nd40 2.414 1_545 S
O69 Nd41 2.682 . S
O69 C58 1.273 . S
O70 Nd41 2.410 . S
O70 C59 1.251 . S
O71 Nd40 2.422 1_545 S
O71 C59 1.268 . S
H72 C44 0.930 . S
H73 C45 0.929 . S
H74 C47 0.930 . S
H75 C48 0.929 . S
H76 C53 0.930 . S
H77 C54 0.929 . S
H78 C56 0.930 . S
H79 C57 0.929 . S
Nd80 C82 2.836 . S
Nd80 O100 2.500 . S
Nd80 O101 2.492 . S
Nd80 O102 2.487 . S
Nd80 O103 2.682 . S
Nd80 O104 2.410 . S
Nd80 O109 2.414 . S
Nd80 O111 2.424 . S
Nd81 C91 2.836 . S
Nd81 O103 2.414 . S
Nd81 O105 2.424 . S
Nd81 O106 2.500 . S
Nd81 O107 2.492 . S
Nd81 O108 2.487 . S
Nd81 O109 2.682 . S
Nd81 O110 2.410 . S
C82 Nd80 2.836 . S
C82 C83 1.498 . S
C82 O100 1.258 . S
C82 O101 1.239 . S
C83 C82 1.498 . S
C83 C84 1.366 . S
C83 C88 1.407 . S
C84 C83 1.366 . S
C84 C85 1.392 . S
C84 H112 0.930 . S
C85 C84 1.392 . S
C85 C86 1.398 . S
C85 H113 0.929 . S
C86 C85 1.398 . S
C86 C87 1.352 . S
C87 C86 1.352 . S
C87 C88 1.384 . S
C87 H114 0.930 . S
C88 C83 1.407 . S
C88 C87 1.384 . S
C88 H115 0.929 . S
C89 O102 1.241 . S
C89 O103 1.273 . S
C90 O104 1.251 . S
C90 O105 1.268 . S
C91 Nd81 2.836 . S
C91 C92 1.498 . S
C91 O106 1.258 . S
C91 O107 1.239 . S
C92 C91 1.498 . S
C92 C93 1.366 . S
C92 C97 1.407 . S
C93 C92 1.366 . S
C93 C94 1.392 . S
C93 H116 0.930 . S
C94 C93 1.392 . S
C94 C95 1.398 . S
C94 H117 0.929 . S
C95 C94 1.398 . S
C95 C96 1.352 . S
C96 C95 1.352 . S
C96 C97 1.384 . S
C96 H118 0.930 . S
C97 C92 1.407 . S
C97 C96 1.384 . S
C97 H119 0.929 . S
C98 O108 1.241 . S
C98 O109 1.273 . S
C99 O110 1.251 . S
C99 O111 1.268 . S
O100 Nd80 2.500 . S
O100 C82 1.258 . S
O101 Nd80 2.492 . S
O101 C82 1.239 . S
O102 Nd80 2.487 . S
O102 C89 1.241 . S
O103 Nd80 2.682 . S
O103 Nd81 2.414 . S
O103 C89 1.273 . S
O104 Nd80 2.410 . S
O104 C90 1.251 . S
O105 Nd81 2.424 . S
O105 C90 1.268 . S
O106 Nd81 2.500 . S
O106 C91 1.258 . S
O107 Nd81 2.492 . S
O107 C91 1.239 . S
O108 Nd81 2.487 . S
O108 C98 1.241 . S
O109 Nd80 2.414 . S
O109 Nd81 2.682 . S
O109 C98 1.273 . S
O110 Nd81 2.410 . S
O110 C99 1.251 . S
O111 Nd80 2.424 . S
O111 C99 1.268 . S
H112 C84 0.930 . S
H113 C85 0.929 . S
H114 C87 0.930 . S
H115 C88 0.929 . S
H116 C93 0.930 . S
H117 C94 0.929 . S
H118 C96 0.930 . S
H119 C97 0.929 . S
P120 O131 1.490 . S
P120 C134 1.812 . S
P120 C140 1.803 1_565 S
P120 C146 1.819 1_565 S
H121 C135 0.941 . S
H122 C136 0.939 . S
H123 C138 0.940 . S
H124 C139 0.937 1_545 S
H125 C141 0.939 . S
H126 C142 0.942 . S
H127 C144 0.940 . S
H128 C145 0.939 . S
H129 C147 0.941 . S
H130 C151 0.939 . S
O131 P120 1.490 . S
H132 C148 0.939 . S
H133 C150 0.940 . S
C134 P120 1.812 . S
C134 C135 1.389 . S
C134 C139 1.391 . S
C135 H121 0.941 . S
C135 C134 1.389 . S
C135 C136 1.397 . S
C136 H122 0.939 . S
C136 C135 1.397 . S
C136 C137 1.378 . S
C137 C136 1.378 . S
C137 C138 1.378 . S
C138 H123 0.940 . S
C138 C137 1.378 . S
C138 C139 1.396 . S
C139 H124 0.937 1_565 S
C139 C134 1.391 . S
C139 C138 1.396 . S
C140 P120 1.803 1_545 S
C140 C141 1.378 . S
C140 C145 1.400 . S
C141 H125 0.939 . S
C141 C140 1.378 . S
C141 C142 1.361 . S
C142 H126 0.942 . S
C142 C141 1.361 . S
C142 C143 1.369 . S
C143 C142 1.369 . S
C143 C144 1.404 . S
C144 H127 0.940 . S
C144 C143 1.404 . S
C144 C145 1.389 . S
C145 H128 0.939 . S
C145 C140 1.400 . S
C145 C144 1.389 . S
C146 P120 1.819 1_545 S
C146 C147 1.391 1_545 S
C146 C151 1.391 . S
C147 H129 0.941 . S
C147 C146 1.391 1_565 S
C147 C148 1.396 . S
C148 H132 0.939 . S
C148 C147 1.396 . S
C148 C149 1.397 1_565 S
C149 C148 1.397 1_545 S
C149 C150 1.385 . S
C150 H133 0.940 . S
C150 C149 1.385 . S
C150 C151 1.388 . S
C151 H130 0.939 . S
C151 C146 1.391 . S
C151 C150 1.388 . S
P152 O163 1.490 . S
P152 C166 1.812 . S
P152 C172 1.803 . S
P152 C178 1.819 . S
H153 C167 0.941 . S
H154 C168 0.939 . S
H155 C170 0.940 . S
H156 C171 0.940 . S
H157 C173 0.939 . S
H158 C174 0.942 . S
H159 C176 0.940 . S
H160 C177 0.939 . S
H161 C179 0.941 . S
H162 C183 0.939 . S
O163 P152 1.490 . S
H164 C180 0.939 . S
H165 C182 0.940 . S
C166 P152 1.812 . S
C166 C167 1.389 . S
C166 C171 1.391 . S
C167 H153 0.941 . S
C167 C166 1.389 . S
C167 C168 1.397 . S
C168 H154 0.939 . S
C168 C167 1.397 . S
C168 C169 1.378 . S
C169 C168 1.378 . S
C169 C170 1.378 . S
C170 H155 0.940 . S
C170 C169 1.378 . S
C170 C171 1.396 . S
C171 H156 0.940 . S
C171 C166 1.391 . S
C171 C170 1.396 . S
C172 P152 1.803 . S
C172 C173 1.378 . S
C172 C177 1.400 . S
C173 H157 0.939 . S
C173 C172 1.378 . S
C173 C174 1.361 . S
C174 H158 0.942 . S
C174 C173 1.361 . S
C174 C175 1.369 . S
C175 C174 1.369 . S
C175 C176 1.404 . S
C176 H159 0.940 . S
C176 C175 1.404 . S
C176 C177 1.389 . S
C177 H160 0.939 . S
C177 C172 1.400 . S
C177 C176 1.389 . S
C178 P152 1.819 . S
C178 C179 1.391 . S
C178 C183 1.391 . S
C179 H161 0.941 . S
C179 C178 1.391 . S
C179 C180 1.396 . S
C180 H164 0.939 . S
C180 C179 1.396 . S
C180 C181 1.397 . S
C181 C180 1.397 . S
C181 C182 1.385 . S
C182 H165 0.940 . S
C182 C181 1.385 . S
C182 C183 1.388 . S
C183 H162 0.939 . S
C183 C178 1.391 . S
C183 C182 1.388 . S
P184 O195 1.490 . S
P184 C198 1.812 . S
P184 C204 1.803 1_455 S
P184 C210 1.819 . S
H185 C199 0.941 . S
H186 C200 0.939 . S
H187 C202 0.940 . S
H188 C203 0.940 . S
H189 C205 0.939 . S
H190 C206 0.942 . S
H191 C208 0.940 . S
H192 C209 0.941 . S
H193 C211 0.941 . S
H194 C215 0.922 1_655 S
O195 P184 1.490 . S
H196 C212 0.939 1_554 S
H197 C214 0.940 . S
C198 P184 1.812 . S
C198 C199 1.389 . S
C198 C203 1.391 . S
C199 H185 0.941 . S
C199 C198 1.389 . S
C199 C200 1.397 . S
C200 H186 0.939 . S
C200 C199 1.397 . S
C200 C201 1.378 . S
C201 C200 1.378 . S
C201 C202 1.378 . S
C202 H187 0.940 . S
C202 C201 1.378 . S
C202 C203 1.396 . S
C203 H188 0.940 . S
C203 C198 1.391 . S
C203 C202 1.396 . S
C204 P184 1.803 1_655 S
C204 C205 1.378 . S
C204 C209 1.400 . S
C205 H189 0.939 . S
C205 C204 1.378 . S
C205 C206 1.361 . S
C206 H190 0.942 . S
C206 C205 1.361 . S
C206 C207 1.369 . S
C207 C206 1.369 . S
C207 C208 1.404 . S
C208 H191 0.940 . S
C208 C207 1.404 . S
C208 C209 1.389 . S
C209 H192 0.941 . S
C209 C204 1.400 . S
C209 C208 1.389 . S
C210 P184 1.819 . S
C210 C211 1.391 . S
C210 C215 1.407 . S
C211 H193 0.941 . S
C211 C210 1.391 . S
C211 C212 1.396 . S
C212 H196 0.939 1_556 S
C212 C211 1.396 . S
C212 C213 1.397 1_556 S
C213 C212 1.397 1_554 S
C213 C214 1.385 1_454 S
C214 H197 0.940 . S
C214 C213 1.385 1_656 S
C214 C215 1.390 1_655 S
C215 H194 0.922 1_455 S
C215 C210 1.407 . S
C215 C214 1.390 1_455 S
P216 O227 1.490 . S
P216 C230 1.812 . S
P216 C236 1.803 1_455 S
P216 C242 1.819 . S
H217 C231 0.941 . S
H218 C232 0.939 . S
H219 C234 0.940 . S
H220 C235 0.940 . S
H221 C237 0.939 . S
H222 C238 0.942 . S
H223 C240 0.940 . S
H224 C241 0.939 . S
H225 C243 0.941 . S
H226 C247 0.939 . S
O227 P216 1.490 . S
H228 C244 0.939 . S
H229 C246 0.940 . S
C230 P216 1.812 . S
C230 C231 1.389 . S
C230 C235 1.391 . S
C231 H217 0.941 . S
C231 C230 1.389 . S
C231 C232 1.397 . S
C232 H218 0.939 . S
C232 C231 1.397 . S
C232 C233 1.378 . S
C233 C232 1.378 . S
C233 C234 1.378 . S
C234 H219 0.940 . S
C234 C233 1.378 . S
C234 C235 1.396 . S
C235 H220 0.940 . S
C235 C230 1.391 . S
C235 C234 1.396 . S
C236 P216 1.803 1_655 S
C236 C237 1.378 . S
C236 C241 1.400 . S
C237 H221 0.939 . S
C237 C236 1.378 . S
C237 C238 1.361 . S
C238 H222 0.942 . S
C238 C237 1.361 . S
C238 C239 1.369 . S
C239 C238 1.369 . S
C239 C240 1.404 . S
C240 H223 0.940 . S
C240 C239 1.404 . S
C240 C241 1.389 . S
C241 H224 0.939 . S
C241 C236 1.400 . S
C241 C240 1.389 . S
C242 P216 1.819 . S
C242 C243 1.391 . S
C242 C247 1.391 1_455 S
C243 H225 0.941 . S
C243 C242 1.391 . S
C243 C244 1.396 . S
C244 H228 0.939 . S
C244 C243 1.396 . S
C244 C245 1.397 . S
C245 C244 1.397 . S
C245 C246 1.385 1_455 S
C246 H229 0.940 . S
C246 C245 1.385 1_655 S
C246 C247 1.388 . S
C247 H226 0.939 . S
C247 C242 1.391 1_655 S
C247 C246 1.388 . S
P248 O259 1.490 . S
P248 C262 1.812 . S
P248 C268 1.803 1_545 S
P248 C274 1.819 . S
H249 C263 0.941 . S
H250 C264 0.939 . S
H251 C266 0.940 . S
H252 C267 0.940 . S
H253 C269 0.939 . S
H254 C270 0.942 . S
H255 C272 0.940 . S
H256 C273 0.939 . S
H257 C275 0.941 . S
H258 C279 0.939 . S
O259 P248 1.490 . S
H260 C276 0.939 . S
H261 C278 0.940 . S
C262 P248 1.812 . S
C262 C263 1.389 . S
C262 C267 1.391 . S
C263 H249 0.941 . S
C263 C262 1.389 . S
C263 C264 1.397 . S
C264 H250 0.939 . S
C264 C263 1.397 . S
C264 C265 1.378 . S
C265 C264 1.378 . S
C265 C266 1.378 . S
C266 H251 0.940 . S
C266 C265 1.378 . S
C266 C267 1.396 . S
C267 H252 0.940 . S
C267 C262 1.391 . S
C267 C266 1.396 . S
C268 P248 1.803 1_565 S
C268 C269 1.378 . S
C268 C273 1.400 . S
C269 H253 0.939 . S
C269 C268 1.378 . S
C269 C270 1.361 . S
C270 H254 0.942 . S
C270 C269 1.361 . S
C270 C271 1.369 . S
C271 C270 1.369 . S
C271 C272 1.404 . S
C272 H255 0.940 . S
C272 C271 1.404 . S
C272 C273 1.389 . S
C273 H256 0.939 . S
C273 C268 1.400 . S
C273 C272 1.389 . S
C274 P248 1.819 . S
C274 C275 1.391 . S
C274 C279 1.391 1_545 S
C275 H257 0.941 . S
C275 C274 1.391 . S
C275 C276 1.396 . S
C276 H260 0.939 . S
C276 C275 1.396 . S
C276 C277 1.397 . S
C277 C276 1.397 . S
C277 C278 1.385 1_545 S
C278 H261 0.940 . S
C278 C277 1.385 1_565 S
C278 C279 1.388 . S
C279 H258 0.939 . S
C279 C274 1.391 1_565 S
C279 C278 1.388 . S
P280 O291 1.490 . S
P280 C294 1.812 . S
P280 C300 1.803 . S
P280 C306 1.819 . S
H281 C295 0.941 . S
H282 C296 0.939 . S
H283 C298 0.940 . S
H284 C299 0.940 . S
H285 C301 0.939 . S
H286 C302 0.942 . S
H287 C304 0.940 . S
H288 C305 0.939 . S
H289 C307 0.941 . S
H290 C311 0.939 . S
O291 P280 1.490 . S
H292 C308 0.939 . S
H293 C310 0.940 . S
C294 P280 1.812 . S
C294 C295 1.389 . S
C294 C299 1.391 . S
C295 H281 0.941 . S
C295 C294 1.389 . S
C295 C296 1.397 . S
C296 H282 0.939 . S
C296 C295 1.397 . S
C296 C297 1.378 . S
C297 C296 1.378 . S
C297 C298 1.378 . S
C298 H283 0.940 . S
C298 C297 1.378 . S
C298 C299 1.396 . S
C299 H284 0.940 . S
C299 C294 1.391 . S
C299 C298 1.396 . S
C300 P280 1.803 . S
C300 C301 1.378 . S
C300 C305 1.400 . S
C301 H285 0.939 . S
C301 C300 1.378 . S
C301 C302 1.361 . S
C302 H286 0.942 . S
C302 C301 1.361 . S
C302 C303 1.369 . S
C303 C302 1.369 . S
C303 C304 1.404 . S
C304 H287 0.940 . S
C304 C303 1.404 . S
C304 C305 1.389 . S
C305 H288 0.939 . S
C305 C300 1.400 . S
C305 C304 1.389 . S
C306 P280 1.819 . S
C306 C307 1.391 . S
C306 C311 1.391 . S
C307 H289 0.941 . S
C307 C306 1.391 . S
C307 C308 1.396 . S
C308 H292 0.939 . S
C308 C307 1.396 . S
C308 C309 1.397 . S
C309 C308 1.397 . S
C309 C310 1.385 . S
C310 H293 0.940 . S
C310 C309 1.385 . S
C310 C311 1.388 . S
C311 H290 0.939 . S
C311 C306 1.391 . S
C311 C310 1.388 . S
C312 C313 1.369 . S
C312 C314 1.419 . S
C312 H316 0.930 . S
C313 C312 1.369 . S
C313 C322 1.429 . S
C314 C312 1.419 . S
C314 C315 1.363 . S
C314 H317 0.929 . S
C315 C314 1.363 . S
C315 C321 1.428 . S
H316 C312 0.930 . S
H317 C314 0.929 . S
S318 N319 1.613 . S
S318 N320 1.610 . S
N319 S318 1.613 . S
N319 C322 1.350 . S
N320 S318 1.610 . S
N320 C321 1.351 . S
C321 C315 1.428 . S
C321 N320 1.351 . S
C321 C322 1.434 . S
C322 C313 1.429 . S
C322 N319 1.350 . S
C322 C321 1.434 . S
C323 C324 1.369 . S
C323 C325 1.419 . S
C323 H327 0.930 . S
C324 C323 1.369 . S
C324 C333 1.429 . S
C325 C323 1.419 . S
C325 C326 1.363 . S
C325 H328 0.929 . S
C326 C325 1.363 . S
C326 C332 1.428 . S
H327 C323 0.930 . S
H328 C325 0.929 . S
S329 N330 1.613 . S
S329 N331 1.610 . S
N330 S329 1.613 . S
N330 C333 1.350 . S
N331 S329 1.610 . S
N331 C332 1.351 . S
C332 C326 1.428 . S
C332 N331 1.351 . S
C332 C333 1.434 . S
C333 C324 1.429 . S
C333 N330 1.350 . S
C333 C332 1.434 . S
C334 C335 1.369 . S
C334 C336 1.419 . S
C334 H338 0.930 . S
C335 C334 1.369 . S
C335 C344 1.429 . S
C336 C334 1.419 . S
C336 C337 1.363 . S
C336 H339 0.929 . S
C337 C336 1.363 . S
C337 C343 1.428 . S
H338 C334 0.930 . S
H339 C336 0.929 . S
S340 N341 1.613 . S
S340 N342 1.610 . S
N341 S340 1.613 . S
N341 C344 1.350 . S
N342 S340 1.610 . S
N342 C343 1.351 . S
C343 C337 1.428 . S
C343 N342 1.351 . S
C343 C344 1.434 . S
C344 C335 1.429 . S
C344 N341 1.350 . S
C344 C343 1.434 . S
C345 C346 1.369 . S
C345 C347 1.419 . S
C345 H349 0.930 . S
C346 C345 1.369 . S
C346 C355 1.429 . S
C347 C345 1.419 . S
C347 C348 1.363 . S
C347 H350 0.929 . S
C348 C347 1.363 . S
C348 C354 1.428 . S
H349 C345 0.930 . S
H350 C347 0.929 . S
S351 N352 1.613 . S
S351 N353 1.610 . S
N352 S351 1.613 . S
N352 C355 1.350 . S
N353 S351 1.610 . S
N353 C354 1.351 . S
C354 C348 1.428 . S
C354 N353 1.351 . S
C354 C355 1.434 . S
C355 C346 1.429 . S
C355 N352 1.350 . S
C355 C354 1.434 . S
C356 C357 1.369 . S
C356 C358 1.419 . S
C356 H360 0.930 . S
C357 C356 1.369 . S
C357 C366 1.429 . S
C358 C356 1.419 . S
C358 C359 1.363 . S
C358 H361 0.929 . S
C359 C358 1.363 . S
C359 C365 1.428 . S
H360 C356 0.930 . S
H361 C358 0.929 . S
S362 N363 1.613 . S
S362 N364 1.610 . S
N363 S362 1.613 . S
N363 C366 1.350 . S
N364 S362 1.610 . S
N364 C365 1.351 . S
C365 C359 1.428 . S
C365 N364 1.351 . S
C365 C366 1.434 . S
C366 C357 1.429 . S
C366 N363 1.350 . S
C366 C365 1.434 . S
C367 C368 1.369 . S
C367 C369 1.419 . S
C367 H371 0.930 . S
C368 C367 1.369 . S
C368 C377 1.429 . S
C369 C367 1.419 . S
C369 C370 1.363 . S
C369 H372 0.929 . S
C370 C369 1.363 . S
C370 C376 1.428 . S
H371 C367 0.930 . S
H372 C369 0.929 . S
S373 N374 1.613 . S
S373 N375 1.610 . S
N374 S373 1.613 . S
N374 C377 1.350 . S
N375 S373 1.610 . S
N375 C376 1.351 . S
C376 C370 1.428 . S
C376 N375 1.351 . S
C376 C377 1.434 . S
C377 C368 1.429 . S
C377 N374 1.350 . S
C377 C376 1.434 . S
C378 C379 1.369 . S
C378 C380 1.419 . S
C378 H382 0.930 . S
C379 C378 1.369 . S
C379 C388 1.429 . S
C380 C378 1.419 . S
C380 C381 1.363 . S
C380 H383 0.929 . S
C381 C380 1.363 . S
C381 C387 1.428 . S
H382 C378 0.930 . S
H383 C380 0.929 . S
S384 N385 1.613 . S
S384 N386 1.610 . S
N385 S384 1.613 . S
N385 C388 1.350 . S
N386 S384 1.610 . S
N386 C387 1.351 . S
C387 C381 1.428 . S
C387 N386 1.351 . S
C387 C388 1.434 . S
C388 C379 1.429 . S
C388 N385 1.350 . S
C388 C387 1.434 . S
C389 C390 1.369 . S
C389 C391 1.419 . S
C389 H393 0.930 . S
C390 C389 1.369 . S
C390 C399 1.429 . S
C391 C389 1.419 . S
C391 C392 1.363 . S
C391 H394 0.929 . S
C392 C391 1.363 . S
C392 C398 1.428 . S
H393 C389 0.930 . S
H394 C391 0.929 . S
S395 N396 1.613 . S
S395 N397 1.610 . S
N396 S395 1.613 . S
N396 C399 1.350 . S
N397 S395 1.610 . S
N397 C398 1.351 . S
C398 C392 1.428 . S
C398 N397 1.351 . S
C398 C399 1.434 . S
C399 C390 1.429 . S
C399 N396 1.350 . S
C399 C398 1.434 . S
C400 C401 1.369 . S
C400 C402 1.419 . S
C400 H404 0.930 . S
C401 C400 1.369 . S
C401 C410 1.429 . S
C402 C400 1.419 . S
C402 C403 1.363 . S
C402 H405 0.929 . S
C403 C402 1.363 . S
C403 C409 1.428 . S
H404 C400 0.930 . S
H405 C402 0.929 . S
S406 N407 1.613 . S
S406 N408 1.610 . S
N407 S406 1.613 . S
N407 C410 1.350 . S
N408 S406 1.610 . S
N408 C409 1.351 . S
C409 C403 1.428 . S
C409 N408 1.351 . S
C409 C410 1.434 . S
C410 C401 1.429 . S
C410 N407 1.350 . S
C410 C409 1.434 . S
C411 C412 1.369 . S
C411 C413 1.419 . S
C411 H415 0.930 . S
C412 C411 1.369 . S
C412 C421 1.429 . S
C413 C411 1.419 . S
C413 C414 1.363 . S
C413 H416 0.929 . S
C414 C413 1.363 . S
C414 C420 1.428 . S
H415 C411 0.930 . S
H416 C413 0.929 . S
S417 N418 1.613 . S
S417 N419 1.610 . S
N418 S417 1.613 . S
N418 C421 1.350 . S
N419 S417 1.610 . S
N419 C420 1.351 . S
C420 C414 1.428 . S
C420 N419 1.351 . S
C420 C421 1.434 . S
C421 C412 1.429 . S
C421 N418 1.350 . S
C421 C420 1.434 . S
C422 C423 1.369 . S
C422 C424 1.419 . S
C422 H426 0.930 . S
C423 C422 1.369 . S
C423 C432 1.429 . S
C424 C422 1.419 . S
C424 C425 1.363 . S
C424 H427 0.929 . S
C425 C424 1.363 . S
C425 C431 1.428 . S
H426 C422 0.930 . S
H427 C424 0.929 . S
S428 N429 1.613 . S
S428 N430 1.610 . S
N429 S428 1.613 . S
N429 C432 1.350 . S
N430 S428 1.610 . S
N430 C431 1.351 . S
C431 C425 1.428 . S
C431 N430 1.351 . S
C431 C432 1.434 . S
C432 C423 1.429 . S
C432 N429 1.350 . S
C432 C431 1.434 . S
C433 C434 1.369 . S
C433 C435 1.419 . S
C433 H437 0.930 . S
C434 C433 1.369 . S
C434 C443 1.429 . S
C435 C433 1.419 . S
C435 C436 1.363 . S
C435 H438 0.929 . S
C436 C435 1.363 . S
C436 C442 1.428 . S
H437 C433 0.930 . S
H438 C435 0.929 . S
S439 N440 1.613 . S
S439 N441 1.610 . S
N440 S439 1.613 . S
N440 C443 1.350 . S
N441 S439 1.610 . S
N441 C442 1.351 . S
C442 C436 1.428 . S
C442 N441 1.351 . S
C442 C443 1.434 . S
C443 C434 1.429 . S
C443 N440 1.350 . S
C443 C442 1.434 . S
C444 C445 1.369 . S
C444 C446 1.419 . S
C444 H448 0.930 . S
C445 C444 1.369 . S
C445 C454 1.429 1_455 S
C446 C444 1.419 . S
C446 C447 1.363 . S
C446 H449 0.929 . S
C447 C446 1.363 . S
C447 C453 1.437 . S
H448 C444 0.930 . S
H449 C446 0.929 . S
S450 N451 1.613 . S
S450 N452 1.610 . S
N451 S450 1.613 . S
N451 C454 1.350 . S
N452 S450 1.610 . S
N452 C453 1.341 1_655 S
C453 C447 1.437 . S
C453 N452 1.341 1_455 S
C453 C454 1.435 1_455 S
C454 C445 1.429 1_655 S
C454 N451 1.350 . S
C454 C453 1.435 1_655 S
C455 C456 1.369 . S
C455 C457 1.419 . S
C455 H459 0.930 . S
C456 C455 1.369 . S
C456 C465 1.429 1_545 S
C457 C455 1.419 . S
C457 C458 1.363 . S
C457 H460 0.929 . S
C458 C457 1.363 . S
C458 C464 1.428 . S
H459 C455 0.930 . S
H460 C457 0.929 . S
S461 N462 1.613 . S
S461 N463 1.610 . S
N462 S461 1.613 . S
N462 C465 1.350 . S
N463 S461 1.610 . S
N463 C464 1.351 1_565 S
C464 C458 1.428 . S
C464 N463 1.351 1_545 S
C464 C465 1.434 1_545 S
C465 C456 1.429 1_565 S
C465 N462 1.350 . S
C465 C464 1.434 1_565 S
C466 C467 1.369 . S
C466 C468 1.419 . S
C466 H470 0.930 . S
C467 C466 1.369 . S
C467 C476 1.429 . S
C468 C466 1.419 . S
C468 C469 1.363 . S
C468 H471 0.929 . S
C469 C468 1.363 . S
C469 C475 1.428 . S
H470 C466 0.930 . S
H471 C468 0.929 . S
S472 N473 1.613 . S
S472 N474 1.610 . S
N473 S472 1.613 . S
N473 C476 1.350 . S
N474 S472 1.610 . S
N474 C475 1.351 . S
C475 C469 1.428 . S
C475 N474 1.351 . S
C475 C476 1.434 . S
C476 C467 1.429 . S
C476 N473 1.350 . S
C476 C475 1.434 . S
C477 C478 1.369 1_565 S
C477 C479 1.419 . S
C477 H481 0.930 . S
C478 C477 1.369 1_545 S
C478 C487 1.429 . S
C479 C477 1.419 . S
C479 C480 1.363 1_565 S
C479 H482 0.929 . S
C480 C479 1.363 1_545 S
C480 C486 1.428 . S
H481 C477 0.930 . S
H482 C479 0.929 . S
S483 N484 1.613 . S
S483 N485 1.610 . S
N484 S483 1.613 . S
N484 C487 1.350 . S
N485 S483 1.610 . S
N485 C486 1.351 . S
C486 C480 1.428 . S
C486 N485 1.351 . S
C486 C487 1.434 . S
C487 C478 1.429 . S
C487 N484 1.350 . S
C487 C486 1.434 . S
C488 C489 1.369 . S
C488 C490 1.419 . S
C488 H492 0.930 . S
C489 C488 1.369 . S
C489 C498 1.429 . S
C490 C488 1.419 . S
C490 C491 1.363 . S
C490 H493 0.929 . S
C491 C490 1.363 . S
C491 C497 1.428 . S
H492 C488 0.930 . S
H493 C490 0.929 . S
S494 N495 1.613 . S
S494 N496 1.610 . S
N495 S494 1.613 . S
N495 C498 1.350 . S
N496 S494 1.610 . S
N496 C497 1.351 . S
C497 C491 1.428 . S
C497 N496 1.351 . S
C497 C498 1.434 . S
C498 C489 1.429 . S
C498 N495 1.350 . S
C498 C497 1.434 . S
C499 C500 1.369 . S
C499 C501 1.419 . S
C499 H503 0.930 . S
C500 C499 1.369 . S
C500 C509 1.420 1_455 S
C501 C499 1.419 . S
C501 C502 1.363 . S
C501 H504 0.929 . S
C502 C501 1.363 . S
C502 C508 1.428 1_455 S
H503 C499 0.930 . S
H504 C501 0.929 . S
S505 N506 1.613 . S
S505 N507 1.610 . S
N506 S505 1.613 . S
N506 C509 1.357 . S
N507 S505 1.610 . S
N507 C508 1.351 . S
C508 C502 1.428 1_655 S
C508 N507 1.351 . S
C508 C509 1.435 . S
C509 C500 1.420 1_655 S
C509 N506 1.357 . S
C509 C508 1.435 . S
C313 C10 3.120 . S
C315 C303 3.041 . S
C324 C55 1.318 . S
C326 C239 1.363 . S
C335 C90 1.964 . S
C337 C271 1.932 . S
C346 C19 3.068 . S
C348 C297 3.036 . S
C359 C233 1.379 . S
C357 C46 1.351 . S
C370 C265 2.008 . S
C368 C99 2.086 . S
C379 C50 1.963 . S
C381 C175 1.895 . S
C390 C95 0.935 . S
C392 C207 1.063 . S
C401 C6 1.345 . S
C403 C137 1.360 . S
C414 C169 1.971 . S
C412 C59 2.056 . S
C425 C201 0.715 . S
C423 C86 0.744 . S
C434 C15 1.443 . S
C436 C143 1.420 . S
C447 C213 1.088 . S
C445 C18 1.080 . S
C456 C49 1.452 . S
C458 C149 1.439 . S
C467 C98 1.326 . S
C469 C181 1.325 . S
C480 C277 1.344 . S
C478 C58 1.329 . S
C491 C309 1.766 1_556 S
C489 C89 1.729 . S
C500 C9 1.444 . S
C502 C245 1.480 . S
