# Generated by pormake.
# Topology ptr, (4,4)-cn, num edge types: 1
# Building blocks:
#     Node 0, Type 0, BuildingBlock: QUQFOY_clean_sbu_1, # of connection points: 4
#     Node 1, Type 0, BuildingBlock: QUQFOY_clean_sbu_1, # of connection points: 4
#     Node 2, Type 0, BuildingBlock: QUQFOY_clean_sbu_1, # of connection points: 4
#     Node 3, Type 0, BuildingBlock: QUQFOY_clean_sbu_1, # of connection points: 4
#     Node 4, Type 0, BuildingBlock: QUQFOY_clean_sbu_1, # of connection points: 4
#     Node 5, Type 0, BuildingBlock: QUQFOY_clean_sbu_1, # of connection points: 4
#     Node 6, Type 0, BuildingBlock: QUQFOY_clean_sbu_1, # of connection points: 4
#     Node 7, Type 0, BuildingBlock: QUQFOY_clean_sbu_1, # of connection points: 4
#     Node 8, Type 0, BuildingBlock: QUQFOY_clean_sbu_1, # of connection points: 4
#     Node 9, Type 0, BuildingBlock: QUQFOY_clean_sbu_1, # of connection points: 4
#     Node 10, Type 0, BuildingBlock: QUQFOY_clean_sbu_1, # of connection points: 4
#     Node 11, Type 0, BuildingBlock: QUQFOY_clean_sbu_1, # of connection points: 4
#     Node 12, Type 0, BuildingBlock: QUQFOY_clean_sbu_1, # of connection points: 4
#     Node 13, Type 0, BuildingBlock: QUQFOY_clean_sbu_1, # of connection points: 4
#     Node 14, Type 0, BuildingBlock: QUQFOY_clean_sbu_1, # of connection points: 4
#     Node 15, Type 0, BuildingBlock: QUQFOY_clean_sbu_1, # of connection points: 4
#     Node 16, Type 0, BuildingBlock: QUQFOY_clean_sbu_1, # of connection points: 4
#     Node 17, Type 0, BuildingBlock: QUQFOY_clean_sbu_1, # of connection points: 4
#     Node 18, Type 1, BuildingBlock: AZAVOO_clean_linker_0, # of connection points: 4
#     Node 19, Type 1, BuildingBlock: AZAVOO_clean_linker_0, # of connection points: 4
#     Node 20, Type 1, BuildingBlock: AZAVOO_clean_linker_0, # of connection points: 4
#     Node 21, Type 1, BuildingBlock: AZAVOO_clean_linker_0, # of connection points: 4
#     Node 22, Type 1, BuildingBlock: AZAVOO_clean_linker_0, # of connection points: 4
#     Node 23, Type 1, BuildingBlock: AZAVOO_clean_linker_0, # of connection points: 4
#     Node 24, Type 1, BuildingBlock: AZAVOO_clean_linker_0, # of connection points: 4
#     Node 25, Type 1, BuildingBlock: AZAVOO_clean_linker_0, # of connection points: 4
#     Node 26, Type 1, BuildingBlock: AZAVOO_clean_linker_0, # of connection points: 4
#     Node 27, Type 1, BuildingBlock: AZAVOO_clean_linker_0, # of connection points: 4
#     Node 28, Type 1, BuildingBlock: AZAVOO_clean_linker_0, # of connection points: 4
#     Node 29, Type 1, BuildingBlock: AZAVOO_clean_linker_0, # of connection points: 4
#     Node 30, Type 1, BuildingBlock: AZAVOO_clean_linker_0, # of connection points: 4
#     Node 31, Type 1, BuildingBlock: AZAVOO_clean_linker_0, # of connection points: 4
#     Node 32, Type 1, BuildingBlock: AZAVOO_clean_linker_0, # of connection points: 4
#     Node 33, Type 1, BuildingBlock: AZAVOO_clean_linker_0, # of connection points: 4
#     Node 34, Type 1, BuildingBlock: AZAVOO_clean_linker_0, # of connection points: 4
#     Node 35, Type 1, BuildingBlock: AZAVOO_clean_linker_0, # of connection points: 4
#     Edge 36, Type (0, 1), BuildingBlock: CIFDUS_clean_linker_0, # of connection points: 2
#     Edge 37, Type (0, 1), BuildingBlock: CIFDUS_clean_linker_0, # of connection points: 2
#     Edge 38, Type (0, 1), BuildingBlock: CIFDUS_clean_linker_0, # of connection points: 2
#     Edge 39, Type (0, 1), BuildingBlock: CIFDUS_clean_linker_0, # of connection points: 2
#     Edge 40, Type (0, 1), BuildingBlock: CIFDUS_clean_linker_0, # of connection points: 2
#     Edge 41, Type (0, 1), BuildingBlock: CIFDUS_clean_linker_0, # of connection points: 2
#     Edge 42, Type (0, 1), BuildingBlock: CIFDUS_clean_linker_0, # of connection points: 2
#     Edge 43, Type (0, 1), BuildingBlock: CIFDUS_clean_linker_0, # of connection points: 2
#     Edge 44, Type (0, 1), BuildingBlock: CIFDUS_clean_linker_0, # of connection points: 2
#     Edge 45, Type (0, 1), BuildingBlock: CIFDUS_clean_linker_0, # of connection points: 2
#     Edge 46, Type (0, 1), BuildingBlock: CIFDUS_clean_linker_0, # of connection points: 2
#     Edge 47, Type (0, 1), BuildingBlock: CIFDUS_clean_linker_0, # of connection points: 2
#     Edge 48, Type (0, 1), BuildingBlock: CIFDUS_clean_linker_0, # of connection points: 2
#     Edge 49, Type (0, 1), BuildingBlock: CIFDUS_clean_linker_0, # of connection points: 2
#     Edge 50, Type (0, 1), BuildingBlock: CIFDUS_clean_linker_0, # of connection points: 2
#     Edge 51, Type (0, 1), BuildingBlock: CIFDUS_clean_linker_0, # of connection points: 2
#     Edge 52, Type (0, 1), BuildingBlock: CIFDUS_clean_linker_0, # of connection points: 2
#     Edge 53, Type (0, 1), BuildingBlock: CIFDUS_clean_linker_0, # of connection points: 2
#     Edge 54, Type (0, 1), BuildingBlock: CIFDUS_clean_linker_0, # of connection points: 2
#     Edge 55, Type (0, 1), BuildingBlock: CIFDUS_clean_linker_0, # of connection points: 2
#     Edge 56, Type (0, 1), BuildingBlock: CIFDUS_clean_linker_0, # of connection points: 2
#     Edge 57, Type (0, 1), BuildingBlock: CIFDUS_clean_linker_0, # of connection points: 2
#     Edge 58, Type (0, 1), BuildingBlock: CIFDUS_clean_linker_0, # of connection points: 2
#     Edge 59, Type (0, 1), BuildingBlock: CIFDUS_clean_linker_0, # of connection points: 2
#     Edge 60, Type (0, 1), BuildingBlock: CIFDUS_clean_linker_0, # of connection points: 2
#     Edge 61, Type (0, 1), BuildingBlock: CIFDUS_clean_linker_0, # of connection points: 2
#     Edge 62, Type (0, 1), BuildingBlock: CIFDUS_clean_linker_0, # of connection points: 2
#     Edge 63, Type (0, 1), BuildingBlock: CIFDUS_clean_linker_0, # of connection points: 2
#     Edge 64, Type (0, 1), BuildingBlock: CIFDUS_clean_linker_0, # of connection points: 2
#     Edge 65, Type (0, 1), BuildingBlock: CIFDUS_clean_linker_0, # of connection points: 2
#     Edge 66, Type (0, 1), BuildingBlock: CIFDUS_clean_linker_0, # of connection points: 2
#     Edge 67, Type (0, 1), BuildingBlock: CIFDUS_clean_linker_0, # of connection points: 2
#     Edge 68, Type (0, 1), BuildingBlock: CIFDUS_clean_linker_0, # of connection points: 2
#     Edge 69, Type (0, 1), BuildingBlock: CIFDUS_clean_linker_0, # of connection points: 2
#     Edge 70, Type (0, 1), BuildingBlock: CIFDUS_clean_linker_0, # of connection points: 2
#     Edge 71, Type (0, 1), BuildingBlock: CIFDUS_clean_linker_0, # of connection points: 2
#     Edge 72, Type (0, 1), BuildingBlock: CIFDUS_clean_linker_0, # of connection points: 2
#     Edge 73, Type (0, 1), BuildingBlock: CIFDUS_clean_linker_0, # of connection points: 2
#     Edge 74, Type (0, 1), BuildingBlock: CIFDUS_clean_linker_0, # of connection points: 2
#     Edge 75, Type (0, 1), BuildingBlock: CIFDUS_clean_linker_0, # of connection points: 2
#     Edge 76, Type (0, 1), BuildingBlock: CIFDUS_clean_linker_0, # of connection points: 2
#     Edge 77, Type (0, 1), BuildingBlock: CIFDUS_clean_linker_0, # of connection points: 2
#     Edge 78, Type (0, 1), BuildingBlock: CIFDUS_clean_linker_0, # of connection points: 2
#     Edge 79, Type (0, 1), BuildingBlock: CIFDUS_clean_linker_0, # of connection points: 2
#     Edge 80, Type (0, 1), BuildingBlock: CIFDUS_clean_linker_0, # of connection points: 2
#     Edge 81, Type (0, 1), BuildingBlock: CIFDUS_clean_linker_0, # of connection points: 2
#     Edge 82, Type (0, 1), BuildingBlock: CIFDUS_clean_linker_0, # of connection points: 2
#     Edge 83, Type (0, 1), BuildingBlock: CIFDUS_clean_linker_0, # of connection points: 2
#     Edge 84, Type (0, 1), BuildingBlock: CIFDUS_clean_linker_0, # of connection points: 2
#     Edge 85, Type (0, 1), BuildingBlock: CIFDUS_clean_linker_0, # of connection points: 2
#     Edge 86, Type (0, 1), BuildingBlock: CIFDUS_clean_linker_0, # of connection points: 2
#     Edge 87, Type (0, 1), BuildingBlock: CIFDUS_clean_linker_0, # of connection points: 2
#     Edge 88, Type (0, 1), BuildingBlock: CIFDUS_clean_linker_0, # of connection points: 2
#     Edge 89, Type (0, 1), BuildingBlock: CIFDUS_clean_linker_0, # of connection points: 2
#     Edge 90, Type (0, 1), BuildingBlock: CIFDUS_clean_linker_0, # of connection points: 2
#     Edge 91, Type (0, 1), BuildingBlock: CIFDUS_clean_linker_0, # of connection points: 2
#     Edge 92, Type (0, 1), BuildingBlock: CIFDUS_clean_linker_0, # of connection points: 2
#     Edge 93, Type (0, 1), BuildingBlock: CIFDUS_clean_linker_0, # of connection points: 2
#     Edge 94, Type (0, 1), BuildingBlock: CIFDUS_clean_linker_0, # of connection points: 2
#     Edge 95, Type (0, 1), BuildingBlock: CIFDUS_clean_linker_0, # of connection points: 2
#     Edge 96, Type (0, 1), BuildingBlock: CIFDUS_clean_linker_0, # of connection points: 2
#     Edge 97, Type (0, 1), BuildingBlock: CIFDUS_clean_linker_0, # of connection points: 2
#     Edge 98, Type (0, 1), BuildingBlock: CIFDUS_clean_linker_0, # of connection points: 2
#     Edge 99, Type (0, 1), BuildingBlock: CIFDUS_clean_linker_0, # of connection points: 2
#     Edge 100, Type (0, 1), BuildingBlock: CIFDUS_clean_linker_0, # of connection points: 2
#     Edge 101, Type (0, 1), BuildingBlock: CIFDUS_clean_linker_0, # of connection points: 2
#     Edge 102, Type (0, 1), BuildingBlock: CIFDUS_clean_linker_0, # of connection points: 2
#     Edge 103, Type (0, 1), BuildingBlock: CIFDUS_clean_linker_0, # of connection points: 2
#     Edge 104, Type (0, 1), BuildingBlock: CIFDUS_clean_linker_0, # of connection points: 2
#     Edge 105, Type (0, 1), BuildingBlock: CIFDUS_clean_linker_0, # of connection points: 2
#     Edge 106, Type (0, 1), BuildingBlock: CIFDUS_clean_linker_0, # of connection points: 2
#     Edge 107, Type (0, 1), BuildingBlock: CIFDUS_clean_linker_0, # of connection points: 2
# Relax obj value: 0.050
# Max RMSD: 0.180
# Mean RMSD: 0.118
data_MOF--net-ptr--node1-QUQFOY_clean_sbu_1--node2-AZAVOO_clean_linker_0--edge1-CIFDUS_clean_linker_0
_symmetry_space_group_name_H-M    P1
_symmetry_Int_Tables_number       1
_symmetry_cell_setting            triclinic
loop_
_symmetry_equiv_pos_as_xyz
'x, y, z'
_cell_length_a     75.516484
_cell_length_b     74.219038
_cell_length_c     63.261347
_cell_angle_alpha  92.650574
_cell_angle_beta   92.115047
_cell_angle_gamma 120.0616
loop_
_atom_site_label
_atom_site_type_symbol
_atom_site_fract_x
_atom_site_fract_y
_atom_site_fract_z
_atom_type_partial_charge
O0 O 0.02156 0.4023 0.05751 0.0
Cd1 Cd 0.03089 0.39001 0.03353 0.0
Cd2 Cd 0.98806 0.36762 0.02497 0.0
O3 O 0.98795 0.38159 0.05405 0.0
O4 O 0.05962 0.39977 0.04411 0.0
O5 O 0.03563 0.36641 0.04075 0.0
C6 C 0.0541 0.38067 0.04718 0.0
C7 C 0.96173 0.33395 0.01345 0.0
C8 C 1.00392 0.3964 0.06408 0.0
C9 C 0.01554 0.39734 0.99297 0.0
O10 O 0.99797 0.38592 0.99975 0.0
O11 O 0.03165 0.40053 1.00352 0.0
O12 O 0.95862 0.34946 0.01546 0.0
O13 O 0.97968 0.33716 0.01948 0.0
O14 O 0.60677 0.60467 0.08934 0.0
Cd15 Cd 0.62059 0.62544 0.06644 0.0
Cd16 Cd 0.63777 0.60226 0.06077 0.0
O17 O 0.62713 0.59137 0.08997 0.0
O18 O 0.61307 0.64731 0.07178 0.0
O19 O 0.64503 0.65381 0.07546 0.0
C20 C 0.6322 0.66046 0.07655 0.0
C21 C 0.67191 0.61866 0.05233 0.0
C22 C 0.61262 0.59305 0.09759 0.0
C23 C 0.60879 0.59893 0.02583 0.0
O24 O 0.61711 0.58965 0.03452 0.0
O25 O 0.61024 0.61517 0.03519 0.0
O26 O 0.66145 0.59874 0.05388 0.0
O27 O 0.66334 0.6295 0.05714 0.0
O28 O 0.41086 0.01159 0.99824 0.0
Cd29 Cd 0.39937 0.01572 0.02615 0.0
Cd30 Cd 0.38207 0.97419 0.02244 0.0
O31 O 0.39175 0.9775 0.99192 0.0
O32 O 0.40771 0.04578 0.02619 0.0
O33 O 0.3753 0.02055 0.02326 0.0
C34 C 0.38862 0.04018 0.02316 0.0
C35 C 0.34801 0.95467 0.03096 0.0
C36 C 0.40508 0.99517 0.98614 0.0
C37 C 0.4127 0.99649 0.05908 0.0
O38 O 0.40356 0.97991 0.04679 0.0
O39 O 0.41135 0.01239 0.05492 0.0
O40 O 0.35815 0.94575 0.02509 0.0
O41 O 0.35692 0.97476 0.03084 0.0
O42 O 0.98617 0.59401 0.02787 0.0
Cd43 Cd 0.97714 0.60865 0.04963 0.0
Cd44 Cd 0.01763 0.63259 0.05766 0.0
O45 O 0.0191 0.61743 0.0298 0.0
O46 O 0.94977 0.60268 0.03765 0.0
O47 O 0.97687 0.63457 0.04202 0.0
C48 C 0.95798 0.62236 0.03507 0.0
C49 C 0.03864 0.66868 0.06482 0.0
C50 C 1.00391 0.60066 0.02126 0.0
C51 C 0.99245 0.60446 0.09151 0.0
O52 O 0.00998 0.61633 0.08475 0.0
O53 O 0.97618 0.59989 0.08035 0.0
O54 O 0.04596 0.65629 0.06508 0.0
O55 O 0.01935 0.66067 0.05943 0.0
O56 O 0.40318 0.40354 0.98587 0.0
Cd57 Cd 0.39064 0.38428 0.01019 0.0
Cd58 Cd 0.37043 0.40527 0.01404 0.0
O59 O 0.38356 0.41774 0.98605 0.0
O60 O 0.39457 0.35995 1.00412 0.0
O61 O 0.36406 0.35735 1.00323 0.0
C62 C 0.37495 0.34855 1.00052 0.0
C63 C 0.33569 0.39066 0.02012 0.0
C64 C 0.39762 0.41552 0.97795 0.0
C65 C 0.39975 0.41057 0.05062 0.0
O66 O 0.38872 0.41698 0.04186 0.0
O67 O 0.40203 0.39647 0.0411 0.0
O68 O 0.34732 0.41048 0.01878 0.0
O69 O 0.34343 0.37886 0.01626 0.0
O70 O 0.59183 0.99004 0.07488 0.0
Cd71 Cd 0.60263 0.98294 0.04804 0.0
Cd72 Cd 0.62513 0.02476 0.04945 0.0
O73 O 0.61586 0.0232 0.08023 0.0
O74 O 0.59872 0.95429 0.05049 0.0
O75 O 0.62907 0.98309 0.05247 0.0
C76 C 0.6184 0.96317 0.05366 0.0
C77 C 0.65912 0.04145 0.03994 0.0
C78 C 0.60037 0.00713 0.08644 0.0
C79 C 0.59286 0.00289 0.01338 0.0
O80 O 0.60405 0.01975 0.02486 0.0
O81 O 0.59152 0.98589 0.01858 0.0
O82 O 0.65046 0.05208 0.04518 0.0
O83 O 0.64887 0.02155 0.04144 0.0
O84 O 0.69123 0.7402 0.3885 0.0
Cd85 Cd 0.70293 0.72829 0.36644 0.0
Cd86 Cd 0.66325 0.70274 0.35535 0.0
O87 O 0.66 0.71285 0.38519 0.0
O88 O 0.73135 0.73714 0.37753 0.0
O89 O 0.70627 0.70415 0.37448 0.0
C90 C 0.72511 0.71781 0.38037 0.0
C91 C 0.6419 0.66756 0.34356 0.0
C92 C 0.67326 0.7301 0.39486 0.0
C93 C 0.68864 0.73534 0.32551 0.0
O94 O 0.6709 0.72326 0.33165 0.0
O95 O 0.70448 0.73792 0.3361 0.0
O96 O 0.63496 0.68019 0.3458 0.0
O97 O 0.66114 0.67476 0.34855 0.0
O98 O 0.26921 0.93855 0.42188 0.0
Cd99 Cd 0.28381 0.95846 0.3988 0.0
Cd100 Cd 0.29711 0.93166 0.39283 0.0
O101 O 0.2844 0.91982 0.42126 0.0
O102 O 0.28038 0.98261 0.4073 0.0
O103 O 0.31075 0.98511 0.40614 0.0
C104 C 0.30003 0.99376 0.4105 0.0
C105 C 0.33146 0.94607 0.38565 0.0
C106 C 0.27191 0.92448 0.42941 0.0
C107 C 0.26919 0.9324 0.35808 0.0
O108 O 0.27748 0.92265 0.36579 0.0
O109 O 0.27092 0.94845 0.36822 0.0
O110 O 0.31958 0.9261 0.38579 0.0
O111 O 0.32413 0.95788 0.39122 0.0
O112 O 0.08662 0.34606 0.33526 0.0
Cd113 Cd 0.07412 0.3514 0.36154 0.0
Cd114 Cd 0.05266 0.30953 0.35839 0.0
O115 O 0.06452 0.31251 0.32851 0.0
O116 O 0.0785 0.38013 0.35924 0.0
O117 O 0.04779 0.35169 0.35705 0.0
C118 C 0.05887 0.37162 0.35595 0.0
C119 C 0.01787 0.29047 0.36487 0.0
C120 C 0.07977 0.32938 0.3233 0.0
C121 C 0.08259 0.33107 0.39675 0.0
O122 O 0.07163 0.31426 0.38509 0.0
O123 O 0.08481 0.34828 0.39104 0.0
O124 O 0.02788 0.28117 0.35991 0.0
O125 O 0.02725 0.31054 0.36463 0.0
O126 O 0.65427 0.93508 0.35681 0.0
Cd127 Cd 0.64579 0.94804 0.38086 0.0
Cd128 Cd 0.68728 0.97027 0.38876 0.0
O129 O 0.68784 0.95554 0.36025 0.0
O130 O 0.61741 0.93996 0.37035 0.0
O131 O 0.64272 0.97281 0.37459 0.0
C132 C 0.624 0.95942 0.36797 0.0
C133 C 0.7089 0.00606 0.39681 0.0
C134 C 0.67186 0.94065 0.35031 0.0
C135 C 0.66162 0.9415 0.42175 0.0
O136 O 0.67923 0.95336 0.41523 0.0
O137 O 0.64544 0.93761 0.41081 0.0
O138 O 0.7158 0.9933 0.39648 0.0
O139 O 0.68967 0.99859 0.39142 0.0
O140 O 0.06931 0.7336 0.3161 0.0
Cd141 Cd 0.06016 0.71515 0.34138 0.0
Cd142 Cd 0.04521 0.74148 0.34991 0.0
O143 O 0.05546 0.75339 0.32084 0.0
O144 O 0.06854 0.69474 0.33212 0.0
O145 O 0.03618 0.68562 0.33572 0.0
C146 C 0.04945 0.68057 0.32996 0.0
C147 C 0.01124 0.72582 0.35905 0.0
C148 C 0.06578 0.74761 0.3099 0.0
C149 C 0.07622 0.74277 0.38206 0.0
O150 O 0.06634 0.75142 0.3756 0.0
O151 O 0.07512 0.72732 0.37121 0.0
O152 O 0.02245 0.74585 0.3588 0.0
O153 O 0.01898 0.71457 0.3527 0.0
O154 O 0.26029 0.31756 0.40574 0.0
Cd155 Cd 0.274 0.31348 0.37963 0.0
Cd156 Cd 0.29069 0.35428 0.38231 0.0
O157 O 0.28057 0.35145 0.41268 0.0
O158 O 0.26914 0.28453 0.3808 0.0
O159 O 0.29999 0.31258 0.38528 0.0
C160 C 0.28857 0.29256 0.38511 0.0
C161 C 0.32463 0.37378 0.37356 0.0
C162 C 0.26612 0.33402 0.41781 0.0
C163 C 0.26067 0.33065 0.34534 0.0
O164 O 0.26911 0.34729 0.35756 0.0
O165 O 0.26271 0.31525 0.34989 0.0
O166 O 0.31408 0.38264 0.37793 0.0
O167 O 0.31628 0.35395 0.37549 0.0
O168 O 0.35419 0.07292 0.72287 0.0
Cd169 Cd 0.36369 0.06018 0.69927 0.0
Cd170 Cd 0.32411 0.03397 0.69292 0.0
O171 O 0.32317 0.04559 0.72294 0.0
O172 O 0.39262 0.06856 0.70794 0.0
O173 O 0.36698 0.0359 0.70684 0.0
C174 C 0.38616 0.04932 0.71149 0.0
C175 C 0.3049 0.9982 0.68304 0.0
C176 C 0.3371 0.06329 0.73119 0.0
C177 C 0.34459 0.06471 0.66 0.0
O178 O 0.32798 0.05269 0.66832 0.0
O179 O 0.36164 0.06832 0.66868 0.0
O180 O 0.29631 0.00923 0.68628 0.0
O181 O 0.3246 0.00733 0.68622 0.0
O182 O 0.93971 0.26745 0.75578 0.0
Cd183 Cd 0.9516 0.28828 0.73262 0.0
Cd184 Cd 0.97096 0.2657 0.72442 0.0
O185 O 0.9568 0.25075 0.75106 0.0
O186 O 0.94807 0.31215 0.74212 0.0
O187 O 0.97847 0.31478 0.74021 0.0
C188 C 0.96776 0.32335 0.74517 0.0
C189 C 0.00423 0.27413 0.71684 0.0
C190 C 0.94409 0.25375 0.7611 0.0
C191 C 0.94214 0.26616 0.6897 0.0
O192 O 0.95332 0.2591 0.69652 0.0
O193 O 0.93931 0.27873 0.70145 0.0
O194 O 0.98944 0.25506 0.71622 0.0
O195 O 1.0006 0.28855 0.72373 0.0
O196 O 0.74546 0.68002 0.66525 0.0
Cd197 Cd 0.73422 0.68554 0.69287 0.0
Cd198 Cd 0.72223 0.64467 0.69473 0.0
O199 O 0.7317 0.64581 0.66432 0.0
O200 O 0.73985 0.7146 0.69056 0.0
O201 O 0.70845 0.68744 0.68913 0.0
C202 C 0.72037 0.70728 0.68809 0.0
C203 C 0.68893 0.62279 0.70437 0.0
C204 C 0.74209 0.66295 0.65583 0.0
C205 C 0.75163 0.67323 0.72959 0.0
O206 O 0.7444 0.65554 0.71943 0.0
O207 O 0.74783 0.68685 0.72265 0.0
O208 O 0.70121 0.6158 0.70074 0.0
O209 O 0.69519 0.6421 0.70121 0.0
O210 O 0.32601 0.26412 0.6922 0.0
Cd211 Cd 0.31449 0.27603 0.71423 0.0
Cd212 Cd 0.35444 0.30453 0.72332 0.0
O213 O 0.35668 0.29223 0.69414 0.0
O214 O 0.28735 0.26995 0.70155 0.0
O215 O 0.31386 0.30207 0.70817 0.0
C216 C 0.29527 0.28982 0.7003 0.0
C217 C 0.37878 0.33969 0.73221 0.0
C218 C 0.34367 0.27446 0.68526 0.0
C219 C 0.33058 0.27294 0.75578 0.0
O220 O 0.34756 0.28662 0.74924 0.0
O221 O 0.31392 0.26684 0.74465 0.0
O222 O 0.38373 0.32546 0.73076 0.0
O223 O 0.35977 0.33412 0.72816 0.0
O224 O 0.73482 0.06927 0.64636 0.0
Cd225 Cd 0.72445 0.04917 0.67031 0.0
Cd226 Cd 0.70819 0.07381 0.6808 0.0
O227 O 0.71927 0.08723 0.65256 0.0
O228 O 0.72871 0.02603 0.65979 0.0
O229 O 0.69803 0.02149 0.66532 0.0
C230 C 0.70911 0.01379 0.65898 0.0
C231 C 0.67541 0.06446 0.6912 0.0
C232 C 0.73077 0.08328 0.64138 0.0
C233 C 0.7399 0.07408 0.71194 0.0
O234 O 0.72908 0.08201 0.70644 0.0
O235 O 0.73984 0.05976 0.70005 0.0
O236 O 0.68964 0.08372 0.69098 0.0
O237 O 0.67933 0.05032 0.68403 0.0
O238 O 0.92694 0.65055 0.74058 0.0
Cd239 Cd 0.94078 0.64612 0.71504 0.0
Cd240 Cd 0.96144 0.68835 0.71898 0.0
O241 O 0.94883 0.68408 0.74849 0.0
O242 O 0.93879 0.61819 0.71645 0.0
O243 O 0.96783 0.64834 0.72191 0.0
C244 C 0.95827 0.62826 0.72161 0.0
C245 C 0.99619 0.70739 0.71242 0.0
C246 C 0.93341 0.66694 0.75295 0.0
C247 C 0.93272 0.66675 0.67999 0.0
O248 O 0.94259 0.68331 0.69223 0.0
O249 O 0.93131 0.64974 0.68521 0.0
O250 O 0.98617 0.7168 0.71699 0.0
O251 O 0.98687 0.68742 0.71334 0.0
H252 H 0.16992 0.36022 0.01759 0.0
H253 H 0.27671 0.29395 0.17887 0.0
H254 H 0.16707 0.36319 0.13164 0.0
H255 H 0.14283 0.36994 0.11278 0.0
H256 H 0.09428 0.30695 0.12106 0.0
H257 H 0.11953 0.29986 0.13829 0.0
H258 H 0.19703 0.36185 0.1058 0.0
H259 H 0.19066 0.36704 0.06901 0.0
H260 H 0.13808 0.30455 0.06197 0.0
H261 H 0.1448 0.29946 0.09872 0.0
H262 H 0.22936 0.36033 0.13261 0.0
H263 H 0.25533 0.36831 0.10699 0.0
H264 H 0.21685 0.30758 0.07406 0.0
H265 H 0.1908 0.29972 0.0999 0.0
H266 H 0.23026 0.35037 0.17736 0.0
H267 H 0.25974 0.34694 0.18855 0.0
H268 H 0.23027 0.28511 0.15645 0.0
H269 H 0.20081 0.2887 0.14555 0.0
H270 H 0.19861 0.35014 0.20163 0.0
H271 H 0.21245 0.34816 0.23629 0.0
H272 H 0.18757 0.28183 0.2225 0.0
H273 H 0.17496 0.28444 0.18726 0.0
H274 H 0.15731 0.35242 0.18034 0.0
H275 H 0.13574 0.35011 0.20924 0.0
H276 H 0.11787 0.28525 0.21332 0.0
H277 H 0.13871 0.28753 0.18382 0.0
O278 O 0.17226 0.35778 0.03204 0.0
O279 O 0.14531 0.32557 0.02928 0.0
O280 O 0.27974 0.3276 0.1909 0.0
O281 O 0.26527 0.29575 0.17462 0.0
C282 C 0.16133 0.32606 0.14255 0.0
C283 C 0.17511 0.32713 0.12731 0.0
C284 C 0.19232 0.32538 0.13338 0.0
C285 C 0.19531 0.32162 0.15447 0.0
C286 C 0.18124 0.3198 0.16958 0.0
C287 C 0.16413 0.32194 0.1637 0.0
C288 C 0.14515 0.33099 0.13616 0.0
C289 C 0.15112 0.35092 0.12965 0.0
C290 C 0.13705 0.35478 0.11893 0.0
C291 C 0.11635 0.339 0.1151 0.0
C292 C 0.11011 0.3194 0.12313 0.0
C293 C 0.12444 0.31538 0.13339 0.0
C294 C 0.1715 0.33021 0.10484 0.0
C295 C 0.18429 0.34922 0.0962 0.0
C296 C 0.18054 0.35218 0.07522 0.0
C297 C 0.16387 0.3362 0.06253 0.0
C298 C 0.15107 0.31717 0.07129 0.0
C299 C 0.15487 0.31421 0.09226 0.0
C300 C 0.20824 0.32945 0.11814 0.0
C301 C 0.22658 0.34871 0.11993 0.0
C302 C 0.2413 0.3533 0.10517 0.0
C303 C 0.23806 0.33864 0.0884 0.0
C304 C 0.21978 0.31916 0.08684 0.0
C305 C 0.20492 0.31465 0.10153 0.0
C306 C 0.21339 0.31973 0.1608 0.0
C307 C 0.2302 0.33608 0.17284 0.0
C308 C 0.24702 0.33409 0.17917 0.0
C309 C 0.24734 0.31571 0.17343 0.0
C310 C 0.23051 0.29944 0.16116 0.0
C311 C 0.21368 0.30145 0.15489 0.0
C312 C 0.18576 0.31744 0.19199 0.0
C313 C 0.19582 0.33512 0.20631 0.0
C314 C 0.20368 0.3339 0.22619 0.0
C315 C 0.20132 0.31483 0.23232 0.0
C316 C 0.19015 0.29688 0.21825 0.0
C317 C 0.18263 0.29823 0.1982 0.0
C318 C 0.1496 0.32015 0.1799 0.0
C319 C 0.14841 0.33762 0.18721 0.0
C320 C 0.13625 0.33631 0.20394 0.0
C321 C 0.12513 0.31752 0.21384 0.0
C322 C 0.12597 0.29991 0.20602 0.0
C323 C 0.13801 0.30121 0.18921 0.0
C324 C 0.15985 0.33944 0.04029 0.0
C325 C 0.26513 0.31346 0.18021 0.0
H326 H 0.63287 0.7991 0.03298 0.0
H327 H 0.70219 0.9785 0.20093 0.0
H328 H 0.64374 0.79606 0.14822 0.0
H329 H 0.63894 0.76279 0.1338 0.0
H330 H 0.70472 0.78876 0.13786 0.0
H331 H 0.70921 0.82185 0.15335 0.0
H332 H 0.63859 0.82613 0.12254 0.0
H333 H 0.63015 0.81312 0.08517 0.0
H334 H 0.69345 0.83055 0.07844 0.0
H335 H 0.7017 0.84369 0.11581 0.0
H336 H 0.64031 0.8615 0.15315 0.0
H337 H 0.62637 0.87743 0.12999 0.0
H338 H 0.68008 0.90067 0.09388 0.0
H339 H 0.69418 0.8849 0.11763 0.0
H340 H 0.65554 0.87455 0.19806 0.0
H341 H 0.65741 0.90716 0.21066 0.0
H342 H 0.71143 0.94178 0.17607 0.0
H343 H 0.70955 0.90905 0.16385 0.0
H344 H 0.66046 0.8409 0.21971 0.0
H345 H 0.66365 0.85684 0.2553 0.0
H346 H 0.72215 0.90924 0.24216 0.0
H347 H 0.71927 0.8926 0.20689 0.0
H348 H 0.65185 0.8014 0.18979 0.0
H349 H 0.65056 0.77881 0.21701 0.0
H350 H 0.71391 0.82283 0.23731 0.0
H351 H 0.71542 0.8447 0.20874 0.0
O352 O 0.63656 0.80444 0.04768 0.0
O353 O 0.66928 0.81365 0.04508 0.0
O354 O 0.6733 0.94683 0.21372 0.0
O355 O 0.70106 0.96536 0.19614 0.0
C356 C 0.6794 0.83181 0.15925 0.0
C357 C 0.67585 0.84362 0.14452 0.0
C358 C 0.67624 0.86214 0.15156 0.0
C359 C 0.68175 0.86971 0.17306 0.0
C360 C 0.68562 0.85809 0.18785 0.0
C361 C 0.6837 0.83869 0.18106 0.0
C362 C 0.6768 0.81131 0.15183 0.0
C363 C 0.65709 0.79447 0.1462 0.0
C364 C 0.65442 0.77554 0.13772 0.0
C365 C 0.67146 0.77313 0.13429 0.0
C366 C 0.69125 0.78998 0.14039 0.0
C367 C 0.69387 0.80891 0.14918 0.0
C368 C 0.67077 0.83599 0.12178 0.0
C369 C 0.65063 0.82727 0.11291 0.0
C370 C 0.64585 0.81978 0.09159 0.0
C371 C 0.66114 0.82082 0.0788 0.0
C372 C 0.68132 0.82955 0.08783 0.0
C373 C 0.68608 0.83706 0.10914 0.0
C374 C 0.66829 0.87213 0.13714 0.0
C375 C 0.64911 0.87009 0.14028 0.0
C376 C 0.64108 0.87903 0.12689 0.0
C377 C 0.65203 0.89018 0.10996 0.0
C378 C 0.67132 0.89226 0.10684 0.0
C379 C 0.67937 0.88323 0.12031 0.0
C380 C 0.68254 0.88948 0.18023 0.0
C381 C 0.66782 0.8892 0.19332 0.0
C382 C 0.6689 0.90785 0.20044 0.0
C383 C 0.68462 0.9271 0.19442 0.0
C384 C 0.69917 0.92725 0.18105 0.0
C385 C 0.69811 0.90859 0.17401 0.0
C386 C 0.68962 0.86558 0.21068 0.0
C387 C 0.67431 0.85543 0.22478 0.0
C388 C 0.67604 0.86474 0.24501 0.0
C389 C 0.69297 0.88453 0.25142 0.0
C390 C 0.70896 0.89397 0.23779 0.0
C391 C 0.70732 0.88452 0.21761 0.0
C392 C 0.68381 0.82458 0.19699 0.0
C393 C 0.66565 0.8059 0.19967 0.0
C394 C 0.66485 0.79317 0.21557 0.0
C395 C 0.68206 0.79906 0.22962 0.0
C396 C 0.70041 0.81765 0.22668 0.0
C397 C 0.70129 0.83026 0.21045 0.0
C398 C 0.65599 0.81278 0.05618 0.0
C399 C 0.68591 0.94697 0.20204 0.0
H400 H 0.15668 0.82702 0.01583 0.0
H401 H 0.31219 0.95683 0.2067 0.0
H402 H 0.13414 0.83017 0.12384 0.0
H403 H 0.10956 0.79613 0.10563 0.0
H404 H 0.14074 0.76843 0.13737 0.0
H405 H 0.16575 0.80248 0.15424 0.0
H406 H 0.16914 0.86595 0.10176 0.0
H407 H 0.16217 0.85381 0.06411 0.0
H408 H 0.18147 0.80915 0.07638 0.0
H409 H 0.18853 0.82159 0.11395 0.0
H410 H 0.20579 0.9016 0.11641 0.0
H411 H 0.2329 0.92108 0.09252 0.0
H412 H 0.26026 0.88367 0.1072 0.0
H413 H 0.23295 0.86416 0.13064 0.0
H414 H 0.21836 0.91735 0.15936 0.0
H415 H 0.25147 0.94772 0.17178 0.0
H416 H 0.27187 0.90656 0.19439 0.0
H417 H 0.23878 0.87635 0.18168 0.0
H418 H 0.19816 0.89909 0.20101 0.0
H419 H 0.21412 0.9106 0.2371 0.0
H420 H 0.21456 0.85277 0.24101 0.0
H421 H 0.2005 0.84247 0.20445 0.0
H422 H 0.14466 0.85515 0.18422 0.0
H423 H 0.12041 0.8381 0.21136 0.0
H424 H 0.14363 0.79582 0.2183 0.0
H425 H 0.16728 0.81259 0.19092 0.0
O426 O 0.15965 0.83166 0.03075 0.0
O427 O 0.16969 0.80896 0.0379 0.0
O428 O 0.28783 0.96559 0.18951 0.0
O429 O 0.299 0.94511 0.20153 0.0
C430 C 0.16905 0.83969 0.14808 0.0
C431 C 0.18318 0.8518 0.13332 0.0
C432 C 0.20158 0.87016 0.14037 0.0
C433 C 0.20606 0.87634 0.16224 0.0
C434 C 0.19191 0.86445 0.17706 0.0
C435 C 0.17314 0.84636 0.16993 0.0
C436 C 0.15155 0.81876 0.14069 0.0
C437 C 0.13532 0.81661 0.12717 0.0
C438 C 0.12131 0.79716 0.11678 0.0
C439 C 0.12332 0.77957 0.1198 0.0
C440 C 0.13895 0.78168 0.1343 0.0
C441 C 0.15302 0.80108 0.1444 0.0
C442 C 0.17929 0.84461 0.11049 0.0
C443 C 0.17192 0.85361 0.09623 0.0
C444 C 0.16792 0.84661 0.07476 0.0
C445 C 0.17123 0.83048 0.06723 0.0
C446 C 0.17873 0.82158 0.08164 0.0
C447 C 0.18277 0.82863 0.10309 0.0
C448 C 0.21742 0.88147 0.12518 0.0
C449 C 0.21757 0.89755 0.11427 0.0
C450 C 0.23313 0.90872 0.10075 0.0
C451 C 0.24877 0.90393 0.09789 0.0
C452 C 0.24832 0.88757 0.10872 0.0
C453 C 0.2328 0.87647 0.12223 0.0
C454 C 0.2262 0.89471 0.16968 0.0
C455 C 0.23004 0.91496 0.16693 0.0
C456 C 0.24894 0.93225 0.17408 0.0
C457 C 0.26432 0.92956 0.18412 0.0
C458 C 0.26038 0.90919 0.18676 0.0
C459 C 0.2415 0.89192 0.17954 0.0
C460 C 0.19792 0.86982 0.20014 0.0
C461 C 0.2015 0.88884 0.20982 0.0
C462 C 0.21054 0.89533 0.23053 0.0
C463 C 0.21587 0.88273 0.24204 0.0
C464 C 0.21117 0.86316 0.23257 0.0
C465 C 0.20263 0.85696 0.21177 0.0
C466 C 0.15758 0.83497 0.18537 0.0
C467 C 0.14426 0.84201 0.19143 0.0
C468 C 0.13054 0.83236 0.20707 0.0
C469 C 0.12996 0.81551 0.21704 0.0
C470 C 0.14328 0.80844 0.21072 0.0
C471 C 0.15689 0.81804 0.19504 0.0
C472 C 0.16684 0.823 0.04444 0.0
C473 C 0.28439 0.94788 0.19184 0.0
H474 H 0.31581 0.17863 0.05368 0.0
H475 H 0.35634 0.05432 0.88457 0.0
H476 H 0.30565 0.18603 0.94552 0.0
H477 H 0.3162 0.22098 0.96164 0.0
H478 H 0.37275 0.24602 0.93015 0.0
H479 H 0.36263 0.21115 0.91513 0.0
H480 H 0.3001 0.14293 0.96599 0.0
H481 H 0.30094 0.15306 1.00354 0.0
H482 H 0.3625 0.20494 1.00004 0.0
H483 H 0.36155 0.19448 0.96259 0.0
H484 H 0.30414 0.10223 0.93949 0.0
H485 H 0.31118 0.08027 0.96167 0.0
H486 H 0.36785 0.13472 0.9868 0.0
H487 H 0.36177 0.15586 0.96268 0.0
H488 H 0.30044 0.10093 0.8908 0.0
H489 H 0.30336 0.0706 0.87943 0.0
H490 H 0.3662 0.10254 0.90581 0.0
H491 H 0.36315 0.13285 0.91683 0.0
H492 H 0.2989 0.13068 0.8632 0.0
H493 H 0.3023 0.11815 0.82774 0.0
H494 H 0.36737 0.14507 0.84274 0.0
H495 H 0.36383 0.15758 0.8778 0.0
H496 H 0.29542 0.17271 0.89123 0.0
H497 H 0.2914 0.1922 0.863 0.0
H498 H 0.35275 0.21115 0.84538 0.0
H499 H 0.35677 0.1921 0.87393 0.0
O500 O 0.31584 0.17486 0.03884 0.0
O501 O 0.34743 0.20134 0.03618 0.0
O502 O 0.32242 0.0504 0.87549 0.0
O503 O 0.35476 0.06609 0.88891 0.0
C504 C 0.32946 0.17462 0.92292 0.0
C505 C 0.32995 0.16184 0.93871 0.0
C506 C 0.33009 0.14328 0.93281 0.0
C507 C 0.32986 0.13761 0.9111 0.0
C508 C 0.32901 0.15013 0.89536 0.0
C509 C 0.3283 0.16834 0.90119 0.0
C510 C 0.33341 0.19597 0.92922 0.0
C511 C 0.32016 0.19915 0.94187 0.0
C512 C 0.3262 0.21913 0.95102 0.0
C513 C 0.34551 0.23624 0.94751 0.0
C514 C 0.35802 0.23313 0.93362 0.0
C515 C 0.3521 0.21323 0.92472 0.0
C516 C 0.33069 0.16805 0.96154 0.0
C517 C 0.31376 0.15645 0.97338 0.0
C518 C 0.31428 0.16229 0.99482 0.0
C519 C 0.33177 0.17985 0.00478 0.0
C520 C 0.34877 0.19137 0.99285 0.0
C521 C 0.34825 0.18547 0.97144 0.0
C522 C 0.33247 0.13069 0.94926 0.0
C523 C 0.31805 0.10938 0.94985 0.0
C524 C 0.32204 0.09686 0.9628 0.0
C525 C 0.34031 0.1055 0.97598 0.0
C526 C 0.35395 0.12721 0.97645 0.0
C527 C 0.35028 0.13953 0.96296 0.0
C528 C 0.33156 0.11904 0.90467 0.0
C529 C 0.31482 0.10133 0.89407 0.0
C530 C 0.31653 0.08404 0.88763 0.0
C531 C 0.33502 0.08414 0.89172 0.0
C532 C 0.35175 0.10193 0.90241 0.0
C533 C 0.35003 0.11924 0.90878 0.0
C534 C 0.33114 0.14507 0.87296 0.0
C535 C 0.31391 0.13419 0.85858 0.0
C536 C 0.31586 0.1269 0.83847 0.0
C537 C 0.3351 0.13058 0.83247 0.0
C538 C 0.35239 0.1422 0.84673 0.0
C539 C 0.35041 0.14933 0.86678 0.0
C540 C 0.32631 0.18084 0.88453 0.0
C541 C 0.30801 0.18119 0.88133 0.0
C542 C 0.3057 0.19221 0.86511 0.0
C543 C 0.32172 0.2032 0.85188 0.0
C544 C 0.34017 0.20306 0.8554 0.0
C545 C 0.34245 0.19202 0.87158 0.0
C546 C 0.33223 0.18606 0.02753 0.0
C547 C 0.33693 0.06583 0.88486 0.0
H548 H 0.82887 0.18113 0.05401 0.0
H549 H 0.7084 0.02428 0.8696 0.0
H550 H 0.83501 0.19575 0.94202 0.0
H551 H 0.86202 0.22737 0.96091 0.0
H552 H 0.90651 0.2097 0.94365 0.0
H553 H 0.87866 0.17685 0.92631 0.0
H554 H 0.80318 0.16465 0.96352 0.0
H555 H 0.80948 0.1731 1.00186 0.0
H556 H 0.85698 0.15673 1.00217 0.0
H557 H 0.85032 0.14806 0.96383 0.0
H558 H 0.76875 0.13419 0.9287 0.0
H559 H 0.74138 0.119 0.95291 0.0
H560 H 0.77337 0.0927 0.9857 0.0
H561 H 0.80057 0.10756 0.96082 0.0
H562 H 0.77013 0.12763 0.88278 0.0
H563 H 0.7382 0.09737 0.8676 0.0
H564 H 0.75559 0.05638 0.89667 0.0
H565 H 0.78761 0.08678 0.91152 0.0
H566 H 0.80979 0.16346 0.86536 0.0
H567 H 0.79683 0.15373 0.82841 0.0
H568 H 0.79652 0.09556 0.83235 0.0
H569 H 0.81116 0.10633 0.869 0.0
H570 H 0.84009 0.19511 0.88921 0.0
H571 H 0.86348 0.21704 0.86382 0.0
H572 H 0.88769 0.17519 0.85792 0.0
H573 H 0.86291 0.15254 0.88219 0.0
O574 O 0.82656 0.1776 0.03887 0.0
O575 O 0.85089 0.16908 0.03815 0.0
O576 O 0.71271 0.05828 0.86077 0.0
O577 O 0.72091 0.03653 0.87542 0.0
C578 C 0.83739 0.16346 0.92399 0.0
C579 C 0.82244 0.15042 0.93761 0.0
C580 C 0.8039 0.13295 0.92905 0.0
C581 C 0.80086 0.12773 0.90694 0.0
C582 C 0.81612 0.14027 0.89329 0.0
C583 C 0.83438 0.15825 0.90184 0.0
C584 C 0.85479 0.18387 0.93297 0.0
C585 C 0.85059 0.19867 0.94234 0.0
C586 C 0.86621 0.21696 0.95295 0.0
C587 C 0.88667 0.22137 0.95382 0.0
C588 C 0.89096 0.20678 0.94368 0.0
C589 C 0.87512 0.18811 0.93347 0.0
C590 C 0.82613 0.1555 0.96094 0.0
C591 C 0.81479 0.1627 0.97193 0.0
C592 C 0.8185 0.16761 0.99382 0.0
C593 C 0.8337 0.16554 0.0051 0.0
C594 C 0.84512 0.15845 0.99398 0.0
C595 C 0.84136 0.15349 0.9721 0.0
C596 C 0.78662 0.12191 0.9429 0.0
C597 C 0.7697 0.12486 0.94088 0.0
C598 C 0.75421 0.11639 0.95493 0.0
C599 C 0.7553 0.10486 0.97145 0.0
C600 C 0.77202 0.10143 0.97312 0.0
C601 C 0.78758 0.10992 0.95896 0.0
C602 C 0.78126 0.10938 0.89807 0.0
C603 C 0.76706 0.1121 0.88574 0.0
C604 C 0.74881 0.09479 0.87715 0.0
C605 C 0.74436 0.07444 0.88088 0.0
C606 C 0.75855 0.07182 0.89345 0.0
C607 C 0.77683 0.08915 0.90198 0.0
C608 C 0.81167 0.13575 0.8699 0.0
C609 C 0.8078 0.14904 0.85802 0.0
C610 C 0.79993 0.14319 0.83697 0.0
C611 C 0.79517 0.12362 0.82745 0.0
C612 C 0.80009 0.11078 0.83905 0.0
C613 C 0.80839 0.11687 0.86005 0.0
C614 C 0.84974 0.17222 0.88746 0.0
C615 C 0.85048 0.19073 0.8824 0.0
C616 C 0.86408 0.20337 0.86797 0.0
C617 C 0.87775 0.19811 0.85867 0.0
C618 C 0.87723 0.17968 0.86428 0.0
C619 C 0.86321 0.16677 0.87835 0.0
C620 C 0.83763 0.17082 0.02835 0.0
C621 C 0.72503 0.05599 0.87172 0.0
H622 H 0.85773 0.65659 0.05939 0.0
H623 H 0.71628 0.66309 0.86991 0.0
H624 H 0.88684 0.68917 0.941 0.0
H625 H 0.91008 0.67888 0.95764 0.0
H626 H 0.86034 0.61479 0.95386 0.0
H627 H 0.83792 0.62507 0.93649 0.0
H628 H 0.85935 0.68827 0.97611 0.0
H629 H 0.86358 0.68079 0.01263 0.0
H630 H 0.81152 0.61841 1.00022 0.0
H631 H 0.80763 0.62602 0.96367 0.0
H632 H 0.81436 0.68687 0.97413 0.0
H633 H 0.78731 0.67617 0.99923 0.0
H634 H 0.74911 0.61975 0.95913 0.0
H635 H 0.77617 0.63032 0.93453 0.0
H636 H 0.80514 0.70043 0.92746 0.0
H637 H 0.77598 0.7041 0.91545 0.0
H638 H 0.74997 0.64494 0.87837 0.0
H639 H 0.77907 0.64137 0.89069 0.0
H640 H 0.83029 0.70457 0.88342 0.0
H641 H 0.82037 0.70579 0.84642 0.0
H642 H 0.80313 0.64097 0.83437 0.0
H643 H 0.81403 0.64039 0.87089 0.0
H644 H 0.87008 0.70389 0.89132 0.0
H645 H 0.89229 0.70738 0.86278 0.0
H646 H 0.87439 0.64233 0.86494 0.0
H647 H 0.85151 0.63881 0.89283 0.0
O648 O 0.85575 0.65922 0.0449 0.0
O649 O 0.82879 0.62738 0.03777 0.0
O650 O 0.74192 0.6923 0.89437 0.0
O651 O 0.72795 0.66201 0.87497 0.0
C652 C 0.84549 0.66389 0.93065 0.0
C653 C 0.83094 0.66233 0.94507 0.0
C654 C 0.81411 0.66444 0.93821 0.0
C655 C 0.81211 0.66874 0.91702 0.0
C656 C 0.82682 0.67072 0.90265 0.0
C657 C 0.84373 0.66861 0.90952 0.0
C658 C 0.86075 0.65784 0.93741 0.0
C659 C 0.88125 0.67285 0.94328 0.0
C660 C 0.89438 0.66696 0.95307 0.0
C661 C 0.88715 0.64597 0.95723 0.0
C662 C 0.86671 0.63101 0.95063 0.0
C663 C 0.85377 0.63686 0.94072 0.0
C664 C 0.8331 0.65775 0.96734 0.0
C665 C 0.84886 0.67302 0.98134 0.0
C666 C 0.85124 0.6687 1.00218 0.0
C667 C 0.83786 0.64902 0.00937 0.0
C668 C 0.82205 0.63375 0.99523 0.0
C669 C 0.81974 0.63807 0.97438 0.0
C670 C 0.79721 0.6594 0.95246 0.0
C671 C 0.80004 0.67232 0.97072 0.0
C672 C 0.78459 0.66621 0.98499 0.0
C673 C 0.76616 0.64701 0.98127 0.0
C674 C 0.76325 0.63446 0.96265 0.0
C675 C 0.7786 0.64058 0.94843 0.0
C676 C 0.79428 0.67074 0.90979 0.0
C677 C 0.7931 0.68828 0.91676 0.0
C678 C 0.77645 0.69034 0.90986 0.0
C679 C 0.76067 0.67483 0.89588 0.0
C680 C 0.76187 0.65719 0.88907 0.0
C681 C 0.77851 0.65515 0.89602 0.0
C682 C 0.82299 0.67243 0.87978 0.0
C683 C 0.82473 0.69081 0.87259 0.0
C684 C 0.81882 0.69136 0.85149 0.0
C685 C 0.8108 0.67344 0.83725 0.0
C686 C 0.80958 0.65523 0.84457 0.0
C687 C 0.81573 0.6548 0.86553 0.0
C688 C 0.85923 0.67112 0.89427 0.0
C689 C 0.87117 0.69046 0.88579 0.0
C690 C 0.88395 0.69244 0.86953 0.0
C691 C 0.88512 0.67512 0.86143 0.0
C692 C 0.87366 0.65593 0.87053 0.0
C693 C 0.86077 0.65393 0.88671 0.0
C694 C 0.84045 0.64447 0.03151 0.0
C695 C 0.74299 0.67698 0.88842 0.0
H696 H 0.84184 0.72312 0.36614 0.0
H697 H 0.95924 0.65254 0.51086 0.0
H698 H 0.83061 0.70511 0.48327 0.0
H699 H 0.80426 0.71012 0.4655 0.0
H700 H 0.77055 0.64462 0.44408 0.0
H701 H 0.79678 0.63972 0.4625 0.0
H702 H 0.8652 0.71377 0.45238 0.0
H703 H 0.8594 0.72394 0.41767 0.0
H704 H 0.81942 0.65885 0.39669 0.0
H705 H 0.82546 0.64895 0.43146 0.0
H706 H 0.90335 0.71055 0.47539 0.0
H707 H 0.931 0.723 0.45134 0.0
H708 H 0.89521 0.66709 0.40971 0.0
H709 H 0.86774 0.65448 0.43434 0.0
H710 H 0.90103 0.69633 0.52025 0.0
H711 H 0.93227 0.69575 0.53064 0.0
H712 H 0.91244 0.64135 0.4872 0.0
H713 H 0.88114 0.64196 0.47716 0.0
H714 H 0.86293 0.68947 0.54328 0.0
H715 H 0.87314 0.68446 0.57851 0.0
H716 H 0.8677 0.62629 0.55436 0.0
H717 H 0.85606 0.63081 0.51945 0.0
H718 H 0.83329 0.69517 0.52445 0.0
H719 H 0.8124 0.69045 0.55443 0.0
H720 H 0.78512 0.62346 0.54381 0.0
H721 H 0.80723 0.62864 0.51465 0.0
O722 O 0.84412 0.71876 0.37965 0.0
O723 O 0.82384 0.68507 0.36959 0.0
O724 O 0.95648 0.68107 0.52919 0.0
O725 O 0.94702 0.65314 0.50705 0.0
C726 C 0.83368 0.6703 0.48055 0.0
C727 C 0.84863 0.67465 0.46568 0.0
C728 C 0.86677 0.67447 0.47146 0.0
C729 C 0.86967 0.66928 0.49201 0.0
C730 C 0.85469 0.66479 0.50692 0.0
C731 C 0.83676 0.66557 0.50127 0.0
C732 C 0.8155 0.67203 0.47431 0.0
C733 C 0.81718 0.69173 0.47534 0.0
C734 C 0.80226 0.6946 0.46488 0.0
C735 C 0.78546 0.67785 0.45302 0.0
C736 C 0.78321 0.65784 0.45314 0.0
C737 C 0.79813 0.65497 0.46372 0.0
C738 C 0.84576 0.68066 0.44435 0.0
C739 C 0.85531 0.70176 0.4402 0.0
C740 C 0.85192 0.70751 0.42039 0.0
C741 C 0.83891 0.69221 0.40441 0.0
C742 C 0.82951 0.67103 0.40864 0.0
C743 C 0.83294 0.66532 0.42845 0.0
C744 C 0.88354 0.6816 0.45666 0.0
C745 C 0.90152 0.70093 0.46114 0.0
C746 C 0.91723 0.70809 0.44725 0.0
C747 C 0.91529 0.69613 0.42846 0.0
C748 C 0.89728 0.67664 0.42409 0.0
C749 C 0.88152 0.66946 0.43806 0.0
C750 C 0.88878 0.6691 0.49807 0.0
C751 C 0.90343 0.68425 0.51308 0.0
C752 C 0.92127 0.68391 0.51894 0.0
C753 C 0.92483 0.66847 0.50977 0.0
C754 C 0.91017 0.65343 0.49459 0.0
C755 C 0.8923 0.65376 0.48879 0.0
C756 C 0.85852 0.66041 0.52882 0.0
C757 C 0.86327 0.67531 0.54576 0.0
C758 C 0.8695 0.67258 0.56582 0.0
C759 C 0.87157 0.6551 0.56929 0.0
C760 C 0.86611 0.63983 0.5524 0.0
C761 C 0.85955 0.64243 0.53239 0.0
C762 C 0.82177 0.66226 0.51738 0.0
C763 C 0.82258 0.67947 0.52846 0.0
C764 C 0.81049 0.67667 0.5456 0.0
C765 C 0.79695 0.65651 0.55181 0.0
C766 C 0.79561 0.63924 0.53994 0.0
C767 C 0.80803 0.64212 0.52305 0.0
C768 C 0.83513 0.69837 0.38348 0.0
C769 C 0.94375 0.66802 0.51597 0.0
H770 H 0.32234 0.15251 0.36192 0.0
H771 H 0.3836 0.31485 0.54721 0.0
H772 H 0.31489 0.13923 0.47544 0.0
H773 H 0.30299 0.10386 0.46092 0.0
H774 H 0.36253 0.11149 0.47773 0.0
H775 H 0.37471 0.14767 0.4914 0.0
H776 H 0.31874 0.1718 0.45177 0.0
H777 H 0.31453 0.163 0.4135 0.0
H778 H 0.3752 0.17053 0.41529 0.0
H779 H 0.37931 0.17958 0.45355 0.0
H780 H 0.31941 0.20285 0.4828 0.0
H781 H 0.31162 0.22375 0.45965 0.0
H782 H 0.37158 0.24914 0.43528 0.0
H783 H 0.37931 0.22798 0.45874 0.0
H784 H 0.32846 0.21123 0.52897 0.0
H785 H 0.33162 0.2438 0.54389 0.0
H786 H 0.3926 0.2782 0.52179 0.0
H787 H 0.38932 0.24545 0.50717 0.0
H788 H 0.32617 0.17326 0.54755 0.0
H789 H 0.32355 0.18488 0.58331 0.0
H790 H 0.38746 0.23318 0.58579 0.0
H791 H 0.38959 0.22181 0.54948 0.0
H792 H 0.32525 0.13414 0.52332 0.0
H793 H 0.32679 0.11151 0.54924 0.0
H794 H 0.38968 0.15846 0.56789 0.0
H795 H 0.38836 0.18025 0.54088 0.0
O796 O 0.32437 0.15613 0.37705 0.0
O797 O 0.35562 0.16012 0.37884 0.0
O798 O 0.35053 0.28331 0.5525 0.0
O799 O 0.3819 0.30175 0.54136 0.0
C800 C 0.35231 0.1677 0.49272 0.0
C801 C 0.35208 0.18191 0.47864 0.0
C802 C 0.35404 0.20092 0.4867 0.0
C803 C 0.35709 0.20616 0.50875 0.0
C804 C 0.35792 0.1923 0.52282 0.0
C805 C 0.35575 0.17312 0.51486 0.0
C806 C 0.3457 0.14608 0.48433 0.0
C807 C 0.32546 0.13337 0.47582 0.0
C808 C 0.31861 0.11303 0.46775 0.0
C809 C 0.33173 0.10471 0.46835 0.0
C810 C 0.35209 0.11748 0.47689 0.0
C811 C 0.35903 0.13806 0.48483 0.0
C812 C 0.34945 0.17661 0.45537 0.0
C813 C 0.33119 0.17178 0.44383 0.0
C814 C 0.32878 0.16664 0.42199 0.0
C815 C 0.34455 0.16612 0.41131 0.0
C816 C 0.36277 0.17083 0.423 0.0
C817 C 0.36517 0.17601 0.44484 0.0
C818 C 0.34991 0.21393 0.47244 0.0
C819 C 0.33087 0.21292 0.47247 0.0
C820 C 0.3264 0.22473 0.45911 0.0
C821 C 0.34093 0.23794 0.44551 0.0
C822 C 0.36012 0.23911 0.44562 0.0
C823 C 0.36454 0.22705 0.45893 0.0
C824 C 0.35874 0.226 0.51718 0.0
C825 C 0.34251 0.22581 0.52744 0.0
C826 C 0.34434 0.24444 0.5359 0.0
C827 C 0.36241 0.26361 0.5341 0.0
C828 C 0.37852 0.26372 0.52351 0.0
C829 C 0.37668 0.24506 0.51511 0.0
C830 C 0.35804 0.19672 0.54595 0.0
C831 C 0.33973 0.18601 0.55605 0.0
C832 C 0.3383 0.1927 0.57654 0.0
C833 C 0.35524 0.21015 0.58745 0.0
C834 C 0.37398 0.21998 0.57772 0.0
C835 C 0.37533 0.21338 0.55709 0.0
C836 C 0.35677 0.15878 0.52997 0.0
C837 C 0.3395 0.13931 0.53266 0.0
C838 C 0.34034 0.12652 0.54776 0.0
C839 C 0.35835 0.13311 0.56085 0.0
C840 C 0.37566 0.15261 0.55794 0.0
C841 C 0.37489 0.16521 0.5426 0.0
C842 C 0.34193 0.16062 0.38811 0.0
C843 C 0.3645 0.28343 0.54322 0.0
H844 H 0.83542 0.16414 0.34925 0.0
H845 H 0.97796 0.30441 0.53655 0.0
H846 H 0.80658 0.16677 0.45485 0.0
H847 H 0.78204 0.13253 0.43723 0.0
H848 H 0.8095 0.10438 0.47462 0.0
H849 H 0.83456 0.13868 0.49114 0.0
H850 H 0.84409 0.20416 0.43385 0.0
H851 H 0.83925 0.19184 0.39638 0.0
H852 H 0.85281 0.14393 0.41296 0.0
H853 H 0.85783 0.15657 0.45034 0.0
H854 H 0.88008 0.24367 0.45634 0.0
H855 H 0.9072 0.26303 0.43251 0.0
H856 H 0.92693 0.2177 0.43727 0.0
H857 H 0.89937 0.19821 0.46035 0.0
H858 H 0.87817 0.25256 0.50558 0.0
H859 H 0.90898 0.2851 0.51899 0.0
H860 H 0.94384 0.25334 0.51794 0.0
H861 H 0.91288 0.22091 0.50464 0.0
H862 H 0.85069 0.22708 0.53536 0.0
H863 H 0.86316 0.24102 0.57222 0.0
H864 H 0.89396 0.20519 0.57468 0.0
H865 H 0.88252 0.19256 0.53773 0.0
H866 H 0.80476 0.17641 0.51102 0.0
H867 H 0.78101 0.15334 0.53607 0.0
H868 H 0.82588 0.13666 0.55631 0.0
H869 H 0.84901 0.15905 0.53089 0.0
O870 O 0.8375 0.16882 0.36414 0.0
O871 O 0.84451 0.14442 0.37351 0.0
O872 O 0.94696 0.30741 0.53142 0.0
O873 O 0.96556 0.29179 0.5312 0.0
C874 C 0.83963 0.17626 0.48199 0.0
C875 C 0.85397 0.18865 0.4675 0.0
C876 C 0.87152 0.2078 0.47473 0.0
C877 C 0.87461 0.21474 0.4964 0.0
C878 C 0.86051 0.20235 0.51097 0.0
C879 C 0.84298 0.18308 0.50381 0.0
C880 C 0.82233 0.15525 0.47437 0.0
C881 C 0.80703 0.15312 0.45946 0.0
C882 C 0.793 0.13353 0.44944 0.0
C883 C 0.79396 0.1157 0.45428 0.0
C884 C 0.80859 0.11781 0.47014 0.0
C885 C 0.82271 0.13738 0.47993 0.0
C886 C 0.85117 0.18117 0.44478 0.0
C887 C 0.84605 0.19104 0.42933 0.0
C888 C 0.84326 0.18395 0.40795 0.0
C889 C 0.84559 0.16686 0.40167 0.0
C890 C 0.85086 0.15709 0.41725 0.0
C891 C 0.85369 0.16424 0.43861 0.0
C892 C 0.88774 0.21952 0.46001 0.0
C893 C 0.89022 0.23792 0.45207 0.0
C894 C 0.90581 0.249 0.43855 0.0
C895 C 0.91933 0.24196 0.43284 0.0
C896 C 0.91663 0.22342 0.44087 0.0
C897 C 0.90098 0.21231 0.45423 0.0
C898 C 0.89337 0.23449 0.50414 0.0
C899 C 0.8925 0.25272 0.50825 0.0
C900 C 0.9101 0.27125 0.5159 0.0
C901 C 0.92889 0.27182 0.51954 0.0
C902 C 0.92965 0.25345 0.51531 0.0
C903 C 0.91202 0.23493 0.50769 0.0
C904 C 0.86557 0.20869 0.53399 0.0
C905 C 0.85995 0.22214 0.54404 0.0
C906 C 0.86706 0.23003 0.5651 0.0
C907 C 0.8798 0.22446 0.57644 0.0
C908 C 0.88464 0.21029 0.56639 0.0
C909 C 0.87784 0.20275 0.54533 0.0
C910 C 0.8287 0.16957 0.51929 0.0
C911 C 0.8094 0.16777 0.52093 0.0
C912 C 0.79592 0.15468 0.53531 0.0
C913 C 0.80149 0.14308 0.54818 0.0
C914 C 0.82093 0.1451 0.54647 0.0
C915 C 0.83432 0.15812 0.53214 0.0
C916 C 0.84252 0.1593 0.37896 0.0
C917 C 0.94762 0.29144 0.52774 0.0
H918 H 0.98861 0.50636 0.38657 0.0
H919 H 0.02333 0.39267 0.19147 0.0
H920 H 0.96474 0.51463 0.26378 0.0
H921 H 0.97109 0.54876 0.27831 0.0
H922 H 0.03646 0.5721 0.27963 0.0
H923 H 0.02981 0.53886 0.26348 0.0
H924 H 0.96748 0.47525 0.29728 0.0
H925 H 0.97031 0.48411 0.33548 0.0
H926 H 0.03465 0.52921 0.3321 0.0
H927 H 0.03162 0.5201 0.294 0.0
H928 H 0.97796 0.43373 0.27476 0.0
H929 H 0.99289 0.41631 0.29428 0.0
H930 H 0.05071 0.47457 0.30262 0.0
H931 H 0.03624 0.49096 0.28118 0.0
H932 H 0.96396 0.42637 0.23254 0.0
H933 H 0.96773 0.39782 0.21672 0.0
H934 H 0.03266 0.44052 0.21325 0.0
H935 H 0.02862 0.46888 0.22905 0.0
H936 H 0.95428 0.44719 0.20453 0.0
H937 H 0.95217 0.43088 0.16927 0.0
H938 H 0.01456 0.47893 0.16111 0.0
H939 H 0.01679 0.49435 0.19673 0.0
H940 H 0.95352 0.49409 0.21847 0.0
H941 H 0.94909 0.51448 0.19154 0.0
H942 H 0.01475 0.54853 0.18623 0.0
H943 H 0.01891 0.5288 0.21385 0.0
O944 O 0.98783 0.50308 0.37147 0.0
O945 O 0.02082 0.52611 0.36886 0.0
O946 O 0.98805 0.38219 0.20049 0.0
O947 O 0.02144 0.40359 0.19804 0.0
C948 C 0.99354 0.50356 0.25528 0.0
C949 C 0.99717 0.49155 0.26972 0.0
C950 C 0.99798 0.47377 0.2622 0.0
C951 C 0.99358 0.46715 0.2404 0.0
C952 C 0.98875 0.47845 0.22613 0.0
C953 C 0.98919 0.49693 0.23348 0.0
C954 C 0.99684 0.5243 0.26279 0.0
C955 C 0.98038 0.52734 0.26692 0.0
C956 C 0.98409 0.5468 0.27546 0.0
C957 C 0.00433 0.5634 0.28028 0.0
C958 C 0.02066 0.56009 0.27576 0.0
C959 C 0.01693 0.54093 0.26676 0.0
C960 C 0.99929 0.49711 0.29287 0.0
C961 C 0.98216 0.48703 0.30485 0.0
C962 C 0.98383 0.49214 0.32665 0.0
C963 C 1.0027 0.50741 0.33685 0.0
C964 C 0.01988 0.51742 0.32474 0.0
C965 C 0.01818 0.51228 0.30295 0.0
C966 C 0.00595 0.46368 0.27656 0.0
C967 C 0.99385 0.44267 0.28082 0.0
C968 C 1.00241 0.4328 0.29223 0.0
C969 C 0.02318 0.44389 0.30001 0.0
C970 C 0.03487 0.46524 0.29651 0.0
C971 C 0.02648 0.47486 0.2846 0.0
C972 C 0.99603 0.4496 0.23197 0.0
C973 C 0.97899 0.42945 0.22846 0.0
C974 C 0.98119 0.41321 0.21939 0.0
C975 C 1.00051 0.4169 0.21368 0.0
C976 C 0.01758 0.43713 0.21744 0.0
C977 C 0.01535 0.45334 0.22652 0.0
C978 C 0.98568 0.47193 0.20314 0.0
C979 C 0.96728 0.45445 0.19485 0.0
C980 C 0.96611 0.44517 0.1747 0.0
C981 C 0.98333 0.45338 0.1625 0.0
C982 C 1.00118 0.47191 0.17028 0.0
C983 C 1.0024 0.48098 0.19049 0.0
C984 C 0.98652 0.51001 0.21806 0.0
C985 C 0.96691 0.50617 0.21163 0.0
C986 C 0.96443 0.51774 0.1961 0.0
C987 C 0.98154 0.53321 0.18655 0.0
C988 C 1.00121 0.5371 0.1934 0.0
C989 C 1.00365 0.52572 0.20908 0.0
C990 C 0.00442 0.51282 0.36 0.0
C991 C 1.00287 0.3998 0.2037 0.0
H992 H 0.51387 0.53669 0.3855 0.0
H993 H 0.37428 0.36237 0.20488 0.0
H994 H 0.50856 0.53925 0.25519 0.0
H995 H 0.53525 0.57248 0.27205 0.0
H996 H 0.5665 0.54207 0.29769 0.0
H997 H 0.5401 0.50882 0.2794 0.0
H998 H 0.49141 0.52262 0.29433 0.0
H999 H 0.50012 0.5336 0.33211 0.0
H1000 H 0.50818 0.48068 0.34122 0.0
H1001 H 0.49976 0.47007 0.30329 0.0
H1002 H 0.4527 0.48886 0.2866 0.0
H1003 H 0.42496 0.47317 0.31007 0.0
H1004 H 0.42389 0.41448 0.30074 0.0
H1005 H 0.45324 0.43115 0.27895 0.0
H1006 H 0.43231 0.46403 0.23445 0.0
H1007 H 0.39907 0.43423 0.22126 0.0
H1008 H 0.425 0.39389 0.22357 0.0
H1009 H 0.4581 0.42382 0.23683 0.0
H1010 H 0.46859 0.49234 0.19994 0.0
H1011 H 0.45714 0.47979 0.16288 0.0
H1012 H 0.47047 0.4301 0.17097 0.0
H1013 H 0.48324 0.44381 0.20766 0.0
H1014 H 0.50127 0.52779 0.21926 0.0
H1015 H 0.52259 0.5485 0.19197 0.0
H1016 H 0.54972 0.50922 0.1878 0.0
H1017 H 0.5292 0.4895 0.2165 0.0
O1018 O 0.51048 0.53208 0.3706 0.0
O1019 O 0.51423 0.50452 0.37448 0.0
O1020 O 0.37461 0.39579 0.20932 0.0
O1021 O 0.38721 0.3744 0.21016 0.0
C1022 C 0.50449 0.50119 0.25812 0.0
C1023 C 0.49042 0.48922 0.27299 0.0
C1024 C 0.47164 0.47114 0.26601 0.0
C1025 C 0.46766 0.46419 0.24425 0.0
C1026 C 0.48201 0.47568 0.22944 0.0
C1027 C 0.50021 0.49447 0.23628 0.0
C1028 C 0.52263 0.52168 0.26552 0.0
C1029 C 0.52164 0.53988 0.26355 0.0
C1030 C 0.5367 0.5588 0.2737 0.0
C1031 C 0.55287 0.5599 0.28653 0.0
C1032 C 0.55434 0.5418 0.28781 0.0
C1033 C 0.5393 0.52281 0.27737 0.0
C1034 C 0.49523 0.49571 0.29603 0.0
C1035 C 0.49526 0.51354 0.30447 0.0
C1036 C 0.50013 0.51971 0.32608 0.0
C1037 C 0.50491 0.50806 0.33968 0.0
C1038 C 0.50462 0.49004 0.33118 0.0
C1039 C 0.4998 0.48393 0.30954 0.0
C1040 C 0.4551 0.46122 0.28099 0.0
C1041 C 0.44681 0.47274 0.29001 0.0
C1042 C 0.43062 0.46356 0.30318 0.0
C1043 C 0.42174 0.44234 0.30716 0.0
C1044 C 0.43033 0.43088 0.29832 0.0
C1045 C 0.44697 0.4403 0.28557 0.0
C1046 C 0.44752 0.44601 0.23656 0.0
C1047 C 0.43072 0.44872 0.23212 0.0
C1048 C 0.41179 0.43169 0.22458 0.0
C1049 C 0.40938 0.41167 0.22134 0.0
C1050 C 0.42632 0.40908 0.22587 0.0
C1051 C 0.44523 0.42613 0.23342 0.0
C1052 C 0.47678 0.46901 0.20646 0.0
C1053 C 0.46945 0.47903 0.19354 0.0
C1054 C 0.46262 0.4716 0.17243 0.0
C1055 C 0.46254 0.45368 0.1639 0.0
C1056 C 0.47045 0.44403 0.17683 0.0
C1057 C 0.47762 0.45173 0.19787 0.0
C1058 C 0.51409 0.50752 0.22032 0.0
C1059 C 0.5123 0.52408 0.21297 0.0
C1060 C 0.52424 0.53563 0.19698 0.0
C1061 C 0.53785 0.5305 0.18743 0.0
C1062 C 0.53967 0.51387 0.19493 0.0
C1063 C 0.5279 0.5025 0.21127 0.0
C1064 C 0.51016 0.5147 0.36263 0.0
C1065 C 0.38933 0.39354 0.21325 0.0
H1066 H 0.51971 0.9791 0.38981 0.0
H1067 H 0.37661 0.99605 0.20936 0.0
H1068 H 0.54524 0.01607 0.27108 0.0
H1069 H 0.56989 0.00788 0.28806 0.0
H1070 H 0.52237 0.94292 0.28631 0.0
H1071 H 0.49849 0.95116 0.2686 0.0
H1072 H 0.51904 0.01297 0.30833 0.0
H1073 H 0.52422 0.00458 0.34416 0.0
H1074 H 0.47192 0.9424 0.33134 0.0
H1075 H 0.4671 0.95093 0.29545 0.0
H1076 H 0.47437 0.01144 0.30884 0.0
H1077 H 0.44752 1.00048 0.33417 0.0
H1078 H 0.40802 0.94579 0.29231 0.0
H1079 H 0.43494 0.95654 0.26755 0.0
H1080 H 0.46634 0.02817 0.26327 0.0
H1081 H 0.43801 0.0339 0.25321 0.0
H1082 H 0.40829 0.97513 0.21504 0.0
H1083 H 0.43657 0.96952 0.22543 0.0
H1084 H 0.49245 0.03379 0.21991 0.0
H1085 H 0.48149 0.03851 0.18476 0.0
H1086 H 0.45595 0.97259 0.16757 0.0
H1087 H 0.46816 0.96851 0.20222 0.0
H1088 H 0.52786 0.02742 0.21998 0.0
H1089 H 0.54666 0.02717 0.18941 0.0
H1090 H 0.52566 0.96183 0.19558 0.0
H1091 H 0.50597 0.962 0.22524 0.0
O1092 O 0.51733 0.98211 0.37561 0.0
O1093 O 0.49018 0.95043 0.36832 0.0
O1094 O 0.40379 0.02416 0.23364 0.0
O1095 O 0.38795 0.99414 0.21369 0.0
C1096 C 0.50405 0.98931 0.26231 0.0
C1097 C 0.49 0.98766 0.27743 0.0
C1098 C 0.47318 0.99015 0.27157 0.0
C1099 C 0.47097 0.99537 0.25086 0.0
C1100 C 0.48509 0.99731 0.23575 0.0
C1101 C 0.50163 0.99414 0.24137 0.0
C1102 C 0.52012 0.98419 0.2685 0.0
C1103 C 0.54045 1.00001 0.2738 0.0
C1104 C 0.55439 0.99532 0.28382 0.0
C1105 C 0.54816 0.97473 0.28877 0.0
C1106 C 0.52795 0.95888 0.28252 0.0
C1107 C 0.51419 0.96354 0.27238 0.0
C1108 C 0.49263 0.98261 0.29938 0.0
C1109 C 0.50871 0.99757 0.31332 0.0
C1110 C 0.51162 0.99272 0.33377 0.0
C1111 C 0.49846 0.97282 0.34063 0.0
C1112 C 0.48231 0.95789 0.32658 0.0
C1113 C 0.47946 0.96274 0.30612 0.0
C1114 C 0.45659 0.98482 0.28631 0.0
C1115 C 0.45985 0.99717 0.30514 0.0
C1116 C 0.44449 0.99092 0.31954 0.0
C1117 C 0.42569 0.97215 0.31536 0.0
C1118 C 0.42242 0.96013 0.29623 0.0
C1119 C 0.4377 0.96637 0.28192 0.0
C1120 C 0.45357 0.99854 0.24492 0.0
C1121 C 0.45367 0.01656 0.25277 0.0
C1122 C 0.43749 0.01979 0.24698 0.0
C1123 C 0.42091 0.005 0.23325 0.0
C1124 C 0.42083 0.98687 0.22557 0.0
C1125 C 0.437 0.98365 0.23142 0.0
C1126 C 0.48118 1.00084 0.21355 0.0
C1127 C 0.48495 0.02054 0.20829 0.0
C1128 C 0.47838 0.0231 0.18826 0.0
C1129 C 0.46754 0.0059 0.17322 0.0
C1130 C 0.4645 0.98632 0.17843 0.0
C1131 C 0.47141 0.98388 0.19831 0.0
C1132 C 0.51549 0.99473 0.22489 0.0
C1133 C 0.52748 0.0131 0.21482 0.0
C1134 C 0.53835 0.01295 0.19741 0.0
C1135 C 0.53759 0.99442 0.18981 0.0
C1136 C 0.52631 0.97629 0.20065 0.0
C1137 C 0.51526 0.97641 0.21786 0.0
C1138 C 0.50167 0.9677 0.36232 0.0
C1139 C 0.40375 0.00841 0.22693 0.0
H1140 H 0.48196 0.02694 0.68689 0.0
H1141 H 0.62211 0.99112 0.85677 0.0
H1142 H 0.4871 0.0322 0.81795 0.0
H1143 H 0.46065 0.03712 0.80009 0.0
H1144 H 0.43417 0.97563 0.76797 0.0
H1145 H 0.4606 0.97079 0.78603 0.0
H1146 H 0.50708 0.03559 0.77703 0.0
H1147 H 0.49736 0.0378 0.74036 0.0
H1148 H 0.48945 0.97688 0.72376 0.0
H1149 H 0.49886 0.97473 0.76062 0.0
H1150 H 0.54687 0.03873 0.77716 0.0
H1151 H 0.5721 0.04608 0.75112 0.0
H1152 H 0.56922 0.98741 0.76126 0.0
H1153 H 0.54244 0.97937 0.78574 0.0
H1154 H 0.57046 0.0364 0.82185 0.0
H1155 H 0.60311 0.03874 0.83234 0.0
H1156 H 0.57067 0.97344 0.84473 0.0
H1157 H 0.53816 0.97125 0.83395 0.0
H1158 H 0.54855 0.02979 0.8635 0.0
H1159 H 0.5604 0.02616 0.89858 0.0
H1160 H 0.51143 0.96178 0.89548 0.0
H1161 H 0.50023 0.96541 0.85984 0.0
H1162 H 0.50621 0.0262 0.86461 0.0
H1163 H 0.4844 0.02131 0.89383 0.0
H1164 H 0.43826 0.96162 0.86351 0.0
H1165 H 0.46075 0.9663 0.83478 0.0
O1166 O 0.48583 0.02576 0.70129 0.0
O1167 O 0.48235 0.99458 0.69347 0.0
O1168 O 0.62539 0.02407 0.84561 0.0
O1169 O 0.60943 0.99059 0.8524 0.0
C1170 C 0.49467 1.00058 0.80959 0.0
C1171 C 0.50865 0.00326 0.79397 0.0
C1172 C 0.52746 0.00435 0.79964 0.0
C1173 C 0.53214 0.00236 0.82096 0.0
C1174 C 0.51818 0.99955 0.83661 0.0
C1175 C 0.49945 0.99881 0.83097 0.0
C1176 C 0.47578 1.00115 0.8033 0.0
C1177 C 0.47518 0.01953 0.80762 0.0
C1178 C 0.46024 0.02242 0.79716 0.0
C1179 C 0.44553 0.0069 0.78234 0.0
C1180 C 0.44525 0.98786 0.77931 0.0
C1181 C 0.46027 0.98503 0.78968 0.0
C1182 C 0.50351 0.00493 0.7715 0.0
C1183 C 0.50315 0.0227 0.76547 0.0
C1184 C 0.49765 0.02394 0.74449 0.0
C1185 C 0.49258 0.00749 0.72913 0.0
C1186 C 0.49323 0.98981 0.7352 0.0
C1187 C 0.49864 0.98856 0.75622 0.0
C1188 C 0.54268 0.00847 0.78339 0.0
C1189 C 0.55136 0.02726 0.77341 0.0
C1190 C 0.56612 0.03159 0.75873 0.0
C1191 C 0.57308 0.0175 0.75408 0.0
C1192 C 0.56417 0.99858 0.76404 0.0
C1193 C 0.54899 0.99403 0.77832 0.0
C1194 C 0.55197 0.00365 0.8271 0.0
C1195 C 0.57047 0.0226 0.82671 0.0
C1196 C 0.58908 0.0239 0.83277 0.0
C1197 C 0.5895 0.00627 0.83939 0.0
C1198 C 0.5709 0.98731 0.83973 0.0
C1199 C 0.55231 0.98602 0.83361 0.0
C1200 C 0.52361 0.99784 0.85903 0.0
C1201 C 0.54029 0.01494 0.87046 0.0
C1202 C 0.54695 0.01285 0.89061 0.0
C1203 C 0.53692 0.99364 0.89992 0.0
C1204 C 0.51971 0.97671 0.88869 0.0
C1205 C 0.51314 0.97879 0.86842 0.0
C1206 C 0.48516 0.99657 0.84759 0.0
C1207 C 0.49137 0.01209 0.86425 0.0
C1208 C 0.47876 0.00932 0.88087 0.0
C1209 C 0.45949 0.99104 0.88112 0.0
C1210 C 0.45309 0.97575 0.86405 0.0
C1211 C 0.46582 0.97849 0.84748 0.0
C1212 C 0.48662 0.00881 0.70688 0.0
C1213 C 0.60922 0.0076 0.84596 0.0
H1214 H 0.96335 0.44191 0.70935 0.0
H1215 H 0.04226 0.64363 0.86898 0.0
H1216 H 0.98601 0.45899 0.84214 0.0
H1217 H 0.97545 0.42373 0.82781 0.0
H1218 H 0.02682 0.44865 0.78827 0.0
H1219 H 0.0379 0.48389 0.80361 0.0
H1220 H 0.97559 0.47151 0.79887 0.0
H1221 H 0.96484 0.45458 0.76294 0.0
H1222 H 0.02308 0.50088 0.74154 0.0
H1223 H 0.03374 0.51749 0.77765 0.0
H1224 H 0.97424 0.51242 0.80379 0.0
H1225 H 0.9622 0.5291 0.77946 0.0
H1226 H 0.0251 0.57487 0.76965 0.0
H1227 H 0.0369 0.55848 0.79502 0.0
H1228 H 0.9866 0.54154 0.84071 0.0
H1229 H 0.98834 0.57481 0.84984 0.0
H1230 H 0.05448 0.60525 0.85761 0.0
H1231 H 0.05251 0.57189 0.84822 0.0
H1232 H 0.99058 0.52064 0.87674 0.0
H1233 H 0.99237 0.53766 0.91118 0.0
H1234 H 0.05782 0.56191 0.91777 0.0
H1235 H 0.05584 0.54516 0.88258 0.0
H1236 H 0.99479 0.48429 0.88037 0.0
H1237 H 0.99923 0.46521 0.90861 0.0
H1238 H 0.05823 0.47991 0.8868 0.0
H1239 H 0.05371 0.49925 0.85857 0.0
O1240 O 0.96792 0.44885 0.72344 0.0
O1241 O 0.99802 0.47313 0.71319 0.0
O1242 O 0.00711 0.61395 0.86072 0.0
O1243 O 0.04114 0.6303 0.86512 0.0
C1244 C 0.01617 0.4954 0.82904 0.0
C1245 C 0.0121 0.50564 0.81278 0.0
C1246 C 0.01322 0.52495 0.81753 0.0
C1247 C 0.01839 0.53412 0.83849 0.0
C1248 C 0.0217 0.52364 0.85491 0.0
C1249 C 0.02093 0.50443 0.85018 0.0
C1250 C 0.01278 0.47406 0.82401 0.0
C1251 C 0.99548 0.4568 0.83105 0.0
C1252 C 0.98925 0.43666 0.82252 0.0
C1253 C 1.00003 0.43338 0.80653 0.0
C1254 C 0.0182 0.45057 0.80059 0.0
C1255 C 0.02455 0.47074 0.80933 0.0
C1256 C 0.0055 0.4956 0.79086 0.0
C1257 C 0.98603 0.4779 0.78641 0.0
C1258 C 0.97992 0.4683 0.76587 0.0
C1259 C 0.99312 0.47635 0.74937 0.0
C1260 C 0.01255 0.49425 0.75388 0.0
C1261 C 0.01867 0.50379 0.77447 0.0
C1262 C 0.0064 0.53427 0.80114 0.0
C1263 C 0.98539 0.52593 0.7962 0.0
C1264 C 0.97856 0.53544 0.78213 0.0
C1265 C 0.99264 0.55338 0.77246 0.0
C1266 C 0.01379 0.5613 0.77702 0.0
C1267 C 0.0206 0.55189 0.79136 0.0
C1268 C 0.01945 0.5544 0.84356 0.0
C1269 C 1.00145 0.55546 0.84415 0.0
C1270 C 1.00249 0.57446 0.84948 0.0
C1271 C 0.02157 0.59271 0.85442 0.0
C1272 C 0.03956 0.59152 0.85385 0.0
C1273 C 0.03849 0.57251 0.84847 0.0
C1274 C 0.02305 0.53162 0.87722 0.0
C1275 C 0.00526 0.52935 0.88577 0.0
C1276 C 0.00633 0.53904 0.90555 0.0
C1277 C 0.02525 0.55113 0.91737 0.0
C1278 C 0.04304 0.55287 0.90901 0.0
C1279 C 0.04194 0.54316 0.88906 0.0
C1280 C 0.02397 0.49323 0.8675 0.0
C1281 C 0.00874 0.48353 0.88178 0.0
C1282 C 0.01123 0.4725 0.89778 0.0
C1283 C 0.02904 0.47097 0.89984 0.0
C1284 C 0.04442 0.48094 0.88566 0.0
C1285 C 0.04183 0.49189 0.86952 0.0
C1286 C 0.98658 0.46609 0.72756 0.0
C1287 C 0.02275 0.61291 0.86026 0.0
H1288 H 0.48542 0.51242 0.68746 0.0
H1289 H 0.65695 0.61705 0.86074 0.0
H1290 H 0.47146 0.50447 0.79705 0.0
H1291 H 0.44177 0.47256 0.78018 0.0
H1292 H 0.4667 0.43603 0.80506 0.0
H1293 H 0.49638 0.46782 0.82128 0.0
H1294 H 0.51151 0.54348 0.7763 0.0
H1295 H 0.5005 0.53588 0.73849 0.0
H1296 H 0.50131 0.47807 0.73957 0.0
H1297 H 0.51258 0.48599 0.77729 0.0
H1298 H 0.55816 0.57818 0.80266 0.0
H1299 H 0.58558 0.59725 0.7793 0.0
H1300 H 0.5802 0.53902 0.75533 0.0
H1301 H 0.55428 0.52053 0.78016 0.0
H1302 H 0.55561 0.57796 0.85281 0.0
H1303 H 0.58997 0.6062 0.86522 0.0
H1304 H 0.61601 0.57088 0.83798 0.0
H1305 H 0.58156 0.54266 0.82589 0.0
H1306 H 0.51825 0.54448 0.87806 0.0
H1307 H 0.53149 0.55335 0.91534 0.0
H1308 H 0.57455 0.5326 0.90252 0.0
H1309 H 0.56077 0.52318 0.86562 0.0
H1310 H 0.47405 0.50651 0.8481 0.0
H1311 H 0.45062 0.48391 0.87343 0.0
H1312 H 0.49508 0.46632 0.89274 0.0
H1313 H 0.51761 0.48775 0.86649 0.0
O1314 O 0.48987 0.51516 0.70239 0.0
O1315 O 0.49046 0.48558 0.70381 0.0
O1316 O 0.62903 0.6236 0.86984 0.0
O1317 O 0.64319 0.60612 0.85602 0.0
C1318 C 0.50564 0.50766 0.81769 0.0
C1319 C 0.51921 0.51991 0.80256 0.0
C1320 C 0.53911 0.53647 0.80923 0.0
C1321 C 0.54518 0.54109 0.83115 0.0
C1322 C 0.53155 0.52902 0.8463 0.0
C1323 C 0.51174 0.51227 0.83962 0.0
C1324 C 0.48611 0.48845 0.81031 0.0
C1325 C 0.47029 0.48951 0.79908 0.0
C1326 C 0.45337 0.47132 0.78952 0.0
C1327 C 0.4521 0.45187 0.79106 0.0
C1328 C 0.46746 0.45084 0.80328 0.0
C1329 C 0.4843 0.46894 0.81276 0.0
C1330 C 0.51269 0.51522 0.77956 0.0
C1331 C 0.50934 0.52921 0.76831 0.0
C1332 C 0.50302 0.52481 0.74673 0.0
C1333 C 0.49996 0.50633 0.73602 0.0
C1334 C 0.50346 0.49241 0.74735 0.0
C1335 C 0.50983 0.49685 0.76891 0.0
C1336 C 0.55418 0.54792 0.79325 0.0
C1337 C 0.56296 0.56958 0.79237 0.0
C1338 C 0.57854 0.58044 0.77877 0.0
C1339 C 0.58539 0.56981 0.76537 0.0
C1340 C 0.57585 0.54794 0.7657 0.0
C1341 C 0.56068 0.53721 0.77967 0.0
C1342 C 0.56612 0.55832 0.83838 0.0
C1343 C 0.56876 0.57636 0.84956 0.0
C1344 C 0.5884 0.59246 0.85661 0.0
C1345 C 0.60575 0.59081 0.85256 0.0
C1346 C 0.603 0.57268 0.84134 0.0
C1347 C 0.58335 0.55656 0.83436 0.0
C1348 C 0.53866 0.53334 0.86914 0.0
C1349 C 0.53039 0.54166 0.88342 0.0
C1350 C 0.53807 0.54684 0.90463 0.0
C1351 C 0.55415 0.54377 0.91188 0.0
C1352 C 0.56202 0.53495 0.89756 0.0
C1353 C 0.5543 0.52973 0.87643 0.0
C1354 C 0.49767 0.49896 0.8555 0.0
C1355 C 0.47864 0.49767 0.85776 0.0
C1356 C 0.46534 0.48487 0.87241 0.0
C1357 C 0.47085 0.47318 0.88524 0.0
C1358 C 0.49004 0.47471 0.88296 0.0
C1359 C 0.50315 0.48725 0.86813 0.0
C1360 C 0.49315 0.50166 0.71312 0.0
C1361 C 0.62664 0.60787 0.86002 0.0
H1362 H 0.65971 0.85417 0.71414 0.0
H1363 H 0.66466 0.70948 0.52227 0.0
H1364 H 0.63637 0.85657 0.58607 0.0
H1365 H 0.64783 0.89298 0.59816 0.0
H1366 H 0.70894 0.90365 0.61242 0.0
H1367 H 0.69761 0.86788 0.59953 0.0
H1368 H 0.63398 0.8271 0.62447 0.0
H1369 H 0.63906 0.83775 0.66242 0.0
H1370 H 0.70014 0.84637 0.66322 0.0
H1371 H 0.69493 0.83595 0.62522 0.0
H1372 H 0.63298 0.77743 0.61865 0.0
H1373 H 0.63988 0.75527 0.64141 0.0
H1374 H 0.70101 0.78231 0.61965 0.0
H1375 H 0.69403 0.80424 0.59725 0.0
H1376 H 0.62352 0.7601 0.57098 0.0
H1377 H 0.62066 0.72725 0.55736 0.0
H1378 H 0.68247 0.76148 0.53727 0.0
H1379 H 0.68518 0.79414 0.5512 0.0
H1380 H 0.62364 0.78308 0.52785 0.0
H1381 H 0.62687 0.7713 0.49209 0.0
H1382 H 0.69101 0.81911 0.4964 0.0
H1383 H 0.68737 0.831 0.53156 0.0
H1384 H 0.6212 0.8278 0.545 0.0
H1385 H 0.61748 0.84835 0.51793 0.0
H1386 H 0.68356 0.88521 0.51735 0.0
H1387 H 0.68694 0.86526 0.54531 0.0
O1388 O 0.65801 0.84999 0.69915 0.0
O1389 O 0.68926 0.85409 0.69873 0.0
O1390 O 0.6339 0.70529 0.53903 0.0
O1391 O 0.66545 0.7222 0.52801 0.0
C1392 C 0.65989 0.8378 0.5845 0.0
C1393 C 0.6608 0.82431 0.59909 0.0
C1394 C 0.65898 0.80517 0.59167 0.0
C1395 C 0.65589 0.79934 0.56972 0.0
C1396 C 0.65475 0.81265 0.55515 0.0
C1397 C 0.65627 0.83165 0.56255 0.0
C1398 C 0.66617 0.8596 0.59193 0.0
C1399 C 0.65223 0.86688 0.59171 0.0
C1400 C 0.65877 0.88761 0.59877 0.0
C1401 C 0.67935 0.90131 0.60615 0.0
C1402 C 0.6931 0.89373 0.60647 0.0
C1403 C 0.68661 0.8732 0.59931 0.0
C1404 C 0.66397 0.83049 0.62218 0.0
C1405 C 0.64842 0.83124 0.6329 0.0
C1406 C 0.65137 0.83734 0.65457 0.0
C1407 C 0.66998 0.84283 0.66588 0.0
C1408 C 0.68559 0.84214 0.65501 0.0
C1409 C 0.68261 0.83608 0.63334 0.0
C1410 C 0.66305 0.79246 0.60641 0.0
C1411 C 0.64789 0.77863 0.61902 0.0
C1412 C 0.65182 0.76596 0.63189 0.0
C1413 C 0.67104 0.76716 0.63244 0.0
C1414 C 0.68619 0.78126 0.6199 0.0
C1415 C 0.68221 0.79372 0.607 0.0
C1416 C 0.65448 0.77945 0.56192 0.0
C1417 C 0.63643 0.76042 0.5637 0.0
C1418 C 0.63484 0.74171 0.55588 0.0
C1419 C 0.65132 0.74175 0.54614 0.0
C1420 C 0.66947 0.76089 0.5446 0.0
C1421 C 0.67106 0.77957 0.5525 0.0
C1422 C 0.65521 0.80802 0.53217 0.0
C1423 C 0.63818 0.79135 0.52071 0.0
C1424 C 0.64015 0.78449 0.50042 0.0
C1425 C 0.65926 0.79413 0.49136 0.0
C1426 C 0.67598 0.81149 0.5026 0.0
C1427 C 0.67395 0.81838 0.52275 0.0
C1428 C 0.65432 0.84509 0.5471 0.0
C1429 C 0.63483 0.84053 0.53918 0.0
C1430 C 0.63277 0.85219 0.52355 0.0
C1431 C 0.6502 0.86845 0.51523 0.0
C1432 C 0.66976 0.87311 0.52353 0.0
C1433 C 0.67177 0.86163 0.53942 0.0
C1434 C 0.67308 0.84932 0.6889 0.0
C1435 C 0.64962 0.72195 0.53756 0.0
H1436 H 0.16494 0.86396 0.71988 0.0
H1437 H 0.03977 0.69379 0.5454 0.0
H1438 H 0.17289 0.8676 0.59853 0.0
H1439 H 0.19831 0.9001 0.6179 0.0
H1440 H 0.23659 0.87331 0.63063 0.0
H1441 H 0.21115 0.84086 0.61017 0.0
H1442 H 0.14123 0.83988 0.62946 0.0
H1443 H 0.14724 0.85226 0.667 0.0
H1444 H 0.18818 0.82789 0.67591 0.0
H1445 H 0.18189 0.81547 0.63835 0.0
H1446 H 0.10359 0.80303 0.60083 0.0
H1447 H 0.07667 0.7878 0.62554 0.0
H1448 H 0.11045 0.76357 0.65869 0.0
H1449 H 0.13702 0.77825 0.63322 0.0
H1450 H 0.10522 0.79657 0.5543 0.0
H1451 H 0.07237 0.76678 0.54037 0.0
H1452 H 0.08781 0.72511 0.57111 0.0
H1453 H 0.12073 0.75504 0.58474 0.0
H1454 H 0.14737 0.83201 0.53591 0.0
H1455 H 0.13476 0.82276 0.49879 0.0
H1456 H 0.12808 0.76178 0.50392 0.0
H1457 H 0.14223 0.77185 0.54076 0.0
H1458 H 0.18284 0.86477 0.56101 0.0
H1459 H 0.20764 0.88373 0.53539 0.0
H1460 H 0.21527 0.83037 0.52249 0.0
H1461 H 0.19147 0.81209 0.54953 0.0
O1462 O 0.16268 0.85883 0.70513 0.0
O1463 O 0.18357 0.846 0.70887 0.0
O1464 O 0.04549 0.72794 0.53516 0.0
O1465 O 0.05266 0.70586 0.55071 0.0
C1466 C 0.17285 0.83145 0.59437 0.0
C1467 C 0.15774 0.81965 0.6084 0.0
C1468 C 0.13901 0.80206 0.60055 0.0
C1469 C 0.13549 0.79601 0.57859 0.0
C1470 C 0.15074 0.80755 0.56447 0.0
C1471 C 0.16961 0.82518 0.57243 0.0
C1472 C 0.19032 0.85201 0.60266 0.0
C1473 C 0.18705 0.86896 0.60492 0.0
C1474 C 0.20147 0.8874 0.61633 0.0
C1475 C 0.21932 0.88918 0.62622 0.0
C1476 C 0.22304 0.87247 0.62316 0.0
C1477 C 0.20859 0.85397 0.61144 0.0
C1478 C 0.16107 0.82674 0.63128 0.0
C1479 C 0.15139 0.83714 0.6396 0.0
C1480 C 0.1549 0.84423 0.66102 0.0
C1481 C 0.1682 0.84107 0.67447 0.0
C1482 C 0.17784 0.83058 0.66601 0.0
C1483 C 0.17429 0.82347 0.64459 0.0
C1484 C 0.12219 0.7916 0.61507 0.0
C1485 C 0.10504 0.79416 0.61323 0.0
C1486 C 0.0898 0.78568 0.62759 0.0
C1487 C 0.09144 0.7746 0.64429 0.0
C1488 C 0.10858 0.77185 0.64595 0.0
C1489 C 0.12381 0.78028 0.63146 0.0
C1490 C 0.11542 0.77793 0.57036 0.0
C1491 C 0.10152 0.78099 0.55791 0.0
C1492 C 0.08274 0.76395 0.55002 0.0
C1493 C 0.07748 0.74354 0.55459 0.0
C1494 C 0.09139 0.7406 0.56726 0.0
C1495 C 0.11019 0.75766 0.57509 0.0
C1496 C 0.14578 0.80265 0.54113 0.0
C1497 C 0.14383 0.8169 0.52885 0.0
C1498 C 0.13625 0.81141 0.50768 0.0
C1499 C 0.12997 0.79134 0.49837 0.0
C1500 C 0.13285 0.77741 0.51043 0.0
C1501 C 0.14083 0.78308 0.53157 0.0
C1502 C 0.18564 0.83719 0.5576 0.0
C1503 C 0.19038 0.85742 0.55325 0.0
C1504 C 0.20428 0.86808 0.53818 0.0
C1505 C 0.2134 0.85856 0.52662 0.0
C1506 C 0.20881 0.83835 0.53122 0.0
C1507 C 0.19511 0.8278 0.54659 0.0
C1508 C 0.17199 0.84874 0.69719 0.0
C1509 C 0.05757 0.72538 0.5462 0.0
H1510 H 0.20435 0.3436 0.72945 0.0
H1511 H 0.0421 0.3118 0.55077 0.0
H1512 H 0.22232 0.35943 0.61455 0.0
H1513 H 0.2465 0.34994 0.63015 0.0
H1514 H 0.20289 0.28487 0.6123 0.0
H1515 H 0.1797 0.2947 0.59599 0.0
H1516 H 0.18681 0.36275 0.64523 0.0
H1517 H 0.19622 0.36088 0.68218 0.0
H1518 H 0.1737 0.29487 0.66985 0.0
H1519 H 0.16415 0.29693 0.63305 0.0
H1520 H 0.14015 0.35925 0.62578 0.0
H1521 H 0.11346 0.35139 0.65027 0.0
H1522 H 0.10494 0.28944 0.65418 0.0
H1523 H 0.1296 0.29671 0.62766 0.0
H1524 H 0.14042 0.36795 0.58689 0.0
H1525 H 0.10813 0.36624 0.57598 0.0
H1526 H 0.07961 0.29941 0.56298 0.0
H1527 H 0.11202 0.30139 0.57393 0.0
H1528 H 0.16291 0.37205 0.5559 0.0
H1529 H 0.15071 0.37466 0.52055 0.0
H1530 H 0.13889 0.31259 0.50184 0.0
H1531 H 0.14978 0.30968 0.53776 0.0
H1532 H 0.20469 0.37145 0.55813 0.0
H1533 H 0.22575 0.37484 0.52848 0.0
H1534 H 0.20748 0.30959 0.5297 0.0
H1535 H 0.18549 0.30615 0.55837 0.0
O1536 O 0.20039 0.34396 0.71482 0.0
O1537 O 0.18867 0.31008 0.70763 0.0
O1538 O 0.0704 0.3473 0.56224 0.0
O1539 O 0.05504 0.31292 0.55524 0.0
C1540 C 0.18299 0.33253 0.59817 0.0
C1541 C 0.16981 0.33157 0.61398 0.0
C1542 C 0.15208 0.33267 0.6086 0.0
C1543 C 0.1481 0.33581 0.58748 0.0
C1544 C 0.16189 0.33804 0.57185 0.0
C1545 C 0.17933 0.33627 0.57716 0.0
C1546 C 0.19943 0.32779 0.60376 0.0
C1547 C 0.21842 0.34323 0.61342 0.0
C1548 C 0.23204 0.3377 0.62266 0.0
C1549 C 0.22675 0.31657 0.62266 0.0
C1550 C 0.2079 0.30132 0.61229 0.0
C1551 C 0.19452 0.30689 0.60286 0.0
C1552 C 0.17498 0.33003 0.63646 0.0
C1553 C 0.18389 0.3479 0.65058 0.0
C1554 C 0.18927 0.34679 0.67165 0.0
C1555 C 0.18579 0.32774 0.67895 0.0
C1556 C 0.17667 0.3098 0.66474 0.0
C1557 C 0.17127 0.31094 0.64369 0.0
C1558 C 0.13674 0.32851 0.62467 0.0
C1559 C 0.13219 0.34386 0.63165 0.0
C1560 C 0.11712 0.3394 0.64605 0.0
C1561 C 0.10667 0.31964 0.65438 0.0
C1562 C 0.11196 0.30462 0.64784 0.0
C1563 C 0.12645 0.30886 0.63288 0.0
C1564 C 0.12848 0.33479 0.58122 0.0
C1565 C 0.12715 0.35297 0.58171 0.0
C1566 C 0.10871 0.35194 0.57546 0.0
C1567 C 0.09127 0.33267 0.5686 0.0
C1568 C 0.09272 0.31448 0.56818 0.0
C1569 C 0.11118 0.31555 0.57444 0.0
C1570 C 0.15698 0.34058 0.54952 0.0
C1571 C 0.15764 0.35901 0.54415 0.0
C1572 C 0.15085 0.36054 0.5238 0.0
C1573 C 0.14357 0.34376 0.50821 0.0
C1574 C 0.14387 0.32565 0.51347 0.0
C1575 C 0.15035 0.32403 0.53394 0.0
C1576 C 0.19373 0.33862 0.56065 0.0
C1577 C 0.2054 0.35794 0.55208 0.0
C1578 C 0.21754 0.35987 0.53519 0.0
C1579 C 0.21838 0.34249 0.52658 0.0
C1580 C 0.20703 0.32326 0.53563 0.0
C1581 C 0.19469 0.32131 0.55233 0.0
C1582 C 0.19166 0.32664 0.7013 0.0
C1583 C 0.07166 0.33149 0.56186 0.0
H1584 H 0.97121 0.39965 0.07655 0.0
H1585 H 0.03357 0.41713 0.09575 0.0
H1586 H 0.03249 0.43597 0.12773 0.0
H1587 H 0.01421 0.44768 0.15016 0.0
H1588 H 0.9525 0.43222 0.13088 0.0
H1589 H 0.95286 0.41218 0.0992 0.0
C1590 C 0.98448 0.4075 0.08782 0.0
C1591 C 1.00244 0.407 0.08375 0.0
C1592 C 0.98392 0.4187 0.10613 0.0
C1593 C 0.0196 0.41738 0.09841 0.0
C1594 C 0.01901 0.42815 0.11673 0.0
C1595 C 1.00093 0.44027 0.13887 0.0
C1596 C 0.98345 0.4417 0.1428 0.0
C1597 C 1.00134 0.42906 0.12065 0.0
C1598 C 0.96615 0.43136 0.12829 0.0
C1599 C 0.96637 0.41994 0.11014 0.0
H1600 H 0.57424 0.58208 0.10767 0.0
H1601 H 0.62634 0.57635 0.12752 0.0
H1602 H 0.60794 0.55652 0.15718 0.0
H1603 H 0.57709 0.54138 0.17779 0.0
H1604 H 0.52438 0.54527 0.15557 0.0
H1605 H 0.54313 0.56547 0.12675 0.0
C1606 C 0.58165 0.57658 0.11852 0.0
C1607 C 0.60171 0.58087 0.11552 0.0
C1608 C 0.57088 0.56493 0.13521 0.0
C1609 C 0.61091 0.57329 0.12952 0.0
C1610 C 0.6004 0.56197 0.14648 0.0
C1611 C 0.5696 0.54643 0.16653 0.0
C1612 C 0.54939 0.54205 0.16925 0.0
C1613 C 0.58035 0.55771 0.14951 0.0
C1614 C 0.54007 0.54888 0.15442 0.0
C1615 C 0.55073 0.56031 0.13774 0.0
H1616 H 0.42215 0.02125 0.09575 0.0
H1617 H 0.43016 0.97266 0.06572 0.0
H1618 H 0.44905 0.97234 0.09773 0.0
H1619 H 0.46254 0.98516 0.13445 0.0
H1620 H 0.45153 0.03129 0.16573 0.0
H1621 H 0.43521 0.03367 0.13292 0.0
C1622 C 0.42817 0.0107 0.09618 0.0
C1623 C 0.42476 0.99701 0.07837 0.0
C1624 C 0.43861 0.01023 0.11485 0.0
C1625 C 0.43247 0.98328 0.07925 0.0
C1626 C 0.44331 0.98311 0.09754 0.0
C1627 C 0.45642 0.99561 0.13426 0.0
C1628 C 0.45844 0.00804 0.15274 0.0
C1629 C 0.44629 0.99636 0.11552 0.0
C1630 C 0.45071 0.0218 0.1518 0.0
C1631 C 0.44111 0.02303 0.13303 0.0
H1632 H 0.40576 0.96449 0.96096 0.0
H1633 H 0.42569 0.03023 0.96504 0.0
H1634 H 0.44314 0.03444 0.93245 0.0
H1635 H 0.4539 0.01994 0.90349 0.0
H1636 H 0.4359 0.9547 0.9002 0.0
H1637 H 0.41624 0.94978 0.93136 0.0
C1638 C 0.41377 0.97968 0.95461 0.0
C1639 C 0.41445 0.99701 0.96553 0.0
C1640 C 0.42414 0.98212 0.93593 0.0
C1641 C 0.42502 0.01663 0.9571 0.0
C1642 C 0.43501 0.01907 0.93842 0.0
C1643 C 0.44582 0.00465 0.90963 0.0
C1644 C 0.44653 0.98777 0.89945 0.0
C1645 C 0.43492 0.00201 0.92786 0.0
C1646 C 0.43549 0.96797 0.90746 0.0
C1647 C 0.42435 0.96516 0.92543 0.0
H1648 H 0.04784 0.43267 0.97916 0.0
H1649 H 0.98534 0.3843 0.96174 0.0
H1650 H 0.98458 0.40217 0.93078 0.0
H1651 H 1.00049 0.43257 0.91 0.0
H1652 H 0.0625 0.48181 0.92717 0.0
H1653 H 0.06474 0.4625 0.95659 0.0
C1654 C 0.03419 0.42593 0.96839 0.0
C1655 C 0.01662 0.40728 0.97291 0.0
C1656 C 0.03369 0.43651 0.95063 0.0
C1657 C 0.99902 0.39876 0.95882 0.0
C1658 C 0.99853 0.40896 0.94107 0.0
C1659 C 0.0145 0.43909 0.92019 0.0
C1660 C 0.03119 0.45869 0.9166 0.0
C1661 C 0.01557 0.42805 0.93711 0.0
C1662 C 0.04942 0.46672 0.92962 0.0
C1663 C 0.05067 0.45572 0.94649 0.0
H1664 H 0.5982 0.56217 1.00366 0.0
H1665 H 0.59406 0.61796 1.0005 0.0
H1666 H 0.57625 0.6055 0.96538 0.0
H1667 H 0.56287 0.57939 0.93505 0.0
H1668 H 0.56621 0.52321 0.93843 0.0
H1669 H 0.58343 0.5353 0.9739 0.0
C1670 C 0.59339 0.57161 0.99531 0.0
C1671 C 0.59757 0.59102 0.0047 0.0
C1672 C 0.58305 0.56432 0.97512 0.0
C1673 C 0.59107 0.60296 0.99368 0.0
C1674 C 0.58088 0.59586 0.97356 0.0
C1675 C 0.56706 0.56962 0.94367 0.0
C1676 C 0.5633 0.55046 0.93403 0.0
C1677 C 0.57688 0.57662 0.96409 0.0
C1678 C 0.56916 0.53817 0.94533 0.0
C1679 C 0.57895 0.54503 0.96566 0.0
H1680 H 0.03558 0.61348 0.99503 0.0
H1681 H 0.9779 0.56005 0.00814 0.0
H1682 H 0.98051 0.53962 0.97853 0.0
H1683 H 0.99806 0.53716 0.94797 0.0
H1684 H 0.05448 0.59085 0.93271 0.0
H1685 H 0.05379 0.61063 0.96438 0.0
C1686 C 0.02368 0.59733 0.99147 0.0
C1687 C 0.0065 0.5884 1.00373 0.0
C1688 C 0.02507 0.58563 0.97407 0.0
C1689 C 0.99119 0.56744 0.99887 0.0
C1690 C 0.99267 0.55567 0.98195 0.0
C1691 C 0.0102 0.55322 0.95148 0.0
C1692 C 0.02618 0.56251 0.93781 0.0
C1693 C 0.00936 0.56468 0.96927 0.0
C1694 C 0.04205 0.58319 0.943 0.0
C1695 C 0.04157 0.5946 0.96102 0.0
H1696 H 0.42047 0.4075 0.9511 0.0
H1697 H 0.39916 0.45076 0.9642 0.0
H1698 H 0.41952 0.47222 0.93641 0.0
H1699 H 0.44496 0.47969 0.90981 0.0
H1700 H 0.46458 0.4351 0.89573 0.0
H1701 H 0.44355 0.41345 0.92271 0.0
C1702 C 0.42017 0.42157 0.94783 0.0
C1703 C 0.40841 0.42758 0.95986 0.0
C1704 C 0.43182 0.43377 0.9318 0.0
C1705 C 0.40804 0.44574 0.95519 0.0
C1706 C 0.41976 0.45807 0.93935 0.0
C1707 C 0.44443 0.46509 0.91235 0.0
C1708 C 0.45675 0.45935 0.90085 0.0
C1709 C 0.43193 0.45237 0.92772 0.0
C1710 C 0.45583 0.44036 0.90465 0.0
C1711 C 0.44363 0.4278 0.92 0.0
H1712 H 0.57314 0.97244 0.98091 0.0
H1713 H 0.58748 0.0348 1.0018 0.0
H1714 H 0.57055 0.03692 0.96931 0.0
H1715 H 0.55256 0.02169 0.93452 0.0
H1716 H 0.53955 0.96008 0.91246 0.0
H1717 H 0.55458 0.95693 0.94594 0.0
C1718 C 0.57246 0.98644 0.9784 0.0
C1719 C 0.58168 0.00345 0.99382 0.0
C1720 C 0.56285 0.9877 0.95946 0.0
C1721 C 0.58066 0.02149 0.99022 0.0
C1722 C 0.57094 0.02274 0.97162 0.0
C1723 C 0.5531 0.00759 0.93693 0.0
C1724 C 0.54495 0.9912 0.92086 0.0
C1725 C 0.56218 0.00605 0.95603 0.0
C1726 C 0.54544 0.97288 0.92458 0.0
C1727 C 0.55421 0.97112 0.94369 0.0
H1728 H 0.56523 0.97718 0.10161 0.0
H1729 H 0.6162 0.03938 0.11759 0.0
H1730 H 0.60167 0.04082 0.15116 0.0
H1731 H 0.57428 0.02436 0.17593 0.0
H1732 H 0.52275 0.96272 0.15854 0.0
H1733 H 0.53796 0.96107 0.12583 0.0
C1734 C 0.57326 0.99108 0.11241 0.0
C1735 C 0.59183 0.00814 0.107 0.0
C1736 C 0.56476 0.99186 0.13157 0.0
C1737 C 0.60188 0.02601 0.12126 0.0
C1738 C 0.59358 0.02684 0.1405 0.0
C1739 C 0.56629 0.01061 0.16494 0.0
C1740 C 0.54742 0.99361 0.16997 0.0
C1741 C 0.57496 0.00987 0.14579 0.0
C1742 C 0.53748 0.97587 0.1555 0.0
C1743 C 0.54608 0.97496 0.13662 0.0
H1744 H 0.96272 0.56675 0.10323 0.0
H1745 H 0.02023 0.62118 0.12547 0.0
H1746 H 0.02099 0.60464 0.1577 0.0
H1747 H 0.00657 0.574 0.17846 0.0
H1748 H 0.95071 0.51821 0.15475 0.0
H1749 H 0.94781 0.53614 0.12463 0.0
C1750 C 0.97523 0.57508 0.11531 0.0
C1751 C 0.99139 0.59516 0.11197 0.0
C1752 C 0.97592 0.5652 0.13355 0.0
C1753 C 0.00765 0.60568 0.12763 0.0
C1754 C 0.00811 0.59622 0.14605 0.0
C1755 C 0.9938 0.56565 0.16668 0.0
C1756 C 0.97898 0.54467 0.16897 0.0
C1757 C 0.99257 0.57582 0.14897 0.0
C1758 C 0.96227 0.53441 0.15369 0.0
C1759 C 0.96067 0.54461 0.13629 0.0
H1760 H 0.43275 0.41076 0.07033 0.0
H1761 H 0.38827 0.43022 0.07955 0.0
H1762 H 0.40353 0.44487 0.11522 0.0
H1763 H 0.42906 0.45186 0.14391 0.0
H1764 H 0.47526 0.43479 0.13445 0.0
H1765 H 0.45952 0.41918 0.099 0.0
C1766 C 0.42641 0.41818 0.08018 0.0
C1767 C 0.40938 0.41936 0.07225 0.0
C1768 C 0.43549 0.42694 0.10068 0.0
C1769 C 0.40143 0.42918 0.08517 0.0
C1770 C 0.41011 0.43753 0.10562 0.0
C1771 C 0.436 0.44509 0.13403 0.0
C1772 C 0.45342 0.44463 0.14197 0.0
C1773 C 0.42716 0.43656 0.11351 0.0
C1774 C 0.46171 0.43519 0.12898 0.0
C1775 C 0.45279 0.42635 0.1086 0.0
H1776 H 0.68821 0.77083 0.40718 0.0
H1777 H 0.64544 0.70855 0.42349 0.0
H1778 H 0.63672 0.72284 0.45444 0.0
H1779 H 0.64242 0.75304 0.47758 0.0
H1780 H 0.68326 0.81535 0.45954 0.0
H1781 H 0.69162 0.80101 0.42858 0.0
C1782 C 0.677 0.76041 0.41754 0.0
C1783 C 0.66766 0.7387 0.41326 0.0
C1784 C 0.67173 0.76873 0.43497 0.0
C1785 C 0.65287 0.72534 0.42654 0.0
C1786 C 0.64789 0.7335 0.44422 0.0
C1787 C 0.6528 0.76353 0.46666 0.0
C1788 C 0.66234 0.7853 0.47111 0.0
C1789 C 0.65731 0.75518 0.44864 0.0
C1790 C 0.676 0.79856 0.45684 0.0
C1791 C 0.68074 0.79037 0.43905 0.0
H1792 H 0.27732 0.89897 0.45609 0.0
H1793 H 0.23807 0.92439 0.44224 0.0
H1794 H 0.2167 0.90612 0.47046 0.0
H1795 H 0.20861 0.88278 0.49872 0.0
H1796 H 0.24818 0.85839 0.51486 0.0
H1797 H 0.26956 0.87596 0.4859 0.0
C1798 C 0.2641 0.90048 0.45929 0.0
C1799 C 0.25942 0.91312 0.447 0.0
C1800 C 0.25179 0.89002 0.47589 0.0
C1801 C 0.24222 0.91493 0.45144 0.0
C1802 C 0.22988 0.90443 0.46759 0.0
C1803 C 0.2221 0.88155 0.49626 0.0
C1804 C 0.22677 0.86935 0.50917 0.0
C1805 C 0.23452 0.89199 0.47992 0.0
C1806 C 0.24403 0.8675 0.50512 0.0
C1807 C 0.25637 0.87766 0.48861 0.0
H1808 H 0.11508 0.36309 0.42058 0.0
H1809 H 0.07161 0.29704 0.41916 0.0
H1810 H 0.08655 0.29517 0.45322 0.0
H1811 H 0.11129 0.31226 0.4838 0.0
H1812 H 0.15644 0.37782 0.48446 0.0
H1813 H 0.14128 0.3799 0.45058 0.0
C1814 C 0.10889 0.3483 0.42774 0.0
C1815 C 0.09219 0.33025 0.41731 0.0
C1816 C 0.11778 0.34723 0.44728 0.0
C1817 C 0.08449 0.31117 0.42675 0.0
C1818 C 0.093 0.31008 0.44628 0.0
C1819 C 0.11814 0.32697 0.47644 0.0
C1820 C 0.13501 0.34485 0.4869 0.0
C1821 C 0.10962 0.328 0.4567 0.0
C1822 C 0.14324 0.36383 0.47711 0.0
C1823 C 0.13466 0.36503 0.4576 0.0
H1824 H 0.0676 0.29894 0.29051 0.0
H1825 H 0.11555 0.36149 0.31152 0.0
H1826 H 0.13337 0.36335 0.27978 0.0
H1827 H 0.13605 0.34728 0.24643 0.0
H1828 H 0.08794 0.2853 0.22419 0.0
H1829 H 0.06978 0.28315 0.25601 0.0
C1830 C 0.08194 0.31297 0.28814 0.0
C1831 C 0.09015 0.33001 0.30353 0.0
C1832 C 0.09221 0.31407 0.26961 0.0
C1833 C 0.10874 0.34809 0.30005 0.0
C1834 C 0.11903 0.34921 0.28185 0.0
C1835 C 0.12142 0.3334 0.24829 0.0
C1836 C 0.11346 0.3165 0.23279 0.0
C1837 C 0.11095 0.33232 0.26653 0.0
C1838 C 0.09466 0.29849 0.2359 0.0
C1839 C 0.08417 0.29727 0.25409 0.0
H1840 H 0.66 0.74235 0.30697 0.0
H1841 H 0.72214 0.75553 0.30204 0.0
H1842 H 0.7256 0.77615 0.27171 0.0
H1843 H 0.71087 0.79058 0.2467 0.0
H1844 H 0.64942 0.77898 0.25387 0.0
H1845 H 0.64579 0.75742 0.28298 0.0
C1846 C 0.67428 0.74959 0.2992 0.0
C1847 C 0.69073 0.74728 0.30669 0.0
C1848 C 0.67629 0.76171 0.2821 0.0
C1849 C 0.70921 0.75704 0.29658 0.0
C1850 C 0.7112 0.76885 0.27924 0.0
C1851 C 0.69675 0.7835 0.25473 0.0
C1852 C 0.68036 0.78626 0.24777 0.0
C1853 C 0.69486 0.77139 0.27192 0.0
C1854 C 0.66213 0.77677 0.25838 0.0
C1855 C 0.66006 0.76453 0.27521 0.0
H1856 H 0.27195 0.90746 0.3273 0.0
H1857 H 0.24022 0.9408 0.34193 0.0
H1858 H 0.22051 0.928 0.30762 0.0
H1859 H 0.21206 0.90696 0.27363 0.0
H1860 H 0.24608 0.87607 0.25823 0.0
H1861 H 0.26471 0.88792 0.29282 0.0
C1862 C 0.26069 0.91189 0.32301 0.0
C1863 C 0.25748 0.92496 0.33719 0.0
C1864 C 0.24966 0.90476 0.30317 0.0
C1865 C 0.24301 0.93077 0.33128 0.0
C1866 C 0.2317 0.92342 0.31168 0.0
C1867 C 0.22368 0.90298 0.2777 0.0
C1868 C 0.22732 0.89031 0.26329 0.0
C1869 C 0.2349 0.91039 0.29748 0.0
C1870 C 0.24239 0.88523 0.26909 0.0
C1871 C 0.25328 0.8922 0.28885 0.0
H1872 H 0.70552 0.94004 0.33615 0.0
H1873 H 0.64099 0.91617 0.3208 0.0
H1874 H 0.64198 0.89681 0.28928 0.0
H1875 H 0.66081 0.88665 0.26594 0.0
H1876 H 0.725 0.90904 0.28093 0.0
H1877 H 0.72453 0.92914 0.31254 0.0
C1878 C 0.69172 0.93066 0.32585 0.0
C1879 C 0.67322 0.92956 0.33091 0.0
C1880 C 0.69229 0.91926 0.30769 0.0
C1881 C 0.65544 0.91724 0.31742 0.0
C1882 C 0.65595 0.90614 0.29934 0.0
C1883 C 0.67465 0.8956 0.2763 0.0
C1884 C 0.69284 0.89611 0.27119 0.0
C1885 C 0.67423 0.90694 0.2944 0.0
C1886 C 0.71078 0.90839 0.28447 0.0
C1887 C 0.7105 0.91984 0.30257 0.0
H1888 H 0.08004 0.78786 0.29952 0.0
H1889 H 0.07088 0.72824 0.27544 0.0
H1890 H 0.08846 0.74362 0.2439 0.0
H1891 H 0.10845 0.77425 0.22424 0.0
H1892 H 0.12012 0.83463 0.24904 0.0
H1893 H 0.09931 0.81873 0.2788 0.0
C1894 C 0.08163 0.77824 0.28717 0.0
C1895 C 0.07421 0.75696 0.28984 0.0
C1896 C 0.09234 0.78734 0.26921 0.0
C1897 C 0.07657 0.74469 0.27383 0.0
C1898 C 0.08665 0.75347 0.25578 0.0
C1899 C 0.10655 0.784 0.23618 0.0
C1900 C 0.11604 0.80566 0.23439 0.0
C1901 C 0.095 0.77485 0.25353 0.0
C1902 C 0.1129 0.8179 0.24982 0.0
C1903 C 0.1011 0.80882 0.26698 0.0
H1904 H 0.25087 0.30469 0.30952 0.0
H1905 H 0.24257 0.35373 0.33786 0.0
H1906 H 0.22236 0.35216 0.3061 0.0
H1907 H 0.20751 0.33734 0.27017 0.0
H1908 H 0.21859 0.29065 0.24039 0.0
H1909 H 0.23661 0.2904 0.27298 0.0
C1910 C 0.24455 0.31495 0.30875 0.0
C1911 C 0.24823 0.3293 0.32603 0.0
C1912 C 0.23327 0.31429 0.29023 0.0
C1913 C 0.24008 0.34263 0.32474 0.0
C1914 C 0.22847 0.34171 0.3066 0.0
C1915 C 0.21401 0.32723 0.27063 0.0
C1916 C 0.21151 0.314 0.25267 0.0
C1917 C 0.22509 0.32772 0.28919 0.0
C1918 C 0.21977 0.30072 0.25396 0.0
C1919 C 0.23034 0.30072 0.27258 0.0
H1920 H 0.27739 0.36358 0.45111 0.0
H1921 H 0.2304 0.30111 0.42856 0.0
H1922 H 0.21176 0.29831 0.45992 0.0
H1923 H 0.20814 0.31364 0.49324 0.0
H1924 H 0.25561 0.37534 0.51724 0.0
H1925 H 0.27441 0.37846 0.48571 0.0
C1926 C 0.26309 0.34936 0.45308 0.0
C1927 C 0.25535 0.33262 0.43739 0.0
C1928 C 0.2524 0.34771 0.47137 0.0
C1929 C 0.23682 0.31425 0.44032 0.0
C1930 C 0.22607 0.31262 0.45827 0.0
C1931 C 0.22277 0.32766 0.49186 0.0
C1932 C 0.23035 0.3442 0.50773 0.0
C1933 C 0.23368 0.32924 0.47387 0.0
C1934 C 0.24916 0.36243 0.50521 0.0
C1935 C 0.26003 0.36419 0.48721 0.0
H1936 H 0.63273 0.90271 0.43168 0.0
H1937 H 0.68818 0.95812 0.45661 0.0
H1938 H 0.68866 0.94098 0.48848 0.0
H1939 H 0.67451 0.90972 0.50833 0.0
H1940 H 0.62101 0.85304 0.48175 0.0
H1941 H 0.61835 0.87129 0.45187 0.0
C1942 C 0.64471 0.91109 0.44426 0.0
C1943 C 0.66035 0.93165 0.44185 0.0
C1944 C 0.6453 0.90088 0.46226 0.0
C1945 C 0.67599 0.94225 0.45811 0.0
C1946 C 0.6763 0.93245 0.47632 0.0
C1947 C 0.66234 0.90124 0.49596 0.0
C1948 C 0.64804 0.87995 0.49745 0.0
C1949 C 0.66127 0.91163 0.47838 0.0
C1950 C 0.63211 0.86949 0.48137 0.0
C1951 C 0.63064 0.87988 0.46409 0.0
H1952 H 0.07587 0.76978 0.41223 0.0
H1953 H 0.10414 0.73282 0.39845 0.0
H1954 H 0.12374 0.74499 0.43286 0.0
H1955 H 0.1326 0.76597 0.46708 0.0
H1956 H 0.10244 0.80112 0.4811 0.0
H1957 H 0.08421 0.7901 0.44626 0.0
C1958 C 0.08639 0.76444 0.41665 0.0
C1959 C 0.08854 0.75044 0.4027 0.0
C1960 C 0.0974 0.77127 0.43652 0.0
C1961 C 0.10214 0.74358 0.40886 0.0
C1962 C 0.11337 0.75054 0.42855 0.0
C1963 C 0.12195 0.77113 0.46259 0.0
C1964 C 0.11918 0.78461 0.47676 0.0
C1965 C 0.11105 0.76432 0.44257 0.0
C1966 C 0.10539 0.79122 0.47046 0.0
C1967 C 0.09474 0.78475 0.45056 0.0
H1968 H 0.36023 0.10328 0.74809 0.0
H1969 H 0.30533 0.04504 0.75701 0.0
H1970 H 0.29931 0.061 0.78853 0.0
H1971 H 0.31029 0.09122 0.81426 0.0
H1972 H 0.36487 0.14951 0.80478 0.0
H1973 H 0.37033 0.13377 0.77277 0.0
C1974 C 0.34695 0.09404 0.75693 0.0
C1975 C 0.33334 0.07294 0.75025 0.0
C1976 C 0.3435 0.10333 0.77493 0.0
C1977 C 0.31609 0.0613 0.7618 0.0
C1978 C 0.31262 0.07041 0.77983 0.0
C1979 C 0.32318 0.10057 0.80498 0.0
C1980 C 0.33719 0.12149 0.81194 0.0
C1981 C 0.32627 0.0914 0.78659 0.0
C1982 C 0.354 0.1333 0.79991 0.0
C1983 C 0.35712 0.12433 0.78159 0.0
H1984 H 0.93283 0.266 0.79658 0.0
H1985 H 0.93192 0.21273 0.76517 0.0
H1986 H 0.91153 0.19074 0.7927 0.0
H1987 H 0.89213 0.18636 0.82434 0.0
H1988 H 0.89633 0.24076 0.85758 0.0
H1989 H 0.91692 0.26243 0.83045 0.0
C1990 C 0.92827 0.24959 0.79586 0.0
C1991 C 0.93367 0.24093 0.77879 0.0
C1992 C 0.91691 0.23718 0.81191 0.0
C1993 C 0.92796 0.21975 0.77819 0.0
C1994 C 0.91623 0.20716 0.79387 0.0
C1995 C 0.89784 0.203 0.82602 0.0
C1996 C 0.89209 0.21163 0.84297 0.0
C1997 C 0.91037 0.21567 0.81067 0.0
C1998 C 0.8997 0.23333 0.84446 0.0
C1999 C 0.91173 0.24588 0.82902 0.0
H2000 H 0.77459 0.6563 0.74191 0.0
H2001 H 0.75556 0.6996 0.7633 0.0
H2002 H 0.77276 0.70411 0.79832 0.0
H2003 H 0.79117 0.69387 0.82345 0.0
H2004 H 0.81248 0.65262 0.80102 0.0
H2005 H 0.79621 0.64905 0.76594 0.0
C2006 C 0.77433 0.66683 0.75421 0.0
C2007 C 0.76365 0.67744 0.75009 0.0
C2008 C 0.78448 0.66957 0.77419 0.0
C2009 C 0.76368 0.69126 0.76607 0.0
C2010 C 0.77345 0.69378 0.78612 0.0
C2011 C 0.7927 0.68444 0.81084 0.0
C2012 C 0.80282 0.67325 0.81519 0.0
C2013 C 0.78367 0.68279 0.79045 0.0
C2014 C 0.80433 0.66096 0.79849 0.0
C2015 C 0.79514 0.65901 0.7783 0.0
H2016 H 0.75273 0.63568 0.63826 0.0
H2017 H 0.75075 0.69147 0.62661 0.0
H2018 H 0.76611 0.69355 0.59286 0.0
H2019 H 0.78095 0.68019 0.56713 0.0
H2020 H 0.78626 0.62644 0.58044 0.0
H2021 H 0.76829 0.62261 0.61256 0.0
C2022 C 0.75552 0.64818 0.62823 0.0
C2023 C 0.75058 0.66338 0.63495 0.0
C2024 C 0.7649 0.64963 0.60904 0.0
C2025 C 0.7545 0.67962 0.62188 0.0
C2026 C 0.76327 0.68082 0.60255 0.0
C2027 C 0.77845 0.66774 0.57709 0.0
C2028 C 0.78508 0.65366 0.57109 0.0
C2029 C 0.76876 0.66605 0.59608 0.0
C2030 C 0.78109 0.63735 0.58419 0.0
C2031 C 0.77095 0.63524 0.6028 0.0
H2032 H 0.37542 0.08689 0.63402 0.0
H2033 H 0.31189 0.0665 0.64314 0.0
H2034 H 0.3105 0.08541 0.61331 0.0
H2035 H 0.32753 0.10899 0.58574 0.0
H2036 H 0.39046 0.12807 0.57489 0.0
H2037 H 0.39189 0.10875 0.60445 0.0
C2038 C 0.36126 0.08651 0.62941 0.0
C2039 C 0.34384 0.07534 0.64095 0.0
C2040 C 0.36046 0.09735 0.61203 0.0
C2041 C 0.32556 0.07492 0.63461 0.0
C2042 C 0.32474 0.0858 0.61755 0.0
C2043 C 0.34148 0.10865 0.58947 0.0
C2044 C 0.35887 0.12017 0.57803 0.0
C2045 C 0.34212 0.0972 0.60626 0.0
C2046 C 0.3769 0.11975 0.58358 0.0
C2047 C 0.37771 0.10856 0.60044 0.0
H2048 H 0.90527 0.25993 0.6729 0.0
H2049 H 0.95981 0.25898 0.65665 0.0
H2050 H 0.94587 0.24736 0.62011 0.0
H2051 H 0.91808 0.23643 0.59306 0.0
H2052 H 0.86192 0.23405 0.60905 0.0
H2053 H 0.87674 0.24844 0.64514 0.0
C2054 C 0.91408 0.25731 0.66126 0.0
C2055 C 0.9335 0.26024 0.66747 0.0
C2056 C 0.90571 0.25002 0.64023 0.0
C2057 C 0.94475 0.25665 0.65231 0.0
C2058 C 0.93682 0.25004 0.63139 0.0
C2059 C 0.90888 0.23873 0.60446 0.0
C2060 C 0.88878 0.23386 0.59831 0.0
C2061 C 0.91723 0.24639 0.62526 0.0
C2062 C 0.87747 0.23772 0.61322 0.0
C2063 C 0.88589 0.24584 0.63394 0.0
H2064 H 0.32892 0.23366 0.67332 0.0
H2065 H 0.37073 0.29586 0.65599 0.0
H2066 H 0.37864 0.28144 0.62456 0.0
H2067 H 0.37228 0.2512 0.6012 0.0
H2068 H 0.33236 0.18895 0.61997 0.0
H2069 H 0.32501 0.2034 0.65161 0.0
C2070 C 0.33978 0.24403 0.66265 0.0
C2071 C 0.34906 0.26576 0.66678 0.0
C2072 C 0.34454 0.23565 0.64488 0.0
C2073 C 0.36337 0.27906 0.65308 0.0
C2074 C 0.36787 0.27083 0.63512 0.0
C2075 C 0.36235 0.24074 0.61242 0.0
C2076 C 0.35276 0.21896 0.60801 0.0
C2077 C 0.35843 0.24915 0.63079 0.0
C2078 C 0.33965 0.20575 0.62266 0.0
C2079 C 0.33549 0.21399 0.64084 0.0
H2080 H 0.75108 0.07499 0.61151 0.0
H2081 H 0.73294 0.11971 0.63034 0.0
H2082 H 0.75239 0.14177 0.60246 0.0
H2083 H 0.77659 0.14945 0.57428 0.0
H2084 H 0.79403 0.10409 0.55569 0.0
H2085 H 0.77296 0.08134 0.58205 0.0
C2086 C 0.75123 0.08949 0.60949 0.0
C2087 C 0.74068 0.09573 0.62317 0.0
C2088 C 0.76253 0.10213 0.59357 0.0
C2089 C 0.74092 0.1145 0.62008 0.0
C2090 C 0.75212 0.12718 0.60418 0.0
C2091 C 0.77555 0.13446 0.5758 0.0
C2092 C 0.78718 0.12868 0.56319 0.0
C2093 C 0.76327 0.12131 0.59104 0.0
C2094 C 0.78567 0.1092 0.56548 0.0
C2095 C 0.77351 0.09609 0.58048 0.0
H2096 H 0.90208 0.63438 0.6547 0.0
H2097 H 0.94204 0.7013 0.65915 0.0
H2098 H 0.92678 0.70346 0.62547 0.0
H2099 H 0.90257 0.68655 0.59462 0.0
H2100 H 0.86098 0.61994 0.59061 0.0
H2101 H 0.87666 0.61746 0.62403 0.0
C2102 C 0.90745 0.64941 0.64826 0.0
C2103 C 0.9232 0.66763 0.65945 0.0
C2104 C 0.89839 0.65062 0.62893 0.0
C2105 C 0.92989 0.68702 0.65096 0.0
C2106 C 0.9212 0.68829 0.63165 0.0
C2107 C 0.89661 0.67149 0.60117 0.0
C2108 C 0.88052 0.65349 0.59004 0.0
C2109 C 0.90542 0.67022 0.62054 0.0
C2110 C 0.87349 0.63406 0.59863 0.0
C2111 C 0.88237 0.63264 0.61783 0.0
H2112 H 0.94488 0.69622 0.78666 0.0
H2113 H 0.89697 0.63455 0.76294 0.0
H2114 H 0.87825 0.63165 0.79421 0.0
H2115 H 0.87484 0.64657 0.82791 0.0
H2116 H 0.92282 0.70764 0.85283 0.0
H2117 H 0.94189 0.71085 0.82146 0.0
C2118 C 0.93036 0.68216 0.78834 0.0
C2119 C 0.92242 0.66567 0.77236 0.0
C2120 C 0.91957 0.68046 0.80659 0.0
C2121 C 0.90357 0.64752 0.77492 0.0
C2122 C 0.89277 0.64581 0.79284 0.0
C2123 C 0.88963 0.66047 0.82673 0.0
C2124 C 0.89733 0.67679 0.84283 0.0
C2125 C 0.9006 0.66215 0.80876 0.0
C2126 C 0.91635 0.69488 0.84063 0.0
C2127 C 0.92733 0.6967 0.8227 0.0
H2128 H 0.30006 0.23708 0.77056 0.0
H2129 H 0.3619 0.2877 0.78631 0.0
H2130 H 0.36419 0.27114 0.8178 0.0
H2131 H 0.34949 0.24155 0.83998 0.0
H2132 H 0.28818 0.19019 0.82403 0.0
H2133 H 0.28475 0.20789 0.79383 0.0
C2134 C 0.31394 0.24459 0.78102 0.0
C2135 C 0.33081 0.26356 0.77594 0.0
C2136 C 0.31531 0.23482 0.79908 0.0
C2137 C 0.34871 0.27303 0.78968 0.0
C2138 C 0.35007 0.26357 0.80773 0.0
C2139 C 0.3354 0.23417 0.82986 0.0
C2140 C 0.31919 0.2145 0.83422 0.0
C2141 C 0.33362 0.2443 0.81238 0.0
C2142 C 0.30086 0.2054 0.82117 0.0
C2143 C 0.29893 0.21546 0.8038 0.0
H2144 H 0.7374 0.0983 0.74363 0.0
H2145 H 0.77019 0.06661 0.72661 0.0
H2146 H 0.79057 0.07944 0.76062 0.0
H2147 H 0.79914 0.09995 0.7952 0.0
H2148 H 0.76447 0.12973 0.81221 0.0
H2149 H 0.74511 0.11765 0.77803 0.0
C2150 C 0.74904 0.09421 0.74726 0.0
C2151 C 0.7523 0.08158 0.73251 0.0
C2152 C 0.76051 0.10145 0.76683 0.0
C2153 C 0.76734 0.0763 0.73766 0.0
C2154 C 0.77902 0.08366 0.7571 0.0
C2155 C 0.78727 0.1037 0.7915 0.0
C2156 C 0.7836 0.11608 0.80627 0.0
C2157 C 0.77573 0.09626 0.77184 0.0
C2158 C 0.76816 0.1208 0.80104 0.0
C2159 C 0.75687 0.1137 0.78153 0.0
H2160 H 0.05123 0.34261 0.05125 0.0
H2161 H 0.08782 0.40801 0.0722 0.0
H2162 H 0.109 0.40062 0.09603 0.0
H2163 H 0.11664 0.37584 0.11174 0.0
H2164 H 0.08316 0.31092 0.08817 0.0
H2165 H 0.06079 0.31779 0.06541 0.0
C2166 C 0.06396 0.35524 0.0609 0.0
C2167 C 0.06791 0.37584 0.05986 0.0
C2168 C 0.07642 0.35095 0.07448 0.0
C2169 C 0.08449 0.39202 0.07248 0.0
C2170 C 0.09656 0.38781 0.08628 0.0
C2171 C 0.10478 0.36313 0.10139 0.0
C2172 C 0.10184 0.34285 0.10188 0.0
C2173 C 0.09261 0.36735 0.08748 0.0
C2174 C 0.08573 0.32665 0.08868 0.0
C2175 C 0.07302 0.33061 0.07535 0.0
H2176 H 0.66493 0.68733 0.10354 0.0
H2177 H 0.61393 0.68231 0.0653 0.0
H2178 H 0.62263 0.71735 0.0786 0.0
H2179 H 0.64352 0.74858 0.10219 0.0
H2180 H 0.69264 0.75279 0.14318 0.0
H2181 H 0.68623 0.7192 0.12735 0.0
C2182 C 0.65591 0.69407 0.09798 0.0
C2183 C 0.63882 0.68231 0.08348 0.0
C2184 C 0.66063 0.71404 0.10621 0.0
C2185 C 0.6271 0.69105 0.07654 0.0
C2186 C 0.63205 0.71108 0.08414 0.0
C2187 C 0.65272 0.74211 0.1079 0.0
C2188 C 0.66839 0.75318 0.12407 0.0
C2189 C 0.64854 0.72254 0.09924 0.0
C2190 C 0.68055 0.74475 0.13068 0.0
C2191 C 0.6768 0.72544 0.12174 0.0
H2192 H 0.32622 0.96904 0.05233 0.0
H2193 H 0.32385 0.91229 0.02882 0.0
H2194 H 0.29229 0.8916 0.04632 0.0
H2195 H 0.26661 0.88959 0.07025 0.0
H2196 H 0.26964 0.94629 0.09506 0.0
H2197 H 0.29939 0.96691 0.07487 0.0
C2198 C 0.31864 0.95214 0.05077 0.0
C2199 C 0.32749 0.94227 0.03932 0.0
C2200 C 0.30062 0.94028 0.06123 0.0
C2201 C 0.31747 0.92033 0.03758 0.0
C2202 C 0.29942 0.90846 0.04764 0.0
C2203 C 0.27378 0.90647 0.07127 0.0
C2204 C 0.26593 0.91633 0.0843 0.0
C2205 C 0.2911 0.91827 0.05988 0.0
C2206 C 0.27521 0.93821 0.08505 0.0
C2207 C 0.29233 0.95005 0.07361 0.0
H2208 H 0.35004 0.03516 0.0194 0.0
H2209 H 0.41392 0.08002 0.01352 0.0
H2210 H 0.40463 0.1042 0.99914 0.0
H2211 H 0.37859 0.11139 0.98528 0.0
H2212 H 0.31463 0.06836 0.99349 0.0
H2213 H 0.32381 0.04457 0.00939 0.0
C2214 C 0.36192 0.05034 0.01524 0.0
C2215 C 0.38264 0.05564 0.0174 0.0
C2216 C 0.35649 0.06439 0.00703 0.0
C2217 C 0.39785 0.07546 0.01205 0.0
C2218 C 0.39256 0.08931 1.0037 0.0
C2219 C 0.36655 0.09716 0.99105 0.0
C2220 C 0.34586 0.09182 0.98787 0.0
C2221 C 0.37193 0.08379 1.00074 0.0
C2222 C 0.33067 0.07285 0.99513 0.0
C2223 C 0.3359 0.05924 0.00444 0.0
H2224 H 0.96104 0.29658 0.00953 0.0
H2225 H 0.92641 0.32633 0.99257 0.0
H2226 H 0.90113 0.29478 0.97185 0.0
H2227 H 0.8893 0.25941 0.95757 0.0
H2228 H 0.92146 0.22773 0.9767 0.0
H2229 H 0.94761 0.25961 0.99677 0.0
C2230 C 0.94786 0.29606 1.00145 0.0
C2231 C 0.94567 0.31384 1.00266 0.0
C2232 C 0.9331 0.27766 0.9896 0.0
C2233 C 0.92849 0.3129 0.99207 0.0
C2234 C 0.91403 0.29487 0.98007 0.0
C2235 C 0.90174 0.25917 0.96642 0.0
C2236 C 0.90317 0.24096 0.96557 0.0
C2237 C 0.91624 0.27724 0.97863 0.0
C2238 C 0.91998 0.24149 0.97667 0.0
C2239 C 0.93487 0.2597 0.9884 0.0
H2240 H 0.69205 0.59919 0.03838 0.0
H2241 H 0.69703 0.65972 0.04479 0.0
H2242 H 0.72761 0.67433 0.02456 0.0
H2243 H 0.75111 0.66907 1.00221 0.0
H2244 H 0.74521 0.60815 0.99546 0.0
H2245 H 0.71682 0.59456 0.01852 0.0
C2246 C 0.69997 0.61566 0.03564 0.0
C2247 C 0.69215 0.62829 0.04303 0.0
C2248 C 0.71727 0.62384 0.02364 0.0
C2249 C 0.70267 0.64961 0.0393 0.0
C2250 C 0.72012 0.65796 0.02762 0.0
C2251 C 0.74378 0.65291 0.00605 0.0
C2252 C 0.75009 0.63958 0.99685 0.0
C2253 C 0.72728 0.64511 0.01927 0.0
C2254 C 0.74039 0.61864 1.00195 0.0
C2255 C 0.72421 0.61087 0.01523 0.0
H2256 H 0.9299 0.60195 1.00235 0.0
H2257 H 0.96101 0.66072 0.03994 0.0
H2258 H 0.94215 0.67356 0.01896 0.0
H2259 H 0.91615 0.66753 0.99031 0.0
H2260 H 0.88804 0.60971 0.95073 0.0
H2261 H 0.90635 0.59708 0.97214 0.0
C2262 C 0.93244 0.61753 0.00604 0.0
C2263 C 0.94651 0.63025 0.02288 0.0
C2264 C 0.9221 0.62498 0.99351 0.0
C2265 C 0.95009 0.65059 0.02715 0.0
C2266 C 0.93935 0.65792 0.01513 0.0
C2267 C 0.91427 0.65232 0.9861 0.0
C2268 C 0.90033 0.6395 0.96905 0.0
C2269 C 0.92529 0.64523 0.99824 0.0
C2270 C 0.89813 0.61976 0.96405 0.0
C2271 C 0.90871 0.61251 0.97624 0.0
H2272 H 0.39389 0.32599 0.99537 0.0
H2273 H 0.33479 0.32144 0.98682 0.0
H2274 H 0.32016 0.28601 0.97018 0.0
H2275 H 0.32472 0.25698 0.95626 0.0
H2276 H 0.38401 0.26201 0.96563 0.0
H2277 H 0.39796 0.29661 0.98348 0.0
C2278 C 0.37776 0.31723 0.99002 0.0
C2279 C 0.3655 0.32642 0.99226 0.0
C2280 C 0.3695 0.29698 0.98035 0.0
C2281 C 0.3446 0.31475 0.98531 0.0
C2282 C 0.33623 0.29451 0.9757 0.0
C2283 C 0.34063 0.26557 0.96239 0.0
C2284 C 0.35336 0.25699 0.95921 0.0
C2285 C 0.34861 0.28555 0.97287 0.0
C2286 C 0.37397 0.2684 0.96729 0.0
C2287 C 0.38196 0.28816 0.97768 0.0
H2288 H 0.68216 0.08184 0.03021 0.0
H2289 H 0.68111 0.0231 0.02775 0.0
H2290 H 0.71158 0.03787 0.00747 0.0
H2291 H 0.73675 0.06657 0.9877 0.0
H2292 H 0.73748 0.12514 0.99006 0.0
H2293 H 0.70892 0.11129 0.01291 0.0
C2294 C 0.68876 0.07234 0.02552 0.0
C2295 C 0.67925 0.05135 0.03042 0.0
C2296 C 0.7061 0.08082 0.01354 0.0
C2297 C 0.68805 0.03929 0.02417 0.0
C2298 C 0.70545 0.0477 0.01247 0.0
C2299 C 0.73087 0.0764 0.99349 0.0
C2300 C 0.73908 0.09677 0.98688 0.0
C2301 C 0.71434 0.06831 0.00665 0.0
C2302 C 0.73117 0.10925 0.99447 0.0
C2303 C 0.71489 0.10139 0.00767 0.0
H2304 H 0.59996 0.92189 0.06061 0.0
H2305 H 0.65927 0.97794 0.06245 0.0
H2306 H 0.67523 0.95981 0.07852 0.0
H2307 H 0.67187 0.92903 0.09523 0.0
H2308 H 0.6125 0.87312 0.09354 0.0
H2309 H 0.5971 0.89021 0.07434 0.0
C2310 C 0.61642 0.93007 0.06423 0.0
C2311 C 0.62834 0.95129 0.06047 0.0
C2312 C 0.62549 0.91964 0.07377 0.0
C2313 C 0.64968 0.96162 0.06524 0.0
C2314 C 0.65884 0.95128 0.07452 0.0
C2315 C 0.65564 0.92046 0.0903 0.0
C2316 C 0.64333 0.89991 0.09608 0.0
C2317 C 0.64683 0.93043 0.07932 0.0
C2318 C 0.62227 0.88909 0.08968 0.0
C2319 C 0.61345 0.89882 0.07862 0.0
H2320 H 0.08003 0.69041 0.07075 0.0
H2321 H 0.02671 0.69698 0.07589 0.0
H2322 H 0.04825 0.73235 0.09267 0.0
H2323 H 0.08204 0.76034 0.10842 0.0
H2324 H 0.13513 0.75344 0.10204 0.0
H2325 H 0.11381 0.71923 0.08346 0.0
C2326 C 0.07311 0.69964 0.07533 0.0
C2327 C 0.05178 0.691 0.07222 0.0
C2328 C 0.08553 0.71982 0.08506 0.0
C2329 C 0.04311 0.70326 0.07808 0.0
C2330 C 0.05541 0.72345 0.0878 0.0
C2331 C 0.08898 0.75147 0.10274 0.0
C2332 C 0.11013 0.75933 0.10713 0.0
C2333 C 0.07661 0.73175 0.09176 0.0
C2334 C 0.11882 0.74756 0.09955 0.0
C2335 C 0.10667 0.72803 0.08872 0.0
H2336 H 0.31038 0.35135 0.03219 0.0
H2337 H 0.31495 0.41136 0.02739 0.0
H2338 H 0.28429 0.39998 0.04687 0.0
H2339 H 0.25809 0.37428 0.06817 0.0
H2340 H 0.25361 0.31448 0.07374 0.0
H2341 H 0.28209 0.32436 0.05092 0.0
C2342 C 0.30444 0.3618 0.03505 0.0
C2343 C 0.3151 0.38226 0.02844 0.0
C2344 C 0.28692 0.35527 0.04663 0.0
C2345 C 0.30717 0.39558 0.03234 0.0
C2346 C 0.28965 0.38912 0.04359 0.0
C2347 C 0.26332 0.36339 0.06431 0.0
C2348 C 0.25392 0.34378 0.07285 0.0
C2349 C 0.27976 0.36923 0.05132 0.0
C2350 C 0.26056 0.32966 0.06736 0.0
C2351 C 0.27692 0.33535 0.05438 0.0
H2352 H 0.71475 0.68258 0.4008 0.0
H2353 H 0.76673 0.74021 0.38466 0.0
H2354 H 0.78987 0.73259 0.40517 0.0
H2355 H 0.79535 0.71033 0.42865 0.0
H2356 H 0.74355 0.6535 0.44656 0.0
H2357 H 0.72039 0.6599 0.42423 0.0
C2358 C 0.73116 0.69333 0.40158 0.0
C2359 C 0.739 0.71194 0.3912 0.0
C2360 C 0.74441 0.68907 0.41384 0.0
C2361 C 0.76029 0.72582 0.39254 0.0
C2362 C 0.77354 0.72149 0.40431 0.0
C2363 C 0.77896 0.69945 0.42792 0.0
C2364 C 0.77121 0.68159 0.43951 0.0
C2365 C 0.76575 0.70335 0.41528 0.0
C2366 C 0.74997 0.66736 0.4378 0.0
C2367 C 0.7367 0.67104 0.42507 0.0
H2368 H 0.28223 0.00986 0.43495 0.0
H2369 H 0.33946 0.02588 0.40799 0.0
H2370 H 0.35476 0.06172 0.42406 0.0
H2371 H 0.35125 0.08869 0.44497 0.0
H2372 H 0.29429 0.07107 0.47363 0.0
H2373 H 0.27951 0.03566 0.45765 0.0
C2374 C 0.29804 0.02122 0.43249 0.0
C2375 C 0.30962 0.01539 0.42006 0.0
C2376 C 0.30677 0.0415 0.4421 0.0
C2377 C 0.33021 0.0301 0.41741 0.0
C2378 C 0.33895 0.05055 0.4266 0.0
C2379 C 0.33572 0.07703 0.44796 0.0
C2380 C 0.32379 0.08271 0.46017 0.0
C2381 C 0.32732 0.05645 0.43893 0.0
C2382 C 0.30366 0.06734 0.46384 0.0
C2383 C 0.29519 0.04702 0.4548 0.0
H2384 H 0.99828 0.30588 0.38835 0.0
H2385 H 0.99116 0.24844 0.35995 0.0
H2386 H 0.95918 0.22846 0.3772 0.0
H2387 H 0.93458 0.22715 0.40229 0.0
H2388 H 0.94332 0.28455 0.43287 0.0
H2389 H 0.97298 0.30461 0.41253 0.0
C2390 C 0.98955 0.28901 0.38564 0.0
C2391 C 0.99711 0.27868 0.37285 0.0
C2392 C 0.97148 0.27757 0.39612 0.0
C2393 C 0.98571 0.25679 0.36972 0.0
C2394 C 0.96745 0.24534 0.37964 0.0
C2395 C 0.94299 0.24405 0.40462 0.0
C2396 C 0.93664 0.25422 0.41927 0.0
C2397 C 0.96044 0.25554 0.39327 0.0
C2398 C 0.94757 0.27619 0.4216 0.0
C2399 C 0.96469 0.28773 0.41006 0.0
H2400 H 0.07708 0.40727 0.33595 0.0
H2401 H 0.01954 0.36327 0.35994 0.0
H2402 H 1.00359 0.3824 0.34584 0.0
H2403 H 0.00586 0.411 0.32559 0.0
H2404 H 0.06278 0.45216 0.29815 0.0
H2405 H 0.07909 0.43505 0.31507 0.0
C2406 C 0.06112 0.40203 0.33835 0.0
C2407 C 0.04956 0.38402 0.34915 0.0
C2408 C 0.05191 0.41262 0.32955 0.0
C2409 C 0.02878 0.37716 0.35175 0.0
C2410 C 0.01966 0.38806 0.34364 0.0
C2411 C 0.02178 0.41617 0.32309 0.0
C2412 C 0.03299 0.43317 0.31071 0.0
C2413 C 0.03102 0.40567 0.33224 0.0
C2414 C 0.05374 0.43962 0.30803 0.0
C2415 C 0.06313 0.42967 0.31754 0.0
H2416 H 0.60053 0.64691 0.33953 0.0
H2417 H 0.65243 0.63955 0.32717 0.0
H2418 H 0.62944 0.60508 0.30897 0.0
H2419 H 0.59457 0.57803 0.29458 0.0
H2420 H 0.5431 0.58582 0.30831 0.0
H2421 H 0.56599 0.61918 0.32776 0.0
C2422 C 0.60685 0.63774 0.33299 0.0
C2423 C 0.62816 0.64586 0.33454 0.0
C2424 C 0.59362 0.61808 0.32255 0.0
C2425 C 0.63606 0.63365 0.32619 0.0
C2426 C 0.62293 0.61398 0.31569 0.0
C2427 C 0.58837 0.58693 0.30202 0.0
C2428 C 0.56715 0.57959 0.29951 0.0
C2429 C 0.60167 0.60617 0.31348 0.0
C2430 C 0.55939 0.59134 0.30937 0.0
C2431 C 0.57246 0.61038 0.32067 0.0
H2432 H 0.34962 0.92495 0.37031 0.0
H2433 H 0.35913 0.98714 0.38081 0.0
H2434 H 0.39007 1.00104 0.36122 0.0
H2435 H 0.41253 0.99499 0.3381 0.0
H2436 H 0.40245 0.93259 0.32747 0.0
H2437 H 0.37363 0.91938 0.34996 0.0
C2438 C 0.35861 0.9416 0.36863 0.0
C2439 C 0.35193 0.95493 0.37693 0.0
C2440 C 0.37616 0.94944 0.357 0.0
C2441 C 0.36385 0.97648 0.37458 0.0
C2442 C 0.38151 0.98445 0.36326 0.0
C2443 C 0.40423 0.97857 0.34099 0.0
C2444 C 0.40947 0.96477 0.3308 0.0
C2445 C 0.38754 0.971 0.35394 0.0
C2446 C 0.39847 0.9435 0.33469 0.0
C2447 C 0.38204 0.93592 0.34766 0.0
H2448 H 0.59568 0.93673 0.33615 0.0
H2449 H 0.62415 0.99651 0.37188 0.0
H2450 H 0.60338 0.00679 0.35035 0.0
H2451 H 0.57672 0.99834 0.32153 0.0
H2452 H 0.55126 0.9396 0.28388 0.0
H2453 H 0.57123 0.92938 0.30606 0.0
C2454 C 0.5972 0.95195 0.33937 0.0
C2455 C 0.61111 0.96571 0.35582 0.0
C2456 C 0.5858 0.95796 0.32651 0.0
C2457 C 0.61337 0.98559 0.35942 0.0
C2458 C 0.60155 0.99146 0.34707 0.0
C2459 C 0.57577 0.98345 0.31791 0.0
C2460 C 0.56215 0.96967 0.30114 0.0
C2461 C 0.58773 0.97777 0.33051 0.0
C2462 C 0.56112 0.95036 0.29694 0.0
C2463 C 0.57264 0.94449 0.30957 0.0
H2464 H 0.01423 0.64316 0.33347 0.0
H2465 H 0.07079 0.6719 0.30207 0.0
H2466 H 0.06096 0.63879 0.28273 0.0
H2467 H 0.03663 0.602 0.27458 0.0
H2468 H 0.98183 0.57147 0.3088 0.0
H2469 H 0.99023 0.60503 0.32644 0.0
C2470 C 0.02437 0.64208 0.32244 0.0
C2471 C 0.04324 0.65993 0.31929 0.0
C2472 C 0.01884 0.62274 0.31164 0.0
C2473 C 0.05629 0.65834 0.30498 0.0
C2474 C 0.05064 0.63944 0.2938 0.0
C2475 C 0.02661 0.60243 0.28618 0.0
C2476 C 0.00867 0.58397 0.29035 0.0
C2477 C 0.03201 0.62155 0.29706 0.0
C2478 C 0.99562 0.58532 0.30491 0.0
C2479 C 1.00053 0.60453 0.31525 0.0
H2480 H 0.33835 0.40836 0.35198 0.0
H2481 H 0.35589 0.36511 0.37423 0.0
H2482 H 0.38803 0.38309 0.35658 0.0
H2483 H 0.41055 0.41049 0.3338 0.0
H2484 H 0.39038 0.45086 0.30846 0.0
H2485 H 0.3602 0.43488 0.32863 0.0
C2486 C 0.34934 0.40304 0.35322 0.0
C2487 C 0.34486 0.38558 0.36458 0.0
C2488 C 0.36736 0.41295 0.34242 0.0
C2489 C 0.35905 0.37859 0.36566 0.0
C2490 C 0.37738 0.38884 0.35551 0.0
C2491 C 0.39951 0.41572 0.33247 0.0
C2492 C 0.40315 0.43218 0.31969 0.0
C2493 C 0.38159 0.40589 0.34358 0.0
C2494 C 0.38857 0.43873 0.31854 0.0
C2495 C 0.37107 0.42943 0.32994 0.0
H2496 H 0.32733 0.305 0.40144 0.0
H2497 H 0.26856 0.25012 0.38369 0.0
H2498 H 0.28036 0.2282 0.39918 0.0
H2499 H 0.30606 0.22488 0.4207 0.0
H2500 H 0.36453 0.27951 0.43952 0.0
H2501 H 0.35432 0.30119 0.4204 0.0
C2502 C 0.31722 0.28821 0.40066 0.0
C2503 C 0.29701 0.27926 0.39159 0.0
C2504 C 0.32401 0.27565 0.40992 0.0
C2505 C 0.28413 0.25746 0.39069 0.0
C2506 C 0.29084 0.24489 0.3996 0.0
C2507 C 0.3166 0.24153 0.4205 0.0
C2508 C 0.3359 0.25064 0.43171 0.0
C2509 C 0.31052 0.25387 0.40976 0.0
C2510 C 0.34959 0.27214 0.43097 0.0
C2511 C 0.3437 0.28455 0.42016 0.0
H2512 H 0.74989 0.02592 0.40639 0.0
H2513 H 0.69819 0.03575 0.40571 0.0
H2514 H 0.72001 0.07083 0.42299 0.0
H2515 H 0.75338 0.09782 0.44041 0.0
H2516 H 0.80487 0.0876 0.44019 0.0
H2517 H 0.7834 0.05346 0.42149 0.0
C2518 C 0.74338 0.03577 0.40982 0.0
C2519 C 0.72241 0.02816 0.40484 0.0
C2520 C 0.75592 0.05577 0.41992 0.0
C2521 C 0.7143 0.04122 0.40933 0.0
C2522 C 0.72675 0.06125 0.41933 0.0
C2523 C 0.75996 0.08823 0.43607 0.0
C2524 C 0.78067 0.0952 0.44211 0.0
C2525 C 0.74752 0.06857 0.42502 0.0
C2526 C 0.78887 0.08246 0.43635 0.0
C2527 C 0.77664 0.06297 0.42544 0.0
H2528 H 0.99192 0.74568 0.37458 0.0
H2529 H 0.98517 0.68455 0.36495 0.0
H2530 H 0.9542 0.66968 0.38456 0.0
H2531 H 0.93061 0.67458 0.40695 0.0
H2532 H 0.93773 0.7359 0.41643 0.0
H2533 H 0.96702 0.7501 0.39457 0.0
C2534 C 0.98356 0.72905 0.37651 0.0
C2535 C 0.99097 0.7163 0.36835 0.0
C2536 C 0.96593 0.72065 0.38806 0.0
C2537 C 0.97986 0.69477 0.37103 0.0
C2538 C 0.96217 0.68625 0.38235 0.0
C2539 C 0.93836 0.69098 0.40397 0.0
C2540 C 0.93208 0.70417 0.41362 0.0
C2541 C 0.95529 0.69911 0.39131 0.0
C2542 C 0.94246 0.72544 0.40964 0.0
C2543 C 0.95916 0.73358 0.39701 0.0
H2544 H 0.3761 0.01249 0.72866 0.0
H2545 H 0.42763 0.07305 0.71888 0.0
H2546 H 0.45037 0.06518 0.73976 0.0
H2547 H 0.45556 0.04175 0.76191 0.0
H2548 H 0.40429 0.98135 0.77233 0.0
H2549 H 0.38158 0.98846 0.75006 0.0
C2550 C 0.39234 0.02386 0.73088 0.0
C2551 C 0.40011 0.04336 0.7222 0.0
C2552 C 0.40537 0.01935 0.74321 0.0
C2553 C 0.4212 0.05794 0.72537 0.0
C2554 C 0.43423 0.05349 0.73739 0.0
C2555 C 0.43936 0.03022 0.75949 0.0
C2556 C 0.43158 0.01116 0.76901 0.0
C2557 C 0.42645 0.0344 0.74666 0.0
C2558 C 0.41066 0.99616 0.76521 0.0
C2559 C 0.39767 1.00022 0.7525 0.0
H2560 H 0.9487 0.34436 0.75753 0.0
H2561 H 0.00863 0.35075 0.75566 0.0
H2562 H 0.02405 0.38539 0.77448 0.0
H2563 H 0.02024 0.41342 0.79254 0.0
H2564 H 0.96 0.40653 0.79359 0.0
H2565 H 0.94501 0.37242 0.77436 0.0
C2566 C 0.96516 0.35334 0.7611 0.0
C2567 C 0.97747 0.34493 0.75518 0.0
C2568 C 0.97387 0.37309 0.77205 0.0
C2569 C 0.99878 0.35684 0.75998 0.0
C2570 C 0.00761 0.37663 0.77082 0.0
C2571 C 1.00385 0.4045 0.78846 0.0
C2572 C 0.99127 0.41247 0.79485 0.0
C2573 C 0.99526 0.38485 0.7771 0.0
C2574 C 0.97003 0.40062 0.78944 0.0
C2575 C 0.96143 0.38115 0.77822 0.0
H2576 H 0.65809 0.63123 0.71126 0.0
H2577 H 0.67533 0.58441 0.71896 0.0
H2578 H 0.64491 0.56397 0.73808 0.0
H2579 H 0.61483 0.56044 0.75472 0.0
H2580 H 0.59586 0.60576 0.74532 0.0
H2581 H 0.62578 0.62587 0.72526 0.0
C2582 C 0.65507 0.61644 0.71691 0.0
C2583 C 0.6691 0.60947 0.71373 0.0
C2584 C 0.63739 0.60461 0.72792 0.0
C2585 C 0.66485 0.59021 0.72112 0.0
C2586 C 0.64747 0.57851 0.73218 0.0
C2587 C 0.61682 0.57443 0.74793 0.0
C2588 C 0.60295 0.58149 0.75181 0.0
C2589 C 0.6338 0.58569 0.73594 0.0
C2590 C 0.60638 0.60004 0.74313 0.0
C2591 C 0.62345 0.61151 0.73144 0.0
H2592 H 0.68194 0.69633 0.67177 0.0
H2593 H 0.74114 0.74966 0.69171 0.0
H2594 H 0.73028 0.773 0.67806 0.0
H2595 H 0.70531 0.77817 0.65755 0.0
H2596 H 0.64653 0.72518 0.63611 0.0
H2597 H 0.65568 0.7019 0.65358 0.0
C2598 C 0.69231 0.71308 0.67344 0.0
C2599 C 0.71239 0.7212 0.68259 0.0
C2600 C 0.68609 0.72649 0.66517 0.0
C2601 C 0.72567 0.74295 0.68459 0.0
C2602 C 0.71949 0.75635 0.67676 0.0
C2603 C 0.69446 0.76153 0.6568 0.0
C2604 C 0.67538 0.75339 0.64535 0.0
C2605 C 0.69997 0.74826 0.66651 0.0
C2606 C 0.6613 0.73185 0.64488 0.0
C2607 C 0.66659 0.71852 0.65474 0.0
H2608 H 0.2641 0.97288 0.68478 0.0
H2609 H 0.31773 0.97433 0.66156 0.0
H2610 H 0.29609 0.93992 0.6427 0.0
H2611 H 0.26147 0.91092 0.63018 0.0
H2612 H 0.20832 0.90968 0.65481 0.0
H2613 H 0.23022 0.94252 0.67559 0.0
C2614 C 0.27109 0.96557 0.67579 0.0
C2615 C 0.29244 0.97621 0.67437 0.0
C2616 C 0.2586 0.94593 0.66498 0.0
C2617 C 0.3013 0.96644 0.6629 0.0
C2618 C 0.28892 0.94682 0.652 0.0
C2619 C 0.25472 0.91769 0.64034 0.0
C2620 C 0.23322 0.90809 0.64043 0.0
C2621 C 0.26748 0.93662 0.65253 0.0
C2622 C 0.22476 0.91705 0.65382 0.0
C2623 C 0.23728 0.93578 0.66588 0.0
H2624 H 0.03961 0.31218 0.71693 0.0
H2625 H 0.01232 0.24734 0.69438 0.0
H2626 H 0.04141 0.25568 0.67337 0.0
H2627 H 0.07279 0.28146 0.65892 0.0
H2628 H 0.10241 0.34598 0.68359 0.0
H2629 H 0.07388 0.33768 0.70562 0.0
C2630 C 0.0402 0.29984 0.70769 0.0
C2631 C 0.02366 0.27918 0.70717 0.0
C2632 C 0.05717 0.30471 0.69561 0.0
C2633 C 0.02476 0.26338 0.69515 0.0
C2634 C 0.04137 0.26814 0.68297 0.0
C2635 C 0.07353 0.29376 0.66947 0.0
C2636 C 0.08994 0.31444 0.66919 0.0
C2637 C 0.05744 0.28879 0.68274 0.0
C2638 C 0.08989 0.33001 0.6828 0.0
C2639 C 0.07361 0.32524 0.69568 0.0
H2640 H 0.27183 0.27291 0.66388 0.0
H2641 H 0.29392 0.32544 0.70996 0.0
H2642 H 0.27487 0.33868 0.68992 0.0
H2643 H 0.25112 0.33453 0.6597 0.0
H2644 H 0.23277 0.28394 0.61162 0.0
H2645 H 0.25107 0.27071 0.63211 0.0
C2646 C 0.27237 0.28721 0.66957 0.0
C2647 C 0.28389 0.29801 0.68853 0.0
C2648 C 0.26204 0.29505 0.6576 0.0
C2649 C 0.28497 0.3168 0.69548 0.0
C2650 C 0.27412 0.32435 0.68401 0.0
C2651 C 0.2514 0.32085 0.65342 0.0
C2652 C 0.24009 0.31009 0.6342 0.0
C2653 C 0.26255 0.31357 0.66503 0.0
C2654 C 0.24068 0.29226 0.6266 0.0
C2655 C 0.2513 0.28471 0.63826 0.0
H2656 H 0.72666 0.99766 0.63394 0.0
H2657 H 0.67071 0.9808 0.66417 0.0
H2658 H 0.65613 0.94446 0.64999 0.0
H2659 H 0.65996 0.91729 0.62987 0.0
H2660 H 0.7156 0.93542 0.59832 0.0
H2661 H 0.72961 0.97142 0.61223 0.0
C2662 C 0.71128 0.98604 0.6375 0.0
C2663 C 0.69987 0.99185 0.6503 0.0
C2664 C 0.70295 0.96538 0.62907 0.0
C2665 C 0.67983 0.97668 0.65442 0.0
C2666 C 0.67151 0.95592 0.64632 0.0
C2667 C 0.67502 0.92917 0.62581 0.0
C2668 C 0.68682 0.9235 0.61333 0.0
C2669 C 0.68299 0.95005 0.63369 0.0
C2670 C 0.70637 0.93916 0.60831 0.0
C2671 C 0.71438 0.95981 0.61616 0.0
H2672 H 0.01716 0.7479 0.70239 0.0
H2673 H 0.02099 0.69179 0.70222 0.0
H2674 H 0.05157 0.70807 0.68222 0.0
H2675 H 0.07517 0.73692 0.66171 0.0
H2676 H 0.07131 0.79302 0.6619 0.0
H2677 H 0.04274 0.77796 0.6847 0.0
C2678 C 0.02489 0.73935 0.69833 0.0
C2679 C 0.01667 0.7186 0.70372 0.0
C2680 C 0.04229 0.74867 0.68646 0.0
C2681 C 0.02691 0.70777 0.69825 0.0
C2682 C 0.04437 0.71703 0.6867 0.0
C2683 C 0.06834 0.74602 0.66703 0.0
C2684 C 0.07525 0.76598 0.65976 0.0
C2685 C 0.05189 0.73728 0.68023 0.0
C2686 C 0.06603 0.77743 0.66676 0.0
C2687 C 0.04976 0.76889 0.67995 0.0
H2688 H 0.94431 0.58644 0.71825 0.0
H2689 H 0.99629 0.64566 0.74186 0.0
H2690 H 0.01213 0.62776 0.75859 0.0
H2691 H 0.00965 0.59539 0.76944 0.0
H2692 H 0.9586 0.53605 0.74439 0.0
H2693 H 0.94393 0.55396 0.72556 0.0
C2694 C 0.95922 0.59543 0.72682 0.0
C2695 C 0.96898 0.61734 0.72898 0.0
C2696 C 0.96831 0.58504 0.73642 0.0
C2697 C 0.9884 0.62877 0.73997 0.0
C2698 C 0.99745 0.61855 0.74965 0.0
C2699 C 0.99558 0.58629 0.75946 0.0
C2700 C 0.98514 0.56433 0.75871 0.0
C2701 C 0.98733 0.59668 0.74838 0.0
C2702 C 0.96676 0.55295 0.74582 0.0
C2703 C 0.95838 0.56318 0.73488 0.0
H2704 H 0.37318 0.37075 0.74968 0.0
H2705 H 0.41987 0.35707 0.731 0.0
H2706 H 0.44655 0.3911 0.74645 0.0
H2707 H 0.45668 0.42362 0.76726 0.0
H2708 H 0.4107 0.43757 0.78751 0.0
H2709 H 0.38369 0.40474 0.76922 0.0
C2710 C 0.3892 0.37539 0.74875 0.0
C2711 C 0.39454 0.36136 0.73933 0.0
C2712 C 0.40458 0.39493 0.75808 0.0
C2713 C 0.41535 0.36751 0.73831 0.0
C2714 C 0.43064 0.38696 0.74716 0.0
C2715 C 0.44073 0.41944 0.76775 0.0
C2716 C 0.43564 0.43278 0.779 0.0
C2717 C 0.42542 0.40057 0.75748 0.0
C2718 C 0.41498 0.42748 0.77899 0.0
C2719 C 0.39955 0.4087 0.76861 0.0
H2720 H 0.6413 0.02579 0.69292 0.0
H2721 H 0.66635 0.09091 0.71299 0.0
H2722 H 0.63701 0.08218 0.7338 0.0
H2723 H 0.60571 0.05611 0.74842 0.0
H2724 H 0.57888 0.99106 0.72677 0.0
H2725 H 0.60768 0.99974 0.70498 0.0
C2726 C 0.6402 0.03808 0.70163 0.0
C2727 C 0.65612 0.05897 0.70143 0.0
C2728 C 0.62314 0.03297 0.71363 0.0
C2729 C 0.65438 0.0747 0.71279 0.0
C2730 C 0.63762 0.06972 0.72482 0.0
C2731 C 0.60575 0.04377 0.73861 0.0
C2732 C 0.59 0.02288 0.73956 0.0
C2733 C 0.62208 0.0489 0.72564 0.0
C2734 C 0.59089 0.00724 0.72692 0.0
C2735 C 0.60732 0.0122 0.71424 0.0
loop_
_geom_bond_atom_site_label_1
_geom_bond_atom_site_label_2
_geom_bond_distance
_geom_bond_site_symmetry_2
_ccdc_geom_bond_type
O0 Cd1 2.223 . S
O0 C8 1.315 . S
Cd1 O0 2.223 . S
Cd1 O4 2.297 . S
Cd1 O5 2.439 . S
Cd1 O11 2.240 . S
Cd2 O3 2.240 . S
Cd2 O10 2.223 . S
Cd2 O12 2.297 1_554 S
Cd2 O13 2.439 . S
O3 Cd2 2.240 . S
O3 C8 1.279 1_655 S
O4 Cd1 2.297 . S
O4 C6 1.247 . S
O5 Cd1 2.439 . S
O5 C6 1.208 . S
C6 O4 1.247 . S
C6 O5 1.208 . S
C7 O12 1.247 . S
C7 O13 1.208 1_556 S
C8 O0 1.315 . S
C8 O3 1.279 1_455 S
C9 O10 1.315 1_556 S
C9 O11 1.279 1_656 S
O10 Cd2 2.223 . S
O10 C9 1.315 1_554 S
O11 Cd1 2.240 . S
O11 C9 1.279 1_454 S
O12 Cd2 2.297 1_556 S
O12 C7 1.247 . S
O13 Cd2 2.439 . S
O13 C7 1.208 1_554 S
O14 Cd15 2.223 . S
O14 C22 1.315 . S
Cd15 O14 2.223 . S
Cd15 O18 2.297 . S
Cd15 O19 2.439 . S
Cd15 O25 2.240 . S
Cd16 O17 2.240 . S
Cd16 O24 2.223 . S
Cd16 O26 2.297 . S
Cd16 O27 2.439 . S
O17 Cd16 2.240 . S
O17 C22 1.279 . S
O18 Cd15 2.297 . S
O18 C20 1.247 . S
O19 Cd15 2.439 . S
O19 C20 1.208 . S
C20 O18 1.247 . S
C20 O19 1.208 . S
C21 O26 1.247 . S
C21 O27 1.208 . S
C22 O14 1.315 . S
C22 O17 1.279 . S
C23 O24 1.315 . S
C23 O25 1.279 . S
O24 Cd16 2.223 . S
O24 C23 1.315 . S
O25 Cd15 2.240 . S
O25 C23 1.279 . S
O26 Cd16 2.297 . S
O26 C21 1.247 . S
O27 Cd16 2.439 . S
O27 C21 1.208 . S
O28 Cd29 2.223 . S
O28 C36 1.318 1_544 S
Cd29 O28 2.223 . S
Cd29 O32 2.297 1_554 S
Cd29 O33 2.439 . S
Cd29 O39 2.240 . S
Cd30 O31 2.240 . S
Cd30 O38 2.223 . S
Cd30 O40 2.297 . S
Cd30 O41 2.439 . S
O31 Cd30 2.240 . S
O31 C36 1.279 1_554 S
O32 Cd29 2.297 1_556 S
O32 C34 1.247 . S
O33 Cd29 2.439 . S
O33 C34 1.208 1_554 S
C34 O32 1.247 . S
C34 O33 1.208 1_556 S
C35 O40 1.247 . S
C35 O41 1.208 . S
C36 O28 1.318 1_566 S
C36 O31 1.279 1_556 S
C37 O38 1.356 . S
C37 O39 1.240 1_565 S
O38 Cd30 2.223 . S
O38 C37 1.356 . S
O39 Cd29 2.240 . S
O39 C37 1.240 1_545 S
O40 Cd30 2.297 . S
O40 C35 1.247 . S
O41 Cd30 2.439 . S
O41 C35 1.208 . S
O42 Cd43 2.223 . S
O42 C50 1.315 . S
Cd43 O42 2.223 . S
Cd43 O46 2.297 . S
Cd43 O47 2.439 . S
Cd43 O53 2.240 . S
Cd44 O45 2.240 . S
Cd44 O52 2.223 . S
Cd44 O54 2.297 . S
Cd44 O55 2.439 . S
O45 Cd44 2.240 . S
O45 C50 1.279 1_455 S
O46 Cd43 2.297 . S
O46 C48 1.247 . S
O47 Cd43 2.439 . S
O47 C48 1.208 . S
C48 O46 1.247 . S
C48 O47 1.208 . S
C49 O54 1.247 . S
C49 O55 1.208 . S
C50 O42 1.315 . S
C50 O45 1.279 1_655 S
C51 O52 1.315 . S
C51 O53 1.279 1_455 S
O52 Cd44 2.223 . S
O52 C51 1.315 . S
O53 Cd43 2.240 . S
O53 C51 1.279 1_655 S
O54 Cd44 2.297 . S
O54 C49 1.247 . S
O55 Cd44 2.439 . S
O55 C49 1.208 . S
O56 Cd57 2.209 1_556 S
O56 C64 1.315 . S
Cd57 O56 2.209 1_554 S
Cd57 O60 2.277 1_554 S
Cd57 O61 2.429 1_554 S
Cd57 O67 2.260 . S
Cd58 O59 2.240 1_554 S
Cd58 O66 2.223 . S
Cd58 O68 2.297 . S
Cd58 O69 2.439 . S
O59 Cd58 2.240 1_556 S
O59 C64 1.279 . S
O60 Cd57 2.277 1_556 S
O60 C62 1.247 . S
O61 Cd57 2.429 1_556 S
O61 C62 1.208 . S
C62 O60 1.247 . S
C62 O61 1.208 . S
C63 O68 1.247 . S
C63 O69 1.208 . S
C64 O56 1.315 . S
C64 O59 1.279 . S
C65 O66 1.315 . S
C65 O67 1.279 . S
O66 Cd58 2.223 . S
O66 C65 1.315 . S
O67 Cd57 2.260 . S
O67 C65 1.279 . S
O68 Cd58 2.297 . S
O68 C63 1.247 . S
O69 Cd58 2.439 . S
O69 C63 1.208 . S
O70 Cd71 2.223 . S
O70 C78 1.306 1_565 S
Cd71 O70 2.223 . S
Cd71 O74 2.297 . S
Cd71 O75 2.439 . S
Cd71 O81 2.240 . S
Cd72 O73 2.240 . S
Cd72 O80 2.223 . S
Cd72 O82 2.297 . S
Cd72 O83 2.439 . S
O73 Cd72 2.240 . S
O73 C78 1.279 . S
O74 Cd71 2.297 . S
O74 C76 1.247 . S
O75 Cd71 2.439 . S
O75 C76 1.208 . S
C76 O74 1.247 . S
C76 O75 1.208 . S
C77 O82 1.247 . S
C77 O83 1.208 . S
C78 O70 1.306 1_545 S
C78 O73 1.279 . S
C79 O80 1.371 . S
C79 O81 1.226 1_545 S
O80 Cd72 2.223 . S
O80 C79 1.371 . S
O81 Cd71 2.240 . S
O81 C79 1.226 1_565 S
O82 Cd72 2.297 . S
O82 C77 1.247 . S
O83 Cd72 2.439 . S
O83 C77 1.208 . S
O84 Cd85 2.223 . S
O84 C92 1.315 . S
Cd85 O84 2.223 . S
Cd85 O88 2.297 . S
Cd85 O89 2.439 . S
Cd85 O95 2.240 . S
Cd86 O87 2.240 . S
Cd86 O94 2.223 . S
Cd86 O96 2.297 . S
Cd86 O97 2.439 . S
O87 Cd86 2.240 . S
O87 C92 1.279 . S
O88 Cd85 2.297 . S
O88 C90 1.247 . S
O89 Cd85 2.439 . S
O89 C90 1.208 . S
C90 O88 1.247 . S
C90 O89 1.208 . S
C91 O96 1.247 . S
C91 O97 1.208 . S
C92 O84 1.315 . S
C92 O87 1.279 . S
C93 O94 1.315 . S
C93 O95 1.279 . S
O94 Cd86 2.223 . S
O94 C93 1.315 . S
O95 Cd85 2.240 . S
O95 C93 1.279 . S
O96 Cd86 2.297 . S
O96 C91 1.247 . S
O97 Cd86 2.439 . S
O97 C91 1.208 . S
O98 Cd99 2.223 . S
O98 C106 1.315 . S
Cd99 O98 2.223 . S
Cd99 O102 2.297 . S
Cd99 O103 2.439 . S
Cd99 O109 2.240 . S
Cd100 O101 2.240 . S
Cd100 O108 2.223 . S
Cd100 O110 2.297 . S
Cd100 O111 2.439 . S
O101 Cd100 2.240 . S
O101 C106 1.279 . S
O102 Cd99 2.297 . S
O102 C104 1.247 1_565 S
O103 Cd99 2.439 . S
O103 C104 1.208 1_565 S
C104 O102 1.247 1_545 S
C104 O103 1.208 1_545 S
C105 O110 1.247 . S
C105 O111 1.208 . S
C106 O98 1.315 . S
C106 O101 1.279 . S
C107 O108 1.315 . S
C107 O109 1.279 . S
O108 Cd100 2.223 . S
O108 C107 1.315 . S
O109 Cd99 2.240 . S
O109 C107 1.279 . S
O110 Cd100 2.297 . S
O110 C105 1.247 . S
O111 Cd100 2.439 . S
O111 C105 1.208 . S
O112 Cd113 2.223 . S
O112 C120 1.315 . S
Cd113 O112 2.223 . S
Cd113 O116 2.297 . S
Cd113 O117 2.439 . S
Cd113 O123 2.240 . S
Cd114 O115 2.240 . S
Cd114 O122 2.223 . S
Cd114 O124 2.297 . S
Cd114 O125 2.439 . S
O115 Cd114 2.240 . S
O115 C120 1.279 . S
O116 Cd113 2.297 . S
O116 C118 1.247 . S
O117 Cd113 2.439 . S
O117 C118 1.208 . S
C118 O116 1.247 . S
C118 O117 1.208 . S
C119 O124 1.247 . S
C119 O125 1.208 . S
C120 O112 1.315 . S
C120 O115 1.279 . S
C121 O122 1.315 . S
C121 O123 1.279 . S
O122 Cd114 2.223 . S
O122 C121 1.315 . S
O123 Cd113 2.240 . S
O123 C121 1.279 . S
O124 Cd114 2.297 . S
O124 C119 1.247 . S
O125 Cd114 2.439 . S
O125 C119 1.208 . S
O126 Cd127 2.223 . S
O126 C134 1.315 . S
Cd127 O126 2.223 . S
Cd127 O130 2.297 . S
Cd127 O131 2.439 . S
Cd127 O137 2.240 . S
Cd128 O129 2.240 . S
Cd128 O136 2.223 . S
Cd128 O138 2.297 1_565 S
Cd128 O139 2.439 1_565 S
O129 Cd128 2.240 . S
O129 C134 1.279 . S
O130 Cd127 2.297 . S
O130 C132 1.247 . S
O131 Cd127 2.439 . S
O131 C132 1.208 . S
C132 O130 1.247 . S
C132 O131 1.208 . S
C133 O138 1.247 . S
C133 O139 1.208 . S
C134 O126 1.315 . S
C134 O129 1.279 . S
C135 O136 1.315 . S
C135 O137 1.279 . S
O136 Cd128 2.223 . S
O136 C135 1.315 . S
O137 Cd127 2.240 . S
O137 C135 1.279 . S
O138 Cd128 2.297 1_545 S
O138 C133 1.247 . S
O139 Cd128 2.439 1_545 S
O139 C133 1.208 . S
O140 Cd141 2.223 . S
O140 C148 1.315 . S
Cd141 O140 2.223 . S
Cd141 O144 2.297 . S
Cd141 O145 2.439 . S
Cd141 O151 2.240 . S
Cd142 O143 2.240 . S
Cd142 O150 2.223 . S
Cd142 O152 2.297 . S
Cd142 O153 2.439 1_455 S
O143 Cd142 2.240 . S
O143 C148 1.279 . S
O144 Cd141 2.297 . S
O144 C146 1.247 . S
O145 Cd141 2.439 . S
O145 C146 1.208 . S
C146 O144 1.247 . S
C146 O145 1.208 . S
C147 O152 1.247 1_655 S
C147 O153 1.208 . S
C148 O140 1.315 . S
C148 O143 1.279 . S
C149 O150 1.315 . S
C149 O151 1.279 . S
O150 Cd142 2.223 . S
O150 C149 1.315 . S
O151 Cd141 2.240 . S
O151 C149 1.279 . S
O152 Cd142 2.297 . S
O152 C147 1.247 1_455 S
O153 Cd142 2.439 1_655 S
O153 C147 1.208 . S
O154 Cd155 2.223 . S
O154 C162 1.315 . S
Cd155 O154 2.223 . S
Cd155 O158 2.297 . S
Cd155 O159 2.439 . S
Cd155 O165 2.240 . S
Cd156 O157 2.240 . S
Cd156 O164 2.223 . S
Cd156 O166 2.297 . S
Cd156 O167 2.439 . S
O157 Cd156 2.240 . S
O157 C162 1.279 . S
O158 Cd155 2.297 . S
O158 C160 1.247 . S
O159 Cd155 2.439 . S
O159 C160 1.208 . S
C160 O158 1.247 . S
C160 O159 1.208 . S
C161 O166 1.247 . S
C161 O167 1.208 . S
C162 O154 1.315 . S
C162 O157 1.279 . S
C163 O164 1.315 . S
C163 O165 1.279 . S
O164 Cd156 2.223 . S
O164 C163 1.315 . S
O165 Cd155 2.240 . S
O165 C163 1.279 . S
O166 Cd156 2.297 . S
O166 C161 1.247 . S
O167 Cd156 2.439 . S
O167 C161 1.208 . S
O168 Cd169 2.223 . S
O168 C176 1.315 . S
Cd169 O168 2.223 . S
Cd169 O172 2.297 . S
Cd169 O173 2.439 . S
Cd169 O179 2.240 . S
Cd170 O171 2.240 . S
Cd170 O178 2.223 . S
Cd170 O180 2.297 1_545 S
Cd170 O181 2.439 1_545 S
O171 Cd170 2.240 . S
O171 C176 1.279 . S
O172 Cd169 2.297 . S
O172 C174 1.247 . S
O173 Cd169 2.439 . S
O173 C174 1.208 . S
C174 O172 1.247 . S
C174 O173 1.208 . S
C175 O180 1.247 . S
C175 O181 1.208 . S
C176 O168 1.315 . S
C176 O171 1.279 . S
C177 O178 1.315 . S
C177 O179 1.279 . S
O178 Cd170 2.223 . S
O178 C177 1.315 . S
O179 Cd169 2.240 . S
O179 C177 1.279 . S
O180 Cd170 2.297 1_565 S
O180 C175 1.247 . S
O181 Cd170 2.439 1_565 S
O181 C175 1.208 . S
O182 Cd183 2.223 . S
O182 C190 1.315 . S
Cd183 O182 2.223 . S
Cd183 O186 2.297 . S
Cd183 O187 2.439 . S
Cd183 O193 2.240 . S
Cd184 O185 2.240 . S
Cd184 O192 2.223 . S
Cd184 O194 2.297 . S
Cd184 O195 2.439 1_655 S
O185 Cd184 2.240 . S
O185 C190 1.279 . S
O186 Cd183 2.297 . S
O186 C188 1.247 . S
O187 Cd183 2.439 . S
O187 C188 1.208 . S
C188 O186 1.247 . S
C188 O187 1.208 . S
C189 O194 1.247 1_455 S
C189 O195 1.208 . S
C190 O182 1.315 . S
C190 O185 1.279 . S
C191 O192 1.315 . S
C191 O193 1.279 . S
O192 Cd184 2.223 . S
O192 C191 1.315 . S
O193 Cd183 2.240 . S
O193 C191 1.279 . S
O194 Cd184 2.297 . S
O194 C189 1.247 1_655 S
O195 Cd184 2.439 1_455 S
O195 C189 1.208 . S
O196 Cd197 2.223 . S
O196 C204 1.315 . S
Cd197 O196 2.223 . S
Cd197 O200 2.297 . S
Cd197 O201 2.439 . S
Cd197 O207 2.240 . S
Cd198 O199 2.240 . S
Cd198 O206 2.223 . S
Cd198 O208 2.297 . S
Cd198 O209 2.439 . S
O199 Cd198 2.240 . S
O199 C204 1.279 . S
O200 Cd197 2.297 . S
O200 C202 1.247 . S
O201 Cd197 2.439 . S
O201 C202 1.208 . S
C202 O200 1.247 . S
C202 O201 1.208 . S
C203 O208 1.247 . S
C203 O209 1.208 . S
C204 O196 1.315 . S
C204 O199 1.279 . S
C205 O206 1.315 . S
C205 O207 1.279 . S
O206 Cd198 2.223 . S
O206 C205 1.315 . S
O207 Cd197 2.240 . S
O207 C205 1.279 . S
O208 Cd198 2.297 . S
O208 C203 1.247 . S
O209 Cd198 2.439 . S
O209 C203 1.208 . S
O210 Cd211 2.223 . S
O210 C218 1.315 . S
Cd211 O210 2.223 . S
Cd211 O214 2.297 . S
Cd211 O215 2.439 . S
Cd211 O221 2.240 . S
Cd212 O213 2.240 . S
Cd212 O220 2.223 . S
Cd212 O222 2.297 . S
Cd212 O223 2.439 . S
O213 Cd212 2.240 . S
O213 C218 1.279 . S
O214 Cd211 2.297 . S
O214 C216 1.247 . S
O215 Cd211 2.439 . S
O215 C216 1.208 . S
C216 O214 1.247 . S
C216 O215 1.208 . S
C217 O222 1.247 . S
C217 O223 1.208 . S
C218 O210 1.315 . S
C218 O213 1.279 . S
C219 O220 1.315 . S
C219 O221 1.279 . S
O220 Cd212 2.223 . S
O220 C219 1.315 . S
O221 Cd211 2.240 . S
O221 C219 1.279 . S
O222 Cd212 2.297 . S
O222 C217 1.247 . S
O223 Cd212 2.439 . S
O223 C217 1.208 . S
O224 Cd225 2.223 . S
O224 C232 1.315 . S
Cd225 O224 2.223 . S
Cd225 O228 2.297 . S
Cd225 O229 2.439 . S
Cd225 O235 2.240 . S
Cd226 O227 2.240 . S
Cd226 O234 2.223 . S
Cd226 O236 2.297 . S
Cd226 O237 2.439 . S
O227 Cd226 2.240 . S
O227 C232 1.279 . S
O228 Cd225 2.297 . S
O228 C230 1.247 1_545 S
O229 Cd225 2.439 . S
O229 C230 1.208 1_545 S
C230 O228 1.247 1_565 S
C230 O229 1.208 1_565 S
C231 O236 1.247 . S
C231 O237 1.208 . S
C232 O224 1.315 . S
C232 O227 1.279 . S
C233 O234 1.315 . S
C233 O235 1.279 . S
O234 Cd226 2.223 . S
O234 C233 1.315 . S
O235 Cd225 2.240 . S
O235 C233 1.279 . S
O236 Cd226 2.297 . S
O236 C231 1.247 . S
O237 Cd226 2.439 . S
O237 C231 1.208 . S
O238 Cd239 2.223 . S
O238 C246 1.315 . S
Cd239 O238 2.223 . S
Cd239 O242 2.297 . S
Cd239 O243 2.439 . S
Cd239 O249 2.240 . S
Cd240 O241 2.240 . S
Cd240 O248 2.223 . S
Cd240 O250 2.297 . S
Cd240 O251 2.439 . S
O241 Cd240 2.240 . S
O241 C246 1.279 . S
O242 Cd239 2.297 . S
O242 C244 1.247 . S
O243 Cd239 2.439 . S
O243 C244 1.208 . S
C244 O242 1.247 . S
C244 O243 1.208 . S
C245 O250 1.247 . S
C245 O251 1.208 . S
C246 O238 1.315 . S
C246 O241 1.279 . S
C247 O248 1.315 . S
C247 O249 1.279 . S
O248 Cd240 2.223 . S
O248 C247 1.315 . S
O249 Cd239 2.240 . S
O249 C247 1.279 . S
O250 Cd240 2.297 . S
O250 C245 1.247 . S
O251 Cd240 2.439 . S
O251 C245 1.208 . S
H252 O278 0.856 . S
H253 O281 0.854 . S
H254 C289 0.930 . S
H255 C290 0.930 . S
H256 C292 0.930 . S
H257 C293 0.930 . S
H258 C295 0.931 . S
H259 C296 0.930 . S
H260 C298 0.930 . S
H261 C299 0.929 . S
H262 C301 0.930 . S
H263 C302 0.931 . S
H264 C304 0.930 . S
H265 C305 0.929 . S
H266 C307 0.931 . S
H267 C308 0.930 . S
H268 C310 0.930 . S
H269 C311 0.932 . S
H270 C313 0.930 . S
H271 C314 0.929 . S
H272 C316 0.931 . S
H273 C317 0.930 . S
H274 C319 0.929 . S
H275 C320 0.931 . S
H276 C322 0.930 . S
H277 C323 0.929 . S
O278 H252 0.856 . S
O278 C324 1.300 . S
O279 C324 1.209 . S
O280 C325 1.199 . S
O281 H253 0.854 . S
O281 C325 1.297 . S
C282 C283 1.404 . S
C282 C287 1.397 . S
C282 C288 1.492 . S
C283 C282 1.404 . S
C283 C284 1.396 . S
C283 C294 1.492 . S
C284 C283 1.396 . S
C284 C285 1.397 . S
C284 C300 1.509 . S
C285 C284 1.397 . S
C285 C286 1.412 . S
C285 C306 1.485 . S
C286 C285 1.412 . S
C286 C287 1.388 . S
C286 C312 1.490 . S
C287 C282 1.397 . S
C287 C286 1.388 . S
C287 C318 1.519 . S
C288 C282 1.492 . S
C288 C289 1.363 . S
C288 C293 1.390 . S
C289 H254 0.930 . S
C289 C288 1.363 . S
C289 C290 1.372 . S
C290 H255 0.930 . S
C290 C289 1.372 . S
C290 C291 1.383 . S
C291 C290 1.383 . S
C291 C292 1.395 . S
C292 H256 0.930 . S
C292 C291 1.395 . S
C292 C293 1.362 . S
C293 H257 0.930 . S
C293 C288 1.390 . S
C293 C292 1.362 . S
C294 C283 1.492 . S
C294 C295 1.377 . S
C294 C299 1.397 . S
C295 H258 0.931 . S
C295 C294 1.377 . S
C295 C296 1.376 . S
C296 H259 0.930 . S
C296 C295 1.376 . S
C296 C297 1.376 . S
C297 C296 1.376 . S
C297 C298 1.378 . S
C297 C324 1.486 . S
C298 H260 0.930 . S
C298 C297 1.378 . S
C298 C299 1.376 . S
C299 H261 0.929 . S
C299 C294 1.397 . S
C299 C298 1.376 . S
C300 C284 1.509 . S
C300 C301 1.391 . S
C300 C305 1.386 . S
C301 H262 0.930 . S
C301 C300 1.391 . S
C301 C302 1.375 . S
C302 H263 0.931 . S
C302 C301 1.375 . S
C302 C303 1.375 . S
C303 C302 1.375 . S
C303 C304 1.361 . S
C304 H264 0.930 . S
C304 C303 1.361 . S
C304 C305 1.399 . S
C305 H265 0.929 . S
C305 C300 1.386 . S
C305 C304 1.399 . S
C306 C285 1.485 . S
C306 C307 1.394 . S
C306 C311 1.360 . S
C307 H266 0.931 . S
C307 C306 1.394 . S
C307 C308 1.372 . S
C308 H267 0.930 . S
C308 C307 1.372 . S
C308 C309 1.397 . S
C309 C308 1.397 . S
C309 C310 1.390 . S
C309 C325 1.476 . S
C310 H268 0.930 . S
C310 C309 1.390 . S
C310 C311 1.366 . S
C311 H269 0.932 . S
C311 C306 1.360 . S
C311 C310 1.366 . S
C312 C286 1.490 . S
C312 C313 1.380 . S
C312 C317 1.386 . S
C313 H270 0.930 . S
C313 C312 1.380 . S
C313 C314 1.381 . S
C314 H271 0.929 . S
C314 C313 1.381 . S
C314 C315 1.371 . S
C315 C314 1.371 . S
C315 C316 1.380 . S
C316 H272 0.931 . S
C316 C315 1.380 . S
C316 C317 1.387 . S
C317 H273 0.930 . S
C317 C312 1.386 . S
C317 C316 1.387 . S
C318 C287 1.519 . S
C318 C319 1.377 . S
C318 C323 1.361 . S
C319 H274 0.929 . S
C319 C318 1.377 . S
C319 C320 1.386 . S
C320 H275 0.931 . S
C320 C319 1.386 . S
C320 C321 1.363 . S
C321 C320 1.363 . S
C321 C322 1.385 . S
C322 H276 0.930 . S
C322 C321 1.385 . S
C322 C323 1.396 . S
C323 H277 0.929 . S
C323 C318 1.361 . S
C323 C322 1.396 . S
C324 O278 1.300 . S
C324 O279 1.209 . S
C324 C297 1.486 . S
C325 O280 1.199 . S
C325 O281 1.297 . S
C325 C309 1.476 . S
H326 O352 0.856 . S
H327 O355 0.854 . S
H328 C363 0.930 . S
H329 C364 0.930 . S
H330 C366 0.930 . S
H331 C367 0.930 . S
H332 C369 0.931 . S
H333 C370 0.930 . S
H334 C372 0.930 . S
H335 C373 0.929 . S
H336 C375 0.930 . S
H337 C376 0.931 . S
H338 C378 0.930 . S
H339 C379 0.929 . S
H340 C381 0.931 . S
H341 C382 0.930 . S
H342 C384 0.930 . S
H343 C385 0.932 . S
H344 C387 0.930 . S
H345 C388 0.929 . S
H346 C390 0.931 . S
H347 C391 0.930 . S
H348 C393 0.929 . S
H349 C394 0.931 . S
H350 C396 0.930 . S
H351 C397 0.929 . S
O352 H326 0.856 . S
O352 C398 1.300 . S
O353 C398 1.209 . S
O354 C399 1.199 . S
O355 H327 0.854 . S
O355 C399 1.297 . S
C356 C357 1.404 . S
C356 C361 1.397 . S
C356 C362 1.492 . S
C357 C356 1.404 . S
C357 C358 1.396 . S
C357 C368 1.492 . S
C358 C357 1.396 . S
C358 C359 1.397 . S
C358 C374 1.509 . S
C359 C358 1.397 . S
C359 C360 1.412 . S
C359 C380 1.485 . S
C360 C359 1.412 . S
C360 C361 1.388 . S
C360 C386 1.490 . S
C361 C356 1.397 . S
C361 C360 1.388 . S
C361 C392 1.519 . S
C362 C356 1.492 . S
C362 C363 1.363 . S
C362 C367 1.390 . S
C363 H328 0.930 . S
C363 C362 1.363 . S
C363 C364 1.372 . S
C364 H329 0.930 . S
C364 C363 1.372 . S
C364 C365 1.383 . S
C365 C364 1.383 . S
C365 C366 1.395 . S
C366 H330 0.930 . S
C366 C365 1.395 . S
C366 C367 1.362 . S
C367 H331 0.930 . S
C367 C362 1.390 . S
C367 C366 1.362 . S
C368 C357 1.492 . S
C368 C369 1.377 . S
C368 C373 1.397 . S
C369 H332 0.931 . S
C369 C368 1.377 . S
C369 C370 1.376 . S
C370 H333 0.930 . S
C370 C369 1.376 . S
C370 C371 1.376 . S
C371 C370 1.376 . S
C371 C372 1.378 . S
C371 C398 1.486 . S
C372 H334 0.930 . S
C372 C371 1.378 . S
C372 C373 1.376 . S
C373 H335 0.929 . S
C373 C368 1.397 . S
C373 C372 1.376 . S
C374 C358 1.509 . S
C374 C375 1.391 . S
C374 C379 1.386 . S
C375 H336 0.930 . S
C375 C374 1.391 . S
C375 C376 1.375 . S
C376 H337 0.931 . S
C376 C375 1.375 . S
C376 C377 1.375 . S
C377 C376 1.375 . S
C377 C378 1.361 . S
C378 H338 0.930 . S
C378 C377 1.361 . S
C378 C379 1.399 . S
C379 H339 0.929 . S
C379 C374 1.386 . S
C379 C378 1.399 . S
C380 C359 1.485 . S
C380 C381 1.394 . S
C380 C385 1.360 . S
C381 H340 0.931 . S
C381 C380 1.394 . S
C381 C382 1.372 . S
C382 H341 0.930 . S
C382 C381 1.372 . S
C382 C383 1.397 . S
C383 C382 1.397 . S
C383 C384 1.390 . S
C383 C399 1.476 . S
C384 H342 0.930 . S
C384 C383 1.390 . S
C384 C385 1.366 . S
C385 H343 0.932 . S
C385 C380 1.360 . S
C385 C384 1.366 . S
C386 C360 1.490 . S
C386 C387 1.380 . S
C386 C391 1.386 . S
C387 H344 0.930 . S
C387 C386 1.380 . S
C387 C388 1.381 . S
C388 H345 0.929 . S
C388 C387 1.381 . S
C388 C389 1.371 . S
C389 C388 1.371 . S
C389 C390 1.380 . S
C390 H346 0.931 . S
C390 C389 1.380 . S
C390 C391 1.387 . S
C391 H347 0.930 . S
C391 C386 1.386 . S
C391 C390 1.387 . S
C392 C361 1.519 . S
C392 C393 1.377 . S
C392 C397 1.361 . S
C393 H348 0.929 . S
C393 C392 1.377 . S
C393 C394 1.386 . S
C394 H349 0.931 . S
C394 C393 1.386 . S
C394 C395 1.363 . S
C395 C394 1.363 . S
C395 C396 1.385 . S
C396 H350 0.930 . S
C396 C395 1.385 . S
C396 C397 1.396 . S
C397 H351 0.929 . S
C397 C392 1.361 . S
C397 C396 1.396 . S
C398 O352 1.300 . S
C398 O353 1.209 . S
C398 C371 1.486 . S
C399 O354 1.199 . S
C399 O355 1.297 . S
C399 C383 1.476 . S
H400 O426 0.856 . S
H401 O429 0.854 . S
H402 C437 0.930 . S
H403 C438 0.930 . S
H404 C440 0.930 . S
H405 C441 0.930 . S
H406 C443 0.931 . S
H407 C444 0.930 . S
H408 C446 0.930 . S
H409 C447 0.929 . S
H410 C449 0.930 . S
H411 C450 0.931 . S
H412 C452 0.930 . S
H413 C453 0.929 . S
H414 C455 0.931 . S
H415 C456 0.930 . S
H416 C458 0.930 . S
H417 C459 0.932 . S
H418 C461 0.930 . S
H419 C462 0.929 . S
H420 C464 0.931 . S
H421 C465 0.930 . S
H422 C467 0.929 . S
H423 C468 0.931 . S
H424 C470 0.930 . S
H425 C471 0.929 . S
O426 H400 0.856 . S
O426 C472 1.300 . S
O427 C472 1.209 . S
O428 C473 1.199 . S
O429 H401 0.854 . S
O429 C473 1.297 . S
C430 C431 1.404 . S
C430 C435 1.397 . S
C430 C436 1.492 . S
C431 C430 1.404 . S
C431 C432 1.396 . S
C431 C442 1.492 . S
C432 C431 1.396 . S
C432 C433 1.397 . S
C432 C448 1.509 . S
C433 C432 1.397 . S
C433 C434 1.412 . S
C433 C454 1.485 . S
C434 C433 1.412 . S
C434 C435 1.388 . S
C434 C460 1.490 . S
C435 C430 1.397 . S
C435 C434 1.388 . S
C435 C466 1.519 . S
C436 C430 1.492 . S
C436 C437 1.363 . S
C436 C441 1.390 . S
C437 H402 0.930 . S
C437 C436 1.363 . S
C437 C438 1.372 . S
C438 H403 0.930 . S
C438 C437 1.372 . S
C438 C439 1.383 . S
C439 C438 1.383 . S
C439 C440 1.395 . S
C440 H404 0.930 . S
C440 C439 1.395 . S
C440 C441 1.362 . S
C441 H405 0.930 . S
C441 C436 1.390 . S
C441 C440 1.362 . S
C442 C431 1.492 . S
C442 C443 1.377 . S
C442 C447 1.397 . S
C443 H406 0.931 . S
C443 C442 1.377 . S
C443 C444 1.376 . S
C444 H407 0.930 . S
C444 C443 1.376 . S
C444 C445 1.376 . S
C445 C444 1.376 . S
C445 C446 1.378 . S
C445 C472 1.486 . S
C446 H408 0.930 . S
C446 C445 1.378 . S
C446 C447 1.376 . S
C447 H409 0.929 . S
C447 C442 1.397 . S
C447 C446 1.376 . S
C448 C432 1.509 . S
C448 C449 1.391 . S
C448 C453 1.386 . S
C449 H410 0.930 . S
C449 C448 1.391 . S
C449 C450 1.375 . S
C450 H411 0.931 . S
C450 C449 1.375 . S
C450 C451 1.375 . S
C451 C450 1.375 . S
C451 C452 1.361 . S
C452 H412 0.930 . S
C452 C451 1.361 . S
C452 C453 1.399 . S
C453 H413 0.929 . S
C453 C448 1.386 . S
C453 C452 1.399 . S
C454 C433 1.485 . S
C454 C455 1.394 . S
C454 C459 1.360 . S
C455 H414 0.931 . S
C455 C454 1.394 . S
C455 C456 1.372 . S
C456 H415 0.930 . S
C456 C455 1.372 . S
C456 C457 1.397 . S
C457 C456 1.397 . S
C457 C458 1.390 . S
C457 C473 1.476 . S
C458 H416 0.930 . S
C458 C457 1.390 . S
C458 C459 1.366 . S
C459 H417 0.932 . S
C459 C454 1.360 . S
C459 C458 1.366 . S
C460 C434 1.490 . S
C460 C461 1.380 . S
C460 C465 1.386 . S
C461 H418 0.930 . S
C461 C460 1.380 . S
C461 C462 1.381 . S
C462 H419 0.929 . S
C462 C461 1.381 . S
C462 C463 1.371 . S
C463 C462 1.371 . S
C463 C464 1.380 . S
C464 H420 0.931 . S
C464 C463 1.380 . S
C464 C465 1.387 . S
C465 H421 0.930 . S
C465 C460 1.386 . S
C465 C464 1.387 . S
C466 C435 1.519 . S
C466 C467 1.377 . S
C466 C471 1.361 . S
C467 H422 0.929 . S
C467 C466 1.377 . S
C467 C468 1.386 . S
C468 H423 0.931 . S
C468 C467 1.386 . S
C468 C469 1.363 . S
C469 C468 1.363 . S
C469 C470 1.385 . S
C470 H424 0.930 . S
C470 C469 1.385 . S
C470 C471 1.396 . S
C471 H425 0.929 . S
C471 C466 1.361 . S
C471 C470 1.396 . S
C472 O426 1.300 . S
C472 O427 1.209 . S
C472 C445 1.486 . S
C473 O428 1.199 . S
C473 O429 1.297 . S
C473 C457 1.476 . S
H474 O500 0.887 . S
H475 O503 0.854 . S
H476 C511 0.930 . S
H477 C512 0.930 . S
H478 C514 0.930 . S
H479 C515 0.930 . S
H480 C517 0.931 . S
H481 C518 0.930 . S
H482 C520 0.930 . S
H483 C521 0.929 . S
H484 C523 0.930 . S
H485 C524 0.931 . S
H486 C526 0.930 . S
H487 C527 0.929 . S
H488 C529 0.931 . S
H489 C530 0.930 . S
H490 C532 0.930 . S
H491 C533 0.932 . S
H492 C535 0.930 . S
H493 C536 0.929 . S
H494 C538 0.931 . S
H495 C539 0.930 . S
H496 C541 0.929 . S
H497 C542 0.931 . S
H498 C544 0.930 . S
H499 C545 0.929 . S
O500 H474 0.887 . S
O500 C546 1.276 1_554 S
O501 C546 1.209 . S
O502 C547 1.199 . S
O503 H475 0.854 . S
O503 C547 1.297 . S
C504 C505 1.404 . S
C504 C509 1.397 . S
C504 C510 1.492 . S
C505 C504 1.404 . S
C505 C506 1.396 . S
C505 C516 1.492 . S
C506 C505 1.396 . S
C506 C507 1.397 . S
C506 C522 1.509 . S
C507 C506 1.397 . S
C507 C508 1.412 . S
C507 C528 1.485 . S
C508 C507 1.412 . S
C508 C509 1.388 . S
C508 C534 1.490 . S
C509 C504 1.397 . S
C509 C508 1.388 . S
C509 C540 1.519 . S
C510 C504 1.492 . S
C510 C511 1.363 . S
C510 C515 1.390 . S
C511 H476 0.930 . S
C511 C510 1.363 . S
C511 C512 1.372 . S
C512 H477 0.930 . S
C512 C511 1.372 . S
C512 C513 1.383 . S
C513 C512 1.383 . S
C513 C514 1.395 . S
C514 H478 0.930 . S
C514 C513 1.395 . S
C514 C515 1.362 . S
C515 H479 0.930 . S
C515 C510 1.390 . S
C515 C514 1.362 . S
C516 C505 1.492 . S
C516 C517 1.377 . S
C516 C521 1.397 . S
C517 H480 0.931 . S
C517 C516 1.377 . S
C517 C518 1.376 . S
C518 H481 0.930 . S
C518 C517 1.376 . S
C518 C519 1.376 . S
C519 C518 1.376 . S
C519 C520 1.378 . S
C519 C546 1.486 . S
C520 H482 0.930 . S
C520 C519 1.378 . S
C520 C521 1.376 . S
C521 H483 0.929 . S
C521 C516 1.397 . S
C521 C520 1.376 . S
C522 C506 1.509 . S
C522 C523 1.391 . S
C522 C527 1.386 . S
C523 H484 0.930 . S
C523 C522 1.391 . S
C523 C524 1.375 . S
C524 H485 0.931 . S
C524 C523 1.375 . S
C524 C525 1.375 . S
C525 C524 1.375 . S
C525 C526 1.361 . S
C526 H486 0.930 . S
C526 C525 1.361 . S
C526 C527 1.399 . S
C527 H487 0.929 . S
C527 C522 1.386 . S
C527 C526 1.399 . S
C528 C507 1.485 . S
C528 C529 1.394 . S
C528 C533 1.360 . S
C529 H488 0.931 . S
C529 C528 1.394 . S
C529 C530 1.372 . S
C530 H489 0.930 . S
C530 C529 1.372 . S
C530 C531 1.397 . S
C531 C530 1.397 . S
C531 C532 1.390 . S
C531 C547 1.476 . S
C532 H490 0.930 . S
C532 C531 1.390 . S
C532 C533 1.366 . S
C533 H491 0.932 . S
C533 C528 1.360 . S
C533 C532 1.366 . S
C534 C508 1.490 . S
C534 C535 1.380 . S
C534 C539 1.386 . S
C535 H492 0.930 . S
C535 C534 1.380 . S
C535 C536 1.381 . S
C536 H493 0.929 . S
C536 C535 1.381 . S
C536 C537 1.371 . S
C537 C536 1.371 . S
C537 C538 1.380 . S
C538 H494 0.931 . S
C538 C537 1.380 . S
C538 C539 1.387 . S
C539 H495 0.930 . S
C539 C534 1.386 . S
C539 C538 1.387 . S
C540 C509 1.519 . S
C540 C541 1.377 . S
C540 C545 1.361 . S
C541 H496 0.929 . S
C541 C540 1.377 . S
C541 C542 1.386 . S
C542 H497 0.931 . S
C542 C541 1.386 . S
C542 C543 1.363 . S
C543 C542 1.363 . S
C543 C544 1.385 . S
C544 H498 0.930 . S
C544 C543 1.385 . S
C544 C545 1.396 . S
C545 H499 0.929 . S
C545 C540 1.361 . S
C545 C544 1.396 . S
C546 O500 1.276 1_556 S
C546 O501 1.209 . S
C546 C519 1.486 . S
C547 O502 1.199 . S
C547 O503 1.297 . S
C547 C531 1.476 . S
H548 O574 0.856 . S
H549 O577 0.854 . S
H550 C585 0.930 . S
H551 C586 0.930 . S
H552 C588 0.930 . S
H553 C589 0.930 . S
H554 C591 0.931 . S
H555 C592 0.930 . S
H556 C594 0.930 . S
H557 C595 0.929 . S
H558 C597 0.930 . S
H559 C598 0.931 . S
H560 C600 0.930 . S
H561 C601 0.929 . S
H562 C603 0.931 . S
H563 C604 0.930 . S
H564 C606 0.930 . S
H565 C607 0.932 . S
H566 C609 0.930 . S
H567 C610 0.929 . S
H568 C612 0.931 . S
H569 C613 0.930 . S
H570 C615 0.929 . S
H571 C616 0.931 . S
H572 C618 0.930 . S
H573 C619 0.929 . S
O574 H548 0.856 . S
O574 C620 1.297 1_554 S
O575 C620 1.207 1_554 S
O576 C621 1.199 . S
O577 H549 0.854 . S
O577 C621 1.297 . S
C578 C579 1.404 . S
C578 C583 1.397 . S
C578 C584 1.492 . S
C579 C578 1.404 . S
C579 C580 1.396 . S
C579 C590 1.492 . S
C580 C579 1.396 . S
C580 C581 1.397 . S
C580 C596 1.509 . S
C581 C580 1.397 . S
C581 C582 1.412 . S
C581 C602 1.485 . S
C582 C581 1.412 . S
C582 C583 1.388 . S
C582 C608 1.490 . S
C583 C578 1.397 . S
C583 C582 1.388 . S
C583 C614 1.519 . S
C584 C578 1.492 . S
C584 C585 1.363 . S
C584 C589 1.390 . S
C585 H550 0.930 . S
C585 C584 1.363 . S
C585 C586 1.372 . S
C586 H551 0.930 . S
C586 C585 1.372 . S
C586 C587 1.383 . S
C587 C586 1.383 . S
C587 C588 1.395 . S
C588 H552 0.930 . S
C588 C587 1.395 . S
C588 C589 1.362 . S
C589 H553 0.930 . S
C589 C584 1.390 . S
C589 C588 1.362 . S
C590 C579 1.492 . S
C590 C591 1.377 . S
C590 C595 1.397 . S
C591 H554 0.931 . S
C591 C590 1.377 . S
C591 C592 1.376 . S
C592 H555 0.930 . S
C592 C591 1.376 . S
C592 C593 1.376 . S
C593 C592 1.376 . S
C593 C594 1.378 . S
C593 C620 1.490 . S
C594 H556 0.930 . S
C594 C593 1.378 . S
C594 C595 1.376 . S
C595 H557 0.929 . S
C595 C590 1.397 . S
C595 C594 1.376 . S
C596 C580 1.509 . S
C596 C597 1.391 . S
C596 C601 1.386 . S
C597 H558 0.930 . S
C597 C596 1.391 . S
C597 C598 1.375 . S
C598 H559 0.931 . S
C598 C597 1.375 . S
C598 C599 1.375 . S
C599 C598 1.375 . S
C599 C600 1.361 . S
C600 H560 0.930 . S
C600 C599 1.361 . S
C600 C601 1.399 . S
C601 H561 0.929 . S
C601 C596 1.386 . S
C601 C600 1.399 . S
C602 C581 1.485 . S
C602 C603 1.394 . S
C602 C607 1.360 . S
C603 H562 0.931 . S
C603 C602 1.394 . S
C603 C604 1.372 . S
C604 H563 0.930 . S
C604 C603 1.372 . S
C604 C605 1.397 . S
C605 C604 1.397 . S
C605 C606 1.390 . S
C605 C621 1.476 . S
C606 H564 0.930 . S
C606 C605 1.390 . S
C606 C607 1.366 . S
C607 H565 0.932 . S
C607 C602 1.360 . S
C607 C606 1.366 . S
C608 C582 1.490 . S
C608 C609 1.380 . S
C608 C613 1.386 . S
C609 H566 0.930 . S
C609 C608 1.380 . S
C609 C610 1.381 . S
C610 H567 0.929 . S
C610 C609 1.381 . S
C610 C611 1.371 . S
C611 C610 1.371 . S
C611 C612 1.380 . S
C612 H568 0.931 . S
C612 C611 1.380 . S
C612 C613 1.387 . S
C613 H569 0.930 . S
C613 C608 1.386 . S
C613 C612 1.387 . S
C614 C583 1.519 . S
C614 C615 1.377 . S
C614 C619 1.361 . S
C615 H570 0.929 . S
C615 C614 1.377 . S
C615 C616 1.386 . S
C616 H571 0.931 . S
C616 C615 1.386 . S
C616 C617 1.363 . S
C617 C616 1.363 . S
C617 C618 1.385 . S
C618 H572 0.930 . S
C618 C617 1.385 . S
C618 C619 1.396 . S
C619 H573 0.929 . S
C619 C614 1.361 . S
C619 C618 1.396 . S
C620 O574 1.297 1_556 S
C620 O575 1.207 1_556 S
C620 C593 1.490 . S
C621 O576 1.199 . S
C621 O577 1.297 . S
C621 C605 1.476 . S
H622 O648 0.856 . S
H623 O651 0.854 . S
H624 C659 0.930 . S
H625 C660 0.930 . S
H626 C662 0.930 . S
H627 C663 0.930 . S
H628 C665 0.931 . S
H629 C666 0.930 . S
H630 C668 0.930 . S
H631 C669 0.929 . S
H632 C671 0.930 . S
H633 C672 0.931 . S
H634 C674 0.930 . S
H635 C675 0.929 . S
H636 C677 0.931 . S
H637 C678 0.930 . S
H638 C680 0.930 . S
H639 C681 0.932 . S
H640 C683 0.930 . S
H641 C684 0.929 . S
H642 C686 0.931 . S
H643 C687 0.930 . S
H644 C689 0.929 . S
H645 C690 0.931 . S
H646 C692 0.930 . S
H647 C693 0.929 . S
O648 H622 0.856 . S
O648 C694 1.300 . S
O649 C694 1.209 . S
O650 C695 1.199 . S
O651 H623 0.854 . S
O651 C695 1.297 . S
C652 C653 1.404 . S
C652 C657 1.397 . S
C652 C658 1.492 . S
C653 C652 1.404 . S
C653 C654 1.396 . S
C653 C664 1.492 . S
C654 C653 1.396 . S
C654 C655 1.397 . S
C654 C670 1.509 . S
C655 C654 1.397 . S
C655 C656 1.412 . S
C655 C676 1.485 . S
C656 C655 1.412 . S
C656 C657 1.388 . S
C656 C682 1.490 . S
C657 C652 1.397 . S
C657 C656 1.388 . S
C657 C688 1.519 . S
C658 C652 1.492 . S
C658 C659 1.363 . S
C658 C663 1.390 . S
C659 H624 0.930 . S
C659 C658 1.363 . S
C659 C660 1.372 . S
C660 H625 0.930 . S
C660 C659 1.372 . S
C660 C661 1.383 . S
C661 C660 1.383 . S
C661 C662 1.395 . S
C662 H626 0.930 . S
C662 C661 1.395 . S
C662 C663 1.362 . S
C663 H627 0.930 . S
C663 C658 1.390 . S
C663 C662 1.362 . S
C664 C653 1.492 . S
C664 C665 1.377 . S
C664 C669 1.397 . S
C665 H628 0.931 . S
C665 C664 1.377 . S
C665 C666 1.376 . S
C666 H629 0.930 . S
C666 C665 1.376 . S
C666 C667 1.376 . S
C667 C666 1.376 . S
C667 C668 1.378 . S
C667 C694 1.486 1_556 S
C668 H630 0.930 . S
C668 C667 1.378 . S
C668 C669 1.376 . S
C669 H631 0.929 . S
C669 C664 1.397 . S
C669 C668 1.376 . S
C670 C654 1.509 . S
C670 C671 1.391 . S
C670 C675 1.386 . S
C671 H632 0.930 . S
C671 C670 1.391 . S
C671 C672 1.375 . S
C672 H633 0.931 . S
C672 C671 1.375 . S
C672 C673 1.375 . S
C673 C672 1.375 . S
C673 C674 1.361 . S
C674 H634 0.930 . S
C674 C673 1.361 . S
C674 C675 1.399 . S
C675 H635 0.929 . S
C675 C670 1.386 . S
C675 C674 1.399 . S
C676 C655 1.485 . S
C676 C677 1.394 . S
C676 C681 1.360 . S
C677 H636 0.931 . S
C677 C676 1.394 . S
C677 C678 1.372 . S
C678 H637 0.930 . S
C678 C677 1.372 . S
C678 C679 1.397 . S
C679 C678 1.397 . S
C679 C680 1.390 . S
C679 C695 1.476 . S
C680 H638 0.930 . S
C680 C679 1.390 . S
C680 C681 1.366 . S
C681 H639 0.932 . S
C681 C676 1.360 . S
C681 C680 1.366 . S
C682 C656 1.490 . S
C682 C683 1.380 . S
C682 C687 1.386 . S
C683 H640 0.930 . S
C683 C682 1.380 . S
C683 C684 1.381 . S
C684 H641 0.929 . S
C684 C683 1.381 . S
C684 C685 1.371 . S
C685 C684 1.371 . S
C685 C686 1.380 . S
C686 H642 0.931 . S
C686 C685 1.380 . S
C686 C687 1.387 . S
C687 H643 0.930 . S
C687 C682 1.386 . S
C687 C686 1.387 . S
C688 C657 1.519 . S
C688 C689 1.377 . S
C688 C693 1.361 . S
C689 H644 0.929 . S
C689 C688 1.377 . S
C689 C690 1.386 . S
C690 H645 0.931 . S
C690 C689 1.386 . S
C690 C691 1.363 . S
C691 C690 1.363 . S
C691 C692 1.385 . S
C692 H646 0.930 . S
C692 C691 1.385 . S
C692 C693 1.396 . S
C693 H647 0.929 . S
C693 C688 1.361 . S
C693 C692 1.396 . S
C694 O648 1.300 . S
C694 O649 1.209 . S
C694 C667 1.486 1_554 S
C695 O650 1.199 . S
C695 O651 1.297 . S
C695 C679 1.476 . S
H696 O722 0.856 . S
H697 O725 0.854 . S
H698 C733 0.930 . S
H699 C734 0.930 . S
H700 C736 0.930 . S
H701 C737 0.930 . S
H702 C739 0.931 . S
H703 C740 0.930 . S
H704 C742 0.930 . S
H705 C743 0.929 . S
H706 C745 0.930 . S
H707 C746 0.931 . S
H708 C748 0.930 . S
H709 C749 0.929 . S
H710 C751 0.931 . S
H711 C752 0.930 . S
H712 C754 0.930 . S
H713 C755 0.932 . S
H714 C757 0.930 . S
H715 C758 0.929 . S
H716 C760 0.931 . S
H717 C761 0.930 . S
H718 C763 0.929 . S
H719 C764 0.931 . S
H720 C766 0.930 . S
H721 C767 0.929 . S
O722 H696 0.856 . S
O722 C768 1.300 . S
O723 C768 1.209 . S
O724 C769 1.199 . S
O725 H697 0.854 . S
O725 C769 1.297 . S
C726 C727 1.404 . S
C726 C731 1.397 . S
C726 C732 1.492 . S
C727 C726 1.404 . S
C727 C728 1.396 . S
C727 C738 1.492 . S
C728 C727 1.396 . S
C728 C729 1.397 . S
C728 C744 1.509 . S
C729 C728 1.397 . S
C729 C730 1.412 . S
C729 C750 1.485 . S
C730 C729 1.412 . S
C730 C731 1.388 . S
C730 C756 1.490 . S
C731 C726 1.397 . S
C731 C730 1.388 . S
C731 C762 1.519 . S
C732 C726 1.492 . S
C732 C733 1.363 . S
C732 C737 1.390 . S
C733 H698 0.930 . S
C733 C732 1.363 . S
C733 C734 1.372 . S
C734 H699 0.930 . S
C734 C733 1.372 . S
C734 C735 1.383 . S
C735 C734 1.383 . S
C735 C736 1.395 . S
C736 H700 0.930 . S
C736 C735 1.395 . S
C736 C737 1.362 . S
C737 H701 0.930 . S
C737 C732 1.390 . S
C737 C736 1.362 . S
C738 C727 1.492 . S
C738 C739 1.377 . S
C738 C743 1.397 . S
C739 H702 0.931 . S
C739 C738 1.377 . S
C739 C740 1.376 . S
C740 H703 0.930 . S
C740 C739 1.376 . S
C740 C741 1.376 . S
C741 C740 1.376 . S
C741 C742 1.378 . S
C741 C768 1.486 . S
C742 H704 0.930 . S
C742 C741 1.378 . S
C742 C743 1.376 . S
C743 H705 0.929 . S
C743 C738 1.397 . S
C743 C742 1.376 . S
C744 C728 1.509 . S
C744 C745 1.391 . S
C744 C749 1.386 . S
C745 H706 0.930 . S
C745 C744 1.391 . S
C745 C746 1.375 . S
C746 H707 0.931 . S
C746 C745 1.375 . S
C746 C747 1.375 . S
C747 C746 1.375 . S
C747 C748 1.361 . S
C748 H708 0.930 . S
C748 C747 1.361 . S
C748 C749 1.399 . S
C749 H709 0.929 . S
C749 C744 1.386 . S
C749 C748 1.399 . S
C750 C729 1.485 . S
C750 C751 1.394 . S
C750 C755 1.360 . S
C751 H710 0.931 . S
C751 C750 1.394 . S
C751 C752 1.372 . S
C752 H711 0.930 . S
C752 C751 1.372 . S
C752 C753 1.397 . S
C753 C752 1.397 . S
C753 C754 1.390 . S
C753 C769 1.476 . S
C754 H712 0.930 . S
C754 C753 1.390 . S
C754 C755 1.366 . S
C755 H713 0.932 . S
C755 C750 1.360 . S
C755 C754 1.366 . S
C756 C730 1.490 . S
C756 C757 1.380 . S
C756 C761 1.386 . S
C757 H714 0.930 . S
C757 C756 1.380 . S
C757 C758 1.381 . S
C758 H715 0.929 . S
C758 C757 1.381 . S
C758 C759 1.371 . S
C759 C758 1.371 . S
C759 C760 1.380 . S
C760 H716 0.931 . S
C760 C759 1.380 . S
C760 C761 1.387 . S
C761 H717 0.930 . S
C761 C756 1.386 . S
C761 C760 1.387 . S
C762 C731 1.519 . S
C762 C763 1.377 . S
C762 C767 1.361 . S
C763 H718 0.929 . S
C763 C762 1.377 . S
C763 C764 1.386 . S
C764 H719 0.931 . S
C764 C763 1.386 . S
C764 C765 1.363 . S
C765 C764 1.363 . S
C765 C766 1.385 . S
C766 H720 0.930 . S
C766 C765 1.385 . S
C766 C767 1.396 . S
C767 H721 0.929 . S
C767 C762 1.361 . S
C767 C766 1.396 . S
C768 O722 1.300 . S
C768 O723 1.209 . S
C768 C741 1.486 . S
C769 O724 1.199 . S
C769 O725 1.297 . S
C769 C753 1.476 . S
H770 O796 0.856 . S
H771 O799 0.854 . S
H772 C807 0.930 . S
H773 C808 0.930 . S
H774 C810 0.930 . S
H775 C811 0.930 . S
H776 C813 0.931 . S
H777 C814 0.930 . S
H778 C816 0.930 . S
H779 C817 0.929 . S
H780 C819 0.930 . S
H781 C820 0.931 . S
H782 C822 0.930 . S
H783 C823 0.929 . S
H784 C825 0.931 . S
H785 C826 0.930 . S
H786 C828 0.930 . S
H787 C829 0.932 . S
H788 C831 0.930 . S
H789 C832 0.929 . S
H790 C834 0.931 . S
H791 C835 0.930 . S
H792 C837 0.929 . S
H793 C838 0.931 . S
H794 C840 0.930 . S
H795 C841 0.929 . S
O796 H770 0.856 . S
O796 C842 1.300 . S
O797 C842 1.209 . S
O798 C843 1.199 . S
O799 H771 0.854 . S
O799 C843 1.297 . S
C800 C801 1.404 . S
C800 C805 1.397 . S
C800 C806 1.492 . S
C801 C800 1.404 . S
C801 C802 1.396 . S
C801 C812 1.492 . S
C802 C801 1.396 . S
C802 C803 1.397 . S
C802 C818 1.509 . S
C803 C802 1.397 . S
C803 C804 1.412 . S
C803 C824 1.485 . S
C804 C803 1.412 . S
C804 C805 1.388 . S
C804 C830 1.490 . S
C805 C800 1.397 . S
C805 C804 1.388 . S
C805 C836 1.519 . S
C806 C800 1.492 . S
C806 C807 1.363 . S
C806 C811 1.390 . S
C807 H772 0.930 . S
C807 C806 1.363 . S
C807 C808 1.372 . S
C808 H773 0.930 . S
C808 C807 1.372 . S
C808 C809 1.383 . S
C809 C808 1.383 . S
C809 C810 1.395 . S
C810 H774 0.930 . S
C810 C809 1.395 . S
C810 C811 1.362 . S
C811 H775 0.930 . S
C811 C806 1.390 . S
C811 C810 1.362 . S
C812 C801 1.492 . S
C812 C813 1.377 . S
C812 C817 1.397 . S
C813 H776 0.931 . S
C813 C812 1.377 . S
C813 C814 1.376 . S
C814 H777 0.930 . S
C814 C813 1.376 . S
C814 C815 1.376 . S
C815 C814 1.376 . S
C815 C816 1.378 . S
C815 C842 1.486 . S
C816 H778 0.930 . S
C816 C815 1.378 . S
C816 C817 1.376 . S
C817 H779 0.929 . S
C817 C812 1.397 . S
C817 C816 1.376 . S
C818 C802 1.509 . S
C818 C819 1.391 . S
C818 C823 1.386 . S
C819 H780 0.930 . S
C819 C818 1.391 . S
C819 C820 1.375 . S
C820 H781 0.931 . S
C820 C819 1.375 . S
C820 C821 1.375 . S
C821 C820 1.375 . S
C821 C822 1.361 . S
C822 H782 0.930 . S
C822 C821 1.361 . S
C822 C823 1.399 . S
C823 H783 0.929 . S
C823 C818 1.386 . S
C823 C822 1.399 . S
C824 C803 1.485 . S
C824 C825 1.394 . S
C824 C829 1.360 . S
C825 H784 0.931 . S
C825 C824 1.394 . S
C825 C826 1.372 . S
C826 H785 0.930 . S
C826 C825 1.372 . S
C826 C827 1.397 . S
C827 C826 1.397 . S
C827 C828 1.390 . S
C827 C843 1.476 . S
C828 H786 0.930 . S
C828 C827 1.390 . S
C828 C829 1.366 . S
C829 H787 0.932 . S
C829 C824 1.360 . S
C829 C828 1.366 . S
C830 C804 1.490 . S
C830 C831 1.380 . S
C830 C835 1.386 . S
C831 H788 0.930 . S
C831 C830 1.380 . S
C831 C832 1.381 . S
C832 H789 0.929 . S
C832 C831 1.381 . S
C832 C833 1.371 . S
C833 C832 1.371 . S
C833 C834 1.380 . S
C834 H790 0.931 . S
C834 C833 1.380 . S
C834 C835 1.387 . S
C835 H791 0.930 . S
C835 C830 1.386 . S
C835 C834 1.387 . S
C836 C805 1.519 . S
C836 C837 1.377 . S
C836 C841 1.361 . S
C837 H792 0.929 . S
C837 C836 1.377 . S
C837 C838 1.386 . S
C838 H793 0.931 . S
C838 C837 1.386 . S
C838 C839 1.363 . S
C839 C838 1.363 . S
C839 C840 1.385 . S
C840 H794 0.930 . S
C840 C839 1.385 . S
C840 C841 1.396 . S
C841 H795 0.929 . S
C841 C836 1.361 . S
C841 C840 1.396 . S
C842 O796 1.300 . S
C842 O797 1.209 . S
C842 C815 1.486 . S
C843 O798 1.199 . S
C843 O799 1.297 . S
C843 C827 1.476 . S
H844 O870 0.856 . S
H845 O873 0.854 . S
H846 C881 0.930 . S
H847 C882 0.930 . S
H848 C884 0.930 . S
H849 C885 0.930 . S
H850 C887 0.931 . S
H851 C888 0.930 . S
H852 C890 0.930 . S
H853 C891 0.929 . S
H854 C893 0.930 . S
H855 C894 0.931 . S
H856 C896 0.930 . S
H857 C897 0.929 . S
H858 C899 0.931 . S
H859 C900 0.930 . S
H860 C902 0.930 . S
H861 C903 0.932 . S
H862 C905 0.930 . S
H863 C906 0.929 . S
H864 C908 0.931 . S
H865 C909 0.930 . S
H866 C911 0.929 . S
H867 C912 0.931 . S
H868 C914 0.930 . S
H869 C915 0.929 . S
O870 H844 0.856 . S
O870 C916 1.300 . S
O871 C916 1.209 . S
O872 C917 1.199 . S
O873 H845 0.854 . S
O873 C917 1.297 . S
C874 C875 1.404 . S
C874 C879 1.397 . S
C874 C880 1.492 . S
C875 C874 1.404 . S
C875 C876 1.396 . S
C875 C886 1.492 . S
C876 C875 1.396 . S
C876 C877 1.397 . S
C876 C892 1.509 . S
C877 C876 1.397 . S
C877 C878 1.412 . S
C877 C898 1.485 . S
C878 C877 1.412 . S
C878 C879 1.388 . S
C878 C904 1.490 . S
C879 C874 1.397 . S
C879 C878 1.388 . S
C879 C910 1.519 . S
C880 C874 1.492 . S
C880 C881 1.363 . S
C880 C885 1.390 . S
C881 H846 0.930 . S
C881 C880 1.363 . S
C881 C882 1.372 . S
C882 H847 0.930 . S
C882 C881 1.372 . S
C882 C883 1.383 . S
C883 C882 1.383 . S
C883 C884 1.395 . S
C884 H848 0.930 . S
C884 C883 1.395 . S
C884 C885 1.362 . S
C885 H849 0.930 . S
C885 C880 1.390 . S
C885 C884 1.362 . S
C886 C875 1.492 . S
C886 C887 1.377 . S
C886 C891 1.397 . S
C887 H850 0.931 . S
C887 C886 1.377 . S
C887 C888 1.376 . S
C888 H851 0.930 . S
C888 C887 1.376 . S
C888 C889 1.376 . S
C889 C888 1.376 . S
C889 C890 1.378 . S
C889 C916 1.486 . S
C890 H852 0.930 . S
C890 C889 1.378 . S
C890 C891 1.376 . S
C891 H853 0.929 . S
C891 C886 1.397 . S
C891 C890 1.376 . S
C892 C876 1.509 . S
C892 C893 1.391 . S
C892 C897 1.386 . S
C893 H854 0.930 . S
C893 C892 1.391 . S
C893 C894 1.375 . S
C894 H855 0.931 . S
C894 C893 1.375 . S
C894 C895 1.375 . S
C895 C894 1.375 . S
C895 C896 1.361 . S
C896 H856 0.930 . S
C896 C895 1.361 . S
C896 C897 1.399 . S
C897 H857 0.929 . S
C897 C892 1.386 . S
C897 C896 1.399 . S
C898 C877 1.485 . S
C898 C899 1.394 . S
C898 C903 1.360 . S
C899 H858 0.931 . S
C899 C898 1.394 . S
C899 C900 1.372 . S
C900 H859 0.930 . S
C900 C899 1.372 . S
C900 C901 1.397 . S
C901 C900 1.397 . S
C901 C902 1.390 . S
C901 C917 1.476 . S
C902 H860 0.930 . S
C902 C901 1.390 . S
C902 C903 1.366 . S
C903 H861 0.932 . S
C903 C898 1.360 . S
C903 C902 1.366 . S
C904 C878 1.490 . S
C904 C905 1.380 . S
C904 C909 1.386 . S
C905 H862 0.930 . S
C905 C904 1.380 . S
C905 C906 1.381 . S
C906 H863 0.929 . S
C906 C905 1.381 . S
C906 C907 1.371 . S
C907 C906 1.371 . S
C907 C908 1.380 . S
C908 H864 0.931 . S
C908 C907 1.380 . S
C908 C909 1.387 . S
C909 H865 0.930 . S
C909 C904 1.386 . S
C909 C908 1.387 . S
C910 C879 1.519 . S
C910 C911 1.377 . S
C910 C915 1.361 . S
C911 H866 0.929 . S
C911 C910 1.377 . S
C911 C912 1.386 . S
C912 H867 0.931 . S
C912 C911 1.386 . S
C912 C913 1.363 . S
C913 C912 1.363 . S
C913 C914 1.385 . S
C914 H868 0.930 . S
C914 C913 1.385 . S
C914 C915 1.396 . S
C915 H869 0.929 . S
C915 C910 1.361 . S
C915 C914 1.396 . S
C916 O870 1.300 . S
C916 O871 1.209 . S
C916 C889 1.486 . S
C917 O872 1.199 . S
C917 O873 1.297 . S
C917 C901 1.476 . S
H918 O944 0.856 . S
H919 O947 0.854 . S
H920 C955 0.930 . S
H921 C956 0.930 . S
H922 C958 0.930 . S
H923 C959 0.930 . S
H924 C961 0.931 . S
H925 C962 0.902 1_655 S
H926 C964 0.930 . S
H927 C965 0.929 . S
H928 C967 0.930 . S
H929 C968 0.925 1_655 S
H930 C970 0.930 . S
H931 C971 0.929 . S
H932 C973 0.931 . S
H933 C974 0.930 . S
H934 C976 0.930 . S
H935 C977 0.932 . S
H936 C979 0.930 . S
H937 C980 0.929 . S
H938 C982 0.931 . S
H939 C983 0.930 . S
H940 C985 0.929 . S
H941 C986 0.931 . S
H942 C988 0.930 . S
H943 C989 0.929 . S
O944 H918 0.856 . S
O944 C990 1.300 . S
O945 C990 1.209 . S
O946 C991 1.199 1_655 S
O947 H919 0.854 . S
O947 C991 1.297 . S
C948 C949 1.404 . S
C948 C953 1.394 . S
C948 C954 1.492 . S
C949 C948 1.404 . S
C949 C950 1.396 . S
C949 C960 1.492 . S
C950 C949 1.396 . S
C950 C951 1.397 . S
C950 C966 1.509 . S
C951 C950 1.397 . S
C951 C952 1.423 . S
C951 C972 1.485 . S
C952 C951 1.423 . S
C952 C953 1.403 . S
C952 C978 1.491 1_455 S
C953 C948 1.394 . S
C953 C952 1.403 . S
C953 C984 1.492 1_455 S
C954 C948 1.492 . S
C954 C955 1.363 1_455 S
C954 C959 1.390 . S
C955 H920 0.930 . S
C955 C954 1.363 1_655 S
C955 C956 1.372 . S
C956 H921 0.930 . S
C956 C955 1.372 . S
C956 C957 1.383 . S
C957 C956 1.383 . S
C957 C958 1.395 1_655 S
C958 H922 0.930 . S
C958 C957 1.395 1_455 S
C958 C959 1.362 . S
C959 H923 0.930 . S
C959 C954 1.390 . S
C959 C958 1.362 . S
C960 C949 1.492 . S
C960 C961 1.377 1_455 S
C960 C965 1.397 . S
C961 H924 0.931 . S
C961 C960 1.377 1_655 S
C961 C962 1.381 1_655 S
C962 H925 0.902 1_455 S
C962 C961 1.381 1_455 S
C962 C963 1.402 . S
C963 C962 1.402 . S
C963 C964 1.378 . S
C963 C990 1.486 . S
C964 H926 0.930 . S
C964 C963 1.378 . S
C964 C965 1.376 . S
C965 H927 0.929 . S
C965 C960 1.397 . S
C965 C964 1.376 . S
C966 C950 1.509 . S
C966 C967 1.391 1_455 S
C966 C971 1.386 . S
C967 H928 0.930 . S
C967 C966 1.391 1_655 S
C967 C968 1.367 1_655 S
C968 H929 0.925 1_455 S
C968 C967 1.367 1_455 S
C968 C969 1.389 . S
C969 C968 1.389 . S
C969 C970 1.361 . S
C970 H930 0.930 . S
C970 C969 1.361 . S
C970 C971 1.399 . S
C971 H931 0.929 . S
C971 C966 1.386 . S
C971 C970 1.399 . S
C972 C951 1.485 . S
C972 C973 1.394 1_455 S
C972 C977 1.360 . S
C973 H932 0.931 . S
C973 C972 1.394 1_655 S
C973 C974 1.372 . S
C974 H933 0.930 . S
C974 C973 1.372 . S
C974 C975 1.397 1_655 S
C975 C974 1.397 1_455 S
C975 C976 1.390 . S
C975 C991 1.476 . S
C976 H934 0.930 . S
C976 C975 1.390 . S
C976 C977 1.366 . S
C977 H935 0.932 . S
C977 C972 1.360 . S
C977 C976 1.366 . S
C978 C952 1.491 1_655 S
C978 C979 1.380 . S
C978 C983 1.386 1_655 S
C979 H936 0.930 . S
C979 C978 1.380 . S
C979 C980 1.381 . S
C980 H937 0.929 . S
C980 C979 1.381 . S
C980 C981 1.371 . S
C981 C980 1.371 . S
C981 C982 1.380 1_655 S
C982 H938 0.931 . S
C982 C981 1.380 1_455 S
C982 C983 1.387 . S
C983 H939 0.930 . S
C983 C978 1.386 1_455 S
C983 C982 1.387 . S
C984 C953 1.492 1_655 S
C984 C985 1.402 . S
C984 C989 1.344 1_655 S
C985 H940 0.929 . S
C985 C984 1.402 . S
C985 C986 1.386 . S
C986 H941 0.931 . S
C986 C985 1.386 . S
C986 C987 1.365 . S
C987 C986 1.365 . S
C987 C988 1.382 1_655 S
C988 H942 0.930 . S
C988 C987 1.382 1_455 S
C988 C989 1.396 . S
C989 H943 0.929 . S
C989 C984 1.344 1_455 S
C989 C988 1.396 . S
C990 O944 1.300 . S
C990 O945 1.209 . S
C990 C963 1.486 . S
C991 O946 1.199 1_455 S
C991 O947 1.297 . S
C991 C975 1.476 . S
H992 O1018 0.856 . S
H993 O1021 0.854 . S
H994 C1029 0.930 . S
H995 C1030 0.930 . S
H996 C1032 0.930 . S
H997 C1033 0.930 . S
H998 C1035 0.931 . S
H999 C1036 0.930 . S
H1000 C1038 0.930 . S
H1001 C1039 0.929 . S
H1002 C1041 0.930 . S
H1003 C1042 0.931 . S
H1004 C1044 0.930 . S
H1005 C1045 0.929 . S
H1006 C1047 0.931 . S
H1007 C1048 0.930 . S
H1008 C1050 0.930 . S
H1009 C1051 0.932 . S
H1010 C1053 0.930 . S
H1011 C1054 0.929 . S
H1012 C1056 0.931 . S
H1013 C1057 0.930 . S
H1014 C1059 0.929 . S
H1015 C1060 0.931 . S
H1016 C1062 0.930 . S
H1017 C1063 0.929 . S
O1018 H992 0.856 . S
O1018 C1064 1.300 . S
O1019 C1064 1.209 . S
O1020 C1065 1.199 . S
O1021 H993 0.854 . S
O1021 C1065 1.297 . S
C1022 C1023 1.404 . S
C1022 C1027 1.397 . S
C1022 C1028 1.492 . S
C1023 C1022 1.404 . S
C1023 C1024 1.396 . S
C1023 C1034 1.492 . S
C1024 C1023 1.396 . S
C1024 C1025 1.397 . S
C1024 C1040 1.509 . S
C1025 C1024 1.397 . S
C1025 C1026 1.412 . S
C1025 C1046 1.485 . S
C1026 C1025 1.412 . S
C1026 C1027 1.388 . S
C1026 C1052 1.490 . S
C1027 C1022 1.397 . S
C1027 C1026 1.388 . S
C1027 C1058 1.519 . S
C1028 C1022 1.492 . S
C1028 C1029 1.363 . S
C1028 C1033 1.390 . S
C1029 H994 0.930 . S
C1029 C1028 1.363 . S
C1029 C1030 1.372 . S
C1030 H995 0.930 . S
C1030 C1029 1.372 . S
C1030 C1031 1.383 . S
C1031 C1030 1.383 . S
C1031 C1032 1.395 . S
C1032 H996 0.930 . S
C1032 C1031 1.395 . S
C1032 C1033 1.362 . S
C1033 H997 0.930 . S
C1033 C1028 1.390 . S
C1033 C1032 1.362 . S
C1034 C1023 1.492 . S
C1034 C1035 1.377 . S
C1034 C1039 1.397 . S
C1035 H998 0.931 . S
C1035 C1034 1.377 . S
C1035 C1036 1.376 . S
C1036 H999 0.930 . S
C1036 C1035 1.376 . S
C1036 C1037 1.376 . S
C1037 C1036 1.376 . S
C1037 C1038 1.378 . S
C1037 C1064 1.486 . S
C1038 H1000 0.930 . S
C1038 C1037 1.378 . S
C1038 C1039 1.376 . S
C1039 H1001 0.929 . S
C1039 C1034 1.397 . S
C1039 C1038 1.376 . S
C1040 C1024 1.509 . S
C1040 C1041 1.391 . S
C1040 C1045 1.386 . S
C1041 H1002 0.930 . S
C1041 C1040 1.391 . S
C1041 C1042 1.375 . S
C1042 H1003 0.931 . S
C1042 C1041 1.375 . S
C1042 C1043 1.375 . S
C1043 C1042 1.375 . S
C1043 C1044 1.361 . S
C1044 H1004 0.930 . S
C1044 C1043 1.361 . S
C1044 C1045 1.399 . S
C1045 H1005 0.929 . S
C1045 C1040 1.386 . S
C1045 C1044 1.399 . S
C1046 C1025 1.485 . S
C1046 C1047 1.394 . S
C1046 C1051 1.360 . S
C1047 H1006 0.931 . S
C1047 C1046 1.394 . S
C1047 C1048 1.372 . S
C1048 H1007 0.930 . S
C1048 C1047 1.372 . S
C1048 C1049 1.397 . S
C1049 C1048 1.397 . S
C1049 C1050 1.390 . S
C1049 C1065 1.476 . S
C1050 H1008 0.930 . S
C1050 C1049 1.390 . S
C1050 C1051 1.366 . S
C1051 H1009 0.932 . S
C1051 C1046 1.360 . S
C1051 C1050 1.366 . S
C1052 C1026 1.490 . S
C1052 C1053 1.380 . S
C1052 C1057 1.386 . S
C1053 H1010 0.930 . S
C1053 C1052 1.380 . S
C1053 C1054 1.381 . S
C1054 H1011 0.929 . S
C1054 C1053 1.381 . S
C1054 C1055 1.371 . S
C1055 C1054 1.371 . S
C1055 C1056 1.380 . S
C1056 H1012 0.931 . S
C1056 C1055 1.380 . S
C1056 C1057 1.387 . S
C1057 H1013 0.930 . S
C1057 C1052 1.386 . S
C1057 C1056 1.387 . S
C1058 C1027 1.519 . S
C1058 C1059 1.377 . S
C1058 C1063 1.361 . S
C1059 H1014 0.929 . S
C1059 C1058 1.377 . S
C1059 C1060 1.386 . S
C1060 H1015 0.931 . S
C1060 C1059 1.386 . S
C1060 C1061 1.363 . S
C1061 C1060 1.363 . S
C1061 C1062 1.385 . S
C1062 H1016 0.930 . S
C1062 C1061 1.385 . S
C1062 C1063 1.396 . S
C1063 H1017 0.929 . S
C1063 C1058 1.361 . S
C1063 C1062 1.396 . S
C1064 O1018 1.300 . S
C1064 O1019 1.209 . S
C1064 C1037 1.486 . S
C1065 O1020 1.199 . S
C1065 O1021 1.297 . S
C1065 C1049 1.476 . S
H1066 O1092 0.856 . S
H1067 O1095 0.854 . S
H1068 C1103 0.930 . S
H1069 C1104 0.930 . S
H1070 C1106 0.930 . S
H1071 C1107 0.930 . S
H1072 C1109 0.931 . S
H1073 C1110 0.930 . S
H1074 C1112 0.930 . S
H1075 C1113 0.929 . S
H1076 C1115 0.930 . S
H1077 C1116 0.931 . S
H1078 C1118 0.930 . S
H1079 C1119 0.929 . S
H1080 C1121 0.931 . S
H1081 C1122 0.930 . S
H1082 C1124 0.930 . S
H1083 C1125 0.932 . S
H1084 C1127 0.930 . S
H1085 C1128 0.929 . S
H1086 C1130 0.931 . S
H1087 C1131 0.930 . S
H1088 C1133 0.929 . S
H1089 C1134 0.931 . S
H1090 C1136 0.930 . S
H1091 C1137 0.929 . S
O1092 H1066 0.856 . S
O1092 C1138 1.300 . S
O1093 C1138 1.209 . S
O1094 C1139 1.199 1_545 S
O1095 H1067 0.854 . S
O1095 C1139 1.297 . S
C1096 C1097 1.404 . S
C1096 C1101 1.413 . S
C1096 C1102 1.492 . S
C1097 C1096 1.404 . S
C1097 C1098 1.396 . S
C1097 C1108 1.492 . S
C1098 C1097 1.396 . S
C1098 C1099 1.397 . S
C1098 C1114 1.509 . S
C1099 C1098 1.397 . S
C1099 C1100 1.409 . S
C1099 C1120 1.485 . S
C1100 C1099 1.409 . S
C1100 C1101 1.374 . S
C1100 C1126 1.484 1_565 S
C1101 C1096 1.413 . S
C1101 C1100 1.374 . S
C1101 C1132 1.531 1_565 S
C1102 C1096 1.492 . S
C1102 C1103 1.363 1_565 S
C1102 C1107 1.390 . S
C1103 H1068 0.930 . S
C1103 C1102 1.363 1_545 S
C1103 C1104 1.372 . S
C1104 H1069 0.930 . S
C1104 C1103 1.372 . S
C1104 C1105 1.383 . S
C1105 C1104 1.383 . S
C1105 C1106 1.395 1_545 S
C1106 H1070 0.930 . S
C1106 C1105 1.395 1_565 S
C1106 C1107 1.362 . S
C1107 H1071 0.930 . S
C1107 C1102 1.390 . S
C1107 C1106 1.362 . S
C1108 C1097 1.492 . S
C1108 C1109 1.377 1_565 S
C1108 C1113 1.397 . S
C1109 H1072 0.931 . S
C1109 C1108 1.377 1_545 S
C1109 C1110 1.376 . S
C1110 H1073 0.930 . S
C1110 C1109 1.376 . S
C1110 C1111 1.376 1_545 S
C1111 C1110 1.376 1_565 S
C1111 C1112 1.378 . S
C1111 C1138 1.486 . S
C1112 H1074 0.930 . S
C1112 C1111 1.378 . S
C1112 C1113 1.376 . S
C1113 H1075 0.929 . S
C1113 C1108 1.397 . S
C1113 C1112 1.376 . S
C1114 C1098 1.509 . S
C1114 C1115 1.391 1_565 S
C1114 C1119 1.386 . S
C1115 H1076 0.930 . S
C1115 C1114 1.391 1_545 S
C1115 C1116 1.375 . S
C1116 H1077 0.931 . S
C1116 C1115 1.375 . S
C1116 C1117 1.375 1_545 S
C1117 C1116 1.375 1_565 S
C1117 C1118 1.361 . S
C1118 H1078 0.930 . S
C1118 C1117 1.361 . S
C1118 C1119 1.399 . S
C1119 H1079 0.929 . S
C1119 C1114 1.386 . S
C1119 C1118 1.399 . S
C1120 C1099 1.485 . S
C1120 C1121 1.394 1_565 S
C1120 C1125 1.360 . S
C1121 H1080 0.931 . S
C1121 C1120 1.394 1_545 S
C1121 C1122 1.372 . S
C1122 H1081 0.930 . S
C1122 C1121 1.372 . S
C1122 C1123 1.397 1_545 S
C1123 C1122 1.397 1_565 S
C1123 C1124 1.390 . S
C1123 C1139 1.476 . S
C1124 H1082 0.930 . S
C1124 C1123 1.390 . S
C1124 C1125 1.366 . S
C1125 H1083 0.932 . S
C1125 C1120 1.360 . S
C1125 C1124 1.366 . S
C1126 C1100 1.484 1_545 S
C1126 C1127 1.380 . S
C1126 C1131 1.386 1_545 S
C1127 H1084 0.930 . S
C1127 C1126 1.380 . S
C1127 C1128 1.381 . S
C1128 H1085 0.929 . S
C1128 C1127 1.381 . S
C1128 C1129 1.371 . S
C1129 C1128 1.371 . S
C1129 C1130 1.380 1_545 S
C1130 H1086 0.931 . S
C1130 C1129 1.380 1_565 S
C1130 C1131 1.387 . S
C1131 H1087 0.930 . S
C1131 C1126 1.386 1_565 S
C1131 C1130 1.387 . S
C1132 C1101 1.531 1_545 S
C1132 C1133 1.375 . S
C1132 C1137 1.365 1_545 S
C1133 H1088 0.929 . S
C1133 C1132 1.375 . S
C1133 C1134 1.386 . S
C1134 H1089 0.931 . S
C1134 C1133 1.386 . S
C1134 C1135 1.363 1_545 S
C1135 C1134 1.363 1_565 S
C1135 C1136 1.385 . S
C1136 H1090 0.930 . S
C1136 C1135 1.385 . S
C1136 C1137 1.396 . S
C1137 H1091 0.929 . S
C1137 C1132 1.365 1_565 S
C1137 C1136 1.396 . S
C1138 O1092 1.300 . S
C1138 O1093 1.209 . S
C1138 C1111 1.486 . S
C1139 O1094 1.199 1_565 S
C1139 O1095 1.297 . S
C1139 C1123 1.476 . S
H1140 O1166 0.856 . S
H1141 O1169 0.854 . S
H1142 C1177 0.930 . S
H1143 C1178 0.930 . S
H1144 C1180 0.930 . S
H1145 C1181 0.930 . S
H1146 C1183 0.931 . S
H1147 C1184 0.930 . S
H1148 C1186 0.930 . S
H1149 C1187 0.929 . S
H1150 C1189 0.930 . S
H1151 C1190 0.931 . S
H1152 C1192 0.930 . S
H1153 C1193 0.929 . S
H1154 C1195 0.931 . S
H1155 C1196 0.930 . S
H1156 C1198 0.930 . S
H1157 C1199 0.932 . S
H1158 C1201 0.930 . S
H1159 C1202 0.929 . S
H1160 C1204 0.931 . S
H1161 C1205 0.930 . S
H1162 C1207 0.929 . S
H1163 C1208 0.931 . S
H1164 C1210 0.930 . S
H1165 C1211 0.929 . S
O1166 H1140 0.856 . S
O1166 C1212 1.300 . S
O1167 C1212 1.209 1_565 S
O1168 C1213 1.199 1_545 S
O1169 H1141 0.854 . S
O1169 C1213 1.297 . S
C1170 C1171 1.404 . S
C1170 C1175 1.397 1_545 S
C1170 C1176 1.492 . S
C1171 C1170 1.404 . S
C1171 C1172 1.431 . S
C1171 C1182 1.492 . S
C1172 C1171 1.431 . S
C1172 C1173 1.379 1_545 S
C1172 C1188 1.505 . S
C1173 C1172 1.379 1_565 S
C1173 C1174 1.417 . S
C1173 C1194 1.495 . S
C1174 C1173 1.417 . S
C1174 C1175 1.371 . S
C1174 C1200 1.489 . S
C1175 C1170 1.397 1_565 S
C1175 C1174 1.371 . S
C1175 C1206 1.519 . S
C1176 C1170 1.492 . S
C1176 C1177 1.363 . S
C1176 C1181 1.390 1_545 S
C1177 H1142 0.930 . S
C1177 C1176 1.363 . S
C1177 C1178 1.372 . S
C1178 H1143 0.930 . S
C1178 C1177 1.372 . S
C1178 C1179 1.383 . S
C1179 C1178 1.383 . S
C1179 C1180 1.395 1_545 S
C1180 H1144 0.930 . S
C1180 C1179 1.395 1_565 S
C1180 C1181 1.362 . S
C1181 H1145 0.930 . S
C1181 C1176 1.390 1_565 S
C1181 C1180 1.362 . S
C1182 C1171 1.492 . S
C1182 C1183 1.377 . S
C1182 C1187 1.397 1_545 S
C1183 H1146 0.931 . S
C1183 C1182 1.377 . S
C1183 C1184 1.376 . S
C1184 H1147 0.930 . S
C1184 C1183 1.376 . S
C1184 C1185 1.376 . S
C1185 C1184 1.376 . S
C1185 C1186 1.378 1_545 S
C1185 C1212 1.486 . S
C1186 H1148 0.930 . S
C1186 C1185 1.378 1_565 S
C1186 C1187 1.376 . S
C1187 H1149 0.929 . S
C1187 C1182 1.397 1_565 S
C1187 C1186 1.376 . S
C1188 C1172 1.505 . S
C1188 C1189 1.414 . S
C1188 C1193 1.349 1_545 S
C1189 H1150 0.930 . S
C1189 C1188 1.414 . S
C1189 C1190 1.375 . S
C1190 H1151 0.931 . S
C1190 C1189 1.375 . S
C1190 C1191 1.391 . S
C1191 C1190 1.391 . S
C1191 C1192 1.352 1_545 S
C1192 H1152 0.930 . S
C1192 C1191 1.352 1_565 S
C1192 C1193 1.399 . S
C1193 H1153 0.929 . S
C1193 C1188 1.349 1_565 S
C1193 C1192 1.399 . S
C1194 C1173 1.495 . S
C1194 C1195 1.394 1_565 S
C1194 C1199 1.360 . S
C1195 H1154 0.931 . S
C1195 C1194 1.394 1_545 S
C1195 C1196 1.372 . S
C1196 H1155 0.930 . S
C1196 C1195 1.372 . S
C1196 C1197 1.397 1_545 S
C1197 C1196 1.397 1_565 S
C1197 C1198 1.390 . S
C1197 C1213 1.476 . S
C1198 H1156 0.930 . S
C1198 C1197 1.390 . S
C1198 C1199 1.366 . S
C1199 H1157 0.932 . S
C1199 C1194 1.360 . S
C1199 C1198 1.366 . S
C1200 C1174 1.489 . S
C1200 C1201 1.350 1_565 S
C1200 C1205 1.424 . S
C1201 H1158 0.930 . S
C1201 C1200 1.350 1_545 S
C1201 C1202 1.381 . S
C1202 H1159 0.929 . S
C1202 C1201 1.381 . S
C1202 C1203 1.407 . S
C1203 C1202 1.407 . S
C1203 C1204 1.351 1_545 S
C1204 H1160 0.931 . S
C1204 C1203 1.351 1_565 S
C1204 C1205 1.387 . S
C1205 H1161 0.930 . S
C1205 C1200 1.424 . S
C1205 C1204 1.387 . S
C1206 C1175 1.519 . S
C1206 C1207 1.377 1_565 S
C1206 C1211 1.361 . S
C1207 H1162 0.929 . S
C1207 C1206 1.377 1_545 S
C1207 C1208 1.386 . S
C1208 H1163 0.931 . S
C1208 C1207 1.386 . S
C1208 C1209 1.363 1_545 S
C1209 C1208 1.363 1_565 S
C1209 C1210 1.385 . S
C1210 H1164 0.930 . S
C1210 C1209 1.385 . S
C1210 C1211 1.396 . S
C1211 H1165 0.929 . S
C1211 C1206 1.361 . S
C1211 C1210 1.396 . S
C1212 O1166 1.300 . S
C1212 O1167 1.209 1_545 S
C1212 C1185 1.486 . S
C1213 O1168 1.199 1_565 S
C1213 O1169 1.297 . S
C1213 C1197 1.476 . S
H1214 O1240 0.856 . S
H1215 O1243 0.854 . S
H1216 C1251 0.930 . S
H1217 C1252 0.930 . S
H1218 C1254 0.930 . S
H1219 C1255 0.930 . S
H1220 C1257 0.931 . S
H1221 C1258 0.930 . S
H1222 C1260 0.930 . S
H1223 C1261 0.929 . S
H1224 C1263 0.930 . S
H1225 C1264 0.931 . S
H1226 C1266 0.930 . S
H1227 C1267 0.929 . S
H1228 C1269 0.931 . S
H1229 C1270 0.930 . S
H1230 C1272 0.930 . S
H1231 C1273 0.932 . S
H1232 C1275 0.930 . S
H1233 C1276 0.929 . S
H1234 C1278 0.931 . S
H1235 C1279 0.930 . S
H1236 C1281 0.929 . S
H1237 C1282 0.931 . S
H1238 C1284 0.930 . S
H1239 C1285 0.929 . S
O1240 H1214 0.856 . S
O1240 C1286 1.300 . S
O1241 C1286 1.209 1_455 S
O1242 C1287 1.199 1_655 S
O1243 H1215 0.854 . S
O1243 C1287 1.297 . S
C1244 C1245 1.404 . S
C1244 C1249 1.396 1_655 S
C1244 C1250 1.492 . S
C1245 C1244 1.404 . S
C1245 C1246 1.396 . S
C1245 C1256 1.492 . S
C1246 C1245 1.396 . S
C1246 C1247 1.397 1_655 S
C1246 C1262 1.509 . S
C1247 C1246 1.397 1_455 S
C1247 C1248 1.397 . S
C1247 C1268 1.487 . S
C1248 C1247 1.397 . S
C1248 C1249 1.411 . S
C1248 C1274 1.485 . S
C1249 C1244 1.396 1_455 S
C1249 C1248 1.411 . S
C1249 C1280 1.517 . S
C1250 C1244 1.492 . S
C1250 C1251 1.363 . S
C1250 C1255 1.390 1_655 S
C1251 H1216 0.930 . S
C1251 C1250 1.363 . S
C1251 C1252 1.372 . S
C1252 H1217 0.930 . S
C1252 C1251 1.372 . S
C1252 C1253 1.383 . S
C1253 C1252 1.383 . S
C1253 C1254 1.395 1_655 S
C1254 H1218 0.930 . S
C1254 C1253 1.395 1_455 S
C1254 C1255 1.362 . S
C1255 H1219 0.930 . S
C1255 C1250 1.390 1_455 S
C1255 C1254 1.362 . S
C1256 C1245 1.492 . S
C1256 C1257 1.377 . S
C1256 C1261 1.397 1_655 S
C1257 H1220 0.931 . S
C1257 C1256 1.377 . S
C1257 C1258 1.376 . S
C1258 H1221 0.930 . S
C1258 C1257 1.376 . S
C1258 C1259 1.376 . S
C1259 C1258 1.376 . S
C1259 C1260 1.378 1_655 S
C1259 C1286 1.486 . S
C1260 H1222 0.930 . S
C1260 C1259 1.378 1_455 S
C1260 C1261 1.376 . S
C1261 H1223 0.929 . S
C1261 C1256 1.397 1_455 S
C1261 C1260 1.376 . S
C1262 C1246 1.509 . S
C1262 C1263 1.391 . S
C1262 C1267 1.386 1_655 S
C1263 H1224 0.930 . S
C1263 C1262 1.391 . S
C1263 C1264 1.375 . S
C1264 H1225 0.931 . S
C1264 C1263 1.375 . S
C1264 C1265 1.375 . S
C1265 C1264 1.375 . S
C1265 C1266 1.361 1_655 S
C1266 H1226 0.930 . S
C1266 C1265 1.361 1_455 S
C1266 C1267 1.399 . S
C1267 H1227 0.929 . S
C1267 C1262 1.386 1_455 S
C1267 C1266 1.399 . S
C1268 C1247 1.487 . S
C1268 C1269 1.394 1_455 S
C1268 C1273 1.360 . S
C1269 H1228 0.931 . S
C1269 C1268 1.394 1_655 S
C1269 C1270 1.372 . S
C1270 H1229 0.930 . S
C1270 C1269 1.372 . S
C1270 C1271 1.397 1_655 S
C1271 C1270 1.397 1_455 S
C1271 C1272 1.390 . S
C1271 C1287 1.476 . S
C1272 H1230 0.930 . S
C1272 C1271 1.390 . S
C1272 C1273 1.366 . S
C1273 H1231 0.932 . S
C1273 C1268 1.360 . S
C1273 C1272 1.366 . S
C1274 C1248 1.485 . S
C1274 C1275 1.380 1_455 S
C1274 C1279 1.386 . S
C1275 H1232 0.930 . S
C1275 C1274 1.380 1_655 S
C1275 C1276 1.381 . S
C1276 H1233 0.929 . S
C1276 C1275 1.381 . S
C1276 C1277 1.371 1_655 S
C1277 C1276 1.371 1_455 S
C1277 C1278 1.380 . S
C1278 H1234 0.931 . S
C1278 C1277 1.380 . S
C1278 C1279 1.387 . S
C1279 H1235 0.930 . S
C1279 C1274 1.386 . S
C1279 C1278 1.387 . S
C1280 C1249 1.517 . S
C1280 C1281 1.377 1_455 S
C1280 C1285 1.361 . S
C1281 H1236 0.929 . S
C1281 C1280 1.377 1_655 S
C1281 C1282 1.386 . S
C1282 H1237 0.931 . S
C1282 C1281 1.386 . S
C1282 C1283 1.363 1_655 S
C1283 C1282 1.363 1_455 S
C1283 C1284 1.385 . S
C1284 H1238 0.930 . S
C1284 C1283 1.385 . S
C1284 C1285 1.396 . S
C1285 H1239 0.929 . S
C1285 C1280 1.361 . S
C1285 C1284 1.396 . S
C1286 O1240 1.300 . S
C1286 O1241 1.209 1_655 S
C1286 C1259 1.486 . S
C1287 O1242 1.199 1_455 S
C1287 O1243 1.297 . S
C1287 C1271 1.476 . S
H1288 O1314 0.856 . S
H1289 O1317 0.854 . S
H1290 C1325 0.930 . S
H1291 C1326 0.930 . S
H1292 C1328 0.930 . S
H1293 C1329 0.930 . S
H1294 C1331 0.931 . S
H1295 C1332 0.930 . S
H1296 C1334 0.930 . S
H1297 C1335 0.929 . S
H1298 C1337 0.930 . S
H1299 C1338 0.931 . S
H1300 C1340 0.930 . S
H1301 C1341 0.929 . S
H1302 C1343 0.931 . S
H1303 C1344 0.930 . S
H1304 C1346 0.930 . S
H1305 C1347 0.932 . S
H1306 C1349 0.930 . S
H1307 C1350 0.929 . S
H1308 C1352 0.931 . S
H1309 C1353 0.930 . S
H1310 C1355 0.929 . S
H1311 C1356 0.931 . S
H1312 C1358 0.930 . S
H1313 C1359 0.929 . S
O1314 H1288 0.856 . S
O1314 C1360 1.300 . S
O1315 C1360 1.209 . S
O1316 C1361 1.199 . S
O1317 H1289 0.854 . S
O1317 C1361 1.297 . S
C1318 C1319 1.404 . S
C1318 C1323 1.397 . S
C1318 C1324 1.492 . S
C1319 C1318 1.404 . S
C1319 C1320 1.396 . S
C1319 C1330 1.492 . S
C1320 C1319 1.396 . S
C1320 C1321 1.397 . S
C1320 C1336 1.509 . S
C1321 C1320 1.397 . S
C1321 C1322 1.412 . S
C1321 C1342 1.485 . S
C1322 C1321 1.412 . S
C1322 C1323 1.388 . S
C1322 C1348 1.490 . S
C1323 C1318 1.397 . S
C1323 C1322 1.388 . S
C1323 C1354 1.519 . S
C1324 C1318 1.492 . S
C1324 C1325 1.363 . S
C1324 C1329 1.390 . S
C1325 H1290 0.930 . S
C1325 C1324 1.363 . S
C1325 C1326 1.372 . S
C1326 H1291 0.930 . S
C1326 C1325 1.372 . S
C1326 C1327 1.383 . S
C1327 C1326 1.383 . S
C1327 C1328 1.395 . S
C1328 H1292 0.930 . S
C1328 C1327 1.395 . S
C1328 C1329 1.362 . S
C1329 H1293 0.930 . S
C1329 C1324 1.390 . S
C1329 C1328 1.362 . S
C1330 C1319 1.492 . S
C1330 C1331 1.377 . S
C1330 C1335 1.397 . S
C1331 H1294 0.931 . S
C1331 C1330 1.377 . S
C1331 C1332 1.376 . S
C1332 H1295 0.930 . S
C1332 C1331 1.376 . S
C1332 C1333 1.376 . S
C1333 C1332 1.376 . S
C1333 C1334 1.378 . S
C1333 C1360 1.486 . S
C1334 H1296 0.930 . S
C1334 C1333 1.378 . S
C1334 C1335 1.376 . S
C1335 H1297 0.929 . S
C1335 C1330 1.397 . S
C1335 C1334 1.376 . S
C1336 C1320 1.509 . S
C1336 C1337 1.391 . S
C1336 C1341 1.386 . S
C1337 H1298 0.930 . S
C1337 C1336 1.391 . S
C1337 C1338 1.375 . S
C1338 H1299 0.931 . S
C1338 C1337 1.375 . S
C1338 C1339 1.375 . S
C1339 C1338 1.375 . S
C1339 C1340 1.361 . S
C1340 H1300 0.930 . S
C1340 C1339 1.361 . S
C1340 C1341 1.399 . S
C1341 H1301 0.929 . S
C1341 C1336 1.386 . S
C1341 C1340 1.399 . S
C1342 C1321 1.485 . S
C1342 C1343 1.394 . S
C1342 C1347 1.360 . S
C1343 H1302 0.931 . S
C1343 C1342 1.394 . S
C1343 C1344 1.372 . S
C1344 H1303 0.930 . S
C1344 C1343 1.372 . S
C1344 C1345 1.397 . S
C1345 C1344 1.397 . S
C1345 C1346 1.390 . S
C1345 C1361 1.476 . S
C1346 H1304 0.930 . S
C1346 C1345 1.390 . S
C1346 C1347 1.366 . S
C1347 H1305 0.932 . S
C1347 C1342 1.360 . S
C1347 C1346 1.366 . S
C1348 C1322 1.490 . S
C1348 C1349 1.380 . S
C1348 C1353 1.386 . S
C1349 H1306 0.930 . S
C1349 C1348 1.380 . S
C1349 C1350 1.381 . S
C1350 H1307 0.929 . S
C1350 C1349 1.381 . S
C1350 C1351 1.371 . S
C1351 C1350 1.371 . S
C1351 C1352 1.380 . S
C1352 H1308 0.931 . S
C1352 C1351 1.380 . S
C1352 C1353 1.387 . S
C1353 H1309 0.930 . S
C1353 C1348 1.386 . S
C1353 C1352 1.387 . S
C1354 C1323 1.519 . S
C1354 C1355 1.377 . S
C1354 C1359 1.361 . S
C1355 H1310 0.929 . S
C1355 C1354 1.377 . S
C1355 C1356 1.386 . S
C1356 H1311 0.931 . S
C1356 C1355 1.386 . S
C1356 C1357 1.363 . S
C1357 C1356 1.363 . S
C1357 C1358 1.385 . S
C1358 H1312 0.930 . S
C1358 C1357 1.385 . S
C1358 C1359 1.396 . S
C1359 H1313 0.929 . S
C1359 C1354 1.361 . S
C1359 C1358 1.396 . S
C1360 O1314 1.300 . S
C1360 O1315 1.209 . S
C1360 C1333 1.486 . S
C1361 O1316 1.199 . S
C1361 O1317 1.297 . S
C1361 C1345 1.476 . S
H1362 O1388 0.856 . S
H1363 O1391 0.854 . S
H1364 C1399 0.930 . S
H1365 C1400 0.930 . S
H1366 C1402 0.930 . S
H1367 C1403 0.930 . S
H1368 C1405 0.931 . S
H1369 C1406 0.930 . S
H1370 C1408 0.930 . S
H1371 C1409 0.929 . S
H1372 C1411 0.930 . S
H1373 C1412 0.931 . S
H1374 C1414 0.930 . S
H1375 C1415 0.929 . S
H1376 C1417 0.931 . S
H1377 C1418 0.930 . S
H1378 C1420 0.930 . S
H1379 C1421 0.932 . S
H1380 C1423 0.930 . S
H1381 C1424 0.929 . S
H1382 C1426 0.931 . S
H1383 C1427 0.930 . S
H1384 C1429 0.929 . S
H1385 C1430 0.931 . S
H1386 C1432 0.930 . S
H1387 C1433 0.929 . S
O1388 H1362 0.856 . S
O1388 C1434 1.300 . S
O1389 C1434 1.209 . S
O1390 C1435 1.199 . S
O1391 H1363 0.854 . S
O1391 C1435 1.297 . S
C1392 C1393 1.404 . S
C1392 C1397 1.397 . S
C1392 C1398 1.492 . S
C1393 C1392 1.404 . S
C1393 C1394 1.396 . S
C1393 C1404 1.492 . S
C1394 C1393 1.396 . S
C1394 C1395 1.397 . S
C1394 C1410 1.509 . S
C1395 C1394 1.397 . S
C1395 C1396 1.412 . S
C1395 C1416 1.485 . S
C1396 C1395 1.412 . S
C1396 C1397 1.388 . S
C1396 C1422 1.490 . S
C1397 C1392 1.397 . S
C1397 C1396 1.388 . S
C1397 C1428 1.519 . S
C1398 C1392 1.492 . S
C1398 C1399 1.363 . S
C1398 C1403 1.390 . S
C1399 H1364 0.930 . S
C1399 C1398 1.363 . S
C1399 C1400 1.372 . S
C1400 H1365 0.930 . S
C1400 C1399 1.372 . S
C1400 C1401 1.383 . S
C1401 C1400 1.383 . S
C1401 C1402 1.395 . S
C1402 H1366 0.930 . S
C1402 C1401 1.395 . S
C1402 C1403 1.362 . S
C1403 H1367 0.930 . S
C1403 C1398 1.390 . S
C1403 C1402 1.362 . S
C1404 C1393 1.492 . S
C1404 C1405 1.377 . S
C1404 C1409 1.397 . S
C1405 H1368 0.931 . S
C1405 C1404 1.377 . S
C1405 C1406 1.376 . S
C1406 H1369 0.930 . S
C1406 C1405 1.376 . S
C1406 C1407 1.376 . S
C1407 C1406 1.376 . S
C1407 C1408 1.378 . S
C1407 C1434 1.486 . S
C1408 H1370 0.930 . S
C1408 C1407 1.378 . S
C1408 C1409 1.376 . S
C1409 H1371 0.929 . S
C1409 C1404 1.397 . S
C1409 C1408 1.376 . S
C1410 C1394 1.509 . S
C1410 C1411 1.391 . S
C1410 C1415 1.386 . S
C1411 H1372 0.930 . S
C1411 C1410 1.391 . S
C1411 C1412 1.375 . S
C1412 H1373 0.931 . S
C1412 C1411 1.375 . S
C1412 C1413 1.375 . S
C1413 C1412 1.375 . S
C1413 C1414 1.361 . S
C1414 H1374 0.930 . S
C1414 C1413 1.361 . S
C1414 C1415 1.399 . S
C1415 H1375 0.929 . S
C1415 C1410 1.386 . S
C1415 C1414 1.399 . S
C1416 C1395 1.485 . S
C1416 C1417 1.394 . S
C1416 C1421 1.360 . S
C1417 H1376 0.931 . S
C1417 C1416 1.394 . S
C1417 C1418 1.372 . S
C1418 H1377 0.930 . S
C1418 C1417 1.372 . S
C1418 C1419 1.397 . S
C1419 C1418 1.397 . S
C1419 C1420 1.390 . S
C1419 C1435 1.476 . S
C1420 H1378 0.930 . S
C1420 C1419 1.390 . S
C1420 C1421 1.366 . S
C1421 H1379 0.932 . S
C1421 C1416 1.360 . S
C1421 C1420 1.366 . S
C1422 C1396 1.490 . S
C1422 C1423 1.380 . S
C1422 C1427 1.386 . S
C1423 H1380 0.930 . S
C1423 C1422 1.380 . S
C1423 C1424 1.381 . S
C1424 H1381 0.929 . S
C1424 C1423 1.381 . S
C1424 C1425 1.371 . S
C1425 C1424 1.371 . S
C1425 C1426 1.380 . S
C1426 H1382 0.931 . S
C1426 C1425 1.380 . S
C1426 C1427 1.387 . S
C1427 H1383 0.930 . S
C1427 C1422 1.386 . S
C1427 C1426 1.387 . S
C1428 C1397 1.519 . S
C1428 C1429 1.377 . S
C1428 C1433 1.361 . S
C1429 H1384 0.929 . S
C1429 C1428 1.377 . S
C1429 C1430 1.386 . S
C1430 H1385 0.931 . S
C1430 C1429 1.386 . S
C1430 C1431 1.363 . S
C1431 C1430 1.363 . S
C1431 C1432 1.385 . S
C1432 H1386 0.930 . S
C1432 C1431 1.385 . S
C1432 C1433 1.396 . S
C1433 H1387 0.929 . S
C1433 C1428 1.361 . S
C1433 C1432 1.396 . S
C1434 O1388 1.300 . S
C1434 O1389 1.209 . S
C1434 C1407 1.486 . S
C1435 O1390 1.199 . S
C1435 O1391 1.297 . S
C1435 C1419 1.476 . S
H1436 O1462 0.856 . S
H1437 O1465 0.854 . S
H1438 C1473 0.930 . S
H1439 C1474 0.930 . S
H1440 C1476 0.930 . S
H1441 C1477 0.930 . S
H1442 C1479 0.931 . S
H1443 C1480 0.930 . S
H1444 C1482 0.930 . S
H1445 C1483 0.929 . S
H1446 C1485 0.930 . S
H1447 C1486 0.931 . S
H1448 C1488 0.930 . S
H1449 C1489 0.929 . S
H1450 C1491 0.931 . S
H1451 C1492 0.930 . S
H1452 C1494 0.930 . S
H1453 C1495 0.932 . S
H1454 C1497 0.930 . S
H1455 C1498 0.929 . S
H1456 C1500 0.931 . S
H1457 C1501 0.930 . S
H1458 C1503 0.929 . S
H1459 C1504 0.931 . S
H1460 C1506 0.930 . S
H1461 C1507 0.929 . S
O1462 H1436 0.856 . S
O1462 C1508 1.300 . S
O1463 C1508 1.209 . S
O1464 C1509 1.199 . S
O1465 H1437 0.854 . S
O1465 C1509 1.297 . S
C1466 C1467 1.404 . S
C1466 C1471 1.397 . S
C1466 C1472 1.492 . S
C1467 C1466 1.404 . S
C1467 C1468 1.396 . S
C1467 C1478 1.492 . S
C1468 C1467 1.396 . S
C1468 C1469 1.397 . S
C1468 C1484 1.509 . S
C1469 C1468 1.397 . S
C1469 C1470 1.412 . S
C1469 C1490 1.485 . S
C1470 C1469 1.412 . S
C1470 C1471 1.388 . S
C1470 C1496 1.490 . S
C1471 C1466 1.397 . S
C1471 C1470 1.388 . S
C1471 C1502 1.519 . S
C1472 C1466 1.492 . S
C1472 C1473 1.363 . S
C1472 C1477 1.390 . S
C1473 H1438 0.930 . S
C1473 C1472 1.363 . S
C1473 C1474 1.372 . S
C1474 H1439 0.930 . S
C1474 C1473 1.372 . S
C1474 C1475 1.383 . S
C1475 C1474 1.383 . S
C1475 C1476 1.395 . S
C1476 H1440 0.930 . S
C1476 C1475 1.395 . S
C1476 C1477 1.362 . S
C1477 H1441 0.930 . S
C1477 C1472 1.390 . S
C1477 C1476 1.362 . S
C1478 C1467 1.492 . S
C1478 C1479 1.377 . S
C1478 C1483 1.397 . S
C1479 H1442 0.931 . S
C1479 C1478 1.377 . S
C1479 C1480 1.376 . S
C1480 H1443 0.930 . S
C1480 C1479 1.376 . S
C1480 C1481 1.376 . S
C1481 C1480 1.376 . S
C1481 C1482 1.378 . S
C1481 C1508 1.486 . S
C1482 H1444 0.930 . S
C1482 C1481 1.378 . S
C1482 C1483 1.376 . S
C1483 H1445 0.929 . S
C1483 C1478 1.397 . S
C1483 C1482 1.376 . S
C1484 C1468 1.509 . S
C1484 C1485 1.391 . S
C1484 C1489 1.386 . S
C1485 H1446 0.930 . S
C1485 C1484 1.391 . S
C1485 C1486 1.375 . S
C1486 H1447 0.931 . S
C1486 C1485 1.375 . S
C1486 C1487 1.375 . S
C1487 C1486 1.375 . S
C1487 C1488 1.361 . S
C1488 H1448 0.930 . S
C1488 C1487 1.361 . S
C1488 C1489 1.399 . S
C1489 H1449 0.929 . S
C1489 C1484 1.386 . S
C1489 C1488 1.399 . S
C1490 C1469 1.485 . S
C1490 C1491 1.394 . S
C1490 C1495 1.360 . S
C1491 H1450 0.931 . S
C1491 C1490 1.394 . S
C1491 C1492 1.372 . S
C1492 H1451 0.930 . S
C1492 C1491 1.372 . S
C1492 C1493 1.397 . S
C1493 C1492 1.397 . S
C1493 C1494 1.390 . S
C1493 C1509 1.476 . S
C1494 H1452 0.930 . S
C1494 C1493 1.390 . S
C1494 C1495 1.366 . S
C1495 H1453 0.932 . S
C1495 C1490 1.360 . S
C1495 C1494 1.366 . S
C1496 C1470 1.490 . S
C1496 C1497 1.380 . S
C1496 C1501 1.386 . S
C1497 H1454 0.930 . S
C1497 C1496 1.380 . S
C1497 C1498 1.381 . S
C1498 H1455 0.929 . S
C1498 C1497 1.381 . S
C1498 C1499 1.371 . S
C1499 C1498 1.371 . S
C1499 C1500 1.380 . S
C1500 H1456 0.931 . S
C1500 C1499 1.380 . S
C1500 C1501 1.387 . S
C1501 H1457 0.930 . S
C1501 C1496 1.386 . S
C1501 C1500 1.387 . S
C1502 C1471 1.519 . S
C1502 C1503 1.377 . S
C1502 C1507 1.361 . S
C1503 H1458 0.929 . S
C1503 C1502 1.377 . S
C1503 C1504 1.386 . S
C1504 H1459 0.931 . S
C1504 C1503 1.386 . S
C1504 C1505 1.363 . S
C1505 C1504 1.363 . S
C1505 C1506 1.385 . S
C1506 H1460 0.930 . S
C1506 C1505 1.385 . S
C1506 C1507 1.396 . S
C1507 H1461 0.929 . S
C1507 C1502 1.361 . S
C1507 C1506 1.396 . S
C1508 O1462 1.300 . S
C1508 O1463 1.209 . S
C1508 C1481 1.486 . S
C1509 O1464 1.199 . S
C1509 O1465 1.297 . S
C1509 C1493 1.476 . S
H1510 O1536 0.856 . S
H1511 O1539 0.854 . S
H1512 C1547 0.930 . S
H1513 C1548 0.930 . S
H1514 C1550 0.930 . S
H1515 C1551 0.930 . S
H1516 C1553 0.931 . S
H1517 C1554 0.930 . S
H1518 C1556 0.930 . S
H1519 C1557 0.929 . S
H1520 C1559 0.930 . S
H1521 C1560 0.931 . S
H1522 C1562 0.930 . S
H1523 C1563 0.929 . S
H1524 C1565 0.931 . S
H1525 C1566 0.930 . S
H1526 C1568 0.930 . S
H1527 C1569 0.932 . S
H1528 C1571 0.930 . S
H1529 C1572 0.929 . S
H1530 C1574 0.931 . S
H1531 C1575 0.930 . S
H1532 C1577 0.929 . S
H1533 C1578 0.931 . S
H1534 C1580 0.930 . S
H1535 C1581 0.929 . S
O1536 H1510 0.856 . S
O1536 C1582 1.300 . S
O1537 C1582 1.209 . S
O1538 C1583 1.199 . S
O1539 H1511 0.854 . S
O1539 C1583 1.297 . S
C1540 C1541 1.404 . S
C1540 C1545 1.397 . S
C1540 C1546 1.492 . S
C1541 C1540 1.404 . S
C1541 C1542 1.396 . S
C1541 C1552 1.492 . S
C1542 C1541 1.396 . S
C1542 C1543 1.397 . S
C1542 C1558 1.509 . S
C1543 C1542 1.397 . S
C1543 C1544 1.412 . S
C1543 C1564 1.485 . S
C1544 C1543 1.412 . S
C1544 C1545 1.388 . S
C1544 C1570 1.490 . S
C1545 C1540 1.397 . S
C1545 C1544 1.388 . S
C1545 C1576 1.519 . S
C1546 C1540 1.492 . S
C1546 C1547 1.363 . S
C1546 C1551 1.390 . S
C1547 H1512 0.930 . S
C1547 C1546 1.363 . S
C1547 C1548 1.372 . S
C1548 H1513 0.930 . S
C1548 C1547 1.372 . S
C1548 C1549 1.383 . S
C1549 C1548 1.383 . S
C1549 C1550 1.395 . S
C1550 H1514 0.930 . S
C1550 C1549 1.395 . S
C1550 C1551 1.362 . S
C1551 H1515 0.930 . S
C1551 C1546 1.390 . S
C1551 C1550 1.362 . S
C1552 C1541 1.492 . S
C1552 C1553 1.377 . S
C1552 C1557 1.397 . S
C1553 H1516 0.931 . S
C1553 C1552 1.377 . S
C1553 C1554 1.376 . S
C1554 H1517 0.930 . S
C1554 C1553 1.376 . S
C1554 C1555 1.376 . S
C1555 C1554 1.376 . S
C1555 C1556 1.378 . S
C1555 C1582 1.486 . S
C1556 H1518 0.930 . S
C1556 C1555 1.378 . S
C1556 C1557 1.376 . S
C1557 H1519 0.929 . S
C1557 C1552 1.397 . S
C1557 C1556 1.376 . S
C1558 C1542 1.509 . S
C1558 C1559 1.391 . S
C1558 C1563 1.386 . S
C1559 H1520 0.930 . S
C1559 C1558 1.391 . S
C1559 C1560 1.375 . S
C1560 H1521 0.931 . S
C1560 C1559 1.375 . S
C1560 C1561 1.375 . S
C1561 C1560 1.375 . S
C1561 C1562 1.361 . S
C1562 H1522 0.930 . S
C1562 C1561 1.361 . S
C1562 C1563 1.399 . S
C1563 H1523 0.929 . S
C1563 C1558 1.386 . S
C1563 C1562 1.399 . S
C1564 C1543 1.485 . S
C1564 C1565 1.394 . S
C1564 C1569 1.360 . S
C1565 H1524 0.931 . S
C1565 C1564 1.394 . S
C1565 C1566 1.372 . S
C1566 H1525 0.930 . S
C1566 C1565 1.372 . S
C1566 C1567 1.397 . S
C1567 C1566 1.397 . S
C1567 C1568 1.390 . S
C1567 C1583 1.476 . S
C1568 H1526 0.930 . S
C1568 C1567 1.390 . S
C1568 C1569 1.366 . S
C1569 H1527 0.932 . S
C1569 C1564 1.360 . S
C1569 C1568 1.366 . S
C1570 C1544 1.490 . S
C1570 C1571 1.380 . S
C1570 C1575 1.386 . S
C1571 H1528 0.930 . S
C1571 C1570 1.380 . S
C1571 C1572 1.381 . S
C1572 H1529 0.929 . S
C1572 C1571 1.381 . S
C1572 C1573 1.371 . S
C1573 C1572 1.371 . S
C1573 C1574 1.380 . S
C1574 H1530 0.931 . S
C1574 C1573 1.380 . S
C1574 C1575 1.387 . S
C1575 H1531 0.930 . S
C1575 C1570 1.386 . S
C1575 C1574 1.387 . S
C1576 C1545 1.519 . S
C1576 C1577 1.377 . S
C1576 C1581 1.361 . S
C1577 H1532 0.929 . S
C1577 C1576 1.377 . S
C1577 C1578 1.386 . S
C1578 H1533 0.931 . S
C1578 C1577 1.386 . S
C1578 C1579 1.363 . S
C1579 C1578 1.363 . S
C1579 C1580 1.385 . S
C1580 H1534 0.930 . S
C1580 C1579 1.385 . S
C1580 C1581 1.396 . S
C1581 H1535 0.929 . S
C1581 C1576 1.361 . S
C1581 C1580 1.396 . S
C1582 O1536 1.300 . S
C1582 O1537 1.209 . S
C1582 C1555 1.486 . S
C1583 O1538 1.199 . S
C1583 O1539 1.297 . S
C1583 C1567 1.476 . S
H1584 C1590 0.930 . S
H1585 C1593 0.930 . S
H1586 C1594 0.930 . S
H1587 C1595 0.930 1_455 S
H1588 C1598 0.930 . S
H1589 C1599 0.930 . S
C1590 H1584 0.930 . S
C1590 C1591 1.350 . S
C1590 C1592 1.415 . S
C1591 C1590 1.350 . S
C1591 C1593 1.422 1_655 S
C1592 C1590 1.415 . S
C1592 C1597 1.425 . S
C1592 C1599 1.409 . S
C1593 H1585 0.930 . S
C1593 C1591 1.422 1_455 S
C1593 C1594 1.362 . S
C1594 H1586 0.930 . S
C1594 C1593 1.362 . S
C1594 C1597 1.409 1_455 S
C1595 H1587 0.930 1_655 S
C1595 C1596 1.355 . S
C1595 C1597 1.415 . S
C1596 C1595 1.355 . S
C1596 C1598 1.419 . S
C1597 C1592 1.425 . S
C1597 C1594 1.409 1_655 S
C1597 C1595 1.415 . S
C1598 H1588 0.930 . S
C1598 C1596 1.419 . S
C1598 C1599 1.362 . S
C1599 H1589 0.930 . S
C1599 C1592 1.409 . S
C1599 C1598 1.362 . S
H1600 C1606 0.930 . S
H1601 C1609 0.930 . S
H1602 C1610 0.930 . S
H1603 C1611 0.930 . S
H1604 C1614 0.930 . S
H1605 C1615 0.930 . S
C1606 H1600 0.930 . S
C1606 C1607 1.355 . S
C1606 C1608 1.415 . S
C1607 C1606 1.355 . S
C1607 C1609 1.419 . S
C1608 C1606 1.415 . S
C1608 C1613 1.425 . S
C1608 C1615 1.409 . S
C1609 H1601 0.930 . S
C1609 C1607 1.419 . S
C1609 C1610 1.362 . S
C1610 H1602 0.930 . S
C1610 C1609 1.362 . S
C1610 C1613 1.409 . S
C1611 H1603 0.930 . S
C1611 C1612 1.355 . S
C1611 C1613 1.415 . S
C1612 C1611 1.355 . S
C1612 C1614 1.419 . S
C1613 C1608 1.425 . S
C1613 C1610 1.409 . S
C1613 C1611 1.415 . S
C1614 H1604 0.930 . S
C1614 C1612 1.419 . S
C1614 C1615 1.362 . S
C1615 H1605 0.930 . S
C1615 C1608 1.409 . S
C1615 C1614 1.362 . S
H1616 C1622 0.930 . S
H1617 C1625 0.930 . S
H1618 C1626 0.930 . S
H1619 C1627 0.930 . S
H1620 C1630 0.930 . S
H1621 C1631 0.930 . S
C1622 H1616 0.930 . S
C1622 C1623 1.355 . S
C1622 C1624 1.415 . S
C1623 C1622 1.355 . S
C1623 C1625 1.419 . S
C1624 C1622 1.415 . S
C1624 C1629 1.425 . S
C1624 C1631 1.409 . S
C1625 H1617 0.930 . S
C1625 C1623 1.419 . S
C1625 C1626 1.362 . S
C1626 H1618 0.930 . S
C1626 C1625 1.362 . S
C1626 C1629 1.409 . S
C1627 H1619 0.930 . S
C1627 C1628 1.355 . S
C1627 C1629 1.415 . S
C1628 C1627 1.355 . S
C1628 C1630 1.419 . S
C1629 C1624 1.425 . S
C1629 C1626 1.409 . S
C1629 C1627 1.415 . S
C1630 H1620 0.930 . S
C1630 C1628 1.419 . S
C1630 C1631 1.362 . S
C1631 H1621 0.930 . S
C1631 C1624 1.409 . S
C1631 C1630 1.362 . S
H1632 C1638 0.930 . S
H1633 C1641 0.930 . S
H1634 C1642 0.930 . S
H1635 C1643 0.930 . S
H1636 C1646 0.930 . S
H1637 C1647 0.930 . S
C1638 H1632 0.930 . S
C1638 C1639 1.355 . S
C1638 C1640 1.415 . S
C1639 C1638 1.355 . S
C1639 C1641 1.419 . S
C1640 C1638 1.415 . S
C1640 C1645 1.425 . S
C1640 C1647 1.409 . S
C1641 H1633 0.930 . S
C1641 C1639 1.419 . S
C1641 C1642 1.362 . S
C1642 H1634 0.930 . S
C1642 C1641 1.362 . S
C1642 C1645 1.409 . S
C1643 H1635 0.930 . S
C1643 C1644 1.355 . S
C1643 C1645 1.415 . S
C1644 C1643 1.355 . S
C1644 C1646 1.419 . S
C1645 C1640 1.425 . S
C1645 C1642 1.409 . S
C1645 C1643 1.415 . S
C1646 H1636 0.930 . S
C1646 C1644 1.419 . S
C1646 C1647 1.362 . S
C1647 H1637 0.930 . S
C1647 C1640 1.409 . S
C1647 C1646 1.362 . S
H1648 C1654 0.930 . S
H1649 C1657 0.930 . S
H1650 C1658 0.930 . S
H1651 C1659 0.944 . S
H1652 C1662 0.930 . S
H1653 C1663 0.930 . S
C1654 H1648 0.930 . S
C1654 C1655 1.355 . S
C1654 C1656 1.415 . S
C1655 C1654 1.355 . S
C1655 C1657 1.419 1_455 S
C1656 C1654 1.415 . S
C1656 C1661 1.429 . S
C1656 C1663 1.409 . S
C1657 H1649 0.930 . S
C1657 C1655 1.419 1_655 S
C1657 C1658 1.362 . S
C1658 H1650 0.930 . S
C1658 C1657 1.362 . S
C1658 C1661 1.407 1_655 S
C1659 H1651 0.944 . S
C1659 C1660 1.348 1_655 S
C1659 C1661 1.407 1_655 S
C1660 C1659 1.348 1_455 S
C1660 C1662 1.419 . S
C1661 C1656 1.429 . S
C1661 C1658 1.407 1_455 S
C1661 C1659 1.407 1_455 S
C1662 H1652 0.930 . S
C1662 C1660 1.419 . S
C1662 C1663 1.362 . S
C1663 H1653 0.930 . S
C1663 C1656 1.409 . S
C1663 C1662 1.362 . S
H1664 C1670 0.929 . S
H1665 C1673 0.930 . S
H1666 C1674 0.930 . S
H1667 C1675 0.930 . S
H1668 C1678 0.930 . S
H1669 C1679 0.930 . S
C1670 H1664 0.929 . S
C1670 C1671 1.355 1_556 S
C1670 C1672 1.414 . S
C1671 C1670 1.355 1_554 S
C1671 C1673 1.419 . S
C1672 C1670 1.414 . S
C1672 C1677 1.425 . S
C1672 C1679 1.409 . S
C1673 H1665 0.930 . S
C1673 C1671 1.419 . S
C1673 C1674 1.386 . S
C1674 H1666 0.930 . S
C1674 C1673 1.386 . S
C1674 C1677 1.385 1_554 S
C1675 H1667 0.930 . S
C1675 C1676 1.355 . S
C1675 C1677 1.415 . S
C1676 C1675 1.355 . S
C1676 C1678 1.419 . S
C1677 C1672 1.425 . S
C1677 C1674 1.385 1_556 S
C1677 C1675 1.415 . S
C1678 H1668 0.930 . S
C1678 C1676 1.419 . S
C1678 C1679 1.362 . S
C1679 H1669 0.930 . S
C1679 C1672 1.409 . S
C1679 C1678 1.362 . S
H1680 C1686 0.930 . S
H1681 C1689 0.930 . S
H1682 C1690 0.932 . S
H1683 C1691 0.930 . S
H1684 C1694 0.930 . S
H1685 C1695 0.930 . S
C1686 H1680 0.930 . S
C1686 C1687 1.335 1_456 S
C1686 C1688 1.415 . S
C1687 C1686 1.335 1_654 S
C1687 C1689 1.430 . S
C1688 C1686 1.415 . S
C1688 C1693 1.425 1_455 S
C1688 C1695 1.409 . S
C1689 H1681 0.930 . S
C1689 C1687 1.430 . S
C1689 C1690 1.362 1_554 S
C1690 H1682 0.932 . S
C1690 C1689 1.362 1_556 S
C1690 C1693 1.409 . S
C1691 H1683 0.930 . S
C1691 C1692 1.355 1_655 S
C1691 C1693 1.415 . S
C1692 C1691 1.355 1_455 S
C1692 C1694 1.419 . S
C1693 C1688 1.425 1_655 S
C1693 C1690 1.409 . S
C1693 C1691 1.415 . S
C1694 H1684 0.930 . S
C1694 C1692 1.419 . S
C1694 C1695 1.362 . S
C1695 H1685 0.930 . S
C1695 C1688 1.409 . S
C1695 C1694 1.362 . S
H1696 C1702 0.930 . S
H1697 C1705 0.930 . S
H1698 C1706 0.930 . S
H1699 C1707 0.930 . S
H1700 C1710 0.930 . S
H1701 C1711 0.930 . S
C1702 H1696 0.930 . S
C1702 C1703 1.355 . S
C1702 C1704 1.415 . S
C1703 C1702 1.355 . S
C1703 C1705 1.419 . S
C1704 C1702 1.415 . S
C1704 C1709 1.425 . S
C1704 C1711 1.409 . S
C1705 H1697 0.930 . S
C1705 C1703 1.419 . S
C1705 C1706 1.362 . S
C1706 H1698 0.930 . S
C1706 C1705 1.362 . S
C1706 C1709 1.409 . S
C1707 H1699 0.930 . S
C1707 C1708 1.355 . S
C1707 C1709 1.415 . S
C1708 C1707 1.355 . S
C1708 C1710 1.419 . S
C1709 C1704 1.425 . S
C1709 C1706 1.409 . S
C1709 C1707 1.415 . S
C1710 H1700 0.930 . S
C1710 C1708 1.419 . S
C1710 C1711 1.362 . S
C1711 H1701 0.930 . S
C1711 C1704 1.409 . S
C1711 C1710 1.362 . S
H1712 C1718 0.930 . S
H1713 C1721 0.930 . S
H1714 C1722 0.930 1_554 S
H1715 C1723 0.930 . S
H1716 C1726 0.930 . S
H1717 C1727 0.930 . S
C1718 H1712 0.930 . S
C1718 C1719 1.355 1_556 S
C1718 C1720 1.415 . S
C1719 C1718 1.355 1_554 S
C1719 C1721 1.419 1_565 S
C1720 C1718 1.415 . S
C1720 C1725 1.425 1_565 S
C1720 C1727 1.409 . S
C1721 H1713 0.930 . S
C1721 C1719 1.419 1_545 S
C1721 C1722 1.362 1_554 S
C1722 H1714 0.930 1_556 S
C1722 C1721 1.362 1_556 S
C1722 C1725 1.409 . S
C1723 H1715 0.930 . S
C1723 C1724 1.344 1_545 S
C1723 C1725 1.415 . S
C1724 C1723 1.344 1_565 S
C1724 C1726 1.454 . S
C1725 C1720 1.425 1_545 S
C1725 C1722 1.409 . S
C1725 C1723 1.415 . S
C1726 H1716 0.930 . S
C1726 C1724 1.454 . S
C1726 C1727 1.362 . S
C1727 H1717 0.930 . S
C1727 C1720 1.409 . S
C1727 C1726 1.362 . S
H1728 C1734 0.931 . S
H1729 C1737 0.930 . S
H1730 C1738 0.930 . S
H1731 C1739 0.930 . S
H1732 C1742 0.930 . S
H1733 C1743 0.930 . S
C1734 H1728 0.931 . S
C1734 C1735 1.355 . S
C1734 C1736 1.413 . S
C1735 C1734 1.355 . S
C1735 C1737 1.419 . S
C1736 C1734 1.413 . S
C1736 C1741 1.423 . S
C1736 C1743 1.413 1_545 S
C1737 H1729 0.930 . S
C1737 C1735 1.419 . S
C1737 C1738 1.362 . S
C1738 H1730 0.930 . S
C1738 C1737 1.362 . S
C1738 C1741 1.409 . S
C1739 H1731 0.930 . S
C1739 C1740 1.355 1_545 S
C1739 C1741 1.415 . S
C1740 C1739 1.355 1_565 S
C1740 C1742 1.419 . S
C1741 C1736 1.423 . S
C1741 C1738 1.409 . S
C1741 C1739 1.415 . S
C1742 H1732 0.930 . S
C1742 C1740 1.419 . S
C1742 C1743 1.362 . S
C1743 H1733 0.930 . S
C1743 C1736 1.413 1_565 S
C1743 C1742 1.362 . S
H1744 C1750 0.930 . S
H1745 C1753 0.930 . S
H1746 C1754 0.930 . S
H1747 C1755 0.930 . S
H1748 C1758 0.930 . S
H1749 C1759 0.930 . S
C1750 H1744 0.930 . S
C1750 C1751 1.354 . S
C1750 C1752 1.415 . S
C1751 C1750 1.354 . S
C1751 C1753 1.421 1_655 S
C1752 C1750 1.415 . S
C1752 C1757 1.425 1_655 S
C1752 C1759 1.409 . S
C1753 H1745 0.930 . S
C1753 C1751 1.421 1_455 S
C1753 C1754 1.362 . S
C1754 H1746 0.930 . S
C1754 C1753 1.362 . S
C1754 C1757 1.409 . S
C1755 H1747 0.930 . S
C1755 C1756 1.355 1_455 S
C1755 C1757 1.415 . S
C1756 C1755 1.355 1_655 S
C1756 C1758 1.419 . S
C1757 C1752 1.425 1_455 S
C1757 C1754 1.409 . S
C1757 C1755 1.415 . S
C1758 H1748 0.930 . S
C1758 C1756 1.419 . S
C1758 C1759 1.362 . S
C1759 H1749 0.930 . S
C1759 C1752 1.409 . S
C1759 C1758 1.362 . S
H1760 C1766 0.930 . S
H1761 C1769 0.930 . S
H1762 C1770 0.930 . S
H1763 C1771 0.930 . S
H1764 C1774 0.930 . S
H1765 C1775 0.930 . S
C1766 H1760 0.930 . S
C1766 C1767 1.355 . S
C1766 C1768 1.415 . S
C1767 C1766 1.355 . S
C1767 C1769 1.419 . S
C1768 C1766 1.415 . S
C1768 C1773 1.425 . S
C1768 C1775 1.409 . S
C1769 H1761 0.930 . S
C1769 C1767 1.419 . S
C1769 C1770 1.362 . S
C1770 H1762 0.930 . S
C1770 C1769 1.362 . S
C1770 C1773 1.409 . S
C1771 H1763 0.930 . S
C1771 C1772 1.355 . S
C1771 C1773 1.415 . S
C1772 C1771 1.355 . S
C1772 C1774 1.419 . S
C1773 C1768 1.425 . S
C1773 C1770 1.409 . S
C1773 C1771 1.415 . S
C1774 H1764 0.930 . S
C1774 C1772 1.419 . S
C1774 C1775 1.362 . S
C1775 H1765 0.930 . S
C1775 C1768 1.409 . S
C1775 C1774 1.362 . S
H1776 C1782 0.930 . S
H1777 C1785 0.930 . S
H1778 C1786 0.930 . S
H1779 C1787 0.930 . S
H1780 C1790 0.930 . S
H1781 C1791 0.930 . S
C1782 H1776 0.930 . S
C1782 C1783 1.355 . S
C1782 C1784 1.415 . S
C1783 C1782 1.355 . S
C1783 C1785 1.419 . S
C1784 C1782 1.415 . S
C1784 C1789 1.425 . S
C1784 C1791 1.409 . S
C1785 H1777 0.930 . S
C1785 C1783 1.419 . S
C1785 C1786 1.362 . S
C1786 H1778 0.930 . S
C1786 C1785 1.362 . S
C1786 C1789 1.409 . S
C1787 H1779 0.930 . S
C1787 C1788 1.355 . S
C1787 C1789 1.415 . S
C1788 C1787 1.355 . S
C1788 C1790 1.419 . S
C1789 C1784 1.425 . S
C1789 C1786 1.409 . S
C1789 C1787 1.415 . S
C1790 H1780 0.930 . S
C1790 C1788 1.419 . S
C1790 C1791 1.362 . S
C1791 H1781 0.930 . S
C1791 C1784 1.409 . S
C1791 C1790 1.362 . S
H1792 C1798 0.930 . S
H1793 C1801 0.930 . S
H1794 C1802 0.930 . S
H1795 C1803 0.930 . S
H1796 C1806 0.930 . S
H1797 C1807 0.930 . S
C1798 H1792 0.930 . S
C1798 C1799 1.355 . S
C1798 C1800 1.415 . S
C1799 C1798 1.355 . S
C1799 C1801 1.419 . S
C1800 C1798 1.415 . S
C1800 C1805 1.425 . S
C1800 C1807 1.409 . S
C1801 H1793 0.930 . S
C1801 C1799 1.419 . S
C1801 C1802 1.362 . S
C1802 H1794 0.930 . S
C1802 C1801 1.362 . S
C1802 C1805 1.409 . S
C1803 H1795 0.930 . S
C1803 C1804 1.355 . S
C1803 C1805 1.415 . S
C1804 C1803 1.355 . S
C1804 C1806 1.419 . S
C1805 C1800 1.425 . S
C1805 C1802 1.409 . S
C1805 C1803 1.415 . S
C1806 H1796 0.930 . S
C1806 C1804 1.419 . S
C1806 C1807 1.362 . S
C1807 H1797 0.930 . S
C1807 C1800 1.409 . S
C1807 C1806 1.362 . S
H1808 C1814 0.930 . S
H1809 C1817 0.930 . S
H1810 C1818 0.930 . S
H1811 C1819 0.930 . S
H1812 C1822 0.930 . S
H1813 C1823 0.930 . S
C1814 H1808 0.930 . S
C1814 C1815 1.355 . S
C1814 C1816 1.415 . S
C1815 C1814 1.355 . S
C1815 C1817 1.419 . S
C1816 C1814 1.415 . S
C1816 C1821 1.425 . S
C1816 C1823 1.409 . S
C1817 H1809 0.930 . S
C1817 C1815 1.419 . S
C1817 C1818 1.362 . S
C1818 H1810 0.930 . S
C1818 C1817 1.362 . S
C1818 C1821 1.409 . S
C1819 H1811 0.930 . S
C1819 C1820 1.355 . S
C1819 C1821 1.415 . S
C1820 C1819 1.355 . S
C1820 C1822 1.419 . S
C1821 C1816 1.425 . S
C1821 C1818 1.409 . S
C1821 C1819 1.415 . S
C1822 H1812 0.930 . S
C1822 C1820 1.419 . S
C1822 C1823 1.362 . S
C1823 H1813 0.930 . S
C1823 C1816 1.409 . S
C1823 C1822 1.362 . S
H1824 C1830 0.930 . S
H1825 C1833 0.930 . S
H1826 C1834 0.930 . S
H1827 C1835 0.930 . S
H1828 C1838 0.930 . S
H1829 C1839 0.930 . S
C1830 H1824 0.930 . S
C1830 C1831 1.355 . S
C1830 C1832 1.415 . S
C1831 C1830 1.355 . S
C1831 C1833 1.419 . S
C1832 C1830 1.415 . S
C1832 C1837 1.425 . S
C1832 C1839 1.409 . S
C1833 H1825 0.930 . S
C1833 C1831 1.419 . S
C1833 C1834 1.362 . S
C1834 H1826 0.930 . S
C1834 C1833 1.362 . S
C1834 C1837 1.409 . S
C1835 H1827 0.930 . S
C1835 C1836 1.355 . S
C1835 C1837 1.415 . S
C1836 C1835 1.355 . S
C1836 C1838 1.419 . S
C1837 C1832 1.425 . S
C1837 C1834 1.409 . S
C1837 C1835 1.415 . S
C1838 H1828 0.930 . S
C1838 C1836 1.419 . S
C1838 C1839 1.362 . S
C1839 H1829 0.930 . S
C1839 C1832 1.409 . S
C1839 C1838 1.362 . S
H1840 C1846 0.930 . S
H1841 C1849 0.930 . S
H1842 C1850 0.930 . S
H1843 C1851 0.930 . S
H1844 C1854 0.930 . S
H1845 C1855 0.930 . S
C1846 H1840 0.930 . S
C1846 C1847 1.355 . S
C1846 C1848 1.415 . S
C1847 C1846 1.355 . S
C1847 C1849 1.419 . S
C1848 C1846 1.415 . S
C1848 C1853 1.425 . S
C1848 C1855 1.409 . S
C1849 H1841 0.930 . S
C1849 C1847 1.419 . S
C1849 C1850 1.362 . S
C1850 H1842 0.930 . S
C1850 C1849 1.362 . S
C1850 C1853 1.409 . S
C1851 H1843 0.930 . S
C1851 C1852 1.355 . S
C1851 C1853 1.415 . S
C1852 C1851 1.355 . S
C1852 C1854 1.419 . S
C1853 C1848 1.425 . S
C1853 C1850 1.409 . S
C1853 C1851 1.415 . S
C1854 H1844 0.930 . S
C1854 C1852 1.419 . S
C1854 C1855 1.362 . S
C1855 H1845 0.930 . S
C1855 C1848 1.409 . S
C1855 C1854 1.362 . S
H1856 C1862 0.930 . S
H1857 C1865 0.930 . S
H1858 C1866 0.930 . S
H1859 C1867 0.930 . S
H1860 C1870 0.930 . S
H1861 C1871 0.930 . S
C1862 H1856 0.930 . S
C1862 C1863 1.355 . S
C1862 C1864 1.415 . S
C1863 C1862 1.355 . S
C1863 C1865 1.419 . S
C1864 C1862 1.415 . S
C1864 C1869 1.425 . S
C1864 C1871 1.409 . S
C1865 H1857 0.930 . S
C1865 C1863 1.419 . S
C1865 C1866 1.362 . S
C1866 H1858 0.930 . S
C1866 C1865 1.362 . S
C1866 C1869 1.409 . S
C1867 H1859 0.930 . S
C1867 C1868 1.355 . S
C1867 C1869 1.415 . S
C1868 C1867 1.355 . S
C1868 C1870 1.419 . S
C1869 C1864 1.425 . S
C1869 C1866 1.409 . S
C1869 C1867 1.415 . S
C1870 H1860 0.930 . S
C1870 C1868 1.419 . S
C1870 C1871 1.362 . S
C1871 H1861 0.930 . S
C1871 C1864 1.409 . S
C1871 C1870 1.362 . S
H1872 C1878 0.930 . S
H1873 C1881 0.930 . S
H1874 C1882 0.930 . S
H1875 C1883 0.930 . S
H1876 C1886 0.930 . S
H1877 C1887 0.930 . S
C1878 H1872 0.930 . S
C1878 C1879 1.355 . S
C1878 C1880 1.415 . S
C1879 C1878 1.355 . S
C1879 C1881 1.419 . S
C1880 C1878 1.415 . S
C1880 C1885 1.425 . S
C1880 C1887 1.409 . S
C1881 H1873 0.930 . S
C1881 C1879 1.419 . S
C1881 C1882 1.362 . S
C1882 H1874 0.930 . S
C1882 C1881 1.362 . S
C1882 C1885 1.409 . S
C1883 H1875 0.930 . S
C1883 C1884 1.355 . S
C1883 C1885 1.415 . S
C1884 C1883 1.355 . S
C1884 C1886 1.419 . S
C1885 C1880 1.425 . S
C1885 C1882 1.409 . S
C1885 C1883 1.415 . S
C1886 H1876 0.930 . S
C1886 C1884 1.419 . S
C1886 C1887 1.362 . S
C1887 H1877 0.930 . S
C1887 C1880 1.409 . S
C1887 C1886 1.362 . S
H1888 C1894 0.930 . S
H1889 C1897 0.930 . S
H1890 C1898 0.930 . S
H1891 C1899 0.930 . S
H1892 C1902 0.930 . S
H1893 C1903 0.930 . S
C1894 H1888 0.930 . S
C1894 C1895 1.355 . S
C1894 C1896 1.415 . S
C1895 C1894 1.355 . S
C1895 C1897 1.419 . S
C1896 C1894 1.415 . S
C1896 C1901 1.425 . S
C1896 C1903 1.409 . S
C1897 H1889 0.930 . S
C1897 C1895 1.419 . S
C1897 C1898 1.362 . S
C1898 H1890 0.930 . S
C1898 C1897 1.362 . S
C1898 C1901 1.409 . S
C1899 H1891 0.930 . S
C1899 C1900 1.355 . S
C1899 C1901 1.415 . S
C1900 C1899 1.355 . S
C1900 C1902 1.419 . S
C1901 C1896 1.425 . S
C1901 C1898 1.409 . S
C1901 C1899 1.415 . S
C1902 H1892 0.930 . S
C1902 C1900 1.419 . S
C1902 C1903 1.362 . S
C1903 H1893 0.930 . S
C1903 C1896 1.409 . S
C1903 C1902 1.362 . S
H1904 C1910 0.930 . S
H1905 C1913 0.930 . S
H1906 C1914 0.930 . S
H1907 C1915 0.930 . S
H1908 C1918 0.930 . S
H1909 C1919 0.930 . S
C1910 H1904 0.930 . S
C1910 C1911 1.355 . S
C1910 C1912 1.415 . S
C1911 C1910 1.355 . S
C1911 C1913 1.419 . S
C1912 C1910 1.415 . S
C1912 C1917 1.425 . S
C1912 C1919 1.409 . S
C1913 H1905 0.930 . S
C1913 C1911 1.419 . S
C1913 C1914 1.362 . S
C1914 H1906 0.930 . S
C1914 C1913 1.362 . S
C1914 C1917 1.409 . S
C1915 H1907 0.930 . S
C1915 C1916 1.355 . S
C1915 C1917 1.415 . S
C1916 C1915 1.355 . S
C1916 C1918 1.419 . S
C1917 C1912 1.425 . S
C1917 C1914 1.409 . S
C1917 C1915 1.415 . S
C1918 H1908 0.930 . S
C1918 C1916 1.419 . S
C1918 C1919 1.362 . S
C1919 H1909 0.930 . S
C1919 C1912 1.409 . S
C1919 C1918 1.362 . S
H1920 C1926 0.930 . S
H1921 C1929 0.930 . S
H1922 C1930 0.930 . S
H1923 C1931 0.930 . S
H1924 C1934 0.930 . S
H1925 C1935 0.930 . S
C1926 H1920 0.930 . S
C1926 C1927 1.355 . S
C1926 C1928 1.415 . S
C1927 C1926 1.355 . S
C1927 C1929 1.419 . S
C1928 C1926 1.415 . S
C1928 C1933 1.425 . S
C1928 C1935 1.409 . S
C1929 H1921 0.930 . S
C1929 C1927 1.419 . S
C1929 C1930 1.362 . S
C1930 H1922 0.930 . S
C1930 C1929 1.362 . S
C1930 C1933 1.409 . S
C1931 H1923 0.930 . S
C1931 C1932 1.355 . S
C1931 C1933 1.415 . S
C1932 C1931 1.355 . S
C1932 C1934 1.419 . S
C1933 C1928 1.425 . S
C1933 C1930 1.409 . S
C1933 C1931 1.415 . S
C1934 H1924 0.930 . S
C1934 C1932 1.419 . S
C1934 C1935 1.362 . S
C1935 H1925 0.930 . S
C1935 C1928 1.409 . S
C1935 C1934 1.362 . S
H1936 C1942 0.930 . S
H1937 C1945 0.930 . S
H1938 C1946 0.930 . S
H1939 C1947 0.930 . S
H1940 C1950 0.930 . S
H1941 C1951 0.930 . S
C1942 H1936 0.930 . S
C1942 C1943 1.355 . S
C1942 C1944 1.415 . S
C1943 C1942 1.355 . S
C1943 C1945 1.419 . S
C1944 C1942 1.415 . S
C1944 C1949 1.425 . S
C1944 C1951 1.409 . S
C1945 H1937 0.930 . S
C1945 C1943 1.419 . S
C1945 C1946 1.362 . S
C1946 H1938 0.930 . S
C1946 C1945 1.362 . S
C1946 C1949 1.409 . S
C1947 H1939 0.930 . S
C1947 C1948 1.355 . S
C1947 C1949 1.415 . S
C1948 C1947 1.355 . S
C1948 C1950 1.419 . S
C1949 C1944 1.425 . S
C1949 C1946 1.409 . S
C1949 C1947 1.415 . S
C1950 H1940 0.930 . S
C1950 C1948 1.419 . S
C1950 C1951 1.362 . S
C1951 H1941 0.930 . S
C1951 C1944 1.409 . S
C1951 C1950 1.362 . S
H1952 C1958 0.930 . S
H1953 C1961 0.930 . S
H1954 C1962 0.930 . S
H1955 C1963 0.930 . S
H1956 C1966 0.930 . S
H1957 C1967 0.930 . S
C1958 H1952 0.930 . S
C1958 C1959 1.355 . S
C1958 C1960 1.415 . S
C1959 C1958 1.355 . S
C1959 C1961 1.419 . S
C1960 C1958 1.415 . S
C1960 C1965 1.425 . S
C1960 C1967 1.409 . S
C1961 H1953 0.930 . S
C1961 C1959 1.419 . S
C1961 C1962 1.362 . S
C1962 H1954 0.930 . S
C1962 C1961 1.362 . S
C1962 C1965 1.409 . S
C1963 H1955 0.930 . S
C1963 C1964 1.355 . S
C1963 C1965 1.415 . S
C1964 C1963 1.355 . S
C1964 C1966 1.419 . S
C1965 C1960 1.425 . S
C1965 C1962 1.409 . S
C1965 C1963 1.415 . S
C1966 H1956 0.930 . S
C1966 C1964 1.419 . S
C1966 C1967 1.362 . S
C1967 H1957 0.930 . S
C1967 C1960 1.409 . S
C1967 C1966 1.362 . S
H1968 C1974 0.930 . S
H1969 C1977 0.930 . S
H1970 C1978 0.930 . S
H1971 C1979 0.930 . S
H1972 C1982 0.930 . S
H1973 C1983 0.930 . S
C1974 H1968 0.930 . S
C1974 C1975 1.355 . S
C1974 C1976 1.415 . S
C1975 C1974 1.355 . S
C1975 C1977 1.419 . S
C1976 C1974 1.415 . S
C1976 C1981 1.425 . S
C1976 C1983 1.409 . S
C1977 H1969 0.930 . S
C1977 C1975 1.419 . S
C1977 C1978 1.362 . S
C1978 H1970 0.930 . S
C1978 C1977 1.362 . S
C1978 C1981 1.409 . S
C1979 H1971 0.930 . S
C1979 C1980 1.355 . S
C1979 C1981 1.415 . S
C1980 C1979 1.355 . S
C1980 C1982 1.419 . S
C1981 C1976 1.425 . S
C1981 C1978 1.409 . S
C1981 C1979 1.415 . S
C1982 H1972 0.930 . S
C1982 C1980 1.419 . S
C1982 C1983 1.362 . S
C1983 H1973 0.930 . S
C1983 C1976 1.409 . S
C1983 C1982 1.362 . S
H1984 C1990 0.930 . S
H1985 C1993 0.930 . S
H1986 C1994 0.930 . S
H1987 C1995 0.930 . S
H1988 C1998 0.930 . S
H1989 C1999 0.930 . S
C1990 H1984 0.930 . S
C1990 C1991 1.355 . S
C1990 C1992 1.415 . S
C1991 C1990 1.355 . S
C1991 C1993 1.419 . S
C1992 C1990 1.415 . S
C1992 C1997 1.425 . S
C1992 C1999 1.409 . S
C1993 H1985 0.930 . S
C1993 C1991 1.419 . S
C1993 C1994 1.362 . S
C1994 H1986 0.930 . S
C1994 C1993 1.362 . S
C1994 C1997 1.409 . S
C1995 H1987 0.930 . S
C1995 C1996 1.355 . S
C1995 C1997 1.415 . S
C1996 C1995 1.355 . S
C1996 C1998 1.419 . S
C1997 C1992 1.425 . S
C1997 C1994 1.409 . S
C1997 C1995 1.415 . S
C1998 H1988 0.930 . S
C1998 C1996 1.419 . S
C1998 C1999 1.362 . S
C1999 H1989 0.930 . S
C1999 C1992 1.409 . S
C1999 C1998 1.362 . S
H2000 C2006 0.930 . S
H2001 C2009 0.930 . S
H2002 C2010 0.930 . S
H2003 C2011 0.930 . S
H2004 C2014 0.930 . S
H2005 C2015 0.930 . S
C2006 H2000 0.930 . S
C2006 C2007 1.355 . S
C2006 C2008 1.415 . S
C2007 C2006 1.355 . S
C2007 C2009 1.419 . S
C2008 C2006 1.415 . S
C2008 C2013 1.425 . S
C2008 C2015 1.409 . S
C2009 H2001 0.930 . S
C2009 C2007 1.419 . S
C2009 C2010 1.362 . S
C2010 H2002 0.930 . S
C2010 C2009 1.362 . S
C2010 C2013 1.409 . S
C2011 H2003 0.930 . S
C2011 C2012 1.355 . S
C2011 C2013 1.415 . S
C2012 C2011 1.355 . S
C2012 C2014 1.419 . S
C2013 C2008 1.425 . S
C2013 C2010 1.409 . S
C2013 C2011 1.415 . S
C2014 H2004 0.930 . S
C2014 C2012 1.419 . S
C2014 C2015 1.362 . S
C2015 H2005 0.930 . S
C2015 C2008 1.409 . S
C2015 C2014 1.362 . S
H2016 C2022 0.930 . S
H2017 C2025 0.930 . S
H2018 C2026 0.930 . S
H2019 C2027 0.930 . S
H2020 C2030 0.930 . S
H2021 C2031 0.930 . S
C2022 H2016 0.930 . S
C2022 C2023 1.355 . S
C2022 C2024 1.415 . S
C2023 C2022 1.355 . S
C2023 C2025 1.419 . S
C2024 C2022 1.415 . S
C2024 C2029 1.425 . S
C2024 C2031 1.409 . S
C2025 H2017 0.930 . S
C2025 C2023 1.419 . S
C2025 C2026 1.362 . S
C2026 H2018 0.930 . S
C2026 C2025 1.362 . S
C2026 C2029 1.409 . S
C2027 H2019 0.930 . S
C2027 C2028 1.355 . S
C2027 C2029 1.415 . S
C2028 C2027 1.355 . S
C2028 C2030 1.419 . S
C2029 C2024 1.425 . S
C2029 C2026 1.409 . S
C2029 C2027 1.415 . S
C2030 H2020 0.930 . S
C2030 C2028 1.419 . S
C2030 C2031 1.362 . S
C2031 H2021 0.930 . S
C2031 C2024 1.409 . S
C2031 C2030 1.362 . S
H2032 C2038 0.930 . S
H2033 C2041 0.930 . S
H2034 C2042 0.930 . S
H2035 C2043 0.930 . S
H2036 C2046 0.930 . S
H2037 C2047 0.930 . S
C2038 H2032 0.930 . S
C2038 C2039 1.355 . S
C2038 C2040 1.415 . S
C2039 C2038 1.355 . S
C2039 C2041 1.419 . S
C2040 C2038 1.415 . S
C2040 C2045 1.425 . S
C2040 C2047 1.409 . S
C2041 H2033 0.930 . S
C2041 C2039 1.419 . S
C2041 C2042 1.362 . S
C2042 H2034 0.930 . S
C2042 C2041 1.362 . S
C2042 C2045 1.409 . S
C2043 H2035 0.930 . S
C2043 C2044 1.355 . S
C2043 C2045 1.415 . S
C2044 C2043 1.355 . S
C2044 C2046 1.419 . S
C2045 C2040 1.425 . S
C2045 C2042 1.409 . S
C2045 C2043 1.415 . S
C2046 H2036 0.930 . S
C2046 C2044 1.419 . S
C2046 C2047 1.362 . S
C2047 H2037 0.930 . S
C2047 C2040 1.409 . S
C2047 C2046 1.362 . S
H2048 C2054 0.930 . S
H2049 C2057 0.930 . S
H2050 C2058 0.930 . S
H2051 C2059 0.930 . S
H2052 C2062 0.930 . S
H2053 C2063 0.930 . S
C2054 H2048 0.930 . S
C2054 C2055 1.355 . S
C2054 C2056 1.415 . S
C2055 C2054 1.355 . S
C2055 C2057 1.419 . S
C2056 C2054 1.415 . S
C2056 C2061 1.425 . S
C2056 C2063 1.409 . S
C2057 H2049 0.930 . S
C2057 C2055 1.419 . S
C2057 C2058 1.362 . S
C2058 H2050 0.930 . S
C2058 C2057 1.362 . S
C2058 C2061 1.409 . S
C2059 H2051 0.930 . S
C2059 C2060 1.355 . S
C2059 C2061 1.415 . S
C2060 C2059 1.355 . S
C2060 C2062 1.419 . S
C2061 C2056 1.425 . S
C2061 C2058 1.409 . S
C2061 C2059 1.415 . S
C2062 H2052 0.930 . S
C2062 C2060 1.419 . S
C2062 C2063 1.362 . S
C2063 H2053 0.930 . S
C2063 C2056 1.409 . S
C2063 C2062 1.362 . S
H2064 C2070 0.930 . S
H2065 C2073 0.930 . S
H2066 C2074 0.930 . S
H2067 C2075 0.930 . S
H2068 C2078 0.930 . S
H2069 C2079 0.930 . S
C2070 H2064 0.930 . S
C2070 C2071 1.355 . S
C2070 C2072 1.415 . S
C2071 C2070 1.355 . S
C2071 C2073 1.419 . S
C2072 C2070 1.415 . S
C2072 C2077 1.425 . S
C2072 C2079 1.409 . S
C2073 H2065 0.930 . S
C2073 C2071 1.419 . S
C2073 C2074 1.362 . S
C2074 H2066 0.930 . S
C2074 C2073 1.362 . S
C2074 C2077 1.409 . S
C2075 H2067 0.930 . S
C2075 C2076 1.355 . S
C2075 C2077 1.415 . S
C2076 C2075 1.355 . S
C2076 C2078 1.419 . S
C2077 C2072 1.425 . S
C2077 C2074 1.409 . S
C2077 C2075 1.415 . S
C2078 H2068 0.930 . S
C2078 C2076 1.419 . S
C2078 C2079 1.362 . S
C2079 H2069 0.930 . S
C2079 C2072 1.409 . S
C2079 C2078 1.362 . S
H2080 C2086 0.930 . S
H2081 C2089 0.930 . S
H2082 C2090 0.930 . S
H2083 C2091 0.930 . S
H2084 C2094 0.930 . S
H2085 C2095 0.930 . S
C2086 H2080 0.930 . S
C2086 C2087 1.355 . S
C2086 C2088 1.415 . S
C2087 C2086 1.355 . S
C2087 C2089 1.419 . S
C2088 C2086 1.415 . S
C2088 C2093 1.425 . S
C2088 C2095 1.409 . S
C2089 H2081 0.930 . S
C2089 C2087 1.419 . S
C2089 C2090 1.362 . S
C2090 H2082 0.930 . S
C2090 C2089 1.362 . S
C2090 C2093 1.409 . S
C2091 H2083 0.930 . S
C2091 C2092 1.355 . S
C2091 C2093 1.415 . S
C2092 C2091 1.355 . S
C2092 C2094 1.419 . S
C2093 C2088 1.425 . S
C2093 C2090 1.409 . S
C2093 C2091 1.415 . S
C2094 H2084 0.930 . S
C2094 C2092 1.419 . S
C2094 C2095 1.362 . S
C2095 H2085 0.930 . S
C2095 C2088 1.409 . S
C2095 C2094 1.362 . S
H2096 C2102 0.930 . S
H2097 C2105 0.930 . S
H2098 C2106 0.930 . S
H2099 C2107 0.930 . S
H2100 C2110 0.930 . S
H2101 C2111 0.930 . S
C2102 H2096 0.930 . S
C2102 C2103 1.355 . S
C2102 C2104 1.415 . S
C2103 C2102 1.355 . S
C2103 C2105 1.419 . S
C2104 C2102 1.415 . S
C2104 C2109 1.425 . S
C2104 C2111 1.409 . S
C2105 H2097 0.930 . S
C2105 C2103 1.419 . S
C2105 C2106 1.362 . S
C2106 H2098 0.930 . S
C2106 C2105 1.362 . S
C2106 C2109 1.409 . S
C2107 H2099 0.930 . S
C2107 C2108 1.355 . S
C2107 C2109 1.415 . S
C2108 C2107 1.355 . S
C2108 C2110 1.419 . S
C2109 C2104 1.425 . S
C2109 C2106 1.409 . S
C2109 C2107 1.415 . S
C2110 H2100 0.930 . S
C2110 C2108 1.419 . S
C2110 C2111 1.362 . S
C2111 H2101 0.930 . S
C2111 C2104 1.409 . S
C2111 C2110 1.362 . S
H2112 C2118 0.930 . S
H2113 C2121 0.930 . S
H2114 C2122 0.930 . S
H2115 C2123 0.930 . S
H2116 C2126 0.930 . S
H2117 C2127 0.930 . S
C2118 H2112 0.930 . S
C2118 C2119 1.355 . S
C2118 C2120 1.415 . S
C2119 C2118 1.355 . S
C2119 C2121 1.419 . S
C2120 C2118 1.415 . S
C2120 C2125 1.425 . S
C2120 C2127 1.409 . S
C2121 H2113 0.930 . S
C2121 C2119 1.419 . S
C2121 C2122 1.362 . S
C2122 H2114 0.930 . S
C2122 C2121 1.362 . S
C2122 C2125 1.409 . S
C2123 H2115 0.930 . S
C2123 C2124 1.355 . S
C2123 C2125 1.415 . S
C2124 C2123 1.355 . S
C2124 C2126 1.419 . S
C2125 C2120 1.425 . S
C2125 C2122 1.409 . S
C2125 C2123 1.415 . S
C2126 H2116 0.930 . S
C2126 C2124 1.419 . S
C2126 C2127 1.362 . S
C2127 H2117 0.930 . S
C2127 C2120 1.409 . S
C2127 C2126 1.362 . S
H2128 C2134 0.930 . S
H2129 C2137 0.930 . S
H2130 C2138 0.930 . S
H2131 C2139 0.930 . S
H2132 C2142 0.930 . S
H2133 C2143 0.930 . S
C2134 H2128 0.930 . S
C2134 C2135 1.355 . S
C2134 C2136 1.415 . S
C2135 C2134 1.355 . S
C2135 C2137 1.419 . S
C2136 C2134 1.415 . S
C2136 C2141 1.425 . S
C2136 C2143 1.409 . S
C2137 H2129 0.930 . S
C2137 C2135 1.419 . S
C2137 C2138 1.362 . S
C2138 H2130 0.930 . S
C2138 C2137 1.362 . S
C2138 C2141 1.409 . S
C2139 H2131 0.930 . S
C2139 C2140 1.355 . S
C2139 C2141 1.415 . S
C2140 C2139 1.355 . S
C2140 C2142 1.419 . S
C2141 C2136 1.425 . S
C2141 C2138 1.409 . S
C2141 C2139 1.415 . S
C2142 H2132 0.930 . S
C2142 C2140 1.419 . S
C2142 C2143 1.362 . S
C2143 H2133 0.930 . S
C2143 C2136 1.409 . S
C2143 C2142 1.362 . S
H2144 C2150 0.930 . S
H2145 C2153 0.930 . S
H2146 C2154 0.930 . S
H2147 C2155 0.930 . S
H2148 C2158 0.930 . S
H2149 C2159 0.930 . S
C2150 H2144 0.930 . S
C2150 C2151 1.355 . S
C2150 C2152 1.415 . S
C2151 C2150 1.355 . S
C2151 C2153 1.419 . S
C2152 C2150 1.415 . S
C2152 C2157 1.425 . S
C2152 C2159 1.409 . S
C2153 H2145 0.930 . S
C2153 C2151 1.419 . S
C2153 C2154 1.362 . S
C2154 H2146 0.930 . S
C2154 C2153 1.362 . S
C2154 C2157 1.409 . S
C2155 H2147 0.930 . S
C2155 C2156 1.355 . S
C2155 C2157 1.415 . S
C2156 C2155 1.355 . S
C2156 C2158 1.419 . S
C2157 C2152 1.425 . S
C2157 C2154 1.409 . S
C2157 C2155 1.415 . S
C2158 H2148 0.930 . S
C2158 C2156 1.419 . S
C2158 C2159 1.362 . S
C2159 H2149 0.930 . S
C2159 C2152 1.409 . S
C2159 C2158 1.362 . S
H2160 C2166 0.930 . S
H2161 C2169 0.930 . S
H2162 C2170 0.930 . S
H2163 C2171 0.930 . S
H2164 C2174 0.930 . S
H2165 C2175 0.930 . S
C2166 H2160 0.930 . S
C2166 C2167 1.355 . S
C2166 C2168 1.415 . S
C2167 C2166 1.355 . S
C2167 C2169 1.419 . S
C2168 C2166 1.415 . S
C2168 C2173 1.425 . S
C2168 C2175 1.409 . S
C2169 H2161 0.930 . S
C2169 C2167 1.419 . S
C2169 C2170 1.362 . S
C2170 H2162 0.930 . S
C2170 C2169 1.362 . S
C2170 C2173 1.409 . S
C2171 H2163 0.930 . S
C2171 C2172 1.355 . S
C2171 C2173 1.415 . S
C2172 C2171 1.355 . S
C2172 C2174 1.419 . S
C2173 C2168 1.425 . S
C2173 C2170 1.409 . S
C2173 C2171 1.415 . S
C2174 H2164 0.930 . S
C2174 C2172 1.419 . S
C2174 C2175 1.362 . S
C2175 H2165 0.930 . S
C2175 C2168 1.409 . S
C2175 C2174 1.362 . S
H2176 C2182 0.930 . S
H2177 C2185 0.930 . S
H2178 C2186 0.930 . S
H2179 C2187 0.930 . S
H2180 C2190 0.930 . S
H2181 C2191 0.930 . S
C2182 H2176 0.930 . S
C2182 C2183 1.355 . S
C2182 C2184 1.415 . S
C2183 C2182 1.355 . S
C2183 C2185 1.419 . S
C2184 C2182 1.415 . S
C2184 C2189 1.425 . S
C2184 C2191 1.409 . S
C2185 H2177 0.930 . S
C2185 C2183 1.419 . S
C2185 C2186 1.362 . S
C2186 H2178 0.930 . S
C2186 C2185 1.362 . S
C2186 C2189 1.409 . S
C2187 H2179 0.930 . S
C2187 C2188 1.355 . S
C2187 C2189 1.415 . S
C2188 C2187 1.355 . S
C2188 C2190 1.419 . S
C2189 C2184 1.425 . S
C2189 C2186 1.409 . S
C2189 C2187 1.415 . S
C2190 H2180 0.930 . S
C2190 C2188 1.419 . S
C2190 C2191 1.362 . S
C2191 H2181 0.930 . S
C2191 C2184 1.409 . S
C2191 C2190 1.362 . S
H2192 C2198 0.930 . S
H2193 C2201 0.930 . S
H2194 C2202 0.930 . S
H2195 C2203 0.930 . S
H2196 C2206 0.930 . S
H2197 C2207 0.930 . S
C2198 H2192 0.930 . S
C2198 C2199 1.355 . S
C2198 C2200 1.415 . S
C2199 C2198 1.355 . S
C2199 C2201 1.419 . S
C2200 C2198 1.415 . S
C2200 C2205 1.425 . S
C2200 C2207 1.409 . S
C2201 H2193 0.930 . S
C2201 C2199 1.419 . S
C2201 C2202 1.362 . S
C2202 H2194 0.930 . S
C2202 C2201 1.362 . S
C2202 C2205 1.409 . S
C2203 H2195 0.930 . S
C2203 C2204 1.355 . S
C2203 C2205 1.415 . S
C2204 C2203 1.355 . S
C2204 C2206 1.419 . S
C2205 C2200 1.425 . S
C2205 C2202 1.409 . S
C2205 C2203 1.415 . S
C2206 H2196 0.930 . S
C2206 C2204 1.419 . S
C2206 C2207 1.362 . S
C2207 H2197 0.930 . S
C2207 C2200 1.409 . S
C2207 C2206 1.362 . S
H2208 C2214 0.900 1_554 S
H2209 C2217 0.930 . S
H2210 C2218 0.930 . S
H2211 C2219 0.930 . S
H2212 C2222 0.930 . S
H2213 C2223 0.930 . S
C2214 H2208 0.900 1_556 S
C2214 C2215 1.355 . S
C2214 C2216 1.415 . S
C2215 C2214 1.355 . S
C2215 C2217 1.419 . S
C2216 C2214 1.415 . S
C2216 C2221 1.425 . S
C2216 C2223 1.409 . S
C2217 H2209 0.930 . S
C2217 C2215 1.419 . S
C2217 C2218 1.362 . S
C2218 H2210 0.930 . S
C2218 C2217 1.362 . S
C2218 C2221 1.409 . S
C2219 H2211 0.930 . S
C2219 C2220 1.355 . S
C2219 C2221 1.415 . S
C2220 C2219 1.355 . S
C2220 C2222 1.419 . S
C2221 C2216 1.425 . S
C2221 C2218 1.409 . S
C2221 C2219 1.415 . S
C2222 H2212 0.930 . S
C2222 C2220 1.419 . S
C2222 C2223 1.362 . S
C2223 H2213 0.930 . S
C2223 C2216 1.409 . S
C2223 C2222 1.362 . S
H2224 C2230 0.930 . S
H2225 C2233 0.930 . S
H2226 C2234 0.930 . S
H2227 C2235 0.930 . S
H2228 C2238 0.930 . S
H2229 C2239 0.930 . S
C2230 H2224 0.930 . S
C2230 C2231 1.355 . S
C2230 C2232 1.415 . S
C2231 C2230 1.355 . S
C2231 C2233 1.419 . S
C2232 C2230 1.415 . S
C2232 C2237 1.425 . S
C2232 C2239 1.409 . S
C2233 H2225 0.930 . S
C2233 C2231 1.419 . S
C2233 C2234 1.362 . S
C2234 H2226 0.930 . S
C2234 C2233 1.362 . S
C2234 C2237 1.409 . S
C2235 H2227 0.930 . S
C2235 C2236 1.355 . S
C2235 C2237 1.415 . S
C2236 C2235 1.355 . S
C2236 C2238 1.419 . S
C2237 C2232 1.425 . S
C2237 C2234 1.409 . S
C2237 C2235 1.415 . S
C2238 H2228 0.930 . S
C2238 C2236 1.419 . S
C2238 C2239 1.362 . S
C2239 H2229 0.930 . S
C2239 C2232 1.409 . S
C2239 C2238 1.362 . S
H2240 C2246 0.930 . S
H2241 C2249 0.932 . S
H2242 C2250 0.930 . S
H2243 C2251 0.930 . S
H2244 C2254 0.934 . S
H2245 C2255 0.930 . S
C2246 H2240 0.930 . S
C2246 C2247 1.355 . S
C2246 C2248 1.415 . S
C2247 C2246 1.355 . S
C2247 C2249 1.419 . S
C2248 C2246 1.415 . S
C2248 C2253 1.425 1_554 S
C2248 C2255 1.409 . S
C2249 H2241 0.932 . S
C2249 C2247 1.419 . S
C2249 C2250 1.362 1_554 S
C2250 H2242 0.930 . S
C2250 C2249 1.362 1_556 S
C2250 C2253 1.409 . S
C2251 H2243 0.930 . S
C2251 C2252 1.355 . S
C2251 C2253 1.415 . S
C2252 C2251 1.355 . S
C2252 C2254 1.419 . S
C2253 C2248 1.425 1_556 S
C2253 C2250 1.409 . S
C2253 C2251 1.415 . S
C2254 H2244 0.934 . S
C2254 C2252 1.419 . S
C2254 C2255 1.362 1_556 S
C2255 H2245 0.930 . S
C2255 C2248 1.409 . S
C2255 C2254 1.362 1_554 S
H2256 C2262 0.930 . S
H2257 C2265 0.930 . S
H2258 C2266 0.930 . S
H2259 C2267 0.930 . S
H2260 C2270 0.930 . S
H2261 C2271 0.930 . S
C2262 H2256 0.930 . S
C2262 C2263 1.355 . S
C2262 C2264 1.415 . S
C2263 C2262 1.355 . S
C2263 C2265 1.419 1_556 S
C2264 C2262 1.415 . S
C2264 C2269 1.425 . S
C2264 C2271 1.409 . S
C2265 H2257 0.930 . S
C2265 C2263 1.419 1_554 S
C2265 C2266 1.362 1_554 S
C2266 H2258 0.930 . S
C2266 C2265 1.362 1_556 S
C2266 C2269 1.409 . S
C2267 H2259 0.930 . S
C2267 C2268 1.355 . S
C2267 C2269 1.415 . S
C2268 C2267 1.355 . S
C2268 C2270 1.419 . S
C2269 C2264 1.425 . S
C2269 C2266 1.409 . S
C2269 C2267 1.415 . S
C2270 H2260 0.930 . S
C2270 C2268 1.419 . S
C2270 C2271 1.362 . S
C2271 H2261 0.930 . S
C2271 C2264 1.409 . S
C2271 C2270 1.362 . S
H2272 C2278 0.930 . S
H2273 C2281 0.930 . S
H2274 C2282 0.930 . S
H2275 C2283 0.930 . S
H2276 C2286 0.930 . S
H2277 C2287 0.930 . S
C2278 H2272 0.930 . S
C2278 C2279 1.355 . S
C2278 C2280 1.415 . S
C2279 C2278 1.355 . S
C2279 C2281 1.419 . S
C2280 C2278 1.415 . S
C2280 C2285 1.425 . S
C2280 C2287 1.409 . S
C2281 H2273 0.930 . S
C2281 C2279 1.419 . S
C2281 C2282 1.362 . S
C2282 H2274 0.930 . S
C2282 C2281 1.362 . S
C2282 C2285 1.409 . S
C2283 H2275 0.930 . S
C2283 C2284 1.355 . S
C2283 C2285 1.415 . S
C2284 C2283 1.355 . S
C2284 C2286 1.419 . S
C2285 C2280 1.425 . S
C2285 C2282 1.409 . S
C2285 C2283 1.415 . S
C2286 H2276 0.930 . S
C2286 C2284 1.419 . S
C2286 C2287 1.362 . S
C2287 H2277 0.930 . S
C2287 C2280 1.409 . S
C2287 C2286 1.362 . S
H2288 C2294 0.930 . S
H2289 C2297 0.930 1_554 S
H2290 C2298 0.930 . S
H2291 C2299 0.930 . S
H2292 C2302 0.930 . S
H2293 C2303 0.930 . S
C2294 H2288 0.930 . S
C2294 C2295 1.355 1_556 S
C2294 C2296 1.415 . S
C2295 C2294 1.355 1_554 S
C2295 C2297 1.419 1_554 S
C2296 C2294 1.415 . S
C2296 C2301 1.425 . S
C2296 C2303 1.409 . S
C2297 H2289 0.930 1_556 S
C2297 C2295 1.419 1_556 S
C2297 C2298 1.362 . S
C2298 H2290 0.930 . S
C2298 C2297 1.362 . S
C2298 C2301 1.409 . S
C2299 H2291 0.930 . S
C2299 C2300 1.355 . S
C2299 C2301 1.415 . S
C2300 C2299 1.355 . S
C2300 C2302 1.419 . S
C2301 C2296 1.425 . S
C2301 C2298 1.409 . S
C2301 C2299 1.415 . S
C2302 H2292 0.930 . S
C2302 C2300 1.419 . S
C2302 C2303 1.362 . S
C2303 H2293 0.930 . S
C2303 C2296 1.409 . S
C2303 C2302 1.362 . S
H2304 C2310 0.930 . S
H2305 C2313 0.930 . S
H2306 C2314 0.930 . S
H2307 C2315 0.930 . S
H2308 C2318 0.930 . S
H2309 C2319 0.930 . S
C2310 H2304 0.930 . S
C2310 C2311 1.355 . S
C2310 C2312 1.415 . S
C2311 C2310 1.355 . S
C2311 C2313 1.419 . S
C2312 C2310 1.415 . S
C2312 C2317 1.425 . S
C2312 C2319 1.409 . S
C2313 H2305 0.930 . S
C2313 C2311 1.419 . S
C2313 C2314 1.362 . S
C2314 H2306 0.930 . S
C2314 C2313 1.362 . S
C2314 C2317 1.409 . S
C2315 H2307 0.930 . S
C2315 C2316 1.355 . S
C2315 C2317 1.415 . S
C2316 C2315 1.355 . S
C2316 C2318 1.419 . S
C2317 C2312 1.425 . S
C2317 C2314 1.409 . S
C2317 C2315 1.415 . S
C2318 H2308 0.930 . S
C2318 C2316 1.419 . S
C2318 C2319 1.362 . S
C2319 H2309 0.930 . S
C2319 C2312 1.409 . S
C2319 C2318 1.362 . S
H2320 C2326 0.930 . S
H2321 C2329 0.930 . S
H2322 C2330 0.930 . S
H2323 C2331 0.930 . S
H2324 C2334 0.930 . S
H2325 C2335 0.930 . S
C2326 H2320 0.930 . S
C2326 C2327 1.355 . S
C2326 C2328 1.415 . S
C2327 C2326 1.355 . S
C2327 C2329 1.419 . S
C2328 C2326 1.415 . S
C2328 C2333 1.425 . S
C2328 C2335 1.409 . S
C2329 H2321 0.930 . S
C2329 C2327 1.419 . S
C2329 C2330 1.362 . S
C2330 H2322 0.930 . S
C2330 C2329 1.362 . S
C2330 C2333 1.409 . S
C2331 H2323 0.930 . S
C2331 C2332 1.355 . S
C2331 C2333 1.415 . S
C2332 C2331 1.355 . S
C2332 C2334 1.419 . S
C2333 C2328 1.425 . S
C2333 C2330 1.409 . S
C2333 C2331 1.415 . S
C2334 H2324 0.930 . S
C2334 C2332 1.419 . S
C2334 C2335 1.362 . S
C2335 H2325 0.930 . S
C2335 C2328 1.409 . S
C2335 C2334 1.362 . S
H2336 C2342 0.930 . S
H2337 C2345 0.930 . S
H2338 C2346 0.930 . S
H2339 C2347 0.930 . S
H2340 C2350 0.930 . S
H2341 C2351 0.930 . S
C2342 H2336 0.930 . S
C2342 C2343 1.355 . S
C2342 C2344 1.415 . S
C2343 C2342 1.355 . S
C2343 C2345 1.419 . S
C2344 C2342 1.415 . S
C2344 C2349 1.425 . S
C2344 C2351 1.409 . S
C2345 H2337 0.930 . S
C2345 C2343 1.419 . S
C2345 C2346 1.362 . S
C2346 H2338 0.930 . S
C2346 C2345 1.362 . S
C2346 C2349 1.409 . S
C2347 H2339 0.930 . S
C2347 C2348 1.355 . S
C2347 C2349 1.415 . S
C2348 C2347 1.355 . S
C2348 C2350 1.419 . S
C2349 C2344 1.425 . S
C2349 C2346 1.409 . S
C2349 C2347 1.415 . S
C2350 H2340 0.930 . S
C2350 C2348 1.419 . S
C2350 C2351 1.362 . S
C2351 H2341 0.930 . S
C2351 C2344 1.409 . S
C2351 C2350 1.362 . S
H2352 C2358 0.930 . S
H2353 C2361 0.930 . S
H2354 C2362 0.930 . S
H2355 C2363 0.930 . S
H2356 C2366 0.930 . S
H2357 C2367 0.930 . S
C2358 H2352 0.930 . S
C2358 C2359 1.355 . S
C2358 C2360 1.415 . S
C2359 C2358 1.355 . S
C2359 C2361 1.419 . S
C2360 C2358 1.415 . S
C2360 C2365 1.425 . S
C2360 C2367 1.409 . S
C2361 H2353 0.930 . S
C2361 C2359 1.419 . S
C2361 C2362 1.362 . S
C2362 H2354 0.930 . S
C2362 C2361 1.362 . S
C2362 C2365 1.409 . S
C2363 H2355 0.930 . S
C2363 C2364 1.355 . S
C2363 C2365 1.415 . S
C2364 C2363 1.355 . S
C2364 C2366 1.419 . S
C2365 C2360 1.425 . S
C2365 C2362 1.409 . S
C2365 C2363 1.415 . S
C2366 H2356 0.930 . S
C2366 C2364 1.419 . S
C2366 C2367 1.362 . S
C2367 H2357 0.930 . S
C2367 C2360 1.409 . S
C2367 C2366 1.362 . S
H2368 C2374 0.930 . S
H2369 C2377 0.930 . S
H2370 C2378 0.930 . S
H2371 C2379 0.930 . S
H2372 C2382 0.930 . S
H2373 C2383 0.930 . S
C2374 H2368 0.930 . S
C2374 C2375 1.355 . S
C2374 C2376 1.415 . S
C2375 C2374 1.355 . S
C2375 C2377 1.419 . S
C2376 C2374 1.415 . S
C2376 C2381 1.425 . S
C2376 C2383 1.409 . S
C2377 H2369 0.930 . S
C2377 C2375 1.419 . S
C2377 C2378 1.362 . S
C2378 H2370 0.930 . S
C2378 C2377 1.362 . S
C2378 C2381 1.409 . S
C2379 H2371 0.930 . S
C2379 C2380 1.355 . S
C2379 C2381 1.415 . S
C2380 C2379 1.355 . S
C2380 C2382 1.419 . S
C2381 C2376 1.425 . S
C2381 C2378 1.409 . S
C2381 C2379 1.415 . S
C2382 H2372 0.930 . S
C2382 C2380 1.419 . S
C2382 C2383 1.362 . S
C2383 H2373 0.930 . S
C2383 C2376 1.409 . S
C2383 C2382 1.362 . S
H2384 C2390 0.930 . S
H2385 C2393 0.930 . S
H2386 C2394 0.930 . S
H2387 C2395 0.930 . S
H2388 C2398 0.930 . S
H2389 C2399 0.930 . S
C2390 H2384 0.930 . S
C2390 C2391 1.355 . S
C2390 C2392 1.415 . S
C2391 C2390 1.355 . S
C2391 C2393 1.419 . S
C2392 C2390 1.415 . S
C2392 C2397 1.425 . S
C2392 C2399 1.409 . S
C2393 H2385 0.930 . S
C2393 C2391 1.419 . S
C2393 C2394 1.362 . S
C2394 H2386 0.930 . S
C2394 C2393 1.362 . S
C2394 C2397 1.409 . S
C2395 H2387 0.930 . S
C2395 C2396 1.355 . S
C2395 C2397 1.415 . S
C2396 C2395 1.355 . S
C2396 C2398 1.419 . S
C2397 C2392 1.425 . S
C2397 C2394 1.409 . S
C2397 C2395 1.415 . S
C2398 H2388 0.930 . S
C2398 C2396 1.419 . S
C2398 C2399 1.362 . S
C2399 H2389 0.930 . S
C2399 C2392 1.409 . S
C2399 C2398 1.362 . S
H2400 C2406 0.930 . S
H2401 C2409 0.930 . S
H2402 C2410 0.930 1_655 S
H2403 C2411 0.935 . S
H2404 C2414 0.930 . S
H2405 C2415 0.930 . S
C2406 H2400 0.930 . S
C2406 C2407 1.355 . S
C2406 C2408 1.415 . S
C2407 C2406 1.355 . S
C2407 C2409 1.419 . S
C2408 C2406 1.415 . S
C2408 C2413 1.425 . S
C2408 C2415 1.409 . S
C2409 H2401 0.930 . S
C2409 C2407 1.419 . S
C2409 C2410 1.362 . S
C2410 H2402 0.930 1_455 S
C2410 C2409 1.362 . S
C2410 C2413 1.409 . S
C2411 H2403 0.935 . S
C2411 C2412 1.355 . S
C2411 C2413 1.415 . S
C2412 C2411 1.355 . S
C2412 C2414 1.419 . S
C2413 C2408 1.425 . S
C2413 C2410 1.409 . S
C2413 C2411 1.415 . S
C2414 H2404 0.930 . S
C2414 C2412 1.419 . S
C2414 C2415 1.362 . S
C2415 H2405 0.930 . S
C2415 C2408 1.409 . S
C2415 C2414 1.362 . S
H2416 C2422 0.930 . S
H2417 C2425 0.930 . S
H2418 C2426 0.930 . S
H2419 C2427 0.930 . S
H2420 C2430 0.930 . S
H2421 C2431 0.930 . S
C2422 H2416 0.930 . S
C2422 C2423 1.355 . S
C2422 C2424 1.415 . S
C2423 C2422 1.355 . S
C2423 C2425 1.419 . S
C2424 C2422 1.415 . S
C2424 C2429 1.425 . S
C2424 C2431 1.409 . S
C2425 H2417 0.930 . S
C2425 C2423 1.419 . S
C2425 C2426 1.362 . S
C2426 H2418 0.930 . S
C2426 C2425 1.362 . S
C2426 C2429 1.409 . S
C2427 H2419 0.930 . S
C2427 C2428 1.355 . S
C2427 C2429 1.415 . S
C2428 C2427 1.355 . S
C2428 C2430 1.419 . S
C2429 C2424 1.425 . S
C2429 C2426 1.409 . S
C2429 C2427 1.415 . S
C2430 H2420 0.930 . S
C2430 C2428 1.419 . S
C2430 C2431 1.362 . S
C2431 H2421 0.930 . S
C2431 C2424 1.409 . S
C2431 C2430 1.362 . S
H2432 C2438 0.930 . S
H2433 C2441 0.930 . S
H2434 C2442 0.930 . S
H2435 C2443 0.930 . S
H2436 C2446 0.930 . S
H2437 C2447 0.930 . S
C2438 H2432 0.930 . S
C2438 C2439 1.355 . S
C2438 C2440 1.415 . S
C2439 C2438 1.355 . S
C2439 C2441 1.419 . S
C2440 C2438 1.415 . S
C2440 C2445 1.425 . S
C2440 C2447 1.409 . S
C2441 H2433 0.930 . S
C2441 C2439 1.419 . S
C2441 C2442 1.362 . S
C2442 H2434 0.930 . S
C2442 C2441 1.362 . S
C2442 C2445 1.409 . S
C2443 H2435 0.930 . S
C2443 C2444 1.355 . S
C2443 C2445 1.415 . S
C2444 C2443 1.355 . S
C2444 C2446 1.419 . S
C2445 C2440 1.425 . S
C2445 C2442 1.409 . S
C2445 C2443 1.415 . S
C2446 H2436 0.930 . S
C2446 C2444 1.419 . S
C2446 C2447 1.362 . S
C2447 H2437 0.930 . S
C2447 C2440 1.409 . S
C2447 C2446 1.362 . S
H2448 C2454 0.930 . S
H2449 C2457 0.930 . S
H2450 C2458 0.930 . S
H2451 C2459 0.930 . S
H2452 C2462 0.925 1_545 S
H2453 C2463 0.930 . S
C2454 H2448 0.930 . S
C2454 C2455 1.355 . S
C2454 C2456 1.415 . S
C2455 C2454 1.355 . S
C2455 C2457 1.419 . S
C2456 C2454 1.415 . S
C2456 C2461 1.425 . S
C2456 C2463 1.409 . S
C2457 H2449 0.930 . S
C2457 C2455 1.419 . S
C2457 C2458 1.362 . S
C2458 H2450 0.930 . S
C2458 C2457 1.362 . S
C2458 C2461 1.409 . S
C2459 H2451 0.930 . S
C2459 C2460 1.362 . S
C2459 C2461 1.415 . S
C2460 C2459 1.362 . S
C2460 C2462 1.422 . S
C2461 C2456 1.425 . S
C2461 C2458 1.409 . S
C2461 C2459 1.415 . S
C2462 H2452 0.925 1_565 S
C2462 C2460 1.422 . S
C2462 C2463 1.377 . S
C2463 H2453 0.930 . S
C2463 C2456 1.409 . S
C2463 C2462 1.377 . S
H2464 C2470 0.930 . S
H2465 C2473 0.930 . S
H2466 C2474 0.930 . S
H2467 C2475 0.930 . S
H2468 C2478 0.930 . S
H2469 C2479 0.930 . S
C2470 H2464 0.930 . S
C2470 C2471 1.355 . S
C2470 C2472 1.415 . S
C2471 C2470 1.355 . S
C2471 C2473 1.419 . S
C2472 C2470 1.415 . S
C2472 C2477 1.425 . S
C2472 C2479 1.409 1_455 S
C2473 H2465 0.930 . S
C2473 C2471 1.419 . S
C2473 C2474 1.362 . S
C2474 H2466 0.930 . S
C2474 C2473 1.362 . S
C2474 C2477 1.409 . S
C2475 H2467 0.930 . S
C2475 C2476 1.355 1_455 S
C2475 C2477 1.415 . S
C2476 C2475 1.355 1_655 S
C2476 C2478 1.419 . S
C2477 C2472 1.425 . S
C2477 C2474 1.409 . S
C2477 C2475 1.415 . S
C2478 H2468 0.930 . S
C2478 C2476 1.419 . S
C2478 C2479 1.362 . S
C2479 H2469 0.930 . S
C2479 C2472 1.409 1_655 S
C2479 C2478 1.362 . S
H2480 C2486 0.930 . S
H2481 C2489 0.930 . S
H2482 C2490 0.930 . S
H2483 C2491 0.930 . S
H2484 C2494 0.930 . S
H2485 C2495 0.930 . S
C2486 H2480 0.930 . S
C2486 C2487 1.355 . S
C2486 C2488 1.415 . S
C2487 C2486 1.355 . S
C2487 C2489 1.419 . S
C2488 C2486 1.415 . S
C2488 C2493 1.425 . S
C2488 C2495 1.409 . S
C2489 H2481 0.930 . S
C2489 C2487 1.419 . S
C2489 C2490 1.362 . S
C2490 H2482 0.930 . S
C2490 C2489 1.362 . S
C2490 C2493 1.409 . S
C2491 H2483 0.930 . S
C2491 C2492 1.355 . S
C2491 C2493 1.415 . S
C2492 C2491 1.355 . S
C2492 C2494 1.419 . S
C2493 C2488 1.425 . S
C2493 C2490 1.409 . S
C2493 C2491 1.415 . S
C2494 H2484 0.930 . S
C2494 C2492 1.419 . S
C2494 C2495 1.362 . S
C2495 H2485 0.930 . S
C2495 C2488 1.409 . S
C2495 C2494 1.362 . S
H2496 C2502 0.930 . S
H2497 C2505 0.930 . S
H2498 C2506 0.930 . S
H2499 C2507 0.930 . S
H2500 C2510 0.930 . S
H2501 C2511 0.930 . S
C2502 H2496 0.930 . S
C2502 C2503 1.355 . S
C2502 C2504 1.415 . S
C2503 C2502 1.355 . S
C2503 C2505 1.419 . S
C2504 C2502 1.415 . S
C2504 C2509 1.425 . S
C2504 C2511 1.409 . S
C2505 H2497 0.930 . S
C2505 C2503 1.419 . S
C2505 C2506 1.362 . S
C2506 H2498 0.930 . S
C2506 C2505 1.362 . S
C2506 C2509 1.409 . S
C2507 H2499 0.930 . S
C2507 C2508 1.355 . S
C2507 C2509 1.415 . S
C2508 C2507 1.355 . S
C2508 C2510 1.419 . S
C2509 C2504 1.425 . S
C2509 C2506 1.409 . S
C2509 C2507 1.415 . S
C2510 H2500 0.930 . S
C2510 C2508 1.419 . S
C2510 C2511 1.362 . S
C2511 H2501 0.930 . S
C2511 C2504 1.409 . S
C2511 C2510 1.362 . S
H2512 C2518 0.930 . S
H2513 C2521 0.930 . S
H2514 C2522 0.930 . S
H2515 C2523 0.930 . S
H2516 C2526 0.930 . S
H2517 C2527 0.930 . S
C2518 H2512 0.930 . S
C2518 C2519 1.355 . S
C2518 C2520 1.415 . S
C2519 C2518 1.355 . S
C2519 C2521 1.419 . S
C2520 C2518 1.415 . S
C2520 C2525 1.425 . S
C2520 C2527 1.409 . S
C2521 H2513 0.930 . S
C2521 C2519 1.419 . S
C2521 C2522 1.362 . S
C2522 H2514 0.930 . S
C2522 C2521 1.362 . S
C2522 C2525 1.409 . S
C2523 H2515 0.930 . S
C2523 C2524 1.355 . S
C2523 C2525 1.415 . S
C2524 C2523 1.355 . S
C2524 C2526 1.419 . S
C2525 C2520 1.425 . S
C2525 C2522 1.409 . S
C2525 C2523 1.415 . S
C2526 H2516 0.930 . S
C2526 C2524 1.419 . S
C2526 C2527 1.362 . S
C2527 H2517 0.930 . S
C2527 C2520 1.409 . S
C2527 C2526 1.362 . S
H2528 C2534 0.930 . S
H2529 C2537 0.930 . S
H2530 C2538 0.930 . S
H2531 C2539 0.930 . S
H2532 C2542 0.930 . S
H2533 C2543 0.930 . S
C2534 H2528 0.930 . S
C2534 C2535 1.355 . S
C2534 C2536 1.415 . S
C2535 C2534 1.355 . S
C2535 C2537 1.419 . S
C2536 C2534 1.415 . S
C2536 C2541 1.425 . S
C2536 C2543 1.409 . S
C2537 H2529 0.930 . S
C2537 C2535 1.419 . S
C2537 C2538 1.362 . S
C2538 H2530 0.930 . S
C2538 C2537 1.362 . S
C2538 C2541 1.409 . S
C2539 H2531 0.930 . S
C2539 C2540 1.355 . S
C2539 C2541 1.415 . S
C2540 C2539 1.355 . S
C2540 C2542 1.419 . S
C2541 C2536 1.425 . S
C2541 C2538 1.409 . S
C2541 C2539 1.415 . S
C2542 H2532 0.930 . S
C2542 C2540 1.419 . S
C2542 C2543 1.362 . S
C2543 H2533 0.930 . S
C2543 C2536 1.409 . S
C2543 C2542 1.362 . S
H2544 C2550 0.930 . S
H2545 C2553 0.930 . S
H2546 C2554 0.930 . S
H2547 C2555 0.930 . S
H2548 C2558 0.930 . S
H2549 C2559 0.930 . S
C2550 H2544 0.930 . S
C2550 C2551 1.355 . S
C2550 C2552 1.415 . S
C2551 C2550 1.355 . S
C2551 C2553 1.419 . S
C2552 C2550 1.415 . S
C2552 C2557 1.425 . S
C2552 C2559 1.409 . S
C2553 H2545 0.930 . S
C2553 C2551 1.419 . S
C2553 C2554 1.362 . S
C2554 H2546 0.930 . S
C2554 C2553 1.362 . S
C2554 C2557 1.409 . S
C2555 H2547 0.930 . S
C2555 C2556 1.355 . S
C2555 C2557 1.415 . S
C2556 C2555 1.355 . S
C2556 C2558 1.419 . S
C2557 C2552 1.425 . S
C2557 C2554 1.409 . S
C2557 C2555 1.415 . S
C2558 H2548 0.930 . S
C2558 C2556 1.419 . S
C2558 C2559 1.362 . S
C2559 H2549 0.930 . S
C2559 C2552 1.409 . S
C2559 C2558 1.362 . S
H2560 C2566 0.930 . S
H2561 C2569 0.930 1_455 S
H2562 C2570 0.930 . S
H2563 C2571 0.930 1_455 S
H2564 C2574 0.930 . S
H2565 C2575 0.930 . S
C2566 H2560 0.930 . S
C2566 C2567 1.355 . S
C2566 C2568 1.415 . S
C2567 C2566 1.355 . S
C2567 C2569 1.419 . S
C2568 C2566 1.415 . S
C2568 C2573 1.425 . S
C2568 C2575 1.409 . S
C2569 H2561 0.930 1_655 S
C2569 C2567 1.419 . S
C2569 C2570 1.362 1_655 S
C2570 H2562 0.930 . S
C2570 C2569 1.362 1_455 S
C2570 C2573 1.409 1_455 S
C2571 H2563 0.930 1_655 S
C2571 C2572 1.355 . S
C2571 C2573 1.415 . S
C2572 C2571 1.355 . S
C2572 C2574 1.419 . S
C2573 C2568 1.425 . S
C2573 C2570 1.409 1_655 S
C2573 C2571 1.415 . S
C2574 H2564 0.930 . S
C2574 C2572 1.419 . S
C2574 C2575 1.362 . S
C2575 H2565 0.930 . S
C2575 C2568 1.409 . S
C2575 C2574 1.362 . S
H2576 C2582 0.930 . S
H2577 C2585 0.930 . S
H2578 C2586 0.930 . S
H2579 C2587 0.930 . S
H2580 C2590 0.930 . S
H2581 C2591 0.930 . S
C2582 H2576 0.930 . S
C2582 C2583 1.355 . S
C2582 C2584 1.415 . S
C2583 C2582 1.355 . S
C2583 C2585 1.419 . S
C2584 C2582 1.415 . S
C2584 C2589 1.425 . S
C2584 C2591 1.409 . S
C2585 H2577 0.930 . S
C2585 C2583 1.419 . S
C2585 C2586 1.362 . S
C2586 H2578 0.930 . S
C2586 C2585 1.362 . S
C2586 C2589 1.409 . S
C2587 H2579 0.930 . S
C2587 C2588 1.355 . S
C2587 C2589 1.415 . S
C2588 C2587 1.355 . S
C2588 C2590 1.419 . S
C2589 C2584 1.425 . S
C2589 C2586 1.409 . S
C2589 C2587 1.415 . S
C2590 H2580 0.930 . S
C2590 C2588 1.419 . S
C2590 C2591 1.362 . S
C2591 H2581 0.930 . S
C2591 C2584 1.409 . S
C2591 C2590 1.362 . S
H2592 C2598 0.930 . S
H2593 C2601 0.930 . S
H2594 C2602 0.930 . S
H2595 C2603 0.930 . S
H2596 C2606 0.930 . S
H2597 C2607 0.930 . S
C2598 H2592 0.930 . S
C2598 C2599 1.355 . S
C2598 C2600 1.415 . S
C2599 C2598 1.355 . S
C2599 C2601 1.419 . S
C2600 C2598 1.415 . S
C2600 C2605 1.425 . S
C2600 C2607 1.409 . S
C2601 H2593 0.930 . S
C2601 C2599 1.419 . S
C2601 C2602 1.362 . S
C2602 H2594 0.930 . S
C2602 C2601 1.362 . S
C2602 C2605 1.409 . S
C2603 H2595 0.930 . S
C2603 C2604 1.355 . S
C2603 C2605 1.415 . S
C2604 C2603 1.355 . S
C2604 C2606 1.419 . S
C2605 C2600 1.425 . S
C2605 C2602 1.409 . S
C2605 C2603 1.415 . S
C2606 H2596 0.930 . S
C2606 C2604 1.419 . S
C2606 C2607 1.362 . S
C2607 H2597 0.930 . S
C2607 C2600 1.409 . S
C2607 C2606 1.362 . S
H2608 C2614 0.930 . S
H2609 C2617 0.930 . S
H2610 C2618 0.930 . S
H2611 C2619 0.930 . S
H2612 C2622 0.930 . S
H2613 C2623 0.930 . S
C2614 H2608 0.930 . S
C2614 C2615 1.355 . S
C2614 C2616 1.415 . S
C2615 C2614 1.355 . S
C2615 C2617 1.419 . S
C2616 C2614 1.415 . S
C2616 C2621 1.425 . S
C2616 C2623 1.409 . S
C2617 H2609 0.930 . S
C2617 C2615 1.419 . S
C2617 C2618 1.362 . S
C2618 H2610 0.930 . S
C2618 C2617 1.362 . S
C2618 C2621 1.409 . S
C2619 H2611 0.930 . S
C2619 C2620 1.355 . S
C2619 C2621 1.415 . S
C2620 C2619 1.355 . S
C2620 C2622 1.419 . S
C2621 C2616 1.425 . S
C2621 C2618 1.409 . S
C2621 C2619 1.415 . S
C2622 H2612 0.930 . S
C2622 C2620 1.419 . S
C2622 C2623 1.362 . S
C2623 H2613 0.930 . S
C2623 C2616 1.409 . S
C2623 C2622 1.362 . S
H2624 C2630 0.930 . S
H2625 C2633 0.930 . S
H2626 C2634 0.930 . S
H2627 C2635 0.930 . S
H2628 C2638 0.930 . S
H2629 C2639 0.930 . S
C2630 H2624 0.930 . S
C2630 C2631 1.355 . S
C2630 C2632 1.415 . S
C2631 C2630 1.355 . S
C2631 C2633 1.419 . S
C2632 C2630 1.415 . S
C2632 C2637 1.425 . S
C2632 C2639 1.409 . S
C2633 H2625 0.930 . S
C2633 C2631 1.419 . S
C2633 C2634 1.362 . S
C2634 H2626 0.930 . S
C2634 C2633 1.362 . S
C2634 C2637 1.409 . S
C2635 H2627 0.930 . S
C2635 C2636 1.355 . S
C2635 C2637 1.415 . S
C2636 C2635 1.355 . S
C2636 C2638 1.419 . S
C2637 C2632 1.425 . S
C2637 C2634 1.409 . S
C2637 C2635 1.415 . S
C2638 H2628 0.930 . S
C2638 C2636 1.419 . S
C2638 C2639 1.362 . S
C2639 H2629 0.930 . S
C2639 C2632 1.409 . S
C2639 C2638 1.362 . S
H2640 C2646 0.930 . S
H2641 C2649 0.930 . S
H2642 C2650 0.930 . S
H2643 C2651 0.930 . S
H2644 C2654 0.930 . S
H2645 C2655 0.930 . S
C2646 H2640 0.930 . S
C2646 C2647 1.355 . S
C2646 C2648 1.415 . S
C2647 C2646 1.355 . S
C2647 C2649 1.419 . S
C2648 C2646 1.415 . S
C2648 C2653 1.425 . S
C2648 C2655 1.409 . S
C2649 H2641 0.930 . S
C2649 C2647 1.419 . S
C2649 C2650 1.362 . S
C2650 H2642 0.930 . S
C2650 C2649 1.362 . S
C2650 C2653 1.409 . S
C2651 H2643 0.930 . S
C2651 C2652 1.355 . S
C2651 C2653 1.415 . S
C2652 C2651 1.355 . S
C2652 C2654 1.419 . S
C2653 C2648 1.425 . S
C2653 C2650 1.409 . S
C2653 C2651 1.415 . S
C2654 H2644 0.930 . S
C2654 C2652 1.419 . S
C2654 C2655 1.362 . S
C2655 H2645 0.930 . S
C2655 C2648 1.409 . S
C2655 C2654 1.362 . S
H2656 C2662 0.930 . S
H2657 C2665 0.930 . S
H2658 C2666 0.930 . S
H2659 C2667 0.930 . S
H2660 C2670 0.930 . S
H2661 C2671 0.930 . S
C2662 H2656 0.930 . S
C2662 C2663 1.355 . S
C2662 C2664 1.415 . S
C2663 C2662 1.355 . S
C2663 C2665 1.419 . S
C2664 C2662 1.415 . S
C2664 C2669 1.425 . S
C2664 C2671 1.409 . S
C2665 H2657 0.930 . S
C2665 C2663 1.419 . S
C2665 C2666 1.362 . S
C2666 H2658 0.930 . S
C2666 C2665 1.362 . S
C2666 C2669 1.409 . S
C2667 H2659 0.930 . S
C2667 C2668 1.355 . S
C2667 C2669 1.415 . S
C2668 C2667 1.355 . S
C2668 C2670 1.419 . S
C2669 C2664 1.425 . S
C2669 C2666 1.409 . S
C2669 C2667 1.415 . S
C2670 H2660 0.930 . S
C2670 C2668 1.419 . S
C2670 C2671 1.362 . S
C2671 H2661 0.930 . S
C2671 C2664 1.409 . S
C2671 C2670 1.362 . S
H2672 C2678 0.930 . S
H2673 C2681 0.930 . S
H2674 C2682 0.930 . S
H2675 C2683 0.930 . S
H2676 C2686 0.930 . S
H2677 C2687 0.930 . S
C2678 H2672 0.930 . S
C2678 C2679 1.355 . S
C2678 C2680 1.415 . S
C2679 C2678 1.355 . S
C2679 C2681 1.419 . S
C2680 C2678 1.415 . S
C2680 C2685 1.425 . S
C2680 C2687 1.409 . S
C2681 H2673 0.930 . S
C2681 C2679 1.419 . S
C2681 C2682 1.362 . S
C2682 H2674 0.930 . S
C2682 C2681 1.362 . S
C2682 C2685 1.409 . S
C2683 H2675 0.930 . S
C2683 C2684 1.355 . S
C2683 C2685 1.415 . S
C2684 C2683 1.355 . S
C2684 C2686 1.419 . S
C2685 C2680 1.425 . S
C2685 C2682 1.409 . S
C2685 C2683 1.415 . S
C2686 H2676 0.930 . S
C2686 C2684 1.419 . S
C2686 C2687 1.362 . S
C2687 H2677 0.930 . S
C2687 C2680 1.409 . S
C2687 C2686 1.362 . S
H2688 C2694 0.930 . S
H2689 C2697 0.930 . S
H2690 C2698 0.930 . S
H2691 C2699 0.930 . S
H2692 C2702 0.930 . S
H2693 C2703 0.930 . S
C2694 H2688 0.930 . S
C2694 C2695 1.355 . S
C2694 C2696 1.415 . S
C2695 C2694 1.355 . S
C2695 C2697 1.419 . S
C2696 C2694 1.415 . S
C2696 C2701 1.425 . S
C2696 C2703 1.409 . S
C2697 H2689 0.930 . S
C2697 C2695 1.419 . S
C2697 C2698 1.362 1_655 S
C2698 H2690 0.930 . S
C2698 C2697 1.362 1_455 S
C2698 C2701 1.409 1_455 S
C2699 H2691 0.930 . S
C2699 C2700 1.355 1_455 S
C2699 C2701 1.415 1_455 S
C2700 C2699 1.355 1_655 S
C2700 C2702 1.419 . S
C2701 C2696 1.425 . S
C2701 C2698 1.409 1_655 S
C2701 C2699 1.415 1_655 S
C2702 H2692 0.930 . S
C2702 C2700 1.419 . S
C2702 C2703 1.362 . S
C2703 H2693 0.930 . S
C2703 C2696 1.409 . S
C2703 C2702 1.362 . S
H2704 C2710 0.930 . S
H2705 C2713 0.930 . S
H2706 C2714 0.930 . S
H2707 C2715 0.930 . S
H2708 C2718 0.930 . S
H2709 C2719 0.930 . S
C2710 H2704 0.930 . S
C2710 C2711 1.355 . S
C2710 C2712 1.415 . S
C2711 C2710 1.355 . S
C2711 C2713 1.419 . S
C2712 C2710 1.415 . S
C2712 C2717 1.425 . S
C2712 C2719 1.409 . S
C2713 H2705 0.930 . S
C2713 C2711 1.419 . S
C2713 C2714 1.362 . S
C2714 H2706 0.930 . S
C2714 C2713 1.362 . S
C2714 C2717 1.409 . S
C2715 H2707 0.930 . S
C2715 C2716 1.355 . S
C2715 C2717 1.415 . S
C2716 C2715 1.355 . S
C2716 C2718 1.419 . S
C2717 C2712 1.425 . S
C2717 C2714 1.409 . S
C2717 C2715 1.415 . S
C2718 H2708 0.930 . S
C2718 C2716 1.419 . S
C2718 C2719 1.362 . S
C2719 H2709 0.930 . S
C2719 C2712 1.409 . S
C2719 C2718 1.362 . S
H2720 C2726 0.930 . S
H2721 C2729 0.930 . S
H2722 C2730 0.930 . S
H2723 C2731 0.930 . S
H2724 C2734 0.930 . S
H2725 C2735 0.930 . S
C2726 H2720 0.930 . S
C2726 C2727 1.355 . S
C2726 C2728 1.415 . S
C2727 C2726 1.355 . S
C2727 C2729 1.419 . S
C2728 C2726 1.415 . S
C2728 C2733 1.425 . S
C2728 C2735 1.409 . S
C2729 H2721 0.930 . S
C2729 C2727 1.419 . S
C2729 C2730 1.362 . S
C2730 H2722 0.930 . S
C2730 C2729 1.362 . S
C2730 C2733 1.409 . S
C2731 H2723 0.930 . S
C2731 C2732 1.355 . S
C2731 C2733 1.415 . S
C2732 C2731 1.355 . S
C2732 C2734 1.419 . S
C2733 C2728 1.425 . S
C2733 C2730 1.409 . S
C2733 C2731 1.415 . S
C2734 H2724 0.930 . S
C2734 C2732 1.419 . S
C2734 C2735 1.362 . S
C2735 H2725 0.930 . S
C2735 C2728 1.409 . S
C2735 C2734 1.362 . S
C1591 C8 1.266 1_655 S
C1596 C981 1.239 . S
C1607 C22 1.605 . S
C1612 C1061 1.537 . S
C1628 C1129 1.358 . S
C1623 C37 1.459 1_545 S
C1639 C36 1.700 . S
C1644 C1209 1.739 . S
C1655 C9 1.484 1_455 S
C1660 C1283 1.527 . S
C1671 C23 1.661 . S
C1676 C1351 1.537 . S
C1687 C50 1.144 . S
C1692 C1277 1.107 . S
C1708 C1357 1.481 . S
C1703 C64 1.472 . S
C1724 C1203 1.301 1_565 S
C1719 C79 1.344 1_565 S
C1735 C78 1.663 . S
C1740 C1135 1.706 . S
C1756 C987 1.460 . S
C1751 C51 1.396 1_655 S
C1767 C65 1.449 . S
C1772 C1055 1.479 . S
C1783 C92 1.476 . S
C1788 C1425 1.333 . S
C1799 C106 1.632 . S
C1804 C1505 1.627 . S
C1820 C1573 1.576 . S
C1815 C121 1.613 . S
C1831 C120 1.886 . S
C1836 C321 1.870 . S
C1847 C93 1.662 . S
C1852 C395 1.594 . S
C1863 C107 1.690 . S
C1868 C463 1.544 . S
C1879 C134 1.194 . S
C1884 C389 1.197 . S
C1895 C148 1.457 . S
C1900 C469 1.513 . S
C1916 C315 1.411 . S
C1911 C163 1.402 . S
C1932 C1579 1.841 . S
C1927 C162 1.796 . S
C1948 C1431 1.521 . S
C1943 C135 1.485 . S
C1964 C1499 1.472 . S
C1959 C149 1.531 . S
C1975 C176 1.397 . S
C1980 C537 1.293 . S
C1991 C190 1.653 . S
C1996 C617 1.589 . S
C2007 C205 1.621 . S
C2012 C685 1.512 . S
C2023 C204 1.930 . S
C2028 C765 1.907 . S
C2044 C839 1.638 . S
C2039 C177 1.663 . S
C2060 C907 1.660 . S
C2055 C191 1.711 . S
C2076 C833 1.216 . S
C2071 C218 1.288 . S
C2092 C913 1.501 . S
C2087 C232 1.505 . S
C2103 C247 1.396 . S
C2108 C759 1.432 . S
C2124 C691 1.776 . S
C2119 C246 1.732 . S
C2135 C219 1.485 . S
C2140 C543 1.528 . S
C2156 C611 1.447 . S
C2151 C233 1.494 . S
C2172 C291 1.862 . S
C2167 C6 1.943 . S
C2183 C20 1.423 . S
C2188 C365 1.464 . S
C2204 C451 1.470 . S
C2199 C35 1.468 . S
C2220 C525 1.253 . S
C2215 C34 1.231 . S
C2236 C587 1.576 . S
C2231 C7 1.578 . S
C2252 C673 1.526 . S
C2247 C21 1.534 . S
C2263 C48 2.107 1_556 S
C2268 C661 1.958 . S
C2279 C62 1.632 . S
C2284 C513 1.513 . S
C2295 C77 1.689 . S
C2300 C599 1.610 . S
C2311 C76 1.460 . S
C2316 C377 1.368 . S
C2332 C439 1.648 . S
C2327 C49 1.788 . S
C2343 C63 1.730 . S
C2348 C303 1.690 . S
C2364 C735 1.894 . S
C2359 C90 1.905 . S
C2375 C104 1.523 . S
C2380 C809 1.550 . S
C2391 C119 1.464 1_655 S
C2396 C895 1.498 . S
C2412 C969 1.136 . S
C2407 C118 1.142 . S
C2423 C91 1.569 . S
C2428 C1031 1.539 . S
C2439 C105 1.466 . S
C2444 C1117 1.489 . S
C2455 C132 1.916 . S
C2460 C1105 1.839 1_565 S
C2471 C146 1.490 . S
C2476 C957 1.482 . S
C2492 C1043 1.553 . S
C2487 C161 1.632 . S
C2503 C160 1.436 . S
C2508 C821 1.411 . S
C2519 C133 1.791 . S
C2524 C883 1.673 . S
C2540 C747 1.732 . S
C2535 C147 1.782 . S
C2556 C1179 1.828 . S
C2551 C174 1.820 . S
C2567 C188 1.431 . S
C2572 C1253 1.420 . S
C2583 C203 1.441 . S
C2588 C1339 1.462 . S
C2604 C1413 1.233 . S
C2599 C202 1.205 . S
C2620 C1475 1.582 . S
C2615 C175 1.619 . S
C2631 C189 1.576 . S
C2636 C1561 1.588 . S
C2647 C216 2.076 . S
C2652 C1549 1.958 . S
C2663 C230 1.694 . S
C2668 C1401 1.608 . S
C2684 C1487 1.613 . S
C2679 C245 1.687 1_455 S
C2700 C1265 1.223 . S
C2695 C244 1.276 . S
C2716 C1327 1.685 . S
C2711 C217 1.718 . S
C2727 C231 1.559 . S
C2732 C1191 1.557 . S
