# Generated by pormake.
# Topology sit, (3,6)-cn, num edge types: 1
# Building blocks:
#     Node 0, Type 0, BuildingBlock: VETTIZ_charged_linker_0, # of connection points: 3
#     Node 1, Type 0, BuildingBlock: VETTIZ_charged_linker_0, # of connection points: 3
#     Node 2, Type 0, BuildingBlock: VETTIZ_charged_linker_0, # of connection points: 3
#     Node 3, Type 0, BuildingBlock: VETTIZ_charged_linker_0, # of connection points: 3
#     Node 4, Type 1, BuildingBlock: MIDCAF_clean_sbu_0, # of connection points: 6
#     Node 5, Type 1, BuildingBlock: MIDCAF_clean_sbu_0, # of connection points: 6
#     Edge 6, Type (0, 1), BuildingBlock: FUNLAD_clean_linker_1, # of connection points: 2
#     Edge 7, Type (0, 1), BuildingBlock: FUNLAD_clean_linker_1, # of connection points: 2
#     Edge 8, Type (0, 1), BuildingBlock: FUNLAD_clean_linker_1, # of connection points: 2
#     Edge 9, Type (0, 1), BuildingBlock: FUNLAD_clean_linker_1, # of connection points: 2
#     Edge 10, Type (0, 1), BuildingBlock: FUNLAD_clean_linker_1, # of connection points: 2
#     Edge 11, Type (0, 1), BuildingBlock: FUNLAD_clean_linker_1, # of connection points: 2
#     Edge 12, Type (0, 1), BuildingBlock: FUNLAD_clean_linker_1, # of connection points: 2
#     Edge 13, Type (0, 1), BuildingBlock: FUNLAD_clean_linker_1, # of connection points: 2
#     Edge 14, Type (0, 1), BuildingBlock: FUNLAD_clean_linker_1, # of connection points: 2
#     Edge 15, Type (0, 1), BuildingBlock: FUNLAD_clean_linker_1, # of connection points: 2
#     Edge 16, Type (0, 1), BuildingBlock: FUNLAD_clean_linker_1, # of connection points: 2
#     Edge 17, Type (0, 1), BuildingBlock: FUNLAD_clean_linker_1, # of connection points: 2
# Relax obj value: 0.113
# Max RMSD: 0.194
# Mean RMSD: 0.109
data_MOF--net-sit--node1-MIDCAF_clean_sbu_0--node2-VETTIZ_charged_linker_0--edge1-FUNLAD_clean_linker_1
_symmetry_space_group_name_H-M    P1
_symmetry_Int_Tables_number       1
_symmetry_cell_setting            triclinic
loop_
_symmetry_equiv_pos_as_xyz
'x, y, z'
_cell_length_a     29.38422
_cell_length_b     39.718219
_cell_length_c     44.036783
_cell_angle_alpha  90.397349
_cell_angle_beta   89.391798
_cell_angle_gamma 84.391447
loop_
_atom_site_label
_atom_site_type_symbol
_atom_site_fract_x
_atom_site_fract_y
_atom_site_fract_z
_atom_type_partial_charge
C0 C 0.07527 0.20953 0.09814 0.0
C1 C 0.11626 0.19517 0.11091 0.0
C2 C 0.15715 0.20961 0.1045 0.0
C3 C 0.1161 0.25177 0.0727 0.0
C4 C 0.0759 0.23786 0.07951 0.0
C5 C 0.03471 0.25766 0.06626 0.0
H6 H 0.9482 0.38913 0.98115 0.0
C7 C 0.10458 0.2818 0.05353 0.0
C8 C 0.05676 0.28555 0.05007 0.0
H9 H 0.87325 0.31462 0.02551 0.0
H10 H 0.94393 0.28785 0.04605 0.0
H11 H 0.01771 0.40099 0.03665 0.0
H12 H 0.0206 0.34076 0.95557 0.0
H13 H 0.07778 0.34832 0.96051 0.0
H14 H 0.035 0.38354 0.95492 0.0
H15 H 0.02113 0.41764 0.999 0.0
H16 H 0.0718 0.40327 0.01981 0.0
C17 C 0.00294 0.27161 0.09271 0.0
C18 C 0.01225 0.23433 0.04376 0.0
C19 C 0.2298 0.34618 0.00634 0.0
C20 C 0.22748 0.37267 0.98513 0.0
C21 C 0.18473 0.3879 0.97613 0.0
C22 C 0.14448 0.37697 0.98773 0.0
C23 C 0.14682 0.34982 0.00805 0.0
C24 C 0.18882 0.33485 0.01724 0.0
C25 C 0.18379 0.30531 0.03804 0.0
C26 C 0.13199 0.30476 0.03904 0.0
C27 C 0.11092 0.33117 0.02164 0.0
C28 C 0.20307 0.31374 0.06946 0.0
C29 C 0.20798 0.27307 0.02283 0.0
C30 C 0.94636 0.36784 0.99617 0.0
C31 C 0.90472 0.35463 0.00256 0.0
C32 C 0.90489 0.32557 0.02074 0.0
C33 C 0.94594 0.31003 0.0325 0.0
C34 C 0.98736 0.32349 0.02561 0.0
C35 C 0.98681 0.35198 0.00778 0.0
C36 C 0.03371 0.36197 0.00117 0.0
C37 C 0.06278 0.3353 0.01865 0.0
C38 C 0.0357 0.31272 0.03284 0.0
C39 C 0.03652 0.39791 0.01458 0.0
C40 C 0.04243 0.35878 0.96631 0.0
H41 H 0.18958 0.24755 0.08122 0.0
H42 H 0.04291 0.20001 0.10368 0.0
H43 H 0.03877 0.21824 0.03061 0.0
H44 H 0.99135 0.24844 0.02651 0.0
H45 H 0.99068 0.21724 0.05598 0.0
H46 H 0.02323 0.27836 0.11267 0.0
H47 H 0.98003 0.25256 0.10024 0.0
H48 H 0.98199 0.29525 0.08694 0.0
H49 H 0.26247 0.33369 0.01315 0.0
H50 H 0.1825 0.40828 0.95978 0.0
H51 H 0.11313 0.38978 0.97985 0.0
H52 H 0.19656 0.34126 0.07466 0.0
H53 H 0.24061 0.30689 0.07022 0.0
H54 H 0.18647 0.30115 0.08828 0.0
H55 H 0.19972 0.27231 0.99826 0.0
H56 H 0.19713 0.2495 0.03235 0.0
H57 H 0.24572 0.27246 0.02481 0.0
H58 H 0.1889 0.19933 0.11465 0.0
C59 C 0.1574 0.23764 0.08524 0.0
C60 C 0.18478 0.66582 0.01737 0.0
C61 C 0.18972 0.6353 0.00069 0.0
C62 C 0.15041 0.61873 0.99453 0.0
C63 C 0.10268 0.66355 0.02017 0.0
C64 C 0.14111 0.67938 0.02696 0.0
C65 C 0.12942 0.71211 0.04411 0.0
H66 H 0.96805 0.82569 0.10764 0.0
C67 C 0.0623 0.68514 0.03152 0.0
C68 C 0.07753 0.71357 0.04576 0.0
H69 H 0.11512 0.82762 0.10674 0.0
H70 H 0.12383 0.77628 0.07751 0.0
H71 H 0.96344 0.80427 0.03642 0.0
H72 H 0.96597 0.74462 0.11805 0.0
H73 H 0.92273 0.73244 0.09397 0.0
H74 H 0.91899 0.77502 0.10865 0.0
H75 H 0.91433 0.80427 0.061 0.0
H76 H 0.92614 0.77279 0.03146 0.0
C77 C 0.14569 0.7413 0.02489 0.0
C78 C 0.15125 0.7084 0.07593 0.0
C79 C 0.90519 0.65199 0.00653 0.0
C80 C 0.86069 0.66784 0.01081 0.0
C81 C 0.85461 0.69839 0.02752 0.0
C82 C 0.89229 0.71303 0.03954 0.0
C83 C 0.93666 0.69719 0.03438 0.0
C84 C 0.94227 0.66703 0.01832 0.0
C85 C 0.99156 0.65437 0.01349 0.0
C86 C 0.01488 0.682 0.02906 0.0
C87 C 0.98279 0.70705 0.0414 0.0
C88 C 0.00145 0.65291 0.97874 0.0
C89 C 0.00056 0.62001 0.02997 0.0
C90 C 0.00211 0.81501 0.10109 0.0
C91 C 0.04082 0.83034 0.11056 0.0
C92 C 0.08456 0.81593 0.10104 0.0
C93 C 0.08967 0.78605 0.08374 0.0
C94 C 0.05077 0.77039 0.07546 0.0
C95 C 0.00782 0.78511 0.08371 0.0
C96 C 0.97037 0.76527 0.07201 0.0
C97 C -0.00192 0.73564 0.05642 0.0
C98 C 0.04519 0.73887 0.05848 0.0
C99 C 0.94166 0.78768 0.04916 0.0
C100 C 0.94266 0.75377 0.09947 0.0
H101 H 0.07871 0.619 0.9984 0.0
H102 H 0.21425 0.67925 0.0223 0.0
H103 H 0.15013 0.68224 0.08459 0.0
H104 H 0.13285 0.72481 0.09331 0.0
H105 H 0.18766 0.71374 0.07516 0.0
H106 H 0.14119 0.73648 0.00023 0.0
H107 H 0.18248 0.74402 0.02862 0.0
H108 H 0.12569 0.76585 0.02943 0.0
H109 H 0.91178 0.62925 0.99288 0.0
H110 H 0.82066 0.71125 0.03083 0.0
H111 H 0.88552 0.73642 0.05188 0.0
H112 H 0.97999 0.67316 0.96672 0.0
H113 H -0.006 0.62828 0.96884 0.0
H114 H 0.03691 0.65746 0.97278 0.0
H115 H 0.97894 0.61941 0.05083 0.0
H116 H 0.03603 0.61517 0.03812 0.0
H117 H -0.00738 0.59869 0.01512 0.0
H118 H 0.15229 0.59574 0.98113 0.0
C119 C 0.10715 0.63259 0.00432 0.0
C120 C 0.55328 0.73791 0.59327 0.0
C121 C 0.59047 0.7134 0.598 0.0
C122 C 0.63274 0.71734 0.58386 0.0
C123 C 0.60065 0.7692 0.56033 0.0
C124 C 0.55926 0.76569 0.57462 0.0
C125 C 0.52439 0.79527 0.56871 0.0
H126 H 0.46953 0.9428 0.49457 0.0
C127 C 0.59595 0.80106 0.54301 0.0
C128 C 0.55138 0.81668 0.54803 0.0
H129 H 0.38273 0.89148 0.55496 0.0
H130 H 0.44525 0.84883 0.56483 0.0
H131 H 0.5618 0.93254 0.53618 0.0
H132 H 0.50786 0.88145 0.4605 0.0
H133 H 0.56726 0.8759 0.45506 0.0
H134 H 0.53812 0.91811 0.45549 0.0
H135 H 0.55895 0.94922 0.49841 0.0
H136 H 0.60778 0.92206 0.51096 0.0
C137 C 0.51164 0.81333 0.59934 0.0
C138 C 0.48347 0.78192 0.55222 0.0
C139 C 0.72885 0.83481 0.47815 0.0
C140 C 0.7329 0.86236 0.45862 0.0
C141 C 0.69484 0.88607 0.45431 0.0
C142 C 0.6538 0.88333 0.46989 0.0
C143 C 0.65031 0.8562 0.48977 0.0
C144 C 0.6871 0.83219 0.49333 0.0
C145 C 0.67603 0.80452 0.51466 0.0
C146 C 0.62677 0.81627 0.52347 0.0
C147 C 0.61233 0.84668 0.50898 0.0
C148 C 0.70845 0.80467 0.54218 0.0
C149 C 0.67981 0.77082 0.49648 0.0
C150 C 0.46422 0.92279 0.51047 0.0
C151 C 0.42144 0.92094 0.52429 0.0
C152 C 0.41564 0.89413 0.54447 0.0
C153 C 0.45188 0.86905 0.54987 0.0
C154 C 0.49416 0.87076 0.53489 0.0
C155 C 0.49972 0.8977 0.51597 0.0
C156 C 0.54604 0.89546 0.50118 0.0
C157 C 0.56779 0.86275 0.51436 0.0
C158 C 0.53743 0.84811 0.53397 0.0
C159 C 0.57011 0.92644 0.51192 0.0
C160 C 0.53986 0.89282 0.46625 0.0
H161 H 0.67107 0.74641 0.55478 0.0
H162 H 0.52082 0.73631 0.60477 0.0
H163 H 0.49569 0.76308 0.5344 0.0
H164 H 0.46216 0.80193 0.54027 0.0
H165 H 0.46146 0.76933 0.56839 0.0
H166 H 0.54189 0.81276 0.61438 0.0
H167 H 0.48467 0.80088 0.61157 0.0
H168 H 0.50017 0.84045 0.59668 0.0
H169 H 0.75711 0.81563 0.4814 0.0
H170 H 0.69717 0.90734 0.43926 0.0
H171 H 0.6265 0.90263 0.46587 0.0
H172 H 0.7165 0.83081 0.54766 0.0
H173 H 0.74132 0.78914 0.53744 0.0
H174 H 0.69306 0.79569 0.56326 0.0
H175 H 0.66584 0.77484 0.47325 0.0
H176 H 0.6598 0.75159 0.50663 0.0
H177 H 0.71604 0.76011 0.49404 0.0
H178 H 0.66194 0.69905 0.58766 0.0
C179 C 0.63796 0.74489 0.56487 0.0
C180 C 0.68548 0.11283 0.52514 0.0
C181 C 0.68302 0.08295 0.50798 0.0
C182 C 0.64013 0.07351 0.4995 0.0
C183 C 0.60306 0.12471 0.52228 0.0
C184 C 0.64495 0.13341 0.53193 0.0
C185 C 0.64075 0.16748 0.54772 0.0
H186 H 0.50598 0.3091 0.59058 0.0
C187 C 0.56826 0.15286 0.52984 0.0
C188 C 0.58971 0.17804 0.54495 0.0
H189 H 0.64978 0.2842 0.60845 0.0
H190 H 0.6483 0.23115 0.58152 0.0
H191 H 0.50969 0.27935 0.51912 0.0
H192 H 0.47572 0.23724 0.60566 0.0
H193 H 0.43642 0.22541 0.57869 0.0
H194 H 0.43859 0.26959 0.58771 0.0
H195 H 0.45999 0.29502 0.54093 0.0
H196 H 0.45908 0.25939 0.51553 0.0
C197 C 0.66987 0.19125 0.52982 0.0
C198 C 0.65508 0.16204 0.5812 0.0
C199 C 0.40869 0.14715 0.49039 0.0
C200 C 0.36839 0.16891 0.49197 0.0
C201 C 0.36783 0.19953 0.5085 0.0
C202 C 0.40767 0.2084 0.52276 0.0
C203 C 0.44816 0.18635 0.5205 0.0
C204 C 0.44767 0.1561 0.50488 0.0
C205 C 0.4929 0.13529 0.50487 0.0
C206 C 0.52127 0.15813 0.52272 0.0
C207 C 0.4953 0.18817 0.53165 0.0
C208 C 0.50958 0.13071 0.47135 0.0
C209 C 0.4869 0.10186 0.5219 0.0
C210 C 0.53751 0.29278 0.58808 0.0
C211 C 0.57847 0.30131 0.60117 0.0
C212 C 0.61801 0.27837 0.59829 0.0
C213 C 0.61705 0.24751 0.58278 0.0
C214 C 0.57591 0.2392 0.57008 0.0
C215 C 0.53704 0.26171 0.57278 0.0
C216 C 0.49604 0.24809 0.55867 0.0
C217 C 0.51663 0.21367 0.54736 0.0
C218 C 0.56357 0.20864 0.55397 0.0
C219 C 0.47989 0.27165 0.53224 0.0
C220 C 0.45942 0.24504 0.58379 0.0
H221 H 0.56877 0.08558 0.49897 0.0
H222 H 0.71814 0.12113 0.5314 0.0
H223 H 0.64513 0.13747 0.58976 0.0
H224 H 0.63782 0.18126 0.59677 0.0
H225 H 0.6927 0.16181 0.58364 0.0
H226 H 0.66603 0.1876 0.50494 0.0
H227 H 0.70673 0.186 0.53517 0.0
H228 H 0.65937 0.2183 0.53409 0.0
H229 H 0.40992 0.12339 0.47798 0.0
H230 H 0.33714 0.21695 0.50977 0.0
H231 H 0.40557 0.23215 0.53473 0.0
H232 H 0.4983 0.1534 0.45766 0.0
H233 H 0.49568 0.10861 0.46051 0.0
H234 H 0.54717 0.12796 0.46883 0.0
H235 H 0.4593 0.10553 0.53946 0.0
H236 H 0.51767 0.09239 0.5347 0.0
H237 H 0.47773 0.0818 0.50604 0.0
H238 H 0.63766 0.05073 0.48616 0.0
C239 C 0.60018 0.09397 0.50682 0.0
Zn240 Zn 0.01876 0.06756 0.35308 0.0
Zn241 Zn 0.12321 0.95122 0.35637 0.0
Zn242 Zn 0.06923 0.0092 0.3569 0.0
C243 C 0.10802 0.9662 0.2964 0.0
C244 C 0.03754 0.94041 0.38338 0.0
O245 O 0.10427 0.04655 0.38323 0.0
O246 O 0.05449 0.09218 0.38244 0.0
C247 C 0.05049 0.05273 0.29494 0.0
O248 O 0.0838 0.99126 0.30935 0.0
O249 O 0.13218 0.945 0.31204 0.0
O250 O 0.07665 0.92561 0.37739 0.0
O251 O 0.02804 0.97194 0.37718 0.0
O252 O 0.02764 0.0763 0.30942 0.0
O253 O 0.06633 0.02566 0.30878 0.0
O254 O 0.00288 1.00471 0.3794 0.0
O255 O 0.96107 0.05249 0.36888 0.0
C256 C 0.96517 0.02402 0.3817 0.0
O257 O 0.1287 0.0139 0.3866 0.0
O258 O 0.17267 0.96564 0.38158 0.0
C259 C 0.09189 0.07742 0.39129 0.0
C260 C 0.16474 0.99455 0.39367 0.0
Zn261 Zn 0.54772 0.57814 0.84284 0.0
Zn262 Zn 0.57169 0.44366 0.83579 0.0
Zn263 Zn 0.56175 0.5109 0.83811 0.0
C264 C 0.56533 0.46594 0.77586 0.0
C265 C 0.49546 0.46042 0.87139 0.0
O266 O 0.62045 0.52963 0.86244 0.0
O267 O 0.60188 0.58477 0.86741 0.0
C268 C 0.55335 0.56103 0.78059 0.0
O269 O 0.56141 0.4951 0.78925 0.0
O270 O 0.57055 0.43922 0.79133 0.0
O271 O 0.51735 0.43432 0.86006 0.0
O272 O 0.50715 0.49004 0.86508 0.0
O273 O 0.5503 0.58608 0.7986 0.0
O274 O 0.55654 0.53066 0.79106 0.0
O275 O 0.49724 0.52525 0.86322 0.0
O276 O 0.4876 0.58122 0.86402 0.0
C277 C 0.47368 0.55314 0.87086 0.0
O278 O 0.62714 0.4941 0.86007 0.0
O279 O 0.63097 0.43824 0.85674 0.0
C280 C 0.62907 0.55888 0.87254 0.0
C281 C 0.64777 0.46467 0.86552 0.0
H282 H 0.13755 0.16932 0.15341 0.0
C283 C 0.11583 0.1679 0.13369 0.0
H284 H 0.06632 0.14152 0.11202 0.0
H285 H 0.14195 0.06198 0.24043 0.0
H286 H 0.21515 0.05164 0.21465 0.0
H287 H 0.22604 0.07223 0.1626 0.0
H288 H 0.16364 0.10408 0.13632 0.0
C289 C 0.08729 0.14344 0.132 0.0
C290 C 0.07806 0.12267 0.15907 0.0
C291 C 0.11395 0.10248 0.17345 0.0
C292 C 0.10692 0.08915 0.20288 0.0
C293 C 0.14453 0.07152 0.21766 0.0
C294 C 0.18695 0.06555 0.20315 0.0
C295 C 0.19314 0.07724 0.17388 0.0
C296 C 0.15721 0.09562 0.15913 0.0
H297 H 0.07116 0.03504 0.24841 0.0
C298 C 0.06005 0.05701 0.26227 0.0
H299 H 0.04532 0.10994 0.26402 0.0
H300 H -0.0005 0.15556 0.13567 0.0
H301 H 0.92412 0.16008 0.15875 0.0
H302 H 0.91092 0.1338 0.20825 0.0
H303 H 0.97347 0.10314 0.2351 0.0
C304 C 0.05665 0.08803 0.24998 0.0
C305 C 0.06318 0.09461 0.21706 0.0
C306 C 0.02603 0.11117 0.20096 0.0
C307 C 0.03347 0.12554 0.17209 0.0
C308 C -0.00402 0.14355 0.15739 0.0
C309 C 0.95236 0.14641 0.17042 0.0
C310 C 0.94493 0.13168 0.1983 0.0
C311 C 0.98119 0.1143 0.21352 0.0
H312 H 0.00066 0.87451 0.1323 0.0
C313 C 0.03444 0.86067 0.13085 0.0
H314 H 0.10093 0.85602 0.14954 0.0
H315 H 0.10603 0.9986 0.20799 0.0
H316 H 0.14839 0.00705 0.1614 0.0
H317 H 0.15001 0.96549 0.11935 0.0
H318 H 0.10907 0.91536 0.12357 0.0
C319 C 0.06709 0.8696 0.14969 0.0
C320 C 0.0588 0.89752 0.17243 0.0
C321 C 0.08256 0.92676 0.1695 0.0
C322 C 0.08186 0.95065 0.19374 0.0
C323 C 0.10602 0.97954 0.19033 0.0
C324 C 0.13028 0.98472 0.1637 0.0
C325 C 0.13115 0.96133 0.14001 0.0
C326 C 0.10767 0.93263 0.14275 0.0
H327 H 0.13209 0.94253 0.2533 0.0
C328 C 0.10456 0.95915 0.26371 0.0
H329 H 0.03575 0.97921 0.25989 0.0
H330 H 0.00781 0.8448 0.18548 0.0
H331 H 0.96263 0.83834 0.23088 0.0
H332 H 0.95941 0.88089 0.2721 0.0
H333 H 0.00176 0.93005 0.26812 0.0
C334 C 0.06501 0.9652 0.2488 0.0
C335 C 0.05753 0.94519 0.22089 0.0
C336 C 0.03064 0.91749 0.22287 0.0
C337 C 0.0318 0.89329 0.19882 0.0
C338 C 0.00727 0.86455 0.20248 0.0
C339 C 0.98132 0.86038 0.2286 0.0
C340 C 0.97956 0.8843 0.25181 0.0
C341 C 0.00406 0.91244 0.2492 0.0
H342 H 0.61734 0.67824 0.63356 0.0
C343 C 0.58746 0.68545 0.61983 0.0
H344 H 0.5199 0.67588 0.6098 0.0
H345 H 0.6183 0.55801 0.7058 0.0
H346 H 0.66938 0.54009 0.66387 0.0
H347 H 0.66321 0.56938 0.61462 0.0
H348 H 0.60624 0.61721 0.60723 0.0
C349 C 0.54965 0.66936 0.62378 0.0
C350 C 0.54576 0.64581 0.64977 0.0
C351 C 0.57766 0.61688 0.65325 0.0
C352 C 0.58004 0.59915 0.68128 0.0
C353 C 0.61419 0.57183 0.6848 0.0
C354 C 0.6438 0.56131 0.66091 0.0
C355 C 0.64039 0.57785 0.63319 0.0
C356 C 0.60782 0.60537 0.6293 0.0
H357 H 0.54401 0.5475 0.73202 0.0
C358 C 0.55182 0.56746 0.74752 0.0
H359 H 0.56529 0.6183 0.75286 0.0
H360 H 0.47499 0.69645 0.6488 0.0
H361 H 0.41874 0.71021 0.68864 0.0
H362 H 0.42057 0.6776 0.73616 0.0
H363 H 0.47915 0.63111 0.74413 0.0
C364 C 0.55808 0.59845 0.73699 0.0
C365 C 0.54924 0.60967 0.70526 0.0
C366 C 0.51374 0.63581 0.70029 0.0
C367 C 0.51213 0.65411 0.67264 0.0
C368 C 0.4776 0.68127 0.66909 0.0
C369 C 0.44502 0.68951 0.69184 0.0
C370 C 0.44609 0.6712 0.7186 0.0
C371 C 0.48 0.6447 0.72294 0.0
H372 H 0.60714 0.33134 0.63737 0.0
C373 C 0.58044 0.33209 0.62038 0.0
H374 H 0.52372 0.36195 0.6021 0.0
H375 H 0.48109 0.42802 0.73262 0.0
H376 H 0.41185 0.40115 0.72243 0.0
H377 H 0.40503 0.36769 0.67555 0.0
H378 H 0.46717 0.36086 0.63862 0.0
C379 C 0.55054 0.35998 0.61891 0.0
C380 C 0.55012 0.3867 0.64293 0.0
C381 C 0.51275 0.39128 0.66366 0.0
C382 C 0.51673 0.41035 0.69079 0.0
C383 C 0.47977 0.41353 0.7118 0.0
C384 C 0.43988 0.39835 0.70617 0.0
C385 C 0.43603 0.37954 0.67976 0.0
C386 C 0.47198 0.37583 0.65873 0.0
H387 H 0.55008 0.48487 0.7291 0.0
C388 C 0.56132 0.46279 0.74245 0.0
H389 H 0.57975 0.41002 0.74255 0.0
H390 H 0.62217 0.39084 0.60391 0.0
H391 H 0.68922 0.4209 0.61292 0.0
H392 H 0.69649 0.45305 0.66053 0.0
H393 H 0.63657 0.45553 0.6994 0.0
C394 C 0.56868 0.43209 0.72909 0.0
C395 C 0.55787 0.42475 0.69703 0.0
C396 C 0.59268 0.42386 0.67456 0.0
C397 C 0.58873 0.40494 0.64733 0.0
C398 C 0.62409 0.40429 0.62525 0.0
C399 C 0.66251 0.42156 0.63009 0.0
C400 C 0.6666 0.43968 0.65691 0.0
C401 C 0.63221 0.44081 0.67904 0.0
H402 H 0.26546 0.38878 0.94563 0.0
C403 C 0.26828 0.38348 0.96979 0.0
H404 H 0.30959 0.3861 0.00857 0.0
H405 H 0.48858 0.38075 0.92438 0.0
H406 H 0.50587 0.33269 0.95738 0.0
H407 H 0.449 0.31652 0.9948 0.0
H408 H 0.37473 0.34873 -0.00021 0.0
C409 C 0.30608 0.39058 0.98436 0.0
C410 C 0.34374 0.40426 0.96683 0.0
C411 C 0.38681 0.38515 0.96419 0.0
C412 C 0.41908 0.39401 0.94208 0.0
C413 C 0.46225 0.37473 0.94024 0.0
C414 C 0.47273 0.34714 0.95914 0.0
C415 C 0.44074 0.33806 0.98024 0.0
C416 C 0.39819 0.35672 0.98282 0.0
H417 H 0.44897 0.47767 0.90929 0.0
C418 C 0.45885 0.45673 0.89387 0.0
H419 H 0.45062 0.40628 0.88189 0.0
H420 H 0.27118 0.45246 0.97322 0.0
H421 H 0.25206 0.50002 0.9396 0.0
H422 H 0.30168 0.50981 0.89567 0.0
H423 H 0.37208 0.47427 0.88646 0.0
C424 C 0.4397 0.42755 0.8968 0.0
C425 C 0.40766 0.42145 0.92214 0.0
C426 C 0.36536 0.44167 0.92592 0.0
C427 C 0.33457 0.43405 0.94941 0.0
C428 C 0.29434 0.45613 0.95453 0.0
C429 C 0.28315 0.48355 0.93557 0.0
C430 C 0.31134 0.48932 0.91104 0.0
C431 C 0.35196 0.46876 0.90614 0.0
H432 H 0.79227 0.67318 0.9898 0.0
C433 C 0.82114 0.65504 0.99523 0.0
H434 H 0.84755 0.60339 0.99211 0.0
H435 H 0.65117 0.56142 0.95345 0.0
H436 H 0.6512 0.54438 0.00625 0.0
H437 H 0.71349 0.55715 0.04029 0.0
H438 H 0.77541 0.58825 0.02197 0.0
C439 C 0.82088 0.62277 0.98567 0.0
C440 C 0.78523 0.61278 0.9647 0.0
C441 C 0.75026 0.59368 0.97549 0.0
C442 C 0.71487 0.58568 0.95567 0.0
C443 C 0.67924 0.5678 0.96737 0.0
C444 C 0.67887 0.55782 0.99763 0.0
C445 C 0.71388 0.56512 0.01683 0.0
C446 C 0.7492 0.58293 0.00604 0.0
H447 H 0.69374 0.54051 0.89537 0.0
C448 C 0.66947 0.56236 0.89159 0.0
H449 H 0.65194 0.61428 0.90139 0.0
H450 H 0.85097 0.64563 0.9357 0.0
H451 H 0.85134 0.66227 0.88284 0.0
H452 H 0.78943 0.64902 0.84866 0.0
H453 H 0.72691 0.61878 0.86713 0.0
C454 C 0.67559 0.59197 0.90521 0.0
C455 C 0.71514 0.59636 0.92502 0.0
C456 C 0.75118 0.61424 0.91393 0.0
C457 C 0.78649 0.62225 0.93372 0.0
C458 C 0.82266 0.63952 0.92186 0.0
C459 C 0.82345 0.64907 0.8915 0.0
C460 C 0.78862 0.64159 0.87225 0.0
C461 C 0.75286 0.62433 0.88318 0.0
H462 H 0.83631 0.35132 0.98292 0.0
C463 C 0.86202 0.36853 0.98765 0.0
H464 H 0.8791 0.41902 0.98327 0.0
H465 H 0.76273 0.4026 0.8586 0.0
H466 H 0.8327 0.37064 0.84085 0.0
H467 H 0.89728 0.35743 0.87553 0.0
H468 H 0.89221 0.37591 0.92815 0.0
C469 C 0.8556 0.40054 0.97761 0.0
C470 C 0.81822 0.41094 0.95633 0.0
C471 C 0.82219 0.40037 0.92552 0.0
C472 C 0.78523 0.40825 0.90548 0.0
C473 C 0.78977 0.39713 0.87486 0.0
C474 C 0.82979 0.37887 0.86433 0.0
C475 C 0.86613 0.37142 0.88386 0.0
C476 C 0.86264 0.38204 0.91408 0.0
H477 H 0.70662 0.4835 0.88925 0.0
C478 C 0.68942 0.46128 0.88404 0.0
H479 H 0.6879 0.40874 0.89092 0.0
H480 H 0.80232 0.43803 0.0131 0.0
H481 H 0.7327 0.47071 0.03083 0.0
H482 H 0.66732 0.48269 0.99657 0.0
H483 H 0.67162 0.46345 0.94422 0.0
C484 C 0.70452 0.43133 0.89612 0.0
C485 C 0.74475 0.42704 0.91621 0.0
C486 C 0.74152 0.43883 0.94672 0.0
C487 C 0.77867 0.43107 0.96672 0.0
C488 C 0.77485 0.44306 0.99708 0.0
C489 C 0.73514 0.46178 0.00753 0.0
C490 C 0.6984 0.46869 0.9882 0.0
C491 C 0.70135 0.45746 0.95814 0.0
H492 H 0.2605 0.64156 0.98605 0.0
C493 C 0.23531 0.62329 0.98767 0.0
H494 H 0.22281 0.57262 0.97753 0.0
H495 H 0.35157 0.57647 0.86076 0.0
H496 H 0.27702 0.5762 0.83776 0.0
H497 H 0.207 0.57912 0.86946 0.0
H498 H 0.21112 0.5827 0.92435 0.0
C499 C 0.2463 0.59198 0.97628 0.0
C500 C 0.28881 0.58442 0.95798 0.0
C501 C 0.28579 0.58122 0.926 0.0
C502 C 0.32617 0.57899 0.90777 0.0
C503 C 0.3221 0.57757 0.87577 0.0
C504 C 0.27947 0.57751 0.86224 0.0
C505 C 0.24004 0.57918 0.88009 0.0
C506 C 0.24292 0.5812 0.91159 0.0
H507 H 0.41509 0.52876 0.88971 0.0
C508 C 0.43075 0.55233 0.88828 0.0
H509 H 0.42772 0.60333 0.90279 0.0
H510 H 0.30636 0.58498 0.01881 0.0
H511 H 0.38118 0.58305 0.04209 0.0
H512 H 0.45141 0.57906 0.0105 0.0
H513 H 0.44728 0.57692 0.95548 0.0
C514 C 0.41137 0.57994 0.90287 0.0
C515 C 0.3694 0.57905 0.9217 0.0
C516 C 0.37252 0.58029 0.95377 0.0
C517 C 0.33211 0.58285 0.97196 0.0
C518 C 0.33606 0.58368 0.00396 0.0
C519 C 0.37876 0.58239 0.01759 0.0
C520 C 0.4183 0.58013 -0.0002 0.0
C521 C 0.41545 0.57902 0.96825 0.0
H522 H 0.77324 0.88413 0.42266 0.0
C523 C 0.77592 0.86801 0.44256 0.0
H524 H 0.82168 0.84434 0.4744 0.0
H525 H 0.9413 0.89017 0.35219 0.0
H526 H 0.90501 0.84726 0.32438 0.0
H527 H 0.84822 0.81459 0.34946 0.0
H528 H 0.82699 0.82495 0.40243 0.0
C529 C 0.81768 0.85833 0.45335 0.0
C530 C 0.85819 0.87266 0.43992 0.0
C531 C 0.87132 0.86547 0.4093 0.0
C532 C 0.90475 0.88375 0.39505 0.0
C533 C 0.91622 0.87687 0.36416 0.0
C534 C 0.89573 0.85227 0.34795 0.0
C535 C 0.86371 0.83392 0.36206 0.0
C536 C 0.8516 0.84027 0.39239 0.0
H537 H 0.01671 0.89877 0.41149 0.0
C538 C 0.00399 0.92095 0.39866 0.0
H539 H 0.94535 0.94911 0.38159 0.0
H540 H 0.84168 0.89224 0.49925 0.0
H541 H 0.87937 0.93409 0.52719 0.0
H542 H 0.94054 0.9634 0.50322 0.0
H543 H 0.96401 0.95116 0.45108 0.0
C544 C 0.95885 0.92879 0.39628 0.0
C545 C 0.92613 0.90826 0.41177 0.0
C546 C 0.91513 0.91396 0.44292 0.0
C547 C 0.88068 0.89644 0.45694 0.0
C548 C 0.86819 0.90428 0.48754 0.0
C549 C 0.88951 0.92833 0.50388 0.0
C550 C 0.92387 0.94487 0.49037 0.0
C551 C 0.93684 0.93774 0.46033 0.0
H552 H 0.33591 0.14183 0.45572 0.0
C553 C 0.32874 0.1589 0.47501 0.0
H554 H 0.27631 0.18154 0.50395 0.0
H555 H 0.18389 0.13256 0.37351 0.0
H556 H 0.21783 0.17994 0.35096 0.0
H557 H 0.265 0.2152 0.38156 0.0
H558 H 0.2789 0.20302 0.43485 0.0
C559 C 0.28506 0.16681 0.48348 0.0
C560 C 0.2488 0.15074 0.46707 0.0
C561 C 0.23974 0.15892 0.4363 0.0
C562 C 0.21184 0.13905 0.41886 0.0
C563 C 0.20464 0.14699 0.38787 0.0
C564 C 0.22385 0.17414 0.37465 0.0
C565 C 0.25045 0.19396 0.39187 0.0
C566 C 0.25839 0.18659 0.42235 0.0
H567 H 0.10259 0.11777 0.42415 0.0
C568 C 0.1197 0.09632 0.4117 0.0
H569 H 0.18348 0.07046 0.39966 0.0
H570 H 0.25841 0.1289 0.52572 0.0
H571 H 0.22188 0.083 0.54877 0.0
H572 H 0.16849 0.05148 0.51955 0.0
H573 H 0.15188 0.06543 0.46701 0.0
C574 C 0.16505 0.08987 0.41375 0.0
C575 C 0.19168 0.1119 0.43258 0.0
C576 C 0.19789 0.10536 0.46394 0.0
C577 C 0.22732 0.12435 0.48107 0.0
C578 C 0.23573 0.11566 0.51178 0.0
C579 C 0.21497 0.08938 0.5253 0.0
C580 C 0.18501 0.07158 0.50883 0.0
C581 C 0.17615 0.07957 0.47859 0.0
H582 H 0.38682 0.95455 0.49062 0.0
C583 C 0.38286 0.94437 0.5133 0.0
H584 H 0.33717 0.9419 0.55042 0.0
H585 H 0.26319 0.04237 0.43293 0.0
H586 H 0.3155 0.08169 0.4511 0.0
H587 H 0.36138 0.06918 0.49706 0.0
H588 H 0.35575 0.01663 0.52483 0.0
C589 C 0.34256 0.95145 0.52779 0.0
C590 C 0.30287 0.96654 0.51002 0.0
C591 C 0.3051 0.99779 0.49491 0.0
C592 C 0.27797 1.00537 0.46886 0.0
C593 C 0.28278 0.03567 0.45303 0.0
C594 C 0.3126 0.05841 0.46327 0.0
C595 C 0.33848 0.05133 0.48914 0.0
C596 C 0.33512 0.02123 0.50477 0.0
H597 H 0.17823 0.02246 0.43554 0.0
C598 C 0.19248 1.00314 0.41981 0.0
H599 H 0.24332 0.9628 0.41219 0.0
H600 H 0.28064 0.90975 0.53955 0.0
H601 H 0.22203 0.87396 0.52495 0.0
H602 H 0.17389 0.88767 0.48027 0.0
H603 H 0.18437 0.9372 0.44983 0.0
C604 C 0.23017 0.9833 0.42732 0.0
C605 C 0.24808 0.98197 0.45868 0.0
C606 C 0.24033 0.95373 0.47684 0.0
C607 C 0.26773 0.94602 0.50269 0.0
C608 C 0.26076 0.91679 0.51967 0.0
C609 C 0.22712 0.89609 0.51159 0.0
C610 C 0.20003 0.9038 0.48643 0.0
C611 C 0.2065 0.93219 0.46911 0.0
H612 H 0.72041 0.05455 0.47122 0.0
C613 C 0.724 0.06416 0.49419 0.0
H614 H 0.76937 0.06954 0.53022 0.0
H615 H 0.8556 0.98008 0.40652 0.0
H616 H 0.80413 0.93834 0.41992 0.0
H617 H 0.75594 0.94517 0.46632 0.0
H618 H 0.75727 0.9952 0.4986 0.0
C619 C 0.76522 0.06038 0.50724 0.0
C620 C 0.80616 0.04901 0.4882 0.0
C621 C 0.80758 0.01854 0.471 0.0
C622 C 0.83708 0.01367 0.44524 0.0
C623 C 0.83478 0.9846 0.42681 0.0
C624 C 0.80536 0.96041 0.43429 0.0
C625 C 0.77809 0.96436 0.46031 0.0
C626 C 0.779 0.99312 0.47852 0.0
H627 H 0.93867 0.99601 0.41997 0.0
C628 C 0.93007 0.01613 0.40397 0.0
H629 H 0.88458 0.05867 0.39355 0.0
H630 H 0.81952 0.10643 0.52075 0.0
H631 H 0.876 0.14539 0.51019 0.0
H632 H 0.93 0.1354 0.46705 0.0
H633 H 0.92732 0.08653 0.434 0.0
C634 C 0.8922 0.03734 0.40861 0.0
C635 C 0.86679 0.03844 0.43792 0.0
C636 C 0.87001 0.0664 0.45772 0.0
C637 C 0.83949 0.07181 0.48288 0.0
C638 C 0.84199 0.10086 0.50141 0.0
C639 C 0.87439 0.12345 0.49565 0.0
C640 C 0.90476 0.11785 0.47136 0.0
C641 C 0.90272 0.08976 0.45251 0.0
loop_
_geom_bond_atom_site_label_1
_geom_bond_atom_site_label_2
_geom_bond_distance
_geom_bond_site_symmetry_2
_ccdc_geom_bond_type
C0 C1 1.391 . S
C0 C4 1.391 . S
C0 H42 0.948 . S
C1 C0 1.391 . S
C1 C2 1.391 . S
C2 C1 1.391 . S
C2 H58 0.947 . S
C2 C59 1.392 . S
C3 C4 1.391 . S
C3 C7 1.397 . S
C3 C59 1.419 . S
C4 C0 1.391 . S
C4 C3 1.391 . S
C4 C5 1.399 . S
C5 C4 1.399 . S
C5 C8 1.396 . S
C5 C17 1.453 . S
C5 C18 1.684 . S
H6 C30 0.948 . S
C7 C3 1.397 . S
C7 C8 1.394 . S
C7 C26 1.723 . S
C8 C5 1.396 . S
C8 C7 1.394 . S
C8 C38 1.723 . S
H9 C32 0.947 1_554 S
H10 C33 0.948 . S
H11 C39 0.982 . S
H12 C40 0.979 . S
H13 C40 0.980 . S
H14 C40 0.983 . S
H15 C39 0.979 . S
H16 C39 0.977 . S
C17 C5 1.453 . S
C17 H46 0.982 . S
C17 H47 0.979 . S
C17 H48 0.977 . S
C18 C5 1.684 . S
C18 H43 0.979 . S
C18 H44 0.980 . S
C18 H45 0.983 . S
C19 C20 1.391 . S
C19 C24 1.391 1_556 S
C19 H49 0.948 1_556 S
C20 C19 1.391 . S
C20 C21 1.391 . S
C21 C20 1.391 . S
C21 C22 1.392 . S
C21 H50 0.947 . S
C22 C21 1.392 . S
C22 C23 1.419 . S
C22 H51 0.948 . S
C23 C22 1.419 . S
C23 C24 1.391 1_556 S
C23 C27 1.397 1_556 S
C24 C19 1.391 1_554 S
C24 C23 1.391 1_554 S
C24 C25 1.399 . S
C25 C24 1.399 . S
C25 C26 1.396 . S
C25 C28 1.453 . S
C25 C29 1.684 . S
C26 C7 1.723 . S
C26 C25 1.396 . S
C26 C27 1.394 . S
C27 C23 1.397 1_554 S
C27 C26 1.394 . S
C27 C37 1.723 1_554 S
C28 C25 1.453 . S
C28 H52 0.982 . S
C28 H53 0.979 . S
C28 H54 0.977 . S
C29 C25 1.684 . S
C29 H55 0.979 . S
C29 H56 0.980 . S
C29 H57 0.983 . S
C30 H6 0.948 . S
C30 C31 1.391 . S
C30 C35 1.391 1_655 S
C31 C30 1.391 . S
C31 C32 1.391 . S
C32 H9 0.947 1_556 S
C32 C31 1.391 . S
C32 C33 1.392 1_556 S
C33 H10 0.948 . S
C33 C32 1.392 1_554 S
C33 C34 1.419 1_655 S
C34 C33 1.419 1_455 S
C34 C35 1.391 1_554 S
C34 C38 1.397 . S
C35 C30 1.391 1_455 S
C35 C34 1.391 1_556 S
C35 C36 1.399 . S
C36 C35 1.399 . S
C36 C37 1.396 . S
C36 C39 1.453 . S
C36 C40 1.684 . S
C37 C27 1.723 1_556 S
C37 C36 1.396 . S
C37 C38 1.394 1_556 S
C38 C8 1.723 . S
C38 C34 1.397 . S
C38 C37 1.394 1_554 S
C39 H11 0.982 . S
C39 H15 0.979 . S
C39 H16 0.977 . S
C39 C36 1.453 . S
C40 H12 0.979 . S
C40 H13 0.980 . S
C40 H14 0.983 . S
C40 C36 1.684 . S
H41 C59 0.948 . S
H42 C0 0.948 . S
H43 C18 0.979 . S
H44 C18 0.980 . S
H45 C18 0.983 . S
H46 C17 0.982 . S
H47 C17 0.979 . S
H48 C17 0.977 . S
H49 C19 0.948 1_554 S
H50 C21 0.947 . S
H51 C22 0.948 . S
H52 C28 0.982 . S
H53 C28 0.979 . S
H54 C28 0.977 . S
H55 C29 0.979 . S
H56 C29 0.980 . S
H57 C29 0.983 . S
H58 C2 0.947 . S
C59 C2 1.392 . S
C59 C3 1.419 . S
C59 H41 0.948 . S
C60 C61 1.391 . S
C60 C64 1.391 1_556 S
C60 H102 0.948 1_556 S
C61 C60 1.391 . S
C61 C62 1.391 . S
C62 C61 1.391 . S
C62 H118 0.947 . S
C62 C119 1.392 . S
C63 C64 1.391 1_556 S
C63 C67 1.397 1_556 S
C63 C119 1.419 . S
C64 C60 1.391 1_554 S
C64 C63 1.391 1_554 S
C64 C65 1.399 . S
C65 C64 1.399 . S
C65 C68 1.396 . S
C65 C77 1.453 . S
C65 C78 1.684 . S
H66 C90 0.948 . S
C67 C63 1.397 1_554 S
C67 C68 1.394 . S
C67 C86 1.723 1_454 S
C68 C65 1.396 . S
C68 C67 1.394 . S
C68 C98 1.723 . S
H69 C92 0.947 . S
H70 C93 0.948 . S
H71 C99 0.982 . S
H72 C100 0.979 . S
H73 C100 0.980 . S
H74 C100 0.983 . S
H75 C99 0.979 . S
H76 C99 0.977 . S
C77 C65 1.453 . S
C77 H106 0.982 . S
C77 H107 0.979 . S
C77 H108 0.977 . S
C78 C65 1.684 . S
C78 H103 0.979 . S
C78 H104 0.980 . S
C78 H105 0.983 . S
C79 C80 1.391 . S
C79 C84 1.391 . S
C79 H109 0.948 . S
C80 C79 1.391 . S
C80 C81 1.391 1_556 S
C81 C80 1.391 1_554 S
C81 C82 1.392 . S
C81 H110 0.947 . S
C82 C81 1.392 . S
C82 C83 1.419 . S
C82 H111 0.948 . S
C83 C82 1.419 . S
C83 C84 1.391 1_554 S
C83 C87 1.397 . S
C84 C79 1.391 . S
C84 C83 1.391 1_556 S
C84 C85 1.399 . S
C85 C84 1.399 . S
C85 C86 1.396 . S
C85 C88 1.453 . S
C85 C89 1.684 . S
C86 C67 1.723 1_656 S
C86 C85 1.396 . S
C86 C87 1.394 1_556 S
C87 C83 1.397 . S
C87 C86 1.394 1_554 S
C87 C97 1.723 . S
C88 C85 1.453 . S
C88 H112 0.982 . S
C88 H113 0.979 . S
C88 H114 0.977 1_655 S
C89 C85 1.684 . S
C89 H115 0.979 . S
C89 H116 0.980 1_655 S
C89 H117 0.983 . S
C90 H66 0.948 . S
C90 C91 1.391 1_655 S
C90 C95 1.391 . S
C91 C90 1.391 1_455 S
C91 C92 1.391 . S
C92 H69 0.947 . S
C92 C91 1.391 . S
C92 C93 1.392 . S
C93 H70 0.948 . S
C93 C92 1.392 . S
C93 C94 1.419 . S
C94 C93 1.419 . S
C94 C95 1.391 1_455 S
C94 C98 1.397 . S
C95 C90 1.391 . S
C95 C94 1.391 1_655 S
C95 C96 1.399 . S
C96 C95 1.399 . S
C96 C97 1.396 . S
C96 C99 1.453 . S
C96 C100 1.684 . S
C97 C87 1.723 . S
C97 C96 1.396 . S
C97 C98 1.394 1_655 S
C98 C68 1.723 . S
C98 C94 1.397 . S
C98 C97 1.394 1_455 S
C99 H71 0.982 . S
C99 H75 0.979 . S
C99 H76 0.977 . S
C99 C96 1.453 . S
C100 H72 0.979 . S
C100 H73 0.980 . S
C100 H74 0.983 . S
C100 C96 1.684 . S
H101 C119 0.948 . S
H102 C60 0.948 1_554 S
H103 C78 0.979 . S
H104 C78 0.980 . S
H105 C78 0.983 . S
H106 C77 0.982 . S
H107 C77 0.979 . S
H108 C77 0.977 . S
H109 C79 0.948 . S
H110 C81 0.947 . S
H111 C82 0.948 . S
H112 C88 0.982 . S
H113 C88 0.979 . S
H114 C88 0.977 1_455 S
H115 C89 0.979 . S
H116 C89 0.980 1_455 S
H117 C89 0.983 . S
H118 C62 0.947 . S
C119 C62 1.392 . S
C119 C63 1.419 . S
C119 H101 0.948 . S
C120 C121 1.391 . S
C120 C124 1.391 . S
C120 H162 0.948 . S
C121 C120 1.391 . S
C121 C122 1.391 . S
C122 C121 1.391 . S
C122 H178 0.947 . S
C122 C179 1.392 . S
C123 C124 1.391 . S
C123 C127 1.397 . S
C123 C179 1.419 . S
C124 C120 1.391 . S
C124 C123 1.391 . S
C124 C125 1.399 . S
C125 C124 1.399 . S
C125 C128 1.396 . S
C125 C137 1.453 . S
C125 C138 1.684 . S
H126 C150 0.948 . S
C127 C123 1.397 . S
C127 C128 1.394 . S
C127 C146 1.723 . S
C128 C125 1.396 . S
C128 C127 1.394 . S
C128 C158 1.723 . S
H129 C152 0.947 . S
H130 C153 0.948 . S
H131 C159 0.982 . S
H132 C160 0.979 . S
H133 C160 0.980 . S
H134 C160 0.983 . S
H135 C159 0.979 . S
H136 C159 0.977 . S
C137 C125 1.453 . S
C137 H166 0.982 . S
C137 H167 0.979 . S
C137 H168 0.977 . S
C138 C125 1.684 . S
C138 H163 0.979 . S
C138 H164 0.980 . S
C138 H165 0.983 . S
C139 C140 1.391 . S
C139 C144 1.391 . S
C139 H169 0.948 . S
C140 C139 1.391 . S
C140 C141 1.391 . S
C141 C140 1.391 . S
C141 C142 1.392 . S
C141 H170 0.947 . S
C142 C141 1.392 . S
C142 C143 1.419 . S
C142 H171 0.948 . S
C143 C142 1.419 . S
C143 C144 1.391 . S
C143 C147 1.397 . S
C144 C139 1.391 . S
C144 C143 1.391 . S
C144 C145 1.399 . S
C145 C144 1.399 . S
C145 C146 1.396 . S
C145 C148 1.453 . S
C145 C149 1.684 . S
C146 C127 1.723 . S
C146 C145 1.396 . S
C146 C147 1.394 . S
C147 C143 1.397 . S
C147 C146 1.394 . S
C147 C157 1.723 . S
C148 C145 1.453 . S
C148 H172 0.982 . S
C148 H173 0.979 . S
C148 H174 0.977 . S
C149 C145 1.684 . S
C149 H175 0.979 . S
C149 H176 0.980 . S
C149 H177 0.983 . S
C150 H126 0.948 . S
C150 C151 1.391 . S
C150 C155 1.391 . S
C151 C150 1.391 . S
C151 C152 1.391 . S
C152 H129 0.947 . S
C152 C151 1.391 . S
C152 C153 1.392 . S
C153 H130 0.948 . S
C153 C152 1.392 . S
C153 C154 1.419 . S
C154 C153 1.419 . S
C154 C155 1.391 . S
C154 C158 1.397 . S
C155 C150 1.391 . S
C155 C154 1.391 . S
C155 C156 1.399 . S
C156 C155 1.399 . S
C156 C157 1.396 . S
C156 C159 1.453 . S
C156 C160 1.684 . S
C157 C147 1.723 . S
C157 C156 1.396 . S
C157 C158 1.394 . S
C158 C128 1.723 . S
C158 C154 1.397 . S
C158 C157 1.394 . S
C159 H131 0.982 . S
C159 H135 0.979 . S
C159 H136 0.977 . S
C159 C156 1.453 . S
C160 H132 0.979 . S
C160 H133 0.980 . S
C160 H134 0.983 . S
C160 C156 1.684 . S
H161 C179 0.948 . S
H162 C120 0.948 . S
H163 C138 0.979 . S
H164 C138 0.980 . S
H165 C138 0.983 . S
H166 C137 0.982 . S
H167 C137 0.979 . S
H168 C137 0.977 . S
H169 C139 0.948 . S
H170 C141 0.947 . S
H171 C142 0.948 . S
H172 C148 0.982 . S
H173 C148 0.979 . S
H174 C148 0.977 . S
H175 C149 0.979 . S
H176 C149 0.980 . S
H177 C149 0.983 . S
H178 C122 0.947 . S
C179 C122 1.392 . S
C179 C123 1.419 . S
C179 H161 0.948 . S
C180 C181 1.391 . S
C180 C184 1.391 . S
C180 H222 0.948 . S
C181 C180 1.391 . S
C181 C182 1.391 . S
C182 C181 1.391 . S
C182 H238 0.947 . S
C182 C239 1.392 . S
C183 C184 1.391 . S
C183 C187 1.397 . S
C183 C239 1.419 . S
C184 C180 1.391 . S
C184 C183 1.391 . S
C184 C185 1.399 . S
C185 C184 1.399 . S
C185 C188 1.396 . S
C185 C197 1.453 . S
C185 C198 1.684 . S
H186 C210 0.948 . S
C187 C183 1.397 . S
C187 C188 1.394 . S
C187 C206 1.723 . S
C188 C185 1.396 . S
C188 C187 1.394 . S
C188 C218 1.723 . S
H189 C212 0.947 . S
H190 C213 0.948 . S
H191 C219 0.982 . S
H192 C220 0.979 . S
H193 C220 0.980 . S
H194 C220 0.983 . S
H195 C219 0.979 . S
H196 C219 0.977 . S
C197 C185 1.453 . S
C197 H226 0.982 . S
C197 H227 0.979 . S
C197 H228 0.977 . S
C198 C185 1.684 . S
C198 H223 0.979 . S
C198 H224 0.980 . S
C198 H225 0.983 . S
C199 C200 1.391 . S
C199 C204 1.391 . S
C199 H229 0.948 . S
C200 C199 1.391 . S
C200 C201 1.391 . S
C201 C200 1.391 . S
C201 C202 1.392 . S
C201 H230 0.947 . S
C202 C201 1.392 . S
C202 C203 1.419 . S
C202 H231 0.948 . S
C203 C202 1.419 . S
C203 C204 1.391 . S
C203 C207 1.397 . S
C204 C199 1.391 . S
C204 C203 1.391 . S
C204 C205 1.399 . S
C205 C204 1.399 . S
C205 C206 1.396 . S
C205 C208 1.453 . S
C205 C209 1.684 . S
C206 C187 1.723 . S
C206 C205 1.396 . S
C206 C207 1.394 . S
C207 C203 1.397 . S
C207 C206 1.394 . S
C207 C217 1.723 . S
C208 C205 1.453 . S
C208 H232 0.982 . S
C208 H233 0.979 . S
C208 H234 0.977 . S
C209 C205 1.684 . S
C209 H235 0.979 . S
C209 H236 0.980 . S
C209 H237 0.983 . S
C210 H186 0.948 . S
C210 C211 1.391 . S
C210 C215 1.391 . S
C211 C210 1.391 . S
C211 C212 1.391 . S
C212 H189 0.947 . S
C212 C211 1.391 . S
C212 C213 1.392 . S
C213 H190 0.948 . S
C213 C212 1.392 . S
C213 C214 1.419 . S
C214 C213 1.419 . S
C214 C215 1.391 . S
C214 C218 1.397 . S
C215 C210 1.391 . S
C215 C214 1.391 . S
C215 C216 1.399 . S
C216 C215 1.399 . S
C216 C217 1.396 . S
C216 C219 1.453 . S
C216 C220 1.684 . S
C217 C207 1.723 . S
C217 C216 1.396 . S
C217 C218 1.394 . S
C218 C188 1.723 . S
C218 C214 1.397 . S
C218 C217 1.394 . S
C219 H191 0.982 . S
C219 H195 0.979 . S
C219 H196 0.977 . S
C219 C216 1.453 . S
C220 H192 0.979 . S
C220 H193 0.980 . S
C220 H194 0.983 . S
C220 C216 1.684 . S
H221 C239 0.948 . S
H222 C180 0.948 . S
H223 C198 0.979 . S
H224 C198 0.980 . S
H225 C198 0.983 . S
H226 C197 0.982 . S
H227 C197 0.979 . S
H228 C197 0.977 . S
H229 C199 0.948 . S
H230 C201 0.947 . S
H231 C202 0.948 . S
H232 C208 0.982 . S
H233 C208 0.979 . S
H234 C208 0.977 . S
H235 C209 0.979 . S
H236 C209 0.980 . S
H237 C209 0.983 . S
H238 C182 0.947 . S
C239 C182 1.392 . S
C239 C183 1.419 . S
C239 H221 0.948 . S
Zn240 O246 1.920 . S
Zn240 O252 1.898 . S
Zn240 O255 1.905 1_455 S
Zn241 O249 1.905 . S
Zn241 O250 1.898 . S
Zn241 O258 1.920 . S
Zn242 O245 2.080 . S
Zn242 O248 2.114 1_545 S
Zn242 O251 2.120 1_545 S
Zn242 O253 2.120 . S
Zn242 O254 2.114 . S
Zn242 O257 2.080 1_545 S
C243 O248 1.166 . S
C243 O249 1.182 . S
C244 O250 1.167 . S
C244 O251 1.299 . S
O245 Zn242 2.080 . S
O245 C259 1.305 . S
O246 Zn240 1.920 . S
O246 C259 1.234 . S
C247 O252 1.167 . S
C247 O253 1.299 . S
O248 Zn242 2.114 1_565 S
O248 C243 1.166 . S
O249 Zn241 1.905 . S
O249 C243 1.182 . S
O250 Zn241 1.898 . S
O250 C244 1.167 . S
O251 Zn242 2.120 1_565 S
O251 C244 1.299 . S
O252 Zn240 1.898 . S
O252 C247 1.167 . S
O253 Zn242 2.120 . S
O253 C247 1.299 . S
O254 Zn242 2.114 . S
O254 C256 1.166 1_455 S
O255 Zn240 1.905 1_655 S
O255 C256 1.182 . S
C256 O254 1.166 1_655 S
C256 O255 1.182 . S
O257 Zn242 2.080 1_565 S
O257 C260 1.305 . S
O258 Zn241 1.920 . S
O258 C260 1.234 . S
C259 O245 1.305 . S
C259 O246 1.234 . S
C260 O257 1.305 . S
C260 O258 1.234 . S
Zn261 O267 1.920 . S
Zn261 O273 1.898 . S
Zn261 O276 1.905 . S
Zn262 O270 1.905 . S
Zn262 O271 1.898 . S
Zn262 O279 1.920 . S
Zn263 O266 2.080 . S
Zn263 O269 2.114 . S
Zn263 O272 2.120 . S
Zn263 O274 2.120 . S
Zn263 O275 2.114 . S
Zn263 O278 2.080 . S
C264 O269 1.166 . S
C264 O270 1.182 . S
C265 O271 1.167 . S
C265 O272 1.299 . S
O266 Zn263 2.080 . S
O266 C280 1.305 . S
O267 Zn261 1.920 . S
O267 C280 1.234 . S
C268 O273 1.167 . S
C268 O274 1.299 . S
O269 Zn263 2.114 . S
O269 C264 1.166 . S
O270 Zn262 1.905 . S
O270 C264 1.182 . S
O271 Zn262 1.898 . S
O271 C265 1.167 . S
O272 Zn263 2.120 . S
O272 C265 1.299 . S
O273 Zn261 1.898 . S
O273 C268 1.167 . S
O274 Zn263 2.120 . S
O274 C268 1.299 . S
O275 Zn263 2.114 . S
O275 C277 1.166 . S
O276 Zn261 1.905 . S
O276 C277 1.182 . S
C277 O275 1.166 . S
C277 O276 1.182 . S
O278 Zn263 2.080 . S
O278 C281 1.305 . S
O279 Zn262 1.920 . S
O279 C281 1.234 . S
C280 O266 1.305 . S
C280 O267 1.234 . S
C281 O278 1.305 . S
C281 O279 1.234 . S
H282 C283 0.951 . S
C283 H282 0.951 . S
C283 C289 1.265 . S
H284 C289 0.950 . S
H285 C293 0.949 . S
H286 C294 0.950 1_565 S
H287 C295 0.951 . S
H288 C296 0.951 . S
C289 C283 1.265 . S
C289 H284 0.950 . S
C289 C290 1.478 . S
C290 C289 1.478 . S
C290 C291 1.397 . S
C290 C307 1.394 . S
C291 C290 1.397 . S
C291 C292 1.438 . S
C291 C296 1.429 . S
C292 C291 1.438 . S
C292 C293 1.428 . S
C292 C305 1.394 . S
C293 H285 0.949 . S
C293 C292 1.428 . S
C293 C294 1.345 . S
C294 H286 0.950 1_545 S
C294 C293 1.345 . S
C294 C295 1.424 . S
C295 H287 0.951 . S
C295 C294 1.424 . S
C295 C296 1.347 . S
C296 H288 0.951 . S
C296 C291 1.429 . S
C296 C295 1.347 . S
H297 C298 0.951 . S
C298 H297 0.951 . S
C298 C304 1.265 . S
H299 C304 0.950 . S
H300 C308 0.949 . S
H301 C309 0.950 . S
H302 C310 0.951 . S
H303 C311 0.951 . S
C304 C298 1.265 . S
C304 H299 0.950 . S
C304 C305 1.478 . S
C305 C292 1.394 . S
C305 C304 1.478 . S
C305 C306 1.397 . S
C306 C305 1.397 . S
C306 C307 1.438 . S
C306 C311 1.429 . S
C307 C290 1.394 . S
C307 C306 1.438 . S
C307 C308 1.428 . S
C308 H300 0.949 . S
C308 C307 1.428 . S
C308 C309 1.345 . S
C309 H301 0.950 . S
C309 C308 1.345 . S
C309 C310 1.424 . S
C310 H302 0.951 . S
C310 C309 1.424 . S
C310 C311 1.347 . S
C311 H303 0.951 . S
C311 C306 1.429 . S
C311 C310 1.347 . S
H312 C313 0.951 . S
C313 H312 0.951 . S
C313 C319 1.265 1_655 S
H314 C319 0.950 . S
H315 C323 0.949 . S
H316 C324 0.950 . S
H317 C325 0.951 . S
H318 C326 0.951 . S
C319 C313 1.265 1_455 S
C319 H314 0.950 . S
C319 C320 1.478 . S
C320 C319 1.478 . S
C320 C321 1.397 . S
C320 C337 1.394 1_455 S
C321 C320 1.397 . S
C321 C322 1.438 . S
C321 C326 1.429 . S
C322 C321 1.438 . S
C322 C323 1.428 . S
C322 C335 1.394 . S
C323 H315 0.949 . S
C323 C322 1.428 . S
C323 C324 1.345 . S
C324 H316 0.950 . S
C324 C323 1.345 . S
C324 C325 1.424 . S
C325 H317 0.951 . S
C325 C324 1.424 . S
C325 C326 1.347 . S
C326 H318 0.951 . S
C326 C321 1.429 . S
C326 C325 1.347 . S
H327 C328 0.951 . S
C328 H327 0.951 . S
C328 C334 1.265 . S
H329 C334 0.950 1_655 S
H330 C338 0.949 . S
H331 C339 0.950 . S
H332 C340 0.951 . S
H333 C341 0.951 . S
C334 C328 1.265 . S
C334 H329 0.950 1_455 S
C334 C335 1.478 . S
C335 C322 1.394 . S
C335 C334 1.478 . S
C335 C336 1.397 1_455 S
C336 C335 1.397 1_655 S
C336 C337 1.438 . S
C336 C341 1.429 . S
C337 C320 1.394 1_655 S
C337 C336 1.438 . S
C337 C338 1.428 . S
C338 H330 0.949 . S
C338 C337 1.428 . S
C338 C339 1.345 . S
C339 H331 0.950 . S
C339 C338 1.345 . S
C339 C340 1.424 . S
C340 H332 0.951 . S
C340 C339 1.424 . S
C340 C341 1.347 . S
C341 H333 0.951 . S
C341 C336 1.429 . S
C341 C340 1.347 . S
H342 C343 0.951 . S
C343 H342 0.951 . S
C343 C349 1.265 . S
H344 C349 0.950 . S
H345 C353 0.949 . S
H346 C354 0.950 . S
H347 C355 0.951 . S
H348 C356 0.951 . S
C349 C343 1.265 . S
C349 H344 0.950 . S
C349 C350 1.478 . S
C350 C349 1.478 . S
C350 C351 1.397 . S
C350 C367 1.394 . S
C351 C350 1.397 . S
C351 C352 1.438 . S
C351 C356 1.429 . S
C352 C351 1.438 . S
C352 C353 1.428 . S
C352 C365 1.394 . S
C353 H345 0.949 . S
C353 C352 1.428 . S
C353 C354 1.345 . S
C354 H346 0.950 . S
C354 C353 1.345 . S
C354 C355 1.424 . S
C355 H347 0.951 . S
C355 C354 1.424 . S
C355 C356 1.347 . S
C356 H348 0.951 . S
C356 C351 1.429 . S
C356 C355 1.347 . S
H357 C358 0.951 . S
C358 H357 0.951 . S
C358 C364 1.265 . S
H359 C364 0.950 . S
H360 C368 0.949 . S
H361 C369 0.950 . S
H362 C370 0.951 . S
H363 C371 0.951 . S
C364 C358 1.265 . S
C364 H359 0.950 . S
C364 C365 1.478 . S
C365 C352 1.394 . S
C365 C364 1.478 . S
C365 C366 1.397 . S
C366 C365 1.397 . S
C366 C367 1.438 . S
C366 C371 1.429 . S
C367 C350 1.394 . S
C367 C366 1.438 . S
C367 C368 1.428 . S
C368 H360 0.949 . S
C368 C367 1.428 . S
C368 C369 1.345 . S
C369 H361 0.950 . S
C369 C368 1.345 . S
C369 C370 1.424 . S
C370 H362 0.951 . S
C370 C369 1.424 . S
C370 C371 1.347 . S
C371 H363 0.951 . S
C371 C366 1.429 . S
C371 C370 1.347 . S
H372 C373 0.951 . S
C373 H372 0.951 . S
C373 C379 1.265 . S
H374 C379 0.950 . S
H375 C383 0.949 . S
H376 C384 0.950 . S
H377 C385 0.951 . S
H378 C386 0.951 . S
C379 C373 1.265 . S
C379 H374 0.950 . S
C379 C380 1.478 . S
C380 C379 1.478 . S
C380 C381 1.397 . S
C380 C397 1.394 . S
C381 C380 1.397 . S
C381 C382 1.438 . S
C381 C386 1.429 . S
C382 C381 1.438 . S
C382 C383 1.428 . S
C382 C395 1.394 . S
C383 H375 0.949 . S
C383 C382 1.428 . S
C383 C384 1.345 . S
C384 H376 0.950 . S
C384 C383 1.345 . S
C384 C385 1.424 . S
C385 H377 0.951 . S
C385 C384 1.424 . S
C385 C386 1.347 . S
C386 H378 0.951 . S
C386 C381 1.429 . S
C386 C385 1.347 . S
H387 C388 0.951 . S
C388 H387 0.951 . S
C388 C394 1.265 . S
H389 C394 0.950 . S
H390 C398 0.949 . S
H391 C399 0.950 . S
H392 C400 0.951 . S
H393 C401 0.951 . S
C394 C388 1.265 . S
C394 H389 0.950 . S
C394 C395 1.478 . S
C395 C382 1.394 . S
C395 C394 1.478 . S
C395 C396 1.397 . S
C396 C395 1.397 . S
C396 C397 1.438 . S
C396 C401 1.429 . S
C397 C380 1.394 . S
C397 C396 1.438 . S
C397 C398 1.428 . S
C398 H390 0.949 . S
C398 C397 1.428 . S
C398 C399 1.345 . S
C399 H391 0.950 . S
C399 C398 1.345 . S
C399 C400 1.424 . S
C400 H392 0.951 . S
C400 C399 1.424 . S
C400 C401 1.347 . S
C401 H393 0.951 . S
C401 C396 1.429 . S
C401 C400 1.347 . S
H402 C403 0.951 . S
C403 H402 0.951 . S
C403 C409 1.265 . S
H404 C409 0.950 . S
H405 C413 0.949 . S
H406 C414 0.950 . S
H407 C415 0.951 . S
H408 C416 0.951 . S
C409 C403 1.265 . S
C409 H404 0.950 . S
C409 C410 1.478 . S
C410 C409 1.478 . S
C410 C411 1.397 . S
C410 C427 1.394 . S
C411 C410 1.397 . S
C411 C412 1.438 . S
C411 C416 1.429 . S
C412 C411 1.438 . S
C412 C413 1.428 . S
C412 C425 1.394 . S
C413 H405 0.949 . S
C413 C412 1.428 . S
C413 C414 1.345 . S
C414 H406 0.950 . S
C414 C413 1.345 . S
C414 C415 1.424 . S
C415 H407 0.951 . S
C415 C414 1.424 . S
C415 C416 1.347 . S
C416 H408 0.951 . S
C416 C411 1.429 . S
C416 C415 1.347 . S
H417 C418 0.951 . S
C418 H417 0.951 . S
C418 C424 1.265 . S
H419 C424 0.950 . S
H420 C428 0.949 . S
H421 C429 0.950 1_554 S
H422 C430 0.951 . S
H423 C431 0.951 . S
C424 C418 1.265 . S
C424 H419 0.950 . S
C424 C425 1.478 . S
C425 C412 1.394 . S
C425 C424 1.478 . S
C425 C426 1.397 . S
C426 C425 1.397 . S
C426 C427 1.438 . S
C426 C431 1.429 . S
C427 C410 1.394 . S
C427 C426 1.438 . S
C427 C428 1.428 . S
C428 H420 0.949 . S
C428 C427 1.428 . S
C428 C429 1.345 . S
C429 H421 0.950 1_556 S
C429 C428 1.345 . S
C429 C430 1.424 . S
C430 H422 0.951 . S
C430 C429 1.424 . S
C430 C431 1.347 . S
C431 H423 0.951 . S
C431 C426 1.429 . S
C431 C430 1.347 . S
H432 C433 0.951 . S
C433 H432 0.951 . S
C433 C439 1.265 . S
H434 C439 0.950 . S
H435 C443 0.949 . S
H436 C444 0.950 . S
H437 C445 0.951 . S
H438 C446 0.951 . S
C439 C433 1.265 . S
C439 H434 0.950 . S
C439 C440 1.478 . S
C440 C439 1.478 . S
C440 C441 1.397 . S
C440 C457 1.394 . S
C441 C440 1.397 . S
C441 C442 1.438 . S
C441 C446 1.429 1_556 S
C442 C441 1.438 . S
C442 C443 1.428 . S
C442 C455 1.394 . S
C443 H435 0.949 . S
C443 C442 1.428 . S
C443 C444 1.345 1_556 S
C444 H436 0.950 . S
C444 C443 1.345 1_554 S
C444 C445 1.424 . S
C445 H437 0.951 . S
C445 C444 1.424 . S
C445 C446 1.347 . S
C446 H438 0.951 . S
C446 C441 1.429 1_554 S
C446 C445 1.347 . S
H447 C448 0.951 . S
C448 H447 0.951 . S
C448 C454 1.265 . S
H449 C454 0.950 . S
H450 C458 0.949 . S
H451 C459 0.950 . S
H452 C460 0.951 . S
H453 C461 0.951 . S
C454 C448 1.265 . S
C454 H449 0.950 . S
C454 C455 1.478 . S
C455 C442 1.394 . S
C455 C454 1.478 . S
C455 C456 1.397 . S
C456 C455 1.397 . S
C456 C457 1.438 . S
C456 C461 1.429 . S
C457 C440 1.394 . S
C457 C456 1.438 . S
C457 C458 1.428 . S
C458 H450 0.949 . S
C458 C457 1.428 . S
C458 C459 1.345 . S
C459 H451 0.950 . S
C459 C458 1.345 . S
C459 C460 1.424 . S
C460 H452 0.951 . S
C460 C459 1.424 . S
C460 C461 1.347 . S
C461 H453 0.951 . S
C461 C456 1.429 . S
C461 C460 1.347 . S
H462 C463 0.951 . S
C463 H462 0.951 . S
C463 C469 1.265 . S
H464 C469 0.950 . S
H465 C473 0.949 . S
H466 C474 0.950 . S
H467 C475 0.951 . S
H468 C476 0.951 . S
C469 C463 1.265 . S
C469 H464 0.950 . S
C469 C470 1.478 . S
C470 C469 1.478 . S
C470 C471 1.397 . S
C470 C487 1.394 . S
C471 C470 1.397 . S
C471 C472 1.438 . S
C471 C476 1.429 . S
C472 C471 1.438 . S
C472 C473 1.428 . S
C472 C485 1.394 . S
C473 H465 0.949 . S
C473 C472 1.428 . S
C473 C474 1.345 . S
C474 H466 0.950 . S
C474 C473 1.345 . S
C474 C475 1.424 . S
C475 H467 0.951 . S
C475 C474 1.424 . S
C475 C476 1.347 . S
C476 H468 0.951 . S
C476 C471 1.429 . S
C476 C475 1.347 . S
H477 C478 0.951 . S
C478 H477 0.951 . S
C478 C484 1.265 . S
H479 C484 0.950 . S
H480 C488 0.949 . S
H481 C489 0.950 . S
H482 C490 0.951 . S
H483 C491 0.951 . S
C484 C478 1.265 . S
C484 H479 0.950 . S
C484 C485 1.478 . S
C485 C472 1.394 . S
C485 C484 1.478 . S
C485 C486 1.397 . S
C486 C485 1.397 . S
C486 C487 1.438 . S
C486 C491 1.429 . S
C487 C470 1.394 . S
C487 C486 1.438 . S
C487 C488 1.428 . S
C488 H480 0.949 . S
C488 C487 1.428 . S
C488 C489 1.345 . S
C489 H481 0.950 . S
C489 C488 1.345 . S
C489 C490 1.424 . S
C490 H482 0.951 . S
C490 C489 1.424 . S
C490 C491 1.347 . S
C491 H483 0.951 . S
C491 C486 1.429 . S
C491 C490 1.347 . S
H492 C493 0.951 . S
C493 H492 0.951 . S
C493 C499 1.265 . S
H494 C499 0.950 . S
H495 C503 0.949 . S
H496 C504 0.950 . S
H497 C505 0.951 . S
H498 C506 0.951 . S
C499 C493 1.265 . S
C499 H494 0.950 . S
C499 C500 1.478 . S
C500 C499 1.478 . S
C500 C501 1.397 . S
C500 C517 1.394 . S
C501 C500 1.397 . S
C501 C502 1.438 . S
C501 C506 1.429 . S
C502 C501 1.438 . S
C502 C503 1.428 . S
C502 C515 1.394 . S
C503 H495 0.949 . S
C503 C502 1.428 . S
C503 C504 1.345 . S
C504 H496 0.950 . S
C504 C503 1.345 . S
C504 C505 1.424 . S
C505 H497 0.951 . S
C505 C504 1.424 . S
C505 C506 1.347 . S
C506 H498 0.951 . S
C506 C501 1.429 . S
C506 C505 1.347 . S
H507 C508 0.951 . S
C508 H507 0.951 . S
C508 C514 1.265 . S
H509 C514 0.950 . S
H510 C518 0.949 . S
H511 C519 0.950 1_554 S
H512 C520 0.951 . S
H513 C521 0.951 . S
C514 C508 1.265 . S
C514 H509 0.950 . S
C514 C515 1.478 . S
C515 C502 1.394 . S
C515 C514 1.478 . S
C515 C516 1.397 . S
C516 C515 1.397 . S
C516 C517 1.438 . S
C516 C521 1.429 . S
C517 C500 1.394 . S
C517 C516 1.438 . S
C517 C518 1.428 . S
C518 H510 0.949 . S
C518 C517 1.428 . S
C518 C519 1.345 . S
C519 H511 0.950 1_556 S
C519 C518 1.345 . S
C519 C520 1.424 . S
C520 H512 0.951 . S
C520 C519 1.424 . S
C520 C521 1.347 . S
C521 H513 0.951 . S
C521 C516 1.429 . S
C521 C520 1.347 . S
H522 C523 0.951 . S
C523 H522 0.951 . S
C523 C529 1.265 . S
H524 C529 0.950 . S
H525 C533 0.949 . S
H526 C534 0.950 . S
H527 C535 0.951 . S
H528 C536 0.951 . S
C529 C523 1.265 . S
C529 H524 0.950 . S
C529 C530 1.478 . S
C530 C529 1.478 . S
C530 C531 1.397 . S
C530 C547 1.394 . S
C531 C530 1.397 . S
C531 C532 1.438 . S
C531 C536 1.429 . S
C532 C531 1.438 . S
C532 C533 1.428 . S
C532 C545 1.394 . S
C533 H525 0.949 . S
C533 C532 1.428 . S
C533 C534 1.345 . S
C534 H526 0.950 . S
C534 C533 1.345 . S
C534 C535 1.424 . S
C535 H527 0.951 . S
C535 C534 1.424 . S
C535 C536 1.347 . S
C536 H528 0.951 . S
C536 C531 1.429 . S
C536 C535 1.347 . S
H537 C538 0.951 1_455 S
C538 H537 0.951 1_655 S
C538 C544 1.265 . S
H539 C544 0.950 . S
H540 C548 0.949 . S
H541 C549 0.950 . S
H542 C550 0.951 . S
H543 C551 0.951 . S
C544 C538 1.265 . S
C544 H539 0.950 . S
C544 C545 1.478 . S
C545 C532 1.394 . S
C545 C544 1.478 . S
C545 C546 1.397 . S
C546 C545 1.397 . S
C546 C547 1.438 . S
C546 C551 1.429 . S
C547 C530 1.394 . S
C547 C546 1.438 . S
C547 C548 1.428 . S
C548 H540 0.949 . S
C548 C547 1.428 . S
C548 C549 1.345 . S
C549 H541 0.950 . S
C549 C548 1.345 . S
C549 C550 1.424 . S
C550 H542 0.951 . S
C550 C549 1.424 . S
C550 C551 1.347 . S
C551 H543 0.951 . S
C551 C546 1.429 . S
C551 C550 1.347 . S
H552 C553 0.951 . S
C553 H552 0.951 . S
C553 C559 1.265 . S
H554 C559 0.950 . S
H555 C563 0.949 . S
H556 C564 0.950 . S
H557 C565 0.951 . S
H558 C566 0.951 . S
C559 C553 1.265 . S
C559 H554 0.950 . S
C559 C560 1.478 . S
C560 C559 1.478 . S
C560 C561 1.397 . S
C560 C577 1.394 . S
C561 C560 1.397 . S
C561 C562 1.438 . S
C561 C566 1.429 . S
C562 C561 1.438 . S
C562 C563 1.428 . S
C562 C575 1.394 . S
C563 H555 0.949 . S
C563 C562 1.428 . S
C563 C564 1.345 . S
C564 H556 0.950 . S
C564 C563 1.345 . S
C564 C565 1.424 . S
C565 H557 0.951 . S
C565 C564 1.424 . S
C565 C566 1.347 . S
C566 H558 0.951 . S
C566 C561 1.429 . S
C566 C565 1.347 . S
H567 C568 0.951 . S
C568 H567 0.951 . S
C568 C574 1.265 . S
H569 C574 0.950 . S
H570 C578 0.949 . S
H571 C579 0.950 . S
H572 C580 0.951 . S
H573 C581 0.951 . S
C574 C568 1.265 . S
C574 H569 0.950 . S
C574 C575 1.478 . S
C575 C562 1.394 . S
C575 C574 1.478 . S
C575 C576 1.397 . S
C576 C575 1.397 . S
C576 C577 1.438 . S
C576 C581 1.429 . S
C577 C560 1.394 . S
C577 C576 1.438 . S
C577 C578 1.428 . S
C578 H570 0.949 . S
C578 C577 1.428 . S
C578 C579 1.345 . S
C579 H571 0.950 . S
C579 C578 1.345 . S
C579 C580 1.424 . S
C580 H572 0.951 . S
C580 C579 1.424 . S
C580 C581 1.347 . S
C581 H573 0.951 . S
C581 C576 1.429 . S
C581 C580 1.347 . S
H582 C583 0.951 . S
C583 H582 0.951 . S
C583 C589 1.265 . S
H584 C589 0.950 . S
H585 C593 0.949 . S
H586 C594 0.950 . S
H587 C595 0.951 . S
H588 C596 0.951 . S
C589 C583 1.265 . S
C589 H584 0.950 . S
C589 C590 1.478 . S
C590 C589 1.478 . S
C590 C591 1.397 . S
C590 C607 1.394 . S
C591 C590 1.397 . S
C591 C592 1.438 . S
C591 C596 1.429 . S
C592 C591 1.438 . S
C592 C593 1.428 . S
C592 C605 1.394 . S
C593 H585 0.949 . S
C593 C592 1.428 . S
C593 C594 1.345 . S
C594 H586 0.950 . S
C594 C593 1.345 . S
C594 C595 1.424 . S
C595 H587 0.951 . S
C595 C594 1.424 . S
C595 C596 1.347 . S
C596 H588 0.951 . S
C596 C591 1.429 . S
C596 C595 1.347 . S
H597 C598 0.951 . S
C598 H597 0.951 . S
C598 C604 1.265 . S
H599 C604 0.950 . S
H600 C608 0.949 . S
H601 C609 0.950 . S
H602 C610 0.951 . S
H603 C611 0.951 . S
C604 C598 1.265 . S
C604 H599 0.950 . S
C604 C605 1.478 . S
C605 C592 1.394 . S
C605 C604 1.478 . S
C605 C606 1.397 . S
C606 C605 1.397 . S
C606 C607 1.438 . S
C606 C611 1.429 . S
C607 C590 1.394 . S
C607 C606 1.438 . S
C607 C608 1.428 . S
C608 H600 0.949 . S
C608 C607 1.428 . S
C608 C609 1.345 . S
C609 H601 0.950 . S
C609 C608 1.345 . S
C609 C610 1.424 . S
C610 H602 0.951 . S
C610 C609 1.424 . S
C610 C611 1.347 . S
C611 H603 0.951 . S
C611 C606 1.429 . S
C611 C610 1.347 . S
H612 C613 0.951 . S
C613 H612 0.951 . S
C613 C619 1.265 . S
H614 C619 0.950 . S
H615 C623 0.949 . S
H616 C624 0.950 . S
H617 C625 0.951 . S
H618 C626 0.951 . S
C619 C613 1.265 . S
C619 H614 0.950 . S
C619 C620 1.478 . S
C620 C619 1.478 . S
C620 C621 1.397 . S
C620 C637 1.394 . S
C621 C620 1.397 . S
C621 C622 1.438 . S
C621 C626 1.429 . S
C622 C621 1.438 . S
C622 C623 1.428 . S
C622 C635 1.394 . S
C623 H615 0.949 . S
C623 C622 1.428 . S
C623 C624 1.345 . S
C624 H616 0.950 . S
C624 C623 1.345 . S
C624 C625 1.424 . S
C625 H617 0.951 . S
C625 C624 1.424 . S
C625 C626 1.347 . S
C626 H618 0.951 . S
C626 C621 1.429 . S
C626 C625 1.347 . S
H627 C628 0.951 . S
C628 H627 0.951 . S
C628 C634 1.265 . S
H629 C634 0.950 . S
H630 C638 0.949 . S
H631 C639 0.950 . S
H632 C640 0.951 . S
H633 C641 0.951 . S
C634 C628 1.265 . S
C634 H629 0.950 . S
C634 C635 1.478 . S
C635 C622 1.394 . S
C635 C634 1.478 . S
C635 C636 1.397 . S
C636 C635 1.397 . S
C636 C637 1.438 . S
C636 C641 1.429 . S
C637 C620 1.394 . S
C637 C636 1.438 . S
C637 C638 1.428 . S
C638 H630 0.949 . S
C638 C637 1.428 . S
C638 C639 1.345 . S
C639 H631 0.950 . S
C639 C638 1.345 . S
C639 C640 1.424 . S
C640 H632 0.951 . S
C640 C639 1.424 . S
C640 C641 1.347 . S
C641 H633 0.951 . S
C641 C636 1.429 . S
C641 C640 1.347 . S
C298 C247 1.457 . S
C283 C1 1.508 . S
C328 C243 1.378 . S
C313 C91 1.507 1_655 S
C358 C268 1.442 . S
C343 C121 1.507 . S
C373 C211 1.427 . S
C388 C264 1.418 . S
C403 C20 1.112 . S
C418 C265 1.034 . S
C448 C280 1.176 . S
C433 C80 1.237 . S
C463 C31 1.695 . S
C478 C281 1.541 . S
C508 C277 1.630 . S
C493 C61 1.685 . S
C538 C244 0.963 1_655 S
C523 C140 1.121 . S
C553 C200 1.171 . S
C568 C259 0.990 . S
C598 C260 1.506 . S
C583 C151 1.711 . S
C628 C256 1.537 . S
C613 C181 1.617 . S
