# Generated by pormake.
# Topology ssb, (4,4)-cn, num edge types: 1
# Building blocks:
#     Node 0, Type 0, BuildingBlock: KUFVIS_clean_linker_0, # of connection points: 4
#     Node 1, Type 0, BuildingBlock: KUFVIS_clean_linker_0, # of connection points: 4
#     Node 2, Type 0, BuildingBlock: KUFVIS_clean_linker_0, # of connection points: 4
#     Node 3, Type 0, BuildingBlock: KUFVIS_clean_linker_0, # of connection points: 4
#     Node 4, Type 0, BuildingBlock: KUFVIS_clean_linker_0, # of connection points: 4
#     Node 5, Type 0, BuildingBlock: KUFVIS_clean_linker_0, # of connection points: 4
#     Node 6, Type 0, BuildingBlock: KUFVIS_clean_linker_0, # of connection points: 4
#     Node 7, Type 0, BuildingBlock: KUFVIS_clean_linker_0, # of connection points: 4
#     Node 8, Type 1, BuildingBlock: NAWXER_clean_sbu_0, # of connection points: 4
#     Node 9, Type 1, BuildingBlock: NAWXER_clean_sbu_0, # of connection points: 4
#     Node 10, Type 1, BuildingBlock: NAWXER_clean_sbu_0, # of connection points: 4
#     Node 11, Type 1, BuildingBlock: NAWXER_clean_sbu_0, # of connection points: 4
#     Node 12, Type 1, BuildingBlock: NAWXER_clean_sbu_0, # of connection points: 4
#     Node 13, Type 1, BuildingBlock: NAWXER_clean_sbu_0, # of connection points: 4
#     Node 14, Type 1, BuildingBlock: NAWXER_clean_sbu_0, # of connection points: 4
#     Node 15, Type 1, BuildingBlock: NAWXER_clean_sbu_0, # of connection points: 4
#     Edge 16, Type (0, 1), BuildingBlock: XUDNAN_clean_linker_2, # of connection points: 2
#     Edge 17, Type (0, 1), BuildingBlock: XUDNAN_clean_linker_2, # of connection points: 2
#     Edge 18, Type (0, 1), BuildingBlock: XUDNAN_clean_linker_2, # of connection points: 2
#     Edge 19, Type (0, 1), BuildingBlock: XUDNAN_clean_linker_2, # of connection points: 2
#     Edge 20, Type (0, 1), BuildingBlock: XUDNAN_clean_linker_2, # of connection points: 2
#     Edge 21, Type (0, 1), BuildingBlock: XUDNAN_clean_linker_2, # of connection points: 2
#     Edge 22, Type (0, 1), BuildingBlock: XUDNAN_clean_linker_2, # of connection points: 2
#     Edge 23, Type (0, 1), BuildingBlock: XUDNAN_clean_linker_2, # of connection points: 2
#     Edge 24, Type (0, 1), BuildingBlock: XUDNAN_clean_linker_2, # of connection points: 2
#     Edge 25, Type (0, 1), BuildingBlock: XUDNAN_clean_linker_2, # of connection points: 2
#     Edge 26, Type (0, 1), BuildingBlock: XUDNAN_clean_linker_2, # of connection points: 2
#     Edge 27, Type (0, 1), BuildingBlock: XUDNAN_clean_linker_2, # of connection points: 2
#     Edge 28, Type (0, 1), BuildingBlock: XUDNAN_clean_linker_2, # of connection points: 2
#     Edge 29, Type (0, 1), BuildingBlock: XUDNAN_clean_linker_2, # of connection points: 2
#     Edge 30, Type (0, 1), BuildingBlock: XUDNAN_clean_linker_2, # of connection points: 2
#     Edge 31, Type (0, 1), BuildingBlock: XUDNAN_clean_linker_2, # of connection points: 2
#     Edge 32, Type (0, 1), BuildingBlock: XUDNAN_clean_linker_2, # of connection points: 2
#     Edge 33, Type (0, 1), BuildingBlock: XUDNAN_clean_linker_2, # of connection points: 2
#     Edge 34, Type (0, 1), BuildingBlock: XUDNAN_clean_linker_2, # of connection points: 2
#     Edge 35, Type (0, 1), BuildingBlock: XUDNAN_clean_linker_2, # of connection points: 2
#     Edge 36, Type (0, 1), BuildingBlock: XUDNAN_clean_linker_2, # of connection points: 2
#     Edge 37, Type (0, 1), BuildingBlock: XUDNAN_clean_linker_2, # of connection points: 2
#     Edge 38, Type (0, 1), BuildingBlock: XUDNAN_clean_linker_2, # of connection points: 2
#     Edge 39, Type (0, 1), BuildingBlock: XUDNAN_clean_linker_2, # of connection points: 2
#     Edge 40, Type (0, 1), BuildingBlock: XUDNAN_clean_linker_2, # of connection points: 2
#     Edge 41, Type (0, 1), BuildingBlock: XUDNAN_clean_linker_2, # of connection points: 2
#     Edge 42, Type (0, 1), BuildingBlock: XUDNAN_clean_linker_2, # of connection points: 2
#     Edge 43, Type (0, 1), BuildingBlock: XUDNAN_clean_linker_2, # of connection points: 2
#     Edge 44, Type (0, 1), BuildingBlock: XUDNAN_clean_linker_2, # of connection points: 2
#     Edge 45, Type (0, 1), BuildingBlock: XUDNAN_clean_linker_2, # of connection points: 2
#     Edge 46, Type (0, 1), BuildingBlock: XUDNAN_clean_linker_2, # of connection points: 2
#     Edge 47, Type (0, 1), BuildingBlock: XUDNAN_clean_linker_2, # of connection points: 2
# Relax obj value: 0.000
# Max RMSD: 0.051
# Mean RMSD: 0.025
data_MOF--net-ssb--node1-NAWXER_clean_sbu_0--node2-KUFVIS_clean_linker_0--edge1-XUDNAN_clean_linker_2
_symmetry_space_group_name_H-M    P1
_symmetry_Int_Tables_number       1
_symmetry_cell_setting            triclinic
loop_
_symmetry_equiv_pos_as_xyz
'x, y, z'
_cell_length_a     45.803247
_cell_length_b     45.717108
_cell_length_c     38.819276
_cell_angle_alpha  89.906174
_cell_angle_beta   90.004022
_cell_angle_gamma 90.014138
loop_
_atom_site_label
_atom_site_type_symbol
_atom_site_fract_x
_atom_site_fract_y
_atom_site_fract_z
_atom_type_partial_charge
H0 H 0.21923 0.20041 0.37391 0.0
H1 H 0.29252 0.22404 0.31056 0.0
H2 H 0.20698 0.25932 0.28929 0.0
H3 H 0.2385 0.29602 0.26532 0.0
H4 H 0.29525 0.28726 0.17756 0.0
H5 H 0.29073 0.21824 0.25182 0.0
C6 C 0.22866 0.21286 0.3529 0.0
C7 C 0.21039 0.23131 0.33378 0.0
C8 C 0.25838 0.20982 0.34477 0.0
C9 C 0.26947 0.22548 0.31644 0.0
C10 C 0.25115 0.24277 0.29538 0.0
C11 C 0.22157 0.2462 0.30491 0.0
C12 C 0.26295 0.25555 0.26262 0.0
C13 C 0.25403 0.28334 0.25055 0.0
C14 C 0.26586 0.2952 0.21996 0.0
C15 C 0.28664 0.27885 0.20162 0.0
C16 C 0.29611 0.25145 0.21331 0.0
C17 C 0.28374 0.2397 0.24332 0.0
H18 H 0.71778 0.30597 0.17203 0.0
H19 H 0.7909 0.29064 0.23857 0.0
H20 H 0.70827 0.24999 0.26028 0.0
H21 H 0.74067 0.21498 0.28251 0.0
H22 H 0.80134 0.22223 0.36634 0.0
H23 H 0.78912 0.29468 0.29757 0.0
C24 C 0.72704 0.29567 0.19454 0.0
C25 C 0.70976 0.27623 0.21396 0.0
C26 C 0.75615 0.30177 0.20363 0.0
C27 C 0.76804 0.28755 0.23253 0.0
C28 C 0.75095 0.26914 0.25358 0.0
C29 C 0.72178 0.26368 0.24402 0.0
C30 C 0.76384 0.25617 0.28565 0.0
C31 C 0.75626 0.22781 0.29702 0.0
C32 C 0.76934 0.21558 0.32662 0.0
C33 C 0.79078 0.23179 0.34412 0.0
C34 C 0.79856 0.26017 0.33357 0.0
C35 C 0.78436 0.27232 0.30485 0.0
H36 H 0.79683 0.79918 0.37279 0.0
H37 H 0.80564 0.74578 0.28285 0.0
H38 H 0.72404 0.79002 0.30423 0.0
H39 H 0.72307 0.79226 0.24668 0.0
H40 H 0.71605 0.72427 0.17166 0.0
H41 H 0.77318 0.71281 0.25849 0.0
C42 C 0.7872 0.78976 0.3498 0.0
C43 C 0.7587 0.79738 0.34028 0.0
C44 C 0.80392 0.77095 0.32949 0.0
C45 C 0.79199 0.75929 0.29913 0.0
C46 C 0.7629 0.76582 0.28947 0.0
C47 C 0.74634 0.78459 0.31084 0.0
C48 C 0.75009 0.75413 0.25666 0.0
C49 C 0.72941 0.77071 0.23795 0.0
C50 C 0.71629 0.75951 0.2081 0.0
C51 C 0.72514 0.73214 0.19569 0.0
C52 C 0.74586 0.71518 0.21336 0.0
C53 C 0.75802 0.72625 0.24406 0.0
H54 H 0.21156 0.79215 0.36681 0.0
H55 H 0.26997 0.79922 0.28073 0.0
H56 H 0.22446 0.7185 0.3002 0.0
H57 H 0.22069 0.72175 0.24092 0.0
H58 H 0.29243 0.70685 0.1722 0.0
H59 H 0.30301 0.76422 0.25889 0.0
C60 C 0.22188 0.78237 0.34461 0.0
C61 C 0.21472 0.75353 0.33534 0.0
C62 C 0.24242 0.79881 0.32586 0.0
C63 C 0.25513 0.7863 0.29623 0.0
C64 C 0.24816 0.75749 0.28612 0.0
C65 C 0.22864 0.74115 0.30659 0.0
C66 C 0.26056 0.74423 0.25401 0.0
C67 C 0.24332 0.72521 0.23399 0.0
C68 C 0.25476 0.71086 0.20499 0.0
C69 C 0.28354 0.7173 0.1948 0.0
C70 C 0.30096 0.73724 0.21325 0.0
C71 C 0.2894 0.75006 0.24338 0.0
H72 H 0.30804 0.72108 0.87444 0.0
H73 H 0.2475 0.70853 0.79146 0.0
H74 H 0.28956 0.79243 0.80617 0.0
H75 H 0.29095 0.78942 0.74812 0.0
H76 H 0.21909 0.79468 0.67762 0.0
H77 H 0.21153 0.74099 0.76791 0.0
C78 C 0.29621 0.7299 0.85253 0.0
C79 C 0.3013 0.75876 0.84201 0.0
C80 C 0.27658 0.71194 0.83485 0.0
C81 C 0.26166 0.72297 0.80594 0.0
C82 C 0.26642 0.75207 0.79476 0.0
C83 C 0.28572 0.76998 0.81385 0.0
C84 C 0.25313 0.76334 0.76204 0.0
C85 C 0.26906 0.78291 0.74095 0.0
C86 C 0.25671 0.79496 0.71104 0.0
C87 C 0.22876 0.78589 0.70096 0.0
C88 C 0.21258 0.76638 0.72112 0.0
C89 C 0.22458 0.75531 0.75185 0.0
H90 H 0.29 0.3008 0.8664 0.0
H91 H 0.30028 0.24514 0.77801 0.0
H92 H 0.22174 0.29613 0.79163 0.0
H93 H 0.2255 0.29702 0.7338 0.0
H94 H 0.20821 0.22401 0.66747 0.0
H95 H 0.26667 0.21358 0.75256 0.0
C96 C 0.28199 0.29236 0.84211 0.0
C97 C 0.25475 0.30185 0.8301 0.0
C98 C 0.29866 0.27189 0.82375 0.0
C99 C 0.2872 0.26024 0.79291 0.0
C100 C 0.25933 0.26869 0.78082 0.0
C101 C 0.24321 0.28934 0.8001 0.0
C102 C 0.24694 0.25662 0.74798 0.0
C103 C 0.22858 0.27422 0.72734 0.0
C104 C 0.21405 0.26278 0.69845 0.0
C105 C 0.21981 0.23375 0.68888 0.0
C106 C 0.23959 0.21635 0.70729 0.0
C107 C 0.25251 0.22755 0.73744 0.0
H108 H 0.70633 0.28898 0.87476 0.0
H109 H 0.76461 0.29848 0.78906 0.0
H110 H 0.72193 0.21559 0.80873 0.0
H111 H 0.71957 0.21734 0.75061 0.0
H112 H 0.79064 0.20693 0.67995 0.0
H113 H 0.79896 0.26629 0.76506 0.0
C114 C 0.71739 0.27938 0.85279 0.0
C115 C 0.71151 0.25038 0.84353 0.0
C116 C 0.7368 0.29652 0.83366 0.0
C117 C 0.75067 0.28459 0.80459 0.0
C118 C 0.74537 0.25525 0.79488 0.0
C119 C 0.72627 0.23817 0.81535 0.0
C120 C 0.75807 0.24268 0.76249 0.0
C121 C 0.74178 0.22232 0.74315 0.0
C122 C 0.75348 0.20869 0.71385 0.0
C123 C 0.78149 0.21698 0.70271 0.0
C124 C 0.79779 0.23836 0.72028 0.0
C125 C 0.78606 0.25075 0.75056 0.0
H126 H 0.7208 0.70778 0.86262 0.0
H127 H 0.79271 0.72068 0.79373 0.0
H128 H 0.71312 0.76895 0.77876 0.0
H129 H 0.74983 0.80298 0.75789 0.0
H130 H 0.81112 0.79462 0.67512 0.0
H131 H 0.78711 0.7187 0.73407 0.0
C132 C 0.73009 0.71845 0.84033 0.0
C133 C 0.71368 0.73988 0.82286 0.0
C134 C 0.75841 0.71083 0.8297 0.0
C135 C 0.77038 0.72528 0.80106 0.0
C136 C 0.75416 0.74593 0.78202 0.0
C137 C 0.72584 0.75326 0.79331 0.0
C138 C 0.76734 0.75927 0.75037 0.0
C139 C 0.76364 0.78918 0.74214 0.0
C140 C 0.77912 0.80163 0.71442 0.0
C141 C 0.79831 0.78428 0.6952 0.0
C142 C 0.80157 0.7543 0.70204 0.0
C143 C 0.78541 0.74196 0.72916 0.0
C144 C 0.9678 0.27204 0.57131 0.0
C145 C 0.03695 0.25911 0.47576 0.0
O146 O 0.97644 0.29638 0.55826 0.0
Zn147 Zn 1.00559 0.31113 0.51796 0.0
O148 O 0.97777 0.24819 0.5593 0.0
Zn149 Zn 1.00223 0.26503 0.5235 0.0
O150 O 0.03715 0.28529 0.55172 0.0
O151 O 0.03426 0.33315 0.54378 0.0
O152 O 0.02318 0.23947 0.49237 0.0
O153 O 0.0325 0.28614 0.48293 0.0
O154 O 0.97969 0.33183 0.48666 0.0
O155 O 0.97042 0.28451 0.49042 0.0
C156 C 0.04679 0.31117 0.55734 0.0
C157 C 0.96423 0.30986 0.47838 0.0
C158 C 0.7014 0.04566 0.56696 0.0
C159 C 0.70665 0.964 0.48576 0.0
O160 O 0.72712 0.04054 0.55565 0.0
Zn161 Zn 0.74899 0.01021 0.52336 0.0
O162 O 0.68027 0.02924 0.55812 0.0
Zn163 Zn 0.70269 1.00406 0.52721 0.0
O164 O 0.72781 0.97843 0.56274 0.0
O165 O 0.77427 0.98933 0.55546 0.0
O166 O 0.68363 0.9735 0.50031 0.0
O167 O 0.73131 0.97595 0.49249 0.0
O168 O 0.76527 0.03624 0.48877 0.0
O169 O 0.71711 0.03426 0.48767 0.0
C170 C 0.75463 0.9748 0.57111 0.0
C171 C 0.74116 0.0446 0.47573 0.0
C172 C 0.9668 0.7029 0.55941 0.0
C173 C 0.05159 0.70341 0.48369 0.0
O174 O 0.97514 0.72874 0.55121 0.0
Zn175 Zn 0.00983 0.74887 0.52281 0.0
O176 O 0.9812 0.68081 0.54917 0.0
Zn177 Zn 0.00942 0.70253 0.52193 0.0
O178 O 0.0371 0.72167 0.56115 0.0
O179 O 0.03093 0.76952 0.55838 0.0
O180 O 0.03696 0.68128 0.49348 0.0
O181 O 0.04389 0.72913 0.49308 0.0
O182 O 0.98892 0.77114 0.48835 0.0
O183 O 0.98199 0.7235 0.48365 0.0
C184 C 0.04285 0.74742 0.57241 0.0
C185 C 0.97654 0.74968 0.47355 0.0
C186 C 0.26268 0.03837 0.56947 0.0
C187 C 0.2723 0.96995 0.47265 0.0
O188 O 0.28928 0.03197 0.56241 0.0
Zn189 Zn 0.31286 1.00458 0.52664 0.0
O190 O 0.24194 0.02689 0.55238 0.0
Zn191 Zn 0.26615 1.00412 0.52144 0.0
O192 O 0.2836 0.97225 0.55557 0.0
O193 O 0.33161 0.97589 0.55684 0.0
O194 O 0.24873 0.9802 0.48506 0.0
O195 O 0.29673 0.97759 0.48596 0.0
O196 O 0.33581 0.03334 0.50122 0.0
O197 O 0.28811 0.03818 0.49416 0.0
C198 C 0.3083 0.96342 0.56701 0.0
C199 C 0.31419 0.04706 0.48845 0.0
C200 C 0.47368 0.77059 0.06895 0.0
C201 C 0.54469 0.77262 0.97302 0.0
O202 O 0.48189 0.79608 0.05921 0.0
Zn203 Zn 0.50927 0.81686 0.02233 0.0
O204 O 0.48377 0.7481 0.05365 0.0
Zn205 Zn 0.50923 0.76908 1.02098 0.0
O206 O 0.54036 0.78834 0.05426 0.0
O207 O 0.53805 0.83654 0.05189 0.0
O208 O 0.53448 0.74955 0.98704 0.0
O209 O 0.53664 0.79771 0.98421 0.0
O210 O 0.48034 0.83788 0.99413 0.0
O211 O 0.47823 0.78984 0.98882 0.0
C212 C 0.54961 0.81339 0.06414 0.0
C213 C 0.46893 0.81528 0.98046 0.0
C214 C 0.19922 0.54739 0.0609 0.0
C215 C 0.20333 0.46646 0.97867 0.0
O216 O 0.22509 0.53792 0.05526 0.0
Zn217 Zn 0.24611 0.50391 0.02695 0.0
O218 O 0.17736 0.53481 0.04715 0.0
Zn219 Zn 0.19966 0.50621 1.02092 0.0
O220 O 0.21421 0.4771 0.06066 0.0
O221 O 0.26224 0.47822 0.06243 0.0
O222 O 0.18028 0.4793 0.98897 0.0
O223 O 0.2281 0.47396 0.99111 0.0
O224 O 0.27157 0.52628 0.99713 0.0
O225 O 0.22476 0.53399 0.98666 0.0
C226 C 0.23824 0.46822 0.07397 0.0
C227 C 0.25171 0.53944 0.98018 0.0
C228 C 0.54294 0.19669 0.98352 0.0
C229 C 0.46143 0.19868 0.06616 0.0
O230 O 0.5334 0.22211 0.99147 0.0
Zn231 Zn 0.50192 0.24286 0.02285 0.0
O232 O 0.53143 0.1741 0.99719 0.0
Zn233 Zn 0.50208 0.19511 0.02474 0.0
O234 O 0.47496 0.21389 0.98601 0.0
O235 O 0.47698 0.26207 0.98845 0.0
O236 O 0.47315 0.17551 0.05429 0.0
O237 O 0.47064 0.22369 0.05602 0.0
O238 O 0.52687 0.26422 0.05553 0.0
O239 O 0.52899 0.21628 0.06176 0.0
C240 C 0.46696 0.23893 0.9745 0.0
C241 C 0.53692 0.2419 0.07127 0.0
C242 C 0.77363 0.54259 0.06716 0.0
C243 C 0.76135 0.47257 0.97235 0.0
O244 O 0.79784 0.53348 0.05447 0.0
Zn245 Zn 0.81279 0.50425 1.01483 0.0
O246 O 0.74968 0.53308 0.05487 0.0
Zn247 Zn 0.76641 0.50805 1.01947 0.0
O248 O 0.78601 0.47335 0.04864 0.0
O249 O 0.83395 0.47537 0.04174 0.0
O250 O 0.74138 0.48675 0.98781 0.0
O251 O 0.78816 0.47707 0.98024 0.0
O252 O 0.83358 0.53029 0.98331 0.0
O253 O 0.78634 0.53953 0.98661 0.0
C254 C 0.81158 0.46333 0.05503 0.0
C255 C 0.81167 0.54576 0.97478 0.0
H256 H 0.1832 0.27722 0.3655 0.0
H257 H 0.16915 0.18902 0.32862 0.0
H258 H 0.12095 0.18785 0.35741 0.0
H259 H 0.15499 0.26581 0.4471 0.0
H260 H 0.13789 0.30108 0.45177 0.0
H261 H 0.16906 0.29701 0.42398 0.0
H262 H 0.13964 0.31813 0.37265 0.0
H263 H 0.10845 0.32271 0.40043 0.0
H264 H 0.1051 0.3019 0.36122 0.0
H265 H 0.07786 0.19365 0.39676 0.0
H266 H 0.04097 0.20746 0.44032 0.0
H267 H 0.08233 0.29233 0.45123 0.0
C268 C 0.16934 0.25821 0.36238 0.0
C269 C 0.17937 0.23346 0.34419 0.0
C270 C 0.16139 0.20838 0.34182 0.0
C271 C 0.13411 0.2075 0.35823 0.0
C272 C 0.12514 0.23189 0.37694 0.0
C273 C 0.14202 0.25696 0.37876 0.0
C274 C 0.12835 0.27923 0.40281 0.0
C275 C 0.14879 0.28618 0.4332 0.0
C276 C 0.11988 0.30714 0.38309 0.0
C277 C 0.10154 0.26256 0.41472 0.0
C278 C 0.10009 0.23531 0.39949 0.0
C279 C 0.07845 0.21516 0.40834 0.0
C280 C 0.05768 0.22312 0.43325 0.0
C281 C 0.05855 0.25106 0.44891 0.0
C282 C 0.08073 0.27102 0.43924 0.0
H283 H 0.80362 0.17286 0.35692 0.0
H284 H 0.71387 0.19269 0.32936 0.0
H285 H 0.69762 0.14816 0.35981 0.0
H286 H 0.79805 0.09237 0.35462 0.0
H287 H 0.82126 0.08803 0.39177 0.0
H288 H 0.82628 0.11882 0.36332 0.0
H289 H 0.82064 0.15416 0.41502 0.0
H290 H 0.81546 0.12356 0.44356 0.0
H291 H 0.78834 0.15207 0.44144 0.0
H292 H 0.69052 0.10461 0.39859 0.0
H293 H 0.69298 0.06527 0.44194 0.0
H294 H 0.78719 0.07512 0.44688 0.0
C295 C 0.78053 0.16782 0.35694 0.0
C296 C 0.76005 0.18652 0.34061 0.0
C297 C 0.73011 0.17863 0.34106 0.0
C298 C 0.72063 0.15342 0.35853 0.0
C299 C 0.74131 0.1362 0.37544 0.0
C300 C 0.77067 0.14299 0.37463 0.0
C301 C 0.7882 0.12229 0.39717 0.0
C302 C 0.80972 0.10431 0.37541 0.0
C303 C 0.80408 0.13902 0.426 0.0
C304 C 0.76401 0.1032 0.41151 0.0
C305 C 0.73718 0.11138 0.3983 0.0
C306 C 0.71144 0.09783 0.40879 0.0
C307 C 0.7131 0.0755 0.43355 0.0
C308 C 0.7403 0.06695 0.44787 0.0
C309 C 0.76609 0.0809 0.4363 0.0
H310 H 0.82457 0.73123 0.37597 0.0
H311 H 0.85118 0.80178 0.30847 0.0
H312 H 0.90015 0.80205 0.3356 0.0
H313 H 0.85821 0.75658 0.44951 0.0
H314 H 0.86967 0.72154 0.46597 0.0
H315 H 0.83823 0.72396 0.43833 0.0
H316 H 0.86128 0.6867 0.39612 0.0
H317 H 0.89264 0.68372 0.42396 0.0
H318 H 0.89736 0.69334 0.37926 0.0
H319 H 0.94288 0.79999 0.37645 0.0
H320 H 0.97888 0.79134 0.42303 0.0
H321 H 0.92589 0.71989 0.46164 0.0
C322 C 0.84121 0.74582 0.36605 0.0
C323 C 0.83461 0.76598 0.33961 0.0
C324 C 0.8563 0.78568 0.32806 0.0
C325 C 0.88401 0.78611 0.34351 0.0
C326 C 0.88968 0.7665 0.37026 0.0
C327 C 0.8691 0.74627 0.38096 0.0
C328 C 0.88013 0.72871 0.41148 0.0
C329 C 0.86039 0.73297 0.44318 0.0
C330 C 0.88303 0.69619 0.40213 0.0
C331 C 0.90979 0.74271 0.41683 0.0
C332 C 0.91481 0.76461 0.39296 0.0
C333 C 0.93952 0.78241 0.39473 0.0
C334 C 0.95973 0.77749 0.42135 0.0
C335 C 0.95533 0.75469 0.44546 0.0
C336 C 0.93011 0.73702 0.44297 0.0
H337 H 0.20798 0.84119 0.35663 0.0
H338 H 0.29726 0.82318 0.32544 0.0
H339 H 0.31335 0.86847 0.35411 0.0
H340 H 0.2117 0.9221 0.35294 0.0
H341 H 0.18964 0.92614 0.39109 0.0
H342 H 0.1843 0.89513 0.36317 0.0
H343 H 0.19233 0.86014 0.41487 0.0
H344 H 0.19783 0.89096 0.44288 0.0
H345 H 0.22543 0.86298 0.43979 0.0
H346 H 0.3208 0.91204 0.39201 0.0
H347 H 0.31925 0.95085 0.43581 0.0
H348 H 0.22545 0.93958 0.44522 0.0
C349 C 0.23091 0.84681 0.35544 0.0
C350 C 0.25132 0.82836 0.33862 0.0
C351 C 0.28104 0.837 0.33749 0.0
C352 C 0.29044 0.86267 0.35394 0.0
C353 C 0.26991 0.8796 0.37141 0.0
C354 C 0.24072 0.87212 0.37211 0.0
C355 C 0.22353 0.89258 0.39527 0.0
C356 C 0.20096 0.91002 0.37436 0.0
C357 C 0.20893 0.87565 0.42495 0.0
C358 C 0.24778 0.91224 0.40833 0.0
C359 C 0.27427 0.90459 0.39383 0.0
C360 C 0.30013 0.91845 0.40318 0.0
C361 C 0.29899 0.94045 0.42825 0.0
C362 C 0.2722 0.94841 0.444 0.0
C363 C 0.24621 0.93431 0.43342 0.0
H364 H 0.19441 0.72899 0.6708 0.0
H365 H 0.16347 0.79246 0.74489 0.0
H366 H 0.11481 0.79225 0.71699 0.0
H367 H 0.1604 0.75775 0.59967 0.0
H368 H 0.15078 0.72359 0.57955 0.0
H369 H 0.18173 0.72536 0.60799 0.0
H370 H 0.15996 0.68408 0.64589 0.0
H371 H 0.12913 0.68173 0.61715 0.0
H372 H 0.1234 0.68775 0.66253 0.0
H373 H 0.07293 0.7916 0.67487 0.0
H374 H 0.03807 0.785 0.62666 0.0
H375 H 0.09464 0.71905 0.58238 0.0
C376 C 0.17691 0.74179 0.68196 0.0
C377 C 0.18223 0.76019 0.71045 0.0
C378 C 0.15938 0.77765 0.72367 0.0
C379 C 0.13183 0.77783 0.7078 0.0
C380 C 0.12746 0.76013 0.679 0.0
C381 C 0.14915 0.74186 0.6667 0.0
C382 C 0.13934 0.72616 0.63431 0.0
C383 C 0.15924 0.73368 0.60358 0.0
C384 C 0.13786 0.69296 0.64034 0.0
C385 C 0.10912 0.73909 0.62971 0.0
C386 C 0.10276 0.75882 0.6556 0.0
C387 C 0.07733 0.77563 0.65499 0.0
C388 C 0.05777 0.77191 0.62745 0.0
C389 C 0.06352 0.75121 0.60127 0.0
C390 C 0.08943 0.73451 0.60259 0.0
H391 H 0.25369 0.20062 0.64173 0.0
H392 H 0.23856 0.16443 0.74345 0.0
H393 H 0.24256 0.11431 0.71938 0.0
H394 H 0.2122 0.14941 0.59494 0.0
H395 H 0.23681 0.14795 0.55874 0.0
H396 H 0.2346 0.1806 0.58446 0.0
H397 H 0.29028 0.17832 0.59547 0.0
H398 H 0.29278 0.1456 0.56985 0.0
H399 H 0.30609 0.14559 0.61352 0.0
H400 H 0.24503 0.06792 0.68259 0.0
H401 H 0.25004 0.02974 0.63742 0.0
H402 H 0.2637 0.09707 0.56054 0.0
C403 C 0.25153 0.18212 0.65902 0.0
C404 C 0.24577 0.18634 0.69446 0.0
C405 C 0.24324 0.16165 0.71631 0.0
C406 C 0.24526 0.13316 0.70279 0.0
C407 C 0.25007 0.12982 0.66746 0.0
C408 C 0.25359 0.15372 0.64602 0.0
C409 C 0.25835 0.14449 0.60898 0.0
C410 C 0.23404 0.15632 0.58541 0.0
C411 C 0.28868 0.15407 0.59622 0.0
C412 C 0.25648 0.11162 0.6127 0.0
C413 C 0.25166 0.10347 0.64658 0.0
C414 C 0.24888 0.07411 0.65606 0.0
C415 C 0.25154 0.05262 0.63033 0.0
C416 C 0.25684 0.06072 0.59574 0.0
C417 C 0.25929 0.0905 0.58687 0.0
H418 H 0.84045 0.20535 0.6881 0.0
H419 H 0.81956 0.29437 0.71821 0.0
H420 H 0.86347 0.31196 0.68773 0.0
H421 H 0.92053 0.21212 0.69072 0.0
H422 H 0.92534 0.18966 0.65302 0.0
H423 H 0.89458 0.18362 0.68111 0.0
H424 H 0.8594 0.18978 0.62933 0.0
H425 H 0.88999 0.19595 0.60115 0.0
H426 H 0.86113 0.22266 0.60371 0.0
H427 H 0.90669 0.32054 0.64896 0.0
H428 H 0.94621 0.31944 0.60587 0.0
H429 H 0.93808 0.225 0.59908 0.0
C430 C 0.84513 0.22855 0.6886 0.0
C431 C 0.82634 0.24843 0.70574 0.0
C432 C 0.83371 0.27856 0.70591 0.0
C433 C 0.85856 0.28881 0.68842 0.0
C434 C 0.87597 0.26871 0.67089 0.0
C435 C 0.86967 0.23918 0.67102 0.0
C436 C 0.89068 0.22238 0.6482 0.0
C437 C 0.90886 0.20066 0.66955 0.0
C438 C 0.87432 0.20678 0.61886 0.0
C439 C 0.90944 0.24716 0.63459 0.0
C440 C 0.90074 0.27367 0.64826 0.0
C441 C 0.91388 0.29986 0.6384 0.0
C442 C 0.9363 0.299 0.61379 0.0
C443 C 0.94543 0.27213 0.59909 0.0
C444 C 0.9319 0.24587 0.61004 0.0
H445 H 0.73394 0.82875 0.68139 0.0
H446 H 0.82037 0.84355 0.72291 0.0
H447 H 0.82218 0.8919 0.69423 0.0
H448 H 0.74798 0.8566 0.60086 0.0
H449 H 0.71294 0.87357 0.59402 0.0
H450 H 0.71602 0.84261 0.62242 0.0
H451 H 0.693 0.87238 0.6722 0.0
H452 H 0.6893 0.90336 0.64374 0.0
H453 H 0.70858 0.90718 0.68397 0.0
H454 H 0.81768 0.93482 0.65379 0.0
H455 H 0.80525 0.97131 0.60893 0.0
H456 H 0.7213 0.92913 0.59435 0.0
C457 C 0.75259 0.84286 0.68567 0.0
C458 C 0.77671 0.83294 0.70505 0.0
C459 C 0.80143 0.85123 0.70884 0.0
C460 C 0.8027 0.87859 0.69246 0.0
C461 C 0.77902 0.88737 0.67239 0.0
C462 C 0.7542 0.87026 0.66938 0.0
C463 C 0.73284 0.88363 0.64398 0.0
C464 C 0.72713 0.86286 0.61353 0.0
C465 C 0.70424 0.89215 0.66206 0.0
C466 C 0.74978 0.91047 0.63261 0.0
C467 C 0.77636 0.91226 0.64928 0.0
C468 C 0.79667 0.93397 0.64109 0.0
C469 C 0.78952 0.9545 0.61543 0.0
C470 C 0.76222 0.9533 0.59838 0.0
C471 C 0.74214 0.931 0.60735 0.0
H472 H 0.81765 0.76045 0.63389 0.0
H473 H 0.83578 0.70857 0.72534 0.0
H474 H 0.87531 0.68343 0.69437 0.0
H475 H 0.83965 0.70644 0.56768 0.0
H476 H 0.85678 0.73422 0.54159 0.0
H477 H 0.82565 0.74329 0.56792 0.0
H478 H 0.85548 0.78445 0.59744 0.0
H479 H 0.88655 0.77554 0.57123 0.0
H480 H 0.88988 0.77563 0.61751 0.0
H481 H 0.91677 0.66766 0.6555 0.0
H482 H 0.95845 0.66648 0.61464 0.0
H483 H 0.91633 0.7329 0.55236 0.0
C484 C 0.82964 0.74365 0.64752 0.0
C485 C 0.82321 0.73656 0.68219 0.0
C486 C 0.83953 0.71409 0.69858 0.0
C487 C 0.86223 0.69969 0.68121 0.0
C488 C 0.86859 0.70806 0.6475 0.0
C489 C 0.85281 0.72967 0.63093 0.0
C490 C 0.86641 0.73769 0.59668 0.0
C491 C 0.8459 0.72994 0.5667 0.0
C492 C 0.8751 0.77024 0.59569 0.0
C493 C 0.89291 0.718 0.59713 0.0
C494 C 0.89338 0.70036 0.62608 0.0
C495 C 0.91646 0.68116 0.63258 0.0
C496 C 0.93996 0.68055 0.60929 0.0
C497 C 0.94039 0.69961 0.58059 0.0
C498 C 0.91636 0.71808 0.57417 0.0
H499 H 0.23239 0.84492 0.68573 0.0
H500 H 0.31497 0.79887 0.6927 0.0
H501 H 0.33882 0.83868 0.65951 0.0
H502 H 0.24053 0.86866 0.59954 0.0
H503 H 0.22274 0.90326 0.6068 0.0
H504 H 0.21331 0.87207 0.63283 0.0
H505 H 0.2254 0.90157 0.68805 0.0
H506 H 0.23504 0.93283 0.66215 0.0
H507 H 0.26091 0.91814 0.69258 0.0
H508 H 0.3528 0.88379 0.6228 0.0
H509 H 0.35479 0.92803 0.58559 0.0
H510 H 0.26232 0.94214 0.60318 0.0
C511 C 0.25547 0.843 0.68014 0.0
C512 C 0.27176 0.81864 0.69159 0.0
C513 C 0.30207 0.81741 0.68434 0.0
C514 C 0.31577 0.83989 0.66545 0.0
C515 C 0.29886 0.86345 0.65423 0.0
C516 C 0.26934 0.86502 0.66141 0.0
C517 C 0.25553 0.89188 0.64573 0.0
C518 C 0.23163 0.88345 0.61968 0.0
C519 C 0.24352 0.91231 0.67381 0.0
C520 C 0.28174 0.90511 0.62803 0.0
C521 C 0.30669 0.88873 0.63334 0.0
C522 C 0.33337 0.89679 0.61864 0.0
C523 C 0.33434 0.92196 0.59764 0.0
C524 C 0.30872 0.93847 0.59137 0.0
C525 C 0.28232 0.92998 0.60727 0.0
H526 H 0.19903 0.25945 0.62952 0.0
H527 H 0.17688 0.30515 0.72413 0.0
H528 H 0.1361 0.32927 0.69431 0.0
H529 H 0.1736 0.31459 0.56655 0.0
H530 H 0.15835 0.28696 0.53878 0.0
H531 H 0.18995 0.27876 0.56475 0.0
H532 H 0.16281 0.23451 0.59164 0.0
H533 H 0.13125 0.24254 0.56581 0.0
H534 H 0.12789 0.24016 0.612 0.0
H535 H 0.09415 0.3445 0.65593 0.0
H536 H 0.05271 0.3452 0.61467 0.0
H537 H 0.0987 0.28405 0.54915 0.0
C538 C 0.18588 0.27462 0.64418 0.0
C539 C 0.19161 0.28027 0.6794 0.0
C540 C 0.17375 0.30079 0.69699 0.0
C541 C 0.15029 0.31458 0.68028 0.0
C542 C 0.14466 0.30749 0.64602 0.0
C543 C 0.16187 0.28778 0.62829 0.0
C544 C 0.14887 0.28043 0.59352 0.0
C545 C 0.16889 0.29082 0.56417 0.0
C546 C 0.14231 0.24747 0.5906 0.0
C547 C 0.12113 0.29831 0.59493 0.0
C548 C 0.1195 0.31456 0.62488 0.0
C549 C 0.09533 0.33207 0.63227 0.0
C550 C 0.07197 0.33242 0.60878 0.0
C551 C 0.07281 0.31473 0.57899 0.0
C552 C 0.0978 0.29786 0.57179 0.0
H553 H 0.75378 0.19572 0.64421 0.0
H554 H 0.71575 0.16771 0.74141 0.0
H555 H 0.691 0.12725 0.71157 0.0
H556 H 0.69455 0.17262 0.58634 0.0
H557 H 0.71977 0.15961 0.55419 0.0
H558 H 0.72979 0.18974 0.58166 0.0
H559 H 0.77631 0.16186 0.60097 0.0
H560 H 0.76656 0.13187 0.5734 0.0
H561 H 0.77281 0.12554 0.61865 0.0
H562 H 0.67389 0.08666 0.67189 0.0
H563 H 0.67101 0.04744 0.6278 0.0
H564 H 0.72455 0.09952 0.55917 0.0
C565 C 0.74023 0.18128 0.65946 0.0
C566 C 0.73673 0.18537 0.69534 0.0
C567 C 0.71835 0.16581 0.7138 0.0
C568 C 0.70421 0.14256 0.69707 0.0
C569 C 0.70876 0.13886 0.66187 0.0
C570 C 0.72657 0.15759 0.64339 0.0
C571 C 0.73104 0.1469 0.60692 0.0
C572 C 0.718 0.16851 0.58074 0.0
C573 C 0.7636 0.14119 0.59958 0.0
C574 C 0.71372 0.11874 0.60806 0.0
C575 C 0.70027 0.11482 0.6396 0.0
C576 C 0.68408 0.08966 0.64698 0.0
C577 C 0.6824 0.06759 0.62183 0.0
C578 C 0.69743 0.0707 0.59025 0.0
C579 C 0.71266 0.09683 0.5831 0.0
H580 H 0.81307 0.25794 0.40273 0.0
H581 H 0.83852 0.29918 0.30629 0.0
H582 H 0.87978 0.32283 0.33577 0.0
H583 H 0.83818 0.31463 0.46255 0.0
H584 H 0.852 0.28806 0.49279 0.0
H585 H 0.82108 0.27923 0.46603 0.0
H586 H 0.84815 0.23335 0.44324 0.0
H587 H 0.879 0.24198 0.46999 0.0
H588 H 0.88382 0.23746 0.42422 0.0
H589 H 0.92115 0.33884 0.37494 0.0
H590 H 0.96102 0.34107 0.41821 0.0
H591 H 0.91147 0.28407 0.48563 0.0
C592 C 0.82713 0.27193 0.38754 0.0
C593 C 0.8221 0.27662 0.35198 0.0
C594 C 0.84114 0.29564 0.33368 0.0
C595 C 0.86486 0.30913 0.35019 0.0
C596 C 0.86956 0.30323 0.38497 0.0
C597 C 0.85133 0.28482 0.40329 0.0
C598 C 0.86306 0.27886 0.43904 0.0
C599 C 0.84234 0.29093 0.46673 0.0
C600 C 0.86886 0.24597 0.44441 0.0
C601 C 0.89118 0.29615 0.43767 0.0
C602 C 0.8942 0.31079 0.4067 0.0
C603 C 0.9189 0.32761 0.39936 0.0
C604 C 0.94136 0.32886 0.42402 0.0
C605 C 0.93913 0.31273 0.45501 0.0
C606 C 0.91356 0.29663 0.46206 0.0
H607 H 0.78109 0.84931 0.36139 0.0
H608 H 0.70139 0.79815 0.36279 0.0
H609 H 0.67728 0.83689 0.39745 0.0
H610 H 0.77747 0.87355 0.44714 0.0
H611 H 0.79244 0.90916 0.43779 0.0
H612 H 0.80195 0.87841 0.41122 0.0
H613 H 0.78405 0.90651 0.35707 0.0
H614 H 0.77441 0.93736 0.38354 0.0
H615 H 0.74738 0.92081 0.356 0.0
H616 H 0.66336 0.88115 0.43557 0.0
H617 H 0.66141 0.92533 0.47269 0.0
H618 H 0.75099 0.94539 0.44497 0.0
C619 C 0.75855 0.84615 0.36899 0.0
C620 C 0.74317 0.82062 0.35972 0.0
C621 C 0.71353 0.81763 0.36959 0.0
C622 C 0.69973 0.83948 0.38929 0.0
C623 C 0.71584 0.86421 0.39853 0.0
C624 C 0.7446 0.86756 0.38846 0.0
C625 C 0.75776 0.89537 0.4024 0.0
C626 C 0.78394 0.88871 0.42604 0.0
C627 C 0.7664 0.91624 0.373 0.0
C628 C 0.73215 0.90707 0.42253 0.0
C629 C 0.70799 0.8891 0.41995 0.0
C630 C 0.68213 0.89543 0.43751 0.0
C631 C 0.68118 0.92057 0.45848 0.0
C632 C 0.70603 0.93881 0.4618 0.0
C633 C 0.73156 0.93197 0.44312 0.0
H634 H 0.20079 0.75757 0.4047 0.0
H635 H 0.17599 0.71206 0.31082 0.0
H636 H 0.13614 0.68781 0.34216 0.0
H637 H 0.17812 0.70228 0.46806 0.0
H638 H 0.16342 0.72945 0.49684 0.0
H639 H 0.1939 0.73839 0.46939 0.0
H640 H 0.16508 0.78229 0.44417 0.0
H641 H 0.13468 0.77358 0.47162 0.0
H642 H 0.1295 0.77614 0.42568 0.0
H643 H 0.09592 0.67156 0.38251 0.0
H644 H 0.05616 0.66971 0.42588 0.0
H645 H 0.10355 0.73119 0.48968 0.0
C646 C 0.18719 0.74253 0.39043 0.0
C647 C 0.19206 0.73681 0.35505 0.0
C648 C 0.1736 0.71643 0.33806 0.0
C649 C 0.15065 0.70256 0.35564 0.0
C650 C 0.14606 0.70947 0.39015 0.0
C651 C 0.16366 0.72926 0.40721 0.0
C652 C 0.15184 0.73616 0.44269 0.0
C653 C 0.17309 0.72595 0.47091 0.0
C654 C 0.14485 0.76897 0.44622 0.0
C655 C 0.12437 0.7178 0.44254 0.0
C656 C 0.12185 0.70181 0.41249 0.0
C657 C 0.09778 0.68383 0.40623 0.0
C658 C 0.07539 0.6828 0.43096 0.0
C659 C 0.07701 0.70029 0.46089 0.0
C660 C 0.10198 0.71756 0.46695 0.0
H661 H 0.25474 0.19518 0.41371 0.0
H662 H 0.30387 0.17573 0.32076 0.0
H663 H 0.33057 0.13724 0.35193 0.0
H664 H 0.31109 0.17519 0.47852 0.0
H665 H 0.28424 0.15832 0.50609 0.0
H666 H 0.27418 0.18886 0.4792 0.0
H667 H 0.23258 0.15786 0.4523 0.0
H668 H 0.24266 0.12747 0.47916 0.0
H669 H 0.24121 0.12305 0.43305 0.0
H670 H 0.34778 0.09645 0.39116 0.0
H671 H 0.34991 0.05503 0.43258 0.0
H672 H 0.2856 0.09809 0.49658 0.0
C673 C 0.27127 0.18314 0.39978 0.0
C674 C 0.27711 0.1889 0.36461 0.0
C675 C 0.29929 0.17253 0.34785 0.0
C676 C 0.31458 0.1504 0.36535 0.0
C677 C 0.30744 0.14467 0.3996 0.0
C678 C 0.28615 0.16053 0.41654 0.0
C679 C 0.27938 0.1475 0.45151 0.0
C680 C 0.28774 0.16874 0.48054 0.0
C681 C 0.24706 0.13842 0.45412 0.0
C682 C 0.29937 0.12118 0.45105 0.0
C683 C 0.31611 0.12034 0.42143 0.0
C684 C 0.33507 0.0971 0.41465 0.0
C685 C 0.33627 0.07375 0.43827 0.0
C686 C 0.31805 0.07367 0.46763 0.0
C687 C 0.29994 0.09793 0.47439 0.0
H688 H 0.67201 0.70579 0.85609 0.0
H689 H 0.68948 0.79495 0.82283 0.0
H690 H 0.64485 0.81131 0.85229 0.0
H691 H 0.59153 0.7092 0.85501 0.0
H692 H 0.58821 0.68785 0.89389 0.0
H693 H 0.61871 0.68205 0.86535 0.0
H694 H 0.65448 0.69124 0.91586 0.0
H695 H 0.62417 0.69717 0.9445 0.0
H696 H 0.65193 0.72485 0.9399 0.0
H697 H 0.60179 0.81917 0.89009 0.0
H698 H 0.56346 0.81851 0.93424 0.0
H699 H 0.57524 0.72484 0.94721 0.0
C700 C 0.66653 0.72878 0.85472 0.0
C701 C 0.6846 0.74901 0.83687 0.0
C702 C 0.67597 0.77878 0.83553 0.0
C703 C 0.65067 0.78837 0.85246 0.0
C704 C 0.63413 0.76802 0.8708 0.0
C705 C 0.64165 0.73883 0.87204 0.0
C706 C 0.62166 0.72198 0.89623 0.0
C707 C 0.60398 0.6989 0.87643 0.0
C708 C 0.63911 0.708 0.92587 0.0
C709 C 0.60216 0.74645 0.90911 0.0
C710 C 0.60954 0.7727 0.89361 0.0
C711 C 0.59566 0.79872 0.90216 0.0
C712 C 0.57392 0.79806 0.92747 0.0
C713 C 0.56624 0.7716 0.94438 0.0
C714 C 0.58037 0.74536 0.93463 0.0
H715 H 0.23167 0.68601 0.87021 0.0
H716 H 0.31743 0.66978 0.82745 0.0
H717 H 0.31917 0.62187 0.85708 0.0
H718 H 0.24624 0.65818 0.95142 0.0
H719 H 0.21103 0.64165 0.9586 0.0
H720 H 0.21432 0.6726 0.93017 0.0
H721 H 0.19048 0.64311 0.88066 0.0
H722 H 0.18664 0.61216 0.90913 0.0
H723 H 0.20555 0.60815 0.86869 0.0
H724 H 0.3147 0.57946 0.89778 0.0
H725 H 0.30214 0.54289 0.94246 0.0
H726 H 0.2186 0.5856 0.95786 0.0
C727 C 0.25019 0.67173 0.86605 0.0
C728 C 0.27415 0.68108 0.84597 0.0
C729 C 0.29866 0.66254 0.84215 0.0
C730 C 0.29988 0.63543 0.85903 0.0
C731 C 0.27635 0.62715 0.87961 0.0
C732 C 0.25174 0.64451 0.88279 0.0
C733 C 0.23041 0.63138 0.90842 0.0
C734 C 0.22521 0.6522 0.93895 0.0
C735 C 0.20156 0.62321 0.89065 0.0
C736 C 0.24712 0.60434 0.9196 0.0
C737 C 0.27361 0.60235 0.90275 0.0
C738 C 0.29376 0.58046 0.91065 0.0
C739 C 0.28655 0.5599 0.9362 0.0
C740 C 0.2593 0.56121 0.95332 0.0
C741 C 0.23937 0.5837 0.94472 0.0
H742 H 0.3395 0.30555 0.85793 0.0
H743 H 0.32318 0.21693 0.82255 0.0
H744 H 0.36787 0.20041 0.85223 0.0
H745 H 0.4201 0.30294 0.85675 0.0
H746 H 0.42312 0.32388 0.89589 0.0
H747 H 0.39264 0.3297 0.86732 0.0
H748 H 0.35685 0.31961 0.91761 0.0
H749 H 0.38714 0.31364 0.94628 0.0
H750 H 0.35966 0.28575 0.94126 0.0
H751 H 0.41083 0.19244 0.89069 0.0
H752 H 0.44893 0.19309 0.93521 0.0
H753 H 0.43618 0.28651 0.94881 0.0
C754 C 0.34534 0.28266 0.8561 0.0
C755 C 0.32759 0.26254 0.83778 0.0
C756 C 0.33649 0.23291 0.83582 0.0
C757 C 0.36181 0.22328 0.85281 0.0
C758 C 0.37807 0.24352 0.87164 0.0
C759 C 0.37027 0.27262 0.87329 0.0
C760 C 0.39 0.2894 0.89772 0.0
C761 C 0.40751 0.31287 0.87825 0.0
C762 C 0.37236 0.30288 0.92747 0.0
C763 C 0.40969 0.26498 0.91035 0.0
C764 C 0.40263 0.23881 0.89453 0.0
C765 C 0.41672 0.21284 0.90297 0.0
C766 C 0.43831 0.21348 0.92848 0.0
C767 C 0.44565 0.23988 0.94565 0.0
C768 C 0.43134 0.26605 0.936 0.0
H769 H 0.77927 0.32037 0.87424 0.0
H770 H 0.70018 0.34112 0.81831 0.0
H771 H 0.69904 0.39013 0.84539 0.0
H772 H 0.75866 0.35258 0.95143 0.0
H773 H 0.79416 0.36653 0.96281 0.0
H774 H 0.79114 0.33472 0.9358 0.0
H775 H 0.82225 0.35996 0.88859 0.0
H776 H 0.82584 0.39171 0.91572 0.0
H777 H 0.81156 0.39545 0.87266 0.0
H778 H 0.70279 0.43385 0.88473 0.0
H779 H 0.71423 0.47137 0.92875 0.0
H780 H 0.79196 0.423 0.95745 0.0
C781 C 0.76246 0.33578 0.86675 0.0
C782 C 0.74023 0.32751 0.84357 0.0
C783 C 0.71776 0.34755 0.83536 0.0
C784 C 0.71686 0.37528 0.8508 0.0
C785 C 0.73864 0.38258 0.87436 0.0
C786 C 0.76131 0.3636 0.8819 0.0
C787 C 0.78095 0.37608 0.90967 0.0
C788 C 0.78123 0.3563 0.94181 0.0
C789 C 0.81199 0.38111 0.89582 0.0
C790 C 0.7656 0.40479 0.91687 0.0
C791 C 0.74111 0.40806 0.89645 0.0
C792 C 0.72224 0.43181 0.90037 0.0
C793 C 0.72877 0.4529 0.92554 0.0
C794 C 0.75414 0.45027 0.94611 0.0
C795 C 0.77274 0.4259 0.94155 0.0
H796 H 0.66946 0.31033 0.17809 0.0
H797 H 0.6822 0.22304 0.22028 0.0
H798 H 0.63585 0.20752 0.19437 0.0
H799 H 0.58885 0.31219 0.18167 0.0
H800 H 0.58594 0.33048 0.14064 0.0
H801 H 0.61738 0.33663 0.16763 0.0
H802 H 0.65138 0.32118 0.11755 0.0
H803 H 0.62012 0.31493 0.09047 0.0
H804 H 0.64622 0.28602 0.09748 0.0
H805 H 0.59154 0.19949 0.1592 0.0
H806 H 0.5528 0.19874 0.11558 0.0
H807 H 0.56996 0.28998 0.09149 0.0
C808 C 0.66262 0.28794 0.18217 0.0
C809 C 0.67985 0.26804 0.20162 0.0
C810 C 0.6694 0.2391 0.20641 0.0
C811 C 0.64306 0.22994 0.19152 0.0
C812 C 0.62732 0.24983 0.17164 0.0
C813 C 0.63667 0.27823 0.16685 0.0
C814 C 0.6172 0.29429 0.14136 0.0
C815 C 0.6014 0.31992 0.15888 0.0
C816 C 0.63478 0.3047 0.10985 0.0
C817 C 0.59594 0.27015 0.1318 0.0
C818 C 0.60198 0.24491 0.15015 0.0
C819 C 0.58644 0.21919 0.14491 0.0
C820 C 0.5645 0.21901 0.11987 0.0
C821 C 0.55827 0.2443 0.09994 0.0
C822 C 0.57394 0.27039 0.1065 0.0
H823 H 0.71153 0.67414 0.18053 0.0
H824 H 0.80086 0.69101 0.21241 0.0
H825 H 0.81665 0.64588 0.183 0.0
H826 H 0.7142 0.59382 0.18472 0.0
H827 H 0.69213 0.58962 0.14659 0.0
H828 H 0.68723 0.62106 0.17395 0.0
H829 H 0.69591 0.65531 0.12171 0.0
H830 H 0.7009 0.62405 0.09424 0.0
H831 H 0.72895 0.65161 0.09687 0.0
H832 H 0.82354 0.60177 0.14544 0.0
H833 H 0.82119 0.56193 0.10291 0.0
H834 H 0.72758 0.5746 0.09346 0.0
C835 C 0.73443 0.66834 0.1816 0.0
C836 C 0.75494 0.6863 0.19892 0.0
C837 C 0.7846 0.67751 0.19989 0.0
C838 C 0.79382 0.65195 0.18306 0.0
C839 C 0.77314 0.63531 0.16541 0.0
C840 C 0.74403 0.64309 0.16469 0.0
C841 C 0.72654 0.62262 0.14189 0.0
C842 C 0.70367 0.60578 0.16306 0.0
C843 C 0.71224 0.6394 0.11191 0.0
C844 C 0.75049 0.60247 0.12922 0.0
C845 C 0.77715 0.61001 0.14341 0.0
C846 C 0.80275 0.59549 0.13446 0.0
C847 C 0.80116 0.57289 0.11016 0.0
C848 C 0.77417 0.56499 0.09484 0.0
C849 C 0.74848 0.57984 0.10493 0.0
H850 H 0.341 0.70308 0.17715 0.0
H851 H 0.32804 0.79081 0.21761 0.0
H852 H 0.37402 0.80633 0.19073 0.0
H853 H 0.42144 0.70174 0.18031 0.0
H854 H 0.42442 0.6829 0.13971 0.0
H855 H 0.39302 0.67698 0.16684 0.0
H856 H 0.35892 0.69162 0.11646 0.0
H857 H 0.39015 0.69762 0.08922 0.0
H858 H 0.36394 0.72651 0.09557 0.0
H859 H 0.41826 0.81409 0.15529 0.0
H860 H 0.45725 0.81433 0.11201 0.0
H861 H 0.44048 0.72272 0.08991 0.0
C862 C 0.3477 0.72558 0.18061 0.0
C863 C 0.33055 0.7456 0.19993 0.0
C864 C 0.3408 0.77468 0.20388 0.0
C865 C 0.36692 0.78384 0.18842 0.0
C866 C 0.38264 0.7638 0.16881 0.0
C867 C 0.37346 0.73528 0.16475 0.0
C868 C 0.39301 0.71897 0.13962 0.0
C869 C 0.40891 0.69364 0.15771 0.0
C870 C 0.37545 0.70805 0.10837 0.0
C871 C 0.41416 0.74306 0.12948 0.0
C872 C 0.40796 0.76854 0.14719 0.0
C873 C 0.42346 0.79422 0.14147 0.0
C874 C 0.44557 0.7941 0.11663 0.0
C875 C 0.45201 0.76854 0.09736 0.0
C876 C 0.43633 0.74251 0.10437 0.0
H877 H 0.30008 0.33728 0.18904 0.0
H878 H 0.21054 0.31874 0.21859 0.0
H879 H 0.19453 0.36388 0.18898 0.0
H880 H 0.29594 0.41777 0.19343 0.0
H881 H 0.31876 0.42239 0.15598 0.0
H882 H 0.3236 0.39101 0.18356 0.0
H883 H 0.3167 0.35673 0.13112 0.0
H884 H 0.3117 0.38792 0.10343 0.0
H885 H 0.28412 0.35983 0.10531 0.0
H886 H 0.18766 0.40798 0.15087 0.0
H887 H 0.19024 0.44788 0.10826 0.0
H888 H 0.28423 0.43686 0.10172 0.0
C889 C 0.2771 0.34277 0.18963 0.0
C890 C 0.25656 0.32428 0.2062 0.0
C891 C 0.22678 0.33263 0.20658 0.0
C892 C 0.21746 0.35819 0.18963 0.0
C893 C 0.23819 0.37528 0.17256 0.0
C894 C 0.26743 0.368 0.17264 0.0
C895 C 0.28504 0.38881 0.15031 0.0
C896 C 0.30714 0.40602 0.17213 0.0
C897 C 0.30027 0.37233 0.1208 0.0
C898 C 0.26102 0.40856 0.13688 0.0
C899 C 0.23421 0.40055 0.15033 0.0
C900 C 0.20857 0.41463 0.14051 0.0
C901 C 0.2103 0.43726 0.11615 0.0
C902 C 0.23747 0.44566 0.10161 0.0
C903 C 0.26318 0.43124 0.11256 0.0
H904 H 0.3464 0.27505 0.18837 0.0
H905 H 0.29949 0.19291 0.19592 0.0
H906 H 0.33853 0.16853 0.16215 0.0
H907 H 0.36883 0.26712 0.10239 0.0
H908 H 0.40378 0.28434 0.10899 0.0
H909 H 0.37331 0.29404 0.13585 0.0
H910 H 0.4035 0.28092 0.19028 0.0
H911 H 0.43409 0.2711 0.16352 0.0
H912 H 0.41961 0.24508 0.19399 0.0
H913 H 0.38253 0.15425 0.12364 0.0
H914 H 0.42573 0.15216 0.08489 0.0
H915 H 0.4417 0.24427 0.10401 0.0
C916 C 0.34427 0.25191 0.18298 0.0
C917 C 0.31983 0.23592 0.19459 0.0
C918 C 0.31815 0.20556 0.18743 0.0
C919 C 0.34018 0.19157 0.16822 0.0
C920 C 0.36381 0.20822 0.15666 0.0
C921 C 0.3659 0.23774 0.16402 0.0
C922 C 0.39262 0.2513 0.14785 0.0
C923 C 0.38411 0.27562 0.12225 0.0
C924 C 0.4137 0.26276 0.17557 0.0
C925 C 0.40509 0.225 0.12957 0.0
C926 C 0.3885 0.20019 0.135 0.0
C927 C 0.39574 0.17356 0.11948 0.0
C928 C 0.42031 0.17252 0.09758 0.0
C929 C 0.43706 0.19803 0.0913 0.0
C930 C 0.42939 0.22433 0.10806 0.0
H931 H 0.75237 0.31589 0.13414 0.0
H932 H 0.79926 0.33883 0.22774 0.0
H933 H 0.82493 0.37771 0.19623 0.0
H934 H 0.80824 0.33641 0.07046 0.0
H935 H 0.78161 0.35224 0.04178 0.0
H936 H 0.77159 0.32206 0.06928 0.0
H937 H 0.72907 0.35265 0.09465 0.0
H938 H 0.73886 0.38274 0.06713 0.0
H939 H 0.73671 0.38801 0.11308 0.0
H940 H 0.84248 0.41746 0.15583 0.0
H941 H 0.84555 0.45736 0.1125 0.0
H942 H 0.78217 0.41236 0.04898 0.0
C943 C 0.76801 0.32888 0.14831 0.0
C944 C 0.77368 0.32373 0.18369 0.0
C945 C 0.79486 0.34139 0.20052 0.0
C946 C 0.80956 0.36379 0.18283 0.0
C947 C 0.8027 0.3687 0.14836 0.0
C948 C 0.78216 0.35189 0.13141 0.0
C949 C 0.77561 0.36405 0.09595 0.0
C950 C 0.78482 0.3424 0.0677 0.0
C951 C 0.74315 0.37236 0.09253 0.0
C952 C 0.79503 0.39082 0.09599 0.0
C953 C 0.81122 0.39267 0.12596 0.0
C954 C 0.83008 0.4161 0.13215 0.0
C955 C 0.83181 0.43856 0.10746 0.0
C956 C 0.81418 0.43765 0.07762 0.0
C957 C 0.79599 0.4133 0.07161 0.0
H958 H 0.66495 0.73675 0.18566 0.0
H959 H 0.71348 0.81806 0.1903 0.0
H960 H 0.67404 0.84287 0.15744 0.0
H961 H 0.64085 0.74413 0.10059 0.0
H962 H 0.60573 0.72762 0.10846 0.0
H963 H 0.63652 0.7177 0.13473 0.0
H964 H 0.60761 0.73205 0.18964 0.0
H965 H 0.5767 0.74209 0.16347 0.0
H966 H 0.5922 0.76822 0.193 0.0
H967 H 0.62962 0.85744 0.11964 0.0
H968 H 0.58605 0.85966 0.08145 0.0
H969 H 0.56866 0.7682 0.10324 0.0
C970 C 0.6673 0.75982 0.1799 0.0
C971 C 0.69232 0.77545 0.19032 0.0
C972 C 0.69436 0.80571 0.18269 0.0
C973 C 0.67211 0.81993 0.164 0.0
C974 C 0.6479 0.80362 0.15353 0.0
C975 C 0.64545 0.77421 0.16149 0.0
C976 C 0.6182 0.76094 0.1463 0.0
C977 C 0.62579 0.73615 0.12102 0.0
C978 C 0.59745 0.7502 0.17481 0.0
C979 C 0.60586 0.78722 0.1278 0.0
C980 C 0.62295 0.81182 0.13232 0.0
C981 C 0.61599 0.83832 0.11624 0.0
C982 C 0.59121 0.83944 0.09467 0.0
C983 C 0.57398 0.81412 0.08927 0.0
C984 C 0.58133 0.78799 0.10666 0.0
H985 H 0.25669 0.69657 0.13556 0.0
H986 H 0.21317 0.67309 0.23127 0.0
H987 H 0.18724 0.63362 0.20118 0.0
H988 H 0.19904 0.67496 0.07455 0.0
H989 H 0.225 0.65959 0.04475 0.0
H990 H 0.23534 0.69001 0.07162 0.0
H991 H 0.27925 0.66029 0.09521 0.0
H992 H 0.26915 0.62999 0.06828 0.0
H993 H 0.2729 0.6248 0.11411 0.0
H994 H 0.16947 0.59318 0.16197 0.0
H995 H 0.16634 0.55284 0.11934 0.0
H996 H 0.22619 0.59934 0.05252 0.0
C997 C 0.24171 0.68335 0.15046 0.0
C998 C 0.23706 0.68848 0.18602 0.0
C999 C 0.21675 0.6705 0.20389 0.0
C1000 C 0.20191 0.64778 0.18702 0.0
C1001 C 0.20773 0.64293 0.15228 0.0
C1002 C 0.2274 0.66008 0.13433 0.0
C1003 C 0.233 0.64799 0.09866 0.0
C1004 C 0.22246 0.66942 0.07075 0.0
C1005 C 0.26549 0.64031 0.09381 0.0
C1006 C 0.21412 0.62086 0.09973 0.0
C1007 C 0.19895 0.61873 0.13042 0.0
C1008 C 0.18099 0.59479 0.13771 0.0
C1009 C 0.1792 0.57208 0.1134 0.0
C1010 C 0.19584 0.57333 0.0828 0.0
C1011 C 0.21301 0.59821 0.07567 0.0
H1012 H 0.35632 0.74033 0.85563 0.0
H1013 H 0.29951 0.81552 0.86637 0.0
H1014 H 0.33864 0.84164 0.89837 0.0
H1015 H 0.3854 0.7423 0.93811 0.0
H1016 H 0.42137 0.73062 0.92526 0.0
H1017 H 0.39011 0.72002 0.90024 0.0
H1018 H 0.41371 0.74276 0.84565 0.0
H1019 H 0.44508 0.75354 0.87061 0.0
H1020 H 0.42511 0.7805 0.84621 0.0
H1021 H 0.38367 0.85717 0.93464 0.0
H1022 H 0.42837 0.85968 0.97095 0.0
H1023 H 0.4538 0.77381 0.93443 0.0
C1024 C 0.35214 0.7624 0.86448 0.0
C1025 C 0.32488 0.77587 0.85882 0.0
C1026 C 0.32035 0.80489 0.8704 0.0
C1027 C 0.34244 0.81982 0.88857 0.0
C1028 C 0.36895 0.80552 0.89441 0.0
C1029 C 0.37379 0.77748 0.88237 0.0
C1030 C 0.40315 0.76588 0.89343 0.0
C1031 C 0.39979 0.73809 0.91558 0.0
C1032 C 0.42293 0.76036 0.8621 0.0
C1033 C 0.41395 0.79139 0.91449 0.0
C1034 C 0.39428 0.81431 0.91464 0.0
C1035 C 0.39934 0.83945 0.93427 0.0
C1036 C 0.42479 0.84078 0.95472 0.0
C1037 C 0.44452 0.81695 0.95554 0.0
C1038 C 0.43917 0.79243 0.93443 0.0
H1039 H 0.27878 0.35179 0.85538 0.0
H1040 H 0.19608 0.30625 0.84641 0.0
H1041 H 0.17205 0.34569 0.87991 0.0
H1042 H 0.27026 0.37323 0.94139 0.0
H1043 H 0.28827 0.40796 0.93571 0.0
H1044 H 0.29765 0.37763 0.90843 0.0
H1045 H 0.28587 0.40894 0.85439 0.0
H1046 H 0.27637 0.4394 0.88156 0.0
H1047 H 0.25049 0.4259 0.85042 0.0
H1048 H 0.15816 0.38975 0.91835 0.0
H1049 H 0.15647 0.43237 0.95799 0.0
H1050 H 0.24903 0.44658 0.94119 0.0
C1051 C 0.25558 0.35004 0.86038 0.0
C1052 C 0.23934 0.32585 0.84847 0.0
C1053 C 0.20892 0.3247 0.85511 0.0
C1054 C 0.19513 0.34696 0.87416 0.0
C1055 C 0.21205 0.37026 0.88611 0.0
C1056 C 0.24164 0.37183 0.87927 0.0
C1057 C 0.25555 0.39807 0.89615 0.0
C1058 C 0.27932 0.38865 0.92195 0.0
C1059 C 0.26778 0.41933 0.869 0.0
C1060 C 0.22935 0.41085 0.91425 0.0
C1061 C 0.20429 0.39488 0.90802 0.0
C1062 C 0.17766 0.40247 0.92315 0.0
C1063 C 0.17685 0.42671 0.94555 0.0
C1064 C 0.20261 0.44272 0.95278 0.0
C1065 C 0.22893 0.43477 0.93638 0.0
H1066 H 0.65753 0.2706 0.85954 0.0
H1067 H 0.71215 0.19354 0.86817 0.0
H1068 H 0.67284 0.1684 0.90099 0.0
H1069 H 0.62935 0.26841 0.94312 0.0
H1070 H 0.59367 0.28138 0.93085 0.0
H1071 H 0.62508 0.29144 0.90572 0.0
H1072 H 0.60039 0.27035 0.85096 0.0
H1073 H 0.5689 0.26009 0.87602 0.0
H1074 H 0.58788 0.23295 0.85091 0.0
H1075 H 0.62756 0.15362 0.93749 0.0
H1076 H 0.58265 0.15157 0.9735 0.0
H1077 H 0.55972 0.23885 0.93893 0.0
C1078 C 0.66127 0.24839 0.86825 0.0
C1079 C 0.68795 0.2341 0.86163 0.0
C1080 C 0.69178 0.20486 0.87294 0.0
C1081 C 0.6696 0.19046 0.89159 0.0
C1082 C 0.64366 0.20553 0.89824 0.0
C1083 C 0.63952 0.23384 0.88662 0.0
C1084 C 0.6106 0.24612 0.89819 0.0
C1085 C 0.61495 0.27343 0.92081 0.0
C1086 C 0.59078 0.25275 0.86717 0.0
C1087 C 0.59919 0.22061 0.91889 0.0
C1088 C 0.61822 0.19717 0.91856 0.0
C1089 C 0.61242 0.17179 0.93756 0.0
C1090 C 0.58685 0.17073 0.95784 0.0
C1091 C 0.56772 0.19504 0.95908 0.0
C1092 C 0.57387 0.21986 0.93865 0.0
H1093 H 0.75678 0.69611 0.89892 0.0
H1094 H 0.79744 0.67112 0.80214 0.0
H1095 H 0.82198 0.63021 0.83153 0.0
H1096 H 0.81464 0.67242 0.95794 0.0
H1097 H 0.78886 0.65821 0.98881 0.0
H1098 H 0.77901 0.68882 0.9619 0.0
H1099 H 0.73347 0.66062 0.94019 0.0
H1100 H 0.74308 0.6301 0.96715 0.0
H1101 H 0.73803 0.62482 0.92153 0.0
H1102 H 0.8391 0.58908 0.87078 0.0
H1103 H 0.84245 0.54931 0.91429 0.0
H1104 H 0.78583 0.59847 0.98228 0.0
C1105 C 0.77081 0.68222 0.88364 0.0
C1106 C 0.77511 0.6873 0.84801 0.0
C1107 C 0.79418 0.66846 0.82958 0.0
C1108 C 0.80819 0.64495 0.84604 0.0
C1109 C 0.80279 0.64024 0.88093 0.0
C1110 C 0.7843 0.65825 0.89938 0.0
C1111 C 0.77912 0.64659 0.93535 0.0
C1112 C 0.79113 0.66778 0.9626 0.0
C1113 C 0.7465 0.64014 0.94138 0.0
C1114 C 0.79693 0.61877 0.93399 0.0
C1115 C 0.81115 0.61582 0.90278 0.0
C1116 C 0.82823 0.59129 0.89539 0.0
C1117 C 0.83014 0.5689 0.92021 0.0
C1118 C 0.81444 0.57102 0.95145 0.0
C1119 C 0.79814 0.59647 0.95856 0.0
loop_
_geom_bond_atom_site_label_1
_geom_bond_atom_site_label_2
_geom_bond_distance
_geom_bond_site_symmetry_2
_ccdc_geom_bond_type
H0 C6 0.930 . S
H1 C9 0.931 . S
H2 C11 0.931 . S
H3 C13 0.930 . S
H4 C15 0.930 . S
H5 C17 0.931 . S
C6 H0 0.930 . S
C6 C7 1.380 . S
C6 C8 1.394 . S
C7 C6 1.380 . S
C7 C11 1.382 . S
C8 C6 1.394 . S
C8 C9 1.400 . S
C9 H1 0.931 . S
C9 C8 1.400 . S
C9 C10 1.375 . S
C10 C9 1.375 . S
C10 C11 1.415 . S
C10 C12 1.501 . S
C11 H2 0.931 . S
C11 C7 1.382 . S
C11 C10 1.415 . S
C12 C10 1.501 . S
C12 C13 1.384 . S
C12 C17 1.408 . S
C13 H3 0.930 . S
C13 C12 1.384 . S
C13 C14 1.389 . S
C14 C13 1.389 . S
C14 C15 1.405 . S
C15 H4 0.930 . S
C15 C14 1.405 . S
C15 C16 1.364 . S
C16 C15 1.364 . S
C16 C17 1.400 . S
C17 H5 0.931 . S
C17 C12 1.408 . S
C17 C16 1.400 . S
H18 C24 0.930 . S
H19 C27 0.931 . S
H20 C29 0.931 . S
H21 C31 0.930 . S
H22 C33 0.930 . S
H23 C35 0.931 . S
C24 H18 0.930 . S
C24 C25 1.380 . S
C24 C26 1.394 . S
C25 C24 1.380 . S
C25 C29 1.382 . S
C26 C24 1.394 . S
C26 C27 1.400 . S
C27 H19 0.931 . S
C27 C26 1.400 . S
C27 C28 1.375 . S
C28 C27 1.375 . S
C28 C29 1.415 . S
C28 C30 1.501 . S
C29 H20 0.931 . S
C29 C25 1.382 . S
C29 C28 1.415 . S
C30 C28 1.501 . S
C30 C31 1.384 . S
C30 C35 1.408 . S
C31 H21 0.930 . S
C31 C30 1.384 . S
C31 C32 1.389 . S
C32 C31 1.389 . S
C32 C33 1.405 . S
C33 H22 0.930 . S
C33 C32 1.405 . S
C33 C34 1.364 . S
C34 C33 1.364 . S
C34 C35 1.400 . S
C35 H23 0.931 . S
C35 C30 1.408 . S
C35 C34 1.400 . S
H36 C42 0.930 . S
H37 C45 0.931 . S
H38 C47 0.931 . S
H39 C49 0.930 . S
H40 C51 0.930 . S
H41 C53 0.931 . S
C42 H36 0.930 . S
C42 C43 1.380 . S
C42 C44 1.394 . S
C43 C42 1.380 . S
C43 C47 1.382 . S
C44 C42 1.394 . S
C44 C45 1.400 . S
C45 H37 0.931 . S
C45 C44 1.400 . S
C45 C46 1.375 . S
C46 C45 1.375 . S
C46 C47 1.415 . S
C46 C48 1.501 . S
C47 H38 0.931 . S
C47 C43 1.382 . S
C47 C46 1.415 . S
C48 C46 1.501 . S
C48 C49 1.384 . S
C48 C53 1.408 . S
C49 H39 0.930 . S
C49 C48 1.384 . S
C49 C50 1.389 . S
C50 C49 1.389 . S
C50 C51 1.405 . S
C51 H40 0.930 . S
C51 C50 1.405 . S
C51 C52 1.364 . S
C52 C51 1.364 . S
C52 C53 1.400 . S
C53 H41 0.931 . S
C53 C48 1.408 . S
C53 C52 1.400 . S
H54 C60 0.930 . S
H55 C63 0.931 . S
H56 C65 0.931 . S
H57 C67 0.930 . S
H58 C69 0.930 . S
H59 C71 0.931 . S
C60 H54 0.930 . S
C60 C61 1.380 . S
C60 C62 1.394 . S
C61 C60 1.380 . S
C61 C65 1.382 . S
C62 C60 1.394 . S
C62 C63 1.400 . S
C63 H55 0.931 . S
C63 C62 1.400 . S
C63 C64 1.375 . S
C64 C63 1.375 . S
C64 C65 1.415 . S
C64 C66 1.501 . S
C65 H56 0.931 . S
C65 C61 1.382 . S
C65 C64 1.415 . S
C66 C64 1.501 . S
C66 C67 1.384 . S
C66 C71 1.408 . S
C67 H57 0.930 . S
C67 C66 1.384 . S
C67 C68 1.389 . S
C68 C67 1.389 . S
C68 C69 1.405 . S
C69 H58 0.930 . S
C69 C68 1.405 . S
C69 C70 1.364 . S
C70 C69 1.364 . S
C70 C71 1.400 . S
C71 H59 0.931 . S
C71 C66 1.408 . S
C71 C70 1.400 . S
H72 C78 0.930 . S
H73 C81 0.931 . S
H74 C83 0.931 . S
H75 C85 0.930 . S
H76 C87 0.930 . S
H77 C89 0.931 . S
C78 H72 0.930 . S
C78 C79 1.380 . S
C78 C80 1.394 . S
C79 C78 1.380 . S
C79 C83 1.382 . S
C80 C78 1.394 . S
C80 C81 1.400 . S
C81 H73 0.931 . S
C81 C80 1.400 . S
C81 C82 1.375 . S
C82 C81 1.375 . S
C82 C83 1.415 . S
C82 C84 1.501 . S
C83 H74 0.931 . S
C83 C79 1.382 . S
C83 C82 1.415 . S
C84 C82 1.501 . S
C84 C85 1.384 . S
C84 C89 1.408 . S
C85 H75 0.930 . S
C85 C84 1.384 . S
C85 C86 1.389 . S
C86 C85 1.389 . S
C86 C87 1.405 . S
C87 H76 0.930 . S
C87 C86 1.405 . S
C87 C88 1.364 . S
C88 C87 1.364 . S
C88 C89 1.400 . S
C89 H77 0.931 . S
C89 C84 1.408 . S
C89 C88 1.400 . S
H90 C96 0.930 . S
H91 C99 0.931 . S
H92 C101 0.931 . S
H93 C103 0.930 . S
H94 C105 0.930 . S
H95 C107 0.931 . S
C96 H90 0.930 . S
C96 C97 1.380 . S
C96 C98 1.394 . S
C97 C96 1.380 . S
C97 C101 1.382 . S
C98 C96 1.394 . S
C98 C99 1.400 . S
C99 H91 0.931 . S
C99 C98 1.400 . S
C99 C100 1.375 . S
C100 C99 1.375 . S
C100 C101 1.415 . S
C100 C102 1.501 . S
C101 H92 0.931 . S
C101 C97 1.382 . S
C101 C100 1.415 . S
C102 C100 1.501 . S
C102 C103 1.384 . S
C102 C107 1.408 . S
C103 H93 0.930 . S
C103 C102 1.384 . S
C103 C104 1.389 . S
C104 C103 1.389 . S
C104 C105 1.405 . S
C105 H94 0.930 . S
C105 C104 1.405 . S
C105 C106 1.364 . S
C106 C105 1.364 . S
C106 C107 1.400 . S
C107 H95 0.931 . S
C107 C102 1.408 . S
C107 C106 1.400 . S
H108 C114 0.930 . S
H109 C117 0.931 . S
H110 C119 0.931 . S
H111 C121 0.930 . S
H112 C123 0.930 . S
H113 C125 0.931 . S
C114 H108 0.930 . S
C114 C115 1.380 . S
C114 C116 1.394 . S
C115 C114 1.380 . S
C115 C119 1.382 . S
C116 C114 1.394 . S
C116 C117 1.400 . S
C117 H109 0.931 . S
C117 C116 1.400 . S
C117 C118 1.375 . S
C118 C117 1.375 . S
C118 C119 1.415 . S
C118 C120 1.501 . S
C119 H110 0.931 . S
C119 C115 1.382 . S
C119 C118 1.415 . S
C120 C118 1.501 . S
C120 C121 1.384 . S
C120 C125 1.408 . S
C121 H111 0.930 . S
C121 C120 1.384 . S
C121 C122 1.389 . S
C122 C121 1.389 . S
C122 C123 1.405 . S
C123 H112 0.930 . S
C123 C122 1.405 . S
C123 C124 1.364 . S
C124 C123 1.364 . S
C124 C125 1.400 . S
C125 H113 0.931 . S
C125 C120 1.408 . S
C125 C124 1.400 . S
H126 C132 0.930 . S
H127 C135 0.931 . S
H128 C137 0.931 . S
H129 C139 0.930 . S
H130 C141 0.930 . S
H131 C143 0.931 . S
C132 H126 0.930 . S
C132 C133 1.380 . S
C132 C134 1.394 . S
C133 C132 1.380 . S
C133 C137 1.382 . S
C134 C132 1.394 . S
C134 C135 1.400 . S
C135 H127 0.931 . S
C135 C134 1.400 . S
C135 C136 1.375 . S
C136 C135 1.375 . S
C136 C137 1.415 . S
C136 C138 1.501 . S
C137 H128 0.931 . S
C137 C133 1.382 . S
C137 C136 1.415 . S
C138 C136 1.501 . S
C138 C139 1.384 . S
C138 C143 1.408 . S
C139 H129 0.930 . S
C139 C138 1.384 . S
C139 C140 1.389 . S
C140 C139 1.389 . S
C140 C141 1.405 . S
C141 H130 0.930 . S
C141 C140 1.405 . S
C141 C142 1.364 . S
C142 C141 1.364 . S
C142 C143 1.400 . S
C143 H131 0.931 . S
C143 C138 1.408 . S
C143 C142 1.400 . S
C144 O146 1.247 . S
C144 O148 1.258 . S
C145 O152 1.247 . S
C145 O153 1.258 . S
O146 C144 1.247 . S
O146 Zn147 2.028 1_655 S
Zn147 O146 2.028 1_455 S
Zn147 O151 2.035 . S
Zn147 O153 2.035 . S
Zn147 O154 2.028 1_455 S
O148 C144 1.258 . S
O148 Zn149 2.035 1_655 S
Zn149 O148 2.035 1_455 S
Zn149 O150 2.028 . S
Zn149 O152 2.028 . S
Zn149 O155 2.035 1_455 S
O150 Zn149 2.028 . S
O150 C156 1.247 . S
O151 Zn147 2.035 . S
O151 C156 1.258 . S
O152 C145 1.247 . S
O152 Zn149 2.028 . S
O153 C145 1.258 . S
O153 Zn147 2.035 . S
O154 Zn147 2.028 1_655 S
O154 C157 1.247 . S
O155 Zn149 2.035 1_655 S
O155 C157 1.258 . S
C156 O150 1.247 . S
C156 O151 1.258 . S
C157 O154 1.247 . S
C157 O155 1.258 . S
C158 O160 1.247 . S
C158 O162 1.258 . S
C159 O166 1.247 . S
C159 O167 1.258 . S
O160 C158 1.247 . S
O160 Zn161 2.028 . S
Zn161 O160 2.028 . S
Zn161 O165 2.035 1_545 S
Zn161 O167 2.035 1_545 S
Zn161 O168 2.028 . S
O162 C158 1.258 . S
O162 Zn163 2.056 . S
Zn163 O162 2.056 . S
Zn163 O164 2.007 1_545 S
Zn163 O166 2.007 1_545 S
Zn163 O169 2.056 . S
O164 Zn163 2.007 1_565 S
O164 C170 1.247 . S
O165 Zn161 2.035 1_565 S
O165 C170 1.258 . S
O166 C159 1.247 . S
O166 Zn163 2.007 1_565 S
O167 C159 1.258 . S
O167 Zn161 2.035 1_565 S
O168 Zn161 2.028 . S
O168 C171 1.247 . S
O169 Zn163 2.056 . S
O169 C171 1.258 . S
C170 O164 1.247 . S
C170 O165 1.258 . S
C171 O168 1.247 . S
C171 O169 1.258 . S
C172 O174 1.247 . S
C172 O176 1.258 . S
C173 O180 1.247 . S
C173 O181 1.258 . S
O174 C172 1.247 . S
O174 Zn175 2.028 1_655 S
Zn175 O174 2.028 1_455 S
Zn175 O179 2.035 . S
Zn175 O181 2.035 . S
Zn175 O182 2.028 1_455 S
O176 C172 1.258 . S
O176 Zn177 2.035 1_655 S
Zn177 O176 2.035 1_455 S
Zn177 O178 2.028 . S
Zn177 O180 2.028 . S
Zn177 O183 2.035 1_455 S
O178 Zn177 2.028 . S
O178 C184 1.247 . S
O179 Zn175 2.035 . S
O179 C184 1.258 . S
O180 C173 1.247 . S
O180 Zn177 2.028 . S
O181 C173 1.258 . S
O181 Zn175 2.035 . S
O182 Zn175 2.028 1_655 S
O182 C185 1.247 . S
O183 Zn177 2.035 1_655 S
O183 C185 1.258 . S
C184 O178 1.247 . S
C184 O179 1.258 . S
C185 O182 1.247 . S
C185 O183 1.258 . S
C186 O188 1.247 . S
C186 O190 1.258 . S
C187 O194 1.247 . S
C187 O195 1.258 . S
O188 C186 1.247 . S
O188 Zn189 2.051 . S
Zn189 O188 2.051 . S
Zn189 O193 2.012 1_545 S
Zn189 O195 2.012 1_545 S
Zn189 O196 2.051 . S
O190 C186 1.258 . S
O190 Zn191 2.044 . S
Zn191 O190 2.044 . S
Zn191 O192 2.019 1_545 S
Zn191 O194 2.019 1_545 S
Zn191 O197 2.044 . S
O192 Zn191 2.019 1_565 S
O192 C198 1.247 . S
O193 Zn189 2.012 1_565 S
O193 C198 1.258 . S
O194 C187 1.247 . S
O194 Zn191 2.019 1_565 S
O195 C187 1.258 . S
O195 Zn189 2.012 1_565 S
O196 Zn189 2.051 . S
O196 C199 1.247 . S
O197 Zn191 2.044 . S
O197 C199 1.258 . S
C198 O192 1.247 . S
C198 O193 1.258 . S
C199 O196 1.247 . S
C199 O197 1.258 . S
C200 O202 1.247 . S
C200 O204 1.258 . S
C201 O208 1.247 . S
C201 O209 1.258 . S
O202 C200 1.247 . S
O202 Zn203 2.028 . S
Zn203 O202 2.028 . S
Zn203 O207 2.035 . S
Zn203 O209 2.035 1_554 S
Zn203 O210 2.028 1_554 S
O204 C200 1.258 . S
O204 Zn205 2.035 . S
Zn205 O204 2.035 . S
Zn205 O206 2.028 . S
Zn205 O208 2.028 1_554 S
Zn205 O211 2.035 1_554 S
O206 Zn205 2.028 . S
O206 C212 1.247 . S
O207 Zn203 2.035 . S
O207 C212 1.258 . S
O208 C201 1.247 . S
O208 Zn205 2.028 1_556 S
O209 C201 1.258 . S
O209 Zn203 2.035 1_556 S
O210 Zn203 2.028 1_556 S
O210 C213 1.247 . S
O211 Zn205 2.035 1_556 S
O211 C213 1.258 . S
C212 O206 1.247 . S
C212 O207 1.258 . S
C213 O210 1.247 . S
C213 O211 1.258 . S
C214 O216 1.247 . S
C214 O218 1.258 . S
C215 O222 1.247 . S
C215 O223 1.258 . S
O216 C214 1.247 . S
O216 Zn217 2.046 . S
Zn217 O216 2.046 . S
Zn217 O221 2.053 . S
Zn217 O223 2.017 1_554 S
Zn217 O224 2.010 1_554 S
O218 C214 1.258 . S
O218 Zn219 2.056 . S
Zn219 O218 2.056 . S
Zn219 O220 2.049 . S
Zn219 O222 2.007 1_554 S
Zn219 O225 2.015 1_554 S
O220 Zn219 2.049 . S
O220 C226 1.247 . S
O221 Zn217 2.053 . S
O221 C226 1.258 . S
O222 C215 1.247 . S
O222 Zn219 2.007 1_556 S
O223 C215 1.258 . S
O223 Zn217 2.017 1_556 S
O224 Zn217 2.010 1_556 S
O224 C227 1.247 . S
O225 Zn219 2.015 1_556 S
O225 C227 1.258 . S
C226 O220 1.247 . S
C226 O221 1.258 . S
C227 O224 1.247 . S
C227 O225 1.258 . S
C228 O230 1.247 . S
C228 O232 1.258 . S
C229 O236 1.247 . S
C229 O237 1.258 . S
O230 C228 1.247 . S
O230 Zn231 2.007 1_556 S
Zn231 O230 2.007 1_554 S
Zn231 O235 2.014 1_554 S
Zn231 O237 2.056 . S
Zn231 O238 2.049 . S
O232 C228 1.258 . S
O232 Zn233 2.014 1_556 S
Zn233 O232 2.014 1_554 S
Zn233 O234 2.006 1_554 S
Zn233 O236 2.050 . S
Zn233 O239 2.057 . S
O234 Zn233 2.006 1_556 S
O234 C240 1.247 . S
O235 Zn231 2.014 1_556 S
O235 C240 1.258 . S
O236 C229 1.247 . S
O236 Zn233 2.050 . S
O237 C229 1.258 . S
O237 Zn231 2.056 . S
O238 Zn231 2.049 . S
O238 C241 1.247 . S
O239 Zn233 2.057 . S
O239 C241 1.258 . S
C240 O234 1.247 . S
C240 O235 1.258 . S
C241 O238 1.247 . S
C241 O239 1.258 . S
C242 O244 1.247 . S
C242 O246 1.258 . S
C243 O250 1.247 . S
C243 O251 1.258 . S
O244 C242 1.247 . S
O244 Zn245 2.037 . S
Zn245 O244 2.037 . S
Zn245 O249 2.044 . S
Zn245 O251 2.027 1_554 S
Zn245 O252 2.019 1_554 S
O246 C242 1.258 . S
O246 Zn247 2.046 . S
Zn247 O246 2.046 . S
Zn247 O248 2.039 . S
Zn247 O250 2.017 1_554 S
Zn247 O253 2.024 1_554 S
O248 Zn247 2.039 . S
O248 C254 1.247 . S
O249 Zn245 2.044 . S
O249 C254 1.258 . S
O250 C243 1.247 . S
O250 Zn247 2.017 1_556 S
O251 C243 1.258 . S
O251 Zn245 2.027 1_556 S
O252 Zn245 2.019 1_556 S
O252 C255 1.247 . S
O253 Zn247 2.024 1_556 S
O253 C255 1.258 . S
C254 O248 1.247 . S
C254 O249 1.258 . S
C255 O252 1.247 . S
C255 O253 1.258 . S
H256 C268 0.930 . S
H257 C270 0.930 . S
H258 C271 0.930 . S
H259 C275 0.959 . S
H260 C275 0.959 . S
H261 C275 0.961 . S
H262 C276 0.960 . S
H263 C276 0.961 . S
H264 C276 0.959 . S
H265 C279 0.929 . S
H266 C280 0.931 . S
H267 C282 0.930 . S
C268 H256 0.930 . S
C268 C269 1.399 . S
C268 C273 1.399 . S
C269 C268 1.399 . S
C269 C270 1.376 . S
C270 H257 0.930 . S
C270 C269 1.376 . S
C270 C271 1.388 . S
C271 H258 0.930 . S
C271 C270 1.388 . S
C271 C272 1.390 . S
C272 C271 1.390 . S
C272 C273 1.394 . S
C272 C278 1.465 . S
C273 C268 1.399 . S
C273 C272 1.394 . S
C273 C274 1.516 . S
C274 C273 1.516 . S
C274 C275 1.502 . S
C274 C276 1.561 . S
C274 C277 1.526 . S
C275 H259 0.959 . S
C275 H260 0.959 . S
C275 H261 0.961 . S
C275 C274 1.502 . S
C276 H262 0.960 . S
C276 H263 0.961 . S
C276 H264 0.959 . S
C276 C274 1.561 . S
C277 C274 1.526 . S
C277 C278 1.396 . S
C277 C282 1.390 . S
C278 C272 1.465 . S
C278 C277 1.396 . S
C278 C279 1.399 . S
C279 H265 0.929 . S
C279 C278 1.399 . S
C279 C280 1.385 . S
C280 H266 0.931 . S
C280 C279 1.385 . S
C280 C281 1.389 . S
C281 C280 1.389 . S
C281 C282 1.387 . S
C282 H267 0.930 . S
C282 C277 1.390 . S
C282 C281 1.387 . S
H283 C295 0.930 . S
H284 C297 0.930 . S
H285 C298 0.930 . S
H286 C302 0.959 . S
H287 C302 0.959 . S
H288 C302 0.961 . S
H289 C303 0.960 . S
H290 C303 0.961 . S
H291 C303 0.959 . S
H292 C306 0.929 . S
H293 C307 0.931 . S
H294 C309 0.930 . S
C295 H283 0.930 . S
C295 C296 1.399 . S
C295 C300 1.399 . S
C296 C295 1.399 . S
C296 C297 1.376 . S
C297 H284 0.930 . S
C297 C296 1.376 . S
C297 C298 1.388 . S
C298 H285 0.930 . S
C298 C297 1.388 . S
C298 C299 1.390 . S
C299 C298 1.390 . S
C299 C300 1.394 . S
C299 C305 1.465 . S
C300 C295 1.399 . S
C300 C299 1.394 . S
C300 C301 1.516 . S
C301 C300 1.516 . S
C301 C302 1.502 . S
C301 C303 1.561 . S
C301 C304 1.526 . S
C302 H286 0.959 . S
C302 H287 0.959 . S
C302 H288 0.961 . S
C302 C301 1.502 . S
C303 H289 0.960 . S
C303 H290 0.961 . S
C303 H291 0.959 . S
C303 C301 1.561 . S
C304 C301 1.526 . S
C304 C305 1.396 . S
C304 C309 1.390 . S
C305 C299 1.465 . S
C305 C304 1.396 . S
C305 C306 1.399 . S
C306 H292 0.929 . S
C306 C305 1.399 . S
C306 C307 1.385 . S
C307 H293 0.931 . S
C307 C306 1.385 . S
C307 C308 1.389 . S
C308 C307 1.389 . S
C308 C309 1.387 . S
C309 H294 0.930 . S
C309 C304 1.390 . S
C309 C308 1.387 . S
H310 C322 0.930 . S
H311 C324 0.930 . S
H312 C325 0.930 . S
H313 C329 0.959 . S
H314 C329 0.959 . S
H315 C329 0.961 . S
H316 C330 0.960 . S
H317 C330 0.961 . S
H318 C330 0.959 . S
H319 C333 0.929 . S
H320 C334 0.931 . S
H321 C336 0.930 . S
C322 H310 0.930 . S
C322 C323 1.399 . S
C322 C327 1.399 . S
C323 C322 1.399 . S
C323 C324 1.376 . S
C324 H311 0.930 . S
C324 C323 1.376 . S
C324 C325 1.388 . S
C325 H312 0.930 . S
C325 C324 1.388 . S
C325 C326 1.390 . S
C326 C325 1.390 . S
C326 C327 1.394 . S
C326 C332 1.465 . S
C327 C322 1.399 . S
C327 C326 1.394 . S
C327 C328 1.516 . S
C328 C327 1.516 . S
C328 C329 1.502 . S
C328 C330 1.561 . S
C328 C331 1.526 . S
C329 H313 0.959 . S
C329 H314 0.959 . S
C329 H315 0.961 . S
C329 C328 1.502 . S
C330 H316 0.960 . S
C330 H317 0.961 . S
C330 H318 0.959 . S
C330 C328 1.561 . S
C331 C328 1.526 . S
C331 C332 1.396 . S
C331 C336 1.390 . S
C332 C326 1.465 . S
C332 C331 1.396 . S
C332 C333 1.399 . S
C333 H319 0.929 . S
C333 C332 1.399 . S
C333 C334 1.385 . S
C334 H320 0.931 . S
C334 C333 1.385 . S
C334 C335 1.389 . S
C335 C334 1.389 . S
C335 C336 1.387 . S
C336 H321 0.930 . S
C336 C331 1.390 . S
C336 C335 1.387 . S
H337 C349 0.930 . S
H338 C351 0.930 . S
H339 C352 0.930 . S
H340 C356 0.959 . S
H341 C356 0.959 . S
H342 C356 0.961 . S
H343 C357 0.960 . S
H344 C357 0.961 . S
H345 C357 0.959 . S
H346 C360 0.929 . S
H347 C361 0.931 . S
H348 C363 0.930 . S
C349 H337 0.930 . S
C349 C350 1.399 . S
C349 C354 1.399 . S
C350 C349 1.399 . S
C350 C351 1.376 . S
C351 H338 0.930 . S
C351 C350 1.376 . S
C351 C352 1.388 . S
C352 H339 0.930 . S
C352 C351 1.388 . S
C352 C353 1.390 . S
C353 C352 1.390 . S
C353 C354 1.394 . S
C353 C359 1.465 . S
C354 C349 1.399 . S
C354 C353 1.394 . S
C354 C355 1.516 . S
C355 C354 1.516 . S
C355 C356 1.502 . S
C355 C357 1.561 . S
C355 C358 1.526 . S
C356 H340 0.959 . S
C356 H341 0.959 . S
C356 H342 0.961 . S
C356 C355 1.502 . S
C357 H343 0.960 . S
C357 H344 0.961 . S
C357 H345 0.959 . S
C357 C355 1.561 . S
C358 C355 1.526 . S
C358 C359 1.396 . S
C358 C363 1.390 . S
C359 C353 1.465 . S
C359 C358 1.396 . S
C359 C360 1.399 . S
C360 H346 0.929 . S
C360 C359 1.399 . S
C360 C361 1.385 . S
C361 H347 0.931 . S
C361 C360 1.385 . S
C361 C362 1.389 . S
C362 C361 1.389 . S
C362 C363 1.387 . S
C363 H348 0.930 . S
C363 C358 1.390 . S
C363 C362 1.387 . S
H364 C376 0.930 . S
H365 C378 0.930 . S
H366 C379 0.930 . S
H367 C383 0.959 . S
H368 C383 0.959 . S
H369 C383 0.961 . S
H370 C384 0.960 . S
H371 C384 0.961 . S
H372 C384 0.959 . S
H373 C387 0.929 . S
H374 C388 0.931 . S
H375 C390 0.930 . S
C376 H364 0.930 . S
C376 C377 1.399 . S
C376 C381 1.399 . S
C377 C376 1.399 . S
C377 C378 1.376 . S
C378 H365 0.930 . S
C378 C377 1.376 . S
C378 C379 1.388 . S
C379 H366 0.930 . S
C379 C378 1.388 . S
C379 C380 1.390 . S
C380 C379 1.390 . S
C380 C381 1.394 . S
C380 C386 1.465 . S
C381 C376 1.399 . S
C381 C380 1.394 . S
C381 C382 1.516 . S
C382 C381 1.516 . S
C382 C383 1.502 . S
C382 C384 1.561 . S
C382 C385 1.526 . S
C383 H367 0.959 . S
C383 H368 0.959 . S
C383 H369 0.961 . S
C383 C382 1.502 . S
C384 H370 0.960 . S
C384 H371 0.961 . S
C384 H372 0.959 . S
C384 C382 1.561 . S
C385 C382 1.526 . S
C385 C386 1.396 . S
C385 C390 1.390 . S
C386 C380 1.465 . S
C386 C385 1.396 . S
C386 C387 1.399 . S
C387 H373 0.929 . S
C387 C386 1.399 . S
C387 C388 1.385 . S
C388 H374 0.931 . S
C388 C387 1.385 . S
C388 C389 1.389 . S
C389 C388 1.389 . S
C389 C390 1.387 . S
C390 H375 0.930 . S
C390 C385 1.390 . S
C390 C389 1.387 . S
H391 C403 0.930 . S
H392 C405 0.930 . S
H393 C406 0.930 . S
H394 C410 0.959 . S
H395 C410 0.959 . S
H396 C410 0.961 . S
H397 C411 0.960 . S
H398 C411 0.961 . S
H399 C411 0.959 . S
H400 C414 0.929 . S
H401 C415 0.931 . S
H402 C417 0.930 . S
C403 H391 0.930 . S
C403 C404 1.399 . S
C403 C408 1.399 . S
C404 C403 1.399 . S
C404 C405 1.376 . S
C405 H392 0.930 . S
C405 C404 1.376 . S
C405 C406 1.388 . S
C406 H393 0.930 . S
C406 C405 1.388 . S
C406 C407 1.390 . S
C407 C406 1.390 . S
C407 C408 1.394 . S
C407 C413 1.465 . S
C408 C403 1.399 . S
C408 C407 1.394 . S
C408 C409 1.516 . S
C409 C408 1.516 . S
C409 C410 1.502 . S
C409 C411 1.561 . S
C409 C412 1.526 . S
C410 H394 0.959 . S
C410 H395 0.959 . S
C410 H396 0.961 . S
C410 C409 1.502 . S
C411 H397 0.960 . S
C411 H398 0.961 . S
C411 H399 0.959 . S
C411 C409 1.561 . S
C412 C409 1.526 . S
C412 C413 1.396 . S
C412 C417 1.390 . S
C413 C407 1.465 . S
C413 C412 1.396 . S
C413 C414 1.399 . S
C414 H400 0.929 . S
C414 C413 1.399 . S
C414 C415 1.385 . S
C415 H401 0.931 . S
C415 C414 1.385 . S
C415 C416 1.389 . S
C416 C415 1.389 . S
C416 C417 1.387 . S
C417 H402 0.930 . S
C417 C412 1.390 . S
C417 C416 1.387 . S
H418 C430 0.930 . S
H419 C432 0.930 . S
H420 C433 0.930 . S
H421 C437 0.959 . S
H422 C437 0.959 . S
H423 C437 0.961 . S
H424 C438 0.960 . S
H425 C438 0.961 . S
H426 C438 0.959 . S
H427 C441 0.929 . S
H428 C442 0.931 . S
H429 C444 0.930 . S
C430 H418 0.930 . S
C430 C431 1.399 . S
C430 C435 1.399 . S
C431 C430 1.399 . S
C431 C432 1.376 . S
C432 H419 0.930 . S
C432 C431 1.376 . S
C432 C433 1.388 . S
C433 H420 0.930 . S
C433 C432 1.388 . S
C433 C434 1.390 . S
C434 C433 1.390 . S
C434 C435 1.394 . S
C434 C440 1.465 . S
C435 C430 1.399 . S
C435 C434 1.394 . S
C435 C436 1.516 . S
C436 C435 1.516 . S
C436 C437 1.502 . S
C436 C438 1.561 . S
C436 C439 1.526 . S
C437 H421 0.959 . S
C437 H422 0.959 . S
C437 H423 0.961 . S
C437 C436 1.502 . S
C438 H424 0.960 . S
C438 H425 0.961 . S
C438 H426 0.959 . S
C438 C436 1.561 . S
C439 C436 1.526 . S
C439 C440 1.396 . S
C439 C444 1.390 . S
C440 C434 1.465 . S
C440 C439 1.396 . S
C440 C441 1.399 . S
C441 H427 0.929 . S
C441 C440 1.399 . S
C441 C442 1.385 . S
C442 H428 0.931 . S
C442 C441 1.385 . S
C442 C443 1.389 . S
C443 C442 1.389 . S
C443 C444 1.387 . S
C444 H429 0.930 . S
C444 C439 1.390 . S
C444 C443 1.387 . S
H445 C457 0.930 . S
H446 C459 0.930 . S
H447 C460 0.930 . S
H448 C464 0.959 . S
H449 C464 0.959 . S
H450 C464 0.961 . S
H451 C465 0.960 . S
H452 C465 0.961 . S
H453 C465 0.959 . S
H454 C468 0.929 . S
H455 C469 0.931 . S
H456 C471 0.930 . S
C457 H445 0.930 . S
C457 C458 1.399 . S
C457 C462 1.399 . S
C458 C457 1.399 . S
C458 C459 1.376 . S
C459 H446 0.930 . S
C459 C458 1.376 . S
C459 C460 1.388 . S
C460 H447 0.930 . S
C460 C459 1.388 . S
C460 C461 1.390 . S
C461 C460 1.390 . S
C461 C462 1.394 . S
C461 C467 1.465 . S
C462 C457 1.399 . S
C462 C461 1.394 . S
C462 C463 1.516 . S
C463 C462 1.516 . S
C463 C464 1.502 . S
C463 C465 1.561 . S
C463 C466 1.526 . S
C464 H448 0.959 . S
C464 H449 0.959 . S
C464 H450 0.961 . S
C464 C463 1.502 . S
C465 H451 0.960 . S
C465 H452 0.961 . S
C465 H453 0.959 . S
C465 C463 1.561 . S
C466 C463 1.526 . S
C466 C467 1.396 . S
C466 C471 1.390 . S
C467 C461 1.465 . S
C467 C466 1.396 . S
C467 C468 1.399 . S
C468 H454 0.929 . S
C468 C467 1.399 . S
C468 C469 1.385 . S
C469 H455 0.931 . S
C469 C468 1.385 . S
C469 C470 1.389 . S
C470 C469 1.389 . S
C470 C471 1.387 . S
C471 H456 0.930 . S
C471 C466 1.390 . S
C471 C470 1.387 . S
H472 C484 0.930 . S
H473 C486 0.930 . S
H474 C487 0.930 . S
H475 C491 0.959 . S
H476 C491 0.959 . S
H477 C491 0.961 . S
H478 C492 0.960 . S
H479 C492 0.961 . S
H480 C492 0.959 . S
H481 C495 0.929 . S
H482 C496 0.931 . S
H483 C498 0.930 . S
C484 H472 0.930 . S
C484 C485 1.399 . S
C484 C489 1.399 . S
C485 C484 1.399 . S
C485 C486 1.376 . S
C486 H473 0.930 . S
C486 C485 1.376 . S
C486 C487 1.388 . S
C487 H474 0.930 . S
C487 C486 1.388 . S
C487 C488 1.390 . S
C488 C487 1.390 . S
C488 C489 1.394 . S
C488 C494 1.465 . S
C489 C484 1.399 . S
C489 C488 1.394 . S
C489 C490 1.516 . S
C490 C489 1.516 . S
C490 C491 1.502 . S
C490 C492 1.561 . S
C490 C493 1.526 . S
C491 H475 0.959 . S
C491 H476 0.959 . S
C491 H477 0.961 . S
C491 C490 1.502 . S
C492 H478 0.960 . S
C492 H479 0.961 . S
C492 H480 0.959 . S
C492 C490 1.561 . S
C493 C490 1.526 . S
C493 C494 1.396 . S
C493 C498 1.390 . S
C494 C488 1.465 . S
C494 C493 1.396 . S
C494 C495 1.399 . S
C495 H481 0.929 . S
C495 C494 1.399 . S
C495 C496 1.385 . S
C496 H482 0.931 . S
C496 C495 1.385 . S
C496 C497 1.389 . S
C497 C496 1.389 . S
C497 C498 1.387 . S
C498 H483 0.930 . S
C498 C493 1.390 . S
C498 C497 1.387 . S
H499 C511 0.930 . S
H500 C513 0.930 . S
H501 C514 0.930 . S
H502 C518 0.959 . S
H503 C518 0.959 . S
H504 C518 0.961 . S
H505 C519 0.960 . S
H506 C519 0.961 . S
H507 C519 0.959 . S
H508 C522 0.929 . S
H509 C523 0.931 . S
H510 C525 0.930 . S
C511 H499 0.930 . S
C511 C512 1.399 . S
C511 C516 1.399 . S
C512 C511 1.399 . S
C512 C513 1.376 . S
C513 H500 0.930 . S
C513 C512 1.376 . S
C513 C514 1.388 . S
C514 H501 0.930 . S
C514 C513 1.388 . S
C514 C515 1.390 . S
C515 C514 1.390 . S
C515 C516 1.394 . S
C515 C521 1.465 . S
C516 C511 1.399 . S
C516 C515 1.394 . S
C516 C517 1.516 . S
C517 C516 1.516 . S
C517 C518 1.502 . S
C517 C519 1.561 . S
C517 C520 1.526 . S
C518 H502 0.959 . S
C518 H503 0.959 . S
C518 H504 0.961 . S
C518 C517 1.502 . S
C519 H505 0.960 . S
C519 H506 0.961 . S
C519 H507 0.959 . S
C519 C517 1.561 . S
C520 C517 1.526 . S
C520 C521 1.396 . S
C520 C525 1.390 . S
C521 C515 1.465 . S
C521 C520 1.396 . S
C521 C522 1.399 . S
C522 H508 0.929 . S
C522 C521 1.399 . S
C522 C523 1.385 . S
C523 H509 0.931 . S
C523 C522 1.385 . S
C523 C524 1.389 . S
C524 C523 1.389 . S
C524 C525 1.387 . S
C525 H510 0.930 . S
C525 C520 1.390 . S
C525 C524 1.387 . S
H526 C538 0.930 . S
H527 C540 0.930 . S
H528 C541 0.930 . S
H529 C545 0.959 . S
H530 C545 0.959 . S
H531 C545 0.961 . S
H532 C546 0.960 . S
H533 C546 0.961 . S
H534 C546 0.959 . S
H535 C549 0.929 . S
H536 C550 0.931 . S
H537 C552 0.930 . S
C538 H526 0.930 . S
C538 C539 1.399 . S
C538 C543 1.399 . S
C539 C538 1.399 . S
C539 C540 1.376 . S
C540 H527 0.930 . S
C540 C539 1.376 . S
C540 C541 1.388 . S
C541 H528 0.930 . S
C541 C540 1.388 . S
C541 C542 1.390 . S
C542 C541 1.390 . S
C542 C543 1.394 . S
C542 C548 1.465 . S
C543 C538 1.399 . S
C543 C542 1.394 . S
C543 C544 1.516 . S
C544 C543 1.516 . S
C544 C545 1.502 . S
C544 C546 1.561 . S
C544 C547 1.526 . S
C545 H529 0.959 . S
C545 H530 0.959 . S
C545 H531 0.961 . S
C545 C544 1.502 . S
C546 H532 0.960 . S
C546 H533 0.961 . S
C546 H534 0.959 . S
C546 C544 1.561 . S
C547 C544 1.526 . S
C547 C548 1.396 . S
C547 C552 1.390 . S
C548 C542 1.465 . S
C548 C547 1.396 . S
C548 C549 1.399 . S
C549 H535 0.929 . S
C549 C548 1.399 . S
C549 C550 1.385 . S
C550 H536 0.931 . S
C550 C549 1.385 . S
C550 C551 1.389 . S
C551 C550 1.389 . S
C551 C552 1.387 . S
C552 H537 0.930 . S
C552 C547 1.390 . S
C552 C551 1.387 . S
H553 C565 0.930 . S
H554 C567 0.930 . S
H555 C568 0.930 . S
H556 C572 0.959 . S
H557 C572 0.959 . S
H558 C572 0.961 . S
H559 C573 0.960 . S
H560 C573 0.961 . S
H561 C573 0.959 . S
H562 C576 0.929 . S
H563 C577 0.931 . S
H564 C579 0.930 . S
C565 H553 0.930 . S
C565 C566 1.399 . S
C565 C570 1.399 . S
C566 C565 1.399 . S
C566 C567 1.376 . S
C567 H554 0.930 . S
C567 C566 1.376 . S
C567 C568 1.388 . S
C568 H555 0.930 . S
C568 C567 1.388 . S
C568 C569 1.390 . S
C569 C568 1.390 . S
C569 C570 1.394 . S
C569 C575 1.465 . S
C570 C565 1.399 . S
C570 C569 1.394 . S
C570 C571 1.516 . S
C571 C570 1.516 . S
C571 C572 1.502 . S
C571 C573 1.561 . S
C571 C574 1.526 . S
C572 H556 0.959 . S
C572 H557 0.959 . S
C572 H558 0.961 . S
C572 C571 1.502 . S
C573 H559 0.960 . S
C573 H560 0.961 . S
C573 H561 0.959 . S
C573 C571 1.561 . S
C574 C571 1.526 . S
C574 C575 1.396 . S
C574 C579 1.390 . S
C575 C569 1.465 . S
C575 C574 1.396 . S
C575 C576 1.399 . S
C576 H562 0.929 . S
C576 C575 1.399 . S
C576 C577 1.385 . S
C577 H563 0.931 . S
C577 C576 1.385 . S
C577 C578 1.389 . S
C578 C577 1.389 . S
C578 C579 1.387 . S
C579 H564 0.930 . S
C579 C574 1.390 . S
C579 C578 1.387 . S
H580 C592 0.930 . S
H581 C594 0.930 . S
H582 C595 0.930 . S
H583 C599 0.959 . S
H584 C599 0.959 . S
H585 C599 0.961 . S
H586 C600 0.960 . S
H587 C600 0.961 . S
H588 C600 0.959 . S
H589 C603 0.929 . S
H590 C604 0.931 . S
H591 C606 0.930 . S
C592 H580 0.930 . S
C592 C593 1.399 . S
C592 C597 1.399 . S
C593 C592 1.399 . S
C593 C594 1.376 . S
C594 H581 0.930 . S
C594 C593 1.376 . S
C594 C595 1.388 . S
C595 H582 0.930 . S
C595 C594 1.388 . S
C595 C596 1.390 . S
C596 C595 1.390 . S
C596 C597 1.394 . S
C596 C602 1.465 . S
C597 C592 1.399 . S
C597 C596 1.394 . S
C597 C598 1.516 . S
C598 C597 1.516 . S
C598 C599 1.502 . S
C598 C600 1.561 . S
C598 C601 1.526 . S
C599 H583 0.959 . S
C599 H584 0.959 . S
C599 H585 0.961 . S
C599 C598 1.502 . S
C600 H586 0.960 . S
C600 H587 0.961 . S
C600 H588 0.959 . S
C600 C598 1.561 . S
C601 C598 1.526 . S
C601 C602 1.396 . S
C601 C606 1.390 . S
C602 C596 1.465 . S
C602 C601 1.396 . S
C602 C603 1.399 . S
C603 H589 0.929 . S
C603 C602 1.399 . S
C603 C604 1.385 . S
C604 H590 0.931 . S
C604 C603 1.385 . S
C604 C605 1.389 . S
C605 C604 1.389 . S
C605 C606 1.387 . S
C606 H591 0.930 . S
C606 C601 1.390 . S
C606 C605 1.387 . S
H607 C619 0.930 . S
H608 C621 0.930 . S
H609 C622 0.930 . S
H610 C626 0.959 . S
H611 C626 0.959 . S
H612 C626 0.961 . S
H613 C627 0.960 . S
H614 C627 0.961 . S
H615 C627 0.959 . S
H616 C630 0.929 . S
H617 C631 0.931 . S
H618 C633 0.930 . S
C619 H607 0.930 . S
C619 C620 1.399 . S
C619 C624 1.399 . S
C620 C619 1.399 . S
C620 C621 1.376 . S
C621 H608 0.930 . S
C621 C620 1.376 . S
C621 C622 1.388 . S
C622 H609 0.930 . S
C622 C621 1.388 . S
C622 C623 1.390 . S
C623 C622 1.390 . S
C623 C624 1.394 . S
C623 C629 1.465 . S
C624 C619 1.399 . S
C624 C623 1.394 . S
C624 C625 1.516 . S
C625 C624 1.516 . S
C625 C626 1.502 . S
C625 C627 1.561 . S
C625 C628 1.526 . S
C626 H610 0.959 . S
C626 H611 0.959 . S
C626 H612 0.961 . S
C626 C625 1.502 . S
C627 H613 0.960 . S
C627 H614 0.961 . S
C627 H615 0.959 . S
C627 C625 1.561 . S
C628 C625 1.526 . S
C628 C629 1.396 . S
C628 C633 1.390 . S
C629 C623 1.465 . S
C629 C628 1.396 . S
C629 C630 1.399 . S
C630 H616 0.929 . S
C630 C629 1.399 . S
C630 C631 1.385 . S
C631 H617 0.931 . S
C631 C630 1.385 . S
C631 C632 1.389 . S
C632 C631 1.389 . S
C632 C633 1.387 . S
C633 H618 0.930 . S
C633 C628 1.390 . S
C633 C632 1.387 . S
H634 C646 0.930 . S
H635 C648 0.930 . S
H636 C649 0.930 . S
H637 C653 0.959 . S
H638 C653 0.959 . S
H639 C653 0.961 . S
H640 C654 0.960 . S
H641 C654 0.961 . S
H642 C654 0.959 . S
H643 C657 0.929 . S
H644 C658 0.931 . S
H645 C660 0.930 . S
C646 H634 0.930 . S
C646 C647 1.399 . S
C646 C651 1.399 . S
C647 C646 1.399 . S
C647 C648 1.376 . S
C648 H635 0.930 . S
C648 C647 1.376 . S
C648 C649 1.388 . S
C649 H636 0.930 . S
C649 C648 1.388 . S
C649 C650 1.390 . S
C650 C649 1.390 . S
C650 C651 1.394 . S
C650 C656 1.465 . S
C651 C646 1.399 . S
C651 C650 1.394 . S
C651 C652 1.516 . S
C652 C651 1.516 . S
C652 C653 1.502 . S
C652 C654 1.561 . S
C652 C655 1.526 . S
C653 H637 0.959 . S
C653 H638 0.959 . S
C653 H639 0.961 . S
C653 C652 1.502 . S
C654 H640 0.960 . S
C654 H641 0.961 . S
C654 H642 0.959 . S
C654 C652 1.561 . S
C655 C652 1.526 . S
C655 C656 1.396 . S
C655 C660 1.390 . S
C656 C650 1.465 . S
C656 C655 1.396 . S
C656 C657 1.399 . S
C657 H643 0.929 . S
C657 C656 1.399 . S
C657 C658 1.385 . S
C658 H644 0.931 . S
C658 C657 1.385 . S
C658 C659 1.389 . S
C659 C658 1.389 . S
C659 C660 1.387 . S
C660 H645 0.930 . S
C660 C655 1.390 . S
C660 C659 1.387 . S
H661 C673 0.930 . S
H662 C675 0.930 . S
H663 C676 0.930 . S
H664 C680 0.959 . S
H665 C680 0.959 . S
H666 C680 0.961 . S
H667 C681 0.960 . S
H668 C681 0.961 . S
H669 C681 0.959 . S
H670 C684 0.929 . S
H671 C685 0.931 . S
H672 C687 0.930 . S
C673 H661 0.930 . S
C673 C674 1.399 . S
C673 C678 1.399 . S
C674 C673 1.399 . S
C674 C675 1.376 . S
C675 H662 0.930 . S
C675 C674 1.376 . S
C675 C676 1.388 . S
C676 H663 0.930 . S
C676 C675 1.388 . S
C676 C677 1.390 . S
C677 C676 1.390 . S
C677 C678 1.394 . S
C677 C683 1.465 . S
C678 C673 1.399 . S
C678 C677 1.394 . S
C678 C679 1.516 . S
C679 C678 1.516 . S
C679 C680 1.502 . S
C679 C681 1.561 . S
C679 C682 1.526 . S
C680 H664 0.959 . S
C680 H665 0.959 . S
C680 H666 0.961 . S
C680 C679 1.502 . S
C681 H667 0.960 . S
C681 H668 0.961 . S
C681 H669 0.959 . S
C681 C679 1.561 . S
C682 C679 1.526 . S
C682 C683 1.396 . S
C682 C687 1.390 . S
C683 C677 1.465 . S
C683 C682 1.396 . S
C683 C684 1.399 . S
C684 H670 0.929 . S
C684 C683 1.399 . S
C684 C685 1.385 . S
C685 H671 0.931 . S
C685 C684 1.385 . S
C685 C686 1.389 . S
C686 C685 1.389 . S
C686 C687 1.387 . S
C687 H672 0.930 . S
C687 C682 1.390 . S
C687 C686 1.387 . S
H688 C700 0.930 . S
H689 C702 0.930 . S
H690 C703 0.930 . S
H691 C707 0.959 . S
H692 C707 0.959 . S
H693 C707 0.961 . S
H694 C708 0.960 . S
H695 C708 0.961 . S
H696 C708 0.959 . S
H697 C711 0.929 . S
H698 C712 0.931 . S
H699 C714 0.930 . S
C700 H688 0.930 . S
C700 C701 1.399 . S
C700 C705 1.399 . S
C701 C700 1.399 . S
C701 C702 1.376 . S
C702 H689 0.930 . S
C702 C701 1.376 . S
C702 C703 1.388 . S
C703 H690 0.930 . S
C703 C702 1.388 . S
C703 C704 1.390 . S
C704 C703 1.390 . S
C704 C705 1.394 . S
C704 C710 1.465 . S
C705 C700 1.399 . S
C705 C704 1.394 . S
C705 C706 1.516 . S
C706 C705 1.516 . S
C706 C707 1.502 . S
C706 C708 1.561 . S
C706 C709 1.526 . S
C707 H691 0.959 . S
C707 H692 0.959 . S
C707 H693 0.961 . S
C707 C706 1.502 . S
C708 H694 0.960 . S
C708 H695 0.961 . S
C708 H696 0.959 . S
C708 C706 1.561 . S
C709 C706 1.526 . S
C709 C710 1.396 . S
C709 C714 1.390 . S
C710 C704 1.465 . S
C710 C709 1.396 . S
C710 C711 1.399 . S
C711 H697 0.929 . S
C711 C710 1.399 . S
C711 C712 1.385 . S
C712 H698 0.931 . S
C712 C711 1.385 . S
C712 C713 1.389 . S
C713 C712 1.389 . S
C713 C714 1.387 . S
C714 H699 0.930 . S
C714 C709 1.390 . S
C714 C713 1.387 . S
H715 C727 0.930 . S
H716 C729 0.930 . S
H717 C730 0.930 . S
H718 C734 0.959 . S
H719 C734 0.959 . S
H720 C734 0.961 . S
H721 C735 0.960 . S
H722 C735 0.961 . S
H723 C735 0.959 . S
H724 C738 0.929 . S
H725 C739 0.931 . S
H726 C741 0.930 . S
C727 H715 0.930 . S
C727 C728 1.399 . S
C727 C732 1.399 . S
C728 C727 1.399 . S
C728 C729 1.376 . S
C729 H716 0.930 . S
C729 C728 1.376 . S
C729 C730 1.388 . S
C730 H717 0.930 . S
C730 C729 1.388 . S
C730 C731 1.390 . S
C731 C730 1.390 . S
C731 C732 1.394 . S
C731 C737 1.465 . S
C732 C727 1.399 . S
C732 C731 1.394 . S
C732 C733 1.516 . S
C733 C732 1.516 . S
C733 C734 1.502 . S
C733 C735 1.561 . S
C733 C736 1.526 . S
C734 H718 0.959 . S
C734 H719 0.959 . S
C734 H720 0.961 . S
C734 C733 1.502 . S
C735 H721 0.960 . S
C735 H722 0.961 . S
C735 H723 0.959 . S
C735 C733 1.561 . S
C736 C733 1.526 . S
C736 C737 1.396 . S
C736 C741 1.390 . S
C737 C731 1.465 . S
C737 C736 1.396 . S
C737 C738 1.399 . S
C738 H724 0.929 . S
C738 C737 1.399 . S
C738 C739 1.385 . S
C739 H725 0.931 . S
C739 C738 1.385 . S
C739 C740 1.389 . S
C740 C739 1.389 . S
C740 C741 1.387 . S
C741 H726 0.930 . S
C741 C736 1.390 . S
C741 C740 1.387 . S
H742 C754 0.930 . S
H743 C756 0.930 . S
H744 C757 0.930 . S
H745 C761 0.959 . S
H746 C761 0.959 . S
H747 C761 0.961 . S
H748 C762 0.960 . S
H749 C762 0.961 . S
H750 C762 0.959 . S
H751 C765 0.929 . S
H752 C766 0.931 . S
H753 C768 0.930 . S
C754 H742 0.930 . S
C754 C755 1.399 . S
C754 C759 1.399 . S
C755 C754 1.399 . S
C755 C756 1.376 . S
C756 H743 0.930 . S
C756 C755 1.376 . S
C756 C757 1.388 . S
C757 H744 0.930 . S
C757 C756 1.388 . S
C757 C758 1.390 . S
C758 C757 1.390 . S
C758 C759 1.394 . S
C758 C764 1.465 . S
C759 C754 1.399 . S
C759 C758 1.394 . S
C759 C760 1.516 . S
C760 C759 1.516 . S
C760 C761 1.502 . S
C760 C762 1.561 . S
C760 C763 1.526 . S
C761 H745 0.959 . S
C761 H746 0.959 . S
C761 H747 0.961 . S
C761 C760 1.502 . S
C762 H748 0.960 . S
C762 H749 0.961 . S
C762 H750 0.959 . S
C762 C760 1.561 . S
C763 C760 1.526 . S
C763 C764 1.396 . S
C763 C768 1.390 . S
C764 C758 1.465 . S
C764 C763 1.396 . S
C764 C765 1.399 . S
C765 H751 0.929 . S
C765 C764 1.399 . S
C765 C766 1.385 . S
C766 H752 0.931 . S
C766 C765 1.385 . S
C766 C767 1.389 . S
C767 C766 1.389 . S
C767 C768 1.387 . S
C768 H753 0.930 . S
C768 C763 1.390 . S
C768 C767 1.387 . S
H769 C781 0.930 . S
H770 C783 0.930 . S
H771 C784 0.930 . S
H772 C788 0.959 . S
H773 C788 0.959 . S
H774 C788 0.961 . S
H775 C789 0.960 . S
H776 C789 0.961 . S
H777 C789 0.959 . S
H778 C792 0.929 . S
H779 C793 0.931 . S
H780 C795 0.930 . S
C781 H769 0.930 . S
C781 C782 1.399 . S
C781 C786 1.399 . S
C782 C781 1.399 . S
C782 C783 1.376 . S
C783 H770 0.930 . S
C783 C782 1.376 . S
C783 C784 1.388 . S
C784 H771 0.930 . S
C784 C783 1.388 . S
C784 C785 1.390 . S
C785 C784 1.390 . S
C785 C786 1.394 . S
C785 C791 1.465 . S
C786 C781 1.399 . S
C786 C785 1.394 . S
C786 C787 1.516 . S
C787 C786 1.516 . S
C787 C788 1.502 . S
C787 C789 1.561 . S
C787 C790 1.526 . S
C788 H772 0.959 . S
C788 H773 0.959 . S
C788 H774 0.961 . S
C788 C787 1.502 . S
C789 H775 0.960 . S
C789 H776 0.961 . S
C789 H777 0.959 . S
C789 C787 1.561 . S
C790 C787 1.526 . S
C790 C791 1.396 . S
C790 C795 1.390 . S
C791 C785 1.465 . S
C791 C790 1.396 . S
C791 C792 1.399 . S
C792 H778 0.929 . S
C792 C791 1.399 . S
C792 C793 1.385 . S
C793 H779 0.931 . S
C793 C792 1.385 . S
C793 C794 1.389 . S
C794 C793 1.389 . S
C794 C795 1.387 . S
C795 H780 0.930 . S
C795 C790 1.390 . S
C795 C794 1.387 . S
H796 C808 0.930 . S
H797 C810 0.930 . S
H798 C811 0.930 . S
H799 C815 0.959 . S
H800 C815 0.959 . S
H801 C815 0.961 . S
H802 C816 0.960 . S
H803 C816 0.961 . S
H804 C816 0.959 . S
H805 C819 0.929 . S
H806 C820 0.931 . S
H807 C822 0.930 . S
C808 H796 0.930 . S
C808 C809 1.399 . S
C808 C813 1.399 . S
C809 C808 1.399 . S
C809 C810 1.376 . S
C810 H797 0.930 . S
C810 C809 1.376 . S
C810 C811 1.388 . S
C811 H798 0.930 . S
C811 C810 1.388 . S
C811 C812 1.390 . S
C812 C811 1.390 . S
C812 C813 1.394 . S
C812 C818 1.465 . S
C813 C808 1.399 . S
C813 C812 1.394 . S
C813 C814 1.516 . S
C814 C813 1.516 . S
C814 C815 1.502 . S
C814 C816 1.561 . S
C814 C817 1.526 . S
C815 H799 0.959 . S
C815 H800 0.959 . S
C815 H801 0.961 . S
C815 C814 1.502 . S
C816 H802 0.960 . S
C816 H803 0.961 . S
C816 H804 0.959 . S
C816 C814 1.561 . S
C817 C814 1.526 . S
C817 C818 1.396 . S
C817 C822 1.390 . S
C818 C812 1.465 . S
C818 C817 1.396 . S
C818 C819 1.399 . S
C819 H805 0.929 . S
C819 C818 1.399 . S
C819 C820 1.385 . S
C820 H806 0.931 . S
C820 C819 1.385 . S
C820 C821 1.389 . S
C821 C820 1.389 . S
C821 C822 1.387 . S
C822 H807 0.930 . S
C822 C817 1.390 . S
C822 C821 1.387 . S
H823 C835 0.930 . S
H824 C837 0.930 . S
H825 C838 0.930 . S
H826 C842 0.959 . S
H827 C842 0.959 . S
H828 C842 0.961 . S
H829 C843 0.960 . S
H830 C843 0.961 . S
H831 C843 0.959 . S
H832 C846 0.929 . S
H833 C847 0.931 . S
H834 C849 0.930 . S
C835 H823 0.930 . S
C835 C836 1.399 . S
C835 C840 1.399 . S
C836 C835 1.399 . S
C836 C837 1.376 . S
C837 H824 0.930 . S
C837 C836 1.376 . S
C837 C838 1.388 . S
C838 H825 0.930 . S
C838 C837 1.388 . S
C838 C839 1.390 . S
C839 C838 1.390 . S
C839 C840 1.394 . S
C839 C845 1.465 . S
C840 C835 1.399 . S
C840 C839 1.394 . S
C840 C841 1.516 . S
C841 C840 1.516 . S
C841 C842 1.502 . S
C841 C843 1.561 . S
C841 C844 1.526 . S
C842 H826 0.959 . S
C842 H827 0.959 . S
C842 H828 0.961 . S
C842 C841 1.502 . S
C843 H829 0.960 . S
C843 H830 0.961 . S
C843 H831 0.959 . S
C843 C841 1.561 . S
C844 C841 1.526 . S
C844 C845 1.396 . S
C844 C849 1.390 . S
C845 C839 1.465 . S
C845 C844 1.396 . S
C845 C846 1.399 . S
C846 H832 0.929 . S
C846 C845 1.399 . S
C846 C847 1.385 . S
C847 H833 0.931 . S
C847 C846 1.385 . S
C847 C848 1.389 . S
C848 C847 1.389 . S
C848 C849 1.387 . S
C849 H834 0.930 . S
C849 C844 1.390 . S
C849 C848 1.387 . S
H850 C862 0.930 . S
H851 C864 0.930 . S
H852 C865 0.930 . S
H853 C869 0.959 . S
H854 C869 0.959 . S
H855 C869 0.961 . S
H856 C870 0.960 . S
H857 C870 0.961 . S
H858 C870 0.959 . S
H859 C873 0.929 . S
H860 C874 0.931 . S
H861 C876 0.930 . S
C862 H850 0.930 . S
C862 C863 1.399 . S
C862 C867 1.399 . S
C863 C862 1.399 . S
C863 C864 1.376 . S
C864 H851 0.930 . S
C864 C863 1.376 . S
C864 C865 1.388 . S
C865 H852 0.930 . S
C865 C864 1.388 . S
C865 C866 1.390 . S
C866 C865 1.390 . S
C866 C867 1.394 . S
C866 C872 1.465 . S
C867 C862 1.399 . S
C867 C866 1.394 . S
C867 C868 1.516 . S
C868 C867 1.516 . S
C868 C869 1.502 . S
C868 C870 1.561 . S
C868 C871 1.526 . S
C869 H853 0.959 . S
C869 H854 0.959 . S
C869 H855 0.961 . S
C869 C868 1.502 . S
C870 H856 0.960 . S
C870 H857 0.961 . S
C870 H858 0.959 . S
C870 C868 1.561 . S
C871 C868 1.526 . S
C871 C872 1.396 . S
C871 C876 1.390 . S
C872 C866 1.465 . S
C872 C871 1.396 . S
C872 C873 1.399 . S
C873 H859 0.929 . S
C873 C872 1.399 . S
C873 C874 1.385 . S
C874 H860 0.931 . S
C874 C873 1.385 . S
C874 C875 1.389 . S
C875 C874 1.389 . S
C875 C876 1.387 . S
C876 H861 0.930 . S
C876 C871 1.390 . S
C876 C875 1.387 . S
H877 C889 0.930 . S
H878 C891 0.930 . S
H879 C892 0.930 . S
H880 C896 0.959 . S
H881 C896 0.959 . S
H882 C896 0.961 . S
H883 C897 0.960 . S
H884 C897 0.961 . S
H885 C897 0.959 . S
H886 C900 0.929 . S
H887 C901 0.931 . S
H888 C903 0.930 . S
C889 H877 0.930 . S
C889 C890 1.399 . S
C889 C894 1.399 . S
C890 C889 1.399 . S
C890 C891 1.376 . S
C891 H878 0.930 . S
C891 C890 1.376 . S
C891 C892 1.388 . S
C892 H879 0.930 . S
C892 C891 1.388 . S
C892 C893 1.390 . S
C893 C892 1.390 . S
C893 C894 1.394 . S
C893 C899 1.465 . S
C894 C889 1.399 . S
C894 C893 1.394 . S
C894 C895 1.516 . S
C895 C894 1.516 . S
C895 C896 1.502 . S
C895 C897 1.561 . S
C895 C898 1.526 . S
C896 H880 0.959 . S
C896 H881 0.959 . S
C896 H882 0.961 . S
C896 C895 1.502 . S
C897 H883 0.960 . S
C897 H884 0.961 . S
C897 H885 0.959 . S
C897 C895 1.561 . S
C898 C895 1.526 . S
C898 C899 1.396 . S
C898 C903 1.390 . S
C899 C893 1.465 . S
C899 C898 1.396 . S
C899 C900 1.399 . S
C900 H886 0.929 . S
C900 C899 1.399 . S
C900 C901 1.385 . S
C901 H887 0.931 . S
C901 C900 1.385 . S
C901 C902 1.389 . S
C902 C901 1.389 . S
C902 C903 1.387 . S
C903 H888 0.930 . S
C903 C898 1.390 . S
C903 C902 1.387 . S
H904 C916 0.930 . S
H905 C918 0.930 . S
H906 C919 0.930 . S
H907 C923 0.959 . S
H908 C923 0.959 . S
H909 C923 0.961 . S
H910 C924 0.960 . S
H911 C924 0.961 . S
H912 C924 0.959 . S
H913 C927 0.929 . S
H914 C928 0.931 . S
H915 C930 0.930 . S
C916 H904 0.930 . S
C916 C917 1.399 . S
C916 C921 1.399 . S
C917 C916 1.399 . S
C917 C918 1.376 . S
C918 H905 0.930 . S
C918 C917 1.376 . S
C918 C919 1.388 . S
C919 H906 0.930 . S
C919 C918 1.388 . S
C919 C920 1.390 . S
C920 C919 1.390 . S
C920 C921 1.394 . S
C920 C926 1.465 . S
C921 C916 1.399 . S
C921 C920 1.394 . S
C921 C922 1.516 . S
C922 C921 1.516 . S
C922 C923 1.502 . S
C922 C924 1.561 . S
C922 C925 1.526 . S
C923 H907 0.959 . S
C923 H908 0.959 . S
C923 H909 0.961 . S
C923 C922 1.502 . S
C924 H910 0.960 . S
C924 H911 0.961 . S
C924 H912 0.959 . S
C924 C922 1.561 . S
C925 C922 1.526 . S
C925 C926 1.396 . S
C925 C930 1.390 . S
C926 C920 1.465 . S
C926 C925 1.396 . S
C926 C927 1.399 . S
C927 H913 0.929 . S
C927 C926 1.399 . S
C927 C928 1.385 . S
C928 H914 0.931 . S
C928 C927 1.385 . S
C928 C929 1.389 . S
C929 C928 1.389 . S
C929 C930 1.387 . S
C930 H915 0.930 . S
C930 C925 1.390 . S
C930 C929 1.387 . S
H931 C943 0.930 . S
H932 C945 0.930 . S
H933 C946 0.930 . S
H934 C950 0.959 . S
H935 C950 0.959 . S
H936 C950 0.961 . S
H937 C951 0.960 . S
H938 C951 0.961 . S
H939 C951 0.959 . S
H940 C954 0.929 . S
H941 C955 0.931 . S
H942 C957 0.930 . S
C943 H931 0.930 . S
C943 C944 1.399 . S
C943 C948 1.399 . S
C944 C943 1.399 . S
C944 C945 1.376 . S
C945 H932 0.930 . S
C945 C944 1.376 . S
C945 C946 1.388 . S
C946 H933 0.930 . S
C946 C945 1.388 . S
C946 C947 1.390 . S
C947 C946 1.390 . S
C947 C948 1.394 . S
C947 C953 1.465 . S
C948 C943 1.399 . S
C948 C947 1.394 . S
C948 C949 1.516 . S
C949 C948 1.516 . S
C949 C950 1.502 . S
C949 C951 1.561 . S
C949 C952 1.526 . S
C950 H934 0.959 . S
C950 H935 0.959 . S
C950 H936 0.961 . S
C950 C949 1.502 . S
C951 H937 0.960 . S
C951 H938 0.961 . S
C951 H939 0.959 . S
C951 C949 1.561 . S
C952 C949 1.526 . S
C952 C953 1.396 . S
C952 C957 1.390 . S
C953 C947 1.465 . S
C953 C952 1.396 . S
C953 C954 1.399 . S
C954 H940 0.929 . S
C954 C953 1.399 . S
C954 C955 1.385 . S
C955 H941 0.931 . S
C955 C954 1.385 . S
C955 C956 1.389 . S
C956 C955 1.389 . S
C956 C957 1.387 . S
C957 H942 0.930 . S
C957 C952 1.390 . S
C957 C956 1.387 . S
H958 C970 0.930 . S
H959 C972 0.930 . S
H960 C973 0.930 . S
H961 C977 0.959 . S
H962 C977 0.959 . S
H963 C977 0.961 . S
H964 C978 0.960 . S
H965 C978 0.961 . S
H966 C978 0.959 . S
H967 C981 0.929 . S
H968 C982 0.931 . S
H969 C984 0.930 . S
C970 H958 0.930 . S
C970 C971 1.399 . S
C970 C975 1.399 . S
C971 C970 1.399 . S
C971 C972 1.376 . S
C972 H959 0.930 . S
C972 C971 1.376 . S
C972 C973 1.388 . S
C973 H960 0.930 . S
C973 C972 1.388 . S
C973 C974 1.390 . S
C974 C973 1.390 . S
C974 C975 1.394 . S
C974 C980 1.465 . S
C975 C970 1.399 . S
C975 C974 1.394 . S
C975 C976 1.516 . S
C976 C975 1.516 . S
C976 C977 1.502 . S
C976 C978 1.561 . S
C976 C979 1.526 . S
C977 H961 0.959 . S
C977 H962 0.959 . S
C977 H963 0.961 . S
C977 C976 1.502 . S
C978 H964 0.960 . S
C978 H965 0.961 . S
C978 H966 0.959 . S
C978 C976 1.561 . S
C979 C976 1.526 . S
C979 C980 1.396 . S
C979 C984 1.390 . S
C980 C974 1.465 . S
C980 C979 1.396 . S
C980 C981 1.399 . S
C981 H967 0.929 . S
C981 C980 1.399 . S
C981 C982 1.385 . S
C982 H968 0.931 . S
C982 C981 1.385 . S
C982 C983 1.389 . S
C983 C982 1.389 . S
C983 C984 1.387 . S
C984 H969 0.930 . S
C984 C979 1.390 . S
C984 C983 1.387 . S
H985 C997 0.930 . S
H986 C999 0.930 . S
H987 C1000 0.930 . S
H988 C1004 0.959 . S
H989 C1004 0.959 . S
H990 C1004 0.961 . S
H991 C1005 0.960 . S
H992 C1005 0.961 . S
H993 C1005 0.959 . S
H994 C1008 0.929 . S
H995 C1009 0.931 . S
H996 C1011 0.930 . S
C997 H985 0.930 . S
C997 C998 1.399 . S
C997 C1002 1.399 . S
C998 C997 1.399 . S
C998 C999 1.376 . S
C999 H986 0.930 . S
C999 C998 1.376 . S
C999 C1000 1.388 . S
C1000 H987 0.930 . S
C1000 C999 1.388 . S
C1000 C1001 1.390 . S
C1001 C1000 1.390 . S
C1001 C1002 1.394 . S
C1001 C1007 1.465 . S
C1002 C997 1.399 . S
C1002 C1001 1.394 . S
C1002 C1003 1.516 . S
C1003 C1002 1.516 . S
C1003 C1004 1.502 . S
C1003 C1005 1.561 . S
C1003 C1006 1.526 . S
C1004 H988 0.959 . S
C1004 H989 0.959 . S
C1004 H990 0.961 . S
C1004 C1003 1.502 . S
C1005 H991 0.960 . S
C1005 H992 0.961 . S
C1005 H993 0.959 . S
C1005 C1003 1.561 . S
C1006 C1003 1.526 . S
C1006 C1007 1.396 . S
C1006 C1011 1.390 . S
C1007 C1001 1.465 . S
C1007 C1006 1.396 . S
C1007 C1008 1.399 . S
C1008 H994 0.929 . S
C1008 C1007 1.399 . S
C1008 C1009 1.385 . S
C1009 H995 0.931 . S
C1009 C1008 1.385 . S
C1009 C1010 1.389 . S
C1010 C1009 1.389 . S
C1010 C1011 1.387 . S
C1011 H996 0.930 . S
C1011 C1006 1.390 . S
C1011 C1010 1.387 . S
H1012 C1024 0.930 . S
H1013 C1026 0.930 . S
H1014 C1027 0.930 . S
H1015 C1031 0.959 . S
H1016 C1031 0.959 . S
H1017 C1031 0.961 . S
H1018 C1032 0.960 . S
H1019 C1032 0.961 . S
H1020 C1032 0.959 . S
H1021 C1035 0.929 . S
H1022 C1036 0.931 . S
H1023 C1038 0.930 . S
C1024 H1012 0.930 . S
C1024 C1025 1.399 . S
C1024 C1029 1.399 . S
C1025 C1024 1.399 . S
C1025 C1026 1.376 . S
C1026 H1013 0.930 . S
C1026 C1025 1.376 . S
C1026 C1027 1.388 . S
C1027 H1014 0.930 . S
C1027 C1026 1.388 . S
C1027 C1028 1.390 . S
C1028 C1027 1.390 . S
C1028 C1029 1.394 . S
C1028 C1034 1.465 . S
C1029 C1024 1.399 . S
C1029 C1028 1.394 . S
C1029 C1030 1.516 . S
C1030 C1029 1.516 . S
C1030 C1031 1.502 . S
C1030 C1032 1.561 . S
C1030 C1033 1.526 . S
C1031 H1015 0.959 . S
C1031 H1016 0.959 . S
C1031 H1017 0.961 . S
C1031 C1030 1.502 . S
C1032 H1018 0.960 . S
C1032 H1019 0.961 . S
C1032 H1020 0.959 . S
C1032 C1030 1.561 . S
C1033 C1030 1.526 . S
C1033 C1034 1.396 . S
C1033 C1038 1.390 . S
C1034 C1028 1.465 . S
C1034 C1033 1.396 . S
C1034 C1035 1.399 . S
C1035 H1021 0.929 . S
C1035 C1034 1.399 . S
C1035 C1036 1.385 . S
C1036 H1022 0.931 . S
C1036 C1035 1.385 . S
C1036 C1037 1.389 . S
C1037 C1036 1.389 . S
C1037 C1038 1.387 . S
C1038 H1023 0.930 . S
C1038 C1033 1.390 . S
C1038 C1037 1.387 . S
H1039 C1051 0.930 . S
H1040 C1053 0.930 . S
H1041 C1054 0.930 . S
H1042 C1058 0.959 . S
H1043 C1058 0.959 . S
H1044 C1058 0.961 . S
H1045 C1059 0.960 . S
H1046 C1059 0.961 . S
H1047 C1059 0.959 . S
H1048 C1062 0.929 . S
H1049 C1063 0.931 . S
H1050 C1065 0.930 . S
C1051 H1039 0.930 . S
C1051 C1052 1.399 . S
C1051 C1056 1.399 . S
C1052 C1051 1.399 . S
C1052 C1053 1.376 . S
C1053 H1040 0.930 . S
C1053 C1052 1.376 . S
C1053 C1054 1.388 . S
C1054 H1041 0.930 . S
C1054 C1053 1.388 . S
C1054 C1055 1.390 . S
C1055 C1054 1.390 . S
C1055 C1056 1.394 . S
C1055 C1061 1.465 . S
C1056 C1051 1.399 . S
C1056 C1055 1.394 . S
C1056 C1057 1.516 . S
C1057 C1056 1.516 . S
C1057 C1058 1.502 . S
C1057 C1059 1.561 . S
C1057 C1060 1.526 . S
C1058 H1042 0.959 . S
C1058 H1043 0.959 . S
C1058 H1044 0.961 . S
C1058 C1057 1.502 . S
C1059 H1045 0.960 . S
C1059 H1046 0.961 . S
C1059 H1047 0.959 . S
C1059 C1057 1.561 . S
C1060 C1057 1.526 . S
C1060 C1061 1.396 . S
C1060 C1065 1.390 . S
C1061 C1055 1.465 . S
C1061 C1060 1.396 . S
C1061 C1062 1.399 . S
C1062 H1048 0.929 . S
C1062 C1061 1.399 . S
C1062 C1063 1.385 . S
C1063 H1049 0.931 . S
C1063 C1062 1.385 . S
C1063 C1064 1.389 . S
C1064 C1063 1.389 . S
C1064 C1065 1.387 . S
C1065 H1050 0.930 . S
C1065 C1060 1.390 . S
C1065 C1064 1.387 . S
H1066 C1078 0.930 . S
H1067 C1080 0.930 . S
H1068 C1081 0.930 . S
H1069 C1085 0.959 . S
H1070 C1085 0.959 . S
H1071 C1085 0.961 . S
H1072 C1086 0.960 . S
H1073 C1086 0.961 . S
H1074 C1086 0.959 . S
H1075 C1089 0.929 . S
H1076 C1090 0.931 . S
H1077 C1092 0.930 . S
C1078 H1066 0.930 . S
C1078 C1079 1.399 . S
C1078 C1083 1.399 . S
C1079 C1078 1.399 . S
C1079 C1080 1.376 . S
C1080 H1067 0.930 . S
C1080 C1079 1.376 . S
C1080 C1081 1.388 . S
C1081 H1068 0.930 . S
C1081 C1080 1.388 . S
C1081 C1082 1.390 . S
C1082 C1081 1.390 . S
C1082 C1083 1.394 . S
C1082 C1088 1.465 . S
C1083 C1078 1.399 . S
C1083 C1082 1.394 . S
C1083 C1084 1.516 . S
C1084 C1083 1.516 . S
C1084 C1085 1.502 . S
C1084 C1086 1.561 . S
C1084 C1087 1.526 . S
C1085 H1069 0.959 . S
C1085 H1070 0.959 . S
C1085 H1071 0.961 . S
C1085 C1084 1.502 . S
C1086 H1072 0.960 . S
C1086 H1073 0.961 . S
C1086 H1074 0.959 . S
C1086 C1084 1.561 . S
C1087 C1084 1.526 . S
C1087 C1088 1.396 . S
C1087 C1092 1.390 . S
C1088 C1082 1.465 . S
C1088 C1087 1.396 . S
C1088 C1089 1.399 . S
C1089 H1075 0.929 . S
C1089 C1088 1.399 . S
C1089 C1090 1.385 . S
C1090 H1076 0.931 . S
C1090 C1089 1.385 . S
C1090 C1091 1.389 . S
C1091 C1090 1.389 . S
C1091 C1092 1.387 . S
C1092 H1077 0.930 . S
C1092 C1087 1.390 . S
C1092 C1091 1.387 . S
H1093 C1105 0.930 . S
H1094 C1107 0.930 . S
H1095 C1108 0.930 . S
H1096 C1112 0.959 . S
H1097 C1112 0.959 . S
H1098 C1112 0.961 . S
H1099 C1113 0.960 . S
H1100 C1113 0.961 . S
H1101 C1113 0.959 . S
H1102 C1116 0.929 . S
H1103 C1117 0.931 . S
H1104 C1119 0.930 . S
C1105 H1093 0.930 . S
C1105 C1106 1.399 . S
C1105 C1110 1.399 . S
C1106 C1105 1.399 . S
C1106 C1107 1.376 . S
C1107 H1094 0.930 . S
C1107 C1106 1.376 . S
C1107 C1108 1.388 . S
C1108 H1095 0.930 . S
C1108 C1107 1.388 . S
C1108 C1109 1.390 . S
C1109 C1108 1.390 . S
C1109 C1110 1.394 . S
C1109 C1115 1.465 . S
C1110 C1105 1.399 . S
C1110 C1109 1.394 . S
C1110 C1111 1.516 . S
C1111 C1110 1.516 . S
C1111 C1112 1.502 . S
C1111 C1113 1.561 . S
C1111 C1114 1.526 . S
C1112 H1096 0.959 . S
C1112 H1097 0.959 . S
C1112 H1098 0.961 . S
C1112 C1111 1.502 . S
C1113 H1099 0.960 . S
C1113 H1100 0.961 . S
C1113 H1101 0.959 . S
C1113 C1111 1.561 . S
C1114 C1111 1.526 . S
C1114 C1115 1.396 . S
C1114 C1119 1.390 . S
C1115 C1109 1.465 . S
C1115 C1114 1.396 . S
C1115 C1116 1.399 . S
C1116 H1102 0.929 . S
C1116 C1115 1.399 . S
C1116 C1117 1.385 . S
C1117 H1103 0.931 . S
C1117 C1116 1.385 . S
C1117 C1118 1.389 . S
C1118 C1117 1.389 . S
C1118 C1119 1.387 . S
C1119 H1104 0.930 . S
C1119 C1114 1.390 . S
C1119 C1118 1.387 . S
C281 C145 1.500 . S
C269 C7 1.425 . S
C308 C171 1.506 . S
C296 C32 1.410 . S
C335 C185 1.496 . S
C323 C44 1.435 . S
C362 C187 1.500 . S
C350 C62 1.410 . S
C377 C88 1.406 . S
C389 C184 1.504 . S
C416 C186 1.490 . S
C404 C106 1.471 . S
C443 C144 1.495 . S
C431 C124 1.462 . S
C470 C170 1.495 . S
C458 C140 1.475 . S
C497 C172 1.504 . S
C485 C142 1.397 . S
C524 C198 1.488 . S
C512 C86 1.477 . S
C551 C156 1.505 . S
C539 C104 1.404 . S
C578 C158 1.500 . S
C566 C122 1.408 . S
C605 C157 1.488 . S
C593 C34 1.474 . S
C632 C159 1.503 . S
C620 C43 1.440 . S
C659 C173 1.503 . S
C647 C61 1.394 . S
C686 C199 1.495 . S
C674 C8 1.408 . S
C713 C201 1.497 . S
C701 C133 1.453 . S
C728 C80 1.414 . S
C740 C227 1.503 . S
C755 C98 1.451 . S
C767 C240 1.493 . S
C782 C116 1.477 . S
C794 C243 1.488 . S
C809 C25 1.396 . S
C821 C241 1.506 . S
C836 C52 1.471 . S
C848 C242 1.491 . S
C863 C70 1.464 . S
C875 C200 1.494 . S
C902 C226 1.507 . S
C890 C14 1.407 . S
C929 C229 1.505 . S
C917 C16 1.398 . S
C944 C26 1.427 . S
C956 C254 1.491 . S
C971 C50 1.484 . S
C983 C212 1.491 . S
C998 C68 1.417 . S
C1010 C214 1.497 . S
C1037 C213 1.489 . S
C1025 C79 1.481 . S
C1064 C215 1.505 . S
C1052 C97 1.427 . S
C1079 C115 1.474 . S
C1091 C228 1.493 . S
C1118 C255 1.501 . S
C1106 C134 1.403 . S
