# Generated by pormake.
# Topology csq, (4,8)-cn, num edge types: 1
# Building blocks:
#     Node 0, Type 0, BuildingBlock: MUDLON_clean_linker_0, # of connection points: 4
#     Node 1, Type 0, BuildingBlock: MUDLON_clean_linker_0, # of connection points: 4
#     Node 2, Type 0, BuildingBlock: MUDLON_clean_linker_0, # of connection points: 4
#     Node 3, Type 0, BuildingBlock: MUDLON_clean_linker_0, # of connection points: 4
#     Node 4, Type 0, BuildingBlock: MUDLON_clean_linker_0, # of connection points: 4
#     Node 5, Type 0, BuildingBlock: MUDLON_clean_linker_0, # of connection points: 4
#     Node 6, Type 1, BuildingBlock: TAGTUT_clean_sbu_1, # of connection points: 8
#     Node 7, Type 1, BuildingBlock: TAGTUT_clean_sbu_1, # of connection points: 8
#     Node 8, Type 1, BuildingBlock: TAGTUT_clean_sbu_1, # of connection points: 8
#     Edge 9, Type (0, 1), BuildingBlock: EZIPEK_clean_linker_0, # of connection points: 2
#     Edge 10, Type (0, 1), BuildingBlock: EZIPEK_clean_linker_0, # of connection points: 2
#     Edge 11, Type (0, 1), BuildingBlock: EZIPEK_clean_linker_0, # of connection points: 2
#     Edge 12, Type (0, 1), BuildingBlock: EZIPEK_clean_linker_0, # of connection points: 2
#     Edge 13, Type (0, 1), BuildingBlock: EZIPEK_clean_linker_0, # of connection points: 2
#     Edge 14, Type (0, 1), BuildingBlock: EZIPEK_clean_linker_0, # of connection points: 2
#     Edge 15, Type (0, 1), BuildingBlock: EZIPEK_clean_linker_0, # of connection points: 2
#     Edge 16, Type (0, 1), BuildingBlock: EZIPEK_clean_linker_0, # of connection points: 2
#     Edge 17, Type (0, 1), BuildingBlock: EZIPEK_clean_linker_0, # of connection points: 2
#     Edge 18, Type (0, 1), BuildingBlock: EZIPEK_clean_linker_0, # of connection points: 2
#     Edge 19, Type (0, 1), BuildingBlock: EZIPEK_clean_linker_0, # of connection points: 2
#     Edge 20, Type (0, 1), BuildingBlock: EZIPEK_clean_linker_0, # of connection points: 2
#     Edge 21, Type (0, 1), BuildingBlock: EZIPEK_clean_linker_0, # of connection points: 2
#     Edge 22, Type (0, 1), BuildingBlock: EZIPEK_clean_linker_0, # of connection points: 2
#     Edge 23, Type (0, 1), BuildingBlock: EZIPEK_clean_linker_0, # of connection points: 2
#     Edge 24, Type (0, 1), BuildingBlock: EZIPEK_clean_linker_0, # of connection points: 2
#     Edge 25, Type (0, 1), BuildingBlock: EZIPEK_clean_linker_0, # of connection points: 2
#     Edge 26, Type (0, 1), BuildingBlock: EZIPEK_clean_linker_0, # of connection points: 2
#     Edge 27, Type (0, 1), BuildingBlock: EZIPEK_clean_linker_0, # of connection points: 2
#     Edge 28, Type (0, 1), BuildingBlock: EZIPEK_clean_linker_0, # of connection points: 2
#     Edge 29, Type (0, 1), BuildingBlock: EZIPEK_clean_linker_0, # of connection points: 2
#     Edge 30, Type (0, 1), BuildingBlock: EZIPEK_clean_linker_0, # of connection points: 2
#     Edge 31, Type (0, 1), BuildingBlock: EZIPEK_clean_linker_0, # of connection points: 2
#     Edge 32, Type (0, 1), BuildingBlock: EZIPEK_clean_linker_0, # of connection points: 2
# Relax obj value: 0.048
# Max RMSD: 0.132
# Mean RMSD: 0.092
data_MOF--net-csq--node1-TAGTUT_clean_sbu_1--node2-MUDLON_clean_linker_0--edge1-EZIPEK_clean_linker_0
_symmetry_space_group_name_H-M    P1
_symmetry_Int_Tables_number       1
_symmetry_cell_setting            triclinic
loop_
_symmetry_equiv_pos_as_xyz
'x, y, z'
_cell_length_a     56.900039
_cell_length_b     56.401484
_cell_length_c     19.195263
_cell_angle_alpha  92.989995
_cell_angle_beta   92.764825
_cell_angle_gamma 119.92554
loop_
_atom_site_label
_atom_site_type_symbol
_atom_site_fract_x
_atom_site_fract_y
_atom_site_fract_z
_atom_type_partial_charge
H0 H 0.33926 0.51335 0.25853 0.0
N1 N 0.3262 0.47159 0.15683 0.0
H2 H 0.36636 0.52244 0.37028 0.0
H3 H 0.34992 0.44439 0.20339 0.0
H4 H 0.37867 0.45469 0.31295 0.0
H5 H 0.38094 0.5073 0.14503 0.0
H6 H 0.40433 0.51153 0.03949 0.0
H7 H 0.30359 0.45659 0.02394 0.0
H8 H 0.32736 0.46281 0.91752 0.0
H9 H 0.31463 0.51242 0.13793 0.0
H10 H 0.28059 0.42883 0.18969 0.0
H11 H 0.27101 0.51019 0.15403 0.0
H12 H 0.23726 0.42646 0.20774 0.0
H13 H 0.13423 0.50208 0.23273 0.0
H14 H 0.11589 0.50996 0.33807 0.0
H15 H 0.12916 0.4506 0.43882 0.0
H16 H 0.14585 0.44111 0.33129 0.0
H17 H 0.09815 0.43356 0.13832 0.0
H18 H 0.08328 0.44288 0.02565 0.0
H19 H 0.16328 0.51315 0.01696 0.0
H20 H 0.17748 0.5051 0.13127 0.0
H21 H 0.19726 0.50444 0.2572 0.0
H22 H 0.24131 0.50727 0.24514 0.0
H23 H 0.19972 0.42504 0.14159 0.0
N24 N 0.14733 0.46145 0.20772 0.0
H25 H 0.156 0.42229 0.15562 0.0
C26 C 0.3424 0.47794 0.22273 0.0
C27 C 0.34737 0.50014 0.27033 0.0
C28 C 0.36286 0.50539 0.33408 0.0
C29 C 0.37474 0.48941 0.34957 0.0
C30 C 0.36974 0.4673 0.30198 0.0
C31 C 0.35352 0.4615 0.2395 0.0
C32 C 0.34012 0.48107 0.0937 0.0
C33 C 0.36873 0.49775 0.09597 0.0
C34 C 0.38228 0.50043 0.03535 0.0
C35 C 0.36761 0.48719 0.9709 0.0
C36 C 0.33906 0.47316 0.96683 0.0
C37 C 0.32551 0.46966 0.02779 0.0
C38 C 0.30055 0.47061 0.1619 0.0
C39 C 0.29766 0.49357 0.15239 0.0
C40 C 0.27285 0.49232 0.1624 0.0
C41 C 0.25062 0.46812 0.1822 0.0
C42 C 0.25377 0.44526 0.19148 0.0
C43 C 0.27846 0.44654 0.18132 0.0
C44 C 0.14105 0.47043 0.27295 0.0
C45 C 0.1334 0.49068 0.27705 0.0
C46 C 0.123 0.49536 0.33759 0.0
C47 C 0.12064 0.48048 0.39588 0.0
C48 C 0.13045 0.46204 0.39415 0.0
C49 C 0.14004 0.4567 0.33287 0.0
C50 C 0.13893 0.4683 0.14306 0.0
C51 C 0.11233 0.45115 0.11247 0.0
C52 C 0.10395 0.45639 0.04826 0.0
C53 C 0.12222 0.47867 0.0129 0.0
C54 C 0.14887 0.49589 0.04341 0.0
C55 C 0.15698 0.49117 0.10865 0.0
C56 C 0.1734 0.46295 0.20791 0.0
C57 C 0.19773 0.48691 0.2331 0.0
C58 C 0.22286 0.4886 0.22532 0.0
C59 C 0.22406 0.4664 0.19223 0.0
C60 C 0.19958 0.44237 0.16822 0.0
C61 C 0.17458 0.44072 0.17611 0.0
H62 H 0.68425 0.0775 0.16304 0.0
N63 N 0.70254 0.12209 0.09302 0.0
H64 H 0.65541 0.0658 0.26165 0.0
H65 H 0.68313 0.15314 0.15407 0.0
H66 H 0.655 0.14187 0.25384 0.0
H67 H 0.64745 0.10102 0.05435 0.0
H68 H 0.62571 0.09003 0.93634 0.0
H69 H 0.72555 0.12925 0.97047 0.0
H70 H 0.70336 0.11969 0.85175 0.0
H71 H 0.74705 0.13027 0.16716 0.0
H72 H 0.7146 0.17239 0.05096 0.0
H73 H 0.79032 0.17295 0.19138 0.0
H74 H 0.75845 0.21445 0.06802 0.0
H75 H 0.92969 0.31186 0.25339 0.0
H76 H 0.94952 0.3467 0.35394 0.0
H77 H 0.87472 0.34844 0.35676 0.0
H78 H 0.8548 0.31365 0.25826 0.0
H79 H 0.87013 0.33554 0.14815 0.0
H80 H 0.89332 0.37189 0.07081 0.0
H81 H 0.9424 0.33688 0.01117 0.0
H82 H 0.91907 0.30019 0.08912 0.0
H83 H 0.87322 0.24505 0.16985 0.0
H84 H 0.82941 0.2029 0.14712 0.0
H85 H 0.78951 0.25115 0.13824 0.0
N86 N 0.88328 0.29623 0.17806 0.0
H87 H 0.8334 0.29269 0.15268 0.0
C88 C 0.68591 0.11613 0.15148 0.0
C89 C 0.67795 0.09162 0.18274 0.0
C90 C 0.66166 0.08504 0.23894 0.0
C91 C 0.6532 0.10302 0.26507 0.0
C92 C 0.66145 0.12781 0.23454 0.0
C93 C 0.67748 0.13423 0.17775 0.0
C94 C 0.68874 0.11685 0.02307 0.0
C95 C 0.66027 0.10549 0.01151 0.0
C96 C 0.64762 0.09908 0.94354 0.0
C97 C 0.66288 0.10389 0.88526 0.0
C98 C 0.69118 0.11566 0.896 0.0
C99 C 0.70381 0.12128 0.96396 0.0
C100 C 0.72782 0.14793 0.10619 0.0
C101 C 0.7495 0.14873 0.14596 0.0
C102 C 0.77437 0.17318 0.15892 0.0
C103 C 0.77841 0.1974 0.13075 0.0
C104 C 0.75634 0.19657 0.09164 0.0
C105 C 0.73119 0.1723 0.0808 0.0
C106 C 0.89087 0.31013 0.24753 0.0
C107 C 0.91722 0.31894 0.27752 0.0
C108 C 0.92856 0.33887 0.3343 0.0
C109 C 0.9136 0.35024 0.36155 0.0
C110 C 0.88652 0.33989 0.33579 0.0
C111 C 0.87513 0.31986 0.27937 0.0
C112 C 0.89266 0.31479 0.12383 0.0
C113 C 0.88524 0.33502 0.11723 0.0
C114 C 0.89869 0.35602 0.07367 0.0
C115 C 0.91962 0.35706 0.03602 0.0
C116 C 0.9263 0.33634 0.0402 0.0
C117 C 0.91288 0.31536 0.08389 0.0
C118 C 0.85675 0.27205 0.16472 0.0
C119 C 0.85492 0.24636 0.16255 0.0
C120 C 0.82971 0.22225 0.15039 0.0
C121 C 0.80548 0.22325 0.14184 0.0
C122 C 0.80747 0.24921 0.14359 0.0
C123 C 0.83281 0.27329 0.15341 0.0
H124 H 0.60263 0.92374 0.0216 0.0
N125 N 0.56947 0.87218 0.04526 0.0
H126 H 0.59726 0.94699 0.92324 0.0
H127 H 0.54196 0.84554 0.91629 0.0
H128 H 0.53746 0.86876 0.81746 0.0
H129 H 0.51868 0.8653 0.01376 0.0
H130 H 0.49774 0.88698 0.08038 0.0
H131 H 0.5863 0.89847 0.17207 0.0
H132 H 0.5652 0.92022 0.23871 0.0
H133 H 0.60464 0.85639 0.0824 0.0
H134 H 0.51991 0.82481 0.01777 0.0
H135 H 0.59516 0.80976 0.09823 0.0
H136 H 0.5105 0.77836 0.02942 0.0
H137 H 0.5719 0.6801 0.05469 0.0
H138 H 0.57683 0.65152 0.96382 0.0
H139 H 0.49182 0.615 0.89367 0.0
H140 H 0.48696 0.64451 0.98395 0.0
H141 H 0.57136 0.69836 0.16992 0.0
H142 H 0.57936 0.67316 0.26005 0.0
H143 H 0.49436 0.61105 0.23475 0.0
H144 H 0.4865 0.63586 0.14368 0.0
H145 H 0.57305 0.72058 0.04889 0.0
H146 H 0.5839 0.76748 0.0385 0.0
H147 H 0.50648 0.74836 0.11408 0.0
N148 N 0.52419 0.67805 0.08467 0.0
H149 H 0.49504 0.70068 0.12009 0.0
C150 C 0.57245 0.88299 0.97767 0.0
C151 C 0.58908 0.91149 0.97616 0.0
C152 C 0.58582 0.92475 0.9205 0.0
C153 C 0.56647 0.90955 0.8642 0.0
C154 C 0.55215 0.88078 0.86129 0.0
C155 C 0.55491 0.86753 0.91792 0.0
C156 C 0.55412 0.88015 0.08852 0.0
C157 C 0.52865 0.87651 0.06376 0.0
C158 C 0.51677 0.88905 0.10124 0.0
C159 C 0.53012 0.90522 0.16381 0.0
C160 C 0.55476 0.90778 0.19023 0.0
C161 C 0.56665 0.89528 0.15277 0.0
C162 C 0.5632 0.84418 0.04835 0.0
C163 C 0.5841 0.83933 0.07048 0.0
C164 C 0.57862 0.81266 0.07924 0.0
C165 C 0.55201 0.79021 0.06532 0.0
C166 C 0.53112 0.79513 0.04211 0.0
C167 C 0.53657 0.82181 0.03449 0.0
C168 C 0.52901 0.66489 0.02522 0.0
C169 C 0.55444 0.66674 0.01867 0.0
C170 C 0.55725 0.65016 0.96738 0.0
C171 C 0.53464 0.6311 0.9229 0.0
C172 C 0.50945 0.62963 0.92798 0.0
C173 C 0.50673 0.64653 0.97873 0.0
C174 C 0.52827 0.66872 0.1499 0.0
C175 C 0.55433 0.67973 0.18505 0.0
C176 C 0.55895 0.66534 0.23599 0.0
C177 C 0.53748 0.64016 0.25267 0.0
C178 C 0.51112 0.6304 0.22186 0.0
C179 C 0.50659 0.64462 0.17072 0.0
C180 C 0.53279 0.70675 0.08395 0.0
C181 C 0.55824 0.72619 0.06297 0.0
C182 C 0.56462 0.75333 0.05769 0.0
C183 C 0.54594 0.76174 0.07454 0.0
C184 C 0.52107 0.7425 0.09872 0.0
C185 C 0.51457 0.71531 0.10292 0.0
H186 H 0.92153 0.59496 0.17198 0.0
N187 N 0.87624 0.56612 0.08685 0.0
H188 H 0.93537 0.58042 0.27726 0.0
H189 H 0.84946 0.51508 0.13489 0.0
H190 H 0.86219 0.50113 0.24301 0.0
H191 H 0.84403 0.51831 0.00244 0.0
H192 H 0.85753 0.50217 0.89852 0.0
H193 H 0.92281 0.59193 0.02773 0.0
H194 H 0.93705 0.5749 0.92761 0.0
H195 H 0.84733 0.5623 0.20124 0.0
H196 H 0.84541 0.56951 0.97777 0.0
H197 H 0.80276 0.55745 0.2022 0.0
H198 H 0.80066 0.56539 0.98029 0.0
H199 H 0.68698 0.57931 0.19975 0.0
H200 H 0.66027 0.56565 0.30212 0.0
H201 H 0.63787 0.48133 0.24858 0.0
H202 H 0.66244 0.49477 0.14271 0.0
H203 H 0.68518 0.50586 0.0057 0.0
H204 H 0.65721 0.4908 0.89313 0.0
H205 H 0.62943 0.54783 0.94129 0.0
H206 H 0.65858 0.56401 0.05147 0.0
H207 H 0.70922 0.51299 0.15121 0.0
H208 H 0.75444 0.51918 0.14574 0.0
H209 H 0.77932 0.59281 0.04053 0.0
N210 N 0.69123 0.54686 0.10184 0.0
H211 H 0.73373 0.587 0.04779 0.0
C212 C 0.88444 0.55628 0.14615 0.0
C213 C 0.90875 0.57432 0.18663 0.0
C214 C 0.91652 0.56606 0.24668 0.0
C215 C 0.89978 0.53973 0.26817 0.0
C216 C 0.87548 0.52149 0.22726 0.0
C217 C 0.86825 0.5294 0.16564 0.0
C218 C 0.88239 0.55663 0.02241 0.0
C219 C 0.8641 0.53111 0.98534 0.0
C220 C 0.87182 0.52188 0.92618 0.0
C221 C 0.89844 0.53716 0.90571 0.0
C222 C 0.91645 0.56272 0.94228 0.0
C223 C 0.90839 0.57242 0.99947 0.0
C224 C 0.84935 0.56355 0.08791 0.0
C225 C 0.83726 0.5619 0.15158 0.0
C226 C 0.81169 0.5595 0.15269 0.0
C227 C 0.79794 0.56017 0.09104 0.0
C228 C 0.81065 0.5642 0.02838 0.0
C229 C 0.83616 0.56615 0.02694 0.0
C230 C 0.67717 0.53822 0.16445 0.0
C231 C 0.67638 0.55792 0.21036 0.0
C232 C 0.66121 0.55012 0.26868 0.0
C233 C 0.647 0.52244 0.28315 0.0
C234 C 0.64861 0.50279 0.2385 0.0
C235 C 0.66285 0.51047 0.1785 0.0
C236 C 0.6741 0.53631 0.0369 0.0
C237 C 0.67326 0.51528 0.99188 0.0
C238 C 0.65729 0.50665 0.92772 0.0
C239 C 0.64109 0.51806 0.9091 0.0
C240 C 0.64171 0.53871 0.95462 0.0
C241 C 0.65819 0.54785 0.01752 0.0
C242 C 0.71802 0.54995 0.1011 0.0
C243 C 0.72419 0.53072 0.12776 0.0
C244 C 0.75017 0.53418 0.12439 0.0
C245 C 0.77034 0.5565 0.09291 0.0
C246 C 0.76408 0.57538 0.06487 0.0
C247 C 0.7382 0.57219 0.06943 0.0
H248 H 0.15247 0.66657 0.13942 0.0
N249 N 0.1438 0.70984 0.13114 0.0
H250 H 0.1311 0.63064 0.21948 0.0
H251 H 0.12464 0.71504 0.25083 0.0
H252 H 0.10302 0.67889 0.33074 0.0
H253 H 0.08996 0.67881 0.11398 0.0
H254 H 0.06309 0.64164 0.02313 0.0
H255 H 0.16224 0.70162 0.00619 0.0
H256 H 0.13452 0.66675 0.91048 0.0
H257 H 0.19245 0.71024 0.14841 0.0
H258 H 0.15681 0.7599 0.09986 0.0
H259 H 0.2377 0.75011 0.15032 0.0
H260 H 0.20221 0.79976 0.09695 0.0
H261 H 0.32571 0.84264 0.25934 0.0
H262 H 0.34897 0.85834 0.37733 0.0
H263 H 0.39174 0.94159 0.3198 0.0
H264 H 0.36694 0.92632 0.20349 0.0
H265 H 0.37749 0.87473 0.13737 0.0
H266 H 0.40733 0.89369 0.0423 0.0
H267 H 0.34727 0.90715 0.93485 0.0
H268 H 0.31815 0.88971 0.03165 0.0
H269 H 0.31751 0.82386 0.10266 0.0
H270 H 0.27212 0.78283 0.08854 0.0
H271 H 0.23851 0.83069 0.17583 0.0
N272 N 0.33004 0.87534 0.15263 0.0
H273 H 0.28363 0.87161 0.18553 0.0
C274 C 0.14018 0.6936 0.18955 0.0
C275 C 0.14307 0.67016 0.18333 0.0
C276 C 0.13062 0.64951 0.22837 0.0
C277 C 0.11534 0.65217 0.28008 0.0
C278 C 0.11478 0.67665 0.29085 0.0
C279 C 0.12727 0.69731 0.24589 0.0
C280 C 0.12821 0.69302 0.06789 0.0
C281 C 0.09987 0.67652 0.06945 0.0
C282 C 0.08452 0.65526 0.01767 0.0
C283 C 0.09676 0.65127 0.96 0.0
C284 C 0.1247 0.66927 0.95493 0.0
C285 C 0.14049 0.68947 0.00933 0.0
C286 C 0.17106 0.73223 0.12573 0.0
C287 C 0.19426 0.72964 0.13747 0.0
C288 C 0.22033 0.75256 0.13772 0.0
C289 C 0.22379 0.77841 0.12483 0.0
C290 C 0.20046 0.78046 0.10923 0.0
C291 C 0.17445 0.75766 0.11016 0.0
C292 C 0.34458 0.88337 0.22171 0.0
C293 C 0.33991 0.86431 0.27174 0.0
C294 C 0.35323 0.87322 0.33932 0.0
C295 C 0.37243 0.90108 0.3571 0.0
C296 C 0.37719 0.91997 0.30714 0.0
C297 C 0.36318 0.91126 0.24067 0.0
C298 C 0.34586 0.88156 0.09247 0.0
C299 C 0.37057 0.88144 0.09306 0.0
C300 C 0.38748 0.89197 0.03852 0.0
C301 C 0.3795 0.90186 0.98173 0.0
C302 C 0.35371 0.8995 0.97805 0.0
C303 C 0.33722 0.88974 0.03337 0.0
C304 C 0.30369 0.85076 0.14425 0.0
C305 C 0.30021 0.82541 0.11782 0.0
C306 C 0.27427 0.80196 0.11045 0.0
C307 C 0.25144 0.80335 0.13053 0.0
C308 C 0.25532 0.82882 0.15797 0.0
C309 C 0.28112 0.85223 0.16427 0.0
H310 H 0.47944 0.33071 0.13805 0.0
N311 N 0.42691 0.29067 0.15382 0.0
H312 H 0.49286 0.36357 0.05046 0.0
H313 H 0.39852 0.28432 0.03294 0.0
H314 H 0.412 0.31835 0.94596 0.0
H315 H 0.41693 0.33304 0.14266 0.0
H316 H 0.42789 0.37012 0.23061 0.0
H317 H 0.43307 0.28903 0.29835 0.0
H318 H 0.44285 0.32611 0.38715 0.0
H319 H 0.47578 0.30567 0.22833 0.0
H320 H 0.40558 0.23789 0.11136 0.0
H321 H 0.49603 0.27721 0.24321 0.0
H322 H 0.42649 0.20933 0.1232 0.0
H323 H 0.56218 0.17772 0.23014 0.0
H324 H 0.57116 0.14843 0.14916 0.0
H325 H 0.49481 0.12232 0.03004 0.0
H326 H 0.48579 0.15139 0.11034 0.0
H327 H 0.47771 0.12377 0.2228 0.0
H328 H 0.46922 0.09303 0.31474 0.0
H329 H 0.51935 0.16254 0.46414 0.0
H330 H 0.52976 0.19348 0.37017 0.0
H331 H 0.53926 0.23065 0.20392 0.0
H332 H 0.51719 0.25743 0.18079 0.0
H333 H 0.43882 0.18591 0.20197 0.0
N334 N 0.51615 0.17884 0.23366 0.0
H335 H 0.46092 0.15903 0.22036 0.0
C336 C 0.43776 0.30478 0.09219 0.0
C337 C 0.46489 0.32664 0.09442 0.0
C338 C 0.47256 0.34575 0.04483 0.0
C339 C 0.45324 0.34346 0.99303 0.0
C340 C 0.42704 0.32032 0.98618 0.0
C341 C 0.41945 0.30087 0.03521 0.0
C342 C 0.42786 0.30959 0.21068 0.0
C343 C 0.42341 0.33138 0.1951 0.0
C344 C 0.4292 0.35253 0.24565 0.0
C345 C 0.43741 0.3514 0.31452 0.0
C346 C 0.43763 0.32778 0.3333 0.0
C347 C 0.43239 0.30676 0.28204 0.0
C348 C 0.43875 0.2738 0.1693 0.0
C349 C 0.46465 0.28464 0.20551 0.0
C350 C 0.47643 0.26832 0.21348 0.0
C351 C 0.46308 0.24098 0.18381 0.0
C352 C 0.43723 0.23016 0.14764 0.0
C353 C 0.42523 0.24642 0.14073 0.0
C354 C 0.52348 0.16693 0.17633 0.0
C355 C 0.54784 0.16638 0.18519 0.0
C356 C 0.55284 0.14957 0.13965 0.0
C357 C 0.53346 0.13314 0.08451 0.0
C358 C 0.50988 0.13488 0.07271 0.0
C359 C 0.5049 0.1517 0.11814 0.0
C360 C 0.50548 0.16098 0.28918 0.0
C361 C 0.48688 0.13261 0.27513 0.0
C362 C 0.48169 0.115 0.32778 0.0
C363 C 0.4941 0.12554 0.39564 0.0
C364 C 0.50986 0.1541 0.41166 0.0
C365 C 0.51583 0.17168 0.35835 0.0
C366 C 0.50195 0.19311 0.21516 0.0
C367 C 0.5173 0.22077 0.20269 0.0
C368 C 0.50463 0.23606 0.19028 0.0
C369 C 0.47622 0.22401 0.19101 0.0
C370 C 0.4607 0.19589 0.2008 0.0
C371 C 0.47339 0.1805 0.21208 0.0
C372 C 0.98269 0.44169 0.85813 0.0
C373 C 0.06211 0.48607 0.78525 0.0
C374 C 0.03686 0.5653 0.73723 0.0
Mg375 Mg 0.00482 0.4509 0.71191 0.0
O376 O 0.9967 0.47917 0.72348 0.0
Mg377 Mg 0.01525 0.50622 0.80752 0.0
Mg378 Mg 0.00692 0.50475 0.649 0.0
O379 O 0.01792 0.53048 0.57475 0.0
Mg380 Mg 0.01289 0.56089 0.57892 0.0
Mg381 Mg 0.00251 0.50424 0.48946 0.0
C382 C 0.97524 0.44395 0.5592 0.0
C383 C 0.05058 0.49649 0.55976 0.0
O384 O 0.99298 0.46778 0.8717 0.0
O385 O 0.98441 0.43083 0.79975 0.0
O386 O 0.0529 0.50069 0.8125 0.0
O387 O 0.0475 0.46638 0.73874 0.0
O388 O 0.98435 0.43475 0.60713 0.0
O389 O 0.97988 0.46888 0.56462 0.0
C390 C 0.96428 0.51184 0.7447 0.0
O391 O 0.97045 0.51034 0.68145 0.0
O392 O 0.97817 0.5107 0.79755 0.0
O393 O 0.02833 0.54204 0.4274 0.0
O394 O 0.03805 0.57996 0.4967 0.0
O395 O 0.96637 0.51125 0.47461 0.0
C396 C 0.04039 0.56825 0.4407 0.0
O397 O 0.9711 0.54705 0.5401 0.0
O398 O 0.02993 0.57562 0.6874 0.0
C399 C 0.95691 0.52643 0.49543 0.0
O400 O 0.03308 0.54072 0.73081 0.0
O401 O 0.04339 0.49863 0.62107 0.0
O402 O 0.03805 0.49778 0.50467 0.0
C403 C 0.52124 0.05122 0.88107 0.0
C404 C 0.45882 0.97112 0.79634 0.0
C405 C 0.54155 0.96891 0.66401 0.0
Mg406 Mg 0.48565 0.02819 0.73909 0.0
O407 O 0.5148 0.02359 0.71786 0.0
Mg408 Mg 0.52712 0.00391 0.7805 0.0
Mg409 Mg 0.51658 0.00812 0.62443 0.0
O410 O 0.51883 0.99306 0.53068 0.0
Mg411 Mg 0.55062 0.99277 0.51279 0.0
Mg412 Mg 0.50727 0.01404 0.47018 0.0
C413 C 0.49389 0.04986 0.58712 0.0
C414 C 0.45565 0.96934 0.54616 0.0
O415 O 0.53007 0.03434 0.8727 0.0
O416 O 0.50507 0.05293 0.83551 0.0
O417 O 0.48251 0.9737 0.80507 0.0
O418 O 0.45467 0.98843 0.7654 0.0
O419 O 0.48365 0.04855 0.64608 0.0
O420 O 0.50708 0.03754 0.57266 0.0
C421 C 0.57836 0.04656 0.69861 0.0
O422 O 0.56299 0.04051 0.64162 0.0
O423 O 0.56934 0.03497 0.75452 0.0
O424 O 0.50765 0.98653 0.37575 0.0
O425 O 0.53471 0.97015 0.41303 0.0
O426 O 0.55115 0.04596 0.45253 0.0
C427 C 0.51862 0.97155 0.36661 0.0
O428 O 0.58091 0.03409 0.49099 0.0
O429 O 0.55251 0.97205 0.60544 0.0
C430 C 0.57565 0.05114 0.46244 0.0
O431 O 0.52612 0.97878 0.67833 0.0
O432 O 0.47025 0.9755 0.60477 0.0
O433 O 0.46522 0.98151 0.49132 0.0
C434 C 0.54492 0.56396 0.42732 0.0
C435 C 0.57532 0.51072 0.48944 0.0
C436 C 0.4706 0.4389 0.5305 0.0
Mg437 Mg 0.56066 0.54989 0.56949 0.0
O438 O 0.5233 0.52395 0.55478 0.0
Mg439 Mg 0.51023 0.49826 0.46786 0.0
Mg440 Mg 0.50631 0.49741 0.62569 0.0
O441 O 0.48966 0.47102 0.69707 0.0
Mg442 Mg 0.45296 0.44404 0.68393 0.0
Mg443 Mg 0.50242 0.49657 0.78425 0.0
C444 C 0.54073 0.55588 0.72022 0.0
C445 C 0.5553 0.49817 0.72307 0.0
O446 O 0.52764 0.53838 0.41039 0.0
O447 O 0.55971 0.5729 0.48558 0.0
O448 O 0.55078 0.49898 0.46219 0.0
O449 O 0.58378 0.53054 0.5372 0.0
O450 O 0.5589 0.56538 0.67585 0.0
O451 O 0.519 0.53225 0.7098 0.0
C452 C 0.45805 0.49808 0.52887 0.0
O453 O 0.46637 0.49743 0.59176 0.0
O454 O 0.47121 0.49842 0.47659 0.0
O455 O 0.48644 0.45696 0.84294 0.0
O456 O 0.45566 0.42172 0.76715 0.0
O457 O 0.46078 0.49397 0.79422 0.0
C458 C 0.46995 0.43121 0.82603 0.0
O459 O 0.42867 0.46161 0.71712 0.0
O460 O 0.45319 0.42934 0.57657 0.0
C461 C 0.43615 0.48033 0.76737 0.0
O462 O 0.49269 0.46234 0.54072 0.0
O463 O 0.54667 0.49804 0.65989 0.0
O464 O 0.54196 0.4976 0.77501 0.0
C465 C 0.11652 0.50895 0.49517 0.0
C466 C 0.10614 0.48307 0.45617 0.0
C467 C 0.06595 0.46441 0.52316 0.0
C468 C 0.07322 0.49131 0.54843 0.0
N469 N 0.106 0.53945 0.56378 0.0
N470 N 0.0693 0.43612 0.42989 0.0
C471 C 0.09902 0.51363 0.53724 0.0
C472 C 0.08067 0.46052 0.47043 0.0
N473 N 0.14297 0.5289 0.49157 0.0
N474 N 0.04426 0.44272 0.54808 0.0
H475 H 0.07848 0.43253 0.3882 0.0
H476 H 0.04952 0.42016 0.43351 0.0
H477 H 0.03368 0.44564 0.58739 0.0
H478 H 0.03892 0.42234 0.53581 0.0
H479 H 0.15238 0.54746 0.52267 0.0
H480 H 0.15622 0.52577 0.4618 0.0
H481 H 0.12302 0.5572 0.55083 0.0
H482 H 0.09389 0.54296 0.59722 0.0
C483 C 0.60731 0.08858 0.30795 0.0
C484 C 0.63467 0.09522 0.32251 0.0
C485 C 0.62529 0.08278 0.44319 0.0
C486 C 0.59742 0.07395 0.42591 0.0
N487 N 0.56735 0.08428 0.3571 0.0
N488 N 0.67164 0.10535 0.40783 0.0
C489 C 0.59005 0.08187 0.36318 0.0
C490 C 0.64434 0.09449 0.39168 0.0
N491 N 0.59725 0.08737 0.2409 0.0
N492 N 0.63333 0.08032 0.50927 0.0
H493 H 0.68591 0.11441 0.37135 0.0
H494 H 0.68049 0.10699 0.45783 0.0
H495 H 0.62043 0.07562 0.54956 0.0
H496 H 0.65246 0.0833 0.52464 0.0
H497 H 0.57661 0.07967 0.22702 0.0
H498 H 0.60892 0.09157 0.19814 0.0
H499 H 0.5623 0.0918 0.31385 0.0
H500 H 0.55614 0.08312 0.39934 0.0
C501 C 0.53759 0.62346 0.3702 0.0
C502 C 0.54252 0.62276 0.29887 0.0
C503 C 0.55274 0.58583 0.3139 0.0
C504 C 0.54478 0.58448 0.38303 0.0
N505 N 0.52539 0.59888 0.47403 0.0
N506 N 0.5524 0.60212 0.19959 0.0
C507 C 0.53624 0.60259 0.4107 0.0
C508 C 0.54957 0.60369 0.26976 0.0
N509 N 0.53436 0.64421 0.39921 0.0
N510 N 0.56401 0.57064 0.29129 0.0
H511 H 0.55111 0.61546 0.16597 0.0
H512 H 0.55433 0.58657 0.17374 0.0
H513 H 0.56659 0.55737 0.3225 0.0
H514 H 0.5728 0.5728 0.244 0.0
H515 H 0.53364 0.64756 0.45274 0.0
H516 H 0.53482 0.65963 0.37051 0.0
H517 H 0.51613 0.60951 0.49326 0.0
H518 H 0.52322 0.58337 0.50493 0.0
C519 C 0.91225 0.50919 0.33342 0.0
C520 C 0.90769 0.53175 0.33443 0.0
C521 C 0.92449 0.54353 0.45916 0.0
C522 C 0.93202 0.52303 0.45438 0.0
N523 N 0.91705 0.47727 0.40373 0.0
N524 N 0.90048 0.56416 0.40352 0.0
C525 C 0.92042 0.50272 0.39701 0.0
C526 C 0.91097 0.54703 0.39924 0.0
N527 N 0.91072 0.49505 0.27178 0.0
N528 N 0.92982 0.55914 0.52086 0.0
H529 H 0.88958 0.56618 0.36119 0.0
H530 H 0.90052 0.57465 0.44976 0.0
H531 H 0.93483 0.55354 0.56778 0.0
H532 H 0.92853 0.57689 0.52608 0.0
H533 H 0.91647 0.48016 0.26882 0.0
H534 H 0.90632 0.49992 0.22306 0.0
H535 H 0.90711 0.46113 0.36457 0.0
H536 H 0.92109 0.47161 0.45186 0.0
C537 C 0.38463 0.9308 0.46992 0.0
C538 C 0.38779 0.91128 0.42769 0.0
C539 C 0.42713 0.92052 0.50679 0.0
C540 C 0.42824 0.94474 0.53465 0.0
N541 N 0.40623 0.97071 0.55556 0.0
N542 N 0.41091 0.88554 0.40932 0.0
C543 C 0.40592 0.94872 0.52146 0.0
C544 C 0.40821 0.90487 0.44838 0.0
N545 N 0.36151 0.93229 0.45956 0.0
N546 N 0.44541 0.91376 0.53394 0.0
H547 H 0.39828 0.87439 0.3646 0.0
H548 H 0.42651 0.88131 0.41914 0.0
H549 H 0.45945 0.92558 0.57622 0.0
H550 H 0.44503 0.89551 0.5196 0.0
H551 H 0.35711 0.94495 0.4909 0.0
H552 H 0.34559 0.91898 0.42264 0.0
H553 H 0.39232 0.97709 0.5436 0.0
H554 H 0.42121 0.98286 0.59584 0.0
C555 C 0.47454 0.39013 0.39388 0.0
C556 C 0.44694 0.3756 0.36584 0.0
C557 C 0.43913 0.40958 0.42819 0.0
C558 C 0.46495 0.42084 0.46594 0.0
N559 N 0.50598 0.41886 0.49178 0.0
N560 N 0.40172 0.36943 0.36359 0.0
C561 C 0.48254 0.41058 0.45032 0.0
C562 C 0.42886 0.38485 0.38458 0.0
N563 N 0.49326 0.38489 0.36568 0.0
N564 N 0.42461 0.4228 0.43362 0.0
H565 H 0.3932 0.35065 0.33352 0.0
H566 H 0.38731 0.37399 0.3816 0.0
H567 H 0.43234 0.44155 0.46331 0.0
H568 H 0.40662 0.41684 0.40292 0.0
H569 H 0.5141 0.39686 0.37989 0.0
H570 H 0.48837 0.37047 0.32317 0.0
H571 H 0.51766 0.40942 0.48721 0.0
H572 H 0.51278 0.43364 0.53419 0.0
C573 C 0.5335 0.92148 0.80677 0.0
C574 C 0.55968 0.92405 0.81172 0.0
C575 C 0.57489 0.95948 0.72993 0.0
C576 C 0.54777 0.95405 0.71691 0.0
N577 N 0.49992 0.92469 0.73244 0.0
N578 N 0.60375 0.94159 0.7671 0.0
C579 C 0.52662 0.93361 0.75242 0.0
C580 C 0.57992 0.94184 0.76984 0.0
N581 N 0.51554 0.90842 0.85531 0.0
N582 N 0.59609 0.98236 0.7076 0.0
H583 H 0.60795 0.92849 0.79469 0.0
H584 H 0.61807 0.9524 0.73211 0.0
H585 H 0.59326 0.99675 0.68266 0.0
H586 H 0.61643 0.98863 0.7214 0.0
H587 H 0.49731 0.90849 0.8577 0.0
H588 H 0.52002 0.90002 0.89755 0.0
H589 H 0.48387 0.90806 0.75288 0.0
H590 H 0.49369 0.93172 0.69022 0.0
C591 C 0.62792 0.52845 0.79311 0.0
C592 C 0.62319 0.50892 0.84237 0.0
C593 C 0.57964 0.47705 0.77646 0.0
C594 C 0.58131 0.499 0.74059 0.0
N595 N 0.60753 0.54548 0.71035 0.0
N596 N 0.59402 0.46393 0.88102 0.0
C597 C 0.60594 0.52448 0.74596 0.0
C598 C 0.59925 0.48264 0.83299 0.0
N599 N 0.65326 0.55092 0.79272 0.0
N600 N 0.55842 0.45113 0.75813 0.0
H601 H 0.60748 0.46728 0.9241 0.0
H602 H 0.57546 0.44578 0.8809 0.0
H603 H 0.54391 0.44712 0.71687 0.0
H604 H 0.55682 0.43369 0.77863 0.0
H605 H 0.65858 0.56487 0.75476 0.0
H606 H 0.66963 0.55404 0.82672 0.0
H607 H 0.62368 0.56561 0.71859 0.0
H608 H 0.59192 0.54278 0.67435 0.0
C609 C 0.08947 0.6089 0.8886 0.0
C610 C 0.08043 0.62761 0.90657 0.0
C611 C 0.0387 0.5987 0.83071 0.0
C612 C 0.05022 0.58346 0.80261 0.0
N613 N 0.09037 0.57935 0.79495 0.0
N614 N 0.0484 0.64307 0.88085 0.0
C615 C 0.07659 0.58978 0.82905 0.0
C616 C 0.05547 0.62325 0.87405 0.0
N617 N 0.10976 0.60869 0.92908 0.0
N618 N 0.01169 0.58965 0.81623 0.0
H619 H 0.06107 0.66231 0.90762 0.0
H620 H 0.03142 0.64151 0.85306 0.0
H621 H 0.99879 0.57099 0.78725 0.0
H622 H 0.00182 0.59894 0.83973 0.0
H623 H 0.11544 0.59392 0.92018 0.0
H624 H 0.11861 0.62112 0.9758 0.0
H625 H 0.11098 0.58653 0.80792 0.0
H626 H 0.08226 0.56584 0.74982 0.0
C627 C 0.55021 0.12023 0.97897 0.0
C628 C 0.53671 0.11269 0.04103 0.0
C629 C 0.5202 0.06405 0.00735 0.0
C630 C 0.53164 0.07155 0.94267 0.0
N631 N 0.56457 0.10578 0.87593 0.0
N632 N 0.51507 0.07909 0.12384 0.0
C633 C 0.54908 0.09944 0.93167 0.0
C634 C 0.52385 0.08505 0.05855 0.0
N635 N 0.56289 0.14704 0.96382 0.0
N636 N 0.50496 0.0369 0.01815 0.0
H637 H 0.51728 0.09411 0.16198 0.0
H638 H 0.5074 0.05979 0.14227 0.0
H639 H 0.50348 0.02136 0.98306 0.0
H640 H 0.49334 0.02962 0.06049 0.0
H641 H 0.57036 0.15348 0.91574 0.0
H642 H 0.56486 0.1629 0.99861 0.0
H643 H 0.5795 0.12564 0.86776 0.0
H644 H 0.5642 0.09063 0.84147 0.0
C645 C 0.38233 0.4595 0.89785 0.0
C646 C 0.38222 0.48447 0.91114 0.0
C647 C 0.41282 0.50456 0.81767 0.0
C648 C 0.41506 0.48065 0.80964 0.0
N649 N 0.40459 0.43645 0.84803 0.0
N650 N 0.39745 0.53108 0.88598 0.0
C651 C 0.40014 0.45821 0.85038 0.0
C652 C 0.39741 0.50708 0.87133 0.0
N653 N 0.36575 0.43698 0.93168 0.0
N654 N 0.42516 0.52459 0.77309 0.0
H655 H 0.38533 0.53305 0.9223 0.0
H656 H 0.41021 0.54935 0.86474 0.0
H657 H 0.43637 0.52302 0.73344 0.0
H658 H 0.42278 0.54169 0.77164 0.0
H659 H 0.36169 0.41722 0.91644 0.0
H660 H 0.35456 0.43744 0.97255 0.0
H661 H 0.39736 0.42142 0.88322 0.0
H662 H 0.41737 0.43423 0.81468 0.0
C663 C 0.92337 0.38112 0.92754 0.0
C664 C 0.93513 0.38032 0.9935 0.0
C665 C 0.9781 0.42134 0.97356 0.0
C666 C 0.96596 0.42268 0.90876 0.0
N667 N 0.92559 0.40805 0.83127 0.0
N668 N 0.97126 0.40247 0.0864 0.0
C669 C 0.93809 0.40384 0.88804 0.0
C670 C 0.96178 0.40136 0.01879 0.0
N671 N 0.89861 0.35963 0.90138 0.0
N672 N 0.00543 0.43819 0.99028 0.0
H673 H 0.95987 0.3881 0.12092 0.0
H674 H 0.98939 0.41884 0.1101 0.0
H675 H 0.01798 0.45322 0.95869 0.0
H676 H 0.01604 0.43601 0.03285 0.0
H677 H 0.89044 0.35755 0.85021 0.0
H678 H 0.88706 0.34265 0.92898 0.0
H679 H 0.90469 0.39672 0.81784 0.0
H680 H 0.93574 0.42459 0.80121 0.0
C681 C 0.91002 0.50196 0.85695 0.0
C682 C 0.90856 0.52614 0.84922 0.0
C683 C 0.93745 0.5366 0.75095 0.0
C684 C 0.93957 0.51302 0.76108 0.0
N685 N 0.91922 0.46808 0.80212 0.0
N686 N 0.91327 0.56112 0.77475 0.0
C687 C 0.9225 0.4938 0.80624 0.0
C688 C 0.91967 0.54163 0.79109 0.0
N689 N 0.90192 0.4881 0.9155 0.0
N690 N 0.95353 0.55498 0.70652 0.0
H691 H 0.89998 0.56482 0.80277 0.0
H692 H 0.91892 0.57156 0.72982 0.0
H693 H 0.96626 0.55152 0.67566 0.0
H694 H 0.95536 0.57419 0.70326 0.0
H695 H 0.90536 0.47212 0.9264 0.0
H696 H 0.89425 0.49408 0.95673 0.0
H697 H 0.90543 0.45237 0.83013 0.0
H698 H 0.92825 0.46189 0.76466 0.0
C699 C 0.40595 0.90676 0.87567 0.0
C700 C 0.39974 0.91905 0.93308 0.0
C701 C 0.43279 0.96492 0.90141 0.0
C702 C 0.43775 0.95276 0.84124 0.0
N703 N 0.42815 0.91276 0.7671 0.0
N704 N 0.40523 0.95961 0.99801 0.0
C705 C 0.42415 0.9238 0.82737 0.0
C706 C 0.41252 0.94807 0.94492 0.0
N707 N 0.39463 0.87886 0.86803 0.0
N708 N 0.44861 0.99258 0.91937 0.0
H709 H 0.39258 0.94845 0.03579 0.0
H710 H 0.41045 0.98017 0.00269 0.0
H711 H 0.46388 0.00595 0.88983 0.0
H712 H 0.44831 0.00225 0.9667 0.0
H713 H 0.4001 0.86853 0.8317 0.0
H714 H 0.38058 0.86591 0.90101 0.0
H715 H 0.41727 0.89197 0.75001 0.0
H716 H 0.44143 0.92482 0.73137 0.0
C717 C 0.45424 0.3878 0.98017 0.0
C718 C 0.45938 0.36711 0.95246 0.0
C719 C 0.4772 0.39237 0.85018 0.0
C720 C 0.46877 0.41106 0.87344 0.0
N721 N 0.44781 0.42616 0.95756 0.0
N722 N 0.47396 0.34817 0.86008 0.0
C723 C 0.45715 0.40888 0.93803 0.0
C724 C 0.47047 0.36901 0.88722 0.0
N725 N 0.44696 0.38748 0.04715 0.0
N726 N 0.49237 0.39753 0.79385 0.0
H727 H 0.46999 0.33112 0.88695 0.0
H728 H 0.47902 0.34683 0.8092 0.0
H729 H 0.49803 0.41475 0.76612 0.0
H730 H 0.5015 0.38627 0.77848 0.0
H731 H 0.44592 0.40356 0.07306 0.0
H732 H 0.44395 0.37203 0.0792 0.0
H733 H 0.43596 0.42339 0.99939 0.0
H734 H 0.45043 0.44246 0.92923 0.0
C735 C 0.11264 0.50819 0.93526 0.0
C736 C 0.11332 0.48367 0.94359 0.0
C737 C 0.09142 0.4658 0.82402 0.0
C738 C 0.0875 0.48872 0.82102 0.0
N739 N 0.10845 0.53695 0.85215 0.0
N740 N 0.11174 0.44342 0.8886 0.0
C741 C 0.10305 0.51175 0.86957 0.0
C742 C 0.10534 0.46373 0.88539 0.0
N743 N 0.11919 0.52719 0.99077 0.0
N744 N 0.08217 0.44641 0.76842 0.0
H745 H 0.12271 0.44212 0.93192 0.0
H746 H 0.10808 0.42908 0.8471 0.0
H747 H 0.07703 0.45014 0.71894 0.0
H748 H 0.08066 0.4273 0.77018 0.0
H749 H 0.11639 0.54403 0.98794 0.0
H750 H 0.12501 0.52491 0.04114 0.0
H751 H 0.12153 0.55504 0.8832 0.0
H752 H 0.10244 0.53947 0.80213 0.0
C753 C 0.64641 0.07357 0.77106 0.0
C754 C 0.64852 0.0961 0.81363 0.0
C755 C 0.61148 0.09461 0.73933 0.0
C756 C 0.60676 0.06957 0.7058 0.0
N757 N 0.62744 0.04491 0.66118 0.0
N758 N 0.63985 0.13373 0.82402 0.0
C759 C 0.62715 0.06257 0.71173 0.0
C760 C 0.63348 0.10879 0.79216 0.0
N761 N 0.66073 0.06109 0.79017 0.0
N762 N 0.59377 0.10352 0.72298 0.0
H763 H 0.65621 0.14441 0.86201 0.0
H764 H 0.63036 0.14468 0.80993 0.0
H765 H 0.57801 0.09307 0.68341 0.0
H766 H 0.59453 0.12079 0.74757 0.0
H767 H 0.65748 0.04283 0.76453 0.0
H768 H 0.67454 0.06784 0.8343 0.0
H769 H 0.64309 0.04043 0.65909 0.0
H770 H 0.61283 0.03678 0.6183 0.0
C771 C 0.53531 0.61563 0.79913 0.0
C772 C 0.53727 0.61233 0.8714 0.0
C773 C 0.54595 0.57457 0.84481 0.0
C774 C 0.54076 0.57584 0.77273 0.0
N775 N 0.52554 0.59421 0.68101 0.0
N776 N 0.54018 0.5861 0.96365 0.0
C777 C 0.53409 0.59546 0.74969 0.0
C778 C 0.54147 0.5911 0.8946 0.0
N779 N 0.53538 0.63842 0.77775 0.0
N780 N 0.55588 0.55821 0.86543 0.0
H781 H 0.53658 0.59753 0.00166 0.0
H782 H 0.54033 0.56915 0.98226 0.0
H783 H 0.56007 0.54654 0.82965 0.0
H784 H 0.56247 0.55831 0.91708 0.0
H785 H 0.53693 0.64329 0.72594 0.0
H786 H 0.53651 0.65385 0.81258 0.0
H787 H 0.51752 0.60606 0.66316 0.0
H788 H 0.5241 0.57965 0.64262 0.0
C789 C 0.51854 0.10756 0.46786 0.0
C790 C 0.49379 0.10655 0.44651 0.0
C791 C 0.46853 0.06626 0.5115 0.0
C792 C 0.49353 0.06903 0.53816 0.0
N793 N 0.54264 0.09652 0.55535 0.0
N794 N 0.44588 0.0883 0.4577 0.0
C795 C 0.51867 0.09092 0.52035 0.0
C796 C 0.46891 0.08684 0.47113 0.0
N797 N 0.54174 0.12363 0.43622 0.0
N798 N 0.4445 0.04354 0.52265 0.0
H799 H 0.44558 0.10342 0.42925 0.0
H800 H 0.42777 0.07614 0.48008 0.0
H801 H 0.44357 0.02796 0.55133 0.0
H802 H 0.42577 0.03899 0.4984 0.0
H803 H 0.56005 0.12409 0.44733 0.0
H804 H 0.54227 0.13468 0.39388 0.0
H805 H 0.56123 0.11398 0.5496 0.0
H806 H 0.54369 0.08535 0.59572 0.0
C807 C 0.41911 0.52036 0.42247 0.0
C808 C 0.39325 0.49591 0.41409 0.0
C809 C 0.40745 0.477 0.50892 0.0
C810 C 0.43371 0.50051 0.51291 0.0
N811 N 0.46103 0.54829 0.49673 0.0
N812 N 0.35996 0.4555 0.46421 0.0
C813 C 0.43803 0.52362 0.47818 0.0
C814 C 0.38641 0.47579 0.4629 0.0
N815 N 0.42667 0.53925 0.37405 0.0
N816 N 0.40318 0.45527 0.54542 0.0
H817 H 0.34427 0.4545 0.43134 0.0
H818 H 0.35328 0.44136 0.50176 0.0
H819 H 0.41826 0.45611 0.58026 0.0
H820 H 0.3854 0.43621 0.53866 0.0
H821 H 0.4464 0.55578 0.37393 0.0
H822 H 0.41405 0.53735 0.33046 0.0
H823 H 0.46455 0.56656 0.47711 0.0
H824 H 0.47507 0.55062 0.5375 0.0
C825 C 0.92274 0.37275 0.48344 0.0
C826 C 0.92705 0.37507 0.4115 0.0
C827 C 0.95512 0.4251 0.43343 0.0
C828 C 0.95416 0.42242 0.50627 0.0
N829 N 0.92794 0.39628 0.59749 0.0
N830 N 0.94725 0.40297 0.31626 0.0
C831 C 0.93514 0.3969 0.53035 0.0
C832 C 0.94319 0.40114 0.38592 0.0
N833 N 0.90791 0.34738 0.50728 0.0
N834 N 0.96463 0.45029 0.40956 0.0
H835 H 0.93747 0.38618 0.2788 0.0
H836 H 0.96159 0.42084 0.29597 0.0
H837 H 0.9669 0.46649 0.44256 0.0
H838 H 0.96492 0.45392 0.35691 0.0
H839 H 0.90661 0.344 0.56011 0.0
H840 H 0.89833 0.32926 0.47417 0.0
H841 H 0.91256 0.37895 0.61724 0.0
H842 H 0.93537 0.41409 0.63128 0.0
C843 C 0.50129 0.9088 0.25324 0.0
C844 C 0.51941 0.92092 0.20099 0.0
C845 C 0.52888 0.96665 0.24402 0.0
C846 C 0.51286 0.95475 0.30015 0.0
N847 N 0.47756 0.91529 0.34775 0.0
N848 N 0.54393 0.95926 0.13281 0.0
C849 C 0.49674 0.92594 0.3007 0.0
C850 C 0.53085 0.94922 0.19145 0.0
N851 N 0.48981 0.88127 0.25974 0.0
N852 N 0.54356 0.9946 0.24389 0.0
H853 H 0.54574 0.94677 0.09389 0.0
H854 H 0.55097 0.97925 0.1198 0.0
H855 H 0.54164 0.00772 0.2806 0.0
H856 H 0.55821 0.00485 0.2093 0.0
H857 H 0.47892 0.87158 0.30154 0.0
H858 H 0.49212 0.86811 0.22413 0.0
H859 H 0.46377 0.89442 0.34821 0.0
H860 H 0.474 0.92777 0.38261 0.0
C861 C 0.60124 0.49516 0.33172 0.0
C862 C 0.6296 0.51416 0.34341 0.0
C863 C 0.62375 0.52205 0.46741 0.0
C864 C 0.59513 0.50519 0.45242 0.0
N865 N 0.56102 0.46371 0.38573 0.0
N866 N 0.66888 0.53864 0.4269 0.0
C867 C 0.58534 0.48765 0.38963 0.0
C868 C 0.64126 0.52546 0.41297 0.0
N869 N 0.58889 0.48566 0.26544 0.0
N870 N 0.63404 0.53422 0.53353 0.0
H871 H 0.68194 0.54042 0.38859 0.0
H872 H 0.67881 0.54587 0.47684 0.0
H873 H 0.62227 0.52805 0.57614 0.0
H874 H 0.65411 0.54967 0.54651 0.0
H875 H 0.56782 0.47368 0.25529 0.0
H876 H 0.59914 0.49202 0.2205 0.0
H877 H 0.55378 0.44934 0.3422 0.0
H878 H 0.55021 0.45685 0.42975 0.0
C879 C 0.06881 0.61261 0.29052 0.0
C880 C 0.09671 0.62803 0.31608 0.0
C881 C 0.08792 0.59867 0.41212 0.0
C882 C 0.05962 0.58608 0.39247 0.0
N883 N 0.02242 0.58115 0.31571 0.0
N884 N 0.1332 0.63697 0.40161 0.0
C885 C 0.04984 0.59281 0.33187 0.0
C886 C 0.10647 0.62123 0.37666 0.0
N887 N 0.06061 0.61674 0.22636 0.0
N888 N 0.09695 0.58872 0.4641 0.0
H889 H 0.14745 0.65325 0.37583 0.0
H890 H 0.14098 0.63507 0.44986 0.0
H891 H 0.08377 0.57211 0.49084 0.0
H892 H 0.11739 0.59521 0.47662 0.0
H893 H 0.04113 0.60432 0.20168 0.0
H894 H 0.07392 0.63127 0.19481 0.0
H895 H 0.01389 0.5876 0.27723 0.0
H896 H 0.00799 0.56591 0.34374 0.0
loop_
_geom_bond_atom_site_label_1
_geom_bond_atom_site_label_2
_geom_bond_distance
_geom_bond_site_symmetry_2
_ccdc_geom_bond_type
H0 C27 0.929 . S
N1 C26 1.433 . S
N1 C32 1.435 . S
N1 C38 1.423 . S
H2 C28 0.930 . S
H3 C31 0.931 . S
H4 C30 0.929 . S
H5 C33 0.930 . S
H6 C34 0.932 . S
H7 C37 0.929 . S
H8 C36 0.931 1_556 S
H9 C39 0.929 . S
H10 C43 0.932 . S
H11 C40 0.931 . S
H12 C42 0.929 . S
H13 C45 0.929 . S
H14 C46 0.930 . S
H15 C48 0.929 . S
H16 C49 0.931 . S
H17 C51 0.930 . S
H18 C52 0.932 . S
H19 C54 0.931 1_556 S
H20 C55 0.929 . S
H21 C57 0.929 . S
H22 C58 0.931 . S
H23 C60 0.929 . S
N24 C44 1.433 . S
N24 C50 1.435 . S
N24 C56 1.423 . S
H25 C61 0.932 . S
C26 N1 1.433 . S
C26 C27 1.363 . S
C26 C31 1.370 . S
C27 H0 0.929 . S
C27 C26 1.363 . S
C27 C28 1.385 . S
C28 H2 0.930 . S
C28 C27 1.385 . S
C28 C29 1.357 . S
C29 C28 1.357 . S
C29 C30 1.406 . S
C30 H4 0.929 . S
C30 C29 1.406 . S
C30 C31 1.391 . S
C31 H3 0.931 . S
C31 C26 1.370 . S
C31 C30 1.391 . S
C32 N1 1.435 . S
C32 C33 1.358 . S
C32 C37 1.371 . S
C33 H5 0.930 . S
C33 C32 1.358 . S
C33 C34 1.405 . S
C34 H6 0.932 . S
C34 C33 1.405 . S
C34 C35 1.383 . S
C35 C34 1.383 . S
C35 C36 1.393 . S
C36 H8 0.931 1_554 S
C36 C35 1.393 . S
C36 C37 1.382 . S
C37 H7 0.929 . S
C37 C32 1.371 . S
C37 C36 1.382 . S
C38 N1 1.423 . S
C38 C39 1.362 . S
C38 C43 1.388 . S
C39 H9 0.929 . S
C39 C38 1.362 . S
C39 C40 1.376 . S
C40 H11 0.931 . S
C40 C39 1.376 . S
C40 C41 1.396 . S
C41 C40 1.396 . S
C41 C42 1.348 . S
C41 C59 1.472 . S
C42 H12 0.929 . S
C42 C41 1.348 . S
C42 C43 1.443 . S
C43 H10 0.932 . S
C43 C38 1.388 . S
C43 C42 1.443 . S
C44 N24 1.433 . S
C44 C45 1.363 . S
C44 C49 1.370 . S
C45 H13 0.929 . S
C45 C44 1.363 . S
C45 C46 1.385 . S
C46 H14 0.930 . S
C46 C45 1.385 . S
C46 C47 1.357 . S
C47 C46 1.357 . S
C47 C48 1.406 . S
C48 H15 0.929 . S
C48 C47 1.406 . S
C48 C49 1.391 . S
C49 H16 0.931 . S
C49 C44 1.370 . S
C49 C48 1.391 . S
C50 N24 1.435 . S
C50 C51 1.358 . S
C50 C55 1.371 . S
C51 H17 0.930 . S
C51 C50 1.358 . S
C51 C52 1.405 . S
C52 H18 0.932 . S
C52 C51 1.405 . S
C52 C53 1.383 . S
C53 C52 1.383 . S
C53 C54 1.393 . S
C54 H19 0.931 1_554 S
C54 C53 1.393 . S
C54 C55 1.382 . S
C55 H20 0.929 . S
C55 C50 1.371 . S
C55 C54 1.382 . S
C56 N24 1.423 . S
C56 C57 1.362 . S
C56 C61 1.388 . S
C57 H21 0.929 . S
C57 C56 1.362 . S
C57 C58 1.376 . S
C58 H22 0.931 . S
C58 C57 1.376 . S
C58 C59 1.396 . S
C59 C41 1.472 . S
C59 C58 1.396 . S
C59 C60 1.348 . S
C60 H23 0.929 . S
C60 C59 1.348 . S
C60 C61 1.443 . S
C61 H25 0.932 . S
C61 C56 1.388 . S
C61 C60 1.443 . S
H62 C89 0.929 . S
N63 C88 1.433 . S
N63 C94 1.435 . S
N63 C100 1.423 . S
H64 C90 0.930 . S
H65 C93 0.931 . S
H66 C92 0.929 . S
H67 C95 0.930 . S
H68 C96 0.932 . S
H69 C99 0.929 . S
H70 C98 0.931 . S
H71 C101 0.929 . S
H72 C105 0.932 . S
H73 C102 0.931 . S
H74 C104 0.929 . S
H75 C107 0.929 . S
H76 C108 0.930 . S
H77 C110 0.929 . S
H78 C111 0.931 . S
H79 C113 0.930 . S
H80 C114 0.932 . S
H81 C116 0.931 . S
H82 C117 0.929 . S
H83 C119 0.929 . S
H84 C120 0.931 . S
H85 C122 0.929 . S
N86 C106 1.433 . S
N86 C112 1.435 . S
N86 C118 1.423 . S
H87 C123 0.932 . S
C88 N63 1.433 . S
C88 C89 1.363 . S
C88 C93 1.370 . S
C89 H62 0.929 . S
C89 C88 1.363 . S
C89 C90 1.385 . S
C90 H64 0.930 . S
C90 C89 1.385 . S
C90 C91 1.357 . S
C91 C90 1.357 . S
C91 C92 1.406 . S
C92 H66 0.929 . S
C92 C91 1.406 . S
C92 C93 1.391 . S
C93 H65 0.931 . S
C93 C88 1.370 . S
C93 C92 1.391 . S
C94 N63 1.435 . S
C94 C95 1.358 . S
C94 C99 1.371 . S
C95 H67 0.930 . S
C95 C94 1.358 . S
C95 C96 1.405 . S
C96 H68 0.932 . S
C96 C95 1.405 . S
C96 C97 1.383 1_554 S
C97 C96 1.383 1_556 S
C97 C98 1.393 . S
C98 H70 0.931 . S
C98 C97 1.393 . S
C98 C99 1.382 1_556 S
C99 H69 0.929 . S
C99 C94 1.371 . S
C99 C98 1.382 1_554 S
C100 N63 1.423 . S
C100 C101 1.362 . S
C100 C105 1.388 . S
C101 H71 0.929 . S
C101 C100 1.362 . S
C101 C102 1.376 . S
C102 H73 0.931 . S
C102 C101 1.376 . S
C102 C103 1.396 . S
C103 C102 1.396 . S
C103 C104 1.348 . S
C103 C121 1.472 . S
C104 H74 0.929 . S
C104 C103 1.348 . S
C104 C105 1.443 . S
C105 H72 0.932 . S
C105 C100 1.388 . S
C105 C104 1.443 . S
C106 N86 1.433 . S
C106 C107 1.363 . S
C106 C111 1.370 . S
C107 H75 0.929 . S
C107 C106 1.363 . S
C107 C108 1.385 . S
C108 H76 0.930 . S
C108 C107 1.385 . S
C108 C109 1.357 . S
C109 C108 1.357 . S
C109 C110 1.406 . S
C110 H77 0.929 . S
C110 C109 1.406 . S
C110 C111 1.391 . S
C111 H78 0.931 . S
C111 C106 1.370 . S
C111 C110 1.391 . S
C112 N86 1.435 . S
C112 C113 1.358 . S
C112 C117 1.371 . S
C113 H79 0.930 . S
C113 C112 1.358 . S
C113 C114 1.405 . S
C114 H80 0.932 . S
C114 C113 1.405 . S
C114 C115 1.383 1_554 S
C115 C114 1.383 1_556 S
C115 C116 1.393 . S
C116 H81 0.931 . S
C116 C115 1.393 . S
C116 C117 1.382 1_556 S
C117 H82 0.929 . S
C117 C112 1.371 . S
C117 C116 1.382 1_554 S
C118 N86 1.423 . S
C118 C119 1.362 . S
C118 C123 1.388 . S
C119 H83 0.929 . S
C119 C118 1.362 . S
C119 C120 1.376 . S
C120 H84 0.931 . S
C120 C119 1.376 . S
C120 C121 1.396 . S
C121 C103 1.472 . S
C121 C120 1.396 . S
C121 C122 1.348 . S
C122 H85 0.929 . S
C122 C121 1.348 . S
C122 C123 1.443 . S
C123 H87 0.932 . S
C123 C118 1.388 . S
C123 C122 1.443 . S
H124 C151 0.929 . S
N125 C150 1.433 1_554 S
N125 C156 1.435 . S
N125 C162 1.423 . S
H126 C152 0.930 . S
H127 C155 0.931 . S
H128 C154 0.929 . S
H129 C157 0.930 . S
H130 C158 0.932 . S
H131 C161 0.929 . S
H132 C160 0.931 . S
H133 C163 0.929 1_556 S
H134 C167 0.932 . S
H135 C164 0.931 1_556 S
H136 C166 0.929 . S
H137 C169 0.929 . S
H138 C170 0.930 . S
H139 C172 0.929 . S
H140 C173 0.931 . S
H141 C175 0.930 . S
H142 C176 0.932 . S
H143 C178 0.931 . S
H144 C179 0.929 . S
H145 C181 0.926 1_556 S
H146 C182 0.931 1_556 S
H147 C184 0.929 . S
N148 C168 1.433 1_554 S
N148 C174 1.435 . S
N148 C180 1.423 . S
H149 C185 0.932 . S
C150 N125 1.433 1_556 S
C150 C151 1.363 . S
C150 C155 1.370 . S
C151 H124 0.929 . S
C151 C150 1.363 . S
C151 C152 1.385 . S
C152 H126 0.930 . S
C152 C151 1.385 . S
C152 C153 1.357 . S
C153 C152 1.357 . S
C153 C154 1.406 . S
C154 H128 0.929 . S
C154 C153 1.406 . S
C154 C155 1.391 . S
C155 H127 0.931 . S
C155 C150 1.370 . S
C155 C154 1.391 . S
C156 N125 1.435 . S
C156 C157 1.358 . S
C156 C161 1.371 . S
C157 H129 0.930 . S
C157 C156 1.358 . S
C157 C158 1.405 . S
C158 H130 0.932 . S
C158 C157 1.405 . S
C158 C159 1.383 . S
C159 C158 1.383 . S
C159 C160 1.393 . S
C160 H132 0.931 . S
C160 C159 1.393 . S
C160 C161 1.382 . S
C161 H131 0.929 . S
C161 C156 1.371 . S
C161 C160 1.382 . S
C162 N125 1.423 . S
C162 C163 1.362 . S
C162 C167 1.388 . S
C163 H133 0.929 1_554 S
C163 C162 1.362 . S
C163 C164 1.376 . S
C164 H135 0.931 1_554 S
C164 C163 1.376 . S
C164 C165 1.396 . S
C165 C164 1.396 . S
C165 C166 1.348 . S
C165 C183 1.472 . S
C166 H136 0.929 . S
C166 C165 1.348 . S
C166 C167 1.443 . S
C167 H134 0.932 . S
C167 C162 1.388 . S
C167 C166 1.443 . S
C168 N148 1.433 1_556 S
C168 C169 1.363 . S
C168 C173 1.370 . S
C169 H137 0.929 . S
C169 C168 1.363 . S
C169 C170 1.385 . S
C170 H138 0.930 . S
C170 C169 1.385 . S
C170 C171 1.357 . S
C171 C170 1.357 . S
C171 C172 1.406 . S
C172 H139 0.929 . S
C172 C171 1.406 . S
C172 C173 1.391 . S
C173 H140 0.931 . S
C173 C168 1.370 . S
C173 C172 1.391 . S
C174 N148 1.435 . S
C174 C175 1.358 . S
C174 C179 1.371 . S
C175 H141 0.930 . S
C175 C174 1.358 . S
C175 C176 1.405 . S
C176 H142 0.932 . S
C176 C175 1.405 . S
C176 C177 1.383 . S
C177 C176 1.383 . S
C177 C178 1.393 . S
C178 H143 0.931 . S
C178 C177 1.393 . S
C178 C179 1.382 . S
C179 H144 0.929 . S
C179 C174 1.371 . S
C179 C178 1.382 . S
C180 N148 1.423 . S
C180 C181 1.365 . S
C180 C185 1.388 . S
C181 H145 0.926 1_554 S
C181 C180 1.365 . S
C181 C182 1.377 . S
C182 H146 0.931 1_554 S
C182 C181 1.377 . S
C182 C183 1.396 . S
C183 C165 1.472 . S
C183 C182 1.396 . S
C183 C184 1.348 . S
C184 H147 0.929 . S
C184 C183 1.348 . S
C184 C185 1.443 . S
C185 H149 0.932 . S
C185 C180 1.388 . S
C185 C184 1.443 . S
H186 C213 0.929 . S
N187 C212 1.433 . S
N187 C218 1.435 . S
N187 C224 1.423 . S
H188 C214 0.930 . S
H189 C217 0.931 . S
H190 C216 0.929 . S
H191 C219 0.930 . S
H192 C220 0.932 . S
H193 C223 0.929 . S
H194 C222 0.931 . S
H195 C225 0.929 . S
H196 C229 0.932 1_556 S
H197 C226 0.931 . S
H198 C228 0.929 1_556 S
H199 C231 0.929 . S
H200 C232 0.930 . S
H201 C234 0.929 . S
H202 C235 0.931 . S
H203 C237 0.930 . S
H204 C238 0.932 . S
H205 C240 0.931 . S
H206 C241 0.929 . S
H207 C243 0.929 . S
H208 C244 0.931 . S
H209 C246 0.929 1_556 S
N210 C230 1.433 . S
N210 C236 1.435 . S
N210 C242 1.423 . S
H211 C247 0.932 1_556 S
C212 N187 1.433 . S
C212 C213 1.363 . S
C212 C217 1.370 . S
C213 H186 0.929 . S
C213 C212 1.363 . S
C213 C214 1.385 . S
C214 H188 0.930 . S
C214 C213 1.385 . S
C214 C215 1.357 . S
C215 C214 1.357 . S
C215 C216 1.406 . S
C216 H190 0.929 . S
C216 C215 1.406 . S
C216 C217 1.391 . S
C217 H189 0.931 . S
C217 C212 1.370 . S
C217 C216 1.391 . S
C218 N187 1.435 . S
C218 C219 1.358 . S
C218 C223 1.371 1_554 S
C219 H191 0.930 . S
C219 C218 1.358 . S
C219 C220 1.405 1_554 S
C220 H192 0.932 . S
C220 C219 1.405 1_556 S
C220 C221 1.383 . S
C221 C220 1.383 . S
C221 C222 1.393 . S
C222 H194 0.931 . S
C222 C221 1.393 . S
C222 C223 1.382 . S
C223 H193 0.929 . S
C223 C218 1.371 1_556 S
C223 C222 1.382 . S
C224 N187 1.423 . S
C224 C225 1.362 . S
C224 C229 1.388 . S
C225 H195 0.929 . S
C225 C224 1.362 . S
C225 C226 1.376 . S
C226 H197 0.931 . S
C226 C225 1.376 . S
C226 C227 1.396 . S
C227 C226 1.396 . S
C227 C228 1.348 . S
C227 C245 1.472 . S
C228 H198 0.929 1_554 S
C228 C227 1.348 . S
C228 C229 1.443 . S
C229 H196 0.932 1_554 S
C229 C224 1.388 . S
C229 C228 1.443 . S
C230 N210 1.433 . S
C230 C231 1.363 . S
C230 C235 1.370 . S
C231 H199 0.929 . S
C231 C230 1.363 . S
C231 C232 1.385 . S
C232 H200 0.930 . S
C232 C231 1.385 . S
C232 C233 1.357 . S
C233 C232 1.357 . S
C233 C234 1.406 . S
C234 H201 0.929 . S
C234 C233 1.406 . S
C234 C235 1.391 . S
C235 H202 0.931 . S
C235 C230 1.370 . S
C235 C234 1.391 . S
C236 N210 1.435 . S
C236 C237 1.358 . S
C236 C241 1.371 1_554 S
C237 H203 0.930 . S
C237 C236 1.358 . S
C237 C238 1.405 1_554 S
C238 H204 0.932 . S
C238 C237 1.405 1_556 S
C238 C239 1.383 . S
C239 C238 1.383 . S
C239 C240 1.393 . S
C240 H205 0.931 . S
C240 C239 1.393 . S
C240 C241 1.382 . S
C241 H206 0.929 . S
C241 C236 1.371 1_556 S
C241 C240 1.382 . S
C242 N210 1.423 . S
C242 C243 1.362 . S
C242 C247 1.388 . S
C243 H207 0.929 . S
C243 C242 1.362 . S
C243 C244 1.376 . S
C244 H208 0.931 . S
C244 C243 1.376 . S
C244 C245 1.396 . S
C245 C227 1.472 . S
C245 C244 1.396 . S
C245 C246 1.348 . S
C246 H209 0.929 1_554 S
C246 C245 1.348 . S
C246 C247 1.443 . S
C247 H211 0.932 1_554 S
C247 C242 1.388 . S
C247 C246 1.443 . S
H248 C275 0.929 . S
N249 C274 1.433 . S
N249 C280 1.435 . S
N249 C286 1.423 . S
H250 C276 0.930 . S
H251 C279 0.931 . S
H252 C278 0.929 . S
H253 C281 0.930 . S
H254 C282 0.932 . S
H255 C285 0.929 . S
H256 C284 0.931 . S
H257 C287 0.929 . S
H258 C291 0.932 . S
H259 C288 0.931 . S
H260 C290 0.929 . S
H261 C293 0.929 . S
H262 C294 0.930 . S
H263 C296 0.929 . S
H264 C297 0.931 . S
H265 C299 0.930 . S
H266 C300 0.932 . S
H267 C302 0.931 . S
H268 C303 0.929 . S
H269 C305 0.929 . S
H270 C306 0.931 . S
H271 C308 0.929 . S
N272 C292 1.433 . S
N272 C298 1.435 . S
N272 C304 1.423 . S
H273 C309 0.932 . S
C274 N249 1.433 . S
C274 C275 1.363 . S
C274 C279 1.370 . S
C275 H248 0.929 . S
C275 C274 1.363 . S
C275 C276 1.385 . S
C276 H250 0.930 . S
C276 C275 1.385 . S
C276 C277 1.357 . S
C277 C276 1.357 . S
C277 C278 1.406 . S
C278 H252 0.929 . S
C278 C277 1.406 . S
C278 C279 1.391 . S
C279 H251 0.931 . S
C279 C274 1.370 . S
C279 C278 1.391 . S
C280 N249 1.435 . S
C280 C281 1.358 . S
C280 C285 1.371 1_554 S
C281 H253 0.930 . S
C281 C280 1.358 . S
C281 C282 1.405 1_554 S
C282 H254 0.932 . S
C282 C281 1.405 1_556 S
C282 C283 1.383 . S
C283 C282 1.383 . S
C283 C284 1.393 . S
C284 H256 0.931 . S
C284 C283 1.393 . S
C284 C285 1.382 . S
C285 H255 0.929 . S
C285 C280 1.371 1_556 S
C285 C284 1.382 . S
C286 N249 1.423 . S
C286 C287 1.362 . S
C286 C291 1.388 . S
C287 H257 0.929 . S
C287 C286 1.362 . S
C287 C288 1.376 . S
C288 H259 0.931 . S
C288 C287 1.376 . S
C288 C289 1.396 . S
C289 C288 1.396 . S
C289 C290 1.348 . S
C289 C307 1.472 . S
C290 H260 0.929 . S
C290 C289 1.348 . S
C290 C291 1.443 . S
C291 H258 0.932 . S
C291 C286 1.388 . S
C291 C290 1.443 . S
C292 N272 1.433 . S
C292 C293 1.363 . S
C292 C297 1.370 . S
C293 H261 0.929 . S
C293 C292 1.363 . S
C293 C294 1.385 . S
C294 H262 0.930 . S
C294 C293 1.385 . S
C294 C295 1.357 . S
C295 C294 1.357 . S
C295 C296 1.406 . S
C296 H263 0.929 . S
C296 C295 1.406 . S
C296 C297 1.391 . S
C297 H264 0.931 . S
C297 C292 1.370 . S
C297 C296 1.391 . S
C298 N272 1.435 . S
C298 C299 1.358 . S
C298 C303 1.371 1_554 S
C299 H265 0.930 . S
C299 C298 1.358 . S
C299 C300 1.405 . S
C300 H266 0.932 . S
C300 C299 1.405 . S
C300 C301 1.383 1_554 S
C301 C300 1.383 1_556 S
C301 C302 1.393 . S
C302 H267 0.931 . S
C302 C301 1.393 . S
C302 C303 1.382 . S
C303 H268 0.929 . S
C303 C298 1.371 1_556 S
C303 C302 1.382 . S
C304 N272 1.423 . S
C304 C305 1.362 . S
C304 C309 1.388 . S
C305 H269 0.929 . S
C305 C304 1.362 . S
C305 C306 1.376 . S
C306 H270 0.931 . S
C306 C305 1.376 . S
C306 C307 1.396 . S
C307 C289 1.472 . S
C307 C306 1.396 . S
C307 C308 1.348 . S
C308 H271 0.929 . S
C308 C307 1.348 . S
C308 C309 1.443 . S
C309 H273 0.932 . S
C309 C304 1.388 . S
C309 C308 1.443 . S
H310 C337 0.929 . S
N311 C336 1.433 . S
N311 C342 1.435 . S
N311 C348 1.423 . S
H312 C338 0.930 . S
H313 C341 0.931 . S
H314 C340 0.929 . S
H315 C343 0.930 . S
H316 C344 0.932 . S
H317 C347 0.929 . S
H318 C346 0.931 . S
H319 C349 0.929 . S
H320 C353 0.932 . S
H321 C350 0.931 . S
H322 C352 0.929 . S
H323 C355 0.929 . S
H324 C356 0.930 . S
H325 C358 0.929 . S
H326 C359 0.931 . S
H327 C361 0.930 . S
H328 C362 0.932 . S
H329 C364 0.931 . S
H330 C365 0.929 . S
H331 C367 0.929 . S
H332 C368 0.931 . S
H333 C370 0.929 . S
N334 C354 1.433 . S
N334 C360 1.435 . S
N334 C366 1.423 . S
H335 C371 0.932 . S
C336 N311 1.433 . S
C336 C337 1.363 . S
C336 C341 1.370 . S
C337 H310 0.929 . S
C337 C336 1.363 . S
C337 C338 1.385 . S
C338 H312 0.930 . S
C338 C337 1.385 . S
C338 C339 1.357 . S
C339 C338 1.357 . S
C339 C340 1.406 . S
C340 H314 0.929 . S
C340 C339 1.406 . S
C340 C341 1.391 . S
C341 H313 0.931 . S
C341 C336 1.370 . S
C341 C340 1.391 . S
C342 N311 1.435 . S
C342 C343 1.358 . S
C342 C347 1.371 . S
C343 H315 0.930 . S
C343 C342 1.358 . S
C343 C344 1.405 . S
C344 H316 0.932 . S
C344 C343 1.405 . S
C344 C345 1.383 . S
C345 C344 1.383 . S
C345 C346 1.393 . S
C346 H318 0.931 . S
C346 C345 1.393 . S
C346 C347 1.382 . S
C347 H317 0.929 . S
C347 C342 1.371 . S
C347 C346 1.382 . S
C348 N311 1.423 . S
C348 C349 1.362 . S
C348 C353 1.388 . S
C349 H319 0.929 . S
C349 C348 1.362 . S
C349 C350 1.376 . S
C350 H321 0.931 . S
C350 C349 1.376 . S
C350 C351 1.396 . S
C351 C350 1.396 . S
C351 C352 1.348 . S
C351 C369 1.472 . S
C352 H322 0.929 . S
C352 C351 1.348 . S
C352 C353 1.443 . S
C353 H320 0.932 . S
C353 C348 1.388 . S
C353 C352 1.443 . S
C354 N334 1.433 . S
C354 C355 1.363 . S
C354 C359 1.370 . S
C355 H323 0.929 . S
C355 C354 1.363 . S
C355 C356 1.385 . S
C356 H324 0.930 . S
C356 C355 1.385 . S
C356 C357 1.357 . S
C357 C356 1.357 . S
C357 C358 1.406 . S
C358 H325 0.929 . S
C358 C357 1.406 . S
C358 C359 1.391 . S
C359 H326 0.931 . S
C359 C354 1.370 . S
C359 C358 1.391 . S
C360 N334 1.435 . S
C360 C361 1.358 . S
C360 C365 1.371 . S
C361 H327 0.930 . S
C361 C360 1.358 . S
C361 C362 1.405 . S
C362 H328 0.932 . S
C362 C361 1.405 . S
C362 C363 1.383 . S
C363 C362 1.383 . S
C363 C364 1.393 . S
C364 H329 0.931 . S
C364 C363 1.393 . S
C364 C365 1.382 . S
C365 H330 0.929 . S
C365 C360 1.371 . S
C365 C364 1.382 . S
C366 N334 1.423 . S
C366 C367 1.362 . S
C366 C371 1.388 . S
C367 H331 0.929 . S
C367 C366 1.362 . S
C367 C368 1.376 . S
C368 H332 0.931 . S
C368 C367 1.376 . S
C368 C369 1.396 . S
C369 C351 1.472 . S
C369 C368 1.396 . S
C369 C370 1.348 . S
C370 H333 0.929 . S
C370 C369 1.348 . S
C370 C371 1.443 . S
C371 H335 0.932 . S
C371 C366 1.388 . S
C371 C370 1.443 . S
C372 O384 1.241 . S
C372 O385 1.280 . S
C373 O386 1.277 . S
C373 O387 1.245 . S
C374 O398 1.247 . S
C374 O400 1.289 . S
Mg375 O376 1.912 . S
Mg375 O385 1.984 . S
Mg375 O387 1.988 1_655 S
Mg375 O388 2.061 . S
O376 Mg375 1.912 . S
O376 Mg377 1.988 1_655 S
O376 Mg378 1.920 1_655 S
Mg377 O376 1.988 1_455 S
Mg377 O384 2.042 1_455 S
Mg377 O386 2.041 . S
Mg377 O392 2.038 1_455 S
Mg377 O400 2.238 . S
Mg378 O376 1.920 1_455 S
Mg378 O379 1.917 . S
Mg378 O389 2.106 1_455 S
Mg378 O391 2.079 1_455 S
Mg378 O400 2.106 . S
Mg378 O401 2.079 . S
O379 Mg378 1.917 . S
O379 Mg380 1.926 . S
O379 Mg381 1.986 . S
Mg380 O379 1.926 . S
Mg380 O394 1.984 . S
Mg380 O397 1.988 1_455 S
Mg380 O398 2.061 . S
Mg381 O379 1.986 . S
Mg381 O389 2.238 1_455 S
Mg381 O393 2.042 . S
Mg381 O395 2.041 1_455 S
Mg381 O402 2.038 . S
C382 O388 1.247 . S
C382 O389 1.289 . S
C383 O401 1.245 . S
C383 O402 1.274 . S
O384 C372 1.241 . S
O384 Mg377 2.042 1_655 S
O385 C372 1.280 . S
O385 Mg375 1.984 . S
O386 C373 1.277 . S
O386 Mg377 2.041 . S
O387 C373 1.245 . S
O387 Mg375 1.988 1_455 S
O388 Mg375 2.061 . S
O388 C382 1.247 . S
O389 Mg378 2.106 1_655 S
O389 Mg381 2.238 1_655 S
O389 C382 1.289 . S
C390 O391 1.245 . S
C390 O392 1.274 . S
O391 Mg378 2.079 1_655 S
O391 C390 1.245 . S
O392 Mg377 2.038 1_655 S
O392 C390 1.274 . S
O393 Mg381 2.042 . S
O393 C396 1.241 . S
O394 Mg380 1.984 . S
O394 C396 1.280 . S
O395 Mg381 2.041 1_655 S
O395 C399 1.277 . S
C396 O393 1.241 . S
C396 O394 1.280 . S
O397 Mg380 1.988 1_655 S
O397 C399 1.245 . S
O398 C374 1.247 . S
O398 Mg380 2.061 . S
C399 O395 1.277 . S
C399 O397 1.245 . S
O400 C374 1.289 . S
O400 Mg377 2.238 . S
O400 Mg378 2.106 . S
O401 Mg378 2.079 . S
O401 C383 1.245 . S
O402 Mg381 2.038 . S
O402 C383 1.274 . S
C403 O415 1.241 . S
C403 O416 1.280 . S
C404 O417 1.277 . S
C404 O418 1.245 . S
C405 O429 1.247 . S
C405 O431 1.289 . S
Mg406 O407 1.926 . S
Mg406 O416 1.984 . S
Mg406 O418 1.988 1_545 S
Mg406 O419 2.061 . S
O407 Mg406 1.926 . S
O407 Mg408 1.986 . S
O407 Mg409 1.917 . S
Mg408 O407 1.986 . S
Mg408 O415 2.042 . S
Mg408 O417 2.041 1_545 S
Mg408 O423 2.038 . S
Mg408 O431 2.238 1_545 S
Mg409 O407 1.917 . S
Mg409 O410 1.917 1_545 S
Mg409 O420 2.106 . S
Mg409 O422 2.079 . S
Mg409 O431 2.106 1_545 S
Mg409 O432 2.079 1_545 S
O410 Mg409 1.917 1_565 S
O410 Mg411 1.926 . S
O410 Mg412 1.986 1_565 S
Mg411 O410 1.926 . S
Mg411 O425 1.984 . S
Mg411 O428 1.988 1_565 S
Mg411 O429 2.061 . S
Mg412 O410 1.986 1_545 S
Mg412 O420 2.238 . S
Mg412 O424 2.042 1_545 S
Mg412 O426 2.041 . S
Mg412 O433 2.038 1_545 S
C413 O419 1.247 . S
C413 O420 1.289 . S
C414 O432 1.245 . S
C414 O433 1.274 . S
O415 C403 1.241 . S
O415 Mg408 2.042 . S
O416 C403 1.280 . S
O416 Mg406 1.984 . S
O417 C404 1.277 . S
O417 Mg408 2.041 1_565 S
O418 C404 1.245 . S
O418 Mg406 1.988 1_565 S
O419 Mg406 2.061 . S
O419 C413 1.247 . S
O420 Mg409 2.106 . S
O420 Mg412 2.238 . S
O420 C413 1.289 . S
C421 O422 1.245 . S
C421 O423 1.274 . S
O422 Mg409 2.079 . S
O422 C421 1.245 . S
O423 Mg408 2.038 . S
O423 C421 1.274 . S
O424 Mg412 2.042 1_565 S
O424 C427 1.241 . S
O425 Mg411 1.984 . S
O425 C427 1.280 . S
O426 Mg412 2.041 . S
O426 C430 1.277 . S
C427 O424 1.241 . S
C427 O425 1.280 . S
O428 Mg411 1.988 1_545 S
O428 C430 1.245 . S
O429 C405 1.247 . S
O429 Mg411 2.061 . S
C430 O426 1.277 . S
C430 O428 1.245 . S
O431 C405 1.289 . S
O431 Mg408 2.238 1_565 S
O431 Mg409 2.106 1_565 S
O432 Mg409 2.079 1_565 S
O432 C414 1.245 . S
O433 Mg412 2.038 1_565 S
O433 C414 1.274 . S
C434 O446 1.241 . S
C434 O447 1.280 . S
C435 O448 1.277 . S
C435 O449 1.245 . S
C436 O460 1.247 . S
C436 O462 1.289 . S
Mg437 O438 1.926 . S
Mg437 O447 1.984 . S
Mg437 O449 1.988 . S
Mg437 O450 2.061 . S
O438 Mg437 1.926 . S
O438 Mg439 1.986 . S
O438 Mg440 1.917 . S
Mg439 O438 1.986 . S
Mg439 O446 2.042 . S
Mg439 O448 2.041 . S
Mg439 O454 2.038 . S
Mg439 O462 2.238 . S
Mg440 O438 1.917 . S
Mg440 O441 1.917 . S
Mg440 O451 2.106 . S
Mg440 O453 2.079 . S
Mg440 O462 2.106 . S
Mg440 O463 2.079 . S
O441 Mg440 1.917 . S
O441 Mg442 1.926 . S
O441 Mg443 1.986 . S
Mg442 O441 1.926 . S
Mg442 O456 1.984 . S
Mg442 O459 1.988 . S
Mg442 O460 2.061 . S
Mg443 O441 1.986 . S
Mg443 O451 2.238 . S
Mg443 O455 2.042 . S
Mg443 O457 2.041 . S
Mg443 O464 2.038 . S
C444 O450 1.247 . S
C444 O451 1.289 . S
C445 O463 1.245 . S
C445 O464 1.274 . S
O446 C434 1.241 . S
O446 Mg439 2.042 . S
O447 C434 1.280 . S
O447 Mg437 1.984 . S
O448 C435 1.277 . S
O448 Mg439 2.041 . S
O449 C435 1.245 . S
O449 Mg437 1.988 . S
O450 Mg437 2.061 . S
O450 C444 1.247 . S
O451 Mg440 2.106 . S
O451 Mg443 2.238 . S
O451 C444 1.289 . S
C452 O453 1.245 . S
C452 O454 1.274 . S
O453 Mg440 2.079 . S
O453 C452 1.245 . S
O454 Mg439 2.038 . S
O454 C452 1.274 . S
O455 Mg443 2.042 . S
O455 C458 1.241 . S
O456 Mg442 1.984 . S
O456 C458 1.280 . S
O457 Mg443 2.041 . S
O457 C461 1.277 . S
C458 O455 1.241 . S
C458 O456 1.280 . S
O459 Mg442 1.988 . S
O459 C461 1.245 . S
O460 C436 1.247 . S
O460 Mg442 2.061 . S
C461 O457 1.277 . S
C461 O459 1.245 . S
O462 C436 1.289 . S
O462 Mg439 2.238 . S
O462 Mg440 2.106 . S
O463 Mg440 2.079 . S
O463 C445 1.245 . S
O464 Mg443 2.038 . S
O464 C445 1.274 . S
C465 C466 1.363 . S
C465 C471 1.379 . S
C465 N473 1.356 . S
C466 C465 1.363 . S
C466 C472 1.363 . S
C467 C468 1.363 . S
C467 C472 1.379 . S
C467 N474 1.356 . S
C468 C467 1.363 . S
C468 C471 1.363 . S
N469 C471 1.356 . S
N469 H481 0.984 . S
N469 H482 0.985 . S
N470 C472 1.356 . S
N470 H475 0.984 . S
N470 H476 0.985 . S
C471 C465 1.379 . S
C471 C468 1.363 . S
C471 N469 1.356 . S
C472 C466 1.363 . S
C472 C467 1.379 . S
C472 N470 1.356 . S
N473 C465 1.356 . S
N473 H479 0.984 . S
N473 H480 0.984 . S
N474 C467 1.356 . S
N474 H477 0.984 . S
N474 H478 0.985 . S
H475 N470 0.984 . S
H476 N470 0.985 . S
H477 N474 0.984 . S
H478 N474 0.985 . S
H479 N473 0.984 . S
H480 N473 0.984 . S
H481 N469 0.984 . S
H482 N469 0.985 . S
C483 C484 1.363 . S
C483 C489 1.379 . S
C483 N491 1.356 . S
C484 C483 1.363 . S
C484 C490 1.363 . S
C485 C486 1.363 . S
C485 C490 1.379 . S
C485 N492 1.356 . S
C486 C485 1.363 . S
C486 C489 1.363 . S
N487 C489 1.356 . S
N487 H499 0.984 . S
N487 H500 0.985 . S
N488 C490 1.356 . S
N488 H493 0.984 . S
N488 H494 0.985 . S
C489 C483 1.379 . S
C489 C486 1.363 . S
C489 N487 1.356 . S
C490 C484 1.363 . S
C490 C485 1.379 . S
C490 N488 1.356 . S
N491 C483 1.356 . S
N491 H497 0.984 . S
N491 H498 0.984 . S
N492 C485 1.356 . S
N492 H495 0.984 . S
N492 H496 0.985 . S
H493 N488 0.984 . S
H494 N488 0.985 . S
H495 N492 0.984 . S
H496 N492 0.985 . S
H497 N491 0.984 . S
H498 N491 0.984 . S
H499 N487 0.984 . S
H500 N487 0.985 . S
C501 C502 1.363 . S
C501 C507 1.379 . S
C501 N509 1.356 . S
C502 C501 1.363 . S
C502 C508 1.363 . S
C503 C504 1.363 . S
C503 C508 1.379 . S
C503 N510 1.356 . S
C504 C503 1.363 . S
C504 C507 1.363 . S
N505 C507 1.356 . S
N505 H517 0.984 . S
N505 H518 0.985 . S
N506 C508 1.356 . S
N506 H511 0.984 . S
N506 H512 0.985 . S
C507 C501 1.379 . S
C507 C504 1.363 . S
C507 N505 1.356 . S
C508 C502 1.363 . S
C508 C503 1.379 . S
C508 N506 1.356 . S
N509 C501 1.356 . S
N509 H515 0.984 . S
N509 H516 0.984 . S
N510 C503 1.356 . S
N510 H513 0.984 . S
N510 H514 0.985 . S
H511 N506 0.984 . S
H512 N506 0.985 . S
H513 N510 0.984 . S
H514 N510 0.985 . S
H515 N509 0.984 . S
H516 N509 0.984 . S
H517 N505 0.984 . S
H518 N505 0.985 . S
C519 C520 1.363 . S
C519 C525 1.379 . S
C519 N527 1.356 . S
C520 C519 1.363 . S
C520 C526 1.363 . S
C521 C522 1.363 . S
C521 C526 1.379 . S
C521 N528 1.356 . S
C522 C521 1.363 . S
C522 C525 1.363 . S
N523 C525 1.356 . S
N523 H535 0.984 . S
N523 H536 0.985 . S
N524 C526 1.356 . S
N524 H529 0.984 . S
N524 H530 0.985 . S
C525 C519 1.379 . S
C525 C522 1.363 . S
C525 N523 1.356 . S
C526 C520 1.363 . S
C526 C521 1.379 . S
C526 N524 1.356 . S
N527 C519 1.356 . S
N527 H533 0.984 . S
N527 H534 0.984 . S
N528 C521 1.356 . S
N528 H531 0.984 . S
N528 H532 0.985 . S
H529 N524 0.984 . S
H530 N524 0.985 . S
H531 N528 0.984 . S
H532 N528 0.985 . S
H533 N527 0.984 . S
H534 N527 0.984 . S
H535 N523 0.984 . S
H536 N523 0.985 . S
C537 C538 1.363 . S
C537 C543 1.379 . S
C537 N545 1.356 . S
C538 C537 1.363 . S
C538 C544 1.363 . S
C539 C540 1.363 . S
C539 C544 1.379 . S
C539 N546 1.356 . S
C540 C539 1.363 . S
C540 C543 1.363 . S
N541 C543 1.356 . S
N541 H553 0.984 . S
N541 H554 0.985 . S
N542 C544 1.356 . S
N542 H547 0.984 . S
N542 H548 0.985 . S
C543 C537 1.379 . S
C543 C540 1.363 . S
C543 N541 1.356 . S
C544 C538 1.363 . S
C544 C539 1.379 . S
C544 N542 1.356 . S
N545 C537 1.356 . S
N545 H551 0.984 . S
N545 H552 0.984 . S
N546 C539 1.356 . S
N546 H549 0.984 . S
N546 H550 0.985 . S
H547 N542 0.984 . S
H548 N542 0.985 . S
H549 N546 0.984 . S
H550 N546 0.985 . S
H551 N545 0.984 . S
H552 N545 0.984 . S
H553 N541 0.984 . S
H554 N541 0.985 . S
C555 C556 1.363 . S
C555 C561 1.379 . S
C555 N563 1.356 . S
C556 C555 1.363 . S
C556 C562 1.363 . S
C557 C558 1.363 . S
C557 C562 1.379 . S
C557 N564 1.356 . S
C558 C557 1.363 . S
C558 C561 1.363 . S
N559 C561 1.356 . S
N559 H571 0.984 . S
N559 H572 0.985 . S
N560 C562 1.356 . S
N560 H565 0.984 . S
N560 H566 0.985 . S
C561 C555 1.379 . S
C561 C558 1.363 . S
C561 N559 1.356 . S
C562 C556 1.363 . S
C562 C557 1.379 . S
C562 N560 1.356 . S
N563 C555 1.356 . S
N563 H569 0.984 . S
N563 H570 0.984 . S
N564 C557 1.356 . S
N564 H567 0.984 . S
N564 H568 0.985 . S
H565 N560 0.984 . S
H566 N560 0.985 . S
H567 N564 0.984 . S
H568 N564 0.985 . S
H569 N563 0.984 . S
H570 N563 0.984 . S
H571 N559 0.984 . S
H572 N559 0.985 . S
C573 C574 1.363 . S
C573 C579 1.379 . S
C573 N581 1.356 . S
C574 C573 1.363 . S
C574 C580 1.363 . S
C575 C576 1.363 . S
C575 C580 1.379 . S
C575 N582 1.356 . S
C576 C575 1.363 . S
C576 C579 1.363 . S
N577 C579 1.356 . S
N577 H589 0.984 . S
N577 H590 0.985 . S
N578 C580 1.356 . S
N578 H583 0.984 . S
N578 H584 0.985 . S
C579 C573 1.379 . S
C579 C576 1.363 . S
C579 N577 1.356 . S
C580 C574 1.363 . S
C580 C575 1.379 . S
C580 N578 1.356 . S
N581 C573 1.356 . S
N581 H587 0.984 . S
N581 H588 0.984 . S
N582 C575 1.356 . S
N582 H585 0.984 . S
N582 H586 0.985 . S
H583 N578 0.984 . S
H584 N578 0.985 . S
H585 N582 0.984 . S
H586 N582 0.985 . S
H587 N581 0.984 . S
H588 N581 0.984 . S
H589 N577 0.984 . S
H590 N577 0.985 . S
C591 C592 1.363 . S
C591 C597 1.379 . S
C591 N599 1.356 . S
C592 C591 1.363 . S
C592 C598 1.363 . S
C593 C594 1.363 . S
C593 C598 1.379 . S
C593 N600 1.356 . S
C594 C593 1.363 . S
C594 C597 1.363 . S
N595 C597 1.356 . S
N595 H607 0.984 . S
N595 H608 0.985 . S
N596 C598 1.356 . S
N596 H601 0.984 . S
N596 H602 0.985 . S
C597 C591 1.379 . S
C597 C594 1.363 . S
C597 N595 1.356 . S
C598 C592 1.363 . S
C598 C593 1.379 . S
C598 N596 1.356 . S
N599 C591 1.356 . S
N599 H605 0.984 . S
N599 H606 0.984 . S
N600 C593 1.356 . S
N600 H603 0.984 . S
N600 H604 0.985 . S
H601 N596 0.984 . S
H602 N596 0.985 . S
H603 N600 0.984 . S
H604 N600 0.985 . S
H605 N599 0.984 . S
H606 N599 0.984 . S
H607 N595 0.984 . S
H608 N595 0.985 . S
C609 C610 1.363 . S
C609 C615 1.379 . S
C609 N617 1.356 . S
C610 C609 1.363 . S
C610 C616 1.363 . S
C611 C612 1.363 . S
C611 C616 1.379 . S
C611 N618 1.356 . S
C612 C611 1.363 . S
C612 C615 1.363 . S
N613 C615 1.356 . S
N613 H625 0.984 . S
N613 H626 0.985 . S
N614 C616 1.356 . S
N614 H619 0.984 . S
N614 H620 0.985 . S
C615 C609 1.379 . S
C615 C612 1.363 . S
C615 N613 1.356 . S
C616 C610 1.363 . S
C616 C611 1.379 . S
C616 N614 1.356 . S
N617 C609 1.356 . S
N617 H623 0.984 . S
N617 H624 0.984 . S
N618 C611 1.356 . S
N618 H621 0.984 . S
N618 H622 0.985 . S
H619 N614 0.984 . S
H620 N614 0.985 . S
H621 N618 0.984 . S
H622 N618 0.985 . S
H623 N617 0.984 . S
H624 N617 0.984 . S
H625 N613 0.984 . S
H626 N613 0.985 . S
C627 C628 1.363 . S
C627 C633 1.379 . S
C627 N635 1.356 1_556 S
C628 C627 1.363 . S
C628 C634 1.363 . S
C629 C630 1.363 . S
C629 C634 1.379 . S
C629 N636 1.356 . S
C630 C629 1.363 . S
C630 C633 1.363 . S
N631 C633 1.356 . S
N631 H643 0.984 . S
N631 H644 0.985 . S
N632 C634 1.356 . S
N632 H637 0.984 . S
N632 H638 0.985 . S
C633 C627 1.379 . S
C633 C630 1.363 . S
C633 N631 1.356 . S
C634 C628 1.363 . S
C634 C629 1.379 . S
C634 N632 1.356 . S
N635 C627 1.356 1_554 S
N635 H641 0.984 . S
N635 H642 0.984 . S
N636 C629 1.356 . S
N636 H639 0.984 . S
N636 H640 0.985 . S
H637 N632 0.984 . S
H638 N632 0.985 . S
H639 N636 0.984 . S
H640 N636 0.985 . S
H641 N635 0.984 . S
H642 N635 0.984 . S
H643 N631 0.984 . S
H644 N631 0.985 . S
C645 C646 1.363 . S
C645 C651 1.379 . S
C645 N653 1.356 . S
C646 C645 1.363 . S
C646 C652 1.363 . S
C647 C648 1.363 . S
C647 C652 1.379 . S
C647 N654 1.356 . S
C648 C647 1.363 . S
C648 C651 1.363 . S
N649 C651 1.356 . S
N649 H661 0.984 . S
N649 H662 0.985 . S
N650 C652 1.356 . S
N650 H655 0.984 . S
N650 H656 0.985 . S
C651 C645 1.379 . S
C651 C648 1.363 . S
C651 N649 1.356 . S
C652 C646 1.363 . S
C652 C647 1.379 . S
C652 N650 1.356 . S
N653 C645 1.356 . S
N653 H659 0.984 . S
N653 H660 0.984 . S
N654 C647 1.356 . S
N654 H657 0.984 . S
N654 H658 0.985 . S
H655 N650 0.984 . S
H656 N650 0.985 . S
H657 N654 0.984 . S
H658 N654 0.985 . S
H659 N653 0.984 . S
H660 N653 0.984 . S
H661 N649 0.984 . S
H662 N649 0.985 . S
C663 C664 1.363 . S
C663 C669 1.379 . S
C663 N671 1.356 . S
C664 C663 1.363 . S
C664 C670 1.363 . S
C665 C666 1.363 . S
C665 C670 1.379 . S
C665 N672 1.356 . S
C666 C665 1.363 . S
C666 C669 1.363 . S
N667 C669 1.356 . S
N667 H679 0.984 . S
N667 H680 0.985 . S
N668 C670 1.356 1_554 S
N668 H673 0.984 . S
N668 H674 0.985 . S
C669 C663 1.379 . S
C669 C666 1.363 . S
C669 N667 1.356 . S
C670 C664 1.363 . S
C670 C665 1.379 . S
C670 N668 1.356 1_556 S
N671 C663 1.356 . S
N671 H677 0.984 . S
N671 H678 0.984 . S
N672 C665 1.356 . S
N672 H675 0.984 . S
N672 H676 0.985 . S
H673 N668 0.984 . S
H674 N668 0.985 . S
H675 N672 0.984 . S
H676 N672 0.985 . S
H677 N671 0.984 . S
H678 N671 0.984 . S
H679 N667 0.984 . S
H680 N667 0.985 . S
C681 C682 1.363 . S
C681 C687 1.379 . S
C681 N689 1.356 . S
C682 C681 1.363 . S
C682 C688 1.363 . S
C683 C684 1.363 . S
C683 C688 1.379 . S
C683 N690 1.356 . S
C684 C683 1.363 . S
C684 C687 1.363 . S
N685 C687 1.356 . S
N685 H697 0.984 . S
N685 H698 0.985 . S
N686 C688 1.356 . S
N686 H691 0.984 . S
N686 H692 0.985 . S
C687 C681 1.379 . S
C687 C684 1.363 . S
C687 N685 1.356 . S
C688 C682 1.363 . S
C688 C683 1.379 . S
C688 N686 1.356 . S
N689 C681 1.356 . S
N689 H695 0.984 . S
N689 H696 0.984 . S
N690 C683 1.356 . S
N690 H693 0.984 . S
N690 H694 0.985 . S
H691 N686 0.984 . S
H692 N686 0.985 . S
H693 N690 0.984 . S
H694 N690 0.985 . S
H695 N689 0.984 . S
H696 N689 0.984 . S
H697 N685 0.984 . S
H698 N685 0.985 . S
C699 C700 1.363 . S
C699 C705 1.379 . S
C699 N707 1.356 . S
C700 C699 1.363 . S
C700 C706 1.363 . S
C701 C702 1.363 . S
C701 C706 1.379 . S
C701 N708 1.356 . S
C702 C701 1.363 . S
C702 C705 1.363 . S
N703 C705 1.356 . S
N703 H715 0.984 . S
N703 H716 0.985 . S
N704 C706 1.356 . S
N704 H709 0.984 . S
N704 H710 0.985 . S
C705 C699 1.379 . S
C705 C702 1.363 . S
C705 N703 1.356 . S
C706 C700 1.363 . S
C706 C701 1.379 . S
C706 N704 1.356 . S
N707 C699 1.356 . S
N707 H713 0.984 . S
N707 H714 0.984 . S
N708 C701 1.356 . S
N708 H711 0.984 . S
N708 H712 0.985 . S
H709 N704 0.984 . S
H710 N704 0.985 . S
H711 N708 0.984 . S
H712 N708 0.985 . S
H713 N707 0.984 . S
H714 N707 0.984 . S
H715 N703 0.984 . S
H716 N703 0.985 . S
C717 C718 1.363 . S
C717 C723 1.379 . S
C717 N725 1.356 . S
C718 C717 1.363 . S
C718 C724 1.363 . S
C719 C720 1.363 . S
C719 C724 1.379 . S
C719 N726 1.356 . S
C720 C719 1.363 . S
C720 C723 1.363 . S
N721 C723 1.356 . S
N721 H733 0.984 . S
N721 H734 0.985 . S
N722 C724 1.356 1_554 S
N722 H727 0.984 . S
N722 H728 0.985 . S
C723 C717 1.379 . S
C723 C720 1.363 . S
C723 N721 1.356 . S
C724 C718 1.363 . S
C724 C719 1.379 . S
C724 N722 1.356 1_556 S
N725 C717 1.356 . S
N725 H731 0.984 . S
N725 H732 0.984 . S
N726 C719 1.356 . S
N726 H729 0.984 . S
N726 H730 0.985 . S
H727 N722 0.984 . S
H728 N722 0.985 . S
H729 N726 0.984 . S
H730 N726 0.985 . S
H731 N725 0.984 . S
H732 N725 0.984 . S
H733 N721 0.984 . S
H734 N721 0.985 . S
C735 C736 1.363 . S
C735 C741 1.379 . S
C735 N743 1.356 1_556 S
C736 C735 1.363 . S
C736 C742 1.363 . S
C737 C738 1.363 . S
C737 C742 1.379 . S
C737 N744 1.356 . S
C738 C737 1.363 . S
C738 C741 1.363 . S
N739 C741 1.356 . S
N739 H751 0.984 . S
N739 H752 0.985 . S
N740 C742 1.356 . S
N740 H745 0.984 . S
N740 H746 0.985 . S
C741 C735 1.379 . S
C741 C738 1.363 . S
C741 N739 1.356 . S
C742 C736 1.363 . S
C742 C737 1.379 . S
C742 N740 1.356 . S
N743 C735 1.356 1_554 S
N743 H749 0.984 . S
N743 H750 0.984 . S
N744 C737 1.356 . S
N744 H747 0.984 . S
N744 H748 0.985 . S
H745 N740 0.984 . S
H746 N740 0.985 . S
H747 N744 0.984 . S
H748 N744 0.985 . S
H749 N743 0.984 . S
H750 N743 0.984 . S
H751 N739 0.984 . S
H752 N739 0.985 . S
C753 C754 1.363 . S
C753 C759 1.379 . S
C753 N761 1.356 . S
C754 C753 1.363 . S
C754 C760 1.363 . S
C755 C756 1.363 . S
C755 C760 1.379 . S
C755 N762 1.356 . S
C756 C755 1.363 . S
C756 C759 1.363 . S
N757 C759 1.356 . S
N757 H769 0.984 . S
N757 H770 0.985 . S
N758 C760 1.356 . S
N758 H763 0.984 . S
N758 H764 0.985 . S
C759 C753 1.379 . S
C759 C756 1.363 . S
C759 N757 1.356 . S
C760 C754 1.363 . S
C760 C755 1.379 . S
C760 N758 1.356 . S
N761 C753 1.356 . S
N761 H767 0.984 . S
N761 H768 0.984 . S
N762 C755 1.356 . S
N762 H765 0.984 . S
N762 H766 0.985 . S
H763 N758 0.984 . S
H764 N758 0.985 . S
H765 N762 0.984 . S
H766 N762 0.985 . S
H767 N761 0.984 . S
H768 N761 0.984 . S
H769 N757 0.984 . S
H770 N757 0.985 . S
C771 C772 1.363 . S
C771 C777 1.379 . S
C771 N779 1.356 . S
C772 C771 1.363 . S
C772 C778 1.363 . S
C773 C774 1.363 . S
C773 C778 1.379 . S
C773 N780 1.356 . S
C774 C773 1.363 . S
C774 C777 1.363 . S
N775 C777 1.356 . S
N775 H787 0.984 . S
N775 H788 0.985 . S
N776 C778 1.356 . S
N776 H781 0.984 . S
N776 H782 0.985 . S
C777 C771 1.379 . S
C777 C774 1.363 . S
C777 N775 1.356 . S
C778 C772 1.363 . S
C778 C773 1.379 . S
C778 N776 1.356 . S
N779 C771 1.356 . S
N779 H785 0.984 . S
N779 H786 0.984 . S
N780 C773 1.356 . S
N780 H783 0.984 . S
N780 H784 0.985 . S
H781 N776 0.984 . S
H782 N776 0.985 . S
H783 N780 0.984 . S
H784 N780 0.985 . S
H785 N779 0.984 . S
H786 N779 0.984 . S
H787 N775 0.984 . S
H788 N775 0.985 . S
C789 C790 1.363 . S
C789 C795 1.379 . S
C789 N797 1.356 . S
C790 C789 1.363 . S
C790 C796 1.363 . S
C791 C792 1.363 . S
C791 C796 1.379 . S
C791 N798 1.356 . S
C792 C791 1.363 . S
C792 C795 1.363 . S
N793 C795 1.356 . S
N793 H805 0.984 . S
N793 H806 0.985 . S
N794 C796 1.356 . S
N794 H799 0.984 . S
N794 H800 0.985 . S
C795 C789 1.379 . S
C795 C792 1.363 . S
C795 N793 1.356 . S
C796 C790 1.363 . S
C796 C791 1.379 . S
C796 N794 1.356 . S
N797 C789 1.356 . S
N797 H803 0.984 . S
N797 H804 0.984 . S
N798 C791 1.356 . S
N798 H801 0.984 . S
N798 H802 0.985 . S
H799 N794 0.984 . S
H800 N794 0.985 . S
H801 N798 0.984 . S
H802 N798 0.985 . S
H803 N797 0.984 . S
H804 N797 0.984 . S
H805 N793 0.984 . S
H806 N793 0.985 . S
C807 C808 1.363 . S
C807 C813 1.379 . S
C807 N815 1.356 . S
C808 C807 1.363 . S
C808 C814 1.363 . S
C809 C810 1.363 . S
C809 C814 1.379 . S
C809 N816 1.356 . S
C810 C809 1.363 . S
C810 C813 1.363 . S
N811 C813 1.356 . S
N811 H823 0.984 . S
N811 H824 0.985 . S
N812 C814 1.356 . S
N812 H817 0.984 . S
N812 H818 0.985 . S
C813 C807 1.379 . S
C813 C810 1.363 . S
C813 N811 1.356 . S
C814 C808 1.363 . S
C814 C809 1.379 . S
C814 N812 1.356 . S
N815 C807 1.356 . S
N815 H821 0.984 . S
N815 H822 0.984 . S
N816 C809 1.356 . S
N816 H819 0.984 . S
N816 H820 0.985 . S
H817 N812 0.984 . S
H818 N812 0.985 . S
H819 N816 0.984 . S
H820 N816 0.985 . S
H821 N815 0.984 . S
H822 N815 0.984 . S
H823 N811 0.984 . S
H824 N811 0.985 . S
C825 C826 1.363 . S
C825 C831 1.379 . S
C825 N833 1.356 . S
C826 C825 1.363 . S
C826 C832 1.363 . S
C827 C828 1.363 . S
C827 C832 1.379 . S
C827 N834 1.356 . S
C828 C827 1.363 . S
C828 C831 1.363 . S
N829 C831 1.356 . S
N829 H841 0.984 . S
N829 H842 0.985 . S
N830 C832 1.356 . S
N830 H835 0.984 . S
N830 H836 0.985 . S
C831 C825 1.379 . S
C831 C828 1.363 . S
C831 N829 1.356 . S
C832 C826 1.363 . S
C832 C827 1.379 . S
C832 N830 1.356 . S
N833 C825 1.356 . S
N833 H839 0.984 . S
N833 H840 0.984 . S
N834 C827 1.356 . S
N834 H837 0.984 . S
N834 H838 0.985 . S
H835 N830 0.984 . S
H836 N830 0.985 . S
H837 N834 0.984 . S
H838 N834 0.985 . S
H839 N833 0.984 . S
H840 N833 0.984 . S
H841 N829 0.984 . S
H842 N829 0.985 . S
C843 C844 1.363 . S
C843 C849 1.379 . S
C843 N851 1.356 . S
C844 C843 1.363 . S
C844 C850 1.363 . S
C845 C846 1.363 . S
C845 C850 1.379 . S
C845 N852 1.356 . S
C846 C845 1.363 . S
C846 C849 1.363 . S
N847 C849 1.356 . S
N847 H859 0.984 . S
N847 H860 0.985 . S
N848 C850 1.356 . S
N848 H853 0.984 . S
N848 H854 0.985 . S
C849 C843 1.379 . S
C849 C846 1.363 . S
C849 N847 1.356 . S
C850 C844 1.363 . S
C850 C845 1.379 . S
C850 N848 1.356 . S
N851 C843 1.356 . S
N851 H857 0.984 . S
N851 H858 0.984 . S
N852 C845 1.356 . S
N852 H855 0.984 . S
N852 H856 0.985 . S
H853 N848 0.984 . S
H854 N848 0.985 . S
H855 N852 0.984 . S
H856 N852 0.985 . S
H857 N851 0.984 . S
H858 N851 0.984 . S
H859 N847 0.984 . S
H860 N847 0.985 . S
C861 C862 1.363 . S
C861 C867 1.379 . S
C861 N869 1.356 . S
C862 C861 1.363 . S
C862 C868 1.363 . S
C863 C864 1.363 . S
C863 C868 1.379 . S
C863 N870 1.356 . S
C864 C863 1.363 . S
C864 C867 1.363 . S
N865 C867 1.356 . S
N865 H877 0.984 . S
N865 H878 0.985 . S
N866 C868 1.356 . S
N866 H871 0.984 . S
N866 H872 0.985 . S
C867 C861 1.379 . S
C867 C864 1.363 . S
C867 N865 1.356 . S
C868 C862 1.363 . S
C868 C863 1.379 . S
C868 N866 1.356 . S
N869 C861 1.356 . S
N869 H875 0.984 . S
N869 H876 0.984 . S
N870 C863 1.356 . S
N870 H873 0.984 . S
N870 H874 0.985 . S
H871 N866 0.984 . S
H872 N866 0.985 . S
H873 N870 0.984 . S
H874 N870 0.985 . S
H875 N869 0.984 . S
H876 N869 0.984 . S
H877 N865 0.984 . S
H878 N865 0.985 . S
C879 C880 1.363 . S
C879 C885 1.379 . S
C879 N887 1.356 . S
C880 C879 1.363 . S
C880 C886 1.363 . S
C881 C882 1.363 . S
C881 C886 1.379 . S
C881 N888 1.356 . S
C882 C881 1.363 . S
C882 C885 1.363 . S
N883 C885 1.356 . S
N883 H895 0.984 . S
N883 H896 0.985 . S
N884 C886 1.356 . S
N884 H889 0.984 . S
N884 H890 0.985 . S
C885 C879 1.379 . S
C885 C882 1.363 . S
C885 N883 1.356 . S
C886 C880 1.363 . S
C886 C881 1.379 . S
C886 N884 1.356 . S
N887 C879 1.356 . S
N887 H893 0.984 . S
N887 H894 0.984 . S
N888 C881 1.356 . S
N888 H891 0.984 . S
N888 H892 0.985 . S
H889 N884 0.984 . S
H890 N884 0.985 . S
H891 N888 0.984 . S
H892 N888 0.985 . S
H893 N887 0.984 . S
H894 N887 0.984 . S
H895 N883 0.984 . S
H896 N883 0.985 . S
C466 C47 2.005 . S
C468 C383 2.156 . S
C484 C91 1.772 . S
C486 C430 1.862 . S
C504 C434 1.766 . S
C502 C177 1.897 . S
C522 C399 1.722 . S
C520 C215 1.719 . S
C538 C295 1.960 . S
C540 C414 2.017 . S
C558 C436 1.017 . S
C556 C345 1.043 . S
C576 C405 1.766 . S
C574 C153 1.709 . S
C592 C239 1.464 . S
C594 C445 1.379 . S
C612 C374 1.372 . S
C610 C283 1.455 . S
C628 C357 1.607 1_556 S
C630 C403 1.644 . S
C646 C35 1.951 1_556 S
C648 C461 1.842 . S
C666 C372 1.444 . S
C664 C115 1.531 . S
C684 C390 1.747 . S
C682 C221 1.858 . S
C702 C404 1.500 . S
C700 C301 1.549 . S
C720 C458 2.000 . S
C718 C339 1.970 1_556 S
C738 C373 1.505 . S
C736 C53 1.601 1_556 S
C756 C421 1.747 . S
C754 C97 1.920 . S
C772 C171 1.339 . S
C774 C444 1.396 . S
C792 C413 1.378 . S
C790 C363 1.426 . S
C810 C452 1.777 . S
C808 C29 1.608 . S
C828 C382 1.617 . S
C826 C109 1.649 . S
C846 C427 1.431 . S
C844 C159 1.538 . S
C862 C233 2.088 . S
C864 C435 2.087 . S
C880 C277 1.664 . S
C882 C396 1.772 . S
