# Generated by pormake.
# Topology zzz, (3,6)-cn, num edge types: 1
# Building blocks:
#     Node 0, Type 0, BuildingBlock: QEWDON_clean_linker_0, # of connection points: 3
#     Node 1, Type 0, BuildingBlock: QEWDON_clean_linker_0, # of connection points: 3
#     Node 2, Type 0, BuildingBlock: QEWDON_clean_linker_0, # of connection points: 3
#     Node 3, Type 0, BuildingBlock: QEWDON_clean_linker_0, # of connection points: 3
#     Node 4, Type 0, BuildingBlock: QEWDON_clean_linker_0, # of connection points: 3
#     Node 5, Type 0, BuildingBlock: QEWDON_clean_linker_0, # of connection points: 3
#     Node 6, Type 0, BuildingBlock: QEWDON_clean_linker_0, # of connection points: 3
#     Node 7, Type 0, BuildingBlock: QEWDON_clean_linker_0, # of connection points: 3
#     Node 8, Type 1, BuildingBlock: BETGAK_clean_sbu_0, # of connection points: 6
#     Node 9, Type 1, BuildingBlock: BETGAK_clean_sbu_0, # of connection points: 6
#     Node 10, Type 1, BuildingBlock: BETGAK_clean_sbu_0, # of connection points: 6
#     Node 11, Type 1, BuildingBlock: BETGAK_clean_sbu_0, # of connection points: 6
#     Edge 12, Type (0, 1), BuildingBlock: XIVTED_clean_linker_0, # of connection points: 2
#     Edge 13, Type (0, 1), BuildingBlock: XIVTED_clean_linker_0, # of connection points: 2
#     Edge 14, Type (0, 1), BuildingBlock: XIVTED_clean_linker_0, # of connection points: 2
#     Edge 15, Type (0, 1), BuildingBlock: XIVTED_clean_linker_0, # of connection points: 2
#     Edge 16, Type (0, 1), BuildingBlock: XIVTED_clean_linker_0, # of connection points: 2
#     Edge 17, Type (0, 1), BuildingBlock: XIVTED_clean_linker_0, # of connection points: 2
#     Edge 18, Type (0, 1), BuildingBlock: XIVTED_clean_linker_0, # of connection points: 2
#     Edge 19, Type (0, 1), BuildingBlock: XIVTED_clean_linker_0, # of connection points: 2
#     Edge 20, Type (0, 1), BuildingBlock: XIVTED_clean_linker_0, # of connection points: 2
#     Edge 21, Type (0, 1), BuildingBlock: XIVTED_clean_linker_0, # of connection points: 2
#     Edge 22, Type (0, 1), BuildingBlock: XIVTED_clean_linker_0, # of connection points: 2
#     Edge 23, Type (0, 1), BuildingBlock: XIVTED_clean_linker_0, # of connection points: 2
#     Edge 24, Type (0, 1), BuildingBlock: XIVTED_clean_linker_0, # of connection points: 2
#     Edge 25, Type (0, 1), BuildingBlock: XIVTED_clean_linker_0, # of connection points: 2
#     Edge 26, Type (0, 1), BuildingBlock: XIVTED_clean_linker_0, # of connection points: 2
#     Edge 27, Type (0, 1), BuildingBlock: XIVTED_clean_linker_0, # of connection points: 2
#     Edge 28, Type (0, 1), BuildingBlock: XIVTED_clean_linker_0, # of connection points: 2
#     Edge 29, Type (0, 1), BuildingBlock: XIVTED_clean_linker_0, # of connection points: 2
#     Edge 30, Type (0, 1), BuildingBlock: XIVTED_clean_linker_0, # of connection points: 2
#     Edge 31, Type (0, 1), BuildingBlock: XIVTED_clean_linker_0, # of connection points: 2
#     Edge 32, Type (0, 1), BuildingBlock: XIVTED_clean_linker_0, # of connection points: 2
#     Edge 33, Type (0, 1), BuildingBlock: XIVTED_clean_linker_0, # of connection points: 2
#     Edge 34, Type (0, 1), BuildingBlock: XIVTED_clean_linker_0, # of connection points: 2
#     Edge 35, Type (0, 1), BuildingBlock: XIVTED_clean_linker_0, # of connection points: 2
# Relax obj value: 0.180
# Max RMSD: 0.177
# Mean RMSD: 0.123
data_MOF--net-zzz--node1-BETGAK_clean_sbu_0--node2-QEWDON_clean_linker_0--edge1-XIVTED_clean_linker_0
_symmetry_space_group_name_H-M    P1
_symmetry_Int_Tables_number       1
_symmetry_cell_setting            triclinic
loop_
_symmetry_equiv_pos_as_xyz
'x, y, z'
_cell_length_a     55.490068
_cell_length_b     55.513322
_cell_length_c     12.919369
_cell_angle_alpha  89.947069
_cell_angle_beta   90.024893
_cell_angle_gamma 89.946782
loop_
_atom_site_label
_atom_site_type_symbol
_atom_site_fract_x
_atom_site_fract_y
_atom_site_fract_z
_atom_type_partial_charge
H0 H 0.76202 0.5512 0.22 0.0
C1 C 0.77649 0.54687 0.27296 0.0
C2 C 0.79998 0.54866 0.23608 0.0
C3 C 0.77184 0.5396 0.37583 0.0
H4 H 0.83754 0.54516 0.2716 0.0
C5 C 0.81934 0.54401 0.3021 0.0
C6 C 0.81577 0.53649 0.40432 0.0
C7 C 0.79188 0.53447 0.44175 0.0
C8 C 0.74609 0.53751 0.41162 0.0
H9 H 0.78906 0.52809 0.51999 0.0
C10 C 0.72715 0.53306 0.34016 0.0
C11 C 0.70271 0.53411 0.37007 0.0
C12 C 0.73992 0.54141 0.51586 0.0
H13 H 0.75358 0.54527 0.57326 0.0
C14 C 0.71581 0.54126 0.54716 0.0
H15 H 0.73122 0.52877 0.26044 0.0
C16 C 0.69734 0.53792 0.47504 0.0
H17 H 0.67884 0.53902 0.50122 0.0
H18 H 0.71136 0.54449 0.62754 0.0
H19 H 0.06959 0.74629 0.2842 0.0
C20 C 0.06221 0.76099 0.32916 0.0
C21 C 0.0722 0.78396 0.3167 0.0
C22 C 0.043 0.75711 0.39886 0.0
H23 H 0.07032 0.82124 0.36243 0.0
C24 C 0.06317 0.80326 0.37466 0.0
C25 C 0.04388 0.80028 0.44248 0.0
C26 C 0.03371 0.77718 0.45484 0.0
C27 C 0.03323 0.7321 0.41401 0.0
H28 H 1.01847 0.77504 0.5063 0.0
C29 C 0.03315 0.71487 0.33267 0.0
C30 C 1.02594 0.69078 0.35041 0.0
C31 C 1.02516 0.72481 0.51237 0.0
H32 H 1.02536 0.73712 0.57729 0.0
C33 C 1.01743 0.70124 0.52959 0.0
H34 H 0.03904 0.72 0.25591 0.0
C35 C 1.01792 0.68434 0.44982 0.0
H36 H 1.01184 0.66618 0.46595 0.0
H37 H 1.01131 0.69594 0.60583 0.0
H38 H 0.80225 0.05313 0.26665 0.0
C39 C 0.78793 0.0454 0.31286 0.0
C40 C 0.76453 0.05431 0.30019 0.0
C41 C 0.7928 1.02716 0.38636 0.0
H42 H 0.72751 0.05172 0.34826 0.0
C43 C 0.74572 0.04507 0.3601 0.0
C44 C 0.74968 1.0268 0.43217 0.0
C45 C 0.77326 1.01777 0.44557 0.0
C46 C 0.81831 1.01889 0.40343 0.0
H47 H 0.77619 1.00337 0.50072 0.0
C48 C 0.83558 1.01879 0.32215 0.0
C49 C 0.86004 1.01305 0.34137 0.0
C50 C 0.82599 1.01237 0.50343 0.0
H51 H 0.81368 1.0127 0.56834 0.0
C52 C 0.84995 1.0061 0.52222 0.0
H53 H 0.83018 1.02354 0.24425 0.0
C54 C 0.86684 1.00654 0.44239 0.0
H55 H 0.88529 1.00159 0.45979 0.0
H56 H 0.85554 1.00117 0.59969 0.0
H57 H 0.49313 0.7988 0.29192 0.0
C58 C 0.50007 0.78409 0.33832 0.0
C59 C 0.48812 0.7619 0.33488 0.0
C60 C 0.52071 0.78726 0.40068 0.0
H61 H 0.48783 0.7253 0.39091 0.0
C62 C 0.49651 0.74278 0.39596 0.0
C63 C 0.51715 0.74501 0.45693 0.0
C64 C 0.52943 0.76726 0.45884 0.0
C65 C 0.53231 0.81165 0.40696 0.0
H66 H 0.54563 0.76888 0.50505 0.0
C67 C 0.5325 0.82767 0.32114 0.0
C68 C 0.54111 0.85161 0.33075 0.0
C69 C 0.54175 0.81975 0.50165 0.0
H70 H 0.54155 0.80833 0.56963 0.0
C71 C 0.55066 0.8431 0.51142 0.0
H72 H 0.52608 0.82148 0.24672 0.0
C73 C 0.55013 0.85895 0.42762 0.0
H74 H 0.55632 0.8772 0.44007 0.0
H75 H 0.55752 0.84918 0.58539 0.0
H76 H 0.30177 0.55708 0.22606 0.0
C77 C 0.28752 0.54929 0.17953 0.0
C78 C 0.26385 0.55715 0.19466 0.0
C79 C 0.29286 0.5323 0.10167 0.0
H80 H 0.22683 0.55362 0.14786 0.0
C81 C 0.24522 0.54768 0.13438 0.0
C82 C 0.24976 0.53062 0.05757 0.0
C83 C 0.27369 0.52302 0.04029 0.0
C84 C 0.31861 0.52587 0.08086 0.0
H85 H 0.27727 0.50984 0.98045 0.0
C86 C 0.33558 0.52348 0.16242 0.0
C87 C 0.36052 0.52043 0.14209 0.0
C88 C 0.32679 0.52413 0.97836 0.0
H89 H 0.31446 0.52623 0.91396 0.0
C90 C 0.35119 0.52085 0.9573 0.0
H91 H 0.3292 0.52396 0.2415 0.0
C92 C 0.36791 0.51939 0.03773 0.0
H93 H 0.38673 0.51798 0.01698 0.0
H94 H 0.3573 0.52007 0.8778 0.0
H95 H 0.99616 0.29387 0.18713 0.0
C96 C 1.00352 0.27897 0.14332 0.0
C97 C 0.9942 0.25592 0.16043 0.0
C98 C 1.02165 0.28274 0.06823 0.0
H99 H 0.99593 0.21849 0.11916 0.0
C100 C 1.00306 0.23636 0.10405 0.0
C101 C 1.02117 0.2392 0.03017 0.0
C102 C 0.03037 0.2625 0.01145 0.0
C103 C 0.0306 0.30783 0.04722 0.0
H104 H 0.04459 0.26464 0.95487 0.0
C105 C 0.03141 0.32568 0.12603 0.0
C106 C 0.03793 0.34975 0.1032 0.0
C107 C 0.0372 0.31452 0.94605 0.0
H108 H 0.03635 0.30176 0.88289 0.0
C109 C 0.04429 0.33806 0.92378 0.0
H110 H 1.0266 0.32106 0.20474 0.0
C111 C 0.04455 0.35554 0.00119 0.0
H112 H 0.05009 0.37365 0.98109 0.0
H113 H 0.04929 0.34288 0.84548 0.0
H114 H 0.26308 0.04521 0.20462 0.0
C115 C 0.27526 0.0427 0.14012 0.0
C116 C 0.29674 0.05598 0.13919 0.0
C117 C 0.2706 1.02493 0.06448 0.0
H118 H 0.33103 0.06083 0.06365 0.0
C119 C 0.31373 0.05175 0.06101 0.0
C120 C 0.31054 0.03339 0.98882 0.0
C121 C 0.2888 1.02025 0.98914 0.0
C122 C 0.24806 1.0098 0.07241 0.0
H123 H 0.28655 1.00622 0.93198 0.0
C124 C 0.22686 1.01849 0.12202 0.0
C125 C 0.20656 1.00347 0.13776 0.0
C126 C 0.24799 0.98587 0.03613 0.0
H127 H 0.26376 0.9779 1.00098 0.0
C128 C 0.22775 0.97126 0.0482 0.0
H129 H 0.22599 0.03695 0.14857 0.0
C130 C 0.20733 0.97983 0.09898 0.0
H131 H 0.19242 0.96757 0.11073 0.0
H132 H 0.22816 0.95287 0.02044 0.0
H133 H 0.51207 0.25382 0.2567 0.0
C134 C 0.51204 0.26742 0.19664 0.0
C135 C 0.50274 0.29007 0.22153 0.0
C136 C 0.52313 0.26304 0.10015 0.0
H137 H 0.49853 0.32679 0.17092 0.0
C138 C 0.50436 0.30881 0.1493 0.0
C139 C 0.51633 0.30575 0.05519 0.0
C140 C 0.52522 0.28266 0.02917 0.0
C141 C 0.53503 0.23893 0.08224 0.0
H142 H 0.53446 0.28047 0.9561 0.0
C143 C 0.52729 0.21796 0.13612 0.0
C144 C 0.54088 0.19638 0.13487 0.0
C145 C 0.55573 0.23708 0.01981 0.0
H146 H 0.56283 0.25247 0.97867 0.0
C147 C 0.56849 0.21545 0.01334 0.0
H148 H 0.5108 0.21841 0.1806 0.0
C149 C 0.56145 0.19544 0.07134 0.0
H150 H 0.5727 0.17953 0.06869 0.0
H151 H 0.58455 0.21447 0.96599 0.0
La152 La 0.04385 1.0161 0.79802 0.0
La153 La 1.01364 1.02659 0.62148 0.0
C154 C 0.06129 0.99677 0.95818 0.0
C155 C 0.06702 0.97139 0.98064 0.0
C156 C 0.08853 0.96519 0.03088 0.0
C157 C 0.09531 0.94096 0.04048 0.0
C158 C 0.08104 0.92246 0.99699 0.0
C159 C 0.05932 0.9291 0.94804 0.0
C160 C 0.05217 0.95307 0.94242 0.0
C161 C 0.06867 0.02829 0.63112 0.0
C162 C 1.02677 0.97306 0.64616 0.0
C163 C 0.99395 0.04623 0.46757 0.0
C164 C 0.98492 0.0711 0.45417 0.0
C165 C 0.95998 0.07562 0.45116 0.0
C166 C 0.95122 0.09927 0.45272 0.0
C167 C 0.96727 0.1188 0.4576 0.0
C168 C 0.99218 0.11422 0.45659 0.0
C169 C 1.00091 0.09069 0.4548 0.0
C170 C 0.98916 1.0143 0.78945 0.0
C171 C 0.03195 0.06989 0.76869 0.0
O172 O 0.07438 1.00662 0.88568 0.0
O173 O 0.03841 1.00195 0.947 0.0
O174 O 0.07385 0.03482 0.72477 0.0
O175 O 0.05026 1.01489 0.63346 0.0
O176 O 0.03474 0.97986 0.73832 0.0
O177 O 1.01972 0.98925 0.57769 0.0
O178 O 0.98225 0.03326 0.53521 0.0
O179 O 1.01731 0.04351 0.47681 0.0
O180 O 0.98402 1.00754 0.69634 0.0
O181 O 1.00734 1.02797 0.78593 0.0
O182 O 1.02349 0.06307 0.67726 0.0
O183 O 0.0388 0.05373 0.83756 0.0
H184 H 0.10022 0.97908 0.06156 0.0
H185 H 0.11173 0.93695 0.08214 0.0
H186 H 0.04778 0.91605 0.91096 0.0
H187 H 0.03524 0.95721 0.90494 0.0
H188 H 0.94725 0.06083 0.45043 0.0
H189 H 0.93193 0.10227 0.45224 0.0
H190 H 1.00505 0.12889 0.45699 0.0
H191 H 1.02024 0.08794 0.45667 0.0
La192 La 0.53525 0.03236 0.80726 0.0
La193 La 0.52384 1.0064 0.60155 0.0
C194 C 0.55474 0.04718 0.97057 0.0
C195 C 0.57942 0.05637 0.98711 0.0
C196 C 0.58313 0.08097 0.00719 0.0
C197 C 0.60645 0.09052 0.0086 0.0
C198 C 0.62647 0.07561 0.9901 0.0
C199 C 0.62272 0.05088 0.9734 0.0
C200 C 0.59949 0.04136 0.97179 0.0
C201 C 0.52413 0.06033 0.64794 0.0
C202 C 0.57834 1.01315 0.65583 0.0
C203 C 0.50682 1.00416 0.42279 0.0
C204 C 0.48457 1.01649 0.38837 0.0
C205 C 0.4631 1.00329 0.38018 0.0
C206 C 0.44089 1.01509 0.37948 0.0
C207 C 0.43969 0.04035 0.3865 0.0
C208 C 0.46118 0.05365 0.38524 0.0
C209 C 0.4834 0.04183 0.38566 0.0
C210 C 0.52735 0.97441 0.75464 0.0
C211 C 0.48224 1.02051 0.76138 0.0
O212 O 0.54113 0.06069 0.91173 0.0
O213 O 0.55259 1.0243 0.94756 0.0
O214 O 0.51797 0.06466 0.74281 0.0
O215 O 0.53648 0.04128 0.6465 0.0
O216 O 0.57133 1.0251 0.7403 0.0
O217 O 0.56281 1.00366 0.58908 0.0
O218 O 0.50345 0.98729 0.49224 0.0
O219 O 0.52511 1.01801 0.4467 0.0
O220 O 0.52387 0.96875 0.65825 0.0
O221 O 0.52928 0.99697 0.75771 0.0
O222 O 0.48912 1.01968 0.663 0.0
O223 O 0.49822 1.02156 0.83739 0.0
H224 H 0.56794 0.09294 0.01896 0.0
H225 H 0.60876 0.10962 0.02239 0.0
H226 H 0.63778 0.03874 0.96202 0.0
H227 H 0.59734 1.02233 0.95602 0.0
H228 H 0.46341 0.98377 0.38129 0.0
H229 H 0.42461 1.00436 0.3767 0.0
H230 H 0.46087 0.07313 0.38945 0.0
H231 H 0.49956 0.05259 0.39024 0.0
La232 La 0.51729 0.53157 0.85224 0.0
La233 La 0.54464 0.51962 0.66678 0.0
C234 C 0.50356 0.55268 0.01415 0.0
C235 C 0.496 0.57793 0.02849 0.0
C236 C 0.47484 0.58351 0.08241 0.0
C237 C 0.46618 0.60724 0.0846 0.0
C238 C 0.47809 0.62581 0.02971 0.0
C239 C 0.49948 0.61979 0.97683 0.0
C240 C 0.50858 0.59646 0.97874 0.0
C241 C 0.48961 0.51948 0.69429 0.0
C242 C 0.53349 0.57363 0.69019 0.0
C243 C 0.55947 0.49699 0.51202 0.0
C244 C 0.55708 0.47075 0.49753 0.0
C245 C 0.56725 0.45473 0.57015 0.0
C246 C 0.55894 0.43111 0.57771 0.0
C247 C 0.54033 0.42307 0.51295 0.0
C248 C 0.53179 0.43836 0.43417 0.0
C249 C 0.54015 0.46198 0.42634 0.0
C250 C 0.57155 0.53195 0.82706 0.0
C251 C 0.52679 0.47768 0.81983 0.0
O252 O 0.48926 0.53972 0.95619 0.0
O253 O 0.52625 0.54929 0.9904 0.0
O254 O 0.48505 0.51437 0.79024 0.0
O255 O 0.5086 0.53203 0.69003 0.0
O256 O 0.52478 0.5672 0.78183 0.0
O257 O 0.54133 0.55733 0.6239 0.0
O258 O 0.57366 0.5039 0.58714 0.0
O259 O 0.53903 0.50876 0.51301 0.0
O260 O 0.57586 0.53811 0.73213 0.0
O261 O 0.55305 0.51876 0.82906 0.0
O262 O 0.53134 0.48431 0.72334 0.0
O263 O 0.52395 0.49407 0.89272 0.0
H264 H 0.46486 0.56948 0.12194 0.0
H265 H 0.45021 0.61074 0.12992 0.0
H266 H 0.50938 0.63272 0.93135 0.0
H267 H 0.52526 0.59296 0.93827 0.0
H268 H 0.58032 0.46086 0.62654 0.0
H269 H 0.56596 0.41969 0.63873 0.0
H270 H 0.51798 0.43234 0.38089 0.0
H271 H 0.53207 0.47389 0.36958 0.0
La272 La 1.02777 0.50685 0.80779 0.0
La273 La 0.03947 0.53591 0.63374 0.0
C274 C 1.00476 0.48984 0.95747 0.0
C275 C 0.97823 0.49019 0.9661 0.0
C276 C 0.96389 0.47949 0.88862 0.0
C277 C 0.93982 0.48627 0.87622 0.0
C278 C 0.92979 0.50393 0.94055 0.0
C279 C 0.94341 0.51285 0.02394 0.0
C280 C 0.9674 0.50595 0.03689 0.0
C281 C 0.04075 0.48103 0.64491 0.0
C282 C 0.9862 0.52403 0.65499 0.0
C283 C 0.05896 0.55631 0.4815 0.0
C284 C 0.0806 0.57139 0.48072 0.0
C285 C 0.09117 0.57827 0.57499 0.0
C286 C 0.11353 0.58971 0.57622 0.0
C287 C 0.12558 0.59462 0.48309 0.0
C288 C 0.1142 0.58903 0.38856 0.0
C289 C 0.09188 0.57739 0.38747 0.0
C290 C 1.02734 0.5616 0.79935 0.0
C291 C 0.08186 0.51773 0.7866 0.0
O292 O 1.01368 0.47646 0.88369 0.0
O293 O 1.0149 0.51111 0.95963 0.0
O294 O 0.04696 0.47654 0.73958 0.0
O295 O 1.02733 0.49947 0.64337 0.0
O296 O 0.99242 0.52023 0.75227 0.0
O297 O 1.00318 0.52642 0.58449 0.0
O298 O 0.04067 0.56533 0.53177 0.0
O299 O 0.06271 0.53373 0.50577 0.0
O300 O 1.02111 0.56652 0.70552 0.0
O301 O 0.04048 0.54308 0.79787 0.0
O302 O 0.07561 0.52646 0.69482 0.0
O303 O 0.06524 0.51062 0.853 0.0
H304 H 0.97164 0.46728 0.8324 0.0
H305 H 0.92963 0.47897 0.81196 0.0
H306 H 0.93581 0.52599 0.07665 0.0
H307 H 0.97798 0.51441 0.09726 0.0
H308 H 0.08255 0.57392 0.64789 0.0
H309 H 0.12182 0.59387 0.65 0.0
H310 H 0.12322 0.59226 0.31553 0.0
H311 H 0.08393 0.5722 0.31418 0.0
H312 H 0.2057 0.03186 0.31284 0.0
H313 H 0.06657 1.00601 0.44077 0.0
H314 H 0.15835 0.99317 0.10659 0.0
H315 H 0.11278 0.05 0.63087 0.0
H316 H 0.0991 1.00288 0.31237 0.0
H317 H 0.17123 0.04079 0.42411 0.0
C318 C 0.18805 1.02553 0.28979 0.0
C319 C 0.18517 1.01153 0.20001 0.0
C320 C 0.10206 1.01339 0.38179 0.0
C321 C 0.14539 1.02135 0.32922 0.0
C322 C 0.08346 1.01521 0.45499 0.0
C323 C 0.08699 1.02816 0.54706 0.0
C324 C 0.12443 1.02451 0.40089 0.0
C325 C 0.10927 0.03972 0.56133 0.0
C326 C 0.16832 0.03049 0.35408 0.0
C327 C 0.1617 1.00361 0.1758 0.0
N328 N 0.12713 0.03747 0.48971 0.0
N329 N 0.14285 1.00844 0.24019 0.0
H330 H 0.52074 0.19744 0.33059 0.0
H331 H 0.54903 0.06021 0.46408 0.0
H332 H 0.54759 0.14741 0.10193 0.0
H333 H 0.49997 0.10328 0.64474 0.0
H334 H 0.5505 0.09233 0.33376 0.0
H335 H 0.5143 0.16381 0.44901 0.0
C336 C 0.52497 0.17944 0.30409 0.0
C337 C 0.53485 0.17557 0.20507 0.0
C338 C 0.53923 0.09468 0.40142 0.0
C339 C 0.52813 0.13676 0.34327 0.0
C340 C 0.53833 0.0763 0.47577 0.0
C341 C 0.52413 0.07893 0.56501 0.0
C342 C 0.52627 0.11614 0.41735 0.0
C343 C 0.51106 0.10043 0.57693 0.0
C344 C 0.52144 0.16019 0.37259 0.0
C345 C 0.54043 0.15161 0.17765 0.0
N346 N 0.51257 0.11824 0.50452 0.0
N347 N 0.53722 0.13326 0.24644 0.0
H348 H 0.35859 0.54004 0.34039 0.0
H349 H 0.49542 0.52449 0.48391 0.0
H350 H 0.40527 0.49785 0.14262 0.0
H351 H 0.44104 0.51338 0.71731 0.0
H352 H 0.46379 0.52351 0.35042 0.0
H353 H 0.38955 0.53863 0.47488 0.0
C354 C 0.37508 0.53031 0.32452 0.0
C355 C 0.37896 0.51916 0.22792 0.0
C356 C 0.45889 0.52122 0.43099 0.0
C357 C 0.41506 0.51858 0.38175 0.0
C358 C 0.47691 0.52174 0.50707 0.0
C359 C 0.47094 0.51871 0.61181 0.0
C360 C 0.43466 0.51849 0.46023 0.0
C361 C 0.4465 0.51558 0.63743 0.0
C362 C 0.39286 0.52975 0.40162 0.0
C363 C 0.40132 0.50742 0.21341 0.0
N364 N 0.42924 0.51584 0.56242 0.0
N365 N 0.41853 0.50773 0.28858 0.0
H366 H 1.02109 0.3961 0.08485 0.0
H367 H 0.06194 0.43672 0.65425 0.0
H368 H 0.05385 0.34781 0.30575 0.0
H369 H 1.02108 0.48244 0.44893 0.0
H370 H 0.06095 0.40476 0.52425 0.0
H371 H 1.02236 0.4283 0.21362 0.0
C372 C 0.02863 0.39224 0.16042 0.0
C373 C 0.03752 0.36912 0.18391 0.0
C374 C 0.05222 0.42176 0.50728 0.0
C375 C 0.03893 0.40617 0.33273 0.0
C376 C 0.05286 0.4401 0.58143 0.0
C377 C 0.04153 0.46232 0.56263 0.0
C378 C 0.04026 0.42559 0.41281 0.0
C379 C 0.03005 0.46562 0.46674 0.0
C380 C 0.02924 0.41068 0.23417 0.0
C381 C 0.04664 0.36522 0.28406 0.0
N382 N 0.0297 0.44746 0.39555 0.0
N383 N 0.04723 0.38355 0.35434 0.0
H384 H 0.85667 0.99725 0.13949 0.0
H385 H 0.99212 0.03445 0.98421 0.0
H386 H 0.90619 0.03096 0.35212 0.0
H387 H 0.94513 0.9926 0.78873 0.0
H388 H 0.9607 0.03464 0.11854 0.0
H389 H 0.88828 0.99736 0.00708 0.0
C390 C 0.8741 1.00484 0.15822 0.0
C391 C 0.8787 1.01398 0.25762 0.0
C392 C 0.9573 1.02535 0.04633 0.0
C393 C 0.91523 1.01401 0.10608 0.0
C394 C 0.97527 1.0252 0.9698 0.0
C395 C 0.97126 1.01352 0.87504 0.0
C396 C 0.93509 1.01386 0.02774 0.0
C397 C 0.94903 1.00186 0.8605 0.0
C398 C 0.89225 1.00474 0.08274 0.0
C399 C 0.90184 1.02337 0.27727 0.0
N400 N 0.93183 1.00242 0.93553 0.0
N401 N 0.91915 1.02315 0.20249 0.0
H402 H 0.57224 0.88916 0.28527 0.0
H403 H 0.50817 0.92959 0.7611 0.0
H404 H 0.50748 0.85489 0.17235 0.0
H405 H 0.55084 0.97861 0.94278 0.0
H406 H 0.51148 0.89953 0.89933 0.0
H407 H 0.56837 0.91949 0.14949 0.0
C408 C 0.5571 0.88794 0.23271 0.0
C409 C 0.54001 0.86928 0.24228 0.0
C410 C 0.52001 0.91691 0.90938 0.0
C411 C 0.53599 0.90398 0.08342 0.0
C412 C 0.51819 0.93407 0.83045 0.0
C413 C 0.52904 0.95678 0.84095 0.0
C414 C 0.53327 0.9222 0.99905 0.0
C415 C 0.54185 0.96156 0.93228 0.0
C416 C 0.55502 0.90532 0.15463 0.0
C417 C 0.52133 0.86856 0.16844 0.0
N418 N 0.54379 0.94436 0.00748 0.0
N419 N 0.51988 0.88556 0.09237 0.0
H420 H 0.6581 0.51206 0.38518 0.0
H421 H 0.61466 0.5553 0.82148 0.0
H422 H 0.70186 0.55359 0.17448 0.0
H423 H 0.57053 0.5116 0.02188 0.0
H424 H 0.6462 0.55557 0.95333 0.0
H425 H 0.62554 0.51211 0.25679 0.0
C426 C 0.66092 0.52119 0.31211 0.0
C427 C 0.68295 0.53277 0.29102 0.0
C428 C 0.62964 0.54595 0.96898 0.0
C429 C 0.64557 0.53286 0.14312 0.0
C430 C 0.61156 0.54584 0.89364 0.0
C431 C 0.58993 0.53336 0.91049 0.0
C432 C 0.6262 0.53348 0.06258 0.0
C433 C 0.58693 0.52146 0.00566 0.0
C434 C 0.6423 0.52114 0.23862 0.0
C435 C 0.68548 0.54407 0.19413 0.0
N436 N 0.60488 0.52175 0.078 0.0
N437 N 0.66709 0.54386 0.12436 0.0
H438 H 1.01258 0.69492 0.14544 0.0
H439 H 0.0458 0.55809 0.99687 0.0
H440 H 0.04153 0.64384 0.36458 0.0
H441 H 1.00753 0.60656 0.79402 0.0
H442 H 0.04599 0.58953 0.1309 0.0
H443 H 1.01282 0.66338 0.01279 0.0
C444 C 1.01915 0.67715 0.16559 0.0
C445 C 1.02692 0.6721 0.26681 0.0
C446 C 0.03749 0.59326 0.05713 0.0
C447 C 1.0271 0.63569 0.11498 0.0
C448 C 0.03736 0.57529 0.98073 0.0
C449 C 1.02666 0.5797 0.88407 0.0
C450 C 1.02699 0.61588 0.03652 0.0
C451 C 1.016 0.60235 0.86734 0.0
C452 C 1.01912 0.65906 0.08993 0.0
C453 C 0.03503 0.64856 0.28821 0.0
N454 N 1.01653 0.61956 0.94235 0.0
N455 N 0.03492 0.63131 0.21323 0.0
H456 H 1.00143 0.25754 0.36802 0.0
H457 H 0.93104 0.1387 0.34092 0.0
H458 H 0.94799 0.24052 0.13801 0.0
H459 H 0.98352 0.15649 0.57497 0.0
H460 H 0.92463 0.18156 0.30966 0.0
H461 H 0.98235 0.22911 0.48666 0.0
C462 C 0.98485 0.24877 0.34468 0.0
C463 C 0.97658 0.25072 0.24265 0.0
C464 C 0.93712 0.17616 0.36981 0.0
C465 C 0.95546 0.21738 0.37491 0.0
C466 C 0.94074 0.15163 0.38782 0.0
C467 C 0.95856 0.14406 0.45762 0.0
C468 C 0.95176 0.19313 0.42059 0.0
C469 C 0.97035 0.16161 0.51715 0.0
C470 C 0.97411 0.23225 0.41184 0.0
C471 C 0.9551 0.23903 0.21583 0.0
N472 N 0.96721 0.18533 0.4954 0.0
N473 N 0.94572 0.22217 0.28029 0.0
H474 H 0.31784 0.10069 0.15138 0.0
H475 H 0.40158 1.02656 0.50611 0.0
H476 H 0.29626 0.04029 0.33902 0.0
H477 H 0.42409 0.08213 0.29364 0.0
H478 H 0.36095 0.04324 0.50467 0.0
H479 H 0.35189 0.10746 0.26722 0.0
C480 C 0.3195 0.08967 0.22029 0.0
C481 C 0.30518 0.06901 0.23233 0.0
C482 C 0.37486 0.05214 0.45999 0.0
C483 C 0.34421 0.07614 0.36267 0.0
C484 C 0.39802 0.04248 0.46004 0.0
C485 C 0.41605 0.05252 0.39735 0.0
C486 C 0.36947 0.07159 0.39436 0.0
C487 C 0.41063 0.07354 0.34171 0.0
C488 C 0.33915 0.09333 0.28576 0.0
C489 C 0.30754 0.05582 0.32435 0.0
N490 N 0.38767 0.08203 0.33947 0.0
N491 N 0.32742 0.05895 0.38396 0.0
H492 H 0.53023 0.28131 0.39201 0.0
H493 H 0.49245 0.41171 0.50947 0.0
H494 H 0.46353 0.3145 0.29748 0.0
H495 H 0.56263 0.38023 0.55911 0.0
H496 H 0.47486 0.37143 0.50896 0.0
H497 H 0.53307 0.30975 0.53447 0.0
C498 C 0.51547 0.29377 0.40438 0.0
C499 C 0.49725 0.2965 0.32998 0.0
C500 C 0.49404 0.37334 0.52224 0.0
C501 C 0.50099 0.32962 0.48933 0.0
C502 C 0.50414 0.39629 0.52077 0.0
C503 C 0.52918 0.39917 0.52919 0.0
C504 C 0.50917 0.35314 0.52983 0.0
C505 C 0.54331 0.37877 0.54943 0.0
C506 C 0.51726 0.31025 0.48529 0.0
C507 C 0.47842 0.31259 0.35109 0.0
N508 N 0.53318 0.35654 0.54645 0.0
N509 N 0.48123 0.32928 0.42669 0.0
H510 H 0.26201 0.5501 0.40257 0.0
H511 H 0.1479 0.6286 0.36214 0.0
H512 H 0.24921 0.60326 0.16614 0.0
H513 H 0.16177 0.57689 0.60443 0.0
H514 H 0.19117 0.63125 0.32986 0.0
H515 H 0.23396 0.57133 0.5164 0.0
C516 C 0.25419 0.56696 0.37679 0.0
C517 C 0.25739 0.5748 0.27477 0.0
C518 C 0.18486 0.61982 0.39212 0.0
C519 C 0.22456 0.59845 0.40147 0.0
C520 C 0.16013 0.61827 0.41023 0.0
C521 C 0.15124 0.60194 0.48367 0.0
C522 C 0.20066 0.60443 0.44597 0.0
C523 C 0.16784 0.58945 0.54581 0.0
C524 C 0.23795 0.57897 0.44119 0.0
C525 C 0.24682 0.59659 0.24425 0.0
N526 N 0.19172 0.59043 0.52358 0.0
N527 N 0.23028 0.60731 0.30625 0.0
H528 H 0.06431 0.77661 0.1124 0.0
H529 H 0.12667 0.90219 0.02551 0.0
H530 H 0.1164 0.80595 0.32474 0.0
H531 H 0.05171 0.8821 0.98726 0.0
H532 H 0.136 0.85996 0.06229 0.0
H533 H 0.07673 0.8062 0.98339 0.0
C534 C 0.07943 0.78828 0.12969 0.0
C535 C 0.08864 0.78969 0.23043 0.0
C536 C 0.11773 0.86502 0.04206 0.0
C537 C 0.10236 0.82373 0.08523 0.0
C538 C 0.11215 0.88923 0.02328 0.0
C539 C 0.0881 0.89644 0.00525 0.0
C540 C 0.09935 0.84778 0.03913 0.0
C541 C 0.07055 0.87817 0.99905 0.0
C542 C 0.08635 0.80534 0.05632 0.0
C543 C 0.10835 0.80497 0.24849 0.0
N544 N 0.07654 0.8549 0.01649 0.0
N545 N 0.11397 0.82219 0.1778 0.0
H546 H 0.74804 0.10012 0.32291 0.0
H547 H 0.66478 0.06464 0.86408 0.0
H548 H 0.76463 0.04657 0.09299 0.0
H549 H 0.6451 0.10843 0.12671 0.0
H550 H 0.70725 0.07217 0.90196 0.0
H551 H 0.71884 0.1182 0.20458 0.0
C552 C 0.74642 0.09298 0.24518 0.0
C553 C 0.75817 0.07155 0.21801 0.0
C554 C 0.69363 0.08068 0.94957 0.0
C555 C 0.72413 0.09123 0.08487 0.0
C556 C 0.66938 0.07623 0.92856 0.0
C557 C 0.65142 0.08513 0.99495 0.0
C558 C 0.6999 0.09392 0.0381 0.0
C559 C 0.65834 0.1008 0.07466 0.0
C560 C 0.72954 0.10309 0.17803 0.0
C561 C 0.75556 0.06292 0.1169 0.0
N562 N 0.68206 0.10422 0.09555 0.0
N563 N 0.73814 0.07229 0.05489 0.0
H564 H 0.4918 0.77042 0.12832 0.0
H565 H 0.43212 0.64361 0.07671 0.0
H566 H 0.44398 0.73993 0.35592 0.0
H567 H 0.50322 0.668 0.98467 0.0
H568 H 0.42122 0.68545 0.11038 0.0
H569 H 0.47645 0.74196 0.00109 0.0
C570 C 0.47706 0.75867 0.15016 0.0
C571 C 0.47006 0.75649 0.25395 0.0
C572 C 0.43888 0.68135 0.07926 0.0
C573 C 0.45318 0.72357 0.11046 0.0
C574 C 0.44549 0.65734 0.06223 0.0
C575 C 0.46919 0.65141 0.03164 0.0
C576 C 0.45577 0.69966 0.06236 0.0
C577 C 0.48481 0.67071 0.00848 0.0
C578 C 0.46843 0.74226 0.07754 0.0
C579 C 0.45058 0.74131 0.27727 0.0
N580 N 0.47788 0.69372 0.02536 0.0
N581 N 0.44346 0.72457 0.20707 0.0
H582 H 0.82241 0.5858 0.13715 0.0
H583 H 0.88799 0.47996 0.89181 0.0
H584 H 0.79081 0.51606 0.08584 0.0
H585 H 0.91706 0.55126 0.93437 0.0
H586 H 0.84735 0.49708 0.89102 0.0
H587 H 0.84897 0.57931 0.98956 0.0
C588 C 0.82026 0.56962 0.09119 0.0
C589 C 0.80511 0.55108 0.12493 0.0
C590 C 0.86263 0.5091 0.89802 0.0
C591 C 0.83641 0.54274 0.9617 0.0
C592 C 0.88582 0.49928 0.89896 0.0
C593 C 0.9057 0.51412 0.91877 0.0
C594 C 0.85948 0.5338 0.91859 0.0
C595 C 0.90201 0.53907 0.9245 0.0
C596 C 0.83562 0.56572 0.00758 0.0
C597 C 0.80277 0.53053 0.063 0.0
N598 N 0.87933 0.54807 0.92686 0.0
N599 N 0.81903 0.52641 0.98656 0.0
H600 H 1.02011 0.22879 0.82169 0.0
H601 H 1.01978 0.10894 0.64772 0.0
H602 H 0.0401 0.1987 0.11674 0.0
H603 H 0.04699 0.09086 0.95046 0.0
H604 H 1.02079 0.1514 0.69397 0.0
H605 H 1.02498 0.18899 0.74286 0.0
C606 C 1.02612 0.21387 0.86924 0.0
C607 C 0.02975 0.21708 0.97579 0.0
C608 C 1.0268 0.13839 0.75055 0.0
C609 C 0.03447 0.17089 0.88752 0.0
C610 C 1.02609 0.1139 0.7239 0.0
C611 C 0.03317 0.09609 0.79511 0.0
C612 C 0.03471 0.14532 0.84981 0.0
C613 C 0.04125 0.10379 0.89273 0.0
C614 C 0.02852 0.19088 0.82465 0.0
C615 C 0.03714 0.19703 0.0342 0.0
N616 N 0.04167 0.12767 0.91706 0.0
N617 N 0.03903 0.17491 0.98969 0.0
H618 H 0.3404 0.99577 0.02913 0.0
H619 H 0.4452 0.03855 0.64334 0.0
H620 H 0.3315 0.05607 0.82293 0.0
H621 H 0.4593 1.00322 0.93455 0.0
H622 H 0.40202 0.03937 0.68632 0.0
H623 H 0.38214 0.99118 0.96862 0.0
C624 C 0.34695 1.00741 0.96793 0.0
C625 C 0.33228 1.02595 0.92913 0.0
C626 C 0.41457 0.03119 0.73996 0.0
C627 C 0.38028 1.0213 0.86167 0.0
C628 C 0.43922 0.03077 0.71586 0.0
C629 C 0.45597 1.02091 0.7858 0.0
C630 C 0.4064 1.0209 0.8329 0.0
C631 C 0.4471 1.01118 0.87874 0.0
C632 C 0.37089 1.00507 0.93482 0.0
C633 C 0.34202 0.04119 0.85296 0.0
N634 N 0.42296 1.01123 0.89913 0.0
N635 N 0.36538 0.03855 0.82178 0.0
H636 H 0.54937 0.33889 0.11135 0.0
H637 H 0.51118 0.44002 0.69903 0.0
H638 H 0.49636 0.32466 0.8759 0.0
H639 H 0.5403 0.4557 1.00074 0.0
H640 H 0.51073 0.39683 0.74407 0.0
H641 H 0.55281 0.38037 0.04898 0.0
C642 C 0.53901 0.34434 0.04416 0.0
C643 C 0.52282 0.32817 0.99781 0.0
C644 C 0.51735 0.40975 0.79983 0.0
C645 C 0.52616 0.37607 0.92735 0.0
C646 C 0.51761 0.43437 0.77441 0.0
C647 C 0.52581 0.45153 0.84625 0.0
C648 C 0.52593 0.40212 0.89677 0.0
C649 C 0.5337 0.44318 0.94314 0.0
C650 C 0.54071 0.36814 0.00954 0.0
C651 C 0.50936 0.3364 0.91263 0.0
N652 N 0.53376 0.41915 0.96509 0.0
N653 N 0.51125 0.35981 0.88028 0.0
H654 H 0.21569 0.49927 0.12462 0.0
H655 H 0.12103 0.53596 0.68129 0.0
H656 H 0.23458 0.54347 0.86319 0.0
H657 H 0.10225 0.4972 0.95946 0.0
H658 H 0.16342 0.53507 0.7345 0.0
H659 H 0.17543 0.49347 0.0511 0.0
C660 C 0.21157 0.50705 0.04972 0.0
C661 C 0.22863 0.52144 0.99882 0.0
C662 C 0.15005 0.52663 0.78358 0.0
C663 C 0.18212 0.5158 0.91579 0.0
C664 C 0.12577 0.52713 0.75329 0.0
C665 C 0.10787 0.51672 0.81613 0.0
C666 C 0.15664 0.51551 0.87729 0.0
C667 C 0.11528 0.50558 0.90859 0.0
C668 C 0.18846 0.50404 0.00837 0.0
C669 C 0.22211 0.53179 0.90363 0.0
N670 N 0.13898 0.50532 0.93624 0.0
N671 N 0.19932 0.52896 0.86564 0.0
H672 H 0.05825 0.81982 0.62585 0.0
H673 H 1.00059 0.94942 0.49543 0.0
H674 H 1.01072 0.83212 0.36789 0.0
H675 H 0.05331 0.937 0.73427 0.0
H676 H 1.00065 0.90603 0.45723 0.0
H677 H 0.05201 0.86162 0.6815 0.0
C678 C 0.04577 0.83111 0.58326 0.0
C679 C 0.03449 0.82234 0.49377 0.0
C680 C 1.01203 0.91277 0.51881 0.0
C681 C 1.0281 0.87065 0.55374 0.0
C682 C 1.01208 0.93758 0.54031 0.0
C683 C 1.02665 0.94688 0.61976 0.0
C684 C 1.02673 0.89707 0.57686 0.0
C685 C 0.04121 0.93061 0.67493 0.0
C686 C 0.04249 0.85511 0.61392 0.0
C687 C 1.01925 0.83803 0.43886 0.0
N688 N 0.04089 0.90664 0.6526 0.0
N689 N 1.01664 0.86143 0.46913 0.0
H690 H 0.73239 0.04128 0.62007 0.0
H691 H 0.60104 0.98741 0.50168 0.0
H692 H 0.71692 0.99388 0.36528 0.0
H693 H 0.61613 0.03515 0.7568 0.0
H694 H 0.64409 0.98633 0.46128 0.0
H695 H 0.69117 0.03527 0.68473 0.0
C696 C 0.72057 0.02886 0.58009 0.0
C697 C 0.72824 1.01758 0.48868 0.0
C698 C 0.63804 0.9969 0.52669 0.0
C699 C 0.68065 1.01141 0.5592 0.0
C700 C 0.61336 0.99758 0.54978 0.0
C701 C 0.60473 1.01142 0.63302 0.0
C702 C 0.65443 1.01023 0.5868 0.0
C703 C 0.62179 1.02412 0.69235 0.0
C704 C 0.69691 1.02569 0.61602 0.0
C705 C 0.71189 1.00243 0.43742 0.0
N706 N 0.64569 1.02333 0.66784 0.0
N707 N 0.68887 0.99996 0.47273 0.0
H708 H 0.55548 0.71569 0.41055 0.0
H709 H 0.50335 0.60844 0.76277 0.0
H710 H 0.49598 0.72315 0.62173 0.0
H711 H 0.56203 0.59817 0.54927 0.0
H712 H 0.50308 0.65133 0.722 0.0
H713 H 0.56148 0.67407 0.47196 0.0
C714 C 0.54426 0.70884 0.47254 0.0
C715 C 0.52551 0.72304 0.51268 0.0
C716 C 0.51619 0.63985 0.68429 0.0
C717 C 0.53163 0.67518 0.58064 0.0
C718 C 0.51649 0.6153 0.70849 0.0
C719 C 0.53307 0.59967 0.66137 0.0
C720 C 0.53247 0.64911 0.61109 0.0
C721 C 0.54896 0.60952 0.58787 0.0
C722 C 0.54744 0.68497 0.50649 0.0
C723 C 0.51092 0.71297 0.59018 0.0
N724 N 0.54829 0.63358 0.56504 0.0
N725 N 0.51418 0.68973 0.62099 0.0
H726 H 0.83187 0.55378 0.5938 0.0
H727 H 0.96619 0.51188 0.46882 0.0
H728 H 0.8504 0.50439 0.3493 0.0
H729 H 0.94714 0.53725 0.77309 0.0
H730 H 0.92348 0.51169 0.42182 0.0
H731 H 0.87302 0.54915 0.66459 0.0
C732 C 0.84433 0.54151 0.55666 0.0
C733 C 0.83771 0.5296 0.465 0.0
C734 C 0.92855 0.5172 0.4992 0.0
C735 C 0.88493 0.52495 0.54278 0.0
C736 C 0.953 0.51749 0.52574 0.0
C737 C 0.96026 0.52448 0.6252 0.0
C738 C 0.91106 0.52441 0.57181 0.0
C739 C 0.94228 0.53149 0.69587 0.0
C740 C 0.86789 0.53908 0.59632 0.0
C741 C 0.85475 0.51412 0.41948 0.0
N742 N 0.91854 0.53146 0.66771 0.0
N743 N 0.87754 0.51258 0.45757 0.0
loop_
_geom_bond_atom_site_label_1
_geom_bond_atom_site_label_2
_geom_bond_distance
_geom_bond_site_symmetry_2
_ccdc_geom_bond_type
H0 C1 0.949 . S
C1 H0 0.949 . S
C1 C2 1.395 . S
C1 C3 1.391 . S
C2 C1 1.395 . S
C2 C5 1.390 . S
C3 C1 1.391 . S
C3 C7 1.387 . S
C3 C8 1.491 . S
H4 C5 0.950 . S
C5 C2 1.390 . S
C5 H4 0.950 . S
C5 C6 1.378 . S
C6 C5 1.378 . S
C6 C7 1.409 . S
C7 C3 1.387 . S
C7 C6 1.409 . S
C7 H9 0.951 . S
C8 C3 1.491 . S
C8 C10 1.382 . S
C8 C12 1.404 . S
H9 C7 0.951 . S
C10 C8 1.382 . S
C10 C11 1.390 . S
C10 H15 0.949 . S
C11 C10 1.390 . S
C11 C16 1.399 . S
C12 C8 1.404 . S
C12 H13 0.950 . S
C12 C14 1.375 . S
H13 C12 0.950 . S
C14 C12 1.375 . S
C14 C16 1.382 . S
C14 H18 0.950 . S
H15 C10 0.949 . S
C16 C11 1.399 . S
C16 C14 1.382 . S
C16 H17 0.952 . S
H17 C16 0.952 . S
H18 C14 0.950 . S
H19 C20 0.949 . S
C20 H19 0.949 . S
C20 C21 1.395 . S
C20 C22 1.391 . S
C21 C20 1.395 . S
C21 C24 1.390 1_655 S
C22 C20 1.391 . S
C22 C26 1.387 . S
C22 C27 1.491 . S
H23 C24 0.950 . S
C24 C21 1.390 1_455 S
C24 H23 0.950 . S
C24 C25 1.377 1_455 S
C25 C24 1.377 1_655 S
C25 C26 1.413 . S
C26 C22 1.387 . S
C26 C25 1.413 . S
C26 H28 0.951 . S
C27 C22 1.491 . S
C27 C29 1.382 . S
C27 C31 1.404 . S
H28 C26 0.951 . S
C29 C27 1.382 . S
C29 C30 1.390 . S
C29 H34 0.949 1_655 S
C30 C29 1.390 . S
C30 C35 1.399 . S
C31 C27 1.404 . S
C31 H32 0.950 . S
C31 C33 1.375 . S
H32 C31 0.950 . S
C33 C31 1.375 . S
C33 C35 1.382 . S
C33 H37 0.950 . S
H34 C29 0.949 1_455 S
C35 C30 1.399 . S
C35 C33 1.382 . S
C35 H36 0.952 . S
H36 C35 0.952 . S
H37 C33 0.950 . S
H38 C39 0.949 . S
C39 H38 0.949 . S
C39 C40 1.395 . S
C39 C41 1.391 . S
C40 C39 1.395 . S
C40 C43 1.390 1_565 S
C41 C39 1.391 . S
C41 C45 1.387 . S
C41 C46 1.491 . S
H42 C43 0.950 . S
C43 C40 1.390 1_545 S
C43 H42 0.950 . S
C43 C44 1.377 1_545 S
C44 C43 1.377 1_565 S
C44 C45 1.413 . S
C45 C41 1.387 . S
C45 C44 1.413 . S
C45 H47 0.951 . S
C46 C41 1.491 . S
C46 C48 1.382 . S
C46 C50 1.404 . S
H47 C45 0.951 . S
C48 C46 1.382 . S
C48 C49 1.390 . S
C48 H53 0.949 1_565 S
C49 C48 1.390 . S
C49 C54 1.399 . S
C50 C46 1.404 . S
C50 H51 0.950 . S
C50 C52 1.375 . S
H51 C50 0.950 . S
C52 C50 1.375 . S
C52 C54 1.382 . S
C52 H56 0.950 . S
H53 C48 0.949 1_545 S
C54 C49 1.399 . S
C54 C52 1.382 . S
C54 H55 0.952 . S
H55 C54 0.952 . S
H56 C52 0.950 . S
H57 C58 0.949 . S
C58 H57 0.949 . S
C58 C59 1.395 . S
C58 C60 1.391 . S
C59 C58 1.395 . S
C59 C62 1.390 . S
C60 C58 1.391 . S
C60 C64 1.387 . S
C60 C65 1.491 . S
H61 C62 0.950 . S
C62 C59 1.390 . S
C62 H61 0.950 . S
C62 C63 1.378 . S
C63 C62 1.378 . S
C63 C64 1.409 . S
C64 C60 1.387 . S
C64 C63 1.409 . S
C64 H66 0.951 . S
C65 C60 1.491 . S
C65 C67 1.382 . S
C65 C69 1.404 . S
H66 C64 0.951 . S
C67 C65 1.382 . S
C67 C68 1.390 . S
C67 H72 0.949 . S
C68 C67 1.390 . S
C68 C73 1.399 . S
C69 C65 1.404 . S
C69 H70 0.950 . S
C69 C71 1.375 . S
H70 C69 0.950 . S
C71 C69 1.375 . S
C71 C73 1.382 . S
C71 H75 0.950 . S
H72 C67 0.949 . S
C73 C68 1.399 . S
C73 C71 1.382 . S
C73 H74 0.952 . S
H74 C73 0.952 . S
H75 C71 0.950 . S
H76 C77 0.949 . S
C77 H76 0.949 . S
C77 C78 1.395 . S
C77 C79 1.391 1_554 S
C78 C77 1.395 . S
C78 C81 1.390 1_554 S
C79 C77 1.391 1_556 S
C79 C83 1.387 . S
C79 C84 1.491 . S
H80 C81 0.950 . S
C81 C78 1.390 1_556 S
C81 H80 0.950 . S
C81 C82 1.378 . S
C82 C81 1.378 . S
C82 C83 1.409 . S
C83 C79 1.387 . S
C83 C82 1.409 . S
C83 H85 0.951 . S
C84 C79 1.491 . S
C84 C86 1.382 1_556 S
C84 C88 1.404 . S
H85 C83 0.951 . S
C86 C84 1.382 1_554 S
C86 C87 1.390 . S
C86 H91 0.949 . S
C87 C86 1.390 . S
C87 C92 1.399 1_554 S
C88 C84 1.404 . S
C88 H89 0.950 . S
C88 C90 1.375 . S
H89 C88 0.950 . S
C90 C88 1.375 . S
C90 C92 1.382 . S
C90 H94 0.950 . S
H91 C86 0.949 . S
C92 C87 1.399 1_556 S
C92 C90 1.382 . S
C92 H93 0.952 . S
H93 C92 0.952 . S
H94 C90 0.950 . S
H95 C96 0.949 . S
C96 H95 0.949 . S
C96 C97 1.395 1_655 S
C96 C98 1.391 1_554 S
C97 C96 1.395 1_455 S
C97 C100 1.390 1_554 S
C98 C96 1.391 1_556 S
C98 C102 1.387 . S
C98 C103 1.491 . S
H99 C100 0.950 . S
C100 C97 1.390 1_556 S
C100 H99 0.950 . S
C100 C101 1.377 1_455 S
C101 C100 1.377 1_655 S
C101 C102 1.411 . S
C102 C98 1.387 . S
C102 C101 1.411 . S
C102 H104 0.951 . S
C103 C98 1.491 . S
C103 C105 1.402 1_556 S
C103 C107 1.404 . S
H104 C102 0.951 . S
C105 C103 1.402 1_554 S
C105 C106 1.400 . S
C105 H110 0.920 1_655 S
C106 C105 1.400 . S
C106 C111 1.399 1_554 S
C107 C103 1.404 . S
C107 H108 0.950 . S
C107 C109 1.375 . S
H108 C107 0.950 . S
C109 C107 1.375 . S
C109 C111 1.382 . S
C109 H113 0.950 . S
H110 C105 0.920 1_455 S
C111 C106 1.399 1_556 S
C111 C109 1.382 . S
C111 H112 0.952 . S
H112 C111 0.952 . S
H113 C109 0.950 . S
H114 C115 0.949 . S
C115 H114 0.949 . S
C115 C116 1.395 1_565 S
C115 C117 1.391 1_554 S
C116 C115 1.395 1_545 S
C116 C119 1.390 1_554 S
C117 C115 1.391 1_556 S
C117 C121 1.387 . S
C117 C122 1.491 . S
H118 C119 0.950 . S
C119 C116 1.390 1_556 S
C119 H118 0.950 . S
C119 C120 1.377 1_545 S
C120 C119 1.377 1_565 S
C120 C121 1.411 . S
C121 C117 1.387 . S
C121 C120 1.411 . S
C121 H123 0.951 . S
C122 C117 1.491 . S
C122 C124 1.402 1_556 S
C122 C126 1.404 . S
H123 C121 0.951 . S
C124 C122 1.402 1_554 S
C124 C125 1.400 . S
C124 H129 0.920 1_565 S
C125 C124 1.400 . S
C125 C130 1.399 1_554 S
C126 C122 1.404 . S
C126 H127 0.950 . S
C126 C128 1.375 . S
H127 C126 0.950 . S
C128 C126 1.375 . S
C128 C130 1.382 . S
C128 H132 0.950 . S
H129 C124 0.920 1_545 S
C130 C125 1.399 1_556 S
C130 C128 1.382 . S
C130 H131 0.952 . S
H131 C130 0.952 . S
H132 C128 0.950 . S
H133 C134 0.949 . S
C134 H133 0.949 . S
C134 C135 1.395 . S
C134 C136 1.391 1_554 S
C135 C134 1.395 . S
C135 C138 1.390 1_554 S
C136 C134 1.391 1_556 S
C136 C140 1.387 . S
C136 C141 1.491 . S
H137 C138 0.950 . S
C138 C135 1.390 1_556 S
C138 H137 0.950 . S
C138 C139 1.378 . S
C139 C138 1.378 . S
C139 C140 1.409 . S
C140 C136 1.387 . S
C140 C139 1.409 . S
C140 H142 0.951 . S
C141 C136 1.491 . S
C141 C143 1.382 1_556 S
C141 C145 1.404 . S
H142 C140 0.951 . S
C143 C141 1.382 1_554 S
C143 C144 1.390 . S
C143 H148 0.949 . S
C144 C143 1.390 . S
C144 C149 1.399 1_554 S
C145 C141 1.404 . S
C145 H146 0.950 . S
C145 C147 1.375 . S
H146 C145 0.950 . S
C147 C145 1.375 . S
C147 C149 1.382 . S
C147 H151 0.950 . S
H148 C143 0.949 . S
C149 C144 1.399 1_556 S
C149 C147 1.382 . S
C149 H150 0.952 . S
H150 C149 0.952 . S
H151 C147 0.950 . S
La152 C154 2.928 . S
La152 O172 2.521 . S
La152 O173 2.628 1_455 S
La152 O174 2.554 . S
La152 O175 2.757 1_565 S
La152 O176 2.470 . S
La152 O181 2.482 1_455 S
La152 O183 2.503 1_565 S
La153 C163 2.928 . S
La153 O175 2.482 1_655 S
La153 O177 2.503 1_545 S
La153 O178 2.521 . S
La153 O179 2.623 1_655 S
La153 O180 2.554 . S
La153 O181 2.757 1_545 S
La153 O182 2.470 . S
C154 La152 2.928 . S
C154 C155 1.503 1_556 S
C154 O172 1.261 . S
C154 O173 1.243 1_455 S
C155 C154 1.503 1_554 S
C155 C156 1.394 . S
C155 C160 1.373 . S
C156 C155 1.394 . S
C156 C157 1.380 . S
C156 H184 0.930 . S
C157 C156 1.380 . S
C157 C158 1.376 . S
C157 H185 0.930 . S
C158 C157 1.376 . S
C158 C159 1.370 . S
C159 C158 1.370 . S
C159 C160 1.396 . S
C159 H186 0.929 1_455 S
C160 C155 1.373 . S
C160 C159 1.396 . S
C160 H187 0.929 1_455 S
C161 O174 1.267 . S
C161 O175 1.273 1_565 S
C162 O176 1.258 1_655 S
C162 O177 1.256 . S
C163 La153 2.928 . S
C163 C164 1.503 . S
C163 O178 1.261 . S
C163 O179 1.232 1_655 S
C164 C163 1.503 . S
C164 C165 1.394 . S
C164 C169 1.373 . S
C165 C164 1.394 . S
C165 C166 1.380 . S
C165 H188 0.930 . S
C166 C165 1.380 . S
C166 C167 1.376 . S
C166 H189 0.930 . S
C167 C166 1.376 . S
C167 C168 1.370 . S
C168 C167 1.370 . S
C168 C169 1.396 . S
C168 H190 0.929 1_655 S
C169 C164 1.373 . S
C169 C168 1.396 . S
C169 H191 0.929 1_655 S
C170 O180 1.240 . S
C170 O181 1.289 1_545 S
C171 O182 1.258 1_455 S
C171 O183 1.256 . S
O172 La152 2.521 . S
O172 C154 1.261 . S
O173 La152 2.628 1_655 S
O173 C154 1.243 1_655 S
O174 La152 2.554 . S
O174 C161 1.267 . S
O175 La152 2.757 1_545 S
O175 La153 2.482 1_455 S
O175 C161 1.273 1_545 S
O176 La152 2.470 . S
O176 C162 1.258 1_455 S
O177 La153 2.503 1_565 S
O177 C162 1.256 . S
O178 La153 2.521 . S
O178 C163 1.261 . S
O179 La153 2.623 1_455 S
O179 C163 1.232 1_455 S
O180 La153 2.554 . S
O180 C170 1.240 . S
O181 La152 2.482 1_655 S
O181 La153 2.757 1_565 S
O181 C170 1.289 1_565 S
O182 La153 2.470 . S
O182 C171 1.258 1_655 S
O183 La152 2.503 1_545 S
O183 C171 1.256 . S
H184 C156 0.930 . S
H185 C157 0.930 . S
H186 C159 0.929 1_655 S
H187 C160 0.929 1_655 S
H188 C165 0.930 . S
H189 C166 0.930 . S
H190 C168 0.929 1_455 S
H191 C169 0.929 1_455 S
La192 C194 2.928 . S
La192 O212 2.521 . S
La192 O213 2.626 1_545 S
La192 O214 2.554 . S
La192 O215 2.757 . S
La192 O216 2.470 . S
La192 O221 2.482 1_545 S
La192 O223 2.503 . S
La193 C203 2.928 . S
La193 O215 2.482 1_565 S
La193 O217 2.503 . S
La193 O218 2.521 . S
La193 O219 2.622 1_565 S
La193 O220 2.554 . S
La193 O221 2.757 . S
La193 O222 2.470 . S
C194 La192 2.928 . S
C194 C195 1.503 1_556 S
C194 O212 1.261 . S
C194 O213 1.239 1_545 S
C195 C194 1.503 1_554 S
C195 C196 1.394 . S
C195 C200 1.373 . S
C196 C195 1.394 . S
C196 C197 1.380 . S
C196 H224 0.930 . S
C197 C196 1.380 . S
C197 C198 1.376 . S
C197 H225 0.930 . S
C198 C197 1.376 . S
C198 C199 1.370 . S
C199 C198 1.370 . S
C199 C200 1.396 . S
C199 H226 0.929 1_545 S
C200 C195 1.373 . S
C200 C199 1.396 . S
C200 H227 0.929 1_545 S
C201 O214 1.240 . S
C201 O215 1.289 . S
C202 O216 1.258 1_565 S
C202 O217 1.256 . S
C203 La193 2.928 . S
C203 C204 1.503 . S
C203 O218 1.261 . S
C203 O219 1.228 1_565 S
C204 C203 1.503 . S
C204 C205 1.394 . S
C204 C209 1.373 . S
C205 C204 1.394 . S
C205 C206 1.380 . S
C205 H228 0.930 . S
C206 C205 1.380 . S
C206 C207 1.376 . S
C206 H229 0.930 . S
C207 C206 1.376 . S
C207 C208 1.370 . S
C208 C207 1.370 . S
C208 C209 1.396 . S
C208 H230 0.929 1_565 S
C209 C204 1.373 . S
C209 C208 1.396 . S
C209 H231 0.929 1_565 S
C210 O220 1.240 . S
C210 O221 1.289 . S
C211 O222 1.258 1_545 S
C211 O223 1.256 . S
O212 La192 2.521 . S
O212 C194 1.261 . S
O213 La192 2.626 1_565 S
O213 C194 1.239 1_565 S
O214 La192 2.554 . S
O214 C201 1.240 . S
O215 La192 2.757 . S
O215 La193 2.482 1_545 S
O215 C201 1.289 . S
O216 La192 2.470 . S
O216 C202 1.258 1_545 S
O217 La193 2.503 . S
O217 C202 1.256 . S
O218 La193 2.521 . S
O218 C203 1.261 . S
O219 La193 2.622 1_545 S
O219 C203 1.228 1_545 S
O220 La193 2.554 . S
O220 C210 1.240 . S
O221 La192 2.482 1_565 S
O221 La193 2.757 . S
O221 C210 1.289 . S
O222 La193 2.470 . S
O222 C211 1.258 1_565 S
O223 La192 2.503 . S
O223 C211 1.256 . S
H224 C196 0.930 . S
H225 C197 0.930 . S
H226 C199 0.929 1_565 S
H227 C200 0.929 1_565 S
H228 C205 0.930 . S
H229 C206 0.930 . S
H230 C208 0.929 1_545 S
H231 C209 0.929 1_545 S
La232 C234 2.928 . S
La232 O252 2.521 . S
La232 O253 2.628 . S
La232 O254 2.554 . S
La232 O255 2.757 . S
La232 O256 2.470 . S
La232 O261 2.482 . S
La232 O263 2.503 . S
La233 C243 2.928 . S
La233 O255 2.482 . S
La233 O257 2.503 . S
La233 O258 2.521 . S
La233 O259 2.628 . S
La233 O260 2.554 . S
La233 O261 2.757 . S
La233 O262 2.470 . S
C234 La232 2.928 . S
C234 C235 1.503 1_556 S
C234 O252 1.261 . S
C234 O253 1.243 . S
C235 C234 1.503 1_554 S
C235 C236 1.394 . S
C235 C240 1.373 . S
C236 C235 1.394 . S
C236 C237 1.380 . S
C236 H264 0.930 . S
C237 C236 1.380 . S
C237 C238 1.376 . S
C237 H265 0.930 . S
C238 C237 1.376 . S
C238 C239 1.370 . S
C239 C238 1.370 . S
C239 C240 1.396 . S
C239 H266 0.929 . S
C240 C235 1.373 . S
C240 C239 1.396 . S
C240 H267 0.929 . S
C241 O254 1.240 . S
C241 O255 1.289 . S
C242 O256 1.258 . S
C242 O257 1.256 . S
C243 La233 2.928 . S
C243 C244 1.503 . S
C243 O258 1.261 . S
C243 O259 1.243 . S
C244 C243 1.503 . S
C244 C245 1.394 . S
C244 C249 1.373 . S
C245 C244 1.394 . S
C245 C246 1.380 . S
C245 H268 0.930 . S
C246 C245 1.380 . S
C246 C247 1.376 . S
C246 H269 0.930 . S
C247 C246 1.376 . S
C247 C248 1.370 . S
C248 C247 1.370 . S
C248 C249 1.396 . S
C248 H270 0.929 . S
C249 C244 1.373 . S
C249 C248 1.396 . S
C249 H271 0.929 . S
C250 O260 1.240 . S
C250 O261 1.289 . S
C251 O262 1.258 . S
C251 O263 1.256 . S
O252 La232 2.521 . S
O252 C234 1.261 . S
O253 La232 2.628 . S
O253 C234 1.243 . S
O254 La232 2.554 . S
O254 C241 1.240 . S
O255 La232 2.757 . S
O255 La233 2.482 . S
O255 C241 1.289 . S
O256 La232 2.470 . S
O256 C242 1.258 . S
O257 La233 2.503 . S
O257 C242 1.256 . S
O258 La233 2.521 . S
O258 C243 1.261 . S
O259 La233 2.628 . S
O259 C243 1.243 . S
O260 La233 2.554 . S
O260 C250 1.240 . S
O261 La232 2.482 . S
O261 La233 2.757 . S
O261 C250 1.289 . S
O262 La233 2.470 . S
O262 C251 1.258 . S
O263 La232 2.503 . S
O263 C251 1.256 . S
H264 C236 0.930 . S
H265 C237 0.930 . S
H266 C239 0.929 . S
H267 C240 0.929 . S
H268 C245 0.930 . S
H269 C246 0.930 . S
H270 C248 0.929 . S
H271 C249 0.929 . S
La272 C274 2.928 . S
La272 O292 2.521 . S
La272 O293 2.628 . S
La272 O294 2.554 . S
La272 O295 2.757 1_655 S
La272 O296 2.470 . S
La272 O301 2.482 . S
La272 O303 2.503 1_655 S
La273 C283 2.928 . S
La273 O295 2.482 . S
La273 O297 2.503 1_455 S
La273 O298 2.521 . S
La273 O299 2.628 . S
La273 O300 2.554 . S
La273 O301 2.757 1_455 S
La273 O302 2.470 . S
C274 La272 2.928 . S
C274 C275 1.503 1_556 S
C274 O292 1.261 . S
C274 O293 1.243 . S
C275 C274 1.503 1_554 S
C275 C276 1.394 . S
C275 C280 1.373 . S
C276 C275 1.394 . S
C276 C277 1.380 . S
C276 H304 0.930 . S
C277 C276 1.380 . S
C277 C278 1.376 . S
C277 H305 0.930 . S
C278 C277 1.376 . S
C278 C279 1.370 . S
C279 C278 1.370 . S
C279 C280 1.396 . S
C279 H306 0.929 . S
C280 C275 1.373 . S
C280 C279 1.396 . S
C280 H307 0.929 . S
C281 O294 1.262 . S
C281 O295 1.276 1_655 S
C282 O296 1.258 . S
C282 O297 1.256 . S
C283 La273 2.928 . S
C283 C284 1.503 . S
C283 O298 1.261 . S
C283 O299 1.243 . S
C284 C283 1.503 . S
C284 C285 1.394 . S
C284 C289 1.373 . S
C285 C284 1.394 . S
C285 C286 1.380 . S
C285 H308 0.930 . S
C286 C285 1.380 . S
C286 C287 1.376 . S
C286 H309 0.930 . S
C287 C286 1.376 . S
C287 C288 1.370 . S
C288 C287 1.370 . S
C288 C289 1.396 . S
C288 H310 0.929 . S
C289 C284 1.373 . S
C289 C288 1.396 . S
C289 H311 0.929 . S
C290 O300 1.240 . S
C290 O301 1.289 1_455 S
C291 O302 1.258 . S
C291 O303 1.256 . S
O292 La272 2.521 . S
O292 C274 1.261 . S
O293 La272 2.628 . S
O293 C274 1.243 . S
O294 La272 2.554 . S
O294 C281 1.262 . S
O295 La272 2.757 1_455 S
O295 La273 2.482 . S
O295 C281 1.276 1_455 S
O296 La272 2.470 . S
O296 C282 1.258 . S
O297 La273 2.503 1_655 S
O297 C282 1.256 . S
O298 La273 2.521 . S
O298 C283 1.261 . S
O299 La273 2.628 . S
O299 C283 1.243 . S
O300 La273 2.554 . S
O300 C290 1.240 . S
O301 La272 2.482 . S
O301 La273 2.757 1_655 S
O301 C290 1.289 1_655 S
O302 La273 2.470 . S
O302 C291 1.258 . S
O303 La272 2.503 1_455 S
O303 C291 1.256 . S
H304 C276 0.930 . S
H305 C277 0.930 . S
H306 C279 0.929 . S
H307 C280 0.929 . S
H308 C285 0.930 . S
H309 C286 0.930 . S
H310 C288 0.929 . S
H311 C289 0.929 . S
H312 C318 0.930 . S
H313 C322 0.930 . S
H314 C327 0.929 . S
H315 C325 0.929 . S
H316 C320 0.929 . S
H317 C326 0.929 . S
C318 H312 0.930 . S
C318 C319 1.367 . S
C318 C326 1.378 . S
C319 C318 1.367 . S
C319 C327 1.433 1_565 S
C320 H316 0.929 . S
C320 C322 1.378 . S
C320 C324 1.350 . S
C321 C324 1.463 . S
C321 C326 1.350 1_545 S
C321 N329 1.427 . S
C322 H313 0.930 . S
C322 C320 1.378 . S
C322 C323 1.367 . S
C323 C322 1.367 . S
C323 C325 1.433 1_545 S
C324 C320 1.350 . S
C324 C321 1.463 . S
C324 N328 1.427 1_545 S
C325 H315 0.929 . S
C325 C323 1.433 1_565 S
C325 N328 1.384 . S
C326 H317 0.929 . S
C326 C318 1.378 . S
C326 C321 1.350 1_565 S
C327 H314 0.929 . S
C327 C319 1.433 1_545 S
C327 N329 1.384 . S
N328 C324 1.427 1_565 S
N328 C325 1.384 . S
N329 C321 1.427 . S
N329 C327 1.384 . S
H330 C336 0.930 . S
H331 C340 0.930 . S
H332 C345 0.929 . S
H333 C343 0.929 . S
H334 C338 0.929 . S
H335 C344 0.929 . S
C336 H330 0.930 . S
C336 C337 1.367 . S
C336 C344 1.378 . S
C337 C336 1.367 . S
C337 C345 1.433 . S
C338 H334 0.929 . S
C338 C340 1.378 . S
C338 C342 1.350 . S
C339 C342 1.463 . S
C339 C344 1.350 . S
C339 N347 1.427 . S
C340 H331 0.930 . S
C340 C338 1.378 . S
C340 C341 1.367 . S
C341 C340 1.367 . S
C341 C343 1.433 . S
C342 C338 1.350 . S
C342 C339 1.463 . S
C342 N346 1.427 . S
C343 H333 0.929 . S
C343 C341 1.433 . S
C343 N346 1.384 . S
C344 H335 0.929 . S
C344 C336 1.378 . S
C344 C339 1.350 . S
C345 H332 0.929 . S
C345 C337 1.433 . S
C345 N347 1.384 . S
N346 C342 1.427 . S
N346 C343 1.384 . S
N347 C339 1.427 . S
N347 C345 1.384 . S
H348 C354 0.930 . S
H349 C358 0.930 . S
H350 C363 0.929 . S
H351 C361 0.929 . S
H352 C356 0.929 . S
H353 C362 0.929 . S
C354 H348 0.930 . S
C354 C355 1.367 . S
C354 C362 1.378 . S
C355 C354 1.367 . S
C355 C363 1.433 . S
C356 H352 0.929 . S
C356 C358 1.378 . S
C356 C360 1.350 . S
C357 C360 1.463 . S
C357 C362 1.350 . S
C357 N365 1.427 . S
C358 H349 0.930 . S
C358 C356 1.378 . S
C358 C359 1.367 . S
C359 C358 1.367 . S
C359 C361 1.433 . S
C360 C356 1.350 . S
C360 C357 1.463 . S
C360 N364 1.427 . S
C361 H351 0.929 . S
C361 C359 1.433 . S
C361 N364 1.384 . S
C362 H353 0.929 . S
C362 C354 1.378 . S
C362 C357 1.350 . S
C363 H350 0.929 . S
C363 C355 1.433 . S
C363 N365 1.384 . S
N364 C360 1.427 . S
N364 C361 1.384 . S
N365 C357 1.427 . S
N365 C363 1.384 . S
H366 C372 0.930 . S
H367 C376 0.930 . S
H368 C381 0.929 . S
H369 C379 0.929 . S
H370 C374 0.929 . S
H371 C380 0.929 . S
C372 H366 0.930 . S
C372 C373 1.367 . S
C372 C380 1.378 . S
C373 C372 1.367 . S
C373 C381 1.433 1_655 S
C374 H370 0.929 . S
C374 C376 1.378 . S
C374 C378 1.350 . S
C375 C378 1.463 . S
C375 C380 1.348 1_455 S
C375 N383 1.429 . S
C376 H367 0.930 . S
C376 C374 1.378 . S
C376 C377 1.367 . S
C377 C376 1.367 . S
C377 C379 1.433 1_455 S
C378 C374 1.350 . S
C378 C375 1.463 . S
C378 N382 1.427 1_455 S
C379 H369 0.929 . S
C379 C377 1.433 1_655 S
C379 N382 1.384 . S
C380 H371 0.929 . S
C380 C372 1.378 . S
C380 C375 1.348 1_655 S
C381 H368 0.929 . S
C381 C373 1.433 1_455 S
C381 N383 1.384 . S
N382 C378 1.427 1_655 S
N382 C379 1.384 . S
N383 C375 1.429 . S
N383 C381 1.384 . S
H384 C390 0.930 . S
H385 C394 0.930 . S
H386 C399 0.929 . S
H387 C397 0.929 . S
H388 C392 0.929 . S
H389 C398 0.929 . S
C390 H384 0.930 . S
C390 C391 1.379 . S
C390 C398 1.378 . S
C391 C390 1.379 . S
C391 C399 1.421 1_565 S
C392 H388 0.929 . S
C392 C394 1.378 1_554 S
C392 C396 1.349 1_545 S
C393 C396 1.462 . S
C393 C398 1.383 . S
C393 N401 1.394 1_565 S
C394 H385 0.930 . S
C394 C392 1.378 1_556 S
C394 C395 1.346 1_545 S
C395 C394 1.346 1_565 S
C395 C397 1.455 . S
C396 C392 1.349 1_565 S
C396 C393 1.462 . S
C396 N400 1.428 1_554 S
C397 H387 0.929 . S
C397 C395 1.455 . S
C397 N400 1.384 . S
C398 H389 0.929 . S
C398 C390 1.378 . S
C398 C393 1.383 . S
C399 H386 0.929 . S
C399 C391 1.421 1_545 S
C399 N401 1.384 . S
N400 C396 1.428 1_556 S
N400 C397 1.384 . S
N401 C393 1.394 1_545 S
N401 C399 1.384 . S
H402 C408 0.930 . S
H403 C412 0.930 . S
H404 C417 0.929 . S
H405 C415 0.929 . S
H406 C410 0.929 . S
H407 C416 0.929 . S
C408 H402 0.930 . S
C408 C409 1.367 . S
C408 C416 1.378 . S
C409 C408 1.367 . S
C409 C417 1.433 . S
C410 H406 0.929 . S
C410 C412 1.378 . S
C410 C414 1.350 1_556 S
C411 C414 1.463 . S
C411 C416 1.350 . S
C411 N419 1.427 . S
C412 H403 0.930 . S
C412 C410 1.378 . S
C412 C413 1.367 . S
C413 C412 1.367 . S
C413 C415 1.433 . S
C414 C410 1.350 1_554 S
C414 C411 1.463 . S
C414 N418 1.427 . S
C415 H405 0.929 . S
C415 C413 1.433 . S
C415 N418 1.384 1_556 S
C416 H407 0.929 . S
C416 C408 1.378 . S
C416 C411 1.350 . S
C417 H404 0.929 . S
C417 C409 1.433 . S
C417 N419 1.384 . S
N418 C414 1.427 . S
N418 C415 1.384 1_554 S
N419 C411 1.427 . S
N419 C417 1.384 . S
H420 C426 0.930 . S
H421 C430 0.930 . S
H422 C435 0.929 . S
H423 C433 0.929 . S
H424 C428 0.929 . S
H425 C434 0.929 . S
C426 H420 0.930 . S
C426 C427 1.367 . S
C426 C434 1.378 . S
C427 C426 1.367 . S
C427 C435 1.433 . S
C428 H424 0.929 . S
C428 C430 1.378 . S
C428 C432 1.350 1_556 S
C429 C432 1.463 . S
C429 C434 1.350 . S
C429 N437 1.427 . S
C430 H421 0.930 . S
C430 C428 1.378 . S
C430 C431 1.367 . S
C431 C430 1.367 . S
C431 C433 1.433 . S
C432 C428 1.350 1_554 S
C432 C429 1.463 . S
C432 N436 1.427 . S
C433 H423 0.929 . S
C433 C431 1.433 . S
C433 N436 1.384 1_556 S
C434 H425 0.929 . S
C434 C426 1.378 . S
C434 C429 1.350 . S
C435 H422 0.929 . S
C435 C427 1.433 . S
C435 N437 1.384 . S
N436 C432 1.427 . S
N436 C433 1.384 1_554 S
N437 C429 1.427 . S
N437 C435 1.384 . S
H438 C444 0.930 . S
H439 C448 0.930 . S
H440 C453 0.929 . S
H441 C451 0.929 . S
H442 C446 0.929 . S
H443 C452 0.929 . S
C444 H438 0.930 . S
C444 C445 1.392 . S
C444 C452 1.378 . S
C445 C444 1.392 . S
C445 C453 1.408 1_655 S
C446 H442 0.929 . S
C446 C448 1.378 1_554 S
C446 C450 1.339 1_455 S
C447 C450 1.463 . S
C447 C452 1.350 . S
C447 N455 1.427 1_655 S
C448 H439 0.930 . S
C448 C446 1.378 1_556 S
C448 C449 1.331 1_455 S
C449 C448 1.331 1_655 S
C449 C451 1.470 . S
C450 C446 1.339 1_655 S
C450 C447 1.463 . S
C450 N454 1.438 1_554 S
C451 H441 0.929 . S
C451 C449 1.470 . S
C451 N454 1.384 . S
C452 H443 0.929 . S
C452 C444 1.378 . S
C452 C447 1.350 . S
C453 H440 0.929 . S
C453 C445 1.408 1_455 S
C453 N455 1.384 . S
N454 C450 1.438 1_556 S
N454 C451 1.384 . S
N455 C447 1.427 1_455 S
N455 C453 1.384 . S
H456 C462 0.939 . S
H457 C466 0.930 . S
H458 C471 0.929 1_556 S
H459 C469 0.929 . S
H460 C464 0.929 . S
H461 C470 0.929 . S
C462 H456 0.939 . S
C462 C463 1.368 . S
C462 C470 1.369 1_455 S
C463 C462 1.368 . S
C463 C471 1.433 1_455 S
C464 H460 0.929 . S
C464 C466 1.378 . S
C464 C468 1.350 . S
C465 C468 1.463 . S
C465 C470 1.350 . S
C465 N473 1.427 . S
C466 H457 0.930 . S
C466 C464 1.378 . S
C466 C467 1.367 . S
C467 C466 1.367 . S
C467 C469 1.433 . S
C468 C464 1.350 . S
C468 C465 1.463 . S
C468 N472 1.427 . S
C469 H459 0.929 . S
C469 C467 1.433 . S
C469 N472 1.384 . S
C470 H461 0.929 . S
C470 C462 1.369 1_655 S
C470 C465 1.350 . S
C471 H458 0.929 1_554 S
C471 C463 1.433 1_655 S
C471 N473 1.384 . S
N472 C468 1.427 . S
N472 C469 1.384 . S
N473 C465 1.427 . S
N473 C471 1.384 . S
H474 C480 0.930 . S
H475 C484 0.930 . S
H476 C489 0.929 . S
H477 C487 0.929 1_545 S
H478 C482 0.929 . S
H479 C488 0.929 . S
C480 H474 0.930 . S
C480 C481 1.367 . S
C480 C488 1.378 . S
C481 C480 1.367 . S
C481 C489 1.433 1_545 S
C482 H478 0.929 . S
C482 C484 1.378 . S
C482 C486 1.350 . S
C483 C486 1.463 . S
C483 C488 1.350 1_565 S
C483 N491 1.427 . S
C484 H475 0.930 . S
C484 C482 1.378 . S
C484 C485 1.367 . S
C485 C484 1.367 . S
C485 C487 1.433 . S
C486 C482 1.350 . S
C486 C483 1.463 . S
C486 N490 1.427 . S
C487 H477 0.929 1_565 S
C487 C485 1.433 . S
C487 N490 1.384 . S
C488 H479 0.929 . S
C488 C480 1.378 . S
C488 C483 1.350 1_545 S
C489 H476 0.929 . S
C489 C481 1.433 1_565 S
C489 N491 1.384 . S
N490 C486 1.427 . S
N490 C487 1.384 . S
N491 C483 1.427 . S
N491 C489 1.384 . S
H492 C498 0.930 1_556 S
H493 C502 0.930 . S
H494 C507 0.929 . S
H495 C505 0.929 . S
H496 C500 0.929 . S
H497 C506 0.929 . S
C498 H492 0.930 1_554 S
C498 C499 1.367 . S
C498 C506 1.378 . S
C499 C498 1.367 . S
C499 C507 1.433 . S
C500 H496 0.929 . S
C500 C502 1.378 . S
C500 C504 1.350 . S
C501 C504 1.463 . S
C501 C506 1.350 . S
C501 N509 1.427 . S
C502 H493 0.930 . S
C502 C500 1.378 . S
C502 C503 1.367 . S
C503 C502 1.367 . S
C503 C505 1.433 . S
C504 C500 1.350 . S
C504 C501 1.463 . S
C504 N508 1.427 . S
C505 H495 0.929 . S
C505 C503 1.433 . S
C505 N508 1.384 . S
C506 H497 0.929 . S
C506 C498 1.378 . S
C506 C501 1.350 . S
C507 H494 0.929 . S
C507 C499 1.433 . S
C507 N509 1.384 . S
N508 C504 1.427 . S
N508 C505 1.384 . S
N509 C501 1.427 . S
N509 C507 1.384 . S
H510 C516 0.930 . S
H511 C520 0.930 . S
H512 C525 0.929 . S
H513 C523 0.929 . S
H514 C518 0.929 . S
H515 C524 0.929 . S
C516 H510 0.930 . S
C516 C517 1.367 . S
C516 C524 1.378 . S
C517 C516 1.367 . S
C517 C525 1.433 . S
C518 H514 0.929 . S
C518 C520 1.378 . S
C518 C522 1.350 . S
C519 C522 1.463 . S
C519 C524 1.350 . S
C519 N527 1.427 . S
C520 H511 0.930 . S
C520 C518 1.378 . S
C520 C521 1.367 . S
C521 C520 1.367 . S
C521 C523 1.433 . S
C522 C518 1.350 . S
C522 C519 1.463 . S
C522 N526 1.427 . S
C523 H513 0.929 . S
C523 C521 1.433 . S
C523 N526 1.384 . S
C524 H515 0.929 . S
C524 C516 1.378 . S
C524 C519 1.350 . S
C525 H512 0.929 . S
C525 C517 1.433 . S
C525 N527 1.384 . S
N526 C522 1.427 . S
N526 C523 1.384 . S
N527 C519 1.427 . S
N527 C525 1.384 . S
H528 C534 0.930 . S
H529 C538 0.930 . S
H530 C543 0.929 . S
H531 C541 0.929 1_655 S
H532 C536 0.929 . S
H533 C542 0.929 . S
C534 H528 0.930 . S
C534 C535 1.367 . S
C534 C542 1.378 . S
C535 C534 1.367 . S
C535 C543 1.433 1_655 S
C536 H532 0.929 . S
C536 C538 1.378 . S
C536 C540 1.350 . S
C537 C540 1.463 . S
C537 C542 1.350 1_455 S
C537 N545 1.427 . S
C538 H529 0.930 . S
C538 C536 1.378 . S
C538 C539 1.367 . S
C539 C538 1.367 . S
C539 C541 1.433 . S
C540 C536 1.350 . S
C540 C537 1.463 . S
C540 N544 1.427 . S
C541 H531 0.929 1_455 S
C541 C539 1.433 . S
C541 N544 1.384 . S
C542 H533 0.929 . S
C542 C534 1.378 . S
C542 C537 1.350 1_655 S
C543 H530 0.929 . S
C543 C535 1.433 1_455 S
C543 N545 1.384 . S
N544 C540 1.427 . S
N544 C541 1.384 . S
N545 C537 1.427 . S
N545 C543 1.384 . S
H546 C552 0.930 . S
H547 C556 0.930 . S
H548 C561 0.929 . S
H549 C559 0.929 . S
H550 C554 0.929 1_565 S
H551 C560 0.929 . S
C552 H546 0.930 . S
C552 C553 1.339 1_545 S
C552 C560 1.378 . S
C553 C552 1.339 1_565 S
C553 C561 1.453 . S
C554 H550 0.929 1_545 S
C554 C556 1.378 . S
C554 C558 1.350 . S
C555 C558 1.463 . S
C555 C560 1.350 . S
C555 N563 1.427 1_545 S
C556 H547 0.930 . S
C556 C554 1.378 . S
C556 C557 1.367 . S
C557 C556 1.367 . S
C557 C559 1.433 . S
C558 C554 1.350 . S
C558 C555 1.463 . S
C558 N562 1.427 . S
C559 H549 0.929 . S
C559 C557 1.433 . S
C559 N562 1.384 . S
C560 H551 0.929 . S
C560 C552 1.378 . S
C560 C555 1.350 . S
C561 H548 0.929 . S
C561 C553 1.453 . S
C561 N563 1.384 . S
N562 C558 1.427 . S
N562 C559 1.384 . S
N563 C555 1.427 1_565 S
N563 C561 1.384 . S
H564 C570 0.930 . S
H565 C574 0.930 1_556 S
H566 C579 0.929 . S
H567 C577 0.929 . S
H568 C572 0.929 . S
H569 C578 0.929 . S
C570 H564 0.930 . S
C570 C571 1.367 . S
C570 C578 1.378 . S
C571 C570 1.367 . S
C571 C579 1.433 . S
C572 H568 0.929 . S
C572 C574 1.378 . S
C572 C576 1.350 . S
C573 C576 1.463 . S
C573 C578 1.350 . S
C573 N581 1.427 . S
C574 H565 0.930 1_554 S
C574 C572 1.378 . S
C574 C575 1.367 . S
C575 C574 1.367 . S
C575 C577 1.433 . S
C576 C572 1.350 . S
C576 C573 1.463 . S
C576 N580 1.427 . S
C577 H567 0.929 . S
C577 C575 1.433 . S
C577 N580 1.384 . S
C578 H569 0.929 . S
C578 C570 1.378 . S
C578 C573 1.350 . S
C579 H566 0.929 . S
C579 C571 1.433 . S
C579 N581 1.384 . S
N580 C576 1.427 . S
N580 C577 1.384 . S
N581 C573 1.427 . S
N581 C579 1.384 . S
H582 C588 0.930 . S
H583 C592 0.930 . S
H584 C597 0.929 . S
H585 C595 0.929 . S
H586 C590 0.929 . S
H587 C596 0.929 . S
C588 H582 0.930 . S
C588 C589 1.367 . S
C588 C596 1.378 . S
C589 C588 1.367 . S
C589 C597 1.433 . S
C590 H586 0.929 . S
C590 C592 1.378 . S
C590 C594 1.350 . S
C591 C594 1.463 . S
C591 C596 1.350 . S
C591 N599 1.427 . S
C592 H583 0.930 . S
C592 C590 1.378 . S
C592 C593 1.367 . S
C593 C592 1.367 . S
C593 C595 1.433 . S
C594 C590 1.350 . S
C594 C591 1.463 . S
C594 N598 1.427 . S
C595 H585 0.929 . S
C595 C593 1.433 . S
C595 N598 1.384 . S
C596 H587 0.929 . S
C596 C588 1.378 . S
C596 C591 1.350 . S
C597 H584 0.929 . S
C597 C589 1.433 . S
C597 N599 1.384 . S
N598 C594 1.427 . S
N598 C595 1.384 . S
N599 C591 1.427 . S
N599 C597 1.384 . S
H600 C606 0.930 . S
H601 C610 0.930 . S
H602 C615 0.929 . S
H603 C613 0.929 1_655 S
H604 C608 0.929 . S
H605 C614 0.929 . S
C606 H600 0.930 . S
C606 C607 1.367 1_655 S
C606 C614 1.378 . S
C607 C606 1.367 1_455 S
C607 C615 1.433 . S
C608 H604 0.929 . S
C608 C610 1.378 . S
C608 C612 1.350 . S
C609 C612 1.463 . S
C609 C614 1.350 1_455 S
C609 N617 1.427 . S
C610 H601 0.930 . S
C610 C608 1.378 . S
C610 C611 1.367 . S
C611 C610 1.367 . S
C611 C613 1.433 . S
C612 C608 1.350 . S
C612 C609 1.463 . S
C612 N616 1.436 . S
C613 H603 0.929 1_455 S
C613 C611 1.433 . S
C613 N616 1.386 . S
C614 H605 0.929 . S
C614 C606 1.378 . S
C614 C609 1.350 1_655 S
C615 H602 0.929 . S
C615 C607 1.433 . S
C615 N617 1.384 . S
N616 C612 1.436 . S
N616 C613 1.386 . S
N617 C609 1.427 . S
N617 C615 1.384 . S
H618 C624 0.930 . S
H619 C628 0.930 . S
H620 C633 0.929 . S
H621 C631 0.929 . S
H622 C626 0.929 . S
H623 C632 0.929 . S
C624 H618 0.930 . S
C624 C625 1.367 1_565 S
C624 C632 1.378 . S
C625 C624 1.367 1_545 S
C625 C633 1.433 . S
C626 H622 0.929 . S
C626 C628 1.378 . S
C626 C630 1.350 . S
C627 C630 1.463 . S
C627 C632 1.350 1_545 S
C627 N635 1.427 . S
C628 H619 0.930 . S
C628 C626 1.378 . S
C628 C629 1.367 . S
C629 C628 1.367 . S
C629 C631 1.433 1_545 S
C630 C626 1.350 . S
C630 C627 1.463 . S
C630 N634 1.427 1_545 S
C631 H621 0.929 . S
C631 C629 1.433 1_565 S
C631 N634 1.384 . S
C632 H623 0.929 . S
C632 C624 1.378 . S
C632 C627 1.350 1_565 S
C633 H620 0.929 . S
C633 C625 1.433 . S
C633 N635 1.384 . S
N634 C630 1.427 1_565 S
N634 C631 1.384 . S
N635 C627 1.427 . S
N635 C633 1.384 . S
H636 C642 0.930 . S
H637 C646 0.930 . S
H638 C651 0.929 . S
H639 C649 0.929 . S
H640 C644 0.929 . S
H641 C650 0.929 . S
C642 H636 0.930 . S
C642 C643 1.367 . S
C642 C650 1.378 . S
C643 C642 1.367 . S
C643 C651 1.433 . S
C644 H640 0.929 . S
C644 C646 1.378 . S
C644 C648 1.350 . S
C645 C648 1.463 . S
C645 C650 1.350 . S
C645 N653 1.427 . S
C646 H637 0.930 . S
C646 C644 1.378 . S
C646 C647 1.367 . S
C647 C646 1.367 . S
C647 C649 1.433 . S
C648 C644 1.350 . S
C648 C645 1.463 . S
C648 N652 1.427 . S
C649 H639 0.929 . S
C649 C647 1.433 . S
C649 N652 1.384 . S
C650 H641 0.929 . S
C650 C642 1.378 . S
C650 C645 1.350 . S
C651 H638 0.929 . S
C651 C643 1.433 . S
C651 N653 1.384 . S
N652 C648 1.427 . S
N652 C649 1.384 . S
N653 C645 1.427 . S
N653 C651 1.384 . S
H654 C660 0.930 . S
H655 C664 0.930 . S
H656 C669 0.929 . S
H657 C667 0.929 . S
H658 C662 0.929 . S
H659 C668 0.929 . S
C660 H654 0.930 . S
C660 C661 1.367 . S
C660 C668 1.378 . S
C661 C660 1.367 . S
C661 C669 1.433 . S
C662 H658 0.929 . S
C662 C664 1.378 . S
C662 C666 1.350 . S
C663 C666 1.463 . S
C663 C668 1.350 . S
C663 N671 1.427 . S
C664 H655 0.930 . S
C664 C662 1.378 . S
C664 C665 1.367 . S
C665 C664 1.367 . S
C665 C667 1.433 . S
C666 C662 1.350 . S
C666 C663 1.463 . S
C666 N670 1.427 . S
C667 H657 0.929 . S
C667 C665 1.433 . S
C667 N670 1.384 . S
C668 H659 0.929 . S
C668 C660 1.378 . S
C668 C663 1.350 . S
C669 H656 0.929 . S
C669 C661 1.433 . S
C669 N671 1.384 . S
N670 C666 1.427 . S
N670 C667 1.384 . S
N671 C663 1.427 . S
N671 C669 1.384 . S
H672 C678 0.930 . S
H673 C682 0.930 . S
H674 C687 0.929 . S
H675 C685 0.937 . S
H676 C680 0.929 . S
H677 C686 0.938 . S
C678 H672 0.930 . S
C678 C679 1.367 1_455 S
C678 C686 1.382 . S
C679 C678 1.367 1_655 S
C679 C687 1.433 . S
C680 H676 0.929 . S
C680 C682 1.378 . S
C680 C684 1.350 . S
C681 C684 1.463 . S
C681 C686 1.339 1_655 S
C681 N689 1.427 . S
C682 H673 0.930 . S
C682 C680 1.378 . S
C682 C683 1.367 . S
C683 C682 1.367 . S
C683 C685 1.433 . S
C684 C680 1.350 . S
C684 C681 1.463 . S
C684 N688 1.427 . S
C685 H675 0.937 . S
C685 C683 1.433 . S
C685 N688 1.384 . S
C686 H677 0.938 . S
C686 C678 1.382 . S
C686 C681 1.339 1_455 S
C687 H674 0.929 . S
C687 C679 1.433 . S
C687 N689 1.384 . S
N688 C684 1.427 . S
N688 C685 1.384 . S
N689 C681 1.427 . S
N689 C687 1.384 . S
H690 C696 0.930 . S
H691 C700 0.930 . S
H692 C705 0.929 . S
H693 C703 0.929 . S
H694 C698 0.929 . S
H695 C704 0.929 . S
C696 H690 0.930 . S
C696 C697 1.367 1_545 S
C696 C704 1.378 . S
C697 C696 1.367 1_565 S
C697 C705 1.433 . S
C698 H694 0.929 . S
C698 C700 1.378 . S
C698 C702 1.350 . S
C699 C702 1.463 . S
C699 C704 1.350 1_565 S
C699 N707 1.427 . S
C700 H691 0.930 . S
C700 C698 1.378 . S
C700 C701 1.367 . S
C701 C700 1.367 . S
C701 C703 1.433 1_565 S
C702 C698 1.350 . S
C702 C699 1.463 . S
C702 N706 1.427 1_565 S
C703 H693 0.929 . S
C703 C701 1.433 1_545 S
C703 N706 1.384 . S
C704 H695 0.929 . S
C704 C696 1.378 . S
C704 C699 1.350 1_545 S
C705 H692 0.929 . S
C705 C697 1.433 . S
C705 N707 1.384 . S
N706 C702 1.427 1_545 S
N706 C703 1.384 . S
N707 C699 1.427 . S
N707 C705 1.384 . S
H708 C714 0.930 . S
H709 C718 0.930 . S
H710 C723 0.929 . S
H711 C721 0.929 . S
H712 C716 0.929 . S
H713 C722 0.929 . S
C714 H708 0.930 . S
C714 C715 1.367 . S
C714 C722 1.378 . S
C715 C714 1.367 . S
C715 C723 1.433 . S
C716 H712 0.929 . S
C716 C718 1.378 . S
C716 C720 1.350 . S
C717 C720 1.463 . S
C717 C722 1.350 . S
C717 N725 1.427 . S
C718 H709 0.930 . S
C718 C716 1.378 . S
C718 C719 1.367 . S
C719 C718 1.367 . S
C719 C721 1.433 . S
C720 C716 1.350 . S
C720 C717 1.463 . S
C720 N724 1.427 . S
C721 H711 0.929 . S
C721 C719 1.433 . S
C721 N724 1.384 . S
C722 H713 0.929 . S
C722 C714 1.378 . S
C722 C717 1.350 . S
C723 H710 0.929 . S
C723 C715 1.433 . S
C723 N725 1.384 . S
N724 C720 1.427 . S
N724 C721 1.384 . S
N725 C717 1.427 . S
N725 C723 1.384 . S
H726 C732 0.930 . S
H727 C736 0.930 . S
H728 C741 0.929 . S
H729 C739 0.929 . S
H730 C734 0.929 . S
H731 C740 0.929 . S
C732 H726 0.930 . S
C732 C733 1.367 . S
C732 C740 1.378 . S
C733 C732 1.367 . S
C733 C741 1.433 . S
C734 H730 0.929 . S
C734 C736 1.378 . S
C734 C738 1.350 . S
C735 C738 1.463 . S
C735 C740 1.350 . S
C735 N743 1.427 . S
C736 H727 0.930 . S
C736 C734 1.378 . S
C736 C737 1.367 . S
C737 C736 1.367 . S
C737 C739 1.433 . S
C738 C734 1.350 . S
C738 C735 1.463 . S
C738 N742 1.427 . S
C739 H729 0.929 . S
C739 C737 1.433 . S
C739 N742 1.384 . S
C740 H731 0.929 . S
C740 C732 1.378 . S
C740 C735 1.350 . S
C741 H728 0.929 . S
C741 C733 1.433 . S
C741 N743 1.384 . S
N742 C738 1.427 . S
N742 C739 1.384 . S
N743 C735 1.427 . S
N743 C741 1.384 . S
C319 C125 1.917 . S
C323 C161 1.955 1_545 S
C341 C201 1.963 . S
C337 C144 1.923 . S
C359 C241 1.966 . S
C355 C87 1.926 . S
C377 C281 1.959 1_455 S
C373 C106 1.918 . S
C395 C170 1.957 1_565 S
C391 C49 1.923 . S
C409 C68 1.914 . S
C413 C210 1.963 . S
C427 C11 1.923 . S
C431 C250 1.964 . S
C445 C30 1.921 . S
C449 C290 1.959 1_655 S
C467 C167 0.539 . S
C463 C97 0.588 . S
C485 C207 0.550 . S
C481 C116 0.575 . S
C503 C247 0.524 . S
C499 C135 0.550 . S
C517 C78 0.582 . S
C521 C287 0.546 . S
C535 C21 0.569 . S
C539 C158 0.546 . S
C557 C198 0.519 . S
C553 C40 0.548 . S
C575 C238 0.532 . S
C571 C59 0.550 . S
C589 C2 0.584 . S
C593 C278 0.555 . S
C607 C101 2.067 1_455 S
C611 C171 2.285 . S
C625 C120 2.063 1_545 S
C629 C211 2.285 . S
C647 C251 2.277 . S
C643 C139 2.056 . S
C665 C291 2.285 . S
C661 C82 2.058 . S
C679 C25 2.083 . S
C683 C162 2.298 . S
C701 C202 2.284 . S
C697 C44 2.060 . S
C719 C242 2.276 . S
C715 C63 2.054 . S
C733 C6 2.077 . S
C737 C282 2.290 . S
