# Generated by pormake.
# Topology tsx, (6,3)-cn, num edge types: 1
# Building blocks:
#     Node 0, Type 0, BuildingBlock: VOLQOD_clean_sbu_1, # of connection points: 6
#     Node 1, Type 0, BuildingBlock: VOLQOD_clean_sbu_1, # of connection points: 6
#     Node 2, Type 1, BuildingBlock: PAMTOO_clean_linker_0, # of connection points: 3
#     Node 3, Type 1, BuildingBlock: PAMTOO_clean_linker_0, # of connection points: 3
#     Node 4, Type 1, BuildingBlock: PAMTOO_clean_linker_0, # of connection points: 3
#     Node 5, Type 1, BuildingBlock: PAMTOO_clean_linker_0, # of connection points: 3
#     Edge 6, Type (0, 1), BuildingBlock: EZIPEK_clean_linker_0, # of connection points: 2
#     Edge 7, Type (0, 1), BuildingBlock: EZIPEK_clean_linker_0, # of connection points: 2
#     Edge 8, Type (0, 1), BuildingBlock: EZIPEK_clean_linker_0, # of connection points: 2
#     Edge 9, Type (0, 1), BuildingBlock: EZIPEK_clean_linker_0, # of connection points: 2
#     Edge 10, Type (0, 1), BuildingBlock: EZIPEK_clean_linker_0, # of connection points: 2
#     Edge 11, Type (0, 1), BuildingBlock: EZIPEK_clean_linker_0, # of connection points: 2
#     Edge 12, Type (0, 1), BuildingBlock: EZIPEK_clean_linker_0, # of connection points: 2
#     Edge 13, Type (0, 1), BuildingBlock: EZIPEK_clean_linker_0, # of connection points: 2
#     Edge 14, Type (0, 1), BuildingBlock: EZIPEK_clean_linker_0, # of connection points: 2
#     Edge 15, Type (0, 1), BuildingBlock: EZIPEK_clean_linker_0, # of connection points: 2
#     Edge 16, Type (0, 1), BuildingBlock: EZIPEK_clean_linker_0, # of connection points: 2
#     Edge 17, Type (0, 1), BuildingBlock: EZIPEK_clean_linker_0, # of connection points: 2
# Relax obj value: 0.055
# Max RMSD: 0.109
# Mean RMSD: 0.099
data_MOF--net-tsx--node1-VOLQOD_clean_sbu_1--node2-PAMTOO_clean_linker_0--edge1-EZIPEK_clean_linker_0
_symmetry_space_group_name_H-M    P1
_symmetry_Int_Tables_number       1
_symmetry_cell_setting            triclinic
loop_
_symmetry_equiv_pos_as_xyz
'x, y, z'
_cell_length_a     15.701483
_cell_length_b     16.092113
_cell_length_c     28.189466
_cell_angle_alpha  81.436393
_cell_angle_beta   89.775033
_cell_angle_gamma 91.078512
loop_
_atom_site_label
_atom_site_type_symbol
_atom_site_fract_x
_atom_site_fract_y
_atom_site_fract_z
_atom_type_partial_charge
O0 O 0.05721 0.96089 0.10444 0.0
Zn1 Zn 0.10844 0.99825 0.03899 0.0
O2 O 0.01851 0.02384 -0.00749 0.0
Zn3 Zn 0.01363 0.93897 0.95067 0.0
Zn4 Zn 0.9103 0.02428 0.02554 0.0
Zn5 Zn 0.0419 0.13343 0.95535 0.0
O6 O 0.0159 0.99312 0.88223 0.0
O7 O 0.06685 0.12228 0.88645 0.0
O8 O 0.18976 0.91308 0.01894 0.0
O9 O 0.11974 0.8717 0.95784 0.0
O10 O 0.91251 0.85898 0.96518 0.0
O11 O 0.84504 0.91608 0.02145 0.0
O12 O 0.83988 0.12402 -0.0046 0.0
O13 O 0.17605 0.10367 0.0456 0.0
O14 O 0.93904 0.20502 0.95434 0.0
O15 O 0.13561 0.19632 0.98368 0.0
C16 C 0.99082 0.98875 0.12251 0.0
C17 C 0.04637 0.0638 0.86251 0.0
C18 C 0.85288 0.85726 -0.00388 0.0
C19 C 0.18388 0.86814 0.98542 0.0
C20 C 0.86248 0.19243 0.96893 0.0
C21 C 0.18101 0.17639 0.02072 0.0
O22 O 0.93247 0.02573 0.09634 0.0
O23 O 0.55429 0.4709 0.60044 0.0
Zn24 Zn 0.59775 0.49839 0.53304 0.0
O25 O 0.50302 0.52562 0.4899 0.0
Zn26 Zn 0.49228 0.44218 0.4474 0.0
Zn27 Zn 0.398 0.52416 0.5259 0.0
Zn28 Zn 0.52207 0.63705 0.45381 0.0
O29 O 0.5073 0.49599 0.37952 0.0
O30 O 0.5478 0.62801 0.38482 0.0
O31 O 0.66919 0.4044 0.51417 0.0
O32 O 0.58665 0.36074 0.45869 0.0
O33 O 0.38411 0.37264 0.45747 0.0
O34 O 0.33242 0.41742 0.52248 0.0
O35 O 0.32355 0.62055 0.49764 0.0
O36 O 0.67182 0.60054 0.53576 0.0
O37 O 0.41699 0.70656 0.45525 0.0
O38 O 0.61843 0.69846 0.48066 0.0
C39 C 0.48776 0.49489 0.62013 0.0
C40 C 0.53468 0.56829 0.3606 0.0
C41 C 0.33143 0.36601 0.49229 0.0
C42 C 0.65321 0.35389 0.48439 0.0
C43 C 0.34158 0.69009 0.47118 0.0
C44 C 0.67152 0.67555 0.51379 0.0
O45 O 0.42471 0.52636 0.59578 0.0
H46 H 0.07687 0.86489 0.33333 0.0
H47 H 0.90484 0.06783 0.33494 0.0
H48 H 0.03932 0.97113 0.46294 0.0
H49 H 0.8556 0.02037 0.48307 0.0
C50 C 0.84752 0.06478 0.44944 0.0
O51 O 0.92519 0.07967 0.42626 0.0
H52 H 0.80278 0.03068 0.42828 0.0
C53 C 0.04388 0.90743 0.35323 0.0
C54 C 0.06491 0.91035 0.40138 0.0
C55 C 0.98728 0.96492 0.32914 0.0
C56 C 0.94605 0.02159 0.35416 0.0
C57 C 0.96262 0.02223 0.40289 0.0
C58 C 0.02315 0.96763 0.42615 0.0
H59 H 0.15549 0.16407 0.63722 0.0
H60 H 0.00106 0.94085 0.6749 0.0
H61 H 0.05204 0.03561 0.52665 0.0
H62 H 0.85696 0.97392 0.60244 0.0
C63 C 0.88354 0.91132 0.60136 0.0
O64 O 0.96779 0.92006 0.58626 0.0
H65 H 0.88128 0.8803 0.63931 0.0
C66 C 0.11925 0.11192 0.62656 0.0
C67 C 0.11218 0.10384 0.57795 0.0
C68 C 0.07812 0.05393 0.66138 0.0
C69 C 0.03243 0.98597 0.64774 0.0
C70 C 0.02023 0.98056 0.5991 0.0
C71 C 0.0604 0.03964 0.56418 0.0
H72 H 0.60912 0.38396 0.82898 0.0
H73 H 0.4547 0.60118 0.82739 0.0
H74 H 0.59188 0.5056 0.95474 0.0
H75 H 0.37829 0.55714 0.95577 0.0
C76 C 0.3926 0.61281 0.92889 0.0
O77 O 0.47853 0.61712 0.91733 0.0
H78 H 0.35409 0.60208 0.89722 0.0
C79 C 0.58274 0.43178 0.84777 0.0
C80 C 0.60777 0.43699 0.89513 0.0
C81 C 0.52919 0.49185 0.8232 0.0
C82 C 0.49591 0.55473 0.84665 0.0
C83 C 0.51493 0.5577 0.89481 0.0
C84 C 0.57263 0.50008 0.91868 0.0
H85 H 0.67471 0.654 0.13853 0.0
H86 H 0.50735 0.44085 0.17769 0.0
H87 H 0.56681 0.52451 0.02931 0.0
H88 H 0.36714 0.49449 0.08334 0.0
C89 C 0.38603 0.42995 0.09816 0.0
O90 O 0.47202 0.41865 0.0901 0.0
H91 H 0.37827 0.42188 0.13755 0.0
C92 C 0.63682 0.60257 0.12824 0.0
C93 C 0.63031 0.59286 0.07985 0.0
C94 C 0.59153 0.54864 0.16321 0.0
C95 C 0.54262 0.48221 0.15031 0.0
C96 C 0.53111 0.4746 0.10197 0.0
C97 C 0.57558 0.52987 0.06659 0.0
C98 C 0.20194 0.2742 0.0808 0.0
C99 C 0.23101 0.24312 0.03924 0.0
C100 C 0.34493 0.34972 0.02957 0.0
C101 C 0.32844 0.3681 0.07646 0.0
N102 N 0.22908 0.35815 0.14351 0.0
N103 N 0.33234 0.24873 0.9744 0.0
C104 C 0.25338 0.33327 0.10125 0.0
C105 C 0.30278 0.28045 0.01356 0.0
N106 N 0.12205 0.25215 0.09852 0.0
N107 N 0.39608 0.40183 -0.00119 0.0
H108 H 0.30289 0.19813 0.96134 0.0
H109 H 0.38979 0.26866 0.95733 0.0
H110 H 0.429 0.45319 0.00867 0.0
H111 H 0.39762 0.39931 0.96206 0.0
H112 H 0.09284 0.27918 0.12554 0.0
H113 H 0.08104 0.21194 0.08324 0.0
H114 H 0.18606 0.32387 0.16737 0.0
H115 H 0.25071 0.4134 0.15492 0.0
C116 C 0.29183 0.82821 0.92804 0.0
C117 C 0.25556 0.81504 0.97485 0.0
C118 C 0.34446 0.69222 -0.00464 0.0
C119 C 0.36251 0.6928 0.94603 0.0
N120 N 0.36388 0.76794 0.86537 0.0
N121 N 0.24691 0.73321 0.0539 0.0
C122 C 0.34054 0.76366 0.91239 0.0
C123 C 0.28299 0.74768 0.00917 0.0
N124 N 0.28096 0.90327 0.89914 0.0
N125 N 0.38723 0.63964 0.02894 0.0
H126 H 0.20122 0.77196 0.06548 0.0
H127 H 0.25781 0.67916 0.07827 0.0
H128 H 0.43573 0.60193 0.01944 0.0
H129 H 0.38261 0.6421 0.06559 0.0
H130 H 0.31152 0.91998 0.86617 0.0
H131 H 0.24781 0.95244 0.91048 0.0
H132 H 0.34014 0.81174 0.83792 0.0
H133 H 0.4056 0.7257 0.85354 0.0
C134 C 0.70397 0.79876 0.00618 0.0
C135 C 0.79267 0.78391 0.00506 0.0
C136 C 0.76368 0.63405 0.03317 0.0
C137 C 0.67897 0.65316 0.0442 0.0
N138 N 0.56775 0.75457 0.04298 0.0
N139 N 0.90862 0.68654 0.02125 0.0
C140 C 0.64838 0.73555 0.03043 0.0
C141 C 0.8231 0.7009 0.01847 0.0
N142 N 0.67308 0.87324 0.98389 0.0
N143 N 0.78773 0.5521 0.03813 0.0
H144 H 0.95518 0.73329 0.01263 0.0
H145 H 0.9338 0.62916 0.03615 0.0
H146 H 0.74549 0.5022 0.0495 0.0
H147 H 0.84646 0.53357 0.02643 0.0
H148 H 0.60829 0.88496 0.97989 0.0
H149 H 0.71235 0.91997 0.965 0.0
H150 H 0.5449 0.81556 0.03873 0.0
H151 H 0.52557 0.70965 0.06079 0.0
C152 C 0.73083 0.27583 0.98229 0.0
C153 C 0.79828 0.25755 0.95192 0.0
C154 C 0.75253 0.37367 0.89175 0.0
C155 C 0.67581 0.37983 0.91754 0.0
N156 N 0.58564 0.32132 0.98425 0.0
N157 N 0.85568 0.27687 0.87066 0.0
C158 C 0.66321 0.32691 0.96219 0.0
C159 C 0.80462 0.30321 0.90464 0.0
N160 N 0.73205 0.24734 0.03038 0.0
N161 N 0.77655 0.43536 0.85525 0.0
H162 H 0.88808 0.22045 0.87615 0.0
H163 H 0.85633 0.3055 0.83494 0.0
H164 H 0.74237 0.49043 0.84642 0.0
H165 H 0.8354 0.43588 0.83789 0.0
H166 H 0.68725 0.26523 0.05414 0.0
H167 H 0.78299 0.2147 0.04725 0.0
H168 H 0.57136 0.27846 0.01489 0.0
H169 H 0.53345 0.35232 0.96833 0.0
C170 C 0.81452 0.72129 0.54124 0.0
C171 C 0.72812 0.73938 0.53098 0.0
C172 C 0.74989 0.87853 0.55445 0.0
C173 C 0.83239 0.85521 0.57237 0.0
N174 N 0.93129 0.74126 0.59369 0.0
N175 N 0.60793 0.82671 0.54224 0.0
C176 C 0.86163 0.77288 0.56877 0.0
C177 C 0.69409 0.81574 0.54131 0.0
N178 N 0.85209 0.65542 0.52446 0.0
N179 N 0.72326 0.95966 0.54956 0.0
H180 H 0.56339 0.78037 0.53671 0.0
H181 H 0.58048 0.87807 0.55457 0.0
H182 H 0.75991 0.00992 0.55738 0.0
H183 H 0.66707 0.97884 0.53197 0.0
H184 H 0.91704 0.64388 0.52794 0.0
H185 H 0.82035 0.61807 0.50266 0.0
H186 H 0.9489 0.67871 0.59554 0.0
H187 H 0.9665 0.77375 0.61648 0.0
C188 C 0.74993 0.23328 0.51478 0.0
C189 C 0.71484 0.28844 0.4762 0.0
C190 C 0.77081 0.20158 0.41935 0.0
C191 C 0.80871 0.14775 0.45783 0.0
N192 N 0.86277 0.13666 0.53868 0.0
N193 N 0.72054 0.34135 0.39145 0.0
C194 C 0.80762 0.17139 0.50448 0.0
C195 C 0.73431 0.2777 0.42832 0.0
N196 N 0.72542 0.23632 0.56103 0.0
N197 N 0.76721 0.17979 0.37441 0.0
H198 H 0.69825 0.39982 0.39698 0.0
H199 H 0.74084 0.33969 0.35637 0.0
H200 H 0.79401 0.12577 0.36537 0.0
H201 H 0.73143 0.21242 0.34688 0.0
H202 H 0.74321 0.19132 0.58961 0.0
H203 H 0.68075 0.27818 0.57039 0.0
H204 H 0.86734 0.15538 0.57243 0.0
H205 H 0.91017 0.09617 0.53133 0.0
C206 C 0.30074 0.21073 0.51148 0.0
C207 C 0.27053 0.29411 0.50048 0.0
C208 C 0.12832 0.24726 0.52985 0.0
C209 C 0.15923 0.16473 0.54229 0.0
N210 N 0.26529 0.06239 0.5324 0.0
N211 N 0.15217 0.38696 0.48541 0.0
C212 C 0.2421 0.14457 0.52832 0.0
C213 C 0.18282 0.3106 0.50496 0.0
N214 N 0.38604 0.19547 0.50986 0.0
N215 N 0.04848 0.26583 0.54402 0.0
H216 H 0.19111 0.43396 0.46648 0.0
H217 H 0.08764 0.40075 0.48387 0.0
H218 H 0.00659 0.22022 0.56147 0.0
H219 H 0.0256 0.32668 0.54099 0.0
H220 H 0.41236 0.13788 0.52331 0.0
H221 H 0.432 0.24164 0.49838 0.0
H222 H 0.3219 0.04331 0.51837 0.0
H223 H 0.22431 0.01259 0.54579 0.0
C224 C 0.27529 0.79966 0.40911 0.0
C225 C 0.2725 0.75086 0.45562 0.0
C226 C 0.12939 0.80421 0.46693 0.0
C227 C 0.13785 0.8601 0.42312 0.0
N228 N 0.23507 0.93104 0.36295 0.0
N229 N 0.20527 0.73001 0.53421 0.0
C230 C 0.21626 0.86461 0.39772 0.0
C231 C 0.20207 0.76001 0.48634 0.0
N232 N 0.32924 0.78101 0.3742 0.0
N233 N 0.05203 0.79007 0.48916 0.0
H234 H 0.2597 0.70365 0.55076 0.0
H235 H 0.15771 0.74131 0.55825 0.0
H236 H 0.9963 0.81814 0.47534 0.0
H237 H 0.04235 0.74353 0.51864 0.0
H238 H 0.32771 0.81231 0.33906 0.0
H239 H 0.36626 0.72752 0.37796 0.0
H240 H 0.29448 0.93902 0.34599 0.0
H241 H 0.19546 0.98261 0.35544 0.0
C242 C 0.04676 0.03187 0.19842 0.0
C243 C 0.98612 0.98508 0.1753 0.0
C244 C 0.92422 0.92536 0.25346 0.0
C245 C 0.9828 0.9747 0.27609 0.0
N246 N 0.09039 0.08482 0.27082 0.0
N247 N 0.8617 0.89398 0.17921 0.0
C248 C 0.04122 0.03093 0.24872 0.0
C249 C 0.92277 0.93415 0.20237 0.0
N250 N 0.11093 0.07611 0.1724 0.0
N251 N 0.87188 0.86849 0.281 0.0
H252 H 0.86164 0.89486 0.14215 0.0
H253 H 0.80846 0.86325 0.19615 0.0
H254 H 0.86956 0.8628 0.31835 0.0
H255 H 0.83407 0.82386 0.26744 0.0
H256 H 0.16357 0.10187 0.18767 0.0
H257 H 0.11483 0.08322 0.13518 0.0
H258 H 0.12617 0.13459 0.25242 0.0
H259 H 0.09081 0.08436 0.30783 0.0
C260 C 0.13962 0.0668 0.79048 0.0
C261 C 0.0579 0.07709 0.81012 0.0
C262 C 0.99591 0.0937 0.73004 0.0
C263 C 0.07428 0.06899 0.71175 0.0
N264 N 0.22003 0.02671 0.72415 0.0
N265 N 0.90675 0.09645 0.80003 0.0
C266 C 0.14648 0.05508 0.74169 0.0
C267 C 0.98558 0.09005 0.78025 0.0
N268 N 0.21034 0.06807 0.81848 0.0
N269 N 0.93213 0.12212 0.69924 0.0
H270 H 0.89715 0.09708 0.8366 0.0
H271 H 0.85038 0.0959 0.78073 0.0
H272 H 0.938 0.12667 0.66205 0.0
H273 H 0.87668 0.14864 0.71008 0.0
H274 H 0.2723 0.06869 0.80512 0.0
H275 H 0.20727 0.07623 0.85444 0.0
H276 H 0.27158 1.00623 0.7456 0.0
H277 H 0.22743 0.01778 0.68848 0.0
C278 C 0.54647 0.55781 0.68858 0.0
C279 C 0.49087 0.49801 0.67206 0.0
C280 C 0.45214 0.44046 0.75487 0.0
C281 C 0.51471 0.49418 0.77119 0.0
N282 N 0.62955 0.59637 0.75434 0.0
N283 N 0.39523 0.37822 0.68792 0.0
C284 C 0.56399 0.551 0.73825 0.0
C285 C 0.44435 0.43838 0.70476 0.0
N286 N 0.58073 0.62249 0.65677 0.0
N287 N 0.39943 0.39277 0.78727 0.0
H288 H 0.38672 0.37642 0.65138 0.0
H289 H 0.36711 0.32724 0.70985 0.0
H290 H 0.40454 0.39199 0.82423 0.0
H291 H 0.34697 0.35866 0.77762 0.0
H292 H 0.61455 0.67303 0.66711 0.0
H293 H 0.56874 0.63001 0.62001 0.0
H294 H 0.67401 0.6312 0.7317 0.0
H295 H 0.64401 0.59413 0.79059 0.0
C296 C 0.63704 0.55826 0.29443 0.0
C297 C 0.55532 0.58075 0.3092 0.0
C298 C 0.50804 0.60483 0.22606 0.0
C299 C 0.58432 0.5685 0.21244 0.0
N300 N 0.72133 0.50844 0.23246 0.0
N301 N 0.41129 0.62277 0.29075 0.0
C302 C 0.64954 0.54565 0.24615 0.0
C303 C 0.49051 0.60436 0.27542 0.0
N304 N 0.70226 0.5491 0.32665 0.0
N305 N 0.45296 0.64016 0.19168 0.0
H306 H 0.39704 0.62492 0.32671 0.0
H307 H 0.35848 0.63081 0.26844 0.0
H308 H 0.46405 0.64163 0.15503 0.0
H309 H 0.40032 0.6746 0.19906 0.0
H310 H 0.76521 0.53993 0.31727 0.0
H311 H 0.69463 0.55786 0.36235 0.0
H312 H 0.76678 0.48143 0.25646 0.0
H313 H 0.73312 0.49994 0.19707 0.0
loop_
_geom_bond_atom_site_label_1
_geom_bond_atom_site_label_2
_geom_bond_distance
_geom_bond_site_symmetry_2
_ccdc_geom_bond_type
O0 Zn1 1.953 . S
O0 C16 1.225 . S
Zn1 O0 1.953 . S
Zn1 O2 1.949 1_565 S
Zn1 O8 1.919 . S
Zn1 O13 1.924 1_565 S
O2 Zn1 1.949 1_545 S
O2 Zn3 1.921 1_444 S
O2 Zn4 1.950 1_455 S
O2 Zn5 1.945 1_554 S
Zn3 O2 1.921 1_666 S
Zn3 O6 1.933 1_655 S
Zn3 O9 1.934 1_655 S
Zn3 O10 1.973 . S
Zn4 O2 1.950 1_655 S
Zn4 O11 1.938 1_545 S
Zn4 O12 1.906 . S
Zn4 O22 1.953 . S
Zn5 O2 1.945 1_556 S
Zn5 O7 1.932 . S
Zn5 O14 1.977 1_455 S
Zn5 O15 1.910 . S
O6 Zn3 1.933 1_455 S
O6 C17 1.226 1_565 S
O7 Zn5 1.932 . S
O7 C17 1.307 . S
O8 Zn1 1.919 . S
O8 C19 1.253 . S
O9 Zn3 1.934 1_455 S
O9 C19 1.283 1_556 S
O10 Zn3 1.973 . S
O10 C18 1.303 1_556 S
O11 Zn4 1.938 1_565 S
O11 C18 1.247 . S
O12 Zn4 1.906 . S
O12 C20 1.304 1_554 S
O13 Zn1 1.924 1_545 S
O13 C21 1.311 . S
O14 Zn5 1.977 1_655 S
O14 C20 1.272 . S
O15 Zn5 1.910 . S
O15 C21 1.231 1_556 S
C16 O0 1.225 . S
C16 O22 1.298 1_465 S
C17 O6 1.226 1_545 S
C17 O7 1.307 . S
C18 O10 1.303 1_554 S
C18 O11 1.247 . S
C19 O8 1.253 . S
C19 O9 1.283 1_554 S
C20 O12 1.304 1_556 S
C20 O14 1.272 . S
C21 O13 1.311 . S
C21 O15 1.231 1_554 S
O22 Zn4 1.953 . S
O22 C16 1.298 1_645 S
O23 Zn24 1.953 . S
O23 C39 1.225 . S
Zn24 O23 1.953 . S
Zn24 O25 1.949 . S
Zn24 O31 1.919 . S
Zn24 O36 1.924 . S
O25 Zn24 1.949 . S
O25 Zn26 1.923 . S
O25 Zn27 1.950 . S
O25 Zn28 1.945 . S
Zn26 O25 1.923 . S
Zn26 O29 1.933 . S
Zn26 O32 1.941 . S
Zn26 O33 1.965 . S
Zn27 O25 1.950 . S
Zn27 O34 1.938 . S
Zn27 O35 1.906 . S
Zn27 O45 1.953 . S
Zn28 O25 1.945 . S
Zn28 O30 1.932 . S
Zn28 O37 1.977 . S
Zn28 O38 1.910 . S
O29 Zn26 1.933 . S
O29 C40 1.226 . S
O30 Zn28 1.932 . S
O30 C40 1.307 . S
O31 Zn24 1.919 . S
O31 C42 1.253 . S
O32 Zn26 1.941 . S
O32 C42 1.283 . S
O33 Zn26 1.965 . S
O33 C41 1.303 . S
O34 Zn27 1.938 . S
O34 C41 1.247 . S
O35 Zn27 1.906 . S
O35 C43 1.304 . S
O36 Zn24 1.924 . S
O36 C44 1.311 . S
O37 Zn28 1.977 . S
O37 C43 1.272 . S
O38 Zn28 1.910 . S
O38 C44 1.231 . S
C39 O23 1.225 . S
C39 O45 1.298 . S
C40 O29 1.226 . S
C40 O30 1.307 . S
C41 O33 1.303 . S
C41 O34 1.247 . S
C42 O31 1.253 . S
C42 O32 1.283 . S
C43 O35 1.304 . S
C43 O37 1.272 . S
C44 O36 1.311 . S
C44 O38 1.231 . S
O45 Zn27 1.953 . S
O45 C39 1.298 . S
H46 C53 0.929 . S
H47 C56 0.930 . S
H48 C58 0.929 . S
H49 C50 0.969 . S
C50 H49 0.969 . S
C50 O51 1.550 . S
C50 H52 0.973 . S
O51 C50 1.550 . S
O51 C57 1.412 . S
H52 C50 0.973 . S
C53 H46 0.929 . S
C53 C54 1.400 . S
C53 C55 1.364 . S
C54 C53 1.400 . S
C54 C58 1.377 . S
C55 C53 1.364 . S
C55 C56 1.374 1_465 S
C56 H47 0.930 . S
C56 C55 1.374 1_645 S
C56 C57 1.383 . S
C57 O51 1.412 . S
C57 C56 1.383 . S
C57 C58 1.394 1_645 S
C58 H48 0.929 . S
C58 C54 1.377 . S
C58 C57 1.394 1_465 S
H59 C66 0.929 . S
H60 C69 0.930 . S
H61 C71 0.929 . S
H62 C63 0.969 . S
C63 H62 0.969 . S
C63 O64 1.550 . S
C63 H65 0.973 . S
O64 C63 1.550 . S
O64 C70 1.412 1_565 S
H65 C63 0.973 . S
C66 H59 0.929 . S
C66 C67 1.400 . S
C66 C68 1.364 . S
C67 C66 1.400 . S
C67 C71 1.377 . S
C68 C66 1.364 . S
C68 C69 1.374 1_445 S
C69 H60 0.930 . S
C69 C68 1.374 1_665 S
C69 C70 1.383 1_565 S
C70 O64 1.412 1_545 S
C70 C69 1.383 1_545 S
C70 C71 1.394 1_655 S
C71 H61 0.929 . S
C71 C67 1.377 . S
C71 C70 1.394 1_455 S
H72 C79 0.929 . S
H73 C82 0.930 . S
H74 C84 0.929 . S
H75 C76 0.969 . S
C76 H75 0.969 . S
C76 O77 1.550 . S
C76 H78 0.973 . S
O77 C76 1.550 . S
O77 C83 1.412 . S
H78 C76 0.973 . S
C79 H72 0.929 . S
C79 C80 1.400 . S
C79 C81 1.364 . S
C80 C79 1.400 . S
C80 C84 1.377 . S
C81 C79 1.364 . S
C81 C82 1.374 . S
C82 H73 0.930 . S
C82 C81 1.374 . S
C82 C83 1.383 . S
C83 O77 1.412 . S
C83 C82 1.383 . S
C83 C84 1.394 . S
C84 H74 0.929 . S
C84 C80 1.377 . S
C84 C83 1.394 . S
H85 C92 0.929 . S
H86 C95 0.930 . S
H87 C97 0.929 . S
H88 C89 0.969 . S
C89 H88 0.969 . S
C89 O90 1.550 . S
C89 H91 0.973 . S
O90 C89 1.550 . S
O90 C96 1.412 . S
H91 C89 0.973 . S
C92 H85 0.929 . S
C92 C93 1.400 . S
C92 C94 1.364 . S
C93 C92 1.400 . S
C93 C97 1.377 . S
C94 C92 1.364 . S
C94 C95 1.374 . S
C95 H86 0.930 . S
C95 C94 1.374 . S
C95 C96 1.383 . S
C96 O90 1.412 . S
C96 C95 1.383 . S
C96 C97 1.394 . S
C97 H87 0.929 . S
C97 C93 1.377 . S
C97 C96 1.394 . S
C98 C99 1.363 . S
C98 C104 1.379 . S
C98 N106 1.356 . S
C99 C98 1.363 . S
C99 C105 1.363 1_554 S
C100 C101 1.363 . S
C100 C105 1.379 1_554 S
C100 N107 1.356 1_554 S
C101 C100 1.363 . S
C101 C104 1.363 . S
N102 C104 1.356 . S
N102 H114 0.984 . S
N102 H115 0.985 . S
N103 C105 1.356 . S
N103 H108 0.984 . S
N103 H109 0.985 . S
C104 C98 1.379 . S
C104 C101 1.363 . S
C104 N102 1.356 . S
C105 C99 1.363 1_556 S
C105 C100 1.379 1_556 S
C105 N103 1.356 . S
N106 C98 1.356 . S
N106 H112 0.984 . S
N106 H113 0.984 . S
N107 C100 1.356 1_556 S
N107 H110 0.984 . S
N107 H111 0.985 . S
H108 N103 0.984 . S
H109 N103 0.985 . S
H110 N107 0.984 . S
H111 N107 0.985 . S
H112 N106 0.984 . S
H113 N106 0.984 . S
H114 N102 0.984 . S
H115 N102 0.985 . S
C116 C117 1.363 . S
C116 C122 1.379 . S
C116 N124 1.356 . S
C117 C116 1.363 . S
C117 C123 1.363 1_556 S
C118 C119 1.363 1_554 S
C118 C123 1.379 . S
C118 N125 1.356 . S
C119 C118 1.363 1_556 S
C119 C122 1.363 . S
N120 C122 1.356 . S
N120 H132 0.984 . S
N120 H133 0.985 . S
N121 C123 1.356 . S
N121 H126 0.984 . S
N121 H127 0.985 . S
C122 C116 1.379 . S
C122 C119 1.363 . S
C122 N120 1.356 . S
C123 C117 1.363 1_554 S
C123 C118 1.379 . S
C123 N121 1.356 . S
N124 C116 1.356 . S
N124 H130 0.984 . S
N124 H131 0.984 . S
N125 C118 1.356 . S
N125 H128 0.984 . S
N125 H129 0.985 . S
H126 N121 0.984 . S
H127 N121 0.985 . S
H128 N125 0.984 . S
H129 N125 0.985 . S
H130 N124 0.984 . S
H131 N124 0.984 . S
H132 N120 0.984 . S
H133 N120 0.985 . S
C134 C135 1.363 . S
C134 C140 1.379 . S
C134 N142 1.356 1_554 S
C135 C134 1.363 . S
C135 C141 1.363 . S
C136 C137 1.363 . S
C136 C141 1.379 . S
C136 N143 1.356 . S
C137 C136 1.363 . S
C137 C140 1.363 . S
N138 C140 1.356 . S
N138 H150 0.984 1_554 S
N138 H151 0.985 . S
N139 C141 1.356 . S
N139 H144 0.984 . S
N139 H145 0.985 . S
C140 C134 1.379 . S
C140 C137 1.363 . S
C140 N138 1.356 . S
C141 C135 1.363 . S
C141 C136 1.379 . S
C141 N139 1.356 . S
N142 C134 1.356 1_556 S
N142 H148 0.984 . S
N142 H149 0.984 . S
N143 C136 1.356 . S
N143 H146 0.984 . S
N143 H147 0.985 . S
H144 N139 0.984 . S
H145 N139 0.985 . S
H146 N143 0.984 . S
H147 N143 0.985 . S
H148 N142 0.984 . S
H149 N142 0.984 . S
H150 N138 0.984 1_556 S
H151 N138 0.985 . S
C152 C153 1.363 . S
C152 C158 1.379 . S
C152 N160 1.356 1_556 S
C153 C152 1.363 . S
C153 C159 1.363 . S
C154 C155 1.363 . S
C154 C159 1.379 . S
C154 N161 1.356 . S
C155 C154 1.363 . S
C155 C158 1.363 . S
N156 C158 1.356 1_554 S
N156 H168 0.984 . S
N156 H169 0.985 1_554 S
N157 C159 1.356 . S
N157 H162 0.984 . S
N157 H163 0.985 . S
C158 C152 1.379 . S
C158 C155 1.363 . S
C158 N156 1.356 1_556 S
C159 C153 1.363 . S
C159 C154 1.379 . S
C159 N157 1.356 . S
N160 C152 1.356 1_554 S
N160 H166 0.984 . S
N160 H167 0.984 . S
N161 C154 1.356 . S
N161 H164 0.984 . S
N161 H165 0.985 . S
H162 N157 0.984 . S
H163 N157 0.985 . S
H164 N161 0.984 . S
H165 N161 0.985 . S
H166 N160 0.984 . S
H167 N160 0.984 . S
H168 N156 0.984 . S
H169 N156 0.985 1_556 S
C170 C171 1.363 . S
C170 C176 1.379 . S
C170 N178 1.356 . S
C171 C170 1.363 . S
C171 C177 1.363 . S
C172 C173 1.363 . S
C172 C177 1.379 . S
C172 N179 1.356 . S
C173 C172 1.363 . S
C173 C176 1.363 . S
N174 C176 1.356 . S
N174 H186 0.984 . S
N174 H187 0.985 . S
N175 C177 1.356 . S
N175 H180 0.984 . S
N175 H181 0.985 . S
C176 C170 1.379 . S
C176 C173 1.363 . S
C176 N174 1.356 . S
C177 C171 1.363 . S
C177 C172 1.379 . S
C177 N175 1.356 . S
N178 C170 1.356 . S
N178 H184 0.984 . S
N178 H185 0.984 . S
N179 C172 1.356 . S
N179 H182 0.984 . S
N179 H183 0.985 . S
H180 N175 0.984 . S
H181 N175 0.985 . S
H182 N179 0.984 . S
H183 N179 0.985 . S
H184 N178 0.984 . S
H185 N178 0.984 . S
H186 N174 0.984 . S
H187 N174 0.985 . S
C188 C189 1.363 . S
C188 C194 1.379 . S
C188 N196 1.356 . S
C189 C188 1.363 . S
C189 C195 1.363 . S
C190 C191 1.363 . S
C190 C195 1.379 . S
C190 N197 1.356 . S
C191 C190 1.363 . S
C191 C194 1.363 . S
N192 C194 1.356 . S
N192 H204 0.984 . S
N192 H205 0.985 . S
N193 C195 1.356 . S
N193 H198 0.984 . S
N193 H199 0.985 . S
C194 C188 1.379 . S
C194 C191 1.363 . S
C194 N192 1.356 . S
C195 C189 1.363 . S
C195 C190 1.379 . S
C195 N193 1.356 . S
N196 C188 1.356 . S
N196 H202 0.984 . S
N196 H203 0.984 . S
N197 C190 1.356 . S
N197 H200 0.984 . S
N197 H201 0.985 . S
H198 N193 0.984 . S
H199 N193 0.985 . S
H200 N197 0.984 . S
H201 N197 0.985 . S
H202 N196 0.984 . S
H203 N196 0.984 . S
H204 N192 0.984 . S
H205 N192 0.985 . S
C206 C207 1.363 . S
C206 C212 1.379 . S
C206 N214 1.356 . S
C207 C206 1.363 . S
C207 C213 1.363 . S
C208 C209 1.363 . S
C208 C213 1.379 . S
C208 N215 1.356 . S
C209 C208 1.363 . S
C209 C212 1.363 . S
N210 C212 1.356 . S
N210 H222 0.984 . S
N210 H223 0.985 . S
N211 C213 1.356 . S
N211 H216 0.984 . S
N211 H217 0.985 . S
C212 C206 1.379 . S
C212 C209 1.363 . S
C212 N210 1.356 . S
C213 C207 1.363 . S
C213 C208 1.379 . S
C213 N211 1.356 . S
N214 C206 1.356 . S
N214 H220 0.984 . S
N214 H221 0.984 . S
N215 C208 1.356 . S
N215 H218 0.984 . S
N215 H219 0.985 . S
H216 N211 0.984 . S
H217 N211 0.985 . S
H218 N215 0.984 . S
H219 N215 0.985 . S
H220 N214 0.984 . S
H221 N214 0.984 . S
H222 N210 0.984 . S
H223 N210 0.985 . S
C224 C225 1.363 . S
C224 C230 1.379 . S
C224 N232 1.356 . S
C225 C224 1.363 . S
C225 C231 1.363 . S
C226 C227 1.363 . S
C226 C231 1.379 . S
C226 N233 1.356 . S
C227 C226 1.363 . S
C227 C230 1.363 . S
N228 C230 1.356 . S
N228 H240 0.984 . S
N228 H241 0.985 . S
N229 C231 1.356 . S
N229 H234 0.984 . S
N229 H235 0.985 . S
C230 C224 1.379 . S
C230 C227 1.363 . S
C230 N228 1.356 . S
C231 C225 1.363 . S
C231 C226 1.379 . S
C231 N229 1.356 . S
N232 C224 1.356 . S
N232 H238 0.984 . S
N232 H239 0.984 . S
N233 C226 1.356 . S
N233 H236 0.984 . S
N233 H237 0.985 . S
H234 N229 0.984 . S
H235 N229 0.985 . S
H236 N233 0.984 . S
H237 N233 0.985 . S
H238 N232 0.984 . S
H239 N232 0.984 . S
H240 N228 0.984 . S
H241 N228 0.985 . S
C242 C243 1.363 1_545 S
C242 C248 1.379 . S
C242 N250 1.356 . S
C243 C242 1.363 1_565 S
C243 C249 1.363 1_455 S
C244 C245 1.363 1_655 S
C244 C249 1.379 . S
C244 N251 1.356 . S
C245 C244 1.363 1_455 S
C245 C248 1.363 1_565 S
N246 C248 1.356 . S
N246 H258 0.984 . S
N246 H259 0.985 . S
N247 C249 1.356 . S
N247 H252 0.984 . S
N247 H253 0.985 . S
C248 C242 1.379 . S
C248 C245 1.363 1_545 S
C248 N246 1.356 . S
C249 C243 1.363 1_655 S
C249 C244 1.379 . S
C249 N247 1.356 . S
N250 C242 1.356 . S
N250 H256 0.984 . S
N250 H257 0.984 . S
N251 C244 1.356 . S
N251 H254 0.984 . S
N251 H255 0.985 . S
H252 N247 0.984 . S
H253 N247 0.985 . S
H254 N251 0.984 . S
H255 N251 0.985 . S
H256 N250 0.984 . S
H257 N250 0.984 . S
H258 N246 0.984 . S
H259 N246 0.985 . S
C260 C261 1.363 1_565 S
C260 C266 1.379 . S
C260 N268 1.356 . S
C261 C260 1.363 1_545 S
C261 C267 1.363 1_455 S
C262 C263 1.363 1_655 S
C262 C267 1.379 . S
C262 N269 1.356 . S
C263 C262 1.363 1_455 S
C263 C266 1.363 1_545 S
N264 C266 1.356 . S
N264 H276 0.984 . S
N264 H277 0.985 . S
N265 C267 1.356 . S
N265 H270 0.984 . S
N265 H271 0.985 . S
C266 C260 1.379 . S
C266 C263 1.363 1_565 S
C266 N264 1.356 . S
C267 C261 1.363 1_655 S
C267 C262 1.379 . S
C267 N265 1.356 . S
N268 C260 1.356 . S
N268 H274 0.984 . S
N268 H275 0.984 . S
N269 C262 1.356 . S
N269 H272 0.984 . S
N269 H273 0.985 . S
H270 N265 0.984 . S
H271 N265 0.985 . S
H272 N269 0.984 . S
H273 N269 0.985 . S
H274 N268 0.984 . S
H275 N268 0.984 . S
H276 N264 0.984 . S
H277 N264 0.985 . S
C278 C279 1.363 . S
C278 C284 1.379 . S
C278 N286 1.356 . S
C279 C278 1.363 . S
C279 C285 1.363 . S
C280 C281 1.363 . S
C280 C285 1.379 . S
C280 N287 1.356 . S
C281 C280 1.363 . S
C281 C284 1.363 . S
N282 C284 1.356 . S
N282 H294 0.984 . S
N282 H295 0.985 . S
N283 C285 1.356 . S
N283 H288 0.984 . S
N283 H289 0.985 . S
C284 C278 1.379 . S
C284 C281 1.363 . S
C284 N282 1.356 . S
C285 C279 1.363 . S
C285 C280 1.379 . S
C285 N283 1.356 . S
N286 C278 1.356 . S
N286 H292 0.984 . S
N286 H293 0.984 . S
N287 C280 1.356 . S
N287 H290 0.984 . S
N287 H291 0.985 . S
H288 N283 0.984 . S
H289 N283 0.985 . S
H290 N287 0.984 . S
H291 N287 0.985 . S
H292 N286 0.984 . S
H293 N286 0.984 . S
H294 N282 0.984 . S
H295 N282 0.985 . S
C296 C297 1.363 . S
C296 C302 1.379 . S
C296 N304 1.356 . S
C297 C296 1.363 . S
C297 C303 1.363 . S
C298 C299 1.363 . S
C298 C303 1.379 . S
C298 N305 1.356 . S
C299 C298 1.363 . S
C299 C302 1.363 . S
N300 C302 1.356 . S
N300 H312 0.984 . S
N300 H313 0.985 . S
N301 C303 1.356 . S
N301 H306 0.984 . S
N301 H307 0.985 . S
C302 C296 1.379 . S
C302 C299 1.363 . S
C302 N300 1.356 . S
C303 C297 1.363 . S
C303 C298 1.379 . S
C303 N301 1.356 . S
N304 C296 1.356 . S
N304 H310 0.984 . S
N304 H311 0.984 . S
N305 C298 1.356 . S
N305 H308 0.984 . S
N305 H309 0.985 . S
H306 N301 0.984 . S
H307 N301 0.985 . S
H308 N305 0.984 . S
H309 N305 0.985 . S
H310 N304 0.984 . S
H311 N304 0.984 . S
H312 N300 0.984 . S
H313 N300 0.985 . S
C101 C89 1.354 . S
C99 C21 1.446 . S
C117 C19 1.440 1_556 S
C119 C76 1.362 . S
C135 C18 1.479 . S
C137 C93 1.500 . S
C153 C20 1.512 . S
C155 C80 1.510 . S
C171 C44 1.446 . S
C173 C63 1.354 . S
C189 C42 1.440 . S
C191 C50 1.362 . S
C209 C67 1.500 . S
C207 C41 1.479 . S
C227 C54 1.510 . S
C225 C43 1.512 . S
C243 C16 1.527 . S
C245 C55 1.524 . S
C261 C17 1.500 . S
C263 C68 1.498 . S
C281 C81 1.524 . S
C279 C39 1.527 . S
C297 C40 1.500 . S
C299 C94 1.498 . S
