# Generated by pormake.
# Topology anh, (6,3)-cn, num edge types: 1
# Building blocks:
#     Node 0, Type 0, BuildingBlock: PAMTOO_clean_sbu_0, # of connection points: 6
#     Node 1, Type 0, BuildingBlock: PAMTOO_clean_sbu_0, # of connection points: 6
#     Node 2, Type 0, BuildingBlock: PAMTOO_clean_sbu_0, # of connection points: 6
#     Node 3, Type 1, BuildingBlock: PAMTOO_clean_linker_0, # of connection points: 3
#     Node 4, Type 1, BuildingBlock: PAMTOO_clean_linker_0, # of connection points: 3
#     Node 5, Type 1, BuildingBlock: PAMTOO_clean_linker_0, # of connection points: 3
#     Node 6, Type 1, BuildingBlock: PAMTOO_clean_linker_0, # of connection points: 3
#     Node 7, Type 1, BuildingBlock: PAMTOO_clean_linker_0, # of connection points: 3
#     Node 8, Type 1, BuildingBlock: PAMTOO_clean_linker_0, # of connection points: 3
#     Edge 9, Type (0, 1), BuildingBlock: TEMPAE_clean_linker_10, # of connection points: 2
#     Edge 10, Type (0, 1), BuildingBlock: TEMPAE_clean_linker_10, # of connection points: 2
#     Edge 11, Type (0, 1), BuildingBlock: TEMPAE_clean_linker_10, # of connection points: 2
#     Edge 12, Type (0, 1), BuildingBlock: TEMPAE_clean_linker_10, # of connection points: 2
#     Edge 13, Type (0, 1), BuildingBlock: TEMPAE_clean_linker_10, # of connection points: 2
#     Edge 14, Type (0, 1), BuildingBlock: TEMPAE_clean_linker_10, # of connection points: 2
#     Edge 15, Type (0, 1), BuildingBlock: TEMPAE_clean_linker_10, # of connection points: 2
#     Edge 16, Type (0, 1), BuildingBlock: TEMPAE_clean_linker_10, # of connection points: 2
#     Edge 17, Type (0, 1), BuildingBlock: TEMPAE_clean_linker_10, # of connection points: 2
#     Edge 18, Type (0, 1), BuildingBlock: TEMPAE_clean_linker_10, # of connection points: 2
#     Edge 19, Type (0, 1), BuildingBlock: TEMPAE_clean_linker_10, # of connection points: 2
#     Edge 20, Type (0, 1), BuildingBlock: TEMPAE_clean_linker_10, # of connection points: 2
#     Edge 21, Type (0, 1), BuildingBlock: TEMPAE_clean_linker_10, # of connection points: 2
#     Edge 22, Type (0, 1), BuildingBlock: TEMPAE_clean_linker_10, # of connection points: 2
#     Edge 23, Type (0, 1), BuildingBlock: TEMPAE_clean_linker_10, # of connection points: 2
#     Edge 24, Type (0, 1), BuildingBlock: TEMPAE_clean_linker_10, # of connection points: 2
#     Edge 25, Type (0, 1), BuildingBlock: TEMPAE_clean_linker_10, # of connection points: 2
#     Edge 26, Type (0, 1), BuildingBlock: TEMPAE_clean_linker_10, # of connection points: 2
# Relax obj value: 0.161
# Max RMSD: 0.158
# Mean RMSD: 0.118
data_MOF--net-anh--node1-PAMTOO_clean_sbu_0--node2-PAMTOO_clean_linker_0--edge1-TEMPAE_clean_linker_10
_symmetry_space_group_name_H-M    P1
_symmetry_Int_Tables_number       1
_symmetry_cell_setting            triclinic
loop_
_symmetry_equiv_pos_as_xyz
'x, y, z'
_cell_length_a     30.878369
_cell_length_b     29.841621
_cell_length_c     49.850039
_cell_angle_alpha  86.319032
_cell_angle_beta   95.730712
_cell_angle_gamma 102.3281
loop_
_atom_site_label
_atom_site_type_symbol
_atom_site_fract_x
_atom_site_fract_y
_atom_site_fract_z
_atom_type_partial_charge
Dy0 Dy 0.17959 0.59546 0.14565 0.0
Dy1 Dy 0.15524 0.48419 0.14012 0.0
C2 C 0.16456 0.55264 0.08958 0.0
O3 O 0.10496 0.57873 0.14948 0.0
O4 O 0.08742 0.50357 0.1368 0.0
O5 O 0.20336 0.6619 0.12682 0.0
O6 O 0.18465 0.65667 0.1679 0.0
O7 O 0.14391 0.49791 0.18198 0.0
O8 O 0.19624 0.56415 0.18616 0.0
O9 O 0.23071 0.4997 0.14837 0.0
O10 O 0.2456 0.57759 0.13871 0.0
O11 O 0.16041 0.41579 0.1548 0.0
O12 O 0.1206 0.42593 0.11731 0.0
C13 C 1.07515 0.54106 0.14328 0.0
O14 O 0.14903 0.57932 0.10421 0.0
O15 O 0.1784 0.51689 0.10094 0.0
C16 C 0.2438 0.71717 0.15643 0.0
C17 C 0.32204 0.7842 0.16763 0.0
C18 C 0.3245 0.73935 0.16171 0.0
C19 C 0.28571 0.70611 0.15623 0.0
C20 C 0.2411 0.76137 0.16296 0.0
C21 C 0.27984 0.79458 0.16858 0.0
C22 C 0.20285 0.68369 0.14862 0.0
C23 C 0.1704 0.52849 0.19705 0.0
C24 C 0.25943 0.53857 0.14365 0.0
C25 C 0.0925 0.36206 0.14564 0.0
C26 C 1.01667 0.29946 0.16227 0.0
C27 C 1.04448 0.32866 0.18079 0.0
C28 C 0.08186 0.35985 0.17255 0.0
C29 C 1.06507 0.33251 0.1272 0.0
C30 C 1.02738 0.30163 0.13539 0.0
C31 C 0.13053 0.39648 0.13624 0.0
H32 H 0.35636 0.73024 0.16053 0.0
H33 H 0.28843 0.67208 0.15126 0.0
H34 H 0.20899 0.77041 0.16331 0.0
H35 H 0.27673 0.8285 0.17353 0.0
H36 H 1.03673 0.32812 0.20155 0.0
H37 H 0.10199 0.38262 0.18718 0.0
H38 H 1.07249 0.33374 0.10634 0.0
H39 H 1.00667 0.27932 0.12073 0.0
Dy40 Dy 0.59127 0.02606 0.51001 0.0
Dy41 Dy 0.70054 0.05058 0.52111 0.0
C42 C 0.63984 0.02603 0.56909 0.0
O43 O 0.61065 0.10211 0.50278 0.0
O44 O 0.6784 0.11583 0.52764 0.0
O45 O 0.52727 1.0023 0.5254 0.0
O46 O 0.53122 0.02595 0.48351 0.0
O47 O 0.68233 0.06954 0.47811 0.0
O48 O 0.61964 0.01373 0.47232 0.0
O49 O 0.68431 0.97425 0.51622 0.0
O50 O 0.60773 0.95673 0.51684 0.0
O51 O 0.76462 0.0462 0.50924 0.0
O52 O 0.76029 0.08321 0.54466 0.0
C53 C 0.64409 0.13047 0.51512 0.0
O54 O 0.60927 0.04214 0.55353 0.0
O55 O 0.6746 0.0174 0.55905 0.0
C56 C 0.47213 0.96488 0.49383 0.0
C57 C 0.40597 0.88609 0.48192 0.0
C58 C 0.44954 0.88207 0.49136 0.0
C59 C 0.48237 0.92114 0.49717 0.0
C60 C 0.42919 0.96924 0.48377 0.0
C61 C 0.39638 0.9302 0.47778 0.0
C62 C 0.50543 1.00582 0.50185 0.0
C63 C 0.65288 0.04271 0.46232 0.0
C64 C 0.64613 0.9444 0.51677 0.0
C65 C 0.82124 0.11223 0.51871 0.0
C66 C 0.88852 0.18581 0.50241 0.0
C67 C 0.86203 0.15694 0.48324 0.0
C68 C 0.82862 0.12059 0.49127 0.0
C69 C 0.8479 0.14092 0.53788 0.0
C70 C 0.88108 0.17754 0.52981 0.0
C71 C 0.7863 0.07375 0.52766 0.0
H72 H 0.45802 0.84869 0.49507 0.0
H73 H 0.51546 0.91713 0.50487 0.0
H74 H 0.42085 1.00281 0.48094 0.0
H75 H 0.36341 0.93456 0.47009 0.0
H76 H 0.86674 0.16288 0.46196 0.0
H77 H 0.80859 0.09921 0.47595 0.0
H78 H 0.84305 0.13501 0.55915 0.0
H79 H 0.90128 0.19906 0.54502 0.0
Dy80 Dy 0.64376 0.45399 0.82585 0.0
Dy81 Dy 0.53696 0.43338 0.83214 0.0
C82 C 0.5762 0.44055 0.7757 0.0
O83 O 0.62302 0.52175 0.81683 0.0
O84 O 0.55923 0.50842 0.83868 0.0
O85 O 0.71195 0.4534 0.84017 0.0
O86 O 0.69555 0.47782 0.7992 0.0
O87 O 0.57123 0.42806 0.87365 0.0
O88 O 0.63753 0.47658 0.86665 0.0
O89 O 0.5511 0.36455 0.82558 0.0
O90 O 0.62609 0.3793 0.83888 0.0
O91 O 0.48109 0.41558 0.85639 0.0
O92 O 0.46983 0.42732 0.81331 0.0
C93 C 0.59155 0.53683 0.82732 0.0
O94 O 0.6077 0.42273 0.78869 0.0
O95 O 0.54936 0.45687 0.78937 0.0
C96 C 0.76362 0.51385 0.82092 0.0
C97 C 0.83448 0.5905 0.82612 0.0
C98 C 0.79716 0.58674 0.8408 0.0
C99 C 0.76182 0.54876 0.8381 0.0
C100 C 0.80025 0.51797 0.80584 0.0
C101 C 0.8354 0.55599 0.80839 0.0
C102 C 0.72718 0.47353 0.81794 0.0
C103 C 0.60807 0.45557 0.88292 0.0
C104 C 0.58814 0.35022 0.83314 0.0
C105 C 0.42577 0.45741 0.84053 0.0
C106 C 0.38196 0.53019 0.8444 0.0
C107 C 0.41366 0.52098 0.86504 0.0
C108 C 0.43554 0.48509 0.86308 0.0
C109 C 0.39269 0.46543 0.82047 0.0
C110 C 0.37114 0.50168 0.8223 0.0
C111 C 0.45272 0.42345 0.83641 0.0
H112 H 0.79554 0.61293 0.85452 0.0
H113 H 0.73335 0.54639 0.84958 0.0
H114 H 0.80191 0.49147 0.79233 0.0
H115 H 0.864 0.55758 0.79715 0.0
H116 H 0.42291 0.54277 0.88213 0.0
H117 H 0.46115 0.48013 0.8788 0.0
H118 H 0.38462 0.44464 0.80291 0.0
H119 H 0.34657 0.50798 0.80622 0.0
H120 H 0.75766 0.10801 0.26818 0.0
H121 H 0.63106 0.016 0.25194 0.0
H122 H 0.71137 0.06803 0.18693 0.0
H123 H 0.6114 0.04586 0.16641 0.0
C124 C 0.60227 0.03241 0.18686 0.0
O125 O 0.63686 0.0149 0.20013 0.0
H126 H 0.5959 0.06169 0.1976 0.0
C127 C 0.73263 0.08896 0.25398 0.0
C128 C 0.73941 0.09175 0.22638 0.0
C129 C 0.69364 0.06178 0.26339 0.0
C130 C 0.66125 0.03725 0.24499 0.0
C131 C 0.66792 0.03936 0.21756 0.0
C132 C 0.70691 0.06634 0.20829 0.0
H133 H 0.61985 0.6094 0.58872 0.0
H134 H 0.63194 0.47454 0.57004 0.0
H135 H 0.64478 0.58183 0.50818 0.0
H136 H 0.61544 0.47662 0.48411 0.0
C137 C 0.61624 0.46475 0.50571 0.0
O138 O 0.64873 0.49532 0.5203 0.0
H139 H 0.58256 0.46409 0.51217 0.0
C140 C 0.62465 0.58618 0.57401 0.0
C141 C 0.63193 0.6024 0.54726 0.0
C142 C 0.62341 0.54004 0.58224 0.0
C143 C 0.63146 0.5099 0.56381 0.0
C144 C 0.63948 0.52502 0.53732 0.0
C145 C 0.63926 0.57099 0.52892 0.0
H146 H 0.13073 0.68199 0.90637 0.0
H147 H 0.26393 0.76373 0.91426 0.0
H148 H 0.16607 0.80296 0.85512 0.0
H149 H 0.29795 0.85314 0.85115 0.0
C150 C 0.26974 0.82302 0.85168 0.0
O151 O 0.24935 0.82322 0.87518 0.0
H152 H 0.24598 0.82775 0.83396 0.0
C153 C 0.1557 0.71088 0.89977 0.0
C154 C 0.14363 0.74058 0.87878 0.0
C155 C 0.19876 0.71877 0.91296 0.0
C156 C 0.23022 0.75727 0.90473 0.0
C157 C 0.2183 0.78755 0.88393 0.0
C158 C 0.17478 0.77976 0.8714 0.0
H159 H 0.10529 0.43352 0.39441 0.0
H160 H 0.19351 0.56427 0.40805 0.0
H161 H 0.13254 0.48543 0.47443 0.0
H162 H 0.15269 0.58817 0.48577 0.0
C163 C 0.16711 0.59654 0.46605 0.0
O164 O 0.18638 0.56118 0.45999 0.0
H165 H 0.1393 0.60098 0.45071 0.0
C166 C 0.12223 0.45982 0.40808 0.0
C167 C 0.11524 0.45454 0.43563 0.0
C168 C 0.15043 0.49923 0.39796 0.0
C169 C 0.17182 0.53353 0.41559 0.0
C170 C 0.1656 0.52815 0.44312 0.0
C171 C 0.13766 0.48869 0.45314 0.0
H172 H 0.60189 0.86842 0.7592 0.0
H173 H 0.60817 1.00745 0.77986 0.0
H174 H 0.59105 0.89933 0.8413 0.0
H175 H 0.55185 0.98885 0.85556 0.0
C176 C 0.56299 1.00445 0.83591 0.0
O177 O 0.60049 0.98894 0.8309 0.0
H178 H 0.53492 0.99306 0.82035 0.0
C179 C 0.60018 0.89283 0.77405 0.0
C180 C 0.59497 0.87742 0.80106 0.0
C181 C 0.60458 0.93948 0.76603 0.0
C182 C 0.60483 0.97135 0.78557 0.0
C183 C 0.59987 0.95705 0.81256 0.0
C184 C 0.59503 0.91012 0.82037 0.0
H185 H 0.74606 0.52282 0.07704 0.0
H186 H 0.60988 0.51368 0.09084 0.0
H187 H 0.7107 0.53421 0.15781 0.0
H188 H 0.60641 0.58635 0.12444 0.0
C189 C 0.59962 0.56247 0.14235 0.0
O190 O 0.62181 0.52615 0.14179 0.0
H191 H 0.61417 0.58283 0.16018 0.0
C192 C 0.72166 0.52231 0.0913 0.0
C193 C 0.73545 0.52698 0.11901 0.0
C194 C 0.67691 0.51672 0.08115 0.0
C195 C 0.64459 0.51873 0.09854 0.0
C196 C 0.65602 0.52645 0.12594 0.0
C197 C 0.70185 0.53035 0.13641 0.0
C198 C 0.34056 0.57963 0.13961 0.0
C199 C 0.30895 0.53856 0.14358 0.0
C200 C 0.38679 0.58037 0.13949 0.0
C201 C 0.40305 0.53901 0.14328 0.0
C202 C 0.37133 0.49739 0.1472 0.0
C203 C 0.32525 0.49766 0.14736 0.0
C204 C 0.4184 0.62583 0.13533 0.0
C205 C 0.38612 0.45224 0.15129 0.0
C206 C 0.51963 0.54048 0.11936 0.0
C207 C 0.5483 0.54794 0.14321 0.0
C208 C 0.47275 0.53625 0.11918 0.0
C209 C 0.45299 0.53957 0.14342 0.0
C210 C 0.48166 0.54523 0.16771 0.0
C211 C 0.52837 0.54926 0.16731 0.0
C212 C 0.44445 0.52994 0.0927 0.0
C213 C 0.46317 0.54889 0.19419 0.0
H214 H 0.32922 0.61167 0.13661 0.0
H215 H 0.30187 0.46548 0.15042 0.0
H216 H 0.44384 0.63183 0.1528 0.0
H217 H 0.43625 0.62526 0.11715 0.0
H218 H 0.40106 0.65505 0.13285 0.0
H219 H 0.3578 0.42274 0.15378 0.0
H220 H 0.40354 0.44658 0.13378 0.0
H221 H 0.41017 0.45304 0.16942 0.0
H222 H 0.53418 0.53991 0.10052 0.0
H223 H 0.5497 0.55546 0.1859 0.0
H224 H 0.42992 0.56066 0.08746 0.0
H225 H 0.41635 0.50004 0.09444 0.0
H226 H 0.46379 0.5247 0.07595 0.0
H227 H 0.44917 0.58028 0.19348 0.0
H228 H 0.48889 0.55042 0.21154 0.0
H229 H 0.43561 0.51911 0.19768 0.0
C230 C 0.92719 0.26846 0.5035 0.0
C231 C 0.92357 0.22467 0.49375 0.0
C232 C 0.9592 0.30588 0.49472 0.0
C233 C 0.98851 0.29917 0.47596 0.0
C234 C 0.98555 0.25484 0.46644 0.0
C235 C 0.95294 0.21814 0.47536 0.0
C236 C 0.96106 0.35276 0.50509 0.0
C237 C 1.01654 0.24628 0.44664 0.0
C238 C 1.04077 0.40134 0.4323 0.0
C239 C 0.08321 0.41431 0.44586 0.0
C240 C 1.0096 0.36401 0.44195 0.0
C241 C 1.02133 0.33882 0.4656 0.0
C242 C 1.06426 0.35156 0.4793 0.0
C243 C 0.09465 0.3894 0.46934 0.0
C244 C 0.96397 0.35178 0.42696 0.0
C245 C 1.07807 0.32517 0.50441 0.0
H246 H 0.90422 0.27365 0.51752 0.0
H247 H 0.95052 0.18417 0.46805 0.0
H248 H 0.99487 0.36685 0.51459 0.0
H249 H 0.95425 0.37675 0.48802 0.0
H250 H 0.93659 0.35197 0.5201 0.0
H251 H 1.011 0.20945 0.44204 0.0
H252 H 1.01174 0.26648 0.42751 0.0
H253 H 1.05165 0.2579 0.45482 0.0
H254 H 1.03168 0.42097 0.41435 0.0
H255 H 0.12758 0.39923 0.47973 0.0
H256 H 0.9381 0.35345 0.44058 0.0
H257 H 0.9577 0.31603 0.42029 0.0
H258 H 0.96006 0.37505 0.40898 0.0
H259 H 1.05561 0.32605 0.52031 0.0
H260 H 0.11285 0.33921 0.51249 0.0
H261 H 1.07505 0.28862 0.49996 0.0
C262 C 0.62444 0.61837 0.81272 0.0
C263 C 0.59195 0.58704 0.82599 0.0
C264 C 0.62426 0.66562 0.8106 0.0
C265 C 0.59093 0.6823 0.82215 0.0
C266 C 0.5585 0.651 0.836 0.0
C267 C 0.55934 0.60389 0.8377 0.0
C268 C 0.65923 0.69761 0.79542 0.0
C269 C 0.52245 0.66714 0.8487 0.0
C270 C 0.61351 0.81176 0.83162 0.0
C271 C 0.59024 0.82723 0.80844 0.0
C272 C 0.61297 0.7646 0.83684 0.0
C273 C 0.58877 0.73206 0.81841 0.0
C274 C 0.56386 0.74736 0.79557 0.0
C275 C 0.56466 0.79448 0.791 0.0
C276 C 0.63945 0.74973 0.86164 0.0
C277 C 0.53747 0.71408 0.77539 0.0
H278 H 0.64983 0.60594 0.80362 0.0
H279 H 0.53408 0.58019 0.84809 0.0
H280 H 0.64305 0.71388 0.77764 0.0
H281 H 0.67741 0.72556 0.80846 0.0
H282 H 0.68369 0.67959 0.78836 0.0
H283 H 0.50103 0.63889 0.8599 0.0
H284 H 0.5375 0.69468 0.8628 0.0
H285 H 0.50106 0.68197 0.83287 0.0
H286 H 0.63351 0.83662 0.84518 0.0
H287 H 0.54572 0.80584 0.77335 0.0
H288 H 0.6672 0.73549 0.85554 0.0
H289 H 0.61818 0.72206 0.87325 0.0
H290 H 0.65358 0.77857 0.87507 0.0
H291 H 0.56026 0.69681 0.76599 0.0
H292 H 0.51871 0.73126 0.75914 0.0
H293 H 0.51357 0.68696 0.78568 0.0
C294 C 0.99683 0.5033 0.1553 0.0
C295 C 1.02579 0.54053 0.1434 0.0
C296 C 0.95045 0.50184 0.1553 0.0
C297 C 0.931 0.53724 0.1417 0.0
C298 C 0.96027 0.57485 0.12954 0.0
C299 C 1.00693 0.57657 0.13113 0.0
C300 C 0.92252 0.46167 0.1698 0.0
C301 C 0.94209 0.61273 0.11387 0.0
C302 C 0.80786 0.5012 0.11356 0.0
C303 C 0.78464 0.52664 0.12792 0.0
C304 C 0.85454 0.50512 0.11753 0.0
C305 C 0.88021 0.53283 0.13792 0.0
C306 C 0.85685 0.5559 0.15411 0.0
C307 C 0.80996 0.55329 0.14865 0.0
C308 C 0.87642 0.48007 0.09916 0.0
C309 C 0.88118 0.58409 0.17712 0.0
H310 H 1.01059 0.47529 0.16509 0.0
H311 H 1.02855 0.60548 0.12171 0.0
H312 H 0.89299 0.47086 0.17726 0.0
H313 H 0.91088 0.43327 0.15582 0.0
H314 H 0.94237 0.44855 0.18721 0.0
H315 H 0.96824 0.63768 0.10381 0.0
H316 H 0.91552 0.59795 0.09829 0.0
H317 H 0.92695 0.63151 0.12763 0.0
H318 H 0.78952 0.47831 0.09842 0.0
H319 H 0.79347 0.57296 0.16032 0.0
H320 H 0.88745 0.45077 0.11055 0.0
H321 H 0.90627 0.50316 0.09156 0.0
H322 H 0.85349 0.46647 0.08156 0.0
H323 H 0.90967 0.5698 0.18665 0.0
H324 H 0.85854 0.58597 0.1928 0.0
H325 H 0.89419 0.61961 0.16941 0.0
C326 C 0.37912 0.80572 0.46624 0.0
C327 C 0.3703 0.84436 0.47755 0.0
C328 C 0.34633 0.76533 0.46341 0.0
C329 C 0.30359 0.76368 0.47188 0.0
C330 C 0.29416 0.80281 0.48277 0.0
C331 C 0.32766 0.84258 0.4856 0.0
C332 C 0.35763 0.72421 0.45175 0.0
C333 C 0.2489 0.80239 0.49194 0.0
C334 C 0.20633 0.67178 0.44549 0.0
C335 C 0.20201 0.64011 0.46755 0.0
C336 C 0.23935 0.7122 0.44657 0.0
C337 C 0.26904 0.7206 0.47011 0.0
C338 C 0.26532 0.68814 0.49222 0.0
C339 C 0.23182 0.64818 0.49063 0.0
C340 C 0.24226 0.74605 0.42264 0.0
C341 C 0.29665 0.69567 0.51755 0.0
H342 H 0.41176 0.80701 0.45962 0.0
H343 H 0.32071 0.87195 0.49476 0.0
H344 H 0.35389 0.69499 0.46686 0.0
H345 H 0.33422 0.71318 0.4339 0.0
H346 H 0.39215 0.73141 0.44562 0.0
H347 H 0.24635 0.83632 0.49886 0.0
H348 H 0.22269 0.79243 0.47524 0.0
H349 H 0.24191 0.77646 0.50877 0.0
H350 H 0.18369 0.66496 0.42746 0.0
H351 H 0.22881 0.62312 0.50744 0.0
H352 H 0.27576 0.75182 0.41518 0.0
H353 H 0.23759 0.77965 0.42881 0.0
H354 H 0.2169 0.73415 0.40577 0.0
H355 H 0.33157 0.70015 0.51252 0.0
H356 H 0.2898 0.66665 0.53269 0.0
H357 H 0.29375 0.72759 0.52683 0.0
C358 C 0.62674 0.28325 0.83784 0.0
C359 C 0.58715 0.29986 0.83451 0.0
C360 C 0.62605 0.2358 0.83839 0.0
C361 C 0.58479 0.20395 0.83579 0.0
C362 C 0.54475 0.22048 0.83272 0.0
C363 C 0.54641 0.26804 0.83201 0.0
C364 C 0.66953 0.21977 0.84147 0.0
C365 C 0.49999 0.18786 0.83013 0.0
C366 C 0.57606 0.083 0.81195 0.0
C367 C 0.5726 0.05646 0.83619 0.0
C368 C 0.58157 0.1311 0.8116 0.0
C369 C 0.5832 0.15334 0.8361 0.0
C370 C 0.58094 0.12674 0.86073 0.0
C371 C 0.57594 0.07872 0.86049 0.0
C372 C 0.58436 0.15799 0.78491 0.0
C373 C 0.58236 0.14884 0.8873 0.0
H374 H 0.65845 0.30737 0.83969 0.0
H375 H 0.51556 0.28026 0.82953 0.0
H376 H 0.67075 0.1963 0.85958 0.0
H377 H 0.67212 0.20009 0.82376 0.0
H378 H 0.6988 0.24877 0.84336 0.0
H379 H 0.47191 0.20605 0.82837 0.0
H380 H 0.49725 0.16723 0.81206 0.0
H381 H 0.49663 0.16351 0.84795 0.0
H382 H 0.57329 0.06594 0.79313 0.0
H383 H 0.57341 0.05838 0.8793 0.0
H384 H 0.61416 0.1864 0.78581 0.0
H385 H 0.55478 0.17369 0.78056 0.0
H386 H 0.58598 0.13615 0.76796 0.0
H387 H 0.61245 0.17665 0.88997 0.0
H388 H 0.58242 0.12379 0.90477 0.0
H389 H 0.55301 0.16476 0.88738 0.0
C390 C 0.61274 0.86414 0.50323 0.0
C391 C 0.64616 0.8946 0.51799 0.0
C392 C 0.6111 0.81653 0.50508 0.0
C393 C 0.64249 0.79867 0.52304 0.0
C394 C 0.67644 0.82947 0.53792 0.0
C395 C 0.67836 0.87709 0.53481 0.0
C396 C 0.57536 0.78532 0.48808 0.0
C397 C 0.70958 0.81203 0.55803 0.0
C398 C 0.60625 0.6764 0.55178 0.0
C399 C 0.63239 0.65204 0.53918 0.0
C400 C 0.60956 0.72386 0.54686 0.0
C401 C 0.63799 0.74781 0.52773 0.0
C402 C 0.66256 0.72325 0.51371 0.0
C403 C 0.6601 0.67599 0.51991 0.0
C404 C 0.58336 0.74858 0.56275 0.0
C405 C 0.69195 0.74702 0.49239 0.0
H406 H 0.58796 0.87764 0.49006 0.0
H407 H 0.70396 0.90055 0.54645 0.0
H408 H 0.59027 0.7617 0.47735 0.0
H409 H 0.5513 0.76387 0.5012 0.0
H410 H 0.55681 0.80485 0.47298 0.0
H411 H 0.73427 0.84037 0.56773 0.0
H412 H 0.69174 0.7901 0.574 0.0
H413 H 0.72766 0.79041 0.548 0.0
H414 H 0.58323 0.65855 0.56586 0.0
H415 H 0.68075 0.65822 0.51002 0.0
H416 H 0.55977 0.76425 0.54891 0.0
H417 H 0.60625 0.77687 0.5736 0.0
H418 H 0.5642 0.72538 0.57773 0.0
H419 H 0.67312 0.76678 0.47764 0.0
H420 H 0.70519 0.72241 0.48136 0.0
H421 H 0.72044 0.77185 0.50188 0.0
C422 C 0.89766 0.64966 0.80943 0.0
C423 C 0.87433 0.62769 0.83101 0.0
C424 C 0.93996 0.67803 0.81407 0.0
C425 C 0.95942 0.68388 0.84087 0.0
C426 C 0.93431 0.6651 0.86272 0.0
C427 C 0.89196 0.63729 0.85751 0.0
C428 C 0.96517 0.69857 0.79027 0.0
C429 C 0.95379 0.67063 0.89163 0.0
C430 C 0.08144 0.6842 0.85682 0.0
C431 C 0.09841 0.7292 0.86473 0.0
C432 C 1.03662 0.6698 0.8477 0.0
C433 C 1.00809 0.70143 0.84614 0.0
C434 C 1.02573 0.7479 0.85213 0.0
C435 C 1.0709 0.76129 0.8615 0.0
C436 C 1.01933 0.61995 0.84136 0.0
C437 C 0.99655 0.78278 0.85016 0.0
H438 H 0.88367 0.643 0.78889 0.0
H439 H 0.87409 0.62034 0.87425 0.0
H440 H 0.98355 0.73413 0.79407 0.0
H441 H 0.98998 0.67792 0.78706 0.0
H442 H 0.94266 0.69901 0.77146 0.0
H443 H 0.92819 0.65917 0.90617 0.0
H444 H 0.97979 0.64992 0.8959 0.0
H445 H 0.96989 0.70696 0.89509 0.0
H446 H 0.10302 0.65964 0.8588 0.0
H447 H 0.08408 0.79617 0.86756 0.0
H448 H 1.00134 0.61719 0.82094 0.0
H449 H 0.99536 0.60338 0.85602 0.0
H450 H 1.04641 0.6005 0.84225 0.0
H451 H 0.97289 0.77837 0.83178 0.0
H452 H 1.01651 0.81848 0.84984 0.0
H453 H 0.97667 0.77783 0.86786 0.0
C454 C 0.36456 0.86503 0.16066 0.0
C455 C 0.36323 0.82041 0.17183 0.0
C456 C 0.40339 0.89934 0.16378 0.0
C457 C 0.44203 0.88879 0.17827 0.0
C458 C 0.44093 0.84395 0.18973 0.0
C459 C 0.40153 0.81033 0.18643 0.0
C460 C 0.40321 0.94676 0.15127 0.0
C461 C 0.48148 0.83139 0.20531 0.0
C462 C 0.55278 0.96552 0.16327 0.0
C463 C 0.56092 0.99506 0.18475 0.0
C464 C 0.51444 0.9304 0.16108 0.0
C465 C 0.48375 0.92461 0.18098 0.0
C466 C 0.49245 0.95376 0.20308 0.0
C467 C 0.53115 0.98849 0.20479 0.0
C468 C 0.50655 0.89978 0.13735 0.0
C469 C 0.4606 0.94863 0.22471 0.0
H470 H 0.33543 0.87298 0.14896 0.0
H471 H 0.40065 0.77614 0.19542 0.0
H472 H 0.41302 0.97267 0.16695 0.0
H473 H 0.42799 0.95536 0.13609 0.0
H474 H 0.37008 0.94973 0.14126 0.0
H475 H 0.47505 0.79511 0.21316 0.0
H476 H 0.50925 0.8368 0.19215 0.0
H477 H 0.49267 0.85404 0.22255 0.0
H478 H 0.57634 0.97017 0.14808 0.0
H479 H 0.53803 0.01088 0.22167 0.0
H480 H 0.47524 0.90339 0.12521 0.0
H481 H 0.50254 0.8633 0.14457 0.0
H482 H 0.53422 0.90803 0.12402 0.0
H483 H 0.42772 0.95406 0.21563 0.0
H484 H 0.47276 0.97339 0.24089 0.0
H485 H 0.4554 0.91329 0.23396 0.0
C486 C 0.60613 0.19621 0.50167 0.0
C487 C 0.64274 0.18027 0.51481 0.0
C488 C 0.60403 0.2429 0.50109 0.0
C489 C 0.63937 0.27488 0.51396 0.0
C490 C 0.67645 0.25914 0.52729 0.0
C491 C 0.67771 0.21214 0.52755 0.0
C492 C 0.56387 0.25802 0.48661 0.0
C493 C 0.71484 0.292 0.54126 0.0
C494 C 0.64783 0.40027 0.48982 0.0
C495 C 0.62557 0.41674 0.50903 0.0
C496 C 0.6537 0.35462 0.4916 0.0
C497 C 0.63728 0.32471 0.51325 0.0
C498 C 0.61648 0.34187 0.53334 0.0
C499 C 0.61095 0.38765 0.531 0.0
C500 C 0.67622 0.33797 0.4698 0.0
C501 C 0.59877 0.31146 0.55687 0.0
H502 H 0.57886 0.17215 0.49173 0.0
H503 H 0.70619 0.20041 0.53776 0.0
H504 H 0.54737 0.27456 0.50085 0.0
H505 H 0.57439 0.28395 0.47029 0.0
H506 H 0.53914 0.22896 0.47764 0.0
H507 H 0.74116 0.27443 0.5508 0.0
H508 H 0.72984 0.31892 0.52656 0.0
H509 H 0.70271 0.30959 0.55704 0.0
H510 H 0.65963 0.42286 0.47298 0.0
H511 H 0.5941 0.40045 0.546 0.0
H512 H 0.65211 0.31111 0.45854 0.0
H513 H 0.70395 0.32212 0.47888 0.0
H514 H 0.68954 0.36611 0.45525 0.0
H515 H 0.57108 0.28365 0.54943 0.0
H516 H 0.58636 0.33078 0.57174 0.0
H517 H 0.62511 0.29491 0.56731 0.0
C518 C 0.36387 0.60237 0.82275 0.0
C519 C 0.36259 0.57134 0.84511 0.0
C520 C 0.34835 0.64306 0.82354 0.0
C521 C 0.33063 0.65259 0.84715 0.0
C522 C 0.32839 0.62089 0.86962 0.0
C523 C 0.34482 0.58075 0.86841 0.0
C524 C 0.35175 0.67629 0.7993 0.0
C525 C 0.30898 0.62958 0.89497 0.0
C526 C 0.32984 0.77667 0.85936 0.0
C527 C 0.28627 0.77928 0.84972 0.0
C528 C 0.34488 0.73565 0.85845 0.0
C529 C 0.3151 0.69613 0.84842 0.0
C530 C 0.27076 0.69843 0.83917 0.0
C531 C 0.25706 0.7402 0.83959 0.0
C532 C 0.3926 0.73462 0.86812 0.0
C533 C 0.23774 0.65677 0.82897 0.0
H534 H 0.37822 0.59539 0.80487 0.0
H535 H 0.3437 0.5566 0.88566 0.0
H536 H 0.31836 0.68261 0.79199 0.0
H537 H 0.373 0.70978 0.80508 0.0
H538 H 0.36603 0.66352 0.78242 0.0
H539 H 0.30789 0.60056 0.91018 0.0
H540 H 0.32911 0.66112 0.90415 0.0
H541 H 0.27471 0.63541 0.89003 0.0
H542 H 0.35218 0.80683 0.86747 0.0
H543 H 0.2232 0.74225 0.83239 0.0
H544 H 0.40942 0.72393 0.85169 0.0
H545 H 0.39369 0.70895 0.88515 0.0
H546 H 0.41168 0.76855 0.87486 0.0
H547 H 0.204 0.66394 0.82359 0.0
H548 H 0.2353 0.62832 0.84457 0.0
H549 H 0.24929 0.64468 0.81089 0.0
C550 C 0.93514 0.26494 0.1556 0.0
C551 C 0.97616 0.2675 0.17092 0.0
C552 C 0.89626 0.23606 0.16405 0.0
C553 C 0.89859 0.20869 0.18823 0.0
C554 C 0.94007 0.21064 0.20355 0.0
C555 C 0.9783 0.24023 0.1948 0.0
C556 C 0.85258 0.23542 0.14734 0.0
C557 C 0.94403 0.18161 0.22927 0.0
C558 C 0.79412 0.16684 0.2248 0.0
C559 C 0.78009 0.12163 0.21647 0.0
C560 C 0.83237 0.19565 0.21556 0.0
C561 C 0.85751 0.17868 0.1978 0.0
C562 C 0.84355 0.13301 0.18937 0.0
C563 C 0.80484 0.10511 0.19868 0.0
C564 C 0.8458 0.24432 0.22474 0.0
C565 C 0.86974 0.1135 0.1707 0.0
H566 H 0.93328 0.28637 0.1373 0.0
H567 H 1.01005 0.24182 0.20654 0.0
H568 H 0.83748 0.20001 0.14121 0.0
H569 H 0.82887 0.24636 0.15958 0.0
H570 H 0.8565 0.25838 0.12891 0.0
H571 H 0.97892 0.18608 0.23839 0.0
H572 H 0.92339 0.19075 0.24421 0.0
H573 H 0.93123 0.1448 0.22519 0.0
H574 H 0.77474 0.17989 0.23829 0.0
H575 H 0.79428 0.07005 0.19239 0.0
H576 H 0.84752 0.26883 0.20698 0.0
H577 H 0.87947 0.2499 0.23568 0.0
H578 H 0.82222 0.25247 0.2382 0.0
H579 H 0.87209 0.13438 0.15146 0.0
H580 H 0.85448 0.07731 0.1661 0.0
H581 H 0.9042 0.11508 0.17996 0.0
C582 C 0.14462 0.59387 0.04682 0.0
C583 C 0.17216 0.56746 0.06134 0.0
C584 C 0.15449 0.61382 0.02136 0.0
C585 C 0.19348 0.6081 0.01041 0.0
C586 C 0.22076 0.58026 0.02462 0.0
C587 C 0.20951 0.55985 0.0499 0.0
C588 C 0.12385 0.64231 0.00659 0.0
C589 C 0.26292 0.57396 0.01383 0.0
C590 C 0.19094 0.64074 0.93591 0.0
C591 C 0.20862 0.68815 0.93644 0.0
C592 C 0.18892 0.61305 0.95975 0.0
C593 C 0.20592 0.63312 0.9846 0.0
C594 C 0.22857 0.67973 0.9848 0.0
C595 C 0.22941 0.70684 0.96069 0.0
C596 C 0.16463 0.56353 0.95856 0.0
C597 C 0.24835 0.70206 0.01081 0.0
H598 H 0.11567 0.59964 0.05564 0.0
H599 H 0.23119 0.53992 0.06131 0.0
H600 H 0.14159 0.67871 0.00482 0.0
H601 H 0.11374 0.63036 0.98583 0.0
H602 H 0.09338 0.6407 0.01704 0.0
H603 H 0.27734 0.54684 0.02552 0.0
H604 H 0.25669 0.56502 -0.00767 0.0
H605 H 0.28793 0.60673 0.01486 0.0
H606 H 0.17593 0.62584 0.91704 0.0
H607 H 0.24334 0.74336 0.96127 0.0
H608 H 0.13125 0.56005 0.9659 0.0
H609 H 0.18265 0.54096 0.97182 0.0
H610 H 0.16017 0.55125 0.93769 0.0
H611 H 0.2212 0.70795 0.02228 0.0
H612 H 0.27119 0.73562 0.00714 0.0
H613 H 0.26686 0.67936 0.02364 0.0
C614 C 0.68122 0.08555 0.42081 0.0
C615 C 0.65734 0.04543 0.43299 0.0
C616 C 0.68613 0.08868 0.39303 0.0
C617 C 0.66764 0.05036 0.37719 0.0
C618 C 0.64366 1.00965 0.38942 0.0
C619 C 0.63832 1.00787 0.41715 0.0
C620 C 0.71107 0.13303 0.38063 0.0
C621 C 0.6243 0.96775 0.37331 0.0
C622 C 0.64839 0.06882 0.30114 0.0
C623 C 0.68687 0.05873 0.29247 0.0
C624 C 0.64178 0.06652 0.3287 0.0
C625 C 0.67398 0.05274 0.34789 0.0
C626 C 0.71259 0.04184 0.33912 0.0
C627 C 0.71882 0.0455 0.3115 0.0
C628 C 0.60069 0.07941 0.3373 0.0
C629 C 0.74721 0.02609 0.3589 0.0
H630 H 0.69568 0.1148 0.43296 0.0
H631 H 0.62011 0.97668 0.42655 0.0
H632 H 0.74095 0.12705 0.37195 0.0
H633 H 0.68975 0.14572 0.36387 0.0
H634 H 0.72185 0.16022 0.39554 0.0
H635 H 0.60692 0.93865 0.3859 0.0
H636 H 0.60036 0.97618 0.35664 0.0
H637 H 0.65117 0.95652 0.364 0.0
H638 H 0.62385 0.07932 0.28636 0.0
H639 H 0.74837 0.0373 0.30468 0.0
H640 H 0.61046 0.10815 0.35122 0.0
H641 H 0.58094 0.05 0.34849 0.0
H642 H 0.57915 0.08991 0.31987 0.0
H643 H 0.76184 0.05342 0.3732 0.0
H644 H 0.77451 0.01732 0.3487 0.0
H645 H 0.73148 0.99548 0.37099 0.0
C646 C 0.60758 0.43349 0.73229 0.0
C647 C 0.57632 0.44876 0.74607 0.0
C648 C 0.61265 0.446 0.70503 0.0
C649 C 0.58561 0.47425 0.69108 0.0
C650 C 0.55252 0.48798 0.70446 0.0
C651 C 0.5483 0.47512 0.73186 0.0
C652 C 0.64835 0.43065 0.69151 0.0
C653 C 0.5228 0.51778 0.69014 0.0
C654 C 0.63432 0.54868 0.63227 0.0
C655 C 0.61348 0.5233 0.61011 0.0
C656 C 0.62506 0.53336 0.65869 0.0
C657 C 0.59407 0.49171 0.66306 0.0
C658 C 0.57268 0.46608 0.64076 0.0
C659 C 0.58274 0.48212 0.61454 0.0
C660 C 0.64895 0.56141 0.68197 0.0
C661 C 0.53934 0.42163 0.64462 0.0
H662 H 0.62928 0.41291 0.74304 0.0
H663 H 0.52403 0.487 0.74233 0.0
H664 H 0.63404 0.41377 0.67249 0.0
H665 H 0.6742 0.46099 0.68613 0.0
H666 H 0.66465 0.40642 0.70465 0.0
H667 H 0.49624 0.52215 0.70262 0.0
H668 H 0.54303 0.55219 0.68513 0.0
H669 H 0.50705 0.50275 0.67086 0.0
H670 H 0.65847 0.58024 0.62895 0.0
H671 H 0.56617 0.46269 0.59744 0.0
H672 H 0.6691 0.54084 0.69525 0.0
H673 H 0.62445 0.57055 0.69435 0.0
H674 H 0.67129 0.59353 0.6751 0.0
H675 H 0.55558 0.39633 0.65677 0.0
H676 H 0.5247 0.40648 0.62513 0.0
H677 H 0.51206 0.42749 0.65597 0.0
C678 C 0.66201 0.99029 0.61359 0.0
C679 C 0.63484 0.01639 0.59825 0.0
C680 C 0.65694 0.97925 0.64101 0.0
C681 C 0.62422 0.9951 0.65353 0.0
C682 C 0.59716 0.02211 0.63832 0.0
C683 C 0.6026 0.03221 0.61078 0.0
C684 C 0.68612 0.94993 0.65647 0.0
C685 C 0.56226 0.04002 0.65109 0.0
C686 C 0.58318 0.92825 0.71666 0.0
C687 C 0.60873 0.95471 0.7372 0.0
C688 C 0.58749 0.94134 0.68937 0.0
C689 C 0.61768 0.98221 0.68238 0.0
C690 C 0.64287 1.00964 0.70295 0.0
C691 C 0.63828 0.99544 0.73011 0.0
C692 C 0.56022 0.91101 0.668 0.0
C693 C 0.67524 0.05358 0.69627 0.0
H694 H 0.68685 0.97767 0.60405 0.0
H695 H 0.58161 0.05255 0.59909 0.0
H696 H 0.70474 0.96822 0.67413 0.0
H697 H 0.66518 0.91773 0.6643 0.0
H698 H 0.71039 0.94087 0.64383 0.0
H699 H 0.54506 0.06195 0.63675 0.0
H700 H 0.53703 0.01086 0.6586 0.0
H701 H 0.57774 0.06031 0.66875 0.0
H702 H 0.55962 0.89722 0.72192 0.0
H703 H 0.65854 0.01585 0.7458 0.0
H704 H 0.58264 0.89865 0.65545 0.0
H705 H 0.5399 0.93091 0.65437 0.0
H706 H 0.53768 0.88074 0.6768 0.0
H707 H 0.70232 0.04578 0.6855 0.0
H708 H 0.69033 0.07238 0.71458 0.0
H709 H 0.65819 0.07646 0.68258 0.0
C710 C 0.65268 0.49758 0.92174 0.0
C711 C 0.61628 0.46397 0.91217 0.0
C712 C 0.66085 0.50648 0.94927 0.0
C713 C 0.63212 0.48096 0.96778 0.0
C714 C 0.59521 0.4471 0.95829 0.0
C715 C 0.58763 0.43911 0.93057 0.0
C716 C 0.70044 0.54304 0.95858 0.0
C717 C 0.56402 0.419 0.97746 0.0
C718 C 0.68113 0.47368 0.04041 0.0
C719 C 0.66397 0.50677 0.05229 0.0
C720 C 0.67028 0.46432 0.01307 0.0
C721 C 0.64171 0.4888 -0.00285 0.0
C722 C 0.6237 0.52178 0.0091 0.0
C723 C 0.63492 0.53025 0.0366 0.0
C724 C 0.68986 0.42862 0.00116 0.0
C725 C 0.59335 0.54876 -0.00729 0.0
H726 H 0.67487 0.51723 0.90769 0.0
H727 H 0.5594 0.41313 0.92338 0.0
H728 H 0.68941 0.56899 0.96974 0.0
H729 H 0.72377 0.52743 0.97269 0.0
H730 H 0.71876 0.5608 0.94152 0.0
H731 H 0.53635 0.39463 0.96681 0.0
H732 H 0.58269 0.3992 -0.00773 0.0
H733 H 0.54967 0.44196 0.98904 0.0
H734 H 0.70301 0.4549 0.0526 0.0
H735 H 0.62176 0.55598 0.0457 0.0
H736 H 0.7112 0.44488 0.98509 0.0
H737 H 0.66289 0.40211 0.99167 0.0
H738 H 0.71018 0.41143 0.01652 0.0
H739 H 0.61144 0.56975 0.97652 0.0
H740 H 0.58085 0.57193 0.00523 0.0
H741 H 0.56445 0.52505 0.98275 0.0
C742 C 0.13162 0.49859 0.23808 0.0
C743 C 0.16958 0.52374 0.22666 0.0
C744 C 0.12946 0.4952 0.26612 0.0
C745 C 0.1666 0.51656 0.28314 0.0
C746 C 0.20538 0.54125 0.27174 0.0
C747 C 0.20619 0.54504 0.24357 0.0
C748 C 0.08717 0.4694 0.27749 0.0
C749 C 0.24599 0.56353 0.28929 0.0
C750 C 0.14669 0.54313 0.35381 0.0
C751 C 0.15663 0.50479 0.36885 0.0
C752 C 0.15 0.54754 0.32586 0.0
C753 C 0.16459 0.51327 0.31288 0.0
C754 C 0.17586 0.47511 0.3282 0.0
C755 C 0.1712 0.47105 0.35601 0.0
C756 C 0.13677 0.5882 0.31012 0.0
C757 C 0.19247 0.43842 0.31518 0.0
H758 H 0.10309 0.4824 0.22504 0.0
H759 H 0.2357 0.56427 0.23478 0.0
H760 H 0.0942 0.44052 0.29117 0.0
H761 H 1.07392 0.49248 0.28963 0.0
H762 H 1.06104 0.45543 0.26145 0.0
H763 H 0.27402 0.58008 0.27729 0.0
H764 H 0.23763 0.58992 0.3014 0.0
H765 H 0.25719 0.53751 0.30369 0.0
H766 H 0.13509 0.56897 0.36383 0.0
H767 H 0.17913 0.44157 0.36779 0.0
H768 H 0.10869 0.57607 0.29484 0.0
H769 H 0.16486 0.60753 0.29907 0.0
H770 H 0.12654 0.61202 0.3233 0.0
H771 H 0.16612 0.4206 0.30044 0.0
H772 H 0.20234 0.41246 0.3302 0.0
H773 H 0.22152 0.45423 0.30387 0.0
loop_
_geom_bond_atom_site_label_1
_geom_bond_atom_site_label_2
_geom_bond_distance
_geom_bond_site_symmetry_2
_ccdc_geom_bond_type
Dy0 O3 2.307 1_455 S
Dy0 O5 2.395 . S
Dy0 O6 2.379 . S
Dy0 O8 2.339 . S
Dy0 O10 2.298 . S
Dy0 O14 2.275 . S
Dy0 C22 2.738 . S
Dy1 O4 2.298 . S
Dy1 O7 2.275 1_655 S
Dy1 O9 2.307 1_655 S
Dy1 O11 2.395 . S
Dy1 O12 2.379 . S
Dy1 O15 2.340 . S
Dy1 C31 2.738 . S
C2 O14 1.254 . S
C2 O15 1.256 1_455 S
O3 Dy0 2.307 1_655 S
O3 C13 1.266 . S
O4 Dy1 2.298 . S
O4 C13 1.236 . S
O5 Dy0 2.395 . S
O5 C22 1.255 . S
O6 Dy0 2.379 . S
O6 C22 1.249 . S
O7 Dy1 2.275 1_455 S
O7 C23 1.254 . S
O8 Dy0 2.339 . S
O8 C23 1.257 . S
O9 Dy1 2.307 1_455 S
O9 C24 1.266 . S
O10 Dy0 2.298 . S
O10 C24 1.236 . S
O11 Dy1 2.395 . S
O11 C31 1.255 . S
O12 Dy1 2.379 . S
O12 C31 1.249 . S
C13 O3 1.266 . S
C13 O4 1.236 . S
O14 Dy0 2.275 . S
O14 C2 1.254 . S
O15 Dy1 2.340 . S
O15 C2 1.256 1_655 S
C16 C19 1.344 . S
C16 C20 1.328 . S
C16 C22 1.516 . S
C17 C18 1.304 . S
C17 C21 1.323 . S
C18 C17 1.304 . S
C18 C19 1.371 . S
C18 H32 0.930 . S
C19 C16 1.344 . S
C19 C18 1.371 . S
C19 H33 0.931 . S
C20 C16 1.328 . S
C20 C21 1.433 . S
C20 H34 0.931 . S
C21 C17 1.323 . S
C21 C20 1.433 . S
C21 H35 0.933 . S
C22 Dy0 2.738 . S
C22 O5 1.255 . S
C22 O6 1.249 . S
C22 C16 1.516 . S
C23 O7 1.254 . S
C23 O8 1.257 . S
C24 O9 1.266 . S
C24 O10 1.236 . S
C25 C28 1.344 . S
C25 C29 1.328 . S
C25 C31 1.516 . S
C26 C27 1.304 . S
C26 C30 1.323 . S
C27 C26 1.304 . S
C27 C28 1.371 . S
C27 H36 0.930 . S
C28 C25 1.344 . S
C28 C27 1.371 . S
C28 H37 0.931 . S
C29 C25 1.328 . S
C29 C30 1.433 . S
C29 H38 0.931 . S
C30 C26 1.323 . S
C30 C29 1.433 . S
C30 H39 0.933 . S
C31 Dy1 2.738 . S
C31 O11 1.255 . S
C31 O12 1.249 . S
C31 C25 1.516 . S
H32 C18 0.930 . S
H33 C19 0.931 . S
H34 C20 0.931 . S
H35 C21 0.933 . S
H36 C27 0.930 . S
H37 C28 0.931 . S
H38 C29 0.931 . S
H39 C30 0.933 . S
Dy40 O43 2.307 1_565 S
Dy40 O45 2.395 . S
Dy40 O46 2.379 . S
Dy40 O48 2.339 1_565 S
Dy40 O50 2.298 . S
Dy40 O54 2.275 1_565 S
Dy40 C62 2.738 . S
Dy41 O44 2.298 . S
Dy41 O47 2.275 . S
Dy41 O49 2.307 1_545 S
Dy41 O51 2.395 . S
Dy41 O52 2.379 . S
Dy41 O55 2.339 . S
Dy41 C71 2.738 . S
C42 O54 1.254 . S
C42 O55 1.257 . S
O43 Dy40 2.307 1_545 S
O43 C53 1.266 . S
O44 Dy41 2.298 . S
O44 C53 1.236 . S
O45 Dy40 2.395 . S
O45 C62 1.255 . S
O46 Dy40 2.379 . S
O46 C62 1.249 . S
O47 Dy41 2.275 . S
O47 C63 1.254 . S
O48 Dy40 2.339 1_545 S
O48 C63 1.257 . S
O49 Dy41 2.307 1_565 S
O49 C64 1.266 . S
O50 Dy40 2.298 . S
O50 C64 1.236 . S
O51 Dy41 2.395 . S
O51 C71 1.255 . S
O52 Dy41 2.379 . S
O52 C71 1.249 . S
C53 O43 1.266 . S
C53 O44 1.236 . S
O54 Dy40 2.275 1_545 S
O54 C42 1.254 . S
O55 Dy41 2.339 . S
O55 C42 1.257 . S
C56 C59 1.344 . S
C56 C60 1.328 . S
C56 C62 1.516 . S
C57 C58 1.304 . S
C57 C61 1.323 . S
C58 C57 1.304 . S
C58 C59 1.371 . S
C58 H72 0.930 . S
C59 C56 1.344 . S
C59 C58 1.371 . S
C59 H73 0.931 . S
C60 C56 1.328 . S
C60 C61 1.433 . S
C60 H74 0.931 . S
C61 C57 1.323 . S
C61 C60 1.433 . S
C61 H75 0.933 . S
C62 Dy40 2.738 . S
C62 O45 1.255 . S
C62 O46 1.249 . S
C62 C56 1.516 . S
C63 O47 1.254 . S
C63 O48 1.257 . S
C64 O49 1.266 . S
C64 O50 1.236 . S
C65 C68 1.344 . S
C65 C69 1.328 . S
C65 C71 1.516 . S
C66 C67 1.304 . S
C66 C70 1.323 . S
C67 C66 1.304 . S
C67 C68 1.371 . S
C67 H76 0.930 . S
C68 C65 1.344 . S
C68 C67 1.371 . S
C68 H77 0.931 . S
C69 C65 1.328 . S
C69 C70 1.433 . S
C69 H78 0.931 . S
C70 C66 1.323 . S
C70 C69 1.433 . S
C70 H79 0.933 . S
C71 Dy41 2.738 . S
C71 O51 1.255 . S
C71 O52 1.249 . S
C71 C65 1.516 . S
H72 C58 0.930 . S
H73 C59 0.931 . S
H74 C60 0.931 . S
H75 C61 0.933 . S
H76 C67 0.930 . S
H77 C68 0.931 . S
H78 C69 0.931 . S
H79 C70 0.933 . S
Dy80 O83 2.307 . S
Dy80 O85 2.395 . S
Dy80 O86 2.379 . S
Dy80 O88 2.339 . S
Dy80 O90 2.298 . S
Dy80 O94 2.275 . S
Dy80 C102 2.738 . S
Dy81 O84 2.298 . S
Dy81 O87 2.275 . S
Dy81 O89 2.307 . S
Dy81 O91 2.395 . S
Dy81 O92 2.379 . S
Dy81 O95 2.339 . S
Dy81 C111 2.738 . S
C82 O94 1.254 . S
C82 O95 1.257 . S
O83 Dy80 2.307 . S
O83 C93 1.266 . S
O84 Dy81 2.298 . S
O84 C93 1.236 . S
O85 Dy80 2.395 . S
O85 C102 1.255 . S
O86 Dy80 2.379 . S
O86 C102 1.249 . S
O87 Dy81 2.275 . S
O87 C103 1.254 . S
O88 Dy80 2.339 . S
O88 C103 1.257 . S
O89 Dy81 2.307 . S
O89 C104 1.266 . S
O90 Dy80 2.298 . S
O90 C104 1.236 . S
O91 Dy81 2.395 . S
O91 C111 1.255 . S
O92 Dy81 2.379 . S
O92 C111 1.249 . S
C93 O83 1.266 . S
C93 O84 1.236 . S
O94 Dy80 2.275 . S
O94 C82 1.254 . S
O95 Dy81 2.339 . S
O95 C82 1.257 . S
C96 C99 1.344 . S
C96 C100 1.328 . S
C96 C102 1.516 . S
C97 C98 1.304 . S
C97 C101 1.323 . S
C98 C97 1.304 . S
C98 C99 1.371 . S
C98 H112 0.930 . S
C99 C96 1.344 . S
C99 C98 1.371 . S
C99 H113 0.931 . S
C100 C96 1.328 . S
C100 C101 1.433 . S
C100 H114 0.931 . S
C101 C97 1.323 . S
C101 C100 1.433 . S
C101 H115 0.933 . S
C102 Dy80 2.738 . S
C102 O85 1.255 . S
C102 O86 1.249 . S
C102 C96 1.516 . S
C103 O87 1.254 . S
C103 O88 1.257 . S
C104 O89 1.266 . S
C104 O90 1.236 . S
C105 C108 1.344 . S
C105 C109 1.328 . S
C105 C111 1.516 . S
C106 C107 1.304 . S
C106 C110 1.323 . S
C107 C106 1.304 . S
C107 C108 1.371 . S
C107 H116 0.930 . S
C108 C105 1.344 . S
C108 C107 1.371 . S
C108 H117 0.931 . S
C109 C105 1.328 . S
C109 C110 1.433 . S
C109 H118 0.931 . S
C110 C106 1.323 . S
C110 C109 1.433 . S
C110 H119 0.933 . S
C111 Dy81 2.738 . S
C111 O91 1.255 . S
C111 O92 1.249 . S
C111 C105 1.516 . S
H112 C98 0.930 . S
H113 C99 0.931 . S
H114 C100 0.931 . S
H115 C101 0.933 . S
H116 C107 0.930 . S
H117 C108 0.931 . S
H118 C109 0.931 . S
H119 C110 0.933 . S
H120 C127 0.929 . S
H121 C130 0.930 1_565 S
H122 C132 0.929 . S
H123 C124 0.969 . S
C124 H123 0.969 . S
C124 O125 1.550 . S
C124 H126 0.973 . S
O125 C124 1.550 . S
O125 C131 1.412 1_565 S
H126 C124 0.973 . S
C127 H120 0.929 . S
C127 C128 1.400 . S
C127 C129 1.364 . S
C128 C127 1.400 . S
C128 C132 1.377 . S
C129 C127 1.364 . S
C129 C130 1.374 . S
C130 H121 0.930 1_545 S
C130 C129 1.374 . S
C130 C131 1.383 . S
C131 O125 1.412 1_545 S
C131 C130 1.383 . S
C131 C132 1.394 . S
C132 H122 0.929 . S
C132 C128 1.377 . S
C132 C131 1.394 . S
H133 C140 0.929 . S
H134 C143 0.930 . S
H135 C145 0.929 . S
H136 C137 0.969 . S
C137 H136 0.969 . S
C137 O138 1.550 . S
C137 H139 0.973 . S
O138 C137 1.550 . S
O138 C144 1.412 . S
H139 C137 0.973 . S
C140 H133 0.929 . S
C140 C141 1.400 . S
C140 C142 1.364 . S
C141 C140 1.400 . S
C141 C145 1.377 . S
C142 C140 1.364 . S
C142 C143 1.374 . S
C143 H134 0.930 . S
C143 C142 1.374 . S
C143 C144 1.383 . S
C144 O138 1.412 . S
C144 C143 1.383 . S
C144 C145 1.394 . S
C145 H135 0.929 . S
C145 C141 1.377 . S
C145 C144 1.394 . S
H146 C153 0.929 1_655 S
H147 C156 0.930 . S
H148 C158 0.929 . S
H149 C150 0.969 . S
C150 H149 0.969 . S
C150 O151 1.550 . S
C150 H152 0.973 . S
O151 C150 1.550 . S
O151 C157 1.412 . S
H152 C150 0.973 . S
C153 H146 0.929 1_455 S
C153 C154 1.400 . S
C153 C155 1.364 . S
C154 C153 1.400 . S
C154 C158 1.377 . S
C155 C153 1.364 . S
C155 C156 1.374 . S
C156 H147 0.930 . S
C156 C155 1.374 . S
C156 C157 1.383 . S
C157 O151 1.412 . S
C157 C156 1.383 . S
C157 C158 1.394 . S
C158 H148 0.929 . S
C158 C154 1.377 . S
C158 C157 1.394 . S
H159 C166 0.929 1_655 S
H160 C169 0.930 . S
H161 C171 0.929 . S
H162 C163 0.969 . S
C163 H162 0.969 . S
C163 O164 1.550 . S
C163 H165 0.973 . S
O164 C163 1.550 . S
O164 C170 1.412 . S
H165 C163 0.973 . S
C166 H159 0.929 1_455 S
C166 C167 1.400 . S
C166 C168 1.364 . S
C167 C166 1.400 . S
C167 C171 1.377 . S
C168 C166 1.364 . S
C168 C169 1.374 . S
C169 H160 0.930 . S
C169 C168 1.374 . S
C169 C170 1.383 . S
C170 O164 1.412 . S
C170 C169 1.383 . S
C170 C171 1.394 . S
C171 H161 0.929 . S
C171 C167 1.377 . S
C171 C170 1.394 . S
H172 C179 0.929 . S
H173 C182 0.930 . S
H174 C184 0.929 . S
H175 C176 0.969 . S
C176 H175 0.969 . S
C176 O177 1.550 . S
C176 H178 0.973 . S
O177 C176 1.550 . S
O177 C183 1.412 . S
H178 C176 0.973 . S
C179 H172 0.929 . S
C179 C180 1.400 . S
C179 C181 1.364 1_565 S
C180 C179 1.400 . S
C180 C184 1.377 . S
C181 C179 1.364 1_545 S
C181 C182 1.374 . S
C182 H173 0.930 . S
C182 C181 1.374 . S
C182 C183 1.383 . S
C183 O177 1.412 . S
C183 C182 1.383 . S
C183 C184 1.394 1_545 S
C184 H174 0.929 . S
C184 C180 1.377 . S
C184 C183 1.394 1_565 S
H185 C192 0.929 . S
H186 C195 0.930 . S
H187 C197 0.929 . S
H188 C189 0.969 . S
C189 H188 0.969 . S
C189 O190 1.550 . S
C189 H191 0.973 . S
O190 C189 1.550 . S
O190 C196 1.412 . S
H191 C189 0.973 . S
C192 H185 0.929 . S
C192 C193 1.400 . S
C192 C194 1.364 . S
C193 C192 1.400 . S
C193 C197 1.377 . S
C194 C192 1.364 . S
C194 C195 1.374 . S
C195 H186 0.930 . S
C195 C194 1.374 . S
C195 C196 1.383 . S
C196 O190 1.412 . S
C196 C195 1.383 . S
C196 C197 1.394 . S
C197 H187 0.929 . S
C197 C193 1.377 . S
C197 C196 1.394 . S
C198 C199 1.391 . S
C198 C200 1.394 . S
C198 H214 0.931 . S
C199 C198 1.391 . S
C199 C203 1.376 . S
C200 C198 1.394 . S
C200 C201 1.369 . S
C200 C204 1.531 . S
C201 C200 1.369 . S
C201 C202 1.410 . S
C201 C209 1.503 . S
C202 C201 1.410 . S
C202 C203 1.392 . S
C202 C205 1.511 . S
C203 C199 1.376 . S
C203 C202 1.392 . S
C203 H215 0.929 . S
C204 C200 1.531 . S
C204 H216 0.960 . S
C204 H217 0.962 . S
C204 H218 0.960 . S
C205 C202 1.511 . S
C205 H219 0.961 . S
C205 H220 0.961 . S
C205 H221 0.961 . S
C206 C207 1.370 . S
C206 C208 1.363 . S
C206 H222 0.931 . S
C207 C206 1.370 . S
C207 C211 1.408 . S
C208 C206 1.363 . S
C208 C209 1.370 . S
C208 C212 1.524 . S
C209 C201 1.503 . S
C209 C208 1.370 . S
C209 C210 1.403 . S
C210 C209 1.403 . S
C210 C211 1.404 . S
C210 C213 1.539 . S
C211 C207 1.408 . S
C211 C210 1.404 . S
C211 H223 0.930 . S
C212 C208 1.524 . S
C212 H224 0.956 . S
C212 H225 0.961 . S
C212 H226 0.961 . S
C213 C210 1.539 . S
C213 H227 0.958 . S
C213 H228 0.961 . S
C213 H229 0.960 . S
H214 C198 0.931 . S
H215 C203 0.929 . S
H216 C204 0.960 . S
H217 C204 0.962 . S
H218 C204 0.960 . S
H219 C205 0.961 . S
H220 C205 0.961 . S
H221 C205 0.961 . S
H222 C206 0.931 . S
H223 C211 0.930 . S
H224 C212 0.956 . S
H225 C212 0.961 . S
H226 C212 0.961 . S
H227 C213 0.958 . S
H228 C213 0.961 . S
H229 C213 0.960 . S
C230 C231 1.391 . S
C230 C232 1.394 . S
C230 H246 0.931 . S
C231 C230 1.391 . S
C231 C235 1.376 . S
C232 C230 1.394 . S
C232 C233 1.369 . S
C232 C236 1.531 . S
C233 C232 1.369 . S
C233 C234 1.410 . S
C233 C241 1.503 . S
C234 C233 1.410 . S
C234 C235 1.392 . S
C234 C237 1.511 . S
C235 C231 1.376 . S
C235 C234 1.392 . S
C235 H247 0.929 . S
C236 C232 1.531 . S
C236 H248 0.960 . S
C236 H249 0.962 . S
C236 H250 0.960 . S
C237 C234 1.511 . S
C237 H251 0.961 . S
C237 H252 0.961 . S
C237 H253 0.961 . S
C238 C239 1.370 . S
C238 C240 1.363 . S
C238 H254 0.931 . S
C239 C238 1.370 . S
C239 C243 1.408 1_655 S
C240 C238 1.363 . S
C240 C241 1.370 . S
C240 C244 1.524 . S
C241 C233 1.503 . S
C241 C240 1.370 . S
C241 C242 1.403 . S
C242 C241 1.403 . S
C242 C243 1.404 1_655 S
C242 C245 1.539 1_655 S
C243 C239 1.408 1_455 S
C243 C242 1.404 1_455 S
C243 H255 0.930 . S
C244 C240 1.524 . S
C244 H256 0.956 . S
C244 H257 0.961 . S
C244 H258 0.961 . S
C245 C242 1.539 1_455 S
C245 H259 0.958 . S
C245 H260 0.961 . S
C245 H261 0.960 1_455 S
H246 C230 0.931 . S
H247 C235 0.929 . S
H248 C236 0.960 . S
H249 C236 0.962 . S
H250 C236 0.960 . S
H251 C237 0.961 . S
H252 C237 0.961 . S
H253 C237 0.961 . S
H254 C238 0.931 . S
H255 C243 0.930 . S
H256 C244 0.956 . S
H257 C244 0.961 . S
H258 C244 0.961 . S
H259 C245 0.958 . S
H260 C245 0.961 . S
H261 C245 0.960 1_655 S
C262 C263 1.391 . S
C262 C264 1.394 . S
C262 H278 0.931 . S
C263 C262 1.391 . S
C263 C267 1.376 . S
C264 C262 1.394 . S
C264 C265 1.369 . S
C264 C268 1.531 . S
C265 C264 1.369 . S
C265 C266 1.410 . S
C265 C273 1.503 . S
C266 C265 1.410 . S
C266 C267 1.392 . S
C266 C269 1.511 . S
C267 C263 1.376 . S
C267 C266 1.392 . S
C267 H279 0.929 . S
C268 C264 1.531 . S
C268 H280 0.960 . S
C268 H281 0.962 . S
C268 H282 0.960 . S
C269 C266 1.511 . S
C269 H283 0.961 . S
C269 H284 0.961 . S
C269 H285 0.961 . S
C270 C271 1.370 . S
C270 C272 1.363 . S
C270 H286 0.931 . S
C271 C270 1.370 . S
C271 C275 1.408 . S
C272 C270 1.363 . S
C272 C273 1.370 . S
C272 C276 1.524 . S
C273 C265 1.503 . S
C273 C272 1.370 . S
C273 C274 1.403 . S
C274 C273 1.403 . S
C274 C275 1.404 . S
C274 C277 1.539 . S
C275 C271 1.408 . S
C275 C274 1.404 . S
C275 H287 0.930 . S
C276 C272 1.524 . S
C276 H288 0.956 . S
C276 H289 0.961 . S
C276 H290 0.961 . S
C277 C274 1.539 . S
C277 H291 0.958 . S
C277 H292 0.961 . S
C277 H293 0.960 . S
H278 C262 0.931 . S
H279 C267 0.929 . S
H280 C268 0.960 . S
H281 C268 0.962 . S
H282 C268 0.960 . S
H283 C269 0.961 . S
H284 C269 0.961 . S
H285 C269 0.961 . S
H286 C270 0.931 . S
H287 C275 0.930 . S
H288 C276 0.956 . S
H289 C276 0.961 . S
H290 C276 0.961 . S
H291 C277 0.958 . S
H292 C277 0.961 . S
H293 C277 0.960 . S
C294 C295 1.391 . S
C294 C296 1.394 . S
C294 H310 0.931 . S
C295 C294 1.391 . S
C295 C299 1.376 . S
C296 C294 1.394 . S
C296 C297 1.369 . S
C296 C300 1.531 . S
C297 C296 1.369 . S
C297 C298 1.410 . S
C297 C305 1.503 . S
C298 C297 1.410 . S
C298 C299 1.392 . S
C298 C301 1.511 . S
C299 C295 1.376 . S
C299 C298 1.392 . S
C299 H311 0.929 . S
C300 C296 1.531 . S
C300 H312 0.960 . S
C300 H313 0.962 . S
C300 H314 0.960 . S
C301 C298 1.511 . S
C301 H315 0.961 . S
C301 H316 0.961 . S
C301 H317 0.961 . S
C302 C303 1.370 . S
C302 C304 1.363 . S
C302 H318 0.931 . S
C303 C302 1.370 . S
C303 C307 1.408 . S
C304 C302 1.363 . S
C304 C305 1.370 . S
C304 C308 1.524 . S
C305 C297 1.503 . S
C305 C304 1.370 . S
C305 C306 1.403 . S
C306 C305 1.403 . S
C306 C307 1.404 . S
C306 C309 1.539 . S
C307 C303 1.408 . S
C307 C306 1.404 . S
C307 H319 0.930 . S
C308 C304 1.524 . S
C308 H320 0.956 . S
C308 H321 0.961 . S
C308 H322 0.961 . S
C309 C306 1.539 . S
C309 H323 0.958 . S
C309 H324 0.961 . S
C309 H325 0.960 . S
H310 C294 0.931 . S
H311 C299 0.929 . S
H312 C300 0.960 . S
H313 C300 0.962 . S
H314 C300 0.960 . S
H315 C301 0.961 . S
H316 C301 0.961 . S
H317 C301 0.961 . S
H318 C302 0.931 . S
H319 C307 0.930 . S
H320 C308 0.956 . S
H321 C308 0.961 . S
H322 C308 0.961 . S
H323 C309 0.958 . S
H324 C309 0.961 . S
H325 C309 0.960 . S
C326 C327 1.391 . S
C326 C328 1.394 . S
C326 H342 0.931 . S
C327 C326 1.391 . S
C327 C331 1.376 . S
C328 C326 1.394 . S
C328 C329 1.369 . S
C328 C332 1.531 . S
C329 C328 1.369 . S
C329 C330 1.410 . S
C329 C337 1.503 . S
C330 C329 1.410 . S
C330 C331 1.392 . S
C330 C333 1.511 . S
C331 C327 1.376 . S
C331 C330 1.392 . S
C331 H343 0.929 . S
C332 C328 1.531 . S
C332 H344 0.960 . S
C332 H345 0.962 . S
C332 H346 0.960 . S
C333 C330 1.511 . S
C333 H347 0.961 . S
C333 H348 0.961 . S
C333 H349 0.961 . S
C334 C335 1.370 . S
C334 C336 1.363 . S
C334 H350 0.931 . S
C335 C334 1.370 . S
C335 C339 1.408 . S
C336 C334 1.363 . S
C336 C337 1.370 . S
C336 C340 1.524 . S
C337 C329 1.503 . S
C337 C336 1.370 . S
C337 C338 1.403 . S
C338 C337 1.403 . S
C338 C339 1.404 . S
C338 C341 1.539 . S
C339 C335 1.408 . S
C339 C338 1.404 . S
C339 H351 0.930 . S
C340 C336 1.524 . S
C340 H352 0.956 . S
C340 H353 0.961 . S
C340 H354 0.961 . S
C341 C338 1.539 . S
C341 H355 0.958 . S
C341 H356 0.961 . S
C341 H357 0.960 . S
H342 C326 0.931 . S
H343 C331 0.929 . S
H344 C332 0.960 . S
H345 C332 0.962 . S
H346 C332 0.960 . S
H347 C333 0.961 . S
H348 C333 0.961 . S
H349 C333 0.961 . S
H350 C334 0.931 . S
H351 C339 0.930 . S
H352 C340 0.956 . S
H353 C340 0.961 . S
H354 C340 0.961 . S
H355 C341 0.958 . S
H356 C341 0.961 . S
H357 C341 0.960 . S
C358 C359 1.391 . S
C358 C360 1.394 . S
C358 H374 0.931 . S
C359 C358 1.391 . S
C359 C363 1.376 . S
C360 C358 1.394 . S
C360 C361 1.369 . S
C360 C364 1.531 . S
C361 C360 1.369 . S
C361 C362 1.410 . S
C361 C369 1.503 . S
C362 C361 1.410 . S
C362 C363 1.392 . S
C362 C365 1.511 . S
C363 C359 1.376 . S
C363 C362 1.392 . S
C363 H375 0.929 . S
C364 C360 1.531 . S
C364 H376 0.960 . S
C364 H377 0.962 . S
C364 H378 0.960 . S
C365 C362 1.511 . S
C365 H379 0.961 . S
C365 H380 0.961 . S
C365 H381 0.961 . S
C366 C367 1.370 . S
C366 C368 1.363 . S
C366 H382 0.931 . S
C367 C366 1.370 . S
C367 C371 1.408 . S
C368 C366 1.363 . S
C368 C369 1.370 . S
C368 C372 1.524 . S
C369 C361 1.503 . S
C369 C368 1.370 . S
C369 C370 1.403 . S
C370 C369 1.403 . S
C370 C371 1.404 . S
C370 C373 1.539 . S
C371 C367 1.408 . S
C371 C370 1.404 . S
C371 H383 0.930 . S
C372 C368 1.524 . S
C372 H384 0.956 . S
C372 H385 0.961 . S
C372 H386 0.961 . S
C373 C370 1.539 . S
C373 H387 0.958 . S
C373 H388 0.961 . S
C373 H389 0.960 . S
H374 C358 0.931 . S
H375 C363 0.929 . S
H376 C364 0.960 . S
H377 C364 0.962 . S
H378 C364 0.960 . S
H379 C365 0.961 . S
H380 C365 0.961 . S
H381 C365 0.961 . S
H382 C366 0.931 . S
H383 C371 0.930 . S
H384 C372 0.956 . S
H385 C372 0.961 . S
H386 C372 0.961 . S
H387 C373 0.958 . S
H388 C373 0.961 . S
H389 C373 0.960 . S
C390 C391 1.391 . S
C390 C392 1.394 . S
C390 H406 0.931 . S
C391 C390 1.391 . S
C391 C395 1.376 . S
C392 C390 1.394 . S
C392 C393 1.369 . S
C392 C396 1.531 . S
C393 C392 1.369 . S
C393 C394 1.410 . S
C393 C401 1.503 . S
C394 C393 1.410 . S
C394 C395 1.392 . S
C394 C397 1.511 . S
C395 C391 1.376 . S
C395 C394 1.392 . S
C395 H407 0.929 . S
C396 C392 1.531 . S
C396 H408 0.960 . S
C396 H409 0.962 . S
C396 H410 0.960 . S
C397 C394 1.511 . S
C397 H411 0.961 . S
C397 H412 0.961 . S
C397 H413 0.961 . S
C398 C399 1.370 . S
C398 C400 1.363 . S
C398 H414 0.931 . S
C399 C398 1.370 . S
C399 C403 1.408 . S
C400 C398 1.363 . S
C400 C401 1.370 . S
C400 C404 1.524 . S
C401 C393 1.503 . S
C401 C400 1.370 . S
C401 C402 1.403 . S
C402 C401 1.403 . S
C402 C403 1.404 . S
C402 C405 1.539 . S
C403 C399 1.408 . S
C403 C402 1.404 . S
C403 H415 0.930 . S
C404 C400 1.524 . S
C404 H416 0.956 . S
C404 H417 0.961 . S
C404 H418 0.961 . S
C405 C402 1.539 . S
C405 H419 0.958 . S
C405 H420 0.961 . S
C405 H421 0.960 . S
H406 C390 0.931 . S
H407 C395 0.929 . S
H408 C396 0.960 . S
H409 C396 0.962 . S
H410 C396 0.960 . S
H411 C397 0.961 . S
H412 C397 0.961 . S
H413 C397 0.961 . S
H414 C398 0.931 . S
H415 C403 0.930 . S
H416 C404 0.956 . S
H417 C404 0.961 . S
H418 C404 0.961 . S
H419 C405 0.958 . S
H420 C405 0.961 . S
H421 C405 0.960 . S
C422 C423 1.391 . S
C422 C424 1.394 . S
C422 H438 0.931 . S
C423 C422 1.391 . S
C423 C427 1.376 . S
C424 C422 1.394 . S
C424 C425 1.369 . S
C424 C428 1.531 . S
C425 C424 1.369 . S
C425 C426 1.410 . S
C425 C433 1.503 . S
C426 C425 1.410 . S
C426 C427 1.392 . S
C426 C429 1.511 . S
C427 C423 1.376 . S
C427 C426 1.392 . S
C427 H439 0.929 . S
C428 C424 1.531 . S
C428 H440 0.960 . S
C428 H441 0.962 . S
C428 H442 0.960 . S
C429 C426 1.511 . S
C429 H443 0.961 . S
C429 H444 0.961 . S
C429 H445 0.961 . S
C430 C431 1.370 1_655 S
C430 C432 1.363 . S
C430 H446 0.931 . S
C431 C430 1.370 1_455 S
C431 C435 1.414 . S
C432 C430 1.363 . S
C432 C433 1.370 . S
C432 C436 1.524 . S
C433 C425 1.503 . S
C433 C432 1.370 . S
C433 C434 1.403 . S
C434 C433 1.403 . S
C434 C435 1.378 1_655 S
C434 C437 1.539 . S
C435 C431 1.414 . S
C435 C434 1.378 1_455 S
C435 H447 0.950 . S
C436 C432 1.524 . S
C436 H448 0.956 . S
C436 H449 0.961 . S
C436 H450 0.961 . S
C437 C434 1.539 . S
C437 H451 0.958 . S
C437 H452 0.961 . S
C437 H453 0.960 . S
H438 C422 0.931 . S
H439 C427 0.929 . S
H440 C428 0.960 . S
H441 C428 0.962 . S
H442 C428 0.960 . S
H443 C429 0.961 . S
H444 C429 0.961 . S
H445 C429 0.961 . S
H446 C430 0.931 . S
H447 C435 0.950 . S
H448 C436 0.956 . S
H449 C436 0.961 . S
H450 C436 0.961 . S
H451 C437 0.958 . S
H452 C437 0.961 . S
H453 C437 0.960 . S
C454 C455 1.391 . S
C454 C456 1.394 . S
C454 H470 0.931 . S
C455 C454 1.391 . S
C455 C459 1.376 . S
C456 C454 1.394 . S
C456 C457 1.369 . S
C456 C460 1.531 . S
C457 C456 1.369 . S
C457 C458 1.410 . S
C457 C465 1.503 . S
C458 C457 1.410 . S
C458 C459 1.392 . S
C458 C461 1.511 . S
C459 C455 1.376 . S
C459 C458 1.392 . S
C459 H471 0.929 . S
C460 C456 1.531 . S
C460 H472 0.960 . S
C460 H473 0.962 . S
C460 H474 0.960 . S
C461 C458 1.511 . S
C461 H475 0.961 . S
C461 H476 0.961 . S
C461 H477 0.961 . S
C462 C463 1.370 . S
C462 C464 1.363 . S
C462 H478 0.931 . S
C463 C462 1.370 . S
C463 C467 1.408 . S
C464 C462 1.363 . S
C464 C465 1.370 . S
C464 C468 1.524 . S
C465 C457 1.503 . S
C465 C464 1.370 . S
C465 C466 1.403 . S
C466 C465 1.403 . S
C466 C467 1.404 . S
C466 C469 1.539 . S
C467 C463 1.408 . S
C467 C466 1.404 . S
C467 H479 0.930 . S
C468 C464 1.524 . S
C468 H480 0.956 . S
C468 H481 0.961 . S
C468 H482 0.961 . S
C469 C466 1.539 . S
C469 H483 0.958 . S
C469 H484 0.961 . S
C469 H485 0.960 . S
H470 C454 0.931 . S
H471 C459 0.929 . S
H472 C460 0.960 . S
H473 C460 0.962 . S
H474 C460 0.960 . S
H475 C461 0.961 . S
H476 C461 0.961 . S
H477 C461 0.961 . S
H478 C462 0.931 . S
H479 C467 0.930 . S
H480 C468 0.956 . S
H481 C468 0.961 . S
H482 C468 0.961 . S
H483 C469 0.958 . S
H484 C469 0.961 . S
H485 C469 0.960 . S
C486 C487 1.391 . S
C486 C488 1.394 . S
C486 H502 0.931 . S
C487 C486 1.391 . S
C487 C491 1.376 . S
C488 C486 1.394 . S
C488 C489 1.369 . S
C488 C492 1.531 . S
C489 C488 1.369 . S
C489 C490 1.410 . S
C489 C497 1.503 . S
C490 C489 1.410 . S
C490 C491 1.392 . S
C490 C493 1.511 . S
C491 C487 1.376 . S
C491 C490 1.392 . S
C491 H503 0.929 . S
C492 C488 1.531 . S
C492 H504 0.960 . S
C492 H505 0.962 . S
C492 H506 0.960 . S
C493 C490 1.511 . S
C493 H507 0.961 . S
C493 H508 0.961 . S
C493 H509 0.961 . S
C494 C495 1.370 . S
C494 C496 1.363 . S
C494 H510 0.931 . S
C495 C494 1.370 . S
C495 C499 1.408 . S
C496 C494 1.363 . S
C496 C497 1.370 . S
C496 C500 1.524 . S
C497 C489 1.503 . S
C497 C496 1.370 . S
C497 C498 1.403 . S
C498 C497 1.403 . S
C498 C499 1.404 . S
C498 C501 1.539 . S
C499 C495 1.408 . S
C499 C498 1.404 . S
C499 H511 0.930 . S
C500 C496 1.524 . S
C500 H512 0.956 . S
C500 H513 0.961 . S
C500 H514 0.961 . S
C501 C498 1.539 . S
C501 H515 0.958 . S
C501 H516 0.961 . S
C501 H517 0.960 . S
H502 C486 0.931 . S
H503 C491 0.929 . S
H504 C492 0.960 . S
H505 C492 0.962 . S
H506 C492 0.960 . S
H507 C493 0.961 . S
H508 C493 0.961 . S
H509 C493 0.961 . S
H510 C494 0.931 . S
H511 C499 0.930 . S
H512 C500 0.956 . S
H513 C500 0.961 . S
H514 C500 0.961 . S
H515 C501 0.958 . S
H516 C501 0.961 . S
H517 C501 0.960 . S
C518 C519 1.391 . S
C518 C520 1.394 . S
C518 H534 0.931 . S
C519 C518 1.391 . S
C519 C523 1.376 . S
C520 C518 1.394 . S
C520 C521 1.369 . S
C520 C524 1.531 . S
C521 C520 1.369 . S
C521 C522 1.410 . S
C521 C529 1.503 . S
C522 C521 1.410 . S
C522 C523 1.392 . S
C522 C525 1.511 . S
C523 C519 1.376 . S
C523 C522 1.392 . S
C523 H535 0.929 . S
C524 C520 1.531 . S
C524 H536 0.960 . S
C524 H537 0.962 . S
C524 H538 0.960 . S
C525 C522 1.511 . S
C525 H539 0.961 . S
C525 H540 0.961 . S
C525 H541 0.961 . S
C526 C527 1.370 . S
C526 C528 1.363 . S
C526 H542 0.931 . S
C527 C526 1.370 . S
C527 C531 1.408 . S
C528 C526 1.363 . S
C528 C529 1.370 . S
C528 C532 1.524 . S
C529 C521 1.503 . S
C529 C528 1.370 . S
C529 C530 1.403 . S
C530 C529 1.403 . S
C530 C531 1.404 . S
C530 C533 1.539 . S
C531 C527 1.408 . S
C531 C530 1.404 . S
C531 H543 0.930 . S
C532 C528 1.524 . S
C532 H544 0.956 . S
C532 H545 0.961 . S
C532 H546 0.961 . S
C533 C530 1.539 . S
C533 H547 0.958 . S
C533 H548 0.961 . S
C533 H549 0.960 . S
H534 C518 0.931 . S
H535 C523 0.929 . S
H536 C524 0.960 . S
H537 C524 0.962 . S
H538 C524 0.960 . S
H539 C525 0.961 . S
H540 C525 0.961 . S
H541 C525 0.961 . S
H542 C526 0.931 . S
H543 C531 0.930 . S
H544 C532 0.956 . S
H545 C532 0.961 . S
H546 C532 0.961 . S
H547 C533 0.958 . S
H548 C533 0.961 . S
H549 C533 0.960 . S
C550 C551 1.391 . S
C550 C552 1.394 . S
C550 H566 0.931 . S
C551 C550 1.391 . S
C551 C555 1.376 . S
C552 C550 1.394 . S
C552 C553 1.369 . S
C552 C556 1.531 . S
C553 C552 1.369 . S
C553 C554 1.410 . S
C553 C561 1.503 . S
C554 C553 1.410 . S
C554 C555 1.392 . S
C554 C557 1.511 . S
C555 C551 1.376 . S
C555 C554 1.392 . S
C555 H567 0.929 . S
C556 C552 1.531 . S
C556 H568 0.960 . S
C556 H569 0.962 . S
C556 H570 0.960 . S
C557 C554 1.511 . S
C557 H571 0.961 . S
C557 H572 0.961 . S
C557 H573 0.961 . S
C558 C559 1.370 . S
C558 C560 1.363 . S
C558 H574 0.931 . S
C559 C558 1.370 . S
C559 C563 1.408 . S
C560 C558 1.363 . S
C560 C561 1.370 . S
C560 C564 1.524 . S
C561 C553 1.503 . S
C561 C560 1.370 . S
C561 C562 1.403 . S
C562 C561 1.403 . S
C562 C563 1.404 . S
C562 C565 1.539 . S
C563 C559 1.408 . S
C563 C562 1.404 . S
C563 H575 0.930 . S
C564 C560 1.524 . S
C564 H576 0.956 . S
C564 H577 0.961 . S
C564 H578 0.961 . S
C565 C562 1.539 . S
C565 H579 0.958 . S
C565 H580 0.961 . S
C565 H581 0.960 . S
H566 C550 0.931 . S
H567 C555 0.929 . S
H568 C556 0.960 . S
H569 C556 0.962 . S
H570 C556 0.960 . S
H571 C557 0.961 . S
H572 C557 0.961 . S
H573 C557 0.961 . S
H574 C558 0.931 . S
H575 C563 0.930 . S
H576 C564 0.956 . S
H577 C564 0.961 . S
H578 C564 0.961 . S
H579 C565 0.958 . S
H580 C565 0.961 . S
H581 C565 0.960 . S
C582 C583 1.391 . S
C582 C584 1.394 . S
C582 H598 0.931 1_455 S
C583 C582 1.391 . S
C583 C587 1.376 . S
C584 C582 1.394 . S
C584 C585 1.369 . S
C584 C588 1.518 1_455 S
C585 C584 1.369 . S
C585 C586 1.410 . S
C585 C593 1.503 . S
C586 C585 1.410 . S
C586 C587 1.392 . S
C586 C589 1.511 . S
C587 C583 1.376 . S
C587 C586 1.392 . S
C587 H599 0.929 . S
C588 C584 1.518 1_655 S
C588 H600 0.946 1_655 S
C588 H601 0.978 . S
C588 H602 0.971 . S
C589 C586 1.511 . S
C589 H603 0.961 . S
C589 H604 0.961 . S
C589 H605 0.961 . S
C590 C591 1.370 . S
C590 C592 1.363 . S
C590 H606 0.931 . S
C591 C590 1.370 . S
C591 C595 1.408 . S
C592 C590 1.363 . S
C592 C593 1.370 1_556 S
C592 C596 1.509 1_456 S
C593 C585 1.503 . S
C593 C592 1.370 1_554 S
C593 C594 1.403 1_554 S
C594 C593 1.403 1_556 S
C594 C595 1.404 . S
C594 C597 1.539 1_556 S
C595 C591 1.408 . S
C595 C594 1.404 . S
C595 H607 0.930 . S
C596 C592 1.509 1_654 S
C596 H608 0.971 . S
C596 H609 0.986 1_655 S
C596 H610 0.937 1_554 S
C597 C594 1.539 1_554 S
C597 H611 0.958 . S
C597 H612 0.961 . S
C597 H613 0.960 . S
H598 C582 0.931 1_655 S
H599 C587 0.929 . S
H600 C588 0.946 1_455 S
H601 C588 0.978 . S
H602 C588 0.971 . S
H603 C589 0.961 . S
H604 C589 0.961 . S
H605 C589 0.961 . S
H606 C590 0.931 . S
H607 C595 0.930 . S
H608 C596 0.971 . S
H609 C596 0.986 1_455 S
H610 C596 0.937 1_556 S
H611 C597 0.958 . S
H612 C597 0.961 . S
H613 C597 0.960 . S
C614 C615 1.391 . S
C614 C616 1.394 . S
C614 H630 0.931 . S
C615 C614 1.391 . S
C615 C619 1.376 . S
C616 C614 1.394 . S
C616 C617 1.369 . S
C616 C620 1.531 . S
C617 C616 1.369 . S
C617 C618 1.410 . S
C617 C625 1.503 . S
C618 C617 1.410 . S
C618 C619 1.392 . S
C618 C621 1.511 1_545 S
C619 C615 1.376 . S
C619 C618 1.392 . S
C619 H631 0.929 1_545 S
C620 C616 1.531 . S
C620 H632 0.960 . S
C620 H633 0.962 . S
C620 H634 0.960 . S
C621 C618 1.511 1_565 S
C621 H635 0.961 . S
C621 H636 0.961 . S
C621 H637 0.961 . S
C622 C623 1.370 . S
C622 C624 1.363 . S
C622 H638 0.931 . S
C623 C622 1.370 . S
C623 C627 1.408 . S
C624 C622 1.363 . S
C624 C625 1.370 . S
C624 C628 1.524 . S
C625 C617 1.503 . S
C625 C624 1.370 . S
C625 C626 1.403 . S
C626 C625 1.403 . S
C626 C627 1.404 . S
C626 C629 1.539 . S
C627 C623 1.408 . S
C627 C626 1.404 . S
C627 H639 0.930 . S
C628 C624 1.524 . S
C628 H640 0.956 . S
C628 H641 0.961 1_545 S
C628 H642 0.961 1_545 S
C629 C626 1.539 . S
C629 H643 0.958 . S
C629 H644 0.961 . S
C629 H645 0.960 . S
H630 C614 0.931 . S
H631 C619 0.929 1_565 S
H632 C620 0.960 . S
H633 C620 0.962 . S
H634 C620 0.960 . S
H635 C621 0.961 . S
H636 C621 0.961 . S
H637 C621 0.961 . S
H638 C622 0.931 . S
H639 C627 0.930 . S
H640 C628 0.956 . S
H641 C628 0.961 1_565 S
H642 C628 0.961 1_565 S
H643 C629 0.958 . S
H644 C629 0.961 . S
H645 C629 0.960 . S
C646 C647 1.391 . S
C646 C648 1.394 . S
C646 H662 0.931 . S
C647 C646 1.391 . S
C647 C651 1.376 . S
C648 C646 1.394 . S
C648 C649 1.369 . S
C648 C652 1.531 . S
C649 C648 1.369 . S
C649 C650 1.410 . S
C649 C657 1.503 . S
C650 C649 1.410 . S
C650 C651 1.392 . S
C650 C653 1.511 . S
C651 C647 1.376 . S
C651 C650 1.392 . S
C651 H663 0.929 . S
C652 C648 1.531 . S
C652 H664 0.960 . S
C652 H665 0.962 . S
C652 H666 0.960 . S
C653 C650 1.511 . S
C653 H667 0.961 . S
C653 H668 0.961 . S
C653 H669 0.961 . S
C654 C655 1.370 . S
C654 C656 1.363 . S
C654 H670 0.931 . S
C655 C654 1.370 . S
C655 C659 1.408 . S
C656 C654 1.363 . S
C656 C657 1.370 . S
C656 C660 1.524 . S
C657 C649 1.503 . S
C657 C656 1.370 . S
C657 C658 1.403 . S
C658 C657 1.403 . S
C658 C659 1.404 . S
C658 C661 1.539 . S
C659 C655 1.408 . S
C659 C658 1.404 . S
C659 H671 0.930 . S
C660 C656 1.524 . S
C660 H672 0.956 . S
C660 H673 0.961 . S
C660 H674 0.961 . S
C661 C658 1.539 . S
C661 H675 0.958 . S
C661 H676 0.961 . S
C661 H677 0.960 . S
H662 C646 0.931 . S
H663 C651 0.929 . S
H664 C652 0.960 . S
H665 C652 0.962 . S
H666 C652 0.960 . S
H667 C653 0.961 . S
H668 C653 0.961 . S
H669 C653 0.961 . S
H670 C654 0.931 . S
H671 C659 0.930 . S
H672 C660 0.956 . S
H673 C660 0.961 . S
H674 C660 0.961 . S
H675 C661 0.958 . S
H676 C661 0.961 . S
H677 C661 0.960 . S
C678 C679 1.391 1_565 S
C678 C680 1.394 . S
C678 H694 0.931 . S
C679 C678 1.391 1_545 S
C679 C683 1.376 . S
C680 C678 1.394 . S
C680 C681 1.369 1_565 S
C680 C684 1.531 . S
C681 C680 1.369 1_545 S
C681 C682 1.410 . S
C681 C689 1.503 . S
C682 C681 1.410 . S
C682 C683 1.392 . S
C682 C685 1.511 . S
C683 C679 1.376 . S
C683 C682 1.392 . S
C683 H695 0.929 . S
C684 C680 1.531 . S
C684 H696 0.960 . S
C684 H697 0.962 . S
C684 H698 0.960 . S
C685 C682 1.511 . S
C685 H699 0.961 . S
C685 H700 0.961 . S
C685 H701 0.961 . S
C686 C687 1.370 1_565 S
C686 C688 1.363 . S
C686 H702 0.931 . S
C687 C686 1.370 1_545 S
C687 C691 1.408 . S
C688 C686 1.363 . S
C688 C689 1.370 1_565 S
C688 C692 1.524 . S
C689 C681 1.503 . S
C689 C688 1.370 1_545 S
C689 C690 1.403 . S
C690 C689 1.403 . S
C690 C691 1.404 . S
C690 C693 1.539 . S
C691 C687 1.408 . S
C691 C690 1.404 . S
C691 H703 0.930 . S
C692 C688 1.524 . S
C692 H704 0.956 . S
C692 H705 0.961 . S
C692 H706 0.961 . S
C693 C690 1.539 . S
C693 H707 0.958 . S
C693 H708 0.961 . S
C693 H709 0.960 . S
H694 C678 0.931 . S
H695 C683 0.929 . S
H696 C684 0.960 . S
H697 C684 0.962 . S
H698 C684 0.960 . S
H699 C685 0.961 . S
H700 C685 0.961 . S
H701 C685 0.961 . S
H702 C686 0.931 . S
H703 C691 0.930 . S
H704 C692 0.956 . S
H705 C692 0.961 . S
H706 C692 0.961 . S
H707 C693 0.958 . S
H708 C693 0.961 . S
H709 C693 0.960 . S
C710 C711 1.391 . S
C710 C712 1.394 . S
C710 H726 0.931 . S
C711 C710 1.391 . S
C711 C715 1.376 . S
C712 C710 1.394 . S
C712 C713 1.369 . S
C712 C716 1.531 . S
C713 C712 1.369 . S
C713 C714 1.410 . S
C713 C721 1.518 . S
C714 C713 1.410 . S
C714 C715 1.392 . S
C714 C717 1.511 . S
C715 C711 1.376 . S
C715 C714 1.392 . S
C715 H727 0.929 . S
C716 C712 1.531 . S
C716 H728 0.960 . S
C716 H729 0.962 . S
C716 H730 0.960 . S
C717 C714 1.511 . S
C717 H731 0.961 . S
C717 H732 0.961 . S
C717 H733 0.961 . S
C718 C719 1.370 . S
C718 C720 1.363 . S
C718 H734 0.931 . S
C719 C718 1.370 . S
C719 C723 1.408 . S
C720 C718 1.363 . S
C720 C721 1.364 1_554 S
C720 C724 1.524 . S
C721 C713 1.518 . S
C721 C720 1.364 1_556 S
C721 C722 1.395 1_556 S
C722 C721 1.395 1_554 S
C722 C723 1.404 . S
C722 C725 1.539 1_554 S
C723 C719 1.408 . S
C723 C722 1.404 . S
C723 H735 0.930 . S
C724 C720 1.524 . S
C724 H736 0.956 1_554 S
C724 H737 0.961 1_554 S
C724 H738 0.961 . S
C725 C722 1.539 1_556 S
C725 H739 0.958 . S
C725 H740 0.961 1_556 S
C725 H741 0.960 . S
H726 C710 0.931 . S
H727 C715 0.929 . S
H728 C716 0.960 . S
H729 C716 0.962 . S
H730 C716 0.960 . S
H731 C717 0.961 . S
H732 C717 0.961 . S
H733 C717 0.961 . S
H734 C718 0.931 . S
H735 C723 0.930 . S
H736 C724 0.956 1_556 S
H737 C724 0.961 1_556 S
H738 C724 0.961 . S
H739 C725 0.958 . S
H740 C725 0.961 1_554 S
H741 C725 0.960 . S
C742 C743 1.391 1_655 S
C742 C744 1.394 . S
C742 H758 0.931 . S
C743 C742 1.391 1_455 S
C743 C747 1.376 . S
C744 C742 1.394 . S
C744 C745 1.369 1_655 S
C744 C748 1.531 . S
C745 C744 1.369 1_455 S
C745 C746 1.410 . S
C745 C753 1.503 . S
C746 C745 1.410 . S
C746 C747 1.392 . S
C746 C749 1.511 . S
C747 C743 1.376 . S
C747 C746 1.392 . S
C747 H759 0.929 . S
C748 C744 1.531 . S
C748 H760 0.960 . S
C748 H761 0.962 . S
C748 H762 0.960 . S
C749 C746 1.511 . S
C749 H763 0.961 . S
C749 H764 0.961 . S
C749 H765 0.961 . S
C750 C751 1.370 . S
C750 C752 1.363 . S
C750 H766 0.931 . S
C751 C750 1.370 . S
C751 C755 1.408 . S
C752 C750 1.363 . S
C752 C753 1.370 . S
C752 C756 1.524 . S
C753 C745 1.503 . S
C753 C752 1.370 . S
C753 C754 1.403 . S
C754 C753 1.403 . S
C754 C755 1.404 . S
C754 C757 1.539 . S
C755 C751 1.408 . S
C755 C754 1.404 . S
C755 H767 0.930 . S
C756 C752 1.524 . S
C756 H768 0.956 1_455 S
C756 H769 0.961 . S
C756 H770 0.961 . S
C757 C754 1.539 . S
C757 H771 0.958 . S
C757 H772 0.961 . S
C757 H773 0.960 . S
H758 C742 0.931 . S
H759 C747 0.929 . S
H760 C748 0.960 . S
H761 C748 0.962 . S
H762 C748 0.960 . S
H763 C749 0.961 . S
H764 C749 0.961 . S
H765 C749 0.961 . S
H766 C750 0.931 . S
H767 C755 0.930 . S
H768 C756 0.956 1_655 S
H769 C756 0.961 . S
H770 C756 0.961 . S
H771 C757 0.958 . S
H772 C757 0.961 . S
H773 C757 0.960 . S
C199 C24 3.019 . S
C207 C189 2.844 . S
C231 C66 1.116 . S
C239 C167 1.102 1_655 S
C263 C93 1.716 . S
C271 C180 1.697 . S
C295 C13 3.004 . S
C303 C193 2.972 . S
C335 C163 1.258 . S
C327 C57 1.322 . S
C367 C176 1.848 . S
C359 C104 1.991 . S
C391 C64 1.843 . S
C399 C141 1.825 . S
C423 C97 0.319 . S
C431 C154 0.310 . S
C455 C17 1.292 . S
C463 C124 1.242 . S
C495 C137 1.679 . S
C487 C53 1.827 . S
C527 C150 0.376 . S
C519 C106 0.360 . S
C551 C26 1.130 . S
C559 C128 1.110 . S
C591 C155 1.217 . S
C583 C2 1.222 . S
C615 C63 1.547 . S
C623 C129 1.589 . S
C647 C82 1.407 . S
C655 C142 1.447 . S
C687 C181 1.536 . S
C679 C42 1.496 . S
C719 C194 1.729 . S
C711 C103 1.712 . S
C743 C23 1.529 . S
C751 C168 1.575 . S
