# Generated by pormake.
# Topology pth, (4,4)-cn, num edge types: 1
# Building blocks:
#     Node 0, Type 0, BuildingBlock: KUFVIS_clean_sbu_0, # of connection points: 4
#     Node 1, Type 0, BuildingBlock: KUFVIS_clean_sbu_0, # of connection points: 4
#     Node 2, Type 0, BuildingBlock: KUFVIS_clean_sbu_0, # of connection points: 4
#     Node 3, Type 1, BuildingBlock: MIFKUJ_clean_linker_1, # of connection points: 4
#     Node 4, Type 1, BuildingBlock: MIFKUJ_clean_linker_1, # of connection points: 4
#     Node 5, Type 1, BuildingBlock: MIFKUJ_clean_linker_1, # of connection points: 4
#     Edge 6, Type (0, 1), BuildingBlock: FUNLAD_clean_linker_1, # of connection points: 2
#     Edge 7, Type (0, 1), BuildingBlock: FUNLAD_clean_linker_1, # of connection points: 2
#     Edge 8, Type (0, 1), BuildingBlock: FUNLAD_clean_linker_1, # of connection points: 2
#     Edge 9, Type (0, 1), BuildingBlock: FUNLAD_clean_linker_1, # of connection points: 2
#     Edge 10, Type (0, 1), BuildingBlock: FUNLAD_clean_linker_1, # of connection points: 2
#     Edge 11, Type (0, 1), BuildingBlock: FUNLAD_clean_linker_1, # of connection points: 2
#     Edge 12, Type (0, 1), BuildingBlock: FUNLAD_clean_linker_1, # of connection points: 2
#     Edge 13, Type (0, 1), BuildingBlock: FUNLAD_clean_linker_1, # of connection points: 2
#     Edge 14, Type (0, 1), BuildingBlock: FUNLAD_clean_linker_1, # of connection points: 2
#     Edge 15, Type (0, 1), BuildingBlock: FUNLAD_clean_linker_1, # of connection points: 2
#     Edge 16, Type (0, 1), BuildingBlock: FUNLAD_clean_linker_1, # of connection points: 2
#     Edge 17, Type (0, 1), BuildingBlock: FUNLAD_clean_linker_1, # of connection points: 2
# Relax obj value: 0.017
# Max RMSD: 0.085
# Mean RMSD: 0.064
data_MOF--net-pth--node1-KUFVIS_clean_sbu_0--node2-MIFKUJ_clean_linker_1--edge1-FUNLAD_clean_linker_1
_symmetry_space_group_name_H-M    P1
_symmetry_Int_Tables_number       1
_symmetry_cell_setting            triclinic
loop_
_symmetry_equiv_pos_as_xyz
'x, y, z'
_cell_length_a     30.07707
_cell_length_b     30.157432
_cell_length_c     66.534093
_cell_angle_alpha  90.460112
_cell_angle_beta   91.787217
_cell_angle_gamma 120.04735
loop_
_atom_site_label
_atom_site_type_symbol
_atom_site_fract_x
_atom_site_fract_y
_atom_site_fract_z
_atom_type_partial_charge
Mn0 Mn 0.03597 0.04396 0.04539 0.0
Mn1 Mn 0.98328 0.10437 0.02019 0.0
C2 C 0.97741 1.00218 0.01874 0.0
C3 C 0.03383 0.99288 0.07202 0.0
C4 C 0.09269 0.12724 0.01475 0.0
O5 O 0.05095 0.10389 0.0643 0.0
O6 O 0.00835 0.13698 0.0475 0.0
C7 C 0.89327 0.07483 0.04512 0.0
N8 N 0.91294 0.07557 0.02688 0.0
C9 C 0.82831 0.02972 0.01101 0.0
C10 C 0.80715 0.0288 0.0296 0.0
C11 C 0.83979 0.05144 0.04672 0.0
C12 C 0.88191 0.05409 0.01029 0.0
H13 H 0.9182 0.09183 0.05835 0.0
C14 C 0.03459 0.13553 0.06282 0.0
O15 O 0.07644 0.02269 0.06329 0.0
O16 O 0.9932 0.9939 0.06571 0.0
N17 N 0.95698 0.07633 0.99371 0.0
C18 C 0.98333 0.07775 0.9772 0.0
C19 C 0.95626 0.05582 0.95888 0.0
C20 C 0.90242 0.03238 0.95775 0.0
C21 C 0.87616 0.03158 0.97492 0.0
C22 C 0.90527 0.05504 0.99266 0.0
H23 H 0.02466 0.09529 0.978 0.0
O24 O 0.00904 0.98698 0.02462 0.0
O25 O 0.98117 0.0413 0.02865 0.0
O26 O 0.09117 0.09324 0.02649 0.0
O27 O 0.05524 0.13551 0.01189 0.0
C28 C 0.82218 0.00745 0.97524 0.0
C29 C 0.79828 0.00654 0.99326 0.0
H30 H 0.7659 0.01043 0.03093 0.0
H31 H 0.82373 0.05064 0.06114 0.0
H32 H 0.97682 0.05655 0.94571 0.0
H33 H 0.88162 0.01468 0.94368 0.0
H34 H 0.79866 0.98888 0.96176 0.0
H35 H 0.75672 0.98736 0.99337 0.0
Mn36 Mn 0.02748 0.05199 0.37576 0.0
Mn37 Mn 0.07846 0.15745 0.4065 0.0
C38 C 0.07494 0.05602 0.40459 0.0
C39 C 0.03434 0.00857 0.3478 0.0
C40 C 0.96552 0.07527 0.40548 0.0
O41 O 0.0219 0.10514 0.3585 0.0
O42 O 0.06447 0.17483 0.37914 0.0
C43 C 0.17769 0.21938 0.38705 0.0
N44 N 0.15118 0.19582 0.40361 0.0
C45 C 0.22954 0.22665 0.42367 0.0
C46 C 0.25768 0.2516 0.40688 0.0
C47 C 0.23164 0.24767 0.38846 0.0
C48 C 0.17589 0.19865 0.42132 0.0
H49 H 0.15781 0.21672 0.3729 0.0
C50 C 0.04147 0.15308 0.36237 0.0
O51 O 0.98985 0.9966 0.35468 0.0
O52 O 0.07436 0.04702 0.35653 0.0
N53 N 0.09438 0.1468 0.43346 0.0
C54 C 0.06153 0.12171 0.44837 0.0
C55 C 0.08147 0.12096 0.46766 0.0
C56 C 0.13493 0.14676 0.47149 0.0
C57 C 0.16794 0.17356 0.45606 0.0
C58 C 0.14583 0.17283 0.43713 0.0
H59 H 0.02049 0.10175 0.44549 0.0
O60 O 0.04463 0.01242 0.3955 0.0
O61 O 0.07781 0.09613 0.39621 0.0
O62 O 0.96832 0.04453 0.39291 0.0
O63 O 1.00374 0.11907 0.41081 0.0
C64 C 0.22188 0.20139 0.45877 0.0
C65 C 0.25263 0.22824 0.44263 0.0
H66 H 0.29928 0.27363 0.40792 0.0
H67 H 0.25311 0.26661 0.3754 0.0
H68 H 0.0557 0.10058 0.47953 0.0
H69 H 0.15018 0.1461 0.48638 0.0
H70 H 0.24011 0.2026 0.47322 0.0
H71 H 0.29405 0.24967 0.44492 0.0
Mn72 Mn 0.04025 0.04832 0.7088 0.0
Mn73 Mn 0.99762 0.11032 0.73843 0.0
C74 C 0.08908 0.09535 0.737 0.0
C75 C 0.08478 0.04459 0.68117 0.0
C76 C 0.95658 0.99595 0.73983 0.0
O77 O 0.98354 0.04874 0.69101 0.0
O78 O 0.9615 0.09385 0.71156 0.0
C79 C 0.03957 0.20596 0.71557 0.0
N80 N 0.03675 0.18181 0.73309 0.0
C81 C 0.09541 0.26176 0.7502 0.0
C82 C 0.09863 0.28752 0.73237 0.0
C83 C 0.07075 0.25946 0.71496 0.0
C84 C 0.06397 0.20838 0.74985 0.0
H85 H 0.01821 0.18454 0.70215 0.0
C86 C 0.9572 0.07016 0.69493 0.0
O87 O 0.04882 1.00349 0.68898 0.0
O88 O 0.09357 0.08817 0.68879 0.0
N89 N 0.02871 0.1291 0.76495 0.0
C90 C 0.01936 0.09874 0.78118 0.0
C91 C 0.04485 0.12085 0.79974 0.0
C92 C 0.07863 0.17401 0.80155 0.0
C93 C 0.08585 0.20472 0.78487 0.0
C94 C 0.05946 0.18053 0.76675 0.0
H95 H 0.99328 0.05792 0.77991 0.0
O96 O 0.09686 0.0608 0.72881 0.0
O97 O 0.05383 0.10222 0.72822 0.0
O98 O 0.98574 0.9942 0.72666 0.0
O99 O 0.95702 0.03707 0.74512 0.0
C100 C 0.11783 0.2584 0.78556 0.0
C101 C 0.12245 0.28692 0.76826 0.0
H102 H 0.12263 0.32878 0.73185 0.0
H103 H 0.07325 0.27905 0.70112 0.0
H104 H 0.03846 0.09699 0.81263 0.0
H105 H 0.09834 0.1909 0.81587 0.0
H106 H 0.139 0.27815 0.79932 0.0
H107 H 0.14719 0.32817 0.76896 0.0
H108 H 0.10887 0.52376 0.1794 0.0
H109 H 0.10661 0.45732 0.15751 0.0
H110 H 0.95188 0.35201 0.17491 0.0
H111 H 0.95417 0.41916 0.19656 0.0
H112 H 0.04976 0.5669 0.17653 0.0
H113 H 0.08686 0.4766 0.22706 0.0
H114 H 0.07571 0.40282 0.24589 0.0
H115 H 0.92604 0.37305 0.26309 0.0
H116 H 0.93718 0.4467 0.24388 0.0
H117 H 0.94267 0.5836 0.24411 0.0
H118 H 0.93429 0.64845 0.2632 0.0
H119 H 0.08671 0.7633 0.24659 0.0
H120 H 0.0952 0.69812 0.22817 0.0
H121 H 1.00645 0.54709 0.24842 0.0
H122 H 0.97077 0.63884 0.19722 0.0
H123 H 0.98309 0.71204 0.17793 0.0
H124 H 0.13218 0.73877 0.16115 0.0
H125 H 0.12006 0.66613 0.18115 0.0
C126 C 0.03197 0.47639 0.18985 0.0
C127 C 0.07469 0.48616 0.17869 0.0
C128 C 0.07347 0.44776 0.16629 0.0
C129 C 0.02923 0.39873 0.16474 0.0
C130 C 0.98664 0.38915 0.17596 0.0
C131 C 0.988 0.42744 0.18841 0.0
C132 C 0.03203 0.51808 0.20202 0.0
C133 C 0.04123 0.56303 0.19235 0.0
C134 C 0.01974 0.51242 0.22256 0.0
C135 C 0.01285 0.46728 0.23401 0.0
C136 C 0.05157 0.45413 0.23484 0.0
C137 C 0.04536 0.41216 0.24587 0.0
C138 C 1.00023 0.3825 0.25639 0.0
C139 C 0.96131 0.39534 0.25527 0.0
C140 C 0.96771 0.43752 0.24436 0.0
C141 C 0.01946 0.63586 0.23459 0.0
C142 C 0.97446 0.6227 0.24475 0.0
C143 C 0.96964 0.65991 0.2556 0.0
C144 C 0.00979 0.71117 0.25673 0.0
C145 C 0.05502 0.72434 0.24652 0.0
C146 C 0.05984 0.687 0.2357 0.0
C147 C 0.0239 0.59595 0.22289 0.0
C148 C 0.0154 0.55122 0.23264 0.0
C149 C 0.03705 0.60191 0.20241 0.0
C150 C 0.04461 0.64705 0.19079 0.0
C151 C 1.00632 0.66073 0.18953 0.0
C152 C 0.01327 0.70251 0.17818 0.0
C153 C 0.05853 0.73113 0.16756 0.0
C154 C 0.09683 0.71745 0.16902 0.0
C155 C 0.0899 0.67583 0.18041 0.0
H156 H 0.63311 0.14326 0.50922 0.0
H157 H 0.70138 0.14735 0.4889 0.0
H158 H 0.66841 0.99922 0.51001 0.0
H159 H 0.60012 0.99548 0.5304 0.0
H160 H 0.5294 0.07013 0.50675 0.0
H161 H 0.67251 0.13516 0.5538 0.0
H162 H 0.74389 0.13367 0.57172 0.0
H163 H 0.6361 0.9941 0.60023 0.0
H164 H 0.56496 0.99543 0.58201 0.0
H165 H 0.42703 1.00322 0.58252 0.0
H166 H 0.36458 0.01165 0.60234 0.0
H167 H 0.40419 0.15382 0.57337 0.0
H168 H 0.46738 0.14551 0.55383 0.0
H169 H 0.53019 0.06347 0.58115 0.0
H170 H 0.38429 0.01192 0.53553 0.0
H171 H 0.3187 0.01276 0.51293 0.0
H172 H 0.43769 0.13182 0.47893 0.0
H173 H 0.5031 0.13403 0.50226 0.0
C174 C 0.61152 0.06908 0.52131 0.0
C175 C 0.64043 0.11155 0.5094 0.0
C176 C 0.67942 0.11386 0.49781 0.0
C177 C 0.68969 0.07331 0.49752 0.0
C178 C 0.66073 0.03062 0.50948 0.0
C179 C 0.62202 0.02863 0.52132 0.0
C180 C 0.56986 0.06731 0.53335 0.0
C181 C 0.52967 0.06948 0.52305 0.0
C182 C 0.56999 0.06464 0.55457 0.0
C183 C 0.61323 0.065 0.56631 0.0
C184 C 0.66419 0.10404 0.56382 0.0
C185 C 0.70501 0.1033 0.57414 0.0
C186 C 0.69595 0.06424 0.58759 0.0
C187 C 0.64478 0.02551 0.59036 0.0
C188 C 0.60389 0.02605 0.57986 0.0
C189 C 0.4515 0.07331 0.56645 0.0
C190 C 0.42209 0.03609 0.58037 0.0
C191 C 0.38581 0.04074 0.59156 0.0
C192 C 0.37833 0.08298 0.58911 0.0
C193 C 0.40853 0.12056 0.57542 0.0
C194 C 0.44459 0.11578 0.5642 0.0
C195 C 0.49 0.0683 0.55453 0.0
C196 C 0.52953 0.0643 0.56485 0.0
C197 C 0.48987 0.07048 0.53321 0.0
C198 C 0.44904 0.07324 0.52083 0.0
C199 C 0.39642 0.03958 0.5237 0.0
C200 C 0.35889 0.0398 0.51072 0.0
C201 C 0.37344 0.07254 0.4943 0.0
C202 C 0.42569 0.10632 0.49152 0.0
C203 C 0.46302 0.10733 0.50482 0.0
H204 H 0.50755 0.4454 0.8415 0.0
H205 H 0.44392 0.37334 0.82047 0.0
H206 H 0.3239 0.39669 0.84328 0.0
H207 H 0.388 0.46938 0.8639 0.0
H208 H 0.53253 0.54504 0.83965 0.0
H209 H 0.45769 0.40978 0.88942 0.0
H210 H 0.38938 0.3465 0.90951 0.0
H211 H 0.36279 0.46477 0.9333 0.0
H212 H 0.43053 0.52757 0.91274 0.0
H213 H 0.5704 0.65899 0.91624 0.0
H214 H 0.64276 0.72658 0.93594 0.0
H215 H 0.74675 0.69269 0.90478 0.0
H216 H 0.67385 0.62419 0.8855 0.0
H217 H 0.53167 0.55882 0.91393 0.0
H218 H 0.59796 0.69214 0.86801 0.0
H219 H 0.66125 0.76277 0.84866 0.0
H220 H 0.69435 0.6572 0.81715 0.0
H221 H 0.63208 0.58739 0.83688 0.0
C222 C 0.45265 0.46283 0.85432 0.0
C223 C 0.46751 0.43505 0.84193 0.0
C224 C 0.43105 0.39378 0.82993 0.0
C225 C 0.37885 0.37951 0.82982 0.0
C226 C 0.36375 0.40693 0.84251 0.0
C227 C 0.4004 0.44832 0.85457 0.0
C228 C 0.49252 0.50806 0.86626 0.0
C229 C 0.53271 0.54772 0.85592 0.0
C230 C 0.49123 0.51283 0.88743 0.0
C231 C 0.44914 0.47349 0.89942 0.0
C232 C 0.43685 0.42197 0.89885 0.0
C233 C 0.39789 0.38576 0.91062 0.0
C234 C 0.37064 0.40053 0.92337 0.0
C235 C 0.38305 0.45209 0.92376 0.0
C236 C 0.42188 0.48811 0.91202 0.0
C237 C 0.6166 0.63685 0.89917 0.0
C238 C 0.60882 0.66626 0.91361 0.0
C239 C 0.65058 0.70549 0.92474 0.0
C240 C 0.70109 0.716 0.92164 0.0
C241 C 0.70849 0.68598 0.90736 0.0
C242 C 0.66683 0.64692 0.89626 0.0
C243 C 0.57241 0.5949 0.88736 0.0
C244 C 0.53145 0.55611 0.89766 0.0
C245 C 0.57204 0.59155 0.8661 0.0
C246 C 0.61067 0.63442 0.85415 0.0
C247 C 0.61937 0.68435 0.85711 0.0
C248 C 0.65544 0.72472 0.84594 0.0
C249 C 0.68362 0.71634 0.83143 0.0
C250 C 0.67438 0.66603 0.82829 0.0
C251 C 0.63824 0.6256 0.83952 0.0
H252 H 0.07085 0.17283 0.09234 0.0
C253 C 0.04622 0.17213 0.07988 0.0
H254 H 1.00304 0.20424 0.06794 0.0
H255 H 0.02257 0.27246 0.16439 0.0
H256 H 0.97318 0.18159 0.17081 0.0
H257 H 0.95179 0.1173 0.14355 0.0
H258 H 0.98054 0.14341 0.10983 0.0
C259 C 0.02674 0.20375 0.08051 0.0
C260 C 0.03954 0.24193 0.0973 0.0
C261 C 0.02081 0.22591 0.11679 0.0
C262 C 0.03098 0.26304 0.13231 0.0
C263 C 0.01409 0.24598 0.15186 0.0
C264 C 0.986 0.19391 0.15579 0.0
C265 C 0.97412 0.15772 0.14046 0.0
C266 C 0.99115 0.17328 0.12117 0.0
H267 H 0.98609 0.32812 0.14575 0.0
C268 C 0.02462 0.35784 0.15063 0.0
H269 H 0.10398 0.38389 0.14836 0.0
H270 H 0.08357 0.28574 0.06206 0.0
H271 H 0.13129 0.37659 0.05547 0.0
H272 H 0.14552 0.44073 0.08188 0.0
H273 H 0.11246 0.41452 0.11508 0.0
C274 C 0.06495 0.35535 0.14369 0.0
C275 C 0.05777 0.31608 0.12809 0.0
C276 C 0.07724 0.33203 0.10871 0.0
C277 C 0.06828 0.29498 0.09335 0.0
C278 C 0.08853 0.31215 0.07419 0.0
C279 C 0.11614 0.36421 0.07021 0.0
C280 C 0.12422 0.40032 0.08509 0.0
C281 C 0.10506 0.38469 0.10411 0.0
H282 H 0.88573 0.01848 0.41308 0.0
C283 C 0.91611 0.05814 0.4153 0.0
H284 H 0.93978 0.12901 0.43015 0.0
H285 H 0.68763 0.01154 0.44279 0.0
H286 H 0.67637 0.00469 0.40639 0.0
H287 H 0.75044 0.0301 0.38499 0.0
H288 H 0.83597 0.06189 0.39977 0.0
C289 C 0.90899 0.08967 0.42757 0.0
C290 C 0.86291 0.07179 0.44007 0.0
C291 C 0.81314 0.05385 0.43108 0.0
C292 C 0.77052 0.04048 0.44342 0.0
C293 C 0.72128 0.02253 0.43411 0.0
C294 C 0.71429 0.01847 0.41325 0.0
C295 C 0.75599 0.03268 0.4012 0.0
C296 C 0.80493 0.05049 0.40991 0.0
H297 H 0.76216 0.11654 0.48161 0.0
C298 C 0.73215 0.07809 0.48515 0.0
H299 H 0.70361 0.99898 0.47927 0.0
H300 H 0.95219 0.10241 0.46239 0.0
H301 H 0.96296 0.10942 0.49869 0.0
H302 H 0.88913 0.0871 0.5199 0.0
H303 H 0.80411 0.05759 0.50482 0.0
C304 C 0.73445 0.03801 0.47735 0.0
C305 C 0.77791 0.04663 0.46463 0.0
C306 C 0.82728 0.06339 0.47362 0.0
C307 C 0.86977 0.07608 0.46137 0.0
C308 C 0.91861 0.09266 0.47087 0.0
C309 C 0.92532 0.09671 0.49174 0.0
C310 C 0.88377 0.08416 0.50367 0.0
C311 C 0.83523 0.06753 0.49481 0.0
H312 H 0.92211 0.91316 0.74556 0.0
C313 C 0.92111 0.9476 0.74969 0.0
H314 H 0.88827 0.97952 0.76841 0.0
H315 H 0.71589 0.73083 0.77149 0.0
H316 H 0.70118 0.7351 0.73569 0.0
H317 H 0.75557 0.8138 0.71734 0.0
H318 H 0.82523 0.88849 0.73459 0.0
C319 C 0.8885 0.94507 0.76366 0.0
C320 C 0.85521 0.89698 0.77448 0.0
C321 C 0.81413 0.85374 0.76416 0.0
C322 C 0.78201 0.80863 0.77483 0.0
C323 C 0.7414 0.76605 0.76415 0.0
C324 C 0.73243 0.76801 0.7436 0.0
C325 C 0.7631 0.81229 0.73327 0.0
C326 C 0.80331 0.85483 0.74335 0.0
H327 H 0.72196 0.79724 0.82224 0.0
C328 C 0.72123 0.76113 0.81989 0.0
H329 H 0.75567 0.72572 0.8038 0.0
H330 H 0.93064 0.97253 0.79884 0.0
H331 H 0.94495 0.96822 0.83464 0.0
H332 H 0.88951 0.88995 0.85305 0.0
H333 H 0.81932 0.81557 0.83577 0.0
C334 C 0.75471 0.76047 0.80706 0.0
C335 C 0.79005 0.80715 0.79588 0.0
C336 C 0.83134 0.85019 0.80617 0.0
C337 C 0.86368 0.89519 0.79549 0.0
C338 C 0.90465 0.9375 0.80618 0.0
C339 C 0.91345 0.9355 0.82674 0.0
C340 C 0.88222 0.89145 0.83711 0.0
C341 C 0.84179 0.84912 0.82701 0.0
H342 H 0.99234 0.93291 0.09391 0.0
C343 C 0.02974 0.9565 0.08758 0.0
H344 H 0.10649 0.97205 0.08709 0.0
H345 H 0.08704 0.8658 0.17178 0.0
H346 H 0.14055 0.95529 0.18185 0.0
H347 H 0.15838 0.02364 0.15786 0.0
H348 H 0.12246 1.00287 0.12362 0.0
C349 C 0.06858 0.94858 0.093 0.0
C350 C 0.06046 0.90706 0.10708 0.0
C351 C 0.08274 0.91967 0.12688 0.0
C352 C 0.07313 0.88013 0.14063 0.0
C353 C 0.09414 0.89409 0.16055 0.0
C354 C 0.12469 0.94537 0.16658 0.0
C355 C 0.13467 0.98386 0.15307 0.0
C356 C 0.11389 0.97141 0.13346 0.0
H357 H 0.10629 0.79934 0.14955 0.0
C358 C 0.06769 0.77531 0.15485 0.0
H359 H 0.99125 0.7613 0.15244 0.0
H360 H 0.01645 0.86918 0.06959 0.0
H361 H 0.96361 0.77979 0.05938 0.0
H362 H 0.94598 0.71136 0.08331 0.0
H363 H 0.98134 0.73195 0.11755 0.0
C364 C 0.03099 0.78594 0.14871 0.0
C365 C 0.04201 0.8279 0.13444 0.0
C366 C 0.02038 0.8153 0.11453 0.0
C367 C 0.02998 0.85482 0.1008 0.0
C368 C 0.0093 0.84089 0.08082 0.0
C369 C 0.97917 0.78965 0.0747 0.0
C370 C 0.96929 0.75113 0.08816 0.0
C371 C 0.98971 0.76354 0.10782 0.0
H372 H 0.10058 0.06428 0.43665 0.0
C373 C 0.10909 0.05887 0.42147 0.0
H374 H 0.15724 0.04557 0.40319 0.0
H375 H 0.34877 0.15575 0.46448 0.0
H376 H 0.378 0.21098 0.43586 0.0
H377 H 0.31994 0.19528 0.40632 0.0
H378 H 0.23156 0.1261 0.40576 0.0
C379 C 0.14881 0.05145 0.41843 0.0
C380 C 0.18518 0.05632 0.43524 0.0
C381 C 0.23725 0.09602 0.43504 0.0
C382 C 0.27176 0.10309 0.45151 0.0
C383 C 0.32207 0.14619 0.45174 0.0
C384 C 0.33918 0.17867 0.43551 0.0
C385 C 0.30646 0.16993 0.41891 0.0
C386 C 0.2558 0.12978 0.41875 0.0
H387 H 0.34413 0.06879 0.46321 0.0
C388 C 0.33532 0.06934 0.47891 0.0
H389 H 0.28434 0.07214 0.49916 0.0
H390 H 0.08938 0.97273 0.43941 0.0
H391 H 0.06137 0.91496 0.46724 0.0
H392 H 0.12156 0.92592 0.49541 0.0
H393 H 0.21006 0.99467 0.4959 0.0
C394 C 0.29279 0.0707 0.48349 0.0
C395 C 0.25532 0.06782 0.46743 0.0
C396 C 0.20323 0.0279 0.46757 0.0
C397 C 0.16821 0.02201 0.45144 0.0
C398 C 0.11713 0.98034 0.45158 0.0
C399 C 0.10062 0.94645 0.46738 0.0
C400 C 0.13452 0.95257 0.48322 0.0
C401 C 0.18531 0.99244 0.48333 0.0
H402 H 0.11076 0.12424 0.76846 0.0
C403 C 0.12395 0.12932 0.75331 0.0
H404 H 0.18507 0.17117 0.73444 0.0
H405 H 0.29218 0.38097 0.78242 0.0
H406 H 0.27289 0.40325 0.74969 0.0
H407 H 0.2215 0.33629 0.72384 0.0
H408 H 0.18903 0.24687 0.73051 0.0
C409 C 0.17181 0.16672 0.7497 0.0
C410 C 0.2045 0.20699 0.76533 0.0
C411 C 0.22261 0.25937 0.76124 0.0
C412 C 0.25158 0.29805 0.77628 0.0
C413 C 0.26962 0.34998 0.77167 0.0
C414 C 0.25893 0.36338 0.7529 0.0
C415 C 0.23013 0.3257 0.73834 0.0
C416 C 0.21194 0.27433 0.74238 0.0
H417 H 0.35593 0.31235 0.80952 0.0
C418 C 0.34209 0.33597 0.81625 0.0
H419 H 0.27971 0.35001 0.81601 0.0
H420 H 0.18522 0.11212 0.77715 0.0
H421 H 0.20102 0.0897 0.81043 0.0
H422 H 0.24275 0.15567 0.83753 0.0
H423 H 0.27021 0.24469 0.8313 0.0
C424 C 0.29424 0.32567 0.81083 0.0
C425 C 0.26223 0.28453 0.79545 0.0
C426 C 0.24378 0.23224 0.79963 0.0
C427 C 0.21654 0.19367 0.78437 0.0
C428 C 0.20283 0.14247 0.78851 0.0
C429 C 0.21228 0.12914 0.8075 0.0
C430 C 0.23601 0.16631 0.82273 0.0
C431 C 0.25182 0.21733 0.81891 0.0
H432 H 0.89399 0.08254 0.68515 0.0
C433 C 0.91842 0.06794 0.68009 0.0
H434 H 0.93506 0.03441 0.65558 0.0
H435 H 0.71394 0.94867 0.61294 0.0
H436 H 0.71662 0.87085 0.61903 0.0
H437 H 0.7894 0.87361 0.6383 0.0
H438 H 0.86024 0.95423 0.65143 0.0
C439 C 0.91204 0.05024 0.66099 0.0
C440 C 0.87089 0.04928 0.64736 0.0
C441 C 0.82965 1.00181 0.63981 0.0
C442 C 0.78714 1.00012 0.62898 0.0
C443 C 0.74676 0.95214 0.62151 0.0
C444 C 0.74785 0.90716 0.62485 0.0
C445 C 0.78886 0.90872 0.63569 0.0
C446 C 0.82932 0.95533 0.64314 0.0
H447 H 0.77815 0.08674 0.59126 0.0
C448 C 0.74095 0.06489 0.59798 0.0
H449 H 0.70263 0.02114 0.62303 0.0
H450 H 0.94854 0.14759 0.65545 0.0
H451 H 0.94501 0.22533 0.65037 0.0
H452 H 0.86737 0.22166 0.63513 0.0
H453 H 0.79358 0.14062 0.62435 0.0
C454 C 0.73888 0.04284 0.61573 0.0
C455 C 0.78548 0.04579 0.62586 0.0
C456 C 0.82732 0.09348 0.63304 0.0
C457 C 0.87079 0.09533 0.6431 0.0
C458 C 0.91348 0.14375 0.64877 0.0
C459 C 0.91215 0.18872 0.64578 0.0
C460 C 0.86855 0.18667 0.63711 0.0
C461 C 0.82653 0.13977 0.63082 0.0
H462 H 0.89835 0.97175 0.00634 0.0
C463 C 0.93293 0.96947 0.00508 0.0
H464 H 0.96587 0.93005 0.99134 0.0
H465 H 0.71257 0.7699 0.97896 0.0
H466 H 0.71209 0.76577 0.01533 0.0
H467 H 0.79075 0.82043 0.03613 0.0
H468 H 0.87011 0.87975 0.02073 0.0
C469 C 0.93164 0.93315 0.99286 0.0
C470 C 0.88446 0.89791 0.9804 0.0
C471 C 0.83847 0.86252 0.98969 0.0
C472 C 0.79338 0.82999 0.97767 0.0
C473 C 0.74796 0.79536 0.98734 0.0
C474 C 0.74714 0.79249 0.00821 0.0
C475 C 0.79139 0.82334 0.01992 0.0
C476 C 0.83666 0.85771 0.01086 0.0
H477 H 0.78188 0.7539 0.93333 0.0
C478 C 0.74684 0.75607 0.93347 0.0
H479 H 0.71436 0.79928 0.94458 0.0
H480 H 0.96621 0.96001 0.95775 0.0
H481 H 0.96632 0.96441 0.92138 0.0
H482 H 0.88774 0.90906 0.90063 0.0
H483 H 0.80866 0.84868 0.91615 0.0
C484 C 0.748 0.795 0.94399 0.0
C485 C 0.79461 0.83163 0.9564 0.0
C486 C 0.84044 0.86714 0.94712 0.0
C487 C 0.88553 0.89979 0.95912 0.0
C488 C 0.93082 0.93443 0.9494 0.0
C489 C 0.93141 0.93744 0.92853 0.0
C490 C 0.88718 0.90625 0.91685 0.0
C491 C 0.84212 0.87152 0.92594 0.0
H492 H 0.07916 0.99099 0.32687 0.0
C493 C 0.04066 0.97748 0.33207 0.0
H494 H 0.9636 0.91677 0.3308 0.0
H495 H 0.98771 0.82064 0.24905 0.0
H496 H 0.93706 0.85782 0.23691 0.0
H497 H 0.91995 0.91294 0.25917 0.0
H498 H 0.95369 0.93148 0.29372 0.0
C499 C 1.00238 0.93097 0.32582 0.0
C500 C 0.01205 0.89675 0.3125 0.0
C501 C 0.99131 0.88542 0.29246 0.0
C502 C 1.0006 0.85298 0.27968 0.0
C503 C 0.98085 0.84392 0.25954 0.0
C504 C 0.95195 0.86529 0.25234 0.0
C505 C 0.94236 0.89637 0.26487 0.0
C506 C 0.96186 0.90661 0.28468 0.0
H507 H 0.96389 0.73674 0.27367 0.0
C508 C 1.00229 0.74917 0.26854 0.0
H509 H 0.07949 0.81034 0.27027 0.0
H510 H 0.05288 0.90563 0.35078 0.0
H511 H 0.10326 0.86832 0.36291 0.0
H512 H 0.12101 0.81387 0.34056 0.0
H513 H 0.08807 0.79608 0.30596 0.0
C514 C 0.03995 0.79694 0.27389 0.0
C515 C 0.02999 0.83117 0.28707 0.0
C516 C 0.05054 0.84231 0.30714 0.0
C517 C 0.04107 0.87455 0.31993 0.0
C518 C 0.06017 0.8829 0.34018 0.0
C519 C 0.08887 0.86134 0.34741 0.0
C520 C 0.0988 0.83063 0.33484 0.0
C521 C 0.07977 0.82088 0.31497 0.0
H522 H 0.10826 1.00275 0.66074 0.0
C523 C 0.11675 0.04086 0.6655 0.0
H524 H 0.16785 0.12024 0.66362 0.0
H525 H 0.35947 0.09984 0.6415 0.0
H526 H 0.38589 0.14304 0.67416 0.0
H527 H 0.32559 0.1563 0.69411 0.0
H528 H 0.23849 0.12634 0.68156 0.0
C529 C 0.15793 0.08208 0.65832 0.0
C530 C 0.19502 0.07667 0.64542 0.0
C531 C 0.24631 0.09524 0.65283 0.0
C532 C 0.28134 0.08793 0.64124 0.0
C533 C 0.33162 0.10529 0.6494 0.0
C534 C 0.34725 0.12991 0.66821 0.0
C535 C 0.31329 0.13735 0.67945 0.0
C536 C 0.26335 0.12008 0.67199 0.0
H537 H 0.34696 0.12901 0.60225 0.0
C538 C 0.34135 0.09052 0.60111 0.0
H539 H 0.2918 0.01305 0.60834 0.0
H540 H 0.10225 0.04275 0.62536 0.0
H541 H 0.07604 0.99984 0.59259 0.0
H542 H 0.13583 0.98483 0.57303 0.0
H543 H 0.22244 0.01313 0.58605 0.0
C544 C 0.30106 0.05256 0.61026 0.0
C545 C 0.26532 0.06248 0.62212 0.0
C546 C 0.2144 0.04476 0.61456 0.0
C547 C 0.17947 0.05243 0.62606 0.0
C548 C 0.12971 0.03633 0.61764 0.0
C549 C 0.11431 0.01203 0.59875 0.0
C550 C 0.148 1.00365 0.58772 0.0
C551 C 0.19756 0.01993 0.5954 0.0
H552 H 0.17273 0.15251 0.00656 0.0
C553 C 0.14017 0.15815 0.00362 0.0
H554 H 0.11069 0.1965 0.98608 0.0
H555 H 0.3579 0.35661 0.97524 0.0
H556 H 0.36172 0.37615 0.0109 0.0
H557 H 0.28681 0.32598 0.03165 0.0
H558 H 0.20791 0.25552 0.01695 0.0
C559 C 0.14365 0.19201 0.98976 0.0
C560 C 0.19013 0.22126 0.97766 0.0
C561 C 0.23569 0.263 0.98643 0.0
C562 C 0.27836 0.29312 0.9743 0.0
C563 C 0.32386 0.33353 0.98359 0.0
C564 C 0.32667 0.34498 0.00408 0.0
C565 C 0.28453 0.31665 0.01577 0.0
C566 C 0.23948 0.27615 0.00714 0.0
H567 H 0.30604 0.37803 0.9436 0.0
C568 C 0.32883 0.3641 0.93636 0.0
H569 H 0.33905 0.2996 0.93341 0.0
H570 H 0.10976 0.14263 0.95627 0.0
H571 H 0.10566 0.12373 0.92053 0.0
H572 H 0.17879 0.17707 0.8994 0.0
H573 H 0.25655 0.24963 0.91389 0.0
C574 C 0.31806 0.31597 0.94021 0.0
C575 C 0.27494 0.28242 0.95331 0.0
C576 C 0.22986 0.23995 0.94465 0.0
C577 C 0.18746 0.20945 0.95682 0.0
C578 C 0.14288 0.1674 0.94771 0.0
C579 C 0.14005 0.15602 0.92722 0.0
C580 C 0.18124 0.18603 0.91533 0.0
C581 C 0.22568 0.22755 0.92385 0.0
H582 H 0.05848 0.22784 0.35087 0.0
C583 C 0.03843 0.18701 0.34712 0.0
H584 H 0.99238 0.13038 0.32498 0.0
H585 H 0.98578 0.34741 0.30749 0.0
H586 H 0.94056 0.33019 0.33847 0.0
H587 H 0.92427 0.25545 0.35853 0.0
H588 H 0.95448 0.1983 0.34793 0.0
C589 C 0.01183 0.17073 0.3294 0.0
C590 C 0.01109 0.20846 0.31508 0.0
C591 C 0.99022 0.23962 0.32074 0.0
C592 C 0.99679 0.28087 0.30849 0.0
C593 C 0.97955 0.31393 0.31554 0.0
C594 C 0.95384 0.30474 0.33343 0.0
C595 C 0.94488 0.26282 0.34477 0.0
C596 C 0.9628 0.23056 0.33859 0.0
H597 H 0.95273 0.30867 0.2713 0.0
C598 C 0.99208 0.33777 0.26847 0.0
H599 H 0.07042 0.36204 0.27497 0.0
H600 H 0.05169 0.15347 0.29889 0.0
H601 H 0.09141 0.1666 0.26666 0.0
H602 H 0.09861 0.23498 0.24455 0.0
H603 H 0.06654 0.29098 0.25459 0.0
C604 C 0.03068 0.33336 0.27721 0.0
C605 C 0.02124 0.28888 0.28986 0.0
C606 C 0.03923 0.25569 0.28364 0.0
C607 C 0.03435 0.21565 0.29627 0.0
C608 C 0.05393 0.18411 0.28983 0.0
C609 C 0.07683 0.19122 0.27136 0.0
C610 C 0.08094 0.22976 0.25892 0.0
C611 C 0.06247 0.26173 0.2649 0.0
loop_
_geom_bond_atom_site_label_1
_geom_bond_atom_site_label_2
_geom_bond_distance
_geom_bond_site_symmetry_2
_ccdc_geom_bond_type
Mn0 O5 2.095 . S
Mn0 O15 2.162 . S
Mn0 O16 2.297 1_545 S
Mn0 O24 2.385 1_545 S
Mn0 O25 2.209 1_455 S
Mn0 O26 2.094 . S
Mn1 O6 2.121 . S
Mn1 N8 2.257 . S
Mn1 N17 2.282 1_554 S
Mn1 O25 2.215 . S
Mn1 O27 2.117 1_655 S
C2 O24 1.234 1_655 S
C2 O25 1.283 1_565 S
C3 O15 1.281 1_565 S
C3 O16 1.236 . S
C4 O26 1.240 . S
C4 O27 1.264 . S
O5 Mn0 2.095 . S
O5 C14 1.250 . S
O6 Mn1 2.121 . S
O6 C14 1.258 1_655 S
C7 N8 1.326 . S
C7 C11 1.460 . S
C7 H13 0.929 . S
N8 Mn1 2.257 . S
N8 C7 1.326 . S
N8 C12 1.362 1_554 S
C9 C10 1.258 1_556 S
C9 C12 1.431 . S
C9 C29 1.449 . S
C10 C9 1.258 1_554 S
C10 C11 1.477 . S
C10 H30 0.930 1_554 S
C11 C7 1.460 . S
C11 C10 1.477 . S
C11 H31 0.930 . S
C12 N8 1.362 1_556 S
C12 C9 1.431 . S
C12 C22 1.476 . S
H13 C7 0.929 . S
C14 O5 1.250 . S
C14 O6 1.258 1_455 S
O15 Mn0 2.162 . S
O15 C3 1.281 1_545 S
O16 Mn0 2.297 1_565 S
O16 C3 1.236 . S
N17 Mn1 2.282 1_556 S
N17 C18 1.328 . S
N17 C22 1.318 . S
C18 N17 1.328 . S
C18 C19 1.457 . S
C18 H23 0.929 1_655 S
C19 C18 1.457 . S
C19 C20 1.291 . S
C19 H32 0.931 . S
C20 C19 1.291 . S
C20 C21 1.373 . S
C20 H33 0.929 . S
C21 C20 1.373 . S
C21 C22 1.396 . S
C21 C28 1.403 . S
C22 C12 1.476 . S
C22 N17 1.318 . S
C22 C21 1.396 . S
H23 C18 0.929 1_455 S
O24 Mn0 2.385 1_565 S
O24 C2 1.234 1_455 S
O25 Mn0 2.209 1_655 S
O25 Mn1 2.215 . S
O25 C2 1.283 1_545 S
O26 Mn0 2.094 . S
O26 C4 1.240 . S
O27 Mn1 2.117 1_455 S
O27 C4 1.264 . S
C28 C21 1.403 . S
C28 C29 1.399 . S
C28 H34 0.929 . S
C29 C9 1.449 . S
C29 C28 1.399 . S
C29 H35 0.930 . S
H30 C10 0.930 1_556 S
H31 C11 0.930 . S
H32 C19 0.931 . S
H33 C20 0.929 . S
H34 C28 0.929 . S
H35 C29 0.930 . S
Mn36 O41 2.095 . S
Mn36 O51 2.162 1_545 S
Mn36 O52 2.297 1_655 S
Mn36 O60 2.385 1_655 S
Mn36 O61 2.209 1_655 S
Mn36 O62 2.094 . S
Mn37 O42 2.121 . S
Mn37 N44 2.257 . S
Mn37 N53 2.282 . S
Mn37 O61 2.215 . S
Mn37 O63 2.117 1_455 S
C38 O60 1.234 . S
C38 O61 1.283 . S
C39 O51 1.281 1_455 S
C39 O52 1.236 1_565 S
C40 O62 1.240 . S
C40 O63 1.264 . S
O41 Mn36 2.095 . S
O41 C50 1.250 1_655 S
O42 Mn37 2.121 . S
O42 C50 1.258 . S
C43 N44 1.326 . S
C43 C47 1.460 . S
C43 H49 0.929 . S
N44 Mn37 2.257 . S
N44 C43 1.326 . S
N44 C48 1.362 . S
C45 C46 1.258 . S
C45 C48 1.431 . S
C45 C65 1.449 . S
C46 C45 1.258 . S
C46 C47 1.477 . S
C46 H66 0.931 . S
C47 C43 1.460 . S
C47 C46 1.477 . S
C47 H67 0.930 . S
C48 N44 1.362 . S
C48 C45 1.431 . S
C48 C58 1.476 . S
H49 C43 0.929 . S
C50 O41 1.250 1_455 S
C50 O42 1.258 . S
O51 Mn36 2.162 1_565 S
O51 C39 1.281 1_655 S
O52 Mn36 2.297 1_455 S
O52 C39 1.236 1_545 S
N53 Mn37 2.282 . S
N53 C54 1.328 . S
N53 C58 1.318 . S
C54 N53 1.328 . S
C54 C55 1.457 . S
C54 H59 0.929 . S
C55 C54 1.457 . S
C55 C56 1.291 . S
C55 H68 0.931 . S
C56 C55 1.291 . S
C56 C57 1.373 . S
C56 H69 0.929 . S
C57 C56 1.373 . S
C57 C58 1.396 . S
C57 C64 1.403 . S
C58 C48 1.476 . S
C58 N53 1.318 . S
C58 C57 1.396 . S
H59 C54 0.929 . S
O60 Mn36 2.385 1_455 S
O60 C38 1.234 . S
O61 Mn36 2.209 1_455 S
O61 Mn37 2.215 . S
O61 C38 1.283 . S
O62 Mn36 2.094 . S
O62 C40 1.240 . S
O63 Mn37 2.117 1_655 S
O63 C40 1.264 . S
C64 C57 1.403 . S
C64 C65 1.399 . S
C64 H70 0.929 . S
C65 C45 1.449 . S
C65 C64 1.399 . S
C65 H71 0.930 . S
H66 C46 0.931 . S
H67 C47 0.930 . S
H68 C55 0.931 . S
H69 C56 0.929 . S
H70 C64 0.929 . S
H71 C65 0.930 . S
Mn72 O77 2.095 1_455 S
Mn72 O87 2.162 . S
Mn72 O88 2.297 . S
Mn72 O96 2.385 . S
Mn72 O97 2.209 . S
Mn72 O98 2.094 1_445 S
Mn73 O78 2.121 . S
Mn73 N80 2.257 . S
Mn73 N89 2.282 1_655 S
Mn73 O97 2.215 1_655 S
Mn73 O99 2.117 . S
C74 O96 1.234 . S
C74 O97 1.283 . S
C75 O87 1.281 . S
C75 O88 1.236 . S
C76 O98 1.240 . S
C76 O99 1.264 1_565 S
O77 Mn72 2.095 1_655 S
O77 C86 1.250 . S
O78 Mn73 2.121 . S
O78 C86 1.258 . S
C79 N80 1.326 . S
C79 C83 1.460 1_655 S
C79 H85 0.929 . S
N80 Mn73 2.257 . S
N80 C79 1.326 . S
N80 C84 1.362 1_655 S
C81 C82 1.258 . S
C81 C84 1.431 . S
C81 C101 1.449 . S
C82 C81 1.258 . S
C82 C83 1.477 . S
C82 H102 0.931 . S
C83 C79 1.460 1_455 S
C83 C82 1.477 . S
C83 H103 0.930 1_455 S
C84 N80 1.362 1_455 S
C84 C81 1.431 . S
C84 C94 1.476 . S
H85 C79 0.929 . S
C86 O77 1.250 . S
C86 O78 1.258 . S
O87 Mn72 2.162 . S
O87 C75 1.281 . S
O88 Mn72 2.297 . S
O88 C75 1.236 . S
N89 Mn73 2.282 1_455 S
N89 C90 1.328 . S
N89 C94 1.318 . S
C90 N89 1.328 . S
C90 C91 1.457 . S
C90 H95 0.929 1_455 S
C91 C90 1.457 . S
C91 C92 1.291 . S
C91 H104 0.931 . S
C92 C91 1.291 . S
C92 C93 1.373 . S
C92 H105 0.929 . S
C93 C92 1.373 . S
C93 C94 1.396 . S
C93 C100 1.403 . S
C94 C84 1.476 . S
C94 N89 1.318 . S
C94 C93 1.396 . S
H95 C90 0.929 1_655 S
O96 Mn72 2.385 . S
O96 C74 1.234 . S
O97 Mn72 2.209 . S
O97 Mn73 2.215 1_455 S
O97 C74 1.283 . S
O98 Mn72 2.094 1_665 S
O98 C76 1.240 . S
O99 Mn73 2.117 . S
O99 C76 1.264 1_545 S
C100 C93 1.403 . S
C100 C101 1.399 . S
C100 H106 0.929 . S
C101 C81 1.449 . S
C101 C100 1.399 . S
C101 H107 0.930 . S
H102 C82 0.931 . S
H103 C83 0.930 1_655 S
H104 C91 0.931 . S
H105 C92 0.929 . S
H106 C100 0.929 . S
H107 C101 0.930 . S
H108 C127 0.949 . S
H109 C128 0.950 . S
H110 C130 0.950 . S
H111 C131 0.950 . S
H112 C133 0.950 . S
H113 C136 0.950 . S
H114 C137 0.950 . S
H115 C139 0.951 . S
H116 C140 0.949 . S
H117 C142 0.949 . S
H118 C143 0.950 . S
H119 C145 0.950 . S
H120 C146 0.950 . S
H121 C148 0.950 . S
H122 C151 0.950 . S
H123 C152 0.950 . S
H124 C154 0.951 . S
H125 C155 0.949 . S
C126 C127 1.376 . S
C126 C131 1.386 1_455 S
C126 C132 1.483 . S
C127 H108 0.949 . S
C127 C126 1.376 . S
C127 C128 1.397 . S
C128 H109 0.950 . S
C128 C127 1.397 . S
C128 C129 1.391 . S
C129 C128 1.391 . S
C129 C130 1.405 1_455 S
C130 H110 0.950 . S
C130 C129 1.405 1_655 S
C130 C131 1.367 . S
C131 H111 0.950 . S
C131 C126 1.386 1_655 S
C131 C130 1.367 . S
C132 C126 1.483 . S
C132 C133 1.382 . S
C132 C134 1.403 . S
C133 H112 0.950 . S
C133 C132 1.382 . S
C133 C149 1.411 . S
C134 C132 1.403 . S
C134 C135 1.489 . S
C134 C148 1.411 . S
C135 C134 1.489 . S
C135 C136 1.383 . S
C135 C140 1.382 1_455 S
C136 H113 0.950 . S
C136 C135 1.383 . S
C136 C137 1.395 . S
C137 H114 0.950 . S
C137 C136 1.395 . S
C137 C138 1.288 . S
C138 C137 1.288 . S
C138 C139 1.392 1_455 S
C139 H115 0.951 . S
C139 C138 1.392 1_655 S
C139 C140 1.392 . S
C140 H116 0.949 . S
C140 C135 1.382 1_655 S
C140 C139 1.392 . S
C141 C142 1.376 1_455 S
C141 C146 1.386 . S
C141 C147 1.483 . S
C142 H117 0.949 . S
C142 C141 1.376 1_655 S
C142 C143 1.397 . S
C143 H118 0.950 . S
C143 C142 1.397 . S
C143 C144 1.391 1_655 S
C144 C143 1.391 1_455 S
C144 C145 1.405 . S
C145 H119 0.950 . S
C145 C144 1.405 . S
C145 C146 1.367 . S
C146 H120 0.950 . S
C146 C141 1.386 . S
C146 C145 1.367 . S
C147 C141 1.483 . S
C147 C148 1.382 . S
C147 C149 1.403 . S
C148 H121 0.950 . S
C148 C134 1.411 . S
C148 C147 1.382 . S
C149 C133 1.411 . S
C149 C147 1.403 . S
C149 C150 1.489 . S
C150 C149 1.489 . S
C150 C151 1.383 1_455 S
C150 C155 1.382 . S
C151 H122 0.950 . S
C151 C150 1.383 1_655 S
C151 C152 1.395 . S
C152 H123 0.950 . S
C152 C151 1.395 . S
C152 C153 1.288 1_655 S
C153 C152 1.288 1_455 S
C153 C154 1.392 . S
C154 H124 0.951 . S
C154 C153 1.392 . S
C154 C155 1.392 . S
C155 H125 0.949 . S
C155 C150 1.382 . S
C155 C154 1.392 . S
H156 C175 0.949 . S
H157 C176 0.950 . S
H158 C178 0.950 . S
H159 C179 0.950 . S
H160 C181 0.950 . S
H161 C184 0.950 . S
H162 C185 0.950 . S
H163 C187 0.951 . S
H164 C188 0.949 . S
H165 C190 0.949 . S
H166 C191 0.950 . S
H167 C193 0.950 . S
H168 C194 0.950 . S
H169 C196 0.950 . S
H170 C199 0.950 . S
H171 C200 0.950 . S
H172 C202 0.951 . S
H173 C203 0.949 . S
C174 C175 1.376 . S
C174 C179 1.386 . S
C174 C180 1.483 . S
C175 H156 0.949 . S
C175 C174 1.376 . S
C175 C176 1.397 . S
C176 H157 0.950 . S
C176 C175 1.397 . S
C176 C177 1.391 . S
C177 C176 1.391 . S
C177 C178 1.405 . S
C178 H158 0.950 . S
C178 C177 1.405 . S
C178 C179 1.367 . S
C179 H159 0.950 . S
C179 C174 1.386 . S
C179 C178 1.367 . S
C180 C174 1.483 . S
C180 C181 1.382 . S
C180 C182 1.403 . S
C181 H160 0.950 . S
C181 C180 1.382 . S
C181 C197 1.411 . S
C182 C180 1.403 . S
C182 C183 1.489 . S
C182 C196 1.411 . S
C183 C182 1.489 . S
C183 C184 1.383 . S
C183 C188 1.382 . S
C184 H161 0.950 . S
C184 C183 1.383 . S
C184 C185 1.395 . S
C185 H162 0.950 . S
C185 C184 1.395 . S
C185 C186 1.288 . S
C186 C185 1.288 . S
C186 C187 1.392 . S
C187 H163 0.951 . S
C187 C186 1.392 . S
C187 C188 1.392 . S
C188 H164 0.949 . S
C188 C183 1.382 . S
C188 C187 1.392 . S
C189 C190 1.376 . S
C189 C194 1.386 . S
C189 C195 1.483 . S
C190 H165 0.949 . S
C190 C189 1.376 . S
C190 C191 1.397 . S
C191 H166 0.950 . S
C191 C190 1.397 . S
C191 C192 1.391 . S
C192 C191 1.391 . S
C192 C193 1.405 . S
C193 H167 0.950 . S
C193 C192 1.405 . S
C193 C194 1.367 . S
C194 H168 0.950 . S
C194 C189 1.386 . S
C194 C193 1.367 . S
C195 C189 1.483 . S
C195 C196 1.382 . S
C195 C197 1.403 . S
C196 H169 0.950 . S
C196 C182 1.411 . S
C196 C195 1.382 . S
C197 C181 1.411 . S
C197 C195 1.403 . S
C197 C198 1.489 . S
C198 C197 1.489 . S
C198 C199 1.383 . S
C198 C203 1.382 . S
C199 H170 0.950 . S
C199 C198 1.383 . S
C199 C200 1.395 . S
C200 H171 0.950 . S
C200 C199 1.395 . S
C200 C201 1.288 . S
C201 C200 1.288 . S
C201 C202 1.392 . S
C202 H172 0.951 . S
C202 C201 1.392 . S
C202 C203 1.392 . S
C203 H173 0.949 . S
C203 C198 1.382 . S
C203 C202 1.392 . S
H204 C223 0.949 . S
H205 C224 0.950 . S
H206 C226 0.950 . S
H207 C227 0.950 . S
H208 C229 0.950 . S
H209 C232 0.950 . S
H210 C233 0.950 . S
H211 C235 0.951 . S
H212 C236 0.949 . S
H213 C238 0.949 . S
H214 C239 0.950 . S
H215 C241 0.950 . S
H216 C242 0.950 . S
H217 C244 0.950 . S
H218 C247 0.950 . S
H219 C248 0.950 . S
H220 C250 0.951 . S
H221 C251 0.949 . S
C222 C223 1.376 . S
C222 C227 1.386 . S
C222 C228 1.483 . S
C223 H204 0.949 . S
C223 C222 1.376 . S
C223 C224 1.397 . S
C224 H205 0.950 . S
C224 C223 1.397 . S
C224 C225 1.391 . S
C225 C224 1.391 . S
C225 C226 1.405 . S
C226 H206 0.950 . S
C226 C225 1.405 . S
C226 C227 1.367 . S
C227 H207 0.950 . S
C227 C222 1.386 . S
C227 C226 1.367 . S
C228 C222 1.483 . S
C228 C229 1.382 . S
C228 C230 1.403 . S
C229 H208 0.950 . S
C229 C228 1.382 . S
C229 C245 1.411 . S
C230 C228 1.403 . S
C230 C231 1.489 . S
C230 C244 1.411 . S
C231 C230 1.489 . S
C231 C232 1.383 . S
C231 C236 1.382 . S
C232 H209 0.950 . S
C232 C231 1.383 . S
C232 C233 1.395 . S
C233 H210 0.950 . S
C233 C232 1.395 . S
C233 C234 1.288 . S
C234 C233 1.288 . S
C234 C235 1.392 . S
C235 H211 0.951 . S
C235 C234 1.392 . S
C235 C236 1.392 . S
C236 H212 0.949 . S
C236 C231 1.382 . S
C236 C235 1.392 . S
C237 C238 1.376 . S
C237 C242 1.386 . S
C237 C243 1.483 . S
C238 H213 0.949 . S
C238 C237 1.376 . S
C238 C239 1.397 . S
C239 H214 0.950 . S
C239 C238 1.397 . S
C239 C240 1.391 . S
C240 C239 1.391 . S
C240 C241 1.405 . S
C241 H215 0.950 . S
C241 C240 1.405 . S
C241 C242 1.367 . S
C242 H216 0.950 . S
C242 C237 1.386 . S
C242 C241 1.367 . S
C243 C237 1.483 . S
C243 C244 1.382 . S
C243 C245 1.403 . S
C244 H217 0.950 . S
C244 C230 1.411 . S
C244 C243 1.382 . S
C245 C229 1.411 . S
C245 C243 1.403 . S
C245 C246 1.489 . S
C246 C245 1.489 . S
C246 C247 1.383 . S
C246 C251 1.382 . S
C247 H218 0.950 . S
C247 C246 1.383 . S
C247 C248 1.395 . S
C248 H219 0.950 . S
C248 C247 1.395 . S
C248 C249 1.288 . S
C249 C248 1.288 . S
C249 C250 1.392 . S
C250 H220 0.951 . S
C250 C249 1.392 . S
C250 C251 1.392 . S
C251 H221 0.949 . S
C251 C246 1.382 . S
C251 C250 1.392 . S
H252 C253 0.951 . S
C253 H252 0.951 . S
C253 C259 1.265 . S
H254 C259 0.950 1_655 S
H255 C263 0.949 . S
H256 C264 0.950 . S
H257 C265 0.951 . S
H258 C266 0.951 . S
C259 C253 1.265 . S
C259 H254 0.950 1_455 S
C259 C260 1.478 . S
C260 C259 1.478 . S
C260 C261 1.397 1_455 S
C260 C277 1.394 . S
C261 C260 1.397 1_655 S
C261 C262 1.438 1_655 S
C261 C266 1.429 . S
C262 C261 1.438 1_455 S
C262 C263 1.428 1_455 S
C262 C275 1.394 . S
C263 H255 0.949 . S
C263 C262 1.428 1_655 S
C263 C264 1.345 . S
C264 H256 0.950 . S
C264 C263 1.345 . S
C264 C265 1.424 . S
C265 H257 0.951 . S
C265 C264 1.424 . S
C265 C266 1.347 . S
C266 H258 0.951 . S
C266 C261 1.429 . S
C266 C265 1.347 . S
H267 C268 0.951 1_655 S
C268 H267 0.951 1_455 S
C268 C274 1.265 . S
H269 C274 0.950 . S
H270 C278 0.949 . S
H271 C279 0.950 . S
H272 C280 0.951 . S
H273 C281 0.951 . S
C274 C268 1.265 . S
C274 H269 0.950 . S
C274 C275 1.478 . S
C275 C262 1.394 . S
C275 C274 1.478 . S
C275 C276 1.397 . S
C276 C275 1.397 . S
C276 C277 1.438 . S
C276 C281 1.429 . S
C277 C260 1.394 . S
C277 C276 1.438 . S
C277 C278 1.428 . S
C278 H270 0.949 . S
C278 C277 1.428 . S
C278 C279 1.345 . S
C279 H271 0.950 . S
C279 C278 1.345 . S
C279 C280 1.424 . S
C280 H272 0.951 . S
C280 C279 1.424 . S
C280 C281 1.347 . S
C281 H273 0.951 . S
C281 C276 1.429 . S
C281 C280 1.347 . S
H282 C283 0.951 . S
C283 H282 0.951 . S
C283 C289 1.265 . S
H284 C289 0.950 . S
H285 C293 0.949 . S
H286 C294 0.950 . S
H287 C295 0.951 . S
H288 C296 0.951 . S
C289 C283 1.265 . S
C289 H284 0.950 . S
C289 C290 1.478 . S
C290 C289 1.478 . S
C290 C291 1.397 . S
C290 C307 1.394 . S
C291 C290 1.397 . S
C291 C292 1.438 . S
C291 C296 1.429 1_545 S
C292 C291 1.438 . S
C292 C293 1.428 1_545 S
C292 C305 1.394 . S
C293 H285 0.949 . S
C293 C292 1.428 1_565 S
C293 C294 1.345 . S
C294 H286 0.950 . S
C294 C293 1.345 . S
C294 C295 1.424 . S
C295 H287 0.951 . S
C295 C294 1.424 . S
C295 C296 1.347 . S
C296 H288 0.951 . S
C296 C291 1.429 1_565 S
C296 C295 1.347 . S
H297 C298 0.951 . S
C298 H297 0.951 . S
C298 C304 1.265 . S
H299 C304 0.950 . S
H300 C308 0.949 . S
H301 C309 0.950 . S
H302 C310 0.951 . S
H303 C311 0.951 . S
C304 C298 1.265 . S
C304 H299 0.950 . S
C304 C305 1.478 . S
C305 C292 1.394 . S
C305 C304 1.478 . S
C305 C306 1.397 . S
C306 C305 1.397 . S
C306 C307 1.438 . S
C306 C311 1.429 . S
C307 C290 1.394 . S
C307 C306 1.438 . S
C307 C308 1.428 . S
C308 H300 0.949 . S
C308 C307 1.428 . S
C308 C309 1.345 . S
C309 H301 0.950 . S
C309 C308 1.345 . S
C309 C310 1.424 . S
C310 H302 0.951 . S
C310 C309 1.424 . S
C310 C311 1.347 . S
C311 H303 0.951 . S
C311 C306 1.429 . S
C311 C310 1.347 . S
H312 C313 0.951 . S
C313 H312 0.951 . S
C313 C319 1.265 . S
H314 C319 0.950 . S
H315 C323 0.949 . S
H316 C324 0.950 . S
H317 C325 0.951 . S
H318 C326 0.951 . S
C319 C313 1.265 . S
C319 H314 0.950 . S
C319 C320 1.478 . S
C320 C319 1.478 . S
C320 C321 1.397 . S
C320 C337 1.394 . S
C321 C320 1.397 . S
C321 C322 1.438 . S
C321 C326 1.429 . S
C322 C321 1.438 . S
C322 C323 1.428 . S
C322 C335 1.394 . S
C323 H315 0.949 . S
C323 C322 1.428 . S
C323 C324 1.345 . S
C324 H316 0.950 . S
C324 C323 1.345 . S
C324 C325 1.424 . S
C325 H317 0.951 . S
C325 C324 1.424 . S
C325 C326 1.347 . S
C326 H318 0.951 . S
C326 C321 1.429 . S
C326 C325 1.347 . S
H327 C328 0.951 . S
C328 H327 0.951 . S
C328 C334 1.265 . S
H329 C334 0.950 . S
H330 C338 0.949 . S
H331 C339 0.950 . S
H332 C340 0.951 . S
H333 C341 0.951 . S
C334 C328 1.265 . S
C334 H329 0.950 . S
C334 C335 1.478 . S
C335 C322 1.394 . S
C335 C334 1.478 . S
C335 C336 1.397 . S
C336 C335 1.397 . S
C336 C337 1.438 . S
C336 C341 1.429 . S
C337 C320 1.394 . S
C337 C336 1.438 . S
C337 C338 1.428 . S
C338 H330 0.949 . S
C338 C337 1.428 . S
C338 C339 1.345 . S
C339 H331 0.950 . S
C339 C338 1.345 . S
C339 C340 1.424 . S
C340 H332 0.951 . S
C340 C339 1.424 . S
C340 C341 1.347 . S
C341 H333 0.951 . S
C341 C336 1.429 . S
C341 C340 1.347 . S
H342 C343 0.951 . S
C343 H342 0.951 . S
C343 C349 1.265 . S
H344 C349 0.950 . S
H345 C353 0.949 . S
H346 C354 0.950 . S
H347 C355 0.951 . S
H348 C356 0.951 . S
C349 C343 1.265 . S
C349 H344 0.950 . S
C349 C350 1.478 . S
C350 C349 1.478 . S
C350 C351 1.397 . S
C350 C367 1.394 . S
C351 C350 1.397 . S
C351 C352 1.438 . S
C351 C356 1.429 . S
C352 C351 1.438 . S
C352 C353 1.428 . S
C352 C365 1.394 . S
C353 H345 0.949 . S
C353 C352 1.428 . S
C353 C354 1.345 . S
C354 H346 0.950 . S
C354 C353 1.345 . S
C354 C355 1.424 . S
C355 H347 0.951 . S
C355 C354 1.424 . S
C355 C356 1.347 . S
C356 H348 0.951 . S
C356 C351 1.429 . S
C356 C355 1.347 . S
H357 C358 0.951 . S
C358 H357 0.951 . S
C358 C364 1.265 . S
H359 C364 0.950 1_655 S
H360 C368 0.949 . S
H361 C369 0.950 . S
H362 C370 0.951 . S
H363 C371 0.951 . S
C364 C358 1.265 . S
C364 H359 0.950 1_455 S
C364 C365 1.478 . S
C365 C352 1.394 . S
C365 C364 1.478 . S
C365 C366 1.397 . S
C366 C365 1.397 . S
C366 C367 1.438 . S
C366 C371 1.429 1_455 S
C367 C350 1.394 . S
C367 C366 1.438 . S
C367 C368 1.428 . S
C368 H360 0.949 . S
C368 C367 1.428 . S
C368 C369 1.345 1_455 S
C369 H361 0.950 . S
C369 C368 1.345 1_655 S
C369 C370 1.424 . S
C370 H362 0.951 . S
C370 C369 1.424 . S
C370 C371 1.347 . S
C371 H363 0.951 . S
C371 C366 1.429 1_655 S
C371 C370 1.347 . S
H372 C373 0.951 . S
C373 H372 0.951 . S
C373 C379 1.265 . S
H374 C379 0.950 . S
H375 C383 0.949 . S
H376 C384 0.950 . S
H377 C385 0.951 . S
H378 C386 0.951 . S
C379 C373 1.265 . S
C379 H374 0.950 . S
C379 C380 1.478 . S
C380 C379 1.478 . S
C380 C381 1.397 . S
C380 C397 1.394 . S
C381 C380 1.397 . S
C381 C382 1.438 . S
C381 C386 1.429 . S
C382 C381 1.438 . S
C382 C383 1.428 . S
C382 C395 1.394 . S
C383 H375 0.949 . S
C383 C382 1.428 . S
C383 C384 1.345 . S
C384 H376 0.950 . S
C384 C383 1.345 . S
C384 C385 1.424 . S
C385 H377 0.951 . S
C385 C384 1.424 . S
C385 C386 1.347 . S
C386 H378 0.951 . S
C386 C381 1.429 . S
C386 C385 1.347 . S
H387 C388 0.951 . S
C388 H387 0.951 . S
C388 C394 1.265 . S
H389 C394 0.950 . S
H390 C398 0.949 . S
H391 C399 0.950 . S
H392 C400 0.951 . S
H393 C401 0.951 . S
C394 C388 1.265 . S
C394 H389 0.950 . S
C394 C395 1.478 . S
C395 C382 1.394 . S
C395 C394 1.478 . S
C395 C396 1.397 . S
C396 C395 1.397 . S
C396 C397 1.438 . S
C396 C401 1.429 1_545 S
C397 C380 1.394 . S
C397 C396 1.438 . S
C397 C398 1.428 1_545 S
C398 H390 0.949 . S
C398 C397 1.428 1_565 S
C398 C399 1.345 . S
C399 H391 0.950 . S
C399 C398 1.345 . S
C399 C400 1.424 . S
C400 H392 0.951 . S
C400 C399 1.424 . S
C400 C401 1.347 . S
C401 H393 0.951 . S
C401 C396 1.429 1_565 S
C401 C400 1.347 . S
H402 C403 0.951 . S
C403 H402 0.951 . S
C403 C409 1.265 . S
H404 C409 0.950 . S
H405 C413 0.949 . S
H406 C414 0.950 . S
H407 C415 0.951 . S
H408 C416 0.951 . S
C409 C403 1.265 . S
C409 H404 0.950 . S
C409 C410 1.478 . S
C410 C409 1.478 . S
C410 C411 1.397 . S
C410 C427 1.394 . S
C411 C410 1.397 . S
C411 C412 1.438 . S
C411 C416 1.429 . S
C412 C411 1.438 . S
C412 C413 1.428 . S
C412 C425 1.394 . S
C413 H405 0.949 . S
C413 C412 1.428 . S
C413 C414 1.345 . S
C414 H406 0.950 . S
C414 C413 1.345 . S
C414 C415 1.424 . S
C415 H407 0.951 . S
C415 C414 1.424 . S
C415 C416 1.347 . S
C416 H408 0.951 . S
C416 C411 1.429 . S
C416 C415 1.347 . S
H417 C418 0.951 . S
C418 H417 0.951 . S
C418 C424 1.265 . S
H419 C424 0.950 . S
H420 C428 0.949 . S
H421 C429 0.950 . S
H422 C430 0.951 . S
H423 C431 0.951 . S
C424 C418 1.265 . S
C424 H419 0.950 . S
C424 C425 1.478 . S
C425 C412 1.394 . S
C425 C424 1.478 . S
C425 C426 1.397 . S
C426 C425 1.397 . S
C426 C427 1.438 . S
C426 C431 1.429 . S
C427 C410 1.394 . S
C427 C426 1.438 . S
C427 C428 1.428 . S
C428 H420 0.949 . S
C428 C427 1.428 . S
C428 C429 1.345 . S
C429 H421 0.950 . S
C429 C428 1.345 . S
C429 C430 1.424 . S
C430 H422 0.951 . S
C430 C429 1.424 . S
C430 C431 1.347 . S
C431 H423 0.951 . S
C431 C426 1.429 . S
C431 C430 1.347 . S
H432 C433 0.951 . S
C433 H432 0.951 . S
C433 C439 1.265 . S
H434 C439 0.950 . S
H435 C443 0.949 . S
H436 C444 0.950 . S
H437 C445 0.951 . S
H438 C446 0.951 . S
C439 C433 1.265 . S
C439 H434 0.950 . S
C439 C440 1.478 . S
C440 C439 1.478 . S
C440 C441 1.397 . S
C440 C457 1.394 . S
C441 C440 1.397 . S
C441 C442 1.438 . S
C441 C446 1.429 1_545 S
C442 C441 1.438 . S
C442 C443 1.428 1_545 S
C442 C455 1.394 . S
C443 H435 0.949 . S
C443 C442 1.428 1_565 S
C443 C444 1.345 . S
C444 H436 0.950 . S
C444 C443 1.345 . S
C444 C445 1.424 . S
C445 H437 0.951 . S
C445 C444 1.424 . S
C445 C446 1.347 . S
C446 H438 0.951 . S
C446 C441 1.429 1_565 S
C446 C445 1.347 . S
H447 C448 0.951 . S
C448 H447 0.951 . S
C448 C454 1.265 . S
H449 C454 0.950 . S
H450 C458 0.949 . S
H451 C459 0.950 . S
H452 C460 0.951 . S
H453 C461 0.951 . S
C454 C448 1.265 . S
C454 H449 0.950 . S
C454 C455 1.478 . S
C455 C442 1.394 . S
C455 C454 1.478 . S
C455 C456 1.397 . S
C456 C455 1.397 . S
C456 C457 1.438 . S
C456 C461 1.429 . S
C457 C440 1.394 . S
C457 C456 1.438 . S
C457 C458 1.428 . S
C458 H450 0.949 . S
C458 C457 1.428 . S
C458 C459 1.345 . S
C459 H451 0.950 . S
C459 C458 1.345 . S
C459 C460 1.424 . S
C460 H452 0.951 . S
C460 C459 1.424 . S
C460 C461 1.347 . S
C461 H453 0.951 . S
C461 C456 1.429 . S
C461 C460 1.347 . S
H462 C463 0.951 1_556 S
C463 H462 0.951 1_554 S
C463 C469 1.265 . S
H464 C469 0.950 . S
H465 C473 0.949 . S
H466 C474 0.950 . S
H467 C475 0.951 . S
H468 C476 0.951 . S
C469 C463 1.265 . S
C469 H464 0.950 . S
C469 C470 1.478 1_554 S
C470 C469 1.478 1_556 S
C470 C471 1.397 . S
C470 C487 1.394 . S
C471 C470 1.397 . S
C471 C472 1.438 . S
C471 C476 1.429 1_556 S
C472 C471 1.438 . S
C472 C473 1.428 . S
C472 C485 1.394 . S
C473 H465 0.949 . S
C473 C472 1.428 . S
C473 C474 1.345 . S
C474 H466 0.950 . S
C474 C473 1.345 . S
C474 C475 1.424 1_556 S
C475 H467 0.951 . S
C475 C474 1.424 1_554 S
C475 C476 1.347 . S
C476 H468 0.951 . S
C476 C471 1.429 1_554 S
C476 C475 1.347 . S
H477 C478 0.951 . S
C478 H477 0.951 . S
C478 C484 1.265 . S
H479 C484 0.950 . S
H480 C488 0.949 . S
H481 C489 0.950 . S
H482 C490 0.951 . S
H483 C491 0.951 . S
C484 C478 1.265 . S
C484 H479 0.950 . S
C484 C485 1.478 . S
C485 C472 1.394 . S
C485 C484 1.478 . S
C485 C486 1.397 . S
C486 C485 1.397 . S
C486 C487 1.438 . S
C486 C491 1.429 . S
C487 C470 1.394 . S
C487 C486 1.438 . S
C487 C488 1.428 . S
C488 H480 0.949 . S
C488 C487 1.428 . S
C488 C489 1.345 . S
C489 H481 0.950 . S
C489 C488 1.345 . S
C489 C490 1.424 . S
C490 H482 0.951 . S
C490 C489 1.424 . S
C490 C491 1.347 . S
C491 H483 0.951 . S
C491 C486 1.429 . S
C491 C490 1.347 . S
H492 C493 0.951 . S
C493 H492 0.951 . S
C493 C499 1.265 1_455 S
H494 C499 0.950 . S
H495 C503 0.949 . S
H496 C504 0.950 . S
H497 C505 0.951 . S
H498 C506 0.951 . S
C499 C493 1.265 1_655 S
C499 H494 0.950 . S
C499 C500 1.478 . S
C500 C499 1.478 . S
C500 C501 1.397 . S
C500 C517 1.394 1_655 S
C501 C500 1.397 . S
C501 C502 1.438 . S
C501 C506 1.429 . S
C502 C501 1.438 . S
C502 C503 1.428 . S
C502 C515 1.394 1_655 S
C503 H495 0.949 . S
C503 C502 1.428 . S
C503 C504 1.345 . S
C504 H496 0.950 . S
C504 C503 1.345 . S
C504 C505 1.424 . S
C505 H497 0.951 . S
C505 C504 1.424 . S
C505 C506 1.347 . S
C506 H498 0.951 . S
C506 C501 1.429 . S
C506 C505 1.347 . S
H507 C508 0.951 1_655 S
C508 H507 0.951 1_455 S
C508 C514 1.265 . S
H509 C514 0.950 . S
H510 C518 0.949 . S
H511 C519 0.950 . S
H512 C520 0.951 . S
H513 C521 0.951 . S
C514 C508 1.265 . S
C514 H509 0.950 . S
C514 C515 1.478 . S
C515 C502 1.394 1_455 S
C515 C514 1.478 . S
C515 C516 1.397 . S
C516 C515 1.397 . S
C516 C517 1.438 . S
C516 C521 1.429 . S
C517 C500 1.394 1_455 S
C517 C516 1.438 . S
C517 C518 1.428 . S
C518 H510 0.949 . S
C518 C517 1.428 . S
C518 C519 1.345 . S
C519 H511 0.950 . S
C519 C518 1.345 . S
C519 C520 1.424 . S
C520 H512 0.951 . S
C520 C519 1.424 . S
C520 C521 1.347 . S
C521 H513 0.951 . S
C521 C516 1.429 . S
C521 C520 1.347 . S
H522 C523 0.951 . S
C523 H522 0.951 . S
C523 C529 1.265 . S
H524 C529 0.950 . S
H525 C533 0.949 . S
H526 C534 0.950 . S
H527 C535 0.951 . S
H528 C536 0.951 . S
C529 C523 1.265 . S
C529 H524 0.950 . S
C529 C530 1.478 . S
C530 C529 1.478 . S
C530 C531 1.397 . S
C530 C547 1.394 . S
C531 C530 1.397 . S
C531 C532 1.438 . S
C531 C536 1.429 . S
C532 C531 1.438 . S
C532 C533 1.428 . S
C532 C545 1.394 . S
C533 H525 0.949 . S
C533 C532 1.428 . S
C533 C534 1.345 . S
C534 H526 0.950 . S
C534 C533 1.345 . S
C534 C535 1.424 . S
C535 H527 0.951 . S
C535 C534 1.424 . S
C535 C536 1.347 . S
C536 H528 0.951 . S
C536 C531 1.429 . S
C536 C535 1.347 . S
H537 C538 0.951 . S
C538 H537 0.951 . S
C538 C544 1.265 . S
H539 C544 0.950 . S
H540 C548 0.949 . S
H541 C549 0.950 . S
H542 C550 0.951 . S
H543 C551 0.951 . S
C544 C538 1.265 . S
C544 H539 0.950 . S
C544 C545 1.478 . S
C545 C532 1.394 . S
C545 C544 1.478 . S
C545 C546 1.397 . S
C546 C545 1.397 . S
C546 C547 1.438 . S
C546 C551 1.429 1_545 S
C547 C530 1.394 . S
C547 C546 1.438 . S
C547 C548 1.428 1_545 S
C548 H540 0.949 . S
C548 C547 1.428 1_565 S
C548 C549 1.345 . S
C549 H541 0.950 . S
C549 C548 1.345 . S
C549 C550 1.424 . S
C550 H542 0.951 . S
C550 C549 1.424 . S
C550 C551 1.347 . S
C551 H543 0.951 . S
C551 C546 1.429 1_565 S
C551 C550 1.347 . S
H552 C553 0.963 . S
C553 H552 0.963 . S
C553 C559 1.273 . S
H554 C559 0.930 1_554 S
H555 C563 0.949 . S
H556 C564 0.943 1_554 S
H557 C565 0.951 . S
H558 C566 0.951 . S
C559 C553 1.273 . S
C559 H554 0.930 1_556 S
C559 C560 1.478 . S
C560 C559 1.478 . S
C560 C561 1.397 . S
C560 C577 1.394 . S
C561 C560 1.397 . S
C561 C562 1.438 . S
C561 C566 1.429 1_556 S
C562 C561 1.438 . S
C562 C563 1.428 . S
C562 C575 1.394 . S
C563 H555 0.949 . S
C563 C562 1.428 . S
C563 C564 1.369 . S
C564 H556 0.943 1_556 S
C564 C563 1.369 . S
C564 C565 1.407 1_556 S
C565 H557 0.951 . S
C565 C564 1.407 1_554 S
C565 C566 1.347 . S
C566 H558 0.951 . S
C566 C561 1.429 1_554 S
C566 C565 1.347 . S
H567 C568 0.951 . S
C568 H567 0.951 . S
C568 C574 1.265 . S
H569 C574 0.950 . S
H570 C578 0.949 . S
H571 C579 0.950 . S
H572 C580 0.951 . S
H573 C581 0.951 . S
C574 C568 1.265 . S
C574 H569 0.950 . S
C574 C575 1.478 . S
C575 C562 1.394 . S
C575 C574 1.478 . S
C575 C576 1.397 . S
C576 C575 1.397 . S
C576 C577 1.438 . S
C576 C581 1.429 . S
C577 C560 1.394 . S
C577 C576 1.438 . S
C577 C578 1.428 . S
C578 H570 0.949 . S
C578 C577 1.428 . S
C578 C579 1.345 . S
C579 H571 0.950 . S
C579 C578 1.345 . S
C579 C580 1.424 . S
C580 H572 0.951 . S
C580 C579 1.424 . S
C580 C581 1.347 . S
C581 H573 0.951 . S
C581 C576 1.429 . S
C581 C580 1.347 . S
H582 C583 0.951 . S
C583 H582 0.951 . S
C583 C589 1.265 1_455 S
H584 C589 0.950 . S
H585 C593 0.949 . S
H586 C594 0.950 . S
H587 C595 0.951 . S
H588 C596 0.951 . S
C589 C583 1.265 1_655 S
C589 H584 0.950 . S
C589 C590 1.478 1_655 S
C590 C589 1.478 1_455 S
C590 C591 1.397 1_455 S
C590 C607 1.394 . S
C591 C590 1.397 1_655 S
C591 C592 1.438 . S
C591 C596 1.429 . S
C592 C591 1.438 . S
C592 C593 1.428 . S
C592 C605 1.394 1_655 S
C593 H585 0.949 . S
C593 C592 1.428 . S
C593 C594 1.345 . S
C594 H586 0.950 . S
C594 C593 1.345 . S
C594 C595 1.424 . S
C595 H587 0.951 . S
C595 C594 1.424 . S
C595 C596 1.347 . S
C596 H588 0.951 . S
C596 C591 1.429 . S
C596 C595 1.347 . S
H597 C598 0.951 1_655 S
C598 H597 0.951 1_455 S
C598 C604 1.265 . S
H599 C604 0.950 . S
H600 C608 0.949 . S
H601 C609 0.950 . S
H602 C610 0.951 . S
H603 C611 0.951 . S
C604 C598 1.265 . S
C604 H599 0.950 . S
C604 C605 1.478 . S
C605 C592 1.394 1_455 S
C605 C604 1.478 . S
C605 C606 1.397 . S
C606 C605 1.397 . S
C606 C607 1.438 . S
C606 C611 1.429 . S
C607 C590 1.394 . S
C607 C606 1.438 . S
C607 C608 1.428 . S
C608 H600 0.949 . S
C608 C607 1.428 . S
C608 C609 1.345 . S
C609 H601 0.950 . S
C609 C608 1.345 . S
C609 C610 1.424 . S
C610 H602 0.951 . S
C610 C609 1.424 . S
C610 C611 1.347 . S
C611 H603 0.951 . S
C611 C606 1.429 . S
C611 C610 1.347 . S
C268 C129 1.486 . S
C253 C14 1.442 . S
C283 C40 1.486 . S
C298 C177 1.514 . S
C313 C76 1.492 . S
C328 C249 1.494 . S
C343 C3 1.469 . S
C358 C153 1.447 . S
C388 C201 1.493 . S
C373 C38 1.482 . S
C403 C74 1.455 . S
C418 C225 1.485 . S
C448 C186 1.460 . S
C433 C86 1.364 . S
C463 C2 1.479 . S
C478 C240 1.487 . S
C508 C144 1.464 . S
C493 C39 1.469 . S
C538 C192 1.475 . S
C523 C75 1.477 . S
C568 C234 1.480 . S
C553 C4 1.482 1_556 S
C583 C50 1.416 . S
C598 C138 1.470 . S
