# Generated by pormake.
# Topology eea, (3,6)-cn, num edge types: 1
# Building blocks:
#     Node 0, Type 0, BuildingBlock: CUQRIR_clean_linker_1, # of connection points: 3
#     Node 1, Type 0, BuildingBlock: CUQRIR_clean_linker_1, # of connection points: 3
#     Node 2, Type 0, BuildingBlock: CUQRIR_clean_linker_1, # of connection points: 3
#     Node 3, Type 0, BuildingBlock: CUQRIR_clean_linker_1, # of connection points: 3
#     Node 4, Type 0, BuildingBlock: CUQRIR_clean_linker_1, # of connection points: 3
#     Node 5, Type 0, BuildingBlock: CUQRIR_clean_linker_1, # of connection points: 3
#     Node 6, Type 0, BuildingBlock: CUQRIR_clean_linker_1, # of connection points: 3
#     Node 7, Type 0, BuildingBlock: CUQRIR_clean_linker_1, # of connection points: 3
#     Node 8, Type 0, BuildingBlock: CUQRIR_clean_linker_1, # of connection points: 3
#     Node 9, Type 0, BuildingBlock: CUQRIR_clean_linker_1, # of connection points: 3
#     Node 10, Type 0, BuildingBlock: CUQRIR_clean_linker_1, # of connection points: 3
#     Node 11, Type 0, BuildingBlock: CUQRIR_clean_linker_1, # of connection points: 3
#     Node 12, Type 0, BuildingBlock: CUQRIR_clean_linker_1, # of connection points: 3
#     Node 13, Type 0, BuildingBlock: CUQRIR_clean_linker_1, # of connection points: 3
#     Node 14, Type 0, BuildingBlock: CUQRIR_clean_linker_1, # of connection points: 3
#     Node 15, Type 0, BuildingBlock: CUQRIR_clean_linker_1, # of connection points: 3
#     Node 16, Type 0, BuildingBlock: CUQRIR_clean_linker_1, # of connection points: 3
#     Node 17, Type 0, BuildingBlock: CUQRIR_clean_linker_1, # of connection points: 3
#     Node 18, Type 1, BuildingBlock: KUMBUR_clean_sbu_0, # of connection points: 6
#     Node 19, Type 1, BuildingBlock: KUMBUR_clean_sbu_0, # of connection points: 6
#     Node 20, Type 1, BuildingBlock: KUMBUR_clean_sbu_0, # of connection points: 6
#     Node 21, Type 1, BuildingBlock: KUMBUR_clean_sbu_0, # of connection points: 6
#     Node 22, Type 1, BuildingBlock: KUMBUR_clean_sbu_0, # of connection points: 6
#     Node 23, Type 1, BuildingBlock: KUMBUR_clean_sbu_0, # of connection points: 6
#     Node 24, Type 1, BuildingBlock: KUMBUR_clean_sbu_0, # of connection points: 6
#     Node 25, Type 1, BuildingBlock: KUMBUR_clean_sbu_0, # of connection points: 6
#     Node 26, Type 1, BuildingBlock: KUMBUR_clean_sbu_0, # of connection points: 6
#     Edge 27, Type (0, 1), BuildingBlock: TEMPAE_clean_linker_10, # of connection points: 2
#     Edge 28, Type (0, 1), BuildingBlock: TEMPAE_clean_linker_10, # of connection points: 2
#     Edge 29, Type (0, 1), BuildingBlock: TEMPAE_clean_linker_10, # of connection points: 2
#     Edge 30, Type (0, 1), BuildingBlock: TEMPAE_clean_linker_10, # of connection points: 2
#     Edge 31, Type (0, 1), BuildingBlock: TEMPAE_clean_linker_10, # of connection points: 2
#     Edge 32, Type (0, 1), BuildingBlock: TEMPAE_clean_linker_10, # of connection points: 2
#     Edge 33, Type (0, 1), BuildingBlock: TEMPAE_clean_linker_10, # of connection points: 2
#     Edge 34, Type (0, 1), BuildingBlock: TEMPAE_clean_linker_10, # of connection points: 2
#     Edge 35, Type (0, 1), BuildingBlock: TEMPAE_clean_linker_10, # of connection points: 2
#     Edge 36, Type (0, 1), BuildingBlock: TEMPAE_clean_linker_10, # of connection points: 2
#     Edge 37, Type (0, 1), BuildingBlock: TEMPAE_clean_linker_10, # of connection points: 2
#     Edge 38, Type (0, 1), BuildingBlock: TEMPAE_clean_linker_10, # of connection points: 2
#     Edge 39, Type (0, 1), BuildingBlock: TEMPAE_clean_linker_10, # of connection points: 2
#     Edge 40, Type (0, 1), BuildingBlock: TEMPAE_clean_linker_10, # of connection points: 2
#     Edge 41, Type (0, 1), BuildingBlock: TEMPAE_clean_linker_10, # of connection points: 2
#     Edge 42, Type (0, 1), BuildingBlock: TEMPAE_clean_linker_10, # of connection points: 2
#     Edge 43, Type (0, 1), BuildingBlock: TEMPAE_clean_linker_10, # of connection points: 2
#     Edge 44, Type (0, 1), BuildingBlock: TEMPAE_clean_linker_10, # of connection points: 2
#     Edge 45, Type (0, 1), BuildingBlock: TEMPAE_clean_linker_10, # of connection points: 2
#     Edge 46, Type (0, 1), BuildingBlock: TEMPAE_clean_linker_10, # of connection points: 2
#     Edge 47, Type (0, 1), BuildingBlock: TEMPAE_clean_linker_10, # of connection points: 2
#     Edge 48, Type (0, 1), BuildingBlock: TEMPAE_clean_linker_10, # of connection points: 2
#     Edge 49, Type (0, 1), BuildingBlock: TEMPAE_clean_linker_10, # of connection points: 2
#     Edge 50, Type (0, 1), BuildingBlock: TEMPAE_clean_linker_10, # of connection points: 2
#     Edge 51, Type (0, 1), BuildingBlock: TEMPAE_clean_linker_10, # of connection points: 2
#     Edge 52, Type (0, 1), BuildingBlock: TEMPAE_clean_linker_10, # of connection points: 2
#     Edge 53, Type (0, 1), BuildingBlock: TEMPAE_clean_linker_10, # of connection points: 2
#     Edge 54, Type (0, 1), BuildingBlock: TEMPAE_clean_linker_10, # of connection points: 2
#     Edge 55, Type (0, 1), BuildingBlock: TEMPAE_clean_linker_10, # of connection points: 2
#     Edge 56, Type (0, 1), BuildingBlock: TEMPAE_clean_linker_10, # of connection points: 2
#     Edge 57, Type (0, 1), BuildingBlock: TEMPAE_clean_linker_10, # of connection points: 2
#     Edge 58, Type (0, 1), BuildingBlock: TEMPAE_clean_linker_10, # of connection points: 2
#     Edge 59, Type (0, 1), BuildingBlock: TEMPAE_clean_linker_10, # of connection points: 2
#     Edge 60, Type (0, 1), BuildingBlock: TEMPAE_clean_linker_10, # of connection points: 2
#     Edge 61, Type (0, 1), BuildingBlock: TEMPAE_clean_linker_10, # of connection points: 2
#     Edge 62, Type (0, 1), BuildingBlock: TEMPAE_clean_linker_10, # of connection points: 2
#     Edge 63, Type (0, 1), BuildingBlock: TEMPAE_clean_linker_10, # of connection points: 2
#     Edge 64, Type (0, 1), BuildingBlock: TEMPAE_clean_linker_10, # of connection points: 2
#     Edge 65, Type (0, 1), BuildingBlock: TEMPAE_clean_linker_10, # of connection points: 2
#     Edge 66, Type (0, 1), BuildingBlock: TEMPAE_clean_linker_10, # of connection points: 2
#     Edge 67, Type (0, 1), BuildingBlock: TEMPAE_clean_linker_10, # of connection points: 2
#     Edge 68, Type (0, 1), BuildingBlock: TEMPAE_clean_linker_10, # of connection points: 2
#     Edge 69, Type (0, 1), BuildingBlock: TEMPAE_clean_linker_10, # of connection points: 2
#     Edge 70, Type (0, 1), BuildingBlock: TEMPAE_clean_linker_10, # of connection points: 2
#     Edge 71, Type (0, 1), BuildingBlock: TEMPAE_clean_linker_10, # of connection points: 2
#     Edge 72, Type (0, 1), BuildingBlock: TEMPAE_clean_linker_10, # of connection points: 2
#     Edge 73, Type (0, 1), BuildingBlock: TEMPAE_clean_linker_10, # of connection points: 2
#     Edge 74, Type (0, 1), BuildingBlock: TEMPAE_clean_linker_10, # of connection points: 2
#     Edge 75, Type (0, 1), BuildingBlock: TEMPAE_clean_linker_10, # of connection points: 2
#     Edge 76, Type (0, 1), BuildingBlock: TEMPAE_clean_linker_10, # of connection points: 2
#     Edge 77, Type (0, 1), BuildingBlock: TEMPAE_clean_linker_10, # of connection points: 2
#     Edge 78, Type (0, 1), BuildingBlock: TEMPAE_clean_linker_10, # of connection points: 2
#     Edge 79, Type (0, 1), BuildingBlock: TEMPAE_clean_linker_10, # of connection points: 2
#     Edge 80, Type (0, 1), BuildingBlock: TEMPAE_clean_linker_10, # of connection points: 2
# Relax obj value: 0.040
# Max RMSD: 0.206
# Mean RMSD: 0.147
data_MOF--net-eea--node1-KUMBUR_clean_sbu_0--node2-CUQRIR_clean_linker_1--edge1-TEMPAE_clean_linker_10
_symmetry_space_group_name_H-M    P1
_symmetry_Int_Tables_number       1
_symmetry_cell_setting            triclinic
loop_
_symmetry_equiv_pos_as_xyz
'x, y, z'
_cell_length_a     48.231946
_cell_length_b     51.850282
_cell_length_c     64.134676
_cell_angle_alpha  83.15095
_cell_angle_beta   90.087437
_cell_angle_gamma 118.40929
loop_
_atom_site_label
_atom_site_type_symbol
_atom_site_fract_x
_atom_site_fract_y
_atom_site_fract_z
_atom_type_partial_charge
C0 C 0.20547 0.09876 0.41465 0.0
N1 N 0.21497 0.12042 0.42721 0.0
N2 N 0.20845 0.07544 0.42406 0.0
C3 C 0.19318 0.10025 0.39326 0.0
C4 C 0.22029 0.08375 0.44273 0.0
N5 N 0.22417 0.11098 0.44472 0.0
C6 C 0.23039 0.06624 0.45831 0.0
H7 H 0.17995 0.11291 0.39259 0.0
H8 H 0.17769 0.07772 0.38921 0.0
H9 H 0.21347 0.1118 0.3814 0.0
H10 H 0.25487 0.07153 0.45366 0.0
H11 H 0.21494 0.04213 0.45841 0.0
H12 H 0.23 0.07197 0.47439 0.0
C13 C 0.90439 0.11263 0.4091 0.0
N14 N 0.9179 0.1347 0.42144 0.0
N15 N 0.87752 0.08956 0.41874 0.0
C16 C 0.91864 0.1122 0.38837 0.0
C17 C 0.87521 0.09814 0.43752 0.0
N18 N 0.89967 0.12532 0.4393 0.0
C19 C 0.84835 0.0803 0.45389 0.0
H20 H 0.91158 0.08915 0.38577 0.0
H21 H 0.94479 0.12505 0.38772 0.0
H22 H 0.90987 0.12206 0.37545 0.0
H23 H 0.82627 0.06642 0.44645 0.0
H24 H 0.8442 0.09469 0.4635 0.0
H25 H 0.85438 0.06547 0.46456 0.0
C26 C 0.92073 0.8455 0.41516 0.0
N27 N 0.93647 0.83447 0.42766 0.0
N28 N 0.89199 0.83751 0.42432 0.0
C29 C 0.93246 0.86247 0.39337 0.0
C30 C 0.89079 0.82147 0.44284 0.0
N31 N 0.91756 0.81933 0.44482 0.0
C32 C 0.86197 0.8053 0.45799 0.0
H33 H 0.9515 0.88514 0.39463 0.0
H34 H 0.91394 0.86506 0.38464 0.0
H35 H 0.94218 0.85145 0.38415 0.0
H36 H 0.8425 0.78806 0.45026 0.0
H37 H 0.85395 0.82085 0.46229 0.0
H38 H 0.86652 0.79487 0.47276 0.0
C39 C 0.0824 0.16905 0.64165 0.0
N40 N 0.10941 0.18484 0.62928 0.0
N41 N 0.059 0.17393 0.63376 0.0
C42 C 0.07862 0.1481 0.66115 0.0
C43 C 0.07271 0.19298 0.61587 0.0
N44 N 0.10323 0.1994 0.61312 0.0
C45 C 0.05706 0.2073 0.6021 0.0
H46 H 0.05364 0.13056 0.66417 0.0
H47 H 0.08581 0.16037 0.67493 0.0
H48 H 0.09396 0.13782 0.65947 0.0
H49 H 0.04513 0.21578 0.61195 0.0
H50 H 0.03885 0.1905 0.59339 0.0
H51 H 0.07394 0.22568 0.59041 0.0
C52 C 0.79474 0.90737 0.63969 0.0
N53 N 0.78676 0.88627 0.62678 0.0
N54 N 0.79095 0.93029 0.63044 0.0
C55 C 0.80654 0.90582 0.66126 0.0
C56 C 0.78029 0.92238 0.61146 0.0
N57 N 0.77777 0.89569 0.60915 0.0
C58 C 0.76984 0.93959 0.59585 0.0
H59 H 0.82069 0.92828 0.66581 0.0
H60 H 0.82104 0.89437 0.66187 0.0
H61 H 0.78598 0.893 0.6728 0.0
H62 H 0.78432 0.96372 0.59616 0.0
H63 H 0.74492 0.93326 0.60009 0.0
H64 H 0.77134 0.9346 0.57966 0.0
C65 C 0.10858 0.91231 0.64293 0.0
N66 N 0.09477 0.88967 0.63109 0.0
N67 N 0.13435 0.9357 0.63238 0.0
C68 C 0.09569 0.9128 0.66414 0.0
C69 C 0.13567 0.92664 0.61361 0.0
N70 N 0.11169 0.89892 0.6127 0.0
C71 C 0.16107 0.94456 0.59635 0.0
H72 H 0.06961 0.89907 0.66578 0.0
H73 H 0.10213 0.93578 0.66655 0.0
H74 H 0.10611 0.90396 0.67658 0.0
H75 H 0.16614 0.9301 0.58739 0.0
H76 H 0.18318 0.9605 0.60277 0.0
H77 H 0.15277 0.95718 0.58526 0.0
C78 C 0.87279 0.43295 0.74597 0.0
N79 N 0.88177 0.45401 0.75904 0.0
N80 N 0.87426 0.40881 0.75537 0.0
C81 C 0.86062 0.43505 0.72458 0.0
C82 C 0.88443 0.41588 0.77462 0.0
N83 N 0.88864 0.44317 0.777 0.0
C84 C 0.89311 0.39723 0.79026 0.0
H85 H 0.84797 0.44823 0.72399 0.0
H86 H 0.8445 0.41274 0.72042 0.0
H87 H 0.8809 0.44619 0.71269 0.0
H88 H 0.89894 0.38235 0.78236 0.0
H89 H 0.87274 0.3834 0.80178 0.0
H90 H 0.91363 0.41132 0.79894 0.0
C91 C 0.56738 0.44981 0.7419 0.0
N92 N 0.58371 0.46969 0.75547 0.0
N93 N 0.54152 0.42583 0.75184 0.0
C94 C 0.57552 0.45417 0.71861 0.0
C95 C 0.54196 0.43197 0.77178 0.0
N96 N 0.56717 0.45845 0.77409 0.0
C97 C 0.5169 0.41254 0.78896 0.0
H98 H 0.55396 0.44511 0.70973 0.0
H99 H 0.58848 0.44201 0.71558 0.0
H100 H 0.59008 0.47793 0.71242 0.0
H101 H 0.52643 0.401 0.80001 0.0
H102 H 0.49531 0.3958 0.78256 0.0
H103 H 0.51048 0.42608 0.79803 0.0
C104 C 0.58773 0.1866 0.75557 0.0
N105 N 0.60702 0.18133 0.76881 0.0
N106 N 0.55951 0.17847 0.76564 0.0
C107 C 0.59575 0.19813 0.73241 0.0
C108 C 0.56247 0.16864 0.78559 0.0
N109 N 0.59112 0.17003 0.78748 0.0
C110 C 0.53634 0.15562 0.80281 0.0
H111 H 0.61607 0.22077 0.73039 0.0
H112 H 0.57618 0.19974 0.7244 0.0
H113 H 0.60244 0.18376 0.72455 0.0
H114 H 0.51661 0.13489 0.79855 0.0
H115 H 0.5271 0.17116 0.80454 0.0
H116 H 0.54431 0.15103 0.81834 0.0
C117 C 0.76295 0.5339 0.98195 0.0
N118 N 0.78712 0.53834 0.96873 0.0
N119 N 0.7354 0.52221 0.97245 0.0
C120 C 0.7673 0.54628 1.00256 0.0
C121 C 0.74386 0.52034 0.9528 0.0
N122 N 0.77542 0.53086 0.95024 0.0
C123 C 0.7217 0.5096 0.93548 0.0
H124 H 0.76014 0.52813 0.01583 0.0
H125 H 0.75225 0.5569 1.00398 0.0
H126 H 0.79229 0.56292 1.00389 0.0
H127 H 0.72219 0.52885 0.92551 0.0
H128 H 0.69719 0.49428 0.94195 0.0
H129 H 0.72957 0.49813 0.9253 0.0
C130 C 0.47659 0.24865 0.96903 0.0
N131 N 0.47005 0.22849 0.95557 0.0
N132 N 0.47162 0.27111 0.96035 0.0
C133 C 0.48767 0.24633 0.99075 0.0
C134 C 0.4616 0.2638 0.9411 0.0
N135 N 0.46049 0.23781 0.93816 0.0
C136 C 0.45112 0.28115 0.92564 0.0
H137 H 0.46677 0.23278 1.00192 0.0
H138 H 0.50121 0.26851 0.99586 0.0
H139 H 0.50255 0.23526 0.99128 0.0
H140 H 0.46445 0.30515 0.92675 0.0
H141 H 0.42575 0.27371 0.92928 0.0
H142 H 0.45414 0.27751 0.90928 0.0
C143 C 0.7774 0.24847 0.97629 0.0
N144 N 0.76345 0.22606 0.96426 0.0
N145 N 0.80273 0.27228 0.96561 0.0
C146 C 0.76481 0.24838 0.99775 0.0
C147 C 0.80353 0.26366 0.94656 0.0
N148 N 0.7797 0.23589 0.94564 0.0
C149 C 0.82864 0.28179 0.92917 0.0
H150 H 0.77078 0.27117 1.0004 0.0
H151 H 0.77582 0.23975 0.00989 0.0
H152 H 0.7388 0.23418 0.99965 0.0
H153 H 0.83243 0.26746 0.91926 0.0
H154 H 0.85133 0.29648 0.93564 0.0
H155 H 0.82095 0.29577 0.919 0.0
C156 C 0.53359 0.76429 0.08066 0.0
N157 N 0.54574 0.7862 0.09308 0.0
N158 N 0.54054 0.74244 0.08756 0.0
C159 C 0.51678 0.76499 0.06101 0.0
C160 C 0.55747 0.75176 0.10449 0.0
N161 N 0.56092 0.77848 0.10781 0.0
C162 C 0.56938 0.73399 0.11824 0.0
H163 H 0.49143 0.75671 0.06539 0.0
H164 H 0.51852 0.75062 0.05015 0.0
H165 H 0.52668 0.78793 0.0528 0.0
H166 H 0.59391 0.74066 0.11264 0.0
H167 H 0.55467 0.70998 0.1174 0.0
H168 H 0.56943 0.73802 0.13485 0.0
C169 C 0.24585 0.78029 0.07589 0.0
N170 N 0.25971 0.80163 0.08877 0.0
N171 N 0.21933 0.75676 0.08547 0.0
C172 C 0.25958 0.78088 0.05466 0.0
C173 C 0.21758 0.76425 0.10476 0.0
N174 N 0.24217 0.79123 0.10697 0.0
C175 C 0.19039 0.74613 0.12086 0.0
H176 H 0.25256 0.75809 0.05141 0.0
H177 H 0.28574 0.79384 0.05372 0.0
H178 H 0.25035 0.79111 0.04232 0.0
H179 H 0.19654 0.73178 0.13196 0.0
H180 H 0.16864 0.73178 0.1133 0.0
H181 H 0.18553 0.76059 0.12999 0.0
C182 C 0.26712 0.5344 0.08936 0.0
N183 N 0.28168 0.5222 0.10179 0.0
N184 N 0.23932 0.52893 0.09863 0.0
C185 C 0.27975 0.55117 0.06769 0.0
C186 C 0.23827 0.5142 0.11779 0.0
N187 N 0.26392 0.51012 0.11968 0.0
C188 C 0.21044 0.50094 0.13369 0.0
H189 H 0.27051 0.56696 0.06366 0.0
H190 H 0.27238 0.53565 0.0558 0.0
H191 H 0.30596 0.5633 0.0669 0.0
H192 H 0.19037 0.48205 0.12767 0.0
H193 H 0.20287 0.51753 0.13606 0.0
H194 H 0.21602 0.4932 0.14918 0.0
C195 C 0.41336 0.82823 0.30579 0.0
N196 N 0.43997 0.84271 0.29287 0.0
N197 N 0.38754 0.82346 0.29498 0.0
C198 C 0.41248 0.81977 0.32921 0.0
C199 C 0.39958 0.83427 0.27481 0.0
N200 N 0.43134 0.84611 0.27353 0.0
C201 C 0.38065 0.83593 0.25651 0.0
H202 H 0.39269 0.79733 0.3342 0.0
H203 H 0.40889 0.83558 0.33759 0.0
H204 H 0.43441 0.81949 0.33405 0.0
H205 H 0.38595 0.85923 0.25192 0.0
H206 H 0.35492 0.8218 0.26044 0.0
H207 H 0.38764 0.82873 0.24275 0.0
C208 C 0.13396 0.57724 0.30538 0.0
N209 N 0.12745 0.55683 0.29205 0.0
N210 N 0.13189 0.60095 0.29576 0.0
C211 C 0.14428 0.57497 0.32736 0.0
C212 C 0.12395 0.59432 0.27609 0.0
N213 N 0.12167 0.56771 0.27368 0.0
C214 C 0.11546 0.61256 0.25993 0.0
H215 H 0.12305 0.56255 0.3384 0.0
H216 H 0.15872 0.59722 0.33217 0.0
H217 H 0.15815 0.5629 0.32855 0.0
H218 H 0.1364 0.62702 0.24899 0.0
H219 H 0.10816 0.62677 0.26743 0.0
H220 H 0.09598 0.59817 0.25064 0.0
C221 C 0.43913 0.57679 0.31125 0.0
N222 N 0.4261 0.55483 0.29877 0.0
N223 N 0.46484 0.6009 0.30125 0.0
C224 C 0.42535 0.57594 0.33251 0.0
C225 C 0.46693 0.59297 0.28217 0.0
N226 N 0.44334 0.56526 0.28048 0.0
C227 C 0.49382 0.61133 0.2659 0.0
H228 H 0.43094 0.59853 0.33542 0.0
H229 H 0.43586 0.56703 0.34485 0.0
H230 H 0.39935 0.56162 0.3338 0.0
H231 H 0.49927 0.59707 0.25696 0.0
H232 H 0.51543 0.62631 0.2733 0.0
H233 H 0.48704 0.62507 0.25467 0.0
Tb234 Tb 0.50749 0.99824 1.00331 0.0
C235 C 0.56135 0.09342 0.06109 0.0
C236 C 0.61674 0.10701 0.06092 0.0
C237 C 0.60007 0.14326 0.0665 0.0
C238 C 0.58504 0.08613 0.0588 0.0
C239 C 0.56841 0.12186 0.06541 0.0
C240 C 0.62422 0.13582 0.0643 0.0
C241 C 0.51234 0.10493 0.06915 0.0
N242 N 0.53115 0.07199 0.06021 0.0
C243 C 0.50657 0.07699 0.06493 0.0
C244 C 0.54341 0.12759 0.06912 0.0
Tb245 Tb 0.52397 0.02717 0.0526 0.0
N246 N 0.57676 0.05805 0.05561 0.0
C247 C 0.59909 0.04886 0.05587 0.0
C248 C 0.63979 0.09801 0.06023 0.0
C249 C 0.63088 0.06875 0.05784 0.0
H250 H 0.48246 0.05968 0.06481 0.0
H251 H 0.64848 0.06144 0.0576 0.0
H252 H 0.64848 0.15229 0.0657 0.0
H253 H 0.49282 0.10897 0.07235 0.0
H254 H 0.59281 0.02635 0.05411 0.0
H255 H 0.38537 0.97893 1.00009 0.0
H256 H 0.66434 0.11321 0.06212 0.0
H257 H 0.53833 0.95693 0.9899 0.0
H258 H 0.44093 0.00835 1.0036 0.0
H259 H 0.51955 0.90564 0.98288 0.0
H260 H 0.60605 0.16535 0.06959 0.0
H261 H 0.36272 0.92666 0.99478 0.0
H262 H 0.37077 0.88349 0.9906 0.0
H263 H 0.54783 0.14917 0.07246 0.0
H264 H 0.40692 0.86317 0.98664 0.0
N265 N 0.453 0.97389 1.00006 0.0
C266 C 0.43312 0.98601 1.00084 0.0
C267 C 0.38791 0.93957 0.99624 0.0
C268 C 0.40782 0.92716 0.995 0.0
C269 C 0.40064 0.9691 0.99909 0.0
C270 C 0.44061 0.94506 0.99676 0.0
H271 H 0.46226 0.87125 0.9836 0.0
N272 N 0.49222 0.95136 0.99558 0.0
C273 C 0.50273 0.91303 0.98634 0.0
C274 C 0.46082 0.93341 0.99467 0.0
C275 C 0.51327 0.94204 0.99035 0.0
C276 C 0.47042 0.89371 0.9868 0.0
C277 C 0.44902 0.90395 0.99053 0.0
O278 O 0.52626 0.03535 0.97955 0.0
O279 O 0.5413 0.03108 0.02086 0.0
O280 O 0.52078 0.06062 0.02971 0.0
O281 O 0.49326 0.03267 1.0034 0.0
O282 O 0.55778 0.01026 1.00389 0.0
O283 O 0.51273 0.99241 0.97177 0.0
O284 O 0.49878 0.01801 0.08181 0.0
O285 O 0.4905 0.99256 0.03563 0.0
O286 O 0.51707 0.96721 0.02451 0.0
O287 O 0.53775 0.99214 0.05347 0.0
O288 O 0.47286 0.01061 0.05467 0.0
O289 O 0.53655 1.00736 0.07857 0.0
C290 C 0.56657 0.03198 0.01467 0.0
C291 C 0.55849 0.03226 0.95332 0.0
C292 C 0.59807 0.06797 0.92593 0.0
C293 C 0.56787 0.05545 0.93659 0.0
C294 C 0.61917 0.05779 0.93319 0.0
C295 C 0.57918 0.0209 0.95879 0.0
C296 C 0.60953 0.03412 0.94921 0.0
C297 C 0.50417 0.0569 0.01276 0.0
C298 C 0.52747 0.02046 0.96506 0.0
C299 C 0.41641 0.88592 0.98957 0.0
C300 C 0.39586 0.89751 0.99177 0.0
C301 C 0.46488 0.9902 0.04283 0.0
C302 C 0.52689 0.01657 0.11195 0.0
C303 C 0.51601 0.99499 0.12971 0.0
C304 C 0.52823 1.00209 0.14936 0.0
C305 C 0.55139 0.03121 0.15108 0.0
C306 C 0.5498 0.04561 0.11391 0.0
C307 C 0.56191 0.05287 0.13344 0.0
C308 C 0.53046 0.96965 0.04275 0.0
C309 C 0.51576 1.00742 0.09142 0.0
H310 H 0.55113 0.06292 0.93156 0.0
H311 H 0.643 0.06764 0.9262 0.0
H312 H 0.57222 1.00192 0.97056 0.0
H313 H 0.6256 0.02579 0.95412 0.0
H314 H 0.49863 0.97243 0.12811 0.0
H315 H 0.56107 0.03723 0.16609 0.0
H316 H 0.55861 0.06248 0.10039 0.0
H317 H 0.57969 0.07529 0.13487 0.0
Tb318 Tb 0.03094 0.52683 0.99624 0.0
C319 C 0.91967 0.47324 0.06204 0.0
C320 C 0.90292 0.51024 0.0629 0.0
C321 C 0.8647 0.45808 0.0712 0.0
C322 C 0.92657 0.50247 0.05903 0.0
C323 C 0.88882 0.45066 0.06851 0.0
C324 C 0.87179 0.48786 0.06853 0.0
C325 C 0.90876 0.41564 0.07139 0.0
N326 N 0.9438 0.46714 0.05985 0.0
C327 C 0.93907 0.43891 0.06526 0.0
C328 C 0.88343 0.42148 0.07278 0.0
Tb329 Tb 0.99234 0.50648 0.04886 0.0
N330 N 0.95702 0.52335 0.05396 0.0
C331 C 0.96576 0.5526 0.05397 0.0
C332 C 0.91155 0.54022 0.06191 0.0
C333 C 0.94319 0.56146 0.05775 0.0
H334 H 0.9585 0.43419 0.06413 0.0
H335 H 0.95023 0.5847 0.05734 0.0
H336 H 0.85322 0.49338 0.07137 0.0
H337 H 0.90497 0.39323 0.07506 0.0
H338 H 0.99003 0.56942 0.05071 0.0
H339 H 0.07524 0.44828 0.99816 0.0
H340 H 0.89417 0.54716 0.06492 0.0
H341 H 0.06386 0.59755 0.97625 0.0
H342 H 0.03456 0.46361 1.00048 0.0
H343 H 0.11694 0.63787 0.96358 0.0
H344 H 0.84076 0.44106 0.07601 0.0
H345 H 0.13098 0.48572 0.98875 0.0
H346 H 0.17095 0.53915 0.97774 0.0
H347 H 0.86002 0.40346 0.07769 0.0
H348 H 0.18238 0.59091 0.96832 0.0
N349 N 0.06667 0.50975 0.99293 0.0
C350 C 0.05861 0.48039 0.99624 0.0
C351 C 0.11313 0.49266 0.98967 0.0
C352 C 0.121 0.52248 0.98515 0.0
C353 C 0.08171 0.47149 0.99497 0.0
C354 C 0.09686 0.53029 0.98675 0.0
H355 H 0.16229 0.62796 0.96283 0.0
N356 N 0.07907 0.5652 0.98309 0.0
C357 C 0.11349 0.61584 0.96874 0.0
C358 C 0.10334 0.55917 0.98174 0.0
C359 C 0.08341 0.5929 0.97586 0.0
C360 C 0.13903 0.61018 0.96836 0.0
C361 C 0.13405 0.58143 0.9746 0.0
O362 O 0.01812 0.54216 0.96783 0.0
O363 O 0.99356 0.52291 0.0165 0.0
O364 O 0.95964 0.47538 0.02867 0.0
O365 O 0.99545 0.47901 1.00266 0.0
O366 O 0.01156 0.55767 0.99339 0.0
O367 O 0.01465 0.49901 0.97264 0.0
O368 O 1.00234 0.488 0.07707 0.0
O369 O 0.03107 0.51216 0.02899 0.0
O370 O 0.06184 0.56195 0.01447 0.0
O371 O 0.02828 0.55422 0.04374 0.0
O372 O 0.01229 0.47617 0.05106 0.0
O373 O 0.00796 0.53205 0.07377 0.0
C374 C 0.99043 0.54469 0.00871 0.0
C375 C 0.02404 0.52272 0.93767 0.0
C376 C 0.01494 0.51769 0.90045 0.0
C377 C 0.00334 0.51498 0.92122 0.0
C378 C 0.04756 0.52878 0.89638 0.0
C379 C 0.05644 0.5337 0.93319 0.0
C380 C 0.06811 0.53683 0.91263 0.0
C381 C 0.96706 0.46498 0.01287 0.0
C382 C 0.01142 0.51839 0.95946 0.0
C383 C 0.15851 0.57409 0.97355 0.0
C384 C 0.152 0.54464 0.97887 0.0
C385 C 0.03541 0.49123 0.03719 0.0
C386 C 0.99613 0.50568 0.1081 0.0
C387 C 0.01599 0.51108 0.12504 0.0
C388 C 0.00367 0.5071 0.14582 0.0
C389 C 0.97116 0.49712 0.14937 0.0
C390 C 0.96383 0.49571 0.11209 0.0
C391 C 0.95144 0.49136 0.13263 0.0
C392 C 0.05515 0.57023 0.03179 0.0
C393 C 0.00954 0.51119 0.08638 0.0
H394 H 0.97822 0.50615 0.92467 0.0
H395 H 0.05717 0.53129 0.88056 0.0
H396 H 0.07267 0.53962 0.94557 0.0
H397 H 0.09316 0.54531 0.90929 0.0
H398 H 0.04105 0.51906 0.122 0.0
H399 H 0.96097 0.49367 0.16516 0.0
H400 H 0.94823 0.49148 0.09935 0.0
H401 H 0.92646 0.48368 0.13557 0.0
Tb402 Tb 0.49614 0.48684 0.05678 0.0
C403 C 0.44813 0.54326 0.98516 0.0
C404 C 0.39213 0.50925 0.98791 0.0
C405 C 0.41122 0.56115 0.97468 0.0
C406 C 0.42354 0.51518 0.99054 0.0
C407 C 0.44248 0.56654 0.97664 0.0
C408 C 0.38604 0.53253 0.98037 0.0
C409 C 0.49895 0.59784 0.97125 0.0
N410 N 0.47781 0.54743 0.98746 0.0
C411 C 0.50326 0.574 0.97989 0.0
C412 C 0.46842 0.59423 0.9699 0.0
Tb413 Tb 0.48287 0.50771 1.0027 0.0
N414 N 0.43059 0.49346 0.99772 0.0
C415 C 0.4072 0.46465 1.00098 0.0
C416 C 0.36795 0.48004 0.99253 0.0
C417 C 0.37558 0.45758 0.99879 0.0
H418 H 0.52695 0.57711 0.98105 0.0
H419 H 0.35712 0.43481 1.00198 0.0
H420 H 0.36205 0.5285 0.97843 0.0
H421 H 0.51918 0.61902 0.96574 0.0
H422 H 0.41251 0.44694 1.00586 0.0
H423 H 0.61797 0.56504 0.06672 0.0
H424 H 0.34346 0.47452 0.99084 0.0
H425 H 0.45591 0.41487 0.07312 0.0
H426 H 0.56243 0.54979 0.06031 0.0
H427 H 0.46747 0.37385 0.08428 0.0
H428 H 0.4063 0.57879 0.96839 0.0
H429 H 0.63595 0.52754 0.07331 0.0
H430 H 0.62193 0.47372 0.07939 0.0
H431 H 0.46513 0.61272 0.96325 0.0
H432 H 0.58078 0.4214 0.08427 0.0
N433 N 0.54845 0.50374 0.0631 0.0
C434 C 0.56955 0.53297 0.06336 0.0
C435 C 0.61136 0.52061 0.07063 0.0
C436 C 0.58932 0.49064 0.07155 0.0
C437 C 0.60126 0.54182 0.06701 0.0
C438 C 0.55764 0.48289 0.06796 0.0
H439 H 0.52289 0.38391 0.08658 0.0
N440 N 0.50433 0.44766 0.06868 0.0
C441 C 0.48663 0.39621 0.08047 0.0
C442 C 0.53468 0.4537 0.07088 0.0
C443 C 0.48016 0.41951 0.07425 0.0
C444 C 0.51794 0.40196 0.08169 0.0
C445 C 0.54244 0.43109 0.07725 0.0
O446 O 0.46585 0.46862 0.0844 0.0
O447 O 0.46501 0.49326 0.0353 0.0
O448 O 0.48751 0.54355 0.01982 0.0
O449 O 0.50953 0.53451 0.05076 0.0
O450 O 0.44553 0.45679 0.05714 0.0
O451 O 0.50495 0.51266 0.08143 0.0
O452 O 0.51413 0.52039 0.97582 0.0
O453 O 0.51377 0.50281 0.02482 0.0
O454 O 0.49683 0.45513 0.03732 0.0
O455 O 0.46682 0.4597 0.01006 0.0
O456 O 0.53421 0.53687 1.00145 0.0
O457 O 0.47028 0.48003 0.97891 0.0
C458 C 0.43881 0.47225 0.04289 0.0
C459 C 0.48874 0.48672 0.11582 0.0
C460 C 0.48468 0.49162 0.15314 0.0
C461 C 0.47652 0.49515 0.13222 0.0
C462 C 0.50462 0.47904 0.15739 0.0
C463 C 0.50851 0.4742 0.12058 0.0
C464 C 0.51625 0.47029 0.14125 0.0
C465 C 0.50107 0.55126 0.03776 0.0
C466 C 0.48164 0.49191 0.09377 0.0
C467 C 0.57422 0.43846 0.07962 0.0
C468 C 0.59764 0.46823 0.07682 0.0
C469 C 0.54015 0.5235 0.01759 0.0
C470 C 0.49125 0.50321 0.9442 0.0
C471 C 0.5079 0.49778 0.9286 0.0
C472 C 0.50271 0.50217 0.90705 0.0
C473 C 0.48109 0.51232 0.9014 0.0
C474 C 0.46997 0.51351 0.93801 0.0
C475 C 0.46503 0.51809 0.91675 0.0
C476 C 0.47997 0.44535 0.0209 0.0
C477 C 0.49563 0.49753 0.96684 0.0
H478 H 0.46147 0.50512 0.12863 0.0
H479 H 0.51119 0.47595 0.17329 0.0
H480 H 0.51817 0.46766 0.1083 0.0
H481 H 0.53158 0.46064 0.14476 0.0
H482 H 0.52431 0.4897 0.9332 0.0
H483 H 0.47665 0.51581 0.88501 0.0
H484 H 0.45696 0.51776 0.94962 0.0
H485 H 0.44846 0.52595 0.91214 0.0
Tb486 Tb 0.16773 0.32725 0.33765 0.0
C487 C 0.22291 0.42528 0.39249 0.0
C488 C 0.27842 0.43943 0.3925 0.0
C489 C 0.26129 0.47579 0.39661 0.0
C490 C 0.24679 0.41816 0.39065 0.0
C491 C 0.22971 0.45402 0.39586 0.0
C492 C 0.28562 0.46846 0.39503 0.0
C493 C 0.17356 0.43673 0.39952 0.0
N494 N 0.19277 0.40343 0.39215 0.0
C495 C 0.16805 0.40846 0.3964 0.0
C496 C 0.20454 0.45971 0.39902 0.0
Tb497 Tb 0.18599 0.35809 0.38608 0.0
N498 N 0.23877 0.38983 0.38832 0.0
C499 C 0.26136 0.38095 0.38897 0.0
C500 C 0.30166 0.43062 0.39244 0.0
C501 C 0.29307 0.40123 0.39074 0.0
H502 H 0.144 0.3909 0.39669 0.0
H503 H 0.31084 0.39411 0.39094 0.0
H504 H 0.30983 0.48522 0.39621 0.0
H505 H 0.15392 0.44076 0.40231 0.0
H506 H 0.25533 0.35835 0.38781 0.0
H507 H 0.04434 0.30166 0.33132 0.0
H508 H 0.32612 0.44609 0.39431 0.0
H509 H 0.20364 0.28784 0.32899 0.0
H510 H 0.09932 0.33346 0.3361 0.0
H511 H 0.18816 0.23685 0.32281 0.0
H512 H 0.26707 0.49809 0.39901 0.0
H513 H 0.02523 0.24971 0.32622 0.0
H514 H 0.0367 0.20806 0.32379 0.0
H515 H 0.20876 0.48154 0.40157 0.0
H516 H 0.07541 0.19017 0.32203 0.0
N517 N 0.11397 0.30055 0.33378 0.0
C518 C 0.09277 0.31123 0.33367 0.0
C519 C 0.05002 0.26361 0.32842 0.0
C520 C 0.07138 0.25261 0.32829 0.0
C521 C 0.06077 0.29298 0.33113 0.0
C522 C 0.10362 0.27183 0.33078 0.0
H523 H 0.13173 0.20073 0.32149 0.0
N524 N 0.15634 0.28067 0.33153 0.0
C525 C 0.17027 0.24347 0.3248 0.0
C526 C 0.12537 0.26156 0.32983 0.0
C527 C 0.17895 0.2724 0.32817 0.0
C528 C 0.1384 0.22314 0.32413 0.0
C529 C 0.11555 0.23216 0.3263 0.0
O530 O 0.18542 0.36324 0.31304 0.0
O531 O 0.20247 0.36098 0.35426 0.0
O532 O 0.18253 0.39047 0.36226 0.0
O533 O 0.15154 0.36042 0.33798 0.0
O534 O 0.21815 0.33937 0.3377 0.0
O535 O 0.17141 0.31958 0.30644 0.0
O536 O 0.1627 0.3507 0.41574 0.0
O537 O 0.1514 0.32344 0.36973 0.0
O538 O 0.17152 0.29494 0.36104 0.0
O539 O 0.20088 0.32365 0.38623 0.0
O540 O 0.13463 0.34106 0.38949 0.0
O541 O 0.19942 0.33886 0.41204 0.0
C542 C 0.22751 0.36158 0.34797 0.0
C543 C 0.21581 0.35851 0.28631 0.0
C544 C 0.25255 0.39133 0.25668 0.0
C545 C 0.22329 0.37966 0.2684 0.0
C546 C 0.27469 0.38249 0.26398 0.0
C547 C 0.23736 0.34824 0.29194 0.0
C548 C 0.26688 0.36077 0.28124 0.0
C549 C 0.16403 0.38563 0.34623 0.0
C550 C 0.18563 0.34738 0.29893 0.0
C551 C 0.08341 0.21288 0.32454 0.0
C552 C 0.0614 0.22309 0.32549 0.0
C553 C 0.12599 0.32109 0.37723 0.0
C554 C 0.19315 0.35158 0.44499 0.0
C555 C 0.18376 0.33183 0.46376 0.0
C556 C 0.19756 0.34134 0.48265 0.0
C557 C 0.22085 0.37094 0.48253 0.0
C558 C 0.21613 0.38112 0.44524 0.0
C559 C 0.2299 0.39072 0.46392 0.0
C560 C 0.18875 0.29883 0.37757 0.0
C561 C 0.17998 0.3404 0.42526 0.0
H562 H 0.20584 0.3862 0.26335 0.0
H563 H 0.29794 0.39188 0.25612 0.0
H564 H 0.23164 0.33052 0.30457 0.0
H565 H 0.28369 0.35338 0.28622 0.0
H566 H 0.16616 0.3089 0.46359 0.0
H567 H 0.23168 0.37884 0.49689 0.0
H568 H 0.22365 0.39668 0.43105 0.0
H569 H 0.2477 0.41354 0.46396 0.0
Tb570 Tb 0.68861 0.85846 0.33106 0.0
C571 C 0.57642 0.80685 0.39642 0.0
C572 C 0.55914 0.84384 0.39327 0.0
C573 C 0.52111 0.79209 0.40384 0.0
C574 C 0.5832 0.83593 0.39174 0.0
C575 C 0.54549 0.78461 0.40305 0.0
C576 C 0.52792 0.82168 0.39891 0.0
C577 C 0.56572 0.74995 0.40937 0.0
N578 N 0.60063 0.80062 0.3954 0.0
C579 C 0.59603 0.77286 0.40275 0.0
C580 C 0.54023 0.75575 0.40922 0.0
Tb581 Tb 0.64908 0.83925 0.38331 0.0
N582 N 0.61361 0.85657 0.38627 0.0
C583 C 0.62194 0.88599 0.38365 0.0
C584 C 0.5673 0.8738 0.38944 0.0
C585 C 0.59891 0.89498 0.38487 0.0
H586 H 0.61557 0.76817 0.40281 0.0
H587 H 0.60558 0.91826 0.38222 0.0
H588 H 0.50903 0.82726 0.39994 0.0
H589 H 0.56204 0.72785 0.41457 0.0
H590 H 0.64617 0.90273 0.37998 0.0
H591 H 0.72973 0.77772 0.3316 0.0
H592 H 0.54954 0.88083 0.39041 0.0
H593 H 0.72359 0.92984 0.31233 0.0
H594 H 0.69021 0.79428 0.33472 0.0
H595 H 0.77735 0.96944 0.30034 0.0
H596 H 0.49708 0.77528 0.40865 0.0
H597 H 0.78577 0.81426 0.32234 0.0
H598 H 0.82699 0.86748 0.31249 0.0
H599 H 0.5168 0.73798 0.4144 0.0
H600 H 0.84009 0.91982 0.30423 0.0
N601 N 0.72332 0.84026 0.32783 0.0
C602 C 0.71442 0.8107 0.3306 0.0
C603 C 0.76848 0.82178 0.32372 0.0
C604 C 0.77725 0.85187 0.31992 0.0
C605 C 0.73686 0.8011 0.32889 0.0
C606 C 0.75377 0.86043 0.32195 0.0
H607 H 0.82167 0.95808 0.29952 0.0
N608 N 0.7375 0.89653 0.31902 0.0
C609 C 0.77317 0.94712 0.30525 0.0
C610 C 0.76119 0.88969 0.31754 0.0
C611 C 0.74273 0.9246 0.31202 0.0
C612 C 0.79813 0.94064 0.30485 0.0
C613 C 0.79221 0.9115 0.31066 0.0
O614 O 0.67555 0.87433 0.30307 0.0
O615 O 0.64999 0.85422 0.35042 0.0
O616 O 0.61744 0.80497 0.36477 0.0
O617 O 0.65213 0.81085 0.33689 0.0
O618 O 0.67046 0.89002 0.32785 0.0
O619 O 0.67586 0.83277 0.30605 0.0
O620 O 0.66402 0.82451 0.4109 0.0
O621 O 0.68769 0.84381 0.36386 0.0
O622 O 0.72002 0.89259 0.34979 0.0
O623 O 0.68523 0.88687 0.37756 0.0
O624 O 0.66818 0.80829 0.38657 0.0
O625 O 0.6595 0.86394 0.40888 0.0
C626 C 0.64762 0.87627 0.34206 0.0
C627 C 0.68491 0.85932 0.2718 0.0
C628 C 0.67721 0.85894 0.23408 0.0
C629 C 0.66476 0.8506 0.25515 0.0
C630 C 0.71009 0.8759 0.22997 0.0
C631 C 0.71764 0.87591 0.26729 0.0
C632 C 0.73011 0.88415 0.24648 0.0
C633 C 0.62465 0.79561 0.34825 0.0
C634 C 0.67133 0.85203 0.29362 0.0
C635 C 0.81601 0.90336 0.30927 0.0
C636 C 0.80854 0.87357 0.31392 0.0
C637 C 0.69085 0.82226 0.37225 0.0
C638 C 0.65301 0.83687 0.44281 0.0
C639 C 0.67348 0.8434 0.45943 0.0
C640 C 0.66131 0.83269 0.48048 0.0
C641 C 0.62848 0.81569 0.48468 0.0
C642 C 0.62031 0.82032 0.44743 0.0
C643 C 0.60816 0.80979 0.46825 0.0
C644 C 0.71288 0.90187 0.3664 0.0
C645 C 0.66624 0.84577 0.42082 0.0
H646 H 0.63942 0.83781 0.25856 0.0
H647 H 0.72036 0.88235 0.21396 0.0
H648 H 0.73356 0.88267 0.27976 0.0
H649 H 0.7554 0.89703 0.24314 0.0
H650 H 0.69881 0.85617 0.45598 0.0
H651 H 0.61853 0.80734 0.50072 0.0
H652 H 0.60417 0.81525 0.43499 0.0
H653 H 0.58288 0.79688 0.47168 0.0
Tb654 Tb 0.16856 0.82217 0.38852 0.0
C655 C 0.14099 0.89386 0.31661 0.0
C656 C 0.08565 0.86403 0.3112 0.0
C657 C 0.11015 0.91767 0.30395 0.0
C658 C 0.11462 0.86652 0.31778 0.0
C659 C 0.13932 0.91981 0.30939 0.0
C660 C 0.08334 0.88979 0.30479 0.0
C661 C 0.1958 0.94756 0.31187 0.0
N662 N 0.16872 0.89483 0.32169 0.0
C663 C 0.19626 0.92112 0.31874 0.0
C664 C 0.16715 0.94695 0.30738 0.0
Tb665 Tb 0.16691 0.85063 0.3339 0.0
N666 N 0.11802 0.84228 0.32389 0.0
C667 C 0.09382 0.81471 0.32221 0.0
C668 C 0.06034 0.83578 0.31042 0.0
C669 C 0.06468 0.81105 0.31549 0.0
H670 H 0.21847 0.92182 0.32231 0.0
H671 H 0.04546 0.78911 0.31449 0.0
H672 H 0.06119 0.88836 0.2999 0.0
H673 H 0.21753 0.96838 0.31006 0.0
H674 H 0.09658 0.79531 0.32626 0.0
H675 H 0.28982 0.88569 0.40788 0.0
H676 H 0.03771 0.83286 0.30535 0.0
H677 H 0.11842 0.75046 0.40003 0.0
H678 H 0.23823 0.87846 0.39641 0.0
H679 H 0.12097 0.70449 0.4114 0.0
H680 H 0.10825 0.93735 0.29853 0.0
H681 H 0.29907 0.84268 0.41624 0.0
H682 H 0.27709 0.78736 0.42082 0.0
H683 H 0.16688 0.96743 0.30198 0.0
H684 H 0.23095 0.73784 0.42183 0.0
N685 N 0.21782 0.83157 0.39845 0.0
C686 C 0.24157 0.85935 0.40023 0.0
C687 C 0.27617 0.83929 0.41141 0.0
C688 C 0.25138 0.81082 0.41043 0.0
C689 C 0.271 0.8636 0.40678 0.0
C690 C 0.22202 0.8077 0.40419 0.0
H691 H 0.17241 0.70668 0.41865 0.0
N692 N 0.16808 0.7784 0.40024 0.0
C693 C 0.14234 0.7256 0.40961 0.0
C694 C 0.19619 0.78005 0.4051 0.0
C695 C 0.14098 0.75172 0.40323 0.0
C696 C 0.17143 0.72692 0.41365 0.0
C697 C 0.19878 0.75444 0.41178 0.0
O698 O 0.13357 0.80638 0.41336 0.0
O699 O 0.14335 0.83335 0.36472 0.0
O700 O 0.16611 0.88186 0.35372 0.0
O701 O 0.18824 0.87112 0.38376 0.0
O702 O 0.11771 0.79661 0.38467 0.0
O703 O 0.17797 0.84527 0.41493 0.0
O704 O 0.20038 0.8666 0.30796 0.0
O705 O 0.19194 0.84017 0.35794 0.0
O706 O 0.16958 0.79132 0.36853 0.0
O707 O 0.14632 0.80158 0.33896 0.0
O708 O 0.21835 0.87474 0.33682 0.0
O709 O 0.15764 0.82536 0.30882 0.0
C710 C 0.11519 0.81421 0.36978 0.0
C711 C 0.15111 0.81664 0.4474 0.0
C712 C 0.14028 0.81747 0.4847 0.0
C713 C 0.1423 0.82872 0.46321 0.0
C714 C 0.14762 0.79443 0.49006 0.0
C715 C 0.1587 0.79394 0.45333 0.0
C716 C 0.15697 0.78297 0.47451 0.0
C717 C 0.17985 0.8887 0.37166 0.0
C718 C 0.15087 0.82674 0.42482 0.0
C719 C 0.22835 0.75725 0.41685 0.0
C720 C 0.25462 0.78543 0.41624 0.0
C721 C 0.22031 0.85795 0.35255 0.0
C722 C 0.17998 0.85197 0.2751 0.0
C723 C 0.19398 0.84438 0.2591 0.0
C724 C 0.18909 0.85022 0.23764 0.0
C725 C 0.17059 0.8641 0.23254 0.0
C726 C 0.16184 0.86593 0.26936 0.0
C727 C 0.15729 0.87202 0.24825 0.0
C728 C 0.15508 0.78416 0.35089 0.0
C729 C 0.18341 0.84454 0.2977 0.0
H730 H 0.13637 0.84626 0.45881 0.0
H731 H 0.14647 0.7855 0.50639 0.0
H732 H 0.1656 0.78443 0.4416 0.0
H733 H 0.16274 0.76535 0.47889 0.0
H734 H 0.2079 0.8334 0.26334 0.0
H735 H 0.16648 0.8689 0.21627 0.0
H736 H 0.15094 0.87194 0.28121 0.0
H737 H 0.14314 0.88274 0.24404 0.0
Tb738 Tb 0.83444 0.66002 0.67019 0.0
C739 C 0.88919 0.75726 0.72752 0.0
C740 C 0.94472 0.77152 0.72738 0.0
C741 C 0.92733 0.80724 0.73307 0.0
C742 C 0.91315 0.7504 0.72518 0.0
C743 C 0.89582 0.7856 0.73183 0.0
C744 C 0.95176 0.80017 0.73093 0.0
C745 C 0.83962 0.76816 0.7351 0.0
N746 N 0.85916 0.73558 0.72656 0.0
C747 C 0.8343 0.74031 0.73101 0.0
C748 C 0.87053 0.79102 0.73529 0.0
Tb749 Tb 0.8526 0.69105 0.71876 0.0
N750 N 0.90529 0.72251 0.72172 0.0
C751 C 0.928 0.71382 0.72159 0.0
C752 C 0.9681 0.76297 0.7265 0.0
C753 C 0.95967 0.73395 0.72369 0.0
H754 H 0.81031 0.72285 0.73075 0.0
H755 H 0.97753 0.727 0.72322 0.0
H756 H 0.97592 0.81682 0.73241 0.0
H757 H 0.81987 0.77197 0.73809 0.0
H758 H 0.92217 0.69154 0.71948 0.0
H759 H 0.70948 0.62021 0.66204 0.0
H760 H 0.99255 0.77834 0.72849 0.0
H761 H 0.87938 0.6295 0.66036 0.0
H762 H 0.76434 0.65759 0.66568 0.0
H763 H 0.8717 0.58013 0.65557 0.0
H764 H 0.93298 0.82923 0.73619 0.0
H765 H 0.69601 0.56795 0.66141 0.0
H766 H 0.71467 0.53026 0.66056 0.0
H767 H 0.8746 0.81253 0.73856 0.0
H768 H 0.75897 0.51936 0.65856 0.0
N769 N 0.78241 0.6271 0.66692 0.0
C770 C 0.75912 0.63502 0.66519 0.0
C771 C 0.72031 0.58436 0.66281 0.0
C772 C 0.74444 0.57665 0.66347 0.0
C773 C 0.72783 0.61382 0.66314 0.0
C774 C 0.77565 0.5989 0.66522 0.0
H775 H 0.81772 0.53796 0.65633 0.0
N776 N 0.83014 0.61542 0.66445 0.0
C777 C 0.85143 0.58338 0.65796 0.0
C778 C 0.80041 0.59283 0.66385 0.0
C779 C 0.85568 0.61139 0.66065 0.0
C780 C 0.82092 0.55961 0.65844 0.0
C781 C 0.79491 0.56426 0.66105 0.0
O782 O 0.86474 0.67594 0.64291 0.0
O783 O 0.86808 0.69532 0.68651 0.0
O784 O 0.84794 0.72342 0.69572 0.0
O785 O 0.81789 0.69321 0.67117 0.0
O786 O 0.88586 0.67694 0.66806 0.0
O787 O 0.81805 0.67147 0.64187 0.0
O788 O 0.82907 0.68154 0.74861 0.0
O789 O 0.81833 0.65777 0.70188 0.0
O790 O 0.83486 0.62656 0.69405 0.0
O791 O 0.86834 0.65736 0.71678 0.0
O792 O 0.80103 0.67362 0.72241 0.0
O793 O 0.86505 0.66908 0.74349 0.0
C794 C 0.89383 0.69787 0.67947 0.0
C795 C 0.84161 0.66746 0.61076 0.0
C796 C 0.85855 0.67853 0.57353 0.0
C797 C 0.85691 0.68804 0.59286 0.0
C798 C 0.84451 0.64809 0.57222 0.0
C799 C 0.8272 0.6371 0.60921 0.0
C800 C 0.82866 0.6275 0.58997 0.0
C801 C 0.82945 0.71827 0.67966 0.0
C802 C 0.84408 0.67844 0.63107 0.0
C803 C 0.76375 0.54156 0.66046 0.0
C804 C 0.73854 0.54776 0.66163 0.0
C805 C 0.79256 0.65471 0.70932 0.0
C806 C 0.85824 0.678 0.77753 0.0
C807 C 0.84941 0.65575 0.79477 0.0
C808 C 0.86218 0.6625 0.81435 0.0
C809 C 0.88418 0.69196 0.81636 0.0
C810 C 0.88005 0.70726 0.7798 0.0
C811 C 0.89297 0.71416 0.79917 0.0
C812 C 0.85401 0.63138 0.70958 0.0
C813 C 0.84554 0.66963 0.75718 0.0
H814 H 0.86828 0.71153 0.59408 0.0
H815 H 0.84536 0.6403 0.55742 0.0
H816 H 0.8153 0.62091 0.62282 0.0
H817 H 0.81768 0.60406 0.58886 0.0
H818 H 0.83286 0.63308 0.79283 0.0
H819 H 0.89412 0.69794 0.83131 0.0
H820 H 0.88718 0.72465 0.76667 0.0
H821 H 0.9098 0.73679 0.80087 0.0
Tb822 Tb 0.35904 0.19235 0.66465 0.0
C823 C 0.24747 0.14246 0.72872 0.0
C824 C 0.23288 0.18137 0.72587 0.0
C825 C 0.19257 0.13012 0.73504 0.0
C826 C 0.25605 0.17223 0.72447 0.0
C827 C 0.2158 0.12119 0.7346 0.0
C828 C 0.20109 0.16015 0.73071 0.0
C829 C 0.23282 0.0842 0.74128 0.0
N830 N 0.27044 0.13449 0.7282 0.0
C831 C 0.26387 0.10606 0.73544 0.0
C832 C 0.20858 0.09169 0.7405 0.0
Tb833 Tb 0.31988 0.1716 0.71669 0.0
N834 N 0.28708 0.19222 0.71968 0.0
C835 C 0.29646 0.22193 0.71784 0.0
C836 C 0.24236 0.2116 0.72282 0.0
C837 C 0.27429 0.23192 0.71906 0.0
H838 H 0.28246 0.10004 0.73597 0.0
H839 H 0.28192 0.25541 0.71705 0.0
H840 H 0.183 0.16679 0.73162 0.0
H841 H 0.22759 0.06159 0.74633 0.0
H842 H 0.32072 0.2386 0.71483 0.0
H843 H 0.40461 0.11513 0.66394 0.0
H844 H 0.22533 0.2195 0.72384 0.0
H845 H 0.39162 0.26396 0.64696 0.0
H846 H 0.36333 0.12972 0.66685 0.0
H847 H 0.44467 0.30498 0.63511 0.0
H848 H 0.16806 0.11407 0.73927 0.0
H849 H 0.46038 0.15334 0.65577 0.0
H850 H 0.50006 0.20721 0.64645 0.0
H851 H 0.18453 0.07471 0.74506 0.0
H852 H 0.51103 0.25901 0.63861 0.0
N853 N 0.39527 0.17605 0.66111 0.0
C854 C 0.38746 0.14677 0.66327 0.0
C855 C 0.44231 0.15994 0.65704 0.0
C856 C 0.44992 0.18977 0.6536 0.0
C857 C 0.41086 0.13832 0.66164 0.0
C858 C 0.42551 0.19713 0.65563 0.0
H859 H 0.49042 0.29569 0.63408 0.0
N860 N 0.40726 0.23182 0.65317 0.0
C861 C 0.4414 0.28292 0.63981 0.0
C862 C 0.43175 0.2261 0.65155 0.0
C863 C 0.41136 0.25959 0.64653 0.0
C864 C 0.46718 0.27759 0.63928 0.0
C865 C 0.46246 0.2488 0.64488 0.0
O866 O 0.3455 0.20831 0.63695 0.0
O867 O 0.31957 0.18656 0.68407 0.0
O868 O 0.29018 0.13619 0.69808 0.0
O869 O 0.32308 0.14484 0.66841 0.0
O870 O 0.33953 0.22296 0.66206 0.0
O871 O 0.34888 0.16824 0.63882 0.0
O872 O 0.35712 0.1882 0.73716 0.0
O873 O 0.35749 0.17488 0.69707 0.0
O874 O 0.38983 0.22562 0.68431 0.0
O875 O 0.35374 0.21956 0.7113 0.0
O876 O 0.33465 0.13761 0.71784 0.0
O877 O 0.30975 0.16143 0.74966 0.0
C878 C 0.31655 0.20835 0.67607 0.0
C879 C 0.35656 0.19576 0.60504 0.0
C880 C 0.34841 0.19555 0.5674 0.0
C881 C 0.33647 0.18572 0.58852 0.0
C882 C 0.38076 0.21533 0.56304 0.0
C883 C 0.38885 0.21514 0.60033 0.0
C884 C 0.40083 0.22485 0.57943 0.0
C885 C 0.29654 0.12839 0.68046 0.0
C886 C 0.34302 0.18703 0.62691 0.0
C887 C 0.48717 0.24186 0.64348 0.0
C888 C 0.48091 0.21237 0.6479 0.0
C889 C 0.35874 0.15196 0.70459 0.0
C890 C 0.34976 0.15874 0.76994 0.0
C891 C 0.36359 0.17106 0.78822 0.0
C892 C 0.37457 0.15608 0.80315 0.0
C893 C 0.37253 0.12923 0.79882 0.0
C894 C 0.34635 0.13105 0.76697 0.0
C895 C 0.35818 0.11674 0.78108 0.0
C896 C 0.38181 0.23477 0.70066 0.0
C897 C 0.33906 0.17493 0.75417 0.0
H898 H 0.31146 0.17079 0.59209 0.0
H899 H 0.39057 0.22307 0.54694 0.0
H900 H 0.40475 0.22299 0.61272 0.0
H901 H 0.42576 0.23991 0.57591 0.0
H902 H 0.36505 0.19187 0.79096 0.0
H903 H 0.38182 0.11759 0.80924 0.0
H904 H 0.33444 0.12021 0.75386 0.0
H905 H 0.35603 0.09568 0.77833 0.0
Tb906 Tb 0.82664 0.15347 0.72134 0.0
C907 C 0.78944 0.21853 0.65089 0.0
C908 C 0.73344 0.18664 0.64909 0.0
C909 C 0.75561 0.23989 0.6401 0.0
C910 C 0.76369 0.19065 0.65375 0.0
C911 C 0.78592 0.24349 0.64366 0.0
C912 C 0.72939 0.21148 0.64276 0.0
C913 C 0.84274 0.2731 0.64222 0.0
N914 N 0.81828 0.22094 0.65427 0.0
C915 C 0.845 0.24759 0.6492 0.0
C916 C 0.81304 0.27111 0.63969 0.0
Tb917 Tb 0.81941 0.17822 0.66693 0.0
N918 N 0.76869 0.16731 0.6598 0.0
C919 C 0.74463 0.13907 0.66005 0.0
C920 C 0.70846 0.15778 0.65016 0.0
C921 C 0.71425 0.13391 0.6552 0.0
H922 H 0.86805 0.24936 0.65119 0.0
H923 H 0.69522 0.11148 0.65568 0.0
H924 H 0.70627 0.20889 0.63934 0.0
H925 H 0.86389 0.29426 0.63878 0.0
H926 H 0.7485 0.12031 0.66418 0.0
H927 H 0.9518 0.21968 0.73034 0.0
H928 H 0.68486 0.15371 0.6466 0.0
H929 H 0.77751 0.08271 0.73752 0.0
H930 H 0.89833 0.21127 0.72314 0.0
H931 H 0.78105 0.03776 0.75099 0.0
H932 H 0.75232 0.25881 0.63472 0.0
H933 H 0.96129 0.17722 0.7409 0.0
H934 H 0.93895 0.12213 0.75017 0.0
H935 H 0.81136 0.29088 0.63419 0.0
H936 H 0.89242 0.07251 0.75577 0.0
N937 N 0.87723 0.1642 0.72899 0.0
C938 C 0.90179 0.1924 0.72781 0.0
C939 C 0.93762 0.17333 0.73778 0.0
C940 C 0.91214 0.14462 0.74011 0.0
C941 C 0.93234 0.19734 0.73186 0.0
C942 C 0.88187 0.14083 0.73573 0.0
H943 H 0.83331 0.04082 0.75633 0.0
N944 N 0.82733 0.11078 0.73473 0.0
C945 C 0.80234 0.0588 0.74748 0.0
C946 C 0.85597 0.11307 0.73869 0.0
C947 C 0.80041 0.08431 0.73989 0.0
C948 C 0.83188 0.0606 0.75045 0.0
C949 C 0.85917 0.08808 0.74636 0.0
O950 O 0.79364 0.14 0.74714 0.0
O951 O 0.79926 0.16325 0.69864 0.0
O952 O 0.82154 0.21144 0.68596 0.0
O953 O 0.84623 0.20234 0.71517 0.0
O954 O 0.77517 0.1279 0.71998 0.0
O955 O 0.83922 0.17811 0.74703 0.0
O956 O 0.85275 0.19206 0.64122 0.0
O957 O 0.84714 0.16846 0.68957 0.0
O958 O 0.82294 0.11932 0.70293 0.0
O959 O 0.80078 0.12946 0.67262 0.0
O960 O 0.87065 0.20468 0.66783 0.0
O961 O 0.80682 0.15469 0.64067 0.0
C962 C 0.77141 0.14484 0.70518 0.0
C963 C 0.81365 0.15161 0.78035 0.0
C964 C 0.80327 0.15332 0.81748 0.0
C965 C 0.80471 0.16386 0.79593 0.0
C966 C 0.81118 0.13075 0.8232 0.0
C967 C 0.82192 0.12943 0.78658 0.0
C968 C 0.82066 0.1191 0.80785 0.0
C969 C 0.8372 0.21943 0.70311 0.0
C970 C 0.81247 0.16079 0.75776 0.0
C971 C 0.88937 0.09147 0.75009 0.0
C972 C 0.91584 0.11972 0.74693 0.0
C973 C 0.87445 0.18841 0.6831 0.0
C974 C 0.83323 0.182 0.60765 0.0
C975 C 0.84634 0.17352 0.59172 0.0
C976 C 0.84769 0.18491 0.57033 0.0
C977 C 0.8356 0.20455 0.56517 0.0
C978 C 0.82095 0.20132 0.60189 0.0
C979 C 0.82216 0.21249 0.58081 0.0
C980 C 0.80918 0.11217 0.68505 0.0
C981 C 0.83386 0.17188 0.63019 0.0
H982 H 0.7983 0.18104 0.79132 0.0
H983 H 0.81039 0.12239 0.83962 0.0
H984 H 0.82898 0.11981 0.77504 0.0
H985 H 0.82692 0.10185 0.81247 0.0
H986 H 0.8559 0.15859 0.59595 0.0
H987 H 0.8363 0.21355 0.54891 0.0
H988 H 0.81066 0.208 0.61369 0.0
H989 H 0.81276 0.22751 0.57657 0.0
C990 C 0.29191 0.84683 0.06366 0.0
C991 C 0.28802 0.83009 0.0834 0.0
C992 C 0.32074 0.87207 0.05653 0.0
C993 C 0.3463 0.88209 0.06981 0.0
C994 C 0.34196 0.86629 0.09031 0.0
C995 C 0.31311 0.84028 0.09672 0.0
C996 C 0.32419 0.88726 0.03438 0.0
C997 C 0.36789 0.87674 0.10542 0.0
C998 C 0.43119 0.9342 0.0464 0.0
C999 C 0.43426 0.96219 0.04799 0.0
C1000 C 0.4026 0.90801 0.05292 0.0
C1001 C 0.37696 0.90964 0.06244 0.0
C1002 C 0.38037 0.93789 0.06453 0.0
C1003 C 0.40859 0.96362 0.05701 0.0
C1004 C 0.39984 0.87861 0.04956 0.0
C1005 C 0.3543 0.94101 0.075 0.0
H1006 H 0.27244 0.83959 0.05346 0.0
H1007 H 0.3105 0.82752 0.11194 0.0
H1008 H 0.33316 0.91134 0.03426 0.0
H1009 H 0.34173 0.88452 0.02506 0.0
H1010 H 0.30158 0.87802 0.02649 0.0
H1011 H 0.3602 0.8633 0.1212 0.0
H1012 H 0.38857 0.87554 0.0991 0.0
H1013 H 0.37582 0.90023 0.10719 0.0
H1014 H 0.45117 0.93272 0.04017 0.0
H1015 H 0.41085 0.9851 0.05867 0.0
H1016 H 0.37885 0.86641 0.04059 0.0
H1017 H 0.39641 0.86488 0.06495 0.0
H1018 H 0.42109 0.88114 0.04087 0.0
H1019 H 0.33304 0.93213 0.06574 0.0
H1020 H 0.3613 0.96439 0.07659 0.0
H1021 H 0.34751 0.92789 0.09089 0.0
C1022 C 0.19252 0.53619 0.09527 0.0
C1023 C 0.21218 0.52603 0.08766 0.0
C1024 C 0.16382 0.52979 0.08625 0.0
C1025 C 0.15564 0.51421 0.06856 0.0
C1026 C 0.17628 0.50533 0.06012 0.0
C1027 C 0.20382 0.51055 0.07019 0.0
C1028 C 0.14193 0.53899 0.09595 0.0
C1029 C 0.16913 0.49009 0.04061 0.0
C1030 C 0.06956 0.47361 0.05624 0.0
C1031 C 0.06704 0.49537 0.04244 0.0
C1032 C 0.09834 0.47938 0.06491 0.0
C1033 C 0.12543 0.50711 0.05888 0.0
C1034 C 0.12345 0.52845 0.04404 0.0
C1035 C 0.09411 0.52265 0.03664 0.0
C1036 C 0.09938 0.45646 0.08132 0.0
C1037 C 0.15206 0.55781 0.03643 0.0
H1038 H 0.19928 0.54852 0.10856 0.0
H1039 H 0.21854 0.50191 0.06466 0.0
H1040 H 0.13881 0.55509 0.08454 0.0
H1041 H 0.11826 0.51947 0.09991 0.0
H1042 H 0.15094 0.54925 0.11046 0.0
H1043 H 0.18897 0.48688 0.03512 0.0
H1044 H 0.14774 0.46814 0.04381 0.0
H1045 H 0.16411 0.50326 0.0277 0.0
H1046 H 0.04862 0.45263 0.06114 0.0
H1047 H 0.09257 0.53998 0.0267 0.0
H1048 H 0.10652 0.4658 0.09634 0.0
H1049 H 0.11731 0.45042 0.07635 0.0
H1050 H 0.0762 0.43602 0.08426 0.0
H1051 H 0.14726 0.57007 0.02274 0.0
H1052 H 0.17216 0.55444 0.03184 0.0
H1053 H 0.15948 0.57184 0.04926 0.0
C1054 C 0.50376 0.69103 0.08249 0.0
C1055 C 0.53345 0.71607 0.07844 0.0
C1056 C 0.49747 0.6643 0.07522 0.0
C1057 C 0.52141 0.66283 0.06341 0.0
C1058 C 0.5512 0.68851 0.05882 0.0
C1059 C 0.55693 0.71475 0.06659 0.0
C1060 C 0.46559 0.6374 0.08078 0.0
C1061 C 0.57724 0.68812 0.04606 0.0
C1062 C 0.5196 0.58853 0.06333 0.0
C1063 C 0.50653 0.58002 0.0441 0.0
C1064 C 0.52411 0.61513 0.06987 0.0
C1065 C 0.51592 0.63414 0.05676 0.0
C1066 C 0.50281 0.62579 0.03732 0.0
C1067 C 0.49792 0.59873 0.03137 0.0
C1068 C 0.53758 0.62282 0.09092 0.0
C1069 C 0.49406 0.64549 0.02274 0.0
H1070 H 0.48584 0.69225 0.09185 0.0
H1071 H 0.57989 0.73426 0.06364 0.0
H1072 H 0.4547 0.62812 0.06633 0.0
H1073 H 0.46848 0.61997 0.09081 0.0
H1074 H 0.44915 0.6425 0.08932 0.0
H1075 H 0.59823 0.71039 0.04268 0.0
H1076 H 0.58467 0.67282 0.05471 0.0
H1077 H 0.56853 0.67977 0.03093 0.0
H1078 H 0.52614 0.5743 0.07347 0.0
H1079 H 0.48722 0.59227 0.01673 0.0
H1080 H 0.5212 0.62641 0.10082 0.0
H1081 H 0.56027 0.64376 0.08865 0.0
H1082 H 0.54177 0.60523 0.09957 0.0
H1083 H 0.47588 0.64884 0.03074 0.0
H1084 H 0.48479 0.63615 1.00796 0.0
H1085 H 0.51504 0.66759 0.01864 0.0
C1086 C 0.83185 0.32726 0.96156 0.0
C1087 C 0.82483 0.29985 0.97305 0.0
C1088 C 0.85431 0.35418 0.9681 0.0
C1089 C 0.8704 0.35389 0.98661 0.0
C1090 C 0.86305 0.32619 0.9984 0.0
C1091 C 0.84041 0.29963 0.99151 0.0
C1092 C 0.86101 0.38298 0.95506 0.0
C1093 C 0.87951 0.32459 0.01815 0.0
C1094 C 0.95037 0.4216 0.9924 0.0
C1095 C 0.94241 0.4365 1.00621 0.0
C1096 C 0.92733 0.39484 0.98599 0.0
C1097 C 0.89526 0.38245 0.99341 0.0
C1098 C 0.88705 0.39748 1.00727 0.0
C1099 C 0.91057 0.42418 0.01343 0.0
C1100 C 0.93737 0.37974 0.97126 0.0
C1101 C 0.85331 0.38544 0.01556 0.0
H1102 H 0.81969 0.32756 0.9474 0.0
H1103 H 0.83533 0.27853 1.00032 0.0
H1104 H 0.85695 0.39719 0.96493 0.0
H1105 H 0.88617 0.3952 0.94913 0.0
H1106 H 0.84602 0.37956 0.94141 0.0
H1107 H 0.87066 0.30149 0.02585 0.0
H1108 H 0.90528 0.33459 0.01434 0.0
H1109 H 0.87615 0.33754 0.02954 0.0
H1110 H 0.97477 0.43076 0.98662 0.0
H1111 H 0.90385 0.43559 0.0238 0.0
H1112 H 0.92457 0.37758 0.95664 0.0
H1113 H 0.9311 0.35705 0.9787 0.0
H1114 H 0.96316 0.39202 0.96697 0.0
H1115 H 0.83811 0.38392 1.00226 0.0
H1116 H 0.8508 0.39946 0.02644 0.0
H1117 H 0.84437 0.36274 0.02401 0.0
C1118 C 0.68935 0.53032 0.96833 0.0
C1119 C 0.70557 0.5182 0.98041 0.0
C1120 C 0.66139 0.5283 0.97636 0.0
C1121 C 0.65063 0.51564 0.9975 0.0
C1122 C 0.66702 0.50359 0.0099 0.0
C1123 C 0.69386 0.50425 1.00095 0.0
C1124 C 0.64374 0.54024 0.96232 0.0
C1125 C 0.65695 0.49114 0.03276 0.0
C1126 C 0.59821 0.54416 0.01715 0.0
C1127 C 0.56837 0.51993 0.01635 0.0
C1128 C 0.62548 0.54194 0.0132 0.0
C1129 C 0.62254 0.51574 1.0065 0.0
C1130 C 0.59235 0.49116 1.00568 0.0
C1131 C 0.56561 0.4935 0.01089 0.0
C1132 C 0.65736 0.56805 0.0153 0.0
C1133 C 0.58807 0.46344 0.99747 0.0
H1134 H 0.6989 0.542 0.95274 0.0
H1135 H 0.70633 0.49467 0.01018 0.0
H1136 H 0.61826 0.52381 0.96311 0.0
H1137 H 0.64572 0.56053 0.96775 0.0
H1138 H 0.65306 0.5458 0.94564 0.0
H1139 H 0.67209 0.48229 0.04014 0.0
H1140 H 0.65812 0.50874 0.04159 0.0
H1141 H 0.6321 0.4732 0.0344 0.0
H1142 H 0.60017 0.56482 0.02083 0.0
H1143 H 0.54257 0.4754 0.009 0.0
H1144 H 0.66843 0.57968 0.99946 0.0
H1145 H 0.6733 0.56055 0.02315 0.0
H1146 H 0.65548 0.5841 0.02446 0.0
H1147 H 0.59478 0.46852 0.98034 0.0
H1148 H 0.56327 0.4453 0.99996 0.0
H1149 H 0.60366 0.45542 1.00514 0.0
C1150 C 0.45 0.17884 0.9755 0.0
C1151 C 0.47127 0.20113 0.96016 0.0
C1152 C 0.4543 0.15452 0.98327 0.0
C1153 C 0.48051 0.15238 0.97545 0.0
C1154 C 0.50144 0.17441 0.95936 0.0
C1155 C 0.49678 0.19872 0.95214 0.0
C1156 C 0.43158 0.13181 1.00053 0.0
C1157 C 0.52951 0.17296 0.9504 0.0
C1158 C 0.51195 0.1088 0.01088 0.0
C1159 C 0.49825 0.08141 1.00317 0.0
C1160 C 0.50626 0.13193 1.0021 0.0
C1161 C 0.48688 0.12796 0.98483 0.0
C1162 C 0.4735 0.10062 0.97667 0.0
C1163 C 0.47924 0.07772 0.98594 0.0
C1164 C 0.52095 0.16063 0.01141 0.0
C1165 C 0.45311 0.09555 0.9581 0.0
H1166 H 0.43074 0.18122 0.98201 0.0
H1167 H 0.51391 0.21658 0.94092 0.0
H1168 H 0.422 0.10927 0.996 0.0
H1169 H 0.44424 0.13227 0.01507 0.0
H1170 H 0.41154 0.13582 1.00415 0.0
H1171 H 0.54172 0.19018 0.93666 0.0
H1172 H 0.54665 0.17607 0.96267 0.0
H1173 H 0.52199 0.1509 0.94548 0.0
H1174 H 0.52736 0.11234 0.02373 0.0
H1175 H 0.46879 0.05689 0.97957 0.0
H1176 H 0.50222 0.16546 0.01671 0.0
H1177 H 0.53653 0.17914 0.99926 0.0
H1178 H 0.53507 0.16007 0.025 0.0
H1179 H 0.43216 0.09802 0.96198 0.0
H1180 H 0.44488 0.07324 0.95337 0.0
H1181 H 0.4665 0.11245 0.94446 0.0
C1182 C 0.73443 0.18103 0.99032 0.0
C1183 C 0.7365 0.19686 0.97051 0.0
C1184 C 0.70737 0.15406 0.99757 0.0
C1185 C 0.68185 0.14167 0.98444 0.0
C1186 C 0.68446 0.15674 0.96393 0.0
C1187 C 0.7114 0.18432 0.95739 0.0
C1188 C 0.70563 0.13982 0.0198 0.0
C1189 C 0.65859 0.1439 0.94897 0.0
C1190 C 0.62252 0.05928 0.99894 0.0
C1191 C 0.59653 0.06013 1.00799 0.0
C1192 C 0.65002 0.08547 0.99082 0.0
C1193 C 0.65224 0.11346 0.99236 0.0
C1194 C 0.62622 0.11442 1.00179 0.0
C1195 C 0.5985 0.08789 0.00885 0.0
C1196 C 0.67666 0.08319 0.98043 0.0
C1197 C 0.62765 0.14352 1.00457 0.0
H1198 H 0.75391 0.19009 1.00039 0.0
H1199 H 0.7124 0.19639 0.94219 0.0
H1200 H 0.69098 0.14526 0.02987 0.0
H1201 H 0.6944 0.11538 0.0209 0.0
H1202 H 0.72933 0.14814 0.02622 0.0
H1203 H 0.66539 0.15676 0.93297 0.0
H1204 H 0.65258 0.12068 0.94772 0.0
H1205 H 0.63691 0.14356 0.9551 0.0
H1206 H 0.62111 0.038 0.99784 0.0
H1207 H 0.57835 0.08901 0.01505 0.0
H1208 H 0.69842 0.09426 0.98897 0.0
H1209 H 0.68184 0.09477 0.96406 0.0
H1210 H 0.67108 0.05987 0.98 0.0
H1211 H 0.64832 0.15648 0.01358 0.0
H1212 H 0.60599 0.14049 0.01302 0.0
H1213 H 0.63083 0.15677 0.989 0.0
C1214 C 0.84479 0.55676 0.96212 0.0
C1215 C 0.81701 0.541 0.97525 0.0
C1216 C 0.87292 0.55698 0.968 0.0
C1217 C 0.87384 0.54286 0.98809 0.0
C1218 C 0.8463 0.52782 1.0017 0.0
C1219 C 0.81808 0.52611 0.99478 0.0
C1220 C 0.9014 0.57175 0.9525 0.0
C1221 C 0.84667 0.51397 0.02371 0.0
C1222 C 0.9355 0.51836 0.99852 0.0
C1223 C 0.95962 0.54318 1.00594 0.0
C1224 C 0.90761 0.51816 0.9923 0.0
C1225 C 0.90327 0.54284 0.99461 0.0
C1226 C 0.92723 0.56758 1.0028 0.0
C1227 C 0.95587 0.56803 1.00734 0.0
C1228 C 0.88343 0.49207 0.9825 0.0
C1229 C 0.9226 0.5934 1.00685 0.0
H1230 H 0.84495 0.56892 0.94725 0.0
H1231 H 0.79666 0.5128 1.00473 0.0
H1232 H 0.92023 0.59161 0.95835 0.0
H1233 H 0.9111 0.55647 0.95079 0.0
H1234 H 0.89568 0.57865 0.93672 0.0
H1235 H 0.82281 0.50186 0.03197 0.0
H1236 H 0.8564 0.49847 0.02351 0.0
H1237 H 0.86229 0.53166 0.03292 0.0
H1238 H 0.93919 0.4998 0.99637 0.0
H1239 H 0.97512 0.58754 0.01243 0.0
H1240 H 0.87869 0.49983 0.96669 0.0
H1241 H 0.86079 0.48102 0.99218 0.0
H1242 H 0.8913 0.4754 0.98087 0.0
H1243 H 0.92157 0.60564 0.99174 0.0
H1244 H 0.94197 0.60905 0.01563 0.0
H1245 H 0.89985 0.58533 0.01603 0.0
C1246 C 0.45332 0.29024 0.98764 0.0
C1247 C 0.47344 0.29551 0.9701 0.0
C1248 C 0.45406 0.31383 0.9969 0.0
C1249 C 0.47551 0.3434 0.9884 0.0
C1250 C 0.49633 0.34872 0.97089 0.0
C1251 C 0.49507 0.32468 0.962 0.0
C1252 C 0.43159 0.30713 0.01558 0.0
C1253 C 0.51965 0.37983 0.96137 0.0
C1254 C 0.45733 0.40532 0.99755 0.0
C1255 C 0.47742 0.4182 0.01348 0.0
C1256 C 0.45622 0.38081 0.98946 0.0
C1257 C 0.47566 0.36877 0.99744 0.0
C1258 C 0.49566 0.38142 0.01371 0.0
C1259 C 0.49635 0.40595 0.02147 0.0
C1260 C 0.43457 0.36807 0.97212 0.0
C1261 C 0.5169 0.36946 0.02263 0.0
H1262 H 0.43668 0.2676 0.99385 0.0
H1263 H 0.51086 0.32857 0.94859 0.0
H1264 H 0.44495 0.31774 0.02898 0.0
H1265 H 0.41552 0.31651 0.01157 0.0
H1266 H 0.41709 0.28298 0.02072 0.0
H1267 H 0.53476 0.3802 0.94817 0.0
H1268 H 0.50681 0.3919 0.95545 0.0
H1269 H 0.53506 0.39204 0.97354 0.0
H1270 H 0.44262 0.41455 0.99121 0.0
H1271 H 0.51239 0.41596 0.03348 0.0
H1272 H 0.41818 0.3442 0.97696 0.0
H1273 H 0.44866 0.36989 0.95783 0.0
H1274 H 0.42043 0.3795 0.96797 0.0
H1275 H 0.50289 0.34537 0.02801 0.0
H1276 H 0.52966 0.38065 0.03606 0.0
H1277 H 0.53456 0.3725 0.0102 0.0
C1278 C 0.18987 0.70214 0.08709 0.0
C1279 C 0.19722 0.73031 0.07689 0.0
C1280 C 0.16759 0.67622 0.07933 0.0
C1281 C 0.15182 0.6784 0.06103 0.0
C1282 C 0.15942 0.70691 0.0506 0.0
C1283 C 0.18211 0.73244 0.05858 0.0
C1284 C 0.16074 0.64645 0.09082 0.0
C1285 C 0.1431 0.71045 0.03123 0.0
C1286 C 0.11121 0.61163 0.03079 0.0
C1287 C 0.0796 0.5985 0.03868 0.0
C1288 C 0.13486 0.63743 0.0379 0.0
C1289 C 0.12687 0.65093 0.05313 0.0
C1290 C 0.09492 0.638 0.06094 0.0
C1291 C 0.07183 0.61193 0.05379 0.0
C1292 C 0.16855 0.64994 0.02934 0.0
C1293 C 0.08509 0.65167 0.07696 0.0
H1294 H 0.20167 0.70049 0.10118 0.0
H1295 H 0.18759 0.75419 0.05079 0.0
H1296 H 0.13566 0.63399 0.0969 0.0
H1297 H 0.16441 0.6332 0.07984 0.0
H1298 H 0.17593 0.64847 0.10423 0.0
H1299 H 0.15195 0.73405 0.02475 0.0
H1300 H 0.14659 0.69886 0.01886 0.0
H1301 H 0.1173 0.70012 0.03508 0.0
H1302 H 0.1177 0.60138 0.01932 0.0
H1303 H 0.04759 0.60211 0.06004 0.0
H1304 H 0.18369 0.64994 0.04239 0.0
H1305 H 0.17773 0.67324 0.02209 0.0
H1306 H 0.17087 0.6371 0.0174 0.0
H1307 H 0.09755 0.65198 0.09155 0.0
H1308 H 0.05924 0.63949 0.08104 0.0
H1309 H 0.09192 0.67498 0.07082 0.0
C1310 C 0.29361 0.49617 0.07671 0.0
C1311 C 0.30247 0.51252 0.09372 0.0
C1312 C 0.31429 0.48869 0.06709 0.0
C1313 C 0.34386 0.49628 0.0755 0.0
C1314 C 0.35231 0.51142 0.09342 0.0
C1315 C 0.33165 0.51991 0.1021 0.0
C1316 C 0.3049 0.47354 0.04757 0.0
C1317 C 0.38331 0.51904 0.1032 0.0
C1318 C 0.38653 0.4548 0.06142 0.0
C1319 C 0.41146 0.47661 0.04774 0.0
C1320 C 0.36426 0.46084 0.0706 0.0
C1321 C 0.3662 0.48894 0.0652 0.0
C1322 C 0.38991 0.51028 0.05024 0.0
C1323 C 0.41274 0.50412 0.04219 0.0
C1324 C 0.33986 0.43783 0.08698 0.0
C1325 C 0.39201 0.54008 0.04331 0.0
H1326 H 0.27061 0.48987 0.07063 0.0
H1327 H 0.33848 0.53269 0.11514 0.0
H1328 H 0.32264 0.48709 0.03435 0.0
H1329 H 0.30443 0.45181 0.05027 0.0
H1330 H 0.28133 0.46996 0.04275 0.0
H1331 H 0.38481 0.52803 0.11829 0.0
H1332 H 0.38654 0.49912 0.10613 0.0
H1333 H 0.40313 0.53577 0.09221 0.0
H1334 H 0.38561 0.43357 0.066 0.0
H1335 H 0.43215 0.5214 0.03218 0.0
H1336 H 0.31576 0.43297 0.08266 0.0
H1337 H 0.34353 0.44651 0.10233 0.0
H1338 H 0.34107 0.41681 0.08902 0.0
H1339 H 0.36855 0.53737 0.03905 0.0
H1340 H 0.4092 0.55247 0.02958 0.0
H1341 H 0.39951 0.55359 0.05644 0.0
C1342 C 0.51598 0.81388 0.08727 0.0
C1343 C 0.54482 0.81386 0.08982 0.0
C1344 C 0.51485 0.84038 0.08154 0.0
C1345 C 0.5433 0.86766 0.07852 0.0
C1346 C 0.5724 0.86786 0.08223 0.0
C1347 C 0.57281 0.84093 0.08773 0.0
C1348 C 0.48331 0.83902 0.07776 0.0
C1349 C 0.60323 0.89639 0.07947 0.0
C1350 C 0.54202 0.928 0.03909 0.0
C1351 C 0.53663 0.94527 0.05206 0.0
C1352 C 0.5448 0.90311 0.04751 0.0
C1353 C 0.54268 0.8954 0.06961 0.0
C1354 C 0.53862 0.91348 0.08291 0.0
C1355 C 0.5356 0.93817 0.07398 0.0
C1356 C 0.5492 0.88463 0.03266 0.0
C1357 C 0.53653 0.90627 0.10654 0.0
H1358 H 0.49433 0.79295 0.08923 0.0
H1359 H 0.59513 0.8409 0.08959 0.0
H1360 H 0.48013 0.85441 0.08687 0.0
H1361 H 0.48246 0.84616 0.06086 0.0
H1362 H 0.46326 0.81638 0.08217 0.0
H1363 H 0.6232 0.89321 0.0854 0.0
H1364 H 0.60861 0.90544 0.06253 0.0
H1365 H 0.60149 0.91315 0.08783 0.0
H1366 H 0.54419 0.93391 0.02227 0.0
H1367 H 0.53146 0.95134 0.08421 0.0
H1368 H 0.52884 0.86191 0.03497 0.0
H1369 H 0.57073 0.8827 0.03612 0.0
H1370 H 0.55126 0.89407 0.0159 0.0
H1371 H 0.5148 0.88511 0.11164 0.0
H1372 H 0.53602 0.92381 0.11468 0.0
H1373 H 0.5569 0.90324 0.11166 0.0
C1374 C 0.95103 0.17907 0.39581 0.0
C1375 C 0.9464 0.16299 0.41591 0.0
C1376 C 0.98008 0.20416 0.38878 0.0
C1377 C 0.00518 0.21455 0.40243 0.0
C1378 C 1.0001 0.19933 0.42319 0.0
C1379 C 0.97104 0.17356 0.42956 0.0
C1380 C 0.98427 0.21857 0.36633 0.0
C1381 C 0.02552 0.2101 0.43865 0.0
C1382 C 0.09111 0.26526 0.38044 0.0
C1383 C 0.09477 0.29355 0.38167 0.0
C1384 C 0.06199 0.23946 0.38653 0.0
C1385 C 0.03624 0.24176 0.39516 0.0
C1386 C 0.0401 0.27031 0.39671 0.0
C1387 C 0.06899 0.29566 0.38977 0.0
C1388 C 0.05885 0.20973 0.38375 0.0
C1389 C 0.01376 0.27413 0.40602 0.0
H1390 H 0.932 0.17145 0.38528 0.0
H1391 H 0.96797 0.16123 0.445 0.0
H1392 H 0.99603 0.24302 0.36533 0.0
H1393 H 0.99959 0.21278 0.35724 0.0
H1394 H 0.96143 0.21093 0.35877 0.0
H1395 H 0.01734 0.19704 0.45453 0.0
H1396 H 0.04636 0.20869 0.43289 0.0
H1397 H 0.03341 0.2337 0.44002 0.0
H1398 H 0.11107 0.2632 0.37494 0.0
H1399 H 0.07169 0.31737 0.39114 0.0
H1400 H 0.03841 0.19781 0.37427 0.0
H1401 H 0.05423 0.19603 0.3993 0.0
H1402 H 0.0804 0.21173 0.37584 0.0
H1403 H 0.993 0.26508 0.39631 0.0
H1404 H 0.02087 0.29769 0.40701 0.0
H1405 H 0.00614 0.26152 0.42205 0.0
C1406 C 0.84771 0.84833 0.42411 0.0
C1407 C 0.86531 0.83757 0.41444 0.0
C1408 C 0.81921 0.8448 0.41625 0.0
C1409 C 0.80931 0.83188 0.39752 0.0
C1410 C 0.82786 0.82231 0.3871 0.0
C1411 C 0.85513 0.82434 0.39612 0.0
C1412 C 0.79934 0.85415 0.42829 0.0
C1413 C 0.81918 0.81036 0.36633 0.0
C1414 C 0.72257 0.79917 0.38722 0.0
C1415 C 0.72167 0.82364 0.37608 0.0
C1416 C 0.7511 0.80136 0.39413 0.0
C1417 C 0.77943 0.82833 0.38897 0.0
C1418 C 0.77885 0.8526 0.37684 0.0
C1419 C 0.74983 0.85027 0.37131 0.0
C1420 C 0.75071 0.77539 0.40785 0.0
C1421 C 0.80873 0.88131 0.37014 0.0
H1422 H 0.85591 0.85877 0.43816 0.0
H1423 H 0.86857 0.81554 0.38893 0.0
H1424 H 0.7975 0.87247 0.41872 0.0
H1425 H 0.77501 0.83543 0.43164 0.0
H1426 H 0.80929 0.86162 0.44343 0.0
H1427 H 0.83525 0.8024 0.36087 0.0
H1428 H 0.79459 0.79195 0.36747 0.0
H1429 H 0.82038 0.82813 0.35425 0.0
H1430 H 0.70073 0.7787 0.39135 0.0
H1431 H 0.74946 0.86959 0.36352 0.0
H1432 H 0.75958 0.78196 0.42339 0.0
H1433 H 0.76667 0.76858 0.40066 0.0
H1434 H 0.72666 0.756 0.41041 0.0
H1435 H 0.8191 0.89246 0.38406 0.0
H1436 H 0.8044 0.89679 0.35883 0.0
H1437 H 0.82651 0.87686 0.36272 0.0
C1438 C 0.22396 0.05077 0.3995 0.0
C1439 C 0.20333 0.04911 0.41555 0.0
C1440 C 0.22048 0.02501 0.392 0.0
C1441 C 0.19555 0.99697 0.40064 0.0
C1442 C 0.17425 0.99538 0.4166 0.0
C1443 C 0.17853 0.02149 0.42392 0.0
C1444 C 0.24377 0.02775 0.37506 0.0
C1445 C 0.14713 0.96608 0.42606 0.0
C1446 C 0.16973 0.93218 0.36913 0.0
C1447 C 0.18447 0.91664 0.37897 0.0
C1448 C 0.17324 0.9583 0.37593 0.0
C1449 C 0.19186 0.96931 0.3931 0.0
C1450 C 0.20673 0.95371 0.40318 0.0
C1451 C 0.20281 0.92757 0.39604 0.0
C1452 C 0.15671 0.97397 0.3648 0.0
C1453 C 0.22679 0.96463 0.42154 0.0
H1454 H 0.24318 0.07223 0.39319 0.0
H1455 H 0.16266 0.02044 0.43634 0.0
H1456 H 0.25627 0.01534 0.38098 0.0
H1457 H 0.23113 0.0178 0.36125 0.0
H1458 H 0.26158 0.05114 0.36981 0.0
H1459 H 0.13224 0.96868 0.43795 0.0
H1460 H 0.13204 0.95459 0.41352 0.0
H1461 H 0.15632 0.95157 0.43368 0.0
H1462 H 0.15498 0.92374 0.35622 0.0
H1463 H 0.21421 0.91575 0.40384 0.0
H1464 H 0.17413 0.99717 0.35879 0.0
H1465 H 0.13974 0.97472 0.37605 0.0
H1466 H 0.14369 0.96293 0.35139 0.0
H1467 H 0.24631 0.98742 0.41683 0.0
H1468 H 0.23708 0.95022 0.42751 0.0
H1469 H 0.21238 0.96559 0.43459 0.0
C1470 C 0.49208 0.65578 0.29776 0.0
C1471 C 0.48584 0.6285 0.30909 0.0
C1472 C 0.51377 0.68284 0.30448 0.0
C1473 C 0.53003 0.68285 0.32295 0.0
C1474 C 0.52345 0.65526 0.33459 0.0
C1475 C 0.50141 0.62852 0.32759 0.0
C1476 C 0.51955 0.71149 0.29163 0.0
C1477 C 0.54024 0.65398 0.35424 0.0
C1478 C 0.60894 0.75213 0.32803 0.0
C1479 C 0.60057 0.76655 0.34202 0.0
C1480 C 0.58642 0.72491 0.32193 0.0
C1481 C 0.55442 0.71163 0.32975 0.0
C1482 C 0.54582 0.72616 0.34382 0.0
C1483 C 0.56887 0.75324 0.34979 0.0
C1484 C 0.59693 0.71032 0.30705 0.0
C1485 C 0.5121 0.71327 0.35243 0.0
H1486 H 0.47998 0.65585 0.28352 0.0
H1487 H 0.49689 0.60751 0.33627 0.0
H1488 H 0.51529 0.72539 0.30171 0.0
H1489 H 0.54456 0.72417 0.28543 0.0
H1490 H 0.50417 0.70781 0.27818 0.0
H1491 H 0.53199 0.63092 0.36183 0.0
H1492 H 0.56604 0.66454 0.35031 0.0
H1493 H 0.53651 0.66658 0.36574 0.0
H1494 H 0.63324 0.76203 0.32187 0.0
H1495 H 0.56184 0.76423 0.36034 0.0
H1496 H 0.58409 0.7081 0.29244 0.0
H1497 H 0.59108 0.68768 0.31435 0.0
H1498 H 0.6227 0.723 0.30274 0.0
H1499 H 0.49653 0.71134 0.33929 0.0
H1500 H 0.50925 0.72696 0.36345 0.0
H1501 H 0.50388 0.69064 0.36082 0.0
C1502 C 0.33994 0.79975 0.31953 0.0
C1503 C 0.35967 0.82259 0.30388 0.0
C1504 C 0.31621 0.80175 0.33078 0.0
C1505 C 0.31078 0.82614 0.32505 0.0
C1506 C 0.32907 0.848 0.30809 0.0
C1507 C 0.35407 0.84659 0.29839 0.0
C1508 C 0.29757 0.77778 0.34876 0.0
C1509 C 0.3225 0.87312 0.30017 0.0
C1510 C 0.23331 0.82393 0.33647 0.0
C1511 C 0.24225 0.84643 0.34923 0.0
C1512 C 0.25471 0.8152 0.3298 0.0
C1513 C 0.28594 0.82931 0.33618 0.0
C1514 C 0.29463 0.85079 0.35015 0.0
C1515 C 0.27307 0.86021 0.35562 0.0
C1516 C 0.24448 0.79254 0.31468 0.0
C1517 C 0.32713 0.8648 0.35847 0.0
H1518 H 0.34358 0.78073 0.32338 0.0
H1519 H 0.36969 0.86466 0.28668 0.0
H1520 H 0.28533 0.78458 0.35977 0.0
H1521 H 0.27969 0.75791 0.34231 0.0
H1522 H 0.31335 0.77113 0.35778 0.0
H1523 H 0.3354 0.88511 0.28478 0.0
H1524 H 0.29685 0.86467 0.29834 0.0
H1525 H 0.32986 0.88922 0.31164 0.0
H1526 H 0.21023 0.81477 0.33023 0.0
H1527 H 0.28068 0.87893 0.36424 0.0
H1528 H 0.24665 0.77308 0.32181 0.0
H1529 H 0.26001 0.80202 0.29998 0.0
H1530 H 0.21961 0.78473 0.31054 0.0
H1531 H 0.33487 0.84791 0.36269 0.0
H1532 H 0.32772 0.87562 0.37254 0.0
H1533 H 0.34436 0.88183 0.34619 0.0
C1534 C 0.11123 0.50918 0.3143 0.0
C1535 C 0.12863 0.5294 0.29669 0.0
C1536 C 0.11582 0.48479 0.32123 0.0
C1537 C 0.13839 0.48041 0.31023 0.0
C1538 C 0.15493 0.50004 0.29178 0.0
C1539 C 0.1498 0.52429 0.28521 0.0
C1540 C 0.09743 0.46441 0.34083 0.0
C1541 C 0.1791 0.4962 0.27952 0.0
C1542 C 0.17504 0.43861 0.34213 0.0
C1543 C 0.15785 0.40996 0.3366 0.0
C1544 C 0.16923 0.46171 0.33349 0.0
C1545 C 0.14576 0.45628 0.31875 0.0
C1546 C 0.12876 0.42758 0.31276 0.0
C1547 C 0.13505 0.40486 0.32168 0.0
C1548 C 0.18805 0.49191 0.34034 0.0
C1549 C 0.10359 0.42077 0.29711 0.0
H1550 H 0.09471 0.51311 0.32305 0.0
H1551 H 0.16339 0.54009 0.27169 0.0
H1552 H 0.08544 0.44109 0.33765 0.0
H1553 H 0.11385 0.46611 0.35338 0.0
H1554 H 0.07941 0.46975 0.3468 0.0
H1555 H 0.18801 0.51178 0.26465 0.0
H1556 H 0.1994 0.50004 0.28926 0.0
H1557 H 0.16884 0.47324 0.27572 0.0
H1558 H 0.19327 0.44314 0.35319 0.0
H1559 H 0.12184 0.38301 0.31702 0.0
H1560 H 0.17195 0.49813 0.34808 0.0
H1561 H 0.20016 0.50875 0.32642 0.0
H1562 H 0.20605 0.49275 0.35147 0.0
H1563 H 0.08446 0.42441 0.30333 0.0
H1564 H 0.09311 0.39762 0.2936 0.0
H1565 H 0.11366 0.43599 0.28219 0.0
C1566 C 0.37432 0.51356 0.29084 0.0
C1567 C 0.39895 0.52558 0.30438 0.0
C1568 C 0.34709 0.48597 0.29693 0.0
C1569 C 0.34377 0.47035 0.31735 0.0
C1570 C 0.36903 0.48212 0.33079 0.0
C1571 C 0.39627 0.50915 0.32401 0.0
C1572 C 0.32168 0.47371 0.28159 0.0
C1573 C 0.36701 0.46743 0.3529 0.0
C1574 C 0.25983 0.41747 0.34126 0.0
C1575 C 0.25751 0.3895 0.34078 0.0
C1576 C 0.28778 0.44377 0.33414 0.0
C1577 C 0.31366 0.44237 0.32492 0.0
C1578 C 0.31096 0.41415 0.32353 0.0
C1579 C 0.28325 0.3882 0.33175 0.0
C1580 C 0.28972 0.4731 0.33681 0.0
C1581 C 0.33749 0.4114 0.31345 0.0
H1582 H 0.37601 0.52601 0.27565 0.0
H1583 H 0.41543 0.5178 0.33438 0.0
H1584 H 0.31523 0.45038 0.28031 0.0
H1585 H 0.30009 0.47383 0.28738 0.0
H1586 H 0.32919 0.48672 0.26566 0.0
H1587 H 0.3908 0.47228 0.35808 0.0
H1588 H 0.35697 0.47665 0.36356 0.0
H1589 H 0.35177 0.4431 0.35468 0.0
H1590 H 0.23982 0.41894 0.34732 0.0
H1591 H 0.28156 0.36676 0.33085 0.0
H1592 H 0.2936 0.48655 0.32123 0.0
H1593 H 0.31019 0.48567 0.3461 0.0
H1594 H 0.26799 0.47044 0.34493 0.0
H1595 H 0.34398 0.42393 0.29736 0.0
H1596 H 0.33112 0.38801 0.31241 0.0
H1597 H 0.35869 0.4212 0.32269 0.0
C1598 C 0.49348 0.84942 0.28762 0.0
C1599 C 0.47209 0.85449 0.29878 0.0
C1600 C 0.52369 0.85756 0.29461 0.0
C1601 C 0.53205 0.87006 0.31362 0.0
C1602 C 0.51119 0.87686 0.32425 0.0
C1603 C 0.48176 0.86981 0.31626 0.0
C1604 C 0.54594 0.85127 0.28228 0.0
C1605 C 0.51868 0.88919 0.34493 0.0
C1606 C 0.58882 0.84943 0.34171 0.0
C1607 C 0.61735 0.87585 0.33792 0.0
C1608 C 0.5605 0.84795 0.33524 0.0
C1609 C 0.56108 0.87301 0.32334 0.0
C1610 C 0.58974 0.89989 0.31951 0.0
C1611 C 0.61753 0.90111 0.32717 0.0
C1612 C 0.53018 0.81917 0.34045 0.0
C1613 C 0.59138 0.92677 0.30631 0.0
H1614 H 0.48606 0.83801 0.2739 0.0
H1615 H 0.46558 0.87485 0.32434 0.0
H1616 H 0.57004 0.87057 0.2806 0.0
H1617 H 0.54756 0.83219 0.29084 0.0
H1618 H 0.53788 0.84595 0.26635 0.0
H1619 H 0.50315 0.89849 0.34898 0.0
H1620 H 0.51504 0.8711 0.35759 0.0
H1621 H 0.54365 0.90661 0.34473 0.0
H1622 H 0.58854 0.8296 0.34926 0.0
H1623 H 0.63972 0.92145 0.32387 0.0
H1624 H 0.52146 0.80902 0.3259 0.0
H1625 H 0.51168 0.82328 0.34718 0.0
H1626 H 0.53336 0.80302 0.35186 0.0
H1627 H 0.58584 0.92196 0.28995 0.0
H1628 H 0.61508 0.94648 0.30591 0.0
H1629 H 0.57352 0.93216 0.31241 0.0
C1630 C 0.11771 0.62429 0.32224 0.0
C1631 C 0.13617 0.62696 0.30446 0.0
C1632 C 0.1205 0.64951 0.33022 0.0
C1633 C 0.14248 0.67811 0.32024 0.0
C1634 C 0.16157 0.68083 0.30245 0.0
C1635 C 0.15806 0.65522 0.29473 0.0
C1636 C 0.09963 0.64558 0.34914 0.0
C1637 C 0.1856 0.71081 0.29151 0.0
C1638 C 0.13022 0.74404 0.32771 0.0
C1639 C 0.15104 0.75663 0.34333 0.0
C1640 C 0.12699 0.71837 0.3202 0.0
C1641 C 0.14533 0.70514 0.32828 0.0
C1642 C 0.16655 0.71791 0.34395 0.0
C1643 C 0.16904 0.74334 0.35131 0.0
C1644 C 0.10397 0.70541 0.30358 0.0
C1645 C 0.18701 0.70499 0.35276 0.0
H1646 H 0.10063 0.60239 0.3296 0.0
H1647 H 0.17238 0.65715 0.28103 0.0
H1648 H 0.11433 0.6567 0.36194 0.0
H1649 H 0.08471 0.65617 0.34495 0.0
H1650 H 0.08399 0.62189 0.35522 0.0
H1651 H 0.19889 0.70915 0.27807 0.0
H1652 H 0.17368 0.72376 0.28561 0.0
H1653 H 0.20268 0.72342 0.30283 0.0
H1654 H 0.11628 0.75417 0.32141 0.0
H1655 H 0.18569 0.75318 0.36307 0.0
H1656 H 0.08652 0.68211 0.30932 0.0
H1657 H 0.11671 0.70526 0.28925 0.0
H1658 H 0.09106 0.71799 0.29919 0.0
H1659 H 0.17212 0.68139 0.35926 0.0
H1660 H 0.20156 0.717 0.36535 0.0
H1661 H 0.20304 0.70585 0.33998 0.0
C1662 C 0.84707 0.03483 0.42142 0.0
C1663 C 0.85534 0.06283 0.41048 0.0
C1664 C 0.82467 0.0087 0.41394 0.0
C1665 C 0.80975 0.01049 0.39513 0.0
C1666 C 0.81828 0.03882 0.38395 0.0
C1667 C 0.84103 0.06455 0.39169 0.0
C1668 C 0.8168 0.97913 0.42627 0.0
C1669 C 0.80291 0.04199 0.364 0.0
C1670 C 0.76931 0.94242 0.36611 0.0
C1671 C 0.73746 0.93014 0.37325 0.0
C1672 C 0.79297 0.96837 0.37306 0.0
C1673 C 0.78478 0.98283 0.38742 0.0
C1674 C 0.75262 0.97071 0.39451 0.0
C1675 C 0.7295 0.94452 0.3875 0.0
C1676 C 0.82686 0.98005 0.36524 0.0
C1677 C 0.74259 0.9854 0.40959 0.0
H1678 H 0.85826 0.03346 0.43587 0.0
H1679 H 0.8472 0.08618 0.38331 0.0
H1680 H 0.79148 0.96723 0.43183 0.0
H1681 H 0.82066 0.96521 0.416 0.0
H1682 H 0.83126 0.98139 0.44012 0.0
H1683 H 0.81243 0.06548 0.35697 0.0
H1684 H 0.80651 0.02965 0.35224 0.0
H1685 H 0.77706 0.03224 0.36734 0.0
H1686 H 0.77597 0.93142 0.35533 0.0
H1687 H 0.70506 0.93537 0.39316 0.0
H1688 H 0.8414 0.98047 0.37874 0.0
H1689 H 0.83658 1.00314 0.35735 0.0
H1690 H 0.82936 0.96644 0.354 0.0
H1691 H 0.75443 0.9861 0.42452 0.0
H1692 H 0.71663 0.9737 0.41324 0.0
H1693 H 0.74999 0.00861 0.40283 0.0
C1694 C 0.9677 0.80879 0.42342 0.0
C1695 C 0.96562 0.83497 0.42174 0.0
C1696 C 0.99466 0.80862 0.41558 0.0
C1697 C 0.01854 0.83449 0.40346 0.0
C1698 C 0.01668 0.86112 0.40182 0.0
C1699 C 0.99119 0.86129 0.41213 0.0
C1700 C 0.99667 0.7803 0.42008 0.0
C1701 C 0.04079 0.88949 0.38895 0.0
C1702 C 0.09922 0.84331 0.38954 0.0
C1703 C 0.09202 0.82374 0.37461 0.0
C1704 C 0.07574 0.84717 0.39918 0.0
C1705 C 0.04467 0.83314 0.39226 0.0
C1706 C 0.03809 0.81557 0.37564 0.0
C1707 C 0.06131 0.80943 0.36815 0.0
C1708 C 0.08463 0.86518 0.41732 0.0
C1709 C 0.00644 0.80218 0.36607 0.0
H1710 H 0.94805 0.78809 0.43028 0.0
H1711 H 0.99055 0.88191 0.41173 0.0
H1712 H 0.98239 0.76487 0.409 0.0
H1713 H 0.02128 0.78406 0.41871 0.0
H1714 H 0.98647 0.76914 0.43621 0.0
H1715 H 0.02915 0.90175 0.38112 0.0
H1716 H 0.05767 0.90396 0.39959 0.0
H1717 H 0.05418 0.88573 0.37669 0.0
H1718 H 0.12278 0.85367 0.39513 0.0
H1719 H 0.05506 0.79284 0.3577 0.0
H1720 H 0.06407 0.86036 0.42786 0.0
H1721 H 0.09675 0.88905 0.41096 0.0
H1722 H 0.10169 0.8611 0.42694 0.0
H1723 H 0.99285 0.77834 0.37229 0.0
H1724 H 0.00979 0.80361 0.34876 0.0
H1725 H 0.99234 0.81323 0.36923 0.0
C1726 C 0.19549 0.15492 0.43429 0.0
C1727 C 0.21531 0.14852 0.4225 0.0
C1728 C 0.19299 0.18077 0.4286 0.0
C1729 C 0.21031 0.20048 0.4104 0.0
C1730 C 0.23096 0.19437 0.39872 0.0
C1731 C 0.23322 0.16849 0.40494 0.0
C1732 C 0.17071 0.18628 0.44155 0.0
C1733 C 0.2497 0.21455 0.37915 0.0
C1734 C 0.17533 0.24546 0.38108 0.0
C1735 C 0.19415 0.27386 0.38666 0.0
C1736 C 0.18045 0.22161 0.38863 0.0
C1737 C 0.20468 0.22589 0.40252 0.0
C1738 C 0.22331 0.25432 0.40869 0.0
C1739 C 0.21787 0.27797 0.40067 0.0
C1740 C 0.15994 0.19181 0.38156 0.0
C1741 C 0.24911 0.25975 0.42364 0.0
H1742 H 0.18088 0.139 0.44743 0.0
H1743 H 0.24839 0.16336 0.39579 0.0
H1744 H 0.18267 0.20926 0.44543 0.0
H1745 H 0.15029 0.1837 0.43231 0.0
H1746 H 0.16167 0.17072 0.45643 0.0
H1747 H 0.26629 0.20784 0.37267 0.0
H1748 H 0.23333 0.2143 0.3669 0.0
H1749 H 0.26336 0.23767 0.38258 0.0
H1750 H 0.15632 0.2417 0.37079 0.0
H1751 H 0.23242 0.29974 0.4052 0.0
H1752 H 0.14745 0.17497 0.39541 0.0
H1753 H 0.17487 0.18464 0.37343 0.0
H1754 H 0.14211 0.19216 0.37071 0.0
H1755 H 0.23919 0.24446 0.43855 0.0
H1756 H 0.261 0.28287 0.42733 0.0
H1757 H 0.26708 0.25512 0.41671 0.0
C1758 C 0.6379 0.49408 0.73795 0.0
C1759 C 0.61533 0.49533 0.7511 0.0
C1760 C 0.66648 0.51941 0.73045 0.0
C1761 C 0.67533 0.54652 0.73839 0.0
C1762 C 0.65422 0.54712 0.75363 0.0
C1763 C 0.62416 0.52217 0.75897 0.0
C1764 C 0.68644 0.51658 0.71366 0.0
C1765 C 0.66265 0.57386 0.76461 0.0
C1766 C 0.76383 0.60167 0.7259 0.0
C1767 C 0.76298 0.62605 0.7145 0.0
C1768 C 0.73585 0.57626 0.73447 0.0
C1769 C 0.70581 0.57408 0.73029 0.0
C1770 C 0.70511 0.5985 0.71801 0.0
C1771 C 0.73355 0.62462 0.71147 0.0
C1772 C 0.73933 0.55252 0.74842 0.0
C1773 C 0.67456 0.59759 0.7116 0.0
H1774 H 0.63282 0.47327 0.73276 0.0
H1775 H 0.60775 0.52425 0.76908 0.0
H1776 H 0.70238 0.53803 0.70411 0.0
H1777 H 0.70085 0.50705 0.72121 0.0
H1778 H 0.67123 0.50111 0.70283 0.0
H1779 H 0.65635 0.56681 0.78175 0.0
H1780 H 0.68807 0.59041 0.76242 0.0
H1781 H 0.64835 0.58448 0.75878 0.0
H1782 H 0.78653 0.60309 0.72923 0.0
H1783 H 0.73272 0.64383 0.70339 0.0
H1784 H 0.74642 0.54024 0.7385 0.0
H1785 H 0.71745 0.53667 0.7581 0.0
H1786 H 0.75858 0.56274 0.75917 0.0
H1787 H 0.67806 0.61148 0.69624 0.0
H1788 H 0.66637 0.60688 0.72339 0.0
H1789 H 0.65576 0.57477 0.71033 0.0
C1790 C 0.51125 0.18356 0.76411 0.0
C1791 C 0.53043 0.17304 0.75624 0.0
C1792 C 0.4821 0.17694 0.75577 0.0
C1793 C 0.47333 0.16157 0.738 0.0
C1794 C 0.493 0.15153 0.72963 0.0
C1795 C 0.52064 0.15627 0.73947 0.0
C1796 C 0.46088 0.18662 0.76585 0.0
C1797 C 0.48544 0.13675 0.70992 0.0
C1798 C 0.38831 0.12858 0.72302 0.0
C1799 C 0.38877 0.15276 0.71036 0.0
C1800 C 0.41572 0.13098 0.73219 0.0
C1801 C 0.44451 0.15762 0.72749 0.0
C1802 C 0.44546 0.1814 0.71367 0.0
C1803 C 0.41734 0.17911 0.70612 0.0
C1804 C 0.41341 0.10586 0.74796 0.0
C1805 C 0.47597 0.20963 0.70729 0.0
H1806 H 0.51906 0.197 0.77677 0.0
H1807 H 0.53517 0.14755 0.73371 0.0
H1808 H 0.46094 0.20542 0.75558 0.0
H1809 H 0.43615 0.16834 0.76785 0.0
H1810 H 0.46863 0.19371 0.78147 0.0
H1811 H 0.50374 0.131 0.70516 0.0
H1812 H 0.46233 0.11627 0.71227 0.0
H1813 H 0.48348 0.1517 0.69679 0.0
H1814 H 0.36611 0.10837 0.72677 0.0
H1815 H 0.41782 0.19836 0.69731 0.0
H1816 H 0.41872 0.11337 0.76369 0.0
H1817 H 0.4311 0.09916 0.74372 0.0
H1818 H 0.38957 0.08619 0.74917 0.0
H1819 H 0.485 0.22165 0.72105 0.0
H1820 H 0.47297 0.22464 0.69471 0.0
H1821 H 0.4942 0.20439 0.7016 0.0
C1822 C 0.84526 0.35439 0.75726 0.0
C1823 C 0.86752 0.38201 0.74681 0.0
C1824 C 0.83954 0.32798 0.74974 0.0
C1825 C 0.85681 0.32921 0.73143 0.0
C1826 C 0.87909 0.35718 0.7207 0.0
C1827 C 0.88405 0.38323 0.72847 0.0
C1828 C 0.81524 0.29875 0.7615 0.0
C1829 C 0.89815 0.35954 0.70124 0.0
C1830 C 0.86515 0.26096 0.72475 0.0
C1831 C 0.84295 0.24793 0.70993 0.0
C1832 C 0.87011 0.28751 0.73169 0.0
C1833 C 0.85215 0.30126 0.72385 0.0
C1834 C 0.8296 0.28811 0.70895 0.0
C1835 C 0.82537 0.26175 0.70213 0.0
C1836 C 0.89455 0.30083 0.74746 0.0
C1837 C 0.80952 0.30161 0.70044 0.0
H1838 H 0.83243 0.35358 0.77139 0.0
H1839 H 0.90143 0.40463 0.72054 0.0
H1840 H 0.79711 0.28602 0.75077 0.0
H1841 H 0.82665 0.28529 0.76729 0.0
H1842 H 0.80327 0.30159 0.77514 0.0
H1843 H 0.914 0.38289 0.69445 0.0
H1844 H 0.91273 0.34851 0.70511 0.0
H1845 H 0.88217 0.34797 0.68909 0.0
H1846 H 0.87882 0.25048 0.7309 0.0
H1847 H 0.80775 0.25164 0.69096 0.0
H1848 H 0.88313 0.30207 0.76204 0.0
H1849 H 0.91223 0.32377 0.74103 0.0
H1850 H 0.90706 0.28783 0.75166 0.0
H1851 H 0.7945 0.30172 0.71347 0.0
H1852 H 0.79398 0.28935 0.6883 0.0
H1853 H 0.82474 0.32495 0.69344 0.0
C1854 C 0.16219 0.99057 0.62894 0.0
C1855 C 0.15642 0.9632 0.63982 0.0
C1856 C 0.1843 0.01749 0.63566 0.0
C1857 C 0.20154 0.01717 0.65358 0.0
C1858 C 0.19564 0.98945 0.66463 0.0
C1859 C 0.17306 0.96291 0.65771 0.0
C1860 C 0.18927 0.0463 0.62354 0.0
C1861 C 0.21358 0.98784 0.68359 0.0
C1862 C 0.28045 0.08635 0.65875 0.0
C1863 C 0.27243 0.09974 0.67377 0.0
C1864 C 0.25778 0.05956 0.65217 0.0
C1865 C 0.22602 0.04573 0.66056 0.0
C1866 C 0.21775 0.05928 0.67561 0.0
C1867 C 0.24094 0.08593 0.68202 0.0
C1868 C 0.26789 0.04599 0.63623 0.0
C1869 C 0.18426 0.04578 0.68484 0.0
H1870 H 0.14925 0.99083 0.61516 0.0
H1871 H 0.16881 0.94178 0.66603 0.0
H1872 H 0.1852 0.05965 0.63423 0.0
H1873 H 0.21406 0.05943 0.61693 0.0
H1874 H 0.17331 0.04285 0.61043 0.0
H1875 H 0.20619 0.96467 0.69054 0.0
H1876 H 0.23926 0.99913 0.6791 0.0
H1877 H 0.20993 0.99955 0.69582 0.0
H1878 H 0.3046 0.09671 0.65219 0.0
H1879 H 0.23416 0.09624 0.69329 0.0
H1880 H 0.2543 0.04415 0.62201 0.0
H1881 H 0.26268 0.02326 0.64285 0.0
H1882 H 0.29349 0.05916 0.63141 0.0
H1883 H 0.16812 0.04398 0.67208 0.0
H1884 H 0.1816 0.05897 0.69636 0.0
H1885 H 0.17661 0.02305 0.69283 0.0
C1886 C 0.03085 0.17501 0.66529 0.0
C1887 C 0.03023 0.16806 0.64476 0.0
C1888 C 0.0044 0.1741 0.67503 0.0
C1889 C 0.97744 0.16769 0.66349 0.0
C1890 C 0.97606 0.15916 0.64317 0.0
C1891 C 1.00231 0.15874 0.63427 0.0
C1892 C 0.0059 0.18158 0.6972 0.0
C1893 C 0.94784 0.15262 0.63022 0.0
C1894 C 0.89918 0.15528 0.6861 0.0
C1895 C 0.90218 0.18367 0.68176 0.0
C1896 C 0.92433 0.15006 0.68174 0.0
C1897 C 0.95245 0.17347 0.67146 0.0
C1898 C 0.9559 0.20234 0.6673 0.0
C1899 C 0.93086 0.20716 0.67287 0.0
C1900 C 0.92011 0.11921 0.6873 0.0
C1901 C 0.98529 0.22778 0.65582 0.0
H1902 H 0.05253 0.18265 0.67335 0.0
H1903 H 1.0017 0.15269 0.61863 0.0
H1904 H 0.00726 0.20357 0.69699 0.0
H1905 H 0.98416 0.16515 0.70681 0.0
H1906 H 0.02673 0.18206 0.70495 0.0
H1907 H 0.95018 0.14546 0.61497 0.0
H1908 H 0.92595 0.13507 0.63904 0.0
H1909 H 0.94505 0.17275 0.62698 0.0
H1910 H 0.87703 0.13682 0.69234 0.0
H1911 H 0.9331 0.22906 0.66924 0.0
H1912 H 0.94196 0.11993 0.69343 0.0
H1913 H 0.91495 0.10794 0.67303 0.0
H1914 H 0.90022 0.10564 0.69927 0.0
H1915 H 0.0064 0.23116 0.6645 0.0
H1916 H 0.98415 0.24882 0.65381 0.0
H1917 H 0.98864 0.22256 0.64003 0.0
C1918 C 0.77051 0.83839 0.64878 0.0
C1919 C 0.78816 0.85895 0.63137 0.0
C1920 C 0.77552 0.81423 0.65577 0.0
C1921 C 0.79888 0.81052 0.64512 0.0
C1922 C 0.81591 0.83068 0.627 0.0
C1923 C 0.81042 0.8547 0.62042 0.0
C1924 C 0.75677 0.7934 0.67511 0.0
C1925 C 0.841 0.82769 0.61513 0.0
C1926 C 0.83738 0.77022 0.67675 0.0
C1927 C 0.82164 0.7418 0.67064 0.0
C1928 C 0.8302 0.79263 0.6686 0.0
C1929 C 0.80685 0.78678 0.65373 0.0
C1930 C 0.7911 0.75826 0.64729 0.0
C1931 C 0.79866 0.73617 0.6558 0.0
C1932 C 0.84767 0.82264 0.67596 0.0
C1933 C 0.76613 0.75103 0.63147 0.0
H1934 H 0.75352 0.84193 0.65734 0.0
H1935 H 0.82469 0.87106 0.60736 0.0
H1936 H 0.74564 0.77015 0.6718 0.0
H1937 H 0.7728 0.79541 0.68797 0.0
H1938 H 0.73802 0.79805 0.68072 0.0
H1939 H 0.85009 0.84347 0.60035 0.0
H1940 H 0.86105 0.83187 0.62519 0.0
H1941 H 0.83152 0.80486 0.61119 0.0
H1942 H 0.85559 0.77513 0.68787 0.0
H1943 H 0.78637 0.7144 0.65085 0.0
H1944 H 0.83065 0.82823 0.68317 0.0
H1945 H 0.86036 0.83986 0.66233 0.0
H1946 H 0.86503 0.82361 0.68767 0.0
H1947 H 0.74655 0.75416 0.63753 0.0
H1948 H 0.75627 0.72795 0.6279 0.0
H1949 H 0.77623 0.76639 0.61661 0.0
C1950 C 0.06438 0.8453 0.65743 0.0
C1951 C 0.0672 0.86093 0.63741 0.0
C1952 C 0.03648 0.81921 0.66494 0.0
C1953 C 0.01075 0.80749 0.65188 0.0
C1954 C 0.014 0.82243 0.63123 0.0
C1955 C 0.04186 0.84914 0.62441 0.0
C1956 C 0.0342 0.80522 0.68732 0.0
C1957 C 0.98789 0.81034 0.61636 0.0
C1958 C 0.95029 0.72534 0.66529 0.0
C1959 C 0.92407 0.72621 0.67396 0.0
C1960 C 0.97829 0.75144 0.65792 0.0
C1961 C 0.98078 0.77946 0.65967 0.0
C1962 C 0.95459 0.7805 0.66883 0.0
C1963 C 0.92636 0.75399 0.67526 0.0
C1964 C 0.00521 0.74902 0.64806 0.0
C1965 C 0.95639 0.80962 0.67194 0.0
H1966 H 0.08395 0.85392 0.66749 0.0
H1967 H 0.04341 0.86118 0.6091 0.0
H1968 H 0.02057 0.81197 0.69721 0.0
H1969 H 0.02168 0.78071 0.68876 0.0
H1970 H 0.05784 0.81259 0.69369 0.0
H1971 H 0.99485 0.82329 0.60039 0.0
H1972 H 0.98116 0.78697 0.615 0.0
H1973 H 0.96664 0.81061 0.62265 0.0
H1974 H 0.94868 0.70405 0.66388 0.0
H1975 H 0.90607 0.75513 0.68123 0.0
H1976 H 0.02622 0.75886 0.65748 0.0
H1977 H 0.01193 0.76168 0.63202 0.0
H1978 H 0.99915 0.72572 0.64697 0.0
H1979 H 0.97694 0.82212 0.68119 0.0
H1980 H 0.93468 0.80665 0.68028 0.0
H1981 H 0.96003 0.82329 0.65649 0.0
C1982 C 0.14992 0.2017 0.65491 0.0
C1983 C 0.1404 0.19137 0.63557 0.0
C1984 C 0.17878 0.20582 0.66239 0.0
C1985 C 0.19897 0.20032 0.64987 0.0
C1986 C 0.19014 0.19129 0.6298 0.0
C1987 C 0.16063 0.18657 0.62296 0.0
C1988 C 0.1869 0.21471 0.68408 0.0
C1989 C 0.2115 0.18595 0.61579 0.0
C1990 C 0.285 0.23216 0.66224 0.0
C1991 C 0.28582 0.20694 0.67203 0.0
C1992 C 0.2568 0.23042 0.65503 0.0
C1993 C 0.22875 0.2029 0.65812 0.0
C1994 C 0.22924 0.1776 0.66873 0.0
C1995 C 0.25796 0.1798 0.67505 0.0
C1996 C 0.2572 0.25774 0.64346 0.0
C1997 C 0.19963 0.14805 0.673 0.0
H1998 H 0.13434 0.20598 0.66436 0.0
H1999 H 0.15303 0.17845 0.60807 0.0
H2000 H 0.18587 0.19574 0.69472 0.0
H2001 H 0.21127 0.23331 0.68377 0.0
H2002 H 0.17032 0.22125 0.69079 0.0
H2003 H 0.20234 0.1815 0.59997 0.0
H2004 H 0.23547 0.20544 0.61386 0.0
H2005 H 0.21394 0.16673 0.62319 0.0
H2006 H 0.30671 0.25306 0.65957 0.0
H2007 H 0.25859 0.16007 0.682 0.0
H2008 H 0.24006 0.26254 0.65137 0.0
H2009 H 0.24982 0.25387 0.62723 0.0
H2010 H 0.28094 0.27751 0.64257 0.0
H2011 H 0.18088 0.15052 0.6811 0.0
H2012 H 0.20373 0.13121 0.68288 0.0
H2013 H 0.19066 0.13972 0.65791 0.0
C2014 C 0.81749 0.98419 0.63116 0.0
C2015 C 0.79415 0.95574 0.6394 0.0
C2016 C 0.81989 0.00936 0.639 0.0
C2017 C 0.79824 1.00596 0.6554 0.0
C2018 C 0.77485 0.97709 0.66394 0.0
C2019 C 0.77319 0.95232 0.65588 0.0
C2020 C 0.84543 0.03961 0.62959 0.0
C2021 C 0.75128 0.97241 0.68137 0.0
C2022 C 0.82085 0.06965 0.68759 0.0
C2023 C 0.80485 0.08415 0.67805 0.0
C2024 C 0.81873 0.04417 0.68052 0.0
C2025 C 0.79999 0.0326 0.6635 0.0
C2026 C 0.78343 0.04687 0.65396 0.0
C2027 C 0.78618 0.07252 0.66126 0.0
C2028 C 0.83713 0.03002 0.69102 0.0
C2029 C 0.76303 0.0352 0.63586 0.0
H2030 H 0.83371 0.98663 0.61846 0.0
H2031 H 0.75513 0.93022 0.66213 0.0
H2032 H 0.8346 0.05297 0.62244 0.0
H2033 H 0.86028 0.05148 0.64209 0.0
H2034 H 0.86089 0.03844 0.61733 0.0
H2035 H 0.7348 0.94859 0.68645 0.0
H2036 H 0.7638 0.98252 0.69517 0.0
H2037 H 0.73728 0.98356 0.67603 0.0
H2038 H 0.83576 0.07858 0.70034 0.0
H2039 H 0.77376 0.08351 0.65374 0.0
H2040 H 0.85474 0.03092 0.67944 0.0
H2041 H 0.82106 1.00635 0.69675 0.0
H2042 H 0.84975 0.04114 0.70452 0.0
H2043 H 0.77773 0.03575 0.62234 0.0
H2044 H 0.75089 0.04822 0.63059 0.0
H2045 H 0.74495 0.01177 0.64052 0.0
C2046 C 0.49921 0.39938 0.72817 0.0
C2047 C 0.51955 0.39893 0.74368 0.0
C2048 C 0.47725 0.37315 0.72057 0.0
C2049 C 0.47497 0.34557 0.72902 0.0
C2050 C 0.49529 0.34505 0.74491 0.0
C2051 C 0.51732 0.37168 0.75196 0.0
C2052 C 0.45631 0.37493 0.70359 0.0
C2053 C 0.49351 0.31629 0.75465 0.0
C2054 C 0.39777 0.27466 0.72431 0.0
C2055 C 0.40555 0.26335 0.7077 0.0
C2056 C 0.42002 0.30119 0.73137 0.0
C2057 C 0.45097 0.31725 0.72156 0.0
C2058 C 0.45898 0.30599 0.70479 0.0
C2059 C 0.43641 0.27917 0.69826 0.0
C2060 C 0.41043 0.31193 0.74951 0.0
C2061 C 0.49151 0.32226 0.69373 0.0
H2062 H 0.50025 0.42028 0.72218 0.0
H2063 H 0.5328 0.3713 0.76412 0.0
H2064 H 0.45903 0.36483 0.68995 0.0
H2065 H 0.4312 0.36218 0.70958 0.0
H2066 H 0.4618 0.3981 0.69806 0.0
H2067 H 0.51096 0.31959 0.76677 0.0
H2068 H 0.46949 0.30118 0.76206 0.0
H2069 H 0.4978 0.3051 0.74231 0.0
H2070 H 0.37425 0.26267 0.73198 0.0
H2071 H 0.44316 0.2705 0.68582 0.0
H2072 H 0.41319 0.33431 0.74452 0.0
H2073 H 0.42611 0.31382 0.76258 0.0
H2074 H 0.38558 0.29691 0.75555 0.0
H2075 H 0.49697 0.34516 0.68741 0.0
H2076 H 0.49379 0.31113 0.68056 0.0
H2077 H 0.50947 0.32393 0.70508 0.0
C2078 C 0.65903 0.2043 0.74928 0.0
C2079 C 0.6351 0.18032 0.76228 0.0
C2080 C 0.68221 0.20114 0.73838 0.0
C2081 C 0.68343 0.17422 0.74234 0.0
C2082 C 0.66161 0.15124 0.75757 0.0
C2083 C 0.63686 0.15404 0.76651 0.0
C2084 C 0.70463 0.2266 0.72241 0.0
C2085 C 0.6635 0.12321 0.76425 0.0
C2086 C 0.71781 0.14117 0.7071 0.0
C2087 C 0.74971 0.15568 0.71115 0.0
C2088 C 0.69657 0.14915 0.71554 0.0
C2089 C 0.70682 0.16961 0.73043 0.0
C2090 C 0.73909 0.18387 0.73491 0.0
C2091 C 0.76014 0.17741 0.72466 0.0
C2092 C 0.66311 0.13481 0.70878 0.0
C2093 C 0.75192 0.20513 0.75102 0.0
H2094 H 0.65871 0.22516 0.74681 0.0
H2095 H 0.61835 0.13517 0.77626 0.0
H2096 H 0.72491 0.24226 0.73053 0.0
H2097 H 0.71378 0.21924 0.70979 0.0
H2098 H 0.6929 0.23902 0.71498 0.0
H2099 H 0.65542 0.11496 0.7811 0.0
H2100 H 0.64751 0.10574 0.75501 0.0
H2101 H 0.6878 0.12643 0.76198 0.0
H2102 H 0.70917 0.12309 0.6978 0.0
H2103 H 0.78453 0.18779 0.72865 0.0
H2104 H 0.65099 0.14794 0.71112 0.0
H2105 H 0.64951 0.11247 0.71787 0.0
H2106 H 0.66283 0.13183 0.69189 0.0
H2107 H 0.76422 0.2281 0.74272 0.0
H2108 H 0.7698 0.20163 0.76007 0.0
H2109 H 0.73342 0.20307 0.76236 0.0
C2110 C 0.86439 0.48948 0.76779 0.0
C2111 C 0.88206 0.48216 0.7547 0.0
C2112 C 0.86131 0.51509 0.76228 0.0
C2113 C 0.87629 0.53382 0.7432 0.0
C2114 C 0.89539 0.52714 0.73046 0.0
C2115 C 0.89808 0.50147 0.7364 0.0
C2116 C 0.84081 0.52135 0.77637 0.0
C2117 C 0.91191 0.54643 0.71006 0.0
C2118 C 0.83943 0.57768 0.71475 0.0
C2119 C 0.8594 0.60657 0.71904 0.0
C2120 C 0.84445 0.55392 0.72273 0.0
C2121 C 0.86995 0.55889 0.7356 0.0
C2122 C 0.88976 0.58785 0.74049 0.0
C2123 C 0.88425 0.61134 0.73217 0.0
C2124 C 0.82265 0.52351 0.71706 0.0
C2125 C 0.91712 0.59411 0.7542 0.0
H2126 H 0.85192 0.47446 0.7819 0.0
H2127 H 0.9121 0.49596 0.72646 0.0
H2128 H 0.85355 0.54462 0.77963 0.0
H2129 H 0.81934 0.51842 0.76829 0.0
H2130 H 0.8334 0.50644 0.79157 0.0
H2131 H 0.92762 0.53939 0.70272 0.0
H2132 H 0.89411 0.54555 0.69878 0.0
H2133 H 0.92618 0.56982 0.71277 0.0
H2134 H 0.8197 0.57351 0.70506 0.0
H2135 H 0.89973 0.63351 0.7357 0.0
H2136 H 0.81195 0.50748 0.73156 0.0
H2137 H 0.8363 0.51578 0.70811 0.0
H2138 H 0.80338 0.52318 0.70739 0.0
H2139 H 0.90874 0.57935 0.76942 0.0
H2140 H 0.92937 0.61746 0.75739 0.0
H2141 H 0.93445 0.58941 0.74643 0.0
C2142 C 0.46273 0.89814 0.25885 0.0
C2143 C 0.45154 0.86832 0.25685 0.0
C2144 C 0.47802 0.92018 0.24168 0.0
C2145 C 0.48247 0.91204 0.22215 0.0
C2146 C 0.47274 0.88194 0.22046 0.0
C2147 C 0.45699 0.86031 0.23786 0.0
C2148 C 0.48761 0.95189 0.24411 0.0
C2149 C 0.47762 0.87246 0.20004 0.0
C2150 C 0.48427 0.96151 0.17299 0.0
C2151 C 0.51676 0.97899 0.16795 0.0
C2152 C 0.47287 0.93955 0.19054 0.0
C2153 C 0.49449 0.93463 0.20313 0.0
C2154 C 0.52734 0.95191 0.19792 0.0
C2155 C 0.53812 0.97414 0.18047 0.0
C2156 C 0.43767 0.92193 0.19578 0.0
C2157 C 0.55103 0.9469 0.21075 0.0
H2158 H 0.45798 0.90393 0.27363 0.0
H2159 H 0.44806 0.83708 0.23653 0.0
H2160 H 0.51261 0.96659 0.23838 0.0
H2161 H 0.47297 0.95927 0.2344 0.0
H2162 H 0.48467 0.95476 0.26072 0.0
H2163 H 0.47234 0.84895 0.20205 0.0
H2164 H 0.46196 0.87525 0.18834 0.0
H2165 H 0.50231 0.88657 0.19345 0.0
H2166 H 0.46778 0.9654 0.16337 0.0
H2167 H 0.56325 0.98745 0.1764 0.0
H2168 H 0.43203 0.925 0.21177 0.0
H2169 H 0.42961 0.898 0.19591 0.0
H2170 H 0.42406 0.92854 0.18439 0.0
H2171 H 0.54926 0.95106 0.22714 0.0
H2172 H 0.57568 0.96147 0.20414 0.0
H2173 H 0.54575 0.9235 0.21149 0.0
C2174 C 0.12548 0.56766 0.23546 0.0
C2175 C 0.11093 0.55279 0.25533 0.0
C2176 C 0.11062 0.5579 0.21696 0.0
C2177 C 0.08068 0.53224 0.21835 0.0
C2178 C 0.06747 0.51547 0.23834 0.0
C2179 C 0.08268 0.52608 0.25664 0.0
C2180 C 0.12564 0.57665 0.19612 0.0
C2181 C 0.03601 0.48761 0.24056 0.0
C2182 C 0.02255 0.5319 0.17803 0.0
C2183 C 0.02442 0.51409 0.16386 0.0
C2184 C 0.04086 0.53801 0.19564 0.0
C2185 C 0.06132 0.52564 0.19949 0.0
C2186 C 0.06343 0.50768 0.1852 0.0
C2187 C 0.04516 0.50234 0.16743 0.0
C2188 C 0.03829 0.55781 0.21014 0.0
C2189 C 0.08458 0.49376 0.18887 0.0
H2190 H 0.14746 0.58822 0.23454 0.0
H2191 H 0.07138 0.51466 0.272 0.0
H2192 H 0.12467 0.56268 0.18404 0.0
H2193 H 0.11233 0.58842 0.19055 0.0
H2194 H 0.15065 0.59338 0.19735 0.0
H2195 H 0.03166 0.47457 0.2564 0.0
H2196 H 0.01685 0.49354 0.23811 0.0
H2197 H 0.03468 0.47351 0.22847 0.0
H2198 H 0.00681 0.54128 0.17522 0.0
H2199 H 0.0465 0.48837 0.15661 0.0
H2200 H 0.06188 0.57702 0.21131 0.0
H2201 H 0.02988 0.54551 0.2262 0.0
H2202 H 0.02182 0.56619 0.20469 0.0
H2203 H 0.10935 0.51112 0.18978 0.0
H2204 H 0.08376 0.48054 0.17624 0.0
H2205 H 0.07737 0.47913 0.20416 0.0
C2206 C 0.44017 0.52309 0.26405 0.0
C2207 C 0.43927 0.54986 0.26236 0.0
C2208 C 0.44242 0.51105 0.24592 0.0
C2209 C 0.44445 0.52646 0.22564 0.0
C2210 C 0.44141 0.55248 0.22398 0.0
C2211 C 0.43852 0.56363 0.24233 0.0
C2212 C 0.44468 0.48283 0.24851 0.0
C2213 C 0.44365 0.56988 0.20284 0.0
C2214 C 0.49606 0.52076 0.1834 0.0
C2215 C 0.4738 0.50183 0.17069 0.0
C2216 C 0.48671 0.52911 0.20104 0.0
C2217 C 0.45415 0.51787 0.2065 0.0
C2218 C 0.43146 0.49895 0.19357 0.0
C2219 C 0.44158 0.49137 0.1757 0.0
C2220 C 0.51183 0.54992 0.21395 0.0
C2221 C 0.39654 0.48612 0.19893 0.0
H2222 H 0.4408 0.51244 0.27951 0.0
H2223 H 0.43744 0.58415 0.24106 0.0
H2224 H 0.42943 0.46771 0.23754 0.0
H2225 H 0.46935 0.48803 0.24461 0.0
H2226 H 0.4377 0.47114 0.26485 0.0
H2227 H 0.43733 0.58766 0.2041 0.0
H2228 H 0.46818 0.5802 0.1958 0.0
H2229 H 0.42795 0.5551 0.19188 0.0
H2230 H 0.52098 0.52904 0.17952 0.0
H2231 H 0.42428 0.4765 0.16603 0.0
H2232 H 0.50953 0.53874 0.2302 0.0
H2233 H 0.50869 0.56959 0.21504 0.0
H2234 H 0.53609 0.55755 0.20718 0.0
H2235 H 0.39002 0.4717 0.2143 0.0
H2236 H 0.38193 0.47288 0.18683 0.0
H2237 H 0.39063 0.50403 0.20057 0.0
C2238 C 0.92944 0.4858 0.79233 0.0
C2239 C 0.90159 0.45865 0.79487 0.0
C2240 C 0.94574 0.49808 0.80988 0.0
C2241 C 0.93412 0.48254 0.83039 0.0
C2242 C 0.90479 0.45614 0.83303 0.0
C2243 C 0.88876 0.44471 0.81524 0.0
C2244 C 0.97652 0.52662 0.80634 0.0
C2245 C 0.8915 0.43868 0.85449 0.0
C2246 C 0.99556 0.48953 0.86979 0.0
C2247 C 0.99331 0.50819 0.88303 0.0
C2248 C 0.97628 0.48095 0.85278 0.0
C2249 C 0.95442 0.49163 0.84862 0.0
C2250 C 0.95195 0.51045 0.86198 0.0
C2251 C 0.97123 0.51829 0.87916 0.0
C2252 C 0.97933 0.46037 0.83925 0.0
C2253 C 0.92929 0.52263 0.85792 0.0
H2254 H 0.9394 0.49652 0.77658 0.0
H2255 H 0.86698 0.42389 0.81713 0.0
H2256 H 0.97772 0.54165 0.81767 0.0
H2257 H 0.99645 0.52184 0.80898 0.0
H2258 H 0.97974 0.53824 0.79009 0.0
H2259 H 0.86687 0.42063 0.85414 0.0
H2260 H 0.90638 0.4287 0.8604 0.0
H2261 H 0.89194 0.45334 0.86588 0.0
H2262 H 0.01236 0.48142 0.87286 0.0
H2263 H 0.9696 0.53291 0.88927 0.0
H2264 H 0.98655 0.47139 0.82279 0.0
H2265 H 0.95615 0.44025 0.83906 0.0
H2266 H 0.99691 0.45349 0.84489 0.0
H2267 H 0.93503 0.53579 0.84207 0.0
H2268 H 0.93009 0.5369 0.86978 0.0
H2269 H 0.90481 0.50425 0.85806 0.0
C2270 C 0.5793 0.46227 0.81132 0.0
C2271 C 0.5706 0.47281 0.79267 0.0
C2272 C 0.57294 0.46851 0.83107 0.0
C2273 C 0.55737 0.48569 0.83225 0.0
C2274 C 0.55028 0.49783 0.81328 0.0
C2275 C 0.55649 0.49084 0.79386 0.0
C2276 C 0.58066 0.45478 0.85074 0.0
C2277 C 0.53401 0.51648 0.81355 0.0
C2278 C 0.50098 0.47156 0.87922 0.0
C2279 C 0.51866 0.49565 0.89009 0.0
C2280 C 0.51385 0.46739 0.86102 0.0
C2281 C 0.54509 0.48815 0.85311 0.0
C2282 C 0.56339 0.51207 0.86443 0.0
C2283 C 0.54999 0.51548 0.88282 0.0
C2284 C 0.49348 0.44132 0.84977 0.0
C2285 C 0.59659 0.53486 0.85657 0.0
H2286 H 0.58903 0.44737 0.81053 0.0
H2287 H 0.54859 0.498 0.77957 0.0
H2288 H 0.59201 0.47126 0.86179 0.0
H2289 H 0.55849 0.43654 0.85887 0.0
H2290 H 0.59654 0.44563 0.8472 0.0
H2291 H 0.53381 0.52732 0.79757 0.0
H2292 H 0.50923 0.50233 0.81995 0.0
H2293 H 0.54583 0.5338 0.82395 0.0
H2294 H 0.47666 0.45638 0.88469 0.0
H2295 H 0.56355 0.53439 0.89099 0.0
H2296 H 0.5062 0.42888 0.84689 0.0
H2297 H 0.48824 0.44929 0.83421 0.0
H2298 H 0.47076 0.4259 0.85882 0.0
H2299 H 0.61074 0.52391 0.85328 0.0
H2300 H 0.60869 0.5506 0.86802 0.0
H2301 H 0.59596 0.54759 0.84155 0.0
C2302 C 0.582 0.12795 0.81368 0.0
C2303 C 0.60067 0.15777 0.80563 0.0
C2304 C 0.58699 0.11655 0.83334 0.0
C2305 C 0.61207 0.13525 0.8449 0.0
C2306 C 0.63282 0.1648 0.83595 0.0
C2307 C 0.62663 0.17586 0.81638 0.0
C2308 C 0.56429 0.08489 0.84218 0.0
C2309 C 0.66055 0.1851 0.84738 0.0
C2310 C 0.59423 0.10937 0.90337 0.0
C2311 C 0.60664 0.08969 0.90635 0.0
C2312 C 0.59774 0.12611 0.88371 0.0
C2313 C 0.61487 0.1238 0.86676 0.0
C2314 C 0.63013 0.10636 0.87019 0.0
C2315 C 0.62544 0.08917 0.88979 0.0
C2316 C 0.58113 0.14456 0.88068 0.0
C2317 C 0.64973 0.10436 0.85273 0.0
H2318 H 0.56236 0.11403 0.80497 0.0
H2319 H 0.64121 0.19885 0.80987 0.0
H2320 H 0.57734 0.07241 0.8462 0.0
H2321 H 0.55188 0.08443 0.8569 0.0
H2322 H 0.5463 0.07328 0.83099 0.0
H2323 H 0.67825 0.20431 0.83651 0.0
H2324 H 0.6521 0.19366 0.85958 0.0
H2325 H 0.67229 0.17312 0.85545 0.0
H2326 H 0.58072 0.11093 0.91618 0.0
H2327 H 0.63519 0.07411 0.8916 0.0
H2328 H 0.56156 0.13456 0.87014 0.0
H2329 H 0.59764 0.16722 0.87301 0.0
H2330 H 0.57117 0.14615 0.89578 0.0
H2331 H 0.63434 0.09312 0.84024 0.0
H2332 H 0.66232 0.09193 0.85842 0.0
H2333 H 0.66737 0.12688 0.84543 0.0
C2334 C 0.13729 0.25066 0.5973 0.0
C2335 C 0.12557 0.22039 0.5968 0.0
C2336 C 0.15286 0.27118 0.57937 0.0
C2337 C 0.15706 0.26098 0.56069 0.0
C2338 C 0.14739 0.23054 0.56075 0.0
C2339 C 0.13133 0.21052 0.57879 0.0
C2340 C 0.16246 0.30335 0.57993 0.0
C2341 C 0.152 0.21883 0.54133 0.0
C2342 C 0.15525 0.30337 0.50868 0.0
C2343 C 0.18742 0.3205 0.50248 0.0
C2344 C 0.14517 0.28404 0.52763 0.0
C2345 C 0.16781 0.28141 0.54054 0.0
C2346 C 0.20034 0.29836 0.53422 0.0
C2347 C 0.2098 0.31794 0.51532 0.0
C2348 C 0.11025 0.26664 0.53395 0.0
C2349 C 0.22507 0.29569 0.54737 0.0
H2350 H 0.13227 0.25793 0.6113 0.0
H2351 H 0.12176 0.18695 0.57854 0.0
H2352 H 0.18696 0.31773 0.57311 0.0
H2353 H 0.14676 0.30933 0.57023 0.0
H2354 H 0.16085 0.30814 0.59618 0.0
H2355 H 0.1477 0.19567 0.5449 0.0
H2356 H 0.13536 0.21941 0.52956 0.0
H2357 H 0.17629 0.23288 0.53404 0.0
H2358 H 0.13797 0.30555 0.49885 0.0
H2359 H 0.23469 0.331 0.51043 0.0
H2360 H 0.10553 0.27161 0.5495 0.0
H2361 H 0.1024 0.24258 0.53555 0.0
H2362 H 0.09579 0.27168 0.52234 0.0
H2363 H 0.22388 0.30184 0.56319 0.0
H2364 H 0.24935 0.31001 0.54005 0.0
H2365 H 0.22042 0.27239 0.54965 0.0
C2366 C 0.77868 0.87661 0.57586 0.0
C2367 C 0.76159 0.87846 0.59271 0.0
C2368 C 0.76397 0.86616 0.55737 0.0
C2369 C 0.73171 0.85842 0.55549 0.0
C2370 C 0.71415 0.85915 0.5729 0.0
C2371 C 0.72926 0.86886 0.59133 0.0
C2372 C 0.7834 0.86496 0.53947 0.0
C2373 C 0.67992 0.85165 0.57159 0.0
C2374 C 0.70165 0.8687 0.50175 0.0
C2375 C 0.68237 0.83937 0.49828 0.0
C2376 C 0.71856 0.87523 0.52002 0.0
C2377 C 0.71678 0.85186 0.53494 0.0
C2378 C 0.69865 0.82224 0.53087 0.0
C2379 C 0.68128 0.81634 0.51277 0.0
C2380 C 0.73708 0.90708 0.52386 0.0
C2381 C 0.69682 0.79674 0.54597 0.0
H2382 H 0.80386 0.88485 0.5767 0.0
H2383 H 0.71634 0.87092 0.60428 0.0
H2384 H 0.77022 0.84394 0.53273 0.0
H2385 H 0.78833 0.88335 0.52676 0.0
H2386 H 0.80629 0.86697 0.54456 0.0
H2387 H 0.66922 0.85189 0.58684 0.0
H2388 H 0.67801 0.86791 0.55957 0.0
H2389 H 0.66596 0.82948 0.56658 0.0
H2390 H 0.7023 0.88649 0.49064 0.0
H2391 H 0.66648 0.79364 0.51003 0.0
H2392 H 0.76193 0.91279 0.52663 0.0
H2393 H 0.72692 0.91029 0.53823 0.0
H2394 H 0.73693 0.9227 0.51046 0.0
H2395 H 0.72087 0.80098 0.55001 0.0
H2396 H 0.68482 0.77545 0.53939 0.0
H2397 H 0.68362 0.7945 0.56082 0.0
C2398 C 0.09284 0.88525 0.57786 0.0
C2399 C 0.1082 0.88185 0.5957 0.0
C2400 C 0.09453 0.87358 0.55941 0.0
C2401 C 0.11317 0.85923 0.55846 0.0
C2402 C 0.12831 0.85538 0.57666 0.0
C2403 C 0.1254 0.86651 0.59508 0.0
C2404 C 0.07723 0.87751 0.54071 0.0
C2405 C 0.14893 0.84081 0.57638 0.0
C2406 C 0.10558 0.81008 0.51646 0.0
C2407 C 0.13081 0.8293 0.50191 0.0
C2408 C 0.09871 0.81982 0.5344 0.0
C2409 C 0.11804 0.84936 0.53829 0.0
C2410 C 0.14308 0.86907 0.52333 0.0
C2411 C 0.14893 0.85889 0.50523 0.0
C2412 C 0.07124 0.79823 0.54948 0.0
C2413 C 0.1646 0.90061 0.5269 0.0
H2414 H 0.08026 0.89783 0.5782 0.0
H2415 H 0.13801 0.86473 0.6087 0.0
H2416 H 0.0945 0.89323 0.5279 0.0
H2417 H 0.06332 0.85614 0.53454 0.0
H2418 H 0.06104 0.88613 0.5447 0.0
H2419 H 0.1584 0.83881 0.59193 0.0
H2420 H 0.13538 0.8184 0.57164 0.0
H2421 H 0.16907 0.85392 0.56455 0.0
H2422 H 0.09148 0.78717 0.51395 0.0
H2423 H 0.16865 0.87372 0.49417 0.0
H2424 H 0.05588 0.80796 0.55283 0.0
H2425 H 0.08011 0.79353 0.56465 0.0
H2426 H 0.05673 0.77697 0.54325 0.0
H2427 H 0.15058 0.91201 0.52922 0.0
H2428 H 0.1824 0.91339 0.51356 0.0
H2429 H 0.17715 0.90079 0.54144 0.0
C2430 C 0.60817 0.8005 0.12804 0.0
C2431 C 0.57728 0.79495 0.12458 0.0
C2432 C 0.62308 0.81265 0.14592 0.0
C2433 C 0.60692 0.82011 0.16051 0.0
C2434 C 0.57633 0.81618 0.15641 0.0
C2435 C 0.56176 0.80341 0.13853 0.0
C2436 C 0.65565 0.81641 0.14959 0.0
C2437 C 0.5586 0.82447 0.17128 0.0
C2438 C 0.63407 0.81975 0.21625 0.0
C2439 C 0.65635 0.84956 0.21629 0.0
C2440 C 0.61688 0.81004 0.19846 0.0
C2441 C 0.62173 0.83071 0.1804 0.0
C2442 C 0.64296 0.86108 0.18082 0.0
C2443 C 0.66022 0.8701 0.19867 0.0
C2444 C 0.59474 0.77741 0.19862 0.0
C2445 C 0.64834 0.88393 0.16211 0.0
H2446 H 0.62029 0.79443 0.11698 0.0
H2447 H 0.53783 0.79906 0.13581 0.0
H2448 H 0.67221 0.83971 0.15151 0.0
H2449 H 0.65484 0.80245 0.16436 0.0
H2450 H 0.66525 0.81017 0.13648 0.0
H2451 H 0.53671 0.82314 0.16469 0.0
H2452 H 0.55206 0.80936 0.18633 0.0
H2453 H 0.57379 0.84727 0.17495 0.0
H2454 H 0.63115 0.80379 0.22977 0.0
H2455 H 0.67716 0.89324 0.19875 0.0
H2456 H 0.60383 0.76872 0.18689 0.0
H2457 H 0.57109 0.77375 0.19403 0.0
H2458 H 0.59207 0.76448 0.2143 0.0
H2459 H 0.66082 0.88077 0.14895 0.0
H2460 H 0.66267 0.90688 0.16581 0.0
H2461 H 0.62544 0.88123 0.15654 0.0
C2462 C 0.24367 0.83144 0.12512 0.0
C2463 C 0.24659 0.80577 0.12561 0.0
C2464 C 0.23916 0.84105 0.14394 0.0
C2465 C 0.23708 0.82436 0.16371 0.0
C2466 C 0.24241 0.79967 0.16419 0.0
C2467 C 0.24733 0.7909 0.14519 0.0
C2468 C 0.23439 0.8679 0.14258 0.0
C2469 C 0.24024 0.78093 0.18466 0.0
C2470 C 0.23459 0.85395 0.21555 0.0
C2471 C 0.20196 0.84142 0.2202 0.0
C2472 C 0.24651 0.84875 0.19726 0.0
C2473 C 0.22533 0.83021 0.18344 0.0
C2474 C 0.19237 0.8168 0.18855 0.0
C2475 C 0.18118 0.8228 0.20665 0.0
C2476 C 0.28173 0.8638 0.19237 0.0
C2477 C 0.16878 0.79635 0.1747 0.0
H2478 H 0.24281 0.84283 0.11003 0.0
H2479 H 0.24954 0.77101 0.14555 0.0
H2480 H 0.20908 0.86077 0.14619 0.0
H2481 H 0.24812 0.88236 0.15434 0.0
H2482 H 0.24151 0.88099 0.12666 0.0
H2483 H 0.24882 0.76487 0.18265 0.0
H2484 H 0.2541 0.79502 0.19656 0.0
H2485 H 0.21526 0.7684 0.19097 0.0
H2486 H 0.25075 0.86871 0.22578 0.0
H2487 H 0.15595 0.81314 0.21012 0.0
H2488 H 0.28795 0.87901 0.17738 0.0
H2489 H 0.28941 0.8472 0.19019 0.0
H2490 H 0.29512 0.87667 0.20499 0.0
H2491 H 0.17094 0.80857 0.15884 0.0
H2492 H 0.14405 0.78679 0.18126 0.0
H2493 H 0.17376 0.77795 0.1727 0.0
C2494 C 0.29273 0.50644 0.15043 0.0
C2495 C 0.26892 0.49262 0.13684 0.0
C2496 C 0.29428 0.49082 0.16945 0.0
C2497 C 0.27071 0.46105 0.1752 0.0
C2498 C 0.24748 0.44667 0.16097 0.0
C2499 C 0.24718 0.46259 0.14178 0.0
C2500 C 0.32015 0.50658 0.18381 0.0
C2501 C 0.22173 0.41508 0.16656 0.0
C2502 C 0.27732 0.40959 0.21972 0.0
C2503 C 0.25942 0.41125 0.23633 0.0
C2504 C 0.28267 0.42688 0.2001 0.0
C2505 C 0.26876 0.44549 0.19662 0.0
C2506 C 0.2512 0.44781 0.2133 0.0
C2507 C 0.24717 0.43103 0.23303 0.0
C2508 C 0.30238 0.4245 0.18291 0.0
C2509 C 0.2358 0.46731 0.21013 0.0
H2510 H 0.30915 0.52982 0.14661 0.0
H2511 H 0.22878 0.4522 0.13114 0.0
H2512 H 0.31012 0.51128 0.19751 0.0
H2513 H 0.33061 0.49243 0.18997 0.0
H2514 H 0.33924 0.52785 0.17567 0.0
H2515 H 0.20634 0.40678 0.15335 0.0
H2516 H 0.23212 0.40037 0.1711 0.0
H2517 H 0.20682 0.41353 0.18032 0.0
H2518 H 0.28651 0.39409 0.22174 0.0
H2519 H 0.23404 0.43321 0.24577 0.0
H2520 H 0.31981 0.44682 0.17516 0.0
H2521 H 0.28692 0.41252 0.17068 0.0
H2522 H 0.31525 0.4125 0.18899 0.0
H2523 H 0.25383 0.4905 0.20468 0.0
H2524 H 0.22316 0.46687 0.22475 0.0
H2525 H 0.21866 0.45996 0.19772 0.0
C2526 C 0.7991 0.5773 0.9266 0.0
C2527 C 0.79201 0.54764 0.93063 0.0
C2528 C 0.81263 0.59404 0.90709 0.0
C2529 C 0.81912 0.58068 0.89112 0.0
C2530 C 0.81271 0.55079 0.89529 0.0
C2531 C 0.79896 0.53445 0.9151 0.0
C2532 C 0.81893 0.62575 0.90336 0.0
C2533 C 0.81953 0.53594 0.87867 0.0
C2534 C 0.8195 0.61884 0.83699 0.0
C2535 C 0.85169 0.63906 0.83281 0.0
C2536 C 0.80876 0.59826 0.85532 0.0
C2537 C 0.83075 0.59787 0.86984 0.0
C2538 C 0.86343 0.6171 0.86516 0.0
C2539 C 0.87353 0.63758 0.84673 0.0
C2540 C 0.77368 0.57827 0.85978 0.0
C2541 C 0.88759 0.61713 0.88017 0.0
H2542 H 0.79328 0.58708 0.93877 0.0
H2543 H 0.79311 0.51138 0.91839 0.0
H2544 H 0.84401 0.64072 0.89795 0.0
H2545 H 0.80423 0.62828 0.89079 0.0
H2546 H 0.81362 0.63304 0.91774 0.0
H2547 H 0.81587 0.51356 0.88498 0.0
H2548 H 0.80383 0.53379 0.86559 0.0
H2549 H 0.84422 0.54963 0.87197 0.0
H2550 H 0.80248 0.61998 0.82638 0.0
H2551 H 0.89849 0.6528 0.84337 0.0
H2552 H 0.76521 0.58527 0.873 0.0
H2553 H 0.76851 0.55509 0.86465 0.0
H2554 H 0.76008 0.57889 0.84591 0.0
H2555 H 0.88576 0.62662 0.8944 0.0
H2556 H 0.91209 0.63037 0.87297 0.0
H2557 H 0.88304 0.5942 0.8854 0.0
C2558 C 0.46646 0.21718 0.90669 0.0
C2559 C 0.44734 0.22168 0.9206 0.0
C2560 C 0.45501 0.20549 0.88785 0.0
C2561 C 0.424 0.19902 0.88253 0.0
C2562 C 0.40446 0.20308 0.8968 0.0
C2563 C 0.41625 0.21398 0.91575 0.0
C2564 C 0.47638 0.20081 0.87338 0.0
C2565 C 0.37147 0.19694 0.89173 0.0
C2566 C 0.40492 0.19799 0.82462 0.0
C2567 C 0.38737 0.16752 0.82343 0.0
C2568 C 0.41696 0.20856 0.8437 0.0
C2569 C 0.41197 0.18824 0.86202 0.0
C2570 C 0.39459 0.15754 0.86091 0.0
C2571 C 0.38213 0.14762 0.84184 0.0
C2572 C 0.43487 0.24151 0.84429 0.0
C2573 C 0.38904 0.13506 0.87992 0.0
H2574 H 0.49073 0.22391 0.91011 0.0
H2575 H 0.40159 0.21765 0.92651 0.0
H2576 H 0.46417 0.17795 0.86926 0.0
H2577 H 0.4822 0.21617 0.85851 0.0
H2578 H 0.49876 0.20457 0.88056 0.0
H2579 H 0.35927 0.20111 0.90455 0.0
H2580 H 0.37247 0.21115 0.87707 0.0
H2581 H 0.35712 0.17361 0.88891 0.0
H2582 H 0.40956 0.21368 0.8106 0.0
H2583 H 0.36793 0.12406 0.84149 0.0
H2584 H 0.45922 0.24802 0.84898 0.0
H2585 H 0.42327 0.24763 0.85627 0.0
H2586 H 0.43624 0.25443 0.82884 0.0
H2587 H 0.37669 0.11198 0.87617 0.0
H2588 H 0.37464 0.13716 0.89241 0.0
H2589 H 0.41189 0.13924 0.88647 0.0
C2590 C 0.76201 0.22535 0.9101 0.0
C2591 C 0.77532 0.21934 0.92822 0.0
C2592 C 0.76236 0.21328 0.89162 0.0
C2593 C 0.77754 0.19571 0.891 0.0
C2594 C 0.79028 0.18899 0.90955 0.0
C2595 C 0.78877 0.20071 0.92798 0.0
C2596 C 0.74766 0.22038 0.87251 0.0
C2597 C 0.8069 0.1706 0.90966 0.0
C2598 C 0.767 0.14772 0.84768 0.0
C2599 C 0.79422 0.16573 0.83438 0.0
C2600 C 0.76046 0.15763 0.86564 0.0
C2601 C 0.78208 0.18599 0.87074 0.0
C2602 C 0.80916 0.20454 0.85696 0.0
C2603 C 0.81474 0.19427 0.83887 0.0
C2604 C 0.73072 0.13757 0.87936 0.0
C2605 C 0.83304 0.23476 0.86185 0.0
H2606 H 0.75203 0.24015 0.91032 0.0
H2607 H 0.79957 0.19665 0.94193 0.0
H2608 H 0.76656 0.23643 0.86066 0.0
H2609 H 0.73319 0.20018 0.86512 0.0
H2610 H 0.73253 0.23013 0.87647 0.0
H2611 H 0.81437 0.16636 0.92552 0.0
H2612 H 0.7912 0.14905 0.90422 0.0
H2613 H 0.82813 0.18218 0.89855 0.0
H2614 H 0.75113 0.12561 0.84421 0.0
H2615 H 0.83597 0.20805 0.82875 0.0
H2616 H 0.71557 0.14827 0.87971 0.0
H2617 H 0.73661 0.1338 0.89578 0.0
H2618 H 0.71694 0.11579 0.87368 0.0
H2619 H 0.82132 0.24831 0.86387 0.0
H2620 H 0.85235 0.24681 0.84929 0.0
H2621 H 0.84358 0.2325 0.8769 0.0
C2622 C 0.2257 0.13263 0.47718 0.0
C2623 C 0.24153 0.12867 0.46062 0.0
C2624 C 0.24191 0.14592 0.49445 0.0
C2625 C 0.27444 0.15435 0.49548 0.0
C2626 C 0.29058 0.15085 0.4785 0.0
C2627 C 0.27394 0.13829 0.4612 0.0
C2628 C 0.22395 0.14983 0.51196 0.0
C2629 C 0.32505 0.15897 0.47905 0.0
C2630 C 0.32715 0.20536 0.53342 0.0
C2631 C 0.32745 0.18505 0.54984 0.0
C2632 C 0.30894 0.1957 0.51603 0.0
C2633 C 0.29125 0.16501 0.51478 0.0
C2634 C 0.29107 0.14441 0.53153 0.0
C2635 C 0.3089 0.15469 0.54896 0.0
C2636 C 0.30912 0.21834 0.49882 0.0
C2637 C 0.27298 0.11151 0.53068 0.0
H2638 H 0.20043 0.12423 0.47702 0.0
H2639 H 0.28585 0.13463 0.44847 0.0
H2640 H 0.22121 0.1341 0.52614 0.0
H2641 H 0.23721 0.1725 0.51631 0.0
H2642 H 0.2001 0.14584 0.50753 0.0
H2643 H 0.33436 0.15587 0.46426 0.0
H2644 H 0.33937 0.18235 0.48174 0.0
H2645 H 0.32826 0.14504 0.49235 0.0
H2646 H 0.34128 0.22886 0.53419 0.0
H2647 H 0.30929 0.13898 0.56157 0.0
H2648 H 0.28455 0.21316 0.49548 0.0
H2649 H 0.32061 0.2176 0.4841 0.0
H2650 H 0.32188 0.24118 0.50298 0.0
H2651 H 0.24771 0.10456 0.52849 0.0
H2652 H 0.2747 0.09841 0.54517 0.0
H2653 H 0.28225 0.10607 0.51697 0.0
C2654 C 0.88634 0.15783 0.45707 0.0
C2655 C 0.90255 0.14153 0.45675 0.0
C2656 C 0.88052 0.16641 0.47595 0.0
C2657 C 0.89154 0.15881 0.49503 0.0
C2658 C 0.90969 0.14391 0.49445 0.0
C2659 C 0.91449 0.13505 0.47542 0.0
C2660 C 0.86071 0.18183 0.47571 0.0
C2661 C 0.9226 0.13591 0.51416 0.0
C2662 C 0.88926 0.19798 0.54154 0.0
C2663 C 0.86129 0.1767 0.553 0.0
C2664 C 0.9001 0.19209 0.52319 0.0
C2665 C 0.88209 0.16452 0.51567 0.0
C2666 C 0.85411 0.14275 0.52748 0.0
C2667 C 0.84421 0.14902 0.54606 0.0
C2668 C 0.93039 0.2157 0.51152 0.0
C2669 C 0.83385 0.11321 0.52002 0.0
H2670 H 0.87626 0.16198 0.44278 0.0
H2671 H 0.92625 0.12172 0.47527 0.0
H2672 H 0.83792 0.16708 0.48485 0.0
H2673 H 0.87278 0.20218 0.48334 0.0
H2674 H 0.85568 0.1879 0.45948 0.0
H2675 H 0.93966 0.12805 0.51064 0.0
H2676 H 0.9345 0.15524 0.52286 0.0
H2677 H 0.9029 0.1181 0.52469 0.0
H2678 H 0.90234 0.21952 0.54676 0.0
H2679 H 0.82231 0.13273 0.55466 0.0
H2680 H 0.92515 0.22387 0.49603 0.0
H2681 H 0.94623 0.20636 0.50844 0.0
H2682 H 0.94313 0.2348 0.52037 0.0
H2683 H 0.82514 0.11663 0.50445 0.0
H2684 H 0.81321 0.09843 0.53115 0.0
H2685 H 0.84804 0.10191 0.51794 0.0
C2686 C 0.90095 0.76887 0.46118 0.0
C2687 C 0.92119 0.79923 0.4606 0.0
C2688 C 0.89648 0.74916 0.47933 0.0
C2689 C 0.9131 0.76017 0.49722 0.0
C2690 C 0.93628 0.79039 0.49585 0.0
C2691 C 0.93984 0.80976 0.47749 0.0
C2692 C 0.87136 0.71726 0.48005 0.0
C2693 C 0.9552 0.80276 0.51435 0.0
C2694 C 0.86427 0.72141 0.54843 0.0
C2695 C 0.87422 0.70051 0.5547 0.0
C2696 C 0.87759 0.74162 0.5301 0.0
C2697 C 0.90198 0.74132 0.51799 0.0
C2698 C 0.91311 0.72109 0.52478 0.0
C2699 C 0.89873 0.70055 0.54295 0.0
C2700 C 0.86451 0.76238 0.5232 0.0
C2701 C 0.93964 0.7207 0.51262 0.0
H2702 H 0.8866 0.76108 0.44795 0.0
H2703 H 0.95541 0.83332 0.47688 0.0
H2704 H 0.88006 0.70212 0.48719 0.0
H2705 H 0.85053 0.71325 0.49001 0.0
H2706 H 0.86355 0.71154 0.46415 0.0
H2707 H 0.97649 0.82443 0.50945 0.0
H2708 H 0.94034 0.806 0.52584 0.0
H2709 H 0.96267 0.78717 0.5225 0.0
H2710 H 0.84525 0.72125 0.55754 0.0
H2711 H 0.90664 0.68456 0.54803 0.0
H2712 H 0.85332 0.75715 0.50805 0.0
H2713 H 0.8838 0.78559 0.52059 0.0
H2714 H 0.84661 0.76074 0.53492 0.0
H2715 H 0.93138 0.7123 0.49744 0.0
H2716 H 0.94829 0.70643 0.52143 0.0
H2717 H 0.95967 0.74346 0.5089 0.0
loop_
_geom_bond_atom_site_label_1
_geom_bond_atom_site_label_2
_geom_bond_distance
_geom_bond_site_symmetry_2
_ccdc_geom_bond_type
C0 N1 1.317 . S
C0 N2 1.348 . S
C0 C3 1.485 . S
N1 C0 1.317 . S
N1 N5 1.370 . S
N2 C0 1.348 . S
N2 C4 1.346 . S
C3 C0 1.485 . S
C3 H7 0.960 . S
C3 H8 0.961 . S
C3 H9 0.960 . S
C4 N2 1.346 . S
C4 N5 1.307 . S
C4 C6 1.486 . S
N5 N1 1.370 . S
N5 C4 1.307 . S
C6 C4 1.486 . S
C6 H10 0.960 . S
C6 H11 0.960 . S
C6 H12 0.959 . S
H7 C3 0.960 . S
H8 C3 0.961 . S
H9 C3 0.960 . S
H10 C6 0.960 . S
H11 C6 0.960 . S
H12 C6 0.959 . S
C13 N14 1.317 . S
C13 N15 1.348 . S
C13 C16 1.485 . S
N14 C13 1.317 . S
N14 N18 1.370 . S
N15 C13 1.348 . S
N15 C17 1.346 . S
C16 C13 1.485 . S
C16 H20 0.960 . S
C16 H21 0.961 . S
C16 H22 0.960 . S
C17 N15 1.346 . S
C17 N18 1.307 . S
C17 C19 1.486 . S
N18 N14 1.370 . S
N18 C17 1.307 . S
C19 C17 1.486 . S
C19 H23 0.960 . S
C19 H24 0.960 . S
C19 H25 0.959 . S
H20 C16 0.960 . S
H21 C16 0.961 . S
H22 C16 0.960 . S
H23 C19 0.960 . S
H24 C19 0.960 . S
H25 C19 0.959 . S
C26 N27 1.317 . S
C26 N28 1.348 . S
C26 C29 1.485 . S
N27 C26 1.317 . S
N27 N31 1.370 . S
N28 C26 1.348 . S
N28 C30 1.346 . S
C29 C26 1.485 . S
C29 H33 0.960 . S
C29 H34 0.961 . S
C29 H35 0.960 . S
C30 N28 1.346 . S
C30 N31 1.307 . S
C30 C32 1.486 . S
N31 N27 1.370 . S
N31 C30 1.307 . S
C32 C30 1.486 . S
C32 H36 0.960 . S
C32 H37 0.960 . S
C32 H38 0.959 . S
H33 C29 0.960 . S
H34 C29 0.961 . S
H35 C29 0.960 . S
H36 C32 0.960 . S
H37 C32 0.960 . S
H38 C32 0.959 . S
C39 N40 1.317 . S
C39 N41 1.348 . S
C39 C42 1.485 . S
N40 C39 1.317 . S
N40 N44 1.370 . S
N41 C39 1.348 . S
N41 C43 1.346 . S
C42 C39 1.485 . S
C42 H46 0.960 . S
C42 H47 0.961 . S
C42 H48 0.960 . S
C43 N41 1.346 . S
C43 N44 1.307 . S
C43 C45 1.486 . S
N44 N40 1.370 . S
N44 C43 1.307 . S
C45 C43 1.486 . S
C45 H49 0.960 . S
C45 H50 0.960 . S
C45 H51 0.959 . S
H46 C42 0.960 . S
H47 C42 0.961 . S
H48 C42 0.960 . S
H49 C45 0.960 . S
H50 C45 0.960 . S
H51 C45 0.959 . S
C52 N53 1.317 . S
C52 N54 1.348 . S
C52 C55 1.485 . S
N53 C52 1.317 . S
N53 N57 1.370 . S
N54 C52 1.348 . S
N54 C56 1.346 . S
C55 C52 1.485 . S
C55 H59 0.960 . S
C55 H60 0.961 . S
C55 H61 0.960 . S
C56 N54 1.346 . S
C56 N57 1.307 . S
C56 C58 1.486 . S
N57 N53 1.370 . S
N57 C56 1.307 . S
C58 C56 1.486 . S
C58 H62 0.960 . S
C58 H63 0.960 . S
C58 H64 0.959 . S
H59 C55 0.960 . S
H60 C55 0.961 . S
H61 C55 0.960 . S
H62 C58 0.960 . S
H63 C58 0.960 . S
H64 C58 0.959 . S
C65 N66 1.317 . S
C65 N67 1.348 . S
C65 C68 1.485 . S
N66 C65 1.317 . S
N66 N70 1.370 . S
N67 C65 1.348 . S
N67 C69 1.346 . S
C68 C65 1.485 . S
C68 H72 0.960 . S
C68 H73 0.961 . S
C68 H74 0.960 . S
C69 N67 1.346 . S
C69 N70 1.307 . S
C69 C71 1.486 . S
N70 N66 1.370 . S
N70 C69 1.307 . S
C71 C69 1.486 . S
C71 H75 0.960 . S
C71 H76 0.960 . S
C71 H77 0.959 . S
H72 C68 0.960 . S
H73 C68 0.961 . S
H74 C68 0.960 . S
H75 C71 0.960 . S
H76 C71 0.960 . S
H77 C71 0.959 . S
C78 N79 1.317 . S
C78 N80 1.348 . S
C78 C81 1.485 . S
N79 C78 1.317 . S
N79 N83 1.370 . S
N80 C78 1.348 . S
N80 C82 1.346 . S
C81 C78 1.485 . S
C81 H85 0.960 . S
C81 H86 0.961 . S
C81 H87 0.960 . S
C82 N80 1.346 . S
C82 N83 1.307 . S
C82 C84 1.486 . S
N83 N79 1.370 . S
N83 C82 1.307 . S
C84 C82 1.486 . S
C84 H88 0.960 . S
C84 H89 0.960 . S
C84 H90 0.959 . S
H85 C81 0.960 . S
H86 C81 0.961 . S
H87 C81 0.960 . S
H88 C84 0.960 . S
H89 C84 0.960 . S
H90 C84 0.959 . S
C91 N92 1.317 . S
C91 N93 1.348 . S
C91 C94 1.485 . S
N92 C91 1.317 . S
N92 N96 1.370 . S
N93 C91 1.348 . S
N93 C95 1.346 . S
C94 C91 1.485 . S
C94 H98 0.960 . S
C94 H99 0.961 . S
C94 H100 0.960 . S
C95 N93 1.346 . S
C95 N96 1.307 . S
C95 C97 1.486 . S
N96 N92 1.370 . S
N96 C95 1.307 . S
C97 C95 1.486 . S
C97 H101 0.960 . S
C97 H102 0.960 . S
C97 H103 0.959 . S
H98 C94 0.960 . S
H99 C94 0.961 . S
H100 C94 0.960 . S
H101 C97 0.960 . S
H102 C97 0.960 . S
H103 C97 0.959 . S
C104 N105 1.317 . S
C104 N106 1.348 . S
C104 C107 1.485 . S
N105 C104 1.317 . S
N105 N109 1.370 . S
N106 C104 1.348 . S
N106 C108 1.346 . S
C107 C104 1.485 . S
C107 H111 0.960 . S
C107 H112 0.961 . S
C107 H113 0.960 . S
C108 N106 1.346 . S
C108 N109 1.307 . S
C108 C110 1.486 . S
N109 N105 1.370 . S
N109 C108 1.307 . S
C110 C108 1.486 . S
C110 H114 0.960 . S
C110 H115 0.960 . S
C110 H116 0.959 . S
H111 C107 0.960 . S
H112 C107 0.961 . S
H113 C107 0.960 . S
H114 C110 0.960 . S
H115 C110 0.960 . S
H116 C110 0.959 . S
C117 N118 1.317 . S
C117 N119 1.348 . S
C117 C120 1.485 . S
N118 C117 1.317 . S
N118 N122 1.370 . S
N119 C117 1.348 . S
N119 C121 1.346 . S
C120 C117 1.485 . S
C120 H124 0.960 . S
C120 H125 0.961 1_556 S
C120 H126 0.960 . S
C121 N119 1.346 . S
C121 N122 1.307 . S
C121 C123 1.486 . S
N122 N118 1.370 . S
N122 C121 1.307 . S
C123 C121 1.486 . S
C123 H127 0.960 . S
C123 H128 0.960 . S
C123 H129 0.959 . S
H124 C120 0.960 . S
H125 C120 0.961 1_554 S
H126 C120 0.960 . S
H127 C123 0.960 . S
H128 C123 0.960 . S
H129 C123 0.959 . S
C130 N131 1.317 . S
C130 N132 1.348 . S
C130 C133 1.457 1_556 S
N131 C130 1.317 . S
N131 N135 1.370 . S
N132 C130 1.348 . S
N132 C134 1.346 . S
C133 C130 1.457 1_554 S
C133 H137 0.981 . S
C133 H138 0.973 . S
C133 H139 0.956 . S
C134 N132 1.346 . S
C134 N135 1.307 . S
C134 C136 1.486 . S
N135 N131 1.370 . S
N135 C134 1.307 . S
C136 C134 1.486 . S
C136 H140 0.960 . S
C136 H141 0.960 . S
C136 H142 0.959 . S
H137 C133 0.981 . S
H138 C133 0.973 . S
H139 C133 0.956 . S
H140 C136 0.960 . S
H141 C136 0.960 . S
H142 C136 0.959 . S
C143 N144 1.317 . S
C143 N145 1.348 . S
C143 C146 1.485 1_556 S
N144 C143 1.317 . S
N144 N148 1.370 . S
N145 C143 1.348 . S
N145 C147 1.346 . S
C146 C143 1.485 1_554 S
C146 H150 0.960 . S
C146 H151 0.961 . S
C146 H152 0.960 . S
C147 N145 1.346 . S
C147 N148 1.307 . S
C147 C149 1.486 . S
N148 N144 1.370 . S
N148 C147 1.307 . S
C149 C147 1.486 . S
C149 H153 0.960 . S
C149 H154 0.960 . S
C149 H155 0.959 . S
H150 C146 0.960 . S
H151 C146 0.961 . S
H152 C146 0.960 . S
H153 C149 0.960 . S
H154 C149 0.960 . S
H155 C149 0.959 . S
C156 N157 1.317 . S
C156 N158 1.348 . S
C156 C159 1.485 . S
N157 C156 1.317 . S
N157 N161 1.370 . S
N158 C156 1.348 . S
N158 C160 1.346 . S
C159 C156 1.485 . S
C159 H163 0.960 . S
C159 H164 0.961 . S
C159 H165 0.960 . S
C160 N158 1.346 . S
C160 N161 1.307 . S
C160 C162 1.486 . S
N161 N157 1.370 . S
N161 C160 1.307 . S
C162 C160 1.486 . S
C162 H166 0.960 . S
C162 H167 0.960 . S
C162 H168 0.959 . S
H163 C159 0.960 . S
H164 C159 0.961 . S
H165 C159 0.960 . S
H166 C162 0.960 . S
H167 C162 0.960 . S
H168 C162 0.959 . S
C169 N170 1.317 . S
C169 N171 1.348 . S
C169 C172 1.485 . S
N170 C169 1.317 . S
N170 N174 1.370 . S
N171 C169 1.348 . S
N171 C173 1.346 . S
C172 C169 1.485 . S
C172 H176 0.960 . S
C172 H177 0.961 . S
C172 H178 0.960 . S
C173 N171 1.346 . S
C173 N174 1.307 . S
C173 C175 1.486 . S
N174 N170 1.370 . S
N174 C173 1.307 . S
C175 C173 1.486 . S
C175 H179 0.960 . S
C175 H180 0.960 . S
C175 H181 0.959 . S
H176 C172 0.960 . S
H177 C172 0.961 . S
H178 C172 0.960 . S
H179 C175 0.960 . S
H180 C175 0.960 . S
H181 C175 0.959 . S
C182 N183 1.317 . S
C182 N184 1.348 . S
C182 C185 1.485 . S
N183 C182 1.317 . S
N183 N187 1.370 . S
N184 C182 1.348 . S
N184 C186 1.346 . S
C185 C182 1.485 . S
C185 H189 0.960 . S
C185 H190 0.961 . S
C185 H191 0.960 . S
C186 N184 1.346 . S
C186 N187 1.307 . S
C186 C188 1.486 . S
N187 N183 1.370 . S
N187 C186 1.307 . S
C188 C186 1.486 . S
C188 H192 0.960 . S
C188 H193 0.960 . S
C188 H194 0.959 . S
H189 C185 0.960 . S
H190 C185 0.961 . S
H191 C185 0.960 . S
H192 C188 0.960 . S
H193 C188 0.960 . S
H194 C188 0.959 . S
C195 N196 1.317 . S
C195 N197 1.348 . S
C195 C198 1.485 . S
N196 C195 1.317 . S
N196 N200 1.370 . S
N197 C195 1.348 . S
N197 C199 1.346 . S
C198 C195 1.485 . S
C198 H202 0.960 . S
C198 H203 0.961 . S
C198 H204 0.960 . S
C199 N197 1.346 . S
C199 N200 1.307 . S
C199 C201 1.486 . S
N200 N196 1.370 . S
N200 C199 1.307 . S
C201 C199 1.486 . S
C201 H205 0.960 . S
C201 H206 0.960 . S
C201 H207 0.959 . S
H202 C198 0.960 . S
H203 C198 0.961 . S
H204 C198 0.960 . S
H205 C201 0.960 . S
H206 C201 0.960 . S
H207 C201 0.959 . S
C208 N209 1.317 . S
C208 N210 1.348 . S
C208 C211 1.485 . S
N209 C208 1.317 . S
N209 N213 1.370 . S
N210 C208 1.348 . S
N210 C212 1.346 . S
C211 C208 1.485 . S
C211 H215 0.960 . S
C211 H216 0.961 . S
C211 H217 0.960 . S
C212 N210 1.346 . S
C212 N213 1.307 . S
C212 C214 1.486 . S
N213 N209 1.370 . S
N213 C212 1.307 . S
C214 C212 1.486 . S
C214 H218 0.960 . S
C214 H219 0.960 . S
C214 H220 0.959 . S
H215 C211 0.960 . S
H216 C211 0.961 . S
H217 C211 0.960 . S
H218 C214 0.960 . S
H219 C214 0.960 . S
H220 C214 0.959 . S
C221 N222 1.317 . S
C221 N223 1.348 . S
C221 C224 1.485 . S
N222 C221 1.317 . S
N222 N226 1.370 . S
N223 C221 1.348 . S
N223 C225 1.346 . S
C224 C221 1.485 . S
C224 H228 0.960 . S
C224 H229 0.961 . S
C224 H230 0.960 . S
C225 N223 1.346 . S
C225 N226 1.307 . S
C225 C227 1.486 . S
N226 N222 1.370 . S
N226 C225 1.307 . S
C227 C225 1.486 . S
C227 H231 0.960 . S
C227 H232 0.960 . S
C227 H233 0.959 . S
H228 C224 0.960 . S
H229 C224 0.961 . S
H230 C224 0.960 . S
H231 C227 0.960 . S
H232 C227 0.960 . S
H233 C227 0.959 . S
Tb234 N265 2.660 . S
Tb234 N272 2.600 . S
Tb234 O278 2.546 . S
Tb234 O279 2.610 1_566 S
Tb234 O281 2.320 1_565 S
Tb234 O282 2.552 1_565 S
Tb234 O283 2.413 1_565 S
Tb234 O285 2.362 1_556 S
Tb234 O286 2.421 1_556 S
Tb234 C298 2.833 1_565 S
C235 C238 1.432 . S
C235 C239 1.414 . S
C235 N242 1.359 . S
C236 C238 1.417 . S
C236 C240 1.432 . S
C236 C248 1.410 . S
C237 C239 1.444 . S
C237 C240 1.317 . S
C237 H260 0.929 . S
C238 C235 1.432 . S
C238 C236 1.417 . S
C238 N246 1.360 . S
C239 C235 1.414 . S
C239 C237 1.444 . S
C239 C244 1.385 . S
C240 C236 1.432 . S
C240 C237 1.317 . S
C240 H252 0.930 . S
C241 C243 1.392 . S
C241 C244 1.370 . S
C241 H253 0.931 . S
N242 C235 1.359 . S
N242 C243 1.327 . S
N242 Tb245 2.600 . S
C243 C241 1.392 . S
C243 N242 1.327 . S
C243 H250 0.930 . S
C244 C239 1.385 . S
C244 C241 1.370 . S
C244 H263 0.930 . S
Tb245 N242 2.600 . S
Tb245 N246 2.660 . S
Tb245 O279 2.362 . S
Tb245 O280 2.421 . S
Tb245 O284 2.546 . S
Tb245 O285 2.610 1_545 S
Tb245 O287 2.320 1_545 S
Tb245 O288 2.552 1_545 S
Tb245 O289 2.413 1_545 S
Tb245 C309 2.833 1_545 S
N246 C238 1.360 . S
N246 Tb245 2.660 . S
N246 C247 1.305 . S
C247 N246 1.305 . S
C247 C249 1.407 . S
C247 H254 0.930 . S
C248 C236 1.410 . S
C248 C249 1.345 . S
C248 H256 0.930 . S
C249 C247 1.407 . S
C249 C248 1.345 . S
C249 H251 0.930 . S
H250 C243 0.930 . S
H251 C249 0.930 . S
H252 C240 0.930 . S
H253 C241 0.931 . S
H254 C247 0.930 . S
H255 C269 0.930 . S
H256 C248 0.930 . S
H257 C275 0.930 . S
H258 C266 0.930 1_545 S
H259 C273 0.931 . S
H260 C237 0.929 . S
H261 C267 0.930 . S
H262 C300 0.930 . S
H263 C244 0.930 . S
H264 C299 0.929 . S
N265 Tb234 2.660 . S
N265 C266 1.305 . S
N265 C270 1.360 . S
C266 H258 0.930 1_565 S
C266 N265 1.305 . S
C266 C269 1.407 . S
C267 H261 0.930 . S
C267 C268 1.410 . S
C267 C269 1.345 . S
C268 C267 1.410 . S
C268 C270 1.417 . S
C268 C300 1.432 . S
C269 H255 0.930 . S
C269 C266 1.407 . S
C269 C267 1.345 . S
C270 N265 1.360 . S
C270 C268 1.417 . S
C270 C274 1.432 . S
H271 C276 0.930 . S
N272 Tb234 2.600 . S
N272 C274 1.359 . S
N272 C275 1.327 . S
C273 H259 0.931 . S
C273 C275 1.392 . S
C273 C276 1.370 . S
C274 C270 1.432 . S
C274 N272 1.359 . S
C274 C277 1.414 . S
C275 H257 0.930 . S
C275 N272 1.327 . S
C275 C273 1.392 . S
C276 H271 0.930 . S
C276 C273 1.370 . S
C276 C277 1.385 . S
C277 C274 1.414 . S
C277 C276 1.385 . S
C277 C299 1.444 . S
O278 Tb234 2.546 . S
O278 C298 1.251 1_565 S
O279 Tb234 2.610 1_544 S
O279 Tb245 2.362 . S
O279 C290 1.283 . S
O280 Tb245 2.421 . S
O280 C297 1.262 . S
O281 Tb234 2.320 1_545 S
O281 C297 1.260 1_556 S
O282 Tb234 2.552 1_545 S
O282 C290 1.243 1_556 S
O283 Tb234 2.413 1_545 S
O283 C298 1.256 . S
O284 Tb245 2.546 . S
O284 C309 1.251 1_545 S
O285 Tb234 2.362 1_554 S
O285 Tb245 2.610 1_565 S
O285 C301 1.283 . S
O286 Tb234 2.421 1_554 S
O286 C308 1.262 . S
O287 Tb245 2.320 1_565 S
O287 C308 1.260 . S
O288 Tb245 2.552 1_565 S
O288 C301 1.243 . S
O289 Tb245 2.413 1_565 S
O289 C309 1.256 . S
C290 O279 1.283 . S
C290 O282 1.243 1_554 S
C291 C293 1.382 . S
C291 C295 1.393 . S
C291 C298 1.500 . S
C292 C293 1.400 . S
C292 C294 1.384 . S
C293 C291 1.382 . S
C293 C292 1.400 . S
C293 H310 0.930 . S
C294 C292 1.384 . S
C294 C296 1.392 . S
C294 H311 0.931 . S
C295 C291 1.393 . S
C295 C296 1.401 . S
C295 H312 0.930 1_545 S
C296 C294 1.392 . S
C296 C295 1.401 . S
C296 H313 0.930 . S
C297 O280 1.262 . S
C297 O281 1.260 1_554 S
C298 Tb234 2.833 1_545 S
C298 O278 1.251 1_545 S
C298 O283 1.256 . S
C298 C291 1.500 . S
C299 H264 0.929 . S
C299 C277 1.444 . S
C299 C300 1.317 . S
C300 H262 0.930 . S
C300 C268 1.432 . S
C300 C299 1.317 . S
C301 O285 1.283 . S
C301 O288 1.243 . S
C302 C303 1.382 . S
C302 C306 1.393 . S
C302 C309 1.500 . S
C303 C302 1.382 . S
C303 C304 1.400 . S
C303 H314 0.930 . S
C304 C303 1.400 . S
C304 C305 1.384 . S
C305 C304 1.384 . S
C305 C307 1.392 . S
C305 H315 0.931 . S
C306 C302 1.393 . S
C306 C307 1.401 . S
C306 H316 0.930 1_565 S
C307 C305 1.392 . S
C307 C306 1.401 . S
C307 H317 0.930 . S
C308 O286 1.262 . S
C308 O287 1.260 . S
C309 Tb245 2.833 1_565 S
C309 O284 1.251 1_565 S
C309 O289 1.256 . S
C309 C302 1.500 . S
H310 C293 0.930 . S
H311 C294 0.931 . S
H312 C295 0.930 1_565 S
H313 C296 0.930 . S
H314 C303 0.930 . S
H315 C305 0.931 . S
H316 C306 0.930 1_545 S
H317 C307 0.930 . S
Tb318 N349 2.660 . S
Tb318 N356 2.600 . S
Tb318 O362 2.546 . S
Tb318 O363 2.610 1_456 S
Tb318 O365 2.320 1_455 S
Tb318 O366 2.552 1_455 S
Tb318 O367 2.413 . S
Tb318 O369 2.362 1_556 S
Tb318 O370 2.421 . S
Tb318 C382 2.833 . S
C319 C322 1.432 . S
C319 C323 1.414 . S
C319 N326 1.359 . S
C320 C322 1.417 . S
C320 C324 1.432 . S
C320 C332 1.410 . S
C321 C323 1.444 . S
C321 C324 1.317 . S
C321 H344 0.929 . S
C322 C319 1.432 . S
C322 C320 1.417 . S
C322 N330 1.360 . S
C323 C319 1.414 . S
C323 C321 1.444 . S
C323 C328 1.385 . S
C324 C320 1.432 . S
C324 C321 1.317 . S
C324 H336 0.930 . S
C325 C327 1.392 . S
C325 C328 1.370 . S
C325 H337 0.931 . S
N326 C319 1.359 . S
N326 C327 1.327 . S
N326 Tb329 2.600 . S
C327 C325 1.392 . S
C327 N326 1.327 . S
C327 H334 0.930 . S
C328 C323 1.385 . S
C328 C325 1.370 . S
C328 H347 0.930 . S
Tb329 N326 2.600 . S
Tb329 N330 2.660 . S
Tb329 O363 2.362 . S
Tb329 O364 2.421 . S
Tb329 O368 2.546 . S
Tb329 O369 2.610 1_655 S
Tb329 O371 2.320 1_655 S
Tb329 O372 2.552 1_655 S
Tb329 O373 2.412 1_655 S
Tb329 C393 2.833 . S
N330 C322 1.360 . S
N330 Tb329 2.660 . S
N330 C331 1.305 . S
C331 N330 1.305 . S
C331 C333 1.407 . S
C331 H338 0.930 . S
C332 C320 1.410 . S
C332 C333 1.345 . S
C332 H340 0.930 . S
C333 C331 1.407 . S
C333 C332 1.345 . S
C333 H335 0.930 . S
H334 C327 0.930 . S
H335 C333 0.930 . S
H336 C324 0.930 . S
H337 C325 0.931 . S
H338 C331 0.930 . S
H339 C353 0.930 . S
H340 C332 0.930 . S
H341 C359 0.930 . S
H342 C350 0.930 . S
H343 C357 0.931 . S
H344 C321 0.929 . S
H345 C351 0.930 . S
H346 C384 0.930 . S
H347 C328 0.930 . S
H348 C383 0.929 . S
N349 Tb318 2.660 . S
N349 C350 1.305 . S
N349 C354 1.360 . S
C350 H342 0.930 . S
C350 N349 1.305 . S
C350 C353 1.407 . S
C351 H345 0.930 . S
C351 C352 1.410 . S
C351 C353 1.345 . S
C352 C351 1.410 . S
C352 C354 1.417 . S
C352 C384 1.432 . S
C353 H339 0.930 . S
C353 C350 1.407 . S
C353 C351 1.345 . S
C354 N349 1.360 . S
C354 C352 1.417 . S
C354 C358 1.432 . S
H355 C360 0.930 . S
N356 Tb318 2.600 . S
N356 C358 1.359 . S
N356 C359 1.327 . S
C357 H343 0.931 . S
C357 C359 1.392 . S
C357 C360 1.370 . S
C358 C354 1.432 . S
C358 N356 1.359 . S
C358 C361 1.414 . S
C359 H341 0.930 . S
C359 N356 1.327 . S
C359 C357 1.392 . S
C360 H355 0.930 . S
C360 C357 1.370 . S
C360 C361 1.385 . S
C361 C358 1.414 . S
C361 C360 1.385 . S
C361 C383 1.444 . S
O362 Tb318 2.546 . S
O362 C382 1.251 . S
O363 Tb318 2.610 1_654 S
O363 Tb329 2.362 . S
O363 C374 1.283 1_554 S
O364 Tb329 2.421 . S
O364 C381 1.262 . S
O365 Tb318 2.320 1_655 S
O365 C381 1.260 1_556 S
O366 Tb318 2.552 1_655 S
O366 C374 1.243 . S
O367 Tb318 2.413 . S
O367 C382 1.256 . S
O368 Tb329 2.546 . S
O368 C393 1.251 . S
O369 Tb318 2.362 1_554 S
O369 Tb329 2.610 1_455 S
O369 C385 1.283 . S
O370 Tb318 2.421 . S
O370 C392 1.262 1_556 S
O371 Tb329 2.320 1_455 S
O371 C392 1.260 . S
O372 Tb329 2.552 1_455 S
O372 C385 1.243 . S
O373 Tb329 2.412 1_455 S
O373 C393 1.262 1_455 S
C374 O363 1.283 1_556 S
C374 O366 1.243 . S
C375 C377 1.382 1_455 S
C375 C379 1.393 . S
C375 C382 1.500 . S
C376 C377 1.400 . S
C376 C378 1.384 1_655 S
C377 C375 1.382 1_655 S
C377 C376 1.400 . S
C377 H394 0.930 . S
C378 C376 1.384 1_455 S
C378 C380 1.392 . S
C378 H395 0.931 . S
C379 C375 1.393 . S
C379 C380 1.401 . S
C379 H396 0.930 . S
C380 C378 1.392 . S
C380 C379 1.401 . S
C380 H397 0.930 . S
C381 O364 1.262 . S
C381 O365 1.260 1_554 S
C382 Tb318 2.833 . S
C382 O362 1.251 . S
C382 O367 1.256 . S
C382 C375 1.500 . S
C383 H348 0.929 . S
C383 C361 1.444 . S
C383 C384 1.317 . S
C384 H346 0.930 . S
C384 C352 1.432 . S
C384 C383 1.317 . S
C385 O369 1.283 . S
C385 O372 1.243 . S
C386 C387 1.382 1_655 S
C386 C390 1.393 . S
C386 C393 1.500 . S
C387 C386 1.382 1_455 S
C387 C388 1.400 . S
C387 H398 0.930 . S
C388 C387 1.400 . S
C388 C389 1.384 . S
C389 C388 1.384 . S
C389 C391 1.392 1_455 S
C389 H399 0.931 . S
C390 C386 1.393 . S
C390 C391 1.401 . S
C390 H400 0.930 . S
C391 C389 1.392 1_655 S
C391 C390 1.401 . S
C391 H401 0.930 . S
C392 O370 1.262 1_554 S
C392 O371 1.260 . S
C393 Tb329 2.833 . S
C393 O368 1.251 . S
C393 O373 1.262 1_655 S
C393 C386 1.500 . S
H394 C377 0.930 . S
H395 C378 0.931 . S
H396 C379 0.930 . S
H397 C380 0.930 . S
H398 C387 0.930 . S
H399 C389 0.931 . S
H400 C390 0.930 . S
H401 C391 0.930 . S
Tb402 N433 2.660 . S
Tb402 N440 2.600 . S
Tb402 O446 2.546 . S
Tb402 O447 2.610 . S
Tb402 O449 2.320 . S
Tb402 O450 2.552 . S
Tb402 O451 2.413 . S
Tb402 O453 2.362 . S
Tb402 O454 2.421 . S
Tb402 C466 2.833 . S
C403 C406 1.432 . S
C403 C407 1.414 . S
C403 N410 1.359 . S
C404 C406 1.417 . S
C404 C408 1.432 . S
C404 C416 1.410 . S
C405 C407 1.444 . S
C405 C408 1.317 . S
C405 H428 0.929 . S
C406 C403 1.432 . S
C406 C404 1.417 . S
C406 N414 1.360 . S
C407 C403 1.414 . S
C407 C405 1.444 . S
C407 C412 1.385 . S
C408 C404 1.432 . S
C408 C405 1.317 . S
C408 H420 0.930 . S
C409 C411 1.392 . S
C409 C412 1.370 . S
C409 H421 0.931 . S
N410 C403 1.359 . S
N410 C411 1.327 . S
N410 Tb413 2.608 . S
C411 C409 1.392 . S
C411 N410 1.327 . S
C411 H418 0.930 . S
C412 C407 1.385 . S
C412 C409 1.370 . S
C412 H431 0.930 . S
Tb413 N410 2.608 . S
Tb413 N414 2.665 . S
Tb413 O447 2.330 1_556 S
Tb413 O448 2.402 1_556 S
Tb413 O452 2.574 . S
Tb413 O453 2.590 1_556 S
Tb413 O455 2.316 1_556 S
Tb413 O456 2.559 . S
Tb413 O457 2.446 . S
Tb413 C477 2.867 . S
N414 C406 1.360 . S
N414 Tb413 2.665 . S
N414 C415 1.305 1_556 S
C415 N414 1.305 1_554 S
C415 C417 1.409 . S
C415 H422 0.930 . S
C416 C404 1.410 . S
C416 C417 1.341 1_556 S
C416 H424 0.930 . S
C417 C415 1.409 . S
C417 C416 1.341 1_554 S
C417 H419 0.932 . S
H418 C411 0.930 . S
H419 C417 0.932 . S
H420 C408 0.930 . S
H421 C409 0.931 . S
H422 C415 0.930 . S
H423 C437 0.930 . S
H424 C416 0.930 . S
H425 C443 0.930 . S
H426 C434 0.930 . S
H427 C441 0.931 . S
H428 C405 0.929 . S
H429 C435 0.930 . S
H430 C468 0.930 . S
H431 C412 0.930 . S
H432 C467 0.929 . S
N433 Tb402 2.660 . S
N433 C434 1.305 . S
N433 C438 1.360 . S
C434 H426 0.930 . S
C434 N433 1.305 . S
C434 C437 1.407 . S
C435 H429 0.930 . S
C435 C436 1.410 . S
C435 C437 1.345 . S
C436 C435 1.410 . S
C436 C438 1.417 . S
C436 C468 1.432 . S
C437 H423 0.930 . S
C437 C434 1.407 . S
C437 C435 1.345 . S
C438 N433 1.360 . S
C438 C436 1.417 . S
C438 C442 1.432 . S
H439 C444 0.930 . S
N440 Tb402 2.600 . S
N440 C442 1.359 . S
N440 C443 1.327 . S
C441 H427 0.931 . S
C441 C443 1.392 . S
C441 C444 1.370 . S
C442 C438 1.432 . S
C442 N440 1.359 . S
C442 C445 1.414 . S
C443 H425 0.930 . S
C443 N440 1.327 . S
C443 C441 1.392 . S
C444 H439 0.930 . S
C444 C441 1.370 . S
C444 C445 1.385 . S
C445 C442 1.414 . S
C445 C444 1.385 . S
C445 C467 1.444 . S
O446 Tb402 2.546 . S
O446 C466 1.251 . S
O447 Tb402 2.610 . S
O447 Tb413 2.330 1_554 S
O447 C458 1.283 . S
O448 Tb413 2.402 1_554 S
O448 C465 1.262 . S
O449 Tb402 2.320 . S
O449 C465 1.260 . S
O450 Tb402 2.552 . S
O450 C458 1.243 . S
O451 Tb402 2.413 . S
O451 C466 1.256 . S
O452 Tb413 2.574 . S
O452 C477 1.251 . S
O453 Tb402 2.362 . S
O453 Tb413 2.590 1_554 S
O453 C469 1.283 . S
O454 Tb402 2.421 . S
O454 C476 1.262 . S
O455 Tb413 2.316 1_554 S
O455 C476 1.260 . S
O456 Tb413 2.559 . S
O456 C469 1.243 1_556 S
O457 Tb413 2.446 . S
O457 C477 1.256 . S
C458 O447 1.283 . S
C458 O450 1.243 . S
C459 C461 1.382 . S
C459 C463 1.393 . S
C459 C466 1.500 . S
C460 C461 1.400 . S
C460 C462 1.384 . S
C461 C459 1.382 . S
C461 C460 1.400 . S
C461 H478 0.930 . S
C462 C460 1.384 . S
C462 C464 1.392 . S
C462 H479 0.931 . S
C463 C459 1.393 . S
C463 C464 1.401 . S
C463 H480 0.930 . S
C464 C462 1.392 . S
C464 C463 1.401 . S
C464 H481 0.930 . S
C465 O448 1.262 . S
C465 O449 1.260 . S
C466 Tb402 2.833 . S
C466 O446 1.251 . S
C466 O451 1.256 . S
C466 C459 1.500 . S
C467 H432 0.929 . S
C467 C445 1.444 . S
C467 C468 1.317 . S
C468 H430 0.930 . S
C468 C436 1.432 . S
C468 C467 1.317 . S
C469 O453 1.283 . S
C469 O456 1.243 1_554 S
C470 C471 1.382 . S
C470 C474 1.393 . S
C470 C477 1.500 . S
C471 C470 1.382 . S
C471 C472 1.400 . S
C471 H482 0.930 . S
C472 C471 1.400 . S
C472 C473 1.384 . S
C473 C472 1.384 . S
C473 C475 1.392 . S
C473 H483 0.931 . S
C474 C470 1.393 . S
C474 C475 1.401 . S
C474 H484 0.930 . S
C475 C473 1.392 . S
C475 C474 1.401 . S
C475 H485 0.930 . S
C476 O454 1.262 . S
C476 O455 1.260 . S
C477 Tb413 2.867 . S
C477 O452 1.251 . S
C477 O457 1.256 . S
C477 C470 1.500 . S
H478 C461 0.930 . S
H479 C462 0.931 . S
H480 C463 0.930 . S
H481 C464 0.930 . S
H482 C471 0.930 . S
H483 C473 0.931 . S
H484 C474 0.930 . S
H485 C475 0.930 . S
Tb486 N517 2.660 . S
Tb486 N524 2.600 . S
Tb486 O530 2.546 . S
Tb486 O531 2.610 . S
Tb486 O533 2.320 . S
Tb486 O534 2.552 . S
Tb486 O535 2.413 . S
Tb486 O537 2.362 . S
Tb486 O538 2.421 . S
Tb486 C550 2.833 . S
C487 C490 1.432 . S
C487 C491 1.414 . S
C487 N494 1.359 . S
C488 C490 1.417 . S
C488 C492 1.432 . S
C488 C500 1.410 . S
C489 C491 1.444 . S
C489 C492 1.317 . S
C489 H512 0.929 . S
C490 C487 1.432 . S
C490 C488 1.417 . S
C490 N498 1.360 . S
C491 C487 1.414 . S
C491 C489 1.444 . S
C491 C496 1.385 . S
C492 C488 1.432 . S
C492 C489 1.317 . S
C492 H504 0.930 . S
C493 C495 1.392 . S
C493 C496 1.370 . S
C493 H505 0.931 . S
N494 C487 1.359 . S
N494 C495 1.327 . S
N494 Tb497 2.600 . S
C495 C493 1.392 . S
C495 N494 1.327 . S
C495 H502 0.930 . S
C496 C491 1.385 . S
C496 C493 1.370 . S
C496 H515 0.930 . S
Tb497 N494 2.600 . S
Tb497 N498 2.660 . S
Tb497 O531 2.362 . S
Tb497 O532 2.421 . S
Tb497 O536 2.546 . S
Tb497 O537 2.610 . S
Tb497 O539 2.320 . S
Tb497 O540 2.552 . S
Tb497 O541 2.413 . S
Tb497 C561 2.833 . S
N498 C490 1.360 . S
N498 Tb497 2.660 . S
N498 C499 1.305 . S
C499 N498 1.305 . S
C499 C501 1.407 . S
C499 H506 0.930 . S
C500 C488 1.410 . S
C500 C501 1.345 . S
C500 H508 0.930 . S
C501 C499 1.407 . S
C501 C500 1.345 . S
C501 H503 0.930 . S
H502 C495 0.930 . S
H503 C501 0.930 . S
H504 C492 0.930 . S
H505 C493 0.931 . S
H506 C499 0.930 . S
H507 C521 0.930 . S
H508 C500 0.930 . S
H509 C527 0.930 . S
H510 C518 0.930 . S
H511 C525 0.931 . S
H512 C489 0.929 . S
H513 C519 0.930 . S
H514 C552 0.930 . S
H515 C496 0.930 . S
H516 C551 0.929 . S
N517 Tb486 2.660 . S
N517 C518 1.305 . S
N517 C522 1.360 . S
C518 H510 0.930 . S
C518 N517 1.305 . S
C518 C521 1.407 . S
C519 H513 0.930 . S
C519 C520 1.410 . S
C519 C521 1.345 . S
C520 C519 1.410 . S
C520 C522 1.417 . S
C520 C552 1.432 . S
C521 H507 0.930 . S
C521 C518 1.407 . S
C521 C519 1.345 . S
C522 N517 1.360 . S
C522 C520 1.417 . S
C522 C526 1.432 . S
H523 C528 0.930 . S
N524 Tb486 2.600 . S
N524 C526 1.359 . S
N524 C527 1.327 . S
C525 H511 0.931 . S
C525 C527 1.392 . S
C525 C528 1.370 . S
C526 C522 1.432 . S
C526 N524 1.359 . S
C526 C529 1.414 . S
C527 H509 0.930 . S
C527 N524 1.327 . S
C527 C525 1.392 . S
C528 H523 0.930 . S
C528 C525 1.370 . S
C528 C529 1.385 . S
C529 C526 1.414 . S
C529 C528 1.385 . S
C529 C551 1.444 . S
O530 Tb486 2.546 . S
O530 C550 1.251 . S
O531 Tb486 2.610 . S
O531 Tb497 2.362 . S
O531 C542 1.283 . S
O532 Tb497 2.421 . S
O532 C549 1.262 . S
O533 Tb486 2.320 . S
O533 C549 1.260 . S
O534 Tb486 2.552 . S
O534 C542 1.243 . S
O535 Tb486 2.413 . S
O535 C550 1.256 . S
O536 Tb497 2.546 . S
O536 C561 1.251 . S
O537 Tb486 2.362 . S
O537 Tb497 2.610 . S
O537 C553 1.283 . S
O538 Tb486 2.421 . S
O538 C560 1.262 . S
O539 Tb497 2.320 . S
O539 C560 1.260 . S
O540 Tb497 2.552 . S
O540 C553 1.243 . S
O541 Tb497 2.413 . S
O541 C561 1.256 . S
C542 O531 1.283 . S
C542 O534 1.243 . S
C543 C545 1.382 . S
C543 C547 1.393 . S
C543 C550 1.500 . S
C544 C545 1.400 . S
C544 C546 1.384 . S
C545 C543 1.382 . S
C545 C544 1.400 . S
C545 H562 0.930 . S
C546 C544 1.384 . S
C546 C548 1.392 . S
C546 H563 0.931 . S
C547 C543 1.393 . S
C547 C548 1.401 . S
C547 H564 0.930 . S
C548 C546 1.392 . S
C548 C547 1.401 . S
C548 H565 0.930 . S
C549 O532 1.262 . S
C549 O533 1.260 . S
C550 Tb486 2.833 . S
C550 O530 1.251 . S
C550 O535 1.256 . S
C550 C543 1.500 . S
C551 H516 0.929 . S
C551 C529 1.444 . S
C551 C552 1.317 . S
C552 H514 0.930 . S
C552 C520 1.432 . S
C552 C551 1.317 . S
C553 O537 1.283 . S
C553 O540 1.243 . S
C554 C555 1.382 . S
C554 C558 1.393 . S
C554 C561 1.500 . S
C555 C554 1.382 . S
C555 C556 1.400 . S
C555 H566 0.930 . S
C556 C555 1.400 . S
C556 C557 1.384 . S
C557 C556 1.384 . S
C557 C559 1.392 . S
C557 H567 0.931 . S
C558 C554 1.393 . S
C558 C559 1.401 . S
C558 H568 0.930 . S
C559 C557 1.392 . S
C559 C558 1.401 . S
C559 H569 0.930 . S
C560 O538 1.262 . S
C560 O539 1.260 . S
C561 Tb497 2.833 . S
C561 O536 1.251 . S
C561 O541 1.256 . S
C561 C554 1.500 . S
H562 C545 0.930 . S
H563 C546 0.931 . S
H564 C547 0.930 . S
H565 C548 0.930 . S
H566 C555 0.930 . S
H567 C557 0.931 . S
H568 C558 0.930 . S
H569 C559 0.930 . S
Tb570 N601 2.660 . S
Tb570 N608 2.600 . S
Tb570 O614 2.546 . S
Tb570 O615 2.610 . S
Tb570 O617 2.320 . S
Tb570 O618 2.552 . S
Tb570 O619 2.413 . S
Tb570 O621 2.362 . S
Tb570 O622 2.421 . S
Tb570 C634 2.833 . S
C571 C574 1.432 . S
C571 C575 1.414 . S
C571 N578 1.359 . S
C572 C574 1.417 . S
C572 C576 1.432 . S
C572 C584 1.410 . S
C573 C575 1.444 . S
C573 C576 1.317 . S
C573 H596 0.929 . S
C574 C571 1.432 . S
C574 C572 1.417 . S
C574 N582 1.360 . S
C575 C571 1.414 . S
C575 C573 1.444 . S
C575 C580 1.385 . S
C576 C572 1.432 . S
C576 C573 1.317 . S
C576 H588 0.930 . S
C577 C579 1.392 . S
C577 C580 1.370 . S
C577 H589 0.931 . S
N578 C571 1.359 . S
N578 C579 1.327 . S
N578 Tb581 2.600 . S
C579 C577 1.392 . S
C579 N578 1.327 . S
C579 H586 0.930 . S
C580 C575 1.385 . S
C580 C577 1.370 . S
C580 H599 0.930 . S
Tb581 N578 2.600 . S
Tb581 N582 2.660 . S
Tb581 O615 2.362 . S
Tb581 O616 2.421 . S
Tb581 O620 2.546 . S
Tb581 O621 2.610 . S
Tb581 O623 2.320 . S
Tb581 O624 2.552 . S
Tb581 O625 2.413 . S
Tb581 C645 2.833 . S
N582 C574 1.360 . S
N582 Tb581 2.660 . S
N582 C583 1.305 . S
C583 N582 1.305 . S
C583 C585 1.407 . S
C583 H590 0.930 . S
C584 C572 1.410 . S
C584 C585 1.345 . S
C584 H592 0.930 . S
C585 C583 1.407 . S
C585 C584 1.345 . S
C585 H587 0.930 . S
H586 C579 0.930 . S
H587 C585 0.930 . S
H588 C576 0.930 . S
H589 C577 0.931 . S
H590 C583 0.930 . S
H591 C605 0.930 . S
H592 C584 0.930 . S
H593 C611 0.930 . S
H594 C602 0.930 . S
H595 C609 0.931 . S
H596 C573 0.929 . S
H597 C603 0.930 . S
H598 C636 0.930 . S
H599 C580 0.930 . S
H600 C635 0.929 . S
N601 Tb570 2.660 . S
N601 C602 1.305 . S
N601 C606 1.360 . S
C602 H594 0.930 . S
C602 N601 1.305 . S
C602 C605 1.407 . S
C603 H597 0.930 . S
C603 C604 1.410 . S
C603 C605 1.345 . S
C604 C603 1.410 . S
C604 C606 1.417 . S
C604 C636 1.432 . S
C605 H591 0.930 . S
C605 C602 1.407 . S
C605 C603 1.345 . S
C606 N601 1.360 . S
C606 C604 1.417 . S
C606 C610 1.432 . S
H607 C612 0.930 . S
N608 Tb570 2.600 . S
N608 C610 1.359 . S
N608 C611 1.327 . S
C609 H595 0.931 . S
C609 C611 1.392 . S
C609 C612 1.370 . S
C610 C606 1.432 . S
C610 N608 1.359 . S
C610 C613 1.414 . S
C611 H593 0.930 . S
C611 N608 1.327 . S
C611 C609 1.392 . S
C612 H607 0.930 . S
C612 C609 1.370 . S
C612 C613 1.385 . S
C613 C610 1.414 . S
C613 C612 1.385 . S
C613 C635 1.444 . S
O614 Tb570 2.546 . S
O614 C634 1.251 . S
O615 Tb570 2.610 . S
O615 Tb581 2.362 . S
O615 C626 1.283 . S
O616 Tb581 2.421 . S
O616 C633 1.262 . S
O617 Tb570 2.320 . S
O617 C633 1.260 . S
O618 Tb570 2.552 . S
O618 C626 1.243 . S
O619 Tb570 2.413 . S
O619 C634 1.256 . S
O620 Tb581 2.546 . S
O620 C645 1.251 . S
O621 Tb570 2.362 . S
O621 Tb581 2.610 . S
O621 C637 1.283 . S
O622 Tb570 2.421 . S
O622 C644 1.262 . S
O623 Tb581 2.320 . S
O623 C644 1.260 . S
O624 Tb581 2.552 . S
O624 C637 1.243 . S
O625 Tb581 2.413 . S
O625 C645 1.256 . S
C626 O615 1.283 . S
C626 O618 1.243 . S
C627 C629 1.382 . S
C627 C631 1.393 . S
C627 C634 1.500 . S
C628 C629 1.400 . S
C628 C630 1.384 . S
C629 C627 1.382 . S
C629 C628 1.400 . S
C629 H646 0.930 . S
C630 C628 1.384 . S
C630 C632 1.392 . S
C630 H647 0.931 . S
C631 C627 1.393 . S
C631 C632 1.401 . S
C631 H648 0.930 . S
C632 C630 1.392 . S
C632 C631 1.401 . S
C632 H649 0.930 . S
C633 O616 1.262 . S
C633 O617 1.260 . S
C634 Tb570 2.833 . S
C634 O614 1.251 . S
C634 O619 1.256 . S
C634 C627 1.500 . S
C635 H600 0.929 . S
C635 C613 1.444 . S
C635 C636 1.317 . S
C636 H598 0.930 . S
C636 C604 1.432 . S
C636 C635 1.317 . S
C637 O621 1.283 . S
C637 O624 1.243 . S
C638 C639 1.382 . S
C638 C642 1.393 . S
C638 C645 1.500 . S
C639 C638 1.382 . S
C639 C640 1.400 . S
C639 H650 0.930 . S
C640 C639 1.400 . S
C640 C641 1.384 . S
C641 C640 1.384 . S
C641 C643 1.392 . S
C641 H651 0.931 . S
C642 C638 1.393 . S
C642 C643 1.401 . S
C642 H652 0.930 . S
C643 C641 1.392 . S
C643 C642 1.401 . S
C643 H653 0.930 . S
C644 O622 1.262 . S
C644 O623 1.260 . S
C645 Tb581 2.833 . S
C645 O620 1.251 . S
C645 O625 1.256 . S
C645 C638 1.500 . S
H646 C629 0.930 . S
H647 C630 0.931 . S
H648 C631 0.930 . S
H649 C632 0.930 . S
H650 C639 0.930 . S
H651 C641 0.931 . S
H652 C642 0.930 . S
H653 C643 0.930 . S
Tb654 N685 2.660 . S
Tb654 N692 2.600 . S
Tb654 O698 2.546 . S
Tb654 O699 2.610 . S
Tb654 O701 2.320 . S
Tb654 O702 2.552 . S
Tb654 O703 2.413 . S
Tb654 O705 2.362 . S
Tb654 O706 2.421 . S
Tb654 C718 2.833 . S
C655 C658 1.432 . S
C655 C659 1.414 . S
C655 N662 1.359 . S
C656 C658 1.417 . S
C656 C660 1.432 . S
C656 C668 1.410 . S
C657 C659 1.444 . S
C657 C660 1.317 . S
C657 H680 0.929 . S
C658 C655 1.432 . S
C658 C656 1.417 . S
C658 N666 1.360 . S
C659 C655 1.414 . S
C659 C657 1.444 . S
C659 C664 1.385 . S
C660 C656 1.432 . S
C660 C657 1.317 . S
C660 H672 0.930 . S
C661 C663 1.392 . S
C661 C664 1.370 . S
C661 H673 0.931 . S
N662 C655 1.359 . S
N662 C663 1.327 . S
N662 Tb665 2.600 . S
C663 C661 1.392 . S
C663 N662 1.327 . S
C663 H670 0.930 . S
C664 C659 1.385 . S
C664 C661 1.370 . S
C664 H683 0.930 . S
Tb665 N662 2.600 . S
Tb665 N666 2.660 . S
Tb665 O699 2.362 . S
Tb665 O700 2.421 . S
Tb665 O704 2.546 . S
Tb665 O705 2.610 . S
Tb665 O707 2.320 . S
Tb665 O708 2.552 . S
Tb665 O709 2.413 . S
Tb665 C729 2.833 . S
N666 C658 1.360 . S
N666 Tb665 2.660 . S
N666 C667 1.305 . S
C667 N666 1.305 . S
C667 C669 1.407 . S
C667 H674 0.930 . S
C668 C656 1.410 . S
C668 C669 1.345 . S
C668 H676 0.930 . S
C669 C667 1.407 . S
C669 C668 1.345 . S
C669 H671 0.930 . S
H670 C663 0.930 . S
H671 C669 0.930 . S
H672 C660 0.930 . S
H673 C661 0.931 . S
H674 C667 0.930 . S
H675 C689 0.930 . S
H676 C668 0.930 . S
H677 C695 0.930 . S
H678 C686 0.930 . S
H679 C693 0.931 . S
H680 C657 0.929 . S
H681 C687 0.930 . S
H682 C720 0.930 . S
H683 C664 0.930 . S
H684 C719 0.929 . S
N685 Tb654 2.660 . S
N685 C686 1.305 . S
N685 C690 1.360 . S
C686 H678 0.930 . S
C686 N685 1.305 . S
C686 C689 1.407 . S
C687 H681 0.930 . S
C687 C688 1.410 . S
C687 C689 1.345 . S
C688 C687 1.410 . S
C688 C690 1.417 . S
C688 C720 1.432 . S
C689 H675 0.930 . S
C689 C686 1.407 . S
C689 C687 1.345 . S
C690 N685 1.360 . S
C690 C688 1.417 . S
C690 C694 1.432 . S
H691 C696 0.930 . S
N692 Tb654 2.600 . S
N692 C694 1.359 . S
N692 C695 1.327 . S
C693 H679 0.931 . S
C693 C695 1.392 . S
C693 C696 1.370 . S
C694 C690 1.432 . S
C694 N692 1.359 . S
C694 C697 1.414 . S
C695 H677 0.930 . S
C695 N692 1.327 . S
C695 C693 1.392 . S
C696 H691 0.930 . S
C696 C693 1.370 . S
C696 C697 1.385 . S
C697 C694 1.414 . S
C697 C696 1.385 . S
C697 C719 1.444 . S
O698 Tb654 2.546 . S
O698 C718 1.251 . S
O699 Tb654 2.610 . S
O699 Tb665 2.362 . S
O699 C710 1.283 . S
O700 Tb665 2.421 . S
O700 C717 1.262 . S
O701 Tb654 2.320 . S
O701 C717 1.260 . S
O702 Tb654 2.552 . S
O702 C710 1.243 . S
O703 Tb654 2.413 . S
O703 C718 1.256 . S
O704 Tb665 2.546 . S
O704 C729 1.251 . S
O705 Tb654 2.362 . S
O705 Tb665 2.610 . S
O705 C721 1.283 . S
O706 Tb654 2.421 . S
O706 C728 1.262 . S
O707 Tb665 2.320 . S
O707 C728 1.260 . S
O708 Tb665 2.552 . S
O708 C721 1.243 . S
O709 Tb665 2.413 . S
O709 C729 1.256 . S
C710 O699 1.283 . S
C710 O702 1.243 . S
C711 C713 1.382 . S
C711 C715 1.393 . S
C711 C718 1.500 . S
C712 C713 1.400 . S
C712 C714 1.384 . S
C713 C711 1.382 . S
C713 C712 1.400 . S
C713 H730 0.930 . S
C714 C712 1.384 . S
C714 C716 1.392 . S
C714 H731 0.931 . S
C715 C711 1.393 . S
C715 C716 1.401 . S
C715 H732 0.930 . S
C716 C714 1.392 . S
C716 C715 1.401 . S
C716 H733 0.930 . S
C717 O700 1.262 . S
C717 O701 1.260 . S
C718 Tb654 2.833 . S
C718 O698 1.251 . S
C718 O703 1.256 . S
C718 C711 1.500 . S
C719 H684 0.929 . S
C719 C697 1.444 . S
C719 C720 1.317 . S
C720 H682 0.930 . S
C720 C688 1.432 . S
C720 C719 1.317 . S
C721 O705 1.283 . S
C721 O708 1.243 . S
C722 C723 1.382 . S
C722 C726 1.393 . S
C722 C729 1.500 . S
C723 C722 1.382 . S
C723 C724 1.400 . S
C723 H734 0.930 . S
C724 C723 1.400 . S
C724 C725 1.384 . S
C725 C724 1.384 . S
C725 C727 1.392 . S
C725 H735 0.931 . S
C726 C722 1.393 . S
C726 C727 1.401 . S
C726 H736 0.930 . S
C727 C725 1.392 . S
C727 C726 1.401 . S
C727 H737 0.930 . S
C728 O706 1.262 . S
C728 O707 1.260 . S
C729 Tb665 2.833 . S
C729 O704 1.251 . S
C729 O709 1.256 . S
C729 C722 1.500 . S
H730 C713 0.930 . S
H731 C714 0.931 . S
H732 C715 0.930 . S
H733 C716 0.930 . S
H734 C723 0.930 . S
H735 C725 0.931 . S
H736 C726 0.930 . S
H737 C727 0.930 . S
Tb738 N769 2.660 . S
Tb738 N776 2.600 . S
Tb738 O782 2.546 . S
Tb738 O783 2.610 . S
Tb738 O785 2.320 . S
Tb738 O786 2.552 . S
Tb738 O787 2.413 . S
Tb738 O789 2.362 . S
Tb738 O790 2.421 . S
Tb738 C802 2.833 . S
C739 C742 1.432 . S
C739 C743 1.414 . S
C739 N746 1.359 . S
C740 C742 1.417 . S
C740 C744 1.432 . S
C740 C752 1.410 . S
C741 C743 1.444 . S
C741 C744 1.317 . S
C741 H764 0.929 . S
C742 C739 1.432 . S
C742 C740 1.417 . S
C742 N750 1.360 . S
C743 C739 1.414 . S
C743 C741 1.444 . S
C743 C748 1.385 . S
C744 C740 1.432 . S
C744 C741 1.317 . S
C744 H756 0.930 . S
C745 C747 1.392 . S
C745 C748 1.370 . S
C745 H757 0.931 . S
N746 C739 1.359 . S
N746 C747 1.327 . S
N746 Tb749 2.600 . S
C747 C745 1.392 . S
C747 N746 1.327 . S
C747 H754 0.930 . S
C748 C743 1.385 . S
C748 C745 1.370 . S
C748 H767 0.930 . S
Tb749 N746 2.600 . S
Tb749 N750 2.660 . S
Tb749 O783 2.362 . S
Tb749 O784 2.421 . S
Tb749 O788 2.546 . S
Tb749 O789 2.610 . S
Tb749 O791 2.320 . S
Tb749 O792 2.552 . S
Tb749 O793 2.413 . S
Tb749 C813 2.833 . S
N750 C742 1.360 . S
N750 Tb749 2.660 . S
N750 C751 1.305 . S
C751 N750 1.305 . S
C751 C753 1.407 . S
C751 H758 0.930 . S
C752 C740 1.410 . S
C752 C753 1.345 . S
C752 H760 0.930 1_655 S
C753 C751 1.407 . S
C753 C752 1.345 . S
C753 H755 0.930 . S
H754 C747 0.930 . S
H755 C753 0.930 . S
H756 C744 0.930 . S
H757 C745 0.931 . S
H758 C751 0.930 . S
H759 C773 0.930 . S
H760 C752 0.930 1_455 S
H761 C779 0.930 . S
H762 C770 0.930 . S
H763 C777 0.931 . S
H764 C741 0.929 . S
H765 C771 0.930 . S
H766 C804 0.930 . S
H767 C748 0.930 . S
H768 C803 0.929 . S
N769 Tb738 2.660 . S
N769 C770 1.305 . S
N769 C774 1.360 . S
C770 H762 0.930 . S
C770 N769 1.305 . S
C770 C773 1.407 . S
C771 H765 0.930 . S
C771 C772 1.410 . S
C771 C773 1.345 . S
C772 C771 1.410 . S
C772 C774 1.417 . S
C772 C804 1.432 . S
C773 H759 0.930 . S
C773 C770 1.407 . S
C773 C771 1.345 . S
C774 N769 1.360 . S
C774 C772 1.417 . S
C774 C778 1.432 . S
H775 C780 0.930 . S
N776 Tb738 2.600 . S
N776 C778 1.359 . S
N776 C779 1.327 . S
C777 H763 0.931 . S
C777 C779 1.392 . S
C777 C780 1.370 . S
C778 C774 1.432 . S
C778 N776 1.359 . S
C778 C781 1.414 . S
C779 H761 0.930 . S
C779 N776 1.327 . S
C779 C777 1.392 . S
C780 H775 0.930 . S
C780 C777 1.370 . S
C780 C781 1.385 . S
C781 C778 1.414 . S
C781 C780 1.385 . S
C781 C803 1.444 . S
O782 Tb738 2.546 . S
O782 C802 1.251 . S
O783 Tb738 2.610 . S
O783 Tb749 2.362 . S
O783 C794 1.283 . S
O784 Tb749 2.421 . S
O784 C801 1.262 . S
O785 Tb738 2.320 . S
O785 C801 1.260 . S
O786 Tb738 2.552 . S
O786 C794 1.243 . S
O787 Tb738 2.413 . S
O787 C802 1.256 . S
O788 Tb749 2.546 . S
O788 C813 1.251 . S
O789 Tb738 2.362 . S
O789 Tb749 2.610 . S
O789 C805 1.283 . S
O790 Tb738 2.421 . S
O790 C812 1.262 . S
O791 Tb749 2.320 . S
O791 C812 1.260 . S
O792 Tb749 2.552 . S
O792 C805 1.243 . S
O793 Tb749 2.413 . S
O793 C813 1.256 . S
C794 O783 1.283 . S
C794 O786 1.243 . S
C795 C797 1.382 . S
C795 C799 1.393 . S
C795 C802 1.500 . S
C796 C797 1.400 . S
C796 C798 1.384 . S
C797 C795 1.382 . S
C797 C796 1.400 . S
C797 H814 0.930 . S
C798 C796 1.384 . S
C798 C800 1.392 . S
C798 H815 0.931 . S
C799 C795 1.393 . S
C799 C800 1.401 . S
C799 H816 0.930 . S
C800 C798 1.392 . S
C800 C799 1.401 . S
C800 H817 0.930 . S
C801 O784 1.262 . S
C801 O785 1.260 . S
C802 Tb738 2.833 . S
C802 O782 1.251 . S
C802 O787 1.256 . S
C802 C795 1.500 . S
C803 H768 0.929 . S
C803 C781 1.444 . S
C803 C804 1.317 . S
C804 H766 0.930 . S
C804 C772 1.432 . S
C804 C803 1.317 . S
C805 O789 1.283 . S
C805 O792 1.243 . S
C806 C807 1.382 . S
C806 C810 1.393 . S
C806 C813 1.500 . S
C807 C806 1.382 . S
C807 C808 1.400 . S
C807 H818 0.930 . S
C808 C807 1.400 . S
C808 C809 1.384 . S
C809 C808 1.384 . S
C809 C811 1.392 . S
C809 H819 0.931 . S
C810 C806 1.393 . S
C810 C811 1.401 . S
C810 H820 0.930 . S
C811 C809 1.392 . S
C811 C810 1.401 . S
C811 H821 0.930 . S
C812 O790 1.262 . S
C812 O791 1.260 . S
C813 Tb749 2.833 . S
C813 O788 1.251 . S
C813 O793 1.256 . S
C813 C806 1.500 . S
H814 C797 0.930 . S
H815 C798 0.931 . S
H816 C799 0.930 . S
H817 C800 0.930 . S
H818 C807 0.930 . S
H819 C809 0.931 . S
H820 C810 0.930 . S
H821 C811 0.930 . S
Tb822 N853 2.660 . S
Tb822 N860 2.600 . S
Tb822 O866 2.546 . S
Tb822 O867 2.610 . S
Tb822 O869 2.320 . S
Tb822 O870 2.552 . S
Tb822 O871 2.413 . S
Tb822 O873 2.362 . S
Tb822 O874 2.421 . S
Tb822 C886 2.833 . S
C823 C826 1.432 . S
C823 C827 1.414 . S
C823 N830 1.359 . S
C824 C826 1.417 . S
C824 C828 1.432 . S
C824 C836 1.410 . S
C825 C827 1.444 . S
C825 C828 1.317 . S
C825 H848 0.929 . S
C826 C823 1.432 . S
C826 C824 1.417 . S
C826 N834 1.360 . S
C827 C823 1.414 . S
C827 C825 1.444 . S
C827 C832 1.385 . S
C828 C824 1.432 . S
C828 C825 1.317 . S
C828 H840 0.930 . S
C829 C831 1.392 . S
C829 C832 1.370 . S
C829 H841 0.931 . S
N830 C823 1.359 . S
N830 C831 1.327 . S
N830 Tb833 2.600 . S
C831 C829 1.392 . S
C831 N830 1.327 . S
C831 H838 0.930 . S
C832 C827 1.385 . S
C832 C829 1.370 . S
C832 H851 0.930 . S
Tb833 N830 2.600 . S
Tb833 N834 2.660 . S
Tb833 O867 2.362 . S
Tb833 O868 2.421 . S
Tb833 O872 2.546 . S
Tb833 O873 2.610 . S
Tb833 O875 2.320 . S
Tb833 O876 2.552 . S
Tb833 O877 2.413 . S
Tb833 C897 2.833 . S
N834 C826 1.360 . S
N834 Tb833 2.660 . S
N834 C835 1.305 . S
C835 N834 1.305 . S
C835 C837 1.407 . S
C835 H842 0.930 . S
C836 C824 1.410 . S
C836 C837 1.345 . S
C836 H844 0.930 . S
C837 C835 1.407 . S
C837 C836 1.345 . S
C837 H839 0.930 . S
H838 C831 0.930 . S
H839 C837 0.930 . S
H840 C828 0.930 . S
H841 C829 0.931 . S
H842 C835 0.930 . S
H843 C857 0.930 . S
H844 C836 0.930 . S
H845 C863 0.930 . S
H846 C854 0.930 . S
H847 C861 0.931 . S
H848 C825 0.929 . S
H849 C855 0.930 . S
H850 C888 0.930 . S
H851 C832 0.930 . S
H852 C887 0.929 . S
N853 Tb822 2.660 . S
N853 C854 1.305 . S
N853 C858 1.360 . S
C854 H846 0.930 . S
C854 N853 1.305 . S
C854 C857 1.407 . S
C855 H849 0.930 . S
C855 C856 1.410 . S
C855 C857 1.345 . S
C856 C855 1.410 . S
C856 C858 1.417 . S
C856 C888 1.432 . S
C857 H843 0.930 . S
C857 C854 1.407 . S
C857 C855 1.345 . S
C858 N853 1.360 . S
C858 C856 1.417 . S
C858 C862 1.432 . S
H859 C864 0.930 . S
N860 Tb822 2.600 . S
N860 C862 1.359 . S
N860 C863 1.327 . S
C861 H847 0.931 . S
C861 C863 1.392 . S
C861 C864 1.370 . S
C862 C858 1.432 . S
C862 N860 1.359 . S
C862 C865 1.414 . S
C863 H845 0.930 . S
C863 N860 1.327 . S
C863 C861 1.392 . S
C864 H859 0.930 . S
C864 C861 1.370 . S
C864 C865 1.385 . S
C865 C862 1.414 . S
C865 C864 1.385 . S
C865 C887 1.444 . S
O866 Tb822 2.546 . S
O866 C886 1.251 . S
O867 Tb822 2.610 . S
O867 Tb833 2.362 . S
O867 C878 1.283 . S
O868 Tb833 2.421 . S
O868 C885 1.262 . S
O869 Tb822 2.320 . S
O869 C885 1.260 . S
O870 Tb822 2.552 . S
O870 C878 1.243 . S
O871 Tb822 2.413 . S
O871 C886 1.256 . S
O872 Tb833 2.546 . S
O872 C897 1.251 . S
O873 Tb822 2.362 . S
O873 Tb833 2.610 . S
O873 C889 1.283 . S
O874 Tb822 2.421 . S
O874 C896 1.262 . S
O875 Tb833 2.320 . S
O875 C896 1.260 . S
O876 Tb833 2.552 . S
O876 C889 1.243 . S
O877 Tb833 2.413 . S
O877 C897 1.256 . S
C878 O867 1.283 . S
C878 O870 1.243 . S
C879 C881 1.382 . S
C879 C883 1.393 . S
C879 C886 1.500 . S
C880 C881 1.400 . S
C880 C882 1.384 . S
C881 C879 1.382 . S
C881 C880 1.400 . S
C881 H898 0.930 . S
C882 C880 1.384 . S
C882 C884 1.392 . S
C882 H899 0.931 . S
C883 C879 1.393 . S
C883 C884 1.401 . S
C883 H900 0.930 . S
C884 C882 1.392 . S
C884 C883 1.401 . S
C884 H901 0.930 . S
C885 O868 1.262 . S
C885 O869 1.260 . S
C886 Tb822 2.833 . S
C886 O866 1.251 . S
C886 O871 1.256 . S
C886 C879 1.500 . S
C887 H852 0.929 . S
C887 C865 1.444 . S
C887 C888 1.317 . S
C888 H850 0.930 . S
C888 C856 1.432 . S
C888 C887 1.317 . S
C889 O873 1.283 . S
C889 O876 1.243 . S
C890 C891 1.382 . S
C890 C894 1.393 . S
C890 C897 1.500 . S
C891 C890 1.382 . S
C891 C892 1.400 . S
C891 H902 0.930 . S
C892 C891 1.400 . S
C892 C893 1.384 . S
C893 C892 1.384 . S
C893 C895 1.392 . S
C893 H903 0.931 . S
C894 C890 1.393 . S
C894 C895 1.401 . S
C894 H904 0.930 . S
C895 C893 1.392 . S
C895 C894 1.401 . S
C895 H905 0.930 . S
C896 O874 1.262 . S
C896 O875 1.260 . S
C897 Tb833 2.833 . S
C897 O872 1.251 . S
C897 O877 1.256 . S
C897 C890 1.500 . S
H898 C881 0.930 . S
H899 C882 0.931 . S
H900 C883 0.930 . S
H901 C884 0.930 . S
H902 C891 0.930 . S
H903 C893 0.931 . S
H904 C894 0.930 . S
H905 C895 0.930 . S
Tb906 N937 2.660 . S
Tb906 N944 2.600 . S
Tb906 O950 2.546 . S
Tb906 O951 2.610 . S
Tb906 O953 2.320 . S
Tb906 O954 2.552 . S
Tb906 O955 2.413 . S
Tb906 O957 2.362 . S
Tb906 O958 2.421 . S
Tb906 C970 2.833 . S
C907 C910 1.432 . S
C907 C911 1.414 . S
C907 N914 1.359 . S
C908 C910 1.417 . S
C908 C912 1.432 . S
C908 C920 1.410 . S
C909 C911 1.444 . S
C909 C912 1.317 . S
C909 H932 0.929 . S
C910 C907 1.432 . S
C910 C908 1.417 . S
C910 N918 1.360 . S
C911 C907 1.414 . S
C911 C909 1.444 . S
C911 C916 1.385 . S
C912 C908 1.432 . S
C912 C909 1.317 . S
C912 H924 0.930 . S
C913 C915 1.392 . S
C913 C916 1.370 . S
C913 H925 0.931 . S
N914 C907 1.359 . S
N914 C915 1.327 . S
N914 Tb917 2.600 . S
C915 C913 1.392 . S
C915 N914 1.327 . S
C915 H922 0.930 . S
C916 C911 1.385 . S
C916 C913 1.370 . S
C916 H935 0.930 . S
Tb917 N914 2.600 . S
Tb917 N918 2.660 . S
Tb917 O951 2.362 . S
Tb917 O952 2.421 . S
Tb917 O956 2.546 . S
Tb917 O957 2.610 . S
Tb917 O959 2.320 . S
Tb917 O960 2.552 . S
Tb917 O961 2.413 . S
Tb917 C981 2.833 . S
N918 C910 1.360 . S
N918 Tb917 2.660 . S
N918 C919 1.305 . S
C919 N918 1.305 . S
C919 C921 1.407 . S
C919 H926 0.930 . S
C920 C908 1.410 . S
C920 C921 1.345 . S
C920 H928 0.930 . S
C921 C919 1.407 . S
C921 C920 1.345 . S
C921 H923 0.930 . S
H922 C915 0.930 . S
H923 C921 0.930 . S
H924 C912 0.930 . S
H925 C913 0.931 . S
H926 C919 0.930 . S
H927 C941 0.930 . S
H928 C920 0.930 . S
H929 C947 0.930 . S
H930 C938 0.930 . S
H931 C945 0.931 . S
H932 C909 0.929 . S
H933 C939 0.930 . S
H934 C972 0.930 . S
H935 C916 0.930 . S
H936 C971 0.929 . S
N937 Tb906 2.660 . S
N937 C938 1.305 . S
N937 C942 1.360 . S
C938 H930 0.930 . S
C938 N937 1.305 . S
C938 C941 1.407 . S
C939 H933 0.930 . S
C939 C940 1.410 . S
C939 C941 1.345 . S
C940 C939 1.410 . S
C940 C942 1.417 . S
C940 C972 1.432 . S
C941 H927 0.930 . S
C941 C938 1.407 . S
C941 C939 1.345 . S
C942 N937 1.360 . S
C942 C940 1.417 . S
C942 C946 1.432 . S
H943 C948 0.930 . S
N944 Tb906 2.600 . S
N944 C946 1.359 . S
N944 C947 1.327 . S
C945 H931 0.931 . S
C945 C947 1.392 . S
C945 C948 1.370 . S
C946 C942 1.432 . S
C946 N944 1.359 . S
C946 C949 1.414 . S
C947 H929 0.930 . S
C947 N944 1.327 . S
C947 C945 1.392 . S
C948 H943 0.930 . S
C948 C945 1.370 . S
C948 C949 1.385 . S
C949 C946 1.414 . S
C949 C948 1.385 . S
C949 C971 1.444 . S
O950 Tb906 2.546 . S
O950 C970 1.251 . S
O951 Tb906 2.610 . S
O951 Tb917 2.362 . S
O951 C962 1.283 . S
O952 Tb917 2.421 . S
O952 C969 1.262 . S
O953 Tb906 2.320 . S
O953 C969 1.260 . S
O954 Tb906 2.552 . S
O954 C962 1.243 . S
O955 Tb906 2.413 . S
O955 C970 1.256 . S
O956 Tb917 2.546 . S
O956 C981 1.251 . S
O957 Tb906 2.362 . S
O957 Tb917 2.610 . S
O957 C973 1.283 . S
O958 Tb906 2.421 . S
O958 C980 1.262 . S
O959 Tb917 2.320 . S
O959 C980 1.260 . S
O960 Tb917 2.552 . S
O960 C973 1.243 . S
O961 Tb917 2.413 . S
O961 C981 1.256 . S
C962 O951 1.283 . S
C962 O954 1.243 . S
C963 C965 1.382 . S
C963 C967 1.393 . S
C963 C970 1.500 . S
C964 C965 1.400 . S
C964 C966 1.384 . S
C965 C963 1.382 . S
C965 C964 1.400 . S
C965 H982 0.930 . S
C966 C964 1.384 . S
C966 C968 1.392 . S
C966 H983 0.931 . S
C967 C963 1.393 . S
C967 C968 1.401 . S
C967 H984 0.930 . S
C968 C966 1.392 . S
C968 C967 1.401 . S
C968 H985 0.930 . S
C969 O952 1.262 . S
C969 O953 1.260 . S
C970 Tb906 2.833 . S
C970 O950 1.251 . S
C970 O955 1.256 . S
C970 C963 1.500 . S
C971 H936 0.929 . S
C971 C949 1.444 . S
C971 C972 1.317 . S
C972 H934 0.930 . S
C972 C940 1.432 . S
C972 C971 1.317 . S
C973 O957 1.283 . S
C973 O960 1.243 . S
C974 C975 1.382 . S
C974 C978 1.393 . S
C974 C981 1.500 . S
C975 C974 1.382 . S
C975 C976 1.400 . S
C975 H986 0.930 . S
C976 C975 1.400 . S
C976 C977 1.384 . S
C977 C976 1.384 . S
C977 C979 1.392 . S
C977 H987 0.931 . S
C978 C974 1.393 . S
C978 C979 1.401 . S
C978 H988 0.930 . S
C979 C977 1.392 . S
C979 C978 1.401 . S
C979 H989 0.930 . S
C980 O958 1.262 . S
C980 O959 1.260 . S
C981 Tb917 2.833 . S
C981 O956 1.251 . S
C981 O961 1.256 . S
C981 C974 1.500 . S
H982 C965 0.930 . S
H983 C966 0.931 . S
H984 C967 0.930 . S
H985 C968 0.930 . S
H986 C975 0.930 . S
H987 C977 0.931 . S
H988 C978 0.930 . S
H989 C979 0.930 . S
C990 C991 1.391 . S
C990 C992 1.394 . S
C990 H1006 0.931 . S
C991 C990 1.391 . S
C991 C995 1.376 . S
C992 C990 1.394 . S
C992 C993 1.369 . S
C992 C996 1.531 . S
C993 C992 1.369 . S
C993 C994 1.410 . S
C993 C1001 1.503 . S
C994 C993 1.410 . S
C994 C995 1.392 . S
C994 C997 1.511 . S
C995 C991 1.376 . S
C995 C994 1.392 . S
C995 H1007 0.929 . S
C996 C992 1.531 . S
C996 H1008 0.960 . S
C996 H1009 0.962 . S
C996 H1010 0.960 . S
C997 C994 1.511 . S
C997 H1011 0.961 . S
C997 H1012 0.961 . S
C997 H1013 0.961 . S
C998 C999 1.370 . S
C998 C1000 1.363 . S
C998 H1014 0.931 . S
C999 C998 1.370 . S
C999 C1003 1.408 . S
C1000 C998 1.363 . S
C1000 C1001 1.370 . S
C1000 C1004 1.524 . S
C1001 C993 1.503 . S
C1001 C1000 1.370 . S
C1001 C1002 1.403 . S
C1002 C1001 1.403 . S
C1002 C1003 1.404 . S
C1002 C1005 1.539 . S
C1003 C999 1.408 . S
C1003 C1002 1.404 . S
C1003 H1015 0.930 . S
C1004 C1000 1.524 . S
C1004 H1016 0.956 . S
C1004 H1017 0.961 . S
C1004 H1018 0.961 . S
C1005 C1002 1.539 . S
C1005 H1019 0.958 . S
C1005 H1020 0.961 . S
C1005 H1021 0.960 . S
H1006 C990 0.931 . S
H1007 C995 0.929 . S
H1008 C996 0.960 . S
H1009 C996 0.962 . S
H1010 C996 0.960 . S
H1011 C997 0.961 . S
H1012 C997 0.961 . S
H1013 C997 0.961 . S
H1014 C998 0.931 . S
H1015 C1003 0.930 . S
H1016 C1004 0.956 . S
H1017 C1004 0.961 . S
H1018 C1004 0.961 . S
H1019 C1005 0.958 . S
H1020 C1005 0.961 . S
H1021 C1005 0.960 . S
C1022 C1023 1.391 . S
C1022 C1024 1.394 . S
C1022 H1038 0.931 . S
C1023 C1022 1.391 . S
C1023 C1027 1.376 . S
C1024 C1022 1.394 . S
C1024 C1025 1.369 . S
C1024 C1028 1.531 . S
C1025 C1024 1.369 . S
C1025 C1026 1.410 . S
C1025 C1033 1.503 . S
C1026 C1025 1.410 . S
C1026 C1027 1.392 . S
C1026 C1029 1.511 . S
C1027 C1023 1.376 . S
C1027 C1026 1.392 . S
C1027 H1039 0.929 . S
C1028 C1024 1.531 . S
C1028 H1040 0.960 . S
C1028 H1041 0.962 . S
C1028 H1042 0.960 . S
C1029 C1026 1.511 . S
C1029 H1043 0.961 . S
C1029 H1044 0.961 . S
C1029 H1045 0.961 . S
C1030 C1031 1.370 . S
C1030 C1032 1.363 . S
C1030 H1046 0.931 . S
C1031 C1030 1.370 . S
C1031 C1035 1.408 . S
C1032 C1030 1.363 . S
C1032 C1033 1.370 . S
C1032 C1036 1.524 . S
C1033 C1025 1.503 . S
C1033 C1032 1.370 . S
C1033 C1034 1.403 . S
C1034 C1033 1.403 . S
C1034 C1035 1.404 . S
C1034 C1037 1.539 . S
C1035 C1031 1.408 . S
C1035 C1034 1.404 . S
C1035 H1047 0.930 1_554 S
C1036 C1032 1.524 . S
C1036 H1048 0.956 . S
C1036 H1049 0.961 . S
C1036 H1050 0.961 . S
C1037 C1034 1.539 . S
C1037 H1051 0.959 . S
C1037 H1052 0.961 1_554 S
C1037 H1053 0.960 . S
H1038 C1022 0.931 . S
H1039 C1027 0.929 . S
H1040 C1028 0.960 . S
H1041 C1028 0.962 . S
H1042 C1028 0.960 . S
H1043 C1029 0.961 . S
H1044 C1029 0.961 . S
H1045 C1029 0.961 . S
H1046 C1030 0.931 . S
H1047 C1035 0.930 1_556 S
H1048 C1036 0.956 . S
H1049 C1036 0.961 . S
H1050 C1036 0.961 . S
H1051 C1037 0.959 . S
H1052 C1037 0.961 1_556 S
H1053 C1037 0.960 . S
C1054 C1055 1.391 . S
C1054 C1056 1.394 . S
C1054 H1070 0.931 . S
C1055 C1054 1.391 . S
C1055 C1059 1.376 . S
C1056 C1054 1.394 . S
C1056 C1057 1.369 . S
C1056 C1060 1.531 . S
C1057 C1056 1.369 . S
C1057 C1058 1.410 . S
C1057 C1065 1.503 . S
C1058 C1057 1.410 . S
C1058 C1059 1.392 . S
C1058 C1061 1.511 . S
C1059 C1055 1.376 . S
C1059 C1058 1.392 . S
C1059 H1071 0.929 . S
C1060 C1056 1.531 . S
C1060 H1072 0.960 . S
C1060 H1073 0.962 . S
C1060 H1074 0.960 . S
C1061 C1058 1.511 . S
C1061 H1075 0.961 . S
C1061 H1076 0.961 . S
C1061 H1077 0.961 . S
C1062 C1063 1.370 . S
C1062 C1064 1.363 . S
C1062 H1078 0.931 . S
C1063 C1062 1.370 . S
C1063 C1067 1.408 . S
C1064 C1062 1.363 . S
C1064 C1065 1.370 . S
C1064 C1068 1.524 . S
C1065 C1057 1.503 . S
C1065 C1064 1.370 . S
C1065 C1066 1.403 . S
C1066 C1065 1.403 . S
C1066 C1067 1.404 . S
C1066 C1069 1.539 . S
C1067 C1063 1.408 . S
C1067 C1066 1.404 . S
C1067 H1079 0.930 . S
C1068 C1064 1.524 . S
C1068 H1080 0.956 . S
C1068 H1081 0.961 . S
C1068 H1082 0.961 . S
C1069 C1066 1.539 . S
C1069 H1083 0.958 1_554 S
C1069 H1084 0.961 1_554 S
C1069 H1085 0.960 . S
H1070 C1054 0.931 . S
H1071 C1059 0.929 . S
H1072 C1060 0.960 . S
H1073 C1060 0.962 . S
H1074 C1060 0.960 . S
H1075 C1061 0.961 . S
H1076 C1061 0.961 . S
H1077 C1061 0.961 . S
H1078 C1062 0.931 . S
H1079 C1067 0.930 . S
H1080 C1068 0.956 . S
H1081 C1068 0.961 . S
H1082 C1068 0.961 . S
H1083 C1069 0.958 1_556 S
H1084 C1069 0.961 1_556 S
H1085 C1069 0.960 . S
C1086 C1087 1.391 . S
C1086 C1088 1.394 . S
C1086 H1102 0.931 . S
C1087 C1086 1.391 . S
C1087 C1091 1.376 . S
C1088 C1086 1.394 . S
C1088 C1089 1.369 . S
C1088 C1092 1.531 1_556 S
C1089 C1088 1.369 . S
C1089 C1090 1.410 . S
C1089 C1097 1.503 . S
C1090 C1089 1.410 . S
C1090 C1091 1.392 . S
C1090 C1093 1.511 . S
C1091 C1087 1.376 . S
C1091 C1090 1.392 . S
C1091 H1103 0.929 . S
C1092 C1088 1.531 1_554 S
C1092 H1104 0.960 . S
C1092 H1105 0.962 . S
C1092 H1106 0.960 . S
C1093 C1090 1.511 . S
C1093 H1107 0.961 . S
C1093 H1108 0.961 . S
C1093 H1109 0.961 . S
C1094 C1095 1.370 . S
C1094 C1096 1.363 . S
C1094 H1110 0.931 . S
C1095 C1094 1.370 . S
C1095 C1099 1.408 1_556 S
C1096 C1094 1.363 . S
C1096 C1097 1.370 . S
C1096 C1100 1.524 . S
C1097 C1089 1.503 . S
C1097 C1096 1.370 . S
C1097 C1098 1.403 1_556 S
C1098 C1097 1.403 1_554 S
C1098 C1099 1.404 . S
C1098 C1101 1.539 . S
C1099 C1095 1.408 1_554 S
C1099 C1098 1.404 . S
C1099 H1111 0.930 . S
C1100 C1096 1.524 . S
C1100 H1112 0.956 . S
C1100 H1113 0.961 . S
C1100 H1114 0.961 . S
C1101 C1098 1.539 . S
C1101 H1115 0.958 . S
C1101 H1116 0.961 . S
C1101 H1117 0.960 . S
H1102 C1086 0.931 . S
H1103 C1091 0.929 . S
H1104 C1092 0.960 . S
H1105 C1092 0.962 . S
H1106 C1092 0.960 . S
H1107 C1093 0.961 . S
H1108 C1093 0.961 . S
H1109 C1093 0.961 . S
H1110 C1094 0.931 . S
H1111 C1099 0.930 . S
H1112 C1100 0.956 . S
H1113 C1100 0.961 . S
H1114 C1100 0.961 . S
H1115 C1101 0.958 . S
H1116 C1101 0.961 . S
H1117 C1101 0.960 . S
C1118 C1119 1.391 . S
C1118 C1120 1.394 . S
C1118 H1134 0.931 . S
C1119 C1118 1.391 . S
C1119 C1123 1.376 . S
C1120 C1118 1.394 . S
C1120 C1121 1.369 . S
C1120 C1124 1.531 . S
C1121 C1120 1.369 . S
C1121 C1122 1.410 . S
C1121 C1129 1.503 . S
C1122 C1121 1.410 . S
C1122 C1123 1.392 . S
C1122 C1125 1.511 1_556 S
C1123 C1119 1.376 . S
C1123 C1122 1.392 . S
C1123 H1135 0.929 . S
C1124 C1120 1.531 . S
C1124 H1136 0.960 . S
C1124 H1137 0.962 . S
C1124 H1138 0.960 . S
C1125 C1122 1.511 1_554 S
C1125 H1139 0.961 . S
C1125 H1140 0.961 . S
C1125 H1141 0.961 . S
C1126 C1127 1.370 . S
C1126 C1128 1.363 . S
C1126 H1142 0.931 . S
C1127 C1126 1.370 . S
C1127 C1131 1.408 . S
C1128 C1126 1.363 . S
C1128 C1129 1.370 1_554 S
C1128 C1132 1.524 . S
C1129 C1121 1.503 . S
C1129 C1128 1.370 1_556 S
C1129 C1130 1.403 . S
C1130 C1129 1.403 . S
C1130 C1131 1.404 1_556 S
C1130 C1133 1.539 . S
C1131 C1127 1.408 . S
C1131 C1130 1.404 1_554 S
C1131 H1143 0.924 1_554 S
C1132 C1128 1.524 . S
C1132 H1144 0.956 1_554 S
C1132 H1145 0.961 . S
C1132 H1146 0.961 . S
C1133 C1130 1.539 . S
C1133 H1147 0.958 . S
C1133 H1148 0.961 . S
C1133 H1149 0.960 . S
H1134 C1118 0.931 . S
H1135 C1123 0.929 . S
H1136 C1124 0.960 . S
H1137 C1124 0.962 . S
H1138 C1124 0.960 . S
H1139 C1125 0.961 . S
H1140 C1125 0.961 . S
H1141 C1125 0.961 . S
H1142 C1126 0.931 . S
H1143 C1131 0.924 1_556 S
H1144 C1132 0.956 1_556 S
H1145 C1132 0.961 . S
H1146 C1132 0.961 . S
H1147 C1133 0.958 . S
H1148 C1133 0.961 . S
H1149 C1133 0.960 . S
C1150 C1151 1.391 . S
C1150 C1152 1.394 . S
C1150 H1166 0.931 . S
C1151 C1150 1.391 . S
C1151 C1155 1.376 . S
C1152 C1150 1.394 . S
C1152 C1153 1.369 . S
C1152 C1156 1.531 1_556 S
C1153 C1152 1.369 . S
C1153 C1154 1.410 . S
C1153 C1161 1.503 . S
C1154 C1153 1.410 . S
C1154 C1155 1.392 . S
C1154 C1157 1.511 . S
C1155 C1151 1.376 . S
C1155 C1154 1.392 . S
C1155 H1167 0.929 . S
C1156 C1152 1.531 1_554 S
C1156 H1168 0.960 . S
C1156 H1169 0.962 . S
C1156 H1170 0.960 . S
C1157 C1154 1.511 . S
C1157 H1171 0.961 . S
C1157 H1172 0.961 . S
C1157 H1173 0.961 . S
C1158 C1159 1.370 . S
C1158 C1160 1.363 . S
C1158 H1174 0.931 . S
C1159 C1158 1.370 . S
C1159 C1163 1.408 1_554 S
C1160 C1158 1.363 . S
C1160 C1161 1.370 1_554 S
C1160 C1164 1.524 . S
C1161 C1153 1.503 . S
C1161 C1160 1.370 1_556 S
C1161 C1162 1.403 . S
C1162 C1161 1.403 . S
C1162 C1163 1.404 . S
C1162 C1165 1.539 . S
C1163 C1159 1.408 1_556 S
C1163 C1162 1.404 . S
C1163 H1175 0.930 . S
C1164 C1160 1.524 . S
C1164 H1176 0.956 . S
C1164 H1177 0.961 . S
C1164 H1178 0.961 . S
C1165 C1162 1.539 . S
C1165 H1179 0.958 . S
C1165 H1180 0.961 . S
C1165 H1181 0.960 . S
H1166 C1150 0.931 . S
H1167 C1155 0.929 . S
H1168 C1156 0.960 . S
H1169 C1156 0.962 . S
H1170 C1156 0.960 . S
H1171 C1157 0.961 . S
H1172 C1157 0.961 . S
H1173 C1157 0.961 . S
H1174 C1158 0.931 . S
H1175 C1163 0.930 . S
H1176 C1164 0.956 . S
H1177 C1164 0.961 . S
H1178 C1164 0.961 . S
H1179 C1165 0.958 . S
H1180 C1165 0.961 . S
H1181 C1165 0.960 . S
C1182 C1183 1.391 . S
C1182 C1184 1.394 . S
C1182 H1198 0.931 . S
C1183 C1182 1.391 . S
C1183 C1187 1.376 . S
C1184 C1182 1.394 . S
C1184 C1185 1.369 . S
C1184 C1188 1.531 1_556 S
C1185 C1184 1.369 . S
C1185 C1186 1.410 . S
C1185 C1193 1.503 . S
C1186 C1185 1.410 . S
C1186 C1187 1.392 . S
C1186 C1189 1.511 . S
C1187 C1183 1.376 . S
C1187 C1186 1.392 . S
C1187 H1199 0.929 . S
C1188 C1184 1.531 1_554 S
C1188 H1200 0.960 . S
C1188 H1201 0.938 1_554 S
C1188 H1202 0.960 . S
C1189 C1186 1.511 . S
C1189 H1203 0.961 . S
C1189 H1204 0.961 . S
C1189 H1205 0.961 . S
C1190 C1191 1.370 1_556 S
C1190 C1192 1.363 . S
C1190 H1206 0.931 . S
C1191 C1190 1.370 1_554 S
C1191 C1195 1.408 . S
C1192 C1190 1.363 . S
C1192 C1193 1.370 . S
C1192 C1196 1.524 . S
C1193 C1185 1.503 . S
C1193 C1192 1.370 . S
C1193 C1194 1.403 1_556 S
C1194 C1193 1.403 1_554 S
C1194 C1195 1.404 . S
C1194 C1197 1.539 . S
C1195 C1191 1.408 . S
C1195 C1194 1.404 . S
C1195 H1207 0.930 . S
C1196 C1192 1.524 . S
C1196 H1208 0.956 . S
C1196 H1209 0.961 . S
C1196 H1210 0.961 . S
C1197 C1194 1.539 . S
C1197 H1211 0.958 . S
C1197 H1212 0.961 . S
C1197 H1213 0.960 . S
H1198 C1182 0.931 . S
H1199 C1187 0.929 . S
H1200 C1188 0.960 . S
H1201 C1188 0.938 1_556 S
H1202 C1188 0.960 . S
H1203 C1189 0.961 . S
H1204 C1189 0.961 . S
H1205 C1189 0.961 . S
H1206 C1190 0.931 . S
H1207 C1195 0.930 . S
H1208 C1196 0.956 . S
H1209 C1196 0.961 . S
H1210 C1196 0.961 . S
H1211 C1197 0.958 . S
H1212 C1197 0.961 . S
H1213 C1197 0.960 . S
C1214 C1215 1.391 . S
C1214 C1216 1.394 . S
C1214 H1230 0.931 . S
C1215 C1214 1.391 . S
C1215 C1219 1.376 . S
C1216 C1214 1.394 . S
C1216 C1217 1.369 . S
C1216 C1220 1.531 . S
C1217 C1216 1.369 . S
C1217 C1218 1.410 . S
C1217 C1225 1.503 . S
C1218 C1217 1.410 . S
C1218 C1219 1.392 . S
C1218 C1221 1.511 1_556 S
C1219 C1215 1.376 . S
C1219 C1218 1.392 . S
C1219 H1231 0.929 . S
C1220 C1216 1.531 . S
C1220 H1232 0.960 . S
C1220 H1233 0.962 . S
C1220 H1234 0.960 . S
C1221 C1218 1.511 1_554 S
C1221 H1235 0.961 . S
C1221 H1236 0.961 . S
C1221 H1237 0.961 . S
C1222 C1223 1.370 . S
C1222 C1224 1.363 . S
C1222 H1238 0.931 . S
C1223 C1222 1.370 . S
C1223 C1227 1.408 . S
C1224 C1222 1.363 . S
C1224 C1225 1.370 . S
C1224 C1228 1.524 . S
C1225 C1217 1.503 . S
C1225 C1224 1.370 . S
C1225 C1226 1.403 . S
C1226 C1225 1.403 . S
C1226 C1227 1.404 . S
C1226 C1229 1.539 . S
C1227 C1223 1.408 . S
C1227 C1226 1.404 . S
C1227 H1239 0.921 1_556 S
C1228 C1224 1.524 . S
C1228 H1240 0.956 . S
C1228 H1241 0.961 . S
C1228 H1242 0.961 . S
C1229 C1226 1.539 . S
C1229 H1243 0.958 . S
C1229 H1244 0.961 1_556 S
C1229 H1245 0.960 . S
H1230 C1214 0.931 . S
H1231 C1219 0.929 . S
H1232 C1220 0.960 . S
H1233 C1220 0.962 . S
H1234 C1220 0.960 . S
H1235 C1221 0.961 . S
H1236 C1221 0.961 . S
H1237 C1221 0.961 . S
H1238 C1222 0.931 . S
H1239 C1227 0.921 1_554 S
H1240 C1228 0.956 . S
H1241 C1228 0.961 . S
H1242 C1228 0.961 . S
H1243 C1229 0.958 . S
H1244 C1229 0.961 1_554 S
H1245 C1229 0.960 . S
C1246 C1247 1.391 . S
C1246 C1248 1.394 . S
C1246 H1262 0.931 . S
C1247 C1246 1.391 . S
C1247 C1251 1.376 . S
C1248 C1246 1.394 . S
C1248 C1249 1.378 . S
C1248 C1252 1.531 1_556 S
C1249 C1248 1.378 . S
C1249 C1250 1.423 . S
C1249 C1257 1.487 1_556 S
C1250 C1249 1.423 . S
C1250 C1251 1.392 . S
C1250 C1253 1.511 . S
C1251 C1247 1.376 . S
C1251 C1250 1.392 . S
C1251 H1263 0.929 . S
C1252 C1248 1.531 1_554 S
C1252 H1264 0.960 . S
C1252 H1265 0.962 1_554 S
C1252 H1266 0.960 . S
C1253 C1250 1.511 . S
C1253 H1267 0.961 . S
C1253 H1268 0.961 . S
C1253 H1269 0.961 1_556 S
C1254 C1255 1.370 1_556 S
C1254 C1256 1.363 . S
C1254 H1270 0.931 . S
C1255 C1254 1.370 1_554 S
C1255 C1259 1.408 . S
C1256 C1254 1.363 . S
C1256 C1257 1.370 1_556 S
C1256 C1260 1.524 . S
C1257 C1249 1.487 1_554 S
C1257 C1256 1.370 1_554 S
C1257 C1258 1.403 . S
C1258 C1257 1.403 . S
C1258 C1259 1.404 . S
C1258 C1261 1.539 . S
C1259 C1255 1.408 . S
C1259 C1258 1.404 . S
C1259 H1271 0.930 . S
C1260 C1256 1.524 . S
C1260 H1272 0.956 . S
C1260 H1273 0.961 . S
C1260 H1274 0.961 . S
C1261 C1258 1.539 . S
C1261 H1275 0.958 . S
C1261 H1276 0.961 . S
C1261 H1277 0.960 . S
H1262 C1246 0.931 . S
H1263 C1251 0.929 . S
H1264 C1252 0.960 . S
H1265 C1252 0.962 1_556 S
H1266 C1252 0.960 . S
H1267 C1253 0.961 . S
H1268 C1253 0.961 . S
H1269 C1253 0.961 1_554 S
H1270 C1254 0.931 . S
H1271 C1259 0.930 . S
H1272 C1260 0.956 . S
H1273 C1260 0.961 . S
H1274 C1260 0.961 . S
H1275 C1261 0.958 . S
H1276 C1261 0.961 . S
H1277 C1261 0.960 . S
C1278 C1279 1.391 . S
C1278 C1280 1.394 . S
C1278 H1294 0.931 . S
C1279 C1278 1.391 . S
C1279 C1283 1.376 . S
C1280 C1278 1.394 . S
C1280 C1281 1.369 . S
C1280 C1284 1.531 . S
C1281 C1280 1.369 . S
C1281 C1282 1.410 . S
C1281 C1289 1.503 . S
C1282 C1281 1.410 . S
C1282 C1283 1.392 . S
C1282 C1285 1.511 . S
C1283 C1279 1.376 . S
C1283 C1282 1.392 . S
C1283 H1295 0.929 . S
C1284 C1280 1.531 . S
C1284 H1296 0.960 . S
C1284 H1297 0.962 . S
C1284 H1298 0.960 . S
C1285 C1282 1.511 . S
C1285 H1299 0.961 . S
C1285 H1300 0.961 . S
C1285 H1301 0.961 . S
C1286 C1287 1.370 . S
C1286 C1288 1.363 . S
C1286 H1302 0.931 . S
C1287 C1286 1.370 . S
C1287 C1291 1.408 . S
C1288 C1286 1.363 . S
C1288 C1289 1.370 . S
C1288 C1292 1.524 . S
C1289 C1281 1.503 . S
C1289 C1288 1.370 . S
C1289 C1290 1.403 . S
C1290 C1289 1.403 . S
C1290 C1291 1.404 . S
C1290 C1293 1.539 . S
C1291 C1287 1.408 . S
C1291 C1290 1.404 . S
C1291 H1303 0.930 . S
C1292 C1288 1.524 . S
C1292 H1304 0.956 . S
C1292 H1305 0.961 . S
C1292 H1306 0.961 1_554 S
C1293 C1290 1.539 . S
C1293 H1307 0.958 . S
C1293 H1308 0.961 . S
C1293 H1309 0.960 . S
H1294 C1278 0.931 . S
H1295 C1283 0.929 . S
H1296 C1284 0.960 . S
H1297 C1284 0.962 . S
H1298 C1284 0.960 . S
H1299 C1285 0.961 . S
H1300 C1285 0.961 . S
H1301 C1285 0.961 . S
H1302 C1286 0.931 . S
H1303 C1291 0.930 . S
H1304 C1292 0.956 . S
H1305 C1292 0.961 . S
H1306 C1292 0.961 1_556 S
H1307 C1293 0.958 . S
H1308 C1293 0.961 . S
H1309 C1293 0.960 . S
C1310 C1311 1.391 . S
C1310 C1312 1.394 . S
C1310 H1326 0.931 . S
C1311 C1310 1.391 . S
C1311 C1315 1.376 . S
C1312 C1310 1.394 . S
C1312 C1313 1.369 . S
C1312 C1316 1.531 . S
C1313 C1312 1.369 . S
C1313 C1314 1.410 . S
C1313 C1321 1.503 . S
C1314 C1313 1.410 . S
C1314 C1315 1.392 . S
C1314 C1317 1.511 . S
C1315 C1311 1.376 . S
C1315 C1314 1.392 . S
C1315 H1327 0.929 . S
C1316 C1312 1.531 . S
C1316 H1328 0.960 . S
C1316 H1329 0.962 . S
C1316 H1330 0.960 . S
C1317 C1314 1.511 . S
C1317 H1331 0.961 . S
C1317 H1332 0.961 . S
C1317 H1333 0.961 . S
C1318 C1319 1.370 . S
C1318 C1320 1.363 . S
C1318 H1334 0.931 . S
C1319 C1318 1.370 . S
C1319 C1323 1.408 . S
C1320 C1318 1.363 . S
C1320 C1321 1.370 . S
C1320 C1324 1.524 . S
C1321 C1313 1.503 . S
C1321 C1320 1.370 . S
C1321 C1322 1.403 . S
C1322 C1321 1.403 . S
C1322 C1323 1.404 . S
C1322 C1325 1.539 . S
C1323 C1319 1.408 . S
C1323 C1322 1.404 . S
C1323 H1335 0.930 . S
C1324 C1320 1.524 . S
C1324 H1336 0.956 . S
C1324 H1337 0.961 . S
C1324 H1338 0.961 . S
C1325 C1322 1.539 . S
C1325 H1339 0.958 . S
C1325 H1340 0.961 . S
C1325 H1341 0.960 . S
H1326 C1310 0.931 . S
H1327 C1315 0.929 . S
H1328 C1316 0.960 . S
H1329 C1316 0.962 . S
H1330 C1316 0.960 . S
H1331 C1317 0.961 . S
H1332 C1317 0.961 . S
H1333 C1317 0.961 . S
H1334 C1318 0.931 . S
H1335 C1323 0.930 . S
H1336 C1324 0.956 . S
H1337 C1324 0.961 . S
H1338 C1324 0.961 . S
H1339 C1325 0.958 . S
H1340 C1325 0.961 . S
H1341 C1325 0.960 . S
C1342 C1343 1.391 . S
C1342 C1344 1.394 . S
C1342 H1358 0.931 . S
C1343 C1342 1.391 . S
C1343 C1347 1.376 . S
C1344 C1342 1.394 . S
C1344 C1345 1.369 . S
C1344 C1348 1.531 . S
C1345 C1344 1.369 . S
C1345 C1346 1.410 . S
C1345 C1353 1.503 . S
C1346 C1345 1.410 . S
C1346 C1347 1.392 . S
C1346 C1349 1.511 . S
C1347 C1343 1.376 . S
C1347 C1346 1.392 . S
C1347 H1359 0.929 . S
C1348 C1344 1.531 . S
C1348 H1360 0.960 . S
C1348 H1361 0.962 . S
C1348 H1362 0.960 . S
C1349 C1346 1.511 . S
C1349 H1363 0.961 . S
C1349 H1364 0.961 . S
C1349 H1365 0.961 . S
C1350 C1351 1.370 . S
C1350 C1352 1.363 . S
C1350 H1366 0.931 . S
C1351 C1350 1.370 . S
C1351 C1355 1.408 . S
C1352 C1350 1.363 . S
C1352 C1353 1.370 . S
C1352 C1356 1.524 . S
C1353 C1345 1.503 . S
C1353 C1352 1.370 . S
C1353 C1354 1.403 . S
C1354 C1353 1.403 . S
C1354 C1355 1.404 . S
C1354 C1357 1.539 . S
C1355 C1351 1.408 . S
C1355 C1354 1.404 . S
C1355 H1367 0.930 . S
C1356 C1352 1.524 . S
C1356 H1368 0.956 . S
C1356 H1369 0.961 . S
C1356 H1370 0.961 1_554 S
C1357 C1354 1.539 . S
C1357 H1371 0.958 . S
C1357 H1372 0.961 . S
C1357 H1373 0.960 . S
H1358 C1342 0.931 . S
H1359 C1347 0.929 . S
H1360 C1348 0.960 . S
H1361 C1348 0.962 . S
H1362 C1348 0.960 . S
H1363 C1349 0.961 . S
H1364 C1349 0.961 . S
H1365 C1349 0.961 . S
H1366 C1350 0.931 . S
H1367 C1355 0.930 . S
H1368 C1356 0.956 . S
H1369 C1356 0.961 . S
H1370 C1356 0.961 1_556 S
H1371 C1357 0.958 . S
H1372 C1357 0.961 . S
H1373 C1357 0.960 . S
C1374 C1375 1.391 . S
C1374 C1376 1.394 . S
C1374 H1390 0.931 . S
C1375 C1374 1.391 . S
C1375 C1379 1.376 . S
C1376 C1374 1.394 . S
C1376 C1377 1.369 . S
C1376 C1380 1.531 . S
C1377 C1376 1.369 . S
C1377 C1378 1.410 . S
C1377 C1385 1.503 1_655 S
C1378 C1377 1.410 . S
C1378 C1379 1.392 . S
C1378 C1381 1.511 1_655 S
C1379 C1375 1.376 . S
C1379 C1378 1.392 . S
C1379 H1391 0.929 . S
C1380 C1376 1.531 . S
C1380 H1392 0.960 1_655 S
C1380 H1393 0.962 . S
C1380 H1394 0.960 . S
C1381 C1378 1.511 1_455 S
C1381 H1395 0.961 . S
C1381 H1396 0.961 . S
C1381 H1397 0.961 . S
C1382 C1383 1.370 . S
C1382 C1384 1.363 . S
C1382 H1398 0.931 . S
C1383 C1382 1.370 . S
C1383 C1387 1.408 . S
C1384 C1382 1.363 . S
C1384 C1385 1.370 . S
C1384 C1388 1.524 . S
C1385 C1377 1.503 1_455 S
C1385 C1384 1.370 . S
C1385 C1386 1.403 . S
C1386 C1385 1.403 . S
C1386 C1387 1.404 . S
C1386 C1389 1.539 . S
C1387 C1383 1.408 . S
C1387 C1386 1.404 . S
C1387 H1399 0.930 . S
C1388 C1384 1.524 . S
C1388 H1400 0.956 . S
C1388 H1401 0.961 . S
C1388 H1402 0.961 . S
C1389 C1386 1.539 . S
C1389 H1403 0.958 . S
C1389 H1404 0.961 . S
C1389 H1405 0.960 . S
H1390 C1374 0.931 . S
H1391 C1379 0.929 . S
H1392 C1380 0.960 1_455 S
H1393 C1380 0.962 . S
H1394 C1380 0.960 . S
H1395 C1381 0.961 . S
H1396 C1381 0.961 . S
H1397 C1381 0.961 . S
H1398 C1382 0.931 . S
H1399 C1387 0.930 . S
H1400 C1388 0.956 . S
H1401 C1388 0.961 . S
H1402 C1388 0.961 . S
H1403 C1389 0.958 . S
H1404 C1389 0.961 . S
H1405 C1389 0.960 . S
C1406 C1407 1.391 . S
C1406 C1408 1.394 . S
C1406 H1422 0.931 . S
C1407 C1406 1.391 . S
C1407 C1411 1.376 . S
C1408 C1406 1.394 . S
C1408 C1409 1.369 . S
C1408 C1412 1.531 . S
C1409 C1408 1.369 . S
C1409 C1410 1.410 . S
C1409 C1417 1.503 . S
C1410 C1409 1.410 . S
C1410 C1411 1.392 . S
C1410 C1413 1.511 . S
C1411 C1407 1.376 . S
C1411 C1410 1.392 . S
C1411 H1423 0.929 . S
C1412 C1408 1.531 . S
C1412 H1424 0.960 . S
C1412 H1425 0.962 . S
C1412 H1426 0.960 . S
C1413 C1410 1.511 . S
C1413 H1427 0.961 . S
C1413 H1428 0.961 . S
C1413 H1429 0.961 . S
C1414 C1415 1.370 . S
C1414 C1416 1.363 . S
C1414 H1430 0.931 . S
C1415 C1414 1.370 . S
C1415 C1419 1.408 . S
C1416 C1414 1.363 . S
C1416 C1417 1.370 . S
C1416 C1420 1.524 . S
C1417 C1409 1.503 . S
C1417 C1416 1.370 . S
C1417 C1418 1.403 . S
C1418 C1417 1.403 . S
C1418 C1419 1.404 . S
C1418 C1421 1.539 . S
C1419 C1415 1.408 . S
C1419 C1418 1.404 . S
C1419 H1431 0.930 . S
C1420 C1416 1.524 . S
C1420 H1432 0.956 . S
C1420 H1433 0.961 . S
C1420 H1434 0.961 . S
C1421 C1418 1.539 . S
C1421 H1435 0.958 . S
C1421 H1436 0.961 . S
C1421 H1437 0.960 . S
H1422 C1406 0.931 . S
H1423 C1411 0.929 . S
H1424 C1412 0.960 . S
H1425 C1412 0.962 . S
H1426 C1412 0.960 . S
H1427 C1413 0.961 . S
H1428 C1413 0.961 . S
H1429 C1413 0.961 . S
H1430 C1414 0.931 . S
H1431 C1419 0.930 . S
H1432 C1420 0.956 . S
H1433 C1420 0.961 . S
H1434 C1420 0.961 . S
H1435 C1421 0.958 . S
H1436 C1421 0.961 . S
H1437 C1421 0.960 . S
C1438 C1439 1.391 . S
C1438 C1440 1.394 . S
C1438 H1454 0.931 . S
C1439 C1438 1.391 . S
C1439 C1443 1.376 . S
C1440 C1438 1.394 . S
C1440 C1441 1.369 1_545 S
C1440 C1444 1.531 1_545 S
C1441 C1440 1.369 1_565 S
C1441 C1442 1.410 1_565 S
C1441 C1449 1.503 . S
C1442 C1441 1.410 1_545 S
C1442 C1443 1.392 . S
C1442 C1445 1.511 1_545 S
C1443 C1439 1.376 . S
C1443 C1442 1.392 . S
C1443 H1455 0.929 . S
C1444 C1440 1.531 1_565 S
C1444 H1456 0.960 . S
C1444 H1457 0.962 . S
C1444 H1458 0.960 . S
C1445 C1442 1.511 1_565 S
C1445 H1459 0.961 1_565 S
C1445 H1460 0.961 . S
C1445 H1461 0.961 . S
C1446 C1447 1.370 . S
C1446 C1448 1.363 . S
C1446 H1462 0.931 . S
C1447 C1446 1.370 . S
C1447 C1451 1.408 . S
C1448 C1446 1.363 . S
C1448 C1449 1.370 . S
C1448 C1452 1.524 . S
C1449 C1441 1.503 . S
C1449 C1448 1.370 . S
C1449 C1450 1.403 . S
C1450 C1449 1.403 . S
C1450 C1451 1.404 . S
C1450 C1453 1.539 . S
C1451 C1447 1.408 . S
C1451 C1450 1.404 . S
C1451 H1463 0.930 . S
C1452 C1448 1.524 . S
C1452 H1464 0.956 . S
C1452 H1465 0.961 . S
C1452 H1466 0.961 . S
C1453 C1450 1.539 . S
C1453 H1467 0.958 . S
C1453 H1468 0.961 . S
C1453 H1469 0.960 . S
H1454 C1438 0.931 . S
H1455 C1443 0.929 . S
H1456 C1444 0.960 . S
H1457 C1444 0.962 . S
H1458 C1444 0.960 . S
H1459 C1445 0.961 1_545 S
H1460 C1445 0.961 . S
H1461 C1445 0.961 . S
H1462 C1446 0.931 . S
H1463 C1451 0.930 . S
H1464 C1452 0.956 . S
H1465 C1452 0.961 . S
H1466 C1452 0.961 . S
H1467 C1453 0.958 . S
H1468 C1453 0.961 . S
H1469 C1453 0.960 . S
C1470 C1471 1.391 . S
C1470 C1472 1.394 . S
C1470 H1486 0.931 . S
C1471 C1470 1.391 . S
C1471 C1475 1.376 . S
C1472 C1470 1.394 . S
C1472 C1473 1.369 . S
C1472 C1476 1.531 . S
C1473 C1472 1.369 . S
C1473 C1474 1.410 . S
C1473 C1481 1.503 . S
C1474 C1473 1.410 . S
C1474 C1475 1.392 . S
C1474 C1477 1.511 . S
C1475 C1471 1.376 . S
C1475 C1474 1.392 . S
C1475 H1487 0.929 . S
C1476 C1472 1.531 . S
C1476 H1488 0.960 . S
C1476 H1489 0.962 . S
C1476 H1490 0.960 . S
C1477 C1474 1.511 . S
C1477 H1491 0.961 . S
C1477 H1492 0.961 . S
C1477 H1493 0.961 . S
C1478 C1479 1.370 . S
C1478 C1480 1.363 . S
C1478 H1494 0.931 . S
C1479 C1478 1.370 . S
C1479 C1483 1.408 . S
C1480 C1478 1.363 . S
C1480 C1481 1.370 . S
C1480 C1484 1.524 . S
C1481 C1473 1.503 . S
C1481 C1480 1.370 . S
C1481 C1482 1.403 . S
C1482 C1481 1.403 . S
C1482 C1483 1.404 . S
C1482 C1485 1.539 . S
C1483 C1479 1.408 . S
C1483 C1482 1.404 . S
C1483 H1495 0.930 . S
C1484 C1480 1.524 . S
C1484 H1496 0.956 . S
C1484 H1497 0.961 . S
C1484 H1498 0.961 . S
C1485 C1482 1.539 . S
C1485 H1499 0.958 . S
C1485 H1500 0.961 . S
C1485 H1501 0.960 . S
H1486 C1470 0.931 . S
H1487 C1475 0.929 . S
H1488 C1476 0.960 . S
H1489 C1476 0.962 . S
H1490 C1476 0.960 . S
H1491 C1477 0.961 . S
H1492 C1477 0.961 . S
H1493 C1477 0.961 . S
H1494 C1478 0.931 . S
H1495 C1483 0.930 . S
H1496 C1484 0.956 . S
H1497 C1484 0.961 . S
H1498 C1484 0.961 . S
H1499 C1485 0.958 . S
H1500 C1485 0.961 . S
H1501 C1485 0.960 . S
C1502 C1503 1.391 . S
C1502 C1504 1.394 . S
C1502 H1518 0.931 . S
C1503 C1502 1.391 . S
C1503 C1507 1.376 . S
C1504 C1502 1.394 . S
C1504 C1505 1.369 . S
C1504 C1508 1.531 . S
C1505 C1504 1.369 . S
C1505 C1506 1.410 . S
C1505 C1513 1.503 . S
C1506 C1505 1.410 . S
C1506 C1507 1.392 . S
C1506 C1509 1.511 . S
C1507 C1503 1.376 . S
C1507 C1506 1.392 . S
C1507 H1519 0.929 . S
C1508 C1504 1.531 . S
C1508 H1520 0.960 . S
C1508 H1521 0.962 . S
C1508 H1522 0.960 . S
C1509 C1506 1.511 . S
C1509 H1523 0.961 . S
C1509 H1524 0.961 . S
C1509 H1525 0.961 . S
C1510 C1511 1.370 . S
C1510 C1512 1.363 . S
C1510 H1526 0.931 . S
C1511 C1510 1.370 . S
C1511 C1515 1.408 . S
C1512 C1510 1.363 . S
C1512 C1513 1.370 . S
C1512 C1516 1.524 . S
C1513 C1505 1.503 . S
C1513 C1512 1.370 . S
C1513 C1514 1.403 . S
C1514 C1513 1.403 . S
C1514 C1515 1.404 . S
C1514 C1517 1.539 . S
C1515 C1511 1.408 . S
C1515 C1514 1.404 . S
C1515 H1527 0.930 . S
C1516 C1512 1.524 . S
C1516 H1528 0.956 . S
C1516 H1529 0.961 . S
C1516 H1530 0.961 . S
C1517 C1514 1.539 . S
C1517 H1531 0.958 . S
C1517 H1532 0.961 . S
C1517 H1533 0.960 . S
H1518 C1502 0.931 . S
H1519 C1507 0.929 . S
H1520 C1508 0.960 . S
H1521 C1508 0.962 . S
H1522 C1508 0.960 . S
H1523 C1509 0.961 . S
H1524 C1509 0.961 . S
H1525 C1509 0.961 . S
H1526 C1510 0.931 . S
H1527 C1515 0.930 . S
H1528 C1516 0.956 . S
H1529 C1516 0.961 . S
H1530 C1516 0.961 . S
H1531 C1517 0.958 . S
H1532 C1517 0.961 . S
H1533 C1517 0.960 . S
C1534 C1535 1.391 . S
C1534 C1536 1.394 . S
C1534 H1550 0.931 . S
C1535 C1534 1.391 . S
C1535 C1539 1.376 . S
C1536 C1534 1.394 . S
C1536 C1537 1.369 . S
C1536 C1540 1.531 . S
C1537 C1536 1.369 . S
C1537 C1538 1.410 . S
C1537 C1545 1.503 . S
C1538 C1537 1.410 . S
C1538 C1539 1.392 . S
C1538 C1541 1.511 . S
C1539 C1535 1.376 . S
C1539 C1538 1.392 . S
C1539 H1551 0.929 . S
C1540 C1536 1.531 . S
C1540 H1552 0.960 . S
C1540 H1553 0.962 . S
C1540 H1554 0.960 . S
C1541 C1538 1.511 . S
C1541 H1555 0.961 . S
C1541 H1556 0.961 . S
C1541 H1557 0.961 . S
C1542 C1543 1.370 . S
C1542 C1544 1.363 . S
C1542 H1558 0.931 . S
C1543 C1542 1.370 . S
C1543 C1547 1.408 . S
C1544 C1542 1.363 . S
C1544 C1545 1.370 . S
C1544 C1548 1.524 . S
C1545 C1537 1.503 . S
C1545 C1544 1.370 . S
C1545 C1546 1.403 . S
C1546 C1545 1.403 . S
C1546 C1547 1.404 . S
C1546 C1549 1.539 . S
C1547 C1543 1.408 . S
C1547 C1546 1.404 . S
C1547 H1559 0.930 . S
C1548 C1544 1.524 . S
C1548 H1560 0.956 . S
C1548 H1561 0.961 . S
C1548 H1562 0.961 . S
C1549 C1546 1.539 . S
C1549 H1563 0.958 . S
C1549 H1564 0.961 . S
C1549 H1565 0.960 . S
H1550 C1534 0.931 . S
H1551 C1539 0.929 . S
H1552 C1540 0.960 . S
H1553 C1540 0.962 . S
H1554 C1540 0.960 . S
H1555 C1541 0.961 . S
H1556 C1541 0.961 . S
H1557 C1541 0.961 . S
H1558 C1542 0.931 . S
H1559 C1547 0.930 . S
H1560 C1548 0.956 . S
H1561 C1548 0.961 . S
H1562 C1548 0.961 . S
H1563 C1549 0.958 . S
H1564 C1549 0.961 . S
H1565 C1549 0.960 . S
C1566 C1567 1.391 . S
C1566 C1568 1.394 . S
C1566 H1582 0.931 . S
C1567 C1566 1.391 . S
C1567 C1571 1.376 . S
C1568 C1566 1.394 . S
C1568 C1569 1.369 . S
C1568 C1572 1.531 . S
C1569 C1568 1.369 . S
C1569 C1570 1.410 . S
C1569 C1577 1.503 . S
C1570 C1569 1.410 . S
C1570 C1571 1.392 . S
C1570 C1573 1.511 . S
C1571 C1567 1.376 . S
C1571 C1570 1.392 . S
C1571 H1583 0.929 . S
C1572 C1568 1.531 . S
C1572 H1584 0.960 . S
C1572 H1585 0.962 . S
C1572 H1586 0.960 . S
C1573 C1570 1.511 . S
C1573 H1587 0.961 . S
C1573 H1588 0.961 . S
C1573 H1589 0.961 . S
C1574 C1575 1.370 . S
C1574 C1576 1.363 . S
C1574 H1590 0.931 . S
C1575 C1574 1.370 . S
C1575 C1579 1.408 . S
C1576 C1574 1.363 . S
C1576 C1577 1.370 . S
C1576 C1580 1.524 . S
C1577 C1569 1.503 . S
C1577 C1576 1.370 . S
C1577 C1578 1.403 . S
C1578 C1577 1.403 . S
C1578 C1579 1.404 . S
C1578 C1581 1.539 . S
C1579 C1575 1.408 . S
C1579 C1578 1.404 . S
C1579 H1591 0.930 . S
C1580 C1576 1.524 . S
C1580 H1592 0.956 . S
C1580 H1593 0.961 . S
C1580 H1594 0.961 . S
C1581 C1578 1.539 . S
C1581 H1595 0.958 . S
C1581 H1596 0.961 . S
C1581 H1597 0.960 . S
H1582 C1566 0.931 . S
H1583 C1571 0.929 . S
H1584 C1572 0.960 . S
H1585 C1572 0.962 . S
H1586 C1572 0.960 . S
H1587 C1573 0.961 . S
H1588 C1573 0.961 . S
H1589 C1573 0.961 . S
H1590 C1574 0.931 . S
H1591 C1579 0.930 . S
H1592 C1580 0.956 . S
H1593 C1580 0.961 . S
H1594 C1580 0.961 . S
H1595 C1581 0.958 . S
H1596 C1581 0.961 . S
H1597 C1581 0.960 . S
C1598 C1599 1.391 . S
C1598 C1600 1.394 . S
C1598 H1614 0.931 . S
C1599 C1598 1.391 . S
C1599 C1603 1.376 . S
C1600 C1598 1.394 . S
C1600 C1601 1.369 . S
C1600 C1604 1.531 . S
C1601 C1600 1.369 . S
C1601 C1602 1.410 . S
C1601 C1609 1.503 . S
C1602 C1601 1.410 . S
C1602 C1603 1.392 . S
C1602 C1605 1.511 . S
C1603 C1599 1.376 . S
C1603 C1602 1.392 . S
C1603 H1615 0.929 . S
C1604 C1600 1.531 . S
C1604 H1616 0.960 . S
C1604 H1617 0.962 . S
C1604 H1618 0.960 . S
C1605 C1602 1.511 . S
C1605 H1619 0.961 . S
C1605 H1620 0.961 . S
C1605 H1621 0.961 . S
C1606 C1607 1.370 . S
C1606 C1608 1.363 . S
C1606 H1622 0.931 . S
C1607 C1606 1.370 . S
C1607 C1611 1.408 . S
C1608 C1606 1.363 . S
C1608 C1609 1.370 . S
C1608 C1612 1.524 . S
C1609 C1601 1.503 . S
C1609 C1608 1.370 . S
C1609 C1610 1.403 . S
C1610 C1609 1.403 . S
C1610 C1611 1.404 . S
C1610 C1613 1.539 . S
C1611 C1607 1.408 . S
C1611 C1610 1.404 . S
C1611 H1623 0.930 . S
C1612 C1608 1.524 . S
C1612 H1624 0.956 . S
C1612 H1625 0.961 . S
C1612 H1626 0.961 . S
C1613 C1610 1.539 . S
C1613 H1627 0.958 . S
C1613 H1628 0.961 . S
C1613 H1629 0.960 . S
H1614 C1598 0.931 . S
H1615 C1603 0.929 . S
H1616 C1604 0.960 . S
H1617 C1604 0.962 . S
H1618 C1604 0.960 . S
H1619 C1605 0.961 . S
H1620 C1605 0.961 . S
H1621 C1605 0.961 . S
H1622 C1606 0.931 . S
H1623 C1611 0.930 . S
H1624 C1612 0.956 . S
H1625 C1612 0.961 . S
H1626 C1612 0.961 . S
H1627 C1613 0.958 . S
H1628 C1613 0.961 . S
H1629 C1613 0.960 . S
C1630 C1631 1.391 . S
C1630 C1632 1.394 . S
C1630 H1646 0.931 . S
C1631 C1630 1.391 . S
C1631 C1635 1.376 . S
C1632 C1630 1.394 . S
C1632 C1633 1.369 . S
C1632 C1636 1.531 . S
C1633 C1632 1.369 . S
C1633 C1634 1.410 . S
C1633 C1641 1.503 . S
C1634 C1633 1.410 . S
C1634 C1635 1.392 . S
C1634 C1637 1.511 . S
C1635 C1631 1.376 . S
C1635 C1634 1.392 . S
C1635 H1647 0.929 . S
C1636 C1632 1.531 . S
C1636 H1648 0.960 . S
C1636 H1649 0.962 . S
C1636 H1650 0.960 . S
C1637 C1634 1.511 . S
C1637 H1651 0.961 . S
C1637 H1652 0.961 . S
C1637 H1653 0.961 . S
C1638 C1639 1.370 . S
C1638 C1640 1.363 . S
C1638 H1654 0.931 . S
C1639 C1638 1.370 . S
C1639 C1643 1.408 . S
C1640 C1638 1.363 . S
C1640 C1641 1.370 . S
C1640 C1644 1.524 . S
C1641 C1633 1.503 . S
C1641 C1640 1.370 . S
C1641 C1642 1.403 . S
C1642 C1641 1.403 . S
C1642 C1643 1.404 . S
C1642 C1645 1.539 . S
C1643 C1639 1.408 . S
C1643 C1642 1.404 . S
C1643 H1655 0.930 . S
C1644 C1640 1.524 . S
C1644 H1656 0.956 . S
C1644 H1657 0.961 . S
C1644 H1658 0.961 . S
C1645 C1642 1.539 . S
C1645 H1659 0.958 . S
C1645 H1660 0.961 . S
C1645 H1661 0.960 . S
H1646 C1630 0.931 . S
H1647 C1635 0.929 . S
H1648 C1636 0.960 . S
H1649 C1636 0.962 . S
H1650 C1636 0.960 . S
H1651 C1637 0.961 . S
H1652 C1637 0.961 . S
H1653 C1637 0.961 . S
H1654 C1638 0.931 . S
H1655 C1643 0.930 . S
H1656 C1644 0.956 . S
H1657 C1644 0.961 . S
H1658 C1644 0.961 . S
H1659 C1645 0.958 . S
H1660 C1645 0.961 . S
H1661 C1645 0.960 . S
C1662 C1663 1.391 . S
C1662 C1664 1.394 . S
C1662 H1678 0.931 . S
C1663 C1662 1.391 . S
C1663 C1667 1.376 . S
C1664 C1662 1.394 . S
C1664 C1665 1.369 . S
C1664 C1668 1.531 1_545 S
C1665 C1664 1.369 . S
C1665 C1666 1.410 . S
C1665 C1673 1.503 1_545 S
C1666 C1665 1.410 . S
C1666 C1667 1.392 . S
C1666 C1669 1.511 . S
C1667 C1663 1.376 . S
C1667 C1666 1.392 . S
C1667 H1679 0.929 . S
C1668 C1664 1.531 1_565 S
C1668 H1680 0.960 . S
C1668 H1681 0.962 . S
C1668 H1682 0.960 . S
C1669 C1666 1.511 . S
C1669 H1683 0.961 . S
C1669 H1684 0.961 . S
C1669 H1685 0.961 . S
C1670 C1671 1.370 . S
C1670 C1672 1.363 . S
C1670 H1686 0.931 . S
C1671 C1670 1.370 . S
C1671 C1675 1.408 . S
C1672 C1670 1.363 . S
C1672 C1673 1.370 . S
C1672 C1676 1.524 1_565 S
C1673 C1665 1.503 1_565 S
C1673 C1672 1.370 . S
C1673 C1674 1.403 . S
C1674 C1673 1.403 . S
C1674 C1675 1.404 . S
C1674 C1677 1.539 . S
C1675 C1671 1.408 . S
C1675 C1674 1.404 . S
C1675 H1687 0.930 . S
C1676 C1672 1.524 1_545 S
C1676 H1688 0.956 . S
C1676 H1689 0.961 . S
C1676 H1690 0.961 1_545 S
C1677 C1674 1.539 . S
C1677 H1691 0.958 . S
C1677 H1692 0.961 . S
C1677 H1693 0.960 . S
H1678 C1662 0.931 . S
H1679 C1667 0.929 . S
H1680 C1668 0.960 . S
H1681 C1668 0.962 . S
H1682 C1668 0.960 . S
H1683 C1669 0.961 . S
H1684 C1669 0.961 . S
H1685 C1669 0.961 . S
H1686 C1670 0.931 . S
H1687 C1675 0.930 . S
H1688 C1676 0.956 . S
H1689 C1676 0.961 . S
H1690 C1676 0.961 1_565 S
H1691 C1677 0.958 . S
H1692 C1677 0.961 . S
H1693 C1677 0.960 . S
C1694 C1695 1.391 . S
C1694 C1696 1.394 . S
C1694 H1710 0.931 . S
C1695 C1694 1.391 . S
C1695 C1699 1.376 . S
C1696 C1694 1.394 . S
C1696 C1697 1.369 1_655 S
C1696 C1700 1.531 1_655 S
C1697 C1696 1.369 1_455 S
C1697 C1698 1.410 1_455 S
C1697 C1705 1.503 . S
C1698 C1697 1.410 1_655 S
C1698 C1699 1.392 . S
C1698 C1701 1.511 1_655 S
C1699 C1695 1.376 . S
C1699 C1698 1.392 . S
C1699 H1711 0.929 . S
C1700 C1696 1.531 1_455 S
C1700 H1712 0.960 . S
C1700 H1713 0.962 . S
C1700 H1714 0.960 1_455 S
C1701 C1698 1.511 1_455 S
C1701 H1715 0.950 1_455 S
C1701 H1716 0.961 . S
C1701 H1717 0.961 1_455 S
C1702 C1703 1.370 . S
C1702 C1704 1.363 . S
C1702 H1718 0.931 . S
C1703 C1702 1.370 . S
C1703 C1707 1.408 . S
C1704 C1702 1.363 . S
C1704 C1705 1.370 . S
C1704 C1708 1.524 . S
C1705 C1697 1.503 . S
C1705 C1704 1.370 . S
C1705 C1706 1.403 . S
C1706 C1705 1.403 . S
C1706 C1707 1.404 . S
C1706 C1709 1.539 1_455 S
C1707 C1703 1.408 . S
C1707 C1706 1.404 . S
C1707 H1719 0.930 . S
C1708 C1704 1.524 . S
C1708 H1720 0.956 . S
C1708 H1721 0.961 . S
C1708 H1722 0.961 . S
C1709 C1706 1.539 1_655 S
C1709 H1723 0.958 . S
C1709 H1724 0.961 . S
C1709 H1725 0.960 . S
H1710 C1694 0.931 . S
H1711 C1699 0.929 . S
H1712 C1700 0.960 . S
H1713 C1700 0.962 . S
H1714 C1700 0.960 1_655 S
H1715 C1701 0.950 1_655 S
H1716 C1701 0.961 . S
H1717 C1701 0.961 1_655 S
H1718 C1702 0.931 . S
H1719 C1707 0.930 . S
H1720 C1708 0.956 . S
H1721 C1708 0.961 . S
H1722 C1708 0.961 . S
H1723 C1709 0.958 . S
H1724 C1709 0.961 . S
H1725 C1709 0.960 . S
C1726 C1727 1.391 . S
C1726 C1728 1.394 . S
C1726 H1742 0.931 . S
C1727 C1726 1.391 . S
C1727 C1731 1.376 . S
C1728 C1726 1.394 . S
C1728 C1729 1.369 . S
C1728 C1732 1.531 . S
C1729 C1728 1.369 . S
C1729 C1730 1.410 . S
C1729 C1737 1.503 . S
C1730 C1729 1.410 . S
C1730 C1731 1.392 . S
C1730 C1733 1.511 . S
C1731 C1727 1.376 . S
C1731 C1730 1.392 . S
C1731 H1743 0.929 . S
C1732 C1728 1.531 . S
C1732 H1744 0.960 . S
C1732 H1745 0.962 . S
C1732 H1746 0.960 . S
C1733 C1730 1.511 . S
C1733 H1747 0.961 . S
C1733 H1748 0.961 . S
C1733 H1749 0.961 . S
C1734 C1735 1.370 . S
C1734 C1736 1.363 . S
C1734 H1750 0.931 . S
C1735 C1734 1.370 . S
C1735 C1739 1.408 . S
C1736 C1734 1.363 . S
C1736 C1737 1.370 . S
C1736 C1740 1.524 . S
C1737 C1729 1.503 . S
C1737 C1736 1.370 . S
C1737 C1738 1.403 . S
C1738 C1737 1.403 . S
C1738 C1739 1.404 . S
C1738 C1741 1.539 . S
C1739 C1735 1.408 . S
C1739 C1738 1.404 . S
C1739 H1751 0.930 . S
C1740 C1736 1.524 . S
C1740 H1752 0.956 . S
C1740 H1753 0.961 . S
C1740 H1754 0.961 . S
C1741 C1738 1.539 . S
C1741 H1755 0.958 . S
C1741 H1756 0.961 . S
C1741 H1757 0.960 . S
H1742 C1726 0.931 . S
H1743 C1731 0.929 . S
H1744 C1732 0.960 . S
H1745 C1732 0.962 . S
H1746 C1732 0.960 . S
H1747 C1733 0.961 . S
H1748 C1733 0.961 . S
H1749 C1733 0.961 . S
H1750 C1734 0.931 . S
H1751 C1739 0.930 . S
H1752 C1740 0.956 . S
H1753 C1740 0.961 . S
H1754 C1740 0.961 . S
H1755 C1741 0.958 . S
H1756 C1741 0.961 . S
H1757 C1741 0.960 . S
C1758 C1759 1.391 . S
C1758 C1760 1.394 . S
C1758 H1774 0.931 . S
C1759 C1758 1.391 . S
C1759 C1763 1.376 . S
C1760 C1758 1.394 . S
C1760 C1761 1.369 . S
C1760 C1764 1.531 . S
C1761 C1760 1.369 . S
C1761 C1762 1.410 . S
C1761 C1769 1.503 . S
C1762 C1761 1.410 . S
C1762 C1763 1.392 . S
C1762 C1765 1.511 . S
C1763 C1759 1.376 . S
C1763 C1762 1.392 . S
C1763 H1775 0.929 . S
C1764 C1760 1.531 . S
C1764 H1776 0.960 . S
C1764 H1777 0.962 . S
C1764 H1778 0.960 . S
C1765 C1762 1.511 . S
C1765 H1779 0.961 . S
C1765 H1780 0.961 . S
C1765 H1781 0.961 . S
C1766 C1767 1.370 . S
C1766 C1768 1.363 . S
C1766 H1782 0.931 . S
C1767 C1766 1.370 . S
C1767 C1771 1.408 . S
C1768 C1766 1.363 . S
C1768 C1769 1.370 . S
C1768 C1772 1.524 . S
C1769 C1761 1.503 . S
C1769 C1768 1.370 . S
C1769 C1770 1.403 . S
C1770 C1769 1.403 . S
C1770 C1771 1.404 . S
C1770 C1773 1.539 . S
C1771 C1767 1.408 . S
C1771 C1770 1.404 . S
C1771 H1783 0.930 . S
C1772 C1768 1.524 . S
C1772 H1784 0.956 . S
C1772 H1785 0.961 . S
C1772 H1786 0.961 . S
C1773 C1770 1.539 . S
C1773 H1787 0.958 . S
C1773 H1788 0.961 . S
C1773 H1789 0.960 . S
H1774 C1758 0.931 . S
H1775 C1763 0.929 . S
H1776 C1764 0.960 . S
H1777 C1764 0.962 . S
H1778 C1764 0.960 . S
H1779 C1765 0.961 . S
H1780 C1765 0.961 . S
H1781 C1765 0.961 . S
H1782 C1766 0.931 . S
H1783 C1771 0.930 . S
H1784 C1772 0.956 . S
H1785 C1772 0.961 . S
H1786 C1772 0.961 . S
H1787 C1773 0.958 . S
H1788 C1773 0.961 . S
H1789 C1773 0.960 . S
C1790 C1791 1.391 . S
C1790 C1792 1.394 . S
C1790 H1806 0.931 . S
C1791 C1790 1.391 . S
C1791 C1795 1.376 . S
C1792 C1790 1.394 . S
C1792 C1793 1.369 . S
C1792 C1796 1.531 . S
C1793 C1792 1.369 . S
C1793 C1794 1.410 . S
C1793 C1801 1.503 . S
C1794 C1793 1.410 . S
C1794 C1795 1.392 . S
C1794 C1797 1.511 . S
C1795 C1791 1.376 . S
C1795 C1794 1.392 . S
C1795 H1807 0.929 . S
C1796 C1792 1.531 . S
C1796 H1808 0.960 . S
C1796 H1809 0.962 . S
C1796 H1810 0.960 . S
C1797 C1794 1.511 . S
C1797 H1811 0.961 . S
C1797 H1812 0.961 . S
C1797 H1813 0.961 . S
C1798 C1799 1.370 . S
C1798 C1800 1.363 . S
C1798 H1814 0.931 . S
C1799 C1798 1.370 . S
C1799 C1803 1.408 . S
C1800 C1798 1.363 . S
C1800 C1801 1.370 . S
C1800 C1804 1.524 . S
C1801 C1793 1.503 . S
C1801 C1800 1.370 . S
C1801 C1802 1.403 . S
C1802 C1801 1.403 . S
C1802 C1803 1.404 . S
C1802 C1805 1.539 . S
C1803 C1799 1.408 . S
C1803 C1802 1.404 . S
C1803 H1815 0.930 . S
C1804 C1800 1.524 . S
C1804 H1816 0.956 . S
C1804 H1817 0.961 . S
C1804 H1818 0.961 . S
C1805 C1802 1.539 . S
C1805 H1819 0.958 . S
C1805 H1820 0.961 . S
C1805 H1821 0.960 . S
H1806 C1790 0.931 . S
H1807 C1795 0.929 . S
H1808 C1796 0.960 . S
H1809 C1796 0.962 . S
H1810 C1796 0.960 . S
H1811 C1797 0.961 . S
H1812 C1797 0.961 . S
H1813 C1797 0.961 . S
H1814 C1798 0.931 . S
H1815 C1803 0.930 . S
H1816 C1804 0.956 . S
H1817 C1804 0.961 . S
H1818 C1804 0.961 . S
H1819 C1805 0.958 . S
H1820 C1805 0.961 . S
H1821 C1805 0.960 . S
C1822 C1823 1.391 . S
C1822 C1824 1.394 . S
C1822 H1838 0.931 . S
C1823 C1822 1.391 . S
C1823 C1827 1.376 . S
C1824 C1822 1.394 . S
C1824 C1825 1.369 . S
C1824 C1828 1.531 . S
C1825 C1824 1.369 . S
C1825 C1826 1.410 . S
C1825 C1833 1.503 . S
C1826 C1825 1.410 . S
C1826 C1827 1.392 . S
C1826 C1829 1.511 . S
C1827 C1823 1.376 . S
C1827 C1826 1.392 . S
C1827 H1839 0.929 . S
C1828 C1824 1.531 . S
C1828 H1840 0.960 . S
C1828 H1841 0.962 . S
C1828 H1842 0.960 . S
C1829 C1826 1.511 . S
C1829 H1843 0.961 . S
C1829 H1844 0.961 . S
C1829 H1845 0.961 . S
C1830 C1831 1.370 . S
C1830 C1832 1.363 . S
C1830 H1846 0.931 . S
C1831 C1830 1.370 . S
C1831 C1835 1.408 . S
C1832 C1830 1.363 . S
C1832 C1833 1.370 . S
C1832 C1836 1.524 . S
C1833 C1825 1.503 . S
C1833 C1832 1.370 . S
C1833 C1834 1.403 . S
C1834 C1833 1.403 . S
C1834 C1835 1.404 . S
C1834 C1837 1.539 . S
C1835 C1831 1.408 . S
C1835 C1834 1.404 . S
C1835 H1847 0.930 . S
C1836 C1832 1.524 . S
C1836 H1848 0.956 . S
C1836 H1849 0.961 . S
C1836 H1850 0.961 . S
C1837 C1834 1.539 . S
C1837 H1851 0.958 . S
C1837 H1852 0.961 . S
C1837 H1853 0.960 . S
H1838 C1822 0.931 . S
H1839 C1827 0.929 . S
H1840 C1828 0.960 . S
H1841 C1828 0.962 . S
H1842 C1828 0.960 . S
H1843 C1829 0.961 . S
H1844 C1829 0.961 . S
H1845 C1829 0.961 . S
H1846 C1830 0.931 . S
H1847 C1835 0.930 . S
H1848 C1836 0.956 . S
H1849 C1836 0.961 . S
H1850 C1836 0.961 . S
H1851 C1837 0.958 . S
H1852 C1837 0.961 . S
H1853 C1837 0.960 . S
C1854 C1855 1.391 . S
C1854 C1856 1.394 . S
C1854 H1870 0.931 . S
C1855 C1854 1.391 . S
C1855 C1859 1.376 . S
C1856 C1854 1.394 . S
C1856 C1857 1.369 1_565 S
C1856 C1860 1.531 1_565 S
C1857 C1856 1.369 1_545 S
C1857 C1858 1.410 1_545 S
C1857 C1865 1.503 . S
C1858 C1857 1.410 1_565 S
C1858 C1859 1.392 . S
C1858 C1861 1.511 1_565 S
C1859 C1855 1.376 . S
C1859 C1858 1.392 . S
C1859 H1871 0.929 . S
C1860 C1856 1.531 1_545 S
C1860 H1872 0.960 . S
C1860 H1873 0.962 . S
C1860 H1874 0.955 1_545 S
C1861 C1858 1.511 1_545 S
C1861 H1875 0.961 . S
C1861 H1876 0.961 . S
C1861 H1877 0.961 . S
C1862 C1863 1.370 . S
C1862 C1864 1.363 . S
C1862 H1878 0.931 . S
C1863 C1862 1.370 . S
C1863 C1867 1.408 . S
C1864 C1862 1.363 . S
C1864 C1865 1.370 . S
C1864 C1868 1.524 . S
C1865 C1857 1.503 . S
C1865 C1864 1.370 . S
C1865 C1866 1.403 . S
C1866 C1865 1.403 . S
C1866 C1867 1.404 . S
C1866 C1869 1.539 . S
C1867 C1863 1.408 . S
C1867 C1866 1.404 . S
C1867 H1879 0.930 . S
C1868 C1864 1.524 . S
C1868 H1880 0.956 . S
C1868 H1881 0.961 . S
C1868 H1882 0.961 . S
C1869 C1866 1.539 . S
C1869 H1883 0.958 . S
C1869 H1884 0.961 . S
C1869 H1885 0.960 . S
H1870 C1854 0.931 . S
H1871 C1859 0.929 . S
H1872 C1860 0.960 . S
H1873 C1860 0.962 . S
H1874 C1860 0.955 1_565 S
H1875 C1861 0.961 . S
H1876 C1861 0.961 . S
H1877 C1861 0.961 . S
H1878 C1862 0.931 . S
H1879 C1867 0.930 . S
H1880 C1868 0.956 . S
H1881 C1868 0.961 . S
H1882 C1868 0.961 . S
H1883 C1869 0.958 . S
H1884 C1869 0.961 . S
H1885 C1869 0.960 . S
C1886 C1887 1.391 . S
C1886 C1888 1.379 1_455 S
C1886 H1902 0.931 . S
C1887 C1886 1.391 . S
C1887 C1891 1.376 1_455 S
C1888 C1886 1.379 1_655 S
C1888 C1889 1.381 . S
C1888 C1892 1.533 1_655 S
C1889 C1888 1.381 . S
C1889 C1890 1.410 . S
C1889 C1897 1.503 . S
C1890 C1889 1.410 . S
C1890 C1891 1.392 . S
C1890 C1893 1.511 . S
C1891 C1887 1.376 1_655 S
C1891 C1890 1.392 . S
C1891 H1903 0.929 . S
C1892 C1888 1.533 1_455 S
C1892 H1904 0.960 1_455 S
C1892 H1905 0.962 1_455 S
C1892 H1906 0.960 . S
C1893 C1890 1.511 . S
C1893 H1907 0.961 . S
C1893 H1908 0.961 . S
C1893 H1909 0.961 . S
C1894 C1895 1.370 . S
C1894 C1896 1.363 . S
C1894 H1910 0.931 . S
C1895 C1894 1.370 . S
C1895 C1899 1.408 . S
C1896 C1894 1.363 . S
C1896 C1897 1.370 . S
C1896 C1900 1.524 . S
C1897 C1889 1.503 . S
C1897 C1896 1.370 . S
C1897 C1898 1.403 . S
C1898 C1897 1.403 . S
C1898 C1899 1.404 . S
C1898 C1901 1.539 . S
C1899 C1895 1.408 . S
C1899 C1898 1.404 . S
C1899 H1911 0.930 . S
C1900 C1896 1.524 . S
C1900 H1912 0.956 . S
C1900 H1913 0.961 . S
C1900 H1914 0.961 . S
C1901 C1898 1.539 . S
C1901 H1915 0.958 . S
C1901 H1916 0.961 . S
C1901 H1917 0.960 . S
H1902 C1886 0.931 . S
H1903 C1891 0.929 . S
H1904 C1892 0.960 1_655 S
H1905 C1892 0.962 1_655 S
H1906 C1892 0.960 . S
H1907 C1893 0.961 . S
H1908 C1893 0.961 . S
H1909 C1893 0.961 . S
H1910 C1894 0.931 . S
H1911 C1899 0.930 . S
H1912 C1900 0.956 . S
H1913 C1900 0.961 . S
H1914 C1900 0.961 . S
H1915 C1901 0.958 . S
H1916 C1901 0.961 . S
H1917 C1901 0.960 . S
C1918 C1919 1.391 . S
C1918 C1920 1.394 . S
C1918 H1934 0.931 . S
C1919 C1918 1.391 . S
C1919 C1923 1.376 . S
C1920 C1918 1.394 . S
C1920 C1921 1.369 . S
C1920 C1924 1.531 . S
C1921 C1920 1.369 . S
C1921 C1922 1.410 . S
C1921 C1929 1.503 . S
C1922 C1921 1.410 . S
C1922 C1923 1.392 . S
C1922 C1925 1.511 . S
C1923 C1919 1.376 . S
C1923 C1922 1.392 . S
C1923 H1935 0.929 . S
C1924 C1920 1.531 . S
C1924 H1936 0.960 . S
C1924 H1937 0.962 . S
C1924 H1938 0.960 . S
C1925 C1922 1.511 . S
C1925 H1939 0.961 . S
C1925 H1940 0.961 . S
C1925 H1941 0.961 . S
C1926 C1927 1.370 . S
C1926 C1928 1.363 . S
C1926 H1942 0.931 . S
C1927 C1926 1.370 . S
C1927 C1931 1.408 . S
C1928 C1926 1.363 . S
C1928 C1929 1.370 . S
C1928 C1932 1.524 . S
C1929 C1921 1.503 . S
C1929 C1928 1.370 . S
C1929 C1930 1.403 . S
C1930 C1929 1.403 . S
C1930 C1931 1.404 . S
C1930 C1933 1.539 . S
C1931 C1927 1.408 . S
C1931 C1930 1.404 . S
C1931 H1943 0.930 . S
C1932 C1928 1.524 . S
C1932 H1944 0.956 . S
C1932 H1945 0.961 . S
C1932 H1946 0.961 . S
C1933 C1930 1.539 . S
C1933 H1947 0.958 . S
C1933 H1948 0.961 . S
C1933 H1949 0.960 . S
H1934 C1918 0.931 . S
H1935 C1923 0.929 . S
H1936 C1924 0.960 . S
H1937 C1924 0.962 . S
H1938 C1924 0.960 . S
H1939 C1925 0.961 . S
H1940 C1925 0.961 . S
H1941 C1925 0.961 . S
H1942 C1926 0.931 . S
H1943 C1931 0.930 . S
H1944 C1932 0.956 . S
H1945 C1932 0.961 . S
H1946 C1932 0.961 . S
H1947 C1933 0.958 . S
H1948 C1933 0.961 . S
H1949 C1933 0.960 . S
C1950 C1951 1.391 . S
C1950 C1952 1.394 . S
C1950 H1966 0.931 . S
C1951 C1950 1.391 . S
C1951 C1955 1.376 . S
C1952 C1950 1.394 . S
C1952 C1953 1.369 . S
C1952 C1956 1.531 . S
C1953 C1952 1.369 . S
C1953 C1954 1.410 . S
C1953 C1961 1.503 1_455 S
C1954 C1953 1.410 . S
C1954 C1955 1.392 . S
C1954 C1957 1.511 . S
C1955 C1951 1.376 . S
C1955 C1954 1.392 . S
C1955 H1967 0.929 . S
C1956 C1952 1.531 . S
C1956 H1968 0.960 . S
C1956 H1969 0.962 . S
C1956 H1970 0.960 . S
C1957 C1954 1.511 . S
C1957 H1971 0.961 . S
C1957 H1972 0.961 1_455 S
C1957 H1973 0.961 . S
C1958 C1959 1.370 . S
C1958 C1960 1.363 . S
C1958 H1974 0.931 . S
C1959 C1958 1.370 . S
C1959 C1963 1.408 . S
C1960 C1958 1.363 . S
C1960 C1961 1.370 . S
C1960 C1964 1.524 1_655 S
C1961 C1953 1.503 1_655 S
C1961 C1960 1.370 . S
C1961 C1962 1.403 . S
C1962 C1961 1.403 . S
C1962 C1963 1.404 . S
C1962 C1965 1.539 . S
C1963 C1959 1.408 . S
C1963 C1962 1.404 . S
C1963 H1975 0.930 . S
C1964 C1960 1.524 1_455 S
C1964 H1976 0.956 . S
C1964 H1977 0.961 . S
C1964 H1978 0.961 . S
C1965 C1962 1.539 . S
C1965 H1979 0.958 . S
C1965 H1980 0.961 . S
C1965 H1981 0.960 . S
H1966 C1950 0.931 . S
H1967 C1955 0.929 . S
H1968 C1956 0.960 . S
H1969 C1956 0.962 . S
H1970 C1956 0.960 . S
H1971 C1957 0.961 . S
H1972 C1957 0.961 1_655 S
H1973 C1957 0.961 . S
H1974 C1958 0.931 . S
H1975 C1963 0.930 . S
H1976 C1964 0.956 . S
H1977 C1964 0.961 . S
H1978 C1964 0.961 . S
H1979 C1965 0.958 . S
H1980 C1965 0.961 . S
H1981 C1965 0.960 . S
C1982 C1983 1.391 . S
C1982 C1984 1.394 . S
C1982 H1998 0.931 . S
C1983 C1982 1.391 . S
C1983 C1987 1.376 . S
C1984 C1982 1.394 . S
C1984 C1985 1.369 . S
C1984 C1988 1.531 . S
C1985 C1984 1.369 . S
C1985 C1986 1.410 . S
C1985 C1993 1.503 . S
C1986 C1985 1.410 . S
C1986 C1987 1.392 . S
C1986 C1989 1.511 . S
C1987 C1983 1.376 . S
C1987 C1986 1.392 . S
C1987 H1999 0.929 . S
C1988 C1984 1.531 . S
C1988 H2000 0.960 . S
C1988 H2001 0.962 . S
C1988 H2002 0.960 . S
C1989 C1986 1.511 . S
C1989 H2003 0.961 . S
C1989 H2004 0.961 . S
C1989 H2005 0.961 . S
C1990 C1991 1.370 . S
C1990 C1992 1.363 . S
C1990 H2006 0.931 . S
C1991 C1990 1.370 . S
C1991 C1995 1.408 . S
C1992 C1990 1.363 . S
C1992 C1993 1.370 . S
C1992 C1996 1.524 . S
C1993 C1985 1.503 . S
C1993 C1992 1.370 . S
C1993 C1994 1.403 . S
C1994 C1993 1.403 . S
C1994 C1995 1.404 . S
C1994 C1997 1.539 . S
C1995 C1991 1.408 . S
C1995 C1994 1.404 . S
C1995 H2007 0.930 . S
C1996 C1992 1.524 . S
C1996 H2008 0.956 . S
C1996 H2009 0.961 . S
C1996 H2010 0.961 . S
C1997 C1994 1.539 . S
C1997 H2011 0.958 . S
C1997 H2012 0.961 . S
C1997 H2013 0.960 . S
H1998 C1982 0.931 . S
H1999 C1987 0.929 . S
H2000 C1988 0.960 . S
H2001 C1988 0.962 . S
H2002 C1988 0.960 . S
H2003 C1989 0.961 . S
H2004 C1989 0.961 . S
H2005 C1989 0.961 . S
H2006 C1990 0.931 . S
H2007 C1995 0.930 . S
H2008 C1996 0.956 . S
H2009 C1996 0.961 . S
H2010 C1996 0.961 . S
H2011 C1997 0.958 . S
H2012 C1997 0.961 . S
H2013 C1997 0.960 . S
C2014 C2015 1.391 . S
C2014 C2016 1.394 . S
C2014 H2030 0.931 . S
C2015 C2014 1.391 . S
C2015 C2019 1.376 . S
C2016 C2014 1.394 . S
C2016 C2017 1.369 . S
C2016 C2020 1.531 1_565 S
C2017 C2016 1.369 . S
C2017 C2018 1.410 . S
C2017 C2025 1.503 1_565 S
C2018 C2017 1.410 . S
C2018 C2019 1.392 . S
C2018 C2021 1.511 . S
C2019 C2015 1.376 . S
C2019 C2018 1.392 . S
C2019 H2031 0.929 . S
C2020 C2016 1.531 1_545 S
C2020 H2032 0.960 . S
C2020 H2033 0.962 . S
C2020 H2034 0.960 . S
C2021 C2018 1.511 . S
C2021 H2035 0.961 . S
C2021 H2036 0.961 . S
C2021 H2037 0.961 . S
C2022 C2023 1.370 . S
C2022 C2024 1.363 . S
C2022 H2038 0.931 . S
C2023 C2022 1.370 . S
C2023 C2027 1.408 . S
C2024 C2022 1.363 . S
C2024 C2025 1.370 . S
C2024 C2028 1.524 . S
C2025 C2017 1.503 1_545 S
C2025 C2024 1.370 . S
C2025 C2026 1.403 . S
C2026 C2025 1.403 . S
C2026 C2027 1.404 . S
C2026 C2029 1.539 . S
C2027 C2023 1.408 . S
C2027 C2026 1.404 . S
C2027 H2039 0.930 . S
C2028 C2024 1.524 . S
C2028 H2040 0.956 . S
C2028 H2041 0.961 1_545 S
C2028 H2042 0.961 . S
C2029 C2026 1.539 . S
C2029 H2043 0.958 . S
C2029 H2044 0.961 . S
C2029 H2045 0.960 . S
H2030 C2014 0.931 . S
H2031 C2019 0.929 . S
H2032 C2020 0.960 . S
H2033 C2020 0.962 . S
H2034 C2020 0.960 . S
H2035 C2021 0.961 . S
H2036 C2021 0.961 . S
H2037 C2021 0.961 . S
H2038 C2022 0.931 . S
H2039 C2027 0.930 . S
H2040 C2028 0.956 . S
H2041 C2028 0.961 1_565 S
H2042 C2028 0.961 . S
H2043 C2029 0.958 . S
H2044 C2029 0.961 . S
H2045 C2029 0.960 . S
C2046 C2047 1.391 . S
C2046 C2048 1.394 . S
C2046 H2062 0.931 . S
C2047 C2046 1.391 . S
C2047 C2051 1.376 . S
C2048 C2046 1.394 . S
C2048 C2049 1.369 . S
C2048 C2052 1.531 . S
C2049 C2048 1.369 . S
C2049 C2050 1.410 . S
C2049 C2057 1.503 . S
C2050 C2049 1.410 . S
C2050 C2051 1.392 . S
C2050 C2053 1.511 . S
C2051 C2047 1.376 . S
C2051 C2050 1.392 . S
C2051 H2063 0.929 . S
C2052 C2048 1.531 . S
C2052 H2064 0.960 . S
C2052 H2065 0.962 . S
C2052 H2066 0.960 . S
C2053 C2050 1.511 . S
C2053 H2067 0.961 . S
C2053 H2068 0.961 . S
C2053 H2069 0.961 . S
C2054 C2055 1.370 . S
C2054 C2056 1.363 . S
C2054 H2070 0.931 . S
C2055 C2054 1.370 . S
C2055 C2059 1.408 . S
C2056 C2054 1.363 . S
C2056 C2057 1.370 . S
C2056 C2060 1.524 . S
C2057 C2049 1.503 . S
C2057 C2056 1.370 . S
C2057 C2058 1.403 . S
C2058 C2057 1.403 . S
C2058 C2059 1.404 . S
C2058 C2061 1.539 . S
C2059 C2055 1.408 . S
C2059 C2058 1.404 . S
C2059 H2071 0.930 . S
C2060 C2056 1.524 . S
C2060 H2072 0.956 . S
C2060 H2073 0.961 . S
C2060 H2074 0.961 . S
C2061 C2058 1.539 . S
C2061 H2075 0.958 . S
C2061 H2076 0.961 . S
C2061 H2077 0.960 . S
H2062 C2046 0.931 . S
H2063 C2051 0.929 . S
H2064 C2052 0.960 . S
H2065 C2052 0.962 . S
H2066 C2052 0.960 . S
H2067 C2053 0.961 . S
H2068 C2053 0.961 . S
H2069 C2053 0.961 . S
H2070 C2054 0.931 . S
H2071 C2059 0.930 . S
H2072 C2060 0.956 . S
H2073 C2060 0.961 . S
H2074 C2060 0.961 . S
H2075 C2061 0.958 . S
H2076 C2061 0.961 . S
H2077 C2061 0.960 . S
C2078 C2079 1.391 . S
C2078 C2080 1.394 . S
C2078 H2094 0.931 . S
C2079 C2078 1.391 . S
C2079 C2083 1.376 . S
C2080 C2078 1.394 . S
C2080 C2081 1.369 . S
C2080 C2084 1.531 . S
C2081 C2080 1.369 . S
C2081 C2082 1.410 . S
C2081 C2089 1.503 . S
C2082 C2081 1.410 . S
C2082 C2083 1.392 . S
C2082 C2085 1.511 . S
C2083 C2079 1.376 . S
C2083 C2082 1.392 . S
C2083 H2095 0.929 . S
C2084 C2080 1.531 . S
C2084 H2096 0.960 . S
C2084 H2097 0.962 . S
C2084 H2098 0.960 . S
C2085 C2082 1.511 . S
C2085 H2099 0.961 . S
C2085 H2100 0.961 . S
C2085 H2101 0.961 . S
C2086 C2087 1.370 . S
C2086 C2088 1.363 . S
C2086 H2102 0.931 . S
C2087 C2086 1.370 . S
C2087 C2091 1.408 . S
C2088 C2086 1.363 . S
C2088 C2089 1.370 . S
C2088 C2092 1.524 . S
C2089 C2081 1.503 . S
C2089 C2088 1.370 . S
C2089 C2090 1.403 . S
C2090 C2089 1.403 . S
C2090 C2091 1.404 . S
C2090 C2093 1.539 . S
C2091 C2087 1.408 . S
C2091 C2090 1.404 . S
C2091 H2103 0.930 . S
C2092 C2088 1.524 . S
C2092 H2104 0.956 . S
C2092 H2105 0.961 . S
C2092 H2106 0.961 . S
C2093 C2090 1.539 . S
C2093 H2107 0.958 . S
C2093 H2108 0.961 . S
C2093 H2109 0.960 . S
H2094 C2078 0.931 . S
H2095 C2083 0.929 . S
H2096 C2084 0.960 . S
H2097 C2084 0.962 . S
H2098 C2084 0.960 . S
H2099 C2085 0.961 . S
H2100 C2085 0.961 . S
H2101 C2085 0.961 . S
H2102 C2086 0.931 . S
H2103 C2091 0.930 . S
H2104 C2092 0.956 . S
H2105 C2092 0.961 . S
H2106 C2092 0.961 . S
H2107 C2093 0.958 . S
H2108 C2093 0.961 . S
H2109 C2093 0.960 . S
C2110 C2111 1.391 . S
C2110 C2112 1.394 . S
C2110 H2126 0.931 . S
C2111 C2110 1.391 . S
C2111 C2115 1.376 . S
C2112 C2110 1.394 . S
C2112 C2113 1.369 . S
C2112 C2116 1.531 . S
C2113 C2112 1.369 . S
C2113 C2114 1.410 . S
C2113 C2121 1.503 . S
C2114 C2113 1.410 . S
C2114 C2115 1.392 . S
C2114 C2117 1.511 . S
C2115 C2111 1.376 . S
C2115 C2114 1.392 . S
C2115 H2127 0.929 . S
C2116 C2112 1.531 . S
C2116 H2128 0.960 . S
C2116 H2129 0.962 . S
C2116 H2130 0.960 . S
C2117 C2114 1.511 . S
C2117 H2131 0.961 . S
C2117 H2132 0.961 . S
C2117 H2133 0.961 . S
C2118 C2119 1.370 . S
C2118 C2120 1.363 . S
C2118 H2134 0.931 . S
C2119 C2118 1.370 . S
C2119 C2123 1.408 . S
C2120 C2118 1.363 . S
C2120 C2121 1.370 . S
C2120 C2124 1.524 . S
C2121 C2113 1.503 . S
C2121 C2120 1.370 . S
C2121 C2122 1.403 . S
C2122 C2121 1.403 . S
C2122 C2123 1.404 . S
C2122 C2125 1.539 . S
C2123 C2119 1.408 . S
C2123 C2122 1.404 . S
C2123 H2135 0.930 . S
C2124 C2120 1.524 . S
C2124 H2136 0.956 . S
C2124 H2137 0.961 . S
C2124 H2138 0.961 . S
C2125 C2122 1.539 . S
C2125 H2139 0.958 . S
C2125 H2140 0.961 . S
C2125 H2141 0.960 . S
H2126 C2110 0.931 . S
H2127 C2115 0.929 . S
H2128 C2116 0.960 . S
H2129 C2116 0.962 . S
H2130 C2116 0.960 . S
H2131 C2117 0.961 . S
H2132 C2117 0.961 . S
H2133 C2117 0.961 . S
H2134 C2118 0.931 . S
H2135 C2123 0.930 . S
H2136 C2124 0.956 . S
H2137 C2124 0.961 . S
H2138 C2124 0.961 . S
H2139 C2125 0.958 . S
H2140 C2125 0.961 . S
H2141 C2125 0.960 . S
C2142 C2143 1.391 . S
C2142 C2144 1.394 . S
C2142 H2158 0.931 . S
C2143 C2142 1.391 . S
C2143 C2147 1.376 . S
C2144 C2142 1.394 . S
C2144 C2145 1.369 . S
C2144 C2148 1.531 . S
C2145 C2144 1.369 . S
C2145 C2146 1.410 . S
C2145 C2153 1.503 . S
C2146 C2145 1.410 . S
C2146 C2147 1.392 . S
C2146 C2149 1.511 . S
C2147 C2143 1.376 . S
C2147 C2146 1.392 . S
C2147 H2159 0.929 . S
C2148 C2144 1.531 . S
C2148 H2160 0.960 . S
C2148 H2161 0.962 . S
C2148 H2162 0.960 . S
C2149 C2146 1.511 . S
C2149 H2163 0.961 . S
C2149 H2164 0.961 . S
C2149 H2165 0.961 . S
C2150 C2151 1.370 . S
C2150 C2152 1.363 . S
C2150 H2166 0.931 . S
C2151 C2150 1.370 . S
C2151 C2155 1.408 . S
C2152 C2150 1.363 . S
C2152 C2153 1.370 . S
C2152 C2156 1.524 . S
C2153 C2145 1.503 . S
C2153 C2152 1.370 . S
C2153 C2154 1.403 . S
C2154 C2153 1.403 . S
C2154 C2155 1.404 . S
C2154 C2157 1.539 . S
C2155 C2151 1.408 . S
C2155 C2154 1.404 . S
C2155 H2167 0.930 . S
C2156 C2152 1.524 . S
C2156 H2168 0.956 . S
C2156 H2169 0.961 . S
C2156 H2170 0.961 . S
C2157 C2154 1.539 . S
C2157 H2171 0.958 . S
C2157 H2172 0.961 . S
C2157 H2173 0.960 . S
H2158 C2142 0.931 . S
H2159 C2147 0.929 . S
H2160 C2148 0.960 . S
H2161 C2148 0.962 . S
H2162 C2148 0.960 . S
H2163 C2149 0.961 . S
H2164 C2149 0.961 . S
H2165 C2149 0.961 . S
H2166 C2150 0.931 . S
H2167 C2155 0.930 . S
H2168 C2156 0.956 . S
H2169 C2156 0.961 . S
H2170 C2156 0.961 . S
H2171 C2157 0.958 . S
H2172 C2157 0.961 . S
H2173 C2157 0.960 . S
C2174 C2175 1.391 . S
C2174 C2176 1.394 . S
C2174 H2190 0.931 . S
C2175 C2174 1.391 . S
C2175 C2179 1.376 . S
C2176 C2174 1.394 . S
C2176 C2177 1.369 . S
C2176 C2180 1.531 . S
C2177 C2176 1.369 . S
C2177 C2178 1.410 . S
C2177 C2185 1.503 . S
C2178 C2177 1.410 . S
C2178 C2179 1.392 . S
C2178 C2181 1.511 . S
C2179 C2175 1.376 . S
C2179 C2178 1.392 . S
C2179 H2191 0.929 . S
C2180 C2176 1.531 . S
C2180 H2192 0.960 . S
C2180 H2193 0.962 . S
C2180 H2194 0.960 . S
C2181 C2178 1.511 . S
C2181 H2195 0.961 . S
C2181 H2196 0.961 . S
C2181 H2197 0.961 . S
C2182 C2183 1.370 . S
C2182 C2184 1.363 . S
C2182 H2198 0.931 . S
C2183 C2182 1.370 . S
C2183 C2187 1.408 . S
C2184 C2182 1.363 . S
C2184 C2185 1.370 . S
C2184 C2188 1.524 . S
C2185 C2177 1.503 . S
C2185 C2184 1.370 . S
C2185 C2186 1.403 . S
C2186 C2185 1.403 . S
C2186 C2187 1.404 . S
C2186 C2189 1.539 . S
C2187 C2183 1.408 . S
C2187 C2186 1.404 . S
C2187 H2199 0.930 . S
C2188 C2184 1.524 . S
C2188 H2200 0.956 . S
C2188 H2201 0.961 . S
C2188 H2202 0.961 1_455 S
C2189 C2186 1.539 . S
C2189 H2203 0.958 . S
C2189 H2204 0.961 . S
C2189 H2205 0.960 . S
H2190 C2174 0.931 . S
H2191 C2179 0.929 . S
H2192 C2180 0.960 . S
H2193 C2180 0.962 . S
H2194 C2180 0.960 . S
H2195 C2181 0.961 . S
H2196 C2181 0.961 . S
H2197 C2181 0.961 . S
H2198 C2182 0.931 . S
H2199 C2187 0.930 . S
H2200 C2188 0.956 . S
H2201 C2188 0.961 . S
H2202 C2188 0.961 1_655 S
H2203 C2189 0.958 . S
H2204 C2189 0.961 . S
H2205 C2189 0.960 . S
C2206 C2207 1.391 . S
C2206 C2208 1.394 . S
C2206 H2222 0.931 . S
C2207 C2206 1.391 . S
C2207 C2211 1.376 . S
C2208 C2206 1.394 . S
C2208 C2209 1.369 . S
C2208 C2212 1.531 . S
C2209 C2208 1.369 . S
C2209 C2210 1.410 . S
C2209 C2217 1.503 . S
C2210 C2209 1.410 . S
C2210 C2211 1.392 . S
C2210 C2213 1.511 . S
C2211 C2207 1.376 . S
C2211 C2210 1.392 . S
C2211 H2223 0.929 . S
C2212 C2208 1.531 . S
C2212 H2224 0.960 . S
C2212 H2225 0.962 . S
C2212 H2226 0.960 . S
C2213 C2210 1.511 . S
C2213 H2227 0.961 . S
C2213 H2228 0.961 . S
C2213 H2229 0.961 . S
C2214 C2215 1.370 . S
C2214 C2216 1.363 . S
C2214 H2230 0.931 . S
C2215 C2214 1.370 . S
C2215 C2219 1.408 . S
C2216 C2214 1.363 . S
C2216 C2217 1.370 . S
C2216 C2220 1.524 . S
C2217 C2209 1.503 . S
C2217 C2216 1.370 . S
C2217 C2218 1.403 . S
C2218 C2217 1.403 . S
C2218 C2219 1.404 . S
C2218 C2221 1.539 . S
C2219 C2215 1.408 . S
C2219 C2218 1.404 . S
C2219 H2231 0.930 . S
C2220 C2216 1.524 . S
C2220 H2232 0.956 . S
C2220 H2233 0.961 . S
C2220 H2234 0.961 . S
C2221 C2218 1.539 . S
C2221 H2235 0.958 . S
C2221 H2236 0.961 . S
C2221 H2237 0.960 . S
H2222 C2206 0.931 . S
H2223 C2211 0.929 . S
H2224 C2212 0.960 . S
H2225 C2212 0.962 . S
H2226 C2212 0.960 . S
H2227 C2213 0.961 . S
H2228 C2213 0.961 . S
H2229 C2213 0.961 . S
H2230 C2214 0.931 . S
H2231 C2219 0.930 . S
H2232 C2220 0.956 . S
H2233 C2220 0.961 . S
H2234 C2220 0.961 . S
H2235 C2221 0.958 . S
H2236 C2221 0.961 . S
H2237 C2221 0.960 . S
C2238 C2239 1.391 . S
C2238 C2240 1.394 . S
C2238 H2254 0.931 . S
C2239 C2238 1.391 . S
C2239 C2243 1.376 . S
C2240 C2238 1.394 . S
C2240 C2241 1.369 . S
C2240 C2244 1.531 1_655 S
C2241 C2240 1.369 . S
C2241 C2242 1.410 . S
C2241 C2249 1.503 . S
C2242 C2241 1.410 . S
C2242 C2243 1.392 . S
C2242 C2245 1.511 . S
C2243 C2239 1.376 . S
C2243 C2242 1.392 . S
C2243 H2255 0.929 . S
C2244 C2240 1.531 1_455 S
C2244 H2256 0.971 . S
C2244 H2257 0.962 . S
C2244 H2258 0.960 . S
C2245 C2242 1.511 . S
C2245 H2259 0.961 . S
C2245 H2260 0.961 . S
C2245 H2261 0.961 . S
C2246 C2247 1.370 . S
C2246 C2248 1.363 . S
C2246 H2262 0.931 . S
C2247 C2246 1.370 . S
C2247 C2251 1.408 . S
C2248 C2246 1.363 . S
C2248 C2249 1.370 . S
C2248 C2252 1.524 . S
C2249 C2241 1.503 . S
C2249 C2248 1.370 . S
C2249 C2250 1.403 . S
C2250 C2249 1.403 . S
C2250 C2251 1.404 . S
C2250 C2253 1.539 . S
C2251 C2247 1.408 . S
C2251 C2250 1.404 . S
C2251 H2263 0.930 . S
C2252 C2248 1.524 . S
C2252 H2264 0.956 . S
C2252 H2265 0.961 . S
C2252 H2266 0.961 . S
C2253 C2250 1.539 . S
C2253 H2267 0.958 . S
C2253 H2268 0.961 . S
C2253 H2269 0.960 . S
H2254 C2238 0.931 . S
H2255 C2243 0.929 . S
H2256 C2244 0.971 . S
H2257 C2244 0.962 . S
H2258 C2244 0.960 . S
H2259 C2245 0.961 . S
H2260 C2245 0.961 . S
H2261 C2245 0.961 . S
H2262 C2246 0.931 . S
H2263 C2251 0.930 . S
H2264 C2252 0.956 . S
H2265 C2252 0.961 . S
H2266 C2252 0.961 . S
H2267 C2253 0.958 . S
H2268 C2253 0.961 . S
H2269 C2253 0.960 . S
C2270 C2271 1.391 . S
C2270 C2272 1.394 . S
C2270 H2286 0.931 . S
C2271 C2270 1.391 . S
C2271 C2275 1.376 . S
C2272 C2270 1.394 . S
C2272 C2273 1.369 . S
C2272 C2276 1.531 . S
C2273 C2272 1.369 . S
C2273 C2274 1.410 . S
C2273 C2281 1.503 . S
C2274 C2273 1.410 . S
C2274 C2275 1.392 . S
C2274 C2277 1.511 . S
C2275 C2271 1.376 . S
C2275 C2274 1.392 . S
C2275 H2287 0.929 . S
C2276 C2272 1.531 . S
C2276 H2288 0.960 . S
C2276 H2289 0.962 . S
C2276 H2290 0.960 . S
C2277 C2274 1.511 . S
C2277 H2291 0.961 . S
C2277 H2292 0.961 . S
C2277 H2293 0.961 . S
C2278 C2279 1.370 . S
C2278 C2280 1.363 . S
C2278 H2294 0.931 . S
C2279 C2278 1.370 . S
C2279 C2283 1.408 . S
C2280 C2278 1.363 . S
C2280 C2281 1.370 . S
C2280 C2284 1.524 . S
C2281 C2273 1.503 . S
C2281 C2280 1.370 . S
C2281 C2282 1.403 . S
C2282 C2281 1.403 . S
C2282 C2283 1.404 . S
C2282 C2285 1.539 . S
C2283 C2279 1.408 . S
C2283 C2282 1.404 . S
C2283 H2295 0.930 . S
C2284 C2280 1.524 . S
C2284 H2296 0.956 . S
C2284 H2297 0.961 . S
C2284 H2298 0.961 . S
C2285 C2282 1.539 . S
C2285 H2299 0.958 . S
C2285 H2300 0.961 . S
C2285 H2301 0.960 . S
H2286 C2270 0.931 . S
H2287 C2275 0.929 . S
H2288 C2276 0.960 . S
H2289 C2276 0.962 . S
H2290 C2276 0.960 . S
H2291 C2277 0.961 . S
H2292 C2277 0.961 . S
H2293 C2277 0.961 . S
H2294 C2278 0.931 . S
H2295 C2283 0.930 . S
H2296 C2284 0.956 . S
H2297 C2284 0.961 . S
H2298 C2284 0.961 . S
H2299 C2285 0.958 . S
H2300 C2285 0.961 . S
H2301 C2285 0.960 . S
C2302 C2303 1.391 . S
C2302 C2304 1.394 . S
C2302 H2318 0.931 . S
C2303 C2302 1.391 . S
C2303 C2307 1.376 . S
C2304 C2302 1.394 . S
C2304 C2305 1.369 . S
C2304 C2308 1.531 . S
C2305 C2304 1.369 . S
C2305 C2306 1.410 . S
C2305 C2313 1.503 . S
C2306 C2305 1.410 . S
C2306 C2307 1.392 . S
C2306 C2309 1.511 . S
C2307 C2303 1.376 . S
C2307 C2306 1.392 . S
C2307 H2319 0.929 . S
C2308 C2304 1.531 . S
C2308 H2320 0.960 . S
C2308 H2321 0.962 . S
C2308 H2322 0.960 . S
C2309 C2306 1.511 . S
C2309 H2323 0.961 . S
C2309 H2324 0.961 . S
C2309 H2325 0.961 . S
C2310 C2311 1.370 . S
C2310 C2312 1.363 . S
C2310 H2326 0.931 . S
C2311 C2310 1.370 . S
C2311 C2315 1.408 . S
C2312 C2310 1.363 . S
C2312 C2313 1.370 . S
C2312 C2316 1.524 . S
C2313 C2305 1.503 . S
C2313 C2312 1.370 . S
C2313 C2314 1.403 . S
C2314 C2313 1.403 . S
C2314 C2315 1.404 . S
C2314 C2317 1.539 . S
C2315 C2311 1.408 . S
C2315 C2314 1.404 . S
C2315 H2327 0.930 . S
C2316 C2312 1.524 . S
C2316 H2328 0.956 . S
C2316 H2329 0.961 . S
C2316 H2330 0.961 . S
C2317 C2314 1.539 . S
C2317 H2331 0.958 . S
C2317 H2332 0.961 . S
C2317 H2333 0.960 . S
H2318 C2302 0.931 . S
H2319 C2307 0.929 . S
H2320 C2308 0.960 . S
H2321 C2308 0.962 . S
H2322 C2308 0.960 . S
H2323 C2309 0.961 . S
H2324 C2309 0.961 . S
H2325 C2309 0.961 . S
H2326 C2310 0.931 . S
H2327 C2315 0.930 . S
H2328 C2316 0.956 . S
H2329 C2316 0.961 . S
H2330 C2316 0.961 . S
H2331 C2317 0.958 . S
H2332 C2317 0.961 . S
H2333 C2317 0.960 . S
C2334 C2335 1.391 . S
C2334 C2336 1.394 . S
C2334 H2350 0.931 . S
C2335 C2334 1.391 . S
C2335 C2339 1.376 . S
C2336 C2334 1.394 . S
C2336 C2337 1.369 . S
C2336 C2340 1.531 . S
C2337 C2336 1.369 . S
C2337 C2338 1.410 . S
C2337 C2345 1.503 . S
C2338 C2337 1.410 . S
C2338 C2339 1.392 . S
C2338 C2341 1.511 . S
C2339 C2335 1.376 . S
C2339 C2338 1.392 . S
C2339 H2351 0.929 . S
C2340 C2336 1.531 . S
C2340 H2352 0.960 . S
C2340 H2353 0.962 . S
C2340 H2354 0.960 . S
C2341 C2338 1.511 . S
C2341 H2355 0.961 . S
C2341 H2356 0.961 . S
C2341 H2357 0.961 . S
C2342 C2343 1.370 . S
C2342 C2344 1.363 . S
C2342 H2358 0.931 . S
C2343 C2342 1.370 . S
C2343 C2347 1.408 . S
C2344 C2342 1.363 . S
C2344 C2345 1.370 . S
C2344 C2348 1.524 . S
C2345 C2337 1.503 . S
C2345 C2344 1.370 . S
C2345 C2346 1.403 . S
C2346 C2345 1.403 . S
C2346 C2347 1.404 . S
C2346 C2349 1.539 . S
C2347 C2343 1.408 . S
C2347 C2346 1.404 . S
C2347 H2359 0.930 . S
C2348 C2344 1.524 . S
C2348 H2360 0.956 . S
C2348 H2361 0.961 . S
C2348 H2362 0.961 . S
C2349 C2346 1.539 . S
C2349 H2363 0.958 . S
C2349 H2364 0.961 . S
C2349 H2365 0.960 . S
H2350 C2334 0.931 . S
H2351 C2339 0.929 . S
H2352 C2340 0.960 . S
H2353 C2340 0.962 . S
H2354 C2340 0.960 . S
H2355 C2341 0.961 . S
H2356 C2341 0.961 . S
H2357 C2341 0.961 . S
H2358 C2342 0.931 . S
H2359 C2347 0.930 . S
H2360 C2348 0.956 . S
H2361 C2348 0.961 . S
H2362 C2348 0.961 . S
H2363 C2349 0.958 . S
H2364 C2349 0.961 . S
H2365 C2349 0.960 . S
C2366 C2367 1.391 . S
C2366 C2368 1.394 . S
C2366 H2382 0.931 . S
C2367 C2366 1.391 . S
C2367 C2371 1.376 . S
C2368 C2366 1.394 . S
C2368 C2369 1.369 . S
C2368 C2372 1.531 . S
C2369 C2368 1.369 . S
C2369 C2370 1.410 . S
C2369 C2377 1.503 . S
C2370 C2369 1.410 . S
C2370 C2371 1.392 . S
C2370 C2373 1.511 . S
C2371 C2367 1.376 . S
C2371 C2370 1.392 . S
C2371 H2383 0.929 . S
C2372 C2368 1.531 . S
C2372 H2384 0.960 . S
C2372 H2385 0.962 . S
C2372 H2386 0.960 . S
C2373 C2370 1.511 . S
C2373 H2387 0.961 . S
C2373 H2388 0.961 . S
C2373 H2389 0.961 . S
C2374 C2375 1.370 . S
C2374 C2376 1.363 . S
C2374 H2390 0.931 . S
C2375 C2374 1.370 . S
C2375 C2379 1.408 . S
C2376 C2374 1.363 . S
C2376 C2377 1.370 . S
C2376 C2380 1.524 . S
C2377 C2369 1.503 . S
C2377 C2376 1.370 . S
C2377 C2378 1.403 . S
C2378 C2377 1.403 . S
C2378 C2379 1.404 . S
C2378 C2381 1.539 . S
C2379 C2375 1.408 . S
C2379 C2378 1.404 . S
C2379 H2391 0.930 . S
C2380 C2376 1.524 . S
C2380 H2392 0.956 . S
C2380 H2393 0.961 . S
C2380 H2394 0.961 . S
C2381 C2378 1.539 . S
C2381 H2395 0.958 . S
C2381 H2396 0.961 . S
C2381 H2397 0.960 . S
H2382 C2366 0.931 . S
H2383 C2371 0.929 . S
H2384 C2372 0.960 . S
H2385 C2372 0.962 . S
H2386 C2372 0.960 . S
H2387 C2373 0.961 . S
H2388 C2373 0.961 . S
H2389 C2373 0.961 . S
H2390 C2374 0.931 . S
H2391 C2379 0.930 . S
H2392 C2380 0.956 . S
H2393 C2380 0.961 . S
H2394 C2380 0.961 . S
H2395 C2381 0.958 . S
H2396 C2381 0.961 . S
H2397 C2381 0.960 . S
C2398 C2399 1.391 . S
C2398 C2400 1.394 . S
C2398 H2414 0.931 . S
C2399 C2398 1.391 . S
C2399 C2403 1.376 . S
C2400 C2398 1.394 . S
C2400 C2401 1.369 . S
C2400 C2404 1.531 . S
C2401 C2400 1.369 . S
C2401 C2402 1.410 . S
C2401 C2409 1.503 . S
C2402 C2401 1.410 . S
C2402 C2403 1.392 . S
C2402 C2405 1.511 . S
C2403 C2399 1.376 . S
C2403 C2402 1.392 . S
C2403 H2415 0.929 . S
C2404 C2400 1.531 . S
C2404 H2416 0.960 . S
C2404 H2417 0.962 . S
C2404 H2418 0.960 . S
C2405 C2402 1.511 . S
C2405 H2419 0.961 . S
C2405 H2420 0.961 . S
C2405 H2421 0.961 . S
C2406 C2407 1.370 . S
C2406 C2408 1.363 . S
C2406 H2422 0.931 . S
C2407 C2406 1.370 . S
C2407 C2411 1.408 . S
C2408 C2406 1.363 . S
C2408 C2409 1.370 . S
C2408 C2412 1.524 . S
C2409 C2401 1.503 . S
C2409 C2408 1.370 . S
C2409 C2410 1.403 . S
C2410 C2409 1.403 . S
C2410 C2411 1.404 . S
C2410 C2413 1.539 . S
C2411 C2407 1.408 . S
C2411 C2410 1.404 . S
C2411 H2423 0.930 . S
C2412 C2408 1.524 . S
C2412 H2424 0.956 . S
C2412 H2425 0.961 . S
C2412 H2426 0.961 . S
C2413 C2410 1.539 . S
C2413 H2427 0.958 . S
C2413 H2428 0.961 . S
C2413 H2429 0.960 . S
H2414 C2398 0.931 . S
H2415 C2403 0.929 . S
H2416 C2404 0.960 . S
H2417 C2404 0.962 . S
H2418 C2404 0.960 . S
H2419 C2405 0.961 . S
H2420 C2405 0.961 . S
H2421 C2405 0.961 . S
H2422 C2406 0.931 . S
H2423 C2411 0.930 . S
H2424 C2412 0.956 . S
H2425 C2412 0.961 . S
H2426 C2412 0.961 . S
H2427 C2413 0.958 . S
H2428 C2413 0.961 . S
H2429 C2413 0.960 . S
C2430 C2431 1.391 . S
C2430 C2432 1.394 . S
C2430 H2446 0.931 . S
C2431 C2430 1.391 . S
C2431 C2435 1.376 . S
C2432 C2430 1.394 . S
C2432 C2433 1.369 . S
C2432 C2436 1.531 . S
C2433 C2432 1.369 . S
C2433 C2434 1.410 . S
C2433 C2441 1.503 . S
C2434 C2433 1.410 . S
C2434 C2435 1.392 . S
C2434 C2437 1.511 . S
C2435 C2431 1.376 . S
C2435 C2434 1.392 . S
C2435 H2447 0.929 . S
C2436 C2432 1.531 . S
C2436 H2448 0.960 . S
C2436 H2449 0.962 . S
C2436 H2450 0.960 . S
C2437 C2434 1.511 . S
C2437 H2451 0.961 . S
C2437 H2452 0.961 . S
C2437 H2453 0.961 . S
C2438 C2439 1.370 . S
C2438 C2440 1.363 . S
C2438 H2454 0.931 . S
C2439 C2438 1.370 . S
C2439 C2443 1.408 . S
C2440 C2438 1.363 . S
C2440 C2441 1.370 . S
C2440 C2444 1.524 . S
C2441 C2433 1.503 . S
C2441 C2440 1.370 . S
C2441 C2442 1.403 . S
C2442 C2441 1.403 . S
C2442 C2443 1.404 . S
C2442 C2445 1.539 . S
C2443 C2439 1.408 . S
C2443 C2442 1.404 . S
C2443 H2455 0.930 . S
C2444 C2440 1.524 . S
C2444 H2456 0.956 . S
C2444 H2457 0.961 . S
C2444 H2458 0.961 . S
C2445 C2442 1.539 . S
C2445 H2459 0.958 . S
C2445 H2460 0.961 . S
C2445 H2461 0.960 . S
H2446 C2430 0.931 . S
H2447 C2435 0.929 . S
H2448 C2436 0.960 . S
H2449 C2436 0.962 . S
H2450 C2436 0.960 . S
H2451 C2437 0.961 . S
H2452 C2437 0.961 . S
H2453 C2437 0.961 . S
H2454 C2438 0.931 . S
H2455 C2443 0.930 . S
H2456 C2444 0.956 . S
H2457 C2444 0.961 . S
H2458 C2444 0.961 . S
H2459 C2445 0.958 . S
H2460 C2445 0.961 . S
H2461 C2445 0.960 . S
C2462 C2463 1.391 . S
C2462 C2464 1.394 . S
C2462 H2478 0.931 . S
C2463 C2462 1.391 . S
C2463 C2467 1.376 . S
C2464 C2462 1.394 . S
C2464 C2465 1.369 . S
C2464 C2468 1.531 . S
C2465 C2464 1.369 . S
C2465 C2466 1.410 . S
C2465 C2473 1.503 . S
C2466 C2465 1.410 . S
C2466 C2467 1.392 . S
C2466 C2469 1.511 . S
C2467 C2463 1.376 . S
C2467 C2466 1.392 . S
C2467 H2479 0.929 . S
C2468 C2464 1.531 . S
C2468 H2480 0.960 . S
C2468 H2481 0.962 . S
C2468 H2482 0.960 . S
C2469 C2466 1.511 . S
C2469 H2483 0.961 . S
C2469 H2484 0.961 . S
C2469 H2485 0.961 . S
C2470 C2471 1.370 . S
C2470 C2472 1.363 . S
C2470 H2486 0.931 . S
C2471 C2470 1.370 . S
C2471 C2475 1.408 . S
C2472 C2470 1.363 . S
C2472 C2473 1.370 . S
C2472 C2476 1.524 . S
C2473 C2465 1.503 . S
C2473 C2472 1.370 . S
C2473 C2474 1.403 . S
C2474 C2473 1.403 . S
C2474 C2475 1.404 . S
C2474 C2477 1.539 . S
C2475 C2471 1.408 . S
C2475 C2474 1.404 . S
C2475 H2487 0.930 . S
C2476 C2472 1.524 . S
C2476 H2488 0.956 . S
C2476 H2489 0.961 . S
C2476 H2490 0.961 . S
C2477 C2474 1.539 . S
C2477 H2491 0.958 . S
C2477 H2492 0.961 . S
C2477 H2493 0.960 . S
H2478 C2462 0.931 . S
H2479 C2467 0.929 . S
H2480 C2468 0.960 . S
H2481 C2468 0.962 . S
H2482 C2468 0.960 . S
H2483 C2469 0.961 . S
H2484 C2469 0.961 . S
H2485 C2469 0.961 . S
H2486 C2470 0.931 . S
H2487 C2475 0.930 . S
H2488 C2476 0.956 . S
H2489 C2476 0.961 . S
H2490 C2476 0.961 . S
H2491 C2477 0.958 . S
H2492 C2477 0.961 . S
H2493 C2477 0.960 . S
C2494 C2495 1.391 . S
C2494 C2496 1.394 . S
C2494 H2510 0.931 . S
C2495 C2494 1.391 . S
C2495 C2499 1.376 . S
C2496 C2494 1.394 . S
C2496 C2497 1.369 . S
C2496 C2500 1.531 . S
C2497 C2496 1.369 . S
C2497 C2498 1.410 . S
C2497 C2505 1.503 . S
C2498 C2497 1.410 . S
C2498 C2499 1.392 . S
C2498 C2501 1.511 . S
C2499 C2495 1.376 . S
C2499 C2498 1.392 . S
C2499 H2511 0.929 . S
C2500 C2496 1.531 . S
C2500 H2512 0.960 . S
C2500 H2513 0.962 . S
C2500 H2514 0.960 . S
C2501 C2498 1.511 . S
C2501 H2515 0.961 . S
C2501 H2516 0.961 . S
C2501 H2517 0.961 . S
C2502 C2503 1.370 . S
C2502 C2504 1.363 . S
C2502 H2518 0.931 . S
C2503 C2502 1.370 . S
C2503 C2507 1.408 . S
C2504 C2502 1.363 . S
C2504 C2505 1.370 . S
C2504 C2508 1.524 . S
C2505 C2497 1.503 . S
C2505 C2504 1.370 . S
C2505 C2506 1.403 . S
C2506 C2505 1.403 . S
C2506 C2507 1.404 . S
C2506 C2509 1.539 . S
C2507 C2503 1.408 . S
C2507 C2506 1.404 . S
C2507 H2519 0.930 . S
C2508 C2504 1.524 . S
C2508 H2520 0.956 . S
C2508 H2521 0.961 . S
C2508 H2522 0.961 . S
C2509 C2506 1.539 . S
C2509 H2523 0.958 . S
C2509 H2524 0.961 . S
C2509 H2525 0.960 . S
H2510 C2494 0.931 . S
H2511 C2499 0.929 . S
H2512 C2500 0.960 . S
H2513 C2500 0.962 . S
H2514 C2500 0.960 . S
H2515 C2501 0.961 . S
H2516 C2501 0.961 . S
H2517 C2501 0.961 . S
H2518 C2502 0.931 . S
H2519 C2507 0.930 . S
H2520 C2508 0.956 . S
H2521 C2508 0.961 . S
H2522 C2508 0.961 . S
H2523 C2509 0.958 . S
H2524 C2509 0.961 . S
H2525 C2509 0.960 . S
C2526 C2527 1.391 . S
C2526 C2528 1.394 . S
C2526 H2542 0.931 . S
C2527 C2526 1.391 . S
C2527 C2531 1.376 . S
C2528 C2526 1.394 . S
C2528 C2529 1.369 . S
C2528 C2532 1.531 . S
C2529 C2528 1.369 . S
C2529 C2530 1.410 . S
C2529 C2537 1.503 . S
C2530 C2529 1.410 . S
C2530 C2531 1.392 . S
C2530 C2533 1.511 . S
C2531 C2527 1.376 . S
C2531 C2530 1.392 . S
C2531 H2543 0.929 . S
C2532 C2528 1.531 . S
C2532 H2544 0.960 . S
C2532 H2545 0.962 . S
C2532 H2546 0.960 . S
C2533 C2530 1.511 . S
C2533 H2547 0.961 . S
C2533 H2548 0.961 . S
C2533 H2549 0.961 . S
C2534 C2535 1.370 . S
C2534 C2536 1.363 . S
C2534 H2550 0.931 . S
C2535 C2534 1.370 . S
C2535 C2539 1.408 . S
C2536 C2534 1.363 . S
C2536 C2537 1.370 . S
C2536 C2540 1.524 . S
C2537 C2529 1.503 . S
C2537 C2536 1.370 . S
C2537 C2538 1.403 . S
C2538 C2537 1.403 . S
C2538 C2539 1.404 . S
C2538 C2541 1.539 . S
C2539 C2535 1.408 . S
C2539 C2538 1.404 . S
C2539 H2551 0.930 . S
C2540 C2536 1.524 . S
C2540 H2552 0.956 . S
C2540 H2553 0.961 . S
C2540 H2554 0.961 . S
C2541 C2538 1.539 . S
C2541 H2555 0.958 . S
C2541 H2556 0.961 . S
C2541 H2557 0.960 . S
H2542 C2526 0.931 . S
H2543 C2531 0.929 . S
H2544 C2532 0.960 . S
H2545 C2532 0.962 . S
H2546 C2532 0.960 . S
H2547 C2533 0.961 . S
H2548 C2533 0.961 . S
H2549 C2533 0.961 . S
H2550 C2534 0.931 . S
H2551 C2539 0.930 . S
H2552 C2540 0.956 . S
H2553 C2540 0.961 . S
H2554 C2540 0.961 . S
H2555 C2541 0.958 . S
H2556 C2541 0.961 . S
H2557 C2541 0.960 . S
C2558 C2559 1.391 . S
C2558 C2560 1.394 . S
C2558 H2574 0.931 . S
C2559 C2558 1.391 . S
C2559 C2563 1.376 . S
C2560 C2558 1.394 . S
C2560 C2561 1.369 . S
C2560 C2564 1.531 . S
C2561 C2560 1.369 . S
C2561 C2562 1.410 . S
C2561 C2569 1.503 . S
C2562 C2561 1.410 . S
C2562 C2563 1.392 . S
C2562 C2565 1.511 . S
C2563 C2559 1.376 . S
C2563 C2562 1.392 . S
C2563 H2575 0.929 . S
C2564 C2560 1.531 . S
C2564 H2576 0.960 . S
C2564 H2577 0.962 . S
C2564 H2578 0.960 . S
C2565 C2562 1.511 . S
C2565 H2579 0.961 . S
C2565 H2580 0.961 . S
C2565 H2581 0.961 . S
C2566 C2567 1.370 . S
C2566 C2568 1.363 . S
C2566 H2582 0.931 . S
C2567 C2566 1.370 . S
C2567 C2571 1.408 . S
C2568 C2566 1.363 . S
C2568 C2569 1.370 . S
C2568 C2572 1.524 . S
C2569 C2561 1.503 . S
C2569 C2568 1.370 . S
C2569 C2570 1.403 . S
C2570 C2569 1.403 . S
C2570 C2571 1.404 . S
C2570 C2573 1.539 . S
C2571 C2567 1.408 . S
C2571 C2570 1.404 . S
C2571 H2583 0.930 . S
C2572 C2568 1.524 . S
C2572 H2584 0.956 . S
C2572 H2585 0.961 . S
C2572 H2586 0.961 . S
C2573 C2570 1.539 . S
C2573 H2587 0.958 . S
C2573 H2588 0.961 . S
C2573 H2589 0.960 . S
H2574 C2558 0.931 . S
H2575 C2563 0.929 . S
H2576 C2564 0.960 . S
H2577 C2564 0.962 . S
H2578 C2564 0.960 . S
H2579 C2565 0.961 . S
H2580 C2565 0.961 . S
H2581 C2565 0.961 . S
H2582 C2566 0.931 . S
H2583 C2571 0.930 . S
H2584 C2572 0.956 . S
H2585 C2572 0.961 . S
H2586 C2572 0.961 . S
H2587 C2573 0.958 . S
H2588 C2573 0.961 . S
H2589 C2573 0.960 . S
C2590 C2591 1.391 . S
C2590 C2592 1.394 . S
C2590 H2606 0.931 . S
C2591 C2590 1.391 . S
C2591 C2595 1.376 . S
C2592 C2590 1.394 . S
C2592 C2593 1.369 . S
C2592 C2596 1.531 . S
C2593 C2592 1.369 . S
C2593 C2594 1.410 . S
C2593 C2601 1.503 . S
C2594 C2593 1.410 . S
C2594 C2595 1.392 . S
C2594 C2597 1.511 . S
C2595 C2591 1.376 . S
C2595 C2594 1.392 . S
C2595 H2607 0.929 . S
C2596 C2592 1.531 . S
C2596 H2608 0.960 . S
C2596 H2609 0.962 . S
C2596 H2610 0.960 . S
C2597 C2594 1.511 . S
C2597 H2611 0.961 . S
C2597 H2612 0.961 . S
C2597 H2613 0.961 . S
C2598 C2599 1.370 . S
C2598 C2600 1.363 . S
C2598 H2614 0.931 . S
C2599 C2598 1.370 . S
C2599 C2603 1.408 . S
C2600 C2598 1.363 . S
C2600 C2601 1.370 . S
C2600 C2604 1.524 . S
C2601 C2593 1.503 . S
C2601 C2600 1.370 . S
C2601 C2602 1.403 . S
C2602 C2601 1.403 . S
C2602 C2603 1.404 . S
C2602 C2605 1.539 . S
C2603 C2599 1.408 . S
C2603 C2602 1.404 . S
C2603 H2615 0.930 . S
C2604 C2600 1.524 . S
C2604 H2616 0.956 . S
C2604 H2617 0.961 . S
C2604 H2618 0.961 . S
C2605 C2602 1.539 . S
C2605 H2619 0.958 . S
C2605 H2620 0.961 . S
C2605 H2621 0.960 . S
H2606 C2590 0.931 . S
H2607 C2595 0.929 . S
H2608 C2596 0.960 . S
H2609 C2596 0.962 . S
H2610 C2596 0.960 . S
H2611 C2597 0.961 . S
H2612 C2597 0.961 . S
H2613 C2597 0.961 . S
H2614 C2598 0.931 . S
H2615 C2603 0.930 . S
H2616 C2604 0.956 . S
H2617 C2604 0.961 . S
H2618 C2604 0.961 . S
H2619 C2605 0.958 . S
H2620 C2605 0.961 . S
H2621 C2605 0.960 . S
C2622 C2623 1.391 . S
C2622 C2624 1.394 . S
C2622 H2638 0.931 . S
C2623 C2622 1.391 . S
C2623 C2627 1.376 . S
C2624 C2622 1.394 . S
C2624 C2625 1.369 . S
C2624 C2628 1.531 . S
C2625 C2624 1.369 . S
C2625 C2626 1.410 . S
C2625 C2633 1.503 . S
C2626 C2625 1.410 . S
C2626 C2627 1.392 . S
C2626 C2629 1.511 . S
C2627 C2623 1.376 . S
C2627 C2626 1.392 . S
C2627 H2639 0.929 . S
C2628 C2624 1.531 . S
C2628 H2640 0.960 . S
C2628 H2641 0.962 . S
C2628 H2642 0.960 . S
C2629 C2626 1.511 . S
C2629 H2643 0.961 . S
C2629 H2644 0.961 . S
C2629 H2645 0.961 . S
C2630 C2631 1.370 . S
C2630 C2632 1.363 . S
C2630 H2646 0.931 . S
C2631 C2630 1.370 . S
C2631 C2635 1.408 . S
C2632 C2630 1.363 . S
C2632 C2633 1.370 . S
C2632 C2636 1.524 . S
C2633 C2625 1.503 . S
C2633 C2632 1.370 . S
C2633 C2634 1.403 . S
C2634 C2633 1.403 . S
C2634 C2635 1.404 . S
C2634 C2637 1.539 . S
C2635 C2631 1.408 . S
C2635 C2634 1.404 . S
C2635 H2647 0.930 . S
C2636 C2632 1.524 . S
C2636 H2648 0.956 . S
C2636 H2649 0.961 . S
C2636 H2650 0.961 . S
C2637 C2634 1.539 . S
C2637 H2651 0.958 . S
C2637 H2652 0.961 . S
C2637 H2653 0.960 . S
H2638 C2622 0.931 . S
H2639 C2627 0.929 . S
H2640 C2628 0.960 . S
H2641 C2628 0.962 . S
H2642 C2628 0.960 . S
H2643 C2629 0.961 . S
H2644 C2629 0.961 . S
H2645 C2629 0.961 . S
H2646 C2630 0.931 . S
H2647 C2635 0.930 . S
H2648 C2636 0.956 . S
H2649 C2636 0.961 . S
H2650 C2636 0.961 . S
H2651 C2637 0.958 . S
H2652 C2637 0.961 . S
H2653 C2637 0.960 . S
C2654 C2655 1.391 . S
C2654 C2656 1.394 . S
C2654 H2670 0.931 . S
C2655 C2654 1.391 . S
C2655 C2659 1.376 . S
C2656 C2654 1.394 . S
C2656 C2657 1.369 . S
C2656 C2660 1.531 . S
C2657 C2656 1.369 . S
C2657 C2658 1.410 . S
C2657 C2665 1.503 . S
C2658 C2657 1.410 . S
C2658 C2659 1.392 . S
C2658 C2661 1.511 . S
C2659 C2655 1.376 . S
C2659 C2658 1.392 . S
C2659 H2671 0.929 . S
C2660 C2656 1.531 . S
C2660 H2672 0.960 . S
C2660 H2673 0.962 . S
C2660 H2674 0.960 . S
C2661 C2658 1.511 . S
C2661 H2675 0.961 . S
C2661 H2676 0.961 . S
C2661 H2677 0.961 . S
C2662 C2663 1.370 . S
C2662 C2664 1.363 . S
C2662 H2678 0.931 . S
C2663 C2662 1.370 . S
C2663 C2667 1.408 . S
C2664 C2662 1.363 . S
C2664 C2665 1.370 . S
C2664 C2668 1.524 . S
C2665 C2657 1.503 . S
C2665 C2664 1.370 . S
C2665 C2666 1.403 . S
C2666 C2665 1.403 . S
C2666 C2667 1.404 . S
C2666 C2669 1.539 . S
C2667 C2663 1.408 . S
C2667 C2666 1.404 . S
C2667 H2679 0.930 . S
C2668 C2664 1.524 . S
C2668 H2680 0.956 . S
C2668 H2681 0.961 . S
C2668 H2682 0.961 . S
C2669 C2666 1.539 . S
C2669 H2683 0.958 . S
C2669 H2684 0.961 . S
C2669 H2685 0.960 . S
H2670 C2654 0.931 . S
H2671 C2659 0.929 . S
H2672 C2660 0.960 . S
H2673 C2660 0.962 . S
H2674 C2660 0.960 . S
H2675 C2661 0.961 . S
H2676 C2661 0.961 . S
H2677 C2661 0.961 . S
H2678 C2662 0.931 . S
H2679 C2667 0.930 . S
H2680 C2668 0.956 . S
H2681 C2668 0.961 . S
H2682 C2668 0.961 . S
H2683 C2669 0.958 . S
H2684 C2669 0.961 . S
H2685 C2669 0.960 . S
C2686 C2687 1.391 . S
C2686 C2688 1.394 . S
C2686 H2702 0.931 . S
C2687 C2686 1.391 . S
C2687 C2691 1.376 . S
C2688 C2686 1.394 . S
C2688 C2689 1.369 . S
C2688 C2692 1.531 . S
C2689 C2688 1.369 . S
C2689 C2690 1.410 . S
C2689 C2697 1.503 . S
C2690 C2689 1.410 . S
C2690 C2691 1.392 . S
C2690 C2693 1.511 . S
C2691 C2687 1.376 . S
C2691 C2690 1.392 . S
C2691 H2703 0.929 . S
C2692 C2688 1.531 . S
C2692 H2704 0.960 . S
C2692 H2705 0.962 . S
C2692 H2706 0.960 . S
C2693 C2690 1.511 . S
C2693 H2707 0.961 . S
C2693 H2708 0.961 . S
C2693 H2709 0.961 . S
C2694 C2695 1.370 . S
C2694 C2696 1.363 . S
C2694 H2710 0.931 . S
C2695 C2694 1.370 . S
C2695 C2699 1.408 . S
C2696 C2694 1.363 . S
C2696 C2697 1.370 . S
C2696 C2700 1.524 . S
C2697 C2689 1.503 . S
C2697 C2696 1.370 . S
C2697 C2698 1.403 . S
C2698 C2697 1.403 . S
C2698 C2699 1.404 . S
C2698 C2701 1.539 . S
C2699 C2695 1.408 . S
C2699 C2698 1.404 . S
C2699 H2711 0.930 . S
C2700 C2696 1.524 . S
C2700 H2712 0.956 . S
C2700 H2713 0.961 . S
C2700 H2714 0.961 . S
C2701 C2698 1.539 . S
C2701 H2715 0.958 . S
C2701 H2716 0.961 . S
C2701 H2717 0.960 . S
H2702 C2686 0.931 . S
H2703 C2691 0.929 . S
H2704 C2692 0.960 . S
H2705 C2692 0.962 . S
H2706 C2692 0.960 . S
H2707 C2693 0.961 . S
H2708 C2693 0.961 . S
H2709 C2693 0.961 . S
H2710 C2694 0.931 . S
H2711 C2699 0.930 . S
H2712 C2700 0.956 . S
H2713 C2700 0.961 . S
H2714 C2700 0.961 . S
H2715 C2701 0.958 . S
H2716 C2701 0.961 . S
H2717 C2701 0.960 . S
C991 N170 1.978 . S
C999 C301 1.899 . S
C1023 N184 0.969 . S
C1031 C385 0.957 . S
C1055 N158 1.565 . S
C1063 C465 1.525 . S
C1087 N145 1.538 . S
C1095 C381 1.498 1_556 S
C1127 C469 0.888 . S
C1119 N119 0.928 . S
C1151 N131 1.945 . S
C1159 C297 1.893 . S
C1191 C290 1.591 . S
C1183 N144 1.635 . S
C1223 C374 1.352 . S
C1215 N118 1.342 . S
C1247 N132 1.439 . S
C1255 C476 1.429 . S
C1279 N171 1.413 . S
C1287 C392 1.408 . S
C1311 N183 1.327 . S
C1319 C458 1.297 . S
C1351 C308 1.567 . S
C1343 N157 1.601 . S
C1383 C553 1.897 . S
C1375 N14 1.981 . S
C1407 N28 0.976 . S
C1415 C637 0.958 . S
C1439 N2 1.545 . S
C1447 C717 1.541 . S
C1471 N223 1.536 . S
C1479 C633 1.498 . S
C1503 N197 0.881 . S
C1511 C721 0.882 . S
C1535 N209 1.945 . S
C1543 C549 1.893 . S
C1567 N222 1.647 . S
C1575 C542 1.575 . S
C1599 N196 1.373 . S
C1607 C626 1.334 . S
C1639 C728 1.435 . S
C1631 N210 1.429 . S
C1663 N15 1.412 . S
C1671 C644 1.409 . S
C1703 C710 1.298 . S
C1695 N27 1.292 . S
C1727 N1 1.602 . S
C1735 C560 1.565 . S
C1767 C805 1.911 . S
C1759 N92 1.978 . S
C1791 N106 0.983 . S
C1799 C889 0.956 . S
C1831 C969 1.532 . S
C1823 N80 1.560 . S
C1863 C885 1.499 . S
C1855 N67 1.538 . S
C1895 C973 0.866 . S
C1887 N41 0.880 . S
C1919 N53 1.936 . S
C1927 C801 1.900 . S
C1951 N66 1.634 . S
C1959 C794 1.585 . S
C1983 N40 1.372 . S
C1991 C878 1.352 . S
C2023 C980 1.425 . S
C2015 N54 1.431 . S
C2047 N93 1.419 . S
C2055 C896 1.414 . S
C2079 N105 1.335 . S
C2087 C962 1.284 . S
C2111 N79 1.604 . S
C2119 C812 1.560 . S
C2143 N200 1.235 . S
C2151 C304 1.116 . S
C2183 C388 1.616 . S
C2175 N213 1.771 . S
C2207 N226 1.505 . S
C2215 C460 1.382 . S
C2239 N83 1.538 . S
C2247 C376 1.398 . S
C2271 N96 1.755 . S
C2279 C472 1.595 . S
C2311 C292 1.148 . S
C2303 N109 1.262 . S
C2335 N44 1.242 . S
C2343 C556 1.121 . S
C2367 N57 1.795 . S
C2375 C640 1.579 . S
C2399 N70 1.484 . S
C2407 C712 1.376 . S
C2431 N161 1.540 . S
C2439 C628 1.391 . S
C2471 C724 1.567 . S
C2463 N174 1.761 . S
C2495 N187 1.266 . S
C2503 C544 1.193 . S
C2527 N122 1.259 . S
C2535 C808 1.140 . S
C2559 N135 1.789 . S
C2567 C892 1.581 . S
C2599 C964 1.383 . S
C2591 N148 1.483 . S
C2623 N5 1.516 . S
C2631 C880 1.406 . S
C2655 N18 1.741 . S
C2663 C976 1.602 . S
C2687 N31 1.272 . S
C2695 C796 1.153 . S
