# Generated by pormake.
# Topology pyr, (3,6)-cn, num edge types: 1
# Building blocks:
#     Node 0, Type 0, BuildingBlock: KAKCAD_clean_linker_0, # of connection points: 3
#     Node 1, Type 0, BuildingBlock: KAKCAD_clean_linker_0, # of connection points: 3
#     Node 2, Type 0, BuildingBlock: KAKCAD_clean_linker_0, # of connection points: 3
#     Node 3, Type 0, BuildingBlock: KAKCAD_clean_linker_0, # of connection points: 3
#     Node 4, Type 0, BuildingBlock: KAKCAD_clean_linker_0, # of connection points: 3
#     Node 5, Type 0, BuildingBlock: KAKCAD_clean_linker_0, # of connection points: 3
#     Node 6, Type 0, BuildingBlock: KAKCAD_clean_linker_0, # of connection points: 3
#     Node 7, Type 0, BuildingBlock: KAKCAD_clean_linker_0, # of connection points: 3
#     Node 8, Type 1, BuildingBlock: FUNLAD_clean_sbu_0, # of connection points: 6
#     Node 9, Type 1, BuildingBlock: FUNLAD_clean_sbu_0, # of connection points: 6
#     Node 10, Type 1, BuildingBlock: FUNLAD_clean_sbu_0, # of connection points: 6
#     Node 11, Type 1, BuildingBlock: FUNLAD_clean_sbu_0, # of connection points: 6
#     Edge 12, Type (0, 1), None
#     Edge 13, Type (0, 1), None
#     Edge 14, Type (0, 1), None
#     Edge 15, Type (0, 1), None
#     Edge 16, Type (0, 1), None
#     Edge 17, Type (0, 1), None
#     Edge 18, Type (0, 1), None
#     Edge 19, Type (0, 1), None
#     Edge 20, Type (0, 1), None
#     Edge 21, Type (0, 1), None
#     Edge 22, Type (0, 1), None
#     Edge 23, Type (0, 1), None
#     Edge 24, Type (0, 1), None
#     Edge 25, Type (0, 1), None
#     Edge 26, Type (0, 1), None
#     Edge 27, Type (0, 1), None
#     Edge 28, Type (0, 1), None
#     Edge 29, Type (0, 1), None
#     Edge 30, Type (0, 1), None
#     Edge 31, Type (0, 1), None
#     Edge 32, Type (0, 1), None
#     Edge 33, Type (0, 1), None
#     Edge 34, Type (0, 1), None
#     Edge 35, Type (0, 1), None
# Relax obj value: 0.161
# Max RMSD: 0.089
# Mean RMSD: 0.048
data_MOF--net-pry--node1-FUNLAD_clean_sbu_0--node2-KAKCAD_clean_linker_0--edge1-none
_symmetry_space_group_name_H-M    P1
_symmetry_Int_Tables_number       1
_symmetry_cell_setting            triclinic
loop_
_symmetry_equiv_pos_as_xyz
'x, y, z'
_cell_length_a     23.797898
_cell_length_b     25.867075
_cell_length_c     25.558901
_cell_angle_alpha  90.286597
_cell_angle_beta   90.166163
_cell_angle_gamma 81.045831
loop_
_atom_site_label
_atom_site_type_symbol
_atom_site_fract_x
_atom_site_fract_y
_atom_site_fract_z
_atom_type_partial_charge
C0 C 0.06307 0.14484 0.38684 0.0
C1 C 0.06678 0.08988 0.39125 0.0
C2 C 0.0773 0.16854 0.34004 0.0
C3 C 0.09674 0.13824 0.2959 0.0
C4 C 0.10005 0.08327 0.30014 0.0
C5 C 0.08492 0.05957 0.34675 0.0
C6 C 0.11681 0.16307 0.24692 0.0
C7 C 0.08706 0.21029 0.22494 0.0
C8 C 0.10656 0.23162 0.17828 0.0
C9 C 0.15702 0.2062 0.15547 0.0
C10 C 0.18891 0.16136 0.17751 0.0
C11 C 0.16786 0.13954 0.22254 0.0
C12 C 0.24494 0.13896 0.15338 0.0
C13 C 0.28039 0.17246 0.13218 0.0
C14 C 0.263 0.08459 0.14979 0.0
C15 C 0.31462 0.06448 0.12525 0.0
C16 C 0.3492 0.09821 0.10324 0.0
C17 C 0.07795 0.28152 0.15269 0.0
C18 C 0.06418 0.32823 0.18144 0.0
C19 C 0.07291 0.28463 0.09755 0.0
C20 C 0.0579 0.33294 0.07192 0.0
C21 C 0.04716 0.37998 0.1005 0.0
C22 C 0.04909 0.37662 0.15579 0.0
C23 C 0.33135 0.15242 0.10708 0.0
H24 H 0.04904 0.16995 0.41983 0.0
H25 H 0.07454 0.21071 0.33898 0.0
H26 H 0.11439 0.0583 0.26713 0.0
H27 H 0.08818 1.01737 0.34807 0.0
H28 H 0.04833 0.22955 0.2432 0.0
H29 H 0.19251 0.10517 0.23995 0.0
H30 H 0.17241 0.22238 0.12024 0.0
H31 H 0.2691 0.21455 0.1353 0.0
H32 H 0.23687 0.0575 0.16518 0.0
H33 H 0.32726 1.02245 0.12322 0.0
H34 H 0.06804 0.32779 0.22367 0.0
H35 H 0.08271 0.24956 0.07387 0.0
H36 H 0.35732 0.1796 0.09152 0.0
H37 H 0.04062 0.41177 0.17952 0.0
H38 H 0.05632 0.33348 1.02957 0.0
C39 C 0.44075 1.0175 0.84834 0.0
C40 C 0.45913 0.98702 0.89245 0.0
C41 C 0.4254 0.99393 0.80147 0.0
C42 C 0.42873 0.93898 0.79671 0.0
C43 C 0.44823 0.90856 0.84052 0.0
C44 C 0.46271 0.93211 0.88752 0.0
C45 C 0.40916 0.9141 0.74737 0.0
C46 C 0.35843 0.93742 0.72232 0.0
C47 C 0.33801 0.91517 0.6769 0.0
C48 C 0.37024 0.87014 0.65526 0.0
C49 C 0.4203 0.84499 0.67894 0.0
C50 C 0.43918 0.86677 0.7258 0.0
C51 C 0.4491 0.79463 0.65437 0.0
C52 C 0.45517 0.79034 0.59941 0.0
C53 C 0.46222 0.74867 0.68395 0.0
C54 C 0.47759 0.69972 0.65917 0.0
C55 C 0.4805 0.69515 0.60401 0.0
C56 C 0.28225 0.93723 0.65208 0.0
C57 C 0.26394 0.99154 0.64882 0.0
C58 C 0.24722 0.90348 0.63008 0.0
C59 C 0.19636 0.92325 0.60462 0.0
C60 C 0.1782 0.9774 0.60127 0.0
C61 C 0.21241 1.01136 0.62396 0.0
C62 C 0.47053 0.74147 0.57465 0.0
H63 H 0.43758 0.05969 0.85016 0.0
H64 H 0.41103 1.01892 0.76868 0.0
H65 H 0.45095 0.86639 0.83901 0.0
H66 H 0.47688 0.90691 0.92024 0.0
H67 H 0.33354 0.9719 0.73953 0.0
H68 H 0.47766 0.84768 0.74461 0.0
H69 H 0.35539 0.85355 0.61976 0.0
H70 H 0.44589 0.82489 0.5752 0.0
H71 H 0.45756 0.75011 0.7261 0.0
H72 H 0.48546 0.66512 0.68344 0.0
H73 H 0.28975 1.01882 0.66479 0.0
H74 H 0.2587 0.86141 0.63293 0.0
H75 H 0.47286 0.73991 0.53235 0.0
H76 H 0.1995 0.05337 0.62229 0.0
H77 H 0.17064 0.89593 0.58852 0.0
C78 C 0.80714 0.54141 0.07614 0.0
C79 C 0.83862 0.53364 1.02943 0.0
C80 C 0.74938 0.53693 0.07677 0.0
C81 C 0.72178 0.52549 1.03057 0.0
C82 C 0.7528 0.51919 0.98359 0.0
C83 C 0.81073 0.52298 0.98306 0.0
C84 C 0.6624 0.51497 1.03195 0.0
C85 C 0.62359 0.53532 0.99288 0.0
C86 C 0.57177 0.51633 0.9869 0.0
C87 C 0.55689 0.48068 1.02314 0.0
C88 C 0.597 0.45638 0.05876 0.0
C89 C 0.64857 0.47569 0.06519 0.0
C90 C 0.59352 0.40111 0.07005 0.0
C91 C 0.54157 0.3864 0.08541 0.0
C92 C 0.63548 0.36331 0.04787 0.0
C93 C 0.62351 0.3138 1.03562 0.0
C94 C 0.5698 0.30031 0.04657 0.0
C95 C 0.54328 0.51948 0.93529 0.0
C96 C 0.53494 0.56604 0.90658 0.0
C97 C 0.53298 0.47274 0.91109 0.0
C98 C 0.51927 0.47168 0.85833 0.0
C99 C 0.51603 0.51719 0.82848 0.0
C100 C 0.52112 0.56494 0.85348 0.0
C101 C 0.52978 0.33633 0.07371 0.0
H102 H 0.82743 0.54958 0.1126 0.0
H103 H 0.72644 0.54162 0.11346 0.0
H104 H 0.73275 0.50935 0.94755 0.0
H105 H 0.83379 0.51687 0.9465 0.0
H106 H 0.6364 0.56162 0.96391 0.0
H107 H 0.68075 0.45543 0.09113 0.0
H108 H 0.51774 0.46486 1.01693 0.0
H109 H 0.50836 0.415 0.10218 0.0
H110 H 0.67542 0.37364 1.03444 0.0
H111 H 0.65539 0.2873 1.01454 0.0
H112 H 0.5421 0.60254 0.92442 0.0
H113 H 0.54016 0.43576 0.93163 0.0
H114 H 0.48867 0.32653 0.08421 0.0
H115 H 0.5176 0.60089 0.83132 0.0
H116 H 0.51609 0.43432 0.84015 0.0
C117 C 0.92625 0.54898 0.34075 0.0
C118 C 0.98102 0.55124 0.32183 0.0
C119 C 0.91734 0.54087 0.39329 0.0
C120 C 0.96271 0.53592 0.42911 0.0
C121 C 0.0181 0.53687 0.41024 0.0
C122 C 0.02723 0.54441 0.35682 0.0
C123 C 0.94862 0.54335 0.48534 0.0
C124 C 0.90095 0.52407 0.50499 0.0
C125 C 0.86559 0.55313 0.54195 0.0
C126 C 0.88258 0.59782 0.56459 0.0
C127 C 0.93317 0.61469 0.54828 0.0
C128 C 0.96733 0.58556 0.51068 0.0
C129 C 0.94025 0.67011 0.55363 0.0
C130 C 0.89748 0.70809 0.53313 0.0
C131 C 0.99381 0.68382 0.5651 0.0
C132 C 1.00501 0.73417 0.55411 0.0
C133 C 0.963 0.77137 0.53088 0.0
C134 C 0.80483 0.547 0.54293 0.0
C135 C 0.77326 0.55415 0.49625 0.0
C136 C 0.77741 0.53663 0.58927 0.0
C137 C 0.7193 0.53263 0.58857 0.0
C138 C 0.68773 0.53989 0.54165 0.0
C139 C 0.71544 0.55069 0.49558 0.0
C140 C 0.90884 0.75788 0.52144 0.0
H141 H 0.88956 0.55501 0.31503 0.0
H142 H 0.87385 0.54231 0.40603 0.0
H143 H 0.05378 0.53397 0.43703 0.0
H144 H 0.07005 0.54526 0.34301 0.0
H145 H 0.8857 0.49197 0.48474 0.0
H146 H 1.00254 0.60198 0.49408 0.0
H147 H 0.85323 0.62298 0.58957 0.0
H148 H 0.85646 0.69809 0.52216 0.0
H149 H 0.02774 0.6548 0.58001 0.0
H150 H 0.04676 0.74361 0.56303 0.0
H151 H 0.79313 0.56352 0.46023 0.0
H152 H 0.80086 0.53158 0.62575 0.0
H153 H 0.87563 0.78509 0.50291 0.0
H154 H 0.69244 0.5568 0.45893 0.0
H155 H 0.69895 0.52467 0.62487 0.0
C156 C 0.96283 0.93152 0.6973 0.0
C157 C 0.95913 0.98646 0.69295 0.0
C158 C 0.94857 0.90785 0.74404 0.0
C159 C 0.92908 0.93816 0.78814 0.0
C160 C 0.92564 0.99313 0.78395 0.0
C161 C 0.94084 1.01681 0.73738 0.0
C162 C 0.90953 0.91321 0.83715 0.0
C163 C 0.93991 0.86619 0.85882 0.0
C164 C 0.92106 0.84451 0.90548 0.0
C165 C 0.8706 0.86939 0.92872 0.0
C166 C 0.8381 0.91412 0.90706 0.0
C167 C 0.85852 0.93628 0.8619 0.0
C168 C 0.78229 0.93616 0.93185 0.0
C169 C 0.74761 0.90247 0.95403 0.0
C170 C 0.76373 0.99047 0.93513 0.0
C171 C 0.71238 1.01033 0.96021 0.0
C172 C 0.67861 0.97645 0.98317 0.0
C173 C 0.9505 0.79474 0.93054 0.0
C174 C 0.96545 0.74853 0.90124 0.0
C175 C 0.95558 0.79116 0.98562 0.0
C176 C 0.97155 0.74275 1.01069 0.0
C177 C 0.98341 0.69613 0.98156 0.0
C178 C 0.98163 0.70002 0.92634 0.0
C179 C 0.69695 0.92231 0.97977 0.0
H180 H 0.97696 0.90641 0.66432 0.0
H181 H 0.95141 0.86567 0.74511 0.0
H182 H 0.91125 1.01806 0.81696 0.0
H183 H 0.93756 0.05901 0.73604 0.0
H184 H 0.97867 0.84736 0.8403 0.0
H185 H 0.83346 0.97056 0.84469 0.0
H186 H 0.85576 0.85291 0.96403 0.0
H187 H 0.75924 0.8604 0.95117 0.0
H188 H 0.78924 1.01773 0.91907 0.0
H189 H 0.69931 0.05233 0.96191 0.0
H190 H 0.96167 0.74937 0.85901 0.0
H191 H 0.94504 0.82589 1.00969 0.0
H192 H 0.67153 0.89505 0.99606 0.0
H193 H 0.99091 0.66518 0.90225 0.0
H194 H 0.973 0.74176 0.05304 0.0
C195 C 0.58481 0.05841 0.23941 0.0
C196 C 0.56792 0.08876 0.19488 0.0
C197 C 0.59912 0.08206 0.28655 0.0
C198 C 0.59608 0.13697 0.29116 0.0
C199 C 0.57794 0.16733 0.24696 0.0
C200 C 0.56459 0.14367 0.19964 0.0
C201 C 0.61528 0.16169 0.34065 0.0
C202 C 0.66641 0.1387 0.36512 0.0
C203 C 0.68676 0.16062 0.41068 0.0
C204 C 0.65411 0.20501 0.43308 0.0
C205 C 0.60343 0.22978 0.41009 0.0
C206 C 0.58463 0.20835 0.36296 0.0
C207 C 0.57387 0.27935 0.43566 0.0
C208 C 0.56927 0.28297 0.49079 0.0
C209 C 0.55826 0.3254 0.4067 0.0
C210 C 0.54198 0.37387 0.43215 0.0
C211 C 0.54072 0.37787 0.4874 0.0
C212 C 0.74286 0.13876 0.43486 0.0
C213 C 0.76171 0.08448 0.43724 0.0
C214 C 0.77773 0.17257 0.45695 0.0
C215 C 0.82906 0.15284 0.48163 0.0
C216 C 0.84777 0.09872 0.48407 0.0
C217 C 0.81367 0.06473 0.46132 0.0
C218 C 0.55315 0.33138 0.51623 0.0
H219 H 0.58766 1.01624 0.23772 0.0
H220 H 0.61258 0.05718 0.31965 0.0
H221 H 0.57553 0.20947 0.24845 0.0
H222 H 0.55145 0.16873 0.16656 0.0
H223 H 0.69164 0.10471 0.34733 0.0
H224 H 0.54578 0.22712 0.34452 0.0
H225 H 0.66909 0.22135 0.46865 0.0
H226 H 0.58029 0.24832 0.51458 0.0
H227 H 0.56165 0.32452 0.36445 0.0
H228 H 0.53225 0.40862 0.40829 0.0
H229 H 0.736 0.05716 0.4212 0.0
H230 H 0.76574 0.21463 0.45477 0.0
H231 H 0.55213 0.3325 0.55859 0.0
H232 H 0.82698 1.02275 0.46237 0.0
H233 H 0.85468 0.18018 0.49787 0.0
C234 C 0.21325 0.58331 0.08072 0.0
C235 C 0.19174 0.54577 0.0499 0.0
C236 C 0.27071 0.58839 0.07807 0.0
C237 C 0.30783 0.5556 0.04513 0.0
C238 C 0.28674 0.51779 1.01459 0.0
C239 C 0.22892 0.51338 1.0164 0.0
C240 C 0.36936 0.5571 0.04854 0.0
C241 C 0.40237 0.51924 0.07945 0.0
C242 C 0.45346 0.52984 0.10156 0.0
C243 C 0.47805 0.57109 0.08132 0.0
C244 C 0.44478 0.61077 0.05302 0.0
C245 C 0.39055 0.60317 1.03562 0.0
C246 C 0.45995 0.66408 0.05582 0.0
C247 C 0.48032 0.68183 0.10351 0.0
C248 C 0.45017 0.6988 1.01366 0.0
C249 C 0.45993 0.75043 1.01944 0.0
C250 C 0.47982 0.7678 0.06735 0.0
C251 C 0.46504 0.51814 0.15763 0.0
C252 C 0.41858 0.52696 0.1921 0.0
C253 C 0.52047 0.51457 0.17838 0.0
C254 C 0.52869 0.52384 0.23168 0.0
C255 C 0.48163 0.53636 0.26488 0.0
C256 C 0.42674 0.53658 0.24465 0.0
C257 C 0.49078 0.73289 0.10895 0.0
H258 H 0.18561 0.60903 0.10658 0.0
H259 H 0.28662 0.61702 0.10287 0.0
H260 H 0.31504 0.4915 0.98978 0.0
H261 H 0.21348 0.48411 0.99213 0.0
H262 H 0.38309 0.48712 0.0948 0.0
H263 H 0.36261 0.63496 1.01704 0.0
H264 H 0.51876 0.57818 0.09647 0.0
H265 H 0.48628 0.65686 0.13761 0.0
H266 H 0.43432 0.68624 0.97669 0.0
H267 H 0.45148 0.77697 0.98669 0.0
H268 H 0.37511 0.53158 0.17804 0.0
H269 H 0.55715 0.50823 0.15292 0.0
H270 H 0.50517 0.7457 0.14642 0.0
H271 H 0.38946 0.54653 0.26909 0.0
H272 H 0.57155 0.52221 0.24664 0.0
C273 C 0.11205 0.3203 0.56598 0.0
C274 C 0.05838 0.30582 0.55662 0.0
C275 C 0.12239 0.37026 0.5538 0.0
C276 C 0.07909 0.40739 0.53275 0.0
C277 C 0.02572 0.39292 0.52208 0.0
C278 C 0.01555 0.34237 0.53358 0.0
C279 C 0.08618 0.46296 0.53524 0.0
C280 C 0.13703 0.47843 0.51792 0.0
C281 C 0.1547 0.52366 0.53842 0.0
C282 C 0.11989 0.55476 0.57418 0.0
C283 C 0.07228 0.53661 0.59542 0.0
C284 C 0.05239 0.49407 0.57171 0.0
C285 C 0.06096 0.54415 0.65206 0.0
C286 C 0.108 0.537 0.68608 0.0
C287 C 1.00615 0.54486 0.6729 0.0
C288 C 0.9991 0.53661 0.72648 0.0
C289 C 0.04679 0.52744 0.75966 0.0
C290 C 0.21591 0.52678 0.53971 0.0
C291 C 0.24882 0.50195 0.58077 0.0
C292 C 0.2412 0.55556 0.50284 0.0
C293 C 0.29917 0.55914 0.5069 0.0
C294 C 0.33237 0.53424 0.54814 0.0
C295 C 0.30647 0.50572 0.58506 0.0
C296 C 0.10105 0.52833 0.73885 0.0
H297 H 0.14576 0.29359 0.58446 0.0
H298 H 0.16325 0.38092 0.56432 0.0
H299 H 0.99139 0.42135 0.50687 0.0
H300 H 0.97409 0.33213 0.52489 0.0
H301 H 0.16628 0.45176 0.4942 0.0
H302 H 0.01705 0.4787 0.58938 0.0
H303 H 0.13637 0.58672 0.59355 0.0
H304 H 0.15111 0.53407 0.67159 0.0
H305 H 0.96927 0.54935 0.64744 0.0
H306 H 0.95667 0.53689 0.74179 0.0
H307 H 0.22965 0.47973 0.60975 0.0
H308 H 0.21621 0.57527 0.47122 0.0
H309 H 0.13878 0.52051 0.76315 0.0
H310 H 0.33078 0.48587 0.617 0.0
H311 H 0.31796 0.58133 0.47769 0.0
C312 C 0.05112 0.06571 0.44205 0.0
N313 N 0.02903 0.14964 0.58077 0.0
C314 C 0.08136 0.15912 0.56596 0.0
C315 C 0.09194 0.20987 0.55973 0.0
C316 C 0.04852 0.252 0.56899 0.0
C317 C 0.99579 0.24157 0.58756 0.0
C318 C 0.9868 0.18961 0.59307 0.0
Zn319 Zn 0.01433 0.07647 0.56097 0.0
C320 C 0.90389 0.07818 0.50769 0.0
N321 N 0.99628 0.92627 0.50434 0.0
C322 C 0.03804 0.88542 0.49344 0.0
C323 C 0.94339 0.9179 0.51875 0.0
C324 C 0.93164 0.86764 0.52587 0.0
C325 C 0.9744 0.82469 0.51791 0.0
C326 C 0.02783 0.83385 0.49981 0.0
Zn327 Zn 0.01185 0.99962 0.52354 0.0
O328 O 0.04367 0.09421 0.48297 0.0
C329 C 0.12235 0.99801 0.57704 0.0
O330 O 0.04284 1.01814 0.44559 0.0
H331 H 0.91128 0.95005 0.53019 0.0
H332 H 0.11378 0.12754 0.55373 0.0
H333 H 0.08023 0.89265 0.48338 0.0
O334 O 0.09866 0.0445 0.58664 0.0
O335 O 0.09592 0.96875 0.54914 0.0
H336 H 0.94511 0.1814 0.6036 0.0
O337 O 0.98224 0.98212 0.60133 0.0
O338 O 0.9836 0.05799 0.63884 0.0
O339 O 0.92775 1.03188 0.4976 0.0
O340 O 0.93023 0.10726 0.53583 0.0
C341 C 0.97496 1.01056 0.64226 0.0
H342 H 0.13281 0.21566 0.54426 0.0
H343 H 0.96134 0.27305 0.5959 0.0
H344 H 0.8903 0.86294 0.54102 0.0
H345 H 0.06188 0.80173 0.49244 0.0
C346 C 0.62302 0.99719 1.00778 0.0
N347 N 0.53194 0.14918 1.00802 0.0
C348 C 0.5859 0.15571 1.02134 0.0
C349 C 0.59894 0.20481 1.03257 0.0
C350 C 0.55649 0.24859 1.02985 0.0
C351 C 0.50187 0.24178 1.01249 0.0
C352 C 0.49032 0.19122 1.00191 0.0
Zn353 Zn 0.51547 0.07594 1.02533 0.0
C354 C 0.47527 1.01091 0.9434 0.0
N355 N 0.49946 0.9269 0.08156 0.0
C356 C 0.54215 0.88979 0.09892 0.0
C357 C 0.44913 0.91417 0.06442 0.0
C358 C 0.44159 0.86221 0.06063 0.0
C359 C 0.48605 0.82299 0.07503 0.0
C360 C 0.5361 0.83698 0.0963 0.0
Zn361 Zn 0.51283 0.99949 0.06189 0.0
O362 O 0.59873 0.0432 0.99764 0.0
C363 C 0.5527 0.06466 0.1438 0.0
O364 O 0.59738 0.96861 1.03671 0.0
H365 H 0.41612 0.94403 0.04973 0.0
H366 H 0.61811 0.12269 1.02959 0.0
H367 H 0.58206 0.90081 0.11156 0.0
O368 O 0.54632 0.09284 0.10298 0.0
O369 O 0.54317 1.01756 0.14003 0.0
H370 H 0.44732 0.18545 0.99279 0.0
O371 O 0.4281 1.03048 0.08726 0.0
O372 O 0.43193 0.10687 0.05228 0.0
O373 O 0.48359 0.98204 0.98375 0.0
O374 O 0.4831 0.05859 0.94759 0.0
C375 C 0.405 0.07738 0.07898 0.0
H376 H 0.64122 0.20767 0.04691 0.0
H377 H 0.468 0.27478 1.00899 0.0
H378 H 0.40201 0.85271 0.04507 0.0
H379 H 0.57111 0.8074 0.10812 0.0
C380 C 0.52905 0.4306 0.51377 0.0
N381 N 0.52072 0.50509 0.66294 0.0
C382 C 0.48585 0.47759 0.68958 0.0
C383 C 0.48302 0.48097 0.74415 0.0
C384 C 0.51621 0.51312 0.7709 0.0
C385 C 0.5533 0.53911 0.7424 0.0
C386 C 0.55471 0.53475 0.68842 0.0
Zn387 Zn 0.51306 0.51897 0.58522 0.0
C388 C 0.62594 0.53786 0.54084 0.0
N389 N 0.49599 0.56485 0.42793 0.0
C390 C 0.45833 0.53465 0.40903 0.0
C391 C 0.52989 0.5873 0.39487 0.0
C392 C 0.52638 0.57907 0.3406 0.0
C393 C 0.48817 0.5471 0.32117 0.0
C394 C 0.45409 0.52509 0.3563 0.0
Zn395 Zn 0.50728 0.55392 0.50667 0.0
O396 O 0.52917 0.43645 0.56335 0.0
C397 C 0.3941 0.53612 0.55104 0.0
O398 O 0.52079 0.47145 0.48576 0.0
H399 H 0.56119 0.60939 0.41051 0.0
H400 H 0.45839 0.45507 0.66852 0.0
H401 H 0.43431 0.51357 0.43473 0.0
O402 O 0.42429 0.5157 0.5888 0.0
O403 O 0.41812 0.55624 0.51394 0.0
H404 H 0.58084 0.5578 0.66692 0.0
O405 O 0.49488 0.6362 0.52851 0.0
O406 O 0.49668 0.6014 0.60652 0.0
O407 O 0.59588 0.55351 0.5011 0.0
O408 O 0.60209 0.52158 0.58054 0.0
C409 C 0.49167 0.64215 0.57815 0.0
H410 H 0.45416 0.45993 0.765 0.0
H411 H 0.58083 0.56305 0.76156 0.0
H412 H 0.55347 0.59679 0.31437 0.0
H413 H 0.4255 0.49879 0.3434 0.0
C414 C 0.99537 0.64351 1.00777 0.0
N415 N 0.99768 0.56943 0.15774 0.0
C416 C 0.02809 0.59683 0.19001 0.0
C417 C 0.02385 0.59192 0.24452 0.0
C418 C 0.98847 0.55821 0.26508 0.0
C419 C 0.95787 0.531 0.23066 0.0
C420 C 0.96266 0.53748 0.17748 0.0
Zn421 Zn 0.01143 0.55625 0.07982 0.0
C422 C 0.90046 0.53518 1.02984 0.0
N423 N 0.03391 0.50631 0.92368 0.0
C424 C 0.07045 0.53678 0.90386 0.0
C425 C 1.00151 0.48077 0.89154 0.0
C426 C 1.00478 0.48648 0.83709 0.0
C427 C 0.04138 0.51898 0.81641 0.0
C428 C 0.07456 0.54383 0.85065 0.0
Zn429 Zn 0.01973 0.51992 1.0014 0.0
O430 O 0.99473 0.63818 0.0574 0.0
C431 C 0.13046 0.54201 0.05077 0.0
O432 O 1.00463 0.60237 0.97969 0.0
H433 H 0.97135 0.45815 0.90801 0.0
H434 H 0.05715 0.62066 0.17365 0.0
H435 H 0.0936 0.55948 0.92916 0.0
O436 O 0.0988 0.56153 0.08807 0.0
O437 O 0.10838 0.52122 1.0124 0.0
H438 H 0.94103 0.5135 0.15218 0.0
O439 O 0.03388 0.43755 1.0241 0.0
O440 O 0.02907 0.47387 0.1016 0.0
O441 O 0.93176 0.51776 0.99156 0.0
O442 O 0.92316 0.55273 0.06974 0.0
C443 C 0.03583 0.4325 0.07381 0.0
H444 H 0.04808 0.6137 0.27011 0.0
H445 H 0.93144 0.50344 0.2446 0.0
H446 H 0.97864 0.46645 0.81166 0.0
H447 H 0.10212 0.57037 0.83663 0.0
loop_
_geom_bond_atom_site_label_1
_geom_bond_atom_site_label_2
_geom_bond_distance
_geom_bond_site_symmetry_2
_ccdc_geom_bond_type
C0 C1 1.386 . S
C0 C2 1.397 . S
C0 H24 0.931 1_455 S
C1 C0 1.386 . S
C1 C5 1.397 . S
C2 C0 1.397 . S
C2 C3 1.384 . S
C2 H25 0.919 1_455 S
C3 C2 1.384 . S
C3 C4 1.377 . S
C3 C6 1.481 . S
C4 C3 1.377 . S
C4 C5 1.389 . S
C4 H26 0.929 . S
C5 C1 1.397 . S
C5 C4 1.389 . S
C5 H27 0.931 . S
C6 C3 1.481 . S
C6 C7 1.387 . S
C6 C11 1.390 . S
C7 C6 1.387 . S
C7 C8 1.401 . S
C7 H28 0.930 . S
C8 C7 1.401 . S
C8 C9 1.376 . S
C8 C17 1.511 . S
C9 C8 1.376 . S
C9 C10 1.392 . S
C9 H30 0.931 . S
C10 C9 1.392 . S
C10 C11 1.361 . S
C10 C12 1.500 . S
C11 C6 1.390 . S
C11 C10 1.361 . S
C11 H29 0.931 . S
C12 C10 1.500 . S
C12 C13 1.371 . S
C12 C14 1.365 . S
C13 C12 1.371 . S
C13 C23 1.386 . S
C13 H31 0.931 . S
C14 C12 1.365 . S
C14 C15 1.409 . S
C14 H32 0.929 . S
C15 C14 1.409 . S
C15 C16 1.380 . S
C15 H33 0.930 . S
C16 C15 1.380 . S
C16 C23 1.357 . S
C17 C8 1.511 . S
C17 C18 1.341 . S
C17 C19 1.371 . S
C18 C17 1.341 . S
C18 C22 1.394 1_455 S
C18 H34 0.938 . S
C19 C17 1.371 . S
C19 C20 1.392 . S
C19 H35 0.931 . S
C20 C19 1.392 . S
C20 C21 1.331 . S
C20 H38 0.932 . S
C21 C20 1.331 . S
C21 C22 1.336 1_455 S
C22 C18 1.394 1_655 S
C22 C21 1.336 1_655 S
C22 H37 0.929 . S
C23 C13 1.386 . S
C23 C16 1.357 . S
C23 H36 0.928 1_554 S
H24 C0 0.931 1_655 S
H25 C2 0.919 1_655 S
H26 C4 0.929 . S
H27 C5 0.931 . S
H28 C7 0.930 . S
H29 C11 0.931 . S
H30 C9 0.931 . S
H31 C13 0.931 . S
H32 C14 0.929 . S
H33 C15 0.930 . S
H34 C18 0.938 . S
H35 C19 0.931 . S
H36 C23 0.928 1_556 S
H37 C22 0.929 . S
H38 C20 0.932 . S
C39 C40 1.386 . S
C39 C41 1.397 . S
C39 H63 0.931 . S
C40 C39 1.386 . S
C40 C44 1.397 . S
C41 C39 1.397 . S
C41 C42 1.384 . S
C41 H64 0.930 . S
C42 C41 1.384 . S
C42 C43 1.377 . S
C42 C45 1.481 . S
C43 C42 1.377 . S
C43 C44 1.389 . S
C43 H65 0.929 . S
C44 C40 1.397 . S
C44 C43 1.389 . S
C44 H66 0.931 . S
C45 C42 1.481 . S
C45 C46 1.387 . S
C45 C50 1.390 . S
C46 C45 1.387 . S
C46 C47 1.401 . S
C46 H67 0.930 . S
C47 C46 1.401 . S
C47 C48 1.376 . S
C47 C56 1.511 . S
C48 C47 1.376 . S
C48 C49 1.392 . S
C48 H69 0.931 . S
C49 C48 1.392 . S
C49 C50 1.361 . S
C49 C51 1.500 . S
C50 C45 1.390 . S
C50 C49 1.361 . S
C50 H68 0.931 . S
C51 C49 1.500 . S
C51 C52 1.371 . S
C51 C53 1.365 . S
C52 C51 1.371 . S
C52 C62 1.386 . S
C52 H70 0.931 . S
C53 C51 1.365 . S
C53 C54 1.409 . S
C53 H71 0.929 . S
C54 C53 1.409 . S
C54 C55 1.380 . S
C54 H72 0.930 . S
C55 C54 1.380 . S
C55 C62 1.357 . S
C56 C47 1.511 . S
C56 C57 1.341 . S
C56 C58 1.371 . S
C57 C56 1.341 . S
C57 C61 1.394 . S
C57 H73 0.930 . S
C58 C56 1.371 . S
C58 C59 1.392 . S
C58 H74 0.931 . S
C59 C58 1.392 . S
C59 C60 1.331 . S
C59 H77 0.932 . S
C60 C59 1.331 . S
C60 C61 1.336 . S
C61 C57 1.394 . S
C61 C60 1.336 . S
C61 H76 0.929 1_565 S
C62 C52 1.386 . S
C62 C55 1.357 . S
C62 H75 0.928 . S
H63 C39 0.931 . S
H64 C41 0.930 . S
H65 C43 0.929 . S
H66 C44 0.931 . S
H67 C46 0.930 . S
H68 C50 0.931 . S
H69 C48 0.931 . S
H70 C52 0.931 . S
H71 C53 0.929 . S
H72 C54 0.930 . S
H73 C57 0.930 . S
H74 C58 0.931 . S
H75 C62 0.928 . S
H76 C61 0.929 1_545 S
H77 C59 0.932 . S
C78 C79 1.386 1_556 S
C78 C80 1.397 . S
C78 H102 0.931 . S
C79 C78 1.386 1_554 S
C79 C83 1.400 . S
C80 C78 1.397 . S
C80 C81 1.384 . S
C80 H103 0.930 . S
C81 C80 1.384 . S
C81 C82 1.377 . S
C81 C84 1.481 . S
C82 C81 1.377 . S
C82 C83 1.380 1_556 S
C82 H104 0.929 . S
C83 C79 1.400 . S
C83 C82 1.380 1_554 S
C83 H105 0.938 . S
C84 C81 1.481 . S
C84 C85 1.387 . S
C84 C89 1.390 . S
C85 C84 1.387 . S
C85 C86 1.401 . S
C85 H106 0.930 . S
C86 C85 1.401 . S
C86 C87 1.376 . S
C86 C95 1.511 . S
C87 C86 1.376 . S
C87 C88 1.392 . S
C87 H108 0.931 . S
C88 C87 1.392 . S
C88 C89 1.361 . S
C88 C90 1.500 . S
C89 C84 1.390 . S
C89 C88 1.361 . S
C89 H107 0.931 . S
C90 C88 1.500 . S
C90 C91 1.371 . S
C90 C92 1.365 . S
C91 C90 1.371 . S
C91 C101 1.386 . S
C91 H109 0.931 . S
C92 C90 1.365 . S
C92 C93 1.409 1_556 S
C92 H110 0.929 . S
C93 C92 1.409 1_554 S
C93 C94 1.380 1_554 S
C93 H111 0.930 . S
C94 C93 1.380 1_556 S
C94 C101 1.357 . S
C95 C86 1.511 . S
C95 C96 1.341 . S
C95 C97 1.371 . S
C96 C95 1.341 . S
C96 C100 1.394 . S
C96 H112 0.930 . S
C97 C95 1.371 . S
C97 C98 1.392 . S
C97 H113 0.931 . S
C98 C97 1.392 . S
C98 C99 1.331 . S
C98 H116 0.932 . S
C99 C98 1.331 . S
C99 C100 1.336 . S
C100 C96 1.394 . S
C100 C99 1.336 . S
C100 H115 0.929 . S
C101 C91 1.386 . S
C101 C94 1.357 . S
C101 H114 0.928 . S
H102 C78 0.931 . S
H103 C80 0.930 . S
H104 C82 0.929 . S
H105 C83 0.938 . S
H106 C85 0.930 . S
H107 C89 0.931 . S
H108 C87 0.931 . S
H109 C91 0.931 . S
H110 C92 0.929 . S
H111 C93 0.930 . S
H112 C96 0.930 . S
H113 C97 0.931 . S
H114 C101 0.928 . S
H115 C100 0.929 . S
H116 C98 0.932 . S
C117 C118 1.386 . S
C117 C119 1.397 . S
C117 H141 0.931 . S
C118 C117 1.386 . S
C118 C122 1.397 . S
C119 C117 1.397 . S
C119 C120 1.384 . S
C119 H142 0.930 . S
C120 C119 1.384 . S
C120 C121 1.377 . S
C120 C123 1.481 . S
C121 C120 1.377 . S
C121 C122 1.389 . S
C121 H143 0.929 . S
C122 C118 1.397 . S
C122 C121 1.389 . S
C122 H144 0.931 1_655 S
C123 C120 1.481 . S
C123 C124 1.387 . S
C123 C128 1.390 . S
C124 C123 1.387 . S
C124 C125 1.401 . S
C124 H145 0.930 . S
C125 C124 1.401 . S
C125 C126 1.376 . S
C125 C134 1.511 . S
C126 C125 1.376 . S
C126 C127 1.392 . S
C126 H147 0.931 . S
C127 C126 1.392 . S
C127 C128 1.361 . S
C127 C129 1.500 . S
C128 C123 1.390 . S
C128 C127 1.361 . S
C128 H146 0.931 . S
C129 C127 1.500 . S
C129 C130 1.371 . S
C129 C131 1.365 . S
C130 C129 1.371 . S
C130 C140 1.386 . S
C130 H148 0.931 . S
C131 C129 1.365 . S
C131 C132 1.409 . S
C131 H149 0.929 . S
C132 C131 1.409 . S
C132 C133 1.380 . S
C132 H150 0.930 1_655 S
C133 C132 1.380 . S
C133 C140 1.357 . S
C134 C125 1.511 . S
C134 C135 1.341 . S
C134 C136 1.371 . S
C135 C134 1.341 . S
C135 C139 1.394 . S
C135 H151 0.930 . S
C136 C134 1.371 . S
C136 C137 1.392 . S
C136 H152 0.931 . S
C137 C136 1.392 . S
C137 C138 1.331 . S
C137 H155 0.932 . S
C138 C137 1.331 . S
C138 C139 1.336 . S
C139 C135 1.394 . S
C139 C138 1.336 . S
C139 H154 0.929 . S
C140 C130 1.386 . S
C140 C133 1.357 . S
C140 H153 0.928 . S
H141 C117 0.931 . S
H142 C119 0.930 . S
H143 C121 0.929 . S
H144 C122 0.931 1_455 S
H145 C124 0.930 . S
H146 C128 0.931 . S
H147 C126 0.931 . S
H148 C130 0.931 . S
H149 C131 0.929 . S
H150 C132 0.930 1_455 S
H151 C135 0.930 . S
H152 C136 0.931 . S
H153 C140 0.928 . S
H154 C139 0.929 . S
H155 C137 0.932 . S
C156 C157 1.386 . S
C156 C158 1.397 . S
C156 H180 0.931 . S
C157 C156 1.386 . S
C157 C161 1.397 . S
C158 C156 1.397 . S
C158 C159 1.384 . S
C158 H181 0.930 . S
C159 C158 1.384 . S
C159 C160 1.377 . S
C159 C162 1.481 . S
C160 C159 1.377 . S
C160 C161 1.389 . S
C160 H182 0.929 . S
C161 C157 1.397 . S
C161 C160 1.389 . S
C161 H183 0.931 1_565 S
C162 C159 1.481 . S
C162 C163 1.387 . S
C162 C167 1.390 . S
C163 C162 1.387 . S
C163 C164 1.401 . S
C163 H184 0.930 . S
C164 C163 1.401 . S
C164 C165 1.376 . S
C164 C173 1.511 . S
C165 C164 1.376 . S
C165 C166 1.392 . S
C165 H186 0.931 . S
C166 C165 1.392 . S
C166 C167 1.361 . S
C166 C168 1.500 . S
C167 C162 1.390 . S
C167 C166 1.361 . S
C167 H185 0.931 . S
C168 C166 1.500 . S
C168 C169 1.371 . S
C168 C170 1.365 . S
C169 C168 1.371 . S
C169 C179 1.386 . S
C169 H187 0.931 . S
C170 C168 1.365 . S
C170 C171 1.409 1_565 S
C170 H188 0.929 . S
C171 C170 1.409 1_545 S
C171 C172 1.380 1_545 S
C171 H189 0.930 . S
C172 C171 1.380 1_565 S
C172 C179 1.357 . S
C173 C164 1.511 . S
C173 C174 1.341 . S
C173 C175 1.371 . S
C174 C173 1.341 . S
C174 C178 1.394 . S
C174 H190 0.930 . S
C175 C173 1.371 . S
C175 C176 1.392 . S
C175 H191 0.931 . S
C176 C175 1.392 . S
C176 C177 1.331 . S
C176 H194 0.932 1_556 S
C177 C176 1.331 . S
C177 C178 1.336 . S
C178 C174 1.394 . S
C178 C177 1.336 . S
C178 H193 0.929 1_655 S
C179 C169 1.386 . S
C179 C172 1.357 . S
C179 H192 0.928 . S
H180 C156 0.931 . S
H181 C158 0.930 . S
H182 C160 0.929 . S
H183 C161 0.931 1_545 S
H184 C163 0.930 . S
H185 C167 0.931 . S
H186 C165 0.931 . S
H187 C169 0.931 . S
H188 C170 0.929 . S
H189 C171 0.930 . S
H190 C174 0.930 . S
H191 C175 0.931 . S
H192 C179 0.928 . S
H193 C178 0.929 1_455 S
H194 C176 0.932 1_554 S
C195 C196 1.386 . S
C195 C197 1.397 . S
C195 H219 0.931 1_545 S
C196 C195 1.386 . S
C196 C200 1.397 . S
C197 C195 1.397 . S
C197 C198 1.384 . S
C197 H220 0.930 . S
C198 C197 1.384 . S
C198 C199 1.377 . S
C198 C201 1.481 . S
C199 C198 1.377 . S
C199 C200 1.389 . S
C199 H221 0.929 . S
C200 C196 1.397 . S
C200 C199 1.389 . S
C200 H222 0.931 . S
C201 C198 1.481 . S
C201 C202 1.387 . S
C201 C206 1.390 . S
C202 C201 1.387 . S
C202 C203 1.401 . S
C202 H223 0.930 . S
C203 C202 1.401 . S
C203 C204 1.376 . S
C203 C212 1.511 . S
C204 C203 1.376 . S
C204 C205 1.392 . S
C204 H225 0.931 . S
C205 C204 1.392 . S
C205 C206 1.361 . S
C205 C207 1.500 . S
C206 C201 1.390 . S
C206 C205 1.361 . S
C206 H224 0.931 . S
C207 C205 1.500 . S
C207 C208 1.371 . S
C207 C209 1.365 . S
C208 C207 1.371 . S
C208 C218 1.386 . S
C208 H226 0.931 . S
C209 C207 1.365 . S
C209 C210 1.409 . S
C209 H227 0.929 . S
C210 C209 1.409 . S
C210 C211 1.380 . S
C210 H228 0.930 . S
C211 C210 1.380 . S
C211 C218 1.357 . S
C212 C203 1.511 . S
C212 C213 1.341 . S
C212 C214 1.371 . S
C213 C212 1.341 . S
C213 C217 1.394 . S
C213 H229 0.930 . S
C214 C212 1.371 . S
C214 C215 1.392 . S
C214 H230 0.931 . S
C215 C214 1.392 . S
C215 C216 1.331 . S
C215 H233 0.932 . S
C216 C215 1.331 . S
C216 C217 1.336 . S
C217 C213 1.394 . S
C217 C216 1.336 . S
C217 H232 0.929 1_545 S
C218 C208 1.386 . S
C218 C211 1.357 . S
C218 H231 0.928 . S
H219 C195 0.931 1_565 S
H220 C197 0.930 . S
H221 C199 0.929 . S
H222 C200 0.931 . S
H223 C202 0.930 . S
H224 C206 0.931 . S
H225 C204 0.931 . S
H226 C208 0.931 . S
H227 C209 0.929 . S
H228 C210 0.930 . S
H229 C213 0.930 . S
H230 C214 0.931 . S
H231 C218 0.928 . S
H232 C217 0.929 1_565 S
H233 C215 0.932 . S
C234 C235 1.386 1_554 S
C234 C236 1.397 . S
C234 H258 0.931 . S
C235 C234 1.386 1_556 S
C235 C239 1.397 . S
C236 C234 1.397 . S
C236 C237 1.384 . S
C236 H259 0.930 . S
C237 C236 1.384 . S
C237 C238 1.377 1_554 S
C237 C240 1.481 . S
C238 C237 1.377 1_556 S
C238 C239 1.389 . S
C238 H260 0.929 . S
C239 C235 1.397 . S
C239 C238 1.389 . S
C239 H261 0.931 . S
C240 C237 1.481 . S
C240 C241 1.387 . S
C240 C245 1.390 . S
C241 C240 1.387 . S
C241 C242 1.401 . S
C241 H262 0.930 . S
C242 C241 1.401 . S
C242 C243 1.376 . S
C242 C251 1.511 . S
C243 C242 1.376 . S
C243 C244 1.392 . S
C243 H264 0.931 . S
C244 C243 1.392 . S
C244 C245 1.361 . S
C244 C246 1.500 . S
C245 C240 1.390 . S
C245 C244 1.361 . S
C245 H263 0.931 . S
C246 C244 1.500 . S
C246 C247 1.371 . S
C246 C248 1.365 1_554 S
C247 C246 1.371 . S
C247 C257 1.386 . S
C247 H265 0.931 . S
C248 C246 1.365 1_556 S
C248 C249 1.409 . S
C248 H266 0.929 . S
C249 C248 1.409 . S
C249 C250 1.380 1_556 S
C249 H267 0.930 . S
C250 C249 1.380 1_554 S
C250 C257 1.357 . S
C251 C242 1.511 . S
C251 C252 1.341 . S
C251 C253 1.371 . S
C252 C251 1.341 . S
C252 C256 1.394 . S
C252 H268 0.930 . S
C253 C251 1.371 . S
C253 C254 1.392 . S
C253 H269 0.931 . S
C254 C253 1.392 . S
C254 C255 1.331 . S
C254 H272 0.932 . S
C255 C254 1.331 . S
C255 C256 1.336 . S
C256 C252 1.394 . S
C256 C255 1.336 . S
C256 H271 0.929 . S
C257 C247 1.386 . S
C257 C250 1.357 . S
C257 H270 0.928 . S
H258 C234 0.931 . S
H259 C236 0.930 . S
H260 C238 0.929 . S
H261 C239 0.931 . S
H262 C241 0.930 . S
H263 C245 0.931 . S
H264 C243 0.931 . S
H265 C247 0.931 . S
H266 C248 0.929 . S
H267 C249 0.930 . S
H268 C252 0.930 . S
H269 C253 0.931 . S
H270 C257 0.928 . S
H271 C256 0.929 . S
H272 C254 0.932 . S
C273 C274 1.386 . S
C273 C275 1.397 . S
C273 H297 0.931 . S
C274 C273 1.386 . S
C274 C278 1.397 . S
C275 C273 1.397 . S
C275 C276 1.384 . S
C275 H298 0.930 . S
C276 C275 1.384 . S
C276 C277 1.377 . S
C276 C279 1.481 . S
C277 C276 1.377 . S
C277 C278 1.389 . S
C277 H299 0.929 . S
C278 C274 1.397 . S
C278 C277 1.389 . S
C278 H300 0.931 . S
C279 C276 1.481 . S
C279 C280 1.387 . S
C279 C284 1.390 . S
C280 C279 1.387 . S
C280 C281 1.401 . S
C280 H301 0.930 . S
C281 C280 1.401 . S
C281 C282 1.376 . S
C281 C290 1.511 . S
C282 C281 1.376 . S
C282 C283 1.392 . S
C282 H303 0.931 . S
C283 C282 1.392 . S
C283 C284 1.361 . S
C283 C285 1.500 . S
C284 C279 1.390 . S
C284 C283 1.361 . S
C284 H302 0.931 . S
C285 C283 1.500 . S
C285 C286 1.371 . S
C285 C287 1.365 . S
C286 C285 1.371 . S
C286 C296 1.386 . S
C286 H304 0.931 . S
C287 C285 1.365 . S
C287 C288 1.409 . S
C287 H305 0.929 . S
C288 C287 1.409 . S
C288 C289 1.380 . S
C288 H306 0.930 1_455 S
C289 C288 1.380 . S
C289 C296 1.357 . S
C290 C281 1.511 . S
C290 C291 1.341 . S
C290 C292 1.371 . S
C291 C290 1.341 . S
C291 C295 1.394 . S
C291 H307 0.930 . S
C292 C290 1.371 . S
C292 C293 1.392 . S
C292 H308 0.931 . S
C293 C292 1.392 . S
C293 C294 1.331 . S
C293 H311 0.932 . S
C294 C293 1.331 . S
C294 C295 1.336 . S
C295 C291 1.394 . S
C295 C294 1.336 . S
C295 H310 0.929 . S
C296 C286 1.386 . S
C296 C289 1.357 . S
C296 H309 0.928 . S
H297 C273 0.931 . S
H298 C275 0.930 . S
H299 C277 0.929 . S
H300 C278 0.931 . S
H301 C280 0.930 . S
H302 C284 0.931 . S
H303 C282 0.931 . S
H304 C286 0.931 . S
H305 C287 0.929 . S
H306 C288 0.930 1_655 S
H307 C291 0.930 . S
H308 C292 0.931 . S
H309 C296 0.928 . S
H310 C295 0.929 . S
H311 C293 0.932 . S
C312 O328 1.251 . S
C312 O330 1.254 1_545 S
N313 C314 1.333 . S
N313 C318 1.307 . S
N313 Zn319 2.020 . S
C314 N313 1.333 . S
C314 C315 1.379 . S
C314 H332 0.952 . S
C315 C314 1.379 . S
C315 C316 1.390 . S
C315 H342 0.949 . S
C316 C315 1.390 . S
C316 C317 1.357 . S
C317 C316 1.357 . S
C317 C318 1.370 . S
C317 H343 0.950 . S
C318 N313 1.307 . S
C318 C317 1.370 . S
C318 H336 0.948 1_455 S
Zn319 N313 2.020 . S
Zn319 O328 2.039 . S
Zn319 O334 2.034 . S
Zn319 O338 2.025 1_455 S
Zn319 O340 2.024 1_455 S
C320 O339 1.246 1_545 S
C320 O340 1.249 . S
N321 C322 1.307 . S
N321 C323 1.333 . S
N321 Zn327 2.020 . S
C322 N321 1.307 . S
C322 C326 1.370 . S
C322 H333 0.948 1_655 S
C323 N321 1.333 . S
C323 C324 1.379 . S
C323 H331 0.952 . S
C324 C323 1.379 . S
C324 C325 1.390 . S
C324 H344 0.949 . S
C325 C324 1.390 . S
C325 C326 1.357 . S
C326 C322 1.370 . S
C326 C325 1.357 . S
C326 H345 0.950 1_655 S
Zn327 N321 2.020 . S
Zn327 O330 2.025 1_655 S
Zn327 O335 2.024 1_655 S
Zn327 O337 2.039 . S
Zn327 O339 2.034 . S
O328 C312 1.251 . S
O328 Zn319 2.039 . S
C329 O334 1.246 1_565 S
C329 O335 1.249 . S
O330 C312 1.254 1_565 S
O330 Zn327 2.025 1_455 S
H331 C323 0.952 . S
H332 C314 0.952 . S
H333 C322 0.948 1_455 S
O334 Zn319 2.034 . S
O334 C329 1.246 1_545 S
O335 Zn327 2.024 1_455 S
O335 C329 1.249 . S
H336 C318 0.948 1_655 S
O337 Zn327 2.039 . S
O337 C341 1.251 . S
O338 Zn319 2.025 1_655 S
O338 C341 1.254 1_545 S
O339 C320 1.246 1_565 S
O339 Zn327 2.034 . S
O340 Zn319 2.024 1_655 S
O340 C320 1.249 . S
C341 O337 1.251 . S
C341 O338 1.254 1_565 S
H342 C315 0.949 . S
H343 C317 0.950 . S
H344 C324 0.949 . S
H345 C326 0.950 1_455 S
C346 O362 1.251 1_565 S
C346 O364 1.254 . S
N347 C348 1.333 . S
N347 C352 1.307 . S
N347 Zn353 2.020 . S
C348 N347 1.333 . S
C348 C349 1.379 . S
C348 H366 0.952 . S
C349 C348 1.379 . S
C349 C350 1.390 . S
C349 H376 0.949 . S
C350 C349 1.390 . S
C350 C351 1.357 . S
C351 C350 1.357 . S
C351 C352 1.370 . S
C351 H377 0.950 . S
C352 N347 1.307 . S
C352 C351 1.370 . S
C352 H370 0.948 . S
Zn353 N347 2.020 . S
Zn353 O362 2.039 . S
Zn353 O368 2.034 1_556 S
Zn353 O372 2.025 1_556 S
Zn353 O374 2.024 . S
C354 O373 1.246 . S
C354 O374 1.249 1_565 S
N355 C356 1.307 . S
N355 C357 1.333 . S
N355 Zn361 2.020 . S
C356 N355 1.307 . S
C356 C360 1.370 . S
C356 H367 0.948 . S
C357 N355 1.333 . S
C357 C358 1.379 . S
C357 H365 0.952 . S
C358 C357 1.379 . S
C358 C359 1.390 . S
C358 H378 0.949 . S
C359 C358 1.390 . S
C359 C360 1.357 . S
C360 C356 1.370 . S
C360 C359 1.357 . S
C360 H379 0.950 . S
Zn361 N355 2.020 . S
Zn361 O364 2.025 1_554 S
Zn361 O369 2.024 . S
Zn361 O371 2.039 . S
Zn361 O373 2.034 1_554 S
O362 C346 1.251 1_545 S
O362 Zn353 2.039 . S
C363 O368 1.246 . S
C363 O369 1.249 1_545 S
O364 C346 1.254 . S
O364 Zn361 2.025 1_556 S
H365 C357 0.952 . S
H366 C348 0.952 . S
H367 C356 0.948 . S
O368 Zn353 2.034 1_554 S
O368 C363 1.246 . S
O369 Zn361 2.024 . S
O369 C363 1.249 1_565 S
H370 C352 0.948 . S
O371 Zn361 2.039 . S
O371 C375 1.251 1_565 S
O372 Zn353 2.025 1_554 S
O372 C375 1.254 . S
O373 C354 1.246 . S
O373 Zn361 2.034 1_556 S
O374 Zn353 2.024 . S
O374 C354 1.249 1_545 S
C375 O371 1.251 1_545 S
C375 O372 1.254 . S
H376 C349 0.949 . S
H377 C351 0.950 . S
H378 C358 0.949 . S
H379 C360 0.950 . S
C380 O396 1.251 . S
C380 O398 1.254 . S
N381 C382 1.333 . S
N381 C386 1.307 . S
N381 Zn387 2.020 . S
C382 N381 1.333 . S
C382 C383 1.379 . S
C382 H400 0.952 . S
C383 C382 1.379 . S
C383 C384 1.390 . S
C383 H410 0.949 . S
C384 C383 1.390 . S
C384 C385 1.357 . S
C385 C384 1.357 . S
C385 C386 1.370 . S
C385 H411 0.950 . S
C386 N381 1.307 . S
C386 C385 1.370 . S
C386 H404 0.948 . S
Zn387 N381 2.020 . S
Zn387 O396 2.039 . S
Zn387 O402 2.034 . S
Zn387 O406 2.025 . S
Zn387 O408 2.024 . S
C388 O407 1.246 . S
C388 O408 1.249 . S
N389 C390 1.307 . S
N389 C391 1.333 . S
N389 Zn395 2.020 . S
C390 N389 1.307 . S
C390 C394 1.370 . S
C390 H401 0.948 . S
C391 N389 1.333 . S
C391 C392 1.379 . S
C391 H399 0.952 . S
C392 C391 1.379 . S
C392 C393 1.390 . S
C392 H412 0.949 . S
C393 C392 1.390 . S
C393 C394 1.357 . S
C394 C390 1.370 . S
C394 C393 1.357 . S
C394 H413 0.950 . S
Zn395 N389 2.020 . S
Zn395 O398 2.025 . S
Zn395 O403 2.024 . S
Zn395 O405 2.039 . S
Zn395 O407 2.034 . S
O396 C380 1.251 . S
O396 Zn387 2.039 . S
C397 O402 1.246 . S
C397 O403 1.249 . S
O398 C380 1.254 . S
O398 Zn395 2.025 . S
H399 C391 0.952 . S
H400 C382 0.952 . S
H401 C390 0.948 . S
O402 Zn387 2.034 . S
O402 C397 1.246 . S
O403 Zn395 2.024 . S
O403 C397 1.249 . S
H404 C386 0.948 . S
O405 Zn395 2.039 . S
O405 C409 1.251 . S
O406 Zn387 2.025 . S
O406 C409 1.254 . S
O407 C388 1.246 . S
O407 Zn395 2.034 . S
O408 Zn387 2.024 . S
O408 C388 1.249 . S
C409 O405 1.251 . S
C409 O406 1.254 . S
H410 C383 0.949 . S
H411 C385 0.950 . S
H412 C392 0.949 . S
H413 C394 0.950 . S
C414 O430 1.251 1_556 S
C414 O432 1.254 . S
N415 C416 1.333 . S
N415 C420 1.307 . S
N415 Zn421 2.020 . S
C416 N415 1.333 . S
C416 C417 1.379 . S
C416 H434 0.952 . S
C417 C416 1.379 . S
C417 C418 1.390 . S
C417 H444 0.949 . S
C418 C417 1.390 . S
C418 C419 1.357 . S
C419 C418 1.357 . S
C419 C420 1.370 . S
C419 H445 0.950 . S
C420 N415 1.307 . S
C420 C419 1.370 . S
C420 H438 0.948 . S
Zn421 N415 2.020 . S
Zn421 O430 2.039 . S
Zn421 O436 2.034 1_655 S
Zn421 O440 2.025 1_655 S
Zn421 O442 2.024 . S
C422 O441 1.246 . S
C422 O442 1.249 1_556 S
N423 C424 1.307 . S
N423 C425 1.333 . S
N423 Zn429 2.020 . S
C424 N423 1.307 . S
C424 C428 1.370 . S
C424 H435 0.948 . S
C425 N423 1.333 . S
C425 C426 1.379 . S
C425 H433 0.952 . S
C426 C425 1.379 . S
C426 C427 1.390 . S
C426 H446 0.949 . S
C427 C426 1.390 . S
C427 C428 1.357 . S
C428 C424 1.370 . S
C428 C427 1.357 . S
C428 H447 0.950 . S
Zn429 N423 2.020 . S
Zn429 O432 2.025 1_455 S
Zn429 O437 2.024 . S
Zn429 O439 2.039 . S
Zn429 O441 2.034 1_455 S
O430 C414 1.251 1_554 S
O430 Zn421 2.039 . S
C431 O436 1.246 . S
C431 O437 1.249 1_554 S
O432 C414 1.254 . S
O432 Zn429 2.025 1_655 S
H433 C425 0.952 . S
H434 C416 0.952 . S
H435 C424 0.948 . S
O436 Zn421 2.034 1_455 S
O436 C431 1.246 . S
O437 Zn429 2.024 . S
O437 C431 1.249 1_556 S
H438 C420 0.948 . S
O439 Zn429 2.039 . S
O439 C443 1.251 1_556 S
O440 Zn421 2.025 1_455 S
O440 C443 1.254 . S
O441 C422 1.246 . S
O441 Zn429 2.034 1_655 S
O442 Zn421 2.024 . S
O442 C422 1.249 1_554 S
C443 O439 1.251 1_554 S
C443 O440 1.254 . S
H444 C417 0.949 . S
H445 C419 0.950 . S
H446 C426 0.949 . S
H447 C428 0.950 . S
C1 C312 3.282 . S
C40 C354 3.225 . S
C384 C99 1.702 . S
C118 C418 1.816 . S
C375 C16 2.413 . S
C329 C60 2.387 . S
C422 C79 1.920 1_556 S
C388 C138 1.984 . S
C21 C443 3.105 . S
C350 C94 1.945 . S
C133 C325 1.951 . S
C55 C409 3.085 . S
C341 C157 3.275 . S
C196 C363 3.234 . S
C255 C393 1.643 . S
C289 C427 1.824 . S
C172 C346 2.423 . S
C320 C216 2.425 . S
C431 C235 1.898 1_554 S
C397 C294 1.982 . S
C177 C414 3.082 . S
C359 C250 1.959 . S
C316 C274 1.952 . S
C211 C380 3.069 . S
