# Generated by pormake.
# Topology ptr, (4,4)-cn, num edge types: 1
# Building blocks:
#     Node 0, Type 0, BuildingBlock: TATPOV_clean_sbu_0, # of connection points: 4
#     Node 1, Type 0, BuildingBlock: TATPOV_clean_sbu_0, # of connection points: 4
#     Node 2, Type 0, BuildingBlock: TATPOV_clean_sbu_0, # of connection points: 4
#     Node 3, Type 0, BuildingBlock: TATPOV_clean_sbu_0, # of connection points: 4
#     Node 4, Type 0, BuildingBlock: TATPOV_clean_sbu_0, # of connection points: 4
#     Node 5, Type 0, BuildingBlock: TATPOV_clean_sbu_0, # of connection points: 4
#     Node 6, Type 0, BuildingBlock: TATPOV_clean_sbu_0, # of connection points: 4
#     Node 7, Type 0, BuildingBlock: TATPOV_clean_sbu_0, # of connection points: 4
#     Node 8, Type 0, BuildingBlock: TATPOV_clean_sbu_0, # of connection points: 4
#     Node 9, Type 0, BuildingBlock: TATPOV_clean_sbu_0, # of connection points: 4
#     Node 10, Type 0, BuildingBlock: TATPOV_clean_sbu_0, # of connection points: 4
#     Node 11, Type 0, BuildingBlock: TATPOV_clean_sbu_0, # of connection points: 4
#     Node 12, Type 0, BuildingBlock: TATPOV_clean_sbu_0, # of connection points: 4
#     Node 13, Type 0, BuildingBlock: TATPOV_clean_sbu_0, # of connection points: 4
#     Node 14, Type 0, BuildingBlock: TATPOV_clean_sbu_0, # of connection points: 4
#     Node 15, Type 0, BuildingBlock: TATPOV_clean_sbu_0, # of connection points: 4
#     Node 16, Type 0, BuildingBlock: TATPOV_clean_sbu_0, # of connection points: 4
#     Node 17, Type 0, BuildingBlock: TATPOV_clean_sbu_0, # of connection points: 4
#     Node 18, Type 1, BuildingBlock: NAHDIM_clean_linker_0, # of connection points: 4
#     Node 19, Type 1, BuildingBlock: NAHDIM_clean_linker_0, # of connection points: 4
#     Node 20, Type 1, BuildingBlock: NAHDIM_clean_linker_0, # of connection points: 4
#     Node 21, Type 1, BuildingBlock: NAHDIM_clean_linker_0, # of connection points: 4
#     Node 22, Type 1, BuildingBlock: NAHDIM_clean_linker_0, # of connection points: 4
#     Node 23, Type 1, BuildingBlock: NAHDIM_clean_linker_0, # of connection points: 4
#     Node 24, Type 1, BuildingBlock: NAHDIM_clean_linker_0, # of connection points: 4
#     Node 25, Type 1, BuildingBlock: NAHDIM_clean_linker_0, # of connection points: 4
#     Node 26, Type 1, BuildingBlock: NAHDIM_clean_linker_0, # of connection points: 4
#     Node 27, Type 1, BuildingBlock: NAHDIM_clean_linker_0, # of connection points: 4
#     Node 28, Type 1, BuildingBlock: NAHDIM_clean_linker_0, # of connection points: 4
#     Node 29, Type 1, BuildingBlock: NAHDIM_clean_linker_0, # of connection points: 4
#     Node 30, Type 1, BuildingBlock: NAHDIM_clean_linker_0, # of connection points: 4
#     Node 31, Type 1, BuildingBlock: NAHDIM_clean_linker_0, # of connection points: 4
#     Node 32, Type 1, BuildingBlock: NAHDIM_clean_linker_0, # of connection points: 4
#     Node 33, Type 1, BuildingBlock: NAHDIM_clean_linker_0, # of connection points: 4
#     Node 34, Type 1, BuildingBlock: NAHDIM_clean_linker_0, # of connection points: 4
#     Node 35, Type 1, BuildingBlock: NAHDIM_clean_linker_0, # of connection points: 4
#     Edge 36, Type (0, 1), BuildingBlock: XIVTED_clean_linker_0, # of connection points: 2
#     Edge 37, Type (0, 1), BuildingBlock: XIVTED_clean_linker_0, # of connection points: 2
#     Edge 38, Type (0, 1), BuildingBlock: XIVTED_clean_linker_0, # of connection points: 2
#     Edge 39, Type (0, 1), BuildingBlock: XIVTED_clean_linker_0, # of connection points: 2
#     Edge 40, Type (0, 1), BuildingBlock: XIVTED_clean_linker_0, # of connection points: 2
#     Edge 41, Type (0, 1), BuildingBlock: XIVTED_clean_linker_0, # of connection points: 2
#     Edge 42, Type (0, 1), BuildingBlock: XIVTED_clean_linker_0, # of connection points: 2
#     Edge 43, Type (0, 1), BuildingBlock: XIVTED_clean_linker_0, # of connection points: 2
#     Edge 44, Type (0, 1), BuildingBlock: XIVTED_clean_linker_0, # of connection points: 2
#     Edge 45, Type (0, 1), BuildingBlock: XIVTED_clean_linker_0, # of connection points: 2
#     Edge 46, Type (0, 1), BuildingBlock: XIVTED_clean_linker_0, # of connection points: 2
#     Edge 47, Type (0, 1), BuildingBlock: XIVTED_clean_linker_0, # of connection points: 2
#     Edge 48, Type (0, 1), BuildingBlock: XIVTED_clean_linker_0, # of connection points: 2
#     Edge 49, Type (0, 1), BuildingBlock: XIVTED_clean_linker_0, # of connection points: 2
#     Edge 50, Type (0, 1), BuildingBlock: XIVTED_clean_linker_0, # of connection points: 2
#     Edge 51, Type (0, 1), BuildingBlock: XIVTED_clean_linker_0, # of connection points: 2
#     Edge 52, Type (0, 1), BuildingBlock: XIVTED_clean_linker_0, # of connection points: 2
#     Edge 53, Type (0, 1), BuildingBlock: XIVTED_clean_linker_0, # of connection points: 2
#     Edge 54, Type (0, 1), BuildingBlock: XIVTED_clean_linker_0, # of connection points: 2
#     Edge 55, Type (0, 1), BuildingBlock: XIVTED_clean_linker_0, # of connection points: 2
#     Edge 56, Type (0, 1), BuildingBlock: XIVTED_clean_linker_0, # of connection points: 2
#     Edge 57, Type (0, 1), BuildingBlock: XIVTED_clean_linker_0, # of connection points: 2
#     Edge 58, Type (0, 1), BuildingBlock: XIVTED_clean_linker_0, # of connection points: 2
#     Edge 59, Type (0, 1), BuildingBlock: XIVTED_clean_linker_0, # of connection points: 2
#     Edge 60, Type (0, 1), BuildingBlock: XIVTED_clean_linker_0, # of connection points: 2
#     Edge 61, Type (0, 1), BuildingBlock: XIVTED_clean_linker_0, # of connection points: 2
#     Edge 62, Type (0, 1), BuildingBlock: XIVTED_clean_linker_0, # of connection points: 2
#     Edge 63, Type (0, 1), BuildingBlock: XIVTED_clean_linker_0, # of connection points: 2
#     Edge 64, Type (0, 1), BuildingBlock: XIVTED_clean_linker_0, # of connection points: 2
#     Edge 65, Type (0, 1), BuildingBlock: XIVTED_clean_linker_0, # of connection points: 2
#     Edge 66, Type (0, 1), BuildingBlock: XIVTED_clean_linker_0, # of connection points: 2
#     Edge 67, Type (0, 1), BuildingBlock: XIVTED_clean_linker_0, # of connection points: 2
#     Edge 68, Type (0, 1), BuildingBlock: XIVTED_clean_linker_0, # of connection points: 2
#     Edge 69, Type (0, 1), BuildingBlock: XIVTED_clean_linker_0, # of connection points: 2
#     Edge 70, Type (0, 1), BuildingBlock: XIVTED_clean_linker_0, # of connection points: 2
#     Edge 71, Type (0, 1), BuildingBlock: XIVTED_clean_linker_0, # of connection points: 2
#     Edge 72, Type (0, 1), BuildingBlock: XIVTED_clean_linker_0, # of connection points: 2
#     Edge 73, Type (0, 1), BuildingBlock: XIVTED_clean_linker_0, # of connection points: 2
#     Edge 74, Type (0, 1), BuildingBlock: XIVTED_clean_linker_0, # of connection points: 2
#     Edge 75, Type (0, 1), BuildingBlock: XIVTED_clean_linker_0, # of connection points: 2
#     Edge 76, Type (0, 1), BuildingBlock: XIVTED_clean_linker_0, # of connection points: 2
#     Edge 77, Type (0, 1), BuildingBlock: XIVTED_clean_linker_0, # of connection points: 2
#     Edge 78, Type (0, 1), BuildingBlock: XIVTED_clean_linker_0, # of connection points: 2
#     Edge 79, Type (0, 1), BuildingBlock: XIVTED_clean_linker_0, # of connection points: 2
#     Edge 80, Type (0, 1), BuildingBlock: XIVTED_clean_linker_0, # of connection points: 2
#     Edge 81, Type (0, 1), BuildingBlock: XIVTED_clean_linker_0, # of connection points: 2
#     Edge 82, Type (0, 1), BuildingBlock: XIVTED_clean_linker_0, # of connection points: 2
#     Edge 83, Type (0, 1), BuildingBlock: XIVTED_clean_linker_0, # of connection points: 2
#     Edge 84, Type (0, 1), BuildingBlock: XIVTED_clean_linker_0, # of connection points: 2
#     Edge 85, Type (0, 1), BuildingBlock: XIVTED_clean_linker_0, # of connection points: 2
#     Edge 86, Type (0, 1), BuildingBlock: XIVTED_clean_linker_0, # of connection points: 2
#     Edge 87, Type (0, 1), BuildingBlock: XIVTED_clean_linker_0, # of connection points: 2
#     Edge 88, Type (0, 1), BuildingBlock: XIVTED_clean_linker_0, # of connection points: 2
#     Edge 89, Type (0, 1), BuildingBlock: XIVTED_clean_linker_0, # of connection points: 2
#     Edge 90, Type (0, 1), BuildingBlock: XIVTED_clean_linker_0, # of connection points: 2
#     Edge 91, Type (0, 1), BuildingBlock: XIVTED_clean_linker_0, # of connection points: 2
#     Edge 92, Type (0, 1), BuildingBlock: XIVTED_clean_linker_0, # of connection points: 2
#     Edge 93, Type (0, 1), BuildingBlock: XIVTED_clean_linker_0, # of connection points: 2
#     Edge 94, Type (0, 1), BuildingBlock: XIVTED_clean_linker_0, # of connection points: 2
#     Edge 95, Type (0, 1), BuildingBlock: XIVTED_clean_linker_0, # of connection points: 2
#     Edge 96, Type (0, 1), BuildingBlock: XIVTED_clean_linker_0, # of connection points: 2
#     Edge 97, Type (0, 1), BuildingBlock: XIVTED_clean_linker_0, # of connection points: 2
#     Edge 98, Type (0, 1), BuildingBlock: XIVTED_clean_linker_0, # of connection points: 2
#     Edge 99, Type (0, 1), BuildingBlock: XIVTED_clean_linker_0, # of connection points: 2
#     Edge 100, Type (0, 1), BuildingBlock: XIVTED_clean_linker_0, # of connection points: 2
#     Edge 101, Type (0, 1), BuildingBlock: XIVTED_clean_linker_0, # of connection points: 2
#     Edge 102, Type (0, 1), BuildingBlock: XIVTED_clean_linker_0, # of connection points: 2
#     Edge 103, Type (0, 1), BuildingBlock: XIVTED_clean_linker_0, # of connection points: 2
#     Edge 104, Type (0, 1), BuildingBlock: XIVTED_clean_linker_0, # of connection points: 2
#     Edge 105, Type (0, 1), BuildingBlock: XIVTED_clean_linker_0, # of connection points: 2
#     Edge 106, Type (0, 1), BuildingBlock: XIVTED_clean_linker_0, # of connection points: 2
#     Edge 107, Type (0, 1), BuildingBlock: XIVTED_clean_linker_0, # of connection points: 2
# Relax obj value: 0.077
# Max RMSD: 0.285
# Mean RMSD: 0.115
data_MOF--net-ptr--node1-TATPOV_clean_sbu_0--node2-NAHDIM_clean_linker_0--edge1-XIVTED_clean_linker_0
_symmetry_space_group_name_H-M    P1
_symmetry_Int_Tables_number       1
_symmetry_cell_setting            triclinic
loop_
_symmetry_equiv_pos_as_xyz
'x, y, z'
_cell_length_a     93.960933
_cell_length_b     95.093583
_cell_length_c     79.34293
_cell_angle_alpha  90.590542
_cell_angle_beta   90.953542
_cell_angle_gamma 121.70969
loop_
_atom_site_label
_atom_site_type_symbol
_atom_site_fract_x
_atom_site_fract_y
_atom_site_fract_z
_atom_type_partial_charge
Zn0 Zn 0.96434 0.33556 0.0201 0.0
Zn1 Zn 0.99547 0.34085 0.01819 0.0
O2 O 0.97872 0.31609 0.01299 0.0
O3 O 0.95325 0.31094 0.01651 0.0
O4 O 0.01699 0.34072 0.01997 0.0
O5 O 0.96898 0.34554 0.04351 0.0
O6 O 0.99466 0.35093 0.04112 0.0
C7 C 0.96295 0.30593 0.01296 0.0
C8 C 0.98545 0.35766 0.99299 0.0
O9 O 0.99686 0.3553 0.99849 0.0
O10 O 0.97131 0.35069 0.99991 0.0
C11 C 0.02889 0.34935 0.03057 0.0
O12 O 0.02862 0.36083 0.03965 0.0
C13 C 0.98371 0.35187 0.04949 0.0
Zn14 Zn 0.65651 0.62528 0.00971 0.0
Zn15 Zn 0.65639 0.65238 0.02021 0.0
O16 O 0.68019 0.66088 0.01192 0.0
O17 O 0.68087 0.63903 0.00395 0.0
O18 O 0.659 0.67346 0.0296 0.0
O19 O 0.64982 0.61563 0.03286 0.0
O20 O 0.64885 0.63735 0.04082 0.0
C21 C 0.68814 0.65454 0.00597 0.0
C22 C 0.63317 0.6315 0.99114 0.0
O23 O 0.63854 0.64397 0.00113 0.0
O24 O 0.63886 0.62205 0.99237 0.0
C25 C 0.66711 0.68679 0.02153 0.0
O26 O 0.67226 0.68626 0.00637 0.0
C27 C 0.64699 0.62339 0.04404 0.0
Zn28 Zn 0.34325 0.9727 0.00376 0.0
Zn29 Zn 0.34672 0.00272 0.00192 0.0
O30 O 0.32212 0.98614 0.00733 0.0
O31 O 0.31855 0.9614 0.0084 0.0
O32 O 0.34644 0.02351 0.99753 0.0
O33 O 0.35247 0.97483 0.98043 0.0
O34 O 0.35635 0.99973 0.98007 0.0
C35 C 0.31273 0.97071 0.00976 0.0
C36 C 0.36581 0.99745 0.02948 0.0
O37 O 0.36225 0.00727 0.02247 0.0
O38 O 0.3595 0.98279 0.02374 0.0
C39 C 0.337 0.02672 0.00586 0.0
O40 O 0.32875 0.01729 0.01851 0.0
C41 C 0.35789 0.98846 0.97317 0.0
Zn42 Zn 0.0391 0.66683 0.02631 0.0
Zn43 Zn 0.00855 0.66183 0.01731 0.0
O44 O 0.02317 0.68607 0.02484 0.0
O45 O 0.04849 0.69135 0.03068 0.0
O46 O 0.98824 0.66154 0.00831 0.0
O47 O 0.04039 0.6582 0.0031 0.0
O48 O 0.01572 0.65439 0.99663 0.0
C49 C 0.03828 0.6962 0.02948 0.0
C50 C 0.0105 0.64262 0.04638 0.0
O51 O 0.00147 0.64547 0.03653 0.0
O52 O 0.02624 0.65026 0.04473 0.0
C53 C 0.9809 0.66712 0.01689 0.0
O54 O 0.98531 0.67127 0.03283 0.0
C55 C 0.02828 0.65346 0.99266 0.0
Zn56 Zn 0.35034 0.38799 0.03253 0.0
Zn57 Zn 0.35123 0.3634 0.01517 0.0
O58 O 0.32755 0.35296 0.02397 0.0
O59 O 0.32616 0.37187 0.03875 0.0
O60 O 0.34901 0.34388 0.00249 0.0
O61 O 0.35597 0.40045 0.01039 0.0
O62 O 0.35728 0.38068 0.99719 0.0
C63 C 0.31931 0.35719 0.033 0.0
C64 C 0.37499 0.38059 0.04541 0.0
O65 O 0.36957 0.36994 0.03333 0.0
O66 O 0.36888 0.38959 0.04761 0.0
C67 C 0.3426 0.33021 0.01004 0.0
O68 O 0.33938 0.32986 0.02613 0.0
C69 C 0.35854 0.39468 0.99708 0.0
Zn70 Zn 0.66295 0.0402 0.0015 0.0
Zn71 Zn 0.65888 0.0106 0.01051 0.0
O72 O 0.68337 0.0254 0.00412 0.0
O73 O 0.68745 0.04948 0.99683 0.0
O74 O 0.65875 0.99063 0.01905 0.0
O75 O 0.65522 0.04221 0.02474 0.0
O76 O 0.65144 0.01799 0.031 0.0
C77 C 0.69299 0.04002 0.99898 0.0
C78 C 0.63869 0.01136 0.98064 0.0
O79 O 0.64224 0.00299 0.99041 0.0
O80 O 0.64576 0.02688 0.98284 0.0
C81 C 0.6669 0.98526 0.01161 0.0
O82 O 0.6738 0.99165 0.99717 0.0
C83 C 0.65067 0.03056 0.03502 0.0
Zn84 Zn 0.63312 0.68442 0.32901 0.0
Zn85 Zn 0.65862 0.68346 0.3438 0.0
O86 O 0.64347 0.66056 0.33225 0.0
O87 O 0.62341 0.66158 0.31876 0.0
O88 O 0.677 0.68106 0.35436 0.0
O89 O 0.6262 0.68742 0.35203 0.0
O90 O 0.64836 0.68889 0.36383 0.0
C91 C 0.63044 0.65375 0.32264 0.0
C92 C 0.66575 0.70977 0.31773 0.0
O93 O 0.67095 0.70271 0.32744 0.0
O94 O 0.65027 0.70451 0.3165 0.0
C95 C 0.68279 0.67399 0.3456 0.0
O96 O 0.67711 0.66921 0.33004 0.0
C97 C 0.63524 0.68963 0.36501 0.0
Zn98 Zn 0.29484 0.94537 0.34573 0.0
Zn99 Zn 0.30506 0.97604 0.35756 0.0
O100 O 0.32608 0.97834 0.34714 0.0
O101 O 0.31759 0.95376 0.33606 0.0
O102 O 0.31359 0.99893 0.36733 0.0
O103 O 0.29048 0.93689 0.36933 0.0
O104 O 0.29661 0.96143 0.37856 0.0
C105 C 0.3291 0.96867 0.33887 0.0
C106 C 0.27638 0.95914 0.33138 0.0
O107 O 0.28681 0.97201 0.34001 0.0
O108 O 0.27682 0.94608 0.33218 0.0
C109 C 0.32384 0.01184 0.35945 0.0
O110 O 0.32838 0.01022 0.34434 0.0
C111 C 0.29177 0.9464 0.38133 0.0
Zn112 Zn 0.02124 0.31074 0.35596 0.0
Zn113 Zn 0.02344 0.33798 0.34351 0.0
O114 O 0.99891 0.32369 0.35127 0.0
O115 O 0.99698 0.30111 0.36081 0.0
O116 O 0.02459 0.35808 0.33358 0.0
O117 O 0.02771 0.30596 0.33355 0.0
O118 O 0.02967 0.32838 0.32344 0.0
C119 C 0.99031 0.30944 0.35772 0.0
C120 C 0.04573 0.34079 0.37368 0.0
O121 O 0.04122 0.34761 0.36284 0.0
O122 O 0.03895 0.32522 0.37347 0.0
C123 C 0.01672 0.36428 0.33997 0.0
O124 O 0.0079 0.35764 0.35347 0.0
C125 C 0.03076 0.31565 0.32145 0.0
Zn126 Zn 0.70165 0.98156 0.37247 0.0
Zn127 Zn 0.67411 0.97733 0.35545 0.0
O128 O 0.6866 0.0016 0.36345 0.0
O129 O 0.70961 0.00586 0.37613 0.0
O130 O 0.65444 0.97477 0.34207 0.0
O131 O 0.70813 0.97426 0.3512 0.0
O132 O 0.68608 0.9716 0.33787 0.0
C133 C 0.70048 0.01124 0.37118 0.0
C134 C 0.66981 0.95709 0.38677 0.0
O135 O 0.66361 0.96063 0.3743 0.0
O136 O 0.68555 0.96442 0.38893 0.0
C137 C 0.65707 0.98526 0.33083 0.0
O138 O 0.67246 0.99751 0.32848 0.0
C139 C 0.69918 0.97077 0.33786 0.0
Zn140 Zn 0.03119 0.72728 0.36086 0.0
Zn141 Zn 0.02776 0.70047 0.34394 0.0
O142 O 0.00433 0.69235 0.35233 0.0
O143 O 0.00703 0.71276 0.36823 0.0
O144 O 0.02474 0.67985 0.33271 0.0
O145 O 0.03641 0.73878 0.33841 0.0
O146 O 0.03523 0.71765 0.32527 0.0
C147 C 0.99806 0.69817 0.36222 0.0
C148 C 0.05272 0.71691 0.37407 0.0
O149 O 0.04492 0.7054 0.363 0.0
O150 O 0.04986 0.72849 0.3753 0.0
C151 C 0.0162 0.6664 0.34054 0.0
O152 O 0.01024 0.66672 0.3553 0.0
C153 C 0.03777 0.7322 0.32504 0.0
Zn154 Zn 0.31354 0.36604 0.3286 0.0
Zn155 Zn 0.31147 0.33955 0.34392 0.0
O156 O 0.33507 0.35288 0.3345 0.0
O157 O 0.3373 0.3743 0.32165 0.0
O158 O 0.31288 0.32148 0.35545 0.0
O159 O 0.30887 0.37287 0.35119 0.0
O160 O 0.30663 0.351 0.36309 0.0
C161 C 0.34359 0.36591 0.32604 0.0
C162 C 0.28773 0.33397 0.31429 0.0
O163 O 0.29273 0.32804 0.32567 0.0
O164 O 0.29449 0.34948 0.31316 0.0
C165 C 0.3187 0.31413 0.34722 0.0
O166 O 0.32187 0.31737 0.33118 0.0
C167 C 0.30617 0.36414 0.36409 0.0
Zn168 Zn 0.30153 0.01788 0.65869 0.0
Zn169 Zn 0.3288 0.02128 0.67459 0.0
O170 O 0.31638 0.99722 0.66535 0.0
O171 O 0.29384 0.99425 0.65278 0.0
O172 O 0.34874 0.02358 0.68724 0.0
O173 O 0.29418 0.02278 0.68048 0.0
O174 O 0.31663 0.02582 0.6933 0.0
C175 C 0.30257 0.98828 0.65721 0.0
C176 C 0.33268 0.0442 0.64574 0.0
O177 O 0.33911 0.03951 0.65691 0.0
O178 O 0.31693 0.03683 0.64385 0.0
C179 C 0.36227 0.02715 0.68019 0.0
O180 O 0.36352 0.0294 0.66384 0.0
C181 C 0.30312 0.02592 0.69374 0.0
Zn182 Zn 0.98363 0.2836 0.66153 0.0
Zn183 Zn 0.98278 0.30862 0.67616 0.0
O184 O 0.00674 0.31905 0.667 0.0
O185 O 0.00717 0.29861 0.6543 0.0
O186 O 0.98446 0.32828 0.6882 0.0
O187 O 0.97964 0.27243 0.68379 0.0
O188 O 0.97626 0.29171 0.69515 0.0
C189 C 0.0145 0.31372 0.65863 0.0
C190 C 0.95809 0.28888 0.64743 0.0
O191 O 0.96414 0.30098 0.65798 0.0
O192 O 0.96411 0.27969 0.64673 0.0
C193 C 0.97858 0.33683 0.68286 0.0
O194 O 0.97001 0.33264 0.66851 0.0
C195 C 0.97613 0.27828 0.69632 0.0
Zn196 Zn 0.68952 0.64575 0.69234 0.0
Zn197 Zn 0.68681 0.66988 0.67805 0.0
O198 O 0.66439 0.6551 0.6897 0.0
O199 O 0.66647 0.63555 0.70187 0.0
O200 O 0.68225 0.68593 0.66633 0.0
O201 O 0.69214 0.63818 0.66949 0.0
O202 O 0.69162 0.65895 0.65814 0.0
C203 C 0.65809 0.64217 0.69857 0.0
C204 C 0.71485 0.67904 0.70397 0.0
O205 O 0.70704 0.68356 0.69433 0.0
O206 O 0.70994 0.66386 0.70503 0.0
C207 C 0.68699 0.70057 0.67121 0.0
O208 O 0.69648 0.70682 0.6849 0.0
C209 C 0.69307 0.64639 0.65666 0.0
Zn210 Zn 0.36619 0.31707 0.69676 0.0
Zn211 Zn 0.34087 0.31652 0.67869 0.0
O212 O 0.35519 0.33983 0.68879 0.0
O213 O 0.37476 0.34068 0.70518 0.0
O214 O 0.32378 0.31916 0.66576 0.0
O215 O 0.37386 0.31255 0.67449 0.0
O216 O 0.35227 0.31049 0.66071 0.0
C217 C 0.36761 0.3477 0.69901 0.0
C218 C 0.33261 0.29206 0.70708 0.0
O219 O 0.32782 0.29826 0.69583 0.0
O220 O 0.34807 0.29765 0.70957 0.0
C221 C 0.31218 0.3194 0.67354 0.0
O222 O 0.3105 0.31619 0.6897 0.0
C223 C 0.36539 0.3097 0.66089 0.0
Zn224 Zn 0.69745 0.06173 0.69288 0.0
Zn225 Zn 0.6898 0.03217 0.67889 0.0
O226 O 0.66806 0.02707 0.68981 0.0
O227 O 0.67367 0.05061 0.70149 0.0
O228 O 0.68336 0.01001 0.66864 0.0
O229 O 0.70224 0.07132 0.66953 0.0
O230 O 0.69667 0.04753 0.65852 0.0
C231 C 0.66345 0.03537 0.69829 0.0
C232 C 0.71788 0.04956 0.70589 0.0
O233 O 0.70863 0.03729 0.69601 0.0
O234 O 0.71594 0.06177 0.70666 0.0
C235 C 0.67061 0.00255 0.65876 0.0
O236 O 0.66226 0.00973 0.65506 0.0
C237 C 0.70109 0.06261 0.65678 0.0
Zn238 Zn 0.98115 0.70212 0.65595 0.0
Zn239 Zn 0.97731 0.67483 0.67129 0.0
O240 O 0.00137 0.68716 0.66284 0.0
O241 O 0.00543 0.70999 0.65154 0.0
O242 O 0.97638 0.65566 0.68312 0.0
O243 O 0.97509 0.7086 0.67794 0.0
O244 O 0.97255 0.6867 0.69011 0.0
C245 C 0.01087 0.70078 0.65559 0.0
C246 C 0.95516 0.67083 0.64061 0.0
O247 O 0.95912 0.66454 0.65253 0.0
O248 O 0.96284 0.68639 0.63917 0.0
C249 C 0.97228 0.64215 0.67555 0.0
O250 O 0.96765 0.64011 0.65955 0.0
C251 C 0.97203 0.69982 0.69087 0.0
C252 C 0.21009 0.24865 0.07154 0.0
C253 C 0.20942 0.26432 0.07316 0.0
C254 C 0.19683 0.2717 0.09513 0.0
C255 C 0.20359 0.28685 0.1037 0.0
C256 C 0.19319 0.29193 0.11022 0.0
C257 C 0.1756 0.28118 0.10873 0.0
C258 C 0.16872 0.26584 0.09991 0.0
C259 C 0.17948 0.26133 0.09305 0.0
C260 C 0.20101 0.30858 0.11907 0.0
C261 C 0.15005 0.25402 0.09819 0.0
C262 C 0.09029 0.3187 0.05843 0.0
C263 C 0.09818 0.30959 0.06447 0.0
C264 C 0.12055 0.31314 0.08363 0.0
C265 C 0.11372 0.29611 0.08583 0.0
C266 C 0.12184 0.29043 0.0962 0.0
C267 C 0.13721 0.30197 0.1044 0.0
C268 C 0.14423 0.31909 0.10208 0.0
C269 C 0.13574 0.32445 0.0918 0.0
C270 C 0.11395 0.27208 0.09847 0.0
C271 C 0.16067 0.33172 0.11052 0.0
C272 C 0.09899 0.29593 0.20878 0.0
C273 C 0.09399 0.28128 0.19951 0.0
C274 C 0.10587 0.27845 0.19243 0.0
C275 C 0.12309 0.29071 0.19416 0.0
C276 C 0.12819 0.30548 0.20341 0.0
C277 C 0.11605 0.30782 0.21069 0.0
C278 C 0.09997 0.26238 0.18294 0.0
C279 C 0.14643 0.31884 0.2054 0.0
C280 C 0.2061 0.24325 0.22281 0.0
C281 C 0.2053 0.2589 0.22404 0.0
C282 C 0.18088 0.26085 0.2178 0.0
C283 C 0.1638 0.25055 0.21405 0.0
C284 C 0.15514 0.25617 0.20444 0.0
C285 C 0.16374 0.27269 0.19892 0.0
C286 C 0.18085 0.28345 0.20351 0.0
C287 C 0.18928 0.27737 0.21276 0.0
C288 C 0.1369 0.24433 0.19987 0.0
C289 C 0.19029 0.30133 0.19846 0.0
C290 C 0.16447 0.28548 0.11743 0.0
C291 C 0.15644 0.29173 0.1079 0.0
C292 C 0.14587 0.29605 0.11543 0.0
C293 C 0.14338 0.29433 0.13301 0.0
C294 C 0.1329 0.29861 0.14102 0.0
C295 C 0.13046 0.29676 0.1583 0.0
C296 C 0.13834 0.2905 0.16825 0.0
C297 C 0.13562 0.28822 0.18576 0.0
C298 C 0.14416 0.28259 0.19541 0.0
C299 C 0.155 0.27858 0.18794 0.0
C300 C 0.15725 0.28005 0.1703 0.0
C301 C 0.1673 0.27526 0.16221 0.0
C302 C 0.16955 0.27688 0.1449 0.0
C303 C 0.16197 0.28348 0.13499 0.0
C304 C 0.15152 0.28807 0.14282 0.0
C305 C 0.14909 0.28626 0.16048 0.0
C306 C 0.06322 0.29175 0.19964 0.0
C307 C 0.07063 0.28918 0.2158 0.0
O308 O 0.20717 0.26677 0.08989 0.0
O309 O 0.18885 0.25446 0.22623 0.0
O310 O 0.08794 0.29918 0.216 0.0
O311 O 0.11289 0.31911 0.07389 0.0
H312 H 0.19868 0.2625 0.06517 0.0
H313 H 0.19828 0.2379 0.07608 0.0
H314 H 0.22073 0.2499 0.0792 0.0
H315 H 0.21153 0.24617 0.05816 0.0
H316 H 0.21706 0.2947 0.10526 0.0
H317 H 0.17442 0.2495 0.08656 0.0
H318 H 0.19466 0.31511 0.115 0.0
H319 H 0.21458 0.31653 0.11659 0.0
H320 H 0.1995 0.30683 0.13288 0.0
H321 H 0.14673 0.24212 0.09198 0.0
H322 H 0.14447 0.25977 0.09062 0.0
H323 H 0.14436 0.25146 0.11081 0.0
H324 H 0.09874 0.30112 0.05504 0.0
H325 H 0.09026 0.31795 0.04422 0.0
H326 H 0.10031 0.33229 0.0593 0.0
H327 H 0.06648 0.30747 0.07264 0.0
H328 H 0.102 0.28716 0.07957 0.0
H329 H 0.14095 0.33754 0.09005 0.0
H330 H 0.1123 0.26923 0.11209 0.0
H331 H 0.12236 0.26816 0.09358 0.0
H332 H 0.10159 0.26472 0.09182 0.0
H333 H 0.16481 0.34455 0.1069 0.0
H334 H 0.17049 0.32911 0.10712 0.0
H335 H 0.15946 0.33082 0.12442 0.0
H336 H 0.06676 0.27596 0.21633 0.0
H337 H 0.0809 0.27198 0.19758 0.0
H338 H 0.11983 0.31909 0.21781 0.0
H339 H 0.10193 0.26478 0.16926 0.0
H340 H 0.08649 0.25321 0.18477 0.0
H341 H 0.10734 0.25689 0.18706 0.0
H342 H 0.1483 0.33 0.21217 0.0
H343 H 0.15213 0.32248 0.19281 0.0
H344 H 0.1532 0.31402 0.21252 0.0
H345 H 0.20983 0.26513 0.21175 0.0
H346 H 0.21924 0.24655 0.22137 0.0
H347 H 0.19863 0.23567 0.21162 0.0
H348 H 0.20092 0.23563 0.23419 0.0
H349 H 0.15738 0.23788 0.21819 0.0
H350 H 0.20239 0.28556 0.2161 0.0
H351 H 0.13483 0.24417 0.18603 0.0
H352 H 0.12922 0.24855 0.20602 0.0
H353 H 0.13244 0.23153 0.20388 0.0
H354 H 0.20264 0.30863 0.20514 0.0
H355 H 0.18287 0.30707 0.20115 0.0
H356 H 0.19241 0.30204 0.1847 0.0
H357 H 0.15837 0.29315 0.09443 0.0
H358 H 0.12646 0.30343 0.13402 0.0
H359 H 0.1223 0.30033 0.16377 0.0
H360 H 0.14214 0.28105 0.20886 0.0
H361 H 0.17349 0.27014 0.16914 0.0
H362 H 0.17737 0.27291 0.13941 0.0
H363 H 0.04933 0.28398 0.19963 0.0
H364 H 0.06761 0.28812 0.18845 0.0
H365 H 0.0671 0.30492 0.19848 0.0
C366 C 0.72985 0.94843 0.09083 0.0
C367 C 0.71668 0.9333 0.08042 0.0
C368 C 0.70817 0.90989 0.09934 0.0
C369 C 0.69509 0.89809 0.10896 0.0
C370 C 0.69661 0.88627 0.11791 0.0
C371 C 0.71172 0.88641 0.11736 0.0
C372 C 0.72509 0.89838 0.10776 0.0
C373 C 0.72318 0.90996 0.09878 0.0
C374 C 0.68204 0.87359 0.1279 0.0
C375 C 0.7414 0.8989 0.10697 0.0
C376 C 0.69748 0.77503 0.06201 0.0
C377 C 0.70476 0.79146 0.07037 0.0
C378 C 0.69934 0.80532 0.09319 0.0
C379 C 0.7157 0.81931 0.09404 0.0
C380 C 0.71977 0.83281 0.10476 0.0
C381 C 0.70724 0.8324 0.11476 0.0
C382 C 0.69085 0.81826 0.11415 0.0
C383 C 0.68716 0.80485 0.10343 0.0
C384 C 0.73742 0.84763 0.10527 0.0
C385 C 0.67718 0.81744 0.12462 0.0
C386 C 0.72773 0.81329 0.22057 0.0
C387 C 0.74292 0.82801 0.21754 0.0
C388 C 0.74311 0.84112 0.20929 0.0
C389 C 0.72779 0.8396 0.20438 0.0
C390 C 0.71247 0.825 0.20802 0.0
C391 C 0.71269 0.81191 0.21573 0.0
C392 C 0.75969 0.85648 0.20563 0.0
C393 C 0.69583 0.82309 0.20366 0.0
C394 C 0.74902 0.96396 0.22258 0.0
C395 C 0.73739 0.94675 0.22956 0.0
C396 C 0.74199 0.92418 0.22356 0.0
C397 C 0.75485 0.9221 0.21819 0.0
C398 C 0.75134 0.90767 0.20946 0.0
C399 C 0.73449 0.89485 0.20641 0.0
C400 C 0.7214 0.89651 0.21266 0.0
C401 C 0.72529 0.9112 0.22114 0.0
C402 C 0.76562 0.90627 0.20315 0.0
C403 C 0.70332 0.88287 0.21013 0.0
C404 C 0.7134 0.87379 0.12649 0.0
C405 C 0.70995 0.85958 0.1175 0.0
C406 C 0.71111 0.84708 0.12526 0.0
C407 C 0.71573 0.84867 0.14255 0.0
C408 C 0.71714 0.8364 0.15073 0.0
C409 C 0.72131 0.83791 0.16785 0.0
C410 C 0.72412 0.8517 0.17748 0.0
C411 C 0.72773 0.85305 0.19503 0.0
C412 C 0.73091 0.86716 0.2041 0.0
C413 C 0.73059 0.88004 0.19613 0.0
C414 C 0.72669 0.87876 0.17866 0.0
C415 C 0.72611 0.89142 0.17025 0.0
C416 C 0.72184 0.88986 0.15316 0.0
C417 C 0.71809 0.87564 0.14378 0.0
C418 C 0.71907 0.86294 0.15188 0.0
C419 C 0.72331 0.86448 0.16935 0.0
C420 C 0.74992 0.79601 0.22733 0.0
C421 C 0.73883 0.79978 0.2381 0.0
O422 O 0.70573 0.92091 0.09097 0.0
O423 O 0.74615 0.93877 0.23112 0.0
O424 O 0.72696 0.79996 0.22763 0.0
O425 O 0.69482 0.79218 0.08264 0.0
H426 H 0.72305 0.92869 0.07239 0.0
H427 H 0.73738 0.94519 0.09898 0.0
H428 H 0.72376 0.95318 0.09905 0.0
H429 H 0.73851 0.9584 0.08236 0.0
H430 H 0.68358 0.89811 0.10934 0.0
H431 H 0.73348 0.91898 0.09145 0.0
H432 H 0.67857 0.86094 0.12381 0.0
H433 H 0.67088 0.87468 0.12644 0.0
H434 H 0.68573 0.8751 0.14147 0.0
H435 H 0.75102 0.90968 0.09994 0.0
H436 H 0.7392 0.88741 0.10069 0.0
H437 H 0.74635 0.89943 0.11993 0.0
H438 H 0.71041 0.80222 0.06183 0.0
H439 H 0.71464 0.76661 0.07035 0.0
H440 H 0.69558 0.77707 0.04838 0.0
H441 H 0.68366 0.76775 0.06473 0.0
H442 H 0.72534 0.8198 0.08634 0.0
H443 H 0.67461 0.79401 0.10278 0.0
H444 H 0.74227 0.8507 0.1185 0.0
H445 H 0.73745 0.8585 0.10024 0.0
H446 H 0.74604 0.84554 0.09774 0.0
H447 H 0.66501 0.80566 0.12252 0.0
H448 H 0.67557 0.82789 0.12154 0.0
H449 H 0.68079 0.81869 0.1382 0.0
H450 H 0.74684 0.81201 0.24457 0.0
H451 H 0.75466 0.82921 0.22117 0.0
H452 H 0.70103 0.80051 0.21818 0.0
H453 H 0.76 0.85984 0.19222 0.0
H454 H 0.77042 0.85492 0.20833 0.0
H455 H 0.76128 0.86693 0.21354 0.0
H456 H 0.68536 0.81255 0.21023 0.0
H457 H 0.69331 0.82084 0.18988 0.0
H458 H 0.69601 0.83455 0.20702 0.0
H459 H 0.72676 0.9401 0.22028 0.0
H460 H 0.74227 0.97061 0.22109 0.0
H461 H 0.75343 0.96285 0.21002 0.0
H462 H 0.7601 0.97135 0.23113 0.0
H463 H 0.7677 0.93208 0.22041 0.0
H464 H 0.71529 0.91249 0.22593 0.0
H465 H 0.76416 0.90385 0.18931 0.0
H466 H 0.76536 0.89565 0.20914 0.0
H467 H 0.778 0.91763 0.20593 0.0
H468 H 0.69473 0.88534 0.21722 0.0
H469 H 0.70153 0.87092 0.21422 0.0
H470 H 0.6998 0.88153 0.19653 0.0
H471 H 0.70631 0.85823 0.10425 0.0
H472 H 0.71495 0.82544 0.144 0.0
H473 H 0.7222 0.82807 0.17345 0.0
H474 H 0.73366 0.86812 0.21755 0.0
H475 H 0.72883 0.90264 0.17681 0.0
H476 H 0.72147 0.89994 0.1474 0.0
H477 H 0.7609 0.79797 0.23486 0.0
H478 H 0.75476 0.80442 0.21648 0.0
H479 H 0.74266 0.78309 0.22226 0.0
C480 C 0.22661 0.93172 0.05598 0.0
C481 C 0.21141 0.92635 0.06581 0.0
C482 C 0.19394 0.90494 0.08586 0.0
C483 C 0.18396 0.91142 0.08994 0.0
C484 C 0.17063 0.90312 0.10101 0.0
C485 C 0.16735 0.88818 0.1082 0.0
C486 C 0.17784 0.88204 0.10466 0.0
C487 C 0.19098 0.89051 0.09349 0.0
C488 C 0.15972 0.91001 0.10464 0.0
C489 C 0.1748 0.86623 0.11223 0.0
C490 C 0.06629 0.81945 0.03884 0.0
C491 C 0.07529 0.81509 0.05208 0.0
C492 C 0.08296 0.82563 0.08088 0.0
C493 C 0.09538 0.82198 0.08407 0.0
C494 C 0.10785 0.83077 0.09656 0.0
C495 C 0.1081 0.84376 0.10574 0.0
C496 C 0.09518 0.84703 0.10294 0.0
C497 C 0.08253 0.8376 0.09079 0.0
C498 C 0.12107 0.82653 0.09947 0.0
C499 C 0.09512 0.86097 0.11217 0.0
C500 C 0.07629 0.82026 0.21181 0.0
C501 C 0.08922 0.81729 0.20899 0.0
C502 C 0.1042 0.82939 0.20174 0.0
C503 C 0.10628 0.84473 0.19731 0.0
C504 C 0.0936 0.84802 0.20093 0.0
C505 C 0.07881 0.83575 0.20828 0.0
C506 C 0.11768 0.82567 0.19846 0.0
C507 C 0.0955 0.86434 0.19665 0.0
C508 C 0.20798 0.96319 0.22312 0.0
C509 C 0.20164 0.9485 0.23496 0.0
C510 C 0.18852 0.92269 0.21789 0.0
C511 C 0.18938 0.90871 0.21445 0.0
C512 C 0.17652 0.89508 0.2053 0.0
C513 C 0.16263 0.89565 0.19913 0.0
C514 C 0.16172 0.9098 0.20245 0.0
C515 C 0.17461 0.92314 0.21187 0.0
C516 C 0.17781 0.88013 0.20213 0.0
C517 C 0.14716 0.91089 0.1959 0.0
C518 C 0.15191 0.87792 0.11781 0.0
C519 C 0.13758 0.86636 0.10863 0.0
C520 C 0.12287 0.85512 0.11666 0.0
C521 C 0.12246 0.85518 0.13447 0.0
C522 C 0.10826 0.84341 0.14304 0.0
C523 C 0.10786 0.84385 0.16055 0.0
C524 C 0.12165 0.85614 0.17016 0.0
C525 C 0.12121 0.85692 0.18795 0.0
C526 C 0.13488 0.86968 0.19706 0.0
C527 C 0.14918 0.88164 0.18887 0.0
C528 C 0.15011 0.88067 0.17115 0.0
C529 C 0.16454 0.89211 0.16256 0.0
C530 C 0.16529 0.89108 0.14511 0.0
C531 C 0.15145 0.8789 0.13555 0.0
C532 C 0.1367 0.86736 0.14392 0.0
C533 C 0.13618 0.86801 0.16177 0.0
C534 C 0.03564 0.78431 0.20992 0.0
C535 C 0.05366 0.79159 0.21634 0.0
O536 O 0.2063 0.91193 0.07446 0.0
O537 O 0.20148 0.93547 0.22675 0.0
O538 O 0.06128 0.80862 0.21797 0.0
O539 O 0.07157 0.81817 0.06802 0.0
H540 H 0.20114 0.9268 0.05911 0.0
H541 H 0.22274 0.93159 0.0424 0.0
H542 H 0.22779 0.92056 0.05429 0.0
H543 H 0.24613 0.95508 0.06926 0.0
H544 H 0.18628 0.92272 0.08429 0.0
H545 H 0.19885 0.88571 0.09039 0.0
H546 H 0.14689 0.90139 0.09946 0.0
H547 H 0.1646 0.92234 0.09906 0.0
H548 H 0.15878 0.91108 0.11848 0.0
H549 H 0.18478 0.86373 0.10917 0.0
H550 H 0.16262 0.85568 0.10742 0.0
H551 H 0.17409 0.86685 0.12615 0.0
H552 H 0.08894 0.82339 0.04989 0.0
H553 H 0.06903 0.81699 0.02595 0.0
H554 H 0.07069 0.83279 0.04004 0.0
H555 H 0.05253 0.81216 0.04055 0.0
H556 H 0.09545 0.81237 0.0767 0.0
H557 H 0.07274 0.84017 0.08831 0.0
H558 H 0.12418 0.82714 0.11313 0.0
H559 H 0.13263 0.83564 0.09301 0.0
H560 H 0.11702 0.814 0.0944 0.0
H561 H 0.08539 0.86315 0.10702 0.0
H562 H 0.10752 0.87259 0.1114 0.0
H563 H 0.09266 0.85798 0.12569 0.0
H564 H 0.05994 0.78825 0.20671 0.0
H565 H 0.08768 0.80559 0.21241 0.0
H566 H 0.06889 0.83803 0.21083 0.0
H567 H 0.11919 0.82519 0.18466 0.0
H568 H 0.11474 0.81371 0.20383 0.0
H569 H 0.12983 0.83571 0.20395 0.0
H570 H 0.08435 0.86486 0.20001 0.0
H571 H 0.09759 0.86651 0.18294 0.0
H572 H 0.10663 0.87452 0.20349 0.0
H573 H 0.18878 0.94483 0.23868 0.0
H574 H 0.20944 0.97413 0.22998 0.0
H575 H 0.19888 0.96003 0.2125 0.0
H576 H 0.2201 0.96636 0.21766 0.0
H577 H 0.20016 0.90848 0.21909 0.0
H578 H 0.17381 0.93392 0.21422 0.0
H579 H 0.17852 0.87842 0.18837 0.0
H580 H 0.16643 0.86887 0.20661 0.0
H581 H 0.18899 0.88127 0.20852 0.0
H582 H 0.1486 0.923 0.199 0.0
H583 H 0.13541 0.90095 0.20141 0.0
H584 H 0.14586 0.90896 0.18199 0.0
H585 H 0.13794 0.86601 0.09497 0.0
H586 H 0.09728 0.83372 0.13628 0.0
H587 H 0.09654 0.8345 0.16644 0.0
H588 H 0.13428 0.87045 0.21065 0.0
H589 H 0.17548 0.90192 0.16925 0.0
H590 H 0.17673 0.90012 0.13915 0.0
H591 H 0.02854 0.78726 0.21887 0.0
H592 H 0.02923 0.77067 0.2083 0.0
H593 H 0.0356 0.78959 0.1975 0.0
C594 C 0.30518 0.11538 0.97157 0.0
C595 C 0.30034 0.10107 0.95905 0.0
C596 C 0.30233 0.11507 0.93255 0.0
C597 C 0.28608 0.11231 0.93206 0.0
C598 C 0.2818 0.121 0.92098 0.0
C599 C 0.29407 0.13293 0.91037 0.0
C600 C 0.31038 0.13561 0.91067 0.0
C601 C 0.31419 0.1264 0.92155 0.0
C602 C 0.26417 0.11755 0.92076 0.0
C603 C 0.32387 0.14841 0.89974 0.0
C604 C 0.26749 0.22348 0.93499 0.0
C605 C 0.28234 0.22345 0.94327 0.0
C606 C 0.29006 0.20859 0.92341 0.0
C607 C 0.30274 0.21042 0.91299 0.0
C608 C 0.30161 0.19675 0.90474 0.0
C609 C 0.28723 0.18085 0.90672 0.0
C610 C 0.27423 0.17888 0.9171 0.0
C611 C 0.27581 0.19275 0.92543 0.0
C612 C 0.31582 0.19931 0.89392 0.0
C613 C 0.25866 0.16211 0.91937 0.0
C614 C 0.258 0.18284 0.79758 0.0
C615 C 0.27428 0.18939 0.80418 0.0
C616 C 0.27842 0.17965 0.81376 0.0
C617 C 0.26577 0.16322 0.81753 0.0
C618 C 0.24933 0.1566 0.81084 0.0
C619 C 0.24578 0.16641 0.80062 0.0
C620 C 0.29636 0.18698 0.81972 0.0
C621 C 0.23544 0.1392 0.81451 0.0
C622 C 0.26655 0.0534 0.8115 0.0
C623 C 0.26781 0.06281 0.79548 0.0
C624 C 0.27769 0.09133 0.80509 0.0
C625 C 0.29145 0.10754 0.80561 0.0
C626 C 0.29056 0.1204 0.81326 0.0
C627 C 0.27544 0.11692 0.82054 0.0
C628 C 0.26133 0.10062 0.81981 0.0
C629 C 0.26261 0.08795 0.8122 0.0
C630 C 0.30584 0.13766 0.81383 0.0
C631 C 0.24498 0.09655 0.82736 0.0
C632 C 0.28994 0.14307 0.89957 0.0
C633 C 0.29017 0.15652 0.90716 0.0
C634 C 0.28589 0.1663 0.898 0.0
C635 C 0.28109 0.16256 0.88078 0.0
C636 C 0.276 0.1717 0.87138 0.0
C637 C 0.27188 0.1683 0.85428 0.0
C638 C 0.27299 0.15585 0.84585 0.0
C639 C 0.26977 0.15291 0.82825 0.0
C640 C 0.2707 0.14018 0.82041 0.0
C641 C 0.27463 0.13018 0.82965 0.0
C642 C 0.27803 0.13302 0.84719 0.0
C643 C 0.28207 0.12319 0.85685 0.0
C644 C 0.28569 0.12626 0.87405 0.0
C645 C 0.28571 0.13946 0.88221 0.0
C646 C 0.28137 0.14933 0.87277 0.0
C647 C 0.27742 0.14603 0.85526 0.0
C648 C 0.2425 0.20787 0.79585 0.0
C649 C 0.25835 0.20806 0.79105 0.0
O650 O 0.30711 0.10723 0.94345 0.0
O651 O 0.27969 0.07948 0.7978 0.0
O652 O 0.25385 0.19185 0.78777 0.0
O653 O 0.29215 0.22244 0.93105 0.0
H654 H 0.28649 0.09328 0.95782 0.0
H655 H 0.30013 0.12298 0.96708 0.0
H656 H 0.31901 0.12342 0.97293 0.0
H657 H 0.29989 0.11056 0.98412 0.0
H658 H 0.27658 0.10336 0.94016 0.0
H659 H 0.32666 0.1284 0.92192 0.0
H660 H 0.26425 0.12837 0.92627 0.0
H661 H 0.25556 0.10647 0.92808 0.0
H662 H 0.25921 0.11569 0.90759 0.0
H663 H 0.33625 0.14992 0.90244 0.0
H664 H 0.325 0.16053 0.90169 0.0
H665 H 0.32045 0.14474 0.88626 0.0
H666 H 0.27755 0.21273 0.95177 0.0
H667 H 0.25974 0.22449 0.9448 0.0
H668 H 0.25943 0.21184 0.92763 0.0
H669 H 0.27191 0.23399 0.9263 0.0
H670 H 0.31366 0.22267 0.91147 0.0
H671 H 0.26579 0.19107 0.93334 0.0
H672 H 0.31985 0.19066 0.89755 0.0
H673 H 0.32679 0.21217 0.89498 0.0
H674 H 0.3115 0.1966 0.88052 0.0
H675 H 0.24897 0.16286 0.92645 0.0
H676 H 0.26198 0.15413 0.92636 0.0
H677 H 0.25326 0.15605 0.90689 0.0
H678 H 0.26711 0.21339 0.80216 0.0
H679 H 0.2839 0.20201 0.80157 0.0
H680 H 0.23329 0.16141 0.79529 0.0
H681 H 0.2977 0.19105 0.83311 0.0
H682 H 0.30512 0.1979 0.81229 0.0
H683 H 0.30012 0.17771 0.81884 0.0
H684 H 0.22293 0.1369 0.81075 0.0
H685 H 0.23546 0.1367 0.82815 0.0
H686 H 0.23747 0.13029 0.80744 0.0
H687 H 0.25537 0.06106 0.79244 0.0
H688 H 0.25727 0.03998 0.8095 0.0
H689 H 0.26239 0.05793 0.82214 0.0
H690 H 0.27888 0.05515 0.81505 0.0
H691 H 0.30302 0.11005 0.80009 0.0
H692 H 0.25182 0.07549 0.81208 0.0
H693 H 0.3095 0.14196 0.82715 0.0
H694 H 0.3029 0.14628 0.8076 0.0
H695 H 0.31665 0.13835 0.80753 0.0
H696 H 0.23483 0.08351 0.82479 0.0
H697 H 0.24101 0.10483 0.82224 0.0
H698 H 0.24671 0.09874 0.84122 0.0
H699 H 0.29375 0.15943 0.9204 0.0
H700 H 0.27518 0.18161 0.87714 0.0
H701 H 0.26802 0.17572 0.84773 0.0
H702 H 0.26839 0.13805 0.80691 0.0
H703 H 0.28253 0.11303 0.85121 0.0
H704 H 0.28869 0.11829 0.88083 0.0
H705 H 0.23361 0.20391 0.78488 0.0
H706 H 0.24569 0.22025 0.80057 0.0
H707 H 0.23619 0.19902 0.80616 0.0
C708 C 0.79313 0.03816 0.94346 0.0
C709 C 0.79501 0.05515 0.94435 0.0
C710 C 0.8069 0.07469 0.92144 0.0
C711 C 0.80178 0.08342 0.91165 0.0
C712 C 0.81349 0.09835 0.90432 0.0
C713 C 0.83076 0.1042 0.90615 0.0
C714 C 0.83602 0.09523 0.91585 0.0
C715 C 0.82399 0.08059 0.92353 0.0
C716 C 0.80734 0.10776 0.89453 0.0
C717 C 0.85429 0.10098 0.91792 0.0
C718 C 0.91143 0.22182 0.96741 0.0
C719 C 0.89995 0.20558 0.95914 0.0
C720 C 0.89159 0.1922 0.93188 0.0
C721 C 0.89666 0.18081 0.93051 0.0
C722 C 0.88776 0.1667 0.92001 0.0
C723 C 0.87338 0.1639 0.91089 0.0
C724 C 0.8682 0.17541 0.91237 0.0
C725 C 0.87757 0.1896 0.9227 0.0
C726 C 0.89377 0.15482 0.91858 0.0
C727 C 0.85281 0.17273 0.90306 0.0
C728 C 0.90924 0.195 0.80523 0.0
C729 C 0.91319 0.18366 0.81153 0.0
C730 C 0.90104 0.16912 0.81918 0.0
C731 C 0.88458 0.16582 0.82057 0.0
C732 C 0.88054 0.17722 0.81433 0.0
C733 C 0.89298 0.19173 0.80678 0.0
C734 C 0.90583 0.15733 0.8259 0.0
C735 C 0.86312 0.17409 0.81574 0.0
C736 C 0.8012 0.0337 0.78469 0.0
C737 C 0.80116 0.04965 0.78728 0.0
C738 C 0.82511 0.07686 0.79564 0.0
C739 C 0.84228 0.08454 0.7989 0.0
C740 C 0.85089 0.09885 0.80916 0.0
C741 C 0.84217 0.10604 0.81576 0.0
C742 C 0.82487 0.09869 0.81184 0.0
C743 C 0.81645 0.084 0.80205 0.0
C744 C 0.8693 0.10619 0.81294 0.0
C745 C 0.81525 0.10634 0.81794 0.0
C746 C 0.84322 0.11946 0.89755 0.0
C747 C 0.85236 0.13406 0.9072 0.0
C748 C 0.86383 0.14898 0.89977 0.0
C749 C 0.86605 0.1495 0.88215 0.0
C750 C 0.8774 0.16431 0.87424 0.0
C751 C 0.87927 0.16474 0.85686 0.0
C752 C 0.86994 0.15035 0.84673 0.0
C753 C 0.87181 0.15067 0.82908 0.0
C754 C 0.86225 0.1362 0.81933 0.0
C755 C 0.85118 0.12113 0.82681 0.0
C756 C 0.84944 0.1205 0.84453 0.0
C757 C 0.83898 0.1055 0.85261 0.0
C758 C 0.83705 0.1051 0.86997 0.0
C759 C 0.84555 0.11966 0.87997 0.0
C760 C 0.85674 0.1348 0.8722 0.0
C761 C 0.85865 0.13523 0.85446 0.0
C762 C 0.94355 0.22489 0.77882 0.0
C763 C 0.93622 0.21253 0.79225 0.0
O764 O 0.79501 0.06023 0.92804 0.0
O765 O 0.81747 0.06285 0.78591 0.0
O766 O 0.92067 0.20904 0.79741 0.0
O767 O 0.90039 0.20597 0.94172 0.0
H768 H 0.80698 0.06389 0.95121 0.0
H769 H 0.80331 0.03887 0.93588 0.0
H770 H 0.7809 0.02887 0.93743 0.0
H771 H 0.79401 0.034 0.95625 0.0
H772 H 0.78851 0.07861 0.90999 0.0
H773 H 0.8279 0.07353 0.93074 0.0
H774 H 0.81504 0.12118 0.89776 0.0
H775 H 0.79403 0.10328 0.89702 0.0
H776 H 0.80846 0.10621 0.88083 0.0
H777 H 0.85617 0.09159 0.92402 0.0
H778 H 0.86071 0.11246 0.92584 0.0
H779 H 0.86033 0.10392 0.90547 0.0
H780 H 0.88707 0.19839 0.96418 0.0
H781 H 0.93028 0.21813 0.98096 0.0
H782 H 0.90312 0.22506 0.97439 0.0
H783 H 0.91489 0.23148 0.9575 0.0
H784 H 0.90772 0.1831 0.93749 0.0
H785 H 0.87388 0.19861 0.92382 0.0
H786 H 0.89506 0.15249 0.90511 0.0
H787 H 0.88438 0.14282 0.92401 0.0
H788 H 0.90597 0.15951 0.9253 0.0
H789 H 0.84951 0.18192 0.90691 0.0
H790 H 0.84199 0.16011 0.90533 0.0
H791 H 0.85499 0.17372 0.8893 0.0
H792 H 0.94493 0.21401 0.80278 0.0
H793 H 0.92576 0.18608 0.81058 0.0
H794 H 0.89003 0.20053 0.80191 0.0
H795 H 0.90378 0.15598 0.83968 0.0
H796 H 0.91911 0.16155 0.8236 0.0
H797 H 0.89773 0.14493 0.81988 0.0
H798 H 0.8619 0.18403 0.81001 0.0
H799 H 0.85982 0.17315 0.82922 0.0
H800 H 0.85396 0.16211 0.80941 0.0
H801 H 0.79665 0.04944 0.80024 0.0
H802 H 0.78865 0.02265 0.78688 0.0
H803 H 0.81021 0.03349 0.79378 0.0
H804 H 0.80501 0.03292 0.77169 0.0
H805 H 0.84886 0.07903 0.79368 0.0
H806 H 0.80321 0.0783 0.79916 0.0
H807 H 0.87227 0.10961 0.82653 0.0
H808 H 0.87662 0.11761 0.8056 0.0
H809 H 0.87343 0.09755 0.80948 0.0
H810 H 0.80298 0.10105 0.81119 0.0
H811 H 0.82259 0.11993 0.81625 0.0
H812 H 0.81293 0.10407 0.83159 0.0
H813 H 0.85048 0.13382 0.92068 0.0
H814 H 0.88492 0.17577 0.88137 0.0
H815 H 0.88809 0.17653 0.85148 0.0
H816 H 0.86379 0.13658 0.80579 0.0
H817 H 0.8321 0.09389 0.8456 0.0
H818 H 0.82876 0.09319 0.87545 0.0
H819 H 0.9555 0.23552 0.78462 0.0
H820 H 0.93679 0.23182 0.77873 0.0
H821 H 0.94307 0.21013 0.75634 0.0
C822 C 0.81681 0.72808 0.97204 0.0
C823 C 0.80302 0.72296 0.95843 0.0
C824 C 0.81619 0.71755 0.93453 0.0
C825 C 0.82901 0.734 0.93189 0.0
C826 C 0.84207 0.73761 0.92096 0.0
C827 C 0.84212 0.72453 0.91236 0.0
C828 C 0.82872 0.70806 0.91427 0.0
C829 C 0.81593 0.70482 0.92535 0.0
C830 C 0.85604 0.75532 0.91892 0.0
C831 C 0.82819 0.69383 0.90504 0.0
C832 C 0.93564 0.73928 0.97186 0.0
C833 C 0.92646 0.72235 0.96284 0.0
C834 C 0.91863 0.72543 0.93473 0.0
C835 C 0.90402 0.71108 0.929 0.0
C836 C 0.8927 0.712 0.91801 0.0
C837 C 0.89602 0.72768 0.91293 0.0
C838 C 0.91097 0.7422 0.91857 0.0
C839 C 0.92225 0.74085 0.92925 0.0
C840 C 0.877 0.69624 0.91218 0.0
C841 C 0.9148 0.75912 0.91371 0.0
C842 C 0.93031 0.7444 0.80709 0.0
C843 C 0.91623 0.72845 0.80894 0.0
C844 C 0.9018 0.72616 0.81659 0.0
C845 C 0.90148 0.7401 0.82245 0.0
C846 C 0.91536 0.75619 0.81987 0.0
C847 C 0.92954 0.75811 0.81206 0.0
C848 C 0.88703 0.70886 0.81874 0.0
C849 C 0.91536 0.77133 0.82576 0.0
C850 C 0.80498 0.76074 0.79853 0.0
C851 C 0.80813 0.74961 0.78702 0.0
C852 C 0.82121 0.73783 0.80441 0.0
C853 C 0.81912 0.72284 0.80944 0.0
C854 C 0.83203 0.72226 0.81789 0.0
C855 C 0.84725 0.73718 0.82193 0.0
C856 C 0.84951 0.75243 0.81682 0.0
C857 C 0.83652 0.7526 0.80796 0.0
C858 C 0.82929 0.7057 0.82264 0.0
C859 C 0.86555 0.76858 0.82095 0.0
C860 C 0.85683 0.7278 0.90257 0.0
C861 C 0.8696 0.72726 0.91119 0.0
C862 C 0.8833 0.72889 0.90276 0.0
C863 C 0.8844 0.7312 0.88514 0.0
C864 C 0.89784 0.73259 0.87617 0.0
C865 C 0.8988 0.7349 0.85884 0.0
C866 C 0.88624 0.73567 0.84976 0.0
C867 C 0.88705 0.73788 0.83211 0.0
C868 C 0.87422 0.73833 0.82344 0.0
C869 C 0.86058 0.73683 0.83195 0.0
C870 C 0.85969 0.73489 0.84964 0.0
C871 C 0.84631 0.73363 0.85868 0.0
C872 C 0.84534 0.73131 0.87601 0.0
C873 C 0.85782 0.73039 0.88501 0.0
C874 C 0.87162 0.732 0.87625 0.0
C875 C 0.87252 0.73419 0.85854 0.0
C876 C 0.96872 0.7471 0.81034 0.0
C877 C 0.95129 0.73704 0.80203 0.0
O878 O 0.804 0.71324 0.94592 0.0
O879 O 0.80799 0.73742 0.79659 0.0
O880 O 0.94474 0.74709 0.80046 0.0
O881 O 0.92923 0.72445 0.94569 0.0
H882 H 0.80425 0.73419 0.95276 0.0
H883 H 0.82939 0.73619 0.96681 0.0
H884 H 0.81627 0.71702 0.97729 0.0
H885 H 0.8153 0.73507 0.98244 0.0
H886 H 0.82906 0.74404 0.9385 0.0
H887 H 0.80584 0.69219 0.92727 0.0
H888 H 0.86795 0.75696 0.92391 0.0
H889 H 0.85368 0.76418 0.92564 0.0
H890 H 0.85769 0.75833 0.90534 0.0
H891 H 0.81641 0.68186 0.90714 0.0
H892 H 0.83891 0.69282 0.90935 0.0
H893 H 0.82944 0.69615 0.8913 0.0
H894 H 0.91281 0.71632 0.96521 0.0
H895 H 0.93348 0.73791 0.98563 0.0
H896 H 0.93091 0.74702 0.96699 0.0
H897 H 0.94931 0.74573 0.96972 0.0
H898 H 0.90148 0.69921 0.93328 0.0
H899 H 0.9337 0.75185 0.93374 0.0
H900 H 0.8747 0.69652 0.89844 0.0
H901 H 0.86615 0.69506 0.91886 0.0
H902 H 0.87766 0.68514 0.91481 0.0
H903 H 0.92639 0.76919 0.9201 0.0
H904 H 0.9042 0.7606 0.91697 0.0
H905 H 0.91635 0.76048 0.89988 0.0
H906 H 0.94361 0.72654 0.81049 0.0
H907 H 0.91646 0.7178 0.8044 0.0
H908 H 0.94036 0.77037 0.81026 0.0
H909 H 0.88518 0.70612 0.83237 0.0
H910 H 0.88873 0.6994 0.81238 0.0
H911 H 0.87547 0.70787 0.81356 0.0
H912 H 0.92715 0.78298 0.8228 0.0
H913 H 0.91363 0.77092 0.8396 0.0
H914 H 0.9047 0.77145 0.81969 0.0
H915 H 0.8205 0.75737 0.78111 0.0
H916 H 0.80623 0.77131 0.7914 0.0
H917 H 0.81431 0.76591 0.80912 0.0
H918 H 0.79233 0.75357 0.80397 0.0
H919 H 0.80728 0.71151 0.80661 0.0
H920 H 0.83833 0.76432 0.80421 0.0
H921 H 0.82796 0.7043 0.83649 0.0
H922 H 0.84025 0.70489 0.81916 0.0
H923 H 0.81787 0.69526 0.81641 0.0
H924 H 0.86478 0.77946 0.81748 0.0
H925 H 0.87595 0.76906 0.81401 0.0
H926 H 0.86867 0.76946 0.83463 0.0
H927 H 0.86871 0.72523 0.92468 0.0
H928 H 0.90778 0.73194 0.88247 0.0
H929 H 0.9095 0.73598 0.85265 0.0
H930 H 0.87488 0.73989 0.80989 0.0
H931 H 0.83638 0.73433 0.85244 0.0
H932 H 0.8347 0.73028 0.88228 0.0
H933 H 0.97424 0.73931 0.81186 0.0
H934 H 0.96786 0.75161 0.82303 0.0
H935 H 0.97715 0.75796 0.80265 0.0
C936 C 0.88451 0.6035 0.41434 0.0
C937 C 0.88549 0.61962 0.40996 0.0
C938 C 0.86974 0.62598 0.42995 0.0
C939 C 0.87189 0.63842 0.4411 0.0
C940 C 0.85814 0.63834 0.44773 0.0
C941 C 0.84177 0.62505 0.44356 0.0
C942 C 0.83945 0.61235 0.43225 0.0
C943 C 0.8535 0.61301 0.42543 0.0
C944 C 0.86119 0.65239 0.45936 0.0
C945 C 0.82217 0.59796 0.42766 0.0
C946 C 0.78173 0.65654 0.38026 0.0
C947 C 0.76618 0.64686 0.39095 0.0
C948 C 0.77838 0.64585 0.41794 0.0
C949 C 0.77357 0.62915 0.4182 0.0
C950 C 0.78212 0.62397 0.4286 0.0
C951 C 0.79577 0.63573 0.4389 0.0
C952 C 0.80048 0.65253 0.43885 0.0
C953 C 0.79152 0.65731 0.42853 0.0
C954 C 0.77656 0.60592 0.42862 0.0
C955 C 0.81505 0.66542 0.44957 0.0
C956 C 0.75529 0.62342 0.54211 0.0
C957 C 0.75074 0.60848 0.53365 0.0
C958 C 0.76294 0.60606 0.52669 0.0
C959 C 0.77997 0.61894 0.52781 0.0
C960 C 0.7846 0.63391 0.53638 0.0
C961 C 0.77218 0.6359 0.54349 0.0
C962 C 0.7576 0.58984 0.5178 0.0
C963 C 0.80264 0.64793 0.53772 0.0
C964 C 0.87149 0.58062 0.55059 0.0
C965 C 0.86944 0.59546 0.5528 0.0
C966 C 0.84361 0.5953 0.54883 0.0
C967 C 0.82673 0.58391 0.54504 0.0
C968 C 0.81691 0.58862 0.53614 0.0
C969 C 0.82407 0.60529 0.53143 0.0
C970 C 0.84087 0.61711 0.53627 0.0
C971 C 0.85053 0.61194 0.54473 0.0
C972 C 0.79902 0.57568 0.53136 0.0
C973 C 0.84876 0.63516 0.53223 0.0
C974 C 0.82722 0.62428 0.45156 0.0
C975 C 0.81797 0.62932 0.44226 0.0
C976 C 0.80517 0.63044 0.44962 0.0
C977 C 0.8017 0.62678 0.46686 0.0
C978 C 0.78933 0.62833 0.47483 0.0
C979 C 0.78642 0.62524 0.49192 0.0
C980 C 0.79555 0.62018 0.50164 0.0
C981 C 0.79276 0.61713 0.51905 0.0
C982 C 0.8022 0.61233 0.5284 0.0
C983 C 0.81429 0.61022 0.52077 0.0
C984 C 0.81705 0.61295 0.50329 0.0
C985 C 0.8288 0.61058 0.49508 0.0
C986 C 0.83199 0.61405 0.47809 0.0
C987 C 0.82344 0.6199 0.4686 0.0
C988 C 0.81093 0.62155 0.47638 0.0
C989 C 0.8078 0.61818 0.49378 0.0
C990 C 0.71843 0.61693 0.53316 0.0
C991 C 0.72674 0.61588 0.54947 0.0
O992 O 0.88371 0.62681 0.42438 0.0
O993 O 0.8529 0.58985 0.55627 0.0
O994 O 0.74395 0.62645 0.54895 0.0
O995 O 0.77047 0.65124 0.40784 0.0
H996 H 0.87545 0.61694 0.40048 0.0
H997 H 0.87223 0.59472 0.41987 0.0
H998 H 0.89456 0.6059 0.42365 0.0
H999 H 0.88583 0.5976 0.40281 0.0
H1000 H 0.88449 0.64834 0.44451 0.0
H1001 H 0.85172 0.60319 0.41696 0.0
H1002 H 0.85255 0.65666 0.45605 0.0
H1003 H 0.87427 0.66307 0.45886 0.0
H1004 H 0.85877 0.64805 0.47252 0.0
H1005 H 0.82253 0.58845 0.41973 0.0
H1006 H 0.81509 0.60248 0.42063 0.0
H1007 H 0.81524 0.59209 0.43927 0.0
H1008 H 0.76111 0.63345 0.38887 0.0
H1009 H 0.77846 0.65318 0.36668 0.0
H1010 H 0.79126 0.65352 0.38399 0.0
H1011 H 0.78728 0.67006 0.38206 0.0
H1012 H 0.76297 0.62007 0.41056 0.0
H1013 H 0.79501 0.67013 0.42838 0.0
H1014 H 0.78676 0.60441 0.42393 0.0
H1015 H 0.76515 0.59817 0.42061 0.0
H1016 H 0.774 0.60131 0.4417 0.0
H1017 H 0.81775 0.6781 0.44732 0.0
H1018 H 0.82642 0.66507 0.44692 0.0
H1019 H 0.8123 0.66267 0.4631 0.0
H1020 H 0.72351 0.60291 0.5509 0.0
H1021 H 0.73775 0.5987 0.5322 0.0
H1022 H 0.77559 0.64737 0.55001 0.0
H1023 H 0.75956 0.59186 0.50407 0.0
H1024 H 0.74422 0.58039 0.51974 0.0
H1025 H 0.76538 0.58495 0.52237 0.0
H1026 H 0.80415 0.65893 0.54453 0.0
H1027 H 0.80776 0.65162 0.52492 0.0
H1028 H 0.81019 0.64377 0.54446 0.0
H1029 H 0.8728 0.60189 0.54051 0.0
H1030 H 0.88472 0.58486 0.54797 0.0
H1031 H 0.86353 0.57274 0.53977 0.0
H1032 H 0.86766 0.57298 0.56205 0.0
H1033 H 0.82146 0.57114 0.5485 0.0
H1034 H 0.86347 0.6209 0.54814 0.0
H1035 H 0.79687 0.57582 0.51757 0.0
H1036 H 0.79045 0.57856 0.53785 0.0
H1037 H 0.79574 0.56305 0.53481 0.0
H1038 H 0.86059 0.6431 0.5396 0.0
H1039 H 0.84 0.63938 0.53485 0.0
H1040 H 0.85163 0.63689 0.51863 0.0
H1041 H 0.82095 0.63268 0.4292 0.0
H1042 H 0.78191 0.63217 0.46801 0.0
H1043 H 0.77692 0.62692 0.4974 0.0
H1044 H 0.80011 0.6102 0.54179 0.0
H1045 H 0.83581 0.60616 0.50172 0.0
H1046 H 0.8413 0.61215 0.4725 0.0
H1047 H 0.72171 0.62983 0.53106 0.0
H1048 H 0.7046 0.60877 0.53375 0.0
H1049 H 0.72267 0.61284 0.52222 0.0
C1050 C 0.39041 0.27977 0.41763 0.0
C1051 C 0.37587 0.26465 0.40837 0.0
C1052 C 0.36887 0.24154 0.42726 0.0
C1053 C 0.35677 0.23021 0.43805 0.0
C1054 C 0.35888 0.21848 0.44641 0.0
C1055 C 0.37366 0.21826 0.44409 0.0
C1056 C 0.38597 0.22962 0.43314 0.0
C1057 C 0.38343 0.24109 0.42474 0.0
C1058 C 0.34532 0.20636 0.45776 0.0
C1059 C 0.40189 0.22971 0.43043 0.0
C1060 C 0.35635 0.10077 0.39785 0.0
C1061 C 0.36438 0.11803 0.40428 0.0
C1062 C 0.35941 0.13485 0.42402 0.0
C1063 C 0.37603 0.14838 0.42444 0.0
C1064 C 0.38059 0.16279 0.43388 0.0
C1065 C 0.36831 0.16371 0.44306 0.0
C1066 C 0.35161 0.1501 0.44272 0.0
C1067 C 0.34741 0.13582 0.43324 0.0
C1068 C 0.39853 0.17706 0.43407 0.0
C1069 C 0.3382 0.15067 0.45235 0.0
C1070 C 0.37965 0.14383 0.55097 0.0
C1071 C 0.39615 0.15629 0.54746 0.0
C1072 C 0.39935 0.17028 0.53844 0.0
C1073 C 0.38582 0.17185 0.53303 0.0
C1074 C 0.36925 0.15945 0.53693 0.0
C1075 C 0.36641 0.14552 0.54566 0.0
C1076 C 0.41714 0.18327 0.53445 0.0
C1077 C 0.35449 0.16083 0.53178 0.0
C1078 C 0.41689 0.29985 0.54736 0.0
C1079 C 0.40426 0.28297 0.55443 0.0
C1080 C 0.40725 0.25926 0.54922 0.0
C1081 C 0.41967 0.25622 0.54455 0.0
C1082 C 0.41557 0.24148 0.53607 0.0
C1083 C 0.39857 0.22935 0.53254 0.0
C1084 C 0.38588 0.232 0.53806 0.0
C1085 C 0.39036 0.24697 0.54631 0.0
C1086 C 0.42941 0.23899 0.5306 0.0
C1087 C 0.36761 0.21907 0.53509 0.0
C1088 C 0.37618 0.20613 0.45321 0.0
C1089 C 0.37214 0.19149 0.44469 0.0
C1090 C 0.37293 0.17897 0.45291 0.0
C1091 C 0.3776 0.18093 0.47022 0.0
C1092 C 0.37797 0.16838 0.47904 0.0
C1093 C 0.38184 0.17013 0.49623 0.0
C1094 C 0.38566 0.18458 0.50524 0.0
C1095 C 0.38875 0.18612 0.52287 0.0
C1096 C 0.39309 0.20087 0.53135 0.0
C1097 C 0.3941 0.21411 0.52273 0.0
C1098 C 0.39043 0.21255 0.50518 0.0
C1099 C 0.39081 0.22541 0.49617 0.0
C1100 C 0.3863 0.2234 0.47912 0.0
C1101 C 0.38149 0.20857 0.47035 0.0
C1102 C 0.38185 0.19577 0.47896 0.0
C1103 C 0.38611 0.19769 0.49645 0.0
C1104 C 0.37789 0.11394 0.58091 0.0
C1105 C 0.38671 0.12697 0.56836 0.0
O1106 O 0.36595 0.25263 0.41976 0.0
O1107 O 0.41201 0.27407 0.55666 0.0
O1108 O 0.37584 0.12996 0.55934 0.0
O1109 O 0.35445 0.12073 0.41493 0.0
H1110 H 0.38098 0.25956 0.39924 0.0
H1111 H 0.3986 0.27638 0.42434 0.0
H1112 H 0.38564 0.28494 0.42705 0.0
H1113 H 0.39814 0.2895 0.40849 0.0
H1114 H 0.34558 0.2306 0.4399 0.0
H1115 H 0.39294 0.24968 0.41639 0.0
H1116 H 0.34189 0.19355 0.4545 0.0
H1117 H 0.33389 0.20705 0.45685 0.0
H1118 H 0.35003 0.20899 0.47104 0.0
H1119 H 0.41074 0.24002 0.42238 0.0
H1120 H 0.39882 0.21784 0.42435 0.0
H1121 H 0.40819 0.2308 0.44276 0.0
H1122 H 0.37094 0.12779 0.39473 0.0
H1123 H 0.37172 0.09172 0.40984 0.0
H1124 H 0.35538 0.10146 0.38371 0.0
H1125 H 0.34246 0.09479 0.39975 0.0
H1126 H 0.3855 0.14779 0.41746 0.0
H1127 H 0.33465 0.12532 0.4329 0.0
H1128 H 0.39913 0.18815 0.42887 0.0
H1129 H 0.4067 0.17429 0.4266 0.0
H1130 H 0.40351 0.18017 0.44726 0.0
H1131 H 0.32573 0.13918 0.45053 0.0
H1132 H 0.33735 0.16134 0.44824 0.0
H1133 H 0.34157 0.15252 0.46602 0.0
H1134 H 0.39593 0.12605 0.56053 0.0
H1135 H 0.40647 0.15503 0.55151 0.0
H1136 H 0.35375 0.13584 0.54852 0.0
H1137 H 0.41829 0.18519 0.52063 0.0
H1138 H 0.42622 0.17988 0.53882 0.0
H1139 H 0.4205 0.19522 0.54058 0.0
H1140 H 0.34276 0.15133 0.53774 0.0
H1141 H 0.35257 0.15924 0.51789 0.0
H1142 H 0.35693 0.17326 0.53525 0.0
H1143 H 0.39378 0.27673 0.54495 0.0
H1144 H 0.41096 0.30722 0.54534 0.0
H1145 H 0.42132 0.29817 0.53504 0.0
H1146 H 0.42788 0.30682 0.55611 0.0
H1147 H 0.43266 0.26567 0.54716 0.0
H1148 H 0.38068 0.24899 0.55057 0.0
H1149 H 0.42838 0.23659 0.51677 0.0
H1150 H 0.42813 0.22798 0.53681 0.0
H1151 H 0.44203 0.24986 0.53377 0.0
H1152 H 0.35929 0.22227 0.54165 0.0
H1153 H 0.36493 0.20688 0.53949 0.0
H1154 H 0.36454 0.21777 0.52138 0.0
H1155 H 0.36808 0.18971 0.43154 0.0
H1156 H 0.37503 0.15694 0.4728 0.0
H1157 H 0.38173 0.15997 0.5024 0.0
H1158 H 0.39533 0.20192 0.54489 0.0
H1159 H 0.39433 0.23707 0.50226 0.0
H1160 H 0.38657 0.23362 0.4729 0.0
H1161 H 0.37993 0.10368 0.57703 0.0
H1162 H 0.36418 0.10677 0.57704 0.0
H1163 H 0.38744 0.12742 0.60576 0.0
C1164 C 0.85967 0.25318 0.38115 0.0
C1165 C 0.87203 0.25919 0.39628 0.0
C1166 C 0.85531 0.23708 0.41644 0.0
C1167 C 0.8434 0.24137 0.41977 0.0
C1168 C 0.82927 0.23101 0.42929 0.0
C1169 C 0.82715 0.21622 0.43573 0.0
C1170 C 0.83949 0.21225 0.43297 0.0
C1171 C 0.85341 0.22277 0.42337 0.0
C1172 C 0.81645 0.23569 0.43226 0.0
C1173 C 0.83777 0.1967 0.43983 0.0
C1174 C 0.73102 0.13483 0.36309 0.0
C1175 C 0.73902 0.13171 0.37841 0.0
C1176 C 0.7462 0.14637 0.40554 0.0
C1177 C 0.7595 0.14439 0.41026 0.0
C1178 C 0.77136 0.15476 0.42264 0.0
C1179 C 0.76999 0.1675 0.43031 0.0
C1180 C 0.75625 0.16914 0.42598 0.0
C1181 C 0.74435 0.15832 0.41384 0.0
C1182 C 0.78558 0.15236 0.42722 0.0
C1183 C 0.75445 0.18266 0.43375 0.0
C1184 C 0.73425 0.13931 0.53556 0.0
C1185 C 0.74802 0.13747 0.53344 0.0
C1186 C 0.76282 0.15014 0.52641 0.0
C1187 C 0.76391 0.16496 0.52161 0.0
C1188 C 0.75036 0.16712 0.52448 0.0
C1189 C 0.73572 0.15426 0.53148 0.0
C1190 C 0.77722 0.14763 0.52386 0.0
C1191 C 0.75123 0.1829 0.51984 0.0
C1192 C 0.87118 0.27973 0.55271 0.0
C1193 C 0.86564 0.26463 0.56372 0.0
C1194 C 0.84866 0.23966 0.54554 0.0
C1195 C 0.84836 0.22578 0.53915 0.0
C1196 C 0.83445 0.21336 0.52998 0.0
C1197 C 0.82064 0.21514 0.52675 0.0
C1198 C 0.82069 0.22903 0.53343 0.0
C1199 C 0.83469 0.24115 0.54289 0.0
C1200 C 0.83471 0.19853 0.52344 0.0
C1201 C 0.80613 0.23126 0.5302 0.0
C1202 C 0.8116 0.20433 0.44445 0.0
C1203 C 0.79816 0.1923 0.43455 0.0
C1204 C 0.78357 0.17983 0.44184 0.0
C1205 C 0.78229 0.17922 0.45958 0.0
C1206 C 0.76805 0.16652 0.46739 0.0
C1207 C 0.76691 0.16609 0.48487 0.0
C1208 C 0.77998 0.17832 0.49522 0.0
C1209 C 0.77894 0.17798 0.513 0.0
C1210 C 0.79225 0.19023 0.52292 0.0
C1211 C 0.80664 0.20293 0.51554 0.0
C1212 C 0.80786 0.20356 0.49777 0.0
C1213 C 0.82215 0.21621 0.48994 0.0
C1214 C 0.82342 0.21649 0.47248 0.0
C1215 C 0.81035 0.20427 0.46218 0.0
C1216 C 0.79568 0.19159 0.46977 0.0
C1217 C 0.79449 0.19117 0.4876 0.0
C1218 C 0.69512 0.10113 0.53492 0.0
C1219 C 0.71322 0.1103 0.54161 0.0
O1220 O 0.86868 0.2461 0.40651 0.0
O1221 O 0.86292 0.25141 0.55364 0.0
O1222 O 0.71943 0.12715 0.54159 0.0
O1223 O 0.73515 0.13719 0.39288 0.0
H1224 H 0.87114 0.26866 0.40372 0.0
H1225 H 0.8467 0.24814 0.38535 0.0
H1226 H 0.86003 0.24332 0.37389 0.0
H1227 H 0.86286 0.26362 0.37268 0.0
H1228 H 0.84491 0.25263 0.41485 0.0
H1229 H 0.86277 0.21968 0.42091 0.0
H1230 H 0.80432 0.22627 0.42617 0.0
H1231 H 0.82029 0.248 0.42716 0.0
H1232 H 0.81437 0.23582 0.44598 0.0
H1233 H 0.84869 0.19563 0.43695 0.0
H1234 H 0.82629 0.18572 0.43437 0.0
H1235 H 0.8364 0.19651 0.45371 0.0
H1236 H 0.75278 0.13911 0.37645 0.0
H1237 H 0.73378 0.1303 0.35136 0.0
H1238 H 0.73624 0.14831 0.36201 0.0
H1239 H 0.71725 0.12854 0.3643 0.0
H1240 H 0.76068 0.13481 0.40422 0.0
H1241 H 0.73392 0.1596 0.41024 0.0
H1242 H 0.78753 0.153 0.44112 0.0
H1243 H 0.79728 0.16243 0.42175 0.0
H1244 H 0.78333 0.14034 0.42236 0.0
H1245 H 0.74368 0.18295 0.42818 0.0
H1246 H 0.76605 0.19487 0.43201 0.0
H1247 H 0.75263 0.18078 0.44751 0.0
H1248 H 0.72025 0.10704 0.53288 0.0
H1249 H 0.74733 0.12624 0.53728 0.0
H1250 H 0.72515 0.15568 0.53346 0.0
H1251 H 0.77999 0.14834 0.51024 0.0
H1252 H 0.77455 0.13553 0.52854 0.0
H1253 H 0.78862 0.15766 0.53053 0.0
H1254 H 0.73988 0.18292 0.52352 0.0
H1255 H 0.75267 0.18458 0.50602 0.0
H1256 H 0.76238 0.19365 0.52609 0.0
H1257 H 0.854 0.2615 0.57031 0.0
H1258 H 0.87245 0.29022 0.5603 0.0
H1259 H 0.86178 0.27675 0.54245 0.0
H1260 H 0.88337 0.28363 0.54691 0.0
H1261 H 0.8592 0.22476 0.54132 0.0
H1262 H 0.8348 0.25188 0.54775 0.0
H1263 H 0.83587 0.19916 0.50953 0.0
H1264 H 0.82281 0.18695 0.5263 0.0
H1265 H 0.84531 0.19792 0.52896 0.0
H1266 H 0.80827 0.24297 0.53585 0.0
H1267 H 0.79464 0.22075 0.53552 0.0
H1268 H 0.80386 0.23118 0.5164 0.0
H1269 H 0.79919 0.1925 0.42093 0.0
H1270 H 0.75765 0.15675 0.46007 0.0
H1271 H 0.75564 0.15601 0.49016 0.0
H1272 H 0.79142 0.18981 0.53655 0.0
H1273 H 0.83257 0.22601 0.49721 0.0
H1274 H 0.83475 0.22644 0.46716 0.0
H1275 H 0.68726 0.10382 0.54305 0.0
H1276 H 0.68982 0.08758 0.53451 0.0
H1277 H 0.69465 0.10513 0.52193 0.0
C1278 C 0.0353 0.47911 0.30349 0.0
C1279 C 0.02163 0.46466 0.29282 0.0
C1280 C 0.02042 0.47467 0.26515 0.0
C1281 C 0.0034 0.46913 0.26312 0.0
C1282 C 0.99813 0.47716 0.25222 0.0
C1283 C 0.01017 0.49105 0.24326 0.0
C1284 C 0.02733 0.49642 0.24503 0.0
C1285 C 0.0322 0.48797 0.25579 0.0
C1286 C 0.97971 0.47085 0.25034 0.0
C1287 C 0.0405 0.5112 0.23571 0.0
C1288 C 0.99131 0.586 0.28855 0.0
C1289 C 0.98529 0.56994 0.27982 0.0
C1290 C 0.99336 0.55874 0.25661 0.0
C1291 C 0.006 0.56281 0.24515 0.0
C1292 C 0.00735 0.5505 0.23681 0.0
C1293 C 0.99527 0.53363 0.23952 0.0
C1294 C 0.98219 0.52942 0.25084 0.0
C1295 C 0.98149 0.54201 0.25944 0.0
C1296 C 0.02183 0.5556 0.22527 0.0
C1297 C 0.96896 0.51161 0.25392 0.0
C1298 C 0.96232 0.53189 0.13475 0.0
C1299 C 0.97956 0.54037 0.13847 0.0
C1300 C 0.98685 0.53224 0.14595 0.0
C1301 C 0.97658 0.51537 0.15012 0.0
C1302 C 0.95934 0.5066 0.14553 0.0
C1303 C 0.95249 0.51496 0.13765 0.0
C1304 C 0.00541 0.54182 0.14992 0.0
C1305 C 0.94804 0.48857 0.14953 0.0
C1306 C 0.0265 0.43607 0.15627 0.0
C1307 C 0.01167 0.4328 0.14493 0.0
C1308 C 0.00939 0.45703 0.14138 0.0
C1309 C 0.02029 0.47416 0.14146 0.0
C1310 C 0.01513 0.48475 0.14721 0.0
C1311 C 0.99856 0.47796 0.15271 0.0
C1312 C 0.98709 0.46069 0.15135 0.0
C1313 C 0.99263 0.45037 0.14565 0.0
C1314 C 0.02759 0.50314 0.14818 0.0
C1315 C 0.9692 0.45311 0.1566 0.0
C1316 C 0.00476 0.50011 0.23237 0.0
C1317 C 0.00244 0.51204 0.24001 0.0
C1318 C 0.99653 0.52046 0.23073 0.0
C1319 C 0.99253 0.51669 0.21336 0.0
C1320 C 0.9855 0.52407 0.20387 0.0
C1321 C 0.98223 0.52077 0.18665 0.0
C1322 C 0.98608 0.51015 0.17818 0.0
C1323 C 0.98352 0.50731 0.16051 0.0
C1324 C 0.98758 0.49671 0.15252 0.0
C1325 C 0.99391 0.48864 0.16178 0.0
C1326 C 0.99625 0.49112 0.17947 0.0
C1327 C 0.00223 0.48289 0.1892 0.0
C1328 C 0.00471 0.48556 0.20656 0.0
C1329 C 0.00174 0.49688 0.21481 0.0
C1330 C 0.9956 0.50522 0.20528 0.0
C1331 C 0.99261 0.50213 0.18763 0.0
C1332 C 0.94204 0.55358 0.14005 0.0
C1333 C 0.95825 0.55511 0.13427 0.0
O1334 O 0.02574 0.4673 0.27595 0.0
O1335 O 0.01546 0.44732 0.13713 0.0
O1336 O 0.95481 0.53975 0.12863 0.0
O1337 O 0.99315 0.57126 0.26477 0.0
H1338 H 0.00968 0.46414 0.29498 0.0
H1339 H 0.03631 0.49081 0.29968 0.0
H1340 H 0.0476 0.48033 0.30173 0.0
H1341 H 0.03221 0.47726 0.31706 0.0
H1342 H 0.99424 0.45846 0.26995 0.0
H1343 H 0.0453 0.49199 0.25732 0.0
H1344 H 0.97728 0.48034 0.25528 0.0
H1345 H 0.97185 0.45921 0.25722 0.0
H1346 H 0.97583 0.46863 0.2368 0.0
H1347 H 0.05337 0.5143 0.2391 0.0
H1348 H 0.03951 0.52211 0.23856 0.0
H1349 H 0.03838 0.50867 0.22192 0.0
H1350 H 0.97146 0.5613 0.27927 0.0
H1351 H 0.00452 0.58484 0.31176 0.0
H1352 H 0.98002 0.58724 0.28931 0.0
H1353 H 0.99767 0.59585 0.27878 0.0
H1354 H 0.01511 0.57575 0.24309 0.0
H1355 H 0.97156 0.5387 0.2682 0.0
H1356 H 0.01722 0.55341 0.21196 0.0
H1357 H 0.02757 0.54812 0.22755 0.0
H1358 H 0.03165 0.5689 0.22696 0.0
H1359 H 0.95818 0.51044 0.26078 0.0
H1360 H 0.97452 0.5059 0.26158 0.0
H1361 H 0.96428 0.50452 0.2418 0.0
H1362 H 0.96677 0.55937 0.14562 0.0
H1363 H 0.98729 0.55338 0.13564 0.0
H1364 H 0.93924 0.50848 0.13443 0.0
H1365 H 0.00757 0.54461 0.16367 0.0
H1366 H 0.01203 0.5537 0.14316 0.0
H1367 H 0.01095 0.53438 0.14649 0.0
H1368 H 0.9348 0.48369 0.14567 0.0
H1369 H 0.94866 0.48681 0.16328 0.0
H1370 H 0.95238 0.48119 0.14294 0.0
H1371 H 0.00085 0.42842 0.15336 0.0
H1372 H 0.02388 0.42445 0.16224 0.0
H1373 H 0.02858 0.44514 0.16643 0.0
H1374 H 0.03814 0.44122 0.149 0.0
H1375 H 0.0331 0.47918 0.13773 0.0
H1376 H 0.98389 0.43714 0.1447 0.0
H1377 H 0.03012 0.50738 0.16159 0.0
H1378 H 0.0223 0.50979 0.14179 0.0
H1379 H 0.03962 0.50657 0.14231 0.0
H1380 H 0.96142 0.43973 0.15322 0.0
H1381 H 0.96357 0.45961 0.15056 0.0
H1382 H 0.96891 0.45463 0.17046 0.0
H1383 H 0.00528 0.51483 0.25338 0.0
H1384 H 0.98247 0.5325 0.20966 0.0
H1385 H 0.97682 0.52684 0.18005 0.0
H1386 H 0.98583 0.49475 0.13897 0.0
H1387 H 0.00503 0.47424 0.18355 0.0
H1388 H 0.00926 0.47883 0.21338 0.0
H1389 H 0.93239 0.5486 0.12972 0.0
H1390 H 0.94447 0.56584 0.14432 0.0
H1391 H 0.93702 0.54503 0.15079 0.0
C1392 C 0.44816 0.36853 0.2738 0.0
C1393 C 0.4495 0.38523 0.27529 0.0
C1394 C 0.46407 0.4065 0.25437 0.0
C1395 C 0.46025 0.41646 0.24499 0.0
C1396 C 0.47294 0.43172 0.23908 0.0
C1397 C 0.4899 0.4367 0.24196 0.0
C1398 C 0.49383 0.42655 0.25139 0.0
C1399 C 0.48082 0.41156 0.25764 0.0
C1400 C 0.46814 0.4424 0.22965 0.0
C1401 C 0.51173 0.43136 0.25454 0.0
C1402 C 0.58552 0.56011 0.29629 0.0
C1403 C 0.57699 0.54258 0.29065 0.0
C1404 C 0.55244 0.52299 0.27337 0.0
C1405 C 0.55823 0.5124 0.26957 0.0
C1406 C 0.54907 0.49874 0.25854 0.0
C1407 C 0.5338 0.49558 0.25122 0.0
C1408 C 0.52779 0.50604 0.25525 0.0
C1409 C 0.53722 0.51964 0.26628 0.0
C1410 C 0.55576 0.48776 0.25455 0.0
C1411 C 0.51152 0.50297 0.24771 0.0
C1412 C 0.56727 0.53735 0.15076 0.0
C1413 C 0.57285 0.52638 0.15324 0.0
C1414 C 0.56182 0.51017 0.1585 0.0
C1415 C 0.54485 0.50477 0.16106 0.0
C1416 C 0.53899 0.51546 0.15762 0.0
C1417 C 0.5503 0.53161 0.15245 0.0
C1418 C 0.56834 0.49891 0.16168 0.0
C1419 C 0.5209 0.50998 0.15992 0.0
C1420 C 0.46008 0.37117 0.12787 0.0
C1421 C 0.4612 0.38781 0.12788 0.0
C1422 C 0.48615 0.41507 0.13303 0.0
C1423 C 0.50333 0.42224 0.13585 0.0
C1424 C 0.51263 0.43681 0.14567 0.0
C1425 C 0.50456 0.4446 0.15237 0.0
C1426 C 0.48739 0.43803 0.1485 0.0
C1427 C 0.47831 0.42321 0.13903 0.0
C1428 C 0.53094 0.44355 0.14934 0.0
C1429 C 0.4785 0.44638 0.15474 0.0
C1430 C 0.50339 0.4523 0.23469 0.0
C1431 C 0.51241 0.46615 0.2454 0.0
C1432 C 0.52432 0.48151 0.23909 0.0
C1433 C 0.527 0.48331 0.22155 0.0
C1434 C 0.53835 0.49874 0.21469 0.0
C1435 C 0.54056 0.50045 0.19738 0.0
C1436 C 0.53162 0.48677 0.18625 0.0
C1437 C 0.53355 0.48845 0.1686 0.0
C1438 C 0.52459 0.47458 0.15788 0.0
C1439 C 0.51374 0.45891 0.16435 0.0
C1440 C 0.51163 0.45701 0.18198 0.0
C1441 C 0.50096 0.44144 0.18897 0.0
C1442 C 0.49839 0.43982 0.20623 0.0
C1443 C 0.50653 0.45368 0.21722 0.0
C1444 C 0.51804 0.46933 0.21058 0.0
C1445 C 0.52046 0.47103 0.19292 0.0
C1446 C 0.59659 0.57459 0.16585 0.0
C1447 C 0.59449 0.56364 0.15055 0.0
O1448 O 0.4513 0.39168 0.25935 0.0
O1449 O 0.47749 0.40024 0.12468 0.0
O1450 O 0.57761 0.55337 0.14642 0.0
O1451 O 0.56117 0.53661 0.2836 0.0
H1452 H 0.46055 0.39359 0.28359 0.0
H1453 H 0.45952 0.37014 0.26782 0.0
H1454 H 0.43701 0.3597 0.26593 0.0
H1455 H 0.44718 0.36326 0.28646 0.0
H1456 H 0.44723 0.41231 0.24249 0.0
H1457 H 0.48369 0.40358 0.26461 0.0
H1458 H 0.47623 0.45557 0.23375 0.0
H1459 H 0.45486 0.43844 0.23153 0.0
H1460 H 0.46988 0.44156 0.21596 0.0
H1461 H 0.51264 0.42135 0.26056 0.0
H1462 H 0.51816 0.44252 0.26292 0.0
H1463 H 0.5185 0.43452 0.24249 0.0
H1464 H 0.5777 0.53397 0.29956 0.0
H1465 H 0.60695 0.57309 0.2788 0.0
H1466 H 0.58727 0.5599 0.31038 0.0
H1467 H 0.57564 0.56344 0.29726 0.0
H1468 H 0.56992 0.51476 0.27509 0.0
H1469 H 0.53283 0.52784 0.26932 0.0
H1470 H 0.55774 0.48778 0.24079 0.0
H1471 H 0.54645 0.47483 0.25796 0.0
H1472 H 0.56777 0.49178 0.26138 0.0
H1473 H 0.50835 0.51199 0.25246 0.0
H1474 H 0.50119 0.49029 0.25068 0.0
H1475 H 0.51235 0.50375 0.23378 0.0
H1476 H 0.60029 0.55653 0.15429 0.0
H1477 H 0.58569 0.53022 0.15098 0.0
H1478 H 0.54601 0.54002 0.15012 0.0
H1479 H 0.56678 0.49543 0.17514 0.0
H1480 H 0.58177 0.50477 0.15863 0.0
H1481 H 0.56095 0.48735 0.15399 0.0
H1482 H 0.51806 0.51931 0.15551 0.0
H1483 H 0.51788 0.50774 0.17347 0.0
H1484 H 0.51264 0.49814 0.1529 0.0
H1485 H 0.45778 0.38953 0.14081 0.0
H1486 H 0.44704 0.361 0.13018 0.0
H1487 H 0.46836 0.37122 0.13806 0.0
H1488 H 0.4641 0.36874 0.11566 0.0
H1489 H 0.50931 0.41599 0.13091 0.0
H1490 H 0.46512 0.418 0.13638 0.0
H1491 H 0.53346 0.44491 0.16317 0.0
H1492 H 0.53855 0.456 0.14389 0.0
H1493 H 0.53511 0.43548 0.14403 0.0
H1494 H 0.46622 0.44154 0.14814 0.0
H1495 H 0.48632 0.45994 0.15299 0.0
H1496 H 0.47629 0.44423 0.16843 0.0
H1497 H 0.51002 0.465 0.2588 0.0
H1498 H 0.54552 0.50972 0.22262 0.0
H1499 H 0.54934 0.51268 0.19285 0.0
H1500 H 0.52607 0.476 0.14436 0.0
H1501 H 0.4943 0.43032 0.18116 0.0
H1502 H 0.4899 0.42755 0.21085 0.0
H1503 H 0.61009 0.58344 0.1688 0.0
H1504 H 0.59089 0.56675 0.17699 0.0
H1505 H 0.59033 0.58159 0.16357 0.0
C1506 C 0.45493 0.00694 0.31285 0.0
C1507 C 0.44443 0.00685 0.29779 0.0
C1508 C 0.45609 0.99936 0.27415 0.0
C1509 C 0.47113 0.01476 0.27317 0.0
C1510 C 0.48356 0.01699 0.26203 0.0
C1511 C 0.48097 0.00355 0.25178 0.0
C1512 C 0.46582 0.98808 0.25262 0.0
C1513 C 0.45351 0.98625 0.26372 0.0
C1514 C 0.49957 0.03368 0.26136 0.0
C1515 C 0.46274 0.97344 0.24199 0.0
C1516 C 0.58168 0.98414 0.28601 0.0
C1517 C 0.5665 0.98227 0.27783 0.0
C1518 C 0.55663 0.99893 0.26491 0.0
C1519 C 0.54247 0.98549 0.25685 0.0
C1520 C 0.53081 0.98778 0.24799 0.0
C1521 C 0.5333 0.00378 0.24723 0.0
C1522 C 0.54762 0.01735 0.25515 0.0
C1523 C 0.55916 0.01474 0.26381 0.0
C1524 C 0.51574 0.97308 0.23952 0.0
C1525 C 0.55063 0.03456 0.2546 0.0
C1526 C 0.56821 0.03371 0.14358 0.0
C1527 C 0.55475 0.0173 0.14443 0.0
C1528 C 0.53994 0.01356 0.15232 0.0
C1529 C 0.53867 0.02651 0.15956 0.0
C1530 C 0.5519 0.04312 0.15793 0.0
C1531 C 0.56646 0.0465 0.14976 0.0
C1532 C 0.52579 0.99577 0.15328 0.0
C1533 C 0.55084 0.05724 0.16525 0.0
C1534 C 0.43413 0.03726 0.14772 0.0
C1535 C 0.44123 0.03268 0.13285 0.0
C1536 C 0.4567 0.0207 0.14536 0.0
C1537 C 0.4566 0.00603 0.14693 0.0
C1538 C 0.46971 0.00577 0.1553 0.0
C1539 C 0.48324 0.02061 0.16241 0.0
C1540 C 0.48347 0.03554 0.16092 0.0
C1541 C 0.4702 0.03546 0.15239 0.0
C1542 C 0.4691 0.98964 0.15659 0.0
C1543 C 0.4977 0.05154 0.16846 0.0
C1544 C 0.49447 0.00554 0.24074 0.0
C1545 C 0.50712 0.00387 0.24803 0.0
C1546 C 0.5206 0.00617 0.23864 0.0
C1547 C 0.52163 0.01039 0.22149 0.0
C1548 C 0.53523 0.01321 0.2118 0.0
C1549 C 0.53616 0.01743 0.19495 0.0
C1550 C 0.52334 0.01864 0.18703 0.0
C1551 C 0.52406 0.02268 0.16983 0.0
C1552 C 0.51092 0.02337 0.16224 0.0
C1553 C 0.49709 0.02041 0.17147 0.0
C1554 C 0.49638 0.01685 0.18882 0.0
C1555 C 0.48292 0.01434 0.19861 0.0
C1556 C 0.48234 0.0108 0.21566 0.0
C1557 C 0.49503 0.00936 0.22349 0.0
C1558 C 0.50871 0.01184 0.21385 0.0
C1559 C 0.50947 0.01578 0.19656 0.0
C1560 C 0.60362 0.03823 0.15491 0.0
C1561 C 0.5916 0.02979 0.1398 0.0
O1562 O 0.44382 0.99648 0.285 0.0
O1563 O 0.44346 0.01986 0.13714 0.0
O1564 O 0.58292 0.03764 0.13665 0.0
O1565 O 0.56802 0.99716 0.27389 0.0
H1566 H 0.44997 0.01962 0.29308 0.0
H1567 H 0.468 0.01172 0.30913 0.0
H1568 H 0.44962 0.99423 0.31762 0.0
H1569 H 0.45522 0.01506 0.32319 0.0
H1570 H 0.47338 0.02508 0.28108 0.0
H1571 H 0.44187 0.97444 0.26453 0.0
H1572 H 0.51016 0.03269 0.26617 0.0
H1573 H 0.49907 0.04326 0.269 0.0
H1574 H 0.50218 0.03778 0.24811 0.0
H1575 H 0.45054 0.96208 0.2446 0.0
H1576 H 0.4729 0.97097 0.24438 0.0
H1577 H 0.46292 0.97627 0.22843 0.0
H1578 H 0.55441 0.97322 0.28368 0.0
H1579 H 0.57772 0.97869 0.29891 0.0
H1580 H 0.58944 0.99733 0.29094 0.0
H1581 H 0.5908 0.97339 0.26689 0.0
H1582 H 0.54041 0.9732 0.25744 0.0
H1583 H 0.57014 0.02503 0.26999 0.0
H1584 H 0.51512 0.97555 0.22596 0.0
H1585 H 0.50416 0.97107 0.24532 0.0
H1586 H 0.51599 0.96158 0.24058 0.0
H1587 H 0.56236 0.0438 0.26144 0.0
H1588 H 0.53996 0.03466 0.26029 0.0
H1589 H 0.55133 0.03833 0.2413 0.0
H1590 H 0.5829 0.01663 0.14296 0.0
H1591 H 0.55573 0.00741 0.13886 0.0
H1592 H 0.57681 0.05915 0.14867 0.0
H1593 H 0.5244 0.99178 0.16656 0.0
H1594 H 0.52795 0.98736 0.14543 0.0
H1595 H 0.51382 0.99451 0.1491 0.0
H1596 H 0.5623 0.06946 0.16304 0.0
H1597 H 0.5489 0.0557 0.17903 0.0
H1598 H 0.53991 0.05712 0.15953 0.0
H1599 H 0.45338 0.04368 0.12931 0.0
H1600 H 0.43216 0.04741 0.14423 0.0
H1601 H 0.44295 0.04154 0.15873 0.0
H1602 H 0.422 0.0264 0.1515 0.0
H1603 H 0.44613 0.99471 0.1415 0.0
H1604 H 0.47045 0.04692 0.15142 0.0
H1605 H 0.46904 0.98656 0.17006 0.0
H1606 H 0.48046 0.99088 0.15101 0.0
H1607 H 0.45786 0.97925 0.15005 0.0
H1608 H 0.49595 0.06208 0.16644 0.0
H1609 H 0.50964 0.05443 0.16278 0.0
H1610 H 0.49884 0.05019 0.18222 0.0
H1611 H 0.5065 0.00079 0.26124 0.0
H1612 H 0.54538 0.0123 0.21717 0.0
H1613 H 0.54703 0.0196 0.18819 0.0
H1614 H 0.51145 0.02623 0.14898 0.0
H1615 H 0.47273 0.01517 0.19323 0.0
H1616 H 0.47173 0.00908 0.2226 0.0
H1617 H 0.61079 0.03216 0.1575 0.0
H1618 H 0.59643 0.03723 0.16629 0.0
H1619 H 0.61254 0.05154 0.15252 0.0
C1620 C 0.53242 0.96591 0.70887 0.0
C1621 C 0.5413 0.97847 0.72339 0.0
C1622 C 0.53096 0.97583 0.75172 0.0
C1623 C 0.53937 0.9926 0.75652 0.0
C1624 C 0.5332 0.99812 0.7693 0.0
C1625 C 0.51815 0.98665 0.7772 0.0
C1626 C 0.50996 0.96963 0.77275 0.0
C1627 C 0.51672 0.96441 0.76027 0.0
C1628 C 0.54252 0.0163 0.774 0.0
C1629 C 0.49376 0.95705 0.78068 0.0
C1630 C 0.46356 0.05591 0.76502 0.0
C1631 C 0.45853 0.04162 0.7524 0.0
C1632 C 0.46398 0.02237 0.76771 0.0
C1633 C 0.45632 0.00664 0.77457 0.0
C1634 C 0.46579 0.0008 0.78209 0.0
C1635 C 0.48344 0.01117 0.78313 0.0
C1636 C 0.49134 0.0271 0.77615 0.0
C1637 C 0.48155 0.0325 0.76836 0.0
C1638 C 0.45689 0.98356 0.78899 0.0
C1639 C 0.51012 0.03849 0.77705 0.0
C1640 C 0.46849 0.01839 0.88938 0.0
C1641 C 0.46001 0.00264 0.88165 0.0
C1642 C 0.46887 0.99632 0.87392 0.0
C1643 C 0.48656 0.00614 0.87363 0.0
C1644 C 0.49516 0.02161 0.8823 0.0
C1645 C 0.48596 0.02745 0.8903 0.0
C1646 C 0.45926 0.97943 0.86546 0.0
C1647 C 0.514 0.0323 0.88244 0.0
C1648 C 0.55515 0.94001 0.87857 0.0
C1649 C 0.55641 0.95624 0.88346 0.0
C1650 C 0.53398 0.96202 0.88147 0.0
C1651 C 0.51668 0.95388 0.87879 0.0
C1652 C 0.50923 0.96217 0.87208 0.0
C1653 C 0.51937 0.97915 0.86836 0.0
C1654 C 0.53679 0.98771 0.87199 0.0
C1655 C 0.54394 0.97903 0.87842 0.0
C1656 C 0.49059 0.95269 0.86857 0.0
C1657 C 0.54787 0.00594 0.86876 0.0
C1658 C 0.51022 0.99271 0.78887 0.0
C1659 C 0.5013 0.99925 0.78166 0.0
C1660 C 0.49355 0.00534 0.79167 0.0
C1661 C 0.49483 0.00509 0.80942 0.0
C1662 C 0.48772 0.01168 0.81986 0.0
C1663 C 0.48834 0.01069 0.83729 0.0
C1664 C 0.49599 0.00295 0.84498 0.0
C1665 C 0.49581 0.00104 0.86265 0.0
C1666 C 0.50375 0.99352 0.86992 0.0
C1667 C 0.51184 0.98771 0.85996 0.0
C1668 C 0.512 0.98938 0.84223 0.0
C1669 C 0.5199 0.98359 0.83177 0.0
C1670 C 0.51968 0.985 0.81432 0.0
C1671 C 0.51119 0.99187 0.80662 0.0
C1672 C 0.50337 0.99801 0.81691 0.0
C1673 C 0.50388 0.99687 0.83473 0.0
C1674 C 0.4548 0.04336 0.88091 0.0
C1675 C 0.4474 0.02581 0.88754 0.0
O1676 O 0.53604 0.97043 0.73858 0.0
O1677 O 0.54058 0.95307 0.8869 0.0
O1678 O 0.46011 0.02515 0.89593 0.0
O1679 O 0.45389 0.02718 0.76083 0.0
H1680 H 0.53739 0.98765 0.72212 0.0
H1681 H 0.51869 0.96042 0.70953 0.0
H1682 H 0.53495 0.95576 0.70957 0.0
H1683 H 0.53663 0.97207 0.69656 0.0
H1684 H 0.55067 0.0014 0.75019 0.0
H1685 H 0.51043 0.95146 0.75654 0.0
H1686 H 0.53546 0.02179 0.76899 0.0
H1687 H 0.55528 0.0231 0.76878 0.0
H1688 H 0.54354 0.01806 0.78792 0.0
H1689 H 0.48835 0.9445 0.77494 0.0
H1690 H 0.48446 0.96084 0.77933 0.0
H1691 H 0.49593 0.95641 0.79436 0.0
H1692 H 0.46928 0.04483 0.7442 0.0
H1693 H 0.46689 0.06736 0.7582 0.0
H1694 H 0.47459 0.05844 0.77282 0.0
H1695 H 0.45315 0.0529 0.77361 0.0
H1696 H 0.44278 0.99889 0.77396 0.0
H1697 H 0.48775 0.04466 0.76301 0.0
H1698 H 0.45777 0.98431 0.80298 0.0
H1699 H 0.46293 0.97682 0.78469 0.0
H1700 H 0.44345 0.9763 0.78509 0.0
H1701 H 0.51423 0.05109 0.77265 0.0
H1702 H 0.5159 0.03327 0.76906 0.0
H1703 H 0.51486 0.03945 0.79019 0.0
H1704 H 0.4426 0.0173 0.87631 0.0
H1705 H 0.44646 0.99535 0.8815 0.0
H1706 H 0.49237 0.03947 0.89662 0.0
H1707 H 0.45913 0.98083 0.8516 0.0
H1708 H 0.4461 0.97216 0.8696 0.0
H1709 H 0.46539 0.97237 0.86819 0.0
H1710 H 0.5188 0.04403 0.88976 0.0
H1711 H 0.51839 0.03529 0.86931 0.0
H1712 H 0.51945 0.02543 0.88798 0.0
H1713 H 0.56144 0.96422 0.87224 0.0
H1714 H 0.56777 0.94223 0.87607 0.0
H1715 H 0.54726 0.93469 0.86692 0.0
H1716 H 0.54938 0.93083 0.88871 0.0
H1717 H 0.50907 0.94082 0.88144 0.0
H1718 H 0.55728 0.98556 0.88105 0.0
H1719 H 0.48799 0.95371 0.85508 0.0
H1720 H 0.48477 0.95813 0.87618 0.0
H1721 H 0.48455 0.93939 0.87158 0.0
H1722 H 0.5608 0.01116 0.87392 0.0
H1723 H 0.54249 0.01279 0.87448 0.0
H1724 H 0.54851 0.00798 0.85498 0.0
H1725 H 0.50024 0.99947 0.76804 0.0
H1726 H 0.48149 0.01761 0.81468 0.0
H1727 H 0.48257 0.01594 0.84463 0.0
H1728 H 0.5034 0.99194 0.88346 0.0
H1729 H 0.52634 0.97788 0.83695 0.0
H1730 H 0.526 0.98038 0.80692 0.0
H1731 H 0.45883 0.05248 0.89153 0.0
H1732 H 0.44557 0.04405 0.87261 0.0
H1733 H 0.46592 0.04671 0.87326 0.0
C1734 C 0.00979 0.56188 0.71708 0.0
C1735 C 0.99568 0.56029 0.72788 0.0
C1736 C 0.99935 0.55153 0.75521 0.0
C1737 C 0.98356 0.53802 0.75893 0.0
C1738 C 0.98198 0.52554 0.76949 0.0
C1739 C 0.99656 0.52656 0.77623 0.0
C1740 C 0.01253 0.54034 0.77259 0.0
C1741 C 0.01369 0.55285 0.76235 0.0
C1742 C 0.96475 0.5112 0.7733 0.0
C1743 C 0.02838 0.54173 0.77923 0.0
C1744 C 0.992 0.41154 0.73963 0.0
C1745 C 0.99684 0.42613 0.7506 0.0
C1746 C 0.98669 0.44378 0.75986 0.0
C1747 C 0.00241 0.45675 0.76586 0.0
C1748 C 0.00404 0.47057 0.7743 0.0
C1749 C 0.98964 0.47137 0.77704 0.0
C1750 C 0.97384 0.4585 0.77078 0.0
C1751 C 0.9726 0.4449 0.76217 0.0
C1752 C 0.02117 0.48425 0.78046 0.0
C1753 C 0.95826 0.45901 0.77343 0.0
C1754 C 0.99804 0.45081 0.88577 0.0
C1755 C 0.01264 0.46253 0.87761 0.0
C1756 C 0.01319 0.47554 0.86882 0.0
C1757 C 0.99883 0.47679 0.86801 0.0
C1758 C 0.98421 0.46516 0.87637 0.0
C1759 C 0.98405 0.45236 0.8852 0.0
C1760 C 0.02908 0.48787 0.86021 0.0
C1761 C 0.96869 0.46613 0.87578 0.0
C1762 C 0.02819 0.60022 0.87265 0.0
C1763 C 0.01827 0.58901 0.88713 0.0
C1764 C 0.01878 0.56375 0.88338 0.0
C1765 C 0.03071 0.55995 0.87895 0.0
C1766 C 0.026 0.54494 0.87072 0.0
C1767 C 0.00884 0.53329 0.86725 0.0
C1768 C 0.99662 0.53671 0.87249 0.0
C1769 C 0.00172 0.55195 0.88048 0.0
C1770 C 0.03937 0.54163 0.86551 0.0
C1771 C 0.9782 0.5243 0.86953 0.0
C1772 C 0.99509 0.51292 0.78655 0.0
C1773 C 0.99244 0.49873 0.77807 0.0
C1774 C 0.99114 0.48548 0.78689 0.0
C1775 C 0.99233 0.48622 0.8047 0.0
C1776 C 0.99069 0.47294 0.81397 0.0
C1777 C 0.99259 0.47404 0.83145 0.0
C1778 C 0.9963 0.4885 0.84033 0.0
C1779 C 0.999 0.49002 0.85803 0.0
C1780 C 0.00266 0.50457 0.86646 0.0
C1781 C 0.0038 0.51779 0.85768 0.0
C1782 C 0.00107 0.51648 0.83999 0.0
C1783 C 0.00205 0.52951 0.83076 0.0
C1784 C 0.99971 0.52823 0.81331 0.0
C1785 C 0.9967 0.51404 0.80436 0.0
C1786 C 0.9954 0.50066 0.81344 0.0
C1787 C 0.99747 0.50184 0.83128 0.0
C1788 C 0.00836 0.42437 0.87899 0.0
C1789 C 0.00843 0.43309 0.89538 0.0
O1790 O 0.00097 0.56338 0.74466 0.0
O1791 O 0.02413 0.57868 0.89084 0.0
O1792 O 0.99677 0.43781 0.89419 0.0
O1793 O 0.98462 0.43005 0.75192 0.0
H1794 H 0.98467 0.54746 0.72616 0.0
H1795 H 0.01311 0.55278 0.7211 0.0
H1796 H 0.0211 0.5745 0.71848 0.0
H1797 H 0.00575 0.55935 0.70358 0.0
H1798 H 0.97249 0.53729 0.75359 0.0
H1799 H 0.02582 0.56344 0.75942 0.0
H1800 H 0.96284 0.49979 0.76711 0.0
H1801 H 0.95472 0.5132 0.76876 0.0
H1802 H 0.96357 0.50914 0.78709 0.0
H1803 H 0.03976 0.55223 0.7737 0.0
H1804 H 0.02812 0.53013 0.77645 0.0
H1805 H 0.02932 0.54358 0.79313 0.0
H1806 H 0.00313 0.42667 0.76285 0.0
H1807 H 0.00916 0.42219 0.71789 0.0
H1808 H 0.9779 0.40449 0.73818 0.0
H1809 H 0.99221 0.40219 0.74812 0.0
H1810 H 0.01349 0.45618 0.76401 0.0
H1811 H 0.96054 0.43492 0.75742 0.0
H1812 H 0.02178 0.48443 0.79445 0.0
H1813 H 0.02348 0.49643 0.77648 0.0
H1814 H 0.0313 0.48269 0.77566 0.0
H1815 H 0.9468 0.44767 0.76846 0.0
H1816 H 0.95944 0.46988 0.76701 0.0
H1817 H 0.95682 0.46048 0.78709 0.0
H1818 H 0.02113 0.44415 0.89785 0.0
H1819 H 0.02363 0.46163 0.87794 0.0
H1820 H 0.97287 0.44332 0.89156 0.0
H1821 H 0.02688 0.48651 0.84634 0.0
H1822 H 0.03963 0.48615 0.86336 0.0
H1823 H 0.03274 0.50067 0.86388 0.0
H1824 H 0.95815 0.45582 0.8825 0.0
H1825 H 0.96471 0.46587 0.86247 0.0
H1826 H 0.97152 0.47802 0.88162 0.0
H1827 H 0.00488 0.58173 0.88302 0.0
H1828 H 0.02373 0.60869 0.86965 0.0
H1829 H 0.0264 0.59259 0.8612 0.0
H1830 H 0.04176 0.60768 0.87602 0.0
H1831 H 0.04382 0.56902 0.88158 0.0
H1832 H 0.99236 0.55447 0.88465 0.0
H1833 H 0.03812 0.53871 0.85178 0.0
H1834 H 0.03773 0.5307 0.87222 0.0
H1835 H 0.05219 0.55231 0.86837 0.0
H1836 H 0.97023 0.52819 0.87567 0.0
H1837 H 0.97496 0.51208 0.87439 0.0
H1838 H 0.97526 0.52272 0.85577 0.0
H1839 H 0.99163 0.49811 0.7644 0.0
H1840 H 0.98801 0.46156 0.80781 0.0
H1841 H 0.99129 0.46346 0.83788 0.0
H1842 H 0.00497 0.50575 0.88 0.0
H1843 H 0.00466 0.54087 0.8369 0.0
H1844 H 0.00055 0.53862 0.8069 0.0
H1845 H 0.0175 0.42034 0.88005 0.0
H1846 H 0.01195 0.43286 0.86824 0.0
H1847 H 0.99571 0.41338 0.87619 0.0
C1848 C 0.52774 0.58018 0.72168 0.0
C1849 C 0.53934 0.58599 0.73738 0.0
C1850 C 0.52244 0.56381 0.75733 0.0
C1851 C 0.51068 0.56831 0.76065 0.0
C1852 C 0.49691 0.55846 0.77078 0.0
C1853 C 0.49486 0.54386 0.77767 0.0
C1854 C 0.50679 0.53944 0.77453 0.0
C1855 C 0.52048 0.54955 0.76446 0.0
C1856 C 0.48444 0.56356 0.77402 0.0
C1857 C 0.50495 0.52392 0.78162 0.0
C1858 C 0.3789 0.4617 0.72311 0.0
C1859 C 0.39344 0.46118 0.73137 0.0
C1860 C 0.4075 0.47506 0.75763 0.0
C1861 C 0.42124 0.47312 0.75889 0.0
C1862 C 0.43541 0.48419 0.76879 0.0
C1863 C 0.43597 0.49774 0.77712 0.0
C1864 C 0.42218 0.49989 0.77543 0.0
C1865 C 0.40791 0.4882 0.76608 0.0
C1866 C 0.44972 0.48132 0.77037 0.0
C1867 C 0.42247 0.51454 0.78339 0.0
C1868 C 0.40466 0.48102 0.88283 0.0
C1869 C 0.41639 0.47628 0.88073 0.0
C1870 C 0.43191 0.48705 0.87349 0.0
C1871 C 0.4357 0.50283 0.86832 0.0
C1872 C 0.42426 0.50793 0.87127 0.0
C1873 C 0.40892 0.49697 0.87864 0.0
C1874 C 0.44405 0.48143 0.87093 0.0
C1875 C 0.42802 0.52477 0.86614 0.0
C1876 C 0.55055 0.61148 0.88646 0.0
C1877 C 0.54381 0.59959 0.90122 0.0
C1878 C 0.52397 0.5726 0.88734 0.0
C1879 C 0.5216 0.55724 0.8829 0.0
C1880 C 0.50721 0.54529 0.8739 0.0
C1881 C 0.49491 0.54887 0.86911 0.0
C1882 C 0.49708 0.56431 0.87371 0.0
C1883 C 0.51157 0.57602 0.88285 0.0
C1884 C 0.50523 0.52889 0.86934 0.0
C1885 C 0.48416 0.56849 0.86879 0.0
C1886 C 0.47992 0.53286 0.78764 0.0
C1887 C 0.4654 0.52101 0.77887 0.0
C1888 C 0.45101 0.50976 0.78737 0.0
C1889 C 0.45106 0.51032 0.80521 0.0
C1890 C 0.43697 0.49895 0.81423 0.0
C1891 C 0.4369 0.50001 0.83172 0.0
C1892 C 0.45106 0.51224 0.84092 0.0
C1893 C 0.45102 0.51354 0.8587 0.0
C1894 C 0.46544 0.52557 0.8675 0.0
C1895 C 0.47995 0.53657 0.85898 0.0
C1896 C 0.48011 0.5357 0.84117 0.0
C1897 C 0.49438 0.54678 0.83217 0.0
C1898 C 0.49437 0.54588 0.81465 0.0
C1899 C 0.4801 0.53386 0.80544 0.0
C1900 C 0.46559 0.52255 0.81425 0.0
C1901 C 0.46561 0.52347 0.83213 0.0
C1902 C 0.36238 0.4479 0.88048 0.0
C1903 C 0.37997 0.45353 0.88721 0.0
O1904 O 0.53575 0.57263 0.74727 0.0
O1905 O 0.53844 0.58363 0.89573 0.0
O1906 O 0.38914 0.47063 0.88879 0.0
O1907 O 0.39361 0.4642 0.74851 0.0
H1908 H 0.53776 0.59505 0.74481 0.0
H1909 H 0.51448 0.57431 0.72531 0.0
H1910 H 0.52909 0.57101 0.7142 0.0
H1911 H 0.53079 0.59086 0.71363 0.0
H1912 H 0.51206 0.57938 0.75536 0.0
H1913 H 0.52964 0.54621 0.76188 0.0
H1914 H 0.47204 0.55409 0.76849 0.0
H1915 H 0.48826 0.57572 0.76853 0.0
H1916 H 0.48294 0.56424 0.7878 0.0
H1917 H 0.5152 0.52209 0.7778 0.0
H1918 H 0.49281 0.513 0.77727 0.0
H1919 H 0.50489 0.5245 0.7956 0.0
H1920 H 0.40521 0.47112 0.72572 0.0
H1921 H 0.37879 0.46022 0.7092 0.0
H1922 H 0.38025 0.47382 0.72596 0.0
H1923 H 0.36676 0.45174 0.728 0.0
H1924 H 0.42071 0.46277 0.75239 0.0
H1925 H 0.39716 0.48952 0.76494 0.0
H1926 H 0.45392 0.48255 0.78376 0.0
H1927 H 0.46047 0.49082 0.76317 0.0
H1928 H 0.44626 0.46893 0.7654 0.0
H1929 H 0.41264 0.51635 0.77779 0.0
H1930 H 0.43484 0.52605 0.78191 0.0
H1931 H 0.4202 0.51251 0.79707 0.0
H1932 H 0.38555 0.44922 0.87775 0.0
H1933 H 0.41348 0.46419 0.88466 0.0
H1934 H 0.3999 0.50061 0.88062 0.0
H1935 H 0.44553 0.48028 0.85722 0.0
H1936 H 0.43982 0.46933 0.87678 0.0
H1937 H 0.45654 0.4908 0.87637 0.0
H1938 H 0.41798 0.52701 0.86969 0.0
H1939 H 0.42953 0.52594 0.85228 0.0
H1940 H 0.43999 0.53451 0.8722 0.0
H1941 H 0.53325 0.59992 0.90694 0.0
H1942 H 0.55509 0.62431 0.89094 0.0
H1943 H 0.54056 0.60801 0.87672 0.0
H1944 H 0.56102 0.6112 0.88049 0.0
H1945 H 0.5312 0.55469 0.88647 0.0
H1946 H 0.51311 0.58779 0.88627 0.0
H1947 H 0.50498 0.52747 0.85541 0.0
H1948 H 0.49314 0.51863 0.87396 0.0
H1949 H 0.51554 0.52772 0.87472 0.0
H1950 H 0.48785 0.58117 0.87298 0.0
H1951 H 0.47201 0.5595 0.87443 0.0
H1952 H 0.48222 0.56742 0.85488 0.0
H1953 H 0.46532 0.52051 0.76519 0.0
H1954 H 0.42576 0.48918 0.80787 0.0
H1955 H 0.4256 0.49105 0.83793 0.0
H1956 H 0.46533 0.52645 0.88114 0.0
H1957 H 0.50571 0.55633 0.83857 0.0
H1958 H 0.50569 0.55476 0.80839 0.0
H1959 H 0.356 0.45199 0.88914 0.0
H1960 H 0.35477 0.43421 0.87902 0.0
H1961 H 0.36317 0.45332 0.86793 0.0
C1962 C 0.62175 0.75778 0.63561 0.0
C1963 C 0.63033 0.75558 0.62038 0.0
C1964 C 0.63646 0.77927 0.60278 0.0
C1965 C 0.61977 0.77349 0.59784 0.0
C1966 C 0.61582 0.78307 0.58773 0.0
C1967 C 0.6288 0.79862 0.58221 0.0
C1968 C 0.64561 0.80432 0.58685 0.0
C1969 C 0.64919 0.79458 0.59713 0.0
C1970 C 0.59774 0.77664 0.58306 0.0
C1971 C 0.65977 0.82077 0.58105 0.0
C1972 C 0.61208 0.8743 0.64308 0.0
C1973 C 0.62396 0.88297 0.62861 0.0
C1974 C 0.61606 0.8669 0.6025 0.0
C1975 C 0.63154 0.87027 0.59675 0.0
C1976 C 0.63255 0.85896 0.5861 0.0
C1977 C 0.61776 0.8439 0.58131 0.0
C1978 C 0.60207 0.84071 0.58676 0.0
C1979 C 0.60141 0.85244 0.59707 0.0
C1980 C 0.64945 0.86298 0.58023 0.0
C1981 C 0.58605 0.82473 0.58208 0.0
C1982 C 0.59121 0.85088 0.4745 0.0
C1983 C 0.6082 0.85764 0.47864 0.0
C1984 C 0.61366 0.84806 0.48648 0.0
C1985 C 0.60178 0.83154 0.49069 0.0
C1986 C 0.58473 0.82454 0.48596 0.0
C1987 C 0.57972 0.83426 0.47765 0.0
C1988 C 0.63206 0.85572 0.49055 0.0
C1989 C 0.57171 0.80692 0.49007 0.0
C1990 C 0.6089 0.7255 0.4841 0.0
C1991 C 0.60808 0.73321 0.46752 0.0
C1992 C 0.61696 0.76183 0.47573 0.0
C1993 C 0.63022 0.77829 0.47555 0.0
C1994 C 0.62913 0.79094 0.48349 0.0
C1995 C 0.61427 0.78701 0.4917 0.0
C1996 C 0.60059 0.77046 0.49156 0.0
C1997 C 0.6021 0.75801 0.48372 0.0
C1998 C 0.64395 0.80845 0.4834 0.0
C1999 C 0.58446 0.76587 0.49998 0.0
C2000 C 0.62472 0.80906 0.5719 0.0
C2001 C 0.62309 0.82112 0.58025 0.0
C2002 C 0.61887 0.83115 0.57146 0.0
C2003 C 0.61596 0.82898 0.5538 0.0
C2004 C 0.61139 0.83861 0.54459 0.0
C2005 C 0.60827 0.83617 0.52726 0.0
C2006 C 0.61001 0.82429 0.51839 0.0
C2007 C 0.60705 0.82184 0.50073 0.0
C2008 C 0.60874 0.80978 0.49238 0.0
C2009 C 0.61331 0.80002 0.50119 0.0
C2010 C 0.61647 0.80241 0.5188 0.0
C2011 C 0.62128 0.79293 0.52801 0.0
C2012 C 0.62404 0.79512 0.54537 0.0
C2013 C 0.62217 0.80691 0.55421 0.0
C2014 C 0.61764 0.81682 0.54516 0.0
C2015 C 0.61475 0.81454 0.52743 0.0
C2016 C 0.57711 0.87931 0.47284 0.0
C2017 C 0.59172 0.8766 0.4714 0.0
O2018 O 0.64087 0.77069 0.61304 0.0
O2019 O 0.61916 0.75019 0.46822 0.0
O2020 O 0.58549 0.86007 0.46761 0.0
O2021 O 0.61502 0.87736 0.61342 0.0
H2022 H 0.62059 0.74701 0.61099 0.0
H2023 H 0.61373 0.76257 0.63165 0.0
H2024 H 0.63118 0.76666 0.64503 0.0
H2025 H 0.61367 0.74571 0.6417 0.0
H2026 H 0.6097 0.76163 0.60191 0.0
H2027 H 0.66202 0.79894 0.60091 0.0
H2028 H 0.59443 0.7858 0.58696 0.0
H2029 H 0.58903 0.76466 0.58901 0.0
H2030 H 0.5959 0.77494 0.56916 0.0
H2031 H 0.67223 0.82286 0.58462 0.0
H2032 H 0.65867 0.83086 0.58675 0.0
H2033 H 0.65896 0.82152 0.56714 0.0
H2034 H 0.63377 0.87974 0.62939 0.0
H2035 H 0.61899 0.87852 0.65539 0.0
H2036 H 0.60643 0.86072 0.64177 0.0
H2037 H 0.60184 0.87689 0.64294 0.0
H2038 H 0.64282 0.88173 0.60065 0.0
H2039 H 0.58951 0.85008 0.60149 0.0
H2040 H 0.64899 0.86071 0.56641 0.0
H2041 H 0.65287 0.85474 0.5865 0.0
H2042 H 0.65941 0.87601 0.5832 0.0
H2043 H 0.57501 0.82371 0.5882 0.0
H2044 H 0.58707 0.81405 0.58578 0.0
H2045 H 0.58393 0.82387 0.56821 0.0
H2046 H 0.59818 0.87993 0.48403 0.0
H2047 H 0.61723 0.87037 0.47573 0.0
H2048 H 0.56667 0.82911 0.47417 0.0
H2049 H 0.63436 0.85836 0.50431 0.0
H2050 H 0.63988 0.86749 0.48386 0.0
H2051 H 0.63613 0.84704 0.4871 0.0
H2052 H 0.55881 0.80377 0.48672 0.0
H2053 H 0.5724 0.80485 0.50373 0.0
H2054 H 0.57424 0.79835 0.48303 0.0
H2055 H 0.5951 0.73037 0.46533 0.0
H2056 H 0.60028 0.71186 0.48338 0.0
H2057 H 0.60507 0.73037 0.49472 0.0
H2058 H 0.62183 0.72842 0.48684 0.0
H2059 H 0.64161 0.78116 0.46934 0.0
H2060 H 0.59166 0.7454 0.48409 0.0
H2061 H 0.64802 0.81314 0.49656 0.0
H2062 H 0.64027 0.81654 0.47723 0.0
H2063 H 0.6547 0.80945 0.47667 0.0
H2064 H 0.57442 0.75281 0.4973 0.0
H2065 H 0.58004 0.77406 0.4957 0.0
H2066 H 0.58667 0.7677 0.51384 0.0
H2067 H 0.62512 0.82273 0.59382 0.0
H2068 H 0.61002 0.84805 0.55069 0.0
H2069 H 0.60452 0.84379 0.52092 0.0
H2070 H 0.60633 0.80787 0.47888 0.0
H2071 H 0.62291 0.78365 0.52191 0.0
H2072 H 0.62766 0.78743 0.55179 0.0
H2073 H 0.58184 0.89253 0.47579 0.0
H2074 H 0.5689 0.87175 0.48318 0.0
H2075 H 0.56949 0.8756 0.46094 0.0
C2076 C 0.1364 0.73011 0.65285 0.0
C2077 C 0.13171 0.73853 0.63944 0.0
C2078 C 0.14275 0.74628 0.61141 0.0
C2079 C 0.13779 0.75748 0.60759 0.0
C2080 C 0.14631 0.76975 0.59565 0.0
C2081 C 0.16032 0.77108 0.58765 0.0
C2082 C 0.16508 0.75952 0.59121 0.0
C2083 C 0.15594 0.747 0.60279 0.0
C2084 C 0.1406 0.78159 0.59195 0.0
C2085 C 0.18019 0.76075 0.5833 0.0
C2086 C 0.26052 0.90014 0.61996 0.0
C2087 C 0.25315 0.88383 0.6114 0.0
C2088 C 0.22581 0.86141 0.60056 0.0
C2089 C 0.23103 0.85038 0.59669 0.0
C2090 C 0.21991 0.83496 0.58892 0.0
C2091 C 0.20327 0.83049 0.58501 0.0
C2092 C 0.19788 0.8414 0.5893 0.0
C2093 C 0.20926 0.85674 0.59703 0.0
C2094 C 0.226 0.82354 0.58456 0.0
C2095 C 0.18021 0.83697 0.58541 0.0
C2096 C 0.22118 0.85416 0.47617 0.0
C2097 C 0.22622 0.84314 0.48016 0.0
C2098 C 0.21591 0.82886 0.48926 0.0
C2099 C 0.1999 0.82528 0.49398 0.0
C2100 C 0.19446 0.8361 0.48945 0.0
C2101 C 0.2052 0.8505 0.48064 0.0
C2102 C 0.22219 0.81769 0.49394 0.0
C2103 C 0.17734 0.83247 0.49403 0.0
C2104 C 0.12083 0.6917 0.465 0.0
C2105 C 0.12129 0.70797 0.467 0.0
C2106 C 0.14478 0.73488 0.4771 0.0
C2107 C 0.16176 0.74281 0.48144 0.0
C2108 C 0.16975 0.75755 0.49106 0.0
C2109 C 0.16061 0.76487 0.49593 0.0
C2110 C 0.14344 0.75706 0.49128 0.0
C2111 C 0.13562 0.74201 0.48206 0.0
C2112 C 0.18806 0.76539 0.49572 0.0
C2113 C 0.13344 0.76474 0.49586 0.0
C2114 C 0.17077 0.7854 0.57679 0.0
C2115 C 0.18171 0.80063 0.58486 0.0
C2116 C 0.19178 0.81479 0.57565 0.0
C2117 C 0.19094 0.81389 0.55785 0.0
C2118 C 0.20076 0.82799 0.54823 0.0
C2119 C 0.20007 0.82699 0.53073 0.0
C2120 C 0.18962 0.81182 0.52215 0.0
C2121 C 0.1892 0.81065 0.50436 0.0
C2122 C 0.17912 0.79529 0.49621 0.0
C2123 C 0.16932 0.78095 0.50537 0.0
C2124 C 0.16919 0.78196 0.52318 0.0
C2125 C 0.15923 0.7679 0.53282 0.0
C2126 C 0.15939 0.76904 0.55036 0.0
C2127 C 0.16998 0.78417 0.55896 0.0
C2128 C 0.18011 0.7985 0.54947 0.0
C2129 C 0.17954 0.79745 0.53158 0.0
C2130 C 0.24462 0.89486 0.4562 0.0
C2131 C 0.23403 0.88333 0.46928 0.0
O2132 O 0.13529 0.73498 0.62365 0.0
O2133 O 0.13793 0.7207 0.46766 0.0
O2134 O 0.23178 0.86777 0.4674 0.0
O2135 O 0.23626 0.87668 0.6075 0.0
H2136 H 0.13972 0.75208 0.64227 0.0
H2137 H 0.15004 0.735 0.65255 0.0
H2138 H 0.12958 0.71653 0.65053 0.0
H2139 H 0.13345 0.73266 0.6656 0.0
H2140 H 0.12731 0.75667 0.61399 0.0
H2141 H 0.15958 0.7382 0.60578 0.0
H2142 H 0.14953 0.79379 0.59801 0.0
H2143 H 0.12794 0.77717 0.59683 0.0
H2144 H 0.14043 0.78342 0.57816 0.0
H2145 H 0.1832 0.75186 0.5887 0.0
H2146 H 0.19126 0.77346 0.58509 0.0
H2147 H 0.17784 0.7582 0.56953 0.0
H2148 H 0.26064 0.88312 0.60104 0.0
H2149 H 0.26678 0.89587 0.64602 0.0
H2150 H 0.25178 0.9047 0.61731 0.0
H2151 H 0.27049 0.90921 0.61132 0.0
H2152 H 0.24376 0.85377 0.59956 0.0
H2153 H 0.20533 0.86529 0.60017 0.0
H2154 H 0.21778 0.81129 0.59024 0.0
H2155 H 0.23909 0.82851 0.58903 0.0
H2156 H 0.22528 0.82158 0.57068 0.0
H2157 H 0.17785 0.84664 0.58996 0.0
H2158 H 0.17122 0.8251 0.59135 0.0
H2159 H 0.17773 0.83522 0.57158 0.0
H2160 H 0.22268 0.88363 0.47235 0.0
H2161 H 0.23848 0.84598 0.4764 0.0
H2162 H 0.2009 0.85861 0.477 0.0
H2163 H 0.22095 0.81534 0.50768 0.0
H2164 H 0.23548 0.82298 0.49063 0.0
H2165 H 0.21446 0.80562 0.48719 0.0
H2166 H 0.17452 0.84149 0.4886 0.0
H2167 H 0.17654 0.83282 0.50795 0.0
H2168 H 0.16762 0.81984 0.48949 0.0
H2169 H 0.11526 0.7075 0.47913 0.0
H2170 H 0.10783 0.68091 0.46567 0.0
H2171 H 0.12836 0.6907 0.47532 0.0
H2172 H 0.12613 0.6912 0.45274 0.0
H2173 H 0.16873 0.73728 0.47739 0.0
H2174 H 0.12252 0.73608 0.47841 0.0
H2175 H 0.19058 0.76981 0.50907 0.0
H2176 H 0.19549 0.77621 0.48766 0.0
H2177 H 0.19245 0.75669 0.49381 0.0
H2178 H 0.12052 0.75771 0.49035 0.0
H2179 H 0.13981 0.77764 0.49138 0.0
H2180 H 0.1327 0.76526 0.50977 0.0
H2181 H 0.1824 0.80147 0.59854 0.0
H2182 H 0.20913 0.84 0.55411 0.0
H2183 H 0.20798 0.83827 0.52403 0.0
H2184 H 0.17925 0.79443 0.48257 0.0
H2185 H 0.1511 0.75586 0.52691 0.0
H2186 H 0.15132 0.75785 0.55712 0.0
H2187 H 0.26803 0.91341 0.47037 0.0
H2188 H 0.23625 0.89824 0.44932 0.0
H2189 H 0.24481 0.88718 0.44534 0.0
C2190 C 0.14622 0.3901 0.63968 0.0
C2191 C 0.1343 0.38482 0.62425 0.0
C2192 C 0.15049 0.38008 0.60307 0.0
C2193 C 0.16331 0.39667 0.60114 0.0
C2194 C 0.17728 0.40071 0.5914 0.0
C2195 C 0.1783 0.38793 0.58332 0.0
C2196 C 0.16508 0.3713 0.58472 0.0
C2197 C 0.15136 0.36763 0.59458 0.0
C2198 C 0.19108 0.41857 0.58992 0.0
C2199 C 0.1656 0.35737 0.57607 0.0
C2200 C 0.2692 0.39726 0.64966 0.0
C2201 C 0.26153 0.38376 0.63586 0.0
C2202 C 0.25578 0.39154 0.60882 0.0
C2203 C 0.24126 0.37701 0.60314 0.0
C2204 C 0.23 0.37762 0.59179 0.0
C2205 C 0.23323 0.39315 0.58629 0.0
C2206 C 0.24808 0.40782 0.59182 0.0
C2207 C 0.25936 0.40677 0.60278 0.0
C2208 C 0.21447 0.36167 0.586 0.0
C2209 C 0.2518 0.42462 0.58657 0.0
C2210 C 0.27086 0.4106 0.482 0.0
C2211 C 0.25704 0.3944 0.48337 0.0
C2212 C 0.24208 0.39149 0.49027 0.0
C2213 C 0.24093 0.40505 0.49582 0.0
C2214 C 0.25453 0.42137 0.49364 0.0
C2215 C 0.26929 0.42392 0.48663 0.0
C2216 C 0.22762 0.37395 0.49202 0.0
C2217 C 0.25362 0.4361 0.49917 0.0
C2218 C 0.13476 0.41008 0.47396 0.0
C2219 C 0.1394 0.40247 0.45955 0.0
C2220 C 0.15693 0.39369 0.47403 0.0
C2221 C 0.15717 0.37984 0.47922 0.0
C2222 C 0.17085 0.38144 0.48838 0.0
C2223 C 0.18459 0.3974 0.49266 0.0
C2224 C 0.18464 0.41154 0.48717 0.0
C2225 C 0.17085 0.40956 0.47778 0.0
C2226 C 0.17049 0.36606 0.49369 0.0
C2227 C 0.19914 0.42872 0.49148 0.0
C2228 C 0.19355 0.39176 0.57419 0.0
C2229 C 0.20642 0.39194 0.58344 0.0
C2230 C 0.22059 0.39402 0.57559 0.0
C2231 C 0.22211 0.39619 0.55796 0.0
C2232 C 0.23607 0.39811 0.54957 0.0
C2233 C 0.23746 0.40028 0.53223 0.0
C2234 C 0.22477 0.40026 0.52253 0.0
C2235 C 0.22595 0.40219 0.50485 0.0
C2236 C 0.21285 0.40152 0.49551 0.0
C2237 C 0.19858 0.39918 0.5034 0.0
C2238 C 0.19741 0.39776 0.52114 0.0
C2239 C 0.18342 0.39582 0.52953 0.0
C2240 C 0.18218 0.39398 0.54692 0.0
C2241 C 0.19488 0.39403 0.55659 0.0
C2242 C 0.20921 0.39623 0.54844 0.0
C2243 C 0.21049 0.39815 0.5307 0.0
C2244 C 0.31022 0.41375 0.48414 0.0
C2245 C 0.29225 0.40371 0.4771 0.0
O2246 O 0.13717 0.37535 0.61304 0.0
O2247 O 0.14293 0.39101 0.4657 0.0
O2248 O 0.28585 0.41392 0.47628 0.0
O2249 O 0.26638 0.39111 0.62029 0.0
H2250 H 0.13607 0.39597 0.61784 0.0
H2251 H 0.15942 0.39821 0.63599 0.0
H2252 H 0.14497 0.37911 0.64594 0.0
H2253 H 0.14339 0.39712 0.6489 0.0
H2254 H 0.16261 0.40648 0.6073 0.0
H2255 H 0.1413 0.3549 0.59599 0.0
H2256 H 0.20284 0.42045 0.59567 0.0
H2257 H 0.18807 0.42714 0.59625 0.0
H2258 H 0.19343 0.42178 0.57642 0.0
H2259 H 0.15413 0.34513 0.57815 0.0
H2260 H 0.17661 0.35709 0.58085 0.0
H2261 H 0.16704 0.35948 0.56231 0.0
H2262 H 0.24766 0.37717 0.63694 0.0
H2263 H 0.26526 0.39176 0.66229 0.0
H2264 H 0.2649 0.40602 0.64778 0.0
H2265 H 0.28309 0.40426 0.64926 0.0
H2266 H 0.23875 0.36522 0.60766 0.0
H2267 H 0.27072 0.4179 0.60722 0.0
H2268 H 0.21218 0.36178 0.57223 0.0
H2269 H 0.20352 0.36035 0.59259 0.0
H2270 H 0.21536 0.35073 0.5888 0.0
H2271 H 0.26303 0.43484 0.59329 0.0
H2272 H 0.24093 0.42588 0.58908 0.0
H2273 H 0.25396 0.42596 0.57282 0.0
H2274 H 0.28512 0.39353 0.48606 0.0
H2275 H 0.25789 0.38402 0.47909 0.0
H2276 H 0.27991 0.43637 0.48522 0.0
H2277 H 0.22514 0.37116 0.50559 0.0
H2278 H 0.2301 0.3648 0.48617 0.0
H2279 H 0.21613 0.37249 0.48606 0.0
H2280 H 0.26509 0.44802 0.49612 0.0
H2281 H 0.25184 0.43578 0.51299 0.0
H2282 H 0.24265 0.43554 0.49295 0.0
H2283 H 0.15047 0.4124 0.45301 0.0
H2284 H 0.13154 0.41895 0.4689 0.0
H2285 H 0.1454 0.4169 0.48309 0.0
H2286 H 0.12389 0.40031 0.48083 0.0
H2287 H 0.14644 0.36766 0.47616 0.0
H2288 H 0.17099 0.42043 0.47364 0.0
H2289 H 0.16954 0.36505 0.50761 0.0
H2290 H 0.18228 0.36684 0.49022 0.0
H2291 H 0.15975 0.35465 0.48784 0.0
H2292 H 0.19705 0.43848 0.48679 0.0
H2293 H 0.21072 0.43048 0.48591 0.0
H2294 H 0.20123 0.43027 0.50537 0.0
H2295 H 0.20521 0.39003 0.59694 0.0
H2296 H 0.24611 0.398 0.55634 0.0
H2297 H 0.24855 0.4018 0.52651 0.0
H2298 H 0.2137 0.40269 0.48192 0.0
H2299 H 0.17325 0.39566 0.52274 0.0
H2300 H 0.17111 0.39247 0.55269 0.0
H2301 H 0.31564 0.40584 0.48507 0.0
H2302 H 0.31036 0.41864 0.49696 0.0
H2303 H 0.31816 0.42436 0.47594 0.0
H2304 H 0.01524 0.37481 0.06153 0.0
H2305 H 0.9829 0.40222 0.14063 0.0
H2306 H 0.96306 0.35174 0.07344 0.0
H2307 H 0.03135 0.43348 0.11913 0.0
H2308 H 0.97651 0.38108 0.11891 0.0
H2309 H 0.02252 0.39363 0.08584 0.0
C2310 C 0.00534 0.37352 0.0694 0.0
C2311 C 0.9885 0.36176 0.06538 0.0
C2312 C 0.98857 0.39253 0.119 0.0
C2313 C 0.99674 0.38329 0.09312 0.0
C2314 C 0.99221 0.40459 0.13137 0.0
C2315 C 0.00769 0.41959 0.13169 0.0
C2316 C 0.00052 0.39546 0.10692 0.0
C2317 C 0.01931 0.42204 0.11938 0.0
C2318 C 0.00949 0.38435 0.08319 0.0
C2319 C 0.97619 0.36072 0.07599 0.0
N2320 N 0.0155 0.41009 0.10751 0.0
N2321 N 0.98055 0.37138 0.08934 0.0
H2322 H 0.64825 0.59781 0.05773 0.0
H2323 H 0.58941 0.58613 0.13401 0.0
H2324 H 0.63168 0.63156 0.068 0.0
H2325 H 0.61931 0.56392 0.13239 0.0
H2326 H 0.60346 0.60189 0.10901 0.0
H2327 H 0.63652 0.58422 0.08429 0.0
C2328 C 0.6422 0.60241 0.06561 0.0
C2329 C 0.64088 0.61581 0.06061 0.0
C2330 C 0.60706 0.59369 0.11424 0.0
C2331 C 0.62729 0.6002 0.09096 0.0
C2332 C 0.59907 0.58473 0.12851 0.0
C2333 C 0.60339 0.57389 0.13544 0.0
C2334 C 0.6192 0.59156 0.10663 0.0
C2335 C 0.61572 0.57225 0.12755 0.0
C2336 C 0.63555 0.59467 0.08079 0.0
C2337 C 0.63299 0.62129 0.07138 0.0
N2338 N 0.62313 0.58093 0.11353 0.0
N2339 N 0.62634 0.61336 0.08598 0.0
H2340 H 0.37363 0.97851 0.04828 0.0
H2341 H 0.41255 0.00237 0.12658 0.0
H2342 H 0.38353 0.0282 0.0453 0.0
H2343 H 0.44211 0.05083 0.10552 0.0
H2344 H 0.39366 0.99349 0.10197 0.0
H2345 H 0.39135 0.98659 0.07353 0.0
C2346 C 0.37945 0.99113 0.05298 0.0
C2347 C 0.37693 0.00266 0.04469 0.0
C2348 C 0.40444 0.00598 0.10255 0.0
C2349 C 0.39704 0.01191 0.07401 0.0
C2350 C 0.41517 0.01108 0.11664 0.0
C2351 C 0.42924 0.0272 0.1178 0.0
C2352 C 0.40769 0.01711 0.08953 0.0
C2353 C 0.43165 0.03817 0.10487 0.0
C2354 C 0.38944 0.99568 0.06756 0.0
C2355 C 0.38501 0.01888 0.05135 0.0
N2356 N 0.421 0.03291 0.09121 0.0
N2357 N 0.39479 0.02306 0.06563 0.0
H2358 H 0.36837 0.96952 0.95804 0.0
H2359 H 0.4282 0.04017 0.89481 0.0
H2360 H 0.37077 0.01594 0.95363 0.0
H2361 H 0.43223 0.998 0.90624 0.0
H2362 H 0.40463 0.0297 0.9133 0.0
H2363 H 0.38871 0.97783 0.93574 0.0
C2364 C 0.37296 0.98136 0.95222 0.0
C2365 C 0.36797 0.99213 0.95786 0.0
C2366 C 0.41071 0.02277 0.91179 0.0
C2367 C 0.3914 0.00177 0.93242 0.0
C2368 C 0.42434 0.02878 0.90121 0.0
C2369 C 0.43271 0.02019 0.89918 0.0
C2370 C 0.40518 0.00797 0.92029 0.0
C2371 C 0.42646 0.00523 0.90764 0.0
C2372 C 0.38467 0.98613 0.93955 0.0
C2373 C 0.37436 0.0073 0.9498 0.0
N2374 N 0.41317 0.99965 0.91787 0.0
N2375 N 0.38584 0.01172 0.93757 0.0
H2376 H 0.96396 0.36581 0.97937 0.0
H2377 H 0.97744 0.40776 0.90496 0.0
H2378 H 0.01365 0.37464 0.97383 0.0
H2379 H 0.02992 0.43137 0.91811 0.0
H2380 H 0.97095 0.38877 0.92807 0.0
H2381 H 0.96857 0.38374 0.95592 0.0
C2382 C 0.97581 0.37137 0.97309 0.0
C2383 C 0.98838 0.36855 0.97853 0.0
C2384 C 0.98387 0.39833 0.92623 0.0
C2385 C 0.99361 0.38891 0.95112 0.0
C2386 C 0.98757 0.40912 0.91295 0.0
C2387 C 0.0042 0.4215 0.90997 0.0
C2388 C 0.9969 0.39986 0.93663 0.0
C2389 C 0.0169 0.42228 0.92029 0.0
C2390 C 0.97837 0.38153 0.95951 0.0
C2391 C 0.00356 0.37636 0.97 0.0
N2392 N 0.01299 0.41163 0.93319 0.0
N2393 N 0.00577 0.38624 0.95673 0.0
H2394 H 0.61369 0.64512 0.98721 0.0
H2395 H 0.56937 0.59346 0.90198 0.0
H2396 H 0.62341 0.60952 0.96476 0.0
H2397 H 0.54996 0.61854 0.93013 0.0
H2398 H 0.59138 0.60199 0.92354 0.0
H2399 H 0.59219 0.63812 0.96512 0.0
C2400 C 0.61135 0.63589 0.97764 0.0
C2401 C 0.62033 0.62786 0.97788 0.0
C2402 C 0.58226 0.60557 0.92509 0.0
C2403 C 0.59592 0.6199 0.95262 0.0
C2404 C 0.56968 0.60066 0.9128 0.0
C2405 C 0.55754 0.6049 0.91453 0.0
C2406 C 0.58295 0.61504 0.93913 0.0
C2407 C 0.55887 0.61471 0.92854 0.0
C2408 C 0.59907 0.63188 0.96508 0.0
C2409 C 0.61677 0.61598 0.96517 0.0
N2410 N 0.57132 0.61942 0.94036 0.0
N2411 N 0.6049 0.61241 0.95308 0.0
H2412 H 0.05201 0.64782 0.98027 0.0
H2413 H 0.99627 0.59741 0.89866 0.0
H2414 H 0.00404 0.64144 0.96767 0.0
H2415 H 0.04471 0.60462 0.91017 0.0
H2416 H 0.9994 0.61437 0.92347 0.0
H2417 H 0.05022 0.63307 0.95412 0.0
C2418 C 0.04116 0.64344 0.97196 0.0
C2419 C 0.02812 0.6458 0.97624 0.0
C2420 C 0.00934 0.61223 0.92062 0.0
C2421 C 0.02593 0.62882 0.94633 0.0
C2422 C 0.00752 0.6025 0.9065 0.0
C2423 C 0.02007 0.59931 0.90259 0.0
C2424 C 0.0239 0.61893 0.93088 0.0
C2425 C 0.03459 0.60651 0.91295 0.0
C2426 C 0.04013 0.63498 0.95704 0.0
C2427 C 0.01437 0.63986 0.96495 0.0
N2428 N 0.03606 0.6159 0.92667 0.0
N2429 N 0.01361 0.63158 0.95059 0.0
H2430 H 0.36138 0.42451 0.99178 0.0
H2431 H 0.38203 0.42639 0.89395 0.0
H2432 H 0.36567 0.38653 0.96647 0.0
H2433 H 0.37484 0.46278 0.91851 0.0
H2434 H 0.37796 0.4126 0.92089 0.0
H2435 H 0.36805 0.43963 0.96551 0.0
C2436 C 0.36375 0.41935 0.98072 0.0
C2437 C 0.36289 0.40417 0.98134 0.0
C2438 C 0.37742 0.42368 0.92044 0.0
C2439 C 0.37056 0.42147 0.95119 0.0
C2440 C 0.37981 0.43158 0.90509 0.0
C2441 C 0.37899 0.44585 0.90408 0.0
C2442 C 0.37404 0.43003 0.93487 0.0
C2443 C 0.37579 0.45193 0.91881 0.0
C2444 C 0.36757 0.42801 0.96571 0.0
C2445 C 0.36613 0.39814 0.96659 0.0
N2446 N 0.37341 0.44397 0.93359 0.0
N2447 N 0.36979 0.40679 0.95213 0.0
H2448 H 0.63478 0.02583 0.95295 0.0
H2449 H 0.5532 0.94487 0.91596 0.0
H2450 H 0.61469 0.97836 0.97609 0.0
H2451 H 0.58606 0.98624 0.88532 0.0
H2452 H 0.57311 0.95798 0.93985 0.0
H2453 H 0.61445 0.01248 0.92968 0.0
C2454 C 0.62606 0.01259 0.95316 0.0
C2455 C 0.62644 0.00318 0.96649 0.0
C2456 C 0.57593 0.96415 0.92788 0.0
C2457 C 0.60304 0.98787 0.93991 0.0
C2458 C 0.5646 0.95671 0.91429 0.0
C2459 C 0.56808 0.96443 0.89861 0.0
C2460 C 0.59068 0.97955 0.92585 0.0
C2461 C 0.58292 0.97985 0.89716 0.0
C2462 C 0.61451 0.00498 0.93984 0.0
C2463 C 0.61487 0.98606 0.96603 0.0
N2464 N 0.59365 0.98693 0.91061 0.0
N2465 N 0.60355 0.97894 0.95299 0.0
H2466 H 0.63812 0.00701 0.05927 0.0
H2467 H 0.60956 0.05592 0.11863 0.0
H2468 H 0.64691 0.05525 0.048 0.0
H2469 H 0.59605 0.00561 0.12655 0.0
H2470 H 0.62516 0.05678 0.09386 0.0
H2471 H 0.62471 0.00724 0.08523 0.0
C2472 C 0.63733 0.01771 0.06229 0.0
C2473 C 0.64358 0.0311 0.05136 0.0
C2474 C 0.61874 0.04553 0.10097 0.0
C2475 C 0.62815 0.0314 0.0811 0.0
C2476 C 0.6098 0.04502 0.11505 0.0
C2477 C 0.60119 0.03053 0.12439 0.0
C2478 C 0.61925 0.03152 0.0963 0.0
C2479 C 0.60226 0.01691 0.1195 0.0
C2480 C 0.62962 0.01781 0.07711 0.0
C2481 C 0.64222 0.04463 0.056 0.0
N2482 N 0.61106 0.01771 0.10575 0.0
N2483 N 0.6346 0.04441 0.07049 0.0
H2484 H 0.02591 0.63861 0.07374 0.0
H2485 H 0.94571 0.55425 0.10224 0.0
H2486 H 0.97749 0.61789 0.04898 0.0
H2487 H 0.98865 0.58439 0.13502 0.0
H2488 H 0.95812 0.57565 0.08086 0.0
H2489 H 0.01332 0.61713 0.09479 0.0
C2490 C 0.01261 0.62955 0.07274 0.0
C2491 C 0.00274 0.63006 0.05957 0.0
C2492 C 0.9648 0.57757 0.09274 0.0
C2493 C 0.98828 0.60531 0.08357 0.0
C2494 C 0.95775 0.56536 0.1049 0.0
C2495 C 0.9661 0.56764 0.12048 0.0
C2496 C 0.98042 0.59202 0.09608 0.0
C2497 C 0.98176 0.58218 0.12323 0.0
C2498 C 0.00544 0.61731 0.08479 0.0
C2499 C 0.98556 0.61801 0.05896 0.0
N2500 N 0.98842 0.5938 0.11115 0.0
N2501 N 0.97888 0.60604 0.07074 0.0
H2502 H 0.38353 0.39564 0.07655 0.0
H2503 H 0.46102 0.38469 0.09318 0.0
H2504 H 0.39652 0.36954 0.04127 0.0
H2505 H 0.43406 0.39077 0.1332 0.0
H2506 H 0.44037 0.38321 0.07268 0.0
H2507 H 0.40503 0.39813 0.09623 0.0
C2508 C 0.39095 0.39049 0.07289 0.0
C2509 C 0.38819 0.38233 0.05724 0.0
C2510 C 0.43902 0.38487 0.08595 0.0
C2511 C 0.41291 0.38526 0.0797 0.0
C2512 C 0.45077 0.38574 0.09762 0.0
C2513 C 0.44915 0.38773 0.11491 0.0
C2514 C 0.42575 0.38631 0.0916 0.0
C2515 C 0.43575 0.38918 0.12 0.0
C2516 C 0.40317 0.39187 0.08417 0.0
C2517 C 0.39817 0.37585 0.05324 0.0
N2518 N 0.42459 0.3885 0.1084 0.0
N2519 N 0.41016 0.37752 0.06438 0.0
H2520 H 0.60514 0.68511 0.37341 0.0
H2521 H 0.63888 0.73829 0.45923 0.0
H2522 H 0.65513 0.70411 0.39346 0.0
H2523 H 0.58697 0.71103 0.44301 0.0
H2524 H 0.6454 0.72618 0.43536 0.0
H2525 H 0.59844 0.69456 0.399 0.0
C2526 C 0.6147 0.69119 0.38327 0.0
C2527 C 0.63076 0.69391 0.38125 0.0
C2528 C 0.63258 0.72282 0.43706 0.0
C2529 C 0.62319 0.70495 0.41062 0.0
C2530 C 0.62888 0.72977 0.45061 0.0
C2531 C 0.6124 0.72584 0.45293 0.0
C2532 C 0.61972 0.7119 0.42573 0.0
C2533 C 0.59987 0.71458 0.44156 0.0
C2534 C 0.61085 0.69658 0.39791 0.0
C2535 C 0.64259 0.70175 0.39451 0.0
N2536 N 0.6038 0.7081 0.42841 0.0
N2537 N 0.63862 0.70716 0.40858 0.0
H2538 H 0.29068 0.91917 0.39345 0.0
H2539 H 0.23944 0.91576 0.48303 0.0
H2540 H 0.28278 0.95836 0.40815 0.0
H2541 H 0.26575 0.88093 0.47075 0.0
H2542 H 0.25718 0.93456 0.45403 0.0
H2543 H 0.28171 0.90712 0.42115 0.0
C2544 C 0.28712 0.92529 0.40254 0.0
C2545 C 0.28739 0.93975 0.39847 0.0
C2546 C 0.2585 0.92451 0.45823 0.0
C2547 C 0.27703 0.92594 0.43011 0.0
C2548 C 0.24831 0.91369 0.47671 0.0
C2549 C 0.24847 0.89428 0.47867 0.0
C2550 C 0.27017 0.91808 0.44627 0.0
C2551 C 0.26473 0.89162 0.46877 0.0
C2552 C 0.2821 0.91844 0.41838 0.0
C2553 C 0.28277 0.9472 0.41079 0.0
N2554 N 0.27273 0.90314 0.45241 0.0
N2555 N 0.27753 0.94007 0.42605 0.0
H2556 H 0.06828 0.37444 0.37469 0.0
H2557 H 0.11073 0.37186 0.46198 0.0
H2558 H 0.05334 0.32994 0.40206 0.0
H2559 H 0.13462 0.41356 0.42915 0.0
H2560 H 0.0875 0.35759 0.44158 0.0
H2561 H 0.09074 0.39022 0.39591 0.0
C2562 C 0.06965 0.36802 0.38518 0.0
C2563 C 0.05896 0.35083 0.38656 0.0
C2564 C 0.09783 0.36984 0.43877 0.0
C2565 C 0.08446 0.36876 0.41082 0.0
C2566 C 0.11111 0.37796 0.4504 0.0
C2567 C 0.12483 0.39373 0.44703 0.0
C2568 C 0.09809 0.37758 0.4237 0.0
C2569 C 0.12443 0.40127 0.43204 0.0
C2570 C 0.08249 0.37701 0.39723 0.0
C2571 C 0.06133 0.34313 0.40039 0.0
N2572 N 0.1113 0.39309 0.42087 0.0
N2573 N 0.07378 0.35214 0.41195 0.0
H2574 H 0.04489 0.33623 0.2946 0.0
H2575 H 0.04866 0.2677 0.23882 0.0
H2576 H 0.02808 0.2869 0.3112 0.0
H2577 H 0.07722 0.31958 0.22748 0.0
H2578 H 0.03817 0.27415 0.26381 0.0
H2579 H 0.05405 0.32997 0.26828 0.0
C2580 C 0.04304 0.32408 0.29268 0.0
C2581 C 0.03578 0.3121 0.30515 0.0
C2582 C 0.04674 0.28415 0.25588 0.0
C2583 C 0.04613 0.30487 0.27515 0.0
C2584 C 0.05273 0.28047 0.24162 0.0
C2585 C 0.06397 0.29315 0.23118 0.0
C2586 C 0.05188 0.30063 0.2597 0.0
C2587 C 0.06867 0.30947 0.2353 0.0
C2588 C 0.04833 0.32055 0.2777 0.0
C2589 C 0.03372 0.29656 0.30201 0.0
N2590 N 0.06261 0.31276 0.24927 0.0
N2591 N 0.03885 0.29341 0.28734 0.0
H2592 H 0.66006 0.73189 0.30234 0.0
H2593 H 0.74558 0.77689 0.25328 0.0
H2594 H 0.69839 0.72041 0.31031 0.0
H2595 H 0.71175 0.79474 0.2554 0.0
H2596 H 0.72891 0.75629 0.27398 0.0
H2597 H 0.67899 0.7548 0.2848 0.0
C2598 C 0.6725 0.73421 0.30042 0.0
C2599 C 0.67761 0.72414 0.30773 0.0
C2600 C 0.72516 0.76473 0.26988 0.0
C2601 C 0.69942 0.75042 0.28751 0.0
C2602 C 0.73464 0.77652 0.2579 0.0
C2603 C 0.72967 0.78722 0.25181 0.0
C2604 C 0.7107 0.76367 0.27598 0.0
C2605 C 0.71572 0.78638 0.25913 0.0
C2606 C 0.68335 0.74736 0.29044 0.0
C2607 C 0.69394 0.72786 0.30491 0.0
N2608 N 0.70663 0.77469 0.27059 0.0
N2609 N 0.70424 0.74063 0.29487 0.0
H2610 H 0.27927 0.98556 0.31457 0.0
H2611 H 0.19237 0.93084 0.26352 0.0
H2612 H 0.24582 0.93321 0.3214 0.0
H2613 H 0.23477 0.97451 0.24322 0.0
H2614 H 0.20918 0.93459 0.28899 0.0
H2615 H 0.2601 0.98459 0.29245 0.0
C2616 C 0.26777 0.97395 0.31162 0.0
C2617 C 0.26416 0.95941 0.31968 0.0
C2618 C 0.21467 0.94345 0.27901 0.0
C2619 C 0.24228 0.95826 0.29465 0.0
C2620 C 0.20509 0.94136 0.26452 0.0
C2621 C 0.21196 0.95241 0.2512 0.0
C2622 C 0.23131 0.95673 0.28026 0.0
C2623 C 0.22868 0.9657 0.25308 0.0
C2624 C 0.25693 0.97339 0.29896 0.0
C2625 C 0.24915 0.94466 0.31535 0.0
N2626 N 0.23775 0.96748 0.26735 0.0
N2627 N 0.23877 0.94446 0.30312 0.0
H2628 H 0.6825 0.96163 0.30723 0.0
H2629 H 0.7532 0.95385 0.26089 0.0
H2630 H 0.72695 0.9689 0.33269 0.0
H2631 H 0.70741 0.9438 0.23632 0.0
H2632 H 0.74344 0.95855 0.28756 0.0
H2633 H 0.69108 0.95435 0.28135 0.0
C2634 C 0.69405 0.96166 0.30741 0.0
C2635 C 0.70404 0.96594 0.32218 0.0
C2636 C 0.73543 0.95514 0.27638 0.0
C2637 C 0.71396 0.95762 0.29251 0.0
C2638 C 0.74097 0.95238 0.2612 0.0
C2639 C 0.73096 0.94816 0.24646 0.0
C2640 C 0.71985 0.95388 0.2768 0.0
C2641 C 0.71539 0.94681 0.24745 0.0
C2642 C 0.69893 0.95748 0.29261 0.0
C2643 C 0.71886 0.96572 0.32161 0.0
N2644 N 0.71034 0.94969 0.26234 0.0
N2645 N 0.72339 0.96169 0.30701 0.0
H2646 H 0.04233 0.72272 0.2937 0.0
H2647 H 0.05012 0.8011 0.24823 0.0
H2648 H 0.04237 0.76271 0.32003 0.0
H2649 H 0.05632 0.76467 0.22229 0.0
H2650 H 0.04773 0.78731 0.27476 0.0
H2651 H 0.04785 0.73789 0.26746 0.0
C2652 C 0.04357 0.7347 0.294 0.0
C2653 C 0.04182 0.7414 0.30911 0.0
C2654 C 0.04981 0.78241 0.26332 0.0
C2655 C 0.04807 0.7588 0.27912 0.0
C2656 C 0.05126 0.79035 0.24819 0.0
C2657 C 0.05376 0.7842 0.2331 0.0
C2658 C 0.05057 0.76804 0.26337 0.0
C2659 C 0.05467 0.76994 0.2337 0.0
C2660 C 0.04673 0.74337 0.27901 0.0
C2661 C 0.04357 0.75701 0.30871 0.0
N2662 N 0.05302 0.76231 0.24857 0.0
N2663 N 0.04652 0.76511 0.29397 0.0
H2664 H 0.27985 0.34266 0.28455 0.0
H2665 H 0.20328 0.25294 0.25829 0.0
H2666 H 0.26571 0.30024 0.31526 0.0
H2667 H 0.2326 0.29047 0.22233 0.0
H2668 H 0.2227 0.27103 0.28092 0.0
H2669 H 0.25903 0.32455 0.26324 0.0
C2670 C 0.27229 0.32953 0.28689 0.0
C2671 C 0.27458 0.32296 0.30173 0.0
C2672 C 0.22483 0.27526 0.26806 0.0
C2673 C 0.25061 0.30216 0.27731 0.0
C2674 C 0.21377 0.26499 0.25518 0.0
C2675 C 0.21645 0.27016 0.23839 0.0
C2676 C 0.23842 0.29093 0.26415 0.0
C2677 C 0.23011 0.28597 0.23507 0.0
C2678 C 0.26045 0.31921 0.27466 0.0
C2679 C 0.26441 0.30582 0.30397 0.0
N2680 N 0.24055 0.2958 0.24783 0.0
N2681 N 0.25281 0.29599 0.2919 0.0
H2682 H 0.30576 0.39219 0.37103 0.0
H2683 H 0.28597 0.37283 0.46878 0.0
H2684 H 0.29873 0.34819 0.39431 0.0
H2685 H 0.29881 0.41905 0.44639 0.0
H2686 H 0.28809 0.36246 0.44111 0.0
H2687 H 0.30083 0.40112 0.39805 0.0
C2688 C 0.30313 0.38436 0.3818 0.0
C2689 C 0.30274 0.36943 0.38037 0.0
C2690 C 0.29028 0.37482 0.44222 0.0
C2691 C 0.29704 0.37963 0.41145 0.0
C2692 C 0.28899 0.38069 0.45797 0.0
C2693 C 0.29194 0.3967 0.4598 0.0
C2694 C 0.29469 0.38509 0.42821 0.0
C2695 C 0.29616 0.40653 0.44547 0.0
C2696 C 0.30032 0.38949 0.39726 0.0
C2697 C 0.29923 0.35982 0.39481 0.0
N2698 N 0.29741 0.40057 0.43029 0.0
N2699 N 0.29655 0.3651 0.40975 0.0
H2700 H 0.67812 0.951 0.41789 0.0
H2701 H 0.58639 0.87516 0.4369 0.0
H2702 H 0.63606 0.93462 0.38334 0.0
H2703 H 0.624 0.90286 0.47571 0.0
H2704 H 0.60549 0.89417 0.41586 0.0
H2705 H 0.65943 0.93068 0.43806 0.0
C2706 C 0.66497 0.94309 0.4145 0.0
C2707 C 0.65864 0.94457 0.39891 0.0
C2708 C 0.60955 0.89604 0.42898 0.0
C2709 C 0.6372 0.9212 0.42193 0.0
C2710 C 0.5987 0.8852 0.44095 0.0
C2711 C 0.60363 0.8875 0.45805 0.0
C2712 C 0.6255 0.90914 0.43414 0.0
C2713 C 0.61972 0.90066 0.46265 0.0
C2714 C 0.6543 0.93153 0.42605 0.0
C2715 C 0.64146 0.93398 0.39525 0.0
N2716 N 0.63009 0.91096 0.45077 0.0
N2717 N 0.63134 0.92271 0.40666 0.0
H2718 H 0.08017 0.74267 0.39028 0.0
H2719 H 0.08775 0.68888 0.45985 0.0
H2720 H 0.05113 0.6894 0.38613 0.0
H2721 H 0.13259 0.73144 0.44145 0.0
H2722 H 0.07182 0.69086 0.43624 0.0
H2723 H 0.09774 0.74083 0.4124 0.0
C2724 C 0.07757 0.73062 0.39396 0.0
C2725 C 0.06424 0.71615 0.38638 0.0
C2726 C 0.08516 0.69971 0.43742 0.0
C2727 C 0.08387 0.71402 0.4118 0.0
C2728 C 0.09425 0.69861 0.45086 0.0
C2729 C 0.11158 0.70985 0.4526 0.0
C2730 C 0.09333 0.71245 0.4259 0.0
C2731 C 0.11929 0.72243 0.44069 0.0
C2732 C 0.08759 0.7296 0.4065 0.0
C2733 C 0.06137 0.70084 0.39159 0.0
N2734 N 0.11007 0.72348 0.42791 0.0
N2735 N 0.07095 0.70016 0.40418 0.0
H2736 H 0.32106 0.03828 0.72361 0.0
H2737 H 0.2482 0.04357 0.76854 0.0
H2738 H 0.27321 0.02301 0.69993 0.0
H2739 H 0.29845 0.06659 0.78932 0.0
H2740 H 0.25646 0.0334 0.74451 0.0
H2741 H 0.3123 0.04625 0.74906 0.0
C2742 C 0.30869 0.03651 0.72379 0.0
C2743 C 0.29789 0.03005 0.70958 0.0
C2744 C 0.2657 0.04068 0.75431 0.0
C2745 C 0.28781 0.0391 0.7386 0.0
C2746 C 0.26098 0.04648 0.76801 0.0
C2747 C 0.27272 0.05613 0.78079 0.0
C2748 C 0.28227 0.04444 0.75342 0.0
C2749 C 0.28907 0.05934 0.77962 0.0
C2750 C 0.30373 0.0411 0.73829 0.0
C2751 C 0.28201 0.02804 0.71052 0.0
N2752 N 0.29339 0.05356 0.76613 0.0
N2753 N 0.27748 0.03256 0.72476 0.0
H2754 H 0.94948 0.271 0.71578 0.0
H2755 H 0.96579 0.2097 0.78301 0.0
H2756 H 0.99076 0.26351 0.71164 0.0
H2757 H 0.90786 0.19897 0.76466 0.0
H2758 H 0.97918 0.23634 0.75937 0.0
H2759 H 0.93856 0.25105 0.73881 0.0
C2760 C 0.95643 0.26546 0.72002 0.0
C2761 C 0.97097 0.26877 0.71188 0.0
C2762 C 0.96584 0.22871 0.76111 0.0
C2763 C 0.95877 0.24636 0.73799 0.0
C2764 C 0.95773 0.21163 0.77474 0.0
C2765 C 0.93515 0.20275 0.77854 0.0
C2766 C 0.95183 0.2331 0.75027 0.0
C2767 C 0.92124 0.20498 0.76323 0.0
C2768 C 0.95014 0.25405 0.73299 0.0
C2769 C 0.97945 0.26118 0.71762 0.0
N2770 N 0.93149 0.22121 0.75165 0.0
N2771 N 0.97324 0.25032 0.73039 0.0
H2772 H 0.72404 0.71061 0.71398 0.0
H2773 H 0.80568 0.7265 0.76493 0.0
H2774 H 0.73953 0.67525 0.71702 0.0
H2775 H 0.78159 0.75368 0.77559 0.0
H2776 H 0.78442 0.71081 0.74294 0.0
H2777 H 0.74798 0.72961 0.73255 0.0
C2778 C 0.73254 0.70692 0.71841 0.0
C2779 C 0.72971 0.69128 0.7141 0.0
C2780 C 0.78383 0.72023 0.75012 0.0
C2781 C 0.75705 0.71288 0.73508 0.0
C2782 C 0.79595 0.72919 0.76267 0.0
C2783 C 0.79529 0.74112 0.77262 0.0
C2784 C 0.77098 0.72335 0.74719 0.0
C2785 C 0.78259 0.74439 0.76874 0.0
C2786 C 0.74613 0.71771 0.72903 0.0
C2787 C 0.74111 0.6871 0.72019 0.0
N2788 N 0.77089 0.73545 0.75642 0.0
N2789 N 0.75424 0.69782 0.73034 0.0
H2790 H 0.68972 0.617 0.64788 0.0
H2791 H 0.73211 0.64642 0.55862 0.0
H2792 H 0.70373 0.66449 0.62776 0.0
H2793 H 0.70684 0.59583 0.57457 0.0
H2794 H 0.72246 0.65373 0.58389 0.0
H2795 H 0.69655 0.60939 0.62118 0.0
C2796 C 0.69419 0.62583 0.63781 0.0
C2797 C 0.69624 0.64145 0.64009 0.0
C2798 C 0.71894 0.64102 0.58179 0.0
C2799 C 0.70421 0.63282 0.60943 0.0
C2800 C 0.72446 0.63686 0.56741 0.0
C2801 C 0.72036 0.62052 0.56459 0.0
C2802 C 0.70938 0.62877 0.59346 0.0
C2803 C 0.71039 0.60859 0.57633 0.0
C2804 C 0.69805 0.62145 0.62253 0.0
C2805 C 0.70197 0.65232 0.62654 0.0
N2806 N 0.70535 0.61297 0.5903 0.0
N2807 N 0.7059 0.64785 0.61181 0.0
H2808 H 0.36674 0.06026 0.64134 0.0
H2809 H 0.3675 0.13962 0.5885 0.0
H2810 H 0.32308 0.06207 0.62752 0.0
H2811 H 0.41588 0.12878 0.58796 0.0
H2812 H 0.35046 0.11072 0.60898 0.0
H2813 H 0.38408 0.08577 0.62564 0.0
C2814 C 0.36081 0.06596 0.63498 0.0
C2815 C 0.34343 0.059 0.63571 0.0
C2816 C 0.36296 0.11505 0.60474 0.0
C2817 C 0.36311 0.0881 0.61816 0.0
C2818 C 0.37366 0.1334 0.593 0.0
C2819 C 0.39285 0.13603 0.58349 0.0
C2820 C 0.3728 0.10366 0.60914 0.0
C2821 C 0.40417 0.12657 0.59272 0.0
C2822 C 0.37069 0.08046 0.62605 0.0
C2823 C 0.33639 0.0669 0.62725 0.0
N2824 N 0.39198 0.11019 0.60355 0.0
N2825 N 0.34628 0.0811 0.61896 0.0
H2826 H 0.9414 0.26289 0.62527 0.0
H2827 H 0.87722 0.28745 0.59012 0.0
H2828 H 0.94242 0.30643 0.64333 0.0
H2829 H 0.88457 0.25002 0.56809 0.0
H2830 H 0.89936 0.29372 0.6112 0.0
H2831 H 0.91855 0.25692 0.60596 0.0
C2832 C 0.93685 0.27125 0.62517 0.0
C2833 C 0.94396 0.28527 0.63589 0.0
C2834 C 0.89603 0.28414 0.60172 0.0
C2835 C 0.91761 0.27845 0.6136 0.0
C2836 C 0.88344 0.28057 0.58969 0.0
C2837 C 0.87902 0.26831 0.57712 0.0
C2838 C 0.90408 0.2752 0.60134 0.0
C2839 C 0.88741 0.25966 0.57732 0.0
C2840 C 0.92375 0.26782 0.61409 0.0
C2841 C 0.93735 0.29552 0.63524 0.0
N2842 N 0.89944 0.26327 0.5892 0.0
N2843 N 0.92453 0.29193 0.62423 0.0
H2844 H 0.34982 0.30173 0.62966 0.0
H2845 H 0.41928 0.28982 0.58616 0.0
H2846 H 0.39297 0.30735 0.65644 0.0
H2847 H 0.37506 0.28209 0.56 0.0
H2848 H 0.40958 0.29571 0.61221 0.0
H2849 H 0.35868 0.29419 0.60412 0.0
C2850 C 0.36117 0.3014 0.63019 0.0
C2851 C 0.37067 0.30522 0.64525 0.0
C2852 C 0.4019 0.29257 0.60082 0.0
C2853 C 0.38089 0.29655 0.616 0.0
C2854 C 0.4074 0.28912 0.58599 0.0
C2855 C 0.3978 0.28517 0.57098 0.0
C2856 C 0.38678 0.29227 0.60063 0.0
C2857 C 0.3827 0.28484 0.57136 0.0
C2858 C 0.36621 0.29705 0.61559 0.0
C2859 C 0.38524 0.30453 0.64514 0.0
N2860 N 0.37767 0.28836 0.58592 0.0
N2861 N 0.38991 0.3003 0.63075 0.0
H2862 H 0.70222 0.04884 0.62654 0.0
H2863 H 0.71034 0.12279 0.57217 0.0
H2864 H 0.70759 0.09321 0.64838 0.0
H2865 H 0.71642 0.08439 0.55095 0.0
H2866 H 0.70881 0.11176 0.60017 0.0
H2867 H 0.70681 0.06115 0.59865 0.0
C2868 C 0.70442 0.06117 0.6255 0.0
C2869 C 0.70446 0.06997 0.63984 0.0
C2870 C 0.7107 0.10584 0.58944 0.0
C2871 C 0.70963 0.08408 0.60799 0.0
C2872 C 0.71165 0.1122 0.57345 0.0
C2873 C 0.71389 0.1047 0.55925 0.0
C2874 C 0.71161 0.09165 0.59126 0.0
C2875 C 0.71499 0.09069 0.56162 0.0
C2876 C 0.70707 0.0682 0.60958 0.0
C2877 C 0.70742 0.08594 0.63771 0.0
N2878 N 0.71377 0.08456 0.57731 0.0
N2879 N 0.70978 0.09241 0.6221 0.0
H2880 H 0.94771 0.67955 0.61052 0.0
H2881 H 0.86904 0.5898 0.58696 0.0
H2882 H 0.9321 0.63749 0.64224 0.0
H2883 H 0.89613 0.62728 0.55024 0.0
H2884 H 0.88929 0.6082 0.60887 0.0
H2885 H 0.92606 0.66156 0.58974 0.0
C2886 C 0.93969 0.66654 0.61317 0.0
C2887 C 0.94178 0.66002 0.62815 0.0
C2888 C 0.89075 0.61239 0.59602 0.0
C2889 C 0.91687 0.63936 0.60439 0.0
C2890 C 0.87921 0.60194 0.58355 0.0
C2891 C 0.881 0.60701 0.56676 0.0
C2892 C 0.90403 0.6281 0.59169 0.0
C2893 C 0.89432 0.62288 0.56301 0.0
C2894 C 0.92736 0.65627 0.60126 0.0
C2895 C 0.93099 0.64304 0.63084 0.0
N2896 N 0.90531 0.63286 0.57537 0.0
N2897 N 0.91896 0.63329 0.61908 0.0
H2898 H 0.9715 0.72788 0.69741 0.0
H2899 H 0.94596 0.7065 0.7938 0.0
H2900 H 0.96322 0.68348 0.72085 0.0
H2901 H 0.95995 0.75315 0.77171 0.0
H2902 H 0.95003 0.69686 0.7666 0.0
H2903 H 0.9652 0.73638 0.72396 0.0
C2904 C 0.96833 0.71988 0.70812 0.0
C2905 C 0.96795 0.70495 0.70688 0.0
C2906 C 0.95207 0.70915 0.76765 0.0
C2907 C 0.96069 0.71464 0.73739 0.0
C2908 C 0.94966 0.71461 0.78314 0.0
C2909 C 0.95233 0.73052 0.78491 0.0
C2910 C 0.9573 0.71973 0.75385 0.0
C2911 C 0.95746 0.74069 0.7708 0.0
C2912 C 0.96474 0.72476 0.7233 0.0
C2913 C 0.96373 0.69511 0.72122 0.0
N2914 N 0.95977 0.73512 0.75587 0.0
N2915 N 0.96027 0.70014 0.73587 0.0
H2916 H 0.29991 0.28238 0.71253 0.0
H2917 H 0.28359 0.20908 0.77335 0.0
H2918 H 0.33724 0.27063 0.72547 0.0
H2919 H 0.25441 0.2322 0.7746 0.0
H2920 H 0.30063 0.22816 0.75162 0.0
H2921 H 0.28039 0.26059 0.73128 0.0
C2922 C 0.30395 0.27514 0.71919 0.0
C2923 C 0.32026 0.2784 0.71753 0.0
C2924 C 0.29039 0.22892 0.75661 0.0
C2925 C 0.29802 0.25345 0.7388 0.0
C2926 C 0.2806 0.218 0.76903 0.0
C2927 C 0.2674 0.2188 0.77603 0.0
C2928 C 0.28701 0.24083 0.75098 0.0
C2929 C 0.26428 0.2308 0.76976 0.0
C2930 C 0.29284 0.26277 0.72991 0.0
C2931 C 0.32485 0.26866 0.72648 0.0
N2932 N 0.274 0.2413 0.75762 0.0
N2933 N 0.31379 0.25663 0.7367 0.0
H2934 H 0.71734 0.02277 0.71881 0.0
H2935 H 0.80811 0.07167 0.76093 0.0
H2936 H 0.74728 0.07605 0.71814 0.0
H2937 H 0.76714 0.0294 0.7847 0.0
H2938 H 0.7881 0.07167 0.74078 0.0
H2939 H 0.73793 0.02298 0.73845 0.0
C2940 C 0.72832 0.03448 0.72267 0.0
C2941 C 0.73061 0.04942 0.71693 0.0
C2942 C 0.78358 0.06241 0.75042 0.0
C2943 C 0.75418 0.0497 0.73908 0.0
C2944 C 0.79496 0.06237 0.76196 0.0
C2945 C 0.78931 0.05043 0.77457 0.0
C2946 C 0.76653 0.05021 0.75122 0.0
C2947 C 0.77206 0.03871 0.77512 0.0
C2948 C 0.73997 0.03459 0.73392 0.0
C2949 C 0.74501 0.06427 0.72239 0.0
N2950 N 0.7613 0.03878 0.76351 0.0
N2951 N 0.75634 0.06405 0.73308 0.0
H2952 H 0.03169 0.3247 0.01588 0.0
H2953 H 0.09516 0.32639 0.0972 0.0
H2954 H 0.05316 0.36193 0.05572 0.0
H2955 H 0.06539 0.28126 0.05055 0.0
H2956 H 0.08126 0.34333 0.07987 0.0
H2957 H 0.04788 0.31319 0.02664 0.0
C2958 C 0.03999 0.33063 0.02672 0.0
C2959 C 0.04085 0.34418 0.03504 0.0
C2960 C 0.07888 0.33157 0.0751 0.0
C2961 C 0.05928 0.33092 0.04751 0.0
C2962 C 0.08652 0.32077 0.08655 0.0
C2963 C 0.08393 0.30277 0.07416 0.0
C2964 C 0.06701 0.32267 0.05588 0.0
C2965 C 0.06768 0.29229 0.05719 0.0
C2966 C 0.0492 0.324 0.0329 0.0
C2967 C 0.05196 0.35139 0.04899 0.0
N2968 N 0.06213 0.30434 0.04894 0.0
N2969 N 0.06058 0.34453 0.05493 0.0
H2970 H 0.65951 0.69268 0.0531 0.0
H2971 H 0.73418 0.79717 0.05012 0.0
H2972 H 0.68813 0.71773 0.00944 0.0
H2973 H 0.69624 0.76742 0.10028 0.0
H2974 H 0.71634 0.76532 0.03297 0.0
H2975 H 0.67201 0.71943 0.06802 0.0
C2976 C 0.66826 0.7038 0.04658 0.0
C2977 C 0.67286 0.70293 0.03002 0.0
C2978 C 0.71331 0.76669 0.04573 0.0
C2979 C 0.68728 0.73346 0.04707 0.0
C2980 C 0.7252 0.7861 0.05653 0.0
C2981 C 0.71539 0.78652 0.07652 0.0
C2982 C 0.69637 0.74956 0.0561 0.0
C2983 C 0.70116 0.76733 0.08807 0.0
C2984 C 0.6754 0.71905 0.05512 0.0
C2985 C 0.68424 0.71777 0.0222 0.0
N2986 N 0.69206 0.75094 0.07575 0.0
N2987 N 0.69118 0.73241 0.03086 0.0
H2988 H 0.29361 0.98474 0.00932 0.0
H2989 H 0.23639 0.92692 0.09239 0.0
H2990 H 0.29436 0.9425 0.02753 0.0
H2991 H 0.21972 0.96034 0.05493 0.0
H2992 H 0.26251 0.93547 0.06853 0.0
H2993 H 0.26889 0.97658 0.02621 0.0
C2994 C 0.2884 0.97359 0.0166 0.0
C2995 C 0.29609 0.9643 0.01704 0.0
C2996 C 0.25397 0.93976 0.06688 0.0
C2997 C 0.26825 0.95526 0.03663 0.0
C2998 C 0.23869 0.93532 0.08224 0.0
C2999 C 0.22315 0.94055 0.07481 0.0
C3000 C 0.2551 0.95136 0.04878 0.0
C3001 C 0.22823 0.95644 0.05864 0.0
C3002 C 0.27434 0.96898 0.02623 0.0
C3003 C 0.28883 0.95 0.02675 0.0
N3004 N 0.24308 0.95894 0.04635 0.0
N3005 N 0.2755 0.94609 0.03643 0.0
H3006 H 0.35225 0.04922 0.98072 0.0
H3007 H 0.28444 0.07562 0.98076 0.0
H3008 H 0.31341 0.03277 0.01732 0.0
H3009 H 0.33032 0.10248 0.9536 0.0
H3010 H 0.29425 0.05862 0.99294 0.0
H3011 H 0.34409 0.06798 0.9695 0.0
C3012 C 0.34212 0.04966 0.9865 0.0
C3013 C 0.33348 0.03936 -3e-05 0.0
C3014 C 0.30217 0.06819 0.98428 0.0
C3015 C 0.32396 0.06062 0.98704 0.0
C3016 C 0.29652 0.0778 0.97724 0.0
C3017 C 0.30638 0.0902 0.96584 0.0
C3018 C 0.31785 0.07094 0.97993 0.0
C3019 C 0.32214 0.0928 0.96203 0.0
C3020 C 0.33747 0.06036 0.98008 0.0
C3021 C 0.32045 0.04046 0.00694 0.0
N3022 N 0.32734 0.08316 0.96896 0.0
N3023 N 0.31601 0.05077 0.00031 0.0
H3024 H 0.93293 0.27891 0.02131 0.0
H3025 H 0.93456 0.21657 0.9438 0.0
H3026 H 0.97669 0.29352 0.992 0.0
H3027 H 0.89676 0.19563 0.99553 0.0
H3028 H 0.95185 0.24836 0.96121 0.0
H3029 H 0.92045 0.25053 0.01023 0.0
C3030 C 0.93995 0.27611 0.01265 0.0
C3031 C 0.95587 0.28854 0.00757 0.0
C3032 C 0.94154 0.23771 0.96701 0.0
C3033 C 0.94158 0.25636 0.99471 0.0
C3034 C 0.93166 0.21804 0.9566 0.0
C3035 C 0.91173 0.20282 0.96669 0.0
C3036 C 0.9339 0.23983 0.98681 0.0
C3037 C 0.90783 0.20486 0.98922 0.0
C3038 C 0.93285 0.25994 0.0064 0.0
C3039 C 0.96444 0.28426 0.99632 0.0
N3040 N 0.91865 0.22392 0.99625 0.0
N3041 N 0.95707 0.26854 0.99004 0.0
H3042 H 0.70642 0.68839 0.00367 0.0
H3043 H 0.78677 0.69057 0.96802 0.0
H3044 H 0.7097 0.64516 0.99603 0.0
H3045 H 0.78129 0.73284 0.96764 0.0
H3046 H 0.75948 0.6744 0.98084 0.0
H3047 H 0.73479 0.70553 0.99309 0.0
C3048 C 0.71313 0.68251 0.99989 0.0
C3049 C 0.70564 0.66528 0.00067 0.0
C3050 C 0.76417 0.68719 0.97792 0.0
C3051 C 0.73804 0.68482 0.98856 0.0
C3052 C 0.77973 0.6964 0.97056 0.0
C3053 C 0.78611 0.71296 0.96641 0.0
C3054 C 0.75492 0.69459 0.98135 0.0
C3055 C 0.77667 0.72003 0.97037 0.0
C3056 C 0.72929 0.6923 0.9938 0.0
C3057 C 0.71492 0.65836 0.99558 0.0
N3058 N 0.76149 0.71078 0.97757 0.0
N3059 N 0.7306 0.66814 0.98973 0.0
H3060 H 0.97663 0.66897 0.98296 0.0
H3061 H 0.91692 0.70486 0.9919 0.0
H3062 H 0.96046 0.67625 0.03113 0.0
H3063 H 0.95003 0.71585 0.95038 0.0
H3064 H 0.92795 0.68902 0.00477 0.0
H3065 H 0.96164 0.68046 0.96911 0.0
C3066 C 0.96971 0.67273 0.99062 0.0
C3067 C 0.9699 0.67176 0.00827 0.0
C3068 C 0.93264 0.69476 0.99276 0.0
C3069 C 0.95275 0.68491 0.99244 0.0
C3070 C 0.92633 0.70372 0.98539 0.0
C3071 C 0.93238 0.7115 0.96995 0.0
C3072 C 0.94502 0.69345 0.98456 0.0
C3073 C 0.94479 0.70988 0.96216 0.0
C3074 C 0.96126 0.67938 0.9827 0.0
C3075 C 0.96074 0.67688 0.01752 0.0
N3076 N 0.95064 0.70099 0.96952 0.0
N3077 N 0.95256 0.68328 0.00949 0.0
H3078 H 0.34519 0.32608 0.97619 0.0
H3079 H 0.28381 0.22774 0.97775 0.0
H3080 H 0.3257 0.29868 0.0218 0.0
H3081 H 0.30447 0.25489 0.93229 0.0
H3082 H 0.30026 0.25348 0.99428 0.0
H3083 H 0.33194 0.3 0.96007 0.0
C3084 C 0.33829 0.31458 0.98285 0.0
C3085 C 0.33647 0.31459 0.00037 0.0
C3086 C 0.30131 0.25381 0.9807 0.0
C3087 C 0.3211 0.28468 0.98197 0.0
C3088 C 0.29193 0.23912 0.97128 0.0
C3089 C 0.29293 0.23917 0.95366 0.0
C3090 C 0.31166 0.26871 0.97243 0.0
C3091 C 0.30348 0.2543 0.94587 0.0
C3092 C 0.33067 0.29969 0.97363 0.0
C3093 C 0.32738 0.29929 0.00831 0.0
N3094 N 0.31241 0.26845 0.9553 0.0
N3095 N 0.31994 0.28497 0.99904 0.0
H3096 H 0.71296 0.06475 0.97766 0.0
H3097 H 0.78762 0.04808 0.97777 0.0
H3098 H 0.7117 0.0268 0.00819 0.0
H3099 H 0.77022 0.06105 0.93325 0.0
H3100 H 0.76432 0.0463 0.99329 0.0
H3101 H 0.73927 0.07025 0.96587 0.0
C3102 C 0.71837 0.05779 0.98213 0.0
C3103 C 0.71006 0.04519 0.9938 0.0
C3104 C 0.76578 0.04961 0.98013 0.0
C3105 C 0.7401 0.05148 0.98043 0.0
C3106 C 0.77897 0.05056 0.97126 0.0
C3107 C 0.78086 0.05449 0.95409 0.0
C3108 C 0.75469 0.05308 0.97189 0.0
C3109 C 0.76942 0.0579 0.94639 0.0
C3110 C 0.7333 0.06087 0.97532 0.0
C3111 C 0.71763 0.03652 0.9991 0.0
N3112 N 0.7569 0.05717 0.95536 0.0
N3113 N 0.73224 0.0398 0.99232 0.0
H3114 H 0.65668 0.97148 0.04264 0.0
H3115 H 0.72083 0.94025 0.04667 0.0
H3116 H 0.68688 0.97406 0.00097 0.0
H3117 H 0.69113 0.93823 0.0885 0.0
H3118 H 0.70657 0.95023 0.02888 0.0
H3119 H 0.66688 0.95656 0.05862 0.0
C3120 C 0.66529 0.96873 0.03675 0.0
C3121 C 0.67104 0.97417 0.02047 0.0
C3122 C 0.70302 0.94743 0.04189 0.0
C3123 C 0.68292 0.95723 0.0388 0.0
C3124 C 0.71113 0.9417 0.05203 0.0
C3125 C 0.70699 0.9382 0.06901 0.0
C3126 C 0.6908 0.94987 0.04883 0.0
C3127 C 0.69454 0.94058 0.07541 0.0
C3128 C 0.67116 0.96025 0.04592 0.0
C3129 C 0.68216 0.97019 0.0135 0.0
N3130 N 0.68693 0.94631 0.06533 0.0
N3131 N 0.68785 0.9621 0.02276 0.0
H3132 H 0.01863 0.70914 0.03426 0.0
H3133 H 0.09447 0.80272 0.04183 0.0
H3134 H 0.07033 0.72283 0.0341 0.0
H3135 H 0.04464 0.78694 0.05764 0.0
H3136 H 0.08577 0.77375 0.03718 0.0
H3137 H 0.02775 0.73785 0.04086 0.0
C3138 C 0.03191 0.71818 0.03561 0.0
C3139 C 0.04374 0.71357 0.0336 0.0
C3140 C 0.07676 0.77662 0.04176 0.0
C3141 C 0.05424 0.74649 0.0411 0.0
C3142 C 0.08171 0.79312 0.0444 0.0
C3143 C 0.07023 0.79719 0.0501 0.0
C3144 C 0.06014 0.76409 0.0446 0.0
C3145 C 0.05384 0.7843 0.0532 0.0
C3146 C 0.03709 0.73456 0.03945 0.0
C3147 C 0.06078 0.72583 0.03556 0.0
N3148 N 0.04925 0.76832 0.05029 0.0
N3149 N 0.06552 0.74176 0.0391 0.0
H3150 H 0.29724 0.3286 0.01577 0.0
H3151 H 0.23751 0.28784 0.09173 0.0
H3152 H 0.30242 0.35687 0.06085 0.0
H3153 H 0.21822 0.27389 0.04057 0.0
H3154 H 0.26316 0.31135 0.08118 0.0
H3155 H 0.26969 0.30656 0.02497 0.0
C3156 C 0.29251 0.33022 0.02753 0.0
C3157 C 0.3021 0.34457 0.03759 0.0
C3158 C 0.25322 0.30323 0.07229 0.0
C3159 C 0.27091 0.31934 0.04827 0.0
C3160 C 0.23855 0.28981 0.07828 0.0
C3161 C 0.22546 0.27911 0.067 0.0
C3162 C 0.25512 0.30567 0.05489 0.0
C3163 C 0.22788 0.28201 0.04967 0.0
C3164 C 0.27682 0.31768 0.03272 0.0
C3165 C 0.2954 0.34605 0.0527 0.0
N3166 N 0.24249 0.29497 0.0441 0.0
N3167 N 0.2803 0.33346 0.05772 0.0
H3168 H 0.70092 0.6857 0.37547 0.0
H3169 H 0.74167 0.63037 0.36668 0.0
H3170 H 0.69265 0.65393 0.33241 0.0
H3171 H 0.76118 0.67188 0.40156 0.0
H3172 H 0.72128 0.63688 0.35601 0.0
H3173 H 0.72094 0.67899 0.3872 0.0
C3174 C 0.70331 0.67734 0.36848 0.0
C3175 C 0.69513 0.6704 0.35291 0.0
C3176 C 0.72994 0.64451 0.36607 0.0
C3177 C 0.71783 0.66258 0.36631 0.0
C3178 C 0.7415 0.64073 0.37223 0.0
C3179 C 0.75289 0.65037 0.38526 0.0
C3180 C 0.72975 0.65808 0.37295 0.0
C3181 C 0.75239 0.66392 0.39174 0.0
C3182 C 0.71474 0.67354 0.37517 0.0
C3183 C 0.69871 0.65964 0.34441 0.0
N3184 N 0.74095 0.66733 0.38557 0.0
N3185 N 0.70972 0.65602 0.35125 0.0
H3186 H 0.34833 0.04158 0.34739 0.0
H3187 H 0.35317 0.09712 0.43691 0.0
H3188 H 0.31684 0.01991 0.39027 0.0
H3189 H 0.39358 0.1195 0.38725 0.0
H3190 H 0.33715 0.06562 0.41892 0.0
H3191 H 0.36192 0.06858 0.36181 0.0
C3192 C 0.34419 0.0425 0.35979 0.0
C3193 C 0.33146 0.02841 0.36765 0.0
C3194 C 0.34796 0.07636 0.41383 0.0
C3195 C 0.34701 0.05928 0.3842 0.0
C3196 C 0.35832 0.09537 0.42555 0.0
C3197 C 0.37388 0.1128 0.41264 0.0
C3198 C 0.35551 0.07521 0.39359 0.0
C3199 C 0.38382 0.10945 0.39426 0.0
C3200 C 0.352 0.05792 0.36802 0.0
C3201 C 0.32664 0.0304 0.38375 0.0
N3202 N 0.37238 0.09097 0.38589 0.0
N3203 N 0.33446 0.04556 0.39152 0.0
H3204 H 0.97291 0.32537 0.35972 0.0
H3205 H 0.8879 0.24343 0.3855 0.0
H3206 H 0.96733 0.27764 0.36559 0.0
H3207 H 0.89575 0.29215 0.39169 0.0
H3208 H 0.9162 0.25577 0.37505 0.0
H3209 H 0.94383 0.31341 0.36834 0.0
C3210 C 0.96556 0.31239 0.36271 0.0
C3211 C 0.97259 0.30251 0.36201 0.0
C3212 C 0.91181 0.26381 0.37877 0.0
C3213 C 0.93944 0.2888 0.3718 0.0
C3214 C 0.89567 0.25676 0.38479 0.0
C3215 C 0.88965 0.26683 0.38992 0.0
C3216 C 0.922 0.28106 0.37759 0.0
C3217 C 0.90007 0.284 0.38821 0.0
C3218 C 0.94901 0.30559 0.36769 0.0
C3219 C 0.96251 0.28577 0.36605 0.0
N3220 N 0.91579 0.29061 0.38224 0.0
N3221 N 0.94649 0.27947 0.37075 0.0
H3222 H 0.03551 0.38268 0.31347 0.0
H3223 H 0.99914 0.44233 0.31481 0.0
H3224 H 0.99911 0.37865 0.34874 0.0
H3225 H 0.04045 0.45106 0.28428 0.0
H3226 H 0.99746 0.41756 0.32568 0.0
H3227 H 0.03614 0.40645 0.30104 0.0
C3228 C 0.02764 0.38677 0.3186 0.0
C3229 C 0.01728 0.37867 0.33222 0.0
C3230 C 0.00681 0.42479 0.3165 0.0
C3231 C 0.0179 0.40584 0.31799 0.0
C3232 C 0.0077 0.43888 0.31023 0.0
C3233 C 0.01974 0.44859 0.2984 0.0
C3234 C 0.01813 0.4204 0.31102 0.0
C3235 C 0.03079 0.44375 0.29316 0.0
C3236 C 0.02802 0.40035 0.3115 0.0
C3237 C 0.00734 0.38453 0.33831 0.0
N3238 N 0.02971 0.42999 0.29949 0.0
N3239 N 0.0079 0.39772 0.33116 0.0
H3240 H 0.60473 0.63671 0.29956 0.0
H3241 H 0.61168 0.54953 0.29937 0.0
H3242 H 0.64101 0.63235 0.32948 0.0
H3243 H 0.57517 0.56043 0.2588 0.0
H3244 H 0.62424 0.58257 0.31254 0.0
H3245 H 0.59448 0.60926 0.28731 0.0
C3246 C 0.61051 0.62997 0.30361 0.0
C3247 C 0.62379 0.63689 0.31556 0.0
C3248 C 0.6151 0.57758 0.30225 0.0
C3249 C 0.61208 0.60547 0.30154 0.0
C3250 C 0.60834 0.55767 0.29352 0.0
C3251 C 0.5898 0.55011 0.27912 0.0
C3252 C 0.60643 0.58906 0.29412 0.0
C3253 C 0.58521 0.56452 0.2681 0.0
C3254 C 0.60467 0.61432 0.29656 0.0
C3255 C 0.63078 0.62753 0.32029 0.0
N3256 N 0.59312 0.58221 0.27807 0.0
N3257 N 0.62482 0.61227 0.31326 0.0
H3258 H 0.3565 0.00035 0.34026 0.0
H3259 H 0.41761 0.9748 0.30036 0.0
H3260 H 0.34043 0.95074 0.32331 0.0
H3261 H 0.43174 0.02548 0.30873 0.0
H3262 H 0.38958 0.96568 0.31011 0.0
H3263 H 0.38452 0.00978 0.33009 0.0
C3264 C 0.35885 0.99144 0.33441 0.0
C3265 C 0.34609 0.97472 0.33266 0.0
C3266 C 0.39876 0.97881 0.30969 0.0
C3267 C 0.3781 0.98543 0.32105 0.0
C3268 C 0.41473 0.98401 0.30407 0.0
C3269 C 0.42687 0.00094 0.30332 0.0
C3270 C 0.39494 0.9906 0.3149 0.0
C3271 C 0.42262 0.01233 0.30879 0.0
C3272 C 0.37483 0.99685 0.32857 0.0
C3273 C 0.34986 0.96375 0.32493 0.0
N3274 N 0.407 0.00695 0.31434 0.0
N3275 N 0.36552 0.96929 0.31946 0.0
H3276 H 0.62414 0.95999 0.33029 0.0
H3277 H 0.59491 0.00451 0.25321 0.0
H3278 H 0.65814 0.00651 0.30715 0.0
H3279 H 0.55713 0.94666 0.27793 0.0
H3280 H 0.62131 0.00645 0.27433 0.0
H3281 H 0.60146 0.9571 0.31202 0.0
C3282 C 0.62684 0.96961 0.32141 0.0
C3283 C 0.64309 0.98349 0.32022 0.0
C3284 C 0.60889 0.99548 0.27416 0.0
C3285 C 0.61723 0.98022 0.29933 0.0
C3286 C 0.59307 0.99406 0.26033 0.0
C3287 C 0.57201 0.9761 0.26521 0.0
C3288 C 0.604 0.97877 0.2879 0.0
C3289 C 0.56927 0.95758 0.2759 0.0
C3290 C 0.6139 0.96792 0.31097 0.0
C3291 C 0.64583 0.99557 0.30847 0.0
N3292 N 0.58556 0.96166 0.28742 0.0
N3293 N 0.63302 0.99365 0.29847 0.0
H3294 H 0.99234 0.63538 0.34987 0.0
H3295 H 0.02402 0.58612 0.28175 0.0
H3296 H 0.03195 0.66117 0.31451 0.0
H3297 H 0.96834 0.5584 0.31328 0.0
H3298 H 0.03042 0.61672 0.2971 0.0
H3299 H 0.98667 0.60909 0.33797 0.0
C3300 C 0.99987 0.63552 0.33961 0.0
C3301 C 0.01266 0.6505 0.33318 0.0
C3302 C 0.01905 0.60515 0.29966 0.0
C3303 C 0.00628 0.62045 0.31961 0.0
C3304 C 0.01578 0.58632 0.291 0.0
C3305 C 0.99387 0.56882 0.29374 0.0
C3306 C 0.00336 0.60478 0.31247 0.0
C3307 C 0.98071 0.56885 0.31092 0.0
C3308 C 0.99657 0.62049 0.33279 0.0
C3309 C 0.02195 0.6499 0.31981 0.0
N3310 N 0.98638 0.58743 0.31734 0.0
N3311 N 0.01865 0.63508 0.31352 0.0
H3312 H 0.36406 0.35577 0.33851 0.0
H3313 H 0.42282 0.38591 0.26023 0.0
H3314 H 0.36107 0.3861 0.3002 0.0
H3315 H 0.44062 0.37968 0.30845 0.0
H3316 H 0.39829 0.38277 0.27371 0.0
H3317 H 0.39061 0.3615 0.32696 0.0
C3318 C 0.36905 0.36374 0.32777 0.0
C3319 C 0.36033 0.37045 0.32028 0.0
C3320 C 0.40763 0.38222 0.28136 0.0
C3321 C 0.39041 0.37675 0.30689 0.0
C3322 C 0.42169 0.384 0.27368 0.0
C3323 C 0.43402 0.38331 0.28329 0.0
C3324 C 0.40557 0.37928 0.29868 0.0
C3325 C 0.4315 0.38042 0.30063 0.0
C3326 C 0.38418 0.36701 0.32123 0.0
C3327 C 0.36738 0.3807 0.3064 0.0
N3328 N 0.41749 0.37839 0.30778 0.0
N3329 N 0.3819 0.38336 0.30001 0.0
H3330 H 0.316 0.30635 0.38074 0.0
H3331 H 0.37483 0.2691 0.37426 0.0
H3332 H 0.3343 0.29923 0.33385 0.0
H3333 H 0.3534 0.27233 0.42069 0.0
H3334 H 0.35898 0.27897 0.35907 0.0
H3335 H 0.32823 0.29252 0.39543 0.0
C3336 C 0.32242 0.30172 0.3735 0.0
C3337 C 0.32421 0.30406 0.35604 0.0
C3338 C 0.3576 0.27738 0.37256 0.0
C3339 C 0.33839 0.28836 0.37281 0.0
C3340 C 0.36664 0.27173 0.38121 0.0
C3341 C 0.3653 0.26974 0.39872 0.0
C3342 C 0.34728 0.28128 0.38149 0.0
C3343 C 0.35467 0.27356 0.40716 0.0
C3344 C 0.32944 0.29385 0.3819 0.0
C3345 C 0.33265 0.29778 0.34732 0.0
N3346 N 0.34613 0.27919 0.39848 0.0
N3347 N 0.33953 0.29035 0.35581 0.0
H3348 H 0.73189 0.03682 0.3803 0.0
H3349 H 0.70711 0.10531 0.3839 0.0
H3350 H 0.68197 0.02581 0.36856 0.0
H3351 H 0.75738 0.11694 0.37554 0.0
H3352 H 0.6975 0.0758 0.38353 0.0
H3353 H 0.74123 0.06605 0.3838 0.0
C3354 C 0.72287 0.04052 0.37856 0.0
C3355 C 0.70613 0.02886 0.37404 0.0
C3356 C 0.71063 0.08484 0.38184 0.0
C3357 C 0.71674 0.06225 0.37816 0.0
C3358 C 0.71611 0.10163 0.38207 0.0
C3359 C 0.73302 0.11354 0.37956 0.0
C3360 C 0.7222 0.07995 0.37935 0.0
C3361 C 0.74422 0.10815 0.37742 0.0
C3362 C 0.72823 0.05721 0.38051 0.0
C3363 C 0.695 0.03439 0.37194 0.0
N3364 N 0.73861 0.09175 0.37737 0.0
N3365 N 0.7005 0.0507 0.37405 0.0
H3366 H 0.97323 0.66915 0.34743 0.0
H3367 H 0.91488 0.64325 0.4263 0.0
H3368 H 0.98348 0.70227 0.38981 0.0
H3369 H 0.89449 0.62262 0.37672 0.0
H3370 H 0.94153 0.66285 0.41382 0.0
H3371 H 0.94539 0.65008 0.35843 0.0
C3372 C 0.96958 0.67248 0.35896 0.0
C3373 C 0.98069 0.68732 0.36774 0.0
C3374 C 0.93118 0.65414 0.40566 0.0
C3375 C 0.9491 0.66547 0.38047 0.0
C3376 C 0.91595 0.64293 0.41275 0.0
C3377 C 0.90226 0.6316 0.40244 0.0
C3378 C 0.93296 0.65375 0.38818 0.0
C3379 C 0.90464 0.63139 0.38504 0.0
C3380 C 0.95371 0.66161 0.36519 0.0
C3381 C 0.97531 0.69101 0.38261 0.0
N3382 N 0.91973 0.64231 0.37842 0.0
N3383 N 0.95997 0.68006 0.38861 0.0
H3384 H 0.39385 0.03701 0.66985 0.0
H3385 H 0.42565 0.02789 0.76107 0.0
H3386 H 0.36315 0.02143 0.71383 0.0
H3387 H 0.45827 0.04941 0.71903 0.0
H3388 H 0.40222 0.02406 0.74345 0.0
H3389 H 0.41723 0.04024 0.68713 0.0
C3390 C 0.392 0.03424 0.68312 0.0
C3391 C 0.3765 0.02896 0.69039 0.0
C3392 C 0.41448 0.02959 0.73804 0.0
C3393 C 0.40322 0.03262 0.71025 0.0
C3394 C 0.42783 0.03173 0.74809 0.0
C3395 C 0.44388 0.03884 0.74145 0.0
C3396 C 0.41715 0.03459 0.7212 0.0
C3397 C 0.44607 0.04376 0.72459 0.0
C3398 C 0.40538 0.03612 0.69299 0.0
C3399 C 0.37487 0.02556 0.70767 0.0
N3400 N 0.43285 0.04151 0.71503 0.0
N3401 N 0.38804 0.02744 0.71699 0.0
H3402 H 0.99896 0.35088 0.71083 0.0
H3403 H 0.98528 0.43403 0.71666 0.0
H3404 H 0.96713 0.35756 0.6762 0.0
H3405 H 0.02985 0.42816 0.74922 0.0
H3406 H 0.97576 0.4027 0.70054 0.0
H3407 H 0.00664 0.3769 0.72506 0.0
C3408 C 0.9935 0.35776 0.70626 0.0
C3409 C 0.98246 0.35206 0.6922 0.0
C3410 C 0.98594 0.40839 0.70977 0.0
C3411 C 0.99125 0.38186 0.70847 0.0
C3412 C 0.99235 0.42814 0.71876 0.0
C3413 C 0.00722 0.4335 0.737 0.0
C3414 C 0.99641 0.39804 0.71623 0.0
C3415 C 0.02047 0.42446 0.73924 0.0
C3416 C 0.99795 0.37264 0.71438 0.0
C3417 C 0.97576 0.36152 0.68691 0.0
N3418 N 0.01246 0.40665 0.72949 0.0
N3419 N 0.9803 0.37601 0.69505 0.0
H3420 H 0.63783 0.65499 0.69833 0.0
H3421 H 0.55805 0.57205 0.73016 0.0
H3422 H 0.63891 0.61184 0.71254 0.0
H3423 H 0.56114 0.61895 0.73139 0.0
H3424 H 0.58695 0.58599 0.72103 0.0
H3425 H 0.60898 0.64158 0.70793 0.0
C3426 C 0.63203 0.64273 0.70348 0.0
C3427 C 0.64081 0.63453 0.70464 0.0
C3428 C 0.58137 0.59327 0.72344 0.0
C3429 C 0.60784 0.61912 0.71548 0.0
C3430 C 0.56489 0.58533 0.72871 0.0
C3431 C 0.55735 0.59446 0.73203 0.0
C3432 C 0.59031 0.61042 0.7211 0.0
C3433 C 0.56664 0.61155 0.72933 0.0
C3434 C 0.61559 0.63511 0.70898 0.0
C3435 C 0.63267 0.61866 0.71144 0.0
N3436 N 0.58265 0.619 0.72402 0.0
N3437 N 0.61663 0.61145 0.71651 0.0
H3438 H 0.69501 0.73248 0.67717 0.0
H3439 H 0.62329 0.72396 0.61459 0.0
H3440 H 0.6642 0.6897 0.64491 0.0
H3441 H 0.65978 0.76998 0.63935 0.0
H3442 H 0.63834 0.71131 0.62552 0.0
H3443 H 0.68259 0.74664 0.66345 0.0
C3444 C 0.68573 0.7261 0.66715 0.0
C3445 C 0.68058 0.70983 0.66227 0.0
C3446 C 0.64317 0.72422 0.62846 0.0
C3447 C 0.66624 0.72592 0.6466 0.0
C3448 C 0.63459 0.73144 0.62219 0.0
C3449 C 0.64035 0.74807 0.62599 0.0
C3450 C 0.65753 0.7336 0.63882 0.0
C3451 C 0.65497 0.75715 0.63607 0.0
C3452 C 0.67865 0.73419 0.65931 0.0
C3453 C 0.66853 0.70221 0.64915 0.0
N3454 N 0.663 0.74977 0.64222 0.0
N3455 N 0.6617 0.71026 0.64188 0.0
H3456 H 0.32017 0.97267 0.6541 0.0
H3457 H 0.22949 0.87657 0.64127 0.0
H3458 H 0.27009 0.96367 0.65238 0.0
H3459 H 0.2876 0.89071 0.62166 0.0
H3460 H 0.24614 0.91067 0.65263 0.0
H3461 H 0.30843 0.94306 0.64793 0.0
C3462 C 0.30675 0.96448 0.65248 0.0
C3463 C 0.29608 0.97062 0.65361 0.0
C3464 C 0.25318 0.90589 0.64697 0.0
C3465 C 0.28272 0.93702 0.64697 0.0
C3466 C 0.24295 0.88465 0.64093 0.0
C3467 C 0.25636 0.88034 0.62755 0.0
C3468 C 0.275 0.91931 0.64311 0.0
C3469 C 0.2796 0.8936 0.62858 0.0
C3470 C 0.3001 0.94767 0.64894 0.0
C3471 C 0.27878 0.9595 0.65143 0.0
N3472 N 0.28622 0.91243 0.63506 0.0
N3473 N 0.27263 0.94321 0.64833 0.0
H3474 H 0.03342 0.34779 0.66049 0.0
H3475 H 0.11671 0.35192 0.6321 0.0
H3476 H 0.03592 0.30514 0.64656 0.0
H3477 H 0.11166 0.39442 0.63022 0.0
H3478 H 0.08785 0.33518 0.641 0.0
H3479 H 0.06282 0.3657 0.65269 0.0
C3480 C 0.04013 0.3422 0.65583 0.0
C3481 C 0.03218 0.32494 0.65414 0.0
C3482 C 0.09298 0.34814 0.63856 0.0
C3483 C 0.06568 0.34526 0.64538 0.0
C3484 C 0.10945 0.35769 0.63344 0.0
C3485 C 0.11642 0.37448 0.62994 0.0
C3486 C 0.08341 0.35543 0.64051 0.0
C3487 C 0.1066 0.38144 0.63243 0.0
C3488 C 0.05686 0.35241 0.65135 0.0
C3489 C 0.04146 0.31836 0.64801 0.0
N3490 N 0.09053 0.37186 0.63753 0.0
N3491 N 0.05769 0.32851 0.64393 0.0
H3492 H 0.31834 0.33548 0.64356 0.0
H3493 H 0.24651 0.35592 0.65473 0.0
H3494 H 0.28421 0.31816 0.68484 0.0
H3495 H 0.28956 0.3845 0.624 0.0
H3496 H 0.25693 0.33788 0.66191 0.0
H3497 H 0.30447 0.34922 0.63221 0.0
C3498 C 0.30777 0.33434 0.6501 0.0
C3499 C 0.30251 0.32577 0.66526 0.0
C3500 C 0.26397 0.34796 0.65341 0.0
C3501 C 0.28664 0.34148 0.65233 0.0
C3502 C 0.258 0.35819 0.64925 0.0
C3503 C 0.26704 0.37156 0.63856 0.0
C3504 C 0.27915 0.35113 0.64687 0.0
C3505 C 0.28205 0.37417 0.63207 0.0
C3506 C 0.29993 0.34227 0.64365 0.0
C3507 C 0.28876 0.32475 0.6732 0.0
N3508 N 0.28764 0.36405 0.63634 0.0
N3509 N 0.28135 0.33258 0.66668 0.0
H3510 H 0.64268 0.98242 0.63909 0.0
H3511 H 0.65515 0.90536 0.64182 0.0
H3512 H 0.68478 0.98396 0.66379 0.0
H3513 H 0.61106 0.90247 0.62077 0.0
H3514 H 0.6674 0.93489 0.6476 0.0
H3515 H 0.63212 0.95391 0.62995 0.0
C3516 C 0.64977 0.97681 0.64252 0.0
C3517 C 0.66461 0.98559 0.65231 0.0
C3518 C 0.65512 0.92786 0.64156 0.0
C3519 C 0.65254 0.95289 0.64189 0.0
C3520 C 0.64816 0.91103 0.63819 0.0
C3521 C 0.63218 0.90152 0.63059 0.0
C3522 C 0.64597 0.93527 0.63744 0.0
C3523 C 0.62352 0.90941 0.62643 0.0
C3524 C 0.64371 0.9605 0.6373 0.0
C3525 C 0.67325 0.97766 0.65633 0.0
N3526 N 0.63051 0.92582 0.62994 0.0
N3527 N 0.66706 0.96176 0.65115 0.0
H3528 H 0.02477 0.68165 0.65515 0.0
H3529 H 0.11823 0.75723 0.64737 0.0
H3530 H 0.03685 0.73169 0.64811 0.0
H3531 H 0.10371 0.70735 0.6336 0.0
H3532 H 0.0887 0.74804 0.6502 0.0
H3533 H 0.05396 0.69069 0.64991 0.0
C3534 C 0.03355 0.69453 0.6525 0.0
C3535 C 0.02837 0.70595 0.65209 0.0
C3536 C 0.09197 0.73912 0.64648 0.0
C3537 C 0.06175 0.71634 0.64624 0.0
C3538 C 0.1088 0.74435 0.6449 0.0
C3539 C 0.1134 0.73301 0.64033 0.0
C3540 C 0.07965 0.72237 0.64377 0.0
C3541 C 0.10068 0.71645 0.63725 0.0
C3542 C 0.05017 0.69965 0.64943 0.0
C3543 C 0.04028 0.72246 0.64851 0.0
N3544 N 0.08436 0.71158 0.63918 0.0
N3545 N 0.05644 0.72719 0.64587 0.0
H3546 H 0.96124 0.61057 0.66459 0.0
H3547 H 0.00859 0.59296 0.73792 0.0
H3548 H 0.98729 0.64468 0.70632 0.0
H3549 H 0.97226 0.55505 0.70364 0.0
H3550 H 0.00159 0.6124 0.72623 0.0
H3551 H 0.96572 0.59029 0.67836 0.0
C3552 C 0.96783 0.61377 0.67669 0.0
C3553 C 0.97394 0.62937 0.68428 0.0
C3554 C 0.99499 0.59977 0.72142 0.0
C3555 C 0.97924 0.60624 0.70005 0.0
C3556 C 0.99894 0.58866 0.72813 0.0
C3557 C 0.99071 0.57225 0.72199 0.0
C3558 C 0.983 0.59454 0.70822 0.0
C3559 C 0.97867 0.5675 0.70893 0.0
C3560 C 0.97035 0.60217 0.68456 0.0
C3561 C 0.98235 0.63281 0.7 0.0
N3562 N 0.97523 0.57859 0.70244 0.0
N3563 N 0.98487 0.62139 0.7073 0.0
H3564 H 0.36589 0.37029 0.6798 0.0
H3565 H 0.38427 0.43454 0.75268 0.0
H3566 H 0.38205 0.36425 0.72896 0.0
H3567 H 0.3982 0.45005 0.70151 0.0
H3568 H 0.37994 0.4075 0.74497 0.0
H3569 H 0.37396 0.39844 0.68808 0.0
C3570 C 0.3712 0.37493 0.69233 0.0
C3571 C 0.37335 0.36498 0.70372 0.0
C3572 C 0.38411 0.41692 0.73553 0.0
C3573 C 0.38228 0.39699 0.71334 0.0
C3574 C 0.38657 0.43235 0.73988 0.0
C3575 C 0.39168 0.44463 0.72769 0.0
C3576 C 0.38628 0.41361 0.71881 0.0
C3577 C 0.39428 0.44094 0.71127 0.0
C3578 C 0.37585 0.39099 0.697 0.0
C3579 C 0.3803 0.3716 0.71978 0.0
N3580 N 0.39134 0.42571 0.70725 0.0
N3581 N 0.38432 0.38716 0.72423 0.0
H3582 H 0.64707 0.05007 0.71023 0.0
H3583 H 0.56118 0.9651 0.72593 0.0
H3584 H 0.64009 0.00222 0.69939 0.0
H3585 H 0.56407 0.01132 0.71806 0.0
H3586 H 0.59138 0.979 0.72144 0.0
H3587 H 0.61779 0.03641 0.71834 0.0
C3588 C 0.63942 0.0367 0.70966 0.0
C3589 C 0.64601 0.02728 0.70402 0.0
C3590 C 0.58538 0.98609 0.72078 0.0
C3591 C 0.61257 0.01161 0.71338 0.0
C3592 C 0.56821 0.97818 0.72335 0.0
C3593 C 0.56011 0.98705 0.72216 0.0
C3594 C 0.59456 0.00302 0.71724 0.0
C3595 C 0.56981 0.00402 0.71897 0.0
C3596 C 0.62271 0.02893 0.71424 0.0
C3597 C 0.6355 0.00997 0.70354 0.0
N3598 N 0.58651 0.01146 0.71661 0.0
N3599 N 0.6193 0.00269 0.70817 0.0
loop_
_geom_bond_atom_site_label_1
_geom_bond_atom_site_label_2
_geom_bond_distance
_geom_bond_site_symmetry_2
_ccdc_geom_bond_type
Zn0 O3 2.031 1_554 S
Zn0 O5 2.049 . S
Zn0 O10 2.067 1_554 S
Zn1 O2 1.962 1_455 S
Zn1 O4 1.986 . S
Zn1 O6 1.996 1_455 S
Zn1 O9 1.943 1_554 S
O2 Zn1 1.962 1_655 S
O2 C7 1.254 1_554 S
O3 Zn0 2.031 1_556 S
O3 C7 1.269 . S
O4 Zn1 1.986 . S
O4 C11 1.262 . S
O5 Zn0 2.049 . S
O5 C13 1.260 . S
O6 Zn1 1.996 1_655 S
O6 C13 1.257 . S
C7 O2 1.254 1_556 S
C7 O3 1.269 . S
C8 O9 1.249 . S
C8 O10 1.270 1_455 S
O9 Zn1 1.943 1_556 S
O9 C8 1.249 . S
O10 Zn0 2.067 1_556 S
O10 C8 1.270 1_655 S
C11 O4 1.262 . S
C11 O12 1.232 . S
O12 C11 1.232 . S
C13 O5 1.260 . S
C13 O6 1.257 . S
Zn14 O17 2.031 1_554 S
Zn14 O19 2.049 . S
Zn14 O24 2.077 . S
Zn15 O16 1.962 . S
Zn15 O18 1.986 . S
Zn15 O20 1.996 . S
Zn15 O23 1.943 . S
O16 Zn15 1.962 . S
O16 C21 1.254 . S
O17 Zn14 2.031 1_556 S
O17 C21 1.269 1_556 S
O18 Zn15 1.986 . S
O18 C25 1.262 . S
O19 Zn14 2.049 . S
O19 C27 1.260 . S
O20 Zn15 1.996 . S
O20 C27 1.257 . S
C21 O16 1.254 . S
C21 O17 1.269 1_554 S
C22 O23 1.249 1_556 S
C22 O24 1.266 1_556 S
O23 Zn15 1.943 . S
O23 C22 1.249 1_554 S
O24 Zn14 2.077 . S
O24 C22 1.266 1_554 S
C25 O18 1.262 . S
C25 O26 1.232 . S
O26 C25 1.232 . S
C27 O19 1.260 . S
C27 O20 1.257 . S
Zn28 O31 2.031 . S
Zn28 O33 2.049 1_554 S
Zn28 O38 2.067 1_565 S
Zn29 O30 1.962 1_545 S
Zn29 O32 1.986 1_554 S
Zn29 O34 1.996 1_544 S
Zn29 O37 1.943 . S
O30 Zn29 1.962 1_565 S
O30 C35 1.254 . S
O31 Zn28 2.031 . S
O31 C35 1.269 . S
O32 Zn29 1.986 1_556 S
O32 C39 1.262 . S
O33 Zn28 2.049 1_556 S
O33 C41 1.260 . S
O34 Zn29 1.996 1_566 S
O34 C41 1.257 . S
C35 O30 1.254 . S
C35 O31 1.269 . S
C36 O37 1.249 . S
C36 O38 1.270 . S
O37 Zn29 1.943 . S
O37 C36 1.249 . S
O38 Zn28 2.067 1_545 S
O38 C36 1.270 . S
C39 O32 1.262 . S
C39 O40 1.232 1_556 S
O40 C39 1.232 1_554 S
C41 O33 1.260 . S
C41 O34 1.257 . S
Zn42 O45 2.031 . S
Zn42 O47 2.049 1_554 S
Zn42 O52 2.067 . S
Zn43 O44 1.962 1_655 S
Zn43 O46 1.986 1_554 S
Zn43 O48 1.996 1_654 S
Zn43 O51 1.943 . S
O44 Zn43 1.962 1_455 S
O44 C49 1.254 . S
O45 Zn42 2.031 . S
O45 C49 1.269 . S
O46 Zn43 1.986 1_556 S
O46 C53 1.262 . S
O47 Zn42 2.049 1_556 S
O47 C55 1.260 . S
O48 Zn43 1.996 1_456 S
O48 C55 1.257 . S
C49 O44 1.254 . S
C49 O45 1.269 . S
C50 O51 1.249 . S
C50 O52 1.270 1_655 S
O51 Zn43 1.943 . S
O51 C50 1.249 . S
O52 Zn42 2.067 . S
O52 C50 1.270 1_455 S
C53 O46 1.262 . S
C53 O54 1.232 1_556 S
O54 C53 1.232 1_554 S
C55 O47 1.260 . S
C55 O48 1.257 . S
Zn56 O59 2.031 . S
Zn56 O61 2.049 1_554 S
Zn56 O66 2.067 . S
Zn57 O58 1.952 1_556 S
Zn57 O60 2.006 . S
Zn57 O62 2.009 . S
Zn57 O65 1.926 1_556 S
O58 Zn57 1.952 1_554 S
O58 C63 1.254 . S
O59 Zn56 2.031 . S
O59 C63 1.269 . S
O60 Zn57 2.006 . S
O60 C67 1.262 . S
O61 Zn56 2.049 1_556 S
O61 C69 1.260 . S
O62 Zn57 2.009 . S
O62 C69 1.257 . S
C63 O58 1.254 . S
C63 O59 1.269 . S
C64 O65 1.249 . S
C64 O66 1.270 . S
O65 Zn57 1.926 1_554 S
O65 C64 1.249 . S
O66 Zn56 2.067 . S
O66 C64 1.270 . S
C67 O60 1.262 . S
C67 O68 1.232 1_556 S
O68 C67 1.232 1_554 S
C69 O61 1.260 . S
C69 O62 1.257 . S
Zn70 O73 2.031 1_554 S
Zn70 O75 2.049 . S
Zn70 O80 2.067 1_554 S
Zn71 O72 1.962 1_565 S
Zn71 O74 1.986 . S
Zn71 O76 1.996 1_565 S
Zn71 O79 1.943 . S
O72 Zn71 1.962 1_545 S
O72 C77 1.254 . S
O73 Zn70 2.031 1_556 S
O73 C77 1.269 1_556 S
O74 Zn71 1.986 . S
O74 C81 1.262 . S
O75 Zn70 2.049 . S
O75 C83 1.260 . S
O76 Zn71 1.996 1_545 S
O76 C83 1.257 . S
C77 O72 1.254 . S
C77 O73 1.269 1_554 S
C78 O79 1.249 1_556 S
C78 O80 1.270 1_565 S
O79 Zn71 1.943 . S
O79 C78 1.249 1_554 S
O80 Zn70 2.067 1_556 S
O80 C78 1.270 1_545 S
C81 O74 1.262 . S
C81 O82 1.232 . S
O82 C81 1.232 . S
C83 O75 1.260 . S
C83 O76 1.257 . S
Zn84 O87 2.031 . S
Zn84 O89 2.049 . S
Zn84 O94 2.067 . S
Zn85 O86 1.962 . S
Zn85 O88 1.986 . S
Zn85 O90 1.996 . S
Zn85 O93 1.943 . S
O86 Zn85 1.962 . S
O86 C91 1.254 . S
O87 Zn84 2.031 . S
O87 C91 1.269 . S
O88 Zn85 1.986 . S
O88 C95 1.262 . S
O89 Zn84 2.049 . S
O89 C97 1.260 . S
O90 Zn85 1.996 . S
O90 C97 1.257 . S
C91 O86 1.254 . S
C91 O87 1.269 . S
C92 O93 1.249 . S
C92 O94 1.270 . S
O93 Zn85 1.943 . S
O93 C92 1.249 . S
O94 Zn84 2.067 . S
O94 C92 1.270 . S
C95 O88 1.262 . S
C95 O96 1.232 . S
O96 C95 1.232 . S
C97 O89 1.260 . S
C97 O90 1.257 . S
Zn98 O101 2.031 . S
Zn98 O103 2.049 . S
Zn98 O108 2.067 . S
Zn99 O100 1.962 . S
Zn99 O102 1.986 1_565 S
Zn99 O104 1.996 . S
Zn99 O107 1.943 . S
O100 Zn99 1.962 . S
O100 C105 1.254 . S
O101 Zn98 2.031 . S
O101 C105 1.269 . S
O102 Zn99 1.986 1_545 S
O102 C109 1.262 . S
O103 Zn98 2.049 . S
O103 C111 1.260 . S
O104 Zn99 1.996 . S
O104 C111 1.257 . S
C105 O100 1.254 . S
C105 O101 1.269 . S
C106 O107 1.249 . S
C106 O108 1.270 . S
O107 Zn99 1.943 . S
O107 C106 1.249 . S
O108 Zn98 2.067 . S
O108 C106 1.270 . S
C109 O102 1.262 . S
C109 O110 1.232 . S
O110 C109 1.232 . S
C111 O103 1.260 . S
C111 O104 1.257 . S
Zn112 O115 2.031 . S
Zn112 O117 2.049 . S
Zn112 O122 2.067 . S
Zn113 O114 1.962 1_455 S
Zn113 O116 1.986 . S
Zn113 O118 1.996 . S
Zn113 O121 1.943 . S
O114 Zn113 1.962 1_655 S
O114 C119 1.254 . S
O115 Zn112 2.031 . S
O115 C119 1.269 1_455 S
O116 Zn113 1.986 . S
O116 C123 1.262 . S
O117 Zn112 2.049 . S
O117 C125 1.260 . S
O118 Zn113 1.996 . S
O118 C125 1.257 . S
C119 O114 1.254 . S
C119 O115 1.269 1_655 S
C120 O121 1.249 . S
C120 O122 1.270 . S
O121 Zn113 1.943 . S
O121 C120 1.249 . S
O122 Zn112 2.067 . S
O122 C120 1.270 . S
C123 O116 1.262 . S
C123 O124 1.232 . S
O124 C123 1.232 . S
C125 O117 1.260 . S
C125 O118 1.257 . S
Zn126 O129 2.031 . S
Zn126 O131 2.049 . S
Zn126 O136 2.067 . S
Zn127 O128 1.962 1_565 S
Zn127 O130 1.986 . S
Zn127 O132 1.996 . S
Zn127 O135 1.943 . S
O128 Zn127 1.962 1_545 S
O128 C133 1.254 . S
O129 Zn126 2.031 . S
O129 C133 1.269 1_565 S
O130 Zn127 1.986 . S
O130 C137 1.262 . S
O131 Zn126 2.049 . S
O131 C139 1.260 . S
O132 Zn127 1.996 . S
O132 C139 1.257 . S
C133 O128 1.254 . S
C133 O129 1.269 1_545 S
C134 O135 1.249 . S
C134 O136 1.270 . S
O135 Zn127 1.943 . S
O135 C134 1.249 . S
O136 Zn126 2.067 . S
O136 C134 1.270 . S
C137 O130 1.262 . S
C137 O138 1.232 . S
O138 C137 1.232 . S
C139 O131 1.260 . S
C139 O132 1.257 . S
Zn140 O143 2.031 . S
Zn140 O145 2.049 . S
Zn140 O150 2.067 . S
Zn141 O142 1.962 1_455 S
Zn141 O144 1.986 . S
Zn141 O146 1.996 . S
Zn141 O149 1.943 . S
O142 Zn141 1.962 1_655 S
O142 C147 1.254 . S
O143 Zn140 2.031 . S
O143 C147 1.269 1_455 S
O144 Zn141 1.986 . S
O144 C151 1.262 . S
O145 Zn140 2.049 . S
O145 C153 1.260 . S
O146 Zn141 1.996 . S
O146 C153 1.257 . S
C147 O142 1.254 . S
C147 O143 1.269 1_655 S
C148 O149 1.249 . S
C148 O150 1.270 . S
O149 Zn141 1.943 . S
O149 C148 1.249 . S
O150 Zn140 2.067 . S
O150 C148 1.270 . S
C151 O144 1.262 . S
C151 O152 1.232 . S
O152 C151 1.232 . S
C153 O145 1.260 . S
C153 O146 1.257 . S
Zn154 O157 2.031 . S
Zn154 O159 2.049 . S
Zn154 O164 2.067 . S
Zn155 O156 1.962 . S
Zn155 O158 1.986 . S
Zn155 O160 1.996 . S
Zn155 O163 1.943 . S
O156 Zn155 1.962 . S
O156 C161 1.254 . S
O157 Zn154 2.031 . S
O157 C161 1.269 . S
O158 Zn155 1.986 . S
O158 C165 1.262 . S
O159 Zn154 2.049 . S
O159 C167 1.260 . S
O160 Zn155 1.996 . S
O160 C167 1.257 . S
C161 O156 1.254 . S
C161 O157 1.269 . S
C162 O163 1.249 . S
C162 O164 1.270 . S
O163 Zn155 1.943 . S
O163 C162 1.249 . S
O164 Zn154 2.067 . S
O164 C162 1.270 . S
C165 O158 1.262 . S
C165 O166 1.232 . S
O166 C165 1.232 . S
C167 O159 1.260 . S
C167 O160 1.257 . S
Zn168 O171 2.031 . S
Zn168 O173 2.049 . S
Zn168 O178 2.067 . S
Zn169 O170 1.962 1_545 S
Zn169 O172 1.986 . S
Zn169 O174 1.996 . S
Zn169 O177 1.943 . S
O170 Zn169 1.962 1_565 S
O170 C175 1.254 . S
O171 Zn168 2.031 . S
O171 C175 1.269 1_545 S
O172 Zn169 1.986 . S
O172 C179 1.262 . S
O173 Zn168 2.049 . S
O173 C181 1.260 . S
O174 Zn169 1.996 . S
O174 C181 1.257 . S
C175 O170 1.254 . S
C175 O171 1.269 1_565 S
C176 O177 1.249 . S
C176 O178 1.270 . S
O177 Zn169 1.943 . S
O177 C176 1.249 . S
O178 Zn168 2.067 . S
O178 C176 1.270 . S
C179 O172 1.262 . S
C179 O180 1.232 . S
O180 C179 1.232 . S
C181 O173 1.260 . S
C181 O174 1.257 . S
Zn182 O185 2.031 . S
Zn182 O187 2.049 . S
Zn182 O192 2.067 . S
Zn183 O184 1.962 1_655 S
Zn183 O186 1.986 . S
Zn183 O188 1.996 . S
Zn183 O191 1.943 . S
O184 Zn183 1.962 1_455 S
O184 C189 1.254 . S
O185 Zn182 2.031 . S
O185 C189 1.269 1_655 S
O186 Zn183 1.986 . S
O186 C193 1.262 . S
O187 Zn182 2.049 . S
O187 C195 1.260 . S
O188 Zn183 1.996 . S
O188 C195 1.257 . S
C189 O184 1.254 . S
C189 O185 1.269 1_455 S
C190 O191 1.249 . S
C190 O192 1.270 . S
O191 Zn183 1.943 . S
O191 C190 1.249 . S
O192 Zn182 2.067 . S
O192 C190 1.270 . S
C193 O186 1.262 . S
C193 O194 1.232 . S
O194 C193 1.232 . S
C195 O187 1.260 . S
C195 O188 1.257 . S
Zn196 O199 2.031 . S
Zn196 O201 2.049 . S
Zn196 O206 2.067 . S
Zn197 O198 1.962 . S
Zn197 O200 1.986 . S
Zn197 O202 1.996 . S
Zn197 O205 1.943 . S
O198 Zn197 1.962 . S
O198 C203 1.254 . S
O199 Zn196 2.031 . S
O199 C203 1.269 . S
O200 Zn197 1.986 . S
O200 C207 1.262 . S
O201 Zn196 2.049 . S
O201 C209 1.260 . S
O202 Zn197 1.996 . S
O202 C209 1.257 . S
C203 O198 1.254 . S
C203 O199 1.269 . S
C204 O205 1.249 . S
C204 O206 1.270 . S
O205 Zn197 1.943 . S
O205 C204 1.249 . S
O206 Zn196 2.067 . S
O206 C204 1.270 . S
C207 O200 1.262 . S
C207 O208 1.232 . S
O208 C207 1.232 . S
C209 O201 1.260 . S
C209 O202 1.257 . S
Zn210 O213 2.031 . S
Zn210 O215 2.049 . S
Zn210 O220 2.067 . S
Zn211 O212 1.962 . S
Zn211 O214 1.986 . S
Zn211 O216 1.996 . S
Zn211 O219 1.943 . S
O212 Zn211 1.962 . S
O212 C217 1.254 . S
O213 Zn210 2.031 . S
O213 C217 1.269 . S
O214 Zn211 1.986 . S
O214 C221 1.262 . S
O215 Zn210 2.049 . S
O215 C223 1.260 . S
O216 Zn211 1.996 . S
O216 C223 1.257 . S
C217 O212 1.254 . S
C217 O213 1.269 . S
C218 O219 1.249 . S
C218 O220 1.270 . S
O219 Zn211 1.943 . S
O219 C218 1.249 . S
O220 Zn210 2.067 . S
O220 C218 1.270 . S
C221 O214 1.262 . S
C221 O222 1.232 . S
O222 C221 1.232 . S
C223 O215 1.260 . S
C223 O216 1.257 . S
Zn224 O227 2.031 . S
Zn224 O229 2.049 . S
Zn224 O234 2.067 . S
Zn225 O226 1.962 . S
Zn225 O228 1.949 1_545 S
Zn225 O230 1.996 . S
Zn225 O233 1.943 . S
O226 Zn225 1.962 . S
O226 C231 1.254 . S
O227 Zn224 2.031 . S
O227 C231 1.269 . S
O228 Zn225 1.949 1_565 S
O228 C235 1.308 . S
O229 Zn224 2.049 . S
O229 C237 1.260 . S
O230 Zn225 1.996 . S
O230 C237 1.257 . S
C231 O226 1.254 . S
C231 O227 1.269 . S
C232 O233 1.249 . S
C232 O234 1.270 . S
O233 Zn225 1.943 . S
O233 C232 1.249 . S
O234 Zn224 2.067 . S
O234 C232 1.270 . S
C235 O228 1.308 . S
C235 O236 1.232 . S
O236 C235 1.232 . S
C237 O229 1.260 . S
C237 O230 1.257 . S
Zn238 O241 2.031 . S
Zn238 O243 2.049 . S
Zn238 O248 2.067 . S
Zn239 O240 1.962 1_655 S
Zn239 O242 1.986 . S
Zn239 O244 1.996 . S
Zn239 O247 1.943 . S
O240 Zn239 1.962 1_455 S
O240 C245 1.254 . S
O241 Zn238 2.031 . S
O241 C245 1.269 1_655 S
O242 Zn239 1.986 . S
O242 C249 1.262 . S
O243 Zn238 2.049 . S
O243 C251 1.260 . S
O244 Zn239 1.996 . S
O244 C251 1.257 . S
C245 O240 1.254 . S
C245 O241 1.269 1_455 S
C246 O247 1.249 . S
C246 O248 1.270 . S
O247 Zn239 1.943 . S
O247 C246 1.249 . S
O248 Zn238 2.067 . S
O248 C246 1.270 . S
C249 O242 1.262 . S
C249 O250 1.232 . S
O250 C249 1.232 . S
C251 O243 1.260 . S
C251 O244 1.257 . S
C252 C253 1.560 . S
C252 H313 0.959 . S
C252 H314 0.959 . S
C252 H315 0.960 . S
C253 C252 1.560 . S
C253 O308 1.426 . S
C253 H312 0.980 . S
C254 C255 1.407 . S
C254 C259 1.418 . S
C254 O308 1.334 . S
C255 C254 1.407 . S
C255 C256 1.360 . S
C255 H316 0.929 . S
C256 C255 1.360 . S
C256 C257 1.401 . S
C256 C260 1.527 . S
C257 C256 1.401 . S
C257 C258 1.405 . S
C257 C290 1.587 . S
C258 C257 1.405 . S
C258 C259 1.332 . S
C258 C261 1.496 . S
C259 C254 1.418 . S
C259 C258 1.332 . S
C259 H317 0.929 . S
C260 C256 1.527 . S
C260 H318 0.959 . S
C260 H319 0.961 . S
C260 H320 0.961 . S
C261 C258 1.496 . S
C261 H321 0.960 . S
C261 H322 0.960 . S
C261 H323 0.961 . S
C262 C263 1.517 . S
C262 H325 0.961 . S
C262 H326 0.960 . S
C262 H327 0.959 . S
C263 C262 1.517 . S
C263 O311 1.468 . S
C263 H324 0.980 . S
C264 C265 1.349 . S
C264 C269 1.367 . S
C264 O311 1.408 . S
C265 C264 1.349 . S
C265 C266 1.407 . S
C265 H328 0.930 . S
C266 C265 1.407 . S
C266 C267 1.449 . S
C266 C270 1.535 . S
C267 C266 1.449 . S
C267 C268 1.384 . S
C267 C292 1.553 . S
C268 C267 1.384 . S
C268 C269 1.364 . S
C268 C271 1.450 . S
C269 C264 1.367 . S
C269 C268 1.364 . S
C269 H329 0.931 . S
C270 C266 1.535 . S
C270 H330 0.959 . S
C270 H331 0.961 . S
C270 H332 0.959 . S
C271 C268 1.450 . S
C271 H333 0.960 . S
C271 H334 0.960 . S
C271 H335 0.960 . S
C272 C273 1.309 . S
C272 C277 1.304 . S
C272 O310 1.435 . S
C273 C272 1.309 . S
C273 C274 1.476 . S
C273 H337 0.930 . S
C274 C273 1.476 . S
C274 C275 1.400 . S
C274 C278 1.567 . S
C275 C274 1.400 . S
C275 C276 1.373 . S
C275 C297 1.432 . S
C276 C275 1.373 . S
C276 C277 1.339 . S
C276 C279 1.530 . S
C277 C272 1.304 . S
C277 C276 1.339 . S
C277 H338 0.930 . S
C278 C274 1.567 . S
C278 H339 0.961 . S
C278 H340 0.960 . S
C278 H341 0.958 . S
C279 C276 1.530 . S
C279 H342 0.961 . S
C279 H343 0.960 . S
C279 H344 0.960 . S
C280 C281 1.530 . S
C280 H346 0.961 . S
C280 H347 0.961 . S
C280 H348 0.959 . S
C281 C280 1.530 . S
C281 O309 1.412 . S
C281 H345 0.980 . S
C282 C283 1.288 . S
C282 C287 1.377 . S
C282 O309 1.393 . S
C283 C282 1.288 . S
C283 C284 1.369 . S
C283 H349 0.932 . S
C284 C283 1.369 . S
C284 C285 1.398 . S
C284 C288 1.527 . S
C285 C284 1.398 . S
C285 C286 1.380 . S
C285 C299 1.497 . S
C286 C285 1.380 . S
C286 C287 1.383 . S
C286 C289 1.603 . S
C287 C282 1.377 . S
C287 C286 1.383 . S
C287 H350 0.929 . S
C288 C284 1.527 . S
C288 H351 0.961 . S
C288 H352 0.959 . S
C288 H353 0.959 . S
C289 C286 1.603 . S
C289 H354 0.960 . S
C289 H355 0.962 . S
C289 H356 0.961 . S
C290 C257 1.587 . S
C290 C291 1.360 . S
C290 C303 1.412 . S
C291 C290 1.360 . S
C291 C292 1.365 . S
C291 H357 0.929 . S
C292 C267 1.553 . S
C292 C291 1.365 . S
C292 C293 1.404 . S
C293 C292 1.404 . S
C293 C294 1.395 . S
C293 C304 1.451 . S
C294 C293 1.395 . S
C294 C295 1.322 . S
C294 H358 0.930 . S
C295 C294 1.322 . S
C295 C296 1.459 . S
C295 H359 0.929 . S
C296 C295 1.459 . S
C296 C297 1.445 . S
C296 C305 1.395 . S
C297 C275 1.432 . S
C297 C296 1.445 . S
C297 C298 1.370 . S
C298 C297 1.370 . S
C298 C299 1.438 . S
C298 H360 0.930 . S
C299 C285 1.497 . S
C299 C298 1.438 . S
C299 C300 1.360 . S
C300 C299 1.360 . S
C300 C301 1.401 . S
C300 C305 1.446 . S
C301 C300 1.401 . S
C301 C302 1.347 . S
C301 H361 0.929 . S
C302 C301 1.347 . S
C302 C303 1.455 . S
C302 H362 0.930 . S
C303 C290 1.412 . S
C303 C302 1.455 . S
C303 C304 1.331 . S
C304 C293 1.451 . S
C304 C303 1.331 . S
C304 C305 1.497 . S
C305 C296 1.395 . S
C305 C300 1.446 . S
C305 C304 1.497 . S
C306 C307 1.582 . S
C306 H363 0.962 . S
C306 H364 0.959 . S
C306 H365 0.958 . S
C307 C306 1.582 . S
C307 O310 1.458 . S
C307 H336 0.980 . S
O308 C253 1.426 . S
O308 C254 1.334 . S
O309 C281 1.412 . S
O309 C282 1.393 . S
O310 C272 1.435 . S
O310 C307 1.458 . S
O311 C263 1.468 . S
O311 C264 1.408 . S
H312 C253 0.980 . S
H313 C252 0.959 . S
H314 C252 0.959 . S
H315 C252 0.960 . S
H316 C255 0.929 . S
H317 C259 0.929 . S
H318 C260 0.959 . S
H319 C260 0.961 . S
H320 C260 0.961 . S
H321 C261 0.960 . S
H322 C261 0.960 . S
H323 C261 0.961 . S
H324 C263 0.980 . S
H325 C262 0.961 . S
H326 C262 0.960 . S
H327 C262 0.959 . S
H328 C265 0.930 . S
H329 C269 0.931 . S
H330 C270 0.959 . S
H331 C270 0.961 . S
H332 C270 0.959 . S
H333 C271 0.960 . S
H334 C271 0.960 . S
H335 C271 0.960 . S
H336 C307 0.980 . S
H337 C273 0.930 . S
H338 C277 0.930 . S
H339 C278 0.961 . S
H340 C278 0.960 . S
H341 C278 0.958 . S
H342 C279 0.961 . S
H343 C279 0.960 . S
H344 C279 0.960 . S
H345 C281 0.980 . S
H346 C280 0.961 . S
H347 C280 0.961 . S
H348 C280 0.959 . S
H349 C283 0.932 . S
H350 C287 0.929 . S
H351 C288 0.961 . S
H352 C288 0.959 . S
H353 C288 0.959 . S
H354 C289 0.960 . S
H355 C289 0.962 . S
H356 C289 0.961 . S
H357 C291 0.929 . S
H358 C294 0.930 . S
H359 C295 0.929 . S
H360 C298 0.930 . S
H361 C301 0.929 . S
H362 C302 0.930 . S
H363 C306 0.962 . S
H364 C306 0.959 . S
H365 C306 0.958 . S
C366 C367 1.560 . S
C366 H427 0.959 . S
C366 H428 0.959 . S
C366 H429 0.960 . S
C367 C366 1.560 . S
C367 O422 1.426 . S
C367 H426 0.980 . S
C368 C369 1.407 . S
C368 C373 1.418 . S
C368 O422 1.334 . S
C369 C368 1.407 . S
C369 C370 1.360 . S
C369 H430 0.929 . S
C370 C369 1.360 . S
C370 C371 1.401 . S
C370 C374 1.527 . S
C371 C370 1.401 . S
C371 C372 1.405 . S
C371 C404 1.587 . S
C372 C371 1.405 . S
C372 C373 1.332 . S
C372 C375 1.496 . S
C373 C368 1.418 . S
C373 C372 1.332 . S
C373 H431 0.929 . S
C374 C370 1.527 . S
C374 H432 0.959 . S
C374 H433 0.961 . S
C374 H434 0.961 . S
C375 C372 1.496 . S
C375 H435 0.960 . S
C375 H436 0.960 . S
C375 H437 0.961 . S
C376 C377 1.517 . S
C376 H439 0.961 . S
C376 H440 0.960 . S
C376 H441 0.959 . S
C377 C376 1.517 . S
C377 O425 1.468 . S
C377 H438 0.980 . S
C378 C379 1.349 . S
C378 C383 1.367 . S
C378 O425 1.408 . S
C379 C378 1.349 . S
C379 C380 1.407 . S
C379 H442 0.930 . S
C380 C379 1.407 . S
C380 C381 1.449 . S
C380 C384 1.535 . S
C381 C380 1.449 . S
C381 C382 1.384 . S
C381 C406 1.553 . S
C382 C381 1.384 . S
C382 C383 1.364 . S
C382 C385 1.450 . S
C383 C378 1.367 . S
C383 C382 1.364 . S
C383 H443 0.931 . S
C384 C380 1.535 . S
C384 H444 0.959 . S
C384 H445 0.961 . S
C384 H446 0.959 . S
C385 C382 1.450 . S
C385 H447 0.960 . S
C385 H448 0.960 . S
C385 H449 0.960 . S
C386 C387 1.309 . S
C386 C391 1.304 . S
C386 O424 1.435 . S
C387 C386 1.309 . S
C387 C388 1.476 . S
C387 H451 0.930 . S
C388 C387 1.476 . S
C388 C389 1.400 . S
C388 C392 1.567 . S
C389 C388 1.400 . S
C389 C390 1.373 . S
C389 C411 1.432 . S
C390 C389 1.373 . S
C390 C391 1.339 . S
C390 C393 1.530 . S
C391 C386 1.304 . S
C391 C390 1.339 . S
C391 H452 0.930 . S
C392 C388 1.567 . S
C392 H453 0.961 . S
C392 H454 0.960 . S
C392 H455 0.958 . S
C393 C390 1.530 . S
C393 H456 0.961 . S
C393 H457 0.960 . S
C393 H458 0.960 . S
C394 C395 1.530 . S
C394 H460 0.961 . S
C394 H461 0.961 . S
C394 H462 0.959 . S
C395 C394 1.530 . S
C395 O423 1.412 . S
C395 H459 0.980 . S
C396 C397 1.288 . S
C396 C401 1.377 . S
C396 O423 1.393 . S
C397 C396 1.288 . S
C397 C398 1.369 . S
C397 H463 0.932 . S
C398 C397 1.369 . S
C398 C399 1.398 . S
C398 C402 1.527 . S
C399 C398 1.398 . S
C399 C400 1.380 . S
C399 C413 1.497 . S
C400 C399 1.380 . S
C400 C401 1.383 . S
C400 C403 1.603 . S
C401 C396 1.377 . S
C401 C400 1.383 . S
C401 H464 0.929 . S
C402 C398 1.527 . S
C402 H465 0.961 . S
C402 H466 0.959 . S
C402 H467 0.959 . S
C403 C400 1.603 . S
C403 H468 0.960 . S
C403 H469 0.962 . S
C403 H470 0.961 . S
C404 C371 1.587 . S
C404 C405 1.360 . S
C404 C417 1.412 . S
C405 C404 1.360 . S
C405 C406 1.365 . S
C405 H471 0.929 . S
C406 C381 1.553 . S
C406 C405 1.365 . S
C406 C407 1.404 . S
C407 C406 1.404 . S
C407 C408 1.395 . S
C407 C418 1.451 . S
C408 C407 1.395 . S
C408 C409 1.322 . S
C408 H472 0.930 . S
C409 C408 1.322 . S
C409 C410 1.459 . S
C409 H473 0.929 . S
C410 C409 1.459 . S
C410 C411 1.445 . S
C410 C419 1.395 . S
C411 C389 1.432 . S
C411 C410 1.445 . S
C411 C412 1.370 . S
C412 C411 1.370 . S
C412 C413 1.438 . S
C412 H474 0.930 . S
C413 C399 1.497 . S
C413 C412 1.438 . S
C413 C414 1.360 . S
C414 C413 1.360 . S
C414 C415 1.401 . S
C414 C419 1.446 . S
C415 C414 1.401 . S
C415 C416 1.347 . S
C415 H475 0.929 . S
C416 C415 1.347 . S
C416 C417 1.455 . S
C416 H476 0.930 . S
C417 C404 1.412 . S
C417 C416 1.455 . S
C417 C418 1.331 . S
C418 C407 1.451 . S
C418 C417 1.331 . S
C418 C419 1.497 . S
C419 C410 1.395 . S
C419 C414 1.446 . S
C419 C418 1.497 . S
C420 C421 1.582 . S
C420 H477 0.962 . S
C420 H478 0.959 . S
C420 H479 0.958 . S
C421 C420 1.582 . S
C421 O424 1.458 . S
C421 H450 0.980 . S
O422 C367 1.426 . S
O422 C368 1.334 . S
O423 C395 1.412 . S
O423 C396 1.393 . S
O424 C386 1.435 . S
O424 C421 1.458 . S
O425 C377 1.468 . S
O425 C378 1.408 . S
H426 C367 0.980 . S
H427 C366 0.959 . S
H428 C366 0.959 . S
H429 C366 0.960 . S
H430 C369 0.929 . S
H431 C373 0.929 . S
H432 C374 0.959 . S
H433 C374 0.961 . S
H434 C374 0.961 . S
H435 C375 0.960 . S
H436 C375 0.960 . S
H437 C375 0.961 . S
H438 C377 0.980 . S
H439 C376 0.961 . S
H440 C376 0.960 . S
H441 C376 0.959 . S
H442 C379 0.930 . S
H443 C383 0.931 . S
H444 C384 0.959 . S
H445 C384 0.961 . S
H446 C384 0.959 . S
H447 C385 0.960 . S
H448 C385 0.960 . S
H449 C385 0.960 . S
H450 C421 0.980 . S
H451 C387 0.930 . S
H452 C391 0.930 . S
H453 C392 0.961 . S
H454 C392 0.960 . S
H455 C392 0.958 . S
H456 C393 0.961 . S
H457 C393 0.960 . S
H458 C393 0.960 . S
H459 C395 0.980 . S
H460 C394 0.961 . S
H461 C394 0.961 . S
H462 C394 0.959 . S
H463 C397 0.932 . S
H464 C401 0.929 . S
H465 C402 0.961 . S
H466 C402 0.959 . S
H467 C402 0.959 . S
H468 C403 0.960 . S
H469 C403 0.962 . S
H470 C403 0.961 . S
H471 C405 0.929 . S
H472 C408 0.930 . S
H473 C409 0.929 . S
H474 C412 0.930 . S
H475 C415 0.929 . S
H476 C416 0.930 . S
H477 C420 0.962 . S
H478 C420 0.959 . S
H479 C420 0.958 . S
C480 C481 1.560 . S
C480 H541 0.959 . S
C480 H542 0.959 . S
C480 H543 0.960 . S
C481 C480 1.560 . S
C481 O536 1.426 . S
C481 H540 0.980 . S
C482 C483 1.407 . S
C482 C487 1.418 . S
C482 O536 1.334 . S
C483 C482 1.407 . S
C483 C484 1.360 . S
C483 H544 0.929 . S
C484 C483 1.360 . S
C484 C485 1.401 . S
C484 C488 1.527 . S
C485 C484 1.401 . S
C485 C486 1.405 . S
C485 C518 1.587 . S
C486 C485 1.405 . S
C486 C487 1.332 . S
C486 C489 1.496 . S
C487 C482 1.418 . S
C487 C486 1.332 . S
C487 H545 0.929 . S
C488 C484 1.527 . S
C488 H546 0.959 . S
C488 H547 0.961 . S
C488 H548 0.961 . S
C489 C486 1.496 . S
C489 H549 0.960 . S
C489 H550 0.960 . S
C489 H551 0.961 . S
C490 C491 1.517 . S
C490 H553 0.961 . S
C490 H554 0.960 . S
C490 H555 0.959 . S
C491 C490 1.517 . S
C491 O539 1.468 . S
C491 H552 0.980 . S
C492 C493 1.349 . S
C492 C497 1.367 . S
C492 O539 1.408 . S
C493 C492 1.349 . S
C493 C494 1.407 . S
C493 H556 0.930 . S
C494 C493 1.407 . S
C494 C495 1.449 . S
C494 C498 1.535 . S
C495 C494 1.449 . S
C495 C496 1.384 . S
C495 C520 1.553 . S
C496 C495 1.384 . S
C496 C497 1.364 . S
C496 C499 1.450 . S
C497 C492 1.367 . S
C497 C496 1.364 . S
C497 H557 0.931 . S
C498 C494 1.535 . S
C498 H558 0.959 . S
C498 H559 0.961 . S
C498 H560 0.959 . S
C499 C496 1.450 . S
C499 H561 0.960 . S
C499 H562 0.960 . S
C499 H563 0.960 . S
C500 C501 1.309 . S
C500 C505 1.304 . S
C500 O538 1.435 . S
C501 C500 1.309 . S
C501 C502 1.476 . S
C501 H565 0.930 . S
C502 C501 1.476 . S
C502 C503 1.400 . S
C502 C506 1.567 . S
C503 C502 1.400 . S
C503 C504 1.373 . S
C503 C525 1.432 . S
C504 C503 1.373 . S
C504 C505 1.339 . S
C504 C507 1.530 . S
C505 C500 1.304 . S
C505 C504 1.339 . S
C505 H566 0.930 . S
C506 C502 1.567 . S
C506 H567 0.961 . S
C506 H568 0.960 . S
C506 H569 0.958 . S
C507 C504 1.530 . S
C507 H570 0.961 . S
C507 H571 0.960 . S
C507 H572 0.960 . S
C508 C509 1.530 . S
C508 H574 0.961 . S
C508 H575 0.961 . S
C508 H576 0.959 . S
C509 C508 1.530 . S
C509 O537 1.412 . S
C509 H573 0.980 . S
C510 C511 1.288 . S
C510 C515 1.377 . S
C510 O537 1.393 . S
C511 C510 1.288 . S
C511 C512 1.369 . S
C511 H577 0.932 . S
C512 C511 1.369 . S
C512 C513 1.398 . S
C512 C516 1.527 . S
C513 C512 1.398 . S
C513 C514 1.380 . S
C513 C527 1.497 . S
C514 C513 1.380 . S
C514 C515 1.383 . S
C514 C517 1.603 . S
C515 C510 1.377 . S
C515 C514 1.383 . S
C515 H578 0.929 . S
C516 C512 1.527 . S
C516 H579 0.961 . S
C516 H580 0.959 . S
C516 H581 0.959 . S
C517 C514 1.603 . S
C517 H582 0.960 . S
C517 H583 0.962 . S
C517 H584 0.961 . S
C518 C485 1.587 . S
C518 C519 1.360 . S
C518 C531 1.412 . S
C519 C518 1.360 . S
C519 C520 1.365 . S
C519 H585 0.929 . S
C520 C495 1.553 . S
C520 C519 1.365 . S
C520 C521 1.404 . S
C521 C520 1.404 . S
C521 C522 1.395 . S
C521 C532 1.451 . S
C522 C521 1.395 . S
C522 C523 1.322 . S
C522 H586 0.930 . S
C523 C522 1.322 . S
C523 C524 1.459 . S
C523 H587 0.929 . S
C524 C523 1.459 . S
C524 C525 1.445 . S
C524 C533 1.395 . S
C525 C503 1.432 . S
C525 C524 1.445 . S
C525 C526 1.370 . S
C526 C525 1.370 . S
C526 C527 1.438 . S
C526 H588 0.930 . S
C527 C513 1.497 . S
C527 C526 1.438 . S
C527 C528 1.360 . S
C528 C527 1.360 . S
C528 C529 1.401 . S
C528 C533 1.446 . S
C529 C528 1.401 . S
C529 C530 1.347 . S
C529 H589 0.929 . S
C530 C529 1.347 . S
C530 C531 1.455 . S
C530 H590 0.930 . S
C531 C518 1.412 . S
C531 C530 1.455 . S
C531 C532 1.331 . S
C532 C521 1.451 . S
C532 C531 1.331 . S
C532 C533 1.497 . S
C533 C524 1.395 . S
C533 C528 1.446 . S
C533 C532 1.497 . S
C534 C535 1.582 . S
C534 H591 0.962 . S
C534 H592 0.959 . S
C534 H593 0.958 . S
C535 C534 1.582 . S
C535 O538 1.458 . S
C535 H564 0.980 . S
O536 C481 1.426 . S
O536 C482 1.334 . S
O537 C509 1.412 . S
O537 C510 1.393 . S
O538 C500 1.435 . S
O538 C535 1.458 . S
O539 C491 1.468 . S
O539 C492 1.408 . S
H540 C481 0.980 . S
H541 C480 0.959 . S
H542 C480 0.959 . S
H543 C480 0.960 . S
H544 C483 0.929 . S
H545 C487 0.929 . S
H546 C488 0.959 . S
H547 C488 0.961 . S
H548 C488 0.961 . S
H549 C489 0.960 . S
H550 C489 0.960 . S
H551 C489 0.961 . S
H552 C491 0.980 . S
H553 C490 0.961 . S
H554 C490 0.960 . S
H555 C490 0.959 . S
H556 C493 0.930 . S
H557 C497 0.931 . S
H558 C498 0.959 . S
H559 C498 0.961 . S
H560 C498 0.959 . S
H561 C499 0.960 . S
H562 C499 0.960 . S
H563 C499 0.960 . S
H564 C535 0.980 . S
H565 C501 0.930 . S
H566 C505 0.930 . S
H567 C506 0.961 . S
H568 C506 0.960 . S
H569 C506 0.958 . S
H570 C507 0.961 . S
H571 C507 0.960 . S
H572 C507 0.960 . S
H573 C509 0.980 . S
H574 C508 0.961 . S
H575 C508 0.961 . S
H576 C508 0.959 . S
H577 C511 0.932 . S
H578 C515 0.929 . S
H579 C516 0.961 . S
H580 C516 0.959 . S
H581 C516 0.959 . S
H582 C517 0.960 . S
H583 C517 0.962 . S
H584 C517 0.961 . S
H585 C519 0.929 . S
H586 C522 0.930 . S
H587 C523 0.929 . S
H588 C526 0.930 . S
H589 C529 0.929 . S
H590 C530 0.930 . S
H591 C534 0.962 . S
H592 C534 0.959 . S
H593 C534 0.958 . S
C594 C595 1.560 . S
C594 H655 0.959 . S
C594 H656 0.959 . S
C594 H657 0.960 . S
C595 C594 1.560 . S
C595 O650 1.426 . S
C595 H654 0.980 . S
C596 C597 1.407 . S
C596 C601 1.418 . S
C596 O650 1.334 . S
C597 C596 1.407 . S
C597 C598 1.360 . S
C597 H658 0.929 . S
C598 C597 1.360 . S
C598 C599 1.401 . S
C598 C602 1.527 . S
C599 C598 1.401 . S
C599 C600 1.405 . S
C599 C632 1.587 . S
C600 C599 1.405 . S
C600 C601 1.332 . S
C600 C603 1.496 . S
C601 C596 1.418 . S
C601 C600 1.332 . S
C601 H659 0.929 . S
C602 C598 1.527 . S
C602 H660 0.959 . S
C602 H661 0.961 . S
C602 H662 0.961 . S
C603 C600 1.496 . S
C603 H663 0.960 . S
C603 H664 0.960 . S
C603 H665 0.961 . S
C604 C605 1.517 . S
C604 H667 0.961 . S
C604 H668 0.960 . S
C604 H669 0.959 . S
C605 C604 1.517 . S
C605 O653 1.468 . S
C605 H666 0.980 . S
C606 C607 1.349 . S
C606 C611 1.367 . S
C606 O653 1.408 . S
C607 C606 1.349 . S
C607 C608 1.407 . S
C607 H670 0.930 . S
C608 C607 1.407 . S
C608 C609 1.449 . S
C608 C612 1.535 . S
C609 C608 1.449 . S
C609 C610 1.384 . S
C609 C634 1.553 . S
C610 C609 1.384 . S
C610 C611 1.364 . S
C610 C613 1.450 . S
C611 C606 1.367 . S
C611 C610 1.364 . S
C611 H671 0.931 . S
C612 C608 1.535 . S
C612 H672 0.959 . S
C612 H673 0.961 . S
C612 H674 0.959 . S
C613 C610 1.450 . S
C613 H675 0.960 . S
C613 H676 0.960 . S
C613 H677 0.960 . S
C614 C615 1.309 . S
C614 C619 1.304 . S
C614 O652 1.435 . S
C615 C614 1.309 . S
C615 C616 1.476 . S
C615 H679 0.930 . S
C616 C615 1.476 . S
C616 C617 1.400 . S
C616 C620 1.567 . S
C617 C616 1.400 . S
C617 C618 1.373 . S
C617 C639 1.432 . S
C618 C617 1.373 . S
C618 C619 1.339 . S
C618 C621 1.530 . S
C619 C614 1.304 . S
C619 C618 1.339 . S
C619 H680 0.930 . S
C620 C616 1.567 . S
C620 H681 0.961 . S
C620 H682 0.960 . S
C620 H683 0.958 . S
C621 C618 1.530 . S
C621 H684 0.961 . S
C621 H685 0.960 . S
C621 H686 0.960 . S
C622 C623 1.530 . S
C622 H688 0.961 . S
C622 H689 0.961 . S
C622 H690 0.959 . S
C623 C622 1.530 . S
C623 O651 1.412 . S
C623 H687 0.980 . S
C624 C625 1.288 . S
C624 C629 1.377 . S
C624 O651 1.393 . S
C625 C624 1.288 . S
C625 C626 1.369 . S
C625 H691 0.932 . S
C626 C625 1.369 . S
C626 C627 1.398 . S
C626 C630 1.527 . S
C627 C626 1.398 . S
C627 C628 1.380 . S
C627 C641 1.497 . S
C628 C627 1.380 . S
C628 C629 1.383 . S
C628 C631 1.603 . S
C629 C624 1.377 . S
C629 C628 1.383 . S
C629 H692 0.929 . S
C630 C626 1.527 . S
C630 H693 0.961 . S
C630 H694 0.959 . S
C630 H695 0.959 . S
C631 C628 1.603 . S
C631 H696 0.960 . S
C631 H697 0.962 . S
C631 H698 0.961 . S
C632 C599 1.587 . S
C632 C633 1.360 . S
C632 C645 1.412 . S
C633 C632 1.360 . S
C633 C634 1.365 . S
C633 H699 0.929 . S
C634 C609 1.553 . S
C634 C633 1.365 . S
C634 C635 1.404 . S
C635 C634 1.404 . S
C635 C636 1.395 . S
C635 C646 1.451 . S
C636 C635 1.395 . S
C636 C637 1.322 . S
C636 H700 0.930 . S
C637 C636 1.322 . S
C637 C638 1.459 . S
C637 H701 0.929 . S
C638 C637 1.459 . S
C638 C639 1.445 . S
C638 C647 1.395 . S
C639 C617 1.432 . S
C639 C638 1.445 . S
C639 C640 1.370 . S
C640 C639 1.370 . S
C640 C641 1.438 . S
C640 H702 0.930 . S
C641 C627 1.497 . S
C641 C640 1.438 . S
C641 C642 1.360 . S
C642 C641 1.360 . S
C642 C643 1.401 . S
C642 C647 1.446 . S
C643 C642 1.401 . S
C643 C644 1.347 . S
C643 H703 0.929 . S
C644 C643 1.347 . S
C644 C645 1.455 . S
C644 H704 0.930 . S
C645 C632 1.412 . S
C645 C644 1.455 . S
C645 C646 1.331 . S
C646 C635 1.451 . S
C646 C645 1.331 . S
C646 C647 1.497 . S
C647 C638 1.395 . S
C647 C642 1.446 . S
C647 C646 1.497 . S
C648 C649 1.582 . S
C648 H705 0.962 . S
C648 H706 0.959 . S
C648 H707 0.958 . S
C649 C648 1.582 . S
C649 O652 1.458 . S
C649 H678 0.980 . S
O650 C595 1.426 . S
O650 C596 1.334 . S
O651 C623 1.412 . S
O651 C624 1.393 . S
O652 C614 1.435 . S
O652 C649 1.458 . S
O653 C605 1.468 . S
O653 C606 1.408 . S
H654 C595 0.980 . S
H655 C594 0.959 . S
H656 C594 0.959 . S
H657 C594 0.960 . S
H658 C597 0.929 . S
H659 C601 0.929 . S
H660 C602 0.959 . S
H661 C602 0.961 . S
H662 C602 0.961 . S
H663 C603 0.960 . S
H664 C603 0.960 . S
H665 C603 0.961 . S
H666 C605 0.980 . S
H667 C604 0.961 . S
H668 C604 0.960 . S
H669 C604 0.959 . S
H670 C607 0.930 . S
H671 C611 0.931 . S
H672 C612 0.959 . S
H673 C612 0.961 . S
H674 C612 0.959 . S
H675 C613 0.960 . S
H676 C613 0.960 . S
H677 C613 0.960 . S
H678 C649 0.980 . S
H679 C615 0.930 . S
H680 C619 0.930 . S
H681 C620 0.961 . S
H682 C620 0.960 . S
H683 C620 0.958 . S
H684 C621 0.961 . S
H685 C621 0.960 . S
H686 C621 0.960 . S
H687 C623 0.980 . S
H688 C622 0.961 . S
H689 C622 0.961 . S
H690 C622 0.959 . S
H691 C625 0.932 . S
H692 C629 0.929 . S
H693 C630 0.961 . S
H694 C630 0.959 . S
H695 C630 0.959 . S
H696 C631 0.960 . S
H697 C631 0.962 . S
H698 C631 0.961 . S
H699 C633 0.929 . S
H700 C636 0.930 . S
H701 C637 0.929 . S
H702 C640 0.930 . S
H703 C643 0.929 . S
H704 C644 0.930 . S
H705 C648 0.962 . S
H706 C648 0.959 . S
H707 C648 0.958 . S
C708 C709 1.560 . S
C708 H769 0.959 . S
C708 H770 0.959 . S
C708 H771 0.960 . S
C709 C708 1.560 . S
C709 O764 1.426 . S
C709 H768 0.980 . S
C710 C711 1.407 . S
C710 C715 1.418 . S
C710 O764 1.334 . S
C711 C710 1.407 . S
C711 C712 1.360 . S
C711 H772 0.929 . S
C712 C711 1.360 . S
C712 C713 1.401 . S
C712 C716 1.527 . S
C713 C712 1.401 . S
C713 C714 1.405 . S
C713 C746 1.587 . S
C714 C713 1.405 . S
C714 C715 1.332 . S
C714 C717 1.496 . S
C715 C710 1.418 . S
C715 C714 1.332 . S
C715 H773 0.929 . S
C716 C712 1.527 . S
C716 H774 0.959 . S
C716 H775 0.961 . S
C716 H776 0.961 . S
C717 C714 1.496 . S
C717 H777 0.960 . S
C717 H778 0.960 . S
C717 H779 0.961 . S
C718 C719 1.517 . S
C718 H781 0.961 . S
C718 H782 0.960 . S
C718 H783 0.959 . S
C719 C718 1.517 . S
C719 O767 1.468 . S
C719 H780 0.980 . S
C720 C721 1.349 . S
C720 C725 1.367 . S
C720 O767 1.408 . S
C721 C720 1.349 . S
C721 C722 1.407 . S
C721 H784 0.930 . S
C722 C721 1.407 . S
C722 C723 1.449 . S
C722 C726 1.535 . S
C723 C722 1.449 . S
C723 C724 1.384 . S
C723 C748 1.553 . S
C724 C723 1.384 . S
C724 C725 1.364 . S
C724 C727 1.450 . S
C725 C720 1.367 . S
C725 C724 1.364 . S
C725 H785 0.931 . S
C726 C722 1.535 . S
C726 H786 0.959 . S
C726 H787 0.961 . S
C726 H788 0.959 . S
C727 C724 1.450 . S
C727 H789 0.960 . S
C727 H790 0.960 . S
C727 H791 0.960 . S
C728 C729 1.309 . S
C728 C733 1.304 . S
C728 O766 1.435 . S
C729 C728 1.309 . S
C729 C730 1.476 . S
C729 H793 0.930 . S
C730 C729 1.476 . S
C730 C731 1.400 . S
C730 C734 1.567 . S
C731 C730 1.400 . S
C731 C732 1.373 . S
C731 C753 1.432 . S
C732 C731 1.373 . S
C732 C733 1.339 . S
C732 C735 1.530 . S
C733 C728 1.304 . S
C733 C732 1.339 . S
C733 H794 0.930 . S
C734 C730 1.567 . S
C734 H795 0.961 . S
C734 H796 0.960 . S
C734 H797 0.958 . S
C735 C732 1.530 . S
C735 H798 0.961 . S
C735 H799 0.960 . S
C735 H800 0.960 . S
C736 C737 1.530 . S
C736 H802 0.961 . S
C736 H803 0.961 . S
C736 H804 0.959 . S
C737 C736 1.530 . S
C737 O765 1.412 . S
C737 H801 0.980 . S
C738 C739 1.288 . S
C738 C743 1.377 . S
C738 O765 1.393 . S
C739 C738 1.288 . S
C739 C740 1.369 . S
C739 H805 0.932 . S
C740 C739 1.369 . S
C740 C741 1.398 . S
C740 C744 1.527 . S
C741 C740 1.398 . S
C741 C742 1.380 . S
C741 C755 1.497 . S
C742 C741 1.380 . S
C742 C743 1.383 . S
C742 C745 1.603 . S
C743 C738 1.377 . S
C743 C742 1.383 . S
C743 H806 0.929 . S
C744 C740 1.527 . S
C744 H807 0.961 . S
C744 H808 0.959 . S
C744 H809 0.959 . S
C745 C742 1.603 . S
C745 H810 0.960 . S
C745 H811 0.962 . S
C745 H812 0.961 . S
C746 C713 1.587 . S
C746 C747 1.360 . S
C746 C759 1.412 . S
C747 C746 1.360 . S
C747 C748 1.365 . S
C747 H813 0.929 . S
C748 C723 1.553 . S
C748 C747 1.365 . S
C748 C749 1.404 . S
C749 C748 1.404 . S
C749 C750 1.395 . S
C749 C760 1.451 . S
C750 C749 1.395 . S
C750 C751 1.322 . S
C750 H814 0.930 . S
C751 C750 1.322 . S
C751 C752 1.459 . S
C751 H815 0.929 . S
C752 C751 1.459 . S
C752 C753 1.445 . S
C752 C761 1.395 . S
C753 C731 1.432 . S
C753 C752 1.445 . S
C753 C754 1.370 . S
C754 C753 1.370 . S
C754 C755 1.438 . S
C754 H816 0.930 . S
C755 C741 1.497 . S
C755 C754 1.438 . S
C755 C756 1.360 . S
C756 C755 1.360 . S
C756 C757 1.401 . S
C756 C761 1.446 . S
C757 C756 1.401 . S
C757 C758 1.347 . S
C757 H817 0.929 . S
C758 C757 1.347 . S
C758 C759 1.455 . S
C758 H818 0.930 . S
C759 C746 1.412 . S
C759 C758 1.455 . S
C759 C760 1.331 . S
C760 C749 1.451 . S
C760 C759 1.331 . S
C760 C761 1.497 . S
C761 C752 1.395 . S
C761 C756 1.446 . S
C761 C760 1.497 . S
C762 C763 1.582 . S
C762 H819 0.962 . S
C762 H820 0.959 . S
C762 H821 0.958 . S
C763 C762 1.582 . S
C763 O766 1.458 . S
C763 H792 0.980 . S
O764 C709 1.426 . S
O764 C710 1.334 . S
O765 C737 1.412 . S
O765 C738 1.393 . S
O766 C728 1.435 . S
O766 C763 1.458 . S
O767 C719 1.468 . S
O767 C720 1.408 . S
H768 C709 0.980 . S
H769 C708 0.959 . S
H770 C708 0.959 . S
H771 C708 0.960 . S
H772 C711 0.929 . S
H773 C715 0.929 . S
H774 C716 0.959 . S
H775 C716 0.961 . S
H776 C716 0.961 . S
H777 C717 0.960 . S
H778 C717 0.960 . S
H779 C717 0.961 . S
H780 C719 0.980 . S
H781 C718 0.961 . S
H782 C718 0.960 . S
H783 C718 0.959 . S
H784 C721 0.930 . S
H785 C725 0.931 . S
H786 C726 0.959 . S
H787 C726 0.961 . S
H788 C726 0.959 . S
H789 C727 0.960 . S
H790 C727 0.960 . S
H791 C727 0.960 . S
H792 C763 0.980 . S
H793 C729 0.930 . S
H794 C733 0.930 . S
H795 C734 0.961 . S
H796 C734 0.960 . S
H797 C734 0.958 . S
H798 C735 0.961 . S
H799 C735 0.960 . S
H800 C735 0.960 . S
H801 C737 0.980 . S
H802 C736 0.961 . S
H803 C736 0.961 . S
H804 C736 0.959 . S
H805 C739 0.932 . S
H806 C743 0.929 . S
H807 C744 0.961 . S
H808 C744 0.959 . S
H809 C744 0.959 . S
H810 C745 0.960 . S
H811 C745 0.962 . S
H812 C745 0.961 . S
H813 C747 0.929 . S
H814 C750 0.930 . S
H815 C751 0.929 . S
H816 C754 0.930 . S
H817 C757 0.929 . S
H818 C758 0.930 . S
H819 C762 0.962 . S
H820 C762 0.959 . S
H821 C762 0.958 . S
C822 C823 1.560 . S
C822 H883 0.959 . S
C822 H884 0.959 . S
C822 H885 0.960 . S
C823 C822 1.560 . S
C823 O878 1.426 . S
C823 H882 0.980 . S
C824 C825 1.407 . S
C824 C829 1.418 . S
C824 O878 1.334 . S
C825 C824 1.407 . S
C825 C826 1.360 . S
C825 H886 0.929 . S
C826 C825 1.360 . S
C826 C827 1.401 . S
C826 C830 1.527 . S
C827 C826 1.401 . S
C827 C828 1.405 . S
C827 C860 1.587 . S
C828 C827 1.405 . S
C828 C829 1.332 . S
C828 C831 1.496 . S
C829 C824 1.418 . S
C829 C828 1.332 . S
C829 H887 0.929 . S
C830 C826 1.527 . S
C830 H888 0.959 . S
C830 H889 0.961 . S
C830 H890 0.961 . S
C831 C828 1.496 . S
C831 H891 0.960 . S
C831 H892 0.960 . S
C831 H893 0.961 . S
C832 C833 1.517 . S
C832 H895 0.961 . S
C832 H896 0.960 . S
C832 H897 0.959 . S
C833 C832 1.517 . S
C833 O881 1.468 . S
C833 H894 0.980 . S
C834 C835 1.349 . S
C834 C839 1.367 . S
C834 O881 1.408 . S
C835 C834 1.349 . S
C835 C836 1.407 . S
C835 H898 0.930 . S
C836 C835 1.407 . S
C836 C837 1.449 . S
C836 C840 1.535 . S
C837 C836 1.449 . S
C837 C838 1.384 . S
C837 C862 1.553 . S
C838 C837 1.384 . S
C838 C839 1.364 . S
C838 C841 1.450 . S
C839 C834 1.367 . S
C839 C838 1.364 . S
C839 H899 0.931 . S
C840 C836 1.535 . S
C840 H900 0.959 . S
C840 H901 0.961 . S
C840 H902 0.959 . S
C841 C838 1.450 . S
C841 H903 0.960 . S
C841 H904 0.960 . S
C841 H905 0.960 . S
C842 C843 1.309 . S
C842 C847 1.304 . S
C842 O880 1.435 . S
C843 C842 1.309 . S
C843 C844 1.476 . S
C843 H907 0.930 . S
C844 C843 1.476 . S
C844 C845 1.400 . S
C844 C848 1.567 . S
C845 C844 1.400 . S
C845 C846 1.373 . S
C845 C867 1.432 . S
C846 C845 1.373 . S
C846 C847 1.339 . S
C846 C849 1.530 . S
C847 C842 1.304 . S
C847 C846 1.339 . S
C847 H908 0.930 . S
C848 C844 1.567 . S
C848 H909 0.961 . S
C848 H910 0.960 . S
C848 H911 0.958 . S
C849 C846 1.530 . S
C849 H912 0.961 . S
C849 H913 0.960 . S
C849 H914 0.960 . S
C850 C851 1.530 . S
C850 H916 0.961 . S
C850 H917 0.961 . S
C850 H918 0.959 . S
C851 C850 1.530 . S
C851 O879 1.412 . S
C851 H915 0.980 . S
C852 C853 1.288 . S
C852 C857 1.377 . S
C852 O879 1.393 . S
C853 C852 1.288 . S
C853 C854 1.369 . S
C853 H919 0.932 . S
C854 C853 1.369 . S
C854 C855 1.398 . S
C854 C858 1.527 . S
C855 C854 1.398 . S
C855 C856 1.380 . S
C855 C869 1.497 . S
C856 C855 1.380 . S
C856 C857 1.383 . S
C856 C859 1.603 . S
C857 C852 1.377 . S
C857 C856 1.383 . S
C857 H920 0.929 . S
C858 C854 1.527 . S
C858 H921 0.961 . S
C858 H922 0.959 . S
C858 H923 0.959 . S
C859 C856 1.603 . S
C859 H924 0.960 . S
C859 H925 0.962 . S
C859 H926 0.961 . S
C860 C827 1.587 . S
C860 C861 1.360 . S
C860 C873 1.412 . S
C861 C860 1.360 . S
C861 C862 1.365 . S
C861 H927 0.929 . S
C862 C837 1.553 . S
C862 C861 1.365 . S
C862 C863 1.404 . S
C863 C862 1.404 . S
C863 C864 1.395 . S
C863 C874 1.451 . S
C864 C863 1.395 . S
C864 C865 1.322 . S
C864 H928 0.930 . S
C865 C864 1.322 . S
C865 C866 1.459 . S
C865 H929 0.929 . S
C866 C865 1.459 . S
C866 C867 1.445 . S
C866 C875 1.395 . S
C867 C845 1.432 . S
C867 C866 1.445 . S
C867 C868 1.370 . S
C868 C867 1.370 . S
C868 C869 1.438 . S
C868 H930 0.930 . S
C869 C855 1.497 . S
C869 C868 1.438 . S
C869 C870 1.360 . S
C870 C869 1.360 . S
C870 C871 1.401 . S
C870 C875 1.446 . S
C871 C870 1.401 . S
C871 C872 1.347 . S
C871 H931 0.929 . S
C872 C871 1.347 . S
C872 C873 1.455 . S
C872 H932 0.930 . S
C873 C860 1.412 . S
C873 C872 1.455 . S
C873 C874 1.331 . S
C874 C863 1.451 . S
C874 C873 1.331 . S
C874 C875 1.497 . S
C875 C866 1.395 . S
C875 C870 1.446 . S
C875 C874 1.497 . S
C876 C877 1.582 . S
C876 H933 0.962 . S
C876 H934 0.959 . S
C876 H935 0.958 . S
C877 C876 1.582 . S
C877 O880 1.458 . S
C877 H906 0.980 . S
O878 C823 1.426 . S
O878 C824 1.334 . S
O879 C851 1.412 . S
O879 C852 1.393 . S
O880 C842 1.435 . S
O880 C877 1.458 . S
O881 C833 1.468 . S
O881 C834 1.408 . S
H882 C823 0.980 . S
H883 C822 0.959 . S
H884 C822 0.959 . S
H885 C822 0.960 . S
H886 C825 0.929 . S
H887 C829 0.929 . S
H888 C830 0.959 . S
H889 C830 0.961 . S
H890 C830 0.961 . S
H891 C831 0.960 . S
H892 C831 0.960 . S
H893 C831 0.961 . S
H894 C833 0.980 . S
H895 C832 0.961 . S
H896 C832 0.960 . S
H897 C832 0.959 . S
H898 C835 0.930 . S
H899 C839 0.931 . S
H900 C840 0.959 . S
H901 C840 0.961 . S
H902 C840 0.959 . S
H903 C841 0.960 . S
H904 C841 0.960 . S
H905 C841 0.960 . S
H906 C877 0.980 . S
H907 C843 0.930 . S
H908 C847 0.930 . S
H909 C848 0.961 . S
H910 C848 0.960 . S
H911 C848 0.958 . S
H912 C849 0.961 . S
H913 C849 0.960 . S
H914 C849 0.960 . S
H915 C851 0.980 . S
H916 C850 0.961 . S
H917 C850 0.961 . S
H918 C850 0.959 . S
H919 C853 0.932 . S
H920 C857 0.929 . S
H921 C858 0.961 . S
H922 C858 0.959 . S
H923 C858 0.959 . S
H924 C859 0.960 . S
H925 C859 0.962 . S
H926 C859 0.961 . S
H927 C861 0.929 . S
H928 C864 0.930 . S
H929 C865 0.929 . S
H930 C868 0.930 . S
H931 C871 0.929 . S
H932 C872 0.930 . S
H933 C876 0.962 . S
H934 C876 0.959 . S
H935 C876 0.958 . S
C936 C937 1.560 . S
C936 H997 0.959 . S
C936 H998 0.959 . S
C936 H999 0.960 . S
C937 C936 1.560 . S
C937 O992 1.426 . S
C937 H996 0.980 . S
C938 C939 1.407 . S
C938 C943 1.418 . S
C938 O992 1.334 . S
C939 C938 1.407 . S
C939 C940 1.360 . S
C939 H1000 0.929 . S
C940 C939 1.360 . S
C940 C941 1.401 . S
C940 C944 1.527 . S
C941 C940 1.401 . S
C941 C942 1.405 . S
C941 C974 1.587 . S
C942 C941 1.405 . S
C942 C943 1.332 . S
C942 C945 1.496 . S
C943 C938 1.418 . S
C943 C942 1.332 . S
C943 H1001 0.929 . S
C944 C940 1.527 . S
C944 H1002 0.959 . S
C944 H1003 0.961 . S
C944 H1004 0.961 . S
C945 C942 1.496 . S
C945 H1005 0.960 . S
C945 H1006 0.960 . S
C945 H1007 0.961 . S
C946 C947 1.517 . S
C946 H1009 0.961 . S
C946 H1010 0.960 . S
C946 H1011 0.959 . S
C947 C946 1.517 . S
C947 O995 1.468 . S
C947 H1008 0.980 . S
C948 C949 1.349 . S
C948 C953 1.367 . S
C948 O995 1.408 . S
C949 C948 1.349 . S
C949 C950 1.407 . S
C949 H1012 0.930 . S
C950 C949 1.407 . S
C950 C951 1.449 . S
C950 C954 1.535 . S
C951 C950 1.449 . S
C951 C952 1.384 . S
C951 C976 1.553 . S
C952 C951 1.384 . S
C952 C953 1.364 . S
C952 C955 1.450 . S
C953 C948 1.367 . S
C953 C952 1.364 . S
C953 H1013 0.931 . S
C954 C950 1.535 . S
C954 H1014 0.959 . S
C954 H1015 0.961 . S
C954 H1016 0.959 . S
C955 C952 1.450 . S
C955 H1017 0.960 . S
C955 H1018 0.960 . S
C955 H1019 0.960 . S
C956 C957 1.309 . S
C956 C961 1.304 . S
C956 O994 1.435 . S
C957 C956 1.309 . S
C957 C958 1.476 . S
C957 H1021 0.930 . S
C958 C957 1.476 . S
C958 C959 1.400 . S
C958 C962 1.567 . S
C959 C958 1.400 . S
C959 C960 1.373 . S
C959 C981 1.432 . S
C960 C959 1.373 . S
C960 C961 1.339 . S
C960 C963 1.530 . S
C961 C956 1.304 . S
C961 C960 1.339 . S
C961 H1022 0.930 . S
C962 C958 1.567 . S
C962 H1023 0.961 . S
C962 H1024 0.960 . S
C962 H1025 0.958 . S
C963 C960 1.530 . S
C963 H1026 0.961 . S
C963 H1027 0.960 . S
C963 H1028 0.960 . S
C964 C965 1.530 . S
C964 H1030 0.961 . S
C964 H1031 0.961 . S
C964 H1032 0.959 . S
C965 C964 1.530 . S
C965 O993 1.412 . S
C965 H1029 0.980 . S
C966 C967 1.288 . S
C966 C971 1.377 . S
C966 O993 1.393 . S
C967 C966 1.288 . S
C967 C968 1.369 . S
C967 H1033 0.932 . S
C968 C967 1.369 . S
C968 C969 1.398 . S
C968 C972 1.527 . S
C969 C968 1.398 . S
C969 C970 1.380 . S
C969 C983 1.497 . S
C970 C969 1.380 . S
C970 C971 1.383 . S
C970 C973 1.603 . S
C971 C966 1.377 . S
C971 C970 1.383 . S
C971 H1034 0.929 . S
C972 C968 1.527 . S
C972 H1035 0.961 . S
C972 H1036 0.959 . S
C972 H1037 0.959 . S
C973 C970 1.603 . S
C973 H1038 0.960 . S
C973 H1039 0.962 . S
C973 H1040 0.961 . S
C974 C941 1.587 . S
C974 C975 1.360 . S
C974 C987 1.412 . S
C975 C974 1.360 . S
C975 C976 1.365 . S
C975 H1041 0.929 . S
C976 C951 1.553 . S
C976 C975 1.365 . S
C976 C977 1.404 . S
C977 C976 1.404 . S
C977 C978 1.395 . S
C977 C988 1.451 . S
C978 C977 1.395 . S
C978 C979 1.322 . S
C978 H1042 0.930 . S
C979 C978 1.322 . S
C979 C980 1.459 . S
C979 H1043 0.929 . S
C980 C979 1.459 . S
C980 C981 1.445 . S
C980 C989 1.395 . S
C981 C959 1.432 . S
C981 C980 1.445 . S
C981 C982 1.370 . S
C982 C981 1.370 . S
C982 C983 1.438 . S
C982 H1044 0.930 . S
C983 C969 1.497 . S
C983 C982 1.438 . S
C983 C984 1.360 . S
C984 C983 1.360 . S
C984 C985 1.401 . S
C984 C989 1.446 . S
C985 C984 1.401 . S
C985 C986 1.347 . S
C985 H1045 0.929 . S
C986 C985 1.347 . S
C986 C987 1.455 . S
C986 H1046 0.930 . S
C987 C974 1.412 . S
C987 C986 1.455 . S
C987 C988 1.331 . S
C988 C977 1.451 . S
C988 C987 1.331 . S
C988 C989 1.497 . S
C989 C980 1.395 . S
C989 C984 1.446 . S
C989 C988 1.497 . S
C990 C991 1.582 . S
C990 H1047 0.962 . S
C990 H1048 0.959 . S
C990 H1049 0.958 . S
C991 C990 1.582 . S
C991 O994 1.458 . S
C991 H1020 0.980 . S
O992 C937 1.426 . S
O992 C938 1.334 . S
O993 C965 1.412 . S
O993 C966 1.393 . S
O994 C956 1.435 . S
O994 C991 1.458 . S
O995 C947 1.468 . S
O995 C948 1.408 . S
H996 C937 0.980 . S
H997 C936 0.959 . S
H998 C936 0.959 . S
H999 C936 0.960 . S
H1000 C939 0.929 . S
H1001 C943 0.929 . S
H1002 C944 0.959 . S
H1003 C944 0.961 . S
H1004 C944 0.961 . S
H1005 C945 0.960 . S
H1006 C945 0.960 . S
H1007 C945 0.961 . S
H1008 C947 0.980 . S
H1009 C946 0.961 . S
H1010 C946 0.960 . S
H1011 C946 0.959 . S
H1012 C949 0.930 . S
H1013 C953 0.931 . S
H1014 C954 0.959 . S
H1015 C954 0.961 . S
H1016 C954 0.959 . S
H1017 C955 0.960 . S
H1018 C955 0.960 . S
H1019 C955 0.960 . S
H1020 C991 0.980 . S
H1021 C957 0.930 . S
H1022 C961 0.930 . S
H1023 C962 0.961 . S
H1024 C962 0.960 . S
H1025 C962 0.958 . S
H1026 C963 0.961 . S
H1027 C963 0.960 . S
H1028 C963 0.960 . S
H1029 C965 0.980 . S
H1030 C964 0.961 . S
H1031 C964 0.961 . S
H1032 C964 0.959 . S
H1033 C967 0.932 . S
H1034 C971 0.929 . S
H1035 C972 0.961 . S
H1036 C972 0.959 . S
H1037 C972 0.959 . S
H1038 C973 0.960 . S
H1039 C973 0.962 . S
H1040 C973 0.961 . S
H1041 C975 0.929 . S
H1042 C978 0.930 . S
H1043 C979 0.929 . S
H1044 C982 0.930 . S
H1045 C985 0.929 . S
H1046 C986 0.930 . S
H1047 C990 0.962 . S
H1048 C990 0.959 . S
H1049 C990 0.958 . S
C1050 C1051 1.560 . S
C1050 H1111 0.959 . S
C1050 H1112 0.959 . S
C1050 H1113 0.960 . S
C1051 C1050 1.560 . S
C1051 O1106 1.426 . S
C1051 H1110 0.980 . S
C1052 C1053 1.407 . S
C1052 C1057 1.418 . S
C1052 O1106 1.334 . S
C1053 C1052 1.407 . S
C1053 C1054 1.360 . S
C1053 H1114 0.929 . S
C1054 C1053 1.360 . S
C1054 C1055 1.401 . S
C1054 C1058 1.527 . S
C1055 C1054 1.401 . S
C1055 C1056 1.405 . S
C1055 C1088 1.587 . S
C1056 C1055 1.405 . S
C1056 C1057 1.332 . S
C1056 C1059 1.496 . S
C1057 C1052 1.418 . S
C1057 C1056 1.332 . S
C1057 H1115 0.929 . S
C1058 C1054 1.527 . S
C1058 H1116 0.959 . S
C1058 H1117 0.961 . S
C1058 H1118 0.961 . S
C1059 C1056 1.496 . S
C1059 H1119 0.960 . S
C1059 H1120 0.960 . S
C1059 H1121 0.961 . S
C1060 C1061 1.517 . S
C1060 H1123 0.961 . S
C1060 H1124 0.960 . S
C1060 H1125 0.959 . S
C1061 C1060 1.517 . S
C1061 O1109 1.468 . S
C1061 H1122 0.980 . S
C1062 C1063 1.349 . S
C1062 C1067 1.367 . S
C1062 O1109 1.408 . S
C1063 C1062 1.349 . S
C1063 C1064 1.407 . S
C1063 H1126 0.930 . S
C1064 C1063 1.407 . S
C1064 C1065 1.449 . S
C1064 C1068 1.535 . S
C1065 C1064 1.449 . S
C1065 C1066 1.384 . S
C1065 C1090 1.553 . S
C1066 C1065 1.384 . S
C1066 C1067 1.364 . S
C1066 C1069 1.450 . S
C1067 C1062 1.367 . S
C1067 C1066 1.364 . S
C1067 H1127 0.931 . S
C1068 C1064 1.535 . S
C1068 H1128 0.959 . S
C1068 H1129 0.961 . S
C1068 H1130 0.959 . S
C1069 C1066 1.450 . S
C1069 H1131 0.960 . S
C1069 H1132 0.960 . S
C1069 H1133 0.960 . S
C1070 C1071 1.309 . S
C1070 C1075 1.304 . S
C1070 O1108 1.435 . S
C1071 C1070 1.309 . S
C1071 C1072 1.476 . S
C1071 H1135 0.930 . S
C1072 C1071 1.476 . S
C1072 C1073 1.400 . S
C1072 C1076 1.567 . S
C1073 C1072 1.400 . S
C1073 C1074 1.373 . S
C1073 C1095 1.432 . S
C1074 C1073 1.373 . S
C1074 C1075 1.339 . S
C1074 C1077 1.530 . S
C1075 C1070 1.304 . S
C1075 C1074 1.339 . S
C1075 H1136 0.930 . S
C1076 C1072 1.567 . S
C1076 H1137 0.961 . S
C1076 H1138 0.960 . S
C1076 H1139 0.958 . S
C1077 C1074 1.530 . S
C1077 H1140 0.961 . S
C1077 H1141 0.960 . S
C1077 H1142 0.960 . S
C1078 C1079 1.530 . S
C1078 H1144 0.961 . S
C1078 H1145 0.961 . S
C1078 H1146 0.959 . S
C1079 C1078 1.530 . S
C1079 O1107 1.412 . S
C1079 H1143 0.980 . S
C1080 C1081 1.288 . S
C1080 C1085 1.377 . S
C1080 O1107 1.393 . S
C1081 C1080 1.288 . S
C1081 C1082 1.369 . S
C1081 H1147 0.932 . S
C1082 C1081 1.369 . S
C1082 C1083 1.398 . S
C1082 C1086 1.527 . S
C1083 C1082 1.398 . S
C1083 C1084 1.380 . S
C1083 C1097 1.497 . S
C1084 C1083 1.380 . S
C1084 C1085 1.383 . S
C1084 C1087 1.603 . S
C1085 C1080 1.377 . S
C1085 C1084 1.383 . S
C1085 H1148 0.929 . S
C1086 C1082 1.527 . S
C1086 H1149 0.961 . S
C1086 H1150 0.959 . S
C1086 H1151 0.959 . S
C1087 C1084 1.603 . S
C1087 H1152 0.960 . S
C1087 H1153 0.962 . S
C1087 H1154 0.961 . S
C1088 C1055 1.587 . S
C1088 C1089 1.360 . S
C1088 C1101 1.412 . S
C1089 C1088 1.360 . S
C1089 C1090 1.365 . S
C1089 H1155 0.929 . S
C1090 C1065 1.553 . S
C1090 C1089 1.365 . S
C1090 C1091 1.404 . S
C1091 C1090 1.404 . S
C1091 C1092 1.395 . S
C1091 C1102 1.451 . S
C1092 C1091 1.395 . S
C1092 C1093 1.322 . S
C1092 H1156 0.930 . S
C1093 C1092 1.322 . S
C1093 C1094 1.459 . S
C1093 H1157 0.929 . S
C1094 C1093 1.459 . S
C1094 C1095 1.445 . S
C1094 C1103 1.395 . S
C1095 C1073 1.432 . S
C1095 C1094 1.445 . S
C1095 C1096 1.370 . S
C1096 C1095 1.370 . S
C1096 C1097 1.438 . S
C1096 H1158 0.930 . S
C1097 C1083 1.497 . S
C1097 C1096 1.438 . S
C1097 C1098 1.360 . S
C1098 C1097 1.360 . S
C1098 C1099 1.401 . S
C1098 C1103 1.446 . S
C1099 C1098 1.401 . S
C1099 C1100 1.347 . S
C1099 H1159 0.929 . S
C1100 C1099 1.347 . S
C1100 C1101 1.455 . S
C1100 H1160 0.930 . S
C1101 C1088 1.412 . S
C1101 C1100 1.455 . S
C1101 C1102 1.331 . S
C1102 C1091 1.451 . S
C1102 C1101 1.331 . S
C1102 C1103 1.497 . S
C1103 C1094 1.395 . S
C1103 C1098 1.446 . S
C1103 C1102 1.497 . S
C1104 C1105 1.582 . S
C1104 H1161 0.962 . S
C1104 H1162 0.959 . S
C1104 H1163 0.958 . S
C1105 C1104 1.582 . S
C1105 O1108 1.458 . S
C1105 H1134 0.980 . S
O1106 C1051 1.426 . S
O1106 C1052 1.334 . S
O1107 C1079 1.412 . S
O1107 C1080 1.393 . S
O1108 C1070 1.435 . S
O1108 C1105 1.458 . S
O1109 C1061 1.468 . S
O1109 C1062 1.408 . S
H1110 C1051 0.980 . S
H1111 C1050 0.959 . S
H1112 C1050 0.959 . S
H1113 C1050 0.960 . S
H1114 C1053 0.929 . S
H1115 C1057 0.929 . S
H1116 C1058 0.959 . S
H1117 C1058 0.961 . S
H1118 C1058 0.961 . S
H1119 C1059 0.960 . S
H1120 C1059 0.960 . S
H1121 C1059 0.961 . S
H1122 C1061 0.980 . S
H1123 C1060 0.961 . S
H1124 C1060 0.960 . S
H1125 C1060 0.959 . S
H1126 C1063 0.930 . S
H1127 C1067 0.931 . S
H1128 C1068 0.959 . S
H1129 C1068 0.961 . S
H1130 C1068 0.959 . S
H1131 C1069 0.960 . S
H1132 C1069 0.960 . S
H1133 C1069 0.960 . S
H1134 C1105 0.980 . S
H1135 C1071 0.930 . S
H1136 C1075 0.930 . S
H1137 C1076 0.961 . S
H1138 C1076 0.960 . S
H1139 C1076 0.958 . S
H1140 C1077 0.961 . S
H1141 C1077 0.960 . S
H1142 C1077 0.960 . S
H1143 C1079 0.980 . S
H1144 C1078 0.961 . S
H1145 C1078 0.961 . S
H1146 C1078 0.959 . S
H1147 C1081 0.932 . S
H1148 C1085 0.929 . S
H1149 C1086 0.961 . S
H1150 C1086 0.959 . S
H1151 C1086 0.959 . S
H1152 C1087 0.960 . S
H1153 C1087 0.962 . S
H1154 C1087 0.961 . S
H1155 C1089 0.929 . S
H1156 C1092 0.930 . S
H1157 C1093 0.929 . S
H1158 C1096 0.930 . S
H1159 C1099 0.929 . S
H1160 C1100 0.930 . S
H1161 C1104 0.962 . S
H1162 C1104 0.959 . S
H1163 C1104 0.958 . S
C1164 C1165 1.560 . S
C1164 H1225 0.959 . S
C1164 H1226 0.959 . S
C1164 H1227 0.960 . S
C1165 C1164 1.560 . S
C1165 O1220 1.426 . S
C1165 H1224 0.980 . S
C1166 C1167 1.407 . S
C1166 C1171 1.418 . S
C1166 O1220 1.334 . S
C1167 C1166 1.407 . S
C1167 C1168 1.360 . S
C1167 H1228 0.929 . S
C1168 C1167 1.360 . S
C1168 C1169 1.401 . S
C1168 C1172 1.527 . S
C1169 C1168 1.401 . S
C1169 C1170 1.405 . S
C1169 C1202 1.587 . S
C1170 C1169 1.405 . S
C1170 C1171 1.332 . S
C1170 C1173 1.496 . S
C1171 C1166 1.418 . S
C1171 C1170 1.332 . S
C1171 H1229 0.929 . S
C1172 C1168 1.527 . S
C1172 H1230 0.959 . S
C1172 H1231 0.961 . S
C1172 H1232 0.961 . S
C1173 C1170 1.496 . S
C1173 H1233 0.960 . S
C1173 H1234 0.960 . S
C1173 H1235 0.961 . S
C1174 C1175 1.517 . S
C1174 H1237 0.961 . S
C1174 H1238 0.960 . S
C1174 H1239 0.959 . S
C1175 C1174 1.517 . S
C1175 O1223 1.468 . S
C1175 H1236 0.980 . S
C1176 C1177 1.349 . S
C1176 C1181 1.367 . S
C1176 O1223 1.408 . S
C1177 C1176 1.349 . S
C1177 C1178 1.407 . S
C1177 H1240 0.930 . S
C1178 C1177 1.407 . S
C1178 C1179 1.449 . S
C1178 C1182 1.535 . S
C1179 C1178 1.449 . S
C1179 C1180 1.384 . S
C1179 C1204 1.553 . S
C1180 C1179 1.384 . S
C1180 C1181 1.364 . S
C1180 C1183 1.450 . S
C1181 C1176 1.367 . S
C1181 C1180 1.364 . S
C1181 H1241 0.931 . S
C1182 C1178 1.535 . S
C1182 H1242 0.959 . S
C1182 H1243 0.961 . S
C1182 H1244 0.959 . S
C1183 C1180 1.450 . S
C1183 H1245 0.960 . S
C1183 H1246 0.960 . S
C1183 H1247 0.960 . S
C1184 C1185 1.309 . S
C1184 C1189 1.304 . S
C1184 O1222 1.435 . S
C1185 C1184 1.309 . S
C1185 C1186 1.476 . S
C1185 H1249 0.930 . S
C1186 C1185 1.476 . S
C1186 C1187 1.400 . S
C1186 C1190 1.567 . S
C1187 C1186 1.400 . S
C1187 C1188 1.373 . S
C1187 C1209 1.432 . S
C1188 C1187 1.373 . S
C1188 C1189 1.339 . S
C1188 C1191 1.530 . S
C1189 C1184 1.304 . S
C1189 C1188 1.339 . S
C1189 H1250 0.930 . S
C1190 C1186 1.567 . S
C1190 H1251 0.961 . S
C1190 H1252 0.960 . S
C1190 H1253 0.958 . S
C1191 C1188 1.530 . S
C1191 H1254 0.961 . S
C1191 H1255 0.960 . S
C1191 H1256 0.960 . S
C1192 C1193 1.530 . S
C1192 H1258 0.961 . S
C1192 H1259 0.961 . S
C1192 H1260 0.959 . S
C1193 C1192 1.530 . S
C1193 O1221 1.412 . S
C1193 H1257 0.980 . S
C1194 C1195 1.288 . S
C1194 C1199 1.377 . S
C1194 O1221 1.393 . S
C1195 C1194 1.288 . S
C1195 C1196 1.369 . S
C1195 H1261 0.932 . S
C1196 C1195 1.369 . S
C1196 C1197 1.398 . S
C1196 C1200 1.527 . S
C1197 C1196 1.398 . S
C1197 C1198 1.380 . S
C1197 C1211 1.497 . S
C1198 C1197 1.380 . S
C1198 C1199 1.383 . S
C1198 C1201 1.603 . S
C1199 C1194 1.377 . S
C1199 C1198 1.383 . S
C1199 H1262 0.929 . S
C1200 C1196 1.527 . S
C1200 H1263 0.961 . S
C1200 H1264 0.959 . S
C1200 H1265 0.959 . S
C1201 C1198 1.603 . S
C1201 H1266 0.960 . S
C1201 H1267 0.962 . S
C1201 H1268 0.961 . S
C1202 C1169 1.587 . S
C1202 C1203 1.360 . S
C1202 C1215 1.412 . S
C1203 C1202 1.360 . S
C1203 C1204 1.365 . S
C1203 H1269 0.929 . S
C1204 C1179 1.553 . S
C1204 C1203 1.365 . S
C1204 C1205 1.404 . S
C1205 C1204 1.404 . S
C1205 C1206 1.395 . S
C1205 C1216 1.451 . S
C1206 C1205 1.395 . S
C1206 C1207 1.322 . S
C1206 H1270 0.930 . S
C1207 C1206 1.322 . S
C1207 C1208 1.459 . S
C1207 H1271 0.929 . S
C1208 C1207 1.459 . S
C1208 C1209 1.445 . S
C1208 C1217 1.395 . S
C1209 C1187 1.432 . S
C1209 C1208 1.445 . S
C1209 C1210 1.370 . S
C1210 C1209 1.370 . S
C1210 C1211 1.438 . S
C1210 H1272 0.930 . S
C1211 C1197 1.497 . S
C1211 C1210 1.438 . S
C1211 C1212 1.360 . S
C1212 C1211 1.360 . S
C1212 C1213 1.401 . S
C1212 C1217 1.446 . S
C1213 C1212 1.401 . S
C1213 C1214 1.347 . S
C1213 H1273 0.929 . S
C1214 C1213 1.347 . S
C1214 C1215 1.455 . S
C1214 H1274 0.930 . S
C1215 C1202 1.412 . S
C1215 C1214 1.455 . S
C1215 C1216 1.331 . S
C1216 C1205 1.451 . S
C1216 C1215 1.331 . S
C1216 C1217 1.497 . S
C1217 C1208 1.395 . S
C1217 C1212 1.446 . S
C1217 C1216 1.497 . S
C1218 C1219 1.582 . S
C1218 H1275 0.962 . S
C1218 H1276 0.959 . S
C1218 H1277 0.958 . S
C1219 C1218 1.582 . S
C1219 O1222 1.458 . S
C1219 H1248 0.980 . S
O1220 C1165 1.426 . S
O1220 C1166 1.334 . S
O1221 C1193 1.412 . S
O1221 C1194 1.393 . S
O1222 C1184 1.435 . S
O1222 C1219 1.458 . S
O1223 C1175 1.468 . S
O1223 C1176 1.408 . S
H1224 C1165 0.980 . S
H1225 C1164 0.959 . S
H1226 C1164 0.959 . S
H1227 C1164 0.960 . S
H1228 C1167 0.929 . S
H1229 C1171 0.929 . S
H1230 C1172 0.959 . S
H1231 C1172 0.961 . S
H1232 C1172 0.961 . S
H1233 C1173 0.960 . S
H1234 C1173 0.960 . S
H1235 C1173 0.961 . S
H1236 C1175 0.980 . S
H1237 C1174 0.961 . S
H1238 C1174 0.960 . S
H1239 C1174 0.959 . S
H1240 C1177 0.930 . S
H1241 C1181 0.931 . S
H1242 C1182 0.959 . S
H1243 C1182 0.961 . S
H1244 C1182 0.959 . S
H1245 C1183 0.960 . S
H1246 C1183 0.960 . S
H1247 C1183 0.960 . S
H1248 C1219 0.980 . S
H1249 C1185 0.930 . S
H1250 C1189 0.930 . S
H1251 C1190 0.961 . S
H1252 C1190 0.960 . S
H1253 C1190 0.958 . S
H1254 C1191 0.961 . S
H1255 C1191 0.960 . S
H1256 C1191 0.960 . S
H1257 C1193 0.980 . S
H1258 C1192 0.961 . S
H1259 C1192 0.961 . S
H1260 C1192 0.959 . S
H1261 C1195 0.932 . S
H1262 C1199 0.929 . S
H1263 C1200 0.961 . S
H1264 C1200 0.959 . S
H1265 C1200 0.959 . S
H1266 C1201 0.960 . S
H1267 C1201 0.962 . S
H1268 C1201 0.961 . S
H1269 C1203 0.929 . S
H1270 C1206 0.930 . S
H1271 C1207 0.929 . S
H1272 C1210 0.930 . S
H1273 C1213 0.929 . S
H1274 C1214 0.930 . S
H1275 C1218 0.962 . S
H1276 C1218 0.959 . S
H1277 C1218 0.958 . S
C1278 C1279 1.560 . S
C1278 H1339 0.959 . S
C1278 H1340 0.959 . S
C1278 H1341 0.960 . S
C1279 C1278 1.560 . S
C1279 O1334 1.426 . S
C1279 H1338 0.980 . S
C1280 C1281 1.407 1_455 S
C1280 C1285 1.418 . S
C1280 O1334 1.334 . S
C1281 C1280 1.407 1_655 S
C1281 C1282 1.360 . S
C1281 H1342 0.929 . S
C1282 C1281 1.360 . S
C1282 C1283 1.401 1_655 S
C1282 C1286 1.527 . S
C1283 C1282 1.401 1_455 S
C1283 C1284 1.405 . S
C1283 C1316 1.587 1_455 S
C1284 C1283 1.405 . S
C1284 C1285 1.332 . S
C1284 C1287 1.496 . S
C1285 C1280 1.418 . S
C1285 C1284 1.332 . S
C1285 H1343 0.929 . S
C1286 C1282 1.527 . S
C1286 H1344 0.959 . S
C1286 H1345 0.961 . S
C1286 H1346 0.961 . S
C1287 C1284 1.496 . S
C1287 H1347 0.960 . S
C1287 H1348 0.960 . S
C1287 H1349 0.961 . S
C1288 C1289 1.517 . S
C1288 H1351 1.004 . S
C1288 H1352 0.960 . S
C1288 H1353 0.959 . S
C1289 C1288 1.517 . S
C1289 O1337 1.468 . S
C1289 H1350 0.980 1_655 S
C1290 C1291 1.349 . S
C1290 C1295 1.367 . S
C1290 O1337 1.408 . S
C1291 C1290 1.349 . S
C1291 C1292 1.372 1_655 S
C1291 H1354 0.930 1_655 S
C1292 C1291 1.372 1_455 S
C1292 C1293 1.421 1_455 S
C1292 C1296 1.594 . S
C1293 C1292 1.421 1_655 S
C1293 C1294 1.384 . S
C1293 C1318 1.553 . S
C1294 C1293 1.384 . S
C1294 C1295 1.364 . S
C1294 C1297 1.450 . S
C1295 C1290 1.367 . S
C1295 C1294 1.364 . S
C1295 H1355 0.931 . S
C1296 C1292 1.594 . S
C1296 H1356 0.959 . S
C1296 H1357 0.961 . S
C1296 H1358 0.959 . S
C1297 C1294 1.450 . S
C1297 H1359 0.960 . S
C1297 H1360 0.960 . S
C1297 H1361 0.960 . S
C1298 C1299 1.309 . S
C1298 C1303 1.304 . S
C1298 O1336 1.435 . S
C1299 C1298 1.309 . S
C1299 C1300 1.478 1_655 S
C1299 H1363 0.930 1_655 S
C1300 C1299 1.478 1_455 S
C1300 C1301 1.401 1_455 S
C1300 C1304 1.563 . S
C1301 C1300 1.401 1_655 S
C1301 C1302 1.373 . S
C1301 C1323 1.432 . S
C1302 C1301 1.373 . S
C1302 C1303 1.339 . S
C1302 C1305 1.530 . S
C1303 C1298 1.304 . S
C1303 C1302 1.339 . S
C1303 H1364 0.930 . S
C1304 C1300 1.563 . S
C1304 H1365 0.961 . S
C1304 H1366 0.960 . S
C1304 H1367 0.958 . S
C1305 C1302 1.530 . S
C1305 H1368 0.961 . S
C1305 H1369 0.960 . S
C1305 H1370 0.960 . S
C1306 C1307 1.538 . S
C1306 H1372 0.961 . S
C1306 H1373 0.961 . S
C1306 H1374 0.959 . S
C1307 C1306 1.538 . S
C1307 O1335 1.413 . S
C1307 H1371 0.978 1_455 S
C1308 C1309 1.288 . S
C1308 C1313 1.377 1_455 S
C1308 O1335 1.393 . S
C1309 C1308 1.288 . S
C1309 C1310 1.369 . S
C1309 H1375 0.932 . S
C1310 C1309 1.369 . S
C1310 C1311 1.398 1_455 S
C1310 C1314 1.527 . S
C1311 C1310 1.398 1_655 S
C1311 C1312 1.380 . S
C1311 C1325 1.497 . S
C1312 C1311 1.380 . S
C1312 C1313 1.383 . S
C1312 C1315 1.603 . S
C1313 C1308 1.377 1_655 S
C1313 C1312 1.383 . S
C1313 H1376 0.929 . S
C1314 C1310 1.527 . S
C1314 H1377 0.961 . S
C1314 H1378 0.959 . S
C1314 H1379 0.959 . S
C1315 C1312 1.603 . S
C1315 H1380 0.960 . S
C1315 H1381 0.962 . S
C1315 H1382 0.961 . S
C1316 C1283 1.587 1_655 S
C1316 C1317 1.360 . S
C1316 C1329 1.412 . S
C1317 C1316 1.360 . S
C1317 C1318 1.365 . S
C1317 H1383 0.929 . S
C1318 C1293 1.553 . S
C1318 C1317 1.365 . S
C1318 C1319 1.404 . S
C1319 C1318 1.404 . S
C1319 C1320 1.395 . S
C1319 C1330 1.451 . S
C1320 C1319 1.395 . S
C1320 C1321 1.322 . S
C1320 H1384 0.930 . S
C1321 C1320 1.322 . S
C1321 C1322 1.459 . S
C1321 H1385 0.929 . S
C1322 C1321 1.459 . S
C1322 C1323 1.445 . S
C1322 C1331 1.395 . S
C1323 C1301 1.432 . S
C1323 C1322 1.445 . S
C1323 C1324 1.370 . S
C1324 C1323 1.370 . S
C1324 C1325 1.438 . S
C1324 H1386 0.930 . S
C1325 C1311 1.497 . S
C1325 C1324 1.438 . S
C1325 C1326 1.360 . S
C1326 C1325 1.360 . S
C1326 C1327 1.401 . S
C1326 C1331 1.446 . S
C1327 C1326 1.401 . S
C1327 C1328 1.347 . S
C1327 H1387 0.929 . S
C1328 C1327 1.347 . S
C1328 C1329 1.455 . S
C1328 H1388 0.930 . S
C1329 C1316 1.412 . S
C1329 C1328 1.455 . S
C1329 C1330 1.331 . S
C1330 C1319 1.451 . S
C1330 C1329 1.331 . S
C1330 C1331 1.497 . S
C1331 C1322 1.395 . S
C1331 C1326 1.446 . S
C1331 C1330 1.497 . S
C1332 C1333 1.582 . S
C1332 H1389 0.962 . S
C1332 H1390 0.959 . S
C1332 H1391 0.958 . S
C1333 C1332 1.582 . S
C1333 O1336 1.458 . S
C1333 H1362 0.980 . S
O1334 C1279 1.426 . S
O1334 C1280 1.334 . S
O1335 C1307 1.413 . S
O1335 C1308 1.393 . S
O1336 C1298 1.435 . S
O1336 C1333 1.458 . S
O1337 C1289 1.468 . S
O1337 C1290 1.408 . S
H1338 C1279 0.980 . S
H1339 C1278 0.959 . S
H1340 C1278 0.959 . S
H1341 C1278 0.960 . S
H1342 C1281 0.929 . S
H1343 C1285 0.929 . S
H1344 C1286 0.959 . S
H1345 C1286 0.961 . S
H1346 C1286 0.961 . S
H1347 C1287 0.960 . S
H1348 C1287 0.960 . S
H1349 C1287 0.961 . S
H1350 C1289 0.980 1_455 S
H1351 C1288 1.004 . S
H1352 C1288 0.960 . S
H1353 C1288 0.959 . S
H1354 C1291 0.930 1_455 S
H1355 C1295 0.931 . S
H1356 C1296 0.959 . S
H1357 C1296 0.961 . S
H1358 C1296 0.959 . S
H1359 C1297 0.960 . S
H1360 C1297 0.960 . S
H1361 C1297 0.960 . S
H1362 C1333 0.980 . S
H1363 C1299 0.930 1_455 S
H1364 C1303 0.930 . S
H1365 C1304 0.961 . S
H1366 C1304 0.960 . S
H1367 C1304 0.958 . S
H1368 C1305 0.961 . S
H1369 C1305 0.960 . S
H1370 C1305 0.960 . S
H1371 C1307 0.978 1_655 S
H1372 C1306 0.961 . S
H1373 C1306 0.961 . S
H1374 C1306 0.959 . S
H1375 C1309 0.932 . S
H1376 C1313 0.929 . S
H1377 C1314 0.961 . S
H1378 C1314 0.959 . S
H1379 C1314 0.959 . S
H1380 C1315 0.960 . S
H1381 C1315 0.962 . S
H1382 C1315 0.961 . S
H1383 C1317 0.929 . S
H1384 C1320 0.930 . S
H1385 C1321 0.929 . S
H1386 C1324 0.930 . S
H1387 C1327 0.929 . S
H1388 C1328 0.930 . S
H1389 C1332 0.962 . S
H1390 C1332 0.959 . S
H1391 C1332 0.958 . S
C1392 C1393 1.560 . S
C1392 H1453 0.959 . S
C1392 H1454 0.959 . S
C1392 H1455 0.960 . S
C1393 C1392 1.560 . S
C1393 O1448 1.426 . S
C1393 H1452 0.980 . S
C1394 C1395 1.407 . S
C1394 C1399 1.418 . S
C1394 O1448 1.334 . S
C1395 C1394 1.407 . S
C1395 C1396 1.360 . S
C1395 H1456 0.929 . S
C1396 C1395 1.360 . S
C1396 C1397 1.401 . S
C1396 C1400 1.527 . S
C1397 C1396 1.401 . S
C1397 C1398 1.405 . S
C1397 C1430 1.587 . S
C1398 C1397 1.405 . S
C1398 C1399 1.332 . S
C1398 C1401 1.496 . S
C1399 C1394 1.418 . S
C1399 C1398 1.332 . S
C1399 H1457 0.929 . S
C1400 C1396 1.527 . S
C1400 H1458 0.959 . S
C1400 H1459 0.961 . S
C1400 H1460 0.961 . S
C1401 C1398 1.496 . S
C1401 H1461 0.960 . S
C1401 H1462 0.960 . S
C1401 H1463 0.961 . S
C1402 C1403 1.517 . S
C1402 H1465 0.961 . S
C1402 H1466 0.960 . S
C1402 H1467 0.959 . S
C1403 C1402 1.517 . S
C1403 O1451 1.468 . S
C1403 H1464 0.980 . S
C1404 C1405 1.349 . S
C1404 C1409 1.367 . S
C1404 O1451 1.408 . S
C1405 C1404 1.349 . S
C1405 C1406 1.407 . S
C1405 H1468 0.930 . S
C1406 C1405 1.407 . S
C1406 C1407 1.449 . S
C1406 C1410 1.535 . S
C1407 C1406 1.449 . S
C1407 C1408 1.384 . S
C1407 C1432 1.553 . S
C1408 C1407 1.384 . S
C1408 C1409 1.364 . S
C1408 C1411 1.450 . S
C1409 C1404 1.367 . S
C1409 C1408 1.364 . S
C1409 H1469 0.931 . S
C1410 C1406 1.535 . S
C1410 H1470 0.959 . S
C1410 H1471 0.961 . S
C1410 H1472 0.959 . S
C1411 C1408 1.450 . S
C1411 H1473 0.960 . S
C1411 H1474 0.960 . S
C1411 H1475 0.960 . S
C1412 C1413 1.309 . S
C1412 C1417 1.304 . S
C1412 O1450 1.435 . S
C1413 C1412 1.309 . S
C1413 C1414 1.476 . S
C1413 H1477 0.930 . S
C1414 C1413 1.476 . S
C1414 C1415 1.400 . S
C1414 C1418 1.567 . S
C1415 C1414 1.400 . S
C1415 C1416 1.373 . S
C1415 C1437 1.432 . S
C1416 C1415 1.373 . S
C1416 C1417 1.339 . S
C1416 C1419 1.530 . S
C1417 C1412 1.304 . S
C1417 C1416 1.339 . S
C1417 H1478 0.930 . S
C1418 C1414 1.567 . S
C1418 H1479 0.961 . S
C1418 H1480 0.960 . S
C1418 H1481 0.958 . S
C1419 C1416 1.530 . S
C1419 H1482 0.961 . S
C1419 H1483 0.960 . S
C1419 H1484 0.960 . S
C1420 C1421 1.530 . S
C1420 H1486 0.961 . S
C1420 H1487 0.961 . S
C1420 H1488 0.959 . S
C1421 C1420 1.530 . S
C1421 O1449 1.412 . S
C1421 H1485 0.980 . S
C1422 C1423 1.288 . S
C1422 C1427 1.377 . S
C1422 O1449 1.393 . S
C1423 C1422 1.288 . S
C1423 C1424 1.369 . S
C1423 H1489 0.932 . S
C1424 C1423 1.369 . S
C1424 C1425 1.398 . S
C1424 C1428 1.527 . S
C1425 C1424 1.398 . S
C1425 C1426 1.380 . S
C1425 C1439 1.497 . S
C1426 C1425 1.380 . S
C1426 C1427 1.383 . S
C1426 C1429 1.603 . S
C1427 C1422 1.377 . S
C1427 C1426 1.383 . S
C1427 H1490 0.929 . S
C1428 C1424 1.527 . S
C1428 H1491 0.961 . S
C1428 H1492 0.959 . S
C1428 H1493 0.959 . S
C1429 C1426 1.603 . S
C1429 H1494 0.960 . S
C1429 H1495 0.962 . S
C1429 H1496 0.961 . S
C1430 C1397 1.587 . S
C1430 C1431 1.360 . S
C1430 C1443 1.412 . S
C1431 C1430 1.360 . S
C1431 C1432 1.365 . S
C1431 H1497 0.929 . S
C1432 C1407 1.553 . S
C1432 C1431 1.365 . S
C1432 C1433 1.404 . S
C1433 C1432 1.404 . S
C1433 C1434 1.395 . S
C1433 C1444 1.451 . S
C1434 C1433 1.395 . S
C1434 C1435 1.322 . S
C1434 H1498 0.930 . S
C1435 C1434 1.322 . S
C1435 C1436 1.459 . S
C1435 H1499 0.929 . S
C1436 C1435 1.459 . S
C1436 C1437 1.445 . S
C1436 C1445 1.395 . S
C1437 C1415 1.432 . S
C1437 C1436 1.445 . S
C1437 C1438 1.370 . S
C1438 C1437 1.370 . S
C1438 C1439 1.438 . S
C1438 H1500 0.930 . S
C1439 C1425 1.497 . S
C1439 C1438 1.438 . S
C1439 C1440 1.360 . S
C1440 C1439 1.360 . S
C1440 C1441 1.401 . S
C1440 C1445 1.446 . S
C1441 C1440 1.401 . S
C1441 C1442 1.347 . S
C1441 H1501 0.929 . S
C1442 C1441 1.347 . S
C1442 C1443 1.455 . S
C1442 H1502 0.930 . S
C1443 C1430 1.412 . S
C1443 C1442 1.455 . S
C1443 C1444 1.331 . S
C1444 C1433 1.451 . S
C1444 C1443 1.331 . S
C1444 C1445 1.497 . S
C1445 C1436 1.395 . S
C1445 C1440 1.446 . S
C1445 C1444 1.497 . S
C1446 C1447 1.582 . S
C1446 H1503 0.962 . S
C1446 H1504 0.959 . S
C1446 H1505 0.958 . S
C1447 C1446 1.582 . S
C1447 O1450 1.458 . S
C1447 H1476 0.980 . S
O1448 C1393 1.426 . S
O1448 C1394 1.334 . S
O1449 C1421 1.412 . S
O1449 C1422 1.393 . S
O1450 C1412 1.435 . S
O1450 C1447 1.458 . S
O1451 C1403 1.468 . S
O1451 C1404 1.408 . S
H1452 C1393 0.980 . S
H1453 C1392 0.959 . S
H1454 C1392 0.959 . S
H1455 C1392 0.960 . S
H1456 C1395 0.929 . S
H1457 C1399 0.929 . S
H1458 C1400 0.959 . S
H1459 C1400 0.961 . S
H1460 C1400 0.961 . S
H1461 C1401 0.960 . S
H1462 C1401 0.960 . S
H1463 C1401 0.961 . S
H1464 C1403 0.980 . S
H1465 C1402 0.961 . S
H1466 C1402 0.960 . S
H1467 C1402 0.959 . S
H1468 C1405 0.930 . S
H1469 C1409 0.931 . S
H1470 C1410 0.959 . S
H1471 C1410 0.961 . S
H1472 C1410 0.959 . S
H1473 C1411 0.960 . S
H1474 C1411 0.960 . S
H1475 C1411 0.960 . S
H1476 C1447 0.980 . S
H1477 C1413 0.930 . S
H1478 C1417 0.930 . S
H1479 C1418 0.961 . S
H1480 C1418 0.960 . S
H1481 C1418 0.958 . S
H1482 C1419 0.961 . S
H1483 C1419 0.960 . S
H1484 C1419 0.960 . S
H1485 C1421 0.980 . S
H1486 C1420 0.961 . S
H1487 C1420 0.961 . S
H1488 C1420 0.959 . S
H1489 C1423 0.932 . S
H1490 C1427 0.929 . S
H1491 C1428 0.961 . S
H1492 C1428 0.959 . S
H1493 C1428 0.959 . S
H1494 C1429 0.960 . S
H1495 C1429 0.962 . S
H1496 C1429 0.961 . S
H1497 C1431 0.929 . S
H1498 C1434 0.930 . S
H1499 C1435 0.929 . S
H1500 C1438 0.930 . S
H1501 C1441 0.929 . S
H1502 C1442 0.930 . S
H1503 C1446 0.962 . S
H1504 C1446 0.959 . S
H1505 C1446 0.958 . S
C1506 C1507 1.560 . S
C1506 H1567 0.959 . S
C1506 H1568 0.959 . S
C1506 H1569 0.960 . S
C1507 C1506 1.560 . S
C1507 O1562 1.426 . S
C1507 H1566 0.980 . S
C1508 C1509 1.407 1_565 S
C1508 C1513 1.418 . S
C1508 O1562 1.334 . S
C1509 C1508 1.407 1_545 S
C1509 C1510 1.360 . S
C1509 H1570 0.929 . S
C1510 C1509 1.360 . S
C1510 C1511 1.328 1_545 S
C1510 C1514 1.527 . S
C1511 C1510 1.328 1_565 S
C1511 C1512 1.472 . S
C1511 C1544 1.601 1_565 S
C1512 C1511 1.472 . S
C1512 C1513 1.332 . S
C1512 C1515 1.496 . S
C1513 C1508 1.418 . S
C1513 C1512 1.332 . S
C1513 H1571 0.929 . S
C1514 C1510 1.527 . S
C1514 H1572 0.959 . S
C1514 H1573 0.961 . S
C1514 H1574 0.961 . S
C1515 C1512 1.496 . S
C1515 H1575 0.960 . S
C1515 H1576 0.960 . S
C1515 H1577 0.961 . S
C1516 C1517 1.517 . S
C1516 H1579 0.961 1_545 S
C1516 H1580 0.960 . S
C1516 H1581 0.959 . S
C1517 C1516 1.517 . S
C1517 O1565 1.468 . S
C1517 H1578 0.980 1_545 S
C1518 C1519 1.351 1_545 S
C1518 C1523 1.367 . S
C1518 O1565 1.408 . S
C1519 C1518 1.351 1_565 S
C1519 C1520 1.409 . S
C1519 H1582 0.927 . S
C1520 C1519 1.409 . S
C1520 C1521 1.449 1_565 S
C1520 C1524 1.535 . S
C1521 C1520 1.449 1_545 S
C1521 C1522 1.384 . S
C1521 C1546 1.553 . S
C1522 C1521 1.384 . S
C1522 C1523 1.364 . S
C1522 C1525 1.450 . S
C1523 C1518 1.367 . S
C1523 C1522 1.364 . S
C1523 H1583 0.931 . S
C1524 C1520 1.535 . S
C1524 H1584 0.959 . S
C1524 H1585 0.961 . S
C1524 H1586 0.959 . S
C1525 C1522 1.450 . S
C1525 H1587 0.960 . S
C1525 H1588 0.960 . S
C1525 H1589 0.960 . S
C1526 C1527 1.309 . S
C1526 C1531 1.304 . S
C1526 O1564 1.435 . S
C1527 C1526 1.309 . S
C1527 C1528 1.476 1_545 S
C1527 H1591 0.930 1_545 S
C1528 C1527 1.476 1_565 S
C1528 C1529 1.400 1_565 S
C1528 C1532 1.567 . S
C1529 C1528 1.400 1_545 S
C1529 C1530 1.373 . S
C1529 C1551 1.432 . S
C1530 C1529 1.373 . S
C1530 C1531 1.339 . S
C1530 C1533 1.530 . S
C1531 C1526 1.304 . S
C1531 C1530 1.339 . S
C1531 H1592 0.930 . S
C1532 C1528 1.567 . S
C1532 H1593 0.961 . S
C1532 H1594 0.960 . S
C1532 H1595 0.958 . S
C1533 C1530 1.530 . S
C1533 H1596 0.961 . S
C1533 H1597 0.960 . S
C1533 H1598 0.960 . S
C1534 C1535 1.530 1_565 S
C1534 H1600 0.961 . S
C1534 H1601 0.961 . S
C1534 H1602 0.959 . S
C1535 C1534 1.530 1_545 S
C1535 O1563 1.412 1_545 S
C1535 H1599 0.980 . S
C1536 C1537 1.288 . S
C1536 C1541 1.377 1_565 S
C1536 O1563 1.393 . S
C1537 C1536 1.288 . S
C1537 C1538 1.369 . S
C1537 H1603 0.932 . S
C1538 C1537 1.369 . S
C1538 C1539 1.398 1_565 S
C1538 C1542 1.527 . S
C1539 C1538 1.398 1_545 S
C1539 C1540 1.380 . S
C1539 C1553 1.497 . S
C1540 C1539 1.380 . S
C1540 C1541 1.383 . S
C1540 C1543 1.603 . S
C1541 C1536 1.377 1_545 S
C1541 C1540 1.383 . S
C1541 H1604 0.929 . S
C1542 C1538 1.527 . S
C1542 H1605 0.961 . S
C1542 H1606 0.959 . S
C1542 H1607 0.959 . S
C1543 C1540 1.603 . S
C1543 H1608 0.960 . S
C1543 H1609 0.962 . S
C1543 H1610 0.961 . S
C1544 C1511 1.601 1_545 S
C1544 C1545 1.360 . S
C1544 C1557 1.412 . S
C1545 C1544 1.360 . S
C1545 C1546 1.365 . S
C1545 H1611 0.929 . S
C1546 C1521 1.553 . S
C1546 C1545 1.365 . S
C1546 C1547 1.404 . S
C1547 C1546 1.404 . S
C1547 C1548 1.395 . S
C1547 C1558 1.451 . S
C1548 C1547 1.395 . S
C1548 C1549 1.322 . S
C1548 H1612 0.930 . S
C1549 C1548 1.322 . S
C1549 C1550 1.459 . S
C1549 H1613 0.929 . S
C1550 C1549 1.459 . S
C1550 C1551 1.445 . S
C1550 C1559 1.395 . S
C1551 C1529 1.432 . S
C1551 C1550 1.445 . S
C1551 C1552 1.370 . S
C1552 C1551 1.370 . S
C1552 C1553 1.438 . S
C1552 H1614 0.930 . S
C1553 C1539 1.497 . S
C1553 C1552 1.438 . S
C1553 C1554 1.360 . S
C1554 C1553 1.360 . S
C1554 C1555 1.401 . S
C1554 C1559 1.446 . S
C1555 C1554 1.401 . S
C1555 C1556 1.347 . S
C1555 H1615 0.929 . S
C1556 C1555 1.347 . S
C1556 C1557 1.455 . S
C1556 H1616 0.930 . S
C1557 C1544 1.412 . S
C1557 C1556 1.455 . S
C1557 C1558 1.331 . S
C1558 C1547 1.451 . S
C1558 C1557 1.331 . S
C1558 C1559 1.497 . S
C1559 C1550 1.395 . S
C1559 C1554 1.446 . S
C1559 C1558 1.497 . S
C1560 C1561 1.582 . S
C1560 H1617 0.962 . S
C1560 H1618 0.959 . S
C1560 H1619 0.958 . S
C1561 C1560 1.582 . S
C1561 O1564 1.458 . S
C1561 H1590 0.980 . S
O1562 C1507 1.426 . S
O1562 C1508 1.334 . S
O1563 C1535 1.412 1_565 S
O1563 C1536 1.393 . S
O1564 C1526 1.435 . S
O1564 C1561 1.458 . S
O1565 C1517 1.468 . S
O1565 C1518 1.408 . S
H1566 C1507 0.980 . S
H1567 C1506 0.959 . S
H1568 C1506 0.959 . S
H1569 C1506 0.960 . S
H1570 C1509 0.929 . S
H1571 C1513 0.929 . S
H1572 C1514 0.959 . S
H1573 C1514 0.961 . S
H1574 C1514 0.961 . S
H1575 C1515 0.960 . S
H1576 C1515 0.960 . S
H1577 C1515 0.961 . S
H1578 C1517 0.980 1_565 S
H1579 C1516 0.961 1_565 S
H1580 C1516 0.960 . S
H1581 C1516 0.959 . S
H1582 C1519 0.927 . S
H1583 C1523 0.931 . S
H1584 C1524 0.959 . S
H1585 C1524 0.961 . S
H1586 C1524 0.959 . S
H1587 C1525 0.960 . S
H1588 C1525 0.960 . S
H1589 C1525 0.960 . S
H1590 C1561 0.980 . S
H1591 C1527 0.930 1_565 S
H1592 C1531 0.930 . S
H1593 C1532 0.961 . S
H1594 C1532 0.960 . S
H1595 C1532 0.958 . S
H1596 C1533 0.961 . S
H1597 C1533 0.960 . S
H1598 C1533 0.960 . S
H1599 C1535 0.980 . S
H1600 C1534 0.961 . S
H1601 C1534 0.961 . S
H1602 C1534 0.959 . S
H1603 C1537 0.932 . S
H1604 C1541 0.929 . S
H1605 C1542 0.961 . S
H1606 C1542 0.959 . S
H1607 C1542 0.959 . S
H1608 C1543 0.960 . S
H1609 C1543 0.962 . S
H1610 C1543 0.961 . S
H1611 C1545 0.929 . S
H1612 C1548 0.930 . S
H1613 C1549 0.929 . S
H1614 C1552 0.930 . S
H1615 C1555 0.929 . S
H1616 C1556 0.930 . S
H1617 C1560 0.962 . S
H1618 C1560 0.959 . S
H1619 C1560 0.958 . S
C1620 C1621 1.560 . S
C1620 H1681 0.959 . S
C1620 H1682 0.959 . S
C1620 H1683 0.960 . S
C1621 C1620 1.560 . S
C1621 O1676 1.426 . S
C1621 H1680 0.980 1_565 S
C1622 C1623 1.407 1_565 S
C1622 C1627 1.418 . S
C1622 O1676 1.334 . S
C1623 C1622 1.407 1_545 S
C1623 C1624 1.360 . S
C1623 H1684 0.929 . S
C1624 C1623 1.360 . S
C1624 C1625 1.401 . S
C1624 C1628 1.527 . S
C1625 C1624 1.401 . S
C1625 C1626 1.405 1_545 S
C1625 C1658 1.587 . S
C1626 C1625 1.405 1_565 S
C1626 C1627 1.332 . S
C1626 C1629 1.496 . S
C1627 C1622 1.418 . S
C1627 C1626 1.332 . S
C1627 H1685 0.929 . S
C1628 C1624 1.527 . S
C1628 H1686 0.959 . S
C1628 H1687 0.961 . S
C1628 H1688 0.961 . S
C1629 C1626 1.496 . S
C1629 H1689 0.960 . S
C1629 H1690 0.960 . S
C1629 H1691 0.961 . S
C1630 C1631 1.517 . S
C1630 H1693 0.961 . S
C1630 H1694 0.960 . S
C1630 H1695 0.959 . S
C1631 C1630 1.517 . S
C1631 O1679 1.468 . S
C1631 H1692 0.980 . S
C1632 C1633 1.349 . S
C1632 C1637 1.367 . S
C1632 O1679 1.408 . S
C1633 C1632 1.349 . S
C1633 C1634 1.407 . S
C1633 H1696 0.940 . S
C1634 C1633 1.407 . S
C1634 C1635 1.449 . S
C1634 C1638 1.535 1_545 S
C1635 C1634 1.449 . S
C1635 C1636 1.384 . S
C1635 C1660 1.553 . S
C1636 C1635 1.384 . S
C1636 C1637 1.364 . S
C1636 C1639 1.450 . S
C1637 C1632 1.367 . S
C1637 C1636 1.364 . S
C1637 H1697 0.931 . S
C1638 C1634 1.535 1_565 S
C1638 H1698 0.959 . S
C1638 H1699 0.961 . S
C1638 H1700 0.959 . S
C1639 C1636 1.450 . S
C1639 H1701 0.960 . S
C1639 H1702 0.960 . S
C1639 H1703 0.960 . S
C1640 C1641 1.309 1_545 S
C1640 C1645 1.304 . S
C1640 O1678 1.435 . S
C1641 C1640 1.309 1_565 S
C1641 C1642 1.476 . S
C1641 H1705 0.930 . S
C1642 C1641 1.476 . S
C1642 C1643 1.400 1_565 S
C1642 C1646 1.567 . S
C1643 C1642 1.400 1_545 S
C1643 C1644 1.373 . S
C1643 C1665 1.432 . S
C1644 C1643 1.373 . S
C1644 C1645 1.339 . S
C1644 C1647 1.530 . S
C1645 C1640 1.304 . S
C1645 C1644 1.339 . S
C1645 H1706 0.930 . S
C1646 C1642 1.567 . S
C1646 H1707 0.961 . S
C1646 H1708 0.960 . S
C1646 H1709 0.958 . S
C1647 C1644 1.530 . S
C1647 H1710 0.961 . S
C1647 H1711 0.960 . S
C1647 H1712 0.960 . S
C1648 C1649 1.530 . S
C1648 H1714 0.961 . S
C1648 H1715 0.961 . S
C1648 H1716 0.959 . S
C1649 C1648 1.530 . S
C1649 O1677 1.412 . S
C1649 H1713 0.980 . S
C1650 C1651 1.288 . S
C1650 C1655 1.377 1_565 S
C1650 O1677 1.393 . S
C1651 C1650 1.288 . S
C1651 C1652 1.369 . S
C1651 H1717 0.932 . S
C1652 C1651 1.369 . S
C1652 C1653 1.398 . S
C1652 C1656 1.527 . S
C1653 C1652 1.398 . S
C1653 C1654 1.380 1_565 S
C1653 C1667 1.497 1_565 S
C1654 C1653 1.380 1_545 S
C1654 C1655 1.383 . S
C1654 C1657 1.603 . S
C1655 C1650 1.377 1_545 S
C1655 C1654 1.383 . S
C1655 H1718 0.929 . S
C1656 C1652 1.527 . S
C1656 H1719 0.961 . S
C1656 H1720 0.959 . S
C1656 H1721 0.959 . S
C1657 C1654 1.603 . S
C1657 H1722 0.960 . S
C1657 H1723 0.962 . S
C1657 H1724 0.961 . S
C1658 C1625 1.587 . S
C1658 C1659 1.360 . S
C1658 C1671 1.412 . S
C1659 C1658 1.360 . S
C1659 C1660 1.365 . S
C1659 H1725 0.929 . S
C1660 C1635 1.553 . S
C1660 C1659 1.365 . S
C1660 C1661 1.404 . S
C1661 C1660 1.404 . S
C1661 C1662 1.395 . S
C1661 C1672 1.451 . S
C1662 C1661 1.395 . S
C1662 C1663 1.322 . S
C1662 H1726 0.930 . S
C1663 C1662 1.322 . S
C1663 C1664 1.459 . S
C1663 H1727 0.929 . S
C1664 C1663 1.459 . S
C1664 C1665 1.445 . S
C1664 C1673 1.395 . S
C1665 C1643 1.432 . S
C1665 C1664 1.445 . S
C1665 C1666 1.370 . S
C1666 C1665 1.370 . S
C1666 C1667 1.438 . S
C1666 H1728 0.930 . S
C1667 C1653 1.497 1_545 S
C1667 C1666 1.438 . S
C1667 C1668 1.360 . S
C1668 C1667 1.360 . S
C1668 C1669 1.401 . S
C1668 C1673 1.446 . S
C1669 C1668 1.401 . S
C1669 C1670 1.347 . S
C1669 H1729 0.933 . S
C1670 C1669 1.347 . S
C1670 C1671 1.455 . S
C1670 H1730 0.930 . S
C1671 C1658 1.412 . S
C1671 C1670 1.455 . S
C1671 C1672 1.331 . S
C1672 C1661 1.451 . S
C1672 C1671 1.331 . S
C1672 C1673 1.497 . S
C1673 C1664 1.395 . S
C1673 C1668 1.446 . S
C1673 C1672 1.497 . S
C1674 C1675 1.582 . S
C1674 H1731 0.962 . S
C1674 H1732 0.959 . S
C1674 H1733 0.958 . S
C1675 C1674 1.582 . S
C1675 O1678 1.458 . S
C1675 H1704 0.980 1_545 S
O1676 C1621 1.426 . S
O1676 C1622 1.334 . S
O1677 C1649 1.412 . S
O1677 C1650 1.393 . S
O1678 C1640 1.435 . S
O1678 C1675 1.458 . S
O1679 C1631 1.468 . S
O1679 C1632 1.408 . S
H1680 C1621 0.980 1_545 S
H1681 C1620 0.959 . S
H1682 C1620 0.959 . S
H1683 C1620 0.960 . S
H1684 C1623 0.929 . S
H1685 C1627 0.929 . S
H1686 C1628 0.959 . S
H1687 C1628 0.961 . S
H1688 C1628 0.961 . S
H1689 C1629 0.960 . S
H1690 C1629 0.960 . S
H1691 C1629 0.961 . S
H1692 C1631 0.980 . S
H1693 C1630 0.961 . S
H1694 C1630 0.960 . S
H1695 C1630 0.959 . S
H1696 C1633 0.940 . S
H1697 C1637 0.931 . S
H1698 C1638 0.959 . S
H1699 C1638 0.961 . S
H1700 C1638 0.959 . S
H1701 C1639 0.960 . S
H1702 C1639 0.960 . S
H1703 C1639 0.960 . S
H1704 C1675 0.980 1_565 S
H1705 C1641 0.930 . S
H1706 C1645 0.930 . S
H1707 C1646 0.961 . S
H1708 C1646 0.960 . S
H1709 C1646 0.958 . S
H1710 C1647 0.961 . S
H1711 C1647 0.960 . S
H1712 C1647 0.960 . S
H1713 C1649 0.980 . S
H1714 C1648 0.961 . S
H1715 C1648 0.961 . S
H1716 C1648 0.959 . S
H1717 C1651 0.932 . S
H1718 C1655 0.929 . S
H1719 C1656 0.961 . S
H1720 C1656 0.959 . S
H1721 C1656 0.959 . S
H1722 C1657 0.960 . S
H1723 C1657 0.962 . S
H1724 C1657 0.961 . S
H1725 C1659 0.929 . S
H1726 C1662 0.930 . S
H1727 C1663 0.929 . S
H1728 C1666 0.930 . S
H1729 C1669 0.933 . S
H1730 C1670 0.930 . S
H1731 C1674 0.962 . S
H1732 C1674 0.959 . S
H1733 C1674 0.958 . S
C1734 C1735 1.560 . S
C1734 H1795 0.959 . S
C1734 H1796 0.959 . S
C1734 H1797 0.960 . S
C1735 C1734 1.560 . S
C1735 O1790 1.426 . S
C1735 H1794 0.980 1_455 S
C1736 C1737 1.407 1_455 S
C1736 C1741 1.418 . S
C1736 O1790 1.334 . S
C1737 C1736 1.407 1_655 S
C1737 C1738 1.360 . S
C1737 H1798 0.929 . S
C1738 C1737 1.360 . S
C1738 C1739 1.401 . S
C1738 C1742 1.527 . S
C1739 C1738 1.401 . S
C1739 C1740 1.405 1_655 S
C1739 C1772 1.587 . S
C1740 C1739 1.405 1_455 S
C1740 C1741 1.332 . S
C1740 C1743 1.496 . S
C1741 C1736 1.418 . S
C1741 C1740 1.332 . S
C1741 H1799 0.929 . S
C1742 C1738 1.527 . S
C1742 H1800 0.959 . S
C1742 H1801 0.961 . S
C1742 H1802 0.961 . S
C1743 C1740 1.496 . S
C1743 H1803 0.960 . S
C1743 H1804 0.960 . S
C1743 H1805 0.961 . S
C1744 C1745 1.517 . S
C1744 H1807 0.961 . S
C1744 H1808 0.960 . S
C1744 H1809 0.959 . S
C1745 C1744 1.517 . S
C1745 O1793 1.468 . S
C1745 H1806 0.980 . S
C1746 C1747 1.349 . S
C1746 C1751 1.367 . S
C1746 O1793 1.408 . S
C1747 C1746 1.349 . S
C1747 C1748 1.407 . S
C1747 H1810 0.915 1_655 S
C1748 C1747 1.407 . S
C1748 C1749 1.449 . S
C1748 C1752 1.535 1_655 S
C1749 C1748 1.449 . S
C1749 C1750 1.384 . S
C1749 C1774 1.553 . S
C1750 C1749 1.384 . S
C1750 C1751 1.364 . S
C1750 C1753 1.450 . S
C1751 C1746 1.367 . S
C1751 C1750 1.364 . S
C1751 H1811 0.931 . S
C1752 C1748 1.535 1_455 S
C1752 H1812 0.959 . S
C1752 H1813 0.961 . S
C1752 H1814 0.959 . S
C1753 C1750 1.450 . S
C1753 H1815 0.960 . S
C1753 H1816 0.960 . S
C1753 H1817 0.960 . S
C1754 C1755 1.309 1_655 S
C1754 C1759 1.304 . S
C1754 O1792 1.435 . S
C1755 C1754 1.309 1_455 S
C1755 C1756 1.476 . S
C1755 H1819 0.930 . S
C1756 C1755 1.476 . S
C1756 C1757 1.400 1_455 S
C1756 C1760 1.567 . S
C1757 C1756 1.400 1_655 S
C1757 C1758 1.373 . S
C1757 C1779 1.432 . S
C1758 C1757 1.373 . S
C1758 C1759 1.339 . S
C1758 C1761 1.530 . S
C1759 C1754 1.304 . S
C1759 C1758 1.339 . S
C1759 H1820 0.930 . S
C1760 C1756 1.567 . S
C1760 H1821 0.961 . S
C1760 H1822 0.960 . S
C1760 H1823 0.958 . S
C1761 C1758 1.530 . S
C1761 H1824 0.961 . S
C1761 H1825 0.960 . S
C1761 H1826 0.960 . S
C1762 C1763 1.530 . S
C1762 H1828 0.961 . S
C1762 H1829 0.961 . S
C1762 H1830 0.959 . S
C1763 C1762 1.530 . S
C1763 O1791 1.412 . S
C1763 H1827 0.980 1_455 S
C1764 C1765 1.288 . S
C1764 C1769 1.377 1_455 S
C1764 O1791 1.393 . S
C1765 C1764 1.288 . S
C1765 C1766 1.369 . S
C1765 H1831 0.932 . S
C1766 C1765 1.369 . S
C1766 C1767 1.398 . S
C1766 C1770 1.527 . S
C1767 C1766 1.398 . S
C1767 C1768 1.380 1_455 S
C1767 C1781 1.497 1_455 S
C1768 C1767 1.380 1_655 S
C1768 C1769 1.383 . S
C1768 C1771 1.603 . S
C1769 C1764 1.377 1_655 S
C1769 C1768 1.383 . S
C1769 H1832 0.929 . S
C1770 C1766 1.527 . S
C1770 H1833 0.961 . S
C1770 H1834 0.959 . S
C1770 H1835 0.959 . S
C1771 C1768 1.603 . S
C1771 H1836 0.960 . S
C1771 H1837 0.962 . S
C1771 H1838 0.961 . S
C1772 C1739 1.587 . S
C1772 C1773 1.360 . S
C1772 C1785 1.412 . S
C1773 C1772 1.360 . S
C1773 C1774 1.365 . S
C1773 H1839 0.929 . S
C1774 C1749 1.553 . S
C1774 C1773 1.365 . S
C1774 C1775 1.404 . S
C1775 C1774 1.404 . S
C1775 C1776 1.395 . S
C1775 C1786 1.451 . S
C1776 C1775 1.395 . S
C1776 C1777 1.322 . S
C1776 H1840 0.930 . S
C1777 C1776 1.322 . S
C1777 C1778 1.459 . S
C1777 H1841 0.929 . S
C1778 C1777 1.459 . S
C1778 C1779 1.445 . S
C1778 C1787 1.395 . S
C1779 C1757 1.432 . S
C1779 C1778 1.445 . S
C1779 C1780 1.370 . S
C1780 C1779 1.370 . S
C1780 C1781 1.438 . S
C1780 H1842 0.930 . S
C1781 C1767 1.497 1_655 S
C1781 C1780 1.438 . S
C1781 C1782 1.360 . S
C1782 C1781 1.360 . S
C1782 C1783 1.401 . S
C1782 C1787 1.446 . S
C1783 C1782 1.401 . S
C1783 C1784 1.347 . S
C1783 H1843 0.929 . S
C1784 C1783 1.347 . S
C1784 C1785 1.455 . S
C1784 H1844 0.930 . S
C1785 C1772 1.412 . S
C1785 C1784 1.455 . S
C1785 C1786 1.331 . S
C1786 C1775 1.451 . S
C1786 C1785 1.331 . S
C1786 C1787 1.497 . S
C1787 C1778 1.395 . S
C1787 C1782 1.446 . S
C1787 C1786 1.497 . S
C1788 C1789 1.582 1_655 S
C1788 H1845 0.919 1_655 S
C1788 H1846 0.959 . S
C1788 H1847 0.958 . S
C1789 C1788 1.582 1_455 S
C1789 O1792 1.458 1_455 S
C1789 H1818 0.980 . S
O1790 C1735 1.426 . S
O1790 C1736 1.334 . S
O1791 C1763 1.412 . S
O1791 C1764 1.393 . S
O1792 C1754 1.435 . S
O1792 C1789 1.458 1_655 S
O1793 C1745 1.468 . S
O1793 C1746 1.408 . S
H1794 C1735 0.980 1_655 S
H1795 C1734 0.959 . S
H1796 C1734 0.959 . S
H1797 C1734 0.960 . S
H1798 C1737 0.929 . S
H1799 C1741 0.929 . S
H1800 C1742 0.959 . S
H1801 C1742 0.961 . S
H1802 C1742 0.961 . S
H1803 C1743 0.960 . S
H1804 C1743 0.960 . S
H1805 C1743 0.961 . S
H1806 C1745 0.980 . S
H1807 C1744 0.961 . S
H1808 C1744 0.960 . S
H1809 C1744 0.959 . S
H1810 C1747 0.915 1_455 S
H1811 C1751 0.931 . S
H1812 C1752 0.959 . S
H1813 C1752 0.961 . S
H1814 C1752 0.959 . S
H1815 C1753 0.960 . S
H1816 C1753 0.960 . S
H1817 C1753 0.960 . S
H1818 C1789 0.980 . S
H1819 C1755 0.930 . S
H1820 C1759 0.930 . S
H1821 C1760 0.961 . S
H1822 C1760 0.960 . S
H1823 C1760 0.958 . S
H1824 C1761 0.961 . S
H1825 C1761 0.960 . S
H1826 C1761 0.960 . S
H1827 C1763 0.980 1_655 S
H1828 C1762 0.961 . S
H1829 C1762 0.961 . S
H1830 C1762 0.959 . S
H1831 C1765 0.932 . S
H1832 C1769 0.929 . S
H1833 C1770 0.961 . S
H1834 C1770 0.959 . S
H1835 C1770 0.959 . S
H1836 C1771 0.960 . S
H1837 C1771 0.962 . S
H1838 C1771 0.961 . S
H1839 C1773 0.929 . S
H1840 C1776 0.930 . S
H1841 C1777 0.929 . S
H1842 C1780 0.930 . S
H1843 C1783 0.929 . S
H1844 C1784 0.930 . S
H1845 C1788 0.919 1_455 S
H1846 C1788 0.959 . S
H1847 C1788 0.958 . S
C1848 C1849 1.560 . S
C1848 H1909 0.959 . S
C1848 H1910 0.959 . S
C1848 H1911 0.960 . S
C1849 C1848 1.560 . S
C1849 O1904 1.426 . S
C1849 H1908 0.980 . S
C1850 C1851 1.407 . S
C1850 C1855 1.418 . S
C1850 O1904 1.334 . S
C1851 C1850 1.407 . S
C1851 C1852 1.360 . S
C1851 H1912 0.929 . S
C1852 C1851 1.360 . S
C1852 C1853 1.401 . S
C1852 C1856 1.527 . S
C1853 C1852 1.401 . S
C1853 C1854 1.405 . S
C1853 C1886 1.587 . S
C1854 C1853 1.405 . S
C1854 C1855 1.332 . S
C1854 C1857 1.496 . S
C1855 C1850 1.418 . S
C1855 C1854 1.332 . S
C1855 H1913 0.929 . S
C1856 C1852 1.527 . S
C1856 H1914 0.959 . S
C1856 H1915 0.961 . S
C1856 H1916 0.961 . S
C1857 C1854 1.496 . S
C1857 H1917 0.960 . S
C1857 H1918 0.960 . S
C1857 H1919 0.961 . S
C1858 C1859 1.517 . S
C1858 H1921 0.961 . S
C1858 H1922 0.960 . S
C1858 H1923 0.959 . S
C1859 C1858 1.517 . S
C1859 O1907 1.468 . S
C1859 H1920 0.980 . S
C1860 C1861 1.349 . S
C1860 C1865 1.367 . S
C1860 O1907 1.408 . S
C1861 C1860 1.349 . S
C1861 C1862 1.407 . S
C1861 H1924 0.930 . S
C1862 C1861 1.407 . S
C1862 C1863 1.449 . S
C1862 C1866 1.535 . S
C1863 C1862 1.449 . S
C1863 C1864 1.384 . S
C1863 C1888 1.553 . S
C1864 C1863 1.384 . S
C1864 C1865 1.364 . S
C1864 C1867 1.450 . S
C1865 C1860 1.367 . S
C1865 C1864 1.364 . S
C1865 H1925 0.931 . S
C1866 C1862 1.535 . S
C1866 H1926 0.959 . S
C1866 H1927 0.961 . S
C1866 H1928 0.959 . S
C1867 C1864 1.450 . S
C1867 H1929 0.960 . S
C1867 H1930 0.960 . S
C1867 H1931 0.960 . S
C1868 C1869 1.309 . S
C1868 C1873 1.304 . S
C1868 O1906 1.435 . S
C1869 C1868 1.309 . S
C1869 C1870 1.476 . S
C1869 H1933 0.930 . S
C1870 C1869 1.476 . S
C1870 C1871 1.400 . S
C1870 C1874 1.567 . S
C1871 C1870 1.400 . S
C1871 C1872 1.373 . S
C1871 C1893 1.432 . S
C1872 C1871 1.373 . S
C1872 C1873 1.339 . S
C1872 C1875 1.530 . S
C1873 C1868 1.304 . S
C1873 C1872 1.339 . S
C1873 H1934 0.930 . S
C1874 C1870 1.567 . S
C1874 H1935 0.961 . S
C1874 H1936 0.960 . S
C1874 H1937 0.958 . S
C1875 C1872 1.530 . S
C1875 H1938 0.961 . S
C1875 H1939 0.960 . S
C1875 H1940 0.960 . S
C1876 C1877 1.530 . S
C1876 H1942 0.961 . S
C1876 H1943 0.961 . S
C1876 H1944 0.959 . S
C1877 C1876 1.530 . S
C1877 O1905 1.412 . S
C1877 H1941 0.980 . S
C1878 C1879 1.288 . S
C1878 C1883 1.377 . S
C1878 O1905 1.393 . S
C1879 C1878 1.288 . S
C1879 C1880 1.369 . S
C1879 H1945 0.932 . S
C1880 C1879 1.369 . S
C1880 C1881 1.398 . S
C1880 C1884 1.527 . S
C1881 C1880 1.398 . S
C1881 C1882 1.380 . S
C1881 C1895 1.497 . S
C1882 C1881 1.380 . S
C1882 C1883 1.383 . S
C1882 C1885 1.603 . S
C1883 C1878 1.377 . S
C1883 C1882 1.383 . S
C1883 H1946 0.929 . S
C1884 C1880 1.527 . S
C1884 H1947 0.961 . S
C1884 H1948 0.959 . S
C1884 H1949 0.959 . S
C1885 C1882 1.603 . S
C1885 H1950 0.960 . S
C1885 H1951 0.962 . S
C1885 H1952 0.961 . S
C1886 C1853 1.587 . S
C1886 C1887 1.360 . S
C1886 C1899 1.412 . S
C1887 C1886 1.360 . S
C1887 C1888 1.365 . S
C1887 H1953 0.929 . S
C1888 C1863 1.553 . S
C1888 C1887 1.365 . S
C1888 C1889 1.404 . S
C1889 C1888 1.404 . S
C1889 C1890 1.395 . S
C1889 C1900 1.451 . S
C1890 C1889 1.395 . S
C1890 C1891 1.322 . S
C1890 H1954 0.930 . S
C1891 C1890 1.322 . S
C1891 C1892 1.459 . S
C1891 H1955 0.929 . S
C1892 C1891 1.459 . S
C1892 C1893 1.445 . S
C1892 C1901 1.395 . S
C1893 C1871 1.432 . S
C1893 C1892 1.445 . S
C1893 C1894 1.370 . S
C1894 C1893 1.370 . S
C1894 C1895 1.438 . S
C1894 H1956 0.930 . S
C1895 C1881 1.497 . S
C1895 C1894 1.438 . S
C1895 C1896 1.360 . S
C1896 C1895 1.360 . S
C1896 C1897 1.401 . S
C1896 C1901 1.446 . S
C1897 C1896 1.401 . S
C1897 C1898 1.347 . S
C1897 H1957 0.929 . S
C1898 C1897 1.347 . S
C1898 C1899 1.455 . S
C1898 H1958 0.930 . S
C1899 C1886 1.412 . S
C1899 C1898 1.455 . S
C1899 C1900 1.331 . S
C1900 C1889 1.451 . S
C1900 C1899 1.331 . S
C1900 C1901 1.497 . S
C1901 C1892 1.395 . S
C1901 C1896 1.446 . S
C1901 C1900 1.497 . S
C1902 C1903 1.582 . S
C1902 H1959 0.962 . S
C1902 H1960 0.959 . S
C1902 H1961 0.958 . S
C1903 C1902 1.582 . S
C1903 O1906 1.458 . S
C1903 H1932 0.980 . S
O1904 C1849 1.426 . S
O1904 C1850 1.334 . S
O1905 C1877 1.412 . S
O1905 C1878 1.393 . S
O1906 C1868 1.435 . S
O1906 C1903 1.458 . S
O1907 C1859 1.468 . S
O1907 C1860 1.408 . S
H1908 C1849 0.980 . S
H1909 C1848 0.959 . S
H1910 C1848 0.959 . S
H1911 C1848 0.960 . S
H1912 C1851 0.929 . S
H1913 C1855 0.929 . S
H1914 C1856 0.959 . S
H1915 C1856 0.961 . S
H1916 C1856 0.961 . S
H1917 C1857 0.960 . S
H1918 C1857 0.960 . S
H1919 C1857 0.961 . S
H1920 C1859 0.980 . S
H1921 C1858 0.961 . S
H1922 C1858 0.960 . S
H1923 C1858 0.959 . S
H1924 C1861 0.930 . S
H1925 C1865 0.931 . S
H1926 C1866 0.959 . S
H1927 C1866 0.961 . S
H1928 C1866 0.959 . S
H1929 C1867 0.960 . S
H1930 C1867 0.960 . S
H1931 C1867 0.960 . S
H1932 C1903 0.980 . S
H1933 C1869 0.930 . S
H1934 C1873 0.930 . S
H1935 C1874 0.961 . S
H1936 C1874 0.960 . S
H1937 C1874 0.958 . S
H1938 C1875 0.961 . S
H1939 C1875 0.960 . S
H1940 C1875 0.960 . S
H1941 C1877 0.980 . S
H1942 C1876 0.961 . S
H1943 C1876 0.961 . S
H1944 C1876 0.959 . S
H1945 C1879 0.932 . S
H1946 C1883 0.929 . S
H1947 C1884 0.961 . S
H1948 C1884 0.959 . S
H1949 C1884 0.959 . S
H1950 C1885 0.960 . S
H1951 C1885 0.962 . S
H1952 C1885 0.961 . S
H1953 C1887 0.929 . S
H1954 C1890 0.930 . S
H1955 C1891 0.929 . S
H1956 C1894 0.930 . S
H1957 C1897 0.929 . S
H1958 C1898 0.930 . S
H1959 C1902 0.962 . S
H1960 C1902 0.959 . S
H1961 C1902 0.958 . S
C1962 C1963 1.560 . S
C1962 H2023 0.959 . S
C1962 H2024 0.959 . S
C1962 H2025 0.960 . S
C1963 C1962 1.560 . S
C1963 O2018 1.426 . S
C1963 H2022 0.980 . S
C1964 C1965 1.407 . S
C1964 C1969 1.418 . S
C1964 O2018 1.334 . S
C1965 C1964 1.407 . S
C1965 C1966 1.360 . S
C1965 H2026 0.929 . S
C1966 C1965 1.360 . S
C1966 C1967 1.401 . S
C1966 C1970 1.527 . S
C1967 C1966 1.401 . S
C1967 C1968 1.405 . S
C1967 C2000 1.587 . S
C1968 C1967 1.405 . S
C1968 C1969 1.332 . S
C1968 C1971 1.496 . S
C1969 C1964 1.418 . S
C1969 C1968 1.332 . S
C1969 H2027 0.929 . S
C1970 C1966 1.527 . S
C1970 H2028 0.959 . S
C1970 H2029 0.961 . S
C1970 H2030 0.961 . S
C1971 C1968 1.496 . S
C1971 H2031 0.960 . S
C1971 H2032 0.960 . S
C1971 H2033 0.961 . S
C1972 C1973 1.517 . S
C1972 H2035 0.961 . S
C1972 H2036 0.960 . S
C1972 H2037 0.959 . S
C1973 C1972 1.517 . S
C1973 O2021 1.468 . S
C1973 H2034 0.980 . S
C1974 C1975 1.349 . S
C1974 C1979 1.367 . S
C1974 O2021 1.408 . S
C1975 C1974 1.349 . S
C1975 C1976 1.407 . S
C1975 H2038 0.930 . S
C1976 C1975 1.407 . S
C1976 C1977 1.449 . S
C1976 C1980 1.535 . S
C1977 C1976 1.449 . S
C1977 C1978 1.384 . S
C1977 C2002 1.553 . S
C1978 C1977 1.384 . S
C1978 C1979 1.364 . S
C1978 C1981 1.450 . S
C1979 C1974 1.367 . S
C1979 C1978 1.364 . S
C1979 H2039 0.931 . S
C1980 C1976 1.535 . S
C1980 H2040 0.959 . S
C1980 H2041 0.961 . S
C1980 H2042 0.959 . S
C1981 C1978 1.450 . S
C1981 H2043 0.960 . S
C1981 H2044 0.960 . S
C1981 H2045 0.960 . S
C1982 C1983 1.309 . S
C1982 C1987 1.304 . S
C1982 O2020 1.435 . S
C1983 C1982 1.309 . S
C1983 C1984 1.476 . S
C1983 H2047 0.930 . S
C1984 C1983 1.476 . S
C1984 C1985 1.400 . S
C1984 C1988 1.567 . S
C1985 C1984 1.400 . S
C1985 C1986 1.373 . S
C1985 C2007 1.432 . S
C1986 C1985 1.373 . S
C1986 C1987 1.339 . S
C1986 C1989 1.530 . S
C1987 C1982 1.304 . S
C1987 C1986 1.339 . S
C1987 H2048 0.930 . S
C1988 C1984 1.567 . S
C1988 H2049 0.961 . S
C1988 H2050 0.960 . S
C1988 H2051 0.958 . S
C1989 C1986 1.530 . S
C1989 H2052 0.961 . S
C1989 H2053 0.960 . S
C1989 H2054 0.960 . S
C1990 C1991 1.530 . S
C1990 H2056 0.961 . S
C1990 H2057 0.961 . S
C1990 H2058 0.959 . S
C1991 C1990 1.530 . S
C1991 O2019 1.412 . S
C1991 H2055 0.980 . S
C1992 C1993 1.288 . S
C1992 C1997 1.377 . S
C1992 O2019 1.393 . S
C1993 C1992 1.288 . S
C1993 C1994 1.369 . S
C1993 H2059 0.932 . S
C1994 C1993 1.369 . S
C1994 C1995 1.398 . S
C1994 C1998 1.527 . S
C1995 C1994 1.398 . S
C1995 C1996 1.380 . S
C1995 C2009 1.497 . S
C1996 C1995 1.380 . S
C1996 C1997 1.383 . S
C1996 C1999 1.603 . S
C1997 C1992 1.377 . S
C1997 C1996 1.383 . S
C1997 H2060 0.929 . S
C1998 C1994 1.527 . S
C1998 H2061 0.961 . S
C1998 H2062 0.959 . S
C1998 H2063 0.959 . S
C1999 C1996 1.603 . S
C1999 H2064 0.960 . S
C1999 H2065 0.962 . S
C1999 H2066 0.961 . S
C2000 C1967 1.587 . S
C2000 C2001 1.360 . S
C2000 C2013 1.412 . S
C2001 C2000 1.360 . S
C2001 C2002 1.365 . S
C2001 H2067 0.929 . S
C2002 C1977 1.553 . S
C2002 C2001 1.365 . S
C2002 C2003 1.404 . S
C2003 C2002 1.404 . S
C2003 C2004 1.395 . S
C2003 C2014 1.451 . S
C2004 C2003 1.395 . S
C2004 C2005 1.322 . S
C2004 H2068 0.930 . S
C2005 C2004 1.322 . S
C2005 C2006 1.459 . S
C2005 H2069 0.929 . S
C2006 C2005 1.459 . S
C2006 C2007 1.445 . S
C2006 C2015 1.395 . S
C2007 C1985 1.432 . S
C2007 C2006 1.445 . S
C2007 C2008 1.370 . S
C2008 C2007 1.370 . S
C2008 C2009 1.438 . S
C2008 H2070 0.930 . S
C2009 C1995 1.497 . S
C2009 C2008 1.438 . S
C2009 C2010 1.360 . S
C2010 C2009 1.360 . S
C2010 C2011 1.401 . S
C2010 C2015 1.446 . S
C2011 C2010 1.401 . S
C2011 C2012 1.347 . S
C2011 H2071 0.929 . S
C2012 C2011 1.347 . S
C2012 C2013 1.455 . S
C2012 H2072 0.930 . S
C2013 C2000 1.412 . S
C2013 C2012 1.455 . S
C2013 C2014 1.331 . S
C2014 C2003 1.451 . S
C2014 C2013 1.331 . S
C2014 C2015 1.497 . S
C2015 C2006 1.395 . S
C2015 C2010 1.446 . S
C2015 C2014 1.497 . S
C2016 C2017 1.582 . S
C2016 H2073 0.962 . S
C2016 H2074 0.959 . S
C2016 H2075 0.958 . S
C2017 C2016 1.582 . S
C2017 O2020 1.458 . S
C2017 H2046 0.980 . S
O2018 C1963 1.426 . S
O2018 C1964 1.334 . S
O2019 C1991 1.412 . S
O2019 C1992 1.393 . S
O2020 C1982 1.435 . S
O2020 C2017 1.458 . S
O2021 C1973 1.468 . S
O2021 C1974 1.408 . S
H2022 C1963 0.980 . S
H2023 C1962 0.959 . S
H2024 C1962 0.959 . S
H2025 C1962 0.960 . S
H2026 C1965 0.929 . S
H2027 C1969 0.929 . S
H2028 C1970 0.959 . S
H2029 C1970 0.961 . S
H2030 C1970 0.961 . S
H2031 C1971 0.960 . S
H2032 C1971 0.960 . S
H2033 C1971 0.961 . S
H2034 C1973 0.980 . S
H2035 C1972 0.961 . S
H2036 C1972 0.960 . S
H2037 C1972 0.959 . S
H2038 C1975 0.930 . S
H2039 C1979 0.931 . S
H2040 C1980 0.959 . S
H2041 C1980 0.961 . S
H2042 C1980 0.959 . S
H2043 C1981 0.960 . S
H2044 C1981 0.960 . S
H2045 C1981 0.960 . S
H2046 C2017 0.980 . S
H2047 C1983 0.930 . S
H2048 C1987 0.930 . S
H2049 C1988 0.961 . S
H2050 C1988 0.960 . S
H2051 C1988 0.958 . S
H2052 C1989 0.961 . S
H2053 C1989 0.960 . S
H2054 C1989 0.960 . S
H2055 C1991 0.980 . S
H2056 C1990 0.961 . S
H2057 C1990 0.961 . S
H2058 C1990 0.959 . S
H2059 C1993 0.932 . S
H2060 C1997 0.929 . S
H2061 C1998 0.961 . S
H2062 C1998 0.959 . S
H2063 C1998 0.959 . S
H2064 C1999 0.960 . S
H2065 C1999 0.962 . S
H2066 C1999 0.961 . S
H2067 C2001 0.929 . S
H2068 C2004 0.930 . S
H2069 C2005 0.929 . S
H2070 C2008 0.930 . S
H2071 C2011 0.929 . S
H2072 C2012 0.930 . S
H2073 C2016 0.962 . S
H2074 C2016 0.959 . S
H2075 C2016 0.958 . S
C2076 C2077 1.560 . S
C2076 H2137 0.959 . S
C2076 H2138 0.959 . S
C2076 H2139 0.960 . S
C2077 C2076 1.560 . S
C2077 O2132 1.426 . S
C2077 H2136 0.980 . S
C2078 C2079 1.407 . S
C2078 C2083 1.418 . S
C2078 O2132 1.334 . S
C2079 C2078 1.407 . S
C2079 C2080 1.360 . S
C2079 H2140 0.929 . S
C2080 C2079 1.360 . S
C2080 C2081 1.401 . S
C2080 C2084 1.527 . S
C2081 C2080 1.401 . S
C2081 C2082 1.405 . S
C2081 C2114 1.587 . S
C2082 C2081 1.405 . S
C2082 C2083 1.332 . S
C2082 C2085 1.496 . S
C2083 C2078 1.418 . S
C2083 C2082 1.332 . S
C2083 H2141 0.929 . S
C2084 C2080 1.527 . S
C2084 H2142 0.959 . S
C2084 H2143 0.961 . S
C2084 H2144 0.961 . S
C2085 C2082 1.496 . S
C2085 H2145 0.960 . S
C2085 H2146 0.960 . S
C2085 H2147 0.961 . S
C2086 C2087 1.517 . S
C2086 H2149 0.961 . S
C2086 H2150 0.960 . S
C2086 H2151 0.959 . S
C2087 C2086 1.517 . S
C2087 O2135 1.468 . S
C2087 H2148 0.980 . S
C2088 C2089 1.349 . S
C2088 C2093 1.367 . S
C2088 O2135 1.408 . S
C2089 C2088 1.349 . S
C2089 C2090 1.407 . S
C2089 H2152 0.930 . S
C2090 C2089 1.407 . S
C2090 C2091 1.449 . S
C2090 C2094 1.535 . S
C2091 C2090 1.449 . S
C2091 C2092 1.384 . S
C2091 C2116 1.553 . S
C2092 C2091 1.384 . S
C2092 C2093 1.364 . S
C2092 C2095 1.450 . S
C2093 C2088 1.367 . S
C2093 C2092 1.364 . S
C2093 H2153 0.931 . S
C2094 C2090 1.535 . S
C2094 H2154 0.959 . S
C2094 H2155 0.961 . S
C2094 H2156 0.959 . S
C2095 C2092 1.450 . S
C2095 H2157 0.960 . S
C2095 H2158 0.960 . S
C2095 H2159 0.960 . S
C2096 C2097 1.309 . S
C2096 C2101 1.304 . S
C2096 O2134 1.435 . S
C2097 C2096 1.309 . S
C2097 C2098 1.476 . S
C2097 H2161 0.930 . S
C2098 C2097 1.476 . S
C2098 C2099 1.400 . S
C2098 C2102 1.567 . S
C2099 C2098 1.400 . S
C2099 C2100 1.373 . S
C2099 C2121 1.432 . S
C2100 C2099 1.373 . S
C2100 C2101 1.339 . S
C2100 C2103 1.530 . S
C2101 C2096 1.304 . S
C2101 C2100 1.339 . S
C2101 H2162 0.930 . S
C2102 C2098 1.567 . S
C2102 H2163 0.961 . S
C2102 H2164 0.960 . S
C2102 H2165 0.958 . S
C2103 C2100 1.530 . S
C2103 H2166 0.961 . S
C2103 H2167 0.960 . S
C2103 H2168 0.960 . S
C2104 C2105 1.530 . S
C2104 H2170 0.961 . S
C2104 H2171 0.961 . S
C2104 H2172 0.959 . S
C2105 C2104 1.530 . S
C2105 O2133 1.412 . S
C2105 H2169 0.980 . S
C2106 C2107 1.288 . S
C2106 C2111 1.377 . S
C2106 O2133 1.393 . S
C2107 C2106 1.288 . S
C2107 C2108 1.369 . S
C2107 H2173 0.932 . S
C2108 C2107 1.369 . S
C2108 C2109 1.398 . S
C2108 C2112 1.527 . S
C2109 C2108 1.398 . S
C2109 C2110 1.380 . S
C2109 C2123 1.497 . S
C2110 C2109 1.380 . S
C2110 C2111 1.383 . S
C2110 C2113 1.603 . S
C2111 C2106 1.377 . S
C2111 C2110 1.383 . S
C2111 H2174 0.929 . S
C2112 C2108 1.527 . S
C2112 H2175 0.961 . S
C2112 H2176 0.959 . S
C2112 H2177 0.959 . S
C2113 C2110 1.603 . S
C2113 H2178 0.960 . S
C2113 H2179 0.962 . S
C2113 H2180 0.961 . S
C2114 C2081 1.587 . S
C2114 C2115 1.360 . S
C2114 C2127 1.412 . S
C2115 C2114 1.360 . S
C2115 C2116 1.365 . S
C2115 H2181 0.929 . S
C2116 C2091 1.553 . S
C2116 C2115 1.365 . S
C2116 C2117 1.404 . S
C2117 C2116 1.404 . S
C2117 C2118 1.395 . S
C2117 C2128 1.451 . S
C2118 C2117 1.395 . S
C2118 C2119 1.322 . S
C2118 H2182 0.930 . S
C2119 C2118 1.322 . S
C2119 C2120 1.459 . S
C2119 H2183 0.929 . S
C2120 C2119 1.459 . S
C2120 C2121 1.445 . S
C2120 C2129 1.395 . S
C2121 C2099 1.432 . S
C2121 C2120 1.445 . S
C2121 C2122 1.370 . S
C2122 C2121 1.370 . S
C2122 C2123 1.438 . S
C2122 H2184 0.930 . S
C2123 C2109 1.497 . S
C2123 C2122 1.438 . S
C2123 C2124 1.360 . S
C2124 C2123 1.360 . S
C2124 C2125 1.401 . S
C2124 C2129 1.446 . S
C2125 C2124 1.401 . S
C2125 C2126 1.347 . S
C2125 H2185 0.929 . S
C2126 C2125 1.347 . S
C2126 C2127 1.455 . S
C2126 H2186 0.930 . S
C2127 C2114 1.412 . S
C2127 C2126 1.455 . S
C2127 C2128 1.331 . S
C2128 C2117 1.451 . S
C2128 C2127 1.331 . S
C2128 C2129 1.497 . S
C2129 C2120 1.395 . S
C2129 C2124 1.446 . S
C2129 C2128 1.497 . S
C2130 C2131 1.582 . S
C2130 H2187 0.962 . S
C2130 H2188 0.959 . S
C2130 H2189 0.958 . S
C2131 C2130 1.582 . S
C2131 O2134 1.458 . S
C2131 H2160 0.980 . S
O2132 C2077 1.426 . S
O2132 C2078 1.334 . S
O2133 C2105 1.412 . S
O2133 C2106 1.393 . S
O2134 C2096 1.435 . S
O2134 C2131 1.458 . S
O2135 C2087 1.468 . S
O2135 C2088 1.408 . S
H2136 C2077 0.980 . S
H2137 C2076 0.959 . S
H2138 C2076 0.959 . S
H2139 C2076 0.960 . S
H2140 C2079 0.929 . S
H2141 C2083 0.929 . S
H2142 C2084 0.959 . S
H2143 C2084 0.961 . S
H2144 C2084 0.961 . S
H2145 C2085 0.960 . S
H2146 C2085 0.960 . S
H2147 C2085 0.961 . S
H2148 C2087 0.980 . S
H2149 C2086 0.961 . S
H2150 C2086 0.960 . S
H2151 C2086 0.959 . S
H2152 C2089 0.930 . S
H2153 C2093 0.931 . S
H2154 C2094 0.959 . S
H2155 C2094 0.961 . S
H2156 C2094 0.959 . S
H2157 C2095 0.960 . S
H2158 C2095 0.960 . S
H2159 C2095 0.960 . S
H2160 C2131 0.980 . S
H2161 C2097 0.930 . S
H2162 C2101 0.930 . S
H2163 C2102 0.961 . S
H2164 C2102 0.960 . S
H2165 C2102 0.958 . S
H2166 C2103 0.961 . S
H2167 C2103 0.960 . S
H2168 C2103 0.960 . S
H2169 C2105 0.980 . S
H2170 C2104 0.961 . S
H2171 C2104 0.961 . S
H2172 C2104 0.959 . S
H2173 C2107 0.932 . S
H2174 C2111 0.929 . S
H2175 C2112 0.961 . S
H2176 C2112 0.959 . S
H2177 C2112 0.959 . S
H2178 C2113 0.960 . S
H2179 C2113 0.962 . S
H2180 C2113 0.961 . S
H2181 C2115 0.929 . S
H2182 C2118 0.930 . S
H2183 C2119 0.929 . S
H2184 C2122 0.930 . S
H2185 C2125 0.929 . S
H2186 C2126 0.930 . S
H2187 C2130 0.962 . S
H2188 C2130 0.959 . S
H2189 C2130 0.958 . S
C2190 C2191 1.560 . S
C2190 H2251 0.959 . S
C2190 H2252 0.959 . S
C2190 H2253 0.960 . S
C2191 C2190 1.560 . S
C2191 O2246 1.426 . S
C2191 H2250 0.980 . S
C2192 C2193 1.407 . S
C2192 C2197 1.418 . S
C2192 O2246 1.334 . S
C2193 C2192 1.407 . S
C2193 C2194 1.360 . S
C2193 H2254 0.929 . S
C2194 C2193 1.360 . S
C2194 C2195 1.401 . S
C2194 C2198 1.527 . S
C2195 C2194 1.401 . S
C2195 C2196 1.405 . S
C2195 C2228 1.587 . S
C2196 C2195 1.405 . S
C2196 C2197 1.332 . S
C2196 C2199 1.496 . S
C2197 C2192 1.418 . S
C2197 C2196 1.332 . S
C2197 H2255 0.929 . S
C2198 C2194 1.527 . S
C2198 H2256 0.959 . S
C2198 H2257 0.961 . S
C2198 H2258 0.961 . S
C2199 C2196 1.496 . S
C2199 H2259 0.960 . S
C2199 H2260 0.960 . S
C2199 H2261 0.961 . S
C2200 C2201 1.517 . S
C2200 H2263 0.961 . S
C2200 H2264 0.960 . S
C2200 H2265 0.959 . S
C2201 C2200 1.517 . S
C2201 O2249 1.468 . S
C2201 H2262 0.980 . S
C2202 C2203 1.349 . S
C2202 C2207 1.367 . S
C2202 O2249 1.408 . S
C2203 C2202 1.349 . S
C2203 C2204 1.407 . S
C2203 H2266 0.930 . S
C2204 C2203 1.407 . S
C2204 C2205 1.449 . S
C2204 C2208 1.535 . S
C2205 C2204 1.449 . S
C2205 C2206 1.384 . S
C2205 C2230 1.553 . S
C2206 C2205 1.384 . S
C2206 C2207 1.364 . S
C2206 C2209 1.450 . S
C2207 C2202 1.367 . S
C2207 C2206 1.364 . S
C2207 H2267 0.931 . S
C2208 C2204 1.535 . S
C2208 H2268 0.959 . S
C2208 H2269 0.961 . S
C2208 H2270 0.959 . S
C2209 C2206 1.450 . S
C2209 H2271 0.960 . S
C2209 H2272 0.960 . S
C2209 H2273 0.960 . S
C2210 C2211 1.309 . S
C2210 C2215 1.304 . S
C2210 O2248 1.435 . S
C2211 C2210 1.309 . S
C2211 C2212 1.476 . S
C2211 H2275 0.930 . S
C2212 C2211 1.476 . S
C2212 C2213 1.400 . S
C2212 C2216 1.567 . S
C2213 C2212 1.400 . S
C2213 C2214 1.373 . S
C2213 C2235 1.432 . S
C2214 C2213 1.373 . S
C2214 C2215 1.339 . S
C2214 C2217 1.530 . S
C2215 C2210 1.304 . S
C2215 C2214 1.339 . S
C2215 H2276 0.930 . S
C2216 C2212 1.567 . S
C2216 H2277 0.961 . S
C2216 H2278 0.960 . S
C2216 H2279 0.958 . S
C2217 C2214 1.530 . S
C2217 H2280 0.961 . S
C2217 H2281 0.960 . S
C2217 H2282 0.960 . S
C2218 C2219 1.530 . S
C2218 H2284 0.961 . S
C2218 H2285 0.961 . S
C2218 H2286 0.959 . S
C2219 C2218 1.530 . S
C2219 O2247 1.412 . S
C2219 H2283 0.980 . S
C2220 C2221 1.288 . S
C2220 C2225 1.377 . S
C2220 O2247 1.393 . S
C2221 C2220 1.288 . S
C2221 C2222 1.369 . S
C2221 H2287 0.932 . S
C2222 C2221 1.369 . S
C2222 C2223 1.398 . S
C2222 C2226 1.527 . S
C2223 C2222 1.398 . S
C2223 C2224 1.380 . S
C2223 C2237 1.497 . S
C2224 C2223 1.380 . S
C2224 C2225 1.383 . S
C2224 C2227 1.603 . S
C2225 C2220 1.377 . S
C2225 C2224 1.383 . S
C2225 H2288 0.929 . S
C2226 C2222 1.527 . S
C2226 H2289 0.961 . S
C2226 H2290 0.959 . S
C2226 H2291 0.959 . S
C2227 C2224 1.603 . S
C2227 H2292 0.960 . S
C2227 H2293 0.962 . S
C2227 H2294 0.961 . S
C2228 C2195 1.587 . S
C2228 C2229 1.360 . S
C2228 C2241 1.412 . S
C2229 C2228 1.360 . S
C2229 C2230 1.365 . S
C2229 H2295 0.929 . S
C2230 C2205 1.553 . S
C2230 C2229 1.365 . S
C2230 C2231 1.404 . S
C2231 C2230 1.404 . S
C2231 C2232 1.395 . S
C2231 C2242 1.451 . S
C2232 C2231 1.395 . S
C2232 C2233 1.322 . S
C2232 H2296 0.930 . S
C2233 C2232 1.322 . S
C2233 C2234 1.459 . S
C2233 H2297 0.929 . S
C2234 C2233 1.459 . S
C2234 C2235 1.445 . S
C2234 C2243 1.395 . S
C2235 C2213 1.432 . S
C2235 C2234 1.445 . S
C2235 C2236 1.370 . S
C2236 C2235 1.370 . S
C2236 C2237 1.438 . S
C2236 H2298 0.930 . S
C2237 C2223 1.497 . S
C2237 C2236 1.438 . S
C2237 C2238 1.360 . S
C2238 C2237 1.360 . S
C2238 C2239 1.401 . S
C2238 C2243 1.446 . S
C2239 C2238 1.401 . S
C2239 C2240 1.347 . S
C2239 H2299 0.929 . S
C2240 C2239 1.347 . S
C2240 C2241 1.455 . S
C2240 H2300 0.930 . S
C2241 C2228 1.412 . S
C2241 C2240 1.455 . S
C2241 C2242 1.331 . S
C2242 C2231 1.451 . S
C2242 C2241 1.331 . S
C2242 C2243 1.497 . S
C2243 C2234 1.395 . S
C2243 C2238 1.446 . S
C2243 C2242 1.497 . S
C2244 C2245 1.582 . S
C2244 H2301 0.962 . S
C2244 H2302 0.959 . S
C2244 H2303 0.958 . S
C2245 C2244 1.582 . S
C2245 O2248 1.458 . S
C2245 H2274 0.980 . S
O2246 C2191 1.426 . S
O2246 C2192 1.334 . S
O2247 C2219 1.412 . S
O2247 C2220 1.393 . S
O2248 C2210 1.435 . S
O2248 C2245 1.458 . S
O2249 C2201 1.468 . S
O2249 C2202 1.408 . S
H2250 C2191 0.980 . S
H2251 C2190 0.959 . S
H2252 C2190 0.959 . S
H2253 C2190 0.960 . S
H2254 C2193 0.929 . S
H2255 C2197 0.929 . S
H2256 C2198 0.959 . S
H2257 C2198 0.961 . S
H2258 C2198 0.961 . S
H2259 C2199 0.960 . S
H2260 C2199 0.960 . S
H2261 C2199 0.961 . S
H2262 C2201 0.980 . S
H2263 C2200 0.961 . S
H2264 C2200 0.960 . S
H2265 C2200 0.959 . S
H2266 C2203 0.930 . S
H2267 C2207 0.931 . S
H2268 C2208 0.959 . S
H2269 C2208 0.961 . S
H2270 C2208 0.959 . S
H2271 C2209 0.960 . S
H2272 C2209 0.960 . S
H2273 C2209 0.960 . S
H2274 C2245 0.980 . S
H2275 C2211 0.930 . S
H2276 C2215 0.930 . S
H2277 C2216 0.961 . S
H2278 C2216 0.960 . S
H2279 C2216 0.958 . S
H2280 C2217 0.961 . S
H2281 C2217 0.960 . S
H2282 C2217 0.960 . S
H2283 C2219 0.980 . S
H2284 C2218 0.961 . S
H2285 C2218 0.961 . S
H2286 C2218 0.959 . S
H2287 C2221 0.932 . S
H2288 C2225 0.929 . S
H2289 C2226 0.961 . S
H2290 C2226 0.959 . S
H2291 C2226 0.959 . S
H2292 C2227 0.960 . S
H2293 C2227 0.962 . S
H2294 C2227 0.961 . S
H2295 C2229 0.929 . S
H2296 C2232 0.930 . S
H2297 C2233 0.929 . S
H2298 C2236 0.930 . S
H2299 C2239 0.929 . S
H2300 C2240 0.930 . S
H2301 C2244 0.962 . S
H2302 C2244 0.959 . S
H2303 C2244 0.958 . S
H2304 C2310 0.930 . S
H2305 C2314 0.930 . S
H2306 C2319 0.929 . S
H2307 C2317 0.929 . S
H2308 C2312 0.929 . S
H2309 C2318 0.929 . S
C2310 H2304 0.930 . S
C2310 C2311 1.367 1_455 S
C2310 C2318 1.378 . S
C2311 C2310 1.367 1_655 S
C2311 C2319 1.433 . S
C2312 H2308 0.929 . S
C2312 C2314 1.378 . S
C2312 C2316 1.350 . S
C2313 C2316 1.463 . S
C2313 C2318 1.350 1_655 S
C2313 N2321 1.427 . S
C2314 H2305 0.930 . S
C2314 C2312 1.378 . S
C2314 C2315 1.367 . S
C2315 C2314 1.367 . S
C2315 C2317 1.433 1_655 S
C2316 C2312 1.350 . S
C2316 C2313 1.463 . S
C2316 N2320 1.427 1_655 S
C2317 H2307 0.929 . S
C2317 C2315 1.433 1_455 S
C2317 N2320 1.384 . S
C2318 H2309 0.929 . S
C2318 C2310 1.378 . S
C2318 C2313 1.350 1_455 S
C2319 H2306 0.929 . S
C2319 C2311 1.433 . S
C2319 N2321 1.384 . S
N2320 C2316 1.427 1_455 S
N2320 C2317 1.384 . S
N2321 C2313 1.427 . S
N2321 C2319 1.384 . S
H2322 C2328 0.930 . S
H2323 C2332 0.930 . S
H2324 C2337 0.929 . S
H2325 C2335 0.929 . S
H2326 C2330 0.929 . S
H2327 C2336 0.929 . S
C2328 H2322 0.930 . S
C2328 C2329 1.367 . S
C2328 C2336 1.378 . S
C2329 C2328 1.367 . S
C2329 C2337 1.433 . S
C2330 H2326 0.929 . S
C2330 C2332 1.378 . S
C2330 C2334 1.350 . S
C2331 C2334 1.463 . S
C2331 C2336 1.350 . S
C2331 N2339 1.427 . S
C2332 H2323 0.930 . S
C2332 C2330 1.378 . S
C2332 C2333 1.367 . S
C2333 C2332 1.367 . S
C2333 C2335 1.433 . S
C2334 C2330 1.350 . S
C2334 C2331 1.463 . S
C2334 N2338 1.427 . S
C2335 H2325 0.929 . S
C2335 C2333 1.433 . S
C2335 N2338 1.384 . S
C2336 H2327 0.929 . S
C2336 C2328 1.378 . S
C2336 C2331 1.350 . S
C2337 H2324 0.929 . S
C2337 C2329 1.433 . S
C2337 N2339 1.384 . S
N2338 C2334 1.427 . S
N2338 C2335 1.384 . S
N2339 C2331 1.427 . S
N2339 C2337 1.384 . S
H2340 C2346 0.930 . S
H2341 C2350 0.930 . S
H2342 C2355 0.929 1_565 S
H2343 C2353 0.929 . S
H2344 C2348 0.929 . S
H2345 C2354 0.929 . S
C2346 H2340 0.930 . S
C2346 C2347 1.367 . S
C2346 C2354 1.378 . S
C2347 C2346 1.367 . S
C2347 C2355 1.433 . S
C2348 H2344 0.929 . S
C2348 C2350 1.378 . S
C2348 C2352 1.350 1_565 S
C2349 C2352 1.463 . S
C2349 C2354 1.350 . S
C2349 N2357 1.427 . S
C2350 H2341 0.930 . S
C2350 C2348 1.378 . S
C2350 C2351 1.367 1_565 S
C2351 C2350 1.367 1_545 S
C2351 C2353 1.433 . S
C2352 C2348 1.350 1_545 S
C2352 C2349 1.463 . S
C2352 N2356 1.427 . S
C2353 H2343 0.929 . S
C2353 C2351 1.433 . S
C2353 N2356 1.384 . S
C2354 H2345 0.929 . S
C2354 C2346 1.378 . S
C2354 C2349 1.350 . S
C2355 H2342 0.929 1_545 S
C2355 C2347 1.433 . S
C2355 N2357 1.384 . S
N2356 C2352 1.427 . S
N2356 C2353 1.384 . S
N2357 C2349 1.427 . S
N2357 C2355 1.384 . S
H2358 C2364 0.930 . S
H2359 C2368 0.930 . S
H2360 C2373 0.940 . S
H2361 C2371 0.929 . S
H2362 C2366 0.929 . S
H2363 C2372 0.929 . S
C2364 H2358 0.930 . S
C2364 C2365 1.367 . S
C2364 C2372 1.378 . S
C2365 C2364 1.367 . S
C2365 C2373 1.433 . S
C2366 H2362 0.929 . S
C2366 C2368 1.378 . S
C2366 C2370 1.350 . S
C2367 C2370 1.463 . S
C2367 C2372 1.350 . S
C2367 N2375 1.427 . S
C2368 H2359 0.930 . S
C2368 C2366 1.378 . S
C2368 C2369 1.367 . S
C2369 C2368 1.367 . S
C2369 C2371 1.433 . S
C2370 C2366 1.350 . S
C2370 C2367 1.463 . S
C2370 N2374 1.427 . S
C2371 H2361 0.929 . S
C2371 C2369 1.433 . S
C2371 N2374 1.384 . S
C2372 H2363 0.929 . S
C2372 C2364 1.378 . S
C2372 C2367 1.350 . S
C2373 H2360 0.940 . S
C2373 C2365 1.433 . S
C2373 N2375 1.384 . S
N2374 C2370 1.427 . S
N2374 C2371 1.384 . S
N2375 C2367 1.427 . S
N2375 C2373 1.384 . S
H2376 C2382 0.930 . S
H2377 C2386 0.930 . S
H2378 C2391 0.929 . S
H2379 C2389 0.929 . S
H2380 C2384 0.929 . S
H2381 C2390 0.929 . S
C2382 H2376 0.930 . S
C2382 C2383 1.367 . S
C2382 C2390 1.378 . S
C2383 C2382 1.367 . S
C2383 C2391 1.433 1_455 S
C2384 H2380 0.929 . S
C2384 C2386 1.378 . S
C2384 C2388 1.350 1_655 S
C2385 C2388 1.463 . S
C2385 C2390 1.350 . S
C2385 N2393 1.427 1_455 S
C2386 H2377 0.930 . S
C2386 C2384 1.378 . S
C2386 C2387 1.367 1_655 S
C2387 C2386 1.367 1_455 S
C2387 C2389 1.433 . S
C2388 C2384 1.350 1_455 S
C2388 C2385 1.463 . S
C2388 N2392 1.427 . S
C2389 H2379 0.929 . S
C2389 C2387 1.433 . S
C2389 N2392 1.384 . S
C2390 H2381 0.929 . S
C2390 C2382 1.378 . S
C2390 C2385 1.350 . S
C2391 H2378 0.929 . S
C2391 C2383 1.433 1_655 S
C2391 N2393 1.384 . S
N2392 C2388 1.427 . S
N2392 C2389 1.384 . S
N2393 C2385 1.427 1_655 S
N2393 C2391 1.384 . S
H2394 C2400 0.930 . S
H2395 C2404 0.930 . S
H2396 C2409 0.960 . S
H2397 C2407 0.929 . S
H2398 C2402 0.929 . S
H2399 C2408 0.929 . S
C2400 H2394 0.930 . S
C2400 C2401 1.367 . S
C2400 C2408 1.378 . S
C2401 C2400 1.367 . S
C2401 C2409 1.433 . S
C2402 H2398 0.929 . S
C2402 C2404 1.378 . S
C2402 C2406 1.350 . S
C2403 C2406 1.463 . S
C2403 C2408 1.350 . S
C2403 N2411 1.427 . S
C2404 H2395 0.930 . S
C2404 C2402 1.378 . S
C2404 C2405 1.367 . S
C2405 C2404 1.367 . S
C2405 C2407 1.433 . S
C2406 C2402 1.350 . S
C2406 C2403 1.463 . S
C2406 N2410 1.427 . S
C2407 H2397 0.929 . S
C2407 C2405 1.433 . S
C2407 N2410 1.384 . S
C2408 H2399 0.929 . S
C2408 C2400 1.378 . S
C2408 C2403 1.350 . S
C2409 H2396 0.960 . S
C2409 C2401 1.433 . S
C2409 N2411 1.384 . S
N2410 C2406 1.427 . S
N2410 C2407 1.384 . S
N2411 C2403 1.427 . S
N2411 C2409 1.384 . S
H2412 C2418 0.930 . S
H2413 C2422 0.930 . S
H2414 C2427 0.929 . S
H2415 C2425 0.929 . S
H2416 C2420 0.929 . S
H2417 C2426 0.929 1_655 S
C2418 H2412 0.930 . S
C2418 C2419 1.367 . S
C2418 C2426 1.378 . S
C2419 C2418 1.367 . S
C2419 C2427 1.433 . S
C2420 H2416 0.929 . S
C2420 C2422 1.378 . S
C2420 C2424 1.350 . S
C2421 C2424 1.463 . S
C2421 C2426 1.350 . S
C2421 N2429 1.427 . S
C2422 H2413 0.930 . S
C2422 C2420 1.378 . S
C2422 C2423 1.367 . S
C2423 C2422 1.367 . S
C2423 C2425 1.433 1_455 S
C2424 C2420 1.350 . S
C2424 C2421 1.463 . S
C2424 N2428 1.439 1_455 S
C2425 H2415 0.929 . S
C2425 C2423 1.433 1_655 S
C2425 N2428 1.360 . S
C2426 H2417 0.929 1_455 S
C2426 C2418 1.378 . S
C2426 C2421 1.350 . S
C2427 H2414 0.929 . S
C2427 C2419 1.433 . S
C2427 N2429 1.384 . S
N2428 C2424 1.439 1_655 S
N2428 C2425 1.360 . S
N2429 C2421 1.427 . S
N2429 C2427 1.384 . S
H2430 C2436 0.930 . S
H2431 C2440 0.930 . S
H2432 C2445 0.929 . S
H2433 C2443 0.929 . S
H2434 C2438 0.929 . S
H2435 C2444 0.929 . S
C2436 H2430 0.930 . S
C2436 C2437 1.367 . S
C2436 C2444 1.378 . S
C2437 C2436 1.367 . S
C2437 C2445 1.433 . S
C2438 H2434 0.929 . S
C2438 C2440 1.378 . S
C2438 C2442 1.350 . S
C2439 C2442 1.463 . S
C2439 C2444 1.350 . S
C2439 N2447 1.427 . S
C2440 H2431 0.930 . S
C2440 C2438 1.378 . S
C2440 C2441 1.367 . S
C2441 C2440 1.367 . S
C2441 C2443 1.433 . S
C2442 C2438 1.350 . S
C2442 C2439 1.463 . S
C2442 N2446 1.427 . S
C2443 H2433 0.929 . S
C2443 C2441 1.433 . S
C2443 N2446 1.384 . S
C2444 H2435 0.929 . S
C2444 C2436 1.378 . S
C2444 C2439 1.350 . S
C2445 H2432 0.929 . S
C2445 C2437 1.433 . S
C2445 N2447 1.384 . S
N2446 C2442 1.427 . S
N2446 C2443 1.384 . S
N2447 C2439 1.427 . S
N2447 C2445 1.384 . S
H2448 C2454 0.930 . S
H2449 C2458 0.930 . S
H2450 C2463 0.929 . S
H2451 C2461 0.929 . S
H2452 C2456 0.929 . S
H2453 C2462 0.929 . S
C2454 H2448 0.930 . S
C2454 C2455 1.367 1_545 S
C2454 C2462 1.378 . S
C2455 C2454 1.367 1_565 S
C2455 C2463 1.433 . S
C2456 H2452 0.929 . S
C2456 C2458 1.378 . S
C2456 C2460 1.350 . S
C2457 C2460 1.463 . S
C2457 C2462 1.350 1_565 S
C2457 N2465 1.427 . S
C2458 H2449 0.930 . S
C2458 C2456 1.378 . S
C2458 C2459 1.367 . S
C2459 C2458 1.367 . S
C2459 C2461 1.433 1_565 S
C2460 C2456 1.350 . S
C2460 C2457 1.463 . S
C2460 N2464 1.427 1_565 S
C2461 H2451 0.929 . S
C2461 C2459 1.433 1_545 S
C2461 N2464 1.384 . S
C2462 H2453 0.929 . S
C2462 C2454 1.378 . S
C2462 C2457 1.350 1_545 S
C2463 H2450 0.929 . S
C2463 C2455 1.433 . S
C2463 N2465 1.384 . S
N2464 C2460 1.427 1_545 S
N2464 C2461 1.384 . S
N2465 C2457 1.427 . S
N2465 C2463 1.384 . S
H2466 C2472 0.930 . S
H2467 C2476 0.930 . S
H2468 C2481 0.929 . S
H2469 C2479 0.929 . S
H2470 C2474 0.929 . S
H2471 C2480 0.929 . S
C2472 H2466 0.930 . S
C2472 C2473 1.367 1_565 S
C2472 C2480 1.378 . S
C2473 C2472 1.367 1_545 S
C2473 C2481 1.433 . S
C2474 H2470 0.929 . S
C2474 C2476 1.378 . S
C2474 C2478 1.350 . S
C2475 C2478 1.463 . S
C2475 C2480 1.350 1_545 S
C2475 N2483 1.427 . S
C2476 H2467 0.930 . S
C2476 C2474 1.378 . S
C2476 C2477 1.367 . S
C2477 C2476 1.367 . S
C2477 C2479 1.433 1_545 S
C2478 C2474 1.350 . S
C2478 C2475 1.463 . S
C2478 N2482 1.427 1_545 S
C2479 H2469 0.929 . S
C2479 C2477 1.433 1_565 S
C2479 N2482 1.384 . S
C2480 H2471 0.929 . S
C2480 C2472 1.378 . S
C2480 C2475 1.350 1_565 S
C2481 H2468 0.929 . S
C2481 C2473 1.433 . S
C2481 N2483 1.384 . S
N2482 C2478 1.427 1_565 S
N2482 C2479 1.384 . S
N2483 C2475 1.427 . S
N2483 C2481 1.384 . S
H2484 C2490 0.930 . S
H2485 C2494 0.930 . S
H2486 C2499 0.929 . S
H2487 C2497 0.929 . S
H2488 C2492 0.929 . S
H2489 C2498 0.929 . S
C2490 H2484 0.930 . S
C2490 C2491 1.367 1_455 S
C2490 C2498 1.378 . S
C2491 C2490 1.367 1_655 S
C2491 C2499 1.433 . S
C2492 H2488 0.929 . S
C2492 C2494 1.378 . S
C2492 C2496 1.350 . S
C2493 C2496 1.463 . S
C2493 C2498 1.350 1_655 S
C2493 N2501 1.427 . S
C2494 H2485 0.930 . S
C2494 C2492 1.378 . S
C2494 C2495 1.367 . S
C2495 C2494 1.367 . S
C2495 C2497 1.433 1_655 S
C2496 C2492 1.350 . S
C2496 C2493 1.463 . S
C2496 N2500 1.427 1_655 S
C2497 H2487 0.929 . S
C2497 C2495 1.433 1_455 S
C2497 N2500 1.384 . S
C2498 H2489 0.929 . S
C2498 C2490 1.378 . S
C2498 C2493 1.350 1_455 S
C2499 H2486 0.929 . S
C2499 C2491 1.433 . S
C2499 N2501 1.384 . S
N2500 C2496 1.427 1_455 S
N2500 C2497 1.384 . S
N2501 C2493 1.427 . S
N2501 C2499 1.384 . S
H2502 C2508 0.930 . S
H2503 C2512 0.930 . S
H2504 C2517 0.929 . S
H2505 C2515 0.929 . S
H2506 C2510 0.929 . S
H2507 C2516 0.929 . S
C2508 H2502 0.930 . S
C2508 C2509 1.367 . S
C2508 C2516 1.378 . S
C2509 C2508 1.367 . S
C2509 C2517 1.433 . S
C2510 H2506 0.929 . S
C2510 C2512 1.378 . S
C2510 C2514 1.350 . S
C2511 C2514 1.463 . S
C2511 C2516 1.350 . S
C2511 N2519 1.427 . S
C2512 H2503 0.930 . S
C2512 C2510 1.378 . S
C2512 C2513 1.367 . S
C2513 C2512 1.367 . S
C2513 C2515 1.433 . S
C2514 C2510 1.350 . S
C2514 C2511 1.463 . S
C2514 N2518 1.427 . S
C2515 H2505 0.929 . S
C2515 C2513 1.433 . S
C2515 N2518 1.384 . S
C2516 H2507 0.929 . S
C2516 C2508 1.378 . S
C2516 C2511 1.350 . S
C2517 H2504 0.929 . S
C2517 C2509 1.433 . S
C2517 N2519 1.384 . S
N2518 C2514 1.427 . S
N2518 C2515 1.384 . S
N2519 C2511 1.427 . S
N2519 C2517 1.384 . S
H2520 C2526 0.930 . S
H2521 C2530 0.930 . S
H2522 C2535 0.929 . S
H2523 C2533 0.929 . S
H2524 C2528 0.929 . S
H2525 C2534 0.929 . S
C2526 H2520 0.930 . S
C2526 C2527 1.367 . S
C2526 C2534 1.378 . S
C2527 C2526 1.367 . S
C2527 C2535 1.433 . S
C2528 H2524 0.929 . S
C2528 C2530 1.378 . S
C2528 C2532 1.350 . S
C2529 C2532 1.463 . S
C2529 C2534 1.350 . S
C2529 N2537 1.427 . S
C2530 H2521 0.930 . S
C2530 C2528 1.378 . S
C2530 C2531 1.367 . S
C2531 C2530 1.367 . S
C2531 C2533 1.433 . S
C2532 C2528 1.350 . S
C2532 C2529 1.463 . S
C2532 N2536 1.427 . S
C2533 H2523 0.929 . S
C2533 C2531 1.433 . S
C2533 N2536 1.384 . S
C2534 H2525 0.929 . S
C2534 C2526 1.378 . S
C2534 C2529 1.350 . S
C2535 H2522 0.929 . S
C2535 C2527 1.433 . S
C2535 N2537 1.384 . S
N2536 C2532 1.427 . S
N2536 C2533 1.384 . S
N2537 C2529 1.427 . S
N2537 C2535 1.384 . S
H2538 C2544 0.930 . S
H2539 C2548 0.930 . S
H2540 C2553 0.929 . S
H2541 C2551 0.929 . S
H2542 C2546 0.929 . S
H2543 C2552 0.929 . S
C2544 H2538 0.930 . S
C2544 C2545 1.367 . S
C2544 C2552 1.378 . S
C2545 C2544 1.367 . S
C2545 C2553 1.433 . S
C2546 H2542 0.929 . S
C2546 C2548 1.378 . S
C2546 C2550 1.350 . S
C2547 C2550 1.463 . S
C2547 C2552 1.350 . S
C2547 N2555 1.427 . S
C2548 H2539 0.930 . S
C2548 C2546 1.378 . S
C2548 C2549 1.367 . S
C2549 C2548 1.367 . S
C2549 C2551 1.433 . S
C2550 C2546 1.350 . S
C2550 C2547 1.463 . S
C2550 N2554 1.427 . S
C2551 H2541 0.929 . S
C2551 C2549 1.433 . S
C2551 N2554 1.384 . S
C2552 H2543 0.929 . S
C2552 C2544 1.378 . S
C2552 C2547 1.350 . S
C2553 H2540 0.929 . S
C2553 C2545 1.433 . S
C2553 N2555 1.384 . S
N2554 C2550 1.427 . S
N2554 C2551 1.384 . S
N2555 C2547 1.427 . S
N2555 C2553 1.384 . S
H2556 C2562 0.930 . S
H2557 C2566 0.930 . S
H2558 C2571 0.929 . S
H2559 C2569 0.929 . S
H2560 C2564 0.929 . S
H2561 C2570 0.929 . S
C2562 H2556 0.930 . S
C2562 C2563 1.367 . S
C2562 C2570 1.378 . S
C2563 C2562 1.367 . S
C2563 C2571 1.433 . S
C2564 H2560 0.929 . S
C2564 C2566 1.378 . S
C2564 C2568 1.350 . S
C2565 C2568 1.463 . S
C2565 C2570 1.350 . S
C2565 N2573 1.427 . S
C2566 H2557 0.930 . S
C2566 C2564 1.378 . S
C2566 C2567 1.367 . S
C2567 C2566 1.367 . S
C2567 C2569 1.433 . S
C2568 C2564 1.350 . S
C2568 C2565 1.463 . S
C2568 N2572 1.427 . S
C2569 H2559 0.929 . S
C2569 C2567 1.433 . S
C2569 N2572 1.384 . S
C2570 H2561 0.929 . S
C2570 C2562 1.378 . S
C2570 C2565 1.350 . S
C2571 H2558 0.929 . S
C2571 C2563 1.433 . S
C2571 N2573 1.384 . S
N2572 C2568 1.427 . S
N2572 C2569 1.384 . S
N2573 C2565 1.427 . S
N2573 C2571 1.384 . S
H2574 C2580 0.930 . S
H2575 C2584 0.930 . S
H2576 C2589 0.929 . S
H2577 C2587 0.929 . S
H2578 C2582 0.929 . S
H2579 C2588 0.929 . S
C2580 H2574 0.930 . S
C2580 C2581 1.367 . S
C2580 C2588 1.378 . S
C2581 C2580 1.367 . S
C2581 C2589 1.433 . S
C2582 H2578 0.929 . S
C2582 C2584 1.378 . S
C2582 C2586 1.350 . S
C2583 C2586 1.463 . S
C2583 C2588 1.350 . S
C2583 N2591 1.427 . S
C2584 H2575 0.930 . S
C2584 C2582 1.378 . S
C2584 C2585 1.367 . S
C2585 C2584 1.367 . S
C2585 C2587 1.433 . S
C2586 C2582 1.350 . S
C2586 C2583 1.463 . S
C2586 N2590 1.427 . S
C2587 H2577 0.929 . S
C2587 C2585 1.433 . S
C2587 N2590 1.384 . S
C2588 H2579 0.929 . S
C2588 C2580 1.378 . S
C2588 C2583 1.350 . S
C2589 H2576 0.929 . S
C2589 C2581 1.433 . S
C2589 N2591 1.384 . S
N2590 C2586 1.427 . S
N2590 C2587 1.384 . S
N2591 C2583 1.427 . S
N2591 C2589 1.384 . S
H2592 C2598 0.930 . S
H2593 C2602 0.930 . S
H2594 C2607 0.929 . S
H2595 C2605 0.929 . S
H2596 C2600 0.929 . S
H2597 C2606 0.929 . S
C2598 H2592 0.930 . S
C2598 C2599 1.367 . S
C2598 C2606 1.378 . S
C2599 C2598 1.367 . S
C2599 C2607 1.433 . S
C2600 H2596 0.929 . S
C2600 C2602 1.378 . S
C2600 C2604 1.350 . S
C2601 C2604 1.463 . S
C2601 C2606 1.350 . S
C2601 N2609 1.427 . S
C2602 H2593 0.930 . S
C2602 C2600 1.378 . S
C2602 C2603 1.367 . S
C2603 C2602 1.367 . S
C2603 C2605 1.433 . S
C2604 C2600 1.350 . S
C2604 C2601 1.463 . S
C2604 N2608 1.427 . S
C2605 H2595 0.929 . S
C2605 C2603 1.433 . S
C2605 N2608 1.384 . S
C2606 H2597 0.929 . S
C2606 C2598 1.378 . S
C2606 C2601 1.350 . S
C2607 H2594 0.929 . S
C2607 C2599 1.433 . S
C2607 N2609 1.384 . S
N2608 C2604 1.427 . S
N2608 C2605 1.384 . S
N2609 C2601 1.427 . S
N2609 C2607 1.384 . S
H2610 C2616 0.930 . S
H2611 C2620 0.930 . S
H2612 C2625 0.929 . S
H2613 C2623 0.929 . S
H2614 C2618 0.929 . S
H2615 C2624 0.929 . S
C2616 H2610 0.930 . S
C2616 C2617 1.367 . S
C2616 C2624 1.378 . S
C2617 C2616 1.367 . S
C2617 C2625 1.433 . S
C2618 H2614 0.929 . S
C2618 C2620 1.378 . S
C2618 C2622 1.350 . S
C2619 C2622 1.463 . S
C2619 C2624 1.350 . S
C2619 N2627 1.427 . S
C2620 H2611 0.930 . S
C2620 C2618 1.378 . S
C2620 C2621 1.367 . S
C2621 C2620 1.367 . S
C2621 C2623 1.433 . S
C2622 C2618 1.350 . S
C2622 C2619 1.463 . S
C2622 N2626 1.427 . S
C2623 H2613 0.929 . S
C2623 C2621 1.433 . S
C2623 N2626 1.384 . S
C2624 H2615 0.929 . S
C2624 C2616 1.378 . S
C2624 C2619 1.350 . S
C2625 H2612 0.929 . S
C2625 C2617 1.433 . S
C2625 N2627 1.384 . S
N2626 C2622 1.427 . S
N2626 C2623 1.384 . S
N2627 C2619 1.427 . S
N2627 C2625 1.384 . S
H2628 C2634 0.930 . S
H2629 C2638 0.930 . S
H2630 C2643 0.929 . S
H2631 C2641 0.929 . S
H2632 C2636 0.929 . S
H2633 C2642 0.929 . S
C2634 H2628 0.930 . S
C2634 C2635 1.367 . S
C2634 C2642 1.378 . S
C2635 C2634 1.367 . S
C2635 C2643 1.433 . S
C2636 H2632 0.929 . S
C2636 C2638 1.378 . S
C2636 C2640 1.350 . S
C2637 C2640 1.463 . S
C2637 C2642 1.350 . S
C2637 N2645 1.427 . S
C2638 H2629 0.930 . S
C2638 C2636 1.378 . S
C2638 C2639 1.367 . S
C2639 C2638 1.367 . S
C2639 C2641 1.433 . S
C2640 C2636 1.350 . S
C2640 C2637 1.463 . S
C2640 N2644 1.427 . S
C2641 H2631 0.929 . S
C2641 C2639 1.433 . S
C2641 N2644 1.384 . S
C2642 H2633 0.929 . S
C2642 C2634 1.378 . S
C2642 C2637 1.350 . S
C2643 H2630 0.929 . S
C2643 C2635 1.433 . S
C2643 N2645 1.384 . S
N2644 C2640 1.427 . S
N2644 C2641 1.384 . S
N2645 C2637 1.427 . S
N2645 C2643 1.384 . S
H2646 C2652 0.930 . S
H2647 C2656 0.930 . S
H2648 C2661 0.929 . S
H2649 C2659 0.929 . S
H2650 C2654 0.929 . S
H2651 C2660 0.929 . S
C2652 H2646 0.930 . S
C2652 C2653 1.367 . S
C2652 C2660 1.378 . S
C2653 C2652 1.367 . S
C2653 C2661 1.433 . S
C2654 H2650 0.929 . S
C2654 C2656 1.378 . S
C2654 C2658 1.350 . S
C2655 C2658 1.463 . S
C2655 C2660 1.350 . S
C2655 N2663 1.427 . S
C2656 H2647 0.930 . S
C2656 C2654 1.378 . S
C2656 C2657 1.367 . S
C2657 C2656 1.367 . S
C2657 C2659 1.433 . S
C2658 C2654 1.350 . S
C2658 C2655 1.463 . S
C2658 N2662 1.427 . S
C2659 H2649 0.929 . S
C2659 C2657 1.433 . S
C2659 N2662 1.384 . S
C2660 H2651 0.929 . S
C2660 C2652 1.378 . S
C2660 C2655 1.350 . S
C2661 H2648 0.929 . S
C2661 C2653 1.433 . S
C2661 N2663 1.384 . S
N2662 C2658 1.427 . S
N2662 C2659 1.384 . S
N2663 C2655 1.427 . S
N2663 C2661 1.384 . S
H2664 C2670 0.930 . S
H2665 C2674 0.930 . S
H2666 C2679 0.929 . S
H2667 C2677 0.929 . S
H2668 C2672 0.929 . S
H2669 C2678 0.929 . S
C2670 H2664 0.930 . S
C2670 C2671 1.367 . S
C2670 C2678 1.378 . S
C2671 C2670 1.367 . S
C2671 C2679 1.433 . S
C2672 H2668 0.929 . S
C2672 C2674 1.378 . S
C2672 C2676 1.350 . S
C2673 C2676 1.463 . S
C2673 C2678 1.350 . S
C2673 N2681 1.427 . S
C2674 H2665 0.930 . S
C2674 C2672 1.378 . S
C2674 C2675 1.367 . S
C2675 C2674 1.367 . S
C2675 C2677 1.433 . S
C2676 C2672 1.350 . S
C2676 C2673 1.463 . S
C2676 N2680 1.427 . S
C2677 H2667 0.929 . S
C2677 C2675 1.433 . S
C2677 N2680 1.384 . S
C2678 H2669 0.929 . S
C2678 C2670 1.378 . S
C2678 C2673 1.350 . S
C2679 H2666 0.929 . S
C2679 C2671 1.433 . S
C2679 N2681 1.384 . S
N2680 C2676 1.427 . S
N2680 C2677 1.384 . S
N2681 C2673 1.427 . S
N2681 C2679 1.384 . S
H2682 C2688 0.930 . S
H2683 C2692 0.930 . S
H2684 C2697 0.929 . S
H2685 C2695 0.929 . S
H2686 C2690 0.929 . S
H2687 C2696 0.929 . S
C2688 H2682 0.930 . S
C2688 C2689 1.367 . S
C2688 C2696 1.378 . S
C2689 C2688 1.367 . S
C2689 C2697 1.433 . S
C2690 H2686 0.929 . S
C2690 C2692 1.378 . S
C2690 C2694 1.350 . S
C2691 C2694 1.463 . S
C2691 C2696 1.350 . S
C2691 N2699 1.427 . S
C2692 H2683 0.930 . S
C2692 C2690 1.378 . S
C2692 C2693 1.367 . S
C2693 C2692 1.367 . S
C2693 C2695 1.433 . S
C2694 C2690 1.350 . S
C2694 C2691 1.463 . S
C2694 N2698 1.427 . S
C2695 H2685 0.929 . S
C2695 C2693 1.433 . S
C2695 N2698 1.384 . S
C2696 H2687 0.929 . S
C2696 C2688 1.378 . S
C2696 C2691 1.350 . S
C2697 H2684 0.929 . S
C2697 C2689 1.433 . S
C2697 N2699 1.384 . S
N2698 C2694 1.427 . S
N2698 C2695 1.384 . S
N2699 C2691 1.427 . S
N2699 C2697 1.384 . S
H2700 C2706 0.930 . S
H2701 C2710 0.930 . S
H2702 C2715 0.929 . S
H2703 C2713 0.929 . S
H2704 C2708 0.929 . S
H2705 C2714 0.929 . S
C2706 H2700 0.930 . S
C2706 C2707 1.367 . S
C2706 C2714 1.378 . S
C2707 C2706 1.367 . S
C2707 C2715 1.433 . S
C2708 H2704 0.929 . S
C2708 C2710 1.378 . S
C2708 C2712 1.350 . S
C2709 C2712 1.463 . S
C2709 C2714 1.350 . S
C2709 N2717 1.427 . S
C2710 H2701 0.930 . S
C2710 C2708 1.378 . S
C2710 C2711 1.367 . S
C2711 C2710 1.367 . S
C2711 C2713 1.433 . S
C2712 C2708 1.350 . S
C2712 C2709 1.463 . S
C2712 N2716 1.427 . S
C2713 H2703 0.929 . S
C2713 C2711 1.433 . S
C2713 N2716 1.384 . S
C2714 H2705 0.929 . S
C2714 C2706 1.378 . S
C2714 C2709 1.350 . S
C2715 H2702 0.929 . S
C2715 C2707 1.433 . S
C2715 N2717 1.384 . S
N2716 C2712 1.427 . S
N2716 C2713 1.384 . S
N2717 C2709 1.427 . S
N2717 C2715 1.384 . S
H2718 C2724 0.930 . S
H2719 C2728 0.930 . S
H2720 C2733 0.929 . S
H2721 C2731 0.929 . S
H2722 C2726 0.929 . S
H2723 C2732 0.929 . S
C2724 H2718 0.930 . S
C2724 C2725 1.367 . S
C2724 C2732 1.378 . S
C2725 C2724 1.367 . S
C2725 C2733 1.433 . S
C2726 H2722 0.929 . S
C2726 C2728 1.378 . S
C2726 C2730 1.350 . S
C2727 C2730 1.463 . S
C2727 C2732 1.350 . S
C2727 N2735 1.427 . S
C2728 H2719 0.930 . S
C2728 C2726 1.378 . S
C2728 C2729 1.367 . S
C2729 C2728 1.367 . S
C2729 C2731 1.433 . S
C2730 C2726 1.350 . S
C2730 C2727 1.463 . S
C2730 N2734 1.427 . S
C2731 H2721 0.929 . S
C2731 C2729 1.433 . S
C2731 N2734 1.384 . S
C2732 H2723 0.929 . S
C2732 C2724 1.378 . S
C2732 C2727 1.350 . S
C2733 H2720 0.929 . S
C2733 C2725 1.433 . S
C2733 N2735 1.384 . S
N2734 C2730 1.427 . S
N2734 C2731 1.384 . S
N2735 C2727 1.427 . S
N2735 C2733 1.384 . S
H2736 C2742 0.930 . S
H2737 C2746 0.930 . S
H2738 C2751 0.929 . S
H2739 C2749 0.929 . S
H2740 C2744 0.929 . S
H2741 C2750 0.929 . S
C2742 H2736 0.930 . S
C2742 C2743 1.367 . S
C2742 C2750 1.378 . S
C2743 C2742 1.367 . S
C2743 C2751 1.433 . S
C2744 H2740 0.929 . S
C2744 C2746 1.378 . S
C2744 C2748 1.350 . S
C2745 C2748 1.463 . S
C2745 C2750 1.350 . S
C2745 N2753 1.427 . S
C2746 H2737 0.930 . S
C2746 C2744 1.378 . S
C2746 C2747 1.367 . S
C2747 C2746 1.367 . S
C2747 C2749 1.433 . S
C2748 C2744 1.350 . S
C2748 C2745 1.463 . S
C2748 N2752 1.427 . S
C2749 H2739 0.929 . S
C2749 C2747 1.433 . S
C2749 N2752 1.384 . S
C2750 H2741 0.929 . S
C2750 C2742 1.378 . S
C2750 C2745 1.350 . S
C2751 H2738 0.929 . S
C2751 C2743 1.433 . S
C2751 N2753 1.384 . S
N2752 C2748 1.427 . S
N2752 C2749 1.384 . S
N2753 C2745 1.427 . S
N2753 C2751 1.384 . S
H2754 C2760 0.930 . S
H2755 C2764 0.930 . S
H2756 C2769 0.929 . S
H2757 C2767 0.929 . S
H2758 C2762 0.929 . S
H2759 C2768 0.929 . S
C2760 H2754 0.930 . S
C2760 C2761 1.367 . S
C2760 C2768 1.378 . S
C2761 C2760 1.367 . S
C2761 C2769 1.433 . S
C2762 H2758 0.929 . S
C2762 C2764 1.378 . S
C2762 C2766 1.350 . S
C2763 C2766 1.463 . S
C2763 C2768 1.350 . S
C2763 N2771 1.427 . S
C2764 H2755 0.930 . S
C2764 C2762 1.378 . S
C2764 C2765 1.367 . S
C2765 C2764 1.367 . S
C2765 C2767 1.433 . S
C2766 C2762 1.350 . S
C2766 C2763 1.463 . S
C2766 N2770 1.427 . S
C2767 H2757 0.929 . S
C2767 C2765 1.433 . S
C2767 N2770 1.384 . S
C2768 H2759 0.929 . S
C2768 C2760 1.378 . S
C2768 C2763 1.350 . S
C2769 H2756 0.929 . S
C2769 C2761 1.433 . S
C2769 N2771 1.384 . S
N2770 C2766 1.427 . S
N2770 C2767 1.384 . S
N2771 C2763 1.427 . S
N2771 C2769 1.384 . S
H2772 C2778 0.930 . S
H2773 C2782 0.930 . S
H2774 C2787 0.929 . S
H2775 C2785 0.929 . S
H2776 C2780 0.929 . S
H2777 C2786 0.929 . S
C2778 H2772 0.930 . S
C2778 C2779 1.367 . S
C2778 C2786 1.378 . S
C2779 C2778 1.367 . S
C2779 C2787 1.433 . S
C2780 H2776 0.929 . S
C2780 C2782 1.378 . S
C2780 C2784 1.350 . S
C2781 C2784 1.463 . S
C2781 C2786 1.350 . S
C2781 N2789 1.427 . S
C2782 H2773 0.930 . S
C2782 C2780 1.378 . S
C2782 C2783 1.367 . S
C2783 C2782 1.367 . S
C2783 C2785 1.433 . S
C2784 C2780 1.350 . S
C2784 C2781 1.463 . S
C2784 N2788 1.427 . S
C2785 H2775 0.929 . S
C2785 C2783 1.433 . S
C2785 N2788 1.384 . S
C2786 H2777 0.929 . S
C2786 C2778 1.378 . S
C2786 C2781 1.350 . S
C2787 H2774 0.929 . S
C2787 C2779 1.433 . S
C2787 N2789 1.384 . S
N2788 C2784 1.427 . S
N2788 C2785 1.384 . S
N2789 C2781 1.427 . S
N2789 C2787 1.384 . S
H2790 C2796 0.930 . S
H2791 C2800 0.930 . S
H2792 C2805 0.929 . S
H2793 C2803 0.929 . S
H2794 C2798 0.929 . S
H2795 C2804 0.929 . S
C2796 H2790 0.930 . S
C2796 C2797 1.367 . S
C2796 C2804 1.378 . S
C2797 C2796 1.367 . S
C2797 C2805 1.433 . S
C2798 H2794 0.929 . S
C2798 C2800 1.378 . S
C2798 C2802 1.350 . S
C2799 C2802 1.463 . S
C2799 C2804 1.350 . S
C2799 N2807 1.427 . S
C2800 H2791 0.930 . S
C2800 C2798 1.378 . S
C2800 C2801 1.367 . S
C2801 C2800 1.367 . S
C2801 C2803 1.433 . S
C2802 C2798 1.350 . S
C2802 C2799 1.463 . S
C2802 N2806 1.427 . S
C2803 H2793 0.929 . S
C2803 C2801 1.433 . S
C2803 N2806 1.384 . S
C2804 H2795 0.929 . S
C2804 C2796 1.378 . S
C2804 C2799 1.350 . S
C2805 H2792 0.929 . S
C2805 C2797 1.433 . S
C2805 N2807 1.384 . S
N2806 C2802 1.427 . S
N2806 C2803 1.384 . S
N2807 C2799 1.427 . S
N2807 C2805 1.384 . S
H2808 C2814 0.930 . S
H2809 C2818 0.930 . S
H2810 C2823 0.929 . S
H2811 C2821 0.929 . S
H2812 C2816 0.929 . S
H2813 C2822 0.929 . S
C2814 H2808 0.930 . S
C2814 C2815 1.367 . S
C2814 C2822 1.378 . S
C2815 C2814 1.367 . S
C2815 C2823 1.433 . S
C2816 H2812 0.929 . S
C2816 C2818 1.378 . S
C2816 C2820 1.350 . S
C2817 C2820 1.463 . S
C2817 C2822 1.350 . S
C2817 N2825 1.427 . S
C2818 H2809 0.930 . S
C2818 C2816 1.378 . S
C2818 C2819 1.367 . S
C2819 C2818 1.367 . S
C2819 C2821 1.433 . S
C2820 C2816 1.350 . S
C2820 C2817 1.463 . S
C2820 N2824 1.427 . S
C2821 H2811 0.929 . S
C2821 C2819 1.433 . S
C2821 N2824 1.384 . S
C2822 H2813 0.929 . S
C2822 C2814 1.378 . S
C2822 C2817 1.350 . S
C2823 H2810 0.929 . S
C2823 C2815 1.433 . S
C2823 N2825 1.384 . S
N2824 C2820 1.427 . S
N2824 C2821 1.384 . S
N2825 C2817 1.427 . S
N2825 C2823 1.384 . S
H2826 C2832 0.930 . S
H2827 C2836 0.930 . S
H2828 C2841 0.929 . S
H2829 C2839 0.929 . S
H2830 C2834 0.929 . S
H2831 C2840 0.929 . S
C2832 H2826 0.930 . S
C2832 C2833 1.367 . S
C2832 C2840 1.378 . S
C2833 C2832 1.367 . S
C2833 C2841 1.433 . S
C2834 H2830 0.929 . S
C2834 C2836 1.378 . S
C2834 C2838 1.350 . S
C2835 C2838 1.463 . S
C2835 C2840 1.350 . S
C2835 N2843 1.427 . S
C2836 H2827 0.930 . S
C2836 C2834 1.378 . S
C2836 C2837 1.367 . S
C2837 C2836 1.367 . S
C2837 C2839 1.433 . S
C2838 C2834 1.350 . S
C2838 C2835 1.463 . S
C2838 N2842 1.427 . S
C2839 H2829 0.929 . S
C2839 C2837 1.433 . S
C2839 N2842 1.384 . S
C2840 H2831 0.929 . S
C2840 C2832 1.378 . S
C2840 C2835 1.350 . S
C2841 H2828 0.929 . S
C2841 C2833 1.433 . S
C2841 N2843 1.384 . S
N2842 C2838 1.427 . S
N2842 C2839 1.384 . S
N2843 C2835 1.427 . S
N2843 C2841 1.384 . S
H2844 C2850 0.930 . S
H2845 C2854 0.930 . S
H2846 C2859 0.929 . S
H2847 C2857 0.929 . S
H2848 C2852 0.929 . S
H2849 C2858 0.929 . S
C2850 H2844 0.930 . S
C2850 C2851 1.367 . S
C2850 C2858 1.378 . S
C2851 C2850 1.367 . S
C2851 C2859 1.433 . S
C2852 H2848 0.929 . S
C2852 C2854 1.378 . S
C2852 C2856 1.350 . S
C2853 C2856 1.463 . S
C2853 C2858 1.350 . S
C2853 N2861 1.427 . S
C2854 H2845 0.930 . S
C2854 C2852 1.378 . S
C2854 C2855 1.367 . S
C2855 C2854 1.367 . S
C2855 C2857 1.433 . S
C2856 C2852 1.350 . S
C2856 C2853 1.463 . S
C2856 N2860 1.427 . S
C2857 H2847 0.929 . S
C2857 C2855 1.433 . S
C2857 N2860 1.384 . S
C2858 H2849 0.929 . S
C2858 C2850 1.378 . S
C2858 C2853 1.350 . S
C2859 H2846 0.929 . S
C2859 C2851 1.433 . S
C2859 N2861 1.384 . S
N2860 C2856 1.427 . S
N2860 C2857 1.384 . S
N2861 C2853 1.427 . S
N2861 C2859 1.384 . S
H2862 C2868 0.930 . S
H2863 C2872 0.930 . S
H2864 C2877 0.929 . S
H2865 C2875 0.929 . S
H2866 C2870 0.929 . S
H2867 C2876 0.929 . S
C2868 H2862 0.930 . S
C2868 C2869 1.367 . S
C2868 C2876 1.378 . S
C2869 C2868 1.367 . S
C2869 C2877 1.433 . S
C2870 H2866 0.929 . S
C2870 C2872 1.378 . S
C2870 C2874 1.350 . S
C2871 C2874 1.463 . S
C2871 C2876 1.350 . S
C2871 N2879 1.427 . S
C2872 H2863 0.930 . S
C2872 C2870 1.378 . S
C2872 C2873 1.367 . S
C2873 C2872 1.367 . S
C2873 C2875 1.433 . S
C2874 C2870 1.350 . S
C2874 C2871 1.463 . S
C2874 N2878 1.427 . S
C2875 H2865 0.929 . S
C2875 C2873 1.433 . S
C2875 N2878 1.384 . S
C2876 H2867 0.929 . S
C2876 C2868 1.378 . S
C2876 C2871 1.350 . S
C2877 H2864 0.929 . S
C2877 C2869 1.433 . S
C2877 N2879 1.384 . S
N2878 C2874 1.427 . S
N2878 C2875 1.384 . S
N2879 C2871 1.427 . S
N2879 C2877 1.384 . S
H2880 C2886 0.930 . S
H2881 C2890 0.930 . S
H2882 C2895 0.929 . S
H2883 C2893 0.929 . S
H2884 C2888 0.929 . S
H2885 C2894 0.929 . S
C2886 H2880 0.930 . S
C2886 C2887 1.367 . S
C2886 C2894 1.378 . S
C2887 C2886 1.367 . S
C2887 C2895 1.433 . S
C2888 H2884 0.929 . S
C2888 C2890 1.378 . S
C2888 C2892 1.350 . S
C2889 C2892 1.463 . S
C2889 C2894 1.350 . S
C2889 N2897 1.427 . S
C2890 H2881 0.930 . S
C2890 C2888 1.378 . S
C2890 C2891 1.367 . S
C2891 C2890 1.367 . S
C2891 C2893 1.433 . S
C2892 C2888 1.350 . S
C2892 C2889 1.463 . S
C2892 N2896 1.427 . S
C2893 H2883 0.929 . S
C2893 C2891 1.433 . S
C2893 N2896 1.384 . S
C2894 H2885 0.929 . S
C2894 C2886 1.378 . S
C2894 C2889 1.350 . S
C2895 H2882 0.929 . S
C2895 C2887 1.433 . S
C2895 N2897 1.384 . S
N2896 C2892 1.427 . S
N2896 C2893 1.384 . S
N2897 C2889 1.427 . S
N2897 C2895 1.384 . S
H2898 C2904 0.930 . S
H2899 C2908 0.930 . S
H2900 C2913 0.929 . S
H2901 C2911 0.929 . S
H2902 C2906 0.929 . S
H2903 C2912 0.929 . S
C2904 H2898 0.930 . S
C2904 C2905 1.367 . S
C2904 C2912 1.378 . S
C2905 C2904 1.367 . S
C2905 C2913 1.433 . S
C2906 H2902 0.929 . S
C2906 C2908 1.378 . S
C2906 C2910 1.350 . S
C2907 C2910 1.463 . S
C2907 C2912 1.350 . S
C2907 N2915 1.427 . S
C2908 H2899 0.930 . S
C2908 C2906 1.378 . S
C2908 C2909 1.367 . S
C2909 C2908 1.367 . S
C2909 C2911 1.433 . S
C2910 C2906 1.350 . S
C2910 C2907 1.463 . S
C2910 N2914 1.427 . S
C2911 H2901 0.929 . S
C2911 C2909 1.433 . S
C2911 N2914 1.384 . S
C2912 H2903 0.929 . S
C2912 C2904 1.378 . S
C2912 C2907 1.350 . S
C2913 H2900 0.929 . S
C2913 C2905 1.433 . S
C2913 N2915 1.384 . S
N2914 C2910 1.427 . S
N2914 C2911 1.384 . S
N2915 C2907 1.427 . S
N2915 C2913 1.384 . S
H2916 C2922 0.930 . S
H2917 C2926 0.930 . S
H2918 C2931 0.929 . S
H2919 C2929 0.929 . S
H2920 C2924 0.929 . S
H2921 C2930 0.929 . S
C2922 H2916 0.930 . S
C2922 C2923 1.367 . S
C2922 C2930 1.378 . S
C2923 C2922 1.367 . S
C2923 C2931 1.433 . S
C2924 H2920 0.929 . S
C2924 C2926 1.378 . S
C2924 C2928 1.350 . S
C2925 C2928 1.463 . S
C2925 C2930 1.350 . S
C2925 N2933 1.427 . S
C2926 H2917 0.930 . S
C2926 C2924 1.378 . S
C2926 C2927 1.367 . S
C2927 C2926 1.367 . S
C2927 C2929 1.433 . S
C2928 C2924 1.350 . S
C2928 C2925 1.463 . S
C2928 N2932 1.427 . S
C2929 H2919 0.929 . S
C2929 C2927 1.433 . S
C2929 N2932 1.384 . S
C2930 H2921 0.929 . S
C2930 C2922 1.378 . S
C2930 C2925 1.350 . S
C2931 H2918 0.929 . S
C2931 C2923 1.433 . S
C2931 N2933 1.384 . S
N2932 C2928 1.427 . S
N2932 C2929 1.384 . S
N2933 C2925 1.427 . S
N2933 C2931 1.384 . S
H2934 C2940 0.930 . S
H2935 C2944 0.930 . S
H2936 C2949 0.929 . S
H2937 C2947 0.929 . S
H2938 C2942 0.929 . S
H2939 C2948 0.929 . S
C2940 H2934 0.930 . S
C2940 C2941 1.367 . S
C2940 C2948 1.378 . S
C2941 C2940 1.367 . S
C2941 C2949 1.433 . S
C2942 H2938 0.929 . S
C2942 C2944 1.378 . S
C2942 C2946 1.350 . S
C2943 C2946 1.463 . S
C2943 C2948 1.350 . S
C2943 N2951 1.427 . S
C2944 H2935 0.930 . S
C2944 C2942 1.378 . S
C2944 C2945 1.367 . S
C2945 C2944 1.367 . S
C2945 C2947 1.433 . S
C2946 C2942 1.350 . S
C2946 C2943 1.463 . S
C2946 N2950 1.427 . S
C2947 H2937 0.929 . S
C2947 C2945 1.433 . S
C2947 N2950 1.384 . S
C2948 H2939 0.929 . S
C2948 C2940 1.378 . S
C2948 C2943 1.350 . S
C2949 H2936 0.929 . S
C2949 C2941 1.433 . S
C2949 N2951 1.384 . S
N2950 C2946 1.427 . S
N2950 C2947 1.384 . S
N2951 C2943 1.427 . S
N2951 C2949 1.384 . S
H2952 C2958 0.930 . S
H2953 C2962 0.930 . S
H2954 C2967 0.929 . S
H2955 C2965 0.929 . S
H2956 C2960 0.929 . S
H2957 C2966 0.929 . S
C2958 H2952 0.930 . S
C2958 C2959 1.367 . S
C2958 C2966 1.378 . S
C2959 C2958 1.367 . S
C2959 C2967 1.433 . S
C2960 H2956 0.929 . S
C2960 C2962 1.378 . S
C2960 C2964 1.350 . S
C2961 C2964 1.463 . S
C2961 C2966 1.350 . S
C2961 N2969 1.427 . S
C2962 H2953 0.930 . S
C2962 C2960 1.378 . S
C2962 C2963 1.367 . S
C2963 C2962 1.367 . S
C2963 C2965 1.433 . S
C2964 C2960 1.350 . S
C2964 C2961 1.463 . S
C2964 N2968 1.427 . S
C2965 H2955 0.929 . S
C2965 C2963 1.433 . S
C2965 N2968 1.384 . S
C2966 H2957 0.929 . S
C2966 C2958 1.378 . S
C2966 C2961 1.350 . S
C2967 H2954 0.929 . S
C2967 C2959 1.433 . S
C2967 N2969 1.384 . S
N2968 C2964 1.427 . S
N2968 C2965 1.384 . S
N2969 C2961 1.427 . S
N2969 C2967 1.384 . S
H2970 C2976 0.930 . S
H2971 C2980 0.930 . S
H2972 C2985 0.929 . S
H2973 C2983 0.929 . S
H2974 C2978 0.929 . S
H2975 C2984 0.929 . S
C2976 H2970 0.930 . S
C2976 C2977 1.367 . S
C2976 C2984 1.378 . S
C2977 C2976 1.367 . S
C2977 C2985 1.433 . S
C2978 H2974 0.929 . S
C2978 C2980 1.378 . S
C2978 C2982 1.350 . S
C2979 C2982 1.463 . S
C2979 C2984 1.350 . S
C2979 N2987 1.427 . S
C2980 H2971 0.930 . S
C2980 C2978 1.378 . S
C2980 C2981 1.367 . S
C2981 C2980 1.367 . S
C2981 C2983 1.433 . S
C2982 C2978 1.350 . S
C2982 C2979 1.463 . S
C2982 N2986 1.427 . S
C2983 H2973 0.929 . S
C2983 C2981 1.433 . S
C2983 N2986 1.384 . S
C2984 H2975 0.929 . S
C2984 C2976 1.378 . S
C2984 C2979 1.350 . S
C2985 H2972 0.929 . S
C2985 C2977 1.433 . S
C2985 N2987 1.384 . S
N2986 C2982 1.427 . S
N2986 C2983 1.384 . S
N2987 C2979 1.427 . S
N2987 C2985 1.384 . S
H2988 C2994 0.930 . S
H2989 C2998 0.930 . S
H2990 C3003 0.929 . S
H2991 C3001 0.929 . S
H2992 C2996 0.929 . S
H2993 C3002 0.929 . S
C2994 H2988 0.930 . S
C2994 C2995 1.367 . S
C2994 C3002 1.378 . S
C2995 C2994 1.367 . S
C2995 C3003 1.433 . S
C2996 H2992 0.929 . S
C2996 C2998 1.378 . S
C2996 C3000 1.350 . S
C2997 C3000 1.463 . S
C2997 C3002 1.350 . S
C2997 N3005 1.427 . S
C2998 H2989 0.930 . S
C2998 C2996 1.378 . S
C2998 C2999 1.367 . S
C2999 C2998 1.367 . S
C2999 C3001 1.433 . S
C3000 C2996 1.350 . S
C3000 C2997 1.463 . S
C3000 N3004 1.427 . S
C3001 H2991 0.929 . S
C3001 C2999 1.433 . S
C3001 N3004 1.384 . S
C3002 H2993 0.929 . S
C3002 C2994 1.378 . S
C3002 C2997 1.350 . S
C3003 H2990 0.929 . S
C3003 C2995 1.433 . S
C3003 N3005 1.384 . S
N3004 C3000 1.427 . S
N3004 C3001 1.384 . S
N3005 C2997 1.427 . S
N3005 C3003 1.384 . S
H3006 C3012 0.930 . S
H3007 C3016 0.930 . S
H3008 C3021 0.929 . S
H3009 C3019 0.929 . S
H3010 C3014 0.929 . S
H3011 C3020 0.929 . S
C3012 H3006 0.930 . S
C3012 C3013 1.367 . S
C3012 C3020 1.378 . S
C3013 C3012 1.367 . S
C3013 C3021 1.433 . S
C3014 H3010 0.929 . S
C3014 C3016 1.378 . S
C3014 C3018 1.350 . S
C3015 C3018 1.463 . S
C3015 C3020 1.350 . S
C3015 N3023 1.427 . S
C3016 H3007 0.930 . S
C3016 C3014 1.378 . S
C3016 C3017 1.367 . S
C3017 C3016 1.367 . S
C3017 C3019 1.433 . S
C3018 C3014 1.350 . S
C3018 C3015 1.463 . S
C3018 N3022 1.427 . S
C3019 H3009 0.929 . S
C3019 C3017 1.433 . S
C3019 N3022 1.384 . S
C3020 H3011 0.929 . S
C3020 C3012 1.378 . S
C3020 C3015 1.350 . S
C3021 H3008 0.929 . S
C3021 C3013 1.433 . S
C3021 N3023 1.384 . S
N3022 C3018 1.427 . S
N3022 C3019 1.384 . S
N3023 C3015 1.427 . S
N3023 C3021 1.384 . S
H3024 C3030 0.930 . S
H3025 C3034 0.930 . S
H3026 C3039 0.929 . S
H3027 C3037 0.929 . S
H3028 C3032 0.929 . S
H3029 C3038 0.929 . S
C3030 H3024 0.930 . S
C3030 C3031 1.367 . S
C3030 C3038 1.378 . S
C3031 C3030 1.367 . S
C3031 C3039 1.433 . S
C3032 H3028 0.929 . S
C3032 C3034 1.378 . S
C3032 C3036 1.350 . S
C3033 C3036 1.463 . S
C3033 C3038 1.350 . S
C3033 N3041 1.427 . S
C3034 H3025 0.930 . S
C3034 C3032 1.378 . S
C3034 C3035 1.367 . S
C3035 C3034 1.367 . S
C3035 C3037 1.433 . S
C3036 C3032 1.350 . S
C3036 C3033 1.463 . S
C3036 N3040 1.427 . S
C3037 H3027 0.929 . S
C3037 C3035 1.433 . S
C3037 N3040 1.384 . S
C3038 H3029 0.929 . S
C3038 C3030 1.378 . S
C3038 C3033 1.350 . S
C3039 H3026 0.929 . S
C3039 C3031 1.433 . S
C3039 N3041 1.384 . S
N3040 C3036 1.427 . S
N3040 C3037 1.384 . S
N3041 C3033 1.427 . S
N3041 C3039 1.384 . S
H3042 C3048 0.977 . S
H3043 C3052 0.930 . S
H3044 C3057 0.929 . S
H3045 C3055 0.929 . S
H3046 C3050 0.929 . S
H3047 C3056 0.929 . S
C3048 H3042 0.977 . S
C3048 C3049 1.346 1_554 S
C3048 C3056 1.353 1_554 S
C3049 C3048 1.346 1_556 S
C3049 C3057 1.433 . S
C3050 H3046 0.929 . S
C3050 C3052 1.378 . S
C3050 C3054 1.350 . S
C3051 C3054 1.463 . S
C3051 C3056 1.350 . S
C3051 N3059 1.427 . S
C3052 H3043 0.930 . S
C3052 C3050 1.378 . S
C3052 C3053 1.367 . S
C3053 C3052 1.367 . S
C3053 C3055 1.433 . S
C3054 C3050 1.350 . S
C3054 C3051 1.463 . S
C3054 N3058 1.427 . S
C3055 H3045 0.929 . S
C3055 C3053 1.433 . S
C3055 N3058 1.384 . S
C3056 H3047 0.929 . S
C3056 C3048 1.353 1_556 S
C3056 C3051 1.350 . S
C3057 H3044 0.929 . S
C3057 C3049 1.433 . S
C3057 N3059 1.384 . S
N3058 C3054 1.427 . S
N3058 C3055 1.384 . S
N3059 C3051 1.427 . S
N3059 C3057 1.384 . S
H3060 C3066 0.930 . S
H3061 C3070 0.930 . S
H3062 C3075 0.929 . S
H3063 C3073 0.929 . S
H3064 C3068 0.929 . S
H3065 C3074 0.929 . S
C3066 H3060 0.930 . S
C3066 C3067 1.367 . S
C3066 C3074 1.378 . S
C3067 C3066 1.367 . S
C3067 C3075 1.433 . S
C3068 H3064 0.929 . S
C3068 C3070 1.378 . S
C3068 C3072 1.350 . S
C3069 C3072 1.463 . S
C3069 C3074 1.350 . S
C3069 N3077 1.427 . S
C3070 H3061 0.930 . S
C3070 C3068 1.378 . S
C3070 C3071 1.367 . S
C3071 C3070 1.367 . S
C3071 C3073 1.433 . S
C3072 C3068 1.350 . S
C3072 C3069 1.463 . S
C3072 N3076 1.427 . S
C3073 H3063 0.929 . S
C3073 C3071 1.433 . S
C3073 N3076 1.384 . S
C3074 H3065 0.929 . S
C3074 C3066 1.378 . S
C3074 C3069 1.350 . S
C3075 H3062 0.929 . S
C3075 C3067 1.433 . S
C3075 N3077 1.384 . S
N3076 C3072 1.427 . S
N3076 C3073 1.384 . S
N3077 C3069 1.427 . S
N3077 C3075 1.384 . S
H3078 C3084 0.930 . S
H3079 C3088 0.930 . S
H3080 C3093 0.929 . S
H3081 C3091 0.929 . S
H3082 C3086 0.929 . S
H3083 C3092 0.929 . S
C3084 H3078 0.930 . S
C3084 C3085 1.367 . S
C3084 C3092 1.378 . S
C3085 C3084 1.367 . S
C3085 C3093 1.433 . S
C3086 H3082 0.929 . S
C3086 C3088 1.378 . S
C3086 C3090 1.350 . S
C3087 C3090 1.463 . S
C3087 C3092 1.350 . S
C3087 N3095 1.427 . S
C3088 H3079 0.930 . S
C3088 C3086 1.378 . S
C3088 C3089 1.367 . S
C3089 C3088 1.367 . S
C3089 C3091 1.433 . S
C3090 C3086 1.350 . S
C3090 C3087 1.463 . S
C3090 N3094 1.427 . S
C3091 H3081 0.929 . S
C3091 C3089 1.433 . S
C3091 N3094 1.384 . S
C3092 H3083 0.929 . S
C3092 C3084 1.378 . S
C3092 C3087 1.350 . S
C3093 H3080 0.929 . S
C3093 C3085 1.433 . S
C3093 N3095 1.384 . S
N3094 C3090 1.427 . S
N3094 C3091 1.384 . S
N3095 C3087 1.427 . S
N3095 C3093 1.384 . S
H3096 C3102 0.930 . S
H3097 C3106 0.930 . S
H3098 C3111 0.915 1_554 S
H3099 C3109 0.929 . S
H3100 C3104 0.929 . S
H3101 C3110 0.929 . S
C3102 H3096 0.930 . S
C3102 C3103 1.367 . S
C3102 C3110 1.378 . S
C3103 C3102 1.367 . S
C3103 C3111 1.440 . S
C3104 H3100 0.929 . S
C3104 C3106 1.378 . S
C3104 C3108 1.350 . S
C3105 C3108 1.463 . S
C3105 C3110 1.350 . S
C3105 N3113 1.427 . S
C3106 H3097 0.930 . S
C3106 C3104 1.378 . S
C3106 C3107 1.367 . S
C3107 C3106 1.367 . S
C3107 C3109 1.433 . S
C3108 C3104 1.350 . S
C3108 C3105 1.463 . S
C3108 N3112 1.427 . S
C3109 H3099 0.929 . S
C3109 C3107 1.433 . S
C3109 N3112 1.384 . S
C3110 H3101 0.929 . S
C3110 C3102 1.378 . S
C3110 C3105 1.350 . S
C3111 H3098 0.915 1_556 S
C3111 C3103 1.440 . S
C3111 N3113 1.392 . S
N3112 C3108 1.427 . S
N3112 C3109 1.384 . S
N3113 C3105 1.427 . S
N3113 C3111 1.392 . S
H3114 C3120 0.930 . S
H3115 C3124 0.930 . S
H3116 C3129 0.929 . S
H3117 C3127 0.929 . S
H3118 C3122 0.929 . S
H3119 C3128 0.929 . S
C3120 H3114 0.930 . S
C3120 C3121 1.367 . S
C3120 C3128 1.378 . S
C3121 C3120 1.367 . S
C3121 C3129 1.433 . S
C3122 H3118 0.929 . S
C3122 C3124 1.378 . S
C3122 C3126 1.350 . S
C3123 C3126 1.463 . S
C3123 C3128 1.350 . S
C3123 N3131 1.427 . S
C3124 H3115 0.930 . S
C3124 C3122 1.378 . S
C3124 C3125 1.367 . S
C3125 C3124 1.367 . S
C3125 C3127 1.433 . S
C3126 C3122 1.350 . S
C3126 C3123 1.463 . S
C3126 N3130 1.427 . S
C3127 H3117 0.929 . S
C3127 C3125 1.433 . S
C3127 N3130 1.384 . S
C3128 H3119 0.929 . S
C3128 C3120 1.378 . S
C3128 C3123 1.350 . S
C3129 H3116 0.929 . S
C3129 C3121 1.433 . S
C3129 N3131 1.384 . S
N3130 C3126 1.427 . S
N3130 C3127 1.384 . S
N3131 C3123 1.427 . S
N3131 C3129 1.384 . S
H3132 C3138 0.930 . S
H3133 C3142 0.930 . S
H3134 C3147 0.929 . S
H3135 C3145 0.929 . S
H3136 C3140 0.929 . S
H3137 C3146 0.929 . S
C3138 H3132 0.930 . S
C3138 C3139 1.367 . S
C3138 C3146 1.378 . S
C3139 C3138 1.367 . S
C3139 C3147 1.433 . S
C3140 H3136 0.929 . S
C3140 C3142 1.378 . S
C3140 C3144 1.350 . S
C3141 C3144 1.463 . S
C3141 C3146 1.350 . S
C3141 N3149 1.427 . S
C3142 H3133 0.930 . S
C3142 C3140 1.378 . S
C3142 C3143 1.367 . S
C3143 C3142 1.367 . S
C3143 C3145 1.433 . S
C3144 C3140 1.350 . S
C3144 C3141 1.463 . S
C3144 N3148 1.427 . S
C3145 H3135 0.929 . S
C3145 C3143 1.433 . S
C3145 N3148 1.384 . S
C3146 H3137 0.929 . S
C3146 C3138 1.378 . S
C3146 C3141 1.350 . S
C3147 H3134 0.929 . S
C3147 C3139 1.433 . S
C3147 N3149 1.384 . S
N3148 C3144 1.427 . S
N3148 C3145 1.384 . S
N3149 C3141 1.427 . S
N3149 C3147 1.384 . S
H3150 C3156 0.930 . S
H3151 C3160 0.930 . S
H3152 C3165 0.929 . S
H3153 C3163 0.929 . S
H3154 C3158 0.929 . S
H3155 C3164 0.929 . S
C3156 H3150 0.930 . S
C3156 C3157 1.367 . S
C3156 C3164 1.378 . S
C3157 C3156 1.367 . S
C3157 C3165 1.433 . S
C3158 H3154 0.929 . S
C3158 C3160 1.378 . S
C3158 C3162 1.350 . S
C3159 C3162 1.463 . S
C3159 C3164 1.350 . S
C3159 N3167 1.427 . S
C3160 H3151 0.930 . S
C3160 C3158 1.378 . S
C3160 C3161 1.367 . S
C3161 C3160 1.367 . S
C3161 C3163 1.433 . S
C3162 C3158 1.350 . S
C3162 C3159 1.463 . S
C3162 N3166 1.427 . S
C3163 H3153 0.929 . S
C3163 C3161 1.433 . S
C3163 N3166 1.384 . S
C3164 H3155 0.929 . S
C3164 C3156 1.378 . S
C3164 C3159 1.350 . S
C3165 H3152 0.929 . S
C3165 C3157 1.433 . S
C3165 N3167 1.384 . S
N3166 C3162 1.427 . S
N3166 C3163 1.384 . S
N3167 C3159 1.427 . S
N3167 C3165 1.384 . S
H3168 C3174 0.930 . S
H3169 C3178 0.930 . S
H3170 C3183 0.929 . S
H3171 C3181 0.929 . S
H3172 C3176 0.929 . S
H3173 C3182 0.929 . S
C3174 H3168 0.930 . S
C3174 C3175 1.367 . S
C3174 C3182 1.378 . S
C3175 C3174 1.367 . S
C3175 C3183 1.433 . S
C3176 H3172 0.929 . S
C3176 C3178 1.378 . S
C3176 C3180 1.350 . S
C3177 C3180 1.463 . S
C3177 C3182 1.350 . S
C3177 N3185 1.427 . S
C3178 H3169 0.930 . S
C3178 C3176 1.378 . S
C3178 C3179 1.367 . S
C3179 C3178 1.367 . S
C3179 C3181 1.433 . S
C3180 C3176 1.350 . S
C3180 C3177 1.463 . S
C3180 N3184 1.427 . S
C3181 H3171 0.929 . S
C3181 C3179 1.433 . S
C3181 N3184 1.384 . S
C3182 H3173 0.929 . S
C3182 C3174 1.378 . S
C3182 C3177 1.350 . S
C3183 H3170 0.929 . S
C3183 C3175 1.433 . S
C3183 N3185 1.384 . S
N3184 C3180 1.427 . S
N3184 C3181 1.384 . S
N3185 C3177 1.427 . S
N3185 C3183 1.384 . S
H3186 C3192 0.930 . S
H3187 C3196 0.930 . S
H3188 C3201 0.929 . S
H3189 C3199 0.929 . S
H3190 C3194 0.929 . S
H3191 C3200 0.929 . S
C3192 H3186 0.930 . S
C3192 C3193 1.367 . S
C3192 C3200 1.378 . S
C3193 C3192 1.367 . S
C3193 C3201 1.433 . S
C3194 H3190 0.929 . S
C3194 C3196 1.378 . S
C3194 C3198 1.350 . S
C3195 C3198 1.463 . S
C3195 C3200 1.350 . S
C3195 N3203 1.427 . S
C3196 H3187 0.930 . S
C3196 C3194 1.378 . S
C3196 C3197 1.367 . S
C3197 C3196 1.367 . S
C3197 C3199 1.433 . S
C3198 C3194 1.350 . S
C3198 C3195 1.463 . S
C3198 N3202 1.427 . S
C3199 H3189 0.929 . S
C3199 C3197 1.433 . S
C3199 N3202 1.384 . S
C3200 H3191 0.929 . S
C3200 C3192 1.378 . S
C3200 C3195 1.350 . S
C3201 H3188 0.929 . S
C3201 C3193 1.433 . S
C3201 N3203 1.384 . S
N3202 C3198 1.427 . S
N3202 C3199 1.384 . S
N3203 C3195 1.427 . S
N3203 C3201 1.384 . S
H3204 C3210 0.930 . S
H3205 C3214 0.930 . S
H3206 C3219 0.929 . S
H3207 C3217 0.929 . S
H3208 C3212 0.929 . S
H3209 C3218 0.929 . S
C3210 H3204 0.930 . S
C3210 C3211 1.367 . S
C3210 C3218 1.378 . S
C3211 C3210 1.367 . S
C3211 C3219 1.433 . S
C3212 H3208 0.929 . S
C3212 C3214 1.378 . S
C3212 C3216 1.350 . S
C3213 C3216 1.463 . S
C3213 C3218 1.350 . S
C3213 N3221 1.427 . S
C3214 H3205 0.930 . S
C3214 C3212 1.378 . S
C3214 C3215 1.367 . S
C3215 C3214 1.367 . S
C3215 C3217 1.433 . S
C3216 C3212 1.350 . S
C3216 C3213 1.463 . S
C3216 N3220 1.427 . S
C3217 H3207 0.929 . S
C3217 C3215 1.433 . S
C3217 N3220 1.384 . S
C3218 H3209 0.929 . S
C3218 C3210 1.378 . S
C3218 C3213 1.350 . S
C3219 H3206 0.929 . S
C3219 C3211 1.433 . S
C3219 N3221 1.384 . S
N3220 C3216 1.427 . S
N3220 C3217 1.384 . S
N3221 C3213 1.427 . S
N3221 C3219 1.384 . S
H3222 C3228 0.930 . S
H3223 C3232 0.865 1_655 S
H3224 C3237 0.929 . S
H3225 C3235 0.929 . S
H3226 C3230 0.929 1_655 S
H3227 C3236 0.929 . S
C3228 H3222 0.930 . S
C3228 C3229 1.367 . S
C3228 C3236 1.378 . S
C3229 C3228 1.367 . S
C3229 C3237 1.433 . S
C3230 H3226 0.929 1_455 S
C3230 C3232 1.418 . S
C3230 C3234 1.350 . S
C3231 C3234 1.463 . S
C3231 C3236 1.350 . S
C3231 N3239 1.427 . S
C3232 H3223 0.865 1_455 S
C3232 C3230 1.418 . S
C3232 C3233 1.396 . S
C3233 C3232 1.396 . S
C3233 C3235 1.433 . S
C3234 C3230 1.350 . S
C3234 C3231 1.463 . S
C3234 N3238 1.427 . S
C3235 H3225 0.929 . S
C3235 C3233 1.433 . S
C3235 N3238 1.384 . S
C3236 H3227 0.929 . S
C3236 C3228 1.378 . S
C3236 C3231 1.350 . S
C3237 H3224 0.929 . S
C3237 C3229 1.433 . S
C3237 N3239 1.384 . S
N3238 C3234 1.427 . S
N3238 C3235 1.384 . S
N3239 C3231 1.427 . S
N3239 C3237 1.384 . S
H3240 C3246 0.930 . S
H3241 C3250 0.930 . S
H3242 C3255 0.929 . S
H3243 C3253 0.929 . S
H3244 C3248 0.929 . S
H3245 C3254 0.929 . S
C3246 H3240 0.930 . S
C3246 C3247 1.367 . S
C3246 C3254 1.378 . S
C3247 C3246 1.367 . S
C3247 C3255 1.433 . S
C3248 H3244 0.929 . S
C3248 C3250 1.378 . S
C3248 C3252 1.350 . S
C3249 C3252 1.463 . S
C3249 C3254 1.350 . S
C3249 N3257 1.427 . S
C3250 H3241 0.930 . S
C3250 C3248 1.378 . S
C3250 C3251 1.367 . S
C3251 C3250 1.367 . S
C3251 C3253 1.433 . S
C3252 C3248 1.350 . S
C3252 C3249 1.463 . S
C3252 N3256 1.427 . S
C3253 H3243 0.929 . S
C3253 C3251 1.433 . S
C3253 N3256 1.384 . S
C3254 H3245 0.929 . S
C3254 C3246 1.378 . S
C3254 C3249 1.350 . S
C3255 H3242 0.929 . S
C3255 C3247 1.433 . S
C3255 N3257 1.384 . S
N3256 C3252 1.427 . S
N3256 C3253 1.384 . S
N3257 C3249 1.427 . S
N3257 C3255 1.384 . S
H3258 C3264 0.930 . S
H3259 C3268 0.930 . S
H3260 C3273 0.929 . S
H3261 C3271 0.929 . S
H3262 C3266 0.929 . S
H3263 C3272 0.929 . S
C3264 H3258 0.930 . S
C3264 C3265 1.367 1_545 S
C3264 C3272 1.378 . S
C3265 C3264 1.367 1_565 S
C3265 C3273 1.433 . S
C3266 H3262 0.929 . S
C3266 C3268 1.378 . S
C3266 C3270 1.350 . S
C3267 C3270 1.463 . S
C3267 C3272 1.350 1_565 S
C3267 N3275 1.427 . S
C3268 H3259 0.930 . S
C3268 C3266 1.378 . S
C3268 C3269 1.367 . S
C3269 C3268 1.367 . S
C3269 C3271 1.433 1_565 S
C3270 C3266 1.350 . S
C3270 C3267 1.463 . S
C3270 N3274 1.427 1_565 S
C3271 H3261 0.929 . S
C3271 C3269 1.433 1_545 S
C3271 N3274 1.384 . S
C3272 H3263 0.929 . S
C3272 C3264 1.378 . S
C3272 C3267 1.350 1_545 S
C3273 H3260 0.929 . S
C3273 C3265 1.433 . S
C3273 N3275 1.384 . S
N3274 C3270 1.427 1_545 S
N3274 C3271 1.384 . S
N3275 C3267 1.427 . S
N3275 C3273 1.384 . S
H3276 C3282 0.930 . S
H3277 C3286 0.930 . S
H3278 C3291 0.929 . S
H3279 C3289 0.929 . S
H3280 C3284 0.929 . S
H3281 C3290 0.929 . S
C3282 H3276 0.930 . S
C3282 C3283 1.367 . S
C3282 C3290 1.378 . S
C3283 C3282 1.367 . S
C3283 C3291 1.433 1_565 S
C3284 H3280 0.929 . S
C3284 C3286 1.378 . S
C3284 C3288 1.350 1_545 S
C3285 C3288 1.463 . S
C3285 C3290 1.350 . S
C3285 N3293 1.427 1_565 S
C3286 H3277 0.930 . S
C3286 C3284 1.378 . S
C3286 C3287 1.367 1_545 S
C3287 C3286 1.367 1_565 S
C3287 C3289 1.433 . S
C3288 C3284 1.350 1_565 S
C3288 C3285 1.463 . S
C3288 N3292 1.427 . S
C3289 H3279 0.929 . S
C3289 C3287 1.433 . S
C3289 N3292 1.384 . S
C3290 H3281 0.929 . S
C3290 C3282 1.378 . S
C3290 C3285 1.350 . S
C3291 H3278 0.929 . S
C3291 C3283 1.433 1_545 S
C3291 N3293 1.384 . S
N3292 C3288 1.427 . S
N3292 C3289 1.384 . S
N3293 C3285 1.427 1_545 S
N3293 C3291 1.384 . S
H3294 C3300 0.984 . S
H3295 C3304 0.930 . S
H3296 C3309 0.929 . S
H3297 C3307 0.929 . S
H3298 C3302 0.929 . S
H3299 C3308 0.929 . S
C3300 H3294 0.984 . S
C3300 C3301 1.338 1_655 S
C3300 C3308 1.357 . S
C3301 C3300 1.338 1_455 S
C3301 C3309 1.433 . S
C3302 H3298 0.929 . S
C3302 C3304 1.378 . S
C3302 C3306 1.350 . S
C3303 C3306 1.463 . S
C3303 C3308 1.350 1_455 S
C3303 N3311 1.427 . S
C3304 H3295 0.930 . S
C3304 C3302 1.378 . S
C3304 C3305 1.391 . S
C3305 C3304 1.391 . S
C3305 C3307 1.394 1_455 S
C3306 C3302 1.350 . S
C3306 C3303 1.463 . S
C3306 N3310 1.427 1_455 S
C3307 H3297 0.929 . S
C3307 C3305 1.394 1_655 S
C3307 N3310 1.384 . S
C3308 H3299 0.929 . S
C3308 C3300 1.357 . S
C3308 C3303 1.350 1_655 S
C3309 H3296 0.929 . S
C3309 C3301 1.433 . S
C3309 N3311 1.384 . S
N3310 C3306 1.427 1_655 S
N3310 C3307 1.384 . S
N3311 C3303 1.427 . S
N3311 C3309 1.384 . S
H3312 C3318 0.930 . S
H3313 C3322 0.930 . S
H3314 C3327 0.929 . S
H3315 C3325 0.929 . S
H3316 C3320 0.929 . S
H3317 C3326 0.929 . S
C3318 H3312 0.930 . S
C3318 C3319 1.367 . S
C3318 C3326 1.378 . S
C3319 C3318 1.367 . S
C3319 C3327 1.433 . S
C3320 H3316 0.929 . S
C3320 C3322 1.378 . S
C3320 C3324 1.350 . S
C3321 C3324 1.463 . S
C3321 C3326 1.350 . S
C3321 N3329 1.427 . S
C3322 H3313 0.930 . S
C3322 C3320 1.378 . S
C3322 C3323 1.367 . S
C3323 C3322 1.367 . S
C3323 C3325 1.433 . S
C3324 C3320 1.350 . S
C3324 C3321 1.463 . S
C3324 N3328 1.427 . S
C3325 H3315 0.929 . S
C3325 C3323 1.433 . S
C3325 N3328 1.384 . S
C3326 H3317 0.929 . S
C3326 C3318 1.378 . S
C3326 C3321 1.350 . S
C3327 H3314 0.929 . S
C3327 C3319 1.433 . S
C3327 N3329 1.384 . S
N3328 C3324 1.427 . S
N3328 C3325 1.384 . S
N3329 C3321 1.427 . S
N3329 C3327 1.384 . S
H3330 C3336 0.930 . S
H3331 C3340 0.930 . S
H3332 C3345 0.929 . S
H3333 C3343 0.929 . S
H3334 C3338 0.929 . S
H3335 C3344 0.929 . S
C3336 H3330 0.930 . S
C3336 C3337 1.367 . S
C3336 C3344 1.378 . S
C3337 C3336 1.367 . S
C3337 C3345 1.433 . S
C3338 H3334 0.929 . S
C3338 C3340 1.378 . S
C3338 C3342 1.350 . S
C3339 C3342 1.463 . S
C3339 C3344 1.350 . S
C3339 N3347 1.427 . S
C3340 H3331 0.930 . S
C3340 C3338 1.378 . S
C3340 C3341 1.367 . S
C3341 C3340 1.367 . S
C3341 C3343 1.433 . S
C3342 C3338 1.350 . S
C3342 C3339 1.463 . S
C3342 N3346 1.427 . S
C3343 H3333 0.929 . S
C3343 C3341 1.433 . S
C3343 N3346 1.384 . S
C3344 H3335 0.929 . S
C3344 C3336 1.378 . S
C3344 C3339 1.350 . S
C3345 H3332 0.929 . S
C3345 C3337 1.433 . S
C3345 N3347 1.384 . S
N3346 C3342 1.427 . S
N3346 C3343 1.384 . S
N3347 C3339 1.427 . S
N3347 C3345 1.384 . S
H3348 C3354 0.930 . S
H3349 C3358 0.930 . S
H3350 C3363 0.929 . S
H3351 C3361 0.929 . S
H3352 C3356 0.929 . S
H3353 C3362 0.929 . S
C3354 H3348 0.930 . S
C3354 C3355 1.367 . S
C3354 C3362 1.378 . S
C3355 C3354 1.367 . S
C3355 C3363 1.433 . S
C3356 H3352 0.929 . S
C3356 C3358 1.378 . S
C3356 C3360 1.350 . S
C3357 C3360 1.463 . S
C3357 C3362 1.350 . S
C3357 N3365 1.427 . S
C3358 H3349 0.930 . S
C3358 C3356 1.378 . S
C3358 C3359 1.367 . S
C3359 C3358 1.367 . S
C3359 C3361 1.433 . S
C3360 C3356 1.350 . S
C3360 C3357 1.463 . S
C3360 N3364 1.427 . S
C3361 H3351 0.929 . S
C3361 C3359 1.433 . S
C3361 N3364 1.384 . S
C3362 H3353 0.929 . S
C3362 C3354 1.378 . S
C3362 C3357 1.350 . S
C3363 H3350 0.929 . S
C3363 C3355 1.433 . S
C3363 N3365 1.384 . S
N3364 C3360 1.427 . S
N3364 C3361 1.384 . S
N3365 C3357 1.427 . S
N3365 C3363 1.384 . S
H3366 C3372 0.930 . S
H3367 C3376 0.930 . S
H3368 C3381 0.929 . S
H3369 C3379 0.929 . S
H3370 C3374 0.929 . S
H3371 C3380 0.929 . S
C3372 H3366 0.930 . S
C3372 C3373 1.367 . S
C3372 C3380 1.378 . S
C3373 C3372 1.367 . S
C3373 C3381 1.433 . S
C3374 H3370 0.929 . S
C3374 C3376 1.378 . S
C3374 C3378 1.350 . S
C3375 C3378 1.463 . S
C3375 C3380 1.350 . S
C3375 N3383 1.427 . S
C3376 H3367 0.930 . S
C3376 C3374 1.378 . S
C3376 C3377 1.367 . S
C3377 C3376 1.367 . S
C3377 C3379 1.433 . S
C3378 C3374 1.350 . S
C3378 C3375 1.463 . S
C3378 N3382 1.427 . S
C3379 H3369 0.929 . S
C3379 C3377 1.433 . S
C3379 N3382 1.384 . S
C3380 H3371 0.929 . S
C3380 C3372 1.378 . S
C3380 C3375 1.350 . S
C3381 H3368 0.929 . S
C3381 C3373 1.433 . S
C3381 N3383 1.384 . S
N3382 C3378 1.427 . S
N3382 C3379 1.384 . S
N3383 C3375 1.427 . S
N3383 C3381 1.384 . S
H3384 C3390 0.930 . S
H3385 C3394 0.930 . S
H3386 C3399 0.929 . S
H3387 C3397 0.929 . S
H3388 C3392 0.929 . S
H3389 C3398 0.929 . S
C3390 H3384 0.930 . S
C3390 C3391 1.367 . S
C3390 C3398 1.378 . S
C3391 C3390 1.367 . S
C3391 C3399 1.433 . S
C3392 H3388 0.929 . S
C3392 C3394 1.378 . S
C3392 C3396 1.350 . S
C3393 C3396 1.463 . S
C3393 C3398 1.350 . S
C3393 N3401 1.427 . S
C3394 H3385 0.930 . S
C3394 C3392 1.378 . S
C3394 C3395 1.367 . S
C3395 C3394 1.367 . S
C3395 C3397 1.433 . S
C3396 C3392 1.350 . S
C3396 C3393 1.463 . S
C3396 N3400 1.427 . S
C3397 H3387 0.929 . S
C3397 C3395 1.433 . S
C3397 N3400 1.384 . S
C3398 H3389 0.929 . S
C3398 C3390 1.378 . S
C3398 C3393 1.350 . S
C3399 H3386 0.929 . S
C3399 C3391 1.433 . S
C3399 N3401 1.384 . S
N3400 C3396 1.427 . S
N3400 C3397 1.384 . S
N3401 C3393 1.427 . S
N3401 C3399 1.384 . S
H3402 C3408 0.930 . S
H3403 C3412 0.930 . S
H3404 C3417 0.929 . S
H3405 C3415 0.929 . S
H3406 C3410 0.929 . S
H3407 C3416 0.929 . S
C3408 H3402 0.930 . S
C3408 C3409 1.367 1_455 S
C3408 C3416 1.378 . S
C3409 C3408 1.367 1_655 S
C3409 C3417 1.433 . S
C3410 H3406 0.929 . S
C3410 C3412 1.378 . S
C3410 C3414 1.350 . S
C3411 C3414 1.463 . S
C3411 C3416 1.350 1_655 S
C3411 N3419 1.427 . S
C3412 H3403 0.930 . S
C3412 C3410 1.378 . S
C3412 C3413 1.367 . S
C3413 C3412 1.367 . S
C3413 C3415 1.433 1_655 S
C3414 C3410 1.350 . S
C3414 C3411 1.463 . S
C3414 N3418 1.427 1_655 S
C3415 H3405 0.929 . S
C3415 C3413 1.433 1_455 S
C3415 N3418 1.384 . S
C3416 H3407 0.929 . S
C3416 C3408 1.378 . S
C3416 C3411 1.350 1_455 S
C3417 H3404 0.929 . S
C3417 C3409 1.433 . S
C3417 N3419 1.384 . S
N3418 C3414 1.427 1_455 S
N3418 C3415 1.384 . S
N3419 C3411 1.427 . S
N3419 C3417 1.384 . S
H3420 C3426 0.930 . S
H3421 C3430 0.930 . S
H3422 C3435 0.929 . S
H3423 C3433 0.929 . S
H3424 C3428 0.929 . S
H3425 C3434 0.929 . S
C3426 H3420 0.930 . S
C3426 C3427 1.367 . S
C3426 C3434 1.378 . S
C3427 C3426 1.367 . S
C3427 C3435 1.433 . S
C3428 H3424 0.929 . S
C3428 C3430 1.378 . S
C3428 C3432 1.350 . S
C3429 C3432 1.463 . S
C3429 C3434 1.350 . S
C3429 N3437 1.427 . S
C3430 H3421 0.930 . S
C3430 C3428 1.378 . S
C3430 C3431 1.367 . S
C3431 C3430 1.367 . S
C3431 C3433 1.433 . S
C3432 C3428 1.350 . S
C3432 C3429 1.463 . S
C3432 N3436 1.427 . S
C3433 H3423 0.929 . S
C3433 C3431 1.433 . S
C3433 N3436 1.384 . S
C3434 H3425 0.929 . S
C3434 C3426 1.378 . S
C3434 C3429 1.350 . S
C3435 H3422 0.929 . S
C3435 C3427 1.433 . S
C3435 N3437 1.384 . S
N3436 C3432 1.427 . S
N3436 C3433 1.384 . S
N3437 C3429 1.427 . S
N3437 C3435 1.384 . S
H3438 C3444 0.930 . S
H3439 C3448 0.930 . S
H3440 C3453 0.929 . S
H3441 C3451 0.929 . S
H3442 C3446 0.929 . S
H3443 C3452 0.929 . S
C3444 H3438 0.930 . S
C3444 C3445 1.367 . S
C3444 C3452 1.378 . S
C3445 C3444 1.367 . S
C3445 C3453 1.433 . S
C3446 H3442 0.929 . S
C3446 C3448 1.378 . S
C3446 C3450 1.350 . S
C3447 C3450 1.463 . S
C3447 C3452 1.350 . S
C3447 N3455 1.427 . S
C3448 H3439 0.930 . S
C3448 C3446 1.378 . S
C3448 C3449 1.367 . S
C3449 C3448 1.367 . S
C3449 C3451 1.433 . S
C3450 C3446 1.350 . S
C3450 C3447 1.463 . S
C3450 N3454 1.427 . S
C3451 H3441 0.929 . S
C3451 C3449 1.433 . S
C3451 N3454 1.384 . S
C3452 H3443 0.929 . S
C3452 C3444 1.378 . S
C3452 C3447 1.350 . S
C3453 H3440 0.929 . S
C3453 C3445 1.433 . S
C3453 N3455 1.384 . S
N3454 C3450 1.427 . S
N3454 C3451 1.384 . S
N3455 C3447 1.427 . S
N3455 C3453 1.384 . S
H3456 C3462 0.930 . S
H3457 C3466 0.930 . S
H3458 C3471 0.929 . S
H3459 C3469 0.929 . S
H3460 C3464 0.929 . S
H3461 C3470 0.929 . S
C3462 H3456 0.930 . S
C3462 C3463 1.367 . S
C3462 C3470 1.378 . S
C3463 C3462 1.367 . S
C3463 C3471 1.433 . S
C3464 H3460 0.929 . S
C3464 C3466 1.378 . S
C3464 C3468 1.350 . S
C3465 C3468 1.463 . S
C3465 C3470 1.350 . S
C3465 N3473 1.427 . S
C3466 H3457 0.930 . S
C3466 C3464 1.378 . S
C3466 C3467 1.367 . S
C3467 C3466 1.367 . S
C3467 C3469 1.433 . S
C3468 C3464 1.350 . S
C3468 C3465 1.463 . S
C3468 N3472 1.427 . S
C3469 H3459 0.929 . S
C3469 C3467 1.433 . S
C3469 N3472 1.384 . S
C3470 H3461 0.929 . S
C3470 C3462 1.378 . S
C3470 C3465 1.350 . S
C3471 H3458 0.929 . S
C3471 C3463 1.433 . S
C3471 N3473 1.384 . S
N3472 C3468 1.427 . S
N3472 C3469 1.384 . S
N3473 C3465 1.427 . S
N3473 C3471 1.384 . S
H3474 C3480 0.930 . S
H3475 C3484 0.930 . S
H3476 C3489 0.929 . S
H3477 C3487 0.929 . S
H3478 C3482 0.929 . S
H3479 C3488 0.929 . S
C3480 H3474 0.930 . S
C3480 C3481 1.367 . S
C3480 C3488 1.378 . S
C3481 C3480 1.367 . S
C3481 C3489 1.433 . S
C3482 H3478 0.929 . S
C3482 C3484 1.378 . S
C3482 C3486 1.350 . S
C3483 C3486 1.463 . S
C3483 C3488 1.350 . S
C3483 N3491 1.427 . S
C3484 H3475 0.930 . S
C3484 C3482 1.378 . S
C3484 C3485 1.367 . S
C3485 C3484 1.367 . S
C3485 C3487 1.433 . S
C3486 C3482 1.350 . S
C3486 C3483 1.463 . S
C3486 N3490 1.427 . S
C3487 H3477 0.929 . S
C3487 C3485 1.433 . S
C3487 N3490 1.384 . S
C3488 H3479 0.929 . S
C3488 C3480 1.378 . S
C3488 C3483 1.350 . S
C3489 H3476 0.929 . S
C3489 C3481 1.433 . S
C3489 N3491 1.384 . S
N3490 C3486 1.427 . S
N3490 C3487 1.384 . S
N3491 C3483 1.427 . S
N3491 C3489 1.384 . S
H3492 C3498 0.930 . S
H3493 C3502 0.930 . S
H3494 C3507 0.929 . S
H3495 C3505 0.929 . S
H3496 C3500 0.929 . S
H3497 C3506 0.929 . S
C3498 H3492 0.930 . S
C3498 C3499 1.367 . S
C3498 C3506 1.378 . S
C3499 C3498 1.367 . S
C3499 C3507 1.433 . S
C3500 H3496 0.929 . S
C3500 C3502 1.378 . S
C3500 C3504 1.350 . S
C3501 C3504 1.463 . S
C3501 C3506 1.350 . S
C3501 N3509 1.427 . S
C3502 H3493 0.930 . S
C3502 C3500 1.378 . S
C3502 C3503 1.367 . S
C3503 C3502 1.367 . S
C3503 C3505 1.433 . S
C3504 C3500 1.350 . S
C3504 C3501 1.463 . S
C3504 N3508 1.427 . S
C3505 H3495 0.929 . S
C3505 C3503 1.433 . S
C3505 N3508 1.384 . S
C3506 H3497 0.929 . S
C3506 C3498 1.378 . S
C3506 C3501 1.350 . S
C3507 H3494 0.929 . S
C3507 C3499 1.433 . S
C3507 N3509 1.384 . S
N3508 C3504 1.427 . S
N3508 C3505 1.384 . S
N3509 C3501 1.427 . S
N3509 C3507 1.384 . S
H3510 C3516 0.930 . S
H3511 C3520 0.930 . S
H3512 C3525 0.929 . S
H3513 C3523 0.929 . S
H3514 C3518 0.929 . S
H3515 C3524 0.929 . S
C3516 H3510 0.930 . S
C3516 C3517 1.367 . S
C3516 C3524 1.378 . S
C3517 C3516 1.367 . S
C3517 C3525 1.433 . S
C3518 H3514 0.929 . S
C3518 C3520 1.378 . S
C3518 C3522 1.350 . S
C3519 C3522 1.463 . S
C3519 C3524 1.350 . S
C3519 N3527 1.427 . S
C3520 H3511 0.930 . S
C3520 C3518 1.378 . S
C3520 C3521 1.367 . S
C3521 C3520 1.367 . S
C3521 C3523 1.433 . S
C3522 C3518 1.350 . S
C3522 C3519 1.463 . S
C3522 N3526 1.427 . S
C3523 H3513 0.929 . S
C3523 C3521 1.433 . S
C3523 N3526 1.384 . S
C3524 H3515 0.929 . S
C3524 C3516 1.378 . S
C3524 C3519 1.350 . S
C3525 H3512 0.929 . S
C3525 C3517 1.433 . S
C3525 N3527 1.384 . S
N3526 C3522 1.427 . S
N3526 C3523 1.384 . S
N3527 C3519 1.427 . S
N3527 C3525 1.384 . S
H3528 C3534 0.930 . S
H3529 C3538 0.930 . S
H3530 C3543 0.929 . S
H3531 C3541 0.929 . S
H3532 C3536 0.929 . S
H3533 C3542 0.929 . S
C3534 H3528 0.930 . S
C3534 C3535 1.367 . S
C3534 C3542 1.378 . S
C3535 C3534 1.367 . S
C3535 C3543 1.433 . S
C3536 H3532 0.929 . S
C3536 C3538 1.378 . S
C3536 C3540 1.350 . S
C3537 C3540 1.463 . S
C3537 C3542 1.350 . S
C3537 N3545 1.427 . S
C3538 H3529 0.930 . S
C3538 C3536 1.378 . S
C3538 C3539 1.367 . S
C3539 C3538 1.367 . S
C3539 C3541 1.433 . S
C3540 C3536 1.350 . S
C3540 C3537 1.463 . S
C3540 N3544 1.427 . S
C3541 H3531 0.929 . S
C3541 C3539 1.433 . S
C3541 N3544 1.384 . S
C3542 H3533 0.929 . S
C3542 C3534 1.378 . S
C3542 C3537 1.350 . S
C3543 H3530 0.929 . S
C3543 C3535 1.433 . S
C3543 N3545 1.384 . S
N3544 C3540 1.427 . S
N3544 C3541 1.384 . S
N3545 C3537 1.427 . S
N3545 C3543 1.384 . S
H3546 C3552 0.930 . S
H3547 C3556 0.930 1_455 S
H3548 C3561 0.929 . S
H3549 C3559 0.929 . S
H3550 C3554 0.929 . S
H3551 C3560 0.929 . S
C3552 H3546 0.930 . S
C3552 C3553 1.367 . S
C3552 C3560 1.378 . S
C3553 C3552 1.367 . S
C3553 C3561 1.433 . S
C3554 H3550 0.929 . S
C3554 C3556 1.378 . S
C3554 C3558 1.350 . S
C3555 C3558 1.463 . S
C3555 C3560 1.350 . S
C3555 N3563 1.427 . S
C3556 H3547 0.930 1_655 S
C3556 C3554 1.378 . S
C3556 C3557 1.367 . S
C3557 C3556 1.367 . S
C3557 C3559 1.433 . S
C3558 C3554 1.350 . S
C3558 C3555 1.463 . S
C3558 N3562 1.427 . S
C3559 H3549 0.929 . S
C3559 C3557 1.433 . S
C3559 N3562 1.384 . S
C3560 H3551 0.929 . S
C3560 C3552 1.378 . S
C3560 C3555 1.350 . S
C3561 H3548 0.929 . S
C3561 C3553 1.433 . S
C3561 N3563 1.384 . S
N3562 C3558 1.427 . S
N3562 C3559 1.384 . S
N3563 C3555 1.427 . S
N3563 C3561 1.384 . S
H3564 C3570 0.930 . S
H3565 C3574 0.930 . S
H3566 C3579 0.929 . S
H3567 C3577 0.929 . S
H3568 C3572 0.929 . S
H3569 C3578 0.929 . S
C3570 H3564 0.930 . S
C3570 C3571 1.367 . S
C3570 C3578 1.378 . S
C3571 C3570 1.367 . S
C3571 C3579 1.433 . S
C3572 H3568 0.929 . S
C3572 C3574 1.378 . S
C3572 C3576 1.350 . S
C3573 C3576 1.463 . S
C3573 C3578 1.350 . S
C3573 N3581 1.427 . S
C3574 H3565 0.930 . S
C3574 C3572 1.378 . S
C3574 C3575 1.367 . S
C3575 C3574 1.367 . S
C3575 C3577 1.433 . S
C3576 C3572 1.350 . S
C3576 C3573 1.463 . S
C3576 N3580 1.427 . S
C3577 H3567 0.929 . S
C3577 C3575 1.433 . S
C3577 N3580 1.384 . S
C3578 H3569 0.929 . S
C3578 C3570 1.378 . S
C3578 C3573 1.350 . S
C3579 H3566 0.929 . S
C3579 C3571 1.433 . S
C3579 N3581 1.384 . S
N3580 C3576 1.427 . S
N3580 C3577 1.384 . S
N3581 C3573 1.427 . S
N3581 C3579 1.384 . S
H3582 C3588 0.930 . S
H3583 C3592 0.930 . S
H3584 C3597 0.873 1_565 S
H3585 C3595 0.929 . S
H3586 C3590 0.929 . S
H3587 C3596 0.929 . S
C3588 H3582 0.930 . S
C3588 C3589 1.367 . S
C3588 C3596 1.378 . S
C3589 C3588 1.367 . S
C3589 C3597 1.478 . S
C3590 H3586 0.929 . S
C3590 C3592 1.378 . S
C3590 C3594 1.350 1_565 S
C3591 C3594 1.463 . S
C3591 C3596 1.350 . S
C3591 N3599 1.427 1_545 S
C3592 H3583 0.930 . S
C3592 C3590 1.378 . S
C3592 C3593 1.372 1_565 S
C3593 C3592 1.372 1_545 S
C3593 C3595 1.430 . S
C3594 C3590 1.350 1_545 S
C3594 C3591 1.463 . S
C3594 N3598 1.427 . S
C3595 H3585 0.929 . S
C3595 C3593 1.430 . S
C3595 N3598 1.384 . S
C3596 H3587 0.929 . S
C3596 C3588 1.378 . S
C3596 C3591 1.350 . S
C3597 H3584 0.873 1_545 S
C3597 C3589 1.478 . S
C3597 N3599 1.400 1_545 S
N3598 C3594 1.427 . S
N3598 C3595 1.384 . S
N3599 C3591 1.427 1_565 S
N3599 C3597 1.400 1_565 S
C2311 C13 1.283 . S
C2315 C1307 1.098 1_655 S
C2329 C27 1.395 . S
C2333 C1447 0.956 . S
C2351 C1535 1.096 . S
C2347 C36 1.225 . S
C2365 C41 1.371 . S
C2369 C1675 1.045 1_565 S
C2383 C8 1.359 . S
C2387 C1789 1.079 . S
C2401 C22 1.548 . S
C2405 C1877 1.206 . S
C2419 C55 1.280 . S
C2423 C1763 1.041 . S
C2441 C1903 1.137 . S
C2437 C69 1.327 . S
C2459 C1649 1.095 . S
C2455 C78 1.232 . S
C2473 C83 1.388 . S
C2477 C1561 1.006 . S
C2495 C1333 1.076 . S
C2491 C50 1.356 . S
C2509 C64 1.440 . S
C2513 C1421 1.320 . S
C2527 C97 1.642 . S
C2531 C1991 1.280 . S
C2545 C111 1.489 . S
C2549 C2131 1.023 . S
C2567 C2219 1.240 . S
C2563 C120 1.640 . S
C2581 C125 1.618 . S
C2585 C307 1.110 . S
C2599 C92 1.872 . S
C2603 C421 1.252 . S
C2617 C106 1.659 . S
C2621 C509 1.265 . S
C2635 C139 1.440 . S
C2639 C395 1.391 . S
C2653 C153 1.423 . S
C2657 C535 1.272 . S
C2675 C281 1.443 . S
C2671 C162 1.557 . S
C2693 C2245 1.489 . S
C2689 C167 1.647 . S
C2711 C2017 1.512 . S
C2707 C134 1.728 . S
C2729 C2105 1.455 . S
C2725 C148 1.573 . S
C2743 C181 1.544 . S
C2747 C623 1.200 . S
C2761 C195 1.496 . S
C2765 C763 1.036 . S
C2779 C204 1.669 . S
C2783 C851 1.267 . S
C2797 C209 1.728 . S
C2801 C991 1.201 . S
C2819 C1105 1.207 . S
C2815 C176 1.863 . S
C2837 C1193 1.271 . S
C2833 C190 1.685 . S
C2855 C1079 1.507 . S
C2851 C223 1.576 . S
C2873 C1219 1.302 . S
C2869 C237 1.440 . S
C2887 C246 1.520 . S
C2891 C965 1.410 . S
C2909 C877 1.374 . S
C2905 C251 1.514 . S
C2923 C218 1.770 . S
C2927 C649 1.565 . S
C2945 C737 1.457 . S
C2941 C232 1.558 . S
C2963 C263 0.929 . S
C2959 C11 1.704 . S
C2977 C25 1.479 . S
C2981 C377 0.766 . S
C2999 C481 1.185 . S
C2995 C35 1.664 . S
C3017 C595 1.140 . S
C3013 C39 1.566 . S
C3035 C719 1.010 . S
C3031 C7 1.796 . S
C3053 C823 1.129 . S
C3049 C21 1.616 1_556 S
C3067 C53 1.814 . S
C3071 C833 1.439 . S
C3085 C67 1.587 . S
C3089 C605 1.245 . S
C3103 C77 1.758 1_556 S
C3107 C709 1.520 . S
C3121 C81 1.712 . S
C3125 C367 1.583 . S
C3143 C491 1.493 . S
C3139 C49 1.906 . S
C3157 C63 1.729 . S
C3161 C253 1.518 . S
C3179 C947 0.915 . S
C3175 C95 1.631 . S
C3193 C109 1.606 . S
C3197 C1061 0.899 . S
C3211 C119 1.682 . S
C3215 C1165 1.246 . S
C3233 C1279 0.926 . S
C3229 C123 1.115 . S
C3247 C91 1.648 . S
C3251 C1403 0.906 . S
C3265 C105 1.188 . S
C3269 C1507 0.956 . S
C3283 C137 1.351 . S
C3287 C1517 0.870 1_565 S
C3301 C151 1.093 . S
C3305 C1289 0.802 1_455 S
C3323 C1393 1.408 . S
C3319 C161 1.626 . S
C3337 C165 1.640 . S
C3341 C1051 1.515 . S
C3355 C133 1.896 . S
C3359 C1175 1.462 . S
C3377 C937 1.621 . S
C3373 C147 1.844 . S
C3395 C1631 0.875 . S
C3391 C179 1.356 . S
C3409 C193 1.067 . S
C3413 C1745 0.730 . S
C3427 C203 1.515 . S
C3431 C1849 1.101 . S
C3449 C1963 1.144 . S
C3445 C207 1.510 . S
C3467 C2087 1.036 . S
C3463 C175 1.798 . S
C3481 C189 1.732 . S
C3485 C2191 1.254 . S
C3499 C221 1.733 . S
C3503 C2201 1.373 . S
C3517 C235 1.700 . S
C3521 C1973 1.353 . S
C3539 C2077 1.540 . S
C3535 C245 1.767 . S
C3557 C1735 0.971 1_655 S
C3553 C249 1.109 . S
C3575 C1859 1.341 . S
C3571 C217 1.757 . S
C3589 C231 1.235 . S
C3593 C1621 1.018 1_545 S
