# Generated by pormake.
# Topology nom, (4,4)-cn, num edge types: 1
# Building blocks:
#     Node 0, Type 0, BuildingBlock: AZAVOO_clean_linker_0, # of connection points: 4
#     Node 1, Type 0, BuildingBlock: AZAVOO_clean_linker_0, # of connection points: 4
#     Node 2, Type 0, BuildingBlock: AZAVOO_clean_linker_0, # of connection points: 4
#     Node 3, Type 0, BuildingBlock: AZAVOO_clean_linker_0, # of connection points: 4
#     Node 4, Type 0, BuildingBlock: AZAVOO_clean_linker_0, # of connection points: 4
#     Node 5, Type 0, BuildingBlock: AZAVOO_clean_linker_0, # of connection points: 4
#     Node 6, Type 1, BuildingBlock: AZAVOO_clean_sbu_0, # of connection points: 4
#     Node 7, Type 1, BuildingBlock: AZAVOO_clean_sbu_0, # of connection points: 4
#     Node 8, Type 1, BuildingBlock: AZAVOO_clean_sbu_0, # of connection points: 4
#     Node 9, Type 1, BuildingBlock: AZAVOO_clean_sbu_0, # of connection points: 4
#     Node 10, Type 1, BuildingBlock: AZAVOO_clean_sbu_0, # of connection points: 4
#     Node 11, Type 1, BuildingBlock: AZAVOO_clean_sbu_0, # of connection points: 4
#     Edge 12, Type (0, 1), BuildingBlock: MIFKUJ_clean_linker_0, # of connection points: 2
#     Edge 13, Type (0, 1), BuildingBlock: MIFKUJ_clean_linker_0, # of connection points: 2
#     Edge 14, Type (0, 1), BuildingBlock: MIFKUJ_clean_linker_0, # of connection points: 2
#     Edge 15, Type (0, 1), BuildingBlock: MIFKUJ_clean_linker_0, # of connection points: 2
#     Edge 16, Type (0, 1), BuildingBlock: MIFKUJ_clean_linker_0, # of connection points: 2
#     Edge 17, Type (0, 1), BuildingBlock: MIFKUJ_clean_linker_0, # of connection points: 2
#     Edge 18, Type (0, 1), BuildingBlock: MIFKUJ_clean_linker_0, # of connection points: 2
#     Edge 19, Type (0, 1), BuildingBlock: MIFKUJ_clean_linker_0, # of connection points: 2
#     Edge 20, Type (0, 1), BuildingBlock: MIFKUJ_clean_linker_0, # of connection points: 2
#     Edge 21, Type (0, 1), BuildingBlock: MIFKUJ_clean_linker_0, # of connection points: 2
#     Edge 22, Type (0, 1), BuildingBlock: MIFKUJ_clean_linker_0, # of connection points: 2
#     Edge 23, Type (0, 1), BuildingBlock: MIFKUJ_clean_linker_0, # of connection points: 2
#     Edge 24, Type (0, 1), BuildingBlock: MIFKUJ_clean_linker_0, # of connection points: 2
#     Edge 25, Type (0, 1), BuildingBlock: MIFKUJ_clean_linker_0, # of connection points: 2
#     Edge 26, Type (0, 1), BuildingBlock: MIFKUJ_clean_linker_0, # of connection points: 2
#     Edge 27, Type (0, 1), BuildingBlock: MIFKUJ_clean_linker_0, # of connection points: 2
#     Edge 28, Type (0, 1), BuildingBlock: MIFKUJ_clean_linker_0, # of connection points: 2
#     Edge 29, Type (0, 1), BuildingBlock: MIFKUJ_clean_linker_0, # of connection points: 2
#     Edge 30, Type (0, 1), BuildingBlock: MIFKUJ_clean_linker_0, # of connection points: 2
#     Edge 31, Type (0, 1), BuildingBlock: MIFKUJ_clean_linker_0, # of connection points: 2
#     Edge 32, Type (0, 1), BuildingBlock: MIFKUJ_clean_linker_0, # of connection points: 2
#     Edge 33, Type (0, 1), BuildingBlock: MIFKUJ_clean_linker_0, # of connection points: 2
#     Edge 34, Type (0, 1), BuildingBlock: MIFKUJ_clean_linker_0, # of connection points: 2
#     Edge 35, Type (0, 1), BuildingBlock: MIFKUJ_clean_linker_0, # of connection points: 2
# Relax obj value: 0.183
# Max RMSD: 0.229
# Mean RMSD: 0.192
data_MOF--net-nom--node1-AZAVOO_clean_sbu_0--node2-AZAVOO_clean_linker_0--edge1-MIFKUJ_clean_linker_0
_symmetry_space_group_name_H-M    P1
_symmetry_Int_Tables_number       1
_symmetry_cell_setting            triclinic
loop_
_symmetry_equiv_pos_as_xyz
'x, y, z'
_cell_length_a     59.63401
_cell_length_b     61.748153
_cell_length_c     73.181366
_cell_angle_alpha  90.672156
_cell_angle_beta   90.714037
_cell_angle_gamma 120.96797
loop_
_atom_site_label
_atom_site_type_symbol
_atom_site_fract_x
_atom_site_fract_y
_atom_site_fract_z
_atom_type_partial_charge
H0 H 0.04727 0.46784 0.19552 0.0
H1 H 0.19491 0.6195 0.3664 0.0
H2 H 0.99768 0.43906 0.29468 0.0
H3 H 0.96382 0.41566 0.27122 0.0
H4 H 0.95516 0.48049 0.26427 0.0
H5 H 0.98815 0.50315 0.28845 0.0
H6 H 0.05341 0.46827 0.27547 0.0
H7 H 0.05333 0.46294 0.24222 0.0
H8 H 0.03353 0.52063 0.23517 0.0
H9 H 0.03362 0.52568 0.2684 0.0
H10 H 0.10803 0.50741 0.30255 0.0
H11 H 0.15066 0.53423 0.28856 0.0
H12 H 0.12445 0.58363 0.26927 0.0
H13 H 0.08214 0.5568 0.28321 0.0
H14 H 0.09543 0.50409 0.34426 0.0
H15 H 0.13684 0.53118 0.36084 0.0
H16 H 0.13827 0.59725 0.34025 0.0
H17 H 0.0966 0.56994 0.32407 0.0
H18 H 0.04115 0.47251 0.35679 0.0
H19 H 0.05567 0.48089 0.38895 0.0
H20 H 0.06568 0.55512 0.38573 0.0
H21 H 0.05164 0.5468 0.35346 0.0
H22 H 0.98079 0.44321 0.32869 0.0
H23 H 0.93766 0.42927 0.34153 0.0
H24 H 0.96065 0.50719 0.35155 0.0
H25 H 0.00319 0.52088 0.33844 0.0
O26 O 0.04695 0.47005 0.20861 0.0
O27 O 0.04133 0.5028 0.20584 0.0
O28 O 0.17607 0.57383 0.37117 0.0
O29 O 0.17839 0.60833 0.36016 0.0
C30 C 0.01989 0.48855 0.30389 0.0
C31 C 0.04362 0.50052 0.29437 0.0
C32 C 0.06747 0.51586 0.3039 0.0
C33 C 0.06781 0.51864 0.32306 0.0
C34 C 0.04412 0.50663 0.33265 0.0
C35 C 0.02003 0.49205 0.32304 0.0
C36 C 0.99521 0.4727 0.2933 0.0
C37 C 0.98772 0.4478 0.28855 0.0
C38 C 0.96867 0.43464 0.27492 0.0
C39 C 0.95711 0.44635 0.26553 0.0
C40 C 0.96345 0.47076 0.27125 0.0
C41 C 0.98229 0.48378 0.28509 0.0
C42 C 0.04351 0.49732 0.27425 0.0
C43 C 0.04905 0.4797 0.26668 0.0
C44 C 0.04894 0.47668 0.24772 0.0
C45 C 0.04347 0.4914 0.23605 0.0
C46 C 0.03789 0.50905 0.24376 0.0
C47 C 0.03789 0.51195 0.26271 0.0
C48 C 0.09206 0.53016 0.29377 0.0
C49 C 0.11146 0.52381 0.29503 0.0
C50 C 0.13574 0.53916 0.28712 0.0
C51 C 0.14085 0.56098 0.27779 0.0
C52 C 0.12097 0.56671 0.27607 0.0
C53 C 0.09681 0.55146 0.28404 0.0
C54 C 0.09304 0.53508 0.33302 0.0
C55 C 0.10467 0.52442 0.34345 0.0
C56 C 0.12834 0.53993 0.35286 0.0
C57 C 0.14089 0.5664 0.35185 0.0
C58 C 0.12915 0.57696 0.34132 0.0
C59 C 0.10539 0.56143 0.33203 0.0
C60 C 0.04525 0.509 0.35286 0.0
C61 C 0.04555 0.4902 0.36322 0.0
C62 C 0.05408 0.4951 0.38147 0.0
C63 C 0.06197 0.51872 0.38968 0.0
C64 C 0.05955 0.53673 0.37972 0.0
C65 C 0.05142 0.53197 0.36136 0.0
C66 C 0.99508 0.48306 0.3326 0.0
C67 C 0.97652 0.4572 0.3338 0.0
C68 C 0.95198 0.44929 0.34115 0.0
C69 C 0.94588 0.46715 0.34762 0.0
C70 C 0.96494 0.49297 0.347 0.0
C71 C 0.98924 0.50083 0.33947 0.0
C72 C 0.04379 0.48848 0.21592 0.0
C73 C 0.16615 0.58298 0.36167 0.0
H74 H 0.50969 0.07695 0.3696 0.0
H75 H 0.50898 0.1805 0.55383 0.0
H76 H 0.50433 0.02042 0.45845 0.0
H77 H 0.50042 0.98803 0.43717 0.0
H78 H 0.41664 0.94577 0.44426 0.0
H79 H 0.42077 0.97919 0.46507 0.0
H80 H 0.51948 0.07363 0.44899 0.0
H81 H 0.52334 0.07948 0.41593 0.0
H82 H 0.43916 0.03371 0.40969 0.0
H83 H 0.43558 0.02826 0.44281 0.0
H84 H 0.53156 0.10777 0.48175 0.0
H85 H 0.54746 0.15058 0.47103 0.0
H86 H 0.46957 0.1274 0.45112 0.0
H87 H 0.45377 0.08469 0.46223 0.0
H88 H 0.52362 0.08713 0.52132 0.0
H89 H 0.53971 0.12527 0.5405 0.0
H90 H 0.47252 0.13 0.52394 0.0
H91 H 0.4566 0.09181 0.50492 0.0
H92 H 0.49665 0.02279 0.52628 0.0
H93 H 0.50195 0.02357 0.55935 0.0
H94 H 0.45119 0.05406 0.56499 0.0
H95 H 0.4438 0.05044 0.53208 0.0
H96 H 0.48146 0.98688 0.49521 0.0
H97 H 0.45908 0.94336 0.50603 0.0
H98 H 0.393 0.94993 0.52123 0.0
H99 H 0.41542 0.99327 0.51036 0.0
O100 O 0.50771 0.07447 0.38264 0.0
O101 O 0.46436 0.05074 0.38017 0.0
O102 O 0.53921 0.16439 0.55205 0.0
O103 O 0.50281 0.1651 0.54667 0.0
C104 C 0.46598 0.02285 0.47555 0.0
C105 C 0.47491 0.04704 0.46837 0.0
C106 C 0.48173 0.06774 0.48028 0.0
C107 C 0.47997 0.06438 0.49937 0.0
C108 C 0.47025 0.04001 0.50657 0.0
C109 C 0.46264 0.01911 0.49458 0.0
C110 C 0.46284 0.0022 0.46321 0.0
C111 C 0.48512 0.00416 0.4554 0.0
C112 C 0.48285 0.98544 0.44341 0.0
C113 C 0.45822 0.96413 0.43911 0.0
C114 C 0.43587 0.96202 0.44718 0.0
C115 C 0.43817 0.98098 0.45912 0.0
C116 C 0.47725 0.05067 0.44829 0.0
C117 C 0.5019 0.06505 0.44047 0.0
C118 C 0.50404 0.06827 0.42158 0.0
C119 C 0.48155 0.05709 0.41016 0.0
C120 C 0.45687 0.04261 0.41808 0.0
C121 C 0.45476 0.03945 0.43698 0.0
C122 C 0.49153 0.09323 0.47281 0.0
C123 C 0.51799 0.11197 0.47503 0.0
C124 C 0.52703 0.13633 0.46881 0.0
C125 C 0.50973 0.14235 0.46027 0.0
C126 C 0.48327 0.12339 0.45785 0.0
C127 C 0.47426 0.09899 0.46404 0.0
C128 C 0.48898 0.08675 0.51174 0.0
C129 C 0.51233 0.09634 0.52198 0.0
C130 C 0.52152 0.11817 0.53285 0.0
C131 C 0.50746 0.13076 0.53366 0.0
C132 C 0.48383 0.1208 0.52361 0.0
C133 C 0.4747 0.09901 0.51272 0.0
C134 C 0.47012 0.03689 0.5267 0.0
C135 C 0.48594 0.02877 0.53472 0.0
C136 C 0.48931 0.02968 0.55368 0.0
C137 C 0.47758 0.0395 0.56502 0.0
C138 C 0.46046 0.04617 0.55692 0.0
C139 C 0.45644 0.04446 0.53799 0.0
C140 C 0.44998 0.99317 0.5019 0.0
C141 C 0.46214 0.97886 0.50085 0.0
C142 C 0.44931 0.95403 0.50698 0.0
C143 C 0.42425 0.94321 0.51444 0.0
C144 C 0.41239 0.9578 0.51574 0.0
C145 C 0.42513 0.98253 0.50951 0.0
C146 C 0.48391 0.06051 0.3901 0.0
C147 C 0.51752 0.15439 0.54472 0.0
H148 H 0.61434 0.55055 0.7446 0.0
H149 H 0.55726 0.41675 0.55146 0.0
H150 H 0.58723 0.59124 0.65162 0.0
H151 H 0.5862 0.61476 0.67844 0.0
H152 H 0.50795 0.55372 0.68947 0.0
H153 H 0.50905 0.53069 0.66239 0.0
H154 H 0.60757 0.56073 0.66562 0.0
H155 H 0.6181 0.56218 0.69824 0.0
H156 H 0.54049 0.49829 0.70676 0.0
H157 H 0.53022 0.49724 0.67414 0.0
H158 H 0.61409 0.52103 0.64069 0.0
H159 H 0.62631 0.49086 0.6516 0.0
H160 H 0.5445 0.43447 0.65692 0.0
H161 H 0.53259 0.46466 0.64616 0.0
H162 H 0.59991 0.52794 0.59392 0.0
H163 H 0.60572 0.50262 0.57056 0.0
H164 H 0.5341 0.43646 0.58715 0.0
H165 H 0.52825 0.46208 0.61015 0.0
H166 H 0.57905 0.56591 0.58868 0.0
H167 H 0.5837 0.56226 0.5559 0.0
H168 H 0.51563 0.48694 0.55519 0.0
H169 H 0.5112 0.49078 0.5881 0.0
H170 H 0.5549 0.59099 0.62261 0.0
H171 H 0.52459 0.60545 0.61485 0.0
H172 H 0.46429 0.5283 0.60188 0.0
H173 H 0.49394 0.51407 0.61067 0.0
O174 O 0.60977 0.54967 0.73177 0.0
O175 O 0.57075 0.51504 0.735 0.0
O176 O 0.59176 0.4619 0.55223 0.0
O177 O 0.55572 0.42712 0.56081 0.0
C178 C 0.55131 0.54317 0.64169 0.0
C179 C 0.56167 0.52846 0.64794 0.0
C180 C 0.56474 0.51252 0.63567 0.0
C181 C 0.55919 0.51253 0.61694 0.0
C182 C 0.54879 0.52723 0.61066 0.0
C183 C 0.54364 0.54165 0.62315 0.0
C184 C 0.54811 0.55945 0.65504 0.0
C185 C 0.56957 0.58341 0.65952 0.0
C186 C 0.56907 0.59662 0.67495 0.0
C187 C 0.54711 0.58598 0.68617 0.0
C188 C 0.52505 0.56256 0.681 0.0
C189 C 0.52557 0.54938 0.66553 0.0
C190 C 0.56819 0.52887 0.6676 0.0
C191 C 0.59293 0.54706 0.67458 0.0
C192 C 0.59885 0.54786 0.6932 0.0
C193 C 0.58014 0.53033 0.70511 0.0
C194 C 0.55536 0.51203 0.69797 0.0
C195 C 0.54945 0.51135 0.67937 0.0
C196 C 0.57249 0.49485 0.64257 0.0
C197 C 0.59891 0.50216 0.64427 0.0
C198 C 0.60581 0.48499 0.65051 0.0
C199 C 0.58632 0.46029 0.65493 0.0
C200 C 0.5599 0.45323 0.65332 0.0
C201 C 0.55306 0.47043 0.64728 0.0
C202 C 0.56382 0.49676 0.60383 0.0
C203 C 0.58566 0.50793 0.59259 0.0
C204 C 0.5889 0.49344 0.57925 0.0
C205 C 0.57041 0.46748 0.57703 0.0
C206 C 0.54875 0.45635 0.58853 0.0
C207 C 0.54545 0.47089 0.60177 0.0
C208 C 0.54506 0.52847 0.59074 0.0
C209 C 0.56437 0.54913 0.58128 0.0
C210 C 0.56701 0.54698 0.56253 0.0
C211 C 0.55032 0.5241 0.55309 0.0
C212 C 0.52899 0.50463 0.56222 0.0
C213 C 0.52631 0.50686 0.58095 0.0
C214 C 0.5266 0.55144 0.61735 0.0
C215 C 0.53508 0.57727 0.61821 0.0
C216 C 0.51781 0.58551 0.6136 0.0
C217 C 0.49186 0.56801 0.60794 0.0
C218 C 0.48387 0.54227 0.6066 0.0
C219 C 0.50093 0.5341 0.61139 0.0
C220 C 0.58649 0.53115 0.72486 0.0
C221 C 0.57339 0.45209 0.56261 0.0
H222 H 0.04513 0.47202 0.94068 0.0
H223 H 0.17511 0.52738 0.75414 0.0
H224 H 0.98311 0.46686 0.84633 0.0
H225 H 0.95529 0.45133 0.87298 0.0
H226 H 0.95412 0.38087 0.86832 0.0
H227 H 0.98111 0.39632 0.84119 0.0
H228 H 0.041 0.49276 0.86328 0.0
H229 H 0.04453 0.4914 0.89658 0.0
H230 H 0.03284 0.41639 0.89151 0.0
H231 H 0.0293 0.41802 0.85825 0.0
H232 H 0.09276 0.51805 0.83367 0.0
H233 H 0.1361 0.53394 0.84798 0.0
H234 H 0.11761 0.45718 0.85536 0.0
H235 H 0.07471 0.44153 0.84077 0.0
H236 H 0.06963 0.51719 0.79324 0.0
H237 H 0.1084 0.54104 0.77463 0.0
H238 H 0.12646 0.48204 0.78081 0.0
H239 H 0.08745 0.45825 0.7992 0.0
H240 H 0.00684 0.48694 0.78548 0.0
H241 H 0.00965 0.49986 0.75368 0.0
H242 H 0.04507 0.45605 0.73965 0.0
H243 H 0.04125 0.44256 0.77125 0.0
H244 H 0.96292 0.45375 0.81154 0.0
H245 H 0.91976 0.42721 0.79678 0.0
H246 H 0.94533 0.37852 0.7745 0.0
H247 H 0.98801 0.40471 0.78964 0.0
O248 O 0.04358 0.47211 0.92751 0.0
O249 O 0.04086 0.435 0.92397 0.0
O250 O 0.14972 0.54832 0.75893 0.0
O251 O 0.15969 0.51837 0.76149 0.0
C252 C 0.00701 0.44498 0.83001 0.0
C253 C 0.03213 0.45625 0.8383 0.0
C254 C 0.05458 0.46881 0.82757 0.0
C255 C 0.05203 0.47148 0.80867 0.0
C256 C 0.02682 0.46024 0.80036 0.0
C257 C 0.00433 0.44624 0.81095 0.0
C258 C 0.98398 0.43266 0.84184 0.0
C259 C 0.97585 0.44766 0.8506 0.0
C260 C 0.96037 0.43891 0.86601 0.0
C261 C 0.95306 0.41511 0.87305 0.0
C262 C 0.95935 0.39926 0.86325 0.0
C263 C 0.97466 0.40798 0.84769 0.0
C264 C 0.03492 0.45551 0.85843 0.0
C265 C 0.0393 0.47611 0.86942 0.0
C266 C 0.04123 0.47524 0.88841 0.0
C267 C 0.03897 0.45378 0.8967 0.0
C268 C 0.03471 0.43321 0.88557 0.0
C269 C 0.03268 0.43408 0.86659 0.0
C270 C 0.08069 0.47868 0.83625 0.0
C271 C 0.09816 0.50474 0.83838 0.0
C272 C 0.12276 0.51374 0.84655 0.0
C273 C 0.13 0.49673 0.8529 0.0
C274 C 0.11231 0.47065 0.85089 0.0
C275 C 0.08792 0.46171 0.84251 0.0
C276 C 0.07577 0.48603 0.79757 0.0
C277 C 0.08197 0.50945 0.79053 0.0
C278 C 0.10414 0.52304 0.77993 0.0
C279 C 0.12058 0.51347 0.77627 0.0
C280 C 0.11427 0.48998 0.78339 0.0
C281 C 0.09205 0.47638 0.79394 0.0
C282 C 0.02412 0.46406 0.78066 0.0
C283 C 0.01447 0.47956 0.77539 0.0
C284 C 0.01627 0.48706 0.75727 0.0
C285 C 0.02779 0.47918 0.74417 0.0
C286 C 0.03578 0.46223 0.74931 0.0
C287 C 0.03384 0.45465 0.7674 0.0
C288 C 0.9784 0.43094 0.8018 0.0
C289 C 0.95908 0.43728 0.80353 0.0
C290 C 0.93459 0.42227 0.79495 0.0
C291 C 0.92915 0.40072 0.78454 0.0
C292 C 0.94881 0.39477 0.78263 0.0
C293 C 0.97319 0.40975 0.79119 0.0
C294 C 0.04115 0.45296 0.91686 0.0
C295 C 0.1442 0.52786 0.76507 0.0
H296 H 0.37411 0.9453 0.87853 0.0
H297 H 0.40773 0.84215 0.05952 0.0
H298 H 0.4104 0.01005 0.96678 0.0
H299 H 0.42256 0.04089 0.94246 0.0
H300 H 0.50269 0.0589 0.9474 0.0
H301 H 0.49038 0.02808 0.9715 0.0
H302 H 0.37959 0.94778 0.95851 0.0
H303 H 0.36935 0.94282 0.92567 0.0
H304 H 0.45189 0.97955 0.9144 0.0
H305 H 0.46179 0.98395 0.94723 0.0
H306 H 0.37553 0.90312 0.98782 0.0
H307 H 0.37009 0.86195 0.97897 0.0
H308 H 0.44776 0.90036 0.95705 0.0
H309 H 0.45317 0.94101 0.96587 0.0
H310 H 0.38801 0.93305 0.02995 0.0
H311 H 0.37612 0.8975 0.0501 0.0
H312 H 0.43744 0.88851 0.02719 0.0
H313 H 0.44935 0.9243 0.00735 0.0
H314 H 0.42398 0.99428 0.04105 0.0
H315 H 0.43664 0.99776 0.07348 0.0
H316 H 0.49117 0.97391 0.05998 0.0
H317 H 0.47806 0.97007 0.02778 0.0
H318 H 0.44519 0.04009 0.01031 0.0
H319 H 0.48019 0.0811 0.02286 0.0
H320 H 0.53377 0.05353 0.02159 0.0
H321 H 0.49941 0.01365 0.00845 0.0
O322 O 0.37856 0.94713 0.89145 0.0
O323 O 0.42125 0.96655 0.88644 0.0
O324 O 0.38097 0.86187 0.06319 0.0
O325 O 0.41199 0.85624 0.05168 0.0
C326 C 0.44132 0.9951 0.98297 0.0
C327 C 0.42756 0.97038 0.9752 0.0
C328 C 0.42123 0.94941 0.98617 0.0
C329 C 0.42668 0.95295 0.00518 0.0
C330 C 0.44093 0.97764 0.0128 0.0
C331 C 0.44921 0.99873 0.00156 0.0
C332 C 0.44955 0.01703 0.97101 0.0
C333 C 0.43069 0.02119 0.96291 0.0
C334 C 0.43761 0.03863 0.94897 0.0
C335 C 0.46355 0.05224 0.94302 0.0
C336 C 0.48264 0.04901 0.95189 0.0
C337 C 0.47567 0.03147 0.96572 0.0
C338 C 0.42142 0.96651 0.95524 0.0
C339 C 0.3954 0.95461 0.94892 0.0
C340 C 0.38962 0.95187 0.93015 0.0
C341 C 0.40981 0.96094 0.9174 0.0
C342 C 0.43587 0.97248 0.92384 0.0
C343 C 0.44159 0.9751 0.94258 0.0
C344 C 0.41472 0.92502 0.97742 0.0
C345 C 0.39099 0.90258 0.98061 0.0
C346 C 0.38793 0.8792 0.97563 0.0
C347 C 0.40867 0.87824 0.96758 0.0
C348 C 0.43163 0.90076 0.96338 0.0
C349 C 0.43461 0.92394 0.96823 0.0
C350 C 0.41927 0.931 0.01704 0.0
C351 C 0.39877 0.9233 0.02928 0.0
C352 C 0.39205 0.90302 0.04077 0.0
C353 C 0.40578 0.8901 0.04021 0.0
C354 C 0.4264 0.89797 0.02794 0.0
C355 C 0.43317 0.91832 0.01652 0.0
C356 C 0.44973 0.98143 0.03221 0.0
C357 C 0.43878 0.98999 0.04515 0.0
C358 C 0.44621 0.9922 0.06359 0.0
C359 C 0.46477 0.98594 0.06926 0.0
C360 C 0.47652 0.97847 0.05606 0.0
C361 C 0.46904 0.97622 0.0377 0.0
C362 C 0.46982 0.02396 0.00857 0.0
C363 C 0.46461 0.04317 0.01262 0.0
C364 C 0.48452 0.06643 0.01989 0.0
C365 C 0.50983 0.07065 0.02314 0.0
C366 C 0.51474 0.05122 0.01894 0.0
C367 C 0.49504 0.02827 0.0116 0.0
C368 C 0.40366 0.95841 0.8975 0.0
C369 C 0.39875 0.86858 0.05241 0.0
H370 H 0.5838 0.52566 0.02687 0.0
H371 H 0.66848 0.52275 0.22243 0.0
H372 H 0.53456 0.55075 0.10967 0.0
H373 H 0.51683 0.56328 0.08458 0.0
H374 H 0.5745 0.64177 0.09636 0.0
H375 H 0.5931 0.62871 0.12086 0.0
H376 H 0.56567 0.52268 0.10541 0.0
H377 H 0.56857 0.51626 0.07267 0.0
H378 H 0.62111 0.59667 0.06716 0.0
H379 H 0.61829 0.60279 0.09996 0.0
H380 H 0.58368 0.5077 0.1418 0.0
H381 H 0.60751 0.48658 0.13381 0.0
H382 H 0.66953 0.55632 0.11191 0.0
H383 H 0.64606 0.57752 0.12078 0.0
H384 H 0.56821 0.52083 0.17918 0.0
H385 H 0.58443 0.50337 0.20211 0.0
H386 H 0.66392 0.55845 0.1881 0.0
H387 H 0.64744 0.57592 0.16537 0.0
H388 H 0.53835 0.55181 0.17988 0.0
H389 H 0.53119 0.55139 0.21269 0.0
H390 H 0.61477 0.59829 0.22218 0.0
H391 H 0.62145 0.59997 0.18928 0.0
H392 H 0.52521 0.57226 0.15357 0.0
H393 H 0.51013 0.59859 0.16758 0.0
H394 H 0.5904 0.66053 0.1725 0.0
H395 H 0.60509 0.63343 0.15969 0.0
O396 O 0.5831 0.52861 0.03982 0.0
O397 O 0.61003 0.5701 0.03771 0.0
O398 O 0.62029 0.50109 0.21993 0.0
O399 O 0.66153 0.52924 0.21341 0.0
C400 C 0.57748 0.58043 0.13069 0.0
C401 C 0.58962 0.56706 0.12489 0.0
C402 C 0.59961 0.55735 0.13797 0.0
C403 C 0.59673 0.56032 0.15682 0.0
C404 C 0.58465 0.57375 0.16253 0.0
C405 C 0.57579 0.58442 0.14948 0.0
C406 C 0.56514 0.5888 0.11701 0.0
C407 C 0.54319 0.57066 0.10692 0.0
C408 C 0.53292 0.57794 0.09269 0.0
C409 C 0.54417 0.6036 0.08841 0.0
C410 C 0.56555 0.62184 0.09912 0.0
C411 C 0.57604 0.61447 0.11324 0.0
C412 C 0.5918 0.56318 0.10505 0.0
C413 C 0.57793 0.53885 0.09712 0.0
C414 C 0.57956 0.53525 0.07841 0.0
C415 C 0.59505 0.55596 0.06729 0.0
C416 C 0.60899 0.58032 0.07532 0.0
C417 C 0.60739 0.58388 0.09404 0.0
C418 C 0.61323 0.54414 0.13197 0.0
C419 C 0.60243 0.51837 0.13529 0.0
C420 C 0.61598 0.50631 0.13056 0.0
C421 C 0.64048 0.51978 0.12225 0.0
C422 C 0.65092 0.5455 0.11855 0.0
C423 C 0.63745 0.55759 0.12344 0.0
C424 C 0.60665 0.54961 0.17062 0.0
C425 C 0.58911 0.52912 0.18112 0.0
C426 C 0.59843 0.51916 0.19417 0.0
C427 C 0.62549 0.52947 0.19689 0.0
C428 C 0.64298 0.55002 0.18632 0.0
C429 C 0.63363 0.56001 0.17331 0.0
C430 C 0.58042 0.57587 0.18224 0.0
C431 C 0.55501 0.56265 0.18904 0.0
C432 C 0.55098 0.56226 0.20779 0.0
C433 C 0.57238 0.57469 0.22011 0.0
C434 C 0.59776 0.58889 0.21313 0.0
C435 C 0.60171 0.58961 0.19434 0.0
C436 C 0.56619 0.601 0.15573 0.0
C437 C 0.5394 0.59158 0.15762 0.0
C438 C 0.53088 0.60672 0.16556 0.0
C439 C 0.54905 0.63169 0.1714 0.0
C440 C 0.57585 0.64123 0.1687 0.0
C441 C 0.58432 0.62593 0.16114 0.0
C442 C 0.59659 0.55209 0.04739 0.0
C443 C 0.6355 0.51898 0.21076 0.0
Mg444 Mg 0.64288 0.43546 0.36503 0.0
O445 O 0.64985 0.45835 0.39153 0.0
O446 O 0.67453 0.49935 0.38506 0.0
Mg447 Mg 0.68469 0.50248 0.3549 0.0
C448 C 0.66162 0.48169 0.39631 0.0
C449 C 0.60841 0.39132 0.39133 0.0
O450 O 0.59678 0.40439 0.39322 0.0
O451 O 0.68411 0.44258 0.36696 0.0
O452 O 0.70854 0.48327 0.36 0.0
O453 O 0.60762 0.43798 0.35908 0.0
O454 O 0.64763 0.46631 0.35061 0.0
C455 C 0.70631 0.46225 0.36427 0.0
C456 C 0.62342 0.45975 0.35216 0.0
O457 O 0.62787 0.39936 0.3809 0.0
Mg458 Mg 0.24657 0.63536 0.59039 0.0
O459 O 0.22188 0.61293 0.56496 0.0
O460 O 0.20157 0.57202 0.57206 0.0
Mg461 Mg 0.21383 0.56808 0.60092 0.0
C462 C 0.20617 0.58957 0.56094 0.0
C463 C 0.27263 0.69148 0.58243 0.0
O464 O 0.26318 0.68963 0.59884 0.0
O465 O 0.27709 0.62465 0.58409 0.0
O466 O 0.25636 0.58429 0.59227 0.0
O467 O 0.21226 0.63626 0.60164 0.0
O468 O 0.2207 0.60593 0.60674 0.0
C469 C 0.27665 0.60399 0.58649 0.0
C470 C 0.20516 0.61447 0.60848 0.0
O471 O 0.26882 0.67153 0.57429 0.0
Mg472 Mg 0.60487 0.22164 0.75876 0.0
O473 O 0.58818 0.18972 0.73717 0.0
O474 O 0.59809 0.16115 0.74643 0.0
Mg475 Mg 0.61768 0.17324 0.77482 0.0
C476 C 0.58799 0.1691 0.73479 0.0
C477 C 0.61872 0.27181 0.74222 0.0
O478 O 0.63497 0.27837 0.75631 0.0
O479 O 0.64609 0.23473 0.75014 0.0
O480 O 0.65451 0.20662 0.76234 0.0
O481 O 0.56702 0.20301 0.77295 0.0
O482 O 0.59927 0.19611 0.77887 0.0
C483 C 0.66169 0.22689 0.75358 0.0
C484 C 0.57572 0.19075 0.78191 0.0
O485 O 0.60271 0.24848 0.73894 0.0
Mg486 Mg 0.45252 0.64787 0.87412 0.0
O487 O 0.46747 0.63903 0.90024 0.0
O488 O 0.4621 0.60062 0.89625 0.0
Mg489 Mg 0.44842 0.58732 0.86674 0.0
C490 C 0.46863 0.62026 0.90612 0.0
C491 C 0.46124 0.69158 0.90228 0.0
O492 O 0.48169 0.69071 0.90809 0.0
O493 O 0.41127 0.61822 0.88114 0.0
O494 O 0.40833 0.58143 0.87448 0.0
O495 O 0.49236 0.66766 0.86228 0.0
O496 O 0.46359 0.62684 0.8589 0.0
C497 C 0.39814 0.59418 0.87983 0.0
C498 C 0.4865 0.64574 0.85568 0.0
O499 O 0.44729 0.67729 0.88905 0.0
Mg500 Mg 0.78141 0.34732 0.06106 0.0
O501 O 0.80559 0.35321 0.08709 0.0
O502 O 0.82264 0.32849 0.08504 0.0
Mg503 Mg 0.81026 0.30779 0.05714 0.0
C504 C 0.81928 0.34462 0.09375 0.0
C505 C 0.77581 0.38945 0.08048 0.0
O506 O 0.80143 0.40127 0.07967 0.0
O507 O 0.74959 0.30909 0.07076 0.0
O508 O 0.76707 0.28513 0.06559 0.0
O509 O 0.81619 0.37774 0.04698 0.0
O510 O 0.80424 0.33744 0.04612 0.0
C511 C 0.74797 0.28766 0.07039 0.0
C512 C 0.82041 0.36021 0.04133 0.0
O513 O 0.76227 0.36685 0.07441 0.0
Mg514 Mg 0.43744 0.82608 0.23287 0.0
O515 O 0.44869 0.83975 0.26242 0.0
O516 O 0.49152 0.86819 0.26394 0.0
Mg517 Mg 0.5069 0.87359 0.23478 0.0
C518 C 0.4694 0.85512 0.27149 0.0
C519 C 0.38119 0.78066 0.23056 0.0
O520 O 0.38391 0.78961 0.21401 0.0
O521 O 0.45769 0.80386 0.23453 0.0
O522 O 0.50022 0.83316 0.23418 0.0
O523 O 0.42826 0.85599 0.22839 0.0
O524 O 0.46708 0.86057 0.22363 0.0
C525 C 0.48163 0.81008 0.23439 0.0
C526 C 0.45248 0.87035 0.2239 0.0
O527 O 0.39991 0.79208 0.24212 0.0
H528 H 0.18759 0.57729 0.29547 0.0
H529 H 0.23067 0.61146 0.28656 0.0
H530 H 0.19697 0.62032 0.23677 0.0
H531 H 0.15392 0.58561 0.24532 0.0
H532 H 0.24596 0.62689 0.23168 0.0
H533 H 0.20412 0.65608 0.27338 0.0
H534 H 0.18245 0.65477 0.30219 0.0
H535 H 0.25091 0.66939 0.33281 0.0
H536 H 0.27285 0.6704 0.30417 0.0
H537 H 0.33609 0.75373 0.21018 0.0
H538 H 0.297 0.7139 0.21787 0.0
H539 H 0.33333 0.71368 0.26918 0.0
H540 H 0.37225 0.75383 0.2618 0.0
H541 H 0.28459 0.70118 0.2742 0.0
H542 H 0.32795 0.67498 0.23286 0.0
H543 H 0.34962 0.67496 0.20439 0.0
H544 H 0.2794 0.65397 0.17349 0.0
H545 H 0.2574 0.6542 0.20176 0.0
C546 C 0.18947 0.58602 0.28239 0.0
C547 C 0.16736 0.57895 0.27116 0.0
C548 C 0.21404 0.60567 0.27739 0.0
C549 C 0.21685 0.61865 0.26117 0.0
C550 C 0.19514 0.61059 0.24939 0.0
C551 C 0.17056 0.59092 0.25436 0.0
C552 C 0.24179 0.64196 0.25723 0.0
C553 C 0.25437 0.64323 0.24088 0.0
C554 C 0.25294 0.66301 0.26947 0.0
C555 C 0.24002 0.66307 0.28665 0.0
C556 C 0.2145 0.65889 0.28627 0.0
C557 C 0.20217 0.6582 0.30256 0.0
C558 C 0.21527 0.66192 0.31932 0.0
C559 C 0.24078 0.66647 0.31981 0.0
C560 C 0.25317 0.66712 0.30356 0.0
C561 C 0.33576 0.74522 0.22311 0.0
C562 C 0.35728 0.7569 0.23537 0.0
C563 C 0.31346 0.72237 0.22744 0.0
C564 C 0.31243 0.7106 0.24397 0.0
C565 C 0.33376 0.72239 0.25633 0.0
C566 C 0.35598 0.74533 0.25208 0.0
C567 C 0.28885 0.68628 0.24855 0.0
C568 C 0.27643 0.68482 0.26503 0.0
C569 C 0.27795 0.66504 0.23645 0.0
C570 C 0.2911 0.66482 0.21942 0.0
C571 C 0.31718 0.67054 0.21998 0.0
C572 C 0.32952 0.67047 0.20388 0.0
C573 C 0.31591 0.66453 0.18714 0.0
C574 C 0.28992 0.65859 0.18647 0.0
C575 C 0.2775 0.65867 0.20253 0.0
H576 H 0.3255 0.66447 0.17469 0.0
H577 H 0.20567 0.66132 0.33192 0.0
H578 H 0.48631 0.17022 0.46445 0.0
H579 H 0.50239 0.21342 0.45459 0.0
H580 H 0.57074 0.21659 0.4325 0.0
H581 H 0.5548 0.17344 0.44234 0.0
H582 H 0.58377 0.25901 0.4515 0.0
H583 H 0.51995 0.20767 0.4048 0.0
H584 H 0.47642 0.17495 0.39292 0.0
H585 H 0.44261 0.2158 0.41574 0.0
H586 H 0.48591 0.24862 0.42797 0.0
H587 H 0.62922 0.36095 0.39121 0.0
H588 H 0.61172 0.31987 0.40528 0.0
H589 H 0.54756 0.32528 0.42647 0.0
H590 H 0.56484 0.36645 0.41226 0.0
H591 H 0.53102 0.27957 0.41016 0.0
H592 H 0.59575 0.33258 0.45499 0.0
H593 H 0.63952 0.36547 0.46635 0.0
H594 H 0.67188 0.32168 0.44675 0.0
H595 H 0.62835 0.28867 0.43504 0.0
C596 C 0.50465 0.18005 0.45733 0.0
C597 C 0.51926 0.16842 0.4541 0.0
C598 C 0.51383 0.20474 0.45175 0.0
C599 C 0.53766 0.21815 0.44268 0.0
C600 C 0.55235 0.20662 0.43954 0.0
C601 C 0.54323 0.18199 0.44518 0.0
C602 C 0.54736 0.2442 0.43642 0.0
C603 C 0.57235 0.26347 0.44232 0.0
C604 C 0.53214 0.25013 0.42486 0.0
C605 C 0.50611 0.23045 0.41747 0.0
C606 C 0.50319 0.20957 0.40741 0.0
C607 C 0.47857 0.19103 0.40059 0.0
C608 C 0.45675 0.19326 0.40362 0.0
C609 C 0.45952 0.21408 0.41343 0.0
C610 C 0.4841 0.23266 0.4203 0.0
C611 C 0.61146 0.35352 0.39895 0.0
C612 C 0.5984 0.36697 0.4006 0.0
C613 C 0.60155 0.33007 0.40706 0.0
C614 C 0.57848 0.31964 0.41706 0.0
C615 C 0.56543 0.33305 0.41883 0.0
C616 C 0.57537 0.35658 0.41075 0.0
C617 C 0.56756 0.29431 0.42504 0.0
C618 C 0.54235 0.27516 0.41948 0.0
C619 C 0.5826 0.2885 0.43687 0.0
C620 C 0.6088 0.30824 0.44401 0.0
C621 C 0.61223 0.33004 0.45298 0.0
C622 C 0.637 0.34869 0.45951 0.0
C623 C 0.65848 0.34569 0.45724 0.0
C624 C 0.65522 0.32399 0.44848 0.0
C625 C 0.6305 0.30529 0.44192 0.0
H626 H 0.67764 0.36016 0.46229 0.0
H627 H 0.4377 0.17888 0.39832 0.0
H628 H 0.50019 0.6106 0.59014 0.0
H629 H 0.46754 0.6221 0.58219 0.0
H630 H 0.40788 0.55492 0.60796 0.0
H631 H 0.44021 0.54381 0.61652 0.0
H632 H 0.39493 0.56191 0.57163 0.0
H633 H 0.4308 0.60856 0.62938 0.0
H634 H 0.46663 0.64027 0.64934 0.0
H635 H 0.48183 0.69816 0.61099 0.0
H636 H 0.44629 0.66668 0.59067 0.0
H637 H 0.28351 0.56432 0.59277 0.0
H638 H 0.32364 0.56346 0.59136 0.0
H639 H 0.36494 0.64022 0.57272 0.0
H640 H 0.32462 0.64155 0.57461 0.0
H641 H 0.39259 0.63475 0.59869 0.0
H642 H 0.35214 0.59033 0.5435 0.0
H643 H 0.31674 0.55935 0.52294 0.0
H644 H 0.31129 0.49853 0.55427 0.0
H645 H 0.34639 0.52912 0.57519 0.0
C646 C 0.48019 0.59848 0.59434 0.0
C647 C 0.47278 0.57609 0.60377 0.0
C648 C 0.46157 0.60501 0.58969 0.0
C649 C 0.4353 0.5892 0.59434 0.0
C650 C 0.42801 0.56718 0.60403 0.0
C651 C 0.44653 0.56081 0.60883 0.0
C652 C 0.41496 0.59503 0.58908 0.0
C653 C 0.39434 0.57782 0.57752 0.0
C654 C 0.41486 0.61637 0.59617 0.0
C655 C 0.43615 0.63523 0.6084 0.0
C656 C 0.44196 0.62801 0.62512 0.0
C657 C 0.46217 0.64594 0.63652 0.0
C658 C 0.47656 0.6712 0.63141 0.0
C659 C 0.47071 0.67858 0.61491 0.0
C660 C 0.45054 0.66071 0.60346 0.0
C661 C 0.30097 0.58101 0.58815 0.0
C662 C 0.30074 0.60302 0.58379 0.0
C663 C 0.32397 0.58041 0.58724 0.0
C664 C 0.34728 0.60163 0.58164 0.0
C665 C 0.34715 0.62358 0.57699 0.0
C666 C 0.32406 0.62426 0.57802 0.0
C667 C 0.37185 0.60097 0.5818 0.0
C668 C 0.39334 0.61916 0.59237 0.0
C669 C 0.37292 0.58064 0.5736 0.0
C670 C 0.35187 0.56207 0.56097 0.0
C671 C 0.3433 0.57035 0.54608 0.0
C672 C 0.32329 0.55285 0.53434 0.0
C673 C 0.31176 0.52699 0.5373 0.0
C674 C 0.32025 0.51857 0.55199 0.0
C675 C 0.34025 0.53599 0.56377 0.0
H676 H 0.29626 0.51347 0.52821 0.0
H677 H 0.4922 0.68506 0.64025 0.0
H678 H 0.90074 0.34926 0.78428 0.0
H679 H 0.8568 0.32144 0.77169 0.0
H680 H 0.85376 0.38615 0.75357 0.0
H681 H 0.89794 0.41424 0.76625 0.0
H682 H 0.81101 0.35495 0.77102 0.0
H683 H 0.85777 0.346 0.72258 0.0
H684 H 0.8906 0.33905 0.70792 0.0
H685 H 0.85377 0.2642 0.72927 0.0
H686 H 0.82092 0.27082 0.74431 0.0
H687 H 0.68456 0.27183 0.73573 0.0
H688 H 0.73128 0.30234 0.73344 0.0
H689 H 0.74889 0.25014 0.7591 0.0
H690 H 0.70222 0.21932 0.7613 0.0
H691 H 0.78472 0.27862 0.73238 0.0
H692 H 0.74361 0.29188 0.78504 0.0
H693 H 0.71072 0.29896 0.79954 0.0
H694 H 0.73778 0.36677 0.76914 0.0
H695 H 0.77061 0.35989 0.75428 0.0
C696 C 0.89092 0.35758 0.77733 0.0
C697 C 0.90282 0.38394 0.77621 0.0
C698 C 0.86581 0.34164 0.77009 0.0
C699 C 0.85214 0.35168 0.76142 0.0
C700 C 0.86402 0.378 0.76013 0.0
C701 C 0.88916 0.39401 0.76746 0.0
C702 C 0.82471 0.33465 0.75505 0.0
C703 C 0.80536 0.33862 0.76218 0.0
C704 C 0.81727 0.31312 0.74374 0.0
C705 C 0.83695 0.30898 0.73468 0.0
C706 C 0.85677 0.32812 0.72427 0.0
C707 C 0.87537 0.32423 0.71587 0.0
C708 C 0.8743 0.30122 0.71769 0.0
C709 C 0.85458 0.28202 0.72788 0.0
C710 C 0.83593 0.28582 0.73633 0.0
C711 C 0.69832 0.26656 0.74055 0.0
C712 C 0.68961 0.24328 0.74903 0.0
C713 C 0.72502 0.28405 0.73921 0.0
C714 C 0.74346 0.27864 0.74641 0.0
C715 C 0.73492 0.25469 0.75352 0.0
C716 C 0.70821 0.23714 0.75484 0.0
C717 C 0.77127 0.29878 0.74865 0.0
C718 C 0.79058 0.29531 0.74083 0.0
C719 C 0.77876 0.32087 0.75927 0.0
C720 C 0.75933 0.32522 0.76841 0.0
C721 C 0.74242 0.30821 0.78137 0.0
C722 C 0.72381 0.3122 0.78966 0.0
C723 C 0.72211 0.33326 0.78522 0.0
C724 C 0.73909 0.35044 0.77254 0.0
C725 C 0.75771 0.34651 0.76419 0.0
H726 H 0.70768 0.3363 0.79164 0.0
H727 H 0.88872 0.29824 0.71117 0.0
H728 H 0.44063 0.865 0.98359 0.0
H729 H 0.4453 0.829 0.97554 0.0
H730 H 0.38044 0.80189 0.93712 0.0
H731 H 0.37546 0.83794 0.94547 0.0
H732 H 0.38285 0.76261 0.95528 0.0
H733 H 0.43875 0.83741 0.92166 0.0
H734 H 0.4712 0.88269 0.91844 0.0
H735 H 0.5273 0.87425 0.95003 0.0
H736 H 0.49498 0.82897 0.95373 0.0
H737 H 0.41858 0.69543 0.89453 0.0
H738 H 0.40647 0.72374 0.90875 0.0
H739 H 0.47455 0.75431 0.94446 0.0
H740 H 0.48705 0.7261 0.93014 0.0
H741 H 0.46958 0.79092 0.92857 0.0
H742 H 0.41419 0.71535 0.96094 0.0
H743 H 0.38156 0.67012 0.9642 0.0
H744 H 0.32456 0.67952 0.93469 0.0
H745 H 0.35697 0.72479 0.93102 0.0
C746 C 0.42704 0.85102 0.97372 0.0
C747 C 0.40791 0.85421 0.96493 0.0
C748 C 0.4297 0.83053 0.96914 0.0
C749 C 0.41353 0.81311 0.9555 0.0
C750 C 0.39313 0.81522 0.94765 0.0
C751 C 0.39031 0.83573 0.95237 0.0
C752 C 0.41998 0.79461 0.94813 0.0
C753 C 0.40166 0.76871 0.94925 0.0
C754 C 0.44475 0.80271 0.94057 0.0
C755 C 0.46436 0.82985 0.93811 0.0
C756 C 0.45794 0.84524 0.92803 0.0
C757 C 0.47631 0.87091 0.92611 0.0
C758 C 0.50128 0.88136 0.93406 0.0
C759 C 0.50794 0.86614 0.9439 0.0
C760 C 0.48961 0.84047 0.94591 0.0
C761 C 0.43099 0.7081 0.90545 0.0
C762 C 0.45386 0.70858 0.91117 0.0
C763 C 0.4239 0.72414 0.91365 0.0
C764 C 0.43943 0.74089 0.9278 0.0
C765 C 0.46225 0.74141 0.9336 0.0
C766 C 0.46936 0.72531 0.92541 0.0
C767 C 0.43255 0.75878 0.93581 0.0
C768 C 0.45079 0.78469 0.9347 0.0
C769 C 0.40771 0.75062 0.9433 0.0
C770 C 0.3881 0.72343 0.94557 0.0
C771 C 0.39476 0.70775 0.95501 0.0
C772 C 0.37629 0.68211 0.95696 0.0
C773 C 0.35103 0.67195 0.94962 0.0
C774 C 0.34415 0.68743 0.94035 0.0
C775 C 0.36256 0.71308 0.93836 0.0
H776 H 0.33676 0.65211 0.95116 0.0
H777 H 0.51548 0.90123 0.93256 0.0
H778 H 0.62141 0.47188 0.10841 0.0
H779 H 0.64571 0.45058 0.10263 0.0
H780 H 0.71739 0.51783 0.11995 0.0
H781 H 0.6932 0.53912 0.12623 0.0
H782 H 0.72201 0.49567 0.08772 0.0
H783 H 0.68981 0.47132 0.14842 0.0
H784 H 0.65602 0.45433 0.17195 0.0
H785 H 0.615 0.38313 0.14282 0.0
H786 H 0.64836 0.39984 0.11896 0.0
H787 H 0.79856 0.43823 0.09332 0.0
H788 H 0.77663 0.4611 0.1017 0.0
H789 H 0.70163 0.39413 0.09008 0.0
H790 H 0.72331 0.37103 0.082 0.0
H791 H 0.69998 0.41742 0.12047 0.0
H792 H 0.72989 0.44127 0.05928 0.0
H793 H 0.76221 0.45769 0.03476 0.0
H794 H 0.80598 0.52891 0.0636 0.0
H795 H 0.77409 0.51278 0.08843 0.0
C796 C 0.64231 0.4821 0.11114 0.0
C797 C 0.65533 0.50717 0.11788 0.0
C798 C 0.65616 0.46993 0.10776 0.0
C799 C 0.68327 0.4826 0.11103 0.0
C800 C 0.69646 0.50778 0.11732 0.0
C801 C 0.68261 0.51993 0.12082 0.0
C802 C 0.69779 0.46941 0.10807 0.0
C803 C 0.71751 0.47878 0.09506 0.0
C804 C 0.69143 0.44709 0.1174 0.0
C805 C 0.67146 0.43691 0.13182 0.0
C806 C 0.67348 0.45211 0.14696 0.0
C807 C 0.65442 0.44252 0.16037 0.0
C808 C 0.63335 0.41768 0.15886 0.0
C809 C 0.63133 0.40237 0.14396 0.0
C810 C 0.65032 0.41188 0.1305 0.0
C811 C 0.77739 0.42831 0.09269 0.0
C812 C 0.76268 0.40287 0.08686 0.0
C813 C 0.7649 0.44144 0.0974 0.0
C814 C 0.73752 0.42941 0.09624 0.0
C815 C 0.72278 0.40379 0.09102 0.0
C816 C 0.73523 0.39064 0.08637 0.0
C817 C 0.72417 0.44358 0.10001 0.0
C818 C 0.70463 0.43439 0.11318 0.0
C819 C 0.73056 0.46597 0.09072 0.0
C820 C 0.74976 0.47572 0.07581 0.0
C821 C 0.74653 0.46036 0.06047 0.0
C822 C 0.76475 0.46963 0.0465 0.0
C823 C 0.78618 0.4943 0.04765 0.0
C824 C 0.7894 0.50978 0.06275 0.0
C825 C 0.77125 0.50059 0.07677 0.0
H826 H 0.80026 0.50144 0.03682 0.0
H827 H 0.61861 0.41029 0.16925 0.0
H828 H 0.39668 0.92505 0.54571 0.0
H829 H 0.37255 0.88134 0.5557 0.0
H830 H 0.39642 0.85781 0.5077 0.0
H831 H 0.42018 0.90157 0.49738 0.0
H832 H 0.3443 0.82649 0.51429 0.0
H833 H 0.42494 0.86113 0.54808 0.0
H834 H 0.46129 0.8921 0.56804 0.0
H835 H 0.40774 0.87757 0.61139 0.0
H836 H 0.37099 0.84676 0.59159 0.0
H837 H 0.298 0.70286 0.54974 0.0
H838 H 0.32521 0.74476 0.5368 0.0
H839 H 0.30965 0.77851 0.58315 0.0
H840 H 0.28285 0.73691 0.59627 0.0
H841 H 0.36051 0.80369 0.5758 0.0
H842 H 0.27961 0.77132 0.54136 0.0
H843 H 0.24307 0.74065 0.52137 0.0
H844 H 0.29704 0.75097 0.47927 0.0
H845 H 0.33396 0.78146 0.49912 0.0
C846 C 0.39671 0.91057 0.53724 0.0
C847 C 0.41035 0.91675 0.52077 0.0
C848 C 0.38308 0.88563 0.54303 0.0
C849 C 0.38291 0.86637 0.53253 0.0
C850 C 0.39639 0.87241 0.51603 0.0
C851 C 0.41012 0.89742 0.51024 0.0
C852 C 0.36836 0.83992 0.5388 0.0
C853 C 0.34812 0.82137 0.5276 0.0
C854 C 0.3731 0.83337 0.55629 0.0
C855 C 0.39518 0.85177 0.56829 0.0
C856 C 0.42088 0.86467 0.56182 0.0
C857 C 0.44156 0.88218 0.57311 0.0
C858 C 0.43682 0.88684 0.59096 0.0
C859 C 0.41138 0.87395 0.59756 0.0
C860 C 0.39062 0.85644 0.58631 0.0
C861 C 0.30029 0.7192 0.55713 0.0
C862 C 0.28827 0.71654 0.57405 0.0
C863 C 0.31579 0.74313 0.54969 0.0
C864 C 0.31935 0.76476 0.55897 0.0
C865 C 0.30724 0.76209 0.57578 0.0
C866 C 0.29184 0.73826 0.58323 0.0
C867 C 0.33607 0.79033 0.55145 0.0
C868 C 0.3568 0.80873 0.56242 0.0
C869 C 0.33174 0.7967 0.53377 0.0
C870 C 0.30956 0.77845 0.5218 0.0
C871 C 0.2837 0.76689 0.52789 0.0
C872 C 0.26292 0.74957 0.51658 0.0
C873 C 0.26774 0.74381 0.49908 0.0
C874 C 0.29335 0.75542 0.49284 0.0
C875 C 0.3142 0.77273 0.50411 0.0
H876 H 0.25162 0.73039 0.49035 0.0
H877 H 0.45285 0.90041 0.59968 0.0
H878 H 0.62285 0.46741 0.68098 0.0
H879 H 0.63138 0.43559 0.69335 0.0
H880 H 0.57394 0.37973 0.65564 0.0
H881 H 0.56513 0.41137 0.64344 0.0
H882 H 0.5658 0.36229 0.68904 0.0
H883 H 0.64051 0.40435 0.65069 0.0
H884 H 0.68033 0.44087 0.63871 0.0
H885 H 0.71701 0.45659 0.69198 0.0
H886 H 0.67726 0.42036 0.70434 0.0
H887 H 0.5898 0.26499 0.71104 0.0
H888 H 0.58735 0.29734 0.6937 0.0
H889 H 0.64368 0.35498 0.73093 0.0
H890 H 0.64672 0.32287 0.74807 0.0
H891 H 0.6529 0.37103 0.69657 0.0
H892 H 0.578 0.3313 0.73528 0.0
H893 H 0.5382 0.29542 0.74788 0.0
H894 H 0.50199 0.27618 0.69438 0.0
H895 H 0.54173 0.31177 0.68142 0.0
C896 C 0.61239 0.44843 0.67516 0.0
C897 C 0.59325 0.44178 0.66134 0.0
C898 C 0.61729 0.43028 0.6822 0.0
C899 C 0.6034 0.4053 0.67534 0.0
C900 C 0.58481 0.39886 0.66118 0.0
C901 C 0.57977 0.41691 0.65425 0.0
C902 C 0.60695 0.38546 0.68368 0.0
C903 C 0.5848 0.36402 0.69038 0.0
C904 C 0.63183 0.38804 0.6859 0.0
C905 C 0.65581 0.40976 0.67847 0.0
C906 C 0.65699 0.4157 0.65988 0.0
C907 C 0.67957 0.43633 0.65301 0.0
C908 C 0.70117 0.45107 0.66458 0.0
C909 C 0.70026 0.44517 0.68303 0.0
C910 C 0.67772 0.42457 0.68997 0.0
C911 C 0.6018 0.28457 0.71546 0.0
C912 C 0.61825 0.29135 0.73104 0.0
C913 C 0.60033 0.30303 0.70557 0.0
C914 C 0.61502 0.32852 0.71121 0.0
C915 C 0.63214 0.33542 0.72637 0.0
C916 C 0.63376 0.31701 0.73619 0.0
C917 C 0.61174 0.34789 0.70182 0.0
C918 C 0.63391 0.36926 0.69504 0.0
C919 C 0.58689 0.34535 0.69957 0.0
C920 C 0.56293 0.32403 0.70736 0.0
C921 C 0.56162 0.3193 0.72618 0.0
C922 C 0.53906 0.29904 0.73339 0.0
C923 C 0.51761 0.28349 0.72193 0.0
C924 C 0.51864 0.28822 0.70324 0.0
C925 C 0.54117 0.30844 0.69596 0.0
H926 H 0.50017 0.2678 0.72754 0.0
H927 H 0.71862 0.46704 0.65924 0.0
H928 H 0.17633 0.53211 0.83885 0.0
H929 H 0.22026 0.54427 0.84985 0.0
H930 H 0.18732 0.49415 0.89521 0.0
H931 H 0.14313 0.48182 0.88423 0.0
H932 H 0.23409 0.54394 0.9037 0.0
H933 H 0.20345 0.47148 0.86436 0.0
H934 H 0.18254 0.44556 0.83651 0.0
H935 H 0.24231 0.50311 0.8038 0.0
H936 H 0.26335 0.52958 0.83145 0.0
H937 H 0.36386 0.54311 0.8814 0.0
H938 H 0.31639 0.52143 0.88442 0.0
H939 H 0.3211 0.5934 0.88929 0.0
H940 H 0.36837 0.61512 0.88682 0.0
H941 H 0.28477 0.52332 0.86097 0.0
H942 H 0.27054 0.58948 0.91098 0.0
H943 H 0.2909 0.61438 0.9393 0.0
H944 H 0.32044 0.56601 0.95277 0.0
H945 H 0.29991 0.54056 0.92468 0.0
C946 C 0.17848 0.52405 0.85136 0.0
C947 C 0.15643 0.50599 0.86068 0.0
C948 C 0.2035 0.5309 0.85756 0.0
C949 C 0.20685 0.51992 0.87323 0.0
C950 C 0.18499 0.50276 0.88308 0.0
C951 C 0.15987 0.49567 0.87676 0.0
C952 C 0.23322 0.52532 0.87844 0.0
C953 C 0.24525 0.53933 0.89452 0.0
C954 C 0.24727 0.51854 0.86664 0.0
C955 C 0.23488 0.50258 0.84997 0.0
C956 C 0.21203 0.47869 0.85122 0.0
C957 C 0.20017 0.46389 0.83547 0.0
C958 C 0.21106 0.4727 0.81839 0.0
C959 C 0.23388 0.49631 0.81704 0.0
C960 C 0.24581 0.51121 0.83275 0.0
C961 C 0.35483 0.55431 0.88345 0.0
C962 C 0.36989 0.58086 0.88368 0.0
C963 C 0.32771 0.54188 0.88521 0.0
C964 C 0.3152 0.55577 0.88721 0.0
C965 C 0.33032 0.58224 0.88816 0.0
C966 C 0.3574 0.59466 0.88656 0.0
C967 C 0.28632 0.54297 0.88596 0.0
C968 C 0.27369 0.52755 0.8705 0.0
C969 C 0.27173 0.54822 0.8985 0.0
C970 C 0.28376 0.56316 0.91564 0.0
C971 C 0.28121 0.58403 0.92004 0.0
C972 C 0.29283 0.59828 0.93604 0.0
C973 C 0.30701 0.59182 0.94781 0.0
C974 C 0.30952 0.57104 0.94362 0.0
C975 C 0.29792 0.55671 0.92764 0.0
H976 H 0.31602 0.60289 0.96018 0.0
H977 H 0.20185 0.46121 0.80621 0.0
H978 H 0.50717 0.10011 0.05059 0.0
H979 H 0.54389 0.13795 0.06539 0.0
H980 H 0.59743 0.13298 0.02901 0.0
H981 H 0.56111 0.09619 0.01367 0.0
H982 H 0.60851 0.13579 0.06963 0.0
H983 H 0.58573 0.17459 0.01981 0.0
H984 H 0.55505 0.18387 0.00384 0.0
H985 H 0.54663 0.21726 0.05311 0.0
H986 H 0.57702 0.20784 0.06944 0.0
H987 H 0.73263 0.2393 0.06044 0.0
H988 H 0.68863 0.20285 0.06001 0.0
H989 H 0.66063 0.24691 0.08674 0.0
H990 H 0.70481 0.28412 0.08636 0.0
H991 H 0.63036 0.22383 0.05979 0.0
H992 H 0.66044 0.19474 0.10794 0.0
H993 H 0.69009 0.18548 0.12534 0.0
H994 H 0.68295 0.1333 0.08312 0.0
H995 H 0.65357 0.14249 0.06531 0.0
C996 C 0.52671 0.10739 0.04552 0.0
C997 C 0.53125 0.09491 0.0311 0.0
C998 C 0.54762 0.12884 0.05409 0.0
C999 C 0.57328 0.13788 0.04842 0.0
C1000 C 0.57775 0.12597 0.03372 0.0
C1001 C 0.55696 0.10489 0.02502 0.0
C1002 C 0.59592 0.15955 0.05775 0.0
C1003 C 0.61341 0.15511 0.0676 0.0
C1004 C 0.60147 0.18452 0.05575 0.0
C1005 C 0.58332 0.1902 0.0459 0.0
C1006 C 0.57711 0.18367 0.02728 0.0
C1007 C 0.55984 0.18901 0.01815 0.0
C1008 C 0.54881 0.20106 0.02747 0.0
C1009 C 0.55512 0.20787 0.04592 0.0
C1010 C 0.57237 0.20254 0.05512 0.0
C1011 C 0.7173 0.24119 0.06662 0.0
C1012 C 0.72224 0.26468 0.07336 0.0
C1013 C 0.69204 0.22018 0.06649 0.0
C1014 C 0.67121 0.22191 0.07359 0.0
C1015 C 0.67633 0.24506 0.0812 0.0
C1016 C 0.70161 0.26629 0.08102 0.0
C1017 C 0.64395 0.20031 0.07106 0.0
C1018 C 0.62542 0.20464 0.06247 0.0
C1019 C 0.63723 0.17516 0.07455 0.0
C1020 C 0.6548 0.16937 0.08526 0.0
C1021 C 0.66529 0.18138 0.10231 0.0
C1022 C 0.68205 0.17613 0.11225 0.0
C1023 C 0.68841 0.15882 0.10534 0.0
C1024 C 0.67798 0.14668 0.08847 0.0
C1025 C 0.66122 0.15186 0.07846 0.0
H1026 H 0.7014 0.1548 0.11306 0.0
H1027 H 0.53545 0.20519 0.02038 0.0
H1028 H 0.57381 0.66678 0.19917 0.0
H1029 H 0.56112 0.69501 0.2125 0.0
H1030 H 0.49063 0.6598 0.17896 0.0
H1031 H 0.50438 0.633 0.16431 0.0
H1032 H 0.51025 0.70685 0.17787 0.0
H1033 H 0.49225 0.65081 0.22717 0.0
H1034 H 0.50095 0.62668 0.24986 0.0
H1035 H 0.56284 0.69578 0.27414 0.0
H1036 H 0.55476 0.72034 0.25143 0.0
H1037 H 0.4478 0.76038 0.22577 0.0
H1038 H 0.45859 0.72816 0.21863 0.0
H1039 H 0.53975 0.78104 0.23189 0.0
H1040 H 0.5293 0.81381 0.2388 0.0
H1041 H 0.51359 0.72464 0.24449 0.0
H1042 H 0.53115 0.77923 0.19206 0.0
H1043 H 0.51869 0.80115 0.16985 0.0
H1044 H 0.45204 0.73026 0.15233 0.0
H1045 H 0.46391 0.70797 0.17466 0.0
C1046 C 0.55576 0.6652 0.19439 0.0
C1047 C 0.54028 0.6477 0.18046 0.0
C1048 C 0.54825 0.68108 0.20234 0.0
C1049 C 0.52469 0.67933 0.19698 0.0
C1050 C 0.50889 0.6615 0.18338 0.0
C1051 C 0.51666 0.64596 0.17513 0.0
C1052 C 0.51734 0.69712 0.20469 0.0
C1053 C 0.51062 0.71034 0.19247 0.0
C1054 C 0.51818 0.70212 0.22375 0.0
C1055 C 0.52304 0.68741 0.23748 0.0
C1056 C 0.50785 0.66086 0.23726 0.0
C1057 C 0.51264 0.64711 0.25014 0.0
C1058 C 0.53247 0.65968 0.26341 0.0
C1059 C 0.5475 0.68606 0.26385 0.0
C1060 C 0.5428 0.69991 0.25098 0.0
C1061 C 0.46791 0.76514 0.22751 0.0
C1062 C 0.48777 0.78978 0.23268 0.0
C1063 C 0.47398 0.74666 0.22344 0.0
C1064 C 0.49992 0.75236 0.2247 0.0
C1065 C 0.5196 0.77639 0.23092 0.0
C1066 C 0.51361 0.79507 0.23475 0.0
C1067 C 0.50667 0.73402 0.21763 0.0
C1068 C 0.51322 0.72085 0.22994 0.0
C1069 C 0.50521 0.72863 0.19871 0.0
C1070 C 0.49825 0.74199 0.18516 0.0
C1071 C 0.5137 0.76835 0.18359 0.0
C1072 C 0.50678 0.78084 0.17095 0.0
C1073 C 0.48454 0.76711 0.15972 0.0
C1074 C 0.46923 0.74087 0.16106 0.0
C1075 C 0.47606 0.7283 0.17369 0.0
H1076 H 0.47921 0.77681 0.14994 0.0
H1077 H 0.53616 0.649 0.27336 0.0
H1078 H 0.89976 0.43355 0.33044 0.0
H1079 H 0.85654 0.42717 0.33656 0.0
H1080 H 0.88844 0.47759 0.3835 0.0
H1081 H 0.93168 0.48381 0.37759 0.0
H1082 H 0.83647 0.4369 0.3884 0.0
H1083 H 0.88771 0.50232 0.34537 0.0
H1084 H 0.91394 0.51887 0.31767 0.0
H1085 H 0.84849 0.46489 0.28445 0.0
H1086 H 0.822 0.44774 0.31202 0.0
H1087 H 0.75707 0.50042 0.36079 0.0
H1088 H 0.7962 0.49733 0.36114 0.0
H1089 H 0.74907 0.41733 0.37047 0.0
H1090 H 0.70971 0.42025 0.37042 0.0
H1091 H 0.80831 0.47152 0.33814 0.0
H1092 H 0.78676 0.39934 0.39473 0.0
H1093 H 0.76231 0.38525 0.42337 0.0
H1094 H 0.771 0.45821 0.43135 0.0
H1095 H 0.79577 0.47283 0.40289 0.0
C1096 C 0.89739 0.44261 0.34241 0.0
C1097 C 0.9191 0.45939 0.35344 0.0
C1098 C 0.87273 0.43903 0.34584 0.0
C1099 C 0.86944 0.45216 0.36034 0.0
C1100 C 0.89062 0.46731 0.37224 0.0
C1101 C 0.91531 0.471 0.36876 0.0
C1102 C 0.84511 0.4529 0.3616 0.0
C1103 C 0.83013 0.44427 0.37739 0.0
C1104 C 0.83724 0.46302 0.34737 0.0
C1105 C 0.85298 0.47358 0.33076 0.0
C1106 C 0.87898 0.49387 0.33217 0.0
C1107 C 0.89388 0.50337 0.3165 0.0
C1108 C 0.88291 0.4929 0.29931 0.0
C1109 C 0.85697 0.47295 0.29777 0.0
C1110 C 0.842 0.46334 0.31341 0.0
C1111 C 0.75496 0.48217 0.36306 0.0
C1112 C 0.73018 0.46056 0.36551 0.0
C1113 C 0.77738 0.48044 0.36322 0.0
C1114 C 0.77556 0.45713 0.36587 0.0
C1115 C 0.75095 0.43557 0.36861 0.0
C1116 C 0.72846 0.43728 0.3685 0.0
C1117 C 0.79939 0.45537 0.36493 0.0
C1118 C 0.81436 0.46386 0.34912 0.0
C1119 C 0.80738 0.44549 0.37929 0.0
C1120 C 0.79287 0.43706 0.39658 0.0
C1121 C 0.78353 0.41239 0.40263 0.0
C1122 C 0.7696 0.40431 0.41883 0.0
C1123 C 0.76503 0.4208 0.42914 0.0
C1124 C 0.77446 0.44543 0.42331 0.0
C1125 C 0.78841 0.45361 0.40714 0.0
H1126 H 0.75422 0.4145 0.44166 0.0
H1127 H 0.89448 0.50027 0.28719 0.0
H1128 H 0.10411 0.51579 0.39987 0.0
H1129 H 0.12791 0.52841 0.42917 0.0
H1130 H 0.07409 0.54963 0.44956 0.0
H1131 H 0.05085 0.53792 0.41982 0.0
H1132 H 0.12058 0.58308 0.46062 0.0
H1133 H 0.07108 0.49322 0.4619 0.0
H1134 H 0.05414 0.44961 0.45063 0.0
H1135 H 0.13214 0.4626 0.45068 0.0
H1136 H 0.1496 0.50642 0.46172 0.0
H1137 H 0.16032 0.54623 0.55255 0.0
H1138 H 0.13477 0.53489 0.52414 0.0
H1139 H 0.19344 0.60489 0.50064 0.0
H1140 H 0.21859 0.6169 0.5295 0.0
H1141 H 0.14177 0.52493 0.49214 0.0
H1142 H 0.16699 0.62429 0.46857 0.0
H1143 H 0.17856 0.66559 0.48221 0.0
H1144 H 0.13895 0.62932 0.53126 0.0
H1145 H 0.12689 0.5878 0.51784 0.0
C1146 C 0.09724 0.52293 0.41069 0.0
C1147 C 0.07543 0.52552 0.40776 0.0
C1148 C 0.11083 0.53013 0.42743 0.0
C1149 C 0.1025 0.5395 0.44175 0.0
C1150 C 0.08084 0.54238 0.43875 0.0
C1151 C 0.06751 0.53559 0.42184 0.0
C1152 C 0.11653 0.54633 0.45977 0.0
C1153 C 0.12515 0.57034 0.46753 0.0
C1154 C 0.12208 0.52956 0.46905 0.0
C1155 C 0.11166 0.50317 0.46249 0.0
C1156 C 0.08464 0.48683 0.45939 0.0
C1157 C 0.07494 0.46206 0.45306 0.0
C1158 C 0.09206 0.45335 0.4499 0.0
C1159 C 0.11891 0.46938 0.45312 0.0
C1160 C 0.12871 0.49417 0.45943 0.0
C1161 C 0.16785 0.55923 0.54134 0.0
C1162 C 0.19149 0.58249 0.54328 0.0
C1163 C 0.15319 0.55271 0.52506 0.0
C1164 C 0.16195 0.56911 0.51024 0.0
C1165 C 0.1859 0.59214 0.51199 0.0
C1166 C 0.20037 0.59892 0.52845 0.0
C1167 C 0.14605 0.56179 0.49296 0.0
C1168 C 0.13716 0.53769 0.48528 0.0
C1169 C 0.13943 0.57812 0.48415 0.0
C1170 C 0.14628 0.60298 0.49225 0.0
C1171 C 0.16067 0.62513 0.48224 0.0
C1172 C 0.16733 0.64858 0.48994 0.0
C1173 C 0.15957 0.65009 0.50761 0.0
C1174 C 0.14504 0.62814 0.5176 0.0
C1175 C 0.13832 0.60465 0.50996 0.0
H1176 H 0.16477 0.66826 0.51355 0.0
H1177 H 0.08451 0.43417 0.445 0.0
H1178 H 0.44776 0.03891 0.59383 0.0
H1179 H 0.46338 0.05633 0.62465 0.0
H1180 H 0.53973 0.06929 0.61238 0.0
H1181 H 0.52523 0.05391 0.58123 0.0
H1182 H 0.51437 0.04813 0.65117 0.0
H1183 H 0.54048 0.11524 0.6062 0.0
H1184 H 0.52906 0.13364 0.58068 0.0
H1185 H 0.47315 0.1388 0.61403 0.0
H1186 H 0.48376 0.11963 0.63963 0.0
H1187 H 0.60118 0.1391 0.71594 0.0
H1188 H 0.5795 0.11314 0.68861 0.0
H1189 H 0.52269 0.13666 0.68982 0.0
H1190 H 0.54547 0.16395 0.71643 0.0
H1191 H 0.53399 0.1364 0.65728 0.0
H1192 H 0.51008 0.07509 0.70361 0.0
H1193 H 0.51665 0.05324 0.72926 0.0
H1194 H 0.56246 0.0342 0.69527 0.0
H1195 H 0.55646 0.05624 0.66948 0.0
C1196 C 0.46789 0.04542 0.5976 0.0
C1197 C 0.48525 0.04528 0.58476 0.0
C1198 C 0.47663 0.05503 0.61532 0.0
C1199 C 0.50266 0.06405 0.62067 0.0
C1200 C 0.51949 0.06216 0.60848 0.0
C1201 C 0.51101 0.05318 0.59063 0.0
C1202 C 0.51334 0.07851 0.63797 0.0
C1203 C 0.51885 0.06747 0.65261 0.0
C1204 C 0.51837 0.10341 0.63983 0.0
C1205 C 0.51267 0.11574 0.62472 0.0
C1206 C 0.52559 0.12008 0.60803 0.0
C1207 C 0.51927 0.13068 0.59355 0.0
C1208 C 0.50036 0.13739 0.5957 0.0
C1209 C 0.48777 0.13355 0.61237 0.0
C1210 C 0.4939 0.12279 0.62686 0.0
C1211 C 0.58407 0.1387 0.71032 0.0
C1212 C 0.57496 0.15348 0.71826 0.0
C1213 C 0.57151 0.12367 0.6948 0.0
C1214 C 0.549 0.12237 0.68733 0.0
C1215 C 0.53996 0.13724 0.69529 0.0
C1216 C 0.55297 0.15283 0.7105 0.0
C1217 C 0.53542 0.10624 0.67087 0.0
C1218 C 0.52936 0.11699 0.6562 0.0
C1219 C 0.5294 0.08085 0.66919 0.0
C1220 C 0.53299 0.0675 0.68466 0.0
C1221 C 0.5217 0.06639 0.70164 0.0
C1222 C 0.5253 0.05395 0.7162 0.0
C1223 C 0.54001 0.04239 0.7139 0.0
C1224 C 0.55109 0.04319 0.69703 0.0
C1225 C 0.54757 0.05562 0.68243 0.0
H1226 H 0.54278 0.03277 0.72519 0.0
H1227 H 0.49548 0.14559 0.58448 0.0
H1228 H 0.58765 0.60819 0.71112 0.0
H1229 H 0.58772 0.62496 0.74157 0.0
H1230 H 0.50819 0.60668 0.7323 0.0
H1231 H 0.50833 0.59083 0.70159 0.0
H1232 H 0.5357 0.65097 0.74963 0.0
H1233 H 0.5235 0.56733 0.75527 0.0
H1234 H 0.53556 0.53477 0.75232 0.0
H1235 H 0.60534 0.58093 0.78467 0.0
H1236 H 0.59391 0.61395 0.78757 0.0
H1237 H 0.47965 0.60206 0.84068 0.0
H1238 H 0.5017 0.5981 0.81429 0.0
H1239 H 0.55466 0.67882 0.81505 0.0
H1240 H 0.53235 0.68302 0.84151 0.0
H1241 H 0.54933 0.60963 0.80284 0.0
H1242 H 0.55849 0.69758 0.77076 0.0
H1243 H 0.541 0.72597 0.7742 0.0
H1244 H 0.46926 0.66471 0.79446 0.0
H1245 H 0.48623 0.63596 0.79092 0.0
C1246 C 0.57038 0.60829 0.71541 0.0
C1247 C 0.54793 0.59814 0.70396 0.0
C1248 C 0.57038 0.61765 0.73288 0.0
C1249 C 0.54787 0.61679 0.73927 0.0
C1250 C 0.52578 0.6075 0.72764 0.0
C1251 C 0.5258 0.59825 0.71016 0.0
C1252 C 0.54659 0.62435 0.75833 0.0
C1253 C 0.53906 0.64219 0.76126 0.0
C1254 C 0.55092 0.61286 0.77354 0.0
C1255 C 0.55801 0.59323 0.77145 0.0
C1256 C 0.54156 0.57065 0.76159 0.0
C1257 C 0.54826 0.5521 0.75996 0.0
C1258 C 0.5712 0.5558 0.76831 0.0
C1259 C 0.58759 0.57811 0.77821 0.0
C1260 C 0.58102 0.59675 0.77984 0.0
C1261 C 0.49642 0.61895 0.83561 0.0
C1262 C 0.50393 0.64291 0.84298 0.0
C1263 C 0.50912 0.61663 0.82053 0.0
C1264 C 0.52948 0.63821 0.81251 0.0
C1265 C 0.53873 0.66196 0.82092 0.0
C1266 C 0.526 0.66431 0.83606 0.0
C1267 C 0.53799 0.63584 0.79405 0.0
C1268 C 0.54685 0.61901 0.79122 0.0
C1269 C 0.53433 0.64779 0.77888 0.0
C1270 C 0.52376 0.66477 0.78079 0.0
C1271 C 0.53897 0.6902 0.77591 0.0
C1272 C 0.52915 0.70634 0.77787 0.0
C1273 C 0.50407 0.69717 0.78461 0.0
C1274 C 0.48871 0.67181 0.78931 0.0
C1275 C 0.49842 0.6556 0.78733 0.0
H1276 H 0.49652 0.7097 0.78615 0.0
H1277 H 0.57624 0.54133 0.7672 0.0
H1278 H 0.96598 0.44542 0.90352 0.0
H1279 H 0.94701 0.43418 0.93367 0.0
H1280 H 0.89599 0.35715 0.91485 0.0
H1281 H 0.914 0.36863 0.88422 0.0
H1282 H 0.86941 0.37157 0.93361 0.0
H1283 H 0.94983 0.37482 0.9441 0.0
H1284 H 0.99737 0.39179 0.94438 0.0
H1285 H 0.00986 0.45411 0.97866 0.0
H1286 H 0.96239 0.43768 0.97842 0.0
H1287 H 0.82657 0.32594 0.02173 0.0
H1288 H 0.85371 0.33416 0.995 0.0
H1289 H 0.8873 0.41429 0.00352 0.0
H1290 H 0.8598 0.40627 0.03019 0.0
H1291 H 0.92326 0.39559 0.99081 0.0
H1292 H 0.84129 0.39221 0.97688 0.0
H1293 H 0.79331 0.37208 0.97774 0.0
H1294 H 0.78416 0.30621 0.95006 0.0
H1295 H 0.83214 0.32583 0.94931 0.0
C1296 C 0.95043 0.42615 0.90567 0.0
C1297 C 0.94125 0.40798 0.89137 0.0
C1298 C 0.93994 0.41965 0.92305 0.0
C1299 C 0.92036 0.39473 0.92664 0.0
C1300 C 0.91119 0.37649 0.91242 0.0
C1301 C 0.92156 0.38304 0.89495 0.0
C1302 C 0.90852 0.38813 0.94496 0.0
C1303 C 0.88125 0.37645 0.94605 0.0
C1304 C 0.9239 0.39479 0.9613 0.0
C1305 C 0.95254 0.4051 0.96113 0.0
C1306 C 0.96272 0.39228 0.95155 0.0
C1307 C 0.98965 0.40176 0.95175 0.0
C1308 C 0.00661 0.42398 0.96156 0.0
C1309 C 0.99669 0.43686 0.9711 0.0
C1310 C 0.96977 0.42746 0.97096 0.0
C1311 C 0.8402 0.34535 0.01824 0.0
C1312 C 0.84084 0.36548 0.02794 0.0
C1313 C 0.85566 0.34998 0.00295 0.0
C1314 C 0.87224 0.37478 0.99727 0.0
C1315 C 0.87458 0.39502 0.00777 0.0
C1316 C 0.85883 0.3904 0.02294 0.0
C1317 C 0.88447 0.37934 0.97922 0.0
C1318 C 0.91165 0.39062 0.97825 0.0
C1319 C 0.86907 0.37203 0.96296 0.0
C1320 C 0.84026 0.36035 0.96323 0.0
C1321 C 0.82903 0.37334 0.97113 0.0
C1322 C 0.80185 0.36205 0.97157 0.0
C1323 C 0.78569 0.33785 0.96401 0.0
C1324 C 0.7967 0.32493 0.95595 0.0
C1325 C 0.82388 0.33613 0.9555 0.0
H1326 H 0.76465 0.32914 0.96436 0.0
H1327 H 0.02744 0.43122 0.96179 0.0
H1328 H 0.4681 0.94882 0.08622 0.0
H1329 H 0.4722 0.94414 0.11886 0.0
H1330 H 0.47641 0.0149 0.12982 0.0
H1331 H 0.4726 0.02001 0.09681 0.0
H1332 H 0.51335 -4e-05 0.152 0.0
H1333 H 0.42425 0.97661 0.13821 0.0
H1334 H 0.38439 0.95688 0.11861 0.0
H1335 H 0.37837 0.88482 0.12326 0.0
H1336 H 0.41843 0.90421 0.14266 0.0
H1337 H 0.42947 0.89858 0.22739 0.0
H1338 H 0.43837 0.93488 0.20908 0.0
H1339 H 0.50445 0.93497 0.18556 0.0
H1340 H 0.49624 0.89944 0.2043 0.0
H1341 H 0.43099 0.92779 0.17478 0.0
H1342 H 0.54425 0.98702 0.16376 0.0
H1343 H 0.5848 0.00647 0.18256 0.0
H1344 H 0.54274 0.00831 0.22916 0.0
H1345 H 0.50198 0.98923 0.2106 0.0
C1346 C 0.47061 0.96378 0.09546 0.0
C1347 C 0.47003 0.9848 0.08895 0.0
C1348 C 0.4729 0.96103 0.11411 0.0
C1349 C 0.47462 0.97919 0.12662 0.0
C1350 C 0.47525 0.00081 0.12026 0.0
C1351 C 0.47282 0.00354 0.10149 0.0
C1352 C 0.47263 0.9735 0.14624 0.0
C1353 C 0.49535 0.98452 0.15728 0.0
C1354 C 0.44891 0.95381 0.15306 0.0
C1355 C 0.42437 0.94189 0.14185 0.0
C1356 C 0.41448 0.95658 0.13499 0.0
C1357 C 0.39186 0.94546 0.12392 0.0
C1358 C 0.37887 0.91962 0.11969 0.0
C1359 C 0.38844 0.90483 0.12657 0.0
C1360 C 0.41107 0.91587 0.13763 0.0
C1361 C 0.44648 0.90697 0.21881 0.0
C1362 C 0.46186 0.8959 0.21697 0.0
C1363 C 0.45158 0.92775 0.20838 0.0
C1364 C 0.47195 0.93761 0.19581 0.0
C1365 C 0.48885 0.92806 0.19533 0.0
C1366 C 0.484 0.90752 0.20596 0.0
C1367 C 0.4721 0.95347 0.18067 0.0
C1368 C 0.44892 0.94405 0.17018 0.0
C1369 C 0.49539 0.97478 0.17456 0.0
C1370 C 0.51998 0.9866 0.18576 0.0
C1371 C 0.54365 0.99175 0.17798 0.0
C1372 C 0.56668 0.00267 0.18861 0.0
C1373 C 0.56634 0.0086 0.20705 0.0
C1374 C 0.54296 0.00366 0.21489 0.0
C1375 C 0.51988 0.99275 0.20432 0.0
H1376 H 0.58419 0.01703 0.21526 0.0
H1377 H 0.36138 0.91105 0.11109 0.0
H1378 H 0.59829 0.60803 0.24875 0.0
H1379 H 0.60141 0.59662 0.28019 0.0
H1380 H 0.54155 0.51941 0.26793 0.0
H1381 H 0.53879 0.53031 0.23656 0.0
H1382 H 0.54363 0.53443 0.30578 0.0
H1383 H 0.59896 0.53511 0.25672 0.0
H1384 H 0.62982 0.55676 0.23192 0.0
H1385 H 0.68466 0.61267 0.27031 0.0
H1386 H 0.65361 0.59186 0.29526 0.0
H1387 H 0.57516 0.4464 0.33881 0.0
H1388 H 0.56181 0.47414 0.32532 0.0
H1389 H 0.63674 0.53913 0.34064 0.0
H1390 H 0.6503 0.51136 0.35361 0.0
H1391 H 0.62927 0.5392 0.30633 0.0
H1392 H 0.57628 0.53244 0.35704 0.0
H1393 H 0.54348 0.51229 0.38105 0.0
H1394 H 0.48475 0.4669 0.34038 0.0
H1395 H 0.51701 0.48714 0.31609 0.0
C1396 C 0.58529 0.58876 0.25289 0.0
C1397 C 0.56882 0.56996 0.24001 0.0
C1398 C 0.58687 0.58237 0.27091 0.0
C1399 C 0.57199 0.55711 0.27622 0.0
C1400 C 0.55314 0.53902 0.26408 0.0
C1401 C 0.55165 0.54534 0.24606 0.0
C1402 C 0.5802 0.54833 0.29222 0.0
C1403 C 0.5624 0.53558 0.3061 0.0
C1404 C 0.60484 0.55017 0.29264 0.0
C1405 C 0.62386 0.56215 0.27779 0.0
C1406 C 0.61752 0.55212 0.25985 0.0
C1407 C 0.63503 0.56422 0.24576 0.0
C1408 C 0.65921 0.58604 0.24953 0.0
C1409 C 0.6659 0.59579 0.26741 0.0
C1410 C 0.64832 0.58391 0.28152 0.0
C1411 C 0.58856 0.46665 0.33959 0.0
C1412 C 0.61407 0.47671 0.34669 0.0
C1413 C 0.58081 0.48255 0.33208 0.0
C1414 C 0.59826 0.50881 0.33195 0.0
C1415 C 0.62299 0.51893 0.34044 0.0
C1416 C 0.63088 0.50302 0.34765 0.0
C1417 C 0.59263 0.5249 0.32014 0.0
C1418 C 0.61087 0.53878 0.3067 0.0
C1419 C 0.56839 0.52396 0.32019 0.0
C1420 C 0.54911 0.51119 0.33476 0.0
C1421 C 0.55641 0.51804 0.35323 0.0
C1422 C 0.5379 0.50667 0.36688 0.0
C1423 C 0.51213 0.48819 0.36226 0.0
C1424 C 0.50474 0.48119 0.34395 0.0
C1425 C 0.52308 0.49272 0.33023 0.0
H1426 H 0.49787 0.47937 0.37286 0.0
H1427 H 0.67275 0.59536 0.23861 0.0
H1428 H 0.42068 0.93945 0.41219 0.0
H1429 H 0.42102 0.91302 0.38718 0.0
H1430 H 0.49185 0.9203 0.40956 0.0
H1431 H 0.49116 0.94587 0.43503 0.0
H1432 H 0.49454 0.93678 0.37278 0.0
H1433 H 0.44099 0.86516 0.40978 0.0
H1434 H 0.40318 0.8382 0.42887 0.0
H1435 H 0.35079 0.82604 0.38388 0.0
H1436 H 0.38828 0.85325 0.36458 0.0
H1437 H 0.50739 0.87166 0.29828 0.0
H1438 H 0.50446 0.88271 0.33002 0.0
H1439 H 0.4239 0.86094 0.3202 0.0
H1440 H 0.42634 0.84855 0.28888 0.0
H1441 H 0.42794 0.84942 0.35292 0.0
H1442 H 0.47727 0.92427 0.31768 0.0
H1443 H 0.51271 0.95357 0.29768 0.0
H1444 H 0.56998 0.96265 0.33804 0.0
H1445 H 0.53485 0.93314 0.35819 0.0
C1446 C 0.43588 0.93479 0.41214 0.0
C1447 C 0.4561 0.94508 0.4255 0.0
C1448 C 0.43608 0.91975 0.3978 0.0
C1449 C 0.45651 0.91484 0.39655 0.0
C1450 C 0.47598 0.924 0.4103 0.0
C1451 C 0.47564 0.93876 0.42474 0.0
C1452 C 0.45918 0.9027 0.37987 0.0
C1453 C 0.4803 0.91749 0.36858 0.0
C1454 C 0.44005 0.87789 0.37422 0.0
C1455 C 0.41747 0.86143 0.38577 0.0
C1456 C 0.42141 0.85692 0.40399 0.0
C1457 C 0.40003 0.84155 0.41485 0.0
C1458 C 0.3746 0.83046 0.4076 0.0
C1459 C 0.3705 0.83466 0.38948 0.0
C1460 C 0.39181 0.85003 0.37857 0.0
C1461 C 0.48898 0.86891 0.30301 0.0
C1462 C 0.46718 0.85949 0.29108 0.0
C1463 C 0.48733 0.87533 0.32111 0.0
C1464 C 0.46414 0.87328 0.3274 0.0
C1465 C 0.44203 0.86276 0.31571 0.0
C1466 C 0.44347 0.85575 0.29776 0.0
C1467 C 0.46327 0.88359 0.34565 0.0
C1468 C 0.44244 0.86857 0.35721 0.0
C1469 C 0.48232 0.90851 0.3514 0.0
C1470 C 0.50346 0.92629 0.33933 0.0
C1471 C 0.49743 0.93239 0.32222 0.0
C1472 C 0.51745 0.94904 0.31088 0.0
C1473 C 0.54358 0.9599 0.31656 0.0
C1474 C 0.54974 0.95418 0.33364 0.0
C1475 C 0.52978 0.9375 0.34503 0.0
H1476 H 0.55906 0.97279 0.30776 0.0
H1477 H 0.35807 0.81856 0.41603 0.0
H1478 H 0.55186 0.48246 0.54308 0.0
H1479 H 0.57281 0.47708 0.51646 0.0
H1480 H 0.58892 0.54899 0.49639 0.0
H1481 H 0.56791 0.55461 0.52322 0.0
H1482 H 0.57272 0.50999 0.46865 0.0
H1483 H 0.634 0.54881 0.51817 0.0
H1484 H 0.6519 0.55434 0.54952 0.0
H1485 H 0.65202 0.48513 0.54382 0.0
H1486 H 0.63321 0.47867 0.51263 0.0
H1487 H 0.67122 0.52771 0.40846 0.0
H1488 H 0.65551 0.53671 0.43649 0.0
H1489 H 0.62616 0.46048 0.454 0.0
H1490 H 0.64144 0.45102 0.4258 0.0
H1491 H 0.65127 0.50437 0.48291 0.0
H1492 H 0.58303 0.46288 0.43556 0.0
H1493 H 0.5706 0.4593 0.40291 0.0
H1494 H 0.58779 0.53591 0.40423 0.0
H1495 H 0.60076 0.54005 0.43689 0.0
C1496 C 0.55918 0.49683 0.53277 0.0
C1497 C 0.55826 0.51899 0.53522 0.0
C1498 C 0.57134 0.49381 0.51765 0.0
C1499 C 0.58268 0.5128 0.50465 0.0
C1500 C 0.58033 0.5342 0.50637 0.0
C1501 C 0.5684 0.5374 0.52166 0.0
C1502 C 0.59846 0.51091 0.49002 0.0
C1503 C 0.59003 0.50906 0.47179 0.0
C1504 C 0.62098 0.50951 0.49416 0.0
C1505 C 0.63182 0.51308 0.51309 0.0
C1506 C 0.63742 0.53453 0.52367 0.0
C1507 C 0.6478 0.53788 0.54142 0.0
C1508 C 0.65308 0.5201 0.54866 0.0
C1509 C 0.64794 0.4989 0.53818 0.0
C1510 C 0.63731 0.49534 0.52049 0.0
C1511 C 0.66207 0.513 0.41846 0.0
C1512 C 0.65725 0.48852 0.41479 0.0
C1513 C 0.65315 0.51822 0.43447 0.0
C1514 C 0.63961 0.49919 0.44714 0.0
C1515 C 0.63669 0.47538 0.44432 0.0
C1516 C 0.64529 0.47 0.42817 0.0
C1517 C 0.62522 0.50305 0.4618 0.0
C1518 C 0.63394 0.50532 0.47993 0.0
C1519 C 0.60305 0.50488 0.45764 0.0
C1520 C 0.59299 0.50182 0.43858 0.0
C1521 C 0.58408 0.47893 0.42889 0.0
C1522 C 0.57701 0.47682 0.41039 0.0
C1523 C 0.57854 0.4974 0.40149 0.0
C1524 C 0.58669 0.52001 0.41115 0.0
C1525 C 0.59386 0.52224 0.42967 0.0
H1526 H 0.57349 0.49581 0.38709 0.0
H1527 H 0.66116 0.52273 0.56239 0.0
H1528 H 0.02431 0.45643 0.71096 0.0
H1529 H 0.04543 0.47769 0.68279 0.0
H1530 H 0.06819 0.54976 0.70805 0.0
H1531 H 0.04758 0.52881 0.73628 0.0
H1532 H 0.05728 0.54716 0.66942 0.0
H1533 H 0.10698 0.52929 0.71333 0.0
H1534 H 0.11312 0.50055 0.73302 0.0
H1535 H 0.10989 0.45695 0.68586 0.0
H1536 H 0.10279 0.48494 0.66591 0.0
H1537 H 0.18055 0.63207 0.62975 0.0
H1538 H 0.14188 0.60707 0.6483 0.0
H1539 H 0.13397 0.53845 0.62583 0.0
H1540 H 0.17271 0.56334 0.60767 0.0
H1541 H 0.13374 0.53682 0.66104 0.0
H1542 H 0.08886 0.55733 0.61641 0.0
H1543 H 0.08098 0.58495 0.59668 0.0
H1544 H 0.07518 0.6233 0.64407 0.0
H1545 H 0.0834 0.59615 0.66409 0.0
C1546 C 0.0333 0.47675 0.71038 0.0
C1547 C 0.03466 0.49096 0.72595 0.0
C1548 C 0.04517 0.48883 0.69424 0.0
C1549 C 0.05864 0.51529 0.69348 0.0
C1550 C 0.05781 0.52931 0.70837 0.0
C1551 C 0.04599 0.51726 0.72452 0.0
C1552 C 0.07729 0.52848 0.67871 0.0
C1553 C 0.07406 0.54502 0.66752 0.0
C1554 C 0.09896 0.52538 0.67621 0.0
C1555 C 0.10404 0.50903 0.68815 0.0
C1556 C 0.10738 0.51347 0.70717 0.0
C1557 C 0.11104 0.49732 0.71838 0.0
C1558 C 0.11193 0.47696 0.71071 0.0
C1559 C 0.10916 0.47271 0.69179 0.0
C1560 C 0.10525 0.48867 0.68053 0.0
C1561 C 0.17025 0.61165 0.6286 0.0
C1562 C 0.17994 0.5996 0.61763 0.0
C1563 C 0.14809 0.59737 0.63912 0.0
C1564 C 0.13499 0.57083 0.63849 0.0
C1565 C 0.14388 0.55888 0.6267 0.0
C1566 C 0.16618 0.57312 0.61642 0.0
C1567 C 0.11382 0.55555 0.65142 0.0
C1568 C 0.11676 0.53875 0.66253 0.0
C1569 C 0.09195 0.55845 0.65374 0.0
C1570 C 0.08698 0.57482 0.64175 0.0
C1571 C 0.08612 0.57178 0.62263 0.0
C1572 C 0.08155 0.58733 0.61139 0.0
C1573 C 0.07764 0.6059 0.61912 0.0
C1574 C 0.07824 0.60892 0.6381 0.0
C1575 C 0.08282 0.59343 0.6494 0.0
H1576 H 0.0741 0.61792 0.6104 0.0
H1577 H 0.11479 0.4645 0.71941 0.0
H1578 H 0.43616 0.04018 0.91068 0.0
H1579 H 0.45033 0.06294 0.88203 0.0
H1580 H 0.52094 0.12124 0.90899 0.0
H1581 H 0.50655 0.09893 0.93784 0.0
H1582 H 0.50166 0.14077 0.88435 0.0
H1583 H 0.52124 0.07398 0.88664 0.0
H1584 H 0.50946 0.02973 0.89045 0.0
H1585 H 0.45651 0.00693 0.84424 0.0
H1586 H 0.4677 0.05103 0.84033 0.0
H1587 H 0.58876 0.16259 0.80319 0.0
H1588 H 0.56462 0.1366 0.82895 0.0
H1589 H 0.50251 0.15138 0.81811 0.0
H1590 H 0.52651 0.17743 0.79228 0.0
H1591 H 0.51534 0.09444 0.83398 0.0
H1592 H 0.48551 0.16421 0.85987 0.0
H1593 H 0.49968 0.20931 0.85751 0.0
H1594 H 0.57871 0.22777 0.84915 0.0
H1595 H 0.56506 0.18285 0.85172 0.0
C1596 C 0.45435 0.05821 0.91063 0.0
C1597 C 0.47033 0.06776 0.92647 0.0
C1598 C 0.46251 0.07105 0.89422 0.0
C1599 C 0.48683 0.09354 0.89337 0.0
C1600 C 0.50213 0.10385 0.90938 0.0
C1601 C 0.49399 0.09103 0.92579 0.0
C1602 C 0.49734 0.10537 0.87561 0.0
C1603 C 0.50443 0.13059 0.87327 0.0
C1604 C 0.50129 0.09213 0.8613 0.0
C1605 C 0.49512 0.06575 0.8633 0.0
C1606 C 0.507 0.05951 0.87735 0.0
C1607 C 0.50043 0.03446 0.87953 0.0
C1608 C 0.4822 0.01552 0.86762 0.0
C1609 C 0.4706 0.02161 0.85346 0.0
C1610 C 0.47706 0.04663 0.85125 0.0
C1611 C 0.56976 0.15995 0.80604 0.0
C1612 C 0.55965 0.17225 0.79579 0.0
C1613 C 0.55596 0.14503 0.82074 0.0
C1614 C 0.53197 0.14235 0.82552 0.0
C1615 C 0.52115 0.15346 0.81472 0.0
C1616 C 0.53488 0.1683 0.79996 0.0
C1617 C 0.51947 0.12978 0.84268 0.0
C1618 C 0.51212 0.10447 0.84493 0.0
C1619 C 0.51567 0.14304 0.85704 0.0
C1620 C 0.52419 0.17015 0.85577 0.0
C1621 C 0.50592 0.17792 0.85759 0.0
C1622 C 0.51386 0.20344 0.85621 0.0
C1623 C 0.54006 0.22138 0.85311 0.0
C1624 C 0.5584 0.21385 0.85147 0.0
C1625 C 0.55057 0.18836 0.85287 0.0
H1626 H 0.54616 0.24112 0.85203 0.0
H1627 H 0.4771 0.99613 0.86935 0.0
H1628 H 0.57349 0.64066 0.06403 0.0
H1629 H 0.55897 0.64789 0.03458 0.0
H1630 H 0.47989 0.58914 0.04522 0.0
H1631 H 0.49378 0.58266 0.07518 0.0
H1632 H 0.51156 0.58641 0.01158 0.0
H1633 H 0.48092 0.63561 0.04338 0.0
H1634 H 0.48676 0.67022 0.06385 0.0
H1635 H 0.54632 0.72453 0.02926 0.0
H1636 H 0.54111 0.69018 0.00872 0.0
H1637 H 0.4479 0.5811 0.92933 0.0
H1638 H 0.45937 0.5816 0.9615 0.0
H1639 H 0.51902 0.66051 0.95822 0.0
H1640 H 0.50607 0.66041 0.92627 0.0
H1641 H 0.49837 0.65454 0.98892 0.0
H1642 H 0.532 0.6093 0.9576 0.0
H1643 H 0.53123 0.57698 0.93703 0.0
H1644 H 0.47344 0.51826 0.97012 0.0
H1645 H 0.47363 0.55023 0.99076 0.0
C1646 C 0.55283 0.62988 0.06048 0.0
C1647 C 0.53486 0.61083 0.07194 0.0
C1648 C 0.54464 0.63398 0.04358 0.0
C1649 C 0.51844 0.61898 0.03783 0.0
C1650 C 0.50021 0.60086 0.04952 0.0
C1651 C 0.50826 0.59705 0.06654 0.0
C1652 C 0.51081 0.61988 0.01876 0.0
C1653 C 0.50827 0.60106 0.00659 0.0
C1654 C 0.50775 0.63966 0.01232 0.0
C1655 C 0.51085 0.66029 0.02465 0.0
C1656 C 0.49548 0.6549 0.04026 0.0
C1657 C 0.49862 0.67448 0.05184 0.0
C1658 C 0.51696 0.69956 0.04789 0.0
C1659 C 0.53215 0.7051 0.03232 0.0
C1660 C 0.5291 0.68558 0.0207 0.0
C1661 C 0.46352 0.59851 0.93549 0.0
C1662 C 0.47638 0.62063 0.92534 0.0
C1663 C 0.47017 0.59878 0.95385 0.0
C1664 C 0.49061 0.62091 0.96223 0.0
C1665 C 0.50328 0.64315 0.95209 0.0
C1666 C 0.49601 0.64308 0.93384 0.0
C1667 C 0.49868 0.62074 0.9815 0.0
C1668 C 0.50155 0.63978 0.99376 0.0
C1669 C 0.50277 0.60146 0.98799 0.0
C1670 C 0.50267 0.58217 0.97563 0.0
C1671 C 0.51901 0.5895 0.96042 0.0
C1672 C 0.51869 0.57124 0.94876 0.0
C1673 C 0.50225 0.54559 0.95224 0.0
C1674 C 0.48614 0.53814 0.96742 0.0
C1675 C 0.48637 0.55632 0.97912 0.0
H1676 H 0.50203 0.53148 0.9432 0.0
H1677 H 0.51936 0.71469 0.05687 0.0
H1678 H 0.96366 0.41839 0.23918 0.0
H1679 H 0.93833 0.40018 0.21105 0.0
H1680 H 0.88907 0.42998 0.22473 0.0
H1681 H 0.91344 0.44705 0.25364 0.0
H1682 H 0.86026 0.38454 0.21024 0.0
H1683 H 0.93937 0.45886 0.19343 0.0
H1684 H 0.98679 0.48866 0.19088 0.0
H1685 H 0.99506 0.43159 0.16313 0.0
H1686 H 0.94777 0.40132 0.16575 0.0
H1687 H 0.81135 0.37359 0.11845 0.0
H1688 H 0.83279 0.38959 0.14835 0.0
H1689 H 0.87701 0.35285 0.14048 0.0
H1690 H 0.85568 0.3367 0.11057 0.0
H1691 H 0.90756 0.4028 0.15187 0.0
H1692 H 0.8275 0.32853 0.16921 0.0
H1693 H 0.77961 0.30045 0.17021 0.0
H1694 H 0.77295 0.35964 0.19604 0.0
H1695 H 0.8208 0.38821 0.19495 0.0
C1696 C 0.94708 0.42064 0.2365 0.0
C1697 C 0.94059 0.43417 0.2488 0.0
C1698 C 0.93285 0.41054 0.22019 0.0
C1699 C 0.91212 0.41415 0.21554 0.0
C1700 C 0.90512 0.4271 0.22795 0.0
C1701 C 0.91921 0.43703 0.24441 0.0
C1702 C 0.89797 0.40453 0.19768 0.0
C1703 C 0.8706 0.38885 0.19747 0.0
C1704 C 0.91143 0.40981 0.18098 0.0
C1705 C 0.94003 0.42776 0.17991 0.0
C1706 C 0.95134 0.45258 0.18696 0.0
C1707 C 0.97819 0.46957 0.18546 0.0
C1708 C 0.9939 0.46202 0.17681 0.0
C1709 C 0.98285 0.43741 0.1698 0.0
C1710 C 0.95603 0.42033 0.17128 0.0
C1711 C 0.82556 0.36881 0.12308 0.0
C1712 C 0.8318 0.35385 0.11208 0.0
C1713 C 0.8377 0.37788 0.14022 0.0
C1714 C 0.85635 0.37225 0.14667 0.0
C1715 C 0.86262 0.35735 0.13575 0.0
C1716 C 0.85036 0.3481 0.11868 0.0
C1717 C 0.87004 0.38264 0.16451 0.0
C1718 C 0.8973 0.39854 0.16469 0.0
C1719 C 0.85647 0.37777 0.1811 0.0
C1720 C 0.82771 0.36059 0.18183 0.0
C1721 C 0.81581 0.33563 0.17496 0.0
C1722 C 0.78868 0.31961 0.17557 0.0
C1723 C 0.77324 0.32828 0.18314 0.0
C1724 C 0.78493 0.35297 0.19016 0.0
C1725 C 0.81206 0.36907 0.18956 0.0
H1726 H 0.75224 0.31585 0.18361 0.0
H1727 H 0.01461 0.47526 0.17545 0.0
loop_
_geom_bond_atom_site_label_1
_geom_bond_atom_site_label_2
_geom_bond_distance
_geom_bond_site_symmetry_2
_ccdc_geom_bond_type
H0 O26 0.856 . S
H1 O29 0.854 . S
H2 C37 0.930 1_455 S
H3 C38 0.930 . S
H4 C40 0.930 . S
H5 C41 0.930 . S
H6 C43 0.931 . S
H7 C44 0.930 . S
H8 C46 0.930 . S
H9 C47 0.929 . S
H10 C49 0.930 . S
H11 C50 0.931 . S
H12 C52 0.930 . S
H13 C53 0.929 . S
H14 C55 0.931 . S
H15 C56 0.930 . S
H16 C58 0.930 . S
H17 C59 0.932 . S
H18 C61 0.930 . S
H19 C62 0.929 . S
H20 C64 0.931 . S
H21 C65 0.930 . S
H22 C67 0.929 . S
H23 C68 0.931 . S
H24 C70 0.930 . S
H25 C71 0.926 1_455 S
O26 H0 0.856 . S
O26 C72 1.300 . S
O27 C72 1.209 . S
O28 C73 1.199 . S
O29 H1 0.854 . S
O29 C73 1.297 . S
C30 C31 1.404 . S
C30 C35 1.397 . S
C30 C36 1.492 . S
C31 C30 1.404 . S
C31 C32 1.396 . S
C31 C42 1.492 . S
C32 C31 1.396 . S
C32 C33 1.397 . S
C32 C48 1.509 . S
C33 C32 1.397 . S
C33 C34 1.412 . S
C33 C54 1.485 . S
C34 C33 1.412 . S
C34 C35 1.388 . S
C34 C60 1.490 . S
C35 C30 1.397 . S
C35 C34 1.388 . S
C35 C66 1.519 1_455 S
C36 C30 1.492 . S
C36 C37 1.363 1_455 S
C36 C41 1.390 1_455 S
C37 H2 0.930 1_655 S
C37 C36 1.363 1_655 S
C37 C38 1.372 . S
C38 H3 0.930 . S
C38 C37 1.372 . S
C38 C39 1.383 . S
C39 C38 1.383 . S
C39 C40 1.395 . S
C40 H4 0.930 . S
C40 C39 1.395 . S
C40 C41 1.362 . S
C41 H5 0.930 . S
C41 C36 1.390 1_655 S
C41 C40 1.362 . S
C42 C31 1.492 . S
C42 C43 1.377 . S
C42 C47 1.397 . S
C43 H6 0.931 . S
C43 C42 1.377 . S
C43 C44 1.376 . S
C44 H7 0.930 . S
C44 C43 1.376 . S
C44 C45 1.376 . S
C45 C44 1.376 . S
C45 C46 1.378 . S
C45 C72 1.486 . S
C46 H8 0.930 . S
C46 C45 1.378 . S
C46 C47 1.376 . S
C47 H9 0.929 . S
C47 C42 1.397 . S
C47 C46 1.376 . S
C48 C32 1.509 . S
C48 C49 1.391 . S
C48 C53 1.386 . S
C49 H10 0.930 . S
C49 C48 1.391 . S
C49 C50 1.375 . S
C50 H11 0.931 . S
C50 C49 1.375 . S
C50 C51 1.375 . S
C51 C50 1.375 . S
C51 C52 1.361 . S
C52 H12 0.930 . S
C52 C51 1.361 . S
C52 C53 1.399 . S
C53 H13 0.929 . S
C53 C48 1.386 . S
C53 C52 1.399 . S
C54 C33 1.485 . S
C54 C55 1.394 . S
C54 C59 1.360 . S
C55 H14 0.931 . S
C55 C54 1.394 . S
C55 C56 1.372 . S
C56 H15 0.930 . S
C56 C55 1.372 . S
C56 C57 1.397 . S
C57 C56 1.397 . S
C57 C58 1.390 . S
C57 C73 1.476 . S
C58 H16 0.930 . S
C58 C57 1.390 . S
C58 C59 1.366 . S
C59 H17 0.932 . S
C59 C54 1.360 . S
C59 C58 1.366 . S
C60 C34 1.490 . S
C60 C61 1.380 . S
C60 C65 1.386 . S
C61 H18 0.930 . S
C61 C60 1.380 . S
C61 C62 1.381 . S
C62 H19 0.929 . S
C62 C61 1.381 . S
C62 C63 1.371 . S
C63 C62 1.371 . S
C63 C64 1.380 . S
C64 H20 0.931 . S
C64 C63 1.380 . S
C64 C65 1.387 . S
C65 H21 0.930 . S
C65 C60 1.386 . S
C65 C64 1.387 . S
C66 C35 1.519 1_655 S
C66 C67 1.377 . S
C66 C71 1.361 . S
C67 H22 0.929 . S
C67 C66 1.377 . S
C67 C68 1.386 . S
C68 H23 0.931 . S
C68 C67 1.386 . S
C68 C69 1.363 . S
C69 C68 1.363 . S
C69 C70 1.385 . S
C70 H24 0.930 . S
C70 C69 1.385 . S
C70 C71 1.396 . S
C71 H25 0.926 1_655 S
C71 C66 1.361 . S
C71 C70 1.396 . S
C72 O26 1.300 . S
C72 O27 1.209 . S
C72 C45 1.486 . S
C73 O28 1.199 . S
C73 O29 1.297 . S
C73 C57 1.476 . S
H74 O100 0.856 . S
H75 O103 0.854 . S
H76 C111 0.930 . S
H77 C112 0.930 . S
H78 C114 0.930 . S
H79 C115 0.930 . S
H80 C117 0.931 . S
H81 C118 0.930 . S
H82 C120 0.930 . S
H83 C121 0.929 . S
H84 C123 0.930 . S
H85 C124 0.931 . S
H86 C126 0.930 . S
H87 C127 0.929 . S
H88 C129 0.931 . S
H89 C130 0.930 . S
H90 C132 0.930 . S
H91 C133 0.932 . S
H92 C135 0.930 . S
H93 C136 0.929 . S
H94 C138 0.931 . S
H95 C139 0.930 . S
H96 C141 0.929 . S
H97 C142 0.931 . S
H98 C144 0.930 . S
H99 C145 0.929 1_545 S
O100 H74 0.856 . S
O100 C146 1.300 . S
O101 C146 1.209 . S
O102 C147 1.199 . S
O103 H75 0.854 . S
O103 C147 1.297 . S
C104 C105 1.404 . S
C104 C109 1.397 . S
C104 C110 1.492 . S
C105 C104 1.404 . S
C105 C106 1.396 . S
C105 C116 1.492 . S
C106 C105 1.396 . S
C106 C107 1.397 . S
C106 C122 1.509 . S
C107 C106 1.397 . S
C107 C108 1.412 . S
C107 C128 1.485 . S
C108 C107 1.412 . S
C108 C109 1.388 . S
C108 C134 1.490 . S
C109 C104 1.397 . S
C109 C108 1.388 . S
C109 C140 1.519 . S
C110 C104 1.492 . S
C110 C111 1.363 . S
C110 C115 1.390 1_545 S
C111 H76 0.930 . S
C111 C110 1.363 . S
C111 C112 1.372 1_545 S
C112 H77 0.930 . S
C112 C111 1.372 1_565 S
C112 C113 1.383 . S
C113 C112 1.383 . S
C113 C114 1.395 . S
C114 H78 0.930 . S
C114 C113 1.395 . S
C114 C115 1.362 . S
C115 H79 0.930 . S
C115 C110 1.390 1_565 S
C115 C114 1.362 . S
C116 C105 1.492 . S
C116 C117 1.377 . S
C116 C121 1.397 . S
C117 H80 0.931 . S
C117 C116 1.377 . S
C117 C118 1.376 . S
C118 H81 0.930 . S
C118 C117 1.376 . S
C118 C119 1.376 . S
C119 C118 1.376 . S
C119 C120 1.378 . S
C119 C146 1.486 . S
C120 H82 0.930 . S
C120 C119 1.378 . S
C120 C121 1.376 . S
C121 H83 0.929 . S
C121 C116 1.397 . S
C121 C120 1.376 . S
C122 C106 1.509 . S
C122 C123 1.391 . S
C122 C127 1.386 . S
C123 H84 0.930 . S
C123 C122 1.391 . S
C123 C124 1.375 . S
C124 H85 0.931 . S
C124 C123 1.375 . S
C124 C125 1.375 . S
C125 C124 1.375 . S
C125 C126 1.361 . S
C126 H86 0.930 . S
C126 C125 1.361 . S
C126 C127 1.399 . S
C127 H87 0.929 . S
C127 C122 1.386 . S
C127 C126 1.399 . S
C128 C107 1.485 . S
C128 C129 1.394 . S
C128 C133 1.360 . S
C129 H88 0.931 . S
C129 C128 1.394 . S
C129 C130 1.372 . S
C130 H89 0.930 . S
C130 C129 1.372 . S
C130 C131 1.397 . S
C131 C130 1.397 . S
C131 C132 1.390 . S
C131 C147 1.476 . S
C132 H90 0.930 . S
C132 C131 1.390 . S
C132 C133 1.366 . S
C133 H91 0.932 . S
C133 C128 1.360 . S
C133 C132 1.366 . S
C134 C108 1.490 . S
C134 C135 1.380 . S
C134 C139 1.386 . S
C135 H92 0.930 . S
C135 C134 1.380 . S
C135 C136 1.381 . S
C136 H93 0.929 . S
C136 C135 1.381 . S
C136 C137 1.371 . S
C137 C136 1.371 . S
C137 C138 1.380 . S
C138 H94 0.931 . S
C138 C137 1.380 . S
C138 C139 1.387 . S
C139 H95 0.930 . S
C139 C134 1.386 . S
C139 C138 1.387 . S
C140 C109 1.519 . S
C140 C141 1.377 1_545 S
C140 C145 1.361 1_545 S
C141 H96 0.929 . S
C141 C140 1.377 1_565 S
C141 C142 1.386 . S
C142 H97 0.931 . S
C142 C141 1.386 . S
C142 C143 1.363 . S
C143 C142 1.363 . S
C143 C144 1.385 . S
C144 H98 0.930 . S
C144 C143 1.385 . S
C144 C145 1.396 . S
C145 H99 0.929 1_565 S
C145 C140 1.361 1_565 S
C145 C144 1.396 . S
C146 O100 1.300 . S
C146 O101 1.209 . S
C146 C119 1.486 . S
C147 O102 1.199 . S
C147 O103 1.297 . S
C147 C131 1.476 . S
H148 O174 0.856 . S
H149 O177 0.854 . S
H150 C185 0.930 . S
H151 C186 0.930 . S
H152 C188 0.930 . S
H153 C189 0.930 . S
H154 C191 0.931 . S
H155 C192 0.930 . S
H156 C194 0.930 . S
H157 C195 0.929 . S
H158 C197 0.930 . S
H159 C198 0.931 . S
H160 C200 0.930 . S
H161 C201 0.929 . S
H162 C203 0.931 . S
H163 C204 0.930 . S
H164 C206 0.930 . S
H165 C207 0.932 . S
H166 C209 0.930 . S
H167 C210 0.929 . S
H168 C212 0.931 . S
H169 C213 0.930 . S
H170 C215 0.929 . S
H171 C216 0.931 . S
H172 C218 0.930 . S
H173 C219 0.929 . S
O174 H148 0.856 . S
O174 C220 1.300 . S
O175 C220 1.209 . S
O176 C221 1.199 . S
O177 H149 0.854 . S
O177 C221 1.297 . S
C178 C179 1.404 . S
C178 C183 1.397 . S
C178 C184 1.492 . S
C179 C178 1.404 . S
C179 C180 1.396 . S
C179 C190 1.492 . S
C180 C179 1.396 . S
C180 C181 1.397 . S
C180 C196 1.509 . S
C181 C180 1.397 . S
C181 C182 1.412 . S
C181 C202 1.485 . S
C182 C181 1.412 . S
C182 C183 1.388 . S
C182 C208 1.490 . S
C183 C178 1.397 . S
C183 C182 1.388 . S
C183 C214 1.519 . S
C184 C178 1.492 . S
C184 C185 1.363 . S
C184 C189 1.390 . S
C185 H150 0.930 . S
C185 C184 1.363 . S
C185 C186 1.372 . S
C186 H151 0.930 . S
C186 C185 1.372 . S
C186 C187 1.383 . S
C187 C186 1.383 . S
C187 C188 1.395 . S
C188 H152 0.930 . S
C188 C187 1.395 . S
C188 C189 1.362 . S
C189 H153 0.930 . S
C189 C184 1.390 . S
C189 C188 1.362 . S
C190 C179 1.492 . S
C190 C191 1.377 . S
C190 C195 1.397 . S
C191 H154 0.931 . S
C191 C190 1.377 . S
C191 C192 1.376 . S
C192 H155 0.930 . S
C192 C191 1.376 . S
C192 C193 1.376 . S
C193 C192 1.376 . S
C193 C194 1.378 . S
C193 C220 1.486 . S
C194 H156 0.930 . S
C194 C193 1.378 . S
C194 C195 1.376 . S
C195 H157 0.929 . S
C195 C190 1.397 . S
C195 C194 1.376 . S
C196 C180 1.509 . S
C196 C197 1.391 . S
C196 C201 1.386 . S
C197 H158 0.930 . S
C197 C196 1.391 . S
C197 C198 1.375 . S
C198 H159 0.931 . S
C198 C197 1.375 . S
C198 C199 1.375 . S
C199 C198 1.375 . S
C199 C200 1.361 . S
C200 H160 0.930 . S
C200 C199 1.361 . S
C200 C201 1.399 . S
C201 H161 0.929 . S
C201 C196 1.386 . S
C201 C200 1.399 . S
C202 C181 1.485 . S
C202 C203 1.394 . S
C202 C207 1.360 . S
C203 H162 0.931 . S
C203 C202 1.394 . S
C203 C204 1.372 . S
C204 H163 0.930 . S
C204 C203 1.372 . S
C204 C205 1.397 . S
C205 C204 1.397 . S
C205 C206 1.390 . S
C205 C221 1.476 . S
C206 H164 0.930 . S
C206 C205 1.390 . S
C206 C207 1.366 . S
C207 H165 0.932 . S
C207 C202 1.360 . S
C207 C206 1.366 . S
C208 C182 1.490 . S
C208 C209 1.380 . S
C208 C213 1.386 . S
C209 H166 0.930 . S
C209 C208 1.380 . S
C209 C210 1.381 . S
C210 H167 0.929 . S
C210 C209 1.381 . S
C210 C211 1.371 . S
C211 C210 1.371 . S
C211 C212 1.380 . S
C212 H168 0.931 . S
C212 C211 1.380 . S
C212 C213 1.387 . S
C213 H169 0.930 . S
C213 C208 1.386 . S
C213 C212 1.387 . S
C214 C183 1.519 . S
C214 C215 1.377 . S
C214 C219 1.361 . S
C215 H170 0.929 . S
C215 C214 1.377 . S
C215 C216 1.386 . S
C216 H171 0.931 . S
C216 C215 1.386 . S
C216 C217 1.363 . S
C217 C216 1.363 . S
C217 C218 1.385 . S
C218 H172 0.930 . S
C218 C217 1.385 . S
C218 C219 1.396 . S
C219 H173 0.929 . S
C219 C214 1.361 . S
C219 C218 1.396 . S
C220 O174 1.300 . S
C220 O175 1.209 . S
C220 C193 1.486 . S
C221 O176 1.199 . S
C221 O177 1.297 . S
C221 C205 1.476 . S
H222 O248 0.856 . S
H223 O251 0.854 . S
H224 C259 0.930 1_455 S
H225 C260 0.930 . S
H226 C262 0.930 . S
H227 C263 0.930 . S
H228 C265 0.931 . S
H229 C266 0.930 . S
H230 C268 0.930 . S
H231 C269 0.929 . S
H232 C271 0.930 . S
H233 C272 0.931 . S
H234 C274 0.930 . S
H235 C275 0.929 . S
H236 C277 0.931 . S
H237 C278 0.930 . S
H238 C280 0.930 . S
H239 C281 0.932 . S
H240 C283 0.930 . S
H241 C284 0.929 . S
H242 C286 0.931 . S
H243 C287 0.930 . S
H244 C289 0.929 . S
H245 C290 0.931 . S
H246 C292 0.930 . S
H247 C293 0.929 . S
O248 H222 0.856 . S
O248 C294 1.300 . S
O249 C294 1.209 . S
O250 C295 1.199 . S
O251 H223 0.854 . S
O251 C295 1.297 . S
C252 C253 1.404 . S
C252 C257 1.397 . S
C252 C258 1.492 . S
C253 C252 1.404 . S
C253 C254 1.396 . S
C253 C264 1.492 . S
C254 C253 1.396 . S
C254 C255 1.397 . S
C254 C270 1.509 . S
C255 C254 1.397 . S
C255 C256 1.412 . S
C255 C276 1.485 . S
C256 C255 1.412 . S
C256 C257 1.388 . S
C256 C282 1.490 . S
C257 C252 1.397 . S
C257 C256 1.388 . S
C257 C288 1.519 1_455 S
C258 C252 1.492 . S
C258 C259 1.363 1_455 S
C258 C263 1.390 1_455 S
C259 H224 0.930 1_655 S
C259 C258 1.363 1_655 S
C259 C260 1.372 . S
C260 H225 0.930 . S
C260 C259 1.372 . S
C260 C261 1.383 . S
C261 C260 1.383 . S
C261 C262 1.395 . S
C262 H226 0.930 . S
C262 C261 1.395 . S
C262 C263 1.362 . S
C263 H227 0.930 . S
C263 C258 1.390 1_655 S
C263 C262 1.362 . S
C264 C253 1.492 . S
C264 C265 1.377 . S
C264 C269 1.397 . S
C265 H228 0.931 . S
C265 C264 1.377 . S
C265 C266 1.376 . S
C266 H229 0.930 . S
C266 C265 1.376 . S
C266 C267 1.376 . S
C267 C266 1.376 . S
C267 C268 1.378 . S
C267 C294 1.486 . S
C268 H230 0.930 . S
C268 C267 1.378 . S
C268 C269 1.376 . S
C269 H231 0.929 . S
C269 C264 1.397 . S
C269 C268 1.376 . S
C270 C254 1.509 . S
C270 C271 1.391 . S
C270 C275 1.386 . S
C271 H232 0.930 . S
C271 C270 1.391 . S
C271 C272 1.375 . S
C272 H233 0.931 . S
C272 C271 1.375 . S
C272 C273 1.375 . S
C273 C272 1.375 . S
C273 C274 1.361 . S
C274 H234 0.930 . S
C274 C273 1.361 . S
C274 C275 1.399 . S
C275 H235 0.929 . S
C275 C270 1.386 . S
C275 C274 1.399 . S
C276 C255 1.485 . S
C276 C277 1.394 . S
C276 C281 1.360 . S
C277 H236 0.931 . S
C277 C276 1.394 . S
C277 C278 1.372 . S
C278 H237 0.930 . S
C278 C277 1.372 . S
C278 C279 1.397 . S
C279 C278 1.397 . S
C279 C280 1.390 . S
C279 C295 1.476 . S
C280 H238 0.930 . S
C280 C279 1.390 . S
C280 C281 1.366 . S
C281 H239 0.932 . S
C281 C276 1.360 . S
C281 C280 1.366 . S
C282 C256 1.490 . S
C282 C283 1.380 . S
C282 C287 1.386 . S
C283 H240 0.930 . S
C283 C282 1.380 . S
C283 C284 1.381 . S
C284 H241 0.929 . S
C284 C283 1.381 . S
C284 C285 1.371 . S
C285 C284 1.371 . S
C285 C286 1.380 . S
C286 H242 0.931 . S
C286 C285 1.380 . S
C286 C287 1.387 . S
C287 H243 0.930 . S
C287 C282 1.386 . S
C287 C286 1.387 . S
C288 C257 1.519 1_655 S
C288 C289 1.377 . S
C288 C293 1.361 . S
C289 H244 0.929 . S
C289 C288 1.377 . S
C289 C290 1.386 . S
C290 H245 0.931 . S
C290 C289 1.386 . S
C290 C291 1.363 . S
C291 C290 1.363 . S
C291 C292 1.385 . S
C292 H246 0.930 . S
C292 C291 1.385 . S
C292 C293 1.396 . S
C293 H247 0.929 . S
C293 C288 1.361 . S
C293 C292 1.396 . S
C294 O248 1.300 . S
C294 O249 1.209 . S
C294 C267 1.486 . S
C295 O250 1.199 . S
C295 O251 1.297 . S
C295 C279 1.476 . S
H296 O322 0.856 . S
H297 O325 0.854 . S
H298 C333 0.930 . S
H299 C334 0.930 . S
H300 C336 0.930 . S
H301 C337 0.930 . S
H302 C339 0.931 . S
H303 C340 0.930 . S
H304 C342 0.930 . S
H305 C343 0.929 . S
H306 C345 0.930 . S
H307 C346 0.931 . S
H308 C348 0.930 . S
H309 C349 0.929 . S
H310 C351 0.931 . S
H311 C352 0.930 . S
H312 C354 0.930 . S
H313 C355 0.932 . S
H314 C357 0.930 . S
H315 C358 0.929 . S
H316 C360 0.931 . S
H317 C361 0.930 . S
H318 C363 0.929 . S
H319 C364 0.931 . S
H320 C366 0.930 . S
H321 C367 0.929 . S
O322 H296 0.856 . S
O322 C368 1.300 . S
O323 C368 1.209 . S
O324 C369 1.199 . S
O325 H297 0.854 . S
O325 C369 1.297 . S
C326 C327 1.404 . S
C326 C331 1.397 . S
C326 C332 1.492 1_565 S
C327 C326 1.404 . S
C327 C328 1.396 . S
C327 C338 1.492 . S
C328 C327 1.396 . S
C328 C329 1.397 . S
C328 C344 1.509 . S
C329 C328 1.397 . S
C329 C330 1.412 1_556 S
C329 C350 1.485 1_556 S
C330 C329 1.412 1_554 S
C330 C331 1.388 1_554 S
C330 C356 1.490 . S
C331 C326 1.397 . S
C331 C330 1.388 1_556 S
C331 C362 1.544 1_565 S
C332 C326 1.492 1_545 S
C332 C333 1.363 . S
C332 C337 1.390 . S
C333 H298 0.930 . S
C333 C332 1.363 . S
C333 C334 1.372 . S
C334 H299 0.930 . S
C334 C333 1.372 . S
C334 C335 1.383 . S
C335 C334 1.383 . S
C335 C336 1.395 . S
C336 H300 0.930 . S
C336 C335 1.395 . S
C336 C337 1.362 . S
C337 H301 0.930 . S
C337 C332 1.390 . S
C337 C336 1.362 . S
C338 C327 1.492 . S
C338 C339 1.377 . S
C338 C343 1.397 . S
C339 H302 0.931 . S
C339 C338 1.377 . S
C339 C340 1.376 . S
C340 H303 0.930 . S
C340 C339 1.376 . S
C340 C341 1.376 . S
C341 C340 1.376 . S
C341 C342 1.378 . S
C341 C368 1.486 . S
C342 H304 0.930 . S
C342 C341 1.378 . S
C342 C343 1.376 . S
C343 H305 0.929 . S
C343 C338 1.397 . S
C343 C342 1.376 . S
C344 C328 1.509 . S
C344 C345 1.391 . S
C344 C349 1.386 . S
C345 H306 0.930 . S
C345 C344 1.391 . S
C345 C346 1.375 . S
C346 H307 0.931 . S
C346 C345 1.375 . S
C346 C347 1.375 . S
C347 C346 1.375 . S
C347 C348 1.361 . S
C348 H308 0.930 . S
C348 C347 1.361 . S
C348 C349 1.399 . S
C349 H309 0.929 . S
C349 C344 1.386 . S
C349 C348 1.399 . S
C350 C329 1.485 1_554 S
C350 C351 1.394 . S
C350 C355 1.360 . S
C351 H310 0.931 . S
C351 C350 1.394 . S
C351 C352 1.372 . S
C352 H311 0.930 . S
C352 C351 1.372 . S
C352 C353 1.397 . S
C353 C352 1.397 . S
C353 C354 1.390 . S
C353 C369 1.476 . S
C354 H312 0.930 . S
C354 C353 1.390 . S
C354 C355 1.366 . S
C355 H313 0.932 . S
C355 C350 1.360 . S
C355 C354 1.366 . S
C356 C330 1.490 . S
C356 C357 1.380 . S
C356 C361 1.386 . S
C357 H314 0.930 . S
C357 C356 1.380 . S
C357 C358 1.381 . S
C358 H315 0.929 . S
C358 C357 1.381 . S
C358 C359 1.371 . S
C359 C358 1.371 . S
C359 C360 1.380 . S
C360 H316 0.931 . S
C360 C359 1.380 . S
C360 C361 1.387 . S
C361 H317 0.930 . S
C361 C356 1.386 . S
C361 C360 1.387 . S
C362 C331 1.544 1_545 S
C362 C363 1.382 . S
C362 C367 1.335 1_556 S
C363 H318 0.929 . S
C363 C362 1.382 . S
C363 C364 1.386 1_556 S
C364 H319 0.931 . S
C364 C363 1.386 1_554 S
C364 C365 1.363 . S
C365 C364 1.363 . S
C365 C366 1.385 . S
C366 H320 0.930 . S
C366 C365 1.385 . S
C366 C367 1.396 . S
C367 H321 0.929 . S
C367 C362 1.335 1_554 S
C367 C366 1.396 . S
C368 O322 1.300 . S
C368 O323 1.209 . S
C368 C341 1.486 . S
C369 O324 1.199 . S
C369 O325 1.297 . S
C369 C353 1.476 . S
H370 O396 0.856 . S
H371 O399 0.854 . S
H372 C407 0.930 . S
H373 C408 0.930 . S
H374 C410 0.930 . S
H375 C411 0.930 . S
H376 C413 0.931 . S
H377 C414 0.930 . S
H378 C416 0.930 . S
H379 C417 0.929 . S
H380 C419 0.930 . S
H381 C420 0.931 . S
H382 C422 0.930 . S
H383 C423 0.929 . S
H384 C425 0.931 . S
H385 C426 0.930 . S
H386 C428 0.930 . S
H387 C429 0.932 . S
H388 C431 0.930 . S
H389 C432 0.929 . S
H390 C434 0.931 . S
H391 C435 0.930 . S
H392 C437 0.929 . S
H393 C438 0.931 . S
H394 C440 0.930 . S
H395 C441 0.929 . S
O396 H370 0.856 . S
O396 C442 1.300 . S
O397 C442 1.209 . S
O398 C443 1.199 . S
O399 H371 0.854 . S
O399 C443 1.297 . S
C400 C401 1.404 . S
C400 C405 1.397 . S
C400 C406 1.492 . S
C401 C400 1.404 . S
C401 C402 1.396 . S
C401 C412 1.492 . S
C402 C401 1.396 . S
C402 C403 1.397 . S
C402 C418 1.509 . S
C403 C402 1.397 . S
C403 C404 1.412 . S
C403 C424 1.485 . S
C404 C403 1.412 . S
C404 C405 1.388 . S
C404 C430 1.490 . S
C405 C400 1.397 . S
C405 C404 1.388 . S
C405 C436 1.519 . S
C406 C400 1.492 . S
C406 C407 1.363 . S
C406 C411 1.390 . S
C407 H372 0.930 . S
C407 C406 1.363 . S
C407 C408 1.372 . S
C408 H373 0.930 . S
C408 C407 1.372 . S
C408 C409 1.383 . S
C409 C408 1.383 . S
C409 C410 1.395 . S
C410 H374 0.930 . S
C410 C409 1.395 . S
C410 C411 1.362 . S
C411 H375 0.930 . S
C411 C406 1.390 . S
C411 C410 1.362 . S
C412 C401 1.492 . S
C412 C413 1.377 . S
C412 C417 1.397 . S
C413 H376 0.931 . S
C413 C412 1.377 . S
C413 C414 1.376 . S
C414 H377 0.930 . S
C414 C413 1.376 . S
C414 C415 1.376 . S
C415 C414 1.376 . S
C415 C416 1.378 . S
C415 C442 1.486 . S
C416 H378 0.930 . S
C416 C415 1.378 . S
C416 C417 1.376 . S
C417 H379 0.929 . S
C417 C412 1.397 . S
C417 C416 1.376 . S
C418 C402 1.509 . S
C418 C419 1.391 . S
C418 C423 1.386 . S
C419 H380 0.930 . S
C419 C418 1.391 . S
C419 C420 1.375 . S
C420 H381 0.931 . S
C420 C419 1.375 . S
C420 C421 1.375 . S
C421 C420 1.375 . S
C421 C422 1.361 . S
C422 H382 0.930 . S
C422 C421 1.361 . S
C422 C423 1.399 . S
C423 H383 0.929 . S
C423 C418 1.386 . S
C423 C422 1.399 . S
C424 C403 1.485 . S
C424 C425 1.394 . S
C424 C429 1.360 . S
C425 H384 0.931 . S
C425 C424 1.394 . S
C425 C426 1.372 . S
C426 H385 0.930 . S
C426 C425 1.372 . S
C426 C427 1.397 . S
C427 C426 1.397 . S
C427 C428 1.390 . S
C427 C443 1.476 . S
C428 H386 0.930 . S
C428 C427 1.390 . S
C428 C429 1.366 . S
C429 H387 0.932 . S
C429 C424 1.360 . S
C429 C428 1.366 . S
C430 C404 1.490 . S
C430 C431 1.380 . S
C430 C435 1.386 . S
C431 H388 0.930 . S
C431 C430 1.380 . S
C431 C432 1.381 . S
C432 H389 0.929 . S
C432 C431 1.381 . S
C432 C433 1.371 . S
C433 C432 1.371 . S
C433 C434 1.380 . S
C434 H390 0.931 . S
C434 C433 1.380 . S
C434 C435 1.387 . S
C435 H391 0.930 . S
C435 C430 1.386 . S
C435 C434 1.387 . S
C436 C405 1.519 . S
C436 C437 1.377 . S
C436 C441 1.361 . S
C437 H392 0.929 . S
C437 C436 1.377 . S
C437 C438 1.386 . S
C438 H393 0.931 . S
C438 C437 1.386 . S
C438 C439 1.363 . S
C439 C438 1.363 . S
C439 C440 1.385 . S
C440 H394 0.930 . S
C440 C439 1.385 . S
C440 C441 1.396 . S
C441 H395 0.929 . S
C441 C436 1.361 . S
C441 C440 1.396 . S
C442 O396 1.300 . S
C442 O397 1.209 . S
C442 C415 1.486 . S
C443 O398 1.199 . S
C443 O399 1.297 . S
C443 C427 1.476 . S
Mg444 O445 2.028 . S
Mg444 O451 1.986 . S
Mg444 O453 2.114 . S
Mg444 O454 2.251 . S
Mg444 O457 2.010 . S
O445 Mg444 2.028 . S
O445 C448 1.250 . S
O446 Mg447 2.028 . S
O446 C448 1.248 . S
Mg447 O446 2.028 . S
Mg447 O452 2.032 . S
Mg447 O454 2.079 . S
C448 O445 1.250 . S
C448 O446 1.248 . S
C449 O450 1.264 . S
C449 O457 1.249 . S
O450 C449 1.264 . S
O451 Mg444 1.986 . S
O451 C455 1.246 . S
O452 Mg447 2.032 . S
O452 C455 1.259 . S
O453 Mg444 2.114 . S
O453 C456 1.252 . S
O454 Mg444 2.251 . S
O454 Mg447 2.079 . S
O454 C456 1.273 . S
C455 O451 1.246 . S
C455 O452 1.259 . S
C456 O453 1.252 . S
C456 O454 1.273 . S
O457 Mg444 2.010 . S
O457 C449 1.249 . S
Mg458 O459 2.028 . S
Mg458 O465 1.986 . S
Mg458 O467 2.114 . S
Mg458 O468 2.251 . S
Mg458 O471 2.010 . S
O459 Mg458 2.028 . S
O459 C462 1.250 . S
O460 Mg461 2.028 . S
O460 C462 1.248 . S
Mg461 O460 2.028 . S
Mg461 O466 2.032 . S
Mg461 O468 2.079 . S
C462 O459 1.250 . S
C462 O460 1.248 . S
C463 O464 1.264 . S
C463 O471 1.249 . S
O464 C463 1.264 . S
O465 Mg458 1.986 . S
O465 C469 1.246 . S
O466 Mg461 2.032 . S
O466 C469 1.259 . S
O467 Mg458 2.114 . S
O467 C470 1.252 . S
O468 Mg458 2.251 . S
O468 Mg461 2.079 . S
O468 C470 1.273 . S
C469 O465 1.246 . S
C469 O466 1.259 . S
C470 O467 1.252 . S
C470 O468 1.273 . S
O471 Mg458 2.010 . S
O471 C463 1.249 . S
Mg472 O473 2.028 . S
Mg472 O479 1.986 . S
Mg472 O481 2.114 . S
Mg472 O482 2.251 . S
Mg472 O485 2.010 . S
O473 Mg472 2.028 . S
O473 C476 1.250 . S
O474 Mg475 2.028 . S
O474 C476 1.248 . S
Mg475 O474 2.028 . S
Mg475 O480 2.032 . S
Mg475 O482 2.079 . S
C476 O473 1.250 . S
C476 O474 1.248 . S
C477 O478 1.264 . S
C477 O485 1.249 . S
O478 C477 1.264 . S
O479 Mg472 1.986 . S
O479 C483 1.246 . S
O480 Mg475 2.032 . S
O480 C483 1.259 . S
O481 Mg472 2.114 . S
O481 C484 1.252 . S
O482 Mg472 2.251 . S
O482 Mg475 2.079 . S
O482 C484 1.273 . S
C483 O479 1.246 . S
C483 O480 1.259 . S
C484 O481 1.252 . S
C484 O482 1.273 . S
O485 Mg472 2.010 . S
O485 C477 1.249 . S
Mg486 O487 2.028 . S
Mg486 O493 1.986 . S
Mg486 O495 2.114 . S
Mg486 O496 2.251 . S
Mg486 O499 2.010 . S
O487 Mg486 2.028 . S
O487 C490 1.250 . S
O488 Mg489 2.028 . S
O488 C490 1.248 . S
Mg489 O488 2.028 . S
Mg489 O494 2.032 . S
Mg489 O496 2.079 . S
C490 O487 1.250 . S
C490 O488 1.248 . S
C491 O492 1.264 . S
C491 O499 1.249 . S
O492 C491 1.264 . S
O493 Mg486 1.986 . S
O493 C497 1.246 . S
O494 Mg489 2.032 . S
O494 C497 1.259 . S
O495 Mg486 2.114 . S
O495 C498 1.252 . S
O496 Mg486 2.251 . S
O496 Mg489 2.079 . S
O496 C498 1.273 . S
C497 O493 1.246 . S
C497 O494 1.259 . S
C498 O495 1.252 . S
C498 O496 1.273 . S
O499 Mg486 2.010 . S
O499 C491 1.249 . S
Mg500 O501 2.028 . S
Mg500 O507 1.986 . S
Mg500 O509 2.114 . S
Mg500 O510 2.251 . S
Mg500 O513 2.010 . S
O501 Mg500 2.028 . S
O501 C504 1.250 . S
O502 Mg503 2.028 . S
O502 C504 1.248 . S
Mg503 O502 2.028 . S
Mg503 O508 2.032 . S
Mg503 O510 2.079 . S
C504 O501 1.250 . S
C504 O502 1.248 . S
C505 O506 1.264 . S
C505 O513 1.249 . S
O506 C505 1.264 . S
O507 Mg500 1.986 . S
O507 C511 1.246 . S
O508 Mg503 2.032 . S
O508 C511 1.259 . S
O509 Mg500 2.114 . S
O509 C512 1.252 . S
O510 Mg500 2.251 . S
O510 Mg503 2.079 . S
O510 C512 1.273 . S
C511 O507 1.246 . S
C511 O508 1.259 . S
C512 O509 1.252 . S
C512 O510 1.273 . S
O513 Mg500 2.010 . S
O513 C505 1.249 . S
Mg514 O515 2.028 . S
Mg514 O521 1.986 . S
Mg514 O523 2.114 . S
Mg514 O524 2.251 . S
Mg514 O527 2.010 . S
O515 Mg514 2.028 . S
O515 C518 1.250 . S
O516 Mg517 2.028 . S
O516 C518 1.248 . S
Mg517 O516 2.028 . S
Mg517 O522 2.032 . S
Mg517 O524 2.079 . S
C518 O515 1.250 . S
C518 O516 1.248 . S
C519 O520 1.264 . S
C519 O527 1.249 . S
O520 C519 1.264 . S
O521 Mg514 1.986 . S
O521 C525 1.246 . S
O522 Mg517 2.032 . S
O522 C525 1.259 . S
O523 Mg514 2.114 . S
O523 C526 1.252 . S
O524 Mg514 2.251 . S
O524 Mg517 2.079 . S
O524 C526 1.273 . S
C525 O521 1.246 . S
C525 O522 1.259 . S
C526 O523 1.252 . S
C526 O524 1.273 . S
O527 Mg514 2.010 . S
O527 C519 1.249 . S
H528 C546 0.951 . S
H529 C548 0.951 . S
H530 C550 0.950 . S
H531 C551 0.950 . S
H532 C553 0.950 . S
H533 C556 0.950 . S
H534 C557 0.950 . S
H535 C559 0.950 . S
H536 C560 0.950 . S
H537 C561 0.951 . S
H538 C563 0.951 . S
H539 C565 0.950 . S
H540 C566 0.950 . S
H541 C568 0.950 . S
H542 C571 0.950 . S
H543 C572 0.950 . S
H544 C574 0.950 . S
H545 C575 0.950 . S
C546 H528 0.951 . S
C546 C547 1.366 . S
C546 C548 1.388 . S
C547 C546 1.366 . S
C547 C551 1.385 . S
C548 H529 0.951 . S
C548 C546 1.388 . S
C548 C549 1.366 . S
C549 C548 1.366 . S
C549 C550 1.414 . S
C549 C552 1.499 . S
C550 H530 0.950 . S
C550 C549 1.414 . S
C550 C551 1.374 . S
C551 H531 0.950 . S
C551 C547 1.385 . S
C551 C550 1.374 . S
C552 C549 1.499 . S
C552 C553 1.373 . S
C552 C554 1.389 . S
C553 H532 0.950 . S
C553 C552 1.373 . S
C553 C569 1.377 . S
C554 C552 1.389 . S
C554 C555 1.524 . S
C554 C568 1.377 . S
C555 C554 1.524 . S
C555 C556 1.397 . S
C555 C560 1.363 . S
C556 H533 0.950 . S
C556 C555 1.397 . S
C556 C557 1.334 . S
C557 H534 0.950 . S
C557 C556 1.334 . S
C557 C558 1.287 . S
C558 C557 1.287 . S
C558 C559 1.524 . S
C558 H577 0.913 . S
C559 H535 0.950 . S
C559 C558 1.524 . S
C559 C560 1.415 . S
C560 H536 0.950 . S
C560 C555 1.363 . S
C560 C559 1.415 . S
C561 H537 0.951 . S
C561 C562 1.366 . S
C561 C563 1.388 . S
C562 C561 1.366 . S
C562 C566 1.385 . S
C563 H538 0.951 . S
C563 C561 1.388 . S
C563 C564 1.366 . S
C564 C563 1.366 . S
C564 C565 1.414 . S
C564 C567 1.499 . S
C565 H539 0.950 . S
C565 C564 1.414 . S
C565 C566 1.374 . S
C566 H540 0.950 . S
C566 C562 1.385 . S
C566 C565 1.374 . S
C567 C564 1.499 . S
C567 C568 1.373 . S
C567 C569 1.389 . S
C568 H541 0.950 . S
C568 C554 1.377 . S
C568 C567 1.373 . S
C569 C553 1.377 . S
C569 C567 1.389 . S
C569 C570 1.524 . S
C570 C569 1.524 . S
C570 C571 1.397 . S
C570 C575 1.363 . S
C571 H542 0.950 . S
C571 C570 1.397 . S
C571 C572 1.334 . S
C572 H543 0.950 . S
C572 C571 1.334 . S
C572 C573 1.287 . S
C573 C572 1.287 . S
C573 C574 1.524 . S
C573 H576 0.999 . S
C574 H544 0.950 . S
C574 C573 1.524 . S
C574 C575 1.415 . S
C575 H545 0.950 . S
C575 C570 1.363 . S
C575 C574 1.415 . S
H576 C573 0.999 . S
H577 C558 0.913 . S
H578 C596 0.951 . S
H579 C598 0.951 . S
H580 C600 0.950 . S
H581 C601 0.950 . S
H582 C603 0.950 . S
H583 C606 0.950 . S
H584 C607 0.950 . S
H585 C609 0.950 . S
H586 C610 0.950 . S
H587 C611 0.951 . S
H588 C613 0.951 . S
H589 C615 0.950 . S
H590 C616 0.950 . S
H591 C618 0.950 . S
H592 C621 0.950 . S
H593 C622 0.950 . S
H594 C624 0.950 . S
H595 C625 0.950 . S
C596 H578 0.951 . S
C596 C597 1.366 . S
C596 C598 1.388 . S
C597 C596 1.366 . S
C597 C601 1.385 . S
C598 H579 0.951 . S
C598 C596 1.388 . S
C598 C599 1.366 . S
C599 C598 1.366 . S
C599 C600 1.414 . S
C599 C602 1.499 . S
C600 H580 0.950 . S
C600 C599 1.414 . S
C600 C601 1.374 . S
C601 H581 0.950 . S
C601 C597 1.385 . S
C601 C600 1.374 . S
C602 C599 1.499 . S
C602 C603 1.373 . S
C602 C604 1.389 . S
C603 H582 0.950 . S
C603 C602 1.373 . S
C603 C619 1.377 . S
C604 C602 1.389 . S
C604 C605 1.524 . S
C604 C618 1.377 . S
C605 C604 1.524 . S
C605 C606 1.397 . S
C605 C610 1.363 . S
C606 H583 0.950 . S
C606 C605 1.397 . S
C606 C607 1.334 . S
C607 H584 0.950 . S
C607 C606 1.334 . S
C607 C608 1.287 . S
C608 C607 1.287 . S
C608 C609 1.524 . S
C608 H627 0.913 . S
C609 H585 0.950 . S
C609 C608 1.524 . S
C609 C610 1.415 . S
C610 H586 0.950 . S
C610 C605 1.363 . S
C610 C609 1.415 . S
C611 H587 0.951 . S
C611 C612 1.366 . S
C611 C613 1.388 . S
C612 C611 1.366 . S
C612 C616 1.385 . S
C613 H588 0.951 . S
C613 C611 1.388 . S
C613 C614 1.366 . S
C614 C613 1.366 . S
C614 C615 1.414 . S
C614 C617 1.499 . S
C615 H589 0.950 . S
C615 C614 1.414 . S
C615 C616 1.374 . S
C616 H590 0.950 . S
C616 C612 1.385 . S
C616 C615 1.374 . S
C617 C614 1.499 . S
C617 C618 1.373 . S
C617 C619 1.389 . S
C618 H591 0.950 . S
C618 C604 1.377 . S
C618 C617 1.373 . S
C619 C603 1.377 . S
C619 C617 1.389 . S
C619 C620 1.524 . S
C620 C619 1.524 . S
C620 C621 1.397 . S
C620 C625 1.363 . S
C621 H592 0.950 . S
C621 C620 1.397 . S
C621 C622 1.334 . S
C622 H593 0.950 . S
C622 C621 1.334 . S
C622 C623 1.287 . S
C623 C622 1.287 . S
C623 C624 1.524 . S
C623 H626 0.999 . S
C624 H594 0.950 . S
C624 C623 1.524 . S
C624 C625 1.415 . S
C625 H595 0.950 . S
C625 C620 1.363 . S
C625 C624 1.415 . S
H626 C623 0.999 . S
H627 C608 0.913 . S
H628 C646 0.951 . S
H629 C648 0.951 . S
H630 C650 0.950 . S
H631 C651 0.950 . S
H632 C653 0.950 . S
H633 C656 0.950 . S
H634 C657 0.950 . S
H635 C659 0.950 . S
H636 C660 0.950 . S
H637 C661 0.951 . S
H638 C663 0.951 . S
H639 C665 0.950 . S
H640 C666 0.950 . S
H641 C668 0.950 . S
H642 C671 0.950 . S
H643 C672 0.950 . S
H644 C674 0.950 . S
H645 C675 0.950 . S
C646 H628 0.951 . S
C646 C647 1.366 . S
C646 C648 1.388 . S
C647 C646 1.366 . S
C647 C651 1.385 . S
C648 H629 0.951 . S
C648 C646 1.388 . S
C648 C649 1.366 . S
C649 C648 1.366 . S
C649 C650 1.414 . S
C649 C652 1.499 . S
C650 H630 0.950 . S
C650 C649 1.414 . S
C650 C651 1.374 . S
C651 H631 0.950 . S
C651 C647 1.385 . S
C651 C650 1.374 . S
C652 C649 1.499 . S
C652 C653 1.373 . S
C652 C654 1.389 . S
C653 H632 0.950 . S
C653 C652 1.373 . S
C653 C669 1.377 . S
C654 C652 1.389 . S
C654 C655 1.524 . S
C654 C668 1.377 . S
C655 C654 1.524 . S
C655 C656 1.397 . S
C655 C660 1.363 . S
C656 H633 0.950 . S
C656 C655 1.397 . S
C656 C657 1.334 . S
C657 H634 0.950 . S
C657 C656 1.334 . S
C657 C658 1.287 . S
C658 C657 1.287 . S
C658 C659 1.524 . S
C658 H677 0.913 . S
C659 H635 0.950 . S
C659 C658 1.524 . S
C659 C660 1.415 . S
C660 H636 0.950 . S
C660 C655 1.363 . S
C660 C659 1.415 . S
C661 H637 0.951 . S
C661 C662 1.366 . S
C661 C663 1.388 . S
C662 C661 1.366 . S
C662 C666 1.385 . S
C663 H638 0.951 . S
C663 C661 1.388 . S
C663 C664 1.366 . S
C664 C663 1.366 . S
C664 C665 1.414 . S
C664 C667 1.499 . S
C665 H639 0.950 . S
C665 C664 1.414 . S
C665 C666 1.374 . S
C666 H640 0.950 . S
C666 C662 1.385 . S
C666 C665 1.374 . S
C667 C664 1.499 . S
C667 C668 1.373 . S
C667 C669 1.389 . S
C668 H641 0.950 . S
C668 C654 1.377 . S
C668 C667 1.373 . S
C669 C653 1.377 . S
C669 C667 1.389 . S
C669 C670 1.524 . S
C670 C669 1.524 . S
C670 C671 1.397 . S
C670 C675 1.363 . S
C671 H642 0.950 . S
C671 C670 1.397 . S
C671 C672 1.334 . S
C672 H643 0.950 . S
C672 C671 1.334 . S
C672 C673 1.287 . S
C673 C672 1.287 . S
C673 C674 1.524 . S
C673 H676 0.999 . S
C674 H644 0.950 . S
C674 C673 1.524 . S
C674 C675 1.415 . S
C675 H645 0.950 . S
C675 C670 1.363 . S
C675 C674 1.415 . S
H676 C673 0.999 . S
H677 C658 0.913 . S
H678 C696 0.951 . S
H679 C698 0.951 . S
H680 C700 0.950 . S
H681 C701 0.950 . S
H682 C703 0.950 . S
H683 C706 0.950 . S
H684 C707 0.950 . S
H685 C709 0.950 . S
H686 C710 0.950 . S
H687 C711 0.951 . S
H688 C713 0.951 . S
H689 C715 0.950 . S
H690 C716 0.950 . S
H691 C718 0.950 . S
H692 C721 0.950 . S
H693 C722 0.950 . S
H694 C724 0.950 . S
H695 C725 0.950 . S
C696 H678 0.951 . S
C696 C697 1.366 . S
C696 C698 1.388 . S
C697 C696 1.366 . S
C697 C701 1.385 . S
C698 H679 0.951 . S
C698 C696 1.388 . S
C698 C699 1.366 . S
C699 C698 1.366 . S
C699 C700 1.414 . S
C699 C702 1.499 . S
C700 H680 0.950 . S
C700 C699 1.414 . S
C700 C701 1.374 . S
C701 H681 0.950 . S
C701 C697 1.385 . S
C701 C700 1.374 . S
C702 C699 1.499 . S
C702 C703 1.373 . S
C702 C704 1.389 . S
C703 H682 0.950 . S
C703 C702 1.373 . S
C703 C719 1.377 . S
C704 C702 1.389 . S
C704 C705 1.524 . S
C704 C718 1.377 . S
C705 C704 1.524 . S
C705 C706 1.397 . S
C705 C710 1.363 . S
C706 H683 0.950 . S
C706 C705 1.397 . S
C706 C707 1.334 . S
C707 H684 0.950 . S
C707 C706 1.334 . S
C707 C708 1.287 . S
C708 C707 1.287 . S
C708 C709 1.524 . S
C708 H727 0.913 . S
C709 H685 0.950 . S
C709 C708 1.524 . S
C709 C710 1.415 . S
C710 H686 0.950 . S
C710 C705 1.363 . S
C710 C709 1.415 . S
C711 H687 0.951 . S
C711 C712 1.366 . S
C711 C713 1.388 . S
C712 C711 1.366 . S
C712 C716 1.385 . S
C713 H688 0.951 . S
C713 C711 1.388 . S
C713 C714 1.366 . S
C714 C713 1.366 . S
C714 C715 1.414 . S
C714 C717 1.499 . S
C715 H689 0.950 . S
C715 C714 1.414 . S
C715 C716 1.374 . S
C716 H690 0.950 . S
C716 C712 1.385 . S
C716 C715 1.374 . S
C717 C714 1.499 . S
C717 C718 1.373 . S
C717 C719 1.389 . S
C718 H691 0.950 . S
C718 C704 1.377 . S
C718 C717 1.373 . S
C719 C703 1.377 . S
C719 C717 1.389 . S
C719 C720 1.524 . S
C720 C719 1.524 . S
C720 C721 1.397 . S
C720 C725 1.363 . S
C721 H692 0.950 . S
C721 C720 1.397 . S
C721 C722 1.334 . S
C722 H693 0.950 . S
C722 C721 1.334 . S
C722 C723 1.287 . S
C723 C722 1.287 . S
C723 C724 1.524 . S
C723 H726 0.999 . S
C724 H694 0.950 . S
C724 C723 1.524 . S
C724 C725 1.415 . S
C725 H695 0.950 . S
C725 C720 1.363 . S
C725 C724 1.415 . S
H726 C723 0.999 . S
H727 C708 0.913 . S
H728 C746 0.951 . S
H729 C748 0.951 . S
H730 C750 0.950 . S
H731 C751 0.950 . S
H732 C753 0.950 . S
H733 C756 0.950 . S
H734 C757 0.950 . S
H735 C759 0.950 . S
H736 C760 0.950 . S
H737 C761 0.951 . S
H738 C763 0.951 . S
H739 C765 0.950 . S
H740 C766 0.950 . S
H741 C768 0.950 . S
H742 C771 0.950 . S
H743 C772 0.950 . S
H744 C774 0.950 . S
H745 C775 0.950 . S
C746 H728 0.951 . S
C746 C747 1.366 . S
C746 C748 1.388 . S
C747 C746 1.366 . S
C747 C751 1.385 . S
C748 H729 0.951 . S
C748 C746 1.388 . S
C748 C749 1.366 . S
C749 C748 1.366 . S
C749 C750 1.414 . S
C749 C752 1.499 . S
C750 H730 0.950 . S
C750 C749 1.414 . S
C750 C751 1.374 . S
C751 H731 0.950 . S
C751 C747 1.385 . S
C751 C750 1.374 . S
C752 C749 1.499 . S
C752 C753 1.373 . S
C752 C754 1.389 . S
C753 H732 0.950 . S
C753 C752 1.373 . S
C753 C769 1.377 . S
C754 C752 1.389 . S
C754 C755 1.524 . S
C754 C768 1.377 . S
C755 C754 1.524 . S
C755 C756 1.397 . S
C755 C760 1.363 . S
C756 H733 0.950 . S
C756 C755 1.397 . S
C756 C757 1.334 . S
C757 H734 0.950 . S
C757 C756 1.334 . S
C757 C758 1.287 . S
C758 C757 1.287 . S
C758 C759 1.524 . S
C758 H777 0.913 . S
C759 H735 0.950 . S
C759 C758 1.524 . S
C759 C760 1.415 . S
C760 H736 0.950 . S
C760 C755 1.363 . S
C760 C759 1.415 . S
C761 H737 0.951 . S
C761 C762 1.366 . S
C761 C763 1.388 . S
C762 C761 1.366 . S
C762 C766 1.385 . S
C763 H738 0.951 . S
C763 C761 1.388 . S
C763 C764 1.366 . S
C764 C763 1.366 . S
C764 C765 1.414 . S
C764 C767 1.499 . S
C765 H739 0.950 . S
C765 C764 1.414 . S
C765 C766 1.374 . S
C766 H740 0.950 . S
C766 C762 1.385 . S
C766 C765 1.374 . S
C767 C764 1.499 . S
C767 C768 1.373 . S
C767 C769 1.389 . S
C768 H741 0.950 . S
C768 C754 1.377 . S
C768 C767 1.373 . S
C769 C753 1.377 . S
C769 C767 1.389 . S
C769 C770 1.524 . S
C770 C769 1.524 . S
C770 C771 1.397 . S
C770 C775 1.363 . S
C771 H742 0.950 . S
C771 C770 1.397 . S
C771 C772 1.334 . S
C772 H743 0.950 . S
C772 C771 1.334 . S
C772 C773 1.287 . S
C773 C772 1.287 . S
C773 C774 1.524 . S
C773 H776 0.999 . S
C774 H744 0.950 . S
C774 C773 1.524 . S
C774 C775 1.415 . S
C775 H745 0.950 . S
C775 C770 1.363 . S
C775 C774 1.415 . S
H776 C773 0.999 . S
H777 C758 0.913 . S
H778 C796 0.951 . S
H779 C798 0.951 . S
H780 C800 0.950 . S
H781 C801 0.950 . S
H782 C803 0.950 . S
H783 C806 0.950 . S
H784 C807 0.950 . S
H785 C809 0.950 . S
H786 C810 0.950 . S
H787 C811 0.951 . S
H788 C813 0.951 . S
H789 C815 0.950 . S
H790 C816 0.950 . S
H791 C818 0.950 . S
H792 C821 0.950 . S
H793 C822 0.950 . S
H794 C824 0.950 . S
H795 C825 0.950 . S
C796 H778 0.951 . S
C796 C797 1.366 . S
C796 C798 1.388 . S
C797 C796 1.366 . S
C797 C801 1.385 . S
C798 H779 0.951 . S
C798 C796 1.388 . S
C798 C799 1.366 . S
C799 C798 1.366 . S
C799 C800 1.414 . S
C799 C802 1.499 . S
C800 H780 0.950 . S
C800 C799 1.414 . S
C800 C801 1.374 . S
C801 H781 0.950 . S
C801 C797 1.385 . S
C801 C800 1.374 . S
C802 C799 1.499 . S
C802 C803 1.373 . S
C802 C804 1.389 . S
C803 H782 0.950 . S
C803 C802 1.373 . S
C803 C819 1.377 . S
C804 C802 1.389 . S
C804 C805 1.524 . S
C804 C818 1.377 . S
C805 C804 1.524 . S
C805 C806 1.397 . S
C805 C810 1.363 . S
C806 H783 0.950 . S
C806 C805 1.397 . S
C806 C807 1.334 . S
C807 H784 0.950 . S
C807 C806 1.334 . S
C807 C808 1.287 . S
C808 C807 1.287 . S
C808 C809 1.524 . S
C808 H827 0.913 . S
C809 H785 0.950 . S
C809 C808 1.524 . S
C809 C810 1.415 . S
C810 H786 0.950 . S
C810 C805 1.363 . S
C810 C809 1.415 . S
C811 H787 0.951 . S
C811 C812 1.366 . S
C811 C813 1.388 . S
C812 C811 1.366 . S
C812 C816 1.385 . S
C813 H788 0.951 . S
C813 C811 1.388 . S
C813 C814 1.366 . S
C814 C813 1.366 . S
C814 C815 1.414 . S
C814 C817 1.499 . S
C815 H789 0.950 . S
C815 C814 1.414 . S
C815 C816 1.374 . S
C816 H790 0.950 . S
C816 C812 1.385 . S
C816 C815 1.374 . S
C817 C814 1.499 . S
C817 C818 1.373 . S
C817 C819 1.389 . S
C818 H791 0.950 . S
C818 C804 1.377 . S
C818 C817 1.373 . S
C819 C803 1.377 . S
C819 C817 1.389 . S
C819 C820 1.524 . S
C820 C819 1.524 . S
C820 C821 1.397 . S
C820 C825 1.363 . S
C821 H792 0.950 . S
C821 C820 1.397 . S
C821 C822 1.334 . S
C822 H793 0.950 . S
C822 C821 1.334 . S
C822 C823 1.287 . S
C823 C822 1.287 . S
C823 C824 1.524 . S
C823 H826 0.999 . S
C824 H794 0.950 . S
C824 C823 1.524 . S
C824 C825 1.415 . S
C825 H795 0.950 . S
C825 C820 1.363 . S
C825 C824 1.415 . S
H826 C823 0.999 . S
H827 C808 0.913 . S
H828 C846 0.951 . S
H829 C848 0.951 . S
H830 C850 0.950 . S
H831 C851 0.950 . S
H832 C853 0.950 . S
H833 C856 0.950 . S
H834 C857 0.950 . S
H835 C859 0.950 . S
H836 C860 0.950 . S
H837 C861 0.951 . S
H838 C863 0.951 . S
H839 C865 0.950 . S
H840 C866 0.950 . S
H841 C868 0.950 . S
H842 C871 0.950 . S
H843 C872 0.950 . S
H844 C874 0.950 . S
H845 C875 0.950 . S
C846 H828 0.951 . S
C846 C847 1.366 . S
C846 C848 1.388 . S
C847 C846 1.366 . S
C847 C851 1.385 . S
C848 H829 0.951 . S
C848 C846 1.388 . S
C848 C849 1.366 . S
C849 C848 1.366 . S
C849 C850 1.414 . S
C849 C852 1.499 . S
C850 H830 0.950 . S
C850 C849 1.414 . S
C850 C851 1.374 . S
C851 H831 0.950 . S
C851 C847 1.385 . S
C851 C850 1.374 . S
C852 C849 1.499 . S
C852 C853 1.373 . S
C852 C854 1.389 . S
C853 H832 0.950 . S
C853 C852 1.373 . S
C853 C869 1.377 . S
C854 C852 1.389 . S
C854 C855 1.524 . S
C854 C868 1.377 . S
C855 C854 1.524 . S
C855 C856 1.397 . S
C855 C860 1.363 . S
C856 H833 0.950 . S
C856 C855 1.397 . S
C856 C857 1.334 . S
C857 H834 0.950 . S
C857 C856 1.334 . S
C857 C858 1.287 . S
C858 C857 1.287 . S
C858 C859 1.524 . S
C858 H877 0.913 . S
C859 H835 0.950 . S
C859 C858 1.524 . S
C859 C860 1.415 . S
C860 H836 0.950 . S
C860 C855 1.363 . S
C860 C859 1.415 . S
C861 H837 0.951 . S
C861 C862 1.366 . S
C861 C863 1.388 . S
C862 C861 1.366 . S
C862 C866 1.385 . S
C863 H838 0.951 . S
C863 C861 1.388 . S
C863 C864 1.366 . S
C864 C863 1.366 . S
C864 C865 1.414 . S
C864 C867 1.499 . S
C865 H839 0.950 . S
C865 C864 1.414 . S
C865 C866 1.374 . S
C866 H840 0.950 . S
C866 C862 1.385 . S
C866 C865 1.374 . S
C867 C864 1.499 . S
C867 C868 1.373 . S
C867 C869 1.389 . S
C868 H841 0.950 . S
C868 C854 1.377 . S
C868 C867 1.373 . S
C869 C853 1.377 . S
C869 C867 1.389 . S
C869 C870 1.524 . S
C870 C869 1.524 . S
C870 C871 1.397 . S
C870 C875 1.363 . S
C871 H842 0.950 . S
C871 C870 1.397 . S
C871 C872 1.334 . S
C872 H843 0.950 . S
C872 C871 1.334 . S
C872 C873 1.287 . S
C873 C872 1.287 . S
C873 C874 1.524 . S
C873 H876 0.999 . S
C874 H844 0.950 . S
C874 C873 1.524 . S
C874 C875 1.415 . S
C875 H845 0.950 . S
C875 C870 1.363 . S
C875 C874 1.415 . S
H876 C873 0.999 . S
H877 C858 0.913 . S
H878 C896 0.951 . S
H879 C898 0.951 . S
H880 C900 0.950 . S
H881 C901 0.950 . S
H882 C903 0.950 . S
H883 C906 0.950 . S
H884 C907 0.950 . S
H885 C909 0.950 . S
H886 C910 0.950 . S
H887 C911 0.951 . S
H888 C913 0.951 . S
H889 C915 0.950 . S
H890 C916 0.950 . S
H891 C918 0.950 . S
H892 C921 0.950 . S
H893 C922 0.950 . S
H894 C924 0.950 . S
H895 C925 0.950 . S
C896 H878 0.951 . S
C896 C897 1.366 . S
C896 C898 1.388 . S
C897 C896 1.366 . S
C897 C901 1.385 . S
C898 H879 0.951 . S
C898 C896 1.388 . S
C898 C899 1.366 . S
C899 C898 1.366 . S
C899 C900 1.414 . S
C899 C902 1.499 . S
C900 H880 0.950 . S
C900 C899 1.414 . S
C900 C901 1.374 . S
C901 H881 0.950 . S
C901 C897 1.385 . S
C901 C900 1.374 . S
C902 C899 1.499 . S
C902 C903 1.373 . S
C902 C904 1.389 . S
C903 H882 0.950 . S
C903 C902 1.373 . S
C903 C919 1.377 . S
C904 C902 1.389 . S
C904 C905 1.524 . S
C904 C918 1.377 . S
C905 C904 1.524 . S
C905 C906 1.397 . S
C905 C910 1.363 . S
C906 H883 0.950 . S
C906 C905 1.397 . S
C906 C907 1.334 . S
C907 H884 0.950 . S
C907 C906 1.334 . S
C907 C908 1.287 . S
C908 C907 1.287 . S
C908 C909 1.524 . S
C908 H927 0.913 . S
C909 H885 0.950 . S
C909 C908 1.524 . S
C909 C910 1.415 . S
C910 H886 0.950 . S
C910 C905 1.363 . S
C910 C909 1.415 . S
C911 H887 0.951 . S
C911 C912 1.366 . S
C911 C913 1.388 . S
C912 C911 1.366 . S
C912 C916 1.385 . S
C913 H888 0.951 . S
C913 C911 1.388 . S
C913 C914 1.366 . S
C914 C913 1.366 . S
C914 C915 1.414 . S
C914 C917 1.499 . S
C915 H889 0.950 . S
C915 C914 1.414 . S
C915 C916 1.374 . S
C916 H890 0.950 . S
C916 C912 1.385 . S
C916 C915 1.374 . S
C917 C914 1.499 . S
C917 C918 1.373 . S
C917 C919 1.389 . S
C918 H891 0.950 . S
C918 C904 1.377 . S
C918 C917 1.373 . S
C919 C903 1.377 . S
C919 C917 1.389 . S
C919 C920 1.524 . S
C920 C919 1.524 . S
C920 C921 1.397 . S
C920 C925 1.363 . S
C921 H892 0.950 . S
C921 C920 1.397 . S
C921 C922 1.334 . S
C922 H893 0.950 . S
C922 C921 1.334 . S
C922 C923 1.287 . S
C923 C922 1.287 . S
C923 C924 1.524 . S
C923 H926 0.999 . S
C924 H894 0.950 . S
C924 C923 1.524 . S
C924 C925 1.415 . S
C925 H895 0.950 . S
C925 C920 1.363 . S
C925 C924 1.415 . S
H926 C923 0.999 . S
H927 C908 0.913 . S
H928 C946 0.951 . S
H929 C948 0.951 . S
H930 C950 0.950 . S
H931 C951 0.950 . S
H932 C953 0.950 . S
H933 C956 0.950 . S
H934 C957 0.950 . S
H935 C959 0.950 . S
H936 C960 0.950 . S
H937 C961 0.951 . S
H938 C963 0.951 . S
H939 C965 0.950 . S
H940 C966 0.950 . S
H941 C968 0.950 . S
H942 C971 0.950 . S
H943 C972 0.950 . S
H944 C974 0.950 . S
H945 C975 0.950 . S
C946 H928 0.951 . S
C946 C947 1.366 . S
C946 C948 1.388 . S
C947 C946 1.366 . S
C947 C951 1.385 . S
C948 H929 0.951 . S
C948 C946 1.388 . S
C948 C949 1.366 . S
C949 C948 1.366 . S
C949 C950 1.414 . S
C949 C952 1.499 . S
C950 H930 0.950 . S
C950 C949 1.414 . S
C950 C951 1.374 . S
C951 H931 0.950 . S
C951 C947 1.385 . S
C951 C950 1.374 . S
C952 C949 1.499 . S
C952 C953 1.373 . S
C952 C954 1.389 . S
C953 H932 0.950 . S
C953 C952 1.373 . S
C953 C969 1.377 . S
C954 C952 1.389 . S
C954 C955 1.524 . S
C954 C968 1.377 . S
C955 C954 1.524 . S
C955 C956 1.397 . S
C955 C960 1.363 . S
C956 H933 0.950 . S
C956 C955 1.397 . S
C956 C957 1.334 . S
C957 H934 0.950 . S
C957 C956 1.334 . S
C957 C958 1.287 . S
C958 C957 1.287 . S
C958 C959 1.524 . S
C958 H977 0.913 . S
C959 H935 0.950 . S
C959 C958 1.524 . S
C959 C960 1.415 . S
C960 H936 0.950 . S
C960 C955 1.363 . S
C960 C959 1.415 . S
C961 H937 0.951 . S
C961 C962 1.366 . S
C961 C963 1.388 . S
C962 C961 1.366 . S
C962 C966 1.385 . S
C963 H938 0.951 . S
C963 C961 1.388 . S
C963 C964 1.366 . S
C964 C963 1.366 . S
C964 C965 1.414 . S
C964 C967 1.499 . S
C965 H939 0.950 . S
C965 C964 1.414 . S
C965 C966 1.374 . S
C966 H940 0.950 . S
C966 C962 1.385 . S
C966 C965 1.374 . S
C967 C964 1.499 . S
C967 C968 1.373 . S
C967 C969 1.389 . S
C968 H941 0.950 . S
C968 C954 1.377 . S
C968 C967 1.373 . S
C969 C953 1.377 . S
C969 C967 1.389 . S
C969 C970 1.524 . S
C970 C969 1.524 . S
C970 C971 1.397 . S
C970 C975 1.363 . S
C971 H942 0.950 . S
C971 C970 1.397 . S
C971 C972 1.334 . S
C972 H943 0.950 . S
C972 C971 1.334 . S
C972 C973 1.287 . S
C973 C972 1.287 . S
C973 C974 1.524 . S
C973 H976 0.999 . S
C974 H944 0.950 . S
C974 C973 1.524 . S
C974 C975 1.415 . S
C975 H945 0.950 . S
C975 C970 1.363 . S
C975 C974 1.415 . S
H976 C973 0.999 . S
H977 C958 0.913 . S
H978 C996 0.951 . S
H979 C998 0.951 . S
H980 C1000 0.950 . S
H981 C1001 0.950 1_556 S
H982 C1003 0.950 . S
H983 C1006 0.950 . S
H984 C1007 0.950 . S
H985 C1009 0.950 . S
H986 C1010 0.950 . S
H987 C1011 0.951 . S
H988 C1013 0.951 . S
H989 C1015 0.950 . S
H990 C1016 0.950 . S
H991 C1018 0.950 . S
H992 C1021 0.950 . S
H993 C1022 0.950 . S
H994 C1024 0.950 1_556 S
H995 C1025 0.950 . S
C996 H978 0.951 . S
C996 C997 1.366 . S
C996 C998 1.388 . S
C997 C996 1.366 . S
C997 C1001 1.385 . S
C998 H979 0.951 . S
C998 C996 1.388 . S
C998 C999 1.366 . S
C999 C998 1.366 . S
C999 C1000 1.414 . S
C999 C1002 1.499 . S
C1000 H980 0.950 . S
C1000 C999 1.414 . S
C1000 C1001 1.374 . S
C1001 H981 0.950 1_554 S
C1001 C997 1.385 . S
C1001 C1000 1.374 . S
C1002 C999 1.499 . S
C1002 C1003 1.373 . S
C1002 C1004 1.389 . S
C1003 H982 0.950 . S
C1003 C1002 1.373 . S
C1003 C1019 1.377 . S
C1004 C1002 1.389 . S
C1004 C1005 1.524 . S
C1004 C1018 1.377 . S
C1005 C1004 1.524 . S
C1005 C1006 1.397 . S
C1005 C1010 1.363 . S
C1006 H983 0.950 . S
C1006 C1005 1.397 . S
C1006 C1007 1.334 . S
C1007 H984 0.950 . S
C1007 C1006 1.334 . S
C1007 C1008 1.287 . S
C1008 C1007 1.287 . S
C1008 C1009 1.524 . S
C1008 H1027 0.913 . S
C1009 H985 0.950 . S
C1009 C1008 1.524 . S
C1009 C1010 1.415 . S
C1010 H986 0.950 . S
C1010 C1005 1.363 . S
C1010 C1009 1.415 . S
C1011 H987 0.951 . S
C1011 C1012 1.366 . S
C1011 C1013 1.388 . S
C1012 C1011 1.366 . S
C1012 C1016 1.385 . S
C1013 H988 0.951 . S
C1013 C1011 1.388 . S
C1013 C1014 1.366 . S
C1014 C1013 1.366 . S
C1014 C1015 1.414 . S
C1014 C1017 1.499 . S
C1015 H989 0.950 . S
C1015 C1014 1.414 . S
C1015 C1016 1.374 . S
C1016 H990 0.950 . S
C1016 C1012 1.385 . S
C1016 C1015 1.374 . S
C1017 C1014 1.499 . S
C1017 C1018 1.373 . S
C1017 C1019 1.389 . S
C1018 H991 0.950 . S
C1018 C1004 1.377 . S
C1018 C1017 1.373 . S
C1019 C1003 1.377 . S
C1019 C1017 1.389 . S
C1019 C1020 1.524 . S
C1020 C1019 1.524 . S
C1020 C1021 1.397 . S
C1020 C1025 1.363 . S
C1021 H992 0.950 . S
C1021 C1020 1.397 . S
C1021 C1022 1.334 . S
C1022 H993 0.950 . S
C1022 C1021 1.334 . S
C1022 C1023 1.287 . S
C1023 C1022 1.287 . S
C1023 C1024 1.524 . S
C1023 H1026 0.999 . S
C1024 H994 0.950 1_554 S
C1024 C1023 1.524 . S
C1024 C1025 1.415 . S
C1025 H995 0.950 . S
C1025 C1020 1.363 . S
C1025 C1024 1.415 . S
H1026 C1023 0.999 . S
H1027 C1008 0.913 . S
H1028 C1046 0.951 . S
H1029 C1048 0.951 . S
H1030 C1050 0.950 . S
H1031 C1051 0.950 . S
H1032 C1053 0.950 . S
H1033 C1056 0.950 . S
H1034 C1057 0.950 . S
H1035 C1059 0.950 . S
H1036 C1060 0.950 . S
H1037 C1061 0.951 . S
H1038 C1063 0.951 . S
H1039 C1065 0.950 . S
H1040 C1066 0.950 . S
H1041 C1068 0.950 . S
H1042 C1071 0.950 . S
H1043 C1072 0.950 . S
H1044 C1074 0.950 . S
H1045 C1075 0.950 . S
C1046 H1028 0.951 . S
C1046 C1047 1.366 . S
C1046 C1048 1.388 . S
C1047 C1046 1.366 . S
C1047 C1051 1.385 . S
C1048 H1029 0.951 . S
C1048 C1046 1.388 . S
C1048 C1049 1.366 . S
C1049 C1048 1.366 . S
C1049 C1050 1.414 . S
C1049 C1052 1.499 . S
C1050 H1030 0.950 . S
C1050 C1049 1.414 . S
C1050 C1051 1.374 . S
C1051 H1031 0.950 . S
C1051 C1047 1.385 . S
C1051 C1050 1.374 . S
C1052 C1049 1.499 . S
C1052 C1053 1.373 . S
C1052 C1054 1.389 . S
C1053 H1032 0.950 . S
C1053 C1052 1.373 . S
C1053 C1069 1.377 . S
C1054 C1052 1.389 . S
C1054 C1055 1.524 . S
C1054 C1068 1.377 . S
C1055 C1054 1.524 . S
C1055 C1056 1.397 . S
C1055 C1060 1.363 . S
C1056 H1033 0.950 . S
C1056 C1055 1.397 . S
C1056 C1057 1.334 . S
C1057 H1034 0.950 . S
C1057 C1056 1.334 . S
C1057 C1058 1.287 . S
C1058 C1057 1.287 . S
C1058 C1059 1.524 . S
C1058 H1077 0.913 . S
C1059 H1035 0.950 . S
C1059 C1058 1.524 . S
C1059 C1060 1.415 . S
C1060 H1036 0.950 . S
C1060 C1055 1.363 . S
C1060 C1059 1.415 . S
C1061 H1037 0.951 . S
C1061 C1062 1.366 . S
C1061 C1063 1.388 . S
C1062 C1061 1.366 . S
C1062 C1066 1.385 . S
C1063 H1038 0.951 . S
C1063 C1061 1.388 . S
C1063 C1064 1.366 . S
C1064 C1063 1.366 . S
C1064 C1065 1.414 . S
C1064 C1067 1.499 . S
C1065 H1039 0.950 . S
C1065 C1064 1.414 . S
C1065 C1066 1.374 . S
C1066 H1040 0.950 . S
C1066 C1062 1.385 . S
C1066 C1065 1.374 . S
C1067 C1064 1.499 . S
C1067 C1068 1.373 . S
C1067 C1069 1.389 . S
C1068 H1041 0.950 . S
C1068 C1054 1.377 . S
C1068 C1067 1.373 . S
C1069 C1053 1.377 . S
C1069 C1067 1.389 . S
C1069 C1070 1.524 . S
C1070 C1069 1.524 . S
C1070 C1071 1.397 . S
C1070 C1075 1.363 . S
C1071 H1042 0.950 . S
C1071 C1070 1.397 . S
C1071 C1072 1.334 . S
C1072 H1043 0.950 . S
C1072 C1071 1.334 . S
C1072 C1073 1.287 . S
C1073 C1072 1.287 . S
C1073 C1074 1.524 . S
C1073 H1076 0.999 . S
C1074 H1044 0.950 . S
C1074 C1073 1.524 . S
C1074 C1075 1.415 . S
C1075 H1045 0.950 . S
C1075 C1070 1.363 . S
C1075 C1074 1.415 . S
H1076 C1073 0.999 . S
H1077 C1058 0.913 . S
H1078 C1096 0.951 . S
H1079 C1098 0.951 . S
H1080 C1100 0.950 . S
H1081 C1101 0.950 . S
H1082 C1103 0.950 . S
H1083 C1106 0.950 . S
H1084 C1107 0.950 . S
H1085 C1109 0.950 . S
H1086 C1110 0.950 . S
H1087 C1111 0.951 . S
H1088 C1113 0.951 . S
H1089 C1115 0.950 . S
H1090 C1116 0.950 . S
H1091 C1118 0.950 . S
H1092 C1121 0.950 . S
H1093 C1122 0.950 . S
H1094 C1124 0.950 . S
H1095 C1125 0.950 . S
C1096 H1078 0.951 . S
C1096 C1097 1.366 . S
C1096 C1098 1.388 . S
C1097 C1096 1.366 . S
C1097 C1101 1.385 . S
C1098 H1079 0.951 . S
C1098 C1096 1.388 . S
C1098 C1099 1.366 . S
C1099 C1098 1.366 . S
C1099 C1100 1.414 . S
C1099 C1102 1.499 . S
C1100 H1080 0.950 . S
C1100 C1099 1.414 . S
C1100 C1101 1.374 . S
C1101 H1081 0.950 . S
C1101 C1097 1.385 . S
C1101 C1100 1.374 . S
C1102 C1099 1.499 . S
C1102 C1103 1.373 . S
C1102 C1104 1.389 . S
C1103 H1082 0.950 . S
C1103 C1102 1.373 . S
C1103 C1119 1.377 . S
C1104 C1102 1.389 . S
C1104 C1105 1.524 . S
C1104 C1118 1.377 . S
C1105 C1104 1.524 . S
C1105 C1106 1.397 . S
C1105 C1110 1.363 . S
C1106 H1083 0.950 . S
C1106 C1105 1.397 . S
C1106 C1107 1.334 . S
C1107 H1084 0.950 . S
C1107 C1106 1.334 . S
C1107 C1108 1.287 . S
C1108 C1107 1.287 . S
C1108 C1109 1.524 . S
C1108 H1127 0.913 . S
C1109 H1085 0.950 . S
C1109 C1108 1.524 . S
C1109 C1110 1.415 . S
C1110 H1086 0.950 . S
C1110 C1105 1.363 . S
C1110 C1109 1.415 . S
C1111 H1087 0.951 . S
C1111 C1112 1.366 . S
C1111 C1113 1.388 . S
C1112 C1111 1.366 . S
C1112 C1116 1.385 . S
C1113 H1088 0.951 . S
C1113 C1111 1.388 . S
C1113 C1114 1.366 . S
C1114 C1113 1.366 . S
C1114 C1115 1.414 . S
C1114 C1117 1.499 . S
C1115 H1089 0.950 . S
C1115 C1114 1.414 . S
C1115 C1116 1.374 . S
C1116 H1090 0.950 . S
C1116 C1112 1.385 . S
C1116 C1115 1.374 . S
C1117 C1114 1.499 . S
C1117 C1118 1.373 . S
C1117 C1119 1.389 . S
C1118 H1091 0.950 . S
C1118 C1104 1.377 . S
C1118 C1117 1.373 . S
C1119 C1103 1.377 . S
C1119 C1117 1.389 . S
C1119 C1120 1.524 . S
C1120 C1119 1.524 . S
C1120 C1121 1.397 . S
C1120 C1125 1.363 . S
C1121 H1092 0.950 . S
C1121 C1120 1.397 . S
C1121 C1122 1.334 . S
C1122 H1093 0.950 . S
C1122 C1121 1.334 . S
C1122 C1123 1.287 . S
C1123 C1122 1.287 . S
C1123 C1124 1.524 . S
C1123 H1126 0.999 . S
C1124 H1094 0.950 . S
C1124 C1123 1.524 . S
C1124 C1125 1.415 . S
C1125 H1095 0.950 . S
C1125 C1120 1.363 . S
C1125 C1124 1.415 . S
H1126 C1123 0.999 . S
H1127 C1108 0.913 . S
H1128 C1146 0.951 . S
H1129 C1148 0.951 . S
H1130 C1150 0.950 . S
H1131 C1151 0.950 . S
H1132 C1153 0.950 . S
H1133 C1156 0.950 . S
H1134 C1157 0.950 . S
H1135 C1159 0.950 . S
H1136 C1160 0.950 . S
H1137 C1161 0.951 . S
H1138 C1163 0.951 . S
H1139 C1165 0.950 . S
H1140 C1166 0.950 . S
H1141 C1168 0.950 . S
H1142 C1171 0.950 . S
H1143 C1172 0.950 . S
H1144 C1174 0.950 . S
H1145 C1175 0.950 . S
C1146 H1128 0.951 . S
C1146 C1147 1.366 . S
C1146 C1148 1.388 . S
C1147 C1146 1.366 . S
C1147 C1151 1.385 . S
C1148 H1129 0.951 . S
C1148 C1146 1.388 . S
C1148 C1149 1.366 . S
C1149 C1148 1.366 . S
C1149 C1150 1.414 . S
C1149 C1152 1.499 . S
C1150 H1130 0.950 . S
C1150 C1149 1.414 . S
C1150 C1151 1.374 . S
C1151 H1131 0.950 . S
C1151 C1147 1.385 . S
C1151 C1150 1.374 . S
C1152 C1149 1.499 . S
C1152 C1153 1.373 . S
C1152 C1154 1.389 . S
C1153 H1132 0.950 . S
C1153 C1152 1.373 . S
C1153 C1169 1.377 . S
C1154 C1152 1.389 . S
C1154 C1155 1.524 . S
C1154 C1168 1.377 . S
C1155 C1154 1.524 . S
C1155 C1156 1.397 . S
C1155 C1160 1.363 . S
C1156 H1133 0.950 . S
C1156 C1155 1.397 . S
C1156 C1157 1.334 . S
C1157 H1134 0.950 . S
C1157 C1156 1.334 . S
C1157 C1158 1.287 . S
C1158 C1157 1.287 . S
C1158 C1159 1.524 . S
C1158 H1177 0.913 . S
C1159 H1135 0.950 . S
C1159 C1158 1.524 . S
C1159 C1160 1.415 . S
C1160 H1136 0.950 . S
C1160 C1155 1.363 . S
C1160 C1159 1.415 . S
C1161 H1137 0.951 . S
C1161 C1162 1.366 . S
C1161 C1163 1.388 . S
C1162 C1161 1.366 . S
C1162 C1166 1.385 . S
C1163 H1138 0.951 . S
C1163 C1161 1.388 . S
C1163 C1164 1.366 . S
C1164 C1163 1.366 . S
C1164 C1165 1.414 . S
C1164 C1167 1.499 . S
C1165 H1139 0.950 . S
C1165 C1164 1.414 . S
C1165 C1166 1.374 . S
C1166 H1140 0.950 . S
C1166 C1162 1.385 . S
C1166 C1165 1.374 . S
C1167 C1164 1.499 . S
C1167 C1168 1.373 . S
C1167 C1169 1.389 . S
C1168 H1141 0.950 . S
C1168 C1154 1.377 . S
C1168 C1167 1.373 . S
C1169 C1153 1.377 . S
C1169 C1167 1.389 . S
C1169 C1170 1.524 . S
C1170 C1169 1.524 . S
C1170 C1171 1.397 . S
C1170 C1175 1.363 . S
C1171 H1142 0.950 . S
C1171 C1170 1.397 . S
C1171 C1172 1.334 . S
C1172 H1143 0.950 . S
C1172 C1171 1.334 . S
C1172 C1173 1.287 . S
C1173 C1172 1.287 . S
C1173 C1174 1.524 . S
C1173 H1176 0.999 . S
C1174 H1144 0.950 . S
C1174 C1173 1.524 . S
C1174 C1175 1.415 . S
C1175 H1145 0.950 . S
C1175 C1170 1.363 . S
C1175 C1174 1.415 . S
H1176 C1173 0.999 . S
H1177 C1158 0.913 . S
H1178 C1196 0.951 . S
H1179 C1198 0.951 . S
H1180 C1200 0.950 . S
H1181 C1201 0.950 . S
H1182 C1203 0.950 . S
H1183 C1206 0.950 . S
H1184 C1207 0.950 . S
H1185 C1209 0.950 . S
H1186 C1210 0.950 . S
H1187 C1211 0.951 . S
H1188 C1213 0.951 . S
H1189 C1215 0.950 . S
H1190 C1216 0.950 . S
H1191 C1218 0.950 . S
H1192 C1221 0.950 . S
H1193 C1222 0.950 . S
H1194 C1224 0.950 . S
H1195 C1225 0.950 . S
C1196 H1178 0.951 . S
C1196 C1197 1.366 . S
C1196 C1198 1.388 . S
C1197 C1196 1.366 . S
C1197 C1201 1.385 . S
C1198 H1179 0.951 . S
C1198 C1196 1.388 . S
C1198 C1199 1.366 . S
C1199 C1198 1.366 . S
C1199 C1200 1.414 . S
C1199 C1202 1.499 . S
C1200 H1180 0.950 . S
C1200 C1199 1.414 . S
C1200 C1201 1.374 . S
C1201 H1181 0.950 . S
C1201 C1197 1.385 . S
C1201 C1200 1.374 . S
C1202 C1199 1.499 . S
C1202 C1203 1.373 . S
C1202 C1204 1.389 . S
C1203 H1182 0.950 . S
C1203 C1202 1.373 . S
C1203 C1219 1.377 . S
C1204 C1202 1.389 . S
C1204 C1205 1.524 . S
C1204 C1218 1.377 . S
C1205 C1204 1.524 . S
C1205 C1206 1.397 . S
C1205 C1210 1.363 . S
C1206 H1183 0.950 . S
C1206 C1205 1.397 . S
C1206 C1207 1.334 . S
C1207 H1184 0.950 . S
C1207 C1206 1.334 . S
C1207 C1208 1.287 . S
C1208 C1207 1.287 . S
C1208 C1209 1.524 . S
C1208 H1227 0.913 . S
C1209 H1185 0.950 . S
C1209 C1208 1.524 . S
C1209 C1210 1.415 . S
C1210 H1186 0.950 . S
C1210 C1205 1.363 . S
C1210 C1209 1.415 . S
C1211 H1187 0.951 . S
C1211 C1212 1.366 . S
C1211 C1213 1.388 . S
C1212 C1211 1.366 . S
C1212 C1216 1.385 . S
C1213 H1188 0.951 . S
C1213 C1211 1.388 . S
C1213 C1214 1.366 . S
C1214 C1213 1.366 . S
C1214 C1215 1.414 . S
C1214 C1217 1.499 . S
C1215 H1189 0.950 . S
C1215 C1214 1.414 . S
C1215 C1216 1.374 . S
C1216 H1190 0.950 . S
C1216 C1212 1.385 . S
C1216 C1215 1.374 . S
C1217 C1214 1.499 . S
C1217 C1218 1.373 . S
C1217 C1219 1.389 . S
C1218 H1191 0.950 . S
C1218 C1204 1.377 . S
C1218 C1217 1.373 . S
C1219 C1203 1.377 . S
C1219 C1217 1.389 . S
C1219 C1220 1.524 . S
C1220 C1219 1.524 . S
C1220 C1221 1.397 . S
C1220 C1225 1.363 . S
C1221 H1192 0.950 . S
C1221 C1220 1.397 . S
C1221 C1222 1.334 . S
C1222 H1193 0.950 . S
C1222 C1221 1.334 . S
C1222 C1223 1.287 . S
C1223 C1222 1.287 . S
C1223 C1224 1.524 . S
C1223 H1226 0.999 . S
C1224 H1194 0.950 . S
C1224 C1223 1.524 . S
C1224 C1225 1.415 . S
C1225 H1195 0.950 . S
C1225 C1220 1.363 . S
C1225 C1224 1.415 . S
H1226 C1223 0.999 . S
H1227 C1208 0.913 . S
H1228 C1246 0.951 . S
H1229 C1248 0.951 . S
H1230 C1250 0.950 . S
H1231 C1251 0.950 . S
H1232 C1253 0.950 . S
H1233 C1256 0.950 . S
H1234 C1257 0.950 . S
H1235 C1259 0.950 . S
H1236 C1260 0.950 . S
H1237 C1261 0.951 . S
H1238 C1263 0.951 . S
H1239 C1265 0.950 . S
H1240 C1266 0.950 . S
H1241 C1268 0.950 . S
H1242 C1271 0.950 . S
H1243 C1272 0.950 . S
H1244 C1274 0.950 . S
H1245 C1275 0.950 . S
C1246 H1228 0.951 . S
C1246 C1247 1.366 . S
C1246 C1248 1.388 . S
C1247 C1246 1.366 . S
C1247 C1251 1.385 . S
C1248 H1229 0.951 . S
C1248 C1246 1.388 . S
C1248 C1249 1.366 . S
C1249 C1248 1.366 . S
C1249 C1250 1.414 . S
C1249 C1252 1.499 . S
C1250 H1230 0.950 . S
C1250 C1249 1.414 . S
C1250 C1251 1.374 . S
C1251 H1231 0.950 . S
C1251 C1247 1.385 . S
C1251 C1250 1.374 . S
C1252 C1249 1.499 . S
C1252 C1253 1.373 . S
C1252 C1254 1.389 . S
C1253 H1232 0.950 . S
C1253 C1252 1.373 . S
C1253 C1269 1.377 . S
C1254 C1252 1.389 . S
C1254 C1255 1.524 . S
C1254 C1268 1.377 . S
C1255 C1254 1.524 . S
C1255 C1256 1.397 . S
C1255 C1260 1.363 . S
C1256 H1233 0.950 . S
C1256 C1255 1.397 . S
C1256 C1257 1.334 . S
C1257 H1234 0.950 . S
C1257 C1256 1.334 . S
C1257 C1258 1.287 . S
C1258 C1257 1.287 . S
C1258 C1259 1.524 . S
C1258 H1277 0.913 . S
C1259 H1235 0.950 . S
C1259 C1258 1.524 . S
C1259 C1260 1.415 . S
C1260 H1236 0.950 . S
C1260 C1255 1.363 . S
C1260 C1259 1.415 . S
C1261 H1237 0.951 . S
C1261 C1262 1.366 . S
C1261 C1263 1.388 . S
C1262 C1261 1.366 . S
C1262 C1266 1.385 . S
C1263 H1238 0.951 . S
C1263 C1261 1.388 . S
C1263 C1264 1.366 . S
C1264 C1263 1.366 . S
C1264 C1265 1.414 . S
C1264 C1267 1.499 . S
C1265 H1239 0.950 . S
C1265 C1264 1.414 . S
C1265 C1266 1.374 . S
C1266 H1240 0.950 . S
C1266 C1262 1.385 . S
C1266 C1265 1.374 . S
C1267 C1264 1.499 . S
C1267 C1268 1.373 . S
C1267 C1269 1.389 . S
C1268 H1241 0.950 . S
C1268 C1254 1.377 . S
C1268 C1267 1.373 . S
C1269 C1253 1.377 . S
C1269 C1267 1.389 . S
C1269 C1270 1.524 . S
C1270 C1269 1.524 . S
C1270 C1271 1.397 . S
C1270 C1275 1.363 . S
C1271 H1242 0.950 . S
C1271 C1270 1.397 . S
C1271 C1272 1.334 . S
C1272 H1243 0.950 . S
C1272 C1271 1.334 . S
C1272 C1273 1.287 . S
C1273 C1272 1.287 . S
C1273 C1274 1.524 . S
C1273 H1276 0.999 . S
C1274 H1244 0.950 . S
C1274 C1273 1.524 . S
C1274 C1275 1.415 . S
C1275 H1245 0.950 . S
C1275 C1270 1.363 . S
C1275 C1274 1.415 . S
H1276 C1273 0.999 . S
H1277 C1258 0.913 . S
H1278 C1296 0.951 . S
H1279 C1298 0.951 . S
H1280 C1300 0.950 . S
H1281 C1301 0.950 . S
H1282 C1303 0.950 . S
H1283 C1306 0.950 . S
H1284 C1307 0.950 . S
H1285 C1309 0.950 . S
H1286 C1310 0.950 . S
H1287 C1311 0.951 . S
H1288 C1313 0.951 . S
H1289 C1315 0.950 . S
H1290 C1316 0.950 . S
H1291 C1318 0.950 . S
H1292 C1321 0.950 . S
H1293 C1322 0.950 . S
H1294 C1324 0.950 . S
H1295 C1325 0.950 . S
C1296 H1278 0.951 . S
C1296 C1297 1.366 . S
C1296 C1298 1.388 . S
C1297 C1296 1.366 . S
C1297 C1301 1.385 . S
C1298 H1279 0.951 . S
C1298 C1296 1.388 . S
C1298 C1299 1.366 . S
C1299 C1298 1.366 . S
C1299 C1300 1.414 . S
C1299 C1302 1.499 . S
C1300 H1280 0.950 . S
C1300 C1299 1.414 . S
C1300 C1301 1.374 . S
C1301 H1281 0.950 . S
C1301 C1297 1.385 . S
C1301 C1300 1.374 . S
C1302 C1299 1.499 . S
C1302 C1303 1.373 . S
C1302 C1304 1.389 . S
C1303 H1282 0.950 . S
C1303 C1302 1.373 . S
C1303 C1319 1.377 . S
C1304 C1302 1.389 . S
C1304 C1305 1.524 . S
C1304 C1318 1.377 . S
C1305 C1304 1.524 . S
C1305 C1306 1.397 . S
C1305 C1310 1.363 . S
C1306 H1283 0.950 . S
C1306 C1305 1.397 . S
C1306 C1307 1.334 . S
C1307 H1284 0.950 . S
C1307 C1306 1.334 . S
C1307 C1308 1.287 . S
C1308 C1307 1.287 . S
C1308 C1309 1.524 . S
C1308 H1327 0.921 . S
C1309 H1285 0.950 . S
C1309 C1308 1.524 . S
C1309 C1310 1.415 . S
C1310 H1286 0.950 . S
C1310 C1305 1.363 . S
C1310 C1309 1.415 . S
C1311 H1287 0.951 . S
C1311 C1312 1.366 . S
C1311 C1313 1.388 1_554 S
C1312 C1311 1.366 . S
C1312 C1316 1.385 . S
C1313 H1288 0.951 . S
C1313 C1311 1.388 1_556 S
C1313 C1314 1.366 . S
C1314 C1313 1.366 . S
C1314 C1315 1.414 1_556 S
C1314 C1317 1.499 . S
C1315 H1289 0.950 . S
C1315 C1314 1.414 1_554 S
C1315 C1316 1.374 . S
C1316 H1290 0.950 . S
C1316 C1312 1.385 . S
C1316 C1315 1.374 . S
C1317 C1314 1.499 . S
C1317 C1318 1.373 . S
C1317 C1319 1.389 . S
C1318 H1291 0.950 . S
C1318 C1304 1.377 . S
C1318 C1317 1.373 . S
C1319 C1303 1.377 . S
C1319 C1317 1.389 . S
C1319 C1320 1.524 . S
C1320 C1319 1.524 . S
C1320 C1321 1.397 . S
C1320 C1325 1.363 . S
C1321 H1292 0.950 . S
C1321 C1320 1.397 . S
C1321 C1322 1.334 . S
C1322 H1293 0.950 . S
C1322 C1321 1.334 . S
C1322 C1323 1.287 . S
C1323 C1322 1.287 . S
C1323 C1324 1.524 . S
C1323 H1326 0.999 . S
C1324 H1294 0.950 . S
C1324 C1323 1.524 . S
C1324 C1325 1.415 . S
C1325 H1295 0.950 . S
C1325 C1320 1.363 . S
C1325 C1324 1.415 . S
H1326 C1323 0.999 . S
H1327 C1308 0.921 . S
H1328 C1346 0.951 . S
H1329 C1348 0.951 . S
H1330 C1350 0.950 . S
H1331 C1351 0.950 1_545 S
H1332 C1353 0.950 . S
H1333 C1356 0.950 . S
H1334 C1357 0.950 . S
H1335 C1359 0.950 . S
H1336 C1360 0.950 . S
H1337 C1361 0.951 . S
H1338 C1363 0.951 . S
H1339 C1365 0.950 . S
H1340 C1366 0.950 . S
H1341 C1368 0.950 . S
H1342 C1371 0.950 . S
H1343 C1372 0.950 . S
H1344 C1374 0.950 . S
H1345 C1375 0.950 . S
C1346 H1328 0.951 . S
C1346 C1347 1.366 . S
C1346 C1348 1.388 . S
C1347 C1346 1.366 . S
C1347 C1351 1.385 . S
C1348 H1329 0.951 . S
C1348 C1346 1.388 . S
C1348 C1349 1.366 . S
C1349 C1348 1.366 . S
C1349 C1350 1.414 . S
C1349 C1352 1.499 . S
C1350 H1330 0.950 . S
C1350 C1349 1.414 . S
C1350 C1351 1.374 . S
C1351 H1331 0.950 1_565 S
C1351 C1347 1.385 . S
C1351 C1350 1.374 . S
C1352 C1349 1.499 . S
C1352 C1353 1.373 . S
C1352 C1354 1.389 . S
C1353 H1332 0.950 . S
C1353 C1352 1.373 . S
C1353 C1369 1.377 . S
C1354 C1352 1.389 . S
C1354 C1355 1.524 . S
C1354 C1368 1.377 . S
C1355 C1354 1.524 . S
C1355 C1356 1.397 . S
C1355 C1360 1.363 . S
C1356 H1333 0.950 . S
C1356 C1355 1.397 . S
C1356 C1357 1.334 . S
C1357 H1334 0.950 . S
C1357 C1356 1.334 . S
C1357 C1358 1.287 . S
C1358 C1357 1.287 . S
C1358 C1359 1.524 . S
C1358 H1377 0.913 . S
C1359 H1335 0.950 . S
C1359 C1358 1.524 . S
C1359 C1360 1.415 . S
C1360 H1336 0.950 . S
C1360 C1355 1.363 . S
C1360 C1359 1.415 . S
C1361 H1337 0.951 . S
C1361 C1362 1.366 . S
C1361 C1363 1.388 . S
C1362 C1361 1.366 . S
C1362 C1366 1.385 . S
C1363 H1338 0.951 . S
C1363 C1361 1.388 . S
C1363 C1364 1.366 . S
C1364 C1363 1.366 . S
C1364 C1365 1.414 . S
C1364 C1367 1.499 . S
C1365 H1339 0.950 . S
C1365 C1364 1.414 . S
C1365 C1366 1.374 . S
C1366 H1340 0.950 . S
C1366 C1362 1.385 . S
C1366 C1365 1.374 . S
C1367 C1364 1.499 . S
C1367 C1368 1.373 . S
C1367 C1369 1.389 . S
C1368 H1341 0.950 . S
C1368 C1354 1.377 . S
C1368 C1367 1.373 . S
C1369 C1353 1.377 . S
C1369 C1367 1.389 . S
C1369 C1370 1.524 . S
C1370 C1369 1.524 . S
C1370 C1371 1.397 . S
C1370 C1375 1.363 . S
C1371 H1342 0.950 . S
C1371 C1370 1.397 . S
C1371 C1372 1.334 . S
C1372 H1343 0.950 . S
C1372 C1371 1.334 . S
C1372 C1373 1.287 . S
C1373 C1372 1.287 . S
C1373 C1374 1.524 . S
C1373 H1376 0.999 . S
C1374 H1344 0.950 . S
C1374 C1373 1.524 . S
C1374 C1375 1.415 . S
C1375 H1345 0.950 . S
C1375 C1370 1.363 . S
C1375 C1374 1.415 . S
H1376 C1373 0.999 . S
H1377 C1358 0.913 . S
H1378 C1396 0.951 . S
H1379 C1398 0.951 . S
H1380 C1400 0.950 . S
H1381 C1401 0.950 . S
H1382 C1403 0.950 . S
H1383 C1406 0.950 . S
H1384 C1407 0.950 . S
H1385 C1409 0.950 . S
H1386 C1410 0.950 . S
H1387 C1411 0.951 . S
H1388 C1413 0.951 . S
H1389 C1415 0.950 . S
H1390 C1416 0.950 . S
H1391 C1418 0.950 . S
H1392 C1421 0.950 . S
H1393 C1422 0.950 . S
H1394 C1424 0.950 . S
H1395 C1425 0.950 . S
C1396 H1378 0.951 . S
C1396 C1397 1.366 . S
C1396 C1398 1.388 . S
C1397 C1396 1.366 . S
C1397 C1401 1.385 . S
C1398 H1379 0.951 . S
C1398 C1396 1.388 . S
C1398 C1399 1.366 . S
C1399 C1398 1.366 . S
C1399 C1400 1.414 . S
C1399 C1402 1.499 . S
C1400 H1380 0.950 . S
C1400 C1399 1.414 . S
C1400 C1401 1.374 . S
C1401 H1381 0.950 . S
C1401 C1397 1.385 . S
C1401 C1400 1.374 . S
C1402 C1399 1.499 . S
C1402 C1403 1.373 . S
C1402 C1404 1.389 . S
C1403 H1382 0.950 . S
C1403 C1402 1.373 . S
C1403 C1419 1.377 . S
C1404 C1402 1.389 . S
C1404 C1405 1.524 . S
C1404 C1418 1.377 . S
C1405 C1404 1.524 . S
C1405 C1406 1.397 . S
C1405 C1410 1.363 . S
C1406 H1383 0.950 . S
C1406 C1405 1.397 . S
C1406 C1407 1.334 . S
C1407 H1384 0.950 . S
C1407 C1406 1.334 . S
C1407 C1408 1.287 . S
C1408 C1407 1.287 . S
C1408 C1409 1.524 . S
C1408 H1427 0.913 . S
C1409 H1385 0.950 . S
C1409 C1408 1.524 . S
C1409 C1410 1.415 . S
C1410 H1386 0.950 . S
C1410 C1405 1.363 . S
C1410 C1409 1.415 . S
C1411 H1387 0.951 . S
C1411 C1412 1.366 . S
C1411 C1413 1.388 . S
C1412 C1411 1.366 . S
C1412 C1416 1.385 . S
C1413 H1388 0.951 . S
C1413 C1411 1.388 . S
C1413 C1414 1.366 . S
C1414 C1413 1.366 . S
C1414 C1415 1.414 . S
C1414 C1417 1.499 . S
C1415 H1389 0.950 . S
C1415 C1414 1.414 . S
C1415 C1416 1.374 . S
C1416 H1390 0.950 . S
C1416 C1412 1.385 . S
C1416 C1415 1.374 . S
C1417 C1414 1.499 . S
C1417 C1418 1.373 . S
C1417 C1419 1.389 . S
C1418 H1391 0.950 . S
C1418 C1404 1.377 . S
C1418 C1417 1.373 . S
C1419 C1403 1.377 . S
C1419 C1417 1.389 . S
C1419 C1420 1.524 . S
C1420 C1419 1.524 . S
C1420 C1421 1.397 . S
C1420 C1425 1.363 . S
C1421 H1392 0.950 . S
C1421 C1420 1.397 . S
C1421 C1422 1.334 . S
C1422 H1393 0.950 . S
C1422 C1421 1.334 . S
C1422 C1423 1.287 . S
C1423 C1422 1.287 . S
C1423 C1424 1.524 . S
C1423 H1426 0.999 . S
C1424 H1394 0.950 . S
C1424 C1423 1.524 . S
C1424 C1425 1.415 . S
C1425 H1395 0.950 . S
C1425 C1420 1.363 . S
C1425 C1424 1.415 . S
H1426 C1423 0.999 . S
H1427 C1408 0.913 . S
H1428 C1446 0.951 . S
H1429 C1448 0.951 . S
H1430 C1450 0.950 . S
H1431 C1451 0.950 . S
H1432 C1453 0.950 . S
H1433 C1456 0.950 . S
H1434 C1457 0.950 . S
H1435 C1459 0.950 . S
H1436 C1460 0.950 . S
H1437 C1461 0.951 . S
H1438 C1463 0.951 . S
H1439 C1465 0.950 . S
H1440 C1466 0.950 . S
H1441 C1468 0.950 . S
H1442 C1471 0.950 . S
H1443 C1472 0.950 . S
H1444 C1474 0.950 . S
H1445 C1475 0.950 . S
C1446 H1428 0.951 . S
C1446 C1447 1.366 . S
C1446 C1448 1.388 . S
C1447 C1446 1.366 . S
C1447 C1451 1.385 . S
C1448 H1429 0.951 . S
C1448 C1446 1.388 . S
C1448 C1449 1.366 . S
C1449 C1448 1.366 . S
C1449 C1450 1.414 . S
C1449 C1452 1.499 . S
C1450 H1430 0.950 . S
C1450 C1449 1.414 . S
C1450 C1451 1.374 . S
C1451 H1431 0.950 . S
C1451 C1447 1.385 . S
C1451 C1450 1.374 . S
C1452 C1449 1.499 . S
C1452 C1453 1.373 . S
C1452 C1454 1.389 . S
C1453 H1432 0.950 . S
C1453 C1452 1.373 . S
C1453 C1469 1.377 . S
C1454 C1452 1.389 . S
C1454 C1455 1.524 . S
C1454 C1468 1.377 . S
C1455 C1454 1.524 . S
C1455 C1456 1.397 . S
C1455 C1460 1.363 . S
C1456 H1433 0.950 . S
C1456 C1455 1.397 . S
C1456 C1457 1.334 . S
C1457 H1434 0.950 . S
C1457 C1456 1.334 . S
C1457 C1458 1.287 . S
C1458 C1457 1.287 . S
C1458 C1459 1.524 . S
C1458 H1477 0.913 . S
C1459 H1435 0.950 . S
C1459 C1458 1.524 . S
C1459 C1460 1.415 . S
C1460 H1436 0.950 . S
C1460 C1455 1.363 . S
C1460 C1459 1.415 . S
C1461 H1437 0.951 . S
C1461 C1462 1.366 . S
C1461 C1463 1.388 . S
C1462 C1461 1.366 . S
C1462 C1466 1.385 . S
C1463 H1438 0.951 . S
C1463 C1461 1.388 . S
C1463 C1464 1.366 . S
C1464 C1463 1.366 . S
C1464 C1465 1.414 . S
C1464 C1467 1.499 . S
C1465 H1439 0.950 . S
C1465 C1464 1.414 . S
C1465 C1466 1.374 . S
C1466 H1440 0.950 . S
C1466 C1462 1.385 . S
C1466 C1465 1.374 . S
C1467 C1464 1.499 . S
C1467 C1468 1.373 . S
C1467 C1469 1.389 . S
C1468 H1441 0.950 . S
C1468 C1454 1.377 . S
C1468 C1467 1.373 . S
C1469 C1453 1.377 . S
C1469 C1467 1.389 . S
C1469 C1470 1.524 . S
C1470 C1469 1.524 . S
C1470 C1471 1.397 . S
C1470 C1475 1.363 . S
C1471 H1442 0.950 . S
C1471 C1470 1.397 . S
C1471 C1472 1.334 . S
C1472 H1443 0.950 . S
C1472 C1471 1.334 . S
C1472 C1473 1.287 . S
C1473 C1472 1.287 . S
C1473 C1474 1.524 . S
C1473 H1476 0.999 . S
C1474 H1444 0.950 . S
C1474 C1473 1.524 . S
C1474 C1475 1.415 . S
C1475 H1445 0.950 . S
C1475 C1470 1.363 . S
C1475 C1474 1.415 . S
H1476 C1473 0.999 . S
H1477 C1458 0.913 . S
H1478 C1496 0.951 . S
H1479 C1498 0.951 . S
H1480 C1500 0.950 . S
H1481 C1501 0.950 . S
H1482 C1503 0.950 . S
H1483 C1506 0.950 . S
H1484 C1507 0.950 . S
H1485 C1509 0.950 . S
H1486 C1510 0.950 . S
H1487 C1511 0.951 . S
H1488 C1513 0.951 . S
H1489 C1515 0.950 . S
H1490 C1516 0.950 . S
H1491 C1518 0.950 . S
H1492 C1521 0.950 . S
H1493 C1522 0.950 . S
H1494 C1524 0.950 . S
H1495 C1525 0.950 . S
C1496 H1478 0.951 . S
C1496 C1497 1.366 . S
C1496 C1498 1.388 . S
C1497 C1496 1.366 . S
C1497 C1501 1.385 . S
C1498 H1479 0.951 . S
C1498 C1496 1.388 . S
C1498 C1499 1.366 . S
C1499 C1498 1.366 . S
C1499 C1500 1.414 . S
C1499 C1502 1.499 . S
C1500 H1480 0.950 . S
C1500 C1499 1.414 . S
C1500 C1501 1.374 . S
C1501 H1481 0.950 . S
C1501 C1497 1.385 . S
C1501 C1500 1.374 . S
C1502 C1499 1.499 . S
C1502 C1503 1.373 . S
C1502 C1504 1.389 . S
C1503 H1482 0.950 . S
C1503 C1502 1.373 . S
C1503 C1519 1.377 . S
C1504 C1502 1.389 . S
C1504 C1505 1.524 . S
C1504 C1518 1.377 . S
C1505 C1504 1.524 . S
C1505 C1506 1.397 . S
C1505 C1510 1.363 . S
C1506 H1483 0.950 . S
C1506 C1505 1.397 . S
C1506 C1507 1.334 . S
C1507 H1484 0.950 . S
C1507 C1506 1.334 . S
C1507 C1508 1.287 . S
C1508 C1507 1.287 . S
C1508 C1509 1.524 . S
C1508 H1527 0.913 . S
C1509 H1485 0.950 . S
C1509 C1508 1.524 . S
C1509 C1510 1.415 . S
C1510 H1486 0.950 . S
C1510 C1505 1.363 . S
C1510 C1509 1.415 . S
C1511 H1487 0.951 . S
C1511 C1512 1.366 . S
C1511 C1513 1.388 . S
C1512 C1511 1.366 . S
C1512 C1516 1.385 . S
C1513 H1488 0.951 . S
C1513 C1511 1.388 . S
C1513 C1514 1.366 . S
C1514 C1513 1.366 . S
C1514 C1515 1.414 . S
C1514 C1517 1.499 . S
C1515 H1489 0.950 . S
C1515 C1514 1.414 . S
C1515 C1516 1.374 . S
C1516 H1490 0.950 . S
C1516 C1512 1.385 . S
C1516 C1515 1.374 . S
C1517 C1514 1.499 . S
C1517 C1518 1.373 . S
C1517 C1519 1.389 . S
C1518 H1491 0.950 . S
C1518 C1504 1.377 . S
C1518 C1517 1.373 . S
C1519 C1503 1.377 . S
C1519 C1517 1.389 . S
C1519 C1520 1.524 . S
C1520 C1519 1.524 . S
C1520 C1521 1.397 . S
C1520 C1525 1.363 . S
C1521 H1492 0.950 . S
C1521 C1520 1.397 . S
C1521 C1522 1.334 . S
C1522 H1493 0.950 . S
C1522 C1521 1.334 . S
C1522 C1523 1.287 . S
C1523 C1522 1.287 . S
C1523 C1524 1.524 . S
C1523 H1526 0.999 . S
C1524 H1494 0.950 . S
C1524 C1523 1.524 . S
C1524 C1525 1.415 . S
C1525 H1495 0.950 . S
C1525 C1520 1.363 . S
C1525 C1524 1.415 . S
H1526 C1523 0.999 . S
H1527 C1508 0.913 . S
H1528 C1546 0.951 . S
H1529 C1548 0.951 . S
H1530 C1550 0.950 . S
H1531 C1551 0.950 . S
H1532 C1553 0.950 . S
H1533 C1556 0.950 . S
H1534 C1557 0.950 . S
H1535 C1559 0.950 . S
H1536 C1560 0.950 . S
H1537 C1561 0.951 . S
H1538 C1563 0.951 . S
H1539 C1565 0.950 . S
H1540 C1566 0.950 . S
H1541 C1568 0.950 . S
H1542 C1571 0.950 . S
H1543 C1572 0.950 . S
H1544 C1574 0.950 . S
H1545 C1575 0.950 . S
C1546 H1528 0.951 . S
C1546 C1547 1.366 . S
C1546 C1548 1.388 . S
C1547 C1546 1.366 . S
C1547 C1551 1.385 . S
C1548 H1529 0.951 . S
C1548 C1546 1.388 . S
C1548 C1549 1.366 . S
C1549 C1548 1.366 . S
C1549 C1550 1.414 . S
C1549 C1552 1.499 . S
C1550 H1530 0.950 . S
C1550 C1549 1.414 . S
C1550 C1551 1.374 . S
C1551 H1531 0.950 . S
C1551 C1547 1.385 . S
C1551 C1550 1.374 . S
C1552 C1549 1.499 . S
C1552 C1553 1.373 . S
C1552 C1554 1.389 . S
C1553 H1532 0.950 . S
C1553 C1552 1.373 . S
C1553 C1569 1.377 . S
C1554 C1552 1.389 . S
C1554 C1555 1.524 . S
C1554 C1568 1.377 . S
C1555 C1554 1.524 . S
C1555 C1556 1.397 . S
C1555 C1560 1.363 . S
C1556 H1533 0.950 . S
C1556 C1555 1.397 . S
C1556 C1557 1.334 . S
C1557 H1534 0.950 . S
C1557 C1556 1.334 . S
C1557 C1558 1.287 . S
C1558 C1557 1.287 . S
C1558 C1559 1.524 . S
C1558 H1577 0.913 . S
C1559 H1535 0.950 . S
C1559 C1558 1.524 . S
C1559 C1560 1.415 . S
C1560 H1536 0.950 . S
C1560 C1555 1.363 . S
C1560 C1559 1.415 . S
C1561 H1537 0.951 . S
C1561 C1562 1.366 . S
C1561 C1563 1.388 . S
C1562 C1561 1.366 . S
C1562 C1566 1.385 . S
C1563 H1538 0.951 . S
C1563 C1561 1.388 . S
C1563 C1564 1.366 . S
C1564 C1563 1.366 . S
C1564 C1565 1.414 . S
C1564 C1567 1.499 . S
C1565 H1539 0.950 . S
C1565 C1564 1.414 . S
C1565 C1566 1.374 . S
C1566 H1540 0.950 . S
C1566 C1562 1.385 . S
C1566 C1565 1.374 . S
C1567 C1564 1.499 . S
C1567 C1568 1.373 . S
C1567 C1569 1.389 . S
C1568 H1541 0.950 . S
C1568 C1554 1.377 . S
C1568 C1567 1.373 . S
C1569 C1553 1.377 . S
C1569 C1567 1.389 . S
C1569 C1570 1.524 . S
C1570 C1569 1.524 . S
C1570 C1571 1.397 . S
C1570 C1575 1.363 . S
C1571 H1542 0.950 . S
C1571 C1570 1.397 . S
C1571 C1572 1.334 . S
C1572 H1543 0.950 . S
C1572 C1571 1.334 . S
C1572 C1573 1.287 . S
C1573 C1572 1.287 . S
C1573 C1574 1.524 . S
C1573 H1576 0.999 . S
C1574 H1544 0.950 . S
C1574 C1573 1.524 . S
C1574 C1575 1.415 . S
C1575 H1545 0.950 . S
C1575 C1570 1.363 . S
C1575 C1574 1.415 . S
H1576 C1573 0.999 . S
H1577 C1558 0.913 . S
H1578 C1596 0.951 . S
H1579 C1598 0.951 . S
H1580 C1600 0.950 . S
H1581 C1601 0.950 . S
H1582 C1603 0.950 . S
H1583 C1606 0.950 . S
H1584 C1607 0.950 . S
H1585 C1609 0.950 . S
H1586 C1610 0.950 . S
H1587 C1611 0.951 . S
H1588 C1613 0.951 . S
H1589 C1615 0.950 . S
H1590 C1616 0.950 . S
H1591 C1618 0.950 . S
H1592 C1621 0.950 . S
H1593 C1622 0.950 . S
H1594 C1624 0.950 . S
H1595 C1625 0.950 . S
C1596 H1578 0.951 . S
C1596 C1597 1.366 . S
C1596 C1598 1.388 . S
C1597 C1596 1.366 . S
C1597 C1601 1.385 . S
C1598 H1579 0.951 . S
C1598 C1596 1.388 . S
C1598 C1599 1.366 . S
C1599 C1598 1.366 . S
C1599 C1600 1.414 . S
C1599 C1602 1.499 . S
C1600 H1580 0.950 . S
C1600 C1599 1.414 . S
C1600 C1601 1.374 . S
C1601 H1581 0.950 . S
C1601 C1597 1.385 . S
C1601 C1600 1.374 . S
C1602 C1599 1.499 . S
C1602 C1603 1.373 . S
C1602 C1604 1.389 . S
C1603 H1582 0.950 . S
C1603 C1602 1.373 . S
C1603 C1619 1.377 . S
C1604 C1602 1.389 . S
C1604 C1605 1.524 . S
C1604 C1618 1.377 . S
C1605 C1604 1.524 . S
C1605 C1606 1.397 . S
C1605 C1610 1.363 . S
C1606 H1583 0.950 . S
C1606 C1605 1.397 . S
C1606 C1607 1.334 . S
C1607 H1584 0.950 . S
C1607 C1606 1.334 . S
C1607 C1608 1.287 . S
C1608 C1607 1.287 . S
C1608 C1609 1.524 . S
C1608 H1627 0.913 . S
C1609 H1585 0.950 . S
C1609 C1608 1.524 . S
C1609 C1610 1.415 . S
C1610 H1586 0.950 . S
C1610 C1605 1.363 . S
C1610 C1609 1.415 . S
C1611 H1587 0.951 . S
C1611 C1612 1.366 . S
C1611 C1613 1.388 . S
C1612 C1611 1.366 . S
C1612 C1616 1.385 . S
C1613 H1588 0.951 . S
C1613 C1611 1.388 . S
C1613 C1614 1.366 . S
C1614 C1613 1.366 . S
C1614 C1615 1.414 . S
C1614 C1617 1.499 . S
C1615 H1589 0.950 . S
C1615 C1614 1.414 . S
C1615 C1616 1.374 . S
C1616 H1590 0.950 . S
C1616 C1612 1.385 . S
C1616 C1615 1.374 . S
C1617 C1614 1.499 . S
C1617 C1618 1.373 . S
C1617 C1619 1.389 . S
C1618 H1591 0.950 . S
C1618 C1604 1.377 . S
C1618 C1617 1.373 . S
C1619 C1603 1.377 . S
C1619 C1617 1.389 . S
C1619 C1620 1.524 . S
C1620 C1619 1.524 . S
C1620 C1621 1.397 . S
C1620 C1625 1.363 . S
C1621 H1592 0.950 . S
C1621 C1620 1.397 . S
C1621 C1622 1.334 . S
C1622 H1593 0.950 . S
C1622 C1621 1.334 . S
C1622 C1623 1.287 . S
C1623 C1622 1.287 . S
C1623 C1624 1.524 . S
C1623 H1626 0.999 . S
C1624 H1594 0.950 . S
C1624 C1623 1.524 . S
C1624 C1625 1.415 . S
C1625 H1595 0.950 . S
C1625 C1620 1.363 . S
C1625 C1624 1.415 . S
H1626 C1623 0.999 . S
H1627 C1608 0.913 . S
H1628 C1646 0.951 . S
H1629 C1648 0.951 . S
H1630 C1650 0.950 . S
H1631 C1651 0.950 . S
H1632 C1653 0.950 . S
H1633 C1656 0.950 . S
H1634 C1657 0.950 . S
H1635 C1659 0.950 . S
H1636 C1660 0.950 . S
H1637 C1661 0.951 . S
H1638 C1663 0.951 . S
H1639 C1665 0.950 . S
H1640 C1666 0.950 . S
H1641 C1668 0.950 1_556 S
H1642 C1671 0.950 . S
H1643 C1672 0.950 . S
H1644 C1674 0.950 . S
H1645 C1675 0.950 1_554 S
C1646 H1628 0.951 . S
C1646 C1647 1.366 . S
C1646 C1648 1.388 . S
C1647 C1646 1.366 . S
C1647 C1651 1.385 . S
C1648 H1629 0.951 . S
C1648 C1646 1.388 . S
C1648 C1649 1.366 . S
C1649 C1648 1.366 . S
C1649 C1650 1.414 . S
C1649 C1652 1.499 . S
C1650 H1630 0.950 . S
C1650 C1649 1.414 . S
C1650 C1651 1.374 . S
C1651 H1631 0.950 . S
C1651 C1647 1.385 . S
C1651 C1650 1.374 . S
C1652 C1649 1.499 . S
C1652 C1653 1.373 . S
C1652 C1654 1.389 . S
C1653 H1632 0.950 . S
C1653 C1652 1.373 . S
C1653 C1669 1.377 1_554 S
C1654 C1652 1.389 . S
C1654 C1655 1.524 . S
C1654 C1668 1.377 . S
C1655 C1654 1.524 . S
C1655 C1656 1.397 . S
C1655 C1660 1.363 . S
C1656 H1633 0.950 . S
C1656 C1655 1.397 . S
C1656 C1657 1.334 . S
C1657 H1634 0.950 . S
C1657 C1656 1.334 . S
C1657 C1658 1.287 . S
C1658 C1657 1.287 . S
C1658 C1659 1.524 . S
C1658 H1677 0.913 . S
C1659 H1635 0.950 . S
C1659 C1658 1.524 . S
C1659 C1660 1.415 . S
C1660 H1636 0.950 . S
C1660 C1655 1.363 . S
C1660 C1659 1.415 . S
C1661 H1637 0.951 . S
C1661 C1662 1.366 . S
C1661 C1663 1.388 . S
C1662 C1661 1.366 . S
C1662 C1666 1.385 . S
C1663 H1638 0.951 . S
C1663 C1661 1.388 . S
C1663 C1664 1.366 . S
C1664 C1663 1.366 . S
C1664 C1665 1.414 . S
C1664 C1667 1.499 . S
C1665 H1639 0.950 . S
C1665 C1664 1.414 . S
C1665 C1666 1.374 . S
C1666 H1640 0.950 . S
C1666 C1662 1.385 . S
C1666 C1665 1.374 . S
C1667 C1664 1.499 . S
C1667 C1668 1.373 1_556 S
C1667 C1669 1.389 . S
C1668 H1641 0.950 1_554 S
C1668 C1654 1.377 . S
C1668 C1667 1.373 1_554 S
C1669 C1653 1.377 1_556 S
C1669 C1667 1.389 . S
C1669 C1670 1.524 . S
C1670 C1669 1.524 . S
C1670 C1671 1.397 . S
C1670 C1675 1.363 . S
C1671 H1642 0.950 . S
C1671 C1670 1.397 . S
C1671 C1672 1.334 . S
C1672 H1643 0.950 . S
C1672 C1671 1.334 . S
C1672 C1673 1.287 . S
C1673 C1672 1.287 . S
C1673 C1674 1.524 . S
C1673 H1676 0.999 . S
C1674 H1644 0.950 . S
C1674 C1673 1.524 . S
C1674 C1675 1.415 . S
C1675 H1645 0.950 1_556 S
C1675 C1670 1.363 . S
C1675 C1674 1.415 . S
H1676 C1673 0.999 . S
H1677 C1658 0.913 . S
H1678 C1696 0.951 . S
H1679 C1698 0.951 . S
H1680 C1700 0.950 . S
H1681 C1701 0.950 . S
H1682 C1703 0.950 . S
H1683 C1706 0.950 . S
H1684 C1707 0.950 . S
H1685 C1709 0.950 . S
H1686 C1710 0.950 . S
H1687 C1711 0.951 . S
H1688 C1713 0.951 . S
H1689 C1715 0.950 . S
H1690 C1716 0.950 . S
H1691 C1718 0.950 . S
H1692 C1721 0.950 . S
H1693 C1722 0.950 . S
H1694 C1724 0.950 . S
H1695 C1725 0.950 . S
C1696 H1678 0.951 . S
C1696 C1697 1.366 . S
C1696 C1698 1.388 . S
C1697 C1696 1.366 . S
C1697 C1701 1.385 . S
C1698 H1679 0.951 . S
C1698 C1696 1.388 . S
C1698 C1699 1.366 . S
C1699 C1698 1.366 . S
C1699 C1700 1.414 . S
C1699 C1702 1.499 . S
C1700 H1680 0.950 . S
C1700 C1699 1.414 . S
C1700 C1701 1.374 . S
C1701 H1681 0.950 . S
C1701 C1697 1.385 . S
C1701 C1700 1.374 . S
C1702 C1699 1.499 . S
C1702 C1703 1.373 . S
C1702 C1704 1.389 . S
C1703 H1682 0.950 . S
C1703 C1702 1.373 . S
C1703 C1719 1.377 . S
C1704 C1702 1.389 . S
C1704 C1705 1.524 . S
C1704 C1718 1.377 . S
C1705 C1704 1.524 . S
C1705 C1706 1.397 . S
C1705 C1710 1.363 . S
C1706 H1683 0.950 . S
C1706 C1705 1.397 . S
C1706 C1707 1.334 . S
C1707 H1684 0.950 . S
C1707 C1706 1.334 . S
C1707 C1708 1.287 . S
C1708 C1707 1.287 . S
C1708 C1709 1.524 . S
C1708 H1727 0.913 1_655 S
C1709 H1685 0.950 . S
C1709 C1708 1.524 . S
C1709 C1710 1.415 . S
C1710 H1686 0.950 . S
C1710 C1705 1.363 . S
C1710 C1709 1.415 . S
C1711 H1687 0.951 . S
C1711 C1712 1.366 . S
C1711 C1713 1.388 . S
C1712 C1711 1.366 . S
C1712 C1716 1.385 . S
C1713 H1688 0.951 . S
C1713 C1711 1.388 . S
C1713 C1714 1.366 . S
C1714 C1713 1.366 . S
C1714 C1715 1.414 . S
C1714 C1717 1.499 . S
C1715 H1689 0.950 . S
C1715 C1714 1.414 . S
C1715 C1716 1.374 . S
C1716 H1690 0.950 . S
C1716 C1712 1.385 . S
C1716 C1715 1.374 . S
C1717 C1714 1.499 . S
C1717 C1718 1.373 . S
C1717 C1719 1.389 . S
C1718 H1691 0.950 . S
C1718 C1704 1.377 . S
C1718 C1717 1.373 . S
C1719 C1703 1.377 . S
C1719 C1717 1.389 . S
C1719 C1720 1.524 . S
C1720 C1719 1.524 . S
C1720 C1721 1.397 . S
C1720 C1725 1.363 . S
C1721 H1692 0.950 . S
C1721 C1720 1.397 . S
C1721 C1722 1.334 . S
C1722 H1693 0.950 . S
C1722 C1721 1.334 . S
C1722 C1723 1.287 . S
C1723 C1722 1.287 . S
C1723 C1724 1.524 . S
C1723 H1726 0.999 . S
C1724 H1694 0.950 . S
C1724 C1723 1.524 . S
C1724 C1725 1.415 . S
C1725 H1695 0.950 . S
C1725 C1720 1.363 . S
C1725 C1724 1.415 . S
H1726 C1723 0.999 . S
H1727 C1708 0.913 1_455 S
C562 C519 1.014 . S
C547 C51 1.230 . S
C597 C125 1.359 . S
C612 C449 1.113 . S
C647 C217 2.678 . S
C662 C469 2.708 . S
C697 C291 1.334 . S
C712 C483 1.332 . S
C762 C491 0.735 . S
C747 C347 0.696 . S
C797 C421 0.630 . S
C812 C505 0.711 . S
C847 C143 2.325 . S
C862 C463 2.000 . S
C897 C199 1.445 . S
C912 C477 1.212 . S
C947 C273 0.188 . S
C962 C497 0.186 . S
C1012 C511 1.594 . S
C997 C365 1.568 . S
C1062 C525 1.703 . S
C1047 C439 1.718 . S
C1112 C455 2.519 . S
C1097 C69 2.478 . S
C1147 C63 1.284 . S
C1162 C462 1.349 . S
C1197 C137 1.459 . S
C1212 C476 1.520 . S
C1262 C498 1.198 . S
C1247 C187 1.170 . S
C1297 C261 1.382 . S
C1312 C512 1.402 . S
C1362 C526 1.358 . S
C1347 C359 1.255 . S
C1412 C456 0.898 . S
C1397 C433 0.878 . S
C1462 C518 1.558 . S
C1447 C113 1.521 . S
C1497 C211 1.175 . S
C1512 C448 1.232 . S
C1562 C470 1.482 . S
C1547 C285 1.412 . S
C1597 C335 1.234 . S
C1612 C484 1.278 . S
C1647 C409 1.224 . S
C1662 C490 1.255 . S
C1697 C39 1.617 . S
C1712 C504 1.649 . S
