# Generated by pormake.
# Topology eea, (3,6)-cn, num edge types: 1
# Building blocks:
#     Node 0, Type 0, BuildingBlock: MIDCAF_clean_linker_0, # of connection points: 3
#     Node 1, Type 0, BuildingBlock: MIDCAF_clean_linker_0, # of connection points: 3
#     Node 2, Type 0, BuildingBlock: MIDCAF_clean_linker_0, # of connection points: 3
#     Node 3, Type 0, BuildingBlock: MIDCAF_clean_linker_0, # of connection points: 3
#     Node 4, Type 0, BuildingBlock: MIDCAF_clean_linker_0, # of connection points: 3
#     Node 5, Type 0, BuildingBlock: MIDCAF_clean_linker_0, # of connection points: 3
#     Node 6, Type 0, BuildingBlock: MIDCAF_clean_linker_0, # of connection points: 3
#     Node 7, Type 0, BuildingBlock: MIDCAF_clean_linker_0, # of connection points: 3
#     Node 8, Type 0, BuildingBlock: MIDCAF_clean_linker_0, # of connection points: 3
#     Node 9, Type 0, BuildingBlock: MIDCAF_clean_linker_0, # of connection points: 3
#     Node 10, Type 0, BuildingBlock: MIDCAF_clean_linker_0, # of connection points: 3
#     Node 11, Type 0, BuildingBlock: MIDCAF_clean_linker_0, # of connection points: 3
#     Node 12, Type 0, BuildingBlock: MIDCAF_clean_linker_0, # of connection points: 3
#     Node 13, Type 0, BuildingBlock: MIDCAF_clean_linker_0, # of connection points: 3
#     Node 14, Type 0, BuildingBlock: MIDCAF_clean_linker_0, # of connection points: 3
#     Node 15, Type 0, BuildingBlock: MIDCAF_clean_linker_0, # of connection points: 3
#     Node 16, Type 0, BuildingBlock: MIDCAF_clean_linker_0, # of connection points: 3
#     Node 17, Type 0, BuildingBlock: MIDCAF_clean_linker_0, # of connection points: 3
#     Node 18, Type 1, BuildingBlock: KUMBUR_clean_sbu_0, # of connection points: 6
#     Node 19, Type 1, BuildingBlock: KUMBUR_clean_sbu_0, # of connection points: 6
#     Node 20, Type 1, BuildingBlock: KUMBUR_clean_sbu_0, # of connection points: 6
#     Node 21, Type 1, BuildingBlock: KUMBUR_clean_sbu_0, # of connection points: 6
#     Node 22, Type 1, BuildingBlock: KUMBUR_clean_sbu_0, # of connection points: 6
#     Node 23, Type 1, BuildingBlock: KUMBUR_clean_sbu_0, # of connection points: 6
#     Node 24, Type 1, BuildingBlock: KUMBUR_clean_sbu_0, # of connection points: 6
#     Node 25, Type 1, BuildingBlock: KUMBUR_clean_sbu_0, # of connection points: 6
#     Node 26, Type 1, BuildingBlock: KUMBUR_clean_sbu_0, # of connection points: 6
#     Edge 27, Type (0, 1), BuildingBlock: ZUJKAS_clean_linker_0, # of connection points: 2
#     Edge 28, Type (0, 1), BuildingBlock: ZUJKAS_clean_linker_0, # of connection points: 2
#     Edge 29, Type (0, 1), BuildingBlock: ZUJKAS_clean_linker_0, # of connection points: 2
#     Edge 30, Type (0, 1), BuildingBlock: ZUJKAS_clean_linker_0, # of connection points: 2
#     Edge 31, Type (0, 1), BuildingBlock: ZUJKAS_clean_linker_0, # of connection points: 2
#     Edge 32, Type (0, 1), BuildingBlock: ZUJKAS_clean_linker_0, # of connection points: 2
#     Edge 33, Type (0, 1), BuildingBlock: ZUJKAS_clean_linker_0, # of connection points: 2
#     Edge 34, Type (0, 1), BuildingBlock: ZUJKAS_clean_linker_0, # of connection points: 2
#     Edge 35, Type (0, 1), BuildingBlock: ZUJKAS_clean_linker_0, # of connection points: 2
#     Edge 36, Type (0, 1), BuildingBlock: ZUJKAS_clean_linker_0, # of connection points: 2
#     Edge 37, Type (0, 1), BuildingBlock: ZUJKAS_clean_linker_0, # of connection points: 2
#     Edge 38, Type (0, 1), BuildingBlock: ZUJKAS_clean_linker_0, # of connection points: 2
#     Edge 39, Type (0, 1), BuildingBlock: ZUJKAS_clean_linker_0, # of connection points: 2
#     Edge 40, Type (0, 1), BuildingBlock: ZUJKAS_clean_linker_0, # of connection points: 2
#     Edge 41, Type (0, 1), BuildingBlock: ZUJKAS_clean_linker_0, # of connection points: 2
#     Edge 42, Type (0, 1), BuildingBlock: ZUJKAS_clean_linker_0, # of connection points: 2
#     Edge 43, Type (0, 1), BuildingBlock: ZUJKAS_clean_linker_0, # of connection points: 2
#     Edge 44, Type (0, 1), BuildingBlock: ZUJKAS_clean_linker_0, # of connection points: 2
#     Edge 45, Type (0, 1), BuildingBlock: ZUJKAS_clean_linker_0, # of connection points: 2
#     Edge 46, Type (0, 1), BuildingBlock: ZUJKAS_clean_linker_0, # of connection points: 2
#     Edge 47, Type (0, 1), BuildingBlock: ZUJKAS_clean_linker_0, # of connection points: 2
#     Edge 48, Type (0, 1), BuildingBlock: ZUJKAS_clean_linker_0, # of connection points: 2
#     Edge 49, Type (0, 1), BuildingBlock: ZUJKAS_clean_linker_0, # of connection points: 2
#     Edge 50, Type (0, 1), BuildingBlock: ZUJKAS_clean_linker_0, # of connection points: 2
#     Edge 51, Type (0, 1), BuildingBlock: ZUJKAS_clean_linker_0, # of connection points: 2
#     Edge 52, Type (0, 1), BuildingBlock: ZUJKAS_clean_linker_0, # of connection points: 2
#     Edge 53, Type (0, 1), BuildingBlock: ZUJKAS_clean_linker_0, # of connection points: 2
#     Edge 54, Type (0, 1), BuildingBlock: ZUJKAS_clean_linker_0, # of connection points: 2
#     Edge 55, Type (0, 1), BuildingBlock: ZUJKAS_clean_linker_0, # of connection points: 2
#     Edge 56, Type (0, 1), BuildingBlock: ZUJKAS_clean_linker_0, # of connection points: 2
#     Edge 57, Type (0, 1), BuildingBlock: ZUJKAS_clean_linker_0, # of connection points: 2
#     Edge 58, Type (0, 1), BuildingBlock: ZUJKAS_clean_linker_0, # of connection points: 2
#     Edge 59, Type (0, 1), BuildingBlock: ZUJKAS_clean_linker_0, # of connection points: 2
#     Edge 60, Type (0, 1), BuildingBlock: ZUJKAS_clean_linker_0, # of connection points: 2
#     Edge 61, Type (0, 1), BuildingBlock: ZUJKAS_clean_linker_0, # of connection points: 2
#     Edge 62, Type (0, 1), BuildingBlock: ZUJKAS_clean_linker_0, # of connection points: 2
#     Edge 63, Type (0, 1), BuildingBlock: ZUJKAS_clean_linker_0, # of connection points: 2
#     Edge 64, Type (0, 1), BuildingBlock: ZUJKAS_clean_linker_0, # of connection points: 2
#     Edge 65, Type (0, 1), BuildingBlock: ZUJKAS_clean_linker_0, # of connection points: 2
#     Edge 66, Type (0, 1), BuildingBlock: ZUJKAS_clean_linker_0, # of connection points: 2
#     Edge 67, Type (0, 1), BuildingBlock: ZUJKAS_clean_linker_0, # of connection points: 2
#     Edge 68, Type (0, 1), BuildingBlock: ZUJKAS_clean_linker_0, # of connection points: 2
#     Edge 69, Type (0, 1), BuildingBlock: ZUJKAS_clean_linker_0, # of connection points: 2
#     Edge 70, Type (0, 1), BuildingBlock: ZUJKAS_clean_linker_0, # of connection points: 2
#     Edge 71, Type (0, 1), BuildingBlock: ZUJKAS_clean_linker_0, # of connection points: 2
#     Edge 72, Type (0, 1), BuildingBlock: ZUJKAS_clean_linker_0, # of connection points: 2
#     Edge 73, Type (0, 1), BuildingBlock: ZUJKAS_clean_linker_0, # of connection points: 2
#     Edge 74, Type (0, 1), BuildingBlock: ZUJKAS_clean_linker_0, # of connection points: 2
#     Edge 75, Type (0, 1), BuildingBlock: ZUJKAS_clean_linker_0, # of connection points: 2
#     Edge 76, Type (0, 1), BuildingBlock: ZUJKAS_clean_linker_0, # of connection points: 2
#     Edge 77, Type (0, 1), BuildingBlock: ZUJKAS_clean_linker_0, # of connection points: 2
#     Edge 78, Type (0, 1), BuildingBlock: ZUJKAS_clean_linker_0, # of connection points: 2
#     Edge 79, Type (0, 1), BuildingBlock: ZUJKAS_clean_linker_0, # of connection points: 2
#     Edge 80, Type (0, 1), BuildingBlock: ZUJKAS_clean_linker_0, # of connection points: 2
# Relax obj value: 0.010
# Max RMSD: 0.099
# Mean RMSD: 0.055
data_MOF--net-eea--node1-KUMBUR_clean_sbu_0--node2-MIDCAF_clean_linker_0--edge1-ZUJKAS_clean_linker_0
_symmetry_space_group_name_H-M    P1
_symmetry_Int_Tables_number       1
_symmetry_cell_setting            triclinic
loop_
_symmetry_equiv_pos_as_xyz
'x, y, z'
_cell_length_a     77.79573
_cell_length_b     79.262186
_cell_length_c     106.78894
_cell_angle_alpha  90.222334
_cell_angle_beta   90.233688
_cell_angle_gamma 119.97443
loop_
_atom_site_label
_atom_site_type_symbol
_atom_site_fract_x
_atom_site_fract_y
_atom_site_fract_z
_atom_type_partial_charge
C0 C 0.2375 0.05614 0.41964 0.0
C1 C 0.22943 0.05196 0.40747 0.0
C2 C 0.22643 0.06589 0.40125 0.0
C3 C 0.23135 0.08356 0.40707 0.0
H4 H 0.2279 0.13247 0.40229 0.0
H5 H 0.21958 0.15472 0.39195 0.0
H6 H 0.24409 0.19468 0.42324 0.0
H7 H 0.25211 0.17224 0.43377 0.0
H8 H 0.27253 0.16192 0.4563 0.0
H9 H 0.28691 0.1686 0.47735 0.0
H10 H 0.27714 0.11005 0.47932 0.0
H11 H 0.26264 0.10323 0.45841 0.0
H12 H 0.24853 0.07646 0.43487 0.0
H13 H 0.23975 0.04562 0.42476 0.0
H14 H 0.22049 0.06323 0.3918 0.0
H15 H 0.22886 0.09394 0.40197 0.0
N16 N 0.24074 0.11948 0.41968 0.0
N17 N 0.25361 0.14065 0.43694 0.0
N18 N 0.2528 0.11068 0.4371 0.0
C19 C 0.24523 0.1366 0.42532 0.0
C20 C 0.25744 0.12774 0.4429 0.0
C21 C 0.24449 0.10645 0.42549 0.0
C22 C 0.24066 0.15049 0.4189 0.0
C23 C 0.23158 0.146 0.407 0.0
C24 C 0.2269 0.15882 0.40101 0.0
C25 C 0.23118 0.17649 0.40676 0.0
C26 C 0.24036 0.18107 0.41863 0.0
C27 C 0.24506 0.16823 0.42463 0.0
C28 C 0.26637 0.13202 0.45563 0.0
C29 C 0.27342 0.15045 0.46121 0.0
C30 C 0.28176 0.15433 0.47325 0.0
C31 C 0.28309 0.13983 0.47999 0.0
C32 C 0.27608 0.12144 0.47442 0.0
C33 C 0.26787 0.11759 0.46238 0.0
C34 C 0.2394 0.08774 0.41926 0.0
C35 C 0.24244 0.07382 0.42547 0.0
C36 C 0.95919 0.17745 0.41815 0.0
C37 C 0.96137 0.17502 0.4053 0.0
C38 C 0.94579 0.15916 0.39893 0.0
C39 C 0.92853 0.14605 0.40523 0.0
H40 H 0.88171 0.08939 0.40292 0.0
H41 H 0.85792 0.05884 0.3929 0.0
H42 H 0.81574 0.04858 0.42223 0.0
H43 H 0.8397 0.07881 0.43246 0.0
H44 H 0.85546 0.10284 0.45728 0.0
H45 H 0.8485 0.1096 0.47825 0.0
H46 H 0.90262 0.16533 0.47803 0.0
H47 H 0.9099 0.15844 0.45704 0.0
H48 H 0.94075 0.16673 0.43434 0.0
H49 H 0.97099 0.18931 0.42343 0.0
H50 H 0.94677 0.15698 0.389 0.0
H51 H 0.91684 0.13408 0.39996 0.0
N52 N 0.89434 0.1178 0.41894 0.0
N53 N 0.87397 0.10915 0.4366 0.0
N54 N 0.90428 0.13854 0.4365 0.0
C55 C 0.87735 0.10498 0.42483 0.0
C56 C 0.88732 0.12586 0.44252 0.0
C57 C 0.90788 0.13462 0.42468 0.0
C58 C 0.86269 0.08658 0.41854 0.0
C59 C 0.86736 0.08065 0.40724 0.0
C60 C 0.85365 0.06315 0.40144 0.0
C61 C 0.83488 0.05119 0.40675 0.0
C62 C 0.83016 0.05723 0.41798 0.0
C63 C 0.8439 0.07466 0.42382 0.0
C64 C 0.88325 0.1301 0.45539 0.0
C65 C 0.86594 0.11656 0.46165 0.0
C66 C 0.86186 0.12048 0.47369 0.0
C67 C 0.87493 0.13806 0.47982 0.0
C68 C 0.89232 0.15157 0.47363 0.0
C69 C 0.89644 0.14764 0.46155 0.0
C70 C 0.92631 0.14853 0.41806 0.0
C71 C 0.94186 0.16441 0.42444 0.0
C72 C 0.83008 0.78335 0.42008 0.0
C73 C 0.83356 0.79197 0.40819 0.0
C74 C 0.85167 0.79724 0.40226 0.0
C75 C 0.86584 0.79379 0.40803 0.0
H76 H 0.92108 0.79794 0.40279 0.0
H77 H 0.95111 0.80363 0.39202 0.0
H78 H 0.96548 0.7777 0.42286 0.0
H79 H 0.93546 0.77176 0.43356 0.0
H80 H 0.90778 0.75628 0.45714 0.0
H81 H 0.90106 0.74288 0.47824 0.0
H82 H 0.85037 0.75118 0.48047 0.0
H83 H 0.8571 0.76473 0.45947 0.0
H84 H 0.84091 0.77329 0.43501 0.0
H85 H 0.81643 0.77935 0.425 0.0
H86 H 0.85477 0.80375 0.39305 0.0
H87 H 0.87954 0.79791 0.40314 0.0
N88 N 0.89398 0.7846 0.42006 0.0
N89 N 0.90364 0.77321 0.43747 0.0
N90 N 0.87381 0.77374 0.43786 0.0
C91 C 0.90733 0.78067 0.42569 0.0
C92 C 0.88695 0.76974 0.44364 0.0
C93 C 0.87713 0.78113 0.42609 0.0
C94 C 0.92572 0.78434 0.41907 0.0
C95 C 0.9306 0.79342 0.40729 0.0
C96 C 0.94792 0.7968 0.40113 0.0
C97 C 0.96072 0.79109 0.40655 0.0
C98 C 0.95584 0.78205 0.41832 0.0
C99 C 0.93862 0.77875 0.4245 0.0
C100 C 0.883 0.76162 0.45654 0.0
C101 C 0.89521 0.7553 0.46211 0.0
C102 C 0.89131 0.74751 0.4742 0.0
C103 C 0.87519 0.74597 0.48106 0.0
C104 C 0.86305 0.75237 0.47552 0.0
C105 C 0.86686 0.76004 0.46342 0.0
C106 C 0.86229 0.78507 0.41991 0.0
C107 C 0.84424 0.77998 0.42586 0.0
C108 C 0.0489 0.21881 0.59499 0.0
C109 C 0.0439 0.20959 0.60671 0.0
C110 C 0.05679 0.20407 0.61221 0.0
C111 C 0.07432 0.20783 0.60619 0.0
H112 H 0.12422 0.20183 0.61017 0.0
H113 H 0.1487 0.19619 0.62085 0.0
H114 H 0.19103 0.22724 0.5917 0.0
H115 H 0.16673 0.233 0.58104 0.0
H116 H 0.14999 0.23922 0.55513 0.0
H117 H 0.15723 0.25329 0.53425 0.0
H118 H 0.1055 0.25997 0.53579 0.0
H119 H 0.09827 0.24607 0.55675 0.0
H120 H 0.06964 0.22962 0.57994 0.0
H121 H 0.03919 0.22303 0.5904 0.0
H122 H 0.05351 0.19713 0.62128 0.0
H123 H 0.08392 0.20346 0.61077 0.0
N124 N 0.11145 0.21761 0.59393 0.0
N125 N 0.13241 0.22933 0.57652 0.0
N126 N 0.10214 0.22906 0.57641 0.0
C127 C 0.12868 0.22162 0.58822 0.0
C128 C 0.11923 0.23307 0.57052 0.0
C129 C 0.09809 0.2213 0.5881 0.0
C130 C 0.14344 0.21791 0.59472 0.0
C131 C 0.13874 0.20748 0.60602 0.0
C132 C 0.15274 0.20414 0.61212 0.0
C133 C 0.17184 0.21131 0.60715 0.0
C134 C 0.17653 0.22172 0.59586 0.0
C135 C 0.16251 0.22491 0.58971 0.0
C136 C 0.12353 0.2415 0.5577 0.0
C137 C 0.14011 0.24367 0.55105 0.0
C138 C 0.14421 0.25163 0.53902 0.0
C139 C 0.13194 0.25776 0.53333 0.0
C140 C 0.11537 0.2556 0.53995 0.0
C141 C 0.11118 0.24751 0.55196 0.0
C142 C 0.07936 0.21711 0.59448 0.0
C143 C 0.06635 0.22248 0.58895 0.0
C144 C 0.76559 0.82055 0.59477 0.0
C145 C 0.77679 0.82637 0.60593 0.0
C146 C 0.78309 0.84511 0.61074 0.0
C147 C 0.77821 0.85768 0.60459 0.0
H148 H 0.78273 0.9106 0.60843 0.0
H149 H 0.79084 0.94132 0.61843 0.0
H150 H 0.75865 0.95206 0.58944 0.0
H151 H 0.75092 0.92155 0.57922 0.0
H152 H 0.73806 0.89529 0.55519 0.0
H153 H 0.72299 0.88778 0.53448 0.0
H154 H 0.72047 0.8321 0.5351 0.0
H155 H 0.73601 0.83974 0.55579 0.0
H156 H 0.75201 0.82815 0.58005 0.0
H157 H 0.76029 0.80612 0.5909 0.0
H158 H 0.79202 0.85019 0.61919 0.0
H159 H 0.78339 0.87201 0.60859 0.0
N160 N 0.76607 0.88243 0.59254 0.0
N161 N 0.75234 0.89008 0.57545 0.0
N162 N 0.75266 0.86065 0.57561 0.0
C163 C 0.76139 0.8949 0.58684 0.0
C164 C 0.74794 0.87301 0.56975 0.0
C165 C 0.76175 0.86528 0.58702 0.0
C166 C 0.76617 0.91356 0.59299 0.0
C167 C 0.77735 0.91947 0.60417 0.0
C168 C 0.78192 0.93706 0.60995 0.0
C169 C 0.77537 0.94915 0.60475 0.0
C170 C 0.76416 0.94323 0.5936 0.0
C171 C 0.75964 0.92566 0.58778 0.0
C172 C 0.73831 0.86814 0.55721 0.0
C173 C 0.73429 0.8814 0.55097 0.0
C174 C 0.72551 0.87706 0.53909 0.0
C175 C 0.72046 0.85931 0.53314 0.0
C176 C 0.72439 0.84599 0.53937 0.0
C177 C 0.73321 0.85035 0.55127 0.0
C178 C 0.76697 0.85187 0.59344 0.0
C179 C 0.76076 0.83316 0.58858 0.0
C180 C 0.17377 0.94396 0.59456 0.0
C181 C 0.16914 0.95045 0.60563 0.0
C182 C 0.15027 0.93889 0.61092 0.0
C183 C 0.13641 0.92129 0.60527 0.0
H184 H 0.08267 0.87216 0.61115 0.0
H185 H 0.05286 0.8495 0.62239 0.0
H186 H 0.03737 0.80713 0.59266 0.0
H187 H 0.06734 0.82965 0.58145 0.0
H188 H 0.09404 0.84127 0.5569 0.0
H189 H 0.10136 0.83343 0.53619 0.0
H190 H 0.15582 0.88883 0.53545 0.0
H191 H 0.14882 0.89655 0.55615 0.0
H192 H 0.16406 0.92193 0.58038 0.0
H193 H 0.18826 0.95229 0.59033 0.0
H194 H 0.14607 0.94355 0.61934 0.0
H195 H 0.12201 0.91283 0.60959 0.0
N196 N 0.10933 0.88367 0.59409 0.0
N197 N 0.09973 0.86195 0.57706 0.0
N198 N 0.12989 0.89145 0.57657 0.0
C199 C 0.09594 0.86648 0.58864 0.0
C200 C 0.11668 0.8744 0.57094 0.0
C201 C 0.12636 0.89622 0.58812 0.0
C202 C 0.07751 0.85277 0.59537 0.0
C203 C 0.07295 0.85803 0.60697 0.0
C204 C 0.05576 0.84508 0.6134 0.0
C205 C 0.04274 0.82651 0.60843 0.0
C206 C 0.04722 0.82125 0.59682 0.0
C207 C 0.06437 0.83423 0.59035 0.0
C208 C 0.12085 0.86953 0.55827 0.0
C209 C 0.1076 0.85179 0.55233 0.0
C210 C 0.11173 0.84732 0.54042 0.0
C211 C 0.12922 0.86047 0.53417 0.0
C212 C 0.14238 0.87822 0.54007 0.0
C213 C 0.13827 0.88269 0.55195 0.0
C214 C 0.14103 0.91487 0.59416 0.0
C215 C 0.15989 0.92644 0.58887 0.0
C216 C 0.90495 0.38955 0.75105 0.0
C217 C 0.89776 0.38556 0.73867 0.0
C218 C 0.89514 0.39954 0.73221 0.0
C219 C 0.89946 0.41704 0.73803 0.0
H220 H 0.89715 0.46655 0.73236 0.0
H221 H 0.8889 0.48866 0.72173 0.0
H222 H 0.90491 0.52477 0.75496 0.0
H223 H 0.9136 0.5029 0.76558 0.0
H224 H 0.93484 0.49386 0.78809 0.0
H225 H 0.9479 0.50047 0.80945 0.0
H226 H 0.94026 0.44272 0.81146 0.0
H227 H 0.92704 0.43594 0.79021 0.0
H228 H 0.91465 0.40955 0.76646 0.0
H229 H 0.9069 0.37898 0.75634 0.0
H230 H 0.88988 0.39701 0.7226 0.0
H231 H 0.89722 0.42744 0.73276 0.0
N232 N 0.90702 0.45234 0.75072 0.0
N233 N 0.91806 0.47298 0.76829 0.0
N234 N 0.91815 0.44345 0.76857 0.0
C235 C 0.91061 0.46914 0.75643 0.0
C236 C 0.92188 0.46021 0.77442 0.0
C237 C 0.91075 0.43942 0.75671 0.0
C238 C 0.90602 0.48288 0.74986 0.0
C239 C 0.89899 0.47922 0.73743 0.0
C240 C 0.89413 0.49184 0.73133 0.0
C241 C 0.89616 0.50843 0.73751 0.0
C242 C 0.90339 0.51223 0.74989 0.0
C243 C 0.90828 0.49962 0.756 0.0
C244 C 0.92987 0.46436 0.7874 0.0
C245 C 0.9359 0.48254 0.79307 0.0
C246 C 0.94348 0.48639 0.80529 0.0
C247 C 0.94506 0.4721 0.81213 0.0
C248 C 0.93899 0.45393 0.80648 0.0
C249 C 0.93153 0.45011 0.79425 0.0
C250 C 0.90652 0.42099 0.75046 0.0
C251 C 0.90929 0.40706 0.75687 0.0
C252 C 0.61949 0.51434 0.74895 0.0
C253 C 0.62617 0.50807 0.73866 0.0
C254 C 0.61526 0.48835 0.73504 0.0
C255 C 0.59811 0.47532 0.74147 0.0
H256 H 0.546 0.42351 0.73621 0.0
H257 H 0.52212 0.39291 0.72625 0.0
H258 H 0.48494 0.37759 0.75897 0.0
H259 H 0.50857 0.40831 0.76888 0.0
H260 H 0.52381 0.43497 0.79261 0.0
H261 H 0.51712 0.44233 0.81354 0.0
H262 H 0.56636 0.50104 0.81056 0.0
H263 H 0.57306 0.49381 0.78948 0.0
H264 H 0.59774 0.50661 0.76332 0.0
H265 H 0.62726 0.52946 0.7519 0.0
H266 H 0.62009 0.48285 0.72734 0.0
H267 H 0.59016 0.46024 0.73842 0.0
N268 N 0.5603 0.45025 0.75326 0.0
N269 N 0.54013 0.44188 0.771 0.0
N270 N 0.56957 0.47205 0.77022 0.0
C271 C 0.54361 0.4373 0.75936 0.0
C272 C 0.553 0.45918 0.77651 0.0
C273 C 0.57335 0.46765 0.7586 0.0
C274 C 0.52926 0.41847 0.75337 0.0
C275 C 0.53275 0.41365 0.74131 0.0
C276 C 0.5191 0.39603 0.73561 0.0
C277 C 0.50161 0.3828 0.74181 0.0
C278 C 0.49813 0.38757 0.75387 0.0
C279 C 0.51178 0.40517 0.75958 0.0
C280 C 0.549 0.46379 0.7893 0.0
C281 C 0.53326 0.44948 0.79636 0.0
C282 C 0.52947 0.45365 0.80842 0.0
C283 C 0.54125 0.47225 0.81373 0.0
C284 C 0.55693 0.48661 0.80668 0.0
C285 C 0.56082 0.48241 0.79462 0.0
C286 C 0.59152 0.48158 0.75178 0.0
C287 C 0.60246 0.50124 0.75548 0.0
C288 C 0.49978 0.12172 0.75187 0.0
C289 C 0.50183 0.1267 0.73912 0.0
C290 C 0.51801 0.12786 0.73254 0.0
C291 C 0.53183 0.12417 0.73858 0.0
H292 H 0.58829 0.1309 0.73495 0.0
H293 H 0.61848 0.13641 0.72451 0.0
H294 H 0.63213 0.11061 0.75575 0.0
H295 H 0.60191 0.10485 0.76615 0.0
H296 H 0.57504 0.09222 0.79022 0.0
H297 H 0.56733 0.07825 0.81113 0.0
H298 H 0.51423 0.08273 0.81139 0.0
H299 H 0.52165 0.09629 0.79042 0.0
H300 H 0.51128 0.11403 0.76769 0.0
H301 H 0.48736 0.12044 0.75718 0.0
H302 H 0.52012 0.13182 0.72274 0.0
H303 H 0.5441 0.12522 0.73321 0.0
N304 N 0.56098 0.11794 0.75195 0.0
N305 N 0.57009 0.10665 0.76966 0.0
N306 N 0.54047 0.10761 0.76961 0.0
C307 C 0.57408 0.11392 0.75783 0.0
C308 C 0.55333 0.10346 0.77563 0.0
C309 C 0.54412 0.11482 0.75778 0.0
C310 C 0.59254 0.11739 0.75142 0.0
C311 C 0.59768 0.12636 0.73961 0.0
C312 C 0.61509 0.12964 0.73364 0.0
C313 C 0.62775 0.12394 0.73928 0.0
C314 C 0.62261 0.11497 0.75106 0.0
C315 C 0.60528 0.11177 0.75707 0.0
C316 C 0.54896 0.09536 0.78854 0.0
C317 C 0.56172 0.09026 0.79472 0.0
C318 C 0.55736 0.08234 0.80677 0.0
C319 C 0.54012 0.07929 0.81297 0.0
C320 C 0.52747 0.08456 0.80684 0.0
C321 C 0.53182 0.09247 0.7948 0.0
C322 C 0.5297 0.11908 0.75133 0.0
C323 C 0.51348 0.11791 0.75788 0.0
C324 C 0.71492 0.55202 0.92836 0.0
C325 C 0.7098 0.5431 0.94017 0.0
C326 C 0.72262 0.53767 0.9459 0.0
C327 C 0.74013 0.54114 0.93999 0.0
H328 H 0.7935 0.54219 0.9464 0.0
H329 H 0.81739 0.53561 0.95698 0.0
H330 H 0.85067 0.54739 0.92274 0.0
H331 H 0.82681 0.55378 0.9121 0.0
H332 H 0.8146 0.5688 0.88843 0.0
H333 H 0.822 0.58263 0.86748 0.0
H334 H 0.77186 0.59185 0.8693 0.0
H335 H 0.76449 0.57821 0.89031 0.0
H336 H 0.7357 0.56227 0.91333 0.0
H337 H 0.70528 0.55617 0.9236 0.0
H338 H 0.71926 0.53096 0.95505 0.0
H339 H 0.74963 0.5368 0.94472 0.0
N340 N 0.77686 0.54962 0.92767 0.0
N341 N 0.79745 0.56004 0.91004 0.0
N342 N 0.76782 0.56101 0.91 0.0
C343 C 0.79376 0.55278 0.92186 0.0
C344 C 0.78461 0.56423 0.90403 0.0
C345 C 0.76378 0.55365 0.9218 0.0
C346 C 0.80815 0.54853 0.92836 0.0
C347 C 0.80587 0.54333 0.94109 0.0
C348 C 0.81964 0.53966 0.9472 0.0
C349 C 0.83594 0.54094 0.94072 0.0
C350 C 0.83816 0.54603 0.92798 0.0
C351 C 0.82449 0.54982 0.9219 0.0
C352 C 0.78895 0.57238 0.89114 0.0
C353 C 0.80511 0.57375 0.8844 0.0
C354 C 0.8093 0.58157 0.87232 0.0
C355 C 0.79753 0.58836 0.8667 0.0
C356 C 0.78136 0.58696 0.87341 0.0
C357 C 0.77707 0.57901 0.88545 0.0
C358 C 0.74524 0.55005 0.92816 0.0
C359 C 0.73236 0.55542 0.92243 0.0
C360 C 0.43135 0.15391 0.92838 0.0
C361 C 0.44223 0.15954 0.93967 0.0
C362 C 0.44809 0.17806 0.94468 0.0
C363 C 0.44314 0.19062 0.93862 0.0
H364 H 0.44263 0.24063 0.94445 0.0
H365 H 0.4506 0.27103 0.95483 0.0
H366 H 0.43056 0.28862 0.92222 0.0
H367 H 0.42215 0.25799 0.91187 0.0
H368 H 0.40514 0.22981 0.88898 0.0
H369 H 0.39004 0.2226 0.86828 0.0
H370 H 0.38548 0.16601 0.86905 0.0
H371 H 0.40105 0.17335 0.88972 0.0
H372 H 0.41797 0.16169 0.91362 0.0
H373 H 0.4264 0.13964 0.92433 0.0
H374 H 0.45678 0.18301 0.95324 0.0
H375 H 0.44801 0.20479 0.94279 0.0
N376 N 0.43134 0.21557 0.92662 0.0
N377 N 0.4182 0.22377 0.90948 0.0
N378 N 0.41828 0.19419 0.90948 0.0
C379 C 0.42694 0.22826 0.92097 0.0
C380 C 0.4138 0.20677 0.90366 0.0
C381 C 0.4271 0.19853 0.92098 0.0
C382 C 0.43175 0.24681 0.92729 0.0
C383 C 0.43989 0.25093 0.93945 0.0
C384 C 0.44457 0.26843 0.94541 0.0
C385 C 0.44128 0.28227 0.93935 0.0
C386 C 0.43307 0.27815 0.92721 0.0
C387 C 0.42834 0.26062 0.92125 0.0
C388 C 0.40435 0.20217 0.89107 0.0
C389 C 0.40093 0.21579 0.88479 0.0
C390 C 0.39213 0.21162 0.87292 0.0
C391 C 0.38646 0.19369 0.86702 0.0
C392 C 0.38987 0.18004 0.87328 0.0
C393 C 0.39871 0.18423 0.88517 0.0
C394 C 0.43224 0.18503 0.92733 0.0
C395 C 0.42643 0.16652 0.92227 0.0
C396 C 0.84105 0.27751 0.92713 0.0
C397 C 0.83662 0.28398 0.93829 0.0
C398 C 0.81795 0.27227 0.94379 0.0
C399 C 0.80411 0.25454 0.93829 0.0
H400 H 0.7496 0.20611 0.94389 0.0
H401 H 0.72002 0.18356 0.95539 0.0
H402 H 0.70672 0.13907 0.92748 0.0
H403 H 0.73641 0.16152 0.91596 0.0
H404 H 0.76146 0.1738 0.89036 0.0
H405 H 0.76846 0.16589 0.86957 0.0
H406 H 0.82258 0.22156 0.8684 0.0
H407 H 0.81589 0.22934 0.88917 0.0
H408 H 0.83121 0.25535 0.91303 0.0
H409 H 0.85538 0.28596 0.92273 0.0
H410 H 0.81391 0.27692 0.95228 0.0
H411 H 0.78987 0.24596 0.94278 0.0
N412 N 0.77705 0.21671 0.92735 0.0
N413 N 0.76736 0.19467 0.91049 0.0
N414 N 0.79728 0.22438 0.90968 0.0
C415 C 0.76371 0.19936 0.92207 0.0
C416 C 0.78411 0.20716 0.90421 0.0
C417 C 0.7939 0.22929 0.92123 0.0
C418 C 0.74547 0.18567 0.92897 0.0
C419 C 0.74042 0.19153 0.94017 0.0
C420 C 0.72338 0.17864 0.94675 0.0
C421 C 0.71104 0.15953 0.94236 0.0
C422 C 0.71605 0.15364 0.93118 0.0
C423 C 0.73302 0.16657 0.92453 0.0
C424 C 0.78812 0.2022 0.89151 0.0
C425 C 0.77487 0.18436 0.88569 0.0
C426 C 0.77882 0.17985 0.87373 0.0
C427 C 0.79612 0.19306 0.86733 0.0
C428 C 0.80928 0.21091 0.87314 0.0
C429 C 0.80535 0.21541 0.88506 0.0
C430 C 0.80854 0.24811 0.92711 0.0
C431 C 0.82718 0.25985 0.92159 0.0
C432 C 0.57482 0.72493 0.0835 0.0
C433 C 0.56337 0.7189 0.07245 0.0
C434 C 0.5567 0.73092 0.06731 0.0
C435 C 0.56136 0.74855 0.07307 0.0
H436 H 0.55621 0.79649 0.06825 0.0
H437 H 0.54699 0.81813 0.05797 0.0
H438 H 0.57626 0.86091 0.08735 0.0
H439 H 0.58513 0.83908 0.09785 0.0
H440 H 0.60315 0.82858 0.1211 0.0
H441 H 0.61873 0.83647 0.14174 0.0
H442 H 0.61568 0.78056 0.14288 0.0
H443 H 0.60054 0.77279 0.12217 0.0
H444 H 0.58831 0.74673 0.09779 0.0
H445 H 0.58043 0.71614 0.08761 0.0
H446 H 0.54759 0.72657 0.05891 0.0
H447 H 0.55585 0.75736 0.06886 0.0
N448 N 0.57266 0.78559 0.08466 0.0
N449 N 0.58601 0.80733 0.10159 0.0
N450 N 0.58661 0.77804 0.10169 0.0
C451 C 0.57688 0.80268 0.09021 0.0
C452 C 0.59091 0.79507 0.10741 0.0
C453 C 0.5775 0.7732 0.09031 0.0
C454 C 0.57143 0.816 0.0839 0.0
C455 C 0.56072 0.8105 0.07255 0.0
C456 C 0.55551 0.82297 0.0666 0.0
C457 C 0.56091 0.84126 0.07182 0.0
C458 C 0.57164 0.8468 0.08316 0.0
C459 C 0.57682 0.8343 0.08914 0.0
C460 C 0.60057 0.80003 0.11993 0.0
C461 C 0.60583 0.81796 0.12572 0.0
C462 C 0.61468 0.82246 0.1376 0.0
C463 C 0.61845 0.80915 0.14396 0.0
C464 C 0.61325 0.79127 0.13816 0.0
C465 C 0.60445 0.78677 0.12629 0.0
C466 C 0.57273 0.75456 0.08416 0.0
C467 C 0.57943 0.74254 0.0893 0.0
C468 C 0.29057 0.84613 0.08489 0.0
C469 C 0.29506 0.8417 0.07301 0.0
C470 C 0.28191 0.82358 0.06751 0.0
C471 C 0.26463 0.81025 0.07371 0.0
H472 H 0.2138 0.75766 0.06876 0.0
H473 H 0.18991 0.72737 0.05845 0.0
H474 H 0.15279 0.71092 0.09124 0.0
H475 H 0.17639 0.74129 0.10149 0.0
H476 H 0.1889 0.7684 0.12452 0.0
H477 H 0.18152 0.77528 0.14536 0.0
H478 H 0.23504 0.83149 0.14503 0.0
H479 H 0.24274 0.8245 0.12419 0.0
H480 H 0.27039 0.83673 0.10025 0.0
H481 H 0.30051 0.85988 0.08945 0.0
H482 H 0.28481 0.8198 0.05831 0.0
H483 H 0.25482 0.79648 0.06913 0.0
N484 N 0.22845 0.78353 0.08642 0.0
N485 N 0.20783 0.77469 0.10396 0.0
N486 N 0.2377 0.80449 0.10383 0.0
C487 C 0.2115 0.77052 0.09227 0.0
C488 C 0.22081 0.79161 0.10983 0.0
C489 C 0.24165 0.80055 0.09212 0.0
C490 C 0.19707 0.752 0.08597 0.0
C491 C 0.20055 0.74762 0.07379 0.0
C492 C 0.18689 0.73019 0.06789 0.0
C493 C 0.16943 0.71672 0.07402 0.0
C494 C 0.16596 0.72109 0.08619 0.0
C495 C 0.17959 0.7385 0.09209 0.0
C496 C 0.21643 0.7959 0.1226 0.0
C497 C 0.19916 0.78225 0.12884 0.0
C498 C 0.19483 0.78624 0.1408 0.0
C499 C 0.20762 0.80398 0.14686 0.0
C500 C 0.22497 0.8176 0.14068 0.0
C501 C 0.22932 0.81362 0.12869 0.0
C502 C 0.26009 0.81468 0.08559 0.0
C503 C 0.27332 0.83279 0.09111 0.0
C504 C 0.16265 0.44853 0.08643 0.0
C505 C 0.1662 0.45741 0.07462 0.0
C506 C 0.18437 0.46288 0.06871 0.0
C507 C 0.19853 0.45937 0.07442 0.0
H508 H 0.25475 0.46608 0.06978 0.0
H509 H 0.28455 0.47203 0.05862 0.0
H510 H 0.29666 0.4407 0.08703 0.0
H511 H 0.26686 0.43461 0.09818 0.0
H512 H 0.24192 0.42333 0.12365 0.0
H513 H 0.23467 0.40881 0.14444 0.0
H514 H 0.1809 0.41204 0.14543 0.0
H515 H 0.18784 0.42614 0.12464 0.0
H516 H 0.17344 0.4382 0.10124 0.0
H517 H 0.14895 0.44437 0.09133 0.0
H518 H 0.18751 0.46958 0.05956 0.0
H519 H 0.21227 0.46365 0.06954 0.0
N520 N 0.22662 0.45002 0.08621 0.0
N521 N 0.23628 0.43814 0.10337 0.0
N522 N 0.20638 0.43855 0.10393 0.0
C523 C 0.23998 0.44596 0.09168 0.0
C524 C 0.21953 0.43444 0.10959 0.0
C525 C 0.20974 0.44632 0.09227 0.0
C526 C 0.25829 0.44982 0.08491 0.0
C527 C 0.26373 0.46043 0.07367 0.0
C528 C 0.2809 0.46395 0.06729 0.0
C529 C 0.29298 0.45681 0.07191 0.0
C530 C 0.28757 0.44621 0.08313 0.0
C531 C 0.27051 0.44283 0.08957 0.0
C532 C 0.21545 0.42588 0.12237 0.0
C533 C 0.22854 0.42096 0.12829 0.0
C534 C 0.22445 0.41272 0.14026 0.0
C535 C 0.20715 0.40917 0.14663 0.0
C536 C 0.19418 0.41425 0.14075 0.0
C537 C 0.19826 0.42247 0.12881 0.0
C538 C 0.19492 0.45038 0.08621 0.0
C539 C 0.17681 0.4451 0.09215 0.0
C540 C 0.38229 0.88656 0.26199 0.0
C541 C 0.37727 0.87754 0.27377 0.0
C542 C 0.39006 0.87193 0.27933 0.0
C543 C 0.40744 0.87531 0.27328 0.0
H544 H 0.46082 0.87623 0.27932 0.0
H545 H 0.48482 0.86964 0.28974 0.0
H546 H 0.51781 0.88158 0.25536 0.0
H547 H 0.49382 0.88796 0.24489 0.0
H548 H 0.48118 0.90274 0.22128 0.0
H549 H 0.48823 0.91634 0.20027 0.0
H550 H 0.43804 0.92543 0.20232 0.0
H551 H 0.43102 0.91201 0.2234 0.0
H552 H 0.40287 0.89679 0.24684 0.0
H553 H 0.37267 0.89085 0.25736 0.0
H554 H 0.38678 0.86514 0.28845 0.0
H555 H 0.41692 0.87083 0.27788 0.0
N556 N 0.44403 0.8838 0.26074 0.0
N557 N 0.46432 0.89405 0.24297 0.0
N558 N 0.43472 0.89509 0.24314 0.0
C559 C 0.46082 0.88688 0.25482 0.0
C560 C 0.45139 0.89823 0.23705 0.0
C561 C 0.43087 0.88782 0.25497 0.0
C562 C 0.4753 0.88264 0.26122 0.0
C563 C 0.47315 0.8774 0.27395 0.0
C564 C 0.48698 0.87373 0.27996 0.0
C565 C 0.50325 0.87505 0.27339 0.0
C566 C 0.50533 0.88018 0.26067 0.0
C567 C 0.4916 0.88397 0.25468 0.0
C568 C 0.45552 0.90626 0.22412 0.0
C569 C 0.4716 0.90761 0.21729 0.0
C570 C 0.47559 0.91531 0.20517 0.0
C571 C 0.46371 0.92199 0.19959 0.0
C572 C 0.44762 0.92062 0.20639 0.0
C573 C 0.44354 0.9128 0.21847 0.0
C574 C 0.41245 0.88431 0.26147 0.0
C575 C 0.3996 0.88986 0.25591 0.0
C576 C 0.09887 0.48748 0.26224 0.0
C577 C 0.10983 0.49291 0.27349 0.0
C578 C 0.11595 0.51145 0.27859 0.0
C579 C 0.11121 0.52424 0.27259 0.0
H580 H 0.11104 0.57495 0.27839 0.0
H581 H 0.11904 0.60551 0.28861 0.0
H582 H 0.09978 0.62305 0.25562 0.0
H583 H 0.09133 0.59232 0.24545 0.0
H584 H 0.07409 0.56412 0.22272 0.0
H585 H 0.05957 0.5571 0.20185 0.0
H586 H 0.05566 0.5008 0.20251 0.0
H587 H 0.07062 0.50793 0.22335 0.0
H588 H 0.0857 0.49561 0.24756 0.0
H589 H 0.09368 0.4732 0.25814 0.0
H590 H 0.12468 0.51624 0.28713 0.0
H591 H 0.11629 0.53844 0.27679 0.0
N592 N 0.09981 0.54966 0.26057 0.0
N593 N 0.08717 0.55809 0.24326 0.0
N594 N 0.08692 0.52839 0.24336 0.0
C595 C 0.09568 0.56249 0.25482 0.0
C596 C 0.08273 0.54109 0.23745 0.0
C597 C 0.0955 0.53259 0.25492 0.0
C598 C 0.10053 0.58111 0.26107 0.0
C599 C 0.10847 0.58528 0.27329 0.0
C600 C 0.11318 0.60287 0.27914 0.0
C601 C 0.11009 0.61675 0.27293 0.0
C602 C 0.1021 0.61257 0.26073 0.0
C603 C 0.09736 0.59496 0.25488 0.0
C604 C 0.07357 0.5366 0.22477 0.0
C605 C 0.07014 0.55021 0.21847 0.0
C606 C 0.06168 0.54615 0.2065 0.0
C607 C 0.05638 0.52837 0.20051 0.0
C608 C 0.05978 0.51473 0.2068 0.0
C609 C 0.06827 0.5188 0.21879 0.0
C610 C 0.10031 0.51886 0.26131 0.0
C611 C 0.0942 0.50031 0.2562 0.0
C612 C 0.50689 0.6121 0.26 0.0
C613 C 0.50368 0.61703 0.27208 0.0
C614 C 0.48618 0.60402 0.27836 0.0
C615 C 0.47227 0.58645 0.27272 0.0
H616 H 0.4168 0.53899 0.27741 0.0
H617 H 0.38725 0.51622 0.28885 0.0
H618 H 0.37393 0.47223 0.26056 0.0
H619 H 0.4036 0.49492 0.2491 0.0
H620 H 0.42888 0.50748 0.22361 0.0
H621 H 0.436 0.49992 0.20276 0.0
H622 H 0.48894 0.55651 0.20134 0.0
H623 H 0.48215 0.56396 0.22217 0.0
H624 H 0.49601 0.59132 0.24503 0.0
H625 H 0.52008 0.62192 0.25483 0.0
H626 H 0.48336 0.60728 0.28774 0.0
H627 H 0.45902 0.57675 0.27788 0.0
N628 N 0.44414 0.54995 0.2608 0.0
N629 N 0.43436 0.52829 0.24372 0.0
N630 N 0.46413 0.55815 0.24299 0.0
C631 C 0.43081 0.53269 0.25542 0.0
C632 C 0.451 0.541 0.23743 0.0
C633 C 0.46086 0.56276 0.25466 0.0
C634 C 0.41266 0.51883 0.26231 0.0
C635 C 0.40762 0.52447 0.2736 0.0
C636 C 0.3906 0.51146 0.28014 0.0
C637 C 0.37826 0.49243 0.27562 0.0
C638 C 0.38327 0.48674 0.26435 0.0
C639 C 0.40022 0.4998 0.25775 0.0
C640 C 0.45496 0.53631 0.22465 0.0
C641 C 0.44205 0.51832 0.21887 0.0
C642 C 0.44607 0.51401 0.20687 0.0
C643 C 0.46309 0.52757 0.20039 0.0
C644 C 0.47588 0.54559 0.20614 0.0
C645 C 0.47189 0.5499 0.21809 0.0
C646 C 0.4755 0.58148 0.26064 0.0
C647 C 0.49299 0.59457 0.25435 0.0
Tb648 Tb 0.49207 0.98677 0.99189 0.0
C649 C 0.53669 0.06036 0.02469 0.0
C650 C 0.57122 0.06947 0.02297 0.0
C651 C 0.56227 0.09439 0.0266 0.0
C652 C 0.55092 0.0552 0.02276 0.0
C653 C 0.54214 0.07994 0.02694 0.0
C654 C 0.5768 0.08916 0.0246 0.0
C655 C 0.50761 0.06919 0.03077 0.0
N656 N 0.51749 0.04593 0.02505 0.0
C657 C 0.50299 0.04997 0.02852 0.0
C658 C 0.52724 0.08429 0.02982 0.0
Tb659 Tb 0.51117 0.01496 0.02075 0.0
N660 N 0.54485 0.03602 0.02135 0.0
C661 C 0.55857 0.03001 0.02108 0.0
C662 C 0.58526 0.06346 0.02189 0.0
C663 C 0.5789 0.04361 0.02114 0.0
H664 H 0.48775 0.03845 0.02921 0.0
H665 H 0.58963 0.03875 0.02055 0.0
H666 H 0.59231 0.10037 0.02466 0.0
H667 H 0.49601 0.07235 0.03322 0.0
H668 H 0.55404 0.01478 0.02041 0.0
H669 H 0.41368 0.96312 0.99124 0.0
H670 H 0.60101 0.07395 0.02195 0.0
H671 H 0.5157 0.96335 0.98375 0.0
H672 H 0.44926 0.98695 0.99236 0.0
H673 H 0.5075 0.92955 0.97945 0.0
H674 H 0.56677 0.10956 0.02818 0.0
H675 H 0.40232 0.92804 0.98888 0.0
H676 H 0.41097 0.90159 0.98648 0.0
H677 H 0.53079 0.09916 0.03161 0.0
H678 H 0.43657 0.89238 0.98334 0.0
N679 N 0.45842 0.96571 0.99118 0.0
C680 C 0.44473 0.97175 0.99143 0.0
C681 C 0.41804 0.93844 0.98958 0.0
C682 C 0.43207 0.93238 0.98881 0.0
C683 C 0.42441 0.95823 0.99082 0.0
C684 C 0.45237 0.94657 0.98952 0.0
H685 H 0.47264 0.90277 0.98048 0.0
N686 N 0.48585 0.95583 0.98758 0.0
C687 C 0.49585 0.93267 0.9818 0.0
C688 C 0.46663 0.94142 0.98769 0.0
C689 C 0.50043 0.95184 0.98422 0.0
C690 C 0.47617 0.91759 0.98244 0.0
C691 C 0.46121 0.9219 0.98519 0.0
O692 O 0.50573 0.99098 0.97429 0.0
O693 O 0.51612 0.0113 1.00137 0.0
O694 O 0.50733 0.03348 0.00726 0.0
O695 O 0.48396 0.00967 0.9938 0.0
O696 O 0.5236 0.99685 0.98873 0.0
O697 O 0.48067 0.99514 0.97675 0.0
O698 O 0.49723 0.01035 0.03828 0.0
O699 O 0.48711 0.99043 0.01126 0.0
O700 O 0.49577 0.96823 0.00544 0.0
O701 O 0.51928 0.99207 0.0188 0.0
O702 O 0.47965 0.00496 0.02381 0.0
O703 O 0.5228 0.007 0.03599 0.0
C704 C 0.53077 0.0115 0.99626 0.0
C705 C 0.48504 0.98522 0.9567 0.0
C706 C 0.48383 0.98689 0.93384 0.0
C707 C 0.49158 0.99592 0.94554 0.0
C708 C 0.46954 0.96692 0.93356 0.0
C709 C 0.47073 0.96539 0.95616 0.0
C710 C 0.46307 0.95631 0.94464 0.0
C711 C 0.49361 0.02773 0.99833 0.0
C712 C 0.49324 0.99498 0.9688 0.0
C713 C 0.44106 0.9075 0.98512 0.0
C714 C 0.42649 0.91274 0.98691 0.0
C715 C 0.47245 0.99027 0.01631 0.0
C716 C 0.5178 0.01667 0.05598 0.0
C717 C 0.51087 0.00612 0.06718 0.0
C718 C 0.51784 0.01545 0.07889 0.0
C719 C 0.53196 0.03546 0.07916 0.0
C720 C 0.53191 0.03656 0.05651 0.0
C721 C 0.53893 0.04588 0.06804 0.0
C722 C 0.50951 0.97397 0.01435 0.0
C723 C 0.50995 0.00678 0.04386 0.0
H724 H 0.50248 0.01131 0.946 0.0
H725 H 0.4635 0.95941 0.92475 0.0
H726 H 0.46548 0.95694 0.96461 0.0
H727 H 0.45209 0.94097 0.94429 0.0
H728 H 0.49985 0.99076 0.06677 0.0
H729 H 0.53783 0.04302 0.08798 0.0
H730 H 0.53749 0.04489 0.04803 0.0
H731 H 0.54985 0.06124 0.06838 0.0
Tb732 Tb 0.01966 0.5062 0.99272 0.0
C733 C 0.93992 0.47469 0.01919 0.0
C734 C 0.93097 0.49955 0.01629 0.0
C735 C 0.90515 0.46563 0.01807 0.0
C736 C 0.94547 0.49392 0.01743 0.0
C737 C 0.91972 0.46032 0.01986 0.0
C738 C 0.91077 0.48524 0.01627 0.0
C739 C 0.92995 0.43702 0.02515 0.0
N740 N 0.95447 0.47027 0.02098 0.0
C741 C 0.94979 0.45184 0.02443 0.0
C742 C 0.91483 0.44122 0.02268 0.0
Tb743 Tb 0.98657 0.49529 0.01913 0.0
N744 N 0.96511 0.50724 0.01766 0.0
C745 C 0.97119 0.52669 0.01778 0.0
C746 C 0.9372 0.5194 0.01563 0.0
C747 C 0.95739 0.53303 0.0166 0.0
H748 H 0.96135 0.4484 0.02625 0.0
H749 H 0.96237 0.54845 0.01636 0.0
H750 H 0.89941 0.48924 0.01523 0.0
H751 H 0.92633 0.42237 0.02757 0.0
H752 H 0.98671 0.5375 0.01841 0.0
H753 H 0.04376 0.45299 0.99312 0.0
H754 H 0.92656 0.52435 0.0147 0.0
H755 H 0.0445 0.5536 0.98691 0.0
H756 H 0.01944 0.46406 0.9937 0.0
H757 H 0.07937 0.57963 0.98492 0.0
H758 H 0.88953 0.45479 0.0184 0.0
H759 H 0.07959 0.47698 0.99206 0.0
H760 H 0.10675 0.51198 0.99175 0.0
H761 H 0.89948 0.42973 0.02328 0.0
H762 H 0.11653 0.54659 0.98987 0.0
N763 N 0.04114 0.49431 0.99361 0.0
C764 C 0.03498 0.47483 0.99349 0.0
C765 C 0.06897 0.48199 0.99271 0.0
C766 C 0.07525 0.50187 0.9927 0.0
C767 C 0.04876 0.46842 0.99317 0.0
C768 C 0.06077 0.50761 0.99301 0.0
H769 H 0.10639 0.57196 0.98717 0.0
N770 N 0.05162 0.53145 0.99085 0.0
C771 C 0.07589 0.56486 0.98687 0.0
C772 C 0.06623 0.52692 0.99169 0.0
C773 C 0.05612 0.55004 0.98798 0.0
C774 C 0.0911 0.5605 0.98819 0.0
C775 C 0.08636 0.54125 0.99038 0.0
O776 O 0.01869 0.51673 0.97483 0.0
O777 O 0.99324 0.50474 1.00006 0.0
O778 O 0.96999 0.47389 0.00451 0.0
O779 O 0.99608 0.47519 0.993 0.0
O780 O 0.00973 0.5271 0.98834 0.0
O781 O 0.01403 0.48773 0.97719 0.0
O782 O 0.98747 0.48499 0.03712 0.0
O783 O 0.01297 0.49663 0.01178 0.0
O784 O 0.03631 0.52713 0.00754 0.0
O785 O 0.01024 0.52629 0.01879 0.0
O786 O 0.99655 0.47442 0.02358 0.0
O787 O 0.99191 0.51385 0.03457 0.0
C788 C 0.99369 0.51909 0.99474 0.0
C789 C 0.02808 0.50361 0.95816 0.0
C790 C 0.03086 0.50371 0.93541 0.0
C791 C 0.01949 0.50094 0.94622 0.0
C792 C 0.051 0.50925 0.93672 0.0
C793 C 0.04814 0.50901 0.95929 0.0
C794 C 0.05953 0.51183 0.94861 0.0
C795 C 0.97706 0.46652 0.99618 0.0
C796 C 0.01583 0.50092 0.96922 0.0
C797 C 0.10096 0.53579 0.99079 0.0
C798 C 0.0954 0.5161 0.99186 0.0
C799 C 0.01255 0.48231 0.01712 0.0
C800 C 0.9773 0.49792 0.05348 0.0
C801 C 0.9852 0.49999 0.06559 0.0
C802 C 0.97339 0.4973 0.07618 0.0
C803 C 0.95349 0.49243 0.07443 0.0
C804 C 0.95748 0.49317 0.05194 0.0
C805 C 0.94564 0.4904 0.06237 0.0
C806 C 0.02929 0.53475 0.01572 0.0
C807 C 0.99001 0.50075 0.04264 0.0
H808 H 0.00402 0.49694 0.94537 0.0
H809 H 0.06006 0.5113 0.92857 0.0
H810 H 0.055 0.51104 0.96835 0.0
H811 H 0.07502 0.51599 0.94956 0.0
H812 H 1.00063 0.50397 0.06673 0.0
H813 H 0.94393 0.49 0.08237 0.0
H814 H 0.95116 0.49162 0.04272 0.0
H815 H 0.93032 0.48665 0.06111 0.0
Tb816 Tb 0.51195 0.49444 0.02074 0.0
C817 C 0.46677 0.52626 0.99086 0.0
C818 C 0.43218 0.50209 0.99329 0.0
C819 C 0.44173 0.53604 0.99025 0.0
C820 C 0.45234 0.50725 0.99284 0.0
C821 C 0.46168 0.54086 0.98924 0.0
C822 C 0.42699 0.51666 0.99229 0.0
C823 C 0.49609 0.56341 0.98467 0.0
N824 N 0.48578 0.53022 0.98985 0.0
C825 C 0.50035 0.54838 0.98631 0.0
C826 C 0.4767 0.55971 0.9863 0.0
Tb827 Tb 0.49154 0.50487 0.99311 0.0
N828 N 0.45801 0.49366 0.9936 0.0
C829 C 0.44395 0.4743 0.99387 0.0
C830 C 0.41784 0.4824 0.99435 0.0
C831 C 0.42376 0.46843 0.99444 0.0
H832 H 0.51541 0.55146 0.98511 0.0
H833 H 0.41278 0.45312 0.99501 0.0
H834 H 0.41161 0.51302 0.99275 0.0
H835 H 0.50776 0.57785 0.98217 0.0
H836 H 0.44815 0.46325 0.99404 0.0
H837 H 0.59057 0.54668 0.02087 0.0
H838 H 0.4022 0.47781 0.99479 0.0
H839 H 0.48775 0.44739 0.02756 0.0
H840 H 0.55511 0.53619 0.02 0.0
H841 H 0.49548 0.42107 0.03061 0.0
H842 H 0.43751 0.54707 0.98917 0.0
H843 H 0.60137 0.52227 0.02258 0.0
H844 H 0.59223 0.48712 0.02385 0.0
H845 H 0.47342 0.57136 0.98498 0.0
H846 H 0.56629 0.4528 0.0263 0.0
N847 N 0.54548 0.50583 0.02062 0.0
C848 C 0.55941 0.52523 0.02056 0.0
C849 C 0.58571 0.5175 0.02188 0.0
C850 C 0.57146 0.49772 0.02224 0.0
C851 C 0.57965 0.53131 0.02104 0.0
C852 C 0.55124 0.49233 0.02172 0.0
H853 H 0.53014 0.42804 0.029 0.0
N854 N 0.51765 0.46902 0.02376 0.0
C855 C 0.50724 0.43566 0.02851 0.0
C856 C 0.53678 0.47319 0.0233 0.0
C857 C 0.50293 0.45065 0.0268 0.0
C858 C 0.52681 0.43963 0.02755 0.0
C859 C 0.54193 0.45867 0.02515 0.0
O860 O 0.49933 0.48475 0.03852 0.0
O861 O 0.4876 0.49617 0.01242 0.0
O862 O 0.4966 0.52701 0.0071 0.0
O863 O 0.52051 0.52552 0.01961 0.0
O864 O 0.48049 0.47406 0.02458 0.0
O865 O 0.5247 0.51338 0.03614 0.0
O866 O 0.50429 0.51396 0.9753 0.0
O867 O 0.51598 0.50329 1.00147 0.0
O868 O 0.50739 0.47278 0.00649 0.0
O869 O 0.48288 0.4738 0.9944 0.0
O870 O 0.52301 0.52532 0.98928 0.0
O871 O 0.47825 0.48586 0.97779 0.0
C872 C 0.4731 0.48212 0.0177 0.0
C873 C 0.52131 0.49809 0.05565 0.0
C874 C 0.52228 0.4977 0.07853 0.0
C875 C 0.51422 0.50015 0.0673 0.0
C876 C 0.5375 0.49304 0.07787 0.0
C877 C 0.53655 0.49355 0.05523 0.0
C878 C 0.54456 0.49101 0.06629 0.0
C879 C 0.51087 0.53444 0.01568 0.0
C880 C 0.51252 0.50064 0.04411 0.0
C881 C 0.56201 0.46375 0.02498 0.0
C882 C 0.57677 0.48328 0.02358 0.0
C883 C 0.53049 0.51742 0.99625 0.0
C884 C 0.48212 0.50121 0.95825 0.0
C885 C 0.48931 0.49932 0.94659 0.0
C886 C 0.48174 0.5025 0.9354 0.0
C887 C 0.46684 0.50759 0.93607 0.0
C888 C 0.46719 0.50618 0.95871 0.0
C889 C 0.45962 0.50937 0.94766 0.0
C890 C 0.49287 0.46513 0.99807 0.0
C891 C 0.49066 0.49826 0.96977 0.0
H892 H 0.50262 0.50393 0.06759 0.0
H893 H 0.54382 0.49075 0.0863 0.0
H894 H 0.54227 0.49199 0.04639 0.0
H895 H 0.55627 0.48742 0.06588 0.0
H896 H 0.50099 0.49566 0.94627 0.0
H897 H 0.46056 0.50991 0.92763 0.0
H898 H 0.46137 0.50759 0.96756 0.0
H899 H 0.44808 0.51319 0.94808 0.0
Tb900 Tb 0.1595 0.31929 0.3258 0.0
C901 C 0.20473 0.39387 0.35771 0.0
C902 C 0.23923 0.40293 0.35585 0.0
C903 C 0.23032 0.42794 0.35922 0.0
C904 C 0.21893 0.38866 0.35582 0.0
C905 C 0.2102 0.41351 0.35974 0.0
C906 C 0.24483 0.42266 0.35726 0.0
C907 C 0.17573 0.40286 0.36374 0.0
N908 N 0.18553 0.37946 0.35823 0.0
C909 C 0.17109 0.38358 0.36169 0.0
C910 C 0.19535 0.41793 0.36259 0.0
Tb911 Tb 0.17916 0.34838 0.3543 0.0
N912 N 0.21285 0.36944 0.35462 0.0
C913 C 0.22657 0.36344 0.35438 0.0
C914 C 0.25326 0.3969 0.35482 0.0
C915 C 0.24689 0.37703 0.35428 0.0
H916 H 0.15587 0.37207 0.36251 0.0
H917 H 0.25762 0.37217 0.35373 0.0
H918 H 0.26034 0.43387 0.35718 0.0
H919 H 0.16418 0.40608 0.36617 0.0
H920 H 0.22204 0.34819 0.35388 0.0
H921 H 0.08093 0.29493 0.32677 0.0
H922 H 0.269 0.40739 0.35474 0.0
H923 H 0.18289 0.29598 0.31694 0.0
H924 H 0.11646 0.3191 0.3264 0.0
H925 H 0.17477 0.26211 0.31298 0.0
H926 H 0.23485 0.44315 0.36064 0.0
H927 H 0.0698 0.25975 0.32584 0.0
H928 H 0.0787 0.23346 0.3232 0.0
H929 H 0.19892 0.43284 0.36422 0.0
H930 H 0.10431 0.22448 0.31931 0.0
N931 N 0.12585 0.29801 0.32565 0.0
C932 C 0.11203 0.30388 0.32593 0.0
C933 C 0.08551 0.27033 0.32568 0.0
C934 C 0.09964 0.26444 0.32453 0.0
C935 C 0.09174 0.29017 0.32616 0.0
C936 C 0.1199 0.27883 0.32446 0.0
H937 H 0.1402 0.23512 0.31521 0.0
N938 N 0.15328 0.28832 0.32165 0.0
C939 C 0.1632 0.26518 0.31567 0.0
C940 C 0.13416 0.27378 0.32233 0.0
C941 C 0.16773 0.28438 0.3179 0.0
C942 C 0.14368 0.24998 0.31697 0.0
C943 C 0.1288 0.25421 0.32015 0.0
O944 O 0.17292 0.3235 0.30811 0.0
O945 O 0.18366 0.34412 0.33495 0.0
O946 O 0.17491 0.36641 0.34062 0.0
O947 O 0.15124 0.34213 0.32755 0.0
O948 O 0.19097 0.32943 0.3224 0.0
O949 O 0.14741 0.3269 0.31065 0.0
O950 O 0.16547 0.34428 0.37188 0.0
O951 O 0.15506 0.32352 0.34516 0.0
O952 O 0.16403 0.30125 0.33935 0.0
O953 O 0.18731 0.32549 0.35265 0.0
O954 O 0.14766 0.33825 0.35761 0.0
O955 O 0.19112 0.34101 0.36965 0.0
C956 C 0.19824 0.34426 0.32978 0.0
C957 C 0.15178 0.31681 0.29066 0.0
C958 C 0.15077 0.31779 0.26776 0.0
C959 C 0.15849 0.32715 0.27938 0.0
C960 C 0.13633 0.29787 0.26769 0.0
C961 C 0.13733 0.29702 0.29033 0.0
C962 C 0.12969 0.28762 0.27889 0.0
C963 C 0.16099 0.36035 0.33181 0.0
C964 C 0.16001 0.32693 0.30265 0.0
C965 C 0.10875 0.23964 0.32083 0.0
C966 C 0.09417 0.24476 0.32304 0.0
C967 C 0.14045 0.32335 0.35029 0.0
C968 C 0.18624 0.3511 0.38952 0.0
C969 C 0.17931 0.34078 0.40079 0.0
C970 C 0.18628 0.35031 0.41244 0.0
C971 C 0.20041 0.37032 0.41258 0.0
C972 C 0.20035 0.371 0.3899 0.0
C973 C 0.20738 0.38053 0.40138 0.0
C974 C 0.17776 0.30731 0.3483 0.0
C975 C 0.17833 0.34094 0.3775 0.0
H976 H 0.16949 0.34251 0.27968 0.0
H977 H 0.1303 0.29011 0.25895 0.0
H978 H 0.13194 0.28886 0.29889 0.0
H979 H 0.11859 0.27231 0.2787 0.0
H980 H 0.16826 0.32542 0.40048 0.0
H981 H 0.20627 0.37804 0.42135 0.0
H982 H 0.20592 0.37916 0.38136 0.0
H983 H 0.21831 0.3959 0.40161 0.0
Tb984 Tb 0.68693 0.83961 0.32542 0.0
C985 C 0.60695 0.80828 0.35138 0.0
C986 C 0.59798 0.83311 0.34838 0.0
C987 C 0.57218 0.79916 0.34996 0.0
C988 C 0.61249 0.82752 0.34964 0.0
C989 C 0.58675 0.79387 0.35187 0.0
C990 C 0.5778 0.81877 0.34821 0.0
C991 C 0.59694 0.77054 0.35717 0.0
N992 N 0.6215 0.80388 0.35328 0.0
C993 C 0.61678 0.78541 0.35666 0.0
C994 C 0.58185 0.77473 0.3546 0.0
Tb995 Tb 0.6536 0.82898 0.35166 0.0
N996 N 0.63213 0.84087 0.34998 0.0
C997 C 0.63817 0.86032 0.35008 0.0
C998 C 0.60419 0.85296 0.34773 0.0
C999 C 0.62436 0.86662 0.34879 0.0
H1000 H 0.62833 0.78198 0.35857 0.0
H1001 H 0.62931 0.88203 0.34854 0.0
H1002 H 0.56643 0.82274 0.34708 0.0
H1003 H 0.5933 0.75585 0.35951 0.0
H1004 H 0.65368 0.87114 0.35077 0.0
H1005 H 0.71141 0.78673 0.32669 0.0
H1006 H 0.59353 0.85788 0.34672 0.0
H1007 H 0.71154 0.88681 0.31903 0.0
H1008 H 0.68696 0.79764 0.327 0.0
H1009 H 0.74634 0.91288 0.31684 0.0
H1010 H 0.55656 0.78828 0.35016 0.0
H1011 H 0.7472 0.81082 0.32554 0.0
H1012 H 0.77424 0.84585 0.32501 0.0
H1013 H 0.56649 0.7632 0.35504 0.0
H1014 H 0.78383 0.88035 0.32266 0.0
N1015 N 0.70855 0.82792 0.32672 0.0
C1016 C 0.70248 0.80847 0.32678 0.0
C1017 C 0.73653 0.81578 0.32611 0.0
C1018 C 0.74271 0.83563 0.32593 0.0
C1019 C 0.71634 0.80214 0.3266 0.0
C1020 C 0.72816 0.84128 0.3261 0.0
H1021 H 0.7735 0.90547 0.31944 0.0
N1022 N 0.71883 0.8649 0.32342 0.0
C1023 C 0.74295 0.89821 0.31902 0.0
C1024 C 0.73351 0.86051 0.32447 0.0
C1025 C 0.72322 0.88336 0.32026 0.0
C1026 C 0.75824 0.894 0.32055 0.0
C1027 C 0.75361 0.87487 0.32305 0.0
O1028 O 0.68604 0.84967 0.30734 0.0
O1029 O 0.66046 0.83826 0.33257 0.0
O1030 O 0.63722 0.80767 0.33697 0.0
O1031 O 0.66343 0.80856 0.32588 0.0
O1032 O 0.67691 0.86034 0.32067 0.0
O1033 O 0.68143 0.82077 0.31011 0.0
O1034 O 0.65417 0.81866 0.36969 0.0
O1035 O 0.68017 0.83038 0.34455 0.0
O1036 O 0.70343 0.86093 0.34009 0.0
O1037 O 0.67725 0.85997 0.3513 0.0
O1038 O 0.66361 0.80822 0.35635 0.0
O1039 O 0.65855 0.84749 0.36707 0.0
C1040 C 0.66089 0.85249 0.32709 0.0
C1041 C 0.69592 0.83632 0.29106 0.0
C1042 C 0.69976 0.83719 0.26835 0.0
C1043 C 0.6881 0.83477 0.27898 0.0
C1044 C 0.71943 0.84131 0.27003 0.0
C1045 C 0.7155 0.84028 0.29252 0.0
C1046 C 0.7272 0.84281 0.28205 0.0
C1047 C 0.64436 0.80003 0.32892 0.0
C1048 C 0.68336 0.83377 0.30195 0.0
C1049 C 0.76829 0.86953 0.32366 0.0
C1050 C 0.76284 0.8499 0.32501 0.0
C1051 C 0.67974 0.81613 0.35002 0.0
C1052 C 0.64353 0.83143 0.38588 0.0
C1053 C 0.65104 0.83306 0.39806 0.0
C1054 C 0.63895 0.83017 0.40853 0.0
C1055 C 0.61916 0.82555 0.40658 0.0
C1056 C 0.62382 0.82693 0.38414 0.0
C1057 C 0.6117 0.82397 0.39445 0.0
C1058 C 0.69631 0.86852 0.34822 0.0
C1059 C 0.65651 0.83438 0.37517 0.0
H1060 H 0.67284 0.83138 0.27789 0.0
H1061 H 0.72889 0.84354 0.26206 0.0
H1062 H 0.72176 0.84137 0.30168 0.0
H1063 H 0.74234 0.84595 0.28326 0.0
H1064 H 0.66639 0.83685 0.39935 0.0
H1065 H 0.60938 0.82297 0.41442 0.0
H1066 H 0.61779 0.82573 0.37487 0.0
H1067 H 0.59646 0.82041 0.39304 0.0
Tb1068 Tb 0.17851 0.82825 0.35417 0.0
C1069 C 0.13498 0.86156 0.32392 0.0
C1070 C 0.10021 0.83716 0.32449 0.0
C1071 C 0.10998 0.8713 0.32226 0.0
C1072 C 0.12038 0.8424 0.32514 0.0
C1073 C 0.13002 0.87625 0.32225 0.0
C1074 C 0.09508 0.85175 0.32333 0.0
C1075 C 0.16486 0.89922 0.31944 0.0
N1076 N 0.15408 0.86562 0.32363 0.0
C1077 C 0.16898 0.88407 0.32095 0.0
C1078 C 0.14531 0.89534 0.32022 0.0
Tb1079 Tb 0.15949 0.83995 0.32648 0.0
N1080 N 0.12598 0.82877 0.32612 0.0
C1081 C 0.11196 0.8094 0.32585 0.0
C1082 C 0.08585 0.8174 0.32457 0.0
C1083 C 0.09176 0.80346 0.32523 0.0
H1084 H 0.18416 0.88728 0.32035 0.0
H1085 H 0.08076 0.78812 0.32517 0.0
H1086 H 0.07965 0.84803 0.32296 0.0
H1087 H 0.17677 0.91387 0.31764 0.0
H1088 H 0.11614 0.79835 0.3263 0.0
H1089 H 0.25722 0.88017 0.35528 0.0
H1090 H 0.07022 0.81276 0.32379 0.0
H1091 H 0.15396 0.78099 0.36045 0.0
H1092 H 0.22182 0.86989 0.3543 0.0
H1093 H 0.16143 0.75445 0.3632 0.0
H1094 H 0.10584 0.88238 0.32109 0.0
H1095 H 0.26782 0.85557 0.35656 0.0
H1096 H 0.25845 0.82032 0.35742 0.0
H1097 H 0.14213 0.90707 0.31894 0.0
H1098 H 0.23231 0.78597 0.35942 0.0
N1099 N 0.21203 0.83948 0.35445 0.0
C1100 C 0.22603 0.85886 0.3547 0.0
C1101 C 0.25219 0.8509 0.35584 0.0
C1102 C 0.23785 0.83114 0.35596 0.0
C1103 C 0.24625 0.86482 0.35525 0.0
C1104 C 0.21766 0.82587 0.35538 0.0
H1105 H 0.19606 0.76127 0.36176 0.0
N1106 N 0.18399 0.80263 0.35701 0.0
C1107 C 0.1733 0.76908 0.36132 0.0
C1108 C 0.20309 0.80671 0.35666 0.0
C1109 C 0.16913 0.7842 0.35979 0.0
C1110 C 0.19285 0.77297 0.36046 0.0
C1111 C 0.2081 0.79205 0.35833 0.0
O1112 O 0.16521 0.81798 0.37172 0.0
O1113 O 0.15449 0.83032 0.34559 0.0
O1114 O 0.16344 0.86105 0.34098 0.0
O1115 O 0.18723 0.8594 0.35346 0.0
O1116 O 0.14685 0.80768 0.35733 0.0
O1117 O 0.19073 0.84663 0.36988 0.0
O1118 O 0.17272 0.85023 0.30891 0.0
O1119 O 0.1835 0.8379 0.33506 0.0
O1120 O 0.17447 0.80708 0.33969 0.0
O1121 O 0.15071 0.80878 0.32721 0.0
O1122 O 0.19114 0.86053 0.32331 0.0
O1123 O 0.14737 0.82148 0.3108 0.0
C1124 C 0.13972 0.81598 0.35045 0.0
C1125 C 0.1866 0.83065 0.38919 0.0
C1126 C 0.18731 0.83018 0.41207 0.0
C1127 C 0.17962 0.833 0.4008 0.0
C1128 C 0.20206 0.82485 0.41148 0.0
C1129 C 0.20136 0.82544 0.38883 0.0
C1130 C 0.209 0.82253 0.39993 0.0
C1131 C 0.17754 0.86832 0.34967 0.0
C1132 C 0.17824 0.83365 0.3776 0.0
C1133 C 0.22814 0.79703 0.35824 0.0
C1134 C 0.24301 0.81657 0.3571 0.0
C1135 C 0.19828 0.85223 0.3302 0.0
C1136 C 0.15138 0.83726 0.29144 0.0
C1137 C 0.15786 0.83408 0.27988 0.0
C1138 C 0.15007 0.8366 0.26856 0.0
C1139 C 0.13571 0.84245 0.26904 0.0
C1140 C 0.13703 0.84301 0.29169 0.0
C1141 C 0.12927 0.84561 0.28054 0.0
C1142 C 0.16038 0.79983 0.331 0.0
C1143 C 0.1598 0.83447 0.30307 0.0
H1144 H 0.1684 0.83729 0.40103 0.0
H1145 H 0.20808 0.82226 0.41994 0.0
H1146 H 0.20698 0.82365 0.38003 0.0
H1147 H 0.22034 0.81843 0.39959 0.0
H1148 H 0.16877 0.82937 0.27973 0.0
H1149 H 0.12962 0.84479 0.26052 0.0
H1150 H 0.13181 0.84547 0.30046 0.0
H1151 H 0.11825 0.85013 0.2808 0.0
Tb1152 Tb 0.82517 0.65334 0.65955 0.0
C1153 C 0.86934 0.7272 0.69235 0.0
C1154 C 0.90405 0.73692 0.69086 0.0
C1155 C 0.89444 0.76135 0.69455 0.0
C1156 C 0.88385 0.72241 0.69043 0.0
C1157 C 0.8744 0.74666 0.69469 0.0
C1158 C 0.90926 0.75649 0.69264 0.0
C1159 C 0.83969 0.7353 0.69826 0.0
N1160 N 0.85024 0.71253 0.69258 0.0
C1161 C 0.83546 0.71621 0.69596 0.0
C1162 C 0.85922 0.75064 0.69748 0.0
Tb1163 Tb 0.84461 0.68177 0.68831 0.0
N1164 N 0.87816 0.70333 0.68888 0.0
C1165 C 0.89213 0.69767 0.68857 0.0
C1166 C 0.91838 0.73126 0.68989 0.0
C1167 C 0.91238 0.71152 0.68888 0.0
H1168 H 0.82028 0.70452 0.69653 0.0
H1169 H 0.92334 0.70694 0.68832 0.0
H1170 H 0.9247 0.76788 0.69287 0.0
H1171 H 0.82787 0.73817 0.70064 0.0
H1172 H 0.88786 0.68252 0.68775 0.0
H1173 H 0.74652 0.6286 0.65952 0.0
H1174 H 0.93405 0.74196 0.69021 0.0
H1175 H 0.84929 0.63032 0.65147 0.0
H1176 H 0.78202 0.65287 0.66009 0.0
H1177 H 0.84151 0.59659 0.64742 0.0
H1178 H 0.89865 0.77643 0.69622 0.0
H1179 H 0.7356 0.59355 0.65761 0.0
H1180 H 0.74475 0.56748 0.65489 0.0
H1181 H 0.86247 0.7654 0.69933 0.0
H1182 H 0.77066 0.55872 0.6516 0.0
N1183 N 0.79158 0.63194 0.6589 0.0
C1184 C 0.77768 0.63771 0.65924 0.0
C1185 C 0.7513 0.60417 0.6579 0.0
C1186 C 0.76554 0.59841 0.65689 0.0
C1187 C 0.75741 0.62394 0.65893 0.0
C1188 C 0.78577 0.61284 0.65732 0.0
H1189 H 0.80681 0.56953 0.64862 0.0
N1190 N 0.81935 0.62251 0.6553 0.0
C1191 C 0.82974 0.59956 0.64972 0.0
C1192 C 0.8002 0.60793 0.65547 0.0
C1193 C 0.83408 0.6187 0.652 0.0
C1194 C 0.81015 0.58432 0.65044 0.0
C1195 C 0.79503 0.58843 0.65315 0.0
O1196 O 0.8389 0.65798 0.64195 0.0
O1197 O 0.8493 0.678 0.6689 0.0
O1198 O 0.84054 0.70008 0.67474 0.0
O1199 O 0.81675 0.67598 0.66164 0.0
O1200 O 0.85667 0.66361 0.65615 0.0
O1201 O 0.81322 0.66114 0.64441 0.0
O1202 O 0.8311 0.67718 0.70599 0.0
O1203 O 0.82051 0.65715 0.67895 0.0
O1204 O 0.82918 0.63505 0.67312 0.0
O1205 O 0.85306 0.65911 0.68621 0.0
O1206 O 0.81309 0.67134 0.69181 0.0
O1207 O 0.85671 0.67395 0.70337 0.0
C1208 C 0.86391 0.67826 0.66368 0.0
C1209 C 0.8181 0.65151 0.62437 0.0
C1210 C 0.81828 0.65276 0.60148 0.0
C1211 C 0.82527 0.66202 0.6132 0.0
C1212 C 0.8039 0.63283 0.60117 0.0
C1213 C 0.80374 0.6317 0.62383 0.0
C1214 C 0.7967 0.62243 0.61228 0.0
C1215 C 0.82657 0.69416 0.66597 0.0
C1216 C 0.82601 0.66141 0.63647 0.0
C1217 C 0.77496 0.57383 0.65325 0.0
C1218 C 0.76021 0.57881 0.65512 0.0
C1219 C 0.80588 0.65676 0.68423 0.0
C1220 C 0.85216 0.68369 0.72345 0.0
C1221 C 0.84539 0.67322 0.73468 0.0
C1222 C 0.85261 0.68259 0.74635 0.0
C1223 C 0.8668 0.70258 0.74655 0.0
C1224 C 0.86634 0.70357 0.7239 0.0
C1225 C 0.87361 0.71293 0.7354 0.0
C1226 C 0.84326 0.64096 0.6818 0.0
C1227 C 0.84404 0.67373 0.71139 0.0
H1228 H 0.83652 0.6773 0.61363 0.0
H1229 H 0.79802 0.62533 0.59234 0.0
H1230 H 0.79799 0.62339 0.6323 0.0
H1231 H 0.78558 0.60713 0.61193 0.0
H1232 H 0.83429 0.65788 0.73433 0.0
H1233 H 0.87286 0.71017 0.75533 0.0
H1234 H 0.87178 0.71184 0.7154 0.0
H1235 H 0.88459 0.72828 0.73567 0.0
Tb1236 Tb 0.35263 0.17167 0.66036 0.0
C1237 C 0.27197 0.14252 0.68587 0.0
C1238 C 0.26334 0.16739 0.68193 0.0
C1239 C 0.23729 0.13373 0.6845 0.0
C1240 C 0.2777 0.16166 0.68352 0.0
C1241 C 0.25172 0.12835 0.68668 0.0
C1242 C 0.24309 0.15324 0.68212 0.0
C1243 C 0.26162 0.10513 0.69285 0.0
N1244 N 0.28639 0.13803 0.68804 0.0
C1245 C 0.28151 0.11976 0.69198 0.0
C1246 C 0.24664 0.10937 0.69004 0.0
Tb1247 Tb 0.31858 0.16277 0.68607 0.0
N1248 N 0.29739 0.17484 0.68356 0.0
C1249 C 0.30365 0.19432 0.68298 0.0
C1250 C 0.26976 0.1872 0.68059 0.0
C1251 C 0.28999 0.20074 0.68131 0.0
H1252 H 0.29296 0.11628 0.69411 0.0
H1253 H 0.29512 0.21614 0.68051 0.0
H1254 H 0.23183 0.15731 0.68077 0.0
H1255 H 0.25785 0.09059 0.69568 0.0
H1256 H 0.31921 0.20505 0.68343 0.0
H1257 H 0.3756 0.11785 0.66537 0.0
H1258 H 0.25922 0.19221 0.67929 0.0
H1259 H 0.37862 0.21833 0.65276 0.0
H1260 H 0.3517 0.12919 0.66252 0.0
H1261 H 0.41383 0.24398 0.65169 0.0
H1262 H 0.22163 0.12302 0.68495 0.0
H1263 H 0.4115 0.14161 0.66704 0.0
H1264 H 0.43903 0.17653 0.66621 0.0
H1265 H 0.23124 0.09804 0.69076 0.0
H1266 H 0.4495 0.21099 0.66243 0.0
N1267 N 0.37363 0.15936 0.66281 0.0
C1268 C 0.36726 0.13985 0.66316 0.0
C1269 C 0.40105 0.14674 0.66577 0.0
C1270 C 0.40759 0.16661 0.6647 0.0
C1271 C 0.38081 0.13329 0.66479 0.0
C1272 C 0.39333 0.17248 0.66309 0.0
H1273 H 0.4402 0.23626 0.65677 0.0
N1274 N 0.38492 0.19635 0.65873 0.0
C1275 C 0.40992 0.22935 0.65436 0.0
C1276 C 0.39921 0.19171 0.66096 0.0
C1277 C 0.38998 0.21474 0.65495 0.0
C1278 C 0.42476 0.22494 0.65728 0.0
C1279 C 0.4195 0.20585 0.66042 0.0
O1280 O 0.35239 0.1812 0.64204 0.0
O1281 O 0.32617 0.17104 0.66686 0.0
O1282 O 0.30231 0.14058 0.67179 0.0
O1283 O 0.32862 0.14085 0.66112 0.0
O1284 O 0.34313 0.19243 0.65462 0.0
O1285 O 0.34772 0.1524 0.64541 0.0
O1286 O 0.31927 0.15367 0.70446 0.0
O1287 O 0.34492 0.16326 0.6795 0.0
O1288 O 0.3688 0.19359 0.6748 0.0
O1289 O 0.34245 0.19362 0.68516 0.0
O1290 O 0.32813 0.14204 0.69185 0.0
O1291 O 0.32359 0.18229 0.70088 0.0
C1292 C 0.32692 0.18501 0.66085 0.0
C1293 C 0.36275 0.16743 0.62634 0.0
C1294 C 0.36711 0.16771 0.60372 0.0
C1295 C 0.35511 0.1652 0.61416 0.0
C1296 C 0.38695 0.17255 0.60567 0.0
C1297 C 0.38251 0.17211 0.62813 0.0
C1298 C 0.39455 0.17468 0.61782 0.0
C1299 C 0.30949 0.13261 0.66399 0.0
C1300 C 0.34988 0.16515 0.63698 0.0
C1301 C 0.43381 0.20032 0.66267 0.0
C1302 C 0.42785 0.18071 0.66481 0.0
C1303 C 0.34422 0.14931 0.6855 0.0
C1304 C 0.30885 0.16752 0.72006 0.0
C1305 C 0.31632 0.16918 0.73225 0.0
C1306 C 0.30441 0.16691 0.74271 0.0
C1307 C 0.28482 0.16291 0.74074 0.0
C1308 C 0.28933 0.16362 0.71829 0.0
C1309 C 0.27738 0.1613 0.72859 0.0
C1310 C 0.36161 0.20172 0.68244 0.0
C1311 C 0.32166 0.16975 0.7094 0.0
H1312 H 0.33987 0.16178 0.61282 0.0
H1313 H 0.3965 0.17441 0.59782 0.0
H1314 H 0.38864 0.1738 0.63742 0.0
H1315 H 0.4098 0.1783 0.61925 0.0
H1316 H 0.33153 0.17251 0.73355 0.0
H1317 H 0.27517 0.16082 0.74857 0.0
H1318 H 0.28333 0.16239 0.70899 0.0
H1319 H 0.2623 0.15821 0.72716 0.0
Tb1320 Tb 0.84527 0.15984 0.68748 0.0
C1321 C 0.80256 0.19423 0.65742 0.0
C1322 C 0.76773 0.16996 0.65781 0.0
C1323 C 0.77772 0.20418 0.65579 0.0
C1324 C 0.78786 0.17508 0.6585 0.0
C1325 C 0.79773 0.20902 0.65582 0.0
C1326 C 0.76273 0.18466 0.65674 0.0
C1327 C 0.83263 0.23187 0.65311 0.0
N1328 N 0.82162 0.19818 0.65717 0.0
C1329 C 0.83662 0.21662 0.65457 0.0
C1330 C 0.81311 0.2281 0.65388 0.0
Tb1331 Tb 0.82681 0.17235 0.65984 0.0
N1332 N 0.79334 0.16135 0.65938 0.0
C1333 C 0.77924 0.14201 0.65895 0.0
C1334 C 0.75328 0.15023 0.65774 0.0
C1335 C 0.75907 0.1362 0.65828 0.0
H1336 H 0.85177 0.21974 0.65398 0.0
H1337 H 0.748 0.12088 0.6581 0.0
H1338 H 0.74733 0.18103 0.65633 0.0
H1339 H 0.84461 0.2465 0.65138 0.0
H1340 H 0.78332 0.13089 0.65931 0.0
H1341 H 0.92414 0.21117 0.6888 0.0
H1342 H 0.73768 0.14569 0.65693 0.0
H1343 H 0.82031 0.11258 0.69369 0.0
H1344 H 0.88882 0.20123 0.68787 0.0
H1345 H 0.82743 0.0858 0.69639 0.0
H1346 H 0.77368 0.21535 0.65467 0.0
H1347 H 0.9344 0.18629 0.68984 0.0
H1348 H 0.92465 0.15093 0.69057 0.0
H1349 H 0.81004 0.2399 0.65265 0.0
H1350 H 0.89826 0.11668 0.69251 0.0
N1351 N 0.87873 0.17076 0.68782 0.0
C1352 C 0.89288 0.19009 0.68818 0.0
C1353 C 0.91879 0.18179 0.68916 0.0
C1354 C 0.9043 0.16207 0.68921 0.0
C1355 C 0.91304 0.19586 0.68869 0.0
C1356 C 0.88417 0.15701 0.68865 0.0
H1357 H 0.86193 0.09225 0.69489 0.0
N1358 N 0.85042 0.13401 0.69025 0.0
C1359 C 0.8394 0.10038 0.69452 0.0
C1360 C 0.86946 0.13789 0.68988 0.0
C1361 C 0.83544 0.11564 0.693 0.0
C1362 C 0.85888 0.10407 0.69362 0.0
C1363 C 0.87426 0.12308 0.6915 0.0
O1364 O 0.83171 0.14945 0.70496 0.0
O1365 O 0.82152 0.16234 0.67887 0.0
O1366 O 0.83086 0.19328 0.67448 0.0
O1367 O 0.85431 0.19108 0.68699 0.0
O1368 O 0.81353 0.13942 0.69044 0.0
O1369 O 0.85748 0.17796 0.7033 0.0
O1370 O 0.84043 0.18294 0.64241 0.0
O1371 O 0.85054 0.16983 0.66844 0.0
O1372 O 0.84105 0.13872 0.67291 0.0
O1373 O 0.8178 0.14114 0.6603 0.0
O1374 O 0.85854 0.1928 0.65692 0.0
O1375 O 0.81477 0.15432 0.64397 0.0
C1376 C 0.80662 0.14798 0.68361 0.0
C1377 C 0.85295 0.16169 0.72253 0.0
C1378 C 0.85358 0.16107 0.74541 0.0
C1379 C 0.84604 0.16413 0.73415 0.0
C1380 C 0.86807 0.15541 0.7448 0.0
C1381 C 0.86745 0.15615 0.72216 0.0
C1382 C 0.87493 0.153 0.73325 0.0
C1383 C 0.84485 0.20026 0.68324 0.0
C1384 C 0.8448 0.16497 0.71093 0.0
C1385 C 0.89425 0.12786 0.69138 0.0
C1386 C 0.90926 0.14735 0.69027 0.0
C1387 C 0.86545 0.1842 0.66372 0.0
C1388 C 0.81938 0.17067 0.62477 0.0
C1389 C 0.82611 0.16786 0.61319 0.0
C1390 C 0.81865 0.17087 0.60189 0.0
C1391 C 0.80439 0.17684 0.6024 0.0
C1392 C 0.80512 0.17653 0.62506 0.0
C1393 C 0.7977 0.17963 0.61392 0.0
C1394 C 0.82719 0.13189 0.66405 0.0
C1395 C 0.82747 0.16741 0.63639 0.0
H1396 H 0.83502 0.16868 0.73439 0.0
H1397 H 0.87396 0.15263 0.75326 0.0
H1398 H 0.87302 0.15429 0.71335 0.0
H1399 H 0.88607 0.14864 0.73289 0.0
H1400 H 0.83693 0.16306 0.61301 0.0
H1401 H 0.79856 0.17957 0.5939 0.0
H1402 H 0.7997 0.17869 0.63384 0.0
H1403 H 0.78675 0.18424 0.61421 0.0
H1404 H 0.32098 0.83468 0.05973 0.0
H1405 H 0.35114 0.85839 0.04892 0.0
H1406 H 0.34042 0.90459 0.06027 0.0
H1407 H 0.31031 0.88104 0.07108 0.0
H1408 H 0.35621 0.88388 0.02958 0.0
H1409 H 0.39723 0.92456 0.07214 0.0
H1410 H 0.37501 0.901 0.07285 0.0
H1411 H 0.37333 0.92261 0.07059 0.0
C1412 C 0.325 0.84989 0.05988 0.0
C1413 C 0.31332 0.856 0.06635 0.0
C1414 C 0.34227 0.86341 0.05373 0.0
C1415 C 0.34821 0.88329 0.05398 0.0
C1416 C 0.33639 0.88938 0.06023 0.0
H1417 H 0.43871 0.98994 0.02228 0.0
H1418 H 0.40792 0.96253 0.03022 0.0
C1419 C 0.31918 0.8759 0.0664 0.0
C1420 C 0.36663 0.89769 0.04759 0.0
H1421 H 0.41074 0.93958 0.05253 0.0
C1422 C 0.36825 0.89593 0.03461 0.0
C1423 C 0.38235 0.91337 0.05419 0.0
C1424 C 0.38203 0.91543 0.06823 0.0
C1425 C 0.38489 0.90983 0.028 0.0
C1426 C 0.40022 0.92581 0.03455 0.0
C1427 C 0.39882 0.92735 0.04754 0.0
C1428 C 0.41768 0.94148 0.02812 0.0
C1429 C 0.38568 0.90792 0.01401 0.0
C1430 C 0.43323 0.93861 0.02418 0.0
C1431 C 0.45086 0.95428 0.0197 0.0
C1432 C 0.45306 0.97296 0.01897 0.0
C1433 C 0.43724 0.97562 0.02259 0.0
C1434 C 0.4197 0.96001 0.02711 0.0
H1435 H 0.37245 0.89469 0.01025 0.0
H1436 H 0.38661 0.92094 0.0095 0.0
H1437 H 0.39917 0.90733 0.01143 0.0
H1438 H 0.43203 0.92445 0.02507 0.0
H1439 H 0.46298 0.95189 0.01734 0.0
H1440 H 0.17174 0.48967 0.06177 0.0
H1441 H 0.14646 0.49506 0.05183 0.0
H1442 H 0.10091 0.43808 0.06349 0.0
H1443 H 0.12603 0.43263 0.07348 0.0
H1444 H 0.12053 0.47492 0.03293 0.0
H1445 H 0.07846 0.47159 0.07547 0.0
H1446 H 0.10269 0.47381 0.0762 0.0
H1447 H 0.08096 0.45044 0.07343 0.0
C1448 C 0.15634 0.47827 0.0622 0.0
C1449 C 0.15091 0.46077 0.0685 0.0
C1450 C 0.14189 0.48141 0.05656 0.0
C1451 C 0.12172 0.46714 0.05712 0.0
C1452 C 0.11629 0.44955 0.06324 0.0
H1453 H 0.01218 0.44935 0.02393 0.0
H1454 H 0.03944 0.44612 0.03299 0.0
C1455 C 0.1307 0.44643 0.06893 0.0
C1456 C 0.10643 0.47032 0.05088 0.0
H1457 H 0.06297 0.47024 0.05584 0.0
C1458 C 0.10809 0.47414 0.03798 0.0
C1459 C 0.09012 0.46923 0.05745 0.0
C1460 C 0.08801 0.46624 0.07142 0.0
C1461 C 0.09367 0.47641 0.03144 0.0
C1462 C 0.07717 0.47487 0.03793 0.0
C1463 C 0.07559 0.47129 0.05085 0.0
C1464 C 0.06122 0.4767 0.03148 0.0
C1465 C 0.0956 0.4795 0.01752 0.0
C1466 C 0.06445 0.49496 0.02758 0.0
C1467 C 0.04886 0.49684 0.02248 0.0
C1468 C 0.02985 0.48043 0.02099 0.0
C1469 C 0.02676 0.46216 0.02476 0.0
C1470 C 0.04228 0.46031 0.02996 0.0
H1471 H 0.10908 0.47988 0.01375 0.0
H1472 H 0.08233 0.46748 0.01286 0.0
H1473 H 0.09621 0.49342 0.0152 0.0
H1474 H 0.07887 0.50784 0.02885 0.0
H1475 H 0.05161 0.5112 0.0201 0.0
H1476 H 0.56259 0.71113 0.04738 0.0
H1477 H 0.55308 0.67985 0.03736 0.0
H1478 H 0.54399 0.65306 0.07364 0.0
H1479 H 0.55264 0.68406 0.08373 0.0
H1480 H 0.56998 0.65683 0.03935 0.0
H1481 H 0.49202 0.61719 0.05562 0.0
H1482 H 0.50731 0.64333 0.05676 0.0
H1483 H 0.50979 0.62798 0.06813 0.0
C1484 C 0.5583 0.69852 0.05323 0.0
C1485 C 0.55822 0.70006 0.06636 0.0
C1486 C 0.55302 0.68071 0.04749 0.0
C1487 C 0.54752 0.66409 0.05476 0.0
C1488 C 0.54779 0.66563 0.06785 0.0
H1489 H 0.54231 0.55701 0.03117 0.0
H1490 H 0.55125 0.58866 0.04029 0.0
C1491 C 0.55299 0.68342 0.07361 0.0
C1492 C 0.54181 0.64522 0.04862 0.0
H1493 H 0.50428 0.59807 0.04616 0.0
C1494 C 0.55559 0.64399 0.04079 0.0
C1495 C 0.52291 0.6286 0.05036 0.0
C1496 C 0.50707 0.62932 0.05807 0.0
C1497 C 0.55112 0.62645 0.03483 0.0
C1498 C 0.53253 0.60962 0.037 0.0
C1499 C 0.5186 0.61095 0.04463 0.0
C1500 C 0.52717 0.59049 0.03141 0.0
C1501 C 0.56622 0.62617 0.02614 0.0
C1502 C 0.51032 0.58075 0.02371 0.0
C1503 C 0.50499 0.56252 0.01862 0.0
C1504 C 0.51648 0.55372 0.0211 0.0
C1505 C 0.53323 0.56343 0.02896 0.0
C1506 C 0.53847 0.58161 0.0341 0.0
H1507 H 0.57696 0.641 0.02276 0.0
H1508 H 0.57471 0.62049 0.03123 0.0
H1509 H 0.55891 0.61658 0.0179 0.0
H1510 H 0.50128 0.58727 0.02163 0.0
H1511 H 0.49177 0.5553 0.01284 0.0
H1512 H 0.86175 0.31831 0.92657 0.0
H1513 H 0.88653 0.34902 0.93616 0.0
H1514 H 0.86911 0.32356 0.97281 0.0
H1515 H 0.84495 0.29251 0.96329 0.0
H1516 H 0.88173 0.37277 0.95218 0.0
H1517 H 0.92868 0.34677 0.97442 0.0
H1518 H 0.90983 0.33254 0.96291 0.0
H1519 H 0.90313 0.33302 0.97896 0.0
C1520 C 0.8634 0.31911 0.93667 0.0
C1521 C 0.85143 0.30284 0.94414 0.0
C1522 C 0.87747 0.33675 0.94214 0.0
C1523 C 0.87992 0.33851 0.95519 0.0
C1524 C 0.8678 0.32243 0.9627 0.0
H1525 H 0.93651 0.44678 0.99739 0.0
H1526 H 0.91335 0.41581 0.98748 0.0
C1527 C 0.85378 0.30474 0.95724 0.0
C1528 C 0.89477 0.35735 0.96094 0.0
H1529 H 0.93505 0.37835 0.98051 0.0
C1530 C 0.89345 0.37401 0.95833 0.0
C1531 C 0.91025 0.35901 0.9688 0.0
C1532 C 0.91323 0.34193 0.97135 0.0
C1533 C 0.90693 0.39221 0.96356 0.0
C1534 C 0.92187 0.39371 0.97185 0.0
C1535 C 0.92345 0.37713 0.97426 0.0
C1536 C 0.93603 0.41234 0.97812 0.0
C1537 C 0.90522 0.40972 0.95997 0.0
C1538 C 0.95655 0.4204 0.9765 0.0
C1539 C 0.96992 0.43797 0.98239 0.0
C1540 C 0.963 0.44776 0.99007 0.0
C1541 C 0.94242 0.43955 0.9917 0.0
C1542 C 0.92909 0.42194 0.98589 0.0
H1543 H 0.89712 0.40733 0.95095 0.0
H1544 H 0.89682 0.41246 0.9673 0.0
H1545 H 0.92007 0.42294 0.95914 0.0
H1546 H 0.96223 0.41318 0.97059 0.0
H1547 H 0.98565 0.44384 0.98091 0.0
H1548 H 0.68312 0.51068 0.95313 0.0
H1549 H 0.65242 0.50482 0.96323 0.0
H1550 H 0.66377 0.56154 0.95172 0.0
H1551 H 0.69439 0.56749 0.94159 0.0
H1552 H 0.64638 0.52454 0.98222 0.0
H1553 H 0.60738 0.52706 0.93937 0.0
H1554 H 0.62962 0.52531 0.93882 0.0
H1555 H 0.63121 0.54848 0.94148 0.0
C1556 C 0.67912 0.52195 0.95278 0.0
C1557 C 0.69118 0.53951 0.94646 0.0
C1558 C 0.66151 0.51853 0.95852 0.0
C1559 C 0.65554 0.53257 0.95803 0.0
C1560 C 0.66773 0.55025 0.95193 0.0
H1561 H 0.56406 0.55011 0.98987 0.0
H1562 H 0.59466 0.55294 0.98144 0.0
C1563 C 0.68528 0.55365 0.94615 0.0
C1564 C 0.63687 0.52898 0.96418 0.0
H1565 H 0.59317 0.52836 0.95889 0.0
C1566 C 0.63463 0.52511 0.97709 0.0
C1567 C 0.62151 0.52974 0.95749 0.0
C1568 C 0.62242 0.53267 0.9435 0.0
C1569 C 0.61776 0.5226 0.98352 0.0
C1570 C 0.60275 0.52395 0.97689 0.0
C1571 C 0.60479 0.52746 0.96397 0.0
C1572 C 0.585 0.52232 0.98322 0.0
C1573 C 0.61651 0.5195 0.99745 0.0
C1574 C 0.56947 0.50417 0.98711 0.0
C1575 C 0.55192 0.50251 0.99187 0.0
C1576 C 0.54975 0.51903 0.99299 0.0
C1577 C 0.56548 0.5372 0.9893 0.0
C1578 C 0.58293 0.53883 0.98447 0.0
H1579 H 0.62953 0.51899 1.00129 0.0
H1580 H 0.61561 0.53159 1.00208 0.0
H1581 H 0.60286 0.50567 0.99975 0.0
H1582 H 0.57066 0.49119 0.98604 0.0
H1583 H 0.53987 0.48823 0.99424 0.0
H1584 H 0.44179 0.15316 0.96487 0.0
H1585 H 0.45175 0.13226 0.97569 0.0
H1586 H 0.46373 0.11425 0.94018 0.0
H1587 H 0.45461 0.13575 0.92929 0.0
H1588 H 0.43602 0.093 0.97415 0.0
H1589 H 0.51481 0.13065 0.95959 0.0
H1590 H 0.49916 0.14127 0.95764 0.0
H1591 H 0.49777 0.12339 0.94663 0.0
C1592 C 0.44682 0.14497 0.95936 0.0
C1593 C 0.44757 0.14626 0.94621 0.0
C1594 C 0.45237 0.13294 0.96556 0.0
C1595 C 0.45882 0.12198 0.95875 0.0
C1596 C 0.45922 0.12292 0.94563 0.0
H1597 H 0.46326 0.02066 0.98229 0.0
H1598 H 0.45513 0.04413 0.97347 0.0
C1599 C 0.45373 0.13501 0.93941 0.0
C1600 C 0.4646 0.10918 0.96539 0.0
H1601 H 0.50244 0.09951 0.96907 0.0
C1602 C 0.45059 0.09449 0.97311 0.0
C1603 C 0.48373 0.11139 0.96419 0.0
C1604 C 0.49981 0.12765 0.95667 0.0
C1605 C 0.45498 0.08157 0.97937 0.0
C1606 C 0.47375 0.08316 0.97766 0.0
C1607 C 0.48798 0.09821 0.97025 0.0
C1608 C 0.47871 0.069 0.98318 0.0
C1609 C 0.43952 0.06643 0.98783 0.0
C1610 C 0.49504 0.07529 0.9913 0.0
C1611 C 0.4999 0.0619 0.99628 0.0
C1612 C 0.4885 0.04199 0.99321 0.0
C1613 C 0.47228 0.03583 0.98496 0.0
C1614 C 0.46749 0.04921 0.97996 0.0
H1615 H 0.42871 0.07077 0.99104 0.0
H1616 H 0.43117 0.05248 0.9826 0.0
H1617 H 0.44648 0.06389 0.99617 0.0
H1618 H 0.50402 0.09055 0.99378 0.0
H1619 H 0.51271 0.06721 1.0024 0.0
H1620 H 0.68337 0.16669 0.95306 0.0
H1621 H 0.65356 0.14387 0.96458 0.0
H1622 H 0.66802 0.0985 0.95899 0.0
H1623 H 0.69795 0.12125 0.94761 0.0
H1624 H 0.62185 0.10755 0.95496 0.0
H1625 H 0.6574 0.09741 0.99722 0.0
H1626 H 0.67029 0.11786 0.98683 0.0
H1627 H 0.66692 0.09444 0.98258 0.0
C1628 C 0.68032 0.15191 0.95442 0.0
C1629 C 0.69304 0.14577 0.94944 0.0
C1630 C 0.66326 0.1389 0.96096 0.0
C1631 C 0.65875 0.11959 0.96278 0.0
C1632 C 0.67141 0.11342 0.95786 0.0
H1633 H 0.56474 0.01204 0.99059 0.0
H1634 H 0.59598 0.03979 0.98354 0.0
C1635 C 0.68839 0.12638 0.95124 0.0
C1636 C 0.64029 0.10559 0.96927 0.0
H1637 H 0.62287 0.07518 0.99441 0.0
C1638 C 0.62201 0.10062 0.96366 0.0
C1639 C 0.64062 0.09659 0.98061 0.0
C1640 C 0.65984 0.10193 0.98725 0.0
C1641 C 0.60404 0.08625 0.96879 0.0
C1642 C 0.60437 0.07697 0.98003 0.0
C1643 C 0.62265 0.08233 0.98581 0.0
C1644 C 0.58601 0.06074 0.98541 0.0
C1645 C 0.58495 0.08054 0.96183 0.0
C1646 C 0.57019 0.06339 0.98908 0.0
C1647 C 0.55229 0.04751 0.99301 0.0
C1648 C 0.55014 0.02885 0.99366 0.0
C1649 C 0.56616 0.02635 0.99033 0.0
C1650 C 0.58398 0.04218 0.98633 0.0
H1651 H 0.58767 0.08577 0.95201 0.0
H1652 H 0.57511 0.06448 0.96172 0.0
H1653 H 0.57701 0.08708 0.96661 0.0
H1654 H 0.57153 0.07764 0.98863 0.0
H1655 H 0.54005 0.04979 0.99521 0.0
H1656 H 0.85309 0.52034 0.9319 0.0
H1657 H 0.87835 0.51531 0.94211 0.0
H1658 H 0.87784 0.5482 0.97422 0.0
H1659 H 0.85245 0.55318 0.9641 0.0
H1660 H 0.91532 0.54227 0.94912 0.0
H1661 H 0.87391 0.50057 0.99083 0.0
H1662 H 0.86184 0.50448 0.97759 0.0
H1663 H 0.87442 0.52334 0.98917 0.0
C1664 C 0.85831 0.52648 0.94115 0.0
C1665 C 0.85072 0.53717 0.94718 0.0
C1666 C 0.87271 0.52351 0.947 0.0
C1667 C 0.87984 0.53113 0.95902 0.0
C1668 C 0.87224 0.54174 0.96509 0.0
H1669 H 0.99303 0.55204 0.98939 0.0
H1670 H 0.96519 0.55505 0.9812 0.0
C1671 C 0.85775 0.54463 0.95927 0.0
C1672 C 0.89602 0.52887 0.96483 0.0
H1673 H 0.90867 0.51215 0.99076 0.0
C1674 C 0.91381 0.53562 0.95821 0.0
C1675 C 0.89402 0.51999 0.97664 0.0
C1676 C 0.87495 0.5115 0.98393 0.0
C1677 C 0.92969 0.53398 0.9631 0.0
C1678 C 0.92796 0.52573 0.97509 0.0
C1679 C 0.91008 0.51869 0.98165 0.0
C1680 C 0.94447 0.52403 0.98083 0.0
C1681 C 0.94806 0.54076 0.95525 0.0
C1682 C 0.94193 0.50564 0.98369 0.0
C1683 C 0.95778 0.50394 0.98847 0.0
C1684 C 0.97633 0.52062 0.99069 0.0
C1685 C 0.9788 0.53899 0.98789 0.0
C1686 C 0.96296 0.5407 0.98315 0.0
H1687 H 0.94503 0.54175 0.94519 0.0
H1688 H 0.95959 0.55548 0.95847 0.0
H1689 H 0.95415 0.53079 0.95619 0.0
H1690 H 0.92782 0.49257 0.98195 0.0
H1691 H 0.95558 0.48956 0.99017 0.0
H1692 H 0.47435 0.30556 0.95341 0.0
H1693 H 0.48268 0.3361 0.96406 0.0
H1694 H 0.42887 0.33226 0.94982 0.0
H1695 H 0.42006 0.30135 0.9395 0.0
H1696 H 0.48844 0.37054 0.95349 0.0
H1697 H 0.42627 0.34125 0.98733 0.0
H1698 H 0.43296 0.32581 0.97865 0.0
H1699 H 0.41861 0.33513 0.97128 0.0
C1700 C 0.46414 0.31106 0.95269 0.0
C1701 C 0.44647 0.30096 0.94567 0.0
C1702 C 0.46899 0.32857 0.95871 0.0
C1703 C 0.45625 0.33626 0.95787 0.0
C1704 C 0.43872 0.32636 0.95077 0.0
H1705 H 0.46047 0.44171 0.98355 0.0
H1706 H 0.45207 0.41048 0.97393 0.0
C1707 C 0.43383 0.30883 0.94475 0.0
C1708 C 0.4616 0.35494 0.96416 0.0
H1709 H 0.44584 0.37571 0.98598 0.0
C1710 C 0.47921 0.37168 0.96065 0.0
C1711 C 0.44949 0.35631 0.97349 0.0
C1712 C 0.43087 0.33865 0.97801 0.0
C1713 C 0.48484 0.38989 0.96605 0.0
C1714 C 0.47267 0.39128 0.97531 0.0
C1715 C 0.4551 0.37454 0.97886 0.0
C1716 C 0.47778 0.41006 0.98131 0.0
C1717 C 0.50352 0.40757 0.9616 0.0
C1718 C 0.49491 0.42001 0.98876 0.0
C1719 C 0.49979 0.43788 0.99426 0.0
C1720 C 0.48753 0.44603 0.99247 0.0
C1721 C 0.47026 0.43588 0.9851 0.0
C1722 C 0.4654 0.41801 0.97962 0.0
H1723 H 0.50871 0.4048 0.95255 0.0
H1724 H 0.50114 0.42018 0.96047 0.0
H1725 H 0.51547 0.4116 0.96866 0.0
H1726 H 0.5045 0.41394 0.99031 0.0
H1727 H 0.51329 0.44537 0.99979 0.0
H1728 H 0.12886 0.69897 0.07411 0.0
H1729 H 0.10499 0.66795 0.06433 0.0
H1730 H 0.15314 0.66177 0.04967 0.0
H1731 H 0.17711 0.69246 0.05975 0.0
H1732 H 0.10042 0.65713 0.03895 0.0
H1733 H 0.11888 0.61001 0.06767 0.0
H1734 H 0.12671 0.63489 0.07195 0.0
H1735 H 0.13979 0.62972 0.06009 0.0
C1736 C 0.13438 0.6909 0.06893 0.0
C1737 C 0.1549 0.69813 0.06779 0.0
C1738 C 0.12072 0.67325 0.06327 0.0
C1739 C 0.1273 0.66243 0.05644 0.0
C1740 C 0.14775 0.66973 0.0551 0.0
H1741 H 0.06984 0.55345 0.01531 0.0
H1742 H 0.09319 0.58473 0.02488 0.0
C1743 C 0.16143 0.68738 0.06074 0.0
C1744 C 0.11274 0.64362 0.05058 0.0
H1745 H 0.09715 0.59498 0.05039 0.0
C1746 C 0.09962 0.64351 0.04148 0.0
C1747 C 0.11176 0.6259 0.05392 0.0
C1748 C 0.1249 0.62502 0.06402 0.0
C1749 C 0.08578 0.62619 0.03543 0.0
C1750 C 0.08485 0.60849 0.03874 0.0
C1751 C 0.09793 0.60859 0.04787 0.0
C1752 C 0.07052 0.5897 0.03278 0.0
C1753 C 0.07258 0.62702 0.02535 0.0
C1754 C 0.05001 0.58202 0.03416 0.0
C1755 C 0.03657 0.56416 0.02862 0.0
C1756 C 0.04343 0.55364 0.02164 0.0
C1757 C 0.06401 0.56129 0.02043 0.0
C1758 C 0.07741 0.57913 0.02596 0.0
H1759 H 0.07836 0.64207 0.02184 0.0
H1760 H 0.07105 0.61739 0.01734 0.0
H1761 H 0.05758 0.62193 0.02924 0.0
H1762 H 0.0444 0.58976 0.0396 0.0
H1763 H 0.02084 0.55864 0.02981 0.0
H1764 H 0.32131 0.4907 0.06111 0.0
H1765 H 0.35138 0.49648 0.05012 0.0
H1766 H 0.33597 0.43686 0.05636 0.0
H1767 H 0.30582 0.43092 0.06724 0.0
H1768 H 0.38279 0.49085 0.06032 0.0
H1769 H 0.34744 0.44521 0.0181 0.0
H1770 H 0.3347 0.4537 0.02818 0.0
H1771 H 0.33744 0.43339 0.03277 0.0
C1772 C 0.32421 0.47876 0.06002 0.0
C1773 C 0.31113 0.46034 0.06505 0.0
C1774 C 0.34144 0.48211 0.05378 0.0
C1775 C 0.34579 0.46704 0.05228 0.0
C1776 C 0.33276 0.44863 0.05725 0.0
H1777 H 0.43906 0.44972 0.02386 0.0
H1778 H 0.4083 0.44732 0.03158 0.0
C1779 C 0.31563 0.44531 0.06357 0.0
C1780 C 0.36435 0.4707 0.04599 0.0
H1781 H 0.38181 0.45657 0.02112 0.0
C1782 C 0.38263 0.48352 0.05169 0.0
C1783 C 0.36406 0.4611 0.03474 0.0
C1784 C 0.34489 0.44769 0.02799 0.0
C1785 C 0.40061 0.48642 0.0467 0.0
C1786 C 0.40033 0.47658 0.03553 0.0
C1787 C 0.38204 0.4641 0.02968 0.0
C1788 C 0.41871 0.47818 0.03016 0.0
C1789 C 0.41964 0.49934 0.05376 0.0
C1790 C 0.43472 0.49627 0.02659 0.0
C1791 C 0.45237 0.49765 0.02227 0.0
C1792 C 0.4541 0.4809 0.02111 0.0
C1793 C 0.43798 0.46281 0.0245 0.0
C1794 C 0.42041 0.46143 0.02888 0.0
H1795 H 0.41682 0.50185 0.06359 0.0
H1796 H 0.42946 0.49291 0.05384 0.0
H1797 H 0.42764 0.51371 0.04909 0.0
H1798 H 0.43368 0.50935 0.02728 0.0
H1799 H 0.46468 0.51186 0.02005 0.0
H1800 H 0.56164 0.84844 0.0467 0.0
H1801 H 0.55209 0.86995 0.03625 0.0
H1802 H 0.5387 0.88597 0.07201 0.0
H1803 H 0.54745 0.8639 0.08251 0.0
H1804 H 0.50979 0.87779 0.05413 0.0
H1805 H 0.58468 0.92923 0.03579 0.0
H1806 H 0.57555 0.90429 0.03136 0.0
H1807 H 0.58058 0.91136 0.04757 0.0
C1808 C 0.5565 0.85641 0.05234 0.0
C1809 C 0.55537 0.85451 0.06545 0.0
C1810 C 0.55127 0.86886 0.04636 0.0
C1811 C 0.545 0.87977 0.05338 0.0
C1812 C 0.54364 0.87776 0.06644 0.0
H1813 H 0.53907 0.9808 0.03101 0.0
H1814 H 0.54674 0.9572 0.04013 0.0
C1815 C 0.54881 0.86528 0.07243 0.0
C1816 C 0.53966 0.89316 0.04712 0.0
H1817 H 0.55826 0.9337 0.02888 0.0
C1818 C 0.52036 0.89003 0.0486 0.0
C1819 C 0.55358 0.90921 0.04004 0.0
C1820 C 0.57481 0.91389 0.03867 0.0
C1821 C 0.51458 0.90253 0.04317 0.0
C1822 C 0.52837 0.91834 0.03586 0.0
C1823 C 0.54767 0.92146 0.03439 0.0
C1824 C 0.52346 0.93242 0.03017 0.0
C1825 C 0.49395 0.89902 0.04562 0.0
C1826 C 0.50788 0.92634 0.02146 0.0
C1827 C 0.50328 0.9398 0.01631 0.0
C1828 C 0.51441 0.95963 0.01961 0.0
C1829 C 0.53017 0.96567 0.02822 0.0
C1830 C 0.53463 0.9522 0.03344 0.0
H1831 H 0.48713 0.88954 0.05388 0.0
H1832 H 0.49414 0.91297 0.04721 0.0
H1833 H 0.48437 0.89167 0.03736 0.0
H1834 H 0.49929 0.91119 0.01864 0.0
H1835 H 0.49091 0.9346 0.00983 0.0
H1836 H 0.98337 0.21469 0.40836 0.0
H1837 H 0.0136 0.23759 0.39737 0.0
H1838 H 0.01102 0.19036 0.37574 0.0
H1839 H 0.98108 0.16718 0.38692 0.0
H1840 H 0.05061 0.23503 0.39571 0.0
H1841 H 0.01545 0.23282 0.34972 0.0
H1842 H 1.00156 0.22582 0.36413 0.0
H1843 H 0.00893 0.20994 0.35699 0.0
C1844 C 0.9893 0.20908 0.40137 0.0
C1845 C 0.97973 0.18904 0.39855 0.0
C1846 C 0.00651 0.22223 0.39504 0.0
C1847 C 0.01439 0.21566 0.38568 0.0
C1848 C 0.00497 0.19573 0.38282 0.0
H1849 H 0.1322 0.28555 0.3526 0.0
H1850 H 0.10121 0.25776 0.36 0.0
C1851 C 0.98782 0.18252 0.3892 0.0
C1852 C 0.03274 0.22972 0.37915 0.0
H1853 H 0.05021 0.253 0.35127 0.0
C1854 C 0.05058 0.23886 0.38598 0.0
C1855 C 0.03255 0.23467 0.36646 0.0
C1856 C 0.01362 0.22544 0.35884 0.0
C1857 C 0.06827 0.25304 0.38047 0.0
C1858 C 0.06805 0.25814 0.36783 0.0
C1859 C 0.05027 0.24888 0.36094 0.0
C1860 C 0.08594 0.27413 0.36197 0.0
C1861 C 0.08701 0.26291 0.38827 0.0
C1862 C 0.08739 0.29234 0.36041 0.0
C1863 C 0.10502 0.30818 0.35619 0.0
C1864 C 0.12132 0.30595 0.35321 0.0
C1865 C 0.11971 0.28757 0.3545 0.0
C1866 C 0.10208 0.27173 0.3588 0.0
H1867 H 0.08423 0.25875 0.39829 0.0
H1868 H 0.09779 0.25881 0.38464 0.0
H1869 H 0.09397 0.27898 0.38757 0.0
H1870 H 0.0751 0.29446 0.3629 0.0
H1871 H 0.10605 0.32229 0.35543 0.0
H1872 H 0.83913 0.82404 0.39507 0.0
H1873 H 0.81384 0.82941 0.38513 0.0
H1874 H 0.76822 0.77276 0.39726 0.0
H1875 H 0.79334 0.76733 0.40725 0.0
H1876 H 0.78775 0.80916 0.36643 0.0
H1877 H 0.74598 0.80654 0.40896 0.0
H1878 H 0.77015 0.80862 0.4097 0.0
H1879 H 0.74832 0.78528 0.40704 0.0
C1880 C 0.82371 0.8127 0.3956 0.0
C1881 C 0.81827 0.7953 0.40204 0.0
C1882 C 0.80926 0.81584 0.38997 0.0
C1883 C 0.78905 0.80167 0.39067 0.0
C1884 C 0.78362 0.78417 0.39691 0.0
H1885 H 0.67943 0.78338 0.35729 0.0
H1886 H 0.7067 0.78041 0.36659 0.0
C1887 C 0.79803 0.78106 0.40259 0.0
C1888 C 0.77376 0.80483 0.3844 0.0
H1889 H 0.73035 0.80489 0.38932 0.0
C1890 C 0.77535 0.80848 0.37148 0.0
C1891 C 0.75749 0.80386 0.39096 0.0
C1892 C 0.75545 0.80105 0.40495 0.0
C1893 C 0.76091 0.81069 0.36491 0.0
C1894 C 0.74444 0.80927 0.37139 0.0
C1895 C 0.74294 0.80586 0.38434 0.0
C1896 C 0.72844 0.81097 0.36489 0.0
C1897 C 0.76277 0.81356 0.35098 0.0
C1898 C 0.73162 0.82913 0.36082 0.0
C1899 C 0.71602 0.83087 0.35558 0.0
C1900 C 0.69704 0.81441 0.35412 0.0
C1901 C 0.69399 0.79624 0.3581 0.0
C1902 C 0.70952 0.79453 0.36343 0.0
H1903 H 0.77624 0.81391 0.34723 0.0
H1904 H 0.74949 0.80144 0.34639 0.0
H1905 H 0.76333 0.82742 0.34855 0.0
H1906 H 0.74603 0.84206 0.36204 0.0
H1907 H 0.71875 0.84517 0.35304 0.0
H1908 H 0.19645 0.02871 0.39327 0.0
H1909 H 0.18759 0.99753 0.38329 0.0
H1910 H 0.24124 0.00135 0.3978 0.0
H1911 H 0.25035 0.03263 0.40769 0.0
H1912 H 0.20964 0.98921 0.36549 0.0
H1913 H 0.19688 0.94747 0.40947 0.0
H1914 H 0.19804 0.97079 0.40901 0.0
H1915 H 0.22046 0.96952 0.40863 0.0
C1916 C 0.20644 0.02299 0.39426 0.0
C1917 C 0.22407 0.03311 0.40132 0.0
C1918 C 0.20131 0.00514 0.38861 0.0
C1919 C 0.21363 0.99704 0.38997 0.0
C1920 C 0.23134 0.00719 0.39686 0.0
H1921 H 0.2097 0.8915 0.36446 0.0
H1922 H 0.21839 0.92297 0.37381 0.0
C1923 C 0.2365 0.02504 0.40251 0.0
C1924 C 0.20807 0.97808 0.38406 0.0
H1925 H 0.1966 0.9315 0.39059 0.0
C1926 C 0.20669 0.97655 0.37095 0.0
C1927 C 0.20427 0.96164 0.39125 0.0
C1928 C 0.2048 0.9623 0.40538 0.0
C1929 C 0.20199 0.95906 0.36481 0.0
C1930 C 0.19823 0.94263 0.37201 0.0
C1931 C 0.19954 0.94416 0.38511 0.0
C1932 C 0.19299 0.9237 0.36613 0.0
C1933 C 0.20157 0.95846 0.35068 0.0
C1934 C 0.17568 0.91358 0.35885 0.0
C1935 C 0.17067 0.8956 0.35348 0.0
C1936 C 0.18284 0.88737 0.35534 0.0
C1937 C 0.20003 0.89744 0.36279 0.0
C1938 C 0.20504 0.91543 0.36814 0.0
H1939 H 0.20971 0.9733 0.34662 0.0
H1940 H 0.20814 0.94981 0.34704 0.0
H1941 H 0.18594 0.95148 0.34737 0.0
H1942 H 0.16592 0.91949 0.35745 0.0
H1943 H 0.15713 0.88806 0.34801 0.0
H1944 H 0.49684 0.64234 0.28581 0.0
H1945 H 0.52141 0.6732 0.29547 0.0
H1946 H 0.56859 0.66478 0.28161 0.0
H1947 H 0.54415 0.63387 0.27199 0.0
H1948 H 0.55075 0.68025 0.31344 0.0
H1949 H 0.58404 0.7194 0.26918 0.0
H1950 H 0.56059 0.69691 0.26958 0.0
H1951 H 0.58347 0.69657 0.27076 0.0
C1952 C 0.51244 0.64699 0.28488 0.0
C1953 C 0.51854 0.63569 0.27807 0.0
C1954 C 0.52645 0.66466 0.29036 0.0
C1955 C 0.54681 0.67142 0.28908 0.0
C1956 C 0.55296 0.66005 0.28246 0.0
H1957 H 0.653 0.77559 0.31557 0.0
H1958 H 0.62949 0.74402 0.30621 0.0
C1959 C 0.53897 0.64239 0.27697 0.0
C1960 C 0.56159 0.69021 0.29485 0.0
H1961 H 0.59999 0.73552 0.28805 0.0
C1962 C 0.56149 0.69236 0.3079 0.0
C1963 C 0.57561 0.70595 0.28759 0.0
C1964 C 0.5759 0.70473 0.27349 0.0
C1965 C 0.57518 0.70978 0.3139 0.0
C1966 C 0.58912 0.72555 0.30663 0.0
C1967 C 0.58931 0.72337 0.2936 0.0
C1968 C 0.60333 0.74461 0.31235 0.0
C1969 C 0.57482 0.71104 0.328 0.0
C1970 C 0.59638 0.75553 0.3187 0.0
C1971 C 0.60973 0.77354 0.32404 0.0
C1972 C 0.63032 0.78102 0.32311 0.0
C1973 C 0.63725 0.77021 0.31653 0.0
C1974 C 0.62385 0.75217 0.31118 0.0
H1975 H 0.56709 0.69638 0.33233 0.0
H1976 H 0.5901 0.71932 0.33193 0.0
H1977 H 0.56676 0.71875 0.33068 0.0
H1978 H 0.58061 0.7502 0.31944 0.0
H1979 H 0.60387 0.78166 0.32877 0.0
H1980 H 0.35056 0.84509 0.28671 0.0
H1981 H 0.32001 0.83934 0.29699 0.0
H1982 H 0.33172 0.89635 0.28588 0.0
H1983 H 0.36217 0.90216 0.27556 0.0
H1984 H 0.31394 0.85873 0.31616 0.0
H1985 H 0.27537 0.86241 0.27344 0.0
H1986 H 0.29754 0.86054 0.2728 0.0
H1987 H 0.29924 0.88372 0.27568 0.0
C1988 C 0.34667 0.85644 0.28649 0.0
C1989 C 0.35878 0.87405 0.28021 0.0
C1990 C 0.32915 0.8531 0.29234 0.0
C1991 C 0.32331 0.86724 0.29201 0.0
C1992 C 0.33557 0.88497 0.28596 0.0
H1993 H 0.23219 0.88493 0.32432 0.0
H1994 H 0.26278 0.88771 0.31593 0.0
C1995 C 0.35303 0.8883 0.28008 0.0
C1996 C 0.30465 0.86366 0.29819 0.0
H1997 H 0.26115 0.8635 0.293 0.0
C1998 C 0.30229 0.85952 0.31106 0.0
C1999 C 0.28939 0.86468 0.29154 0.0
C2000 C 0.29037 0.86788 0.27758 0.0
C2001 C 0.28542 0.85698 0.3175 0.0
C2002 C 0.27052 0.85861 0.31093 0.0
C2003 C 0.27268 0.86239 0.29804 0.0
C2004 C 0.25279 0.85697 0.31727 0.0
C2005 C 0.28399 0.8535 0.3314 0.0
C2006 C 0.23706 0.83877 0.32091 0.0
C2007 C 0.21951 0.83714 0.32565 0.0
C2008 C 0.21751 0.85374 0.32699 0.0
C2009 C 0.23345 0.87196 0.32357 0.0
C2010 C 0.2509 0.87356 0.31877 0.0
H2011 H 0.29695 0.85286 0.33521 0.0
H2012 H 0.28305 0.86546 0.33619 0.0
H2013 H 0.27029 0.83962 0.33355 0.0
H2014 H 0.2381 0.82574 0.31967 0.0
H2015 H 0.20732 0.82284 0.32781 0.0
H2016 H 0.12157 0.46885 0.26278 0.0
H2017 H 0.12992 0.44653 0.27331 0.0
H2018 H 0.1192 0.4647 0.30915 0.0
H2019 H 0.10999 0.48643 0.29869 0.0
H2020 H 0.15955 0.45462 0.2904 0.0
H2021 H 0.08575 0.40574 0.31109 0.0
H2022 H 0.08945 0.42318 0.29909 0.0
H2023 H 0.09577 0.43096 0.31512 0.0
C2024 C 0.12067 0.46788 0.27289 0.0
C2025 C 0.11498 0.47936 0.27988 0.0
C2026 C 0.12561 0.45524 0.2789 0.0
C2027 C 0.12492 0.45377 0.292 0.0
C2028 C 0.11948 0.46534 0.29902 0.0
H2029 H 0.18002 0.39993 0.33548 0.0
H2030 H 0.17146 0.42305 0.32639 0.0
C2031 C 0.11445 0.47793 0.29302 0.0
C2032 C 0.13023 0.44035 0.29829 0.0
H2033 H 0.1122 0.40096 0.31757 0.0
C2034 C 0.14921 0.44287 0.29634 0.0
C2035 C 0.11663 0.42492 0.30592 0.0
C2036 C 0.09569 0.42087 0.30786 0.0
C2037 C 0.15499 0.43041 0.30184 0.0
C2038 C 0.14154 0.41526 0.30971 0.0
C2039 C 0.12255 0.41271 0.31163 0.0
C2040 C 0.14652 0.40133 0.31559 0.0
C2041 C 0.17522 0.43324 0.29891 0.0
C2042 C 0.135 0.3814 0.31283 0.0
C2043 C 0.13963 0.36811 0.31817 0.0
C2044 C 0.15587 0.37448 0.32643 0.0
C2045 C 0.1673 0.39447 0.32927 0.0
C2046 C 0.16258 0.40776 0.32396 0.0
H2047 H 0.18162 0.44217 0.29038 0.0
H2048 H 0.18545 0.44091 0.30687 0.0
H2049 H 0.17454 0.41903 0.29753 0.0
H2050 H 0.12252 0.37613 0.30641 0.0
H2051 H 0.13048 0.35284 0.31576 0.0
H2052 H 0.35057 0.49945 0.28641 0.0
H2053 H 0.32074 0.47648 0.29785 0.0
H2054 H 0.33523 0.43119 0.29195 0.0
H2055 H 0.36518 0.45409 0.28063 0.0
H2056 H 0.28904 0.44001 0.288 0.0
H2057 H 0.32468 0.43003 0.3303 0.0
H2058 H 0.33746 0.45061 0.31998 0.0
H2059 H 0.33432 0.42731 0.31562 0.0
C2060 C 0.34751 0.48465 0.28768 0.0
C2061 C 0.36024 0.47858 0.28264 0.0
C2062 C 0.33045 0.47155 0.29417 0.0
C2063 C 0.32595 0.45224 0.29588 0.0
C2064 C 0.33862 0.44613 0.29089 0.0
H2065 H 0.23217 0.34475 0.32408 0.0
H2066 H 0.26333 0.37242 0.31684 0.0
C2067 C 0.3556 0.45917 0.28432 0.0
C2068 C 0.30751 0.43817 0.30235 0.0
H2069 H 0.29016 0.40787 0.32753 0.0
C2070 C 0.28923 0.43312 0.29671 0.0
C2071 C 0.30788 0.42923 0.3137 0.0
C2072 C 0.32711 0.43464 0.32034 0.0
C2073 C 0.27128 0.41874 0.30186 0.0
C2074 C 0.27164 0.40954 0.31312 0.0
C2075 C 0.28992 0.41496 0.31892 0.0
C2076 C 0.2533 0.39335 0.31855 0.0
C2077 C 0.25218 0.41293 0.29488 0.0
C2078 C 0.23748 0.39601 0.32217 0.0
C2079 C 0.21962 0.38018 0.3262 0.0
C2080 C 0.21754 0.36156 0.32701 0.0
C2081 C 0.23355 0.35904 0.32369 0.0
C2082 C 0.25132 0.37481 0.31959 0.0
H2083 H 0.25489 0.41805 0.28503 0.0
H2084 H 0.24234 0.39687 0.29484 0.0
H2085 H 0.24424 0.41953 0.29959 0.0
H2086 H 0.23878 0.41025 0.32163 0.0
H2087 H 0.20738 0.38247 0.32838 0.0
H2088 H 0.52047 0.85462 0.26437 0.0
H2089 H 0.54575 0.84948 0.27444 0.0
H2090 H 0.54524 0.88197 0.30679 0.0
H2091 H 0.51984 0.88706 0.29679 0.0
H2092 H 0.58273 0.87624 0.28155 0.0
H2093 H 0.5412 0.83412 0.3231 0.0
H2094 H 0.52918 0.83825 0.30992 0.0
H2095 H 0.54179 0.85695 0.32159 0.0
C2096 C 0.5257 0.86066 0.27364 0.0
C2097 C 0.51809 0.87126 0.27976 0.0
C2098 C 0.54011 0.85763 0.27941 0.0
C2099 C 0.54724 0.86508 0.29146 0.0
C2100 C 0.53964 0.87563 0.29763 0.0
H2101 H 0.66034 0.8855 0.32174 0.0
H2102 H 0.63257 0.88861 0.31353 0.0
C2103 C 0.52513 0.87858 0.29188 0.0
C2104 C 0.56339 0.86271 0.29722 0.0
H2105 H 0.57595 0.84565 0.32304 0.0
C2106 C 0.58119 0.86949 0.2906 0.0
C2107 C 0.56136 0.8537 0.30898 0.0
C2108 C 0.54229 0.84516 0.31627 0.0
C2109 C 0.59705 0.86775 0.29545 0.0
C2110 C 0.59528 0.85938 0.3074 0.0
C2111 C 0.57739 0.8523 0.31395 0.0
C2112 C 0.61178 0.8576 0.31311 0.0
C2113 C 0.61542 0.87458 0.2876 0.0
C2114 C 0.6092 0.83919 0.31596 0.0
C2115 C 0.62501 0.83743 0.32075 0.0
C2116 C 0.64357 0.85408 0.32302 0.0
C2117 C 0.6461 0.87247 0.32021 0.0
C2118 C 0.63029 0.87424 0.31546 0.0
H2119 H 0.61238 0.87563 0.27754 0.0
H2120 H 0.62694 0.88928 0.29085 0.0
H2121 H 0.6215 0.8646 0.28849 0.0
H2122 H 0.59508 0.82614 0.3142 0.0
H2123 H 0.62277 0.82303 0.32244 0.0
H2124 H 0.08908 0.63602 0.27261 0.0
H2125 H 0.09806 0.66728 0.28251 0.0
H2126 H 0.15132 0.67084 0.29752 0.0
H2127 H 0.14285 0.63996 0.28731 0.0
H2128 H 0.10437 0.67741 0.30786 0.0
H2129 H 0.17214 0.72328 0.28013 0.0
H2130 H 0.15405 0.69871 0.27556 0.0
H2131 H 0.17193 0.70297 0.28767 0.0
C2132 C 0.10284 0.64358 0.27788 0.0
C2133 C 0.11531 0.63555 0.2791 0.0
C2134 C 0.10786 0.66135 0.2836 0.0
C2135 C 0.12548 0.67148 0.29058 0.0
C2136 C 0.13783 0.66342 0.29198 0.0
H2137 H 0.18062 0.77992 0.33275 0.0
H2138 H 0.17164 0.74836 0.32339 0.0
C2139 C 0.13284 0.64566 0.28625 0.0
C2140 C 0.13076 0.69034 0.2966 0.0
H2141 H 0.16612 0.73852 0.29739 0.0
C2142 C 0.11782 0.69079 0.30554 0.0
C2143 C 0.14834 0.70775 0.29355 0.0
C2144 C 0.16235 0.70828 0.28362 0.0
C2145 C 0.12215 0.70818 0.31167 0.0
C2146 C 0.13973 0.72557 0.30863 0.0
C2147 C 0.15269 0.72512 0.29971 0.0
C2148 C 0.14485 0.74445 0.31449 0.0
C2149 C 0.10808 0.70777 0.32151 0.0
C2150 C 0.13285 0.75276 0.31246 0.0
C2151 C 0.13787 0.77076 0.31783 0.0
C2152 C 0.15503 0.78077 0.32532 0.0
C2153 C 0.16713 0.77247 0.32721 0.0
C2154 C 0.1621 0.75448 0.32182 0.0
H2155 H 0.09796 0.69275 0.32487 0.0
H2156 H 0.11637 0.71711 0.32966 0.0
H2157 H 0.09887 0.7135 0.31746 0.0
H2158 H 0.11967 0.7454 0.30663 0.0
H2159 H 0.12828 0.77677 0.31611 0.0
H2160 H 0.80962 0.01648 0.41804 0.0
H2161 H 0.78577 0.98579 0.40803 0.0
H2162 H 0.80387 0.0123 0.3717 0.0
H2163 H 0.8271 0.04336 0.38165 0.0
H2164 H 0.7638 0.99031 0.37345 0.0
H2165 H 0.79873 0.94835 0.39033 0.0
H2166 H 0.79236 0.95948 0.40276 0.0
H2167 H 0.81087 0.97454 0.39156 0.0
C2168 C 0.80841 0.01589 0.40792 0.0
C2169 C 0.82037 0.03243 0.40066 0.0
C2170 C 0.79494 0.99822 0.40221 0.0
C2171 C 0.79332 0.99664 0.38911 0.0
C2172 C 0.80501 0.01315 0.38183 0.0
H2173 H 0.73685 0.88837 0.34693 0.0
H2174 H 0.75994 0.9198 0.35636 0.0
C2175 C 0.81841 0.03086 0.38753 0.0
C2176 C 0.77923 0.97784 0.383 0.0
H2177 H 0.76697 0.93014 0.38068 0.0
C2178 C 0.76453 0.97716 0.37499 0.0
C2179 C 0.78037 0.96077 0.38488 0.0
C2180 C 0.79655 0.9608 0.39275 0.0
C2181 C 0.75077 0.9598 0.36894 0.0
C2182 C 0.75146 0.94256 0.3712 0.0
C2183 C 0.76632 0.94331 0.37907 0.0
C2184 C 0.7372 0.92366 0.36527 0.0
C2185 C 0.73591 0.9602 0.36 0.0
C2186 C 0.71671 0.91525 0.36724 0.0
C2187 C 0.70339 0.89738 0.36168 0.0
C2188 C 0.71033 0.88747 0.35414 0.0
C2189 C 0.73091 0.89576 0.35243 0.0
C2190 C 0.74418 0.91368 0.3579 0.0
H2191 H 0.74085 0.97519 0.35666 0.0
H2192 H 0.73337 0.95065 0.35174 0.0
H2193 H 0.72156 0.95489 0.36487 0.0
H2194 H 0.71101 0.92244 0.37316 0.0
H2195 H 0.68767 0.89134 0.36332 0.0
H2196 H 0.9755 0.76625 0.40453 0.0
H2197 H 0.0059 0.77196 0.3942 0.0
H2198 H 0.01797 0.82916 0.38328 0.0
H2199 H 0.98746 0.82351 0.39359 0.0
H2200 H 0.02406 0.80973 0.36406 0.0
H2201 H 0.06217 0.80571 0.40691 0.0
H2202 H 0.03826 0.78449 0.4046 0.0
H2203 H 0.04009 0.80773 0.40746 0.0
C2204 C 0.9847 0.78013 0.40005 0.0
C2205 C 0.97909 0.79448 0.4 0.0
C2206 C 0.00213 0.78339 0.39415 0.0
C2207 C 0.01449 0.80116 0.38818 0.0
C2208 C 0.00875 0.81538 0.38789 0.0
H2209 H 0.13063 0.84534 0.35272 0.0
H2210 H 0.09978 0.84244 0.36073 0.0
C2211 C 0.99125 0.81209 0.39375 0.0
C2212 C 0.03317 0.80469 0.38206 0.0
H2213 H 0.07651 0.80462 0.38741 0.0
C2214 C 0.03564 0.80886 0.3692 0.0
C2215 C 0.04833 0.80357 0.38876 0.0
C2216 C 0.04721 0.80033 0.40272 0.0
C2217 C 0.05252 0.81132 0.36281 0.0
C2218 C 0.06732 0.8096 0.36943 0.0
C2219 C 0.06505 0.80579 0.38232 0.0
C2220 C 0.0851 0.81121 0.36316 0.0
C2221 C 0.05407 0.81482 0.34891 0.0
C2222 C 0.08702 0.79463 0.36175 0.0
C2223 C 0.10451 0.79623 0.35702 0.0
C2224 C 0.12046 0.81444 0.3536 0.0
C2225 C 0.11844 0.83104 0.35488 0.0
C2226 C 0.10084 0.82941 0.35953 0.0
H2227 H 0.04114 0.81548 0.34505 0.0
H2228 H 0.06778 0.8287 0.3468 0.0
H2229 H 0.05504 0.80287 0.34415 0.0
H2230 H 0.07512 0.78048 0.36459 0.0
H2231 H 0.10579 0.78326 0.35632 0.0
H2232 H 0.23512 0.18631 0.38196 0.0
H2233 H 0.22555 0.2078 0.3715 0.0
H2234 H 0.2061 0.21892 0.40675 0.0
H2235 H 0.215 0.19692 0.41723 0.0
H2236 H 0.17912 0.21077 0.3873 0.0
H2237 H 0.25513 0.2673 0.37364 0.0
H2238 H 0.24826 0.24309 0.36856 0.0
H2239 H 0.25051 0.24874 0.38501 0.0
C2240 C 0.2287 0.19323 0.38748 0.0
C2241 C 0.22587 0.18995 0.40044 0.0
C2242 C 0.22343 0.20566 0.38151 0.0
C2243 C 0.21538 0.21515 0.38839 0.0
C2244 C 0.21241 0.21182 0.4013 0.0
H2245 H 0.20603 0.31449 0.36607 0.0
H2246 H 0.21412 0.29142 0.37552 0.0
C2247 C 0.21766 0.19938 0.40728 0.0
C2248 C 0.20978 0.22835 0.38211 0.0
H2249 H 0.22855 0.2704 0.36538 0.0
C2250 C 0.1899 0.22384 0.38251 0.0
C2251 C 0.22394 0.24546 0.376 0.0
C2252 C 0.24569 0.25159 0.37585 0.0
C2253 C 0.18376 0.23599 0.37694 0.0
C2254 C 0.19784 0.25287 0.37055 0.0
C2255 C 0.21773 0.25736 0.37017 0.0
C2256 C 0.19254 0.26663 0.36471 0.0
C2257 C 0.16239 0.23089 0.37827 0.0
C2258 C 0.17776 0.2604 0.35541 0.0
C2259 C 0.17282 0.27355 0.35011 0.0
C2260 C 0.18293 0.29326 0.35377 0.0
C2261 C 0.19793 0.29946 0.36296 0.0
C2262 C 0.20264 0.28628 0.36837 0.0
H2263 H 0.15506 0.22079 0.38619 0.0
H2264 H 0.16121 0.24414 0.37976 0.0
H2265 H 0.15413 0.22352 0.36958 0.0
H2266 H 0.17004 0.24539 0.35224 0.0
H2267 H 0.16102 0.26819 0.3432 0.0
H2268 H 0.63333 0.50921 0.71338 0.0
H2269 H 0.66359 0.53148 0.70225 0.0
H2270 H 0.69017 0.56162 0.73689 0.0
H2271 H 0.66055 0.53867 0.74823 0.0
H2272 H 0.68114 0.5693 0.69888 0.0
H2273 H 0.73352 0.55333 0.72402 0.0
H2274 H 0.707 0.53846 0.72568 0.0
H2275 H 0.72066 0.56058 0.7347 0.0
C2276 C 0.64574 0.52031 0.71871 0.0
C2277 C 0.64446 0.52196 0.73177 0.0
C2278 C 0.663 0.53316 0.71228 0.0
C2279 C 0.67935 0.54801 0.71875 0.0
C2280 C 0.67799 0.54997 0.73173 0.0
H2281 H 0.77235 0.65648 0.69066 0.0
H2282 H 0.74111 0.62882 0.69759 0.0
C2283 C 0.66084 0.53699 0.73818 0.0
C2284 C 0.69756 0.56189 0.71188 0.0
H2285 H 0.74803 0.58317 0.71242 0.0
C2286 C 0.69576 0.57216 0.70175 0.0
C2287 C 0.71662 0.56533 0.71539 0.0
C2288 C 0.71956 0.55367 0.72545 0.0
C2289 C 0.71252 0.58635 0.69539 0.0
C2290 C 0.73168 0.59084 0.69953 0.0
C2291 C 0.73341 0.57996 0.70931 0.0
C2292 C 0.75012 0.60735 0.69435 0.0
C2293 C 0.70941 0.59627 0.68429 0.0
C2294 C 0.76592 0.60472 0.69056 0.0
C2295 C 0.78398 0.62065 0.6869 0.0
C2296 C 0.78642 0.63944 0.68668 0.0
C2297 C 0.77063 0.64205 0.69042 0.0
C2298 C 0.75271 0.62621 0.69427 0.0
H2299 H 0.69506 0.5865 0.67951 0.0
H2300 H 0.70892 0.60932 0.68758 0.0
H2301 H 0.72151 0.60091 0.67738 0.0
H2302 H 0.76441 0.59037 0.69069 0.0
H2303 H 0.79611 0.61828 0.68454 0.0
H2304 H 0.48487 0.11428 0.71587 0.0
H2305 H 0.45931 0.11924 0.70595 0.0
H2306 H 0.45962 0.15256 0.73806 0.0
H2307 H 0.48505 0.14755 0.74805 0.0
H2308 H 0.42244 0.12557 0.73136 0.0
H2309 H 0.46314 0.16683 0.68934 0.0
H2310 H 0.46256 0.14403 0.69101 0.0
H2311 H 0.47542 0.16299 0.70249 0.0
C2312 C 0.47971 0.12292 0.72073 0.0
C2313 C 0.48701 0.13051 0.73276 0.0
C2314 C 0.46512 0.12579 0.71503 0.0
C2315 C 0.45769 0.13651 0.72117 0.0
C2316 C 0.46511 0.14426 0.73312 0.0
H2317 H 0.38244 0.17855 0.69001 0.0
H2318 H 0.40995 0.17531 0.6984 0.0
C2319 C 0.4796 0.14132 0.73885 0.0
C2320 C 0.44145 0.13879 0.7155 0.0
H2321 H 0.42847 0.1555 0.68972 0.0
C2322 C 0.4238 0.13217 0.72226 0.0
C2323 C 0.44327 0.1476 0.7037 0.0
C2324 C 0.46218 0.15595 0.69625 0.0
C2325 C 0.40788 0.13389 0.71752 0.0
C2326 C 0.40944 0.14208 0.70553 0.0
C2327 C 0.42718 0.14898 0.69883 0.0
C2328 C 0.39292 0.14391 0.69992 0.0
C2329 C 0.38971 0.12729 0.72553 0.0
C2330 C 0.37425 0.12734 0.69781 0.0
C2331 C 0.35853 0.12919 0.69299 0.0
C2332 C 0.36133 0.14758 0.68984 0.0
C2333 C 0.38 0.16415 0.69194 0.0
C2334 C 0.39571 0.16231 0.69682 0.0
H2335 H 0.39299 0.12649 0.73558 0.0
H2336 H 0.38362 0.13726 0.72461 0.0
H2337 H 0.3781 0.11252 0.72246 0.0
H2338 H 0.3718 0.11297 0.69994 0.0
H2339 H 0.34418 0.11624 0.69161 0.0
H2340 H 0.91852 0.36608 0.73981 0.0
H2341 H 0.90982 0.33477 0.73008 0.0
H2342 H 0.85717 0.3313 0.71406 0.0
H2343 H 0.86561 0.36246 0.72385 0.0
H2344 H 0.8745 0.29858 0.7336 0.0
H2345 H 0.88436 0.32192 0.68391 0.0
H2346 H 0.89443 0.33903 0.69679 0.0
H2347 H 0.86854 0.32787 0.69282 0.0
C2348 C 0.90505 0.35862 0.73425 0.0
C2349 C 0.89278 0.36679 0.73257 0.0
C2350 C 0.90016 0.3408 0.72866 0.0
C2351 C 0.88301 0.3309 0.72123 0.0
C2352 C 0.87069 0.33894 0.71955 0.0
H2353 H 0.82515 0.22067 0.68146 0.0
H2354 H 0.83454 0.25229 0.69086 0.0
C2355 C 0.87555 0.35675 0.72514 0.0
C2356 C 0.87765 0.31183 0.71557 0.0
H2357 H 0.86969 0.28801 0.68759 0.0
C2358 C 0.87354 0.29626 0.72355 0.0
C2359 C 0.87636 0.30891 0.70245 0.0
C2360 C 0.88131 0.32534 0.69346 0.0
C2361 C 0.86781 0.27767 0.71875 0.0
C2362 C 0.86654 0.27475 0.70563 0.0
C2363 C 0.87067 0.29033 0.69765 0.0
C2364 C 0.86095 0.25561 0.69998 0.0
C2365 C 0.86274 0.26123 0.72776 0.0
C2366 C 0.87283 0.24713 0.70189 0.0
C2367 C 0.86756 0.22909 0.6965 0.0
C2368 C 0.8504 0.21931 0.689 0.0
C2369 C 0.83859 0.22791 0.68706 0.0
C2370 C 0.84388 0.24595 0.69246 0.0
H2371 H 0.85951 0.26463 0.73727 0.0
H2372 H 0.84969 0.24752 0.72438 0.0
H2373 H 0.87552 0.25874 0.72854 0.0
H2374 H 0.88627 0.25454 0.70748 0.0
H2375 H 0.87703 0.22293 0.69815 0.0
H2376 H 0.19501 0.98473 0.59414 0.0
H2377 H 0.21974 0.01525 0.60396 0.0
H2378 H 0.20084 0.98964 0.64045 0.0
H2379 H 0.17674 0.95875 0.63072 0.0
H2380 H 0.21477 0.03911 0.61969 0.0
H2381 H 0.26022 0.01225 0.64299 0.0
H2382 H 0.24169 0.99819 0.63126 0.0
H2383 H 0.2345 0.99876 0.64718 0.0
C2384 C 0.19632 0.98545 0.60426 0.0
C2385 C 0.18395 0.96919 0.61162 0.0
C2386 C 0.21037 0.00298 0.60986 0.0
C2387 C 0.21238 0.00464 0.62293 0.0
C2388 C 0.19987 0.98857 0.63034 0.0
H2389 H 0.26891 0.11318 0.66493 0.0
H2390 H 0.24571 0.08216 0.6551 0.0
C2391 C 0.18588 0.97099 0.62475 0.0
C2392 C 0.22718 0.02339 0.62881 0.0
H2393 H 0.26679 0.04395 0.64892 0.0
C2394 C 0.2262 0.04019 0.62604 0.0
C2395 C 0.24229 0.02484 0.63694 0.0
C2396 C 0.24491 0.00759 0.63968 0.0
C2397 C 0.23968 0.05833 0.63134 0.0
C2398 C 0.25424 0.05962 0.63989 0.0
C2399 C 0.25547 0.0429 0.64248 0.0
C2400 C 0.26841 0.07819 0.6462 0.0
C2401 C 0.23838 0.07599 0.62755 0.0
C2402 C 0.28894 0.08598 0.64485 0.0
C2403 C 0.30232 0.10358 0.65069 0.0
C2404 C 0.29541 0.11369 0.65806 0.0
C2405 C 0.27481 0.10573 0.65947 0.0
C2406 C 0.26147 0.08808 0.65371 0.0
H2407 H 0.2306 0.07368 0.61841 0.0
H2408 H 0.22986 0.0789 0.6347 0.0
H2409 H 0.25336 0.08908 0.62685 0.0
H2410 H 0.29462 0.07854 0.63914 0.0
H2411 H 0.31806 0.10926 0.64939 0.0
H2412 H 0.01729 0.17689 0.61947 0.0
H2413 H 0.98673 0.17087 0.62987 0.0
H2414 H 0.99819 0.22796 0.61918 0.0
H2415 H 0.02865 0.23404 0.60875 0.0
H2416 H 0.98068 0.19002 0.64924 0.0
H2417 H 0.94183 0.19396 0.60674 0.0
H2418 H 0.96403 0.19216 0.60599 0.0
H2419 H 0.96568 0.21529 0.60897 0.0
C2420 C 0.01334 0.18819 0.61937 0.0
C2421 C 0.02537 0.2059 0.61317 0.0
C2422 C 0.99582 0.1847 0.62528 0.0
C2423 C 0.98992 0.1988 0.6251 0.0
C2424 C 0.0021 0.21663 0.61914 0.0
H2425 H 0.8996 0.21679 0.65807 0.0
H2426 H 0.93005 0.21933 0.64959 0.0
C2427 C 0.01955 0.2201 0.61319 0.0
C2428 C 0.97127 0.1951 0.63135 0.0
H2429 H 0.92778 0.19501 0.62638 0.0
C2430 C 0.969 0.19086 0.64421 0.0
C2431 C 0.95597 0.19615 0.62478 0.0
C2432 C 0.95687 0.19944 0.61083 0.0
C2433 C 0.95218 0.1883 0.65073 0.0
C2434 C 0.93727 0.19001 0.64424 0.0
C2435 C 0.93932 0.19385 0.63135 0.0
C2436 C 0.91966 0.18848 0.65067 0.0
C2437 C 0.95081 0.18469 0.66461 0.0
C2438 C 0.90379 0.1703 0.65419 0.0
C2439 C 0.88633 0.1688 0.65898 0.0
C2440 C 0.88458 0.18553 0.66048 0.0
C2441 C 0.90067 0.20372 0.65719 0.0
C2442 C 0.91804 0.20519 0.65234 0.0
H2443 H 0.96374 0.1839 0.66835 0.0
H2444 H 0.94998 0.19665 0.66949 0.0
H2445 H 0.93706 0.17084 0.66674 0.0
H2446 H 0.90465 0.15719 0.65281 0.0
H2447 H 0.87401 0.15453 0.66105 0.0
H2448 H 0.78825 0.80179 0.59569 0.0
H2449 H 0.79649 0.77972 0.60668 0.0
H2450 H 0.78616 0.79928 0.64212 0.0
H2451 H 0.77709 0.82078 0.63122 0.0
H2452 H 0.82624 0.78834 0.62397 0.0
H2453 H 0.75221 0.74033 0.64469 0.0
H2454 H 0.75607 0.75739 0.63239 0.0
H2455 H 0.76235 0.7657 0.64833 0.0
C2456 C 0.78743 0.80119 0.60582 0.0
C2457 C 0.7819 0.81299 0.61257 0.0
C2458 C 0.79231 0.78869 0.61208 0.0
C2459 C 0.79169 0.78769 0.6252 0.0
C2460 C 0.7864 0.79958 0.63198 0.0
H2461 H 0.84564 0.73371 0.66984 0.0
H2462 H 0.83742 0.75701 0.66062 0.0
C2463 C 0.78144 0.81203 0.62573 0.0
C2464 C 0.79686 0.77439 0.63177 0.0
H2465 H 0.77845 0.73544 0.65143 0.0
C2466 C 0.81581 0.77676 0.62998 0.0
C2467 C 0.78314 0.7592 0.6395 0.0
C2468 C 0.76224 0.75533 0.64127 0.0
C2469 C 0.82144 0.76435 0.63574 0.0
C2470 C 0.80785 0.74942 0.64367 0.0
C2471 C 0.7889 0.74704 0.64545 0.0
C2472 C 0.81259 0.73541 0.64969 0.0
C2473 C 0.84165 0.76698 0.63299 0.0
C2474 C 0.80099 0.7155 0.6469 0.0
C2475 C 0.80544 0.70212 0.6523 0.0
C2476 C 0.82156 0.70839 0.66064 0.0
C2477 C 0.83303 0.72835 0.66355 0.0
C2478 C 0.82849 0.74173 0.65817 0.0
H2479 H 0.84827 0.77589 0.62448 0.0
H2480 H 0.85175 0.77457 0.64101 0.0
H2481 H 0.84082 0.75269 0.63167 0.0
H2482 H 0.78862 0.71032 0.6404 0.0
H2483 H 0.79626 0.68688 0.64984 0.0
H2484 H 0.02796 0.78746 0.61181 0.0
H2485 H 0.99801 0.76457 0.62311 0.0
H2486 H 0.98688 0.81123 0.63237 0.0
H2487 H 0.01661 0.83418 0.62087 0.0
H2488 H 0.98857 0.7666 0.64912 0.0
H2489 H 0.93437 0.76869 0.61589 0.0
H2490 H 0.95984 0.77708 0.6117 0.0
H2491 H 0.95388 0.79183 0.62154 0.0
C2492 C 0.01904 0.79282 0.61614 0.0
C2493 C 0.02461 0.81262 0.61538 0.0
C2494 C 0.00202 0.77976 0.62267 0.0
C2495 C 0.99015 0.78619 0.62847 0.0
C2496 C 0.99573 0.80595 0.62783 0.0
H2497 H 0.8736 0.71668 0.66285 0.0
H2498 H 0.90523 0.74439 0.65629 0.0
C2499 C 0.0128 0.81905 0.62135 0.0
C2500 C 0.97196 0.77213 0.63518 0.0
H2501 H 0.92141 0.74928 0.6338 0.0
C2502 C 0.97386 0.76285 0.64582 0.0
C2503 C 0.95284 0.76741 0.6309 0.0
C2504 C 0.94997 0.77663 0.61933 0.0
C2505 C 0.95712 0.74882 0.65226 0.0
C2506 C 0.93793 0.74363 0.64776 0.0
C2507 C 0.93608 0.75329 0.63728 0.0
C2508 C 0.91959 0.72735 0.65319 0.0
C2509 C 0.96023 0.7398 0.66384 0.0
C2510 C 0.91713 0.70856 0.6537 0.0
C2511 C 0.89921 0.69283 0.65767 0.0
C2512 C 0.88338 0.69552 0.66117 0.0
C2513 C 0.88576 0.71428 0.66063 0.0
C2514 C 0.90378 0.73009 0.65677 0.0
H2515 H 0.97452 0.74995 0.66854 0.0
H2516 H 0.94804 0.73559 0.67064 0.0
H2517 H 0.96078 0.72655 0.66112 0.0
H2518 H 0.92881 0.70592 0.65061 0.0
H2519 H 0.89754 0.67841 0.65771 0.0
H2520 H 0.16657 0.17764 0.61783 0.0
H2521 H 0.19161 0.1722 0.62815 0.0
H2522 H 0.23612 0.2319 0.62136 0.0
H2523 H 0.21119 0.23751 0.61116 0.0
H2524 H 0.22834 0.17824 0.61693 0.0
H2525 H 0.24143 0.22371 0.65948 0.0
H2526 H 0.21939 0.21494 0.64986 0.0
H2527 H 0.24238 0.23539 0.64488 0.0
C2528 C 0.18164 0.18967 0.61867 0.0
C2529 C 0.18688 0.20802 0.61368 0.0
C2530 C 0.19594 0.18651 0.62451 0.0
C2531 C 0.21567 0.2017 0.62564 0.0
C2532 C 0.22092 0.22004 0.62074 0.0
H2533 H 0.32724 0.21788 0.65381 0.0
H2534 H 0.2996 0.22106 0.64539 0.0
C2535 C 0.20669 0.22317 0.61481 0.0
C2536 C 0.23098 0.19823 0.63149 0.0
H2537 H 0.26394 0.21225 0.6559 0.0
C2538 C 0.23603 0.18553 0.6255 0.0
C2539 C 0.24101 0.20782 0.64265 0.0
C2540 C 0.23572 0.22112 0.64969 0.0
C2541 C 0.25131 0.18265 0.63014 0.0
C2542 C 0.26149 0.19238 0.64126 0.0
C2543 C 0.25618 0.20483 0.64737 0.0
C2544 C 0.27807 0.1903 0.64652 0.0
C2545 C 0.25687 0.16976 0.62283 0.0
C2546 C 0.27517 0.172 0.65001 0.0
C2547 C 0.29097 0.17018 0.65475 0.0
C2548 C 0.30983 0.1867 0.6564 0.0
C2549 C 0.31275 0.20497 0.65283 0.0
C2550 C 0.29698 0.20679 0.64804 0.0
H2551 H 0.25142 0.16767 0.61299 0.0
H2552 H 0.2732 0.17596 0.62274 0.0
H2553 H 0.25005 0.15522 0.62728 0.0
H2554 H 0.26068 0.1591 0.64912 0.0
H2555 H 0.28839 0.15584 0.65704 0.0
H2556 H 0.77565 0.95664 0.62985 0.0
H2557 H 0.78445 0.98767 0.63994 0.0
H2558 H 0.79439 0.01492 0.60377 0.0
H2559 H 0.78643 0.98415 0.59361 0.0
H2560 H 0.82419 0.03665 0.6206 0.0
H2561 H 0.75062 0.01353 0.64156 0.0
H2562 H 0.76072 0.9983 0.64575 0.0
H2563 H 0.75427 0.99937 0.62969 0.0
C2564 C 0.77984 0.96926 0.62403 0.0
C2565 C 0.78028 0.96789 0.61091 0.0
C2566 C 0.78463 0.98692 0.62981 0.0
C2567 C 0.78974 0.0035 0.62259 0.0
C2568 C 0.79033 0.00224 0.60951 0.0
H2569 H 0.79654 0.11064 0.64775 0.0
H2570 H 0.78801 0.07976 0.6376 0.0
C2571 C 0.78562 0.98461 0.60371 0.0
C2572 C 0.79499 0.0223 0.62868 0.0
H2573 H 0.77725 0.0443 0.6481 0.0
C2574 C 0.81392 0.03836 0.62658 0.0
C2575 C 0.78146 0.02452 0.63635 0.0
C2576 C 0.76056 0.00807 0.63839 0.0
C2577 C 0.81979 0.05656 0.63209 0.0
C2578 C 0.80649 0.05861 0.6401 0.0
C2579 C 0.78748 0.04261 0.64206 0.0
C2580 C 0.81184 0.07734 0.64631 0.0
C2581 C 0.84001 0.07351 0.62909 0.0
C2582 C 0.82797 0.08613 0.65466 0.0
C2583 C 0.83301 0.10388 0.66041 0.0
C2584 C 0.82181 0.11302 0.65806 0.0
C2585 C 0.80551 0.10404 0.64978 0.0
C2586 C 0.80056 0.08635 0.64399 0.0
H2587 H 0.84609 0.07087 0.62037 0.0
H2588 H 0.83945 0.08715 0.628 0.0
H2589 H 0.85042 0.07565 0.63686 0.0
H2590 H 0.83666 0.07924 0.65675 0.0
H2591 H 0.84578 0.11047 0.66661 0.0
H2592 H 0.46106 0.3654 0.7417 0.0
H2593 H 0.43709 0.33449 0.73182 0.0
H2594 H 0.48506 0.3274 0.71788 0.0
H2595 H 0.50912 0.35799 0.72802 0.0
H2596 H 0.43336 0.32399 0.70629 0.0
H2597 H 0.44929 0.27557 0.73554 0.0
H2598 H 0.45735 0.30048 0.73989 0.0
H2599 H 0.47073 0.2952 0.72831 0.0
C2600 C 0.46651 0.35714 0.73666 0.0
C2601 C 0.48701 0.36411 0.73571 0.0
C2602 C 0.4528 0.33956 0.73096 0.0
C2603 C 0.45929 0.32854 0.72427 0.0
C2604 C 0.47972 0.33553 0.72318 0.0
H2605 H 0.40214 0.2199 0.68281 0.0
H2606 H 0.4254 0.25103 0.69257 0.0
C2607 C 0.49346 0.35312 0.72887 0.0
C2608 C 0.4447 0.30991 0.71823 0.0
H2609 H 0.42827 0.2611 0.71788 0.0
C2610 C 0.43215 0.31021 0.70886 0.0
C2611 C 0.44319 0.29198 0.72161 0.0
C2612 C 0.45572 0.29067 0.73196 0.0
C2613 C 0.4184 0.29309 0.70257 0.0
C2614 C 0.41696 0.27518 0.70592 0.0
C2615 C 0.42945 0.27487 0.71533 0.0
C2616 C 0.40269 0.25657 0.69971 0.0
C2617 C 0.40589 0.29439 0.6922 0.0
C2618 C 0.38216 0.24926 0.70057 0.0
C2619 C 0.36878 0.2315 0.6949 0.0
C2620 C 0.3757 0.22069 0.68831 0.0
C2621 C 0.39628 0.22799 0.68759 0.0
C2622 C 0.40962 0.24574 0.69325 0.0
H2623 H 0.4122 0.30952 0.68871 0.0
H2624 H 0.40447 0.28474 0.68422 0.0
H2625 H 0.39079 0.28963 0.6958 0.0
H2626 H 0.37649 0.2572 0.70574 0.0
H2627 H 0.35304 0.22626 0.69572 0.0
H2628 H 0.64251 0.09905 0.73758 0.0
H2629 H 0.67295 0.10462 0.72738 0.0
H2630 H 0.68529 0.16182 0.71626 0.0
H2631 H 0.65475 0.15632 0.72642 0.0
H2632 H 0.69125 0.14229 0.69714 0.0
H2633 H 0.72925 0.13817 0.74002 0.0
H2634 H 0.7053 0.11699 0.73772 0.0
H2635 H 0.70721 0.14027 0.74056 0.0
C2636 C 0.65179 0.11291 0.73308 0.0
C2637 C 0.64623 0.12729 0.73291 0.0
C2638 C 0.66924 0.11609 0.72726 0.0
C2639 C 0.68167 0.1338 0.72126 0.0
C2640 C 0.67601 0.14808 0.72089 0.0
H2641 H 0.79789 0.17756 0.68609 0.0
H2642 H 0.76711 0.17482 0.69409 0.0
C2643 C 0.6585 0.14488 0.72666 0.0
C2644 C 0.70031 0.13722 0.71515 0.0
H2645 H 0.74356 0.13699 0.72052 0.0
C2646 C 0.7028 0.14138 0.70229 0.0
C2647 C 0.71543 0.13605 0.72187 0.0
C2648 C 0.7143 0.13283 0.73583 0.0
C2649 C 0.71966 0.14378 0.69591 0.0
C2650 C 0.73442 0.142 0.70255 0.0
C2651 C 0.73213 0.1382 0.71544 0.0
C2652 C 0.75215 0.14355 0.69628 0.0
C2653 C 0.72126 0.14732 0.68202 0.0
C2654 C 0.75387 0.12687 0.69473 0.0
C2655 C 0.77132 0.12838 0.69 0.0
C2656 C 0.78741 0.14658 0.68673 0.0
C2657 C 0.78559 0.16327 0.68814 0.0
C2658 C 0.76803 0.16174 0.69279 0.0
H2659 H 0.70838 0.14806 0.67814 0.0
H2660 H 0.73502 0.16118 0.67993 0.0
H2661 H 0.72219 0.13535 0.67724 0.0
H2662 H 0.74185 0.11273 0.69746 0.0
H2663 H 0.77246 0.11534 0.6892 0.0
H2664 H 0.91575 0.5483 0.73805 0.0
H2665 H 0.90593 0.56984 0.72788 0.0
H2666 H 0.85452 0.51996 0.71199 0.0
H2667 H 0.86384 0.49829 0.72246 0.0
H2668 H 0.90015 0.57337 0.70225 0.0
H2669 H 0.83103 0.5501 0.72925 0.0
H2670 H 0.84978 0.54437 0.73408 0.0
H2671 H 0.83265 0.53065 0.72171 0.0
C2672 C 0.90223 0.5419 0.73251 0.0
C2673 C 0.89051 0.52157 0.73112 0.0
C2674 C 0.89672 0.55422 0.72664 0.0
C2675 C 0.87937 0.54646 0.71934 0.0
C2676 C 0.86779 0.52622 0.71777 0.0
H2677 H 0.82317 0.60134 0.6786 0.0
H2678 H 0.83216 0.57802 0.68687 0.0
C2679 C 0.87327 0.51387 0.72364 0.0
C2680 C 0.87353 0.5596 0.71326 0.0
H2681 H 0.83727 0.57189 0.71253 0.0
C2682 C 0.88642 0.57308 0.70449 0.0
C2683 C 0.85556 0.5591 0.7162 0.0
C2684 C 0.84151 0.54541 0.7259 0.0
C2685 C 0.88178 0.58605 0.69853 0.0
C2686 C 0.86394 0.58569 0.70157 0.0
C2687 C 0.85092 0.57206 0.71022 0.0
C2688 C 0.85884 0.59983 0.69624 0.0
C2689 C 0.89591 0.59991 0.68893 0.0
C2690 C 0.87077 0.61975 0.69889 0.0
C2691 C 0.86574 0.63311 0.69416 0.0
C2692 C 0.84863 0.62678 0.6867 0.0
C2693 C 0.83661 0.60675 0.68415 0.0
C2694 C 0.84166 0.59339 0.6889 0.0
H2695 H 0.90604 0.59497 0.6853 0.0
H2696 H 0.8877 0.60153 0.68093 0.0
H2697 H 0.90513 0.61446 0.69333 0.0
H2698 H 0.88387 0.62495 0.70475 0.0
H2699 H 0.87527 0.64839 0.69638 0.0
H2700 H 0.46332 0.95451 0.19135 0.0
H2701 H 0.47128 0.96889 0.17043 0.0
H2702 H 0.48281 0.9237 0.158 0.0
H2703 H 0.47457 0.90903 0.17884 0.0
H2704 H 0.50821 0.98222 0.15746 0.0
H2705 H 0.44417 0.9239 0.13107 0.0
H2706 H 0.4442 0.92624 0.14791 0.0
H2707 H 0.45782 0.91604 0.14072 0.0
C2708 C 0.46729 0.94746 0.18413 0.0
C2709 C 0.46824 0.93056 0.18678 0.0
C2710 C 0.47194 0.95577 0.17219 0.0
C2711 C 0.47742 0.94725 0.16261 0.0
C2712 C 0.47835 0.93037 0.16519 0.0
H2713 H 0.51224 0.97929 0.08466 0.0
H2714 H 0.50241 0.9625 0.10484 0.0
C2715 C 0.47382 0.92211 0.17715 0.0
C2716 C 0.48289 0.95648 0.15006 0.0
H2717 H 0.46901 0.94959 0.1192 0.0
C2718 C 0.49962 0.97512 0.1491 0.0
C2719 C 0.47176 0.94712 0.13915 0.0
C2720 C 0.45338 0.92728 0.1397 0.0
C2721 C 0.50564 0.98461 0.13751 0.0
C2722 C 0.49431 0.97542 0.1266 0.0
C2723 C 0.47767 0.95667 0.12755 0.0
C2724 C 0.4994 0.98517 0.11417 0.0
C2725 C 0.52437 0.00421 0.13705 0.0
C2726 C 0.50044 0.00323 0.11257 0.0
C2727 C 0.5061 0.01285 0.10108 0.0
C2728 C 0.51061 0.00453 0.09085 0.0
C2729 C 0.5088 0.98607 0.09232 0.0
C2730 C 0.50326 0.9765 0.10387 0.0
H2731 H 0.53426 0.00645 0.14518 0.0
H2732 H 0.53273 0.00585 0.12831 0.0
H2733 H 0.52041 0.01585 0.13734 0.0
H2734 H 0.49695 0.00997 0.12024 0.0
H2735 H 0.50692 0.02685 0.1002 0.0
H2736 H 0.06414 0.51084 0.18086 0.0
H2737 H 0.05008 0.50491 0.15967 0.0
H2738 H 0.01466 0.53061 0.17002 0.0
H2739 H 0.02838 0.53636 0.19125 0.0
H2740 H 0.00928 0.48334 0.15184 0.0
H2741 H 0.04522 0.56136 0.1387 0.0
H2742 H 0.05326 0.55298 0.15199 0.0
H2743 H 0.03152 0.55537 0.15307 0.0
C2744 C 0.05321 0.51506 0.17867 0.0
C2745 C 0.04749 0.5242 0.18773 0.0
C2746 C 0.04528 0.51175 0.16654 0.0
C2747 C 0.03159 0.51761 0.16325 0.0
C2748 C 0.02553 0.52636 0.17232 0.0
H2749 H 0.96752 0.51512 0.09639 0.0
H2750 H 0.98136 0.51906 0.1175 0.0
C2751 C 0.03342 0.52965 0.18444 0.0
C2752 C 0.02354 0.51453 0.15033 0.0
H2753 H 0.02103 0.53863 0.1246 0.0
C2754 C 0.01192 0.4954 0.14584 0.0
C2755 C 0.02704 0.53032 0.14256 0.0
C2756 C 0.04008 0.55118 0.14675 0.0
C2757 C 0.00324 0.49161 0.13385 0.0
C2758 C 0.00663 0.50741 0.1261 0.0
C2759 C 0.01841 0.52655 0.13057 0.0
C2760 C 0.99792 0.50447 0.11336 0.0
C2761 C 0.99008 0.47074 0.12972 0.0
C2762 C 0.00277 0.49509 0.10402 0.0
C2763 C 0.99475 0.49267 0.09197 0.0
C2764 C 0.98183 0.49972 0.08901 0.0
C2765 C 0.97715 0.50924 0.0984 0.0
C2766 C 0.98515 0.51163 0.11044 0.0
H2767 H 0.98495 0.46062 0.13779 0.0
H2768 H 0.97689 0.46897 0.12451 0.0
H2769 H 0.99854 0.46645 0.1234 0.0
H2770 H 0.01289 0.48979 0.10601 0.0
H2771 H 0.99855 0.48514 0.08499 0.0
H2772 H 0.49925 0.53569 0.1913 0.0
H2773 H 0.50709 0.52936 0.1703 0.0
H2774 H 0.44526 0.5021 0.1599 0.0
H2775 H 0.43733 0.50899 0.18081 0.0
H2776 H 0.49327 0.49395 0.15787 0.0
H2777 H 0.47254 0.54204 0.13208 0.0
H2778 H 0.47582 0.5433 0.14887 0.0
H2779 H 0.45346 0.52416 0.14187 0.0
C2780 C 0.48732 0.52856 0.18452 0.0
C2781 C 0.46768 0.52302 0.18772 0.0
C2782 C 0.49182 0.52482 0.17254 0.0
C2783 C 0.47681 0.51553 0.16348 0.0
C2784 C 0.45713 0.50962 0.16668 0.0
H2785 H 0.48383 0.48526 0.08548 0.0
H2786 H 0.47194 0.48878 0.106 0.0
C2787 C 0.45259 0.51337 0.17868 0.0
C2788 C 0.4819 0.51187 0.15076 0.0
H2789 H 0.48238 0.52339 0.11991 0.0
C2790 C 0.49087 0.50037 0.14957 0.0
C2791 C 0.47869 0.52021 0.13994 0.0
C2792 C 0.46975 0.53326 0.1407 0.0
C2793 C 0.49676 0.497 0.13786 0.0
C2794 C 0.49389 0.50563 0.12707 0.0
C2795 C 0.48457 0.51681 0.12821 0.0
C2796 C 0.50109 0.50373 0.1146 0.0
C2797 C 0.5059 0.48413 0.13711 0.0
C2798 C 0.52144 0.51131 0.11258 0.0
C2799 C 0.52829 0.50945 0.10087 0.0
C2800 C 0.51493 0.50002 0.09091 0.0
C2801 C 0.49455 0.49274 0.09291 0.0
C2802 C 0.48771 0.49464 0.10464 0.0
H2803 H 0.50223 0.4746 0.14544 0.0
H2804 H 0.5008 0.47483 0.12856 0.0
H2805 H 0.52228 0.49339 0.13669 0.0
H2806 H 0.53206 0.51878 0.12006 0.0
H2807 H 0.54411 0.51559 0.0996 0.0
H2808 H 0.9307 0.44835 0.83247 0.0
H2809 H 0.94473 0.45452 0.85365 0.0
H2810 H 0.99186 0.51086 0.84216 0.0
H2811 H 0.97782 0.50483 0.82098 0.0
H2812 H 0.9814 0.46121 0.86084 0.0
H2813 H 0.97251 0.52424 0.8739 0.0
H2814 H 0.96007 0.50886 0.86053 0.0
H2815 H 0.98571 0.52754 0.85955 0.0
C2816 C 0.94403 0.46206 0.83447 0.0
C2817 C 0.95315 0.47613 0.82508 0.0
C2818 C 0.95198 0.46559 0.84658 0.0
C2819 C 0.96916 0.48325 0.84952 0.0
C2820 C 0.97831 0.49733 0.84017 0.0
H2821 H 0.04611 0.52678 0.91481 0.0
H2822 H 0.03104 0.52158 0.89392 0.0
C2823 C 0.9703 0.49386 0.82807 0.0
C2824 C 0.978 0.48651 0.86223 0.0
H2825 H 0.9922 0.51705 0.88759 0.0
C2826 C 0.98365 0.47335 0.86672 0.0
C2827 C 0.98094 0.50238 0.86987 0.0
C2828 C 0.97433 0.51647 0.86578 0.0
C2829 C 0.99244 0.4758 0.87858 0.0
C2830 C 0.99548 0.49171 0.88616 0.0
C2831 C 0.98987 0.50489 0.8817 0.0
C2832 C 0.00443 0.49487 0.89879 0.0
C2833 C 0.99875 0.46155 0.88283 0.0
C2834 C 0.99431 0.48165 0.90842 0.0
C2835 C 0.00286 0.48455 0.92033 0.0
C2836 C 0.02169 0.50074 0.9228 0.0
C2837 C 0.0317 0.51405 0.91314 0.0
C2838 C 0.02308 0.51118 0.90124 0.0
H2839 H 0.99921 0.45262 0.87493 0.0
H2840 H 0.01362 0.46931 0.88737 0.0
H2841 H 0.98801 0.45156 0.88982 0.0
H2842 H 0.97979 0.46908 0.90672 0.0
H2843 H 0.99486 0.47399 0.92756 0.0
H2844 H 0.54042 0.50468 0.82179 0.0
H2845 H 0.53222 0.51117 0.84275 0.0
H2846 H 0.52382 0.45599 0.85544 0.0
H2847 H 0.53229 0.44953 0.8346 0.0
H2848 H 0.49564 0.48695 0.8557 0.0
H2849 H 0.56127 0.49567 0.88214 0.0
H2850 H 0.56104 0.49761 0.8653 0.0
H2851 H 0.54885 0.4741 0.87257 0.0
C2852 C 0.53711 0.49406 0.8291 0.0
C2853 C 0.53702 0.47659 0.82654 0.0
C2854 C 0.53234 0.49775 0.84104 0.0
C2855 C 0.52763 0.48416 0.85067 0.0
C2856 C 0.52769 0.46679 0.84818 0.0
H2857 H 0.48931 0.47384 0.92774 0.0
H2858 H 0.50067 0.46992 0.90715 0.0
C2859 C 0.53234 0.46304 0.83624 0.0
C2860 C 0.52174 0.48769 0.86316 0.0
H2861 H 0.53473 0.49374 0.89412 0.0
C2862 C 0.50424 0.48858 0.86411 0.0
C2863 C 0.53294 0.48966 0.87408 0.0
C2864 C 0.55217 0.48938 0.87353 0.0
C2865 C 0.49736 0.49097 0.87575 0.0
C2866 C 0.50858 0.49299 0.8867 0.0
C2867 C 0.52616 0.4922 0.88573 0.0
C2868 C 0.5022 0.49575 0.89927 0.0
C2869 C 0.47784 0.4907 0.87624 0.0
C2870 C 0.49966 0.51177 0.90175 0.0
C2871 C 0.49313 0.51401 0.91349 0.0
C2872 C 0.48924 0.5004 0.92304 0.0
C2873 C 0.4923 0.48464 0.92062 0.0
C2874 C 0.49872 0.48235 0.90885 0.0
H2875 H 0.46863 0.48373 0.86775 0.0
H2876 H 0.46921 0.48281 0.88462 0.0
H2877 H 0.48074 0.50589 0.87675 0.0
H2878 H 0.50276 0.52257 0.89462 0.0
H2879 H 0.49128 0.5265 0.91514 0.0
H2880 H 0.56535 0.08611 0.83289 0.0
H2881 H 0.55706 0.07104 0.85362 0.0
H2882 H 0.49542 0.03792 0.84277 0.0
H2883 H 0.50361 0.05237 0.82195 0.0
H2884 H 0.53141 0.07148 0.87174 0.0
H2885 H 0.50648 0.99598 0.8559 0.0
H2886 H 0.52035 0.01683 0.84598 0.0
H2887 H 0.4941 0.00692 0.84801 0.0
C2888 C 0.55005 0.07544 0.83485 0.0
C2889 C 0.53517 0.0704 0.82569 0.0
C2890 C 0.54533 0.06694 0.84675 0.0
C2891 C 0.52566 0.05313 0.8497 0.0
C2892 C 0.51075 0.04827 0.84064 0.0
H2893 H 0.46116 0.9845 0.91348 0.0
H2894 H 0.47224 0.00141 0.89352 0.0
C2895 C 0.51544 0.05674 0.82877 0.0
C2896 C 0.52064 0.04395 0.86228 0.0
H2897 H 0.49919 -0.0001 0.87696 0.0
C2898 C 0.52451 0.05585 0.87291 0.0
C2899 C 0.51168 0.02355 0.86379 0.0
C2900 C 0.50807 0.01007 0.85283 0.0
C2901 C 0.51908 0.04784 0.88496 0.0
C2902 C 0.50979 0.0274 0.88644 0.0
C2903 C 0.50621 0.01556 0.87582 0.0
C2904 C 0.50323 0.01789 0.89884 0.0
C2905 C 0.52276 0.06125 0.89596 0.0
C2906 C 0.51697 0.0215 0.90851 0.0
C2907 C 0.51068 0.01176 0.91996 0.0
C2908 C 0.49053 0.99808 0.92193 0.0
C2909 C 0.47682 0.99469 0.91225 0.0
C2910 C 0.48311 0.00442 0.90083 0.0
H2911 H 0.52564 0.07583 0.89294 0.0
H2912 H 0.5099 0.05494 0.90241 0.0
H2913 H 0.53595 0.06324 0.90126 0.0
H2914 H 0.53262 0.03154 0.90712 0.0
H2915 H 0.52168 0.01453 0.92714 0.0
H2916 H 0.14397 0.24575 0.51269 0.0
H2917 H 0.1524 0.2608 0.49195 0.0
H2918 H 0.1385 0.30442 0.5043 0.0
H2919 H 0.13032 0.28966 0.52511 0.0
H2920 H 0.12764 0.26848 0.47489 0.0
H2921 H 0.19594 0.33573 0.49023 0.0
H2922 H 0.18454 0.31383 0.4995 0.0
H2923 H 0.17402 0.32948 0.49914 0.0
C2924 C 0.14283 0.25862 0.51103 0.0
C2925 C 0.13656 0.26655 0.5206 0.0
C2926 C 0.14754 0.26713 0.49914 0.0
C2927 C 0.14628 0.28384 0.49663 0.0
C2928 C 0.13979 0.29165 0.50609 0.0
H2929 H 0.17553 0.36209 0.43366 0.0
H2930 H 0.16499 0.34517 0.45368 0.0
C2931 C 0.13496 0.2831 0.51794 0.0
C2932 C 0.15181 0.29316 0.48412 0.0
H2933 H 0.18533 0.33482 0.46934 0.0
C2934 C 0.14029 0.28295 0.47364 0.0
C2935 C 0.16829 0.31205 0.48254 0.0
C2936 C 0.18156 0.32342 0.49341 0.0
C2937 C 0.14455 0.29131 0.46164 0.0
C2938 C 0.16108 0.31023 0.46004 0.0
C2939 C 0.17265 0.32035 0.47055 0.0
C2940 C 0.16663 0.31993 0.44761 0.0
C2941 C 0.13096 0.28002 0.45088 0.0
C2942 C 0.17111 0.31143 0.43749 0.0
C2943 C 0.17708 0.32107 0.42599 0.0
C2944 C 0.17898 0.33954 0.42443 0.0
C2945 C 0.17443 0.34798 0.43458 0.0
C2946 C 0.16834 0.33829 0.44602 0.0
H2947 H 0.11617 0.26859 0.45422 0.0
H2948 H 0.12885 0.2898 0.44443 0.0
H2949 H 0.1376 0.2727 0.44553 0.0
H2950 H 0.17041 0.29753 0.43855 0.0
H2951 H 0.18076 0.3143 0.41843 0.0
H2952 H 0.72845 0.84212 0.5134 0.0
H2953 H 0.71431 0.83619 0.49222 0.0
H2954 H 0.67801 0.86079 0.50288 0.0
H2955 H 0.69179 0.86652 0.5241 0.0
H2956 H 0.67325 0.81427 0.48428 0.0
H2957 H 0.70905 0.89258 0.47184 0.0
H2958 H 0.71712 0.88396 0.48498 0.0
H2959 H 0.69529 0.88616 0.48619 0.0
C2960 C 0.71729 0.84607 0.51128 0.0
C2961 C 0.71136 0.85493 0.52042 0.0
C2962 C 0.70931 0.84275 0.49917 0.0
C2963 C 0.69538 0.84835 0.49596 0.0
C2964 C 0.68906 0.85674 0.50512 0.0
H2965 H 0.63262 0.84748 0.42885 0.0
H2966 H 0.64589 0.85079 0.45006 0.0
C2967 C 0.69698 0.86003 0.51722 0.0
C2968 C 0.68746 0.84548 0.48303 0.0
H2969 H 0.68525 0.87008 0.45748 0.0
C2970 C 0.67593 0.82644 0.47837 0.0
C2971 C 0.69102 0.86143 0.47539 0.0
C2972 C 0.70393 0.88221 0.47977 0.0
C2973 C 0.66742 0.82289 0.46634 0.0
C2974 C 0.67089 0.83884 0.45872 0.0
C2975 C 0.68257 0.85788 0.46336 0.0
C2976 C 0.66242 0.83617 0.44593 0.0
C2977 C 0.65436 0.8021 0.46203 0.0
C2978 C 0.66743 0.82696 0.43655 0.0
C2979 C 0.65972 0.82489 0.42443 0.0
C2980 C 0.64698 0.83213 0.42145 0.0
C2981 C 0.64212 0.84146 0.43087 0.0
C2982 C 0.6498 0.84348 0.44298 0.0
H2983 H 0.64906 0.79182 0.47002 0.0
H2984 H 0.64128 0.80042 0.45673 0.0
H2985 H 0.66297 0.79792 0.45575 0.0
H2986 H 0.67745 0.82154 0.43856 0.0
H2987 H 0.66365 0.81751 0.41743 0.0
H2988 H 0.10383 0.84318 0.51426 0.0
H2989 H 0.11181 0.83602 0.49343 0.0
H2990 H 0.17308 0.86064 0.50459 0.0
H2991 H 0.16516 0.86723 0.52549 0.0
H2992 H 0.13829 0.86211 0.47609 0.0
H2993 H 0.16033 0.80816 0.48977 0.0
H2994 H 0.14689 0.81548 0.50011 0.0
H2995 H 0.1733 0.83063 0.49839 0.0
C2996 C 0.11894 0.84678 0.51234 0.0
C2997 C 0.13384 0.85574 0.52156 0.0
C2998 C 0.12349 0.8428 0.50041 0.0
C2999 C 0.14298 0.84755 0.49751 0.0
C3000 C 0.15788 0.85651 0.50668 0.0
H3001 H 0.2092 0.84749 0.43323 0.0
H3002 H 0.19728 0.85114 0.45364 0.0
C3003 C 0.15335 0.86049 0.51859 0.0
C3004 C 0.14797 0.84379 0.48479 0.0
H3005 H 0.16901 0.82106 0.46914 0.0
C3006 C 0.14481 0.85297 0.47454 0.0
C3007 C 0.15646 0.83184 0.48279 0.0
C3008 C 0.15928 0.8208 0.49333 0.0
C3009 C 0.15056 0.85107 0.46239 0.0
C3010 C 0.15946 0.83948 0.46046 0.0
C3011 C 0.16227 0.83001 0.47067 0.0
C3012 C 0.16646 0.83738 0.44796 0.0
C3013 C 0.14769 0.86199 0.4518 0.0
C3014 C 0.15304 0.82831 0.43802 0.0
C3015 C 0.15979 0.82609 0.42634 0.0
C3016 C 0.18008 0.83282 0.42441 0.0
C3017 C 0.19345 0.8419 0.43442 0.0
C3018 C 0.18669 0.84409 0.44608 0.0
H3019 H 0.14467 0.87348 0.45528 0.0
H3020 H 0.16099 0.86885 0.44573 0.0
H3021 H 0.13486 0.85163 0.44596 0.0
H3022 H 0.13731 0.8227 0.43934 0.0
H3023 H 0.14906 0.81875 0.4189 0.0
H3024 H 0.61056 0.82675 0.16346 0.0
H3025 H 0.62524 0.83373 0.18449 0.0
H3026 H 0.66087 0.80812 0.1744 0.0
H3027 H 0.64687 0.80176 0.15324 0.0
H3028 H 0.62366 0.80731 0.20187 0.0
H3029 H 0.70174 0.85995 0.18982 0.0
H3030 H 0.68145 0.85312 0.17894 0.0
H3031 H 0.69172 0.83744 0.18125 0.0
C3032 C 0.62179 0.82293 0.16565 0.0
C3033 C 0.6276 0.81376 0.15666 0.0
C3034 C 0.63005 0.8268 0.17769 0.0
C3035 C 0.64434 0.82169 0.18094 0.0
C3036 C 0.65015 0.81253 0.17201 0.0
H3037 H 0.70485 0.81921 0.24794 0.0
H3038 H 0.69113 0.81613 0.22687 0.0
C3039 C 0.64195 0.80869 0.15997 0.0
C3040 C 0.65255 0.82515 0.19382 0.0
H3041 H 0.69591 0.84716 0.21054 0.0
C3042 C 0.63943 0.81618 0.20379 0.0
C3043 C 0.67313 0.83674 0.19628 0.0
C3044 C 0.68782 0.84752 0.18602 0.0
C3045 C 0.64642 0.818 0.21614 0.0
C3046 C 0.66703 0.82928 0.21855 0.0
C3047 C 0.68012 0.83847 0.20861 0.0
C3048 C 0.67535 0.83138 0.2313 0.0
C3049 C 0.6318 0.80741 0.22646 0.0
C3050 C 0.67116 0.84117 0.24071 0.0
C3051 C 0.67908 0.84309 0.25274 0.0
C3052 C 0.69139 0.83528 0.25556 0.0
C3053 C 0.69564 0.8256 0.24605 0.0
C3054 C 0.68774 0.82374 0.23403 0.0
H3055 H 0.6171 0.79622 0.22273 0.0
H3056 H 0.63749 0.80023 0.23283 0.0
H3057 H 0.62969 0.81804 0.23207 0.0
H3058 H 0.66188 0.84746 0.23871 0.0
H3059 H 0.67579 0.85091 0.25979 0.0
H3060 H 0.17135 0.79602 0.15566 0.0
H3061 H 0.16315 0.80203 0.17666 0.0
H3062 H 0.22452 0.82749 0.18779 0.0
H3063 H 0.23286 0.82135 0.16681 0.0
H3064 H 0.16914 0.78786 0.19956 0.0
H3065 H 0.20997 0.86881 0.19844 0.0
H3066 H 0.2043 0.85407 0.18444 0.0
H3067 H 0.22434 0.85751 0.19453 0.0
C3068 C 0.18311 0.80282 0.16258 0.0
C3069 C 0.20277 0.80819 0.15954 0.0
C3070 C 0.1784 0.80633 0.17456 0.0
C3071 C 0.19325 0.8154 0.18374 0.0
C3072 C 0.2129 0.82082 0.18077 0.0
H3073 H 0.18794 0.847 0.26148 0.0
H3074 H 0.19882 0.84116 0.24124 0.0
C3075 C 0.21764 0.8173 0.16877 0.0
C3076 C 0.18796 0.81861 0.1965 0.0
H3077 H 0.19501 0.85404 0.2176 0.0
C3078 C 0.17478 0.80233 0.20351 0.0
C3079 C 0.19544 0.83749 0.20164 0.0
C3080 C 0.20918 0.85552 0.19437 0.0
C3081 C 0.16889 0.8044 0.21556 0.0
C3082 C 0.17608 0.82329 0.22062 0.0
C3083 C 0.18951 0.83957 0.21369 0.0
C3084 C 0.16943 0.82648 0.23296 0.0
C3085 C 0.15521 0.78633 0.22282 0.0
C3086 C 0.14934 0.82032 0.23497 0.0
C3087 C 0.14306 0.82351 0.24653 0.0
C3088 C 0.15678 0.83307 0.2563 0.0
C3089 C 0.17695 0.83935 0.25422 0.0
C3090 C 0.18321 0.83614 0.24264 0.0
H3091 H 0.15561 0.77335 0.21924 0.0
H3092 H 0.15918 0.78821 0.23293 0.0
H3093 H 0.13976 0.78342 0.22186 0.0
H3094 H 0.1385 0.81315 0.22755 0.0
H3095 H 0.12741 0.81835 0.24783 0.0
H3096 H 0.23268 0.41615 0.1664 0.0
H3097 H 0.22472 0.40104 0.18713 0.0
H3098 H 0.1631 0.36704 0.17639 0.0
H3099 H 0.17097 0.38153 0.15558 0.0
H3100 H 0.19895 0.40127 0.2052 0.0
H3101 H 0.17487 0.32578 0.18982 0.0
H3102 H 0.18848 0.34653 0.17978 0.0
H3103 H 0.16219 0.33629 0.18181 0.0
C3104 C 0.21747 0.40526 0.16839 0.0
C3105 C 0.20248 0.40003 0.15927 0.0
C3106 C 0.21293 0.39674 0.18028 0.0
C3107 C 0.19336 0.3827 0.18327 0.0
C3108 C 0.17836 0.37757 0.17424 0.0
H3109 H 0.12842 0.31494 0.24712 0.0
H3110 H 0.1398 0.33146 0.22705 0.0
C3111 C 0.18287 0.38606 0.16237 0.0
C3112 C 0.18846 0.37367 0.19589 0.0
H3113 H 0.16713 0.32979 0.21079 0.0
C3114 C 0.19216 0.38566 0.20645 0.0
C3115 C 0.17964 0.3533 0.19751 0.0
C3116 C 0.17623 0.33972 0.18665 0.0
C3117 C 0.18665 0.37777 0.21853 0.0
C3118 C 0.17745 0.35737 0.2201 0.0
C3119 C 0.17408 0.34542 0.20957 0.0
C3120 C 0.17072 0.34798 0.23253 0.0
C3121 C 0.19012 0.39128 0.22944 0.0
C3122 C 0.18433 0.35173 0.24231 0.0
C3123 C 0.17786 0.3422 0.25381 0.0
C3124 C 0.15767 0.32863 0.25574 0.0
C3125 C 0.1441 0.32507 0.24593 0.0
C3126 C 0.15057 0.33457 0.23446 0.0
H3127 H 0.19306 0.40583 0.22632 0.0
H3128 H 0.17714 0.38501 0.23579 0.0
H3129 H 0.20322 0.39332 0.23488 0.0
H3130 H 0.2 0.36173 0.24096 0.0
H3131 H 0.18876 0.3451 0.26108 0.0
H3132 H 0.7975 0.62109 0.85858 0.0
H3133 H 0.80578 0.63569 0.83772 0.0
H3134 H 0.81704 0.59037 0.82519 0.0
H3135 H 0.8085 0.57549 0.84597 0.0
H3136 H 0.84292 0.64882 0.82486 0.0
H3137 H 0.77858 0.59119 0.79827 0.0
H3138 H 0.77853 0.59347 0.81511 0.0
H3139 H 0.79195 0.58305 0.80795 0.0
C3140 C 0.80149 0.61407 0.85134 0.0
C3141 C 0.80227 0.59707 0.85394 0.0
C3142 C 0.80632 0.6225 0.83945 0.0
C3143 C 0.81181 0.614 0.82987 0.0
C3144 C 0.81257 0.59702 0.8324 0.0
H3145 H 0.84684 0.64636 0.75203 0.0
H3146 H 0.83699 0.62952 0.77219 0.0
C3147 C 0.80787 0.58865 0.84431 0.0
C3148 C 0.81741 0.62333 0.81737 0.0
H3149 H 0.8036 0.61688 0.78651 0.0
C3150 C 0.8343 0.64187 0.81647 0.0
C3151 C 0.80625 0.61416 0.80643 0.0
C3152 C 0.78772 0.59442 0.80692 0.0
C3153 C 0.84045 0.65144 0.80492 0.0
C3154 C 0.82908 0.64245 0.79399 0.0
C3155 C 0.81228 0.6238 0.79487 0.0
C3156 C 0.83429 0.6523 0.78161 0.0
C3157 C 0.85933 0.67093 0.80452 0.0
C3158 C 0.83553 0.67047 0.78008 0.0
C3159 C 0.8412 0.68012 0.76861 0.0
C3160 C 0.84551 0.67172 0.75833 0.0
C3161 C 0.84355 0.6532 0.75974 0.0
C3162 C 0.83799 0.64359 0.77127 0.0
H3163 H 0.86916 0.67297 0.81265 0.0
H3164 H 0.86767 0.67254 0.79577 0.0
H3165 H 0.85556 0.6827 0.80487 0.0
H3166 H 0.83217 0.67724 0.78779 0.0
H3167 H 0.84216 0.69418 0.76777 0.0
H3168 H 0.35863 0.20214 0.85804 0.0
H3169 H 0.34449 0.19644 0.83692 0.0
H3170 H 0.37888 0.16977 0.82623 0.0
H3171 H 0.39338 0.17569 0.84729 0.0
H3172 H 0.36649 0.21071 0.8142 0.0
H3173 H 0.32143 0.12985 0.81496 0.0
H3174 H 0.33049 0.14439 0.82908 0.0
H3175 H 0.34699 0.14015 0.8196 0.0
C3176 C 0.36325 0.19512 0.8512 0.0
C3177 C 0.37717 0.1894 0.85435 0.0
C3178 C 0.35507 0.19178 0.83916 0.0
C3179 C 0.3605 0.18252 0.83008 0.0
C3180 C 0.37424 0.17663 0.83319 0.0
H3181 H 0.32812 0.15319 0.75174 0.0
H3182 H 0.34221 0.1574 0.77281 0.0
C3183 C 0.38248 0.18 0.84523 0.0
C3184 C 0.35236 0.17979 0.81721 0.0
H3185 H 0.32322 0.14519 0.79566 0.0
C3186 C 0.35698 0.1964 0.81014 0.0
C3187 C 0.34009 0.1611 0.81195 0.0
C3188 C 0.33428 0.14281 0.81929 0.0
C3189 C 0.34979 0.19482 0.79788 0.0
C3190 C 0.33727 0.17612 0.79266 0.0
C3191 C 0.33278 0.1595 0.7997 0.0
C3192 C 0.3286 0.17351 0.77994 0.0
C3193 C 0.35598 0.21318 0.79053 0.0
C3194 C 0.31605 0.18093 0.77702 0.0
C3195 C 0.30814 0.17872 0.76496 0.0
C3196 C 0.31248 0.16889 0.75561 0.0
C3197 C 0.32475 0.16113 0.75865 0.0
C3198 C 0.3327 0.16339 0.77071 0.0
H3199 H 0.36969 0.22572 0.79446 0.0
H3200 H 0.3586 0.21121 0.78055 0.0
H3201 H 0.34399 0.21688 0.79092 0.0
H3202 H 0.31239 0.18846 0.78408 0.0
H3203 H 0.29886 0.18499 0.76293 0.0
H3204 H 0.83196 0.20002 0.85834 0.0
H3205 H 0.83958 0.19347 0.83732 0.0
H3206 H 0.778 0.16819 0.82672 0.0
H3207 H 0.77032 0.17529 0.84765 0.0
H3208 H 0.82465 0.15799 0.8247 0.0
H3209 H 0.80665 0.20822 0.79911 0.0
H3210 H 0.80981 0.20919 0.81591 0.0
H3211 H 0.78716 0.19067 0.80882 0.0
C3212 C 0.82005 0.19327 0.8515 0.0
C3213 C 0.80055 0.18835 0.85466 0.0
C3214 C 0.82442 0.18941 0.83952 0.0
C3215 C 0.80943 0.18062 0.8304 0.0
C3216 C 0.78987 0.17532 0.83355 0.0
H3217 H 0.81547 0.15035 0.75224 0.0
H3218 H 0.80391 0.15435 0.77276 0.0
C3219 C 0.78547 0.17918 0.84556 0.0
C3220 C 0.81437 0.17684 0.81766 0.0
H3221 H 0.81555 0.1889 0.78686 0.0
C3222 C 0.82265 0.16473 0.81643 0.0
C3223 C 0.81167 0.1856 0.80687 0.0
C3224 C 0.80349 0.19928 0.80769 0.0
C3225 C 0.82833 0.16116 0.8047 0.0
C3226 C 0.82597 0.1702 0.79395 0.0
C3227 C 0.81735 0.18201 0.79513 0.0
C3228 C 0.83298 0.16807 0.78146 0.0
C3229 C 0.83666 0.14761 0.8039 0.0
C3230 C 0.85321 0.17482 0.77949 0.0
C3231 C 0.85987 0.17267 0.76778 0.0
C3232 C 0.84645 0.16379 0.75777 0.0
C3233 C 0.82622 0.15739 0.75971 0.0
C3234 C 0.81957 0.15957 0.77144 0.0
H3235 H 0.83253 0.13791 0.81217 0.0
H3236 H 0.83136 0.13846 0.7953 0.0
H3237 H 0.8531 0.15635 0.80357 0.0
H3238 H 0.86388 0.18185 0.78701 0.0
H3239 H 0.87559 0.17815 0.76655 0.0
H3240 H 0.26887 0.11646 0.5005 0.0
H3241 H 0.28365 0.12241 0.52145 0.0
H3242 H 0.33175 0.17779 0.50936 0.0
H3243 H 0.31694 0.17199 0.48839 0.0
H3244 H 0.31995 0.12775 0.52821 0.0
H3245 H 0.31447 0.19273 0.54135 0.0
H3246 H 0.30128 0.17742 0.52811 0.0
H3247 H 0.32719 0.19524 0.52689 0.0
C3248 C 0.28259 0.12991 0.50231 0.0
C3249 C 0.29174 0.14377 0.49281 0.0
C3250 C 0.29097 0.13332 0.51429 0.0
C3251 C 0.30865 0.15065 0.51702 0.0
C3252 C 0.31785 0.16452 0.50755 0.0
H3253 H 0.3844 0.19096 0.5834 0.0
H3254 H 0.37067 0.1868 0.56217 0.0
C3255 C 0.3094 0.16118 0.49557 0.0
C3256 C 0.3178 0.15375 0.52964 0.0
H3257 H 0.33292 0.18416 0.55509 0.0
C3258 C 0.32272 0.14005 0.5341 0.0
C3259 C 0.32144 0.16984 0.5373 0.0
C3260 C 0.31567 0.18456 0.53324 0.0
C3261 C 0.33131 0.14206 0.54598 0.0
C3262 C 0.3349 0.1581 0.55363 0.0
C3263 C 0.33017 0.17191 0.54916 0.0
C3264 C 0.34319 0.16054 0.56643 0.0
C3265 C 0.3367 0.12714 0.55023 0.0
C3266 C 0.33218 0.14724 0.57583 0.0
C3267 C 0.33995 0.14956 0.58793 0.0
C3268 C 0.35891 0.16525 0.59084 0.0
C3269 C 0.36987 0.1786 0.5814 0.0
C3270 C 0.36202 0.17632 0.5693 0.0
H3271 H 0.3371 0.11826 0.54228 0.0
H3272 H 0.35138 0.1343 0.55502 0.0
H3273 H 0.32546 0.11717 0.557 0.0
H3274 H 0.31752 0.13509 0.5738 0.0
H3275 H 0.33122 0.13896 0.59498 0.0
H3276 H 0.90041 0.15504 0.49975 0.0
H3277 H 0.8923 0.1609 0.52089 0.0
H3278 H 0.83096 0.1363 0.50992 0.0
H3279 H 0.83892 0.13061 0.48878 0.0
H3280 H 0.87441 0.18296 0.52866 0.0
H3281 H 0.82849 0.10501 0.54124 0.0
H3282 H 0.84518 0.11309 0.52808 0.0
H3283 H 0.82129 0.11135 0.52679 0.0
C3284 C 0.88523 0.15102 0.5018 0.0
C3285 C 0.87028 0.14219 0.49259 0.0
C3286 C 0.88061 0.15429 0.5139 0.0
C3287 C 0.86097 0.1487 0.51702 0.0
C3288 C 0.84613 0.1403 0.50779 0.0
H3289 H 0.79639 0.15344 0.58089 0.0
H3290 H 0.80781 0.14881 0.56056 0.0
C3291 C 0.85071 0.13704 0.49571 0.0
C3292 C 0.85594 0.15182 0.52988 0.0
H3293 H 0.827 0.12794 0.55497 0.0
C3294 C 0.86419 0.17095 0.53448 0.0
C3295 C 0.84262 0.1361 0.53743 0.0
C3296 C 0.834 0.11521 0.53321 0.0
C3297 C 0.85892 0.17481 0.54628 0.0
C3298 C 0.84532 0.15909 0.55373 0.0
C3299 C 0.83736 0.13996 0.54921 0.0
C3300 C 0.83868 0.16217 0.56611 0.0
C3301 C 0.86743 0.1957 0.55047 0.0
C3302 C 0.85221 0.17103 0.57602 0.0
C3303 C 0.84575 0.17382 0.58765 0.0
C3304 C 0.82559 0.16772 0.58959 0.0
C3305 C 0.81206 0.15861 0.57966 0.0
C3306 C 0.81853 0.15583 0.56806 0.0
H3307 H 0.87383 0.206 0.54254 0.0
H3308 H 0.8559 0.19794 0.55501 0.0
H3309 H 0.87945 0.19934 0.55742 0.0
H3310 H 0.86777 0.17571 0.57479 0.0
H3311 H 0.85658 0.18099 0.59507 0.0
H3312 H 0.8645 0.7591 0.50174 0.0
H3313 H 0.85667 0.74481 0.52267 0.0
H3314 H 0.8679 0.69936 0.51031 0.0
H3315 H 0.87591 0.71367 0.4894 0.0
H3316 H 0.82755 0.70923 0.52982 0.0
H3317 H 0.90052 0.71722 0.54212 0.0
H3318 H 0.89716 0.72948 0.52894 0.0
H3319 H 0.89059 0.70431 0.52766 0.0
C3320 C 0.86532 0.74607 0.50348 0.0
C3321 C 0.87091 0.73757 0.4939 0.0
C3322 C 0.86091 0.73796 0.51547 0.0
C3323 C 0.86201 0.72119 0.51815 0.0
C3324 C 0.86747 0.7126 0.50859 0.0
H3325 H 0.82877 0.6411 0.58008 0.0
H3326 H 0.83964 0.65846 0.56019 0.0
C3327 C 0.872 0.72077 0.49661 0.0
C3328 C 0.85661 0.71222 0.53079 0.0
H3329 H 0.87343 0.69679 0.55538 0.0
C3330 C 0.83766 0.70668 0.53546 0.0
C3331 C 0.86979 0.7089 0.53816 0.0
C3332 C 0.89072 0.71546 0.53404 0.0
C3333 C 0.83137 0.69747 0.54711 0.0
C3334 C 0.84443 0.69387 0.55436 0.0
C3335 C 0.86343 0.69954 0.54978 0.0
C3336 C 0.83842 0.68376 0.5666 0.0
C3337 C 0.81059 0.69118 0.55143 0.0
C3338 C 0.83445 0.69237 0.57687 0.0
C3339 C 0.82822 0.68248 0.58826 0.0
C3340 C 0.8258 0.66375 0.58958 0.0
C3341 C 0.83019 0.65537 0.57933 0.0
C3342 C 0.83652 0.66531 0.56798 0.0
H3343 H 0.80112 0.69147 0.54371 0.0
H3344 H 0.80346 0.67624 0.55534 0.0
H3345 H 0.81124 0.70119 0.55895 0.0
H3346 H 0.83607 0.70671 0.57605 0.0
H3347 H 0.82488 0.6893 0.59594 0.0
loop_
_geom_bond_atom_site_label_1
_geom_bond_atom_site_label_2
_geom_bond_distance
_geom_bond_site_symmetry_2
_ccdc_geom_bond_type
C0 C1 1.384 . S
C0 H13 0.947 . S
C0 C35 1.382 . S
C1 C0 1.384 . S
C1 C2 1.378 . S
C2 C1 1.378 . S
C2 C3 1.378 . S
C2 H14 0.952 . S
C3 C2 1.378 . S
C3 H15 0.950 . S
C3 C34 1.383 . S
H4 C23 0.947 . S
H5 C24 0.946 . S
H6 C26 0.953 . S
H7 C27 0.945 . S
H8 C29 0.952 . S
H9 C30 0.949 . S
H10 C32 0.950 . S
H11 C33 0.948 . S
H12 C35 0.951 . S
H13 C0 0.947 . S
H14 C2 0.952 . S
H15 C3 0.950 . S
N16 C19 1.382 . S
N16 C21 1.363 . S
N17 C19 1.371 . S
N17 C20 1.372 . S
N18 C20 1.361 . S
N18 C21 1.377 . S
C19 N16 1.382 . S
C19 N17 1.371 . S
C19 C22 1.480 . S
C20 N17 1.372 . S
C20 N18 1.361 . S
C20 C28 1.457 . S
C21 N16 1.363 . S
C21 N18 1.377 . S
C21 C34 1.479 . S
C22 C19 1.480 . S
C22 C23 1.383 . S
C22 C27 1.385 . S
C23 H4 0.947 . S
C23 C22 1.383 . S
C23 C24 1.388 . S
C24 H5 0.946 . S
C24 C23 1.388 . S
C24 C25 1.384 . S
C25 C24 1.384 . S
C25 C26 1.377 . S
C26 H6 0.953 . S
C26 C25 1.377 . S
C26 C27 1.369 . S
C27 H7 0.945 . S
C27 C22 1.385 . S
C27 C26 1.369 . S
C28 C20 1.457 . S
C28 C29 1.372 . S
C28 C33 1.364 . S
C29 H8 0.952 . S
C29 C28 1.372 . S
C29 C30 1.389 . S
C30 H9 0.949 . S
C30 C29 1.389 . S
C30 C31 1.387 . S
C31 C30 1.387 . S
C31 C32 1.372 . S
C32 H10 0.950 . S
C32 C31 1.372 . S
C32 C33 1.379 . S
C33 H11 0.948 . S
C33 C28 1.364 . S
C33 C32 1.379 . S
C34 C3 1.383 . S
C34 C21 1.479 . S
C34 C35 1.398 . S
C35 C0 1.382 . S
C35 H12 0.951 . S
C35 C34 1.398 . S
C36 C37 1.384 . S
C36 H49 0.947 . S
C36 C71 1.382 . S
C37 C36 1.384 . S
C37 C38 1.378 . S
C38 C37 1.378 . S
C38 C39 1.378 . S
C38 H50 0.952 . S
C39 C38 1.378 . S
C39 H51 0.950 . S
C39 C70 1.383 . S
H40 C59 0.947 . S
H41 C60 0.946 . S
H42 C62 0.953 . S
H43 C63 0.945 . S
H44 C65 0.952 . S
H45 C66 0.949 . S
H46 C68 0.950 . S
H47 C69 0.948 . S
H48 C71 0.951 . S
H49 C36 0.947 . S
H50 C38 0.952 . S
H51 C39 0.950 . S
N52 C55 1.382 . S
N52 C57 1.363 . S
N53 C55 1.371 . S
N53 C56 1.372 . S
N54 C56 1.361 . S
N54 C57 1.377 . S
C55 N52 1.382 . S
C55 N53 1.371 . S
C55 C58 1.480 . S
C56 N53 1.372 . S
C56 N54 1.361 . S
C56 C64 1.457 . S
C57 N52 1.363 . S
C57 N54 1.377 . S
C57 C70 1.479 . S
C58 C55 1.480 . S
C58 C59 1.383 . S
C58 C63 1.385 . S
C59 H40 0.947 . S
C59 C58 1.383 . S
C59 C60 1.388 . S
C60 H41 0.946 . S
C60 C59 1.388 . S
C60 C61 1.384 . S
C61 C60 1.384 . S
C61 C62 1.377 . S
C62 H42 0.953 . S
C62 C61 1.377 . S
C62 C63 1.369 . S
C63 H43 0.945 . S
C63 C58 1.385 . S
C63 C62 1.369 . S
C64 C56 1.457 . S
C64 C65 1.372 . S
C64 C69 1.364 . S
C65 H44 0.952 . S
C65 C64 1.372 . S
C65 C66 1.389 . S
C66 H45 0.949 . S
C66 C65 1.389 . S
C66 C67 1.387 . S
C67 C66 1.387 . S
C67 C68 1.372 . S
C68 H46 0.950 . S
C68 C67 1.372 . S
C68 C69 1.379 . S
C69 H47 0.948 . S
C69 C64 1.364 . S
C69 C68 1.379 . S
C70 C39 1.383 . S
C70 C57 1.479 . S
C70 C71 1.398 . S
C71 C36 1.382 . S
C71 H48 0.951 . S
C71 C70 1.398 . S
C72 C73 1.384 . S
C72 H85 0.947 . S
C72 C107 1.382 . S
C73 C72 1.384 . S
C73 C74 1.378 . S
C74 C73 1.378 . S
C74 C75 1.378 . S
C74 H86 0.952 . S
C75 C74 1.378 . S
C75 H87 0.950 . S
C75 C106 1.383 . S
H76 C95 0.947 . S
H77 C96 0.946 . S
H78 C98 0.953 . S
H79 C99 0.945 . S
H80 C101 0.952 . S
H81 C102 0.949 . S
H82 C104 0.950 . S
H83 C105 0.948 . S
H84 C107 0.951 . S
H85 C72 0.947 . S
H86 C74 0.952 . S
H87 C75 0.950 . S
N88 C91 1.382 . S
N88 C93 1.363 . S
N89 C91 1.371 . S
N89 C92 1.372 . S
N90 C92 1.361 . S
N90 C93 1.377 . S
C91 N88 1.382 . S
C91 N89 1.371 . S
C91 C94 1.480 . S
C92 N89 1.372 . S
C92 N90 1.361 . S
C92 C100 1.457 . S
C93 N88 1.363 . S
C93 N90 1.377 . S
C93 C106 1.479 . S
C94 C91 1.480 . S
C94 C95 1.383 . S
C94 C99 1.385 . S
C95 H76 0.947 . S
C95 C94 1.383 . S
C95 C96 1.388 . S
C96 H77 0.946 . S
C96 C95 1.388 . S
C96 C97 1.384 . S
C97 C96 1.384 . S
C97 C98 1.377 . S
C98 H78 0.953 . S
C98 C97 1.377 . S
C98 C99 1.369 . S
C99 H79 0.945 . S
C99 C94 1.385 . S
C99 C98 1.369 . S
C100 C92 1.457 . S
C100 C101 1.372 . S
C100 C105 1.364 . S
C101 H80 0.952 . S
C101 C100 1.372 . S
C101 C102 1.389 . S
C102 H81 0.949 . S
C102 C101 1.389 . S
C102 C103 1.387 . S
C103 C102 1.387 . S
C103 C104 1.372 . S
C104 H82 0.950 . S
C104 C103 1.372 . S
C104 C105 1.379 . S
C105 H83 0.948 . S
C105 C100 1.364 . S
C105 C104 1.379 . S
C106 C75 1.383 . S
C106 C93 1.479 . S
C106 C107 1.398 . S
C107 C72 1.382 . S
C107 H84 0.951 . S
C107 C106 1.398 . S
C108 C109 1.384 . S
C108 H121 0.947 . S
C108 C143 1.382 . S
C109 C108 1.384 . S
C109 C110 1.378 . S
C110 C109 1.378 . S
C110 C111 1.378 . S
C110 H122 0.952 . S
C111 C110 1.378 . S
C111 H123 0.950 . S
C111 C142 1.383 . S
H112 C131 0.947 . S
H113 C132 0.946 . S
H114 C134 0.953 . S
H115 C135 0.945 . S
H116 C137 0.952 . S
H117 C138 0.949 . S
H118 C140 0.950 . S
H119 C141 0.948 . S
H120 C143 0.951 . S
H121 C108 0.947 . S
H122 C110 0.952 . S
H123 C111 0.950 . S
N124 C127 1.382 . S
N124 C129 1.363 . S
N125 C127 1.371 . S
N125 C128 1.372 . S
N126 C128 1.361 . S
N126 C129 1.377 . S
C127 N124 1.382 . S
C127 N125 1.371 . S
C127 C130 1.480 . S
C128 N125 1.372 . S
C128 N126 1.361 . S
C128 C136 1.457 . S
C129 N124 1.363 . S
C129 N126 1.377 . S
C129 C142 1.479 . S
C130 C127 1.480 . S
C130 C131 1.383 . S
C130 C135 1.385 . S
C131 H112 0.947 . S
C131 C130 1.383 . S
C131 C132 1.388 . S
C132 H113 0.946 . S
C132 C131 1.388 . S
C132 C133 1.384 . S
C133 C132 1.384 . S
C133 C134 1.377 . S
C134 H114 0.953 . S
C134 C133 1.377 . S
C134 C135 1.369 . S
C135 H115 0.945 . S
C135 C130 1.385 . S
C135 C134 1.369 . S
C136 C128 1.457 . S
C136 C137 1.372 . S
C136 C141 1.364 . S
C137 H116 0.952 . S
C137 C136 1.372 . S
C137 C138 1.389 . S
C138 H117 0.949 . S
C138 C137 1.389 . S
C138 C139 1.387 . S
C139 C138 1.387 . S
C139 C140 1.372 . S
C140 H118 0.950 . S
C140 C139 1.372 . S
C140 C141 1.379 . S
C141 H119 0.948 . S
C141 C136 1.364 . S
C141 C140 1.379 . S
C142 C111 1.383 . S
C142 C129 1.479 . S
C142 C143 1.398 . S
C143 C108 1.382 . S
C143 H120 0.951 . S
C143 C142 1.398 . S
C144 C145 1.384 . S
C144 H157 0.947 . S
C144 C179 1.382 . S
C145 C144 1.384 . S
C145 C146 1.378 . S
C146 C145 1.378 . S
C146 C147 1.378 . S
C146 H158 0.952 . S
C147 C146 1.378 . S
C147 H159 0.950 . S
C147 C178 1.383 . S
H148 C167 0.947 . S
H149 C168 0.946 . S
H150 C170 0.953 . S
H151 C171 0.945 . S
H152 C173 0.952 . S
H153 C174 0.949 . S
H154 C176 0.950 . S
H155 C177 0.948 . S
H156 C179 0.951 . S
H157 C144 0.947 . S
H158 C146 0.952 . S
H159 C147 0.950 . S
N160 C163 1.382 . S
N160 C165 1.363 . S
N161 C163 1.371 . S
N161 C164 1.372 . S
N162 C164 1.361 . S
N162 C165 1.377 . S
C163 N160 1.382 . S
C163 N161 1.371 . S
C163 C166 1.480 . S
C164 N161 1.372 . S
C164 N162 1.361 . S
C164 C172 1.457 . S
C165 N160 1.363 . S
C165 N162 1.377 . S
C165 C178 1.479 . S
C166 C163 1.480 . S
C166 C167 1.383 . S
C166 C171 1.385 . S
C167 H148 0.947 . S
C167 C166 1.383 . S
C167 C168 1.388 . S
C168 H149 0.946 . S
C168 C167 1.388 . S
C168 C169 1.384 . S
C169 C168 1.384 . S
C169 C170 1.377 . S
C170 H150 0.953 . S
C170 C169 1.377 . S
C170 C171 1.369 . S
C171 H151 0.945 . S
C171 C166 1.385 . S
C171 C170 1.369 . S
C172 C164 1.457 . S
C172 C173 1.372 . S
C172 C177 1.364 . S
C173 H152 0.952 . S
C173 C172 1.372 . S
C173 C174 1.389 . S
C174 H153 0.949 . S
C174 C173 1.389 . S
C174 C175 1.387 . S
C175 C174 1.387 . S
C175 C176 1.372 . S
C176 H154 0.950 . S
C176 C175 1.372 . S
C176 C177 1.379 . S
C177 H155 0.948 . S
C177 C172 1.364 . S
C177 C176 1.379 . S
C178 C147 1.383 . S
C178 C165 1.479 . S
C178 C179 1.398 . S
C179 C144 1.382 . S
C179 H156 0.951 . S
C179 C178 1.398 . S
C180 C181 1.384 . S
C180 H193 0.947 . S
C180 C215 1.382 . S
C181 C180 1.384 . S
C181 C182 1.378 . S
C182 C181 1.378 . S
C182 C183 1.378 . S
C182 H194 0.952 . S
C183 C182 1.378 . S
C183 H195 0.950 . S
C183 C214 1.383 . S
H184 C203 0.947 . S
H185 C204 0.946 . S
H186 C206 0.953 . S
H187 C207 0.945 . S
H188 C209 0.952 . S
H189 C210 0.949 . S
H190 C212 0.950 . S
H191 C213 0.948 . S
H192 C215 0.951 . S
H193 C180 0.947 . S
H194 C182 0.952 . S
H195 C183 0.950 . S
N196 C199 1.382 . S
N196 C201 1.363 . S
N197 C199 1.371 . S
N197 C200 1.372 . S
N198 C200 1.361 . S
N198 C201 1.377 . S
C199 N196 1.382 . S
C199 N197 1.371 . S
C199 C202 1.480 . S
C200 N197 1.372 . S
C200 N198 1.361 . S
C200 C208 1.457 . S
C201 N196 1.363 . S
C201 N198 1.377 . S
C201 C214 1.479 . S
C202 C199 1.480 . S
C202 C203 1.383 . S
C202 C207 1.385 . S
C203 H184 0.947 . S
C203 C202 1.383 . S
C203 C204 1.388 . S
C204 H185 0.946 . S
C204 C203 1.388 . S
C204 C205 1.384 . S
C205 C204 1.384 . S
C205 C206 1.377 . S
C206 H186 0.953 . S
C206 C205 1.377 . S
C206 C207 1.369 . S
C207 H187 0.945 . S
C207 C202 1.385 . S
C207 C206 1.369 . S
C208 C200 1.457 . S
C208 C209 1.372 . S
C208 C213 1.364 . S
C209 H188 0.952 . S
C209 C208 1.372 . S
C209 C210 1.389 . S
C210 H189 0.949 . S
C210 C209 1.389 . S
C210 C211 1.387 . S
C211 C210 1.387 . S
C211 C212 1.372 . S
C212 H190 0.950 . S
C212 C211 1.372 . S
C212 C213 1.379 . S
C213 H191 0.948 . S
C213 C208 1.364 . S
C213 C212 1.379 . S
C214 C183 1.383 . S
C214 C201 1.479 . S
C214 C215 1.398 . S
C215 C180 1.382 . S
C215 H192 0.951 . S
C215 C214 1.398 . S
C216 C217 1.384 . S
C216 H229 0.947 . S
C216 C251 1.382 . S
C217 C216 1.384 . S
C217 C218 1.378 . S
C218 C217 1.378 . S
C218 C219 1.378 . S
C218 H230 0.952 . S
C219 C218 1.378 . S
C219 H231 0.950 . S
C219 C250 1.383 . S
H220 C239 0.947 . S
H221 C240 0.946 . S
H222 C242 0.953 . S
H223 C243 0.945 . S
H224 C245 0.952 . S
H225 C246 0.949 . S
H226 C248 0.950 . S
H227 C249 0.948 . S
H228 C251 0.951 . S
H229 C216 0.947 . S
H230 C218 0.952 . S
H231 C219 0.950 . S
N232 C235 1.382 . S
N232 C237 1.363 . S
N233 C235 1.371 . S
N233 C236 1.372 . S
N234 C236 1.361 . S
N234 C237 1.377 . S
C235 N232 1.382 . S
C235 N233 1.371 . S
C235 C238 1.480 . S
C236 N233 1.372 . S
C236 N234 1.361 . S
C236 C244 1.457 . S
C237 N232 1.363 . S
C237 N234 1.377 . S
C237 C250 1.479 . S
C238 C235 1.480 . S
C238 C239 1.383 . S
C238 C243 1.385 . S
C239 H220 0.947 . S
C239 C238 1.383 . S
C239 C240 1.388 . S
C240 H221 0.946 . S
C240 C239 1.388 . S
C240 C241 1.384 . S
C241 C240 1.384 . S
C241 C242 1.377 . S
C242 H222 0.953 . S
C242 C241 1.377 . S
C242 C243 1.369 . S
C243 H223 0.945 . S
C243 C238 1.385 . S
C243 C242 1.369 . S
C244 C236 1.457 . S
C244 C245 1.372 . S
C244 C249 1.364 . S
C245 H224 0.952 . S
C245 C244 1.372 . S
C245 C246 1.389 . S
C246 H225 0.949 . S
C246 C245 1.389 . S
C246 C247 1.387 . S
C247 C246 1.387 . S
C247 C248 1.372 . S
C248 H226 0.950 . S
C248 C247 1.372 . S
C248 C249 1.379 . S
C249 H227 0.948 . S
C249 C244 1.364 . S
C249 C248 1.379 . S
C250 C219 1.383 . S
C250 C237 1.479 . S
C250 C251 1.398 . S
C251 C216 1.382 . S
C251 H228 0.951 . S
C251 C250 1.398 . S
C252 C253 1.384 . S
C252 H265 0.947 . S
C252 C287 1.382 . S
C253 C252 1.384 . S
C253 C254 1.378 . S
C254 C253 1.378 . S
C254 C255 1.378 . S
C254 H266 0.952 . S
C255 C254 1.378 . S
C255 H267 0.950 . S
C255 C286 1.383 . S
H256 C275 0.947 . S
H257 C276 0.946 . S
H258 C278 0.953 . S
H259 C279 0.945 . S
H260 C281 0.952 . S
H261 C282 0.949 . S
H262 C284 0.950 . S
H263 C285 0.948 . S
H264 C287 0.951 . S
H265 C252 0.947 . S
H266 C254 0.952 . S
H267 C255 0.950 . S
N268 C271 1.382 . S
N268 C273 1.363 . S
N269 C271 1.371 . S
N269 C272 1.372 . S
N270 C272 1.361 . S
N270 C273 1.377 . S
C271 N268 1.382 . S
C271 N269 1.371 . S
C271 C274 1.480 . S
C272 N269 1.372 . S
C272 N270 1.361 . S
C272 C280 1.457 . S
C273 N268 1.363 . S
C273 N270 1.377 . S
C273 C286 1.479 . S
C274 C271 1.480 . S
C274 C275 1.383 . S
C274 C279 1.385 . S
C275 H256 0.947 . S
C275 C274 1.383 . S
C275 C276 1.388 . S
C276 H257 0.946 . S
C276 C275 1.388 . S
C276 C277 1.384 . S
C277 C276 1.384 . S
C277 C278 1.377 . S
C278 H258 0.953 . S
C278 C277 1.377 . S
C278 C279 1.369 . S
C279 H259 0.945 . S
C279 C274 1.385 . S
C279 C278 1.369 . S
C280 C272 1.457 . S
C280 C281 1.372 . S
C280 C285 1.364 . S
C281 H260 0.952 . S
C281 C280 1.372 . S
C281 C282 1.389 . S
C282 H261 0.949 . S
C282 C281 1.389 . S
C282 C283 1.387 . S
C283 C282 1.387 . S
C283 C284 1.372 . S
C284 H262 0.950 . S
C284 C283 1.372 . S
C284 C285 1.379 . S
C285 H263 0.948 . S
C285 C280 1.364 . S
C285 C284 1.379 . S
C286 C255 1.383 . S
C286 C273 1.479 . S
C286 C287 1.398 . S
C287 C252 1.382 . S
C287 H264 0.951 . S
C287 C286 1.398 . S
C288 C289 1.384 . S
C288 H301 0.947 . S
C288 C323 1.382 . S
C289 C288 1.384 . S
C289 C290 1.378 . S
C290 C289 1.378 . S
C290 C291 1.378 . S
C290 H302 0.952 . S
C291 C290 1.378 . S
C291 H303 0.950 . S
C291 C322 1.383 . S
H292 C311 0.947 . S
H293 C312 0.946 . S
H294 C314 0.953 . S
H295 C315 0.945 . S
H296 C317 0.952 . S
H297 C318 0.949 . S
H298 C320 0.950 . S
H299 C321 0.948 . S
H300 C323 0.951 . S
H301 C288 0.947 . S
H302 C290 0.952 . S
H303 C291 0.950 . S
N304 C307 1.382 . S
N304 C309 1.363 . S
N305 C307 1.371 . S
N305 C308 1.372 . S
N306 C308 1.361 . S
N306 C309 1.377 . S
C307 N304 1.382 . S
C307 N305 1.371 . S
C307 C310 1.480 . S
C308 N305 1.372 . S
C308 N306 1.361 . S
C308 C316 1.457 . S
C309 N304 1.363 . S
C309 N306 1.377 . S
C309 C322 1.479 . S
C310 C307 1.480 . S
C310 C311 1.383 . S
C310 C315 1.385 . S
C311 H292 0.947 . S
C311 C310 1.383 . S
C311 C312 1.388 . S
C312 H293 0.946 . S
C312 C311 1.388 . S
C312 C313 1.384 . S
C313 C312 1.384 . S
C313 C314 1.377 . S
C314 H294 0.953 . S
C314 C313 1.377 . S
C314 C315 1.369 . S
C315 H295 0.945 . S
C315 C310 1.385 . S
C315 C314 1.369 . S
C316 C308 1.457 . S
C316 C317 1.372 . S
C316 C321 1.364 . S
C317 H296 0.952 . S
C317 C316 1.372 . S
C317 C318 1.389 . S
C318 H297 0.949 . S
C318 C317 1.389 . S
C318 C319 1.387 . S
C319 C318 1.387 . S
C319 C320 1.372 . S
C320 H298 0.950 . S
C320 C319 1.372 . S
C320 C321 1.379 . S
C321 H299 0.948 . S
C321 C316 1.364 . S
C321 C320 1.379 . S
C322 C291 1.383 . S
C322 C309 1.479 . S
C322 C323 1.398 . S
C323 C288 1.382 . S
C323 H300 0.951 . S
C323 C322 1.398 . S
C324 C325 1.384 . S
C324 H337 0.947 . S
C324 C359 1.382 . S
C325 C324 1.384 . S
C325 C326 1.378 . S
C326 C325 1.378 . S
C326 C327 1.378 . S
C326 H338 0.952 . S
C327 C326 1.378 . S
C327 H339 0.950 . S
C327 C358 1.383 . S
H328 C347 0.947 . S
H329 C348 0.946 . S
H330 C350 0.953 . S
H331 C351 0.945 . S
H332 C353 0.952 . S
H333 C354 0.949 . S
H334 C356 0.950 . S
H335 C357 0.948 . S
H336 C359 0.951 . S
H337 C324 0.947 . S
H338 C326 0.952 . S
H339 C327 0.950 . S
N340 C343 1.382 . S
N340 C345 1.363 . S
N341 C343 1.371 . S
N341 C344 1.372 . S
N342 C344 1.361 . S
N342 C345 1.377 . S
C343 N340 1.382 . S
C343 N341 1.371 . S
C343 C346 1.480 . S
C344 N341 1.372 . S
C344 N342 1.361 . S
C344 C352 1.457 . S
C345 N340 1.363 . S
C345 N342 1.377 . S
C345 C358 1.479 . S
C346 C343 1.480 . S
C346 C347 1.383 . S
C346 C351 1.385 . S
C347 H328 0.947 . S
C347 C346 1.383 . S
C347 C348 1.388 . S
C348 H329 0.946 . S
C348 C347 1.388 . S
C348 C349 1.384 . S
C349 C348 1.384 . S
C349 C350 1.377 . S
C350 H330 0.953 . S
C350 C349 1.377 . S
C350 C351 1.369 . S
C351 H331 0.945 . S
C351 C346 1.385 . S
C351 C350 1.369 . S
C352 C344 1.457 . S
C352 C353 1.372 . S
C352 C357 1.364 . S
C353 H332 0.952 . S
C353 C352 1.372 . S
C353 C354 1.389 . S
C354 H333 0.949 . S
C354 C353 1.389 . S
C354 C355 1.387 . S
C355 C354 1.387 . S
C355 C356 1.372 . S
C356 H334 0.950 . S
C356 C355 1.372 . S
C356 C357 1.379 . S
C357 H335 0.948 . S
C357 C352 1.364 . S
C357 C356 1.379 . S
C358 C327 1.383 . S
C358 C345 1.479 . S
C358 C359 1.398 . S
C359 C324 1.382 . S
C359 H336 0.951 . S
C359 C358 1.398 . S
C360 C361 1.384 . S
C360 H373 0.947 . S
C360 C395 1.382 . S
C361 C360 1.384 . S
C361 C362 1.378 . S
C362 C361 1.378 . S
C362 C363 1.378 . S
C362 H374 0.952 . S
C363 C362 1.378 . S
C363 H375 0.950 . S
C363 C394 1.383 . S
H364 C383 0.947 . S
H365 C384 0.946 . S
H366 C386 0.953 . S
H367 C387 0.945 . S
H368 C389 0.952 . S
H369 C390 0.949 . S
H370 C392 0.950 . S
H371 C393 0.948 . S
H372 C395 0.951 . S
H373 C360 0.947 . S
H374 C362 0.952 . S
H375 C363 0.950 . S
N376 C379 1.382 . S
N376 C381 1.363 . S
N377 C379 1.371 . S
N377 C380 1.372 . S
N378 C380 1.361 . S
N378 C381 1.377 . S
C379 N376 1.382 . S
C379 N377 1.371 . S
C379 C382 1.480 . S
C380 N377 1.372 . S
C380 N378 1.361 . S
C380 C388 1.457 . S
C381 N376 1.363 . S
C381 N378 1.377 . S
C381 C394 1.479 . S
C382 C379 1.480 . S
C382 C383 1.383 . S
C382 C387 1.385 . S
C383 H364 0.947 . S
C383 C382 1.383 . S
C383 C384 1.388 . S
C384 H365 0.946 . S
C384 C383 1.388 . S
C384 C385 1.384 . S
C385 C384 1.384 . S
C385 C386 1.377 . S
C386 H366 0.953 . S
C386 C385 1.377 . S
C386 C387 1.369 . S
C387 H367 0.945 . S
C387 C382 1.385 . S
C387 C386 1.369 . S
C388 C380 1.457 . S
C388 C389 1.372 . S
C388 C393 1.364 . S
C389 H368 0.952 . S
C389 C388 1.372 . S
C389 C390 1.389 . S
C390 H369 0.949 . S
C390 C389 1.389 . S
C390 C391 1.387 . S
C391 C390 1.387 . S
C391 C392 1.372 . S
C392 H370 0.950 . S
C392 C391 1.372 . S
C392 C393 1.379 . S
C393 H371 0.948 . S
C393 C388 1.364 . S
C393 C392 1.379 . S
C394 C363 1.383 . S
C394 C381 1.479 . S
C394 C395 1.398 . S
C395 C360 1.382 . S
C395 H372 0.951 . S
C395 C394 1.398 . S
C396 C397 1.384 . S
C396 H409 0.947 . S
C396 C431 1.382 . S
C397 C396 1.384 . S
C397 C398 1.378 . S
C398 C397 1.378 . S
C398 C399 1.378 . S
C398 H410 0.952 . S
C399 C398 1.378 . S
C399 H411 0.950 . S
C399 C430 1.383 . S
H400 C419 0.947 . S
H401 C420 0.946 . S
H402 C422 0.953 . S
H403 C423 0.945 . S
H404 C425 0.952 . S
H405 C426 0.949 . S
H406 C428 0.950 . S
H407 C429 0.948 . S
H408 C431 0.951 . S
H409 C396 0.947 . S
H410 C398 0.952 . S
H411 C399 0.950 . S
N412 C415 1.382 . S
N412 C417 1.363 . S
N413 C415 1.371 . S
N413 C416 1.372 . S
N414 C416 1.361 . S
N414 C417 1.377 . S
C415 N412 1.382 . S
C415 N413 1.371 . S
C415 C418 1.480 . S
C416 N413 1.372 . S
C416 N414 1.361 . S
C416 C424 1.457 . S
C417 N412 1.363 . S
C417 N414 1.377 . S
C417 C430 1.479 . S
C418 C415 1.480 . S
C418 C419 1.383 . S
C418 C423 1.385 . S
C419 H400 0.947 . S
C419 C418 1.383 . S
C419 C420 1.388 . S
C420 H401 0.946 . S
C420 C419 1.388 . S
C420 C421 1.384 . S
C421 C420 1.384 . S
C421 C422 1.377 . S
C422 H402 0.953 . S
C422 C421 1.377 . S
C422 C423 1.369 . S
C423 H403 0.945 . S
C423 C418 1.385 . S
C423 C422 1.369 . S
C424 C416 1.457 . S
C424 C425 1.372 . S
C424 C429 1.364 . S
C425 H404 0.952 . S
C425 C424 1.372 . S
C425 C426 1.389 . S
C426 H405 0.949 . S
C426 C425 1.389 . S
C426 C427 1.387 . S
C427 C426 1.387 . S
C427 C428 1.372 . S
C428 H406 0.950 . S
C428 C427 1.372 . S
C428 C429 1.379 . S
C429 H407 0.948 . S
C429 C424 1.364 . S
C429 C428 1.379 . S
C430 C399 1.383 . S
C430 C417 1.479 . S
C430 C431 1.398 . S
C431 C396 1.382 . S
C431 H408 0.951 . S
C431 C430 1.398 . S
C432 C433 1.384 . S
C432 H445 0.947 . S
C432 C467 1.382 . S
C433 C432 1.384 . S
C433 C434 1.378 . S
C434 C433 1.378 . S
C434 C435 1.378 . S
C434 H446 0.952 . S
C435 C434 1.378 . S
C435 H447 0.950 . S
C435 C466 1.383 . S
H436 C455 0.947 . S
H437 C456 0.946 . S
H438 C458 0.953 . S
H439 C459 0.945 . S
H440 C461 0.952 . S
H441 C462 0.949 . S
H442 C464 0.950 . S
H443 C465 0.948 . S
H444 C467 0.951 . S
H445 C432 0.947 . S
H446 C434 0.952 . S
H447 C435 0.950 . S
N448 C451 1.382 . S
N448 C453 1.363 . S
N449 C451 1.371 . S
N449 C452 1.372 . S
N450 C452 1.361 . S
N450 C453 1.377 . S
C451 N448 1.382 . S
C451 N449 1.371 . S
C451 C454 1.480 . S
C452 N449 1.372 . S
C452 N450 1.361 . S
C452 C460 1.457 . S
C453 N448 1.363 . S
C453 N450 1.377 . S
C453 C466 1.479 . S
C454 C451 1.480 . S
C454 C455 1.383 . S
C454 C459 1.385 . S
C455 H436 0.947 . S
C455 C454 1.383 . S
C455 C456 1.388 . S
C456 H437 0.946 . S
C456 C455 1.388 . S
C456 C457 1.384 . S
C457 C456 1.384 . S
C457 C458 1.377 . S
C458 H438 0.953 . S
C458 C457 1.377 . S
C458 C459 1.369 . S
C459 H439 0.945 . S
C459 C454 1.385 . S
C459 C458 1.369 . S
C460 C452 1.457 . S
C460 C461 1.372 . S
C460 C465 1.364 . S
C461 H440 0.952 . S
C461 C460 1.372 . S
C461 C462 1.389 . S
C462 H441 0.949 . S
C462 C461 1.389 . S
C462 C463 1.387 . S
C463 C462 1.387 . S
C463 C464 1.372 . S
C464 H442 0.950 . S
C464 C463 1.372 . S
C464 C465 1.379 . S
C465 H443 0.948 . S
C465 C460 1.364 . S
C465 C464 1.379 . S
C466 C435 1.383 . S
C466 C453 1.479 . S
C466 C467 1.398 . S
C467 C432 1.382 . S
C467 H444 0.951 . S
C467 C466 1.398 . S
C468 C469 1.384 . S
C468 H481 0.947 . S
C468 C503 1.382 . S
C469 C468 1.384 . S
C469 C470 1.378 . S
C470 C469 1.378 . S
C470 C471 1.378 . S
C470 H482 0.952 . S
C471 C470 1.378 . S
C471 H483 0.950 . S
C471 C502 1.383 . S
H472 C491 0.947 . S
H473 C492 0.946 . S
H474 C494 0.953 . S
H475 C495 0.945 . S
H476 C497 0.952 . S
H477 C498 0.949 . S
H478 C500 0.950 . S
H479 C501 0.948 . S
H480 C503 0.951 . S
H481 C468 0.947 . S
H482 C470 0.952 . S
H483 C471 0.950 . S
N484 C487 1.382 . S
N484 C489 1.363 . S
N485 C487 1.371 . S
N485 C488 1.372 . S
N486 C488 1.361 . S
N486 C489 1.377 . S
C487 N484 1.382 . S
C487 N485 1.371 . S
C487 C490 1.480 . S
C488 N485 1.372 . S
C488 N486 1.361 . S
C488 C496 1.457 . S
C489 N484 1.363 . S
C489 N486 1.377 . S
C489 C502 1.479 . S
C490 C487 1.480 . S
C490 C491 1.383 . S
C490 C495 1.385 . S
C491 H472 0.947 . S
C491 C490 1.383 . S
C491 C492 1.388 . S
C492 H473 0.946 . S
C492 C491 1.388 . S
C492 C493 1.384 . S
C493 C492 1.384 . S
C493 C494 1.377 . S
C494 H474 0.953 . S
C494 C493 1.377 . S
C494 C495 1.369 . S
C495 H475 0.945 . S
C495 C490 1.385 . S
C495 C494 1.369 . S
C496 C488 1.457 . S
C496 C497 1.372 . S
C496 C501 1.364 . S
C497 H476 0.952 . S
C497 C496 1.372 . S
C497 C498 1.389 . S
C498 H477 0.949 . S
C498 C497 1.389 . S
C498 C499 1.387 . S
C499 C498 1.387 . S
C499 C500 1.372 . S
C500 H478 0.950 . S
C500 C499 1.372 . S
C500 C501 1.379 . S
C501 H479 0.948 . S
C501 C496 1.364 . S
C501 C500 1.379 . S
C502 C471 1.383 . S
C502 C489 1.479 . S
C502 C503 1.398 . S
C503 C468 1.382 . S
C503 H480 0.951 . S
C503 C502 1.398 . S
C504 C505 1.384 . S
C504 H517 0.947 . S
C504 C539 1.382 . S
C505 C504 1.384 . S
C505 C506 1.378 . S
C506 C505 1.378 . S
C506 C507 1.378 . S
C506 H518 0.952 . S
C507 C506 1.378 . S
C507 H519 0.950 . S
C507 C538 1.383 . S
H508 C527 0.947 . S
H509 C528 0.946 . S
H510 C530 0.953 . S
H511 C531 0.945 . S
H512 C533 0.952 . S
H513 C534 0.949 . S
H514 C536 0.950 . S
H515 C537 0.948 . S
H516 C539 0.951 . S
H517 C504 0.947 . S
H518 C506 0.952 . S
H519 C507 0.950 . S
N520 C523 1.382 . S
N520 C525 1.363 . S
N521 C523 1.371 . S
N521 C524 1.372 . S
N522 C524 1.361 . S
N522 C525 1.377 . S
C523 N520 1.382 . S
C523 N521 1.371 . S
C523 C526 1.480 . S
C524 N521 1.372 . S
C524 N522 1.361 . S
C524 C532 1.457 . S
C525 N520 1.363 . S
C525 N522 1.377 . S
C525 C538 1.479 . S
C526 C523 1.480 . S
C526 C527 1.383 . S
C526 C531 1.385 . S
C527 H508 0.947 . S
C527 C526 1.383 . S
C527 C528 1.388 . S
C528 H509 0.946 . S
C528 C527 1.388 . S
C528 C529 1.384 . S
C529 C528 1.384 . S
C529 C530 1.377 . S
C530 H510 0.953 . S
C530 C529 1.377 . S
C530 C531 1.369 . S
C531 H511 0.945 . S
C531 C526 1.385 . S
C531 C530 1.369 . S
C532 C524 1.457 . S
C532 C533 1.372 . S
C532 C537 1.364 . S
C533 H512 0.952 . S
C533 C532 1.372 . S
C533 C534 1.389 . S
C534 H513 0.949 . S
C534 C533 1.389 . S
C534 C535 1.387 . S
C535 C534 1.387 . S
C535 C536 1.372 . S
C536 H514 0.950 . S
C536 C535 1.372 . S
C536 C537 1.379 . S
C537 H515 0.948 . S
C537 C532 1.364 . S
C537 C536 1.379 . S
C538 C507 1.383 . S
C538 C525 1.479 . S
C538 C539 1.398 . S
C539 C504 1.382 . S
C539 H516 0.951 . S
C539 C538 1.398 . S
C540 C541 1.384 . S
C540 H553 0.947 . S
C540 C575 1.382 . S
C541 C540 1.384 . S
C541 C542 1.378 . S
C542 C541 1.378 . S
C542 C543 1.378 . S
C542 H554 0.952 . S
C543 C542 1.378 . S
C543 H555 0.950 . S
C543 C574 1.383 . S
H544 C563 0.947 . S
H545 C564 0.946 . S
H546 C566 0.953 . S
H547 C567 0.945 . S
H548 C569 0.952 . S
H549 C570 0.949 . S
H550 C572 0.950 . S
H551 C573 0.948 . S
H552 C575 0.951 . S
H553 C540 0.947 . S
H554 C542 0.952 . S
H555 C543 0.950 . S
N556 C559 1.382 . S
N556 C561 1.363 . S
N557 C559 1.371 . S
N557 C560 1.372 . S
N558 C560 1.361 . S
N558 C561 1.377 . S
C559 N556 1.382 . S
C559 N557 1.371 . S
C559 C562 1.480 . S
C560 N557 1.372 . S
C560 N558 1.361 . S
C560 C568 1.457 . S
C561 N556 1.363 . S
C561 N558 1.377 . S
C561 C574 1.479 . S
C562 C559 1.480 . S
C562 C563 1.383 . S
C562 C567 1.385 . S
C563 H544 0.947 . S
C563 C562 1.383 . S
C563 C564 1.388 . S
C564 H545 0.946 . S
C564 C563 1.388 . S
C564 C565 1.384 . S
C565 C564 1.384 . S
C565 C566 1.377 . S
C566 H546 0.953 . S
C566 C565 1.377 . S
C566 C567 1.369 . S
C567 H547 0.945 . S
C567 C562 1.385 . S
C567 C566 1.369 . S
C568 C560 1.457 . S
C568 C569 1.372 . S
C568 C573 1.364 . S
C569 H548 0.952 . S
C569 C568 1.372 . S
C569 C570 1.389 . S
C570 H549 0.949 . S
C570 C569 1.389 . S
C570 C571 1.387 . S
C571 C570 1.387 . S
C571 C572 1.372 . S
C572 H550 0.950 . S
C572 C571 1.372 . S
C572 C573 1.379 . S
C573 H551 0.948 . S
C573 C568 1.364 . S
C573 C572 1.379 . S
C574 C543 1.383 . S
C574 C561 1.479 . S
C574 C575 1.398 . S
C575 C540 1.382 . S
C575 H552 0.951 . S
C575 C574 1.398 . S
C576 C577 1.384 . S
C576 H589 0.947 . S
C576 C611 1.382 . S
C577 C576 1.384 . S
C577 C578 1.378 . S
C578 C577 1.378 . S
C578 C579 1.378 . S
C578 H590 0.952 . S
C579 C578 1.378 . S
C579 H591 0.950 . S
C579 C610 1.383 . S
H580 C599 0.947 . S
H581 C600 0.946 . S
H582 C602 0.953 . S
H583 C603 0.945 . S
H584 C605 0.952 . S
H585 C606 0.949 . S
H586 C608 0.950 . S
H587 C609 0.948 . S
H588 C611 0.951 . S
H589 C576 0.947 . S
H590 C578 0.952 . S
H591 C579 0.950 . S
N592 C595 1.382 . S
N592 C597 1.363 . S
N593 C595 1.371 . S
N593 C596 1.372 . S
N594 C596 1.361 . S
N594 C597 1.377 . S
C595 N592 1.382 . S
C595 N593 1.371 . S
C595 C598 1.480 . S
C596 N593 1.372 . S
C596 N594 1.361 . S
C596 C604 1.457 . S
C597 N592 1.363 . S
C597 N594 1.377 . S
C597 C610 1.479 . S
C598 C595 1.480 . S
C598 C599 1.383 . S
C598 C603 1.385 . S
C599 H580 0.947 . S
C599 C598 1.383 . S
C599 C600 1.388 . S
C600 H581 0.946 . S
C600 C599 1.388 . S
C600 C601 1.384 . S
C601 C600 1.384 . S
C601 C602 1.377 . S
C602 H582 0.953 . S
C602 C601 1.377 . S
C602 C603 1.369 . S
C603 H583 0.945 . S
C603 C598 1.385 . S
C603 C602 1.369 . S
C604 C596 1.457 . S
C604 C605 1.372 . S
C604 C609 1.364 . S
C605 H584 0.952 . S
C605 C604 1.372 . S
C605 C606 1.389 . S
C606 H585 0.949 . S
C606 C605 1.389 . S
C606 C607 1.387 . S
C607 C606 1.387 . S
C607 C608 1.372 . S
C608 H586 0.950 . S
C608 C607 1.372 . S
C608 C609 1.379 . S
C609 H587 0.948 . S
C609 C604 1.364 . S
C609 C608 1.379 . S
C610 C579 1.383 . S
C610 C597 1.479 . S
C610 C611 1.398 . S
C611 C576 1.382 . S
C611 H588 0.951 . S
C611 C610 1.398 . S
C612 C613 1.384 . S
C612 H625 0.947 . S
C612 C647 1.382 . S
C613 C612 1.384 . S
C613 C614 1.378 . S
C614 C613 1.378 . S
C614 C615 1.378 . S
C614 H626 0.952 . S
C615 C614 1.378 . S
C615 H627 0.950 . S
C615 C646 1.383 . S
H616 C635 0.947 . S
H617 C636 0.946 . S
H618 C638 0.953 . S
H619 C639 0.945 . S
H620 C641 0.952 . S
H621 C642 0.949 . S
H622 C644 0.950 . S
H623 C645 0.948 . S
H624 C647 0.951 . S
H625 C612 0.947 . S
H626 C614 0.952 . S
H627 C615 0.950 . S
N628 C631 1.382 . S
N628 C633 1.363 . S
N629 C631 1.371 . S
N629 C632 1.372 . S
N630 C632 1.361 . S
N630 C633 1.377 . S
C631 N628 1.382 . S
C631 N629 1.371 . S
C631 C634 1.480 . S
C632 N629 1.372 . S
C632 N630 1.361 . S
C632 C640 1.457 . S
C633 N628 1.363 . S
C633 N630 1.377 . S
C633 C646 1.479 . S
C634 C631 1.480 . S
C634 C635 1.383 . S
C634 C639 1.385 . S
C635 H616 0.947 . S
C635 C634 1.383 . S
C635 C636 1.388 . S
C636 H617 0.946 . S
C636 C635 1.388 . S
C636 C637 1.384 . S
C637 C636 1.384 . S
C637 C638 1.377 . S
C638 H618 0.953 . S
C638 C637 1.377 . S
C638 C639 1.369 . S
C639 H619 0.945 . S
C639 C634 1.385 . S
C639 C638 1.369 . S
C640 C632 1.457 . S
C640 C641 1.372 . S
C640 C645 1.364 . S
C641 H620 0.952 . S
C641 C640 1.372 . S
C641 C642 1.389 . S
C642 H621 0.949 . S
C642 C641 1.389 . S
C642 C643 1.387 . S
C643 C642 1.387 . S
C643 C644 1.372 . S
C644 H622 0.950 . S
C644 C643 1.372 . S
C644 C645 1.379 . S
C645 H623 0.948 . S
C645 C640 1.364 . S
C645 C644 1.379 . S
C646 C615 1.383 . S
C646 C633 1.479 . S
C646 C647 1.398 . S
C647 C612 1.382 . S
C647 H624 0.951 . S
C647 C646 1.398 . S
Tb648 N679 2.660 . S
Tb648 N686 2.600 . S
Tb648 O692 2.546 . S
Tb648 O693 2.581 1_566 S
Tb648 O695 2.320 1_565 S
Tb648 O696 2.552 1_565 S
Tb648 O697 2.413 . S
Tb648 O699 2.362 1_556 S
Tb648 O700 2.445 . S
Tb648 C712 2.833 . S
C649 C652 1.432 . S
C649 C653 1.414 . S
C649 N656 1.359 . S
C650 C652 1.417 . S
C650 C654 1.432 . S
C650 C662 1.410 . S
C651 C653 1.444 . S
C651 C654 1.317 . S
C651 H674 0.929 . S
C652 C649 1.432 . S
C652 C650 1.417 . S
C652 N660 1.360 . S
C653 C649 1.414 . S
C653 C651 1.444 . S
C653 C658 1.385 . S
C654 C650 1.432 . S
C654 C651 1.317 . S
C654 H666 0.930 . S
C655 C657 1.392 . S
C655 C658 1.370 . S
C655 H667 0.931 . S
N656 C649 1.359 . S
N656 C657 1.327 . S
N656 Tb659 2.600 . S
C657 C655 1.392 . S
C657 N656 1.327 . S
C657 H664 0.930 . S
C658 C653 1.385 . S
C658 C655 1.370 . S
C658 H677 0.930 . S
Tb659 N656 2.600 . S
Tb659 N660 2.660 . S
Tb659 O693 2.411 . S
Tb659 O694 2.421 . S
Tb659 O698 2.546 . S
Tb659 O699 2.610 1_545 S
Tb659 O701 2.320 1_545 S
Tb659 O702 2.552 1_545 S
Tb659 O703 2.413 . S
Tb659 C723 2.833 . S
N660 C652 1.360 . S
N660 Tb659 2.660 . S
N660 C661 1.305 . S
C661 N660 1.305 . S
C661 C663 1.407 . S
C661 H668 0.930 . S
C662 C650 1.410 . S
C662 C663 1.345 . S
C662 H670 0.930 . S
C663 C661 1.407 . S
C663 C662 1.345 . S
C663 H665 0.930 . S
H664 C657 0.930 . S
H665 C663 0.930 . S
H666 C654 0.930 . S
H667 C655 0.931 . S
H668 C661 0.930 . S
H669 C683 0.930 . S
H670 C662 0.930 . S
H671 C689 0.930 . S
H672 C680 0.930 . S
H673 C687 0.931 . S
H674 C651 0.929 . S
H675 C681 0.930 . S
H676 C714 0.930 . S
H677 C658 0.930 . S
H678 C713 0.929 . S
N679 Tb648 2.660 . S
N679 C680 1.305 . S
N679 C684 1.360 . S
C680 H672 0.930 . S
C680 N679 1.305 . S
C680 C683 1.407 . S
C681 H675 0.930 . S
C681 C682 1.410 . S
C681 C683 1.345 . S
C682 C681 1.410 . S
C682 C684 1.417 . S
C682 C714 1.432 . S
C683 H669 0.930 . S
C683 C680 1.407 . S
C683 C681 1.345 . S
C684 N679 1.360 . S
C684 C682 1.417 . S
C684 C688 1.432 . S
H685 C690 0.930 . S
N686 Tb648 2.600 . S
N686 C688 1.359 . S
N686 C689 1.327 . S
C687 H673 0.931 . S
C687 C689 1.392 . S
C687 C690 1.370 . S
C688 C684 1.432 . S
C688 N686 1.359 . S
C688 C691 1.414 . S
C689 H671 0.930 . S
C689 N686 1.327 . S
C689 C687 1.392 . S
C690 H685 0.930 . S
C690 C687 1.370 . S
C690 C691 1.385 . S
C691 C688 1.414 . S
C691 C690 1.385 . S
C691 C713 1.444 . S
O692 Tb648 2.546 . S
O692 C712 1.251 . S
O693 Tb648 2.581 1_544 S
O693 Tb659 2.411 . S
O693 C704 1.243 1_554 S
O694 Tb659 2.421 . S
O694 C711 1.262 1_554 S
O695 Tb648 2.320 1_545 S
O695 C711 1.260 . S
O696 Tb648 2.552 1_545 S
O696 C704 1.243 . S
O697 Tb648 2.413 . S
O697 C712 1.256 . S
O698 Tb659 2.546 . S
O698 C723 1.251 . S
O699 Tb648 2.362 1_554 S
O699 Tb659 2.610 1_565 S
O699 C715 1.283 . S
O700 Tb648 2.445 . S
O700 C722 1.219 1_556 S
O701 Tb659 2.320 1_565 S
O701 C722 1.260 . S
O702 Tb659 2.552 1_565 S
O702 C715 1.243 . S
O703 Tb659 2.413 . S
O703 C723 1.256 . S
C704 O693 1.243 1_556 S
C704 O696 1.243 . S
C705 C707 1.382 1_565 S
C705 C709 1.393 . S
C705 C712 1.500 . S
C706 C707 1.400 . S
C706 C708 1.384 1_545 S
C707 C705 1.382 1_545 S
C707 C706 1.400 . S
C707 H724 0.930 . S
C708 C706 1.384 1_565 S
C708 C710 1.392 . S
C708 H725 0.931 . S
C709 C705 1.393 . S
C709 C710 1.401 . S
C709 H726 0.930 . S
C710 C708 1.392 . S
C710 C709 1.401 . S
C710 H727 0.930 . S
C711 O694 1.262 1_556 S
C711 O695 1.260 . S
C712 Tb648 2.833 . S
C712 O692 1.251 . S
C712 O697 1.256 . S
C712 C705 1.500 . S
C713 H678 0.929 . S
C713 C691 1.444 . S
C713 C714 1.317 . S
C714 H676 0.930 . S
C714 C682 1.432 . S
C714 C713 1.317 . S
C715 O699 1.283 . S
C715 O702 1.243 . S
C716 C717 1.382 1_545 S
C716 C720 1.393 . S
C716 C723 1.500 . S
C717 C716 1.382 1_565 S
C717 C718 1.400 . S
C717 H728 0.930 . S
C718 C717 1.400 . S
C718 C719 1.384 1_565 S
C719 C718 1.384 1_545 S
C719 C721 1.392 . S
C719 H729 0.931 . S
C720 C716 1.393 . S
C720 C721 1.401 . S
C720 H730 0.930 . S
C721 C719 1.392 . S
C721 C720 1.401 . S
C721 H731 0.930 . S
C722 O700 1.219 1_554 S
C722 O701 1.260 . S
C723 Tb659 2.833 . S
C723 O698 1.251 . S
C723 O703 1.256 . S
C723 C716 1.500 . S
H724 C707 0.930 . S
H725 C708 0.931 . S
H726 C709 0.930 . S
H727 C710 0.930 . S
H728 C717 0.930 . S
H729 C719 0.931 . S
H730 C720 0.930 . S
H731 C721 0.930 . S
Tb732 N763 2.660 . S
Tb732 N770 2.600 . S
Tb732 O776 2.546 . S
Tb732 O777 2.605 1_456 S
Tb732 O779 2.320 1_455 S
Tb732 O780 2.552 1_455 S
Tb732 O781 2.413 . S
Tb732 O783 2.362 1_556 S
Tb732 O784 2.419 1_556 S
Tb732 C796 2.833 . S
C733 C736 1.432 . S
C733 C737 1.414 . S
C733 N740 1.359 . S
C734 C736 1.417 . S
C734 C738 1.432 . S
C734 C746 1.410 . S
C735 C737 1.444 . S
C735 C738 1.317 . S
C735 H758 0.929 . S
C736 C733 1.432 . S
C736 C734 1.417 . S
C736 N744 1.360 . S
C737 C733 1.414 . S
C737 C735 1.444 . S
C737 C742 1.385 . S
C738 C734 1.432 . S
C738 C735 1.317 . S
C738 H750 0.930 . S
C739 C741 1.392 . S
C739 C742 1.370 . S
C739 H751 0.931 . S
N740 C733 1.359 . S
N740 C741 1.327 . S
N740 Tb743 2.600 . S
C741 C739 1.392 . S
C741 N740 1.327 . S
C741 H748 0.930 . S
C742 C737 1.385 . S
C742 C739 1.370 . S
C742 H761 0.930 . S
Tb743 N740 2.600 . S
Tb743 N744 2.660 . S
Tb743 O777 2.369 . S
Tb743 O778 2.421 . S
Tb743 O782 2.546 . S
Tb743 O783 2.610 1_655 S
Tb743 O785 2.320 1_655 S
Tb743 O786 2.552 1_655 S
Tb743 O787 2.413 . S
Tb743 C807 2.833 . S
N744 C736 1.360 . S
N744 Tb743 2.660 . S
N744 C745 1.305 . S
C745 N744 1.305 . S
C745 C747 1.407 . S
C745 H752 0.930 . S
C746 C734 1.410 . S
C746 C747 1.345 . S
C746 H754 0.930 . S
C747 C745 1.407 . S
C747 C746 1.345 . S
C747 H749 0.930 . S
H748 C741 0.930 . S
H749 C747 0.930 . S
H750 C738 0.930 . S
H751 C739 0.931 . S
H752 C745 0.930 . S
H753 C767 0.930 . S
H754 C746 0.930 . S
H755 C773 0.930 . S
H756 C764 0.930 . S
H757 C771 0.931 . S
H758 C735 0.929 . S
H759 C765 0.930 . S
H760 C798 0.930 . S
H761 C742 0.930 . S
H762 C797 0.929 . S
N763 Tb732 2.660 . S
N763 C764 1.305 . S
N763 C768 1.360 . S
C764 H756 0.930 . S
C764 N763 1.305 . S
C764 C767 1.407 . S
C765 H759 0.930 . S
C765 C766 1.410 . S
C765 C767 1.345 . S
C766 C765 1.410 . S
C766 C768 1.417 . S
C766 C798 1.432 . S
C767 H753 0.930 . S
C767 C764 1.407 . S
C767 C765 1.345 . S
C768 N763 1.360 . S
C768 C766 1.417 . S
C768 C772 1.432 . S
H769 C774 0.930 . S
N770 Tb732 2.600 . S
N770 C772 1.359 . S
N770 C773 1.327 . S
C771 H757 0.931 . S
C771 C773 1.392 . S
C771 C774 1.370 . S
C772 C768 1.432 . S
C772 N770 1.359 . S
C772 C775 1.414 . S
C773 H755 0.930 . S
C773 N770 1.327 . S
C773 C771 1.392 . S
C774 H769 0.930 . S
C774 C771 1.370 . S
C774 C775 1.385 . S
C775 C772 1.414 . S
C775 C774 1.385 . S
C775 C797 1.444 . S
O776 Tb732 2.546 . S
O776 C796 1.251 . S
O777 Tb732 2.605 1_654 S
O777 Tb743 2.369 . S
O777 C788 1.277 1_554 S
O778 Tb743 2.421 . S
O778 C795 1.262 1_554 S
O779 Tb732 2.320 1_655 S
O779 C795 1.260 . S
O780 Tb732 2.552 1_655 S
O780 C788 1.243 . S
O781 Tb732 2.413 . S
O781 C796 1.256 . S
O782 Tb743 2.546 . S
O782 C807 1.251 . S
O783 Tb732 2.362 1_554 S
O783 Tb743 2.610 1_455 S
O783 C799 1.283 . S
O784 Tb732 2.419 1_554 S
O784 C806 1.265 . S
O785 Tb743 2.320 1_455 S
O785 C806 1.260 . S
O786 Tb743 2.552 1_455 S
O786 C799 1.243 . S
O787 Tb743 2.413 . S
O787 C807 1.256 . S
C788 O777 1.277 1_556 S
C788 O780 1.243 . S
C789 C791 1.382 1_455 S
C789 C793 1.393 . S
C789 C796 1.500 . S
C790 C791 1.400 . S
C790 C792 1.384 1_655 S
C791 C789 1.382 1_655 S
C791 C790 1.400 . S
C791 H808 0.930 . S
C792 C790 1.384 1_455 S
C792 C794 1.392 . S
C792 H809 0.931 . S
C793 C789 1.393 . S
C793 C794 1.401 . S
C793 H810 0.930 . S
C794 C792 1.392 . S
C794 C793 1.401 . S
C794 H811 0.930 . S
C795 O778 1.262 1_556 S
C795 O779 1.260 . S
C796 Tb732 2.833 . S
C796 O776 1.251 . S
C796 O781 1.256 . S
C796 C789 1.500 . S
C797 H762 0.929 . S
C797 C775 1.444 . S
C797 C798 1.317 . S
C798 H760 0.930 . S
C798 C766 1.432 . S
C798 C797 1.317 . S
C799 O783 1.283 . S
C799 O786 1.243 . S
C800 C801 1.382 1_655 S
C800 C804 1.393 . S
C800 C807 1.500 . S
C801 C800 1.382 1_455 S
C801 C802 1.400 . S
C801 H812 0.930 . S
C802 C801 1.400 . S
C802 C803 1.384 1_455 S
C803 C802 1.384 1_655 S
C803 C805 1.392 . S
C803 H813 0.931 . S
C804 C800 1.393 . S
C804 C805 1.401 . S
C804 H814 0.930 . S
C805 C803 1.392 . S
C805 C804 1.401 . S
C805 H815 0.930 . S
C806 O784 1.265 . S
C806 O785 1.260 . S
C807 Tb743 2.833 . S
C807 O782 1.251 . S
C807 O787 1.256 . S
C807 C800 1.500 . S
H808 C791 0.930 . S
H809 C792 0.931 . S
H810 C793 0.930 . S
H811 C794 0.930 . S
H812 C801 0.930 . S
H813 C803 0.931 . S
H814 C804 0.930 . S
H815 C805 0.930 . S
Tb816 N847 2.660 . S
Tb816 N854 2.600 . S
Tb816 O860 2.546 . S
Tb816 O861 2.610 . S
Tb816 O863 2.320 . S
Tb816 O864 2.552 . S
Tb816 O865 2.413 . S
Tb816 O867 2.389 . S
Tb816 O868 2.421 . S
Tb816 C880 2.833 . S
C817 C820 1.432 . S
C817 C821 1.414 . S
C817 N824 1.359 . S
C818 C820 1.417 . S
C818 C822 1.432 . S
C818 C830 1.410 . S
C819 C821 1.444 . S
C819 C822 1.317 . S
C819 H842 0.929 . S
C820 C817 1.432 . S
C820 C818 1.417 . S
C820 N828 1.360 . S
C821 C817 1.414 . S
C821 C819 1.444 . S
C821 C826 1.385 . S
C822 C818 1.432 . S
C822 C819 1.317 . S
C822 H834 0.930 . S
C823 C825 1.392 . S
C823 C826 1.370 . S
C823 H835 0.931 . S
N824 C817 1.359 . S
N824 C825 1.327 . S
N824 Tb827 2.600 . S
C825 C823 1.392 . S
C825 N824 1.327 . S
C825 H832 0.930 . S
C826 C821 1.385 . S
C826 C823 1.370 . S
C826 H845 0.930 . S
Tb827 N824 2.600 . S
Tb827 N828 2.660 . S
Tb827 O861 2.362 1_556 S
Tb827 O862 2.426 . S
Tb827 O866 2.546 . S
Tb827 O867 2.594 1_556 S
Tb827 O869 2.320 . S
Tb827 O870 2.552 . S
Tb827 O871 2.413 . S
Tb827 C891 2.833 . S
N828 C820 1.360 . S
N828 Tb827 2.660 . S
N828 C829 1.305 . S
C829 N828 1.305 . S
C829 C831 1.407 . S
C829 H836 0.930 . S
C830 C818 1.410 . S
C830 C831 1.345 . S
C830 H838 0.930 . S
C831 C829 1.407 . S
C831 C830 1.345 . S
C831 H833 0.930 . S
H832 C825 0.930 . S
H833 C831 0.930 . S
H834 C822 0.930 . S
H835 C823 0.931 . S
H836 C829 0.930 . S
H837 C851 0.930 . S
H838 C830 0.930 . S
H839 C857 0.930 . S
H840 C848 0.930 . S
H841 C855 0.931 . S
H842 C819 0.929 . S
H843 C849 0.930 . S
H844 C882 0.930 . S
H845 C826 0.930 . S
H846 C881 0.929 . S
N847 Tb816 2.660 . S
N847 C848 1.305 . S
N847 C852 1.360 . S
C848 H840 0.930 . S
C848 N847 1.305 . S
C848 C851 1.407 . S
C849 H843 0.930 . S
C849 C850 1.410 . S
C849 C851 1.345 . S
C850 C849 1.410 . S
C850 C852 1.417 . S
C850 C882 1.432 . S
C851 H837 0.930 . S
C851 C848 1.407 . S
C851 C849 1.345 . S
C852 N847 1.360 . S
C852 C850 1.417 . S
C852 C856 1.432 . S
H853 C858 0.930 . S
N854 Tb816 2.600 . S
N854 C856 1.359 . S
N854 C857 1.327 . S
C855 H841 0.931 . S
C855 C857 1.392 . S
C855 C858 1.370 . S
C856 C852 1.432 . S
C856 N854 1.359 . S
C856 C859 1.414 . S
C857 H839 0.930 . S
C857 N854 1.327 . S
C857 C855 1.392 . S
C858 H853 0.930 . S
C858 C855 1.370 . S
C858 C859 1.385 . S
C859 C856 1.414 . S
C859 C858 1.385 . S
C859 C881 1.444 . S
O860 Tb816 2.546 . S
O860 C880 1.251 . S
O861 Tb816 2.610 . S
O861 Tb827 2.362 1_554 S
O861 C872 1.283 . S
O862 Tb827 2.426 . S
O862 C879 1.252 1_556 S
O863 Tb816 2.320 . S
O863 C879 1.260 . S
O864 Tb816 2.552 . S
O864 C872 1.243 . S
O865 Tb816 2.413 . S
O865 C880 1.256 . S
O866 Tb827 2.546 . S
O866 C891 1.251 . S
O867 Tb816 2.389 . S
O867 Tb827 2.594 1_554 S
O867 C883 1.261 1_554 S
O868 Tb816 2.421 . S
O868 C890 1.262 1_554 S
O869 Tb827 2.320 . S
O869 C890 1.260 . S
O870 Tb827 2.552 . S
O870 C883 1.243 . S
O871 Tb827 2.413 . S
O871 C891 1.256 . S
C872 O861 1.283 . S
C872 O864 1.243 . S
C873 C875 1.382 . S
C873 C877 1.393 . S
C873 C880 1.500 . S
C874 C875 1.400 . S
C874 C876 1.384 . S
C875 C873 1.382 . S
C875 C874 1.400 . S
C875 H892 0.930 . S
C876 C874 1.384 . S
C876 C878 1.392 . S
C876 H893 0.931 . S
C877 C873 1.393 . S
C877 C878 1.401 . S
C877 H894 0.930 . S
C878 C876 1.392 . S
C878 C877 1.401 . S
C878 H895 0.930 . S
C879 O862 1.252 1_554 S
C879 O863 1.260 . S
C880 Tb816 2.833 . S
C880 O860 1.251 . S
C880 O865 1.256 . S
C880 C873 1.500 . S
C881 H846 0.929 . S
C881 C859 1.444 . S
C881 C882 1.317 . S
C882 H844 0.930 . S
C882 C850 1.432 . S
C882 C881 1.317 . S
C883 O867 1.261 1_556 S
C883 O870 1.243 . S
C884 C885 1.382 . S
C884 C888 1.393 . S
C884 C891 1.500 . S
C885 C884 1.382 . S
C885 C886 1.400 . S
C885 H896 0.930 . S
C886 C885 1.400 . S
C886 C887 1.384 . S
C887 C886 1.384 . S
C887 C889 1.392 . S
C887 H897 0.931 . S
C888 C884 1.393 . S
C888 C889 1.401 . S
C888 H898 0.930 . S
C889 C887 1.392 . S
C889 C888 1.401 . S
C889 H899 0.930 . S
C890 O868 1.262 1_556 S
C890 O869 1.260 . S
C891 Tb827 2.833 . S
C891 O866 1.251 . S
C891 O871 1.256 . S
C891 C884 1.500 . S
H892 C875 0.930 . S
H893 C876 0.931 . S
H894 C877 0.930 . S
H895 C878 0.930 . S
H896 C885 0.930 . S
H897 C887 0.931 . S
H898 C888 0.930 . S
H899 C889 0.930 . S
Tb900 N931 2.660 . S
Tb900 N938 2.600 . S
Tb900 O944 2.546 . S
Tb900 O945 2.610 . S
Tb900 O947 2.320 . S
Tb900 O948 2.552 . S
Tb900 O949 2.413 . S
Tb900 O951 2.362 . S
Tb900 O952 2.421 . S
Tb900 C964 2.833 . S
C901 C904 1.432 . S
C901 C905 1.414 . S
C901 N908 1.359 . S
C902 C904 1.417 . S
C902 C906 1.432 . S
C902 C914 1.410 . S
C903 C905 1.444 . S
C903 C906 1.317 . S
C903 H926 0.929 . S
C904 C901 1.432 . S
C904 C902 1.417 . S
C904 N912 1.360 . S
C905 C901 1.414 . S
C905 C903 1.444 . S
C905 C910 1.385 . S
C906 C902 1.432 . S
C906 C903 1.317 . S
C906 H918 0.930 . S
C907 C909 1.392 . S
C907 C910 1.370 . S
C907 H919 0.931 . S
N908 C901 1.359 . S
N908 C909 1.327 . S
N908 Tb911 2.600 . S
C909 C907 1.392 . S
C909 N908 1.327 . S
C909 H916 0.930 . S
C910 C905 1.385 . S
C910 C907 1.370 . S
C910 H929 0.930 . S
Tb911 N908 2.600 . S
Tb911 N912 2.660 . S
Tb911 O945 2.362 . S
Tb911 O946 2.421 . S
Tb911 O950 2.546 . S
Tb911 O951 2.610 . S
Tb911 O953 2.320 . S
Tb911 O954 2.552 . S
Tb911 O955 2.413 . S
Tb911 C975 2.833 . S
N912 C904 1.360 . S
N912 Tb911 2.660 . S
N912 C913 1.305 . S
C913 N912 1.305 . S
C913 C915 1.407 . S
C913 H920 0.930 . S
C914 C902 1.410 . S
C914 C915 1.345 . S
C914 H922 0.930 . S
C915 C913 1.407 . S
C915 C914 1.345 . S
C915 H917 0.930 . S
H916 C909 0.930 . S
H917 C915 0.930 . S
H918 C906 0.930 . S
H919 C907 0.931 . S
H920 C913 0.930 . S
H921 C935 0.930 . S
H922 C914 0.930 . S
H923 C941 0.930 . S
H924 C932 0.930 . S
H925 C939 0.931 . S
H926 C903 0.929 . S
H927 C933 0.930 . S
H928 C966 0.930 . S
H929 C910 0.930 . S
H930 C965 0.929 . S
N931 Tb900 2.660 . S
N931 C932 1.305 . S
N931 C936 1.360 . S
C932 H924 0.930 . S
C932 N931 1.305 . S
C932 C935 1.407 . S
C933 H927 0.930 . S
C933 C934 1.410 . S
C933 C935 1.345 . S
C934 C933 1.410 . S
C934 C936 1.417 . S
C934 C966 1.432 . S
C935 H921 0.930 . S
C935 C932 1.407 . S
C935 C933 1.345 . S
C936 N931 1.360 . S
C936 C934 1.417 . S
C936 C940 1.432 . S
H937 C942 0.930 . S
N938 Tb900 2.600 . S
N938 C940 1.359 . S
N938 C941 1.327 . S
C939 H925 0.931 . S
C939 C941 1.392 . S
C939 C942 1.370 . S
C940 C936 1.432 . S
C940 N938 1.359 . S
C940 C943 1.414 . S
C941 H923 0.930 . S
C941 N938 1.327 . S
C941 C939 1.392 . S
C942 H937 0.930 . S
C942 C939 1.370 . S
C942 C943 1.385 . S
C943 C940 1.414 . S
C943 C942 1.385 . S
C943 C965 1.444 . S
O944 Tb900 2.546 . S
O944 C964 1.251 . S
O945 Tb900 2.610 . S
O945 Tb911 2.362 . S
O945 C956 1.283 . S
O946 Tb911 2.421 . S
O946 C963 1.262 . S
O947 Tb900 2.320 . S
O947 C963 1.260 . S
O948 Tb900 2.552 . S
O948 C956 1.243 . S
O949 Tb900 2.413 . S
O949 C964 1.256 . S
O950 Tb911 2.546 . S
O950 C975 1.251 . S
O951 Tb900 2.362 . S
O951 Tb911 2.610 . S
O951 C967 1.283 . S
O952 Tb900 2.421 . S
O952 C974 1.262 . S
O953 Tb911 2.320 . S
O953 C974 1.260 . S
O954 Tb911 2.552 . S
O954 C967 1.243 . S
O955 Tb911 2.413 . S
O955 C975 1.256 . S
C956 O945 1.283 . S
C956 O948 1.243 . S
C957 C959 1.382 . S
C957 C961 1.393 . S
C957 C964 1.500 . S
C958 C959 1.400 . S
C958 C960 1.384 . S
C959 C957 1.382 . S
C959 C958 1.400 . S
C959 H976 0.930 . S
C960 C958 1.384 . S
C960 C962 1.392 . S
C960 H977 0.931 . S
C961 C957 1.393 . S
C961 C962 1.401 . S
C961 H978 0.930 . S
C962 C960 1.392 . S
C962 C961 1.401 . S
C962 H979 0.930 . S
C963 O946 1.262 . S
C963 O947 1.260 . S
C964 Tb900 2.833 . S
C964 O944 1.251 . S
C964 O949 1.256 . S
C964 C957 1.500 . S
C965 H930 0.929 . S
C965 C943 1.444 . S
C965 C966 1.317 . S
C966 H928 0.930 . S
C966 C934 1.432 . S
C966 C965 1.317 . S
C967 O951 1.283 . S
C967 O954 1.243 . S
C968 C969 1.382 . S
C968 C972 1.393 . S
C968 C975 1.500 . S
C969 C968 1.382 . S
C969 C970 1.400 . S
C969 H980 0.930 . S
C970 C969 1.400 . S
C970 C971 1.384 . S
C971 C970 1.384 . S
C971 C973 1.392 . S
C971 H981 0.931 . S
C972 C968 1.393 . S
C972 C973 1.401 . S
C972 H982 0.930 . S
C973 C971 1.392 . S
C973 C972 1.401 . S
C973 H983 0.930 . S
C974 O952 1.262 . S
C974 O953 1.260 . S
C975 Tb911 2.833 . S
C975 O950 1.251 . S
C975 O955 1.256 . S
C975 C968 1.500 . S
H976 C959 0.930 . S
H977 C960 0.931 . S
H978 C961 0.930 . S
H979 C962 0.930 . S
H980 C969 0.930 . S
H981 C971 0.931 . S
H982 C972 0.930 . S
H983 C973 0.930 . S
Tb984 N1015 2.660 . S
Tb984 N1022 2.600 . S
Tb984 O1028 2.546 . S
Tb984 O1029 2.610 . S
Tb984 O1031 2.320 . S
Tb984 O1032 2.552 . S
Tb984 O1033 2.413 . S
Tb984 O1035 2.362 . S
Tb984 O1036 2.421 . S
Tb984 C1048 2.833 . S
C985 C988 1.432 . S
C985 C989 1.414 . S
C985 N992 1.359 . S
C986 C988 1.417 . S
C986 C990 1.432 . S
C986 C998 1.410 . S
C987 C989 1.444 . S
C987 C990 1.317 . S
C987 H1010 0.929 . S
C988 C985 1.432 . S
C988 C986 1.417 . S
C988 N996 1.360 . S
C989 C985 1.414 . S
C989 C987 1.444 . S
C989 C994 1.385 . S
C990 C986 1.432 . S
C990 C987 1.317 . S
C990 H1002 0.930 . S
C991 C993 1.392 . S
C991 C994 1.370 . S
C991 H1003 0.931 . S
N992 C985 1.359 . S
N992 C993 1.327 . S
N992 Tb995 2.600 . S
C993 C991 1.392 . S
C993 N992 1.327 . S
C993 H1000 0.930 . S
C994 C989 1.385 . S
C994 C991 1.370 . S
C994 H1013 0.930 . S
Tb995 N992 2.600 . S
Tb995 N996 2.660 . S
Tb995 O1029 2.362 . S
Tb995 O1030 2.421 . S
Tb995 O1034 2.546 . S
Tb995 O1035 2.610 . S
Tb995 O1037 2.320 . S
Tb995 O1038 2.552 . S
Tb995 O1039 2.413 . S
Tb995 C1059 2.833 . S
N996 C988 1.360 . S
N996 Tb995 2.660 . S
N996 C997 1.305 . S
C997 N996 1.305 . S
C997 C999 1.407 . S
C997 H1004 0.930 . S
C998 C986 1.410 . S
C998 C999 1.345 . S
C998 H1006 0.930 . S
C999 C997 1.407 . S
C999 C998 1.345 . S
C999 H1001 0.930 . S
H1000 C993 0.930 . S
H1001 C999 0.930 . S
H1002 C990 0.930 . S
H1003 C991 0.931 . S
H1004 C997 0.930 . S
H1005 C1019 0.930 . S
H1006 C998 0.930 . S
H1007 C1025 0.930 . S
H1008 C1016 0.930 . S
H1009 C1023 0.931 . S
H1010 C987 0.929 . S
H1011 C1017 0.930 . S
H1012 C1050 0.930 . S
H1013 C994 0.930 . S
H1014 C1049 0.929 . S
N1015 Tb984 2.660 . S
N1015 C1016 1.305 . S
N1015 C1020 1.360 . S
C1016 H1008 0.930 . S
C1016 N1015 1.305 . S
C1016 C1019 1.407 . S
C1017 H1011 0.930 . S
C1017 C1018 1.410 . S
C1017 C1019 1.345 . S
C1018 C1017 1.410 . S
C1018 C1020 1.417 . S
C1018 C1050 1.432 . S
C1019 H1005 0.930 . S
C1019 C1016 1.407 . S
C1019 C1017 1.345 . S
C1020 N1015 1.360 . S
C1020 C1018 1.417 . S
C1020 C1024 1.432 . S
H1021 C1026 0.930 . S
N1022 Tb984 2.600 . S
N1022 C1024 1.359 . S
N1022 C1025 1.327 . S
C1023 H1009 0.931 . S
C1023 C1025 1.392 . S
C1023 C1026 1.370 . S
C1024 C1020 1.432 . S
C1024 N1022 1.359 . S
C1024 C1027 1.414 . S
C1025 H1007 0.930 . S
C1025 N1022 1.327 . S
C1025 C1023 1.392 . S
C1026 H1021 0.930 . S
C1026 C1023 1.370 . S
C1026 C1027 1.385 . S
C1027 C1024 1.414 . S
C1027 C1026 1.385 . S
C1027 C1049 1.444 . S
O1028 Tb984 2.546 . S
O1028 C1048 1.251 . S
O1029 Tb984 2.610 . S
O1029 Tb995 2.362 . S
O1029 C1040 1.283 . S
O1030 Tb995 2.421 . S
O1030 C1047 1.262 . S
O1031 Tb984 2.320 . S
O1031 C1047 1.260 . S
O1032 Tb984 2.552 . S
O1032 C1040 1.243 . S
O1033 Tb984 2.413 . S
O1033 C1048 1.256 . S
O1034 Tb995 2.546 . S
O1034 C1059 1.251 . S
O1035 Tb984 2.362 . S
O1035 Tb995 2.610 . S
O1035 C1051 1.283 . S
O1036 Tb984 2.421 . S
O1036 C1058 1.262 . S
O1037 Tb995 2.320 . S
O1037 C1058 1.260 . S
O1038 Tb995 2.552 . S
O1038 C1051 1.243 . S
O1039 Tb995 2.413 . S
O1039 C1059 1.256 . S
C1040 O1029 1.283 . S
C1040 O1032 1.243 . S
C1041 C1043 1.382 . S
C1041 C1045 1.393 . S
C1041 C1048 1.500 . S
C1042 C1043 1.400 . S
C1042 C1044 1.384 . S
C1043 C1041 1.382 . S
C1043 C1042 1.400 . S
C1043 H1060 0.930 . S
C1044 C1042 1.384 . S
C1044 C1046 1.392 . S
C1044 H1061 0.931 . S
C1045 C1041 1.393 . S
C1045 C1046 1.401 . S
C1045 H1062 0.930 . S
C1046 C1044 1.392 . S
C1046 C1045 1.401 . S
C1046 H1063 0.930 . S
C1047 O1030 1.262 . S
C1047 O1031 1.260 . S
C1048 Tb984 2.833 . S
C1048 O1028 1.251 . S
C1048 O1033 1.256 . S
C1048 C1041 1.500 . S
C1049 H1014 0.929 . S
C1049 C1027 1.444 . S
C1049 C1050 1.317 . S
C1050 H1012 0.930 . S
C1050 C1018 1.432 . S
C1050 C1049 1.317 . S
C1051 O1035 1.283 . S
C1051 O1038 1.243 . S
C1052 C1053 1.382 . S
C1052 C1056 1.393 . S
C1052 C1059 1.500 . S
C1053 C1052 1.382 . S
C1053 C1054 1.400 . S
C1053 H1064 0.930 . S
C1054 C1053 1.400 . S
C1054 C1055 1.384 . S
C1055 C1054 1.384 . S
C1055 C1057 1.392 . S
C1055 H1065 0.931 . S
C1056 C1052 1.393 . S
C1056 C1057 1.401 . S
C1056 H1066 0.930 . S
C1057 C1055 1.392 . S
C1057 C1056 1.401 . S
C1057 H1067 0.930 . S
C1058 O1036 1.262 . S
C1058 O1037 1.260 . S
C1059 Tb995 2.833 . S
C1059 O1034 1.251 . S
C1059 O1039 1.256 . S
C1059 C1052 1.500 . S
H1060 C1043 0.930 . S
H1061 C1044 0.931 . S
H1062 C1045 0.930 . S
H1063 C1046 0.930 . S
H1064 C1053 0.930 . S
H1065 C1055 0.931 . S
H1066 C1056 0.930 . S
H1067 C1057 0.930 . S
Tb1068 N1099 2.660 . S
Tb1068 N1106 2.600 . S
Tb1068 O1112 2.546 . S
Tb1068 O1113 2.610 . S
Tb1068 O1115 2.320 . S
Tb1068 O1116 2.552 . S
Tb1068 O1117 2.413 . S
Tb1068 O1119 2.362 . S
Tb1068 O1120 2.421 . S
Tb1068 C1132 2.833 . S
C1069 C1072 1.432 . S
C1069 C1073 1.414 . S
C1069 N1076 1.359 . S
C1070 C1072 1.417 . S
C1070 C1074 1.432 . S
C1070 C1082 1.410 . S
C1071 C1073 1.444 . S
C1071 C1074 1.317 . S
C1071 H1094 0.929 . S
C1072 C1069 1.432 . S
C1072 C1070 1.417 . S
C1072 N1080 1.360 . S
C1073 C1069 1.414 . S
C1073 C1071 1.444 . S
C1073 C1078 1.385 . S
C1074 C1070 1.432 . S
C1074 C1071 1.317 . S
C1074 H1086 0.930 . S
C1075 C1077 1.392 . S
C1075 C1078 1.370 . S
C1075 H1087 0.931 . S
N1076 C1069 1.359 . S
N1076 C1077 1.327 . S
N1076 Tb1079 2.600 . S
C1077 C1075 1.392 . S
C1077 N1076 1.327 . S
C1077 H1084 0.930 . S
C1078 C1073 1.385 . S
C1078 C1075 1.370 . S
C1078 H1097 0.930 . S
Tb1079 N1076 2.600 . S
Tb1079 N1080 2.660 . S
Tb1079 O1113 2.362 . S
Tb1079 O1114 2.421 . S
Tb1079 O1118 2.546 . S
Tb1079 O1119 2.610 . S
Tb1079 O1121 2.320 . S
Tb1079 O1122 2.552 . S
Tb1079 O1123 2.413 . S
Tb1079 C1143 2.833 . S
N1080 C1072 1.360 . S
N1080 Tb1079 2.660 . S
N1080 C1081 1.305 . S
C1081 N1080 1.305 . S
C1081 C1083 1.407 . S
C1081 H1088 0.930 . S
C1082 C1070 1.410 . S
C1082 C1083 1.345 . S
C1082 H1090 0.930 . S
C1083 C1081 1.407 . S
C1083 C1082 1.345 . S
C1083 H1085 0.930 . S
H1084 C1077 0.930 . S
H1085 C1083 0.930 . S
H1086 C1074 0.930 . S
H1087 C1075 0.931 . S
H1088 C1081 0.930 . S
H1089 C1103 0.930 . S
H1090 C1082 0.930 . S
H1091 C1109 0.930 . S
H1092 C1100 0.930 . S
H1093 C1107 0.931 . S
H1094 C1071 0.929 . S
H1095 C1101 0.930 . S
H1096 C1134 0.930 . S
H1097 C1078 0.930 . S
H1098 C1133 0.929 . S
N1099 Tb1068 2.660 . S
N1099 C1100 1.305 . S
N1099 C1104 1.360 . S
C1100 H1092 0.930 . S
C1100 N1099 1.305 . S
C1100 C1103 1.407 . S
C1101 H1095 0.930 . S
C1101 C1102 1.410 . S
C1101 C1103 1.345 . S
C1102 C1101 1.410 . S
C1102 C1104 1.417 . S
C1102 C1134 1.432 . S
C1103 H1089 0.930 . S
C1103 C1100 1.407 . S
C1103 C1101 1.345 . S
C1104 N1099 1.360 . S
C1104 C1102 1.417 . S
C1104 C1108 1.432 . S
H1105 C1110 0.930 . S
N1106 Tb1068 2.600 . S
N1106 C1108 1.359 . S
N1106 C1109 1.327 . S
C1107 H1093 0.931 . S
C1107 C1109 1.392 . S
C1107 C1110 1.370 . S
C1108 C1104 1.432 . S
C1108 N1106 1.359 . S
C1108 C1111 1.414 . S
C1109 H1091 0.930 . S
C1109 N1106 1.327 . S
C1109 C1107 1.392 . S
C1110 H1105 0.930 . S
C1110 C1107 1.370 . S
C1110 C1111 1.385 . S
C1111 C1108 1.414 . S
C1111 C1110 1.385 . S
C1111 C1133 1.444 . S
O1112 Tb1068 2.546 . S
O1112 C1132 1.251 . S
O1113 Tb1068 2.610 . S
O1113 Tb1079 2.362 . S
O1113 C1124 1.283 . S
O1114 Tb1079 2.421 . S
O1114 C1131 1.262 . S
O1115 Tb1068 2.320 . S
O1115 C1131 1.260 . S
O1116 Tb1068 2.552 . S
O1116 C1124 1.243 . S
O1117 Tb1068 2.413 . S
O1117 C1132 1.256 . S
O1118 Tb1079 2.546 . S
O1118 C1143 1.251 . S
O1119 Tb1068 2.362 . S
O1119 Tb1079 2.610 . S
O1119 C1135 1.283 . S
O1120 Tb1068 2.421 . S
O1120 C1142 1.262 . S
O1121 Tb1079 2.320 . S
O1121 C1142 1.260 . S
O1122 Tb1079 2.552 . S
O1122 C1135 1.243 . S
O1123 Tb1079 2.413 . S
O1123 C1143 1.256 . S
C1124 O1113 1.283 . S
C1124 O1116 1.243 . S
C1125 C1127 1.382 . S
C1125 C1129 1.393 . S
C1125 C1132 1.500 . S
C1126 C1127 1.400 . S
C1126 C1128 1.384 . S
C1127 C1125 1.382 . S
C1127 C1126 1.400 . S
C1127 H1144 0.930 . S
C1128 C1126 1.384 . S
C1128 C1130 1.392 . S
C1128 H1145 0.931 . S
C1129 C1125 1.393 . S
C1129 C1130 1.401 . S
C1129 H1146 0.930 . S
C1130 C1128 1.392 . S
C1130 C1129 1.401 . S
C1130 H1147 0.930 . S
C1131 O1114 1.262 . S
C1131 O1115 1.260 . S
C1132 Tb1068 2.833 . S
C1132 O1112 1.251 . S
C1132 O1117 1.256 . S
C1132 C1125 1.500 . S
C1133 H1098 0.929 . S
C1133 C1111 1.444 . S
C1133 C1134 1.317 . S
C1134 H1096 0.930 . S
C1134 C1102 1.432 . S
C1134 C1133 1.317 . S
C1135 O1119 1.283 . S
C1135 O1122 1.243 . S
C1136 C1137 1.382 . S
C1136 C1140 1.393 . S
C1136 C1143 1.500 . S
C1137 C1136 1.382 . S
C1137 C1138 1.400 . S
C1137 H1148 0.930 . S
C1138 C1137 1.400 . S
C1138 C1139 1.384 . S
C1139 C1138 1.384 . S
C1139 C1141 1.392 . S
C1139 H1149 0.931 . S
C1140 C1136 1.393 . S
C1140 C1141 1.401 . S
C1140 H1150 0.930 . S
C1141 C1139 1.392 . S
C1141 C1140 1.401 . S
C1141 H1151 0.930 . S
C1142 O1120 1.262 . S
C1142 O1121 1.260 . S
C1143 Tb1079 2.833 . S
C1143 O1118 1.251 . S
C1143 O1123 1.256 . S
C1143 C1136 1.500 . S
H1144 C1127 0.930 . S
H1145 C1128 0.931 . S
H1146 C1129 0.930 . S
H1147 C1130 0.930 . S
H1148 C1137 0.930 . S
H1149 C1139 0.931 . S
H1150 C1140 0.930 . S
H1151 C1141 0.930 . S
Tb1152 N1183 2.660 . S
Tb1152 N1190 2.600 . S
Tb1152 O1196 2.546 . S
Tb1152 O1197 2.610 . S
Tb1152 O1199 2.320 . S
Tb1152 O1200 2.552 . S
Tb1152 O1201 2.413 . S
Tb1152 O1203 2.362 . S
Tb1152 O1204 2.421 . S
Tb1152 C1216 2.833 . S
C1153 C1156 1.432 . S
C1153 C1157 1.414 . S
C1153 N1160 1.359 . S
C1154 C1156 1.417 . S
C1154 C1158 1.432 . S
C1154 C1166 1.410 . S
C1155 C1157 1.444 . S
C1155 C1158 1.317 . S
C1155 H1178 0.929 . S
C1156 C1153 1.432 . S
C1156 C1154 1.417 . S
C1156 N1164 1.360 . S
C1157 C1153 1.414 . S
C1157 C1155 1.444 . S
C1157 C1162 1.385 . S
C1158 C1154 1.432 . S
C1158 C1155 1.317 . S
C1158 H1170 0.930 . S
C1159 C1161 1.392 . S
C1159 C1162 1.370 . S
C1159 H1171 0.931 . S
N1160 C1153 1.359 . S
N1160 C1161 1.327 . S
N1160 Tb1163 2.600 . S
C1161 C1159 1.392 . S
C1161 N1160 1.327 . S
C1161 H1168 0.930 . S
C1162 C1157 1.385 . S
C1162 C1159 1.370 . S
C1162 H1181 0.930 . S
Tb1163 N1160 2.600 . S
Tb1163 N1164 2.660 . S
Tb1163 O1197 2.362 . S
Tb1163 O1198 2.421 . S
Tb1163 O1202 2.546 . S
Tb1163 O1203 2.610 . S
Tb1163 O1205 2.320 . S
Tb1163 O1206 2.552 . S
Tb1163 O1207 2.413 . S
Tb1163 C1227 2.833 . S
N1164 C1156 1.360 . S
N1164 Tb1163 2.660 . S
N1164 C1165 1.305 . S
C1165 N1164 1.305 . S
C1165 C1167 1.407 . S
C1165 H1172 0.930 . S
C1166 C1154 1.410 . S
C1166 C1167 1.345 . S
C1166 H1174 0.930 . S
C1167 C1165 1.407 . S
C1167 C1166 1.345 . S
C1167 H1169 0.930 . S
H1168 C1161 0.930 . S
H1169 C1167 0.930 . S
H1170 C1158 0.930 . S
H1171 C1159 0.931 . S
H1172 C1165 0.930 . S
H1173 C1187 0.930 . S
H1174 C1166 0.930 . S
H1175 C1193 0.930 . S
H1176 C1184 0.930 . S
H1177 C1191 0.931 . S
H1178 C1155 0.929 . S
H1179 C1185 0.930 . S
H1180 C1218 0.930 . S
H1181 C1162 0.930 . S
H1182 C1217 0.929 . S
N1183 Tb1152 2.660 . S
N1183 C1184 1.305 . S
N1183 C1188 1.360 . S
C1184 H1176 0.930 . S
C1184 N1183 1.305 . S
C1184 C1187 1.407 . S
C1185 H1179 0.930 . S
C1185 C1186 1.410 . S
C1185 C1187 1.345 . S
C1186 C1185 1.410 . S
C1186 C1188 1.417 . S
C1186 C1218 1.432 . S
C1187 H1173 0.930 . S
C1187 C1184 1.407 . S
C1187 C1185 1.345 . S
C1188 N1183 1.360 . S
C1188 C1186 1.417 . S
C1188 C1192 1.432 . S
H1189 C1194 0.930 . S
N1190 Tb1152 2.600 . S
N1190 C1192 1.359 . S
N1190 C1193 1.327 . S
C1191 H1177 0.931 . S
C1191 C1193 1.392 . S
C1191 C1194 1.370 . S
C1192 C1188 1.432 . S
C1192 N1190 1.359 . S
C1192 C1195 1.414 . S
C1193 H1175 0.930 . S
C1193 N1190 1.327 . S
C1193 C1191 1.392 . S
C1194 H1189 0.930 . S
C1194 C1191 1.370 . S
C1194 C1195 1.385 . S
C1195 C1192 1.414 . S
C1195 C1194 1.385 . S
C1195 C1217 1.444 . S
O1196 Tb1152 2.546 . S
O1196 C1216 1.251 . S
O1197 Tb1152 2.610 . S
O1197 Tb1163 2.362 . S
O1197 C1208 1.283 . S
O1198 Tb1163 2.421 . S
O1198 C1215 1.262 . S
O1199 Tb1152 2.320 . S
O1199 C1215 1.260 . S
O1200 Tb1152 2.552 . S
O1200 C1208 1.243 . S
O1201 Tb1152 2.413 . S
O1201 C1216 1.256 . S
O1202 Tb1163 2.546 . S
O1202 C1227 1.251 . S
O1203 Tb1152 2.362 . S
O1203 Tb1163 2.610 . S
O1203 C1219 1.283 . S
O1204 Tb1152 2.421 . S
O1204 C1226 1.262 . S
O1205 Tb1163 2.320 . S
O1205 C1226 1.260 . S
O1206 Tb1163 2.552 . S
O1206 C1219 1.243 . S
O1207 Tb1163 2.413 . S
O1207 C1227 1.256 . S
C1208 O1197 1.283 . S
C1208 O1200 1.243 . S
C1209 C1211 1.382 . S
C1209 C1213 1.393 . S
C1209 C1216 1.500 . S
C1210 C1211 1.400 . S
C1210 C1212 1.384 . S
C1211 C1209 1.382 . S
C1211 C1210 1.400 . S
C1211 H1228 0.930 . S
C1212 C1210 1.384 . S
C1212 C1214 1.392 . S
C1212 H1229 0.931 . S
C1213 C1209 1.393 . S
C1213 C1214 1.401 . S
C1213 H1230 0.930 . S
C1214 C1212 1.392 . S
C1214 C1213 1.401 . S
C1214 H1231 0.930 . S
C1215 O1198 1.262 . S
C1215 O1199 1.260 . S
C1216 Tb1152 2.833 . S
C1216 O1196 1.251 . S
C1216 O1201 1.256 . S
C1216 C1209 1.500 . S
C1217 H1182 0.929 . S
C1217 C1195 1.444 . S
C1217 C1218 1.317 . S
C1218 H1180 0.930 . S
C1218 C1186 1.432 . S
C1218 C1217 1.317 . S
C1219 O1203 1.283 . S
C1219 O1206 1.243 . S
C1220 C1221 1.382 . S
C1220 C1224 1.393 . S
C1220 C1227 1.500 . S
C1221 C1220 1.382 . S
C1221 C1222 1.400 . S
C1221 H1232 0.930 . S
C1222 C1221 1.400 . S
C1222 C1223 1.384 . S
C1223 C1222 1.384 . S
C1223 C1225 1.392 . S
C1223 H1233 0.931 . S
C1224 C1220 1.393 . S
C1224 C1225 1.401 . S
C1224 H1234 0.930 . S
C1225 C1223 1.392 . S
C1225 C1224 1.401 . S
C1225 H1235 0.930 . S
C1226 O1204 1.262 . S
C1226 O1205 1.260 . S
C1227 Tb1163 2.833 . S
C1227 O1202 1.251 . S
C1227 O1207 1.256 . S
C1227 C1220 1.500 . S
H1228 C1211 0.930 . S
H1229 C1212 0.931 . S
H1230 C1213 0.930 . S
H1231 C1214 0.930 . S
H1232 C1221 0.930 . S
H1233 C1223 0.931 . S
H1234 C1224 0.930 . S
H1235 C1225 0.930 . S
Tb1236 N1267 2.660 . S
Tb1236 N1274 2.600 . S
Tb1236 O1280 2.546 . S
Tb1236 O1281 2.610 . S
Tb1236 O1283 2.320 . S
Tb1236 O1284 2.552 . S
Tb1236 O1285 2.413 . S
Tb1236 O1287 2.362 . S
Tb1236 O1288 2.421 . S
Tb1236 C1300 2.833 . S
C1237 C1240 1.432 . S
C1237 C1241 1.414 . S
C1237 N1244 1.359 . S
C1238 C1240 1.417 . S
C1238 C1242 1.432 . S
C1238 C1250 1.410 . S
C1239 C1241 1.444 . S
C1239 C1242 1.317 . S
C1239 H1262 0.929 . S
C1240 C1237 1.432 . S
C1240 C1238 1.417 . S
C1240 N1248 1.360 . S
C1241 C1237 1.414 . S
C1241 C1239 1.444 . S
C1241 C1246 1.385 . S
C1242 C1238 1.432 . S
C1242 C1239 1.317 . S
C1242 H1254 0.930 . S
C1243 C1245 1.392 . S
C1243 C1246 1.370 . S
C1243 H1255 0.931 . S
N1244 C1237 1.359 . S
N1244 C1245 1.327 . S
N1244 Tb1247 2.600 . S
C1245 C1243 1.392 . S
C1245 N1244 1.327 . S
C1245 H1252 0.930 . S
C1246 C1241 1.385 . S
C1246 C1243 1.370 . S
C1246 H1265 0.930 . S
Tb1247 N1244 2.600 . S
Tb1247 N1248 2.660 . S
Tb1247 O1281 2.362 . S
Tb1247 O1282 2.421 . S
Tb1247 O1286 2.546 . S
Tb1247 O1287 2.610 . S
Tb1247 O1289 2.320 . S
Tb1247 O1290 2.552 . S
Tb1247 O1291 2.413 . S
Tb1247 C1311 2.833 . S
N1248 C1240 1.360 . S
N1248 Tb1247 2.660 . S
N1248 C1249 1.305 . S
C1249 N1248 1.305 . S
C1249 C1251 1.407 . S
C1249 H1256 0.930 . S
C1250 C1238 1.410 . S
C1250 C1251 1.345 . S
C1250 H1258 0.930 . S
C1251 C1249 1.407 . S
C1251 C1250 1.345 . S
C1251 H1253 0.930 . S
H1252 C1245 0.930 . S
H1253 C1251 0.930 . S
H1254 C1242 0.930 . S
H1255 C1243 0.931 . S
H1256 C1249 0.930 . S
H1257 C1271 0.930 . S
H1258 C1250 0.930 . S
H1259 C1277 0.930 . S
H1260 C1268 0.930 . S
H1261 C1275 0.931 . S
H1262 C1239 0.929 . S
H1263 C1269 0.930 . S
H1264 C1302 0.930 . S
H1265 C1246 0.930 . S
H1266 C1301 0.929 . S
N1267 Tb1236 2.660 . S
N1267 C1268 1.305 . S
N1267 C1272 1.360 . S
C1268 H1260 0.930 . S
C1268 N1267 1.305 . S
C1268 C1271 1.407 . S
C1269 H1263 0.930 . S
C1269 C1270 1.410 . S
C1269 C1271 1.345 . S
C1270 C1269 1.410 . S
C1270 C1272 1.417 . S
C1270 C1302 1.432 . S
C1271 H1257 0.930 . S
C1271 C1268 1.407 . S
C1271 C1269 1.345 . S
C1272 N1267 1.360 . S
C1272 C1270 1.417 . S
C1272 C1276 1.432 . S
H1273 C1278 0.930 . S
N1274 Tb1236 2.600 . S
N1274 C1276 1.359 . S
N1274 C1277 1.327 . S
C1275 H1261 0.931 . S
C1275 C1277 1.392 . S
C1275 C1278 1.370 . S
C1276 C1272 1.432 . S
C1276 N1274 1.359 . S
C1276 C1279 1.414 . S
C1277 H1259 0.930 . S
C1277 N1274 1.327 . S
C1277 C1275 1.392 . S
C1278 H1273 0.930 . S
C1278 C1275 1.370 . S
C1278 C1279 1.385 . S
C1279 C1276 1.414 . S
C1279 C1278 1.385 . S
C1279 C1301 1.444 . S
O1280 Tb1236 2.546 . S
O1280 C1300 1.251 . S
O1281 Tb1236 2.610 . S
O1281 Tb1247 2.362 . S
O1281 C1292 1.283 . S
O1282 Tb1247 2.421 . S
O1282 C1299 1.262 . S
O1283 Tb1236 2.320 . S
O1283 C1299 1.260 . S
O1284 Tb1236 2.552 . S
O1284 C1292 1.243 . S
O1285 Tb1236 2.413 . S
O1285 C1300 1.256 . S
O1286 Tb1247 2.546 . S
O1286 C1311 1.251 . S
O1287 Tb1236 2.362 . S
O1287 Tb1247 2.610 . S
O1287 C1303 1.283 . S
O1288 Tb1236 2.421 . S
O1288 C1310 1.262 . S
O1289 Tb1247 2.320 . S
O1289 C1310 1.260 . S
O1290 Tb1247 2.552 . S
O1290 C1303 1.243 . S
O1291 Tb1247 2.413 . S
O1291 C1311 1.256 . S
C1292 O1281 1.283 . S
C1292 O1284 1.243 . S
C1293 C1295 1.382 . S
C1293 C1297 1.393 . S
C1293 C1300 1.500 . S
C1294 C1295 1.400 . S
C1294 C1296 1.384 . S
C1295 C1293 1.382 . S
C1295 C1294 1.400 . S
C1295 H1312 0.930 . S
C1296 C1294 1.384 . S
C1296 C1298 1.392 . S
C1296 H1313 0.931 . S
C1297 C1293 1.393 . S
C1297 C1298 1.401 . S
C1297 H1314 0.930 . S
C1298 C1296 1.392 . S
C1298 C1297 1.401 . S
C1298 H1315 0.930 . S
C1299 O1282 1.262 . S
C1299 O1283 1.260 . S
C1300 Tb1236 2.833 . S
C1300 O1280 1.251 . S
C1300 O1285 1.256 . S
C1300 C1293 1.500 . S
C1301 H1266 0.929 . S
C1301 C1279 1.444 . S
C1301 C1302 1.317 . S
C1302 H1264 0.930 . S
C1302 C1270 1.432 . S
C1302 C1301 1.317 . S
C1303 O1287 1.283 . S
C1303 O1290 1.243 . S
C1304 C1305 1.382 . S
C1304 C1308 1.393 . S
C1304 C1311 1.500 . S
C1305 C1304 1.382 . S
C1305 C1306 1.400 . S
C1305 H1316 0.930 . S
C1306 C1305 1.400 . S
C1306 C1307 1.384 . S
C1307 C1306 1.384 . S
C1307 C1309 1.392 . S
C1307 H1317 0.931 . S
C1308 C1304 1.393 . S
C1308 C1309 1.401 . S
C1308 H1318 0.930 . S
C1309 C1307 1.392 . S
C1309 C1308 1.401 . S
C1309 H1319 0.930 . S
C1310 O1288 1.262 . S
C1310 O1289 1.260 . S
C1311 Tb1247 2.833 . S
C1311 O1286 1.251 . S
C1311 O1291 1.256 . S
C1311 C1304 1.500 . S
H1312 C1295 0.930 . S
H1313 C1296 0.931 . S
H1314 C1297 0.930 . S
H1315 C1298 0.930 . S
H1316 C1305 0.930 . S
H1317 C1307 0.931 . S
H1318 C1308 0.930 . S
H1319 C1309 0.930 . S
Tb1320 N1351 2.660 . S
Tb1320 N1358 2.600 . S
Tb1320 O1364 2.546 . S
Tb1320 O1365 2.610 . S
Tb1320 O1367 2.320 . S
Tb1320 O1368 2.552 . S
Tb1320 O1369 2.413 . S
Tb1320 O1371 2.362 . S
Tb1320 O1372 2.421 . S
Tb1320 C1384 2.833 . S
C1321 C1324 1.432 . S
C1321 C1325 1.414 . S
C1321 N1328 1.359 . S
C1322 C1324 1.417 . S
C1322 C1326 1.432 . S
C1322 C1334 1.410 . S
C1323 C1325 1.444 . S
C1323 C1326 1.317 . S
C1323 H1346 0.929 . S
C1324 C1321 1.432 . S
C1324 C1322 1.417 . S
C1324 N1332 1.360 . S
C1325 C1321 1.414 . S
C1325 C1323 1.444 . S
C1325 C1330 1.385 . S
C1326 C1322 1.432 . S
C1326 C1323 1.317 . S
C1326 H1338 0.930 . S
C1327 C1329 1.392 . S
C1327 C1330 1.370 . S
C1327 H1339 0.931 . S
N1328 C1321 1.359 . S
N1328 C1329 1.327 . S
N1328 Tb1331 2.600 . S
C1329 C1327 1.392 . S
C1329 N1328 1.327 . S
C1329 H1336 0.930 . S
C1330 C1325 1.385 . S
C1330 C1327 1.370 . S
C1330 H1349 0.930 . S
Tb1331 N1328 2.600 . S
Tb1331 N1332 2.660 . S
Tb1331 O1365 2.362 . S
Tb1331 O1366 2.421 . S
Tb1331 O1370 2.546 . S
Tb1331 O1371 2.610 . S
Tb1331 O1373 2.320 . S
Tb1331 O1374 2.552 . S
Tb1331 O1375 2.413 . S
Tb1331 C1395 2.833 . S
N1332 C1324 1.360 . S
N1332 Tb1331 2.660 . S
N1332 C1333 1.305 . S
C1333 N1332 1.305 . S
C1333 C1335 1.407 . S
C1333 H1340 0.930 . S
C1334 C1322 1.410 . S
C1334 C1335 1.345 . S
C1334 H1342 0.930 . S
C1335 C1333 1.407 . S
C1335 C1334 1.345 . S
C1335 H1337 0.930 . S
H1336 C1329 0.930 . S
H1337 C1335 0.930 . S
H1338 C1326 0.930 . S
H1339 C1327 0.931 . S
H1340 C1333 0.930 . S
H1341 C1355 0.930 . S
H1342 C1334 0.930 . S
H1343 C1361 0.930 . S
H1344 C1352 0.930 . S
H1345 C1359 0.931 . S
H1346 C1323 0.929 . S
H1347 C1353 0.930 . S
H1348 C1386 0.930 . S
H1349 C1330 0.930 . S
H1350 C1385 0.929 . S
N1351 Tb1320 2.660 . S
N1351 C1352 1.305 . S
N1351 C1356 1.360 . S
C1352 H1344 0.930 . S
C1352 N1351 1.305 . S
C1352 C1355 1.407 . S
C1353 H1347 0.930 . S
C1353 C1354 1.410 . S
C1353 C1355 1.345 . S
C1354 C1353 1.410 . S
C1354 C1356 1.417 . S
C1354 C1386 1.432 . S
C1355 H1341 0.930 . S
C1355 C1352 1.407 . S
C1355 C1353 1.345 . S
C1356 N1351 1.360 . S
C1356 C1354 1.417 . S
C1356 C1360 1.432 . S
H1357 C1362 0.930 . S
N1358 Tb1320 2.600 . S
N1358 C1360 1.359 . S
N1358 C1361 1.327 . S
C1359 H1345 0.931 . S
C1359 C1361 1.392 . S
C1359 C1362 1.370 . S
C1360 C1356 1.432 . S
C1360 N1358 1.359 . S
C1360 C1363 1.414 . S
C1361 H1343 0.930 . S
C1361 N1358 1.327 . S
C1361 C1359 1.392 . S
C1362 H1357 0.930 . S
C1362 C1359 1.370 . S
C1362 C1363 1.385 . S
C1363 C1360 1.414 . S
C1363 C1362 1.385 . S
C1363 C1385 1.444 . S
O1364 Tb1320 2.546 . S
O1364 C1384 1.251 . S
O1365 Tb1320 2.610 . S
O1365 Tb1331 2.362 . S
O1365 C1376 1.283 . S
O1366 Tb1331 2.421 . S
O1366 C1383 1.262 . S
O1367 Tb1320 2.320 . S
O1367 C1383 1.260 . S
O1368 Tb1320 2.552 . S
O1368 C1376 1.243 . S
O1369 Tb1320 2.413 . S
O1369 C1384 1.256 . S
O1370 Tb1331 2.546 . S
O1370 C1395 1.251 . S
O1371 Tb1320 2.362 . S
O1371 Tb1331 2.610 . S
O1371 C1387 1.283 . S
O1372 Tb1320 2.421 . S
O1372 C1394 1.262 . S
O1373 Tb1331 2.320 . S
O1373 C1394 1.260 . S
O1374 Tb1331 2.552 . S
O1374 C1387 1.243 . S
O1375 Tb1331 2.413 . S
O1375 C1395 1.256 . S
C1376 O1365 1.283 . S
C1376 O1368 1.243 . S
C1377 C1379 1.382 . S
C1377 C1381 1.393 . S
C1377 C1384 1.500 . S
C1378 C1379 1.400 . S
C1378 C1380 1.384 . S
C1379 C1377 1.382 . S
C1379 C1378 1.400 . S
C1379 H1396 0.930 . S
C1380 C1378 1.384 . S
C1380 C1382 1.392 . S
C1380 H1397 0.931 . S
C1381 C1377 1.393 . S
C1381 C1382 1.401 . S
C1381 H1398 0.930 . S
C1382 C1380 1.392 . S
C1382 C1381 1.401 . S
C1382 H1399 0.930 . S
C1383 O1366 1.262 . S
C1383 O1367 1.260 . S
C1384 Tb1320 2.833 . S
C1384 O1364 1.251 . S
C1384 O1369 1.256 . S
C1384 C1377 1.500 . S
C1385 H1350 0.929 . S
C1385 C1363 1.444 . S
C1385 C1386 1.317 . S
C1386 H1348 0.930 . S
C1386 C1354 1.432 . S
C1386 C1385 1.317 . S
C1387 O1371 1.283 . S
C1387 O1374 1.243 . S
C1388 C1389 1.382 . S
C1388 C1392 1.393 . S
C1388 C1395 1.500 . S
C1389 C1388 1.382 . S
C1389 C1390 1.400 . S
C1389 H1400 0.930 . S
C1390 C1389 1.400 . S
C1390 C1391 1.384 . S
C1391 C1390 1.384 . S
C1391 C1393 1.392 . S
C1391 H1401 0.931 . S
C1392 C1388 1.393 . S
C1392 C1393 1.401 . S
C1392 H1402 0.930 . S
C1393 C1391 1.392 . S
C1393 C1392 1.401 . S
C1393 H1403 0.930 . S
C1394 O1372 1.262 . S
C1394 O1373 1.260 . S
C1395 Tb1331 2.833 . S
C1395 O1370 1.251 . S
C1395 O1375 1.256 . S
C1395 C1388 1.500 . S
H1396 C1379 0.930 . S
H1397 C1380 0.931 . S
H1398 C1381 0.930 . S
H1399 C1382 0.930 . S
H1400 C1389 0.930 . S
H1401 C1391 0.931 . S
H1402 C1392 0.930 . S
H1403 C1393 0.930 . S
H1404 C1412 0.929 . S
H1405 C1414 0.930 . S
H1406 C1416 0.930 . S
H1407 C1419 0.929 . S
H1408 C1422 0.930 . S
H1409 C1424 0.960 . S
H1410 C1424 0.960 . S
H1411 C1424 0.960 . S
C1412 H1404 0.929 . S
C1412 C1413 1.377 . S
C1412 C1414 1.384 . S
C1413 C1412 1.377 . S
C1413 C1419 1.390 . S
C1414 H1405 0.930 . S
C1414 C1412 1.384 . S
C1414 C1415 1.372 . S
C1415 C1414 1.372 . S
C1415 C1416 1.400 . S
C1415 C1420 1.490 . S
C1416 H1406 0.930 . S
C1416 C1415 1.400 . S
C1416 C1419 1.386 . S
H1417 C1433 0.930 . S
H1418 C1434 0.931 . S
C1419 H1407 0.929 . S
C1419 C1413 1.390 . S
C1419 C1416 1.386 . S
C1420 C1415 1.490 . S
C1420 C1422 1.395 . S
C1420 C1423 1.403 . S
H1421 C1427 0.930 . S
C1422 H1408 0.930 . S
C1422 C1420 1.395 . S
C1422 C1425 1.403 . S
C1423 C1420 1.403 . S
C1423 C1424 1.524 . S
C1423 C1427 1.400 . S
C1424 H1409 0.960 . S
C1424 H1410 0.960 . S
C1424 H1411 0.960 . S
C1424 C1423 1.524 . S
C1425 C1422 1.403 . S
C1425 C1426 1.392 . S
C1425 C1429 1.495 . S
C1426 C1425 1.392 . S
C1426 C1427 1.385 . S
C1426 C1428 1.478 . S
C1427 H1421 0.930 . S
C1427 C1423 1.400 . S
C1427 C1426 1.385 . S
C1428 C1426 1.478 . S
C1428 C1430 1.381 . S
C1428 C1434 1.383 . S
C1429 C1425 1.495 . S
C1429 H1435 0.959 . S
C1429 H1436 0.961 . S
C1429 H1437 0.960 . S
C1430 C1428 1.381 . S
C1430 C1431 1.394 . S
C1430 H1438 0.930 . S
C1431 C1430 1.394 . S
C1431 C1432 1.383 . S
C1431 H1439 0.929 . S
C1432 C1431 1.383 . S
C1432 C1433 1.377 . S
C1433 H1417 0.930 . S
C1433 C1432 1.377 . S
C1433 C1434 1.379 . S
C1434 H1418 0.931 . S
C1434 C1428 1.383 . S
C1434 C1433 1.379 . S
H1435 C1429 0.959 . S
H1436 C1429 0.961 . S
H1437 C1429 0.960 . S
H1438 C1430 0.930 . S
H1439 C1431 0.929 . S
H1440 C1448 0.929 . S
H1441 C1450 0.930 . S
H1442 C1452 0.930 . S
H1443 C1455 0.929 . S
H1444 C1458 0.930 . S
H1445 C1460 0.960 . S
H1446 C1460 0.960 . S
H1447 C1460 0.960 . S
C1448 H1440 0.929 . S
C1448 C1449 1.377 . S
C1448 C1450 1.384 . S
C1449 C1448 1.377 . S
C1449 C1455 1.390 . S
C1450 H1441 0.930 . S
C1450 C1448 1.384 . S
C1450 C1451 1.372 . S
C1451 C1450 1.372 . S
C1451 C1452 1.400 . S
C1451 C1456 1.490 . S
C1452 H1442 0.930 . S
C1452 C1451 1.400 . S
C1452 C1455 1.386 . S
H1453 C1469 0.930 . S
H1454 C1470 0.931 . S
C1455 H1443 0.929 . S
C1455 C1449 1.390 . S
C1455 C1452 1.386 . S
C1456 C1451 1.490 . S
C1456 C1458 1.395 . S
C1456 C1459 1.403 . S
H1457 C1463 0.930 . S
C1458 H1444 0.930 . S
C1458 C1456 1.395 . S
C1458 C1461 1.403 . S
C1459 C1456 1.403 . S
C1459 C1460 1.524 . S
C1459 C1463 1.400 . S
C1460 H1445 0.960 . S
C1460 H1446 0.960 . S
C1460 H1447 0.960 . S
C1460 C1459 1.524 . S
C1461 C1458 1.403 . S
C1461 C1462 1.392 . S
C1461 C1465 1.495 . S
C1462 C1461 1.392 . S
C1462 C1463 1.385 . S
C1462 C1464 1.478 . S
C1463 H1457 0.930 . S
C1463 C1459 1.400 . S
C1463 C1462 1.385 . S
C1464 C1462 1.478 . S
C1464 C1466 1.381 . S
C1464 C1470 1.383 . S
C1465 C1461 1.495 . S
C1465 H1471 0.959 . S
C1465 H1472 0.961 . S
C1465 H1473 0.960 . S
C1466 C1464 1.381 . S
C1466 C1467 1.394 . S
C1466 H1474 0.930 . S
C1467 C1466 1.394 . S
C1467 C1468 1.383 . S
C1467 H1475 0.929 . S
C1468 C1467 1.383 . S
C1468 C1469 1.377 . S
C1469 H1453 0.930 . S
C1469 C1468 1.377 . S
C1469 C1470 1.379 . S
C1470 H1454 0.931 . S
C1470 C1464 1.383 . S
C1470 C1469 1.379 . S
H1471 C1465 0.959 . S
H1472 C1465 0.961 . S
H1473 C1465 0.960 . S
H1474 C1466 0.930 . S
H1475 C1467 0.929 . S
H1476 C1484 0.929 . S
H1477 C1486 0.930 . S
H1478 C1488 0.930 . S
H1479 C1491 0.929 . S
H1480 C1494 0.930 . S
H1481 C1496 0.960 . S
H1482 C1496 0.960 . S
H1483 C1496 0.960 . S
C1484 H1476 0.929 . S
C1484 C1485 1.377 . S
C1484 C1486 1.384 . S
C1485 C1484 1.377 . S
C1485 C1491 1.390 . S
C1486 H1477 0.930 . S
C1486 C1484 1.384 . S
C1486 C1487 1.372 . S
C1487 C1486 1.372 . S
C1487 C1488 1.400 . S
C1487 C1492 1.490 . S
C1488 H1478 0.930 . S
C1488 C1487 1.400 . S
C1488 C1491 1.386 . S
H1489 C1505 0.930 . S
H1490 C1506 0.931 . S
C1491 H1479 0.929 . S
C1491 C1485 1.390 . S
C1491 C1488 1.386 . S
C1492 C1487 1.490 . S
C1492 C1494 1.395 . S
C1492 C1495 1.403 . S
H1493 C1499 0.930 . S
C1494 H1480 0.930 . S
C1494 C1492 1.395 . S
C1494 C1497 1.403 . S
C1495 C1492 1.403 . S
C1495 C1496 1.524 . S
C1495 C1499 1.400 . S
C1496 H1481 0.960 . S
C1496 H1482 0.960 . S
C1496 H1483 0.960 . S
C1496 C1495 1.524 . S
C1497 C1494 1.403 . S
C1497 C1498 1.392 . S
C1497 C1501 1.495 . S
C1498 C1497 1.392 . S
C1498 C1499 1.385 . S
C1498 C1500 1.478 . S
C1499 H1493 0.930 . S
C1499 C1495 1.400 . S
C1499 C1498 1.385 . S
C1500 C1498 1.478 . S
C1500 C1502 1.381 . S
C1500 C1506 1.383 . S
C1501 C1497 1.495 . S
C1501 H1507 0.959 . S
C1501 H1508 0.961 . S
C1501 H1509 0.960 . S
C1502 C1500 1.381 . S
C1502 C1503 1.394 . S
C1502 H1510 0.930 . S
C1503 C1502 1.394 . S
C1503 C1504 1.383 . S
C1503 H1511 0.929 . S
C1504 C1503 1.383 . S
C1504 C1505 1.377 . S
C1505 H1489 0.930 . S
C1505 C1504 1.377 . S
C1505 C1506 1.379 . S
C1506 H1490 0.931 . S
C1506 C1500 1.383 . S
C1506 C1505 1.379 . S
H1507 C1501 0.959 . S
H1508 C1501 0.961 . S
H1509 C1501 0.960 . S
H1510 C1502 0.930 . S
H1511 C1503 0.929 . S
H1512 C1520 0.929 . S
H1513 C1522 0.930 . S
H1514 C1524 0.930 . S
H1515 C1527 0.929 . S
H1516 C1530 0.930 . S
H1517 C1532 0.960 . S
H1518 C1532 0.960 . S
H1519 C1532 0.960 . S
C1520 H1512 0.929 . S
C1520 C1521 1.377 . S
C1520 C1522 1.384 . S
C1521 C1520 1.377 . S
C1521 C1527 1.390 . S
C1522 H1513 0.930 . S
C1522 C1520 1.384 . S
C1522 C1523 1.372 . S
C1523 C1522 1.372 . S
C1523 C1524 1.400 . S
C1523 C1528 1.490 . S
C1524 H1514 0.930 . S
C1524 C1523 1.400 . S
C1524 C1527 1.386 . S
H1525 C1541 0.930 1_554 S
H1526 C1542 0.931 . S
C1527 H1515 0.929 . S
C1527 C1521 1.390 . S
C1527 C1524 1.386 . S
C1528 C1523 1.490 . S
C1528 C1530 1.395 . S
C1528 C1531 1.403 . S
H1529 C1535 0.930 . S
C1530 H1516 0.930 . S
C1530 C1528 1.395 . S
C1530 C1533 1.403 . S
C1531 C1528 1.403 . S
C1531 C1532 1.524 . S
C1531 C1535 1.400 . S
C1532 H1517 0.960 . S
C1532 H1518 0.960 . S
C1532 H1519 0.960 . S
C1532 C1531 1.524 . S
C1533 C1530 1.403 . S
C1533 C1534 1.392 . S
C1533 C1537 1.495 . S
C1534 C1533 1.392 . S
C1534 C1535 1.385 . S
C1534 C1536 1.478 . S
C1535 H1529 0.930 . S
C1535 C1531 1.400 . S
C1535 C1534 1.385 . S
C1536 C1534 1.478 . S
C1536 C1538 1.381 . S
C1536 C1542 1.383 . S
C1537 C1533 1.495 . S
C1537 H1543 0.959 . S
C1537 H1544 0.961 . S
C1537 H1545 0.960 . S
C1538 C1536 1.381 . S
C1538 C1539 1.394 . S
C1538 H1546 0.930 . S
C1539 C1538 1.394 . S
C1539 C1540 1.383 . S
C1539 H1547 0.929 . S
C1540 C1539 1.383 . S
C1540 C1541 1.377 . S
C1541 H1525 0.930 1_556 S
C1541 C1540 1.377 . S
C1541 C1542 1.379 . S
C1542 H1526 0.931 . S
C1542 C1536 1.383 . S
C1542 C1541 1.379 . S
H1543 C1537 0.959 . S
H1544 C1537 0.961 . S
H1545 C1537 0.960 . S
H1546 C1538 0.930 . S
H1547 C1539 0.929 . S
H1548 C1556 0.929 . S
H1549 C1558 0.930 . S
H1550 C1560 0.930 . S
H1551 C1563 0.929 . S
H1552 C1566 0.930 . S
H1553 C1568 0.960 . S
H1554 C1568 0.960 . S
H1555 C1568 0.960 . S
C1556 H1548 0.929 . S
C1556 C1557 1.377 . S
C1556 C1558 1.384 . S
C1557 C1556 1.377 . S
C1557 C1563 1.390 . S
C1558 H1549 0.930 . S
C1558 C1556 1.384 . S
C1558 C1559 1.372 . S
C1559 C1558 1.372 . S
C1559 C1560 1.400 . S
C1559 C1564 1.490 . S
C1560 H1550 0.930 . S
C1560 C1559 1.400 . S
C1560 C1563 1.386 . S
H1561 C1577 0.930 . S
H1562 C1578 0.931 . S
C1563 H1551 0.929 . S
C1563 C1557 1.390 . S
C1563 C1560 1.386 . S
C1564 C1559 1.490 . S
C1564 C1566 1.395 . S
C1564 C1567 1.403 . S
H1565 C1571 0.930 . S
C1566 H1552 0.930 . S
C1566 C1564 1.395 . S
C1566 C1569 1.403 . S
C1567 C1564 1.403 . S
C1567 C1568 1.524 . S
C1567 C1571 1.400 . S
C1568 H1553 0.960 . S
C1568 H1554 0.960 . S
C1568 H1555 0.960 . S
C1568 C1567 1.524 . S
C1569 C1566 1.403 . S
C1569 C1570 1.392 . S
C1569 C1573 1.495 . S
C1570 C1569 1.392 . S
C1570 C1571 1.385 . S
C1570 C1572 1.478 . S
C1571 H1565 0.930 . S
C1571 C1567 1.400 . S
C1571 C1570 1.385 . S
C1572 C1570 1.478 . S
C1572 C1574 1.381 . S
C1572 C1578 1.383 . S
C1573 C1569 1.495 . S
C1573 H1579 0.959 . S
C1573 H1580 0.961 . S
C1573 H1581 0.926 1_556 S
C1574 C1572 1.381 . S
C1574 C1575 1.394 . S
C1574 H1582 0.930 . S
C1575 C1574 1.394 . S
C1575 C1576 1.383 . S
C1575 H1583 0.870 1_556 S
C1576 C1575 1.383 . S
C1576 C1577 1.377 . S
C1577 H1561 0.930 . S
C1577 C1576 1.377 . S
C1577 C1578 1.379 . S
C1578 H1562 0.931 . S
C1578 C1572 1.383 . S
C1578 C1577 1.379 . S
H1579 C1573 0.959 . S
H1580 C1573 0.961 . S
H1581 C1573 0.926 1_554 S
H1582 C1574 0.930 . S
H1583 C1575 0.870 1_554 S
H1584 C1592 0.929 . S
H1585 C1594 0.930 . S
H1586 C1596 0.930 . S
H1587 C1599 0.929 . S
H1588 C1602 0.930 . S
H1589 C1604 0.960 . S
H1590 C1604 0.960 . S
H1591 C1604 0.960 . S
C1592 H1584 0.929 . S
C1592 C1593 1.377 . S
C1592 C1594 1.384 . S
C1593 C1592 1.377 . S
C1593 C1599 1.390 . S
C1594 H1585 0.930 . S
C1594 C1592 1.384 . S
C1594 C1595 1.372 . S
C1595 C1594 1.372 . S
C1595 C1596 1.400 . S
C1595 C1600 1.490 . S
C1596 H1586 0.930 . S
C1596 C1595 1.400 . S
C1596 C1599 1.386 . S
H1597 C1613 0.930 . S
H1598 C1614 0.931 . S
C1599 H1587 0.929 . S
C1599 C1593 1.390 . S
C1599 C1596 1.386 . S
C1600 C1595 1.490 . S
C1600 C1602 1.395 . S
C1600 C1603 1.403 . S
H1601 C1607 0.930 . S
C1602 H1588 0.930 . S
C1602 C1600 1.395 . S
C1602 C1605 1.403 . S
C1603 C1600 1.403 . S
C1603 C1604 1.524 . S
C1603 C1607 1.400 . S
C1604 H1589 0.960 . S
C1604 H1590 0.960 . S
C1604 H1591 0.960 . S
C1604 C1603 1.524 . S
C1605 C1602 1.403 . S
C1605 C1606 1.392 . S
C1605 C1609 1.495 . S
C1606 C1605 1.392 . S
C1606 C1607 1.385 . S
C1606 C1608 1.478 . S
C1607 H1601 0.930 . S
C1607 C1603 1.400 . S
C1607 C1606 1.385 . S
C1608 C1606 1.478 . S
C1608 C1610 1.381 . S
C1608 C1614 1.383 . S
C1609 C1605 1.495 . S
C1609 H1615 0.959 . S
C1609 H1616 0.961 . S
C1609 H1617 0.960 . S
C1610 C1608 1.381 . S
C1610 C1611 1.409 . S
C1610 H1618 0.891 1_556 S
C1611 C1610 1.409 . S
C1611 C1612 1.410 . S
C1611 H1619 0.889 1_556 S
C1612 C1611 1.410 . S
C1612 C1613 1.377 . S
C1613 H1597 0.930 . S
C1613 C1612 1.377 . S
C1613 C1614 1.379 . S
C1614 H1598 0.931 . S
C1614 C1608 1.383 . S
C1614 C1613 1.379 . S
H1615 C1609 0.959 . S
H1616 C1609 0.961 . S
H1617 C1609 0.960 . S
H1618 C1610 0.891 1_554 S
H1619 C1611 0.889 1_554 S
H1620 C1628 0.929 . S
H1621 C1630 0.930 . S
H1622 C1632 0.930 . S
H1623 C1635 0.929 . S
H1624 C1638 0.930 . S
H1625 C1640 0.960 . S
H1626 C1640 0.960 . S
H1627 C1640 0.960 . S
C1628 H1620 0.929 . S
C1628 C1629 1.377 . S
C1628 C1630 1.384 . S
C1629 C1628 1.377 . S
C1629 C1635 1.390 . S
C1630 H1621 0.930 . S
C1630 C1628 1.384 . S
C1630 C1631 1.372 . S
C1631 C1630 1.372 . S
C1631 C1632 1.400 . S
C1631 C1636 1.490 . S
C1632 H1622 0.930 . S
C1632 C1631 1.400 . S
C1632 C1635 1.386 . S
H1633 C1649 0.930 . S
H1634 C1650 0.931 . S
C1635 H1623 0.929 . S
C1635 C1629 1.390 . S
C1635 C1632 1.386 . S
C1636 C1631 1.490 . S
C1636 C1638 1.395 . S
C1636 C1639 1.403 . S
H1637 C1643 0.930 . S
C1638 H1624 0.930 . S
C1638 C1636 1.395 . S
C1638 C1641 1.403 . S
C1639 C1636 1.403 . S
C1639 C1640 1.524 . S
C1639 C1643 1.400 . S
C1640 H1625 0.960 . S
C1640 H1626 0.960 . S
C1640 H1627 0.960 . S
C1640 C1639 1.524 . S
C1641 C1638 1.403 . S
C1641 C1642 1.392 . S
C1641 C1645 1.495 . S
C1642 C1641 1.392 . S
C1642 C1643 1.385 . S
C1642 C1644 1.478 . S
C1643 H1637 0.930 . S
C1643 C1639 1.400 . S
C1643 C1642 1.385 . S
C1644 C1642 1.478 . S
C1644 C1646 1.381 . S
C1644 C1650 1.383 . S
C1645 C1641 1.495 . S
C1645 H1651 0.959 . S
C1645 H1652 0.961 . S
C1645 H1653 0.960 . S
C1646 C1644 1.381 . S
C1646 C1647 1.394 . S
C1646 H1654 0.930 . S
C1647 C1646 1.394 . S
C1647 C1648 1.383 . S
C1647 H1655 0.929 . S
C1648 C1647 1.383 . S
C1648 C1649 1.377 . S
C1649 H1633 0.930 . S
C1649 C1648 1.377 . S
C1649 C1650 1.379 . S
C1650 H1634 0.931 . S
C1650 C1644 1.383 . S
C1650 C1649 1.379 . S
H1651 C1645 0.959 . S
H1652 C1645 0.961 . S
H1653 C1645 0.960 . S
H1654 C1646 0.930 . S
H1655 C1647 0.929 . S
H1656 C1664 0.929 . S
H1657 C1666 0.930 . S
H1658 C1668 0.930 . S
H1659 C1671 0.929 . S
H1660 C1674 0.930 . S
H1661 C1676 0.960 . S
H1662 C1676 0.960 . S
H1663 C1676 0.960 . S
C1664 H1656 0.929 . S
C1664 C1665 1.377 . S
C1664 C1666 1.384 . S
C1665 C1664 1.377 . S
C1665 C1671 1.390 . S
C1666 H1657 0.930 . S
C1666 C1664 1.384 . S
C1666 C1667 1.372 . S
C1667 C1666 1.372 . S
C1667 C1668 1.400 . S
C1667 C1672 1.490 . S
C1668 H1658 0.930 . S
C1668 C1667 1.400 . S
C1668 C1671 1.386 . S
H1669 C1685 1.000 . S
H1670 C1686 0.931 . S
C1671 H1659 0.929 . S
C1671 C1665 1.390 . S
C1671 C1668 1.386 . S
C1672 C1667 1.490 . S
C1672 C1674 1.395 . S
C1672 C1675 1.403 . S
H1673 C1679 0.930 . S
C1674 H1660 0.930 . S
C1674 C1672 1.395 . S
C1674 C1677 1.403 . S
C1675 C1672 1.403 . S
C1675 C1676 1.524 . S
C1675 C1679 1.400 . S
C1676 H1661 0.960 . S
C1676 H1662 0.960 . S
C1676 H1663 0.960 . S
C1676 C1675 1.524 . S
C1677 C1674 1.403 . S
C1677 C1678 1.392 . S
C1677 C1681 1.495 . S
C1678 C1677 1.392 . S
C1678 C1679 1.385 . S
C1678 C1680 1.478 . S
C1679 H1673 0.930 . S
C1679 C1675 1.400 . S
C1679 C1678 1.385 . S
C1680 C1678 1.478 . S
C1680 C1682 1.381 . S
C1680 C1686 1.383 . S
C1681 C1677 1.495 . S
C1681 H1687 0.959 . S
C1681 H1688 0.961 . S
C1681 H1689 0.960 . S
C1682 C1680 1.381 . S
C1682 C1683 1.394 . S
C1682 H1690 0.930 . S
C1683 C1682 1.394 . S
C1683 C1684 1.383 . S
C1683 H1691 0.929 . S
C1684 C1683 1.383 . S
C1684 C1685 1.377 . S
C1685 H1669 1.000 . S
C1685 C1684 1.377 . S
C1685 C1686 1.379 . S
C1686 H1670 0.931 . S
C1686 C1680 1.383 . S
C1686 C1685 1.379 . S
H1687 C1681 0.959 . S
H1688 C1681 0.961 . S
H1689 C1681 0.960 . S
H1690 C1682 0.930 . S
H1691 C1683 0.929 . S
H1692 C1700 0.929 . S
H1693 C1702 0.930 . S
H1694 C1704 0.930 . S
H1695 C1707 0.929 . S
H1696 C1710 0.930 . S
H1697 C1712 0.960 . S
H1698 C1712 0.960 . S
H1699 C1712 0.960 . S
C1700 H1692 0.929 . S
C1700 C1701 1.377 . S
C1700 C1702 1.384 . S
C1701 C1700 1.377 . S
C1701 C1707 1.390 . S
C1702 H1693 0.930 . S
C1702 C1700 1.384 . S
C1702 C1703 1.372 . S
C1703 C1702 1.372 . S
C1703 C1704 1.400 . S
C1703 C1708 1.490 . S
C1704 H1694 0.930 . S
C1704 C1703 1.400 . S
C1704 C1707 1.386 . S
H1705 C1721 0.930 . S
H1706 C1722 0.931 . S
C1707 H1695 0.929 . S
C1707 C1701 1.390 . S
C1707 C1704 1.386 . S
C1708 C1703 1.490 . S
C1708 C1710 1.395 . S
C1708 C1711 1.403 . S
H1709 C1715 0.930 . S
C1710 H1696 0.930 . S
C1710 C1708 1.395 . S
C1710 C1713 1.403 . S
C1711 C1708 1.403 . S
C1711 C1712 1.524 . S
C1711 C1715 1.400 . S
C1712 H1697 0.960 . S
C1712 H1698 0.960 . S
C1712 H1699 0.960 . S
C1712 C1711 1.524 . S
C1713 C1710 1.403 . S
C1713 C1714 1.392 . S
C1713 C1717 1.495 . S
C1714 C1713 1.392 . S
C1714 C1715 1.385 . S
C1714 C1716 1.478 . S
C1715 H1709 0.930 . S
C1715 C1711 1.400 . S
C1715 C1714 1.385 . S
C1716 C1714 1.478 . S
C1716 C1718 1.381 . S
C1716 C1722 1.383 . S
C1717 C1713 1.495 . S
C1717 H1723 0.959 . S
C1717 H1724 0.961 . S
C1717 H1725 0.960 . S
C1718 C1716 1.381 . S
C1718 C1719 1.394 . S
C1718 H1726 0.930 . S
C1719 C1718 1.394 . S
C1719 C1720 1.383 . S
C1719 H1727 0.929 . S
C1720 C1719 1.383 . S
C1720 C1721 1.377 . S
C1721 H1705 0.930 . S
C1721 C1720 1.377 . S
C1721 C1722 1.379 . S
C1722 H1706 0.931 . S
C1722 C1716 1.383 . S
C1722 C1721 1.379 . S
H1723 C1717 0.959 . S
H1724 C1717 0.961 . S
H1725 C1717 0.960 . S
H1726 C1718 0.930 . S
H1727 C1719 0.929 . S
H1728 C1736 0.929 . S
H1729 C1738 0.930 . S
H1730 C1740 0.930 . S
H1731 C1743 0.929 . S
H1732 C1746 0.930 . S
H1733 C1748 0.960 . S
H1734 C1748 0.960 . S
H1735 C1748 0.960 . S
C1736 H1728 0.929 . S
C1736 C1737 1.377 . S
C1736 C1738 1.384 . S
C1737 C1736 1.377 . S
C1737 C1743 1.390 . S
C1738 H1729 0.930 . S
C1738 C1736 1.384 . S
C1738 C1739 1.372 . S
C1739 C1738 1.372 . S
C1739 C1740 1.400 . S
C1739 C1744 1.490 . S
C1740 H1730 0.930 . S
C1740 C1739 1.400 . S
C1740 C1743 1.386 . S
H1741 C1757 0.930 . S
H1742 C1758 0.931 . S
C1743 H1731 0.929 . S
C1743 C1737 1.390 . S
C1743 C1740 1.386 . S
C1744 C1739 1.490 . S
C1744 C1746 1.395 . S
C1744 C1747 1.403 . S
H1745 C1751 0.930 . S
C1746 H1732 0.930 . S
C1746 C1744 1.395 . S
C1746 C1749 1.403 . S
C1747 C1744 1.403 . S
C1747 C1748 1.524 . S
C1747 C1751 1.400 . S
C1748 H1733 0.960 . S
C1748 H1734 0.960 . S
C1748 H1735 0.960 . S
C1748 C1747 1.524 . S
C1749 C1746 1.403 . S
C1749 C1750 1.392 . S
C1749 C1753 1.495 . S
C1750 C1749 1.392 . S
C1750 C1751 1.385 . S
C1750 C1752 1.478 . S
C1751 H1745 0.930 . S
C1751 C1747 1.400 . S
C1751 C1750 1.385 . S
C1752 C1750 1.478 . S
C1752 C1754 1.381 . S
C1752 C1758 1.383 . S
C1753 C1749 1.495 . S
C1753 H1759 0.959 . S
C1753 H1760 0.961 . S
C1753 H1761 0.960 . S
C1754 C1752 1.381 . S
C1754 C1755 1.394 . S
C1754 H1762 0.930 . S
C1755 C1754 1.394 . S
C1755 C1756 1.383 . S
C1755 H1763 0.929 . S
C1756 C1755 1.383 . S
C1756 C1757 1.377 . S
C1757 H1741 0.930 . S
C1757 C1756 1.377 . S
C1757 C1758 1.379 . S
C1758 H1742 0.931 . S
C1758 C1752 1.383 . S
C1758 C1757 1.379 . S
H1759 C1753 0.959 . S
H1760 C1753 0.961 . S
H1761 C1753 0.960 . S
H1762 C1754 0.930 . S
H1763 C1755 0.929 . S
H1764 C1772 0.929 . S
H1765 C1774 0.930 . S
H1766 C1776 0.930 . S
H1767 C1779 0.929 . S
H1768 C1782 0.930 . S
H1769 C1784 0.960 . S
H1770 C1784 0.960 . S
H1771 C1784 0.960 . S
C1772 H1764 0.929 . S
C1772 C1773 1.377 . S
C1772 C1774 1.384 . S
C1773 C1772 1.377 . S
C1773 C1779 1.390 . S
C1774 H1765 0.930 . S
C1774 C1772 1.384 . S
C1774 C1775 1.372 . S
C1775 C1774 1.372 . S
C1775 C1776 1.400 . S
C1775 C1780 1.490 . S
C1776 H1766 0.930 . S
C1776 C1775 1.400 . S
C1776 C1779 1.386 . S
H1777 C1793 0.930 . S
H1778 C1794 0.931 . S
C1779 H1767 0.929 . S
C1779 C1773 1.390 . S
C1779 C1776 1.386 . S
C1780 C1775 1.490 . S
C1780 C1782 1.395 . S
C1780 C1783 1.403 . S
H1781 C1787 0.930 . S
C1782 H1768 0.930 . S
C1782 C1780 1.395 . S
C1782 C1785 1.403 . S
C1783 C1780 1.403 . S
C1783 C1784 1.524 . S
C1783 C1787 1.400 . S
C1784 H1769 0.960 . S
C1784 H1770 0.960 . S
C1784 H1771 0.960 . S
C1784 C1783 1.524 . S
C1785 C1782 1.403 . S
C1785 C1786 1.392 . S
C1785 C1789 1.495 . S
C1786 C1785 1.392 . S
C1786 C1787 1.385 . S
C1786 C1788 1.478 . S
C1787 H1781 0.930 . S
C1787 C1783 1.400 . S
C1787 C1786 1.385 . S
C1788 C1786 1.478 . S
C1788 C1790 1.381 . S
C1788 C1794 1.383 . S
C1789 C1785 1.495 . S
C1789 H1795 0.959 . S
C1789 H1796 0.961 . S
C1789 H1797 0.960 . S
C1790 C1788 1.381 . S
C1790 C1791 1.394 . S
C1790 H1798 0.930 . S
C1791 C1790 1.394 . S
C1791 C1792 1.383 . S
C1791 H1799 0.929 . S
C1792 C1791 1.383 . S
C1792 C1793 1.377 . S
C1793 H1777 0.930 . S
C1793 C1792 1.377 . S
C1793 C1794 1.379 . S
C1794 H1778 0.931 . S
C1794 C1788 1.383 . S
C1794 C1793 1.379 . S
H1795 C1789 0.959 . S
H1796 C1789 0.961 . S
H1797 C1789 0.960 . S
H1798 C1790 0.930 . S
H1799 C1791 0.929 . S
H1800 C1808 0.929 . S
H1801 C1810 0.930 . S
H1802 C1812 0.930 . S
H1803 C1815 0.929 . S
H1804 C1818 0.930 . S
H1805 C1820 0.960 . S
H1806 C1820 0.960 . S
H1807 C1820 0.960 . S
C1808 H1800 0.929 . S
C1808 C1809 1.377 . S
C1808 C1810 1.384 . S
C1809 C1808 1.377 . S
C1809 C1815 1.390 . S
C1810 H1801 0.930 . S
C1810 C1808 1.384 . S
C1810 C1811 1.372 . S
C1811 C1810 1.372 . S
C1811 C1812 1.400 . S
C1811 C1816 1.490 . S
C1812 H1802 0.930 . S
C1812 C1811 1.400 . S
C1812 C1815 1.386 . S
H1813 C1829 0.930 . S
H1814 C1830 0.931 . S
C1815 H1803 0.929 . S
C1815 C1809 1.390 . S
C1815 C1812 1.386 . S
C1816 C1811 1.490 . S
C1816 C1818 1.395 . S
C1816 C1819 1.403 . S
H1817 C1823 0.930 . S
C1818 H1804 0.930 . S
C1818 C1816 1.395 . S
C1818 C1821 1.403 . S
C1819 C1816 1.403 . S
C1819 C1820 1.524 . S
C1819 C1823 1.400 . S
C1820 H1805 0.960 . S
C1820 H1806 0.960 . S
C1820 H1807 0.960 . S
C1820 C1819 1.524 . S
C1821 C1818 1.403 . S
C1821 C1822 1.392 . S
C1821 C1825 1.495 . S
C1822 C1821 1.392 . S
C1822 C1823 1.385 . S
C1822 C1824 1.478 . S
C1823 H1817 0.930 . S
C1823 C1819 1.400 . S
C1823 C1822 1.385 . S
C1824 C1822 1.478 . S
C1824 C1826 1.381 . S
C1824 C1830 1.383 . S
C1825 C1821 1.495 . S
C1825 H1831 0.959 . S
C1825 H1832 0.961 . S
C1825 H1833 0.960 . S
C1826 C1824 1.381 . S
C1826 C1827 1.394 . S
C1826 H1834 0.930 . S
C1827 C1826 1.394 . S
C1827 C1828 1.383 . S
C1827 H1835 0.920 1_554 S
C1828 C1827 1.383 . S
C1828 C1829 1.377 . S
C1829 H1813 0.930 . S
C1829 C1828 1.377 . S
C1829 C1830 1.379 . S
C1830 H1814 0.931 . S
C1830 C1824 1.383 . S
C1830 C1829 1.379 . S
H1831 C1825 0.959 . S
H1832 C1825 0.961 . S
H1833 C1825 0.960 . S
H1834 C1826 0.930 . S
H1835 C1827 0.920 1_556 S
H1836 C1844 0.929 . S
H1837 C1846 0.930 . S
H1838 C1848 0.930 . S
H1839 C1851 0.929 . S
H1840 C1854 0.930 . S
H1841 C1856 0.960 . S
H1842 C1856 0.960 . S
H1843 C1856 0.960 . S
C1844 H1836 0.929 . S
C1844 C1845 1.377 . S
C1844 C1846 1.384 1_655 S
C1845 C1844 1.377 . S
C1845 C1851 1.390 . S
C1846 H1837 0.930 . S
C1846 C1844 1.384 1_455 S
C1846 C1847 1.372 . S
C1847 C1846 1.372 . S
C1847 C1848 1.400 1_455 S
C1847 C1852 1.490 . S
C1848 H1838 0.930 . S
C1848 C1847 1.400 1_655 S
C1848 C1851 1.386 . S
H1849 C1865 0.930 . S
H1850 C1866 0.931 . S
C1851 H1839 0.929 . S
C1851 C1845 1.390 . S
C1851 C1848 1.386 . S
C1852 C1847 1.490 . S
C1852 C1854 1.395 . S
C1852 C1855 1.403 . S
H1853 C1859 0.930 . S
C1854 H1840 0.930 . S
C1854 C1852 1.395 . S
C1854 C1857 1.403 . S
C1855 C1852 1.403 . S
C1855 C1856 1.524 . S
C1855 C1859 1.400 . S
C1856 H1841 0.960 . S
C1856 H1842 0.960 . S
C1856 H1843 0.960 . S
C1856 C1855 1.524 . S
C1857 C1854 1.403 . S
C1857 C1858 1.392 . S
C1857 C1861 1.495 . S
C1858 C1857 1.392 . S
C1858 C1859 1.385 . S
C1858 C1860 1.478 . S
C1859 H1853 0.930 . S
C1859 C1855 1.400 . S
C1859 C1858 1.385 . S
C1860 C1858 1.478 . S
C1860 C1862 1.381 . S
C1860 C1866 1.383 . S
C1861 C1857 1.495 . S
C1861 H1867 0.959 . S
C1861 H1868 0.961 . S
C1861 H1869 0.960 . S
C1862 C1860 1.381 . S
C1862 C1863 1.394 . S
C1862 H1870 0.930 . S
C1863 C1862 1.394 . S
C1863 C1864 1.383 . S
C1863 H1871 0.929 . S
C1864 C1863 1.383 . S
C1864 C1865 1.377 . S
C1865 H1849 0.930 . S
C1865 C1864 1.377 . S
C1865 C1866 1.379 . S
C1866 H1850 0.931 . S
C1866 C1860 1.383 . S
C1866 C1865 1.379 . S
H1867 C1861 0.959 . S
H1868 C1861 0.961 . S
H1869 C1861 0.960 . S
H1870 C1862 0.930 . S
H1871 C1863 0.929 . S
H1872 C1880 0.929 . S
H1873 C1882 0.930 . S
H1874 C1884 0.930 . S
H1875 C1887 0.929 . S
H1876 C1890 0.930 . S
H1877 C1892 0.960 . S
H1878 C1892 0.960 . S
H1879 C1892 0.960 . S
C1880 H1872 0.929 . S
C1880 C1881 1.377 . S
C1880 C1882 1.384 . S
C1881 C1880 1.377 . S
C1881 C1887 1.390 . S
C1882 H1873 0.930 . S
C1882 C1880 1.384 . S
C1882 C1883 1.372 . S
C1883 C1882 1.372 . S
C1883 C1884 1.400 . S
C1883 C1888 1.490 . S
C1884 H1874 0.930 . S
C1884 C1883 1.400 . S
C1884 C1887 1.386 . S
H1885 C1901 0.930 . S
H1886 C1902 0.931 . S
C1887 H1875 0.929 . S
C1887 C1881 1.390 . S
C1887 C1884 1.386 . S
C1888 C1883 1.490 . S
C1888 C1890 1.395 . S
C1888 C1891 1.403 . S
H1889 C1895 0.930 . S
C1890 H1876 0.930 . S
C1890 C1888 1.395 . S
C1890 C1893 1.403 . S
C1891 C1888 1.403 . S
C1891 C1892 1.524 . S
C1891 C1895 1.400 . S
C1892 H1877 0.960 . S
C1892 H1878 0.960 . S
C1892 H1879 0.960 . S
C1892 C1891 1.524 . S
C1893 C1890 1.403 . S
C1893 C1894 1.392 . S
C1893 C1897 1.495 . S
C1894 C1893 1.392 . S
C1894 C1895 1.385 . S
C1894 C1896 1.478 . S
C1895 H1889 0.930 . S
C1895 C1891 1.400 . S
C1895 C1894 1.385 . S
C1896 C1894 1.478 . S
C1896 C1898 1.381 . S
C1896 C1902 1.383 . S
C1897 C1893 1.495 . S
C1897 H1903 0.959 . S
C1897 H1904 0.961 . S
C1897 H1905 0.960 . S
C1898 C1896 1.381 . S
C1898 C1899 1.394 . S
C1898 H1906 0.930 . S
C1899 C1898 1.394 . S
C1899 C1900 1.383 . S
C1899 H1907 0.929 . S
C1900 C1899 1.383 . S
C1900 C1901 1.377 . S
C1901 H1885 0.930 . S
C1901 C1900 1.377 . S
C1901 C1902 1.379 . S
C1902 H1886 0.931 . S
C1902 C1896 1.383 . S
C1902 C1901 1.379 . S
H1903 C1897 0.959 . S
H1904 C1897 0.961 . S
H1905 C1897 0.960 . S
H1906 C1898 0.930 . S
H1907 C1899 0.929 . S
H1908 C1916 0.929 . S
H1909 C1918 0.930 . S
H1910 C1920 0.880 1_565 S
H1911 C1923 0.929 . S
H1912 C1926 0.930 . S
H1913 C1928 0.960 . S
H1914 C1928 0.960 . S
H1915 C1928 0.960 . S
C1916 H1908 0.929 . S
C1916 C1917 1.377 . S
C1916 C1918 1.384 . S
C1917 C1916 1.377 . S
C1917 C1923 1.390 . S
C1918 H1909 0.930 . S
C1918 C1916 1.384 . S
C1918 C1919 1.372 . S
C1919 C1918 1.372 . S
C1919 C1920 1.400 . S
C1919 C1924 1.490 1_545 S
C1920 H1910 0.880 1_545 S
C1920 C1919 1.400 . S
C1920 C1923 1.386 . S
H1921 C1937 0.930 . S
H1922 C1938 0.931 . S
C1923 H1911 0.929 . S
C1923 C1917 1.390 . S
C1923 C1920 1.386 . S
C1924 C1919 1.490 1_565 S
C1924 C1926 1.395 . S
C1924 C1927 1.403 . S
H1925 C1931 0.930 . S
C1926 H1912 0.930 . S
C1926 C1924 1.395 . S
C1926 C1929 1.403 . S
C1927 C1924 1.403 . S
C1927 C1928 1.524 . S
C1927 C1931 1.400 . S
C1928 H1913 0.960 . S
C1928 H1914 0.960 . S
C1928 H1915 0.960 . S
C1928 C1927 1.524 . S
C1929 C1926 1.403 . S
C1929 C1930 1.392 . S
C1929 C1933 1.495 . S
C1930 C1929 1.392 . S
C1930 C1931 1.385 . S
C1930 C1932 1.478 . S
C1931 H1925 0.930 . S
C1931 C1927 1.400 . S
C1931 C1930 1.385 . S
C1932 C1930 1.478 . S
C1932 C1934 1.381 . S
C1932 C1938 1.383 . S
C1933 C1929 1.495 . S
C1933 H1939 0.959 . S
C1933 H1940 0.961 . S
C1933 H1941 0.960 . S
C1934 C1932 1.381 . S
C1934 C1935 1.394 . S
C1934 H1942 0.930 . S
C1935 C1934 1.394 . S
C1935 C1936 1.383 . S
C1935 H1943 0.929 . S
C1936 C1935 1.383 . S
C1936 C1937 1.377 . S
C1937 H1921 0.930 . S
C1937 C1936 1.377 . S
C1937 C1938 1.379 . S
C1938 H1922 0.931 . S
C1938 C1932 1.383 . S
C1938 C1937 1.379 . S
H1939 C1933 0.959 . S
H1940 C1933 0.961 . S
H1941 C1933 0.960 . S
H1942 C1934 0.930 . S
H1943 C1935 0.929 . S
H1944 C1952 0.929 . S
H1945 C1954 0.930 . S
H1946 C1956 0.930 . S
H1947 C1959 0.929 . S
H1948 C1962 0.930 . S
H1949 C1964 0.960 . S
H1950 C1964 0.960 . S
H1951 C1964 0.960 . S
C1952 H1944 0.929 . S
C1952 C1953 1.377 . S
C1952 C1954 1.384 . S
C1953 C1952 1.377 . S
C1953 C1959 1.390 . S
C1954 H1945 0.930 . S
C1954 C1952 1.384 . S
C1954 C1955 1.372 . S
C1955 C1954 1.372 . S
C1955 C1956 1.400 . S
C1955 C1960 1.490 . S
C1956 H1946 0.930 . S
C1956 C1955 1.400 . S
C1956 C1959 1.386 . S
H1957 C1973 0.930 . S
H1958 C1974 0.931 . S
C1959 H1947 0.929 . S
C1959 C1953 1.390 . S
C1959 C1956 1.386 . S
C1960 C1955 1.490 . S
C1960 C1962 1.395 . S
C1960 C1963 1.403 . S
H1961 C1967 0.930 . S
C1962 H1948 0.930 . S
C1962 C1960 1.395 . S
C1962 C1965 1.403 . S
C1963 C1960 1.403 . S
C1963 C1964 1.524 . S
C1963 C1967 1.400 . S
C1964 H1949 0.960 . S
C1964 H1950 0.960 . S
C1964 H1951 0.960 . S
C1964 C1963 1.524 . S
C1965 C1962 1.403 . S
C1965 C1966 1.392 . S
C1965 C1969 1.495 . S
C1966 C1965 1.392 . S
C1966 C1967 1.385 . S
C1966 C1968 1.478 . S
C1967 H1961 0.930 . S
C1967 C1963 1.400 . S
C1967 C1966 1.385 . S
C1968 C1966 1.478 . S
C1968 C1970 1.381 . S
C1968 C1974 1.383 . S
C1969 C1965 1.495 . S
C1969 H1975 0.959 . S
C1969 H1976 0.961 . S
C1969 H1977 0.960 . S
C1970 C1968 1.381 . S
C1970 C1971 1.394 . S
C1970 H1978 0.930 . S
C1971 C1970 1.394 . S
C1971 C1972 1.383 . S
C1971 H1979 0.929 . S
C1972 C1971 1.383 . S
C1972 C1973 1.377 . S
C1973 H1957 0.930 . S
C1973 C1972 1.377 . S
C1973 C1974 1.379 . S
C1974 H1958 0.931 . S
C1974 C1968 1.383 . S
C1974 C1973 1.379 . S
H1975 C1969 0.959 . S
H1976 C1969 0.961 . S
H1977 C1969 0.960 . S
H1978 C1970 0.930 . S
H1979 C1971 0.929 . S
H1980 C1988 0.929 . S
H1981 C1990 0.930 . S
H1982 C1992 0.930 . S
H1983 C1995 0.929 . S
H1984 C1998 0.930 . S
H1985 C2000 0.960 . S
H1986 C2000 0.960 . S
H1987 C2000 0.960 . S
C1988 H1980 0.929 . S
C1988 C1989 1.377 . S
C1988 C1990 1.384 . S
C1989 C1988 1.377 . S
C1989 C1995 1.390 . S
C1990 H1981 0.930 . S
C1990 C1988 1.384 . S
C1990 C1991 1.372 . S
C1991 C1990 1.372 . S
C1991 C1992 1.400 . S
C1991 C1996 1.490 . S
C1992 H1982 0.930 . S
C1992 C1991 1.400 . S
C1992 C1995 1.386 . S
H1993 C2009 0.930 . S
H1994 C2010 0.931 . S
C1995 H1983 0.929 . S
C1995 C1989 1.390 . S
C1995 C1992 1.386 . S
C1996 C1991 1.490 . S
C1996 C1998 1.395 . S
C1996 C1999 1.403 . S
H1997 C2003 0.930 . S
C1998 H1984 0.930 . S
C1998 C1996 1.395 . S
C1998 C2001 1.403 . S
C1999 C1996 1.403 . S
C1999 C2000 1.524 . S
C1999 C2003 1.400 . S
C2000 H1985 0.960 . S
C2000 H1986 0.960 . S
C2000 H1987 0.960 . S
C2000 C1999 1.524 . S
C2001 C1998 1.403 . S
C2001 C2002 1.392 . S
C2001 C2005 1.495 . S
C2002 C2001 1.392 . S
C2002 C2003 1.385 . S
C2002 C2004 1.478 . S
C2003 H1997 0.930 . S
C2003 C1999 1.400 . S
C2003 C2002 1.385 . S
C2004 C2002 1.478 . S
C2004 C2006 1.381 . S
C2004 C2010 1.383 . S
C2005 C2001 1.495 . S
C2005 H2011 0.959 . S
C2005 H2012 0.961 . S
C2005 H2013 0.960 . S
C2006 C2004 1.381 . S
C2006 C2007 1.394 . S
C2006 H2014 0.930 . S
C2007 C2006 1.394 . S
C2007 C2008 1.383 . S
C2007 H2015 0.929 . S
C2008 C2007 1.383 . S
C2008 C2009 1.377 . S
C2009 H1993 0.930 . S
C2009 C2008 1.377 . S
C2009 C2010 1.379 . S
C2010 H1994 0.931 . S
C2010 C2004 1.383 . S
C2010 C2009 1.379 . S
H2011 C2005 0.959 . S
H2012 C2005 0.961 . S
H2013 C2005 0.960 . S
H2014 C2006 0.930 . S
H2015 C2007 0.929 . S
H2016 C2024 0.929 . S
H2017 C2026 0.930 . S
H2018 C2028 0.930 . S
H2019 C2031 0.929 . S
H2020 C2034 0.930 . S
H2021 C2036 0.960 . S
H2022 C2036 0.960 . S
H2023 C2036 0.960 . S
C2024 H2016 0.929 . S
C2024 C2025 1.377 . S
C2024 C2026 1.384 . S
C2025 C2024 1.377 . S
C2025 C2031 1.390 . S
C2026 H2017 0.930 . S
C2026 C2024 1.384 . S
C2026 C2027 1.372 . S
C2027 C2026 1.372 . S
C2027 C2028 1.400 . S
C2027 C2032 1.490 . S
C2028 H2018 0.930 . S
C2028 C2027 1.400 . S
C2028 C2031 1.386 . S
H2029 C2045 0.930 . S
H2030 C2046 0.931 . S
C2031 H2019 0.929 . S
C2031 C2025 1.390 . S
C2031 C2028 1.386 . S
C2032 C2027 1.490 . S
C2032 C2034 1.395 . S
C2032 C2035 1.403 . S
H2033 C2039 0.930 . S
C2034 H2020 0.930 . S
C2034 C2032 1.395 . S
C2034 C2037 1.403 . S
C2035 C2032 1.403 . S
C2035 C2036 1.524 . S
C2035 C2039 1.400 . S
C2036 H2021 0.960 . S
C2036 H2022 0.960 . S
C2036 H2023 0.960 . S
C2036 C2035 1.524 . S
C2037 C2034 1.403 . S
C2037 C2038 1.392 . S
C2037 C2041 1.495 . S
C2038 C2037 1.392 . S
C2038 C2039 1.385 . S
C2038 C2040 1.478 . S
C2039 H2033 0.930 . S
C2039 C2035 1.400 . S
C2039 C2038 1.385 . S
C2040 C2038 1.478 . S
C2040 C2042 1.381 . S
C2040 C2046 1.383 . S
C2041 C2037 1.495 . S
C2041 H2047 0.959 . S
C2041 H2048 0.961 . S
C2041 H2049 0.960 . S
C2042 C2040 1.381 . S
C2042 C2043 1.394 . S
C2042 H2050 0.930 . S
C2043 C2042 1.394 . S
C2043 C2044 1.383 . S
C2043 H2051 0.929 . S
C2044 C2043 1.383 . S
C2044 C2045 1.377 . S
C2045 H2029 0.930 . S
C2045 C2044 1.377 . S
C2045 C2046 1.379 . S
C2046 H2030 0.931 . S
C2046 C2040 1.383 . S
C2046 C2045 1.379 . S
H2047 C2041 0.959 . S
H2048 C2041 0.961 . S
H2049 C2041 0.960 . S
H2050 C2042 0.930 . S
H2051 C2043 0.929 . S
H2052 C2060 0.929 . S
H2053 C2062 0.930 . S
H2054 C2064 0.930 . S
H2055 C2067 0.929 . S
H2056 C2070 0.930 . S
H2057 C2072 0.960 . S
H2058 C2072 0.960 . S
H2059 C2072 0.960 . S
C2060 H2052 0.929 . S
C2060 C2061 1.377 . S
C2060 C2062 1.384 . S
C2061 C2060 1.377 . S
C2061 C2067 1.390 . S
C2062 H2053 0.930 . S
C2062 C2060 1.384 . S
C2062 C2063 1.372 . S
C2063 C2062 1.372 . S
C2063 C2064 1.400 . S
C2063 C2068 1.490 . S
C2064 H2054 0.930 . S
C2064 C2063 1.400 . S
C2064 C2067 1.386 . S
H2065 C2081 0.930 . S
H2066 C2082 0.931 . S
C2067 H2055 0.929 . S
C2067 C2061 1.390 . S
C2067 C2064 1.386 . S
C2068 C2063 1.490 . S
C2068 C2070 1.395 . S
C2068 C2071 1.403 . S
H2069 C2075 0.930 . S
C2070 H2056 0.930 . S
C2070 C2068 1.395 . S
C2070 C2073 1.403 . S
C2071 C2068 1.403 . S
C2071 C2072 1.524 . S
C2071 C2075 1.400 . S
C2072 H2057 0.960 . S
C2072 H2058 0.960 . S
C2072 H2059 0.960 . S
C2072 C2071 1.524 . S
C2073 C2070 1.403 . S
C2073 C2074 1.392 . S
C2073 C2077 1.495 . S
C2074 C2073 1.392 . S
C2074 C2075 1.385 . S
C2074 C2076 1.478 . S
C2075 H2069 0.930 . S
C2075 C2071 1.400 . S
C2075 C2074 1.385 . S
C2076 C2074 1.478 . S
C2076 C2078 1.381 . S
C2076 C2082 1.383 . S
C2077 C2073 1.495 . S
C2077 H2083 0.959 . S
C2077 H2084 0.961 . S
C2077 H2085 0.960 . S
C2078 C2076 1.381 . S
C2078 C2079 1.394 . S
C2078 H2086 0.930 . S
C2079 C2078 1.394 . S
C2079 C2080 1.383 . S
C2079 H2087 0.929 . S
C2080 C2079 1.383 . S
C2080 C2081 1.377 . S
C2081 H2065 0.930 . S
C2081 C2080 1.377 . S
C2081 C2082 1.379 . S
C2082 H2066 0.931 . S
C2082 C2076 1.383 . S
C2082 C2081 1.379 . S
H2083 C2077 0.959 . S
H2084 C2077 0.961 . S
H2085 C2077 0.960 . S
H2086 C2078 0.930 . S
H2087 C2079 0.929 . S
H2088 C2096 0.929 . S
H2089 C2098 0.930 . S
H2090 C2100 0.930 . S
H2091 C2103 0.929 . S
H2092 C2106 0.930 . S
H2093 C2108 0.960 . S
H2094 C2108 0.960 . S
H2095 C2108 0.960 . S
C2096 H2088 0.929 . S
C2096 C2097 1.377 . S
C2096 C2098 1.384 . S
C2097 C2096 1.377 . S
C2097 C2103 1.390 . S
C2098 H2089 0.930 . S
C2098 C2096 1.384 . S
C2098 C2099 1.372 . S
C2099 C2098 1.372 . S
C2099 C2100 1.400 . S
C2099 C2104 1.490 . S
C2100 H2090 0.930 . S
C2100 C2099 1.400 . S
C2100 C2103 1.386 . S
H2101 C2117 0.930 . S
H2102 C2118 0.931 . S
C2103 H2091 0.929 . S
C2103 C2097 1.390 . S
C2103 C2100 1.386 . S
C2104 C2099 1.490 . S
C2104 C2106 1.395 . S
C2104 C2107 1.403 . S
H2105 C2111 0.930 . S
C2106 H2092 0.930 . S
C2106 C2104 1.395 . S
C2106 C2109 1.403 . S
C2107 C2104 1.403 . S
C2107 C2108 1.524 . S
C2107 C2111 1.400 . S
C2108 H2093 0.960 . S
C2108 H2094 0.960 . S
C2108 H2095 0.960 . S
C2108 C2107 1.524 . S
C2109 C2106 1.403 . S
C2109 C2110 1.392 . S
C2109 C2113 1.495 . S
C2110 C2109 1.392 . S
C2110 C2111 1.385 . S
C2110 C2112 1.478 . S
C2111 H2105 0.930 . S
C2111 C2107 1.400 . S
C2111 C2110 1.385 . S
C2112 C2110 1.478 . S
C2112 C2114 1.381 . S
C2112 C2118 1.383 . S
C2113 C2109 1.495 . S
C2113 H2119 0.959 . S
C2113 H2120 0.961 . S
C2113 H2121 0.960 . S
C2114 C2112 1.381 . S
C2114 C2115 1.394 . S
C2114 H2122 0.930 . S
C2115 C2114 1.394 . S
C2115 C2116 1.383 . S
C2115 H2123 0.929 . S
C2116 C2115 1.383 . S
C2116 C2117 1.377 . S
C2117 H2101 0.930 . S
C2117 C2116 1.377 . S
C2117 C2118 1.379 . S
C2118 H2102 0.931 . S
C2118 C2112 1.383 . S
C2118 C2117 1.379 . S
H2119 C2113 0.959 . S
H2120 C2113 0.961 . S
H2121 C2113 0.960 . S
H2122 C2114 0.930 . S
H2123 C2115 0.929 . S
H2124 C2132 0.929 . S
H2125 C2134 0.930 . S
H2126 C2136 0.930 . S
H2127 C2139 0.929 . S
H2128 C2142 0.930 . S
H2129 C2144 0.960 . S
H2130 C2144 0.960 . S
H2131 C2144 0.960 . S
C2132 H2124 0.929 . S
C2132 C2133 1.377 . S
C2132 C2134 1.384 . S
C2133 C2132 1.377 . S
C2133 C2139 1.390 . S
C2134 H2125 0.930 . S
C2134 C2132 1.384 . S
C2134 C2135 1.372 . S
C2135 C2134 1.372 . S
C2135 C2136 1.400 . S
C2135 C2140 1.490 . S
C2136 H2126 0.930 . S
C2136 C2135 1.400 . S
C2136 C2139 1.386 . S
H2137 C2153 0.930 . S
H2138 C2154 0.931 . S
C2139 H2127 0.929 . S
C2139 C2133 1.390 . S
C2139 C2136 1.386 . S
C2140 C2135 1.490 . S
C2140 C2142 1.395 . S
C2140 C2143 1.403 . S
H2141 C2147 0.930 . S
C2142 H2128 0.930 . S
C2142 C2140 1.395 . S
C2142 C2145 1.403 . S
C2143 C2140 1.403 . S
C2143 C2144 1.524 . S
C2143 C2147 1.400 . S
C2144 H2129 0.960 . S
C2144 H2130 0.960 . S
C2144 H2131 0.960 . S
C2144 C2143 1.524 . S
C2145 C2142 1.403 . S
C2145 C2146 1.392 . S
C2145 C2149 1.495 . S
C2146 C2145 1.392 . S
C2146 C2147 1.385 . S
C2146 C2148 1.478 . S
C2147 H2141 0.930 . S
C2147 C2143 1.400 . S
C2147 C2146 1.385 . S
C2148 C2146 1.478 . S
C2148 C2150 1.381 . S
C2148 C2154 1.383 . S
C2149 C2145 1.495 . S
C2149 H2155 0.959 . S
C2149 H2156 0.961 . S
C2149 H2157 0.960 . S
C2150 C2148 1.381 . S
C2150 C2151 1.394 . S
C2150 H2158 0.930 . S
C2151 C2150 1.394 . S
C2151 C2152 1.383 . S
C2151 H2159 0.929 . S
C2152 C2151 1.383 . S
C2152 C2153 1.377 . S
C2153 H2137 0.930 . S
C2153 C2152 1.377 . S
C2153 C2154 1.379 . S
C2154 H2138 0.931 . S
C2154 C2148 1.383 . S
C2154 C2153 1.379 . S
H2155 C2149 0.959 . S
H2156 C2149 0.961 . S
H2157 C2149 0.960 . S
H2158 C2150 0.930 . S
H2159 C2151 0.929 . S
H2160 C2168 0.929 . S
H2161 C2170 0.930 1_565 S
H2162 C2172 0.930 . S
H2163 C2175 0.929 . S
H2164 C2178 0.930 . S
H2165 C2180 0.960 . S
H2166 C2180 0.960 . S
H2167 C2180 0.960 . S
C2168 H2160 0.929 . S
C2168 C2169 1.377 . S
C2168 C2170 1.384 . S
C2169 C2168 1.377 . S
C2169 C2175 1.390 . S
C2170 H2161 0.930 1_545 S
C2170 C2168 1.384 . S
C2170 C2171 1.361 1_545 S
C2171 C2170 1.361 1_565 S
C2171 C2172 1.376 1_565 S
C2171 C2176 1.525 . S
C2172 H2162 0.930 . S
C2172 C2171 1.376 1_545 S
C2172 C2175 1.386 . S
H2173 C2189 0.930 . S
H2174 C2190 0.931 . S
C2175 H2163 0.929 . S
C2175 C2169 1.390 . S
C2175 C2172 1.386 . S
C2176 C2171 1.525 . S
C2176 C2178 1.395 . S
C2176 C2179 1.403 . S
H2177 C2183 0.930 . S
C2178 H2164 0.930 . S
C2178 C2176 1.395 . S
C2178 C2181 1.403 . S
C2179 C2176 1.403 . S
C2179 C2180 1.524 . S
C2179 C2183 1.400 . S
C2180 H2165 0.960 . S
C2180 H2166 0.960 . S
C2180 H2167 0.960 . S
C2180 C2179 1.524 . S
C2181 C2178 1.403 . S
C2181 C2182 1.392 . S
C2181 C2185 1.495 . S
C2182 C2181 1.392 . S
C2182 C2183 1.385 . S
C2182 C2184 1.478 . S
C2183 H2177 0.930 . S
C2183 C2179 1.400 . S
C2183 C2182 1.385 . S
C2184 C2182 1.478 . S
C2184 C2186 1.381 . S
C2184 C2190 1.383 . S
C2185 C2181 1.495 . S
C2185 H2191 0.959 . S
C2185 H2192 0.961 . S
C2185 H2193 0.960 . S
C2186 C2184 1.381 . S
C2186 C2187 1.394 . S
C2186 H2194 0.930 . S
C2187 C2186 1.394 . S
C2187 C2188 1.383 . S
C2187 H2195 0.929 . S
C2188 C2187 1.383 . S
C2188 C2189 1.377 . S
C2189 H2173 0.930 . S
C2189 C2188 1.377 . S
C2189 C2190 1.379 . S
C2190 H2174 0.931 . S
C2190 C2184 1.383 . S
C2190 C2189 1.379 . S
H2191 C2185 0.959 . S
H2192 C2185 0.961 . S
H2193 C2185 0.960 . S
H2194 C2186 0.930 . S
H2195 C2187 0.929 . S
H2196 C2204 0.929 . S
H2197 C2206 0.930 . S
H2198 C2208 0.930 . S
H2199 C2211 0.929 . S
H2200 C2214 0.930 . S
H2201 C2216 0.960 . S
H2202 C2216 0.960 . S
H2203 C2216 0.960 . S
C2204 H2196 0.929 . S
C2204 C2205 1.377 . S
C2204 C2206 1.384 . S
C2205 C2204 1.377 . S
C2205 C2211 1.390 . S
C2206 H2197 0.930 . S
C2206 C2204 1.384 . S
C2206 C2207 1.372 1_655 S
C2207 C2206 1.372 1_455 S
C2207 C2208 1.400 . S
C2207 C2212 1.490 . S
C2208 H2198 0.930 . S
C2208 C2207 1.400 . S
C2208 C2211 1.386 1_455 S
H2209 C2225 0.930 . S
H2210 C2226 0.931 . S
C2211 H2199 0.929 . S
C2211 C2205 1.390 . S
C2211 C2208 1.386 1_655 S
C2212 C2207 1.490 . S
C2212 C2214 1.395 . S
C2212 C2215 1.403 . S
H2213 C2219 0.930 . S
C2214 H2200 0.930 . S
C2214 C2212 1.395 . S
C2214 C2217 1.403 . S
C2215 C2212 1.403 . S
C2215 C2216 1.524 . S
C2215 C2219 1.400 . S
C2216 H2201 0.960 . S
C2216 H2202 0.960 . S
C2216 H2203 0.960 . S
C2216 C2215 1.524 . S
C2217 C2214 1.403 . S
C2217 C2218 1.392 . S
C2217 C2221 1.495 . S
C2218 C2217 1.392 . S
C2218 C2219 1.385 . S
C2218 C2220 1.478 . S
C2219 H2213 0.930 . S
C2219 C2215 1.400 . S
C2219 C2218 1.385 . S
C2220 C2218 1.478 . S
C2220 C2222 1.381 . S
C2220 C2226 1.383 . S
C2221 C2217 1.495 . S
C2221 H2227 0.959 . S
C2221 H2228 0.961 . S
C2221 H2229 0.960 . S
C2222 C2220 1.381 . S
C2222 C2223 1.394 . S
C2222 H2230 0.930 . S
C2223 C2222 1.394 . S
C2223 C2224 1.383 . S
C2223 H2231 0.929 . S
C2224 C2223 1.383 . S
C2224 C2225 1.377 . S
C2225 H2209 0.930 . S
C2225 C2224 1.377 . S
C2225 C2226 1.379 . S
C2226 H2210 0.931 . S
C2226 C2220 1.383 . S
C2226 C2225 1.379 . S
H2227 C2221 0.959 . S
H2228 C2221 0.961 . S
H2229 C2221 0.960 . S
H2230 C2222 0.930 . S
H2231 C2223 0.929 . S
H2232 C2240 0.929 . S
H2233 C2242 0.930 . S
H2234 C2244 0.930 . S
H2235 C2247 0.929 . S
H2236 C2250 0.930 . S
H2237 C2252 0.960 . S
H2238 C2252 0.960 . S
H2239 C2252 0.960 . S
C2240 H2232 0.929 . S
C2240 C2241 1.377 . S
C2240 C2242 1.384 . S
C2241 C2240 1.377 . S
C2241 C2247 1.390 . S
C2242 H2233 0.930 . S
C2242 C2240 1.384 . S
C2242 C2243 1.372 . S
C2243 C2242 1.372 . S
C2243 C2244 1.400 . S
C2243 C2248 1.490 . S
C2244 H2234 0.930 . S
C2244 C2243 1.400 . S
C2244 C2247 1.386 . S
H2245 C2261 0.930 . S
H2246 C2262 0.931 . S
C2247 H2235 0.929 . S
C2247 C2241 1.390 . S
C2247 C2244 1.386 . S
C2248 C2243 1.490 . S
C2248 C2250 1.395 . S
C2248 C2251 1.403 . S
H2249 C2255 0.930 . S
C2250 H2236 0.930 . S
C2250 C2248 1.395 . S
C2250 C2253 1.403 . S
C2251 C2248 1.403 . S
C2251 C2252 1.524 . S
C2251 C2255 1.400 . S
C2252 H2237 0.960 . S
C2252 H2238 0.960 . S
C2252 H2239 0.960 . S
C2252 C2251 1.524 . S
C2253 C2250 1.403 . S
C2253 C2254 1.392 . S
C2253 C2257 1.495 . S
C2254 C2253 1.392 . S
C2254 C2255 1.385 . S
C2254 C2256 1.478 . S
C2255 H2249 0.930 . S
C2255 C2251 1.400 . S
C2255 C2254 1.385 . S
C2256 C2254 1.478 . S
C2256 C2258 1.381 . S
C2256 C2262 1.383 . S
C2257 C2253 1.495 . S
C2257 H2263 0.959 . S
C2257 H2264 0.961 . S
C2257 H2265 0.960 . S
C2258 C2256 1.381 . S
C2258 C2259 1.394 . S
C2258 H2266 0.930 . S
C2259 C2258 1.394 . S
C2259 C2260 1.383 . S
C2259 H2267 0.929 . S
C2260 C2259 1.383 . S
C2260 C2261 1.377 . S
C2261 H2245 0.930 . S
C2261 C2260 1.377 . S
C2261 C2262 1.379 . S
C2262 H2246 0.931 . S
C2262 C2256 1.383 . S
C2262 C2261 1.379 . S
H2263 C2257 0.959 . S
H2264 C2257 0.961 . S
H2265 C2257 0.960 . S
H2266 C2258 0.930 . S
H2267 C2259 0.929 . S
H2268 C2276 0.929 . S
H2269 C2278 0.930 . S
H2270 C2280 0.930 . S
H2271 C2283 0.929 . S
H2272 C2286 0.930 . S
H2273 C2288 0.960 . S
H2274 C2288 0.960 . S
H2275 C2288 0.960 . S
C2276 H2268 0.929 . S
C2276 C2277 1.377 . S
C2276 C2278 1.384 . S
C2277 C2276 1.377 . S
C2277 C2283 1.390 . S
C2278 H2269 0.930 . S
C2278 C2276 1.384 . S
C2278 C2279 1.372 . S
C2279 C2278 1.372 . S
C2279 C2280 1.400 . S
C2279 C2284 1.490 . S
C2280 H2270 0.930 . S
C2280 C2279 1.400 . S
C2280 C2283 1.386 . S
H2281 C2297 0.930 . S
H2282 C2298 0.931 . S
C2283 H2271 0.929 . S
C2283 C2277 1.390 . S
C2283 C2280 1.386 . S
C2284 C2279 1.490 . S
C2284 C2286 1.395 . S
C2284 C2287 1.403 . S
H2285 C2291 0.930 . S
C2286 H2272 0.930 . S
C2286 C2284 1.395 . S
C2286 C2289 1.403 . S
C2287 C2284 1.403 . S
C2287 C2288 1.524 . S
C2287 C2291 1.400 . S
C2288 H2273 0.960 . S
C2288 H2274 0.960 . S
C2288 H2275 0.960 . S
C2288 C2287 1.524 . S
C2289 C2286 1.403 . S
C2289 C2290 1.392 . S
C2289 C2293 1.495 . S
C2290 C2289 1.392 . S
C2290 C2291 1.385 . S
C2290 C2292 1.478 . S
C2291 H2285 0.930 . S
C2291 C2287 1.400 . S
C2291 C2290 1.385 . S
C2292 C2290 1.478 . S
C2292 C2294 1.381 . S
C2292 C2298 1.383 . S
C2293 C2289 1.495 . S
C2293 H2299 0.959 . S
C2293 H2300 0.961 . S
C2293 H2301 0.960 . S
C2294 C2292 1.381 . S
C2294 C2295 1.394 . S
C2294 H2302 0.930 . S
C2295 C2294 1.394 . S
C2295 C2296 1.383 . S
C2295 H2303 0.929 . S
C2296 C2295 1.383 . S
C2296 C2297 1.377 . S
C2297 H2281 0.930 . S
C2297 C2296 1.377 . S
C2297 C2298 1.379 . S
C2298 H2282 0.931 . S
C2298 C2292 1.383 . S
C2298 C2297 1.379 . S
H2299 C2293 0.959 . S
H2300 C2293 0.961 . S
H2301 C2293 0.960 . S
H2302 C2294 0.930 . S
H2303 C2295 0.929 . S
H2304 C2312 0.929 . S
H2305 C2314 0.930 . S
H2306 C2316 0.930 . S
H2307 C2319 0.929 . S
H2308 C2322 0.930 . S
H2309 C2324 0.960 . S
H2310 C2324 0.960 . S
H2311 C2324 0.960 . S
C2312 H2304 0.929 . S
C2312 C2313 1.377 . S
C2312 C2314 1.384 . S
C2313 C2312 1.377 . S
C2313 C2319 1.390 . S
C2314 H2305 0.930 . S
C2314 C2312 1.384 . S
C2314 C2315 1.372 . S
C2315 C2314 1.372 . S
C2315 C2316 1.400 . S
C2315 C2320 1.490 . S
C2316 H2306 0.930 . S
C2316 C2315 1.400 . S
C2316 C2319 1.386 . S
H2317 C2333 0.930 . S
H2318 C2334 0.931 . S
C2319 H2307 0.929 . S
C2319 C2313 1.390 . S
C2319 C2316 1.386 . S
C2320 C2315 1.490 . S
C2320 C2322 1.395 . S
C2320 C2323 1.403 . S
H2321 C2327 0.930 . S
C2322 H2308 0.930 . S
C2322 C2320 1.395 . S
C2322 C2325 1.403 . S
C2323 C2320 1.403 . S
C2323 C2324 1.524 . S
C2323 C2327 1.400 . S
C2324 H2309 0.960 . S
C2324 H2310 0.960 . S
C2324 H2311 0.960 . S
C2324 C2323 1.524 . S
C2325 C2322 1.403 . S
C2325 C2326 1.392 . S
C2325 C2329 1.495 . S
C2326 C2325 1.392 . S
C2326 C2327 1.385 . S
C2326 C2328 1.478 . S
C2327 H2321 0.930 . S
C2327 C2323 1.400 . S
C2327 C2326 1.385 . S
C2328 C2326 1.478 . S
C2328 C2330 1.381 . S
C2328 C2334 1.383 . S
C2329 C2325 1.495 . S
C2329 H2335 0.959 . S
C2329 H2336 0.961 . S
C2329 H2337 0.960 . S
C2330 C2328 1.381 . S
C2330 C2331 1.394 . S
C2330 H2338 0.930 . S
C2331 C2330 1.394 . S
C2331 C2332 1.383 . S
C2331 H2339 0.929 . S
C2332 C2331 1.383 . S
C2332 C2333 1.377 . S
C2333 H2317 0.930 . S
C2333 C2332 1.377 . S
C2333 C2334 1.379 . S
C2334 H2318 0.931 . S
C2334 C2328 1.383 . S
C2334 C2333 1.379 . S
H2335 C2329 0.959 . S
H2336 C2329 0.961 . S
H2337 C2329 0.960 . S
H2338 C2330 0.930 . S
H2339 C2331 0.929 . S
H2340 C2348 0.929 . S
H2341 C2350 0.930 . S
H2342 C2352 0.930 . S
H2343 C2355 0.929 . S
H2344 C2358 0.930 . S
H2345 C2360 0.960 . S
H2346 C2360 0.960 . S
H2347 C2360 0.960 . S
C2348 H2340 0.929 . S
C2348 C2349 1.377 . S
C2348 C2350 1.384 . S
C2349 C2348 1.377 . S
C2349 C2355 1.390 . S
C2350 H2341 0.930 . S
C2350 C2348 1.384 . S
C2350 C2351 1.372 . S
C2351 C2350 1.372 . S
C2351 C2352 1.400 . S
C2351 C2356 1.490 . S
C2352 H2342 0.930 . S
C2352 C2351 1.400 . S
C2352 C2355 1.386 . S
H2353 C2369 0.930 . S
H2354 C2370 0.931 . S
C2355 H2343 0.929 . S
C2355 C2349 1.390 . S
C2355 C2352 1.386 . S
C2356 C2351 1.490 . S
C2356 C2358 1.395 . S
C2356 C2359 1.403 . S
H2357 C2363 0.930 . S
C2358 H2344 0.930 . S
C2358 C2356 1.395 . S
C2358 C2361 1.403 . S
C2359 C2356 1.403 . S
C2359 C2360 1.524 . S
C2359 C2363 1.400 . S
C2360 H2345 0.960 . S
C2360 H2346 0.960 . S
C2360 H2347 0.960 . S
C2360 C2359 1.524 . S
C2361 C2358 1.403 . S
C2361 C2362 1.392 . S
C2361 C2365 1.495 . S
C2362 C2361 1.392 . S
C2362 C2363 1.385 . S
C2362 C2364 1.478 . S
C2363 H2357 0.930 . S
C2363 C2359 1.400 . S
C2363 C2362 1.385 . S
C2364 C2362 1.478 . S
C2364 C2366 1.381 . S
C2364 C2370 1.383 . S
C2365 C2361 1.495 . S
C2365 H2371 0.959 . S
C2365 H2372 0.961 . S
C2365 H2373 0.960 . S
C2366 C2364 1.381 . S
C2366 C2367 1.394 . S
C2366 H2374 0.930 . S
C2367 C2366 1.394 . S
C2367 C2368 1.383 . S
C2367 H2375 0.929 . S
C2368 C2367 1.383 . S
C2368 C2369 1.377 . S
C2369 H2353 0.930 . S
C2369 C2368 1.377 . S
C2369 C2370 1.379 . S
C2370 H2354 0.931 . S
C2370 C2364 1.383 . S
C2370 C2369 1.379 . S
H2371 C2365 0.959 . S
H2372 C2365 0.961 . S
H2373 C2365 0.960 . S
H2374 C2366 0.930 . S
H2375 C2367 0.929 . S
H2376 C2384 0.929 . S
H2377 C2386 0.929 1_545 S
H2378 C2388 0.930 . S
H2379 C2391 0.929 . S
H2380 C2394 0.930 . S
H2381 C2396 0.960 . S
H2382 C2396 0.960 . S
H2383 C2396 0.960 . S
C2384 H2376 0.929 . S
C2384 C2385 1.377 . S
C2384 C2386 1.385 . S
C2385 C2384 1.377 . S
C2385 C2391 1.390 . S
C2386 H2377 0.929 1_565 S
C2386 C2384 1.385 . S
C2386 C2387 1.372 1_565 S
C2387 C2386 1.372 1_545 S
C2387 C2388 1.400 1_545 S
C2387 C2392 1.490 . S
C2388 H2378 0.930 . S
C2388 C2387 1.400 1_565 S
C2388 C2391 1.386 . S
H2389 C2405 0.930 . S
H2390 C2406 0.931 . S
C2391 H2379 0.929 . S
C2391 C2385 1.390 . S
C2391 C2388 1.386 . S
C2392 C2387 1.490 . S
C2392 C2394 1.395 . S
C2392 C2395 1.403 . S
H2393 C2399 0.930 . S
C2394 H2380 0.930 . S
C2394 C2392 1.395 . S
C2394 C2397 1.403 . S
C2395 C2392 1.403 . S
C2395 C2396 1.524 . S
C2395 C2399 1.400 . S
C2396 H2381 0.960 . S
C2396 H2382 0.960 . S
C2396 H2383 0.960 . S
C2396 C2395 1.524 . S
C2397 C2394 1.403 . S
C2397 C2398 1.392 . S
C2397 C2401 1.495 . S
C2398 C2397 1.392 . S
C2398 C2399 1.385 . S
C2398 C2400 1.478 . S
C2399 H2393 0.930 . S
C2399 C2395 1.400 . S
C2399 C2398 1.385 . S
C2400 C2398 1.478 . S
C2400 C2402 1.381 . S
C2400 C2406 1.383 . S
C2401 C2397 1.495 . S
C2401 H2407 0.959 . S
C2401 H2408 0.961 . S
C2401 H2409 0.960 . S
C2402 C2400 1.381 . S
C2402 C2403 1.394 . S
C2402 H2410 0.930 . S
C2403 C2402 1.394 . S
C2403 C2404 1.383 . S
C2403 H2411 0.929 . S
C2404 C2403 1.383 . S
C2404 C2405 1.377 . S
C2405 H2389 0.930 . S
C2405 C2404 1.377 . S
C2405 C2406 1.379 . S
C2406 H2390 0.931 . S
C2406 C2400 1.383 . S
C2406 C2405 1.379 . S
H2407 C2401 0.959 . S
H2408 C2401 0.961 . S
H2409 C2401 0.960 . S
H2410 C2402 0.930 . S
H2411 C2403 0.929 . S
H2412 C2420 0.929 . S
H2413 C2422 0.930 . S
H2414 C2424 0.930 . S
H2415 C2427 0.929 . S
H2416 C2430 0.930 . S
H2417 C2432 0.960 . S
H2418 C2432 0.960 . S
H2419 C2432 0.960 . S
C2420 H2412 0.929 . S
C2420 C2421 1.377 . S
C2420 C2422 1.384 1_455 S
C2421 C2420 1.377 . S
C2421 C2427 1.390 . S
C2422 H2413 0.930 . S
C2422 C2420 1.384 1_655 S
C2422 C2423 1.372 . S
C2423 C2422 1.372 . S
C2423 C2424 1.400 1_655 S
C2423 C2428 1.490 . S
C2424 H2414 0.930 . S
C2424 C2423 1.400 1_455 S
C2424 C2427 1.386 . S
H2425 C2441 0.930 . S
H2426 C2442 0.931 . S
C2427 H2415 0.929 . S
C2427 C2421 1.390 . S
C2427 C2424 1.386 . S
C2428 C2423 1.490 . S
C2428 C2430 1.395 . S
C2428 C2431 1.403 . S
H2429 C2435 0.930 . S
C2430 H2416 0.930 . S
C2430 C2428 1.395 . S
C2430 C2433 1.403 . S
C2431 C2428 1.403 . S
C2431 C2432 1.524 . S
C2431 C2435 1.400 . S
C2432 H2417 0.960 . S
C2432 H2418 0.960 . S
C2432 H2419 0.960 . S
C2432 C2431 1.524 . S
C2433 C2430 1.403 . S
C2433 C2434 1.392 . S
C2433 C2437 1.495 . S
C2434 C2433 1.392 . S
C2434 C2435 1.385 . S
C2434 C2436 1.478 . S
C2435 H2429 0.930 . S
C2435 C2431 1.400 . S
C2435 C2434 1.385 . S
C2436 C2434 1.478 . S
C2436 C2438 1.381 . S
C2436 C2442 1.383 . S
C2437 C2433 1.495 . S
C2437 H2443 0.959 . S
C2437 H2444 0.961 . S
C2437 H2445 0.960 . S
C2438 C2436 1.381 . S
C2438 C2439 1.394 . S
C2438 H2446 0.930 . S
C2439 C2438 1.394 . S
C2439 C2440 1.383 . S
C2439 H2447 0.929 . S
C2440 C2439 1.383 . S
C2440 C2441 1.377 . S
C2441 H2425 0.930 . S
C2441 C2440 1.377 . S
C2441 C2442 1.379 . S
C2442 H2426 0.931 . S
C2442 C2436 1.383 . S
C2442 C2441 1.379 . S
H2443 C2437 0.959 . S
H2444 C2437 0.961 . S
H2445 C2437 0.960 . S
H2446 C2438 0.930 . S
H2447 C2439 0.929 . S
H2448 C2456 0.929 . S
H2449 C2458 0.930 . S
H2450 C2460 0.930 . S
H2451 C2463 0.929 . S
H2452 C2466 0.930 . S
H2453 C2468 0.960 . S
H2454 C2468 0.960 . S
H2455 C2468 0.960 . S
C2456 H2448 0.929 . S
C2456 C2457 1.377 . S
C2456 C2458 1.384 . S
C2457 C2456 1.377 . S
C2457 C2463 1.390 . S
C2458 H2449 0.930 . S
C2458 C2456 1.384 . S
C2458 C2459 1.372 . S
C2459 C2458 1.372 . S
C2459 C2460 1.400 . S
C2459 C2464 1.490 . S
C2460 H2450 0.930 . S
C2460 C2459 1.400 . S
C2460 C2463 1.386 . S
H2461 C2477 0.930 . S
H2462 C2478 0.931 . S
C2463 H2451 0.929 . S
C2463 C2457 1.390 . S
C2463 C2460 1.386 . S
C2464 C2459 1.490 . S
C2464 C2466 1.395 . S
C2464 C2467 1.403 . S
H2465 C2471 0.930 . S
C2466 H2452 0.930 . S
C2466 C2464 1.395 . S
C2466 C2469 1.403 . S
C2467 C2464 1.403 . S
C2467 C2468 1.524 . S
C2467 C2471 1.400 . S
C2468 H2453 0.960 . S
C2468 H2454 0.960 . S
C2468 H2455 0.960 . S
C2468 C2467 1.524 . S
C2469 C2466 1.403 . S
C2469 C2470 1.392 . S
C2469 C2473 1.495 . S
C2470 C2469 1.392 . S
C2470 C2471 1.385 . S
C2470 C2472 1.478 . S
C2471 H2465 0.930 . S
C2471 C2467 1.400 . S
C2471 C2470 1.385 . S
C2472 C2470 1.478 . S
C2472 C2474 1.381 . S
C2472 C2478 1.383 . S
C2473 C2469 1.495 . S
C2473 H2479 0.959 . S
C2473 H2480 0.961 . S
C2473 H2481 0.960 . S
C2474 C2472 1.381 . S
C2474 C2475 1.394 . S
C2474 H2482 0.930 . S
C2475 C2474 1.394 . S
C2475 C2476 1.383 . S
C2475 H2483 0.929 . S
C2476 C2475 1.383 . S
C2476 C2477 1.377 . S
C2477 H2461 0.930 . S
C2477 C2476 1.377 . S
C2477 C2478 1.379 . S
C2478 H2462 0.931 . S
C2478 C2472 1.383 . S
C2478 C2477 1.379 . S
H2479 C2473 0.959 . S
H2480 C2473 0.961 . S
H2481 C2473 0.960 . S
H2482 C2474 0.930 . S
H2483 C2475 0.929 . S
H2484 C2492 0.929 . S
H2485 C2494 0.930 1_655 S
H2486 C2496 0.930 . S
H2487 C2499 0.929 . S
H2488 C2502 0.930 . S
H2489 C2504 0.960 . S
H2490 C2504 0.960 . S
H2491 C2504 0.960 . S
C2492 H2484 0.929 . S
C2492 C2493 1.377 . S
C2492 C2494 1.384 . S
C2493 C2492 1.377 . S
C2493 C2499 1.390 . S
C2494 H2485 0.930 1_455 S
C2494 C2492 1.384 . S
C2494 C2495 1.372 1_455 S
C2495 C2494 1.372 1_655 S
C2495 C2496 1.400 1_655 S
C2495 C2500 1.490 . S
C2496 H2486 0.930 . S
C2496 C2495 1.400 1_455 S
C2496 C2499 1.386 . S
H2497 C2513 0.930 . S
H2498 C2514 0.931 . S
C2499 H2487 0.929 . S
C2499 C2493 1.390 . S
C2499 C2496 1.386 . S
C2500 C2495 1.490 . S
C2500 C2502 1.395 . S
C2500 C2503 1.403 . S
H2501 C2507 0.930 . S
C2502 H2488 0.930 . S
C2502 C2500 1.395 . S
C2502 C2505 1.403 . S
C2503 C2500 1.403 . S
C2503 C2504 1.524 . S
C2503 C2507 1.400 . S
C2504 H2489 0.960 . S
C2504 H2490 0.960 . S
C2504 H2491 0.960 . S
C2504 C2503 1.524 . S
C2505 C2502 1.403 . S
C2505 C2506 1.392 . S
C2505 C2509 1.495 . S
C2506 C2505 1.392 . S
C2506 C2507 1.385 . S
C2506 C2508 1.478 . S
C2507 H2501 0.930 . S
C2507 C2503 1.400 . S
C2507 C2506 1.385 . S
C2508 C2506 1.478 . S
C2508 C2510 1.381 . S
C2508 C2514 1.383 . S
C2509 C2505 1.495 . S
C2509 H2515 0.959 . S
C2509 H2516 0.961 . S
C2509 H2517 0.960 . S
C2510 C2508 1.381 . S
C2510 C2511 1.394 . S
C2510 H2518 0.930 . S
C2511 C2510 1.394 . S
C2511 C2512 1.383 . S
C2511 H2519 0.929 . S
C2512 C2511 1.383 . S
C2512 C2513 1.377 . S
C2513 H2497 0.930 . S
C2513 C2512 1.377 . S
C2513 C2514 1.379 . S
C2514 H2498 0.931 . S
C2514 C2508 1.383 . S
C2514 C2513 1.379 . S
H2515 C2509 0.959 . S
H2516 C2509 0.961 . S
H2517 C2509 0.960 . S
H2518 C2510 0.930 . S
H2519 C2511 0.929 . S
H2520 C2528 0.929 . S
H2521 C2530 0.930 . S
H2522 C2532 0.930 . S
H2523 C2535 0.929 . S
H2524 C2538 0.930 . S
H2525 C2540 0.960 . S
H2526 C2540 0.960 . S
H2527 C2540 0.960 . S
C2528 H2520 0.929 . S
C2528 C2529 1.377 . S
C2528 C2530 1.384 . S
C2529 C2528 1.377 . S
C2529 C2535 1.390 . S
C2530 H2521 0.930 . S
C2530 C2528 1.384 . S
C2530 C2531 1.372 . S
C2531 C2530 1.372 . S
C2531 C2532 1.400 . S
C2531 C2536 1.490 . S
C2532 H2522 0.930 . S
C2532 C2531 1.400 . S
C2532 C2535 1.386 . S
H2533 C2549 0.930 . S
H2534 C2550 0.931 . S
C2535 H2523 0.929 . S
C2535 C2529 1.390 . S
C2535 C2532 1.386 . S
C2536 C2531 1.490 . S
C2536 C2538 1.395 . S
C2536 C2539 1.403 . S
H2537 C2543 0.930 . S
C2538 H2524 0.930 . S
C2538 C2536 1.395 . S
C2538 C2541 1.403 . S
C2539 C2536 1.403 . S
C2539 C2540 1.524 . S
C2539 C2543 1.400 . S
C2540 H2525 0.960 . S
C2540 H2526 0.960 . S
C2540 H2527 0.960 . S
C2540 C2539 1.524 . S
C2541 C2538 1.403 . S
C2541 C2542 1.392 . S
C2541 C2545 1.495 . S
C2542 C2541 1.392 . S
C2542 C2543 1.385 . S
C2542 C2544 1.478 . S
C2543 H2537 0.930 . S
C2543 C2539 1.400 . S
C2543 C2542 1.385 . S
C2544 C2542 1.478 . S
C2544 C2546 1.381 . S
C2544 C2550 1.383 . S
C2545 C2541 1.495 . S
C2545 H2551 0.959 . S
C2545 H2552 0.961 . S
C2545 H2553 0.960 . S
C2546 C2544 1.381 . S
C2546 C2547 1.394 . S
C2546 H2554 0.930 . S
C2547 C2546 1.394 . S
C2547 C2548 1.383 . S
C2547 H2555 0.929 . S
C2548 C2547 1.383 . S
C2548 C2549 1.377 . S
C2549 H2533 0.930 . S
C2549 C2548 1.377 . S
C2549 C2550 1.379 . S
C2550 H2534 0.931 . S
C2550 C2544 1.383 . S
C2550 C2549 1.379 . S
H2551 C2545 0.959 . S
H2552 C2545 0.961 . S
H2553 C2545 0.960 . S
H2554 C2546 0.930 . S
H2555 C2547 0.929 . S
H2556 C2564 0.929 . S
H2557 C2566 0.930 . S
H2558 C2568 0.930 1_545 S
H2559 C2571 0.929 . S
H2560 C2574 0.930 . S
H2561 C2576 0.960 . S
H2562 C2576 0.960 . S
H2563 C2576 0.960 . S
C2564 H2556 0.929 . S
C2564 C2565 1.377 . S
C2564 C2566 1.384 . S
C2565 C2564 1.377 . S
C2565 C2571 1.390 . S
C2566 H2557 0.930 . S
C2566 C2564 1.384 . S
C2566 C2567 1.390 . S
C2567 C2566 1.390 . S
C2567 C2568 1.401 . S
C2567 C2572 1.471 1_565 S
C2568 H2558 0.930 1_565 S
C2568 C2567 1.401 . S
C2568 C2571 1.386 . S
H2569 C2585 0.930 . S
H2570 C2586 0.931 . S
C2571 H2559 0.929 . S
C2571 C2565 1.390 . S
C2571 C2568 1.386 . S
C2572 C2567 1.471 1_545 S
C2572 C2574 1.395 . S
C2572 C2575 1.403 . S
H2573 C2579 0.930 . S
C2574 H2560 0.930 . S
C2574 C2572 1.395 . S
C2574 C2577 1.403 . S
C2575 C2572 1.403 . S
C2575 C2576 1.524 . S
C2575 C2579 1.400 . S
C2576 H2561 0.960 . S
C2576 H2562 0.960 . S
C2576 H2563 0.960 . S
C2576 C2575 1.524 . S
C2577 C2574 1.403 . S
C2577 C2578 1.392 . S
C2577 C2581 1.495 . S
C2578 C2577 1.392 . S
C2578 C2579 1.385 . S
C2578 C2580 1.478 . S
C2579 H2573 0.930 . S
C2579 C2575 1.400 . S
C2579 C2578 1.385 . S
C2580 C2578 1.478 . S
C2580 C2582 1.381 . S
C2580 C2586 1.383 . S
C2581 C2577 1.495 . S
C2581 H2587 0.959 . S
C2581 H2588 0.961 . S
C2581 H2589 0.960 . S
C2582 C2580 1.381 . S
C2582 C2583 1.394 . S
C2582 H2590 0.930 . S
C2583 C2582 1.394 . S
C2583 C2584 1.383 . S
C2583 H2591 0.929 . S
C2584 C2583 1.383 . S
C2584 C2585 1.377 . S
C2585 H2569 0.930 . S
C2585 C2584 1.377 . S
C2585 C2586 1.379 . S
C2586 H2570 0.931 . S
C2586 C2580 1.383 . S
C2586 C2585 1.379 . S
H2587 C2581 0.959 . S
H2588 C2581 0.961 . S
H2589 C2581 0.960 . S
H2590 C2582 0.930 . S
H2591 C2583 0.929 . S
H2592 C2600 0.929 . S
H2593 C2602 0.930 . S
H2594 C2604 0.930 . S
H2595 C2607 0.929 . S
H2596 C2610 0.930 . S
H2597 C2612 0.960 . S
H2598 C2612 0.960 . S
H2599 C2612 0.960 . S
C2600 H2592 0.929 . S
C2600 C2601 1.377 . S
C2600 C2602 1.384 . S
C2601 C2600 1.377 . S
C2601 C2607 1.390 . S
C2602 H2593 0.930 . S
C2602 C2600 1.384 . S
C2602 C2603 1.372 . S
C2603 C2602 1.372 . S
C2603 C2604 1.400 . S
C2603 C2608 1.490 . S
C2604 H2594 0.930 . S
C2604 C2603 1.400 . S
C2604 C2607 1.386 . S
H2605 C2621 0.930 . S
H2606 C2622 0.931 . S
C2607 H2595 0.929 . S
C2607 C2601 1.390 . S
C2607 C2604 1.386 . S
C2608 C2603 1.490 . S
C2608 C2610 1.395 . S
C2608 C2611 1.403 . S
H2609 C2615 0.930 . S
C2610 H2596 0.930 . S
C2610 C2608 1.395 . S
C2610 C2613 1.403 . S
C2611 C2608 1.403 . S
C2611 C2612 1.524 . S
C2611 C2615 1.400 . S
C2612 H2597 0.960 . S
C2612 H2598 0.960 . S
C2612 H2599 0.960 . S
C2612 C2611 1.524 . S
C2613 C2610 1.403 . S
C2613 C2614 1.392 . S
C2613 C2617 1.495 . S
C2614 C2613 1.392 . S
C2614 C2615 1.385 . S
C2614 C2616 1.478 . S
C2615 H2609 0.930 . S
C2615 C2611 1.400 . S
C2615 C2614 1.385 . S
C2616 C2614 1.478 . S
C2616 C2618 1.381 . S
C2616 C2622 1.383 . S
C2617 C2613 1.495 . S
C2617 H2623 0.959 . S
C2617 H2624 0.961 . S
C2617 H2625 0.960 . S
C2618 C2616 1.381 . S
C2618 C2619 1.394 . S
C2618 H2626 0.930 . S
C2619 C2618 1.394 . S
C2619 C2620 1.383 . S
C2619 H2627 0.929 . S
C2620 C2619 1.383 . S
C2620 C2621 1.377 . S
C2621 H2605 0.930 . S
C2621 C2620 1.377 . S
C2621 C2622 1.379 . S
C2622 H2606 0.931 . S
C2622 C2616 1.383 . S
C2622 C2621 1.379 . S
H2623 C2617 0.959 . S
H2624 C2617 0.961 . S
H2625 C2617 0.960 . S
H2626 C2618 0.930 . S
H2627 C2619 0.929 . S
H2628 C2636 0.929 . S
H2629 C2638 0.930 . S
H2630 C2640 0.930 . S
H2631 C2643 0.929 . S
H2632 C2646 0.930 . S
H2633 C2648 0.960 . S
H2634 C2648 0.960 . S
H2635 C2648 0.960 . S
C2636 H2628 0.929 . S
C2636 C2637 1.377 . S
C2636 C2638 1.384 . S
C2637 C2636 1.377 . S
C2637 C2643 1.390 . S
C2638 H2629 0.930 . S
C2638 C2636 1.384 . S
C2638 C2639 1.372 . S
C2639 C2638 1.372 . S
C2639 C2640 1.400 . S
C2639 C2644 1.490 . S
C2640 H2630 0.930 . S
C2640 C2639 1.400 . S
C2640 C2643 1.386 . S
H2641 C2657 0.930 . S
H2642 C2658 0.931 . S
C2643 H2631 0.929 . S
C2643 C2637 1.390 . S
C2643 C2640 1.386 . S
C2644 C2639 1.490 . S
C2644 C2646 1.395 . S
C2644 C2647 1.403 . S
H2645 C2651 0.930 . S
C2646 H2632 0.930 . S
C2646 C2644 1.395 . S
C2646 C2649 1.403 . S
C2647 C2644 1.403 . S
C2647 C2648 1.524 . S
C2647 C2651 1.400 . S
C2648 H2633 0.960 . S
C2648 H2634 0.960 . S
C2648 H2635 0.960 . S
C2648 C2647 1.524 . S
C2649 C2646 1.403 . S
C2649 C2650 1.392 . S
C2649 C2653 1.495 . S
C2650 C2649 1.392 . S
C2650 C2651 1.385 . S
C2650 C2652 1.478 . S
C2651 H2645 0.930 . S
C2651 C2647 1.400 . S
C2651 C2650 1.385 . S
C2652 C2650 1.478 . S
C2652 C2654 1.381 . S
C2652 C2658 1.383 . S
C2653 C2649 1.495 . S
C2653 H2659 0.959 . S
C2653 H2660 0.961 . S
C2653 H2661 0.960 . S
C2654 C2652 1.381 . S
C2654 C2655 1.394 . S
C2654 H2662 0.930 . S
C2655 C2654 1.394 . S
C2655 C2656 1.383 . S
C2655 H2663 0.929 . S
C2656 C2655 1.383 . S
C2656 C2657 1.377 . S
C2657 H2641 0.930 . S
C2657 C2656 1.377 . S
C2657 C2658 1.379 . S
C2658 H2642 0.931 . S
C2658 C2652 1.383 . S
C2658 C2657 1.379 . S
H2659 C2653 0.959 . S
H2660 C2653 0.961 . S
H2661 C2653 0.960 . S
H2662 C2654 0.930 . S
H2663 C2655 0.929 . S
H2664 C2672 0.929 . S
H2665 C2674 0.930 . S
H2666 C2676 0.930 . S
H2667 C2679 0.929 . S
H2668 C2682 0.930 . S
H2669 C2684 0.960 . S
H2670 C2684 0.960 . S
H2671 C2684 0.960 . S
C2672 H2664 0.929 . S
C2672 C2673 1.377 . S
C2672 C2674 1.384 . S
C2673 C2672 1.377 . S
C2673 C2679 1.390 . S
C2674 H2665 0.930 . S
C2674 C2672 1.384 . S
C2674 C2675 1.372 . S
C2675 C2674 1.372 . S
C2675 C2676 1.400 . S
C2675 C2680 1.490 . S
C2676 H2666 0.930 . S
C2676 C2675 1.400 . S
C2676 C2679 1.386 . S
H2677 C2693 0.930 . S
H2678 C2694 0.931 . S
C2679 H2667 0.929 . S
C2679 C2673 1.390 . S
C2679 C2676 1.386 . S
C2680 C2675 1.490 . S
C2680 C2682 1.395 . S
C2680 C2683 1.403 . S
H2681 C2687 0.930 . S
C2682 H2668 0.930 . S
C2682 C2680 1.395 . S
C2682 C2685 1.403 . S
C2683 C2680 1.403 . S
C2683 C2684 1.524 . S
C2683 C2687 1.400 . S
C2684 H2669 0.960 . S
C2684 H2670 0.960 . S
C2684 H2671 0.960 . S
C2684 C2683 1.524 . S
C2685 C2682 1.403 . S
C2685 C2686 1.392 . S
C2685 C2689 1.495 . S
C2686 C2685 1.392 . S
C2686 C2687 1.385 . S
C2686 C2688 1.478 . S
C2687 H2681 0.930 . S
C2687 C2683 1.400 . S
C2687 C2686 1.385 . S
C2688 C2686 1.478 . S
C2688 C2690 1.381 . S
C2688 C2694 1.383 . S
C2689 C2685 1.495 . S
C2689 H2695 0.959 . S
C2689 H2696 0.961 . S
C2689 H2697 0.960 . S
C2690 C2688 1.381 . S
C2690 C2691 1.394 . S
C2690 H2698 0.930 . S
C2691 C2690 1.394 . S
C2691 C2692 1.383 . S
C2691 H2699 0.929 . S
C2692 C2691 1.383 . S
C2692 C2693 1.377 . S
C2693 H2677 0.930 . S
C2693 C2692 1.377 . S
C2693 C2694 1.379 . S
C2694 H2678 0.931 . S
C2694 C2688 1.383 . S
C2694 C2693 1.379 . S
H2695 C2689 0.959 . S
H2696 C2689 0.961 . S
H2697 C2689 0.960 . S
H2698 C2690 0.930 . S
H2699 C2691 0.929 . S
H2700 C2708 0.929 . S
H2701 C2710 0.930 . S
H2702 C2712 0.930 . S
H2703 C2715 0.929 . S
H2704 C2718 0.930 . S
H2705 C2720 0.960 . S
H2706 C2720 0.960 . S
H2707 C2720 0.960 . S
C2708 H2700 0.929 . S
C2708 C2709 1.377 . S
C2708 C2710 1.384 . S
C2709 C2708 1.377 . S
C2709 C2715 1.390 . S
C2710 H2701 0.930 . S
C2710 C2708 1.384 . S
C2710 C2711 1.372 . S
C2711 C2710 1.372 . S
C2711 C2712 1.400 . S
C2711 C2716 1.490 . S
C2712 H2702 0.930 . S
C2712 C2711 1.400 . S
C2712 C2715 1.386 . S
H2713 C2729 0.930 . S
H2714 C2730 0.931 . S
C2715 H2703 0.929 . S
C2715 C2709 1.390 . S
C2715 C2712 1.386 . S
C2716 C2711 1.490 . S
C2716 C2718 1.395 . S
C2716 C2719 1.403 . S
H2717 C2723 0.930 . S
C2718 H2704 0.930 . S
C2718 C2716 1.395 . S
C2718 C2721 1.403 . S
C2719 C2716 1.403 . S
C2719 C2720 1.524 . S
C2719 C2723 1.400 . S
C2720 H2705 0.960 . S
C2720 H2706 0.960 . S
C2720 H2707 0.960 . S
C2720 C2719 1.524 . S
C2721 C2718 1.403 . S
C2721 C2722 1.392 . S
C2721 C2725 1.495 . S
C2722 C2721 1.392 . S
C2722 C2723 1.385 . S
C2722 C2724 1.478 . S
C2723 H2717 0.930 . S
C2723 C2719 1.400 . S
C2723 C2722 1.385 . S
C2724 C2722 1.478 . S
C2724 C2726 1.381 . S
C2724 C2730 1.383 . S
C2725 C2721 1.495 . S
C2725 H2731 0.959 1_565 S
C2725 H2732 0.961 1_565 S
C2725 H2733 0.960 . S
C2726 C2724 1.381 . S
C2726 C2727 1.394 . S
C2726 H2734 0.930 . S
C2727 C2726 1.394 . S
C2727 C2728 1.383 . S
C2727 H2735 0.929 . S
C2728 C2727 1.383 . S
C2728 C2729 1.377 . S
C2729 H2713 0.930 . S
C2729 C2728 1.377 . S
C2729 C2730 1.379 . S
C2730 H2714 0.931 . S
C2730 C2724 1.383 . S
C2730 C2729 1.379 . S
H2731 C2725 0.959 1_545 S
H2732 C2725 0.961 1_545 S
H2733 C2725 0.960 . S
H2734 C2726 0.930 . S
H2735 C2727 0.929 . S
H2736 C2744 0.929 . S
H2737 C2746 0.930 . S
H2738 C2748 0.930 . S
H2739 C2751 0.929 . S
H2740 C2754 0.930 . S
H2741 C2756 0.960 . S
H2742 C2756 0.960 . S
H2743 C2756 0.960 . S
C2744 H2736 0.929 . S
C2744 C2745 1.377 . S
C2744 C2746 1.384 . S
C2745 C2744 1.377 . S
C2745 C2751 1.390 . S
C2746 H2737 0.930 . S
C2746 C2744 1.384 . S
C2746 C2747 1.372 . S
C2747 C2746 1.372 . S
C2747 C2748 1.400 . S
C2747 C2752 1.490 . S
C2748 H2738 0.930 . S
C2748 C2747 1.400 . S
C2748 C2751 1.386 . S
H2749 C2765 0.930 1_655 S
H2750 C2766 0.974 . S
C2751 H2739 0.929 . S
C2751 C2745 1.390 . S
C2751 C2748 1.386 . S
C2752 C2747 1.490 . S
C2752 C2754 1.395 . S
C2752 C2755 1.403 . S
H2753 C2759 0.930 . S
C2754 H2740 0.930 . S
C2754 C2752 1.395 . S
C2754 C2757 1.403 . S
C2755 C2752 1.403 . S
C2755 C2756 1.524 . S
C2755 C2759 1.400 . S
C2756 H2741 0.960 . S
C2756 H2742 0.960 . S
C2756 H2743 0.960 . S
C2756 C2755 1.524 . S
C2757 C2754 1.403 . S
C2757 C2758 1.392 . S
C2757 C2761 1.495 . S
C2758 C2757 1.392 . S
C2758 C2759 1.385 . S
C2758 C2760 1.478 . S
C2759 H2753 0.930 . S
C2759 C2755 1.400 . S
C2759 C2758 1.385 . S
C2760 C2758 1.478 . S
C2760 C2762 1.381 . S
C2760 C2766 1.383 . S
C2761 C2757 1.495 . S
C2761 H2767 0.959 . S
C2761 H2768 0.961 . S
C2761 H2769 0.960 . S
C2762 C2760 1.381 . S
C2762 C2763 1.394 . S
C2762 H2770 0.930 . S
C2763 C2762 1.394 . S
C2763 C2764 1.383 . S
C2763 H2771 0.929 . S
C2764 C2763 1.383 . S
C2764 C2765 1.377 . S
C2765 H2749 0.930 1_455 S
C2765 C2764 1.377 . S
C2765 C2766 1.379 . S
C2766 H2750 0.974 . S
C2766 C2760 1.383 . S
C2766 C2765 1.379 . S
H2767 C2761 0.959 . S
H2768 C2761 0.961 . S
H2769 C2761 0.960 . S
H2770 C2762 0.930 . S
H2771 C2763 0.929 . S
H2772 C2780 0.929 . S
H2773 C2782 0.930 . S
H2774 C2784 0.930 . S
H2775 C2787 0.929 . S
H2776 C2790 0.930 . S
H2777 C2792 0.960 . S
H2778 C2792 0.960 . S
H2779 C2792 0.960 . S
C2780 H2772 0.929 . S
C2780 C2781 1.377 . S
C2780 C2782 1.384 . S
C2781 C2780 1.377 . S
C2781 C2787 1.390 . S
C2782 H2773 0.930 . S
C2782 C2780 1.384 . S
C2782 C2783 1.372 . S
C2783 C2782 1.372 . S
C2783 C2784 1.400 . S
C2783 C2788 1.490 . S
C2784 H2774 0.930 . S
C2784 C2783 1.400 . S
C2784 C2787 1.386 . S
H2785 C2801 0.930 . S
H2786 C2802 0.931 . S
C2787 H2775 0.929 . S
C2787 C2781 1.390 . S
C2787 C2784 1.386 . S
C2788 C2783 1.490 . S
C2788 C2790 1.395 . S
C2788 C2791 1.403 . S
H2789 C2795 0.930 . S
C2790 H2776 0.930 . S
C2790 C2788 1.395 . S
C2790 C2793 1.403 . S
C2791 C2788 1.403 . S
C2791 C2792 1.524 . S
C2791 C2795 1.400 . S
C2792 H2777 0.960 . S
C2792 H2778 0.960 . S
C2792 H2779 0.960 . S
C2792 C2791 1.524 . S
C2793 C2790 1.403 . S
C2793 C2794 1.392 . S
C2793 C2797 1.495 . S
C2794 C2793 1.392 . S
C2794 C2795 1.385 . S
C2794 C2796 1.478 . S
C2795 H2789 0.930 . S
C2795 C2791 1.400 . S
C2795 C2794 1.385 . S
C2796 C2794 1.478 . S
C2796 C2798 1.381 . S
C2796 C2802 1.383 . S
C2797 C2793 1.495 . S
C2797 H2803 0.959 . S
C2797 H2804 0.961 . S
C2797 H2805 0.960 . S
C2798 C2796 1.381 . S
C2798 C2799 1.394 . S
C2798 H2806 0.930 . S
C2799 C2798 1.394 . S
C2799 C2800 1.383 . S
C2799 H2807 0.929 . S
C2800 C2799 1.383 . S
C2800 C2801 1.377 . S
C2801 H2785 0.930 . S
C2801 C2800 1.377 . S
C2801 C2802 1.379 . S
C2802 H2786 0.931 . S
C2802 C2796 1.383 . S
C2802 C2801 1.379 . S
H2803 C2797 0.959 . S
H2804 C2797 0.961 . S
H2805 C2797 0.960 . S
H2806 C2798 0.930 . S
H2807 C2799 0.929 . S
H2808 C2816 0.929 . S
H2809 C2818 0.930 . S
H2810 C2820 0.930 . S
H2811 C2823 0.929 . S
H2812 C2826 0.930 . S
H2813 C2828 0.960 . S
H2814 C2828 0.960 . S
H2815 C2828 0.960 . S
C2816 H2808 0.929 . S
C2816 C2817 1.377 . S
C2816 C2818 1.384 . S
C2817 C2816 1.377 . S
C2817 C2823 1.390 . S
C2818 H2809 0.930 . S
C2818 C2816 1.384 . S
C2818 C2819 1.372 . S
C2819 C2818 1.372 . S
C2819 C2820 1.400 . S
C2819 C2824 1.490 . S
C2820 H2810 0.930 . S
C2820 C2819 1.400 . S
C2820 C2823 1.386 . S
H2821 C2837 0.930 . S
H2822 C2838 0.931 . S
C2823 H2811 0.929 . S
C2823 C2817 1.390 . S
C2823 C2820 1.386 . S
C2824 C2819 1.490 . S
C2824 C2826 1.395 . S
C2824 C2827 1.403 . S
H2825 C2831 0.930 . S
C2826 H2812 0.930 . S
C2826 C2824 1.395 . S
C2826 C2829 1.403 . S
C2827 C2824 1.403 . S
C2827 C2828 1.524 . S
C2827 C2831 1.400 . S
C2828 H2813 0.960 . S
C2828 H2814 0.960 . S
C2828 H2815 0.960 . S
C2828 C2827 1.524 . S
C2829 C2826 1.403 . S
C2829 C2830 1.392 . S
C2829 C2833 1.495 . S
C2830 C2829 1.392 . S
C2830 C2831 1.385 . S
C2830 C2832 1.478 . S
C2831 H2825 0.930 . S
C2831 C2827 1.400 . S
C2831 C2830 1.385 . S
C2832 C2830 1.478 . S
C2832 C2834 1.381 . S
C2832 C2838 1.383 . S
C2833 C2829 1.495 . S
C2833 H2839 0.959 . S
C2833 H2840 0.961 1_655 S
C2833 H2841 0.960 . S
C2834 C2832 1.381 . S
C2834 C2835 1.394 . S
C2834 H2842 0.930 . S
C2835 C2834 1.394 . S
C2835 C2836 1.383 . S
C2835 H2843 0.929 . S
C2836 C2835 1.383 . S
C2836 C2837 1.377 . S
C2837 H2821 0.930 . S
C2837 C2836 1.377 . S
C2837 C2838 1.379 . S
C2838 H2822 0.931 . S
C2838 C2832 1.383 . S
C2838 C2837 1.379 . S
H2839 C2833 0.959 . S
H2840 C2833 0.961 1_455 S
H2841 C2833 0.960 . S
H2842 C2834 0.930 . S
H2843 C2835 0.929 . S
H2844 C2852 0.929 . S
H2845 C2854 0.930 . S
H2846 C2856 0.930 . S
H2847 C2859 0.929 . S
H2848 C2862 0.930 . S
H2849 C2864 0.960 . S
H2850 C2864 0.960 . S
H2851 C2864 0.960 . S
C2852 H2844 0.929 . S
C2852 C2853 1.377 . S
C2852 C2854 1.384 . S
C2853 C2852 1.377 . S
C2853 C2859 1.390 . S
C2854 H2845 0.930 . S
C2854 C2852 1.384 . S
C2854 C2855 1.372 . S
C2855 C2854 1.372 . S
C2855 C2856 1.400 . S
C2855 C2860 1.490 . S
C2856 H2846 0.930 . S
C2856 C2855 1.400 . S
C2856 C2859 1.386 . S
H2857 C2873 0.930 . S
H2858 C2874 0.931 . S
C2859 H2847 0.929 . S
C2859 C2853 1.390 . S
C2859 C2856 1.386 . S
C2860 C2855 1.490 . S
C2860 C2862 1.395 . S
C2860 C2863 1.403 . S
H2861 C2867 0.930 . S
C2862 H2848 0.930 . S
C2862 C2860 1.395 . S
C2862 C2865 1.403 . S
C2863 C2860 1.403 . S
C2863 C2864 1.524 . S
C2863 C2867 1.400 . S
C2864 H2849 0.960 . S
C2864 H2850 0.960 . S
C2864 H2851 0.960 . S
C2864 C2863 1.524 . S
C2865 C2862 1.403 . S
C2865 C2866 1.392 . S
C2865 C2869 1.495 . S
C2866 C2865 1.392 . S
C2866 C2867 1.385 . S
C2866 C2868 1.478 . S
C2867 H2861 0.930 . S
C2867 C2863 1.400 . S
C2867 C2866 1.385 . S
C2868 C2866 1.478 . S
C2868 C2870 1.381 . S
C2868 C2874 1.383 . S
C2869 C2865 1.495 . S
C2869 H2875 0.959 . S
C2869 H2876 0.961 . S
C2869 H2877 0.960 . S
C2870 C2868 1.381 . S
C2870 C2871 1.394 . S
C2870 H2878 0.930 . S
C2871 C2870 1.394 . S
C2871 C2872 1.383 . S
C2871 H2879 0.929 . S
C2872 C2871 1.383 . S
C2872 C2873 1.377 . S
C2873 H2857 0.930 . S
C2873 C2872 1.377 . S
C2873 C2874 1.379 . S
C2874 H2858 0.931 . S
C2874 C2868 1.383 . S
C2874 C2873 1.379 . S
H2875 C2869 0.959 . S
H2876 C2869 0.961 . S
H2877 C2869 0.960 . S
H2878 C2870 0.930 . S
H2879 C2871 0.929 . S
H2880 C2888 0.929 . S
H2881 C2890 0.930 . S
H2882 C2892 0.930 . S
H2883 C2895 0.929 . S
H2884 C2898 0.930 . S
H2885 C2900 0.960 . S
H2886 C2900 0.960 . S
H2887 C2900 0.960 . S
C2888 H2880 0.929 . S
C2888 C2889 1.377 . S
C2888 C2890 1.384 . S
C2889 C2888 1.377 . S
C2889 C2895 1.390 . S
C2890 H2881 0.930 . S
C2890 C2888 1.384 . S
C2890 C2891 1.372 . S
C2891 C2890 1.372 . S
C2891 C2892 1.400 . S
C2891 C2896 1.490 . S
C2892 H2882 0.930 . S
C2892 C2891 1.400 . S
C2892 C2895 1.386 . S
H2893 C2909 0.930 . S
H2894 C2910 0.931 . S
C2895 H2883 0.929 . S
C2895 C2889 1.390 . S
C2895 C2892 1.386 . S
C2896 C2891 1.490 . S
C2896 C2898 1.395 . S
C2896 C2899 1.403 . S
H2897 C2903 0.930 . S
C2898 H2884 0.930 . S
C2898 C2896 1.395 . S
C2898 C2901 1.403 . S
C2899 C2896 1.403 . S
C2899 C2900 1.524 . S
C2899 C2903 1.400 . S
C2900 H2885 0.960 . S
C2900 H2886 0.960 . S
C2900 H2887 0.960 . S
C2900 C2899 1.524 . S
C2901 C2898 1.403 . S
C2901 C2902 1.392 . S
C2901 C2905 1.495 . S
C2902 C2901 1.392 . S
C2902 C2903 1.385 . S
C2902 C2904 1.478 . S
C2903 H2897 0.930 . S
C2903 C2899 1.400 . S
C2903 C2902 1.385 . S
C2904 C2902 1.478 . S
C2904 C2906 1.381 . S
C2904 C2910 1.383 . S
C2905 C2901 1.495 . S
C2905 H2911 0.959 . S
C2905 H2912 0.961 . S
C2905 H2913 0.960 . S
C2906 C2904 1.381 . S
C2906 C2907 1.394 . S
C2906 H2914 0.930 . S
C2907 C2906 1.394 . S
C2907 C2908 1.383 . S
C2907 H2915 0.929 . S
C2908 C2907 1.383 . S
C2908 C2909 1.377 . S
C2909 H2893 0.930 . S
C2909 C2908 1.377 . S
C2909 C2910 1.379 . S
C2910 H2894 0.931 . S
C2910 C2904 1.383 . S
C2910 C2909 1.379 . S
H2911 C2905 0.959 . S
H2912 C2905 0.961 . S
H2913 C2905 0.960 . S
H2914 C2906 0.930 . S
H2915 C2907 0.929 . S
H2916 C2924 0.929 . S
H2917 C2926 0.930 . S
H2918 C2928 0.930 . S
H2919 C2931 0.929 . S
H2920 C2934 0.930 . S
H2921 C2936 0.960 . S
H2922 C2936 0.960 . S
H2923 C2936 0.960 . S
C2924 H2916 0.929 . S
C2924 C2925 1.377 . S
C2924 C2926 1.384 . S
C2925 C2924 1.377 . S
C2925 C2931 1.390 . S
C2926 H2917 0.930 . S
C2926 C2924 1.384 . S
C2926 C2927 1.372 . S
C2927 C2926 1.372 . S
C2927 C2928 1.400 . S
C2927 C2932 1.490 . S
C2928 H2918 0.930 . S
C2928 C2927 1.400 . S
C2928 C2931 1.386 . S
H2929 C2945 0.930 . S
H2930 C2946 0.931 . S
C2931 H2919 0.929 . S
C2931 C2925 1.390 . S
C2931 C2928 1.386 . S
C2932 C2927 1.490 . S
C2932 C2934 1.395 . S
C2932 C2935 1.403 . S
H2933 C2939 0.930 . S
C2934 H2920 0.930 . S
C2934 C2932 1.395 . S
C2934 C2937 1.403 . S
C2935 C2932 1.403 . S
C2935 C2936 1.524 . S
C2935 C2939 1.400 . S
C2936 H2921 0.960 . S
C2936 H2922 0.960 . S
C2936 H2923 0.960 . S
C2936 C2935 1.524 . S
C2937 C2934 1.403 . S
C2937 C2938 1.392 . S
C2937 C2941 1.495 . S
C2938 C2937 1.392 . S
C2938 C2939 1.385 . S
C2938 C2940 1.478 . S
C2939 H2933 0.930 . S
C2939 C2935 1.400 . S
C2939 C2938 1.385 . S
C2940 C2938 1.478 . S
C2940 C2942 1.381 . S
C2940 C2946 1.383 . S
C2941 C2937 1.495 . S
C2941 H2947 0.959 . S
C2941 H2948 0.961 . S
C2941 H2949 0.960 . S
C2942 C2940 1.381 . S
C2942 C2943 1.394 . S
C2942 H2950 0.930 . S
C2943 C2942 1.394 . S
C2943 C2944 1.383 . S
C2943 H2951 0.929 . S
C2944 C2943 1.383 . S
C2944 C2945 1.377 . S
C2945 H2929 0.930 . S
C2945 C2944 1.377 . S
C2945 C2946 1.379 . S
C2946 H2930 0.931 . S
C2946 C2940 1.383 . S
C2946 C2945 1.379 . S
H2947 C2941 0.959 . S
H2948 C2941 0.961 . S
H2949 C2941 0.960 . S
H2950 C2942 0.930 . S
H2951 C2943 0.929 . S
H2952 C2960 0.929 . S
H2953 C2962 0.930 . S
H2954 C2964 0.930 . S
H2955 C2967 0.929 . S
H2956 C2970 0.930 . S
H2957 C2972 0.960 . S
H2958 C2972 0.960 . S
H2959 C2972 0.960 . S
C2960 H2952 0.929 . S
C2960 C2961 1.377 . S
C2960 C2962 1.384 . S
C2961 C2960 1.377 . S
C2961 C2967 1.390 . S
C2962 H2953 0.930 . S
C2962 C2960 1.384 . S
C2962 C2963 1.372 . S
C2963 C2962 1.372 . S
C2963 C2964 1.400 . S
C2963 C2968 1.490 . S
C2964 H2954 0.930 . S
C2964 C2963 1.400 . S
C2964 C2967 1.386 . S
H2965 C2981 0.930 . S
H2966 C2982 0.931 . S
C2967 H2955 0.929 . S
C2967 C2961 1.390 . S
C2967 C2964 1.386 . S
C2968 C2963 1.490 . S
C2968 C2970 1.395 . S
C2968 C2971 1.403 . S
H2969 C2975 0.930 . S
C2970 H2956 0.930 . S
C2970 C2968 1.395 . S
C2970 C2973 1.403 . S
C2971 C2968 1.403 . S
C2971 C2972 1.524 . S
C2971 C2975 1.400 . S
C2972 H2957 0.960 . S
C2972 H2958 0.960 . S
C2972 H2959 0.960 . S
C2972 C2971 1.524 . S
C2973 C2970 1.403 . S
C2973 C2974 1.392 . S
C2973 C2977 1.495 . S
C2974 C2973 1.392 . S
C2974 C2975 1.385 . S
C2974 C2976 1.478 . S
C2975 H2969 0.930 . S
C2975 C2971 1.400 . S
C2975 C2974 1.385 . S
C2976 C2974 1.478 . S
C2976 C2978 1.381 . S
C2976 C2982 1.383 . S
C2977 C2973 1.495 . S
C2977 H2983 0.959 . S
C2977 H2984 0.961 . S
C2977 H2985 0.960 . S
C2978 C2976 1.381 . S
C2978 C2979 1.394 . S
C2978 H2986 0.930 . S
C2979 C2978 1.394 . S
C2979 C2980 1.383 . S
C2979 H2987 0.929 . S
C2980 C2979 1.383 . S
C2980 C2981 1.377 . S
C2981 H2965 0.930 . S
C2981 C2980 1.377 . S
C2981 C2982 1.379 . S
C2982 H2966 0.931 . S
C2982 C2976 1.383 . S
C2982 C2981 1.379 . S
H2983 C2977 0.959 . S
H2984 C2977 0.961 . S
H2985 C2977 0.960 . S
H2986 C2978 0.930 . S
H2987 C2979 0.929 . S
H2988 C2996 0.929 . S
H2989 C2998 0.930 . S
H2990 C3000 0.930 . S
H2991 C3003 0.929 . S
H2992 C3006 0.930 . S
H2993 C3008 0.960 . S
H2994 C3008 0.960 . S
H2995 C3008 0.960 . S
C2996 H2988 0.929 . S
C2996 C2997 1.377 . S
C2996 C2998 1.384 . S
C2997 C2996 1.377 . S
C2997 C3003 1.390 . S
C2998 H2989 0.930 . S
C2998 C2996 1.384 . S
C2998 C2999 1.372 . S
C2999 C2998 1.372 . S
C2999 C3000 1.400 . S
C2999 C3004 1.490 . S
C3000 H2990 0.930 . S
C3000 C2999 1.400 . S
C3000 C3003 1.386 . S
H3001 C3017 0.930 . S
H3002 C3018 0.931 . S
C3003 H2991 0.929 . S
C3003 C2997 1.390 . S
C3003 C3000 1.386 . S
C3004 C2999 1.490 . S
C3004 C3006 1.395 . S
C3004 C3007 1.403 . S
H3005 C3011 0.930 . S
C3006 H2992 0.930 . S
C3006 C3004 1.395 . S
C3006 C3009 1.403 . S
C3007 C3004 1.403 . S
C3007 C3008 1.524 . S
C3007 C3011 1.400 . S
C3008 H2993 0.960 . S
C3008 H2994 0.960 . S
C3008 H2995 0.960 . S
C3008 C3007 1.524 . S
C3009 C3006 1.403 . S
C3009 C3010 1.392 . S
C3009 C3013 1.495 . S
C3010 C3009 1.392 . S
C3010 C3011 1.385 . S
C3010 C3012 1.478 . S
C3011 H3005 0.930 . S
C3011 C3007 1.400 . S
C3011 C3010 1.385 . S
C3012 C3010 1.478 . S
C3012 C3014 1.381 . S
C3012 C3018 1.383 . S
C3013 C3009 1.495 . S
C3013 H3019 0.959 . S
C3013 H3020 0.961 . S
C3013 H3021 0.960 . S
C3014 C3012 1.381 . S
C3014 C3015 1.394 . S
C3014 H3022 0.930 . S
C3015 C3014 1.394 . S
C3015 C3016 1.383 . S
C3015 H3023 0.929 . S
C3016 C3015 1.383 . S
C3016 C3017 1.377 . S
C3017 H3001 0.930 . S
C3017 C3016 1.377 . S
C3017 C3018 1.379 . S
C3018 H3002 0.931 . S
C3018 C3012 1.383 . S
C3018 C3017 1.379 . S
H3019 C3013 0.959 . S
H3020 C3013 0.961 . S
H3021 C3013 0.960 . S
H3022 C3014 0.930 . S
H3023 C3015 0.929 . S
H3024 C3032 0.929 . S
H3025 C3034 0.930 . S
H3026 C3036 0.930 . S
H3027 C3039 0.929 . S
H3028 C3042 0.930 . S
H3029 C3044 0.960 . S
H3030 C3044 0.960 . S
H3031 C3044 0.960 . S
C3032 H3024 0.929 . S
C3032 C3033 1.377 . S
C3032 C3034 1.384 . S
C3033 C3032 1.377 . S
C3033 C3039 1.390 . S
C3034 H3025 0.930 . S
C3034 C3032 1.384 . S
C3034 C3035 1.372 . S
C3035 C3034 1.372 . S
C3035 C3036 1.400 . S
C3035 C3040 1.490 . S
C3036 H3026 0.930 . S
C3036 C3035 1.400 . S
C3036 C3039 1.386 . S
H3037 C3053 0.930 . S
H3038 C3054 0.931 . S
C3039 H3027 0.929 . S
C3039 C3033 1.390 . S
C3039 C3036 1.386 . S
C3040 C3035 1.490 . S
C3040 C3042 1.395 . S
C3040 C3043 1.403 . S
H3041 C3047 0.930 . S
C3042 H3028 0.930 . S
C3042 C3040 1.395 . S
C3042 C3045 1.403 . S
C3043 C3040 1.403 . S
C3043 C3044 1.524 . S
C3043 C3047 1.400 . S
C3044 H3029 0.960 . S
C3044 H3030 0.960 . S
C3044 H3031 0.960 . S
C3044 C3043 1.524 . S
C3045 C3042 1.403 . S
C3045 C3046 1.392 . S
C3045 C3049 1.495 . S
C3046 C3045 1.392 . S
C3046 C3047 1.385 . S
C3046 C3048 1.478 . S
C3047 H3041 0.930 . S
C3047 C3043 1.400 . S
C3047 C3046 1.385 . S
C3048 C3046 1.478 . S
C3048 C3050 1.381 . S
C3048 C3054 1.383 . S
C3049 C3045 1.495 . S
C3049 H3055 0.959 . S
C3049 H3056 0.961 . S
C3049 H3057 0.960 . S
C3050 C3048 1.381 . S
C3050 C3051 1.394 . S
C3050 H3058 0.930 . S
C3051 C3050 1.394 . S
C3051 C3052 1.383 . S
C3051 H3059 0.929 . S
C3052 C3051 1.383 . S
C3052 C3053 1.377 . S
C3053 H3037 0.930 . S
C3053 C3052 1.377 . S
C3053 C3054 1.379 . S
C3054 H3038 0.931 . S
C3054 C3048 1.383 . S
C3054 C3053 1.379 . S
H3055 C3049 0.959 . S
H3056 C3049 0.961 . S
H3057 C3049 0.960 . S
H3058 C3050 0.930 . S
H3059 C3051 0.929 . S
H3060 C3068 0.929 . S
H3061 C3070 0.930 . S
H3062 C3072 0.930 . S
H3063 C3075 0.929 . S
H3064 C3078 0.930 . S
H3065 C3080 0.960 . S
H3066 C3080 0.960 . S
H3067 C3080 0.960 . S
C3068 H3060 0.929 . S
C3068 C3069 1.377 . S
C3068 C3070 1.384 . S
C3069 C3068 1.377 . S
C3069 C3075 1.390 . S
C3070 H3061 0.930 . S
C3070 C3068 1.384 . S
C3070 C3071 1.372 . S
C3071 C3070 1.372 . S
C3071 C3072 1.400 . S
C3071 C3076 1.490 . S
C3072 H3062 0.930 . S
C3072 C3071 1.400 . S
C3072 C3075 1.386 . S
H3073 C3089 0.930 . S
H3074 C3090 0.931 . S
C3075 H3063 0.929 . S
C3075 C3069 1.390 . S
C3075 C3072 1.386 . S
C3076 C3071 1.490 . S
C3076 C3078 1.395 . S
C3076 C3079 1.403 . S
H3077 C3083 0.930 . S
C3078 H3064 0.930 . S
C3078 C3076 1.395 . S
C3078 C3081 1.403 . S
C3079 C3076 1.403 . S
C3079 C3080 1.524 . S
C3079 C3083 1.400 . S
C3080 H3065 0.960 . S
C3080 H3066 0.960 . S
C3080 H3067 0.960 . S
C3080 C3079 1.524 . S
C3081 C3078 1.403 . S
C3081 C3082 1.392 . S
C3081 C3085 1.495 . S
C3082 C3081 1.392 . S
C3082 C3083 1.385 . S
C3082 C3084 1.478 . S
C3083 H3077 0.930 . S
C3083 C3079 1.400 . S
C3083 C3082 1.385 . S
C3084 C3082 1.478 . S
C3084 C3086 1.381 . S
C3084 C3090 1.383 . S
C3085 C3081 1.495 . S
C3085 H3091 0.959 . S
C3085 H3092 0.961 . S
C3085 H3093 0.960 . S
C3086 C3084 1.381 . S
C3086 C3087 1.394 . S
C3086 H3094 0.930 . S
C3087 C3086 1.394 . S
C3087 C3088 1.383 . S
C3087 H3095 0.929 . S
C3088 C3087 1.383 . S
C3088 C3089 1.377 . S
C3089 H3073 0.930 . S
C3089 C3088 1.377 . S
C3089 C3090 1.379 . S
C3090 H3074 0.931 . S
C3090 C3084 1.383 . S
C3090 C3089 1.379 . S
H3091 C3085 0.959 . S
H3092 C3085 0.961 . S
H3093 C3085 0.960 . S
H3094 C3086 0.930 . S
H3095 C3087 0.929 . S
H3096 C3104 0.929 . S
H3097 C3106 0.930 . S
H3098 C3108 0.930 . S
H3099 C3111 0.929 . S
H3100 C3114 0.930 . S
H3101 C3116 0.960 . S
H3102 C3116 0.960 . S
H3103 C3116 0.960 . S
C3104 H3096 0.929 . S
C3104 C3105 1.377 . S
C3104 C3106 1.384 . S
C3105 C3104 1.377 . S
C3105 C3111 1.390 . S
C3106 H3097 0.930 . S
C3106 C3104 1.384 . S
C3106 C3107 1.372 . S
C3107 C3106 1.372 . S
C3107 C3108 1.400 . S
C3107 C3112 1.490 . S
C3108 H3098 0.930 . S
C3108 C3107 1.400 . S
C3108 C3111 1.386 . S
H3109 C3125 0.930 . S
H3110 C3126 0.931 . S
C3111 H3099 0.929 . S
C3111 C3105 1.390 . S
C3111 C3108 1.386 . S
C3112 C3107 1.490 . S
C3112 C3114 1.395 . S
C3112 C3115 1.403 . S
H3113 C3119 0.930 . S
C3114 H3100 0.930 . S
C3114 C3112 1.395 . S
C3114 C3117 1.403 . S
C3115 C3112 1.403 . S
C3115 C3116 1.524 . S
C3115 C3119 1.400 . S
C3116 H3101 0.960 . S
C3116 H3102 0.960 . S
C3116 H3103 0.960 . S
C3116 C3115 1.524 . S
C3117 C3114 1.403 . S
C3117 C3118 1.392 . S
C3117 C3121 1.495 . S
C3118 C3117 1.392 . S
C3118 C3119 1.385 . S
C3118 C3120 1.478 . S
C3119 H3113 0.930 . S
C3119 C3115 1.400 . S
C3119 C3118 1.385 . S
C3120 C3118 1.478 . S
C3120 C3122 1.381 . S
C3120 C3126 1.383 . S
C3121 C3117 1.495 . S
C3121 H3127 0.959 . S
C3121 H3128 0.961 . S
C3121 H3129 0.960 . S
C3122 C3120 1.381 . S
C3122 C3123 1.394 . S
C3122 H3130 0.930 . S
C3123 C3122 1.394 . S
C3123 C3124 1.383 . S
C3123 H3131 0.929 . S
C3124 C3123 1.383 . S
C3124 C3125 1.377 . S
C3125 H3109 0.930 . S
C3125 C3124 1.377 . S
C3125 C3126 1.379 . S
C3126 H3110 0.931 . S
C3126 C3120 1.383 . S
C3126 C3125 1.379 . S
H3127 C3121 0.959 . S
H3128 C3121 0.961 . S
H3129 C3121 0.960 . S
H3130 C3122 0.930 . S
H3131 C3123 0.929 . S
H3132 C3140 0.929 . S
H3133 C3142 0.930 . S
H3134 C3144 0.930 . S
H3135 C3147 0.929 . S
H3136 C3150 0.930 . S
H3137 C3152 0.960 . S
H3138 C3152 0.960 . S
H3139 C3152 0.960 . S
C3140 H3132 0.929 . S
C3140 C3141 1.377 . S
C3140 C3142 1.384 . S
C3141 C3140 1.377 . S
C3141 C3147 1.390 . S
C3142 H3133 0.930 . S
C3142 C3140 1.384 . S
C3142 C3143 1.372 . S
C3143 C3142 1.372 . S
C3143 C3144 1.400 . S
C3143 C3148 1.490 . S
C3144 H3134 0.930 . S
C3144 C3143 1.400 . S
C3144 C3147 1.386 . S
H3145 C3161 0.930 . S
H3146 C3162 0.931 . S
C3147 H3135 0.929 . S
C3147 C3141 1.390 . S
C3147 C3144 1.386 . S
C3148 C3143 1.490 . S
C3148 C3150 1.395 . S
C3148 C3151 1.403 . S
H3149 C3155 0.930 . S
C3150 H3136 0.930 . S
C3150 C3148 1.395 . S
C3150 C3153 1.403 . S
C3151 C3148 1.403 . S
C3151 C3152 1.524 . S
C3151 C3155 1.400 . S
C3152 H3137 0.960 . S
C3152 H3138 0.960 . S
C3152 H3139 0.960 . S
C3152 C3151 1.524 . S
C3153 C3150 1.403 . S
C3153 C3154 1.392 . S
C3153 C3157 1.495 . S
C3154 C3153 1.392 . S
C3154 C3155 1.385 . S
C3154 C3156 1.478 . S
C3155 H3149 0.930 . S
C3155 C3151 1.400 . S
C3155 C3154 1.385 . S
C3156 C3154 1.478 . S
C3156 C3158 1.381 . S
C3156 C3162 1.383 . S
C3157 C3153 1.495 . S
C3157 H3163 0.959 . S
C3157 H3164 0.961 . S
C3157 H3165 0.960 . S
C3158 C3156 1.381 . S
C3158 C3159 1.394 . S
C3158 H3166 0.930 . S
C3159 C3158 1.394 . S
C3159 C3160 1.383 . S
C3159 H3167 0.929 . S
C3160 C3159 1.383 . S
C3160 C3161 1.377 . S
C3161 H3145 0.930 . S
C3161 C3160 1.377 . S
C3161 C3162 1.379 . S
C3162 H3146 0.931 . S
C3162 C3156 1.383 . S
C3162 C3161 1.379 . S
H3163 C3157 0.959 . S
H3164 C3157 0.961 . S
H3165 C3157 0.960 . S
H3166 C3158 0.930 . S
H3167 C3159 0.929 . S
H3168 C3176 0.929 . S
H3169 C3178 0.930 . S
H3170 C3180 0.930 . S
H3171 C3183 0.929 . S
H3172 C3186 0.930 . S
H3173 C3188 0.960 . S
H3174 C3188 0.960 . S
H3175 C3188 0.960 . S
C3176 H3168 0.929 . S
C3176 C3177 1.377 . S
C3176 C3178 1.384 . S
C3177 C3176 1.377 . S
C3177 C3183 1.390 . S
C3178 H3169 0.930 . S
C3178 C3176 1.384 . S
C3178 C3179 1.372 . S
C3179 C3178 1.372 . S
C3179 C3180 1.400 . S
C3179 C3184 1.490 . S
C3180 H3170 0.930 . S
C3180 C3179 1.400 . S
C3180 C3183 1.386 . S
H3181 C3197 0.930 . S
H3182 C3198 0.931 . S
C3183 H3171 0.929 . S
C3183 C3177 1.390 . S
C3183 C3180 1.386 . S
C3184 C3179 1.490 . S
C3184 C3186 1.395 . S
C3184 C3187 1.403 . S
H3185 C3191 0.930 . S
C3186 H3172 0.930 . S
C3186 C3184 1.395 . S
C3186 C3189 1.403 . S
C3187 C3184 1.403 . S
C3187 C3188 1.524 . S
C3187 C3191 1.400 . S
C3188 H3173 0.960 . S
C3188 H3174 0.960 . S
C3188 H3175 0.960 . S
C3188 C3187 1.524 . S
C3189 C3186 1.403 . S
C3189 C3190 1.392 . S
C3189 C3193 1.495 . S
C3190 C3189 1.392 . S
C3190 C3191 1.385 . S
C3190 C3192 1.478 . S
C3191 H3185 0.930 . S
C3191 C3187 1.400 . S
C3191 C3190 1.385 . S
C3192 C3190 1.478 . S
C3192 C3194 1.381 . S
C3192 C3198 1.383 . S
C3193 C3189 1.495 . S
C3193 H3199 0.959 . S
C3193 H3200 0.961 . S
C3193 H3201 0.960 . S
C3194 C3192 1.381 . S
C3194 C3195 1.394 . S
C3194 H3202 0.930 . S
C3195 C3194 1.394 . S
C3195 C3196 1.383 . S
C3195 H3203 0.929 . S
C3196 C3195 1.383 . S
C3196 C3197 1.377 . S
C3197 H3181 0.930 . S
C3197 C3196 1.377 . S
C3197 C3198 1.379 . S
C3198 H3182 0.931 . S
C3198 C3192 1.383 . S
C3198 C3197 1.379 . S
H3199 C3193 0.959 . S
H3200 C3193 0.961 . S
H3201 C3193 0.960 . S
H3202 C3194 0.930 . S
H3203 C3195 0.929 . S
H3204 C3212 0.929 . S
H3205 C3214 0.930 . S
H3206 C3216 0.930 . S
H3207 C3219 0.929 . S
H3208 C3222 0.930 . S
H3209 C3224 0.960 . S
H3210 C3224 0.960 . S
H3211 C3224 0.960 . S
C3212 H3204 0.929 . S
C3212 C3213 1.377 . S
C3212 C3214 1.384 . S
C3213 C3212 1.377 . S
C3213 C3219 1.390 . S
C3214 H3205 0.930 . S
C3214 C3212 1.384 . S
C3214 C3215 1.372 . S
C3215 C3214 1.372 . S
C3215 C3216 1.400 . S
C3215 C3220 1.490 . S
C3216 H3206 0.930 . S
C3216 C3215 1.400 . S
C3216 C3219 1.386 . S
H3217 C3233 0.930 . S
H3218 C3234 0.931 . S
C3219 H3207 0.929 . S
C3219 C3213 1.390 . S
C3219 C3216 1.386 . S
C3220 C3215 1.490 . S
C3220 C3222 1.395 . S
C3220 C3223 1.403 . S
H3221 C3227 0.930 . S
C3222 H3208 0.930 . S
C3222 C3220 1.395 . S
C3222 C3225 1.403 . S
C3223 C3220 1.403 . S
C3223 C3224 1.524 . S
C3223 C3227 1.400 . S
C3224 H3209 0.960 . S
C3224 H3210 0.960 . S
C3224 H3211 0.960 . S
C3224 C3223 1.524 . S
C3225 C3222 1.403 . S
C3225 C3226 1.392 . S
C3225 C3229 1.495 . S
C3226 C3225 1.392 . S
C3226 C3227 1.385 . S
C3226 C3228 1.478 . S
C3227 H3221 0.930 . S
C3227 C3223 1.400 . S
C3227 C3226 1.385 . S
C3228 C3226 1.478 . S
C3228 C3230 1.381 . S
C3228 C3234 1.383 . S
C3229 C3225 1.495 . S
C3229 H3235 0.959 . S
C3229 H3236 0.961 . S
C3229 H3237 0.960 . S
C3230 C3228 1.381 . S
C3230 C3231 1.394 . S
C3230 H3238 0.930 . S
C3231 C3230 1.394 . S
C3231 C3232 1.383 . S
C3231 H3239 0.929 . S
C3232 C3231 1.383 . S
C3232 C3233 1.377 . S
C3233 H3217 0.930 . S
C3233 C3232 1.377 . S
C3233 C3234 1.379 . S
C3234 H3218 0.931 . S
C3234 C3228 1.383 . S
C3234 C3233 1.379 . S
H3235 C3229 0.959 . S
H3236 C3229 0.961 . S
H3237 C3229 0.960 . S
H3238 C3230 0.930 . S
H3239 C3231 0.929 . S
H3240 C3248 0.929 . S
H3241 C3250 0.930 . S
H3242 C3252 0.930 . S
H3243 C3255 0.929 . S
H3244 C3258 0.930 . S
H3245 C3260 0.960 . S
H3246 C3260 0.960 . S
H3247 C3260 0.960 . S
C3248 H3240 0.929 . S
C3248 C3249 1.377 . S
C3248 C3250 1.384 . S
C3249 C3248 1.377 . S
C3249 C3255 1.390 . S
C3250 H3241 0.930 . S
C3250 C3248 1.384 . S
C3250 C3251 1.372 . S
C3251 C3250 1.372 . S
C3251 C3252 1.400 . S
C3251 C3256 1.490 . S
C3252 H3242 0.930 . S
C3252 C3251 1.400 . S
C3252 C3255 1.386 . S
H3253 C3269 0.930 . S
H3254 C3270 0.931 . S
C3255 H3243 0.929 . S
C3255 C3249 1.390 . S
C3255 C3252 1.386 . S
C3256 C3251 1.490 . S
C3256 C3258 1.395 . S
C3256 C3259 1.403 . S
H3257 C3263 0.930 . S
C3258 H3244 0.930 . S
C3258 C3256 1.395 . S
C3258 C3261 1.403 . S
C3259 C3256 1.403 . S
C3259 C3260 1.524 . S
C3259 C3263 1.400 . S
C3260 H3245 0.960 . S
C3260 H3246 0.960 . S
C3260 H3247 0.960 . S
C3260 C3259 1.524 . S
C3261 C3258 1.403 . S
C3261 C3262 1.392 . S
C3261 C3265 1.495 . S
C3262 C3261 1.392 . S
C3262 C3263 1.385 . S
C3262 C3264 1.478 . S
C3263 H3257 0.930 . S
C3263 C3259 1.400 . S
C3263 C3262 1.385 . S
C3264 C3262 1.478 . S
C3264 C3266 1.381 . S
C3264 C3270 1.383 . S
C3265 C3261 1.495 . S
C3265 H3271 0.959 . S
C3265 H3272 0.961 . S
C3265 H3273 0.960 . S
C3266 C3264 1.381 . S
C3266 C3267 1.394 . S
C3266 H3274 0.930 . S
C3267 C3266 1.394 . S
C3267 C3268 1.383 . S
C3267 H3275 0.929 . S
C3268 C3267 1.383 . S
C3268 C3269 1.377 . S
C3269 H3253 0.930 . S
C3269 C3268 1.377 . S
C3269 C3270 1.379 . S
C3270 H3254 0.931 . S
C3270 C3264 1.383 . S
C3270 C3269 1.379 . S
H3271 C3265 0.959 . S
H3272 C3265 0.961 . S
H3273 C3265 0.960 . S
H3274 C3266 0.930 . S
H3275 C3267 0.929 . S
H3276 C3284 0.929 . S
H3277 C3286 0.930 . S
H3278 C3288 0.930 . S
H3279 C3291 0.929 . S
H3280 C3294 0.930 . S
H3281 C3296 0.960 . S
H3282 C3296 0.960 . S
H3283 C3296 0.960 . S
C3284 H3276 0.929 . S
C3284 C3285 1.377 . S
C3284 C3286 1.384 . S
C3285 C3284 1.377 . S
C3285 C3291 1.390 . S
C3286 H3277 0.930 . S
C3286 C3284 1.384 . S
C3286 C3287 1.372 . S
C3287 C3286 1.372 . S
C3287 C3288 1.400 . S
C3287 C3292 1.490 . S
C3288 H3278 0.930 . S
C3288 C3287 1.400 . S
C3288 C3291 1.386 . S
H3289 C3305 0.930 . S
H3290 C3306 0.931 . S
C3291 H3279 0.929 . S
C3291 C3285 1.390 . S
C3291 C3288 1.386 . S
C3292 C3287 1.490 . S
C3292 C3294 1.395 . S
C3292 C3295 1.403 . S
H3293 C3299 0.930 . S
C3294 H3280 0.930 . S
C3294 C3292 1.395 . S
C3294 C3297 1.403 . S
C3295 C3292 1.403 . S
C3295 C3296 1.524 . S
C3295 C3299 1.400 . S
C3296 H3281 0.960 . S
C3296 H3282 0.960 . S
C3296 H3283 0.960 . S
C3296 C3295 1.524 . S
C3297 C3294 1.403 . S
C3297 C3298 1.392 . S
C3297 C3301 1.495 . S
C3298 C3297 1.392 . S
C3298 C3299 1.385 . S
C3298 C3300 1.478 . S
C3299 H3293 0.930 . S
C3299 C3295 1.400 . S
C3299 C3298 1.385 . S
C3300 C3298 1.478 . S
C3300 C3302 1.381 . S
C3300 C3306 1.383 . S
C3301 C3297 1.495 . S
C3301 H3307 0.959 . S
C3301 H3308 0.961 . S
C3301 H3309 0.960 . S
C3302 C3300 1.381 . S
C3302 C3303 1.394 . S
C3302 H3310 0.930 . S
C3303 C3302 1.394 . S
C3303 C3304 1.383 . S
C3303 H3311 0.929 . S
C3304 C3303 1.383 . S
C3304 C3305 1.377 . S
C3305 H3289 0.930 . S
C3305 C3304 1.377 . S
C3305 C3306 1.379 . S
C3306 H3290 0.931 . S
C3306 C3300 1.383 . S
C3306 C3305 1.379 . S
H3307 C3301 0.959 . S
H3308 C3301 0.961 . S
H3309 C3301 0.960 . S
H3310 C3302 0.930 . S
H3311 C3303 0.929 . S
H3312 C3320 0.929 . S
H3313 C3322 0.930 . S
H3314 C3324 0.930 . S
H3315 C3327 0.929 . S
H3316 C3330 0.930 . S
H3317 C3332 0.960 . S
H3318 C3332 0.960 . S
H3319 C3332 0.960 . S
C3320 H3312 0.929 . S
C3320 C3321 1.377 . S
C3320 C3322 1.384 . S
C3321 C3320 1.377 . S
C3321 C3327 1.390 . S
C3322 H3313 0.930 . S
C3322 C3320 1.384 . S
C3322 C3323 1.372 . S
C3323 C3322 1.372 . S
C3323 C3324 1.400 . S
C3323 C3328 1.490 . S
C3324 H3314 0.930 . S
C3324 C3323 1.400 . S
C3324 C3327 1.386 . S
H3325 C3341 0.930 . S
H3326 C3342 0.931 . S
C3327 H3315 0.929 . S
C3327 C3321 1.390 . S
C3327 C3324 1.386 . S
C3328 C3323 1.490 . S
C3328 C3330 1.395 . S
C3328 C3331 1.403 . S
H3329 C3335 0.930 . S
C3330 H3316 0.930 . S
C3330 C3328 1.395 . S
C3330 C3333 1.403 . S
C3331 C3328 1.403 . S
C3331 C3332 1.524 . S
C3331 C3335 1.400 . S
C3332 H3317 0.960 . S
C3332 H3318 0.960 . S
C3332 H3319 0.960 . S
C3332 C3331 1.524 . S
C3333 C3330 1.403 . S
C3333 C3334 1.392 . S
C3333 C3337 1.495 . S
C3334 C3333 1.392 . S
C3334 C3335 1.385 . S
C3334 C3336 1.478 . S
C3335 H3329 0.930 . S
C3335 C3331 1.400 . S
C3335 C3334 1.385 . S
C3336 C3334 1.478 . S
C3336 C3338 1.381 . S
C3336 C3342 1.383 . S
C3337 C3333 1.495 . S
C3337 H3343 0.959 . S
C3337 H3344 0.961 . S
C3337 H3345 0.960 . S
C3338 C3336 1.381 . S
C3338 C3339 1.394 . S
C3338 H3346 0.930 . S
C3339 C3338 1.394 . S
C3339 C3340 1.383 . S
C3339 H3347 0.929 . S
C3340 C3339 1.383 . S
C3340 C3341 1.377 . S
C3341 H3325 0.930 . S
C3341 C3340 1.377 . S
C3341 C3342 1.379 . S
C3342 H3326 0.931 . S
C3342 C3336 1.383 . S
C3342 C3341 1.379 . S
H3343 C3337 0.959 . S
H3344 C3337 0.961 . S
H3345 C3337 0.960 . S
H3346 C3338 0.930 . S
H3347 C3339 0.929 . S
C1413 C469 1.415 . S
C1432 C715 1.360 . S
C1449 C505 1.445 . S
C1468 C799 1.397 . S
C1485 C433 1.452 . S
C1504 C879 1.383 . S
C1521 C397 1.404 . S
C1540 C795 1.381 . S
C1576 C883 1.313 . S
C1557 C325 1.371 . S
C1593 C361 1.379 . S
C1612 C711 1.309 . S
C1648 C704 1.333 . S
C1629 C421 1.416 . S
C1684 C788 1.336 . S
C1665 C349 1.444 . S
C1701 C385 1.452 . S
C1720 C890 1.431 . S
C1737 C493 1.401 . S
C1756 C806 1.346 . S
C1773 C529 1.371 . S
C1792 C872 1.270 . S
C1828 C722 1.354 . S
C1809 C457 1.380 . S
C1864 C967 1.328 . S
C1845 C37 1.416 . S
C1881 C73 1.445 . S
C1900 C1051 1.394 . S
C1917 C1 1.452 . S
C1936 C1131 1.383 . S
C1953 C613 1.403 . S
C1972 C1047 1.350 . S
C1989 C541 1.371 . S
C2008 C1135 1.320 . S
C2025 C577 1.381 . S
C2044 C963 1.363 . S
C2061 C637 1.415 . S
C2080 C956 1.346 . S
C2097 C565 1.444 . S
C2116 C1040 1.335 . S
C2152 C1142 1.381 . S
C2133 C601 1.449 . S
C2169 C61 1.402 . S
C2188 C1058 1.344 . S
C2224 C1124 1.325 . S
C2205 C97 1.369 . S
C2241 C25 1.380 . S
C2260 C974 1.359 . S
C2296 C1219 1.334 . S
C2277 C253 1.415 . S
C2313 C289 1.444 . S
C2332 C1303 1.357 . S
C2368 C1383 1.425 . S
C2349 C217 1.453 . S
C2404 C1299 1.384 . S
C2385 C181 1.404 . S
C2440 C1387 1.329 . S
C2421 C109 1.371 . S
C2457 C145 1.381 . S
C2476 C1215 1.363 . S
C2493 C205 1.414 . S
C2512 C1208 1.322 . S
C2529 C133 1.444 . S
C2548 C1292 1.349 . S
C2584 C1394 1.430 . S
C2565 C169 1.452 . S
C2601 C277 1.401 . S
C2620 C1310 1.344 . S
C2637 C313 1.369 . S
C2656 C1376 1.323 . S
C2673 C241 1.378 . S
C2692 C1226 1.310 . S
C2709 C571 1.417 . S
C2728 C718 1.257 . S
C2764 C802 1.336 . S
C2745 C607 1.499 . S
C2781 C643 1.453 . S
C2800 C874 1.277 . S
C2817 C247 1.499 . S
C2836 C790 1.332 . S
C2853 C283 1.454 . S
C2872 C886 1.282 . S
C2908 C706 1.339 . S
C2889 C319 1.416 . S
C2925 C139 1.417 . S
C2944 C970 1.321 . S
C2961 C175 1.499 . S
C2980 C1054 1.339 . S
C2997 C211 1.455 . S
C3016 C1126 1.358 . S
C3033 C463 1.499 . S
C3052 C1042 1.392 . S
C3088 C1138 1.343 . S
C3069 C499 1.453 . S
C3105 C535 1.417 . S
C3124 C958 1.341 . S
C3141 C355 1.416 . S
C3160 C1222 1.268 . S
C3177 C391 1.498 . S
C3196 C1306 1.392 . S
C3232 C1378 1.274 . S
C3213 C427 1.453 . S
C3249 C31 1.499 . S
C3268 C1294 1.339 . S
C3285 C67 1.455 . S
C3304 C1390 1.287 . S
C3321 C103 1.418 . S
C3340 C1210 1.284 . S
