# Generated by pormake.
# Topology eea, (3,6)-cn, num edge types: 1
# Building blocks:
#     Node 0, Type 0, BuildingBlock: BETDIP_clean_linker_0, # of connection points: 3
#     Node 1, Type 0, BuildingBlock: BETDIP_clean_linker_0, # of connection points: 3
#     Node 2, Type 0, BuildingBlock: BETDIP_clean_linker_0, # of connection points: 3
#     Node 3, Type 0, BuildingBlock: BETDIP_clean_linker_0, # of connection points: 3
#     Node 4, Type 0, BuildingBlock: BETDIP_clean_linker_0, # of connection points: 3
#     Node 5, Type 0, BuildingBlock: BETDIP_clean_linker_0, # of connection points: 3
#     Node 6, Type 0, BuildingBlock: BETDIP_clean_linker_0, # of connection points: 3
#     Node 7, Type 0, BuildingBlock: BETDIP_clean_linker_0, # of connection points: 3
#     Node 8, Type 0, BuildingBlock: BETDIP_clean_linker_0, # of connection points: 3
#     Node 9, Type 0, BuildingBlock: BETDIP_clean_linker_0, # of connection points: 3
#     Node 10, Type 0, BuildingBlock: BETDIP_clean_linker_0, # of connection points: 3
#     Node 11, Type 0, BuildingBlock: BETDIP_clean_linker_0, # of connection points: 3
#     Node 12, Type 0, BuildingBlock: BETDIP_clean_linker_0, # of connection points: 3
#     Node 13, Type 0, BuildingBlock: BETDIP_clean_linker_0, # of connection points: 3
#     Node 14, Type 0, BuildingBlock: BETDIP_clean_linker_0, # of connection points: 3
#     Node 15, Type 0, BuildingBlock: BETDIP_clean_linker_0, # of connection points: 3
#     Node 16, Type 0, BuildingBlock: BETDIP_clean_linker_0, # of connection points: 3
#     Node 17, Type 0, BuildingBlock: BETDIP_clean_linker_0, # of connection points: 3
#     Node 18, Type 1, BuildingBlock: CUKXOW_clean_sbu_0, # of connection points: 6
#     Node 19, Type 1, BuildingBlock: CUKXOW_clean_sbu_0, # of connection points: 6
#     Node 20, Type 1, BuildingBlock: CUKXOW_clean_sbu_0, # of connection points: 6
#     Node 21, Type 1, BuildingBlock: CUKXOW_clean_sbu_0, # of connection points: 6
#     Node 22, Type 1, BuildingBlock: CUKXOW_clean_sbu_0, # of connection points: 6
#     Node 23, Type 1, BuildingBlock: CUKXOW_clean_sbu_0, # of connection points: 6
#     Node 24, Type 1, BuildingBlock: CUKXOW_clean_sbu_0, # of connection points: 6
#     Node 25, Type 1, BuildingBlock: CUKXOW_clean_sbu_0, # of connection points: 6
#     Node 26, Type 1, BuildingBlock: CUKXOW_clean_sbu_0, # of connection points: 6
#     Edge 27, Type (0, 1), BuildingBlock: MIFKUJ_clean_linker_0, # of connection points: 2
#     Edge 28, Type (0, 1), BuildingBlock: MIFKUJ_clean_linker_0, # of connection points: 2
#     Edge 29, Type (0, 1), BuildingBlock: MIFKUJ_clean_linker_0, # of connection points: 2
#     Edge 30, Type (0, 1), BuildingBlock: MIFKUJ_clean_linker_0, # of connection points: 2
#     Edge 31, Type (0, 1), BuildingBlock: MIFKUJ_clean_linker_0, # of connection points: 2
#     Edge 32, Type (0, 1), BuildingBlock: MIFKUJ_clean_linker_0, # of connection points: 2
#     Edge 33, Type (0, 1), BuildingBlock: MIFKUJ_clean_linker_0, # of connection points: 2
#     Edge 34, Type (0, 1), BuildingBlock: MIFKUJ_clean_linker_0, # of connection points: 2
#     Edge 35, Type (0, 1), BuildingBlock: MIFKUJ_clean_linker_0, # of connection points: 2
#     Edge 36, Type (0, 1), BuildingBlock: MIFKUJ_clean_linker_0, # of connection points: 2
#     Edge 37, Type (0, 1), BuildingBlock: MIFKUJ_clean_linker_0, # of connection points: 2
#     Edge 38, Type (0, 1), BuildingBlock: MIFKUJ_clean_linker_0, # of connection points: 2
#     Edge 39, Type (0, 1), BuildingBlock: MIFKUJ_clean_linker_0, # of connection points: 2
#     Edge 40, Type (0, 1), BuildingBlock: MIFKUJ_clean_linker_0, # of connection points: 2
#     Edge 41, Type (0, 1), BuildingBlock: MIFKUJ_clean_linker_0, # of connection points: 2
#     Edge 42, Type (0, 1), BuildingBlock: MIFKUJ_clean_linker_0, # of connection points: 2
#     Edge 43, Type (0, 1), BuildingBlock: MIFKUJ_clean_linker_0, # of connection points: 2
#     Edge 44, Type (0, 1), BuildingBlock: MIFKUJ_clean_linker_0, # of connection points: 2
#     Edge 45, Type (0, 1), BuildingBlock: MIFKUJ_clean_linker_0, # of connection points: 2
#     Edge 46, Type (0, 1), BuildingBlock: MIFKUJ_clean_linker_0, # of connection points: 2
#     Edge 47, Type (0, 1), BuildingBlock: MIFKUJ_clean_linker_0, # of connection points: 2
#     Edge 48, Type (0, 1), BuildingBlock: MIFKUJ_clean_linker_0, # of connection points: 2
#     Edge 49, Type (0, 1), BuildingBlock: MIFKUJ_clean_linker_0, # of connection points: 2
#     Edge 50, Type (0, 1), BuildingBlock: MIFKUJ_clean_linker_0, # of connection points: 2
#     Edge 51, Type (0, 1), BuildingBlock: MIFKUJ_clean_linker_0, # of connection points: 2
#     Edge 52, Type (0, 1), BuildingBlock: MIFKUJ_clean_linker_0, # of connection points: 2
#     Edge 53, Type (0, 1), BuildingBlock: MIFKUJ_clean_linker_0, # of connection points: 2
#     Edge 54, Type (0, 1), BuildingBlock: MIFKUJ_clean_linker_0, # of connection points: 2
#     Edge 55, Type (0, 1), BuildingBlock: MIFKUJ_clean_linker_0, # of connection points: 2
#     Edge 56, Type (0, 1), BuildingBlock: MIFKUJ_clean_linker_0, # of connection points: 2
#     Edge 57, Type (0, 1), BuildingBlock: MIFKUJ_clean_linker_0, # of connection points: 2
#     Edge 58, Type (0, 1), BuildingBlock: MIFKUJ_clean_linker_0, # of connection points: 2
#     Edge 59, Type (0, 1), BuildingBlock: MIFKUJ_clean_linker_0, # of connection points: 2
#     Edge 60, Type (0, 1), BuildingBlock: MIFKUJ_clean_linker_0, # of connection points: 2
#     Edge 61, Type (0, 1), BuildingBlock: MIFKUJ_clean_linker_0, # of connection points: 2
#     Edge 62, Type (0, 1), BuildingBlock: MIFKUJ_clean_linker_0, # of connection points: 2
#     Edge 63, Type (0, 1), BuildingBlock: MIFKUJ_clean_linker_0, # of connection points: 2
#     Edge 64, Type (0, 1), BuildingBlock: MIFKUJ_clean_linker_0, # of connection points: 2
#     Edge 65, Type (0, 1), BuildingBlock: MIFKUJ_clean_linker_0, # of connection points: 2
#     Edge 66, Type (0, 1), BuildingBlock: MIFKUJ_clean_linker_0, # of connection points: 2
#     Edge 67, Type (0, 1), BuildingBlock: MIFKUJ_clean_linker_0, # of connection points: 2
#     Edge 68, Type (0, 1), BuildingBlock: MIFKUJ_clean_linker_0, # of connection points: 2
#     Edge 69, Type (0, 1), BuildingBlock: MIFKUJ_clean_linker_0, # of connection points: 2
#     Edge 70, Type (0, 1), BuildingBlock: MIFKUJ_clean_linker_0, # of connection points: 2
#     Edge 71, Type (0, 1), BuildingBlock: MIFKUJ_clean_linker_0, # of connection points: 2
#     Edge 72, Type (0, 1), BuildingBlock: MIFKUJ_clean_linker_0, # of connection points: 2
#     Edge 73, Type (0, 1), BuildingBlock: MIFKUJ_clean_linker_0, # of connection points: 2
#     Edge 74, Type (0, 1), BuildingBlock: MIFKUJ_clean_linker_0, # of connection points: 2
#     Edge 75, Type (0, 1), BuildingBlock: MIFKUJ_clean_linker_0, # of connection points: 2
#     Edge 76, Type (0, 1), BuildingBlock: MIFKUJ_clean_linker_0, # of connection points: 2
#     Edge 77, Type (0, 1), BuildingBlock: MIFKUJ_clean_linker_0, # of connection points: 2
#     Edge 78, Type (0, 1), BuildingBlock: MIFKUJ_clean_linker_0, # of connection points: 2
#     Edge 79, Type (0, 1), BuildingBlock: MIFKUJ_clean_linker_0, # of connection points: 2
#     Edge 80, Type (0, 1), BuildingBlock: MIFKUJ_clean_linker_0, # of connection points: 2
# Relax obj value: 0.035
# Max RMSD: 0.159
# Mean RMSD: 0.097
data_MOF--net-eea--node1-CUKXOW_clean_sbu_0--node2-BETDIP_clean_linker_0--edge1-MIFKUJ_clean_linker_0
_symmetry_space_group_name_H-M    P1
_symmetry_Int_Tables_number       1
_symmetry_cell_setting            triclinic
loop_
_symmetry_equiv_pos_as_xyz
'x, y, z'
_cell_length_a     77.009962
_cell_length_b     73.690708
_cell_length_c     66.682189
_cell_angle_alpha  93.059056
_cell_angle_beta   93.150858
_cell_angle_gamma 119.88271
loop_
_atom_site_label
_atom_site_type_symbol
_atom_site_fract_x
_atom_site_fract_y
_atom_site_fract_z
_atom_type_partial_charge
H0 H 0.21306 0.10014 0.39207 0.0
H1 H 0.2331 0.14096 0.4471 0.0
H2 H 0.23715 0.08481 0.44393 0.0
H3 H 0.24133 0.16586 0.42569 0.0
C4 C 0.2287 0.15864 0.41414 0.0
C5 C 0.2195 0.10386 0.40763 0.0
C6 C 0.22444 0.09017 0.41693 0.0
C7 C 0.2235 0.12272 0.4181 0.0
C8 C 0.23132 0.12719 0.43847 0.0
C9 C 0.23633 0.11366 0.44801 0.0
C10 C 0.23309 0.0953 0.43696 0.0
N11 N 0.21935 0.1368 0.40792 0.0
H12 H 0.90844 0.11437 0.40405 0.0
H13 H 0.87037 0.09762 0.45245 0.0
H14 H 0.9227 0.15934 0.45497 0.0
H15 H 0.86824 0.0647 0.44108 0.0
C16 C 0.86376 0.06535 0.42551 0.0
C17 C 0.905 0.11866 0.41848 0.0
C18 C 0.91809 0.13841 0.42895 0.0
C19 C 0.88789 0.10392 0.42697 0.0
C20 C 0.88357 0.10913 0.44592 0.0
C21 C 0.89603 0.12913 0.45629 0.0
C22 C 0.9132 0.14366 0.44753 0.0
N23 N 0.87492 0.08409 0.41601 0.0
H24 H 0.88534 0.77468 0.40545 0.0
H25 H 0.90412 0.75319 0.45647 0.0
H26 H 0.84943 0.75517 0.45575 0.0
H27 H 0.92016 0.74548 0.43359 0.0
C28 C 0.92601 0.75903 0.42488 0.0
C29 C 0.88278 0.76879 0.42018 0.0
C30 C 0.86539 0.7651 0.42926 0.0
C31 C 0.8967 0.76431 0.42974 0.0
C32 C 0.89339 0.75645 0.44878 0.0
C33 C 0.87615 0.75272 0.45807 0.0
C34 C 0.86239 0.75732 0.4483 0.0
N35 N 0.91411 0.76829 0.42008 0.0
H36 H 0.09601 0.2123 0.59903 0.0
H37 H 0.13313 0.24066 0.55121 0.0
H38 H 0.08294 0.24943 0.55994 0.0
H39 H 0.14305 0.2178 0.55537 0.0
C40 C 0.14236 0.21501 0.5712 0.0
C41 C 0.09927 0.2216 0.58625 0.0
C42 C 0.08727 0.23028 0.58065 0.0
C43 C 0.11574 0.22506 0.57566 0.0
C44 C 0.12036 0.23762 0.55937 0.0
C45 C 0.10859 0.24651 0.55355 0.0
C46 C 0.09208 0.24266 0.56428 0.0
N47 N 0.12774 0.21641 0.58234 0.0
H48 H 0.79435 0.88649 0.62596 0.0
H49 H 0.77597 0.90461 0.57219 0.0
H50 H 0.76888 0.84291 0.57272 0.0
H51 H 0.80766 0.9361 0.5848 0.0
C52 C 0.8027 0.93685 0.59963 0.0
C53 C 0.78779 0.88271 0.61044 0.0
C54 C 0.7817 0.86291 0.6005 0.0
C55 C 0.78643 0.89806 0.60005 0.0
C56 C 0.77789 0.89308 0.57993 0.0
C57 C 0.7712 0.87311 0.57 0.0
C58 C 0.77344 0.8582 0.58035 0.0
N59 N 0.79365 0.9184 0.60999 0.0
H60 H 0.11645 0.91152 0.61634 0.0
H61 H 0.09456 0.87174 0.56064 0.0
H62 H 0.15583 0.9226 0.56941 0.0
H63 H 0.06483 0.86998 0.56947 0.0
C64 C 0.06585 0.8669 0.58512 0.0
C65 C 0.11905 0.90748 0.60137 0.0
C66 C 0.13801 0.91933 0.5942 0.0
C67 C 0.1033 0.89045 0.58931 0.0
C68 C 0.10663 0.885 0.56994 0.0
C69 C 0.12557 0.89649 0.56258 0.0
C70 C 0.14116 0.91361 0.57488 0.0
N71 N 0.08446 0.87862 0.59726 0.0
H72 H 0.88412 0.44156 0.72128 0.0
H73 H 0.91282 0.48429 0.77495 0.0
H74 H 0.90751 0.4234 0.77151 0.0
H75 H 0.9182 0.50854 0.75356 0.0
C76 C 0.9043 0.50139 0.74371 0.0
C77 C 0.89182 0.44522 0.7363 0.0
C78 C 0.89508 0.43023 0.74525 0.0
C79 C 0.89828 0.46488 0.7468 0.0
C80 C 0.90805 0.4694 0.76646 0.0
C81 C 0.91173 0.45464 0.77534 0.0
C82 C 0.90503 0.43506 0.76467 0.0
N83 N 0.89414 0.47947 0.73755 0.0
H84 H 0.5714 0.45159 0.73429 0.0
H85 H 0.53212 0.43952 0.78136 0.0
H86 H 0.58181 0.50184 0.77811 0.0
H87 H 0.53063 0.40727 0.77692 0.0
C88 C 0.52792 0.40485 0.76057 0.0
C89 C 0.56725 0.45721 0.7475 0.0
C90 C 0.57869 0.47843 0.75514 0.0
C91 C 0.55056 0.44307 0.75697 0.0
C92 C 0.54506 0.45035 0.77404 0.0
C93 C 0.55626 0.47154 0.78182 0.0
C94 C 0.57299 0.48548 0.77218 0.0
N95 N 0.53932 0.42171 0.74884 0.0
H96 H 0.56091 0.12513 0.75071 0.0
H97 H 0.57879 0.10108 0.80039 0.0
H98 H 0.52142 0.09708 0.79723 0.0
H99 H 0.59913 0.09931 0.78009 0.0
C100 C 0.60382 0.11239 0.77088 0.0
C101 C 0.55776 0.11769 0.76468 0.0
C102 C 0.53928 0.11157 0.77271 0.0
C103 C 0.57204 0.11364 0.77424 0.0
C104 C 0.56785 0.10375 0.79227 0.0
C105 C 0.54957 0.09762 0.80043 0.0
C106 C 0.53549 0.10175 0.79075 0.0
N107 N 0.59048 0.11985 0.76555 0.0
H108 H 0.75901 0.5375 0.93442 0.0
H109 H 0.79621 0.56748 0.88707 0.0
H110 H 0.74074 0.56703 0.89027 0.0
H111 H 0.82057 0.57054 0.90807 0.0
C112 C 0.81412 0.55681 0.91651 0.0
C113 C 0.76167 0.54619 0.92124 0.0
C114 C 0.74742 0.55131 0.9135 0.0
C115 C 0.77954 0.55236 0.91219 0.0
C116 C 0.78291 0.56322 0.89483 0.0
C117 C 0.76888 0.56835 0.88691 0.0
C118 C 0.75118 0.56238 0.89619 0.0
N119 N 0.79367 0.5472 0.92076 0.0
H120 H 0.45678 0.21771 0.96699 0.0
H121 H 0.43949 0.2383 0.91427 0.0
H122 H 0.43566 0.17801 0.91103 0.0
H123 H 0.47093 0.26953 0.92947 0.0
C124 C 0.46499 0.26921 0.94395 0.0
C125 C 0.451 0.21479 0.95125 0.0
C126 C 0.4466 0.19604 0.94007 0.0
C127 C 0.44909 0.23036 0.94185 0.0
C128 C 0.44151 0.22655 0.92146 0.0
C129 C 0.43658 0.20767 0.91028 0.0
C130 C 0.43947 0.19265 0.91959 0.0
N131 N 0.45518 0.24992 0.95292 0.0
H132 H 0.78088 0.24026 0.94737 0.0
H133 H 0.75847 0.20043 0.89174 0.0
H134 H 0.81972 0.25119 0.89982 0.0
H135 H 0.72938 0.20166 0.90032 0.0
C136 C 0.72994 0.19775 0.91574 0.0
C137 C 0.78338 0.23624 0.93235 0.0
C138 C 0.80231 0.24799 0.92506 0.0
C139 C 0.76745 0.2194 0.92029 0.0
C140 C 0.77063 0.21372 0.90097 0.0
C141 C 0.78949 0.22505 0.89353 0.0
C142 C 0.8052 0.24224 0.90561 0.0
N143 N 0.74849 0.20806 0.92808 0.0
H144 H 0.54659 0.76886 0.05059 0.0
H145 H 0.56925 0.81084 0.10494 0.0
H146 H 0.56777 0.75177 0.10348 0.0
H147 H 0.57936 0.83499 0.08022 0.0
C148 C 0.56498 0.82794 0.07115 0.0
C149 C 0.55278 0.77228 0.06622 0.0
C150 C 0.55669 0.75793 0.07571 0.0
C151 C 0.55768 0.79156 0.07648 0.0
C152 C 0.56597 0.79626 0.09668 0.0
C153 C 0.56948 0.78188 0.10654 0.0
C154 C 0.56483 0.76279 0.09596 0.0
N155 N 0.5538 0.80581 0.06631 0.0
H156 H 0.24122 0.7815 0.06981 0.0
H157 H 0.19607 0.76483 0.11118 0.0
H158 H 0.24951 0.82578 0.11953 0.0
H159 H 0.20054 0.73281 0.1047 0.0
C160 C 0.19613 0.7323 0.08881 0.0
C161 C 0.23588 0.78581 0.08291 0.0
C162 C 0.24776 0.80561 0.09388 0.0
C163 C 0.21753 0.77098 0.08942 0.0
C164 C 0.21057 0.77616 0.10659 0.0
C165 C 0.22197 0.79595 0.11753 0.0
C166 C 0.24054 0.81055 0.11105 0.0
N167 N 0.20619 0.75079 0.07867 0.0
H168 H 0.22363 0.45023 0.07811 0.0
H169 H 0.24786 0.43812 0.13192 0.0
H170 H 0.18718 0.42621 0.12751 0.0
H171 H 0.27678 0.46625 0.12262 0.0
C172 C 0.27524 0.46119 0.10669 0.0
C173 C 0.22174 0.44505 0.09316 0.0
C174 C 0.20339 0.43838 0.10154 0.0
C175 C 0.23791 0.44539 0.10416 0.0
C176 C 0.23553 0.43828 0.1235 0.0
C177 C 0.21723 0.4312 0.132 0.0
C178 C 0.20128 0.43143 0.12095 0.0
N179 N 0.25628 0.45253 0.09529 0.0
H180 H 0.43281 0.88997 0.27554 0.0
H181 H 0.46661 0.90921 0.22398 0.0
H182 H 0.40821 0.90349 0.22272 0.0
H183 H 0.49278 0.91999 0.24734 0.0
C184 C 0.48715 0.9071 0.25688 0.0
C185 C 0.43412 0.89474 0.26034 0.0
C186 C 0.41849 0.89627 0.25023 0.0
C187 C 0.45153 0.89942 0.25103 0.0
C188 C 0.4532 0.90554 0.23128 0.0
C189 C 0.43769 0.90717 0.2209 0.0
C190 C 0.42028 0.90229 0.23048 0.0
N191 N 0.46685 0.8973 0.26165 0.0
H192 H 0.12684 0.54894 0.2987 0.0
H193 H 0.10705 0.56614 0.24519 0.0
H194 H 0.09242 0.50213 0.2491 0.0
H195 H 0.13889 0.59721 0.25535 0.0
C196 C 0.13553 0.59877 0.27076 0.0
C197 C 0.11887 0.54455 0.28375 0.0
C198 C 0.10969 0.52363 0.27523 0.0
C199 C 0.11821 0.55999 0.27293 0.0
C200 C 0.10803 0.55439 0.25349 0.0
C201 C 0.09851 0.5335 0.24491 0.0
C202 C 0.09924 0.51816 0.25592 0.0
N203 N 0.12746 0.58095 0.28202 0.0
H204 H 0.45845 0.56257 0.29367 0.0
H205 H 0.44451 0.52301 0.23838 0.0
H206 H 0.50278 0.57812 0.2513 0.0
H207 H 0.41321 0.51193 0.24412 0.0
C208 C 0.41264 0.5127 0.26034 0.0
C209 C 0.46294 0.55898 0.27956 0.0
C210 C 0.48231 0.57238 0.27399 0.0
C211 C 0.44916 0.54106 0.2669 0.0
C212 C 0.45495 0.53664 0.24839 0.0
C213 C 0.47419 0.55011 0.24246 0.0
C214 C 0.48787 0.56765 0.25562 0.0
N215 N 0.42968 0.52795 0.27322 0.0
Tb216 Tb 0.51375 0.01856 0.00721 0.0
C217 C 0.50142 0.97253 0.01499 0.0
Tb218 Tb 0.46936 0.98798 0.0136 0.0
O219 O 0.52311 0.02056 0.03919 0.0
O220 O 0.49431 0.01428 0.02985 0.0
O221 O 0.51382 0.98904 0.00565 0.0
C222 C 0.43514 0.96077 0.02814 0.0
O223 O 0.48427 0.97006 0.02109 0.0
C224 C 0.47827 0.99221 0.9762 0.0
C225 C 0.4814 0.03399 0.00526 0.0
O226 O 0.43909 0.96039 0.00951 0.0
O227 O 0.45041 0.97656 0.03858 0.0
O228 O 0.46081 0.98802 0.9817 0.0
O229 O 0.48897 0.9922 0.9911 0.0
O230 O 0.46782 0.01667 0.01277 0.0
O231 O 0.49942 0.03726 0.00122 0.0
C232 C 0.54743 0.0454 0.99156 0.0
O233 O 0.5466 0.03755 0.00867 0.0
O234 O 0.52932 0.03813 0.98325 0.0
C235 C 0.50543 0.01511 0.04479 0.0
Tb236 Tb 0.98665 0.49597 0.00854 0.0
C237 C 0.03226 0.52811 0.01829 0.0
Tb238 Tb 0.01581 0.47901 0.01287 0.0
O239 O 0.99219 0.50801 0.04022 0.0
O240 O 0.99596 0.48267 0.0313 0.0
O241 O 0.01515 0.52517 0.00925 0.0
C242 C 0.04398 0.46975 0.02431 0.0
O243 O 0.03459 0.51228 0.02362 0.0
C244 C 0.00362 0.47948 0.97556 0.0
C245 C 0.97001 0.44679 0.00359 0.0
O246 O 0.04632 0.48427 0.01277 0.0
O247 O 0.0257 0.46033 0.02944 0.0
O248 O 0.01051 0.46744 0.98093 0.0
O249 O 0.00656 0.4924 0.99031 0.0
O250 O 0.98741 0.44954 0.01162 0.0
O251 O 0.96739 0.46258 0.99885 0.0
C252 C 0.95895 0.50544 0.99589 0.0
O253 O 0.95649 0.49179 0.00856 0.0
O254 O 0.97712 0.51402 0.99055 0.0
C255 C 0.99889 0.49586 0.04585 0.0
Tb256 Tb 0.49117 0.5097 0.00795 0.0
C257 C 0.50438 0.4754 0.0055 0.0
Tb258 Tb 0.53638 0.52447 0.00653 0.0
O259 O 0.48788 0.51737 0.9772 0.0
O260 O 0.51022 0.51064 0.98598 0.0
O261 O 0.48957 0.4793 0.00862 0.0
C262 C 0.5717 0.53021 0.99674 0.0
O263 O 0.52314 0.49036 0.00346 0.0
C264 C 0.52483 0.52937 0.04173 0.0
C265 C 0.52284 0.55772 0.00491 0.0
O266 O 0.56421 0.52378 0.01368 0.0
O267 O 0.55947 0.53362 0.98563 0.0
O268 O 0.54271 0.54174 0.03648 0.0
O269 O 0.5153 0.51448 0.02822 0.0
O270 O 0.53642 0.55286 0.99951 0.0
O271 O 0.50546 0.54397 0.01143 0.0
C272 C 0.45627 0.49902 0.02241 0.0
O273 O 0.45829 0.491 0.00543 0.0
O274 O 0.47383 0.51286 0.03114 0.0
C275 C 0.50414 0.51777 0.97221 0.0
Tb276 Tb 0.1847 0.35272 0.34484 0.0
C277 C 0.17131 0.30512 0.35049 0.0
Tb278 Tb 0.13917 0.32048 0.34695 0.0
O279 O 0.18635 0.36933 0.37397 0.0
O280 O 0.16521 0.33782 0.36705 0.0
O281 O 0.1863 0.32419 0.34773 0.0
C282 C 0.10411 0.29195 0.35866 0.0
O283 O 0.15226 0.30045 0.35091 0.0
C284 C 0.1507 0.33006 0.31105 0.0
C285 C 0.15255 0.36733 0.34104 0.0
O286 O 0.11004 0.29149 0.34088 0.0
O287 O 0.1178 0.30851 0.36973 0.0
O288 O 0.13274 0.32483 0.31575 0.0
O289 O 0.16053 0.3284 0.32581 0.0
O290 O 0.13943 0.35025 0.34922 0.0
O291 O 0.17 0.3701 0.3356 0.0
C292 C 0.22115 0.3753 0.33229 0.0
O293 O 0.21758 0.37008 0.35057 0.0
O294 O 0.20425 0.36777 0.32115 0.0
C295 C 0.17025 0.35344 0.37942 0.0
Tb296 Tb 0.65417 0.83231 0.33557 0.0
C297 C 0.69974 0.86531 0.34526 0.0
Tb298 Tb 0.68421 0.81612 0.34025 0.0
O299 O 0.6598 0.84453 0.36739 0.0
O300 O 0.66427 0.81978 0.35821 0.0
O301 O 0.68227 0.86212 0.33689 0.0
C302 C 0.71257 0.80741 0.35248 0.0
O303 O 0.70275 0.84969 0.3498 0.0
C304 C 0.67113 0.81568 0.3031 0.0
C305 C 0.63837 0.78316 0.3323 0.0
O306 O 0.71434 0.8204 0.33929 0.0
O307 O 0.69476 0.79916 0.35874 0.0
O308 O 0.67753 0.80326 0.30867 0.0
O309 O 0.67443 0.82895 0.31764 0.0
O310 O 0.65608 0.78665 0.34025 0.0
O311 O 0.63521 0.79852 0.3271 0.0
C312 C 0.62637 0.8414 0.32213 0.0
O313 O 0.62486 0.83016 0.33698 0.0
O314 O 0.64356 0.8476 0.31494 0.0
C315 C 0.66703 0.83276 0.37282 0.0
Tb316 Tb 0.1567 0.83552 0.34656 0.0
C317 C 0.17155 0.80412 0.33705 0.0
Tb318 Tb 0.20168 0.85359 0.34219 0.0
O319 O 0.14864 0.82209 0.3152 0.0
O320 O 0.17635 0.84935 0.32383 0.0
O321 O 0.15776 0.80659 0.34594 0.0
C322 C 0.23797 0.86336 0.33175 0.0
O323 O 0.18839 0.82023 0.33188 0.0
C324 C 0.19177 0.85303 0.37924 0.0
C325 C 0.18659 0.88515 0.34977 0.0
O326 O 0.2283 0.85021 0.34468 0.0
O327 O 0.22719 0.87099 0.32452 0.0
O328 O 0.20912 0.86674 0.37383 0.0
O329 O 0.18196 0.83968 0.36455 0.0
O330 O 0.20077 0.88251 0.34203 0.0
O331 O 0.16949 0.86923 0.35466 0.0
C332 C 0.12158 0.82618 0.36017 0.0
O333 O 0.12835 0.83569 0.34414 0.0
O334 O 0.13441 0.82158 0.36834 0.0
C335 C 0.16595 0.83562 0.30946 0.0
Tb336 Tb 0.84956 0.68919 0.67822 0.0
C337 C 0.83727 0.64355 0.68638 0.0
Tb338 Tb 0.80465 0.65744 0.68137 0.0
O339 O 0.85714 0.69065 0.71069 0.0
O340 O 0.82845 0.6831 0.6995 0.0
O341 O 0.84924 0.65947 0.67616 0.0
C342 C 0.76897 0.62953 0.69267 0.0
O343 O 0.82043 0.64164 0.69277 0.0
C344 C 0.81559 0.66303 0.64467 0.0
C345 C 0.81696 0.70397 0.67394 0.0
O346 O 0.77967 0.62514 0.68115 0.0
O347 O 0.77836 0.64958 0.69788 0.0
O348 O 0.79737 0.6569 0.64905 0.0
O349 O 0.82586 0.66337 0.66014 0.0
O350 O 0.80268 0.68582 0.67949 0.0
O351 O 0.83561 0.70806 0.67194 0.0
C352 C 0.88391 0.71669 0.66402 0.0
O353 O 0.866 0.71134 0.65639 0.0
O354 O 0.88256 0.70665 0.67981 0.0
C355 C 0.83879 0.6838 0.71507 0.0
Tb356 Tb 0.32148 0.16791 0.67651 0.0
C357 C 0.36729 0.19982 0.68458 0.0
Tb358 Tb 0.35025 0.15019 0.6822 0.0
O359 O 0.32943 0.18224 0.70767 0.0
O360 O 0.33062 0.15508 0.69964 0.0
O361 O 0.3499 0.19695 0.67635 0.0
C362 C 0.37925 0.14271 0.6953 0.0
O363 O 0.3697 0.18407 0.6901 0.0
C364 C 0.33713 0.14931 0.64504 0.0
C365 C 0.30422 0.11815 0.67508 0.0
O366 O 0.37976 0.15315 0.68007 0.0
O367 O 0.36223 0.13613 0.70303 0.0
O368 O 0.34239 0.13608 0.65095 0.0
O369 O 0.34128 0.16318 0.65923 0.0
O370 O 0.32194 0.12092 0.68212 0.0
O371 O 0.30136 0.13388 0.6705 0.0
C372 C 0.29404 0.17682 0.66135 0.0
O373 O 0.29462 0.1707 0.67916 0.0
O374 O 0.30902 0.17814 0.65221 0.0
C375 C 0.33474 0.16907 0.71374 0.0
Tb376 Tb 0.82646 0.1751 0.67956 0.0
C377 C 0.83846 0.14194 0.66705 0.0
Tb378 Tb 0.87131 0.19073 0.67483 0.0
O379 O 0.81799 0.16443 0.64747 0.0
O380 O 0.84672 0.18929 0.65753 0.0
O381 O 0.82528 0.145 0.67656 0.0
C382 C 0.90664 0.19766 0.66339 0.0
O383 O 0.85585 0.15771 0.66246 0.0
C384 C 0.86103 0.18813 0.71188 0.0
C385 C 0.859 0.22418 0.68517 0.0
O386 O 0.8961 0.18418 0.67573 0.0
O387 O 0.89742 0.20746 0.65763 0.0
O388 O 0.8788 0.2016 0.70713 0.0
O389 O 0.85093 0.17617 0.69646 0.0
O390 O 0.87232 0.2208 0.67635 0.0
O391 O 0.84153 0.20865 0.68988 0.0
C392 C 0.79193 0.16721 0.69383 0.0
O393 O 0.79877 0.17664 0.67777 0.0
O394 O 0.80439 0.16194 0.70169 0.0
C395 C 0.83586 0.17717 0.64234 0.0
H396 H 0.28222 0.83131 0.11854 0.0
H397 H 0.3149 0.85759 0.10885 0.0
H398 H 0.29221 0.84044 0.04612 0.0
H399 H 0.25913 0.81456 0.05565 0.0
H400 H 0.33132 0.84473 0.05595 0.0
H401 H 0.29636 0.88386 0.06498 0.0
H402 H 0.27654 0.89536 0.08426 0.0
H403 H 0.32329 0.92178 0.13319 0.0
H404 H 0.34319 0.91012 0.11427 0.0
H405 H 0.40192 0.9285 0.00703 0.0
H406 H 0.3713 0.9021 0.0203 0.0
H407 H 0.39594 0.93125 0.0807 0.0
H408 H 0.42653 0.95805 0.06739 0.0
H409 H 0.35735 0.92052 0.07518 0.0
H410 H 0.39431 0.88557 0.06494 0.0
H411 H 0.41427 0.87357 0.04663 0.0
H412 H 0.36438 0.83804 0.00178 0.0
H413 H 0.3442 0.85006 0.01966 0.0
C414 C 0.28404 0.83326 0.10267 0.0
C415 C 0.26792 0.82095 0.08788 0.0
C416 C 0.30279 0.84819 0.09719 0.0
C417 C 0.30588 0.851 0.07681 0.0
C418 C 0.29008 0.83842 0.06194 0.0
C419 C 0.27122 0.8236 0.06742 0.0
C420 C 0.32551 0.86742 0.07105 0.0
C421 C 0.33695 0.86132 0.05991 0.0
C422 C 0.3331 0.88895 0.07694 0.0
C423 C 0.32127 0.89617 0.08823 0.0
C424 C 0.30237 0.89208 0.07987 0.0
C425 C 0.29111 0.8986 0.09074 0.0
C426 C 0.29865 0.90931 0.10994 0.0
C427 C 0.31748 0.91353 0.1183 0.0
C428 C 0.32878 0.90702 0.10749 0.0
C429 C 0.40078 0.92929 0.02314 0.0
C430 C 0.41656 0.94521 0.03622 0.0
C431 C 0.38334 0.91413 0.03073 0.0
C432 C 0.38147 0.91445 0.05156 0.0
C433 C 0.39711 0.93062 0.06462 0.0
C434 C 0.41455 0.94588 0.05701 0.0
C435 C 0.36307 0.89792 0.05952 0.0
C436 C 0.35186 0.90396 0.07123 0.0
C437 C 0.35578 0.87627 0.05431 0.0
C438 C 0.36779 0.86885 0.04356 0.0
C439 C 0.38764 0.87531 0.05109 0.0
C440 C 0.39898 0.86849 0.0408 0.0
C441 C 0.39061 0.85509 0.02303 0.0
C442 C 0.37085 0.84843 0.01554 0.0
C443 C 0.35944 0.85522 0.02576 0.0
H444 H 0.39942 0.84983 0.01508 0.0
H445 H 0.28991 0.91433 0.11834 0.0
H446 H 0.20602 0.46945 0.07896 0.0
H447 H 0.17848 0.47289 0.0635 0.0
H448 H 0.13546 0.41409 0.0847 0.0
H449 H 0.16294 0.40993 0.09924 0.0
H450 H 0.1225 0.41749 0.04829 0.0
H451 H 0.14851 0.46127 0.11062 0.0
H452 H 0.1746 0.48856 0.13548 0.0
H453 H 0.18831 0.53483 0.09324 0.0
H454 H 0.16248 0.50774 0.06801 0.0
H455 H 0.0403 0.43778 0.04588 0.0
H456 H 0.06712 0.43078 0.05712 0.0
H457 H 0.11007 0.48469 0.02903 0.0
H458 H 0.08336 0.49164 0.01764 0.0
H459 H 0.12249 0.4832 0.06893 0.0
H460 H 0.09501 0.4381 0.00681 0.0
H461 H 0.06794 0.41017 0.9832 0.0
H462 H 0.05557 0.3656 0.027 0.0
H463 H 0.08241 0.39335 0.051 0.0
C464 C 0.19072 0.45699 0.07994 0.0
C465 C 0.1867 0.43952 0.09055 0.0
C466 C 0.17498 0.45911 0.0713 0.0
C467 C 0.15493 0.44399 0.07336 0.0
C468 C 0.15083 0.42604 0.08309 0.0
C469 C 0.16656 0.4238 0.09157 0.0
C470 C 0.13829 0.44737 0.0662 0.0
C471 C 0.12238 0.43175 0.05298 0.0
C472 C 0.13822 0.46607 0.07219 0.0
C473 C 0.1537 0.48243 0.08736 0.0
C474 C 0.15719 0.47723 0.10658 0.0
C475 C 0.17192 0.49267 0.12075 0.0
C476 C 0.18314 0.51341 0.11592 0.0
C477 C 0.17962 0.51876 0.09694 0.0
C478 C 0.16493 0.50337 0.08271 0.0
C479 C 0.05546 0.44804 0.04205 0.0
C480 C 0.05983 0.46521 0.03089 0.0
C481 C 0.07071 0.44401 0.04841 0.0
C482 C 0.09051 0.45717 0.04378 0.0
C483 C 0.09487 0.47436 0.03271 0.0
C484 C 0.07962 0.47827 0.0262 0.0
C485 C 0.10686 0.45343 0.05092 0.0
C486 C 0.12266 0.46897 0.06423 0.0
C487 C 0.10666 0.43457 0.04521 0.0
C488 C 0.09058 0.41786 0.03078 0.0
C489 C 0.0864 0.42239 0.01148 0.0
C490 C 0.07112 0.40658 0.99801 0.0
C491 C 0.06 0.38614 0.00361 0.0
C492 C 0.06418 0.38145 0.02269 0.0
C493 C 0.07943 0.39721 0.03622 0.0
H494 H 0.04818 0.37392 0.99316 0.0
H495 H 0.19454 0.52534 0.12691 0.0
H496 H 0.58126 0.74113 0.07591 0.0
H497 H 0.57506 0.70837 0.05809 0.0
H498 H 0.51792 0.69754 0.03162 0.0
H499 H 0.52384 0.7302 0.0499 0.0
H500 H 0.51468 0.66237 0.04623 0.0
H501 H 0.55689 0.71278 0.00312 0.0
H502 H 0.58649 0.74505 0.99442 0.0
H503 H 0.62525 0.72256 0.01599 0.0
H504 H 0.5959 0.69027 0.02509 0.0
H505 H 0.49848 0.5719 0.99072 0.0
H506 H 0.50505 0.6081 0.99447 0.0
H507 H 0.56404 0.62868 0.02393 0.0
H508 H 0.55801 0.59274 0.0188 0.0
H509 H 0.56429 0.65949 0.00357 0.0
H510 H 0.52247 0.61192 0.05109 0.0
H511 H 0.49346 0.57693 0.05458 0.0
H512 H 0.45408 0.59381 0.02325 0.0
H513 H 0.48301 0.62871 0.01902 0.0
C514 C 0.56731 0.73173 0.0664 0.0
C515 C 0.55299 0.73821 0.06439 0.0
C516 C 0.56389 0.71312 0.05604 0.0
C517 C 0.54614 0.70063 0.04334 0.0
C518 C 0.53177 0.707 0.04128 0.0
C519 C 0.53522 0.72571 0.05162 0.0
C520 C 0.54243 0.6806 0.03279 0.0
C521 C 0.52536 0.66182 0.03662 0.0
C522 C 0.55648 0.67979 0.02044 0.0
C523 C 0.57419 0.69916 0.01493 0.0
C524 C 0.57174 0.71478 0.00615 0.0
C525 C 0.58847 0.73307 0.00112 0.0
C526 C 0.60774 0.73587 0.00469 0.0
C527 C 0.61031 0.72037 0.01325 0.0
C528 C 0.59363 0.70206 0.01832 0.0
C529 C 0.513 0.5843 0.99755 0.0
C530 C 0.52765 0.57966 0.00478 0.0
C531 C 0.51677 0.60494 -0.00033 0.0
C532 C 0.53482 0.62099 0.01003 0.0
C533 C 0.54998 0.61655 0.01599 0.0
C534 C 0.54649 0.59603 0.01319 0.0
C535 C 0.53677 0.64141 0.01725 0.0
C536 C 0.55353 0.66017 0.01295 0.0
C537 C 0.52252 0.64227 0.02924 0.0
C538 C 0.50488 0.62284 0.03465 0.0
C539 C 0.50758 0.60824 0.04517 0.0
C540 C 0.49119 0.58835 0.04707 0.0
C541 C 0.47196 0.5831 0.03899 0.0
C542 C 0.46901 0.59788 0.02941 0.0
C543 C 0.48539 0.61772 0.02724 0.0
H544 H 0.45935 0.56759 0.04025 0.0
H545 H 0.62068 0.75004 0.00078 0.0
H546 H 0.84234 0.26008 0.92966 0.0
H547 H 0.86993 0.29268 0.94694 0.0
H548 H 0.8275 0.31062 0.96596 0.0
H549 H 0.79988 0.27843 0.948 0.0
H550 H 0.85699 0.34173 0.94997 0.0
H551 H 0.85296 0.29601 -0.00028 0.0
H552 H 0.85166 0.26483 0.01308 0.0
H553 H 0.91014 0.28337 0.99408 0.0
H554 H 0.91169 0.31452 0.98035 0.0
H555 H 0.9308 0.43432 0.00691 0.0
H556 H 0.9016 0.39938 0.99795 0.0
H557 H 0.94076 0.37628 0.98042 0.0
H558 H 0.97014 0.41106 0.99066 0.0
H559 H 0.91161 0.34747 0.99768 0.0
H560 H 0.9138 0.39191 0.94561 0.0
H561 H 0.91461 0.42309 0.93264 0.0
H562 H 0.8585 0.40643 0.9566 0.0
H563 H 0.85751 0.37534 0.9699 0.0
C564 C 0.83886 0.27095 0.93755 0.0
C565 C 0.8189 0.26671 0.93733 0.0
C566 C 0.85465 0.28947 0.94763 0.0
C567 C 0.85079 0.30405 0.9579 0.0
C568 C 0.83083 0.29958 0.95818 0.0
C569 C 0.81504 0.28109 0.94804 0.0
C570 C 0.86766 0.32461 0.96699 0.0
C571 C 0.86875 0.34298 0.96068 0.0
C572 C 0.88324 0.32625 0.98063 0.0
C573 C 0.88236 0.30751 0.98884 0.0
C574 C 0.86548 0.29335 0.99824 0.0
C575 C 0.86471 0.2757 0.0059 0.0
C576 C 0.88079 0.2721 0.00439 0.0
C577 C 0.89769 0.28617 0.99523 0.0
C578 C 0.89853 0.30384 0.98752 0.0
C579 C 0.93315 0.42171 0.0013 0.0
C580 C 0.95266 0.42534 0.99933 0.0
C581 C 0.91645 0.40178 0.99605 0.0
C582 C 0.91888 0.38528 0.98794 0.0
C583 C 0.93846 0.38876 0.98654 0.0
C584 C 0.95523 0.4086 0.99236 0.0
C585 C 0.90105 0.36459 0.98047 0.0
C586 C 0.89979 0.3462 0.98705 0.0
C587 C 0.88523 0.36289 0.9671 0.0
C588 C 0.88572 0.38146 0.9589 0.0
C589 C 0.90173 0.39501 0.94818 0.0
C590 C 0.90221 0.41264 0.94077 0.0
C591 C 0.88667 0.41677 0.94384 0.0
C592 C 0.87056 0.40323 0.95426 0.0
C593 C 0.87002 0.3856 0.96172 0.0
H594 H 0.88708 0.43043 0.93812 0.0
H595 H 0.88017 0.25843 0.01034 0.0
H596 H 0.70942 0.53819 0.89631 0.0
H597 H 0.68042 0.53366 0.91332 0.0
H598 H 0.71443 0.54715 0.97109 0.0
H599 H 0.74389 0.55264 0.95424 0.0
H600 H 0.67165 0.51146 0.96719 0.0
H601 H 0.71257 0.58495 0.95741 0.0
H602 H 0.73208 0.61459 0.93735 0.0
H603 H 0.67928 0.59584 0.89715 0.0
H604 H 0.65952 0.56586 0.91679 0.0
H605 H 0.60156 0.52882 0.01958 0.0
H606 H 0.63247 0.53162 0.00804 0.0
H607 H 0.61393 0.53725 0.94748 0.0
H608 H 0.58367 0.53537 0.95911 0.0
H609 H 0.65132 0.56457 0.95584 0.0
H610 H 0.61035 0.49057 0.96383 0.0
H611 H 0.59039 0.45967 0.98233 0.0
H612 H 0.64193 0.4777 0.02417 0.0
H613 H 0.66212 0.50887 0.0061 0.0
C614 C 0.7108 0.54024 0.91263 0.0
C615 C 0.7291 0.54605 0.92388 0.0
C616 C 0.69416 0.53746 0.92231 0.0
C617 C 0.69541 0.5402 0.94341 0.0
C618 C 0.71323 0.5449 0.95478 0.0
C619 C 0.73 0.54795 0.9451 0.0
C620 C 0.67855 0.53973 0.95335 0.0
C621 C 0.6673 0.52319 0.96501 0.0
C622 C 0.67283 0.55489 0.95016 0.0
C623 C 0.68462 0.57305 0.93846 0.0
C624 C 0.70516 0.58704 0.94419 0.0
C625 C 0.71626 0.60392 0.93291 0.0
C626 C 0.70694 0.60707 0.91596 0.0
C627 C 0.68648 0.59337 0.91027 0.0
C628 C 0.67533 0.57644 0.92148 0.0
C629 C 0.60421 0.53073 0.00385 0.0
C630 C 0.59036 0.53196 0.99023 0.0
C631 C 0.62176 0.53218 0.99723 0.0
C632 C 0.62543 0.53441 0.97683 0.0
C633 C 0.61149 0.53561 0.96329 0.0
C634 C 0.59419 0.5345 0.96994 0.0
C635 C 0.64389 0.53594 0.9694 0.0
C636 C 0.6556 0.55281 0.95821 0.0
C637 C 0.64984 0.52092 0.97289 0.0
C638 C 0.63768 0.50218 0.98375 0.0
C639 C 0.61738 0.48804 0.97708 0.0
C640 C 0.60603 0.47046 0.98746 0.0
C641 C 0.61488 0.46676 0.00444 0.0
C642 C 0.63509 0.48061 0.01104 0.0
C643 C 0.64649 0.49822 0.00073 0.0
H644 H 0.60612 0.45314 0.01244 0.0
H645 H 0.71556 0.62015 0.90724 0.0
H646 H 0.46792 0.17853 0.92632 0.0
H647 H 0.47162 0.15048 0.94009 0.0
H648 H 0.43579 0.14891 0.98824 0.0
H649 H 0.43266 0.17767 0.97477 0.0
H650 H 0.46543 0.1437 0.00246 0.0
H651 H 0.41548 0.11181 0.947 0.0
H652 H 0.40024 0.10731 0.91229 0.0
H653 H 0.44661 0.09832 0.88909 0.0
H654 H 0.46233 0.10311 0.92366 0.0
H655 H 0.45292 0.0412 0.02103 0.0
H656 H 0.44469 0.0683 0.01257 0.0
H657 H 0.48994 0.09022 0.97046 0.0
H658 H 0.49845 0.06363 0.97897 0.0
H659 H 0.45033 0.0822 0.95521 0.0
H660 H 0.50135 0.11788 0.01211 0.0
H661 H 0.51501 0.12155 0.04736 0.0
H662 H 0.4631 0.12115 0.06836 0.0
H663 H 0.449 0.11717 0.0332 0.0
C664 C 0.4609 0.17224 0.93989 0.0
C665 C 0.44983 0.18005 0.94939 0.0
C666 C 0.46294 0.15616 0.9477 0.0
C667 C 0.45353 0.14718 0.9649 0.0
C668 C 0.44305 0.15548 0.97487 0.0
C669 C 0.44127 0.17188 0.9672 0.0
C670 C 0.45451 0.12894 0.97211 0.0
C671 C 0.46176 0.13008 0.99221 0.0
C672 C 0.44969 0.1111 0.95878 0.0
C673 C 0.44016 0.10796 0.93794 0.0
C674 C 0.4225 0.109 0.9345 0.0
C675 C 0.41377 0.10639 0.91484 0.0
C676 C 0.42247 0.10256 0.8985 0.0
C677 C 0.43989 0.10129 0.90177 0.0
C678 C 0.44871 0.10393 0.9214 0.0
C679 C 0.46113 0.05186 0.01003 0.0
C680 C 0.47639 0.05036 0.00074 0.0
C681 C 0.45645 0.06732 0.00526 0.0
C682 C 0.46675 0.08121 0.99092 0.0
C683 C 0.48185 0.07962 0.98157 0.0
C684 C 0.48675 0.06449 0.98655 0.0
C685 C 0.46178 0.09735 0.98527 0.0
C686 C 0.4537 0.09572 0.96547 0.0
C687 C 0.46549 0.11449 0.99894 0.0
C688 C 0.47401 0.11696 0.02004 0.0
C689 C 0.49276 0.11836 0.02424 0.0
C690 C 0.5006 0.12055 0.04421 0.0
C691 C 0.4899 0.12151 0.06009 0.0
C692 C 0.47136 0.12036 0.05604 0.0
C693 C 0.46344 0.11815 0.0361 0.0
H694 H 0.496 0.12321 0.07554 0.0
H695 H 0.41569 0.10056 0.88329 0.0
H696 H 0.72549 0.17897 0.95101 0.0
H697 H 0.69399 0.15296 0.9634 0.0
H698 H 0.66046 0.15648 0.91126 0.0
H699 H 0.692 0.18232 0.89859 0.0
H700 H 0.64528 0.15832 0.9499 0.0
H701 H 0.66601 0.11669 0.9104 0.0
H702 H 0.69 0.10557 0.90071 0.0
H703 H 0.69377 0.08812 0.96052 0.0
H704 H 0.67002 0.09943 0.97064 0.0
H705 H 0.55064 0.06614 0.95809 0.0
H706 H 0.58167 0.09245 0.94499 0.0
H707 H 0.61684 0.08519 0.99319 0.0
H708 H 0.58592 0.059 0.00635 0.0
H709 H 0.63129 0.08558 0.9564 0.0
H710 H 0.60955 0.12442 0.99611 0.0
H711 H 0.58671 0.1363 0.00758 0.0
H712 H 0.58675 0.16127 0.95086 0.0
H713 H 0.60937 0.14925 0.93892 0.0
C714 C 0.71141 0.17429 0.94224 0.0
C715 C 0.7111 0.18264 0.92385 0.0
C716 C 0.69346 0.15941 0.9493 0.0
C717 C 0.67497 0.15281 0.93819 0.0
C718 C 0.67461 0.16144 0.92003 0.0
C719 C 0.69258 0.1761 0.91282 0.0
C720 C 0.65602 0.13664 0.94536 0.0
C721 C 0.64198 0.1423 0.95104 0.0
C722 C 0.65221 0.11602 0.94742 0.0
C723 C 0.6664 0.10911 0.94133 0.0
C724 C 0.6721 0.11066 0.92153 0.0
C725 C 0.68562 0.10428 0.91595 0.0
C726 C 0.69345 0.0962 0.93001 0.0
C727 C 0.68772 0.09441 0.94966 0.0
C728 C 0.67422 0.10078 0.95532 0.0
C729 C 0.56501 0.07015 0.96581 0.0
C730 C 0.56597 0.06066 0.98324 0.0
C731 C 0.58268 0.08519 0.95838 0.0
C732 C 0.60151 0.09086 0.96824 0.0
C733 C 0.60244 0.08103 0.98539 0.0
C734 C 0.58481 0.06615 0.99291 0.0
C735 C 0.6203 0.10714 0.96081 0.0
C736 C 0.6344 0.10153 0.95515 0.0
C737 C 0.62425 0.12791 0.95907 0.0
C738 C 0.61071 0.1353 0.96633 0.0
C739 C 0.60442 0.13208 0.98591 0.0
C740 C 0.59158 0.13896 0.99256 0.0
C741 C 0.58513 0.14937 0.97989 0.0
C742 C 0.59164 0.15307 0.96061 0.0
C743 C 0.60446 0.14619 0.95389 0.0
H744 H 0.5752 0.15469 0.98507 0.0
H745 H 0.70391 0.09127 0.92566 0.0
H746 H 0.80588 0.52606 0.94218 0.0
H747 H 0.82885 0.51452 0.9551 0.0
H748 H 0.87511 0.55866 0.92088 0.0
H749 H 0.85224 0.57029 0.90796 0.0
H750 H 0.87179 0.51913 0.9183 0.0
H751 H 0.87673 0.57112 0.96929 0.0
H752 H 0.86331 0.58632 0.99353 0.0
H753 H 0.84 0.5307 0.02503 0.0
H754 H 0.85306 0.51504 0.00079 0.0
H755 H 0.96156 0.53103 0.96686 0.0
H756 H 0.93481 0.53666 0.95259 0.0
H757 H 0.89393 0.49389 0.99192 0.0
H758 H 0.92068 0.48835 0.00635 0.0
H759 H 0.89207 0.52937 0.9918 0.0
H760 H 0.89153 0.47934 0.94329 0.0
H761 H 0.90498 0.46427 0.91899 0.0
H762 H 0.91898 0.51488 0.882 0.0
H763 H 0.9065 0.53081 0.90649 0.0
C764 C 0.82091 0.53324 0.93737 0.0
C765 C 0.82739 0.54914 0.92415 0.0
C766 C 0.834 0.52665 0.94476 0.0
C767 C 0.85367 0.53583 0.93899 0.0
C768 C 0.85997 0.55137 0.92546 0.0
C769 C 0.84696 0.55805 0.91819 0.0
C770 C 0.868 0.52981 0.94753 0.0
C771 C 0.87642 0.52151 0.93434 0.0
C772 C 0.87348 0.5324 0.9685 0.0
C773 C 0.86566 0.54181 0.98309 0.0
C774 C 0.86858 0.56205 0.98128 0.0
C775 C 0.86107 0.57077 0.99504 0.0
C776 C 0.85075 0.55946 0.01077 0.0
C777 C 0.84796 0.53942 0.01281 0.0
C778 C 0.85542 0.53062 0.99907 0.0
C779 C 0.94687 0.5229 0.97248 0.0
C780 C 0.94312 0.50932 0.98771 0.0
C781 C 0.9316 0.526 0.96423 0.0
C782 C 0.91235 0.5155 0.97106 0.0
C783 C 0.90867 0.50209 0.98643 0.0
C784 C 0.92393 0.49895 0.99464 0.0
C785 C 0.89622 0.51898 0.96255 0.0
C786 C 0.8874 0.52678 0.97576 0.0
C787 C 0.89038 0.51587 0.94157 0.0
C788 C 0.89827 0.50645 0.92693 0.0
C789 C 0.89779 0.48748 0.93017 0.0
C790 C 0.90526 0.47877 0.91634 0.0
C791 C 0.91295 0.48867 0.89902 0.0
C792 C 0.91318 0.5073 0.8955 0.0
C793 C 0.90597 0.51622 0.90939 0.0
H794 H 0.91866 0.48186 0.88829 0.0
H795 H 0.84495 0.56623 0.02141 0.0
H796 H 0.44733 0.27531 0.97649 0.0
H797 H 0.45307 0.30911 0.99202 0.0
H798 H 0.49699 0.34179 0.95032 0.0
H799 H 0.49105 0.30817 0.93457 0.0
H800 H 0.50918 0.35926 0.9917 0.0
H801 H 0.45272 0.33472 0.94034 0.0
H802 H 0.41869 0.30917 0.92463 0.0
H803 H 0.39358 0.31305 0.97953 0.0
H804 H 0.42754 0.33843 0.99565 0.0
H805 H 0.52509 0.46024 0.98577 0.0
H806 H 0.51729 0.42399 0.98035 0.0
H807 H 0.46581 0.40417 0.01458 0.0
H808 H 0.47308 0.44064 0.01924 0.0
H809 H 0.45569 0.37788 0.98338 0.0
H810 H 0.51098 0.40607 0.03364 0.0
H811 H 0.54472 0.43153 0.05007 0.0
H812 H 0.57181 0.42028 -0.00013 0.0
H813 H 0.53825 0.39498 0.98301 0.0
C814 C 0.4583 0.28973 0.97077 0.0
C815 C 0.4688 0.28922 0.95436 0.0
C816 C 0.46152 0.30897 0.97961 0.0
C817 C 0.47545 0.3279 0.97229 0.0
C818 C 0.48624 0.32736 0.95622 0.0
C819 C 0.4828 0.30818 0.94722 0.0
C820 C 0.47848 0.34837 0.98075 0.0
C821 C 0.49754 0.36342 0.9899 0.0
C822 C 0.46305 0.35344 0.97899 0.0
C823 C 0.44267 0.33824 0.96927 0.0
C824 C 0.43996 0.32997 0.94912 0.0
C825 C 0.42068 0.31555 0.94012 0.0
C826 C 0.40399 0.30943 0.9511 0.0
C827 C 0.40653 0.31777 0.97106 0.0
C828 C 0.42578 0.33217 0.98013 0.0
C829 C 0.51219 0.44823 0.99233 0.0
C830 C 0.49978 0.45333 0.00309 0.0
C831 C 0.50781 0.42746 0.98932 0.0
C832 C 0.49125 0.41131 0.9975 0.0
C833 C 0.47876 0.41635 0.00824 0.0
C834 C 0.48293 0.43717 0.01092 0.0
C835 C 0.48667 0.38919 0.99395 0.0
C836 C 0.4673 0.37375 0.98569 0.0
C837 C 0.50179 0.38367 0.9968 0.0
C838 C 0.52206 0.39868 0.00702 0.0
C839 C 0.52413 0.4091 0.02606 0.0
C840 C 0.54323 0.42351 0.03545 0.0
C841 C 0.5604 0.42755 0.02601 0.0
C842 C 0.5585 0.41715 0.00718 0.0
C843 C 0.53944 0.40273 0.99771 0.0
H844 H 0.57516 0.43873 0.03332 0.0
H845 H 0.38907 0.29828 0.94411 0.0
H846 H 0.18262 0.69371 0.10135 0.0
H847 H 0.15545 0.66002 0.08509 0.0
H848 H 0.14624 0.69181 0.03675 0.0
H849 H 0.17385 0.7256 0.05271 0.0
H850 H 0.1101 0.66201 0.05726 0.0
H851 H 0.1653 0.66612 0.02353 0.0
H852 H 0.19945 0.67162 0.02168 0.0
H853 H 0.18523 0.62007 0.05747 0.0
H854 H 0.15107 0.61446 0.0598 0.0
H855 H 0.03717 0.56432 0.00373 0.0
H856 H 0.06553 0.60005 0.01199 0.0
H857 H 0.09387 0.57665 0.05248 0.0
H858 H 0.06597 0.54095 0.04387 0.0
H859 H 0.12087 0.60418 0.03186 0.0
H860 H 0.06825 0.60177 0.06924 0.0
H861 H 0.0344 0.5961 0.07388 0.0
H862 H 0.04381 0.64392 0.03463 0.0
H863 H 0.07764 0.64968 0.02955 0.0
C864 C 0.17493 0.69346 0.08714 0.0
C865 C 0.18036 0.71215 0.0782 0.0
C866 C 0.15946 0.67427 0.0779 0.0
C867 C 0.14894 0.67351 0.05973 0.0
C868 C 0.15426 0.69216 0.05075 0.0
C869 C 0.17006 0.71137 0.05982 0.0
C870 C 0.13204 0.65315 0.0506 0.0
C871 C 0.11239 0.64945 0.05128 0.0
C872 C 0.13515 0.63671 0.0434 0.0
C873 C 0.15567 0.63999 0.04198 0.0
C874 C 0.16951 0.65608 0.03116 0.0
C875 C 0.18886 0.65919 0.02999 0.0
C876 C 0.19453 0.64623 0.03949 0.0
C877 C 0.18083 0.6301 0.05014 0.0
C878 C 0.16146 0.62694 0.05137 0.0
C879 C 0.04945 0.5668 0.01439 0.0
C880 C 0.0493 0.54979 0.02316 0.0
C881 C 0.06563 0.58725 0.01914 0.0
C882 C 0.08176 0.5911 0.03303 0.0
C883 C 0.08166 0.57409 0.04167 0.0
C884 C 0.06564 0.55366 0.03676 0.0
C885 C 0.09874 0.61279 0.03876 0.0
C886 C 0.11847 0.61676 0.03752 0.0
C887 C 0.09567 0.62938 0.04577 0.0
C888 C 0.07537 0.62597 0.04882 0.0
C889 C 0.06303 0.61095 0.06147 0.0
C890 C 0.04386 0.60774 0.0642 0.0
C891 C 0.03693 0.61959 0.0545 0.0
C892 C 0.04918 0.63472 0.0421 0.0
C893 C 0.06836 0.63797 0.03929 0.0
H894 H 0.02209 0.61709 0.05664 0.0
H895 H 0.20952 0.64866 0.03856 0.0
H896 H 0.2775 0.44835 0.06796 0.0
H897 H 0.3078 0.45394 0.05271 0.0
H898 H 0.34375 0.48689 0.10853 0.0
H899 H 0.31349 0.48134 0.12387 0.0
H900 H 0.35957 0.50785 0.07508 0.0
H901 H 0.33307 0.43801 0.09617 0.0
H902 H 0.30705 0.40097 0.09776 0.0
H903 H 0.30378 0.38969 0.03345 0.0
H904 H 0.3296 0.42676 0.03144 0.0
H905 H 0.45122 0.51262 0.05888 0.0
H906 H 0.41967 0.50569 0.072 0.0
H907 H 0.38671 0.46779 0.01671 0.0
H908 H 0.41835 0.47436 0.00374 0.0
H909 H 0.36834 0.44915 0.0481 0.0
H910 H 0.39519 0.51801 0.02649 0.0
H911 H 0.41932 0.55544 0.02373 0.0
H912 H 0.42078 0.56903 0.08741 0.0
H913 H 0.39694 0.53162 0.09064 0.0
C914 C 0.29186 0.4568 0.07697 0.0
C915 C 0.29325 0.4645 0.09708 0.0
C916 C 0.30911 0.45988 0.06827 0.0
C917 C 0.32794 0.4707 0.07956 0.0
C918 C 0.32933 0.4785 0.0996 0.0
C919 C 0.31209 0.47531 0.10832 0.0
C920 C 0.34632 0.47428 0.07044 0.0
C921 C 0.36166 0.49505 0.06941 0.0
C922 C 0.3486 0.45751 0.06244 0.0
C923 C 0.33311 0.43521 0.06364 0.0
C924 C 0.32667 0.42768 0.08235 0.0
C925 C 0.31199 0.40667 0.08333 0.0
C926 C 0.30372 0.393 0.06571 0.0
C927 C 0.31017 0.4003 0.04708 0.0
C928 C 0.32484 0.4213 0.04601 0.0
C929 C 0.43722 0.5028 0.04958 0.0
C930 C 0.43712 0.49409 0.03032 0.0
C931 C 0.41923 0.49895 0.05701 0.0
C932 C 0.40087 0.48654 0.04517 0.0
C933 C 0.40073 0.47749 0.02604 0.0
C934 C 0.41876 0.48124 0.01865 0.0
C935 C 0.38183 0.48282 0.05295 0.0
C936 C 0.36631 0.46201 0.05371 0.0
C937 C 0.37931 0.49959 0.06058 0.0
C938 C 0.39437 0.52196 0.05883 0.0
C939 C 0.40084 0.52892 0.03996 0.0
C940 C 0.41441 0.55016 0.03829 0.0
C941 C 0.4215 0.5646 0.05537 0.0
C942 C 0.41519 0.55783 0.07418 0.0
C943 C 0.40168 0.53661 0.07594 0.0
H944 H 0.43191 0.58105 0.05406 0.0
H945 H 0.29236 0.37674 0.0665 0.0
H946 H 0.52819 0.81672 0.05156 0.0
H947 H 0.51655 0.84029 0.04046 0.0
H948 H 0.57428 0.89393 0.06201 0.0
H949 H 0.58573 0.87038 0.0737 0.0
H950 H 0.54613 0.90055 0.07333 0.0
H951 H 0.55932 0.87706 0.01066 0.0
H952 H 0.5569 0.85132 0.98384 0.0
H953 H 0.49315 0.82635 0.97385 0.0
H954 H 0.49516 0.85178 0.0008 0.0
H955 H 0.53864 0.9766 0.01575 0.0
H956 H 0.54795 0.95035 0.02381 0.0
H957 H 0.48595 0.90555 0.0304 0.0
H958 H 0.47648 0.93185 0.02281 0.0
H959 H 0.51502 0.89408 0.00418 0.0
H960 H 0.50276 0.91581 0.07059 0.0
H961 H 0.50661 0.9432 0.09631 0.0
H962 H 0.57088 0.97346 0.09686 0.0
H963 H 0.56735 0.94608 0.0712 0.0
C964 C 0.53843 0.83353 0.0538 0.0
C965 C 0.5579 0.84179 0.06342 0.0
C966 C 0.53179 0.847 0.04738 0.0
C967 C 0.54461 0.86891 0.05018 0.0
C968 C 0.56411 0.8771 0.05968 0.0
C969 C 0.57066 0.86366 0.06629 0.0
C970 C 0.53755 0.88337 0.04384 0.0
C971 C 0.5395 0.89914 0.05814 0.0
C972 C 0.52862 0.8815 0.0241 0.0
C973 C 0.52736 0.86618 0.0079 0.0
C974 C 0.54476 0.86597 0.00286 0.0
C975 C 0.54347 0.85145 0.98761 0.0
C976 C 0.52487 0.83716 0.97719 0.0
C977 C 0.50754 0.8374 0.98196 0.0
C978 C 0.50875 0.85188 0.9972 0.0
C979 C 0.52694 0.96111 0.01873 0.0
C980 C 0.50683 0.95628 0.01865 0.0
C981 C 0.5323 0.94617 0.02333 0.0
C982 C 0.5176 0.92609 0.0276 0.0
C983 C 0.49744 0.92098 0.02704 0.0
C984 C 0.4921 0.93604 0.02279 0.0
C985 C 0.52359 0.91088 0.03368 0.0
C986 C 0.52154 0.89518 0.01935 0.0
C987 C 0.53259 0.91285 0.05327 0.0
C988 C 0.53479 0.92907 0.0689 0.0
C989 C 0.5177 0.92838 0.07614 0.0
C990 C 0.51982 0.94387 0.09071 0.0
C991 C 0.53898 0.96017 0.09809 0.0
C992 C 0.55606 0.96086 0.09108 0.0
C993 C 0.55401 0.94532 0.07659 0.0
H994 H 0.54061 0.97223 0.10926 0.0
H995 H 0.5239 0.82594 0.96539 0.0
H996 H 0.9245 0.14876 0.38999 0.0
H997 H 0.95618 0.17427 0.37742 0.0
H998 H 0.98638 0.18753 0.43731 0.0
H999 H 0.95495 0.16205 0.44991 0.0
H1000 H 0.99561 0.22316 0.42017 0.0
H1001 H 0.99277 0.15767 0.40144 0.0
H1002 H 0.97737 0.12152 0.38518 0.0
H1003 H 0.97512 0.14368 0.32737 0.0
H1004 H 0.99026 0.17994 0.34334 0.0
H1005 H 0.09593 0.28353 0.39722 0.0
H1006 H 0.06458 0.25651 0.40873 0.0
H1007 H 0.03788 0.23793 0.3471 0.0
H1008 H 0.0698 0.26407 0.33549 0.0
H1009 H 0.02631 0.20485 0.36489 0.0
H1010 H 0.02858 0.27034 0.38346 0.0
H1011 H 0.04424 0.30657 0.39962 0.0
H1012 H 0.04731 0.28465 0.45738 0.0
H1013 H 0.03177 0.24831 0.44154 0.0
C1014 C 0.93794 0.15697 0.40041 0.0
C1015 C 0.9372 0.15348 0.42095 0.0
C1016 C 0.95601 0.17155 0.39323 0.0
C1017 C 0.97364 0.18272 0.40644 0.0
C1018 C 0.97293 0.17916 0.4269 0.0
C1019 C 0.95494 0.16465 0.43407 0.0
C1020 C 0.99282 0.19844 0.39913 0.0
C1021 C 0.00244 0.21914 0.40821 0.0
C1022 C 0.00147 0.19326 0.38324 0.0
C1023 C 0.99246 0.17148 0.37362 0.0
C1024 C 0.98884 0.15481 0.38529 0.0
C1025 C 0.98019 0.1343 0.37612 0.0
C1026 C 0.97522 0.1303 0.35526 0.0
C1027 C 0.97895 0.1468 0.34353 0.0
C1028 C 0.98758 0.16734 0.35262 0.0
C1029 C 0.08334 0.27364 0.38617 0.0
C1030 C 0.08511 0.27588 0.36551 0.0
C1031 C 0.06538 0.25827 0.39275 0.0
C1032 C 0.04862 0.24545 0.37885 0.0
C1033 C 0.05053 0.24764 0.35815 0.0
C1034 C 0.0687 0.26261 0.35152 0.0
C1035 C 0.02915 0.22972 0.38585 0.0
C1036 C 0.01946 0.20898 0.37676 0.0
C1037 C 0.02035 0.23489 0.40167 0.0
C1038 C 0.02915 0.25664 0.41129 0.0
C1039 C 0.03263 0.27326 0.3996 0.0
C1040 C 0.04148 0.29381 0.4087 0.0
C1041 C 0.0468 0.29792 0.42951 0.0
C1042 C 0.04318 0.28146 0.44127 0.0
C1043 C 0.03431 0.26087 0.43224 0.0
H1044 H 0.0537 0.31385 0.43652 0.0
H1045 H 0.96852 0.11441 0.34819 0.0
H1046 H 0.87167 0.79812 0.40742 0.0
H1047 H 0.84628 0.80531 0.39233 0.0
H1048 H 0.79939 0.74885 0.41377 0.0
H1049 H 0.82449 0.74098 0.42782 0.0
H1050 H 0.78774 0.75242 0.37781 0.0
H1051 H 0.81725 0.79875 0.43861 0.0
H1052 H 0.84473 0.82611 0.46231 0.0
H1053 H 0.86037 0.8703 0.41766 0.0
H1054 H 0.83313 0.8431 0.39359 0.0
H1055 H 0.70942 0.77756 0.37678 0.0
H1056 H 0.73611 0.7705 0.38833 0.0
H1057 H 0.77828 0.82092 0.35597 0.0
H1058 H 0.75163 0.82789 0.34423 0.0
H1059 H 0.79279 0.82115 0.39614 0.0
H1060 H 0.76102 0.77352 0.336 0.0
H1061 H 0.7322 0.74561 0.314 0.0
H1062 H 0.71932 0.70311 0.35994 0.0
H1063 H 0.74791 0.73088 0.38233 0.0
C1064 C 0.85594 0.78707 0.40862 0.0
C1065 C 0.85014 0.76911 0.41905 0.0
C1066 C 0.84145 0.79132 0.4002 0.0
C1067 C 0.82094 0.77784 0.40227 0.0
C1068 C 0.81511 0.75957 0.41209 0.0
C1069 C 0.82952 0.75521 0.42031 0.0
C1070 C 0.80547 0.78281 0.39459 0.0
C1071 C 0.78879 0.76739 0.38199 0.0
C1072 C 0.80692 0.80244 0.3998 0.0
C1073 C 0.82331 0.81882 0.41423 0.0
C1074 C 0.82665 0.81425 0.43379 0.0
C1075 C 0.84217 0.82974 0.4473 0.0
C1076 C 0.85433 0.84992 0.44147 0.0
C1077 C 0.85096 0.85466 0.42214 0.0
C1078 C 0.83548 0.83922 0.40856 0.0
C1079 C 0.72439 0.78709 0.37214 0.0
C1080 C 0.72851 0.80317 0.35957 0.0
C1081 C 0.73957 0.78304 0.3787 0.0
C1082 C 0.75909 0.79513 0.37288 0.0
C1083 C 0.76329 0.81143 0.36059 0.0
C1084 C 0.74807 0.81533 0.35385 0.0
C1085 C 0.77514 0.79073 0.37954 0.0
C1086 C 0.79188 0.80625 0.39193 0.0
C1087 C 0.77361 0.7711 0.3744 0.0
C1088 C 0.7565 0.75434 0.36091 0.0
C1089 C 0.75195 0.75828 0.34147 0.0
C1090 C 0.73567 0.74247 0.32892 0.0
C1091 C 0.72391 0.72261 0.33558 0.0
C1092 C 0.72843 0.7185 0.3548 0.0
C1093 C 0.74468 0.73427 0.36742 0.0
H1094 H 0.71131 0.71039 0.32584 0.0
H1095 H 0.86632 0.86189 0.45196 0.0
H1096 H 0.18864 0.05846 0.39901 0.0
H1097 H 0.18144 0.02382 0.38435 0.0
H1098 H 0.24414 0.04275 0.3957 0.0
H1099 H 0.2513 0.0772 0.41071 0.0
H1100 H 0.22443 0.01974 0.35625 0.0
H1101 H 0.21643 0.0167 0.42769 0.0
H1102 H 0.2023 0.02036 0.45892 0.0
H1103 H 0.14281 0.97535 0.43252 0.0
H1104 H 0.15656 0.97174 0.40095 0.0
H1105 H 0.22233 0.92225 0.35238 0.0
H1106 H 0.22801 0.9576 0.36065 0.0
H1107 H 0.16427 0.9321 0.36364 0.0
H1108 H 0.15857 0.89664 0.35623 0.0
H1109 H 0.18333 0.95874 0.39439 0.0
H1110 H 0.18989 0.96007 0.32367 0.0
H1111 H 0.20274 0.95597 0.2917 0.0
H1112 H 0.26265 0.00311 0.31504 0.0
H1113 H 0.25019 0.0073 0.34728 0.0
C1114 C 0.20088 0.05527 0.39806 0.0
C1115 C 0.22048 0.07033 0.40599 0.0
C1116 C 0.19676 0.03554 0.38977 0.0
C1117 C 0.21227 0.03079 0.38907 0.0
C1118 C 0.23201 0.04619 0.39611 0.0
C1119 C 0.23606 0.06575 0.40471 0.0
C1120 C 0.20775 0.00936 0.38217 0.0
C1121 C 0.21556 0.00637 0.36461 0.0
C1122 C 0.19577 0.99195 0.39288 0.0
C1123 C 0.1875 0.99422 0.41183 0.0
C1124 C 0.20031 0.0078 0.42843 0.0
C1125 C 0.19238 0.00982 0.44622 0.0
C1126 C 0.17166 0.99817 0.44767 0.0
C1127 C 0.15885 0.98443 0.43135 0.0
C1128 C 0.1667 0.9824 0.4135 0.0
C1129 C 0.20951 0.92419 0.35465 0.0
C1130 C 0.19001 0.90666 0.35364 0.0
C1131 C 0.21276 0.94443 0.35928 0.0
C1132 C 0.19653 0.94755 0.36255 0.0
C1133 C 0.17702 0.93006 0.36125 0.0
C1134 C 0.17379 0.90981 0.35696 0.0
C1135 C 0.19994 0.9689 0.36832 0.0
C1136 C 0.192 0.97196 0.3858 0.0
C1137 C 0.21157 0.98629 0.35735 0.0
C1138 C 0.21913 0.98386 0.33796 0.0
C1139 C 0.20583 0.96945 0.32205 0.0
C1140 C 0.21304 0.96713 0.30387 0.0
C1141 C 0.23351 0.97924 0.30136 0.0
C1142 C 0.2468 0.99373 0.31701 0.0
C1143 C 0.23967 0.9961 0.33524 0.0
H1144 H 0.23906 0.97742 0.28727 0.0
H1145 H 0.16555 0.99973 0.46147 0.0
H1146 H 0.52173 0.58718 0.28658 0.0
H1147 H 0.54645 0.62276 0.30117 0.0
H1148 H 0.49963 0.63864 0.30266 0.0
H1149 H 0.47483 0.60299 0.28805 0.0
H1150 H 0.53203 0.66597 0.28253 0.0
H1151 H 0.52123 0.63621 0.34588 0.0
H1152 H 0.51841 0.61069 0.36981 0.0
H1153 H 0.57979 0.62744 0.36423 0.0
H1154 H 0.58291 0.65285 0.34003 0.0
H1155 H 0.59838 0.76998 0.32501 0.0
H1156 H 0.57037 0.73393 0.31916 0.0
H1157 H 0.6118 0.71076 0.32544 0.0
H1158 H 0.63986 0.74682 0.3321 0.0
H1159 H 0.58016 0.68718 0.34349 0.0
H1160 H 0.59068 0.71384 0.27837 0.0
H1161 H 0.59411 0.73814 0.25281 0.0
H1162 H 0.53435 0.7262 0.25995 0.0
H1163 H 0.53065 0.70203 0.28576 0.0
C1164 C 0.51668 0.59815 0.29044 0.0
C1165 C 0.49641 0.59239 0.2862 0.0
C1166 C 0.53077 0.61842 0.29882 0.0
C1167 C 0.52486 0.63332 0.303 0.0
C1168 C 0.50447 0.62734 0.29957 0.0
C1169 C 0.49031 0.60697 0.29138 0.0
C1170 C 0.54026 0.65557 0.3091 0.0
C1171 C 0.54231 0.67072 0.29608 0.0
C1172 C 0.55406 0.66156 0.32641 0.0
C1173 C 0.55225 0.64632 0.34101 0.0
C1174 C 0.53408 0.63433 0.34962 0.0
C1175 C 0.53244 0.61991 0.36327 0.0
C1176 C 0.54889 0.61742 0.36851 0.0
C1177 C 0.56705 0.62938 0.36015 0.0
C1178 C 0.56877 0.64381 0.34649 0.0
C1179 C 0.60156 0.75722 0.32518 0.0
C1180 C 0.62138 0.76127 0.32893 0.0
C1181 C 0.5855 0.73659 0.32175 0.0
C1182 C 0.58897 0.71958 0.32151 0.0
C1183 C 0.60873 0.7236 0.32554 0.0
C1184 C 0.62477 0.74423 0.32929 0.0
C1185 C 0.57207 0.69763 0.31682 0.0
C1186 C 0.56977 0.68252 0.33005 0.0
C1187 C 0.55818 0.69158 0.29951 0.0
C1188 C 0.56046 0.70626 0.28413 0.0
C1189 C 0.57833 0.71653 0.27461 0.0
C1190 C 0.58031 0.73024 0.26005 0.0
C1191 C 0.56444 0.73368 0.25475 0.0
C1192 C 0.54661 0.72349 0.26406 0.0
C1193 C 0.54456 0.70978 0.27864 0.0
H1194 H 0.56594 0.74421 0.2434 0.0
H1195 H 0.54759 0.60624 0.37907 0.0
H1196 H 0.37904 0.87103 0.23629 0.0
H1197 H 0.34956 0.86661 0.25245 0.0
H1198 H 0.38836 0.90935 0.30312 0.0
H1199 H 0.4178 0.91321 0.28726 0.0
H1200 H 0.35716 0.87901 0.31643 0.0
H1201 H 0.36731 0.92477 0.2648 0.0
H1202 H 0.37206 0.93626 0.23047 0.0
H1203 H 0.3139 0.88417 0.20889 0.0
H1204 H 0.30893 0.87216 0.24303 0.0
H1205 H 0.26563 0.89925 0.31705 0.0
H1206 H 0.29864 0.90736 0.30678 0.0
H1207 H 0.28742 0.84647 0.32212 0.0
H1208 H 0.25504 0.83896 0.33357 0.0
H1209 H 0.30676 0.88964 0.27736 0.0
H1210 H 0.33054 0.84698 0.33423 0.0
H1211 H 0.3276 0.8396 0.36992 0.0
H1212 H 0.32133 0.89352 0.38374 0.0
H1213 H 0.3245 0.90138 0.34821 0.0
C1214 C 0.3812 0.87936 0.25093 0.0
C1215 C 0.40063 0.89251 0.26053 0.0
C1216 C 0.3644 0.87692 0.26011 0.0
C1217 C 0.36676 0.88799 0.27883 0.0
C1218 C 0.38616 0.90068 0.28868 0.0
C1219 C 0.40295 0.90287 0.27963 0.0
C1220 C 0.34905 0.88662 0.28795 0.0
C1221 C 0.34615 0.88136 0.3079 0.0
C1222 C 0.33493 0.89023 0.27701 0.0
C1223 C 0.33784 0.89744 0.25645 0.0
C1224 C 0.3556 0.91567 0.2527 0.0
C1225 C 0.35832 0.92228 0.23328 0.0
C1226 C 0.34331 0.91092 0.2175 0.0
C1227 C 0.32553 0.89294 0.22112 0.0
C1228 C 0.32275 0.88622 0.24051 0.0
C1229 C 0.27041 0.88777 0.31845 0.0
C1230 C 0.25793 0.86851 0.32602 0.0
C1231 C 0.28921 0.89237 0.31259 0.0
C1232 C 0.29555 0.87756 0.31371 0.0
C1233 C 0.28305 0.85832 0.32142 0.0
C1234 C 0.26451 0.85397 0.32783 0.0
C1235 C 0.31467 0.88169 0.30573 0.0
C1236 C 0.31781 0.8874 0.28595 0.0
C1237 C 0.32928 0.87912 0.31704 0.0
C1238 C 0.32759 0.87465 0.33851 0.0
C1239 C 0.32863 0.85731 0.34491 0.0
C1240 C 0.3269 0.85303 0.36511 0.0
C1241 C 0.32422 0.86604 0.37908 0.0
C1242 C 0.32333 0.88341 0.37289 0.0
C1243 C 0.32506 0.88776 0.35272 0.0
H1244 H 0.32287 0.8627 0.39471 0.0
H1245 H 0.34545 0.91607 0.20248 0.0
H1246 H 0.0807 0.48389 0.28187 0.0
H1247 H 0.08583 0.45662 0.29611 0.0
H1248 H 0.14966 0.50014 0.30535 0.0
H1249 H 0.14464 0.52753 0.29155 0.0
H1250 H 0.12641 0.45268 0.27799 0.0
H1251 H 0.14074 0.49517 0.34339 0.0
H1252 H 0.13069 0.51224 0.36945 0.0
H1253 H 0.0773 0.45331 0.37497 0.0
H1254 H 0.08692 0.43599 0.34869 0.0
H1255 H 0.17431 0.40302 0.32245 0.0
H1256 H 0.16462 0.42848 0.31308 0.0
H1257 H 0.10852 0.39345 0.33939 0.0
H1258 H 0.11825 0.36796 0.34912 0.0
H1259 H 0.12363 0.43424 0.34867 0.0
H1260 H 0.11177 0.38987 0.28989 0.0
H1261 H 0.11728 0.37069 0.26194 0.0
H1262 H 0.15939 0.42906 0.24015 0.0
H1263 H 0.15526 0.44867 0.26874 0.0
C1264 C 0.09577 0.48768 0.28726 0.0
C1265 C 0.11228 0.50779 0.2857 0.0
C1266 C 0.09865 0.47217 0.29541 0.0
C1267 C 0.11808 0.47653 0.30188 0.0
C1268 C 0.13453 0.49666 0.30065 0.0
C1269 C 0.13164 0.51225 0.29283 0.0
C1270 C 0.12154 0.4596 0.30813 0.0
C1271 C 0.12613 0.44874 0.29346 0.0
C1272 C 0.1201 0.45397 0.32811 0.0
C1273 C 0.1144 0.46438 0.3439 0.0
C1274 C 0.12674 0.48593 0.34998 0.0
C1275 C 0.12116 0.49563 0.36484 0.0
C1276 C 0.10333 0.48389 0.37381 0.0
C1277 C 0.09108 0.4624 0.36798 0.0
C1278 C 0.09659 0.45264 0.35312 0.0
C1279 C 0.15997 0.40076 0.32639 0.0
C1280 C 0.14705 0.38339 0.33649 0.0
C1281 C 0.1544 0.41529 0.32091 0.0
C1282 C 0.13571 0.4127 0.32526 0.0
C1283 C 0.12298 0.39571 0.33582 0.0
C1284 C 0.12856 0.38113 0.34134 0.0
C1285 C 0.12952 0.42772 0.31864 0.0
C1286 C 0.12411 0.43809 0.33316 0.0
C1287 C 0.1299 0.43264 0.29833 0.0
C1288 C 0.13337 0.42081 0.28173 0.0
C1289 C 0.1226 0.39868 0.27947 0.0
C1290 C 0.12551 0.3877 0.26349 0.0
C1291 C 0.13879 0.39865 0.24935 0.0
C1292 C 0.14927 0.42059 0.25124 0.0
C1293 C 0.14677 0.43165 0.26743 0.0
H1294 H 0.1409 0.39013 0.23689 0.0
H1295 H 0.09903 0.49142 0.38531 0.0
H1296 H 0.40327 0.51083 0.29976 0.0
H1297 H 0.37096 0.48712 0.31229 0.0
H1298 H 0.34639 0.45844 0.25172 0.0
H1299 H 0.37856 0.4824 0.23909 0.0
H1300 H 0.32069 0.46605 0.27004 0.0
H1301 H 0.36 0.43384 0.28689 0.0
H1302 H 0.3892 0.43259 0.30227 0.0
H1303 H 0.37782 0.44893 0.36091 0.0
H1304 H 0.34869 0.45055 0.34585 0.0
H1305 H 0.23137 0.37744 0.29384 0.0
H1306 H 0.26407 0.40079 0.28191 0.0
H1307 H 0.28863 0.42656 0.34322 0.0
H1308 H 0.25593 0.40283 0.35516 0.0
H1309 H 0.31445 0.42067 0.32472 0.0
H1310 H 0.27752 0.45599 0.30818 0.0
H1311 H 0.24963 0.45978 0.29313 0.0
H1312 H 0.25643 0.43779 0.23479 0.0
H1313 H 0.2847 0.43432 0.24945 0.0
C1314 C 0.391 0.49945 0.28913 0.0
C1315 C 0.39339 0.49841 0.26843 0.0
C1316 C 0.37256 0.48583 0.29632 0.0
C1317 C 0.35629 0.47082 0.28297 0.0
C1318 C 0.35871 0.46987 0.2623 0.0
C1319 C 0.37709 0.48351 0.25511 0.0
C1320 C 0.33659 0.45638 0.29041 0.0
C1321 C 0.31931 0.45592 0.28181 0.0
C1322 C 0.3348 0.44354 0.30613 0.0
C1323 C 0.35228 0.44252 0.31522 0.0
C1324 C 0.36381 0.43733 0.30305 0.0
C1325 C 0.38034 0.43652 0.31171 0.0
C1326 C 0.3854 0.44073 0.33255 0.0
C1327 C 0.3739 0.4457 0.34477 0.0
C1328 C 0.35737 0.44654 0.33618 0.0
C1329 C 0.24374 0.38823 0.30471 0.0
C1330 C 0.24114 0.38862 0.32535 0.0
C1331 C 0.2624 0.40161 0.2979 0.0
C1332 C 0.27876 0.41583 0.31161 0.0
C1333 C 0.27624 0.41583 0.33233 0.0
C1334 C 0.25759 0.40228 0.33915 0.0
C1335 C 0.29855 0.43037 0.30438 0.0
C1336 C 0.31585 0.43082 0.31297 0.0
C1337 C 0.30039 0.44328 0.2887 0.0
C1338 C 0.28311 0.44479 0.27992 0.0
C1339 C 0.27299 0.45187 0.29217 0.0
C1340 C 0.2572 0.45406 0.28369 0.0
C1341 C 0.25126 0.449 0.26303 0.0
C1342 C 0.2611 0.44175 0.25078 0.0
C1343 C 0.27709 0.43981 0.25914 0.0
H1344 H 0.23906 0.45075 0.25649 0.0
H1345 H 0.39819 0.4401 0.33922 0.0
H1346 H 0.52533 0.92123 0.24793 0.0
H1347 H 0.54816 0.90887 0.25909 0.0
H1348 H 0.50278 0.8644 0.29385 0.0
H1349 H 0.47991 0.87675 0.28278 0.0
H1350 H 0.54054 0.88562 0.31483 0.0
H1351 H 0.51064 0.84752 0.24998 0.0
H1352 H 0.50066 0.84351 0.21352 0.0
H1353 H 0.56261 0.88096 0.20225 0.0
H1354 H 0.57294 0.88547 0.23869 0.0
H1355 H 0.58911 0.82745 0.33467 0.0
H1356 H 0.56438 0.83728 0.32339 0.0
H1357 H 0.60515 0.87781 0.2826 0.0
H1358 H 0.62959 0.86741 0.29335 0.0
H1359 H 0.56862 0.85755 0.26475 0.0
H1360 H 0.59879 0.89711 0.32891 0.0
H1361 H 0.60954 0.90233 0.36529 0.0
H1362 H 0.54818 0.86356 0.37788 0.0
H1363 H 0.53708 0.85789 0.34153 0.0
C1364 C 0.52028 0.90886 0.258 0.0
C1365 C 0.50088 0.8999 0.26443 0.0
C1366 C 0.53327 0.90177 0.26429 0.0
C1367 C 0.52705 0.88556 0.2771 0.0
C1368 C 0.50782 0.87688 0.28391 0.0
C1369 C 0.49477 0.88392 0.27754 0.0
C1370 C 0.54066 0.87767 0.28333 0.0
C1371 C 0.54645 0.87916 0.30393 0.0
C1372 C 0.54872 0.86975 0.26903 0.0
C1373 C 0.54255 0.867 0.24709 0.0
C1374 C 0.52212 0.85505 0.23974 0.0
C1375 C 0.5164 0.85266 0.21908 0.0
C1376 C 0.53098 0.86202 0.20558 0.0
C1377 C 0.55133 0.87374 0.21272 0.0
C1378 C 0.55712 0.87621 0.23338 0.0
C1379 C 0.59273 0.83842 0.32327 0.0
C1380 C 0.61128 0.84685 0.31499 0.0
C1381 C 0.57866 0.8441 0.3169 0.0
C1382 C 0.58307 0.85862 0.30243 0.0
C1383 C 0.60146 0.86668 0.29386 0.0
C1384 C 0.61543 0.8608 0.30004 0.0
C1385 C 0.5686 0.86552 0.29631 0.0
C1386 C 0.56265 0.86387 0.27571 0.0
C1387 C 0.56051 0.87345 0.31061 0.0
C1388 C 0.56713 0.8769 0.33248 0.0
C1389 C 0.58761 0.88958 0.33942 0.0
C1390 C 0.59376 0.89263 0.36004 0.0
C1391 C 0.57956 0.88324 0.37389 0.0
C1392 C 0.55916 0.87081 0.36714 0.0
C1393 C 0.55293 0.86768 0.34653 0.0
H1394 H 0.58435 0.88562 0.38984 0.0
H1395 H 0.52653 0.86015 0.18958 0.0
H1396 H 0.12388 0.60837 0.30612 0.0
H1397 H 0.13027 0.64302 0.31951 0.0
H1398 H 0.16372 0.67068 0.26897 0.0
H1399 H 0.15714 0.63604 0.25537 0.0
H1400 H 0.18266 0.69363 0.3072 0.0
H1401 H 0.11828 0.66163 0.26746 0.0
H1402 H 0.0832 0.63367 0.25776 0.0
H1403 H 0.06767 0.64093 0.31735 0.0
H1404 H 0.10276 0.66875 0.32749 0.0
H1405 H 0.18856 0.79182 0.30861 0.0
H1406 H 0.18243 0.7565 0.29958 0.0
H1407 H 0.14025 0.73252 0.34467 0.0
H1408 H 0.14581 0.76789 0.35329 0.0
H1409 H 0.1257 0.70675 0.31206 0.0
H1410 H 0.18895 0.73995 0.35183 0.0
H1411 H 0.22391 0.76777 0.36233 0.0
H1412 H 0.24176 0.75796 0.30474 0.0
H1413 H 0.20685 0.73027 0.29378 0.0
C1414 C 0.13271 0.62186 0.29795 0.0
C1415 C 0.14007 0.6196 0.27971 0.0
C1416 C 0.13629 0.6416 0.30558 0.0
C1417 C 0.14741 0.65934 0.29517 0.0
C1418 C 0.15515 0.65716 0.27723 0.0
C1419 C 0.15135 0.63742 0.26947 0.0
C1420 C 0.15056 0.68014 0.30265 0.0
C1421 C 0.17026 0.6966 0.30814 0.0
C1422 C 0.13429 0.68375 0.3044 0.0
C1423 C 0.11319 0.66709 0.2983 0.0
C1424 C 0.10743 0.65713 0.27855 0.0
C1425 C 0.08754 0.64134 0.27296 0.0
C1426 C 0.07323 0.63548 0.28695 0.0
C1427 C 0.07878 0.64545 0.30655 0.0
C1428 C 0.09866 0.66124 0.31222 0.0
C1429 C 0.17806 0.77907 0.3167 0.0
C1430 C 0.16781 0.78266 0.33181 0.0
C1431 C 0.17461 0.75886 0.31157 0.0
C1432 C 0.16121 0.74189 0.32175 0.0
C1433 C 0.15075 0.74539 0.33668 0.0
C1434 C 0.15396 0.76559 0.34161 0.0
C1435 C 0.15791 0.72048 0.31649 0.0
C1436 C 0.13816 0.70384 0.31138 0.0
C1437 C 0.17415 0.71666 0.31531 0.0
C1438 C 0.19524 0.73313 0.32193 0.0
C1439 C 0.20031 0.7438 0.34136 0.0
C1440 C 0.22012 0.75954 0.3474 0.0
C1441 C 0.23504 0.76466 0.3342 0.0
C1442 C 0.23019 0.75399 0.31495 0.0
C1443 C 0.21039 0.73825 0.30882 0.0
H1444 H 0.25036 0.77687 0.33889 0.0
H1445 H 0.05784 0.62325 0.2826 0.0
H1446 H 0.84824 0.02555 0.43559 0.0
H1447 H 0.82035 0.99336 0.41761 0.0
H1448 H 0.81335 0.02975 0.37266 0.0
H1449 H 0.84171 0.06201 0.39027 0.0
H1450 H 0.77585 0.99681 0.3936 0.0
H1451 H 0.83035 0.00641 0.35459 0.0
H1452 H 0.86468 0.01338 0.35034 0.0
H1453 H 0.85282 0.95886 0.38053 0.0
H1454 H 0.8185 0.95176 0.38525 0.0
H1455 H 0.70279 0.90222 0.33441 0.0
H1456 H 0.73062 0.93804 0.34412 0.0
H1457 H 0.76197 0.91331 0.37848 0.0
H1458 H 0.73467 0.87772 0.36854 0.0
H1459 H 0.7874 0.94321 0.35846 0.0
H1460 H 0.73567 0.93475 0.4008 0.0
H1461 H 0.70175 0.92718 0.40803 0.0
H1462 H 0.70842 0.97841 0.37502 0.0
H1463 H 0.74231 0.98611 0.36736 0.0
C1464 C 0.84082 0.02664 0.4218 0.0
C1465 C 0.84718 0.04616 0.41422 0.0
C1466 C 0.82493 0.00831 0.41159 0.0
C1467 C 0.81489 0.00928 0.39385 0.0
C1468 C 0.82099 0.02878 0.38634 0.0
C1469 C 0.83721 0.04711 0.39633 0.0
C1470 C 0.79801 0.98972 0.38335 0.0
C1471 C 0.77828 0.98522 0.3855 0.0
C1472 C 0.80133 0.97451 0.37332 0.0
C1473 C 0.82193 0.97868 0.37045 0.0
C1474 C 0.83513 0.99603 0.36051 0.0
C1475 C 0.85457 0.99998 0.35797 0.0
C1476 C 0.86094 0.9866 0.3652 0.0
C1477 C 0.84787 0.96922 0.37495 0.0
C1478 C 0.82841 0.96522 0.37755 0.0
C1479 C 0.71565 0.90444 0.34398 0.0
C1480 C 0.71649 0.88709 0.35066 0.0
C1481 C 0.73152 0.92492 0.34957 0.0
C1482 C 0.74834 0.9284 0.36216 0.0
C1483 C 0.74922 0.91106 0.36867 0.0
C1484 C 0.73352 0.89067 0.36298 0.0
C1485 C 0.76504 0.94998 0.36891 0.0
C1486 C 0.78482 0.95487 0.36616 0.0
C1487 C 0.76174 0.9654 0.37868 0.0
C1488 C 0.74141 0.96084 0.3833 0.0
C1489 C 0.72983 0.94429 0.39495 0.0
C1490 C 0.71063 0.94 0.39915 0.0
C1491 C 0.70291 0.95226 0.39193 0.0
C1492 C 0.71441 0.96889 0.38055 0.0
C1493 C 0.73362 0.97323 0.37629 0.0
H1494 H 0.68804 0.94891 0.3952 0.0
H1495 H 0.876 0.98968 0.36322 0.0
H1496 H 0.94551 0.79076 0.40038 0.0
H1497 H 0.97961 0.80447 0.39024 0.0
H1498 H 0.98665 0.76024 0.42469 0.0
H1499 H 0.95255 0.74647 0.43488 0.0
H1500 H 0.01983 0.80067 0.43071 0.0
H1501 H 0.97692 0.75036 0.37517 0.0
H1502 H 0.94892 0.73505 0.34823 0.0
H1503 H 0.97612 0.793 0.32035 0.0
H1504 H 0.00415 0.80875 0.3473 0.0
H1505 H 0.10407 0.80266 0.39097 0.0
H1506 H 0.07163 0.79395 0.40304 0.0
H1507 H 0.06428 0.83178 0.35981 0.0
H1508 H 0.0963 0.8397 0.34712 0.0
H1509 H 0.0314 0.79669 0.35856 0.0
H1510 H 0.07448 0.84744 0.41307 0.0
H1511 H 0.10187 0.86406 0.44059 0.0
H1512 H 0.07511 0.80721 0.47021 0.0
H1513 H 0.04736 0.79032 0.443 0.0
C1514 C 0.95432 0.78396 0.40577 0.0
C1515 C 0.94642 0.7675 0.41835 0.0
C1516 C 0.97377 0.79178 0.39996 0.0
C1517 C 0.98558 0.78328 0.40666 0.0
C1518 C 0.97777 0.76702 0.4194 0.0
C1519 C 0.95831 0.75912 0.42511 0.0
C1520 C 0.00599 0.79109 0.40019 0.0
C1521 C 0.02241 0.79967 0.41496 0.0
C1522 C 0.00931 0.79028 0.37961 0.0
C1523 C 0.99251 0.7808 0.36336 0.0
C1524 C 0.97684 0.75989 0.36339 0.0
C1525 C 0.96098 0.75112 0.3481 0.0
C1526 C 0.96071 0.76306 0.33262 0.0
C1527 C 0.97633 0.78378 0.33237 0.0
C1528 C 0.99221 0.79263 0.34764 0.0
C1529 C 0.09551 0.80912 0.38411 0.0
C1530 C 0.10251 0.82167 0.36803 0.0
C1531 C 0.07708 0.80434 0.39114 0.0
C1532 C 0.06559 0.81243 0.38252 0.0
C1533 C 0.07284 0.82533 0.36669 0.0
C1534 C 0.09111 0.82983 0.35944 0.0
C1535 C 0.04543 0.80634 0.38909 0.0
C1536 C 0.02898 0.79797 0.37433 0.0
C1537 C 0.04213 0.80755 0.40967 0.0
C1538 C 0.05893 0.81757 0.42592 0.0
C1539 C 0.07451 0.83844 0.42538 0.0
C1540 C 0.09009 0.84792 0.44095 0.0
C1541 C 0.09033 0.83664 0.45705 0.0
C1542 C 0.07492 0.81591 0.4577 0.0
C1543 C 0.05921 0.80641 0.44227 0.0
H1544 H 0.10237 0.84397 0.46909 0.0
H1545 H 0.94842 0.75625 0.3208 0.0
H1546 H 0.24037 0.19865 0.42718 0.0
H1547 H 0.22857 0.22128 0.4137 0.0
H1548 H 0.18978 0.17179 0.36762 0.0
H1549 H 0.20138 0.14893 0.38121 0.0
H1550 H 0.21226 0.21271 0.35343 0.0
H1551 H 0.1683 0.17833 0.40423 0.0
H1552 H 0.15989 0.16636 0.43802 0.0
H1553 H 0.19162 0.23038 0.46417 0.0
H1554 H 0.20049 0.24273 0.43055 0.0
H1555 H 0.14536 0.26491 0.35877 0.0
H1556 H 0.15327 0.2377 0.36632 0.0
H1557 H 0.21557 0.27965 0.35787 0.0
H1558 H 0.20783 0.30706 0.35012 0.0
H1559 H 0.17786 0.23895 0.39723 0.0
H1560 H 0.23539 0.24984 0.33988 0.0
H1561 H 0.24244 0.26068 0.30551 0.0
H1562 H 0.18018 0.24096 0.29093 0.0
H1563 H 0.17271 0.22974 0.32511 0.0
C1564 C 0.22935 0.19263 0.41415 0.0
C1565 C 0.2217 0.17207 0.4053 0.0
C1566 C 0.22263 0.20553 0.4065 0.0
C1567 C 0.20825 0.19812 0.38976 0.0
C1568 C 0.2009 0.17773 0.38056 0.0
C1569 C 0.20746 0.1647 0.38838 0.0
C1570 C 0.20067 0.21164 0.38227 0.0
C1571 C 0.20468 0.21843 0.36293 0.0
C1572 C 0.19056 0.2188 0.39464 0.0
C1573 C 0.18522 0.21144 0.41489 0.0
C1574 C 0.17364 0.18985 0.4172 0.0
C1575 C 0.16875 0.18299 0.43632 0.0
C1576 C 0.17525 0.19759 0.45324 0.0
C1577 C 0.18661 0.21909 0.45106 0.0
C1578 C 0.19156 0.22602 0.43197 0.0
C1579 C 0.16074 0.26838 0.35831 0.0
C1580 C 0.17598 0.28825 0.35387 0.0
C1581 C 0.16522 0.25277 0.36269 0.0
C1582 C 0.18496 0.25662 0.36257 0.0
C1583 C 0.20018 0.27628 0.3578 0.0
C1584 C 0.19573 0.29196 0.35346 0.0
C1585 C 0.18978 0.24043 0.36848 0.0
C1586 C 0.18533 0.23318 0.38761 0.0
C1587 C 0.19928 0.23271 0.35582 0.0
C1588 C 0.20355 0.23913 0.33513 0.0
C1589 C 0.2232 0.24773 0.32931 0.0
C1590 C 0.22726 0.25396 0.30987 0.0
C1591 C 0.21178 0.25157 0.29606 0.0
C1592 C 0.19218 0.24288 0.30166 0.0
C1593 C 0.18803 0.23661 0.32108 0.0
H1594 H 0.21497 0.25642 0.28103 0.0
H1595 H 0.17145 0.19226 0.46803 0.0
H1596 H 0.59004 0.51816 0.74552 0.0
H1597 H 0.62197 0.54362 0.73345 0.0
H1598 H 0.64105 0.49761 0.7325 0.0
H1599 H 0.60918 0.47212 0.74476 0.0
H1600 H 0.66979 0.5363 0.75206 0.0
H1601 H 0.62788 0.50953 0.68927 0.0
H1602 H 0.59805 0.50013 0.66597 0.0
H1603 H 0.61225 0.56452 0.67071 0.0
H1604 H 0.64203 0.57426 0.69428 0.0
H1605 H 0.7525 0.58717 0.69161 0.0
H1606 H 0.71937 0.56167 0.70161 0.0
H1607 H 0.70739 0.61188 0.71612 0.0
H1608 H 0.74081 0.63756 0.70684 0.0
H1609 H 0.67521 0.57167 0.68948 0.0
H1610 H 0.71511 0.59851 0.75309 0.0
H1611 H 0.74531 0.60926 0.77636 0.0
H1612 H 0.73472 0.54616 0.77056 0.0
H1613 H 0.70462 0.5351 0.74688 0.0
C1614 C 0.60101 0.51346 0.74261 0.0
C1615 C 0.59716 0.49318 0.74606 0.0
C1616 C 0.61917 0.52796 0.73565 0.0
C1617 C 0.63382 0.52246 0.73204 0.0
C1618 C 0.62991 0.50213 0.7352 0.0
C1619 C 0.61167 0.48756 0.74202 0.0
C1620 C 0.65348 0.53817 0.72565 0.0
C1621 C 0.67097 0.5438 0.73823 0.0
C1622 C 0.65495 0.5484 0.70791 0.0
C1623 C 0.63708 0.54259 0.6937 0.0
C1624 C 0.62455 0.52166 0.68549 0.0
C1625 C 0.60767 0.51628 0.6722 0.0
C1626 C 0.60323 0.53171 0.6669 0.0
C1627 C 0.6157 0.55257 0.67485 0.0
C1628 C 0.63259 0.55804 0.68816 0.0
C1629 C 0.74278 0.59273 0.69696 0.0
C1630 C 0.74911 0.61424 0.69853 0.0
C1631 C 0.72393 0.5782 0.70262 0.0
C1632 C 0.71104 0.58499 0.70951 0.0
C1633 C 0.71719 0.60643 0.71076 0.0
C1634 C 0.73624 0.62102 0.70557 0.0
C1635 C 0.69132 0.56962 0.71583 0.0
C1636 C 0.67391 0.56409 0.70327 0.0
C1637 C 0.68986 0.55962 0.73365 0.0
C1638 C 0.70777 0.56604 0.74802 0.0
C1639 C 0.71934 0.58697 0.75659 0.0
C1640 C 0.7364 0.59311 0.76988 0.0
C1641 C 0.74191 0.5784 0.77487 0.0
C1642 C 0.7304 0.55752 0.76663 0.0
C1643 C 0.71334 0.5513 0.75327 0.0
H1644 H 0.75508 0.5832 0.78516 0.0
H1645 H 0.59015 0.52751 0.65661 0.0
H1646 H 0.49874 0.08431 0.76753 0.0
H1647 H 0.47261 0.09049 0.75323 0.0
H1648 H 0.51782 0.15196 0.73917 0.0
H1649 H 0.5442 0.14623 0.75447 0.0
H1650 H 0.48841 0.15429 0.75558 0.0
H1651 H 0.49123 0.11055 0.70202 0.0
H1652 H 0.49165 0.07983 0.68605 0.0
H1653 H 0.43264 0.03889 0.70367 0.0
H1654 H 0.43198 0.06934 0.72 0.0
H1655 H 0.41824 0.16451 0.68712 0.0
H1656 H 0.44611 0.15989 0.69998 0.0
H1657 H 0.40559 0.10944 0.73333 0.0
H1658 H 0.3777 0.11443 0.72098 0.0
H1659 H 0.43322 0.10259 0.70561 0.0
H1660 H 0.43253 0.14638 0.76212 0.0
H1661 H 0.43242 0.17727 0.77813 0.0
H1662 H 0.48745 0.2183 0.75308 0.0
H1663 H 0.48791 0.18759 0.73698 0.0
C1664 C 0.50319 0.09921 0.7615 0.0
C1665 C 0.52359 0.11486 0.76232 0.0
C1666 C 0.4882 0.10263 0.75308 0.0
C1667 C 0.49322 0.1216 0.74489 0.0
C1668 C 0.51359 0.13716 0.74535 0.0
C1669 C 0.52866 0.1338 0.75393 0.0
C1670 C 0.47706 0.12532 0.73659 0.0
C1671 C 0.47656 0.14314 0.74439 0.0
C1672 C 0.46132 0.1106 0.72225 0.0
C1673 C 0.46163 0.09224 0.71238 0.0
C1674 C 0.4784 0.09498 0.70262 0.0
C1675 C 0.47867 0.07762 0.69348 0.0
C1676 C 0.4622 0.05742 0.69388 0.0
C1677 C 0.4454 0.05455 0.70338 0.0
C1678 C 0.44505 0.07186 0.71256 0.0
C1679 C 0.4153 0.15246 0.69721 0.0
C1680 C 0.39586 0.13974 0.70302 0.0
C1681 C 0.4312 0.14989 0.70457 0.0
C1682 C 0.42783 0.13434 0.71755 0.0
C1683 C 0.40841 0.12152 0.72329 0.0
C1684 C 0.39256 0.12438 0.71627 0.0
C1685 C 0.4446 0.1313 0.72481 0.0
C1686 C 0.44519 0.1137 0.71672 0.0
C1687 C 0.46046 0.14623 0.73874 0.0
C1688 C 0.46015 0.16472 0.74819 0.0
C1689 C 0.44452 0.162 0.75989 0.0
C1690 C 0.44443 0.17946 0.76905 0.0
C1691 C 0.45988 0.19974 0.76657 0.0
C1692 C 0.47549 0.20258 0.75498 0.0
C1693 C 0.47571 0.18515 0.74589 0.0
H1694 H 0.45978 0.21325 0.77365 0.0
H1695 H 0.46244 0.04399 0.6868 0.0
H1696 H 0.86738 0.39245 0.75626 0.0
H1697 H 0.86087 0.35782 0.74294 0.0
H1698 H 0.90249 0.3866 0.69819 0.0
H1699 H 0.90845 0.42131 0.71116 0.0
H1700 H 0.87165 0.34883 0.68297 0.0
H1701 H 0.91783 0.37561 0.74208 0.0
H1702 H 0.93002 0.39126 0.77717 0.0
H1703 H 0.88077 0.33721 0.79859 0.0
H1704 H 0.86806 0.32141 0.76358 0.0
H1705 H 0.88682 0.26006 0.66968 0.0
H1706 H 0.89327 0.29594 0.67743 0.0
H1707 H 0.84801 0.27343 0.71955 0.0
H1708 H 0.84145 0.23769 0.71192 0.0
H1709 H 0.88362 0.30941 0.73484 0.0
H1710 H 0.83708 0.28383 0.6745 0.0
H1711 H 0.82589 0.26891 0.6391 0.0
H1712 H 0.87818 0.32148 0.61978 0.0
H1713 H 0.88983 0.33657 0.65513 0.0
C1714 C 0.8747 0.39125 0.74325 0.0
C1715 C 0.8884 0.40939 0.7347 0.0
C1716 C 0.87112 0.37154 0.73574 0.0
C1717 C 0.8816 0.36968 0.7199 0.0
C1718 C 0.89434 0.38768 0.71049 0.0
C1719 C 0.8977 0.40745 0.71784 0.0
C1720 C 0.88033 0.34923 0.71433 0.0
C1721 C 0.87454 0.34035 0.69425 0.0
C1722 C 0.88409 0.33812 0.72906 0.0
C1723 C 0.8919 0.3474 0.75018 0.0
C1724 C 0.90953 0.36711 0.75426 0.0
C1725 C 0.91654 0.37602 0.77414 0.0
C1726 C 0.90616 0.36525 0.7901 0.0
C1727 C 0.88879 0.34554 0.78621 0.0
C1728 C 0.88167 0.3366 0.76635 0.0
C1729 C 0.8783 0.26279 0.68064 0.0
C1730 C 0.86354 0.24602 0.69009 0.0
C1731 C 0.88193 0.28326 0.68497 0.0
C1732 C 0.87099 0.28729 0.69894 0.0
C1733 C 0.85657 0.27064 0.70868 0.0
C1734 C 0.85279 0.25021 0.70422 0.0
C1735 C 0.87449 0.30882 0.70361 0.0
C1736 C 0.88083 0.31796 0.72355 0.0
C1737 C 0.87149 0.32022 0.68871 0.0
C1738 C 0.86444 0.31121 0.66747 0.0
C1739 C 0.84628 0.29212 0.66272 0.0
C1740 C 0.83984 0.28365 0.64266 0.0
C1741 C 0.85135 0.29421 0.6272 0.0
C1742 C 0.8693 0.3133 0.63177 0.0
C1743 C 0.87582 0.32182 0.65181 0.0
H1744 H 0.84634 0.28763 0.61168 0.0
H1745 H 0.91161 0.37217 0.80548 0.0
H1746 H 0.17759 0.93044 0.60102 0.0
H1747 H 0.20511 0.96314 0.61846 0.0
H1748 H 0.16305 0.98345 0.63237 0.0
H1749 H 0.13548 0.95088 0.6147 0.0
H1750 H 0.19556 0.01331 0.61535 0.0
H1751 H 0.18377 0.96901 0.66914 0.0
H1752 H 0.17944 0.93771 0.68497 0.0
H1753 H 0.23919 0.95294 0.6729 0.0
H1754 H 0.24378 0.98419 0.65673 0.0
H1755 H 0.26451 0.10594 0.67454 0.0
H1756 H 0.2357 0.07098 0.66469 0.0
H1757 H 0.27581 0.04682 0.65579 0.0
H1758 H 0.30474 0.08171 0.66651 0.0
H1759 H 0.24362 0.01856 0.67119 0.0
H1760 H 0.25517 0.06155 0.6161 0.0
H1761 H 0.26006 0.09293 0.60008 0.0
H1762 H 0.2012 0.07979 0.61332 0.0
H1763 H 0.19605 0.04846 0.62973 0.0
C1764 C 0.1742 0.94183 0.60791 0.0
C1765 C 0.15439 0.93814 0.60645 0.0
C1766 C 0.18991 0.96042 0.61799 0.0
C1767 C 0.1861 0.97568 0.62679 0.0
C1768 C 0.16629 0.97185 0.62571 0.0
C1769 C 0.15055 0.95319 0.61575 0.0
C1770 C 0.20296 0.99616 0.636 0.0
C1771 C 0.20588 0.0145 0.62778 0.0
C1772 C 0.21675 0.99761 0.6518 0.0
C1773 C 0.21404 0.97884 0.66155 0.0
C1774 C 0.19592 0.96559 0.6697 0.0
C1775 C 0.19343 0.94787 0.67877 0.0
C1776 C 0.20901 0.94331 0.67989 0.0
C1777 C 0.22713 0.95648 0.672 0.0
C1778 C 0.22969 0.97421 0.66289 0.0
C1779 C 0.26719 0.09313 0.6707 0.0
C1780 C 0.28687 0.09657 0.67112 0.0
C1781 C 0.25071 0.07316 0.66498 0.0
C1782 C 0.25358 0.05636 0.65898 0.0
C1783 C 0.27321 0.05956 0.66025 0.0
C1784 C 0.28973 0.07949 0.66637 0.0
C1785 C 0.23622 0.03576 0.65057 0.0
C1786 C 0.23325 0.01739 0.65883 0.0
C1787 C 0.22244 0.03423 0.63465 0.0
C1788 C 0.22532 0.05279 0.62435 0.0
C1789 C 0.24331 0.06541 0.6157 0.0
C1790 C 0.24613 0.08321 0.60656 0.0
C1791 C 0.23101 0.08844 0.60581 0.0
C1792 C 0.21294 0.07577 0.61401 0.0
C1793 C 0.21005 0.05798 0.62321 0.0
H1794 H 0.23326 0.10229 0.59883 0.0
H1795 H 0.20705 0.92959 0.68693 0.0
H1796 H 0.05952 0.19368 0.59528 0.0
H1797 H 0.0295 0.18718 0.61155 0.0
H1798 H 0.04443 0.25135 0.60616 0.0
H1799 H 0.07501 0.2583 0.59111 0.0
H1800 H 0.03124 0.24122 0.64058 0.0
H1801 H 0.00732 0.2083 0.57281 0.0
H1802 H 0.0026 0.1845 0.54295 0.0
H1803 H 0.97461 0.1314 0.5777 0.0
H1804 H 0.97926 0.15491 0.6078 0.0
H1805 H 0.93348 0.22977 0.64339 0.0
H1806 H 0.96493 0.23438 0.63152 0.0
H1807 H 0.95348 0.17642 0.65505 0.0
H1808 H 0.92228 0.17199 0.66738 0.0
H1809 H 0.96451 0.18173 0.61321 0.0
H1810 H 0.98661 0.2166 0.68053 0.0
H1811 H 0.98994 0.24167 0.70856 0.0
H1812 H 0.02062 0.29294 0.67223 0.0
H1813 H 0.0172 0.26812 0.64386 0.0
C1814 C 0.05659 0.2065 0.59787 0.0
C1815 C 0.06959 0.22646 0.59165 0.0
C1816 C 0.03926 0.20268 0.60694 0.0
C1817 C 0.03442 0.21864 0.6097 0.0
C1818 C 0.04771 0.23872 0.60407 0.0
C1819 C 0.06512 0.24261 0.59525 0.0
C1820 C 0.01552 0.21456 0.6183 0.0
C1821 C 0.01666 0.22831 0.63443 0.0
C1822 C 0.99644 0.19752 0.61058 0.0
C1823 C 0.99386 0.18338 0.59259 0.0
C1824 C 0.00031 0.19156 0.57412 0.0
C1825 C 0.9976 0.17812 0.55714 0.0
C1826 C 0.98837 0.15645 0.55844 0.0
C1827 C 0.98181 0.14818 0.57673 0.0
C1828 C 0.98444 0.16155 0.59373 0.0
C1829 C 0.93775 0.21809 0.64609 0.0
C1830 C 0.92559 0.2006 0.65636 0.0
C1831 C 0.95567 0.22074 0.63934 0.0
C1832 C 0.96149 0.20576 0.6425 0.0
C1833 C 0.94921 0.18813 0.65252 0.0
C1834 C 0.93149 0.18568 0.6596 0.0
C1835 C 0.98037 0.2085 0.63521 0.0
C1836 C 0.97916 0.19452 0.61937 0.0
C1837 C 0.99933 0.22552 0.64295 0.0
C1838 C 0.00146 0.24047 0.66001 0.0
C1839 C 0.99389 0.23319 0.67845 0.0
C1840 C 0.99584 0.24736 0.69442 0.0
C1841 C 0.00544 0.26888 0.69216 0.0
C1842 C 0.01317 0.27627 0.67395 0.0
C1843 C 0.01124 0.26216 0.65793 0.0
H1844 H 0.00693 0.27983 0.70454 0.0
H1845 H 0.98625 0.14607 0.54528 0.0
H1846 H 0.76172 0.84008 0.63089 0.0
H1847 H 0.7654 0.81219 0.64566 0.0
H1848 H 0.8129 0.82359 0.60774 0.0
H1849 H 0.80843 0.85059 0.59239 0.0
H1850 H 0.78973 0.78423 0.60661 0.0
H1851 H 0.8207 0.83952 0.66077 0.0
H1852 H 0.82268 0.86627 0.68611 0.0
H1853 H 0.77326 0.8184 0.71383 0.0
H1854 H 0.77082 0.79137 0.68848 0.0
H1855 H 0.83984 0.73952 0.65574 0.0
H1856 H 0.83129 0.76568 0.64602 0.0
H1857 H 0.77462 0.73234 0.67161 0.0
H1858 H 0.78297 0.70571 0.68141 0.0
H1859 H 0.79851 0.77989 0.68016 0.0
H1860 H 0.76984 0.72455 0.62511 0.0
H1861 H 0.77144 0.6992 0.60066 0.0
H1862 H 0.82115 0.74988 0.57586 0.0
H1863 H 0.8198 0.77546 0.60011 0.0
C1864 C 0.77301 0.83662 0.62592 0.0
C1865 C 0.78486 0.84736 0.61064 0.0
C1866 C 0.77518 0.8208 0.63438 0.0
C1867 C 0.78958 0.81586 0.62798 0.0
C1868 C 0.80164 0.82698 0.6129 0.0
C1869 C 0.79918 0.84247 0.60421 0.0
C1870 C 0.79177 0.7987 0.63633 0.0
C1871 C 0.79178 0.78347 0.62271 0.0
C1872 C 0.794 0.79725 0.65735 0.0
C1873 C 0.79543 0.81347 0.67259 0.0
C1874 C 0.81015 0.83472 0.67217 0.0
C1875 C 0.81138 0.84993 0.68655 0.0
C1876 C 0.79807 0.84405 0.70153 0.0
C1877 C 0.78354 0.82293 0.70219 0.0
C1878 C 0.78223 0.80767 0.68783 0.0
C1879 C 0.82562 0.73775 0.65955 0.0
C1880 C 0.81205 0.72044 0.66932 0.0
C1881 C 0.82077 0.75275 0.65394 0.0
C1882 C 0.80232 0.75085 0.65805 0.0
C1883 C 0.78895 0.73403 0.66837 0.0
C1884 C 0.79372 0.71881 0.67385 0.0
C1885 C 0.79681 0.76596 0.65041 0.0
C1886 C 0.79617 0.78067 0.66411 0.0
C1887 C 0.79434 0.76722 0.62948 0.0
C1888 C 0.79474 0.7519 0.61444 0.0
C1889 C 0.7811 0.73026 0.61443 0.0
C1890 C 0.78194 0.71585 0.60058 0.0
C1891 C 0.79631 0.7229 0.58664 0.0
C1892 C 0.8099 0.7444 0.58652 0.0
C1893 C 0.80907 0.75887 0.60028 0.0
H1894 H 0.7969 0.7117 0.57594 0.0
H1895 H 0.79904 0.85584 0.71265 0.0
H1896 H 0.02762 0.84872 0.56791 0.0
H1897 H 0.99674 0.82302 0.58162 0.0
H1898 H 0.03169 0.8244 0.63509 0.0
H1899 H 0.06259 0.8503 0.62158 0.0
H1900 H 0.00201 0.78297 0.6174 0.0
H1901 H 0.00768 0.84933 0.63924 0.0
H1902 H 0.01166 0.88411 0.63444 0.0
H1903 H 0.95761 0.85511 0.59404 0.0
H1904 H 0.95347 0.82016 0.59838 0.0
H1905 H 0.92241 0.73035 0.67938 0.0
H1906 H 0.9535 0.75558 0.6657 0.0
H1907 H 0.91865 0.76162 0.6163 0.0
H1908 H 0.88757 0.73662 0.63007 0.0
H1909 H 0.94849 0.79934 0.63179 0.0
H1910 H 0.94199 0.73372 0.60883 0.0
H1911 H 0.93719 0.69834 0.61176 0.0
H1912 H 0.99154 0.72471 0.6515 0.0
H1913 H 0.99652 0.76026 0.64904 0.0
C1914 C 0.02867 0.84358 0.58262 0.0
C1915 C 0.04742 0.85158 0.59374 0.0
C1916 C 0.01107 0.82894 0.59042 0.0
C1917 C 0.01197 0.82192 0.60939 0.0
C1918 C 0.03072 0.82966 0.62043 0.0
C1919 C 0.04832 0.84452 0.61274 0.0
C1920 C 0.99329 0.80655 0.61771 0.0
C1921 C 0.99041 0.7866 0.62085 0.0
C1922 C 0.97795 0.81116 0.62155 0.0
C1923 C 0.98038 0.83215 0.61897 0.0
C1924 C 0.99674 0.85038 0.62919 0.0
C1925 C 0.99901 0.87012 0.62658 0.0
C1926 C 0.98493 0.87182 0.6139 0.0
C1927 C 0.96852 0.85377 0.60384 0.0
C1928 C 0.9662 0.83399 0.60638 0.0
C1929 C 0.92143 0.73706 0.6656 0.0
C1930 C 0.90266 0.73163 0.65579 0.0
C1931 C 0.93917 0.75139 0.65775 0.0
C1932 C 0.93839 0.76036 0.63989 0.0
C1933 C 0.9196 0.75492 0.63011 0.0
C1934 C 0.90188 0.74063 0.63796 0.0
C1935 C 0.95717 0.77569 0.63159 0.0
C1936 C 0.96007 0.79565 0.6284 0.0
C1937 C 0.9724 0.77098 0.62744 0.0
C1938 C 0.96952 0.74964 0.62892 0.0
C1939 C 0.95283 0.73197 0.61833 0.0
C1940 C 0.95009 0.71188 0.61988 0.0
C1941 C 0.96402 0.70927 0.63185 0.0
C1942 C 0.98075 0.72676 0.64225 0.0
C1943 C 0.98355 0.74688 0.64078 0.0
H1944 H 0.96188 0.69371 0.63303 0.0
H1945 H 0.98671 0.88712 0.6119 0.0
H1946 H 0.17383 0.21552 0.55459 0.0
H1947 H 0.19887 0.20808 0.57005 0.0
H1948 H 0.16858 0.19471 0.62452 0.0
H1949 H 0.14385 0.20279 0.60929 0.0
H1950 H 0.20733 0.21822 0.63374 0.0
H1951 H 0.16586 0.15507 0.58997 0.0
H1952 H 0.14829 0.1337 0.5579 0.0
H1953 H 0.20458 0.15852 0.53177 0.0
H1954 H 0.22246 0.18016 0.56362 0.0
H1955 H 0.26134 0.17322 0.67864 0.0
H1956 H 0.2349 0.1789 0.66356 0.0
H1957 H 0.26503 0.19496 0.60909 0.0
H1958 H 0.29127 0.18889 0.624 0.0
H1959 H 0.22574 0.16922 0.60033 0.0
H1960 H 0.26707 0.23288 0.64346 0.0
H1961 H 0.285 0.25402 0.67553 0.0
H1962 H 0.2292 0.22826 0.70267 0.0
H1963 H 0.21097 0.20674 0.67083 0.0
C1964 C 0.17248 0.2109 0.56984 0.0
C1965 C 0.1569 0.20971 0.58071 0.0
C1966 C 0.18673 0.20652 0.57862 0.0
C1967 C 0.18548 0.20049 0.59837 0.0
C1968 C 0.16985 0.19927 0.60926 0.0
C1969 C 0.1557 0.20385 0.60052 0.0
C1970 C 0.20088 0.19624 0.60791 0.0
C1971 C 0.2111 0.20723 0.62657 0.0
C1972 C 0.20625 0.18233 0.59834 0.0
C1973 C 0.19548 0.1694 0.57913 0.0
C1974 C 0.17447 0.15609 0.57733 0.0
C1975 C 0.16446 0.14389 0.55921 0.0
C1976 C 0.17531 0.14477 0.54279 0.0
C1977 C 0.19619 0.15785 0.54448 0.0
C1978 C 0.20627 0.17006 0.56258 0.0
C1979 C 0.26233 0.17805 0.66348 0.0
C1980 C 0.27838 0.18076 0.65251 0.0
C1981 C 0.24727 0.18135 0.65491 0.0
C1982 C 0.24809 0.18762 0.63527 0.0
C1983 C 0.26409 0.19019 0.62427 0.0
C1984 C 0.27911 0.18681 0.63282 0.0
C1985 C 0.23217 0.19123 0.62608 0.0
C1986 C 0.22188 0.18013 0.6075 0.0
C1987 C 0.22676 0.20505 0.63569 0.0
C1988 C 0.23769 0.21805 0.65482 0.0
C1989 C 0.25865 0.2316 0.65632 0.0
C1990 C 0.26886 0.24367 0.67444 0.0
C1991 C 0.25825 0.24244 0.69114 0.0
C1992 C 0.2374 0.22917 0.68973 0.0
C1993 C 0.22712 0.21705 0.67165 0.0
H1994 H 0.26619 0.2518 0.70517 0.0
H1995 H 0.16753 0.1353 0.52878 0.0
H1996 H 0.78762 0.94501 0.63326 0.0
H1997 H 0.79318 0.97932 0.64688 0.0
H1998 H 0.83187 0.00904 0.6002 0.0
H1999 H 0.82615 0.97483 0.58641 0.0
H2000 H 0.84759 0.03036 0.63919 0.0
H2001 H 0.78633 0.00033 0.59454 0.0
H2002 H 0.75172 0.97301 0.58207 0.0
H2003 H 0.73136 0.97875 0.63948 0.0
H2004 H 0.76595 0.00591 0.65239 0.0
H2005 H 0.85575 0.12935 0.63911 0.0
H2006 H 0.84889 0.0938 0.62983 0.0
H2007 H 0.80394 0.06977 0.67225 0.0
H2008 H 0.81034 0.1054 0.68122 0.0
H2009 H 0.79092 0.04445 0.63867 0.0
H2010 H 0.85138 0.07602 0.683 0.0
H2011 H 0.88586 0.10337 0.69584 0.0
H2012 H 0.90776 0.0945 0.64046 0.0
H2013 H 0.87336 0.06728 0.62717 0.0
C2014 C 0.7974 0.95889 0.62601 0.0
C2015 C 0.8065 0.95735 0.6088 0.0
C2016 C 0.80051 0.97843 0.63375 0.0
C2017 C 0.81289 0.99667 0.62449 0.0
C2018 C 0.82231 0.99516 0.60758 0.0
C2019 C 0.819 0.97564 0.5997 0.0
C2020 C 0.81578 0.01735 0.63205 0.0
C2021 C 0.83525 0.03352 0.63897 0.0
C2022 C 0.79955 0.02124 0.63225 0.0
C2023 C 0.77876 0.00496 0.6245 0.0
C2024 C 0.77451 0.99562 0.60456 0.0
C2025 C 0.75489 0.9802 0.5974 0.0
C2026 C 0.73936 0.9741 0.61 0.0
C2027 C 0.74342 0.98346 0.62976 0.0
C2028 C 0.76302 0.99887 0.637 0.0
C2029 C 0.84441 0.11652 0.64651 0.0
C2030 C 0.83372 0.12022 0.66106 0.0
C2031 C 0.84056 0.09619 0.64124 0.0
C2032 C 0.82622 0.07914 0.65067 0.0
C2033 C 0.81516 0.08269 0.66486 0.0
C2034 C 0.81884 0.10306 0.66998 0.0
C2035 C 0.82284 0.05766 0.64562 0.0
C2036 C 0.80327 0.0413 0.63916 0.0
C2037 C 0.83897 0.05355 0.64599 0.0
C2038 C 0.85975 0.06971 0.65403 0.0
C2039 C 0.86353 0.07998 0.67351 0.0
C2040 C 0.88306 0.09545 0.68088 0.0
C2041 C 0.89899 0.1007 0.66896 0.0
C2042 C 0.89541 0.09043 0.64967 0.0
C2043 C 0.8759 0.07495 0.64222 0.0
H2044 H 0.9141 0.1127 0.67468 0.0
H2045 H 0.72418 0.96217 0.60442 0.0
H2046 H 0.50637 0.36995 0.77949 0.0
H2047 H 0.48009 0.33519 0.7646 0.0
H2048 H 0.48806 0.35785 0.70552 0.0
H2049 H 0.51467 0.39252 0.72034 0.0
H2050 H 0.44504 0.32303 0.7455 0.0
H2051 H 0.47708 0.31736 0.67017 0.0
H2052 H 0.51002 0.3297 0.65682 0.0
H2053 H 0.53701 0.33416 0.7163 0.0
H2054 H 0.5042 0.32158 0.72996 0.0
H2055 H 0.36719 0.23693 0.68389 0.0
H2056 H 0.39538 0.27236 0.694 0.0
H2057 H 0.43451 0.24702 0.70472 0.0
H2058 H 0.40652 0.21164 0.69487 0.0
H2059 H 0.45419 0.28294 0.68895 0.0
H2060 H 0.41224 0.25757 0.74305 0.0
H2061 H 0.3807 0.24311 0.75945 0.0
H2062 H 0.37584 0.29716 0.74755 0.0
H2063 H 0.40733 0.3119 0.73093 0.0
C2064 C 0.5026 0.36743 0.76331 0.0
C2065 C 0.51258 0.38385 0.75107 0.0
C2066 C 0.48755 0.34762 0.75483 0.0
C2067 C 0.48217 0.34386 0.73393 0.0
C2068 C 0.49216 0.36028 0.72164 0.0
C2069 C 0.50732 0.38011 0.73013 0.0
C2070 C 0.46577 0.32287 0.72516 0.0
C2071 C 0.44705 0.31431 0.73308 0.0
C2072 C 0.46845 0.31131 0.70918 0.0
C2073 C 0.48823 0.31877 0.7011 0.0
C2074 C 0.49004 0.32092 0.68038 0.0
C2075 C 0.50868 0.32796 0.67277 0.0
C2076 C 0.52561 0.33279 0.68572 0.0
C2077 C 0.52391 0.33051 0.7063 0.0
C2078 C 0.5053 0.32345 0.71399 0.0
C2079 C 0.38184 0.23892 0.68825 0.0
C2080 C 0.38454 0.22144 0.68885 0.0
C2081 C 0.39791 0.25917 0.69408 0.0
C2082 C 0.41693 0.26226 0.70062 0.0
C2083 C 0.4199 0.24496 0.70011 0.0
C2084 C 0.40384 0.22473 0.69448 0.0
C2085 C 0.43344 0.28326 0.70916 0.0
C2086 C 0.45217 0.29179 0.70122 0.0
C2087 C 0.43096 0.29454 0.72553 0.0
C2088 C 0.41207 0.28576 0.7356 0.0
C2089 C 0.40442 0.26633 0.74385 0.0
C2090 C 0.38654 0.25808 0.75319 0.0
C2091 C 0.37623 0.26916 0.75449 0.0
C2092 C 0.38382 0.28857 0.74651 0.0
C2093 C 0.4017 0.2969 0.73715 0.0
H2094 H 0.36238 0.26274 0.76172 0.0
H2095 H 0.54003 0.33824 0.67979 0.0
H2096 H 0.63306 0.10439 0.78316 0.0
H2097 H 0.66637 0.11799 0.77109 0.0
H2098 H 0.65354 0.15419 0.73027 0.0
H2099 H 0.62015 0.14072 0.74245 0.0
H2100 H 0.66791 0.13019 0.71192 0.0
H2101 H 0.68626 0.17898 0.77021 0.0
H2102 H 0.68822 0.19045 0.80608 0.0
H2103 H 0.71983 0.15838 0.8225 0.0
H2104 H 0.71777 0.14639 0.78677 0.0
H2105 H 0.76597 0.17937 0.67941 0.0
H2106 H 0.73501 0.17361 0.69323 0.0
H2107 H 0.74494 0.1413 0.74072 0.0
H2108 H 0.77622 0.14753 0.7272 0.0
H2109 H 0.73247 0.16653 0.75543 0.0
H2110 H 0.71108 0.11433 0.69912 0.0
H2111 H 0.70891 0.10125 0.66373 0.0
H2112 H 0.68273 0.1377 0.64431 0.0
H2113 H 0.68499 0.15123 0.67959 0.0
C2114 C 0.63743 0.11539 0.77172 0.0
C2115 C 0.62407 0.1215 0.76372 0.0
C2116 C 0.65648 0.12324 0.76494 0.0
C2117 C 0.66249 0.13726 0.74994 0.0
C2118 C 0.6492 0.14347 0.74195 0.0
C2119 C 0.63017 0.13579 0.74891 0.0
C2120 C 0.68212 0.14422 0.74175 0.0
C2121 C 0.68208 0.13852 0.72133 0.0
C2122 C 0.70051 0.15449 0.75422 0.0
C2123 C 0.70163 0.16156 0.77579 0.0
C2124 C 0.69342 0.17415 0.78148 0.0
C2125 C 0.69459 0.18079 0.8018 0.0
C2126 C 0.70404 0.17505 0.81657 0.0
C2127 C 0.71242 0.16272 0.81105 0.0
C2128 C 0.71128 0.15602 0.79076 0.0
C2129 C 0.76152 0.17104 0.69279 0.0
C2130 C 0.7733 0.16369 0.70215 0.0
C2131 C 0.74382 0.16771 0.70064 0.0
C2132 C 0.73749 0.15674 0.71783 0.0
C2133 C 0.7495 0.14975 0.72741 0.0
C2134 C 0.76728 0.1532 0.71963 0.0
C2135 C 0.71821 0.15225 0.72566 0.0
C2136 C 0.71831 0.15838 0.74598 0.0
C2137 C 0.69981 0.1421 0.71319 0.0
C2138 C 0.69842 0.13397 0.69197 0.0
C2139 C 0.70501 0.11969 0.68729 0.0
C2140 C 0.70374 0.11217 0.66725 0.0
C2141 C 0.69575 0.11869 0.65177 0.0
C2142 C 0.68896 0.1327 0.65631 0.0
C2143 C 0.69022 0.14028 0.67632 0.0
H2144 H 0.69477 0.11285 0.63627 0.0
H2145 H 0.70496 0.18024 0.83229 0.0
H2146 H 0.87119 0.49082 0.71723 0.0
H2147 H 0.85879 0.51405 0.70678 0.0
H2148 H 0.90751 0.56586 0.7444 0.0
H2149 H 0.9199 0.5427 0.75493 0.0
H2150 H 0.87205 0.56427 0.7489 0.0
H2151 H 0.90951 0.56212 0.69429 0.0
H2152 H 0.91846 0.54499 0.66725 0.0
H2153 H 0.85879 0.51751 0.63755 0.0
H2154 H 0.8494 0.53426 0.66458 0.0
H2155 H 0.87073 0.64236 0.67651 0.0
H2156 H 0.88081 0.61702 0.68548 0.0
H2157 H 0.82666 0.58311 0.71518 0.0
H2158 H 0.81661 0.60862 0.70662 0.0
H2159 H 0.86464 0.57555 0.67697 0.0
H2160 H 0.83812 0.56367 0.75709 0.0
H2161 H 0.83122 0.58252 0.78423 0.0
H2162 H 0.87277 0.64161 0.76328 0.0
H2163 H 0.88047 0.62317 0.73635 0.0
C2164 C 0.87926 0.50716 0.72324 0.0
C2165 C 0.89656 0.51502 0.73685 0.0
C2166 C 0.87219 0.52042 0.71723 0.0
C2167 C 0.88229 0.54171 0.72475 0.0
C2168 C 0.89946 0.54948 0.73845 0.0
C2169 C 0.90657 0.53628 0.74438 0.0
C2170 C 0.87508 0.55601 0.71834 0.0
C2171 C 0.87035 0.56668 0.73317 0.0
C2172 C 0.87307 0.55931 0.69784 0.0
C2173 C 0.87869 0.54926 0.68156 0.0
C2174 C 0.89825 0.55228 0.68208 0.0
C2175 C 0.90341 0.54267 0.66674 0.0
C2176 C 0.88919 0.53012 0.65072 0.0
C2177 C 0.86978 0.5272 0.64999 0.0
C2178 C 0.86453 0.53676 0.6653 0.0
C2179 C 0.8609 0.62949 0.6849 0.0
C2180 C 0.84291 0.62761 0.69094 0.0
C2181 C 0.86666 0.61495 0.68993 0.0
C2182 C 0.85459 0.59829 0.70115 0.0
C2183 C 0.83634 0.59602 0.70674 0.0
C2184 C 0.8306 0.6106 0.70178 0.0
C2185 C 0.86149 0.58373 0.70752 0.0
C2186 C 0.86617 0.57301 0.69269 0.0
C2187 C 0.86372 0.58061 0.72806 0.0
C2188 C 0.85967 0.59199 0.74453 0.0
C2189 C 0.84588 0.58069 0.75833 0.0
C2190 C 0.84181 0.59131 0.77368 0.0
C2191 C 0.85141 0.61323 0.77542 0.0
C2192 C 0.86527 0.62462 0.76188 0.0
C2193 C 0.86952 0.61409 0.74658 0.0
H2194 H 0.84816 0.62138 0.7873 0.0
H2195 H 0.89322 0.5227 0.63886 0.0
H2196 H 0.42624 0.93398 0.20584 0.0
H2197 H 0.43424 0.95024 0.1741 0.0
H2198 H 0.46401 0.91573 0.1587 0.0
H2199 H 0.45522 0.89851 0.18987 0.0
H2200 H 0.4877 0.96287 0.16179 0.0
H2201 H 0.42573 0.9025 0.12997 0.0
H2202 H 0.3891 0.87784 0.12504 0.0
H2203 H 0.37876 0.92958 0.11951 0.0
H2204 H 0.4152 0.95443 0.12446 0.0
H2205 H 0.51972 0.99476 0.06679 0.0
H2206 H 0.50621 0.97617 0.09637 0.0
H2207 H 0.46145 0.99519 0.09463 0.0
H2208 H 0.47471 0.01338 0.06449 0.0
H2209 H 0.44421 0.95652 0.10103 0.0
H2210 H 0.50377 0.01698 0.13085 0.0
H2211 H 0.53979 0.04378 0.13585 0.0
H2212 H 0.55455 0.99619 0.14807 0.0
H2213 H 0.51864 0.96903 0.14279 0.0
C2214 C 0.43391 0.92929 0.19545 0.0
C2215 C 0.4403 0.91509 0.20057 0.0
C2216 C 0.43852 0.93867 0.17735 0.0
C2217 C 0.44971 0.93416 0.16418 0.0
C2218 C 0.45536 0.91938 0.16876 0.0
C2219 C 0.4505 0.90974 0.18668 0.0
C2220 C 0.45765 0.94671 0.14696 0.0
C2221 C 0.4783 0.96135 0.14834 0.0
C2222 C 0.44513 0.9453 0.12998 0.0
C2223 C 0.42317 0.93033 0.12781 0.0
C2224 C 0.4156 0.9086 0.12795 0.0
C2225 C 0.39486 0.89457 0.12505 0.0
C2226 C 0.38155 0.9021 0.122 0.0
C2227 C 0.38898 0.92369 0.12193 0.0
C2228 C 0.40969 0.93775 0.12473 0.0
C2229 C 0.50716 0.99518 0.0729 0.0
C2230 C 0.4982 0.00545 0.0635 0.0
C2231 C 0.49944 0.98455 0.0898 0.0
C2232 C 0.48294 0.98444 0.09792 0.0
C2233 C 0.47418 0.99504 0.08866 0.0
C2234 C 0.48176 0.00546 0.07154 0.0
C2235 C 0.47447 0.97264 0.11562 0.0
C2236 C 0.45372 0.9582 0.11444 0.0
C2237 C 0.48684 0.97462 0.13309 0.0
C2238 C 0.5085 0.99093 0.13624 0.0
C2239 C 0.5147 0.01219 0.13444 0.0
C2240 C 0.53511 0.02746 0.13734 0.0
C2241 C 0.54946 0.02169 0.14223 0.0
C2242 C 0.54342 0.00064 0.14428 0.0
C2243 C 0.52304 0.9853 0.14135 0.0
H2244 H 0.56525 0.03353 0.14447 0.0
H2245 H 0.36551 0.89121 0.11963 0.0
H2246 H 0.11316 0.5528 0.21108 0.0
H2247 H 0.09575 0.54436 0.17718 0.0
H2248 H 0.04293 0.49342 0.19845 0.0
H2249 H 0.06062 0.50143 0.23228 0.0
H2250 H 0.04774 0.48158 0.16269 0.0
H2251 H 0.04722 0.54208 0.19185 0.0
H2252 H 0.06194 0.5779 0.20875 0.0
H2253 H 0.09737 0.60332 0.15918 0.0
H2254 H 0.08308 0.56761 0.14211 0.0
H2255 H 0.9935 0.51325 0.07994 0.0
H2256 H 0.00908 0.51727 0.11401 0.0
H2257 H 0.04101 0.48712 0.09189 0.0
H2258 H 0.02466 0.48235 0.05799 0.0
H2259 H 0.04529 0.53871 0.12884 0.0
H2260 H 0.05236 0.46409 0.12842 0.0
H2261 H 0.03435 0.42746 0.11293 0.0
H2262 H 0.97906 0.42856 0.10788 0.0
H2263 H 0.99669 0.4651 0.12353 0.0
C2264 C 0.09784 0.5398 0.20848 0.0
C2265 C 0.08813 0.52788 0.22428 0.0
C2266 C 0.08789 0.535 0.18913 0.0
C2267 C 0.06788 0.51851 0.18534 0.0
C2268 C 0.05835 0.50623 0.20102 0.0
C2269 C 0.06842 0.51083 0.22032 0.0
C2270 C 0.05676 0.51445 0.16517 0.0
C2271 C 0.04718 0.49406 0.15529 0.0
C2272 C 0.0557 0.53063 0.15563 0.0
C2273 C 0.06421 0.55215 0.16579 0.0
C2274 C 0.05825 0.5553 0.18461 0.0
C2275 C 0.0665 0.57558 0.19422 0.0
C2276 C 0.08062 0.59287 0.18507 0.0
C2277 C 0.08646 0.58991 0.16627 0.0
C2278 C 0.07828 0.56965 0.15661 0.0
C2279 C 0.00364 0.50723 0.08244 0.0
C2280 C 0.00771 0.4972 0.06641 0.0
C2281 C 0.01261 0.50961 0.10189 0.0
C2282 C 0.0261 0.50231 0.10565 0.0
C2283 C 0.03028 0.49241 0.08955 0.0
C2284 C 0.02096 0.48967 0.07014 0.0
C2285 C 0.03625 0.50583 0.12626 0.0
C2286 C 0.04577 0.52618 0.13622 0.0
C2287 C 0.03671 0.48947 0.13608 0.0
C2288 C 0.02589 0.46738 0.12699 0.0
C2289 C 0.03634 0.45647 0.12409 0.0
C2290 C 0.02621 0.43574 0.11526 0.0
C2291 C 0.00559 0.42571 0.10938 0.0
C2292 C 0.99504 0.43637 0.11238 0.0
C2293 C 0.0051 0.45709 0.12121 0.0
H2294 H 0.99777 0.40967 0.10252 0.0
H2295 H 0.08699 0.60856 0.19253 0.0
H2296 H 0.46459 0.51284 0.22078 0.0
H2297 H 0.47183 0.50802 0.18626 0.0
H2298 H 0.50404 0.57526 0.18371 0.0
H2299 H 0.49571 0.58011 0.21741 0.0
H2300 H 0.48056 0.55797 0.15144 0.0
H2301 H 0.52782 0.54486 0.18844 0.0
H2302 H 0.53879 0.52753 0.21259 0.0
H2303 H 0.50136 0.468 0.17808 0.0
H2304 H 0.48995 0.48494 0.15386 0.0
H2305 H 0.53874 0.56445 0.0679 0.0
H2306 H 0.52735 0.5669 0.10114 0.0
H2307 H 0.48316 0.50081 0.09274 0.0
H2308 H 0.49417 0.49839 0.05937 0.0
H2309 H 0.51081 0.51536 0.1297 0.0
H2310 H 0.4627 0.52918 0.09404 0.0
H2311 H 0.44895 0.5465 0.07293 0.0
H2312 H 0.48921 0.60592 0.10638 0.0
H2313 H 0.50319 0.58897 0.1276 0.0
C2314 C 0.47312 0.52659 0.21282 0.0
C2315 C 0.47961 0.54687 0.22199 0.0
C2316 C 0.47749 0.52382 0.19317 0.0
C2317 C 0.4887 0.54129 0.18243 0.0
C2318 C 0.49542 0.56152 0.19167 0.0
C2319 C 0.49083 0.56428 0.21112 0.0
C2320 C 0.4926 0.53871 0.16118 0.0
C2321 C 0.48749 0.54891 0.14681 0.0
C2322 C 0.50104 0.52635 0.15493 0.0
C2323 C 0.50787 0.51613 0.16947 0.0
C2324 C 0.5218 0.52804 0.1861 0.0
C2325 C 0.52812 0.5183 0.19978 0.0
C2326 C 0.52073 0.49667 0.19691 0.0
C2327 C 0.50704 0.48475 0.18031 0.0
C2328 C 0.50066 0.49442 0.16659 0.0
C2329 C 0.52648 0.55053 0.07312 0.0
C2330 C 0.5174 0.53122 0.06121 0.0
C2331 C 0.51991 0.55196 0.09199 0.0
C2332 C 0.50441 0.53403 0.09933 0.0
C2333 C 0.49511 0.51481 0.08729 0.0
C2334 C 0.50142 0.51347 0.06829 0.0
C2335 C 0.49912 0.535 0.12022 0.0
C2336 C 0.50395 0.52445 0.13446 0.0
C2337 C 0.49069 0.54728 0.12647 0.0
C2338 C 0.48413 0.55786 0.1122 0.0
C2339 C 0.46888 0.546 0.09658 0.0
C2340 C 0.4609 0.55571 0.08477 0.0
C2341 C 0.46809 0.57725 0.08847 0.0
C2342 C 0.48358 0.58922 0.10364 0.0
C2343 C 0.49153 0.57958 0.11554 0.0
H2344 H 0.46174 0.58474 0.07955 0.0
H2345 H 0.52565 0.48915 0.20751 0.0
H2346 H 0.9063 0.47302 0.80946 0.0
H2347 H 0.9236 0.47953 0.84328 0.0
H2348 H 0.95911 0.4538 0.82086 0.0
H2349 H 0.94189 0.44722 0.78716 0.0
H2350 H 0.94441 0.43776 0.85447 0.0
H2351 H 0.97773 0.50605 0.83138 0.0
H2352 H 0.98097 0.53798 0.8179 0.0
H2353 H 0.95724 0.55045 0.87033 0.0
H2354 H 0.95369 0.51849 0.88403 0.0
H2355 H 0.01368 0.46765 0.94094 0.0
H2356 H -0.0 0.46593 0.90639 0.0
H2357 H 0.96211 0.48851 0.92909 0.0
H2358 H 0.97589 0.49021 0.96351 0.0
H2359 H 0.97866 0.50677 0.8953 0.0
H2360 H 0.94608 0.43755 0.91797 0.0
H2361 H 0.94513 0.40655 0.93129 0.0
H2362 H 0.96991 0.39657 0.87854 0.0
H2363 H 0.97179 0.42803 0.86526 0.0
C2364 C 0.91797 0.469 0.81173 0.0
C2365 C 0.9227 0.45955 0.79569 0.0
C2366 C 0.92782 0.47271 0.83104 0.0
C2367 C 0.94272 0.46724 0.83457 0.0
C2368 C 0.94761 0.45805 0.81851 0.0
C2369 C 0.93773 0.45427 0.79927 0.0
C2370 C 0.9528 0.47039 0.8551 0.0
C2371 C 0.95214 0.45292 0.86329 0.0
C2372 C 0.96258 0.49013 0.86671 0.0
C2373 C 0.96493 0.50952 0.85852 0.0
C2374 C 0.97293 0.51542 0.83992 0.0
C2375 C 0.97492 0.5336 0.83227 0.0
C2376 C 0.96918 0.54616 0.84318 0.0
C2377 C 0.96157 0.54064 0.86183 0.0
C2378 C 0.95955 0.52248 0.86953 0.0
C2379 C 0.00258 0.47243 0.93848 0.0
C2380 C 0.99605 0.47948 0.95483 0.0
C2381 C 0.99478 0.47144 0.91879 0.0
C2382 C 0.97997 0.477 0.91519 0.0
C2383 C 0.97368 0.48436 0.93151 0.0
C2384 C 0.98165 0.48552 0.95117 0.0
C2385 C 0.97029 0.47418 0.89456 0.0
C2386 C 0.97095 0.49165 0.88641 0.0
C2387 C 0.96073 0.45451 0.88285 0.0
C2388 C 0.9592 0.43529 0.89069 0.0
C2389 C 0.95141 0.42882 0.90925 0.0
C2390 C 0.95072 0.41116 0.91681 0.0
C2391 C 0.95735 0.39953 0.90574 0.0
C2392 C 0.96476 0.40559 0.88711 0.0
C2393 C 0.96571 0.42339 0.87959 0.0
H2394 H 0.95676 0.38584 0.9116 0.0
H2395 H 0.97074 0.56022 0.83723 0.0
H2396 H 0.58178 0.49882 0.8134 0.0
H2397 H 0.57301 0.5101 0.84438 0.0
H2398 H 0.50997 0.47157 0.82394 0.0
H2399 H 0.51865 0.46104 0.79236 0.0
H2400 H 0.51729 0.50808 0.84192 0.0
H2401 H 0.53352 0.45515 0.85752 0.0
H2402 H 0.55425 0.43829 0.85941 0.0
H2403 H 0.60042 0.49178 0.89693 0.0
H2404 H 0.58009 0.50912 0.89499 0.0
H2405 H 0.47858 0.49627 0.93887 0.0
H2406 H 0.48772 0.49215 0.90492 0.0
H2407 H 0.55026 0.53494 0.9249 0.0
H2408 H 0.54094 0.53953 0.95854 0.0
H2409 H 0.54367 0.49742 0.90708 0.0
H2410 H 0.52612 0.54952 0.89252 0.0
H2411 H 0.50445 0.56531 0.89117 0.0
H2412 H 0.45959 0.51204 0.85244 0.0
H2413 H 0.48088 0.49578 0.85379 0.0
C2414 C 0.56605 0.49302 0.81529 0.0
C2415 C 0.55091 0.47893 0.8004 0.0
C2416 C 0.56106 0.49931 0.83313 0.0
C2417 C 0.54083 0.4914 0.83663 0.0
C2418 C 0.52568 0.47779 0.8216 0.0
C2419 C 0.53066 0.47161 0.80366 0.0
C2420 C 0.53549 0.49686 0.85618 0.0
C2421 C 0.52287 0.50554 0.85617 0.0
C2422 C 0.54308 0.4939 0.87478 0.0
C2423 C 0.55538 0.48354 0.8759 0.0
C2424 C 0.54817 0.46341 0.86601 0.0
C2425 C 0.55984 0.45375 0.86712 0.0
C2426 C 0.57867 0.46399 0.87823 0.0
C2427 C 0.58585 0.48389 0.88829 0.0
C2428 C 0.57426 0.49364 0.88719 0.0
C2429 C 0.49421 0.50506 0.93582 0.0
C2430 C 0.50923 0.51768 0.95135 0.0
C2431 C 0.49941 0.50272 0.91649 0.0
C2432 C 0.51969 0.51312 0.91247 0.0
C2433 C 0.53456 0.52656 0.92778 0.0
C2434 C 0.52932 0.52894 0.94704 0.0
C2435 C 0.52555 0.5087 0.89283 0.0
C2436 C 0.5382 0.5001 0.89284 0.0
C2437 C 0.51785 0.51158 0.87428 0.0
C2438 C 0.50502 0.52134 0.87342 0.0
C2439 C 0.51156 0.54108 0.88386 0.0
C2440 C 0.49936 0.55014 0.88306 0.0
C2441 C 0.48063 0.53966 0.87177 0.0
C2442 C 0.47409 0.52013 0.8612 0.0
C2443 C 0.48623 0.51099 0.86196 0.0
H2444 H 0.47121 0.5467 0.87117 0.0
H2445 H 0.58767 0.45648 0.87908 0.0
H2446 H 0.53667 0.10683 0.83471 0.0
H2447 H 0.52713 0.08671 0.86431 0.0
H2448 H 0.54175 0.04235 0.83668 0.0
H2449 H 0.55157 0.06258 0.80714 0.0
H2450 H 0.50239 0.02432 0.85176 0.0
H2451 H 0.57263 0.07071 0.87437 0.0
H2452 H 0.60371 0.10527 0.88079 0.0
H2453 H 0.5739 0.12718 0.91952 0.0
H2454 H 0.54284 0.09268 0.91362 0.0
H2455 H 0.51316 0.99841 0.96236 0.0
H2456 H 0.52719 0.01385 0.93139 0.0
H2457 H 0.47395 0.01719 0.9149 0.0
H2458 H 0.46002 0.00213 0.94608 0.0
H2459 H 0.53554 0.05327 0.92104 0.0
H2460 H 0.46557 0.00879 0.8629 0.0
H2461 H 0.43514 0.97375 0.85644 0.0
H2462 H 0.46534 0.94644 0.8879 0.0
H2463 H 0.49603 0.98125 0.89429 0.0
C2464 C 0.53795 0.09286 0.83506 0.0
C2465 C 0.54484 0.08621 0.81874 0.0
C2466 C 0.5326 0.08146 0.85194 0.0
C2467 C 0.53381 0.06313 0.85261 0.0
C2468 C 0.54078 0.05651 0.83638 0.0
C2469 C 0.54644 0.06808 0.81963 0.0
C2470 C 0.527 0.05048 0.86996 0.0
C2471 C 0.50966 0.03054 0.86691 0.0
C2472 C 0.53667 0.05857 0.8896 0.0
C2473 C 0.55542 0.07921 0.89346 0.0
C2474 C 0.57275 0.08293 0.88425 0.0
C2475 C 0.59039 0.10247 0.88789 0.0
C2476 C 0.59083 0.11841 0.90062 0.0
C2477 C 0.57365 0.1148 0.90981 0.0
C2478 C 0.55604 0.09523 0.9064 0.0
C2479 C 0.50442 0.00234 0.95205 0.0
C2480 C 0.48565 0.99936 0.95663 0.0
C2481 C 0.51244 0.01113 0.93441 0.0
C2482 C 0.50158 0.01661 0.92091 0.0
C2483 C 0.48247 0.0129 0.9251 0.0
C2484 C 0.47455 0.00431 0.94286 0.0
C2485 C 0.51064 0.02722 0.90295 0.0
C2486 C 0.52835 0.04687 0.90589 0.0
C2487 C 0.50135 0.01874 0.8832 0.0
C2488 C 0.48304 0.99768 0.87922 0.0
C2489 C 0.46574 0.9953 0.86836 0.0
C2490 C 0.44844 0.97547 0.86472 0.0
C2491 C 0.44829 0.95789 0.87181 0.0
C2492 C 0.46545 0.96008 0.88249 0.0
C2493 C 0.48279 0.97986 0.88615 0.0
H2494 H 0.43487 0.94256 0.86899 0.0
H2495 H 0.60447 0.13355 0.90329 0.0
H2496 H 0.0826 0.24895 0.52526 0.0
H2497 H 0.09092 0.27191 0.49811 0.0
H2498 H 0.15415 0.29658 0.51479 0.0
H2499 H 0.14601 0.27506 0.5431 0.0
H2500 H 0.149 0.3271 0.50574 0.0
H2501 H 0.12481 0.25692 0.47349 0.0
H2502 H 0.10016 0.21931 0.46477 0.0
H2503 H 0.05754 0.23513 0.43928 0.0
H2504 H 0.08188 0.27286 0.44799 0.0
H2505 H 0.19277 0.35713 0.41364 0.0
H2506 H 0.18004 0.34415 0.44583 0.0
H2507 H 0.12082 0.33063 0.42308 0.0
H2508 H 0.13375 0.34394 0.39099 0.0
H2509 H 0.11995 0.2966 0.4357 0.0
H2510 H 0.14638 0.36704 0.4632 0.0
H2511 H 0.17154 0.40461 0.47088 0.0
H2512 H 0.21035 0.38853 0.50449 0.0
H2513 H 0.18555 0.35084 0.49677 0.0
C2514 C 0.09831 0.2595 0.52343 0.0
C2515 C 0.11362 0.26002 0.53645 0.0
C2516 C 0.10303 0.27244 0.50765 0.0
C2517 C 0.12317 0.28574 0.50411 0.0
C2518 C 0.13848 0.2864 0.51713 0.0
C2519 C 0.13378 0.27381 0.53317 0.0
C2520 C 0.12843 0.29887 0.4868 0.0
C2521 C 0.14278 0.32038 0.4904 0.0
C2522 C 0.11973 0.29034 0.46683 0.0
C2523 C 0.10507 0.26768 0.46163 0.0
C2524 C 0.11012 0.25237 0.46616 0.0
C2525 C 0.09622 0.23104 0.46118 0.0
C2526 C 0.07728 0.22485 0.45153 0.0
C2527 C 0.07221 0.23997 0.44679 0.0
C2528 C 0.08605 0.26132 0.45173 0.0
C2529 C 0.17724 0.35211 0.41586 0.0
C2530 C 0.16409 0.3512 0.39995 0.0
C2531 C 0.16994 0.34467 0.43421 0.0
C2532 C 0.14944 0.33634 0.43685 0.0
C2533 C 0.13665 0.33687 0.42134 0.0
C2534 C 0.14398 0.34435 0.40303 0.0
C2535 C 0.141 0.32465 0.45458 0.0
C2536 C 0.12599 0.3034 0.45107 0.0
C2537 C 0.14915 0.3334 0.47456 0.0
C2538 C 0.16413 0.35608 0.47928 0.0
C2539 C 0.16034 0.3715 0.47209 0.0
C2540 C 0.17453 0.39283 0.47648 0.0
C2541 C 0.19254 0.39895 0.48814 0.0
C2542 C 0.19639 0.38376 0.49546 0.0
C2543 C 0.18225 0.36241 0.49111 0.0
H2544 H 0.20351 0.41548 0.49152 0.0
H2545 H 0.06654 0.20833 0.44769 0.0
H2546 H 0.78308 0.89739 0.53828 0.0
H2547 H 0.76598 0.88933 0.50425 0.0
H2548 H 0.72058 0.82882 0.52015 0.0
H2549 H 0.73759 0.83677 0.55421 0.0
H2550 H 0.73112 0.82576 0.4827 0.0
H2551 H 0.71171 0.86931 0.52025 0.0
H2552 H 0.71771 0.9007 0.54147 0.0
H2553 H 0.74889 0.93989 0.49529 0.0
H2554 H 0.74333 0.90874 0.47391 0.0
H2555 H 0.65726 0.84163 0.40894 0.0
H2556 H 0.67494 0.84661 0.44222 0.0
H2557 H 0.71918 0.83657 0.41439 0.0
H2558 H 0.70076 0.83033 0.3815 0.0
H2559 H 0.70897 0.8741 0.4583 0.0
H2560 H 0.74215 0.82003 0.44602 0.0
H2561 H 0.73455 0.78771 0.42535 0.0
H2562 H 0.67142 0.76668 0.42266 0.0
H2563 H 0.67863 0.79878 0.4435 0.0
C2564 C 0.76944 0.88237 0.53452 0.0
C2565 C 0.76159 0.86777 0.54897 0.0
C2566 C 0.75973 0.87777 0.51507 0.0
C2567 C 0.74188 0.85858 0.50975 0.0
C2568 C 0.73436 0.84371 0.52393 0.0
C2569 C 0.7441 0.84826 0.54337 0.0
C2570 C 0.73059 0.85434 0.4897 0.0
C2571 C 0.72625 0.8363 0.47733 0.0
C2572 C 0.72406 0.86798 0.48281 0.0
C2573 C 0.72727 0.88671 0.49557 0.0
C2574 C 0.71997 0.88464 0.51468 0.0
C2575 C 0.72327 0.90238 0.52673 0.0
C2576 C 0.73372 0.92228 0.51976 0.0
C2577 C 0.74083 0.92447 0.50069 0.0
C2578 C 0.7376 0.90677 0.48859 0.0
C2579 C 0.67058 0.84014 0.41007 0.0
C2580 C 0.67741 0.83506 0.39278 0.0
C2581 C 0.68074 0.8431 0.42904 0.0
C2582 C 0.69825 0.84159 0.43097 0.0
C2583 C 0.70535 0.83707 0.41351 0.0
C2584 C 0.69481 0.83347 0.39465 0.0
C2585 C 0.7093 0.84538 0.45117 0.0
C2586 C 0.71374 0.86346 0.46359 0.0
C2587 C 0.71558 0.83154 0.45822 0.0
C2588 C 0.71096 0.81187 0.4462 0.0
C2589 C 0.72664 0.80844 0.44113 0.0
C2590 C 0.7224 0.79018 0.42935 0.0
C2591 C 0.70252 0.77517 0.42266 0.0
C2592 C 0.68682 0.77834 0.42781 0.0
C2593 C 0.69097 0.79657 0.4396 0.0
H2594 H 0.69928 0.76107 0.4135 0.0
H2595 H 0.73627 0.93601 0.52911 0.0
H2596 H 0.11145 0.85686 0.54401 0.0
H2597 H 0.11866 0.84732 0.51117 0.0
H2598 H 0.15596 0.91297 0.50258 0.0
H2599 H 0.14777 0.92266 0.53479 0.0
H2600 H 0.13538 0.89192 0.46818 0.0
H2601 H 0.17595 0.88273 0.51994 0.0
H2602 H 0.18198 0.86855 0.55056 0.0
H2603 H 0.14519 0.80565 0.52238 0.0
H2604 H 0.13873 0.81947 0.49167 0.0
H2605 H 0.20299 0.88952 0.40181 0.0
H2606 H 0.18777 0.89438 0.43144 0.0
H2607 H 0.14605 0.82761 0.42736 0.0
H2608 H 0.16126 0.82269 0.3976 0.0
H2609 H 0.16551 0.84605 0.46669 0.0
H2610 H 0.12822 0.85574 0.41337 0.0
H2611 H 0.12278 0.87019 0.38273 0.0
H2612 H 0.15378 0.9323 0.41349 0.0
H2613 H 0.15984 0.91832 0.44425 0.0
C2614 C 0.12086 0.8693 0.53499 0.0
C2615 C 0.1292 0.89056 0.5422 0.0
C2616 C 0.12516 0.8638 0.51629 0.0
C2617 C 0.1382 0.87943 0.5046 0.0
C2618 C 0.14597 0.90064 0.5114 0.0
C2619 C 0.14148 0.90615 0.52997 0.0
C2620 C 0.14445 0.87379 0.4857 0.0
C2621 C 0.14216 0.88208 0.4679 0.0
C2622 C 0.15276 0.86043 0.48519 0.0
C2623 C 0.15669 0.85212 0.5036 0.0
C2624 C 0.16903 0.86587 0.52033 0.0
C2625 C 0.17255 0.8579 0.53769 0.0
C2626 C 0.16393 0.83621 0.53844 0.0
C2627 C 0.15183 0.82245 0.5218 0.0
C2628 C 0.14824 0.83034 0.50441 0.0
C2629 C 0.19065 0.87589 0.40733 0.0
C2630 C 0.18319 0.85574 0.39751 0.0
C2631 C 0.18189 0.87869 0.42411 0.0
C2632 C 0.1657 0.86136 0.43141 0.0
C2633 C 0.15848 0.84115 0.42185 0.0
C2634 C 0.1671 0.83838 0.40489 0.0
C2635 C 0.15672 0.86446 0.44936 0.0
C2636 C 0.15856 0.85574 0.46696 0.0
C2637 C 0.14805 0.87745 0.44967 0.0
C2638 C 0.14467 0.88599 0.4311 0.0
C2639 C 0.13414 0.87252 0.41355 0.0
C2640 C 0.13087 0.88061 0.39617 0.0
C2641 C 0.13793 0.90213 0.39617 0.0
C2642 C 0.14834 0.91563 0.41352 0.0
C2643 C 0.15168 0.90763 0.43095 0.0
H2644 H 0.13526 0.90833 0.38273 0.0
H2645 H 0.16667 0.83008 0.55189 0.0
H2646 H 0.60254 0.81811 0.12317 0.0
H2647 H 0.61887 0.82546 0.15757 0.0
H2648 H 0.57311 0.76449 0.17207 0.0
H2649 H 0.55674 0.75702 0.13764 0.0
H2650 H 0.58441 0.79801 0.20338 0.0
H2651 H 0.6137 0.76778 0.16027 0.0
H2652 H 0.63003 0.76547 0.13021 0.0
H2653 H 0.67998 0.82747 0.14753 0.0
H2654 H 0.66377 0.83026 0.17755 0.0
H2655 H 0.65739 0.78317 0.27422 0.0
H2656 H 0.63953 0.77887 0.24126 0.0
H2657 H 0.64336 0.83882 0.25407 0.0
H2658 H 0.66216 0.84364 0.28677 0.0
H2659 H 0.65243 0.8059 0.20947 0.0
H2660 H 0.59331 0.82781 0.23318 0.0
H2661 H 0.57593 0.82792 0.26313 0.0
H2662 H 0.58464 0.77918 0.28546 0.0
H2663 H 0.60161 0.7784 0.25546 0.0
C2664 C 0.59581 0.80642 0.13379 0.0
C2665 C 0.57847 0.78695 0.12775 0.0
C2666 C 0.60515 0.81061 0.15339 0.0
C2667 C 0.59719 0.79548 0.16729 0.0
C2668 C 0.57942 0.77637 0.16155 0.0
C2669 C 0.57021 0.77207 0.14188 0.0
C2670 C 0.60827 0.79891 0.18726 0.0
C2671 C 0.59933 0.79989 0.20477 0.0
C2672 C 0.62759 0.80103 0.18897 0.0
C2673 C 0.63742 0.79932 0.17102 0.0
C2674 C 0.62808 0.78099 0.15757 0.0
C2675 C 0.63733 0.77958 0.14056 0.0
C2676 C 0.656 0.79634 0.13693 0.0
C2677 C 0.66549 0.81452 0.15034 0.0
C2678 C 0.65629 0.81602 0.16736 0.0
C2679 C 0.65454 0.79549 0.26996 0.0
C2680 C 0.66075 0.81356 0.28317 0.0
C2681 C 0.64436 0.79301 0.25116 0.0
C2682 C 0.64001 0.80844 0.24538 0.0
C2683 C 0.64639 0.82664 0.25843 0.0
C2684 C 0.65688 0.82926 0.27715 0.0
C2685 C 0.62874 0.80532 0.22564 0.0
C2686 C 0.63763 0.80433 0.20814 0.0
C2687 C 0.60932 0.80301 0.22402 0.0
C2688 C 0.59897 0.80323 0.24212 0.0
C2689 C 0.59147 0.81707 0.24444 0.0
C2690 C 0.58167 0.81725 0.26144 0.0
C2691 C 0.57926 0.80365 0.27623 0.0
C2692 C 0.58659 0.78979 0.27404 0.0
C2693 C 0.59632 0.78949 0.25704 0.0
H2694 H 0.57163 0.80378 0.28934 0.0
H2695 H 0.66314 0.79521 0.12376 0.0
H2696 H 0.20301 0.77024 0.14686 0.0
H2697 H 0.1924 0.77913 0.1779 0.0
H2698 H 0.21479 0.84241 0.16181 0.0
H2699 H 0.22489 0.8335 0.13032 0.0
H2700 H 0.22821 0.84037 0.20078 0.0
H2701 H 0.16603 0.81137 0.15951 0.0
H2702 H 0.13773 0.78491 0.13598 0.0
H2703 H 0.12204 0.73959 0.1795 0.0
H2704 H 0.15044 0.76569 0.2032 0.0
H2705 H 0.19148 0.86676 0.28755 0.0
H2706 H 0.20081 0.86252 0.25378 0.0
H2707 H 0.16685 0.79501 0.25486 0.0
H2708 H 0.15624 0.79938 0.28769 0.0
H2709 H 0.15874 0.80236 0.22108 0.0
H2710 H 0.22384 0.82951 0.26026 0.0
H2711 H 0.25428 0.85489 0.28213 0.0
H2712 H 0.26521 0.90272 0.24239 0.0
H2713 H 0.23492 0.87757 0.2202 0.0
C2714 C 0.20532 0.78594 0.14967 0.0
C2715 C 0.21481 0.80115 0.13606 0.0
C2716 C 0.19931 0.791 0.16747 0.0
C2717 C 0.20272 0.81138 0.17206 0.0
C2718 C 0.21205 0.82659 0.15851 0.0
C2719 C 0.21792 0.8215 0.1406 0.0
C2720 C 0.19744 0.81699 0.19152 0.0
C2721 C 0.21297 0.83231 0.20519 0.0
C2722 C 0.17764 0.80618 0.19727 0.0
C2723 C 0.16048 0.79046 0.18308 0.0
C2724 C 0.15665 0.79572 0.16401 0.0
C2725 C 0.14057 0.78079 0.15065 0.0
C2726 C 0.12812 0.76057 0.15622 0.0
C2727 C 0.1317 0.75525 0.1752 0.0
C2728 C 0.14778 0.77012 0.18861 0.0
C2729 C 0.18612 0.85108 0.28047 0.0
C2730 C 0.17304 0.83338 0.28998 0.0
C2731 C 0.1916 0.84862 0.26126 0.0
C2732 C 0.18476 0.8284 0.25169 0.0
C2733 C 0.17221 0.81078 0.26169 0.0
C2734 C 0.16618 0.81325 0.28049 0.0
C2735 C 0.1897 0.82529 0.23094 0.0
C2736 C 0.17403 0.81051 0.21685 0.0
C2737 C 0.20945 0.83647 0.22486 0.0
C2738 C 0.22702 0.85175 0.23874 0.0
C2739 C 0.23262 0.8455 0.25633 0.0
C2740 C 0.24989 0.85984 0.26874 0.0
C2741 C 0.26159 0.88045 0.26371 0.0
C2742 C 0.25609 0.88677 0.24628 0.0
C2743 C 0.23893 0.87248 0.23377 0.0
H2744 H 0.27499 0.89155 0.27319 0.0
H2745 H 0.11568 0.74903 0.14586 0.0
H2746 H 0.23085 0.40651 0.1478 0.0
H2747 H 0.22469 0.39169 0.18027 0.0
H2748 H 0.19063 0.42206 0.19402 0.0
H2749 H 0.19777 0.43799 0.16213 0.0
H2750 H 0.21177 0.42284 0.22703 0.0
H2751 H 0.16763 0.37047 0.17352 0.0
H2752 H 0.15944 0.34844 0.14139 0.0
H2753 H 0.19338 0.32107 0.16461 0.0
H2754 H 0.20199 0.34316 0.19681 0.0
H2755 H 0.14005 0.35367 0.28936 0.0
H2756 H 0.15604 0.37259 0.26045 0.0
H2757 H 0.19687 0.34854 0.2635 0.0
H2758 H 0.18115 0.32985 0.29271 0.0
H2759 H 0.17657 0.34495 0.22366 0.0
H2760 H 0.21402 0.39392 0.28052 0.0
H2761 H 0.21837 0.41454 0.31261 0.0
H2762 H 0.19382 0.44816 0.28281 0.0
H2763 H 0.18924 0.42754 0.25059 0.0
C2764 C 0.22244 0.41045 0.15792 0.0
C2765 C 0.21459 0.42325 0.15225 0.0
C2766 C 0.21878 0.4018 0.1764 0.0
C2767 C 0.20688 0.40545 0.18938 0.0
C2768 C 0.19976 0.41894 0.18418 0.0
C2769 C 0.20362 0.4278 0.16582 0.0
C2770 C 0.20067 0.39417 0.20772 0.0
C2771 C 0.20398 0.40582 0.22631 0.0
C2772 C 0.19085 0.37195 0.20678 0.0
C2773 C 0.18565 0.35864 0.18746 0.0
C2774 C 0.17347 0.35987 0.17171 0.0
C2775 C 0.16873 0.34735 0.1535 0.0
C2776 C 0.17594 0.33341 0.15094 0.0
C2777 C 0.18785 0.33191 0.16661 0.0
C2778 C 0.19266 0.34442 0.18484 0.0
C2779 C 0.15233 0.35233 0.28373 0.0
C2780 C 0.15946 0.34039 0.2931 0.0
C2781 C 0.16149 0.3632 0.26738 0.0
C2782 C 0.17764 0.362 0.26004 0.0
C2783 C 0.18443 0.34963 0.26905 0.0
C2784 C 0.1755 0.33903 0.28565 0.0
C2785 C 0.18727 0.37359 0.2428 0.0
C2786 C 0.18462 0.36199 0.22444 0.0
C2787 C 0.19733 0.3958 0.24393 0.0
C2788 C 0.20077 0.40875 0.26321 0.0
C2789 C 0.20929 0.40548 0.28087 0.0
C2790 C 0.21188 0.41724 0.29908 0.0
C2791 C 0.20624 0.43256 0.29978 0.0
C2792 C 0.19811 0.43622 0.28226 0.0
C2793 C 0.19549 0.42447 0.26404 0.0
H2794 H 0.20825 0.44166 0.31389 0.0
H2795 H 0.17224 0.32373 0.13683 0.0
H2796 H 0.74739 0.55648 0.85008 0.0
H2797 H 0.75658 0.57566 0.81978 0.0
H2798 H 0.8091 0.62672 0.85396 0.0
H2799 H 0.80021 0.60736 0.88404 0.0
H2800 H 0.78601 0.63892 0.82762 0.0
H2801 H 0.81498 0.59387 0.82924 0.0
H2802 H 0.81344 0.55972 0.82994 0.0
H2803 H 0.77771 0.53827 0.77285 0.0
H2804 H 0.77869 0.57216 0.77198 0.0
H2805 H 0.85652 0.66999 0.74181 0.0
H2806 H 0.84192 0.64974 0.77037 0.0
H2807 H 0.78743 0.65157 0.75658 0.0
H2808 H 0.80241 0.6727 0.72853 0.0
H2809 H 0.80908 0.61153 0.7717 0.0
H2810 H 0.76758 0.65283 0.80063 0.0
H2811 H 0.76965 0.68736 0.80082 0.0
H2812 H 0.83354 0.71756 0.79791 0.0
H2813 H 0.83188 0.68325 0.79795 0.0
C2814 C 0.76074 0.5719 0.85106 0.0
C2815 C 0.77318 0.58052 0.8692 0.0
C2816 C 0.76599 0.58279 0.83382 0.0
C2817 C 0.78353 0.60255 0.83469 0.0
C2818 C 0.79548 0.61151 0.85305 0.0
C2819 C 0.79047 0.60047 0.87014 0.0
C2820 C 0.79021 0.61359 0.81635 0.0
C2821 C 0.79089 0.63287 0.81529 0.0
C2822 C 0.79675 0.6057 0.80044 0.0
C2823 C 0.79646 0.58541 0.80081 0.0
C2824 C 0.80649 0.58177 0.817 0.0
C2825 C 0.80578 0.56246 0.81739 0.0
C2826 C 0.79534 0.54676 0.80153 0.0
C2827 C 0.78568 0.55039 0.78519 0.0
C2828 C 0.78628 0.56964 0.78476 0.0
C2829 C 0.84152 0.66628 0.74504 0.0
C2830 C 0.83048 0.67276 0.73296 0.0
C2831 C 0.83312 0.65451 0.76119 0.0
C2832 C 0.81359 0.64912 0.76557 0.0
C2833 C 0.80256 0.65565 0.75353 0.0
C2834 C 0.81103 0.66754 0.73744 0.0
C2835 C 0.80502 0.63698 0.78301 0.0
C2836 C 0.80395 0.61746 0.78389 0.0
C2837 C 0.7983 0.64473 0.79887 0.0
C2838 C 0.79956 0.66547 0.7991 0.0
C2839 C 0.78207 0.66686 0.80011 0.0
C2840 C 0.78317 0.68638 0.80016 0.0
C2841 C 0.8017 0.70463 0.79931 0.0
C2842 C 0.81919 0.70341 0.79849 0.0
C2843 C 0.81817 0.68393 0.79845 0.0
H2844 H 0.80252 0.71973 0.79934 0.0
H2845 H 0.79485 0.53185 0.80184 0.0
H2846 H 0.40504 0.21124 0.89499 0.0
H2847 H 0.38986 0.20278 0.86004 0.0
H2848 H 0.43361 0.18614 0.84263 0.0
H2849 H 0.44874 0.19435 0.87771 0.0
H2850 H 0.42678 0.21256 0.81615 0.0
H2851 H 0.39141 0.14788 0.84597 0.0
H2852 H 0.37266 0.12512 0.87197 0.0
H2853 H 0.32583 0.13998 0.86145 0.0
H2854 H 0.34448 0.16313 0.8356 0.0
H2855 H 0.34092 0.14005 0.73136 0.0
H2856 H 0.36126 0.14521 0.76304 0.0
H2857 H 0.37507 0.20964 0.77122 0.0
H2858 H 0.35509 0.20467 0.73937 0.0
H2859 H 0.35576 0.15563 0.80071 0.0
H2860 H 0.42448 0.23961 0.7959 0.0
H2861 H 0.44525 0.26175 0.77055 0.0
H2862 H 0.42669 0.20684 0.72983 0.0
H2863 H 0.40619 0.18428 0.75507 0.0
C2864 C 0.4115 0.20593 0.88367 0.0
C2865 C 0.42802 0.20341 0.88899 0.0
C2866 C 0.40279 0.20103 0.86378 0.0
C2867 C 0.41059 0.19376 0.84885 0.0
C2868 C 0.4274 0.19172 0.85399 0.0
C2869 C 0.43594 0.1963 0.87398 0.0
C2870 C 0.40082 0.18795 0.82798 0.0
C2871 C 0.41127 0.20013 0.81266 0.0
C2872 C 0.38078 0.17137 0.82352 0.0
C2873 C 0.36943 0.15738 0.83897 0.0
C2874 C 0.3772 0.14644 0.84932 0.0
C2875 C 0.36657 0.13344 0.86401 0.0
C2876 C 0.34808 0.13114 0.86839 0.0
C2877 C 0.34016 0.1418 0.85805 0.0
C2878 C 0.35075 0.15484 0.84337 0.0
C2879 C 0.34851 0.15536 0.73983 0.0
C2880 C 0.34659 0.17199 0.73295 0.0
C2881 C 0.36001 0.15826 0.75793 0.0
C2882 C 0.36985 0.17788 0.76932 0.0
C2883 C 0.36786 0.19449 0.76247 0.0
C2884 C 0.35631 0.19158 0.74441 0.0
C2885 C 0.38144 0.18079 0.78887 0.0
C2886 C 0.37131 0.16804 0.80402 0.0
C2887 C 0.40184 0.19679 0.79308 0.0
C2888 C 0.41367 0.21022 0.77743 0.0
C2889 C 0.42486 0.23221 0.78157 0.0
C2890 C 0.43663 0.24485 0.76724 0.0
C2891 C 0.43733 0.23571 0.74864 0.0
C2892 C 0.42609 0.21391 0.74424 0.0
C2893 C 0.41436 0.20118 0.75857 0.0
H2894 H 0.44669 0.24554 0.73772 0.0
H2895 H 0.33987 0.12106 0.87977 0.0
H2896 H 0.809 0.25067 0.86446 0.0
H2897 H 0.81667 0.24078 0.83201 0.0
H2898 H 0.7851 0.17558 0.84402 0.0
H2899 H 0.77782 0.18547 0.87681 0.0
H2900 H 0.82076 0.18603 0.83181 0.0
H2901 H 0.76527 0.19187 0.80696 0.0
H2902 H 0.74335 0.20712 0.80232 0.0
H2903 H 0.7908 0.26033 0.77796 0.0
H2904 H 0.81312 0.24554 0.78263 0.0
H2905 H 0.83067 0.15678 0.72926 0.0
H2906 H 0.81492 0.16015 0.75923 0.0
H2907 H 0.8557 0.22716 0.76549 0.0
H2908 H 0.87172 0.2238 0.73578 0.0
H2909 H 0.81102 0.21115 0.76685 0.0
H2910 H 0.86681 0.20391 0.79548 0.0
H2911 H 0.88611 0.18556 0.79858 0.0
H2912 H 0.83369 0.1306 0.81438 0.0
H2913 H 0.81399 0.14856 0.81108 0.0
C2914 C 0.80367 0.23423 0.86018 0.0
C2915 C 0.79291 0.21886 0.87322 0.0
C2916 C 0.80785 0.22856 0.84153 0.0
C2917 C 0.80129 0.20741 0.8355 0.0
C2918 C 0.79023 0.19198 0.84834 0.0
C2919 C 0.78599 0.19764 0.867 0.0
C2920 C 0.80736 0.20177 0.81651 0.0
C2921 C 0.81827 0.19118 0.81754 0.0
C2922 C 0.80418 0.20852 0.79788 0.0
C2923 C 0.79095 0.21768 0.79533 0.0
C2924 C 0.77111 0.20692 0.8008 0.0
C2925 C 0.75858 0.21545 0.7981 0.0
C2926 C 0.76568 0.23469 0.7899 0.0
C2927 C 0.78532 0.24543 0.78433 0.0
C2928 C 0.79792 0.23697 0.78696 0.0
C2929 C 0.8363 0.17218 0.73716 0.0
C2930 C 0.8524 0.19003 0.73041 0.0
C2931 C 0.82731 0.17408 0.75417 0.0
C2932 C 0.83418 0.19389 0.76444 0.0
C2933 C 0.85023 0.21176 0.75767 0.0
C2934 C 0.85945 0.20981 0.74088 0.0
C2935 C 0.8248 0.19603 0.78245 0.0
C2936 C 0.81326 0.20587 0.78114 0.0
C2937 C 0.82701 0.18821 0.80071 0.0
C2938 C 0.83888 0.17748 0.80279 0.0
C2939 C 0.85935 0.18785 0.79942 0.0
C2940 C 0.87037 0.17753 0.80125 0.0
C2941 C 0.86112 0.1569 0.80661 0.0
C2942 C 0.84083 0.14657 0.81019 0.0
C2943 C 0.82974 0.15681 0.80835 0.0
H2944 H 0.86968 0.14895 0.80803 0.0
H2945 H 0.75595 0.24125 0.78783 0.0
H2946 H 0.22923 0.08655 0.47725 0.0
H2947 H 0.24514 0.09476 0.51164 0.0
H2948 H 0.27817 0.16063 0.50218 0.0
H2949 H 0.26342 0.15237 0.46729 0.0
H2950 H 0.30229 0.15102 0.51972 0.0
H2951 H 0.23733 0.13909 0.53293 0.0
H2952 H 0.20029 0.12049 0.53136 0.0
H2953 H 0.19999 0.06882 0.5585 0.0
H2954 H 0.23699 0.08683 0.55973 0.0
H2955 H 0.33556 0.18004 0.62554 0.0
H2956 H 0.31688 0.17589 0.59292 0.0
H2957 H 0.29517 0.10925 0.58832 0.0
H2958 H 0.31376 0.11332 0.62087 0.0
H2959 H 0.26497 0.12248 0.57931 0.0
H2960 H 0.33064 0.13474 0.56302 0.0
H2961 H 0.36772 0.15505 0.5658 0.0
H2962 H 0.36604 0.20855 0.54554 0.0
H2963 H 0.32892 0.18862 0.54292 0.0
C2964 C 0.24 0.10277 0.48239 0.0
C2965 C 0.24509 0.11877 0.4694 0.0
C2966 C 0.24884 0.1075 0.50222 0.0
C2967 C 0.26262 0.12837 0.50966 0.0
C2968 C 0.2675 0.14441 0.49684 0.0
C2969 C 0.25889 0.13967 0.47691 0.0
C2970 C 0.27291 0.13327 0.53036 0.0
C2971 C 0.29403 0.14506 0.53276 0.0
C2972 C 0.26224 0.12533 0.54743 0.0
C2973 C 0.23994 0.11428 0.54633 0.0
C2974 C 0.22936 0.12367 0.53839 0.0
C2975 C 0.20837 0.11325 0.53758 0.0
C2976 C 0.1978 0.09351 0.54484 0.0
C2977 C 0.20819 0.0841 0.55286 0.0
C2978 C 0.22917 0.0944 0.5536 0.0
C2979 C 0.32664 0.16451 0.61759 0.0
C2980 C 0.32599 0.14698 0.62559 0.0
C2981 C 0.31606 0.16218 0.59903 0.0
C2982 C 0.30464 0.14226 0.58836 0.0
C2983 C 0.3038 0.1247 0.59647 0.0
C2984 C 0.31454 0.12707 0.61491 0.0
C2985 C 0.29409 0.13973 0.56836 0.0
C2986 C 0.27303 0.12848 0.56618 0.0
C2987 C 0.30474 0.14835 0.55154 0.0
C2988 C 0.32703 0.16028 0.55301 0.0
C2989 C 0.33818 0.1509 0.55935 0.0
C2990 C 0.3592 0.16233 0.56085 0.0
C2991 C 0.36923 0.1831 0.55591 0.0
C2992 C 0.35826 0.19247 0.5494 0.0
C2993 C 0.33723 0.18111 0.54789 0.0
H2994 H 0.38551 0.19192 0.55708 0.0
H2995 H 0.18155 0.0855 0.54426 0.0
H2996 H 0.92211 0.15514 0.48861 0.0
H2997 H 0.91391 0.16648 0.51978 0.0
H2998 H 0.85061 0.1264 0.50108 0.0
H2999 H 0.85863 0.1168 0.46892 0.0
H3000 H 0.85536 0.16042 0.51662 0.0
H3001 H 0.88029 0.11529 0.53825 0.0
H3002 H 0.90496 0.10336 0.5423 0.0
H3003 H 0.94768 0.16267 0.57454 0.0
H3004 H 0.92334 0.17502 0.57052 0.0
H3005 H 0.81535 0.14658 0.61168 0.0
H3006 H 0.82776 0.14162 0.58003 0.0
H3007 H 0.8851 0.19741 0.59761 0.0
H3008 H 0.87237 0.20296 0.62897 0.0
H3009 H 0.88613 0.15937 0.58357 0.0
H3010 H 0.85922 0.20273 0.56383 0.0
H3011 H 0.83343 0.21318 0.56071 0.0
H3012 H 0.79303 0.15487 0.52558 0.0
H3013 H 0.81849 0.14392 0.52874 0.0
C3014 C 0.90641 0.14897 0.49089 0.0
C3015 C 0.89106 0.13503 0.47603 0.0
C3016 C 0.90174 0.15519 0.509 0.0
C3017 C 0.88162 0.14702 0.51306 0.0
C3018 C 0.86628 0.13292 0.49839 0.0
C3019 C 0.87092 0.12716 0.48005 0.0
C3020 C 0.87639 0.15352 0.53226 0.0
C3021 C 0.86195 0.15989 0.53122 0.0
C3022 C 0.88544 0.15359 0.55141 0.0
C3023 C 0.90007 0.14616 0.55387 0.0
C3024 C 0.89499 0.12583 0.54608 0.0
C3025 C 0.90891 0.11899 0.5484 0.0
C3026 C 0.92789 0.13227 0.55862 0.0
C3027 C 0.93298 0.1524 0.56661 0.0
C3028 C 0.91913 0.15933 0.56433 0.0
C3029 C 0.83053 0.1579 0.60871 0.0
C3030 C 0.84307 0.17499 0.62286 0.0
C3031 C 0.8376 0.15502 0.59069 0.0
C3032 C 0.85734 0.16911 0.5866 0.0
C3033 C 0.86986 0.1863 0.60063 0.0
C3034 C 0.86266 0.18937 0.61853 0.0
C3035 C 0.86482 0.16557 0.56772 0.0
C3036 C 0.87969 0.1599 0.56887 0.0
C3037 C 0.85603 0.16586 0.54869 0.0
C3038 C 0.84071 0.17243 0.54668 0.0
C3039 C 0.84478 0.19206 0.55559 0.0
C3040 C 0.83023 0.19809 0.55378 0.0
C3041 C 0.81158 0.18468 0.54299 0.0
C3042 C 0.80747 0.16523 0.53395 0.0
C3043 C 0.82196 0.15911 0.53572 0.0
H3044 H 0.80034 0.18938 0.54161 0.0
H3045 H 0.93861 0.12691 0.56038 0.0
H3046 H 0.84031 0.72249 0.46945 0.0
H3047 H 0.83333 0.70845 0.50222 0.0
H3048 H 0.89593 0.74757 0.52392 0.0
H3049 H 0.90305 0.76229 0.49124 0.0
H3050 H 0.87637 0.70329 0.53333 0.0
H3051 H 0.868 0.7644 0.54061 0.0
H3052 H 0.8548 0.78698 0.52942 0.0
H3053 H 0.79437 0.73507 0.52737 0.0
H3054 H 0.80725 0.71216 0.53833 0.0
H3055 H 0.85367 0.67745 0.63394 0.0
H3056 H 0.86745 0.69497 0.60386 0.0
H3057 H 0.80789 0.68007 0.58041 0.0
H3058 H 0.79479 0.66521 0.61167 0.0
H3059 H 0.83066 0.71634 0.57339 0.0
H3060 H 0.83689 0.65394 0.5635 0.0
H3061 H 0.8485 0.6296 0.57319 0.0
H3062 H 0.90987 0.67995 0.57772 0.0
H3063 H 0.8986 0.70461 0.5682 0.0
C3064 C 0.8526 0.72829 0.48122 0.0
C3065 C 0.87221 0.74368 0.4778 0.0
C3066 C 0.8486 0.72013 0.49986 0.0
C3067 C 0.86411 0.72711 0.51542 0.0
C3068 C 0.88381 0.74201 0.512 0.0
C3069 C 0.88783 0.75033 0.49334 0.0
C3070 C 0.85939 0.71917 0.53541 0.0
C3071 C 0.86656 0.70626 0.54229 0.0
C3072 C 0.84634 0.72284 0.54677 0.0
C3073 C 0.83859 0.7366 0.54026 0.0
C3074 C 0.85191 0.75781 0.53768 0.0
C3075 C 0.84448 0.77066 0.53139 0.0
C3076 C 0.82376 0.76246 0.52768 0.0
C3077 C 0.81042 0.7414 0.53023 0.0
C3078 C 0.81777 0.72848 0.53651 0.0
C3079 C 0.84367 0.67833 0.62247 0.0
C3080 C 0.82335 0.67066 0.62535 0.0
C3081 C 0.85145 0.68792 0.60504 0.0
C3082 C 0.83873 0.68872 0.58959 0.0
C3083 C 0.81814 0.67993 0.59211 0.0
C3084 C 0.81058 0.67124 0.60991 0.0
C3085 C 0.84669 0.69933 0.57111 0.0
C3086 C 0.84036 0.7131 0.56455 0.0
C3087 C 0.86012 0.69599 0.55985 0.0
C3088 C 0.86689 0.68112 0.56529 0.0
C3089 C 0.85285 0.65981 0.56663 0.0
C3090 C 0.85937 0.64597 0.57208 0.0
C3091 C 0.8799 0.65323 0.5761 0.0
C3092 C 0.89397 0.67435 0.57461 0.0
C3093 C 0.88753 0.68825 0.56915 0.0
H3094 H 0.88491 0.6425 0.58035 0.0
H3095 H 0.81804 0.77244 0.52283 0.0
loop_
_geom_bond_atom_site_label_1
_geom_bond_atom_site_label_2
_geom_bond_distance
_geom_bond_site_symmetry_2
_ccdc_geom_bond_type
H0 C5 0.930 . S
H1 C8 0.930 . S
H2 C10 0.930 . S
H3 C4 1.016 . S
C4 H3 1.016 . S
C4 N11 1.286 . S
C5 H0 0.930 . S
C5 C6 1.397 . S
C5 C7 1.361 . S
C6 C5 1.397 . S
C6 C10 1.390 . S
C7 C5 1.361 . S
C7 C8 1.393 . S
C7 N11 1.413 . S
C8 H1 0.930 . S
C8 C7 1.393 . S
C8 C9 1.399 . S
C9 C8 1.399 . S
C9 C10 1.381 . S
C10 H2 0.930 . S
C10 C6 1.390 . S
C10 C9 1.381 . S
N11 C4 1.286 . S
N11 C7 1.413 . S
H12 C17 0.930 . S
H13 C20 0.930 . S
H14 C22 0.930 . S
H15 C16 1.016 . S
C16 H15 1.016 . S
C16 N23 1.286 . S
C17 H12 0.930 . S
C17 C18 1.397 . S
C17 C19 1.361 . S
C18 C17 1.397 . S
C18 C22 1.390 . S
C19 C17 1.361 . S
C19 C20 1.393 . S
C19 N23 1.413 . S
C20 H13 0.930 . S
C20 C19 1.393 . S
C20 C21 1.399 . S
C21 C20 1.399 . S
C21 C22 1.381 . S
C22 H14 0.930 . S
C22 C18 1.390 . S
C22 C21 1.381 . S
N23 C16 1.286 . S
N23 C19 1.413 . S
H24 C29 0.930 . S
H25 C32 0.930 . S
H26 C34 0.930 . S
H27 C28 1.016 . S
C28 H27 1.016 . S
C28 N35 1.286 . S
C29 H24 0.930 . S
C29 C30 1.397 . S
C29 C31 1.361 . S
C30 C29 1.397 . S
C30 C34 1.390 . S
C31 C29 1.361 . S
C31 C32 1.393 . S
C31 N35 1.413 . S
C32 H25 0.930 . S
C32 C31 1.393 . S
C32 C33 1.399 . S
C33 C32 1.399 . S
C33 C34 1.381 . S
C34 H26 0.930 . S
C34 C30 1.390 . S
C34 C33 1.381 . S
N35 C28 1.286 . S
N35 C31 1.413 . S
H36 C41 0.930 . S
H37 C44 0.930 . S
H38 C46 0.930 . S
H39 C40 1.016 . S
C40 H39 1.016 . S
C40 N47 1.286 . S
C41 H36 0.930 . S
C41 C42 1.397 . S
C41 C43 1.361 . S
C42 C41 1.397 . S
C42 C46 1.390 . S
C43 C41 1.361 . S
C43 C44 1.393 . S
C43 N47 1.413 . S
C44 H37 0.930 . S
C44 C43 1.393 . S
C44 C45 1.399 . S
C45 C44 1.399 . S
C45 C46 1.381 . S
C46 H38 0.930 . S
C46 C42 1.390 . S
C46 C45 1.381 . S
N47 C40 1.286 . S
N47 C43 1.413 . S
H48 C53 0.930 . S
H49 C56 0.930 . S
H50 C58 0.930 . S
H51 C52 1.016 . S
C52 H51 1.016 . S
C52 N59 1.286 . S
C53 H48 0.930 . S
C53 C54 1.397 . S
C53 C55 1.361 . S
C54 C53 1.397 . S
C54 C58 1.390 . S
C55 C53 1.361 . S
C55 C56 1.393 . S
C55 N59 1.413 . S
C56 H49 0.930 . S
C56 C55 1.393 . S
C56 C57 1.399 . S
C57 C56 1.399 . S
C57 C58 1.381 . S
C58 H50 0.930 . S
C58 C54 1.390 . S
C58 C57 1.381 . S
N59 C52 1.286 . S
N59 C55 1.413 . S
H60 C65 0.930 . S
H61 C68 0.930 . S
H62 C70 0.930 . S
H63 C64 1.016 . S
C64 H63 1.016 . S
C64 N71 1.286 . S
C65 H60 0.930 . S
C65 C66 1.397 . S
C65 C67 1.361 . S
C66 C65 1.397 . S
C66 C70 1.390 . S
C67 C65 1.361 . S
C67 C68 1.393 . S
C67 N71 1.413 . S
C68 H61 0.930 . S
C68 C67 1.393 . S
C68 C69 1.399 . S
C69 C68 1.399 . S
C69 C70 1.381 . S
C70 H62 0.930 . S
C70 C66 1.390 . S
C70 C69 1.381 . S
N71 C64 1.286 . S
N71 C67 1.413 . S
H72 C77 0.930 . S
H73 C80 0.930 . S
H74 C82 0.930 . S
H75 C76 1.016 . S
C76 H75 1.016 . S
C76 N83 1.286 . S
C77 H72 0.930 . S
C77 C78 1.397 . S
C77 C79 1.361 . S
C78 C77 1.397 . S
C78 C82 1.390 . S
C79 C77 1.361 . S
C79 C80 1.393 . S
C79 N83 1.413 . S
C80 H73 0.930 . S
C80 C79 1.393 . S
C80 C81 1.399 . S
C81 C80 1.399 . S
C81 C82 1.381 . S
C82 H74 0.930 . S
C82 C78 1.390 . S
C82 C81 1.381 . S
N83 C76 1.286 . S
N83 C79 1.413 . S
H84 C89 0.930 . S
H85 C92 0.930 . S
H86 C94 0.930 . S
H87 C88 1.016 . S
C88 H87 1.016 . S
C88 N95 1.286 . S
C89 H84 0.930 . S
C89 C90 1.397 . S
C89 C91 1.361 . S
C90 C89 1.397 . S
C90 C94 1.390 . S
C91 C89 1.361 . S
C91 C92 1.393 . S
C91 N95 1.413 . S
C92 H85 0.930 . S
C92 C91 1.393 . S
C92 C93 1.399 . S
C93 C92 1.399 . S
C93 C94 1.381 . S
C94 H86 0.930 . S
C94 C90 1.390 . S
C94 C93 1.381 . S
N95 C88 1.286 . S
N95 C91 1.413 . S
H96 C101 0.930 . S
H97 C104 0.930 . S
H98 C106 0.930 . S
H99 C100 1.016 . S
C100 H99 1.016 . S
C100 N107 1.286 . S
C101 H96 0.930 . S
C101 C102 1.397 . S
C101 C103 1.361 . S
C102 C101 1.397 . S
C102 C106 1.390 . S
C103 C101 1.361 . S
C103 C104 1.393 . S
C103 N107 1.413 . S
C104 H97 0.930 . S
C104 C103 1.393 . S
C104 C105 1.399 . S
C105 C104 1.399 . S
C105 C106 1.381 . S
C106 H98 0.930 . S
C106 C102 1.390 . S
C106 C105 1.381 . S
N107 C100 1.286 . S
N107 C103 1.413 . S
H108 C113 0.930 . S
H109 C116 0.930 . S
H110 C118 0.930 . S
H111 C112 1.016 . S
C112 H111 1.016 . S
C112 N119 1.286 . S
C113 H108 0.930 . S
C113 C114 1.397 . S
C113 C115 1.361 . S
C114 C113 1.397 . S
C114 C118 1.390 . S
C115 C113 1.361 . S
C115 C116 1.393 . S
C115 N119 1.413 . S
C116 H109 0.930 . S
C116 C115 1.393 . S
C116 C117 1.399 . S
C117 C116 1.399 . S
C117 C118 1.381 . S
C118 H110 0.930 . S
C118 C114 1.390 . S
C118 C117 1.381 . S
N119 C112 1.286 . S
N119 C115 1.413 . S
H120 C125 0.930 . S
H121 C128 0.930 . S
H122 C130 0.930 . S
H123 C124 1.016 . S
C124 H123 1.016 . S
C124 N131 1.286 . S
C125 H120 0.930 . S
C125 C126 1.397 . S
C125 C127 1.361 . S
C126 C125 1.397 . S
C126 C130 1.390 . S
C127 C125 1.361 . S
C127 C128 1.393 . S
C127 N131 1.413 . S
C128 H121 0.930 . S
C128 C127 1.393 . S
C128 C129 1.399 . S
C129 C128 1.399 . S
C129 C130 1.381 . S
C130 H122 0.930 . S
C130 C126 1.390 . S
C130 C129 1.381 . S
N131 C124 1.286 . S
N131 C127 1.413 . S
H132 C137 0.930 . S
H133 C140 0.930 . S
H134 C142 0.930 . S
H135 C136 1.016 . S
C136 H135 1.016 . S
C136 N143 1.286 . S
C137 H132 0.930 . S
C137 C138 1.397 . S
C137 C139 1.361 . S
C138 C137 1.397 . S
C138 C142 1.390 . S
C139 C137 1.361 . S
C139 C140 1.393 . S
C139 N143 1.413 . S
C140 H133 0.930 . S
C140 C139 1.393 . S
C140 C141 1.399 . S
C141 C140 1.399 . S
C141 C142 1.381 . S
C142 H134 0.930 . S
C142 C138 1.390 . S
C142 C141 1.381 . S
N143 C136 1.286 . S
N143 C139 1.413 . S
H144 C149 0.930 . S
H145 C152 0.930 . S
H146 C154 0.930 . S
H147 C148 1.016 . S
C148 H147 1.016 . S
C148 N155 1.286 . S
C149 H144 0.930 . S
C149 C150 1.397 . S
C149 C151 1.361 . S
C150 C149 1.397 . S
C150 C154 1.390 . S
C151 C149 1.361 . S
C151 C152 1.393 . S
C151 N155 1.413 . S
C152 H145 0.930 . S
C152 C151 1.393 . S
C152 C153 1.399 . S
C153 C152 1.399 . S
C153 C154 1.381 . S
C154 H146 0.930 . S
C154 C150 1.390 . S
C154 C153 1.381 . S
N155 C148 1.286 . S
N155 C151 1.413 . S
H156 C161 0.930 . S
H157 C164 0.930 . S
H158 C166 0.930 . S
H159 C160 1.016 . S
C160 H159 1.016 . S
C160 N167 1.286 . S
C161 H156 0.930 . S
C161 C162 1.397 . S
C161 C163 1.361 . S
C162 C161 1.397 . S
C162 C166 1.390 . S
C163 C161 1.361 . S
C163 C164 1.393 . S
C163 N167 1.413 . S
C164 H157 0.930 . S
C164 C163 1.393 . S
C164 C165 1.399 . S
C165 C164 1.399 . S
C165 C166 1.381 . S
C166 H158 0.930 . S
C166 C162 1.390 . S
C166 C165 1.381 . S
N167 C160 1.286 . S
N167 C163 1.413 . S
H168 C173 0.930 . S
H169 C176 0.930 . S
H170 C178 0.930 . S
H171 C172 1.016 . S
C172 H171 1.016 . S
C172 N179 1.286 . S
C173 H168 0.930 . S
C173 C174 1.397 . S
C173 C175 1.361 . S
C174 C173 1.397 . S
C174 C178 1.390 . S
C175 C173 1.361 . S
C175 C176 1.393 . S
C175 N179 1.413 . S
C176 H169 0.930 . S
C176 C175 1.393 . S
C176 C177 1.399 . S
C177 C176 1.399 . S
C177 C178 1.381 . S
C178 H170 0.930 . S
C178 C174 1.390 . S
C178 C177 1.381 . S
N179 C172 1.286 . S
N179 C175 1.413 . S
H180 C185 0.930 . S
H181 C188 0.930 . S
H182 C190 0.930 . S
H183 C184 1.016 . S
C184 H183 1.016 . S
C184 N191 1.286 . S
C185 H180 0.930 . S
C185 C186 1.397 . S
C185 C187 1.361 . S
C186 C185 1.397 . S
C186 C190 1.390 . S
C187 C185 1.361 . S
C187 C188 1.393 . S
C187 N191 1.413 . S
C188 H181 0.930 . S
C188 C187 1.393 . S
C188 C189 1.399 . S
C189 C188 1.399 . S
C189 C190 1.381 . S
C190 H182 0.930 . S
C190 C186 1.390 . S
C190 C189 1.381 . S
N191 C184 1.286 . S
N191 C187 1.413 . S
H192 C197 0.930 . S
H193 C200 0.930 . S
H194 C202 0.930 . S
H195 C196 1.016 . S
C196 H195 1.016 . S
C196 N203 1.286 . S
C197 H192 0.930 . S
C197 C198 1.397 . S
C197 C199 1.361 . S
C198 C197 1.397 . S
C198 C202 1.390 . S
C199 C197 1.361 . S
C199 C200 1.393 . S
C199 N203 1.413 . S
C200 H193 0.930 . S
C200 C199 1.393 . S
C200 C201 1.399 . S
C201 C200 1.399 . S
C201 C202 1.381 . S
C202 H194 0.930 . S
C202 C198 1.390 . S
C202 C201 1.381 . S
N203 C196 1.286 . S
N203 C199 1.413 . S
H204 C209 0.930 . S
H205 C212 0.930 . S
H206 C214 0.930 . S
H207 C208 1.016 . S
C208 H207 1.016 . S
C208 N215 1.286 . S
C209 H204 0.930 . S
C209 C210 1.397 . S
C209 C211 1.361 . S
C210 C209 1.397 . S
C210 C214 1.390 . S
C211 C209 1.361 . S
C211 C212 1.393 . S
C211 N215 1.413 . S
C212 H205 0.930 . S
C212 C211 1.393 . S
C212 C213 1.399 . S
C213 C212 1.399 . S
C213 C214 1.381 . S
C214 H206 0.930 . S
C214 C210 1.390 . S
C214 C213 1.381 . S
N215 C208 1.286 . S
N215 C211 1.413 . S
Tb216 O219 2.453 . S
Tb216 O220 2.596 1_545 S
Tb216 O221 2.374 1_545 S
Tb216 O229 2.343 1_554 S
Tb216 O231 2.353 . S
Tb216 O233 2.427 . S
Tb216 O234 2.513 . S
C217 O221 1.251 . S
C217 O223 1.260 1_554 S
Tb218 O220 2.343 1_556 S
Tb218 O223 2.354 . S
Tb218 O226 2.427 1_556 S
Tb218 O227 2.513 1_556 S
Tb218 O228 2.453 . S
Tb218 O229 2.596 1_565 S
Tb218 O230 2.369 1_566 S
O219 Tb216 2.453 . S
O219 C235 1.245 1_545 S
O220 Tb216 2.596 1_565 S
O220 Tb218 2.343 1_554 S
O220 C235 1.259 . S
O221 Tb216 2.374 1_565 S
O221 C217 1.251 . S
C222 O226 1.275 . S
C222 O227 1.246 . S
O223 C217 1.260 1_556 S
O223 Tb218 2.354 . S
C224 O228 1.245 1_545 S
C224 O229 1.259 . S
C225 O230 1.260 . S
C225 O231 1.263 . S
O226 Tb218 2.427 1_554 S
O226 C222 1.275 . S
O227 Tb218 2.513 1_554 S
O227 C222 1.246 . S
O228 Tb218 2.453 . S
O228 C224 1.245 1_565 S
O229 Tb216 2.343 1_556 S
O229 Tb218 2.596 1_545 S
O229 C224 1.259 . S
O230 Tb218 2.369 1_544 S
O230 C225 1.260 . S
O231 Tb216 2.353 . S
O231 C225 1.263 . S
C232 O233 1.275 1_556 S
C232 O234 1.246 1_556 S
O233 Tb216 2.427 . S
O233 C232 1.275 1_554 S
O234 Tb216 2.513 . S
O234 C232 1.246 1_554 S
C235 O219 1.245 1_565 S
C235 O220 1.259 . S
Tb236 O239 2.453 . S
Tb236 O240 2.596 1_655 S
Tb236 O241 2.374 1_655 S
Tb236 O249 2.343 1_554 S
Tb236 O251 2.353 . S
Tb236 O253 2.427 1_554 S
Tb236 O254 2.513 1_554 S
C237 O241 1.251 . S
C237 O243 1.263 . S
Tb238 O240 2.343 1_556 S
Tb238 O243 2.353 1_556 S
Tb238 O246 2.427 1_556 S
Tb238 O247 2.513 1_556 S
Tb238 O248 2.453 . S
Tb238 O249 2.596 1_455 S
Tb238 O250 2.377 1_455 S
O239 Tb236 2.453 . S
O239 C255 1.245 1_655 S
O240 Tb236 2.596 1_455 S
O240 Tb238 2.343 1_554 S
O240 C255 1.259 . S
O241 Tb236 2.374 1_455 S
O241 C237 1.251 . S
C242 O246 1.275 . S
C242 O247 1.246 . S
O243 C237 1.263 . S
O243 Tb238 2.353 1_554 S
C244 O248 1.245 1_655 S
C244 O249 1.259 . S
C245 O250 1.246 1_554 S
C245 O251 1.263 . S
O246 Tb238 2.427 1_554 S
O246 C242 1.275 . S
O247 Tb238 2.513 1_554 S
O247 C242 1.246 . S
O248 Tb238 2.453 . S
O248 C244 1.245 1_455 S
O249 Tb236 2.343 1_556 S
O249 Tb238 2.596 1_655 S
O249 C244 1.259 . S
O250 Tb238 2.377 1_655 S
O250 C245 1.246 1_556 S
O251 Tb236 2.353 . S
O251 C245 1.263 . S
C252 O253 1.275 . S
C252 O254 1.246 . S
O253 Tb236 2.427 1_556 S
O253 C252 1.275 . S
O254 Tb236 2.513 1_556 S
O254 C252 1.246 . S
C255 O239 1.245 1_455 S
C255 O240 1.259 . S
Tb256 O259 2.453 1_554 S
Tb256 O260 2.596 1_554 S
Tb256 O261 2.374 . S
Tb256 O269 2.343 . S
Tb256 O271 2.353 . S
Tb256 O273 2.427 . S
Tb256 O274 2.513 . S
C257 O261 1.251 . S
C257 O263 1.263 . S
Tb258 O260 2.343 1_554 S
Tb258 O263 2.353 . S
Tb258 O266 2.427 . S
Tb258 O267 2.513 . S
Tb258 O268 2.453 . S
Tb258 O269 2.596 . S
Tb258 O270 2.374 . S
O259 Tb256 2.453 1_556 S
O259 C275 1.245 . S
O260 Tb256 2.596 1_556 S
O260 Tb258 2.343 1_556 S
O260 C275 1.259 . S
O261 Tb256 2.374 . S
O261 C257 1.251 . S
C262 O266 1.275 1_556 S
C262 O267 1.246 1_556 S
O263 C257 1.263 . S
O263 Tb258 2.353 . S
C264 O268 1.245 . S
C264 O269 1.259 . S
C265 O270 1.250 . S
C265 O271 1.263 . S
O266 Tb258 2.427 . S
O266 C262 1.275 1_554 S
O267 Tb258 2.513 . S
O267 C262 1.246 1_554 S
O268 Tb258 2.453 . S
O268 C264 1.245 . S
O269 Tb256 2.343 . S
O269 Tb258 2.596 . S
O269 C264 1.259 . S
O270 Tb258 2.374 . S
O270 C265 1.250 . S
O271 Tb256 2.353 . S
O271 C265 1.263 . S
C272 O273 1.275 . S
C272 O274 1.246 . S
O273 Tb256 2.427 . S
O273 C272 1.275 . S
O274 Tb256 2.513 . S
O274 C272 1.246 . S
C275 O259 1.245 . S
C275 O260 1.259 . S
Tb276 O279 2.453 . S
Tb276 O280 2.596 . S
Tb276 O281 2.374 . S
Tb276 O289 2.343 . S
Tb276 O291 2.353 . S
Tb276 O293 2.427 . S
Tb276 O294 2.513 . S
C277 O281 1.251 . S
C277 O283 1.263 . S
Tb278 O280 2.343 . S
Tb278 O283 2.353 . S
Tb278 O286 2.427 . S
Tb278 O287 2.513 . S
Tb278 O288 2.453 . S
Tb278 O289 2.596 . S
Tb278 O290 2.374 . S
O279 Tb276 2.453 . S
O279 C295 1.245 . S
O280 Tb276 2.596 . S
O280 Tb278 2.343 . S
O280 C295 1.259 . S
O281 Tb276 2.374 . S
O281 C277 1.251 . S
C282 O286 1.275 . S
C282 O287 1.246 . S
O283 C277 1.263 . S
O283 Tb278 2.353 . S
C284 O288 1.245 . S
C284 O289 1.259 . S
C285 O290 1.250 . S
C285 O291 1.263 . S
O286 Tb278 2.427 . S
O286 C282 1.275 . S
O287 Tb278 2.513 . S
O287 C282 1.246 . S
O288 Tb278 2.453 . S
O288 C284 1.245 . S
O289 Tb276 2.343 . S
O289 Tb278 2.596 . S
O289 C284 1.259 . S
O290 Tb278 2.374 . S
O290 C285 1.250 . S
O291 Tb276 2.353 . S
O291 C285 1.263 . S
C292 O293 1.275 . S
C292 O294 1.246 . S
O293 Tb276 2.427 . S
O293 C292 1.275 . S
O294 Tb276 2.513 . S
O294 C292 1.246 . S
C295 O279 1.245 . S
C295 O280 1.259 . S
Tb296 O299 2.453 . S
Tb296 O300 2.596 . S
Tb296 O301 2.374 . S
Tb296 O309 2.343 . S
Tb296 O311 2.353 . S
Tb296 O313 2.427 . S
Tb296 O314 2.513 . S
C297 O301 1.251 . S
C297 O303 1.263 . S
Tb298 O300 2.343 . S
Tb298 O303 2.353 . S
Tb298 O306 2.427 . S
Tb298 O307 2.513 . S
Tb298 O308 2.453 . S
Tb298 O309 2.596 . S
Tb298 O310 2.374 . S
O299 Tb296 2.453 . S
O299 C315 1.245 . S
O300 Tb296 2.596 . S
O300 Tb298 2.343 . S
O300 C315 1.259 . S
O301 Tb296 2.374 . S
O301 C297 1.251 . S
C302 O306 1.275 . S
C302 O307 1.246 . S
O303 C297 1.263 . S
O303 Tb298 2.353 . S
C304 O308 1.245 . S
C304 O309 1.259 . S
C305 O310 1.250 . S
C305 O311 1.263 . S
O306 Tb298 2.427 . S
O306 C302 1.275 . S
O307 Tb298 2.513 . S
O307 C302 1.246 . S
O308 Tb298 2.453 . S
O308 C304 1.245 . S
O309 Tb296 2.343 . S
O309 Tb298 2.596 . S
O309 C304 1.259 . S
O310 Tb298 2.374 . S
O310 C305 1.250 . S
O311 Tb296 2.353 . S
O311 C305 1.263 . S
C312 O313 1.275 . S
C312 O314 1.246 . S
O313 Tb296 2.427 . S
O313 C312 1.275 . S
O314 Tb296 2.513 . S
O314 C312 1.246 . S
C315 O299 1.245 . S
C315 O300 1.259 . S
Tb316 O319 2.453 . S
Tb316 O320 2.596 . S
Tb316 O321 2.374 . S
Tb316 O329 2.343 . S
Tb316 O331 2.353 . S
Tb316 O333 2.427 . S
Tb316 O334 2.513 . S
C317 O321 1.251 . S
C317 O323 1.263 . S
Tb318 O320 2.343 . S
Tb318 O323 2.353 . S
Tb318 O326 2.427 . S
Tb318 O327 2.513 . S
Tb318 O328 2.453 . S
Tb318 O329 2.596 . S
Tb318 O330 2.374 . S
O319 Tb316 2.453 . S
O319 C335 1.245 . S
O320 Tb316 2.596 . S
O320 Tb318 2.343 . S
O320 C335 1.259 . S
O321 Tb316 2.374 . S
O321 C317 1.251 . S
C322 O326 1.275 . S
C322 O327 1.246 . S
O323 C317 1.263 . S
O323 Tb318 2.353 . S
C324 O328 1.245 . S
C324 O329 1.259 . S
C325 O330 1.250 . S
C325 O331 1.263 . S
O326 Tb318 2.427 . S
O326 C322 1.275 . S
O327 Tb318 2.513 . S
O327 C322 1.246 . S
O328 Tb318 2.453 . S
O328 C324 1.245 . S
O329 Tb316 2.343 . S
O329 Tb318 2.596 . S
O329 C324 1.259 . S
O330 Tb318 2.374 . S
O330 C325 1.250 . S
O331 Tb316 2.353 . S
O331 C325 1.263 . S
C332 O333 1.275 . S
C332 O334 1.246 . S
O333 Tb316 2.427 . S
O333 C332 1.275 . S
O334 Tb316 2.513 . S
O334 C332 1.246 . S
C335 O319 1.245 . S
C335 O320 1.259 . S
Tb336 O339 2.453 . S
Tb336 O340 2.596 . S
Tb336 O341 2.374 . S
Tb336 O349 2.343 . S
Tb336 O351 2.353 . S
Tb336 O353 2.427 . S
Tb336 O354 2.513 . S
C337 O341 1.251 . S
C337 O343 1.263 . S
Tb338 O340 2.343 . S
Tb338 O343 2.353 . S
Tb338 O346 2.427 . S
Tb338 O347 2.513 . S
Tb338 O348 2.453 . S
Tb338 O349 2.596 . S
Tb338 O350 2.374 . S
O339 Tb336 2.453 . S
O339 C355 1.245 . S
O340 Tb336 2.596 . S
O340 Tb338 2.343 . S
O340 C355 1.259 . S
O341 Tb336 2.374 . S
O341 C337 1.251 . S
C342 O346 1.275 . S
C342 O347 1.246 . S
O343 C337 1.263 . S
O343 Tb338 2.353 . S
C344 O348 1.245 . S
C344 O349 1.259 . S
C345 O350 1.250 . S
C345 O351 1.263 . S
O346 Tb338 2.427 . S
O346 C342 1.275 . S
O347 Tb338 2.513 . S
O347 C342 1.246 . S
O348 Tb338 2.453 . S
O348 C344 1.245 . S
O349 Tb336 2.343 . S
O349 Tb338 2.596 . S
O349 C344 1.259 . S
O350 Tb338 2.374 . S
O350 C345 1.250 . S
O351 Tb336 2.353 . S
O351 C345 1.263 . S
C352 O353 1.275 . S
C352 O354 1.246 . S
O353 Tb336 2.427 . S
O353 C352 1.275 . S
O354 Tb336 2.513 . S
O354 C352 1.246 . S
C355 O339 1.245 . S
C355 O340 1.259 . S
Tb356 O359 2.453 . S
Tb356 O360 2.596 . S
Tb356 O361 2.374 . S
Tb356 O369 2.343 . S
Tb356 O371 2.353 . S
Tb356 O373 2.427 . S
Tb356 O374 2.513 . S
C357 O361 1.251 . S
C357 O363 1.263 . S
Tb358 O360 2.343 . S
Tb358 O363 2.353 . S
Tb358 O366 2.427 . S
Tb358 O367 2.513 . S
Tb358 O368 2.453 . S
Tb358 O369 2.596 . S
Tb358 O370 2.374 . S
O359 Tb356 2.453 . S
O359 C375 1.245 . S
O360 Tb356 2.596 . S
O360 Tb358 2.343 . S
O360 C375 1.259 . S
O361 Tb356 2.374 . S
O361 C357 1.251 . S
C362 O366 1.275 . S
C362 O367 1.246 . S
O363 C357 1.263 . S
O363 Tb358 2.353 . S
C364 O368 1.245 . S
C364 O369 1.259 . S
C365 O370 1.250 . S
C365 O371 1.263 . S
O366 Tb358 2.427 . S
O366 C362 1.275 . S
O367 Tb358 2.513 . S
O367 C362 1.246 . S
O368 Tb358 2.453 . S
O368 C364 1.245 . S
O369 Tb356 2.343 . S
O369 Tb358 2.596 . S
O369 C364 1.259 . S
O370 Tb358 2.374 . S
O370 C365 1.250 . S
O371 Tb356 2.353 . S
O371 C365 1.263 . S
C372 O373 1.275 . S
C372 O374 1.246 . S
O373 Tb356 2.427 . S
O373 C372 1.275 . S
O374 Tb356 2.513 . S
O374 C372 1.246 . S
C375 O359 1.245 . S
C375 O360 1.259 . S
Tb376 O379 2.453 . S
Tb376 O380 2.596 . S
Tb376 O381 2.374 . S
Tb376 O389 2.343 . S
Tb376 O391 2.353 . S
Tb376 O393 2.427 . S
Tb376 O394 2.513 . S
C377 O381 1.251 . S
C377 O383 1.263 . S
Tb378 O380 2.343 . S
Tb378 O383 2.353 . S
Tb378 O386 2.427 . S
Tb378 O387 2.513 . S
Tb378 O388 2.453 . S
Tb378 O389 2.596 . S
Tb378 O390 2.374 . S
O379 Tb376 2.453 . S
O379 C395 1.245 . S
O380 Tb376 2.596 . S
O380 Tb378 2.343 . S
O380 C395 1.259 . S
O381 Tb376 2.374 . S
O381 C377 1.251 . S
C382 O386 1.275 . S
C382 O387 1.246 . S
O383 C377 1.263 . S
O383 Tb378 2.353 . S
C384 O388 1.245 . S
C384 O389 1.259 . S
C385 O390 1.250 . S
C385 O391 1.263 . S
O386 Tb378 2.427 . S
O386 C382 1.275 . S
O387 Tb378 2.513 . S
O387 C382 1.246 . S
O388 Tb378 2.453 . S
O388 C384 1.245 . S
O389 Tb376 2.343 . S
O389 Tb378 2.596 . S
O389 C384 1.259 . S
O390 Tb378 2.374 . S
O390 C385 1.250 . S
O391 Tb376 2.353 . S
O391 C385 1.263 . S
C392 O393 1.275 . S
C392 O394 1.246 . S
O393 Tb376 2.427 . S
O393 C392 1.275 . S
O394 Tb376 2.513 . S
O394 C392 1.246 . S
C395 O379 1.245 . S
C395 O380 1.259 . S
H396 C414 0.951 . S
H397 C416 0.951 . S
H398 C418 0.950 . S
H399 C419 0.950 . S
H400 C421 0.950 . S
H401 C424 0.950 . S
H402 C425 0.950 . S
H403 C427 0.950 . S
H404 C428 0.950 . S
H405 C429 0.953 1_556 S
H406 C431 0.951 . S
H407 C433 0.950 . S
H408 C434 0.950 . S
H409 C436 0.950 . S
H410 C439 0.950 . S
H411 C440 0.950 . S
H412 C442 0.983 . S
H413 C443 0.950 . S
C414 H396 0.951 . S
C414 C415 1.366 . S
C414 C416 1.388 . S
C415 C414 1.366 . S
C415 C419 1.385 . S
C416 H397 0.951 . S
C416 C414 1.388 . S
C416 C417 1.366 . S
C417 C416 1.366 . S
C417 C418 1.414 . S
C417 C420 1.499 . S
C418 H398 0.950 . S
C418 C417 1.414 . S
C418 C419 1.374 . S
C419 H399 0.950 . S
C419 C415 1.385 . S
C419 C418 1.374 . S
C420 C417 1.499 . S
C420 C421 1.373 . S
C420 C422 1.389 . S
C421 H400 0.950 . S
C421 C420 1.373 . S
C421 C437 1.377 . S
C422 C420 1.389 . S
C422 C423 1.524 . S
C422 C436 1.377 . S
C423 C422 1.524 . S
C423 C424 1.397 . S
C423 C428 1.363 . S
C424 H401 0.950 . S
C424 C423 1.397 . S
C424 C425 1.334 . S
C425 H402 0.950 . S
C425 C424 1.334 . S
C425 C426 1.287 . S
C426 C425 1.287 . S
C426 C427 1.524 . S
C426 H445 0.913 . S
C427 H403 0.950 . S
C427 C426 1.524 . S
C427 C428 1.415 . S
C428 H404 0.950 . S
C428 C423 1.363 . S
C428 C427 1.415 . S
C429 H405 0.953 1_554 S
C429 C430 1.366 . S
C429 C431 1.388 . S
C430 C429 1.366 . S
C430 C434 1.385 . S
C431 H406 0.951 . S
C431 C429 1.388 . S
C431 C432 1.366 . S
C432 C431 1.366 . S
C432 C433 1.414 . S
C432 C435 1.499 . S
C433 H407 0.950 . S
C433 C432 1.414 . S
C433 C434 1.374 . S
C434 H408 0.950 . S
C434 C430 1.385 . S
C434 C433 1.374 . S
C435 C432 1.499 . S
C435 C436 1.373 . S
C435 C437 1.389 . S
C436 H409 0.950 . S
C436 C422 1.377 . S
C436 C435 1.373 . S
C437 C421 1.377 . S
C437 C435 1.389 . S
C437 C438 1.524 . S
C438 C437 1.524 . S
C438 C439 1.397 . S
C438 C443 1.363 . S
C439 H410 0.950 . S
C439 C438 1.397 . S
C439 C440 1.334 . S
C440 H411 0.950 . S
C440 C439 1.334 . S
C440 C441 1.287 . S
C441 C440 1.287 . S
C441 C442 1.505 1_554 S
C441 H444 0.999 . S
C442 H412 0.983 . S
C442 C441 1.505 1_556 S
C442 C443 1.397 1_556 S
C443 H413 0.950 . S
C443 C438 1.363 . S
C443 C442 1.397 1_554 S
H444 C441 0.999 . S
H445 C426 0.913 . S
H446 C464 0.951 . S
H447 C466 0.951 . S
H448 C468 0.950 . S
H449 C469 0.950 . S
H450 C471 0.950 . S
H451 C474 0.950 . S
H452 C475 0.950 . S
H453 C477 0.950 . S
H454 C478 0.950 . S
H455 C479 0.951 . S
H456 C481 0.951 . S
H457 C483 0.950 . S
H458 C484 0.950 . S
H459 C486 0.950 . S
H460 C489 0.950 . S
H461 C490 0.950 . S
H462 C492 0.950 . S
H463 C493 0.950 . S
C464 H446 0.951 . S
C464 C465 1.366 . S
C464 C466 1.388 . S
C465 C464 1.366 . S
C465 C469 1.385 . S
C466 H447 0.951 . S
C466 C464 1.388 . S
C466 C467 1.366 . S
C467 C466 1.366 . S
C467 C468 1.414 . S
C467 C470 1.499 . S
C468 H448 0.950 . S
C468 C467 1.414 . S
C468 C469 1.374 . S
C469 H449 0.950 . S
C469 C465 1.385 . S
C469 C468 1.374 . S
C470 C467 1.499 . S
C470 C471 1.373 . S
C470 C472 1.389 . S
C471 H450 0.950 . S
C471 C470 1.373 . S
C471 C487 1.377 . S
C472 C470 1.389 . S
C472 C473 1.524 . S
C472 C486 1.377 . S
C473 C472 1.524 . S
C473 C474 1.397 . S
C473 C478 1.363 . S
C474 H451 0.950 . S
C474 C473 1.397 . S
C474 C475 1.334 . S
C475 H452 0.950 . S
C475 C474 1.334 . S
C475 C476 1.287 . S
C476 C475 1.287 . S
C476 C477 1.524 . S
C476 H495 0.913 . S
C477 H453 0.950 . S
C477 C476 1.524 . S
C477 C478 1.415 . S
C478 H454 0.950 . S
C478 C473 1.363 . S
C478 C477 1.415 . S
C479 H455 0.951 . S
C479 C480 1.366 . S
C479 C481 1.388 . S
C480 C479 1.366 . S
C480 C484 1.385 . S
C481 H456 0.951 . S
C481 C479 1.388 . S
C481 C482 1.366 . S
C482 C481 1.366 . S
C482 C483 1.414 . S
C482 C485 1.499 . S
C483 H457 0.950 . S
C483 C482 1.414 . S
C483 C484 1.374 . S
C484 H458 0.950 . S
C484 C480 1.385 . S
C484 C483 1.374 . S
C485 C482 1.499 . S
C485 C486 1.373 . S
C485 C487 1.389 . S
C486 H459 0.950 . S
C486 C472 1.377 . S
C486 C485 1.373 . S
C487 C471 1.377 . S
C487 C485 1.389 . S
C487 C488 1.524 . S
C488 C487 1.524 . S
C488 C489 1.397 . S
C488 C493 1.363 . S
C489 H460 0.950 . S
C489 C488 1.397 . S
C489 C490 1.334 1_554 S
C490 H461 0.950 . S
C490 C489 1.334 1_556 S
C490 C491 1.287 . S
C491 C490 1.287 . S
C491 C492 1.524 1_556 S
C491 H494 0.999 . S
C492 H462 0.950 . S
C492 C491 1.524 1_554 S
C492 C493 1.415 . S
C493 H463 0.950 . S
C493 C488 1.363 . S
C493 C492 1.415 . S
H494 C491 0.999 . S
H495 C476 0.913 . S
H496 C514 0.951 . S
H497 C516 0.951 . S
H498 C518 0.950 . S
H499 C519 0.950 . S
H500 C521 0.950 . S
H501 C524 0.950 . S
H502 C525 0.950 . S
H503 C527 0.950 . S
H504 C528 0.950 . S
H505 C529 0.951 . S
H506 C531 0.951 . S
H507 C533 0.950 . S
H508 C534 0.950 . S
H509 C536 0.950 . S
H510 C539 0.950 . S
H511 C540 0.950 . S
H512 C542 0.950 . S
H513 C543 0.950 . S
C514 H496 0.951 . S
C514 C515 1.366 . S
C514 C516 1.388 . S
C515 C514 1.366 . S
C515 C519 1.385 . S
C516 H497 0.951 . S
C516 C514 1.388 . S
C516 C517 1.366 . S
C517 C516 1.366 . S
C517 C518 1.414 . S
C517 C520 1.499 . S
C518 H498 0.950 . S
C518 C517 1.414 . S
C518 C519 1.374 . S
C519 H499 0.950 . S
C519 C515 1.385 . S
C519 C518 1.374 . S
C520 C517 1.499 . S
C520 C521 1.373 . S
C520 C522 1.389 . S
C521 H500 0.950 . S
C521 C520 1.373 . S
C521 C537 1.377 . S
C522 C520 1.389 . S
C522 C523 1.524 . S
C522 C536 1.377 . S
C523 C522 1.524 . S
C523 C524 1.397 . S
C523 C528 1.363 . S
C524 H501 0.950 . S
C524 C523 1.397 . S
C524 C525 1.334 . S
C525 H502 0.950 . S
C525 C524 1.334 . S
C525 C526 1.287 . S
C526 C525 1.287 . S
C526 C527 1.524 . S
C526 H545 0.913 . S
C527 H503 0.950 . S
C527 C526 1.524 . S
C527 C528 1.415 . S
C528 H504 0.950 . S
C528 C523 1.363 . S
C528 C527 1.415 . S
C529 H505 0.951 . S
C529 C530 1.366 . S
C529 C531 1.388 . S
C530 C529 1.366 . S
C530 C534 1.385 . S
C531 H506 0.951 . S
C531 C529 1.388 . S
C531 C532 1.366 . S
C532 C531 1.366 . S
C532 C533 1.414 . S
C532 C535 1.499 . S
C533 H507 0.950 . S
C533 C532 1.414 . S
C533 C534 1.374 . S
C534 H508 0.950 . S
C534 C530 1.385 . S
C534 C533 1.374 . S
C535 C532 1.499 . S
C535 C536 1.373 . S
C535 C537 1.389 . S
C536 H509 0.950 . S
C536 C522 1.377 . S
C536 C535 1.373 . S
C537 C521 1.377 . S
C537 C535 1.389 . S
C537 C538 1.524 . S
C538 C537 1.524 . S
C538 C539 1.397 . S
C538 C543 1.363 . S
C539 H510 0.950 . S
C539 C538 1.397 . S
C539 C540 1.334 . S
C540 H511 0.950 . S
C540 C539 1.334 . S
C540 C541 1.287 . S
C541 C540 1.287 . S
C541 C542 1.524 . S
C541 H544 0.999 . S
C542 H512 0.950 . S
C542 C541 1.524 . S
C542 C543 1.415 . S
C543 H513 0.950 . S
C543 C538 1.363 . S
C543 C542 1.415 . S
H544 C541 0.999 . S
H545 C526 0.913 . S
H546 C564 0.951 . S
H547 C566 0.951 . S
H548 C568 0.950 . S
H549 C569 0.950 . S
H550 C571 0.950 . S
H551 C574 0.950 . S
H552 C575 0.950 . S
H553 C577 0.950 . S
H554 C578 0.919 1_556 S
H555 C579 0.951 . S
H556 C581 0.951 . S
H557 C583 0.950 . S
H558 C584 0.950 . S
H559 C586 0.950 . S
H560 C589 0.950 . S
H561 C590 0.950 . S
H562 C592 0.950 . S
H563 C593 0.950 . S
C564 H546 0.951 . S
C564 C565 1.366 . S
C564 C566 1.388 . S
C565 C564 1.366 . S
C565 C569 1.385 . S
C566 H547 0.951 . S
C566 C564 1.388 . S
C566 C567 1.366 . S
C567 C566 1.366 . S
C567 C568 1.414 . S
C567 C570 1.499 . S
C568 H548 0.950 . S
C568 C567 1.414 . S
C568 C569 1.374 . S
C569 H549 0.950 . S
C569 C565 1.385 . S
C569 C568 1.374 . S
C570 C567 1.499 . S
C570 C571 1.373 . S
C570 C572 1.389 . S
C571 H550 0.950 . S
C571 C570 1.373 . S
C571 C587 1.377 . S
C572 C570 1.389 . S
C572 C573 1.524 . S
C572 C586 1.377 . S
C573 C572 1.524 . S
C573 C574 1.397 1_556 S
C573 C578 1.357 1_556 S
C574 H551 0.950 . S
C574 C573 1.397 1_554 S
C574 C575 1.334 . S
C575 H552 0.950 . S
C575 C574 1.334 . S
C575 C576 1.287 . S
C576 C575 1.287 . S
C576 C577 1.524 . S
C576 H595 0.913 . S
C577 H553 0.950 . S
C577 C576 1.524 . S
C577 C578 1.456 . S
C578 H554 0.919 1_554 S
C578 C573 1.357 1_554 S
C578 C577 1.456 . S
C579 H555 0.951 . S
C579 C580 1.366 . S
C579 C581 1.388 . S
C580 C579 1.366 . S
C580 C584 1.385 . S
C581 H556 0.951 . S
C581 C579 1.388 . S
C581 C582 1.366 . S
C582 C581 1.366 . S
C582 C583 1.414 . S
C582 C585 1.499 . S
C583 H557 0.950 . S
C583 C582 1.414 . S
C583 C584 1.374 . S
C584 H558 0.950 . S
C584 C580 1.385 . S
C584 C583 1.374 . S
C585 C582 1.499 . S
C585 C586 1.373 . S
C585 C587 1.389 . S
C586 H559 0.950 . S
C586 C572 1.377 . S
C586 C585 1.373 . S
C587 C571 1.377 . S
C587 C585 1.389 . S
C587 C588 1.524 . S
C588 C587 1.524 . S
C588 C589 1.397 . S
C588 C593 1.363 . S
C589 H560 0.950 . S
C589 C588 1.397 . S
C589 C590 1.334 . S
C590 H561 0.950 . S
C590 C589 1.334 . S
C590 C591 1.287 . S
C591 C590 1.287 . S
C591 C592 1.524 . S
C591 H594 0.999 . S
C592 H562 0.950 . S
C592 C591 1.524 . S
C592 C593 1.415 . S
C593 H563 0.950 . S
C593 C588 1.363 . S
C593 C592 1.415 . S
H594 C591 0.999 . S
H595 C576 0.913 . S
H596 C614 0.951 . S
H597 C616 0.951 . S
H598 C618 0.950 . S
H599 C619 0.950 . S
H600 C621 0.950 . S
H601 C624 0.950 . S
H602 C625 0.950 . S
H603 C627 0.950 . S
H604 C628 0.950 . S
H605 C629 0.969 . S
H606 C631 0.951 1_554 S
H607 C633 0.950 . S
H608 C634 0.950 . S
H609 C636 0.950 . S
H610 C639 0.950 . S
H611 C640 0.950 . S
H612 C642 0.950 . S
H613 C643 0.950 . S
C614 H596 0.951 . S
C614 C615 1.366 . S
C614 C616 1.388 . S
C615 C614 1.366 . S
C615 C619 1.385 . S
C616 H597 0.951 . S
C616 C614 1.388 . S
C616 C617 1.366 . S
C617 C616 1.366 . S
C617 C618 1.414 . S
C617 C620 1.499 . S
C618 H598 0.950 . S
C618 C617 1.414 . S
C618 C619 1.374 . S
C619 H599 0.950 . S
C619 C615 1.385 . S
C619 C618 1.374 . S
C620 C617 1.499 . S
C620 C621 1.373 . S
C620 C622 1.389 . S
C621 H600 0.950 . S
C621 C620 1.373 . S
C621 C637 1.377 . S
C622 C620 1.389 . S
C622 C623 1.524 . S
C622 C636 1.377 . S
C623 C622 1.524 . S
C623 C624 1.397 . S
C623 C628 1.363 . S
C624 H601 0.950 . S
C624 C623 1.397 . S
C624 C625 1.334 . S
C625 H602 0.950 . S
C625 C624 1.334 . S
C625 C626 1.287 . S
C626 C625 1.287 . S
C626 C627 1.524 . S
C626 H645 0.913 . S
C627 H603 0.950 . S
C627 C626 1.524 . S
C627 C628 1.415 . S
C628 H604 0.950 . S
C628 C623 1.363 . S
C628 C627 1.415 . S
C629 H605 0.969 . S
C629 C630 1.355 1_554 S
C629 C631 1.381 1_554 S
C630 C629 1.355 1_556 S
C630 C634 1.385 . S
C631 H606 0.951 1_556 S
C631 C629 1.381 1_556 S
C631 C632 1.366 . S
C632 C631 1.366 . S
C632 C633 1.414 . S
C632 C635 1.499 . S
C633 H607 0.950 . S
C633 C632 1.414 . S
C633 C634 1.374 . S
C634 H608 0.950 . S
C634 C630 1.385 . S
C634 C633 1.374 . S
C635 C632 1.499 . S
C635 C636 1.373 . S
C635 C637 1.389 . S
C636 H609 0.950 . S
C636 C622 1.377 . S
C636 C635 1.373 . S
C637 C621 1.377 . S
C637 C635 1.389 . S
C637 C638 1.524 . S
C638 C637 1.524 . S
C638 C639 1.397 . S
C638 C643 1.363 1_556 S
C639 H610 0.950 . S
C639 C638 1.397 . S
C639 C640 1.334 . S
C640 H611 0.950 . S
C640 C639 1.334 . S
C640 C641 1.287 1_556 S
C641 C640 1.287 1_554 S
C641 C642 1.524 . S
C641 H644 0.999 . S
C642 H612 0.950 . S
C642 C641 1.524 . S
C642 C643 1.415 . S
C643 H613 0.950 . S
C643 C638 1.363 1_554 S
C643 C642 1.415 . S
H644 C641 0.999 . S
H645 C626 0.913 . S
H646 C664 0.951 . S
H647 C666 0.951 . S
H648 C668 0.950 . S
H649 C669 0.950 . S
H650 C671 0.950 1_554 S
H651 C674 0.950 . S
H652 C675 0.950 . S
H653 C677 0.950 . S
H654 C678 0.950 . S
H655 C679 0.951 . S
H656 C681 0.951 . S
H657 C683 0.950 . S
H658 C684 0.950 . S
H659 C686 0.950 . S
H660 C689 0.950 . S
H661 C690 0.950 . S
H662 C692 0.950 . S
H663 C693 0.950 . S
C664 H646 0.951 . S
C664 C665 1.366 . S
C664 C666 1.388 . S
C665 C664 1.366 . S
C665 C669 1.385 . S
C666 H647 0.951 . S
C666 C664 1.388 . S
C666 C667 1.366 . S
C667 C666 1.366 . S
C667 C668 1.414 . S
C667 C670 1.499 . S
C668 H648 0.950 . S
C668 C667 1.414 . S
C668 C669 1.374 . S
C669 H649 0.950 . S
C669 C665 1.385 . S
C669 C668 1.374 . S
C670 C667 1.499 . S
C670 C671 1.373 . S
C670 C672 1.389 . S
C671 H650 0.950 1_556 S
C671 C670 1.373 . S
C671 C687 1.377 1_556 S
C672 C670 1.389 . S
C672 C673 1.524 . S
C672 C686 1.377 . S
C673 C672 1.524 . S
C673 C674 1.397 . S
C673 C678 1.363 . S
C674 H651 0.950 . S
C674 C673 1.397 . S
C674 C675 1.334 . S
C675 H652 0.950 . S
C675 C674 1.334 . S
C675 C676 1.287 . S
C676 C675 1.287 . S
C676 C677 1.524 . S
C676 H695 0.913 . S
C677 H653 0.950 . S
C677 C676 1.524 . S
C677 C678 1.415 . S
C678 H654 0.950 . S
C678 C673 1.363 . S
C678 C677 1.415 . S
C679 H655 0.951 . S
C679 C680 1.369 . S
C679 C681 1.388 . S
C680 C679 1.369 . S
C680 C684 1.380 1_554 S
C681 H656 0.951 . S
C681 C679 1.388 . S
C681 C682 1.366 1_554 S
C682 C681 1.366 1_556 S
C682 C683 1.414 . S
C682 C685 1.499 . S
C683 H657 0.950 . S
C683 C682 1.414 . S
C683 C684 1.374 . S
C684 H658 0.950 . S
C684 C680 1.380 1_556 S
C684 C683 1.374 . S
C685 C682 1.499 . S
C685 C686 1.373 . S
C685 C687 1.389 1_556 S
C686 H659 0.950 . S
C686 C672 1.377 . S
C686 C685 1.373 . S
C687 C671 1.377 1_554 S
C687 C685 1.389 1_554 S
C687 C688 1.524 . S
C688 C687 1.524 . S
C688 C689 1.397 . S
C688 C693 1.363 . S
C689 H660 0.950 . S
C689 C688 1.397 . S
C689 C690 1.334 . S
C690 H661 0.950 . S
C690 C689 1.334 . S
C690 C691 1.287 . S
C691 C690 1.287 . S
C691 C692 1.524 . S
C691 H694 0.999 . S
C692 H662 0.950 . S
C692 C691 1.524 . S
C692 C693 1.415 . S
C693 H663 0.950 . S
C693 C688 1.363 . S
C693 C692 1.415 . S
H694 C691 0.999 . S
H695 C676 0.913 . S
H696 C714 0.951 . S
H697 C716 0.951 . S
H698 C718 0.950 . S
H699 C719 0.950 . S
H700 C721 0.950 . S
H701 C724 0.950 . S
H702 C725 0.950 . S
H703 C727 0.935 1_554 S
H704 C728 0.950 1_554 S
H705 C729 0.951 . S
H706 C731 0.951 . S
H707 C733 0.975 . S
H708 C734 0.950 . S
H709 C736 0.950 . S
H710 C739 0.950 . S
H711 C740 0.950 . S
H712 C742 0.950 . S
H713 C743 0.950 . S
C714 H696 0.951 . S
C714 C715 1.366 . S
C714 C716 1.388 . S
C715 C714 1.366 . S
C715 C719 1.385 . S
C716 H697 0.951 . S
C716 C714 1.388 . S
C716 C717 1.366 . S
C717 C716 1.366 . S
C717 C718 1.414 . S
C717 C720 1.499 . S
C718 H698 0.950 . S
C718 C717 1.414 . S
C718 C719 1.374 . S
C719 H699 0.950 . S
C719 C715 1.385 . S
C719 C718 1.374 . S
C720 C717 1.499 . S
C720 C721 1.373 . S
C720 C722 1.389 . S
C721 H700 0.950 . S
C721 C720 1.373 . S
C721 C737 1.377 . S
C722 C720 1.389 . S
C722 C723 1.524 . S
C722 C736 1.377 . S
C723 C722 1.524 . S
C723 C724 1.397 . S
C723 C728 1.363 . S
C724 H701 0.950 . S
C724 C723 1.397 . S
C724 C725 1.334 . S
C725 H702 0.950 . S
C725 C724 1.334 . S
C725 C726 1.287 . S
C726 C725 1.287 . S
C726 C727 1.539 . S
C726 H745 0.913 . S
C727 H703 0.935 1_556 S
C727 C726 1.539 . S
C727 C728 1.417 . S
C728 H704 0.950 1_556 S
C728 C723 1.363 . S
C728 C727 1.417 . S
C729 H705 0.951 . S
C729 C730 1.366 . S
C729 C731 1.388 . S
C730 C729 1.366 . S
C730 C734 1.385 1_556 S
C731 H706 0.951 . S
C731 C729 1.388 . S
C731 C732 1.366 . S
C732 C731 1.366 . S
C732 C733 1.379 1_556 S
C732 C735 1.499 . S
C733 H707 0.975 . S
C733 C732 1.379 1_554 S
C733 C734 1.385 . S
C734 H708 0.950 . S
C734 C730 1.385 1_554 S
C734 C733 1.385 . S
C735 C732 1.499 . S
C735 C736 1.373 . S
C735 C737 1.389 . S
C736 H709 0.950 . S
C736 C722 1.377 . S
C736 C735 1.373 . S
C737 C721 1.377 . S
C737 C735 1.389 . S
C737 C738 1.524 . S
C738 C737 1.524 . S
C738 C739 1.397 . S
C738 C743 1.363 . S
C739 H710 0.950 . S
C739 C738 1.397 . S
C739 C740 1.334 . S
C740 H711 0.950 . S
C740 C739 1.334 . S
C740 C741 1.287 . S
C741 C740 1.287 . S
C741 C742 1.524 . S
C741 H744 0.999 . S
C742 H712 0.950 . S
C742 C741 1.524 . S
C742 C743 1.415 . S
C743 H713 0.950 . S
C743 C738 1.363 . S
C743 C742 1.415 . S
H744 C741 0.999 . S
H745 C726 0.913 . S
H746 C764 0.951 . S
H747 C766 0.951 . S
H748 C768 0.950 . S
H749 C769 0.950 . S
H750 C771 0.950 . S
H751 C774 0.950 . S
H752 C775 0.950 . S
H753 C777 0.950 . S
H754 C778 0.950 . S
H755 C779 0.951 . S
H756 C781 0.951 . S
H757 C783 0.950 . S
H758 C784 0.950 1_554 S
H759 C786 0.950 . S
H760 C789 0.950 . S
H761 C790 0.950 . S
H762 C792 0.950 . S
H763 C793 0.950 . S
C764 H746 0.951 . S
C764 C765 1.366 . S
C764 C766 1.388 . S
C765 C764 1.366 . S
C765 C769 1.385 . S
C766 H747 0.951 . S
C766 C764 1.388 . S
C766 C767 1.366 . S
C767 C766 1.366 . S
C767 C768 1.414 . S
C767 C770 1.499 . S
C768 H748 0.950 . S
C768 C767 1.414 . S
C768 C769 1.374 . S
C769 H749 0.950 . S
C769 C765 1.385 . S
C769 C768 1.374 . S
C770 C767 1.499 . S
C770 C771 1.373 . S
C770 C772 1.389 . S
C771 H750 0.950 . S
C771 C770 1.373 . S
C771 C787 1.377 . S
C772 C770 1.389 . S
C772 C773 1.524 . S
C772 C786 1.377 . S
C773 C772 1.524 . S
C773 C774 1.397 . S
C773 C778 1.363 1_556 S
C774 H751 0.950 . S
C774 C773 1.397 . S
C774 C775 1.334 1_556 S
C775 H752 0.950 . S
C775 C774 1.334 1_554 S
C775 C776 1.287 . S
C776 C775 1.287 . S
C776 C777 1.524 . S
C776 H795 0.913 . S
C777 H753 0.950 . S
C777 C776 1.524 . S
C777 C778 1.415 . S
C778 H754 0.950 . S
C778 C773 1.363 1_554 S
C778 C777 1.415 . S
C779 H755 0.951 . S
C779 C780 1.366 . S
C779 C781 1.388 . S
C780 C779 1.366 . S
C780 C784 1.385 . S
C781 H756 0.951 . S
C781 C779 1.388 . S
C781 C782 1.366 . S
C782 C781 1.366 . S
C782 C783 1.414 . S
C782 C785 1.499 . S
C783 H757 0.950 . S
C783 C782 1.414 . S
C783 C784 1.374 . S
C784 H758 0.950 1_556 S
C784 C780 1.385 . S
C784 C783 1.374 . S
C785 C782 1.499 . S
C785 C786 1.373 . S
C785 C787 1.389 . S
C786 H759 0.950 . S
C786 C772 1.377 . S
C786 C785 1.373 . S
C787 C771 1.377 . S
C787 C785 1.389 . S
C787 C788 1.524 . S
C788 C787 1.524 . S
C788 C789 1.397 . S
C788 C793 1.363 . S
C789 H760 0.950 . S
C789 C788 1.397 . S
C789 C790 1.334 . S
C790 H761 0.950 . S
C790 C789 1.334 . S
C790 C791 1.287 . S
C791 C790 1.287 . S
C791 C792 1.524 . S
C791 H794 0.999 . S
C792 H762 0.950 . S
C792 C791 1.524 . S
C792 C793 1.415 . S
C793 H763 0.950 . S
C793 C788 1.363 . S
C793 C792 1.415 . S
H794 C791 0.999 . S
H795 C776 0.913 . S
H796 C814 0.951 . S
H797 C816 0.951 . S
H798 C818 0.950 . S
H799 C819 0.950 . S
H800 C821 0.958 . S
H801 C824 0.950 . S
H802 C825 0.950 . S
H803 C827 0.950 . S
H804 C828 0.950 . S
H805 C829 0.951 . S
H806 C831 0.951 . S
H807 C833 0.950 . S
H808 C834 0.949 1_554 S
H809 C836 0.950 . S
H810 C839 0.950 . S
H811 C840 0.950 . S
H812 C842 0.950 . S
H813 C843 0.950 . S
C814 H796 0.951 . S
C814 C815 1.366 . S
C814 C816 1.388 . S
C815 C814 1.366 . S
C815 C819 1.385 . S
C816 H797 0.951 . S
C816 C814 1.388 . S
C816 C817 1.366 . S
C817 C816 1.366 . S
C817 C818 1.414 . S
C817 C820 1.499 . S
C818 H798 0.950 . S
C818 C817 1.414 . S
C818 C819 1.374 . S
C819 H799 0.950 . S
C819 C815 1.385 . S
C819 C818 1.374 . S
C820 C817 1.499 . S
C820 C821 1.364 1_556 S
C820 C822 1.389 . S
C821 H800 0.958 . S
C821 C820 1.364 1_554 S
C821 C837 1.378 . S
C822 C820 1.389 . S
C822 C823 1.524 . S
C822 C836 1.377 . S
C823 C822 1.524 . S
C823 C824 1.397 . S
C823 C828 1.363 . S
C824 H801 0.950 . S
C824 C823 1.397 . S
C824 C825 1.334 . S
C825 H802 0.950 . S
C825 C824 1.334 . S
C825 C826 1.287 . S
C826 C825 1.287 . S
C826 C827 1.524 . S
C826 H845 0.913 . S
C827 H803 0.950 . S
C827 C826 1.524 . S
C827 C828 1.415 . S
C828 H804 0.950 . S
C828 C823 1.363 . S
C828 C827 1.415 . S
C829 H805 0.951 . S
C829 C830 1.366 . S
C829 C831 1.388 1_554 S
C830 C829 1.366 . S
C830 C834 1.384 1_554 S
C831 H806 0.951 . S
C831 C829 1.388 1_556 S
C831 C832 1.366 . S
C832 C831 1.366 . S
C832 C833 1.414 . S
C832 C835 1.499 . S
C833 H807 0.950 . S
C833 C832 1.414 . S
C833 C834 1.375 . S
C834 H808 0.949 1_556 S
C834 C830 1.384 1_556 S
C834 C833 1.375 . S
C835 C832 1.499 . S
C835 C836 1.373 . S
C835 C837 1.389 1_556 S
C836 H809 0.950 . S
C836 C822 1.377 . S
C836 C835 1.373 . S
C837 C821 1.378 . S
C837 C835 1.389 1_554 S
C837 C838 1.524 . S
C838 C837 1.524 . S
C838 C839 1.397 . S
C838 C843 1.363 . S
C839 H810 0.950 . S
C839 C838 1.397 . S
C839 C840 1.334 . S
C840 H811 0.950 . S
C840 C839 1.334 . S
C840 C841 1.287 . S
C841 C840 1.287 . S
C841 C842 1.524 . S
C841 H844 0.999 . S
C842 H812 0.950 . S
C842 C841 1.524 . S
C842 C843 1.415 . S
C843 H813 0.950 . S
C843 C838 1.363 . S
C843 C842 1.415 . S
H844 C841 0.999 . S
H845 C826 0.913 . S
H846 C864 0.951 . S
H847 C866 0.951 . S
H848 C868 0.950 . S
H849 C869 0.950 . S
H850 C871 0.950 . S
H851 C874 0.950 . S
H852 C875 0.950 1_556 S
H853 C877 0.950 . S
H854 C878 0.950 . S
H855 C879 0.951 . S
H856 C881 0.951 . S
H857 C883 0.950 . S
H858 C884 0.950 . S
H859 C886 0.950 . S
H860 C889 0.950 . S
H861 C890 0.950 . S
H862 C892 0.950 . S
H863 C893 0.950 . S
C864 H846 0.951 . S
C864 C865 1.366 . S
C864 C866 1.388 . S
C865 C864 1.366 . S
C865 C869 1.385 . S
C866 H847 0.951 . S
C866 C864 1.388 . S
C866 C867 1.366 . S
C867 C866 1.366 . S
C867 C868 1.414 . S
C867 C870 1.499 . S
C868 H848 0.950 . S
C868 C867 1.414 . S
C868 C869 1.374 . S
C869 H849 0.950 . S
C869 C865 1.385 . S
C869 C868 1.374 . S
C870 C867 1.499 . S
C870 C871 1.373 . S
C870 C872 1.389 . S
C871 H850 0.950 . S
C871 C870 1.373 . S
C871 C887 1.377 . S
C872 C870 1.389 . S
C872 C873 1.524 . S
C872 C886 1.377 . S
C873 C872 1.524 . S
C873 C874 1.397 . S
C873 C878 1.363 . S
C874 H851 0.950 . S
C874 C873 1.397 . S
C874 C875 1.334 . S
C875 H852 0.950 1_554 S
C875 C874 1.334 . S
C875 C876 1.287 . S
C876 C875 1.287 . S
C876 C877 1.524 . S
C876 H895 0.937 . S
C877 H853 0.950 . S
C877 C876 1.524 . S
C877 C878 1.415 . S
C878 H854 0.950 . S
C878 C873 1.363 . S
C878 C877 1.415 . S
C879 H855 0.951 . S
C879 C880 1.366 . S
C879 C881 1.388 . S
C880 C879 1.366 . S
C880 C884 1.385 . S
C881 H856 0.951 . S
C881 C879 1.388 . S
C881 C882 1.366 . S
C882 C881 1.366 . S
C882 C883 1.414 . S
C882 C885 1.499 . S
C883 H857 0.950 . S
C883 C882 1.414 . S
C883 C884 1.374 . S
C884 H858 0.950 . S
C884 C880 1.385 . S
C884 C883 1.374 . S
C885 C882 1.499 . S
C885 C886 1.373 . S
C885 C887 1.389 . S
C886 H859 0.950 . S
C886 C872 1.377 . S
C886 C885 1.373 . S
C887 C871 1.377 . S
C887 C885 1.389 . S
C887 C888 1.524 . S
C888 C887 1.524 . S
C888 C889 1.397 . S
C888 C893 1.363 . S
C889 H860 0.950 . S
C889 C888 1.397 . S
C889 C890 1.334 . S
C890 H861 0.950 . S
C890 C889 1.334 . S
C890 C891 1.287 . S
C891 C890 1.287 . S
C891 C892 1.524 . S
C891 H894 0.999 . S
C892 H862 0.950 . S
C892 C891 1.524 . S
C892 C893 1.415 . S
C893 H863 0.950 . S
C893 C888 1.363 . S
C893 C892 1.415 . S
H894 C891 0.999 . S
H895 C876 0.937 . S
H896 C914 0.951 . S
H897 C916 0.951 . S
H898 C918 0.950 . S
H899 C919 0.950 . S
H900 C921 0.950 . S
H901 C924 0.950 . S
H902 C925 0.950 . S
H903 C927 0.950 . S
H904 C928 0.950 . S
H905 C929 0.951 . S
H906 C931 0.951 . S
H907 C933 0.950 . S
H908 C934 0.950 . S
H909 C936 0.950 . S
H910 C939 0.950 . S
H911 C940 0.950 . S
H912 C942 0.950 . S
H913 C943 0.950 . S
C914 H896 0.951 . S
C914 C915 1.366 . S
C914 C916 1.388 . S
C915 C914 1.366 . S
C915 C919 1.385 . S
C916 H897 0.951 . S
C916 C914 1.388 . S
C916 C917 1.366 . S
C917 C916 1.366 . S
C917 C918 1.414 . S
C917 C920 1.499 . S
C918 H898 0.950 . S
C918 C917 1.414 . S
C918 C919 1.374 . S
C919 H899 0.950 . S
C919 C915 1.385 . S
C919 C918 1.374 . S
C920 C917 1.499 . S
C920 C921 1.373 . S
C920 C922 1.389 . S
C921 H900 0.950 . S
C921 C920 1.373 . S
C921 C937 1.377 . S
C922 C920 1.389 . S
C922 C923 1.524 . S
C922 C936 1.377 . S
C923 C922 1.524 . S
C923 C924 1.397 . S
C923 C928 1.363 . S
C924 H901 0.950 . S
C924 C923 1.397 . S
C924 C925 1.334 . S
C925 H902 0.950 . S
C925 C924 1.334 . S
C925 C926 1.287 . S
C926 C925 1.287 . S
C926 C927 1.524 . S
C926 H945 0.913 . S
C927 H903 0.950 . S
C927 C926 1.524 . S
C927 C928 1.415 . S
C928 H904 0.950 . S
C928 C923 1.363 . S
C928 C927 1.415 . S
C929 H905 0.951 . S
C929 C930 1.366 . S
C929 C931 1.388 . S
C930 C929 1.366 . S
C930 C934 1.385 . S
C931 H906 0.951 . S
C931 C929 1.388 . S
C931 C932 1.366 . S
C932 C931 1.366 . S
C932 C933 1.414 . S
C932 C935 1.499 . S
C933 H907 0.950 . S
C933 C932 1.414 . S
C933 C934 1.374 . S
C934 H908 0.950 . S
C934 C930 1.385 . S
C934 C933 1.374 . S
C935 C932 1.499 . S
C935 C936 1.373 . S
C935 C937 1.389 . S
C936 H909 0.950 . S
C936 C922 1.377 . S
C936 C935 1.373 . S
C937 C921 1.377 . S
C937 C935 1.389 . S
C937 C938 1.524 . S
C938 C937 1.524 . S
C938 C939 1.397 . S
C938 C943 1.363 . S
C939 H910 0.950 . S
C939 C938 1.397 . S
C939 C940 1.334 . S
C940 H911 0.950 . S
C940 C939 1.334 . S
C940 C941 1.287 . S
C941 C940 1.287 . S
C941 C942 1.524 . S
C941 H944 0.999 . S
C942 H912 0.950 . S
C942 C941 1.524 . S
C942 C943 1.415 . S
C943 H913 0.950 . S
C943 C938 1.363 . S
C943 C942 1.415 . S
H944 C941 0.999 . S
H945 C926 0.913 . S
H946 C964 0.951 . S
H947 C966 0.951 . S
H948 C968 0.950 . S
H949 C969 0.950 . S
H950 C971 0.950 . S
H951 C974 0.943 1_554 S
H952 C975 0.950 . S
H953 C977 0.950 . S
H954 C978 0.950 . S
H955 C979 0.951 . S
H956 C981 0.951 . S
H957 C983 0.950 . S
H958 C984 0.950 . S
H959 C986 0.950 . S
H960 C989 0.950 . S
H961 C990 0.950 . S
H962 C992 0.950 . S
H963 C993 0.950 . S
C964 H946 0.951 . S
C964 C965 1.366 . S
C964 C966 1.388 . S
C965 C964 1.366 . S
C965 C969 1.385 . S
C966 H947 0.951 . S
C966 C964 1.388 . S
C966 C967 1.366 . S
C967 C966 1.366 . S
C967 C968 1.414 . S
C967 C970 1.499 . S
C968 H948 0.950 . S
C968 C967 1.414 . S
C968 C969 1.374 . S
C969 H949 0.950 . S
C969 C965 1.385 . S
C969 C968 1.374 . S
C970 C967 1.499 . S
C970 C971 1.373 . S
C970 C972 1.389 . S
C971 H950 0.950 . S
C971 C970 1.373 . S
C971 C987 1.377 . S
C972 C970 1.389 . S
C972 C973 1.501 1_554 S
C972 C986 1.377 . S
C973 C972 1.501 1_556 S
C973 C974 1.408 . S
C973 C978 1.376 . S
C974 H951 0.943 1_556 S
C974 C973 1.408 . S
C974 C975 1.334 . S
C975 H952 0.950 . S
C975 C974 1.334 . S
C975 C976 1.287 . S
C976 C975 1.287 . S
C976 C977 1.524 . S
C976 H995 0.913 . S
C977 H953 0.950 . S
C977 C976 1.524 . S
C977 C978 1.415 . S
C978 H954 0.950 . S
C978 C973 1.376 . S
C978 C977 1.415 . S
C979 H955 0.951 . S
C979 C980 1.366 . S
C979 C981 1.388 . S
C980 C979 1.366 . S
C980 C984 1.385 . S
C981 H956 0.951 . S
C981 C979 1.388 . S
C981 C982 1.366 . S
C982 C981 1.366 . S
C982 C983 1.414 . S
C982 C985 1.499 . S
C983 H957 0.950 . S
C983 C982 1.414 . S
C983 C984 1.374 . S
C984 H958 0.950 . S
C984 C980 1.385 . S
C984 C983 1.374 . S
C985 C982 1.499 . S
C985 C986 1.373 . S
C985 C987 1.389 . S
C986 H959 0.950 . S
C986 C972 1.377 . S
C986 C985 1.373 . S
C987 C971 1.377 . S
C987 C985 1.389 . S
C987 C988 1.524 . S
C988 C987 1.524 . S
C988 C989 1.397 . S
C988 C993 1.363 . S
C989 H960 0.950 . S
C989 C988 1.397 . S
C989 C990 1.334 . S
C990 H961 0.950 . S
C990 C989 1.334 . S
C990 C991 1.287 . S
C991 C990 1.287 . S
C991 C992 1.524 . S
C991 H994 0.999 . S
C992 H962 0.950 . S
C992 C991 1.524 . S
C992 C993 1.415 . S
C993 H963 0.950 . S
C993 C988 1.363 . S
C993 C992 1.415 . S
H994 C991 0.999 . S
H995 C976 0.913 . S
H996 C1014 0.951 . S
H997 C1016 0.951 . S
H998 C1018 0.950 . S
H999 C1019 0.950 . S
H1000 C1021 0.950 . S
H1001 C1024 0.950 . S
H1002 C1025 0.950 . S
H1003 C1027 0.950 . S
H1004 C1028 0.950 . S
H1005 C1029 0.951 . S
H1006 C1031 0.951 . S
H1007 C1033 0.950 . S
H1008 C1034 0.950 . S
H1009 C1036 0.950 . S
H1010 C1039 0.950 . S
H1011 C1040 0.950 . S
H1012 C1042 0.950 . S
H1013 C1043 0.950 . S
C1014 H996 0.951 . S
C1014 C1015 1.366 . S
C1014 C1016 1.388 . S
C1015 C1014 1.366 . S
C1015 C1019 1.385 . S
C1016 H997 0.951 . S
C1016 C1014 1.388 . S
C1016 C1017 1.366 . S
C1017 C1016 1.366 . S
C1017 C1018 1.414 . S
C1017 C1020 1.499 . S
C1018 H998 0.950 . S
C1018 C1017 1.414 . S
C1018 C1019 1.374 . S
C1019 H999 0.950 . S
C1019 C1015 1.385 . S
C1019 C1018 1.374 . S
C1020 C1017 1.499 . S
C1020 C1021 1.373 . S
C1020 C1022 1.389 . S
C1021 H1000 0.950 . S
C1021 C1020 1.373 . S
C1021 C1037 1.377 1_655 S
C1022 C1020 1.389 . S
C1022 C1023 1.524 . S
C1022 C1036 1.377 1_655 S
C1023 C1022 1.524 . S
C1023 C1024 1.397 . S
C1023 C1028 1.363 . S
C1024 H1001 0.950 . S
C1024 C1023 1.397 . S
C1024 C1025 1.334 . S
C1025 H1002 0.950 . S
C1025 C1024 1.334 . S
C1025 C1026 1.287 . S
C1026 C1025 1.287 . S
C1026 C1027 1.524 . S
C1026 H1045 0.913 . S
C1027 H1003 0.950 . S
C1027 C1026 1.524 . S
C1027 C1028 1.415 . S
C1028 H1004 0.950 . S
C1028 C1023 1.363 . S
C1028 C1027 1.415 . S
C1029 H1005 0.951 . S
C1029 C1030 1.366 . S
C1029 C1031 1.388 . S
C1030 C1029 1.366 . S
C1030 C1034 1.385 . S
C1031 H1006 0.951 . S
C1031 C1029 1.388 . S
C1031 C1032 1.366 . S
C1032 C1031 1.366 . S
C1032 C1033 1.414 . S
C1032 C1035 1.499 . S
C1033 H1007 0.950 . S
C1033 C1032 1.414 . S
C1033 C1034 1.374 . S
C1034 H1008 0.950 . S
C1034 C1030 1.385 . S
C1034 C1033 1.374 . S
C1035 C1032 1.499 . S
C1035 C1036 1.373 . S
C1035 C1037 1.389 . S
C1036 H1009 0.950 . S
C1036 C1022 1.377 1_455 S
C1036 C1035 1.373 . S
C1037 C1021 1.377 1_455 S
C1037 C1035 1.389 . S
C1037 C1038 1.524 . S
C1038 C1037 1.524 . S
C1038 C1039 1.397 . S
C1038 C1043 1.363 . S
C1039 H1010 0.950 . S
C1039 C1038 1.397 . S
C1039 C1040 1.334 . S
C1040 H1011 0.950 . S
C1040 C1039 1.334 . S
C1040 C1041 1.287 . S
C1041 C1040 1.287 . S
C1041 C1042 1.524 . S
C1041 H1044 0.999 . S
C1042 H1012 0.950 . S
C1042 C1041 1.524 . S
C1042 C1043 1.415 . S
C1043 H1013 0.950 . S
C1043 C1038 1.363 . S
C1043 C1042 1.415 . S
H1044 C1041 0.999 . S
H1045 C1026 0.913 . S
H1046 C1064 0.951 . S
H1047 C1066 0.951 . S
H1048 C1068 0.950 . S
H1049 C1069 0.950 . S
H1050 C1071 0.950 . S
H1051 C1074 0.950 . S
H1052 C1075 0.950 . S
H1053 C1077 0.950 . S
H1054 C1078 0.950 . S
H1055 C1079 0.951 . S
H1056 C1081 0.951 . S
H1057 C1083 0.950 . S
H1058 C1084 0.950 . S
H1059 C1086 0.950 . S
H1060 C1089 0.950 . S
H1061 C1090 0.950 . S
H1062 C1092 0.950 . S
H1063 C1093 0.950 . S
C1064 H1046 0.951 . S
C1064 C1065 1.366 . S
C1064 C1066 1.388 . S
C1065 C1064 1.366 . S
C1065 C1069 1.385 . S
C1066 H1047 0.951 . S
C1066 C1064 1.388 . S
C1066 C1067 1.366 . S
C1067 C1066 1.366 . S
C1067 C1068 1.414 . S
C1067 C1070 1.499 . S
C1068 H1048 0.950 . S
C1068 C1067 1.414 . S
C1068 C1069 1.374 . S
C1069 H1049 0.950 . S
C1069 C1065 1.385 . S
C1069 C1068 1.374 . S
C1070 C1067 1.499 . S
C1070 C1071 1.373 . S
C1070 C1072 1.389 . S
C1071 H1050 0.950 . S
C1071 C1070 1.373 . S
C1071 C1087 1.377 . S
C1072 C1070 1.389 . S
C1072 C1073 1.524 . S
C1072 C1086 1.377 . S
C1073 C1072 1.524 . S
C1073 C1074 1.397 . S
C1073 C1078 1.363 . S
C1074 H1051 0.950 . S
C1074 C1073 1.397 . S
C1074 C1075 1.334 . S
C1075 H1052 0.950 . S
C1075 C1074 1.334 . S
C1075 C1076 1.287 . S
C1076 C1075 1.287 . S
C1076 C1077 1.524 . S
C1076 H1095 0.913 . S
C1077 H1053 0.950 . S
C1077 C1076 1.524 . S
C1077 C1078 1.415 . S
C1078 H1054 0.950 . S
C1078 C1073 1.363 . S
C1078 C1077 1.415 . S
C1079 H1055 0.951 . S
C1079 C1080 1.366 . S
C1079 C1081 1.388 . S
C1080 C1079 1.366 . S
C1080 C1084 1.385 . S
C1081 H1056 0.951 . S
C1081 C1079 1.388 . S
C1081 C1082 1.366 . S
C1082 C1081 1.366 . S
C1082 C1083 1.414 . S
C1082 C1085 1.499 . S
C1083 H1057 0.950 . S
C1083 C1082 1.414 . S
C1083 C1084 1.374 . S
C1084 H1058 0.950 . S
C1084 C1080 1.385 . S
C1084 C1083 1.374 . S
C1085 C1082 1.499 . S
C1085 C1086 1.373 . S
C1085 C1087 1.389 . S
C1086 H1059 0.950 . S
C1086 C1072 1.377 . S
C1086 C1085 1.373 . S
C1087 C1071 1.377 . S
C1087 C1085 1.389 . S
C1087 C1088 1.524 . S
C1088 C1087 1.524 . S
C1088 C1089 1.397 . S
C1088 C1093 1.363 . S
C1089 H1060 0.950 . S
C1089 C1088 1.397 . S
C1089 C1090 1.334 . S
C1090 H1061 0.950 . S
C1090 C1089 1.334 . S
C1090 C1091 1.287 . S
C1091 C1090 1.287 . S
C1091 C1092 1.524 . S
C1091 H1094 0.999 . S
C1092 H1062 0.950 . S
C1092 C1091 1.524 . S
C1092 C1093 1.415 . S
C1093 H1063 0.950 . S
C1093 C1088 1.363 . S
C1093 C1092 1.415 . S
H1094 C1091 0.999 . S
H1095 C1076 0.913 . S
H1096 C1114 0.951 . S
H1097 C1116 0.951 . S
H1098 C1118 0.950 . S
H1099 C1119 0.950 . S
H1100 C1121 0.950 . S
H1101 C1124 0.950 . S
H1102 C1125 0.950 . S
H1103 C1127 0.950 1_565 S
H1104 C1128 0.950 1_565 S
H1105 C1129 0.951 . S
H1106 C1131 0.951 . S
H1107 C1133 0.950 . S
H1108 C1134 0.950 . S
H1109 C1136 0.950 . S
H1110 C1139 0.950 . S
H1111 C1140 0.950 . S
H1112 C1142 0.950 . S
H1113 C1143 0.950 . S
C1114 H1096 0.951 . S
C1114 C1115 1.366 . S
C1114 C1116 1.388 . S
C1115 C1114 1.366 . S
C1115 C1119 1.385 . S
C1116 H1097 0.951 . S
C1116 C1114 1.388 . S
C1116 C1117 1.366 . S
C1117 C1116 1.366 . S
C1117 C1118 1.414 . S
C1117 C1120 1.499 . S
C1118 H1098 0.950 . S
C1118 C1117 1.414 . S
C1118 C1119 1.374 . S
C1119 H1099 0.950 . S
C1119 C1115 1.385 . S
C1119 C1118 1.374 . S
C1120 C1117 1.499 . S
C1120 C1121 1.373 . S
C1120 C1122 1.389 . S
C1121 H1100 0.950 . S
C1121 C1120 1.373 . S
C1121 C1137 1.406 . S
C1122 C1120 1.389 . S
C1122 C1123 1.524 . S
C1122 C1136 1.377 1_545 S
C1123 C1122 1.524 . S
C1123 C1124 1.397 . S
C1123 C1128 1.363 . S
C1124 H1101 0.950 . S
C1124 C1123 1.397 . S
C1124 C1125 1.334 . S
C1125 H1102 0.950 . S
C1125 C1124 1.334 . S
C1125 C1126 1.287 . S
C1126 C1125 1.287 . S
C1126 C1127 1.524 . S
C1126 H1145 0.913 . S
C1127 H1103 0.950 1_545 S
C1127 C1126 1.524 . S
C1127 C1128 1.415 . S
C1128 H1104 0.950 1_545 S
C1128 C1123 1.363 . S
C1128 C1127 1.415 . S
C1129 H1105 0.951 . S
C1129 C1130 1.366 . S
C1129 C1131 1.388 . S
C1130 C1129 1.366 . S
C1130 C1134 1.385 . S
C1131 H1106 0.951 . S
C1131 C1129 1.388 . S
C1131 C1132 1.366 . S
C1132 C1131 1.366 . S
C1132 C1133 1.414 . S
C1132 C1135 1.499 . S
C1133 H1107 0.950 . S
C1133 C1132 1.414 . S
C1133 C1134 1.374 . S
C1134 H1108 0.950 . S
C1134 C1130 1.385 . S
C1134 C1133 1.374 . S
C1135 C1132 1.499 . S
C1135 C1136 1.373 . S
C1135 C1137 1.372 1_565 S
C1136 H1109 0.950 . S
C1136 C1122 1.377 1_565 S
C1136 C1135 1.373 . S
C1137 C1121 1.406 . S
C1137 C1135 1.372 1_545 S
C1137 C1138 1.515 1_545 S
C1138 C1137 1.515 1_565 S
C1138 C1139 1.397 . S
C1138 C1143 1.363 1_565 S
C1139 H1110 0.950 . S
C1139 C1138 1.397 . S
C1139 C1140 1.334 . S
C1140 H1111 0.950 . S
C1140 C1139 1.334 . S
C1140 C1141 1.287 . S
C1141 C1140 1.287 . S
C1141 C1142 1.524 1_565 S
C1141 H1144 0.999 . S
C1142 H1112 0.950 . S
C1142 C1141 1.524 1_545 S
C1142 C1143 1.415 . S
C1143 H1113 0.950 . S
C1143 C1138 1.363 1_545 S
C1143 C1142 1.415 . S
H1144 C1141 0.999 . S
H1145 C1126 0.913 . S
H1146 C1164 0.951 . S
H1147 C1166 0.951 . S
H1148 C1168 0.950 . S
H1149 C1169 0.950 . S
H1150 C1171 0.950 . S
H1151 C1174 0.950 . S
H1152 C1175 0.950 . S
H1153 C1177 0.950 . S
H1154 C1178 0.950 . S
H1155 C1179 0.951 . S
H1156 C1181 0.951 . S
H1157 C1183 0.950 . S
H1158 C1184 0.950 . S
H1159 C1186 0.950 . S
H1160 C1189 0.950 . S
H1161 C1190 0.950 . S
H1162 C1192 0.950 . S
H1163 C1193 0.950 . S
C1164 H1146 0.951 . S
C1164 C1165 1.366 . S
C1164 C1166 1.388 . S
C1165 C1164 1.366 . S
C1165 C1169 1.385 . S
C1166 H1147 0.951 . S
C1166 C1164 1.388 . S
C1166 C1167 1.366 . S
C1167 C1166 1.366 . S
C1167 C1168 1.414 . S
C1167 C1170 1.499 . S
C1168 H1148 0.950 . S
C1168 C1167 1.414 . S
C1168 C1169 1.374 . S
C1169 H1149 0.950 . S
C1169 C1165 1.385 . S
C1169 C1168 1.374 . S
C1170 C1167 1.499 . S
C1170 C1171 1.373 . S
C1170 C1172 1.389 . S
C1171 H1150 0.950 . S
C1171 C1170 1.373 . S
C1171 C1187 1.377 . S
C1172 C1170 1.389 . S
C1172 C1173 1.524 . S
C1172 C1186 1.377 . S
C1173 C1172 1.524 . S
C1173 C1174 1.397 . S
C1173 C1178 1.363 . S
C1174 H1151 0.950 . S
C1174 C1173 1.397 . S
C1174 C1175 1.334 . S
C1175 H1152 0.950 . S
C1175 C1174 1.334 . S
C1175 C1176 1.287 . S
C1176 C1175 1.287 . S
C1176 C1177 1.524 . S
C1176 H1195 0.913 . S
C1177 H1153 0.950 . S
C1177 C1176 1.524 . S
C1177 C1178 1.415 . S
C1178 H1154 0.950 . S
C1178 C1173 1.363 . S
C1178 C1177 1.415 . S
C1179 H1155 0.951 . S
C1179 C1180 1.366 . S
C1179 C1181 1.388 . S
C1180 C1179 1.366 . S
C1180 C1184 1.385 . S
C1181 H1156 0.951 . S
C1181 C1179 1.388 . S
C1181 C1182 1.366 . S
C1182 C1181 1.366 . S
C1182 C1183 1.414 . S
C1182 C1185 1.499 . S
C1183 H1157 0.950 . S
C1183 C1182 1.414 . S
C1183 C1184 1.374 . S
C1184 H1158 0.950 . S
C1184 C1180 1.385 . S
C1184 C1183 1.374 . S
C1185 C1182 1.499 . S
C1185 C1186 1.373 . S
C1185 C1187 1.389 . S
C1186 H1159 0.950 . S
C1186 C1172 1.377 . S
C1186 C1185 1.373 . S
C1187 C1171 1.377 . S
C1187 C1185 1.389 . S
C1187 C1188 1.524 . S
C1188 C1187 1.524 . S
C1188 C1189 1.397 . S
C1188 C1193 1.363 . S
C1189 H1160 0.950 . S
C1189 C1188 1.397 . S
C1189 C1190 1.334 . S
C1190 H1161 0.950 . S
C1190 C1189 1.334 . S
C1190 C1191 1.287 . S
C1191 C1190 1.287 . S
C1191 C1192 1.524 . S
C1191 H1194 0.999 . S
C1192 H1162 0.950 . S
C1192 C1191 1.524 . S
C1192 C1193 1.415 . S
C1193 H1163 0.950 . S
C1193 C1188 1.363 . S
C1193 C1192 1.415 . S
H1194 C1191 0.999 . S
H1195 C1176 0.913 . S
H1196 C1214 0.951 . S
H1197 C1216 0.951 . S
H1198 C1218 0.950 . S
H1199 C1219 0.950 . S
H1200 C1221 0.950 . S
H1201 C1224 0.950 . S
H1202 C1225 0.950 . S
H1203 C1227 0.950 . S
H1204 C1228 0.950 . S
H1205 C1229 0.951 . S
H1206 C1231 0.951 . S
H1207 C1233 0.950 . S
H1208 C1234 0.950 . S
H1209 C1236 0.950 . S
H1210 C1239 0.950 . S
H1211 C1240 0.950 . S
H1212 C1242 0.950 . S
H1213 C1243 0.950 . S
C1214 H1196 0.951 . S
C1214 C1215 1.366 . S
C1214 C1216 1.388 . S
C1215 C1214 1.366 . S
C1215 C1219 1.385 . S
C1216 H1197 0.951 . S
C1216 C1214 1.388 . S
C1216 C1217 1.366 . S
C1217 C1216 1.366 . S
C1217 C1218 1.414 . S
C1217 C1220 1.499 . S
C1218 H1198 0.950 . S
C1218 C1217 1.414 . S
C1218 C1219 1.374 . S
C1219 H1199 0.950 . S
C1219 C1215 1.385 . S
C1219 C1218 1.374 . S
C1220 C1217 1.499 . S
C1220 C1221 1.373 . S
C1220 C1222 1.389 . S
C1221 H1200 0.950 . S
C1221 C1220 1.373 . S
C1221 C1237 1.377 . S
C1222 C1220 1.389 . S
C1222 C1223 1.524 . S
C1222 C1236 1.377 . S
C1223 C1222 1.524 . S
C1223 C1224 1.397 . S
C1223 C1228 1.363 . S
C1224 H1201 0.950 . S
C1224 C1223 1.397 . S
C1224 C1225 1.334 . S
C1225 H1202 0.950 . S
C1225 C1224 1.334 . S
C1225 C1226 1.287 . S
C1226 C1225 1.287 . S
C1226 C1227 1.524 . S
C1226 H1245 0.913 . S
C1227 H1203 0.950 . S
C1227 C1226 1.524 . S
C1227 C1228 1.415 . S
C1228 H1204 0.950 . S
C1228 C1223 1.363 . S
C1228 C1227 1.415 . S
C1229 H1205 0.951 . S
C1229 C1230 1.366 . S
C1229 C1231 1.388 . S
C1230 C1229 1.366 . S
C1230 C1234 1.385 . S
C1231 H1206 0.951 . S
C1231 C1229 1.388 . S
C1231 C1232 1.366 . S
C1232 C1231 1.366 . S
C1232 C1233 1.414 . S
C1232 C1235 1.499 . S
C1233 H1207 0.950 . S
C1233 C1232 1.414 . S
C1233 C1234 1.374 . S
C1234 H1208 0.950 . S
C1234 C1230 1.385 . S
C1234 C1233 1.374 . S
C1235 C1232 1.499 . S
C1235 C1236 1.373 . S
C1235 C1237 1.389 . S
C1236 H1209 0.950 . S
C1236 C1222 1.377 . S
C1236 C1235 1.373 . S
C1237 C1221 1.377 . S
C1237 C1235 1.389 . S
C1237 C1238 1.524 . S
C1238 C1237 1.524 . S
C1238 C1239 1.397 . S
C1238 C1243 1.363 . S
C1239 H1210 0.950 . S
C1239 C1238 1.397 . S
C1239 C1240 1.334 . S
C1240 H1211 0.950 . S
C1240 C1239 1.334 . S
C1240 C1241 1.287 . S
C1241 C1240 1.287 . S
C1241 C1242 1.524 . S
C1241 H1244 0.999 . S
C1242 H1212 0.950 . S
C1242 C1241 1.524 . S
C1242 C1243 1.415 . S
C1243 H1213 0.950 . S
C1243 C1238 1.363 . S
C1243 C1242 1.415 . S
H1244 C1241 0.999 . S
H1245 C1226 0.913 . S
H1246 C1264 0.951 . S
H1247 C1266 0.951 . S
H1248 C1268 0.950 . S
H1249 C1269 0.950 . S
H1250 C1271 0.950 . S
H1251 C1274 0.950 . S
H1252 C1275 0.950 . S
H1253 C1277 0.950 . S
H1254 C1278 0.950 . S
H1255 C1279 0.951 . S
H1256 C1281 0.951 . S
H1257 C1283 0.950 . S
H1258 C1284 0.950 . S
H1259 C1286 0.950 . S
H1260 C1289 0.950 . S
H1261 C1290 0.950 . S
H1262 C1292 0.950 . S
H1263 C1293 0.950 . S
C1264 H1246 0.951 . S
C1264 C1265 1.366 . S
C1264 C1266 1.388 . S
C1265 C1264 1.366 . S
C1265 C1269 1.385 . S
C1266 H1247 0.951 . S
C1266 C1264 1.388 . S
C1266 C1267 1.366 . S
C1267 C1266 1.366 . S
C1267 C1268 1.414 . S
C1267 C1270 1.499 . S
C1268 H1248 0.950 . S
C1268 C1267 1.414 . S
C1268 C1269 1.374 . S
C1269 H1249 0.950 . S
C1269 C1265 1.385 . S
C1269 C1268 1.374 . S
C1270 C1267 1.499 . S
C1270 C1271 1.373 . S
C1270 C1272 1.389 . S
C1271 H1250 0.950 . S
C1271 C1270 1.373 . S
C1271 C1287 1.377 . S
C1272 C1270 1.389 . S
C1272 C1273 1.524 . S
C1272 C1286 1.377 . S
C1273 C1272 1.524 . S
C1273 C1274 1.397 . S
C1273 C1278 1.363 . S
C1274 H1251 0.950 . S
C1274 C1273 1.397 . S
C1274 C1275 1.334 . S
C1275 H1252 0.950 . S
C1275 C1274 1.334 . S
C1275 C1276 1.287 . S
C1276 C1275 1.287 . S
C1276 C1277 1.524 . S
C1276 H1295 0.913 . S
C1277 H1253 0.950 . S
C1277 C1276 1.524 . S
C1277 C1278 1.415 . S
C1278 H1254 0.950 . S
C1278 C1273 1.363 . S
C1278 C1277 1.415 . S
C1279 H1255 0.951 . S
C1279 C1280 1.366 . S
C1279 C1281 1.388 . S
C1280 C1279 1.366 . S
C1280 C1284 1.385 . S
C1281 H1256 0.951 . S
C1281 C1279 1.388 . S
C1281 C1282 1.366 . S
C1282 C1281 1.366 . S
C1282 C1283 1.414 . S
C1282 C1285 1.499 . S
C1283 H1257 0.950 . S
C1283 C1282 1.414 . S
C1283 C1284 1.374 . S
C1284 H1258 0.950 . S
C1284 C1280 1.385 . S
C1284 C1283 1.374 . S
C1285 C1282 1.499 . S
C1285 C1286 1.373 . S
C1285 C1287 1.389 . S
C1286 H1259 0.950 . S
C1286 C1272 1.377 . S
C1286 C1285 1.373 . S
C1287 C1271 1.377 . S
C1287 C1285 1.389 . S
C1287 C1288 1.524 . S
C1288 C1287 1.524 . S
C1288 C1289 1.397 . S
C1288 C1293 1.363 . S
C1289 H1260 0.950 . S
C1289 C1288 1.397 . S
C1289 C1290 1.334 . S
C1290 H1261 0.950 . S
C1290 C1289 1.334 . S
C1290 C1291 1.287 . S
C1291 C1290 1.287 . S
C1291 C1292 1.524 . S
C1291 H1294 0.999 . S
C1292 H1262 0.950 . S
C1292 C1291 1.524 . S
C1292 C1293 1.415 . S
C1293 H1263 0.950 . S
C1293 C1288 1.363 . S
C1293 C1292 1.415 . S
H1294 C1291 0.999 . S
H1295 C1276 0.913 . S
H1296 C1314 0.951 . S
H1297 C1316 0.951 . S
H1298 C1318 0.950 . S
H1299 C1319 0.950 . S
H1300 C1321 0.950 . S
H1301 C1324 0.950 . S
H1302 C1325 0.950 . S
H1303 C1327 0.950 . S
H1304 C1328 0.950 . S
H1305 C1329 0.951 . S
H1306 C1331 0.951 . S
H1307 C1333 0.950 . S
H1308 C1334 0.950 . S
H1309 C1336 0.950 . S
H1310 C1339 0.950 . S
H1311 C1340 0.950 . S
H1312 C1342 0.950 . S
H1313 C1343 0.950 . S
C1314 H1296 0.951 . S
C1314 C1315 1.366 . S
C1314 C1316 1.388 . S
C1315 C1314 1.366 . S
C1315 C1319 1.385 . S
C1316 H1297 0.951 . S
C1316 C1314 1.388 . S
C1316 C1317 1.366 . S
C1317 C1316 1.366 . S
C1317 C1318 1.414 . S
C1317 C1320 1.499 . S
C1318 H1298 0.950 . S
C1318 C1317 1.414 . S
C1318 C1319 1.374 . S
C1319 H1299 0.950 . S
C1319 C1315 1.385 . S
C1319 C1318 1.374 . S
C1320 C1317 1.499 . S
C1320 C1321 1.373 . S
C1320 C1322 1.389 . S
C1321 H1300 0.950 . S
C1321 C1320 1.373 . S
C1321 C1337 1.377 . S
C1322 C1320 1.389 . S
C1322 C1323 1.524 . S
C1322 C1336 1.377 . S
C1323 C1322 1.524 . S
C1323 C1324 1.397 . S
C1323 C1328 1.363 . S
C1324 H1301 0.950 . S
C1324 C1323 1.397 . S
C1324 C1325 1.334 . S
C1325 H1302 0.950 . S
C1325 C1324 1.334 . S
C1325 C1326 1.287 . S
C1326 C1325 1.287 . S
C1326 C1327 1.524 . S
C1326 H1345 0.913 . S
C1327 H1303 0.950 . S
C1327 C1326 1.524 . S
C1327 C1328 1.415 . S
C1328 H1304 0.950 . S
C1328 C1323 1.363 . S
C1328 C1327 1.415 . S
C1329 H1305 0.951 . S
C1329 C1330 1.366 . S
C1329 C1331 1.388 . S
C1330 C1329 1.366 . S
C1330 C1334 1.385 . S
C1331 H1306 0.951 . S
C1331 C1329 1.388 . S
C1331 C1332 1.366 . S
C1332 C1331 1.366 . S
C1332 C1333 1.414 . S
C1332 C1335 1.499 . S
C1333 H1307 0.950 . S
C1333 C1332 1.414 . S
C1333 C1334 1.374 . S
C1334 H1308 0.950 . S
C1334 C1330 1.385 . S
C1334 C1333 1.374 . S
C1335 C1332 1.499 . S
C1335 C1336 1.373 . S
C1335 C1337 1.389 . S
C1336 H1309 0.950 . S
C1336 C1322 1.377 . S
C1336 C1335 1.373 . S
C1337 C1321 1.377 . S
C1337 C1335 1.389 . S
C1337 C1338 1.524 . S
C1338 C1337 1.524 . S
C1338 C1339 1.397 . S
C1338 C1343 1.363 . S
C1339 H1310 0.950 . S
C1339 C1338 1.397 . S
C1339 C1340 1.334 . S
C1340 H1311 0.950 . S
C1340 C1339 1.334 . S
C1340 C1341 1.287 . S
C1341 C1340 1.287 . S
C1341 C1342 1.524 . S
C1341 H1344 0.999 . S
C1342 H1312 0.950 . S
C1342 C1341 1.524 . S
C1342 C1343 1.415 . S
C1343 H1313 0.950 . S
C1343 C1338 1.363 . S
C1343 C1342 1.415 . S
H1344 C1341 0.999 . S
H1345 C1326 0.913 . S
H1346 C1364 0.951 . S
H1347 C1366 0.951 . S
H1348 C1368 0.950 . S
H1349 C1369 0.950 . S
H1350 C1371 0.950 . S
H1351 C1374 0.950 . S
H1352 C1375 0.950 . S
H1353 C1377 0.950 . S
H1354 C1378 0.950 . S
H1355 C1379 0.951 . S
H1356 C1381 0.951 . S
H1357 C1383 0.950 . S
H1358 C1384 0.950 . S
H1359 C1386 0.950 . S
H1360 C1389 0.950 . S
H1361 C1390 0.950 . S
H1362 C1392 0.950 . S
H1363 C1393 0.950 . S
C1364 H1346 0.951 . S
C1364 C1365 1.366 . S
C1364 C1366 1.388 . S
C1365 C1364 1.366 . S
C1365 C1369 1.385 . S
C1366 H1347 0.951 . S
C1366 C1364 1.388 . S
C1366 C1367 1.366 . S
C1367 C1366 1.366 . S
C1367 C1368 1.414 . S
C1367 C1370 1.499 . S
C1368 H1348 0.950 . S
C1368 C1367 1.414 . S
C1368 C1369 1.374 . S
C1369 H1349 0.950 . S
C1369 C1365 1.385 . S
C1369 C1368 1.374 . S
C1370 C1367 1.499 . S
C1370 C1371 1.373 . S
C1370 C1372 1.389 . S
C1371 H1350 0.950 . S
C1371 C1370 1.373 . S
C1371 C1387 1.377 . S
C1372 C1370 1.389 . S
C1372 C1373 1.524 . S
C1372 C1386 1.377 . S
C1373 C1372 1.524 . S
C1373 C1374 1.397 . S
C1373 C1378 1.363 . S
C1374 H1351 0.950 . S
C1374 C1373 1.397 . S
C1374 C1375 1.334 . S
C1375 H1352 0.950 . S
C1375 C1374 1.334 . S
C1375 C1376 1.287 . S
C1376 C1375 1.287 . S
C1376 C1377 1.524 . S
C1376 H1395 0.913 . S
C1377 H1353 0.950 . S
C1377 C1376 1.524 . S
C1377 C1378 1.415 . S
C1378 H1354 0.950 . S
C1378 C1373 1.363 . S
C1378 C1377 1.415 . S
C1379 H1355 0.951 . S
C1379 C1380 1.366 . S
C1379 C1381 1.388 . S
C1380 C1379 1.366 . S
C1380 C1384 1.385 . S
C1381 H1356 0.951 . S
C1381 C1379 1.388 . S
C1381 C1382 1.366 . S
C1382 C1381 1.366 . S
C1382 C1383 1.414 . S
C1382 C1385 1.499 . S
C1383 H1357 0.950 . S
C1383 C1382 1.414 . S
C1383 C1384 1.374 . S
C1384 H1358 0.950 . S
C1384 C1380 1.385 . S
C1384 C1383 1.374 . S
C1385 C1382 1.499 . S
C1385 C1386 1.373 . S
C1385 C1387 1.389 . S
C1386 H1359 0.950 . S
C1386 C1372 1.377 . S
C1386 C1385 1.373 . S
C1387 C1371 1.377 . S
C1387 C1385 1.389 . S
C1387 C1388 1.524 . S
C1388 C1387 1.524 . S
C1388 C1389 1.397 . S
C1388 C1393 1.363 . S
C1389 H1360 0.950 . S
C1389 C1388 1.397 . S
C1389 C1390 1.334 . S
C1390 H1361 0.950 . S
C1390 C1389 1.334 . S
C1390 C1391 1.287 . S
C1391 C1390 1.287 . S
C1391 C1392 1.524 . S
C1391 H1394 0.999 . S
C1392 H1362 0.950 . S
C1392 C1391 1.524 . S
C1392 C1393 1.415 . S
C1393 H1363 0.950 . S
C1393 C1388 1.363 . S
C1393 C1392 1.415 . S
H1394 C1391 0.999 . S
H1395 C1376 0.913 . S
H1396 C1414 0.951 . S
H1397 C1416 0.951 . S
H1398 C1418 0.950 . S
H1399 C1419 0.950 . S
H1400 C1421 0.950 . S
H1401 C1424 0.950 . S
H1402 C1425 0.950 . S
H1403 C1427 0.950 . S
H1404 C1428 0.950 . S
H1405 C1429 0.951 . S
H1406 C1431 0.951 . S
H1407 C1433 0.950 . S
H1408 C1434 0.950 . S
H1409 C1436 0.950 . S
H1410 C1439 0.950 . S
H1411 C1440 0.950 . S
H1412 C1442 0.950 . S
H1413 C1443 0.950 . S
C1414 H1396 0.951 . S
C1414 C1415 1.366 . S
C1414 C1416 1.388 . S
C1415 C1414 1.366 . S
C1415 C1419 1.385 . S
C1416 H1397 0.951 . S
C1416 C1414 1.388 . S
C1416 C1417 1.366 . S
C1417 C1416 1.366 . S
C1417 C1418 1.414 . S
C1417 C1420 1.499 . S
C1418 H1398 0.950 . S
C1418 C1417 1.414 . S
C1418 C1419 1.374 . S
C1419 H1399 0.950 . S
C1419 C1415 1.385 . S
C1419 C1418 1.374 . S
C1420 C1417 1.499 . S
C1420 C1421 1.373 . S
C1420 C1422 1.389 . S
C1421 H1400 0.950 . S
C1421 C1420 1.373 . S
C1421 C1437 1.377 . S
C1422 C1420 1.389 . S
C1422 C1423 1.524 . S
C1422 C1436 1.377 . S
C1423 C1422 1.524 . S
C1423 C1424 1.397 . S
C1423 C1428 1.363 . S
C1424 H1401 0.950 . S
C1424 C1423 1.397 . S
C1424 C1425 1.334 . S
C1425 H1402 0.950 . S
C1425 C1424 1.334 . S
C1425 C1426 1.287 . S
C1426 C1425 1.287 . S
C1426 C1427 1.524 . S
C1426 H1445 0.913 . S
C1427 H1403 0.950 . S
C1427 C1426 1.524 . S
C1427 C1428 1.415 . S
C1428 H1404 0.950 . S
C1428 C1423 1.363 . S
C1428 C1427 1.415 . S
C1429 H1405 0.951 . S
C1429 C1430 1.366 . S
C1429 C1431 1.388 . S
C1430 C1429 1.366 . S
C1430 C1434 1.385 . S
C1431 H1406 0.951 . S
C1431 C1429 1.388 . S
C1431 C1432 1.366 . S
C1432 C1431 1.366 . S
C1432 C1433 1.414 . S
C1432 C1435 1.499 . S
C1433 H1407 0.950 . S
C1433 C1432 1.414 . S
C1433 C1434 1.374 . S
C1434 H1408 0.950 . S
C1434 C1430 1.385 . S
C1434 C1433 1.374 . S
C1435 C1432 1.499 . S
C1435 C1436 1.373 . S
C1435 C1437 1.389 . S
C1436 H1409 0.950 . S
C1436 C1422 1.377 . S
C1436 C1435 1.373 . S
C1437 C1421 1.377 . S
C1437 C1435 1.389 . S
C1437 C1438 1.524 . S
C1438 C1437 1.524 . S
C1438 C1439 1.397 . S
C1438 C1443 1.363 . S
C1439 H1410 0.950 . S
C1439 C1438 1.397 . S
C1439 C1440 1.334 . S
C1440 H1411 0.950 . S
C1440 C1439 1.334 . S
C1440 C1441 1.287 . S
C1441 C1440 1.287 . S
C1441 C1442 1.524 . S
C1441 H1444 0.999 . S
C1442 H1412 0.950 . S
C1442 C1441 1.524 . S
C1442 C1443 1.415 . S
C1443 H1413 0.950 . S
C1443 C1438 1.363 . S
C1443 C1442 1.415 . S
H1444 C1441 0.999 . S
H1445 C1426 0.913 . S
H1446 C1464 0.951 . S
H1447 C1466 0.951 . S
H1448 C1468 0.950 . S
H1449 C1469 0.950 . S
H1450 C1471 0.950 . S
H1451 C1474 0.950 . S
H1452 C1475 0.947 . S
H1453 C1477 0.950 . S
H1454 C1478 0.950 . S
H1455 C1479 0.951 . S
H1456 C1481 0.951 . S
H1457 C1483 0.950 . S
H1458 C1484 0.950 . S
H1459 C1486 0.950 . S
H1460 C1489 0.950 . S
H1461 C1490 0.950 . S
H1462 C1492 0.950 . S
H1463 C1493 0.950 . S
C1464 H1446 0.951 . S
C1464 C1465 1.366 . S
C1464 C1466 1.388 . S
C1465 C1464 1.366 . S
C1465 C1469 1.385 . S
C1466 H1447 0.951 . S
C1466 C1464 1.388 . S
C1466 C1467 1.366 . S
C1467 C1466 1.366 . S
C1467 C1468 1.414 . S
C1467 C1470 1.499 1_545 S
C1468 H1448 0.950 . S
C1468 C1467 1.414 . S
C1468 C1469 1.374 . S
C1469 H1449 0.950 . S
C1469 C1465 1.385 . S
C1469 C1468 1.374 . S
C1470 C1467 1.499 1_565 S
C1470 C1471 1.373 . S
C1470 C1472 1.389 . S
C1471 H1450 0.950 . S
C1471 C1470 1.373 . S
C1471 C1487 1.377 . S
C1472 C1470 1.389 . S
C1472 C1473 1.524 . S
C1472 C1486 1.377 . S
C1473 C1472 1.524 . S
C1473 C1474 1.397 . S
C1473 C1478 1.363 . S
C1474 H1451 0.950 . S
C1474 C1473 1.397 . S
C1474 C1475 1.334 1_565 S
C1475 H1452 0.947 . S
C1475 C1474 1.334 1_545 S
C1475 C1476 1.291 1_545 S
C1476 C1475 1.291 1_565 S
C1476 C1477 1.524 . S
C1476 H1495 0.913 . S
C1477 H1453 0.950 . S
C1477 C1476 1.524 . S
C1477 C1478 1.415 . S
C1478 H1454 0.950 . S
C1478 C1473 1.363 . S
C1478 C1477 1.415 . S
C1479 H1455 0.951 . S
C1479 C1480 1.366 . S
C1479 C1481 1.388 . S
C1480 C1479 1.366 . S
C1480 C1484 1.385 . S
C1481 H1456 0.951 . S
C1481 C1479 1.388 . S
C1481 C1482 1.366 . S
C1482 C1481 1.366 . S
C1482 C1483 1.414 . S
C1482 C1485 1.499 . S
C1483 H1457 0.950 . S
C1483 C1482 1.414 . S
C1483 C1484 1.374 . S
C1484 H1458 0.950 . S
C1484 C1480 1.385 . S
C1484 C1483 1.374 . S
C1485 C1482 1.499 . S
C1485 C1486 1.373 . S
C1485 C1487 1.389 . S
C1486 H1459 0.950 . S
C1486 C1472 1.377 . S
C1486 C1485 1.373 . S
C1487 C1471 1.377 . S
C1487 C1485 1.389 . S
C1487 C1488 1.524 . S
C1488 C1487 1.524 . S
C1488 C1489 1.397 . S
C1488 C1493 1.363 . S
C1489 H1460 0.950 . S
C1489 C1488 1.397 . S
C1489 C1490 1.334 . S
C1490 H1461 0.950 . S
C1490 C1489 1.334 . S
C1490 C1491 1.287 . S
C1491 C1490 1.287 . S
C1491 C1492 1.524 . S
C1491 H1494 0.999 . S
C1492 H1462 0.950 . S
C1492 C1491 1.524 . S
C1492 C1493 1.415 . S
C1493 H1463 0.950 . S
C1493 C1488 1.363 . S
C1493 C1492 1.415 . S
H1494 C1491 0.999 . S
H1495 C1476 0.913 . S
H1496 C1514 0.951 . S
H1497 C1516 0.951 . S
H1498 C1518 0.950 . S
H1499 C1519 0.950 . S
H1500 C1521 0.950 . S
H1501 C1524 0.950 . S
H1502 C1525 0.950 . S
H1503 C1527 0.944 . S
H1504 C1528 0.950 . S
H1505 C1529 0.951 . S
H1506 C1531 0.951 . S
H1507 C1533 0.950 . S
H1508 C1534 0.950 . S
H1509 C1536 0.950 . S
H1510 C1539 0.950 . S
H1511 C1540 0.950 . S
H1512 C1542 0.950 . S
H1513 C1543 0.950 . S
C1514 H1496 0.951 . S
C1514 C1515 1.366 . S
C1514 C1516 1.388 . S
C1515 C1514 1.366 . S
C1515 C1519 1.385 . S
C1516 H1497 0.951 . S
C1516 C1514 1.388 . S
C1516 C1517 1.366 . S
C1517 C1516 1.366 . S
C1517 C1518 1.414 . S
C1517 C1520 1.499 1_655 S
C1518 H1498 0.950 . S
C1518 C1517 1.414 . S
C1518 C1519 1.374 . S
C1519 H1499 0.950 . S
C1519 C1515 1.385 . S
C1519 C1518 1.374 . S
C1520 C1517 1.499 1_455 S
C1520 C1521 1.373 . S
C1520 C1522 1.389 . S
C1521 H1500 0.950 . S
C1521 C1520 1.373 . S
C1521 C1537 1.377 . S
C1522 C1520 1.389 . S
C1522 C1523 1.524 . S
C1522 C1536 1.377 . S
C1523 C1522 1.524 . S
C1523 C1524 1.397 1_455 S
C1523 C1528 1.363 . S
C1524 H1501 0.950 . S
C1524 C1523 1.397 1_655 S
C1524 C1525 1.334 . S
C1525 H1502 0.950 . S
C1525 C1524 1.334 . S
C1525 C1526 1.287 . S
C1526 C1525 1.287 . S
C1526 C1527 1.524 . S
C1526 H1545 0.913 . S
C1527 H1503 0.944 . S
C1527 C1526 1.524 . S
C1527 C1528 1.415 1_655 S
C1528 H1504 0.950 . S
C1528 C1523 1.363 . S
C1528 C1527 1.415 1_455 S
C1529 H1505 0.951 . S
C1529 C1530 1.366 . S
C1529 C1531 1.388 . S
C1530 C1529 1.366 . S
C1530 C1534 1.385 . S
C1531 H1506 0.951 . S
C1531 C1529 1.388 . S
C1531 C1532 1.366 . S
C1532 C1531 1.366 . S
C1532 C1533 1.414 . S
C1532 C1535 1.499 . S
C1533 H1507 0.950 . S
C1533 C1532 1.414 . S
C1533 C1534 1.374 . S
C1534 H1508 0.950 . S
C1534 C1530 1.385 . S
C1534 C1533 1.374 . S
C1535 C1532 1.499 . S
C1535 C1536 1.373 . S
C1535 C1537 1.389 . S
C1536 H1509 0.950 . S
C1536 C1522 1.377 . S
C1536 C1535 1.373 . S
C1537 C1521 1.377 . S
C1537 C1535 1.389 . S
C1537 C1538 1.524 . S
C1538 C1537 1.524 . S
C1538 C1539 1.397 . S
C1538 C1543 1.363 . S
C1539 H1510 0.950 . S
C1539 C1538 1.397 . S
C1539 C1540 1.334 . S
C1540 H1511 0.950 . S
C1540 C1539 1.334 . S
C1540 C1541 1.287 . S
C1541 C1540 1.287 . S
C1541 C1542 1.524 . S
C1541 H1544 0.999 . S
C1542 H1512 0.950 . S
C1542 C1541 1.524 . S
C1542 C1543 1.415 . S
C1543 H1513 0.950 . S
C1543 C1538 1.363 . S
C1543 C1542 1.415 . S
H1544 C1541 0.999 . S
H1545 C1526 0.913 . S
H1546 C1564 0.951 . S
H1547 C1566 0.951 . S
H1548 C1568 0.950 . S
H1549 C1569 0.950 . S
H1550 C1571 0.950 . S
H1551 C1574 0.950 . S
H1552 C1575 0.950 . S
H1553 C1577 0.950 . S
H1554 C1578 0.950 . S
H1555 C1579 0.951 . S
H1556 C1581 0.951 . S
H1557 C1583 0.950 . S
H1558 C1584 0.950 . S
H1559 C1586 0.950 . S
H1560 C1589 0.950 . S
H1561 C1590 0.950 . S
H1562 C1592 0.950 . S
H1563 C1593 0.950 . S
C1564 H1546 0.951 . S
C1564 C1565 1.366 . S
C1564 C1566 1.388 . S
C1565 C1564 1.366 . S
C1565 C1569 1.385 . S
C1566 H1547 0.951 . S
C1566 C1564 1.388 . S
C1566 C1567 1.366 . S
C1567 C1566 1.366 . S
C1567 C1568 1.414 . S
C1567 C1570 1.499 . S
C1568 H1548 0.950 . S
C1568 C1567 1.414 . S
C1568 C1569 1.374 . S
C1569 H1549 0.950 . S
C1569 C1565 1.385 . S
C1569 C1568 1.374 . S
C1570 C1567 1.499 . S
C1570 C1571 1.373 . S
C1570 C1572 1.389 . S
C1571 H1550 0.950 . S
C1571 C1570 1.373 . S
C1571 C1587 1.377 . S
C1572 C1570 1.389 . S
C1572 C1573 1.524 . S
C1572 C1586 1.377 . S
C1573 C1572 1.524 . S
C1573 C1574 1.397 . S
C1573 C1578 1.363 . S
C1574 H1551 0.950 . S
C1574 C1573 1.397 . S
C1574 C1575 1.334 . S
C1575 H1552 0.950 . S
C1575 C1574 1.334 . S
C1575 C1576 1.287 . S
C1576 C1575 1.287 . S
C1576 C1577 1.524 . S
C1576 H1595 0.913 . S
C1577 H1553 0.950 . S
C1577 C1576 1.524 . S
C1577 C1578 1.415 . S
C1578 H1554 0.950 . S
C1578 C1573 1.363 . S
C1578 C1577 1.415 . S
C1579 H1555 0.951 . S
C1579 C1580 1.366 . S
C1579 C1581 1.388 . S
C1580 C1579 1.366 . S
C1580 C1584 1.385 . S
C1581 H1556 0.951 . S
C1581 C1579 1.388 . S
C1581 C1582 1.366 . S
C1582 C1581 1.366 . S
C1582 C1583 1.414 . S
C1582 C1585 1.499 . S
C1583 H1557 0.950 . S
C1583 C1582 1.414 . S
C1583 C1584 1.374 . S
C1584 H1558 0.950 . S
C1584 C1580 1.385 . S
C1584 C1583 1.374 . S
C1585 C1582 1.499 . S
C1585 C1586 1.373 . S
C1585 C1587 1.389 . S
C1586 H1559 0.950 . S
C1586 C1572 1.377 . S
C1586 C1585 1.373 . S
C1587 C1571 1.377 . S
C1587 C1585 1.389 . S
C1587 C1588 1.524 . S
C1588 C1587 1.524 . S
C1588 C1589 1.397 . S
C1588 C1593 1.363 . S
C1589 H1560 0.950 . S
C1589 C1588 1.397 . S
C1589 C1590 1.334 . S
C1590 H1561 0.950 . S
C1590 C1589 1.334 . S
C1590 C1591 1.287 . S
C1591 C1590 1.287 . S
C1591 C1592 1.524 . S
C1591 H1594 0.999 . S
C1592 H1562 0.950 . S
C1592 C1591 1.524 . S
C1592 C1593 1.415 . S
C1593 H1563 0.950 . S
C1593 C1588 1.363 . S
C1593 C1592 1.415 . S
H1594 C1591 0.999 . S
H1595 C1576 0.913 . S
H1596 C1614 0.951 . S
H1597 C1616 0.951 . S
H1598 C1618 0.950 . S
H1599 C1619 0.950 . S
H1600 C1621 0.950 . S
H1601 C1624 0.950 . S
H1602 C1625 0.950 . S
H1603 C1627 0.950 . S
H1604 C1628 0.950 . S
H1605 C1629 0.951 . S
H1606 C1631 0.951 . S
H1607 C1633 0.950 . S
H1608 C1634 0.950 . S
H1609 C1636 0.950 . S
H1610 C1639 0.950 . S
H1611 C1640 0.950 . S
H1612 C1642 0.950 . S
H1613 C1643 0.950 . S
C1614 H1596 0.951 . S
C1614 C1615 1.366 . S
C1614 C1616 1.388 . S
C1615 C1614 1.366 . S
C1615 C1619 1.385 . S
C1616 H1597 0.951 . S
C1616 C1614 1.388 . S
C1616 C1617 1.366 . S
C1617 C1616 1.366 . S
C1617 C1618 1.414 . S
C1617 C1620 1.499 . S
C1618 H1598 0.950 . S
C1618 C1617 1.414 . S
C1618 C1619 1.374 . S
C1619 H1599 0.950 . S
C1619 C1615 1.385 . S
C1619 C1618 1.374 . S
C1620 C1617 1.499 . S
C1620 C1621 1.373 . S
C1620 C1622 1.389 . S
C1621 H1600 0.950 . S
C1621 C1620 1.373 . S
C1621 C1637 1.377 . S
C1622 C1620 1.389 . S
C1622 C1623 1.524 . S
C1622 C1636 1.377 . S
C1623 C1622 1.524 . S
C1623 C1624 1.397 . S
C1623 C1628 1.363 . S
C1624 H1601 0.950 . S
C1624 C1623 1.397 . S
C1624 C1625 1.334 . S
C1625 H1602 0.950 . S
C1625 C1624 1.334 . S
C1625 C1626 1.287 . S
C1626 C1625 1.287 . S
C1626 C1627 1.524 . S
C1626 H1645 0.913 . S
C1627 H1603 0.950 . S
C1627 C1626 1.524 . S
C1627 C1628 1.415 . S
C1628 H1604 0.950 . S
C1628 C1623 1.363 . S
C1628 C1627 1.415 . S
C1629 H1605 0.951 . S
C1629 C1630 1.366 . S
C1629 C1631 1.388 . S
C1630 C1629 1.366 . S
C1630 C1634 1.385 . S
C1631 H1606 0.951 . S
C1631 C1629 1.388 . S
C1631 C1632 1.366 . S
C1632 C1631 1.366 . S
C1632 C1633 1.414 . S
C1632 C1635 1.499 . S
C1633 H1607 0.950 . S
C1633 C1632 1.414 . S
C1633 C1634 1.374 . S
C1634 H1608 0.950 . S
C1634 C1630 1.385 . S
C1634 C1633 1.374 . S
C1635 C1632 1.499 . S
C1635 C1636 1.373 . S
C1635 C1637 1.389 . S
C1636 H1609 0.950 . S
C1636 C1622 1.377 . S
C1636 C1635 1.373 . S
C1637 C1621 1.377 . S
C1637 C1635 1.389 . S
C1637 C1638 1.524 . S
C1638 C1637 1.524 . S
C1638 C1639 1.397 . S
C1638 C1643 1.363 . S
C1639 H1610 0.950 . S
C1639 C1638 1.397 . S
C1639 C1640 1.334 . S
C1640 H1611 0.950 . S
C1640 C1639 1.334 . S
C1640 C1641 1.287 . S
C1641 C1640 1.287 . S
C1641 C1642 1.524 . S
C1641 H1644 0.999 . S
C1642 H1612 0.950 . S
C1642 C1641 1.524 . S
C1642 C1643 1.415 . S
C1643 H1613 0.950 . S
C1643 C1638 1.363 . S
C1643 C1642 1.415 . S
H1644 C1641 0.999 . S
H1645 C1626 0.913 . S
H1646 C1664 0.951 . S
H1647 C1666 0.951 . S
H1648 C1668 0.950 . S
H1649 C1669 0.950 . S
H1650 C1671 0.950 . S
H1651 C1674 0.950 . S
H1652 C1675 0.950 . S
H1653 C1677 0.950 . S
H1654 C1678 0.950 . S
H1655 C1679 0.951 . S
H1656 C1681 0.951 . S
H1657 C1683 0.950 . S
H1658 C1684 0.950 . S
H1659 C1686 0.950 . S
H1660 C1689 0.950 . S
H1661 C1690 0.950 . S
H1662 C1692 0.950 . S
H1663 C1693 0.950 . S
C1664 H1646 0.951 . S
C1664 C1665 1.366 . S
C1664 C1666 1.388 . S
C1665 C1664 1.366 . S
C1665 C1669 1.385 . S
C1666 H1647 0.951 . S
C1666 C1664 1.388 . S
C1666 C1667 1.366 . S
C1667 C1666 1.366 . S
C1667 C1668 1.414 . S
C1667 C1670 1.499 . S
C1668 H1648 0.950 . S
C1668 C1667 1.414 . S
C1668 C1669 1.374 . S
C1669 H1649 0.950 . S
C1669 C1665 1.385 . S
C1669 C1668 1.374 . S
C1670 C1667 1.499 . S
C1670 C1671 1.373 . S
C1670 C1672 1.389 . S
C1671 H1650 0.950 . S
C1671 C1670 1.373 . S
C1671 C1687 1.377 . S
C1672 C1670 1.389 . S
C1672 C1673 1.524 . S
C1672 C1686 1.377 . S
C1673 C1672 1.524 . S
C1673 C1674 1.397 . S
C1673 C1678 1.363 . S
C1674 H1651 0.950 . S
C1674 C1673 1.397 . S
C1674 C1675 1.334 . S
C1675 H1652 0.950 . S
C1675 C1674 1.334 . S
C1675 C1676 1.287 . S
C1676 C1675 1.287 . S
C1676 C1677 1.524 . S
C1676 H1695 0.913 . S
C1677 H1653 0.950 . S
C1677 C1676 1.524 . S
C1677 C1678 1.415 . S
C1678 H1654 0.950 . S
C1678 C1673 1.363 . S
C1678 C1677 1.415 . S
C1679 H1655 0.951 . S
C1679 C1680 1.366 . S
C1679 C1681 1.388 . S
C1680 C1679 1.366 . S
C1680 C1684 1.385 . S
C1681 H1656 0.951 . S
C1681 C1679 1.388 . S
C1681 C1682 1.366 . S
C1682 C1681 1.366 . S
C1682 C1683 1.414 . S
C1682 C1685 1.499 . S
C1683 H1657 0.950 . S
C1683 C1682 1.414 . S
C1683 C1684 1.374 . S
C1684 H1658 0.950 . S
C1684 C1680 1.385 . S
C1684 C1683 1.374 . S
C1685 C1682 1.499 . S
C1685 C1686 1.373 . S
C1685 C1687 1.389 . S
C1686 H1659 0.950 . S
C1686 C1672 1.377 . S
C1686 C1685 1.373 . S
C1687 C1671 1.377 . S
C1687 C1685 1.389 . S
C1687 C1688 1.524 . S
C1688 C1687 1.524 . S
C1688 C1689 1.397 . S
C1688 C1693 1.363 . S
C1689 H1660 0.950 . S
C1689 C1688 1.397 . S
C1689 C1690 1.334 . S
C1690 H1661 0.950 . S
C1690 C1689 1.334 . S
C1690 C1691 1.287 . S
C1691 C1690 1.287 . S
C1691 C1692 1.524 . S
C1691 H1694 0.999 . S
C1692 H1662 0.950 . S
C1692 C1691 1.524 . S
C1692 C1693 1.415 . S
C1693 H1663 0.950 . S
C1693 C1688 1.363 . S
C1693 C1692 1.415 . S
H1694 C1691 0.999 . S
H1695 C1676 0.913 . S
H1696 C1714 0.951 . S
H1697 C1716 0.951 . S
H1698 C1718 0.950 . S
H1699 C1719 0.950 . S
H1700 C1721 0.950 . S
H1701 C1724 0.950 . S
H1702 C1725 0.950 . S
H1703 C1727 0.950 . S
H1704 C1728 0.950 . S
H1705 C1729 0.951 . S
H1706 C1731 0.951 . S
H1707 C1733 0.950 . S
H1708 C1734 0.950 . S
H1709 C1736 0.950 . S
H1710 C1739 0.950 . S
H1711 C1740 0.950 . S
H1712 C1742 0.950 . S
H1713 C1743 0.950 . S
C1714 H1696 0.951 . S
C1714 C1715 1.366 . S
C1714 C1716 1.388 . S
C1715 C1714 1.366 . S
C1715 C1719 1.385 . S
C1716 H1697 0.951 . S
C1716 C1714 1.388 . S
C1716 C1717 1.366 . S
C1717 C1716 1.366 . S
C1717 C1718 1.414 . S
C1717 C1720 1.499 . S
C1718 H1698 0.950 . S
C1718 C1717 1.414 . S
C1718 C1719 1.374 . S
C1719 H1699 0.950 . S
C1719 C1715 1.385 . S
C1719 C1718 1.374 . S
C1720 C1717 1.499 . S
C1720 C1721 1.373 . S
C1720 C1722 1.389 . S
C1721 H1700 0.950 . S
C1721 C1720 1.373 . S
C1721 C1737 1.377 . S
C1722 C1720 1.389 . S
C1722 C1723 1.524 . S
C1722 C1736 1.377 . S
C1723 C1722 1.524 . S
C1723 C1724 1.397 . S
C1723 C1728 1.363 . S
C1724 H1701 0.950 . S
C1724 C1723 1.397 . S
C1724 C1725 1.334 . S
C1725 H1702 0.950 . S
C1725 C1724 1.334 . S
C1725 C1726 1.287 . S
C1726 C1725 1.287 . S
C1726 C1727 1.524 . S
C1726 H1745 0.913 . S
C1727 H1703 0.950 . S
C1727 C1726 1.524 . S
C1727 C1728 1.415 . S
C1728 H1704 0.950 . S
C1728 C1723 1.363 . S
C1728 C1727 1.415 . S
C1729 H1705 0.951 . S
C1729 C1730 1.366 . S
C1729 C1731 1.388 . S
C1730 C1729 1.366 . S
C1730 C1734 1.385 . S
C1731 H1706 0.951 . S
C1731 C1729 1.388 . S
C1731 C1732 1.366 . S
C1732 C1731 1.366 . S
C1732 C1733 1.414 . S
C1732 C1735 1.499 . S
C1733 H1707 0.950 . S
C1733 C1732 1.414 . S
C1733 C1734 1.374 . S
C1734 H1708 0.950 . S
C1734 C1730 1.385 . S
C1734 C1733 1.374 . S
C1735 C1732 1.499 . S
C1735 C1736 1.373 . S
C1735 C1737 1.389 . S
C1736 H1709 0.950 . S
C1736 C1722 1.377 . S
C1736 C1735 1.373 . S
C1737 C1721 1.377 . S
C1737 C1735 1.389 . S
C1737 C1738 1.524 . S
C1738 C1737 1.524 . S
C1738 C1739 1.397 . S
C1738 C1743 1.363 . S
C1739 H1710 0.950 . S
C1739 C1738 1.397 . S
C1739 C1740 1.334 . S
C1740 H1711 0.950 . S
C1740 C1739 1.334 . S
C1740 C1741 1.287 . S
C1741 C1740 1.287 . S
C1741 C1742 1.524 . S
C1741 H1744 0.999 . S
C1742 H1712 0.950 . S
C1742 C1741 1.524 . S
C1742 C1743 1.415 . S
C1743 H1713 0.950 . S
C1743 C1738 1.363 . S
C1743 C1742 1.415 . S
H1744 C1741 0.999 . S
H1745 C1726 0.913 . S
H1746 C1764 0.951 . S
H1747 C1766 0.951 . S
H1748 C1768 0.950 . S
H1749 C1769 0.950 . S
H1750 C1771 0.934 . S
H1751 C1774 0.950 . S
H1752 C1775 0.950 . S
H1753 C1777 0.950 . S
H1754 C1778 0.950 . S
H1755 C1779 0.951 . S
H1756 C1781 0.951 . S
H1757 C1783 0.950 . S
H1758 C1784 0.950 . S
H1759 C1786 0.950 . S
H1760 C1789 0.950 . S
H1761 C1790 0.950 . S
H1762 C1792 0.950 . S
H1763 C1793 0.950 . S
C1764 H1746 0.951 . S
C1764 C1765 1.366 . S
C1764 C1766 1.388 . S
C1765 C1764 1.366 . S
C1765 C1769 1.385 . S
C1766 H1747 0.951 . S
C1766 C1764 1.388 . S
C1766 C1767 1.366 . S
C1767 C1766 1.366 . S
C1767 C1768 1.414 . S
C1767 C1770 1.499 . S
C1768 H1748 0.950 . S
C1768 C1767 1.414 . S
C1768 C1769 1.374 . S
C1769 H1749 0.950 . S
C1769 C1765 1.385 . S
C1769 C1768 1.374 . S
C1770 C1767 1.499 . S
C1770 C1771 1.424 . S
C1770 C1772 1.389 . S
C1771 H1750 0.934 . S
C1771 C1770 1.424 . S
C1771 C1787 1.344 1_565 S
C1772 C1770 1.389 . S
C1772 C1773 1.524 . S
C1772 C1786 1.377 1_565 S
C1773 C1772 1.524 . S
C1773 C1774 1.397 . S
C1773 C1778 1.363 . S
C1774 H1751 0.950 . S
C1774 C1773 1.397 . S
C1774 C1775 1.334 . S
C1775 H1752 0.950 . S
C1775 C1774 1.334 . S
C1775 C1776 1.287 . S
C1776 C1775 1.287 . S
C1776 C1777 1.524 . S
C1776 H1795 0.913 . S
C1777 H1753 0.950 . S
C1777 C1776 1.524 . S
C1777 C1778 1.415 . S
C1778 H1754 0.950 . S
C1778 C1773 1.363 . S
C1778 C1777 1.415 . S
C1779 H1755 0.951 . S
C1779 C1780 1.366 . S
C1779 C1781 1.388 . S
C1780 C1779 1.366 . S
C1780 C1784 1.385 . S
C1781 H1756 0.951 . S
C1781 C1779 1.388 . S
C1781 C1782 1.366 . S
C1782 C1781 1.366 . S
C1782 C1783 1.414 . S
C1782 C1785 1.499 . S
C1783 H1757 0.950 . S
C1783 C1782 1.414 . S
C1783 C1784 1.374 . S
C1784 H1758 0.950 . S
C1784 C1780 1.385 . S
C1784 C1783 1.374 . S
C1785 C1782 1.499 . S
C1785 C1786 1.373 . S
C1785 C1787 1.389 . S
C1786 H1759 0.950 . S
C1786 C1772 1.377 1_545 S
C1786 C1785 1.373 . S
C1787 C1771 1.344 1_545 S
C1787 C1785 1.389 . S
C1787 C1788 1.524 . S
C1788 C1787 1.524 . S
C1788 C1789 1.397 . S
C1788 C1793 1.363 . S
C1789 H1760 0.950 . S
C1789 C1788 1.397 . S
C1789 C1790 1.334 . S
C1790 H1761 0.950 . S
C1790 C1789 1.334 . S
C1790 C1791 1.287 . S
C1791 C1790 1.287 . S
C1791 C1792 1.524 . S
C1791 H1794 0.999 . S
C1792 H1762 0.950 . S
C1792 C1791 1.524 . S
C1792 C1793 1.415 . S
C1793 H1763 0.950 . S
C1793 C1788 1.363 . S
C1793 C1792 1.415 . S
H1794 C1791 0.999 . S
H1795 C1776 0.913 . S
H1796 C1814 0.951 . S
H1797 C1816 0.951 . S
H1798 C1818 0.950 . S
H1799 C1819 0.950 . S
H1800 C1821 0.950 . S
H1801 C1824 0.950 . S
H1802 C1825 0.950 . S
H1803 C1827 0.950 . S
H1804 C1828 0.950 . S
H1805 C1829 0.951 . S
H1806 C1831 0.951 . S
H1807 C1833 0.950 . S
H1808 C1834 0.950 . S
H1809 C1836 0.950 . S
H1810 C1839 0.950 . S
H1811 C1840 0.933 1_655 S
H1812 C1842 0.950 . S
H1813 C1843 0.950 . S
C1814 H1796 0.951 . S
C1814 C1815 1.366 . S
C1814 C1816 1.388 . S
C1815 C1814 1.366 . S
C1815 C1819 1.385 . S
C1816 H1797 0.951 . S
C1816 C1814 1.388 . S
C1816 C1817 1.366 . S
C1817 C1816 1.366 . S
C1817 C1818 1.414 . S
C1817 C1820 1.499 . S
C1818 H1798 0.950 . S
C1818 C1817 1.414 . S
C1818 C1819 1.374 . S
C1819 H1799 0.950 . S
C1819 C1815 1.385 . S
C1819 C1818 1.374 . S
C1820 C1817 1.499 . S
C1820 C1821 1.373 . S
C1820 C1822 1.389 . S
C1821 H1800 0.950 . S
C1821 C1820 1.373 . S
C1821 C1837 1.377 . S
C1822 C1820 1.389 . S
C1822 C1823 1.524 . S
C1822 C1836 1.377 1_455 S
C1823 C1822 1.524 . S
C1823 C1824 1.397 . S
C1823 C1828 1.363 1_455 S
C1824 H1801 0.950 . S
C1824 C1823 1.397 . S
C1824 C1825 1.334 . S
C1825 H1802 0.950 . S
C1825 C1824 1.334 . S
C1825 C1826 1.287 1_455 S
C1826 C1825 1.287 1_655 S
C1826 C1827 1.524 . S
C1826 H1845 0.913 . S
C1827 H1803 0.950 . S
C1827 C1826 1.524 . S
C1827 C1828 1.415 . S
C1828 H1804 0.950 . S
C1828 C1823 1.363 1_655 S
C1828 C1827 1.415 . S
C1829 H1805 0.951 . S
C1829 C1830 1.366 . S
C1829 C1831 1.388 . S
C1830 C1829 1.366 . S
C1830 C1834 1.385 . S
C1831 H1806 0.951 . S
C1831 C1829 1.388 . S
C1831 C1832 1.366 . S
C1832 C1831 1.366 . S
C1832 C1833 1.414 . S
C1832 C1835 1.499 . S
C1833 H1807 0.950 . S
C1833 C1832 1.414 . S
C1833 C1834 1.374 . S
C1834 H1808 0.950 . S
C1834 C1830 1.385 . S
C1834 C1833 1.374 . S
C1835 C1832 1.499 . S
C1835 C1836 1.373 . S
C1835 C1837 1.389 1_655 S
C1836 H1809 0.950 . S
C1836 C1822 1.377 1_655 S
C1836 C1835 1.373 . S
C1837 C1821 1.377 . S
C1837 C1835 1.389 1_455 S
C1837 C1838 1.524 . S
C1838 C1837 1.524 . S
C1838 C1839 1.397 1_455 S
C1838 C1843 1.363 . S
C1839 H1810 0.950 . S
C1839 C1838 1.397 1_655 S
C1839 C1840 1.347 1_655 S
C1840 H1811 0.933 1_455 S
C1840 C1839 1.347 1_455 S
C1840 C1841 1.296 . S
C1841 C1840 1.296 . S
C1841 C1842 1.524 . S
C1841 H1844 0.999 . S
C1842 H1812 0.950 . S
C1842 C1841 1.524 . S
C1842 C1843 1.415 . S
C1843 H1813 0.950 . S
C1843 C1838 1.363 . S
C1843 C1842 1.415 . S
H1844 C1841 0.999 . S
H1845 C1826 0.913 . S
H1846 C1864 0.951 . S
H1847 C1866 0.951 . S
H1848 C1868 0.950 . S
H1849 C1869 0.950 . S
H1850 C1871 0.950 . S
H1851 C1874 0.950 . S
H1852 C1875 0.950 . S
H1853 C1877 0.950 . S
H1854 C1878 0.950 . S
H1855 C1879 0.951 . S
H1856 C1881 0.951 . S
H1857 C1883 0.950 . S
H1858 C1884 0.950 . S
H1859 C1886 0.950 . S
H1860 C1889 0.950 . S
H1861 C1890 0.950 . S
H1862 C1892 0.950 . S
H1863 C1893 0.950 . S
C1864 H1846 0.951 . S
C1864 C1865 1.366 . S
C1864 C1866 1.388 . S
C1865 C1864 1.366 . S
C1865 C1869 1.385 . S
C1866 H1847 0.951 . S
C1866 C1864 1.388 . S
C1866 C1867 1.366 . S
C1867 C1866 1.366 . S
C1867 C1868 1.414 . S
C1867 C1870 1.499 . S
C1868 H1848 0.950 . S
C1868 C1867 1.414 . S
C1868 C1869 1.374 . S
C1869 H1849 0.950 . S
C1869 C1865 1.385 . S
C1869 C1868 1.374 . S
C1870 C1867 1.499 . S
C1870 C1871 1.373 . S
C1870 C1872 1.389 . S
C1871 H1850 0.950 . S
C1871 C1870 1.373 . S
C1871 C1887 1.377 . S
C1872 C1870 1.389 . S
C1872 C1873 1.524 . S
C1872 C1886 1.377 . S
C1873 C1872 1.524 . S
C1873 C1874 1.397 . S
C1873 C1878 1.363 . S
C1874 H1851 0.950 . S
C1874 C1873 1.397 . S
C1874 C1875 1.334 . S
C1875 H1852 0.950 . S
C1875 C1874 1.334 . S
C1875 C1876 1.287 . S
C1876 C1875 1.287 . S
C1876 C1877 1.524 . S
C1876 H1895 0.913 . S
C1877 H1853 0.950 . S
C1877 C1876 1.524 . S
C1877 C1878 1.415 . S
C1878 H1854 0.950 . S
C1878 C1873 1.363 . S
C1878 C1877 1.415 . S
C1879 H1855 0.951 . S
C1879 C1880 1.366 . S
C1879 C1881 1.388 . S
C1880 C1879 1.366 . S
C1880 C1884 1.385 . S
C1881 H1856 0.951 . S
C1881 C1879 1.388 . S
C1881 C1882 1.366 . S
C1882 C1881 1.366 . S
C1882 C1883 1.414 . S
C1882 C1885 1.499 . S
C1883 H1857 0.950 . S
C1883 C1882 1.414 . S
C1883 C1884 1.374 . S
C1884 H1858 0.950 . S
C1884 C1880 1.385 . S
C1884 C1883 1.374 . S
C1885 C1882 1.499 . S
C1885 C1886 1.373 . S
C1885 C1887 1.389 . S
C1886 H1859 0.950 . S
C1886 C1872 1.377 . S
C1886 C1885 1.373 . S
C1887 C1871 1.377 . S
C1887 C1885 1.389 . S
C1887 C1888 1.524 . S
C1888 C1887 1.524 . S
C1888 C1889 1.397 . S
C1888 C1893 1.363 . S
C1889 H1860 0.950 . S
C1889 C1888 1.397 . S
C1889 C1890 1.334 . S
C1890 H1861 0.950 . S
C1890 C1889 1.334 . S
C1890 C1891 1.287 . S
C1891 C1890 1.287 . S
C1891 C1892 1.524 . S
C1891 H1894 0.999 . S
C1892 H1862 0.950 . S
C1892 C1891 1.524 . S
C1892 C1893 1.415 . S
C1893 H1863 0.950 . S
C1893 C1888 1.363 . S
C1893 C1892 1.415 . S
H1894 C1891 0.999 . S
H1895 C1876 0.913 . S
H1896 C1914 0.951 . S
H1897 C1916 0.951 . S
H1898 C1918 0.950 . S
H1899 C1919 0.950 . S
H1900 C1921 0.950 . S
H1901 C1924 0.950 . S
H1902 C1925 0.950 . S
H1903 C1927 0.950 . S
H1904 C1928 0.950 . S
H1905 C1929 0.951 . S
H1906 C1931 0.951 . S
H1907 C1933 0.950 . S
H1908 C1934 0.950 . S
H1909 C1936 0.950 . S
H1910 C1939 0.950 . S
H1911 C1940 0.950 . S
H1912 C1942 0.950 . S
H1913 C1943 0.950 . S
C1914 H1896 0.951 . S
C1914 C1915 1.366 . S
C1914 C1916 1.388 . S
C1915 C1914 1.366 . S
C1915 C1919 1.385 . S
C1916 H1897 0.951 . S
C1916 C1914 1.388 . S
C1916 C1917 1.366 . S
C1917 C1916 1.366 . S
C1917 C1918 1.414 . S
C1917 C1920 1.499 1_455 S
C1918 H1898 0.950 . S
C1918 C1917 1.414 . S
C1918 C1919 1.374 . S
C1919 H1899 0.950 . S
C1919 C1915 1.385 . S
C1919 C1918 1.374 . S
C1920 C1917 1.499 1_655 S
C1920 C1921 1.373 . S
C1920 C1922 1.389 . S
C1921 H1900 0.950 . S
C1921 C1920 1.373 . S
C1921 C1937 1.377 . S
C1922 C1920 1.389 . S
C1922 C1923 1.524 . S
C1922 C1936 1.377 . S
C1923 C1922 1.524 . S
C1923 C1924 1.397 1_655 S
C1923 C1928 1.363 . S
C1924 H1901 0.950 . S
C1924 C1923 1.397 1_455 S
C1924 C1925 1.334 . S
C1925 H1902 0.950 . S
C1925 C1924 1.334 . S
C1925 C1926 1.287 . S
C1926 C1925 1.287 . S
C1926 C1927 1.524 1_455 S
C1926 H1945 0.913 . S
C1927 H1903 0.950 . S
C1927 C1926 1.524 1_655 S
C1927 C1928 1.415 . S
C1928 H1904 0.950 . S
C1928 C1923 1.363 . S
C1928 C1927 1.415 . S
C1929 H1905 0.951 . S
C1929 C1930 1.366 . S
C1929 C1931 1.388 . S
C1930 C1929 1.366 . S
C1930 C1934 1.385 . S
C1931 H1906 0.951 . S
C1931 C1929 1.388 . S
C1931 C1932 1.366 . S
C1932 C1931 1.366 . S
C1932 C1933 1.414 . S
C1932 C1935 1.499 . S
C1933 H1907 0.950 . S
C1933 C1932 1.414 . S
C1933 C1934 1.374 . S
C1934 H1908 0.950 . S
C1934 C1930 1.385 . S
C1934 C1933 1.374 . S
C1935 C1932 1.499 . S
C1935 C1936 1.373 . S
C1935 C1937 1.389 . S
C1936 H1909 0.950 . S
C1936 C1922 1.377 . S
C1936 C1935 1.373 . S
C1937 C1921 1.377 . S
C1937 C1935 1.389 . S
C1937 C1938 1.524 . S
C1938 C1937 1.524 . S
C1938 C1939 1.397 . S
C1938 C1943 1.363 . S
C1939 H1910 0.950 . S
C1939 C1938 1.397 . S
C1939 C1940 1.334 . S
C1940 H1911 0.950 . S
C1940 C1939 1.334 . S
C1940 C1941 1.287 . S
C1941 C1940 1.287 . S
C1941 C1942 1.524 . S
C1941 H1944 0.999 . S
C1942 H1912 0.950 . S
C1942 C1941 1.524 . S
C1942 C1943 1.415 . S
C1943 H1913 0.950 . S
C1943 C1938 1.363 . S
C1943 C1942 1.415 . S
H1944 C1941 0.999 . S
H1945 C1926 0.913 . S
H1946 C1964 0.951 . S
H1947 C1966 0.951 . S
H1948 C1968 0.950 . S
H1949 C1969 0.950 . S
H1950 C1971 0.950 . S
H1951 C1974 0.950 . S
H1952 C1975 0.950 . S
H1953 C1977 0.950 . S
H1954 C1978 0.950 . S
H1955 C1979 0.951 . S
H1956 C1981 0.951 . S
H1957 C1983 0.950 . S
H1958 C1984 0.950 . S
H1959 C1986 0.950 . S
H1960 C1989 0.950 . S
H1961 C1990 0.950 . S
H1962 C1992 0.950 . S
H1963 C1993 0.950 . S
C1964 H1946 0.951 . S
C1964 C1965 1.366 . S
C1964 C1966 1.388 . S
C1965 C1964 1.366 . S
C1965 C1969 1.385 . S
C1966 H1947 0.951 . S
C1966 C1964 1.388 . S
C1966 C1967 1.366 . S
C1967 C1966 1.366 . S
C1967 C1968 1.414 . S
C1967 C1970 1.499 . S
C1968 H1948 0.950 . S
C1968 C1967 1.414 . S
C1968 C1969 1.374 . S
C1969 H1949 0.950 . S
C1969 C1965 1.385 . S
C1969 C1968 1.374 . S
C1970 C1967 1.499 . S
C1970 C1971 1.373 . S
C1970 C1972 1.389 . S
C1971 H1950 0.950 . S
C1971 C1970 1.373 . S
C1971 C1987 1.377 . S
C1972 C1970 1.389 . S
C1972 C1973 1.524 . S
C1972 C1986 1.377 . S
C1973 C1972 1.524 . S
C1973 C1974 1.397 . S
C1973 C1978 1.363 . S
C1974 H1951 0.950 . S
C1974 C1973 1.397 . S
C1974 C1975 1.334 . S
C1975 H1952 0.950 . S
C1975 C1974 1.334 . S
C1975 C1976 1.287 . S
C1976 C1975 1.287 . S
C1976 C1977 1.524 . S
C1976 H1995 0.913 . S
C1977 H1953 0.950 . S
C1977 C1976 1.524 . S
C1977 C1978 1.415 . S
C1978 H1954 0.950 . S
C1978 C1973 1.363 . S
C1978 C1977 1.415 . S
C1979 H1955 0.951 . S
C1979 C1980 1.366 . S
C1979 C1981 1.388 . S
C1980 C1979 1.366 . S
C1980 C1984 1.385 . S
C1981 H1956 0.951 . S
C1981 C1979 1.388 . S
C1981 C1982 1.366 . S
C1982 C1981 1.366 . S
C1982 C1983 1.414 . S
C1982 C1985 1.499 . S
C1983 H1957 0.950 . S
C1983 C1982 1.414 . S
C1983 C1984 1.374 . S
C1984 H1958 0.950 . S
C1984 C1980 1.385 . S
C1984 C1983 1.374 . S
C1985 C1982 1.499 . S
C1985 C1986 1.373 . S
C1985 C1987 1.389 . S
C1986 H1959 0.950 . S
C1986 C1972 1.377 . S
C1986 C1985 1.373 . S
C1987 C1971 1.377 . S
C1987 C1985 1.389 . S
C1987 C1988 1.524 . S
C1988 C1987 1.524 . S
C1988 C1989 1.397 . S
C1988 C1993 1.363 . S
C1989 H1960 0.950 . S
C1989 C1988 1.397 . S
C1989 C1990 1.334 . S
C1990 H1961 0.950 . S
C1990 C1989 1.334 . S
C1990 C1991 1.287 . S
C1991 C1990 1.287 . S
C1991 C1992 1.524 . S
C1991 H1994 0.999 . S
C1992 H1962 0.950 . S
C1992 C1991 1.524 . S
C1992 C1993 1.415 . S
C1993 H1963 0.950 . S
C1993 C1988 1.363 . S
C1993 C1992 1.415 . S
H1994 C1991 0.999 . S
H1995 C1976 0.913 . S
H1996 C2014 0.951 . S
H1997 C2016 0.951 . S
H1998 C2018 0.950 . S
H1999 C2019 0.950 . S
H2000 C2021 0.950 . S
H2001 C2024 0.950 . S
H2002 C2025 0.950 . S
H2003 C2027 0.950 . S
H2004 C2028 0.950 . S
H2005 C2029 0.951 . S
H2006 C2031 0.951 . S
H2007 C2033 0.950 . S
H2008 C2034 0.950 . S
H2009 C2036 0.950 . S
H2010 C2039 0.950 . S
H2011 C2040 0.950 . S
H2012 C2042 0.950 . S
H2013 C2043 0.950 . S
C2014 H1996 0.951 . S
C2014 C2015 1.366 . S
C2014 C2016 1.388 . S
C2015 C2014 1.366 . S
C2015 C2019 1.385 . S
C2016 H1997 0.951 . S
C2016 C2014 1.388 . S
C2016 C2017 1.366 . S
C2017 C2016 1.366 . S
C2017 C2018 1.414 . S
C2017 C2020 1.499 1_565 S
C2018 H1998 0.950 . S
C2018 C2017 1.414 . S
C2018 C2019 1.374 . S
C2019 H1999 0.950 . S
C2019 C2015 1.385 . S
C2019 C2018 1.374 . S
C2020 C2017 1.499 1_545 S
C2020 C2021 1.373 . S
C2020 C2022 1.389 . S
C2021 H2000 0.950 . S
C2021 C2020 1.373 . S
C2021 C2037 1.377 . S
C2022 C2020 1.389 . S
C2022 C2023 1.524 . S
C2022 C2036 1.377 . S
C2023 C2022 1.524 . S
C2023 C2024 1.397 . S
C2023 C2028 1.363 . S
C2024 H2001 0.950 . S
C2024 C2023 1.397 . S
C2024 C2025 1.334 1_545 S
C2025 H2002 0.950 . S
C2025 C2024 1.334 1_565 S
C2025 C2026 1.294 . S
C2026 C2025 1.294 . S
C2026 C2027 1.516 1_565 S
C2026 H2045 0.915 . S
C2027 H2003 0.950 . S
C2027 C2026 1.516 1_545 S
C2027 C2028 1.415 . S
C2028 H2004 0.950 . S
C2028 C2023 1.363 . S
C2028 C2027 1.415 . S
C2029 H2005 0.951 . S
C2029 C2030 1.366 . S
C2029 C2031 1.388 . S
C2030 C2029 1.366 . S
C2030 C2034 1.385 . S
C2031 H2006 0.951 . S
C2031 C2029 1.388 . S
C2031 C2032 1.366 . S
C2032 C2031 1.366 . S
C2032 C2033 1.414 . S
C2032 C2035 1.499 . S
C2033 H2007 0.950 . S
C2033 C2032 1.414 . S
C2033 C2034 1.374 . S
C2034 H2008 0.950 . S
C2034 C2030 1.385 . S
C2034 C2033 1.374 . S
C2035 C2032 1.499 . S
C2035 C2036 1.373 . S
C2035 C2037 1.389 . S
C2036 H2009 0.950 . S
C2036 C2022 1.377 . S
C2036 C2035 1.373 . S
C2037 C2021 1.377 . S
C2037 C2035 1.389 . S
C2037 C2038 1.524 . S
C2038 C2037 1.524 . S
C2038 C2039 1.397 . S
C2038 C2043 1.363 . S
C2039 H2010 0.950 . S
C2039 C2038 1.397 . S
C2039 C2040 1.334 . S
C2040 H2011 0.950 . S
C2040 C2039 1.334 . S
C2040 C2041 1.287 . S
C2041 C2040 1.287 . S
C2041 C2042 1.524 . S
C2041 H2044 0.999 . S
C2042 H2012 0.950 . S
C2042 C2041 1.524 . S
C2042 C2043 1.415 . S
C2043 H2013 0.950 . S
C2043 C2038 1.363 . S
C2043 C2042 1.415 . S
H2044 C2041 0.999 . S
H2045 C2026 0.915 . S
H2046 C2064 0.951 . S
H2047 C2066 0.951 . S
H2048 C2068 0.950 . S
H2049 C2069 0.950 . S
H2050 C2071 0.950 . S
H2051 C2074 0.950 . S
H2052 C2075 0.950 . S
H2053 C2077 0.950 . S
H2054 C2078 0.950 . S
H2055 C2079 0.951 . S
H2056 C2081 0.951 . S
H2057 C2083 0.950 . S
H2058 C2084 0.950 . S
H2059 C2086 0.950 . S
H2060 C2089 0.950 . S
H2061 C2090 0.950 . S
H2062 C2092 0.950 . S
H2063 C2093 0.950 . S
C2064 H2046 0.951 . S
C2064 C2065 1.366 . S
C2064 C2066 1.388 . S
C2065 C2064 1.366 . S
C2065 C2069 1.385 . S
C2066 H2047 0.951 . S
C2066 C2064 1.388 . S
C2066 C2067 1.366 . S
C2067 C2066 1.366 . S
C2067 C2068 1.414 . S
C2067 C2070 1.499 . S
C2068 H2048 0.950 . S
C2068 C2067 1.414 . S
C2068 C2069 1.374 . S
C2069 H2049 0.950 . S
C2069 C2065 1.385 . S
C2069 C2068 1.374 . S
C2070 C2067 1.499 . S
C2070 C2071 1.373 . S
C2070 C2072 1.389 . S
C2071 H2050 0.950 . S
C2071 C2070 1.373 . S
C2071 C2087 1.377 . S
C2072 C2070 1.389 . S
C2072 C2073 1.524 . S
C2072 C2086 1.377 . S
C2073 C2072 1.524 . S
C2073 C2074 1.397 . S
C2073 C2078 1.363 . S
C2074 H2051 0.950 . S
C2074 C2073 1.397 . S
C2074 C2075 1.334 . S
C2075 H2052 0.950 . S
C2075 C2074 1.334 . S
C2075 C2076 1.287 . S
C2076 C2075 1.287 . S
C2076 C2077 1.524 . S
C2076 H2095 0.913 . S
C2077 H2053 0.950 . S
C2077 C2076 1.524 . S
C2077 C2078 1.415 . S
C2078 H2054 0.950 . S
C2078 C2073 1.363 . S
C2078 C2077 1.415 . S
C2079 H2055 0.951 . S
C2079 C2080 1.366 . S
C2079 C2081 1.388 . S
C2080 C2079 1.366 . S
C2080 C2084 1.385 . S
C2081 H2056 0.951 . S
C2081 C2079 1.388 . S
C2081 C2082 1.366 . S
C2082 C2081 1.366 . S
C2082 C2083 1.414 . S
C2082 C2085 1.499 . S
C2083 H2057 0.950 . S
C2083 C2082 1.414 . S
C2083 C2084 1.374 . S
C2084 H2058 0.950 . S
C2084 C2080 1.385 . S
C2084 C2083 1.374 . S
C2085 C2082 1.499 . S
C2085 C2086 1.373 . S
C2085 C2087 1.389 . S
C2086 H2059 0.950 . S
C2086 C2072 1.377 . S
C2086 C2085 1.373 . S
C2087 C2071 1.377 . S
C2087 C2085 1.389 . S
C2087 C2088 1.524 . S
C2088 C2087 1.524 . S
C2088 C2089 1.397 . S
C2088 C2093 1.363 . S
C2089 H2060 0.950 . S
C2089 C2088 1.397 . S
C2089 C2090 1.334 . S
C2090 H2061 0.950 . S
C2090 C2089 1.334 . S
C2090 C2091 1.287 . S
C2091 C2090 1.287 . S
C2091 C2092 1.524 . S
C2091 H2094 0.999 . S
C2092 H2062 0.950 . S
C2092 C2091 1.524 . S
C2092 C2093 1.415 . S
C2093 H2063 0.950 . S
C2093 C2088 1.363 . S
C2093 C2092 1.415 . S
H2094 C2091 0.999 . S
H2095 C2076 0.913 . S
H2096 C2114 0.951 . S
H2097 C2116 0.951 . S
H2098 C2118 0.950 . S
H2099 C2119 0.950 . S
H2100 C2121 0.950 . S
H2101 C2124 0.950 . S
H2102 C2125 0.950 . S
H2103 C2127 0.950 . S
H2104 C2128 0.950 . S
H2105 C2129 0.951 . S
H2106 C2131 0.951 . S
H2107 C2133 0.950 . S
H2108 C2134 0.950 . S
H2109 C2136 0.950 . S
H2110 C2139 0.950 . S
H2111 C2140 0.950 . S
H2112 C2142 0.950 . S
H2113 C2143 0.950 . S
C2114 H2096 0.951 . S
C2114 C2115 1.366 . S
C2114 C2116 1.388 . S
C2115 C2114 1.366 . S
C2115 C2119 1.385 . S
C2116 H2097 0.951 . S
C2116 C2114 1.388 . S
C2116 C2117 1.366 . S
C2117 C2116 1.366 . S
C2117 C2118 1.414 . S
C2117 C2120 1.499 . S
C2118 H2098 0.950 . S
C2118 C2117 1.414 . S
C2118 C2119 1.374 . S
C2119 H2099 0.950 . S
C2119 C2115 1.385 . S
C2119 C2118 1.374 . S
C2120 C2117 1.499 . S
C2120 C2121 1.373 . S
C2120 C2122 1.389 . S
C2121 H2100 0.950 . S
C2121 C2120 1.373 . S
C2121 C2137 1.377 . S
C2122 C2120 1.389 . S
C2122 C2123 1.524 . S
C2122 C2136 1.377 . S
C2123 C2122 1.524 . S
C2123 C2124 1.397 . S
C2123 C2128 1.363 . S
C2124 H2101 0.950 . S
C2124 C2123 1.397 . S
C2124 C2125 1.334 . S
C2125 H2102 0.950 . S
C2125 C2124 1.334 . S
C2125 C2126 1.287 . S
C2126 C2125 1.287 . S
C2126 C2127 1.524 . S
C2126 H2145 0.913 . S
C2127 H2103 0.950 . S
C2127 C2126 1.524 . S
C2127 C2128 1.415 . S
C2128 H2104 0.950 . S
C2128 C2123 1.363 . S
C2128 C2127 1.415 . S
C2129 H2105 0.951 . S
C2129 C2130 1.366 . S
C2129 C2131 1.388 . S
C2130 C2129 1.366 . S
C2130 C2134 1.385 . S
C2131 H2106 0.951 . S
C2131 C2129 1.388 . S
C2131 C2132 1.366 . S
C2132 C2131 1.366 . S
C2132 C2133 1.414 . S
C2132 C2135 1.499 . S
C2133 H2107 0.950 . S
C2133 C2132 1.414 . S
C2133 C2134 1.374 . S
C2134 H2108 0.950 . S
C2134 C2130 1.385 . S
C2134 C2133 1.374 . S
C2135 C2132 1.499 . S
C2135 C2136 1.373 . S
C2135 C2137 1.389 . S
C2136 H2109 0.950 . S
C2136 C2122 1.377 . S
C2136 C2135 1.373 . S
C2137 C2121 1.377 . S
C2137 C2135 1.389 . S
C2137 C2138 1.524 . S
C2138 C2137 1.524 . S
C2138 C2139 1.397 . S
C2138 C2143 1.363 . S
C2139 H2110 0.950 . S
C2139 C2138 1.397 . S
C2139 C2140 1.334 . S
C2140 H2111 0.950 . S
C2140 C2139 1.334 . S
C2140 C2141 1.287 . S
C2141 C2140 1.287 . S
C2141 C2142 1.524 . S
C2141 H2144 0.999 . S
C2142 H2112 0.950 . S
C2142 C2141 1.524 . S
C2142 C2143 1.415 . S
C2143 H2113 0.950 . S
C2143 C2138 1.363 . S
C2143 C2142 1.415 . S
H2144 C2141 0.999 . S
H2145 C2126 0.913 . S
H2146 C2164 0.951 . S
H2147 C2166 0.951 . S
H2148 C2168 0.950 . S
H2149 C2169 0.950 . S
H2150 C2171 0.950 . S
H2151 C2174 0.950 . S
H2152 C2175 0.950 . S
H2153 C2177 0.950 . S
H2154 C2178 0.950 . S
H2155 C2179 0.951 . S
H2156 C2181 0.951 . S
H2157 C2183 0.950 . S
H2158 C2184 0.950 . S
H2159 C2186 0.950 . S
H2160 C2189 0.950 . S
H2161 C2190 0.950 . S
H2162 C2192 0.950 . S
H2163 C2193 0.950 . S
C2164 H2146 0.951 . S
C2164 C2165 1.366 . S
C2164 C2166 1.388 . S
C2165 C2164 1.366 . S
C2165 C2169 1.385 . S
C2166 H2147 0.951 . S
C2166 C2164 1.388 . S
C2166 C2167 1.366 . S
C2167 C2166 1.366 . S
C2167 C2168 1.414 . S
C2167 C2170 1.499 . S
C2168 H2148 0.950 . S
C2168 C2167 1.414 . S
C2168 C2169 1.374 . S
C2169 H2149 0.950 . S
C2169 C2165 1.385 . S
C2169 C2168 1.374 . S
C2170 C2167 1.499 . S
C2170 C2171 1.373 . S
C2170 C2172 1.389 . S
C2171 H2150 0.950 . S
C2171 C2170 1.373 . S
C2171 C2187 1.377 . S
C2172 C2170 1.389 . S
C2172 C2173 1.524 . S
C2172 C2186 1.377 . S
C2173 C2172 1.524 . S
C2173 C2174 1.397 . S
C2173 C2178 1.363 . S
C2174 H2151 0.950 . S
C2174 C2173 1.397 . S
C2174 C2175 1.334 . S
C2175 H2152 0.950 . S
C2175 C2174 1.334 . S
C2175 C2176 1.287 . S
C2176 C2175 1.287 . S
C2176 C2177 1.524 . S
C2176 H2195 0.913 . S
C2177 H2153 0.950 . S
C2177 C2176 1.524 . S
C2177 C2178 1.415 . S
C2178 H2154 0.950 . S
C2178 C2173 1.363 . S
C2178 C2177 1.415 . S
C2179 H2155 0.951 . S
C2179 C2180 1.366 . S
C2179 C2181 1.388 . S
C2180 C2179 1.366 . S
C2180 C2184 1.385 . S
C2181 H2156 0.951 . S
C2181 C2179 1.388 . S
C2181 C2182 1.366 . S
C2182 C2181 1.366 . S
C2182 C2183 1.414 . S
C2182 C2185 1.499 . S
C2183 H2157 0.950 . S
C2183 C2182 1.414 . S
C2183 C2184 1.374 . S
C2184 H2158 0.950 . S
C2184 C2180 1.385 . S
C2184 C2183 1.374 . S
C2185 C2182 1.499 . S
C2185 C2186 1.373 . S
C2185 C2187 1.389 . S
C2186 H2159 0.950 . S
C2186 C2172 1.377 . S
C2186 C2185 1.373 . S
C2187 C2171 1.377 . S
C2187 C2185 1.389 . S
C2187 C2188 1.524 . S
C2188 C2187 1.524 . S
C2188 C2189 1.397 . S
C2188 C2193 1.363 . S
C2189 H2160 0.950 . S
C2189 C2188 1.397 . S
C2189 C2190 1.334 . S
C2190 H2161 0.950 . S
C2190 C2189 1.334 . S
C2190 C2191 1.287 . S
C2191 C2190 1.287 . S
C2191 C2192 1.524 . S
C2191 H2194 0.999 . S
C2192 H2162 0.950 . S
C2192 C2191 1.524 . S
C2192 C2193 1.415 . S
C2193 H2163 0.950 . S
C2193 C2188 1.363 . S
C2193 C2192 1.415 . S
H2194 C2191 0.999 . S
H2195 C2176 0.913 . S
H2196 C2214 0.951 . S
H2197 C2216 0.951 . S
H2198 C2218 0.950 . S
H2199 C2219 0.950 . S
H2200 C2221 0.950 . S
H2201 C2224 0.950 . S
H2202 C2225 0.950 . S
H2203 C2227 0.950 . S
H2204 C2228 0.950 . S
H2205 C2229 0.951 . S
H2206 C2231 0.951 . S
H2207 C2233 0.950 . S
H2208 C2234 0.974 . S
H2209 C2236 0.950 . S
H2210 C2239 0.950 1_545 S
H2211 C2240 0.950 . S
H2212 C2242 0.950 . S
H2213 C2243 0.950 . S
C2214 H2196 0.951 . S
C2214 C2215 1.366 . S
C2214 C2216 1.388 . S
C2215 C2214 1.366 . S
C2215 C2219 1.385 . S
C2216 H2197 0.951 . S
C2216 C2214 1.388 . S
C2216 C2217 1.366 . S
C2217 C2216 1.366 . S
C2217 C2218 1.414 . S
C2217 C2220 1.499 . S
C2218 H2198 0.950 . S
C2218 C2217 1.414 . S
C2218 C2219 1.374 . S
C2219 H2199 0.950 . S
C2219 C2215 1.385 . S
C2219 C2218 1.374 . S
C2220 C2217 1.499 . S
C2220 C2221 1.373 . S
C2220 C2222 1.389 . S
C2221 H2200 0.950 . S
C2221 C2220 1.373 . S
C2221 C2237 1.377 . S
C2222 C2220 1.389 . S
C2222 C2223 1.524 . S
C2222 C2236 1.377 . S
C2223 C2222 1.524 . S
C2223 C2224 1.397 . S
C2223 C2228 1.363 . S
C2224 H2201 0.950 . S
C2224 C2223 1.397 . S
C2224 C2225 1.334 . S
C2225 H2202 0.950 . S
C2225 C2224 1.334 . S
C2225 C2226 1.287 . S
C2226 C2225 1.287 . S
C2226 C2227 1.524 . S
C2226 H2245 0.913 . S
C2227 H2203 0.950 . S
C2227 C2226 1.524 . S
C2227 C2228 1.415 . S
C2228 H2204 0.950 . S
C2228 C2223 1.363 . S
C2228 C2227 1.415 . S
C2229 H2205 0.951 . S
C2229 C2230 1.366 . S
C2229 C2231 1.388 . S
C2230 C2229 1.366 . S
C2230 C2234 1.385 . S
C2231 H2206 0.951 . S
C2231 C2229 1.388 . S
C2231 C2232 1.366 . S
C2232 C2231 1.366 . S
C2232 C2233 1.414 . S
C2232 C2235 1.499 . S
C2233 H2207 0.950 . S
C2233 C2232 1.414 . S
C2233 C2234 1.374 . S
C2234 H2208 0.974 . S
C2234 C2230 1.385 . S
C2234 C2233 1.374 . S
C2235 C2232 1.499 . S
C2235 C2236 1.373 . S
C2235 C2237 1.389 . S
C2236 H2209 0.950 . S
C2236 C2222 1.377 . S
C2236 C2235 1.373 . S
C2237 C2221 1.377 . S
C2237 C2235 1.389 . S
C2237 C2238 1.524 . S
C2238 C2237 1.524 . S
C2238 C2239 1.397 . S
C2238 C2243 1.363 . S
C2239 H2210 0.950 1_565 S
C2239 C2238 1.397 . S
C2239 C2240 1.334 1_565 S
C2240 H2211 0.950 . S
C2240 C2239 1.334 1_545 S
C2240 C2241 1.287 . S
C2241 C2240 1.287 . S
C2241 C2242 1.524 1_545 S
C2241 H2244 0.999 . S
C2242 H2212 0.950 . S
C2242 C2241 1.524 1_565 S
C2242 C2243 1.415 . S
C2243 H2213 0.950 . S
C2243 C2238 1.363 . S
C2243 C2242 1.415 . S
H2244 C2241 0.999 . S
H2245 C2226 0.913 . S
H2246 C2264 0.951 . S
H2247 C2266 0.951 . S
H2248 C2268 0.950 . S
H2249 C2269 0.950 . S
H2250 C2271 0.950 . S
H2251 C2274 0.950 . S
H2252 C2275 0.950 . S
H2253 C2277 0.950 . S
H2254 C2278 0.950 . S
H2255 C2279 0.951 1_655 S
H2256 C2281 0.951 . S
H2257 C2283 0.950 . S
H2258 C2284 0.950 . S
H2259 C2286 0.950 . S
H2260 C2289 0.950 . S
H2261 C2290 0.950 . S
H2262 C2292 0.950 . S
H2263 C2293 0.949 1_655 S
C2264 H2246 0.951 . S
C2264 C2265 1.366 . S
C2264 C2266 1.388 . S
C2265 C2264 1.366 . S
C2265 C2269 1.385 . S
C2266 H2247 0.951 . S
C2266 C2264 1.388 . S
C2266 C2267 1.366 . S
C2267 C2266 1.366 . S
C2267 C2268 1.414 . S
C2267 C2270 1.499 . S
C2268 H2248 0.950 . S
C2268 C2267 1.414 . S
C2268 C2269 1.374 . S
C2269 H2249 0.950 . S
C2269 C2265 1.385 . S
C2269 C2268 1.374 . S
C2270 C2267 1.499 . S
C2270 C2271 1.373 . S
C2270 C2272 1.389 . S
C2271 H2250 0.950 . S
C2271 C2270 1.373 . S
C2271 C2287 1.377 . S
C2272 C2270 1.389 . S
C2272 C2273 1.524 . S
C2272 C2286 1.377 . S
C2273 C2272 1.524 . S
C2273 C2274 1.397 . S
C2273 C2278 1.363 . S
C2274 H2251 0.950 . S
C2274 C2273 1.397 . S
C2274 C2275 1.334 . S
C2275 H2252 0.950 . S
C2275 C2274 1.334 . S
C2275 C2276 1.287 . S
C2276 C2275 1.287 . S
C2276 C2277 1.524 . S
C2276 H2295 0.913 . S
C2277 H2253 0.950 . S
C2277 C2276 1.524 . S
C2277 C2278 1.415 . S
C2278 H2254 0.950 . S
C2278 C2273 1.363 . S
C2278 C2277 1.415 . S
C2279 H2255 0.951 1_455 S
C2279 C2280 1.366 . S
C2279 C2281 1.388 . S
C2280 C2279 1.366 . S
C2280 C2284 1.385 . S
C2281 H2256 0.951 . S
C2281 C2279 1.388 . S
C2281 C2282 1.366 . S
C2282 C2281 1.366 . S
C2282 C2283 1.414 . S
C2282 C2285 1.499 . S
C2283 H2257 0.950 . S
C2283 C2282 1.414 . S
C2283 C2284 1.374 . S
C2284 H2258 0.950 . S
C2284 C2280 1.385 . S
C2284 C2283 1.374 . S
C2285 C2282 1.499 . S
C2285 C2286 1.373 . S
C2285 C2287 1.389 . S
C2286 H2259 0.950 . S
C2286 C2272 1.377 . S
C2286 C2285 1.373 . S
C2287 C2271 1.377 . S
C2287 C2285 1.389 . S
C2287 C2288 1.524 . S
C2288 C2287 1.524 . S
C2288 C2289 1.397 . S
C2288 C2293 1.363 . S
C2289 H2260 0.950 . S
C2289 C2288 1.397 . S
C2289 C2290 1.334 . S
C2290 H2261 0.950 . S
C2290 C2289 1.334 . S
C2290 C2291 1.268 1_455 S
C2291 C2290 1.268 1_655 S
C2291 C2292 1.543 . S
C2291 H2294 1.003 . S
C2292 H2262 0.950 . S
C2292 C2291 1.543 . S
C2292 C2293 1.415 1_655 S
C2293 H2263 0.949 1_455 S
C2293 C2288 1.363 . S
C2293 C2292 1.415 1_455 S
H2294 C2291 1.003 . S
H2295 C2276 0.913 . S
H2296 C2314 0.951 . S
H2297 C2316 0.951 . S
H2298 C2318 0.950 . S
H2299 C2319 0.950 . S
H2300 C2321 0.950 . S
H2301 C2324 0.950 . S
H2302 C2325 0.950 . S
H2303 C2327 0.950 . S
H2304 C2328 0.950 . S
H2305 C2329 0.951 . S
H2306 C2331 0.951 . S
H2307 C2333 0.950 . S
H2308 C2334 0.950 . S
H2309 C2336 0.950 . S
H2310 C2339 0.950 . S
H2311 C2340 0.950 . S
H2312 C2342 0.950 . S
H2313 C2343 0.950 . S
C2314 H2296 0.951 . S
C2314 C2315 1.366 . S
C2314 C2316 1.388 . S
C2315 C2314 1.366 . S
C2315 C2319 1.385 . S
C2316 H2297 0.951 . S
C2316 C2314 1.388 . S
C2316 C2317 1.366 . S
C2317 C2316 1.366 . S
C2317 C2318 1.414 . S
C2317 C2320 1.499 . S
C2318 H2298 0.950 . S
C2318 C2317 1.414 . S
C2318 C2319 1.374 . S
C2319 H2299 0.950 . S
C2319 C2315 1.385 . S
C2319 C2318 1.374 . S
C2320 C2317 1.499 . S
C2320 C2321 1.373 . S
C2320 C2322 1.389 . S
C2321 H2300 0.950 . S
C2321 C2320 1.373 . S
C2321 C2337 1.377 . S
C2322 C2320 1.389 . S
C2322 C2323 1.524 . S
C2322 C2336 1.377 . S
C2323 C2322 1.524 . S
C2323 C2324 1.397 . S
C2323 C2328 1.363 . S
C2324 H2301 0.950 . S
C2324 C2323 1.397 . S
C2324 C2325 1.334 . S
C2325 H2302 0.950 . S
C2325 C2324 1.334 . S
C2325 C2326 1.287 . S
C2326 C2325 1.287 . S
C2326 C2327 1.524 . S
C2326 H2345 0.913 . S
C2327 H2303 0.950 . S
C2327 C2326 1.524 . S
C2327 C2328 1.415 . S
C2328 H2304 0.950 . S
C2328 C2323 1.363 . S
C2328 C2327 1.415 . S
C2329 H2305 0.951 . S
C2329 C2330 1.366 . S
C2329 C2331 1.388 . S
C2330 C2329 1.366 . S
C2330 C2334 1.385 . S
C2331 H2306 0.951 . S
C2331 C2329 1.388 . S
C2331 C2332 1.366 . S
C2332 C2331 1.366 . S
C2332 C2333 1.414 . S
C2332 C2335 1.499 . S
C2333 H2307 0.950 . S
C2333 C2332 1.414 . S
C2333 C2334 1.374 . S
C2334 H2308 0.950 . S
C2334 C2330 1.385 . S
C2334 C2333 1.374 . S
C2335 C2332 1.499 . S
C2335 C2336 1.373 . S
C2335 C2337 1.389 . S
C2336 H2309 0.950 . S
C2336 C2322 1.377 . S
C2336 C2335 1.373 . S
C2337 C2321 1.377 . S
C2337 C2335 1.389 . S
C2337 C2338 1.524 . S
C2338 C2337 1.524 . S
C2338 C2339 1.397 . S
C2338 C2343 1.363 . S
C2339 H2310 0.950 . S
C2339 C2338 1.397 . S
C2339 C2340 1.334 . S
C2340 H2311 0.950 . S
C2340 C2339 1.334 . S
C2340 C2341 1.287 . S
C2341 C2340 1.287 . S
C2341 C2342 1.524 . S
C2341 H2344 0.999 . S
C2342 H2312 0.950 . S
C2342 C2341 1.524 . S
C2342 C2343 1.415 . S
C2343 H2313 0.950 . S
C2343 C2338 1.363 . S
C2343 C2342 1.415 . S
H2344 C2341 0.999 . S
H2345 C2326 0.913 . S
H2346 C2364 0.951 . S
H2347 C2366 0.951 . S
H2348 C2368 0.950 . S
H2349 C2369 0.950 . S
H2350 C2371 0.950 . S
H2351 C2374 0.950 . S
H2352 C2375 0.950 . S
H2353 C2377 0.950 . S
H2354 C2378 0.950 . S
H2355 C2379 0.951 . S
H2356 C2381 0.951 . S
H2357 C2383 0.950 . S
H2358 C2384 0.950 . S
H2359 C2386 0.950 . S
H2360 C2389 0.950 . S
H2361 C2390 0.950 . S
H2362 C2392 0.950 . S
H2363 C2393 0.950 . S
C2364 H2346 0.951 . S
C2364 C2365 1.366 . S
C2364 C2366 1.388 . S
C2365 C2364 1.366 . S
C2365 C2369 1.385 . S
C2366 H2347 0.951 . S
C2366 C2364 1.388 . S
C2366 C2367 1.366 . S
C2367 C2366 1.366 . S
C2367 C2368 1.414 . S
C2367 C2370 1.499 . S
C2368 H2348 0.950 . S
C2368 C2367 1.414 . S
C2368 C2369 1.374 . S
C2369 H2349 0.950 . S
C2369 C2365 1.385 . S
C2369 C2368 1.374 . S
C2370 C2367 1.499 . S
C2370 C2371 1.373 . S
C2370 C2372 1.389 . S
C2371 H2350 0.950 . S
C2371 C2370 1.373 . S
C2371 C2387 1.377 . S
C2372 C2370 1.389 . S
C2372 C2373 1.524 . S
C2372 C2386 1.377 . S
C2373 C2372 1.524 . S
C2373 C2374 1.397 . S
C2373 C2378 1.363 . S
C2374 H2351 0.950 . S
C2374 C2373 1.397 . S
C2374 C2375 1.334 . S
C2375 H2352 0.950 . S
C2375 C2374 1.334 . S
C2375 C2376 1.287 . S
C2376 C2375 1.287 . S
C2376 C2377 1.524 . S
C2376 H2395 0.913 . S
C2377 H2353 0.950 . S
C2377 C2376 1.524 . S
C2377 C2378 1.415 . S
C2378 H2354 0.950 . S
C2378 C2373 1.363 . S
C2378 C2377 1.415 . S
C2379 H2355 0.951 . S
C2379 C2380 1.366 . S
C2379 C2381 1.388 . S
C2380 C2379 1.366 . S
C2380 C2384 1.385 . S
C2381 H2356 0.951 . S
C2381 C2379 1.388 . S
C2381 C2382 1.366 . S
C2382 C2381 1.366 . S
C2382 C2383 1.414 . S
C2382 C2385 1.499 . S
C2383 H2357 0.950 . S
C2383 C2382 1.414 . S
C2383 C2384 1.374 . S
C2384 H2358 0.950 . S
C2384 C2380 1.385 . S
C2384 C2383 1.374 . S
C2385 C2382 1.499 . S
C2385 C2386 1.373 . S
C2385 C2387 1.389 . S
C2386 H2359 0.950 . S
C2386 C2372 1.377 . S
C2386 C2385 1.373 . S
C2387 C2371 1.377 . S
C2387 C2385 1.389 . S
C2387 C2388 1.524 . S
C2388 C2387 1.524 . S
C2388 C2389 1.397 . S
C2388 C2393 1.363 . S
C2389 H2360 0.950 . S
C2389 C2388 1.397 . S
C2389 C2390 1.334 . S
C2390 H2361 0.950 . S
C2390 C2389 1.334 . S
C2390 C2391 1.287 . S
C2391 C2390 1.287 . S
C2391 C2392 1.524 . S
C2391 H2394 0.999 . S
C2392 H2362 0.950 . S
C2392 C2391 1.524 . S
C2392 C2393 1.415 . S
C2393 H2363 0.950 . S
C2393 C2388 1.363 . S
C2393 C2392 1.415 . S
H2394 C2391 0.999 . S
H2395 C2376 0.913 . S
H2396 C2414 0.951 . S
H2397 C2416 0.951 . S
H2398 C2418 0.950 . S
H2399 C2419 0.950 . S
H2400 C2421 0.950 . S
H2401 C2424 0.950 . S
H2402 C2425 0.950 . S
H2403 C2427 0.950 . S
H2404 C2428 0.950 . S
H2405 C2429 0.951 . S
H2406 C2431 0.951 . S
H2407 C2433 0.950 . S
H2408 C2434 0.950 . S
H2409 C2436 0.950 . S
H2410 C2439 0.950 . S
H2411 C2440 0.950 . S
H2412 C2442 0.950 . S
H2413 C2443 0.950 . S
C2414 H2396 0.951 . S
C2414 C2415 1.366 . S
C2414 C2416 1.388 . S
C2415 C2414 1.366 . S
C2415 C2419 1.385 . S
C2416 H2397 0.951 . S
C2416 C2414 1.388 . S
C2416 C2417 1.366 . S
C2417 C2416 1.366 . S
C2417 C2418 1.414 . S
C2417 C2420 1.499 . S
C2418 H2398 0.950 . S
C2418 C2417 1.414 . S
C2418 C2419 1.374 . S
C2419 H2399 0.950 . S
C2419 C2415 1.385 . S
C2419 C2418 1.374 . S
C2420 C2417 1.499 . S
C2420 C2421 1.373 . S
C2420 C2422 1.389 . S
C2421 H2400 0.950 . S
C2421 C2420 1.373 . S
C2421 C2437 1.377 . S
C2422 C2420 1.389 . S
C2422 C2423 1.524 . S
C2422 C2436 1.377 . S
C2423 C2422 1.524 . S
C2423 C2424 1.397 . S
C2423 C2428 1.363 . S
C2424 H2401 0.950 . S
C2424 C2423 1.397 . S
C2424 C2425 1.334 . S
C2425 H2402 0.950 . S
C2425 C2424 1.334 . S
C2425 C2426 1.287 . S
C2426 C2425 1.287 . S
C2426 C2427 1.524 . S
C2426 H2445 0.913 . S
C2427 H2403 0.950 . S
C2427 C2426 1.524 . S
C2427 C2428 1.415 . S
C2428 H2404 0.950 . S
C2428 C2423 1.363 . S
C2428 C2427 1.415 . S
C2429 H2405 0.951 . S
C2429 C2430 1.366 . S
C2429 C2431 1.388 . S
C2430 C2429 1.366 . S
C2430 C2434 1.385 . S
C2431 H2406 0.951 . S
C2431 C2429 1.388 . S
C2431 C2432 1.366 . S
C2432 C2431 1.366 . S
C2432 C2433 1.414 . S
C2432 C2435 1.499 . S
C2433 H2407 0.950 . S
C2433 C2432 1.414 . S
C2433 C2434 1.374 . S
C2434 H2408 0.950 . S
C2434 C2430 1.385 . S
C2434 C2433 1.374 . S
C2435 C2432 1.499 . S
C2435 C2436 1.373 . S
C2435 C2437 1.389 . S
C2436 H2409 0.950 . S
C2436 C2422 1.377 . S
C2436 C2435 1.373 . S
C2437 C2421 1.377 . S
C2437 C2435 1.389 . S
C2437 C2438 1.524 . S
C2438 C2437 1.524 . S
C2438 C2439 1.397 . S
C2438 C2443 1.363 . S
C2439 H2410 0.950 . S
C2439 C2438 1.397 . S
C2439 C2440 1.334 . S
C2440 H2411 0.950 . S
C2440 C2439 1.334 . S
C2440 C2441 1.287 . S
C2441 C2440 1.287 . S
C2441 C2442 1.524 . S
C2441 H2444 0.999 . S
C2442 H2412 0.950 . S
C2442 C2441 1.524 . S
C2442 C2443 1.415 . S
C2443 H2413 0.950 . S
C2443 C2438 1.363 . S
C2443 C2442 1.415 . S
H2444 C2441 0.999 . S
H2445 C2426 0.913 . S
H2446 C2464 0.951 . S
H2447 C2466 0.951 . S
H2448 C2468 0.950 . S
H2449 C2469 0.950 . S
H2450 C2471 0.950 . S
H2451 C2474 0.950 . S
H2452 C2475 0.950 . S
H2453 C2477 0.950 . S
H2454 C2478 0.950 . S
H2455 C2479 0.951 1_565 S
H2456 C2481 0.951 . S
H2457 C2483 0.950 . S
H2458 C2484 0.950 . S
H2459 C2486 0.950 . S
H2460 C2489 0.950 . S
H2461 C2490 0.950 . S
H2462 C2492 0.950 . S
H2463 C2493 0.951 1_565 S
C2464 H2446 0.951 . S
C2464 C2465 1.366 . S
C2464 C2466 1.388 . S
C2465 C2464 1.366 . S
C2465 C2469 1.385 . S
C2466 H2447 0.951 . S
C2466 C2464 1.388 . S
C2466 C2467 1.366 . S
C2467 C2466 1.366 . S
C2467 C2468 1.414 . S
C2467 C2470 1.499 . S
C2468 H2448 0.950 . S
C2468 C2467 1.414 . S
C2468 C2469 1.374 . S
C2469 H2449 0.950 . S
C2469 C2465 1.385 . S
C2469 C2468 1.374 . S
C2470 C2467 1.499 . S
C2470 C2471 1.373 . S
C2470 C2472 1.389 . S
C2471 H2450 0.950 . S
C2471 C2470 1.373 . S
C2471 C2487 1.377 . S
C2472 C2470 1.389 . S
C2472 C2473 1.524 . S
C2472 C2486 1.377 . S
C2473 C2472 1.524 . S
C2473 C2474 1.397 . S
C2473 C2478 1.363 . S
C2474 H2451 0.950 . S
C2474 C2473 1.397 . S
C2474 C2475 1.334 . S
C2475 H2452 0.950 . S
C2475 C2474 1.334 . S
C2475 C2476 1.287 . S
C2476 C2475 1.287 . S
C2476 C2477 1.524 . S
C2476 H2495 0.913 . S
C2477 H2453 0.950 . S
C2477 C2476 1.524 . S
C2477 C2478 1.415 . S
C2478 H2454 0.950 . S
C2478 C2473 1.363 . S
C2478 C2477 1.415 . S
C2479 H2455 0.951 1_545 S
C2479 C2480 1.366 . S
C2479 C2481 1.388 . S
C2480 C2479 1.366 . S
C2480 C2484 1.385 . S
C2481 H2456 0.951 . S
C2481 C2479 1.388 . S
C2481 C2482 1.366 . S
C2482 C2481 1.366 . S
C2482 C2483 1.414 . S
C2482 C2485 1.499 . S
C2483 H2457 0.950 . S
C2483 C2482 1.414 . S
C2483 C2484 1.374 . S
C2484 H2458 0.950 . S
C2484 C2480 1.385 . S
C2484 C2483 1.374 . S
C2485 C2482 1.499 . S
C2485 C2486 1.373 . S
C2485 C2487 1.389 . S
C2486 H2459 0.950 . S
C2486 C2472 1.377 . S
C2486 C2485 1.373 . S
C2487 C2471 1.377 . S
C2487 C2485 1.389 . S
C2487 C2488 1.524 . S
C2488 C2487 1.524 . S
C2488 C2489 1.397 . S
C2488 C2493 1.361 . S
C2489 H2460 0.950 . S
C2489 C2488 1.397 . S
C2489 C2490 1.334 . S
C2490 H2461 0.950 . S
C2490 C2489 1.334 . S
C2490 C2491 1.287 1_545 S
C2491 C2490 1.287 1_565 S
C2491 C2492 1.524 . S
C2491 H2494 0.999 . S
C2492 H2462 0.950 . S
C2492 C2491 1.524 . S
C2492 C2493 1.415 1_565 S
C2493 H2463 0.951 1_545 S
C2493 C2488 1.361 . S
C2493 C2492 1.415 1_545 S
H2494 C2491 0.999 . S
H2495 C2476 0.913 . S
H2496 C2514 0.951 . S
H2497 C2516 0.951 . S
H2498 C2518 0.950 . S
H2499 C2519 0.950 . S
H2500 C2521 0.950 . S
H2501 C2524 0.950 . S
H2502 C2525 0.950 . S
H2503 C2527 0.950 . S
H2504 C2528 0.950 . S
H2505 C2529 0.951 . S
H2506 C2531 0.951 . S
H2507 C2533 0.950 . S
H2508 C2534 0.950 . S
H2509 C2536 0.950 . S
H2510 C2539 0.950 . S
H2511 C2540 0.950 . S
H2512 C2542 0.950 . S
H2513 C2543 0.950 . S
C2514 H2496 0.951 . S
C2514 C2515 1.366 . S
C2514 C2516 1.388 . S
C2515 C2514 1.366 . S
C2515 C2519 1.385 . S
C2516 H2497 0.951 . S
C2516 C2514 1.388 . S
C2516 C2517 1.366 . S
C2517 C2516 1.366 . S
C2517 C2518 1.414 . S
C2517 C2520 1.499 . S
C2518 H2498 0.950 . S
C2518 C2517 1.414 . S
C2518 C2519 1.374 . S
C2519 H2499 0.950 . S
C2519 C2515 1.385 . S
C2519 C2518 1.374 . S
C2520 C2517 1.499 . S
C2520 C2521 1.373 . S
C2520 C2522 1.389 . S
C2521 H2500 0.950 . S
C2521 C2520 1.373 . S
C2521 C2537 1.377 . S
C2522 C2520 1.389 . S
C2522 C2523 1.524 . S
C2522 C2536 1.377 . S
C2523 C2522 1.524 . S
C2523 C2524 1.397 . S
C2523 C2528 1.363 . S
C2524 H2501 0.950 . S
C2524 C2523 1.397 . S
C2524 C2525 1.334 . S
C2525 H2502 0.950 . S
C2525 C2524 1.334 . S
C2525 C2526 1.287 . S
C2526 C2525 1.287 . S
C2526 C2527 1.524 . S
C2526 H2545 0.913 . S
C2527 H2503 0.950 . S
C2527 C2526 1.524 . S
C2527 C2528 1.415 . S
C2528 H2504 0.950 . S
C2528 C2523 1.363 . S
C2528 C2527 1.415 . S
C2529 H2505 0.951 . S
C2529 C2530 1.366 . S
C2529 C2531 1.388 . S
C2530 C2529 1.366 . S
C2530 C2534 1.385 . S
C2531 H2506 0.951 . S
C2531 C2529 1.388 . S
C2531 C2532 1.366 . S
C2532 C2531 1.366 . S
C2532 C2533 1.414 . S
C2532 C2535 1.499 . S
C2533 H2507 0.950 . S
C2533 C2532 1.414 . S
C2533 C2534 1.374 . S
C2534 H2508 0.950 . S
C2534 C2530 1.385 . S
C2534 C2533 1.374 . S
C2535 C2532 1.499 . S
C2535 C2536 1.373 . S
C2535 C2537 1.389 . S
C2536 H2509 0.950 . S
C2536 C2522 1.377 . S
C2536 C2535 1.373 . S
C2537 C2521 1.377 . S
C2537 C2535 1.389 . S
C2537 C2538 1.524 . S
C2538 C2537 1.524 . S
C2538 C2539 1.397 . S
C2538 C2543 1.363 . S
C2539 H2510 0.950 . S
C2539 C2538 1.397 . S
C2539 C2540 1.334 . S
C2540 H2511 0.950 . S
C2540 C2539 1.334 . S
C2540 C2541 1.287 . S
C2541 C2540 1.287 . S
C2541 C2542 1.524 . S
C2541 H2544 0.999 . S
C2542 H2512 0.950 . S
C2542 C2541 1.524 . S
C2542 C2543 1.415 . S
C2543 H2513 0.950 . S
C2543 C2538 1.363 . S
C2543 C2542 1.415 . S
H2544 C2541 0.999 . S
H2545 C2526 0.913 . S
H2546 C2564 0.951 . S
H2547 C2566 0.951 . S
H2548 C2568 0.950 . S
H2549 C2569 0.950 . S
H2550 C2571 0.950 . S
H2551 C2574 0.950 . S
H2552 C2575 0.950 . S
H2553 C2577 0.950 . S
H2554 C2578 0.950 . S
H2555 C2579 0.951 . S
H2556 C2581 0.951 . S
H2557 C2583 0.950 . S
H2558 C2584 0.950 . S
H2559 C2586 0.950 . S
H2560 C2589 0.950 . S
H2561 C2590 0.950 . S
H2562 C2592 0.950 . S
H2563 C2593 0.950 . S
C2564 H2546 0.951 . S
C2564 C2565 1.366 . S
C2564 C2566 1.388 . S
C2565 C2564 1.366 . S
C2565 C2569 1.385 . S
C2566 H2547 0.951 . S
C2566 C2564 1.388 . S
C2566 C2567 1.366 . S
C2567 C2566 1.366 . S
C2567 C2568 1.414 . S
C2567 C2570 1.499 . S
C2568 H2548 0.950 . S
C2568 C2567 1.414 . S
C2568 C2569 1.374 . S
C2569 H2549 0.950 . S
C2569 C2565 1.385 . S
C2569 C2568 1.374 . S
C2570 C2567 1.499 . S
C2570 C2571 1.373 . S
C2570 C2572 1.389 . S
C2571 H2550 0.950 . S
C2571 C2570 1.373 . S
C2571 C2587 1.377 . S
C2572 C2570 1.389 . S
C2572 C2573 1.524 . S
C2572 C2586 1.377 . S
C2573 C2572 1.524 . S
C2573 C2574 1.397 . S
C2573 C2578 1.363 . S
C2574 H2551 0.950 . S
C2574 C2573 1.397 . S
C2574 C2575 1.334 . S
C2575 H2552 0.950 . S
C2575 C2574 1.334 . S
C2575 C2576 1.287 . S
C2576 C2575 1.287 . S
C2576 C2577 1.524 . S
C2576 H2595 0.913 . S
C2577 H2553 0.950 . S
C2577 C2576 1.524 . S
C2577 C2578 1.415 . S
C2578 H2554 0.950 . S
C2578 C2573 1.363 . S
C2578 C2577 1.415 . S
C2579 H2555 0.951 . S
C2579 C2580 1.366 . S
C2579 C2581 1.388 . S
C2580 C2579 1.366 . S
C2580 C2584 1.385 . S
C2581 H2556 0.951 . S
C2581 C2579 1.388 . S
C2581 C2582 1.366 . S
C2582 C2581 1.366 . S
C2582 C2583 1.414 . S
C2582 C2585 1.499 . S
C2583 H2557 0.950 . S
C2583 C2582 1.414 . S
C2583 C2584 1.374 . S
C2584 H2558 0.950 . S
C2584 C2580 1.385 . S
C2584 C2583 1.374 . S
C2585 C2582 1.499 . S
C2585 C2586 1.373 . S
C2585 C2587 1.389 . S
C2586 H2559 0.950 . S
C2586 C2572 1.377 . S
C2586 C2585 1.373 . S
C2587 C2571 1.377 . S
C2587 C2585 1.389 . S
C2587 C2588 1.524 . S
C2588 C2587 1.524 . S
C2588 C2589 1.397 . S
C2588 C2593 1.363 . S
C2589 H2560 0.950 . S
C2589 C2588 1.397 . S
C2589 C2590 1.334 . S
C2590 H2561 0.950 . S
C2590 C2589 1.334 . S
C2590 C2591 1.287 . S
C2591 C2590 1.287 . S
C2591 C2592 1.524 . S
C2591 H2594 0.999 . S
C2592 H2562 0.950 . S
C2592 C2591 1.524 . S
C2592 C2593 1.415 . S
C2593 H2563 0.950 . S
C2593 C2588 1.363 . S
C2593 C2592 1.415 . S
H2594 C2591 0.999 . S
H2595 C2576 0.913 . S
H2596 C2614 0.951 . S
H2597 C2616 0.951 . S
H2598 C2618 0.950 . S
H2599 C2619 0.950 . S
H2600 C2621 0.950 . S
H2601 C2624 0.950 . S
H2602 C2625 0.950 . S
H2603 C2627 0.950 . S
H2604 C2628 0.950 . S
H2605 C2629 0.951 . S
H2606 C2631 0.951 . S
H2607 C2633 0.950 . S
H2608 C2634 0.950 . S
H2609 C2636 0.950 . S
H2610 C2639 0.950 . S
H2611 C2640 0.950 . S
H2612 C2642 0.950 . S
H2613 C2643 0.950 . S
C2614 H2596 0.951 . S
C2614 C2615 1.366 . S
C2614 C2616 1.388 . S
C2615 C2614 1.366 . S
C2615 C2619 1.385 . S
C2616 H2597 0.951 . S
C2616 C2614 1.388 . S
C2616 C2617 1.366 . S
C2617 C2616 1.366 . S
C2617 C2618 1.414 . S
C2617 C2620 1.499 . S
C2618 H2598 0.950 . S
C2618 C2617 1.414 . S
C2618 C2619 1.374 . S
C2619 H2599 0.950 . S
C2619 C2615 1.385 . S
C2619 C2618 1.374 . S
C2620 C2617 1.499 . S
C2620 C2621 1.373 . S
C2620 C2622 1.389 . S
C2621 H2600 0.950 . S
C2621 C2620 1.373 . S
C2621 C2637 1.377 . S
C2622 C2620 1.389 . S
C2622 C2623 1.524 . S
C2622 C2636 1.377 . S
C2623 C2622 1.524 . S
C2623 C2624 1.397 . S
C2623 C2628 1.363 . S
C2624 H2601 0.950 . S
C2624 C2623 1.397 . S
C2624 C2625 1.334 . S
C2625 H2602 0.950 . S
C2625 C2624 1.334 . S
C2625 C2626 1.287 . S
C2626 C2625 1.287 . S
C2626 C2627 1.524 . S
C2626 H2645 0.913 . S
C2627 H2603 0.950 . S
C2627 C2626 1.524 . S
C2627 C2628 1.415 . S
C2628 H2604 0.950 . S
C2628 C2623 1.363 . S
C2628 C2627 1.415 . S
C2629 H2605 0.951 . S
C2629 C2630 1.366 . S
C2629 C2631 1.388 . S
C2630 C2629 1.366 . S
C2630 C2634 1.385 . S
C2631 H2606 0.951 . S
C2631 C2629 1.388 . S
C2631 C2632 1.366 . S
C2632 C2631 1.366 . S
C2632 C2633 1.414 . S
C2632 C2635 1.499 . S
C2633 H2607 0.950 . S
C2633 C2632 1.414 . S
C2633 C2634 1.374 . S
C2634 H2608 0.950 . S
C2634 C2630 1.385 . S
C2634 C2633 1.374 . S
C2635 C2632 1.499 . S
C2635 C2636 1.373 . S
C2635 C2637 1.389 . S
C2636 H2609 0.950 . S
C2636 C2622 1.377 . S
C2636 C2635 1.373 . S
C2637 C2621 1.377 . S
C2637 C2635 1.389 . S
C2637 C2638 1.524 . S
C2638 C2637 1.524 . S
C2638 C2639 1.397 . S
C2638 C2643 1.363 . S
C2639 H2610 0.950 . S
C2639 C2638 1.397 . S
C2639 C2640 1.334 . S
C2640 H2611 0.950 . S
C2640 C2639 1.334 . S
C2640 C2641 1.287 . S
C2641 C2640 1.287 . S
C2641 C2642 1.524 . S
C2641 H2644 0.999 . S
C2642 H2612 0.950 . S
C2642 C2641 1.524 . S
C2642 C2643 1.415 . S
C2643 H2613 0.950 . S
C2643 C2638 1.363 . S
C2643 C2642 1.415 . S
H2644 C2641 0.999 . S
H2645 C2626 0.913 . S
H2646 C2664 0.951 . S
H2647 C2666 0.951 . S
H2648 C2668 0.950 . S
H2649 C2669 0.950 . S
H2650 C2671 0.950 . S
H2651 C2674 0.950 . S
H2652 C2675 0.950 . S
H2653 C2677 0.950 . S
H2654 C2678 0.950 . S
H2655 C2679 0.951 . S
H2656 C2681 0.951 . S
H2657 C2683 0.950 . S
H2658 C2684 0.950 . S
H2659 C2686 0.950 . S
H2660 C2689 0.950 . S
H2661 C2690 0.950 . S
H2662 C2692 0.950 . S
H2663 C2693 0.950 . S
C2664 H2646 0.951 . S
C2664 C2665 1.366 . S
C2664 C2666 1.388 . S
C2665 C2664 1.366 . S
C2665 C2669 1.385 . S
C2666 H2647 0.951 . S
C2666 C2664 1.388 . S
C2666 C2667 1.366 . S
C2667 C2666 1.366 . S
C2667 C2668 1.414 . S
C2667 C2670 1.499 . S
C2668 H2648 0.950 . S
C2668 C2667 1.414 . S
C2668 C2669 1.374 . S
C2669 H2649 0.950 . S
C2669 C2665 1.385 . S
C2669 C2668 1.374 . S
C2670 C2667 1.499 . S
C2670 C2671 1.373 . S
C2670 C2672 1.389 . S
C2671 H2650 0.950 . S
C2671 C2670 1.373 . S
C2671 C2687 1.377 . S
C2672 C2670 1.389 . S
C2672 C2673 1.524 . S
C2672 C2686 1.377 . S
C2673 C2672 1.524 . S
C2673 C2674 1.397 . S
C2673 C2678 1.363 . S
C2674 H2651 0.950 . S
C2674 C2673 1.397 . S
C2674 C2675 1.334 . S
C2675 H2652 0.950 . S
C2675 C2674 1.334 . S
C2675 C2676 1.287 . S
C2676 C2675 1.287 . S
C2676 C2677 1.524 . S
C2676 H2695 0.913 . S
C2677 H2653 0.950 . S
C2677 C2676 1.524 . S
C2677 C2678 1.415 . S
C2678 H2654 0.950 . S
C2678 C2673 1.363 . S
C2678 C2677 1.415 . S
C2679 H2655 0.951 . S
C2679 C2680 1.366 . S
C2679 C2681 1.388 . S
C2680 C2679 1.366 . S
C2680 C2684 1.385 . S
C2681 H2656 0.951 . S
C2681 C2679 1.388 . S
C2681 C2682 1.366 . S
C2682 C2681 1.366 . S
C2682 C2683 1.414 . S
C2682 C2685 1.499 . S
C2683 H2657 0.950 . S
C2683 C2682 1.414 . S
C2683 C2684 1.374 . S
C2684 H2658 0.950 . S
C2684 C2680 1.385 . S
C2684 C2683 1.374 . S
C2685 C2682 1.499 . S
C2685 C2686 1.373 . S
C2685 C2687 1.389 . S
C2686 H2659 0.950 . S
C2686 C2672 1.377 . S
C2686 C2685 1.373 . S
C2687 C2671 1.377 . S
C2687 C2685 1.389 . S
C2687 C2688 1.524 . S
C2688 C2687 1.524 . S
C2688 C2689 1.397 . S
C2688 C2693 1.363 . S
C2689 H2660 0.950 . S
C2689 C2688 1.397 . S
C2689 C2690 1.334 . S
C2690 H2661 0.950 . S
C2690 C2689 1.334 . S
C2690 C2691 1.287 . S
C2691 C2690 1.287 . S
C2691 C2692 1.524 . S
C2691 H2694 0.999 . S
C2692 H2662 0.950 . S
C2692 C2691 1.524 . S
C2692 C2693 1.415 . S
C2693 H2663 0.950 . S
C2693 C2688 1.363 . S
C2693 C2692 1.415 . S
H2694 C2691 0.999 . S
H2695 C2676 0.913 . S
H2696 C2714 0.951 . S
H2697 C2716 0.951 . S
H2698 C2718 0.950 . S
H2699 C2719 0.950 . S
H2700 C2721 0.950 . S
H2701 C2724 0.950 . S
H2702 C2725 0.950 . S
H2703 C2727 0.950 . S
H2704 C2728 0.950 . S
H2705 C2729 0.951 . S
H2706 C2731 0.951 . S
H2707 C2733 0.950 . S
H2708 C2734 0.950 . S
H2709 C2736 0.950 . S
H2710 C2739 0.950 . S
H2711 C2740 0.950 . S
H2712 C2742 0.950 . S
H2713 C2743 0.950 . S
C2714 H2696 0.951 . S
C2714 C2715 1.366 . S
C2714 C2716 1.388 . S
C2715 C2714 1.366 . S
C2715 C2719 1.385 . S
C2716 H2697 0.951 . S
C2716 C2714 1.388 . S
C2716 C2717 1.366 . S
C2717 C2716 1.366 . S
C2717 C2718 1.414 . S
C2717 C2720 1.499 . S
C2718 H2698 0.950 . S
C2718 C2717 1.414 . S
C2718 C2719 1.374 . S
C2719 H2699 0.950 . S
C2719 C2715 1.385 . S
C2719 C2718 1.374 . S
C2720 C2717 1.499 . S
C2720 C2721 1.373 . S
C2720 C2722 1.389 . S
C2721 H2700 0.950 . S
C2721 C2720 1.373 . S
C2721 C2737 1.377 . S
C2722 C2720 1.389 . S
C2722 C2723 1.524 . S
C2722 C2736 1.377 . S
C2723 C2722 1.524 . S
C2723 C2724 1.397 . S
C2723 C2728 1.363 . S
C2724 H2701 0.950 . S
C2724 C2723 1.397 . S
C2724 C2725 1.334 . S
C2725 H2702 0.950 . S
C2725 C2724 1.334 . S
C2725 C2726 1.287 . S
C2726 C2725 1.287 . S
C2726 C2727 1.524 . S
C2726 H2745 0.913 . S
C2727 H2703 0.950 . S
C2727 C2726 1.524 . S
C2727 C2728 1.415 . S
C2728 H2704 0.950 . S
C2728 C2723 1.363 . S
C2728 C2727 1.415 . S
C2729 H2705 0.951 . S
C2729 C2730 1.366 . S
C2729 C2731 1.388 . S
C2730 C2729 1.366 . S
C2730 C2734 1.385 . S
C2731 H2706 0.951 . S
C2731 C2729 1.388 . S
C2731 C2732 1.366 . S
C2732 C2731 1.366 . S
C2732 C2733 1.414 . S
C2732 C2735 1.499 . S
C2733 H2707 0.950 . S
C2733 C2732 1.414 . S
C2733 C2734 1.374 . S
C2734 H2708 0.950 . S
C2734 C2730 1.385 . S
C2734 C2733 1.374 . S
C2735 C2732 1.499 . S
C2735 C2736 1.373 . S
C2735 C2737 1.389 . S
C2736 H2709 0.950 . S
C2736 C2722 1.377 . S
C2736 C2735 1.373 . S
C2737 C2721 1.377 . S
C2737 C2735 1.389 . S
C2737 C2738 1.524 . S
C2738 C2737 1.524 . S
C2738 C2739 1.397 . S
C2738 C2743 1.363 . S
C2739 H2710 0.950 . S
C2739 C2738 1.397 . S
C2739 C2740 1.334 . S
C2740 H2711 0.950 . S
C2740 C2739 1.334 . S
C2740 C2741 1.287 . S
C2741 C2740 1.287 . S
C2741 C2742 1.524 . S
C2741 H2744 0.999 . S
C2742 H2712 0.950 . S
C2742 C2741 1.524 . S
C2742 C2743 1.415 . S
C2743 H2713 0.950 . S
C2743 C2738 1.363 . S
C2743 C2742 1.415 . S
H2744 C2741 0.999 . S
H2745 C2726 0.913 . S
H2746 C2764 0.951 . S
H2747 C2766 0.951 . S
H2748 C2768 0.950 . S
H2749 C2769 0.950 . S
H2750 C2771 0.950 . S
H2751 C2774 0.950 . S
H2752 C2775 0.950 . S
H2753 C2777 0.950 . S
H2754 C2778 0.950 . S
H2755 C2779 0.951 . S
H2756 C2781 0.951 . S
H2757 C2783 0.950 . S
H2758 C2784 0.950 . S
H2759 C2786 0.950 . S
H2760 C2789 0.950 . S
H2761 C2790 0.950 . S
H2762 C2792 0.950 . S
H2763 C2793 0.950 . S
C2764 H2746 0.951 . S
C2764 C2765 1.366 . S
C2764 C2766 1.388 . S
C2765 C2764 1.366 . S
C2765 C2769 1.385 . S
C2766 H2747 0.951 . S
C2766 C2764 1.388 . S
C2766 C2767 1.366 . S
C2767 C2766 1.366 . S
C2767 C2768 1.414 . S
C2767 C2770 1.499 . S
C2768 H2748 0.950 . S
C2768 C2767 1.414 . S
C2768 C2769 1.374 . S
C2769 H2749 0.950 . S
C2769 C2765 1.385 . S
C2769 C2768 1.374 . S
C2770 C2767 1.499 . S
C2770 C2771 1.373 . S
C2770 C2772 1.389 . S
C2771 H2750 0.950 . S
C2771 C2770 1.373 . S
C2771 C2787 1.377 . S
C2772 C2770 1.389 . S
C2772 C2773 1.524 . S
C2772 C2786 1.377 . S
C2773 C2772 1.524 . S
C2773 C2774 1.397 . S
C2773 C2778 1.363 . S
C2774 H2751 0.950 . S
C2774 C2773 1.397 . S
C2774 C2775 1.334 . S
C2775 H2752 0.950 . S
C2775 C2774 1.334 . S
C2775 C2776 1.287 . S
C2776 C2775 1.287 . S
C2776 C2777 1.524 . S
C2776 H2795 0.913 . S
C2777 H2753 0.950 . S
C2777 C2776 1.524 . S
C2777 C2778 1.415 . S
C2778 H2754 0.950 . S
C2778 C2773 1.363 . S
C2778 C2777 1.415 . S
C2779 H2755 0.951 . S
C2779 C2780 1.366 . S
C2779 C2781 1.388 . S
C2780 C2779 1.366 . S
C2780 C2784 1.385 . S
C2781 H2756 0.951 . S
C2781 C2779 1.388 . S
C2781 C2782 1.366 . S
C2782 C2781 1.366 . S
C2782 C2783 1.414 . S
C2782 C2785 1.499 . S
C2783 H2757 0.950 . S
C2783 C2782 1.414 . S
C2783 C2784 1.374 . S
C2784 H2758 0.950 . S
C2784 C2780 1.385 . S
C2784 C2783 1.374 . S
C2785 C2782 1.499 . S
C2785 C2786 1.373 . S
C2785 C2787 1.389 . S
C2786 H2759 0.950 . S
C2786 C2772 1.377 . S
C2786 C2785 1.373 . S
C2787 C2771 1.377 . S
C2787 C2785 1.389 . S
C2787 C2788 1.524 . S
C2788 C2787 1.524 . S
C2788 C2789 1.397 . S
C2788 C2793 1.363 . S
C2789 H2760 0.950 . S
C2789 C2788 1.397 . S
C2789 C2790 1.334 . S
C2790 H2761 0.950 . S
C2790 C2789 1.334 . S
C2790 C2791 1.287 . S
C2791 C2790 1.287 . S
C2791 C2792 1.524 . S
C2791 H2794 0.999 . S
C2792 H2762 0.950 . S
C2792 C2791 1.524 . S
C2792 C2793 1.415 . S
C2793 H2763 0.950 . S
C2793 C2788 1.363 . S
C2793 C2792 1.415 . S
H2794 C2791 0.999 . S
H2795 C2776 0.913 . S
H2796 C2814 0.951 . S
H2797 C2816 0.951 . S
H2798 C2818 0.950 . S
H2799 C2819 0.950 . S
H2800 C2821 0.950 . S
H2801 C2824 0.950 . S
H2802 C2825 0.950 . S
H2803 C2827 0.950 . S
H2804 C2828 0.950 . S
H2805 C2829 0.951 . S
H2806 C2831 0.951 . S
H2807 C2833 0.950 . S
H2808 C2834 0.950 . S
H2809 C2836 0.950 . S
H2810 C2839 0.950 . S
H2811 C2840 0.950 . S
H2812 C2842 0.950 . S
H2813 C2843 0.950 . S
C2814 H2796 0.951 . S
C2814 C2815 1.366 . S
C2814 C2816 1.388 . S
C2815 C2814 1.366 . S
C2815 C2819 1.385 . S
C2816 H2797 0.951 . S
C2816 C2814 1.388 . S
C2816 C2817 1.366 . S
C2817 C2816 1.366 . S
C2817 C2818 1.414 . S
C2817 C2820 1.499 . S
C2818 H2798 0.950 . S
C2818 C2817 1.414 . S
C2818 C2819 1.374 . S
C2819 H2799 0.950 . S
C2819 C2815 1.385 . S
C2819 C2818 1.374 . S
C2820 C2817 1.499 . S
C2820 C2821 1.373 . S
C2820 C2822 1.389 . S
C2821 H2800 0.950 . S
C2821 C2820 1.373 . S
C2821 C2837 1.377 . S
C2822 C2820 1.389 . S
C2822 C2823 1.524 . S
C2822 C2836 1.377 . S
C2823 C2822 1.524 . S
C2823 C2824 1.397 . S
C2823 C2828 1.363 . S
C2824 H2801 0.950 . S
C2824 C2823 1.397 . S
C2824 C2825 1.334 . S
C2825 H2802 0.950 . S
C2825 C2824 1.334 . S
C2825 C2826 1.287 . S
C2826 C2825 1.287 . S
C2826 C2827 1.524 . S
C2826 H2845 0.913 . S
C2827 H2803 0.950 . S
C2827 C2826 1.524 . S
C2827 C2828 1.415 . S
C2828 H2804 0.950 . S
C2828 C2823 1.363 . S
C2828 C2827 1.415 . S
C2829 H2805 0.951 . S
C2829 C2830 1.366 . S
C2829 C2831 1.388 . S
C2830 C2829 1.366 . S
C2830 C2834 1.385 . S
C2831 H2806 0.951 . S
C2831 C2829 1.388 . S
C2831 C2832 1.366 . S
C2832 C2831 1.366 . S
C2832 C2833 1.414 . S
C2832 C2835 1.499 . S
C2833 H2807 0.950 . S
C2833 C2832 1.414 . S
C2833 C2834 1.374 . S
C2834 H2808 0.950 . S
C2834 C2830 1.385 . S
C2834 C2833 1.374 . S
C2835 C2832 1.499 . S
C2835 C2836 1.373 . S
C2835 C2837 1.389 . S
C2836 H2809 0.950 . S
C2836 C2822 1.377 . S
C2836 C2835 1.373 . S
C2837 C2821 1.377 . S
C2837 C2835 1.389 . S
C2837 C2838 1.524 . S
C2838 C2837 1.524 . S
C2838 C2839 1.397 . S
C2838 C2843 1.363 . S
C2839 H2810 0.950 . S
C2839 C2838 1.397 . S
C2839 C2840 1.334 . S
C2840 H2811 0.950 . S
C2840 C2839 1.334 . S
C2840 C2841 1.287 . S
C2841 C2840 1.287 . S
C2841 C2842 1.524 . S
C2841 H2844 0.999 . S
C2842 H2812 0.950 . S
C2842 C2841 1.524 . S
C2842 C2843 1.415 . S
C2843 H2813 0.950 . S
C2843 C2838 1.363 . S
C2843 C2842 1.415 . S
H2844 C2841 0.999 . S
H2845 C2826 0.913 . S
H2846 C2864 0.951 . S
H2847 C2866 0.951 . S
H2848 C2868 0.950 . S
H2849 C2869 0.950 . S
H2850 C2871 0.950 . S
H2851 C2874 0.950 . S
H2852 C2875 0.950 . S
H2853 C2877 0.950 . S
H2854 C2878 0.950 . S
H2855 C2879 0.951 . S
H2856 C2881 0.951 . S
H2857 C2883 0.950 . S
H2858 C2884 0.950 . S
H2859 C2886 0.950 . S
H2860 C2889 0.950 . S
H2861 C2890 0.950 . S
H2862 C2892 0.950 . S
H2863 C2893 0.950 . S
C2864 H2846 0.951 . S
C2864 C2865 1.366 . S
C2864 C2866 1.388 . S
C2865 C2864 1.366 . S
C2865 C2869 1.385 . S
C2866 H2847 0.951 . S
C2866 C2864 1.388 . S
C2866 C2867 1.366 . S
C2867 C2866 1.366 . S
C2867 C2868 1.414 . S
C2867 C2870 1.499 . S
C2868 H2848 0.950 . S
C2868 C2867 1.414 . S
C2868 C2869 1.374 . S
C2869 H2849 0.950 . S
C2869 C2865 1.385 . S
C2869 C2868 1.374 . S
C2870 C2867 1.499 . S
C2870 C2871 1.373 . S
C2870 C2872 1.389 . S
C2871 H2850 0.950 . S
C2871 C2870 1.373 . S
C2871 C2887 1.377 . S
C2872 C2870 1.389 . S
C2872 C2873 1.524 . S
C2872 C2886 1.377 . S
C2873 C2872 1.524 . S
C2873 C2874 1.397 . S
C2873 C2878 1.363 . S
C2874 H2851 0.950 . S
C2874 C2873 1.397 . S
C2874 C2875 1.334 . S
C2875 H2852 0.950 . S
C2875 C2874 1.334 . S
C2875 C2876 1.287 . S
C2876 C2875 1.287 . S
C2876 C2877 1.524 . S
C2876 H2895 0.913 . S
C2877 H2853 0.950 . S
C2877 C2876 1.524 . S
C2877 C2878 1.415 . S
C2878 H2854 0.950 . S
C2878 C2873 1.363 . S
C2878 C2877 1.415 . S
C2879 H2855 0.951 . S
C2879 C2880 1.366 . S
C2879 C2881 1.388 . S
C2880 C2879 1.366 . S
C2880 C2884 1.385 . S
C2881 H2856 0.951 . S
C2881 C2879 1.388 . S
C2881 C2882 1.366 . S
C2882 C2881 1.366 . S
C2882 C2883 1.414 . S
C2882 C2885 1.499 . S
C2883 H2857 0.950 . S
C2883 C2882 1.414 . S
C2883 C2884 1.374 . S
C2884 H2858 0.950 . S
C2884 C2880 1.385 . S
C2884 C2883 1.374 . S
C2885 C2882 1.499 . S
C2885 C2886 1.373 . S
C2885 C2887 1.389 . S
C2886 H2859 0.950 . S
C2886 C2872 1.377 . S
C2886 C2885 1.373 . S
C2887 C2871 1.377 . S
C2887 C2885 1.389 . S
C2887 C2888 1.524 . S
C2888 C2887 1.524 . S
C2888 C2889 1.397 . S
C2888 C2893 1.363 . S
C2889 H2860 0.950 . S
C2889 C2888 1.397 . S
C2889 C2890 1.334 . S
C2890 H2861 0.950 . S
C2890 C2889 1.334 . S
C2890 C2891 1.287 . S
C2891 C2890 1.287 . S
C2891 C2892 1.524 . S
C2891 H2894 0.999 . S
C2892 H2862 0.950 . S
C2892 C2891 1.524 . S
C2892 C2893 1.415 . S
C2893 H2863 0.950 . S
C2893 C2888 1.363 . S
C2893 C2892 1.415 . S
H2894 C2891 0.999 . S
H2895 C2876 0.913 . S
H2896 C2914 0.951 . S
H2897 C2916 0.951 . S
H2898 C2918 0.950 . S
H2899 C2919 0.950 . S
H2900 C2921 0.950 . S
H2901 C2924 0.950 . S
H2902 C2925 0.950 . S
H2903 C2927 0.950 . S
H2904 C2928 0.950 . S
H2905 C2929 0.951 . S
H2906 C2931 0.951 . S
H2907 C2933 0.950 . S
H2908 C2934 0.950 . S
H2909 C2936 0.950 . S
H2910 C2939 0.950 . S
H2911 C2940 0.950 . S
H2912 C2942 0.950 . S
H2913 C2943 0.950 . S
C2914 H2896 0.951 . S
C2914 C2915 1.366 . S
C2914 C2916 1.388 . S
C2915 C2914 1.366 . S
C2915 C2919 1.385 . S
C2916 H2897 0.951 . S
C2916 C2914 1.388 . S
C2916 C2917 1.366 . S
C2917 C2916 1.366 . S
C2917 C2918 1.414 . S
C2917 C2920 1.499 . S
C2918 H2898 0.950 . S
C2918 C2917 1.414 . S
C2918 C2919 1.374 . S
C2919 H2899 0.950 . S
C2919 C2915 1.385 . S
C2919 C2918 1.374 . S
C2920 C2917 1.499 . S
C2920 C2921 1.373 . S
C2920 C2922 1.389 . S
C2921 H2900 0.950 . S
C2921 C2920 1.373 . S
C2921 C2937 1.377 . S
C2922 C2920 1.389 . S
C2922 C2923 1.524 . S
C2922 C2936 1.377 . S
C2923 C2922 1.524 . S
C2923 C2924 1.397 . S
C2923 C2928 1.363 . S
C2924 H2901 0.950 . S
C2924 C2923 1.397 . S
C2924 C2925 1.334 . S
C2925 H2902 0.950 . S
C2925 C2924 1.334 . S
C2925 C2926 1.287 . S
C2926 C2925 1.287 . S
C2926 C2927 1.524 . S
C2926 H2945 0.913 . S
C2927 H2903 0.950 . S
C2927 C2926 1.524 . S
C2927 C2928 1.415 . S
C2928 H2904 0.950 . S
C2928 C2923 1.363 . S
C2928 C2927 1.415 . S
C2929 H2905 0.951 . S
C2929 C2930 1.366 . S
C2929 C2931 1.388 . S
C2930 C2929 1.366 . S
C2930 C2934 1.385 . S
C2931 H2906 0.951 . S
C2931 C2929 1.388 . S
C2931 C2932 1.366 . S
C2932 C2931 1.366 . S
C2932 C2933 1.414 . S
C2932 C2935 1.499 . S
C2933 H2907 0.950 . S
C2933 C2932 1.414 . S
C2933 C2934 1.374 . S
C2934 H2908 0.950 . S
C2934 C2930 1.385 . S
C2934 C2933 1.374 . S
C2935 C2932 1.499 . S
C2935 C2936 1.373 . S
C2935 C2937 1.389 . S
C2936 H2909 0.950 . S
C2936 C2922 1.377 . S
C2936 C2935 1.373 . S
C2937 C2921 1.377 . S
C2937 C2935 1.389 . S
C2937 C2938 1.524 . S
C2938 C2937 1.524 . S
C2938 C2939 1.397 . S
C2938 C2943 1.363 . S
C2939 H2910 0.950 . S
C2939 C2938 1.397 . S
C2939 C2940 1.334 . S
C2940 H2911 0.950 . S
C2940 C2939 1.334 . S
C2940 C2941 1.287 . S
C2941 C2940 1.287 . S
C2941 C2942 1.524 . S
C2941 H2944 0.999 . S
C2942 H2912 0.950 . S
C2942 C2941 1.524 . S
C2942 C2943 1.415 . S
C2943 H2913 0.950 . S
C2943 C2938 1.363 . S
C2943 C2942 1.415 . S
H2944 C2941 0.999 . S
H2945 C2926 0.913 . S
H2946 C2964 0.951 . S
H2947 C2966 0.951 . S
H2948 C2968 0.950 . S
H2949 C2969 0.950 . S
H2950 C2971 0.950 . S
H2951 C2974 0.950 . S
H2952 C2975 0.950 . S
H2953 C2977 0.950 . S
H2954 C2978 0.950 . S
H2955 C2979 0.951 . S
H2956 C2981 0.951 . S
H2957 C2983 0.950 . S
H2958 C2984 0.950 . S
H2959 C2986 0.950 . S
H2960 C2989 0.950 . S
H2961 C2990 0.950 . S
H2962 C2992 0.950 . S
H2963 C2993 0.950 . S
C2964 H2946 0.951 . S
C2964 C2965 1.366 . S
C2964 C2966 1.388 . S
C2965 C2964 1.366 . S
C2965 C2969 1.385 . S
C2966 H2947 0.951 . S
C2966 C2964 1.388 . S
C2966 C2967 1.366 . S
C2967 C2966 1.366 . S
C2967 C2968 1.414 . S
C2967 C2970 1.499 . S
C2968 H2948 0.950 . S
C2968 C2967 1.414 . S
C2968 C2969 1.374 . S
C2969 H2949 0.950 . S
C2969 C2965 1.385 . S
C2969 C2968 1.374 . S
C2970 C2967 1.499 . S
C2970 C2971 1.373 . S
C2970 C2972 1.389 . S
C2971 H2950 0.950 . S
C2971 C2970 1.373 . S
C2971 C2987 1.377 . S
C2972 C2970 1.389 . S
C2972 C2973 1.524 . S
C2972 C2986 1.377 . S
C2973 C2972 1.524 . S
C2973 C2974 1.397 . S
C2973 C2978 1.363 . S
C2974 H2951 0.950 . S
C2974 C2973 1.397 . S
C2974 C2975 1.334 . S
C2975 H2952 0.950 . S
C2975 C2974 1.334 . S
C2975 C2976 1.287 . S
C2976 C2975 1.287 . S
C2976 C2977 1.524 . S
C2976 H2995 0.913 . S
C2977 H2953 0.950 . S
C2977 C2976 1.524 . S
C2977 C2978 1.415 . S
C2978 H2954 0.950 . S
C2978 C2973 1.363 . S
C2978 C2977 1.415 . S
C2979 H2955 0.951 . S
C2979 C2980 1.366 . S
C2979 C2981 1.388 . S
C2980 C2979 1.366 . S
C2980 C2984 1.385 . S
C2981 H2956 0.951 . S
C2981 C2979 1.388 . S
C2981 C2982 1.366 . S
C2982 C2981 1.366 . S
C2982 C2983 1.414 . S
C2982 C2985 1.499 . S
C2983 H2957 0.950 . S
C2983 C2982 1.414 . S
C2983 C2984 1.374 . S
C2984 H2958 0.950 . S
C2984 C2980 1.385 . S
C2984 C2983 1.374 . S
C2985 C2982 1.499 . S
C2985 C2986 1.373 . S
C2985 C2987 1.389 . S
C2986 H2959 0.950 . S
C2986 C2972 1.377 . S
C2986 C2985 1.373 . S
C2987 C2971 1.377 . S
C2987 C2985 1.389 . S
C2987 C2988 1.524 . S
C2988 C2987 1.524 . S
C2988 C2989 1.397 . S
C2988 C2993 1.363 . S
C2989 H2960 0.950 . S
C2989 C2988 1.397 . S
C2989 C2990 1.334 . S
C2990 H2961 0.950 . S
C2990 C2989 1.334 . S
C2990 C2991 1.287 . S
C2991 C2990 1.287 . S
C2991 C2992 1.524 . S
C2991 H2994 0.999 . S
C2992 H2962 0.950 . S
C2992 C2991 1.524 . S
C2992 C2993 1.415 . S
C2993 H2963 0.950 . S
C2993 C2988 1.363 . S
C2993 C2992 1.415 . S
H2994 C2991 0.999 . S
H2995 C2976 0.913 . S
H2996 C3014 0.951 . S
H2997 C3016 0.951 . S
H2998 C3018 0.950 . S
H2999 C3019 0.950 . S
H3000 C3021 0.950 . S
H3001 C3024 0.950 . S
H3002 C3025 0.950 . S
H3003 C3027 0.950 . S
H3004 C3028 0.950 . S
H3005 C3029 0.951 . S
H3006 C3031 0.951 . S
H3007 C3033 0.950 . S
H3008 C3034 0.950 . S
H3009 C3036 0.950 . S
H3010 C3039 0.950 . S
H3011 C3040 0.950 . S
H3012 C3042 0.950 . S
H3013 C3043 0.950 . S
C3014 H2996 0.951 . S
C3014 C3015 1.366 . S
C3014 C3016 1.388 . S
C3015 C3014 1.366 . S
C3015 C3019 1.385 . S
C3016 H2997 0.951 . S
C3016 C3014 1.388 . S
C3016 C3017 1.366 . S
C3017 C3016 1.366 . S
C3017 C3018 1.414 . S
C3017 C3020 1.499 . S
C3018 H2998 0.950 . S
C3018 C3017 1.414 . S
C3018 C3019 1.374 . S
C3019 H2999 0.950 . S
C3019 C3015 1.385 . S
C3019 C3018 1.374 . S
C3020 C3017 1.499 . S
C3020 C3021 1.373 . S
C3020 C3022 1.389 . S
C3021 H3000 0.950 . S
C3021 C3020 1.373 . S
C3021 C3037 1.377 . S
C3022 C3020 1.389 . S
C3022 C3023 1.524 . S
C3022 C3036 1.377 . S
C3023 C3022 1.524 . S
C3023 C3024 1.397 . S
C3023 C3028 1.363 . S
C3024 H3001 0.950 . S
C3024 C3023 1.397 . S
C3024 C3025 1.334 . S
C3025 H3002 0.950 . S
C3025 C3024 1.334 . S
C3025 C3026 1.287 . S
C3026 C3025 1.287 . S
C3026 C3027 1.524 . S
C3026 H3045 0.913 . S
C3027 H3003 0.950 . S
C3027 C3026 1.524 . S
C3027 C3028 1.415 . S
C3028 H3004 0.950 . S
C3028 C3023 1.363 . S
C3028 C3027 1.415 . S
C3029 H3005 0.951 . S
C3029 C3030 1.366 . S
C3029 C3031 1.388 . S
C3030 C3029 1.366 . S
C3030 C3034 1.385 . S
C3031 H3006 0.951 . S
C3031 C3029 1.388 . S
C3031 C3032 1.366 . S
C3032 C3031 1.366 . S
C3032 C3033 1.414 . S
C3032 C3035 1.499 . S
C3033 H3007 0.950 . S
C3033 C3032 1.414 . S
C3033 C3034 1.374 . S
C3034 H3008 0.950 . S
C3034 C3030 1.385 . S
C3034 C3033 1.374 . S
C3035 C3032 1.499 . S
C3035 C3036 1.373 . S
C3035 C3037 1.389 . S
C3036 H3009 0.950 . S
C3036 C3022 1.377 . S
C3036 C3035 1.373 . S
C3037 C3021 1.377 . S
C3037 C3035 1.389 . S
C3037 C3038 1.524 . S
C3038 C3037 1.524 . S
C3038 C3039 1.397 . S
C3038 C3043 1.363 . S
C3039 H3010 0.950 . S
C3039 C3038 1.397 . S
C3039 C3040 1.334 . S
C3040 H3011 0.950 . S
C3040 C3039 1.334 . S
C3040 C3041 1.287 . S
C3041 C3040 1.287 . S
C3041 C3042 1.524 . S
C3041 H3044 0.999 . S
C3042 H3012 0.950 . S
C3042 C3041 1.524 . S
C3042 C3043 1.415 . S
C3043 H3013 0.950 . S
C3043 C3038 1.363 . S
C3043 C3042 1.415 . S
H3044 C3041 0.999 . S
H3045 C3026 0.913 . S
H3046 C3064 0.951 . S
H3047 C3066 0.951 . S
H3048 C3068 0.950 . S
H3049 C3069 0.950 . S
H3050 C3071 0.950 . S
H3051 C3074 0.950 . S
H3052 C3075 0.950 . S
H3053 C3077 0.950 . S
H3054 C3078 0.950 . S
H3055 C3079 0.951 . S
H3056 C3081 0.951 . S
H3057 C3083 0.950 . S
H3058 C3084 0.950 . S
H3059 C3086 0.950 . S
H3060 C3089 0.950 . S
H3061 C3090 0.950 . S
H3062 C3092 0.950 . S
H3063 C3093 0.950 . S
C3064 H3046 0.951 . S
C3064 C3065 1.366 . S
C3064 C3066 1.388 . S
C3065 C3064 1.366 . S
C3065 C3069 1.385 . S
C3066 H3047 0.951 . S
C3066 C3064 1.388 . S
C3066 C3067 1.366 . S
C3067 C3066 1.366 . S
C3067 C3068 1.414 . S
C3067 C3070 1.499 . S
C3068 H3048 0.950 . S
C3068 C3067 1.414 . S
C3068 C3069 1.374 . S
C3069 H3049 0.950 . S
C3069 C3065 1.385 . S
C3069 C3068 1.374 . S
C3070 C3067 1.499 . S
C3070 C3071 1.373 . S
C3070 C3072 1.389 . S
C3071 H3050 0.950 . S
C3071 C3070 1.373 . S
C3071 C3087 1.377 . S
C3072 C3070 1.389 . S
C3072 C3073 1.524 . S
C3072 C3086 1.377 . S
C3073 C3072 1.524 . S
C3073 C3074 1.397 . S
C3073 C3078 1.363 . S
C3074 H3051 0.950 . S
C3074 C3073 1.397 . S
C3074 C3075 1.334 . S
C3075 H3052 0.950 . S
C3075 C3074 1.334 . S
C3075 C3076 1.287 . S
C3076 C3075 1.287 . S
C3076 C3077 1.524 . S
C3076 H3095 0.913 . S
C3077 H3053 0.950 . S
C3077 C3076 1.524 . S
C3077 C3078 1.415 . S
C3078 H3054 0.950 . S
C3078 C3073 1.363 . S
C3078 C3077 1.415 . S
C3079 H3055 0.951 . S
C3079 C3080 1.366 . S
C3079 C3081 1.388 . S
C3080 C3079 1.366 . S
C3080 C3084 1.385 . S
C3081 H3056 0.951 . S
C3081 C3079 1.388 . S
C3081 C3082 1.366 . S
C3082 C3081 1.366 . S
C3082 C3083 1.414 . S
C3082 C3085 1.499 . S
C3083 H3057 0.950 . S
C3083 C3082 1.414 . S
C3083 C3084 1.374 . S
C3084 H3058 0.950 . S
C3084 C3080 1.385 . S
C3084 C3083 1.374 . S
C3085 C3082 1.499 . S
C3085 C3086 1.373 . S
C3085 C3087 1.389 . S
C3086 H3059 0.950 . S
C3086 C3072 1.377 . S
C3086 C3085 1.373 . S
C3087 C3071 1.377 . S
C3087 C3085 1.389 . S
C3087 C3088 1.524 . S
C3088 C3087 1.524 . S
C3088 C3089 1.397 . S
C3088 C3093 1.363 . S
C3089 H3060 0.950 . S
C3089 C3088 1.397 . S
C3089 C3090 1.334 . S
C3090 H3061 0.950 . S
C3090 C3089 1.334 . S
C3090 C3091 1.287 . S
C3091 C3090 1.287 . S
C3091 C3092 1.524 . S
C3091 H3094 0.999 . S
C3092 H3062 0.950 . S
C3092 C3091 1.524 . S
C3092 C3093 1.415 . S
C3093 H3063 0.950 . S
C3093 C3088 1.363 . S
C3093 C3092 1.415 . S
H3094 C3091 0.999 . S
H3095 C3076 0.913 . S
C415 C162 1.570 . S
C430 C222 1.549 . S
C465 C174 1.548 . S
C480 C242 1.523 . S
C515 C150 1.518 . S
C530 C265 1.521 . S
C565 C138 1.407 . S
C580 C245 1.408 1_556 S
C630 C262 1.415 . S
C615 C114 1.433 . S
C665 C126 1.434 . S
C680 C225 1.436 . S
C730 C232 1.554 . S
C715 C136 1.567 . S
C780 C252 1.449 . S
C765 C112 1.466 . S
C815 C124 1.552 . S
C830 C257 1.576 . S
C865 C160 1.431 . S
C880 C237 1.448 . S
C915 C172 1.422 . S
C930 C272 1.405 . S
C980 C217 1.521 . S
C965 C148 1.506 . S
C1030 C282 1.549 . S
C1015 C18 1.570 . S
C1065 C30 1.548 . S
C1080 C302 1.523 . S
C1115 C6 1.519 . S
C1130 C325 1.522 . S
C1165 C210 1.407 . S
C1180 C305 1.408 . S
C1215 C186 1.433 . S
C1230 C322 1.415 . S
C1265 C198 1.433 . S
C1280 C285 1.434 . S
C1315 C208 1.567 . S
C1330 C292 1.553 . S
C1365 C184 1.467 . S
C1380 C312 1.450 . S
C1430 C317 1.576 . S
C1415 C196 1.552 . S
C1465 C16 1.431 . S
C1480 C297 1.448 . S
C1530 C332 1.405 . S
C1515 C28 1.422 . S
C1565 C4 1.506 . S
C1580 C277 1.521 . S
C1630 C342 1.549 . S
C1615 C90 1.570 . S
C1665 C102 1.548 . S
C1680 C362 1.523 . S
C1730 C385 1.522 . S
C1715 C78 1.519 . S
C1780 C365 1.408 . S
C1765 C66 1.407 . S
C1830 C382 1.416 . S
C1815 C42 1.433 . S
C1865 C54 1.433 . S
C1880 C345 1.434 . S
C1915 C64 1.567 . S
C1930 C352 1.554 . S
C1965 C40 1.467 . S
C1980 C372 1.450 . S
C2030 C377 1.576 . S
C2015 C52 1.552 . S
C2065 C88 1.431 . S
C2080 C357 1.448 . S
C2115 C100 1.423 . S
C2130 C392 1.406 . S
C2165 C76 1.506 . S
C2180 C337 1.520 . S
C2215 C189 1.319 . S
C2230 C235 1.270 . S
C2280 C255 1.691 . S
C2265 C201 1.777 . S
C2315 C213 1.528 . S
C2330 C264 1.494 . S
C2365 C81 1.734 . S
C2380 C244 1.683 . S
C2415 C93 1.605 . S
C2430 C275 1.537 . S
C2480 C224 1.270 . S
C2465 C105 1.291 . S
C2515 C45 1.319 . S
C2530 C295 1.269 . S
C2565 C57 1.777 . S
C2580 C315 1.691 . S
C2615 C69 1.528 . S
C2630 C324 1.494 . S
C2665 C153 1.734 . S
C2680 C304 1.683 . S
C2730 C335 1.536 . S
C2715 C165 1.605 . S
C2765 C177 1.292 . S
C2780 C284 1.269 . S
C2815 C117 1.319 . S
C2830 C355 1.268 . S
C2865 C129 1.777 . S
C2880 C375 1.692 . S
C2930 C384 1.495 . S
C2915 C141 1.528 . S
C2965 C9 1.734 . S
C2980 C364 1.684 . S
C3015 C21 1.605 . S
C3030 C395 1.536 . S
C3065 C33 1.292 . S
C3080 C344 1.269 . S
