# Generated by pormake.
# Topology pth, (4,4)-cn, num edge types: 1
# Building blocks:
#     Node 0, Type 0, BuildingBlock: NAHDIM_clean_sbu_0, # of connection points: 4
#     Node 1, Type 0, BuildingBlock: NAHDIM_clean_sbu_0, # of connection points: 4
#     Node 2, Type 0, BuildingBlock: NAHDIM_clean_sbu_0, # of connection points: 4
#     Node 3, Type 1, BuildingBlock: NAHDIM_clean_linker_0, # of connection points: 4
#     Node 4, Type 1, BuildingBlock: NAHDIM_clean_linker_0, # of connection points: 4
#     Node 5, Type 1, BuildingBlock: NAHDIM_clean_linker_0, # of connection points: 4
#     Edge 6, Type (0, 1), BuildingBlock: TEMPAE_clean_linker_10, # of connection points: 2
#     Edge 7, Type (0, 1), BuildingBlock: TEMPAE_clean_linker_10, # of connection points: 2
#     Edge 8, Type (0, 1), BuildingBlock: TEMPAE_clean_linker_10, # of connection points: 2
#     Edge 9, Type (0, 1), BuildingBlock: TEMPAE_clean_linker_10, # of connection points: 2
#     Edge 10, Type (0, 1), BuildingBlock: TEMPAE_clean_linker_10, # of connection points: 2
#     Edge 11, Type (0, 1), BuildingBlock: TEMPAE_clean_linker_10, # of connection points: 2
#     Edge 12, Type (0, 1), BuildingBlock: TEMPAE_clean_linker_10, # of connection points: 2
#     Edge 13, Type (0, 1), BuildingBlock: TEMPAE_clean_linker_10, # of connection points: 2
#     Edge 14, Type (0, 1), BuildingBlock: TEMPAE_clean_linker_10, # of connection points: 2
#     Edge 15, Type (0, 1), BuildingBlock: TEMPAE_clean_linker_10, # of connection points: 2
#     Edge 16, Type (0, 1), BuildingBlock: TEMPAE_clean_linker_10, # of connection points: 2
#     Edge 17, Type (0, 1), BuildingBlock: TEMPAE_clean_linker_10, # of connection points: 2
# Relax obj value: 0.059
# Max RMSD: 0.179
# Mean RMSD: 0.115
data_MOF--net-pth--node1-NAHDIM_clean_sbu_0--node2-NAHDIM_clean_linker_0--edge1-TEMPAE_clean_linker_10
_symmetry_space_group_name_H-M    P1
_symmetry_Int_Tables_number       1
_symmetry_cell_setting            triclinic
loop_
_symmetry_equiv_pos_as_xyz
'x, y, z'
_cell_length_a     31.905681
_cell_length_b     32.04077
_cell_length_c     79.891261
_cell_angle_alpha  91.619432
_cell_angle_beta   90.454334
_cell_angle_gamma 120.52893
loop_
_atom_site_label
_atom_site_type_symbol
_atom_site_fract_x
_atom_site_fract_y
_atom_site_fract_z
_atom_type_partial_charge
C0 C 0.05416 0.99633 0.0684 0.0
O1 O 0.0176 0.00329 0.06554 0.0
O2 O 0.07207 0.11311 0.06052 0.0
Zn3 Zn 0.08432 0.06773 0.04615 0.0
O4 O 0.02661 0.02502 0.03088 0.0
C5 C 0.12122 0.13326 0.02237 0.0
O6 O 0.07767 0.12542 0.02584 0.0
O7 O 0.09382 0.02256 0.06093 0.0
C8 C 0.98525 0.02179 0.03098 0.0
O9 O 0.9769 0.04755 0.0421 0.0
C10 C 0.08245 0.12196 0.07609 0.0
O11 O 0.09975 0.09846 0.08409 0.0
O12 O 0.13784 0.11096 0.03056 0.0
C13 C 0.09665 0.17196 0.34429 0.0
O14 O 0.05331 0.13475 0.34041 0.0
O15 O 0.06598 0.04822 0.35566 0.0
Zn16 Zn 0.08816 0.109 0.36998 0.0
O17 O 0.03063 0.10806 0.38081 0.0
C18 C 0.17065 0.10797 0.38613 0.0
O19 O 0.18506 0.10686 0.37085 0.0
O20 O 0.12078 0.16879 0.35643 0.0
C21 C 0.02097 0.09819 0.39611 0.0
O22 O 0.04791 0.08633 0.40501 0.0
C23 C 0.03798 0.0082 0.3624 0.0
O24 O 0.02423 0.00898 0.37781 0.0
O25 O 0.13268 0.11067 0.38827 0.0
C26 C 0.11021 0.04756 0.67665 0.0
O27 O 0.10345 0.0812 0.67035 0.0
O28 O 0.00348 0.05925 0.68663 0.0
Zn29 Zn 0.04165 0.04088 0.70204 0.0
O30 O 0.08214 0.09529 0.71882 0.0
C31 C 0.95122 0.96574 0.71614 0.0
O32 O 0.93085 0.98569 0.70769 0.0
O33 O 0.08693 0.02583 0.68948 0.0
C34 C 0.06498 0.09907 0.73272 0.0
O35 O 0.01959 0.06744 0.73605 0.0
C36 C 0.01122 0.10231 0.68705 0.0
O37 O 0.04576 0.13518 0.69708 0.0
O38 O 0.99672 0.98254 0.7151 0.0
C39 C 0.90748 0.64426 0.32927 0.0
C40 C 0.94933 0.67581 0.31784 0.0
C41 C 0.95749 0.65044 0.28976 0.0
C42 C 0.00812 0.67834 0.28824 0.0
C43 C 0.03218 0.66438 0.27672 0.0
C44 C 0.00501 0.621 0.26686 0.0
C45 C 0.95369 0.5933 0.26824 0.0
C46 C 0.93055 0.60919 0.2794 0.0
C47 C 0.08662 0.6957 0.27528 0.0
C48 C 0.92323 0.54612 0.25834 0.0
C49 C 0.24293 0.53908 0.31675 0.0
C50 C 0.19389 0.5067 0.3077 0.0
C51 C 0.16817 0.52402 0.28138 0.0
C52 C 0.11752 0.49616 0.28289 0.0
C53 C 0.08657 0.50624 0.27346 0.0
C54 C 0.10693 0.54581 0.26265 0.0
C55 C 0.15817 0.57351 0.26101 0.0
C56 C 0.18795 0.5613 0.27009 0.0
C57 C 0.03223 0.47492 0.27521 0.0
C58 C 0.18185 0.61699 0.25009 0.0
C59 C 0.06786 0.44648 0.15105 0.0
C60 C 0.02382 0.43058 0.15904 0.0
C61 C 0.01695 0.46169 0.16983 0.0
C62 C 0.05539 0.50998 0.17275 0.0
C63 C 0.10052 0.52619 0.16501 0.0
C64 C 0.10644 0.49423 0.15425 0.0
C65 C 0.96833 0.44317 0.17793 0.0
C66 C 0.14226 0.57741 0.16801 0.0
C67 C 0.91163 0.75516 0.15916 0.0
C68 C 0.95833 0.75372 0.15657 0.0
C69 C 0.96432 0.68137 0.1598 0.0
C70 C 0.93396 0.63149 0.16133 0.0
C71 C 0.95034 0.6041 0.16954 0.0
C72 C 0.99878 0.62723 0.17594 0.0
C73 C 0.03045 0.67739 0.17369 0.0
C74 C 0.01277 0.70405 0.1657 0.0
C75 C 0.9157 0.55063 0.17156 0.0
C76 C 0.08288 0.70286 0.17977 0.0
C77 C 0.03014 0.60287 0.25584 0.0
C78 C 0.05535 0.58297 0.26343 0.0
C79 C 0.07533 0.5604 0.25388 0.0
C80 C 0.06766 0.5551 0.2363 0.0
C81 C 0.08211 0.52777 0.22645 0.0
C82 C 0.07498 0.52344 0.20913 0.0
C83 C 0.05433 0.54737 0.201 0.0
C84 C 0.04738 0.54375 0.18341 0.0
C85 C 0.02965 0.57042 0.17565 0.0
C86 C 0.01637 0.59911 0.18505 0.0
C87 C 0.01981 0.60053 0.20274 0.0
C88 C 0.00359 0.62627 0.21266 0.0
C89 C 0.00683 0.62706 0.23006 0.0
C90 C 0.02715 0.60283 0.23818 0.0
C91 C 0.04489 0.57778 0.22841 0.0
C92 C 0.0398 0.57534 0.2107 0.0
C93 C 0.10873 0.45245 0.1148 0.0
C94 C 0.10855 0.42326 0.12973 0.0
O95 O 0.9338 0.66199 0.30131 0.0
O96 O 0.94573 0.70637 0.15248 0.0
O97 O 0.07094 0.41461 0.14028 0.0
O98 O 0.19891 0.51621 0.2908 0.0
H99 H 0.97944 0.66893 0.32091 0.0
H100 H 0.89626 0.60553 0.32706 0.0
H101 H 0.87553 0.64844 0.32672 0.0
H102 H 0.91916 0.65441 0.34263 0.0
H103 H 0.02875 0.71101 0.29604 0.0
H104 H 0.8914 0.58822 0.28064 0.0
H105 H 0.10453 0.67812 0.28153 0.0
H106 H 0.1008 0.7323 0.28127 0.0
H107 H 0.09692 0.69975 0.26192 0.0
H108 H 0.88561 0.5251 0.26302 0.0
H109 H 0.94017 0.52327 0.25886 0.0
H110 H 0.9209 0.55379 0.24502 0.0
H111 H 0.16786 0.5165 0.31321 0.0
H112 H 0.23974 0.5326 0.33039 0.0
H113 H 0.25491 0.5778 0.31498 0.0
H114 H 0.2711 0.53185 0.3117 0.0
H115 H 0.10222 0.46648 0.29139 0.0
H116 H 0.22715 0.58227 0.26898 0.0
H117 H 0.01338 0.4665 0.26276 0.0
H118 H 0.01893 0.49481 0.28301 0.0
H119 H 0.02208 0.44037 0.28128 0.0
H120 H 0.22167 0.63963 0.25268 0.0
H121 H 0.16532 0.63998 0.25198 0.0
H122 H 0.17615 0.60455 0.23673 0.0
H123 H 0.14393 0.44366 0.13677 0.0
H124 H 0.99442 0.39365 0.15656 0.0
H125 H 0.14103 0.50704 0.14835 0.0
H126 H 0.97341 0.44736 0.19176 0.0
H127 H 0.94233 0.40443 0.17452 0.0
H128 H 0.95209 0.46501 0.17405 0.0
H129 H 0.17564 0.58407 0.1615 0.0
H130 H 0.15074 0.58501 0.18165 0.0
H131 H 0.13158 0.6033 0.16355 0.0
H132 H 0.97942 0.76625 0.16868 0.0
H133 H 0.92036 0.79247 0.16288 0.0
H134 H 0.89042 0.73062 0.16929 0.0
H135 H 0.88872 0.74317 0.14749 0.0
H136 H 0.89684 0.6143 0.15647 0.0
H137 H 0.03689 0.74241 0.16396 0.0
H138 H 0.91541 0.54135 0.18487 0.0
H139 H 0.92822 0.52955 0.16404 0.0
H140 H 0.87794 0.53922 0.16741 0.0
H141 H 0.1041 0.74049 0.17537 0.0
H142 H 0.10046 0.68235 0.17538 0.0
H143 H 0.0844 0.7043 0.19367 0.0
H144 H 0.05955 0.58515 0.27697 0.0
H145 H 0.0986 0.509 0.23207 0.0
H146 H 0.08653 0.50172 0.20215 0.0
H147 H 0.02543 0.56824 0.1621 0.0
H148 H 0.98771 0.64565 0.20709 0.0
H149 H 0.99365 0.64729 0.2371 0.0
H150 H 0.07331 0.43291 0.10777 0.0
H151 H 0.13831 0.45841 0.10619 0.0
H152 H 0.11505 0.48846 0.11909 0.0
C153 C 0.37037 0.94663 0.65703 0.0
C154 C 0.37765 0.98398 0.64414 0.0
C155 C 0.40964 0.98666 0.6163 0.0
C156 C 0.43399 0.03699 0.61437 0.0
C157 C 0.47017 0.05884 0.60239 0.0
C158 C 0.48244 0.02975 0.5923 0.0
C159 C 0.4568 0.9788 0.59393 0.0
C160 C 0.42004 0.9579 0.60572 0.0
C161 C 0.49569 0.11304 0.60067 0.0
C162 C 0.46916 0.94645 0.58362 0.0
C163 C 0.80442 0.24652 0.64139 0.0
C164 C 0.78572 0.19621 0.63323 0.0
C165 C 0.74657 0.17265 0.60579 0.0
C166 C 0.71982 0.12204 0.60645 0.0
C167 C 0.67726 0.09466 0.59656 0.0
C168 C 0.6605 0.11875 0.58623 0.0
C169 C 0.6883 0.16998 0.58535 0.0
C170 C 0.73177 0.19609 0.59484 0.0
C171 C 0.64972 0.04017 0.59752 0.0
C172 C 0.67131 0.19762 0.57501 0.0
C173 C 0.69597 0.0941 0.47206 0.0
C174 C 0.66631 0.04806 0.47828 0.0
C175 C 0.63066 0.03961 0.49002 0.0
C176 C 0.6245 0.07836 0.49564 0.0
C177 C 0.65493 0.12534 0.48966 0.0
C178 C 0.69061 0.13287 0.47799 0.0
C179 C 0.59907 0.98911 0.49624 0.0
C180 C 0.64926 0.1674 0.49545 0.0
C181 C 0.24117 0.98564 0.49701 0.0
C182 C 0.28915 0.01732 0.48823 0.0
C183 C 0.35856 0.00467 0.49006 0.0
C184 C 0.36963 0.96852 0.493 0.0
C185 C 0.41594 0.98027 0.49902 0.0
C186 C 0.45191 0.0295 0.50211 0.0
C187 C 0.44184 0.06637 0.49821 0.0
C188 C 0.39537 0.05359 0.49205 0.0
C189 C 0.42599 0.94015 0.5026 0.0
C190 C 0.47989 0.11928 0.50091 0.0
C191 C 0.524 0.05245 0.58082 0.0
C192 C 0.57098 0.07409 0.58784 0.0
C193 C 0.61175 0.09129 0.57777 0.0
C194 C 0.60538 0.08467 0.56016 0.0
C195 C 0.64481 0.09668 0.54967 0.0
C196 C 0.63813 0.09096 0.53232 0.0
C197 C 0.59194 0.07399 0.52483 0.0
C198 C 0.5848 0.06906 0.50722 0.0
C199 C 0.53878 0.05401 0.5002 0.0
C200 C 0.49911 0.04255 0.51031 0.0
C201 C 0.50496 0.04504 0.52794 0.0
C202 C 0.46533 0.03179 0.53849 0.0
C203 C 0.47135 0.03377 0.55581 0.0
C204 C 0.51747 0.05039 0.56325 0.0
C205 C 0.55819 0.06549 0.55288 0.0
C206 C 0.55169 0.06146 0.5352 0.0
C207 C 0.73213 0.14955 0.43805 0.0
C208 C 0.75991 0.13998 0.45174 0.0
O209 O 0.37617 0.96465 0.62826 0.0
O210 O 0.31209 0.99091 0.48544 0.0
O211 O 0.72848 0.09891 0.46025 0.0
O212 O 0.78599 0.19971 0.61598 0.0
H213 H 0.41419 0.01645 0.64697 0.0
H214 H 0.39968 0.93772 0.65602 0.0
H215 H 0.33469 0.91272 0.65488 0.0
H216 H 0.37191 0.9614 0.66993 0.0
H217 H 0.42474 0.05918 0.62219 0.0
H218 H 0.4005 0.91903 0.6072 0.0
H219 H 0.53342 0.12983 0.60587 0.0
H220 H 0.47689 0.12937 0.60743 0.0
H221 H 0.49801 0.12198 0.58725 0.0
H222 H 0.44963 0.90846 0.58776 0.0
H223 H 0.50893 0.96048 0.58441 0.0
H224 H 0.45916 0.9463 0.57028 0.0
H225 H 0.74774 0.17261 0.63749 0.0
H226 H 0.78073 0.26079 0.63747 0.0
H227 H 0.84222 0.27211 0.63757 0.0
H228 H 0.80381 0.2446 0.65526 0.0
H229 H 0.73216 0.10411 0.61477 0.0
H230 H 0.7531 0.23527 0.59444 0.0
H231 H 0.6356 0.02264 0.58493 0.0
H232 H 0.61815 0.02884 0.60575 0.0
H233 H 0.67286 0.02675 0.60278 0.0
H234 H 0.69231 0.23718 0.57812 0.0
H235 H 0.63212 0.18424 0.57694 0.0
H236 H 0.67594 0.19214 0.56154 0.0
H237 H 0.77777 0.17183 0.46068 0.0
H238 H 0.67087 0.01846 0.47371 0.0
H239 H 0.71357 0.16892 0.47348 0.0
H240 H 0.6009 0.98998 0.51014 0.0
H241 H 0.6101 0.96345 0.4913 0.0
H242 H 0.56057 0.97527 0.49238 0.0
H243 H 0.67587 0.20182 0.48967 0.0
H244 H 0.65414 0.17243 0.50928 0.0
H245 H 0.6119 0.15944 0.49228 0.0
H246 H 0.31097 0.04879 0.49707 0.0
H247 H 0.22151 0.00567 0.49896 0.0
H248 H 0.24875 0.97589 0.50945 0.0
H249 H 0.21738 0.95156 0.48959 0.0
H250 H 0.34131 0.93088 0.49106 0.0
H251 H 0.38798 0.08192 0.48893 0.0
H252 H 0.4316 0.93942 0.5163 0.0
H253 H 0.45994 0.94706 0.49647 0.0
H254 H 0.39567 0.90402 0.49818 0.0
H255 H 0.46638 0.14363 0.49722 0.0
H256 H 0.51246 0.12783 0.49353 0.0
H257 H 0.49156 0.12696 0.51433 0.0
H258 H 0.57586 0.07761 0.60137 0.0
H259 H 0.68119 0.11032 0.5548 0.0
H260 H 0.66974 0.10064 0.52484 0.0
H261 H 0.53378 0.05122 0.48668 0.0
H262 H 0.42905 0.01919 0.53347 0.0
H263 H 0.43956 0.02274 0.56333 0.0
H264 H 0.7131 0.11775 0.42916 0.0
H265 H 0.75771 0.18183 0.43101 0.0
H266 H 0.70457 0.15673 0.44362 0.0
C267 C 0.8037 0.72999 0.81858 0.0
C268 C 0.76683 0.72484 0.80505 0.0
C269 C 0.69089 0.70449 0.81929 0.0
C270 C 0.65873 0.72089 0.82278 0.0
C271 C 0.61415 0.69106 0.83035 0.0
C272 C 0.60195 0.64387 0.83481 0.0
C273 C 0.63451 0.6271 0.83149 0.0
C274 C 0.67855 0.65746 0.82369 0.0
C275 C 0.58008 0.70993 0.83357 0.0
C276 C 0.62283 0.57712 0.83627 0.0
C277 C 0.27757 0.30461 0.78886 0.0
C278 C 0.31935 0.33828 0.80003 0.0
C279 C 0.36641 0.42375 0.80892 0.0
C280 C 0.39627 0.41774 0.82047 0.0
C281 C 0.43125 0.45697 0.83041 0.0
C282 C 0.43557 0.50298 0.82919 0.0
C283 C 0.40544 0.50921 0.81768 0.0
C284 C 0.37147 0.46947 0.80758 0.0
C285 C 0.46362 0.44907 0.84222 0.0
C286 C 0.40895 0.55768 0.81614 0.0
C287 C 0.31251 0.45038 0.93083 0.0
C288 C 0.34699 0.43702 0.9269 0.0
C289 C 0.39224 0.47084 0.92058 0.0
C290 C 0.40285 0.51876 0.91801 0.0
C291 C 0.36895 0.53279 0.92265 0.0
C292 C 0.32431 0.49839 0.92921 0.0
C293 C 0.42835 0.45516 0.91636 0.0
C294 C 0.37936 0.58371 0.92026 0.0
C295 C 0.76703 0.77698 0.93288 0.0
C296 C 0.73744 0.79044 0.94452 0.0
C297 C 0.6579 0.71767 0.9432 0.0
C298 C 0.64361 0.66868 0.94194 0.0
C299 C 0.602 0.63564 0.93248 0.0
C300 C 0.57359 0.65218 0.92454 0.0
C301 C 0.58622 0.70122 0.92673 0.0
C302 C 0.62858 0.73363 0.93598 0.0
C303 C 0.58929 0.58348 0.93053 0.0
C304 C 0.55567 0.71959 0.91896 0.0
C305 C 0.55517 0.61199 0.84297 0.0
C306 C 0.51652 0.57674 0.83298 0.0
C307 C 0.47202 0.5443 0.83994 0.0
C308 C 0.46497 0.54821 0.85723 0.0
C309 C 0.4199 0.51763 0.86448 0.0
C310 C 0.41412 0.51989 0.88165 0.0
C311 C 0.4533 0.55255 0.89225 0.0
C312 C 0.44851 0.55352 0.90983 0.0
C313 C 0.48797 0.58676 0.91998 0.0
C314 C 0.53263 0.61894 0.91307 0.0
C315 C 0.5384 0.61816 0.89554 0.0
C316 C 0.58321 0.6494 0.88821 0.0
C317 C 0.58867 0.64788 0.87099 0.0
C318 C 0.54968 0.61477 0.86044 0.0
C319 C 0.50427 0.58292 0.86756 0.0
C320 C 0.49855 0.58479 0.88512 0.0
C321 C 0.1889 0.3548 0.9275 0.0
C322 C 0.24138 0.36893 0.93181 0.0
O323 O 0.73329 0.73539 0.81184 0.0
O324 O 0.70033 0.74892 0.95135 0.0
O325 O 0.26753 0.41801 0.93616 0.0
O326 O 0.33258 0.38655 0.79893 0.0
H327 H 0.74787 0.68703 0.79969 0.0
H328 H 0.7851 0.7038 0.82855 0.0
H329 H 0.82269 0.76711 0.82446 0.0
H330 H 0.83114 0.72249 0.81302 0.0
H331 H 0.66858 0.75723 0.81939 0.0
H332 H 0.70311 0.6442 0.82125 0.0
H333 H 0.54347 0.68417 0.82802 0.0
H334 H 0.5934 0.74615 0.8283 0.0
H335 H 0.57594 0.71273 0.84727 0.0
H336 H 0.65365 0.57095 0.83412 0.0
H337 H 0.59073 0.5494 0.82877 0.0
H338 H 0.61326 0.57167 0.84968 0.0
H339 H 0.35094 0.33243 0.79953 0.0
H340 H 0.29293 0.28858 0.77981 0.0
H341 H 0.27342 0.32759 0.77932 0.0
H342 H 0.22279 0.26249 0.80554 0.0
H343 H 0.39284 0.38263 0.82175 0.0
H344 H 0.34829 0.47382 0.79867 0.0
H345 H 0.45294 0.45044 0.85532 0.0
H346 H 0.50222 0.47814 0.84111 0.0
H347 H 0.46088 0.41345 0.83979 0.0
H348 H 0.38015 0.55559 0.80764 0.0
H349 H 0.44502 0.58412 0.81122 0.0
H350 H 0.40601 0.57176 0.82868 0.0
H351 H 0.25613 0.36115 0.9203 0.0
H352 H 0.33866 0.40025 0.92876 0.0
H353 H 0.29766 0.50843 0.93256 0.0
H354 H 0.43168 0.45398 0.90256 0.0
H355 H 0.41721 0.41873 0.92105 0.0
H356 H 0.46486 0.48175 0.92178 0.0
H357 H 0.34845 0.58837 0.92397 0.0
H358 H 0.38732 0.59303 0.90693 0.0
H359 H 0.41212 0.60975 0.92786 0.0
H360 H 0.72209 0.80858 0.93704 0.0
H361 H 0.79718 0.81002 0.92741 0.0
H362 H 0.74332 0.7525 0.92243 0.0
H363 H 0.78253 0.75814 0.93983 0.0
H364 H 0.66629 0.65681 0.94784 0.0
H365 H 0.6388 0.77134 0.93756 0.0
H366 H 0.58744 0.57318 0.91704 0.0
H367 H 0.55284 0.55949 0.93571 0.0
H368 H 0.61617 0.57685 0.93703 0.0
H369 H 0.56677 0.75688 0.92362 0.0
H370 H 0.51664 0.69503 0.92164 0.0
H371 H 0.55937 0.7199 0.90515 0.0
H372 H 0.5217 0.57343 0.8197 0.0
H373 H 0.38866 0.49144 0.85694 0.0
H374 H 0.37865 0.49529 0.88653 0.0
H375 H 0.48409 0.58715 0.93346 0.0
H376 H 0.61471 0.67528 0.8957 0.0
H377 H 0.62405 0.67266 0.86609 0.0
H378 H 0.17177 0.36168 0.93848 0.0
H379 H 0.16707 0.31581 0.92357 0.0
H380 H 0.18838 0.37654 0.917 0.0
C381 C 0.0794 0.16536 0.10212 0.0
C382 C 0.08046 0.16236 0.08461 0.0
C383 C 0.08101 0.20548 0.11035 0.0
C384 C 0.08493 0.24383 0.10081 0.0
C385 C 0.08524 0.24057 0.08311 0.0
C386 C 0.08245 0.1996 0.07522 0.0
C387 C 0.07942 0.20724 0.12922 0.0
C388 C 0.09013 0.28108 0.07252 0.0
C389 C 0.05536 0.33621 0.11902 0.0
C390 C 0.10191 0.37528 0.12337 0.0
C391 C 0.04913 0.29256 0.11219 0.0
C392 C 0.0905 0.28829 0.10928 0.0
C393 C 0.13755 0.32753 0.11365 0.0
C394 C 0.14268 0.37059 0.12062 0.0
C395 C 0.99839 0.2514 0.10775 0.0
C396 C 0.18257 0.32448 0.11055 0.0
H397 H 0.07753 0.13644 0.1094 0.0
H398 H 0.08363 0.19759 0.06168 0.0
H399 H 0.11433 0.23762 0.13445 0.0
H400 H 0.05018 0.21413 0.13323 0.0
H401 H 0.07299 0.17305 0.1347 0.0
H402 H 0.08883 0.27243 0.0589 0.0
H403 H 0.0606 0.28871 0.07526 0.0
H404 H 0.12517 0.31477 0.07565 0.0
H405 H 0.0238 0.34002 0.12079 0.0
H406 H 0.17869 0.40102 0.1237 0.0
H407 H 0.992 0.21765 0.11355 0.0
H408 H 0.99434 0.24436 0.09399 0.0
H409 H 0.96991 0.25929 0.11193 0.0
H410 H 0.17986 0.29276 0.1168 0.0
H411 H 0.21634 0.35763 0.11517 0.0
H412 H 0.18564 0.31915 0.09692 0.0
C413 C 0.96988 0.08979 0.4208 0.0
C414 C 0.98127 0.1021 0.40406 0.0
C415 C 0.93364 0.09501 0.42872 0.0
C416 C 0.90826 0.11311 0.41971 0.0
C417 C 0.91921 0.12517 0.40276 0.0
C418 C 0.95553 0.11943 0.39512 0.0
C419 C 0.9228 0.08156 0.4468 0.0
C420 C 0.89293 0.14463 0.39275 0.0
C421 C 0.786 0.08856 0.43534 0.0
C422 C 0.79871 0.13252 0.44383 0.0
C423 C 0.82133 0.08165 0.42751 0.0
C424 C 0.87047 0.11978 0.42805 0.0
C425 C 0.8835 0.16437 0.43648 0.0
C426 C 0.8474 0.17027 0.44421 0.0
C427 C 0.80603 0.03363 0.41862 0.0
C428 C 0.93553 0.2059 0.43727 0.0
H429 H 0.98951 0.07628 0.42779 0.0
H430 H 0.96414 0.1291 0.38219 0.0
H431 H 0.92972 0.1138 0.45456 0.0
H432 H 0.8838 0.05376 0.44797 0.0
H433 H 0.94523 0.06721 0.45196 0.0
H434 H 0.90532 0.1517 0.37963 0.0
H435 H 0.85317 0.11847 0.39253 0.0
H436 H 0.89889 0.17891 0.39877 0.0
H437 H 0.74825 0.05959 0.43478 0.0
H438 H 0.85719 0.20451 0.45054 0.0
H439 H 0.82629 0.01728 0.42403 0.0
H440 H 0.81517 0.03924 0.40519 0.0
H441 H 0.7664 0.0075 0.41952 0.0
H442 H 0.9593 0.19433 0.44325 0.0
H443 H 0.93967 0.23809 0.44441 0.0
H444 H 0.94873 0.21672 0.42441 0.0
C445 C 0.94603 0.91084 0.73867 0.0
C446 C 0.92259 0.92701 0.72795 0.0
C447 C 0.92013 0.87663 0.75074 0.0
C448 C 0.86951 0.85789 0.75206 0.0
C449 C 0.84535 0.87307 0.74101 0.0
C450 C 0.87223 0.90759 0.72911 0.0
C451 C 0.94721 0.86149 0.76236 0.0
C452 C 0.79131 0.85357 0.74199 0.0
C453 C 0.79699 0.74151 0.77539 0.0
C454 C 0.79269 0.75925 0.79114 0.0
C455 C 0.8213 0.77313 0.76245 0.0
C456 C 0.84225 0.8237 0.76542 0.0
C457 C 0.83814 0.84184 0.78131 0.0
C458 C 0.81332 0.80939 0.79396 0.0
C459 C 0.82483 0.7525 0.74565 0.0
C460 C 0.86035 0.89557 0.785 0.0
H461 H 0.98494 0.92567 0.7379 0.0
H462 H 0.85382 0.91978 0.72085 0.0
H463 H 0.9446 0.87208 0.77548 0.0
H464 H 0.93042 0.82149 0.7617 0.0
H465 H 0.98629 0.87824 0.75933 0.0
H466 H 0.77761 0.86728 0.73197 0.0
H467 H 0.77115 0.81337 0.74099 0.0
H468 H 0.78298 0.86411 0.75432 0.0
H469 H 0.7813 0.7028 0.77319 0.0
H470 H 0.81018 0.82317 0.80615 0.0
H471 H 0.86358 0.76645 0.74276 0.0
H472 H 0.80932 0.76437 0.73564 0.0
H473 H 0.8054 0.71224 0.74524 0.0
H474 H 0.90026 0.9144 0.78327 0.0
H475 H 0.8535 0.90371 0.79796 0.0
H476 H 0.84534 0.91089 0.77608 0.0
C477 C 0.00491 0.93582 0.08935 0.0
C478 C 0.04841 0.95995 0.08061 0.0
C479 C 0.99764 0.90166 0.10119 0.0
C480 C 0.03468 0.8908 0.10439 0.0
C481 C 0.07859 0.91443 0.0955 0.0
C482 C 0.08508 0.94904 0.08372 0.0
C483 C 0.95025 0.8775 0.11041 0.0
C484 C 0.11857 0.90327 0.09848 0.0
C485 C 0.0178 0.83717 0.14695 0.0
C486 C 0.98753 0.78765 0.1429 0.0
C487 C 0.03745 0.87123 0.13439 0.0
C488 C 0.02669 0.85528 0.11737 0.0
C489 C -0.00041 0.80498 0.11319 0.0
C490 C 0.97967 0.77176 0.12601 0.0
C491 C 0.06567 0.9245 0.13942 0.0
C492 C 0.98795 0.78642 0.09519 0.0
H493 H 0.97626 0.94387 0.08706 0.0
H494 H 0.11872 0.96744 0.07696 0.0
H495 H 0.93126 0.83764 0.10812 0.0
H496 H 0.95757 0.88474 0.1241 0.0
H497 H 0.92534 0.89035 0.10651 0.0
H498 H 0.14943 0.9229 0.08996 0.0
H499 H 0.13252 0.91349 0.11161 0.0
H500 H 0.10406 0.86375 0.0967 0.0
H501 H 0.02358 0.84956 0.15999 0.0
H502 H 0.95599 0.73359 0.12275 0.0
H503 H 0.04232 0.94043 0.13736 0.0
H504 H 0.09819 0.94414 0.13163 0.0
H505 H 0.07753 0.93068 0.15282 0.0
H506 H 0.95858 0.79187 0.09021 0.0
H507 H 0.97547 0.74716 0.09396 0.0
H508 H 0.02019 0.8067 0.08731 0.0
C509 C 0.17288 0.09157 0.41638 0.0
C510 C 0.19503 0.10097 0.40075 0.0
C511 C 0.19284 0.0807 0.43009 0.0
C512 C 0.23649 0.07987 0.42823 0.0
C513 C 0.26009 0.09108 0.41268 0.0
C514 C 0.23886 0.10116 0.39906 0.0
C515 C 0.16629 0.06855 0.44642 0.0
C516 C 0.30716 0.09142 0.41034 0.0
C517 C 0.29775 0.08368 0.46961 0.0
C518 C 0.28031 0.0343 0.47179 0.0
C519 C 0.28614 0.09948 0.455 0.0
C520 C 0.25571 0.06493 0.44244 0.0
C521 C 0.23976 0.01525 0.44427 0.0
C522 C 0.25272 0.00062 0.45885 0.0
C523 C 0.30476 0.15287 0.45334 0.0
C524 C 0.2069 0.97722 0.43124 0.0
H525 H 0.13899 0.09128 0.41783 0.0
H526 H 0.25633 0.10864 0.38704 0.0
H527 H 0.15526 0.03091 0.44963 0.0
H528 H 0.1907 0.09297 0.45672 0.0
H529 H 0.13324 0.07176 0.44589 0.0
H530 H 0.32296 0.10473 0.39791 0.0
H531 H 0.33422 0.11467 0.42026 0.0
H532 H 0.30075 0.05422 0.41151 0.0
H533 H 0.3196 0.10989 0.4795 0.0
H534 H 0.23983 0.96251 0.46041 0.0
H535 H 0.27409 0.1597 0.45444 0.0
H536 H 0.32053 0.16473 0.44083 0.0
H537 H 0.33282 0.17545 0.46312 0.0
H538 H 0.17132 0.97556 0.43065 0.0
H539 H 0.20033 0.94062 0.43403 0.0
H540 H 0.22292 0.9869 0.41868 0.0
C541 C 0.14235 0.17518 0.74099 0.0
C542 C 0.0967 0.13689 0.74539 0.0
C543 C 0.17422 0.20941 0.75312 0.0
C544 C 0.16031 0.20486 0.77002 0.0
C545 C 0.11384 0.16719 0.77448 0.0
C546 C 0.08235 0.13377 0.76207 0.0
C547 C 0.22323 0.24964 0.7479 0.0
C548 C 0.09816 0.16104 0.79245 0.0
C549 C 0.27809 0.25383 0.80886 0.0
C550 C 0.28565 0.31479 0.81262 0.0
C551 C 0.23475 0.21754 0.79243 0.0
C552 C 0.1956 0.23658 0.78319 0.0
C553 C 0.19536 0.29023 0.79069 0.0
C554 C 0.23743 0.329 0.80712 0.0
C555 C 0.23132 0.17146 0.78638 0.0
C556 C 0.16078 0.30302 0.78307 0.0
H557 H 0.15348 0.1781 0.72809 0.0
H558 H 0.04714 0.10427 0.76557 0.0
H559 H 0.22924 0.28514 0.75273 0.0
H560 H 0.25224 0.24441 0.75337 0.0
H561 H 0.22673 0.25076 0.73407 0.0
H562 H 0.05988 0.13136 0.79375 0.0
H563 H 0.12221 0.15287 0.80006 0.0
H564 H 0.102 0.19527 0.79771 0.0
H565 H 0.30457 0.24504 0.81346 0.0
H566 H 0.24046 0.36319 0.81083 0.0
H567 H 0.23921 0.17356 0.77284 0.0
H568 H 0.19359 0.14098 0.78786 0.0
H569 H 0.25733 0.16486 0.79346 0.0
H570 H 0.16449 0.30387 0.76927 0.0
H571 H 0.16793 0.33869 0.78817 0.0
H572 H 0.12296 0.2746 0.78575 0.0
C573 C 0.98126 0.15865 0.68073 0.0
C574 C 0.97955 0.11463 0.67733 0.0
C575 C 0.94955 0.16989 0.67245 0.0
C576 C 0.91568 0.13656 0.66029 0.0
C577 C 0.9146 0.09261 0.65645 0.0
C578 C 0.94637 0.08199 0.66511 0.0
C579 C 0.95148 0.21692 0.67703 0.0
C580 C 0.87936 0.05652 0.64342 0.0
C581 C 0.80411 0.14735 0.65296 0.0
C582 C 0.81706 0.17598 0.63885 0.0
C583 C 0.83511 0.13272 0.6597 0.0
C584 C 0.88026 0.1472 0.65215 0.0
C585 C 0.89295 0.17494 0.6376 0.0
C586 C 0.8614 0.18943 0.63121 0.0
C587 C 0.82046 0.10355 0.67532 0.0
C588 C 0.94067 0.19084 0.62917 0.0
H589 H 0.00666 0.184 0.69019 0.0
H590 H 0.945 0.04799 0.66236 0.0
H591 H 0.95766 0.2384 0.66571 0.0
H592 H 0.9161 0.20919 0.68214 0.0
H593 H 0.9807 0.23938 0.68648 0.0
H594 H 0.88504 0.02538 0.6412 0.0
H595 H 0.84146 0.04244 0.64747 0.0
H596 H 0.88321 0.0745 0.63139 0.0
H597 H 0.77022 0.13759 0.65903 0.0
H598 H 0.87192 0.21229 0.62048 0.0
H599 H 0.84588 0.12528 0.68584 0.0
H600 H 0.8229 0.07043 0.6734 0.0
H601 H 0.78285 0.09262 0.67901 0.0
H602 H 0.97122 0.2172 0.63753 0.0
H603 H 0.94297 0.20814 0.61709 0.0
H604 H 0.94569 0.15937 0.62682 0.0
C605 C 0.95908 0.96778 0.00527 0.0
C606 C 0.94721 0.98917 0.01856 0.0
C607 C 0.92369 0.93632 0.99342 0.0
C608 C 0.87513 0.92566 0.99496 0.0
C609 C 0.86284 0.94723 0.00828 0.0
C610 C 0.89915 0.97897 0.01991 0.0
C611 C 0.93828 0.91434 0.97929 0.0
C612 C 0.81128 0.93634 0.01033 0.0
C613 C 0.79445 0.87544 0.95583 0.0
C614 C 0.77023 0.82545 0.9583 0.0
C615 C 0.82787 0.90864 0.96785 0.0
C616 C 0.83724 0.89133 0.98269 0.0
C617 C 0.81253 0.84093 0.98536 0.0
C618 C 0.77977 0.80853 0.97302 0.0
C619 C 0.85421 0.96209 0.96445 0.0
C620 C 0.82158 0.82117 0.00105 0.0
H621 H 0.99622 0.97571 0.00407 0.0
H622 H 0.88974 0.99533 0.03016 0.0
H623 H 0.91803 0.87426 0.97995 0.0
H624 H 0.92865 0.9232 0.96705 0.0
H625 H 0.97789 0.92741 0.97964 0.0
H626 H 0.80783 0.95655 0.02125 0.0
H627 H 0.79852 0.94581 0.99888 0.0
H628 H 0.78673 0.89694 0.01199 0.0
H629 H 0.78785 0.88846 0.94429 0.0
H630 H 0.76203 0.76986 0.97482 0.0
H631 H 0.8938 0.97596 0.96353 0.0
H632 H 0.8495 0.98257 0.97497 0.0
H633 H 0.84107 0.96975 0.95266 0.0
H634 H 0.85975 0.82919 0.00149 0.0
H635 H 0.79693 0.78135 0.00173 0.0
H636 H 0.81656 0.83909 0.01231 0.0
C637 C 0.99047 0.91777 0.36099 0.0
C638 C 0.02341 0.96131 0.3536 0.0
C639 C 0.97857 0.87285 0.35352 0.0
C640 C 0.00023 0.87136 0.3383 0.0
C641 C 0.03246 0.91508 0.3305 0.0
C642 C 0.04365 0.95963 0.33824 0.0
C643 C 0.9438 0.827 0.3622 0.0
C644 C 0.05616 0.91483 0.31425 0.0
C645 C 0.00709 0.75749 0.33154 0.0
C646 C 0.96606 0.72879 0.32116 0.0
C647 C 0.01998 0.80491 0.33654 0.0
C648 C 0.99086 0.82394 0.33114 0.0
C649 C 0.95038 0.79578 0.32017 0.0
C650 C 0.93831 0.7484 0.31536 0.0
C651 C 0.06343 0.83376 0.34826 0.0
C652 C 0.91849 0.81482 0.31414 0.0
H653 H 0.9744 0.91868 0.3728 0.0
H654 H 0.06911 0.99313 0.33244 0.0
H655 H 0.91339 0.80215 0.35351 0.0
H656 H 0.96297 0.80781 0.36594 0.0
H657 H 0.92835 0.83433 0.37356 0.0
H658 H 0.07785 0.95169 0.30924 0.0
H659 H 0.08054 0.90005 0.31621 0.0
H660 H 0.02811 0.89085 0.3047 0.0
H661 H 0.0283 0.74225 0.33616 0.0
H662 H 0.90625 0.72605 0.30748 0.0
H663 H 0.05099 0.8392 0.36063 0.0
H664 H 0.08791 0.87016 0.34333 0.0
H665 H 0.08462 0.81538 0.35013 0.0
H666 H 0.89835 0.81832 0.32483 0.0
H667 H 0.89167 0.79057 0.30429 0.0
H668 H 0.94102 0.85144 0.30909 0.0
C669 C 0.17191 0.05916 0.65518 0.0
C670 C 0.14722 0.03735 0.66977 0.0
C671 C 0.2089 0.05157 0.64917 0.0
C672 C 0.22169 0.02187 0.65806 0.0
C673 C 0.19631 0.99913 0.67261 0.0
C674 C 0.15929 0.00696 0.67824 0.0
C675 C 0.23486 0.07596 0.6335 0.0
C676 C 0.20904 0.96739 0.68251 0.0
C677 C 0.29166 0.96657 0.63886 0.0
C678 C 0.33854 0.9972 0.64575 0.0
C679 C 0.25371 0.97556 0.64205 0.0
C680 C 0.26271 0.01566 0.65261 0.0
C681 C 0.31028 0.04746 0.65921 0.0
C682 C 0.34758 0.03775 0.65572 0.0
C683 C 0.20352 0.94093 0.63475 0.0
C684 C 0.32128 0.09041 0.67061 0.0
H685 H 0.16267 0.08253 0.64852 0.0
H686 H 0.14049 0.98996 0.68953 0.0
H687 H 0.27382 0.10195 0.63655 0.0
H688 H 0.23336 0.04864 0.62428 0.0
H689 H 0.21888 0.09583 0.62755 0.0
H690 H 0.18505 0.95148 0.69334 0.0
H691 H 0.20614 0.93744 0.67433 0.0
H692 H 0.24729 0.98894 0.68725 0.0
H693 H 0.28437 0.93474 0.63136 0.0
H694 H 0.38361 0.06107 0.66125 0.0
H695 H 0.18824 0.96121 0.62868 0.0
H696 H 0.1788 0.9203 0.64493 0.0
H697 H 0.20369 0.9147 0.62539 0.0
H698 H 0.30819 0.11282 0.66475 0.0
H699 H 0.36082 0.1137 0.67362 0.0
H700 H 0.30175 0.07746 0.6825 0.0
C701 C 0.1227 0.17972 0.99792 0.0
C702 C 0.14834 0.16695 0.00898 0.0
C703 C 0.14649 0.21355 0.98565 0.0
C704 C 0.19754 0.23565 0.98435 0.0
C705 C 0.22381 0.2223 0.9952 0.0
C706 C 0.19877 0.18778 0.00742 0.0
C707 C 0.11682 0.22624 0.97425 0.0
C708 C 0.27828 0.24533 0.99418 0.0
C709 C 0.23471 0.2925 0.94231 0.0
C710 C 0.24203 0.33882 0.94598 0.0
C711 C 0.22491 0.25963 0.95502 0.0
C712 C 0.22238 0.2735 0.97179 0.0
C713 C 0.23388 0.32161 0.97573 0.0
C714 C 0.2429 0.35352 0.96275 0.0
C715 C 0.21253 0.20863 0.95024 0.0
C716 C 0.23212 0.33807 0.99347 0.0
H717 H 0.08363 0.1634 0.9989 0.0
H718 H 0.21873 0.17807 0.01596 0.0
H719 H 0.12856 0.26514 0.97614 0.0
H720 H 0.12284 0.22033 0.96095 0.0
H721 H 0.07718 0.20439 0.97654 0.0
H722 H 0.29286 0.22852 0.00265 0.0
H723 H 0.28852 0.24224 0.98116 0.0
H724 H 0.29601 0.28456 0.99761 0.0
H725 H 0.23366 0.28094 0.92935 0.0
H726 H 0.24811 0.3891 0.96569 0.0
H727 H 0.17248 0.18411 0.95047 0.0
H728 H 0.22917 0.19533 0.95931 0.0
H729 H 0.22486 0.20616 0.93747 0.0
H730 H 0.1936 0.32276 0.99699 0.0
H731 H 0.25076 0.37821 0.99489 0.0
H732 H 0.24924 0.32481 0.00236 0.0
C733 C 0.15645 0.26062 0.34218 0.0
C734 C 0.1141 0.21878 0.33615 0.0
C735 C 0.17009 0.30626 0.33601 0.0
C736 C 0.14084 0.31012 0.32343 0.0
C737 C 0.09942 0.26778 0.3167 0.0
C738 C 0.08648 0.2226 0.32317 0.0
C739 C 0.21457 0.3506 0.3435 0.0
C740 C 0.06761 0.27041 0.30317 0.0
C741 C 0.14413 0.43008 0.32328 0.0
C742 C 0.17661 0.4539 0.31047 0.0
C743 C 0.13122 0.38279 0.3273 0.0
C744 C 0.15152 0.3588 0.31834 0.0
C745 C 0.18358 0.38225 0.30514 0.0
C746 C 0.19603 0.42972 0.30143 0.0
C747 C 0.09699 0.35907 0.3415 0.0
C748 C 0.20579 0.35775 0.29527 0.0
H749 H 0.17811 0.25803 0.35217 0.0
H750 H 0.05386 0.19043 0.31835 0.0
H751 H 0.23905 0.37253 0.33348 0.0
H752 H 0.20337 0.37376 0.35041 0.0
H753 H 0.23536 0.34113 0.35229 0.0
H754 H 0.03956 0.23392 0.29814 0.0
H755 H 0.04894 0.28905 0.30831 0.0
H756 H 0.09007 0.29197 0.2927 0.0
H757 H 0.12963 0.44897 0.33043 0.0
H758 H 0.22176 0.44838 0.29169 0.0
H759 H 0.11613 0.35198 0.3517 0.0
H760 H 0.06568 0.32359 0.33713 0.0
H761 H 0.08284 0.38187 0.34675 0.0
H762 H 0.23024 0.35197 0.3036 0.0
H763 H 0.22711 0.37946 0.28461 0.0
H764 H 0.17693 0.32156 0.29035 0.0
loop_
_geom_bond_atom_site_label_1
_geom_bond_atom_site_label_2
_geom_bond_distance
_geom_bond_site_symmetry_2
_ccdc_geom_bond_type
C0 O1 1.165 . S
C0 O7 1.188 . S
O1 C0 1.165 . S
O2 Zn3 1.899 . S
O2 C10 1.284 . S
Zn3 O2 1.899 . S
Zn3 O4 2.032 1_455 S
Zn3 O7 2.086 . S
Zn3 O12 1.977 . S
O4 Zn3 2.032 1_655 S
O4 C8 1.278 . S
C5 O6 1.203 . S
C5 O12 1.267 . S
O6 C5 1.203 . S
O7 C0 1.188 . S
O7 Zn3 2.086 . S
C8 O4 1.278 . S
C8 O9 1.211 . S
O9 C8 1.211 . S
C10 O2 1.284 . S
C10 O11 1.273 1_455 S
O11 C10 1.273 1_655 S
O12 Zn3 1.977 . S
O12 C5 1.267 . S
C13 O14 1.160 . S
C13 O20 1.185 . S
O14 C13 1.160 . S
O15 Zn16 1.899 . S
O15 C23 1.284 . S
Zn16 O15 1.899 . S
Zn16 O17 2.032 . S
Zn16 O20 2.086 . S
Zn16 O25 1.977 . S
O17 Zn16 2.032 . S
O17 C21 1.278 . S
C18 O19 1.203 . S
C18 O25 1.267 . S
O19 C18 1.203 . S
O20 C13 1.185 . S
O20 Zn16 2.086 . S
C21 O17 1.278 . S
C21 O22 1.211 . S
O22 C21 1.211 . S
C23 O15 1.284 . S
C23 O24 1.273 . S
O24 C23 1.273 . S
O25 Zn16 1.977 . S
O25 C18 1.267 . S
C26 O27 1.160 . S
C26 O33 1.185 . S
O27 C26 1.160 . S
O28 Zn29 1.899 1_655 S
O28 C36 1.284 . S
Zn29 O28 1.899 1_455 S
Zn29 O30 2.032 . S
Zn29 O33 2.086 . S
Zn29 O38 1.977 1_545 S
O30 Zn29 2.032 . S
O30 C34 1.278 . S
C31 O32 1.203 . S
C31 O38 1.267 1_655 S
O32 C31 1.203 . S
O33 C26 1.185 . S
O33 Zn29 2.086 . S
C34 O30 1.278 . S
C34 O35 1.211 . S
O35 C34 1.211 . S
C36 O28 1.284 . S
C36 O37 1.274 1_655 S
O37 C36 1.274 1_455 S
O38 Zn29 1.977 1_565 S
O38 C31 1.267 1_455 S
C39 C40 1.560 1_655 S
C39 H100 0.959 . S
C39 H101 0.959 . S
C39 H102 0.960 . S
C40 C39 1.560 1_455 S
C40 O95 1.426 1_455 S
C40 H99 0.980 . S
C41 C42 1.407 . S
C41 C46 1.418 1_455 S
C41 O95 1.334 1_455 S
C42 C41 1.407 . S
C42 C43 1.360 . S
C42 H103 0.929 . S
C43 C42 1.360 . S
C43 C44 1.401 . S
C43 C47 1.527 . S
C44 C43 1.401 . S
C44 C45 1.405 1_455 S
C44 C77 1.587 . S
C45 C44 1.405 1_655 S
C45 C46 1.332 . S
C45 C48 1.496 . S
C46 C41 1.418 1_655 S
C46 C45 1.332 . S
C46 H104 0.929 . S
C47 C43 1.527 . S
C47 H105 0.959 . S
C47 H106 0.961 . S
C47 H107 0.961 . S
C48 C45 1.496 . S
C48 H108 0.960 . S
C48 H109 0.960 . S
C48 H110 0.961 . S
C49 C50 1.517 . S
C49 H112 0.961 . S
C49 H113 0.960 . S
C49 H114 0.959 . S
C50 C49 1.517 . S
C50 O98 1.468 . S
C50 H111 0.980 . S
C51 C52 1.349 . S
C51 C56 1.367 . S
C51 O98 1.408 . S
C52 C51 1.349 . S
C52 C53 1.407 . S
C52 H115 0.930 . S
C53 C52 1.407 . S
C53 C54 1.449 . S
C53 C57 1.535 1_455 S
C54 C53 1.449 . S
C54 C55 1.384 . S
C54 C79 1.553 . S
C55 C54 1.384 . S
C55 C56 1.364 . S
C55 C58 1.450 . S
C56 C51 1.367 . S
C56 C55 1.364 . S
C56 H116 0.931 . S
C57 C53 1.535 1_655 S
C57 H117 0.959 . S
C57 H118 0.961 . S
C57 H119 0.959 . S
C58 C55 1.450 . S
C58 H120 0.960 . S
C58 H121 0.960 . S
C58 H122 0.960 . S
C59 C60 1.309 . S
C59 C64 1.304 . S
C59 O97 1.435 . S
C60 C59 1.309 . S
C60 C61 1.476 . S
C60 H124 0.927 1_455 S
C61 C60 1.476 . S
C61 C62 1.400 . S
C61 C65 1.567 1_455 S
C62 C61 1.400 . S
C62 C63 1.373 . S
C62 C84 1.432 . S
C63 C62 1.373 . S
C63 C64 1.339 . S
C63 C66 1.530 . S
C64 C59 1.304 . S
C64 C63 1.339 . S
C64 H125 0.930 . S
C65 C61 1.567 1_655 S
C65 H126 0.961 . S
C65 H127 0.960 . S
C65 H128 0.958 . S
C66 C63 1.530 . S
C66 H129 0.961 . S
C66 H130 0.960 . S
C66 H131 0.960 . S
C67 C68 1.530 1_655 S
C67 H133 0.962 . S
C67 H134 0.961 . S
C67 H135 0.959 . S
C68 C67 1.530 1_455 S
C68 O96 1.412 1_455 S
C68 H132 0.980 . S
C69 C70 1.288 . S
C69 C74 1.377 1_655 S
C69 O96 1.393 . S
C70 C69 1.288 . S
C70 C71 1.369 . S
C70 H136 0.932 . S
C71 C70 1.369 . S
C71 C72 1.398 1_655 S
C71 C75 1.527 . S
C72 C71 1.398 1_455 S
C72 C73 1.380 . S
C72 C86 1.497 . S
C73 C72 1.380 . S
C73 C74 1.383 . S
C73 C76 1.603 . S
C74 C69 1.377 1_455 S
C74 C73 1.383 . S
C74 H137 0.929 . S
C75 C71 1.527 . S
C75 H138 0.961 . S
C75 H139 0.959 . S
C75 H140 0.959 . S
C76 C73 1.603 . S
C76 H141 0.960 . S
C76 H142 0.962 . S
C76 H143 0.961 . S
C77 C44 1.587 . S
C77 C78 1.360 . S
C77 C90 1.412 . S
C78 C77 1.360 . S
C78 C79 1.365 . S
C78 H144 0.929 . S
C79 C54 1.553 . S
C79 C78 1.365 . S
C79 C80 1.404 . S
C80 C79 1.404 . S
C80 C81 1.395 . S
C80 C91 1.451 . S
C81 C80 1.395 . S
C81 C82 1.322 . S
C81 H145 0.930 . S
C82 C81 1.322 . S
C82 C83 1.459 . S
C82 H146 0.929 . S
C83 C82 1.459 . S
C83 C84 1.445 . S
C83 C92 1.395 . S
C84 C62 1.432 . S
C84 C83 1.445 . S
C84 C85 1.370 . S
C85 C84 1.370 . S
C85 C86 1.438 . S
C85 H147 0.930 . S
C86 C72 1.497 . S
C86 C85 1.438 . S
C86 C87 1.360 . S
C87 C86 1.360 . S
C87 C88 1.401 . S
C87 C92 1.446 . S
C88 C87 1.401 . S
C88 C89 1.347 . S
C88 H148 0.929 . S
C89 C88 1.347 . S
C89 C90 1.455 . S
C89 H149 0.930 . S
C90 C77 1.412 . S
C90 C89 1.455 . S
C90 C91 1.331 . S
C91 C80 1.451 . S
C91 C90 1.331 . S
C91 C92 1.497 . S
C92 C83 1.395 . S
C92 C87 1.446 . S
C92 C91 1.497 . S
C93 C94 1.582 . S
C93 H150 0.962 . S
C93 H151 0.959 . S
C93 H152 0.958 . S
C94 C93 1.582 . S
C94 O97 1.458 . S
C94 H123 0.980 . S
O95 C40 1.426 1_655 S
O95 C41 1.334 1_655 S
O96 C68 1.412 1_655 S
O96 C69 1.393 . S
O97 C59 1.435 . S
O97 C94 1.458 . S
O98 C50 1.468 . S
O98 C51 1.408 . S
H99 C40 0.980 . S
H100 C39 0.959 . S
H101 C39 0.959 . S
H102 C39 0.960 . S
H103 C42 0.929 . S
H104 C46 0.929 . S
H105 C47 0.959 . S
H106 C47 0.961 . S
H107 C47 0.961 . S
H108 C48 0.960 . S
H109 C48 0.960 . S
H110 C48 0.961 . S
H111 C50 0.980 . S
H112 C49 0.961 . S
H113 C49 0.960 . S
H114 C49 0.959 . S
H115 C52 0.930 . S
H116 C56 0.931 . S
H117 C57 0.959 . S
H118 C57 0.961 . S
H119 C57 0.959 . S
H120 C58 0.960 . S
H121 C58 0.960 . S
H122 C58 0.960 . S
H123 C94 0.980 . S
H124 C60 0.927 1_655 S
H125 C64 0.930 . S
H126 C65 0.961 . S
H127 C65 0.960 . S
H128 C65 0.958 . S
H129 C66 0.961 . S
H130 C66 0.960 . S
H131 C66 0.960 . S
H132 C68 0.980 . S
H133 C67 0.962 . S
H134 C67 0.961 . S
H135 C67 0.959 . S
H136 C70 0.932 . S
H137 C74 0.929 . S
H138 C75 0.961 . S
H139 C75 0.959 . S
H140 C75 0.959 . S
H141 C76 0.960 . S
H142 C76 0.962 . S
H143 C76 0.961 . S
H144 C78 0.929 . S
H145 C81 0.930 . S
H146 C82 0.929 . S
H147 C85 0.930 . S
H148 C88 0.929 . S
H149 C89 0.930 . S
H150 C93 0.962 . S
H151 C93 0.959 . S
H152 C93 0.958 . S
C153 C154 1.560 1_565 S
C153 H214 0.959 . S
C153 H215 0.959 . S
C153 H216 0.960 1_565 S
C154 C153 1.560 1_545 S
C154 O209 1.426 . S
C154 H213 0.980 . S
C155 C156 1.407 . S
C155 C160 1.418 1_545 S
C155 O209 1.334 . S
C156 C155 1.407 . S
C156 C157 1.360 . S
C156 H217 0.929 . S
C157 C156 1.360 . S
C157 C158 1.401 . S
C157 C161 1.527 . S
C158 C157 1.401 . S
C158 C159 1.405 . S
C158 C191 1.587 . S
C159 C158 1.405 . S
C159 C160 1.332 1_545 S
C159 C162 1.496 1_545 S
C160 C155 1.418 1_565 S
C160 C159 1.332 1_565 S
C160 H218 0.929 . S
C161 C157 1.527 . S
C161 H219 0.959 . S
C161 H220 0.961 . S
C161 H221 0.961 . S
C162 C159 1.496 1_565 S
C162 H222 0.960 . S
C162 H223 0.960 . S
C162 H224 0.961 . S
C163 C164 1.517 . S
C163 H226 0.961 . S
C163 H227 0.960 . S
C163 H228 0.959 . S
C164 C163 1.517 . S
C164 O212 1.468 . S
C164 H225 0.980 . S
C165 C166 1.349 . S
C165 C170 1.367 . S
C165 O212 1.408 . S
C166 C165 1.349 . S
C166 C167 1.407 . S
C166 H229 0.930 . S
C167 C166 1.407 . S
C167 C168 1.449 . S
C167 C171 1.535 . S
C168 C167 1.449 . S
C168 C169 1.384 . S
C168 C193 1.553 . S
C169 C168 1.384 . S
C169 C170 1.364 . S
C169 C172 1.450 . S
C170 C165 1.367 . S
C170 C169 1.364 . S
C170 H230 0.931 . S
C171 C167 1.535 . S
C171 H231 0.959 . S
C171 H232 0.961 1_545 S
C171 H233 0.959 1_545 S
C172 C169 1.450 . S
C172 H234 0.960 . S
C172 H235 0.960 . S
C172 H236 0.960 . S
C173 C174 1.309 . S
C173 C178 1.304 . S
C173 O211 1.435 . S
C174 C173 1.309 . S
C174 C175 1.476 . S
C174 H238 0.930 . S
C175 C174 1.476 . S
C175 C176 1.400 . S
C175 C179 1.567 . S
C176 C175 1.400 . S
C176 C177 1.373 . S
C176 C198 1.432 . S
C177 C176 1.373 . S
C177 C178 1.339 . S
C177 C180 1.530 . S
C178 C173 1.304 . S
C178 C177 1.339 . S
C178 H239 0.930 . S
C179 C175 1.567 . S
C179 H240 0.961 . S
C179 H241 0.960 1_545 S
C179 H242 0.958 1_545 S
C180 C177 1.530 . S
C180 H243 0.961 . S
C180 H244 0.960 . S
C180 H245 0.960 . S
C181 C182 1.530 . S
C181 H247 0.961 . S
C181 H248 0.961 . S
C181 H249 0.959 . S
C182 C181 1.530 . S
C182 O210 1.412 . S
C182 H246 0.980 . S
C183 C184 1.288 . S
C183 C188 1.377 . S
C183 O210 1.393 . S
C184 C183 1.288 . S
C184 C185 1.369 . S
C184 H250 0.932 1_545 S
C185 C184 1.369 . S
C185 C186 1.398 . S
C185 C189 1.527 1_545 S
C186 C185 1.398 . S
C186 C187 1.380 . S
C186 C200 1.497 . S
C187 C186 1.380 . S
C187 C188 1.383 . S
C187 C190 1.603 . S
C188 C183 1.377 . S
C188 C187 1.383 . S
C188 H251 0.929 . S
C189 C185 1.527 1_565 S
C189 H252 0.961 . S
C189 H253 0.959 . S
C189 H254 0.959 . S
C190 C187 1.603 . S
C190 H255 0.960 . S
C190 H256 0.962 . S
C190 H257 0.961 . S
C191 C158 1.587 . S
C191 C192 1.360 . S
C191 C204 1.412 . S
C192 C191 1.360 . S
C192 C193 1.365 . S
C192 H258 0.929 . S
C193 C168 1.553 . S
C193 C192 1.365 . S
C193 C194 1.404 . S
C194 C193 1.404 . S
C194 C195 1.395 . S
C194 C205 1.451 . S
C195 C194 1.395 . S
C195 C196 1.322 . S
C195 H259 0.930 . S
C196 C195 1.322 . S
C196 C197 1.459 . S
C196 H260 0.929 . S
C197 C196 1.459 . S
C197 C198 1.445 . S
C197 C206 1.395 . S
C198 C176 1.432 . S
C198 C197 1.445 . S
C198 C199 1.370 . S
C199 C198 1.370 . S
C199 C200 1.438 . S
C199 H261 0.930 . S
C200 C186 1.497 . S
C200 C199 1.438 . S
C200 C201 1.360 . S
C201 C200 1.360 . S
C201 C202 1.401 . S
C201 C206 1.446 . S
C202 C201 1.401 . S
C202 C203 1.347 . S
C202 H262 0.929 . S
C203 C202 1.347 . S
C203 C204 1.455 . S
C203 H263 0.930 . S
C204 C191 1.412 . S
C204 C203 1.455 . S
C204 C205 1.331 . S
C205 C194 1.451 . S
C205 C204 1.331 . S
C205 C206 1.497 . S
C206 C197 1.395 . S
C206 C201 1.446 . S
C206 C205 1.497 . S
C207 C208 1.582 . S
C207 H264 0.962 . S
C207 H265 0.959 . S
C207 H266 0.958 . S
C208 C207 1.582 . S
C208 O211 1.458 . S
C208 H237 0.980 . S
O209 C154 1.426 . S
O209 C155 1.334 . S
O210 C182 1.412 . S
O210 C183 1.393 . S
O211 C173 1.435 . S
O211 C208 1.458 . S
O212 C164 1.468 . S
O212 C165 1.408 . S
H213 C154 0.980 . S
H214 C153 0.959 . S
H215 C153 0.959 . S
H216 C153 0.960 1_545 S
H217 C156 0.929 . S
H218 C160 0.929 . S
H219 C161 0.959 . S
H220 C161 0.961 . S
H221 C161 0.961 . S
H222 C162 0.960 . S
H223 C162 0.960 . S
H224 C162 0.961 . S
H225 C164 0.980 . S
H226 C163 0.961 . S
H227 C163 0.960 . S
H228 C163 0.959 . S
H229 C166 0.930 . S
H230 C170 0.931 . S
H231 C171 0.959 . S
H232 C171 0.961 1_565 S
H233 C171 0.959 1_565 S
H234 C172 0.960 . S
H235 C172 0.960 . S
H236 C172 0.960 . S
H237 C208 0.980 . S
H238 C174 0.930 . S
H239 C178 0.930 . S
H240 C179 0.961 . S
H241 C179 0.960 1_565 S
H242 C179 0.958 1_565 S
H243 C180 0.961 . S
H244 C180 0.960 . S
H245 C180 0.960 . S
H246 C182 0.980 . S
H247 C181 0.961 . S
H248 C181 0.961 . S
H249 C181 0.959 . S
H250 C184 0.932 1_565 S
H251 C188 0.929 . S
H252 C189 0.961 . S
H253 C189 0.959 . S
H254 C189 0.959 . S
H255 C190 0.960 . S
H256 C190 0.962 . S
H257 C190 0.961 . S
H258 C192 0.929 . S
H259 C195 0.930 . S
H260 C196 0.929 . S
H261 C199 0.930 . S
H262 C202 0.929 . S
H263 C203 0.930 . S
H264 C207 0.962 . S
H265 C207 0.959 . S
H266 C207 0.958 . S
C267 C268 1.560 . S
C267 H328 0.959 . S
C267 H329 0.959 . S
C267 H330 0.960 . S
C268 C267 1.560 . S
C268 O323 1.426 . S
C268 H327 0.980 . S
C269 C270 1.407 . S
C269 C274 1.418 . S
C269 O323 1.334 . S
C270 C269 1.407 . S
C270 C271 1.360 . S
C270 H331 0.929 . S
C271 C270 1.360 . S
C271 C272 1.401 . S
C271 C275 1.527 . S
C272 C271 1.401 . S
C272 C273 1.405 . S
C272 C305 1.587 . S
C273 C272 1.405 . S
C273 C274 1.332 . S
C273 C276 1.496 . S
C274 C269 1.418 . S
C274 C273 1.332 . S
C274 H332 0.929 . S
C275 C271 1.527 . S
C275 H333 0.959 . S
C275 H334 0.961 . S
C275 H335 0.961 . S
C276 C273 1.496 . S
C276 H336 0.960 . S
C276 H337 0.960 . S
C276 H338 0.961 . S
C277 C278 1.517 . S
C277 H340 0.961 . S
C277 H341 0.960 . S
C277 H342 0.959 . S
C278 C277 1.517 . S
C278 O326 1.468 . S
C278 H339 0.980 . S
C279 C280 1.349 . S
C279 C284 1.367 . S
C279 O326 1.408 . S
C280 C279 1.349 . S
C280 C281 1.407 . S
C280 H343 0.930 . S
C281 C280 1.407 . S
C281 C282 1.449 . S
C281 C285 1.535 . S
C282 C281 1.449 . S
C282 C283 1.384 . S
C282 C307 1.553 . S
C283 C282 1.384 . S
C283 C284 1.364 . S
C283 C286 1.450 . S
C284 C279 1.367 . S
C284 C283 1.364 . S
C284 H344 0.931 . S
C285 C281 1.535 . S
C285 H345 0.959 . S
C285 H346 0.961 . S
C285 H347 0.959 . S
C286 C283 1.450 . S
C286 H348 0.960 . S
C286 H349 0.960 . S
C286 H350 0.960 . S
C287 C288 1.309 . S
C287 C292 1.304 . S
C287 O325 1.435 . S
C288 C287 1.309 . S
C288 C289 1.476 . S
C288 H352 0.930 . S
C289 C288 1.476 . S
C289 C290 1.400 . S
C289 C293 1.567 . S
C290 C289 1.400 . S
C290 C291 1.373 . S
C290 C312 1.432 . S
C291 C290 1.373 . S
C291 C292 1.339 . S
C291 C294 1.530 . S
C292 C287 1.304 . S
C292 C291 1.339 . S
C292 H353 0.930 . S
C293 C289 1.567 . S
C293 H354 0.961 . S
C293 H355 0.960 . S
C293 H356 0.958 . S
C294 C291 1.530 . S
C294 H357 0.961 . S
C294 H358 0.960 . S
C294 H359 0.960 . S
C295 C296 1.530 . S
C295 H361 0.961 . S
C295 H362 0.961 . S
C295 H363 0.959 . S
C296 C295 1.530 . S
C296 O324 1.412 . S
C296 H360 0.980 . S
C297 C298 1.288 . S
C297 C302 1.377 . S
C297 O324 1.393 . S
C298 C297 1.288 . S
C298 C299 1.369 . S
C298 H364 0.932 . S
C299 C298 1.369 . S
C299 C300 1.398 . S
C299 C303 1.527 . S
C300 C299 1.398 . S
C300 C301 1.380 . S
C300 C314 1.497 . S
C301 C300 1.380 . S
C301 C302 1.383 . S
C301 C304 1.603 . S
C302 C297 1.377 . S
C302 C301 1.383 . S
C302 H365 0.929 . S
C303 C299 1.527 . S
C303 H366 0.961 . S
C303 H367 0.959 . S
C303 H368 0.959 . S
C304 C301 1.603 . S
C304 H369 0.960 . S
C304 H370 0.962 . S
C304 H371 0.961 . S
C305 C272 1.587 . S
C305 C306 1.360 . S
C305 C318 1.412 . S
C306 C305 1.360 . S
C306 C307 1.365 . S
C306 H372 0.929 . S
C307 C282 1.553 . S
C307 C306 1.365 . S
C307 C308 1.404 . S
C308 C307 1.404 . S
C308 C309 1.395 . S
C308 C319 1.451 . S
C309 C308 1.395 . S
C309 C310 1.322 . S
C309 H373 0.930 . S
C310 C309 1.322 . S
C310 C311 1.459 . S
C310 H374 0.929 . S
C311 C310 1.459 . S
C311 C312 1.445 . S
C311 C320 1.395 . S
C312 C290 1.432 . S
C312 C311 1.445 . S
C312 C313 1.370 . S
C313 C312 1.370 . S
C313 C314 1.438 . S
C313 H375 0.930 . S
C314 C300 1.497 . S
C314 C313 1.438 . S
C314 C315 1.360 . S
C315 C314 1.360 . S
C315 C316 1.401 . S
C315 C320 1.446 . S
C316 C315 1.401 . S
C316 C317 1.347 . S
C316 H376 0.929 . S
C317 C316 1.347 . S
C317 C318 1.455 . S
C317 H377 0.930 . S
C318 C305 1.412 . S
C318 C317 1.455 . S
C318 C319 1.331 . S
C319 C308 1.451 . S
C319 C318 1.331 . S
C319 C320 1.497 . S
C320 C311 1.395 . S
C320 C315 1.446 . S
C320 C319 1.497 . S
C321 C322 1.582 . S
C321 H378 0.962 . S
C321 H379 0.959 . S
C321 H380 0.958 . S
C322 C321 1.582 . S
C322 O325 1.458 . S
C322 H351 0.980 . S
O323 C268 1.426 . S
O323 C269 1.334 . S
O324 C296 1.412 . S
O324 C297 1.393 . S
O325 C287 1.435 . S
O325 C322 1.458 . S
O326 C278 1.468 . S
O326 C279 1.408 . S
H327 C268 0.980 . S
H328 C267 0.959 . S
H329 C267 0.959 . S
H330 C267 0.960 . S
H331 C270 0.929 . S
H332 C274 0.929 . S
H333 C275 0.959 . S
H334 C275 0.961 . S
H335 C275 0.961 . S
H336 C276 0.960 . S
H337 C276 0.960 . S
H338 C276 0.961 . S
H339 C278 0.980 . S
H340 C277 0.961 . S
H341 C277 0.960 . S
H342 C277 0.959 . S
H343 C280 0.930 . S
H344 C284 0.931 . S
H345 C285 0.959 . S
H346 C285 0.961 . S
H347 C285 0.959 . S
H348 C286 0.960 . S
H349 C286 0.960 . S
H350 C286 0.960 . S
H351 C322 0.980 . S
H352 C288 0.930 . S
H353 C292 0.930 . S
H354 C293 0.961 . S
H355 C293 0.960 . S
H356 C293 0.958 . S
H357 C294 0.961 . S
H358 C294 0.960 . S
H359 C294 0.960 . S
H360 C296 0.980 . S
H361 C295 0.961 . S
H362 C295 0.961 . S
H363 C295 0.959 . S
H364 C298 0.932 . S
H365 C302 0.929 . S
H366 C303 0.961 . S
H367 C303 0.959 . S
H368 C303 0.959 . S
H369 C304 0.960 . S
H370 C304 0.962 . S
H371 C304 0.961 . S
H372 C306 0.929 . S
H373 C309 0.930 . S
H374 C310 0.929 . S
H375 C313 0.930 . S
H376 C316 0.929 . S
H377 C317 0.930 . S
H378 C321 0.962 . S
H379 C321 0.959 . S
H380 C321 0.958 . S
C381 C382 1.391 1_655 S
C381 C383 1.389 . S
C381 H397 0.931 . S
C382 C381 1.391 1_455 S
C382 C386 1.376 . S
C383 C381 1.389 . S
C383 C384 1.368 1_655 S
C383 C387 1.537 . S
C384 C383 1.368 1_455 S
C384 C385 1.410 . S
C384 C392 1.503 . S
C385 C384 1.410 . S
C385 C386 1.392 . S
C385 C388 1.511 . S
C386 C382 1.376 . S
C386 C385 1.392 . S
C386 H398 0.929 . S
C387 C383 1.537 . S
C387 H399 0.960 . S
C387 H400 0.962 . S
C387 H401 0.960 . S
C388 C385 1.511 . S
C388 H402 0.961 . S
C388 H403 0.961 . S
C388 H404 0.961 . S
C389 C390 1.370 1_655 S
C389 C391 1.363 . S
C389 H405 0.931 . S
C390 C389 1.370 1_455 S
C390 C394 1.408 . S
C391 C389 1.363 . S
C391 C392 1.370 1_655 S
C391 C395 1.524 . S
C392 C384 1.503 . S
C392 C391 1.370 1_455 S
C392 C393 1.403 . S
C393 C392 1.403 . S
C393 C394 1.404 . S
C393 C396 1.539 . S
C394 C390 1.408 . S
C394 C393 1.404 . S
C394 H406 0.930 . S
C395 C391 1.524 . S
C395 H407 0.956 . S
C395 H408 0.961 . S
C395 H409 0.961 . S
C396 C393 1.539 . S
C396 H410 0.958 . S
C396 H411 0.961 . S
C396 H412 0.960 . S
H397 C381 0.931 . S
H398 C386 0.929 . S
H399 C387 0.960 . S
H400 C387 0.962 . S
H401 C387 0.960 . S
H402 C388 0.961 . S
H403 C388 0.961 . S
H404 C388 0.961 . S
H405 C389 0.931 . S
H406 C394 0.930 . S
H407 C395 0.956 . S
H408 C395 0.961 . S
H409 C395 0.961 . S
H410 C396 0.958 . S
H411 C396 0.961 . S
H412 C396 0.960 . S
C413 C414 1.391 . S
C413 C415 1.394 . S
C413 H429 0.931 . S
C414 C413 1.391 . S
C414 C418 1.376 . S
C415 C413 1.394 . S
C415 C416 1.369 . S
C415 C419 1.531 . S
C416 C415 1.369 . S
C416 C417 1.410 . S
C416 C424 1.503 . S
C417 C416 1.410 . S
C417 C418 1.392 . S
C417 C420 1.511 . S
C418 C414 1.376 . S
C418 C417 1.392 . S
C418 H430 0.929 . S
C419 C415 1.531 . S
C419 H431 0.960 . S
C419 H432 0.962 . S
C419 H433 0.960 . S
C420 C417 1.511 . S
C420 H434 0.961 . S
C420 H435 0.961 . S
C420 H436 0.961 . S
C421 C422 1.370 . S
C421 C423 1.363 . S
C421 H437 0.931 . S
C422 C421 1.370 . S
C422 C426 1.408 . S
C423 C421 1.363 . S
C423 C424 1.370 . S
C423 C427 1.524 . S
C424 C416 1.503 . S
C424 C423 1.370 . S
C424 C425 1.403 . S
C425 C424 1.403 . S
C425 C426 1.404 . S
C425 C428 1.539 . S
C426 C422 1.408 . S
C426 C425 1.404 . S
C426 H438 0.930 . S
C427 C423 1.524 . S
C427 H439 0.956 1_545 S
C427 H440 0.961 . S
C427 H441 0.961 1_545 S
C428 C425 1.539 . S
C428 H442 0.958 . S
C428 H443 0.961 . S
C428 H444 0.960 . S
H429 C413 0.931 . S
H430 C418 0.929 . S
H431 C419 0.960 . S
H432 C419 0.962 . S
H433 C419 0.960 . S
H434 C420 0.961 . S
H435 C420 0.961 . S
H436 C420 0.961 . S
H437 C421 0.931 . S
H438 C426 0.930 . S
H439 C427 0.956 1_565 S
H440 C427 0.961 . S
H441 C427 0.961 1_565 S
H442 C428 0.958 . S
H443 C428 0.961 . S
H444 C428 0.960 . S
C445 C446 1.391 . S
C445 C447 1.394 . S
C445 H461 0.931 . S
C446 C445 1.391 . S
C446 C450 1.376 . S
C447 C445 1.394 . S
C447 C448 1.369 . S
C447 C451 1.531 . S
C448 C447 1.369 . S
C448 C449 1.410 . S
C448 C456 1.503 . S
C449 C448 1.410 . S
C449 C450 1.392 . S
C449 C452 1.511 . S
C450 C446 1.376 . S
C450 C449 1.392 . S
C450 H462 0.929 . S
C451 C447 1.531 . S
C451 H463 0.960 . S
C451 H464 0.962 . S
C451 H465 0.960 . S
C452 C449 1.511 . S
C452 H466 0.961 . S
C452 H467 0.961 . S
C452 H468 0.961 . S
C453 C454 1.370 . S
C453 C455 1.363 . S
C453 H469 0.931 . S
C454 C453 1.370 . S
C454 C458 1.408 . S
C455 C453 1.363 . S
C455 C456 1.370 . S
C455 C459 1.524 . S
C456 C448 1.503 . S
C456 C455 1.370 . S
C456 C457 1.403 . S
C457 C456 1.403 . S
C457 C458 1.404 . S
C457 C460 1.539 . S
C458 C454 1.408 . S
C458 C457 1.404 . S
C458 H470 0.930 . S
C459 C455 1.524 . S
C459 H471 0.956 . S
C459 H472 0.961 . S
C459 H473 0.961 . S
C460 C457 1.539 . S
C460 H474 0.958 . S
C460 H475 0.961 . S
C460 H476 0.960 . S
H461 C445 0.931 . S
H462 C450 0.929 . S
H463 C451 0.960 . S
H464 C451 0.962 . S
H465 C451 0.960 . S
H466 C452 0.961 . S
H467 C452 0.961 . S
H468 C452 0.961 . S
H469 C453 0.931 . S
H470 C458 0.930 . S
H471 C459 0.956 . S
H472 C459 0.961 . S
H473 C459 0.961 . S
H474 C460 0.958 . S
H475 C460 0.961 . S
H476 C460 0.960 . S
C477 C478 1.391 . S
C477 C479 1.394 . S
C477 H493 0.931 1_455 S
C478 C477 1.391 . S
C478 C482 1.376 . S
C479 C477 1.394 . S
C479 C480 1.369 . S
C479 C483 1.531 1_455 S
C480 C479 1.369 . S
C480 C481 1.410 . S
C480 C488 1.503 . S
C481 C480 1.410 . S
C481 C482 1.392 . S
C481 C484 1.511 . S
C482 C478 1.376 . S
C482 C481 1.392 . S
C482 H494 0.942 . S
C483 C479 1.531 1_655 S
C483 H495 0.960 . S
C483 H496 0.962 . S
C483 H497 0.960 . S
C484 C481 1.511 . S
C484 H498 0.961 . S
C484 H499 0.961 . S
C484 H500 0.961 . S
C485 C486 1.370 . S
C485 C487 1.363 . S
C485 H501 0.931 . S
C486 C485 1.370 . S
C486 C490 1.408 . S
C487 C485 1.363 . S
C487 C488 1.370 . S
C487 C491 1.524 . S
C488 C480 1.503 . S
C488 C487 1.370 . S
C488 C489 1.403 . S
C489 C488 1.403 . S
C489 C490 1.404 . S
C489 C492 1.539 . S
C490 C486 1.408 . S
C490 C489 1.404 . S
C490 H502 0.930 . S
C491 C487 1.524 . S
C491 H503 0.956 1_455 S
C491 H504 0.961 . S
C491 H505 0.961 . S
C492 C489 1.539 . S
C492 H506 0.958 . S
C492 H507 0.961 . S
C492 H508 0.960 . S
H493 C477 0.931 1_655 S
H494 C482 0.942 . S
H495 C483 0.960 . S
H496 C483 0.962 . S
H497 C483 0.960 . S
H498 C484 0.961 . S
H499 C484 0.961 . S
H500 C484 0.961 . S
H501 C485 0.931 . S
H502 C490 0.930 . S
H503 C491 0.956 1_655 S
H504 C491 0.961 . S
H505 C491 0.961 . S
H506 C492 0.958 . S
H507 C492 0.961 . S
H508 C492 0.960 . S
C509 C510 1.391 . S
C509 C511 1.394 . S
C509 H525 0.931 . S
C510 C509 1.391 . S
C510 C514 1.376 . S
C511 C509 1.394 . S
C511 C512 1.369 . S
C511 C515 1.531 . S
C512 C511 1.369 . S
C512 C513 1.410 . S
C512 C520 1.503 . S
C513 C512 1.410 . S
C513 C514 1.392 . S
C513 C516 1.511 . S
C514 C510 1.376 . S
C514 C513 1.392 . S
C514 H526 0.929 . S
C515 C511 1.531 . S
C515 H527 0.960 . S
C515 H528 0.962 . S
C515 H529 0.960 . S
C516 C513 1.511 . S
C516 H530 0.961 . S
C516 H531 0.961 . S
C516 H532 0.961 . S
C517 C518 1.370 . S
C517 C519 1.363 . S
C517 H533 0.931 . S
C518 C517 1.370 . S
C518 C522 1.408 . S
C519 C517 1.363 . S
C519 C520 1.370 . S
C519 C523 1.524 . S
C520 C512 1.503 . S
C520 C519 1.370 . S
C520 C521 1.403 . S
C521 C520 1.403 . S
C521 C522 1.404 . S
C521 C524 1.539 . S
C522 C518 1.408 . S
C522 C521 1.404 . S
C522 H534 0.930 . S
C523 C519 1.524 . S
C523 H535 0.956 . S
C523 H536 0.961 . S
C523 H537 0.961 . S
C524 C521 1.539 . S
C524 H538 0.958 . S
C524 H539 0.961 1_545 S
C524 H540 0.960 . S
H525 C509 0.931 . S
H526 C514 0.929 . S
H527 C515 0.960 . S
H528 C515 0.962 . S
H529 C515 0.960 . S
H530 C516 0.961 . S
H531 C516 0.961 . S
H532 C516 0.961 . S
H533 C517 0.931 . S
H534 C522 0.930 . S
H535 C523 0.956 . S
H536 C523 0.961 . S
H537 C523 0.961 . S
H538 C524 0.958 . S
H539 C524 0.961 1_565 S
H540 C524 0.960 . S
C541 C542 1.391 . S
C541 C543 1.394 . S
C541 H557 0.931 . S
C542 C541 1.391 . S
C542 C546 1.376 . S
C543 C541 1.394 . S
C543 C544 1.369 . S
C543 C547 1.531 . S
C544 C543 1.369 . S
C544 C545 1.410 . S
C544 C552 1.503 . S
C545 C544 1.410 . S
C545 C546 1.392 . S
C545 C548 1.511 . S
C546 C542 1.376 . S
C546 C545 1.392 . S
C546 H558 0.929 . S
C547 C543 1.531 . S
C547 H559 0.960 . S
C547 H560 0.962 . S
C547 H561 0.960 . S
C548 C545 1.511 . S
C548 H562 0.961 . S
C548 H563 0.961 . S
C548 H564 0.961 . S
C549 C550 1.370 . S
C549 C551 1.363 . S
C549 H565 0.931 . S
C550 C549 1.370 . S
C550 C554 1.408 . S
C551 C549 1.363 . S
C551 C552 1.370 . S
C551 C555 1.524 . S
C552 C544 1.503 . S
C552 C551 1.370 . S
C552 C553 1.403 . S
C553 C552 1.403 . S
C553 C554 1.404 . S
C553 C556 1.539 . S
C554 C550 1.408 . S
C554 C553 1.404 . S
C554 H566 0.930 . S
C555 C551 1.524 . S
C555 H567 0.956 . S
C555 H568 0.961 . S
C555 H569 0.961 . S
C556 C553 1.539 . S
C556 H570 0.958 . S
C556 H571 0.961 . S
C556 H572 0.960 . S
H557 C541 0.931 . S
H558 C546 0.929 . S
H559 C547 0.960 . S
H560 C547 0.962 . S
H561 C547 0.960 . S
H562 C548 0.961 . S
H563 C548 0.961 . S
H564 C548 0.961 . S
H565 C549 0.931 . S
H566 C554 0.930 . S
H567 C555 0.956 . S
H568 C555 0.961 . S
H569 C555 0.961 . S
H570 C556 0.958 . S
H571 C556 0.961 . S
H572 C556 0.960 . S
C573 C574 1.391 . S
C573 C575 1.394 . S
C573 H589 0.931 . S
C574 C573 1.391 . S
C574 C578 1.376 . S
C575 C573 1.394 . S
C575 C576 1.369 . S
C575 C579 1.531 . S
C576 C575 1.369 . S
C576 C577 1.410 . S
C576 C584 1.503 . S
C577 C576 1.410 . S
C577 C578 1.392 . S
C577 C580 1.511 . S
C578 C574 1.376 . S
C578 C577 1.392 . S
C578 H590 0.929 . S
C579 C575 1.531 . S
C579 H591 0.960 . S
C579 H592 0.962 . S
C579 H593 0.960 . S
C580 C577 1.511 . S
C580 H594 0.961 . S
C580 H595 0.961 . S
C580 H596 0.961 . S
C581 C582 1.370 . S
C581 C583 1.363 . S
C581 H597 0.931 . S
C582 C581 1.370 . S
C582 C586 1.408 . S
C583 C581 1.363 . S
C583 C584 1.370 . S
C583 C587 1.524 1_545 S
C584 C576 1.503 . S
C584 C583 1.370 . S
C584 C585 1.403 . S
C585 C584 1.403 . S
C585 C586 1.404 . S
C585 C588 1.539 . S
C586 C582 1.408 . S
C586 C585 1.404 . S
C586 H598 0.930 . S
C587 C583 1.524 1_565 S
C587 H599 0.956 1_565 S
C587 H600 0.961 . S
C587 H601 0.961 . S
C588 C585 1.539 . S
C588 H602 0.958 . S
C588 H603 0.961 . S
C588 H604 0.960 . S
H589 C573 0.931 . S
H590 C578 0.929 . S
H591 C579 0.960 . S
H592 C579 0.962 . S
H593 C579 0.960 . S
H594 C580 0.961 . S
H595 C580 0.961 . S
H596 C580 0.961 . S
H597 C581 0.931 . S
H598 C586 0.930 . S
H599 C587 0.956 1_545 S
H600 C587 0.961 . S
H601 C587 0.961 . S
H602 C588 0.958 . S
H603 C588 0.961 . S
H604 C588 0.960 . S
C605 C606 1.391 . S
C605 C607 1.394 . S
C605 H621 0.931 . S
C606 C605 1.391 . S
C606 C610 1.376 . S
C607 C605 1.394 . S
C607 C608 1.382 . S
C607 C611 1.531 . S
C608 C607 1.382 . S
C608 C609 1.414 . S
C608 C616 1.484 1_554 S
C609 C608 1.414 . S
C609 C610 1.392 . S
C609 C612 1.511 1_554 S
C610 C606 1.376 . S
C610 C609 1.392 . S
C610 H622 0.929 1_565 S
C611 C607 1.531 . S
C611 H623 0.960 . S
C611 H624 0.962 1_554 S
C611 H625 0.960 . S
C612 C609 1.511 1_556 S
C612 H626 0.948 1_565 S
C612 H627 0.961 . S
C612 H628 0.961 1_556 S
C613 C614 1.370 . S
C613 C615 1.363 . S
C613 H629 0.931 . S
C614 C613 1.370 . S
C614 C618 1.408 . S
C615 C613 1.363 . S
C615 C616 1.370 . S
C615 C619 1.524 . S
C616 C608 1.484 1_556 S
C616 C615 1.370 . S
C616 C617 1.403 . S
C617 C616 1.403 . S
C617 C618 1.404 . S
C617 C620 1.539 1_556 S
C618 C614 1.408 . S
C618 C617 1.404 . S
C618 H630 0.930 . S
C619 C615 1.524 . S
C619 H631 0.956 . S
C619 H632 0.961 . S
C619 H633 0.961 . S
C620 C617 1.539 1_554 S
C620 H634 0.958 . S
C620 H635 0.961 . S
C620 H636 0.960 . S
H621 C605 0.931 . S
H622 C610 0.929 1_545 S
H623 C611 0.960 . S
H624 C611 0.962 1_556 S
H625 C611 0.960 . S
H626 C612 0.948 1_545 S
H627 C612 0.961 . S
H628 C612 0.961 1_554 S
H629 C613 0.931 . S
H630 C618 0.930 . S
H631 C619 0.956 . S
H632 C619 0.961 . S
H633 C619 0.961 . S
H634 C620 0.958 . S
H635 C620 0.961 . S
H636 C620 0.960 . S
C637 C638 1.391 . S
C637 C639 1.394 . S
C637 H653 0.931 . S
C638 C637 1.391 . S
C638 C642 1.376 1_565 S
C639 C637 1.394 . S
C639 C640 1.369 . S
C639 C643 1.531 1_455 S
C640 C639 1.369 . S
C640 C641 1.410 . S
C640 C648 1.503 . S
C641 C640 1.410 . S
C641 C642 1.392 1_565 S
C641 C644 1.511 . S
C642 C638 1.376 1_545 S
C642 C641 1.392 1_545 S
C642 H654 0.929 . S
C643 C639 1.531 1_655 S
C643 H655 0.960 . S
C643 H656 0.962 . S
C643 H657 0.960 . S
C644 C641 1.511 . S
C644 H658 0.961 1_565 S
C644 H659 0.961 . S
C644 H660 0.961 . S
C645 C646 1.370 . S
C645 C647 1.363 . S
C645 H661 0.931 . S
C646 C645 1.370 . S
C646 C650 1.408 1_455 S
C647 C645 1.363 . S
C647 C648 1.370 . S
C647 C651 1.524 . S
C648 C640 1.503 . S
C648 C647 1.370 . S
C648 C649 1.403 1_455 S
C649 C648 1.403 1_655 S
C649 C650 1.404 . S
C649 C652 1.539 . S
C650 C646 1.408 1_655 S
C650 C649 1.404 . S
C650 H662 0.930 . S
C651 C647 1.524 . S
C651 H663 0.956 . S
C651 H664 0.961 . S
C651 H665 0.961 . S
C652 C649 1.539 . S
C652 H666 0.958 . S
C652 H667 0.961 . S
C652 H668 0.960 . S
H653 C637 0.931 . S
H654 C642 0.929 . S
H655 C643 0.960 . S
H656 C643 0.962 . S
H657 C643 0.960 . S
H658 C644 0.961 1_545 S
H659 C644 0.961 . S
H660 C644 0.961 . S
H661 C645 0.931 . S
H662 C650 0.930 . S
H663 C651 0.956 . S
H664 C651 0.961 . S
H665 C651 0.961 . S
H666 C652 0.958 . S
H667 C652 0.961 . S
H668 C652 0.960 . S
C669 C670 1.391 . S
C669 C671 1.394 . S
C669 H685 0.931 . S
C670 C669 1.391 . S
C670 C674 1.376 . S
C671 C669 1.394 . S
C671 C672 1.369 . S
C671 C675 1.531 . S
C672 C671 1.369 . S
C672 C673 1.410 . S
C672 C680 1.503 . S
C673 C672 1.410 . S
C673 C674 1.392 . S
C673 C676 1.511 . S
C674 C670 1.376 . S
C674 C673 1.392 . S
C674 H686 0.929 . S
C675 C671 1.531 . S
C675 H687 0.960 . S
C675 H688 0.962 1_545 S
C675 H689 0.960 . S
C676 C673 1.511 . S
C676 H690 0.961 . S
C676 H691 0.961 . S
C676 H692 0.961 . S
C677 C678 1.370 . S
C677 C679 1.363 . S
C677 H693 0.931 1_545 S
C678 C677 1.370 . S
C678 C682 1.408 . S
C679 C677 1.363 . S
C679 C680 1.370 . S
C679 C683 1.524 1_545 S
C680 C672 1.503 . S
C680 C679 1.370 . S
C680 C681 1.403 . S
C681 C680 1.403 . S
C681 C682 1.404 . S
C681 C684 1.539 . S
C682 C678 1.408 . S
C682 C681 1.404 . S
C682 H694 0.930 . S
C683 C679 1.524 1_565 S
C683 H695 0.956 . S
C683 H696 0.961 . S
C683 H697 0.961 . S
C684 C681 1.539 . S
C684 H698 0.958 . S
C684 H699 0.961 . S
C684 H700 0.960 . S
H685 C669 0.931 . S
H686 C674 0.929 . S
H687 C675 0.960 . S
H688 C675 0.962 1_565 S
H689 C675 0.960 . S
H690 C676 0.961 . S
H691 C676 0.961 . S
H692 C676 0.961 . S
H693 C677 0.931 1_565 S
H694 C682 0.930 . S
H695 C683 0.956 . S
H696 C683 0.961 . S
H697 C683 0.961 . S
H698 C684 0.958 . S
H699 C684 0.961 . S
H700 C684 0.960 . S
C701 C702 1.391 . S
C701 C703 1.394 . S
C701 H717 0.931 . S
C702 C701 1.391 . S
C702 C706 1.376 . S
C703 C701 1.394 . S
C703 C704 1.369 1_554 S
C703 C707 1.531 . S
C704 C703 1.369 1_556 S
C704 C705 1.410 . S
C704 C712 1.503 . S
C705 C704 1.410 . S
C705 C706 1.392 1_556 S
C705 C708 1.511 . S
C706 C702 1.376 . S
C706 C705 1.392 1_554 S
C706 H718 0.929 . S
C707 C703 1.531 . S
C707 H719 0.960 . S
C707 H720 0.962 1_554 S
C707 H721 0.960 . S
C708 C705 1.511 . S
C708 H722 0.961 . S
C708 H723 0.961 . S
C708 H724 0.961 . S
C709 C710 1.370 . S
C709 C711 1.363 . S
C709 H725 0.931 . S
C710 C709 1.370 . S
C710 C714 1.408 . S
C711 C709 1.363 . S
C711 C712 1.370 . S
C711 C715 1.524 . S
C712 C704 1.503 . S
C712 C711 1.370 . S
C712 C713 1.403 . S
C713 C712 1.403 . S
C713 C714 1.404 . S
C713 C716 1.539 1_556 S
C714 C710 1.408 . S
C714 C713 1.404 . S
C714 H726 0.930 . S
C715 C711 1.524 . S
C715 H727 0.956 . S
C715 H728 0.961 . S
C715 H729 0.961 . S
C716 C713 1.539 1_554 S
C716 H730 0.958 . S
C716 H731 0.961 . S
C716 H732 0.960 . S
H717 C701 0.931 . S
H718 C706 0.929 . S
H719 C707 0.960 . S
H720 C707 0.962 1_556 S
H721 C707 0.960 . S
H722 C708 0.961 . S
H723 C708 0.961 . S
H724 C708 0.961 . S
H725 C709 0.931 . S
H726 C714 0.930 . S
H727 C715 0.956 . S
H728 C715 0.961 . S
H729 C715 0.961 . S
H730 C716 0.958 . S
H731 C716 0.961 . S
H732 C716 0.960 . S
C733 C734 1.391 . S
C733 C735 1.394 . S
C733 H749 0.931 . S
C734 C733 1.391 . S
C734 C738 1.376 . S
C735 C733 1.394 . S
C735 C736 1.369 . S
C735 C739 1.531 . S
C736 C735 1.369 . S
C736 C737 1.410 . S
C736 C744 1.503 . S
C737 C736 1.410 . S
C737 C738 1.392 . S
C737 C740 1.511 . S
C738 C734 1.376 . S
C738 C737 1.392 . S
C738 H750 0.929 . S
C739 C735 1.531 . S
C739 H751 0.960 . S
C739 H752 0.962 . S
C739 H753 0.960 . S
C740 C737 1.511 . S
C740 H754 0.961 1_455 S
C740 H755 0.961 1_455 S
C740 H756 0.961 . S
C741 C742 1.370 . S
C741 C743 1.363 . S
C741 H757 0.931 . S
C742 C741 1.370 . S
C742 C746 1.408 . S
C743 C741 1.363 . S
C743 C744 1.370 . S
C743 C747 1.524 . S
C744 C736 1.503 . S
C744 C743 1.370 . S
C744 C745 1.403 . S
C745 C744 1.403 . S
C745 C746 1.404 . S
C745 C748 1.539 . S
C746 C742 1.408 . S
C746 C745 1.404 . S
C746 H758 0.930 . S
C747 C743 1.524 . S
C747 H759 0.956 . S
C747 H760 0.961 . S
C747 H761 0.961 1_455 S
C748 C745 1.539 . S
C748 H762 0.958 . S
C748 H763 0.961 . S
C748 H764 0.960 . S
H749 C733 0.931 . S
H750 C738 0.929 . S
H751 C739 0.960 . S
H752 C739 0.962 . S
H753 C739 0.960 . S
H754 C740 0.961 1_655 S
H755 C740 0.961 1_655 S
H756 C740 0.961 . S
H757 C741 0.931 . S
H758 C746 0.930 . S
H759 C747 0.956 . S
H760 C747 0.961 . S
H761 C747 0.961 1_655 S
H762 C748 0.958 . S
H763 C748 0.961 . S
H764 C748 0.960 . S
C390 C94 1.036 . S
C382 C10 1.482 . S
C414 C21 1.481 1_655 S
C422 C208 1.106 . S
C446 C31 1.186 . S
C454 C268 1.021 . S
C478 C0 1.315 1_565 S
C486 C68 1.131 . S
C518 C182 1.074 . S
C510 C18 1.256 . S
C542 C34 1.386 . S
C550 C278 0.873 . S
C582 C164 0.830 . S
C574 C36 1.378 . S
C606 C8 1.355 1_565 S
C614 C296 1.089 . S
C646 C40 1.027 . S
C638 C23 1.247 1_565 S
C678 C154 0.985 . S
C670 C26 1.123 . S
C710 C322 1.203 . S
C702 C5 1.445 . S
C734 C13 1.323 . S
C742 C50 0.832 . S
