# Generated by pormake.
# Topology cml, (3,6)-cn, num edge types: 1
# Building blocks:
#     Node 0, Type 0, BuildingBlock: QEWDON_clean_linker_0, # of connection points: 3
#     Node 1, Type 0, BuildingBlock: QEWDON_clean_linker_0, # of connection points: 3
#     Node 2, Type 0, BuildingBlock: QEWDON_clean_linker_0, # of connection points: 3
#     Node 3, Type 0, BuildingBlock: QEWDON_clean_linker_0, # of connection points: 3
#     Node 4, Type 0, BuildingBlock: QEWDON_clean_linker_0, # of connection points: 3
#     Node 5, Type 0, BuildingBlock: QEWDON_clean_linker_0, # of connection points: 3
#     Node 6, Type 0, BuildingBlock: QEWDON_clean_linker_0, # of connection points: 3
#     Node 7, Type 0, BuildingBlock: QEWDON_clean_linker_0, # of connection points: 3
#     Node 8, Type 1, BuildingBlock: OJICUG_clean_sbu_0, # of connection points: 6
#     Node 9, Type 1, BuildingBlock: OJICUG_clean_sbu_0, # of connection points: 6
#     Node 10, Type 1, BuildingBlock: OJICUG_clean_sbu_0, # of connection points: 6
#     Node 11, Type 1, BuildingBlock: OJICUG_clean_sbu_0, # of connection points: 6
#     Edge 12, Type (0, 1), BuildingBlock: ZUJKAS_clean_linker_0, # of connection points: 2
#     Edge 13, Type (0, 1), BuildingBlock: ZUJKAS_clean_linker_0, # of connection points: 2
#     Edge 14, Type (0, 1), BuildingBlock: ZUJKAS_clean_linker_0, # of connection points: 2
#     Edge 15, Type (0, 1), BuildingBlock: ZUJKAS_clean_linker_0, # of connection points: 2
#     Edge 16, Type (0, 1), BuildingBlock: ZUJKAS_clean_linker_0, # of connection points: 2
#     Edge 17, Type (0, 1), BuildingBlock: ZUJKAS_clean_linker_0, # of connection points: 2
#     Edge 18, Type (0, 1), BuildingBlock: ZUJKAS_clean_linker_0, # of connection points: 2
#     Edge 19, Type (0, 1), BuildingBlock: ZUJKAS_clean_linker_0, # of connection points: 2
#     Edge 20, Type (0, 1), BuildingBlock: ZUJKAS_clean_linker_0, # of connection points: 2
#     Edge 21, Type (0, 1), BuildingBlock: ZUJKAS_clean_linker_0, # of connection points: 2
#     Edge 22, Type (0, 1), BuildingBlock: ZUJKAS_clean_linker_0, # of connection points: 2
#     Edge 23, Type (0, 1), BuildingBlock: ZUJKAS_clean_linker_0, # of connection points: 2
#     Edge 24, Type (0, 1), BuildingBlock: ZUJKAS_clean_linker_0, # of connection points: 2
#     Edge 25, Type (0, 1), BuildingBlock: ZUJKAS_clean_linker_0, # of connection points: 2
#     Edge 26, Type (0, 1), BuildingBlock: ZUJKAS_clean_linker_0, # of connection points: 2
#     Edge 27, Type (0, 1), BuildingBlock: ZUJKAS_clean_linker_0, # of connection points: 2
#     Edge 28, Type (0, 1), BuildingBlock: ZUJKAS_clean_linker_0, # of connection points: 2
#     Edge 29, Type (0, 1), BuildingBlock: ZUJKAS_clean_linker_0, # of connection points: 2
#     Edge 30, Type (0, 1), BuildingBlock: ZUJKAS_clean_linker_0, # of connection points: 2
#     Edge 31, Type (0, 1), BuildingBlock: ZUJKAS_clean_linker_0, # of connection points: 2
#     Edge 32, Type (0, 1), BuildingBlock: ZUJKAS_clean_linker_0, # of connection points: 2
#     Edge 33, Type (0, 1), BuildingBlock: ZUJKAS_clean_linker_0, # of connection points: 2
#     Edge 34, Type (0, 1), BuildingBlock: ZUJKAS_clean_linker_0, # of connection points: 2
#     Edge 35, Type (0, 1), BuildingBlock: ZUJKAS_clean_linker_0, # of connection points: 2
# Relax obj value: 0.004
# Max RMSD: 0.112
# Mean RMSD: 0.081
data_MOF--net-cml--node1-OJICUG_clean_sbu_0--node2-QEWDON_clean_linker_0--edge1-ZUJKAS_clean_linker_0
_symmetry_space_group_name_H-M    P1
_symmetry_Int_Tables_number       1
_symmetry_cell_setting            triclinic
loop_
_symmetry_equiv_pos_as_xyz
'x, y, z'
_cell_length_a     54.745803
_cell_length_b     52.065859
_cell_length_c     46.00627
_cell_angle_alpha  90.085981
_cell_angle_beta   89.992856
_cell_angle_gamma 89.82661
loop_
_atom_site_label
_atom_site_type_symbol
_atom_site_fract_x
_atom_site_fract_y
_atom_site_fract_z
_atom_type_partial_charge
H0 H 0.26711 0.42168 0.97335 0.0
C1 C 0.27576 0.41266 0.99193 0.0
C2 C 0.30082 0.41613 0.99702 0.0
C3 C 0.26161 0.39759 0.01077 0.0
H4 H 0.33033 0.40854 0.02667 0.0
C5 C 0.31141 0.40453 0.02152 0.0
C6 C 0.29764 0.3891 0.04043 0.0
C7 C 0.27265 0.38551 0.03469 0.0
C8 C 0.23491 0.39627 0.00663 0.0
H9 H 0.2616 0.374 0.04921 0.0
C10 C 0.22328 0.37275 0.00094 0.0
C11 C 0.19782 0.37191 0.99656 0.0
C12 C 0.22099 0.4189 0.00819 0.0
H13 H 0.22968 0.43717 0.01258 0.0
C14 C 0.19575 0.4181 0.00437 0.0
H15 H 0.23406 0.35529 -0.00038 0.0
C16 C 0.1842 0.39482 -0.00145 0.0
H17 H 0.16466 0.39485 0.99489 0.0
H18 H 0.18512 0.43563 0.00563 0.0
H19 H 0.73633 0.58608 0.47257 0.0
C20 C 0.72772 0.59433 0.49166 0.0
C21 C 0.70271 0.59045 0.49658 0.0
C22 C 0.74176 0.60863 0.51145 0.0
H23 H 0.6729 0.59672 0.52636 0.0
C24 C 0.69201 0.60049 0.52186 0.0
C25 C 0.70594 0.61415 0.54224 0.0
C26 C 0.73073 0.61885 0.53654 0.0
C27 C 0.76846 0.61039 0.50745 0.0
H28 H 0.74176 0.6289 0.55245 0.0
C29 C 0.78001 0.63427 0.50374 0.0
C30 C 0.80551 0.63551 0.49983 0.0
C31 C 0.78252 0.58781 0.50739 0.0
H32 H 0.77392 0.56926 0.51026 0.0
C33 C 0.80778 0.58898 0.50395 0.0
H34 H 0.76915 0.65172 0.50365 0.0
C35 C 0.81924 0.61262 0.50019 0.0
H36 H 0.83883 0.61294 0.49687 0.0
H37 H 0.8185 0.57148 0.50398 0.0
H38 H 0.70837 0.36281 0.9512 0.0
C39 C 0.70245 0.36368 0.97366 0.0
C40 C 0.6923 0.38654 0.98489 0.0
C41 C 0.70358 0.34146 0.99093 0.0
H42 H 0.67544 0.40416 0.02241 0.0
C43 C 0.68394 0.38694 0.0138 0.0
C44 C 0.68484 0.36484 0.03117 0.0
C45 C 0.69497 0.34227 0.01966 0.0
C46 C 0.71067 0.3164 0.97826 0.0
H47 H 0.695 0.32485 0.03254 0.0
C48 C 0.73427 0.31206 0.9671 0.0
C49 C 0.74111 0.2874 0.95708 0.0
C50 C 0.69372 0.29622 0.97862 0.0
H51 H 0.67544 0.29922 0.98703 0.0
C52 C 0.70021 0.27199 0.96836 0.0
H53 H 0.74727 0.3277 0.96676 0.0
C54 C 0.72372 0.26749 0.95791 0.0
H55 H 0.7284 0.24817 0.95114 0.0
H56 H 0.68708 0.2565 0.96894 0.0
H57 H 0.30083 0.64208 0.45283 0.0
C58 C 0.3054 0.64192 0.47575 0.0
C59 C 0.31591 0.61987 0.48839 0.0
C60 C 0.30207 0.66434 0.49231 0.0
H61 H 0.3319 0.60424 0.52742 0.0
C62 C 0.32246 0.62053 0.51796 0.0
C63 C 0.31905 0.64276 0.5348 0.0
C64 C 0.30863 0.66453 0.52178 0.0
C65 C 0.295 0.68877 0.47836 0.0
H66 H 0.30623 0.68201 0.53431 0.0
C67 C 0.27125 0.69285 0.46764 0.0
C68 C 0.26445 0.71711 0.45648 0.0
C69 C 0.31214 0.70872 0.47727 0.0
H70 H 0.3305 0.70589 0.48549 0.0
C71 C 0.3057 0.73254 0.46585 0.0
H72 H 0.25812 0.67735 0.4685 0.0
C73 C 0.28204 0.73682 0.45576 0.0
H74 H 0.27742 0.75587 0.44807 0.0
H75 H 0.31898 0.74789 0.46529 0.0
H76 H 0.76193 0.92172 0.98333 0.0
C77 C 0.77086 0.91514 0.00299 0.0
C78 C 0.79586 0.91985 0.00738 0.0
C79 C 0.75712 0.90222 0.02414 0.0
H80 H 0.82582 0.91582 0.03759 0.0
C81 C 0.80676 0.9116 0.03341 0.0
C82 C 0.79318 0.89869 0.05471 0.0
C83 C 0.76837 0.89368 0.04976 0.0
C84 C 0.73047 0.90018 0.02082 0.0
H85 H 0.75755 0.88435 0.06641 0.0
C86 C 0.71968 0.87727 0.01119 0.0
C87 C 0.69413 0.87564 0.00811 0.0
C88 C 0.71576 0.92149 0.02738 0.0
H89 H 0.72389 0.93929 0.03478 0.0
C90 C 0.69045 0.91995 0.02453 0.0
H91 H 0.73113 0.86082 0.00622 0.0
C92 C 0.67966 0.89721 0.01496 0.0
H93 H 0.66 0.89667 0.01241 0.0
H94 H 0.67917 0.93647 0.02959 0.0
H95 H 0.24424 0.08639 0.47774 0.0
C96 C 0.23409 0.09162 0.4971 0.0
C97 C 0.20892 0.08629 0.499 0.0
C98 C 0.24637 0.10294 0.52068 0.0
H99 H 0.17711 0.08824 0.52678 0.0
C100 C 0.19634 0.09278 0.52466 0.0
C101 C 0.20839 0.10432 0.54814 0.0
C102 C 0.2334 0.10945 0.54595 0.0
C103 C 0.27313 0.10619 0.52034 0.0
H104 H 0.243 0.11778 0.56429 0.0
C105 C 0.28427 0.12415 0.50185 0.0
C106 C 0.30958 0.12898 0.50392 0.0
C107 C 0.2874 0.09242 0.54029 0.0
H108 H 0.27906 0.07858 0.55476 0.0
C109 C 0.31246 0.09663 0.54202 0.0
H110 H 0.2731 0.13466 0.48646 0.0
C111 C 0.32347 0.1149 0.52424 0.0
H112 H 0.3428 0.11843 0.52706 0.0
H113 H 0.32333 0.08607 0.55765 0.0
H114 H 0.20925 0.86239 0.95374 0.0
C115 C 0.2029 0.86219 0.97605 0.0
C116 C 0.19189 0.88424 0.9881 0.0
C117 C 0.20426 0.8393 0.99212 0.0
H118 H 0.17394 0.89985 0.02598 0.0
C119 C 0.18299 0.8832 0.01674 0.0
C120 C 0.18395 0.86038 0.0329 0.0
C121 C 0.19486 0.83854 0.02051 0.0
C122 C 0.21172 0.8151 0.97785 0.0
H123 H 0.19485 0.82051 0.03228 0.0
C124 C 0.23613 0.81046 0.96977 0.0
C125 C 0.24273 0.78697 0.95654 0.0
C126 C 0.19395 0.7963 0.97254 0.0
H127 H 0.17507 0.79959 0.97863 0.0
C128 C 0.20033 0.7732 0.95922 0.0
H129 H 0.24986 0.82496 0.97393 0.0
C130 C 0.22451 0.7685 0.9513 0.0
H131 H 0.22905 0.75013 0.94159 0.0
H132 H 0.18652 0.75879 0.95521 0.0
H133 H 0.80208 0.1476 0.45263 0.0
C134 C 0.80605 0.14656 0.47568 0.0
C135 C 0.81648 0.12412 0.48745 0.0
C136 C 0.802 0.16815 0.4934 0.0
H137 H 0.83172 0.10676 0.52587 0.0
C138 C 0.82243 0.12348 0.51716 0.0
C139 C 0.81865 0.14499 0.53507 0.0
C140 C 0.80813 0.16715 0.523 0.0
C141 C 0.79423 0.19292 0.48075 0.0
H142 H 0.80525 0.184 0.53646 0.0
C143 C 0.77091 0.19613 0.46838 0.0
C144 C 0.76325 0.22052 0.45843 0.0
C145 C 0.81011 0.21397 0.48247 0.0
H146 H 0.82813 0.21183 0.49194 0.0
C147 C 0.80286 0.23795 0.47225 0.0
H148 H 0.75873 0.17981 0.46706 0.0
C149 C 0.7796 0.24131 0.46055 0.0
H150 H 0.77425 0.26044 0.45385 0.0
H151 H 0.81517 0.25412 0.47386 0.0
Sc152 Sc 0.99501 0.83636 0.32863 0.0
Sc153 Sc 0.99766 0.90359 0.32077 0.0
Sc154 Sc 0.99818 0.87617 0.39075 0.0
O155 O 0.99691 0.87203 0.34673 0.0
C156 C 0.96038 0.82963 0.38382 0.0
C157 C 0.95835 0.86841 0.28848 0.0
C158 C 0.96253 0.92197 0.3727 0.0
C159 C 0.03153 0.86461 0.28508 0.0
C160 C 0.03361 0.82824 0.38006 0.0
C161 C 0.03564 0.91961 0.36983 0.0
O162 O 0.96706 0.8239 0.35817 0.0
O163 O 0.96771 0.89007 0.29466 0.0
O164 O 0.96988 0.90522 0.39088 0.0
O165 O 0.02291 0.84451 0.29688 0.0
O166 O 0.02694 0.84787 0.39461 0.0
O167 O 0.02783 0.92056 0.34385 0.0
O168 O 0.02337 0.82141 0.35647 0.0
O169 O 0.02401 0.88705 0.2914 0.0
O170 O 0.02624 0.90517 0.38906 0.0
O171 O 0.96635 0.84738 0.29886 0.0
O172 O 0.97022 0.84763 0.39838 0.0
O173 O 0.97129 0.92383 0.34717 0.0
Sc174 Sc 0.00859 0.16578 0.82629 0.0
Sc175 Sc 0.00631 0.09827 0.82213 0.0
Sc176 Sc 0.0078 0.12866 0.89054 0.0
O177 O 0.0076 0.13092 0.84633 0.0
C178 C 0.04469 0.17529 0.87963 0.0
C179 C 0.04417 0.1324 0.7862 0.0
C180 C 0.04355 0.08269 0.87302 0.0
C181 C 0.97098 0.13519 0.78602 0.0
C182 C 0.97139 0.17561 0.87885 0.0
C183 C 0.97022 0.084 0.87375 0.0
O184 O 0.03715 0.17995 0.85405 0.0
O185 O 0.03501 0.11099 0.79368 0.0
O186 O 0.03658 0.10005 0.89075 0.0
O187 O 0.98004 0.15591 0.79589 0.0
O188 O 0.97882 0.15679 0.89419 0.0
O189 O 0.97731 0.08195 0.84757 0.0
O190 O 0.98078 0.18147 0.85444 0.0
O191 O 0.97863 0.11313 0.79358 0.0
O192 O 0.98 0.09938 0.89177 0.0
O193 O 0.03657 0.15379 0.79612 0.0
O194 O 0.03557 0.15773 0.89541 0.0
O195 O 0.03386 0.07963 0.84812 0.0
Sc196 Sc 0.49395 0.33368 0.3217 0.0
Sc197 Sc 0.49547 0.40123 0.31704 0.0
Sc198 Sc 0.49483 0.37108 0.38568 0.0
O199 O 0.4947 0.36867 0.34148 0.0
C200 C 0.45805 0.32431 0.37501 0.0
C201 C 0.45811 0.36629 0.28126 0.0
C202 C 0.45853 0.41672 0.36828 0.0
C203 C 0.53137 0.3644 0.28141 0.0
C204 C 0.53146 0.32437 0.37408 0.0
C205 C 0.53165 0.41633 0.36849 0.0
O206 O 0.46529 0.31974 0.3493 0.0
O207 O 0.46703 0.38793 0.28838 0.0
O208 O 0.46591 0.39961 0.38604 0.0
O209 O 0.52256 0.3437 0.29157 0.0
O210 O 0.524 0.34329 0.38927 0.0
O211 O 0.52405 0.41852 0.34252 0.0
O212 O 0.5219 0.31819 0.34985 0.0
O213 O 0.52339 0.38648 0.28856 0.0
O214 O 0.52253 0.40043 0.38638 0.0
O215 O 0.46587 0.34514 0.29152 0.0
O216 O 0.46738 0.34166 0.39099 0.0
O217 O 0.46774 0.41957 0.34309 0.0
Sc218 Sc 0.51055 0.67062 0.82438 0.0
Sc219 Sc 0.51076 0.60318 0.81822 0.0
Sc220 Sc 0.51216 0.63205 0.88753 0.0
O221 O 0.5112 0.6353 0.8434 0.0
C222 C 0.54715 0.6802 0.87744 0.0
C223 C 0.54722 0.6398 0.78308 0.0
C224 C 0.54873 0.58729 0.8681 0.0
C225 C 0.47388 0.63939 0.78354 0.0
C226 C 0.47388 0.67798 0.87793 0.0
C227 C 0.47556 0.58676 0.87004 0.0
O228 O 0.53847 0.68568 0.85258 0.0
O229 O 0.53874 0.61784 0.78973 0.0
O230 O 0.54133 0.60387 0.88652 0.0
O231 O 0.48244 0.66025 0.79364 0.0
O232 O 0.48293 0.65976 0.89299 0.0
O233 O 0.48262 0.58522 0.84378 0.0
O234 O 0.48202 0.68405 0.85296 0.0
O235 O 0.48221 0.6175 0.79062 0.0
O236 O 0.48489 0.60227 0.88826 0.0
O237 O 0.539 0.66061 0.79391 0.0
O238 O 0.53951 0.66141 0.89247 0.0
O239 O 0.53917 0.58484 0.84306 0.0
H240 H 0.21276 0.3358 0.95701 0.0
H241 H 0.18951 0.29887 0.93907 0.0
H242 H 0.13156 0.31639 -0.00054 0.0
H243 H 0.15466 0.35327 0.01754 0.0
H244 H 0.16794 0.25466 0.96658 0.0
H245 H 0.09915 0.32069 0.91837 0.0
H246 H 0.12855 0.33159 0.93103 0.0
H247 H 0.10443 0.32538 0.95655 0.0
C248 C 0.19529 0.33147 0.96687 0.0
C249 C 0.18539 0.34762 0.98844 0.0
C250 C 0.18201 0.31043 0.95654 0.0
C251 C 0.15866 0.30523 0.96759 0.0
C252 C 0.14936 0.32041 0.99027 0.0
H253 H 0.06251 0.17578 0.93543 0.0
H254 H 0.09195 0.20578 0.95639 0.0
C255 C 0.16256 0.34146 0.00054 0.0
C256 C 0.14333 0.28505 0.95417 0.0
H257 H 0.09025 0.27631 0.91664 0.0
C258 C 0.15096 0.25932 0.95561 0.0
C259 C 0.12141 0.2913 0.93949 0.0
C260 C 0.11294 0.31874 0.93596 0.0
C261 C 0.13694 0.23957 0.94316 0.0
C262 C 0.11465 0.24579 0.92925 0.0
C263 C 0.10727 0.27157 0.92747 0.0
C264 C 0.09859 0.22604 0.91614 0.0
C265 C 0.14626 0.21231 0.9446 0.0
C266 C 0.09243 0.22755 0.88659 0.0
C267 C 0.07546 0.21062 0.87458 0.0
C268 C 0.06418 0.19183 0.89192 0.0
C269 C 0.07087 0.18993 0.9214 0.0
C270 C 0.08783 0.20697 0.93341 0.0
H271 H 0.1662 0.21159 0.94906 0.0
H272 H 0.13677 0.20206 0.96244 0.0
H273 H 0.14256 0.20192 0.92398 0.0
H274 H 0.10047 0.24219 0.8729 0.0
H275 H 0.07087 0.21262 0.8518 0.0
H276 H 0.84777 0.65332 0.52395 0.0
H277 H 0.87134 0.69094 0.50917 0.0
H278 H 0.81545 0.71075 0.44698 0.0
H279 H 0.79168 0.67324 0.46189 0.0
H280 H 0.88946 0.69677 0.45503 0.0
H281 H 0.83095 0.78043 0.4824 0.0
H282 H 0.82582 0.74884 0.49735 0.0
H283 H 0.81551 0.75645 0.46125 0.0
C284 C 0.84033 0.66594 0.50745 0.0
C285 C 0.81794 0.66028 0.49396 0.0
C286 C 0.85377 0.68746 0.4991 0.0
C287 C 0.8451 0.70379 0.47712 0.0
C288 C 0.82227 0.69877 0.46442 0.0
H289 H 0.93346 0.79129 0.35884 0.0
H290 H 0.90469 0.76241 0.38248 0.0
C291 C 0.80872 0.67729 0.47291 0.0
C292 C 0.86118 0.72418 0.46532 0.0
H293 H 0.86444 0.78832 0.45009 0.0
C294 C 0.88404 0.71681 0.45421 0.0
C295 C 0.85419 0.75036 0.46441 0.0
C296 C 0.83038 0.75959 0.47724 0.0
C297 C 0.89985 0.73476 0.44162 0.0
C298 C 0.89246 0.76073 0.4396 0.0
C299 C 0.86991 0.76832 0.45139 0.0
C300 C 0.90796 0.78003 0.42489 0.0
C301 C 0.92442 0.72575 0.43064 0.0
C302 C 0.91863 0.80013 0.4407 0.0
C303 C 0.93514 0.81682 0.42723 0.0
C304 C 0.94118 0.81368 0.39767 0.0
C305 C 0.92952 0.79416 0.38168 0.0
C306 C 0.91306 0.77757 0.39516 0.0
H307 H 0.92975 0.70698 0.44024 0.0
H308 H 0.92358 0.72337 0.40669 0.0
H309 H 0.93885 0.74003 0.43568 0.0
H310 H 0.91481 0.80238 0.46367 0.0
H311 H 0.94365 0.83169 0.44019 0.0
H312 H 0.75541 0.2555 0.91276 0.0
H313 H 0.79657 0.24116 0.90108 0.0
H314 H 0.8259 0.29339 0.96494 0.0
H315 H 0.78449 0.30641 0.97847 0.0
H316 H 0.83554 0.26246 0.88052 0.0
H317 H 0.85648 0.22817 0.99193 0.0
H318 H 0.82638 0.2387 0.98142 0.0
H319 H 0.8496 0.26183 0.99029 0.0
C320 C 0.77054 0.26378 0.92464 0.0
C321 C 0.76647 0.2817 0.94708 0.0
C322 C 0.79416 0.25572 0.91769 0.0
C323 C 0.81438 0.26564 0.93266 0.0
C324 C 0.81057 0.28481 0.95373 0.0
H325 H 0.96028 0.22557 0.86634 0.0
H326 H 0.92384 0.24969 0.8808 0.0
C327 C 0.78684 0.29258 0.96109 0.0
C328 C 0.8392 0.25528 0.92639 0.0
H329 H 0.88823 0.22519 0.9574 0.0
C330 C 0.84709 0.25436 0.89736 0.0
C331 C 0.85415 0.24436 0.9483 0.0
C332 C 0.84617 0.24304 0.97968 0.0
C333 C 0.86915 0.2424 0.88951 0.0
C334 C 0.88435 0.23198 0.91148 0.0
C335 C 0.8767 0.23335 0.94059 0.0
C336 C 0.90753 0.21826 0.90463 0.0
C337 C 0.87525 0.24002 0.8576 0.0
C338 C 0.91125 0.19304 0.91459 0.0
C339 C 0.9324 0.17947 0.90705 0.0
C340 C 0.95013 0.19075 0.88909 0.0
C341 C 0.94676 0.21625 0.87986 0.0
C342 C 0.92584 0.22999 0.88792 0.0
H343 H 0.85873 0.24207 0.84375 0.0
H344 H 0.88813 0.25551 0.85147 0.0
H345 H 0.88395 0.22122 0.85268 0.0
H346 H 0.89747 0.18359 0.92763 0.0
H347 H 0.93445 0.15984 0.91445 0.0
H348 H 0.24951 0.74724 0.41098 0.0
H349 H 0.20823 0.76147 0.39978 0.0
H350 H 0.17981 0.71232 0.46709 0.0
H351 H 0.22137 0.69948 0.48007 0.0
H352 H 0.16859 0.73972 0.38153 0.0
H353 H 0.15048 0.77897 0.49167 0.0
H354 H 0.18024 0.76767 0.48076 0.0
H355 H 0.15702 0.7452 0.49156 0.0
C356 C 0.23456 0.73963 0.42371 0.0
C357 C 0.23894 0.72265 0.44692 0.0
C358 C 0.21087 0.74761 0.41704 0.0
C359 C 0.19088 0.73854 0.43309 0.0
C360 C 0.19497 0.72025 0.455 0.0
H361 H 0.04387 0.77766 0.3696 0.0
H362 H 0.08038 0.75366 0.38397 0.0
C363 C 0.21878 0.71257 0.46206 0.0
C364 C 0.16603 0.7489 0.42707 0.0
H365 H 0.11801 0.78085 0.45804 0.0
C366 C 0.1575 0.74866 0.39828 0.0
C367 C 0.15168 0.76091 0.44887 0.0
C368 C 0.16038 0.76348 0.47988 0.0
C369 C 0.13538 0.76053 0.39053 0.0
C370 C 0.12079 0.77206 0.41242 0.0
C371 C 0.12907 0.77184 0.44131 0.0
C372 C 0.09763 0.78581 0.40561 0.0
C373 C 0.12856 0.7616 0.35875 0.0
C374 C 0.09446 0.81147 0.41439 0.0
C375 C 0.07329 0.82501 0.40693 0.0
C376 C 0.05498 0.81325 0.39021 0.0
C377 C 0.05783 0.78735 0.38214 0.0
C378 C 0.07879 0.77366 0.39015 0.0
H379 H 0.14473 0.75871 0.34449 0.0
H380 H 0.11536 0.74605 0.35387 0.0
H381 H 0.11998 0.78029 0.35313 0.0
H382 H 0.10866 0.82126 0.42646 0.0
H383 H 0.07165 0.84496 0.41341 0.0
H384 H 0.65306 0.85224 0.02867 0.0
H385 H 0.63142 0.81572 0.00749 0.0
H386 H 0.68672 0.80909 0.9411 0.0
H387 H 0.70852 0.84565 0.96223 0.0
H388 H 0.61258 0.81505 0.95216 0.0
H389 H 0.67806 0.73456 0.9674 0.0
H390 H 0.6805 0.76451 0.98703 0.0
H391 H 0.69078 0.76234 0.95 0.0
C392 C 0.66072 0.84288 0.00969 0.0
C393 C 0.68243 0.85189 0.99703 0.0
C394 C 0.6484 0.82196 0.9977 0.0
C395 C 0.65756 0.80956 0.97288 0.0
C396 C 0.67959 0.81804 0.96061 0.0
H397 H 0.56887 0.72195 0.85215 0.0
H398 H 0.59711 0.75228 0.87461 0.0
C399 C 0.69199 0.83895 0.97267 0.0
C400 C 0.64294 0.78927 0.95854 0.0
H401 H 0.64372 0.72645 0.937 0.0
C402 C 0.61937 0.79566 0.94892 0.0
C403 C 0.65179 0.76396 0.95453 0.0
C404 C 0.67658 0.75578 0.9655 0.0
C405 C 0.60445 0.7775 0.93519 0.0
C406 C 0.61351 0.75237 0.93048 0.0
C407 C 0.63697 0.74583 0.94037 0.0
C408 C 0.59849 0.73257 0.91593 0.0
C409 C 0.57892 0.78524 0.9263 0.0
C410 C 0.59069 0.7109 0.93139 0.0
C411 C 0.57459 0.69342 0.9186 0.0
C412 C 0.56604 0.69729 0.89007 0.0
C413 C 0.57483 0.71847 0.87424 0.0
C414 C 0.59094 0.73588 0.88705 0.0
H415 H 0.57284 0.80307 0.93751 0.0
H416 H 0.57855 0.78886 0.90255 0.0
H417 H 0.56568 0.76972 0.93115 0.0
H418 H 0.59642 0.70797 0.95368 0.0
H419 H 0.56835 0.67728 0.9314 0.0
H420 H 0.35573 0.12886 0.48059 0.0
H421 H 0.37697 0.16425 0.45732 0.0
H422 H 0.31133 0.21018 0.46114 0.0
H423 H 0.29049 0.17564 0.48685 0.0
H424 H 0.37198 0.1886 0.40914 0.0
H425 H 0.35755 0.25866 0.49845 0.0
H426 H 0.34969 0.22523 0.50196 0.0
H427 H 0.32952 0.24705 0.48325 0.0
C428 C 0.34583 0.1466 0.47697 0.0
C429 C 0.32147 0.14945 0.48626 0.0
C430 C 0.35797 0.16678 0.46331 0.0
C431 C 0.34598 0.1902 0.45812 0.0
C432 C 0.32124 0.19263 0.46574 0.0
H433 H 0.4204 0.30166 0.34603 0.0
H434 H 0.39066 0.27115 0.36536 0.0
C435 C 0.30918 0.1726 0.47999 0.0
C436 C 0.35969 0.21191 0.445 0.0
H437 H 0.37651 0.27433 0.45587 0.0
C438 C 0.37296 0.20735 0.41937 0.0
C439 C 0.36126 0.23631 0.45855 0.0
C440 C 0.34896 0.24208 0.48721 0.0
C441 C 0.3881 0.22621 0.40724 0.0
C442 C 0.38914 0.25085 0.42032 0.0
C443 C 0.37553 0.25557 0.44567 0.0
C444 C 0.40532 0.27146 0.40909 0.0
C445 C 0.40364 0.21902 0.38133 0.0
C446 C 0.42243 0.28315 0.42762 0.0
C447 C 0.4389 0.30125 0.41682 0.0
C448 C 0.43881 0.30767 0.38719 0.0
C449 C 0.4211 0.29673 0.36889 0.0
C450 C 0.40425 0.27913 0.37986 0.0
H451 H 0.40616 0.19788 0.3796 0.0
H452 H 0.39448 0.2256 0.36115 0.0
H453 H 0.42194 0.22807 0.38255 0.0
H454 H 0.42354 0.27771 0.4503 0.0
H455 H 0.45238 0.30936 0.4314 0.0
H456 H 0.25995 0.76502 0.90665 0.0
H457 H 0.30135 0.74961 0.89685 0.0
H458 H 0.32536 0.77952 0.97945 0.0
H459 H 0.28378 0.79496 0.98952 0.0
H460 H 0.3588 0.78779 0.93178 0.0
H461 H 0.32902 0.68634 0.94051 0.0
H462 H 0.31137 0.70506 0.9153 0.0
H463 H 0.31062 0.71286 0.95337 0.0
C464 C 0.27405 0.76843 0.92269 0.0
C465 C 0.26852 0.7809 0.94904 0.0
C466 C 0.29769 0.75961 0.91707 0.0
C467 C 0.31627 0.76295 0.93769 0.0
C468 C 0.3112 0.77661 0.96334 0.0
H469 H 0.44995 0.67086 0.92981 0.0
H470 H 0.41334 0.69309 0.94726 0.0
C471 C 0.28749 0.78552 0.96899 0.0
C472 C 0.34063 0.7512 0.9328 0.0
H473 H 0.36868 0.69347 0.92103 0.0
C474 C 0.36106 0.76716 0.92965 0.0
C475 C 0.34358 0.72426 0.93058 0.0
C476 C 0.32255 0.70607 0.93539 0.0
C477 C 0.38422 0.75691 0.92316 0.0
C478 C 0.38688 0.73005 0.91939 0.0
C479 C 0.36661 0.71407 0.92368 0.0
C480 C 0.41022 0.71808 0.9099 0.0
C481 C 0.40563 0.77492 0.92047 0.0
C482 C 0.42061 0.72469 0.88308 0.0
C483 C 0.44153 0.71205 0.87302 0.0
C484 C 0.45244 0.69233 0.88948 0.0
C485 C 0.44211 0.68594 0.91654 0.0
C486 C 0.42117 0.69864 0.92658 0.0
H487 H 0.40234 0.79316 0.93243 0.0
H488 H 0.42265 0.76594 0.92885 0.0
H489 H 0.40844 0.77972 0.89722 0.0
H490 H 0.41216 0.73918 0.86949 0.0
H491 H 0.44884 0.71745 0.85203 0.0
H492 H 0.74896 0.25219 0.41398 0.0
H493 H 0.70759 0.26459 0.40064 0.0
H494 H 0.67866 0.2101 0.46212 0.0
H495 H 0.72015 0.19898 0.4773 0.0
H496 H 0.66998 0.24171 0.37806 0.0
H497 H 0.64486 0.27362 0.4893 0.0
H498 H 0.67562 0.26463 0.47968 0.0
H499 H 0.65317 0.24033 0.48722 0.0
C500 C 0.73385 0.24299 0.42497 0.0
C501 C 0.73801 0.225 0.44725 0.0
C502 C 0.71013 0.24993 0.41706 0.0
C503 C 0.68992 0.23882 0.43092 0.0
C504 C 0.69393 0.21956 0.45176 0.0
H505 H 0.54419 0.27491 0.36047 0.0
H506 H 0.58099 0.25161 0.37532 0.0
C507 C 0.71773 0.21289 0.46007 0.0
C508 C 0.66489 0.24817 0.4239 0.0
H509 H 0.61405 0.27594 0.45362 0.0
C510 C 0.65771 0.24912 0.3946 0.0
C511 C 0.64898 0.25819 0.44544 0.0
C512 C 0.65609 0.25941 0.47712 0.0
C513 C 0.63544 0.26031 0.38616 0.0
C514 C 0.61935 0.26991 0.40775 0.0
C515 C 0.62628 0.26842 0.43709 0.0
C516 C 0.59602 0.2831 0.40032 0.0
C517 C 0.63003 0.26279 0.3541 0.0
C518 C 0.5915 0.30807 0.41067 0.0
C519 C 0.57017 0.32116 0.40288 0.0
C520 C 0.55301 0.30966 0.38427 0.0
C521 C 0.55723 0.28442 0.37453 0.0
C522 C 0.57836 0.27114 0.38281 0.0
H523 H 0.64691 0.2613 0.34077 0.0
H524 H 0.61766 0.24704 0.34734 0.0
H525 H 0.62101 0.28141 0.34917 0.0
H526 H 0.60477 0.31771 0.4243 0.0
H527 H 0.56751 0.34061 0.41069 0.0
H528 H 0.34829 0.40869 0.98018 0.0
H529 H 0.37471 0.43856 0.95449 0.0
H530 H 0.3139 0.49036 0.9426 0.0
H531 H 0.28768 0.46144 0.97029 0.0
H532 H 0.37597 0.45824 0.90204 0.0
H533 H 0.36145 0.53719 0.98146 0.0
H534 H 0.35034 0.50512 0.98759 0.0
H535 H 0.3339 0.5267 0.96408 0.0
C536 C 0.34053 0.42656 0.97241 0.0
C537 C 0.31594 0.43286 0.97793 0.0
C538 C 0.35563 0.44352 0.95741 0.0
C539 C 0.34647 0.46704 0.94723 0.0
C540 C 0.32157 0.47268 0.95101 0.0
H541 H 0.44038 0.56344 0.83707 0.0
H542 H 0.40756 0.5353 0.85384 0.0
C543 C 0.30649 0.45589 0.96647 0.0
C544 C 0.36337 0.48579 0.93366 0.0
H545 H 0.38611 0.54646 0.94085 0.0
C546 C 0.37815 0.47757 0.91046 0.0
C547 C 0.36645 0.5109 0.94493 0.0
C548 C 0.35238 0.52047 0.97105 0.0
C549 C 0.39623 0.49351 0.89861 0.0
C550 C 0.39901 0.51877 0.90957 0.0
C551 C 0.38387 0.52717 0.93234 0.0
C552 C 0.41845 0.53633 0.89908 0.0
C553 C 0.41282 0.48267 0.8754 0.0
C554 C 0.43494 0.5471 0.91902 0.0
C555 C 0.4533 0.56366 0.90961 0.0
C556 C 0.45576 0.56959 0.87996 0.0
C557 C 0.43916 0.55894 0.86 0.0
C558 C 0.42048 0.54272 0.86953 0.0
H559 H 0.4128 0.46133 0.87541 0.0
H560 H 0.40633 0.48913 0.85376 0.0
H561 H 0.4319 0.48935 0.87836 0.0
H562 H 0.43373 0.54251 0.94194 0.0
H563 H 0.46583 0.57149 0.92552 0.0
H564 H 0.65762 0.60096 0.47435 0.0
H565 H 0.63063 0.57153 0.44813 0.0
H566 H 0.68695 0.51343 0.44916 0.0
H567 H 0.71418 0.54297 0.47504 0.0
H568 H 0.66097 0.51471 0.39691 0.0
H569 H 0.59863 0.51245 0.49197 0.0
H570 H 0.60369 0.54414 0.47795 0.0
H571 H 0.62869 0.52646 0.49365 0.0
C572 C 0.66432 0.58201 0.46865 0.0
C573 C 0.68788 0.57413 0.47695 0.0
C574 C 0.64888 0.56521 0.45379 0.0
C575 C 0.6566 0.54011 0.44734 0.0
C576 C 0.6806 0.53268 0.45409 0.0
H577 H 0.55805 0.41266 0.41885 0.0
H578 H 0.58984 0.4416 0.43634 0.0
C579 C 0.69616 0.54958 0.46877 0.0
C580 C 0.63916 0.5212 0.43518 0.0
H581 H 0.58493 0.49155 0.44925 0.0
C582 C 0.64435 0.50957 0.40832 0.0
C583 C 0.61775 0.51418 0.45042 0.0
C584 C 0.61192 0.52474 0.48022 0.0
C585 C 0.62842 0.49143 0.39603 0.0
C586 C 0.60655 0.48515 0.41079 0.0
C587 C 0.6016 0.49652 0.43784 0.0
C588 C 0.58851 0.46669 0.3989 0.0
C589 C 0.6354 0.47881 0.36766 0.0
C590 C 0.57719 0.47113 0.37199 0.0
C591 C 0.55908 0.4545 0.36181 0.0
C592 C 0.55167 0.4333 0.37856 0.0
C593 C 0.56319 0.42884 0.40542 0.0
C594 C 0.58141 0.44535 0.41546 0.0
H595 H 0.65537 0.48002 0.36362 0.0
H596 H 0.62993 0.4583 0.36732 0.0
H597 H 0.62593 0.48878 0.34956 0.0
H598 H 0.58193 0.4878 0.35916 0.0
H599 H 0.5505 0.45863 0.34112 0.0
H600 H 0.67395 0.38624 0.92956 0.0
H601 H 0.65658 0.42262 0.90314 0.0
H602 H 0.67908 0.47369 0.97195 0.0
H603 H 0.69753 0.43764 0.99775 0.0
H604 H 0.6189 0.44854 0.92478 0.0
H605 H 0.69301 0.51775 0.90253 0.0
H606 H 0.69901 0.48482 0.91259 0.0
H607 H 0.6922 0.50848 0.94004 0.0
C608 C 0.67615 0.40535 0.93849 0.0
C609 C 0.68699 0.40899 0.96589 0.0
C610 C 0.666 0.42613 0.92346 0.0
C611 C 0.66653 0.45095 0.93548 0.0
C612 C 0.67878 0.45488 0.9619 0.0
H613 H 0.57472 0.58546 0.91926 0.0
H614 H 0.60499 0.55316 0.93385 0.0
C615 C 0.6891 0.43415 0.97683 0.0
C616 C 0.65136 0.47179 0.92271 0.0
H617 H 0.65196 0.53465 0.90125 0.0
C618 C 0.62625 0.46722 0.91922 0.0
C619 C 0.66086 0.49629 0.91571 0.0
C620 C 0.68779 0.50206 0.91764 0.0
C621 C 0.61033 0.48657 0.90965 0.0
C622 C 0.61975 0.51115 0.90324 0.0
C623 C 0.64484 0.51577 0.90636 0.0
C624 C 0.6035 0.53214 0.89334 0.0
C625 C 0.5834 0.48084 0.90709 0.0
C626 C 0.59309 0.5312 0.86555 0.0
C627 C 0.57585 0.54955 0.85712 0.0
C628 C 0.56858 0.5692 0.87638 0.0
C629 C 0.57976 0.57056 0.90392 0.0
C630 C 0.59711 0.5522 0.91228 0.0
H631 H 0.57853 0.46217 0.91719 0.0
H632 H 0.57245 0.49628 0.91755 0.0
H633 H 0.57825 0.48012 0.88378 0.0
H634 H 0.5979 0.51589 0.85062 0.0
H635 H 0.56779 0.5479 0.8357 0.0
H636 H 0.31301 0.56887 0.50282 0.0
H637 H 0.33303 0.53288 0.47824 0.0
H638 H 0.35443 0.58312 0.40837 0.0
H639 H 0.33566 0.6195 0.43354 0.0
H640 H 0.3305 0.50873 0.42549 0.0
H641 H 0.41976 0.55785 0.43807 0.0
H642 H 0.39231 0.56928 0.45551 0.0
H643 H 0.3978 0.57607 0.41773 0.0
C644 C 0.32186 0.57226 0.48212 0.0
C645 C 0.32314 0.59722 0.47048 0.0
C646 C 0.33316 0.55161 0.46801 0.0
C647 C 0.34583 0.55546 0.44189 0.0
C648 C 0.34531 0.57986 0.42892 0.0
H649 H 0.44197 0.45913 0.33917 0.0
H650 H 0.41271 0.49129 0.35599 0.0
C651 C 0.33423 0.6006 0.44316 0.0
C652 C 0.36105 0.53447 0.42951 0.0
H653 H 0.41987 0.51879 0.41188 0.0
C654 C 0.35003 0.51092 0.42249 0.0
C655 C 0.38662 0.53724 0.42598 0.0
C656 C 0.3999 0.56136 0.43497 0.0
C657 C 0.36387 0.49023 0.4116 0.0
C658 C 0.3893 0.49321 0.40776 0.0
C659 C 0.4003 0.5167 0.41471 0.0
C660 C 0.40507 0.47223 0.39667 0.0
C661 C 0.35128 0.4654 0.40398 0.0
C662 C 0.41037 0.45077 0.41399 0.0
C663 C 0.4273 0.43233 0.40457 0.0
C664 C 0.43919 0.43505 0.37761 0.0
C665 C 0.43322 0.45631 0.36003 0.0
C666 C 0.41647 0.47476 0.36957 0.0
H667 H 0.33108 0.4675 0.40373 0.0
H668 H 0.35745 0.45842 0.38236 0.0
H669 H 0.35621 0.45056 0.42026 0.0
H670 H 0.40196 0.44868 0.43517 0.0
H671 H 0.4314 0.41624 0.41866 0.0
H672 H 0.78156 0.96201 0.97576 0.0
H673 H 0.80696 0.98907 0.94478 0.0
H674 H 0.86895 0.93996 0.96171 0.0
H675 H 0.84338 0.91192 0.99096 0.0
H676 H 0.84375 0.01662 0.96155 0.0
H677 H 0.87781 0.95052 0.87696 0.0
H678 H 0.85287 0.94212 0.90072 0.0
H679 H 0.88407 0.93765 0.91227 0.0
C680 C 0.80039 0.95646 0.97211 0.0
C681 C 0.81043 0.9348 0.98599 0.0
C682 C 0.81496 0.9721 0.95457 0.0
C683 C 0.83985 0.96645 0.9506 0.0
C684 C 0.84971 0.94445 0.96378 0.0
H685 H 0.95747 0.07245 0.92965 0.0
H686 H 0.92421 0.04494 0.946 0.0
C687 C 0.83511 0.92864 0.98097 0.0
C688 C 0.85608 0.98479 0.93528 0.0
H689 H 0.90266 0.98817 0.88613 0.0
C690 C 0.85633 0.01047 0.94469 0.0
C691 C 0.87224 0.977 0.9129 0.0
C692 C 0.87153 0.95038 0.89993 0.0
C693 C 0.87307 0.02819 0.9334 0.0
C694 C 0.89061 0.0198 0.91285 0.0
C695 C 0.88954 0.9945 0.90232 0.0
C696 C 0.91069 0.03668 0.90276 0.0
C697 C 0.8717 0.0557 0.94368 0.0
C698 C 0.91477 0.04047 0.87295 0.0
C699 C 0.93413 0.05579 0.86349 0.0
C700 C 0.94972 0.06773 0.8837 0.0
C701 C 0.94563 0.06382 0.91353 0.0
C702 C 0.92649 0.04823 0.92293 0.0
H703 H 0.8529 0.06082 0.95077 0.0
H704 H 0.88398 0.05822 0.96265 0.0
H705 H 0.87738 0.06927 0.92636 0.0
H706 H 0.90292 0.03162 0.85698 0.0
H707 H 0.93675 0.05844 0.84035 0.0
H708 H 0.16263 0.09489 0.47879 0.0
H709 H 0.13798 0.06608 0.44921 0.0
H710 H 0.20083 0.01747 0.43508 0.0
H711 H 0.22528 0.04534 0.46647 0.0
H712 H 0.13721 0.04757 0.39589 0.0
H713 H 0.15542 0.96767 0.47297 0.0
H714 H 0.16511 1.0001 0.48008 0.0
H715 H 0.18218 0.98003 0.45544 0.0
C716 C 0.17127 0.07809 0.46938 0.0
C717 C 0.19577 0.07206 0.47571 0.0
C718 C 0.15718 0.06172 0.45222 0.0
C719 C 0.16732 0.03914 0.44065 0.0
C720 C 0.19239 0.03434 0.44457 0.0
H721 H 0.06974 0.94195 0.33435 0.0
H722 H 0.10367 0.96976 0.34866 0.0
C723 C 0.20646 0.05053 0.46217 0.0
C724 C 0.15103 0.01998 0.42661 0.0
H725 H 0.1292 0.95895 0.43394 0.0
C726 C 0.13557 0.02811 0.40404 0.0
C727 C 0.14866 0.99468 0.43756 0.0
C728 C 0.16353 0.9851 0.463 0.0
C729 C 0.11731 0.012 0.39276 0.0
C730 C 0.115 0.9867 0.40368 0.0
C731 C 0.13103 0.97829 0.42552 0.0
C732 C 0.09494 0.96925 0.39457 0.0
C733 C 0.09992 0.02276 0.37038 0.0
C734 C 0.07927 0.95888 0.41566 0.0
C735 C 0.06026 0.94253 0.40764 0.0
C736 C 0.0563 0.93638 0.37826 0.0
C737 C 0.07212 0.94658 0.35714 0.0
C738 C 0.09143 0.96263 0.36526 0.0
H739 H 0.10015 0.0441 0.37007 0.0
H740 H 0.10544 0.0159 0.34849 0.0
H741 H 0.08093 0.01633 0.37455 0.0
H742 H 0.08161 0.96365 0.43842 0.0
H743 H 0.04839 0.93508 0.42445 0.0
H744 H 0.17451 0.88508 0.93237 0.0
H745 H 0.15607 0.92151 0.90715 0.0
H746 H 0.17537 0.97117 0.97861 0.0
H747 H 0.19488 0.93509 0.00332 0.0
H748 H 0.11695 0.94497 0.92955 0.0
H749 H 0.1885 0.01801 0.91102 0.0
H750 H 0.19568 0.98503 0.91972 0.0
H751 H 0.18757 0.00736 0.94806 0.0
C752 C 0.1758 0.90394 0.94218 0.0
C753 C 0.18604 0.90711 0.96998 0.0
C754 C 0.16503 0.92475 0.92783 0.0
C755 C 0.16433 0.94913 0.94092 0.0
C756 C 0.176 0.95271 0.96778 0.0
H757 H 0.06973 0.08199 0.92409 0.0
H758 H 0.10044 0.05035 0.9392 0.0
C759 C 0.18693 0.93196 0.98205 0.0
C760 C 0.14847 0.96964 0.92868 0.0
H761 H 0.14689 0.03288 0.90875 0.0
C762 C 0.12362 0.96407 0.92462 0.0
C763 C 0.15708 0.99468 0.92257 0.0
C764 C 0.18372 1.00158 0.9253 0.0
C765 C 0.10707 0.98289 0.9152 0.0
C766 C 0.1156 0.00796 0.90945 0.0
C767 C 0.14044 0.01362 0.9133 0.0
C768 C 0.09876 0.02837 0.89935 0.0
C769 C 0.08043 0.97602 0.91212 0.0
C770 C 0.08806 0.02669 0.87175 0.0
C771 C 0.07054 0.04463 0.86304 0.0
C772 C 0.06332 0.06468 0.8818 0.0
C773 C 0.07471 0.06676 0.90915 0.0
C774 C 0.09233 0.04877 0.9178 0.0
H775 H 0.07607 0.95742 0.92271 0.0
H776 H 0.06866 0.99123 0.92174 0.0
H777 H 0.0758 0.97443 0.88871 0.0
H778 H 0.09296 0.01117 0.85713 0.0
H779 H 0.06236 0.04246 0.84176 0.0
H780 H 0.84206 0.12653 0.4366 0.0
H781 H 0.86214 0.09086 0.4112 0.0
H782 H 0.82998 0.03727 0.47134 0.0
H783 H 0.80968 0.07281 0.49665 0.0
H784 H 0.89588 0.0592 0.44185 0.0
H785 H 0.82202 1.00158 0.39114 0.0
H786 H 0.81804 0.03489 0.40125 0.0
H787 H 0.81692 0.01025 0.42849 0.0
C788 C 0.83859 0.10707 0.44378 0.0
C789 C 0.82431 0.10243 0.46861 0.0
C790 C 0.85019 0.08674 0.42937 0.0
C791 C 0.84745 0.06143 0.43931 0.0
C792 C 0.83207 0.0566 0.46305 0.0
H793 H 0.94548 0.93153 0.42777 0.0
H794 H 0.91648 0.96487 0.44289 0.0
C795 C 0.82059 0.07692 0.47758 0.0
C796 C 0.86298 0.04059 0.42731 0.0
H797 H 0.8614 0.98193 0.39393 0.0
C798 C 0.88835 0.04241 0.43115 0.0
C799 C 0.85309 0.01872 0.41343 0.0
C800 C 0.82604 0.01622 0.40806 0.0
C801 C 0.90407 0.02266 0.42204 0.0
C802 C 0.89416 1.00052 0.40883 0.0
C803 C 0.86886 0.99889 0.40434 0.0
C804 C 0.91006 0.97906 0.39941 0.0
C805 C 0.93122 0.02548 0.42663 0.0
C806 C 0.91566 0.97582 0.36992 0.0
C807 C 0.93233 0.95694 0.36119 0.0
C808 C 0.94357 0.94079 0.38181 0.0
C809 C 0.93721 0.94358 0.4113 0.0
C810 C 0.92067 0.96263 0.42001 0.0
H811 H 0.93627 0.04526 0.43342 0.0
H812 H 0.93729 0.01191 0.44376 0.0
H813 H 0.94126 0.0206 0.40637 0.0
H814 H 0.90762 0.98837 0.35374 0.0
H815 H 0.93665 0.95524 0.33829 0.0
H816 H 0.27833 0.38573 0.09555 0.0
H817 H 0.3001 0.37503 0.14036 0.0
H818 H 0.3656 0.36017 0.09091 0.0
H819 H 0.34357 0.36886 0.04603 0.0
H820 H 0.36313 0.32826 0.1347 0.0
H821 H 0.34471 0.42696 0.17546 0.0
H822 H 0.31778 0.40816 0.16953 0.0
H823 H 0.33672 0.41701 0.13919 0.0
C824 C 0.29717 0.37946 0.09412 0.0
C825 C 0.30935 0.37871 0.06718 0.0
C826 C 0.30971 0.37375 0.11984 0.0
C827 C 0.33473 0.36772 0.11913 0.0
C828 C 0.3464 0.36514 0.09212 0.0
H829 H 0.44774 0.40219 0.23996 0.0
H830 H 0.41616 0.40044 0.20261 0.0
C831 C 0.33381 0.37038 0.06644 0.0
C832 C 0.34942 0.36572 0.1462 0.0
H833 H 0.36851 0.40019 0.20513 0.0
C834 C 0.3642 0.34391 0.15024 0.0
C835 C 0.35104 0.38632 0.16627 0.0
C836 C 0.33692 0.41103 0.16235 0.0
C837 C 0.38114 0.34247 0.17311 0.0
C838 C 0.38269 0.36304 0.19321 0.0
C839 C 0.36726 0.38441 0.18979 0.0
C840 C 0.40147 0.36387 0.21651 0.0
C841 C 0.39807 0.31956 0.17448 0.0
C842 C 0.4036 0.34407 0.23707 0.0
C843 C 0.42201 0.3448 0.25814 0.0
C844 C 0.43822 0.36568 0.25951 0.0
C845 C 0.43552 0.38587 0.23953 0.0
C846 C 0.41744 0.38489 0.21817 0.0
H847 H 0.39892 0.30917 0.15339 0.0
H848 H 0.41687 0.32543 0.18056 0.0
H849 H 0.39128 0.30592 0.19111 0.0
H850 H 0.39105 0.32804 0.23683 0.0
H851 H 0.42343 0.32912 0.27351 0.0
H852 H 0.70529 0.66103 0.56977 0.0
H853 H 0.68408 0.67194 0.61547 0.0
H854 H 0.66065 0.59328 0.62371 0.0
H855 H 0.68161 0.58239 0.57852 0.0
H856 H 0.63187 0.66371 0.62515 0.0
H857 H 0.68911 0.61138 0.70483 0.0
H858 H 0.70012 0.62048 0.66926 0.0
H859 H 0.6813 0.59248 0.67352 0.0
C860 C 0.69585 0.64611 0.58164 0.0
C861 C 0.69489 0.62094 0.57061 0.0
C862 C 0.68376 0.65233 0.60761 0.0
C863 C 0.67107 0.63332 0.62307 0.0
C864 C 0.67065 0.60812 0.61235 0.0
H865 H 0.56815 0.60012 0.75285 0.0
H866 H 0.59999 0.60245 0.7159 0.0
C867 C 0.68243 0.60199 0.58642 0.0
C868 C 0.65659 0.63968 0.64929 0.0
H869 H 0.64792 0.62093 0.71956 0.0
C870 C 0.6356 0.65491 0.64604 0.0
C871 C 0.66156 0.62806 0.6764 0.0
C872 C 0.68438 0.61237 0.68137 0.0
C873 C 0.61851 0.65737 0.66866 0.0
C874 C 0.62286 0.64462 0.69533 0.0
C875 C 0.64456 0.63057 0.69905 0.0
C876 C 0.60421 0.64368 0.71865 0.0
C877 C 0.59524 0.67223 0.66323 0.0
C878 C 0.59624 0.66609 0.73278 0.0
C879 C 0.57787 0.66487 0.75389 0.0
C880 C 0.56727 0.64117 0.7614 0.0
C881 C 0.57578 0.61872 0.74762 0.0
C882 C 0.59405 0.61999 0.72651 0.0
H883 H 0.59265 0.67672 0.63982 0.0
H884 H 0.57914 0.66128 0.67099 0.0
H885 H 0.59588 0.69064 0.67538 0.0
H886 H 0.60416 0.68452 0.72741 0.0
H887 H 0.57193 0.68253 0.7642 0.0
H888 H 0.70133 0.34339 0.08204 0.0
H889 H 0.67926 0.34028 0.12842 0.0
H890 H 0.61885 0.38234 0.09147 0.0
H891 H 0.64038 0.38504 0.04517 0.0
H892 H 0.65863 0.38101 0.16492 0.0
H893 H 0.58893 0.31398 0.12163 0.0
H894 H 0.61775 0.31958 0.10363 0.0
H895 H 0.59312 0.34226 0.09987 0.0
C896 C 0.68336 0.35198 0.08388 0.0
C897 C 0.67261 0.36449 0.05997 0.0
C898 C 0.67085 0.35028 0.11035 0.0
C899 C 0.64735 0.36081 0.11314 0.0
C900 C 0.63687 0.37384 0.08959 0.0
H901 H 0.55373 0.40395 0.25272 0.0
H902 H 0.58461 0.40105 0.21467 0.0
C903 C 0.64933 0.37561 0.06324 0.0
C904 C 0.63335 0.35796 0.14041 0.0
H905 H 0.57974 0.33435 0.16683 0.0
C906 C 0.64153 0.37056 0.16554 0.0
C907 C 0.61128 0.34395 0.14119 0.0
C908 C 0.60231 0.32895 0.11523 0.0
C909 C 0.62753 0.37054 0.19113 0.0
C910 C 0.60469 0.35788 0.19132 0.0
C911 C 0.59715 0.34425 0.16658 0.0
C912 C 0.58763 0.35962 0.21623 0.0
C913 C 0.63723 0.38423 0.21762 0.0
C914 C 0.57879 0.33725 0.22949 0.0
C915 C 0.5609 0.33878 0.25111 0.0
C916 C 0.55138 0.36276 0.25973 0.0
C917 C 0.56064 0.38516 0.24672 0.0
C918 C 0.57849 0.38358 0.2251 0.0
H919 H 0.65746 0.38573 0.217 0.0
H920 H 0.62964 0.40401 0.21828 0.0
H921 H 0.63181 0.37422 0.23791 0.0
H922 H 0.58549 0.31855 0.2228 0.0
H923 H 0.55426 0.32114 0.26067 0.0
H924 H 0.31744 0.60555 0.57692 0.0
H925 H 0.33874 0.60551 0.62373 0.0
H926 H 0.36431 0.6824 0.60755 0.0
H927 H 0.34372 0.68243 0.56052 0.0
H928 H 0.39105 0.61336 0.62652 0.0
H929 H 0.33968 0.68409 0.69351 0.0
H930 H 0.32643 0.66812 0.66239 0.0
H931 H 0.3472 0.69435 0.6573 0.0
C932 C 0.32741 0.62255 0.58344 0.0
C933 C 0.32891 0.64396 0.5649 0.0
C934 C 0.33941 0.62254 0.61025 0.0
C935 C 0.35285 0.64405 0.61916 0.0
C936 C 0.35361 0.66582 0.6013 0.0
H937 H 0.45847 0.68087 0.7517 0.0
H938 H 0.42767 0.68138 0.71315 0.0
C939 C 0.34176 0.6658 0.57442 0.0
C940 C 0.36833 0.64274 0.64544 0.0
H941 H 0.37835 0.67056 0.71158 0.0
C942 C 0.38815 0.62563 0.64529 0.0
C943 C 0.36459 0.65902 0.66963 0.0
C944 C 0.34322 0.67733 0.67098 0.0
C945 C 0.40482 0.62484 0.6684 0.0
C946 C 0.40112 0.64113 0.6927 0.0
C947 C 0.3811 0.65806 0.69298 0.0
C948 C 0.41828 0.64123 0.71761 0.0
C949 C 0.42672 0.60727 0.66601 0.0
C950 C 0.42269 0.61869 0.73343 0.0
C951 C 0.44044 0.61824 0.7552 0.0
C952 C 0.45387 0.64048 0.76191 0.0
C953 C 0.44853 0.66339 0.747 0.0
C954 C 0.43092 0.66373 0.72499 0.0
H955 H 0.43033 0.60153 0.64314 0.0
H956 H 0.44337 0.61659 0.67483 0.0
H957 H 0.42327 0.58953 0.67869 0.0
H958 H 0.41267 0.60129 0.72861 0.0
H959 H 0.44379 0.60038 0.76658 0.0
H960 H 0.79322 0.85237 0.08295 0.0
H961 H 0.81541 0.84131 0.12781 0.0
H962 H 0.84155 0.91918 0.13396 0.0
H963 H 0.81954 0.93026 0.08953 0.0
H964 H 0.8679 0.84757 0.13478 0.0
H965 H 0.81536 0.90296 0.21661 0.0
H966 H 0.80285 0.89405 0.18167 0.0
H967 H 0.82291 0.9212 0.18477 0.0
C968 C 0.80343 0.86713 0.09421 0.0
C969 C 0.80483 0.89211 0.08278 0.0
C970 C 0.81609 0.86081 0.11969 0.0
C971 C 0.82985 0.87953 0.13431 0.0
C972 C 0.83072 0.90458 0.12325 0.0
H973 H 0.93784 0.90879 0.25926 0.0
H974 H 0.90475 0.90765 0.22391 0.0
C975 C 0.81834 0.91082 0.09775 0.0
C976 C 0.84495 0.87285 0.15986 0.0
H977 H 0.85643 0.89138 0.22967 0.0
C978 C 0.86517 0.85664 0.15578 0.0
C979 C 0.84127 0.88479 0.18712 0.0
C980 C 0.81929 0.90155 0.19297 0.0
C981 C 0.88278 0.85343 0.17769 0.0
C982 C 0.87972 0.86643 0.2045 0.0
C983 C 0.85878 0.88153 0.20906 0.0
C984 C 0.8991 0.86664 0.22697 0.0
C985 C 0.90523 0.83748 0.17132 0.0
C986 C 0.90669 0.84396 0.24075 0.0
C987 C 0.9258 0.84448 0.26096 0.0
C988 C 0.93752 0.86775 0.26786 0.0
C989 C 0.92936 0.8905 0.25447 0.0
C990 C 0.91037 0.88992 0.23427 0.0
H991 H 0.90695 0.83282 0.14783 0.0
H992 H 0.922 0.84768 0.1784 0.0
H993 H 0.90416 0.81916 0.18352 0.0
H994 H 0.89792 0.82586 0.23581 0.0
H995 H 0.93144 0.82663 0.27102 0.0
H996 H 0.2082 0.14872 0.58006 0.0
H997 H 0.18468 0.15771 0.6245 0.0
H998 H 0.15499 0.08113 0.62182 0.0
H999 H 0.17838 0.07202 0.5777 0.0
H1000 H 0.13086 0.15254 0.62909 0.0
H1001 H 0.1819 0.0909 0.70659 0.0
H1002 H 0.19502 0.10229 0.67295 0.0
H1003 H 0.17424 0.07565 0.67273 0.0
C1004 C 0.19682 0.13377 0.58919 0.0
C1005 C 0.19499 0.10972 0.57544 0.0
C1006 C 0.18341 0.13894 0.61443 0.0
C1007 C 0.16836 0.11998 0.62649 0.0
C1008 C 0.16676 0.09588 0.61299 0.0
H1009 H 0.06191 0.09141 0.75547 0.0
H1010 H 0.09363 0.09142 0.71831 0.0
C1011 C 0.17994 0.09079 0.58769 0.0
C1012 C 0.15323 0.12547 0.65235 0.0
H1013 H 0.14227 0.10491 0.72146 0.0
C1014 C 0.13351 0.14252 0.64951 0.0
C1015 C 0.15685 0.11227 0.6788 0.0
C1016 C 0.17827 0.0944 0.68317 0.0
C1017 C 0.11642 0.14565 0.672 0.0
C1018 C 0.11955 0.13173 0.69816 0.0
C1019 C 0.13989 0.1155 0.70136 0.0
C1020 C 0.10096 0.13214 0.72153 0.0
C1021 C 0.09448 0.1627 0.66695 0.0
C1022 C 0.0948 0.155 0.736 0.0
C1023 C 0.07648 0.15513 0.7572 0.0
C1024 C 0.06418 0.13232 0.76449 0.0
C1025 C 0.07092 0.10935 0.75042 0.0
C1026 C 0.08909 0.10929 0.72918 0.0
H1027 H 0.09214 0.16756 0.64361 0.0
H1028 H 0.07753 0.15333 0.6748 0.0
H1029 H 0.09684 0.1809 0.67919 0.0
H1030 H 0.10411 0.17274 0.73084 0.0
H1031 H 0.07194 0.17312 0.76778 0.0
H1032 H 0.13885 0.87919 0.0463 0.0
H1033 H 0.11714 0.87649 0.09242 0.0
H1034 H 0.17718 0.83391 0.1295 0.0
H1035 H 0.19951 0.83717 0.0833 0.0
H1036 H 0.10322 0.83142 0.12165 0.0
H1037 H 0.16456 0.89268 0.18869 0.0
H1038 H 0.16541 0.8928 0.14946 0.0
H1039 H 0.17864 0.86654 0.16924 0.0
C1040 C 0.14769 0.86964 0.06437 0.0
C1041 C 0.17108 0.85872 0.06127 0.0
C1042 C 0.13515 0.86791 0.09065 0.0
C1043 C 0.14566 0.85524 0.11444 0.0
C1044 C 0.16892 0.8441 0.11149 0.0
H1045 H 0.05335 0.82023 0.26559 0.0
H1046 H 0.08316 0.8157 0.2263 0.0
C1047 C 0.18155 0.84581 0.08508 0.0
C1048 C 0.13172 0.85346 0.14194 0.0
H1049 H 0.12977 0.87569 0.21177 0.0
C1050 C 0.10911 0.84084 0.14148 0.0
C1051 C 0.13944 0.86598 0.16762 0.0
C1052 C 0.16325 0.88045 0.16895 0.0
C1053 C 0.09367 0.84096 0.1658 0.0
C1054 C 0.10125 0.85369 0.19143 0.0
C1055 C 0.12412 0.86581 0.19213 0.0
C1056 C 0.08483 0.85635 0.21686 0.0
C1057 C 0.0689 0.82846 0.16342 0.0
C1058 C 0.07653 0.88078 0.22519 0.0
C1059 C 0.0596 0.88349 0.2477 0.0
C1060 C 0.05063 0.86177 0.2624 0.0
C1061 C 0.05965 0.83736 0.2546 0.0
C1062 C 0.07665 0.8347 0.23209 0.0
H1063 H 0.06393 0.82418 0.14051 0.0
H1064 H 0.06906 0.8101 0.17562 0.0
H1065 H 0.05452 0.84098 0.17297 0.0
H1066 H 0.08268 0.89774 0.21374 0.0
H1067 H 0.05322 0.9026 0.25317 0.0
H1068 H 0.81714 0.10611 0.57528 0.0
H1069 H 0.83797 0.10456 0.62236 0.0
H1070 H 0.8628 0.18231 0.6103 0.0
H1071 H 0.84263 0.18389 0.56306 0.0
H1072 H 0.88967 0.11234 0.62703 0.0
H1073 H 0.83749 0.18122 0.69545 0.0
H1074 H 0.82484 0.16658 0.66316 0.0
H1075 H 0.84578 0.19292 0.66006 0.0
C1076 C 0.82683 0.12297 0.58278 0.0
C1077 C 0.82823 0.14511 0.56534 0.0
C1078 C 0.83859 0.12209 0.60973 0.0
C1079 C 0.85167 0.14341 0.6199 0.0
C1080 C 0.85235 0.16584 0.60311 0.0
H1081 H 0.9561 0.17715 0.75461 0.0
H1082 H 0.92571 0.17837 0.71564 0.0
C1083 C 0.84074 0.16671 0.5761 0.0
C1084 C 0.86682 0.14136 0.64643 0.0
H1085 H 0.87623 0.16767 0.7135 0.0
C1086 C 0.88659 0.12418 0.64611 0.0
C1087 C 0.86284 0.15707 0.67105 0.0
C1088 C 0.84148 0.17537 0.67269 0.0
C1089 C 0.90301 0.12282 0.66945 0.0
C1090 C 0.89913 0.1386 0.69412 0.0
C1091 C 0.87913 0.15556 0.69459 0.0
C1092 C 0.91609 0.13822 0.71922 0.0
C1093 C 0.92488 0.10521 0.66693 0.0
C1094 C 0.92026 0.11542 0.73467 0.0
C1095 C 0.93776 0.11458 0.75673 0.0
C1096 C 0.95121 0.13665 0.76407 0.0
C1097 C 0.94615 0.15978 0.74946 0.0
C1098 C 0.92877 0.16053 0.7272 0.0
H1099 H 0.92863 0.09979 0.64398 0.0
H1100 H 0.94149 0.11434 0.67609 0.0
H1101 H 0.92129 0.0873 0.67924 0.0
H1102 H 0.91022 0.09814 0.72937 0.0
H1103 H 0.9409 0.09653 0.76782 0.0
loop_
_geom_bond_atom_site_label_1
_geom_bond_atom_site_label_2
_geom_bond_distance
_geom_bond_site_symmetry_2
_ccdc_geom_bond_type
H0 C1 0.949 . S
C1 H0 0.949 . S
C1 C2 1.395 1_556 S
C1 C3 1.391 1_556 S
C2 C1 1.395 1_554 S
C2 C5 1.390 . S
C3 C1 1.391 1_554 S
C3 C7 1.387 . S
C3 C8 1.491 . S
H4 C5 0.950 . S
C5 C2 1.390 . S
C5 H4 0.950 . S
C5 C6 1.378 . S
C6 C5 1.378 . S
C6 C7 1.409 . S
C7 C3 1.387 . S
C7 C6 1.409 . S
C7 H9 0.951 . S
C8 C3 1.491 . S
C8 C10 1.382 1_554 S
C8 C12 1.404 . S
H9 C7 0.951 . S
C10 C8 1.382 1_556 S
C10 C11 1.390 . S
C10 H15 0.949 . S
C11 C10 1.390 . S
C11 C16 1.399 1_556 S
C12 C8 1.404 . S
C12 H13 0.950 . S
C12 C14 1.375 . S
H13 C12 0.950 . S
C14 C12 1.375 . S
C14 C16 1.382 . S
C14 H18 0.950 . S
H15 C10 0.949 . S
C16 C11 1.399 1_554 S
C16 C14 1.382 . S
C16 H17 0.952 . S
H17 C16 0.952 . S
H18 C14 0.950 . S
H19 C20 0.949 . S
C20 H19 0.949 . S
C20 C21 1.395 . S
C20 C22 1.391 . S
C21 C20 1.395 . S
C21 C24 1.390 . S
C22 C20 1.391 . S
C22 C26 1.387 . S
C22 C27 1.491 . S
H23 C24 0.950 . S
C24 C21 1.390 . S
C24 H23 0.950 . S
C24 C25 1.378 . S
C25 C24 1.378 . S
C25 C26 1.409 . S
C26 C22 1.387 . S
C26 C25 1.409 . S
C26 H28 0.951 . S
C27 C22 1.491 . S
C27 C29 1.382 . S
C27 C31 1.404 . S
H28 C26 0.951 . S
C29 C27 1.382 . S
C29 C30 1.390 . S
C29 H34 0.949 . S
C30 C29 1.390 . S
C30 C35 1.399 . S
C31 C27 1.404 . S
C31 H32 0.950 . S
C31 C33 1.375 . S
H32 C31 0.950 . S
C33 C31 1.375 . S
C33 C35 1.382 . S
C33 H37 0.950 . S
H34 C29 0.949 . S
C35 C30 1.399 . S
C35 C33 1.382 . S
C35 H36 0.952 . S
H36 C35 0.952 . S
H37 C33 0.950 . S
H38 C39 0.949 . S
C39 H38 0.949 . S
C39 C40 1.395 1_556 S
C39 C41 1.391 1_556 S
C40 C39 1.395 1_554 S
C40 C43 1.390 . S
C41 C39 1.391 1_554 S
C41 C45 1.387 . S
C41 C46 1.491 . S
H42 C43 0.950 . S
C43 C40 1.390 . S
C43 H42 0.950 . S
C43 C44 1.378 . S
C44 C43 1.378 . S
C44 C45 1.409 . S
C45 C41 1.387 . S
C45 C44 1.409 . S
C45 H47 0.951 . S
C46 C41 1.491 . S
C46 C48 1.382 1_554 S
C46 C50 1.404 . S
H47 C45 0.951 . S
C48 C46 1.382 1_556 S
C48 C49 1.390 . S
C48 H53 0.949 . S
C49 C48 1.390 . S
C49 C54 1.399 . S
C50 C46 1.404 . S
C50 H51 0.950 . S
C50 C52 1.375 . S
H51 C50 0.950 . S
C52 C50 1.375 . S
C52 C54 1.382 1_554 S
C52 H56 0.950 . S
H53 C48 0.949 . S
C54 C49 1.399 . S
C54 C52 1.382 1_556 S
C54 H55 0.952 . S
H55 C54 0.952 . S
H56 C52 0.950 . S
H57 C58 0.949 . S
C58 H57 0.949 . S
C58 C59 1.395 . S
C58 C60 1.391 . S
C59 C58 1.395 . S
C59 C62 1.390 . S
C60 C58 1.391 . S
C60 C64 1.387 . S
C60 C65 1.491 . S
H61 C62 0.950 . S
C62 C59 1.390 . S
C62 H61 0.950 . S
C62 C63 1.378 . S
C63 C62 1.378 . S
C63 C64 1.409 . S
C64 C60 1.387 . S
C64 C63 1.409 . S
C64 H66 0.951 . S
C65 C60 1.491 . S
C65 C67 1.382 . S
C65 C69 1.404 . S
H66 C64 0.951 . S
C67 C65 1.382 . S
C67 C68 1.390 . S
C67 H72 0.949 . S
C68 C67 1.390 . S
C68 C73 1.399 . S
C69 C65 1.404 . S
C69 H70 0.950 . S
C69 C71 1.375 . S
H70 C69 0.950 . S
C71 C69 1.375 . S
C71 C73 1.382 . S
C71 H75 0.950 . S
H72 C67 0.949 . S
C73 C68 1.399 . S
C73 C71 1.382 . S
C73 H74 0.952 . S
H74 C73 0.952 . S
H75 C71 0.950 . S
H76 C77 0.949 . S
C77 H76 0.949 . S
C77 C78 1.395 1_556 S
C77 C79 1.391 1_556 S
C78 C77 1.395 1_554 S
C78 C81 1.390 . S
C79 C77 1.391 1_554 S
C79 C83 1.387 . S
C79 C84 1.491 . S
H80 C81 0.950 . S
C81 C78 1.390 . S
C81 H80 0.950 . S
C81 C82 1.378 . S
C82 C81 1.378 . S
C82 C83 1.409 . S
C83 C79 1.387 . S
C83 C82 1.409 . S
C83 H85 0.951 . S
C84 C79 1.491 . S
C84 C86 1.382 1_554 S
C84 C88 1.404 . S
H85 C83 0.951 . S
C86 C84 1.382 1_556 S
C86 C87 1.390 . S
C86 H91 0.949 . S
C87 C86 1.390 . S
C87 C92 1.399 1_556 S
C88 C84 1.404 . S
C88 H89 0.950 . S
C88 C90 1.375 . S
H89 C88 0.950 . S
C90 C88 1.375 . S
C90 C92 1.382 . S
C90 H94 0.950 . S
H91 C86 0.949 . S
C92 C87 1.399 1_554 S
C92 C90 1.382 . S
C92 H93 0.952 . S
H93 C92 0.952 . S
H94 C90 0.950 . S
H95 C96 0.949 . S
C96 H95 0.949 . S
C96 C97 1.395 . S
C96 C98 1.391 . S
C97 C96 1.395 . S
C97 C100 1.390 . S
C98 C96 1.391 . S
C98 C102 1.387 . S
C98 C103 1.491 . S
H99 C100 0.950 . S
C100 C97 1.390 . S
C100 H99 0.950 . S
C100 C101 1.378 . S
C101 C100 1.378 . S
C101 C102 1.409 . S
C102 C98 1.387 . S
C102 C101 1.409 . S
C102 H104 0.951 . S
C103 C98 1.491 . S
C103 C105 1.382 . S
C103 C107 1.404 . S
H104 C102 0.951 . S
C105 C103 1.382 . S
C105 C106 1.390 . S
C105 H110 0.949 . S
C106 C105 1.390 . S
C106 C111 1.399 . S
C107 C103 1.404 . S
C107 H108 0.950 . S
C107 C109 1.375 . S
H108 C107 0.950 . S
C109 C107 1.375 . S
C109 C111 1.382 . S
C109 H113 0.950 . S
H110 C105 0.949 . S
C111 C106 1.399 . S
C111 C109 1.382 . S
C111 H112 0.952 . S
H112 C111 0.952 . S
H113 C109 0.950 . S
H114 C115 0.949 . S
C115 H114 0.949 . S
C115 C116 1.395 1_556 S
C115 C117 1.391 1_556 S
C116 C115 1.395 1_554 S
C116 C119 1.390 . S
C117 C115 1.391 1_554 S
C117 C121 1.387 . S
C117 C122 1.491 . S
H118 C119 0.950 . S
C119 C116 1.390 . S
C119 H118 0.950 . S
C119 C120 1.378 . S
C120 C119 1.378 . S
C120 C121 1.409 . S
C121 C117 1.387 . S
C121 C120 1.409 . S
C121 H123 0.951 . S
C122 C117 1.491 . S
C122 C124 1.382 1_554 S
C122 C126 1.404 . S
H123 C121 0.951 . S
C124 C122 1.382 1_556 S
C124 C125 1.390 . S
C124 H129 0.949 . S
C125 C124 1.390 . S
C125 C130 1.399 . S
C126 C122 1.404 . S
C126 H127 0.950 . S
C126 C128 1.375 . S
H127 C126 0.950 . S
C128 C126 1.375 . S
C128 C130 1.382 1_554 S
C128 H132 0.950 . S
H129 C124 0.949 . S
C130 C125 1.399 . S
C130 C128 1.382 1_556 S
C130 H131 0.952 . S
H131 C130 0.952 . S
H132 C128 0.950 . S
H133 C134 0.949 . S
C134 H133 0.949 . S
C134 C135 1.395 . S
C134 C136 1.391 . S
C135 C134 1.395 . S
C135 C138 1.390 . S
C136 C134 1.391 . S
C136 C140 1.387 . S
C136 C141 1.491 . S
H137 C138 0.950 . S
C138 C135 1.390 . S
C138 H137 0.950 . S
C138 C139 1.378 . S
C139 C138 1.378 . S
C139 C140 1.409 . S
C140 C136 1.387 . S
C140 C139 1.409 . S
C140 H142 0.951 . S
C141 C136 1.491 . S
C141 C143 1.382 . S
C141 C145 1.404 . S
H142 C140 0.951 . S
C143 C141 1.382 . S
C143 C144 1.390 . S
C143 H148 0.949 . S
C144 C143 1.390 . S
C144 C149 1.399 . S
C145 C141 1.404 . S
C145 H146 0.950 . S
C145 C147 1.375 . S
H146 C145 0.950 . S
C147 C145 1.375 . S
C147 C149 1.382 . S
C147 H151 0.950 . S
H148 C143 0.949 . S
C149 C144 1.399 . S
C149 C147 1.382 . S
C149 H150 0.952 . S
H150 C149 0.952 . S
H151 C147 0.950 . S
Sc152 O155 2.025 . S
Sc152 O162 2.105 1_455 S
Sc152 O165 2.105 . S
Sc152 O168 2.105 . S
Sc152 O171 2.105 1_455 S
Sc153 O155 2.025 . S
Sc153 O163 2.105 1_455 S
Sc153 O167 2.105 . S
Sc153 O169 2.105 . S
Sc153 O173 2.105 1_455 S
Sc154 O155 2.025 . S
Sc154 O164 2.105 1_455 S
Sc154 O166 2.105 . S
Sc154 O170 2.105 . S
Sc154 O172 2.105 1_455 S
O155 Sc152 2.025 . S
O155 Sc153 2.025 . S
O155 Sc154 2.025 . S
C156 O162 1.268 . S
C156 O172 1.268 . S
C157 O163 1.268 . S
C157 O171 1.268 . S
C158 O164 1.268 . S
C158 O173 1.268 . S
C159 O165 1.268 . S
C159 O169 1.268 . S
C160 O166 1.268 . S
C160 O168 1.268 . S
C161 O167 1.268 . S
C161 O170 1.268 . S
O162 Sc152 2.105 1_655 S
O162 C156 1.268 . S
O163 Sc153 2.105 1_655 S
O163 C157 1.268 . S
O164 Sc154 2.105 1_655 S
O164 C158 1.268 . S
O165 Sc152 2.105 . S
O165 C159 1.268 . S
O166 Sc154 2.105 . S
O166 C160 1.268 . S
O167 Sc153 2.105 . S
O167 C161 1.268 . S
O168 Sc152 2.105 . S
O168 C160 1.268 . S
O169 Sc153 2.105 . S
O169 C159 1.268 . S
O170 Sc154 2.105 . S
O170 C161 1.268 . S
O171 Sc152 2.105 1_655 S
O171 C157 1.268 . S
O172 Sc154 2.105 1_655 S
O172 C156 1.268 . S
O173 Sc153 2.105 1_655 S
O173 C158 1.268 . S
Sc174 O177 2.025 . S
Sc174 O184 2.105 . S
Sc174 O187 2.105 1_455 S
Sc174 O190 2.105 1_455 S
Sc174 O193 2.105 . S
Sc175 O177 2.025 . S
Sc175 O185 2.105 . S
Sc175 O189 2.105 1_455 S
Sc175 O191 2.105 1_455 S
Sc175 O195 2.105 . S
Sc176 O177 2.025 . S
Sc176 O186 2.105 . S
Sc176 O188 2.105 1_455 S
Sc176 O192 2.105 1_455 S
Sc176 O194 2.105 . S
O177 Sc174 2.025 . S
O177 Sc175 2.025 . S
O177 Sc176 2.025 . S
C178 O184 1.268 . S
C178 O194 1.268 . S
C179 O185 1.268 . S
C179 O193 1.268 . S
C180 O186 1.268 . S
C180 O195 1.268 . S
C181 O187 1.268 . S
C181 O191 1.268 . S
C182 O188 1.268 . S
C182 O190 1.268 . S
C183 O189 1.268 . S
C183 O192 1.268 . S
O184 Sc174 2.105 . S
O184 C178 1.268 . S
O185 Sc175 2.105 . S
O185 C179 1.268 . S
O186 Sc176 2.105 . S
O186 C180 1.268 . S
O187 Sc174 2.105 1_655 S
O187 C181 1.268 . S
O188 Sc176 2.105 1_655 S
O188 C182 1.268 . S
O189 Sc175 2.105 1_655 S
O189 C183 1.268 . S
O190 Sc174 2.105 1_655 S
O190 C182 1.268 . S
O191 Sc175 2.105 1_655 S
O191 C181 1.268 . S
O192 Sc176 2.105 1_655 S
O192 C183 1.268 . S
O193 Sc174 2.105 . S
O193 C179 1.268 . S
O194 Sc176 2.105 . S
O194 C178 1.268 . S
O195 Sc175 2.105 . S
O195 C180 1.268 . S
Sc196 O199 2.025 . S
Sc196 O206 2.105 . S
Sc196 O209 2.105 . S
Sc196 O212 2.105 . S
Sc196 O215 2.105 . S
Sc197 O199 2.025 . S
Sc197 O207 2.105 . S
Sc197 O211 2.105 . S
Sc197 O213 2.105 . S
Sc197 O217 2.105 . S
Sc198 O199 2.025 . S
Sc198 O208 2.105 . S
Sc198 O210 2.105 . S
Sc198 O214 2.105 . S
Sc198 O216 2.105 . S
O199 Sc196 2.025 . S
O199 Sc197 2.025 . S
O199 Sc198 2.025 . S
C200 O206 1.268 . S
C200 O216 1.268 . S
C201 O207 1.268 . S
C201 O215 1.268 . S
C202 O208 1.268 . S
C202 O217 1.268 . S
C203 O209 1.268 . S
C203 O213 1.268 . S
C204 O210 1.268 . S
C204 O212 1.268 . S
C205 O211 1.268 . S
C205 O214 1.268 . S
O206 Sc196 2.105 . S
O206 C200 1.268 . S
O207 Sc197 2.105 . S
O207 C201 1.268 . S
O208 Sc198 2.105 . S
O208 C202 1.268 . S
O209 Sc196 2.105 . S
O209 C203 1.268 . S
O210 Sc198 2.105 . S
O210 C204 1.268 . S
O211 Sc197 2.105 . S
O211 C205 1.268 . S
O212 Sc196 2.105 . S
O212 C204 1.268 . S
O213 Sc197 2.105 . S
O213 C203 1.268 . S
O214 Sc198 2.105 . S
O214 C205 1.268 . S
O215 Sc196 2.105 . S
O215 C201 1.268 . S
O216 Sc198 2.105 . S
O216 C200 1.268 . S
O217 Sc197 2.105 . S
O217 C202 1.268 . S
Sc218 O221 2.025 . S
Sc218 O228 2.105 . S
Sc218 O231 2.105 . S
Sc218 O234 2.105 . S
Sc218 O237 2.105 . S
Sc219 O221 2.025 . S
Sc219 O229 2.105 . S
Sc219 O233 2.105 . S
Sc219 O235 2.105 . S
Sc219 O239 2.105 . S
Sc220 O221 2.025 . S
Sc220 O230 2.105 . S
Sc220 O232 2.105 . S
Sc220 O236 2.105 . S
Sc220 O238 2.105 . S
O221 Sc218 2.025 . S
O221 Sc219 2.025 . S
O221 Sc220 2.025 . S
C222 O228 1.268 . S
C222 O238 1.268 . S
C223 O229 1.268 . S
C223 O237 1.268 . S
C224 O230 1.268 . S
C224 O239 1.268 . S
C225 O231 1.268 . S
C225 O235 1.268 . S
C226 O232 1.268 . S
C226 O234 1.268 . S
C227 O233 1.268 . S
C227 O236 1.268 . S
O228 Sc218 2.105 . S
O228 C222 1.268 . S
O229 Sc219 2.105 . S
O229 C223 1.268 . S
O230 Sc220 2.105 . S
O230 C224 1.268 . S
O231 Sc218 2.105 . S
O231 C225 1.268 . S
O232 Sc220 2.105 . S
O232 C226 1.268 . S
O233 Sc219 2.105 . S
O233 C227 1.268 . S
O234 Sc218 2.105 . S
O234 C226 1.268 . S
O235 Sc219 2.105 . S
O235 C225 1.268 . S
O236 Sc220 2.105 . S
O236 C227 1.268 . S
O237 Sc218 2.105 . S
O237 C223 1.268 . S
O238 Sc220 2.105 . S
O238 C222 1.268 . S
O239 Sc219 2.105 . S
O239 C224 1.268 . S
H240 C248 0.929 . S
H241 C250 0.930 . S
H242 C252 0.930 . S
H243 C255 0.929 1_554 S
H244 C258 0.930 . S
H245 C260 0.960 . S
H246 C260 0.960 . S
H247 C260 0.960 . S
C248 H240 0.929 . S
C248 C249 1.377 . S
C248 C250 1.384 . S
C249 C248 1.377 . S
C249 C255 1.390 . S
C250 H241 0.930 . S
C250 C248 1.384 . S
C250 C251 1.372 . S
C251 C250 1.372 . S
C251 C252 1.400 . S
C251 C256 1.490 . S
C252 H242 0.930 . S
C252 C251 1.400 . S
C252 C255 1.386 . S
H253 C269 0.930 . S
H254 C270 0.931 . S
C255 H243 0.929 1_556 S
C255 C249 1.390 . S
C255 C252 1.386 . S
C256 C251 1.490 . S
C256 C258 1.395 . S
C256 C259 1.403 . S
H257 C263 0.930 . S
C258 H244 0.930 . S
C258 C256 1.395 . S
C258 C261 1.403 . S
C259 C256 1.403 . S
C259 C260 1.524 . S
C259 C263 1.400 . S
C260 H245 0.960 . S
C260 H246 0.960 . S
C260 H247 0.960 . S
C260 C259 1.524 . S
C261 C258 1.403 . S
C261 C262 1.392 . S
C261 C265 1.495 . S
C262 C261 1.392 . S
C262 C263 1.385 . S
C262 C264 1.478 . S
C263 H257 0.930 . S
C263 C259 1.400 . S
C263 C262 1.385 . S
C264 C262 1.478 . S
C264 C266 1.381 . S
C264 C270 1.383 . S
C265 C261 1.495 . S
C265 H271 0.959 . S
C265 H272 0.961 . S
C265 H273 0.960 . S
C266 C264 1.381 . S
C266 C267 1.394 . S
C266 H274 0.930 . S
C267 C266 1.394 . S
C267 C268 1.383 . S
C267 H275 0.929 . S
C268 C267 1.383 . S
C268 C269 1.377 . S
C269 H253 0.930 . S
C269 C268 1.377 . S
C269 C270 1.379 . S
C270 H254 0.931 . S
C270 C264 1.383 . S
C270 C269 1.379 . S
H271 C265 0.959 . S
H272 C265 0.961 . S
H273 C265 0.960 . S
H274 C266 0.930 . S
H275 C267 0.929 . S
H276 C284 0.929 . S
H277 C286 0.930 . S
H278 C288 0.930 . S
H279 C291 0.929 . S
H280 C294 0.930 . S
H281 C296 0.960 . S
H282 C296 0.960 . S
H283 C296 0.960 . S
C284 H276 0.929 . S
C284 C285 1.377 . S
C284 C286 1.384 . S
C285 C284 1.377 . S
C285 C291 1.390 . S
C286 H277 0.930 . S
C286 C284 1.384 . S
C286 C287 1.372 . S
C287 C286 1.372 . S
C287 C288 1.400 . S
C287 C292 1.490 . S
C288 H278 0.930 . S
C288 C287 1.400 . S
C288 C291 1.386 . S
H289 C305 0.930 . S
H290 C306 0.931 . S
C291 H279 0.929 . S
C291 C285 1.390 . S
C291 C288 1.386 . S
C292 C287 1.490 . S
C292 C294 1.395 . S
C292 C295 1.403 . S
H293 C299 0.930 . S
C294 H280 0.930 . S
C294 C292 1.395 . S
C294 C297 1.403 . S
C295 C292 1.403 . S
C295 C296 1.524 . S
C295 C299 1.400 . S
C296 H281 0.960 . S
C296 H282 0.960 . S
C296 H283 0.960 . S
C296 C295 1.524 . S
C297 C294 1.403 . S
C297 C298 1.392 . S
C297 C301 1.495 . S
C298 C297 1.392 . S
C298 C299 1.385 . S
C298 C300 1.478 . S
C299 H293 0.930 . S
C299 C295 1.400 . S
C299 C298 1.385 . S
C300 C298 1.478 . S
C300 C302 1.381 . S
C300 C306 1.383 . S
C301 C297 1.495 . S
C301 H307 0.959 . S
C301 H308 0.961 . S
C301 H309 0.960 . S
C302 C300 1.381 . S
C302 C303 1.394 . S
C302 H310 0.930 . S
C303 C302 1.394 . S
C303 C304 1.383 . S
C303 H311 0.929 . S
C304 C303 1.383 . S
C304 C305 1.377 . S
C305 H289 0.930 . S
C305 C304 1.377 . S
C305 C306 1.379 . S
C306 H290 0.931 . S
C306 C300 1.383 . S
C306 C305 1.379 . S
H307 C301 0.959 . S
H308 C301 0.961 . S
H309 C301 0.960 . S
H310 C302 0.930 . S
H311 C303 0.929 . S
H312 C320 0.929 . S
H313 C322 0.930 . S
H314 C324 0.930 . S
H315 C327 0.929 . S
H316 C330 0.930 . S
H317 C332 0.960 . S
H318 C332 0.960 . S
H319 C332 0.960 . S
C320 H312 0.929 . S
C320 C321 1.377 . S
C320 C322 1.384 . S
C321 C320 1.377 . S
C321 C327 1.390 . S
C322 H313 0.930 . S
C322 C320 1.384 . S
C322 C323 1.372 . S
C323 C322 1.372 . S
C323 C324 1.400 . S
C323 C328 1.490 . S
C324 H314 0.930 . S
C324 C323 1.400 . S
C324 C327 1.386 . S
H325 C341 0.930 . S
H326 C342 0.931 . S
C327 H315 0.929 . S
C327 C321 1.390 . S
C327 C324 1.386 . S
C328 C323 1.490 . S
C328 C330 1.395 . S
C328 C331 1.403 . S
H329 C335 0.930 . S
C330 H316 0.930 . S
C330 C328 1.395 . S
C330 C333 1.403 . S
C331 C328 1.403 . S
C331 C332 1.524 . S
C331 C335 1.400 . S
C332 H317 0.960 . S
C332 H318 0.960 . S
C332 H319 0.960 . S
C332 C331 1.524 . S
C333 C330 1.403 . S
C333 C334 1.392 . S
C333 C337 1.495 . S
C334 C333 1.392 . S
C334 C335 1.385 . S
C334 C336 1.478 . S
C335 H329 0.930 . S
C335 C331 1.400 . S
C335 C334 1.385 . S
C336 C334 1.478 . S
C336 C338 1.381 . S
C336 C342 1.383 . S
C337 C333 1.495 . S
C337 H343 0.959 . S
C337 H344 0.961 . S
C337 H345 0.960 . S
C338 C336 1.381 . S
C338 C339 1.394 . S
C338 H346 0.930 . S
C339 C338 1.394 . S
C339 C340 1.383 . S
C339 H347 0.929 . S
C340 C339 1.383 . S
C340 C341 1.377 . S
C341 H325 0.930 . S
C341 C340 1.377 . S
C341 C342 1.379 . S
C342 H326 0.931 . S
C342 C336 1.383 . S
C342 C341 1.379 . S
H343 C337 0.959 . S
H344 C337 0.961 . S
H345 C337 0.960 . S
H346 C338 0.930 . S
H347 C339 0.929 . S
H348 C356 0.929 . S
H349 C358 0.930 . S
H350 C360 0.930 . S
H351 C363 0.929 . S
H352 C366 0.930 . S
H353 C368 0.960 . S
H354 C368 0.960 . S
H355 C368 0.960 . S
C356 H348 0.929 . S
C356 C357 1.377 . S
C356 C358 1.384 . S
C357 C356 1.377 . S
C357 C363 1.390 . S
C358 H349 0.930 . S
C358 C356 1.384 . S
C358 C359 1.372 . S
C359 C358 1.372 . S
C359 C360 1.400 . S
C359 C364 1.490 . S
C360 H350 0.930 . S
C360 C359 1.400 . S
C360 C363 1.386 . S
H361 C377 0.930 . S
H362 C378 0.931 . S
C363 H351 0.929 . S
C363 C357 1.390 . S
C363 C360 1.386 . S
C364 C359 1.490 . S
C364 C366 1.395 . S
C364 C367 1.403 . S
H365 C371 0.930 . S
C366 H352 0.930 . S
C366 C364 1.395 . S
C366 C369 1.403 . S
C367 C364 1.403 . S
C367 C368 1.524 . S
C367 C371 1.400 . S
C368 H353 0.960 . S
C368 H354 0.960 . S
C368 H355 0.960 . S
C368 C367 1.524 . S
C369 C366 1.403 . S
C369 C370 1.392 . S
C369 C373 1.495 . S
C370 C369 1.392 . S
C370 C371 1.385 . S
C370 C372 1.478 . S
C371 H365 0.930 . S
C371 C367 1.400 . S
C371 C370 1.385 . S
C372 C370 1.478 . S
C372 C374 1.381 . S
C372 C378 1.383 . S
C373 C369 1.495 . S
C373 H379 0.959 . S
C373 H380 0.961 . S
C373 H381 0.960 . S
C374 C372 1.381 . S
C374 C375 1.394 . S
C374 H382 0.930 . S
C375 C374 1.394 . S
C375 C376 1.383 . S
C375 H383 0.929 . S
C376 C375 1.383 . S
C376 C377 1.377 . S
C377 H361 0.930 . S
C377 C376 1.377 . S
C377 C378 1.379 . S
C378 H362 0.931 . S
C378 C372 1.383 . S
C378 C377 1.379 . S
H379 C373 0.959 . S
H380 C373 0.961 . S
H381 C373 0.960 . S
H382 C374 0.930 . S
H383 C375 0.929 . S
H384 C392 0.929 1_554 S
H385 C394 0.930 . S
H386 C396 0.930 . S
H387 C399 0.929 . S
H388 C402 0.930 . S
H389 C404 0.960 . S
H390 C404 0.960 . S
H391 C404 0.960 . S
C392 H384 0.929 1_556 S
C392 C393 1.377 . S
C392 C394 1.384 . S
C393 C392 1.377 . S
C393 C399 1.390 . S
C394 H385 0.930 . S
C394 C392 1.384 . S
C394 C395 1.372 . S
C395 C394 1.372 . S
C395 C396 1.400 . S
C395 C400 1.490 . S
C396 H386 0.930 . S
C396 C395 1.400 . S
C396 C399 1.386 . S
H397 C413 0.930 . S
H398 C414 0.931 . S
C399 H387 0.929 . S
C399 C393 1.390 . S
C399 C396 1.386 . S
C400 C395 1.490 . S
C400 C402 1.395 . S
C400 C403 1.403 . S
H401 C407 0.930 . S
C402 H388 0.930 . S
C402 C400 1.395 . S
C402 C405 1.403 . S
C403 C400 1.403 . S
C403 C404 1.524 . S
C403 C407 1.400 . S
C404 H389 0.960 . S
C404 H390 0.960 . S
C404 H391 0.960 . S
C404 C403 1.524 . S
C405 C402 1.403 . S
C405 C406 1.392 . S
C405 C409 1.495 . S
C406 C405 1.392 . S
C406 C407 1.385 . S
C406 C408 1.478 . S
C407 H401 0.930 . S
C407 C403 1.400 . S
C407 C406 1.385 . S
C408 C406 1.478 . S
C408 C410 1.381 . S
C408 C414 1.383 . S
C409 C405 1.495 . S
C409 H415 0.959 . S
C409 H416 0.961 . S
C409 H417 0.960 . S
C410 C408 1.381 . S
C410 C411 1.394 . S
C410 H418 0.930 . S
C411 C410 1.394 . S
C411 C412 1.383 . S
C411 H419 0.929 . S
C412 C411 1.383 . S
C412 C413 1.377 . S
C413 H397 0.930 . S
C413 C412 1.377 . S
C413 C414 1.379 . S
C414 H398 0.931 . S
C414 C408 1.383 . S
C414 C413 1.379 . S
H415 C409 0.959 . S
H416 C409 0.961 . S
H417 C409 0.960 . S
H418 C410 0.930 . S
H419 C411 0.929 . S
H420 C428 0.929 . S
H421 C430 0.930 . S
H422 C432 0.930 . S
H423 C435 0.929 . S
H424 C438 0.930 . S
H425 C440 0.960 . S
H426 C440 0.960 . S
H427 C440 0.960 . S
C428 H420 0.929 . S
C428 C429 1.377 . S
C428 C430 1.384 . S
C429 C428 1.377 . S
C429 C435 1.390 . S
C430 H421 0.930 . S
C430 C428 1.384 . S
C430 C431 1.372 . S
C431 C430 1.372 . S
C431 C432 1.400 . S
C431 C436 1.490 . S
C432 H422 0.930 . S
C432 C431 1.400 . S
C432 C435 1.386 . S
H433 C449 0.930 . S
H434 C450 0.931 . S
C435 H423 0.929 . S
C435 C429 1.390 . S
C435 C432 1.386 . S
C436 C431 1.490 . S
C436 C438 1.395 . S
C436 C439 1.403 . S
H437 C443 0.930 . S
C438 H424 0.930 . S
C438 C436 1.395 . S
C438 C441 1.403 . S
C439 C436 1.403 . S
C439 C440 1.524 . S
C439 C443 1.400 . S
C440 H425 0.960 . S
C440 H426 0.960 . S
C440 H427 0.960 . S
C440 C439 1.524 . S
C441 C438 1.403 . S
C441 C442 1.392 . S
C441 C445 1.495 . S
C442 C441 1.392 . S
C442 C443 1.385 . S
C442 C444 1.478 . S
C443 H437 0.930 . S
C443 C439 1.400 . S
C443 C442 1.385 . S
C444 C442 1.478 . S
C444 C446 1.381 . S
C444 C450 1.383 . S
C445 C441 1.495 . S
C445 H451 0.959 . S
C445 H452 0.961 . S
C445 H453 0.960 . S
C446 C444 1.381 . S
C446 C447 1.394 . S
C446 H454 0.930 . S
C447 C446 1.394 . S
C447 C448 1.383 . S
C447 H455 0.929 . S
C448 C447 1.383 . S
C448 C449 1.377 . S
C449 H433 0.930 . S
C449 C448 1.377 . S
C449 C450 1.379 . S
C450 H434 0.931 . S
C450 C444 1.383 . S
C450 C449 1.379 . S
H451 C445 0.959 . S
H452 C445 0.961 . S
H453 C445 0.960 . S
H454 C446 0.930 . S
H455 C447 0.929 . S
H456 C464 0.929 . S
H457 C466 0.930 . S
H458 C468 0.930 . S
H459 C471 0.929 . S
H460 C474 0.930 . S
H461 C476 0.960 . S
H462 C476 0.960 . S
H463 C476 0.960 . S
C464 H456 0.929 . S
C464 C465 1.377 . S
C464 C466 1.384 . S
C465 C464 1.377 . S
C465 C471 1.390 . S
C466 H457 0.930 . S
C466 C464 1.384 . S
C466 C467 1.372 . S
C467 C466 1.372 . S
C467 C468 1.400 . S
C467 C472 1.490 . S
C468 H458 0.930 . S
C468 C467 1.400 . S
C468 C471 1.386 . S
H469 C485 0.930 . S
H470 C486 0.931 . S
C471 H459 0.929 . S
C471 C465 1.390 . S
C471 C468 1.386 . S
C472 C467 1.490 . S
C472 C474 1.395 . S
C472 C475 1.403 . S
H473 C479 0.930 . S
C474 H460 0.930 . S
C474 C472 1.395 . S
C474 C477 1.403 . S
C475 C472 1.403 . S
C475 C476 1.524 . S
C475 C479 1.400 . S
C476 H461 0.960 . S
C476 H462 0.960 . S
C476 H463 0.960 . S
C476 C475 1.524 . S
C477 C474 1.403 . S
C477 C478 1.392 . S
C477 C481 1.495 . S
C478 C477 1.392 . S
C478 C479 1.385 . S
C478 C480 1.478 . S
C479 H473 0.930 . S
C479 C475 1.400 . S
C479 C478 1.385 . S
C480 C478 1.478 . S
C480 C482 1.381 . S
C480 C486 1.383 . S
C481 C477 1.495 . S
C481 H487 0.959 . S
C481 H488 0.961 . S
C481 H489 0.960 . S
C482 C480 1.381 . S
C482 C483 1.394 . S
C482 H490 0.930 . S
C483 C482 1.394 . S
C483 C484 1.383 . S
C483 H491 0.929 . S
C484 C483 1.383 . S
C484 C485 1.377 . S
C485 H469 0.930 . S
C485 C484 1.377 . S
C485 C486 1.379 . S
C486 H470 0.931 . S
C486 C480 1.383 . S
C486 C485 1.379 . S
H487 C481 0.959 . S
H488 C481 0.961 . S
H489 C481 0.960 . S
H490 C482 0.930 . S
H491 C483 0.929 . S
H492 C500 0.929 . S
H493 C502 0.930 . S
H494 C504 0.930 . S
H495 C507 0.929 . S
H496 C510 0.930 . S
H497 C512 0.960 . S
H498 C512 0.960 . S
H499 C512 0.960 . S
C500 H492 0.929 . S
C500 C501 1.377 . S
C500 C502 1.384 . S
C501 C500 1.377 . S
C501 C507 1.390 . S
C502 H493 0.930 . S
C502 C500 1.384 . S
C502 C503 1.372 . S
C503 C502 1.372 . S
C503 C504 1.400 . S
C503 C508 1.490 . S
C504 H494 0.930 . S
C504 C503 1.400 . S
C504 C507 1.386 . S
H505 C521 0.930 . S
H506 C522 0.931 . S
C507 H495 0.929 . S
C507 C501 1.390 . S
C507 C504 1.386 . S
C508 C503 1.490 . S
C508 C510 1.395 . S
C508 C511 1.403 . S
H509 C515 0.930 . S
C510 H496 0.930 . S
C510 C508 1.395 . S
C510 C513 1.403 . S
C511 C508 1.403 . S
C511 C512 1.524 . S
C511 C515 1.400 . S
C512 H497 0.960 . S
C512 H498 0.960 . S
C512 H499 0.960 . S
C512 C511 1.524 . S
C513 C510 1.403 . S
C513 C514 1.392 . S
C513 C517 1.495 . S
C514 C513 1.392 . S
C514 C515 1.385 . S
C514 C516 1.478 . S
C515 H509 0.930 . S
C515 C511 1.400 . S
C515 C514 1.385 . S
C516 C514 1.478 . S
C516 C518 1.381 . S
C516 C522 1.383 . S
C517 C513 1.495 . S
C517 H523 0.959 . S
C517 H524 0.961 . S
C517 H525 0.960 . S
C518 C516 1.381 . S
C518 C519 1.394 . S
C518 H526 0.930 . S
C519 C518 1.394 . S
C519 C520 1.383 . S
C519 H527 0.929 . S
C520 C519 1.383 . S
C520 C521 1.377 . S
C521 H505 0.930 . S
C521 C520 1.377 . S
C521 C522 1.379 . S
C522 H506 0.931 . S
C522 C516 1.383 . S
C522 C521 1.379 . S
H523 C517 0.959 . S
H524 C517 0.961 . S
H525 C517 0.960 . S
H526 C518 0.930 . S
H527 C519 0.929 . S
H528 C536 0.929 1_554 S
H529 C538 0.930 . S
H530 C540 0.930 . S
H531 C543 0.929 . S
H532 C546 0.930 . S
H533 C548 0.960 . S
H534 C548 0.960 . S
H535 C548 0.960 . S
C536 H528 0.929 1_556 S
C536 C537 1.377 . S
C536 C538 1.384 . S
C537 C536 1.377 . S
C537 C543 1.390 . S
C538 H529 0.930 . S
C538 C536 1.384 . S
C538 C539 1.372 . S
C539 C538 1.372 . S
C539 C540 1.400 . S
C539 C544 1.490 . S
C540 H530 0.930 . S
C540 C539 1.400 . S
C540 C543 1.386 . S
H541 C557 0.930 . S
H542 C558 0.931 . S
C543 H531 0.929 . S
C543 C537 1.390 . S
C543 C540 1.386 . S
C544 C539 1.490 . S
C544 C546 1.395 . S
C544 C547 1.403 . S
H545 C551 0.930 . S
C546 H532 0.930 . S
C546 C544 1.395 . S
C546 C549 1.403 . S
C547 C544 1.403 . S
C547 C548 1.524 . S
C547 C551 1.400 . S
C548 H533 0.960 . S
C548 H534 0.960 . S
C548 H535 0.960 . S
C548 C547 1.524 . S
C549 C546 1.403 . S
C549 C550 1.392 . S
C549 C553 1.495 . S
C550 C549 1.392 . S
C550 C551 1.385 . S
C550 C552 1.478 . S
C551 H545 0.930 . S
C551 C547 1.400 . S
C551 C550 1.385 . S
C552 C550 1.478 . S
C552 C554 1.381 . S
C552 C558 1.383 . S
C553 C549 1.495 . S
C553 H559 0.959 . S
C553 H560 0.961 . S
C553 H561 0.960 . S
C554 C552 1.381 . S
C554 C555 1.394 . S
C554 H562 0.930 . S
C555 C554 1.394 . S
C555 C556 1.383 . S
C555 H563 0.929 . S
C556 C555 1.383 . S
C556 C557 1.377 . S
C557 H541 0.930 . S
C557 C556 1.377 . S
C557 C558 1.379 . S
C558 H542 0.931 . S
C558 C552 1.383 . S
C558 C557 1.379 . S
H559 C553 0.959 . S
H560 C553 0.961 . S
H561 C553 0.960 . S
H562 C554 0.930 . S
H563 C555 0.929 . S
H564 C572 0.929 . S
H565 C574 0.930 . S
H566 C576 0.930 . S
H567 C579 0.929 . S
H568 C582 0.930 . S
H569 C584 0.960 . S
H570 C584 0.960 . S
H571 C584 0.960 . S
C572 H564 0.929 . S
C572 C573 1.377 . S
C572 C574 1.384 . S
C573 C572 1.377 . S
C573 C579 1.390 . S
C574 H565 0.930 . S
C574 C572 1.384 . S
C574 C575 1.372 . S
C575 C574 1.372 . S
C575 C576 1.400 . S
C575 C580 1.490 . S
C576 H566 0.930 . S
C576 C575 1.400 . S
C576 C579 1.386 . S
H577 C593 0.930 . S
H578 C594 0.931 . S
C579 H567 0.929 . S
C579 C573 1.390 . S
C579 C576 1.386 . S
C580 C575 1.490 . S
C580 C582 1.395 . S
C580 C583 1.403 . S
H581 C587 0.930 . S
C582 H568 0.930 . S
C582 C580 1.395 . S
C582 C585 1.403 . S
C583 C580 1.403 . S
C583 C584 1.524 . S
C583 C587 1.400 . S
C584 H569 0.960 . S
C584 H570 0.960 . S
C584 H571 0.960 . S
C584 C583 1.524 . S
C585 C582 1.403 . S
C585 C586 1.392 . S
C585 C589 1.495 . S
C586 C585 1.392 . S
C586 C587 1.385 . S
C586 C588 1.478 . S
C587 H581 0.930 . S
C587 C583 1.400 . S
C587 C586 1.385 . S
C588 C586 1.478 . S
C588 C590 1.381 . S
C588 C594 1.383 . S
C589 C585 1.495 . S
C589 H595 0.959 . S
C589 H596 0.961 . S
C589 H597 0.960 . S
C590 C588 1.381 . S
C590 C591 1.394 . S
C590 H598 0.930 . S
C591 C590 1.394 . S
C591 C592 1.383 . S
C591 H599 0.929 . S
C592 C591 1.383 . S
C592 C593 1.377 . S
C593 H577 0.930 . S
C593 C592 1.377 . S
C593 C594 1.379 . S
C594 H578 0.931 . S
C594 C588 1.383 . S
C594 C593 1.379 . S
H595 C589 0.959 . S
H596 C589 0.961 . S
H597 C589 0.960 . S
H598 C590 0.930 . S
H599 C591 0.929 . S
H600 C608 0.929 . S
H601 C610 0.930 . S
H602 C612 0.930 . S
H603 C615 0.929 1_554 S
H604 C618 0.930 . S
H605 C620 0.960 . S
H606 C620 0.960 . S
H607 C620 0.960 . S
C608 H600 0.929 . S
C608 C609 1.377 . S
C608 C610 1.384 . S
C609 C608 1.377 . S
C609 C615 1.390 . S
C610 H601 0.930 . S
C610 C608 1.384 . S
C610 C611 1.372 . S
C611 C610 1.372 . S
C611 C612 1.400 . S
C611 C616 1.490 . S
C612 H602 0.930 . S
C612 C611 1.400 . S
C612 C615 1.386 . S
H613 C629 0.930 . S
H614 C630 0.931 . S
C615 H603 0.929 1_556 S
C615 C609 1.390 . S
C615 C612 1.386 . S
C616 C611 1.490 . S
C616 C618 1.395 . S
C616 C619 1.403 . S
H617 C623 0.930 . S
C618 H604 0.930 . S
C618 C616 1.395 . S
C618 C621 1.403 . S
C619 C616 1.403 . S
C619 C620 1.524 . S
C619 C623 1.400 . S
C620 H605 0.960 . S
C620 H606 0.960 . S
C620 H607 0.960 . S
C620 C619 1.524 . S
C621 C618 1.403 . S
C621 C622 1.392 . S
C621 C625 1.495 . S
C622 C621 1.392 . S
C622 C623 1.385 . S
C622 C624 1.478 . S
C623 H617 0.930 . S
C623 C619 1.400 . S
C623 C622 1.385 . S
C624 C622 1.478 . S
C624 C626 1.381 . S
C624 C630 1.383 . S
C625 C621 1.495 . S
C625 H631 0.959 . S
C625 H632 0.961 . S
C625 H633 0.960 . S
C626 C624 1.381 . S
C626 C627 1.394 . S
C626 H634 0.930 . S
C627 C626 1.394 . S
C627 C628 1.383 . S
C627 H635 0.929 . S
C628 C627 1.383 . S
C628 C629 1.377 . S
C629 H613 0.930 . S
C629 C628 1.377 . S
C629 C630 1.379 . S
C630 H614 0.931 . S
C630 C624 1.383 . S
C630 C629 1.379 . S
H631 C625 0.959 . S
H632 C625 0.961 . S
H633 C625 0.960 . S
H634 C626 0.930 . S
H635 C627 0.929 . S
H636 C644 0.929 . S
H637 C646 0.930 . S
H638 C648 0.930 . S
H639 C651 0.929 . S
H640 C654 0.930 . S
H641 C656 0.960 . S
H642 C656 0.960 . S
H643 C656 0.960 . S
C644 H636 0.929 . S
C644 C645 1.377 . S
C644 C646 1.384 . S
C645 C644 1.377 . S
C645 C651 1.390 . S
C646 H637 0.930 . S
C646 C644 1.384 . S
C646 C647 1.372 . S
C647 C646 1.372 . S
C647 C648 1.400 . S
C647 C652 1.490 . S
C648 H638 0.930 . S
C648 C647 1.400 . S
C648 C651 1.386 . S
H649 C665 0.930 . S
H650 C666 0.931 . S
C651 H639 0.929 . S
C651 C645 1.390 . S
C651 C648 1.386 . S
C652 C647 1.490 . S
C652 C654 1.395 . S
C652 C655 1.403 . S
H653 C659 0.930 . S
C654 H640 0.930 . S
C654 C652 1.395 . S
C654 C657 1.403 . S
C655 C652 1.403 . S
C655 C656 1.524 . S
C655 C659 1.400 . S
C656 H641 0.960 . S
C656 H642 0.960 . S
C656 H643 0.960 . S
C656 C655 1.524 . S
C657 C654 1.403 . S
C657 C658 1.392 . S
C657 C661 1.495 . S
C658 C657 1.392 . S
C658 C659 1.385 . S
C658 C660 1.478 . S
C659 H653 0.930 . S
C659 C655 1.400 . S
C659 C658 1.385 . S
C660 C658 1.478 . S
C660 C662 1.381 . S
C660 C666 1.383 . S
C661 C657 1.495 . S
C661 H667 0.959 . S
C661 H668 0.961 . S
C661 H669 0.960 . S
C662 C660 1.381 . S
C662 C663 1.394 . S
C662 H670 0.930 . S
C663 C662 1.394 . S
C663 C664 1.383 . S
C663 H671 0.929 . S
C664 C663 1.383 . S
C664 C665 1.377 . S
C665 H649 0.930 . S
C665 C664 1.377 . S
C665 C666 1.379 . S
C666 H650 0.931 . S
C666 C660 1.383 . S
C666 C665 1.379 . S
H667 C661 0.959 . S
H668 C661 0.961 . S
H669 C661 0.960 . S
H670 C662 0.930 . S
H671 C663 0.929 . S
H672 C680 0.929 . S
H673 C682 0.930 . S
H674 C684 0.930 . S
H675 C687 0.929 1_554 S
H676 C690 0.930 1_545 S
H677 C692 0.960 . S
H678 C692 0.960 . S
H679 C692 0.960 . S
C680 H672 0.929 . S
C680 C681 1.377 . S
C680 C682 1.384 . S
C681 C680 1.377 . S
C681 C687 1.390 . S
C682 H673 0.930 . S
C682 C680 1.384 . S
C682 C683 1.372 . S
C683 C682 1.372 . S
C683 C684 1.400 . S
C683 C688 1.490 . S
C684 H674 0.930 . S
C684 C683 1.400 . S
C684 C687 1.386 . S
H685 C701 0.930 . S
H686 C702 0.931 . S
C687 H675 0.929 1_556 S
C687 C681 1.390 . S
C687 C684 1.386 . S
C688 C683 1.490 . S
C688 C690 1.395 . S
C688 C691 1.403 . S
H689 C695 0.930 . S
C690 H676 0.930 1_565 S
C690 C688 1.395 . S
C690 C693 1.403 1_565 S
C691 C688 1.403 . S
C691 C692 1.524 . S
C691 C695 1.400 . S
C692 H677 0.960 . S
C692 H678 0.960 . S
C692 H679 0.960 . S
C692 C691 1.524 . S
C693 C690 1.403 1_545 S
C693 C694 1.392 . S
C693 C697 1.495 . S
C694 C693 1.392 . S
C694 C695 1.385 1_545 S
C694 C696 1.478 . S
C695 H689 0.930 . S
C695 C691 1.400 . S
C695 C694 1.385 1_565 S
C696 C694 1.478 . S
C696 C698 1.381 . S
C696 C702 1.383 . S
C697 C693 1.495 . S
C697 H703 0.959 . S
C697 H704 0.961 . S
C697 H705 0.960 . S
C698 C696 1.381 . S
C698 C699 1.394 . S
C698 H706 0.930 . S
C699 C698 1.394 . S
C699 C700 1.383 . S
C699 H707 0.929 . S
C700 C699 1.383 . S
C700 C701 1.377 . S
C701 H685 0.930 . S
C701 C700 1.377 . S
C701 C702 1.379 . S
C702 H686 0.931 . S
C702 C696 1.383 . S
C702 C701 1.379 . S
H703 C697 0.959 . S
H704 C697 0.961 . S
H705 C697 0.960 . S
H706 C698 0.930 . S
H707 C699 0.929 . S
H708 C716 0.929 . S
H709 C718 0.930 . S
H710 C720 0.930 . S
H711 C723 0.929 . S
H712 C726 0.930 . S
H713 C728 0.960 . S
H714 C728 0.960 . S
H715 C728 0.960 . S
C716 H708 0.929 . S
C716 C717 1.377 . S
C716 C718 1.384 . S
C717 C716 1.377 . S
C717 C723 1.390 . S
C718 H709 0.930 . S
C718 C716 1.384 . S
C718 C719 1.372 . S
C719 C718 1.372 . S
C719 C720 1.400 . S
C719 C724 1.490 . S
C720 H710 0.930 . S
C720 C719 1.400 . S
C720 C723 1.386 . S
H721 C737 0.930 . S
H722 C738 0.931 . S
C723 H711 0.929 . S
C723 C717 1.390 . S
C723 C720 1.386 . S
C724 C719 1.490 . S
C724 C726 1.395 . S
C724 C727 1.403 . S
H725 C731 0.930 . S
C726 H712 0.930 . S
C726 C724 1.395 . S
C726 C729 1.403 . S
C727 C724 1.403 . S
C727 C728 1.524 1_545 S
C727 C731 1.400 1_545 S
C728 H713 0.960 . S
C728 H714 0.960 . S
C728 H715 0.960 . S
C728 C727 1.524 1_565 S
C729 C726 1.403 . S
C729 C730 1.423 . S
C729 C733 1.495 . S
C730 C729 1.423 . S
C730 C731 1.372 1_545 S
C730 C732 1.460 1_545 S
C731 H725 0.930 . S
C731 C727 1.400 1_565 S
C731 C730 1.372 1_565 S
C732 C730 1.460 1_565 S
C732 C734 1.381 . S
C732 C738 1.383 . S
C733 C729 1.495 . S
C733 H739 0.959 . S
C733 H740 0.961 . S
C733 H741 0.960 . S
C734 C732 1.381 . S
C734 C735 1.394 . S
C734 H742 0.930 . S
C735 C734 1.394 . S
C735 C736 1.383 . S
C735 H743 0.929 . S
C736 C735 1.383 . S
C736 C737 1.377 . S
C737 H721 0.930 . S
C737 C736 1.377 . S
C737 C738 1.379 . S
C738 H722 0.931 . S
C738 C732 1.383 . S
C738 C737 1.379 . S
H739 C733 0.959 . S
H740 C733 0.961 . S
H741 C733 0.960 . S
H742 C734 0.930 . S
H743 C735 0.929 . S
H744 C752 0.929 . S
H745 C754 0.930 . S
H746 C756 0.930 . S
H747 C759 0.929 1_554 S
H748 C762 0.930 . S
H749 C764 0.960 . S
H750 C764 0.960 1_565 S
H751 C764 0.960 . S
C752 H744 0.929 . S
C752 C753 1.377 . S
C752 C754 1.384 . S
C753 C752 1.377 . S
C753 C759 1.390 . S
C754 H745 0.930 . S
C754 C752 1.384 . S
C754 C755 1.372 . S
C755 C754 1.372 . S
C755 C756 1.400 . S
C755 C760 1.490 . S
C756 H746 0.930 . S
C756 C755 1.400 . S
C756 C759 1.386 . S
H757 C773 0.930 . S
H758 C774 0.931 . S
C759 H747 0.929 1_556 S
C759 C753 1.390 . S
C759 C756 1.386 . S
C760 C755 1.490 . S
C760 C762 1.395 . S
C760 C763 1.403 . S
H761 C767 0.930 . S
C762 H748 0.930 . S
C762 C760 1.395 . S
C762 C765 1.403 . S
C763 C760 1.403 . S
C763 C764 1.524 1_565 S
C763 C767 1.400 1_565 S
C764 H749 0.960 . S
C764 H750 0.960 1_545 S
C764 H751 0.960 . S
C764 C763 1.524 1_545 S
C765 C762 1.403 . S
C765 C766 1.407 . S
C765 C769 1.495 . S
C766 C765 1.407 . S
C766 C767 1.380 1_565 S
C766 C768 1.467 1_565 S
C767 H761 0.930 . S
C767 C763 1.400 1_545 S
C767 C766 1.380 1_545 S
C768 C766 1.467 1_545 S
C768 C770 1.381 . S
C768 C774 1.383 . S
C769 C765 1.495 . S
C769 H775 0.959 . S
C769 H776 0.961 . S
C769 H777 0.960 . S
C770 C768 1.381 . S
C770 C771 1.394 . S
C770 H778 0.930 1_545 S
C771 C770 1.394 . S
C771 C772 1.383 . S
C771 H779 0.929 . S
C772 C771 1.383 . S
C772 C773 1.377 . S
C773 H757 0.930 . S
C773 C772 1.377 . S
C773 C774 1.379 . S
C774 H758 0.931 . S
C774 C768 1.383 . S
C774 C773 1.379 . S
H775 C769 0.959 . S
H776 C769 0.961 . S
H777 C769 0.960 . S
H778 C770 0.930 1_565 S
H779 C771 0.929 . S
H780 C788 0.929 . S
H781 C790 0.930 . S
H782 C792 0.930 . S
H783 C795 0.929 . S
H784 C798 0.930 . S
H785 C800 0.960 . S
H786 C800 0.960 . S
H787 C800 0.960 . S
C788 H780 0.929 . S
C788 C789 1.377 . S
C788 C790 1.384 . S
C789 C788 1.377 . S
C789 C795 1.390 . S
C790 H781 0.930 . S
C790 C788 1.384 . S
C790 C791 1.372 . S
C791 C790 1.372 . S
C791 C792 1.400 . S
C791 C796 1.490 . S
C792 H782 0.930 . S
C792 C791 1.400 . S
C792 C795 1.386 . S
H793 C809 0.930 . S
H794 C810 0.931 . S
C795 H783 0.929 . S
C795 C789 1.390 . S
C795 C792 1.386 . S
C796 C791 1.490 . S
C796 C798 1.395 . S
C796 C799 1.403 . S
H797 C803 0.930 1_565 S
C798 H784 0.930 . S
C798 C796 1.395 . S
C798 C801 1.403 . S
C799 C796 1.403 . S
C799 C800 1.524 . S
C799 C803 1.400 . S
C800 H785 0.960 . S
C800 H786 0.960 . S
C800 H787 0.960 . S
C800 C799 1.524 . S
C801 C798 1.403 . S
C801 C802 1.392 1_545 S
C801 C805 1.495 . S
C802 C801 1.392 1_565 S
C802 C803 1.385 1_565 S
C802 C804 1.478 . S
C803 H797 0.930 1_545 S
C803 C799 1.400 . S
C803 C802 1.385 1_545 S
C804 C802 1.478 . S
C804 C806 1.381 . S
C804 C810 1.383 . S
C805 C801 1.495 . S
C805 H811 0.959 . S
C805 H812 0.961 1_545 S
C805 H813 0.960 . S
C806 C804 1.381 . S
C806 C807 1.394 . S
C806 H814 0.930 1_565 S
C807 C806 1.394 . S
C807 C808 1.383 . S
C807 H815 0.929 . S
C808 C807 1.383 . S
C808 C809 1.377 . S
C809 H793 0.930 . S
C809 C808 1.377 . S
C809 C810 1.379 . S
C810 H794 0.931 . S
C810 C804 1.383 . S
C810 C809 1.379 . S
H811 C805 0.959 . S
H812 C805 0.961 1_565 S
H813 C805 0.960 . S
H814 C806 0.930 1_545 S
H815 C807 0.929 . S
H816 C824 0.929 . S
H817 C826 0.930 . S
H818 C828 0.930 . S
H819 C831 0.929 . S
H820 C834 0.930 . S
H821 C836 0.960 . S
H822 C836 0.960 . S
H823 C836 0.960 . S
C824 H816 0.929 . S
C824 C825 1.377 . S
C824 C826 1.384 . S
C825 C824 1.377 . S
C825 C831 1.390 . S
C826 H817 0.930 . S
C826 C824 1.384 . S
C826 C827 1.372 . S
C827 C826 1.372 . S
C827 C828 1.400 . S
C827 C832 1.490 . S
C828 H818 0.930 . S
C828 C827 1.400 . S
C828 C831 1.386 . S
H829 C845 0.930 . S
H830 C846 0.931 . S
C831 H819 0.929 . S
C831 C825 1.390 . S
C831 C828 1.386 . S
C832 C827 1.490 . S
C832 C834 1.395 . S
C832 C835 1.403 . S
H833 C839 0.930 . S
C834 H820 0.930 . S
C834 C832 1.395 . S
C834 C837 1.403 . S
C835 C832 1.403 . S
C835 C836 1.524 . S
C835 C839 1.400 . S
C836 H821 0.960 . S
C836 H822 0.960 . S
C836 H823 0.960 . S
C836 C835 1.524 . S
C837 C834 1.403 . S
C837 C838 1.392 . S
C837 C841 1.495 . S
C838 C837 1.392 . S
C838 C839 1.385 . S
C838 C840 1.478 . S
C839 H833 0.930 . S
C839 C835 1.400 . S
C839 C838 1.385 . S
C840 C838 1.478 . S
C840 C842 1.381 . S
C840 C846 1.383 . S
C841 C837 1.495 . S
C841 H847 0.959 . S
C841 H848 0.961 . S
C841 H849 0.960 . S
C842 C840 1.381 . S
C842 C843 1.394 . S
C842 H850 0.930 . S
C843 C842 1.394 . S
C843 C844 1.383 . S
C843 H851 0.929 . S
C844 C843 1.383 . S
C844 C845 1.377 . S
C845 H829 0.930 . S
C845 C844 1.377 . S
C845 C846 1.379 . S
C846 H830 0.931 . S
C846 C840 1.383 . S
C846 C845 1.379 . S
H847 C841 0.959 . S
H848 C841 0.961 . S
H849 C841 0.960 . S
H850 C842 0.930 . S
H851 C843 0.929 . S
H852 C860 0.929 . S
H853 C862 0.930 . S
H854 C864 0.930 . S
H855 C867 0.929 . S
H856 C870 0.930 . S
H857 C872 0.960 . S
H858 C872 0.960 . S
H859 C872 0.960 . S
C860 H852 0.929 . S
C860 C861 1.377 . S
C860 C862 1.384 . S
C861 C860 1.377 . S
C861 C867 1.390 . S
C862 H853 0.930 . S
C862 C860 1.384 . S
C862 C863 1.372 . S
C863 C862 1.372 . S
C863 C864 1.400 . S
C863 C868 1.490 . S
C864 H854 0.930 . S
C864 C863 1.400 . S
C864 C867 1.386 . S
H865 C881 0.930 . S
H866 C882 0.931 . S
C867 H855 0.929 . S
C867 C861 1.390 . S
C867 C864 1.386 . S
C868 C863 1.490 . S
C868 C870 1.395 . S
C868 C871 1.403 . S
H869 C875 0.930 . S
C870 H856 0.930 . S
C870 C868 1.395 . S
C870 C873 1.403 . S
C871 C868 1.403 . S
C871 C872 1.524 . S
C871 C875 1.400 . S
C872 H857 0.960 . S
C872 H858 0.960 . S
C872 H859 0.960 . S
C872 C871 1.524 . S
C873 C870 1.403 . S
C873 C874 1.392 . S
C873 C877 1.495 . S
C874 C873 1.392 . S
C874 C875 1.385 . S
C874 C876 1.478 . S
C875 H869 0.930 . S
C875 C871 1.400 . S
C875 C874 1.385 . S
C876 C874 1.478 . S
C876 C878 1.381 . S
C876 C882 1.383 . S
C877 C873 1.495 . S
C877 H883 0.959 . S
C877 H884 0.961 . S
C877 H885 0.960 . S
C878 C876 1.381 . S
C878 C879 1.394 . S
C878 H886 0.930 . S
C879 C878 1.394 . S
C879 C880 1.383 . S
C879 H887 0.929 . S
C880 C879 1.383 . S
C880 C881 1.377 . S
C881 H865 0.930 . S
C881 C880 1.377 . S
C881 C882 1.379 . S
C882 H866 0.931 . S
C882 C876 1.383 . S
C882 C881 1.379 . S
H883 C877 0.959 . S
H884 C877 0.961 . S
H885 C877 0.960 . S
H886 C878 0.930 . S
H887 C879 0.929 . S
H888 C896 0.929 . S
H889 C898 0.930 . S
H890 C900 0.930 . S
H891 C903 0.929 . S
H892 C906 0.930 . S
H893 C908 0.960 . S
H894 C908 0.960 . S
H895 C908 0.960 . S
C896 H888 0.929 . S
C896 C897 1.377 . S
C896 C898 1.384 . S
C897 C896 1.377 . S
C897 C903 1.390 . S
C898 H889 0.930 . S
C898 C896 1.384 . S
C898 C899 1.372 . S
C899 C898 1.372 . S
C899 C900 1.400 . S
C899 C904 1.490 . S
C900 H890 0.930 . S
C900 C899 1.400 . S
C900 C903 1.386 . S
H901 C917 0.930 . S
H902 C918 0.931 . S
C903 H891 0.929 . S
C903 C897 1.390 . S
C903 C900 1.386 . S
C904 C899 1.490 . S
C904 C906 1.395 . S
C904 C907 1.403 . S
H905 C911 0.930 . S
C906 H892 0.930 . S
C906 C904 1.395 . S
C906 C909 1.403 . S
C907 C904 1.403 . S
C907 C908 1.524 . S
C907 C911 1.400 . S
C908 H893 0.960 . S
C908 H894 0.960 . S
C908 H895 0.960 . S
C908 C907 1.524 . S
C909 C906 1.403 . S
C909 C910 1.392 . S
C909 C913 1.495 . S
C910 C909 1.392 . S
C910 C911 1.385 . S
C910 C912 1.478 . S
C911 H905 0.930 . S
C911 C907 1.400 . S
C911 C910 1.385 . S
C912 C910 1.478 . S
C912 C914 1.381 . S
C912 C918 1.383 . S
C913 C909 1.495 . S
C913 H919 0.959 . S
C913 H920 0.961 . S
C913 H921 0.960 . S
C914 C912 1.381 . S
C914 C915 1.394 . S
C914 H922 0.930 . S
C915 C914 1.394 . S
C915 C916 1.383 . S
C915 H923 0.929 . S
C916 C915 1.383 . S
C916 C917 1.377 . S
C917 H901 0.930 . S
C917 C916 1.377 . S
C917 C918 1.379 . S
C918 H902 0.931 . S
C918 C912 1.383 . S
C918 C917 1.379 . S
H919 C913 0.959 . S
H920 C913 0.961 . S
H921 C913 0.960 . S
H922 C914 0.930 . S
H923 C915 0.929 . S
H924 C932 0.929 . S
H925 C934 0.930 . S
H926 C936 0.930 . S
H927 C939 0.929 . S
H928 C942 0.930 . S
H929 C944 0.960 . S
H930 C944 0.960 . S
H931 C944 0.960 . S
C932 H924 0.929 . S
C932 C933 1.377 . S
C932 C934 1.384 . S
C933 C932 1.377 . S
C933 C939 1.390 . S
C934 H925 0.930 . S
C934 C932 1.384 . S
C934 C935 1.372 . S
C935 C934 1.372 . S
C935 C936 1.400 . S
C935 C940 1.490 . S
C936 H926 0.930 . S
C936 C935 1.400 . S
C936 C939 1.386 . S
H937 C953 0.930 . S
H938 C954 0.931 . S
C939 H927 0.929 . S
C939 C933 1.390 . S
C939 C936 1.386 . S
C940 C935 1.490 . S
C940 C942 1.395 . S
C940 C943 1.403 . S
H941 C947 0.930 . S
C942 H928 0.930 . S
C942 C940 1.395 . S
C942 C945 1.403 . S
C943 C940 1.403 . S
C943 C944 1.524 . S
C943 C947 1.400 . S
C944 H929 0.960 . S
C944 H930 0.960 . S
C944 H931 0.960 . S
C944 C943 1.524 . S
C945 C942 1.403 . S
C945 C946 1.392 . S
C945 C949 1.495 . S
C946 C945 1.392 . S
C946 C947 1.385 . S
C946 C948 1.478 . S
C947 H941 0.930 . S
C947 C943 1.400 . S
C947 C946 1.385 . S
C948 C946 1.478 . S
C948 C950 1.381 . S
C948 C954 1.383 . S
C949 C945 1.495 . S
C949 H955 0.959 . S
C949 H956 0.961 . S
C949 H957 0.960 . S
C950 C948 1.381 . S
C950 C951 1.394 . S
C950 H958 0.930 . S
C951 C950 1.394 . S
C951 C952 1.383 . S
C951 H959 0.929 . S
C952 C951 1.383 . S
C952 C953 1.377 . S
C953 H937 0.930 . S
C953 C952 1.377 . S
C953 C954 1.379 . S
C954 H938 0.931 . S
C954 C948 1.383 . S
C954 C953 1.379 . S
H955 C949 0.959 . S
H956 C949 0.961 . S
H957 C949 0.960 . S
H958 C950 0.930 . S
H959 C951 0.929 . S
H960 C968 0.929 . S
H961 C970 0.930 . S
H962 C972 0.930 . S
H963 C975 0.929 . S
H964 C978 0.930 . S
H965 C980 0.960 . S
H966 C980 0.960 . S
H967 C980 0.960 . S
C968 H960 0.929 . S
C968 C969 1.377 . S
C968 C970 1.384 . S
C969 C968 1.377 . S
C969 C975 1.390 . S
C970 H961 0.930 . S
C970 C968 1.384 . S
C970 C971 1.372 . S
C971 C970 1.372 . S
C971 C972 1.400 . S
C971 C976 1.490 . S
C972 H962 0.930 . S
C972 C971 1.400 . S
C972 C975 1.386 . S
H973 C989 0.930 . S
H974 C990 0.931 . S
C975 H963 0.929 . S
C975 C969 1.390 . S
C975 C972 1.386 . S
C976 C971 1.490 . S
C976 C978 1.395 . S
C976 C979 1.403 . S
H977 C983 0.930 . S
C978 H964 0.930 . S
C978 C976 1.395 . S
C978 C981 1.403 . S
C979 C976 1.403 . S
C979 C980 1.524 . S
C979 C983 1.400 . S
C980 H965 0.960 . S
C980 H966 0.960 . S
C980 H967 0.960 . S
C980 C979 1.524 . S
C981 C978 1.403 . S
C981 C982 1.392 . S
C981 C985 1.495 . S
C982 C981 1.392 . S
C982 C983 1.385 . S
C982 C984 1.478 . S
C983 H977 0.930 . S
C983 C979 1.400 . S
C983 C982 1.385 . S
C984 C982 1.478 . S
C984 C986 1.381 . S
C984 C990 1.383 . S
C985 C981 1.495 . S
C985 H991 0.959 . S
C985 H992 0.961 . S
C985 H993 0.960 . S
C986 C984 1.381 . S
C986 C987 1.394 . S
C986 H994 0.930 . S
C987 C986 1.394 . S
C987 C988 1.383 . S
C987 H995 0.929 . S
C988 C987 1.383 . S
C988 C989 1.377 . S
C989 H973 0.930 . S
C989 C988 1.377 . S
C989 C990 1.379 . S
C990 H974 0.931 . S
C990 C984 1.383 . S
C990 C989 1.379 . S
H991 C985 0.959 . S
H992 C985 0.961 . S
H993 C985 0.960 . S
H994 C986 0.930 . S
H995 C987 0.929 . S
H996 C1004 0.929 . S
H997 C1006 0.930 . S
H998 C1008 0.930 . S
H999 C1011 0.929 . S
H1000 C1014 0.930 . S
H1001 C1016 0.960 . S
H1002 C1016 0.960 . S
H1003 C1016 0.960 . S
C1004 H996 0.929 . S
C1004 C1005 1.377 . S
C1004 C1006 1.384 . S
C1005 C1004 1.377 . S
C1005 C1011 1.390 . S
C1006 H997 0.930 . S
C1006 C1004 1.384 . S
C1006 C1007 1.372 . S
C1007 C1006 1.372 . S
C1007 C1008 1.400 . S
C1007 C1012 1.490 . S
C1008 H998 0.930 . S
C1008 C1007 1.400 . S
C1008 C1011 1.386 . S
H1009 C1025 0.930 . S
H1010 C1026 0.931 . S
C1011 H999 0.929 . S
C1011 C1005 1.390 . S
C1011 C1008 1.386 . S
C1012 C1007 1.490 . S
C1012 C1014 1.395 . S
C1012 C1015 1.403 . S
H1013 C1019 0.930 . S
C1014 H1000 0.930 . S
C1014 C1012 1.395 . S
C1014 C1017 1.403 . S
C1015 C1012 1.403 . S
C1015 C1016 1.524 . S
C1015 C1019 1.400 . S
C1016 H1001 0.960 . S
C1016 H1002 0.960 . S
C1016 H1003 0.960 . S
C1016 C1015 1.524 . S
C1017 C1014 1.403 . S
C1017 C1018 1.392 . S
C1017 C1021 1.495 . S
C1018 C1017 1.392 . S
C1018 C1019 1.385 . S
C1018 C1020 1.478 . S
C1019 H1013 0.930 . S
C1019 C1015 1.400 . S
C1019 C1018 1.385 . S
C1020 C1018 1.478 . S
C1020 C1022 1.381 . S
C1020 C1026 1.383 . S
C1021 C1017 1.495 . S
C1021 H1027 0.959 . S
C1021 H1028 0.961 . S
C1021 H1029 0.960 . S
C1022 C1020 1.381 . S
C1022 C1023 1.394 . S
C1022 H1030 0.930 . S
C1023 C1022 1.394 . S
C1023 C1024 1.383 . S
C1023 H1031 0.929 . S
C1024 C1023 1.383 . S
C1024 C1025 1.377 . S
C1025 H1009 0.930 . S
C1025 C1024 1.377 . S
C1025 C1026 1.379 . S
C1026 H1010 0.931 . S
C1026 C1020 1.383 . S
C1026 C1025 1.379 . S
H1027 C1021 0.959 . S
H1028 C1021 0.961 . S
H1029 C1021 0.960 . S
H1030 C1022 0.930 . S
H1031 C1023 0.929 . S
H1032 C1040 0.929 . S
H1033 C1042 0.930 . S
H1034 C1044 0.930 . S
H1035 C1047 0.929 . S
H1036 C1050 0.930 . S
H1037 C1052 0.960 . S
H1038 C1052 0.960 . S
H1039 C1052 0.960 . S
C1040 H1032 0.929 . S
C1040 C1041 1.377 . S
C1040 C1042 1.384 . S
C1041 C1040 1.377 . S
C1041 C1047 1.390 . S
C1042 H1033 0.930 . S
C1042 C1040 1.384 . S
C1042 C1043 1.372 . S
C1043 C1042 1.372 . S
C1043 C1044 1.400 . S
C1043 C1048 1.490 . S
C1044 H1034 0.930 . S
C1044 C1043 1.400 . S
C1044 C1047 1.386 . S
H1045 C1061 0.930 . S
H1046 C1062 0.931 . S
C1047 H1035 0.929 . S
C1047 C1041 1.390 . S
C1047 C1044 1.386 . S
C1048 C1043 1.490 . S
C1048 C1050 1.395 . S
C1048 C1051 1.403 . S
H1049 C1055 0.930 . S
C1050 H1036 0.930 . S
C1050 C1048 1.395 . S
C1050 C1053 1.403 . S
C1051 C1048 1.403 . S
C1051 C1052 1.524 . S
C1051 C1055 1.400 . S
C1052 H1037 0.960 . S
C1052 H1038 0.960 . S
C1052 H1039 0.960 . S
C1052 C1051 1.524 . S
C1053 C1050 1.403 . S
C1053 C1054 1.392 . S
C1053 C1057 1.495 . S
C1054 C1053 1.392 . S
C1054 C1055 1.385 . S
C1054 C1056 1.478 . S
C1055 H1049 0.930 . S
C1055 C1051 1.400 . S
C1055 C1054 1.385 . S
C1056 C1054 1.478 . S
C1056 C1058 1.381 . S
C1056 C1062 1.383 . S
C1057 C1053 1.495 . S
C1057 H1063 0.959 . S
C1057 H1064 0.961 . S
C1057 H1065 0.960 . S
C1058 C1056 1.381 . S
C1058 C1059 1.394 . S
C1058 H1066 0.930 . S
C1059 C1058 1.394 . S
C1059 C1060 1.383 . S
C1059 H1067 0.929 . S
C1060 C1059 1.383 . S
C1060 C1061 1.377 . S
C1061 H1045 0.930 . S
C1061 C1060 1.377 . S
C1061 C1062 1.379 . S
C1062 H1046 0.931 . S
C1062 C1056 1.383 . S
C1062 C1061 1.379 . S
H1063 C1057 0.959 . S
H1064 C1057 0.961 . S
H1065 C1057 0.960 . S
H1066 C1058 0.930 . S
H1067 C1059 0.929 . S
H1068 C1076 0.929 . S
H1069 C1078 0.930 . S
H1070 C1080 0.930 . S
H1071 C1083 0.929 . S
H1072 C1086 0.930 . S
H1073 C1088 0.960 . S
H1074 C1088 0.960 . S
H1075 C1088 0.960 . S
C1076 H1068 0.929 . S
C1076 C1077 1.377 . S
C1076 C1078 1.384 . S
C1077 C1076 1.377 . S
C1077 C1083 1.390 . S
C1078 H1069 0.930 . S
C1078 C1076 1.384 . S
C1078 C1079 1.372 . S
C1079 C1078 1.372 . S
C1079 C1080 1.400 . S
C1079 C1084 1.490 . S
C1080 H1070 0.930 . S
C1080 C1079 1.400 . S
C1080 C1083 1.386 . S
H1081 C1097 0.930 . S
H1082 C1098 0.931 . S
C1083 H1071 0.929 . S
C1083 C1077 1.390 . S
C1083 C1080 1.386 . S
C1084 C1079 1.490 . S
C1084 C1086 1.395 . S
C1084 C1087 1.403 . S
H1085 C1091 0.930 . S
C1086 H1072 0.930 . S
C1086 C1084 1.395 . S
C1086 C1089 1.403 . S
C1087 C1084 1.403 . S
C1087 C1088 1.524 . S
C1087 C1091 1.400 . S
C1088 H1073 0.960 . S
C1088 H1074 0.960 . S
C1088 H1075 0.960 . S
C1088 C1087 1.524 . S
C1089 C1086 1.403 . S
C1089 C1090 1.392 . S
C1089 C1093 1.495 . S
C1090 C1089 1.392 . S
C1090 C1091 1.385 . S
C1090 C1092 1.478 . S
C1091 H1085 0.930 . S
C1091 C1087 1.400 . S
C1091 C1090 1.385 . S
C1092 C1090 1.478 . S
C1092 C1094 1.381 . S
C1092 C1098 1.383 . S
C1093 C1089 1.495 . S
C1093 H1099 0.959 . S
C1093 H1100 0.961 . S
C1093 H1101 0.960 . S
C1094 C1092 1.381 . S
C1094 C1095 1.394 . S
C1094 H1102 0.930 . S
C1095 C1094 1.394 . S
C1095 C1096 1.383 . S
C1095 H1103 0.929 . S
C1096 C1095 1.383 . S
C1096 C1097 1.377 . S
C1097 H1081 0.930 . S
C1097 C1096 1.377 . S
C1097 C1098 1.379 . S
C1098 H1082 0.931 . S
C1098 C1092 1.383 . S
C1098 C1097 1.379 . S
H1099 C1093 0.959 . S
H1100 C1093 0.961 . S
H1101 C1093 0.960 . S
H1102 C1094 0.930 . S
H1103 C1095 0.929 . S
C249 C11 1.479 . S
C268 C178 1.558 . S
C304 C156 1.526 . S
C285 C30 1.473 . S
C340 C182 1.556 . S
C321 C49 1.399 . S
C376 C160 1.550 . S
C357 C68 1.391 . S
C412 C222 1.528 . S
C393 C87 1.470 . S
C448 C200 1.531 . S
C429 C106 1.469 . S
C465 C125 1.406 . S
C484 C226 1.527 . S
C520 C204 1.558 . S
C501 C144 1.397 . S
C537 C2 1.537 1_556 S
C556 C227 1.560 . S
C592 C205 1.575 . S
C573 C21 1.535 . S
C609 C40 1.542 1_556 S
C628 C224 1.558 . S
C645 C59 1.533 . S
C664 C202 1.582 . S
C700 C183 1.582 . S
C681 C78 1.544 1_556 S
C717 C97 1.537 . S
C736 C161 1.560 . S
C772 C180 1.558 . S
C753 C116 1.540 1_556 S
C808 C158 1.560 . S
C789 C135 1.542 . S
C844 C201 1.511 . S
C825 C6 1.529 . S
C880 C223 1.499 . S
C861 C25 1.529 . S
C897 C44 1.523 . S
C916 C203 1.528 . S
C952 C225 1.504 . S
C933 C63 1.526 . S
C988 C157 1.499 . S
C969 C82 1.531 . S
C1005 C101 1.529 . S
C1024 C179 1.499 . S
C1041 C120 1.524 . S
C1060 C159 1.496 . S
C1077 C139 1.526 . S
C1096 C181 1.505 . S
