# Generated by pormake.
# Topology apo, (3,6)-cn, num edge types: 1
# Building blocks:
#     Node 0, Type 0, BuildingBlock: MIDCAF_clean_linker_0, # of connection points: 3
#     Node 1, Type 0, BuildingBlock: MIDCAF_clean_linker_0, # of connection points: 3
#     Node 2, Type 0, BuildingBlock: MIDCAF_clean_linker_0, # of connection points: 3
#     Node 3, Type 0, BuildingBlock: MIDCAF_clean_linker_0, # of connection points: 3
#     Node 4, Type 0, BuildingBlock: MIDCAF_clean_linker_0, # of connection points: 3
#     Node 5, Type 0, BuildingBlock: MIDCAF_clean_linker_0, # of connection points: 3
#     Node 6, Type 0, BuildingBlock: MIDCAF_clean_linker_0, # of connection points: 3
#     Node 7, Type 0, BuildingBlock: MIDCAF_clean_linker_0, # of connection points: 3
#     Node 8, Type 1, BuildingBlock: KUMBOL_clean_sbu_1, # of connection points: 6
#     Node 9, Type 1, BuildingBlock: KUMBOL_clean_sbu_1, # of connection points: 6
#     Node 10, Type 1, BuildingBlock: KUMBOL_clean_sbu_1, # of connection points: 6
#     Node 11, Type 1, BuildingBlock: KUMBOL_clean_sbu_1, # of connection points: 6
#     Edge 12, Type (0, 1), BuildingBlock: OJICUG_clean_linker_0, # of connection points: 2
#     Edge 13, Type (0, 1), BuildingBlock: OJICUG_clean_linker_0, # of connection points: 2
#     Edge 14, Type (0, 1), BuildingBlock: OJICUG_clean_linker_0, # of connection points: 2
#     Edge 15, Type (0, 1), BuildingBlock: OJICUG_clean_linker_0, # of connection points: 2
#     Edge 16, Type (0, 1), BuildingBlock: OJICUG_clean_linker_0, # of connection points: 2
#     Edge 17, Type (0, 1), BuildingBlock: OJICUG_clean_linker_0, # of connection points: 2
#     Edge 18, Type (0, 1), BuildingBlock: OJICUG_clean_linker_0, # of connection points: 2
#     Edge 19, Type (0, 1), BuildingBlock: OJICUG_clean_linker_0, # of connection points: 2
#     Edge 20, Type (0, 1), BuildingBlock: OJICUG_clean_linker_0, # of connection points: 2
#     Edge 21, Type (0, 1), BuildingBlock: OJICUG_clean_linker_0, # of connection points: 2
#     Edge 22, Type (0, 1), BuildingBlock: OJICUG_clean_linker_0, # of connection points: 2
#     Edge 23, Type (0, 1), BuildingBlock: OJICUG_clean_linker_0, # of connection points: 2
#     Edge 24, Type (0, 1), BuildingBlock: OJICUG_clean_linker_0, # of connection points: 2
#     Edge 25, Type (0, 1), BuildingBlock: OJICUG_clean_linker_0, # of connection points: 2
#     Edge 26, Type (0, 1), BuildingBlock: OJICUG_clean_linker_0, # of connection points: 2
#     Edge 27, Type (0, 1), BuildingBlock: OJICUG_clean_linker_0, # of connection points: 2
#     Edge 28, Type (0, 1), BuildingBlock: OJICUG_clean_linker_0, # of connection points: 2
#     Edge 29, Type (0, 1), BuildingBlock: OJICUG_clean_linker_0, # of connection points: 2
#     Edge 30, Type (0, 1), BuildingBlock: OJICUG_clean_linker_0, # of connection points: 2
#     Edge 31, Type (0, 1), BuildingBlock: OJICUG_clean_linker_0, # of connection points: 2
#     Edge 32, Type (0, 1), BuildingBlock: OJICUG_clean_linker_0, # of connection points: 2
#     Edge 33, Type (0, 1), BuildingBlock: OJICUG_clean_linker_0, # of connection points: 2
#     Edge 34, Type (0, 1), BuildingBlock: OJICUG_clean_linker_0, # of connection points: 2
#     Edge 35, Type (0, 1), BuildingBlock: OJICUG_clean_linker_0, # of connection points: 2
# Relax obj value: 0.008
# Max RMSD: 0.110
# Mean RMSD: 0.085
data_MOF--net-apo--node1-KUMBOL_clean_sbu_1--node2-MIDCAF_clean_linker_0--edge1-OJICUG_clean_linker_0
_symmetry_space_group_name_H-M    P1
_symmetry_Int_Tables_number       1
_symmetry_cell_setting            triclinic
loop_
_symmetry_equiv_pos_as_xyz
'x, y, z'
_cell_length_a     22.906083
_cell_length_b     40.211252
_cell_length_c     51.429285
_cell_angle_alpha  89.944296
_cell_angle_beta   90.13422
_cell_angle_gamma 90.433954
loop_
_atom_site_label
_atom_site_type_symbol
_atom_site_fract_x
_atom_site_fract_y
_atom_site_fract_z
_atom_type_partial_charge
C0 C 0.33529 0.41021 0.5033 0.0
C1 C 0.30743 0.38728 0.51988 0.0
C2 C 0.27544 0.3609 0.50864 0.0
C3 C 0.27019 0.35813 0.48152 0.0
H4 H 0.16631 0.31375 0.41489 0.0
H5 H 0.1151 0.26958 0.39061 0.0
H6 H 0.23806 0.28058 0.32772 0.0
H7 H 0.28805 0.32502 0.35144 0.0
H8 H 0.32777 0.40298 0.34234 0.0
H9 H 0.36441 0.44829 0.31524 0.0
H10 H 0.37355 0.51228 0.38247 0.0
H11 H 0.33696 0.46695 0.40978 0.0
H12 H 0.35178 0.42594 0.46434 0.0
H13 H 0.36116 0.43049 0.51119 0.0
H14 H 0.25294 0.34296 0.5208 0.0
H15 H 0.24442 0.33785 0.47358 0.0
N16 N 0.26347 0.3532 0.4246 0.0
N17 N 0.28156 0.37665 0.38351 0.0
N18 N 0.31136 0.40492 0.42105 0.0
C19 C 0.25942 0.35149 0.39819 0.0
C20 C 0.3071 0.40358 0.39473 0.0
C21 C 0.29014 0.37981 0.43618 0.0
C22 C 0.23108 0.32285 0.38503 0.0
C23 C 0.18259 0.30647 0.39599 0.0
C24 C 0.15313 0.28142 0.38208 0.0
C25 C 0.17274 0.27179 0.35734 0.0
C26 C 0.22225 0.28746 0.3468 0.0
C27 C 0.2507 0.31294 0.36036 0.0
C28 C 0.32957 0.43123 0.37831 0.0
C29 C 0.33745 0.42668 0.35142 0.0
C30 C 0.35864 0.45259 0.33587 0.0
C31 C 0.37182 0.48378 0.34675 0.0
C32 C 0.36329 0.48856 0.37353 0.0
C33 C 0.34277 0.4625 0.38919 0.0
C34 C 0.29675 0.38169 0.465 0.0
C35 C 0.32994 0.40752 0.47631 0.0
C36 C 0.16997 0.10919 1.00556 0.0
C37 C 0.20371 0.13253 0.01956 0.0
C38 C 0.24284 0.15304 1.00573 0.0
C39 C 0.24794 0.15048 0.97877 0.0
H40 H 0.28575 0.2093 0.91183 0.0
H41 H 0.33522 0.25242 0.88628 0.0
H42 H 0.35503 0.18326 0.82282 0.0
H43 H 0.30594 0.14028 0.8481 0.0
H44 H 0.23242 0.07748 0.84682 0.0
H45 H 0.19269 0.03189 0.8215 0.0
H46 H 0.08955 0.0002 0.88736 0.0
H47 H 0.1305 0.04582 0.91321 0.0
H48 H 0.1489 0.08817 0.96838 0.0
H49 H 0.13887 0.09324 0.01545 0.0
H50 H 0.27061 0.17078 0.01577 0.0
H51 H 0.27894 0.16662 0.96897 0.0
N52 N 0.25144 0.14804 0.92281 0.0
N53 N 0.23797 0.11846 0.88413 0.0
N54 N 0.19951 0.09735 0.92304 0.0
C55 C 0.25975 0.14535 0.89678 0.0
C56 C 0.20779 0.09439 0.89693 0.0
C57 C 0.22157 0.12411 0.93615 0.0
C58 C 0.29173 0.17135 0.88201 0.0
C59 C 0.30098 0.20324 0.8925 0.0
C60 C 0.32896 0.22798 0.87784 0.0
C61 C 0.34895 0.22113 0.8526 0.0
C62 C 0.34058 0.18914 0.84232 0.0
C63 C 0.31208 0.16458 0.85679 0.0
C64 C 0.1844 0.06556 0.8821 0.0
C65 C 0.20128 0.0609 0.85606 0.0
C66 C 0.17823 0.03478 0.8414 0.0
C67 C 0.13741 0.01261 0.85227 0.0
C68 C 0.1212 0.01676 0.87845 0.0
C69 C 0.14452 0.04297 0.89324 0.0
C70 C 0.2146 0.12704 0.96478 0.0
C71 C 0.17552 0.10639 0.97851 0.0
C72 C 0.84496 0.11106 0.51451 0.0
C73 C 0.82989 0.14093 0.50196 0.0
C74 C 0.80231 0.16584 0.5165 0.0
C75 C 0.79009 0.1612 0.54279 0.0
H76 H 0.73379 0.2133 0.60916 0.0
H77 H 0.68272 0.25581 0.63406 0.0
H78 H 0.62272 0.18033 0.68788 0.0
H79 H 0.67573 0.13847 0.6638 0.0
H80 H 0.81242 0.09481 0.675 0.0
H81 H 0.84595 0.04892 0.70151 0.0
H82 H 0.85608 0.98707 0.63293 0.0
H83 H 0.82513 0.03393 0.60613 0.0
H84 H 0.84488 0.08314 0.55013 0.0
H85 H 0.86636 0.0914 0.50388 0.0
H86 H 0.78886 0.18887 0.50742 0.0
H87 H 0.76855 0.18111 0.55308 0.0
N88 N 0.7584 0.15055 0.5958 0.0
N89 N 0.76286 0.12018 0.6345 0.0
N90 N 0.80855 0.09974 0.59703 0.0
C91 C 0.74415 0.14717 0.62123 0.0
C92 C 0.79514 0.09645 0.62272 0.0
C93 C 0.79032 0.12694 0.58344 0.0
C94 C 0.7094 0.17266 0.63474 0.0
C95 C 0.70937 0.20588 0.62625 0.0
C96 C 0.67987 0.23019 0.64046 0.0
C97 C 0.64919 0.22163 0.66322 0.0
C98 C 0.64725 0.18807 0.67092 0.0
C99 C 0.67741 0.16397 0.65701 0.0
C100 C 0.81616 0.06803 0.63841 0.0
C101 C 0.82176 0.07141 0.66552 0.0
C102 C 0.84056 0.0449 0.68083 0.0
C103 C 0.85348 0.01402 0.66954 0.0
C104 C 0.84748 0.01057 0.64235 0.0
C105 C 0.82955 0.03739 0.62693 0.0
C106 C 0.80493 0.13142 0.55546 0.0
C107 C 0.83283 0.10641 0.54104 0.0
C108 C 0.6652 0.38116 0.01013 0.0
C109 C 0.68481 0.35187 0.99815 0.0
C110 C 0.71511 0.32853 0.01334 0.0
C111 C 0.72511 0.33408 0.03976 0.0
H112 H 0.83028 0.30127 0.10379 0.0
H113 H 0.88241 0.26109 0.13061 0.0
H114 H 0.79319 0.29768 0.19875 0.0
H115 H 0.74392 0.33872 0.17219 0.0
H116 H 0.75159 0.42566 0.16367 0.0
H117 H 0.71833 0.47311 0.18836 0.0
H118 H 0.59162 0.49499 0.1285 0.0
H119 H 0.62631 0.44752 0.10316 0.0
H120 H 0.65929 0.4095 0.04532 0.0
H121 H 0.64151 0.3996 0.99904 0.0
H122 H 0.73208 0.30604 1.00472 0.0
H123 H 0.74874 0.3154 0.05062 0.0
N124 N 0.74422 0.3449 0.0943 0.0
N125 N 0.73646 0.37763 0.13167 0.0
N126 N 0.69867 0.3971 0.0921 0.0
C127 C 0.75405 0.34919 0.12013 0.0
C128 C 0.70914 0.40177 0.11793 0.0
C129 C 0.71632 0.36865 0.08011 0.0
C130 C 0.78337 0.32335 0.13588 0.0
C131 C 0.82186 0.3006 0.1245 0.0
C132 C 0.85153 0.27745 0.13992 0.0
C133 C 0.84257 0.27615 0.16702 0.0
C134 C 0.80267 0.2984 0.17815 0.0
C135 C 0.77395 0.32186 0.16285 0.0
C136 C 0.69106 0.43248 0.13155 0.0
C137 C 0.71674 0.44057 0.15561 0.0
C138 C 0.69749 0.46777 0.16988 0.0
C139 C 0.6516 0.48754 0.16067 0.0
C140 C 0.62725 0.48032 0.13612 0.0
C141 C 0.64695 0.45308 0.12164 0.0
C142 C 0.70534 0.36323 0.05188 0.0
C143 C 0.67525 0.38676 0.03671 0.0
C144 C 0.6726 0.61173 0.51225 0.0
C145 C 0.7052 0.63586 0.49862 0.0
C146 C 0.74437 0.65616 0.51268 0.0
C147 C 0.75042 0.65268 0.53959 0.0
H148 H 0.84873 0.68733 0.60682 0.0
H149 H 0.89828 0.73003 0.6332 0.0
H150 H 0.7853 0.70677 0.69777 0.0
H151 H 0.737 0.66357 0.67193 0.0
H152 H 0.74723 0.56847 0.66603 0.0
H153 H 0.7072 0.52125 0.69007 0.0
H154 H 0.57442 0.50794 0.63126 0.0
H155 H 0.61515 0.55505 0.60673 0.0
H156 H 0.65294 0.58934 0.54903 0.0
H157 H 0.64153 0.5959 0.50217 0.0
H158 H 0.77121 0.67453 0.50286 0.0
H159 H 0.78119 0.66875 0.54963 0.0
N160 N 0.75388 0.64868 0.59575 0.0
N161 N 0.73653 0.61892 0.63419 0.0
N162 N 0.7013 0.59827 0.59447 0.0
C163 C 0.75953 0.64586 0.62196 0.0
C164 C 0.70773 0.59495 0.62063 0.0
C165 C 0.72453 0.62504 0.58184 0.0
C166 C 0.78914 0.67209 0.63735 0.0
C167 C 0.83457 0.69137 0.62664 0.0
C168 C 0.863 0.71561 0.64169 0.0
C169 C 0.84533 0.7215 0.66738 0.0
C170 C 0.79947 0.70261 0.67795 0.0
C171 C 0.77209 0.67788 0.66319 0.0
C172 C 0.68418 0.56554 0.63452 0.0
C173 C 0.70964 0.55543 0.65812 0.0
C174 C 0.68703 0.5283 0.67182 0.0
C175 C 0.63784 0.51105 0.66248 0.0
C176 C 0.61234 0.52097 0.63886 0.0
C177 C 0.63575 0.54778 0.62482 0.0
C178 C 0.71788 0.62858 0.55321 0.0
C179 C 0.67899 0.60807 0.53919 0.0
C180 C 0.77041 0.92288 1.00794 0.0
C181 C 0.7593 0.89421 0.99302 0.0
C182 C 0.746 0.86431 1.00599 0.0
C183 C 0.74392 0.86308 0.0332 0.0
H184 H 0.64597 0.81906 0.10048 0.0
H185 H 0.60118 0.7736 0.12557 0.0
H186 H 0.7234 0.79154 0.18807 0.0
H187 H 0.76744 0.83697 0.16341 0.0
H188 H 0.82467 0.908 0.16733 0.0
H189 H 0.86714 0.9516 0.19433 0.0
H190 H 0.84477 0.02234 0.13201 0.0
H191 H 0.80229 0.97844 0.10461 0.0
H192 H 0.77837 0.9441 0.04598 0.0
H193 H 0.78123 0.94624 0.99856 0.0
H194 H 0.73667 0.84186 0.99508 0.0
H195 H 0.73374 0.83956 0.04246 0.0
N196 N 0.73295 0.86295 0.08961 0.0
N197 N 0.76052 0.88563 0.1298 0.0
N198 N 0.78033 0.91504 0.09143 0.0
C199 C 0.73516 0.86069 0.11599 0.0
C200 C 0.7829 0.91292 0.11782 0.0
C201 C 0.75584 0.88999 0.07713 0.0
C202 C 0.71014 0.83167 0.12998 0.0
C203 C 0.66348 0.81309 0.11948 0.0
C204 C 0.63762 0.78727 0.13388 0.0
C205 C 0.65885 0.77913 0.15874 0.0
C206 C 0.70638 0.79715 0.1689 0.0
C207 C 0.7314 0.82327 0.15479 0.0
C208 C 0.81003 0.93969 0.13375 0.0
C209 C 0.82872 0.9328 0.15926 0.0
C210 C 0.85335 0.95774 0.17475 0.0
C211 C 0.85925 0.99033 0.16528 0.0
C212 C 0.84036 0.99743 0.13984 0.0
C213 C 0.81646 0.97227 0.12412 0.0
C214 C 0.7558 0.89165 0.04818 0.0
C215 C 0.76903 0.92158 0.03516 0.0
C216 C 0.16656 0.87752 0.50438 0.0
C217 C 0.1692 0.84506 0.51443 0.0
C218 C 0.18591 0.81904 0.49789 0.0
C219 C 0.19976 0.82532 0.47187 0.0
H220 H 0.28662 0.78356 0.40766 0.0
H221 H 0.34055 0.74413 0.38092 0.0
H222 H 0.35064 0.81695 0.31923 0.0
H223 H 0.29584 0.85577 0.34542 0.0
H224 H 0.15946 0.89791 0.34624 0.0
H225 H 0.1233 0.94483 0.32165 0.0
H226 H 0.14862 0.00833 0.38868 0.0
H227 H 0.18166 0.96026 0.41384 0.0
H228 H 0.17651 0.909 0.47099 0.0
H229 H 0.15357 0.89802 0.51667 0.0
H230 H 0.1888 0.79382 0.50517 0.0
H231 H 0.21234 0.80463 0.45968 0.0
N232 N 0.24066 0.84155 0.41982 0.0
N233 N 0.22973 0.8741 0.38241 0.0
N234 N 0.18857 0.89176 0.42169 0.0
C235 C 0.25156 0.84667 0.39414 0.0
C236 C 0.19832 0.89667 0.3959 0.0
C237 C 0.20931 0.86402 0.43376 0.0
C238 C 0.28634 0.82278 0.37867 0.0
C239 C 0.30048 0.79115 0.38842 0.0
C240 C 0.33166 0.7686 0.37312 0.0
C241 C 0.3496 0.77725 0.34781 0.0
C242 C 0.33648 0.80913 0.33838 0.0
C243 C 0.30517 0.83151 0.35353 0.0
C244 C 0.17376 0.9255 0.3819 0.0
C245 C 0.15709 0.92188 0.35577 0.0
C246 C 0.13684 0.94898 0.34157 0.0
C247 C 0.13404 0.98078 0.35287 0.0
C248 C 0.1497 0.98427 0.37929 0.0
C249 C 0.16884 0.95679 0.39373 0.0
C250 C 0.19632 0.85771 0.46163 0.0
C251 C 0.17945 0.88375 0.47819 0.0
C252 C 0.34496 0.61591 1.00636 0.0
C253 C 0.32089 0.6441 0.01838 0.0
C254 C 0.28962 0.66672 1.00292 0.0
C255 C 0.28237 0.66137 0.97632 0.0
H256 H 0.25659 0.71235 0.90325 0.0
H257 H 0.21204 0.75457 0.87583 0.0
H258 H 0.13862 0.67735 0.82687 0.0
H259 H 0.18605 0.63546 0.85346 0.0
H260 H 0.24613 0.5638 0.85699 0.0
H261 H 0.28078 0.51725 0.83146 0.0
H262 H 0.42434 0.50437 0.88514 0.0
H263 H 0.38828 0.55063 0.9113 0.0
H264 H 0.35609 0.58836 0.97104 0.0
H265 H 0.36977 0.59811 0.01758 0.0
H266 H 0.26919 0.6883 0.01146 0.0
H267 H 0.25733 0.67931 0.96533 0.0
N268 N 0.26719 0.65053 0.92171 0.0
N269 N 0.26898 0.61569 0.88537 0.0
N270 N 0.31044 0.59783 0.92472 0.0
C271 C 0.25416 0.645 0.89634 0.0
C272 C 0.2973 0.59208 0.89927 0.0
C273 C 0.29483 0.62701 0.93616 0.0
C274 C 0.22484 0.67064 0.8805 0.0
C275 C 0.23082 0.70448 0.88664 0.0
C276 C 0.20499 0.72867 0.87093 0.0
C277 C 0.17153 0.71953 0.84901 0.0
C278 C 0.16505 0.68552 0.84317 0.0
C279 C 0.19184 0.66141 0.85857 0.0
C280 C 0.31491 0.56114 0.886 0.0
C281 C 0.28481 0.55086 0.86353 0.0
C282 C 0.30488 0.52427 0.84878 0.0
C283 C 0.35601 0.50747 0.85592 0.0
C284 C 0.38466 0.51669 0.87912 0.0
C285 C 0.3641 0.54321 0.8941 0.0
C286 C 0.30565 0.63303 0.9643 0.0
C287 C 0.33736 0.61041 0.97962 0.0
C288 C 0.8166 0.1073 0.25838 0.0
C289 C 0.81345 0.04857 0.26925 0.0
C290 C 0.84171 0.07984 0.27036 0.0
C291 C 0.76064 0.04518 0.25554 0.0
C292 C 0.76343 0.10401 0.24472 0.0
C293 C 0.73571 0.0728 0.24331 0.0
N294 N 0.84535 0.137 0.25931 0.0
C295 C 0.82213 0.16467 0.24808 0.0
C296 C 0.74001 0.13216 0.23263 0.0
C297 C 0.76935 0.16265 0.23446 0.0
Gd298 Gd 0.07882 0.13343 0.23715 0.0
Gd299 Gd 0.93417 0.1378 0.28204 0.0
N300 N 0.89378 0.08368 0.28297 0.0
C301 C 0.83884 0.02166 0.28216 0.0
C302 C 0.9164 0.05801 0.297 0.0
C303 C 0.89006 0.02655 0.29642 0.0
H304 H 0.95361 0.06168 0.30936 0.0
H305 H 0.90884 0.0062 0.30731 0.0
H306 H 0.05303 0.20774 0.20732 0.0
H307 H 0.84383 0.18843 0.25002 0.0
H308 H 0.09384 0.26415 0.20744 0.0
H309 H 0.81847 0.99726 0.28179 0.0
H310 H 0.73855 0.0213 0.25438 0.0
H311 H 0.17689 0.08576 0.26673 0.0
H312 H 0.69924 0.13064 0.22196 0.0
H313 H 0.75124 0.18463 0.22545 0.0
H314 H 0.27011 0.25475 0.25709 0.0
H315 H 0.69495 0.06977 0.23282 0.0
H316 H 0.3224 0.14696 0.28894 0.0
H317 H 0.27356 0.09188 0.28777 0.0
N318 N 0.171 0.13675 0.25666 0.0
C319 C 0.19728 0.16718 0.25675 0.0
C320 C 0.19768 0.10987 0.26745 0.0
C321 C 0.28 0.14439 0.27975 0.0
C322 C 0.25251 0.11326 0.27919 0.0
C323 C 0.2525 0.17183 0.26843 0.0
H324 H 0.32035 0.20775 0.27773 0.0
N325 N 0.11502 0.18845 0.23423 0.0
C326 C 0.16824 0.19382 0.24547 0.0
C327 C 0.16644 0.25141 0.23205 0.0
C328 C 0.19479 0.2256 0.24507 0.0
C329 C 0.09019 0.21283 0.21948 0.0
C330 C 0.11451 0.2448 0.21875 0.0
O331 O 0.92853 0.11452 0.24177 0.0
O332 O 0.01728 0.08954 0.23749 0.0
O333 O 0.07999 0.13416 0.19491 0.0
O334 O 0.14422 0.10558 0.21582 0.0
O335 O 0.01232 0.11032 0.29878 0.0
O336 O 0.0637 0.08926 0.26357 0.0
O337 O 0.08877 0.1555 0.27753 0.0
O338 O 8e-05 0.1797 0.28516 0.0
O339 O 0.9186 0.1336 0.32418 0.0
O340 O 0.86959 0.16875 0.30026 0.0
O341 O 0.99844 0.15969 0.22174 0.0
O342 O 0.95567 0.18288 0.25785 0.0
C343 C 0.96152 0.09113 0.232 0.0
C344 C 0.04999 0.08932 0.28852 0.0
C345 C 0.17302 0.13058 0.17601 0.0
C346 C 0.20763 0.14267 0.13206 0.0
C347 C 0.26199 0.16275 0.16964 0.0
C348 C 0.22121 0.148 0.18622 0.0
C349 C 0.25519 0.16029 0.14274 0.0
C350 C 0.16671 0.1277 0.14888 0.0
C351 C 0.12757 0.11682 0.19328 0.0
C352 C 0.24937 0.23044 0.25705 0.0
C353 C 0.27813 0.20365 0.26869 0.0
H354 H 0.18543 0.27615 0.23125 0.0
C355 C 0.05609 0.17684 0.29004 0.0
C356 C 0.96432 0.18186 0.23264 0.0
C357 C 0.84514 0.16823 0.346 0.0
C358 C 0.82731 0.17053 0.39279 0.0
C359 C 0.77081 0.20491 0.36333 0.0
C360 C 0.80117 0.19201 0.34224 0.0
C361 C 0.78399 0.19445 0.38846 0.0
C362 C 0.85759 0.15712 0.37145 0.0
C363 C 0.87859 0.15647 0.32327 0.0
H364 H 0.29892 0.17621 0.17768 0.0
H365 H 0.22731 0.15036 0.20696 0.0
H366 H 0.28755 0.17183 0.13026 0.0
H367 H 0.12935 0.11448 0.14088 0.0
H368 H 0.73721 0.22328 0.3602 0.0
H369 H 0.79042 0.20094 0.32294 0.0
H370 H 0.76005 0.20493 0.40461 0.0
H371 H 0.89145 0.1389 0.37474 0.0
C372 C 0.68856 0.39788 0.75919 0.0
C373 C 0.68803 0.45513 0.77402 0.0
C374 C 0.66124 0.42345 0.77258 0.0
C375 C 0.74132 0.46093 0.76127 0.0
C376 C 0.74231 0.40356 0.74654 0.0
C377 C 0.76838 0.43523 0.74759 0.0
N378 N 0.66151 0.36773 0.75776 0.0
C379 C 0.68637 0.34197 0.74474 0.0
C380 C 0.76778 0.37732 0.73285 0.0
C381 C 0.73974 0.34637 0.73202 0.0
Gd382 Gd 0.42332 0.36601 0.73641 0.0
Gd383 Gd 0.5727 0.36253 0.7798 0.0
N384 N 0.60914 0.41725 0.78449 0.0
C385 C 0.66106 0.47992 0.78866 0.0
C386 C 0.58541 0.44061 0.80047 0.0
C387 C 0.61007 0.47243 0.80229 0.0
H388 H 0.54885 0.43479 0.8127 0.0
H389 H 0.59034 0.49097 0.81466 0.0
H390 H 0.44939 0.29722 0.69958 0.0
H391 H 0.66544 0.31789 0.74456 0.0
H392 H 0.417 0.23907 0.69766 0.0
H393 H 0.68028 0.50454 0.79028 0.0
H394 H 0.76225 0.48517 0.76208 0.0
H395 H 0.32869 0.40497 0.77468 0.0
H396 H 0.80902 0.3807 0.72288 0.0
H397 H 0.7593 0.32587 0.72166 0.0
H398 H 0.25652 0.23368 0.75712 0.0
H399 H 0.8095 0.4401 0.73788 0.0
H400 H 0.1994 0.33432 0.79958 0.0
H401 H 0.23976 0.39159 0.8 0.0
N402 N 0.3382 0.3558 0.76039 0.0
C403 C 0.3159 0.32438 0.75926 0.0
C404 C 0.31121 0.37995 0.77446 0.0
C405 C 0.23813 0.34011 0.78835 0.0
C406 C 0.26087 0.37246 0.7887 0.0
C407 C 0.26562 0.31559 0.77353 0.0
H408 H 0.20654 0.27538 0.78381 0.0
N409 N 0.39368 0.31002 0.73105 0.0
C410 C 0.34505 0.30073 0.74457 0.0
C411 C 0.35093 0.24517 0.72692 0.0
C412 C 0.32317 0.26786 0.74326 0.0
C413 C 0.41702 0.28881 0.71322 0.0
C414 C 0.39727 0.25591 0.71142 0.0
O415 O 0.57787 0.38733 0.74013 0.0
O416 O 0.4863 0.40924 0.73463 0.0
O417 O 0.4021 0.36677 0.69451 0.0
O418 O 0.35319 0.39673 0.7222 0.0
O419 O 0.49395 0.38804 0.79723 0.0
O420 O 0.4427 0.41004 0.76234 0.0
O421 O 0.42054 0.3442 0.77705 0.0
O422 O 0.50949 0.31927 0.7804 0.0
O423 O 0.58734 0.36209 0.82217 0.0
O424 O 0.63904 0.33095 0.79623 0.0
O425 O 0.50342 0.34229 0.71827 0.0
O426 O 0.55111 0.31942 0.75354 0.0
C427 C 0.54202 0.40833 0.72888 0.0
C428 C 0.45626 0.40924 0.78727 0.0
C429 C 0.32142 0.4008 0.67735 0.0
C430 C 0.29478 0.40783 0.63147 0.0
C431 C 0.23718 0.43395 0.66535 0.0
C432 C 0.27381 0.42077 0.68431 0.0
C433 C 0.24753 0.42764 0.63917 0.0
C434 C 0.33148 0.39407 0.65076 0.0
C435 C 0.35968 0.38762 0.69819 0.0
C436 C 0.27355 0.25888 0.75774 0.0
C437 C 0.24488 0.28267 0.77283 0.0
H438 H 0.33542 0.21973 0.72534 0.0
C439 C 0.45439 0.32129 0.78689 0.0
C440 C 0.54084 0.32106 0.72839 0.0
C441 C 0.66227 0.32632 0.84203 0.0
C442 C 0.68279 0.3213 0.88859 0.0
C443 C 0.73415 0.28672 0.85754 0.0
C444 C 0.7037 0.30146 0.83716 0.0
C445 C 0.72364 0.29639 0.88308 0.0
C446 C 0.6524 0.33653 0.86791 0.0
C447 C 0.62873 0.34019 0.81995 0.0
H448 H 0.20059 0.4492 0.67099 0.0
H449 H 0.26467 0.42625 0.70451 0.0
H450 H 0.21811 0.43811 0.62487 0.0
H451 H 0.36816 0.37886 0.64508 0.0
H452 H 0.76583 0.26756 0.85354 0.0
H453 H 0.71236 0.2931 0.81754 0.0
H454 H 0.74792 0.28456 0.8986 0.0
H455 H 0.62052 0.35558 0.87203 0.0
C456 C 0.82357 0.81554 0.77174 0.0
C457 C 0.83982 0.7608 0.78992 0.0
C458 C 0.85822 0.79396 0.78586 0.0
C459 C 0.78749 0.74943 0.77858 0.0
C460 C 0.77001 0.80463 0.76108 0.0
C461 C 0.75261 0.77132 0.76422 0.0
N462 N 0.84221 0.84739 0.76856 0.0
C463 C 0.80816 0.87019 0.75621 0.0
C464 C 0.73551 0.82764 0.74769 0.0
C465 C 0.75446 0.86064 0.74546 0.0
Gd466 Gd 0.06879 0.86603 0.73549 0.0
Gd467 Gd 0.93271 0.86154 0.78683 0.0
N468 N 0.90831 0.80587 0.79674 0.0
C469 C 0.87361 0.74039 0.80594 0.0
C470 C 0.93841 0.78689 0.81415 0.0
C471 C 0.92254 0.75371 0.8185 0.0
H472 H 0.97363 0.79746 0.82536 0.0
H473 H 0.9474 0.73863 0.83193 0.0
H474 H 0.06024 0.94221 0.71064 0.0
H475 H 0.8225 0.89573 0.75465 0.0
H476 H 0.1117 0.99651 0.71452 0.0
H477 H 0.861 0.71478 0.80957 0.0
H478 H 0.77295 0.72396 0.78129 0.0
H479 H 0.16538 0.80897 0.75745 0.0
H480 H 0.69402 0.82027 0.73924 0.0
H481 H 0.72777 0.87871 0.73544 0.0
H482 H 0.26987 0.97435 0.77351 0.0
H483 H 0.7119 0.76235 0.75595 0.0
H484 H 0.30229 0.86074 0.7974 0.0
H485 H 0.25436 0.80794 0.78443 0.0
N486 N 0.15791 0.86165 0.75829 0.0
C487 C 0.18633 0.89079 0.76325 0.0
C488 C 0.18373 0.83213 0.76431 0.0
C489 C 0.26208 0.86132 0.78628 0.0
C490 C 0.23509 0.83147 0.77906 0.0
C491 C 0.23881 0.89146 0.77765 0.0
H492 H 0.30761 0.923 0.79326 0.0
N493 N 0.11599 0.91793 0.73751 0.0
C494 C 0.16539 0.91972 0.75209 0.0
C495 C 0.17553 0.97809 0.74174 0.0
C496 C 0.19587 0.95005 0.75507 0.0
C497 C 0.09794 0.94456 0.72317 0.0
C498 C 0.12695 0.97518 0.72535 0.0
O499 O 0.92155 0.84099 0.74602 0.0
O500 O 0.01197 0.81991 0.73658 0.0
O501 O 0.0566 0.86968 0.69358 0.0
O502 O 0.13758 0.85127 0.70904 0.0
O503 O 0.02 0.83957 0.79846 0.0
O504 O 0.06221 0.81975 0.76082 0.0
O505 O 0.04849 0.90903 0.7625 0.0
O506 O 0.02132 0.88046 0.79849 0.0
O507 O 0.89923 0.85823 0.8262 0.0
O508 O 0.89225 0.90449 0.80499 0.0
O509 O 0.98331 0.888 0.72256 0.0
O510 O 0.93264 0.906 0.75915 0.0
C511 C 0.9549 0.81957 0.73385 0.0
C512 C 0.05349 0.81825 0.78614 0.0
C513 C 0.10732 0.8306 0.66826 0.0
C514 C 0.11843 0.81443 0.62264 0.0
C515 C 0.10177 0.77245 0.65616 0.0
C516 C 0.10011 0.79712 0.67519 0.0
C517 C 0.1112 0.78091 0.63014 0.0
C518 C 0.11596 0.83919 0.64204 0.0
C519 C 0.10696 0.85679 0.6882 0.0
C520 C 0.24625 0.95118 0.77066 0.0
C521 C 0.26764 0.92195 0.78196 0.0
H522 H 0.19778 0.00186 0.74349 0.0
C523 C 0.04434 0.90685 0.78782 0.0
C524 C 0.94664 0.90825 0.73418 0.0
C525 C 0.82429 0.89437 0.83942 0.0
C526 C 0.76913 0.89902 0.88 0.0
C527 C 0.72137 0.90795 0.83822 0.0
C528 C 0.77373 0.90186 0.82523 0.0
C529 C 0.71901 0.9067 0.86539 0.0
C530 C 0.82164 0.89276 0.86674 0.0
C531 C 0.88078 0.88867 0.82655 0.0
H532 H 0.09646 0.74661 0.66164 0.0
H533 H 0.09386 0.7901 0.69533 0.0
H534 H 0.11394 0.76105 0.61602 0.0
H535 H 0.12055 0.8652 0.63687 0.0
H536 H 0.68243 0.91374 0.8272 0.0
H537 H 0.77472 0.90319 0.80422 0.0
H538 H 0.67781 0.91137 0.87496 0.0
H539 H 0.86091 0.88726 0.8777 0.0
C540 C 0.71179 0.65146 0.25747 0.0
C541 C 0.72363 0.71135 0.26118 0.0
C542 C 0.68948 0.68231 0.26429 0.0
C543 C 0.78024 0.70897 0.25094 0.0
C544 C 0.76861 0.64899 0.24723 0.0
C545 C 0.80263 0.6779 0.24397 0.0
N546 N 0.67784 0.62391 0.26077 0.0
C547 C 0.69812 0.59313 0.25459 0.0
C548 C 0.7895 0.6175 0.24052 0.0
C549 C 0.75412 0.58946 0.24427 0.0
Gd550 Gd 0.43744 0.63313 0.23387 0.0
Gd551 Gd 0.58456 0.63276 0.27774 0.0
N552 N 0.6339 0.68391 0.27353 0.0
C553 C 0.69975 0.74191 0.26836 0.0
C554 C 0.61116 0.71348 0.28139 0.0
C555 C 0.64344 0.74293 0.27868 0.0
H556 H 0.56838 0.71458 0.28989 0.0
H557 H 0.62498 0.7664 0.28467 0.0
H558 H 0.4683 0.56687 0.19537 0.0
H559 H 0.67145 0.57132 0.25805 0.0
H560 H 0.4437 0.50737 0.19323 0.0
H561 H 0.72456 0.7648 0.26625 0.0
H562 H 0.80705 0.73103 0.24833 0.0
H563 H 0.33878 0.66785 0.27271 0.0
H564 H 0.83291 0.61457 0.23256 0.0
H565 H 0.77007 0.56499 0.23935 0.0
H566 H 0.28953 0.49405 0.25531 0.0
H567 H 0.84637 0.67649 0.23609 0.0
H568 H 0.22097 0.59161 0.29876 0.0
H569 H 0.25298 0.65054 0.29875 0.0
N570 N 0.35481 0.61927 0.25847 0.0
C571 C 0.33684 0.58699 0.25746 0.0
C572 C 0.32485 0.64216 0.27264 0.0
C573 C 0.25831 0.59913 0.2872 0.0
C574 C 0.27632 0.63241 0.28731 0.0
C575 C 0.28853 0.57595 0.27213 0.0
H576 H 0.23566 0.5332 0.28285 0.0
N577 N 0.41421 0.57636 0.22807 0.0
C578 C 0.36806 0.56483 0.24221 0.0
C579 C 0.37977 0.51003 0.22378 0.0
C580 C 0.35044 0.53117 0.24084 0.0
C581 C 0.43844 0.55667 0.20944 0.0
C582 C 0.42305 0.52304 0.20757 0.0
O583 O 0.59049 0.66055 0.23942 0.0
O584 O 0.49751 0.67712 0.22754 0.0
O585 O 0.41306 0.63126 0.19264 0.0
O586 O 0.36443 0.66218 0.21987 0.0
O587 O 0.50772 0.66258 0.29259 0.0
O588 O 0.45089 0.67946 0.2576 0.0
O589 O 0.43824 0.61392 0.27557 0.0
O590 O 0.52577 0.58782 0.27783 0.0
O591 O 0.57802 0.6403 0.31951 0.0
O592 O 0.64547 0.60871 0.30406 0.0
O593 O 0.52049 0.61207 0.21636 0.0
O594 O 0.56616 0.58878 0.25183 0.0
C595 C 0.55466 0.67892 0.22556 0.0
C596 C 0.4679 0.68193 0.28199 0.0
C597 C 0.33149 0.66338 0.17496 0.0
C598 C 0.30778 0.66861 0.12879 0.0
C599 C 0.24912 0.69687 0.16113 0.0
C600 C 0.28414 0.68405 0.1809 0.0
C601 C 0.26105 0.68944 0.13523 0.0
C602 C 0.34263 0.65526 0.14877 0.0
C603 C 0.37054 0.6521 0.19606 0.0
C604 C 0.30319 0.51989 0.25592 0.0
C605 C 0.27231 0.54222 0.27151 0.0
H606 H 0.36755 0.48403 0.22213 0.0
C607 C 0.47051 0.58937 0.28397 0.0
C608 C 0.55749 0.59075 0.22658 0.0
C609 C 0.66741 0.63891 0.34235 0.0
C610 C 0.70126 0.65109 0.38647 0.0
C611 C 0.7527 0.67407 0.34917 0.0
C612 C 0.71349 0.65823 0.33243 0.0
C613 C 0.74662 0.67067 0.37601 0.0
C614 C 0.66168 0.63516 0.36944 0.0
C615 C 0.62467 0.62312 0.32468 0.0
H616 H 0.21291 0.71287 0.1659 0.0
H617 H 0.27447 0.69068 0.20083 0.0
H618 H 0.23351 0.69983 0.12016 0.0
H619 H 0.37922 0.63955 0.14386 0.0
H620 H 0.78808 0.68894 0.3413 0.0
H621 H 0.71941 0.66102 0.31177 0.0
H622 H 0.77804 0.68291 0.38862 0.0
H623 H 0.62614 0.62027 0.37723 0.0
C624 C 0.1285 0.01133 0.31018 0.0
C625 C 0.11525 0.00987 0.33689 0.0
H626 H 0.11736 0.03663 0.27404 0.0
C627 C 0.08278 0.03592 0.34781 0.0
H628 H 0.15479 0.99238 0.30108 0.0
C629 C 0.06309 0.06223 0.33231 0.0
C630 C 0.0744 0.06282 0.30542 0.0
H631 H 0.07115 0.03566 0.36819 0.0
H632 H 0.03769 0.08165 0.34134 0.0
C633 C 0.10775 0.03715 0.29464 0.0
C634 C 0.40642 0.45283 0.84858 0.0
C635 C 0.38061 0.48169 0.83845 0.0
H636 H 0.45011 0.40717 0.84036 0.0
C637 C 0.37924 0.48618 0.81131 0.0
H638 H 0.40761 0.44841 0.86935 0.0
C639 C 0.40307 0.46246 0.79471 0.0
C640 C 0.42933 0.43382 0.80485 0.0
H641 H 0.36074 0.5084 0.80282 0.0
H642 H 0.4018 0.46692 0.77394 0.0
C643 C 0.43053 0.42915 0.83195 0.0
C644 C 0.64789 0.45761 0.687 0.0
C645 C 0.61243 0.4835 0.67794 0.0
H646 H 0.65273 0.41264 0.70897 0.0
C647 C 0.55314 0.48373 0.68473 0.0
H648 H 0.69362 0.45667 0.68174 0.0
C649 C 0.53015 0.45914 0.70108 0.0
C650 C 0.56589 0.43357 0.71068 0.0
H651 H 0.52498 0.50353 0.67805 0.0
H652 H 0.48454 0.4605 0.70645 0.0
C653 C 0.62461 0.43263 0.70287 0.0
C654 C 0.85822 0.04746 0.18514 0.0
C655 C 0.8856 0.01656 0.18199 0.0
H656 H 0.86059 0.09527 0.20358 0.0
C657 C 0.93799 0.01049 0.19539 0.0
H658 H 0.81754 0.05269 0.17522 0.0
C659 C 0.96269 0.0348 0.21149 0.0
C660 C 0.93514 0.06558 0.21484 0.0
H661 H 0.96018 0.98696 0.19323 0.0
H662 H 0.00313 0.02931 0.22153 0.0
C663 C 0.88258 0.07167 0.20154 0.0
C664 C 0.85519 0.98156 0.71175 0.0
C665 C 0.87495 0.98603 0.686 0.0
H666 H 0.8625 0.95392 0.7473 0.0
C667 C 0.91712 0.96413 0.67634 0.0
H668 H 0.82198 0.99752 0.7198 0.0
C669 C 0.93912 0.93871 0.69188 0.0
C670 C 0.92048 0.93466 0.71777 0.0
H671 H 0.93443 0.96701 0.65689 0.0
H672 H 0.97182 0.92261 0.68356 0.0
C673 C 0.87803 0.95633 0.72752 0.0
C674 C 0.61134 0.54528 0.16671 0.0
C675 C 0.62801 0.51451 0.17732 0.0
H676 H 0.57662 0.59379 0.17407 0.0
C677 C 0.62187 0.50941 0.20425 0.0
H678 H 0.61594 0.5501 0.1461 0.0
C679 C 0.59997 0.53439 0.22019 0.0
C680 C 0.58332 0.56509 0.20963 0.0
H681 H 0.63301 0.4858 0.21303 0.0
H682 H 0.5949 0.52932 0.24076 0.0
C683 C 0.58921 0.57033 0.18273 0.0
C684 C 0.37374 0.54335 0.33183 0.0
C685 C 0.39598 0.51091 0.3303 0.0
H686 H 0.37981 0.59371 0.31816 0.0
C687 C 0.44227 0.50454 0.31318 0.0
H688 H 0.33774 0.54889 0.3447 0.0
C689 C 0.46648 0.53013 0.29821 0.0
C690 C 0.44432 0.56252 0.29977 0.0
H691 H 0.46051 0.47983 0.31171 0.0
H692 H 0.50231 0.52451 0.28526 0.0
C693 C 0.39752 0.5689 0.31657 0.0
C694 C 0.09634 0.99166 0.81001 0.0
C695 C 0.11179 0.98557 0.83607 0.0
H696 H 0.06181 0.97175 0.77456 0.0
C697 C 0.10346 0.95345 0.84628 0.0
H698 H 0.10107 0.01627 0.80166 0.0
C699 C 0.08104 0.92792 0.83064 0.0
C700 C 0.06668 0.93398 0.80449 0.0
H701 H 0.11541 0.94785 0.86618 0.0
H702 H 0.07592 0.90329 0.83893 0.0
C703 C 0.07394 0.96616 0.79443 0.0
C704 C 0.20568 0.16635 0.06075 0.0
C705 C 0.19947 0.13524 0.04846 0.0
H706 H 0.21295 0.19299 0.09668 0.0
C707 C 0.19182 0.10677 0.06411 0.0
H708 H 0.21007 0.18896 0.04945 0.0
C709 C 0.19237 0.10927 0.09129 0.0
C710 C 0.20126 0.1402 0.10339 0.0
H711 H 0.18748 0.08236 0.05543 0.0
H712 H 0.18812 0.08684 0.10284 0.0
C713 C 0.20701 0.16875 0.08784 0.0
C714 C 0.30351 0.42437 0.55906 0.0
C715 C 0.30902 0.39221 0.54866 0.0
H716 H 0.29596 0.4544 0.59315 0.0
C717 C 0.31417 0.3652 0.56597 0.0
H718 H 0.2988 0.44575 0.54643 0.0
C719 C 0.31236 0.37023 0.593 0.0
C720 C 0.30472 0.40233 0.60319 0.0
H721 H 0.31912 0.34014 0.55864 0.0
H722 H 0.31474 0.34894 0.60585 0.0
C723 C 0.30143 0.42933 0.58589 0.0
C724 C 0.66263 0.31309 0.96113 0.0
C725 C 0.6753 0.34549 0.96987 0.0
H726 H 0.65441 0.28028 0.92855 0.0
C727 C 0.68289 0.37091 0.95127 0.0
H728 H 0.65495 0.29308 0.97484 0.0
C729 C 0.68158 0.36356 0.9246 0.0
C730 C 0.673 0.33069 0.91611 0.0
H731 H 0.69287 0.39611 0.9573 0.0
H732 H 0.69061 0.38318 0.91069 0.0
C733 C 0.66184 0.30577 0.93461 0.0
C734 C 0.82754 0.12111 0.45539 0.0
C735 C 0.84029 0.14623 0.47366 0.0
H736 H 0.81414 0.10914 0.41503 0.0
C737 C 0.85742 0.17781 0.46452 0.0
H738 H 0.814 0.09657 0.46176 0.0
C739 C 0.8569 0.18495 0.43797 0.0
C740 C 0.84018 0.16057 0.41989 0.0
H741 H 0.86891 0.1975 0.47799 0.0
H742 H 0.86707 0.21003 0.43159 0.0
C743 C 0.8276 0.12824 0.42867 0.0
C744 C 0.73577 0.92166 0.95026 0.0
C745 C 0.76185 0.89545 0.96406 0.0
H746 H 0.71747 0.9433 0.91302 0.0
C747 C 0.79045 0.87043 0.94997 0.0
H748 H 0.71306 0.9412 0.9605 0.0
C749 C 0.79316 0.87169 0.92277 0.0
C750 C 0.76672 0.89779 0.90897 0.0
H751 H 0.8114 0.85004 0.96002 0.0
H752 H 0.81537 0.85199 0.91251 0.0
C753 C 0.73787 0.92272 0.92305 0.0
C754 C 0.70274 0.67151 0.45839 0.0
C755 C 0.69923 0.63978 0.46987 0.0
H756 H 0.70552 0.6999 0.42316 0.0
C757 C 0.69203 0.6119 0.45357 0.0
H758 H 0.70675 0.69363 0.47026 0.0
C759 C 0.6904 0.61563 0.42649 0.0
C760 C 0.69647 0.64724 0.41512 0.0
H761 H 0.6897 0.58706 0.46165 0.0
H762 H 0.68676 0.59365 0.41441 0.0
C763 C 0.70169 0.67516 0.43138 0.0
C764 C 0.331 0.68217 0.05691 0.0
C765 C 0.3259 0.64965 0.04699 0.0
H766 H 0.32921 0.71348 0.09058 0.0
C767 C 0.32125 0.62299 0.06469 0.0
H768 H 0.33633 0.70326 0.04401 0.0
C769 C 0.31855 0.62893 0.09152 0.0
C770 C 0.3198 0.66161 0.10107 0.0
H771 H 0.31683 0.59765 0.05781 0.0
H772 H 0.31247 0.60814 0.10468 0.0
C773 C 0.32741 0.68807 0.0836 0.0
C774 C 0.17921 0.85733 0.56215 0.0
C775 C 0.15455 0.83816 0.54206 0.0
H776 H 0.18878 0.86443 0.60315 0.0
C777 C 0.11657 0.81187 0.54855 0.0
H778 H 0.20905 0.87757 0.55771 0.0
C779 C 0.10389 0.80469 0.57455 0.0
C780 C 0.12963 0.82328 0.59482 0.0
H781 H 0.09627 0.79697 0.53344 0.0
H782 H 0.07365 0.78457 0.57871 0.0
C783 C 0.16726 0.84985 0.58821 0.0
C784 C 0.08179 0.24957 0.33605 0.0
C785 C 0.14131 0.24606 0.34199 0.0
H786 H 0.00823 0.23079 0.31462 0.0
C787 C 0.17165 0.21879 0.33192 0.0
H788 H 0.05752 0.27049 0.34353 0.0
C789 C 0.14331 0.19574 0.31587 0.0
C790 C 0.08451 0.20002 0.30875 0.0
H791 H 0.21742 0.21533 0.33646 0.0
H792 H 0.16772 0.17464 0.30897 0.0
C793 C 0.05372 0.2269 0.31943 0.0
C794 C 0.35255 0.27903 0.83457 0.0
C795 C 0.37746 0.24733 0.83669 0.0
H796 H 0.35771 0.32737 0.81722 0.0
C797 C 0.42879 0.24045 0.82284 0.0
H798 H 0.31273 0.28491 0.84485 0.0
C799 C 0.45444 0.26469 0.807 0.0
C800 C 0.42883 0.29614 0.80447 0.0
H801 H 0.44913 0.21628 0.82428 0.0
H802 H 0.49367 0.25859 0.79635 0.0
C803 C 0.37795 0.30318 0.81857 0.0
C804 C 0.59346 0.27516 0.66843 0.0
C805 C 0.62127 0.2475 0.6796 0.0
H806 H 0.54652 0.32031 0.67504 0.0
C807 C 0.62265 0.24464 0.70685 0.0
H808 H 0.59109 0.27802 0.64752 0.0
C809 C 0.59617 0.26837 0.72249 0.0
C810 C 0.56845 0.29602 0.7114 0.0
H811 H 0.64479 0.22416 0.71623 0.0
H812 H 0.59776 0.26502 0.74338 0.0
C813 C 0.5675 0.29925 0.68418 0.0
C814 C 0.89159 0.26059 0.20923 0.0
C815 C 0.87477 0.25199 0.18371 0.0
H816 H 0.93262 0.24512 0.2447 0.0
C817 C 0.88871 0.22009 0.17445 0.0
H818 H 0.88303 0.28511 0.21694 0.0
C819 C 0.91854 0.19751 0.19024 0.0
C820 C 0.9342 0.20608 0.21579 0.0
H821 H 0.87574 0.21224 0.15514 0.0
H822 H 0.92821 0.17305 0.18263 0.0
C823 C 0.92044 0.23779 0.22515 0.0
C824 C 0.93365 0.7448 0.68971 0.0
C825 C 0.87428 0.74732 0.68333 0.0
H826 H 0.00527 0.76502 0.7115 0.0
C827 C 0.84193 0.77401 0.69305 0.0
H828 H 0.95926 0.72424 0.6825 0.0
C829 C 0.86856 0.79788 0.70892 0.0
C830 C 0.92754 0.79494 0.71611 0.0
H831 H 0.79611 0.7765 0.6882 0.0
H832 H 0.84286 0.81866 0.71547 0.0
C833 C 0.95991 0.76821 0.7062 0.0
C834 C 0.57074 0.75166 0.17865 0.0
C835 C 0.63133 0.75233 0.17447 0.0
H836 H 0.49895 0.72837 0.19838 0.0
C837 C 0.66605 0.72801 0.18634 0.0
H838 H 0.54302 0.77024 0.16981 0.0
C839 C 0.64089 0.70379 0.20234 0.0
C840 C 0.58057 0.70378 0.20746 0.0
H841 H 0.71278 0.72765 0.18317 0.0
H842 H 0.66896 0.68506 0.21065 0.0
C843 C 0.54562 0.72775 0.19511 0.0
C844 C 0.42354 0.73189 0.34136 0.0
C845 C 0.38085 0.75309 0.33098 0.0
H846 H 0.4848 0.69308 0.33413 0.0
C847 C 0.36812 0.75114 0.30425 0.0
H848 H 0.43503 0.73303 0.36177 0.0
C849 C 0.39714 0.72856 0.28831 0.0
C850 C 0.43933 0.70708 0.29871 0.0
H851 H 0.33491 0.76671 0.29562 0.0
H852 H 0.38577 0.7277 0.26787 0.0
C853 C 0.45244 0.70916 0.32542 0.0
C854 C 0.12088 0.77442 0.84385 0.0
C855 C 0.1428 0.74524 0.83256 0.0
H856 H 0.07696 0.82049 0.83802 0.0
C857 C 0.13612 0.74068 0.80555 0.0
H858 H 0.12409 0.77869 0.86458 0.0
C859 C 0.10722 0.76433 0.79039 0.0
C860 C 0.08531 0.79335 0.8018 0.0
H861 H 0.15333 0.71888 0.79601 0.0
H862 H 0.10176 0.75979 0.76976 0.0
C863 C 0.0931 0.79829 0.82862 0.0
loop_
_geom_bond_atom_site_label_1
_geom_bond_atom_site_label_2
_geom_bond_distance
_geom_bond_site_symmetry_2
_ccdc_geom_bond_type
C0 C1 1.384 . S
C0 H13 0.947 . S
C0 C35 1.382 . S
C1 C0 1.384 . S
C1 C2 1.378 . S
C2 C1 1.378 . S
C2 C3 1.378 . S
C2 H14 0.952 . S
C3 C2 1.378 . S
C3 H15 0.950 . S
C3 C34 1.383 . S
H4 C23 0.947 . S
H5 C24 0.946 . S
H6 C26 0.953 . S
H7 C27 0.945 . S
H8 C29 0.952 . S
H9 C30 0.949 . S
H10 C32 0.950 . S
H11 C33 0.948 . S
H12 C35 0.951 . S
H13 C0 0.947 . S
H14 C2 0.952 . S
H15 C3 0.950 . S
N16 C19 1.382 . S
N16 C21 1.363 . S
N17 C19 1.371 . S
N17 C20 1.372 . S
N18 C20 1.361 . S
N18 C21 1.377 . S
C19 N16 1.382 . S
C19 N17 1.371 . S
C19 C22 1.480 . S
C20 N17 1.372 . S
C20 N18 1.361 . S
C20 C28 1.457 . S
C21 N16 1.363 . S
C21 N18 1.377 . S
C21 C34 1.479 . S
C22 C19 1.480 . S
C22 C23 1.383 . S
C22 C27 1.385 . S
C23 H4 0.947 . S
C23 C22 1.383 . S
C23 C24 1.388 . S
C24 H5 0.946 . S
C24 C23 1.388 . S
C24 C25 1.384 . S
C25 C24 1.384 . S
C25 C26 1.377 . S
C26 H6 0.953 . S
C26 C25 1.377 . S
C26 C27 1.369 . S
C27 H7 0.945 . S
C27 C22 1.385 . S
C27 C26 1.369 . S
C28 C20 1.457 . S
C28 C29 1.372 . S
C28 C33 1.364 . S
C29 H8 0.952 . S
C29 C28 1.372 . S
C29 C30 1.389 . S
C30 H9 0.949 . S
C30 C29 1.389 . S
C30 C31 1.387 . S
C31 C30 1.387 . S
C31 C32 1.372 . S
C32 H10 0.950 . S
C32 C31 1.372 . S
C32 C33 1.379 . S
C33 H11 0.948 . S
C33 C28 1.364 . S
C33 C32 1.379 . S
C34 C3 1.383 . S
C34 C21 1.479 . S
C34 C35 1.398 . S
C35 C0 1.382 . S
C35 H12 0.951 . S
C35 C34 1.398 . S
C36 C37 1.384 1_556 S
C36 H49 0.947 . S
C36 C71 1.382 . S
C37 C36 1.384 1_554 S
C37 C38 1.378 1_554 S
C38 C37 1.378 1_556 S
C38 C39 1.378 . S
C38 H50 0.929 1_556 S
C39 C38 1.378 . S
C39 H51 0.950 . S
C39 C70 1.383 . S
H40 C59 0.947 . S
H41 C60 0.946 . S
H42 C62 0.953 . S
H43 C63 0.945 . S
H44 C65 0.952 . S
H45 C66 0.949 . S
H46 C68 0.950 1_565 S
H47 C69 0.948 . S
H48 C71 0.951 . S
H49 C36 0.947 . S
H50 C38 0.929 1_554 S
H51 C39 0.950 . S
N52 C55 1.382 . S
N52 C57 1.363 . S
N53 C55 1.371 . S
N53 C56 1.372 . S
N54 C56 1.361 . S
N54 C57 1.377 . S
C55 N52 1.382 . S
C55 N53 1.371 . S
C55 C58 1.480 . S
C56 N53 1.372 . S
C56 N54 1.361 . S
C56 C64 1.457 . S
C57 N52 1.363 . S
C57 N54 1.377 . S
C57 C70 1.479 . S
C58 C55 1.480 . S
C58 C59 1.383 . S
C58 C63 1.385 . S
C59 H40 0.947 . S
C59 C58 1.383 . S
C59 C60 1.388 . S
C60 H41 0.946 . S
C60 C59 1.388 . S
C60 C61 1.384 . S
C61 C60 1.384 . S
C61 C62 1.377 . S
C62 H42 0.953 . S
C62 C61 1.377 . S
C62 C63 1.369 . S
C63 H43 0.945 . S
C63 C58 1.385 . S
C63 C62 1.369 . S
C64 C56 1.457 . S
C64 C65 1.372 . S
C64 C69 1.364 . S
C65 H44 0.952 . S
C65 C64 1.372 . S
C65 C66 1.389 . S
C66 H45 0.949 . S
C66 C65 1.389 . S
C66 C67 1.387 . S
C67 C66 1.387 . S
C67 C68 1.372 . S
C68 H46 0.950 1_545 S
C68 C67 1.372 . S
C68 C69 1.379 . S
C69 H47 0.948 . S
C69 C64 1.364 . S
C69 C68 1.379 . S
C70 C39 1.383 . S
C70 C57 1.479 . S
C70 C71 1.398 . S
C71 C36 1.382 . S
C71 H48 0.951 . S
C71 C70 1.398 . S
C72 C73 1.384 . S
C72 H85 0.947 . S
C72 C107 1.382 . S
C73 C72 1.384 . S
C73 C74 1.378 . S
C74 C73 1.378 . S
C74 C75 1.378 . S
C74 H86 0.952 . S
C75 C74 1.378 . S
C75 H87 0.950 . S
C75 C106 1.383 . S
H76 C95 0.947 . S
H77 C96 0.946 . S
H78 C98 0.953 . S
H79 C99 0.945 . S
H80 C101 0.952 . S
H81 C102 0.949 . S
H82 C104 0.950 1_565 S
H83 C105 0.948 . S
H84 C107 0.951 . S
H85 C72 0.947 . S
H86 C74 0.952 . S
H87 C75 0.950 . S
N88 C91 1.382 . S
N88 C93 1.363 . S
N89 C91 1.371 . S
N89 C92 1.372 . S
N90 C92 1.361 . S
N90 C93 1.377 . S
C91 N88 1.382 . S
C91 N89 1.371 . S
C91 C94 1.480 . S
C92 N89 1.372 . S
C92 N90 1.361 . S
C92 C100 1.457 . S
C93 N88 1.363 . S
C93 N90 1.377 . S
C93 C106 1.479 . S
C94 C91 1.480 . S
C94 C95 1.383 . S
C94 C99 1.385 . S
C95 H76 0.947 . S
C95 C94 1.383 . S
C95 C96 1.388 . S
C96 H77 0.946 . S
C96 C95 1.388 . S
C96 C97 1.384 . S
C97 C96 1.384 . S
C97 C98 1.377 . S
C98 H78 0.953 . S
C98 C97 1.377 . S
C98 C99 1.369 . S
C99 H79 0.945 . S
C99 C94 1.385 . S
C99 C98 1.369 . S
C100 C92 1.457 . S
C100 C101 1.372 . S
C100 C105 1.364 . S
C101 H80 0.952 . S
C101 C100 1.372 . S
C101 C102 1.389 . S
C102 H81 0.949 . S
C102 C101 1.389 . S
C102 C103 1.387 . S
C103 C102 1.387 . S
C103 C104 1.372 . S
C104 H82 0.950 1_545 S
C104 C103 1.372 . S
C104 C105 1.379 . S
C105 H83 0.948 . S
C105 C100 1.364 . S
C105 C104 1.379 . S
C106 C75 1.383 . S
C106 C93 1.479 . S
C106 C107 1.398 . S
C107 C72 1.382 . S
C107 H84 0.951 . S
C107 C106 1.398 . S
C108 C109 1.380 1_554 S
C108 H121 0.947 . S
C108 C143 1.382 . S
C109 C108 1.380 1_556 S
C109 C110 1.375 1_556 S
C110 C109 1.375 1_554 S
C110 C111 1.378 . S
C110 H122 0.952 . S
C111 C110 1.378 . S
C111 H123 0.950 . S
C111 C142 1.383 . S
H112 C131 0.947 . S
H113 C132 0.946 . S
H114 C134 0.953 . S
H115 C135 0.945 . S
H116 C137 0.952 . S
H117 C138 0.949 . S
H118 C140 0.950 . S
H119 C141 0.948 . S
H120 C143 0.951 . S
H121 C108 0.947 . S
H122 C110 0.952 . S
H123 C111 0.950 . S
N124 C127 1.382 . S
N124 C129 1.363 . S
N125 C127 1.371 . S
N125 C128 1.372 . S
N126 C128 1.361 . S
N126 C129 1.377 . S
C127 N124 1.382 . S
C127 N125 1.371 . S
C127 C130 1.480 . S
C128 N125 1.372 . S
C128 N126 1.361 . S
C128 C136 1.457 . S
C129 N124 1.363 . S
C129 N126 1.377 . S
C129 C142 1.479 . S
C130 C127 1.480 . S
C130 C131 1.383 . S
C130 C135 1.385 . S
C131 H112 0.947 . S
C131 C130 1.383 . S
C131 C132 1.388 . S
C132 H113 0.946 . S
C132 C131 1.388 . S
C132 C133 1.384 . S
C133 C132 1.384 . S
C133 C134 1.377 . S
C134 H114 0.953 . S
C134 C133 1.377 . S
C134 C135 1.369 . S
C135 H115 0.945 . S
C135 C130 1.385 . S
C135 C134 1.369 . S
C136 C128 1.457 . S
C136 C137 1.372 . S
C136 C141 1.364 . S
C137 H116 0.952 . S
C137 C136 1.372 . S
C137 C138 1.389 . S
C138 H117 0.949 . S
C138 C137 1.389 . S
C138 C139 1.387 . S
C139 C138 1.387 . S
C139 C140 1.372 . S
C140 H118 0.950 . S
C140 C139 1.372 . S
C140 C141 1.379 . S
C141 H119 0.948 . S
C141 C136 1.364 . S
C141 C140 1.379 . S
C142 C111 1.383 . S
C142 C129 1.479 . S
C142 C143 1.398 . S
C143 C108 1.382 . S
C143 H120 0.951 . S
C143 C142 1.398 . S
C144 C145 1.384 . S
C144 H157 0.947 . S
C144 C179 1.382 . S
C145 C144 1.384 . S
C145 C146 1.378 . S
C146 C145 1.378 . S
C146 C147 1.378 . S
C146 H158 0.952 . S
C147 C146 1.378 . S
C147 H159 0.950 . S
C147 C178 1.383 . S
H148 C167 0.947 . S
H149 C168 0.946 . S
H150 C170 0.953 . S
H151 C171 0.945 . S
H152 C173 0.952 . S
H153 C174 0.949 . S
H154 C176 0.950 . S
H155 C177 0.948 . S
H156 C179 0.951 . S
H157 C144 0.947 . S
H158 C146 0.952 . S
H159 C147 0.950 . S
N160 C163 1.382 . S
N160 C165 1.363 . S
N161 C163 1.371 . S
N161 C164 1.372 . S
N162 C164 1.361 . S
N162 C165 1.377 . S
C163 N160 1.382 . S
C163 N161 1.371 . S
C163 C166 1.480 . S
C164 N161 1.372 . S
C164 N162 1.361 . S
C164 C172 1.457 . S
C165 N160 1.363 . S
C165 N162 1.377 . S
C165 C178 1.479 . S
C166 C163 1.480 . S
C166 C167 1.383 . S
C166 C171 1.385 . S
C167 H148 0.947 . S
C167 C166 1.383 . S
C167 C168 1.388 . S
C168 H149 0.946 . S
C168 C167 1.388 . S
C168 C169 1.384 . S
C169 C168 1.384 . S
C169 C170 1.377 . S
C170 H150 0.953 . S
C170 C169 1.377 . S
C170 C171 1.369 . S
C171 H151 0.945 . S
C171 C166 1.385 . S
C171 C170 1.369 . S
C172 C164 1.457 . S
C172 C173 1.372 . S
C172 C177 1.364 . S
C173 H152 0.952 . S
C173 C172 1.372 . S
C173 C174 1.389 . S
C174 H153 0.949 . S
C174 C173 1.389 . S
C174 C175 1.387 . S
C175 C174 1.387 . S
C175 C176 1.372 . S
C176 H154 0.950 . S
C176 C175 1.372 . S
C176 C177 1.379 . S
C177 H155 0.948 . S
C177 C172 1.364 . S
C177 C176 1.379 . S
C178 C147 1.383 . S
C178 C165 1.479 . S
C178 C179 1.398 . S
C179 C144 1.382 . S
C179 H156 0.951 . S
C179 C178 1.398 . S
C180 C181 1.384 1_554 S
C180 H193 0.947 . S
C180 C215 1.382 . S
C181 C180 1.384 1_556 S
C181 C182 1.378 1_556 S
C182 C181 1.378 1_554 S
C182 C183 1.378 . S
C182 H194 0.952 1_554 S
C183 C182 1.378 . S
C183 H195 0.950 . S
C183 C214 1.383 . S
H184 C203 0.947 . S
H185 C204 0.946 . S
H186 C206 0.953 . S
H187 C207 0.945 . S
H188 C209 0.952 . S
H189 C210 0.949 . S
H190 C212 0.950 1_545 S
H191 C213 0.948 . S
H192 C215 0.951 . S
H193 C180 0.947 . S
H194 C182 0.952 1_556 S
H195 C183 0.950 . S
N196 C199 1.382 . S
N196 C201 1.363 . S
N197 C199 1.371 . S
N197 C200 1.372 . S
N198 C200 1.361 . S
N198 C201 1.377 . S
C199 N196 1.382 . S
C199 N197 1.371 . S
C199 C202 1.480 . S
C200 N197 1.372 . S
C200 N198 1.361 . S
C200 C208 1.457 . S
C201 N196 1.363 . S
C201 N198 1.377 . S
C201 C214 1.479 . S
C202 C199 1.480 . S
C202 C203 1.383 . S
C202 C207 1.385 . S
C203 H184 0.947 . S
C203 C202 1.383 . S
C203 C204 1.388 . S
C204 H185 0.946 . S
C204 C203 1.388 . S
C204 C205 1.384 . S
C205 C204 1.384 . S
C205 C206 1.377 . S
C206 H186 0.953 . S
C206 C205 1.377 . S
C206 C207 1.369 . S
C207 H187 0.945 . S
C207 C202 1.385 . S
C207 C206 1.369 . S
C208 C200 1.457 . S
C208 C209 1.372 . S
C208 C213 1.364 . S
C209 H188 0.952 . S
C209 C208 1.372 . S
C209 C210 1.389 . S
C210 H189 0.949 . S
C210 C209 1.389 . S
C210 C211 1.387 . S
C211 C210 1.387 . S
C211 C212 1.372 . S
C212 H190 0.950 1_565 S
C212 C211 1.372 . S
C212 C213 1.379 . S
C213 H191 0.948 . S
C213 C208 1.364 . S
C213 C212 1.379 . S
C214 C183 1.383 . S
C214 C201 1.479 . S
C214 C215 1.398 . S
C215 C180 1.382 . S
C215 H192 0.951 . S
C215 C214 1.398 . S
C216 C217 1.384 . S
C216 H229 0.947 . S
C216 C251 1.382 . S
C217 C216 1.384 . S
C217 C218 1.378 . S
C218 C217 1.378 . S
C218 C219 1.378 . S
C218 H230 0.952 . S
C219 C218 1.378 . S
C219 H231 0.950 . S
C219 C250 1.383 . S
H220 C239 0.947 . S
H221 C240 0.946 . S
H222 C242 0.953 . S
H223 C243 0.945 . S
H224 C245 0.952 . S
H225 C246 0.949 . S
H226 C248 0.950 1_545 S
H227 C249 0.948 . S
H228 C251 0.951 . S
H229 C216 0.947 . S
H230 C218 0.952 . S
H231 C219 0.950 . S
N232 C235 1.382 . S
N232 C237 1.363 . S
N233 C235 1.371 . S
N233 C236 1.372 . S
N234 C236 1.361 . S
N234 C237 1.377 . S
C235 N232 1.382 . S
C235 N233 1.371 . S
C235 C238 1.480 . S
C236 N233 1.372 . S
C236 N234 1.361 . S
C236 C244 1.457 . S
C237 N232 1.363 . S
C237 N234 1.377 . S
C237 C250 1.479 . S
C238 C235 1.480 . S
C238 C239 1.383 . S
C238 C243 1.385 . S
C239 H220 0.947 . S
C239 C238 1.383 . S
C239 C240 1.388 . S
C240 H221 0.946 . S
C240 C239 1.388 . S
C240 C241 1.384 . S
C241 C240 1.384 . S
C241 C242 1.377 . S
C242 H222 0.953 . S
C242 C241 1.377 . S
C242 C243 1.369 . S
C243 H223 0.945 . S
C243 C238 1.385 . S
C243 C242 1.369 . S
C244 C236 1.457 . S
C244 C245 1.372 . S
C244 C249 1.364 . S
C245 H224 0.952 . S
C245 C244 1.372 . S
C245 C246 1.389 . S
C246 H225 0.949 . S
C246 C245 1.389 . S
C246 C247 1.387 . S
C247 C246 1.387 . S
C247 C248 1.372 . S
C248 H226 0.950 1_565 S
C248 C247 1.372 . S
C248 C249 1.379 . S
C249 H227 0.948 . S
C249 C244 1.364 . S
C249 C248 1.379 . S
C250 C219 1.383 . S
C250 C237 1.479 . S
C250 C251 1.398 . S
C251 C216 1.382 . S
C251 H228 0.951 . S
C251 C250 1.398 . S
C252 C253 1.361 1_556 S
C252 H265 0.947 . S
C252 C287 1.382 . S
C253 C252 1.361 1_554 S
C253 C254 1.361 1_554 S
C254 C253 1.361 1_556 S
C254 C255 1.378 . S
C254 H266 0.967 . S
C255 C254 1.378 . S
C255 H267 0.950 . S
C255 C286 1.383 . S
H256 C275 0.947 . S
H257 C276 0.946 . S
H258 C278 0.953 . S
H259 C279 0.945 . S
H260 C281 0.952 . S
H261 C282 0.949 . S
H262 C284 0.950 . S
H263 C285 0.948 . S
H264 C287 0.951 . S
H265 C252 0.947 . S
H266 C254 0.967 . S
H267 C255 0.950 . S
N268 C271 1.382 . S
N268 C273 1.363 . S
N269 C271 1.371 . S
N269 C272 1.372 . S
N270 C272 1.361 . S
N270 C273 1.377 . S
C271 N268 1.382 . S
C271 N269 1.371 . S
C271 C274 1.480 . S
C272 N269 1.372 . S
C272 N270 1.361 . S
C272 C280 1.457 . S
C273 N268 1.363 . S
C273 N270 1.377 . S
C273 C286 1.479 . S
C274 C271 1.480 . S
C274 C275 1.383 . S
C274 C279 1.385 . S
C275 H256 0.947 . S
C275 C274 1.383 . S
C275 C276 1.388 . S
C276 H257 0.946 . S
C276 C275 1.388 . S
C276 C277 1.384 . S
C277 C276 1.384 . S
C277 C278 1.377 . S
C278 H258 0.953 . S
C278 C277 1.377 . S
C278 C279 1.369 . S
C279 H259 0.945 . S
C279 C274 1.385 . S
C279 C278 1.369 . S
C280 C272 1.457 . S
C280 C281 1.372 . S
C280 C285 1.364 . S
C281 H260 0.952 . S
C281 C280 1.372 . S
C281 C282 1.389 . S
C282 H261 0.949 . S
C282 C281 1.389 . S
C282 C283 1.387 . S
C283 C282 1.387 . S
C283 C284 1.372 . S
C284 H262 0.950 . S
C284 C283 1.372 . S
C284 C285 1.379 . S
C285 H263 0.948 . S
C285 C280 1.364 . S
C285 C284 1.379 . S
C286 C255 1.383 . S
C286 C273 1.479 . S
C286 C287 1.398 . S
C287 C252 1.382 . S
C287 H264 0.951 . S
C287 C286 1.398 . S
C288 C290 1.422 . S
C288 C292 1.415 . S
C288 N294 1.369 . S
C289 C290 1.421 . S
C289 C291 1.417 . S
C289 C301 1.422 . S
C290 C288 1.422 . S
C290 C289 1.421 . S
C290 N300 1.359 . S
C291 C289 1.417 . S
C291 C293 1.329 . S
C291 H310 0.930 . S
C292 C288 1.415 . S
C292 C293 1.437 . S
C292 C296 1.413 . S
C293 C291 1.329 . S
C293 C292 1.437 . S
C293 H315 0.929 . S
N294 C288 1.369 . S
N294 C295 1.338 . S
N294 Gd299 2.622 . S
C295 N294 1.338 . S
C295 C297 1.378 . S
C295 H307 0.929 . S
C296 C292 1.413 . S
C296 C297 1.348 . S
C296 H312 0.931 . S
C297 C295 1.378 . S
C297 C296 1.348 . S
C297 H313 0.930 . S
Gd298 N318 2.622 . S
Gd298 N325 2.570 . S
Gd298 O332 2.361 . S
Gd298 O333 2.468 . S
Gd298 O334 2.427 . S
Gd298 O336 2.388 . S
Gd298 O337 2.386 . S
Gd298 O341 2.298 1_455 S
Gd298 C351 2.805 . S
Gd299 N294 2.622 . S
Gd299 N300 2.570 . S
Gd299 O331 2.386 . S
Gd299 O335 2.307 1_655 S
Gd299 O338 2.353 1_655 S
Gd299 O339 2.468 . S
Gd299 O340 2.427 . S
Gd299 O342 2.388 . S
Gd299 C363 2.805 . S
N300 C290 1.359 . S
N300 Gd299 2.570 . S
N300 C302 1.343 . S
C301 C289 1.422 . S
C301 C303 1.321 . S
C301 H309 0.931 . S
C302 N300 1.343 . S
C302 C303 1.390 . S
C302 H304 0.931 . S
C303 C301 1.321 . S
C303 C302 1.390 . S
C303 H305 0.930 . S
H304 C302 0.931 . S
H305 C303 0.930 . S
H306 C329 0.931 . S
H307 C295 0.929 . S
H308 C330 0.930 . S
H309 C301 0.931 . S
H310 C291 0.930 . S
H311 C320 0.929 . S
H312 C296 0.931 . S
H313 C297 0.930 . S
H314 C352 0.930 . S
H315 C293 0.929 . S
H316 C321 0.931 . S
H317 C322 0.930 . S
N318 Gd298 2.622 . S
N318 C319 1.369 . S
N318 C320 1.338 . S
C319 N318 1.369 . S
C319 C323 1.415 . S
C319 C326 1.422 . S
C320 H311 0.929 . S
C320 N318 1.338 . S
C320 C322 1.378 . S
C321 H316 0.931 . S
C321 C322 1.348 . S
C321 C323 1.413 . S
C322 H317 0.930 . S
C322 C320 1.378 . S
C322 C321 1.348 . S
C323 C319 1.415 . S
C323 C321 1.413 . S
C323 C353 1.437 . S
H324 C353 0.929 . S
N325 Gd298 2.570 . S
N325 C326 1.359 . S
N325 C329 1.343 . S
C326 C319 1.422 . S
C326 N325 1.359 . S
C326 C328 1.421 . S
C327 C328 1.422 . S
C327 C330 1.321 . S
C327 H354 0.931 . S
C328 C326 1.421 . S
C328 C327 1.422 . S
C328 C352 1.417 . S
C329 H306 0.931 . S
C329 N325 1.343 . S
C329 C330 1.390 . S
C330 H308 0.930 . S
C330 C327 1.321 . S
C330 C329 1.390 . S
O331 Gd299 2.386 . S
O331 C343 1.265 . S
O332 Gd298 2.361 . S
O332 C343 1.232 1_455 S
O333 Gd298 2.468 . S
O333 C351 1.263 . S
O334 Gd298 2.427 . S
O334 C351 1.252 . S
O335 Gd299 2.307 1_455 S
O335 C344 1.261 . S
O336 Gd298 2.388 . S
O336 C344 1.252 . S
O337 Gd298 2.386 . S
O337 C355 1.265 . S
O338 Gd299 2.353 1_455 S
O338 C355 1.242 . S
O339 Gd299 2.468 . S
O339 C363 1.263 . S
O340 Gd299 2.427 . S
O340 C363 1.252 . S
O341 Gd298 2.298 1_655 S
O341 C356 1.272 . S
O342 Gd299 2.388 . S
O342 C356 1.252 . S
C343 O331 1.265 . S
C343 O332 1.232 1_655 S
C344 O335 1.261 . S
C344 O336 1.252 . S
C345 C348 1.394 . S
C345 C350 1.370 . S
C345 C351 1.500 . S
C346 C349 1.383 . S
C346 C350 1.395 . S
C347 C348 1.396 . S
C347 C349 1.365 . S
C347 H364 0.929 . S
C348 C345 1.394 . S
C348 C347 1.396 . S
C348 H365 0.930 . S
C349 C346 1.383 . S
C349 C347 1.365 . S
C349 H366 0.931 . S
C350 C345 1.370 . S
C350 C346 1.395 . S
C350 H367 0.930 . S
C351 Gd298 2.805 . S
C351 O333 1.263 . S
C351 O334 1.252 . S
C351 C345 1.500 . S
C352 H314 0.930 . S
C352 C328 1.417 . S
C352 C353 1.329 . S
C353 C323 1.437 . S
C353 H324 0.929 . S
C353 C352 1.329 . S
H354 C327 0.931 . S
C355 O337 1.265 . S
C355 O338 1.242 . S
C356 O341 1.272 . S
C356 O342 1.252 . S
C357 C360 1.394 . S
C357 C362 1.370 . S
C357 C363 1.500 . S
C358 C361 1.383 . S
C358 C362 1.395 . S
C359 C360 1.396 . S
C359 C361 1.365 . S
C359 H368 0.929 . S
C360 C357 1.394 . S
C360 C359 1.396 . S
C360 H369 0.930 . S
C361 C358 1.383 . S
C361 C359 1.365 . S
C361 H370 0.931 . S
C362 C357 1.370 . S
C362 C358 1.395 . S
C362 H371 0.930 . S
C363 Gd299 2.805 . S
C363 O339 1.263 . S
C363 O340 1.252 . S
C363 C357 1.500 . S
H364 C347 0.929 . S
H365 C348 0.930 . S
H366 C349 0.931 . S
H367 C350 0.930 . S
H368 C359 0.929 . S
H369 C360 0.930 . S
H370 C361 0.931 . S
H371 C362 0.930 . S
C372 C374 1.422 . S
C372 C376 1.415 . S
C372 N378 1.369 . S
C373 C374 1.421 . S
C373 C375 1.417 . S
C373 C385 1.422 . S
C374 C372 1.422 . S
C374 C373 1.421 . S
C374 N384 1.359 . S
C375 C373 1.417 . S
C375 C377 1.329 . S
C375 H394 0.930 . S
C376 C372 1.415 . S
C376 C377 1.437 . S
C376 C380 1.413 . S
C377 C375 1.329 . S
C377 C376 1.437 . S
C377 H399 0.929 . S
N378 C372 1.369 . S
N378 C379 1.338 . S
N378 Gd383 2.622 . S
C379 N378 1.338 . S
C379 C381 1.378 . S
C379 H391 0.929 . S
C380 C376 1.413 . S
C380 C381 1.348 . S
C380 H396 0.931 . S
C381 C379 1.378 . S
C381 C380 1.348 . S
C381 H397 0.930 . S
Gd382 N402 2.622 . S
Gd382 N409 2.570 . S
Gd382 O416 2.353 . S
Gd382 O417 2.468 . S
Gd382 O418 2.427 . S
Gd382 O420 2.388 . S
Gd382 O421 2.386 . S
Gd382 O425 2.307 . S
Gd382 C435 2.805 . S
Gd383 N378 2.622 . S
Gd383 N384 2.570 . S
Gd383 O415 2.386 . S
Gd383 O419 2.307 . S
Gd383 O422 2.353 . S
Gd383 O423 2.468 . S
Gd383 O424 2.427 . S
Gd383 O426 2.388 . S
Gd383 C447 2.805 . S
N384 C374 1.359 . S
N384 Gd383 2.570 . S
N384 C386 1.343 . S
C385 C373 1.422 . S
C385 C387 1.321 . S
C385 H393 0.931 . S
C386 N384 1.343 . S
C386 C387 1.390 . S
C386 H388 0.931 . S
C387 C385 1.321 . S
C387 C386 1.390 . S
C387 H389 0.930 . S
H388 C386 0.931 . S
H389 C387 0.930 . S
H390 C413 0.931 . S
H391 C379 0.929 . S
H392 C414 0.930 . S
H393 C385 0.931 . S
H394 C375 0.930 . S
H395 C404 0.929 . S
H396 C380 0.931 . S
H397 C381 0.930 . S
H398 C436 0.930 . S
H399 C377 0.929 . S
H400 C405 0.931 . S
H401 C406 0.930 . S
N402 Gd382 2.622 . S
N402 C403 1.369 . S
N402 C404 1.338 . S
C403 N402 1.369 . S
C403 C407 1.415 . S
C403 C410 1.422 . S
C404 H395 0.929 . S
C404 N402 1.338 . S
C404 C406 1.378 . S
C405 H400 0.931 . S
C405 C406 1.348 . S
C405 C407 1.413 . S
C406 H401 0.930 . S
C406 C404 1.378 . S
C406 C405 1.348 . S
C407 C403 1.415 . S
C407 C405 1.413 . S
C407 C437 1.437 . S
H408 C437 0.929 . S
N409 Gd382 2.570 . S
N409 C410 1.359 . S
N409 C413 1.343 . S
C410 C403 1.422 . S
C410 N409 1.359 . S
C410 C412 1.421 . S
C411 C412 1.422 . S
C411 C414 1.321 . S
C411 H438 0.931 . S
C412 C410 1.421 . S
C412 C411 1.422 . S
C412 C436 1.417 . S
C413 H390 0.931 . S
C413 N409 1.343 . S
C413 C414 1.390 . S
C414 H392 0.930 . S
C414 C411 1.321 . S
C414 C413 1.390 . S
O415 Gd383 2.386 . S
O415 C427 1.265 . S
O416 Gd382 2.353 . S
O416 C427 1.242 . S
O417 Gd382 2.468 . S
O417 C435 1.263 . S
O418 Gd382 2.427 . S
O418 C435 1.252 . S
O419 Gd383 2.307 . S
O419 C428 1.261 . S
O420 Gd382 2.388 . S
O420 C428 1.252 . S
O421 Gd382 2.386 . S
O421 C439 1.265 . S
O422 Gd383 2.353 . S
O422 C439 1.242 . S
O423 Gd383 2.468 . S
O423 C447 1.263 . S
O424 Gd383 2.427 . S
O424 C447 1.252 . S
O425 Gd382 2.307 . S
O425 C440 1.261 . S
O426 Gd383 2.388 . S
O426 C440 1.252 . S
C427 O415 1.265 . S
C427 O416 1.242 . S
C428 O419 1.261 . S
C428 O420 1.252 . S
C429 C432 1.394 . S
C429 C434 1.370 . S
C429 C435 1.500 . S
C430 C433 1.383 . S
C430 C434 1.395 . S
C431 C432 1.396 . S
C431 C433 1.365 . S
C431 H448 0.929 . S
C432 C429 1.394 . S
C432 C431 1.396 . S
C432 H449 0.930 . S
C433 C430 1.383 . S
C433 C431 1.365 . S
C433 H450 0.931 . S
C434 C429 1.370 . S
C434 C430 1.395 . S
C434 H451 0.930 . S
C435 Gd382 2.805 . S
C435 O417 1.263 . S
C435 O418 1.252 . S
C435 C429 1.500 . S
C436 H398 0.930 . S
C436 C412 1.417 . S
C436 C437 1.329 . S
C437 C407 1.437 . S
C437 H408 0.929 . S
C437 C436 1.329 . S
H438 C411 0.931 . S
C439 O421 1.265 . S
C439 O422 1.242 . S
C440 O425 1.261 . S
C440 O426 1.252 . S
C441 C444 1.394 . S
C441 C446 1.370 . S
C441 C447 1.500 . S
C442 C445 1.383 . S
C442 C446 1.395 . S
C443 C444 1.396 . S
C443 C445 1.365 . S
C443 H452 0.929 . S
C444 C441 1.394 . S
C444 C443 1.396 . S
C444 H453 0.930 . S
C445 C442 1.383 . S
C445 C443 1.365 . S
C445 H454 0.931 . S
C446 C441 1.370 . S
C446 C442 1.395 . S
C446 H455 0.930 . S
C447 Gd383 2.805 . S
C447 O423 1.263 . S
C447 O424 1.252 . S
C447 C441 1.500 . S
H448 C431 0.929 . S
H449 C432 0.930 . S
H450 C433 0.931 . S
H451 C434 0.930 . S
H452 C443 0.929 . S
H453 C444 0.930 . S
H454 C445 0.931 . S
H455 C446 0.930 . S
C456 C458 1.422 . S
C456 C460 1.415 . S
C456 N462 1.369 . S
C457 C458 1.421 . S
C457 C459 1.417 . S
C457 C469 1.422 . S
C458 C456 1.422 . S
C458 C457 1.421 . S
C458 N468 1.359 . S
C459 C457 1.417 . S
C459 C461 1.329 . S
C459 H478 0.930 . S
C460 C456 1.415 . S
C460 C461 1.437 . S
C460 C464 1.413 . S
C461 C459 1.329 . S
C461 C460 1.437 . S
C461 H483 0.929 . S
N462 C456 1.369 . S
N462 C463 1.338 . S
N462 Gd467 2.622 . S
C463 N462 1.338 . S
C463 C465 1.378 . S
C463 H475 0.929 . S
C464 C460 1.413 . S
C464 C465 1.348 . S
C464 H480 0.931 . S
C465 C463 1.378 . S
C465 C464 1.348 . S
C465 H481 0.930 . S
Gd466 N486 2.622 . S
Gd466 N493 2.570 . S
Gd466 O500 2.353 . S
Gd466 O501 2.468 . S
Gd466 O502 2.427 . S
Gd466 O504 2.388 . S
Gd466 O505 2.386 . S
Gd466 O509 2.307 . S
Gd466 C519 2.805 . S
Gd467 N462 2.622 . S
Gd467 N468 2.570 . S
Gd467 O499 2.386 . S
Gd467 O503 2.307 1_655 S
Gd467 O506 2.353 1_655 S
Gd467 O507 2.468 . S
Gd467 O508 2.427 . S
Gd467 O510 2.388 . S
Gd467 C531 2.805 . S
N468 C458 1.359 . S
N468 Gd467 2.570 . S
N468 C470 1.343 . S
C469 C457 1.422 . S
C469 C471 1.321 . S
C469 H477 0.931 . S
C470 N468 1.343 . S
C470 C471 1.390 . S
C470 H472 0.931 . S
C471 C469 1.321 . S
C471 C470 1.390 . S
C471 H473 0.930 . S
H472 C470 0.931 . S
H473 C471 0.930 . S
H474 C497 0.931 . S
H475 C463 0.929 . S
H476 C498 0.930 . S
H477 C469 0.931 . S
H478 C459 0.930 . S
H479 C488 0.929 . S
H480 C464 0.931 . S
H481 C465 0.930 . S
H482 C520 0.930 . S
H483 C461 0.929 . S
H484 C489 0.931 . S
H485 C490 0.930 . S
N486 Gd466 2.622 . S
N486 C487 1.369 . S
N486 C488 1.338 . S
C487 N486 1.369 . S
C487 C491 1.415 . S
C487 C494 1.422 . S
C488 H479 0.929 . S
C488 N486 1.338 . S
C488 C490 1.378 . S
C489 H484 0.931 . S
C489 C490 1.348 . S
C489 C491 1.413 . S
C490 H485 0.930 . S
C490 C488 1.378 . S
C490 C489 1.348 . S
C491 C487 1.415 . S
C491 C489 1.413 . S
C491 C521 1.437 . S
H492 C521 0.929 . S
N493 Gd466 2.570 . S
N493 C494 1.359 . S
N493 C497 1.343 . S
C494 C487 1.422 . S
C494 N493 1.359 . S
C494 C496 1.421 . S
C495 C496 1.422 . S
C495 C498 1.321 . S
C495 H522 0.931 . S
C496 C494 1.421 . S
C496 C495 1.422 . S
C496 C520 1.417 . S
C497 H474 0.931 . S
C497 N493 1.343 . S
C497 C498 1.390 . S
C498 H476 0.930 . S
C498 C495 1.321 . S
C498 C497 1.390 . S
O499 Gd467 2.386 . S
O499 C511 1.265 . S
O500 Gd466 2.353 . S
O500 C511 1.242 1_455 S
O501 Gd466 2.468 . S
O501 C519 1.263 . S
O502 Gd466 2.427 . S
O502 C519 1.252 . S
O503 Gd467 2.307 1_455 S
O503 C512 1.261 . S
O504 Gd466 2.388 . S
O504 C512 1.252 . S
O505 Gd466 2.386 . S
O505 C523 1.265 . S
O506 Gd467 2.353 1_455 S
O506 C523 1.242 . S
O507 Gd467 2.468 . S
O507 C531 1.263 . S
O508 Gd467 2.427 . S
O508 C531 1.252 . S
O509 Gd466 2.307 . S
O509 C524 1.261 1_455 S
O510 Gd467 2.388 . S
O510 C524 1.252 . S
C511 O499 1.265 . S
C511 O500 1.242 1_655 S
C512 O503 1.261 . S
C512 O504 1.252 . S
C513 C516 1.394 . S
C513 C518 1.370 . S
C513 C519 1.500 . S
C514 C517 1.383 . S
C514 C518 1.395 . S
C515 C516 1.396 . S
C515 C517 1.365 . S
C515 H532 0.929 . S
C516 C513 1.394 . S
C516 C515 1.396 . S
C516 H533 0.930 . S
C517 C514 1.383 . S
C517 C515 1.365 . S
C517 H534 0.931 . S
C518 C513 1.370 . S
C518 C514 1.395 . S
C518 H535 0.930 . S
C519 Gd466 2.805 . S
C519 O501 1.263 . S
C519 O502 1.252 . S
C519 C513 1.500 . S
C520 H482 0.930 . S
C520 C496 1.417 . S
C520 C521 1.329 . S
C521 C491 1.437 . S
C521 H492 0.929 . S
C521 C520 1.329 . S
H522 C495 0.931 . S
C523 O505 1.265 . S
C523 O506 1.242 . S
C524 O509 1.261 1_655 S
C524 O510 1.252 . S
C525 C528 1.394 . S
C525 C530 1.370 . S
C525 C531 1.500 . S
C526 C529 1.383 . S
C526 C530 1.395 . S
C527 C528 1.396 . S
C527 C529 1.365 . S
C527 H536 0.929 . S
C528 C525 1.394 . S
C528 C527 1.396 . S
C528 H537 0.930 . S
C529 C526 1.383 . S
C529 C527 1.365 . S
C529 H538 0.931 . S
C530 C525 1.370 . S
C530 C526 1.395 . S
C530 H539 0.930 . S
C531 Gd467 2.805 . S
C531 O507 1.263 . S
C531 O508 1.252 . S
C531 C525 1.500 . S
H532 C515 0.929 . S
H533 C516 0.930 . S
H534 C517 0.931 . S
H535 C518 0.930 . S
H536 C527 0.929 . S
H537 C528 0.930 . S
H538 C529 0.931 . S
H539 C530 0.930 . S
C540 C542 1.422 . S
C540 C544 1.415 . S
C540 N546 1.369 . S
C541 C542 1.421 . S
C541 C543 1.417 . S
C541 C553 1.422 . S
C542 C540 1.422 . S
C542 C541 1.421 . S
C542 N552 1.359 . S
C543 C541 1.417 . S
C543 C545 1.329 . S
C543 H562 0.930 . S
C544 C540 1.415 . S
C544 C545 1.437 . S
C544 C548 1.413 . S
C545 C543 1.329 . S
C545 C544 1.437 . S
C545 H567 0.929 . S
N546 C540 1.369 . S
N546 C547 1.338 . S
N546 Gd551 2.622 . S
C547 N546 1.338 . S
C547 C549 1.378 . S
C547 H559 0.929 . S
C548 C544 1.413 . S
C548 C549 1.348 . S
C548 H564 0.931 . S
C549 C547 1.378 . S
C549 C548 1.348 . S
C549 H565 0.930 . S
Gd550 N570 2.622 . S
Gd550 N577 2.570 . S
Gd550 O584 2.353 . S
Gd550 O585 2.468 . S
Gd550 O586 2.427 . S
Gd550 O588 2.388 . S
Gd550 O589 2.386 . S
Gd550 O593 2.307 . S
Gd550 C603 2.805 . S
Gd551 N546 2.622 . S
Gd551 N552 2.570 . S
Gd551 O583 2.386 . S
Gd551 O587 2.307 . S
Gd551 O590 2.353 . S
Gd551 O591 2.468 . S
Gd551 O592 2.427 . S
Gd551 O594 2.388 . S
Gd551 C615 2.805 . S
N552 C542 1.359 . S
N552 Gd551 2.570 . S
N552 C554 1.343 . S
C553 C541 1.422 . S
C553 C555 1.321 . S
C553 H561 0.931 . S
C554 N552 1.343 . S
C554 C555 1.390 . S
C554 H556 0.931 . S
C555 C553 1.321 . S
C555 C554 1.390 . S
C555 H557 0.930 . S
H556 C554 0.931 . S
H557 C555 0.930 . S
H558 C581 0.931 . S
H559 C547 0.929 . S
H560 C582 0.930 . S
H561 C553 0.931 . S
H562 C543 0.930 . S
H563 C572 0.929 . S
H564 C548 0.931 . S
H565 C549 0.930 . S
H566 C604 0.930 . S
H567 C545 0.929 . S
H568 C573 0.931 . S
H569 C574 0.930 . S
N570 Gd550 2.622 . S
N570 C571 1.369 . S
N570 C572 1.338 . S
C571 N570 1.369 . S
C571 C575 1.415 . S
C571 C578 1.422 . S
C572 H563 0.929 . S
C572 N570 1.338 . S
C572 C574 1.378 . S
C573 H568 0.931 . S
C573 C574 1.348 . S
C573 C575 1.413 . S
C574 H569 0.930 . S
C574 C572 1.378 . S
C574 C573 1.348 . S
C575 C571 1.415 . S
C575 C573 1.413 . S
C575 C605 1.437 . S
H576 C605 0.929 . S
N577 Gd550 2.570 . S
N577 C578 1.359 . S
N577 C581 1.343 . S
C578 C571 1.422 . S
C578 N577 1.359 . S
C578 C580 1.421 . S
C579 C580 1.422 . S
C579 C582 1.321 . S
C579 H606 0.931 . S
C580 C578 1.421 . S
C580 C579 1.422 . S
C580 C604 1.417 . S
C581 H558 0.931 . S
C581 N577 1.343 . S
C581 C582 1.390 . S
C582 H560 0.930 . S
C582 C579 1.321 . S
C582 C581 1.390 . S
O583 Gd551 2.386 . S
O583 C595 1.265 . S
O584 Gd550 2.353 . S
O584 C595 1.242 . S
O585 Gd550 2.468 . S
O585 C603 1.263 . S
O586 Gd550 2.427 . S
O586 C603 1.252 . S
O587 Gd551 2.307 . S
O587 C596 1.261 . S
O588 Gd550 2.388 . S
O588 C596 1.252 . S
O589 Gd550 2.386 . S
O589 C607 1.265 . S
O590 Gd551 2.353 . S
O590 C607 1.242 . S
O591 Gd551 2.468 . S
O591 C615 1.263 . S
O592 Gd551 2.427 . S
O592 C615 1.252 . S
O593 Gd550 2.307 . S
O593 C608 1.261 . S
O594 Gd551 2.388 . S
O594 C608 1.252 . S
C595 O583 1.265 . S
C595 O584 1.242 . S
C596 O587 1.261 . S
C596 O588 1.252 . S
C597 C600 1.394 . S
C597 C602 1.370 . S
C597 C603 1.500 . S
C598 C601 1.383 . S
C598 C602 1.395 . S
C599 C600 1.396 . S
C599 C601 1.365 . S
C599 H616 0.929 . S
C600 C597 1.394 . S
C600 C599 1.396 . S
C600 H617 0.930 . S
C601 C598 1.383 . S
C601 C599 1.365 . S
C601 H618 0.931 . S
C602 C597 1.370 . S
C602 C598 1.395 . S
C602 H619 0.930 . S
C603 Gd550 2.805 . S
C603 O585 1.263 . S
C603 O586 1.252 . S
C603 C597 1.500 . S
C604 H566 0.930 . S
C604 C580 1.417 . S
C604 C605 1.329 . S
C605 C575 1.437 . S
C605 H576 0.929 . S
C605 C604 1.329 . S
H606 C579 0.931 . S
C607 O589 1.265 . S
C607 O590 1.242 . S
C608 O593 1.261 . S
C608 O594 1.252 . S
C609 C612 1.394 . S
C609 C614 1.370 . S
C609 C615 1.500 . S
C610 C613 1.383 . S
C610 C614 1.395 . S
C611 C612 1.396 . S
C611 C613 1.365 . S
C611 H620 0.929 . S
C612 C609 1.394 . S
C612 C611 1.396 . S
C612 H621 0.930 . S
C613 C610 1.383 . S
C613 C611 1.365 . S
C613 H622 0.931 . S
C614 C609 1.370 . S
C614 C610 1.395 . S
C614 H623 0.930 . S
C615 Gd551 2.805 . S
C615 O591 1.263 . S
C615 O592 1.252 . S
C615 C609 1.500 . S
H616 C599 0.929 . S
H617 C600 0.930 . S
H618 C601 0.931 . S
H619 C602 0.930 . S
H620 C611 0.929 . S
H621 C612 0.930 . S
H622 C613 0.931 . S
H623 C614 0.930 . S
C624 C625 1.387 . S
C624 H628 0.949 . S
C624 C633 1.390 . S
C625 C624 1.387 . S
C625 C627 1.387 . S
H626 C633 0.950 . S
C627 C625 1.387 . S
C627 C629 1.390 . S
C627 H631 0.950 . S
H628 C624 0.949 . S
C629 C627 1.390 . S
C629 C630 1.387 . S
C629 H632 0.950 . S
C630 C629 1.387 . S
C630 C633 1.387 . S
H631 C627 0.950 . S
H632 C629 0.950 . S
C633 C624 1.390 . S
C633 H626 0.950 . S
C633 C630 1.387 . S
C634 C635 1.387 . S
C634 H638 0.950 . S
C634 C643 1.390 . S
C635 C634 1.387 . S
C635 C637 1.387 . S
H636 C643 0.950 . S
C637 C635 1.387 . S
C637 C639 1.390 . S
C637 H641 0.950 . S
H638 C634 0.950 . S
C639 C637 1.390 . S
C639 C640 1.387 . S
C639 H642 0.950 . S
C640 C639 1.387 . S
C640 C643 1.387 . S
H641 C637 0.950 . S
H642 C639 0.950 . S
C643 C634 1.390 . S
C643 H636 0.950 . S
C643 C640 1.387 . S
C644 C645 1.387 . S
C644 H648 0.950 . S
C644 C653 1.390 . S
C645 C644 1.387 . S
C645 C647 1.387 . S
H646 C653 0.950 . S
C647 C645 1.387 . S
C647 C649 1.390 . S
C647 H651 0.950 . S
H648 C644 0.950 . S
C649 C647 1.390 . S
C649 C650 1.387 . S
C649 H652 0.950 . S
C650 C649 1.387 . S
C650 C653 1.387 . S
H651 C647 0.950 . S
H652 C649 0.950 . S
C653 C644 1.390 . S
C653 H646 0.950 . S
C653 C650 1.387 . S
C654 C655 1.387 . S
C654 H658 0.950 . S
C654 C663 1.390 . S
C655 C654 1.387 . S
C655 C657 1.387 . S
H656 C663 0.950 . S
C657 C655 1.387 . S
C657 C659 1.390 . S
C657 H661 0.950 1_545 S
H658 C654 0.950 . S
C659 C657 1.390 . S
C659 C660 1.387 . S
C659 H662 0.950 . S
C660 C659 1.387 . S
C660 C663 1.387 . S
H661 C657 0.950 1_565 S
H662 C659 0.950 . S
C663 C654 1.390 . S
C663 H656 0.950 . S
C663 C660 1.387 . S
C664 C665 1.387 . S
C664 H668 0.950 . S
C664 C673 1.390 . S
C665 C664 1.387 . S
C665 C667 1.387 . S
H666 C673 0.950 . S
C667 C665 1.387 . S
C667 C669 1.390 . S
C667 H671 0.950 . S
H668 C664 0.950 . S
C669 C667 1.390 . S
C669 C670 1.387 . S
C669 H672 0.950 . S
C670 C669 1.387 . S
C670 C673 1.387 . S
H671 C667 0.950 . S
H672 C669 0.950 . S
C673 C664 1.390 . S
C673 H666 0.950 . S
C673 C670 1.387 . S
C674 C675 1.387 . S
C674 H678 0.950 . S
C674 C683 1.390 . S
C675 C674 1.387 . S
C675 C677 1.387 . S
H676 C683 0.950 . S
C677 C675 1.387 . S
C677 C679 1.390 . S
C677 H681 0.950 . S
H678 C674 0.950 . S
C679 C677 1.390 . S
C679 C680 1.387 . S
C679 H682 0.950 . S
C680 C679 1.387 . S
C680 C683 1.387 . S
H681 C677 0.950 . S
H682 C679 0.950 . S
C683 C674 1.390 . S
C683 H676 0.950 . S
C683 C680 1.387 . S
C684 C685 1.387 . S
C684 H688 0.950 . S
C684 C693 1.390 . S
C685 C684 1.387 . S
C685 C687 1.387 . S
H686 C693 0.950 . S
C687 C685 1.387 . S
C687 C689 1.390 . S
C687 H691 0.950 . S
H688 C684 0.950 . S
C689 C687 1.390 . S
C689 C690 1.387 . S
C689 H692 0.950 . S
C690 C689 1.387 . S
C690 C693 1.387 . S
H691 C687 0.950 . S
H692 C689 0.950 . S
C693 C684 1.390 . S
C693 H686 0.950 . S
C693 C690 1.387 . S
C694 C695 1.387 . S
C694 H698 0.950 1_565 S
C694 C703 1.390 . S
C695 C694 1.387 . S
C695 C697 1.387 . S
H696 C703 0.950 . S
C697 C695 1.387 . S
C697 C699 1.390 . S
C697 H701 0.950 . S
H698 C694 0.950 1_545 S
C699 C697 1.390 . S
C699 C700 1.387 . S
C699 H702 0.950 . S
C700 C699 1.387 . S
C700 C703 1.387 . S
H701 C697 0.950 . S
H702 C699 0.950 . S
C703 C694 1.390 . S
C703 H696 0.950 . S
C703 C700 1.387 . S
C704 C705 1.387 . S
C704 H708 0.950 . S
C704 C713 1.390 . S
C705 C704 1.387 . S
C705 C707 1.387 . S
H706 C713 0.950 . S
C707 C705 1.387 . S
C707 C709 1.390 . S
C707 H711 0.950 . S
H708 C704 0.950 . S
C709 C707 1.390 . S
C709 C710 1.387 . S
C709 H712 0.950 . S
C710 C709 1.387 . S
C710 C713 1.387 . S
H711 C707 0.950 . S
H712 C709 0.950 . S
C713 C704 1.390 . S
C713 H706 0.950 . S
C713 C710 1.387 . S
C714 C715 1.387 . S
C714 H718 0.950 . S
C714 C723 1.390 . S
C715 C714 1.387 . S
C715 C717 1.387 . S
H716 C723 0.950 . S
C717 C715 1.387 . S
C717 C719 1.390 . S
C717 H721 0.950 . S
H718 C714 0.950 . S
C719 C717 1.390 . S
C719 C720 1.387 . S
C719 H722 0.950 . S
C720 C719 1.387 . S
C720 C723 1.387 . S
H721 C717 0.950 . S
H722 C719 0.950 . S
C723 C714 1.390 . S
C723 H716 0.950 . S
C723 C720 1.387 . S
C724 C725 1.387 . S
C724 H728 0.950 . S
C724 C733 1.390 . S
C725 C724 1.387 . S
C725 C727 1.387 . S
H726 C733 0.950 . S
C727 C725 1.387 . S
C727 C729 1.390 . S
C727 H731 0.950 . S
H728 C724 0.950 . S
C729 C727 1.390 . S
C729 C730 1.387 . S
C729 H732 0.950 . S
C730 C729 1.387 . S
C730 C733 1.387 . S
H731 C727 0.950 . S
H732 C729 0.950 . S
C733 C724 1.390 . S
C733 H726 0.950 . S
C733 C730 1.387 . S
C734 C735 1.387 . S
C734 H738 0.950 . S
C734 C743 1.390 . S
C735 C734 1.387 . S
C735 C737 1.387 . S
H736 C743 0.950 . S
C737 C735 1.387 . S
C737 C739 1.390 . S
C737 H741 0.950 . S
H738 C734 0.950 . S
C739 C737 1.390 . S
C739 C740 1.387 . S
C739 H742 0.950 . S
C740 C739 1.387 . S
C740 C743 1.387 . S
H741 C737 0.950 . S
H742 C739 0.950 . S
C743 C734 1.390 . S
C743 H736 0.950 . S
C743 C740 1.387 . S
C744 C745 1.387 . S
C744 H748 0.950 . S
C744 C753 1.390 . S
C745 C744 1.387 . S
C745 C747 1.387 . S
H746 C753 0.950 . S
C747 C745 1.387 . S
C747 C749 1.390 . S
C747 H751 0.950 . S
H748 C744 0.950 . S
C749 C747 1.390 . S
C749 C750 1.387 . S
C749 H752 0.950 . S
C750 C749 1.387 . S
C750 C753 1.387 . S
H751 C747 0.950 . S
H752 C749 0.950 . S
C753 C744 1.390 . S
C753 H746 0.950 . S
C753 C750 1.387 . S
C754 C755 1.387 . S
C754 H758 0.950 . S
C754 C763 1.390 . S
C755 C754 1.387 . S
C755 C757 1.387 . S
H756 C763 0.950 . S
C757 C755 1.387 . S
C757 C759 1.390 . S
C757 H761 0.950 . S
H758 C754 0.950 . S
C759 C757 1.390 . S
C759 C760 1.387 . S
C759 H762 0.950 . S
C760 C759 1.387 . S
C760 C763 1.387 . S
H761 C757 0.950 . S
H762 C759 0.950 . S
C763 C754 1.390 . S
C763 H756 0.950 . S
C763 C760 1.387 . S
C764 C765 1.387 . S
C764 H768 0.950 . S
C764 C773 1.390 . S
C765 C764 1.387 . S
C765 C767 1.387 . S
H766 C773 0.950 . S
C767 C765 1.387 . S
C767 C769 1.390 . S
C767 H771 0.950 . S
H768 C764 0.950 . S
C769 C767 1.390 . S
C769 C770 1.387 . S
C769 H772 0.950 . S
C770 C769 1.387 . S
C770 C773 1.387 . S
H771 C767 0.950 . S
H772 C769 0.950 . S
C773 C764 1.390 . S
C773 H766 0.950 . S
C773 C770 1.387 . S
C774 C775 1.387 . S
C774 H778 0.950 . S
C774 C783 1.390 . S
C775 C774 1.387 . S
C775 C777 1.387 . S
H776 C783 0.950 . S
C777 C775 1.387 . S
C777 C779 1.390 . S
C777 H781 0.950 . S
H778 C774 0.950 . S
C779 C777 1.390 . S
C779 C780 1.387 . S
C779 H782 0.950 . S
C780 C779 1.387 . S
C780 C783 1.387 . S
H781 C777 0.950 . S
H782 C779 0.950 . S
C783 C774 1.390 . S
C783 H776 0.950 . S
C783 C780 1.387 . S
C784 C785 1.387 . S
C784 H788 0.950 . S
C784 C793 1.390 . S
C785 C784 1.387 . S
C785 C787 1.387 . S
H786 C793 0.950 . S
C787 C785 1.387 . S
C787 C789 1.390 . S
C787 H791 0.950 . S
H788 C784 0.950 . S
C789 C787 1.390 . S
C789 C790 1.387 . S
C789 H792 0.950 . S
C790 C789 1.387 . S
C790 C793 1.387 . S
H791 C787 0.950 . S
H792 C789 0.950 . S
C793 C784 1.390 . S
C793 H786 0.950 . S
C793 C790 1.387 . S
C794 C795 1.387 . S
C794 H798 0.950 . S
C794 C803 1.390 . S
C795 C794 1.387 . S
C795 C797 1.387 . S
H796 C803 0.950 . S
C797 C795 1.387 . S
C797 C799 1.390 . S
C797 H801 0.950 . S
H798 C794 0.950 . S
C799 C797 1.390 . S
C799 C800 1.387 . S
C799 H802 0.950 . S
C800 C799 1.387 . S
C800 C803 1.387 . S
H801 C797 0.950 . S
H802 C799 0.950 . S
C803 C794 1.390 . S
C803 H796 0.950 . S
C803 C800 1.387 . S
C804 C805 1.387 . S
C804 H808 0.950 . S
C804 C813 1.390 . S
C805 C804 1.387 . S
C805 C807 1.387 . S
H806 C813 0.950 . S
C807 C805 1.387 . S
C807 C809 1.390 . S
C807 H811 0.950 . S
H808 C804 0.950 . S
C809 C807 1.390 . S
C809 C810 1.387 . S
C809 H812 0.950 . S
C810 C809 1.387 . S
C810 C813 1.387 . S
H811 C807 0.950 . S
H812 C809 0.950 . S
C813 C804 1.390 . S
C813 H806 0.950 . S
C813 C810 1.387 . S
C814 C815 1.387 . S
C814 H818 0.950 . S
C814 C823 1.390 . S
C815 C814 1.387 . S
C815 C817 1.387 . S
H816 C823 0.950 . S
C817 C815 1.387 . S
C817 C819 1.390 . S
C817 H821 0.950 . S
H818 C814 0.950 . S
C819 C817 1.390 . S
C819 C820 1.387 . S
C819 H822 0.950 . S
C820 C819 1.387 . S
C820 C823 1.387 . S
H821 C817 0.950 . S
H822 C819 0.950 . S
C823 C814 1.390 . S
C823 H816 0.950 . S
C823 C820 1.387 . S
C824 C825 1.387 . S
C824 H828 0.950 . S
C824 C833 1.390 . S
C825 C824 1.387 . S
C825 C827 1.387 . S
H826 C833 0.950 . S
C827 C825 1.387 . S
C827 C829 1.390 . S
C827 H831 0.950 . S
H828 C824 0.950 . S
C829 C827 1.390 . S
C829 C830 1.387 . S
C829 H832 0.950 . S
C830 C829 1.387 . S
C830 C833 1.387 . S
H831 C827 0.950 . S
H832 C829 0.950 . S
C833 C824 1.390 . S
C833 H826 0.950 . S
C833 C830 1.387 . S
C834 C835 1.387 . S
C834 H838 0.950 . S
C834 C843 1.390 . S
C835 C834 1.387 . S
C835 C837 1.387 . S
H836 C843 0.950 . S
C837 C835 1.387 . S
C837 C839 1.390 . S
C837 H841 0.950 . S
H838 C834 0.950 . S
C839 C837 1.390 . S
C839 C840 1.387 . S
C839 H842 0.950 . S
C840 C839 1.387 . S
C840 C843 1.387 . S
H841 C837 0.950 . S
H842 C839 0.950 . S
C843 C834 1.390 . S
C843 H836 0.950 . S
C843 C840 1.387 . S
C844 C845 1.387 . S
C844 H848 0.950 . S
C844 C853 1.390 . S
C845 C844 1.387 . S
C845 C847 1.387 . S
H846 C853 0.950 . S
C847 C845 1.387 . S
C847 C849 1.390 . S
C847 H851 0.950 . S
H848 C844 0.950 . S
C849 C847 1.390 . S
C849 C850 1.387 . S
C849 H852 0.950 . S
C850 C849 1.387 . S
C850 C853 1.387 . S
H851 C847 0.950 . S
H852 C849 0.950 . S
C853 C844 1.390 . S
C853 H846 0.950 . S
C853 C850 1.387 . S
C854 C855 1.387 . S
C854 H858 0.950 . S
C854 C863 1.390 . S
C855 C854 1.387 . S
C855 C857 1.387 . S
H856 C863 0.950 . S
C857 C855 1.387 . S
C857 C859 1.390 . S
C857 H861 0.950 . S
H858 C854 0.950 . S
C859 C857 1.390 . S
C859 C860 1.387 . S
C859 H862 0.950 . S
C860 C859 1.387 . S
C860 C863 1.387 . S
H861 C857 0.950 . S
H862 C859 0.950 . S
C863 C854 1.390 . S
C863 H856 0.950 . S
C863 C860 1.387 . S
C625 C247 1.489 1_545 S
C630 C344 1.471 . S
C640 C428 1.470 . S
C635 C283 1.489 . S
C650 C427 1.479 . S
C645 C175 1.487 . S
C655 C211 1.487 1_545 S
C660 C343 1.478 . S
C670 C524 1.471 . S
C665 C103 1.472 1_565 S
C680 C608 1.472 . S
C675 C139 1.472 . S
C685 C31 1.467 . S
C690 C607 1.479 . S
C695 C67 1.465 1_565 S
C700 C523 1.478 . S
C710 C346 1.319 . S
C705 C37 1.510 . S
C720 C430 1.315 . S
C715 C1 1.508 . S
C730 C442 1.403 . S
C725 C109 1.535 . S
C740 C358 1.399 . S
C735 C73 1.527 . S
C750 C526 1.319 . S
C745 C181 1.527 . S
C755 C145 1.527 . S
C760 C610 1.315 . S
C770 C598 1.400 . S
C765 C253 1.582 . S
C775 C217 1.543 . S
C780 C514 1.404 . S
C790 C355 1.578 . S
C785 C25 1.543 . S
C800 C439 1.578 . S
C795 C61 1.542 . S
C805 C97 1.533 . S
C810 C440 1.561 . S
C820 C356 1.561 . S
C815 C133 1.535 . S
C830 C511 1.578 . S
C825 C169 1.570 . S
C835 C205 1.570 . S
C840 C595 1.578 . S
C845 C241 1.555 . S
C850 C596 1.562 . S
C855 C277 1.555 . S
C860 C512 1.562 . S
