# Generated by pormake.
# Topology tsx, (6,3)-cn, num edge types: 1
# Building blocks:
#     Node 0, Type 0, BuildingBlock: CIFDUS_clean_sbu_1, # of connection points: 6
#     Node 1, Type 0, BuildingBlock: CIFDUS_clean_sbu_1, # of connection points: 6
#     Node 2, Type 1, BuildingBlock: PAMTOO_clean_linker_0, # of connection points: 3
#     Node 3, Type 1, BuildingBlock: PAMTOO_clean_linker_0, # of connection points: 3
#     Node 4, Type 1, BuildingBlock: PAMTOO_clean_linker_0, # of connection points: 3
#     Node 5, Type 1, BuildingBlock: PAMTOO_clean_linker_0, # of connection points: 3
#     Edge 6, Type (0, 1), BuildingBlock: FUNLAD_clean_linker_0, # of connection points: 2
#     Edge 7, Type (0, 1), BuildingBlock: FUNLAD_clean_linker_0, # of connection points: 2
#     Edge 8, Type (0, 1), BuildingBlock: FUNLAD_clean_linker_0, # of connection points: 2
#     Edge 9, Type (0, 1), BuildingBlock: FUNLAD_clean_linker_0, # of connection points: 2
#     Edge 10, Type (0, 1), BuildingBlock: FUNLAD_clean_linker_0, # of connection points: 2
#     Edge 11, Type (0, 1), BuildingBlock: FUNLAD_clean_linker_0, # of connection points: 2
#     Edge 12, Type (0, 1), BuildingBlock: FUNLAD_clean_linker_0, # of connection points: 2
#     Edge 13, Type (0, 1), BuildingBlock: FUNLAD_clean_linker_0, # of connection points: 2
#     Edge 14, Type (0, 1), BuildingBlock: FUNLAD_clean_linker_0, # of connection points: 2
#     Edge 15, Type (0, 1), BuildingBlock: FUNLAD_clean_linker_0, # of connection points: 2
#     Edge 16, Type (0, 1), BuildingBlock: FUNLAD_clean_linker_0, # of connection points: 2
#     Edge 17, Type (0, 1), BuildingBlock: FUNLAD_clean_linker_0, # of connection points: 2
# Relax obj value: 0.124
# Max RMSD: 0.145
# Mean RMSD: 0.137
data_MOF--net-tsx--node1-CIFDUS_clean_sbu_1--node2-PAMTOO_clean_linker_0--edge1-FUNLAD_clean_linker_0
_symmetry_space_group_name_H-M    P1
_symmetry_Int_Tables_number       1
_symmetry_cell_setting            triclinic
loop_
_symmetry_equiv_pos_as_xyz
'x, y, z'
_cell_length_a     19.745201
_cell_length_b     26.898524
_cell_length_c     39.864505
_cell_angle_alpha  89.892919
_cell_angle_beta   95.329557
_cell_angle_gamma 91.766408
loop_
_atom_site_label
_atom_site_type_symbol
_atom_site_fract_x
_atom_site_fract_y
_atom_site_fract_z
_atom_type_partial_charge
O0 O 1.04065 0.11878 0.00308 0.0
Mn1 Mn 0.08973 0.05025 0.00117 0.0
O2 O 0.93341 0.10529 0.97943 0.0
Mn3 Mn 0.95369 0.05087 0.95445 0.0
O4 O 0.13778 0.98191 -0.00133 0.0
O5 O 0.17764 0.08443 0.01851 0.0
Mn6 Mn 0.22165 0.04835 0.04995 0.0
O7 O 0.06626 0.03585 0.05047 0.0
O8 O 0.23906 0.98921 0.0293 0.0
O9 O 0.11174 0.06468 0.95178 0.0
O10 O 1.01005 0.06484 0.92055 0.0
O11 O 0.27538 0.10494 0.0449 0.0
O12 O 0.16445 0.04284 0.08418 0.0
C13 C 0.96148 0.97854 0.97812 0.0
C14 C 0.97881 0.13243 -0.00392 0.0
C15 C 0.19599 0.96478 0.00941 0.0
C16 C 0.22693 0.11698 0.02257 0.0
C17 C 0.10009 0.03598 0.07962 0.0
C18 C 0.07497 0.06932 0.92361 0.0
O19 O 1.00324 0.01564 0.98383 0.0
O20 O 0.91052 0.98848 0.95668 0.0
O21 O 0.54373 0.59285 0.50192 0.0
Mn22 Mn 0.59093 0.52493 0.49289 0.0
O23 O 0.4309 0.57882 0.48984 0.0
Mn24 Mn 0.43908 0.5228 0.46402 0.0
O25 O 0.6356 0.45648 0.48295 0.0
O26 O 0.6819 0.56202 0.49877 0.0
Mn27 Mn 0.74186 0.52202 0.51931 0.0
O28 O 0.59792 0.50961 0.54438 0.0
O29 O 0.74865 0.46863 0.49112 0.0
O30 O 0.58447 0.5398 0.44126 0.0
O31 O 0.47321 0.53353 0.42267 0.0
O32 O 0.78901 0.58061 0.51265 0.0
O33 O 0.71019 0.50734 0.56085 0.0
C34 C 0.45699 0.45176 0.48752 0.0
C35 C 0.48136 0.60626 0.50152 0.0
C36 C 0.69663 0.44229 0.48049 0.0
C37 C 0.73068 0.59544 0.49954 0.0
C38 C 0.64784 0.5036 0.56701 0.0
C39 C 0.53571 0.54044 0.41749 0.0
O40 O 0.50094 0.48811 0.48731 0.0
O41 O 0.3979 0.46193 0.47281 0.0
H42 H 0.16476 0.93668 0.38159 0.0
H43 H 1.00192 0.03828 0.38676 0.0
H44 H 0.11354 0.98969 0.47776 0.0
H45 H 0.94813 0.01058 0.48115 0.0
C46 C 0.94796 0.03291 0.45777 0.0
O47 O 1.01419 0.04585 0.45189 0.0
H48 H 0.92302 0.00929 0.43695 0.0
C49 C 0.1336 0.95898 0.39632 0.0
C50 C 0.14626 0.95964 0.43167 0.0
C51 C 0.08157 0.98691 0.37971 0.0
C52 C 1.04226 0.01636 0.39894 0.0
C53 C 1.05283 0.01669 0.43415 0.0
C54 C 0.10461 0.98824 0.45056 0.0
H55 H 0.26359 0.09162 0.62642 0.0
H56 H 0.10261 0.97986 0.62559 0.0
H57 H 0.16513 0.03619 0.53228 0.0
H58 H 1.01444 0.01745 0.53295 0.0
C59 C 1.01552 0.98753 0.5522 0.0
O60 O 0.08201 0.97385 0.56022 0.0
H61 H 0.99466 0.00244 0.57504 0.0
C62 C 0.22653 0.067 0.61262 0.0
C63 C 0.22024 0.06797 0.5772 0.0
C64 C 0.18444 0.03568 0.63053 0.0
C65 C 0.13626 0.00397 0.61244 0.0
C66 C 0.12915 0.0044 0.57715 0.0
C67 C 0.17102 0.03631 0.55957 0.0
H68 H 0.67718 0.46456 0.87842 0.0
H69 H 0.52026 0.57278 0.87341 0.0
H70 H 0.60998 0.52504 0.96936 0.0
H71 H 0.4547 0.53684 0.96317 0.0
C72 C 0.45323 0.56627 0.94359 0.0
O73 O 0.51871 0.58145 0.93816 0.0
H74 H 0.42641 0.55014 0.9201 0.0
C75 C 0.64525 0.48926 0.89092 0.0
C76 C 0.6499 0.49089 0.92641 0.0
C77 C 0.59901 0.51884 0.87139 0.0
C78 C 0.55719 0.5503 0.8878 0.0
C79 C 0.56061 0.55181 0.92294 0.0
C80 C 0.60714 0.52264 0.94217 0.0
H81 H 0.74962 0.61975 0.1219 0.0
H82 H 0.60371 0.49735 0.11109 0.0
H83 H 0.68576 0.55819 0.02367 0.0
H84 H 0.53329 0.5275 0.01306 0.0
C85 C 0.53403 0.50124 0.03458 0.0
O86 O 0.60085 0.49201 0.0458 0.0
H87 H 0.50805 0.5186 0.05504 0.0
C88 C 0.72087 0.59227 0.10611 0.0
C89 C 0.72444 0.59304 0.07099 0.0
C90 C 0.67713 0.55822 0.12083 0.0
C91 C 0.63757 0.52406 0.10019 0.0
C92 C 0.64032 0.52455 0.0653 0.0
C93 C 0.68384 0.55867 0.05073 0.0
C94 C 0.28187 0.17378 0.98412 0.0
C95 C 0.23 0.16498 0.0053 0.0
C96 C 0.30437 0.22234 0.97781 0.0
C97 C 0.27631 0.26286 -0.00665 0.0
C98 C 0.21937 0.25413 0.0115 0.0
C99 C 0.19674 0.2054 0.0177 0.0
C100 C 0.31015 0.31317 -0.00542 0.0
C101 C 0.37857 0.31906 -0.00392 0.0
C102 C 0.41712 0.36657 0.00449 0.0
C103 C 0.48609 0.36409 0.01658 0.0
C104 C 0.52429 0.40706 0.0263 0.0
C105 C 0.49468 0.45395 0.02365 0.0
H106 H 0.33503 0.41731 0.99167 0.0
C107 C 0.42598 0.45665 0.0111 0.0
C108 C 0.38753 0.41351 0.00148 0.0
H109 H 0.40187 0.49229 0.00896 0.0
H110 H 0.30867 0.14298 0.97463 0.0
H111 H 0.34652 0.22779 0.96252 0.0
H112 H 0.19621 0.28468 0.02339 0.0
H113 H 0.15766 0.1993 0.03477 0.0
H114 H 0.27919 0.34466 -0.00086 0.0
H115 H 0.40893 0.2863 -0.00553 0.0
H116 H 0.5104 0.32854 0.01915 0.0
H117 H 0.57686 0.40319 0.03606 0.0
C118 C 0.27994 0.89708 0.00955 0.0
C119 C 0.21509 0.91459 -0.00121 0.0
C120 C 0.29945 0.85025 -3e-05 0.0
C121 C 0.25444 0.81916 0.97954 0.0
C122 C 0.18984 0.83666 0.96835 0.0
C123 C 0.17011 0.88383 0.97801 0.0
C124 C 0.27552 0.76969 0.96825 0.0
C125 C 0.3225 0.74284 0.98646 0.0
C126 C 0.35077 0.69593 0.97476 0.0
C127 C 0.38541 0.66512 -0.00128 0.0
C128 C 0.4174 0.62269 0.98872 0.0
C129 C 0.41532 0.61014 0.95451 0.0
H130 H 0.32493 0.70677 0.92103 0.0
C131 C 0.38116 0.64087 0.93044 0.0
C132 C 0.34898 0.6833 0.94041 0.0
H133 H 0.38028 0.6324 0.90384 0.0
H134 H 0.31644 0.91975 0.02526 0.0
H135 H 0.3506 0.83916 0.00807 0.0
H136 H 0.15445 0.81372 0.95222 0.0
H137 H 0.11988 0.89613 0.96918 0.0
H138 H 0.25108 0.75513 0.94464 0.0
H139 H 0.34146 0.75561 0.01152 0.0
H140 H 0.38853 0.67427 0.02529 0.0
H141 H 0.44447 0.59996 0.00768 0.0
C142 C 0.95802 0.88761 0.97001 0.0
C143 C 0.97048 0.92825 0.99189 0.0
C144 C 0.94961 0.83974 0.9827 0.0
C145 C 0.95106 0.83185 0.01766 0.0
C146 C 0.97005 0.87193 0.03955 0.0
C147 C 0.97981 0.91996 0.02672 0.0
C148 C 0.92686 0.78379 0.03169 0.0
C149 C 0.87861 0.75461 0.01451 0.0
C150 C 0.84316 0.71098 0.02885 0.0
C151 C 0.78029 0.69465 0.01255 0.0
C152 C 0.74265 0.65575 0.02577 0.0
C153 C 0.76723 0.63178 0.05557 0.0
H154 H 0.91816 0.69631 0.07088 0.0
C155 C 0.83138 0.64683 0.0713 0.0
C156 C 0.86905 0.68598 0.05809 0.0
H157 H 0.85246 0.62844 0.09392 0.0
H158 H 0.95174 0.8932 0.94298 0.0
H159 H 0.93886 0.80947 0.96498 0.0
H160 H 0.97275 0.86677 0.06659 0.0
H161 H 0.98911 0.95089 0.04405 0.0
H162 H 0.94293 0.77573 0.05784 0.0
H163 H 0.85885 0.76577 0.98939 0.0
H164 H 0.75912 0.71296 0.98988 0.0
H165 H 0.6932 0.64563 0.01315 0.0
C166 C 0.89145 0.19194 0.00955 0.0
C167 C 0.95917 0.18352 0.00367 0.0
C168 C 0.86629 0.23987 0.00802 0.0
C169 C 0.90847 0.28089 0.00062 0.0
C170 C 0.9776 0.27273 -0.00285 0.0
C171 C 1.00283 0.22451 -0.00124 0.0
C172 C 0.88021 0.33056 0.99153 0.0
C173 C 0.81746 0.34427 -0.00197 0.0
C174 C 0.78077 0.38718 0.98189 0.0
C175 C 0.71764 0.39907 0.99292 0.0
C176 C 0.67636 0.43383 0.97562 0.0
C177 C 0.69707 0.4578 0.94677 0.0
H178 H 0.85041 0.40468 0.94387 0.0
C179 C 0.76154 0.44767 0.93655 0.0
C180 C 0.80279 0.41268 0.95374 0.0
H181 H 0.77971 0.46607 0.91478 0.0
H182 H 0.85657 0.16094 0.01327 0.0
H183 H 0.81259 0.24355 0.01031 0.0
H184 H 1.01135 0.30339 0.99125 0.0
H185 H 1.05483 0.21905 -0.00655 0.0
H186 H 0.91117 0.35511 0.97719 0.0
H187 H 0.78929 0.32161 0.01482 0.0
H188 H 0.69884 0.38 0.01433 0.0
H189 H 0.62685 0.44027 0.98399 0.0
C190 C 0.76797 0.66946 0.46903 0.0
C191 C 0.72332 0.64825 0.49082 0.0
C192 C 0.78552 0.72017 0.47084 0.0
C193 C 0.76008 0.7505 0.49525 0.0
C194 C 0.70915 0.73034 0.51422 0.0
C195 C 0.69102 0.67948 0.51211 0.0
C196 C 0.79009 0.80116 0.50383 0.0
C197 C 0.85528 0.8143 0.49914 0.0
C198 C 0.89174 0.86101 0.51183 0.0
C199 C 0.9528 0.87516 0.49835 0.0
C200 C 0.99227 0.91601 0.51128 0.0
C201 C 0.97232 0.94345 0.53836 0.0
H202 H 0.82502 0.87931 0.5502 0.0
C203 C 0.91064 0.93015 0.55154 0.0
C204 C 0.87081 0.88928 0.53853 0.0
H205 H 0.8936 0.95101 0.57223 0.0
H206 H 0.7938 0.646 0.45253 0.0
H207 H 0.82204 0.73461 0.4544 0.0
H208 H 0.68754 0.75294 0.53275 0.0
H209 H 0.65731 0.66383 0.5296 0.0
H210 H 0.75959 0.82626 0.51695 0.0
H211 H 0.88564 0.7886 0.48643 0.0
H212 H 0.97051 0.85419 0.47786 0.0
H213 H 1.03879 0.926 0.50031 0.0
C214 C 0.67638 0.34951 0.4785 0.0
C215 C 0.7094 0.39253 0.46713 0.0
C216 C 0.69972 0.3022 0.47124 0.0
C217 C 0.75564 0.29734 0.45201 0.0
C218 C 0.78502 0.34037 0.43877 0.0
C219 C 0.76288 0.38738 0.44663 0.0
C220 C 0.78639 0.24864 0.44586 0.0
C221 C 0.79001 0.21134 0.4686 0.0
C222 C 0.82991 0.16559 0.46489 0.0
C223 C 0.85229 0.13882 0.49397 0.0
C224 C 0.89089 0.09629 0.4918 0.0
C225 C 0.90722 0.07913 0.46039 0.0
H226 H 0.82876 0.16668 0.41023 0.0
C227 C 0.88479 0.10556 0.43124 0.0
C228 C 0.84626 0.14814 0.43338 0.0
H229 H 0.89665 0.09291 0.40674 0.0
H230 H 0.63523 0.35252 0.4945 0.0
H231 H 0.67476 0.26967 0.48113 0.0
H232 H 0.82755 0.3378 0.4236 0.0
H233 H 0.78918 0.41996 0.43754 0.0
H234 H 0.81376 0.24605 0.42358 0.0
H235 H 0.76775 0.21626 0.49225 0.0
H236 H 0.8405 0.15114 0.51857 0.0
H237 H 0.90769 0.07665 0.51467 0.0
C238 C 0.45708 0.36192 0.47608 0.0
C239 C 0.47104 0.40097 0.49919 0.0
C240 C 0.44702 0.31331 0.48728 0.0
C241 C 0.44908 0.30303 0.52195 0.0
C242 C 0.47003 0.34135 0.54499 0.0
C243 C 0.48072 0.39019 0.53368 0.0
C244 C 0.42388 0.25429 0.53463 0.0
C245 C 0.37327 0.22717 0.51741 0.0
C246 C 0.3379 0.18305 0.53132 0.0
C247 C 0.27114 0.17048 0.51797 0.0
C248 C 0.23383 0.13182 0.53188 0.0
C249 C 0.26267 0.10441 0.55934 0.0
H250 H 0.42019 0.1612 0.56781 0.0
C251 C 0.33093 0.1151 0.57141 0.0
C252 C 0.3681 0.15399 0.55764 0.0
H253 H 0.35542 0.09385 0.59196 0.0
H254 H 0.44945 0.36955 0.44931 0.0
H255 H 0.43417 0.28442 0.4687 0.0
H256 H 0.47314 0.33431 0.57185 0.0
H257 H 0.49072 0.41992 0.55194 0.0
H258 H 0.44147 0.24391 0.56021 0.0
H259 H 0.35166 0.24062 0.49315 0.0
H260 H 0.24674 0.19185 0.49745 0.0
H261 H 0.18142 0.1249 0.52201 0.0
C262 C 0.49399 0.69885 0.49612 0.0
C263 C 0.46473 0.65721 0.51123 0.0
C264 C 0.4629 0.74516 0.49645 0.0
C265 C 0.4023 0.7505 0.51216 0.0
C266 C 0.37753 0.70992 0.53007 0.0
C267 C 0.40782 0.66371 0.52927 0.0
C268 C 0.36021 0.79582 0.50844 0.0
C269 C 0.35796 0.82544 0.48098 0.0
C270 C 0.30623 0.8643 0.47267 0.0
C271 C 0.31647 0.89716 0.44606 0.0
C272 C 0.2659 0.92966 0.43399 0.0
C273 C 0.20315 0.93014 0.44804 0.0
H274 H 0.23352 0.84149 0.5081 0.0
C275 C 0.19388 0.89917 0.47579 0.0
C276 C 0.24461 0.86644 0.48792 0.0
H277 H 0.1461 0.89828 0.48705 0.0
H278 H 0.53752 0.69476 0.48181 0.0
H279 H 0.485 0.77601 0.48335 0.0
H280 H 0.33164 0.71293 0.54279 0.0
H281 H 0.38407 0.63216 0.54102 0.0
H282 H 0.32499 0.80146 0.52729 0.0
H283 H 0.39313 0.81907 0.46217 0.0
H284 H 0.36316 0.89671 0.43378 0.0
H285 H 0.27533 0.95362 0.41294 0.0
C286 C 0.06384 0.98101 0.12498 0.0
C287 C 0.06427 0.02803 0.10984 0.0
C288 C 1.04499 0.97543 0.15777 0.0
C289 C 1.02748 0.01716 0.17611 0.0
C290 C 1.02311 0.06346 0.15976 0.0
C291 C 1.04187 0.06895 0.12695 0.0
C292 C 1.01841 0.01492 0.21276 0.0
C293 C 1.0485 0.98094 0.23366 0.0
C294 C 1.05038 0.98305 0.27103 0.0
C295 C 0.06372 0.93941 0.28953 0.0
C296 C 0.07239 0.94047 0.32471 0.0
C297 C 0.06878 0.98542 0.34231 0.0
H298 H 1.03746 0.06275 0.27541 0.0
C299 C 1.05443 0.02906 0.32384 0.0
C300 C 1.04544 0.02796 0.28862 0.0
H301 H 1.05238 0.06446 0.33655 0.0
H302 H 0.0812 0.94905 0.11205 0.0
H303 H 1.04632 0.93872 0.16886 0.0
H304 H 1.0091 0.09611 0.17309 0.0
H305 H 1.04264 0.10564 0.1157 0.0
H306 H 0.99099 0.04476 0.22313 0.0
H307 H 0.07593 0.95106 0.22338 0.0
H308 H 0.06819 0.90436 0.27669 0.0
H309 H 0.08224 0.906 0.33812 0.0
C310 C 0.16438 0.05213 0.88484 0.0
C311 C 0.10784 0.07893 0.89247 0.0
C312 C 0.18686 0.05495 0.85252 0.0
C313 C 0.15361 0.08529 0.8277 0.0
C314 C 0.10043 0.11469 0.83634 0.0
C315 C 0.07717 0.11105 0.86822 0.0
C316 C 0.17035 0.08601 0.79219 0.0
C317 C 0.19013 0.04552 0.77625 0.0
C318 C 0.19333 0.04363 0.73909 0.0
C319 C 0.185 -0.00252 0.72253 0.0
C320 C 0.18266 -0.00535 0.68738 0.0
C321 C 0.18904 0.03798 0.66801 0.0
H322 H 0.2109 0.12294 0.73146 0.0
C323 C 0.19932 0.084 0.68471 0.0
C324 C 0.20211 0.08679 0.71977 0.0
H325 H 0.20393 0.11826 0.67068 0.0
H326 H 0.18873 0.02707 0.9032 0.0
H327 H 0.22921 0.0328 0.84685 0.0
H328 H 0.07449 0.13876 0.81783 0.0
H329 H 1.03373 0.13233 0.87361 0.0
H330 H 0.157 0.11914 0.77778 0.0
H331 H 0.19705 0.01102 0.7902 0.0
H332 H 0.17877 0.96355 0.73677 0.0
H333 H 0.17589 0.9585 0.67541 0.0
C334 C 0.57316 0.508 0.6146 0.0
C335 C 0.63369 0.49309 0.60216 0.0
C336 C 0.56375 0.50228 0.64882 0.0
C337 C 0.61445 0.48096 0.67103 0.0
C338 C 0.67305 0.46366 0.65814 0.0
C339 C 0.68294 0.4701 0.6242 0.0
C340 C 0.60906 0.47705 0.70783 0.0
C341 C 0.57863 0.51136 0.72532 0.0
C342 C 0.58232 0.51181 0.76275 0.0
C343 C 0.5788 0.55745 0.77938 0.0
C344 C 0.58461 0.55978 0.81455 0.0
C345 C 0.59329 0.51632 0.83394 0.0
H346 H 0.59051 0.43206 0.77019 0.0
C347 C 0.59534 0.47043 0.81728 0.0
C348 C 0.58979 0.46814 0.78208 0.0
H349 H 0.60022 0.43611 0.83142 0.0
H350 H 0.53411 0.52554 0.59817 0.0
H351 H 0.51708 0.51477 0.65783 0.0
H352 H 0.71249 0.4466 0.67462 0.0
H353 H 0.72974 0.45756 0.6153 0.0
H354 H 0.63774 0.44819 0.72128 0.0
H355 H 0.55586 0.54296 0.71208 0.0
H356 H 0.57286 0.59164 0.76514 0.0
H357 H 0.58331 0.59578 0.82654 0.0
C358 C 0.61927 0.55048 0.37352 0.0
C359 C 0.5517 0.5468 0.38207 0.0
C360 C 0.63306 0.55226 0.33964 0.0
C361 C 0.57938 0.55037 0.31375 0.0
C362 C 0.51221 0.54774 0.32243 0.0
C363 C 0.49847 0.54627 0.35604 0.0
C364 C 0.59006 0.54829 0.27741 0.0
C365 C 0.6463 0.56562 0.26397 0.0
C366 C 0.65324 0.56412 0.22708 0.0
C367 C 0.71852 0.56572 0.21569 0.0
C368 C 0.72664 0.56385 0.1812 0.0
C369 C 0.6695 0.56028 0.15743 0.0
H370 H 0.54486 0.56332 0.21037 0.0
C371 C 0.60428 0.55978 0.16873 0.0
C372 C 0.59614 0.56214 0.20306 0.0
H373 H 0.55934 0.55851 0.15092 0.0
H374 H 0.6615 0.55074 0.39291 0.0
H375 H 0.68559 0.55335 0.33396 0.0
H376 H 0.46988 0.54626 0.30305 0.0
H377 H 0.44574 0.54359 0.36147 0.0
H378 H 0.54826 0.53205 0.26104 0.0
H379 H 0.68889 0.58103 0.28025 0.0
H380 H 0.76338 0.56789 0.23354 0.0
H381 H 0.77755 0.56451 0.17312 0.0
loop_
_geom_bond_atom_site_label_1
_geom_bond_atom_site_label_2
_geom_bond_distance
_geom_bond_site_symmetry_2
_ccdc_geom_bond_type
O0 Mn1 2.165 . S
O0 C14 1.244 1_454 S
Mn1 O0 2.165 . S
Mn1 O4 2.157 1_544 S
Mn1 O5 2.226 . S
Mn1 O7 2.196 . S
Mn1 O9 2.126 1_554 S
Mn1 O19 2.215 1_444 S
O2 Mn3 2.087 . S
O2 C14 1.256 . S
Mn3 O2 2.087 . S
Mn3 O10 2.089 . S
Mn3 O19 2.290 1_545 S
Mn3 O20 2.272 1_545 S
O4 Mn1 2.157 1_566 S
O4 C15 1.239 1_556 S
O5 Mn1 2.226 . S
O5 Mn6 2.290 . S
O5 C16 1.278 . S
Mn6 O5 2.290 . S
Mn6 O8 2.089 1_545 S
Mn6 O11 2.251 . S
Mn6 O12 2.087 . S
O7 Mn1 2.196 . S
O7 C17 1.244 . S
O8 Mn6 2.089 1_565 S
O8 C15 1.256 . S
O9 Mn1 2.126 1_556 S
O9 C18 1.239 . S
O10 Mn3 2.089 . S
O10 C18 1.256 1_655 S
O11 Mn6 2.251 . S
O11 C16 1.241 . S
O12 Mn6 2.087 . S
O12 C17 1.256 . S
C13 O19 1.278 1_554 S
C13 O20 1.235 1_554 S
C14 O0 1.244 1_656 S
C14 O2 1.256 . S
C15 O4 1.239 1_554 S
C15 O8 1.256 . S
C16 O5 1.278 . S
C16 O11 1.241 . S
C17 O7 1.244 . S
C17 O12 1.256 . S
C18 O9 1.239 . S
C18 O10 1.256 1_455 S
O19 Mn1 2.215 1_666 S
O19 Mn3 2.290 1_565 S
O19 C13 1.278 1_556 S
O20 Mn3 2.272 1_565 S
O20 C13 1.235 1_556 S
O21 Mn22 2.163 . S
O21 C35 1.244 . S
Mn22 O21 2.163 . S
Mn22 O25 2.160 . S
Mn22 O26 2.221 . S
Mn22 O28 2.163 . S
Mn22 O30 2.160 . S
Mn22 O40 2.221 . S
O23 Mn24 2.087 . S
O23 C35 1.256 . S
Mn24 O23 2.087 . S
Mn24 O31 2.089 . S
Mn24 O40 2.290 . S
Mn24 O41 2.251 . S
O25 Mn22 2.160 . S
O25 C36 1.239 . S
O26 Mn22 2.221 . S
O26 Mn27 2.290 . S
O26 C37 1.278 . S
Mn27 O26 2.290 . S
Mn27 O29 2.089 . S
Mn27 O32 2.251 . S
Mn27 O33 2.087 . S
O28 Mn22 2.163 . S
O28 C38 1.244 . S
O29 Mn27 2.089 . S
O29 C36 1.256 . S
O30 Mn22 2.160 . S
O30 C39 1.239 . S
O31 Mn24 2.089 . S
O31 C39 1.256 . S
O32 Mn27 2.251 . S
O32 C37 1.241 . S
O33 Mn27 2.087 . S
O33 C38 1.256 . S
C34 O40 1.278 . S
C34 O41 1.241 . S
C35 O21 1.244 . S
C35 O23 1.256 . S
C36 O25 1.239 . S
C36 O29 1.256 . S
C37 O26 1.278 . S
C37 O32 1.241 . S
C38 O28 1.244 . S
C38 O33 1.256 . S
C39 O30 1.239 . S
C39 O31 1.256 . S
O40 Mn22 2.221 . S
O40 Mn24 2.290 . S
O40 C34 1.278 . S
O41 Mn24 2.251 . S
O41 C34 1.241 . S
H42 C49 0.929 . S
H43 C52 0.923 1_655 S
H44 C54 0.929 . S
H45 C46 0.969 . S
C46 H45 0.969 . S
C46 O47 1.550 1_655 S
C46 H48 0.973 . S
O47 C46 1.550 1_455 S
O47 C53 1.412 . S
H48 C46 0.973 . S
C49 H42 0.929 . S
C49 C50 1.400 . S
C49 C51 1.364 . S
C50 C49 1.400 . S
C50 C54 1.377 . S
C51 C49 1.364 . S
C51 C52 1.374 1_565 S
C52 H43 0.923 1_455 S
C52 C51 1.374 1_545 S
C52 C53 1.383 . S
C53 O47 1.412 . S
C53 C52 1.383 . S
C53 C54 1.394 1_545 S
C54 H44 0.929 . S
C54 C50 1.377 . S
C54 C53 1.394 1_565 S
H55 C62 0.929 . S
H56 C65 0.930 . S
H57 C67 0.929 . S
H58 C59 0.969 . S
C59 H58 0.969 . S
C59 O60 1.550 . S
C59 H61 0.973 1_545 S
O60 C59 1.550 . S
O60 C66 1.412 . S
H61 C59 0.973 1_565 S
C62 H55 0.929 . S
C62 C63 1.400 . S
C62 C64 1.364 . S
C63 C62 1.400 . S
C63 C67 1.377 . S
C64 C62 1.364 . S
C64 C65 1.374 1_455 S
C65 H56 0.930 . S
C65 C64 1.374 1_655 S
C65 C66 1.383 . S
C66 O60 1.412 . S
C66 C65 1.383 . S
C66 C67 1.394 1_655 S
C67 H57 0.929 . S
C67 C63 1.377 . S
C67 C66 1.394 1_455 S
H68 C75 0.929 . S
H69 C78 0.930 . S
H70 C80 0.929 . S
H71 C72 0.969 . S
C72 H71 0.969 . S
C72 O73 1.550 . S
C72 H74 0.973 . S
O73 C72 1.550 . S
O73 C79 1.412 . S
H74 C72 0.973 . S
C75 H68 0.929 . S
C75 C76 1.400 . S
C75 C77 1.364 . S
C76 C75 1.400 . S
C76 C80 1.377 . S
C77 C75 1.364 . S
C77 C78 1.374 . S
C78 H69 0.930 . S
C78 C77 1.374 . S
C78 C79 1.383 . S
C79 O73 1.412 . S
C79 C78 1.383 . S
C79 C80 1.394 . S
C80 H70 0.929 . S
C80 C76 1.377 . S
C80 C79 1.394 . S
H81 C88 0.929 . S
H82 C91 0.930 . S
H83 C93 0.929 . S
H84 C85 0.969 . S
C85 H84 0.969 . S
C85 O86 1.550 . S
C85 H87 0.973 . S
O86 C85 1.550 . S
O86 C92 1.412 . S
H87 C85 0.973 . S
C88 H81 0.929 . S
C88 C89 1.400 . S
C88 C90 1.364 . S
C89 C88 1.400 . S
C89 C93 1.377 . S
C90 C88 1.364 . S
C90 C91 1.374 . S
C91 H82 0.930 . S
C91 C90 1.374 . S
C91 C92 1.383 . S
C92 O86 1.412 . S
C92 C91 1.383 . S
C92 C93 1.394 . S
C93 H83 0.929 . S
C93 C89 1.377 . S
C93 C92 1.394 . S
C94 C95 1.386 . S
C94 C96 1.383 . S
C94 H110 0.951 . S
C95 C94 1.386 . S
C95 C99 1.383 . S
C96 C94 1.383 . S
C96 C97 1.402 . S
C96 H111 0.951 . S
C97 C96 1.402 . S
C97 C98 1.375 . S
C97 C100 1.481 . S
C98 C97 1.375 . S
C98 C99 1.367 . S
C98 H112 0.952 . S
C99 C95 1.383 . S
C99 C98 1.367 . S
C99 H113 0.950 1_554 S
C100 C97 1.481 . S
C100 C101 1.297 . S
C100 H114 0.950 . S
C101 C100 1.297 . S
C101 C102 1.479 . S
C101 H115 0.950 . S
C102 C101 1.479 . S
C102 C103 1.375 . S
C102 C108 1.404 . S
C103 C102 1.375 . S
C103 C104 1.369 . S
C103 H116 0.950 . S
C104 C103 1.369 . S
C104 C105 1.392 . S
C104 H117 0.951 . S
C105 C104 1.392 . S
C105 C107 1.384 . S
H106 C108 0.949 . S
C107 C105 1.384 . S
C107 C108 1.385 . S
C107 H109 0.950 . S
C108 C102 1.404 . S
C108 H106 0.949 . S
C108 C107 1.385 . S
H109 C107 0.950 . S
H110 C94 0.951 . S
H111 C96 0.951 . S
H112 C98 0.952 . S
H113 C99 0.950 1_556 S
H114 C100 0.950 . S
H115 C101 0.950 . S
H116 C103 0.950 . S
H117 C104 0.951 . S
C118 C119 1.386 . S
C118 C120 1.383 . S
C118 H134 0.951 . S
C119 C118 1.386 . S
C119 C123 1.383 1_554 S
C120 C118 1.383 . S
C120 C121 1.402 1_554 S
C120 H135 0.951 . S
C121 C120 1.402 1_556 S
C121 C122 1.375 . S
C121 C124 1.481 . S
C122 C121 1.375 . S
C122 C123 1.367 . S
C122 H136 0.951 . S
C123 C119 1.383 1_556 S
C123 C122 1.367 . S
C123 H137 0.950 . S
C124 C121 1.481 . S
C124 C125 1.297 1_556 S
C124 H138 0.950 . S
C125 C124 1.297 1_554 S
C125 C126 1.479 1_554 S
C125 H139 0.950 . S
C126 C125 1.479 1_556 S
C126 C127 1.375 1_556 S
C126 C132 1.404 . S
C127 C126 1.375 1_554 S
C127 C128 1.369 . S
C127 H140 0.950 . S
C128 C127 1.369 . S
C128 C129 1.392 1_554 S
C128 H141 0.951 . S
C129 C128 1.392 1_556 S
C129 C131 1.384 . S
H130 C132 0.949 . S
C131 C129 1.384 . S
C131 C132 1.385 . S
C131 H133 0.950 . S
C132 C126 1.404 . S
C132 H130 0.949 . S
C132 C131 1.385 . S
H133 C131 0.950 . S
H134 C118 0.951 . S
H135 C120 0.951 . S
H136 C122 0.951 . S
H137 C123 0.950 . S
H138 C124 0.950 . S
H139 C125 0.950 . S
H140 C127 0.950 . S
H141 C128 0.951 . S
C142 C143 1.386 . S
C142 C144 1.383 . S
C142 H158 0.951 1_554 S
C143 C142 1.386 . S
C143 C147 1.383 . S
C144 C142 1.383 . S
C144 C145 1.402 . S
C144 H159 0.951 1_554 S
C145 C144 1.402 . S
C145 C146 1.375 . S
C145 C148 1.481 . S
C146 C145 1.375 . S
C146 C147 1.367 . S
C146 H160 0.951 . S
C147 C143 1.383 . S
C147 C146 1.367 . S
C147 H161 0.950 . S
C148 C145 1.481 . S
C148 C149 1.297 . S
C148 H162 0.950 . S
C149 C148 1.297 . S
C149 C150 1.479 . S
C149 H163 0.950 . S
C150 C149 1.479 . S
C150 C151 1.375 . S
C150 C156 1.404 . S
C151 C150 1.375 . S
C151 C152 1.369 . S
C151 H164 0.950 . S
C152 C151 1.369 . S
C152 C153 1.392 . S
C152 H165 0.951 . S
C153 C152 1.392 . S
C153 C155 1.384 . S
H154 C156 0.949 . S
C155 C153 1.384 . S
C155 C156 1.385 . S
C155 H157 0.950 . S
C156 C150 1.404 . S
C156 H154 0.949 . S
C156 C155 1.385 . S
H157 C155 0.950 . S
H158 C142 0.951 1_556 S
H159 C144 0.951 1_556 S
H160 C146 0.951 . S
H161 C147 0.950 . S
H162 C148 0.950 . S
H163 C149 0.950 . S
H164 C151 0.950 . S
H165 C152 0.951 . S
C166 C167 1.386 1_554 S
C166 C168 1.383 . S
C166 H182 0.951 . S
C167 C166 1.386 1_556 S
C167 C171 1.383 . S
C168 C166 1.383 . S
C168 C169 1.402 1_554 S
C168 H183 0.951 . S
C169 C168 1.402 1_556 S
C169 C170 1.375 . S
C169 C172 1.481 . S
C170 C169 1.375 . S
C170 C171 1.367 . S
C170 H184 0.951 . S
C171 C167 1.383 . S
C171 C170 1.367 . S
C171 H185 0.950 . S
C172 C169 1.481 . S
C172 C173 1.297 . S
C172 H186 0.950 . S
C173 C172 1.297 . S
C173 C174 1.479 . S
C173 H187 0.950 1_556 S
C174 C173 1.479 . S
C174 C175 1.361 1_556 S
C174 C180 1.404 . S
C175 C174 1.361 1_554 S
C175 C176 1.365 1_554 S
C175 H188 0.968 . S
C176 C175 1.365 1_556 S
C176 C177 1.392 . S
C176 H189 0.951 1_556 S
C177 C176 1.392 . S
C177 C179 1.384 . S
H178 C180 0.949 . S
C179 C177 1.384 . S
C179 C180 1.385 . S
C179 H181 0.950 . S
C180 C174 1.404 . S
C180 H178 0.949 . S
C180 C179 1.385 . S
H181 C179 0.950 . S
H182 C166 0.951 . S
H183 C168 0.951 . S
H184 C170 0.951 . S
H185 C171 0.950 . S
H186 C172 0.950 . S
H187 C173 0.950 1_554 S
H188 C175 0.968 . S
H189 C176 0.951 1_554 S
C190 C191 1.386 . S
C190 C192 1.383 . S
C190 H206 0.951 . S
C191 C190 1.386 . S
C191 C195 1.383 . S
C192 C190 1.383 . S
C192 C193 1.402 . S
C192 H207 0.951 . S
C193 C192 1.402 . S
C193 C194 1.375 . S
C193 C196 1.481 . S
C194 C193 1.375 . S
C194 C195 1.367 . S
C194 H208 0.951 . S
C195 C191 1.383 . S
C195 C194 1.367 . S
C195 H209 0.950 . S
C196 C193 1.481 . S
C196 C197 1.297 . S
C196 H210 0.950 . S
C197 C196 1.297 . S
C197 C198 1.479 . S
C197 H211 0.950 . S
C198 C197 1.479 . S
C198 C199 1.375 . S
C198 C204 1.404 . S
C199 C198 1.375 . S
C199 C200 1.369 . S
C199 H212 0.950 . S
C200 C199 1.369 . S
C200 C201 1.392 . S
C200 H213 0.951 . S
C201 C200 1.392 . S
C201 C203 1.384 . S
H202 C204 0.949 . S
C203 C201 1.384 . S
C203 C204 1.385 . S
C203 H205 0.950 . S
C204 C198 1.404 . S
C204 H202 0.949 . S
C204 C203 1.385 . S
H205 C203 0.950 . S
H206 C190 0.951 . S
H207 C192 0.951 . S
H208 C194 0.951 . S
H209 C195 0.950 . S
H210 C196 0.950 . S
H211 C197 0.950 . S
H212 C199 0.950 . S
H213 C200 0.951 . S
C214 C215 1.386 . S
C214 C216 1.383 . S
C214 H230 0.951 . S
C215 C214 1.386 . S
C215 C219 1.383 . S
C216 C214 1.383 . S
C216 C217 1.402 . S
C216 H231 0.951 . S
C217 C216 1.402 . S
C217 C218 1.375 . S
C217 C220 1.481 . S
C218 C217 1.375 . S
C218 C219 1.367 . S
C218 H232 0.951 . S
C219 C215 1.383 . S
C219 C218 1.367 . S
C219 H233 0.950 . S
C220 C217 1.481 . S
C220 C221 1.297 . S
C220 H234 0.950 . S
C221 C220 1.297 . S
C221 C222 1.479 . S
C221 H235 0.950 . S
C222 C221 1.479 . S
C222 C223 1.375 . S
C222 C228 1.404 . S
C223 C222 1.375 . S
C223 C224 1.369 . S
C223 H236 0.950 . S
C224 C223 1.369 . S
C224 C225 1.392 . S
C224 H237 0.951 . S
C225 C224 1.392 . S
C225 C227 1.384 . S
H226 C228 0.949 . S
C227 C225 1.384 . S
C227 C228 1.385 . S
C227 H229 0.950 . S
C228 C222 1.404 . S
C228 H226 0.949 . S
C228 C227 1.385 . S
H229 C227 0.950 . S
H230 C214 0.951 . S
H231 C216 0.951 . S
H232 C218 0.951 . S
H233 C219 0.950 . S
H234 C220 0.950 . S
H235 C221 0.950 . S
H236 C223 0.950 . S
H237 C224 0.951 . S
C238 C239 1.386 . S
C238 C240 1.383 . S
C238 H254 0.951 . S
C239 C238 1.386 . S
C239 C243 1.383 . S
C240 C238 1.383 . S
C240 C241 1.402 . S
C240 H255 0.951 . S
C241 C240 1.402 . S
C241 C242 1.375 . S
C241 C244 1.481 . S
C242 C241 1.375 . S
C242 C243 1.367 . S
C242 H256 0.951 . S
C243 C239 1.383 . S
C243 C242 1.367 . S
C243 H257 0.950 . S
C244 C241 1.481 . S
C244 C245 1.297 . S
C244 H258 0.950 . S
C245 C244 1.297 . S
C245 C246 1.479 . S
C245 H259 0.950 . S
C246 C245 1.479 . S
C246 C247 1.375 . S
C246 C252 1.404 . S
C247 C246 1.375 . S
C247 C248 1.369 . S
C247 H260 0.950 . S
C248 C247 1.369 . S
C248 C249 1.392 . S
C248 H261 0.951 . S
C249 C248 1.392 . S
C249 C251 1.384 . S
H250 C252 0.949 . S
C251 C249 1.384 . S
C251 C252 1.385 . S
C251 H253 0.950 . S
C252 C246 1.404 . S
C252 H250 0.949 . S
C252 C251 1.385 . S
H253 C251 0.950 . S
H254 C238 0.951 . S
H255 C240 0.951 . S
H256 C242 0.951 . S
H257 C243 0.950 . S
H258 C244 0.950 . S
H259 C245 0.950 . S
H260 C247 0.950 . S
H261 C248 0.951 . S
C262 C263 1.386 . S
C262 C264 1.383 . S
C262 H278 0.951 . S
C263 C262 1.386 . S
C263 C267 1.383 . S
C264 C262 1.383 . S
C264 C265 1.402 . S
C264 H279 0.951 . S
C265 C264 1.402 . S
C265 C266 1.375 . S
C265 C268 1.481 . S
C266 C265 1.375 . S
C266 C267 1.367 . S
C266 H280 0.951 . S
C267 C263 1.383 . S
C267 C266 1.367 . S
C267 H281 0.950 . S
C268 C265 1.481 . S
C268 C269 1.297 . S
C268 H282 0.950 . S
C269 C268 1.297 . S
C269 C270 1.479 . S
C269 H283 0.950 . S
C270 C269 1.479 . S
C270 C271 1.375 . S
C270 C276 1.404 . S
C271 C270 1.375 . S
C271 C272 1.369 . S
C271 H284 0.950 . S
C272 C271 1.369 . S
C272 C273 1.392 . S
C272 H285 0.951 . S
C273 C272 1.392 . S
C273 C275 1.384 . S
H274 C276 0.949 . S
C275 C273 1.384 . S
C275 C276 1.385 . S
C275 H277 0.950 . S
C276 C270 1.404 . S
C276 H274 0.949 . S
C276 C275 1.385 . S
H277 C275 0.950 . S
H278 C262 0.951 . S
H279 C264 0.951 . S
H280 C266 0.951 . S
H281 C267 0.950 . S
H282 C268 0.950 . S
H283 C269 0.950 . S
H284 C271 0.950 . S
H285 C272 0.951 . S
C286 C287 1.386 1_565 S
C286 C288 1.383 . S
C286 H302 0.951 . S
C287 C286 1.386 1_545 S
C287 C291 1.383 . S
C288 C286 1.383 . S
C288 C289 1.402 1_565 S
C288 H303 0.951 . S
C289 C288 1.402 1_545 S
C289 C290 1.375 . S
C289 C292 1.481 . S
C290 C289 1.375 . S
C290 C291 1.367 . S
C290 H304 0.951 . S
C291 C287 1.383 . S
C291 C290 1.367 . S
C291 H305 0.950 . S
C292 C289 1.481 . S
C292 C293 1.297 1_545 S
C292 H306 0.950 . S
C293 C292 1.297 1_565 S
C293 C294 1.479 . S
C293 H307 0.950 . S
C294 C293 1.479 . S
C294 C295 1.375 . S
C294 C300 1.404 1_565 S
C295 C294 1.375 . S
C295 C296 1.369 . S
C295 H308 0.950 . S
C296 C295 1.369 . S
C296 C297 1.392 . S
C296 H309 0.951 1_455 S
C297 C296 1.392 . S
C297 C299 1.384 1_565 S
H298 C300 0.949 . S
C299 C297 1.384 1_545 S
C299 C300 1.385 . S
C299 H301 0.950 . S
C300 C294 1.404 1_545 S
C300 H298 0.949 . S
C300 C299 1.385 . S
H301 C299 0.950 . S
H302 C286 0.951 . S
H303 C288 0.951 . S
H304 C290 0.951 . S
H305 C291 0.950 . S
H306 C292 0.950 . S
H307 C293 0.950 . S
H308 C295 0.950 . S
H309 C296 0.951 1_655 S
C310 C311 1.386 . S
C310 C312 1.383 . S
C310 H326 0.950 . S
C311 C310 1.386 . S
C311 C315 1.383 . S
C312 C310 1.383 . S
C312 C313 1.402 . S
C312 H327 0.951 1_455 S
C313 C312 1.402 . S
C313 C314 1.375 . S
C313 C316 1.481 . S
C314 C313 1.375 . S
C314 C315 1.367 . S
C314 H328 0.951 . S
C315 C311 1.383 . S
C315 C314 1.367 . S
C315 H329 0.950 . S
C316 C313 1.481 . S
C316 C317 1.297 . S
C316 H330 0.950 . S
C317 C316 1.297 . S
C317 C318 1.479 . S
C317 H331 0.950 1_455 S
C318 C317 1.479 . S
C318 C319 1.375 1_455 S
C318 C324 1.404 . S
C319 C318 1.375 1_655 S
C319 C320 1.369 . S
C319 H332 0.950 . S
C320 C319 1.369 . S
C320 C321 1.392 1_655 S
C320 H333 0.951 . S
C321 C320 1.392 1_455 S
C321 C323 1.384 . S
H322 C324 0.949 . S
C323 C321 1.384 . S
C323 C324 1.385 . S
C323 H325 0.950 . S
C324 C318 1.404 . S
C324 H322 0.949 . S
C324 C323 1.385 . S
H325 C323 0.950 . S
H326 C310 0.950 . S
H327 C312 0.951 1_655 S
H328 C314 0.951 . S
H329 C315 0.950 . S
H330 C316 0.950 . S
H331 C317 0.950 1_655 S
H332 C319 0.950 . S
H333 C320 0.951 . S
C334 C335 1.386 . S
C334 C336 1.383 . S
C334 H350 0.951 . S
C335 C334 1.386 . S
C335 C339 1.383 . S
C336 C334 1.383 . S
C336 C337 1.402 . S
C336 H351 0.951 . S
C337 C336 1.402 . S
C337 C338 1.375 . S
C337 C340 1.481 . S
C338 C337 1.375 . S
C338 C339 1.367 . S
C338 H352 0.951 . S
C339 C335 1.383 . S
C339 C338 1.367 . S
C339 H353 0.950 . S
C340 C337 1.481 . S
C340 C341 1.297 . S
C340 H354 0.950 . S
C341 C340 1.297 . S
C341 C342 1.479 . S
C341 H355 0.950 . S
C342 C341 1.479 . S
C342 C343 1.375 . S
C342 C348 1.404 . S
C343 C342 1.375 . S
C343 C344 1.369 . S
C343 H356 0.950 . S
C344 C343 1.369 . S
C344 C345 1.392 . S
C344 H357 0.951 . S
C345 C344 1.392 . S
C345 C347 1.384 . S
H346 C348 0.949 . S
C347 C345 1.384 . S
C347 C348 1.385 . S
C347 H349 0.950 . S
C348 C342 1.404 . S
C348 H346 0.949 . S
C348 C347 1.385 . S
H349 C347 0.950 . S
H350 C334 0.951 . S
H351 C336 0.951 . S
H352 C338 0.951 . S
H353 C339 0.950 . S
H354 C340 0.950 . S
H355 C341 0.950 . S
H356 C343 0.950 . S
H357 C344 0.951 . S
C358 C359 1.386 . S
C358 C360 1.383 . S
C358 H374 0.951 . S
C359 C358 1.386 . S
C359 C363 1.383 . S
C360 C358 1.383 . S
C360 C361 1.402 . S
C360 H375 0.951 . S
C361 C360 1.402 . S
C361 C362 1.375 . S
C361 C364 1.481 . S
C362 C361 1.375 . S
C362 C363 1.367 . S
C362 H376 0.951 . S
C363 C359 1.383 . S
C363 C362 1.367 . S
C363 H377 0.950 . S
C364 C361 1.481 . S
C364 C365 1.297 . S
C364 H378 0.950 . S
C365 C364 1.297 . S
C365 C366 1.479 . S
C365 H379 0.950 . S
C366 C365 1.479 . S
C366 C367 1.375 . S
C366 C372 1.404 . S
C367 C366 1.375 . S
C367 C368 1.369 . S
C367 H380 0.950 . S
C368 C367 1.369 . S
C368 C369 1.392 . S
C368 H381 0.951 . S
C369 C368 1.392 . S
C369 C371 1.384 . S
H370 C372 0.949 . S
C371 C369 1.384 . S
C371 C372 1.385 . S
C371 H373 0.950 . S
C372 C366 1.404 . S
C372 H370 0.949 . S
C372 C371 1.385 . S
H373 C371 0.950 . S
H374 C358 0.951 . S
H375 C360 0.951 . S
H376 C362 0.951 . S
H377 C363 0.950 . S
H378 C364 0.950 . S
H379 C365 0.950 . S
H380 C367 0.950 . S
H381 C368 0.951 . S
C105 C85 1.356 . S
C95 C16 1.271 . S
C119 C15 1.451 . S
C129 C72 1.326 . S
C143 C13 1.374 . S
C153 C89 1.548 . S
C167 C14 1.422 . S
C177 C76 1.452 . S
C191 C37 1.176 . S
C201 C59 1.229 1_565 S
C215 C36 1.429 . S
C225 C46 1.244 . S
C249 C63 1.541 . S
C239 C34 1.382 . S
C273 C50 1.444 . S
C263 C35 1.386 . S
C287 C17 1.538 . S
C297 C51 1.598 . S
C311 C18 1.411 . S
C321 C64 1.467 . S
C345 C77 1.613 . S
C335 C38 1.584 . S
C359 C39 1.387 . S
C369 C90 1.445 . S
