# Generated by pormake.
# Topology tbo, (3,4)-cn, num edge types: 1
# Building blocks:
#     Node 0, Type 0, BuildingBlock: WUSLED_clean_sbu_0, # of connection points: 3
#     Node 1, Type 0, BuildingBlock: WUSLED_clean_sbu_0, # of connection points: 3
#     Node 2, Type 0, BuildingBlock: WUSLED_clean_sbu_0, # of connection points: 3
#     Node 3, Type 0, BuildingBlock: WUSLED_clean_sbu_0, # of connection points: 3
#     Node 4, Type 0, BuildingBlock: WUSLED_clean_sbu_0, # of connection points: 3
#     Node 5, Type 0, BuildingBlock: WUSLED_clean_sbu_0, # of connection points: 3
#     Node 6, Type 0, BuildingBlock: WUSLED_clean_sbu_0, # of connection points: 3
#     Node 7, Type 0, BuildingBlock: WUSLED_clean_sbu_0, # of connection points: 3
#     Node 8, Type 0, BuildingBlock: WUSLED_clean_sbu_0, # of connection points: 3
#     Node 9, Type 0, BuildingBlock: WUSLED_clean_sbu_0, # of connection points: 3
#     Node 10, Type 0, BuildingBlock: WUSLED_clean_sbu_0, # of connection points: 3
#     Node 11, Type 0, BuildingBlock: WUSLED_clean_sbu_0, # of connection points: 3
#     Node 12, Type 0, BuildingBlock: WUSLED_clean_sbu_0, # of connection points: 3
#     Node 13, Type 0, BuildingBlock: WUSLED_clean_sbu_0, # of connection points: 3
#     Node 14, Type 0, BuildingBlock: WUSLED_clean_sbu_0, # of connection points: 3
#     Node 15, Type 0, BuildingBlock: WUSLED_clean_sbu_0, # of connection points: 3
#     Node 16, Type 0, BuildingBlock: WUSLED_clean_sbu_0, # of connection points: 3
#     Node 17, Type 0, BuildingBlock: WUSLED_clean_sbu_0, # of connection points: 3
#     Node 18, Type 0, BuildingBlock: WUSLED_clean_sbu_0, # of connection points: 3
#     Node 19, Type 0, BuildingBlock: WUSLED_clean_sbu_0, # of connection points: 3
#     Node 20, Type 0, BuildingBlock: WUSLED_clean_sbu_0, # of connection points: 3
#     Node 21, Type 0, BuildingBlock: WUSLED_clean_sbu_0, # of connection points: 3
#     Node 22, Type 0, BuildingBlock: WUSLED_clean_sbu_0, # of connection points: 3
#     Node 23, Type 0, BuildingBlock: WUSLED_clean_sbu_0, # of connection points: 3
#     Node 24, Type 0, BuildingBlock: WUSLED_clean_sbu_0, # of connection points: 3
#     Node 25, Type 0, BuildingBlock: WUSLED_clean_sbu_0, # of connection points: 3
#     Node 26, Type 0, BuildingBlock: WUSLED_clean_sbu_0, # of connection points: 3
#     Node 27, Type 0, BuildingBlock: WUSLED_clean_sbu_0, # of connection points: 3
#     Node 28, Type 0, BuildingBlock: WUSLED_clean_sbu_0, # of connection points: 3
#     Node 29, Type 0, BuildingBlock: WUSLED_clean_sbu_0, # of connection points: 3
#     Node 30, Type 0, BuildingBlock: WUSLED_clean_sbu_0, # of connection points: 3
#     Node 31, Type 0, BuildingBlock: WUSLED_clean_sbu_0, # of connection points: 3
#     Node 32, Type 1, BuildingBlock: MUDLON_clean_linker_0, # of connection points: 4
#     Node 33, Type 1, BuildingBlock: MUDLON_clean_linker_0, # of connection points: 4
#     Node 34, Type 1, BuildingBlock: MUDLON_clean_linker_0, # of connection points: 4
#     Node 35, Type 1, BuildingBlock: MUDLON_clean_linker_0, # of connection points: 4
#     Node 36, Type 1, BuildingBlock: MUDLON_clean_linker_0, # of connection points: 4
#     Node 37, Type 1, BuildingBlock: MUDLON_clean_linker_0, # of connection points: 4
#     Node 38, Type 1, BuildingBlock: MUDLON_clean_linker_0, # of connection points: 4
#     Node 39, Type 1, BuildingBlock: MUDLON_clean_linker_0, # of connection points: 4
#     Node 40, Type 1, BuildingBlock: MUDLON_clean_linker_0, # of connection points: 4
#     Node 41, Type 1, BuildingBlock: MUDLON_clean_linker_0, # of connection points: 4
#     Node 42, Type 1, BuildingBlock: MUDLON_clean_linker_0, # of connection points: 4
#     Node 43, Type 1, BuildingBlock: MUDLON_clean_linker_0, # of connection points: 4
#     Node 44, Type 1, BuildingBlock: MUDLON_clean_linker_0, # of connection points: 4
#     Node 45, Type 1, BuildingBlock: MUDLON_clean_linker_0, # of connection points: 4
#     Node 46, Type 1, BuildingBlock: MUDLON_clean_linker_0, # of connection points: 4
#     Node 47, Type 1, BuildingBlock: MUDLON_clean_linker_0, # of connection points: 4
#     Node 48, Type 1, BuildingBlock: MUDLON_clean_linker_0, # of connection points: 4
#     Node 49, Type 1, BuildingBlock: MUDLON_clean_linker_0, # of connection points: 4
#     Node 50, Type 1, BuildingBlock: MUDLON_clean_linker_0, # of connection points: 4
#     Node 51, Type 1, BuildingBlock: MUDLON_clean_linker_0, # of connection points: 4
#     Node 52, Type 1, BuildingBlock: MUDLON_clean_linker_0, # of connection points: 4
#     Node 53, Type 1, BuildingBlock: MUDLON_clean_linker_0, # of connection points: 4
#     Node 54, Type 1, BuildingBlock: MUDLON_clean_linker_0, # of connection points: 4
#     Node 55, Type 1, BuildingBlock: MUDLON_clean_linker_0, # of connection points: 4
#     Edge 56, Type (0, 1), BuildingBlock: ZUJKAS_clean_linker_0, # of connection points: 2
#     Edge 57, Type (0, 1), BuildingBlock: ZUJKAS_clean_linker_0, # of connection points: 2
#     Edge 58, Type (0, 1), BuildingBlock: ZUJKAS_clean_linker_0, # of connection points: 2
#     Edge 59, Type (0, 1), BuildingBlock: ZUJKAS_clean_linker_0, # of connection points: 2
#     Edge 60, Type (0, 1), BuildingBlock: ZUJKAS_clean_linker_0, # of connection points: 2
#     Edge 61, Type (0, 1), BuildingBlock: ZUJKAS_clean_linker_0, # of connection points: 2
#     Edge 62, Type (0, 1), BuildingBlock: ZUJKAS_clean_linker_0, # of connection points: 2
#     Edge 63, Type (0, 1), BuildingBlock: ZUJKAS_clean_linker_0, # of connection points: 2
#     Edge 64, Type (0, 1), BuildingBlock: ZUJKAS_clean_linker_0, # of connection points: 2
#     Edge 65, Type (0, 1), BuildingBlock: ZUJKAS_clean_linker_0, # of connection points: 2
#     Edge 66, Type (0, 1), BuildingBlock: ZUJKAS_clean_linker_0, # of connection points: 2
#     Edge 67, Type (0, 1), BuildingBlock: ZUJKAS_clean_linker_0, # of connection points: 2
#     Edge 68, Type (0, 1), BuildingBlock: ZUJKAS_clean_linker_0, # of connection points: 2
#     Edge 69, Type (0, 1), BuildingBlock: ZUJKAS_clean_linker_0, # of connection points: 2
#     Edge 70, Type (0, 1), BuildingBlock: ZUJKAS_clean_linker_0, # of connection points: 2
#     Edge 71, Type (0, 1), BuildingBlock: ZUJKAS_clean_linker_0, # of connection points: 2
#     Edge 72, Type (0, 1), BuildingBlock: ZUJKAS_clean_linker_0, # of connection points: 2
#     Edge 73, Type (0, 1), BuildingBlock: ZUJKAS_clean_linker_0, # of connection points: 2
#     Edge 74, Type (0, 1), BuildingBlock: ZUJKAS_clean_linker_0, # of connection points: 2
#     Edge 75, Type (0, 1), BuildingBlock: ZUJKAS_clean_linker_0, # of connection points: 2
#     Edge 76, Type (0, 1), BuildingBlock: ZUJKAS_clean_linker_0, # of connection points: 2
#     Edge 77, Type (0, 1), BuildingBlock: ZUJKAS_clean_linker_0, # of connection points: 2
#     Edge 78, Type (0, 1), BuildingBlock: ZUJKAS_clean_linker_0, # of connection points: 2
#     Edge 79, Type (0, 1), BuildingBlock: ZUJKAS_clean_linker_0, # of connection points: 2
#     Edge 80, Type (0, 1), BuildingBlock: ZUJKAS_clean_linker_0, # of connection points: 2
#     Edge 81, Type (0, 1), BuildingBlock: ZUJKAS_clean_linker_0, # of connection points: 2
#     Edge 82, Type (0, 1), BuildingBlock: ZUJKAS_clean_linker_0, # of connection points: 2
#     Edge 83, Type (0, 1), BuildingBlock: ZUJKAS_clean_linker_0, # of connection points: 2
#     Edge 84, Type (0, 1), BuildingBlock: ZUJKAS_clean_linker_0, # of connection points: 2
#     Edge 85, Type (0, 1), BuildingBlock: ZUJKAS_clean_linker_0, # of connection points: 2
#     Edge 86, Type (0, 1), BuildingBlock: ZUJKAS_clean_linker_0, # of connection points: 2
#     Edge 87, Type (0, 1), BuildingBlock: ZUJKAS_clean_linker_0, # of connection points: 2
#     Edge 88, Type (0, 1), BuildingBlock: ZUJKAS_clean_linker_0, # of connection points: 2
#     Edge 89, Type (0, 1), BuildingBlock: ZUJKAS_clean_linker_0, # of connection points: 2
#     Edge 90, Type (0, 1), BuildingBlock: ZUJKAS_clean_linker_0, # of connection points: 2
#     Edge 91, Type (0, 1), BuildingBlock: ZUJKAS_clean_linker_0, # of connection points: 2
#     Edge 92, Type (0, 1), BuildingBlock: ZUJKAS_clean_linker_0, # of connection points: 2
#     Edge 93, Type (0, 1), BuildingBlock: ZUJKAS_clean_linker_0, # of connection points: 2
#     Edge 94, Type (0, 1), BuildingBlock: ZUJKAS_clean_linker_0, # of connection points: 2
#     Edge 95, Type (0, 1), BuildingBlock: ZUJKAS_clean_linker_0, # of connection points: 2
#     Edge 96, Type (0, 1), BuildingBlock: ZUJKAS_clean_linker_0, # of connection points: 2
#     Edge 97, Type (0, 1), BuildingBlock: ZUJKAS_clean_linker_0, # of connection points: 2
#     Edge 98, Type (0, 1), BuildingBlock: ZUJKAS_clean_linker_0, # of connection points: 2
#     Edge 99, Type (0, 1), BuildingBlock: ZUJKAS_clean_linker_0, # of connection points: 2
#     Edge 100, Type (0, 1), BuildingBlock: ZUJKAS_clean_linker_0, # of connection points: 2
#     Edge 101, Type (0, 1), BuildingBlock: ZUJKAS_clean_linker_0, # of connection points: 2
#     Edge 102, Type (0, 1), BuildingBlock: ZUJKAS_clean_linker_0, # of connection points: 2
#     Edge 103, Type (0, 1), BuildingBlock: ZUJKAS_clean_linker_0, # of connection points: 2
#     Edge 104, Type (0, 1), BuildingBlock: ZUJKAS_clean_linker_0, # of connection points: 2
#     Edge 105, Type (0, 1), BuildingBlock: ZUJKAS_clean_linker_0, # of connection points: 2
#     Edge 106, Type (0, 1), BuildingBlock: ZUJKAS_clean_linker_0, # of connection points: 2
#     Edge 107, Type (0, 1), BuildingBlock: ZUJKAS_clean_linker_0, # of connection points: 2
#     Edge 108, Type (0, 1), BuildingBlock: ZUJKAS_clean_linker_0, # of connection points: 2
#     Edge 109, Type (0, 1), BuildingBlock: ZUJKAS_clean_linker_0, # of connection points: 2
#     Edge 110, Type (0, 1), BuildingBlock: ZUJKAS_clean_linker_0, # of connection points: 2
#     Edge 111, Type (0, 1), BuildingBlock: ZUJKAS_clean_linker_0, # of connection points: 2
#     Edge 112, Type (0, 1), BuildingBlock: ZUJKAS_clean_linker_0, # of connection points: 2
#     Edge 113, Type (0, 1), BuildingBlock: ZUJKAS_clean_linker_0, # of connection points: 2
#     Edge 114, Type (0, 1), BuildingBlock: ZUJKAS_clean_linker_0, # of connection points: 2
#     Edge 115, Type (0, 1), BuildingBlock: ZUJKAS_clean_linker_0, # of connection points: 2
#     Edge 116, Type (0, 1), BuildingBlock: ZUJKAS_clean_linker_0, # of connection points: 2
#     Edge 117, Type (0, 1), BuildingBlock: ZUJKAS_clean_linker_0, # of connection points: 2
#     Edge 118, Type (0, 1), BuildingBlock: ZUJKAS_clean_linker_0, # of connection points: 2
#     Edge 119, Type (0, 1), BuildingBlock: ZUJKAS_clean_linker_0, # of connection points: 2
#     Edge 120, Type (0, 1), BuildingBlock: ZUJKAS_clean_linker_0, # of connection points: 2
#     Edge 121, Type (0, 1), BuildingBlock: ZUJKAS_clean_linker_0, # of connection points: 2
#     Edge 122, Type (0, 1), BuildingBlock: ZUJKAS_clean_linker_0, # of connection points: 2
#     Edge 123, Type (0, 1), BuildingBlock: ZUJKAS_clean_linker_0, # of connection points: 2
#     Edge 124, Type (0, 1), BuildingBlock: ZUJKAS_clean_linker_0, # of connection points: 2
#     Edge 125, Type (0, 1), BuildingBlock: ZUJKAS_clean_linker_0, # of connection points: 2
#     Edge 126, Type (0, 1), BuildingBlock: ZUJKAS_clean_linker_0, # of connection points: 2
#     Edge 127, Type (0, 1), BuildingBlock: ZUJKAS_clean_linker_0, # of connection points: 2
#     Edge 128, Type (0, 1), BuildingBlock: ZUJKAS_clean_linker_0, # of connection points: 2
#     Edge 129, Type (0, 1), BuildingBlock: ZUJKAS_clean_linker_0, # of connection points: 2
#     Edge 130, Type (0, 1), BuildingBlock: ZUJKAS_clean_linker_0, # of connection points: 2
#     Edge 131, Type (0, 1), BuildingBlock: ZUJKAS_clean_linker_0, # of connection points: 2
#     Edge 132, Type (0, 1), BuildingBlock: ZUJKAS_clean_linker_0, # of connection points: 2
#     Edge 133, Type (0, 1), BuildingBlock: ZUJKAS_clean_linker_0, # of connection points: 2
#     Edge 134, Type (0, 1), BuildingBlock: ZUJKAS_clean_linker_0, # of connection points: 2
#     Edge 135, Type (0, 1), BuildingBlock: ZUJKAS_clean_linker_0, # of connection points: 2
#     Edge 136, Type (0, 1), BuildingBlock: ZUJKAS_clean_linker_0, # of connection points: 2
#     Edge 137, Type (0, 1), BuildingBlock: ZUJKAS_clean_linker_0, # of connection points: 2
#     Edge 138, Type (0, 1), BuildingBlock: ZUJKAS_clean_linker_0, # of connection points: 2
#     Edge 139, Type (0, 1), BuildingBlock: ZUJKAS_clean_linker_0, # of connection points: 2
#     Edge 140, Type (0, 1), BuildingBlock: ZUJKAS_clean_linker_0, # of connection points: 2
#     Edge 141, Type (0, 1), BuildingBlock: ZUJKAS_clean_linker_0, # of connection points: 2
#     Edge 142, Type (0, 1), BuildingBlock: ZUJKAS_clean_linker_0, # of connection points: 2
#     Edge 143, Type (0, 1), BuildingBlock: ZUJKAS_clean_linker_0, # of connection points: 2
#     Edge 144, Type (0, 1), BuildingBlock: ZUJKAS_clean_linker_0, # of connection points: 2
#     Edge 145, Type (0, 1), BuildingBlock: ZUJKAS_clean_linker_0, # of connection points: 2
#     Edge 146, Type (0, 1), BuildingBlock: ZUJKAS_clean_linker_0, # of connection points: 2
#     Edge 147, Type (0, 1), BuildingBlock: ZUJKAS_clean_linker_0, # of connection points: 2
#     Edge 148, Type (0, 1), BuildingBlock: ZUJKAS_clean_linker_0, # of connection points: 2
#     Edge 149, Type (0, 1), BuildingBlock: ZUJKAS_clean_linker_0, # of connection points: 2
#     Edge 150, Type (0, 1), BuildingBlock: ZUJKAS_clean_linker_0, # of connection points: 2
#     Edge 151, Type (0, 1), BuildingBlock: ZUJKAS_clean_linker_0, # of connection points: 2
# Relax obj value: 0.001
# Max RMSD: 0.044
# Mean RMSD: 0.020
data_MOF--net-tbo--node1-WUSLED_clean_sbu_0--node2-MUDLON_clean_linker_0--edge1-ZUJKAS_clean_linker_0
_symmetry_space_group_name_H-M    P1
_symmetry_Int_Tables_number       1
_symmetry_cell_setting            triclinic
loop_
_symmetry_equiv_pos_as_xyz
'x, y, z'
_cell_length_a     140.83268
_cell_length_b     141.2662
_cell_length_c     140.99516
_cell_angle_alpha  89.542507
_cell_angle_beta   90.40823
_cell_angle_gamma 90.953707
loop_
_atom_site_label
_atom_site_type_symbol
_atom_site_fract_x
_atom_site_fract_y
_atom_site_fract_z
_atom_type_partial_charge
C0 C 0.19013 0.15504 0.19396 0.0
C1 C 0.19892 0.15316 0.1898 0.0
C2 C 0.20066 0.13917 0.19992 0.0
C3 C 0.20414 0.14529 0.19276 0.0
C4 C 0.1918 0.14109 0.20398 0.0
C5 C 0.1866 0.14895 0.20103 0.0
U6 U 0.18555 0.17635 0.17769 0.0
O7 O 0.17209 0.18172 0.17197 0.0
O8 O 0.18088 0.19068 0.18129 0.0
C9 C 0.17276 0.18967 0.17673 0.0
C10 C 0.18458 0.16334 0.19109 0.0
C11 C 0.16423 0.19229 0.18202 0.0
C12 C 0.15185 0.18868 0.1935 0.0
C13 C 0.16008 0.1861 0.18869 0.0
C14 C 0.15191 0.20369 0.18507 0.0
C15 C 0.14763 0.1975 0.19171 0.0
C16 C 0.16012 0.20109 0.18027 0.0
C17 C 0.20239 0.1816 0.15684 0.0
C18 C 0.2054 0.19664 0.14875 0.0
C19 C 0.20926 0.18194 0.14106 0.0
C20 C 0.20597 0.17686 0.14896 0.0
C21 C 0.20908 0.19189 0.14088 0.0
C22 C 0.20204 0.19154 0.15664 0.0
C23 C 0.19928 0.17602 0.16518 0.0
O24 O 0.18885 0.1716 0.19222 0.0
O25 O 0.18005 0.16262 0.18294 0.0
O26 O 0.19126 0.17122 0.16419 0.0
O27 O 0.20013 0.18016 0.17348 0.0
H28 H 0.20175 0.1578 0.18433 0.0
H29 H 0.21097 0.1441 0.18954 0.0
H30 H 0.18882 0.13646 0.20939 0.0
H31 H 0.17981 0.15027 0.20429 0.0
H32 H 0.14871 0.1837 0.19849 0.0
H33 H 0.16317 0.17926 0.19013 0.0
H34 H 0.14898 0.21059 0.18363 0.0
H35 H 0.16325 0.20598 0.17517 0.0
H36 H 0.20506 0.20429 0.14879 0.0
H37 H 0.21215 0.17807 0.13517 0.0
H38 H 0.20632 0.1692 0.14897 0.0
H39 H 0.19923 0.19536 0.1626 0.0
C40 C 0.81981 0.18019 0.16043 0.0
C41 C 0.82483 0.18827 0.1573 0.0
C42 C 0.8133 0.19054 0.14453 0.0
C43 C 0.82161 0.1934 0.14941 0.0
C44 C 0.80833 0.1824 0.14771 0.0
C45 C 0.81156 0.17728 0.15559 0.0
U46 U 0.83754 0.17584 0.18053 0.0
O47 O 0.83515 0.17154 0.19535 0.0
O48 O 0.84328 0.16242 0.18597 0.0
C49 C 0.83919 0.1633 0.19425 0.0
C50 C 0.82307 0.17473 0.16871 0.0
C51 C 0.83373 0.15494 0.1976 0.0
C52 C 0.81875 0.14657 0.20033 0.0
C53 C 0.82378 0.15451 0.19691 0.0
C54 C 0.83357 0.13932 0.20494 0.0
C55 C 0.8236 0.1389 0.2044 0.0
C56 C 0.83858 0.14728 0.2016 0.0
C57 C 0.85914 0.19248 0.18337 0.0
C58 C 0.86896 0.19383 0.19756 0.0
C59 C 0.87436 0.2008 0.18276 0.0
C60 C 0.86606 0.19756 0.17826 0.0
C61 C 0.87589 0.19906 0.19249 0.0
C62 C 0.86068 0.19055 0.19303 0.0
C63 C 0.85035 0.18941 0.1785 0.0
O64 O 0.83099 0.1701 0.16754 0.0
O65 O 0.82275 0.17914 0.17687 0.0
O66 O 0.84244 0.19041 0.18327 0.0
O67 O 0.85074 0.1813 0.17403 0.0
H68 H 0.83122 0.19062 0.16098 0.0
H69 H 0.82555 0.19969 0.14722 0.0
H70 H 0.80199 0.17992 0.14405 0.0
H71 H 0.80762 0.17104 0.1579 0.0
H72 H 0.81108 0.1464 0.19972 0.0
H73 H 0.81989 0.16031 0.19376 0.0
H74 H 0.8375 0.13357 0.20813 0.0
H75 H 0.84625 0.14749 0.20219 0.0
H76 H 0.86985 0.19244 0.20508 0.0
H77 H 0.8796 0.20463 0.17858 0.0
H78 H 0.86503 0.19906 0.17078 0.0
H79 H 0.85542 0.18661 0.1971 0.0
C80 C 0.8212 0.83835 0.15759 0.0
C81 C 0.82712 0.83164 0.15349 0.0
C82 C 0.81494 0.82799 0.1416 0.0
C83 C 0.82402 0.82652 0.14554 0.0
C84 C 0.80906 0.83473 0.14578 0.0
C85 C 0.81217 0.83986 0.15369 0.0
U86 U 0.83821 0.84312 0.17842 0.0
O87 O 0.84362 0.85665 0.18408 0.0
O88 O 0.83499 0.84719 0.19308 0.0
C89 C 0.83915 0.85555 0.19218 0.0
C90 C 0.82426 0.84379 0.16596 0.0
C91 C 0.8335 0.86364 0.19521 0.0
C92 C 0.8211 0.87512 0.19236 0.0
C93 C 0.82638 0.8674 0.18935 0.0
C94 C 0.82994 0.87533 0.20716 0.0
C95 C 0.82283 0.8792 0.20132 0.0
C96 C 0.83522 0.86763 0.20413 0.0
C97 C 0.85961 0.82696 0.18232 0.0
C98 C 0.87145 0.8292 0.19479 0.0
C99 C 0.87223 0.81562 0.18445 0.0
C100 C 0.86413 0.81866 0.17961 0.0
C101 C 0.87598 0.82082 0.19213 0.0
C102 C 0.86331 0.83224 0.18993 0.0
C103 C 0.85106 0.82992 0.17711 0.0
O104 O 0.82359 0.83929 0.17413 0.0
O105 O 0.83224 0.84868 0.16507 0.0
O106 O 0.85169 0.83811 0.17265 0.0
O107 O 0.84298 0.82868 0.18161 0.0
H108 H 0.8341 0.83035 0.15645 0.0
H109 H 0.82868 0.82132 0.14256 0.0
H110 H 0.80209 0.83614 0.14286 0.0
H111 H 0.80752 0.84502 0.15676 0.0
H112 H 0.81576 0.87797 0.18763 0.0
H113 H 0.82494 0.86439 0.18243 0.0
H114 H 0.83136 0.87816 0.21416 0.0
H115 H 0.84065 0.86478 0.20877 0.0
H116 H 0.87411 0.83333 0.20071 0.0
H117 H 0.87561 0.80923 0.18211 0.0
H118 H 0.86139 0.81453 0.17373 0.0
H119 H 0.85989 0.83866 0.19213 0.0
C120 C 0.16674 0.81723 0.18366 0.0
C121 C 0.16339 0.82304 0.19089 0.0
C122 C 0.14985 0.81231 0.19335 0.0
C123 C 0.15501 0.8206 0.19569 0.0
C124 C 0.1533 0.80651 0.1861 0.0
C125 C 0.16166 0.80896 0.18131 0.0
U126 U 0.18873 0.83295 0.17984 0.0
O127 O 0.20337 0.82901 0.17633 0.0
O128 O 0.19529 0.83815 0.16665 0.0
C129 C 0.20304 0.83323 0.16799 0.0
C130 C 0.17551 0.81967 0.17853 0.0
C131 C 0.2063 0.82761 0.15988 0.0
C132 C 0.20345 0.81969 0.14482 0.0
C133 C 0.20005 0.8246 0.15266 0.0
C134 C 0.21935 0.8205 0.15143 0.0
C135 C 0.21318 0.81765 0.14406 0.0
C136 C 0.21596 0.82545 0.15923 0.0
C137 C 0.19307 0.85421 0.19618 0.0
C138 C 0.20644 0.86519 0.1945 0.0
C139 C 0.1951 0.86729 0.20711 0.0
C140 C 0.19 0.85931 0.20403 0.0
C141 C 0.20339 0.87034 0.20239 0.0
C142 C 0.20132 0.85718 0.19142 0.0
C143 C 0.18753 0.84587 0.19307 0.0
O144 O 0.17534 0.82761 0.1736 0.0
O145 O 0.18343 0.81862 0.18338 0.0
O146 O 0.19157 0.83764 0.19445 0.0
O147 O 0.18341 0.84662 0.18471 0.0
H148 H 0.16723 0.82946 0.19279 0.0
H149 H 0.15252 0.82528 0.20116 0.0
H150 H 0.1496 0.80001 0.18421 0.0
H151 H 0.16417 0.80437 0.17578 0.0
H152 H 0.19849 0.8177 0.13925 0.0
H153 H 0.19255 0.82614 0.153 0.0
H154 H 0.22684 0.8189 0.15121 0.0
H155 H 0.2209 0.82766 0.16473 0.0
H156 H 0.21284 0.86727 0.19076 0.0
H157 H 0.19246 0.87116 0.21312 0.0
H158 H 0.18362 0.85713 0.20776 0.0
H159 H 0.20381 0.8533 0.18535 0.0
C160 C 0.16733 0.81226 0.83637 0.0
C161 C 0.16208 0.8187 0.83091 0.0
C162 C 0.15062 0.80621 0.82682 0.0
C163 C 0.15378 0.81571 0.8262 0.0
C164 C 0.15603 0.79978 0.83219 0.0
C165 C 0.16429 0.80278 0.83692 0.0
U166 U 0.18817 0.82946 0.8406 0.0
O167 O 0.19422 0.83484 0.85396 0.0
O168 O 0.20302 0.82654 0.84444 0.0
C169 C 0.20234 0.83058 0.85277 0.0
C170 C 0.17593 0.81528 0.84159 0.0
C171 C 0.20569 0.82494 0.8609 0.0
C172 C 0.20324 0.81253 0.87272 0.0
C173 C 0.2 0.8177 0.86487 0.0
C174 C 0.21794 0.82169 0.87263 0.0
C175 C 0.21226 0.81448 0.87671 0.0
C176 C 0.21468 0.82687 0.86481 0.0
C177 C 0.19129 0.8513 0.82464 0.0
C178 C 0.20319 0.86361 0.82764 0.0
C179 C 0.19346 0.86426 0.81341 0.0
C180 C 0.18882 0.85586 0.81615 0.0
C181 C 0.20067 0.86828 0.81914 0.0
C182 C 0.19854 0.85519 0.83036 0.0
C183 C 0.18621 0.84255 0.82743 0.0
O184 O 0.18391 0.81488 0.83685 0.0
O185 O 0.17519 0.82305 0.84657 0.0
O186 O 0.1819 0.84279 0.83566 0.0
O187 O 0.19081 0.83466 0.82608 0.0
H188 H 0.16434 0.82605 0.83038 0.0
H189 H 0.14976 0.82088 0.82221 0.0
H190 H 0.15393 0.79238 0.83268 0.0
H191 H 0.16829 0.7977 0.84104 0.0
H192 H 0.19874 0.80695 0.87562 0.0
H193 H 0.19305 0.81608 0.8619 0.0
H194 H 0.22486 0.82346 0.87559 0.0
H195 H 0.21915 0.83245 0.86184 0.0
H196 H 0.20864 0.86654 0.83226 0.0
H197 H 0.19145 0.86756 0.80675 0.0
H198 H 0.18327 0.85293 0.81162 0.0
H199 H 0.20055 0.85174 0.83695 0.0
C200 C 0.1588 0.17952 0.82943 0.0
C201 C 0.15662 0.18826 0.83347 0.0
C202 C 0.14242 0.18929 0.82352 0.0
C203 C 0.14851 0.19312 0.83053 0.0
C204 C 0.14461 0.18047 0.81959 0.0
C205 C 0.15273 0.17565 0.82251 0.0
U206 U 0.18066 0.17646 0.84533 0.0
O207 O 0.18693 0.16357 0.85134 0.0
O208 O 0.19523 0.17254 0.84155 0.0
C209 C 0.19471 0.1645 0.84629 0.0
C210 C 0.16742 0.17444 0.83225 0.0
C211 C 0.1978 0.15602 0.84115 0.0
C212 C 0.19451 0.14079 0.83375 0.0
C213 C 0.19131 0.14894 0.83824 0.0
C214 C 0.21068 0.1468 0.83478 0.0
C215 C 0.20425 0.13957 0.83203 0.0
C216 C 0.20748 0.15491 0.83932 0.0
C217 C 0.18521 0.1943 0.86543 0.0
C218 C 0.19945 0.19486 0.8753 0.0
C219 C 0.18631 0.20512 0.8787 0.0
C220 C 0.18123 0.20132 0.87104 0.0
C221 C 0.19551 0.20199 0.88091 0.0
C222 C 0.19433 0.19104 0.86762 0.0
C223 C 0.17971 0.19055 0.85734 0.0
O224 O 0.17548 0.17904 0.83081 0.0
O225 O 0.16708 0.17012 0.84053 0.0
O226 O 0.17546 0.1823 0.85873 0.0
O227 O 0.18378 0.1913 0.84901 0.0
H228 H 0.16122 0.19135 0.83885 0.0
H229 H 0.14697 0.19983 0.83379 0.0
H230 H 0.14016 0.17738 0.8141 0.0
H231 H 0.15432 0.16892 0.8193 0.0
H232 H 0.18936 0.13535 0.83182 0.0
H233 H 0.18378 0.14964 0.83953 0.0
H234 H 0.2182 0.14623 0.83341 0.0
H235 H 0.2126 0.16031 0.84145 0.0
H236 H 0.20653 0.19233 0.87674 0.0
H237 H 0.18298 0.21047 0.88295 0.0
H238 H 0.17417 0.20388 0.86949 0.0
H239 H 0.19751 0.1856 0.86336 0.0
C240 C 0.82402 0.15488 0.84098 0.0
C241 C 0.82973 0.1513 0.83377 0.0
C242 C 0.81785 0.139 0.83043 0.0
C243 C 0.82668 0.14341 0.82855 0.0
C244 C 0.81218 0.14262 0.83769 0.0
C245 C 0.81525 0.15049 0.84292 0.0
U246 U 0.84104 0.17572 0.84543 0.0
O247 O 0.83806 0.19036 0.8495 0.0
O248 O 0.8467 0.18142 0.85885 0.0
C249 C 0.84235 0.18952 0.85777 0.0
C250 C 0.82705 0.16323 0.84646 0.0
C251 C 0.83694 0.19272 0.866 0.0
C252 C 0.82295 0.192 0.87599 0.0
C253 C 0.82805 0.18869 0.86823 0.0
C254 C 0.83563 0.20328 0.8794 0.0
C255 C 0.82666 0.19938 0.88164 0.0
C256 C 0.84071 0.19998 0.87165 0.0
C257 C 0.86218 0.17979 0.82887 0.0
C258 C 0.87287 0.19343 0.83006 0.0
C259 C 0.87558 0.18146 0.81821 0.0
C260 C 0.8676 0.17638 0.82138 0.0
C261 C 0.87829 0.19008 0.82247 0.0
C262 C 0.86487 0.18833 0.83323 0.0
C263 C 0.85368 0.17443 0.83191 0.0
O264 O 0.83507 0.1624 0.8512 0.0
O265 O 0.82634 0.17139 0.842 0.0
O266 O 0.84558 0.17881 0.83083 0.0
O267 O 0.85441 0.16998 0.84011 0.0
H268 H 0.83652 0.15465 0.83215 0.0
H269 H 0.83116 0.14087 0.82294 0.0
H270 H 0.80541 0.13933 0.83941 0.0
H271 H 0.81076 0.15315 0.84847 0.0
H272 H 0.81602 0.18889 0.87746 0.0
H273 H 0.82504 0.18306 0.86393 0.0
H274 H 0.83879 0.20886 0.88368 0.0
H275 H 0.84759 0.20313 0.87005 0.0
H276 H 0.8747 0.20008 0.83344 0.0
H277 H 0.87967 0.17859 0.81246 0.0
H278 H 0.86563 0.16978 0.81796 0.0
H279 H 0.86075 0.19107 0.83902 0.0
C280 C 0.83814 0.85956 0.82568 0.0
C281 C 0.82892 0.86125 0.8289 0.0
C282 C 0.82837 0.87582 0.81951 0.0
C283 C 0.82406 0.8693 0.82581 0.0
C284 C 0.83765 0.8741 0.81638 0.0
C285 C 0.84247 0.86604 0.81943 0.0
U286 U 0.84183 0.83835 0.84234 0.0
O287 O 0.84601 0.8238 0.83911 0.0
O288 O 0.85507 0.83266 0.84827 0.0
C289 C 0.85413 0.82462 0.84371 0.0
C290 C 0.84335 0.85109 0.82873 0.0
C291 C 0.86258 0.82154 0.83856 0.0
C292 C 0.87341 0.8228 0.82523 0.0
C293 C 0.86536 0.8259 0.83002 0.0
C294 C 0.87599 0.81101 0.83752 0.0
C295 C 0.87881 0.81528 0.82891 0.0
C296 C 0.86795 0.81411 0.84228 0.0
C297 C 0.82472 0.83408 0.86316 0.0
C298 C 0.8212 0.81929 0.8715 0.0
C299 C 0.81783 0.83425 0.87893 0.0
C300 C 0.82129 0.83908 0.87094 0.0
C301 C 0.81769 0.82429 0.87928 0.0
C302 C 0.82473 0.82414 0.86353 0.0
C303 C 0.82806 0.83942 0.85474 0.0
O304 O 0.84787 0.85179 0.83689 0.0
O305 O 0.83881 0.84296 0.82771 0.0
O306 O 0.8271 0.83516 0.84652 0.0
O307 O 0.83623 0.84395 0.8557 0.0
H308 H 0.82548 0.85634 0.83377 0.0
H309 H 0.81697 0.87046 0.82844 0.0
H310 H 0.84114 0.8789 0.81144 0.0
H311 H 0.84958 0.86484 0.81687 0.0
H312 H 0.87531 0.82619 0.81858 0.0
H313 H 0.86128 0.83166 0.82705 0.0
H314 H 0.88005 0.80532 0.84064 0.0
H315 H 0.86594 0.8107 0.84889 0.0
H316 H 0.82128 0.81162 0.87159 0.0
H317 H 0.81508 0.83831 0.88475 0.0
H318 H 0.8212 0.84675 0.8708 0.0
H319 H 0.82741 0.82011 0.85764 0.0
C320 C 0.1817 0.65549 0.69438 0.0
C321 C 0.18913 0.65209 0.68885 0.0
C322 C 0.19168 0.63923 0.70022 0.0
C323 C 0.19408 0.64403 0.69175 0.0
C324 C 0.18422 0.64272 0.70572 0.0
C325 C 0.17929 0.65076 0.70282 0.0
U326 U 0.17756 0.67666 0.67783 0.0
O327 O 0.16418 0.6825 0.67239 0.0
O328 O 0.17363 0.69126 0.68126 0.0
C329 C 0.16535 0.69051 0.67697 0.0
C330 C 0.17642 0.66395 0.6915 0.0
C331 C 0.15714 0.69362 0.68247 0.0
C332 C 0.14531 0.69097 0.69474 0.0
C333 C 0.15315 0.68787 0.68963 0.0
C334 C 0.14542 0.70559 0.68563 0.0
C335 C 0.14135 0.69988 0.6928 0.0
C336 C 0.15323 0.70247 0.68052 0.0
C337 C 0.19399 0.68099 0.65662 0.0
C338 C 0.19301 0.69483 0.64632 0.0
C339 C 0.20421 0.68252 0.64287 0.0
C340 C 0.20113 0.67743 0.65085 0.0
C341 C 0.20021 0.6913 0.6405 0.0
C342 C 0.18991 0.68971 0.6543 0.0
C343 C 0.19096 0.67554 0.66503 0.0
O344 O 0.18106 0.67205 0.69236 0.0
O345 O 0.17164 0.66327 0.68349 0.0
O346 O 0.18271 0.67111 0.66429 0.0
O347 O 0.19216 0.67982 0.67321 0.0
H348 H 0.19109 0.65566 0.6823 0.0
H349 H 0.19972 0.64149 0.68729 0.0
H350 H 0.18227 0.63932 0.71235 0.0
H351 H 0.17359 0.65332 0.70719 0.0
H352 H 0.14242 0.68645 0.70028 0.0
H353 H 0.15612 0.68102 0.69126 0.0
H354 H 0.14248 0.71242 0.68386 0.0
H355 H 0.1562 0.70699 0.67501 0.0
H356 H 0.18971 0.70152 0.64465 0.0
H357 H 0.20986 0.67965 0.63865 0.0
H358 H 0.20437 0.67071 0.65255 0.0
H359 H 0.18436 0.69255 0.65867 0.0
C360 C 0.82312 0.68458 0.66444 0.0
C361 C 0.82902 0.69176 0.66069 0.0
C362 C 0.81744 0.69485 0.64816 0.0
C363 C 0.82622 0.69684 0.65261 0.0
C364 C 0.81154 0.68767 0.65199 0.0
C365 C 0.81436 0.68259 0.66005 0.0
U366 U 0.83968 0.68069 0.68555 0.0
O367 O 0.83656 0.67612 0.70016 0.0
O368 O 0.84576 0.66756 0.69127 0.0
C369 C 0.84122 0.66819 0.69934 0.0
C370 C 0.826 0.67912 0.67287 0.0
C371 C 0.83609 0.65957 0.70245 0.0
C372 C 0.82278 0.64846 0.70119 0.0
C373 C 0.82759 0.65665 0.69804 0.0
C374 C 0.83497 0.64604 0.71314 0.0
C375 C 0.8264 0.64307 0.70881 0.0
C376 C 0.83976 0.65421 0.70999 0.0
C377 C 0.86028 0.69839 0.68978 0.0
C378 C 0.87555 0.6959 0.69752 0.0
C379 C 0.86919 0.71169 0.6964 0.0
C380 C 0.86118 0.70809 0.69167 0.0
C381 C 0.87655 0.70566 0.6993 0.0
C382 C 0.86749 0.69229 0.69283 0.0
C383 C 0.85189 0.69489 0.68445 0.0
O384 O 0.83415 0.67478 0.67219 0.0
O385 O 0.82497 0.68341 0.68103 0.0
O386 O 0.84371 0.69545 0.68882 0.0
O387 O 0.85285 0.68693 0.67981 0.0
H388 H 0.8358 0.69343 0.66403 0.0
H389 H 0.83088 0.7024 0.64991 0.0
H390 H 0.80479 0.68589 0.64868 0.0
H391 H 0.80972 0.67706 0.66285 0.0
H392 H 0.81616 0.64645 0.69776 0.0
H393 H 0.82466 0.66072 0.69221 0.0
H394 H 0.83805 0.64199 0.71891 0.0
H395 H 0.84634 0.65635 0.71345 0.0
H396 H 0.88109 0.69105 0.69956 0.0
H397 H 0.8696 0.71921 0.6978 0.0
H398 H 0.85568 0.71292 0.68942 0.0
H399 H 0.86696 0.68476 0.69151 0.0
C400 C 0.82536 0.3333 0.66148 0.0
C401 C 0.83041 0.3254 0.65849 0.0
C402 C 0.81945 0.32327 0.64516 0.0
C403 C 0.82749 0.32043 0.65039 0.0
C404 C 0.81445 0.33122 0.64822 0.0
C405 C 0.81738 0.33617 0.6563 0.0
U406 U 0.84181 0.33739 0.68284 0.0
O407 O 0.84763 0.35069 0.68865 0.0
O408 O 0.83836 0.34162 0.69739 0.0
C409 C 0.84293 0.34977 0.69663 0.0
C410 C 0.82829 0.33862 0.66997 0.0
C411 C 0.83765 0.35815 0.6996 0.0
C412 C 0.82568 0.37008 0.69677 0.0
C413 C 0.8305 0.36201 0.69385 0.0
C414 C 0.83507 0.37041 0.71123 0.0
C415 C 0.82794 0.37441 0.70548 0.0
C416 C 0.83987 0.36237 0.7083 0.0
C417 C 0.86259 0.3206 0.68724 0.0
C418 C 0.87291 0.32129 0.70114 0.0
C419 C 0.87622 0.31034 0.68849 0.0
C420 C 0.86827 0.31353 0.68348 0.0
C421 C 0.87865 0.31417 0.69738 0.0
C422 C 0.86495 0.32449 0.69609 0.0
C423 C 0.85424 0.32376 0.68183 0.0
O424 O 0.82721 0.33411 0.6781 0.0
O425 O 0.83644 0.34323 0.66936 0.0
O426 O 0.85523 0.33191 0.67736 0.0
O427 O 0.84602 0.32279 0.68613 0.0
H428 H 0.83659 0.32307 0.66243 0.0
H429 H 0.83145 0.31429 0.6483 0.0
H430 H 0.80832 0.33369 0.6443 0.0
H431 H 0.81341 0.34228 0.65849 0.0
H432 H 0.8203 0.373 0.69213 0.0
H433 H 0.82869 0.35883 0.68709 0.0
H434 H 0.83688 0.37344 0.71805 0.0
H435 H 0.84534 0.35945 0.71285 0.0
H436 H 0.87462 0.32445 0.70792 0.0
H437 H 0.88039 0.30476 0.68545 0.0
H438 H 0.86654 0.31043 0.67667 0.0
H439 H 0.86065 0.32999 0.69909 0.0
C440 C 0.16263 0.31369 0.68767 0.0
C441 C 0.15891 0.31976 0.69449 0.0
C442 C 0.14661 0.30802 0.69837 0.0
C443 C 0.15095 0.31696 0.69978 0.0
C444 C 0.1504 0.30199 0.69152 0.0
C445 C 0.15833 0.30481 0.68622 0.0
U446 U 0.18384 0.33017 0.68245 0.0
O447 O 0.19835 0.32664 0.67812 0.0
O448 O 0.18944 0.3354 0.66884 0.0
C449 C 0.19738 0.33069 0.66975 0.0
C450 C 0.17099 0.31647 0.68204 0.0
C451 C 0.20031 0.32501 0.66152 0.0
C452 C 0.19734 0.31834 0.64587 0.0
C453 C 0.19419 0.32332 0.65376 0.0
C454 C 0.21269 0.31644 0.65342 0.0
C455 C 0.20666 0.31489 0.64556 0.0
C456 C 0.20956 0.32148 0.66127 0.0
C457 C 0.18857 0.35167 0.69838 0.0
C458 C 0.20091 0.36355 0.69538 0.0
C459 C 0.19153 0.36428 0.70968 0.0
C460 C 0.18646 0.35616 0.70691 0.0
C461 C 0.19883 0.36808 0.70396 0.0
C462 C 0.19584 0.35539 0.69262 0.0
C463 C 0.18308 0.34317 0.69564 0.0
O464 O 0.17025 0.32436 0.67711 0.0
O465 O 0.17922 0.31572 0.68642 0.0
O466 O 0.18742 0.33507 0.69684 0.0
O467 O 0.17845 0.34373 0.68754 0.0
H468 H 0.16219 0.32664 0.69574 0.0
H469 H 0.14828 0.32173 0.70507 0.0
H470 H 0.14717 0.29512 0.69016 0.0
H471 H 0.1611 0.30004 0.68098 0.0
H472 H 0.19253 0.31738 0.63992 0.0
H473 H 0.18701 0.32595 0.65372 0.0
H474 H 0.21984 0.31376 0.65353 0.0
H475 H 0.21441 0.32267 0.66716 0.0
H476 H 0.20654 0.36623 0.69085 0.0
H477 H 0.18964 0.36766 0.71626 0.0
H478 H 0.18086 0.3534 0.71143 0.0
H479 H 0.19758 0.35199 0.68601 0.0
C480 C 0.16078 0.31185 0.33597 0.0
C481 C 0.15705 0.31737 0.32856 0.0
C482 C 0.14462 0.30547 0.32576 0.0
C483 C 0.14904 0.31421 0.32349 0.0
C484 C 0.14846 0.29996 0.33317 0.0
C485 C 0.15646 0.30313 0.33823 0.0
U486 U 0.18099 0.32961 0.3405 0.0
O487 O 0.1866 0.33529 0.35393 0.0
O488 O 0.19585 0.32718 0.34468 0.0
C489 C 0.19488 0.33127 0.35295 0.0
C490 C 0.16914 0.31509 0.34142 0.0
C491 C 0.19821 0.3258 0.3612 0.0
C492 C 0.19619 0.31295 0.37263 0.0
C493 C 0.19297 0.318 0.36468 0.0
C494 C 0.20995 0.32343 0.37365 0.0
C495 C 0.20472 0.31563 0.37724 0.0
C496 C 0.20672 0.32846 0.36572 0.0
C497 C 0.18377 0.35133 0.32431 0.0
C498 C 0.19666 0.36284 0.32612 0.0
C499 C 0.18459 0.36519 0.31403 0.0
C500 C 0.18005 0.35676 0.31686 0.0
C501 C 0.19296 0.36833 0.31862 0.0
C502 C 0.19209 0.35441 0.32895 0.0
C503 C 0.17888 0.34248 0.32714 0.0
O504 O 0.17726 0.31488 0.33689 0.0
O505 O 0.16804 0.32291 0.34626 0.0
O506 O 0.17444 0.34271 0.3353 0.0
O507 O 0.18373 0.33471 0.32598 0.0
H508 H 0.16031 0.32414 0.32673 0.0
H509 H 0.14622 0.31867 0.3179 0.0
H510 H 0.14535 0.29313 0.33501 0.0
H511 H 0.15928 0.29877 0.3439 0.0
H512 H 0.19193 0.30706 0.37525 0.0
H513 H 0.18636 0.31585 0.36127 0.0
H514 H 0.21662 0.32559 0.37692 0.0
H515 H 0.21088 0.33444 0.3631 0.0
H516 H 0.20303 0.3651 0.32987 0.0
H517 H 0.18162 0.36917 0.30816 0.0
H518 H 0.17364 0.35447 0.31319 0.0
H519 H 0.19504 0.3503 0.33475 0.0
C520 C 0.15513 0.68401 0.32522 0.0
C521 C 0.15169 0.69125 0.33093 0.0
C522 C 0.13946 0.69479 0.31912 0.0
C523 C 0.14391 0.69659 0.32792 0.0
C524 C 0.14301 0.68752 0.31342 0.0
C525 C 0.15076 0.68219 0.31645 0.0
U526 U 0.17613 0.67958 0.34183 0.0
O527 O 0.18138 0.66632 0.34806 0.0
O528 O 0.19057 0.67481 0.33866 0.0
C529 C 0.18945 0.66684 0.34343 0.0
C530 C 0.16332 0.67836 0.32825 0.0
C531 C 0.19224 0.6582 0.33845 0.0
C532 C 0.18862 0.64492 0.32808 0.0
C533 C 0.18581 0.6532 0.33263 0.0
C534 C 0.20433 0.64667 0.33502 0.0
C535 C 0.19792 0.64156 0.32922 0.0
C536 C 0.2015 0.6549 0.33959 0.0
C537 C 0.18105 0.69721 0.362 0.0
C538 C 0.19237 0.6948 0.37486 0.0
C539 C 0.18481 0.70998 0.3729 0.0
C540 C 0.17982 0.70653 0.36502 0.0
C541 C 0.19114 0.70416 0.37794 0.0
C542 C 0.18738 0.69136 0.36693 0.0
C543 C 0.17559 0.69377 0.35374 0.0
O544 O 0.17168 0.68247 0.32711 0.0
O545 O 0.16245 0.67401 0.33648 0.0
O546 O 0.1708 0.68579 0.35497 0.0
O547 O 0.18 0.69426 0.34556 0.0
H548 H 0.155 0.69277 0.33773 0.0
H549 H 0.14132 0.70204 0.33254 0.0
H550 H 0.13988 0.68604 0.30655 0.0
H551 H 0.15337 0.67666 0.31192 0.0
H552 H 0.18355 0.64122 0.32358 0.0
H553 H 0.17863 0.65567 0.33161 0.0
H554 H 0.2115 0.64423 0.33616 0.0
H555 H 0.20656 0.65866 0.34407 0.0
H556 H 0.19726 0.69017 0.37852 0.0
H557 H 0.18358 0.71717 0.37514 0.0
H558 H 0.17494 0.71114 0.3613 0.0
H559 H 0.18846 0.68415 0.36467 0.0
C560 C 0.82919 0.65858 0.33743 0.0
C561 C 0.83241 0.65723 0.32815 0.0
C562 C 0.82377 0.64215 0.32734 0.0
C563 C 0.82969 0.6491 0.32313 0.0
C564 C 0.82064 0.64353 0.33668 0.0
C565 C 0.82333 0.65168 0.34166 0.0
U566 U 0.84495 0.68052 0.34101 0.0
O567 O 0.84127 0.69492 0.34535 0.0
O568 O 0.85105 0.68656 0.35407 0.0
C569 C 0.84613 0.69436 0.35332 0.0
C570 C 0.8319 0.66713 0.34278 0.0
C571 C 0.84106 0.69718 0.3619 0.0
C572 C 0.82902 0.69432 0.37392 0.0
C573 C 0.83374 0.6915 0.36573 0.0
C574 C 0.83887 0.70854 0.37451 0.0
C575 C 0.83154 0.70288 0.37843 0.0
C576 C 0.84357 0.7057 0.36633 0.0
C577 C 0.86496 0.68558 0.32324 0.0
C578 C 0.87638 0.69858 0.32479 0.0
C579 C 0.87699 0.68822 0.31121 0.0
C580 C 0.8692 0.68305 0.31469 0.0
C581 C 0.88072 0.69602 0.31623 0.0
C582 C 0.86857 0.6934 0.32827 0.0
C583 C 0.85687 0.67991 0.32679 0.0
O584 O 0.84019 0.66685 0.3471 0.0
O585 O 0.83039 0.67523 0.33841 0.0
O586 O 0.84854 0.68393 0.32619 0.0
O587 O 0.85827 0.67552 0.33492 0.0
H588 H 0.83701 0.66247 0.32478 0.0
H589 H 0.83231 0.6482 0.316 0.0
H590 H 0.81598 0.63838 0.34009 0.0
H591 H 0.82078 0.65261 0.34882 0.0
H592 H 0.82349 0.68975 0.37679 0.0
H593 H 0.83171 0.68488 0.36239 0.0
H594 H 0.8409 0.71524 0.37768 0.0
H595 H 0.84917 0.7102 0.36345 0.0
H596 H 0.87912 0.7045 0.32888 0.0
H597 H 0.88003 0.68614 0.30452 0.0
H598 H 0.86648 0.67706 0.31069 0.0
H599 H 0.86537 0.69544 0.3349 0.0
C600 C 0.84723 0.35932 0.32439 0.0
C601 C 0.83811 0.36131 0.32771 0.0
C602 C 0.83791 0.37588 0.3183 0.0
C603 C 0.83348 0.3695 0.32466 0.0
C604 C 0.8471 0.37387 0.31509 0.0
C605 C 0.85169 0.36567 0.3181 0.0
U606 U 0.85028 0.33795 0.34094 0.0
O607 O 0.85383 0.32324 0.33762 0.0
O608 O 0.86334 0.33169 0.34672 0.0
C609 C 0.86203 0.32372 0.34211 0.0
C610 C 0.85218 0.35068 0.32737 0.0
C611 C 0.87027 0.32038 0.33679 0.0
C612 C 0.88095 0.32147 0.32333 0.0
C613 C 0.87314 0.32484 0.32833 0.0
C614 C 0.8831 0.30923 0.33525 0.0
C615 C 0.88602 0.31362 0.32673 0.0
C616 C 0.8753 0.31258 0.34021 0.0
C617 C 0.83313 0.33422 0.36172 0.0
C618 C 0.83343 0.32047 0.37221 0.0
C619 C 0.82238 0.33308 0.37509 0.0
C620 C 0.82587 0.33801 0.36718 0.0
C621 C 0.82608 0.32422 0.37769 0.0
C622 C 0.83692 0.32543 0.36428 0.0
C623 C 0.83659 0.33952 0.35338 0.0
O624 O 0.85677 0.35119 0.3355 0.0
O625 O 0.84735 0.3427 0.32634 0.0
O626 O 0.83547 0.33526 0.34518 0.0
O627 O 0.84496 0.34366 0.35434 0.0
H628 H 0.83457 0.35651 0.33262 0.0
H629 H 0.82646 0.37089 0.32736 0.0
H630 H 0.85067 0.37856 0.3101 0.0
H631 H 0.85873 0.36425 0.31546 0.0
H632 H 0.88306 0.32509 0.31686 0.0
H633 H 0.86935 0.3309 0.3256 0.0
H634 H 0.88675 0.30309 0.338 0.0
H635 H 0.87316 0.30904 0.34672 0.0
H636 H 0.83638 0.31364 0.37394 0.0
H637 H 0.81684 0.33625 0.37922 0.0
H638 H 0.82289 0.34481 0.36533 0.0
H639 H 0.84254 0.32239 0.36013 0.0
C640 C 0.68845 0.15839 0.69903 0.0
C641 C 0.69701 0.15584 0.69478 0.0
C642 C 0.69824 0.14224 0.70548 0.0
C643 C 0.70187 0.14784 0.69799 0.0
C644 C 0.68965 0.14487 0.7097 0.0
C645 C 0.68482 0.15287 0.7065 0.0
U646 U 0.68486 0.17931 0.68199 0.0
O647 O 0.67168 0.18464 0.67555 0.0
O648 O 0.68025 0.19379 0.68488 0.0
C649 C 0.67232 0.19277 0.68 0.0
C650 C 0.68318 0.16672 0.69574 0.0
C651 C 0.66364 0.19583 0.68475 0.0
C652 C 0.65264 0.19519 0.69798 0.0
C653 C 0.66087 0.19202 0.69355 0.0
C654 C 0.64985 0.20593 0.68481 0.0
C655 C 0.64703 0.20219 0.69365 0.0
C656 C 0.65807 0.20277 0.68041 0.0
C657 C 0.70236 0.18392 0.66172 0.0
C658 C 0.69925 0.19362 0.64773 0.0
C659 C 0.71534 0.18904 0.65153 0.0
C660 C 0.71206 0.18414 0.65955 0.0
C661 C 0.70898 0.19379 0.64548 0.0
C662 C 0.69598 0.18877 0.6558 0.0
C663 C 0.69907 0.17849 0.67008 0.0
O664 O 0.68757 0.17494 0.69677 0.0
O665 O 0.67892 0.16584 0.68746 0.0
O666 O 0.69108 0.17365 0.669 0.0
O667 O 0.69965 0.18293 0.67822 0.0
H668 H 0.6999 0.16002 0.68897 0.0
H669 H 0.7084 0.14597 0.69451 0.0
H670 H 0.68672 0.14081 0.71557 0.0
H671 H 0.67824 0.15474 0.70988 0.0
H672 H 0.65063 0.1921 0.70474 0.0
H673 H 0.66509 0.18662 0.69699 0.0
H674 H 0.64579 0.21142 0.68134 0.0
H675 H 0.66011 0.20581 0.67364 0.0
H676 H 0.69418 0.1973 0.64329 0.0
H677 H 0.72286 0.18894 0.64995 0.0
H678 H 0.71709 0.18044 0.66402 0.0
H679 H 0.68846 0.18875 0.65739 0.0
C680 C 0.32305 0.17628 0.66084 0.0
C681 C 0.32535 0.18588 0.65932 0.0
C682 C 0.31703 0.18558 0.6441 0.0
C683 C 0.32233 0.1905 0.65104 0.0
C684 C 0.31484 0.17593 0.64563 0.0
C685 C 0.3178 0.17134 0.65393 0.0
U686 U 0.33985 0.17383 0.68198 0.0
O687 O 0.33693 0.1702 0.69689 0.0
O688 O 0.34613 0.16117 0.68848 0.0
C689 C 0.34168 0.16228 0.69655 0.0
C690 C 0.32611 0.17132 0.66953 0.0
C691 C 0.33673 0.15383 0.7003 0.0
C692 C 0.3244 0.14163 0.69918 0.0
C693 C 0.329 0.14969 0.69545 0.0
C694 C 0.33521 0.14182 0.71263 0.0
C695 C 0.32747 0.13758 0.70781 0.0
C696 C 0.33978 0.14986 0.7089 0.0
C697 C 0.36026 0.19176 0.68495 0.0
C698 C 0.37189 0.19061 0.69771 0.0
C699 C 0.37271 0.20374 0.68656 0.0
C700 C 0.36472 0.20013 0.6818 0.0
C701 C 0.37639 0.19904 0.69458 0.0
C702 C 0.36388 0.18701 0.69294 0.0
C703 C 0.3519 0.18806 0.6798 0.0
O704 O 0.33432 0.16707 0.669 0.0
O705 O 0.32506 0.17599 0.67748 0.0
O706 O 0.34376 0.18881 0.68421 0.0
O707 O 0.35295 0.17979 0.67578 0.0
H708 H 0.32948 0.18979 0.66453 0.0
H709 H 0.32424 0.19789 0.65002 0.0
H710 H 0.31069 0.17197 0.64047 0.0
H711 H 0.31598 0.16392 0.65498 0.0
H712 H 0.31853 0.1385 0.69524 0.0
H713 H 0.32655 0.15268 0.68878 0.0
H714 H 0.33766 0.139 0.71936 0.0
H715 H 0.34571 0.153 0.71276 0.0
H716 H 0.37448 0.18687 0.70392 0.0
H717 H 0.37607 0.21017 0.68389 0.0
H718 H 0.36203 0.20386 0.67562 0.0
H719 H 0.36049 0.18054 0.69547 0.0
C720 C 0.32127 0.83518 0.66189 0.0
C721 C 0.32574 0.82698 0.65873 0.0
C722 C 0.31463 0.82587 0.6454 0.0
C723 C 0.32244 0.82236 0.65057 0.0
C724 C 0.31022 0.83411 0.64862 0.0
C725 C 0.31351 0.8387 0.65678 0.0
U726 U 0.33852 0.83825 0.68281 0.0
O727 O 0.34462 0.85127 0.68896 0.0
O728 O 0.3356 0.84188 0.69765 0.0
C729 C 0.34017 0.85005 0.69705 0.0
C730 C 0.32457 0.8401 0.67049 0.0
C731 C 0.33497 0.85829 0.70048 0.0
C732 C 0.32292 0.87028 0.69839 0.0
C733 C 0.32771 0.86238 0.69503 0.0
C734 C 0.33255 0.87002 0.71269 0.0
C735 C 0.32528 0.8742 0.70727 0.0
C736 C 0.33734 0.86215 0.70932 0.0
C737 C 0.35929 0.82109 0.68572 0.0
C738 C 0.37 0.8208 0.69933 0.0
C739 C 0.37289 0.81074 0.68585 0.0
C740 C 0.36483 0.8143 0.6813 0.0
C741 C 0.37556 0.8139 0.69495 0.0
C742 C 0.36192 0.82437 0.69475 0.0
C743 C 0.35078 0.82459 0.68078 0.0
O744 O 0.32375 0.83527 0.67845 0.0
O745 O 0.33274 0.84467 0.66976 0.0
O746 O 0.35171 0.83292 0.67664 0.0
O747 O 0.34272 0.8235 0.68533 0.0
H748 H 0.33176 0.82418 0.66259 0.0
H749 H 0.32606 0.8161 0.64824 0.0
H750 H 0.30412 0.83693 0.64491 0.0
H751 H 0.30997 0.84501 0.65913 0.0
H752 H 0.31729 0.87325 0.69408 0.0
H753 H 0.32576 0.85946 0.68819 0.0
H754 H 0.33464 0.87292 0.7195 0.0
H755 H 0.34295 0.8591 0.71361 0.0
H756 H 0.37179 0.82333 0.70635 0.0
H757 H 0.37708 0.80558 0.68218 0.0
H758 H 0.36293 0.81173 0.67431 0.0
H759 H 0.35772 0.82963 0.69826 0.0
C760 C 0.66289 0.8192 0.68376 0.0
C761 C 0.65902 0.82472 0.69096 0.0
C762 C 0.64668 0.81271 0.69372 0.0
C763 C 0.65097 0.82151 0.69589 0.0
C764 C 0.65062 0.80722 0.6865 0.0
C765 C 0.65865 0.81045 0.68157 0.0
U766 U 0.68384 0.83636 0.68011 0.0
O767 O 0.69857 0.83353 0.67601 0.0
O768 O 0.68968 0.84253 0.66698 0.0
C769 C 0.69782 0.8382 0.66795 0.0
C770 C 0.67135 0.82244 0.67852 0.0
C771 C 0.7012 0.83328 0.6595 0.0
C772 C 0.69933 0.8213 0.64729 0.0
C773 C 0.69599 0.82577 0.65543 0.0
C774 C 0.71313 0.83177 0.64728 0.0
C775 C 0.70793 0.82429 0.64309 0.0
C776 C 0.70979 0.83621 0.65539 0.0
C777 C 0.68771 0.85698 0.69724 0.0
C778 C 0.70112 0.86799 0.69603 0.0
C779 C 0.6893 0.87009 0.7082 0.0
C780 C 0.68432 0.8621 0.70494 0.0
C781 C 0.69778 0.87313 0.70382 0.0
C782 C 0.69613 0.85998 0.69277 0.0
C783 C 0.68239 0.84855 0.69398 0.0
O784 O 0.67058 0.83057 0.67401 0.0
O785 O 0.67948 0.82161 0.68307 0.0
O786 O 0.68684 0.84049 0.69486 0.0
O787 O 0.67795 0.84947 0.68581 0.0
H788 H 0.66225 0.83149 0.69278 0.0
H789 H 0.64819 0.82586 0.70148 0.0
H790 H 0.64744 0.80047 0.68457 0.0
H791 H 0.66153 0.8061 0.67602 0.0
H792 H 0.69511 0.81562 0.64421 0.0
H793 H 0.68933 0.82341 0.65852 0.0
H794 H 0.71986 0.83414 0.64435 0.0
H795 H 0.71393 0.84197 0.65847 0.0
H796 H 0.70766 0.87007 0.69255 0.0
H797 H 0.68643 0.87395 0.71411 0.0
H798 H 0.67782 0.8599 0.70844 0.0
H799 H 0.69885 0.85609 0.68681 0.0
C800 C 0.66079 0.81758 0.33858 0.0
C801 C 0.65503 0.82388 0.33347 0.0
C802 C 0.64486 0.81076 0.32828 0.0
C803 C 0.64711 0.8205 0.32841 0.0
C804 C 0.65072 0.80448 0.33333 0.0
C805 C 0.65859 0.80787 0.33845 0.0
U806 U 0.68073 0.83568 0.34298 0.0
O807 O 0.68616 0.84169 0.35638 0.0
O808 O 0.69562 0.8337 0.3472 0.0
C809 C 0.69453 0.83784 0.35544 0.0
C810 C 0.66909 0.82101 0.34406 0.0
C811 C 0.69812 0.83268 0.36383 0.0
C812 C 0.70148 0.81802 0.37229 0.0
C813 C 0.69778 0.82275 0.36435 0.0
C814 C 0.70568 0.8331 0.37938 0.0
C815 C 0.70549 0.82315 0.37988 0.0
C816 C 0.70205 0.83781 0.37141 0.0
C817 C 0.68319 0.857 0.32617 0.0
C818 C 0.69525 0.86936 0.32816 0.0
C819 C 0.68456 0.86978 0.31462 0.0
C820 C 0.68012 0.86144 0.31781 0.0
C821 C 0.69218 0.87386 0.31976 0.0
C822 C 0.69078 0.86099 0.33134 0.0
C823 C 0.67845 0.84818 0.3293 0.0
O824 O 0.67726 0.82081 0.33962 0.0
O825 O 0.66789 0.82886 0.34883 0.0
O826 O 0.67402 0.84857 0.33746 0.0
O827 O 0.68342 0.84046 0.32834 0.0
H828 H 0.65666 0.8314 0.33341 0.0
H829 H 0.64281 0.8255 0.3245 0.0
H830 H 0.64913 0.79695 0.33345 0.0
H831 H 0.66296 0.80291 0.34234 0.0
H832 H 0.70112 0.81036 0.37252 0.0
H833 H 0.6947 0.81864 0.35861 0.0
H834 H 0.7088 0.83725 0.38506 0.0
H835 H 0.70238 0.84547 0.37114 0.0
H836 H 0.70103 0.87235 0.33233 0.0
H837 H 0.68212 0.87295 0.30805 0.0
H838 H 0.6743 0.85842 0.3137 0.0
H839 H 0.69325 0.85764 0.33782 0.0
C840 C 0.65912 0.18502 0.32465 0.0
C841 C 0.65546 0.19176 0.33084 0.0
C842 C 0.64307 0.19562 0.31932 0.0
C843 C 0.64749 0.19701 0.3282 0.0
C844 C 0.64686 0.18891 0.31313 0.0
C845 C 0.65479 0.18366 0.31578 0.0
U846 U 0.68054 0.17994 0.34062 0.0
O847 O 0.68571 0.16638 0.34623 0.0
O848 O 0.69478 0.17503 0.33688 0.0
C849 C 0.69365 0.16693 0.34141 0.0
C850 C 0.66738 0.17932 0.32733 0.0
C851 C 0.69605 0.15842 0.33603 0.0
C852 C 0.69285 0.1472 0.32336 0.0
C853 C 0.69046 0.15537 0.32832 0.0
C854 C 0.70644 0.14509 0.33375 0.0
C855 C 0.70086 0.14194 0.32604 0.0
C856 C 0.70405 0.15325 0.33869 0.0
C857 C 0.68633 0.19646 0.36141 0.0
C858 C 0.69895 0.19354 0.37288 0.0
C859 C 0.68985 0.20791 0.37377 0.0
C860 C 0.68451 0.20507 0.36585 0.0
C861 C 0.69712 0.20217 0.37741 0.0
C862 C 0.6936 0.19071 0.36494 0.0
C863 C 0.68055 0.19361 0.35315 0.0
O864 O 0.67571 0.18347 0.32615 0.0
O865 O 0.66669 0.17469 0.33543 0.0
O866 O 0.67561 0.18569 0.35414 0.0
O867 O 0.68475 0.19438 0.34488 0.0
H868 H 0.65872 0.19292 0.33772 0.0
H869 H 0.64472 0.20204 0.33319 0.0
H870 H 0.64375 0.18777 0.30617 0.0
H871 H 0.65756 0.17852 0.31089 0.0
H872 H 0.68835 0.14493 0.31752 0.0
H873 H 0.68424 0.15929 0.32618 0.0
H874 H 0.71274 0.14132 0.33592 0.0
H875 H 0.70846 0.15552 0.3446 0.0
H876 H 0.70442 0.18891 0.37554 0.0
H877 H 0.68834 0.21466 0.37696 0.0
H878 H 0.67896 0.20962 0.36319 0.0
H879 H 0.69509 0.18403 0.36159 0.0
C880 C 0.32763 0.15285 0.33772 0.0
C881 C 0.33191 0.15096 0.329 0.0
C882 C 0.32162 0.13705 0.32695 0.0
C883 C 0.32893 0.14312 0.32366 0.0
C884 C 0.31744 0.13896 0.33576 0.0
C885 C 0.32042 0.14679 0.34108 0.0
U886 U 0.34401 0.17418 0.34252 0.0
O887 O 0.3405 0.18854 0.34712 0.0
O888 O 0.34959 0.17966 0.35607 0.0
C889 C 0.34489 0.18759 0.35532 0.0
C890 C 0.33052 0.16114 0.34336 0.0
C891 C 0.33936 0.19018 0.36369 0.0
C892 C 0.32579 0.18784 0.37407 0.0
C893 C 0.33103 0.18517 0.36615 0.0
C894 C 0.33718 0.2005 0.37716 0.0
C895 C 0.32878 0.19558 0.37965 0.0
C896 C 0.34241 0.19782 0.36926 0.0
C897 C 0.36483 0.1796 0.32589 0.0
C898 C 0.3747 0.19384 0.32703 0.0
C899 C 0.37847 0.18177 0.31561 0.0
C900 C 0.37068 0.17633 0.31867 0.0
C901 C 0.38056 0.19063 0.3197 0.0
C902 C 0.36691 0.18837 0.33009 0.0
C903 C 0.35657 0.17383 0.32884 0.0
O904 O 0.33865 0.16045 0.34792 0.0
O905 O 0.32945 0.1694 0.33914 0.0
O906 O 0.34829 0.17792 0.32798 0.0
O907 O 0.35755 0.16915 0.33687 0.0
H908 H 0.3375 0.15558 0.3263 0.0
H909 H 0.33224 0.14193 0.31687 0.0
H910 H 0.3119 0.13436 0.33859 0.0
H911 H 0.31707 0.14812 0.34782 0.0
H912 H 0.3193 0.18396 0.37571 0.0
H913 H 0.32857 0.17924 0.36191 0.0
H914 H 0.33977 0.20639 0.38138 0.0
H915 H 0.34884 0.20174 0.36748 0.0
H916 H 0.37603 0.20066 0.33027 0.0
H917 H 0.38291 0.179 0.31007 0.0
H918 H 0.36921 0.16955 0.31537 0.0
H919 H 0.36245 0.19101 0.33569 0.0
C920 C 0.34189 0.85811 0.32229 0.0
C921 C 0.33208 0.85933 0.32343 0.0
C922 C 0.33309 0.87463 0.31531 0.0
C923 C 0.32771 0.86749 0.31993 0.0
C924 C 0.34292 0.8734 0.31431 0.0
C925 C 0.34726 0.86522 0.31774 0.0
U926 U 0.34459 0.83726 0.33969 0.0
O927 O 0.34825 0.82245 0.33697 0.0
O928 O 0.35758 0.83127 0.34591 0.0
C929 C 0.35637 0.82312 0.34159 0.0
C930 C 0.34666 0.8495 0.3257 0.0
C931 C 0.36473 0.81959 0.3366 0.0
C932 C 0.37523 0.81951 0.32298 0.0
C933 C 0.36724 0.82301 0.32758 0.0
C934 C 0.37829 0.80919 0.33643 0.0
C935 C 0.38086 0.81256 0.32736 0.0
C936 C 0.3703 0.81267 0.34099 0.0
C937 C 0.32737 0.8344 0.36055 0.0
C938 C 0.32597 0.82036 0.37058 0.0
C939 C 0.31843 0.83489 0.37521 0.0
C940 C 0.32187 0.83937 0.36702 0.0
C941 C 0.32042 0.82532 0.37709 0.0
C942 C 0.32945 0.82487 0.3624 0.0
C943 C 0.33084 0.83931 0.35196 0.0
O944 O 0.3512 0.85027 0.33384 0.0
O945 O 0.34181 0.8415 0.3249 0.0
O946 O 0.32976 0.83472 0.34394 0.0
O947 O 0.33918 0.84356 0.35278 0.0
H948 H 0.3278 0.85396 0.32699 0.0
H949 H 0.32015 0.86827 0.32091 0.0
H950 H 0.34724 0.8787 0.31069 0.0
H951 H 0.35483 0.86441 0.31679 0.0
H952 H 0.37706 0.82232 0.31605 0.0
H953 H 0.36303 0.8284 0.3241 0.0
H954 H 0.38237 0.80375 0.33995 0.0
H955 H 0.36846 0.80993 0.34795 0.0
H956 H 0.3277 0.81302 0.37187 0.0
H957 H 0.31408 0.83889 0.37999 0.0
H958 H 0.32019 0.84672 0.36571 0.0
H959 H 0.33375 0.82093 0.35751 0.0
C960 C 0.68946 0.65526 0.20085 0.0
C961 C 0.69901 0.65434 0.19829 0.0
C962 C 0.69981 0.63929 0.20687 0.0
C963 C 0.70415 0.64644 0.20129 0.0
C964 C 0.69019 0.64022 0.20929 0.0
C965 C 0.68509 0.64813 0.20632 0.0
U966 U 0.68497 0.6766 0.18455 0.0
O967 O 0.67154 0.68203 0.17883 0.0
O968 O 0.68041 0.69097 0.1881 0.0
C969 C 0.67228 0.69 0.18354 0.0
C970 C 0.68396 0.6636 0.19796 0.0
C971 C 0.66379 0.69279 0.18879 0.0
C972 C 0.65133 0.68949 0.20027 0.0
C973 C 0.6595 0.68671 0.19549 0.0
C974 C 0.65174 0.70447 0.19179 0.0
C975 C 0.64731 0.6984 0.19844 0.0
C976 C 0.65989 0.70168 0.18702 0.0
C977 C 0.70183 0.68172 0.16378 0.0
C978 C 0.6991 0.69381 0.15172 0.0
C979 C 0.71371 0.685 0.15174 0.0
C980 C 0.71066 0.67992 0.15973 0.0
C981 C 0.70797 0.69201 0.14762 0.0
C982 C 0.69606 0.68872 0.15975 0.0
C983 C 0.69875 0.67614 0.1721 0.0
O984 O 0.68823 0.67186 0.19909 0.0
O985 O 0.67939 0.66289 0.18983 0.0
O986 O 0.69069 0.67141 0.17112 0.0
O987 O 0.69958 0.6804 0.18032 0.0
H988 H 0.70252 0.65977 0.19404 0.0
H989 H 0.71156 0.64602 0.19937 0.0
H990 H 0.68656 0.6348 0.21342 0.0
H991 H 0.6777 0.6487 0.20831 0.0
H992 H 0.64807 0.6846 0.20528 0.0
H993 H 0.66244 0.67981 0.19696 0.0
H994 H 0.64897 0.71144 0.19032 0.0
H995 H 0.66314 0.70648 0.18191 0.0
H996 H 0.69455 0.69922 0.14879 0.0
H997 H 0.72051 0.68332 0.1487 0.0
H998 H 0.71519 0.67452 0.16273 0.0
H999 H 0.68921 0.69023 0.16281 0.0
C1000 C 0.32362 0.67546 0.16327 0.0
C1001 C 0.33032 0.67796 0.15631 0.0
C1002 C 0.31786 0.68482 0.14643 0.0
C1003 C 0.32746 0.68256 0.14796 0.0
C1004 C 0.31122 0.68238 0.15349 0.0
C1005 C 0.31407 0.67773 0.1618 0.0
U1006 U 0.34015 0.67178 0.18466 0.0
O1007 O 0.33663 0.6685 0.19953 0.0
O1008 O 0.34515 0.65864 0.19134 0.0
C1009 C 0.34057 0.66013 0.19926 0.0
C1010 C 0.32638 0.67045 0.17208 0.0
C1011 C 0.33462 0.65218 0.20268 0.0
C1012 C 0.32193 0.64055 0.20027 0.0
C1013 C 0.32747 0.64817 0.19692 0.0
C1014 C 0.33056 0.64095 0.21519 0.0
C1015 C 0.32341 0.63685 0.20946 0.0
C1016 C 0.33612 0.64853 0.21183 0.0
C1017 C 0.36196 0.68807 0.18781 0.0
C1018 C 0.37222 0.68765 0.20174 0.0
C1019 C 0.37597 0.69828 0.18868 0.0
C1020 C 0.36793 0.695 0.18377 0.0
C1021 C 0.3782 0.69469 0.19776 0.0
C1022 C 0.36417 0.68436 0.19681 0.0
C1023 C 0.35342 0.68491 0.1826 0.0
O1024 O 0.33414 0.66541 0.17173 0.0
O1025 O 0.32569 0.67535 0.17993 0.0
O1026 O 0.34531 0.68638 0.18685 0.0
O1027 O 0.35386 0.67651 0.1787 0.0
H1028 H 0.33775 0.67633 0.15729 0.0
H1029 H 0.33276 0.68422 0.14265 0.0
H1030 H 0.30381 0.68416 0.15266 0.0
H1031 H 0.3088 0.67591 0.1671 0.0
H1032 H 0.31641 0.63764 0.19572 0.0
H1033 H 0.32619 0.65094 0.18985 0.0
H1034 H 0.33197 0.6382 0.22225 0.0
H1035 H 0.34161 0.65154 0.21636 0.0
H1036 H 0.37367 0.68479 0.20875 0.0
H1037 H 0.38049 0.70359 0.18533 0.0
H1038 H 0.36635 0.69791 0.17681 0.0
H1039 H 0.35962 0.679 0.20004 0.0
C1040 C 0.3226 0.33821 0.16381 0.0
C1041 C 0.32815 0.33089 0.16029 0.0
C1042 C 0.31704 0.32862 0.1471 0.0
C1043 C 0.32539 0.32613 0.15201 0.0
C1044 C 0.3115 0.33596 0.15072 0.0
C1045 C 0.31427 0.3407 0.15899 0.0
U1046 U 0.33884 0.34206 0.1854 0.0
O1047 O 0.34442 0.35535 0.1915 0.0
O1048 O 0.33524 0.34594 0.2 0.0
C1049 C 0.33971 0.35417 0.19944 0.0
C1050 C 0.3254 0.34336 0.17245 0.0
C1051 C 0.33432 0.36239 0.20261 0.0
C1052 C 0.32058 0.37256 0.20159 0.0
C1053 C 0.32562 0.36475 0.19838 0.0
C1054 C 0.33294 0.37574 0.21323 0.0
C1055 C 0.32419 0.37816 0.20906 0.0
C1056 C 0.33794 0.36794 0.21003 0.0
C1057 C 0.35979 0.32561 0.18986 0.0
C1058 C 0.37125 0.32798 0.20265 0.0
C1059 C 0.37222 0.31418 0.19264 0.0
C1060 C 0.3643 0.3172 0.18748 0.0
C1061 C 0.37581 0.31953 0.20029 0.0
C1062 C 0.36329 0.33099 0.19749 0.0
C1063 C 0.35148 0.32864 0.1843 0.0
O1064 O 0.32432 0.33866 0.18046 0.0
O1065 O 0.33349 0.3481 0.172 0.0
O1066 O 0.35238 0.33687 0.17995 0.0
O1067 O 0.34322 0.32746 0.18847 0.0
H1068 H 0.33462 0.32888 0.16393 0.0
H1069 H 0.32988 0.32059 0.14938 0.0
H1070 H 0.30496 0.33797 0.14723 0.0
H1071 H 0.30988 0.34631 0.16162 0.0
H1072 H 0.31392 0.37428 0.19816 0.0
H1073 H 0.32273 0.36056 0.1926 0.0
H1074 H 0.33586 0.3798 0.21908 0.0
H1075 H 0.34464 0.3662 0.21339 0.0
H1076 H 0.37375 0.33222 0.20856 0.0
H1077 H 0.37563 0.30772 0.19053 0.0
H1078 H 0.3617 0.31297 0.1816 0.0
H1079 H 0.35987 0.33749 0.19945 0.0
C1080 C 0.66396 0.32105 0.18979 0.0
C1081 C 0.66226 0.32468 0.19884 0.0
C1082 C 0.6475 0.31542 0.19985 0.0
C1083 C 0.6541 0.32188 0.20383 0.0
C1084 C 0.64923 0.31191 0.19072 0.0
C1085 C 0.65739 0.31469 0.18575 0.0
U1086 U 0.68599 0.33682 0.18572 0.0
O1087 O 0.70036 0.33287 0.18131 0.0
O1088 O 0.69194 0.34245 0.17241 0.0
C1089 C 0.69968 0.33741 0.17317 0.0
C1090 C 0.67255 0.32376 0.18446 0.0
C1091 C 0.70228 0.33199 0.16472 0.0
C1092 C 0.69802 0.32224 0.15114 0.0
C1093 C 0.69539 0.32714 0.15929 0.0
C1094 C 0.71446 0.32678 0.15392 0.0
C1095 C 0.70759 0.32203 0.14835 0.0
C1096 C 0.71182 0.33172 0.16201 0.0
C1097 C 0.69147 0.35744 0.20255 0.0
C1098 C 0.70401 0.36918 0.19983 0.0
C1099 C 0.69475 0.36962 0.21423 0.0
C1100 C 0.68954 0.36166 0.21125 0.0
C1101 C 0.702 0.37354 0.20852 0.0
C1102 C 0.69878 0.3612 0.19686 0.0
C1103 C 0.68567 0.34925 0.19947 0.0
O1104 O 0.67222 0.33191 0.17993 0.0
O1105 O 0.68066 0.32244 0.18891 0.0
O1106 O 0.68966 0.34095 0.20034 0.0
O1107 O 0.6811 0.35033 0.19138 0.0
H1108 H 0.66727 0.32961 0.20207 0.0
H1109 H 0.65306 0.32465 0.21088 0.0
H1110 H 0.64424 0.30706 0.18735 0.0
H1111 H 0.65857 0.31186 0.17874 0.0
H1112 H 0.69258 0.31856 0.14707 0.0
H1113 H 0.68799 0.32719 0.16131 0.0
H1114 H 0.72187 0.32685 0.15191 0.0
H1115 H 0.71724 0.33541 0.16612 0.0
H1116 H 0.70949 0.37205 0.19523 0.0
H1117 H 0.69312 0.37267 0.22104 0.0
H1118 H 0.68395 0.35883 0.21575 0.0
H1119 H 0.70037 0.35801 0.1901 0.0
C1120 C 0.65841 0.32078 0.83593 0.0
C1121 C 0.65612 0.32512 0.82725 0.0
C1122 C 0.6422 0.31473 0.82559 0.0
C1123 C 0.64809 0.32212 0.82212 0.0
C1124 C 0.64452 0.31049 0.83436 0.0
C1125 C 0.65255 0.31348 0.83947 0.0
U1126 U 0.67968 0.33741 0.83981 0.0
O1127 O 0.68572 0.34324 0.85299 0.0
O1128 O 0.69437 0.3342 0.84401 0.0
C1129 C 0.69372 0.33866 0.85211 0.0
C1130 C 0.6669 0.32374 0.84133 0.0
C1131 C 0.6969 0.33334 0.86053 0.0
C1132 C 0.69386 0.32235 0.87356 0.0
C1133 C 0.69066 0.32731 0.86555 0.0
C1134 C 0.70957 0.32931 0.87153 0.0
C1135 C 0.70336 0.32328 0.87664 0.0
C1136 C 0.70635 0.33429 0.86357 0.0
C1137 C 0.68402 0.35809 0.82267 0.0
C1138 C 0.69651 0.36992 0.82515 0.0
C1139 C 0.68719 0.37011 0.81064 0.0
C1140 C 0.68199 0.3622 0.81383 0.0
C1141 C 0.69451 0.37407 0.81626 0.0
C1142 C 0.69132 0.36198 0.82832 0.0
C1143 C 0.67847 0.34977 0.82586 0.0
O1144 O 0.67502 0.32278 0.83692 0.0
O1145 O 0.66628 0.33184 0.84577 0.0
O1146 O 0.67407 0.35069 0.83398 0.0
O1147 O 0.68271 0.3416 0.82506 0.0
H1148 H 0.66059 0.33077 0.82441 0.0
H1149 H 0.64659 0.32547 0.81535 0.0
H1150 H 0.64008 0.30489 0.83732 0.0
H1151 H 0.6542 0.31009 0.84619 0.0
H1152 H 0.68894 0.31769 0.87728 0.0
H1153 H 0.68334 0.32644 0.86326 0.0
H1154 H 0.71689 0.33028 0.87378 0.0
H1155 H 0.71126 0.33892 0.85978 0.0
H1156 H 0.70217 0.37273 0.82961 0.0
H1157 H 0.68538 0.3732 0.80382 0.0
H1158 H 0.67637 0.3593 0.80938 0.0
H1159 H 0.69301 0.35885 0.83516 0.0
C1160 C 0.6574 0.67824 0.82248 0.0
C1161 C 0.65496 0.68681 0.82672 0.0
C1162 C 0.6415 0.68835 0.81583 0.0
C1163 C 0.64709 0.69183 0.82341 0.0
C1164 C 0.64399 0.67972 0.81167 0.0
C1165 C 0.65187 0.67473 0.81496 0.0
U1166 U 0.67812 0.67427 0.83973 0.0
O1167 O 0.68352 0.66099 0.84581 0.0
O1168 O 0.69275 0.66994 0.83689 0.0
C1169 C 0.69172 0.66185 0.84146 0.0
C1170 C 0.6657 0.6729 0.82578 0.0
C1171 C 0.69486 0.65342 0.83636 0.0
C1172 C 0.69402 0.64285 0.82284 0.0
C1173 C 0.69075 0.65079 0.82765 0.0
C1174 C 0.70545 0.64007 0.83543 0.0
C1175 C 0.70145 0.63742 0.82665 0.0
C1176 C 0.70218 0.64799 0.84023 0.0
C1177 C 0.6822 0.69146 0.86039 0.0
C1178 C 0.69307 0.68876 0.87359 0.0
C1179 C 0.68577 0.70405 0.87155 0.0
C1180 C 0.68101 0.70076 0.86346 0.0
C1181 C 0.69182 0.69809 0.87677 0.0
C1182 C 0.68831 0.68548 0.86546 0.0
C1183 C 0.67696 0.68816 0.85193 0.0
O1184 O 0.67395 0.6773 0.82496 0.0
O1185 O 0.6647 0.66845 0.83394 0.0
O1186 O 0.6723 0.68007 0.85285 0.0
O1187 O 0.68152 0.68896 0.84386 0.0
H1188 H 0.65914 0.68961 0.83257 0.0
H1189 H 0.64532 0.69839 0.82686 0.0
H1190 H 0.63995 0.6769 0.80574 0.0
H1191 H 0.65367 0.66813 0.8116 0.0
H1192 H 0.69085 0.64108 0.81605 0.0
H1193 H 0.68509 0.65492 0.82456 0.0
H1194 H 0.71106 0.63597 0.83866 0.0
H1195 H 0.7054 0.6499 0.84696 0.0
H1196 H 0.69761 0.68395 0.87746 0.0
H1197 H 0.68477 0.71132 0.87366 0.0
H1198 H 0.67637 0.7055 0.8596 0.0
H1199 H 0.68934 0.67827 0.86317 0.0
C1200 C 0.32595 0.65181 0.83481 0.0
C1201 C 0.3306 0.64941 0.82641 0.0
C1202 C 0.31917 0.63652 0.82373 0.0
C1203 C 0.32724 0.64183 0.82092 0.0
C1204 C 0.31458 0.63897 0.83218 0.0
C1205 C 0.31794 0.64654 0.83766 0.0
U1206 U 0.34344 0.67217 0.83969 0.0
O1207 O 0.34092 0.68651 0.84497 0.0
O1208 O 0.34994 0.67685 0.85314 0.0
C1209 C 0.34566 0.68504 0.8529 0.0
C1210 C 0.32936 0.65977 0.84065 0.0
C1211 C 0.34074 0.68765 0.86165 0.0
C1212 C 0.32754 0.68589 0.87257 0.0
C1213 C 0.33216 0.68321 0.86427 0.0
C1214 C 0.34007 0.69741 0.87572 0.0
C1215 C 0.33143 0.69304 0.8784 0.0
C1216 C 0.34467 0.69474 0.86743 0.0
C1217 C 0.36377 0.67693 0.82222 0.0
C1218 C 0.37573 0.68936 0.82434 0.0
C1219 C 0.37613 0.67934 0.81048 0.0
C1220 C 0.36806 0.67444 0.81368 0.0
C1221 C 0.3801 0.68685 0.81578 0.0
C1222 C 0.36764 0.68443 0.82754 0.0
C1223 C 0.35531 0.67161 0.82541 0.0
O1224 O 0.3376 0.65856 0.84489 0.0
O1225 O 0.32854 0.66821 0.83677 0.0
O1226 O 0.3473 0.67624 0.8251 0.0
O1227 O 0.35636 0.6666 0.83323 0.0
H1228 H 0.33679 0.65343 0.8241 0.0
H1229 H 0.33089 0.64021 0.81441 0.0
H1230 H 0.30844 0.63496 0.83463 0.0
H1231 H 0.31429 0.64828 0.84414 0.0
H1232 H 0.32096 0.68229 0.87447 0.0
H1233 H 0.32904 0.67769 0.85989 0.0
H1234 H 0.34321 0.70303 0.87996 0.0
H1235 H 0.35127 0.69826 0.86549 0.0
H1236 H 0.37864 0.69505 0.82863 0.0
H1237 H 0.37919 0.67733 0.80379 0.0
H1238 H 0.36514 0.66869 0.80947 0.0
H1239 H 0.36441 0.68644 0.83416 0.0
C1240 C 0.33877 0.36055 0.81871 0.0
C1241 C 0.33167 0.36426 0.82447 0.0
C1242 C 0.32878 0.37678 0.81282 0.0
C1243 C 0.32672 0.37231 0.82155 0.0
C1244 C 0.33589 0.37297 0.80708 0.0
C1245 C 0.34083 0.36495 0.81001 0.0
U1246 U 0.34318 0.33962 0.83551 0.0
O1247 O 0.34711 0.32499 0.83216 0.0
O1248 O 0.35661 0.33387 0.84087 0.0
C1249 C 0.35548 0.32587 0.83627 0.0
C1250 C 0.34407 0.35212 0.82163 0.0
C1251 C 0.36364 0.32281 0.83061 0.0
C1252 C 0.37755 0.3263 0.82097 0.0
C1253 C 0.3697 0.32939 0.82606 0.0
C1254 C 0.37324 0.31003 0.82469 0.0
C1255 C 0.37943 0.31658 0.82025 0.0
C1256 C 0.36544 0.31312 0.82983 0.0
C1257 C 0.32697 0.33584 0.85709 0.0
C1258 C 0.32907 0.32338 0.86889 0.0
C1259 C 0.316 0.33421 0.87022 0.0
C1260 C 0.31894 0.33886 0.86194 0.0
C1261 C 0.32104 0.32644 0.87384 0.0
C1262 C 0.33202 0.32805 0.86058 0.0
C1263 C 0.32996 0.34097 0.84846 0.0
O1264 O 0.349 0.35292 0.82955 0.0
O1265 O 0.33941 0.34402 0.82097 0.0
O1266 O 0.32866 0.33645 0.84044 0.0
O1267 O 0.33821 0.34542 0.84899 0.0
H1268 H 0.32999 0.36095 0.83122 0.0
H1269 H 0.32136 0.3751 0.82619 0.0
H1270 H 0.33756 0.37612 0.80025 0.0
H1271 H 0.34625 0.36214 0.80545 0.0
H1272 H 0.38212 0.33151 0.81754 0.0
H1273 H 0.3684 0.33691 0.82649 0.0
H1274 H 0.37454 0.3025 0.82436 0.0
H1275 H 0.36085 0.30794 0.83329 0.0
H1276 H 0.33316 0.31747 0.87151 0.0
H1277 H 0.30969 0.33666 0.87374 0.0
H1278 H 0.31494 0.34483 0.85932 0.0
H1279 H 0.33825 0.32563 0.85691 0.0
H1280 H 0.26693 0.25203 0.96683 0.0
N1281 N 0.26041 0.26809 0.97517 0.0
H1282 H 0.25796 0.24164 0.95618 0.0
H1283 H 0.24181 0.26818 0.97186 0.0
H1284 H 0.23267 0.25767 0.96134 0.0
H1285 H 0.25733 0.28401 0.96566 0.0
H1286 H 0.26781 0.2919 0.95421 0.0
H1287 H 0.27886 0.26352 0.97178 0.0
H1288 H 0.28947 0.27136 0.96028 0.0
H1289 H 0.26794 0.25239 0.98384 0.0
H1290 H 0.25792 0.28053 0.98888 0.0
H1291 H 0.27053 0.25009 1.00081 0.0
H1292 H 0.26101 0.27856 0.00584 0.0
H1293 H 0.27513 0.24113 0.05204 0.0
H1294 H 0.26534 0.23172 0.06297 0.0
H1295 H 0.24321 0.25247 0.06059 0.0
H1296 H 0.25318 0.26194 0.05003 0.0
H1297 H 0.26419 0.27493 0.05107 0.0
H1298 H 0.27121 0.28537 0.06303 0.0
H1299 H 0.29633 0.26821 0.06377 0.0
H1300 H 0.28909 0.25765 0.05199 0.0
H1301 H 0.28187 0.25141 0.03109 0.0
H1302 H 0.27982 0.25393 0.01402 0.0
H1303 H 0.2554 0.27119 0.01951 0.0
N1304 N 0.27154 0.25821 0.04507 0.0
H1305 H 0.25791 0.26909 0.03646 0.0
C1306 C 0.25502 0.26091 0.97016 0.0
C1307 C 0.25942 0.25321 0.96583 0.0
C1308 C 0.25426 0.24725 0.95974 0.0
C1309 C 0.2446 0.24887 0.95782 0.0
C1310 C 0.24013 0.25631 0.96253 0.0
C1311 C 0.2453 0.26226 0.96862 0.0
C1312 C 0.2673 0.27321 0.96953 0.0
C1313 C 0.26441 0.28134 0.96464 0.0
C1314 C 0.27042 0.28583 0.95812 0.0
C1315 C 0.27948 0.28224 0.9563 0.0
C1316 C 0.2825 0.27424 0.96144 0.0
C1317 C 0.27648 0.26978 0.96805 0.0
C1318 C 0.26257 0.26661 0.98509 0.0
C1319 C 0.26635 0.25811 0.98858 0.0
C1320 C 0.26792 0.25685 0.99835 0.0
C1321 C 0.26592 0.26411 0.00482 0.0
C1322 C 0.26242 0.2727 1.00119 0.0
C1323 C 0.26072 0.27389 0.99147 0.0
C1324 C 0.26491 0.25218 0.05012 0.0
C1325 C 0.26808 0.24352 0.05374 0.0
C1326 C 0.26245 0.23816 0.05998 0.0
C1327 C 0.25347 0.24135 0.06273 0.0
C1328 C 0.25014 0.24986 0.05876 0.0
C1329 C 0.25581 0.25525 0.05257 0.0
C1330 C 0.27613 0.26547 0.05066 0.0
C1331 C 0.27127 0.27351 0.05366 0.0
C1332 C 0.27532 0.2795 0.06051 0.0
C1333 C 0.28429 0.27757 0.06448 0.0
C1334 C 0.28933 0.26981 0.06103 0.0
C1335 C 0.28527 0.26383 0.05422 0.0
C1336 C 0.27002 0.25994 0.03508 0.0
C1337 C 0.2761 0.25576 0.02857 0.0
C1338 C 0.27485 0.25716 0.0188 0.0
C1339 C 0.26739 0.26273 0.01528 0.0
C1340 C 0.26131 0.26696 0.02188 0.0
C1341 C 0.26266 0.26565 0.03166 0.0
H1342 H 0.78134 0.26775 0.9658 0.0
N1343 N 0.76584 0.26468 0.97597 0.0
H1344 H 0.78923 0.25666 0.95539 0.0
H1345 H 0.76162 0.24582 0.9745 0.0
H1346 H 0.76951 0.23454 0.96411 0.0
H1347 H 0.74946 0.25682 0.96884 0.0
H1348 H 0.73839 0.26443 0.95785 0.0
H1349 H 0.76565 0.28285 0.97103 0.0
H1350 H 0.75467 0.29054 0.95996 0.0
H1351 H 0.77919 0.26928 0.98848 0.0
H1352 H 0.75082 0.25765 0.98629 0.0
H1353 H 0.77835 0.26844 0.00574 0.0
H1354 H 0.74963 0.25727 0.0036 0.0
H1355 H 0.78029 0.26485 0.05444 0.0
H1356 H 0.78789 0.25379 0.06547 0.0
H1357 H 0.76399 0.23444 0.06232 0.0
H1358 H 0.75641 0.24566 0.0515 0.0
H1359 H 0.74481 0.25818 0.05137 0.0
H1360 H 0.73447 0.2663 0.06255 0.0
H1361 H 0.75565 0.28859 0.06548 0.0
H1362 H 0.76591 0.28035 0.05442 0.0
H1363 H 0.77112 0.27605 0.03564 0.0
H1364 H 0.77137 0.27619 0.01833 0.0
H1365 H 0.7546 0.25025 0.01809 0.0
N1366 N 0.76293 0.26333 0.04699 0.0
H1367 H 0.75398 0.25056 0.03545 0.0
C1368 C 0.77094 0.25761 0.97089 0.0
C1369 C 0.77885 0.26046 0.96558 0.0
C1370 C 0.78335 0.25409 0.95966 0.0
C1371 C 0.78001 0.24469 0.9589 0.0
C1372 C 0.7722 0.24175 0.96446 0.0
C1373 C 0.76772 0.24816 0.97043 0.0
C1374 C 0.75839 0.2693 0.97074 0.0
C1375 C 0.75054 0.26422 0.96709 0.0
C1376 C 0.74425 0.26857 0.96075 0.0
C1377 C 0.74569 0.27807 0.95796 0.0
C1378 C 0.75329 0.28324 0.96202 0.0
C1379 C 0.75958 0.27888 0.96833 0.0
C1380 C 0.76506 0.26367 0.98611 0.0
C1381 C 0.77275 0.26659 0.99177 0.0
C1382 C 0.77219 0.26619 1.00164 0.0
C1383 C 0.76384 0.26296 0.00615 0.0
C1384 C 0.75619 0.25977 1.00043 0.0
C1385 C 0.75682 0.26006 0.9905 0.0
C1386 C 0.76784 0.25606 0.05214 0.0
C1387 C 0.77682 0.25812 0.05599 0.0
C1388 C 0.78114 0.25178 0.06228 0.0
C1389 C 0.77652 0.24324 0.06484 0.0
C1390 C 0.76768 0.24101 0.06061 0.0
C1391 C 0.76337 0.24738 0.05434 0.0
C1392 C 0.75612 0.26869 0.05214 0.0
C1393 C 0.74713 0.26488 0.05432 0.0
C1394 C 0.74126 0.26951 0.06073 0.0
C1395 C 0.74427 0.27807 0.06494 0.0
C1396 C 0.75308 0.28207 0.0623 0.0
C1397 C 0.75895 0.27739 0.05599 0.0
C1398 C 0.76265 0.26326 0.0368 0.0
C1399 C 0.76747 0.27044 0.03181 0.0
C1400 C 0.76767 0.27043 0.02191 0.0
C1401 C 0.76315 0.26313 0.01673 0.0
C1402 C 0.75813 0.25601 0.02179 0.0
C1403 C 0.75784 0.25612 0.03174 0.0
H1404 H 0.75038 0.78092 0.9714 0.0
N1405 N 0.75119 0.76257 0.97558 0.0
H1406 H 0.7606 0.78995 0.96047 0.0
H1407 H 0.76747 0.75628 0.96736 0.0
H1408 H 0.77764 0.76518 0.95645 0.0
H1409 H 0.75599 0.74436 0.97153 0.0
H1410 H 0.74807 0.7341 0.95987 0.0
H1411 H 0.73453 0.76535 0.96727 0.0
H1412 H 0.72629 0.75502 0.95596 0.0
H1413 H 0.73967 0.76644 0.98978 0.0
H1414 H 0.76668 0.75408 0.98374 0.0
H1415 H 0.74228 0.76379 0.00674 0.0
H1416 H 0.76966 0.7519 1.00064 0.0
H1417 H 0.75576 0.76862 0.05296 0.0
H1418 H 0.76295 0.78032 0.06348 0.0
H1419 H 0.79025 0.76731 0.05995 0.0
H1420 H 0.78299 0.75581 0.0491 0.0
H1421 H 0.77009 0.73821 0.05468 0.0
H1422 H 0.76112 0.72927 0.06663 0.0
H1423 H 0.7367 0.74665 0.06106 0.0
H1424 H 0.74569 0.75532 0.04884 0.0
H1425 H 0.75405 0.76741 0.03668 0.0
H1426 H 0.75088 0.7693 0.0198 0.0
H1427 H 0.7658 0.7434 0.01436 0.0
N1428 N 0.76462 0.75343 0.04516 0.0
H1429 H 0.7694 0.74192 0.03128 0.0
C1430 C 0.75817 0.76797 0.97029 0.0
C1431 C 0.75645 0.77752 0.96831 0.0
C1432 C 0.76223 0.78263 0.96199 0.0
C1433 C 0.7699 0.77827 0.95753 0.0
C1434 C 0.77186 0.76879 0.95983 0.0
C1435 C 0.76603 0.76367 0.96611 0.0
C1436 C 0.74587 0.75567 0.97016 0.0
C1437 C 0.74947 0.74667 0.96822 0.0
C1438 C 0.74489 0.74079 0.96158 0.0
C1439 C 0.73661 0.74379 0.95683 0.0
C1440 C 0.73277 0.75257 0.95927 0.0
C1441 C 0.73738 0.75844 0.96582 0.0
C1442 C 0.75298 0.76059 0.98548 0.0
C1443 C 0.7462 0.7632 0.99214 0.0
C1444 C 0.74777 0.76176 1.00185 0.0
C1445 C 0.75625 0.75771 0.00517 0.0
C1446 C 0.76299 0.75493 0.99842 0.0
C1447 C 0.76134 0.75627 0.98869 0.0
C1448 C 0.76887 0.76136 0.05012 0.0
C1449 C 0.76333 0.76843 0.05419 0.0
C1450 C 0.76745 0.77506 0.06035 0.0
C1451 C 0.77718 0.77471 0.06269 0.0
C1452 C 0.78277 0.76788 0.05827 0.0
C1453 C 0.77864 0.76129 0.05206 0.0
C1454 C 0.75859 0.74743 0.05093 0.0
C1455 C 0.76273 0.73993 0.0559 0.0
C1456 C 0.75762 0.73492 0.06281 0.0
C1457 C 0.74824 0.73736 0.06496 0.0
C1458 C 0.74391 0.74457 0.05959 0.0
C1459 C 0.74904 0.74956 0.05262 0.0
C1460 C 0.76213 0.75457 0.03527 0.0
C1461 C 0.7567 0.76217 0.03189 0.0
C1462 C 0.7548 0.76318 0.02216 0.0
C1463 C 0.75811 0.75653 0.0156 0.0
C1464 C 0.7633 0.7488 0.01909 0.0
C1465 C 0.76531 0.74788 0.02879 0.0
H1466 H 0.28095 0.7469 0.97372 0.0
N1467 N 0.26193 0.74354 0.97647 0.0
H1468 H 0.29102 0.73862 0.96255 0.0
H1469 H 0.25785 0.7275 0.9676 0.0
H1470 H 0.26795 0.71891 0.9567 0.0
H1471 H 0.24366 0.74436 0.97173 0.0
H1472 H 0.23633 0.75492 0.96003 0.0
H1473 H 0.27051 0.75894 0.96792 0.0
H1474 H 0.26323 0.76967 0.95655 0.0
H1475 H 0.27243 0.75827 0.9841 0.0
H1476 H 0.25599 0.73322 0.99113 0.0
H1477 H 0.27489 0.76147 1.00087 0.0
H1478 H 0.25876 0.73613 0.00802 0.0
H1479 H 0.28797 0.76002 0.057 0.0
H1480 H 0.29474 0.74898 0.0685 0.0
H1481 H 0.27567 0.72694 0.05832 0.0
H1482 H 0.26873 0.73818 0.04709 0.0
H1483 H 0.2576 0.74998 0.05485 0.0
H1484 H 0.24776 0.75856 0.06589 0.0
H1485 H 0.26284 0.78452 0.05873 0.0
H1486 H 0.27294 0.77573 0.04796 0.0
H1487 H 0.28534 0.75982 0.03145 0.0
H1488 H 0.283 0.75632 0.01464 0.0
H1489 H 0.25451 0.74617 0.02062 0.0
N1490 N 0.27323 0.75709 0.04556 0.0
H1491 H 0.25711 0.74933 0.03744 0.0
C1492 C 0.2686 0.73784 0.97143 0.0
C1493 C 0.27811 0.74073 0.97014 0.0
C1494 C 0.28388 0.73594 0.96376 0.0
C1495 C 0.28026 0.72817 0.95859 0.0
C1496 C 0.27091 0.72499 0.96037 0.0
C1497 C 0.26516 0.72981 0.96669 0.0
C1498 C 0.25759 0.75085 0.97079 0.0
C1499 C 0.2479 0.75001 0.96857 0.0
C1500 C 0.24374 0.75606 0.96189 0.0
C1501 C 0.24921 0.76311 0.95727 0.0
C1502 C 0.25884 0.76422 0.95984 0.0
C1503 C 0.26299 0.75814 0.96648 0.0
C1504 C 0.26392 0.74552 0.98632 0.0
C1505 C 0.26938 0.75341 0.98923 0.0
C1506 C 0.27085 0.75519 0.99889 0.0
C1507 C 0.26701 0.74908 0.00588 0.0
C1508 C 0.26169 0.7411 1.0029 0.0
C1509 C 0.26016 0.73938 0.99324 0.0
C1510 C 0.27791 0.74994 0.05116 0.0
C1511 C 0.28539 0.75275 0.05716 0.0
C1512 C 0.28926 0.7464 0.0637 0.0
C1513 C 0.28575 0.73704 0.06439 0.0
C1514 C 0.27846 0.73412 0.0581 0.0
C1515 C 0.27455 0.74052 0.05158 0.0
C1516 C 0.26609 0.76222 0.05061 0.0
C1517 C 0.25869 0.75754 0.05551 0.0
C1518 C 0.25302 0.76249 0.06183 0.0
C1519 C 0.25458 0.77224 0.06334 0.0
C1520 C 0.26158 0.77699 0.05793 0.0
C1521 C 0.26728 0.77201 0.05168 0.0
C1522 C 0.27142 0.75494 0.0357 0.0
C1523 C 0.2786 0.75683 0.02911 0.0
C1524 C 0.27721 0.75489 0.01948 0.0
C1525 C 0.26853 0.75102 0.0162 0.0
C1526 C 0.26133 0.74905 0.02287 0.0
C1527 C 0.26277 0.75094 0.03252 0.0
H1528 H 0.97528 0.25403 0.2713 0.0
N1529 N 0.97831 0.25841 0.25259 0.0
H1530 H 0.96471 0.26234 0.28201 0.0
H1531 H 0.97041 0.27507 0.24963 0.0
H1532 H 0.96011 0.28365 0.26036 0.0
H1533 H 0.97333 0.25904 0.2344 0.0
H1534 H 0.96122 0.24934 0.22639 0.0
H1535 H 0.96933 0.24268 0.26002 0.0
H1536 H 0.95756 0.23271 0.25202 0.0
H1537 H 0.9856 0.24287 0.26179 0.0
H1538 H 0.99322 0.2688 0.24726 0.0
H1539 H 1.00231 0.23908 0.26362 0.0
H1540 H 0.01005 0.26534 0.24948 0.0
H1541 H 0.05712 0.23902 0.27724 0.0
H1542 H 0.06822 0.24937 0.28584 0.0
H1543 H 0.06105 0.27253 0.26705 0.0
H1544 H 0.05 0.26206 0.25845 0.0
H1545 H 0.05588 0.25149 0.24633 0.0
H1546 H 0.06717 0.24412 0.23579 0.0
H1547 H 0.06214 0.21721 0.24981 0.0
H1548 H 0.05092 0.22474 0.26047 0.0
H1549 H 0.03316 0.23917 0.2735 0.0
H1550 H 0.0164 0.24302 0.27172 0.0
H1551 H 0.02233 0.25563 0.2443 0.0
N1552 N 0.04727 0.24308 0.26169 0.0
H1553 H 0.03911 0.25217 0.2464 0.0
C1554 C 0.97357 0.26392 0.25963 0.0
C1555 C 0.97209 0.26054 0.26891 0.0
C1556 C 0.96606 0.26534 0.27504 0.0
C1557 C 0.96143 0.27361 0.272 0.0
C1558 C 0.96337 0.2772 0.26287 0.0
C1559 C 0.96934 0.27238 0.25676 0.0
C1560 C 0.97232 0.25158 0.24776 0.0
C1561 C 0.97003 0.25318 0.23821 0.0
C1562 C 0.96312 0.2476 0.23364 0.0
C1563 C 0.95834 0.24025 0.23857 0.0
C1564 C 0.96097 0.2384 0.24805 0.0
C1565 C 0.96783 0.24403 0.25261 0.0
C1566 C 0.98813 0.2561 0.25427 0.0
C1567 C 0.99085 0.24779 0.25903 0.0
C1568 C 1.00048 0.24568 0.26015 0.0
C1569 C 0.00762 0.25187 0.25667 0.0
C1570 C 0.00482 0.26028 0.25208 0.0
C1571 C 0.9952 0.26233 0.25088 0.0
C1572 C 0.05276 0.24974 0.26724 0.0
C1573 C 0.05784 0.24637 0.2751 0.0
C1574 C 0.06415 0.25231 0.28001 0.0
C1575 C 0.06555 0.26178 0.27712 0.0
C1576 C 0.06022 0.26525 0.26939 0.0
C1577 C 0.05386 0.25929 0.2645 0.0
C1578 C 0.0525 0.23864 0.25421 0.0
C1579 C 0.05699 0.24396 0.247 0.0
C1580 C 0.06348 0.23972 0.24095 0.0
C1581 C 0.06565 0.23008 0.242 0.0
C1582 C 0.06076 0.22468 0.24889 0.0
C1583 C 0.05426 0.22893 0.25492 0.0
C1584 C 0.0374 0.24526 0.26009 0.0
C1585 C 0.03081 0.24276 0.26711 0.0
C1586 C 0.02121 0.24491 0.26603 0.0
C1587 C 0.01792 0.2496 0.25783 0.0
C1588 C 0.02457 0.25213 0.25077 0.0
C1589 C 0.03421 0.25005 0.25192 0.0
H1590 H 0.77656 0.0465 0.26927 0.0
N1591 N 0.75826 0.0421 0.26732 0.0
H1592 H 0.78596 0.05765 0.2596 0.0
H1593 H 0.75251 0.05046 0.25069 0.0
H1594 H 0.76179 0.06155 0.24102 0.0
H1595 H 0.74011 0.04603 0.26157 0.0
H1596 H 0.72942 0.05715 0.26915 0.0
H1597 H 0.76056 0.05021 0.28406 0.0
H1598 H 0.74998 0.06133 0.29169 0.0
H1599 H 0.76329 0.02754 0.2781 0.0
H1600 H 0.74894 0.03444 0.25194 0.0
H1601 H 0.76086 0.01067 0.27498 0.0
H1602 H 0.74683 0.01765 0.24852 0.0
H1603 H 0.76474 0.96494 0.26064 0.0
H1604 H 0.77544 0.95452 0.25237 0.0
H1605 H 0.75972 0.95902 0.22635 0.0
H1606 H 0.74891 0.96942 0.23477 0.0
H1607 H 0.73316 0.96249 0.25025 0.0
H1608 H 0.72558 0.95122 0.26118 0.0
H1609 H 0.74568 0.95934 0.28307 0.0
H1610 H 0.75324 0.97056 0.27203 0.0
H1611 H 0.76407 0.98151 0.26199 0.0
H1612 H 0.76617 0.99832 0.26521 0.0
H1613 H 0.73851 0.00363 0.25297 0.0
N1614 N 0.74866 0.97297 0.25325 0.0
H1615 H 0.73667 0.98678 0.24942 0.0
C1616 C 0.76388 0.04757 0.2607 0.0
C1617 C 0.77338 0.04963 0.263 0.0
C1618 C 0.77869 0.05605 0.25751 0.0
C1619 C 0.77459 0.06053 0.24958 0.0
C1620 C 0.76518 0.05815 0.24703 0.0
C1621 C 0.75986 0.05177 0.25257 0.0
C1622 C 0.75115 0.04731 0.27228 0.0
C1623 C 0.74224 0.04922 0.26821 0.0
C1624 C 0.73616 0.05563 0.27253 0.0
C1625 C 0.73885 0.06018 0.28101 0.0
C1626 C 0.7476 0.05789 0.28524 0.0
C1627 C 0.75367 0.05154 0.2809 0.0
C1628 C 0.75637 0.03226 0.26527 0.0
C1629 C 0.75964 0.02539 0.27166 0.0
C1630 C 0.75832 0.01575 0.26981 0.0
C1631 C 0.75372 0.01273 0.26144 0.0
C1632 C 0.75032 0.01967 0.25508 0.0
C1633 C 0.75159 0.02933 0.257 0.0
C1634 C 0.75601 0.96803 0.2483 0.0
C1635 C 0.7637 0.9639 0.25312 0.0
C1636 C 0.76984 0.95791 0.24836 0.0
C1637 C 0.76841 0.95587 0.2387 0.0
C1638 C 0.76095 0.96033 0.23382 0.0
C1639 C 0.75483 0.96635 0.23858 0.0
C1640 C 0.74373 0.96735 0.26029 0.0
C1641 C 0.7358 0.96194 0.25746 0.0
C1642 C 0.73148 0.95553 0.26373 0.0
C1643 C 0.73504 0.95435 0.273 0.0
C1644 C 0.74283 0.96 0.27594 0.0
C1645 C 0.74713 0.96646 0.26966 0.0
C1646 C 0.75022 0.98287 0.25534 0.0
C1647 C 0.75848 0.98626 0.25992 0.0
C1648 C 0.75963 0.99593 0.26185 0.0
C1649 C 0.75251 1.00241 0.25935 0.0
C1650 C 0.74423 0.99893 0.25485 0.0
C1651 C 0.74313 0.98929 0.25287 0.0
H1652 H 0.05444 0.77217 0.28056 0.0
N1653 N 0.04646 0.76933 0.26371 0.0
H1654 H 0.06498 0.76154 0.28927 0.0
H1655 H 0.04957 0.75066 0.25951 0.0
H1656 H 0.05976 0.73993 0.26826 0.0
H1657 H 0.05268 0.76184 0.24705 0.0
H1658 H 0.06476 0.76875 0.23667 0.0
H1659 H 0.05382 0.78672 0.2645 0.0
H1660 H 0.06581 0.79383 0.25402 0.0
H1661 H 0.03279 0.77946 0.27128 0.0
H1662 H 0.03743 0.75697 0.25148 0.0
H1663 H 0.0157 0.77835 0.26819 0.0
H1664 H 0.02046 0.75531 0.24885 0.0
H1665 H 0.96753 0.76748 0.26735 0.0
H1666 H 0.9566 0.7586 0.27754 0.0
H1667 H 0.96251 0.73309 0.26207 0.0
H1668 H 0.97326 0.74216 0.25172 0.0
H1669 H 0.96754 0.75714 0.23543 0.0
H1670 H 0.95601 0.76702 0.22716 0.0
H1671 H 0.96084 0.78909 0.24779 0.0
H1672 H 0.97268 0.7792 0.2558 0.0
H1673 H 0.98489 0.76749 0.26794 0.0
H1674 H 1.00188 0.76957 0.27078 0.0
H1675 H 0.00731 0.76188 0.24169 0.0
N1676 N 0.97642 0.76077 0.25164 0.0
H1677 H 0.99032 0.75921 0.23918 0.0
C1678 C 0.05113 0.76226 0.26942 0.0
C1679 C 0.05542 0.76506 0.27798 0.0
C1680 C 0.06143 0.75895 0.28294 0.0
C1681 C 0.0633 0.74988 0.27944 0.0
C1682 C 0.05862 0.74692 0.27109 0.0
C1683 C 0.05265 0.75305 0.26611 0.0
C1684 C 0.05233 0.77379 0.25658 0.0
C1685 C 0.05534 0.76889 0.24853 0.0
C1686 C 0.06227 0.77287 0.24257 0.0
C1687 C 0.06634 0.78182 0.24456 0.0
C1688 C 0.06296 0.78687 0.25237 0.0
C1689 C 0.05604 0.78287 0.25831 0.0
C1690 C 0.03643 0.76824 0.26176 0.0
C1691 C 0.0301 0.77419 0.26636 0.0
C1692 C 0.02031 0.77349 0.26462 0.0
C1693 C 0.01658 0.7667 0.25828 0.0
C1694 C 0.02299 0.76074 0.25367 0.0
C1695 C 0.03279 0.76157 0.2553 0.0
C1696 C 0.97121 0.75546 0.25873 0.0
C1697 C 0.96661 0.75996 0.26624 0.0
C1698 C 0.96036 0.75484 0.2721 0.0
C1699 C 0.95858 0.74514 0.27058 0.0
C1700 C 0.96357 0.74059 0.26334 0.0
C1701 C 0.9698 0.74572 0.25748 0.0
C1702 C 0.97089 0.7674 0.24622 0.0
C1703 C 0.96624 0.76419 0.23803 0.0
C1704 C 0.95958 0.76981 0.2334 0.0
C1705 C 0.95733 0.77879 0.23693 0.0
C1706 C 0.96239 0.78222 0.24488 0.0
C1707 C 0.96913 0.77657 0.24949 0.0
C1708 C 0.98632 0.76302 0.25335 0.0
C1709 C 0.98972 0.76622 0.26218 0.0
C1710 C 0.9995 0.7675 0.26376 0.0
C1711 C 0.00609 0.76579 0.25651 0.0
C1712 C 1.00256 0.763 0.24757 0.0
C1713 C 0.99282 0.76158 0.24605 0.0
H1714 H 0.29294 0.96529 0.24562 0.0
N1715 N 0.27538 0.97139 0.24796 0.0
H1716 H 0.30168 0.95449 0.25604 0.0
H1717 H 0.27017 0.96598 0.2658 0.0
H1718 H 0.27875 0.95508 0.27621 0.0
H1719 H 0.25738 0.96811 0.25423 0.0
H1720 H 0.24585 0.95674 0.2475 0.0
H1721 H 0.2768 0.96228 0.23167 0.0
H1722 H 0.26543 0.9509 0.2249 0.0
H1723 H 0.2818 0.98332 0.23482 0.0
H1724 H 0.26741 0.98228 0.26163 0.0
H1725 H 0.28133 1.00058 0.23482 0.0
H1726 H 0.26724 0.99964 0.26198 0.0
H1727 H 0.29086 0.05352 0.24602 0.0
H1728 H 0.29779 0.06398 0.25806 0.0
H1729 H 0.27739 0.05329 0.27843 0.0
H1730 H 0.2705 0.04287 0.26625 0.0
H1731 H 0.25862 0.04808 0.25475 0.0
H1732 H 0.24773 0.05915 0.24721 0.0
H1733 H 0.26493 0.05929 0.22194 0.0
H1734 H 0.27594 0.04841 0.22971 0.0
H1735 H 0.28887 0.03079 0.24191 0.0
H1736 H 0.28866 0.01352 0.24245 0.0
H1737 H 0.26077 0.01377 0.25506 0.0
N1738 N 0.27559 0.04243 0.24761 0.0
H1739 H 0.26129 0.03113 0.25484 0.0
C1740 C 0.28096 0.96646 0.25495 0.0
C1741 C 0.28993 0.96325 0.2524 0.0
C1742 C 0.29485 0.95701 0.25831 0.0
C1743 C 0.29086 0.95382 0.26691 0.0
C1744 C 0.28206 0.95744 0.26968 0.0
C1745 C 0.27714 0.96369 0.26373 0.0
C1746 C 0.26793 0.96599 0.24342 0.0
C1747 C 0.25908 0.96449 0.24774 0.0
C1748 C 0.25254 0.95795 0.24392 0.0
C1749 C 0.25473 0.95286 0.23568 0.0
C1750 C 0.26344 0.95475 0.23117 0.0
C1751 C 0.26996 0.96124 0.23502 0.0
C1752 C 0.27476 0.98154 0.24824 0.0
C1753 C 0.27859 0.98686 0.24074 0.0
C1754 C 0.27837 0.99674 0.24082 0.0
C1755 C 0.27437 1.00158 0.24848 0.0
C1756 C 0.27033 0.99619 0.25594 0.0
C1757 C 0.27049 0.98625 0.2558 0.0
C1758 C 0.2802 0.04746 0.25524 0.0
C1759 C 0.28803 0.05332 0.25314 0.0
C1760 C 0.29197 0.05927 0.26004 0.0
C1761 C 0.28813 0.0595 0.26921 0.0
C1762 C 0.28045 0.05336 0.2714 0.0
C1763 C 0.27653 0.04737 0.26448 0.0
C1764 C 0.26812 0.04743 0.24277 0.0
C1765 C 0.25994 0.05033 0.24752 0.0
C1766 C 0.2537 0.05667 0.24318 0.0
C1767 C 0.2555 0.06022 0.23399 0.0
C1768 C 0.26341 0.05686 0.22908 0.0
C1769 C 0.26966 0.05055 0.23345 0.0
C1770 C 0.27509 0.03224 0.24821 0.0
C1771 C 0.28273 0.0271 0.24481 0.0
C1772 C 0.28255 0.01721 0.24506 0.0
C1773 C 0.27463 0.01218 0.24866 0.0
C1774 C 0.26701 0.01738 0.25227 0.0
C1775 C 0.26725 0.02732 0.25208 0.0
H1776 H 0.04983 0.73177 0.76516 0.0
N1777 N 0.04639 0.75012 0.76677 0.0
H1778 H 0.06042 0.72429 0.75386 0.0
H1779 H 0.0542 0.75862 0.75101 0.0
H1780 H 0.06443 0.7512 0.73953 0.0
H1781 H 0.05106 0.76882 0.76393 0.0
H1782 H 0.06358 0.77768 0.77227 0.0
H1783 H 0.0555 0.74485 0.7824 0.0
H1784 H 0.06772 0.75377 0.7911 0.0
H1785 H 0.03231 0.7452 0.77826 0.0
H1786 H 0.03837 0.76133 0.75291 0.0
H1787 H 0.01561 0.74956 0.77712 0.0
H1788 H 0.02169 0.76533 0.7514 0.0
H1789 H 0.96769 0.75196 0.76621 0.0
H1790 H 0.95602 0.74236 0.75768 0.0
H1791 H 0.96303 0.7573 0.73171 0.0
H1792 H 0.9745 0.76716 0.74046 0.0
H1793 H 0.96834 0.78309 0.75652 0.0
H1794 H 0.95745 0.7905 0.76754 0.0
H1795 H 0.96477 0.76978 0.78897 0.0
H1796 H 0.97562 0.76239 0.77783 0.0
H1797 H 0.98479 0.75079 0.76683 0.0
H1798 H 1.00147 0.74679 0.7686 0.0
H1799 H 0.00954 0.77446 0.75773 0.0
N1800 N 0.97774 0.76718 0.75907 0.0
H1801 H 0.99277 0.77818 0.75555 0.0
C1802 C 0.05111 0.74571 0.75893 0.0
C1803 C 0.05282 0.73598 0.75943 0.0
C1804 C 0.05888 0.73173 0.75296 0.0
C1805 C 0.06338 0.73715 0.74582 0.0
C1806 C 0.06124 0.74683 0.74503 0.0
C1807 C 0.05523 0.75108 0.75154 0.0
C1808 C 0.05244 0.75612 0.7725 0.0
C1809 C 0.05461 0.76553 0.7699 0.0
C1810 C 0.06175 0.77061 0.77473 0.0
C1811 C 0.06679 0.7664 0.78228 0.0
C1812 C 0.06417 0.75717 0.78518 0.0
C1813 C 0.05711 0.75209 0.7803 0.0
C1814 C 0.0366 0.75281 0.76565 0.0
C1815 C 0.03 0.74961 0.77239 0.0
C1816 C 0.02044 0.75206 0.77168 0.0
C1817 C 0.01721 0.75777 0.76413 0.0
C1818 C 0.02388 0.76103 0.75739 0.0
C1819 C 0.03348 0.75865 0.75818 0.0
C1820 C 0.97195 0.76037 0.75397 0.0
C1821 C 0.96684 0.75311 0.75866 0.0
C1822 C 0.96017 0.74756 0.75374 0.0
C1823 C 0.95848 0.7491 0.744 0.0
C1824 C 0.96399 0.75603 0.73924 0.0
C1825 C 0.97062 0.76161 0.74419 0.0
C1826 C 0.97278 0.77222 0.76632 0.0
C1827 C 0.96775 0.78031 0.76368 0.0
C1828 C 0.96154 0.78453 0.77 0.0
C1829 C 0.96018 0.7807 0.77914 0.0
C1830 C 0.96556 0.77282 0.78195 0.0
C1831 C 0.97182 0.76863 0.77561 0.0
C1832 C 0.98751 0.76478 0.76092 0.0
C1833 C 0.99012 0.75599 0.76481 0.0
C1834 C 0.99973 0.75374 0.76589 0.0
C1835 C 0.00694 0.76026 0.76325 0.0
C1836 C 0.00425 0.76915 0.75965 0.0
C1837 C 0.99466 0.77135 0.75848 0.0
H1838 H 0.28202 0.0495 0.77782 0.0
N1839 N 0.26559 0.04082 0.77407 0.0
H1840 H 0.29081 0.06064 0.76764 0.0
H1841 H 0.26162 0.04476 0.75537 0.0
H1842 H 0.27037 0.05577 0.74513 0.0
H1843 H 0.24979 0.04919 0.76656 0.0
H1844 H 0.23964 0.06032 0.77465 0.0
H1845 H 0.26528 0.04428 0.79253 0.0
H1846 H 0.25487 0.05509 0.80085 0.0
H1847 H 0.27474 0.02651 0.78198 0.0
H1848 H 0.25242 0.03282 0.762 0.0
H1849 H 0.27247 0.0096 0.77906 0.0
H1850 H 0.25052 0.01603 0.75847 0.0
H1851 H 0.27265 0.96402 0.76753 0.0
H1852 H 0.28334 0.9532 0.75977 0.0
H1853 H 0.26731 0.95615 0.73369 0.0
H1854 H 0.25677 0.96723 0.74151 0.0
H1855 H 0.24106 0.96107 0.75645 0.0
H1856 H 0.23349 0.94949 0.76706 0.0
H1857 H 0.25322 0.95739 0.78936 0.0
H1858 H 0.26074 0.96901 0.77863 0.0
H1859 H 0.27314 0.98085 0.76515 0.0
H1860 H 0.27508 0.99759 0.76839 0.0
H1861 H 0.24498 1.00143 0.76377 0.0
N1862 N 0.25649 0.97155 0.75983 0.0
H1863 H 0.24324 0.98468 0.75992 0.0
C1864 C 0.27119 0.04627 0.7674 0.0
C1865 C 0.27956 0.05072 0.77062 0.0
C1866 C 0.28457 0.05706 0.76479 0.0
C1867 C 0.28126 0.05914 0.75557 0.0
C1868 C 0.27303 0.05442 0.75223 0.0
C1869 C 0.26805 0.04805 0.75808 0.0
C1870 C 0.25838 0.04597 0.77895 0.0
C1871 C 0.25087 0.05032 0.77407 0.0
C1872 C 0.24502 0.05669 0.77874 0.0
C1873 C 0.2465 0.05875 0.7884 0.0
C1874 C 0.25365 0.05388 0.79337 0.0
C1875 C 0.25954 0.0476 0.78867 0.0
C1876 C 0.26387 0.03093 0.77215 0.0
C1877 C 0.26941 0.02422 0.77687 0.0
C1878 C 0.26815 0.01455 0.7751 0.0
C1879 C 0.26137 0.01134 0.76842 0.0
C1880 C 0.25575 0.01814 0.76374 0.0
C1881 C 0.25692 0.02782 0.76565 0.0
C1882 C 0.2639 0.96652 0.75507 0.0
C1883 C 0.27156 0.96255 0.76009 0.0
C1884 C 0.27762 0.95625 0.75565 0.0
C1885 C 0.27613 0.95369 0.74612 0.0
C1886 C 0.26874 0.95802 0.741 0.0
C1887 C 0.2627 0.96436 0.74545 0.0
C1888 C 0.25144 0.96585 0.76673 0.0
C1889 C 0.24361 0.96042 0.76369 0.0
C1890 C 0.23929 0.95383 0.76977 0.0
C1891 C 0.24278 0.95249 0.77905 0.0
C1892 C 0.25044 0.95819 0.78222 0.0
C1893 C 0.25472 0.96485 0.77612 0.0
C1894 C 0.258 0.98143 0.76216 0.0
C1895 C 0.26694 0.98523 0.76476 0.0
C1896 C 0.26803 0.9949 0.76673 0.0
C1897 C 0.2602 1.00099 0.76635 0.0
C1898 C 0.25125 0.99709 0.76394 0.0
C1899 C 0.2502 0.98747 0.76182 0.0
H1900 H 0.96569 0.23565 0.75565 0.0
N1901 N 0.97606 0.25113 0.75886 0.0
H1902 H 0.9548 0.22754 0.76655 0.0
H1903 H 0.97421 0.25491 0.77777 0.0
H1904 H 0.96341 0.24678 0.78882 0.0
H1905 H 0.96811 0.26683 0.76665 0.0
H1906 H 0.95716 0.27758 0.75877 0.0
H1907 H 0.97168 0.25174 0.74051 0.0
H1908 H 0.96049 0.26231 0.73259 0.0
H1909 H 0.98985 0.23926 0.75491 0.0
H1910 H 0.98484 0.2665 0.76727 0.0
H1911 H 0.00687 0.24125 0.75794 0.0
H1912 H 1.00183 0.26879 0.76989 0.0
H1913 H 0.04794 0.24217 0.76752 0.0
H1914 H 0.05913 0.23183 0.77577 0.0
H1915 H 0.06672 0.2547 0.79469 0.0
H1916 H 0.05578 0.26505 0.78616 0.0
H1917 H 0.05123 0.27933 0.7691 0.0
H1918 H 0.06295 0.28639 0.75829 0.0
H1919 H 0.06532 0.25951 0.74416 0.0
H1920 H 0.05392 0.25249 0.75514 0.0
H1921 H 0.03754 0.25161 0.75564 0.0
H1922 H 0.02057 0.24944 0.75291 0.0
H1923 H 0.0149 0.26399 0.77909 0.0
N1924 N 0.04605 0.2612 0.77046 0.0
H1925 H 0.03196 0.26654 0.78148 0.0
C1926 C 0.97075 0.24584 0.76588 0.0
C1927 C 0.96534 0.23799 0.76294 0.0
C1928 C 0.95914 0.23336 0.7692 0.0
C1929 C 0.95821 0.23652 0.77858 0.0
C1930 C 0.96388 0.24424 0.78162 0.0
C1931 C 0.9701 0.24886 0.77533 0.0
C1932 C 0.97079 0.25849 0.75413 0.0
C1933 C 0.9667 0.26593 0.75916 0.0
C1934 C 0.96032 0.27202 0.75465 0.0
C1935 C 0.95784 0.27077 0.74505 0.0
C1936 C 0.96229 0.26357 0.73995 0.0
C1937 C 0.96869 0.25751 0.74446 0.0
C1938 C 0.98605 0.25273 0.76074 0.0
C1939 C 0.99245 0.24572 0.7582 0.0
C1940 C 1.0022 0.24691 0.75987 0.0
C1941 C 0.00582 0.25523 0.76411 0.0
C1942 C 0.99935 0.26224 0.76673 0.0
C1943 C 0.98957 0.26099 0.76513 0.0
C1944 C 0.0511 0.25442 0.7762 0.0
C1945 C 0.05191 0.2449 0.77353 0.0
C1946 C 0.0583 0.23898 0.77829 0.0
C1947 C 0.06395 0.24247 0.78581 0.0
C1948 C 0.06265 0.25184 0.7888 0.0
C1949 C 0.05632 0.25773 0.78402 0.0
C1950 C 0.05161 0.26543 0.76294 0.0
C1951 C 0.05413 0.27504 0.76352 0.0
C1952 C 0.06083 0.27906 0.75733 0.0
C1953 C 0.06516 0.2735 0.75039 0.0
C1954 C 0.06226 0.26396 0.74952 0.0
C1955 C 0.05561 0.25995 0.75574 0.0
C1956 C 0.03606 0.25938 0.76874 0.0
C1957 C 0.03269 0.2544 0.76077 0.0
C1958 C 0.02291 0.25307 0.75927 0.0
C1959 C 0.01627 0.25657 0.76575 0.0
C1960 C 0.01972 0.26137 0.77381 0.0
C1961 C 0.02949 0.26277 0.77525 0.0
H1962 H 0.77253 0.96457 0.75816 0.0
N1963 N 0.75701 0.97245 0.76645 0.0
H1964 H 0.78364 0.95377 0.76572 0.0
H1965 H 0.75834 0.96824 0.78482 0.0
H1966 H 0.76934 0.95724 0.79245 0.0
H1967 H 0.74184 0.9617 0.77004 0.0
H1968 H 0.73378 0.95061 0.75936 0.0
H1969 H 0.7603 0.97083 0.74742 0.0
H1970 H 0.75222 0.95981 0.73658 0.0
H1971 H 0.77231 0.98135 0.75794 0.0
H1972 H 0.74498 0.98608 0.77041 0.0
H1973 H 0.77452 0.99832 0.75547 0.0
H1974 H 0.74687 1.00309 0.76751 0.0
H1975 H 0.78559 0.04717 0.75704 0.0
H1976 H 0.79319 0.05821 0.76816 0.0
H1977 H 0.76668 0.0604 0.78318 0.0
H1978 H 0.75913 0.04972 0.77187 0.0
H1979 H 0.74841 0.04513 0.75939 0.0
H1980 H 0.73844 0.05694 0.75159 0.0
H1981 H 0.76127 0.06367 0.73222 0.0
H1982 H 0.77127 0.05213 0.74035 0.0
H1983 H 0.77256 0.02858 0.74462 0.0
H1984 H 0.76984 0.01154 0.74658 0.0
H1985 H 0.75497 0.01667 0.77273 0.0
N1986 N 0.76729 0.04238 0.75599 0.0
H1987 H 0.7573 0.03362 0.77041 0.0
C1988 C 0.76459 0.96728 0.77096 0.0
C1989 C 0.7719 0.96321 0.76569 0.0
C1990 C 0.77821 0.95693 0.77001 0.0
C1991 C 0.77733 0.95454 0.77968 0.0
C1992 C 0.77029 0.95897 0.78502 0.0
C1993 C 0.76399 0.96526 0.78068 0.0
C1994 C 0.75163 0.96708 0.75955 0.0
C1995 C 0.744 0.96145 0.76269 0.0
C1996 C 0.7394 0.95512 0.75656 0.0
C1997 C 0.74236 0.95428 0.7471 0.0
C1998 C 0.74983 0.9602 0.74385 0.0
C1999 C 0.75442 0.96655 0.75001 0.0
C2000 C 0.7585 0.98242 0.76452 0.0
C2001 C 0.76675 0.98602 0.76012 0.0
C2002 C 0.76796 0.99579 0.75861 0.0
C2003 C 0.7609 1.00218 0.76132 0.0
C2004 C 0.75257 0.99848 0.76552 0.0
C2005 C 0.75143 0.98874 0.76711 0.0
C2006 C 0.77184 0.04753 0.76362 0.0
C2007 C 0.7815 0.04989 0.76286 0.0
C2008 C 0.78583 0.05619 0.76924 0.0
C2009 C 0.78053 0.06028 0.77654 0.0
C2010 C 0.77094 0.05753 0.77755 0.0
C2011 C 0.76662 0.05128 0.77114 0.0
C2012 C 0.76063 0.04782 0.75048 0.0
C2013 C 0.75121 0.04906 0.75339 0.0
C2014 C 0.7455 0.0558 0.74888 0.0
C2015 C 0.74909 0.06139 0.74136 0.0
C2016 C 0.75833 0.05967 0.73812 0.0
C2017 C 0.76403 0.053 0.74267 0.0
C2018 C 0.76525 0.03241 0.75737 0.0
C2019 C 0.76866 0.02599 0.75074 0.0
C2020 C 0.76717 0.01624 0.75193 0.0
C2021 C 0.76225 0.01263 0.75987 0.0
C2022 C 0.7587 0.01913 0.76646 0.0
C2023 C 0.76011 0.0289 0.76519 0.0
H2024 H 0.26029 0.75261 0.46685 0.0
N2025 N 0.25256 0.76814 0.47519 0.0
H2026 H 0.25214 0.74161 0.45619 0.0
H2027 H 0.23403 0.76702 0.47157 0.0
H2028 H 0.22581 0.75613 0.46073 0.0
H2029 H 0.24878 0.78355 0.46513 0.0
H2030 H 0.25907 0.79172 0.4537 0.0
H2031 H 0.27146 0.76475 0.47255 0.0
H2032 H 0.28178 0.7727 0.46093 0.0
H2033 H 0.26173 0.75316 0.48356 0.0
H2034 H 0.24834 0.77969 0.48922 0.0
H2035 H 0.2643 0.75065 0.5005 0.0
H2036 H 0.25129 0.77751 0.5062 0.0
H2037 H 0.26379 0.73848 0.54913 0.0
H2038 H 0.25333 0.72982 0.56006 0.0
H2039 H 0.23647 0.75487 0.5632 0.0
H2040 H 0.24712 0.7635 0.55257 0.0
H2041 H 0.25896 0.7752 0.54851 0.0
H2042 H 0.26655 0.7854 0.56041 0.0
H2043 H 0.28755 0.76398 0.56569 0.0
H2044 H 0.27966 0.75373 0.55407 0.0
H2045 H 0.27508 0.7524 0.53089 0.0
H2046 H 0.27304 0.75544 0.5139 0.0
H2047 H 0.24625 0.76877 0.51951 0.0
N2048 N 0.26352 0.75682 0.54488 0.0
H2049 H 0.24864 0.76612 0.53644 0.0
C2050 C 0.24774 0.76065 0.47007 0.0
C2051 C 0.25273 0.75331 0.46575 0.0
C2052 C 0.24807 0.74707 0.45955 0.0
C2053 C 0.23834 0.74803 0.45751 0.0
C2054 C 0.23329 0.75511 0.46219 0.0
C2055 C 0.23796 0.76135 0.46839 0.0
C2056 C 0.25932 0.77356 0.46966 0.0
C2057 C 0.25604 0.78129 0.46437 0.0
C2058 C 0.2619 0.78586 0.45777 0.0
C2059 C 0.27121 0.78277 0.45627 0.0
C2060 C 0.27466 0.77528 0.46192 0.0
C2061 C 0.26876 0.77071 0.46856 0.0
C2062 C 0.2547 0.76659 0.48511 0.0
C2063 C 0.25939 0.7585 0.48843 0.0
C2064 C 0.26094 0.75711 0.49817 0.0
C2065 C 0.25797 0.76385 0.50481 0.0
C2066 C 0.2535 0.77205 0.50139 0.0
C2067 C 0.25188 0.77337 0.49167 0.0
C2068 C 0.25625 0.75159 0.54994 0.0
C2069 C 0.2577 0.74201 0.55202 0.0
C2070 C 0.2517 0.73708 0.55827 0.0
C2071 C 0.24407 0.74166 0.56259 0.0
C2072 C 0.24235 0.75116 0.56013 0.0
C2073 C 0.24839 0.75609 0.55392 0.0
C2074 C 0.26873 0.76366 0.55048 0.0
C2075 C 0.26526 0.77276 0.55215 0.0
C2076 C 0.26965 0.7786 0.55894 0.0
C2077 C 0.27759 0.77546 0.56414 0.0
C2078 C 0.28133 0.76655 0.56201 0.0
C2079 C 0.27691 0.76072 0.55528 0.0
C2080 C 0.26201 0.75892 0.53495 0.0
C2081 C 0.2688 0.75602 0.52842 0.0
C2082 C 0.26756 0.7577 0.5187 0.0
C2083 C 0.25943 0.76229 0.51524 0.0
C2084 C 0.25267 0.76531 0.52186 0.0
C2085 C 0.25397 0.76371 0.5316 0.0
H2086 H 0.77558 0.78154 0.55587 0.0
N2087 N 0.77198 0.76578 0.54635 0.0
H2088 H 0.76487 0.78989 0.56637 0.0
H2089 H 0.75285 0.76234 0.54798 0.0
H2090 H 0.74203 0.77065 0.55849 0.0
H2091 H 0.76309 0.75038 0.55455 0.0
H2092 H 0.76991 0.73969 0.56625 0.0
H2093 H 0.79008 0.7649 0.5517 0.0
H2094 H 0.79694 0.7544 0.56374 0.0
H2095 H 0.77691 0.77712 0.53206 0.0
H2096 H 0.76311 0.75032 0.53812 0.0
H2097 H 0.77445 0.77459 0.51508 0.0
H2098 H 0.76107 0.74748 0.52126 0.0
H2099 H 0.76699 0.77209 0.47254 0.0
H2100 H 0.7589 0.78228 0.46105 0.0
H2101 H 0.73704 0.76071 0.45744 0.0
H2102 H 0.74551 0.75042 0.46853 0.0
H2103 H 0.76162 0.73546 0.47225 0.0
H2104 H 0.772 0.72723 0.46123 0.0
H2105 H 0.78897 0.75279 0.45798 0.0
H2106 H 0.77866 0.76087 0.46897 0.0
H2107 H 0.77721 0.76323 0.4851 0.0
H2108 H 0.77952 0.76593 0.50201 0.0
H2109 H 0.75262 0.75187 0.50766 0.0
N2110 N 0.76223 0.75368 0.47673 0.0
H2111 H 0.75067 0.74877 0.49073 0.0
C2112 C 0.76504 0.77134 0.55117 0.0
C2113 C 0.7682 0.77928 0.55626 0.0
C2114 C 0.76206 0.78403 0.56224 0.0
C2115 C 0.75259 0.78091 0.56331 0.0
C2116 C 0.74931 0.77316 0.55791 0.0
C2117 C 0.75547 0.76844 0.55185 0.0
C2118 C 0.77612 0.75843 0.55214 0.0
C2119 C 0.77055 0.75116 0.55627 0.0
C2120 C 0.77444 0.74511 0.5631 0.0
C2121 C 0.78396 0.74624 0.56605 0.0
C2122 C 0.78962 0.75325 0.56159 0.0
C2123 C 0.78572 0.75926 0.55471 0.0
C2124 C 0.77031 0.76392 0.53641 0.0
C2125 C 0.77342 0.77065 0.52971 0.0
C2126 C 0.77207 0.76914 0.51999 0.0
C2127 C 0.76761 0.76079 0.5167 0.0
C2128 C 0.76443 0.75406 0.52346 0.0
C2129 C 0.76568 0.75564 0.53319 0.0
C2130 C 0.75689 0.76044 0.47127 0.0
C2131 C 0.76044 0.76959 0.4693 0.0
C2132 C 0.75575 0.77544 0.46277 0.0
C2133 C 0.74737 0.77228 0.45817 0.0
C2134 C 0.7436 0.7633 0.46062 0.0
C2135 C 0.74834 0.75745 0.46705 0.0
C2136 C 0.76937 0.74873 0.47153 0.0
C2137 C 0.76773 0.73919 0.46932 0.0
C2138 C 0.7736 0.73455 0.46296 0.0
C2139 C 0.78128 0.73938 0.45867 0.0
C2140 C 0.78319 0.74883 0.46123 0.0
C2141 C 0.77727 0.75347 0.46756 0.0
C2142 C 0.7638 0.75564 0.48664 0.0
C2143 C 0.77186 0.76064 0.48995 0.0
C2144 C 0.77311 0.76228 0.49968 0.0
C2145 C 0.76628 0.7591 0.5063 0.0
C2146 C 0.75815 0.75426 0.50288 0.0
C2147 C 0.75697 0.75253 0.49318 0.0
H2148 H 0.78789 0.25089 0.5533 0.0
N2149 N 0.77077 0.25234 0.54539 0.0
H2150 H 0.79542 0.26184 0.56455 0.0
H2151 H 0.76462 0.26997 0.54956 0.0
H2152 H 0.77214 0.28108 0.56062 0.0
H2153 H 0.75266 0.25743 0.54913 0.0
H2154 H 0.74175 0.2493 0.56015 0.0
H2155 H 0.77305 0.2354 0.5533 0.0
H2156 H 0.76223 0.22717 0.56422 0.0
H2157 H 0.77885 0.23983 0.53422 0.0
H2158 H 0.76213 0.26505 0.53361 0.0
H2159 H 0.77904 0.23964 0.51692 0.0
H2160 H 0.76269 0.2653 0.51624 0.0
H2161 H 0.78867 0.24813 0.46402 0.0
H2162 H 0.79639 0.25939 0.45317 0.0
H2163 H 0.77682 0.28094 0.4617 0.0
H2164 H 0.76912 0.26951 0.47252 0.0
H2165 H 0.75676 0.25822 0.46746 0.0
H2166 H 0.74571 0.25062 0.45635 0.0
H2167 H 0.76187 0.22492 0.45817 0.0
H2168 H 0.77301 0.23271 0.46915 0.0
H2169 H 0.78662 0.24637 0.48678 0.0
H2170 H 0.78598 0.24733 0.50402 0.0
H2171 H 0.75747 0.25812 0.50194 0.0
N2172 N 0.77326 0.25077 0.47427 0.0
H2173 H 0.75845 0.25762 0.48463 0.0
C2174 C 0.77576 0.25963 0.55057 0.0
C2175 C 0.78456 0.25758 0.55471 0.0
C2176 C 0.78883 0.26386 0.56114 0.0
C2177 C 0.78436 0.27233 0.56356 0.0
C2178 C 0.77572 0.27456 0.55903 0.0
C2179 C 0.77145 0.26826 0.55261 0.0
C2180 C 0.76365 0.24699 0.55046 0.0
C2181 C 0.7547 0.25076 0.5523 0.0
C2182 C 0.74851 0.24613 0.55862 0.0
C2183 C 0.75114 0.23761 0.5631 0.0
C2184 C 0.75993 0.23365 0.56083 0.0
C2185 C 0.76612 0.23833 0.5546 0.0
C2186 C 0.7706 0.25249 0.53518 0.0
C2187 C 0.77529 0.24539 0.53031 0.0
C2188 C 0.77546 0.24536 0.5204 0.0
C2189 C 0.77102 0.25255 0.51509 0.0
C2190 C 0.76615 0.25961 0.52003 0.0
C2191 C 0.7659 0.25955 0.52999 0.0
C2192 C 0.77836 0.25799 0.46903 0.0
C2193 C 0.78619 0.25534 0.46366 0.0
C2194 C 0.79059 0.2618 0.45749 0.0
C2195 C 0.78721 0.27108 0.45653 0.0
C2196 C 0.77953 0.27382 0.46218 0.0
C2197 C 0.77515 0.26733 0.46841 0.0
C2198 C 0.76572 0.246 0.46915 0.0
C2199 C 0.75781 0.2509 0.46564 0.0
C2200 C 0.75148 0.24652 0.45928 0.0
C2201 C 0.75295 0.23718 0.45627 0.0
C2202 C 0.76061 0.23217 0.46019 0.0
C2203 C 0.76692 0.23656 0.46655 0.0
C2204 C 0.77257 0.25177 0.48442 0.0
C2205 C 0.78026 0.24899 0.49007 0.0
C2206 C 0.77982 0.24946 0.49995 0.0
C2207 C 0.77159 0.25263 0.50448 0.0
C2208 C 0.76394 0.25567 0.49876 0.0
C2209 C 0.76445 0.25531 0.48882 0.0
H2210 H 0.26922 0.25063 0.46727 0.0
N2211 N 0.25355 0.2425 0.47564 0.0
H2212 H 0.28006 0.24295 0.45651 0.0
H2213 H 0.25448 0.22407 0.47206 0.0
H2214 H 0.26549 0.21621 0.4614 0.0
H2215 H 0.23869 0.23928 0.4644 0.0
H2216 H 0.23136 0.25029 0.45319 0.0
H2217 H 0.25752 0.2615 0.47424 0.0
H2218 H 0.25013 0.27266 0.46315 0.0
H2219 H 0.27005 0.24882 0.48443 0.0
H2220 H 0.24071 0.24121 0.4893 0.0
H2221 H 0.27234 0.25158 0.50126 0.0
H2222 H 0.24275 0.24458 0.50615 0.0
H2223 H 0.28185 0.25612 0.55166 0.0
H2224 H 0.28996 0.24553 0.5628 0.0
H2225 H 0.2658 0.2263 0.56195 0.0
H2226 H 0.25775 0.23694 0.55102 0.0
H2227 H 0.24671 0.24903 0.55194 0.0
H2228 H 0.23755 0.25741 0.56374 0.0
H2229 H 0.25755 0.28093 0.5622 0.0
H2230 H 0.26693 0.27219 0.55078 0.0
H2231 H 0.27221 0.26373 0.53084 0.0
H2232 H 0.26948 0.26147 0.51388 0.0
H2233 H 0.24913 0.23907 0.52027 0.0
N2234 N 0.26415 0.25448 0.54518 0.0
H2235 H 0.25145 0.24191 0.53712 0.0
C2236 C 0.261 0.2379 0.4705 0.0
C2237 C 0.26844 0.24309 0.46618 0.0
C2238 C 0.27468 0.23866 0.46003 0.0
C2239 C 0.27362 0.22896 0.45802 0.0
C2240 C 0.26643 0.22371 0.46267 0.0
C2241 C 0.26019 0.22816 0.46884 0.0
C2242 C 0.24861 0.24955 0.47014 0.0
C2243 C 0.24109 0.2466 0.46426 0.0
C2244 C 0.2369 0.25292 0.45789 0.0
C2245 C 0.24017 0.26237 0.45723 0.0
C2246 C 0.24752 0.2654 0.46338 0.0
C2247 C 0.25171 0.25906 0.46978 0.0
C2248 C 0.25519 0.24462 0.48555 0.0
C2249 C 0.26405 0.24778 0.48908 0.0
C2250 C 0.26533 0.24948 0.49878 0.0
C2251 C 0.25775 0.24829 0.50519 0.0
C2252 C 0.24884 0.24537 0.50155 0.0
C2253 C 0.24762 0.24352 0.49189 0.0
C2254 C 0.26922 0.24736 0.55045 0.0
C2255 C 0.27841 0.24951 0.55373 0.0
C2256 C 0.28303 0.24345 0.56009 0.0
C2257 C 0.27849 0.2351 0.56333 0.0
C2258 C 0.26943 0.23275 0.5597 0.0
C2259 C 0.26484 0.23881 0.55334 0.0
C2260 C 0.2576 0.25995 0.55058 0.0
C2261 C 0.24907 0.25601 0.55406 0.0
C2262 C 0.24379 0.26087 0.56079 0.0
C2263 C 0.24688 0.2698 0.56409 0.0
C2264 C 0.25508 0.27397 0.56005 0.0
C2265 C 0.26039 0.26905 0.55342 0.0
C2266 C 0.26217 0.25293 0.53526 0.0
C2267 C 0.26713 0.25837 0.52854 0.0
C2268 C 0.26561 0.25699 0.51883 0.0
C2269 C 0.25915 0.24999 0.51559 0.0
C2270 C 0.25409 0.2446 0.52241 0.0
C2271 C 0.25551 0.24611 0.53213 0.0
H2272 H 0.76692 0.46755 0.78374 0.0
N2273 N 0.76786 0.47238 0.76551 0.0
H2274 H 0.75594 0.45614 0.79115 0.0
H2275 H 0.75223 0.46414 0.75705 0.0
H2276 H 0.74105 0.45308 0.7644 0.0
H2277 H 0.76441 0.47006 0.74649 0.0
H2278 H 0.7727 0.45924 0.73601 0.0
H2279 H 0.78363 0.46307 0.76929 0.0
H2280 H 0.79196 0.45225 0.75891 0.0
H2281 H 0.77865 0.48677 0.7714 0.0
H2282 H 0.75314 0.48039 0.75549 0.0
H2283 H 0.77603 0.50371 0.76909 0.0
H2284 H 0.75021 0.49721 0.75351 0.0
H2285 H 0.76222 0.54977 0.77269 0.0
H2286 H 0.75374 0.56039 0.78306 0.0
H2287 H 0.72808 0.55562 0.76668 0.0
H2288 H 0.73673 0.54508 0.75619 0.0
H2289 H 0.75247 0.55223 0.74098 0.0
H2290 H 0.7634 0.56389 0.73395 0.0
H2291 H 0.78498 0.55599 0.75433 0.0
H2292 H 0.77393 0.54438 0.76135 0.0
H2293 H 0.76342 0.53311 0.77192 0.0
H2294 H 0.76639 0.51627 0.77392 0.0
H2295 H 0.75526 0.51116 0.74572 0.0
N2296 N 0.75524 0.54172 0.75638 0.0
H2297 H 0.75192 0.52801 0.74401 0.0
C2298 C 0.7604 0.46678 0.76988 0.0
C2299 C 0.76117 0.46453 0.77955 0.0
C2300 C 0.75487 0.45802 0.78376 0.0
C2301 C 0.74763 0.45361 0.77836 0.0
C2302 C 0.74663 0.4562 0.76875 0.0
C2303 C 0.75297 0.46266 0.76454 0.0
C2304 C 0.77342 0.46736 0.7587 0.0
C2305 C 0.7705 0.46632 0.7492 0.0
C2306 C 0.77522 0.46008 0.74323 0.0
C2307 C 0.78297 0.45483 0.74662 0.0
C2308 C 0.7861 0.45625 0.75601 0.0
C2309 C 0.78136 0.46242 0.76196 0.0
C2310 C 0.7661 0.48228 0.76371 0.0
C2311 C 0.77246 0.48904 0.76744 0.0
C2312 C 0.77089 0.49872 0.76618 0.0
C2313 C 0.76286 0.50191 0.76117 0.0
C2314 C 0.75654 0.49508 0.75731 0.0
C2315 C 0.75817 0.48539 0.75852 0.0
C2316 C 0.75009 0.54658 0.76363 0.0
C2317 C 0.75472 0.5508 0.77144 0.0
C2318 C 0.74984 0.5569 0.77739 0.0
C2319 C 0.74024 0.55894 0.77566 0.0
C2320 C 0.73551 0.55433 0.76813 0.0
C2321 C 0.7404 0.54822 0.7622 0.0
C2322 C 0.76236 0.54746 0.75166 0.0
C2323 C 0.75963 0.5529 0.74379 0.0
C2324 C 0.76589 0.55954 0.73978 0.0
C2325 C 0.77506 0.56091 0.7436 0.0
C2326 C 0.77793 0.55519 0.7513 0.0
C2327 C 0.77164 0.54851 0.75528 0.0
C2328 C 0.75731 0.53184 0.75783 0.0
C2329 C 0.76155 0.52839 0.7662 0.0
C2330 C 0.76334 0.51871 0.76729 0.0
C2331 C 0.76105 0.51226 0.76 0.0
C2332 C 0.75695 0.51581 0.75158 0.0
C2333 C 0.7551 0.52546 0.75055 0.0
H2334 H 0.25817 0.55047 0.76397 0.0
N2335 N 0.26558 0.542 0.74829 0.0
H2336 H 0.26654 0.56121 0.77469 0.0
H2337 H 0.28415 0.54573 0.7489 0.0
H2338 H 0.29269 0.55636 0.75978 0.0
H2339 H 0.26827 0.55293 0.73315 0.0
H2340 H 0.25707 0.56387 0.72585 0.0
H2341 H 0.24668 0.54324 0.75258 0.0
H2342 H 0.23533 0.55404 0.74522 0.0
H2343 H 0.25752 0.53355 0.76401 0.0
H2344 H 0.26922 0.52799 0.7365 0.0
H2345 H 0.25522 0.51663 0.76676 0.0
H2346 H 0.26653 0.511 0.73897 0.0
H2347 H 0.25613 0.46846 0.77929 0.0
H2348 H 0.2671 0.45796 0.7877 0.0
H2349 H 0.28284 0.45446 0.76182 0.0
H2350 H 0.27194 0.46493 0.75355 0.0
H2351 H 0.25959 0.46844 0.74229 0.0
H2352 H 0.25188 0.45603 0.7328 0.0
H2353 H 0.23184 0.45082 0.7554 0.0
H2354 H 0.23984 0.46298 0.76492 0.0
H2355 H 0.24434 0.48623 0.76582 0.0
H2356 H 0.24616 0.50317 0.76252 0.0
H2357 H 0.27216 0.49781 0.7475 0.0
N2358 N 0.25572 0.47239 0.76084 0.0
H2359 H 0.27 0.4809 0.75047 0.0
C2360 C 0.27055 0.54726 0.75559 0.0
C2361 C 0.26573 0.55156 0.76309 0.0
C2362 C 0.27055 0.55771 0.76926 0.0
C2363 C 0.28029 0.55972 0.76807 0.0
C2364 C 0.28516 0.5551 0.76081 0.0
C2365 C 0.28033 0.54895 0.75464 0.0
C2366 C 0.25834 0.54727 0.74337 0.0
C2367 C 0.26103 0.55302 0.73568 0.0
C2368 C 0.2546 0.55926 0.73151 0.0
C2369 C 0.24528 0.55988 0.73496 0.0
C2370 C 0.24248 0.55384 0.74247 0.0
C2371 C 0.24894 0.54759 0.74664 0.0
C2372 C 0.26368 0.53206 0.75006 0.0
C2373 C 0.25956 0.52871 0.75852 0.0
C2374 C 0.25815 0.51897 0.76004 0.0
C2375 C 0.26071 0.51236 0.75311 0.0
C2376 C 0.26464 0.5158 0.74457 0.0
C2377 C 0.26612 0.52553 0.7431 0.0
C2378 C 0.26322 0.46757 0.76584 0.0
C2379 C 0.2621 0.46561 0.77552 0.0
C2380 C 0.26831 0.45953 0.78027 0.0
C2381 C 0.27581 0.45531 0.77541 0.0
C2382 C 0.27721 0.45766 0.7658 0.0
C2383 C 0.27096 0.4637 0.76105 0.0
C2384 C 0.25031 0.46656 0.75436 0.0
C2385 C 0.25346 0.46471 0.74513 0.0
C2386 C 0.24901 0.45763 0.7397 0.0
C2387 C 0.24132 0.4523 0.7434 0.0
C2388 C 0.23786 0.45461 0.75241 0.0
C2389 C 0.24234 0.46164 0.75782 0.0
C2390 C 0.25705 0.48228 0.7585 0.0
C2391 C 0.2504 0.48874 0.76178 0.0
C2392 C 0.25151 0.49844 0.75994 0.0
C2393 C 0.25937 0.50195 0.7548 0.0
C2394 C 0.26597 0.49541 0.75139 0.0
C2395 C 0.26479 0.48568 0.75316 0.0
H2396 H 0.26247 0.55019 0.27045 0.0
N2397 N 0.24711 0.5415 0.26197 0.0
H2398 H 0.27371 0.56109 0.26292 0.0
H2399 H 0.2485 0.54551 0.24357 0.0
H2400 H 0.25956 0.55672 0.23597 0.0
H2401 H 0.23162 0.55102 0.25758 0.0
H2402 H 0.22331 0.56231 0.26748 0.0
H2403 H 0.25011 0.54414 0.28101 0.0
H2404 H 0.24203 0.55563 0.29092 0.0
H2405 H 0.26199 0.53379 0.27198 0.0
H2406 H 0.23608 0.52695 0.25694 0.0
H2407 H 0.26501 0.51704 0.27433 0.0
H2408 H 0.23875 0.51009 0.25968 0.0
H2409 H 0.27914 0.46903 0.27198 0.0
H2410 H 0.28755 0.45838 0.26146 0.0
H2411 H 0.26182 0.45425 0.24501 0.0
H2412 H 0.25345 0.46459 0.25572 0.0
H2413 H 0.24205 0.46861 0.2676 0.0
H2414 H 0.23207 0.45625 0.27489 0.0
H2415 H 0.25432 0.45073 0.29539 0.0
H2416 H 0.26434 0.46284 0.28779 0.0
H2417 H 0.26423 0.48638 0.28413 0.0
H2418 H 0.26052 0.50315 0.2824 0.0
H2419 H 0.24817 0.49751 0.25481 0.0
N2420 N 0.26066 0.47249 0.27203 0.0
H2421 H 0.25147 0.48076 0.25686 0.0
C2422 C 0.25465 0.54694 0.25754 0.0
C2423 C 0.26191 0.55136 0.26289 0.0
C2424 C 0.26828 0.55771 0.25858 0.0
C2425 C 0.26749 0.55988 0.24885 0.0
C2426 C 0.26045 0.55516 0.24345 0.0
C2427 C 0.25411 0.54876 0.24777 0.0
C2428 C 0.24147 0.54677 0.26852 0.0
C2429 C 0.23377 0.55185 0.26492 0.0
C2430 C 0.22911 0.55837 0.27056 0.0
C2431 C 0.2321 0.56 0.27995 0.0
C2432 C 0.23952 0.55453 0.28373 0.0
C2433 C 0.24417 0.54797 0.27806 0.0
C2434 C 0.24883 0.53166 0.26414 0.0
C2435 C 0.25689 0.52871 0.26924 0.0
C2436 C 0.25856 0.51905 0.27066 0.0
C2437 C 0.25216 0.51211 0.26715 0.0
C2438 C 0.24397 0.51515 0.26231 0.0
C2439 C 0.24236 0.5248 0.26081 0.0
C2440 C 0.26571 0.4677 0.26465 0.0
C2441 C 0.2754 0.466 0.26596 0.0
C2442 C 0.28019 0.4599 0.25992 0.0
C2443 C 0.27535 0.45537 0.25241 0.0
C2444 C 0.26574 0.45748 0.25081 0.0
C2445 C 0.26095 0.46354 0.25688 0.0
C2446 C 0.25398 0.46657 0.27713 0.0
C2447 C 0.24472 0.46482 0.27373 0.0
C2448 C 0.239 0.45777 0.27795 0.0
C2449 C 0.24244 0.45238 0.28565 0.0
C2450 C 0.25152 0.45458 0.28934 0.0
C2451 C 0.25722 0.46157 0.28509 0.0
C2452 C 0.25826 0.4823 0.27062 0.0
C2453 C 0.26069 0.4888 0.27773 0.0
C2454 C 0.25862 0.4984 0.27668 0.0
C2455 C 0.2541 0.50178 0.26842 0.0
C2456 C 0.25155 0.49521 0.26133 0.0
C2457 C 0.25354 0.48557 0.26244 0.0
H2458 H 0.7822 0.46527 0.2577 0.0
N2459 N 0.7668 0.47296 0.26635 0.0
H2460 H 0.79359 0.45459 0.265 0.0
H2461 H 0.76863 0.46885 0.28469 0.0
H2462 H 0.77991 0.45797 0.29206 0.0
H2463 H 0.75125 0.46324 0.271 0.0
H2464 H 0.74233 0.45193 0.26122 0.0
H2465 H 0.76943 0.47003 0.24739 0.0
H2466 H 0.76056 0.45866 0.2375 0.0
H2467 H 0.78124 0.48189 0.25654 0.0
H2468 H 0.75504 0.48652 0.27123 0.0
H2469 H 0.78314 0.49887 0.25382 0.0
H2470 H 0.75656 0.50351 0.26812 0.0
H2471 H 0.79361 0.54807 0.25571 0.0
H2472 H 0.80095 0.55961 0.26652 0.0
H2473 H 0.7743 0.56186 0.28125 0.0
H2474 H 0.76703 0.55058 0.27036 0.0
H2475 H 0.75639 0.54447 0.25843 0.0
H2476 H 0.7456 0.55574 0.25097 0.0
H2477 H 0.76766 0.56404 0.23126 0.0
H2478 H 0.77849 0.55305 0.23908 0.0
H2479 H 0.77998 0.5291 0.24307 0.0
H2480 H 0.77767 0.51204 0.24533 0.0
H2481 H 0.76492 0.51718 0.27259 0.0
N2482 N 0.77537 0.54293 0.2547 0.0
H2483 H 0.76679 0.53413 0.26999 0.0
C2484 C 0.77456 0.46792 0.27068 0.0
C2485 C 0.78178 0.46392 0.26524 0.0
C2486 C 0.78824 0.45771 0.26941 0.0
C2487 C 0.78762 0.45532 0.2791 0.0
C2488 C 0.78067 0.4597 0.28461 0.0
C2489 C 0.77421 0.46592 0.28042 0.0
C2490 C 0.76098 0.46744 0.25995 0.0
C2491 C 0.75318 0.46241 0.26363 0.0
C2492 C 0.7481 0.45596 0.25802 0.0
C2493 C 0.75075 0.45436 0.24858 0.0
C2494 C 0.75841 0.45965 0.24478 0.0
C2495 C 0.76345 0.46618 0.2504 0.0
C2496 C 0.76804 0.48292 0.26425 0.0
C2497 C 0.77586 0.48654 0.25915 0.0
C2498 C 0.77688 0.49631 0.25751 0.0
C2499 C 0.77003 0.50267 0.26078 0.0
C2500 C 0.76211 0.49894 0.26567 0.0
C2501 C 0.76117 0.4892 0.2674 0.0
C2502 C 0.7798 0.54839 0.26219 0.0
C2503 C 0.78944 0.55091 0.26141 0.0
C2504 C 0.79361 0.5575 0.2676 0.0
C2505 C 0.78818 0.56174 0.2747 0.0
C2506 C 0.77864 0.55886 0.27576 0.0
C2507 C 0.77449 0.55228 0.26958 0.0
C2508 C 0.76829 0.548 0.24935 0.0
C2509 C 0.75885 0.54862 0.25243 0.0
C2510 C 0.75267 0.55506 0.24811 0.0
C2511 C 0.75579 0.56094 0.2406 0.0
C2512 C 0.76506 0.55981 0.23717 0.0
C2513 C 0.77124 0.55345 0.24154 0.0
C2514 C 0.77368 0.53294 0.25635 0.0
C2515 C 0.77664 0.52651 0.2495 0.0
C2516 C 0.77539 0.51675 0.25086 0.0
C2517 C 0.77117 0.51313 0.25919 0.0
C2518 C 0.76809 0.51963 0.26602 0.0
C2519 C 0.76925 0.52941 0.26459 0.0
H2520 H 0.55773 0.28036 0.74601 0.0
N2521 N 0.54692 0.265 0.7485 0.0
H2522 H 0.56823 0.28803 0.75763 0.0
H2523 H 0.54782 0.26077 0.76747 0.0
H2524 H 0.55824 0.26844 0.7792 0.0
H2525 H 0.55466 0.24922 0.75675 0.0
H2526 H 0.56594 0.23864 0.7495 0.0
H2527 H 0.55191 0.26456 0.73037 0.0
H2528 H 0.56345 0.25414 0.72307 0.0
H2529 H 0.53326 0.27744 0.74576 0.0
H2530 H 0.53791 0.24878 0.75517 0.0
H2531 H 0.51628 0.27544 0.74874 0.0
H2532 H 0.52097 0.24652 0.75764 0.0
H2533 H 0.47141 0.27278 0.75455 0.0
H2534 H 0.46012 0.28266 0.76283 0.0
H2535 H 0.46013 0.26288 0.7864 0.0
H2536 H 0.47103 0.25283 0.77779 0.0
H2537 H 0.47073 0.23746 0.76229 0.0
H2538 H 0.45909 0.22904 0.75235 0.0
H2539 H 0.45905 0.25271 0.73274 0.0
H2540 H 0.4704 0.26111 0.74282 0.0
H2541 H 0.48525 0.26642 0.74641 0.0
H2542 H 0.50216 0.26843 0.74339 0.0
H2543 H 0.50836 0.25029 0.76744 0.0
N2544 N 0.47707 0.25514 0.76014 0.0
H2545 H 0.49134 0.24789 0.76998 0.0
C2546 C 0.55202 0.27003 0.75585 0.0
C2547 C 0.5577 0.27785 0.75329 0.0
C2548 C 0.56367 0.28223 0.75995 0.0
C2549 C 0.5641 0.27883 0.76934 0.0
C2550 C 0.55815 0.27116 0.77199 0.0
C2551 C 0.55215 0.2668 0.76531 0.0
C2552 C 0.55235 0.25769 0.74406 0.0
C2553 C 0.55632 0.25021 0.74934 0.0
C2554 C 0.56289 0.24422 0.74519 0.0
C2555 C 0.56571 0.24558 0.73572 0.0
C2556 C 0.56139 0.2528 0.73035 0.0
C2557 C 0.55479 0.25877 0.7345 0.0
C2558 C 0.53691 0.26329 0.75012 0.0
C2559 C 0.53059 0.27067 0.74835 0.0
C2560 C 0.52086 0.26948 0.75 0.0
C2561 C 0.51715 0.26079 0.7534 0.0
C2562 C 0.52352 0.25336 0.75516 0.0
C2563 C 0.53328 0.25462 0.75364 0.0
C2564 C 0.47196 0.26199 0.76553 0.0
C2565 C 0.46906 0.27062 0.76152 0.0
C2566 C 0.46262 0.2763 0.76632 0.0
C2567 C 0.45905 0.2735 0.77524 0.0
C2568 C 0.4625 0.26515 0.77945 0.0
C2569 C 0.46884 0.25945 0.77461 0.0
C2570 C 0.4715 0.24987 0.75332 0.0
C2571 C 0.46835 0.24072 0.75574 0.0
C2572 C 0.4617 0.23592 0.75003 0.0
C2573 C 0.45807 0.24023 0.74177 0.0
C2574 C 0.46158 0.24925 0.73913 0.0
C2575 C 0.4682 0.25403 0.74486 0.0
C2576 C 0.48701 0.25686 0.75836 0.0
C2577 C 0.49021 0.26279 0.75096 0.0
C2578 C 0.49996 0.26402 0.74932 0.0
C2579 C 0.50673 0.25949 0.75513 0.0
C2580 C 0.50343 0.25373 0.76265 0.0
C2581 C 0.4937 0.25241 0.76419 0.0
H2582 H 0.46692 0.73453 0.74793 0.0
N2583 N 0.47603 0.75074 0.75127 0.0
H2584 H 0.45624 0.72578 0.75857 0.0
H2585 H 0.47321 0.75461 0.77001 0.0
H2586 H 0.4625 0.74591 0.78077 0.0
H2587 H 0.46758 0.76629 0.7588 0.0
H2588 H 0.45613 0.77641 0.7508 0.0
H2589 H 0.47185 0.75107 0.73287 0.0
H2590 H 0.46051 0.76132 0.72469 0.0
H2591 H 0.49004 0.73932 0.74684 0.0
H2592 H 0.48448 0.76602 0.76005 0.0
H2593 H 0.50703 0.74159 0.74978 0.0
H2594 H 0.50148 0.76863 0.76262 0.0
H2595 H 0.54815 0.74277 0.75904 0.0
H2596 H 0.55929 0.73221 0.76705 0.0
H2597 H 0.56627 0.75433 0.78705 0.0
H2598 H 0.5554 0.76492 0.77874 0.0
H2599 H 0.55107 0.77979 0.76224 0.0
H2600 H 0.56276 0.78737 0.75176 0.0
H2601 H 0.56518 0.76119 0.73637 0.0
H2602 H 0.55381 0.75365 0.74704 0.0
H2603 H 0.53747 0.75246 0.74765 0.0
H2604 H 0.52052 0.75017 0.74492 0.0
H2605 H 0.51476 0.76387 0.77154 0.0
N2606 N 0.54593 0.76161 0.76277 0.0
H2607 H 0.5318 0.76654 0.77395 0.0
C2608 C 0.47082 0.74519 0.75816 0.0
C2609 C 0.46611 0.73693 0.75515 0.0
C2610 C 0.46003 0.73195 0.76125 0.0
C2611 C 0.45849 0.73517 0.77052 0.0
C2612 C 0.46346 0.74331 0.77364 0.0
C2613 C 0.46961 0.74826 0.76752 0.0
C2614 C 0.4706 0.75789 0.74641 0.0
C2615 C 0.46626 0.76528 0.75132 0.0
C2616 C 0.45968 0.77109 0.74671 0.0
C2617 C 0.4573 0.76962 0.73711 0.0
C2618 C 0.46204 0.76254 0.73213 0.0
C2619 C 0.4686 0.75675 0.73674 0.0
C2620 C 0.48599 0.7525 0.75312 0.0
C2621 C 0.49252 0.74572 0.7503 0.0
C2622 C 0.50225 0.74709 0.75193 0.0
C2623 C 0.50573 0.75535 0.75638 0.0
C2624 C 0.49912 0.76213 0.75927 0.0
C2625 C 0.48935 0.7607 0.75772 0.0
C2626 C 0.55101 0.75467 0.76827 0.0
C2627 C 0.55199 0.7453 0.76521 0.0
C2628 C 0.55835 0.73924 0.76985 0.0
C2629 C 0.56381 0.74245 0.77763 0.0
C2630 C 0.56237 0.75168 0.78096 0.0
C2631 C 0.55607 0.75771 0.7763 0.0
C2632 C 0.55148 0.7662 0.75543 0.0
C2633 C 0.55398 0.77578 0.75647 0.0
C2634 C 0.56066 0.78009 0.75045 0.0
C2635 C 0.565 0.77488 0.74325 0.0
C2636 C 0.56212 0.76539 0.74194 0.0
C2637 C 0.55548 0.76108 0.74798 0.0
C2638 C 0.53595 0.7598 0.76099 0.0
C2639 C 0.53261 0.75504 0.75288 0.0
C2640 C 0.52284 0.75365 0.75137 0.0
C2641 C 0.51617 0.75685 0.75799 0.0
C2642 C 0.51959 0.76147 0.76617 0.0
C2643 C 0.52935 0.76293 0.76762 0.0
H2644 H 0.55298 0.77418 0.25511 0.0
N2645 N 0.54673 0.75649 0.25749 0.0
H2646 H 0.56417 0.78298 0.26528 0.0
H2647 H 0.55299 0.75094 0.27509 0.0
H2648 H 0.56409 0.75963 0.28524 0.0
H2649 H 0.55284 0.73909 0.2633 0.0
H2650 H 0.56462 0.72954 0.25527 0.0
H2651 H 0.55299 0.75889 0.23993 0.0
H2652 H 0.56446 0.7492 0.23162 0.0
H2653 H 0.53245 0.76356 0.24749 0.0
H2654 H 0.53855 0.74496 0.271 0.0
H2655 H 0.51544 0.76094 0.24986 0.0
H2656 H 0.52164 0.74276 0.27388 0.0
H2657 H 0.46886 0.76192 0.26134 0.0
H2658 H 0.45812 0.77278 0.26901 0.0
H2659 H 0.46205 0.75786 0.29559 0.0
H2660 H 0.47301 0.74714 0.28785 0.0
H2661 H 0.46623 0.73104 0.27282 0.0
H2662 H 0.45507 0.72323 0.26194 0.0
H2663 H 0.46406 0.74227 0.23947 0.0
H2664 H 0.47516 0.75009 0.25049 0.0
H2665 H 0.48582 0.76232 0.26222 0.0
H2666 H 0.50272 0.76457 0.25949 0.0
H2667 H 0.50756 0.73574 0.26864 0.0
N2668 N 0.47697 0.74628 0.26947 0.0
H2669 H 0.49064 0.73378 0.27191 0.0
C2670 C 0.55205 0.76196 0.26434 0.0
C2671 C 0.55523 0.77107 0.26179 0.0
C2672 C 0.56167 0.77604 0.26756 0.0
C2673 C 0.56505 0.77197 0.27605 0.0
C2674 C 0.56154 0.763 0.27881 0.0
C2675 C 0.55515 0.75801 0.27299 0.0
C2676 C 0.55211 0.74976 0.25222 0.0
C2677 C 0.55524 0.74127 0.25634 0.0
C2678 C 0.56196 0.73578 0.2517 0.0
C2679 C 0.56563 0.73867 0.24285 0.0
C2680 C 0.56198 0.74687 0.23853 0.0
C2681 C 0.55534 0.75236 0.24319 0.0
C2682 C 0.53679 0.75458 0.25911 0.0
C2683 C 0.5301 0.75897 0.25323 0.0
C2684 C 0.52036 0.75753 0.25467 0.0
C2685 C 0.51705 0.7517 0.26214 0.0
C2686 C 0.52383 0.74721 0.26798 0.0
C2687 C 0.53358 0.74856 0.26643 0.0
C2688 C 0.47181 0.7537 0.27405 0.0
C2689 C 0.46761 0.7611 0.26885 0.0
C2690 C 0.46136 0.76726 0.27324 0.0
C2691 C 0.45912 0.76615 0.28291 0.0
C2692 C 0.46367 0.759 0.28817 0.0
C2693 C 0.46993 0.75286 0.28377 0.0
C2694 C 0.4715 0.74111 0.26249 0.0
C2695 C 0.4659 0.73339 0.2655 0.0
C2696 C 0.45955 0.72894 0.25925 0.0
C2697 C 0.45864 0.73215 0.24983 0.0
C2698 C 0.46451 0.7397 0.24671 0.0
C2699 C 0.4709 0.74414 0.25298 0.0
C2700 C 0.48692 0.74788 0.26745 0.0
C2701 C 0.49048 0.75649 0.26373 0.0
C2702 C 0.50022 0.75774 0.26206 0.0
C2703 C 0.50663 0.75036 0.26386 0.0
C2704 C 0.50296 0.74169 0.26736 0.0
C2705 C 0.49326 0.74051 0.26917 0.0
H2706 H 0.55437 0.27162 0.28825 0.0
N2707 N 0.5461 0.26985 0.27135 0.0
H2708 H 0.56533 0.26059 0.29585 0.0
H2709 H 0.54936 0.2518 0.26565 0.0
H2710 H 0.56006 0.2406 0.27328 0.0
H2711 H 0.55036 0.26402 0.25357 0.0
H2712 H 0.56221 0.27136 0.24307 0.0
H2713 H 0.55411 0.28688 0.2733 0.0
H2714 H 0.56563 0.29454 0.26271 0.0
H2715 H 0.53485 0.28207 0.27968 0.0
H2716 H 0.5344 0.25757 0.26173 0.0
H2717 H 0.51753 0.28232 0.27941 0.0
H2718 H 0.51701 0.25734 0.26185 0.0
H2719 H 0.46404 0.2725 0.28747 0.0
H2720 H 0.45362 0.26041 0.29457 0.0
H2721 H 0.46366 0.23997 0.27447 0.0
H2722 H 0.47405 0.2522 0.26741 0.0
H2723 H 0.46882 0.26344 0.25535 0.0
H2724 H 0.4578 0.27072 0.24414 0.0
H2725 H 0.45742 0.29584 0.26142 0.0
H2726 H 0.46867 0.28855 0.27246 0.0
H2727 H 0.48707 0.2752 0.28594 0.0
H2728 H 0.50434 0.27449 0.28562 0.0
H2729 H 0.50291 0.26461 0.25667 0.0
N2730 N 0.47482 0.27088 0.27226 0.0
H2731 H 0.48559 0.26484 0.25732 0.0
C2732 C 0.55101 0.26253 0.27645 0.0
C2733 C 0.55542 0.26475 0.2851 0.0
C2734 C 0.56168 0.25843 0.28942 0.0
C2735 C 0.56366 0.24971 0.28515 0.0
C2736 C 0.55883 0.24731 0.2767 0.0
C2737 C 0.5526 0.25367 0.27237 0.0
C2738 C 0.55146 0.2749 0.26424 0.0
C2739 C 0.55358 0.27075 0.25551 0.0
C2740 C 0.56033 0.27499 0.2495 0.0
C2741 C 0.56502 0.28348 0.25211 0.0
C2742 C 0.56235 0.28789 0.26058 0.0
C2743 C 0.55568 0.28361 0.26659 0.0
C2744 C 0.53589 0.26975 0.27087 0.0
C2745 C 0.53096 0.27668 0.27575 0.0
C2746 C 0.52104 0.27674 0.27565 0.0
C2747 C 0.51577 0.26974 0.27074 0.0
C2748 C 0.52077 0.26287 0.26568 0.0
C2749 C 0.53075 0.26291 0.26569 0.0
C2750 C 0.46978 0.26325 0.27694 0.0
C2751 C 0.4641 0.26536 0.28473 0.0
C2752 C 0.45818 0.25843 0.28878 0.0
C2753 C 0.45778 0.24921 0.28507 0.0
C2754 C 0.46372 0.24703 0.27742 0.0
C2755 C 0.4697 0.25398 0.27341 0.0
C2756 C 0.46964 0.27551 0.26473 0.0
C2757 C 0.46658 0.2706 0.2566 0.0
C2758 C 0.46017 0.27474 0.25024 0.0
C2759 C 0.45662 0.28384 0.25191 0.0
C2760 C 0.46005 0.28888 0.25983 0.0
C2761 C 0.46649 0.28473 0.26616 0.0
C2762 C 0.48501 0.27023 0.27165 0.0
C2763 C 0.4905 0.27286 0.27954 0.0
C2764 C 0.50041 0.27252 0.27929 0.0
C2765 C 0.50513 0.26965 0.27105 0.0
C2766 C 0.49958 0.26682 0.26317 0.0
C2767 C 0.48962 0.26703 0.26349 0.0
H2768 H 0.20638 0.18816 0.12201 0.0
H2769 H 0.21339 0.19654 0.10841 0.0
H2770 H 0.2274 0.21617 0.12735 0.0
H2771 H 0.22052 0.20777 0.141 0.0
H2772 H 0.21211 0.21665 0.10322 0.0
H2773 H 0.24897 0.205 0.11062 0.0
H2774 H 0.23869 0.19912 0.11569 0.0
H2775 H 0.24288 0.2102 0.12041 0.0
C2776 C 0.21098 0.19424 0.12328 0.0
C2777 C 0.21293 0.19726 0.13259 0.0
C2778 C 0.21493 0.19905 0.1155 0.0
C2779 C 0.22099 0.2069 0.11688 0.0
C2780 C 0.22282 0.21006 0.12614 0.0
H2781 H 0.2429 0.24875 0.07708 0.0
H2782 H 0.2345 0.24025 0.08971 0.0
C2783 C 0.21882 0.2053 0.13392 0.0
C2784 C 0.22549 0.21173 0.10864 0.0
H2785 H 0.24694 0.21617 0.0982 0.0
C2786 C 0.21972 0.21655 0.1021 0.0
C2787 C 0.23541 0.21148 0.10715 0.0
C2788 C 0.24188 0.20612 0.11378 0.0
C2789 C 0.22364 0.22128 0.0942 0.0
C2790 C 0.23359 0.22121 0.09284 0.0
C2791 C 0.23933 0.21625 0.09929 0.0
C2792 C 0.2382 0.22632 0.08483 0.0
C2793 C 0.21713 0.22625 0.08732 0.0
C2794 C 0.24311 0.22132 0.0779 0.0
C2795 C 0.24785 0.22616 0.07059 0.0
C2796 C 0.24788 0.23612 0.07012 0.0
C2797 C 0.24288 0.24109 0.07707 0.0
C2798 C 0.23809 0.23624 0.08433 0.0
H2799 H 0.20962 0.2239 0.08817 0.0
H2800 H 0.21756 0.23399 0.08858 0.0
H2801 H 0.21931 0.22498 0.07989 0.0
H2802 H 0.24328 0.21366 0.07817 0.0
H2803 H 0.25152 0.22208 0.06532 0.0
H2804 H 0.82371 0.19849 0.13005 0.0
H2805 H 0.81785 0.2075 0.11635 0.0
H2806 H 0.78913 0.20368 0.12623 0.0
H2807 H 0.79493 0.19493 0.14007 0.0
H2808 H 0.805 0.20164 0.10215 0.0
H2809 H 0.79129 0.2323 0.12188 0.0
H2810 H 0.79928 0.22387 0.12717 0.0
H2811 H 0.78683 0.22106 0.12606 0.0
C2812 C 0.81616 0.19967 0.12937 0.0
C2813 C 0.80979 0.19602 0.13618 0.0
C2814 C 0.81282 0.20476 0.12151 0.0
C2815 C 0.80307 0.20636 0.12034 0.0
C2816 C 0.7967 0.20266 0.12707 0.0
H2817 H 0.76708 0.23412 0.07923 0.0
H2818 H 0.7738 0.22477 0.09221 0.0
C2819 C 0.80002 0.19757 0.13493 0.0
C2820 C 0.79953 0.21174 0.11199 0.0
H2821 H 0.78695 0.23127 0.1056 0.0
C2822 C 0.80111 0.20816 0.10288 0.0
C2823 C 0.79446 0.22023 0.11298 0.0
C2824 C 0.79293 0.22466 0.12254 0.0
C2825 C 0.79752 0.21271 0.09474 0.0
C2826 C 0.79236 0.22115 0.09575 0.0
C2827 C 0.79088 0.22477 0.10485 0.0
C2828 C 0.78833 0.2263 0.08748 0.0
C2829 C 0.79907 0.20833 0.08517 0.0
C2830 C 0.79426 0.23024 0.08048 0.0
C2831 C 0.79043 0.23554 0.07298 0.0
C2832 C 0.78059 0.23703 0.07238 0.0
C2833 C 0.77467 0.23298 0.07936 0.0
C2834 C 0.7785 0.22769 0.08684 0.0
H2835 H 0.80107 0.20077 0.0858 0.0
H2836 H 0.79258 0.20881 0.08067 0.0
H2837 H 0.80492 0.2122 0.0815 0.0
H2838 H 0.80188 0.2294 0.08091 0.0
H2839 H 0.79519 0.23852 0.06771 0.0
H2840 H 0.7973 0.82011 0.13852 0.0
H2841 H 0.79162 0.81149 0.12457 0.0
H2842 H 0.81913 0.81493 0.11166 0.0
H2843 H 0.82489 0.82357 0.12561 0.0
H2844 H 0.79053 0.81762 0.10597 0.0
H2845 H 0.8141 0.7866 0.10905 0.0
H2846 H 0.8126 0.79485 0.11861 0.0
H2847 H 0.82022 0.79785 0.10882 0.0
C2848 C 0.80215 0.81906 0.1327 0.0
C2849 C 0.81156 0.82253 0.13319 0.0
C2850 C 0.79889 0.81409 0.12475 0.0
C2851 C 0.80498 0.81245 0.11711 0.0
C2852 C 0.81437 0.81592 0.11755 0.0
H2853 H 0.79483 0.78343 0.06317 0.0
H2854 H 0.80176 0.79302 0.07596 0.0
C2855 C 0.81765 0.82087 0.12553 0.0
C2856 C 0.80136 0.80732 0.10862 0.0
H2857 H 0.80442 0.78751 0.09529 0.0
C2858 C 0.79357 0.81104 0.10364 0.0
C2859 C 0.80535 0.79875 0.10555 0.0
C2860 C 0.81348 0.79421 0.11082 0.0
C2861 C 0.78967 0.80642 0.09569 0.0
C2862 C 0.79357 0.79779 0.09271 0.0
C2863 C 0.80146 0.79415 0.09758 0.0
C2864 C 0.7893 0.79221 0.08483 0.0
C2865 C 0.78144 0.81086 0.09051 0.0
C2866 C 0.78003 0.78851 0.08561 0.0
C2867 C 0.77608 0.78298 0.07837 0.0
C2868 C 0.78131 0.781 0.07016 0.0
C2869 C 0.79061 0.78474 0.0694 0.0
C2870 C 0.79458 0.79026 0.07669 0.0
H2871 H 0.78097 0.81855 0.09202 0.0
H2872 H 0.78205 0.80992 0.08273 0.0
H2873 H 0.77472 0.80739 0.09285 0.0
H2874 H 0.77591 0.78974 0.09193 0.0
H2875 H 0.769 0.78005 0.07933 0.0
H2876 H 0.20485 0.8031 0.13391 0.0
H2877 H 0.2111 0.79516 0.11995 0.0
H2878 H 0.23621 0.81297 0.12105 0.0
H2879 H 0.22996 0.82113 0.13481 0.0
H2880 H 0.21728 0.80387 0.10183 0.0
H2881 H 0.24606 0.78514 0.12106 0.0
H2882 H 0.23589 0.78989 0.12702 0.0
H2883 H 0.24543 0.79763 0.1233 0.0
C2884 C 0.21166 0.8054 0.13114 0.0
C2885 C 0.21691 0.81274 0.13556 0.0
C2886 C 0.21524 0.80082 0.12319 0.0
C2887 C 0.22417 0.8034 0.11955 0.0
C2888 C 0.22938 0.81076 0.12385 0.0
H2889 H 0.26172 0.78565 0.07548 0.0
H2890 H 0.25373 0.79324 0.0886 0.0
C2891 C 0.2258 0.81538 0.13176 0.0
C2892 C 0.22806 0.79848 0.11121 0.0
H2893 H 0.24643 0.78473 0.10428 0.0
C2894 C 0.22361 0.79962 0.10235 0.0
C2895 C 0.23631 0.79296 0.11193 0.0
C2896 C 0.24119 0.79124 0.12134 0.0
C2897 C 0.2274 0.79564 0.09411 0.0
C2898 C 0.23573 0.7902 0.09481 0.0
C2899 C 0.24006 0.78893 0.10372 0.0
C2900 C 0.24027 0.78595 0.08639 0.0
C2901 C 0.22262 0.79758 0.08469 0.0
C2902 C 0.23537 0.77934 0.08071 0.0
C2903 C 0.23989 0.77506 0.07307 0.0
C2904 C 0.24946 0.77725 0.071 0.0
C2905 C 0.25431 0.78392 0.0767 0.0
C2906 C 0.24977 0.78821 0.08428 0.0
H2907 H 0.21793 0.80381 0.08502 0.0
H2908 H 0.22795 0.79883 0.07903 0.0
H2909 H 0.21817 0.79134 0.08269 0.0
H2910 H 0.22809 0.77733 0.0823 0.0
H2911 H 0.23591 0.77 0.06883 0.0
H2912 H 0.20227 0.80916 0.89256 0.0
H2913 H 0.20815 0.80075 0.90662 0.0
H2914 H 0.23586 0.79917 0.89398 0.0
H2915 H 0.23005 0.80756 0.87992 0.0
H2916 H 0.21607 0.78299 0.90847 0.0
H2917 H 0.24186 0.81088 0.91969 0.0
H2918 H 0.23273 0.81298 0.9109 0.0
H2919 H 0.24346 0.8071 0.90769 0.0
C2920 C 0.2096 0.80697 0.89275 0.0
C2921 C 0.21571 0.8091 0.88514 0.0
C2922 C 0.21296 0.8022 0.90081 0.0
C2923 C 0.22249 0.7995 0.90144 0.0
C2924 C 0.22854 0.80141 0.89377 0.0
H2925 H 0.25762 0.76841 0.94056 0.0
H2926 H 0.25076 0.7774 0.92742 0.0
C2927 C 0.22521 0.8062 0.88572 0.0
C2928 C 0.22608 0.79457 0.91005 0.0
H2929 H 0.24298 0.79594 0.92752 0.0
C2930 C 0.2219 0.78586 0.91269 0.0
C2931 C 0.23367 0.79833 0.91556 0.0
C2932 C 0.23814 0.80788 0.91339 0.0
C2933 C 0.2253 0.78066 0.92052 0.0
C2934 C 0.23299 0.78435 0.92591 0.0
C2935 C 0.23709 0.79312 0.92335 0.0
C2936 C 0.23711 0.77909 0.93406 0.0
C2937 C 0.22082 0.77114 0.92278 0.0
C2938 C 0.23175 0.77718 0.94224 0.0
C2939 C 0.23569 0.77211 0.94983 0.0
C2940 C 0.24508 0.76887 0.94941 0.0
C2941 C 0.25044 0.77092 0.94123 0.0
C2942 C 0.24651 0.77601 0.93367 0.0
H2943 H 0.21637 0.76844 0.91682 0.0
H2944 H 0.22635 0.76586 0.92447 0.0
H2945 H 0.21622 0.77179 0.92909 0.0
H2946 H 0.22453 0.77965 0.94276 0.0
H2947 H 0.2314 0.77077 0.95606 0.0
H2948 H 0.2069 0.193 0.89399 0.0
H2949 H 0.21533 0.20003 0.90755 0.0
H2950 H 0.20479 0.22751 0.89975 0.0
H2951 H 0.19647 0.22061 0.88615 0.0
H2952 H 0.22926 0.21492 0.90804 0.0
H2953 H 0.19681 0.22435 0.92767 0.0
H2954 H 0.19662 0.2161 0.91795 0.0
H2955 H 0.19704 0.22863 0.91565 0.0
C2956 C 0.20644 0.20056 0.89511 0.0
C2957 C 0.20092 0.20622 0.88901 0.0
C2958 C 0.21122 0.20455 0.90289 0.0
C2959 C 0.21054 0.21426 0.90477 0.0
C2960 C 0.20523 0.21996 0.89858 0.0
H2961 H 0.23212 0.2553 0.94438 0.0
H2962 H 0.22403 0.24628 0.93193 0.0
C2963 C 0.20047 0.21599 0.8908 0.0
C2964 C 0.21542 0.2185 0.91312 0.0
H2965 H 0.2114 0.23102 0.93329 0.0
C2966 C 0.22537 0.21836 0.91362 0.0
C2967 C 0.21031 0.22297 0.9204 0.0
C2968 C 0.1996 0.22296 0.92047 0.0
C2969 C 0.23038 0.2229 0.92101 0.0
C2970 C 0.22527 0.22754 0.92818 0.0
C2971 C 0.21531 0.22749 0.92778 0.0
C2972 C 0.23012 0.23286 0.93594 0.0
C2973 C 0.24109 0.223 0.92088 0.0
C2974 C 0.23612 0.22828 0.94246 0.0
C2975 C 0.24074 0.23343 0.94964 0.0
C2976 C 0.23938 0.24324 0.95049 0.0
C2977 C 0.23323 0.24774 0.94404 0.0
C2978 C 0.22863 0.2426 0.93687 0.0
H2979 H 0.24389 0.22106 0.91382 0.0
H2980 H 0.24399 0.23009 0.92281 0.0
H2981 H 0.24375 0.21779 0.92616 0.0
H2982 H 0.2372 0.22073 0.94201 0.0
H2983 H 0.24533 0.22972 0.95456 0.0
H2984 H 0.82482 0.21785 0.88696 0.0
H2985 H 0.81631 0.22399 0.90056 0.0
H2986 H 0.80722 0.19565 0.90816 0.0
H2987 H 0.81601 0.18939 0.89472 0.0
H2988 H 0.79719 0.22268 0.90478 0.0
H2989 H 0.81892 0.20553 0.93291 0.0
H2990 H 0.82264 0.20624 0.9207 0.0
H2991 H 0.81384 0.19761 0.92428 0.0
C2992 C 0.82112 0.21289 0.89158 0.0
C2993 C 0.82119 0.20311 0.88978 0.0
C2994 C 0.81619 0.21643 0.89932 0.0
C2995 C 0.81124 0.21027 0.90546 0.0
C2996 C 0.81113 0.20052 0.90361 0.0
H2997 H 0.77101 0.23213 0.94696 0.0
H2998 H 0.77812 0.22278 0.93438 0.0
C2999 C 0.81608 0.19696 0.89586 0.0
C3000 C 0.80614 0.21416 0.91372 0.0
H3001 H 0.80576 0.21429 0.93795 0.0
C3002 C 0.79902 0.22081 0.91204 0.0
C3003 C 0.80861 0.21177 0.92318 0.0
C3004 C 0.81647 0.20496 0.92543 0.0
C3005 C 0.79437 0.22522 0.91955 0.0
C3006 C 0.79678 0.22279 0.92901 0.0
C3007 C 0.80385 0.21607 0.9307 0.0
C3008 C 0.79251 0.22763 0.93722 0.0
C3009 C 0.78715 0.23271 0.91728 0.0
C3010 C 0.79828 0.23311 0.94328 0.0
C3011 C 0.79426 0.23836 0.95054 0.0
C3012 C 0.78437 0.23823 0.95192 0.0
C3013 C 0.77865 0.23237 0.94612 0.0
C3014 C 0.78269 0.2271 0.93886 0.0
H3015 H 0.78766 0.23523 0.90981 0.0
H3016 H 0.7799 0.2297 0.91834 0.0
H3017 H 0.78806 0.23888 0.92204 0.0
H3018 H 0.80589 0.23356 0.9422 0.0
H3019 H 0.79889 0.24267 0.95497 0.0
H3020 H 0.82057 0.8283 0.89807 0.0
H3021 H 0.8135 0.82031 0.91184 0.0
H3022 H 0.79855 0.80096 0.89327 0.0
H3023 H 0.80568 0.80884 0.87949 0.0
H3024 H 0.79517 0.81857 0.91661 0.0
H3025 H 0.80996 0.78282 0.91222 0.0
H3026 H 0.81433 0.793 0.90566 0.0
H3027 H 0.80371 0.78683 0.90185 0.0
C3028 C 0.8158 0.82232 0.89692 0.0
C3029 C 0.81371 0.81919 0.88768 0.0
C3030 C 0.81178 0.81774 0.9048 0.0
C3031 C 0.80559 0.80993 0.90362 0.0
C3032 C 0.80349 0.8068 0.8944 0.0
H3033 H 0.76315 0.78948 0.9432 0.0
H3034 H 0.77212 0.79735 0.93056 0.0
C3035 C 0.80756 0.81133 0.88651 0.0
C3036 C 0.80098 0.80539 0.912 0.0
H3037 H 0.79716 0.78411 0.92316 0.0
C3038 C 0.79567 0.81105 0.91808 0.0
C3039 C 0.80174 0.79559 0.91402 0.0
C3040 C 0.80782 0.78922 0.90815 0.0
C3041 C 0.7909 0.80716 0.92595 0.0
C3042 C 0.79127 0.79729 0.92769 0.0
C3043 C 0.79679 0.79166 0.92177 0.0
C3044 C 0.78585 0.79264 0.93551 0.0
C3045 C 0.78562 0.8137 0.93239 0.0
C3046 C 0.79054 0.78715 0.9424 0.0
C3047 C 0.7854 0.78258 0.94962 0.0
C3048 C 0.77547 0.78339 0.9501 0.0
C3049 C 0.77081 0.78888 0.94317 0.0
C3050 C 0.77594 0.79339 0.93594 0.0
H3051 H 0.78841 0.82109 0.93186 0.0
H3052 H 0.77802 0.81375 0.93026 0.0
H3053 H 0.78609 0.81134 0.9399 0.0
H3054 H 0.79818 0.78643 0.9422 0.0
H3055 H 0.78921 0.77844 0.95486 0.0
H3056 H 0.14296 0.19441 0.21038 0.0
H3057 H 0.12855 0.19914 0.21857 0.0
H3058 H 0.11812 0.21193 0.19275 0.0
H3059 H 0.13231 0.20693 0.18442 0.0
H3060 H 0.12198 0.21712 0.22128 0.0
H3061 H 0.09538 0.19595 0.201 0.0
H3062 H 0.10796 0.19381 0.2004 0.0
H3063 H 0.10283 0.20335 0.19368 0.0
C3064 C 0.13753 0.19808 0.20639 0.0
C3065 C 0.13881 0.20025 0.19672 0.0
C3066 C 0.12932 0.20084 0.21111 0.0
C3067 C 0.12218 0.20577 0.20625 0.0
C3068 C 0.12343 0.20797 0.19661 0.0
H3069 H 0.06986 0.23277 0.22314 0.0
H3070 H 0.08352 0.22677 0.21448 0.0
C3071 C 0.13163 0.20521 0.19188 0.0
C3072 C 0.11361 0.20895 0.21136 0.0
H3073 H 0.08934 0.20759 0.21138 0.0
C3074 C 0.11485 0.21498 0.21915 0.0
C3075 C 0.1043 0.20619 0.20855 0.0
C3076 C 0.10251 0.1994 0.20051 0.0
C3077 C 0.10704 0.21845 0.22412 0.0
C3078 C 0.09774 0.21571 0.22131 0.0
C3079 C 0.09648 0.20969 0.21351 0.0
C3080 C 0.08924 0.21899 0.22643 0.0
C3081 C 0.10881 0.22518 0.23222 0.0
C3082 C 0.08781 0.21643 0.23596 0.0
C3083 C 0.08004 0.21985 0.24092 0.0
C3084 C 0.07349 0.22588 0.23645 0.0
C3085 C 0.07481 0.22823 0.22682 0.0
C3086 C 0.08259 0.22477 0.22185 0.0
H3087 H 0.11608 0.22835 0.23202 0.0
H3088 H 0.10358 0.23098 0.2321 0.0
H3089 H 0.10803 0.22127 0.23904 0.0
H3090 H 0.09278 0.21186 0.23959 0.0
H3091 H 0.07932 0.21797 0.24835 0.0
H3092 H 0.80764 0.13876 0.21537 0.0
H3093 H 0.79939 0.12503 0.22235 0.0
H3094 H 0.81918 0.10644 0.209 0.0
H3095 H 0.82754 0.12015 0.20211 0.0
H3096 H 0.79045 0.10974 0.21455 0.0
H3097 H 0.82105 0.09813 0.23645 0.0
H3098 H 0.82087 0.10948 0.23051 0.0
H3099 H 0.82363 0.09897 0.22403 0.0
C3100 C 0.81019 0.13174 0.21387 0.0
C3101 C 0.81829 0.13054 0.20825 0.0
C3102 C 0.80549 0.1239 0.21788 0.0
C3103 C 0.80877 0.11471 0.21635 0.0
C3104 C 0.81667 0.11347 0.2105 0.0
H3105 H 0.77584 0.06326 0.23033 0.0
H3106 H 0.78414 0.07616 0.2219 0.0
C3107 C 0.82143 0.12131 0.20654 0.0
C3108 C 0.80394 0.10645 0.22094 0.0
H3109 H 0.80761 0.08782 0.23604 0.0
C3110 C 0.7942 0.10494 0.21925 0.0
C3111 C 0.80881 0.10027 0.22717 0.0
C3112 C 0.81914 0.10182 0.22974 0.0
C3113 C 0.78919 0.09741 0.2236 0.0
C3114 C 0.79412 0.09108 0.22964 0.0
C3115 C 0.80386 0.09261 0.23133 0.0
C3116 C 0.78925 0.08309 0.23463 0.0
C3117 C 0.77862 0.09649 0.22191 0.0
C3118 C 0.78962 0.08251 0.24457 0.0
C3119 C 0.78499 0.07511 0.24938 0.0
C3120 C 0.77989 0.06811 0.24436 0.0
C3121 C 0.77962 0.06861 0.23439 0.0
C3122 C 0.78433 0.076 0.22957 0.0
H3123 H 0.77557 0.10322 0.21926 0.0
H3124 H 0.77723 0.09098 0.21649 0.0
H3125 H 0.77487 0.09435 0.22851 0.0
H3126 H 0.79338 0.08789 0.24863 0.0
H3127 H 0.78523 0.07499 0.25706 0.0
H3128 H 0.89128 0.83131 0.19863 0.0
H3129 H 0.90573 0.82549 0.20638 0.0
H3130 H 0.89456 0.79693 0.20503 0.0
H3131 H 0.88013 0.80266 0.19738 0.0
H3132 H 0.90835 0.8148 0.22334 0.0
H3133 H 0.92036 0.7952 0.19184 0.0
H3134 H 0.91122 0.80399 0.19118 0.0
H3135 H 0.90844 0.79219 0.19527 0.0
C3136 C 0.89187 0.8238 0.20007 0.0
C3137 C 0.88458 0.81744 0.19727 0.0
C3138 C 0.90015 0.82048 0.20446 0.0
C3139 C 0.90131 0.81076 0.2061 0.0
C3140 C 0.89393 0.80444 0.20361 0.0
H3141 H 0.94021 0.77185 0.23068 0.0
H3142 H 0.92721 0.78047 0.2233 0.0
C3143 C 0.88568 0.80773 0.19922 0.0
C3144 C 0.91022 0.80712 0.21038 0.0
H3145 H 0.92813 0.79164 0.2065 0.0
C3146 C 0.91276 0.80983 0.21963 0.0
C3147 C 0.91598 0.80068 0.2055 0.0
C3148 C 0.91393 0.7979 0.19536 0.0
C3149 C 0.92066 0.8059 0.22429 0.0
C3150 C 0.92621 0.7992 0.21952 0.0
C3151 C 0.92384 0.79674 0.21016 0.0
C3152 C 0.93416 0.79419 0.22424 0.0
C3153 C 0.92279 0.80865 0.23441 0.0
C3154 C 0.94243 0.79905 0.22722 0.0
C3155 C 0.94996 0.7941 0.23139 0.0
C3156 C 0.94937 0.78421 0.23261 0.0
C3157 C 0.94102 0.77942 0.22968 0.0
C3158 C 0.93353 0.78435 0.22551 0.0
H3159 H 0.91685 0.81255 0.23763 0.0
H3160 H 0.92423 0.80227 0.23881 0.0
H3161 H 0.92922 0.81328 0.2346 0.0
H3162 H 0.94312 0.80663 0.22617 0.0
H3163 H 0.95631 0.798 0.23349 0.0
H3164 H 0.21162 0.88448 0.19162 0.0
H3165 H 0.22023 0.89862 0.19717 0.0
H3166 H 0.21562 0.88988 0.22616 0.0
H3167 H 0.20728 0.87561 0.2207 0.0
H3168 H 0.21362 0.91312 0.20868 0.0
H3169 H 0.2442 0.89519 0.22561 0.0
H3170 H 0.23618 0.88922 0.2175 0.0
H3171 H 0.23285 0.8909 0.22965 0.0
C3172 C 0.21256 0.88549 0.19918 0.0
C3173 C 0.20877 0.87888 0.20571 0.0
C3174 C 0.21742 0.89361 0.20233 0.0
C3175 C 0.21867 0.89525 0.21208 0.0
C3176 C 0.21488 0.88869 0.21861 0.0
H3177 H 0.24513 0.93942 0.24611 0.0
H3178 H 0.23581 0.92588 0.24027 0.0
C3179 C 0.21002 0.88058 0.21547 0.0
C3180 C 0.22372 0.90393 0.21542 0.0
H3181 H 0.24271 0.91161 0.22865 0.0
C3182 C 0.22001 0.9128 0.213 0.0
C3183 C 0.23205 0.90349 0.22107 0.0
C3184 C 0.23662 0.8942 0.22355 0.0
C3185 C 0.22429 0.92124 0.21624 0.0
C3186 C 0.23259 0.9208 0.22194 0.0
C3187 C 0.23632 0.91193 0.22432 0.0
C3188 C 0.2376 0.92944 0.22543 0.0
C3189 C 0.21979 0.93055 0.21372 0.0
C3190 C 0.24166 0.93598 0.21903 0.0
C3191 C 0.24695 0.94377 0.22235 0.0
C3192 C 0.24833 0.94514 0.23215 0.0
C3193 C 0.24409 0.93867 0.23854 0.0
C3194 C 0.23882 0.93088 0.23521 0.0
H3195 H 0.21226 0.92959 0.21147 0.0
H3196 H 0.22009 0.93548 0.21982 0.0
H3197 H 0.22372 0.9339 0.20775 0.0
H3198 H 0.24094 0.93494 0.21146 0.0
H3199 H 0.25006 0.94864 0.21724 0.0
H3200 H 0.13707 0.79375 0.83347 0.0
H3201 H 0.12274 0.78804 0.82536 0.0
H3202 H 0.12925 0.80604 0.80135 0.0
H3203 H 0.14384 0.81149 0.80925 0.0
H3204 H 0.10717 0.79748 0.81893 0.0
H3205 H 0.12548 0.7804 0.78897 0.0
H3206 H 0.13172 0.78442 0.79944 0.0
H3207 H 0.12834 0.79274 0.79037 0.0
C3208 C 0.13554 0.79641 0.82641 0.0
C3209 C 0.14169 0.80301 0.82198 0.0
C3210 C 0.12729 0.7932 0.82182 0.0
C3211 C 0.12498 0.7965 0.81269 0.0
C3212 C 0.13097 0.80325 0.80832 0.0
H3213 H 0.06898 0.78533 0.78656 0.0
H3214 H 0.08292 0.79327 0.79355 0.0
C3215 C 0.13926 0.80645 0.8129 0.0
C3216 C 0.11632 0.79281 0.8078 0.0
H3217 H 0.10871 0.78051 0.78834 0.0
C3218 C 0.10749 0.79379 0.81222 0.0
C3219 C 0.11677 0.78792 0.79909 0.0
C3220 C 0.12609 0.78621 0.79421 0.0
C3221 C 0.09912 0.78995 0.80824 0.0
C3222 C 0.09955 0.78515 0.79948 0.0
C3223 C 0.10837 0.78426 0.79501 0.0
C3224 C 0.09108 0.78049 0.79511 0.0
C3225 C 0.08994 0.79078 0.81361 0.0
C3226 C 0.09111 0.77072 0.79342 0.0
C3227 C 0.08324 0.7662 0.7893 0.0
C3228 C 0.0751 0.77133 0.78677 0.0
C3229 C 0.07512 0.78115 0.78839 0.0
C3230 C 0.08304 0.78569 0.79248 0.0
H3231 H 0.09121 0.79258 0.82118 0.0
H3232 H 0.08565 0.79648 0.81037 0.0
H3233 H 0.08573 0.78407 0.81328 0.0
H3234 H 0.09725 0.76657 0.79532 0.0
H3235 H 0.0836 0.75867 0.78796 0.0
H3236 H 0.19601 0.12925 0.81757 0.0
H3237 H 0.20177 0.11472 0.81042 0.0
H3238 H 0.22638 0.11566 0.82878 0.0
H3239 H 0.22048 0.12987 0.83627 0.0
H3240 H 0.21791 0.11163 0.80072 0.0
H3241 H 0.21739 0.08875 0.83274 0.0
H3242 H 0.21162 0.10005 0.8323 0.0
H3243 H 0.2242 0.09942 0.83456 0.0
C3244 C 0.20257 0.12629 0.82021 0.0
C3245 C 0.20775 0.13075 0.82754 0.0
C3246 C 0.20589 0.118 0.81606 0.0
C3247 C 0.21443 0.11398 0.81917 0.0
C3248 C 0.21966 0.11848 0.8264 0.0
H3249 H 0.2531 0.07165 0.8014 0.0
H3250 H 0.24451 0.08451 0.80871 0.0
C3251 C 0.21633 0.12672 0.83058 0.0
C3252 C 0.21806 0.10528 0.81466 0.0
H3253 H 0.22642 0.08319 0.81961 0.0
C3254 C 0.21965 0.10536 0.80483 0.0
C3255 C 0.22029 0.09707 0.82001 0.0
C3256 C 0.21819 0.09626 0.83047 0.0
C3257 C 0.22375 0.09762 0.80029 0.0
C3258 C 0.22629 0.08958 0.80571 0.0
C3259 C 0.2245 0.08939 0.81548 0.0
C3260 C 0.23126 0.08149 0.80144 0.0
C3261 C 0.22567 0.09821 0.78979 0.0
C3262 C 0.2266 0.07542 0.79503 0.0
C3263 C 0.23146 0.06793 0.79091 0.0
C3264 C 0.24109 0.06639 0.79311 0.0
C3265 C 0.24566 0.07247 0.79964 0.0
C3266 C 0.24078 0.07989 0.80379 0.0
H3267 H 0.22455 0.10544 0.78687 0.0
H3268 H 0.23308 0.09612 0.7883 0.0
H3269 H 0.22084 0.09321 0.786 0.0
H3270 H 0.2192 0.07648 0.79321 0.0
H3271 H 0.22766 0.06334 0.78602 0.0
H3272 H 0.89202 0.19954 0.8328 0.0
H3273 H 0.90583 0.20845 0.8268 0.0
H3274 H 0.89754 0.20164 0.79813 0.0
H3275 H 0.8836 0.19301 0.80402 0.0
H3276 H 0.9208 0.20208 0.81601 0.0
H3277 H 0.90151 0.23027 0.79678 0.0
H3278 H 0.89582 0.22253 0.80535 0.0
H3279 H 0.89768 0.21858 0.79342 0.0
C3280 C 0.89306 0.20006 0.82521 0.0
C3281 C 0.88668 0.19557 0.81889 0.0
C3282 C 0.90099 0.2051 0.8218 0.0
C3283 C 0.90264 0.20583 0.81201 0.0
C3284 C 0.89632 0.20133 0.8057 0.0
H3285 H 0.95356 0.21767 0.78053 0.0
H3286 H 0.94049 0.21062 0.78959 0.0
C3287 C 0.8884 0.19629 0.80909 0.0
C3288 C 0.91112 0.21104 0.80836 0.0
H3289 H 0.91794 0.22868 0.79304 0.0
C3290 C 0.92019 0.20796 0.81106 0.0
C3291 C 0.91032 0.2188 0.80202 0.0
C3292 C 0.90081 0.22281 0.79929 0.0
C3293 C 0.92846 0.21221 0.80731 0.0
C3294 C 0.92763 0.21962 0.80056 0.0
C3295 C 0.91858 0.22293 0.79814 0.0
C3296 C 0.93601 0.22383 0.79564 0.0
C3297 C 0.93799 0.20872 0.81063 0.0
C3298 C 0.9378 0.23364 0.79593 0.0
C3299 C 0.94521 0.23771 0.79065 0.0
C3300 C 0.95095 0.23208 0.78492 0.0
C3301 C 0.94925 0.22223 0.78481 0.0
C3302 C 0.94184 0.21817 0.79008 0.0
H3303 H 0.93751 0.20526 0.81772 0.0
H3304 H 0.94057 0.20339 0.80556 0.0
H3305 H 0.94331 0.2146 0.811 0.0
H3306 H 0.93335 0.23816 0.80012 0.0
H3307 H 0.94622 0.24533 0.7908 0.0
H3308 H 0.83537 0.89393 0.81736 0.0
H3309 H 0.82705 0.90782 0.81132 0.0
H3310 H 0.80148 0.89095 0.80785 0.0
H3311 H 0.80975 0.87703 0.8139 0.0
H3312 H 0.81879 0.91059 0.79402 0.0
H3313 H 0.79181 0.9136 0.8222 0.0
H3314 H 0.80209 0.90622 0.82348 0.0
H3315 H 0.7919 0.90213 0.81684 0.0
C3316 C 0.82798 0.89317 0.81531 0.0
C3317 C 0.82322 0.88436 0.81613 0.0
C3318 C 0.82322 0.90113 0.81189 0.0
C3319 C 0.8136 0.90047 0.80926 0.0
C3320 C 0.80883 0.89169 0.81006 0.0
H3321 H 0.78241 0.93771 0.77186 0.0
H3322 H 0.79163 0.92507 0.77913 0.0
C3323 C 0.81358 0.88373 0.81351 0.0
C3324 C 0.80868 0.90888 0.80531 0.0
H3325 H 0.78938 0.9229 0.80822 0.0
C3326 C 0.8124 0.91331 0.79716 0.0
C3327 C 0.8004 0.91253 0.80948 0.0
C3328 C 0.79636 0.90844 0.81854 0.0
C3329 C 0.80794 0.92113 0.79293 0.0
C3330 C 0.79944 0.92452 0.79686 0.0
C3331 C 0.79585 0.92025 0.80516 0.0
C3332 C 0.79406 0.93236 0.79238 0.0
C3333 C 0.81245 0.92574 0.78435 0.0
C3334 C 0.79218 0.94062 0.79747 0.0
C3335 C 0.78689 0.94789 0.79333 0.0
C3336 C 0.78333 0.94703 0.78401 0.0
C3337 C 0.78522 0.93873 0.77896 0.0
C3338 C 0.79049 0.93147 0.78311 0.0
H3339 H 0.82014 0.92417 0.78393 0.0
H3340 H 0.80895 0.92297 0.77784 0.0
H3341 H 0.81161 0.93355 0.78444 0.0
H3342 H 0.79483 0.94145 0.80465 0.0
H3343 H 0.78561 0.9542 0.7974 0.0
H3344 H 0.21106 0.12697 0.1892 0.0
H3345 H 0.22019 0.11337 0.19469 0.0
H3346 H 0.21186 0.11879 0.22348 0.0
H3347 H 0.203 0.13258 0.21811 0.0
H3348 H 0.23087 0.11529 0.22201 0.0
H3349 H 0.20975 0.08762 0.20325 0.0
H3350 H 0.21424 0.09688 0.19563 0.0
H3351 H 0.20567 0.09958 0.20457 0.0
C3352 C 0.21121 0.12531 0.19671 0.0
C3353 C 0.20623 0.13086 0.2032 0.0
C3354 C 0.21635 0.11746 0.19983 0.0
C3355 C 0.21657 0.11495 0.20948 0.0
C3356 C 0.21172 0.12054 0.21599 0.0
H3357 H 0.23611 0.06222 0.23492 0.0
H3358 H 0.22667 0.07547 0.22902 0.0
C3359 C 0.20659 0.12839 0.21289 0.0
C3360 C 0.22206 0.10667 0.21287 0.0
H3361 H 0.22408 0.0827 0.21067 0.0
C3362 C 0.22937 0.10816 0.21954 0.0
C3363 C 0.22002 0.09734 0.20975 0.0
C3364 C 0.21194 0.09521 0.20298 0.0
C3365 C 0.23478 0.10063 0.22307 0.0
C3366 C 0.23295 0.09135 0.21972 0.0
C3367 C 0.22554 0.08982 0.21316 0.0
C3368 C 0.23863 0.08316 0.22299 0.0
C3369 C 0.24231 0.10266 0.23049 0.0
C3370 C 0.24844 0.08298 0.22139 0.0
C3371 C 0.25386 0.07546 0.22481 0.0
C3372 C 0.24957 0.06789 0.22984 0.0
C3373 C 0.23967 0.06797 0.2312 0.0
C3374 C 0.23426 0.07551 0.22777 0.0
H3375 H 0.24111 0.10949 0.2341 0.0
H3376 H 0.24251 0.09693 0.23592 0.0
H3377 H 0.24936 0.10311 0.22703 0.0
H3378 H 0.25194 0.08871 0.21757 0.0
H3379 H 0.26146 0.07572 0.22371 0.0
H3380 H 0.19266 0.88398 0.8111 0.0
H3381 H 0.20063 0.89852 0.80571 0.0
H3382 H 0.22748 0.88781 0.81556 0.0
H3383 H 0.21961 0.87308 0.82067 0.0
H3384 H 0.21134 0.91184 0.81576 0.0
H3385 H 0.23301 0.89492 0.78801 0.0
H3386 H 0.22317 0.88888 0.79369 0.0
H3387 H 0.23441 0.89003 0.79972 0.0
C3388 C 0.20028 0.88465 0.81203 0.0
C3389 C 0.2055 0.8773 0.81623 0.0
C3390 C 0.20481 0.89301 0.80902 0.0
C3391 C 0.21467 0.8942 0.8101 0.0
C3392 C 0.21989 0.88698 0.8145 0.0
H3393 H 0.25242 0.93981 0.79012 0.0
H3394 H 0.2459 0.92611 0.79878 0.0
C3395 C 0.21536 0.8786 0.81751 0.0
C3396 C 0.21943 0.90298 0.80657 0.0
H3397 H 0.23555 0.91128 0.7904 0.0
C3398 C 0.21665 0.91172 0.81023 0.0
C3399 C 0.22637 0.90281 0.79937 0.0
C3400 C 0.22938 0.89368 0.79489 0.0
C3401 C 0.22061 0.9203 0.80687 0.0
C3402 C 0.22742 0.92013 0.79955 0.0
C3403 C 0.23034 0.91139 0.79603 0.0
C3404 C 0.23127 0.92893 0.7951 0.0
C3405 C 0.2175 0.92946 0.81121 0.0
C3406 C 0.22521 0.9351 0.79021 0.0
C3407 C 0.22891 0.94294 0.78529 0.0
C3408 C 0.23876 0.94476 0.78512 0.0
C3409 C 0.2448 0.93869 0.79022 0.0
C3410 C 0.24109 0.93083 0.79512 0.0
H3411 H 0.21443 0.92829 0.81837 0.0
H3412 H 0.22353 0.93459 0.81177 0.0
H3413 H 0.21195 0.93265 0.80663 0.0
H3414 H 0.21763 0.93368 0.78996 0.0
H3415 H 0.22406 0.9475 0.78148 0.0
H3416 H 0.14097 0.2083 0.81986 0.0
H3417 H 0.12712 0.21682 0.81396 0.0
H3418 H 0.11087 0.19069 0.81337 0.0
H3419 H 0.12461 0.18214 0.81951 0.0
H3420 H 0.11736 0.21361 0.79676 0.0
H3421 H 0.0934 0.20868 0.82761 0.0
H3422 H 0.10602 0.20674 0.82838 0.0
H3423 H 0.09831 0.19798 0.82307 0.0
C3424 C 0.13441 0.20438 0.81863 0.0
C3425 C 0.1339 0.19453 0.8202 0.0
C3426 C 0.12651 0.20926 0.8152 0.0
C3427 C 0.11792 0.20442 0.81333 0.0
C3428 C 0.11737 0.1946 0.81491 0.0
H3429 H 0.0635 0.22344 0.79028 0.0
H3430 H 0.07649 0.2139 0.79671 0.0
C3431 C 0.12527 0.18971 0.81832 0.0
C3432 C 0.10969 0.2096 0.80936 0.0
H3433 H 0.0868 0.21578 0.81385 0.0
C3434 C 0.11068 0.2141 0.80051 0.0
C3435 C 0.10096 0.21017 0.81422 0.0
C3436 C 0.09959 0.20571 0.82388 0.0
C3437 C 0.10318 0.21913 0.79636 0.0
C3438 C 0.0945 0.21984 0.80128 0.0
C3439 C 0.09346 0.21523 0.81008 0.0
C3440 C 0.08656 0.2256 0.79754 0.0
C3441 C 0.10458 0.22353 0.78667 0.0
C3442 C 0.08786 0.23536 0.79603 0.0
C3443 C 0.0805 0.2408 0.79232 0.0
C3444 C 0.07161 0.23663 0.79011 0.0
C3445 C 0.07027 0.22686 0.7918 0.0
C3446 C 0.07767 0.22141 0.79552 0.0
H3447 H 0.11043 0.22012 0.78277 0.0
H3448 H 0.09799 0.22299 0.78233 0.0
H3449 H 0.10647 0.23114 0.78747 0.0
H3450 H 0.0946 0.23878 0.79769 0.0
H3451 H 0.08185 0.24826 0.791 0.0
H3452 H 0.8281 0.12374 0.82469 0.0
H3453 H 0.82247 0.11014 0.81539 0.0
H3454 H 0.79437 0.12177 0.81437 0.0
H3455 H 0.79996 0.13546 0.82345 0.0
H3456 H 0.80753 0.09695 0.8199 0.0
H3457 H 0.80033 0.11643 0.78635 0.0
H3458 H 0.80762 0.12133 0.79575 0.0
H3459 H 0.79489 0.12141 0.79662 0.0
C3460 C 0.82074 0.12345 0.82239 0.0
C3461 C 0.81449 0.13071 0.82479 0.0
C3462 C 0.81753 0.11565 0.81713 0.0
C3463 C 0.80803 0.115 0.81409 0.0
C3464 C 0.80176 0.1222 0.81652 0.0
H3465 H 0.77215 0.07647 0.78261 0.0
H3466 H 0.77918 0.0892 0.79205 0.0
C3467 C 0.80495 0.12997 0.82179 0.0
C3468 C 0.8046 0.10674 0.80852 0.0
H3469 H 0.7944 0.10062 0.78736 0.0
C3470 C 0.80473 0.09771 0.81275 0.0
C3471 C 0.80095 0.10778 0.79921 0.0
C3472 C 0.801 0.11724 0.79416 0.0
C3473 C 0.80101 0.08973 0.80802 0.0
C3474 C 0.79723 0.0908 0.79875 0.0
C3475 C 0.79726 0.09981 0.79448 0.0
C3476 C 0.79294 0.08273 0.79343 0.0
C3477 C 0.80086 0.0803 0.81312 0.0
C3478 C 0.79834 0.07483 0.79106 0.0
C3479 C 0.79429 0.06745 0.78574 0.0
C3480 C 0.78478 0.06785 0.78262 0.0
C3481 C 0.77942 0.07579 0.78504 0.0
C3482 C 0.78346 0.08314 0.79037 0.0
H3483 H 0.80179 0.08112 0.82091 0.0
H3484 H 0.79409 0.07638 0.81175 0.0
H3485 H 0.80677 0.07595 0.8105 0.0
H3486 H 0.80572 0.07444 0.79319 0.0
H3487 H 0.79862 0.06143 0.78405 0.0
H3488 H 0.89254 0.82584 0.81971 0.0
H3489 H 0.90654 0.82013 0.81143 0.0
H3490 H 0.8986 0.79137 0.81862 0.0
H3491 H 0.88445 0.79696 0.82661 0.0
H3492 H 0.92164 0.80965 0.81856 0.0
H3493 H 0.90267 0.78995 0.7901 0.0
H3494 H 0.89683 0.79838 0.79754 0.0
H3495 H 0.89902 0.78659 0.80184 0.0
C3496 C 0.8937 0.81829 0.81942 0.0
C3497 C 0.88733 0.81187 0.82381 0.0
C3498 C 0.90174 0.81504 0.81474 0.0
C3499 C 0.90356 0.80531 0.8143 0.0
C3500 C 0.89726 0.7989 0.81873 0.0
H3501 H 0.94743 0.77074 0.79005 0.0
H3502 H 0.93418 0.77691 0.79913 0.0
C3503 C 0.88923 0.80212 0.82339 0.0
C3504 C 0.91212 0.80187 0.80936 0.0
H3505 H 0.91926 0.78748 0.7915 0.0
C3506 C 0.92113 0.80485 0.8126 0.0
C3507 C 0.91144 0.7956 0.8016 0.0
C3508 C 0.90197 0.7925 0.79749 0.0
C3509 C 0.92948 0.80155 0.80843 0.0
C3510 C 0.92879 0.79522 0.80072 0.0
C3511 C 0.91978 0.79229 0.79745 0.0
C3512 C 0.93731 0.79161 0.79584 0.0
C3513 C 0.93896 0.80471 0.81244 0.0
C3514 C 0.94352 0.79783 0.79103 0.0
C3515 C 0.95114 0.79433 0.78587 0.0
C3516 C 0.95268 0.78452 0.78539 0.0
C3517 C 0.94655 0.77833 0.79039 0.0
C3518 C 0.93892 0.78184 0.79552 0.0
H3519 H 0.9383 0.80754 0.81973 0.0
H3520 H 0.94403 0.79877 0.8126 0.0
H3521 H 0.942 0.81041 0.80786 0.0
H3522 H 0.94233 0.80538 0.79105 0.0
H3523 H 0.95575 0.79929 0.78215 0.0
H3524 H 0.82917 0.89475 0.2112 0.0
H3525 H 0.81987 0.90789 0.21709 0.0
H3526 H 0.7946 0.89571 0.2044 0.0
H3527 H 0.80377 0.88233 0.1988 0.0
H3528 H 0.80922 0.92112 0.20744 0.0
H3529 H 0.78636 0.89974 0.23163 0.0
H3530 H 0.79695 0.89512 0.22637 0.0
H3531 H 0.78613 0.89575 0.21957 0.0
C3532 C 0.82161 0.89479 0.20976 0.0
C3533 C 0.81722 0.88741 0.20459 0.0
C3534 C 0.81632 0.90236 0.21307 0.0
C3535 C 0.80651 0.90272 0.21133 0.0
C3536 C 0.80212 0.89549 0.206 0.0
H3537 H 0.76239 0.94198 0.22654 0.0
H3538 H 0.7718 0.92953 0.21943 0.0
C3539 C 0.80741 0.8879 0.2027 0.0
C3540 C 0.8009 0.91068 0.21505 0.0
H3541 H 0.78231 0.91584 0.22946 0.0
C3542 C 0.80336 0.91997 0.21228 0.0
C3543 C 0.79325 0.90918 0.22138 0.0
C3544 C 0.79055 0.89942 0.225 0.0
C3545 C 0.79829 0.92778 0.21554 0.0
C3546 C 0.79063 0.92626 0.22184 0.0
C3547 C 0.78816 0.91698 0.2246 0.0
C3548 C 0.7851 0.93419 0.22573 0.0
C3549 C 0.80105 0.93757 0.21209 0.0
C3550 C 0.78946 0.94097 0.23163 0.0
C3551 C 0.7841 0.94814 0.23568 0.0
C3552 C 0.77427 0.94865 0.23392 0.0
C3553 C 0.76997 0.9419 0.22792 0.0
C3554 C 0.77532 0.93473 0.2239 0.0
H3555 H 0.80544 0.93734 0.20558 0.0
H3556 H 0.79465 0.94184 0.21057 0.0
H3557 H 0.80526 0.94122 0.21768 0.0
H3558 H 0.79697 0.94061 0.23326 0.0
H3559 H 0.78765 0.95324 0.24024 0.0
H3560 H 0.13336 0.80485 0.18586 0.0
H3561 H 0.11885 0.8002 0.19426 0.0
H3562 H 0.13156 0.80916 0.22068 0.0
H3563 H 0.14613 0.81374 0.21236 0.0
H3564 H 0.11679 0.78693 0.20901 0.0
H3565 H 0.10598 0.82264 0.22049 0.0
H3566 H 0.11473 0.82089 0.2114 0.0
H3567 H 0.11793 0.81964 0.22371 0.0
C3568 C 0.13309 0.8058 0.19346 0.0
C3569 C 0.14093 0.80969 0.19843 0.0
C3570 C 0.12477 0.80319 0.19825 0.0
C3571 C 0.12407 0.80446 0.20807 0.0
C3572 C 0.13186 0.80831 0.21306 0.0
H3573 H 0.08241 0.79088 0.25104 0.0
H3574 H 0.0961 0.79643 0.24188 0.0
C3575 C 0.1402 0.81093 0.20829 0.0
C3576 C 0.1153 0.80146 0.21314 0.0
H3577 H 0.09745 0.80953 0.22705 0.0
C3578 C 0.11252 0.79187 0.2129 0.0
C3579 C 0.10975 0.80792 0.21823 0.0
C3580 C 0.11218 0.81836 0.21843 0.0
C3581 C 0.10446 0.78853 0.2178 0.0
C3582 C 0.09893 0.79499 0.22293 0.0
C3583 C 0.10169 0.80459 0.22312 0.0
C3584 C 0.09041 0.79189 0.22834 0.0
C3585 C 0.10211 0.77807 0.21768 0.0
C3586 C 0.08256 0.78765 0.22375 0.0
C3587 C 0.07468 0.7845 0.22897 0.0
C3588 C 0.07446 0.78559 0.23888 0.0
C3589 C 0.08226 0.79004 0.24341 0.0
C3590 C 0.09013 0.79317 0.23819 0.0
H3591 H 0.10828 0.77384 0.21546 0.0
H3592 H 0.09978 0.77555 0.22478 0.0
H3593 H 0.09623 0.77674 0.21257 0.0
H3594 H 0.08253 0.78678 0.21613 0.0
H3595 H 0.06875 0.78123 0.22524 0.0
H3596 H 0.88476 0.21626 0.18974 0.0
H3597 H 0.89911 0.2224 0.19748 0.0
H3598 H 0.90083 0.19689 0.21435 0.0
H3599 H 0.8867 0.19048 0.20632 0.0
H3600 H 0.90226 0.22624 0.21596 0.0
H3601 H 0.92756 0.19919 0.20404 0.0
H3602 H 0.91586 0.20035 0.19891 0.0
H3603 H 0.91741 0.19432 0.21008 0.0
C3604 C 0.88827 0.21186 0.19497 0.0
C3605 C 0.8846 0.20283 0.19733 0.0
C3606 C 0.89644 0.21543 0.19945 0.0
C3607 C 0.90115 0.21005 0.20639 0.0
C3608 C 0.89745 0.20108 0.20887 0.0
H3609 H 0.94164 0.23434 0.24675 0.0
H3610 H 0.92803 0.22655 0.23917 0.0
C3611 C 0.88929 0.19749 0.20436 0.0
C3612 C 0.90974 0.21401 0.21121 0.0
H3613 H 0.93324 0.21005 0.21565 0.0
C3614 C 0.90903 0.2227 0.21588 0.0
C3615 C 0.91861 0.20945 0.211 0.0
C3616 C 0.91996 0.20036 0.20566 0.0
C3617 C 0.91692 0.22694 0.2204 0.0
C3618 C 0.92572 0.22224 0.22044 0.0
C3619 C 0.92646 0.21359 0.2157 0.0
C3620 C 0.93428 0.22632 0.22521 0.0
C3621 C 0.91578 0.23652 0.22488 0.0
C3622 C 0.94251 0.2284 0.21998 0.0
C3623 C 0.95042 0.2327 0.22434 0.0
C3624 C 0.95026 0.235 0.23404 0.0
C3625 C 0.94209 0.23261 0.2393 0.0
C3626 C 0.93422 0.22827 0.23495 0.0
H3627 H 0.9095 0.24025 0.22199 0.0
H3628 H 0.91477 0.23559 0.23263 0.0
H3629 H 0.92218 0.24107 0.22375 0.0
H3630 H 0.94275 0.22688 0.21247 0.0
H3631 H 0.95663 0.23428 0.22009 0.0
H3632 H 0.20367 0.71042 0.63903 0.0
H3633 H 0.20994 0.71926 0.62537 0.0
H3634 H 0.21119 0.69339 0.60943 0.0
H3635 H 0.20468 0.68454 0.62294 0.0
H3636 H 0.22743 0.7165 0.61664 0.0
H3637 H 0.1978 0.71135 0.59094 0.0
H3638 H 0.19648 0.70917 0.6035 0.0
H3639 H 0.20208 0.70059 0.59616 0.0
C3640 C 0.20512 0.70663 0.63256 0.0
C3641 C 0.20366 0.69676 0.63209 0.0
C3642 C 0.20875 0.71169 0.62478 0.0
C3643 C 0.21092 0.70701 0.61634 0.0
C3644 C 0.20941 0.69718 0.61581 0.0
H3645 H 0.23786 0.72309 0.56322 0.0
H3646 H 0.22971 0.71486 0.57626 0.0
C3647 C 0.20579 0.69212 0.62358 0.0
C3648 C 0.21525 0.71232 0.60827 0.0
H3649 H 0.21219 0.71793 0.58484 0.0
C3650 C 0.22407 0.71688 0.6097 0.0
C3651 C 0.21088 0.71275 0.59921 0.0
C3652 C 0.20125 0.70828 0.59735 0.0
C3653 C 0.22873 0.72169 0.60228 0.0
C3654 C 0.22436 0.72213 0.59321 0.0
C3655 C 0.21553 0.71759 0.59178 0.0
C3656 C 0.2289 0.72724 0.58513 0.0
C3657 C 0.23842 0.72604 0.60416 0.0
C3658 C 0.23095 0.73698 0.58569 0.0
C3659 C 0.23568 0.74167 0.5783 0.0
C3660 C 0.23839 0.73676 0.57012 0.0
C3661 C 0.23602 0.72706 0.56945 0.0
C3662 C 0.23131 0.72236 0.57688 0.0
H3663 H 0.24181 0.72295 0.61058 0.0
H3664 H 0.2432 0.72506 0.59803 0.0
H3665 H 0.23769 0.73376 0.60533 0.0
H3666 H 0.229 0.74093 0.59191 0.0
H3667 H 0.23746 0.74911 0.57913 0.0
H3668 H 0.79984 0.7018 0.644 0.0
H3669 H 0.79484 0.71037 0.62971 0.0
H3670 H 0.82323 0.70886 0.61865 0.0
H3671 H 0.82826 0.7001 0.63283 0.0
H3672 H 0.80242 0.72786 0.62246 0.0
H3673 H 0.80624 0.69839 0.59693 0.0
H3674 H 0.80575 0.69646 0.60959 0.0
H3675 H 0.81646 0.70094 0.60423 0.0
C3676 C 0.805 0.7032 0.63849 0.0
C3677 C 0.81444 0.70021 0.63954 0.0
C3678 C 0.80215 0.70814 0.63035 0.0
C3679 C 0.80863 0.71014 0.62307 0.0
C3680 C 0.81808 0.70727 0.62412 0.0
H3681 H 0.80172 0.73863 0.56819 0.0
H3682 H 0.80807 0.73015 0.58202 0.0
C3683 C 0.82096 0.70235 0.63227 0.0
C3684 C 0.80552 0.71539 0.61447 0.0
H3685 H 0.80213 0.7133 0.59055 0.0
C3686 C 0.80235 0.72468 0.61548 0.0
C3687 C 0.8055 0.71124 0.60536 0.0
C3688 C 0.80859 0.70118 0.60392 0.0
C3689 C 0.79918 0.72997 0.60763 0.0
C3690 C 0.79897 0.72576 0.59855 0.0
C3691 C 0.80228 0.71651 0.59751 0.0
C3692 C 0.7951 0.73077 0.5901 0.0
C3693 C 0.79621 0.74006 0.60913 0.0
C3694 C 0.78565 0.73377 0.58997 0.0
C3695 C 0.78203 0.73866 0.58213 0.0
C3696 C 0.78775 0.74059 0.57417 0.0
C3697 C 0.79716 0.73738 0.57423 0.0
C3698 C 0.80078 0.73249 0.58211 0.0
H3699 H 0.79939 0.74305 0.61571 0.0
H3700 H 0.79832 0.74466 0.60304 0.0
H3701 H 0.78838 0.74026 0.60982 0.0
H3702 H 0.78107 0.73235 0.59597 0.0
H3703 H 0.7748 0.74112 0.58241 0.0
H3704 H 0.80123 0.31871 0.63971 0.0
H3705 H 0.79598 0.31039 0.62541 0.0
H3706 H 0.8251 0.30755 0.61682 0.0
H3707 H 0.83043 0.31593 0.63107 0.0
H3708 H 0.79912 0.31542 0.60644 0.0
H3709 H 0.81459 0.28041 0.61494 0.0
H3710 H 0.81331 0.28952 0.62373 0.0
H3711 H 0.82286 0.29022 0.61536 0.0
C3712 C 0.80653 0.31636 0.63476 0.0
C3713 C 0.81627 0.31799 0.63656 0.0
C3714 C 0.80351 0.31156 0.62661 0.0
C3715 C 0.81015 0.30824 0.6201 0.0
C3716 C 0.81986 0.30987 0.62184 0.0
H3717 H 0.80307 0.27705 0.56712 0.0
H3718 H 0.80955 0.2862 0.58043 0.0
C3719 C 0.8229 0.31466 0.63 0.0
C3720 C 0.80684 0.30329 0.61139 0.0
H3721 H 0.80758 0.2822 0.59975 0.0
C3722 C 0.80096 0.30815 0.60498 0.0
C3723 C 0.80928 0.29382 0.60947 0.0
C3724 C 0.81529 0.28814 0.61626 0.0
C3725 C 0.79749 0.30382 0.59669 0.0
C3726 C 0.79982 0.29431 0.59483 0.0
C3727 C 0.80581 0.28949 0.60117 0.0
C3728 C 0.79587 0.28912 0.58653 0.0
C3729 C 0.79144 0.3095 0.58993 0.0
C3730 C 0.78603 0.28768 0.58555 0.0
C3731 C 0.7823 0.28244 0.57798 0.0
C3732 C 0.78834 0.27845 0.57124 0.0
C3733 C 0.79821 0.27995 0.57221 0.0
C3734 C 0.80193 0.28521 0.5798 0.0
H3735 H 0.79255 0.31723 0.59092 0.0
H3736 H 0.793 0.30775 0.58244 0.0
H3737 H 0.78384 0.30782 0.59126 0.0
H3738 H 0.78122 0.29043 0.59078 0.0
H3739 H 0.77469 0.28126 0.5776 0.0
H3740 H 0.22433 0.31616 0.63752 0.0
H3741 H 0.2301 0.30788 0.62361 0.0
H3742 H 0.20274 0.29421 0.62005 0.0
H3743 H 0.19694 0.30224 0.63416 0.0
H3744 H 0.22962 0.28683 0.62082 0.0
H3745 H 0.20944 0.30726 0.59364 0.0
H3746 H 0.21186 0.31183 0.60536 0.0
H3747 H 0.20303 0.30269 0.60374 0.0
C3748 C 0.21954 0.31131 0.63387 0.0
C3749 C 0.21015 0.30987 0.63701 0.0
C3750 C 0.22285 0.30664 0.62587 0.0
C3751 C 0.21682 0.30051 0.62077 0.0
C3752 C 0.20746 0.29902 0.62383 0.0
H3753 H 0.22771 0.27022 0.56798 0.0
H3754 H 0.22006 0.27705 0.58183 0.0
C3755 C 0.20415 0.30365 0.63188 0.0
C3756 C 0.22045 0.29556 0.61233 0.0
H3757 H 0.21928 0.29518 0.58813 0.0
C3758 C 0.22735 0.28862 0.61367 0.0
C3759 C 0.21739 0.29786 0.60304 0.0
C3760 C 0.21006 0.30535 0.60127 0.0
C3761 C 0.23132 0.28394 0.60593 0.0
C3762 C 0.22853 0.28648 0.59659 0.0
C3763 C 0.22145 0.29327 0.59528 0.0
C3764 C 0.23312 0.28241 0.58811 0.0
C3765 C 0.23839 0.27624 0.60788 0.0
C3766 C 0.24298 0.28331 0.58692 0.0
C3767 C 0.24738 0.27932 0.5791 0.0
C3768 C 0.24202 0.27445 0.57216 0.0
C3769 C 0.23209 0.27379 0.57323 0.0
C3770 C 0.22769 0.27774 0.58112 0.0
H3771 H 0.23742 0.27309 0.61506 0.0
H3772 H 0.23777 0.2705 0.60256 0.0
H3773 H 0.24569 0.2793 0.60755 0.0
H3774 H 0.2473 0.28708 0.59208 0.0
H3775 H 0.25504 0.27988 0.57863 0.0
H3776 H 0.21287 0.32287 0.3934 0.0
H3777 H 0.21893 0.31419 0.40717 0.0
H3778 H 0.21004 0.28783 0.39441 0.0
H3779 H 0.20427 0.29643 0.38045 0.0
H3780 H 0.20954 0.30222 0.41974 0.0
H3781 H 0.23789 0.28321 0.40094 0.0
H3782 H 0.23178 0.29312 0.39572 0.0
H3783 H 0.22626 0.28155 0.39584 0.0
C3784 C 0.21231 0.31522 0.39345 0.0
C3785 C 0.20815 0.31035 0.38576 0.0
C3786 C 0.21571 0.31027 0.40137 0.0
C3787 C 0.21507 0.30035 0.40176 0.0
C3788 C 0.21077 0.29547 0.39419 0.0
H3789 H 0.22163 0.26407 0.4514 0.0
H3790 H 0.21553 0.2736 0.43822 0.0
C3791 C 0.20737 0.30041 0.38625 0.0
C3792 C 0.21884 0.29515 0.41013 0.0
H3793 H 0.23489 0.27847 0.41685 0.0
C3794 C 0.2151 0.29704 0.41912 0.0
C3795 C 0.22619 0.2885 0.40933 0.0
C3796 C 0.23084 0.28652 0.39996 0.0
C3797 C 0.2184 0.29235 0.4273 0.0
C3798 C 0.22553 0.28547 0.42644 0.0
C3799 C 0.22938 0.28369 0.41748 0.0
C3800 C 0.22914 0.28003 0.43474 0.0
C3801 C 0.21433 0.2949 0.43679 0.0
C3802 C 0.23883 0.28037 0.43711 0.0
C3803 C 0.24237 0.27485 0.44457 0.0
C3804 C 0.23627 0.26881 0.4498 0.0
C3805 C 0.22653 0.26859 0.44749 0.0
C3806 C 0.22301 0.27411 0.44001 0.0
H3807 H 0.21097 0.30196 0.43658 0.0
H3808 H 0.20879 0.28958 0.43877 0.0
H3809 H 0.2199 0.29492 0.4424 0.0
H3810 H 0.2437 0.28484 0.43309 0.0
H3811 H 0.24992 0.27508 0.44605 0.0
H3812 H 0.19442 0.69514 0.39494 0.0
H3813 H 0.2023 0.7016 0.40908 0.0
H3814 H 0.20747 0.72798 0.39426 0.0
H3815 H 0.19964 0.72159 0.38012 0.0
H3816 H 0.22062 0.70879 0.41191 0.0
H3817 H 0.19392 0.7364 0.4182 0.0
H3818 H 0.19183 0.72671 0.41014 0.0
H3819 H 0.19881 0.73686 0.40648 0.0
C3820 C 0.19731 0.70229 0.39466 0.0
C3821 C 0.19632 0.70788 0.38642 0.0
C3822 C 0.20177 0.70598 0.40277 0.0
C3823 C 0.20531 0.71534 0.40279 0.0
C3824 C 0.20458 0.72083 0.39449 0.0
H3825 H 0.24546 0.74297 0.44032 0.0
H3826 H 0.23742 0.73424 0.42764 0.0
C3827 C 0.2001 0.71716 0.3864 0.0
C3828 C 0.20979 0.71937 0.41147 0.0
H3829 H 0.20836 0.73767 0.42705 0.0
C3830 C 0.2179 0.71507 0.41527 0.0
C3831 C 0.20615 0.72747 0.41594 0.0
C3832 C 0.19714 0.73208 0.41255 0.0
C3833 C 0.22266 0.71883 0.42323 0.0
C3834 C 0.21928 0.72719 0.42741 0.0
C3835 C 0.21099 0.73131 0.42379 0.0
C3836 C 0.22436 0.73195 0.43538 0.0
C3837 C 0.23121 0.71376 0.42712 0.0
C3838 C 0.21966 0.73371 0.44393 0.0
C3839 C 0.22425 0.73872 0.45121 0.0
C3840 C 0.23362 0.74213 0.45007 0.0
C3841 C 0.23832 0.74028 0.44153 0.0
C3842 C 0.23373 0.73528 0.43425 0.0
H3843 H 0.23115 0.70619 0.42503 0.0
H3844 H 0.23775 0.71715 0.42422 0.0
H3845 H 0.23154 0.71417 0.43498 0.0
H3846 H 0.21241 0.73124 0.44494 0.0
H3847 H 0.22044 0.73997 0.45772 0.0
H3848 H 0.83927 0.7113 0.39423 0.0
H3849 H 0.83101 0.71684 0.40829 0.0
H3850 H 0.80433 0.70698 0.39653 0.0
H3851 H 0.8125 0.70151 0.38238 0.0
H3852 H 0.81645 0.73023 0.40895 0.0
H3853 H 0.80434 0.69543 0.42339 0.0
H3854 H 0.8135 0.69656 0.41453 0.0
H3855 H 0.80121 0.6975 0.41118 0.0
C3856 C 0.83163 0.71033 0.3946 0.0
C3857 C 0.82656 0.70595 0.38715 0.0
C3858 C 0.82693 0.71346 0.40267 0.0
C3859 C 0.81707 0.71221 0.40352 0.0
C3860 C 0.81197 0.70783 0.39612 0.0
H3861 H 0.7746 0.72843 0.44408 0.0
H3862 H 0.78357 0.72179 0.43101 0.0
C3863 C 0.81666 0.7047 0.38804 0.0
C3864 C 0.81209 0.71585 0.41196 0.0
H3865 H 0.79815 0.70911 0.43065 0.0
C3866 C 0.8125 0.72561 0.41374 0.0
C3867 C 0.80691 0.70981 0.41817 0.0
C3868 C 0.80651 0.69923 0.4168 0.0
C3869 C 0.80769 0.72953 0.42143 0.0
C3870 C 0.8025 0.7235 0.42765 0.0
C3871 C 0.80214 0.71372 0.42589 0.0
C3872 C 0.7972 0.72722 0.43587 0.0
C3873 C 0.80798 0.74014 0.42265 0.0
C3874 C 0.8019 0.73231 0.44308 0.0
C3875 C 0.79678 0.73612 0.45057 0.0
C3876 C 0.78687 0.73482 0.45107 0.0
C3877 C 0.78223 0.72948 0.44399 0.0
C3878 C 0.78735 0.72571 0.43648 0.0
H3879 H 0.81008 0.74387 0.416 0.0
H3880 H 0.80096 0.74278 0.42489 0.0
H3881 H 0.81328 0.74201 0.42821 0.0
H3882 H 0.80953 0.73336 0.44289 0.0
H3883 H 0.80058 0.74009 0.45598 0.0
H3884 H 0.80751 0.32234 0.38318 0.0
H3885 H 0.80121 0.31398 0.39708 0.0
H3886 H 0.82948 0.30544 0.40486 0.0
H3887 H 0.8359 0.31406 0.39114 0.0
H3888 H 0.80223 0.29495 0.40164 0.0
H3889 H 0.81983 0.31673 0.42948 0.0
H3890 H 0.81918 0.32049 0.41722 0.0
H3891 H 0.82781 0.31196 0.42094 0.0
C3892 C 0.81242 0.3188 0.38791 0.0
C3893 C 0.82223 0.31894 0.38607 0.0
C3894 C 0.80879 0.31397 0.39582 0.0
C3895 C 0.81488 0.30921 0.4021 0.0
C3896 C 0.82466 0.30922 0.40022 0.0
H3897 H 0.80598 0.27377 0.45198 0.0
H3898 H 0.81257 0.2832 0.43888 0.0
C3899 C 0.82831 0.31406 0.39231 0.0
C3900 C 0.81093 0.30403 0.41044 0.0
H3901 H 0.81171 0.30278 0.43466 0.0
C3902 C 0.80427 0.29669 0.40886 0.0
C3903 C 0.81361 0.3063 0.41986 0.0
C3904 C 0.82043 0.31435 0.42202 0.0
C3905 C 0.80033 0.29147 0.41643 0.0
C3906 C 0.80299 0.29375 0.42585 0.0
C3907 C 0.80967 0.30106 0.42743 0.0
C3908 C 0.79901 0.2885 0.43413 0.0
C3909 C 0.79351 0.28341 0.41427 0.0
C3910 C 0.78923 0.28856 0.43598 0.0
C3911 C 0.78543 0.28315 0.44344 0.0
C3912 C 0.79135 0.27759 0.44923 0.0
C3913 C 0.8012 0.27785 0.44757 0.0
C3914 C 0.80499 0.28328 0.44012 0.0
H3915 H 0.79402 0.2811 0.40677 0.0
H3916 H 0.79486 0.27723 0.41897 0.0
H3917 H 0.78614 0.28574 0.41548 0.0
H3918 H 0.7845 0.29268 0.43155 0.0
H3919 H 0.77782 0.28307 0.44446 0.0
H3920 H 0.12545 0.68974 0.69821 0.0
H3921 H 0.11158 0.6955 0.70668 0.0
H3922 H 0.12453 0.72332 0.70814 0.0
H3923 H 0.13839 0.71764 0.69971 0.0
H3924 H 0.11015 0.70354 0.72446 0.0
H3925 H 0.09861 0.7289 0.69667 0.0
H3926 H 0.10725 0.71989 0.69448 0.0
H3927 H 0.11074 0.7307 0.7003 0.0
C3928 C 0.12537 0.69707 0.70038 0.0
C3929 C 0.13301 0.70325 0.6982 0.0
C3930 C 0.11742 0.70036 0.70519 0.0
C3931 C 0.11693 0.70989 0.70788 0.0
C3932 C 0.12463 0.71601 0.70591 0.0
H3933 H 0.08015 0.74527 0.73993 0.0
H3934 H 0.09257 0.7382 0.73046 0.0
C3935 C 0.13256 0.71274 0.70109 0.0
C3936 C 0.10846 0.71342 0.71289 0.0
H3937 H 0.09135 0.73029 0.71182 0.0
C3938 C 0.10597 0.70932 0.72165 0.0
C3939 C 0.10299 0.72095 0.70921 0.0
C3940 C 0.10496 0.72531 0.6996 0.0
C3941 C 0.09839 0.71277 0.72699 0.0
C3942 C 0.09308 0.72044 0.7234 0.0
C3943 C 0.09545 0.72442 0.71457 0.0
C3944 C 0.0853 0.7247 0.72889 0.0
C3945 C 0.09632 0.70839 0.73656 0.0
C3946 C 0.07699 0.71951 0.73102 0.0
C3947 C 0.06979 0.72357 0.73637 0.0
C3948 C 0.07075 0.73292 0.73967 0.0
C3949 C 0.07905 0.73812 0.73738 0.0
C3950 C 0.08621 0.73407 0.73202 0.0
H3951 H 0.10219 0.70386 0.73911 0.0
H3952 H 0.09508 0.71397 0.74191 0.0
H3953 H 0.08978 0.70393 0.73606 0.0
H3954 H 0.07606 0.71232 0.72853 0.0
H3955 H 0.06345 0.71939 0.73788 0.0
H3956 H 0.82381 0.6372 0.7272 0.0
H3957 H 0.81574 0.62281 0.73287 0.0
H3958 H 0.80898 0.61511 0.70404 0.0
H3959 H 0.81733 0.62933 0.69828 0.0
H3960 H 0.79698 0.61726 0.73044 0.0
H3961 H 0.82093 0.59104 0.7145 0.0
H3962 H 0.82408 0.60344 0.71543 0.0
H3963 H 0.81618 0.59943 0.70618 0.0
C3964 C 0.82072 0.63239 0.72204 0.0
C3965 C 0.82129 0.6344 0.71227 0.0
C3966 C 0.81606 0.62419 0.72531 0.0
C3967 C 0.81189 0.6178 0.71888 0.0
C3968 C 0.81231 0.61984 0.70913 0.0
H3969 H 0.77807 0.56617 0.72507 0.0
H3970 H 0.78717 0.57991 0.71919 0.0
C3971 C 0.81698 0.62804 0.70585 0.0
C3972 C 0.80689 0.60915 0.72243 0.0
H3973 H 0.80676 0.58498 0.72148 0.0
C3974 C 0.79915 0.6102 0.72852 0.0
C3975 C 0.80972 0.59994 0.7199 0.0
C3976 C 0.81823 0.59835 0.71371 0.0
C3977 C 0.79406 0.60231 0.73204 0.0
C3978 C 0.79689 0.5931 0.72951 0.0
C3979 C 0.80461 0.59204 0.72341 0.0
C3980 C 0.79183 0.5845 0.73308 0.0
C3981 C 0.78557 0.60389 0.73827 0.0
C3982 C 0.79163 0.5824 0.74283 0.0
C3983 C 0.78642 0.57458 0.74622 0.0
C3984 C 0.78132 0.56869 0.73992 0.0
C3985 C 0.78181 0.57064 0.73012 0.0
C3986 C 0.78704 0.57845 0.72674 0.0
H3987 H 0.78299 0.61126 0.73769 0.0
H3988 H 0.77965 0.59894 0.73641 0.0
H3989 H 0.78759 0.60256 0.74578 0.0
H3990 H 0.7954 0.5869 0.74783 0.0
H3991 H 0.78614 0.57333 0.7538 0.0
H3992 H 0.89618 0.30994 0.6904 0.0
H3993 H 0.90972 0.30334 0.69901 0.0
H3994 H 0.89391 0.30407 0.72506 0.0
H3995 H 0.88023 0.31044 0.71646 0.0
H3996 H 0.92021 0.31064 0.71464 0.0
H3997 H 0.90231 0.27637 0.72347 0.0
H3998 H 0.89772 0.28442 0.71462 0.0
H3999 H 0.89603 0.28672 0.727 0.0
C4000 C 0.89554 0.30864 0.69795 0.0
C4001 C 0.88707 0.31064 0.70272 0.0
C4002 C 0.90332 0.30493 0.70287 0.0
C4003 C 0.90278 0.30309 0.71265 0.0
C4004 C 0.89443 0.3053 0.71748 0.0
H4005 H 0.94112 0.27632 0.75293 0.0
H4006 H 0.92817 0.28487 0.74532 0.0
C4007 C 0.88665 0.30903 0.71257 0.0
C4008 C 0.91093 0.29877 0.71773 0.0
H4009 H 0.91759 0.27903 0.73006 0.0
C4010 C 0.91965 0.30372 0.71801 0.0
C4011 C 0.91018 0.28975 0.72212 0.0
C4012 C 0.90109 0.28394 0.72175 0.0
C4013 C 0.92762 0.29995 0.72266 0.0
C4014 C 0.92689 0.29089 0.72699 0.0
C4015 C 0.91814 0.28597 0.72675 0.0
C4016 C 0.9351 0.28631 0.73174 0.0
C4017 C 0.93669 0.30577 0.72305 0.0
C4018 C 0.94335 0.28428 0.72664 0.0
C4019 C 0.95084 0.27946 0.73101 0.0
C4020 C 0.9502 0.2765 0.74054 0.0
C4021 C 0.94195 0.27863 0.74564 0.0
C4022 C 0.93449 0.28346 0.74127 0.0
H4023 H 0.93535 0.31341 0.72183 0.0
H4024 H 0.94035 0.3049 0.73 0.0
H4025 H 0.94154 0.30337 0.71741 0.0
H4026 H 0.94392 0.28623 0.71923 0.0
H4027 H 0.95709 0.27799 0.72688 0.0
H4028 H 0.20436 0.38335 0.69303 0.0
H4029 H 0.21269 0.39781 0.69821 0.0
H4030 H 0.21339 0.38701 0.72689 0.0
H4031 H 0.20533 0.37249 0.72175 0.0
H4032 H 0.20664 0.41082 0.71168 0.0
H4033 H 0.24095 0.39534 0.72256 0.0
H4034 H 0.23242 0.38909 0.71519 0.0
H4035 H 0.23089 0.38944 0.72784 0.0
C4036 C 0.20643 0.38399 0.70041 0.0
C4037 C 0.20418 0.37675 0.70697 0.0
C4038 C 0.21114 0.39228 0.70337 0.0
C4039 C 0.21378 0.39344 0.71292 0.0
C4040 C 0.21158 0.38621 0.71946 0.0
H4041 H 0.23608 0.4351 0.75083 0.0
H4042 H 0.22955 0.42134 0.74257 0.0
C4043 C 0.20687 0.37795 0.71653 0.0
C4044 C 0.21844 0.40236 0.71618 0.0
H4045 H 0.23786 0.41092 0.72818 0.0
C4046 C 0.21352 0.41088 0.71517 0.0
C4047 C 0.22744 0.40242 0.72071 0.0
C4048 C 0.23328 0.3936 0.72157 0.0
C4049 C 0.21715 0.41938 0.71899 0.0
C4050 C 0.22601 0.41937 0.7238 0.0
C4051 C 0.23106 0.41091 0.72453 0.0
C4052 C 0.22989 0.42791 0.72866 0.0
C4053 C 0.2113 0.4282 0.71821 0.0
C4054 C 0.23232 0.43618 0.72358 0.0
C4055 C 0.23599 0.44415 0.72832 0.0
C4056 C 0.23731 0.44396 0.73823 0.0
C4057 C 0.23496 0.43559 0.74324 0.0
C4058 C 0.23131 0.42767 0.73851 0.0
H4059 H 0.20385 0.42659 0.71605 0.0
H4060 H 0.21124 0.43201 0.72507 0.0
H4061 H 0.21447 0.43302 0.7128 0.0
H4062 H 0.23144 0.43647 0.71595 0.0
H4063 H 0.23772 0.45046 0.72424 0.0
H4064 H 0.14112 0.30664 0.30661 0.0
H4065 H 0.12713 0.30079 0.29792 0.0
H4066 H 0.11498 0.29043 0.32408 0.0
H4067 H 0.12875 0.29654 0.33285 0.0
H4068 H 0.12052 0.28236 0.29672 0.0
H4069 H 0.09303 0.30494 0.31242 0.0
H4070 H 0.10558 0.3075 0.31366 0.0
H4071 H 0.09994 0.29873 0.32114 0.0
C4072 C 0.13539 0.30326 0.31054 0.0
C4073 C 0.13606 0.30208 0.32044 0.0
C4074 C 0.12743 0.29987 0.30555 0.0
C4075 C 0.11994 0.2953 0.31036 0.0
C4076 C 0.12057 0.29411 0.32023 0.0
H4077 H 0.06944 0.26315 0.29614 0.0
H4078 H 0.08257 0.27183 0.30375 0.0
C4079 C 0.12852 0.29749 0.32523 0.0
C4080 C 0.11167 0.29135 0.30502 0.0
H4081 H 0.08744 0.29157 0.30358 0.0
C4082 C 0.11329 0.28445 0.29814 0.0
C4083 C 0.10225 0.29408 0.30689 0.0
C4084 C 0.10008 0.30178 0.31386 0.0
C4085 C 0.10573 0.27997 0.2933 0.0
C4086 C 0.0963 0.28257 0.29531 0.0
C4087 C 0.09468 0.28958 0.30208 0.0
C4088 C 0.08803 0.27784 0.29068 0.0
C4089 C 0.10788 0.27226 0.28632 0.0
C4090 C 0.08661 0.27854 0.28084 0.0
C4091 C 0.07913 0.27355 0.27646 0.0
C4092 C 0.07292 0.2678 0.28186 0.0
C4093 C 0.07417 0.2674 0.29176 0.0
C4094 C 0.08164 0.2724 0.29613 0.0
H4095 H 0.11526 0.26971 0.28711 0.0
H4096 H 0.10289 0.26615 0.28722 0.0
H4097 H 0.10701 0.27506 0.279 0.0
H4098 H 0.09138 0.28281 0.27652 0.0
H4099 H 0.07841 0.27396 0.26882 0.0
H4100 H 0.18798 0.6248 0.32733 0.0
H4101 H 0.1932 0.61024 0.31978 0.0
H4102 H 0.21988 0.62385 0.31268 0.0
H4103 H 0.21473 0.63839 0.32023 0.0
H4104 H 0.1983 0.60683 0.30155 0.0
H4105 H 0.22864 0.59975 0.32561 0.0
H4106 H 0.2197 0.60832 0.32829 0.0
H4107 H 0.22925 0.61135 0.32035 0.0
C4108 C 0.19494 0.6247 0.32413 0.0
C4109 C 0.20097 0.63275 0.32445 0.0
C4110 C 0.19794 0.61636 0.31985 0.0
C4111 C 0.20701 0.61587 0.31584 0.0
C4112 C 0.21295 0.62395 0.31598 0.0
H4113 H 0.22761 0.57774 0.2737 0.0
H4114 H 0.22098 0.59069 0.28271 0.0
C4115 C 0.20999 0.63228 0.32027 0.0
C4116 C 0.21017 0.60702 0.31126 0.0
H4117 H 0.22803 0.59093 0.31121 0.0
C4118 C 0.20476 0.60331 0.30371 0.0
C4119 C 0.21851 0.60232 0.31418 0.0
C4120 C 0.22431 0.60558 0.32262 0.0
C4121 C 0.20763 0.59524 0.2988 0.0
C4122 C 0.21625 0.59085 0.30139 0.0
C4123 C 0.22148 0.59436 0.30915 0.0
C4124 C 0.22012 0.58284 0.29593 0.0
C4125 C 0.20137 0.59147 0.29092 0.0
C4126 C 0.2221 0.57416 0.3004 0.0
C4127 C 0.22593 0.5667 0.29525 0.0
C4128 C 0.22788 0.5678 0.28552 0.0
C4129 C 0.22598 0.57655 0.28111 0.0
C4130 C 0.22218 0.58398 0.28626 0.0
H4131 H 0.1939 0.59369 0.29175 0.0
H4132 H 0.20396 0.59432 0.28403 0.0
H4133 H 0.20152 0.58362 0.29066 0.0
H4134 H 0.22063 0.57314 0.30788 0.0
H4135 H 0.22729 0.56006 0.29886 0.0
H4136 H 0.88382 0.71528 0.31609 0.0
H4137 H 0.89739 0.72407 0.30944 0.0
H4138 H 0.90999 0.69784 0.30108 0.0
H4139 H 0.89665 0.68899 0.30799 0.0
H4140 H 0.92301 0.71049 0.30926 0.0
H4141 H 0.90172 0.7279 0.28096 0.0
H4142 H 0.89757 0.72972 0.29281 0.0
H4143 H 0.8972 0.71803 0.28787 0.0
C4144 C 0.88953 0.71137 0.31294 0.0
C4145 C 0.88909 0.70142 0.3125 0.0
C4146 C 0.89723 0.71642 0.30905 0.0
C4147 C 0.90462 0.71162 0.30462 0.0
C4148 C 0.90433 0.70169 0.30441 0.0
H4149 H 0.94552 0.73221 0.26396 0.0
H4150 H 0.93285 0.72414 0.27273 0.0
C4151 C 0.89665 0.69665 0.30829 0.0
C4152 C 0.91261 0.71689 0.30008 0.0
H4153 H 0.91792 0.73237 0.28208 0.0
C4154 C 0.9219 0.7153 0.30334 0.0
C4155 C 0.91116 0.72308 0.29228 0.0
C4156 C 0.90139 0.72475 0.2882 0.0
C4157 C 0.92978 0.71972 0.299 0.0
C4158 C 0.92831 0.726 0.29127 0.0
C4159 C 0.91902 0.72761 0.28804 0.0
C4160 C 0.93632 0.73067 0.28616 0.0
C4161 C 0.93962 0.71742 0.30253 0.0
C4162 C 0.94252 0.73703 0.2908 0.0
C4163 C 0.94986 0.74161 0.28582 0.0
C4164 C 0.95112 0.73994 0.27608 0.0
C4165 C 0.9449 0.73354 0.27148 0.0
C4166 C 0.93758 0.72897 0.27647 0.0
H4167 H 0.93964 0.71088 0.30695 0.0
H4168 H 0.94457 0.71652 0.29652 0.0
H4169 H 0.94236 0.72335 0.30695 0.0
H4170 H 0.94159 0.73857 0.29825 0.0
H4171 H 0.95454 0.74646 0.28959 0.0
H4172 H 0.84539 0.39379 0.31599 0.0
H4173 H 0.83737 0.4079 0.31003 0.0
H4174 H 0.81133 0.3917 0.3069 0.0
H4175 H 0.81929 0.37757 0.31288 0.0
H4176 H 0.82892 0.41093 0.29285 0.0
H4177 H 0.80249 0.41457 0.32145 0.0
H4178 H 0.81259 0.40693 0.32256 0.0
H4179 H 0.80218 0.40309 0.31609 0.0
C4180 C 0.83795 0.39323 0.31403 0.0
C4181 C 0.83297 0.38455 0.31494 0.0
C4182 C 0.83337 0.40131 0.31066 0.0
C4183 C 0.8237 0.40091 0.30815 0.0
C4184 C 0.81872 0.39225 0.30902 0.0
H4185 H 0.79261 0.43853 0.27117 0.0
H4186 H 0.8019 0.42585 0.27829 0.0
C4187 C 0.82329 0.38417 0.31243 0.0
C4188 C 0.81894 0.40945 0.30429 0.0
H4189 H 0.79999 0.42385 0.30746 0.0
C4190 C 0.82263 0.41379 0.29608 0.0
C4191 C 0.81082 0.41328 0.30858 0.0
C4192 C 0.80683 0.40929 0.31771 0.0
C4193 C 0.81828 0.42169 0.2919 0.0
C4194 C 0.8099 0.42525 0.29595 0.0
C4195 C 0.80636 0.42107 0.30431 0.0
C4196 C 0.80457 0.43315 0.29151 0.0
C4197 C 0.82274 0.4262 0.28325 0.0
C4198 C 0.80282 0.44143 0.29661 0.0
C4199 C 0.79749 0.44872 0.29255 0.0
C4200 C 0.79375 0.44785 0.2833 0.0
C4201 C 0.79555 0.43954 0.27821 0.0
C4202 C 0.80086 0.43227 0.28228 0.0
H4203 H 0.8304 0.42452 0.28275 0.0
H4204 H 0.81914 0.42343 0.2768 0.0
H4205 H 0.82201 0.43402 0.2833 0.0
H4206 H 0.80559 0.44225 0.30375 0.0
H4207 H 0.79629 0.45503 0.29665 0.0
H4208 H 0.18446 0.62295 0.70831 0.0
H4209 H 0.19318 0.60922 0.71412 0.0
H4210 H 0.21946 0.62219 0.70479 0.0
H4211 H 0.21084 0.6361 0.69926 0.0
H4212 H 0.20466 0.59673 0.70463 0.0
H4213 H 0.22508 0.61582 0.73255 0.0
H4214 H 0.21497 0.6209 0.72658 0.0
H4215 H 0.22635 0.62088 0.7209 0.0
C4216 C 0.19211 0.62294 0.70758 0.0
C4217 C 0.19695 0.63069 0.70339 0.0
C4218 C 0.19708 0.61504 0.71084 0.0
C4219 C 0.20699 0.61473 0.71003 0.0
C4220 C 0.21183 0.62234 0.70566 0.0
H4221 H 0.24288 0.56549 0.71641 0.0
H4222 H 0.23327 0.5785 0.71034 0.0
C4223 C 0.20687 0.63025 0.70239 0.0
C4224 C 0.21224 0.60644 0.71375 0.0
H4225 H 0.22948 0.59998 0.72959 0.0
C4226 C 0.21007 0.59743 0.7101 0.0
C4227 C 0.2192 0.60734 0.72099 0.0
C4228 C 0.22149 0.61673 0.72556 0.0
C4229 C 0.21479 0.58932 0.71338 0.0
C4230 C 0.22196 0.59028 0.7204 0.0
C4231 C 0.22402 0.59926 0.72416 0.0
C4232 C 0.22744 0.58206 0.72399 0.0
C4233 C 0.21192 0.5798 0.70941 0.0
C4234 C 0.22746 0.57979 0.7337 0.0
C4235 C 0.23303 0.57243 0.73721 0.0
C4236 C 0.23876 0.56719 0.73109 0.0
C4237 C 0.23861 0.56941 0.72134 0.0
C4238 C 0.23304 0.57678 0.71783 0.0
H4239 H 0.20471 0.57993 0.70617 0.0
H4240 H 0.21701 0.57785 0.70381 0.0
H4241 H 0.21204 0.57423 0.71501 0.0
H4242 H 0.22324 0.58381 0.73859 0.0
H4243 H 0.23308 0.57104 0.74478 0.0
H4244 H 0.18488 0.3852 0.31364 0.0
H4245 H 0.19288 0.39968 0.308 0.0
H4246 H 0.22001 0.38628 0.31121 0.0
H4247 H 0.21207 0.3717 0.31661 0.0
H4248 H 0.20685 0.41105 0.31716 0.0
H4249 H 0.22027 0.39603 0.28365 0.0
H4250 H 0.2111 0.39025 0.29059 0.0
H4251 H 0.22335 0.38939 0.29411 0.0
C4252 C 0.19254 0.3853 0.31306 0.0
C4253 C 0.19783 0.37726 0.31551 0.0
C4254 C 0.1971 0.3936 0.3099 0.0
C4255 C 0.20702 0.39401 0.30905 0.0
C4256 C 0.21233 0.38607 0.31166 0.0
H4257 H 0.24917 0.43511 0.29108 0.0
H4258 H 0.24022 0.42141 0.29704 0.0
C4259 C 0.20779 0.37777 0.31484 0.0
C4260 C 0.21182 0.40276 0.3055 0.0
H4261 H 0.2261 0.4113 0.28782 0.0
C4262 C 0.21102 0.41114 0.31071 0.0
C4263 C 0.21722 0.40285 0.29708 0.0
C4264 C 0.21799 0.39418 0.29097 0.0
C4265 C 0.21571 0.41954 0.30788 0.0
C4266 C 0.22121 0.4196 0.29951 0.0
C4267 C 0.2219 0.41125 0.29424 0.0
C4268 C 0.22655 0.42815 0.29621 0.0
C4269 C 0.21499 0.4282 0.31401 0.0
C4270 C 0.22184 0.43651 0.29373 0.0
C4271 C 0.22697 0.44443 0.2904 0.0
C4272 C 0.23691 0.44412 0.28945 0.0
C4273 C 0.24156 0.4357 0.29191 0.0
C4274 C 0.23644 0.42781 0.29524 0.0
H4275 H 0.21249 0.42637 0.32127 0.0
H4276 H 0.22196 0.43196 0.31458 0.0
H4277 H 0.20983 0.43313 0.31076 0.0
H4278 H 0.21419 0.43687 0.29425 0.0
H4279 H 0.22316 0.4508 0.2886 0.0
H4280 H 0.13682 0.71389 0.32105 0.0
H4281 H 0.1234 0.72323 0.31545 0.0
H4282 H 0.11025 0.69808 0.30377 0.0
H4283 H 0.12343 0.68863 0.30968 0.0
H4284 H 0.11733 0.72604 0.29737 0.0
H4285 H 0.08845 0.70919 0.31834 0.0
H4286 H 0.10085 0.70735 0.32097 0.0
H4287 H 0.09504 0.70083 0.31161 0.0
C4288 C 0.131 0.7103 0.31745 0.0
C4289 C 0.13122 0.70048 0.31585 0.0
C4290 C 0.12336 0.71567 0.31419 0.0
C4291 C 0.11574 0.71134 0.30931 0.0
C4292 C 0.11594 0.70156 0.30769 0.0
H4293 H 0.07644 0.73874 0.2709 0.0
H4294 H 0.08887 0.72941 0.27841 0.0
C4295 C 0.12356 0.69618 0.31096 0.0
C4296 C 0.10782 0.71713 0.30552 0.0
H4297 H 0.08367 0.71921 0.30549 0.0
C4298 C 0.10997 0.72458 0.2992 0.0
C4299 C 0.09823 0.71532 0.308 0.0
C4300 C 0.09549 0.7078 0.31517 0.0
C4301 C 0.1028 0.73011 0.29512 0.0
C4302 C 0.09318 0.72801 0.29725 0.0
C4303 C 0.09104 0.72073 0.30377 0.0
C4304 C 0.08526 0.73328 0.29274 0.0
C4305 C 0.10562 0.73823 0.28864 0.0
C4306 C 0.07883 0.73826 0.29831 0.0
C4307 C 0.07158 0.74349 0.29404 0.0
C4308 C 0.07058 0.74381 0.28409 0.0
C4309 C 0.0769 0.73859 0.27857 0.0
C4310 C 0.08412 0.73335 0.28285 0.0
H4311 H 0.11309 0.74057 0.28991 0.0
H4312 H 0.105 0.7359 0.28116 0.0
H4313 H 0.10092 0.74437 0.28961 0.0
H4314 H 0.07952 0.73823 0.30597 0.0
H4315 H 0.06677 0.7473 0.29852 0.0
H4316 H 0.81802 0.641 0.30876 0.0
H4317 H 0.81254 0.62693 0.30016 0.0
H4318 H 0.81725 0.60978 0.32513 0.0
H4319 H 0.82271 0.62381 0.33379 0.0
H4320 H 0.82145 0.61018 0.29615 0.0
H4321 H 0.7897 0.60345 0.31847 0.0
H4322 H 0.79648 0.61439 0.31894 0.0
H4323 H 0.80067 0.60401 0.32501 0.0
C4324 C 0.81796 0.63422 0.31241 0.0
C4325 C 0.82074 0.63355 0.32199 0.0
C4326 C 0.81479 0.62619 0.30749 0.0
C4327 C 0.81433 0.61732 0.31205 0.0
C4328 C 0.81733 0.61658 0.32154 0.0
H4329 H 0.80595 0.56316 0.28285 0.0
H4330 H 0.81263 0.5764 0.292 0.0
C4331 C 0.82045 0.62461 0.32647 0.0
C4332 C 0.81067 0.60888 0.30686 0.0
H4333 H 0.7932 0.59182 0.30707 0.0
C4334 C 0.81528 0.60615 0.29854 0.0
C4335 C 0.80255 0.60371 0.30992 0.0
C4336 C 0.797 0.60657 0.31852 0.0
C4337 C 0.812 0.59836 0.29322 0.0
C4338 C 0.80401 0.59306 0.2964 0.0
C4339 C 0.79939 0.59582 0.3047 0.0
C4340 C 0.80002 0.58492 0.29098 0.0
C4341 C 0.81698 0.59604 0.2841 0.0
C4342 C 0.79064 0.58518 0.28758 0.0
C4343 C 0.7868 0.57763 0.2824 0.0
C4344 C 0.79224 0.56959 0.28054 0.0
C4345 C 0.80161 0.56929 0.28406 0.0
C4346 C 0.80544 0.57686 0.28927 0.0
H4347 H 0.82143 0.60208 0.2815 0.0
H4348 H 0.82169 0.58993 0.28534 0.0
H4349 H 0.81177 0.59408 0.27847 0.0
H4350 H 0.78632 0.59132 0.28881 0.0
H4351 H 0.77962 0.57818 0.27968 0.0
H4352 H 0.88777 0.31154 0.30749 0.0
H4353 H 0.90116 0.30509 0.29882 0.0
H4354 H 0.91631 0.30089 0.32515 0.0
H4355 H 0.90299 0.30736 0.33388 0.0
H4356 H 0.92011 0.31118 0.29812 0.0
H4357 H 0.91719 0.27474 0.31301 0.0
H4358 H 0.90787 0.28326 0.31417 0.0
H4359 H 0.91819 0.28391 0.32173 0.0
C4360 C 0.89398 0.30931 0.31144 0.0
C4361 C 0.89427 0.30992 0.3214 0.0
C4362 C 0.90161 0.30558 0.30647 0.0
C4363 C 0.90967 0.30235 0.31135 0.0
C4364 C 0.91007 0.30312 0.32126 0.0
H4365 H 0.96187 0.27636 0.29133 0.0
H4366 H 0.94969 0.28363 0.30113 0.0
C4367 C 0.90244 0.30683 0.32624 0.0
C4368 C 0.91769 0.29828 0.30602 0.0
H4369 H 0.93041 0.2781 0.30321 0.0
C4370 C 0.92236 0.30395 0.29923 0.0
C4371 C 0.92065 0.28884 0.3075 0.0
C4372 C 0.91567 0.28229 0.31443 0.0
C4373 C 0.92991 0.30046 0.2939 0.0
C4374 C 0.93279 0.291 0.29529 0.0
C4375 C 0.92822 0.28536 0.30217 0.0
C4376 C 0.94024 0.28669 0.28938 0.0
C4377 C 0.93483 0.30698 0.28689 0.0
C4378 C 0.9389 0.28586 0.27955 0.0
C4379 C 0.9458 0.28168 0.27396 0.0
C4380 C 0.9542 0.27819 0.27806 0.0
C4381 C 0.95548 0.27893 0.28794 0.0
C4382 C 0.94854 0.28312 0.29354 0.0
H4383 H 0.93363 0.31454 0.28854 0.0
H4384 H 0.94259 0.30574 0.28679 0.0
H4385 H 0.93194 0.30561 0.27968 0.0
H4386 H 0.93245 0.28834 0.27621 0.0
H4387 H 0.94444 0.28101 0.26642 0.0
H4388 H 0.83555 0.39002 0.71433 0.0
H4389 H 0.82726 0.40388 0.72009 0.0
H4390 H 0.8008 0.39254 0.70915 0.0
H4391 H 0.80898 0.37846 0.70367 0.0
H4392 H 0.81667 0.41729 0.71034 0.0
H4393 H 0.79444 0.39793 0.73676 0.0
H4394 H 0.8045 0.39263 0.73113 0.0
H4395 H 0.7934 0.3936 0.72485 0.0
C4396 C 0.82794 0.3904 0.71324 0.0
C4397 C 0.82292 0.38305 0.70862 0.0
C4398 C 0.82323 0.39838 0.71647 0.0
C4399 C 0.81339 0.39919 0.71519 0.0
C4400 C 0.80837 0.39199 0.71038 0.0
H4401 H 0.77409 0.44187 0.73509 0.0
H4402 H 0.78127 0.42884 0.7265 0.0
C4403 C 0.81308 0.38399 0.70715 0.0
C4404 C 0.80843 0.40757 0.71893 0.0
H4405 H 0.79165 0.41426 0.73482 0.0
C4406 C 0.81119 0.41663 0.71568 0.0
C4407 C 0.80126 0.40671 0.72589 0.0
C4408 C 0.79826 0.39721 0.72994 0.0
C4409 C 0.80697 0.42483 0.7192 0.0
C4410 C 0.79992 0.42397 0.72626 0.0
C4411 C 0.79705 0.41491 0.72939 0.0
C4412 C 0.79567 0.43236 0.73078 0.0
C4413 C 0.81006 0.43435 0.71526 0.0
C4414 C 0.80138 0.43871 0.736 0.0
C4415 C 0.7973 0.44619 0.74088 0.0
C4416 C 0.78741 0.44746 0.74068 0.0
C4417 C 0.78173 0.44119 0.73528 0.0
C4418 C 0.78582 0.43369 0.73043 0.0
H4419 H 0.81341 0.43369 0.70819 0.0
H4420 H 0.80395 0.43919 0.71462 0.0
H4421 H 0.81537 0.43761 0.72014 0.0
H4422 H 0.80898 0.43773 0.73651 0.0
H4423 H 0.80189 0.45091 0.74492 0.0
H4424 H 0.13114 0.3185 0.70311 0.0
H4425 H 0.11718 0.31333 0.71219 0.0
H4426 H 0.12889 0.28545 0.71516 0.0
H4427 H 0.14294 0.2906 0.70631 0.0
H4428 H 0.10422 0.29834 0.70784 0.0
H4429 H 0.12215 0.29248 0.74251 0.0
H4430 H 0.12755 0.2993 0.73303 0.0
H4431 H 0.12758 0.28657 0.73277 0.0
C4432 C 0.1308 0.3113 0.70581 0.0
C4433 C 0.13817 0.30497 0.704 0.0
C4434 C 0.12279 0.30835 0.71094 0.0
C4435 C 0.12205 0.29904 0.71444 0.0
C4436 C 0.12938 0.2927 0.71264 0.0
H4437 H 0.08155 0.26472 0.74543 0.0
H4438 H 0.09487 0.27124 0.73638 0.0
C4439 C 0.13736 0.29564 0.7075 0.0
C4440 C 0.1135 0.29585 0.71977 0.0
H4441 H 0.10632 0.28655 0.74102 0.0
C4442 C 0.10465 0.29583 0.71512 0.0
C4443 C 0.11409 0.29258 0.72926 0.0
C4444 C 0.12334 0.2928 0.73473 0.0
C4445 C 0.09641 0.29235 0.71962 0.0
C4446 C 0.09702 0.28896 0.72908 0.0
C4447 C 0.10586 0.28912 0.73376 0.0
C4448 C 0.08865 0.28499 0.7342 0.0
C4449 C 0.08719 0.29204 0.71411 0.0
C4450 C 0.0807 0.29055 0.73599 0.0
C4451 C 0.07299 0.2868 0.74109 0.0
C4452 C 0.07311 0.27743 0.74455 0.0
C4453 C 0.08111 0.2719 0.74272 0.0
C4454 C 0.08878 0.27564 0.73762 0.0
H4455 H 0.08837 0.29266 0.70635 0.0
H4456 H 0.08317 0.28536 0.71558 0.0
H4457 H 0.08274 0.29805 0.71628 0.0
H4458 H 0.08051 0.29784 0.73357 0.0
H4459 H 0.06694 0.29125 0.74234 0.0
H4460 H 0.886 0.72233 0.69531 0.0
H4461 H 0.9001 0.72892 0.7032 0.0
H4462 H 0.90116 0.70448 0.72164 0.0
H4463 H 0.88687 0.69792 0.71398 0.0
H4464 H 0.90208 0.73242 0.72388 0.0
H4465 H 0.92848 0.70741 0.70961 0.0
H4466 H 0.91711 0.7093 0.70394 0.0
H4467 H 0.9178 0.70239 0.71464 0.0
C4468 C 0.88915 0.71838 0.70111 0.0
C4469 C 0.88525 0.70959 0.70401 0.0
C4470 C 0.89725 0.72213 0.70556 0.0
C4471 C 0.90171 0.71715 0.71293 0.0
C4472 C 0.8979 0.70837 0.71586 0.0
H4473 H 0.95276 0.73047 0.74612 0.0
H4474 H 0.93892 0.72259 0.7389 0.0
C4475 C 0.88974 0.70462 0.71145 0.0
C4476 C 0.91019 0.72129 0.7177 0.0
H4477 H 0.93416 0.71892 0.72037 0.0
C4478 C 0.9091 0.72948 0.72312 0.0
C4479 C 0.9193 0.71737 0.71676 0.0
C4480 C 0.92083 0.70866 0.71089 0.0
C4481 C 0.91689 0.73386 0.72766 0.0
C4482 C 0.92607 0.73011 0.72651 0.0
C4483 C 0.92713 0.72182 0.7212 0.0
C4484 C 0.93466 0.73478 0.73063 0.0
C4485 C 0.91518 0.74238 0.73376 0.0
C4486 C 0.93701 0.74418 0.72821 0.0
C4487 C 0.94483 0.74874 0.7324 0.0
C4488 C 0.95059 0.74397 0.73902 0.0
C4489 C 0.94841 0.73442 0.74117 0.0
C4490 C 0.94053 0.72988 0.73701 0.0
H4491 H 0.9077 0.74258 0.7362 0.0
H4492 H 0.91993 0.74244 0.74008 0.0
H4493 H 0.9166 0.74892 0.72956 0.0
H4494 H 0.93271 0.74804 0.72314 0.0
H4495 H 0.9462 0.75611 0.73062 0.0
H4496 H 0.70109 0.1936 0.62766 0.0
H4497 H 0.70734 0.20107 0.61321 0.0
H4498 H 0.73094 0.21269 0.62919 0.0
H4499 H 0.72478 0.20519 0.64364 0.0
H4500 H 0.71117 0.21957 0.60837 0.0
H4501 H 0.74427 0.1989 0.60812 0.0
H4502 H 0.73442 0.1959 0.61574 0.0
H4503 H 0.74265 0.20524 0.61895 0.0
C4504 C 0.70757 0.19781 0.62811 0.0
C4505 C 0.71249 0.19873 0.63679 0.0
C4506 C 0.71115 0.20205 0.61984 0.0
C4507 C 0.71971 0.20728 0.62007 0.0
C4508 C 0.72446 0.20847 0.62878 0.0
H4509 H 0.74222 0.24638 0.5777 0.0
H4510 H 0.73387 0.23897 0.59105 0.0
C4511 C 0.72093 0.20419 0.63704 0.0
C4512 C 0.7237 0.21146 0.61121 0.0
H4513 H 0.74347 0.21187 0.59731 0.0
C4514 C 0.71821 0.21785 0.60592 0.0
C4515 C 0.73283 0.2091 0.60791 0.0
C4516 C 0.73885 0.20184 0.61292 0.0
C4517 C 0.72169 0.22211 0.59756 0.0
C4518 C 0.73098 0.22006 0.59449 0.0
C4519 C 0.73638 0.21351 0.59968 0.0
C4520 C 0.73533 0.22464 0.58599 0.0
C4521 C 0.71532 0.22866 0.59202 0.0
C4522 C 0.73902 0.21907 0.57872 0.0
C4523 C 0.74387 0.22329 0.57112 0.0
C4524 C 0.74513 0.23318 0.57062 0.0
C4525 C 0.74122 0.23876 0.57778 0.0
C4526 C 0.73643 0.23453 0.58542 0.0
H4527 H 0.70771 0.22724 0.59359 0.0
H4528 H 0.71698 0.23608 0.59402 0.0
H4529 H 0.7164 0.22795 0.58426 0.0
H4530 H 0.73828 0.21143 0.57901 0.0
H4531 H 0.74674 0.2188 0.56569 0.0
H4532 H 0.3174 0.17913 0.62584 0.0
H4533 H 0.31179 0.18716 0.61146 0.0
H4534 H 0.30345 0.21104 0.62817 0.0
H4535 H 0.30913 0.20309 0.64255 0.0
H4536 H 0.29421 0.1929 0.60673 0.0
H4537 H 0.3187 0.22397 0.60751 0.0
H4538 H 0.32044 0.21365 0.61491 0.0
H4539 H 0.31213 0.22255 0.61829 0.0
C4540 C 0.31437 0.18609 0.62645 0.0
C4541 C 0.31375 0.19049 0.63533 0.0
C4542 C 0.3112 0.19069 0.61822 0.0
C4543 C 0.30735 0.19978 0.6187 0.0
C4544 C 0.30664 0.20415 0.62757 0.0
H4545 H 0.26986 0.22708 0.57879 0.0
H4546 H 0.27715 0.21804 0.59165 0.0
C4547 C 0.30987 0.19958 0.6358 0.0
C4548 C 0.30374 0.20453 0.60998 0.0
H4549 H 0.30537 0.22499 0.59696 0.0
C4550 C 0.29671 0.19989 0.60456 0.0
C4551 C 0.30711 0.21358 0.60704 0.0
C4552 C 0.31508 0.21869 0.61218 0.0
C4553 C 0.29274 0.20416 0.59645 0.0
C4554 C 0.29575 0.21342 0.59381 0.0
C4555 C 0.30299 0.21794 0.59905 0.0
C4556 C 0.2913 0.21863 0.58578 0.0
C4557 C 0.28542 0.19868 0.59076 0.0
C4558 C 0.29686 0.22216 0.57827 0.0
C4559 C 0.29271 0.22738 0.57089 0.0
C4560 C 0.28291 0.22919 0.5709 0.0
C4561 C 0.27738 0.22563 0.57844 0.0
C4562 C 0.28154 0.22046 0.58581 0.0
H4563 H 0.28607 0.19093 0.59191 0.0
H4564 H 0.27822 0.20072 0.59304 0.0
H4565 H 0.28609 0.20023 0.58306 0.0
H4566 H 0.30442 0.22088 0.57812 0.0
H4567 H 0.29716 0.22999 0.56518 0.0
H4568 H 0.30857 0.83378 0.62863 0.0
H4569 H 0.30213 0.82566 0.61467 0.0
H4570 H 0.30632 0.7987 0.62848 0.0
H4571 H 0.31252 0.80675 0.64257 0.0
H4572 H 0.31067 0.8121 0.60303 0.0
H4573 H 0.27827 0.79747 0.62032 0.0
H4574 H 0.28545 0.8068 0.62553 0.0
H4575 H 0.28915 0.79471 0.62639 0.0
C4576 C 0.30804 0.82612 0.62874 0.0
C4577 C 0.31101 0.82093 0.63676 0.0
C4578 C 0.30441 0.82149 0.62073 0.0
C4579 C 0.30361 0.81158 0.62058 0.0
C4580 C 0.30672 0.80636 0.6285 0.0
H4581 H 0.28388 0.76898 0.58137 0.0
H4582 H 0.29037 0.77812 0.59457 0.0
C4583 C 0.31036 0.81098 0.63651 0.0
C4584 C 0.2996 0.8067 0.61213 0.0
H4585 H 0.28164 0.79183 0.60492 0.0
C4586 C 0.30429 0.80771 0.60341 0.0
C4587 C 0.29126 0.801 0.61264 0.0
C4588 C 0.28567 0.79998 0.6217 0.0
C4589 C 0.30103 0.80295 0.59526 0.0
C4590 C 0.29275 0.79715 0.59581 0.0
C4591 C 0.28799 0.79625 0.6045 0.0
C4592 C 0.28904 0.79171 0.58756 0.0
C4593 C 0.30664 0.80392 0.58622 0.0
C4594 C 0.28607 0.7963 0.5792 0.0
C4595 C 0.28243 0.79107 0.57155 0.0
C4596 C 0.28165 0.78113 0.57213 0.0
C4597 C 0.28456 0.77659 0.58056 0.0
C4598 C 0.28821 0.78182 0.58817 0.0
H4599 H 0.31397 0.80666 0.58758 0.0
H4600 H 0.30708 0.79702 0.58256 0.0
H4601 H 0.30305 0.80898 0.58139 0.0
H4602 H 0.28647 0.80395 0.57863 0.0
H4603 H 0.28028 0.7948 0.56517 0.0
H4604 H 0.70765 0.80535 0.63869 0.0
H4605 H 0.71424 0.79783 0.62464 0.0
H4606 H 0.72295 0.8252 0.61375 0.0
H4607 H 0.71629 0.83278 0.62767 0.0
H4608 H 0.71031 0.80085 0.60475 0.0
H4609 H 0.74767 0.80985 0.61433 0.0
H4610 H 0.73809 0.81043 0.62273 0.0
H4611 H 0.73983 0.81975 0.61413 0.0
C4612 C 0.71087 0.80979 0.63326 0.0
C4613 C 0.71152 0.81967 0.63437 0.0
C4614 C 0.71467 0.80547 0.62525 0.0
C4615 C 0.71922 0.81095 0.61823 0.0
C4616 C 0.71964 0.82082 0.61918 0.0
H4617 H 0.75083 0.79979 0.56716 0.0
H4618 H 0.74205 0.80692 0.58011 0.0
C4619 C 0.71585 0.82514 0.62716 0.0
C4620 C 0.72367 0.80637 0.60997 0.0
H4621 H 0.74498 0.80343 0.59907 0.0
C4622 C 0.71789 0.80137 0.60352 0.0
C4623 C 0.73357 0.80705 0.60839 0.0
C4624 C 0.74019 0.81198 0.6153 0.0
C4625 C 0.72172 0.79723 0.59538 0.0
C4626 C 0.73162 0.79798 0.59376 0.0
C4627 C 0.73739 0.80291 0.60028 0.0
C4628 C 0.73622 0.79366 0.58542 0.0
C4629 C 0.71512 0.7923 0.58847 0.0
C4630 C 0.7358 0.78382 0.58403 0.0
C4631 C 0.74082 0.77972 0.57662 0.0
C4632 C 0.74643 0.78536 0.5705 0.0
C4633 C 0.74665 0.79523 0.57179 0.0
C4634 C 0.74161 0.79932 0.57918 0.0
H4635 H 0.70766 0.79456 0.58934 0.0
H4636 H 0.7173 0.79372 0.58103 0.0
H4637 H 0.71534 0.78455 0.58975 0.0
H4638 H 0.73187 0.77928 0.58888 0.0
H4639 H 0.74063 0.77209 0.57594 0.0
H4640 H 0.71695 0.8077 0.38004 0.0
H4641 H 0.72382 0.7996 0.39384 0.0
H4642 H 0.7103 0.81927 0.41243 0.0
H4643 H 0.70333 0.82737 0.39867 0.0
H4644 H 0.73589 0.80857 0.40892 0.0
H4645 H 0.70236 0.79181 0.42202 0.0
H4646 H 0.70373 0.79587 0.40992 0.0
H4647 H 0.70209 0.80426 0.41923 0.0
C4648 C 0.71537 0.81025 0.38706 0.0
C4649 C 0.70957 0.81816 0.38826 0.0
C4650 C 0.71934 0.80565 0.39493 0.0
C4651 C 0.71751 0.80881 0.40414 0.0
C4652 C 0.71174 0.81669 0.40537 0.0
H4653 H 0.74549 0.79166 0.45713 0.0
H4654 H 0.73841 0.80095 0.44421 0.0
C4655 C 0.70781 0.82134 0.39751 0.0
C4656 C 0.72172 0.80388 0.41244 0.0
H4657 H 0.71618 0.78953 0.43128 0.0
C4658 C 0.73159 0.80444 0.41384 0.0
C4659 C 0.71608 0.79846 0.41879 0.0
C4660 C 0.70547 0.79747 0.41744 0.0
C4661 C 0.73597 0.79972 0.42147 0.0
C4662 C 0.73033 0.79432 0.42783 0.0
C4663 C 0.72046 0.79375 0.42642 0.0
C4664 C 0.7346 0.78879 0.43569 0.0
C4665 C 0.74662 0.80035 0.42258 0.0
C4666 C 0.73474 0.7789 0.43518 0.0
C4667 C 0.73887 0.77358 0.44247 0.0
C4668 C 0.74285 0.77804 0.45051 0.0
C4669 C 0.74261 0.78799 0.45102 0.0
C4670 C 0.73853 0.79331 0.44367 0.0
H4671 H 0.75008 0.80379 0.41636 0.0
H4672 H 0.74844 0.80452 0.429 0.0
H4673 H 0.74958 0.79316 0.42357 0.0
H4674 H 0.73178 0.77529 0.42906 0.0
H4675 H 0.73909 0.76597 0.4417 0.0
H4676 H 0.71628 0.20052 0.38057 0.0
H4677 H 0.72549 0.20578 0.3944 0.0
H4678 H 0.70003 0.21634 0.40707 0.0
H4679 H 0.69072 0.21081 0.39345 0.0
H4680 H 0.72767 0.22402 0.40118 0.0
H4681 H 0.71132 0.20072 0.42862 0.0
H4682 H 0.70974 0.19866 0.41608 0.0
H4683 H 0.7029 0.2075 0.42192 0.0
C4684 C 0.71261 0.20382 0.38636 0.0
C4685 C 0.70274 0.20521 0.38589 0.0
C4686 C 0.7179 0.20688 0.39424 0.0
C4687 C 0.71344 0.21134 0.40184 0.0
C4688 C 0.7036 0.21275 0.40139 0.0
H4689 H 0.73362 0.23834 0.45373 0.0
H4690 H 0.72404 0.2321 0.44052 0.0
C4691 C 0.69831 0.20969 0.39353 0.0
C4692 C 0.71913 0.21485 0.41005 0.0
H4693 H 0.72157 0.21307 0.43414 0.0
C4694 C 0.72638 0.22158 0.40838 0.0
C4695 C 0.7174 0.21169 0.41945 0.0
C4696 C 0.70998 0.20418 0.42165 0.0
C4697 C 0.73185 0.22536 0.41586 0.0
C4698 C 0.73012 0.22221 0.42525 0.0
C4699 C 0.72286 0.21549 0.42693 0.0
C4700 C 0.73587 0.22574 0.4334 0.0
C4701 C 0.7393 0.23284 0.41366 0.0
C4702 C 0.74566 0.22408 0.43387 0.0
C4703 C 0.75114 0.22765 0.44137 0.0
C4704 C 0.74695 0.23293 0.44861 0.0
C4705 C 0.73709 0.2344 0.44823 0.0
C4706 C 0.7316 0.2308 0.44071 0.0
H4707 H 0.7381 0.23618 0.4066 0.0
H4708 H 0.7394 0.23846 0.41913 0.0
H4709 H 0.74639 0.22954 0.41361 0.0
H4710 H 0.74907 0.22007 0.42838 0.0
H4711 H 0.75872 0.22647 0.44136 0.0
H4712 H 0.32487 0.21364 0.38518 0.0
H4713 H 0.31584 0.2186 0.39896 0.0
H4714 H 0.31051 0.18938 0.40657 0.0
H4715 H 0.31981 0.18434 0.39295 0.0
H4716 H 0.29702 0.21482 0.40321 0.0
H4717 H 0.32076 0.20066 0.43135 0.0
H4718 H 0.3244 0.2019 0.41915 0.0
H4719 H 0.31693 0.19209 0.42272 0.0
C4720 C 0.3219 0.20825 0.38985 0.0
C4721 C 0.32314 0.19858 0.38798 0.0
C4722 C 0.31668 0.21111 0.39769 0.0
C4723 C 0.31262 0.20437 0.40387 0.0
C4724 C 0.31373 0.19471 0.40199 0.0
H4725 H 0.26803 0.21623 0.44444 0.0
H4726 H 0.2775 0.20983 0.43161 0.0
C4727 C 0.31896 0.19184 0.39414 0.0
C4728 C 0.30701 0.2075 0.41213 0.0
H4729 H 0.30604 0.20677 0.43635 0.0
C4730 C 0.29899 0.21305 0.41045 0.0
C4731 C 0.30966 0.2053 0.42159 0.0
C4732 C 0.31845 0.19973 0.42386 0.0
C4733 C 0.29349 0.21639 0.41796 0.0
C4734 C 0.296 0.21399 0.4274 0.0
C4735 C 0.30408 0.20852 0.4291 0.0
C4736 C 0.29043 0.2173 0.43561 0.0
C4737 C 0.28517 0.22264 0.41571 0.0
C4738 C 0.29465 0.22335 0.44234 0.0
C4739 C 0.28927 0.22694 0.44976 0.0
C4740 C 0.27958 0.22452 0.45064 0.0
C4741 C 0.27548 0.21819 0.44405 0.0
C4742 C 0.28086 0.21461 0.43664 0.0
H4743 H 0.28561 0.2257 0.40844 0.0
H4744 H 0.2785 0.21837 0.41617 0.0
H4745 H 0.28474 0.22852 0.42086 0.0
H4746 H 0.30205 0.22546 0.44172 0.0
H4747 H 0.29269 0.23168 0.45478 0.0
H4748 H 0.31966 0.83238 0.3951 0.0
H4749 H 0.31256 0.82494 0.40914 0.0
H4750 H 0.30528 0.80018 0.39276 0.0
H4751 H 0.31239 0.80757 0.37869 0.0
H4752 H 0.29421 0.81949 0.41156 0.0
H4753 H 0.31739 0.78845 0.41617 0.0
H4754 H 0.32048 0.79834 0.40854 0.0
H4755 H 0.31228 0.78932 0.4045 0.0
C4756 C 0.31657 0.82533 0.39449 0.0
C4757 C 0.31659 0.82057 0.38576 0.0
C4758 C 0.31255 0.82107 0.40254 0.0
C4759 C 0.30849 0.81194 0.40206 0.0
C4760 C 0.30857 0.80713 0.39338 0.0
H4761 H 0.2654 0.78766 0.43839 0.0
H4762 H 0.27477 0.79487 0.42569 0.0
C4763 C 0.31262 0.81137 0.38533 0.0
C4764 C 0.30367 0.80773 0.41048 0.0
H4765 H 0.30299 0.78828 0.42506 0.0
C4766 C 0.29618 0.8127 0.41455 0.0
C4767 C 0.30631 0.79892 0.41447 0.0
C4768 C 0.31461 0.79348 0.41076 0.0
C4769 C 0.29111 0.809 0.42231 0.0
C4770 C 0.29347 0.79999 0.42602 0.0
C4771 C 0.30113 0.79514 0.42215 0.0
C4772 C 0.28789 0.79543 0.43376 0.0
C4773 C 0.28331 0.8148 0.42651 0.0
C4774 C 0.2922 0.79308 0.44246 0.0
C4775 C 0.28683 0.78894 0.44979 0.0
C4776 C 0.27706 0.78706 0.44853 0.0
C4777 C 0.27284 0.78924 0.43971 0.0
C4778 C 0.2782 0.79335 0.43242 0.0
H4779 H 0.28418 0.82244 0.42471 0.0
H4780 H 0.27636 0.81234 0.4236 0.0
H4781 H 0.28313 0.81401 0.43435 0.0
H4782 H 0.29968 0.79457 0.44363 0.0
H4783 H 0.2903 0.78737 0.45649 0.0
H4784 H 0.62983 0.2062 0.68548 0.0
H4785 H 0.61588 0.21288 0.69303 0.0
H4786 H 0.63045 0.21261 0.72002 0.0
H4787 H 0.64453 0.20618 0.71248 0.0
H4788 H 0.60467 0.20584 0.70817 0.0
H4789 H 0.6221 0.24024 0.71704 0.0
H4790 H 0.62713 0.23206 0.70877 0.0
H4791 H 0.62822 0.22998 0.72131 0.0
C4792 C 0.6301 0.20762 0.69301 0.0
C4793 C 0.63834 0.20573 0.69836 0.0
C4794 C 0.62209 0.21138 0.69732 0.0
C4795 C 0.62218 0.21338 0.70705 0.0
C4796 C 0.63029 0.21127 0.71247 0.0
H4797 H 0.58217 0.24016 0.74451 0.0
H4798 H 0.59544 0.23169 0.73772 0.0
C4799 C 0.6383 0.2075 0.70816 0.0
C4800 C 0.61379 0.21774 0.71149 0.0
H4801 H 0.60658 0.2376 0.72287 0.0
C4802 C 0.60507 0.21279 0.71138 0.0
C4803 C 0.61434 0.22682 0.71566 0.0
C4804 C 0.62342 0.23264 0.71565 0.0
C4805 C 0.5969 0.2166 0.71545 0.0
C4806 C 0.59744 0.22569 0.71959 0.0
C4807 C 0.60617 0.23063 0.71971 0.0
C4808 C 0.58904 0.23027 0.7238 0.0
C4809 C 0.58782 0.21077 0.71546 0.0
C4810 C 0.58099 0.23228 0.71824 0.0
C4811 C 0.57332 0.23705 0.72214 0.0
C4812 C 0.57357 0.23997 0.73167 0.0
C4813 C 0.58163 0.23787 0.73721 0.0
C4814 C 0.58927 0.23309 0.73332 0.0
H4815 H 0.5892 0.20313 0.71444 0.0
H4816 H 0.58391 0.21163 0.7222 0.0
H4817 H 0.58319 0.21317 0.70954 0.0
H4818 H 0.58072 0.23034 0.71083 0.0
H4819 H 0.56722 0.2385 0.71767 0.0
H4820 H 0.33563 0.12228 0.71649 0.0
H4821 H 0.32768 0.10857 0.72377 0.0
H4822 H 0.30046 0.11967 0.71558 0.0
H4823 H 0.30835 0.13348 0.70835 0.0
H4824 H 0.31445 0.10886 0.73855 0.0
H4825 H 0.29893 0.09215 0.70632 0.0
H4826 H 0.30828 0.10104 0.70578 0.0
H4827 H 0.29622 0.10444 0.70775 0.0
C4828 C 0.32795 0.12183 0.71624 0.0
C4829 C 0.32263 0.12901 0.71184 0.0
C4830 C 0.32342 0.11396 0.72037 0.0
C4831 C 0.31349 0.11304 0.72012 0.0
C4832 C 0.30815 0.12013 0.71568 0.0
H4833 H 0.27307 0.07291 0.74463 0.0
H4834 H 0.281 0.08576 0.73586 0.0
C4835 C 0.31267 0.12802 0.71155 0.0
C4836 C 0.30874 0.10488 0.72493 0.0
H4837 H 0.29419 0.08566 0.72116 0.0
C4838 C 0.31006 0.10375 0.73475 0.0
C4839 C 0.30297 0.09827 0.71995 0.0
C4840 C 0.30156 0.09895 0.70935 0.0
C4841 C 0.30566 0.09627 0.73975 0.0
C4842 C 0.29994 0.08961 0.73477 0.0
C4843 C 0.29859 0.09075 0.72496 0.0
C4844 C 0.29521 0.0815 0.73967 0.0
C4845 C 0.30699 0.09571 0.75038 0.0
C4846 C 0.30058 0.07469 0.74454 0.0
C4847 C 0.29607 0.06732 0.74954 0.0
C4848 C 0.2861 0.06656 0.74971 0.0
C4849 C 0.28076 0.07322 0.74457 0.0
C4850 C 0.28527 0.0806 0.73959 0.0
H4851 H 0.30944 0.10259 0.75336 0.0
H4852 H 0.30028 0.09352 0.75392 0.0
H4853 H 0.31244 0.09036 0.75209 0.0
H4854 H 0.30826 0.07512 0.74451 0.0
H4855 H 0.3004 0.06223 0.75329 0.0
H4856 H 0.38144 0.79551 0.69521 0.0
H4857 H 0.39575 0.78911 0.70257 0.0
H4858 H 0.40332 0.81681 0.71311 0.0
H4859 H 0.38906 0.82333 0.70564 0.0
H4860 H 0.4148 0.79484 0.69897 0.0
H4861 H 0.40527 0.79957 0.73683 0.0
H4862 H 0.39657 0.8 0.72737 0.0
H4863 H 0.40442 0.80993 0.7294 0.0
C4864 C 0.38616 0.80027 0.69905 0.0
C4865 C 0.38409 0.80995 0.6998 0.0
C4866 C 0.39431 0.79658 0.7033 0.0
C4867 C 0.40056 0.80246 0.70846 0.0
C4868 C 0.39851 0.81211 0.7093 0.0
H4869 H 0.45322 0.78853 0.73879 0.0
H4870 H 0.43988 0.79704 0.73165 0.0
C4871 C 0.39035 0.81582 0.70503 0.0
C4872 C 0.40935 0.79848 0.71266 0.0
H4873 H 0.42051 0.79365 0.73372 0.0
C4874 C 0.41606 0.79459 0.70657 0.0
C4875 C 0.41101 0.79823 0.72257 0.0
C4876 C 0.40393 0.80208 0.72946 0.0
C4877 C 0.42437 0.79043 0.7101 0.0
C4878 C 0.42592 0.78994 0.72002 0.0
C4879 C 0.41931 0.79402 0.72612 0.0
C4880 C 0.43413 0.78487 0.72421 0.0
C4881 C 0.43145 0.78665 0.70315 0.0
C4882 C 0.43528 0.77519 0.72249 0.0
C4883 C 0.44287 0.77032 0.72655 0.0
C4884 C 0.44947 0.775 0.73251 0.0
C4885 C 0.44826 0.7847 0.73428 0.0
C4886 C 0.44066 0.78958 0.73018 0.0
H4887 H 0.4307 0.79007 0.69606 0.0
H4888 H 0.43885 0.78778 0.70573 0.0
H4889 H 0.43018 0.77894 0.70227 0.0
H4890 H 0.43021 0.77134 0.71812 0.0
H4891 H 0.44342 0.76281 0.72522 0.0
H4892 H 0.70662 0.88725 0.69348 0.0
H4893 H 0.71516 0.90124 0.69947 0.0
H4894 H 0.70918 0.89239 0.72818 0.0
H4895 H 0.70092 0.87826 0.72229 0.0
H4896 H 0.7084 0.91576 0.71046 0.0
H4897 H 0.73771 0.89753 0.72912 0.0
H4898 H 0.73003 0.89161 0.72065 0.0
H4899 H 0.72618 0.89326 0.73266 0.0
C4900 C 0.70724 0.8882 0.70107 0.0
C4901 C 0.70309 0.8816 0.7074 0.0
C4902 C 0.71208 0.89624 0.70448 0.0
C4903 C 0.71292 0.8978 0.71427 0.0
C4904 C 0.70877 0.89125 0.7206 0.0
H4905 H 0.72359 0.94895 0.74563 0.0
H4906 H 0.71678 0.93564 0.73679 0.0
C4907 C 0.70395 0.88323 0.71721 0.0
C4908 C 0.71787 0.90642 0.71791 0.0
H4909 H 0.73559 0.91381 0.73292 0.0
C4910 C 0.71441 0.91534 0.7153 0.0
C4911 C 0.7258 0.90589 0.72411 0.0
C4912 C 0.73022 0.89656 0.72673 0.0
C4913 C 0.71843 0.92372 0.719 0.0
C4914 C 0.72602 0.92315 0.7256 0.0
C4915 C 0.72971 0.91425 0.72793 0.0
C4916 C 0.73006 0.93165 0.73043 0.0
C4917 C 0.71452 0.9331 0.71578 0.0
C4918 C 0.73981 0.93379 0.72989 0.0
C4919 C 0.74375 0.94134 0.73504 0.0
C4920 C 0.73802 0.94687 0.74089 0.0
C4921 C 0.72822 0.94481 0.74126 0.0
C4922 C 0.72429 0.93726 0.73611 0.0
H4923 H 0.71091 0.93251 0.70877 0.0
H4924 H 0.70921 0.93548 0.72098 0.0
H4925 H 0.72023 0.9386 0.71527 0.0
H4926 H 0.74441 0.92952 0.7256 0.0
H4927 H 0.75134 0.94263 0.73469 0.0
H4928 H 0.64369 0.79527 0.31678 0.0
H4929 H 0.6298 0.78928 0.30804 0.0
H4930 H 0.61306 0.81192 0.31909 0.0
H4931 H 0.62696 0.81802 0.32775 0.0
H4932 H 0.61286 0.78284 0.31438 0.0
H4933 H 0.60745 0.81409 0.29104 0.0
H4934 H 0.61809 0.81258 0.29805 0.0
H4935 H 0.60746 0.81688 0.30343 0.0
C4936 C 0.63705 0.79897 0.31735 0.0
C4937 C 0.63644 0.80715 0.32292 0.0
C4938 C 0.62912 0.79555 0.31233 0.0
C4939 C 0.62041 0.80023 0.31278 0.0
C4940 C 0.61975 0.80833 0.31843 0.0
H4941 H 0.56634 0.77393 0.29536 0.0
H4942 H 0.57945 0.78102 0.30452 0.0
C4943 C 0.6277 0.8118 0.32339 0.0
C4944 C 0.612 0.79647 0.30751 0.0
H4945 H 0.5953 0.80222 0.29083 0.0
C4946 C 0.60903 0.78707 0.30922 0.0
C4947 C 0.60707 0.80195 0.30069 0.0
C4948 C 0.61022 0.8119 0.29811 0.0
C4949 C 0.60126 0.78302 0.30434 0.0
C4950 C 0.59614 0.7886 0.29773 0.0
C4951 C 0.59914 0.79798 0.29598 0.0
C4952 C 0.58793 0.78471 0.29224 0.0
C4953 C 0.59877 0.77273 0.30612 0.0
C4954 C 0.58815 0.78476 0.28229 0.0
C4955 C 0.58062 0.78083 0.27705 0.0
C4956 C 0.57271 0.77675 0.28165 0.0
C4957 C 0.57239 0.77691 0.29162 0.0
C4958 C 0.5799 0.78092 0.29686 0.0
H4959 H 0.60482 0.76887 0.30934 0.0
H4960 H 0.59274 0.77223 0.31113 0.0
H4961 H 0.59664 0.76914 0.29945 0.0
H4962 H 0.59425 0.78766 0.27856 0.0
H4963 H 0.58113 0.78072 0.26939 0.0
H4964 H 0.70728 0.12523 0.33348 0.0
H4965 H 0.71231 0.1112 0.32494 0.0
H4966 H 0.70501 0.12461 0.29836 0.0
H4967 H 0.70025 0.13882 0.30682 0.0
H4968 H 0.70221 0.09923 0.31258 0.0
H4969 H 0.73261 0.117 0.2944 0.0
H4970 H 0.72658 0.12229 0.30423 0.0
H4971 H 0.72133 0.12249 0.29258 0.0
C4972 C 0.70682 0.12524 0.32581 0.0
C4973 C 0.70345 0.13321 0.32084 0.0
C4974 C 0.70963 0.11718 0.32094 0.0
C4975 C 0.70917 0.1169 0.311 0.0
C4976 C 0.70558 0.12473 0.30602 0.0
H4977 H 0.72963 0.07442 0.27162 0.0
H4978 H 0.72131 0.08777 0.2785 0.0
C4979 C 0.70277 0.13281 0.31088 0.0
C4980 C 0.71256 0.10844 0.30591 0.0
H4981 H 0.72949 0.10103 0.29055 0.0
C4982 C 0.70816 0.09962 0.30774 0.0
C4983 C 0.72031 0.10896 0.29959 0.0
C4984 C 0.72555 0.11817 0.29761 0.0
C4985 C 0.71131 0.09132 0.30342 0.0
C4986 C 0.71917 0.09182 0.29724 0.0
C4987 C 0.72345 0.10066 0.29527 0.0
C4988 C 0.72337 0.08323 0.29305 0.0
C4989 C 0.70615 0.08209 0.30547 0.0
C4990 C 0.72723 0.07619 0.29893 0.0
C4991 C 0.73194 0.06852 0.29502 0.0
C4992 C 0.73295 0.06775 0.28513 0.0
C4993 C 0.72887 0.0747 0.27925 0.0
C4994 C 0.72417 0.08239 0.28317 0.0
H4995 H 0.6988 0.08328 0.30797 0.0
H4996 H 0.70581 0.07755 0.29908 0.0
H4997 H 0.71 0.07821 0.31114 0.0
H4998 H 0.72686 0.07677 0.30657 0.0
H4999 H 0.73495 0.06327 0.29975 0.0
H5000 H 0.39328 0.20122 0.33019 0.0
H5001 H 0.40663 0.21094 0.32441 0.0
H5002 H 0.39995 0.20275 0.2957 0.0
H5003 H 0.38642 0.19331 0.30137 0.0
H5004 H 0.42252 0.20551 0.31416 0.0
H5005 H 0.40137 0.23155 0.29372 0.0
H5006 H 0.3961 0.22353 0.3023 0.0
H5007 H 0.39886 0.21946 0.2906 0.0
C5008 C 0.39457 0.20159 0.32264 0.0
C5009 C 0.38874 0.19651 0.31625 0.0
C5010 C 0.40225 0.20709 0.31935 0.0
C5011 C 0.40421 0.20768 0.30961 0.0
C5012 C 0.39847 0.20254 0.30323 0.0
H5013 H 0.44639 0.23694 0.27504 0.0
H5014 H 0.43391 0.22633 0.28116 0.0
C5015 C 0.3908 0.19705 0.3065 0.0
C5016 C 0.41234 0.21354 0.30612 0.0
H5017 H 0.41806 0.2321 0.29146 0.0
C5018 C 0.42155 0.21136 0.30924 0.0
C5019 C 0.41106 0.22116 0.29969 0.0
C5020 C 0.40131 0.22414 0.29644 0.0
C5021 C 0.42953 0.21648 0.30594 0.0
C5022 C 0.42824 0.22406 0.29946 0.0
C5023 C 0.41903 0.22625 0.29638 0.0
C5024 C 0.43632 0.22992 0.29588 0.0
C5025 C 0.43928 0.21361 0.30926 0.0
C5026 C 0.44186 0.23542 0.30213 0.0
C5027 C 0.44903 0.24146 0.29866 0.0
C5028 C 0.45078 0.24215 0.28885 0.0
C5029 C 0.44533 0.23648 0.28264 0.0
C5030 C 0.43815 0.23047 0.28611 0.0
H5031 H 0.43925 0.20629 0.3122 0.0
H5032 H 0.44446 0.21407 0.30337 0.0
H5033 H 0.44174 0.21848 0.31494 0.0
H5034 H 0.44048 0.23524 0.30967 0.0
H5035 H 0.45313 0.24568 0.30364 0.0
H5036 H 0.33942 0.89303 0.31638 0.0
H5037 H 0.33218 0.9071 0.30938 0.0
H5038 H 0.30924 0.8898 0.29824 0.0
H5039 H 0.31639 0.87572 0.3053 0.0
H5040 H 0.32886 0.91109 0.29106 0.0
H5041 H 0.29475 0.91089 0.31032 0.0
H5042 H 0.30459 0.90366 0.31395 0.0
H5043 H 0.29682 0.89991 0.30445 0.0
C5044 C 0.33281 0.89223 0.31247 0.0
C5045 C 0.32847 0.88325 0.31142 0.0
C5046 C 0.32866 0.90028 0.3085 0.0
C5047 C 0.32008 0.89956 0.3034 0.0
C5048 C 0.31572 0.8906 0.30235 0.0
H5049 H 0.29926 0.93786 0.26041 0.0
H5050 H 0.30659 0.92521 0.26962 0.0
C5051 C 0.31984 0.88254 0.30638 0.0
C5052 C 0.31599 0.90807 0.29875 0.0
H5053 H 0.29572 0.92092 0.29659 0.0
C5054 C 0.32164 0.91328 0.29233 0.0
C5055 C 0.30661 0.91104 0.30051 0.0
C5056 C 0.30037 0.90614 0.30776 0.0
C5057 C 0.3181 0.92117 0.28743 0.0
C5058 C 0.30856 0.92384 0.28881 0.0
C5059 C 0.303 0.91882 0.29544 0.0
C5060 C 0.30417 0.93164 0.28326 0.0
C5061 C 0.32465 0.92663 0.28087 0.0
C5062 C 0.30012 0.93936 0.28785 0.0
C5063 C 0.29586 0.94662 0.28258 0.0
C5064 C 0.29557 0.94628 0.27261 0.0
C5065 C 0.29957 0.93848 0.26806 0.0
C5066 C 0.30377 0.93123 0.27332 0.0
H5067 H 0.33222 0.92559 0.28281 0.0
H5068 H 0.32358 0.92407 0.27352 0.0
H5069 H 0.32317 0.93433 0.28099 0.0
H5070 H 0.3003 0.93981 0.29552 0.0
H5071 H 0.29287 0.95254 0.2863 0.0
H5072 H 0.69066 0.12494 0.71057 0.0
H5073 H 0.69903 0.11109 0.71667 0.0
H5074 H 0.72574 0.12619 0.714 0.0
H5075 H 0.71742 0.14016 0.70813 0.0
H5076 H 0.71341 0.10049 0.70808 0.0
H5077 H 0.72606 0.1168 0.74166 0.0
H5078 H 0.71683 0.12192 0.73442 0.0
H5079 H 0.72908 0.12344 0.73115 0.0
C5080 C 0.69831 0.12535 0.71137 0.0
C5081 C 0.70336 0.1337 0.70892 0.0
C5082 C 0.70309 0.11741 0.7148 0.0
C5083 C 0.71299 0.11765 0.71592 0.0
C5084 C 0.71808 0.1259 0.71334 0.0
H5085 H 0.75564 0.07899 0.73608 0.0
H5086 H 0.74663 0.09217 0.72961 0.0
C5087 C 0.71331 0.13385 0.70989 0.0
C5088 C 0.71801 0.10924 0.71972 0.0
H5089 H 0.73221 0.10176 0.73794 0.0
C5090 C 0.71748 0.10074 0.71463 0.0
C5091 C 0.72331 0.10958 0.72828 0.0
C5092 C 0.72381 0.11839 0.73426 0.0
C5093 C 0.72232 0.09264 0.71774 0.0
C5094 C 0.72767 0.093 0.72627 0.0
C5095 C 0.72812 0.10149 0.7314 0.0
C5096 C 0.73308 0.08476 0.72991 0.0
C5097 C 0.72188 0.08386 0.71172 0.0
C5098 C 0.72846 0.07618 0.73228 0.0
C5099 C 0.73362 0.06854 0.7359 0.0
C5100 C 0.74352 0.06935 0.73726 0.0
C5101 C 0.74808 0.078 0.73493 0.0
C5102 C 0.74292 0.0856 0.73131 0.0
H5103 H 0.71957 0.08547 0.70434 0.0
H5104 H 0.72889 0.0804 0.7115 0.0
H5105 H 0.71667 0.07875 0.71482 0.0
H5106 H 0.72083 0.07542 0.73145 0.0
H5107 H 0.72987 0.062 0.73759 0.0
H5108 H 0.71124 0.87826 0.31966 0.0
H5109 H 0.71901 0.89259 0.31337 0.0
H5110 H 0.69173 0.90359 0.30526 0.0
H5111 H 0.68389 0.88948 0.31182 0.0
H5112 H 0.71858 0.89907 0.29498 0.0
H5113 H 0.70381 0.92605 0.31879 0.0
H5114 H 0.7031 0.91353 0.32141 0.0
H5115 H 0.69483 0.9188 0.31323 0.0
C5116 C 0.70687 0.88381 0.31671 0.0
C5117 C 0.69693 0.88271 0.31627 0.0
C5118 C 0.71133 0.89197 0.31306 0.0
C5119 C 0.70595 0.89923 0.30897 0.0
C5120 C 0.69602 0.89818 0.30856 0.0
H5121 H 0.71626 0.94971 0.27567 0.0
H5122 H 0.70966 0.93644 0.28491 0.0
C5123 C 0.69156 0.89004 0.31221 0.0
C5124 C 0.71071 0.90764 0.30462 0.0
H5125 H 0.7114 0.93184 0.30472 0.0
C5126 C 0.71709 0.90623 0.29718 0.0
C5127 C 0.70875 0.91699 0.30749 0.0
C5128 C 0.70232 0.91895 0.31573 0.0
C5129 C 0.72134 0.91391 0.29234 0.0
C5130 C 0.71925 0.92325 0.29509 0.0
C5131 C 0.71297 0.92467 0.30262 0.0
C5132 C 0.72328 0.93162 0.29003 0.0
C5133 C 0.72779 0.91197 0.28409 0.0
C5134 C 0.7331 0.93344 0.29003 0.0
C5135 C 0.7369 0.94099 0.28473 0.0
C5136 C 0.73094 0.94688 0.27934 0.0
C5137 C 0.72106 0.94523 0.27963 0.0
C5138 C 0.71727 0.93769 0.28495 0.0
H5139 H 0.72704 0.90455 0.2816 0.0
H5140 H 0.72627 0.91682 0.27806 0.0
H5141 H 0.73528 0.91318 0.28633 0.0
H5142 H 0.73785 0.92891 0.29401 0.0
H5143 H 0.74454 0.94202 0.28461 0.0
H5144 H 0.63956 0.21439 0.32253 0.0
H5145 H 0.62561 0.22339 0.31773 0.0
H5146 H 0.61352 0.19849 0.30453 0.0
H5147 H 0.62724 0.18935 0.30963 0.0
H5148 H 0.61903 0.22709 0.29995 0.0
H5149 H 0.59148 0.20739 0.32028 0.0
H5150 H 0.60402 0.20605 0.32255 0.0
H5151 H 0.59836 0.19989 0.31287 0.0
C5152 C 0.63386 0.21078 0.31875 0.0
C5153 C 0.63453 0.20112 0.3165 0.0
C5154 C 0.62591 0.21596 0.31596 0.0
C5155 C 0.61844 0.21159 0.3109 0.0
C5156 C 0.6191 0.20197 0.3086 0.0
H5157 H 0.57689 0.2397 0.27542 0.0
H5158 H 0.58989 0.23037 0.28188 0.0
C5159 C 0.62702 0.19679 0.31141 0.0
C5160 C 0.61016 0.21719 0.30766 0.0
H5161 H 0.58593 0.21801 0.30828 0.0
C5162 C 0.6118 0.22514 0.30182 0.0
C5163 C 0.60072 0.21472 0.3102 0.0
C5164 C 0.59852 0.20661 0.3169 0.0
C5165 C 0.60426 0.23055 0.29828 0.0
C5166 C 0.5948 0.22782 0.30046 0.0
C5167 C 0.59317 0.22002 0.3065 0.0
C5168 C 0.58653 0.23301 0.29657 0.0
C5169 C 0.60652 0.23921 0.29232 0.0
C5170 C 0.58005 0.23726 0.30267 0.0
C5171 C 0.57248 0.24248 0.29899 0.0
C5172 C 0.57121 0.24352 0.28912 0.0
C5173 C 0.57756 0.23899 0.28305 0.0
C5174 C 0.5851 0.23376 0.28673 0.0
H5175 H 0.61391 0.24181 0.29355 0.0
H5176 H 0.60579 0.23739 0.28471 0.0
H5177 H 0.60157 0.24503 0.29385 0.0
H5178 H 0.58096 0.23669 0.31029 0.0
H5179 H 0.56766 0.24575 0.30388 0.0
H5180 H 0.3323 0.12474 0.31667 0.0
H5181 H 0.32669 0.11133 0.30713 0.0
H5182 H 0.29783 0.11707 0.31498 0.0
H5183 H 0.30332 0.13066 0.32424 0.0
H5184 H 0.31646 0.09514 0.31276 0.0
H5185 H 0.29616 0.11584 0.28612 0.0
H5186 H 0.30464 0.12127 0.29414 0.0
H5187 H 0.2929 0.11814 0.29816 0.0
C5188 C 0.32475 0.12323 0.31627 0.0
C5189 C 0.31826 0.12882 0.3212 0.0
C5190 C 0.32156 0.11552 0.31087 0.0
C5191 C 0.31183 0.11327 0.31024 0.0
C5192 C 0.30535 0.11876 0.31523 0.0
H5193 H 0.27785 0.07047 0.28118 0.0
H5194 H 0.28376 0.083 0.29168 0.0
C5195 C 0.30852 0.12647 0.32062 0.0
C5196 C 0.30844 0.10512 0.30447 0.0
H5197 H 0.29404 0.09914 0.28579 0.0
C5198 C 0.31159 0.09601 0.30684 0.0
C5199 C 0.30209 0.10627 0.29674 0.0
C5200 C 0.29881 0.11591 0.29356 0.0
C5201 C 0.30841 0.08801 0.3018 0.0
C5202 C 0.30201 0.08916 0.29411 0.0
C5203 C 0.29889 0.09826 0.29173 0.0
C5204 C 0.29856 0.08105 0.28832 0.0
C5205 C 0.31176 0.07836 0.30487 0.0
C5206 C 0.30492 0.07576 0.28298 0.0
C5207 C 0.30157 0.06856 0.27701 0.0
C5208 C 0.29178 0.06653 0.27622 0.0
C5209 C 0.28544 0.07174 0.28172 0.0
C5210 C 0.2888 0.07895 0.28767 0.0
H5211 H 0.3146 0.07841 0.31224 0.0
H5212 H 0.30591 0.07302 0.30441 0.0
H5213 H 0.31753 0.07613 0.3001 0.0
H5214 H 0.31247 0.07735 0.28324 0.0
H5215 H 0.30665 0.06465 0.27291 0.0
H5216 H 0.39826 0.80868 0.33515 0.0
H5217 H 0.41196 0.80177 0.32739 0.0
H5218 H 0.3964 0.8008 0.30095 0.0
H5219 H 0.38266 0.80771 0.30866 0.0
H5220 H 0.41288 0.78445 0.31874 0.0
H5221 H 0.42144 0.81313 0.29293 0.0
H5222 H 0.41361 0.81481 0.30283 0.0
H5223 H 0.40934 0.80896 0.29232 0.0
C5224 C 0.39774 0.807 0.32768 0.0
C5225 C 0.38935 0.80875 0.32253 0.0
C5226 C 0.4056 0.80309 0.32325 0.0
C5227 C 0.40527 0.80088 0.31356 0.0
C5228 C 0.39692 0.80265 0.30838 0.0
H5229 H 0.4422 0.77165 0.27509 0.0
H5230 H 0.4295 0.78038 0.28262 0.0
C5231 C 0.38906 0.80659 0.3128 0.0
C5232 C 0.41348 0.79628 0.30903 0.0
H5233 H 0.42945 0.79858 0.29097 0.0
C5234 C 0.41655 0.78758 0.31271 0.0
C5235 C 0.41825 0.80035 0.30114 0.0
C5236 C 0.41556 0.80987 0.29711 0.0
C5237 C 0.42411 0.78274 0.30862 0.0
C5238 C 0.42885 0.78678 0.30072 0.0
C5239 C 0.42581 0.7955 0.29704 0.0
C5240 C 0.43684 0.78195 0.29605 0.0
C5241 C 0.42679 0.7732 0.31264 0.0
C5242 C 0.44529 0.78012 0.30104 0.0
C5243 C 0.45261 0.77516 0.29673 0.0
C5244 C 0.45164 0.77199 0.28733 0.0
C5245 C 0.44326 0.77408 0.28229 0.0
C5246 C 0.43595 0.77903 0.2866 0.0
H5247 H 0.42109 0.77011 0.31717 0.0
H5248 H 0.42832 0.76816 0.30687 0.0
H5249 H 0.43329 0.77403 0.31706 0.0
H5250 H 0.4462 0.78247 0.30828 0.0
H5251 H 0.45902 0.77381 0.30077 0.0
H5252 H 0.31993 0.89008 0.69738 0.0
H5253 H 0.31203 0.90407 0.7035 0.0
H5254 H 0.31129 0.89136 0.7314 0.0
H5255 H 0.31915 0.87737 0.72535 0.0
H5256 H 0.29456 0.90576 0.71228 0.0
H5257 H 0.32366 0.91711 0.73653 0.0
H5258 H 0.32528 0.90841 0.7274 0.0
H5259 H 0.31978 0.90508 0.73844 0.0
C5260 C 0.31803 0.89024 0.70481 0.0
C5261 C 0.32025 0.88262 0.71089 0.0
C5262 C 0.31356 0.89826 0.7083 0.0
C5263 C 0.31124 0.89885 0.71795 0.0
C5264 C 0.31324 0.89118 0.72398 0.0
H5265 H 0.28206 0.93719 0.7544 0.0
H5266 H 0.29079 0.92436 0.74715 0.0
C5267 C 0.31773 0.88317 0.72051 0.0
C5268 C 0.30657 0.9074 0.72168 0.0
H5269 H 0.30882 0.92473 0.73836 0.0
C5270 C 0.29771 0.90997 0.71792 0.0
C5271 C 0.3107 0.91289 0.72903 0.0
C5272 C 0.32042 0.91081 0.73303 0.0
C5273 C 0.29273 0.91768 0.72152 0.0
C5274 C 0.29679 0.92306 0.72899 0.0
C5275 C 0.30572 0.92059 0.73265 0.0
C5276 C 0.29175 0.93107 0.73335 0.0
C5277 C 0.28303 0.91983 0.71753 0.0
C5278 C 0.28954 0.9392 0.72804 0.0
C5279 C 0.28461 0.94662 0.73219 0.0
C5280 C 0.28183 0.94607 0.74176 0.0
C5281 C 0.28421 0.93796 0.74707 0.0
C5282 C 0.28915 0.93057 0.74292 0.0
H5283 H 0.28007 0.91385 0.71331 0.0
H5284 H 0.27799 0.92144 0.7233 0.0
H5285 H 0.28356 0.92614 0.71281 0.0
H5286 H 0.29164 0.93982 0.72068 0.0
H5287 H 0.28301 0.9528 0.72792 0.0
H5288 H 0.63111 0.82276 0.69907 0.0
H5289 H 0.61708 0.8169 0.70763 0.0
H5290 H 0.62879 0.78891 0.70857 0.0
H5291 H 0.64292 0.79472 0.70024 0.0
H5292 H 0.60413 0.80222 0.70218 0.0
H5293 H 0.622 0.79399 0.73639 0.0
H5294 H 0.6274 0.80148 0.72742 0.0
H5295 H 0.62745 0.78882 0.72624 0.0
C5296 C 0.63076 0.81538 0.7012 0.0
C5297 C 0.63816 0.80922 0.69899 0.0
C5298 C 0.62271 0.81204 0.70604 0.0
C5299 C 0.62194 0.8025 0.70884 0.0
C5300 C 0.62929 0.79633 0.70661 0.0
H5301 H 0.58137 0.76637 0.73775 0.0
H5302 H 0.59468 0.77335 0.72904 0.0
C5303 C 0.63732 0.79965 0.70175 0.0
C5304 C 0.61339 0.79893 0.71391 0.0
H5305 H 0.60616 0.78825 0.7345 0.0
C5306 C 0.60454 0.79923 0.70928 0.0
C5307 C 0.61396 0.79503 0.72317 0.0
C5308 C 0.62319 0.79487 0.72865 0.0
C5309 C 0.59629 0.79547 0.71353 0.0
C5310 C 0.59688 0.79146 0.72275 0.0
C5311 C 0.60571 0.79129 0.72743 0.0
C5312 C 0.58849 0.78721 0.72762 0.0
C5313 C 0.58708 0.79554 0.708 0.0
C5314 C 0.58054 0.79266 0.72973 0.0
C5315 C 0.57282 0.78865 0.73463 0.0
C5316 C 0.57293 0.7791 0.73758 0.0
C5317 C 0.58092 0.77367 0.73543 0.0
C5318 C 0.5886 0.77768 0.73052 0.0
H5319 H 0.58828 0.7966 0.70029 0.0
H5320 H 0.58301 0.78882 0.70907 0.0
H5321 H 0.58267 0.80144 0.71052 0.0
H5322 H 0.58036 0.80007 0.72773 0.0
H5323 H 0.56679 0.79303 0.73613 0.0
H5324 H 0.3916 0.18934 0.70176 0.0
H5325 H 0.40561 0.19584 0.70998 0.0
H5326 H 0.39462 0.22399 0.70675 0.0
H5327 H 0.38049 0.21756 0.69879 0.0
H5328 H 0.41902 0.20929 0.70315 0.0
H5329 H 0.40081 0.22225 0.73518 0.0
H5330 H 0.3953 0.21394 0.72709 0.0
H5331 H 0.39573 0.22636 0.7242 0.0
C5332 C 0.3921 0.19691 0.70292 0.0
C5333 C 0.3849 0.20293 0.69964 0.0
C5334 C 0.40014 0.20061 0.70755 0.0
C5335 C 0.4011 0.21038 0.70908 0.0
C5336 C 0.39396 0.21641 0.70579 0.0
H5337 H 0.44244 0.24861 0.73399 0.0
H5338 H 0.42909 0.24105 0.72571 0.0
C5339 C 0.38593 0.21273 0.70114 0.0
C5340 C 0.40966 0.21433 0.71393 0.0
H5341 H 0.41684 0.22732 0.73307 0.0
C5342 C 0.41857 0.21317 0.70973 0.0
C5343 C 0.40904 0.21939 0.72251 0.0
C5344 C 0.39972 0.2205 0.72757 0.0
C5345 C 0.42685 0.21718 0.71374 0.0
C5346 C 0.42621 0.22235 0.72226 0.0
C5347 C 0.41731 0.22339 0.72652 0.0
C5348 C 0.43464 0.22689 0.72683 0.0
C5349 C 0.43617 0.21611 0.70867 0.0
C5350 C 0.44222 0.22145 0.73019 0.0
C5351 C 0.44993 0.22577 0.73487 0.0
C5352 C 0.45019 0.23562 0.7363 0.0
C5353 C 0.44259 0.24104 0.73286 0.0
C5354 C 0.4349 0.23672 0.72819 0.0
H5355 H 0.4351 0.21402 0.70116 0.0
H5356 H 0.44041 0.2228 0.70887 0.0
H5357 H 0.44034 0.21052 0.71227 0.0
H5358 H 0.4421 0.21383 0.72937 0.0
H5359 H 0.45568 0.22139 0.73739 0.0
H5360 H 0.72582 0.69901 0.1439 0.0
H5361 H 0.73144 0.70689 0.12946 0.0
H5362 H 0.70328 0.70487 0.11738 0.0
H5363 H 0.69759 0.69693 0.13182 0.0
H5364 H 0.73101 0.69946 0.1112 0.0
H5365 H 0.71059 0.73274 0.11274 0.0
H5366 H 0.71196 0.72497 0.12287 0.0
H5367 H 0.70363 0.722 0.11362 0.0
C5368 C 0.72081 0.70024 0.13818 0.0
C5369 C 0.71125 0.69731 0.13902 0.0
C5370 C 0.72403 0.70478 0.12994 0.0
C5371 C 0.71777 0.70656 0.12237 0.0
C5372 C 0.7082 0.70375 0.1232 0.0
H5373 H 0.72945 0.73168 0.06627 0.0
H5374 H 0.72154 0.72402 0.07984 0.0
C5375 C 0.70496 0.6992 0.13146 0.0
C5376 C 0.72143 0.71093 0.11346 0.0
H5377 H 0.71985 0.73042 0.09904 0.0
C5378 C 0.72856 0.70623 0.10854 0.0
C5379 C 0.71817 0.71972 0.10995 0.0
C5380 C 0.71072 0.72522 0.11509 0.0
C5381 C 0.73258 0.7101 0.10026 0.0
C5382 C 0.7295 0.71899 0.09688 0.0
C5383 C 0.7222 0.72361 0.10165 0.0
C5384 C 0.73414 0.72382 0.0887 0.0
C5385 C 0.74007 0.7046 0.09518 0.0
C5386 C 0.74378 0.72641 0.08925 0.0
C5387 C 0.7483 0.7308 0.08156 0.0
C5388 C 0.74327 0.73273 0.07312 0.0
C5389 C 0.73354 0.73031 0.07265 0.0
C5390 C 0.72901 0.72591 0.08039 0.0
H5391 H 0.73972 0.69695 0.09705 0.0
H5392 H 0.73932 0.70538 0.08737 0.0
H5393 H 0.7472 0.70736 0.09727 0.0
H5394 H 0.74783 0.72507 0.09568 0.0
H5395 H 0.75572 0.73279 0.08229 0.0
H5396 H 0.30142 0.68188 0.13619 0.0
H5397 H 0.2962 0.69018 0.12184 0.0
H5398 H 0.32209 0.70687 0.12191 0.0
H5399 H 0.32727 0.69885 0.13644 0.0
H5400 H 0.29466 0.71132 0.11993 0.0
H5401 H 0.31935 0.69494 0.09441 0.0
H5402 H 0.31627 0.68939 0.10559 0.0
H5403 H 0.3244 0.69929 0.10534 0.0
C5404 C 0.30599 0.68737 0.13323 0.0
C5405 C 0.31478 0.68969 0.13752 0.0
C5406 C 0.30301 0.69206 0.12498 0.0
C5407 C 0.3088 0.69906 0.12079 0.0
C5408 C 0.31758 0.70137 0.12498 0.0
H5409 H 0.304 0.73536 0.07119 0.0
H5410 H 0.30938 0.72604 0.08481 0.0
C5411 C 0.32055 0.69675 0.13327 0.0
C5412 C 0.30549 0.70418 0.1122 0.0
H5413 H 0.30971 0.70723 0.08855 0.0
C5414 C 0.29791 0.71041 0.11305 0.0
C5415 C 0.30981 0.70301 0.10328 0.0
C5416 C 0.31788 0.69626 0.10201 0.0
C5417 C 0.29461 0.71566 0.10523 0.0
C5418 C 0.29884 0.71441 0.09624 0.0
C5419 C 0.30644 0.70815 0.09541 0.0
C5420 C 0.29561 0.71968 0.08768 0.0
C5421 C 0.28683 0.7227 0.10675 0.0
C5422 C 0.28612 0.71902 0.08458 0.0
C5423 C 0.28298 0.72447 0.07688 0.0
C5424 C 0.28929 0.73059 0.07202 0.0
C5425 C 0.29889 0.73089 0.07488 0.0
C5426 C 0.302 0.7255 0.08263 0.0
H5427 H 0.28632 0.72475 0.11432 0.0
H5428 H 0.28802 0.72921 0.10242 0.0
H5429 H 0.27992 0.71946 0.10462 0.0
H5430 H 0.2811 0.7144 0.08821 0.0
H5431 H 0.27553 0.72408 0.07496 0.0
H5432 H 0.31789 0.30962 0.14334 0.0
H5433 H 0.3128 0.3014 0.12891 0.0
H5434 H 0.30399 0.32791 0.11661 0.0
H5435 H 0.30935 0.33622 0.13086 0.0
H5436 H 0.2947 0.30052 0.12101 0.0
H5437 H 0.32014 0.31694 0.09561 0.0
H5438 H 0.32169 0.31775 0.1083 0.0
H5439 H 0.31343 0.32529 0.10223 0.0
C5440 C 0.31502 0.31373 0.13751 0.0
C5441 C 0.31407 0.3236 0.13827 0.0
C5442 C 0.31205 0.30901 0.12929 0.0
C5443 C 0.30813 0.31405 0.12162 0.0
C5444 C 0.30715 0.32389 0.12235 0.0
H5445 H 0.28364 0.29684 0.06718 0.0
H5446 H 0.28924 0.30579 0.08103 0.0
C5447 C 0.31012 0.32862 0.13057 0.0
C5448 C 0.30474 0.30896 0.11302 0.0
H5449 H 0.30776 0.30738 0.08904 0.0
C5450 C 0.29759 0.30199 0.11403 0.0
C5451 C 0.30847 0.31092 0.1039 0.0
C5452 C 0.31641 0.31807 0.10242 0.0
C5453 C 0.29399 0.29701 0.10617 0.0
C5454 C 0.29776 0.29892 0.09706 0.0
C5455 C 0.30487 0.30593 0.09603 0.0
C5456 C 0.29456 0.29355 0.08857 0.0
C5457 C 0.28606 0.28985 0.10766 0.0
C5458 C 0.29584 0.28374 0.08813 0.0
C5459 C 0.29263 0.27861 0.08027 0.0
C5460 C 0.2881 0.28319 0.07261 0.0
C5461 C 0.28699 0.29307 0.07298 0.0
C5462 C 0.29023 0.2982 0.08087 0.0
H5463 H 0.28228 0.29103 0.11443 0.0
H5464 H 0.28083 0.29009 0.10174 0.0
H5465 H 0.28907 0.28264 0.10794 0.0
H5466 H 0.2993 0.28003 0.09391 0.0
H5467 H 0.2935 0.27101 0.0803 0.0
H5468 H 0.72283 0.31054 0.14589 0.0
H5469 H 0.72793 0.30299 0.13128 0.0
H5470 H 0.70392 0.31463 0.11635 0.0
H5471 H 0.69873 0.32216 0.13098 0.0
H5472 H 0.70692 0.29606 0.11167 0.0
H5473 H 0.74053 0.3169 0.10928 0.0
H5474 H 0.73928 0.31058 0.12031 0.0
H5475 H 0.73117 0.31987 0.11735 0.0
C5476 C 0.71866 0.31153 0.13949 0.0
C5477 C 0.71042 0.31703 0.13958 0.0
C5478 C 0.72159 0.30722 0.13114 0.0
C5479 C 0.71642 0.3084 0.12267 0.0
C5480 C 0.70805 0.31366 0.12279 0.0
H5481 H 0.74038 0.29684 0.06724 0.0
H5482 H 0.73269 0.30423 0.08076 0.0
C5483 C 0.70508 0.31793 0.13116 0.0
C5484 C 0.7198 0.30424 0.11368 0.0
H5485 H 0.73879 0.3039 0.09877 0.0
C5486 C 0.71387 0.2978 0.10881 0.0
C5487 C 0.7288 0.30664 0.10987 0.0
C5488 C 0.73528 0.31395 0.11441 0.0
C5489 C 0.71678 0.29354 0.10036 0.0
C5490 C 0.72595 0.29563 0.09677 0.0
C5491 C 0.73179 0.30223 0.10154 0.0
C5492 C 0.72974 0.29104 0.08817 0.0
C5493 C 0.70996 0.28693 0.09529 0.0
C5494 C 0.73056 0.28115 0.08776 0.0
C5495 C 0.7349 0.27691 0.08002 0.0
C5496 C 0.73864 0.28249 0.07257 0.0
C5497 C 0.73763 0.29236 0.07289 0.0
C5498 C 0.73322 0.29659 0.08061 0.0
H5499 H 0.70248 0.28832 0.09723 0.0
H5500 H 0.71066 0.2876 0.08748 0.0
H5501 H 0.71152 0.27952 0.09737 0.0
H5502 H 0.72816 0.27672 0.0936 0.0
H5503 H 0.73572 0.2693 0.08006 0.0
H5504 H 0.72013 0.31399 0.87881 0.0
H5505 H 0.72616 0.30597 0.89299 0.0
H5506 H 0.70059 0.31278 0.90794 0.0
H5507 H 0.69449 0.3208 0.89375 0.0
H5508 H 0.72987 0.3136 0.91035 0.0
H5509 H 0.70297 0.28461 0.91355 0.0
H5510 H 0.70423 0.29175 0.90295 0.0
H5511 H 0.69805 0.29625 0.91303 0.0
C5512 C 0.71578 0.31378 0.88511 0.0
C5513 C 0.70683 0.31804 0.88515 0.0
C5514 C 0.71922 0.30916 0.8932 0.0
C5515 C 0.71379 0.30867 0.9015 0.0
C5516 C 0.70482 0.31288 0.90156 0.0
H5517 H 0.73844 0.29599 0.95718 0.0
H5518 H 0.73013 0.30349 0.94387 0.0
C5519 C 0.70135 0.31747 0.89345 0.0
C5520 C 0.71773 0.30413 0.91018 0.0
H5521 H 0.71392 0.28633 0.92633 0.0
C5522 C 0.72638 0.30763 0.91385 0.0
C5523 C 0.71322 0.29629 0.91468 0.0
C5524 C 0.70415 0.29193 0.91082 0.0
C5525 C 0.73064 0.30354 0.92188 0.0
C5526 C 0.72602 0.29584 0.92652 0.0
C5527 C 0.71739 0.2923 0.92284 0.0
C5528 C 0.73029 0.29111 0.93493 0.0
C5529 C 0.74018 0.30733 0.92518 0.0
C5530 C 0.73279 0.28155 0.93449 0.0
C5531 C 0.7375 0.27723 0.9421 0.0
C5532 C 0.73978 0.28239 0.95033 0.0
C5533 C 0.73692 0.29187 0.95089 0.0
C5534 C 0.73218 0.29617 0.94329 0.0
H5535 H 0.74378 0.31159 0.91957 0.0
H5536 H 0.73917 0.31196 0.9314 0.0
H5537 H 0.74491 0.30147 0.92736 0.0
H5538 H 0.73138 0.27751 0.92811 0.0
H5539 H 0.73968 0.26996 0.94137 0.0
H5540 H 0.68477 0.70956 0.89054 0.0
H5541 H 0.69308 0.71607 0.90434 0.0
H5542 H 0.7182 0.70084 0.8969 0.0
H5543 H 0.71006 0.69459 0.88283 0.0
H5544 H 0.70128 0.7075 0.91979 0.0
H5545 H 0.72835 0.72783 0.89921 0.0
H5546 H 0.71792 0.7226 0.89374 0.0
H5547 H 0.7279 0.71537 0.89678 0.0
C5548 C 0.6921 0.70767 0.89176 0.0
C5549 C 0.69677 0.70163 0.88548 0.0
C5550 C 0.69681 0.71133 0.89971 0.0
C5551 C 0.70631 0.70907 0.90159 0.0
C5552 C 0.71093 0.70283 0.89551 0.0
H5553 H 0.73443 0.72439 0.95558 0.0
H5554 H 0.72758 0.7153 0.94239 0.0
C5555 C 0.70622 0.69918 0.88751 0.0
C5556 C 0.71135 0.71337 0.90984 0.0
H5557 H 0.72988 0.72809 0.91588 0.0
C5558 C 0.70757 0.71197 0.91895 0.0
C5559 C 0.71948 0.71928 0.90873 0.0
C5560 C 0.72363 0.72145 0.89909 0.0
C5561 C 0.71163 0.71638 0.92695 0.0
C5562 C 0.71981 0.72223 0.92583 0.0
C5563 C 0.72366 0.72354 0.91674 0.0
C5564 C 0.72412 0.7276 0.93387 0.0
C5565 C 0.70692 0.71502 0.93645 0.0
C5566 C 0.72471 0.73751 0.93337 0.0
C5567 C 0.72873 0.7427 0.94081 0.0
C5568 C 0.73228 0.73812 0.94897 0.0
C5569 C 0.73179 0.72816 0.94941 0.0
C5570 C 0.72778 0.72295 0.94192 0.0
H5571 H 0.69955 0.71219 0.93572 0.0
H5572 H 0.71104 0.7099 0.94076 0.0
H5573 H 0.70672 0.7218 0.94037 0.0
H5574 H 0.722 0.74126 0.92721 0.0
H5575 H 0.72918 0.75033 0.94009 0.0
H5576 H 0.31236 0.6956 0.88092 0.0
H5577 H 0.30433 0.70097 0.8952 0.0
H5578 H 0.3312 0.7026 0.90997 0.0
H5579 H 0.33929 0.69721 0.89575 0.0
H5580 H 0.30378 0.69306 0.91345 0.0
H5581 H 0.32043 0.72899 0.9139 0.0
H5582 H 0.32091 0.72138 0.9037 0.0
H5583 H 0.32868 0.71943 0.91367 0.0
C5584 C 0.31656 0.69703 0.88723 0.0
C5585 C 0.32649 0.69603 0.88716 0.0
C5586 C 0.31196 0.70013 0.89537 0.0
C5587 C 0.31718 0.70234 0.9036 0.0
C5588 C 0.32706 0.70116 0.90364 0.0
H5589 H 0.2994 0.7244 0.95852 0.0
H5590 H 0.30863 0.71769 0.94558 0.0
C5591 C 0.33167 0.69807 0.8955 0.0
C5592 C 0.31226 0.70582 0.91215 0.0
H5593 H 0.31068 0.7248 0.92691 0.0
C5594 C 0.30529 0.69999 0.91639 0.0
C5595 C 0.31426 0.71486 0.91602 0.0
C5596 C 0.32141 0.72158 0.91156 0.0
C5597 C 0.30028 0.70296 0.92439 0.0
C5598 C 0.30218 0.71205 0.92817 0.0
C5599 C 0.30925 0.71782 0.92403 0.0
C5600 C 0.29659 0.71589 0.93611 0.0
C5601 C 0.29304 0.69629 0.92879 0.0
C5602 C 0.2868 0.71722 0.93504 0.0
C5603 C 0.28153 0.7211 0.94236 0.0
C5604 C 0.28593 0.72377 0.95095 0.0
C5605 C 0.29578 0.72247 0.952 0.0
C5606 C 0.30106 0.7186 0.94463 0.0
H5607 H 0.29433 0.68882 0.92683 0.0
H5608 H 0.29312 0.69684 0.93664 0.0
H5609 H 0.28586 0.69817 0.92619 0.0
H5610 H 0.28324 0.71542 0.92844 0.0
H5611 H 0.27402 0.72221 0.94119 0.0
H5612 H 0.32042 0.30735 0.87784 0.0
H5613 H 0.31442 0.2995 0.89223 0.0
H5614 H 0.30848 0.32668 0.90432 0.0
H5615 H 0.31454 0.33458 0.89006 0.0
H5616 H 0.31998 0.30153 0.91183 0.0
H5617 H 0.28275 0.31227 0.90527 0.0
H5618 H 0.29172 0.31286 0.89619 0.0
H5619 H 0.29126 0.32188 0.9051 0.0
C5620 C 0.31794 0.31167 0.8836 0.0
C5621 C 0.31787 0.3216 0.88274 0.0
C5622 C 0.31448 0.30716 0.8918 0.0
C5623 C 0.31085 0.31251 0.89927 0.0
C5624 C 0.31105 0.32242 0.89856 0.0
H5625 H 0.28255 0.30108 0.95248 0.0
H5626 H 0.29087 0.30814 0.93892 0.0
C5627 C 0.3145 0.32692 0.89039 0.0
C5628 C 0.3067 0.30776 0.90775 0.0
H5629 H 0.2861 0.30527 0.92022 0.0
C5630 C 0.31256 0.3023 0.91366 0.0
C5631 C 0.29702 0.30876 0.9101 0.0
C5632 C 0.29028 0.31418 0.9038 0.0
C5633 C 0.30905 0.29802 0.922 0.0
C5634 C 0.29939 0.29912 0.9244 0.0
C5635 C 0.29352 0.30449 0.91842 0.0
C5636 C 0.29514 0.29477 0.93306 0.0
C5637 C 0.31577 0.29259 0.92831 0.0
C5638 C 0.29484 0.2849 0.93434 0.0
C5639 C 0.29008 0.28084 0.9421 0.0
C5640 C 0.28544 0.28657 0.94868 0.0
C5641 C 0.28596 0.29646 0.94749 0.0
C5642 C 0.29074 0.30051 0.93976 0.0
H5643 H 0.32331 0.29451 0.92684 0.0
H5644 H 0.31433 0.2939 0.93591 0.0
H5645 H 0.3148 0.2849 0.92699 0.0
H5646 H 0.298 0.28032 0.92916 0.0
H5647 H 0.28969 0.2732 0.94271 0.0
H5648 H 0.63224 0.70804 0.19098 0.0
H5649 H 0.61828 0.71371 0.19923 0.0
H5650 H 0.62822 0.70089 0.22523 0.0
H5651 H 0.64243 0.69549 0.21711 0.0
H5652 H 0.60402 0.70412 0.2088 0.0
H5653 H 0.62397 0.72821 0.23303 0.0
H5654 H 0.62937 0.7229 0.22285 0.0
H5655 H 0.62757 0.71608 0.23352 0.0
C5656 C 0.63153 0.7065 0.19848 0.0
C5657 C 0.63854 0.7014 0.2034 0.0
C5658 C 0.62349 0.70968 0.20317 0.0
C5659 C 0.62226 0.70785 0.21288 0.0
C5660 C 0.6291 0.70254 0.21777 0.0
H5661 H 0.56867 0.71944 0.24221 0.0
H5662 H 0.58226 0.71136 0.23539 0.0
C5663 C 0.63717 0.69936 0.21309 0.0
C5664 C 0.61388 0.71166 0.21785 0.0
H5665 H 0.60739 0.72696 0.2352 0.0
C5666 C 0.60474 0.70908 0.21461 0.0
C5667 C 0.61484 0.71821 0.22535 0.0
C5668 C 0.62445 0.7216 0.22886 0.0
C5669 C 0.59656 0.71294 0.21861 0.0
C5670 C 0.59753 0.71943 0.22616 0.0
C5671 C 0.60666 0.72193 0.22946 0.0
C5672 C 0.58922 0.7242 0.23035 0.0
C5673 C 0.58697 0.71028 0.21449 0.0
C5674 C 0.58871 0.7341 0.22998 0.0
C5675 C 0.58104 0.73874 0.23396 0.0
C5676 C 0.57366 0.73358 0.23843 0.0
C5677 C 0.57421 0.72364 0.23885 0.0
C5678 C 0.58194 0.719 0.23487 0.0
H5679 H 0.58759 0.707 0.20739 0.0
H5680 H 0.5834 0.70508 0.21926 0.0
H5681 H 0.5824 0.71658 0.21384 0.0
H5682 H 0.59428 0.73827 0.2266 0.0
H5683 H 0.58099 0.7464 0.23369 0.0
H5684 H 0.31566 0.63458 0.2271 0.0
H5685 H 0.3063 0.62111 0.23313 0.0
H5686 H 0.30828 0.60744 0.206 0.0
H5687 H 0.31783 0.6208 0.19996 0.0
H5688 H 0.28874 0.61374 0.22583 0.0
H5689 H 0.31734 0.58709 0.22516 0.0
H5690 H 0.31977 0.59967 0.22451 0.0
H5691 H 0.3154 0.59348 0.21426 0.0
C5692 C 0.31419 0.62867 0.22244 0.0
C5693 C 0.31754 0.62875 0.21306 0.0
C5694 C 0.30879 0.621 0.22588 0.0
C5695 C 0.30671 0.61323 0.22006 0.0
C5696 C 0.30994 0.61331 0.21066 0.0
H5697 H 0.2757 0.56019 0.23119 0.0
H5698 H 0.28494 0.57312 0.22385 0.0
C5699 C 0.31531 0.62099 0.20719 0.0
C5700 C 0.301 0.60512 0.2238 0.0
H5701 H 0.30202 0.58159 0.22944 0.0
C5702 C 0.29163 0.60671 0.22663 0.0
C5703 C 0.30479 0.59595 0.22477 0.0
C5704 C 0.3149 0.59391 0.22209 0.0
C5705 C 0.28592 0.59936 0.23037 0.0
C5706 C 0.28977 0.59022 0.23152 0.0
C5707 C 0.29909 0.5886 0.22857 0.0
C5708 C 0.28428 0.58233 0.23601 0.0
C5709 C 0.27579 0.60144 0.23293 0.0
C5710 C 0.281 0.58314 0.24533 0.0
C5711 C 0.27567 0.57582 0.24951 0.0
C5712 C 0.27357 0.56746 0.24449 0.0
C5713 C 0.27707 0.56658 0.23521 0.0
C5714 C 0.2824 0.57393 0.23103 0.0
H5715 H 0.27316 0.6078 0.22911 0.0
H5716 H 0.271 0.59534 0.23127 0.0
H5717 H 0.27538 0.60282 0.24065 0.0
H5718 H 0.28253 0.58948 0.24938 0.0
H5719 H 0.27301 0.57682 0.25661 0.0
H5720 H 0.37995 0.30147 0.20601 0.0
H5721 H 0.39407 0.29606 0.21452 0.0
H5722 H 0.40501 0.32473 0.21537 0.0
H5723 H 0.39091 0.33021 0.20682 0.0
H5724 H 0.41294 0.29763 0.20908 0.0
H5725 H 0.40723 0.31628 0.24304 0.0
H5726 H 0.398 0.31491 0.23419 0.0
H5727 H 0.40717 0.3238 0.23271 0.0
C5728 C 0.38537 0.30663 0.20798 0.0
C5729 C 0.38428 0.31628 0.20573 0.0
C5730 C 0.39342 0.30353 0.21288 0.0
C5731 C 0.40055 0.31 0.21569 0.0
C5732 C 0.39951 0.31964 0.21346 0.0
H5733 H 0.45442 0.30224 0.24581 0.0
H5734 H 0.44118 0.30876 0.23663 0.0
C5735 C 0.39144 0.32275 0.20857 0.0
C5736 C 0.40917 0.30658 0.2207 0.0
H5737 H 0.4218 0.30834 0.24142 0.0
C5738 C 0.41487 0.29996 0.21615 0.0
C5739 C 0.41171 0.30966 0.22992 0.0
C5740 C 0.40568 0.31649 0.23531 0.0
C5741 C 0.42305 0.29636 0.22055 0.0
C5742 C 0.42553 0.29935 0.22981 0.0
C5743 C 0.4199 0.30607 0.23431 0.0
C5744 C 0.43372 0.29535 0.23509 0.0
C5745 C 0.42904 0.28947 0.2152 0.0
C5746 C 0.4339 0.28565 0.23732 0.0
C5747 C 0.44142 0.28191 0.24259 0.0
C5748 C 0.44893 0.28779 0.2458 0.0
C5749 C 0.44874 0.29751 0.24352 0.0
C5750 C 0.44119 0.30125 0.23825 0.0
H5751 H 0.42774 0.28993 0.20743 0.0
H5752 H 0.43672 0.29075 0.21661 0.0
H5753 H 0.42721 0.28215 0.21755 0.0
H5754 H 0.42811 0.281 0.23515 0.0
H5755 H 0.4412 0.27445 0.24439 0.0
H5756 H 0.69499 0.38921 0.21719 0.0
H5757 H 0.70378 0.4031 0.22292 0.0
H5758 H 0.72986 0.3915 0.21264 0.0
H5759 H 0.72113 0.37748 0.20697 0.0
H5760 H 0.71873 0.40311 0.23632 0.0
H5761 H 0.73031 0.41877 0.20192 0.0
H5762 H 0.7209 0.40997 0.20275 0.0
H5763 H 0.73308 0.40651 0.20374 0.0
C5764 C 0.7026 0.38957 0.21617 0.0
C5765 C 0.70735 0.38218 0.21165 0.0
C5766 C 0.70761 0.39755 0.2194 0.0
C5767 C 0.71745 0.39839 0.21812 0.0
C5768 C 0.72223 0.39109 0.21354 0.0
H5769 H 0.75876 0.44109 0.23717 0.0
H5770 H 0.75083 0.42762 0.22943 0.0
C5771 C 0.71722 0.38308 0.2103 0.0
C5772 C 0.72272 0.40669 0.22202 0.0
H5773 H 0.73616 0.42613 0.21586 0.0
C5774 C 0.72252 0.40815 0.23185 0.0
C5775 C 0.72774 0.41322 0.21617 0.0
C5776 C 0.72799 0.41212 0.20555 0.0
C5777 C 0.72721 0.41594 0.23601 0.0
C5778 C 0.73206 0.42259 0.23015 0.0
C5779 C 0.7324 0.42106 0.22033 0.0
C5780 C 0.73676 0.43119 0.23415 0.0
C5781 C 0.72706 0.41688 0.24666 0.0
C5782 C 0.73144 0.43784 0.23909 0.0
C5783 C 0.73595 0.44554 0.24351 0.0
C5784 C 0.74586 0.4468 0.243 0.0
C5785 C 0.75111 0.44037 0.23765 0.0
C5786 C 0.7466 0.43264 0.23326 0.0
H5787 H 0.72538 0.41001 0.25021 0.0
H5788 H 0.73399 0.41958 0.24941 0.0
H5789 H 0.72151 0.42197 0.24864 0.0
H5790 H 0.72381 0.43699 0.23967 0.0
H5791 H 0.73168 0.45045 0.24743 0.0
H5792 H 0.63582 0.29648 0.82306 0.0
H5793 H 0.62193 0.29103 0.81401 0.0
H5794 H 0.61556 0.31989 0.80651 0.0
H5795 H 0.62938 0.32544 0.81565 0.0
H5796 H 0.60255 0.29584 0.81628 0.0
H5797 H 0.61619 0.30631 0.78075 0.0
H5798 H 0.62379 0.3055 0.79108 0.0
H5799 H 0.61631 0.31556 0.78943 0.0
C5800 C 0.63143 0.30169 0.81956 0.0
C5801 C 0.63374 0.31141 0.82007 0.0
C5802 C 0.62352 0.29855 0.81435 0.0
C5803 C 0.61779 0.30505 0.8095 0.0
C5804 C 0.62 0.31475 0.81006 0.0
H5805 H 0.56882 0.29755 0.77197 0.0
H5806 H 0.58133 0.30415 0.78222 0.0
C5807 C 0.62791 0.3179 0.81527 0.0
C5808 C 0.60946 0.30164 0.80391 0.0
H5809 H 0.60042 0.30038 0.78141 0.0
C5810 C 0.60207 0.29682 0.80866 0.0
C5811 C 0.60885 0.30296 0.79398 0.0
C5812 C 0.61673 0.30779 0.78847 0.0
C5813 C 0.59405 0.29335 0.80373 0.0
C5814 C 0.5935 0.29457 0.79377 0.0
C5815 C 0.60085 0.29947 0.78905 0.0
C5816 C 0.5855 0.29061 0.78805 0.0
C5817 C 0.58618 0.28854 0.80926 0.0
C5818 C 0.58367 0.28081 0.78793 0.0
C5819 C 0.57653 0.27702 0.78207 0.0
C5820 C 0.57113 0.28295 0.77615 0.0
C5821 C 0.5729 0.29278 0.77638 0.0
C5822 C 0.58003 0.29657 0.78226 0.0
H5823 H 0.58637 0.2906 0.81685 0.0
H5824 H 0.57911 0.29028 0.80624 0.0
H5825 H 0.58704 0.28076 0.80892 0.0
H5826 H 0.58795 0.27605 0.79216 0.0
H5827 H 0.57548 0.26941 0.78194 0.0
H5828 H 0.6913 0.62389 0.81678 0.0
H5829 H 0.69744 0.61026 0.80829 0.0
H5830 H 0.72599 0.61831 0.81646 0.0
H5831 H 0.71995 0.63211 0.82469 0.0
H5832 H 0.72438 0.6138 0.7975 0.0
H5833 H 0.70764 0.58577 0.81991 0.0
H5834 H 0.69947 0.59423 0.81512 0.0
H5835 H 0.70841 0.59801 0.82349 0.0
C5836 C 0.69889 0.6228 0.81672 0.0
C5837 C 0.70512 0.62908 0.82147 0.0
C5838 C 0.70238 0.61493 0.81196 0.0
C5839 C 0.71216 0.61317 0.81187 0.0
C5840 C 0.71841 0.61948 0.8165 0.0
H5841 H 0.74141 0.56228 0.79483 0.0
H5842 H 0.73448 0.57536 0.8036 0.0
C5843 C 0.71493 0.62734 0.82126 0.0
C5844 C 0.71596 0.6049 0.80675 0.0
H5845 H 0.7153 0.58072 0.80592 0.0
C5846 C 0.7224 0.60657 0.79935 0.0
C5847 C 0.71346 0.59546 0.80925 0.0
C5848 C 0.70694 0.59322 0.81743 0.0
C5849 C 0.72632 0.59906 0.79429 0.0
C5850 C 0.72362 0.58963 0.79661 0.0
C5851 C 0.71728 0.58795 0.8041 0.0
C5852 C 0.7274 0.58144 0.79138 0.0
C5853 C 0.73346 0.60129 0.78663 0.0
C5854 C 0.72555 0.5804 0.78165 0.0
C5855 C 0.72953 0.57297 0.77662 0.0
C5856 C 0.73541 0.56638 0.78122 0.0
C5857 C 0.73701 0.56728 0.79104 0.0
C5858 C 0.73302 0.57472 0.79607 0.0
H5859 H 0.73651 0.60856 0.78733 0.0
H5860 H 0.73935 0.59616 0.7868 0.0
H5861 H 0.7299 0.6008 0.7796 0.0
H5862 H 0.72112 0.58542 0.77791 0.0
H5863 H 0.72821 0.57256 0.76906 0.0
H5864 H 0.39582 0.67945 0.80746 0.0
H5865 H 0.40955 0.68799 0.80093 0.0
H5866 H 0.39773 0.71447 0.80966 0.0
H5867 H 0.38389 0.70599 0.81613 0.0
H5868 H 0.40903 0.70183 0.78655 0.0
H5869 H 0.42528 0.71621 0.81957 0.0
H5870 H 0.41658 0.70666 0.81966 0.0
H5871 H 0.41289 0.71866 0.81791 0.0
C5872 C 0.39612 0.6871 0.80799 0.0
C5873 C 0.38872 0.69203 0.8123 0.0
C5874 C 0.40401 0.69196 0.80431 0.0
C5875 C 0.40472 0.70185 0.8049 0.0
C5876 C 0.39742 0.70682 0.80929 0.0
H5877 H 0.44506 0.74321 0.78174 0.0
H5878 H 0.43223 0.73517 0.79044 0.0
C5879 C 0.38951 0.70195 0.81299 0.0
C5880 C 0.41285 0.70697 0.80042 0.0
H5881 H 0.43198 0.72146 0.80503 0.0
C5882 C 0.41407 0.70609 0.7906 0.0
C5883 C 0.41937 0.71258 0.8057 0.0
C5884 C 0.41855 0.71355 0.81631 0.0
C5885 C 0.42158 0.71073 0.78589 0.0
C5886 C 0.42819 0.71624 0.79118 0.0
C5887 C 0.42693 0.7172 0.801 0.0
C5888 C 0.43644 0.72106 0.78659 0.0
C5889 C 0.42225 0.70985 0.77525 0.0
C5890 C 0.44325 0.71579 0.78181 0.0
C5891 C 0.45058 0.72035 0.77685 0.0
C5892 C 0.45132 0.73029 0.77664 0.0
C5893 C 0.44475 0.73555 0.78181 0.0
C5894 C 0.43738 0.73097 0.78675 0.0
H5895 H 0.41536 0.70758 0.77204 0.0
H5896 H 0.42451 0.71667 0.77194 0.0
H5897 H 0.42759 0.70445 0.77353 0.0
H5898 H 0.4428 0.70812 0.78179 0.0
H5899 H 0.45563 0.7161 0.77308 0.0
H5900 H 0.3359 0.39262 0.80379 0.0
H5901 H 0.3272 0.40642 0.79812 0.0
H5902 H 0.30117 0.39426 0.809 0.0
H5903 H 0.30977 0.38035 0.81459 0.0
H5904 H 0.31189 0.40657 0.78509 0.0
H5905 H 0.30155 0.42124 0.81987 0.0
H5906 H 0.31077 0.41259 0.81871 0.0
H5907 H 0.29849 0.40896 0.81824 0.0
C5908 C 0.32831 0.39284 0.80496 0.0
C5909 C 0.32354 0.38535 0.80966 0.0
C5910 C 0.32337 0.40077 0.80175 0.0
C5911 C 0.31356 0.40142 0.80324 0.0
C5912 C 0.30877 0.39399 0.80795 0.0
H5913 H 0.26986 0.44088 0.78708 0.0
H5914 H 0.27931 0.42813 0.79391 0.0
C5915 C 0.3137 0.38605 0.81115 0.0
C5916 C 0.30831 0.4097 0.79952 0.0
H5917 H 0.29459 0.4282 0.80618 0.0
C5918 C 0.30815 0.41134 0.78969 0.0
C5919 C 0.30342 0.41589 0.80555 0.0
C5920 C 0.30361 0.41466 0.81619 0.0
C5921 C 0.30306 0.41888 0.7857 0.0
C5922 C 0.29817 0.42508 0.79173 0.0
C5923 C 0.29836 0.42346 0.80157 0.0
C5924 C 0.2926 0.43313 0.78793 0.0
C5925 C 0.30274 0.41994 0.77504 0.0
C5926 C 0.29695 0.44033 0.78248 0.0
C5927 C 0.29156 0.44764 0.77856 0.0
C5928 C 0.28171 0.44797 0.78011 0.0
C5929 C 0.27744 0.44091 0.78584 0.0
C5930 C 0.28282 0.43359 0.78971 0.0
H5931 H 0.30469 0.41329 0.77144 0.0
H5932 H 0.29556 0.42201 0.77257 0.0
H5933 H 0.30788 0.42555 0.77283 0.0
H5934 H 0.30453 0.44026 0.78121 0.0
H5935 H 0.29509 0.45304 0.77431 0.0
H5936 H 0.71327 0.62933 0.19724 0.0
H5937 H 0.72234 0.61579 0.20291 0.0
H5938 H 0.70766 0.61652 0.22962 0.0
H5939 H 0.69887 0.63032 0.22418 0.0
H5940 H 0.72648 0.61447 0.23216 0.0
H5941 H 0.71341 0.58853 0.20563 0.0
H5942 H 0.71856 0.59901 0.20036 0.0
H5943 H 0.70792 0.59985 0.20728 0.0
C5944 C 0.71201 0.62667 0.20435 0.0
C5945 C 0.70529 0.63092 0.21023 0.0
C5946 C 0.71711 0.61882 0.20753 0.0
C5947 C 0.71555 0.615 0.21662 0.0
C5948 C 0.70892 0.61928 0.22254 0.0
H5949 H 0.73646 0.56056 0.23735 0.0
H5950 H 0.72651 0.57359 0.23183 0.0
C5951 C 0.70384 0.62714 0.21938 0.0
C5952 C 0.72106 0.60676 0.22012 0.0
H5953 H 0.72661 0.58386 0.21516 0.0
C5954 C 0.72647 0.60776 0.22846 0.0
C5955 C 0.72093 0.59795 0.21539 0.0
C5956 C 0.71482 0.59621 0.20672 0.0
C5957 C 0.73191 0.60029 0.23209 0.0
C5958 C 0.73212 0.59163 0.22713 0.0
C5959 C 0.72653 0.59054 0.2189 0.0
C5960 C 0.73816 0.58366 0.23032 0.0
C5961 C 0.73727 0.60173 0.24129 0.0
C5962 C 0.74803 0.58492 0.23115 0.0
C5963 C 0.75371 0.57754 0.23439 0.0
C5964 C 0.74968 0.56864 0.23676 0.0
C5965 C 0.7398 0.56733 0.23571 0.0
C5966 C 0.7341 0.57476 0.2325 0.0
H5967 H 0.73419 0.6075 0.24554 0.0
H5968 H 0.73726 0.59515 0.24565 0.0
H5969 H 0.74474 0.60375 0.23971 0.0
H5970 H 0.75135 0.59166 0.22933 0.0
H5971 H 0.76126 0.57888 0.23522 0.0
H5972 H 0.7013 0.3775 0.7984 0.0
H5973 H 0.71004 0.39149 0.79267 0.0
H5974 H 0.70887 0.40372 0.82056 0.0
H5975 H 0.70011 0.38974 0.82635 0.0
H5976 H 0.70444 0.41013 0.79233 0.0
H5977 H 0.73702 0.40614 0.81435 0.0
H5978 H 0.72832 0.39672 0.81297 0.0
H5979 H 0.72618 0.40629 0.82096 0.0
C5980 C 0.70288 0.38318 0.80331 0.0
C5981 C 0.70002 0.38249 0.81284 0.0
C5982 C 0.70791 0.39115 0.80004 0.0
C5983 C 0.71022 0.3986 0.80621 0.0
C5984 C 0.70735 0.39797 0.81571 0.0
H5985 H 0.74002 0.45263 0.79628 0.0
H5986 H 0.73058 0.43964 0.80326 0.0
C5987 C 0.70234 0.38998 0.81901 0.0
C5988 C 0.71541 0.40711 0.80259 0.0
H5989 H 0.7359 0.42017 0.80514 0.0
C5990 C 0.71132 0.41232 0.79513 0.0
C5991 C 0.72437 0.40998 0.80627 0.0
C5992 C 0.72929 0.40446 0.81402 0.0
C5993 C 0.71595 0.42033 0.79126 0.0
C5994 C 0.72496 0.42313 0.79486 0.0
C5995 C 0.72898 0.41802 0.80241 0.0
C5996 C 0.73049 0.43109 0.7906 0.0
C5997 C 0.71113 0.42577 0.78339 0.0
C5998 C 0.73364 0.43054 0.78121 0.0
C5999 C 0.73909 0.43789 0.77723 0.0
C6000 C 0.74152 0.44597 0.78256 0.0
C6001 C 0.73835 0.44649 0.79199 0.0
C6002 C 0.73292 0.4391 0.79598 0.0
H6003 H 0.70337 0.42427 0.78314 0.0
H6004 H 0.71231 0.43351 0.78423 0.0
H6005 H 0.71416 0.42368 0.77648 0.0
H6006 H 0.73202 0.42433 0.777 0.0
H6007 H 0.74158 0.43712 0.77004 0.0
H6008 H 0.62404 0.68136 0.81034 0.0
H6009 H 0.61062 0.69015 0.80381 0.0
H6010 H 0.62658 0.71627 0.80681 0.0
H6011 H 0.64012 0.70753 0.8131 0.0
H6012 H 0.60021 0.70492 0.81195 0.0
H6013 H 0.61811 0.71672 0.77886 0.0
H6014 H 0.62267 0.70737 0.78633 0.0
H6015 H 0.62456 0.71955 0.78953 0.0
C6016 C 0.62473 0.68896 0.80953 0.0
C6017 C 0.6332 0.69372 0.81219 0.0
C6018 C 0.61703 0.69398 0.80586 0.0
C6019 C 0.61765 0.70384 0.80469 0.0
C6020 C 0.626 0.70864 0.80749 0.0
H6021 H 0.58153 0.74809 0.78358 0.0
H6022 H 0.59408 0.73842 0.79038 0.0
C6023 C 0.6337 0.70364 0.81119 0.0
C6024 C 0.60954 0.70913 0.80059 0.0
H6025 H 0.60324 0.72358 0.78214 0.0
C6026 C 0.60084 0.70896 0.8054 0.0
C6027 C 0.61037 0.71437 0.79203 0.0
C6028 C 0.6194 0.71447 0.78632 0.0
C6029 C 0.59303 0.71412 0.80203 0.0
C6030 C 0.59391 0.71946 0.79353 0.0
C6031 C 0.60258 0.71952 0.78866 0.0
C6032 C 0.58604 0.72526 0.78967 0.0
C6033 C 0.58403 0.71406 0.80776 0.0
C6034 C 0.57732 0.72109 0.78696 0.0
C6035 C 0.57005 0.72664 0.78313 0.0
C6036 C 0.57137 0.73647 0.78192 0.0
C6037 C 0.58016 0.74059 0.7846 0.0
C6038 C 0.58739 0.73505 0.78842 0.0
H6039 H 0.58527 0.7116 0.81516 0.0
H6040 H 0.58091 0.72123 0.80794 0.0
H6041 H 0.57875 0.70918 0.80443 0.0
H6042 H 0.57617 0.71352 0.78768 0.0
H6043 H 0.56339 0.72323 0.78117 0.0
H6044 H 0.32943 0.62301 0.81461 0.0
H6045 H 0.32337 0.60987 0.80496 0.0
H6046 H 0.29467 0.61845 0.81023 0.0
H6047 H 0.30065 0.63176 0.81964 0.0
H6048 H 0.31129 0.59483 0.81014 0.0
H6049 H 0.29535 0.61644 0.78131 0.0
H6050 H 0.30364 0.62132 0.78986 0.0
H6051 H 0.29138 0.61946 0.79295 0.0
C6052 C 0.32183 0.62218 0.81362 0.0
C6053 C 0.31553 0.62848 0.81788 0.0
C6054 C 0.31838 0.61462 0.80816 0.0
C6055 C 0.30857 0.61325 0.80677 0.0
C6056 C 0.30227 0.61946 0.81107 0.0
H6057 H 0.27829 0.56288 0.78717 0.0
H6058 H 0.28551 0.57562 0.79657 0.0
C6059 C 0.3057 0.62701 0.81654 0.0
C6060 C 0.30493 0.60523 0.80095 0.0
H6061 H 0.29155 0.59998 0.78133 0.0
C6062 C 0.307 0.59595 0.80381 0.0
C6063 C 0.29944 0.60671 0.79264 0.0
C6064 C 0.29738 0.61652 0.78894 0.0
C6065 C 0.30358 0.58809 0.79869 0.0
C6066 C 0.29781 0.58956 0.79057 0.0
C6067 C 0.2959 0.59885 0.78761 0.0
C6068 C 0.29371 0.58158 0.78499 0.0
C6069 C 0.30627 0.57829 0.80195 0.0
C6070 C 0.29581 0.58076 0.77532 0.0
C6071 C 0.29162 0.57355 0.7699 0.0
C6072 C 0.28519 0.56701 0.77402 0.0
C6073 C 0.28316 0.56781 0.78375 0.0
C6074 C 0.28736 0.57503 0.78916 0.0
H6075 H 0.31266 0.57845 0.80661 0.0
H6076 H 0.30032 0.57509 0.80606 0.0
H6077 H 0.30767 0.57365 0.79581 0.0
H6078 H 0.30063 0.58577 0.77193 0.0
H6079 H 0.29322 0.57327 0.76241 0.0
H6080 H 0.38041 0.30178 0.80789 0.0
H6081 H 0.39452 0.29575 0.80004 0.0
H6082 H 0.41166 0.3178 0.81288 0.0
H6083 H 0.39759 0.32382 0.82086 0.0
H6084 H 0.40813 0.30598 0.78744 0.0
H6085 H 0.42416 0.29197 0.82081 0.0
H6086 H 0.41171 0.2947 0.81981 0.0
H6087 H 0.42038 0.30407 0.82089 0.0
C6088 C 0.38719 0.30534 0.80906 0.0
C6089 C 0.38789 0.31324 0.81505 0.0
C6090 C 0.39522 0.30192 0.80452 0.0
C6091 C 0.40414 0.30628 0.80595 0.0
C6092 C 0.40485 0.31429 0.81175 0.0
H6093 H 0.45663 0.29284 0.77578 0.0
H6094 H 0.44356 0.30142 0.78301 0.0
C6095 C 0.3968 0.31776 0.81625 0.0
C6096 C 0.4127 0.30226 0.80156 0.0
H6097 H 0.43286 0.29009 0.80676 0.0
C6098 C 0.41358 0.30257 0.79165 0.0
C6099 C 0.41974 0.29775 0.80709 0.0
C6100 C 0.41898 0.29701 0.81774 0.0
C6101 C 0.42133 0.29843 0.78712 0.0
C6102 C 0.42835 0.2939 0.79265 0.0
C6103 C 0.42749 0.29364 0.80256 0.0
C6104 C 0.43632 0.28883 0.78825 0.0
C6105 C 0.42182 0.29867 0.77643 0.0
C6106 C 0.43662 0.27894 0.7889 0.0
C6107 C 0.44401 0.27401 0.78472 0.0
C6108 C 0.45135 0.27888 0.77989 0.0
C6109 C 0.45106 0.28884 0.77934 0.0
C6110 C 0.44361 0.29376 0.78349 0.0
H6111 H 0.41513 0.30122 0.77314 0.0
H6112 H 0.42771 0.30349 0.77421 0.0
H6113 H 0.42332 0.29152 0.77367 0.0
H6114 H 0.43105 0.275 0.79252 0.0
H6115 H 0.44384 0.26636 0.78513 0.0
H6116 H 0.33124 0.39561 0.21415 0.0
H6117 H 0.32257 0.40886 0.22078 0.0
H6118 H 0.29636 0.39282 0.2184 0.0
H6119 H 0.30501 0.37943 0.21199 0.0
H6120 H 0.3072 0.41927 0.21304 0.0
H6121 H 0.29729 0.40065 0.24648 0.0
H6122 H 0.30635 0.39637 0.23868 0.0
H6123 H 0.29401 0.39452 0.2358 0.0
C6124 C 0.32364 0.39486 0.2151 0.0
C6125 C 0.31884 0.38641 0.21262 0.0
C6126 C 0.31869 0.40248 0.21882 0.0
C6127 C 0.30885 0.40178 0.22021 0.0
C6128 C 0.30398 0.39346 0.21753 0.0
H6129 H 0.26779 0.43853 0.24616 0.0
H6130 H 0.27574 0.42599 0.23765 0.0
C6131 C 0.30893 0.38584 0.21378 0.0
C6132 C 0.30371 0.40975 0.22453 0.0
H6133 H 0.29082 0.41579 0.24393 0.0
C6134 C 0.30362 0.41853 0.2198 0.0
C6135 C 0.29906 0.40875 0.23335 0.0
C6136 C 0.29922 0.3996 0.23894 0.0
C6137 C 0.29887 0.42631 0.22358 0.0
C6138 C 0.29426 0.42533 0.23243 0.0
C6139 C 0.29434 0.41653 0.23714 0.0
C6140 C 0.28933 0.43332 0.23699 0.0
C6141 C 0.29868 0.43544 0.21796 0.0
C6142 C 0.29431 0.44166 0.23943 0.0
C6143 C 0.28974 0.44892 0.24421 0.0
C6144 C 0.28011 0.44797 0.24672 0.0
C6145 C 0.27514 0.43962 0.24419 0.0
C6146 C 0.27971 0.43238 0.23939 0.0
H6147 H 0.30014 0.43426 0.21033 0.0
H6148 H 0.2917 0.43892 0.21859 0.0
H6149 H 0.30424 0.44035 0.22075 0.0
H6150 H 0.30178 0.44247 0.23783 0.0
H6151 H 0.29377 0.45526 0.246 0.0
H6152 H 0.63598 0.32612 0.21101 0.0
H6153 H 0.62193 0.32087 0.21985 0.0
H6154 H 0.62518 0.29256 0.20929 0.0
H6155 H 0.63942 0.29764 0.20073 0.0
H6156 H 0.605 0.31298 0.21339 0.0
H6157 H 0.6233 0.28814 0.23776 0.0
H6158 H 0.62965 0.29672 0.23058 0.0
H6159 H 0.62536 0.28583 0.22545 0.0
C6160 C 0.63379 0.31874 0.21067 0.0
C6161 C 0.63888 0.3123 0.20518 0.0
C6162 C 0.6257 0.31577 0.21567 0.0
C6163 C 0.62257 0.30629 0.21534 0.0
C6164 C 0.62756 0.29987 0.20979 0.0
H6165 H 0.56692 0.28415 0.23266 0.0
H6166 H 0.58068 0.28978 0.22357 0.0
C6167 C 0.63564 0.30282 0.2048 0.0
C6168 C 0.61403 0.30314 0.22072 0.0
H6169 H 0.60644 0.28759 0.23783 0.0
C6170 C 0.60531 0.30745 0.21876 0.0
C6171 C 0.61447 0.296 0.2278 0.0
C6172 C 0.62371 0.29146 0.2306 0.0
C6173 C 0.59699 0.30473 0.2236 0.0
C6174 C 0.59738 0.29738 0.23047 0.0
C6175 C 0.60613 0.29315 0.2325 0.0
C6176 C 0.58888 0.29414 0.23587 0.0
C6177 C 0.58792 0.30988 0.22145 0.0
C6178 C 0.58897 0.29452 0.24581 0.0
C6179 C 0.5812 0.29118 0.25102 0.0
C6180 C 0.5731 0.28737 0.24642 0.0
C6181 C 0.57302 0.28701 0.23644 0.0
C6182 C 0.58085 0.29033 0.23123 0.0
H6183 H 0.58933 0.31684 0.21796 0.0
H6184 H 0.58346 0.30555 0.21656 0.0
H6185 H 0.58381 0.31105 0.22802 0.0
H6186 H 0.59512 0.29736 0.24956 0.0
H6187 H 0.58164 0.2914 0.25869 0.0
H6188 H 0.39097 0.68471 0.20854 0.0
H6189 H 0.40481 0.6909 0.21725 0.0
H6190 H 0.39863 0.71911 0.20738 0.0
H6191 H 0.38463 0.71306 0.19893 0.0
H6192 H 0.42075 0.70076 0.21028 0.0
H6193 H 0.40123 0.72253 0.23601 0.0
H6194 H 0.39543 0.71357 0.22886 0.0
H6195 H 0.39828 0.72501 0.22384 0.0
C6196 C 0.39248 0.69225 0.20832 0.0
C6197 C 0.38665 0.69839 0.20305 0.0
C6198 C 0.40044 0.69576 0.21325 0.0
C6199 C 0.40268 0.70548 0.21307 0.0
C6200 C 0.39694 0.71161 0.20776 0.0
H6201 H 0.44674 0.74143 0.23761 0.0
H6202 H 0.43365 0.73473 0.2282 0.0
C6203 C 0.389 0.70811 0.20283 0.0
C6204 C 0.41112 0.70921 0.2183 0.0
H6205 H 0.41797 0.72477 0.23556 0.0
C6206 C 0.42015 0.70597 0.21585 0.0
C6207 C 0.41032 0.71601 0.22555 0.0
C6208 C 0.40079 0.71943 0.2288 0.0
C6209 C 0.42841 0.70951 0.22032 0.0
C6210 C 0.4276 0.71636 0.22752 0.0
C6211 C 0.41857 0.71956 0.23 0.0
C6212 C 0.43601 0.72026 0.23267 0.0
C6213 C 0.43795 0.70605 0.21715 0.0
C6214 C 0.44172 0.71435 0.23827 0.0
C6215 C 0.44925 0.71816 0.24361 0.0
C6216 C 0.45119 0.72797 0.2435 0.0
C6217 C 0.44555 0.73384 0.23775 0.0
C6218 C 0.43801 0.73003 0.23242 0.0
H6219 H 0.43752 0.70273 0.21004 0.0
H6220 H 0.44326 0.71194 0.21692 0.0
H6221 H 0.44051 0.70065 0.22227 0.0
H6222 H 0.44021 0.70682 0.23869 0.0
H6223 H 0.45349 0.71343 0.24792 0.0
loop_
_geom_bond_atom_site_label_1
_geom_bond_atom_site_label_2
_geom_bond_distance
_geom_bond_site_symmetry_2
_ccdc_geom_bond_type
C0 C1 1.264 . S
C0 C5 1.479 . S
C0 C10 1.465 . S
C1 C0 1.264 . S
C1 C3 1.339 . S
C1 H28 0.931 . S
C2 C3 1.395 . S
C2 C4 1.320 . S
C3 C1 1.339 . S
C3 C2 1.395 . S
C3 H29 0.929 . S
C4 C2 1.320 . S
C4 C5 1.405 . S
C4 H30 0.930 . S
C5 C0 1.479 . S
C5 C4 1.405 . S
C5 H31 0.931 . S
U6 O7 2.454 . S
U6 O8 2.458 . S
U6 C9 2.984 . S
U6 C10 2.847 . S
U6 C23 2.882 . S
U6 O24 2.441 . S
U6 O25 2.420 . S
U6 O26 2.455 . S
U6 O27 2.449 . S
O7 U6 2.454 . S
O7 C9 1.353 . S
O8 U6 2.458 . S
O8 C9 1.286 . S
C9 U6 2.984 . S
C9 O7 1.353 . S
C9 O8 1.286 . S
C9 C11 1.363 . S
C10 C0 1.465 . S
C10 U6 2.847 . S
C10 O24 1.249 . S
C10 O25 1.202 . S
C11 C9 1.363 . S
C11 C13 1.408 . S
C11 C16 1.342 . S
C12 C13 1.310 . S
C12 C15 1.461 . S
C12 H32 0.932 . S
C13 C11 1.408 . S
C13 C12 1.310 . S
C13 H33 0.930 . S
C14 C15 1.474 . S
C14 C16 1.285 . S
C14 H34 0.929 . S
C15 C12 1.461 . S
C15 C14 1.474 . S
C16 C11 1.342 . S
C16 C14 1.285 . S
C16 H35 0.930 . S
C17 C20 1.424 . S
C17 C22 1.245 . S
C17 C23 1.428 . S
C18 C21 1.260 . S
C18 C22 1.477 . S
C18 H36 0.932 . S
C19 C20 1.384 . S
C19 C21 1.479 . S
C19 H37 0.929 . S
C20 C17 1.424 . S
C20 C19 1.384 . S
C20 H38 0.928 . S
C21 C18 1.260 . S
C21 C19 1.479 . S
C22 C17 1.245 . S
C22 C18 1.477 . S
C22 H39 0.932 . S
C23 U6 2.882 . S
C23 C17 1.428 . S
C23 O26 1.301 . S
C23 O27 1.282 . S
O24 U6 2.441 . S
O24 C10 1.249 . S
O25 U6 2.420 . S
O25 C10 1.202 . S
O26 U6 2.455 . S
O26 C23 1.301 . S
O27 U6 2.449 . S
O27 C23 1.282 . S
H28 C1 0.931 . S
H29 C3 0.929 . S
H30 C4 0.930 . S
H31 C5 0.931 . S
H32 C12 0.932 . S
H33 C13 0.930 . S
H34 C14 0.929 . S
H35 C16 0.930 . S
H36 C18 0.932 . S
H37 C19 0.929 . S
H38 C20 0.928 . S
H39 C22 0.932 . S
C40 C41 1.264 . S
C40 C45 1.479 . S
C40 C50 1.465 . S
C41 C40 1.264 . S
C41 C43 1.339 . S
C41 H68 0.931 . S
C42 C43 1.395 . S
C42 C44 1.320 . S
C43 C41 1.339 . S
C43 C42 1.395 . S
C43 H69 0.929 . S
C44 C42 1.320 . S
C44 C45 1.405 . S
C44 H70 0.930 . S
C45 C40 1.479 . S
C45 C44 1.405 . S
C45 H71 0.931 . S
U46 O47 2.454 . S
U46 O48 2.458 . S
U46 C49 2.984 . S
U46 C50 2.847 . S
U46 C63 2.882 . S
U46 O64 2.441 . S
U46 O65 2.420 . S
U46 O66 2.455 . S
U46 O67 2.449 . S
O47 U46 2.454 . S
O47 C49 1.353 . S
O48 U46 2.458 . S
O48 C49 1.286 . S
C49 U46 2.984 . S
C49 O47 1.353 . S
C49 O48 1.286 . S
C49 C51 1.363 . S
C50 C40 1.465 . S
C50 U46 2.847 . S
C50 O64 1.249 . S
C50 O65 1.202 . S
C51 C49 1.363 . S
C51 C53 1.408 . S
C51 C56 1.342 . S
C52 C53 1.310 . S
C52 C55 1.461 . S
C52 H72 0.932 . S
C53 C51 1.408 . S
C53 C52 1.310 . S
C53 H73 0.930 . S
C54 C55 1.474 . S
C54 C56 1.285 . S
C54 H74 0.929 . S
C55 C52 1.461 . S
C55 C54 1.474 . S
C56 C51 1.342 . S
C56 C54 1.285 . S
C56 H75 0.930 . S
C57 C60 1.424 . S
C57 C62 1.245 . S
C57 C63 1.428 . S
C58 C61 1.260 . S
C58 C62 1.477 . S
C58 H76 0.932 . S
C59 C60 1.384 . S
C59 C61 1.479 . S
C59 H77 0.929 . S
C60 C57 1.424 . S
C60 C59 1.384 . S
C60 H78 0.928 . S
C61 C58 1.260 . S
C61 C59 1.479 . S
C62 C57 1.245 . S
C62 C58 1.477 . S
C62 H79 0.932 . S
C63 U46 2.882 . S
C63 C57 1.428 . S
C63 O66 1.301 . S
C63 O67 1.282 . S
O64 U46 2.441 . S
O64 C50 1.249 . S
O65 U46 2.420 . S
O65 C50 1.202 . S
O66 U46 2.455 . S
O66 C63 1.301 . S
O67 U46 2.449 . S
O67 C63 1.282 . S
H68 C41 0.931 . S
H69 C43 0.929 . S
H70 C44 0.930 . S
H71 C45 0.931 . S
H72 C52 0.932 . S
H73 C53 0.930 . S
H74 C54 0.929 . S
H75 C56 0.930 . S
H76 C58 0.932 . S
H77 C59 0.929 . S
H78 C60 0.928 . S
H79 C62 0.932 . S
C80 C81 1.264 . S
C80 C85 1.479 . S
C80 C90 1.465 . S
C81 C80 1.264 . S
C81 C83 1.339 . S
C81 H108 0.931 . S
C82 C83 1.395 . S
C82 C84 1.320 . S
C83 C81 1.339 . S
C83 C82 1.395 . S
C83 H109 0.929 . S
C84 C82 1.320 . S
C84 C85 1.405 . S
C84 H110 0.930 . S
C85 C80 1.479 . S
C85 C84 1.405 . S
C85 H111 0.931 . S
U86 O87 2.454 . S
U86 O88 2.458 . S
U86 C89 2.984 . S
U86 C90 2.847 . S
U86 C103 2.882 . S
U86 O104 2.441 . S
U86 O105 2.420 . S
U86 O106 2.455 . S
U86 O107 2.449 . S
O87 U86 2.454 . S
O87 C89 1.353 . S
O88 U86 2.458 . S
O88 C89 1.286 . S
C89 U86 2.984 . S
C89 O87 1.353 . S
C89 O88 1.286 . S
C89 C91 1.363 . S
C90 C80 1.465 . S
C90 U86 2.847 . S
C90 O104 1.249 . S
C90 O105 1.202 . S
C91 C89 1.363 . S
C91 C93 1.408 . S
C91 C96 1.342 . S
C92 C93 1.310 . S
C92 C95 1.461 . S
C92 H112 0.932 . S
C93 C91 1.408 . S
C93 C92 1.310 . S
C93 H113 0.930 . S
C94 C95 1.474 . S
C94 C96 1.285 . S
C94 H114 0.929 . S
C95 C92 1.461 . S
C95 C94 1.474 . S
C96 C91 1.342 . S
C96 C94 1.285 . S
C96 H115 0.930 . S
C97 C100 1.424 . S
C97 C102 1.245 . S
C97 C103 1.428 . S
C98 C101 1.260 . S
C98 C102 1.477 . S
C98 H116 0.932 . S
C99 C100 1.384 . S
C99 C101 1.479 . S
C99 H117 0.929 . S
C100 C97 1.424 . S
C100 C99 1.384 . S
C100 H118 0.928 . S
C101 C98 1.260 . S
C101 C99 1.479 . S
C102 C97 1.245 . S
C102 C98 1.477 . S
C102 H119 0.932 . S
C103 U86 2.882 . S
C103 C97 1.428 . S
C103 O106 1.301 . S
C103 O107 1.282 . S
O104 U86 2.441 . S
O104 C90 1.249 . S
O105 U86 2.420 . S
O105 C90 1.202 . S
O106 U86 2.455 . S
O106 C103 1.301 . S
O107 U86 2.449 . S
O107 C103 1.282 . S
H108 C81 0.931 . S
H109 C83 0.929 . S
H110 C84 0.930 . S
H111 C85 0.931 . S
H112 C92 0.932 . S
H113 C93 0.930 . S
H114 C94 0.929 . S
H115 C96 0.930 . S
H116 C98 0.932 . S
H117 C99 0.929 . S
H118 C100 0.928 . S
H119 C102 0.932 . S
C120 C121 1.264 . S
C120 C125 1.479 . S
C120 C130 1.465 . S
C121 C120 1.264 . S
C121 C123 1.339 . S
C121 H148 0.931 . S
C122 C123 1.395 . S
C122 C124 1.320 . S
C123 C121 1.339 . S
C123 C122 1.395 . S
C123 H149 0.929 . S
C124 C122 1.320 . S
C124 C125 1.405 . S
C124 H150 0.930 . S
C125 C120 1.479 . S
C125 C124 1.405 . S
C125 H151 0.931 . S
U126 O127 2.454 . S
U126 O128 2.458 . S
U126 C129 2.984 . S
U126 C130 2.847 . S
U126 C143 2.882 . S
U126 O144 2.441 . S
U126 O145 2.420 . S
U126 O146 2.455 . S
U126 O147 2.449 . S
O127 U126 2.454 . S
O127 C129 1.353 . S
O128 U126 2.458 . S
O128 C129 1.286 . S
C129 U126 2.984 . S
C129 O127 1.353 . S
C129 O128 1.286 . S
C129 C131 1.363 . S
C130 C120 1.465 . S
C130 U126 2.847 . S
C130 O144 1.249 . S
C130 O145 1.202 . S
C131 C129 1.363 . S
C131 C133 1.408 . S
C131 C136 1.342 . S
C132 C133 1.310 . S
C132 C135 1.461 . S
C132 H152 0.932 . S
C133 C131 1.408 . S
C133 C132 1.310 . S
C133 H153 0.930 . S
C134 C135 1.474 . S
C134 C136 1.285 . S
C134 H154 0.929 . S
C135 C132 1.461 . S
C135 C134 1.474 . S
C136 C131 1.342 . S
C136 C134 1.285 . S
C136 H155 0.930 . S
C137 C140 1.424 . S
C137 C142 1.245 . S
C137 C143 1.428 . S
C138 C141 1.260 . S
C138 C142 1.477 . S
C138 H156 0.932 . S
C139 C140 1.384 . S
C139 C141 1.479 . S
C139 H157 0.929 . S
C140 C137 1.424 . S
C140 C139 1.384 . S
C140 H158 0.928 . S
C141 C138 1.260 . S
C141 C139 1.479 . S
C142 C137 1.245 . S
C142 C138 1.477 . S
C142 H159 0.932 . S
C143 U126 2.882 . S
C143 C137 1.428 . S
C143 O146 1.301 . S
C143 O147 1.282 . S
O144 U126 2.441 . S
O144 C130 1.249 . S
O145 U126 2.420 . S
O145 C130 1.202 . S
O146 U126 2.455 . S
O146 C143 1.301 . S
O147 U126 2.449 . S
O147 C143 1.282 . S
H148 C121 0.931 . S
H149 C123 0.929 . S
H150 C124 0.930 . S
H151 C125 0.931 . S
H152 C132 0.932 . S
H153 C133 0.930 . S
H154 C134 0.929 . S
H155 C136 0.930 . S
H156 C138 0.932 . S
H157 C139 0.929 . S
H158 C140 0.928 . S
H159 C142 0.932 . S
C160 C161 1.264 . S
C160 C165 1.479 . S
C160 C170 1.465 . S
C161 C160 1.264 . S
C161 C163 1.339 . S
C161 H188 0.931 . S
C162 C163 1.395 . S
C162 C164 1.320 . S
C163 C161 1.339 . S
C163 C162 1.395 . S
C163 H189 0.929 . S
C164 C162 1.320 . S
C164 C165 1.405 . S
C164 H190 0.930 . S
C165 C160 1.479 . S
C165 C164 1.405 . S
C165 H191 0.931 . S
U166 O167 2.454 . S
U166 O168 2.458 . S
U166 C169 2.984 . S
U166 C170 2.847 . S
U166 C183 2.882 . S
U166 O184 2.441 . S
U166 O185 2.420 . S
U166 O186 2.455 . S
U166 O187 2.449 . S
O167 U166 2.454 . S
O167 C169 1.353 . S
O168 U166 2.458 . S
O168 C169 1.286 . S
C169 U166 2.984 . S
C169 O167 1.353 . S
C169 O168 1.286 . S
C169 C171 1.363 . S
C170 C160 1.465 . S
C170 U166 2.847 . S
C170 O184 1.249 . S
C170 O185 1.202 . S
C171 C169 1.363 . S
C171 C173 1.408 . S
C171 C176 1.342 . S
C172 C173 1.310 . S
C172 C175 1.461 . S
C172 H192 0.932 . S
C173 C171 1.408 . S
C173 C172 1.310 . S
C173 H193 0.930 . S
C174 C175 1.474 . S
C174 C176 1.285 . S
C174 H194 0.929 . S
C175 C172 1.461 . S
C175 C174 1.474 . S
C176 C171 1.342 . S
C176 C174 1.285 . S
C176 H195 0.930 . S
C177 C180 1.424 . S
C177 C182 1.245 . S
C177 C183 1.428 . S
C178 C181 1.260 . S
C178 C182 1.477 . S
C178 H196 0.932 . S
C179 C180 1.384 . S
C179 C181 1.479 . S
C179 H197 0.929 . S
C180 C177 1.424 . S
C180 C179 1.384 . S
C180 H198 0.928 . S
C181 C178 1.260 . S
C181 C179 1.479 . S
C182 C177 1.245 . S
C182 C178 1.477 . S
C182 H199 0.932 . S
C183 U166 2.882 . S
C183 C177 1.428 . S
C183 O186 1.301 . S
C183 O187 1.282 . S
O184 U166 2.441 . S
O184 C170 1.249 . S
O185 U166 2.420 . S
O185 C170 1.202 . S
O186 U166 2.455 . S
O186 C183 1.301 . S
O187 U166 2.449 . S
O187 C183 1.282 . S
H188 C161 0.931 . S
H189 C163 0.929 . S
H190 C164 0.930 . S
H191 C165 0.931 . S
H192 C172 0.932 . S
H193 C173 0.930 . S
H194 C174 0.929 . S
H195 C176 0.930 . S
H196 C178 0.932 . S
H197 C179 0.929 . S
H198 C180 0.928 . S
H199 C182 0.932 . S
C200 C201 1.264 . S
C200 C205 1.479 . S
C200 C210 1.465 . S
C201 C200 1.264 . S
C201 C203 1.339 . S
C201 H228 0.931 . S
C202 C203 1.395 . S
C202 C204 1.320 . S
C203 C201 1.339 . S
C203 C202 1.395 . S
C203 H229 0.929 . S
C204 C202 1.320 . S
C204 C205 1.405 . S
C204 H230 0.930 . S
C205 C200 1.479 . S
C205 C204 1.405 . S
C205 H231 0.931 . S
U206 O207 2.454 . S
U206 O208 2.458 . S
U206 C209 2.984 . S
U206 C210 2.847 . S
U206 C223 2.882 . S
U206 O224 2.441 . S
U206 O225 2.420 . S
U206 O226 2.455 . S
U206 O227 2.449 . S
O207 U206 2.454 . S
O207 C209 1.353 . S
O208 U206 2.458 . S
O208 C209 1.286 . S
C209 U206 2.984 . S
C209 O207 1.353 . S
C209 O208 1.286 . S
C209 C211 1.363 . S
C210 C200 1.465 . S
C210 U206 2.847 . S
C210 O224 1.249 . S
C210 O225 1.202 . S
C211 C209 1.363 . S
C211 C213 1.408 . S
C211 C216 1.342 . S
C212 C213 1.310 . S
C212 C215 1.461 . S
C212 H232 0.932 . S
C213 C211 1.408 . S
C213 C212 1.310 . S
C213 H233 0.930 . S
C214 C215 1.474 . S
C214 C216 1.285 . S
C214 H234 0.929 . S
C215 C212 1.461 . S
C215 C214 1.474 . S
C216 C211 1.342 . S
C216 C214 1.285 . S
C216 H235 0.930 . S
C217 C220 1.424 . S
C217 C222 1.245 . S
C217 C223 1.428 . S
C218 C221 1.260 . S
C218 C222 1.477 . S
C218 H236 0.932 . S
C219 C220 1.384 . S
C219 C221 1.479 . S
C219 H237 0.929 . S
C220 C217 1.424 . S
C220 C219 1.384 . S
C220 H238 0.928 . S
C221 C218 1.260 . S
C221 C219 1.479 . S
C222 C217 1.245 . S
C222 C218 1.477 . S
C222 H239 0.932 . S
C223 U206 2.882 . S
C223 C217 1.428 . S
C223 O226 1.301 . S
C223 O227 1.282 . S
O224 U206 2.441 . S
O224 C210 1.249 . S
O225 U206 2.420 . S
O225 C210 1.202 . S
O226 U206 2.455 . S
O226 C223 1.301 . S
O227 U206 2.449 . S
O227 C223 1.282 . S
H228 C201 0.931 . S
H229 C203 0.929 . S
H230 C204 0.930 . S
H231 C205 0.931 . S
H232 C212 0.932 . S
H233 C213 0.930 . S
H234 C214 0.929 . S
H235 C216 0.930 . S
H236 C218 0.932 . S
H237 C219 0.929 . S
H238 C220 0.928 . S
H239 C222 0.932 . S
C240 C241 1.264 . S
C240 C245 1.479 . S
C240 C250 1.465 . S
C241 C240 1.264 . S
C241 C243 1.339 . S
C241 H268 0.931 . S
C242 C243 1.395 . S
C242 C244 1.320 . S
C243 C241 1.339 . S
C243 C242 1.395 . S
C243 H269 0.929 . S
C244 C242 1.320 . S
C244 C245 1.405 . S
C244 H270 0.930 . S
C245 C240 1.479 . S
C245 C244 1.405 . S
C245 H271 0.931 . S
U246 O247 2.454 . S
U246 O248 2.458 . S
U246 C249 2.984 . S
U246 C250 2.847 . S
U246 C263 2.882 . S
U246 O264 2.441 . S
U246 O265 2.420 . S
U246 O266 2.455 . S
U246 O267 2.449 . S
O247 U246 2.454 . S
O247 C249 1.353 . S
O248 U246 2.458 . S
O248 C249 1.286 . S
C249 U246 2.984 . S
C249 O247 1.353 . S
C249 O248 1.286 . S
C249 C251 1.363 . S
C250 C240 1.465 . S
C250 U246 2.847 . S
C250 O264 1.249 . S
C250 O265 1.202 . S
C251 C249 1.363 . S
C251 C253 1.408 . S
C251 C256 1.342 . S
C252 C253 1.310 . S
C252 C255 1.461 . S
C252 H272 0.932 . S
C253 C251 1.408 . S
C253 C252 1.310 . S
C253 H273 0.930 . S
C254 C255 1.474 . S
C254 C256 1.285 . S
C254 H274 0.929 . S
C255 C252 1.461 . S
C255 C254 1.474 . S
C256 C251 1.342 . S
C256 C254 1.285 . S
C256 H275 0.930 . S
C257 C260 1.424 . S
C257 C262 1.245 . S
C257 C263 1.428 . S
C258 C261 1.260 . S
C258 C262 1.477 . S
C258 H276 0.932 . S
C259 C260 1.384 . S
C259 C261 1.479 . S
C259 H277 0.929 . S
C260 C257 1.424 . S
C260 C259 1.384 . S
C260 H278 0.928 . S
C261 C258 1.260 . S
C261 C259 1.479 . S
C262 C257 1.245 . S
C262 C258 1.477 . S
C262 H279 0.932 . S
C263 U246 2.882 . S
C263 C257 1.428 . S
C263 O266 1.301 . S
C263 O267 1.282 . S
O264 U246 2.441 . S
O264 C250 1.249 . S
O265 U246 2.420 . S
O265 C250 1.202 . S
O266 U246 2.455 . S
O266 C263 1.301 . S
O267 U246 2.449 . S
O267 C263 1.282 . S
H268 C241 0.931 . S
H269 C243 0.929 . S
H270 C244 0.930 . S
H271 C245 0.931 . S
H272 C252 0.932 . S
H273 C253 0.930 . S
H274 C254 0.929 . S
H275 C256 0.930 . S
H276 C258 0.932 . S
H277 C259 0.929 . S
H278 C260 0.928 . S
H279 C262 0.932 . S
C280 C281 1.264 . S
C280 C285 1.479 . S
C280 C290 1.465 . S
C281 C280 1.264 . S
C281 C283 1.339 . S
C281 H308 0.931 . S
C282 C283 1.395 . S
C282 C284 1.320 . S
C283 C281 1.339 . S
C283 C282 1.395 . S
C283 H309 0.929 . S
C284 C282 1.320 . S
C284 C285 1.405 . S
C284 H310 0.930 . S
C285 C280 1.479 . S
C285 C284 1.405 . S
C285 H311 0.931 . S
U286 O287 2.454 . S
U286 O288 2.458 . S
U286 C289 2.984 . S
U286 C290 2.847 . S
U286 C303 2.882 . S
U286 O304 2.441 . S
U286 O305 2.420 . S
U286 O306 2.455 . S
U286 O307 2.449 . S
O287 U286 2.454 . S
O287 C289 1.353 . S
O288 U286 2.458 . S
O288 C289 1.286 . S
C289 U286 2.984 . S
C289 O287 1.353 . S
C289 O288 1.286 . S
C289 C291 1.363 . S
C290 C280 1.465 . S
C290 U286 2.847 . S
C290 O304 1.249 . S
C290 O305 1.202 . S
C291 C289 1.363 . S
C291 C293 1.408 . S
C291 C296 1.342 . S
C292 C293 1.310 . S
C292 C295 1.461 . S
C292 H312 0.932 . S
C293 C291 1.408 . S
C293 C292 1.310 . S
C293 H313 0.930 . S
C294 C295 1.474 . S
C294 C296 1.285 . S
C294 H314 0.929 . S
C295 C292 1.461 . S
C295 C294 1.474 . S
C296 C291 1.342 . S
C296 C294 1.285 . S
C296 H315 0.930 . S
C297 C300 1.424 . S
C297 C302 1.245 . S
C297 C303 1.428 . S
C298 C301 1.260 . S
C298 C302 1.477 . S
C298 H316 0.932 . S
C299 C300 1.384 . S
C299 C301 1.479 . S
C299 H317 0.929 . S
C300 C297 1.424 . S
C300 C299 1.384 . S
C300 H318 0.928 . S
C301 C298 1.260 . S
C301 C299 1.479 . S
C302 C297 1.245 . S
C302 C298 1.477 . S
C302 H319 0.932 . S
C303 U286 2.882 . S
C303 C297 1.428 . S
C303 O306 1.301 . S
C303 O307 1.282 . S
O304 U286 2.441 . S
O304 C290 1.249 . S
O305 U286 2.420 . S
O305 C290 1.202 . S
O306 U286 2.455 . S
O306 C303 1.301 . S
O307 U286 2.449 . S
O307 C303 1.282 . S
H308 C281 0.931 . S
H309 C283 0.929 . S
H310 C284 0.930 . S
H311 C285 0.931 . S
H312 C292 0.932 . S
H313 C293 0.930 . S
H314 C294 0.929 . S
H315 C296 0.930 . S
H316 C298 0.932 . S
H317 C299 0.929 . S
H318 C300 0.928 . S
H319 C302 0.932 . S
C320 C321 1.264 . S
C320 C325 1.479 . S
C320 C330 1.465 . S
C321 C320 1.264 . S
C321 C323 1.339 . S
C321 H348 0.931 . S
C322 C323 1.395 . S
C322 C324 1.320 . S
C323 C321 1.339 . S
C323 C322 1.395 . S
C323 H349 0.929 . S
C324 C322 1.320 . S
C324 C325 1.405 . S
C324 H350 0.930 . S
C325 C320 1.479 . S
C325 C324 1.405 . S
C325 H351 0.931 . S
U326 O327 2.454 . S
U326 O328 2.458 . S
U326 C329 2.984 . S
U326 C330 2.847 . S
U326 C343 2.882 . S
U326 O344 2.441 . S
U326 O345 2.420 . S
U326 O346 2.455 . S
U326 O347 2.449 . S
O327 U326 2.454 . S
O327 C329 1.353 . S
O328 U326 2.458 . S
O328 C329 1.286 . S
C329 U326 2.984 . S
C329 O327 1.353 . S
C329 O328 1.286 . S
C329 C331 1.363 . S
C330 C320 1.465 . S
C330 U326 2.847 . S
C330 O344 1.249 . S
C330 O345 1.202 . S
C331 C329 1.363 . S
C331 C333 1.408 . S
C331 C336 1.342 . S
C332 C333 1.310 . S
C332 C335 1.461 . S
C332 H352 0.932 . S
C333 C331 1.408 . S
C333 C332 1.310 . S
C333 H353 0.930 . S
C334 C335 1.474 . S
C334 C336 1.285 . S
C334 H354 0.929 . S
C335 C332 1.461 . S
C335 C334 1.474 . S
C336 C331 1.342 . S
C336 C334 1.285 . S
C336 H355 0.930 . S
C337 C340 1.424 . S
C337 C342 1.245 . S
C337 C343 1.428 . S
C338 C341 1.260 . S
C338 C342 1.477 . S
C338 H356 0.932 . S
C339 C340 1.384 . S
C339 C341 1.479 . S
C339 H357 0.929 . S
C340 C337 1.424 . S
C340 C339 1.384 . S
C340 H358 0.928 . S
C341 C338 1.260 . S
C341 C339 1.479 . S
C342 C337 1.245 . S
C342 C338 1.477 . S
C342 H359 0.932 . S
C343 U326 2.882 . S
C343 C337 1.428 . S
C343 O346 1.301 . S
C343 O347 1.282 . S
O344 U326 2.441 . S
O344 C330 1.249 . S
O345 U326 2.420 . S
O345 C330 1.202 . S
O346 U326 2.455 . S
O346 C343 1.301 . S
O347 U326 2.449 . S
O347 C343 1.282 . S
H348 C321 0.931 . S
H349 C323 0.929 . S
H350 C324 0.930 . S
H351 C325 0.931 . S
H352 C332 0.932 . S
H353 C333 0.930 . S
H354 C334 0.929 . S
H355 C336 0.930 . S
H356 C338 0.932 . S
H357 C339 0.929 . S
H358 C340 0.928 . S
H359 C342 0.932 . S
C360 C361 1.264 . S
C360 C365 1.479 . S
C360 C370 1.465 . S
C361 C360 1.264 . S
C361 C363 1.339 . S
C361 H388 0.931 . S
C362 C363 1.395 . S
C362 C364 1.320 . S
C363 C361 1.339 . S
C363 C362 1.395 . S
C363 H389 0.929 . S
C364 C362 1.320 . S
C364 C365 1.405 . S
C364 H390 0.930 . S
C365 C360 1.479 . S
C365 C364 1.405 . S
C365 H391 0.931 . S
U366 O367 2.454 . S
U366 O368 2.458 . S
U366 C369 2.984 . S
U366 C370 2.847 . S
U366 C383 2.882 . S
U366 O384 2.441 . S
U366 O385 2.420 . S
U366 O386 2.455 . S
U366 O387 2.449 . S
O367 U366 2.454 . S
O367 C369 1.353 . S
O368 U366 2.458 . S
O368 C369 1.286 . S
C369 U366 2.984 . S
C369 O367 1.353 . S
C369 O368 1.286 . S
C369 C371 1.363 . S
C370 C360 1.465 . S
C370 U366 2.847 . S
C370 O384 1.249 . S
C370 O385 1.202 . S
C371 C369 1.363 . S
C371 C373 1.408 . S
C371 C376 1.342 . S
C372 C373 1.310 . S
C372 C375 1.461 . S
C372 H392 0.932 . S
C373 C371 1.408 . S
C373 C372 1.310 . S
C373 H393 0.930 . S
C374 C375 1.474 . S
C374 C376 1.285 . S
C374 H394 0.929 . S
C375 C372 1.461 . S
C375 C374 1.474 . S
C376 C371 1.342 . S
C376 C374 1.285 . S
C376 H395 0.930 . S
C377 C380 1.424 . S
C377 C382 1.245 . S
C377 C383 1.428 . S
C378 C381 1.260 . S
C378 C382 1.477 . S
C378 H396 0.932 . S
C379 C380 1.384 . S
C379 C381 1.479 . S
C379 H397 0.929 . S
C380 C377 1.424 . S
C380 C379 1.384 . S
C380 H398 0.928 . S
C381 C378 1.260 . S
C381 C379 1.479 . S
C382 C377 1.245 . S
C382 C378 1.477 . S
C382 H399 0.932 . S
C383 U366 2.882 . S
C383 C377 1.428 . S
C383 O386 1.301 . S
C383 O387 1.282 . S
O384 U366 2.441 . S
O384 C370 1.249 . S
O385 U366 2.420 . S
O385 C370 1.202 . S
O386 U366 2.455 . S
O386 C383 1.301 . S
O387 U366 2.449 . S
O387 C383 1.282 . S
H388 C361 0.931 . S
H389 C363 0.929 . S
H390 C364 0.930 . S
H391 C365 0.931 . S
H392 C372 0.932 . S
H393 C373 0.930 . S
H394 C374 0.929 . S
H395 C376 0.930 . S
H396 C378 0.932 . S
H397 C379 0.929 . S
H398 C380 0.928 . S
H399 C382 0.932 . S
C400 C401 1.264 . S
C400 C405 1.479 . S
C400 C410 1.465 . S
C401 C400 1.264 . S
C401 C403 1.339 . S
C401 H428 0.931 . S
C402 C403 1.395 . S
C402 C404 1.320 . S
C403 C401 1.339 . S
C403 C402 1.395 . S
C403 H429 0.929 . S
C404 C402 1.320 . S
C404 C405 1.405 . S
C404 H430 0.930 . S
C405 C400 1.479 . S
C405 C404 1.405 . S
C405 H431 0.931 . S
U406 O407 2.454 . S
U406 O408 2.458 . S
U406 C409 2.984 . S
U406 C410 2.847 . S
U406 C423 2.882 . S
U406 O424 2.441 . S
U406 O425 2.420 . S
U406 O426 2.455 . S
U406 O427 2.449 . S
O407 U406 2.454 . S
O407 C409 1.353 . S
O408 U406 2.458 . S
O408 C409 1.286 . S
C409 U406 2.984 . S
C409 O407 1.353 . S
C409 O408 1.286 . S
C409 C411 1.363 . S
C410 C400 1.465 . S
C410 U406 2.847 . S
C410 O424 1.249 . S
C410 O425 1.202 . S
C411 C409 1.363 . S
C411 C413 1.408 . S
C411 C416 1.342 . S
C412 C413 1.310 . S
C412 C415 1.461 . S
C412 H432 0.932 . S
C413 C411 1.408 . S
C413 C412 1.310 . S
C413 H433 0.930 . S
C414 C415 1.474 . S
C414 C416 1.285 . S
C414 H434 0.929 . S
C415 C412 1.461 . S
C415 C414 1.474 . S
C416 C411 1.342 . S
C416 C414 1.285 . S
C416 H435 0.930 . S
C417 C420 1.424 . S
C417 C422 1.245 . S
C417 C423 1.428 . S
C418 C421 1.260 . S
C418 C422 1.477 . S
C418 H436 0.932 . S
C419 C420 1.384 . S
C419 C421 1.479 . S
C419 H437 0.929 . S
C420 C417 1.424 . S
C420 C419 1.384 . S
C420 H438 0.928 . S
C421 C418 1.260 . S
C421 C419 1.479 . S
C422 C417 1.245 . S
C422 C418 1.477 . S
C422 H439 0.932 . S
C423 U406 2.882 . S
C423 C417 1.428 . S
C423 O426 1.301 . S
C423 O427 1.282 . S
O424 U406 2.441 . S
O424 C410 1.249 . S
O425 U406 2.420 . S
O425 C410 1.202 . S
O426 U406 2.455 . S
O426 C423 1.301 . S
O427 U406 2.449 . S
O427 C423 1.282 . S
H428 C401 0.931 . S
H429 C403 0.929 . S
H430 C404 0.930 . S
H431 C405 0.931 . S
H432 C412 0.932 . S
H433 C413 0.930 . S
H434 C414 0.929 . S
H435 C416 0.930 . S
H436 C418 0.932 . S
H437 C419 0.929 . S
H438 C420 0.928 . S
H439 C422 0.932 . S
C440 C441 1.264 . S
C440 C445 1.479 . S
C440 C450 1.465 . S
C441 C440 1.264 . S
C441 C443 1.339 . S
C441 H468 0.931 . S
C442 C443 1.395 . S
C442 C444 1.320 . S
C443 C441 1.339 . S
C443 C442 1.395 . S
C443 H469 0.929 . S
C444 C442 1.320 . S
C444 C445 1.405 . S
C444 H470 0.930 . S
C445 C440 1.479 . S
C445 C444 1.405 . S
C445 H471 0.931 . S
U446 O447 2.454 . S
U446 O448 2.458 . S
U446 C449 2.984 . S
U446 C450 2.847 . S
U446 C463 2.882 . S
U446 O464 2.441 . S
U446 O465 2.420 . S
U446 O466 2.455 . S
U446 O467 2.449 . S
O447 U446 2.454 . S
O447 C449 1.353 . S
O448 U446 2.458 . S
O448 C449 1.286 . S
C449 U446 2.984 . S
C449 O447 1.353 . S
C449 O448 1.286 . S
C449 C451 1.363 . S
C450 C440 1.465 . S
C450 U446 2.847 . S
C450 O464 1.249 . S
C450 O465 1.202 . S
C451 C449 1.363 . S
C451 C453 1.408 . S
C451 C456 1.342 . S
C452 C453 1.310 . S
C452 C455 1.461 . S
C452 H472 0.932 . S
C453 C451 1.408 . S
C453 C452 1.310 . S
C453 H473 0.930 . S
C454 C455 1.474 . S
C454 C456 1.285 . S
C454 H474 0.929 . S
C455 C452 1.461 . S
C455 C454 1.474 . S
C456 C451 1.342 . S
C456 C454 1.285 . S
C456 H475 0.930 . S
C457 C460 1.424 . S
C457 C462 1.245 . S
C457 C463 1.428 . S
C458 C461 1.260 . S
C458 C462 1.477 . S
C458 H476 0.932 . S
C459 C460 1.384 . S
C459 C461 1.479 . S
C459 H477 0.929 . S
C460 C457 1.424 . S
C460 C459 1.384 . S
C460 H478 0.928 . S
C461 C458 1.260 . S
C461 C459 1.479 . S
C462 C457 1.245 . S
C462 C458 1.477 . S
C462 H479 0.932 . S
C463 U446 2.882 . S
C463 C457 1.428 . S
C463 O466 1.301 . S
C463 O467 1.282 . S
O464 U446 2.441 . S
O464 C450 1.249 . S
O465 U446 2.420 . S
O465 C450 1.202 . S
O466 U446 2.455 . S
O466 C463 1.301 . S
O467 U446 2.449 . S
O467 C463 1.282 . S
H468 C441 0.931 . S
H469 C443 0.929 . S
H470 C444 0.930 . S
H471 C445 0.931 . S
H472 C452 0.932 . S
H473 C453 0.930 . S
H474 C454 0.929 . S
H475 C456 0.930 . S
H476 C458 0.932 . S
H477 C459 0.929 . S
H478 C460 0.928 . S
H479 C462 0.932 . S
C480 C481 1.264 . S
C480 C485 1.479 . S
C480 C490 1.465 . S
C481 C480 1.264 . S
C481 C483 1.339 . S
C481 H508 0.931 . S
C482 C483 1.395 . S
C482 C484 1.320 . S
C483 C481 1.339 . S
C483 C482 1.395 . S
C483 H509 0.929 . S
C484 C482 1.320 . S
C484 C485 1.405 . S
C484 H510 0.930 . S
C485 C480 1.479 . S
C485 C484 1.405 . S
C485 H511 0.931 . S
U486 O487 2.454 . S
U486 O488 2.458 . S
U486 C489 2.984 . S
U486 C490 2.847 . S
U486 C503 2.882 . S
U486 O504 2.441 . S
U486 O505 2.420 . S
U486 O506 2.455 . S
U486 O507 2.449 . S
O487 U486 2.454 . S
O487 C489 1.353 . S
O488 U486 2.458 . S
O488 C489 1.286 . S
C489 U486 2.984 . S
C489 O487 1.353 . S
C489 O488 1.286 . S
C489 C491 1.363 . S
C490 C480 1.465 . S
C490 U486 2.847 . S
C490 O504 1.249 . S
C490 O505 1.202 . S
C491 C489 1.363 . S
C491 C493 1.408 . S
C491 C496 1.342 . S
C492 C493 1.310 . S
C492 C495 1.461 . S
C492 H512 0.932 . S
C493 C491 1.408 . S
C493 C492 1.310 . S
C493 H513 0.930 . S
C494 C495 1.474 . S
C494 C496 1.285 . S
C494 H514 0.929 . S
C495 C492 1.461 . S
C495 C494 1.474 . S
C496 C491 1.342 . S
C496 C494 1.285 . S
C496 H515 0.930 . S
C497 C500 1.424 . S
C497 C502 1.245 . S
C497 C503 1.428 . S
C498 C501 1.260 . S
C498 C502 1.477 . S
C498 H516 0.932 . S
C499 C500 1.384 . S
C499 C501 1.479 . S
C499 H517 0.929 . S
C500 C497 1.424 . S
C500 C499 1.384 . S
C500 H518 0.928 . S
C501 C498 1.260 . S
C501 C499 1.479 . S
C502 C497 1.245 . S
C502 C498 1.477 . S
C502 H519 0.932 . S
C503 U486 2.882 . S
C503 C497 1.428 . S
C503 O506 1.301 . S
C503 O507 1.282 . S
O504 U486 2.441 . S
O504 C490 1.249 . S
O505 U486 2.420 . S
O505 C490 1.202 . S
O506 U486 2.455 . S
O506 C503 1.301 . S
O507 U486 2.449 . S
O507 C503 1.282 . S
H508 C481 0.931 . S
H509 C483 0.929 . S
H510 C484 0.930 . S
H511 C485 0.931 . S
H512 C492 0.932 . S
H513 C493 0.930 . S
H514 C494 0.929 . S
H515 C496 0.930 . S
H516 C498 0.932 . S
H517 C499 0.929 . S
H518 C500 0.928 . S
H519 C502 0.932 . S
C520 C521 1.264 . S
C520 C525 1.479 . S
C520 C530 1.465 . S
C521 C520 1.264 . S
C521 C523 1.339 . S
C521 H548 0.931 . S
C522 C523 1.395 . S
C522 C524 1.320 . S
C523 C521 1.339 . S
C523 C522 1.395 . S
C523 H549 0.929 . S
C524 C522 1.320 . S
C524 C525 1.405 . S
C524 H550 0.930 . S
C525 C520 1.479 . S
C525 C524 1.405 . S
C525 H551 0.931 . S
U526 O527 2.454 . S
U526 O528 2.458 . S
U526 C529 2.984 . S
U526 C530 2.847 . S
U526 C543 2.882 . S
U526 O544 2.441 . S
U526 O545 2.420 . S
U526 O546 2.455 . S
U526 O547 2.449 . S
O527 U526 2.454 . S
O527 C529 1.353 . S
O528 U526 2.458 . S
O528 C529 1.286 . S
C529 U526 2.984 . S
C529 O527 1.353 . S
C529 O528 1.286 . S
C529 C531 1.363 . S
C530 C520 1.465 . S
C530 U526 2.847 . S
C530 O544 1.249 . S
C530 O545 1.202 . S
C531 C529 1.363 . S
C531 C533 1.408 . S
C531 C536 1.342 . S
C532 C533 1.310 . S
C532 C535 1.461 . S
C532 H552 0.932 . S
C533 C531 1.408 . S
C533 C532 1.310 . S
C533 H553 0.930 . S
C534 C535 1.474 . S
C534 C536 1.285 . S
C534 H554 0.929 . S
C535 C532 1.461 . S
C535 C534 1.474 . S
C536 C531 1.342 . S
C536 C534 1.285 . S
C536 H555 0.930 . S
C537 C540 1.424 . S
C537 C542 1.245 . S
C537 C543 1.428 . S
C538 C541 1.260 . S
C538 C542 1.477 . S
C538 H556 0.932 . S
C539 C540 1.384 . S
C539 C541 1.479 . S
C539 H557 0.929 . S
C540 C537 1.424 . S
C540 C539 1.384 . S
C540 H558 0.928 . S
C541 C538 1.260 . S
C541 C539 1.479 . S
C542 C537 1.245 . S
C542 C538 1.477 . S
C542 H559 0.932 . S
C543 U526 2.882 . S
C543 C537 1.428 . S
C543 O546 1.301 . S
C543 O547 1.282 . S
O544 U526 2.441 . S
O544 C530 1.249 . S
O545 U526 2.420 . S
O545 C530 1.202 . S
O546 U526 2.455 . S
O546 C543 1.301 . S
O547 U526 2.449 . S
O547 C543 1.282 . S
H548 C521 0.931 . S
H549 C523 0.929 . S
H550 C524 0.930 . S
H551 C525 0.931 . S
H552 C532 0.932 . S
H553 C533 0.930 . S
H554 C534 0.929 . S
H555 C536 0.930 . S
H556 C538 0.932 . S
H557 C539 0.929 . S
H558 C540 0.928 . S
H559 C542 0.932 . S
C560 C561 1.264 . S
C560 C565 1.479 . S
C560 C570 1.465 . S
C561 C560 1.264 . S
C561 C563 1.339 . S
C561 H588 0.931 . S
C562 C563 1.395 . S
C562 C564 1.320 . S
C563 C561 1.339 . S
C563 C562 1.395 . S
C563 H589 0.929 . S
C564 C562 1.320 . S
C564 C565 1.405 . S
C564 H590 0.930 . S
C565 C560 1.479 . S
C565 C564 1.405 . S
C565 H591 0.931 . S
U566 O567 2.454 . S
U566 O568 2.458 . S
U566 C569 2.984 . S
U566 C570 2.847 . S
U566 C583 2.882 . S
U566 O584 2.441 . S
U566 O585 2.420 . S
U566 O586 2.455 . S
U566 O587 2.449 . S
O567 U566 2.454 . S
O567 C569 1.353 . S
O568 U566 2.458 . S
O568 C569 1.286 . S
C569 U566 2.984 . S
C569 O567 1.353 . S
C569 O568 1.286 . S
C569 C571 1.363 . S
C570 C560 1.465 . S
C570 U566 2.847 . S
C570 O584 1.249 . S
C570 O585 1.202 . S
C571 C569 1.363 . S
C571 C573 1.408 . S
C571 C576 1.342 . S
C572 C573 1.310 . S
C572 C575 1.461 . S
C572 H592 0.932 . S
C573 C571 1.408 . S
C573 C572 1.310 . S
C573 H593 0.930 . S
C574 C575 1.474 . S
C574 C576 1.285 . S
C574 H594 0.929 . S
C575 C572 1.461 . S
C575 C574 1.474 . S
C576 C571 1.342 . S
C576 C574 1.285 . S
C576 H595 0.930 . S
C577 C580 1.424 . S
C577 C582 1.245 . S
C577 C583 1.428 . S
C578 C581 1.260 . S
C578 C582 1.477 . S
C578 H596 0.932 . S
C579 C580 1.384 . S
C579 C581 1.479 . S
C579 H597 0.929 . S
C580 C577 1.424 . S
C580 C579 1.384 . S
C580 H598 0.928 . S
C581 C578 1.260 . S
C581 C579 1.479 . S
C582 C577 1.245 . S
C582 C578 1.477 . S
C582 H599 0.932 . S
C583 U566 2.882 . S
C583 C577 1.428 . S
C583 O586 1.301 . S
C583 O587 1.282 . S
O584 U566 2.441 . S
O584 C570 1.249 . S
O585 U566 2.420 . S
O585 C570 1.202 . S
O586 U566 2.455 . S
O586 C583 1.301 . S
O587 U566 2.449 . S
O587 C583 1.282 . S
H588 C561 0.931 . S
H589 C563 0.929 . S
H590 C564 0.930 . S
H591 C565 0.931 . S
H592 C572 0.932 . S
H593 C573 0.930 . S
H594 C574 0.929 . S
H595 C576 0.930 . S
H596 C578 0.932 . S
H597 C579 0.929 . S
H598 C580 0.928 . S
H599 C582 0.932 . S
C600 C601 1.264 . S
C600 C605 1.479 . S
C600 C610 1.465 . S
C601 C600 1.264 . S
C601 C603 1.339 . S
C601 H628 0.931 . S
C602 C603 1.395 . S
C602 C604 1.320 . S
C603 C601 1.339 . S
C603 C602 1.395 . S
C603 H629 0.929 . S
C604 C602 1.320 . S
C604 C605 1.405 . S
C604 H630 0.930 . S
C605 C600 1.479 . S
C605 C604 1.405 . S
C605 H631 0.931 . S
U606 O607 2.454 . S
U606 O608 2.458 . S
U606 C609 2.984 . S
U606 C610 2.847 . S
U606 C623 2.882 . S
U606 O624 2.441 . S
U606 O625 2.420 . S
U606 O626 2.455 . S
U606 O627 2.449 . S
O607 U606 2.454 . S
O607 C609 1.353 . S
O608 U606 2.458 . S
O608 C609 1.286 . S
C609 U606 2.984 . S
C609 O607 1.353 . S
C609 O608 1.286 . S
C609 C611 1.363 . S
C610 C600 1.465 . S
C610 U606 2.847 . S
C610 O624 1.249 . S
C610 O625 1.202 . S
C611 C609 1.363 . S
C611 C613 1.408 . S
C611 C616 1.342 . S
C612 C613 1.310 . S
C612 C615 1.461 . S
C612 H632 0.932 . S
C613 C611 1.408 . S
C613 C612 1.310 . S
C613 H633 0.930 . S
C614 C615 1.474 . S
C614 C616 1.285 . S
C614 H634 0.929 . S
C615 C612 1.461 . S
C615 C614 1.474 . S
C616 C611 1.342 . S
C616 C614 1.285 . S
C616 H635 0.930 . S
C617 C620 1.424 . S
C617 C622 1.245 . S
C617 C623 1.428 . S
C618 C621 1.260 . S
C618 C622 1.477 . S
C618 H636 0.932 . S
C619 C620 1.384 . S
C619 C621 1.479 . S
C619 H637 0.929 . S
C620 C617 1.424 . S
C620 C619 1.384 . S
C620 H638 0.928 . S
C621 C618 1.260 . S
C621 C619 1.479 . S
C622 C617 1.245 . S
C622 C618 1.477 . S
C622 H639 0.932 . S
C623 U606 2.882 . S
C623 C617 1.428 . S
C623 O626 1.301 . S
C623 O627 1.282 . S
O624 U606 2.441 . S
O624 C610 1.249 . S
O625 U606 2.420 . S
O625 C610 1.202 . S
O626 U606 2.455 . S
O626 C623 1.301 . S
O627 U606 2.449 . S
O627 C623 1.282 . S
H628 C601 0.931 . S
H629 C603 0.929 . S
H630 C604 0.930 . S
H631 C605 0.931 . S
H632 C612 0.932 . S
H633 C613 0.930 . S
H634 C614 0.929 . S
H635 C616 0.930 . S
H636 C618 0.932 . S
H637 C619 0.929 . S
H638 C620 0.928 . S
H639 C622 0.932 . S
C640 C641 1.264 . S
C640 C645 1.479 . S
C640 C650 1.465 . S
C641 C640 1.264 . S
C641 C643 1.339 . S
C641 H668 0.931 . S
C642 C643 1.395 . S
C642 C644 1.320 . S
C643 C641 1.339 . S
C643 C642 1.395 . S
C643 H669 0.929 . S
C644 C642 1.320 . S
C644 C645 1.405 . S
C644 H670 0.930 . S
C645 C640 1.479 . S
C645 C644 1.405 . S
C645 H671 0.931 . S
U646 O647 2.454 . S
U646 O648 2.458 . S
U646 C649 2.984 . S
U646 C650 2.847 . S
U646 C663 2.882 . S
U646 O664 2.441 . S
U646 O665 2.420 . S
U646 O666 2.455 . S
U646 O667 2.449 . S
O647 U646 2.454 . S
O647 C649 1.353 . S
O648 U646 2.458 . S
O648 C649 1.286 . S
C649 U646 2.984 . S
C649 O647 1.353 . S
C649 O648 1.286 . S
C649 C651 1.363 . S
C650 C640 1.465 . S
C650 U646 2.847 . S
C650 O664 1.249 . S
C650 O665 1.202 . S
C651 C649 1.363 . S
C651 C653 1.408 . S
C651 C656 1.342 . S
C652 C653 1.310 . S
C652 C655 1.461 . S
C652 H672 0.932 . S
C653 C651 1.408 . S
C653 C652 1.310 . S
C653 H673 0.930 . S
C654 C655 1.474 . S
C654 C656 1.285 . S
C654 H674 0.929 . S
C655 C652 1.461 . S
C655 C654 1.474 . S
C656 C651 1.342 . S
C656 C654 1.285 . S
C656 H675 0.930 . S
C657 C660 1.424 . S
C657 C662 1.245 . S
C657 C663 1.428 . S
C658 C661 1.260 . S
C658 C662 1.477 . S
C658 H676 0.932 . S
C659 C660 1.384 . S
C659 C661 1.479 . S
C659 H677 0.929 . S
C660 C657 1.424 . S
C660 C659 1.384 . S
C660 H678 0.928 . S
C661 C658 1.260 . S
C661 C659 1.479 . S
C662 C657 1.245 . S
C662 C658 1.477 . S
C662 H679 0.932 . S
C663 U646 2.882 . S
C663 C657 1.428 . S
C663 O666 1.301 . S
C663 O667 1.282 . S
O664 U646 2.441 . S
O664 C650 1.249 . S
O665 U646 2.420 . S
O665 C650 1.202 . S
O666 U646 2.455 . S
O666 C663 1.301 . S
O667 U646 2.449 . S
O667 C663 1.282 . S
H668 C641 0.931 . S
H669 C643 0.929 . S
H670 C644 0.930 . S
H671 C645 0.931 . S
H672 C652 0.932 . S
H673 C653 0.930 . S
H674 C654 0.929 . S
H675 C656 0.930 . S
H676 C658 0.932 . S
H677 C659 0.929 . S
H678 C660 0.928 . S
H679 C662 0.932 . S
C680 C681 1.264 . S
C680 C685 1.479 . S
C680 C690 1.465 . S
C681 C680 1.264 . S
C681 C683 1.339 . S
C681 H708 0.931 . S
C682 C683 1.395 . S
C682 C684 1.320 . S
C683 C681 1.339 . S
C683 C682 1.395 . S
C683 H709 0.929 . S
C684 C682 1.320 . S
C684 C685 1.405 . S
C684 H710 0.930 . S
C685 C680 1.479 . S
C685 C684 1.405 . S
C685 H711 0.931 . S
U686 O687 2.454 . S
U686 O688 2.458 . S
U686 C689 2.984 . S
U686 C690 2.847 . S
U686 C703 2.882 . S
U686 O704 2.441 . S
U686 O705 2.420 . S
U686 O706 2.455 . S
U686 O707 2.449 . S
O687 U686 2.454 . S
O687 C689 1.353 . S
O688 U686 2.458 . S
O688 C689 1.286 . S
C689 U686 2.984 . S
C689 O687 1.353 . S
C689 O688 1.286 . S
C689 C691 1.363 . S
C690 C680 1.465 . S
C690 U686 2.847 . S
C690 O704 1.249 . S
C690 O705 1.202 . S
C691 C689 1.363 . S
C691 C693 1.408 . S
C691 C696 1.342 . S
C692 C693 1.310 . S
C692 C695 1.461 . S
C692 H712 0.932 . S
C693 C691 1.408 . S
C693 C692 1.310 . S
C693 H713 0.930 . S
C694 C695 1.474 . S
C694 C696 1.285 . S
C694 H714 0.929 . S
C695 C692 1.461 . S
C695 C694 1.474 . S
C696 C691 1.342 . S
C696 C694 1.285 . S
C696 H715 0.930 . S
C697 C700 1.424 . S
C697 C702 1.245 . S
C697 C703 1.428 . S
C698 C701 1.260 . S
C698 C702 1.477 . S
C698 H716 0.932 . S
C699 C700 1.384 . S
C699 C701 1.479 . S
C699 H717 0.929 . S
C700 C697 1.424 . S
C700 C699 1.384 . S
C700 H718 0.928 . S
C701 C698 1.260 . S
C701 C699 1.479 . S
C702 C697 1.245 . S
C702 C698 1.477 . S
C702 H719 0.932 . S
C703 U686 2.882 . S
C703 C697 1.428 . S
C703 O706 1.301 . S
C703 O707 1.282 . S
O704 U686 2.441 . S
O704 C690 1.249 . S
O705 U686 2.420 . S
O705 C690 1.202 . S
O706 U686 2.455 . S
O706 C703 1.301 . S
O707 U686 2.449 . S
O707 C703 1.282 . S
H708 C681 0.931 . S
H709 C683 0.929 . S
H710 C684 0.930 . S
H711 C685 0.931 . S
H712 C692 0.932 . S
H713 C693 0.930 . S
H714 C694 0.929 . S
H715 C696 0.930 . S
H716 C698 0.932 . S
H717 C699 0.929 . S
H718 C700 0.928 . S
H719 C702 0.932 . S
C720 C721 1.264 . S
C720 C725 1.479 . S
C720 C730 1.465 . S
C721 C720 1.264 . S
C721 C723 1.339 . S
C721 H748 0.931 . S
C722 C723 1.395 . S
C722 C724 1.320 . S
C723 C721 1.339 . S
C723 C722 1.395 . S
C723 H749 0.929 . S
C724 C722 1.320 . S
C724 C725 1.405 . S
C724 H750 0.930 . S
C725 C720 1.479 . S
C725 C724 1.405 . S
C725 H751 0.931 . S
U726 O727 2.454 . S
U726 O728 2.458 . S
U726 C729 2.984 . S
U726 C730 2.847 . S
U726 C743 2.882 . S
U726 O744 2.441 . S
U726 O745 2.420 . S
U726 O746 2.455 . S
U726 O747 2.449 . S
O727 U726 2.454 . S
O727 C729 1.353 . S
O728 U726 2.458 . S
O728 C729 1.286 . S
C729 U726 2.984 . S
C729 O727 1.353 . S
C729 O728 1.286 . S
C729 C731 1.363 . S
C730 C720 1.465 . S
C730 U726 2.847 . S
C730 O744 1.249 . S
C730 O745 1.202 . S
C731 C729 1.363 . S
C731 C733 1.408 . S
C731 C736 1.342 . S
C732 C733 1.310 . S
C732 C735 1.461 . S
C732 H752 0.932 . S
C733 C731 1.408 . S
C733 C732 1.310 . S
C733 H753 0.930 . S
C734 C735 1.474 . S
C734 C736 1.285 . S
C734 H754 0.929 . S
C735 C732 1.461 . S
C735 C734 1.474 . S
C736 C731 1.342 . S
C736 C734 1.285 . S
C736 H755 0.930 . S
C737 C740 1.424 . S
C737 C742 1.245 . S
C737 C743 1.428 . S
C738 C741 1.260 . S
C738 C742 1.477 . S
C738 H756 0.932 . S
C739 C740 1.384 . S
C739 C741 1.479 . S
C739 H757 0.929 . S
C740 C737 1.424 . S
C740 C739 1.384 . S
C740 H758 0.928 . S
C741 C738 1.260 . S
C741 C739 1.479 . S
C742 C737 1.245 . S
C742 C738 1.477 . S
C742 H759 0.932 . S
C743 U726 2.882 . S
C743 C737 1.428 . S
C743 O746 1.301 . S
C743 O747 1.282 . S
O744 U726 2.441 . S
O744 C730 1.249 . S
O745 U726 2.420 . S
O745 C730 1.202 . S
O746 U726 2.455 . S
O746 C743 1.301 . S
O747 U726 2.449 . S
O747 C743 1.282 . S
H748 C721 0.931 . S
H749 C723 0.929 . S
H750 C724 0.930 . S
H751 C725 0.931 . S
H752 C732 0.932 . S
H753 C733 0.930 . S
H754 C734 0.929 . S
H755 C736 0.930 . S
H756 C738 0.932 . S
H757 C739 0.929 . S
H758 C740 0.928 . S
H759 C742 0.932 . S
C760 C761 1.264 . S
C760 C765 1.479 . S
C760 C770 1.465 . S
C761 C760 1.264 . S
C761 C763 1.339 . S
C761 H788 0.931 . S
C762 C763 1.395 . S
C762 C764 1.320 . S
C763 C761 1.339 . S
C763 C762 1.395 . S
C763 H789 0.929 . S
C764 C762 1.320 . S
C764 C765 1.405 . S
C764 H790 0.930 . S
C765 C760 1.479 . S
C765 C764 1.405 . S
C765 H791 0.931 . S
U766 O767 2.454 . S
U766 O768 2.458 . S
U766 C769 2.984 . S
U766 C770 2.847 . S
U766 C783 2.882 . S
U766 O784 2.441 . S
U766 O785 2.420 . S
U766 O786 2.455 . S
U766 O787 2.449 . S
O767 U766 2.454 . S
O767 C769 1.353 . S
O768 U766 2.458 . S
O768 C769 1.286 . S
C769 U766 2.984 . S
C769 O767 1.353 . S
C769 O768 1.286 . S
C769 C771 1.363 . S
C770 C760 1.465 . S
C770 U766 2.847 . S
C770 O784 1.249 . S
C770 O785 1.202 . S
C771 C769 1.363 . S
C771 C773 1.408 . S
C771 C776 1.342 . S
C772 C773 1.310 . S
C772 C775 1.461 . S
C772 H792 0.932 . S
C773 C771 1.408 . S
C773 C772 1.310 . S
C773 H793 0.930 . S
C774 C775 1.474 . S
C774 C776 1.285 . S
C774 H794 0.929 . S
C775 C772 1.461 . S
C775 C774 1.474 . S
C776 C771 1.342 . S
C776 C774 1.285 . S
C776 H795 0.930 . S
C777 C780 1.424 . S
C777 C782 1.245 . S
C777 C783 1.428 . S
C778 C781 1.260 . S
C778 C782 1.477 . S
C778 H796 0.932 . S
C779 C780 1.384 . S
C779 C781 1.479 . S
C779 H797 0.929 . S
C780 C777 1.424 . S
C780 C779 1.384 . S
C780 H798 0.928 . S
C781 C778 1.260 . S
C781 C779 1.479 . S
C782 C777 1.245 . S
C782 C778 1.477 . S
C782 H799 0.932 . S
C783 U766 2.882 . S
C783 C777 1.428 . S
C783 O786 1.301 . S
C783 O787 1.282 . S
O784 U766 2.441 . S
O784 C770 1.249 . S
O785 U766 2.420 . S
O785 C770 1.202 . S
O786 U766 2.455 . S
O786 C783 1.301 . S
O787 U766 2.449 . S
O787 C783 1.282 . S
H788 C761 0.931 . S
H789 C763 0.929 . S
H790 C764 0.930 . S
H791 C765 0.931 . S
H792 C772 0.932 . S
H793 C773 0.930 . S
H794 C774 0.929 . S
H795 C776 0.930 . S
H796 C778 0.932 . S
H797 C779 0.929 . S
H798 C780 0.928 . S
H799 C782 0.932 . S
C800 C801 1.264 . S
C800 C805 1.479 . S
C800 C810 1.465 . S
C801 C800 1.264 . S
C801 C803 1.339 . S
C801 H828 0.931 . S
C802 C803 1.395 . S
C802 C804 1.320 . S
C803 C801 1.339 . S
C803 C802 1.395 . S
C803 H829 0.929 . S
C804 C802 1.320 . S
C804 C805 1.405 . S
C804 H830 0.930 . S
C805 C800 1.479 . S
C805 C804 1.405 . S
C805 H831 0.931 . S
U806 O807 2.454 . S
U806 O808 2.458 . S
U806 C809 2.984 . S
U806 C810 2.847 . S
U806 C823 2.882 . S
U806 O824 2.441 . S
U806 O825 2.420 . S
U806 O826 2.455 . S
U806 O827 2.449 . S
O807 U806 2.454 . S
O807 C809 1.353 . S
O808 U806 2.458 . S
O808 C809 1.286 . S
C809 U806 2.984 . S
C809 O807 1.353 . S
C809 O808 1.286 . S
C809 C811 1.363 . S
C810 C800 1.465 . S
C810 U806 2.847 . S
C810 O824 1.249 . S
C810 O825 1.202 . S
C811 C809 1.363 . S
C811 C813 1.408 . S
C811 C816 1.342 . S
C812 C813 1.310 . S
C812 C815 1.461 . S
C812 H832 0.932 . S
C813 C811 1.408 . S
C813 C812 1.310 . S
C813 H833 0.930 . S
C814 C815 1.474 . S
C814 C816 1.285 . S
C814 H834 0.929 . S
C815 C812 1.461 . S
C815 C814 1.474 . S
C816 C811 1.342 . S
C816 C814 1.285 . S
C816 H835 0.930 . S
C817 C820 1.424 . S
C817 C822 1.245 . S
C817 C823 1.428 . S
C818 C821 1.260 . S
C818 C822 1.477 . S
C818 H836 0.932 . S
C819 C820 1.384 . S
C819 C821 1.479 . S
C819 H837 0.929 . S
C820 C817 1.424 . S
C820 C819 1.384 . S
C820 H838 0.928 . S
C821 C818 1.260 . S
C821 C819 1.479 . S
C822 C817 1.245 . S
C822 C818 1.477 . S
C822 H839 0.932 . S
C823 U806 2.882 . S
C823 C817 1.428 . S
C823 O826 1.301 . S
C823 O827 1.282 . S
O824 U806 2.441 . S
O824 C810 1.249 . S
O825 U806 2.420 . S
O825 C810 1.202 . S
O826 U806 2.455 . S
O826 C823 1.301 . S
O827 U806 2.449 . S
O827 C823 1.282 . S
H828 C801 0.931 . S
H829 C803 0.929 . S
H830 C804 0.930 . S
H831 C805 0.931 . S
H832 C812 0.932 . S
H833 C813 0.930 . S
H834 C814 0.929 . S
H835 C816 0.930 . S
H836 C818 0.932 . S
H837 C819 0.929 . S
H838 C820 0.928 . S
H839 C822 0.932 . S
C840 C841 1.264 . S
C840 C845 1.479 . S
C840 C850 1.465 . S
C841 C840 1.264 . S
C841 C843 1.339 . S
C841 H868 0.931 . S
C842 C843 1.395 . S
C842 C844 1.320 . S
C843 C841 1.339 . S
C843 C842 1.395 . S
C843 H869 0.929 . S
C844 C842 1.320 . S
C844 C845 1.405 . S
C844 H870 0.930 . S
C845 C840 1.479 . S
C845 C844 1.405 . S
C845 H871 0.931 . S
U846 O847 2.454 . S
U846 O848 2.458 . S
U846 C849 2.984 . S
U846 C850 2.847 . S
U846 C863 2.882 . S
U846 O864 2.441 . S
U846 O865 2.420 . S
U846 O866 2.455 . S
U846 O867 2.449 . S
O847 U846 2.454 . S
O847 C849 1.353 . S
O848 U846 2.458 . S
O848 C849 1.286 . S
C849 U846 2.984 . S
C849 O847 1.353 . S
C849 O848 1.286 . S
C849 C851 1.363 . S
C850 C840 1.465 . S
C850 U846 2.847 . S
C850 O864 1.249 . S
C850 O865 1.202 . S
C851 C849 1.363 . S
C851 C853 1.408 . S
C851 C856 1.342 . S
C852 C853 1.310 . S
C852 C855 1.461 . S
C852 H872 0.932 . S
C853 C851 1.408 . S
C853 C852 1.310 . S
C853 H873 0.930 . S
C854 C855 1.474 . S
C854 C856 1.285 . S
C854 H874 0.929 . S
C855 C852 1.461 . S
C855 C854 1.474 . S
C856 C851 1.342 . S
C856 C854 1.285 . S
C856 H875 0.930 . S
C857 C860 1.424 . S
C857 C862 1.245 . S
C857 C863 1.428 . S
C858 C861 1.260 . S
C858 C862 1.477 . S
C858 H876 0.932 . S
C859 C860 1.384 . S
C859 C861 1.479 . S
C859 H877 0.929 . S
C860 C857 1.424 . S
C860 C859 1.384 . S
C860 H878 0.928 . S
C861 C858 1.260 . S
C861 C859 1.479 . S
C862 C857 1.245 . S
C862 C858 1.477 . S
C862 H879 0.932 . S
C863 U846 2.882 . S
C863 C857 1.428 . S
C863 O866 1.301 . S
C863 O867 1.282 . S
O864 U846 2.441 . S
O864 C850 1.249 . S
O865 U846 2.420 . S
O865 C850 1.202 . S
O866 U846 2.455 . S
O866 C863 1.301 . S
O867 U846 2.449 . S
O867 C863 1.282 . S
H868 C841 0.931 . S
H869 C843 0.929 . S
H870 C844 0.930 . S
H871 C845 0.931 . S
H872 C852 0.932 . S
H873 C853 0.930 . S
H874 C854 0.929 . S
H875 C856 0.930 . S
H876 C858 0.932 . S
H877 C859 0.929 . S
H878 C860 0.928 . S
H879 C862 0.932 . S
C880 C881 1.264 . S
C880 C885 1.479 . S
C880 C890 1.465 . S
C881 C880 1.264 . S
C881 C883 1.339 . S
C881 H908 0.931 . S
C882 C883 1.395 . S
C882 C884 1.320 . S
C883 C881 1.339 . S
C883 C882 1.395 . S
C883 H909 0.929 . S
C884 C882 1.320 . S
C884 C885 1.405 . S
C884 H910 0.930 . S
C885 C880 1.479 . S
C885 C884 1.405 . S
C885 H911 0.931 . S
U886 O887 2.454 . S
U886 O888 2.458 . S
U886 C889 2.984 . S
U886 C890 2.847 . S
U886 C903 2.882 . S
U886 O904 2.441 . S
U886 O905 2.420 . S
U886 O906 2.455 . S
U886 O907 2.449 . S
O887 U886 2.454 . S
O887 C889 1.353 . S
O888 U886 2.458 . S
O888 C889 1.286 . S
C889 U886 2.984 . S
C889 O887 1.353 . S
C889 O888 1.286 . S
C889 C891 1.363 . S
C890 C880 1.465 . S
C890 U886 2.847 . S
C890 O904 1.249 . S
C890 O905 1.202 . S
C891 C889 1.363 . S
C891 C893 1.408 . S
C891 C896 1.342 . S
C892 C893 1.310 . S
C892 C895 1.461 . S
C892 H912 0.932 . S
C893 C891 1.408 . S
C893 C892 1.310 . S
C893 H913 0.930 . S
C894 C895 1.474 . S
C894 C896 1.285 . S
C894 H914 0.929 . S
C895 C892 1.461 . S
C895 C894 1.474 . S
C896 C891 1.342 . S
C896 C894 1.285 . S
C896 H915 0.930 . S
C897 C900 1.424 . S
C897 C902 1.245 . S
C897 C903 1.428 . S
C898 C901 1.260 . S
C898 C902 1.477 . S
C898 H916 0.932 . S
C899 C900 1.384 . S
C899 C901 1.479 . S
C899 H917 0.929 . S
C900 C897 1.424 . S
C900 C899 1.384 . S
C900 H918 0.928 . S
C901 C898 1.260 . S
C901 C899 1.479 . S
C902 C897 1.245 . S
C902 C898 1.477 . S
C902 H919 0.932 . S
C903 U886 2.882 . S
C903 C897 1.428 . S
C903 O906 1.301 . S
C903 O907 1.282 . S
O904 U886 2.441 . S
O904 C890 1.249 . S
O905 U886 2.420 . S
O905 C890 1.202 . S
O906 U886 2.455 . S
O906 C903 1.301 . S
O907 U886 2.449 . S
O907 C903 1.282 . S
H908 C881 0.931 . S
H909 C883 0.929 . S
H910 C884 0.930 . S
H911 C885 0.931 . S
H912 C892 0.932 . S
H913 C893 0.930 . S
H914 C894 0.929 . S
H915 C896 0.930 . S
H916 C898 0.932 . S
H917 C899 0.929 . S
H918 C900 0.928 . S
H919 C902 0.932 . S
C920 C921 1.264 . S
C920 C925 1.479 . S
C920 C930 1.465 . S
C921 C920 1.264 . S
C921 C923 1.339 . S
C921 H948 0.931 . S
C922 C923 1.395 . S
C922 C924 1.320 . S
C923 C921 1.339 . S
C923 C922 1.395 . S
C923 H949 0.929 . S
C924 C922 1.320 . S
C924 C925 1.405 . S
C924 H950 0.930 . S
C925 C920 1.479 . S
C925 C924 1.405 . S
C925 H951 0.931 . S
U926 O927 2.454 . S
U926 O928 2.458 . S
U926 C929 2.984 . S
U926 C930 2.847 . S
U926 C943 2.882 . S
U926 O944 2.441 . S
U926 O945 2.420 . S
U926 O946 2.455 . S
U926 O947 2.449 . S
O927 U926 2.454 . S
O927 C929 1.353 . S
O928 U926 2.458 . S
O928 C929 1.286 . S
C929 U926 2.984 . S
C929 O927 1.353 . S
C929 O928 1.286 . S
C929 C931 1.363 . S
C930 C920 1.465 . S
C930 U926 2.847 . S
C930 O944 1.249 . S
C930 O945 1.202 . S
C931 C929 1.363 . S
C931 C933 1.408 . S
C931 C936 1.342 . S
C932 C933 1.310 . S
C932 C935 1.461 . S
C932 H952 0.932 . S
C933 C931 1.408 . S
C933 C932 1.310 . S
C933 H953 0.930 . S
C934 C935 1.474 . S
C934 C936 1.285 . S
C934 H954 0.929 . S
C935 C932 1.461 . S
C935 C934 1.474 . S
C936 C931 1.342 . S
C936 C934 1.285 . S
C936 H955 0.930 . S
C937 C940 1.424 . S
C937 C942 1.245 . S
C937 C943 1.428 . S
C938 C941 1.260 . S
C938 C942 1.477 . S
C938 H956 0.932 . S
C939 C940 1.384 . S
C939 C941 1.479 . S
C939 H957 0.929 . S
C940 C937 1.424 . S
C940 C939 1.384 . S
C940 H958 0.928 . S
C941 C938 1.260 . S
C941 C939 1.479 . S
C942 C937 1.245 . S
C942 C938 1.477 . S
C942 H959 0.932 . S
C943 U926 2.882 . S
C943 C937 1.428 . S
C943 O946 1.301 . S
C943 O947 1.282 . S
O944 U926 2.441 . S
O944 C930 1.249 . S
O945 U926 2.420 . S
O945 C930 1.202 . S
O946 U926 2.455 . S
O946 C943 1.301 . S
O947 U926 2.449 . S
O947 C943 1.282 . S
H948 C921 0.931 . S
H949 C923 0.929 . S
H950 C924 0.930 . S
H951 C925 0.931 . S
H952 C932 0.932 . S
H953 C933 0.930 . S
H954 C934 0.929 . S
H955 C936 0.930 . S
H956 C938 0.932 . S
H957 C939 0.929 . S
H958 C940 0.928 . S
H959 C942 0.932 . S
C960 C961 1.264 . S
C960 C965 1.479 . S
C960 C970 1.465 . S
C961 C960 1.264 . S
C961 C963 1.339 . S
C961 H988 0.931 . S
C962 C963 1.395 . S
C962 C964 1.320 . S
C963 C961 1.339 . S
C963 C962 1.395 . S
C963 H989 0.929 . S
C964 C962 1.320 . S
C964 C965 1.405 . S
C964 H990 0.930 . S
C965 C960 1.479 . S
C965 C964 1.405 . S
C965 H991 0.931 . S
U966 O967 2.454 . S
U966 O968 2.458 . S
U966 C969 2.984 . S
U966 C970 2.847 . S
U966 C983 2.882 . S
U966 O984 2.441 . S
U966 O985 2.420 . S
U966 O986 2.455 . S
U966 O987 2.449 . S
O967 U966 2.454 . S
O967 C969 1.353 . S
O968 U966 2.458 . S
O968 C969 1.286 . S
C969 U966 2.984 . S
C969 O967 1.353 . S
C969 O968 1.286 . S
C969 C971 1.363 . S
C970 C960 1.465 . S
C970 U966 2.847 . S
C970 O984 1.249 . S
C970 O985 1.202 . S
C971 C969 1.363 . S
C971 C973 1.408 . S
C971 C976 1.342 . S
C972 C973 1.310 . S
C972 C975 1.461 . S
C972 H992 0.932 . S
C973 C971 1.408 . S
C973 C972 1.310 . S
C973 H993 0.930 . S
C974 C975 1.474 . S
C974 C976 1.285 . S
C974 H994 0.929 . S
C975 C972 1.461 . S
C975 C974 1.474 . S
C976 C971 1.342 . S
C976 C974 1.285 . S
C976 H995 0.930 . S
C977 C980 1.424 . S
C977 C982 1.245 . S
C977 C983 1.428 . S
C978 C981 1.260 . S
C978 C982 1.477 . S
C978 H996 0.932 . S
C979 C980 1.384 . S
C979 C981 1.479 . S
C979 H997 0.929 . S
C980 C977 1.424 . S
C980 C979 1.384 . S
C980 H998 0.928 . S
C981 C978 1.260 . S
C981 C979 1.479 . S
C982 C977 1.245 . S
C982 C978 1.477 . S
C982 H999 0.932 . S
C983 U966 2.882 . S
C983 C977 1.428 . S
C983 O986 1.301 . S
C983 O987 1.282 . S
O984 U966 2.441 . S
O984 C970 1.249 . S
O985 U966 2.420 . S
O985 C970 1.202 . S
O986 U966 2.455 . S
O986 C983 1.301 . S
O987 U966 2.449 . S
O987 C983 1.282 . S
H988 C961 0.931 . S
H989 C963 0.929 . S
H990 C964 0.930 . S
H991 C965 0.931 . S
H992 C972 0.932 . S
H993 C973 0.930 . S
H994 C974 0.929 . S
H995 C976 0.930 . S
H996 C978 0.932 . S
H997 C979 0.929 . S
H998 C980 0.928 . S
H999 C982 0.932 . S
C1000 C1001 1.264 . S
C1000 C1005 1.479 . S
C1000 C1010 1.465 . S
C1001 C1000 1.264 . S
C1001 C1003 1.339 . S
C1001 H1028 0.931 . S
C1002 C1003 1.395 . S
C1002 C1004 1.320 . S
C1003 C1001 1.339 . S
C1003 C1002 1.395 . S
C1003 H1029 0.929 . S
C1004 C1002 1.320 . S
C1004 C1005 1.405 . S
C1004 H1030 0.930 . S
C1005 C1000 1.479 . S
C1005 C1004 1.405 . S
C1005 H1031 0.931 . S
U1006 O1007 2.454 . S
U1006 O1008 2.458 . S
U1006 C1009 2.984 . S
U1006 C1010 2.847 . S
U1006 C1023 2.882 . S
U1006 O1024 2.441 . S
U1006 O1025 2.420 . S
U1006 O1026 2.455 . S
U1006 O1027 2.449 . S
O1007 U1006 2.454 . S
O1007 C1009 1.353 . S
O1008 U1006 2.458 . S
O1008 C1009 1.286 . S
C1009 U1006 2.984 . S
C1009 O1007 1.353 . S
C1009 O1008 1.286 . S
C1009 C1011 1.363 . S
C1010 C1000 1.465 . S
C1010 U1006 2.847 . S
C1010 O1024 1.249 . S
C1010 O1025 1.202 . S
C1011 C1009 1.363 . S
C1011 C1013 1.408 . S
C1011 C1016 1.342 . S
C1012 C1013 1.310 . S
C1012 C1015 1.461 . S
C1012 H1032 0.932 . S
C1013 C1011 1.408 . S
C1013 C1012 1.310 . S
C1013 H1033 0.930 . S
C1014 C1015 1.474 . S
C1014 C1016 1.285 . S
C1014 H1034 0.929 . S
C1015 C1012 1.461 . S
C1015 C1014 1.474 . S
C1016 C1011 1.342 . S
C1016 C1014 1.285 . S
C1016 H1035 0.930 . S
C1017 C1020 1.424 . S
C1017 C1022 1.245 . S
C1017 C1023 1.428 . S
C1018 C1021 1.260 . S
C1018 C1022 1.477 . S
C1018 H1036 0.932 . S
C1019 C1020 1.384 . S
C1019 C1021 1.479 . S
C1019 H1037 0.929 . S
C1020 C1017 1.424 . S
C1020 C1019 1.384 . S
C1020 H1038 0.928 . S
C1021 C1018 1.260 . S
C1021 C1019 1.479 . S
C1022 C1017 1.245 . S
C1022 C1018 1.477 . S
C1022 H1039 0.932 . S
C1023 U1006 2.882 . S
C1023 C1017 1.428 . S
C1023 O1026 1.301 . S
C1023 O1027 1.282 . S
O1024 U1006 2.441 . S
O1024 C1010 1.249 . S
O1025 U1006 2.420 . S
O1025 C1010 1.202 . S
O1026 U1006 2.455 . S
O1026 C1023 1.301 . S
O1027 U1006 2.449 . S
O1027 C1023 1.282 . S
H1028 C1001 0.931 . S
H1029 C1003 0.929 . S
H1030 C1004 0.930 . S
H1031 C1005 0.931 . S
H1032 C1012 0.932 . S
H1033 C1013 0.930 . S
H1034 C1014 0.929 . S
H1035 C1016 0.930 . S
H1036 C1018 0.932 . S
H1037 C1019 0.929 . S
H1038 C1020 0.928 . S
H1039 C1022 0.932 . S
C1040 C1041 1.264 . S
C1040 C1045 1.479 . S
C1040 C1050 1.465 . S
C1041 C1040 1.264 . S
C1041 C1043 1.339 . S
C1041 H1068 0.931 . S
C1042 C1043 1.395 . S
C1042 C1044 1.320 . S
C1043 C1041 1.339 . S
C1043 C1042 1.395 . S
C1043 H1069 0.929 . S
C1044 C1042 1.320 . S
C1044 C1045 1.405 . S
C1044 H1070 0.930 . S
C1045 C1040 1.479 . S
C1045 C1044 1.405 . S
C1045 H1071 0.931 . S
U1046 O1047 2.454 . S
U1046 O1048 2.458 . S
U1046 C1049 2.984 . S
U1046 C1050 2.847 . S
U1046 C1063 2.882 . S
U1046 O1064 2.441 . S
U1046 O1065 2.420 . S
U1046 O1066 2.455 . S
U1046 O1067 2.449 . S
O1047 U1046 2.454 . S
O1047 C1049 1.353 . S
O1048 U1046 2.458 . S
O1048 C1049 1.286 . S
C1049 U1046 2.984 . S
C1049 O1047 1.353 . S
C1049 O1048 1.286 . S
C1049 C1051 1.363 . S
C1050 C1040 1.465 . S
C1050 U1046 2.847 . S
C1050 O1064 1.249 . S
C1050 O1065 1.202 . S
C1051 C1049 1.363 . S
C1051 C1053 1.408 . S
C1051 C1056 1.342 . S
C1052 C1053 1.310 . S
C1052 C1055 1.461 . S
C1052 H1072 0.932 . S
C1053 C1051 1.408 . S
C1053 C1052 1.310 . S
C1053 H1073 0.930 . S
C1054 C1055 1.474 . S
C1054 C1056 1.285 . S
C1054 H1074 0.929 . S
C1055 C1052 1.461 . S
C1055 C1054 1.474 . S
C1056 C1051 1.342 . S
C1056 C1054 1.285 . S
C1056 H1075 0.930 . S
C1057 C1060 1.424 . S
C1057 C1062 1.245 . S
C1057 C1063 1.428 . S
C1058 C1061 1.260 . S
C1058 C1062 1.477 . S
C1058 H1076 0.932 . S
C1059 C1060 1.384 . S
C1059 C1061 1.479 . S
C1059 H1077 0.929 . S
C1060 C1057 1.424 . S
C1060 C1059 1.384 . S
C1060 H1078 0.928 . S
C1061 C1058 1.260 . S
C1061 C1059 1.479 . S
C1062 C1057 1.245 . S
C1062 C1058 1.477 . S
C1062 H1079 0.932 . S
C1063 U1046 2.882 . S
C1063 C1057 1.428 . S
C1063 O1066 1.301 . S
C1063 O1067 1.282 . S
O1064 U1046 2.441 . S
O1064 C1050 1.249 . S
O1065 U1046 2.420 . S
O1065 C1050 1.202 . S
O1066 U1046 2.455 . S
O1066 C1063 1.301 . S
O1067 U1046 2.449 . S
O1067 C1063 1.282 . S
H1068 C1041 0.931 . S
H1069 C1043 0.929 . S
H1070 C1044 0.930 . S
H1071 C1045 0.931 . S
H1072 C1052 0.932 . S
H1073 C1053 0.930 . S
H1074 C1054 0.929 . S
H1075 C1056 0.930 . S
H1076 C1058 0.932 . S
H1077 C1059 0.929 . S
H1078 C1060 0.928 . S
H1079 C1062 0.932 . S
C1080 C1081 1.264 . S
C1080 C1085 1.479 . S
C1080 C1090 1.465 . S
C1081 C1080 1.264 . S
C1081 C1083 1.339 . S
C1081 H1108 0.931 . S
C1082 C1083 1.395 . S
C1082 C1084 1.320 . S
C1083 C1081 1.339 . S
C1083 C1082 1.395 . S
C1083 H1109 0.929 . S
C1084 C1082 1.320 . S
C1084 C1085 1.405 . S
C1084 H1110 0.930 . S
C1085 C1080 1.479 . S
C1085 C1084 1.405 . S
C1085 H1111 0.931 . S
U1086 O1087 2.454 . S
U1086 O1088 2.458 . S
U1086 C1089 2.984 . S
U1086 C1090 2.847 . S
U1086 C1103 2.882 . S
U1086 O1104 2.441 . S
U1086 O1105 2.420 . S
U1086 O1106 2.455 . S
U1086 O1107 2.449 . S
O1087 U1086 2.454 . S
O1087 C1089 1.353 . S
O1088 U1086 2.458 . S
O1088 C1089 1.286 . S
C1089 U1086 2.984 . S
C1089 O1087 1.353 . S
C1089 O1088 1.286 . S
C1089 C1091 1.363 . S
C1090 C1080 1.465 . S
C1090 U1086 2.847 . S
C1090 O1104 1.249 . S
C1090 O1105 1.202 . S
C1091 C1089 1.363 . S
C1091 C1093 1.408 . S
C1091 C1096 1.342 . S
C1092 C1093 1.310 . S
C1092 C1095 1.461 . S
C1092 H1112 0.932 . S
C1093 C1091 1.408 . S
C1093 C1092 1.310 . S
C1093 H1113 0.930 . S
C1094 C1095 1.474 . S
C1094 C1096 1.285 . S
C1094 H1114 0.929 . S
C1095 C1092 1.461 . S
C1095 C1094 1.474 . S
C1096 C1091 1.342 . S
C1096 C1094 1.285 . S
C1096 H1115 0.930 . S
C1097 C1100 1.424 . S
C1097 C1102 1.245 . S
C1097 C1103 1.428 . S
C1098 C1101 1.260 . S
C1098 C1102 1.477 . S
C1098 H1116 0.932 . S
C1099 C1100 1.384 . S
C1099 C1101 1.479 . S
C1099 H1117 0.929 . S
C1100 C1097 1.424 . S
C1100 C1099 1.384 . S
C1100 H1118 0.928 . S
C1101 C1098 1.260 . S
C1101 C1099 1.479 . S
C1102 C1097 1.245 . S
C1102 C1098 1.477 . S
C1102 H1119 0.932 . S
C1103 U1086 2.882 . S
C1103 C1097 1.428 . S
C1103 O1106 1.301 . S
C1103 O1107 1.282 . S
O1104 U1086 2.441 . S
O1104 C1090 1.249 . S
O1105 U1086 2.420 . S
O1105 C1090 1.202 . S
O1106 U1086 2.455 . S
O1106 C1103 1.301 . S
O1107 U1086 2.449 . S
O1107 C1103 1.282 . S
H1108 C1081 0.931 . S
H1109 C1083 0.929 . S
H1110 C1084 0.930 . S
H1111 C1085 0.931 . S
H1112 C1092 0.932 . S
H1113 C1093 0.930 . S
H1114 C1094 0.929 . S
H1115 C1096 0.930 . S
H1116 C1098 0.932 . S
H1117 C1099 0.929 . S
H1118 C1100 0.928 . S
H1119 C1102 0.932 . S
C1120 C1121 1.264 . S
C1120 C1125 1.479 . S
C1120 C1130 1.465 . S
C1121 C1120 1.264 . S
C1121 C1123 1.339 . S
C1121 H1148 0.931 . S
C1122 C1123 1.395 . S
C1122 C1124 1.320 . S
C1123 C1121 1.339 . S
C1123 C1122 1.395 . S
C1123 H1149 0.929 . S
C1124 C1122 1.320 . S
C1124 C1125 1.405 . S
C1124 H1150 0.930 . S
C1125 C1120 1.479 . S
C1125 C1124 1.405 . S
C1125 H1151 0.931 . S
U1126 O1127 2.454 . S
U1126 O1128 2.458 . S
U1126 C1129 2.984 . S
U1126 C1130 2.847 . S
U1126 C1143 2.882 . S
U1126 O1144 2.441 . S
U1126 O1145 2.420 . S
U1126 O1146 2.455 . S
U1126 O1147 2.449 . S
O1127 U1126 2.454 . S
O1127 C1129 1.353 . S
O1128 U1126 2.458 . S
O1128 C1129 1.286 . S
C1129 U1126 2.984 . S
C1129 O1127 1.353 . S
C1129 O1128 1.286 . S
C1129 C1131 1.363 . S
C1130 C1120 1.465 . S
C1130 U1126 2.847 . S
C1130 O1144 1.249 . S
C1130 O1145 1.202 . S
C1131 C1129 1.363 . S
C1131 C1133 1.408 . S
C1131 C1136 1.342 . S
C1132 C1133 1.310 . S
C1132 C1135 1.461 . S
C1132 H1152 0.932 . S
C1133 C1131 1.408 . S
C1133 C1132 1.310 . S
C1133 H1153 0.930 . S
C1134 C1135 1.474 . S
C1134 C1136 1.285 . S
C1134 H1154 0.929 . S
C1135 C1132 1.461 . S
C1135 C1134 1.474 . S
C1136 C1131 1.342 . S
C1136 C1134 1.285 . S
C1136 H1155 0.930 . S
C1137 C1140 1.424 . S
C1137 C1142 1.245 . S
C1137 C1143 1.428 . S
C1138 C1141 1.260 . S
C1138 C1142 1.477 . S
C1138 H1156 0.932 . S
C1139 C1140 1.384 . S
C1139 C1141 1.479 . S
C1139 H1157 0.929 . S
C1140 C1137 1.424 . S
C1140 C1139 1.384 . S
C1140 H1158 0.928 . S
C1141 C1138 1.260 . S
C1141 C1139 1.479 . S
C1142 C1137 1.245 . S
C1142 C1138 1.477 . S
C1142 H1159 0.932 . S
C1143 U1126 2.882 . S
C1143 C1137 1.428 . S
C1143 O1146 1.301 . S
C1143 O1147 1.282 . S
O1144 U1126 2.441 . S
O1144 C1130 1.249 . S
O1145 U1126 2.420 . S
O1145 C1130 1.202 . S
O1146 U1126 2.455 . S
O1146 C1143 1.301 . S
O1147 U1126 2.449 . S
O1147 C1143 1.282 . S
H1148 C1121 0.931 . S
H1149 C1123 0.929 . S
H1150 C1124 0.930 . S
H1151 C1125 0.931 . S
H1152 C1132 0.932 . S
H1153 C1133 0.930 . S
H1154 C1134 0.929 . S
H1155 C1136 0.930 . S
H1156 C1138 0.932 . S
H1157 C1139 0.929 . S
H1158 C1140 0.928 . S
H1159 C1142 0.932 . S
C1160 C1161 1.264 . S
C1160 C1165 1.479 . S
C1160 C1170 1.465 . S
C1161 C1160 1.264 . S
C1161 C1163 1.339 . S
C1161 H1188 0.931 . S
C1162 C1163 1.395 . S
C1162 C1164 1.320 . S
C1163 C1161 1.339 . S
C1163 C1162 1.395 . S
C1163 H1189 0.929 . S
C1164 C1162 1.320 . S
C1164 C1165 1.405 . S
C1164 H1190 0.930 . S
C1165 C1160 1.479 . S
C1165 C1164 1.405 . S
C1165 H1191 0.931 . S
U1166 O1167 2.454 . S
U1166 O1168 2.458 . S
U1166 C1169 2.984 . S
U1166 C1170 2.847 . S
U1166 C1183 2.882 . S
U1166 O1184 2.441 . S
U1166 O1185 2.420 . S
U1166 O1186 2.455 . S
U1166 O1187 2.449 . S
O1167 U1166 2.454 . S
O1167 C1169 1.353 . S
O1168 U1166 2.458 . S
O1168 C1169 1.286 . S
C1169 U1166 2.984 . S
C1169 O1167 1.353 . S
C1169 O1168 1.286 . S
C1169 C1171 1.363 . S
C1170 C1160 1.465 . S
C1170 U1166 2.847 . S
C1170 O1184 1.249 . S
C1170 O1185 1.202 . S
C1171 C1169 1.363 . S
C1171 C1173 1.408 . S
C1171 C1176 1.342 . S
C1172 C1173 1.310 . S
C1172 C1175 1.461 . S
C1172 H1192 0.932 . S
C1173 C1171 1.408 . S
C1173 C1172 1.310 . S
C1173 H1193 0.930 . S
C1174 C1175 1.474 . S
C1174 C1176 1.285 . S
C1174 H1194 0.929 . S
C1175 C1172 1.461 . S
C1175 C1174 1.474 . S
C1176 C1171 1.342 . S
C1176 C1174 1.285 . S
C1176 H1195 0.930 . S
C1177 C1180 1.424 . S
C1177 C1182 1.245 . S
C1177 C1183 1.428 . S
C1178 C1181 1.260 . S
C1178 C1182 1.477 . S
C1178 H1196 0.932 . S
C1179 C1180 1.384 . S
C1179 C1181 1.479 . S
C1179 H1197 0.929 . S
C1180 C1177 1.424 . S
C1180 C1179 1.384 . S
C1180 H1198 0.928 . S
C1181 C1178 1.260 . S
C1181 C1179 1.479 . S
C1182 C1177 1.245 . S
C1182 C1178 1.477 . S
C1182 H1199 0.932 . S
C1183 U1166 2.882 . S
C1183 C1177 1.428 . S
C1183 O1186 1.301 . S
C1183 O1187 1.282 . S
O1184 U1166 2.441 . S
O1184 C1170 1.249 . S
O1185 U1166 2.420 . S
O1185 C1170 1.202 . S
O1186 U1166 2.455 . S
O1186 C1183 1.301 . S
O1187 U1166 2.449 . S
O1187 C1183 1.282 . S
H1188 C1161 0.931 . S
H1189 C1163 0.929 . S
H1190 C1164 0.930 . S
H1191 C1165 0.931 . S
H1192 C1172 0.932 . S
H1193 C1173 0.930 . S
H1194 C1174 0.929 . S
H1195 C1176 0.930 . S
H1196 C1178 0.932 . S
H1197 C1179 0.929 . S
H1198 C1180 0.928 . S
H1199 C1182 0.932 . S
C1200 C1201 1.264 . S
C1200 C1205 1.479 . S
C1200 C1210 1.465 . S
C1201 C1200 1.264 . S
C1201 C1203 1.339 . S
C1201 H1228 0.931 . S
C1202 C1203 1.395 . S
C1202 C1204 1.320 . S
C1203 C1201 1.339 . S
C1203 C1202 1.395 . S
C1203 H1229 0.929 . S
C1204 C1202 1.320 . S
C1204 C1205 1.405 . S
C1204 H1230 0.930 . S
C1205 C1200 1.479 . S
C1205 C1204 1.405 . S
C1205 H1231 0.931 . S
U1206 O1207 2.454 . S
U1206 O1208 2.458 . S
U1206 C1209 2.984 . S
U1206 C1210 2.847 . S
U1206 C1223 2.882 . S
U1206 O1224 2.441 . S
U1206 O1225 2.420 . S
U1206 O1226 2.455 . S
U1206 O1227 2.449 . S
O1207 U1206 2.454 . S
O1207 C1209 1.353 . S
O1208 U1206 2.458 . S
O1208 C1209 1.286 . S
C1209 U1206 2.984 . S
C1209 O1207 1.353 . S
C1209 O1208 1.286 . S
C1209 C1211 1.363 . S
C1210 C1200 1.465 . S
C1210 U1206 2.847 . S
C1210 O1224 1.249 . S
C1210 O1225 1.202 . S
C1211 C1209 1.363 . S
C1211 C1213 1.408 . S
C1211 C1216 1.342 . S
C1212 C1213 1.310 . S
C1212 C1215 1.461 . S
C1212 H1232 0.932 . S
C1213 C1211 1.408 . S
C1213 C1212 1.310 . S
C1213 H1233 0.930 . S
C1214 C1215 1.474 . S
C1214 C1216 1.285 . S
C1214 H1234 0.929 . S
C1215 C1212 1.461 . S
C1215 C1214 1.474 . S
C1216 C1211 1.342 . S
C1216 C1214 1.285 . S
C1216 H1235 0.930 . S
C1217 C1220 1.424 . S
C1217 C1222 1.245 . S
C1217 C1223 1.428 . S
C1218 C1221 1.260 . S
C1218 C1222 1.477 . S
C1218 H1236 0.932 . S
C1219 C1220 1.384 . S
C1219 C1221 1.479 . S
C1219 H1237 0.929 . S
C1220 C1217 1.424 . S
C1220 C1219 1.384 . S
C1220 H1238 0.928 . S
C1221 C1218 1.260 . S
C1221 C1219 1.479 . S
C1222 C1217 1.245 . S
C1222 C1218 1.477 . S
C1222 H1239 0.932 . S
C1223 U1206 2.882 . S
C1223 C1217 1.428 . S
C1223 O1226 1.301 . S
C1223 O1227 1.282 . S
O1224 U1206 2.441 . S
O1224 C1210 1.249 . S
O1225 U1206 2.420 . S
O1225 C1210 1.202 . S
O1226 U1206 2.455 . S
O1226 C1223 1.301 . S
O1227 U1206 2.449 . S
O1227 C1223 1.282 . S
H1228 C1201 0.931 . S
H1229 C1203 0.929 . S
H1230 C1204 0.930 . S
H1231 C1205 0.931 . S
H1232 C1212 0.932 . S
H1233 C1213 0.930 . S
H1234 C1214 0.929 . S
H1235 C1216 0.930 . S
H1236 C1218 0.932 . S
H1237 C1219 0.929 . S
H1238 C1220 0.928 . S
H1239 C1222 0.932 . S
C1240 C1241 1.264 . S
C1240 C1245 1.479 . S
C1240 C1250 1.465 . S
C1241 C1240 1.264 . S
C1241 C1243 1.339 . S
C1241 H1268 0.931 . S
C1242 C1243 1.395 . S
C1242 C1244 1.320 . S
C1243 C1241 1.339 . S
C1243 C1242 1.395 . S
C1243 H1269 0.929 . S
C1244 C1242 1.320 . S
C1244 C1245 1.405 . S
C1244 H1270 0.930 . S
C1245 C1240 1.479 . S
C1245 C1244 1.405 . S
C1245 H1271 0.931 . S
U1246 O1247 2.454 . S
U1246 O1248 2.458 . S
U1246 C1249 2.984 . S
U1246 C1250 2.847 . S
U1246 C1263 2.882 . S
U1246 O1264 2.441 . S
U1246 O1265 2.420 . S
U1246 O1266 2.455 . S
U1246 O1267 2.449 . S
O1247 U1246 2.454 . S
O1247 C1249 1.353 . S
O1248 U1246 2.458 . S
O1248 C1249 1.286 . S
C1249 U1246 2.984 . S
C1249 O1247 1.353 . S
C1249 O1248 1.286 . S
C1249 C1251 1.363 . S
C1250 C1240 1.465 . S
C1250 U1246 2.847 . S
C1250 O1264 1.249 . S
C1250 O1265 1.202 . S
C1251 C1249 1.363 . S
C1251 C1253 1.408 . S
C1251 C1256 1.342 . S
C1252 C1253 1.310 . S
C1252 C1255 1.461 . S
C1252 H1272 0.932 . S
C1253 C1251 1.408 . S
C1253 C1252 1.310 . S
C1253 H1273 0.930 . S
C1254 C1255 1.474 . S
C1254 C1256 1.285 . S
C1254 H1274 0.929 . S
C1255 C1252 1.461 . S
C1255 C1254 1.474 . S
C1256 C1251 1.342 . S
C1256 C1254 1.285 . S
C1256 H1275 0.930 . S
C1257 C1260 1.424 . S
C1257 C1262 1.245 . S
C1257 C1263 1.428 . S
C1258 C1261 1.260 . S
C1258 C1262 1.477 . S
C1258 H1276 0.932 . S
C1259 C1260 1.384 . S
C1259 C1261 1.479 . S
C1259 H1277 0.929 . S
C1260 C1257 1.424 . S
C1260 C1259 1.384 . S
C1260 H1278 0.928 . S
C1261 C1258 1.260 . S
C1261 C1259 1.479 . S
C1262 C1257 1.245 . S
C1262 C1258 1.477 . S
C1262 H1279 0.932 . S
C1263 U1246 2.882 . S
C1263 C1257 1.428 . S
C1263 O1266 1.301 . S
C1263 O1267 1.282 . S
O1264 U1246 2.441 . S
O1264 C1250 1.249 . S
O1265 U1246 2.420 . S
O1265 C1250 1.202 . S
O1266 U1246 2.455 . S
O1266 C1263 1.301 . S
O1267 U1246 2.449 . S
O1267 C1263 1.282 . S
H1268 C1241 0.931 . S
H1269 C1243 0.929 . S
H1270 C1244 0.930 . S
H1271 C1245 0.931 . S
H1272 C1252 0.932 . S
H1273 C1253 0.930 . S
H1274 C1254 0.929 . S
H1275 C1256 0.930 . S
H1276 C1258 0.932 . S
H1277 C1259 0.929 . S
H1278 C1260 0.928 . S
H1279 C1262 0.932 . S
H1280 C1307 0.929 . S
N1281 C1306 1.433 . S
N1281 C1312 1.435 . S
N1281 C1318 1.423 . S
H1282 C1308 0.930 . S
H1283 C1311 0.931 . S
H1284 C1310 0.929 . S
H1285 C1313 0.930 . S
H1286 C1314 0.932 . S
H1287 C1317 0.929 . S
H1288 C1316 0.931 . S
H1289 C1319 0.929 . S
H1290 C1323 0.932 . S
H1291 C1320 0.931 . S
H1292 C1322 0.929 . S
H1293 C1325 0.929 . S
H1294 C1326 0.930 . S
H1295 C1328 0.929 . S
H1296 C1329 0.931 . S
H1297 C1331 0.930 . S
H1298 C1332 0.932 . S
H1299 C1334 0.931 . S
H1300 C1335 0.929 . S
H1301 C1337 0.929 . S
H1302 C1338 0.931 . S
H1303 C1340 0.929 . S
N1304 C1324 1.433 . S
N1304 C1330 1.435 . S
N1304 C1336 1.423 . S
H1305 C1341 0.932 . S
C1306 N1281 1.433 . S
C1306 C1307 1.363 . S
C1306 C1311 1.370 . S
C1307 H1280 0.929 . S
C1307 C1306 1.363 . S
C1307 C1308 1.385 . S
C1308 H1282 0.930 . S
C1308 C1307 1.385 . S
C1308 C1309 1.357 . S
C1309 C1308 1.357 . S
C1309 C1310 1.406 . S
C1310 H1284 0.929 . S
C1310 C1309 1.406 . S
C1310 C1311 1.391 . S
C1311 H1283 0.931 . S
C1311 C1306 1.370 . S
C1311 C1310 1.391 . S
C1312 N1281 1.435 . S
C1312 C1313 1.358 . S
C1312 C1317 1.371 . S
C1313 H1285 0.930 . S
C1313 C1312 1.358 . S
C1313 C1314 1.405 . S
C1314 H1286 0.932 . S
C1314 C1313 1.405 . S
C1314 C1315 1.383 . S
C1315 C1314 1.383 . S
C1315 C1316 1.393 . S
C1316 H1288 0.931 . S
C1316 C1315 1.393 . S
C1316 C1317 1.382 . S
C1317 H1287 0.929 . S
C1317 C1312 1.371 . S
C1317 C1316 1.382 . S
C1318 N1281 1.423 . S
C1318 C1319 1.362 . S
C1318 C1323 1.388 . S
C1319 H1289 0.929 . S
C1319 C1318 1.362 . S
C1319 C1320 1.376 . S
C1320 H1291 0.931 . S
C1320 C1319 1.376 . S
C1320 C1321 1.357 1_556 S
C1321 C1320 1.357 1_554 S
C1321 C1322 1.308 1_554 S
C1321 C1339 1.549 . S
C1322 H1292 0.929 . S
C1322 C1321 1.308 1_556 S
C1322 C1323 1.443 . S
C1323 H1290 0.932 . S
C1323 C1318 1.388 . S
C1323 C1322 1.443 . S
C1324 N1304 1.433 . S
C1324 C1325 1.363 . S
C1324 C1329 1.370 . S
C1325 H1293 0.929 . S
C1325 C1324 1.363 . S
C1325 C1326 1.385 . S
C1326 H1294 0.930 . S
C1326 C1325 1.385 . S
C1326 C1327 1.357 . S
C1327 C1326 1.357 . S
C1327 C1328 1.406 . S
C1328 H1295 0.929 . S
C1328 C1327 1.406 . S
C1328 C1329 1.391 . S
C1329 H1296 0.931 . S
C1329 C1324 1.370 . S
C1329 C1328 1.391 . S
C1330 N1304 1.435 . S
C1330 C1331 1.358 . S
C1330 C1335 1.371 . S
C1331 H1297 0.930 . S
C1331 C1330 1.358 . S
C1331 C1332 1.405 . S
C1332 H1298 0.932 . S
C1332 C1331 1.405 . S
C1332 C1333 1.383 . S
C1333 C1332 1.383 . S
C1333 C1334 1.393 . S
C1334 H1299 0.931 . S
C1334 C1333 1.393 . S
C1334 C1335 1.382 . S
C1335 H1300 0.929 . S
C1335 C1330 1.371 . S
C1335 C1334 1.382 . S
C1336 N1304 1.423 . S
C1336 C1337 1.362 . S
C1336 C1341 1.388 . S
C1337 H1301 0.929 . S
C1337 C1336 1.362 . S
C1337 C1338 1.376 . S
C1338 H1302 0.931 . S
C1338 C1337 1.376 . S
C1338 C1339 1.396 . S
C1339 C1321 1.549 . S
C1339 C1338 1.396 . S
C1339 C1340 1.348 . S
C1340 H1303 0.929 . S
C1340 C1339 1.348 . S
C1340 C1341 1.443 . S
C1341 H1305 0.932 . S
C1341 C1336 1.388 . S
C1341 C1340 1.443 . S
H1342 C1369 0.929 . S
N1343 C1368 1.433 . S
N1343 C1374 1.435 . S
N1343 C1380 1.423 . S
H1344 C1370 0.930 . S
H1345 C1373 0.931 . S
H1346 C1372 0.929 . S
H1347 C1375 0.930 . S
H1348 C1376 0.932 . S
H1349 C1379 0.929 . S
H1350 C1378 0.931 . S
H1351 C1381 0.929 . S
H1352 C1385 0.932 . S
H1353 C1382 0.881 1_554 S
H1354 C1384 0.929 1_554 S
H1355 C1387 0.929 . S
H1356 C1388 0.930 . S
H1357 C1390 0.929 . S
H1358 C1391 0.931 . S
H1359 C1393 0.930 . S
H1360 C1394 0.932 . S
H1361 C1396 0.931 . S
H1362 C1397 0.929 . S
H1363 C1399 0.929 . S
H1364 C1400 0.931 . S
H1365 C1402 0.929 . S
N1366 C1386 1.433 . S
N1366 C1392 1.435 . S
N1366 C1398 1.423 . S
H1367 C1403 0.932 . S
C1368 N1343 1.433 . S
C1368 C1369 1.363 . S
C1368 C1373 1.370 . S
C1369 H1342 0.929 . S
C1369 C1368 1.363 . S
C1369 C1370 1.385 . S
C1370 H1344 0.930 . S
C1370 C1369 1.385 . S
C1370 C1371 1.357 . S
C1371 C1370 1.357 . S
C1371 C1372 1.406 . S
C1372 H1346 0.929 . S
C1372 C1371 1.406 . S
C1372 C1373 1.391 . S
C1373 H1345 0.931 . S
C1373 C1368 1.370 . S
C1373 C1372 1.391 . S
C1374 N1343 1.435 . S
C1374 C1375 1.358 . S
C1374 C1379 1.371 . S
C1375 H1347 0.930 . S
C1375 C1374 1.358 . S
C1375 C1376 1.405 . S
C1376 H1348 0.932 . S
C1376 C1375 1.405 . S
C1376 C1377 1.383 . S
C1377 C1376 1.383 . S
C1377 C1378 1.393 . S
C1378 H1350 0.931 . S
C1378 C1377 1.393 . S
C1378 C1379 1.382 . S
C1379 H1349 0.929 . S
C1379 C1374 1.371 . S
C1379 C1378 1.382 . S
C1380 N1343 1.423 . S
C1380 C1381 1.362 . S
C1380 C1385 1.388 . S
C1381 H1351 0.929 . S
C1381 C1380 1.362 . S
C1381 C1382 1.376 . S
C1382 H1353 0.881 1_556 S
C1382 C1381 1.376 . S
C1382 C1383 1.396 1_556 S
C1383 C1382 1.396 1_554 S
C1383 C1384 1.348 1_554 S
C1383 C1401 1.472 . S
C1384 H1354 0.929 1_556 S
C1384 C1383 1.348 1_556 S
C1384 C1385 1.443 . S
C1385 H1352 0.932 . S
C1385 C1380 1.388 . S
C1385 C1384 1.443 . S
C1386 N1366 1.433 . S
C1386 C1387 1.363 . S
C1386 C1391 1.370 . S
C1387 H1355 0.929 . S
C1387 C1386 1.363 . S
C1387 C1388 1.385 . S
C1388 H1356 0.930 . S
C1388 C1387 1.385 . S
C1388 C1389 1.357 . S
C1389 C1388 1.357 . S
C1389 C1390 1.406 . S
C1390 H1357 0.929 . S
C1390 C1389 1.406 . S
C1390 C1391 1.391 . S
C1391 H1358 0.931 . S
C1391 C1386 1.370 . S
C1391 C1390 1.391 . S
C1392 N1366 1.435 . S
C1392 C1393 1.358 . S
C1392 C1397 1.371 . S
C1393 H1359 0.930 . S
C1393 C1392 1.358 . S
C1393 C1394 1.405 . S
C1394 H1360 0.932 . S
C1394 C1393 1.405 . S
C1394 C1395 1.383 . S
C1395 C1394 1.383 . S
C1395 C1396 1.393 . S
C1396 H1361 0.931 . S
C1396 C1395 1.393 . S
C1396 C1397 1.382 . S
C1397 H1362 0.929 . S
C1397 C1392 1.371 . S
C1397 C1396 1.382 . S
C1398 N1366 1.423 . S
C1398 C1399 1.362 . S
C1398 C1403 1.388 . S
C1399 H1363 0.929 . S
C1399 C1398 1.362 . S
C1399 C1400 1.376 . S
C1400 H1364 0.931 . S
C1400 C1399 1.376 . S
C1400 C1401 1.396 . S
C1401 C1383 1.472 . S
C1401 C1400 1.396 . S
C1401 C1402 1.348 . S
C1402 H1365 0.929 . S
C1402 C1401 1.348 . S
C1402 C1403 1.443 . S
C1403 H1367 0.932 . S
C1403 C1398 1.388 . S
C1403 C1402 1.443 . S
H1404 C1431 0.929 . S
N1405 C1430 1.433 . S
N1405 C1436 1.435 . S
N1405 C1442 1.423 . S
H1406 C1432 0.930 . S
H1407 C1435 0.931 . S
H1408 C1434 0.929 . S
H1409 C1437 0.930 . S
H1410 C1438 0.932 . S
H1411 C1441 0.929 . S
H1412 C1440 0.931 . S
H1413 C1443 0.929 . S
H1414 C1447 0.932 . S
H1415 C1444 0.931 . S
H1416 C1446 0.980 . S
H1417 C1449 0.929 . S
H1418 C1450 0.930 . S
H1419 C1452 0.929 . S
H1420 C1453 0.931 . S
H1421 C1455 0.930 . S
H1422 C1456 0.932 . S
H1423 C1458 0.931 . S
H1424 C1459 0.929 . S
H1425 C1461 0.929 . S
H1426 C1462 0.931 . S
H1427 C1464 0.929 . S
N1428 C1448 1.433 . S
N1428 C1454 1.435 . S
N1428 C1460 1.423 . S
H1429 C1465 0.932 . S
C1430 N1405 1.433 . S
C1430 C1431 1.363 . S
C1430 C1435 1.370 . S
C1431 H1404 0.929 . S
C1431 C1430 1.363 . S
C1431 C1432 1.385 . S
C1432 H1406 0.930 . S
C1432 C1431 1.385 . S
C1432 C1433 1.357 . S
C1433 C1432 1.357 . S
C1433 C1434 1.406 . S
C1434 H1408 0.929 . S
C1434 C1433 1.406 . S
C1434 C1435 1.391 . S
C1435 H1407 0.931 . S
C1435 C1430 1.370 . S
C1435 C1434 1.391 . S
C1436 N1405 1.435 . S
C1436 C1437 1.358 . S
C1436 C1441 1.371 . S
C1437 H1409 0.930 . S
C1437 C1436 1.358 . S
C1437 C1438 1.405 . S
C1438 H1410 0.932 . S
C1438 C1437 1.405 . S
C1438 C1439 1.383 . S
C1439 C1438 1.383 . S
C1439 C1440 1.393 . S
C1440 H1412 0.931 . S
C1440 C1439 1.393 . S
C1440 C1441 1.382 . S
C1441 H1411 0.929 . S
C1441 C1436 1.371 . S
C1441 C1440 1.382 . S
C1442 N1405 1.423 . S
C1442 C1443 1.362 . S
C1442 C1447 1.388 . S
C1443 H1413 0.929 . S
C1443 C1442 1.362 . S
C1443 C1444 1.376 . S
C1444 H1415 0.931 . S
C1444 C1443 1.376 . S
C1444 C1445 1.349 1_556 S
C1445 C1444 1.349 1_554 S
C1445 C1446 1.304 1_554 S
C1445 C1463 1.562 . S
C1446 H1416 0.980 . S
C1446 C1445 1.304 1_556 S
C1446 C1447 1.443 . S
C1447 H1414 0.932 . S
C1447 C1442 1.388 . S
C1447 C1446 1.443 . S
C1448 N1428 1.433 . S
C1448 C1449 1.363 . S
C1448 C1453 1.370 . S
C1449 H1417 0.929 . S
C1449 C1448 1.363 . S
C1449 C1450 1.385 . S
C1450 H1418 0.930 . S
C1450 C1449 1.385 . S
C1450 C1451 1.357 . S
C1451 C1450 1.357 . S
C1451 C1452 1.406 . S
C1452 H1419 0.929 . S
C1452 C1451 1.406 . S
C1452 C1453 1.391 . S
C1453 H1420 0.931 . S
C1453 C1448 1.370 . S
C1453 C1452 1.391 . S
C1454 N1428 1.435 . S
C1454 C1455 1.358 . S
C1454 C1459 1.371 . S
C1455 H1421 0.930 . S
C1455 C1454 1.358 . S
C1455 C1456 1.405 . S
C1456 H1422 0.932 . S
C1456 C1455 1.405 . S
C1456 C1457 1.383 . S
C1457 C1456 1.383 . S
C1457 C1458 1.393 . S
C1458 H1423 0.931 . S
C1458 C1457 1.393 . S
C1458 C1459 1.382 . S
C1459 H1424 0.929 . S
C1459 C1454 1.371 . S
C1459 C1458 1.382 . S
C1460 N1428 1.423 . S
C1460 C1461 1.362 . S
C1460 C1465 1.388 . S
C1461 H1425 0.929 . S
C1461 C1460 1.362 . S
C1461 C1462 1.376 . S
C1462 H1426 0.931 . S
C1462 C1461 1.376 . S
C1462 C1463 1.396 . S
C1463 C1445 1.562 . S
C1463 C1462 1.396 . S
C1463 C1464 1.348 . S
C1464 H1427 0.929 . S
C1464 C1463 1.348 . S
C1464 C1465 1.443 . S
C1465 H1429 0.932 . S
C1465 C1460 1.388 . S
C1465 C1464 1.443 . S
H1466 C1493 0.929 . S
N1467 C1492 1.433 . S
N1467 C1498 1.435 . S
N1467 C1504 1.423 . S
H1468 C1494 0.930 . S
H1469 C1497 0.931 . S
H1470 C1496 0.929 . S
H1471 C1499 0.930 . S
H1472 C1500 0.932 . S
H1473 C1503 0.929 . S
H1474 C1502 0.931 . S
H1475 C1505 0.929 . S
H1476 C1509 0.932 . S
H1477 C1506 0.909 1_554 S
H1478 C1508 0.928 1_554 S
H1479 C1511 0.929 . S
H1480 C1512 0.930 . S
H1481 C1514 0.929 . S
H1482 C1515 0.931 . S
H1483 C1517 0.930 . S
H1484 C1518 0.932 . S
H1485 C1520 0.931 . S
H1486 C1521 0.929 . S
H1487 C1523 0.929 . S
H1488 C1524 0.931 . S
H1489 C1526 0.929 . S
N1490 C1510 1.433 . S
N1490 C1516 1.435 . S
N1490 C1522 1.423 . S
H1491 C1527 0.932 . S
C1492 N1467 1.433 . S
C1492 C1493 1.363 . S
C1492 C1497 1.370 . S
C1493 H1466 0.929 . S
C1493 C1492 1.363 . S
C1493 C1494 1.385 . S
C1494 H1468 0.930 . S
C1494 C1493 1.385 . S
C1494 C1495 1.357 . S
C1495 C1494 1.357 . S
C1495 C1496 1.406 . S
C1496 H1470 0.929 . S
C1496 C1495 1.406 . S
C1496 C1497 1.391 . S
C1497 H1469 0.931 . S
C1497 C1492 1.370 . S
C1497 C1496 1.391 . S
C1498 N1467 1.435 . S
C1498 C1499 1.358 . S
C1498 C1503 1.371 . S
C1499 H1471 0.930 . S
C1499 C1498 1.358 . S
C1499 C1500 1.405 . S
C1500 H1472 0.932 . S
C1500 C1499 1.405 . S
C1500 C1501 1.383 . S
C1501 C1500 1.383 . S
C1501 C1502 1.393 . S
C1502 H1474 0.931 . S
C1502 C1501 1.393 . S
C1502 C1503 1.382 . S
C1503 H1473 0.929 . S
C1503 C1498 1.371 . S
C1503 C1502 1.382 . S
C1504 N1467 1.423 . S
C1504 C1505 1.362 . S
C1504 C1509 1.388 . S
C1505 H1475 0.929 . S
C1505 C1504 1.362 . S
C1505 C1506 1.376 . S
C1506 H1477 0.909 1_556 S
C1506 C1505 1.376 . S
C1506 C1507 1.396 1_556 S
C1507 C1506 1.396 1_554 S
C1507 C1508 1.348 1_554 S
C1507 C1525 1.472 . S
C1508 H1478 0.928 1_556 S
C1508 C1507 1.348 1_556 S
C1508 C1509 1.443 . S
C1509 H1476 0.932 . S
C1509 C1504 1.388 . S
C1509 C1508 1.443 . S
C1510 N1490 1.433 . S
C1510 C1511 1.363 . S
C1510 C1515 1.370 . S
C1511 H1479 0.929 . S
C1511 C1510 1.363 . S
C1511 C1512 1.385 . S
C1512 H1480 0.930 . S
C1512 C1511 1.385 . S
C1512 C1513 1.357 . S
C1513 C1512 1.357 . S
C1513 C1514 1.406 . S
C1514 H1481 0.929 . S
C1514 C1513 1.406 . S
C1514 C1515 1.391 . S
C1515 H1482 0.931 . S
C1515 C1510 1.370 . S
C1515 C1514 1.391 . S
C1516 N1490 1.435 . S
C1516 C1517 1.358 . S
C1516 C1521 1.371 . S
C1517 H1483 0.930 . S
C1517 C1516 1.358 . S
C1517 C1518 1.405 . S
C1518 H1484 0.932 . S
C1518 C1517 1.405 . S
C1518 C1519 1.383 . S
C1519 C1518 1.383 . S
C1519 C1520 1.393 . S
C1520 H1485 0.931 . S
C1520 C1519 1.393 . S
C1520 C1521 1.382 . S
C1521 H1486 0.929 . S
C1521 C1516 1.371 . S
C1521 C1520 1.382 . S
C1522 N1490 1.423 . S
C1522 C1523 1.362 . S
C1522 C1527 1.388 . S
C1523 H1487 0.929 . S
C1523 C1522 1.362 . S
C1523 C1524 1.376 . S
C1524 H1488 0.931 . S
C1524 C1523 1.376 . S
C1524 C1525 1.396 . S
C1525 C1507 1.472 . S
C1525 C1524 1.396 . S
C1525 C1526 1.348 . S
C1526 H1489 0.929 . S
C1526 C1525 1.348 . S
C1526 C1527 1.443 . S
C1527 H1491 0.932 . S
C1527 C1522 1.388 . S
C1527 C1526 1.443 . S
H1528 C1555 0.929 . S
N1529 C1554 1.433 . S
N1529 C1560 1.435 . S
N1529 C1566 1.423 . S
H1530 C1556 0.930 . S
H1531 C1559 0.931 . S
H1532 C1558 0.929 . S
H1533 C1561 0.930 . S
H1534 C1562 0.932 . S
H1535 C1565 0.929 . S
H1536 C1564 0.931 . S
H1537 C1567 0.929 . S
H1538 C1571 0.932 . S
H1539 C1568 0.886 1_455 S
H1540 C1570 0.917 1_455 S
H1541 C1573 0.929 . S
H1542 C1574 0.930 . S
H1543 C1576 0.929 . S
H1544 C1577 0.931 . S
H1545 C1579 0.930 . S
H1546 C1580 0.932 . S
H1547 C1582 0.931 . S
H1548 C1583 0.929 . S
H1549 C1585 0.929 . S
H1550 C1586 0.931 . S
H1551 C1588 0.929 . S
N1552 C1572 1.433 . S
N1552 C1578 1.435 . S
N1552 C1584 1.423 . S
H1553 C1589 0.932 . S
C1554 N1529 1.433 . S
C1554 C1555 1.363 . S
C1554 C1559 1.370 . S
C1555 H1528 0.929 . S
C1555 C1554 1.363 . S
C1555 C1556 1.385 . S
C1556 H1530 0.930 . S
C1556 C1555 1.385 . S
C1556 C1557 1.357 . S
C1557 C1556 1.357 . S
C1557 C1558 1.406 . S
C1558 H1532 0.929 . S
C1558 C1557 1.406 . S
C1558 C1559 1.391 . S
C1559 H1531 0.931 . S
C1559 C1554 1.370 . S
C1559 C1558 1.391 . S
C1560 N1529 1.435 . S
C1560 C1561 1.358 . S
C1560 C1565 1.371 . S
C1561 H1533 0.930 . S
C1561 C1560 1.358 . S
C1561 C1562 1.405 . S
C1562 H1534 0.932 . S
C1562 C1561 1.405 . S
C1562 C1563 1.383 . S
C1563 C1562 1.383 . S
C1563 C1564 1.393 . S
C1564 H1536 0.931 . S
C1564 C1563 1.393 . S
C1564 C1565 1.382 . S
C1565 H1535 0.929 . S
C1565 C1560 1.371 . S
C1565 C1564 1.382 . S
C1566 N1529 1.423 . S
C1566 C1567 1.362 . S
C1566 C1571 1.388 . S
C1567 H1537 0.929 . S
C1567 C1566 1.362 . S
C1567 C1568 1.376 . S
C1568 H1539 0.886 1_655 S
C1568 C1567 1.376 . S
C1568 C1569 1.396 1_655 S
C1569 C1568 1.396 1_455 S
C1569 C1570 1.348 1_455 S
C1569 C1587 1.472 . S
C1570 H1540 0.917 1_655 S
C1570 C1569 1.348 1_655 S
C1570 C1571 1.443 . S
C1571 H1538 0.932 . S
C1571 C1566 1.388 . S
C1571 C1570 1.443 . S
C1572 N1552 1.433 . S
C1572 C1573 1.363 . S
C1572 C1577 1.370 . S
C1573 H1541 0.929 . S
C1573 C1572 1.363 . S
C1573 C1574 1.385 . S
C1574 H1542 0.930 . S
C1574 C1573 1.385 . S
C1574 C1575 1.357 . S
C1575 C1574 1.357 . S
C1575 C1576 1.406 . S
C1576 H1543 0.929 . S
C1576 C1575 1.406 . S
C1576 C1577 1.391 . S
C1577 H1544 0.931 . S
C1577 C1572 1.370 . S
C1577 C1576 1.391 . S
C1578 N1552 1.435 . S
C1578 C1579 1.358 . S
C1578 C1583 1.371 . S
C1579 H1545 0.930 . S
C1579 C1578 1.358 . S
C1579 C1580 1.405 . S
C1580 H1546 0.932 . S
C1580 C1579 1.405 . S
C1580 C1581 1.383 . S
C1581 C1580 1.383 . S
C1581 C1582 1.393 . S
C1582 H1547 0.931 . S
C1582 C1581 1.393 . S
C1582 C1583 1.382 . S
C1583 H1548 0.929 . S
C1583 C1578 1.371 . S
C1583 C1582 1.382 . S
C1584 N1552 1.423 . S
C1584 C1585 1.362 . S
C1584 C1589 1.388 . S
C1585 H1549 0.929 . S
C1585 C1584 1.362 . S
C1585 C1586 1.376 . S
C1586 H1550 0.931 . S
C1586 C1585 1.376 . S
C1586 C1587 1.396 . S
C1587 C1569 1.472 . S
C1587 C1586 1.396 . S
C1587 C1588 1.348 . S
C1588 H1551 0.929 . S
C1588 C1587 1.348 . S
C1588 C1589 1.443 . S
C1589 H1553 0.932 . S
C1589 C1584 1.388 . S
C1589 C1588 1.443 . S
H1590 C1617 0.929 . S
N1591 C1616 1.433 . S
N1591 C1622 1.435 . S
N1591 C1628 1.423 . S
H1592 C1618 0.930 . S
H1593 C1621 0.931 . S
H1594 C1620 0.929 . S
H1595 C1623 0.930 . S
H1596 C1624 0.932 . S
H1597 C1627 0.929 . S
H1598 C1626 0.931 . S
H1599 C1629 0.929 . S
H1600 C1633 0.932 . S
H1601 C1630 0.931 . S
H1602 C1632 0.929 . S
H1603 C1635 0.929 . S
H1604 C1636 0.930 . S
H1605 C1638 0.929 . S
H1606 C1639 0.931 . S
H1607 C1641 0.930 . S
H1608 C1642 0.932 . S
H1609 C1644 0.931 . S
H1610 C1645 0.929 . S
H1611 C1647 0.929 . S
H1612 C1648 0.931 . S
H1613 C1650 0.929 . S
N1614 C1634 1.433 . S
N1614 C1640 1.435 . S
N1614 C1646 1.423 . S
H1615 C1651 0.932 . S
C1616 N1591 1.433 . S
C1616 C1617 1.363 . S
C1616 C1621 1.370 . S
C1617 H1590 0.929 . S
C1617 C1616 1.363 . S
C1617 C1618 1.385 . S
C1618 H1592 0.930 . S
C1618 C1617 1.385 . S
C1618 C1619 1.357 . S
C1619 C1618 1.357 . S
C1619 C1620 1.406 . S
C1620 H1594 0.929 . S
C1620 C1619 1.406 . S
C1620 C1621 1.391 . S
C1621 H1593 0.931 . S
C1621 C1616 1.370 . S
C1621 C1620 1.391 . S
C1622 N1591 1.435 . S
C1622 C1623 1.358 . S
C1622 C1627 1.371 . S
C1623 H1595 0.930 . S
C1623 C1622 1.358 . S
C1623 C1624 1.405 . S
C1624 H1596 0.932 . S
C1624 C1623 1.405 . S
C1624 C1625 1.383 . S
C1625 C1624 1.383 . S
C1625 C1626 1.393 . S
C1626 H1598 0.931 . S
C1626 C1625 1.393 . S
C1626 C1627 1.382 . S
C1627 H1597 0.929 . S
C1627 C1622 1.371 . S
C1627 C1626 1.382 . S
C1628 N1591 1.423 . S
C1628 C1629 1.362 . S
C1628 C1633 1.388 . S
C1629 H1599 0.929 . S
C1629 C1628 1.362 . S
C1629 C1630 1.376 . S
C1630 H1601 0.931 . S
C1630 C1629 1.376 . S
C1630 C1631 1.396 . S
C1631 C1630 1.396 . S
C1631 C1632 1.348 . S
C1631 C1649 1.472 1_545 S
C1632 H1602 0.929 . S
C1632 C1631 1.348 . S
C1632 C1633 1.443 . S
C1633 H1600 0.932 . S
C1633 C1628 1.388 . S
C1633 C1632 1.443 . S
C1634 N1614 1.433 . S
C1634 C1635 1.363 . S
C1634 C1639 1.370 . S
C1635 H1603 0.929 . S
C1635 C1634 1.363 . S
C1635 C1636 1.385 . S
C1636 H1604 0.930 . S
C1636 C1635 1.385 . S
C1636 C1637 1.357 . S
C1637 C1636 1.357 . S
C1637 C1638 1.406 . S
C1638 H1605 0.929 . S
C1638 C1637 1.406 . S
C1638 C1639 1.391 . S
C1639 H1606 0.931 . S
C1639 C1634 1.370 . S
C1639 C1638 1.391 . S
C1640 N1614 1.435 . S
C1640 C1641 1.358 . S
C1640 C1645 1.371 . S
C1641 H1607 0.930 . S
C1641 C1640 1.358 . S
C1641 C1642 1.405 . S
C1642 H1608 0.932 . S
C1642 C1641 1.405 . S
C1642 C1643 1.383 . S
C1643 C1642 1.383 . S
C1643 C1644 1.393 . S
C1644 H1609 0.931 . S
C1644 C1643 1.393 . S
C1644 C1645 1.382 . S
C1645 H1610 0.929 . S
C1645 C1640 1.371 . S
C1645 C1644 1.382 . S
C1646 N1614 1.423 . S
C1646 C1647 1.362 . S
C1646 C1651 1.388 . S
C1647 H1611 0.929 . S
C1647 C1646 1.362 . S
C1647 C1648 1.376 . S
C1648 H1612 0.931 . S
C1648 C1647 1.376 . S
C1648 C1649 1.396 . S
C1649 C1631 1.472 1_565 S
C1649 C1648 1.396 . S
C1649 C1650 1.348 . S
C1650 H1613 0.929 . S
C1650 C1649 1.348 . S
C1650 C1651 1.443 . S
C1651 H1615 0.932 . S
C1651 C1646 1.388 . S
C1651 C1650 1.443 . S
H1652 C1679 0.929 . S
N1653 C1678 1.433 . S
N1653 C1684 1.435 . S
N1653 C1690 1.423 . S
H1654 C1680 0.930 . S
H1655 C1683 0.931 . S
H1656 C1682 0.929 . S
H1657 C1685 0.930 . S
H1658 C1686 0.932 . S
H1659 C1689 0.929 . S
H1660 C1688 0.931 . S
H1661 C1691 0.929 . S
H1662 C1695 0.932 . S
H1663 C1692 0.931 . S
H1664 C1694 0.929 . S
H1665 C1697 0.929 . S
H1666 C1698 0.930 . S
H1667 C1700 0.929 . S
H1668 C1701 0.931 . S
H1669 C1703 0.930 . S
H1670 C1704 0.932 . S
H1671 C1706 0.931 . S
H1672 C1707 0.929 . S
H1673 C1709 0.929 . S
H1674 C1710 0.929 . S
H1675 C1712 0.895 1_455 S
N1676 C1696 1.433 . S
N1676 C1702 1.435 . S
N1676 C1708 1.423 . S
H1677 C1713 0.932 . S
C1678 N1653 1.433 . S
C1678 C1679 1.363 . S
C1678 C1683 1.370 . S
C1679 H1652 0.929 . S
C1679 C1678 1.363 . S
C1679 C1680 1.385 . S
C1680 H1654 0.930 . S
C1680 C1679 1.385 . S
C1680 C1681 1.357 . S
C1681 C1680 1.357 . S
C1681 C1682 1.406 . S
C1682 H1656 0.929 . S
C1682 C1681 1.406 . S
C1682 C1683 1.391 . S
C1683 H1655 0.931 . S
C1683 C1678 1.370 . S
C1683 C1682 1.391 . S
C1684 N1653 1.435 . S
C1684 C1685 1.358 . S
C1684 C1689 1.371 . S
C1685 H1657 0.930 . S
C1685 C1684 1.358 . S
C1685 C1686 1.405 . S
C1686 H1658 0.932 . S
C1686 C1685 1.405 . S
C1686 C1687 1.383 . S
C1687 C1686 1.383 . S
C1687 C1688 1.393 . S
C1688 H1660 0.931 . S
C1688 C1687 1.393 . S
C1688 C1689 1.382 . S
C1689 H1659 0.929 . S
C1689 C1684 1.371 . S
C1689 C1688 1.382 . S
C1690 N1653 1.423 . S
C1690 C1691 1.362 . S
C1690 C1695 1.388 . S
C1691 H1661 0.929 . S
C1691 C1690 1.362 . S
C1691 C1692 1.376 . S
C1692 H1663 0.931 . S
C1692 C1691 1.376 . S
C1692 C1693 1.396 . S
C1693 C1692 1.396 . S
C1693 C1694 1.348 . S
C1693 C1711 1.472 . S
C1694 H1664 0.929 . S
C1694 C1693 1.348 . S
C1694 C1695 1.443 . S
C1695 H1662 0.932 . S
C1695 C1690 1.388 . S
C1695 C1694 1.443 . S
C1696 N1676 1.433 . S
C1696 C1697 1.363 . S
C1696 C1701 1.370 . S
C1697 H1665 0.929 . S
C1697 C1696 1.363 . S
C1697 C1698 1.385 . S
C1698 H1666 0.930 . S
C1698 C1697 1.385 . S
C1698 C1699 1.357 . S
C1699 C1698 1.357 . S
C1699 C1700 1.406 . S
C1700 H1667 0.929 . S
C1700 C1699 1.406 . S
C1700 C1701 1.391 . S
C1701 H1668 0.931 . S
C1701 C1696 1.370 . S
C1701 C1700 1.391 . S
C1702 N1676 1.435 . S
C1702 C1703 1.358 . S
C1702 C1707 1.371 . S
C1703 H1669 0.930 . S
C1703 C1702 1.358 . S
C1703 C1704 1.405 . S
C1704 H1670 0.932 . S
C1704 C1703 1.405 . S
C1704 C1705 1.383 . S
C1705 C1704 1.383 . S
C1705 C1706 1.393 . S
C1706 H1671 0.931 . S
C1706 C1705 1.393 . S
C1706 C1707 1.382 . S
C1707 H1672 0.929 . S
C1707 C1702 1.371 . S
C1707 C1706 1.382 . S
C1708 N1676 1.423 . S
C1708 C1709 1.362 . S
C1708 C1713 1.388 . S
C1709 H1673 0.929 . S
C1709 C1708 1.362 . S
C1709 C1710 1.376 . S
C1710 H1674 0.929 . S
C1710 C1709 1.376 . S
C1710 C1711 1.396 1_655 S
C1711 C1693 1.472 . S
C1711 C1710 1.396 1_455 S
C1711 C1712 1.348 1_455 S
C1712 H1675 0.895 1_655 S
C1712 C1711 1.348 1_655 S
C1712 C1713 1.443 . S
C1713 H1677 0.932 . S
C1713 C1708 1.388 . S
C1713 C1712 1.443 . S
H1714 C1741 0.929 . S
N1715 C1740 1.433 . S
N1715 C1746 1.435 . S
N1715 C1752 1.423 . S
H1716 C1742 0.930 . S
H1717 C1745 0.931 . S
H1718 C1744 0.929 . S
H1719 C1747 0.930 . S
H1720 C1748 0.932 . S
H1721 C1751 0.929 . S
H1722 C1750 0.931 . S
H1723 C1753 0.929 . S
H1724 C1757 0.932 . S
H1725 C1754 0.931 . S
H1726 C1756 0.929 . S
H1727 C1759 0.929 . S
H1728 C1760 0.930 . S
H1729 C1762 0.929 . S
H1730 C1763 0.931 . S
H1731 C1765 0.930 . S
H1732 C1766 0.932 . S
H1733 C1768 0.931 . S
H1734 C1769 0.929 . S
H1735 C1771 0.929 . S
H1736 C1772 0.931 . S
H1737 C1774 0.929 . S
N1738 C1758 1.433 . S
N1738 C1764 1.435 . S
N1738 C1770 1.423 . S
H1739 C1775 0.932 . S
C1740 N1715 1.433 . S
C1740 C1741 1.363 . S
C1740 C1745 1.370 . S
C1741 H1714 0.929 . S
C1741 C1740 1.363 . S
C1741 C1742 1.385 . S
C1742 H1716 0.930 . S
C1742 C1741 1.385 . S
C1742 C1743 1.357 . S
C1743 C1742 1.357 . S
C1743 C1744 1.406 . S
C1744 H1718 0.929 . S
C1744 C1743 1.406 . S
C1744 C1745 1.391 . S
C1745 H1717 0.931 . S
C1745 C1740 1.370 . S
C1745 C1744 1.391 . S
C1746 N1715 1.435 . S
C1746 C1747 1.358 . S
C1746 C1751 1.371 . S
C1747 H1719 0.930 . S
C1747 C1746 1.358 . S
C1747 C1748 1.405 . S
C1748 H1720 0.932 . S
C1748 C1747 1.405 . S
C1748 C1749 1.383 . S
C1749 C1748 1.383 . S
C1749 C1750 1.393 . S
C1750 H1722 0.931 . S
C1750 C1749 1.393 . S
C1750 C1751 1.382 . S
C1751 H1721 0.929 . S
C1751 C1746 1.371 . S
C1751 C1750 1.382 . S
C1752 N1715 1.423 . S
C1752 C1753 1.362 . S
C1752 C1757 1.388 . S
C1753 H1723 0.929 . S
C1753 C1752 1.362 . S
C1753 C1754 1.376 . S
C1754 H1725 0.931 . S
C1754 C1753 1.376 . S
C1754 C1755 1.396 . S
C1755 C1754 1.396 . S
C1755 C1756 1.348 . S
C1755 C1773 1.472 1_565 S
C1756 H1726 0.929 . S
C1756 C1755 1.348 . S
C1756 C1757 1.443 . S
C1757 H1724 0.932 . S
C1757 C1752 1.388 . S
C1757 C1756 1.443 . S
C1758 N1738 1.433 . S
C1758 C1759 1.363 . S
C1758 C1763 1.370 . S
C1759 H1727 0.929 . S
C1759 C1758 1.363 . S
C1759 C1760 1.385 . S
C1760 H1728 0.930 . S
C1760 C1759 1.385 . S
C1760 C1761 1.357 . S
C1761 C1760 1.357 . S
C1761 C1762 1.406 . S
C1762 H1729 0.929 . S
C1762 C1761 1.406 . S
C1762 C1763 1.391 . S
C1763 H1730 0.931 . S
C1763 C1758 1.370 . S
C1763 C1762 1.391 . S
C1764 N1738 1.435 . S
C1764 C1765 1.358 . S
C1764 C1769 1.371 . S
C1765 H1731 0.930 . S
C1765 C1764 1.358 . S
C1765 C1766 1.405 . S
C1766 H1732 0.932 . S
C1766 C1765 1.405 . S
C1766 C1767 1.383 . S
C1767 C1766 1.383 . S
C1767 C1768 1.393 . S
C1768 H1733 0.931 . S
C1768 C1767 1.393 . S
C1768 C1769 1.382 . S
C1769 H1734 0.929 . S
C1769 C1764 1.371 . S
C1769 C1768 1.382 . S
C1770 N1738 1.423 . S
C1770 C1771 1.362 . S
C1770 C1775 1.388 . S
C1771 H1735 0.929 . S
C1771 C1770 1.362 . S
C1771 C1772 1.376 . S
C1772 H1736 0.931 . S
C1772 C1771 1.376 . S
C1772 C1773 1.396 . S
C1773 C1755 1.472 1_545 S
C1773 C1772 1.396 . S
C1773 C1774 1.348 . S
C1774 H1737 0.929 . S
C1774 C1773 1.348 . S
C1774 C1775 1.443 . S
C1775 H1739 0.932 . S
C1775 C1770 1.388 . S
C1775 C1774 1.443 . S
H1776 C1803 0.929 . S
N1777 C1802 1.433 . S
N1777 C1808 1.435 . S
N1777 C1814 1.423 . S
H1778 C1804 0.930 . S
H1779 C1807 0.931 . S
H1780 C1806 0.929 . S
H1781 C1809 0.930 . S
H1782 C1810 0.932 . S
H1783 C1813 0.929 . S
H1784 C1812 0.931 . S
H1785 C1815 0.929 . S
H1786 C1819 0.932 . S
H1787 C1816 0.931 . S
H1788 C1818 0.929 . S
H1789 C1821 0.929 . S
H1790 C1822 0.930 . S
H1791 C1824 0.929 . S
H1792 C1825 0.931 . S
H1793 C1827 0.930 . S
H1794 C1828 0.932 . S
H1795 C1830 0.931 . S
H1796 C1831 0.929 . S
H1797 C1833 0.929 . S
H1798 C1834 0.919 1_455 S
H1799 C1836 0.929 1_455 S
N1800 C1820 1.433 . S
N1800 C1826 1.435 . S
N1800 C1832 1.423 . S
H1801 C1837 0.932 . S
C1802 N1777 1.433 . S
C1802 C1803 1.363 . S
C1802 C1807 1.370 . S
C1803 H1776 0.929 . S
C1803 C1802 1.363 . S
C1803 C1804 1.385 . S
C1804 H1778 0.930 . S
C1804 C1803 1.385 . S
C1804 C1805 1.357 . S
C1805 C1804 1.357 . S
C1805 C1806 1.406 . S
C1806 H1780 0.929 . S
C1806 C1805 1.406 . S
C1806 C1807 1.391 . S
C1807 H1779 0.931 . S
C1807 C1802 1.370 . S
C1807 C1806 1.391 . S
C1808 N1777 1.435 . S
C1808 C1809 1.358 . S
C1808 C1813 1.371 . S
C1809 H1781 0.930 . S
C1809 C1808 1.358 . S
C1809 C1810 1.405 . S
C1810 H1782 0.932 . S
C1810 C1809 1.405 . S
C1810 C1811 1.383 . S
C1811 C1810 1.383 . S
C1811 C1812 1.393 . S
C1812 H1784 0.931 . S
C1812 C1811 1.393 . S
C1812 C1813 1.382 . S
C1813 H1783 0.929 . S
C1813 C1808 1.371 . S
C1813 C1812 1.382 . S
C1814 N1777 1.423 . S
C1814 C1815 1.362 . S
C1814 C1819 1.388 . S
C1815 H1785 0.929 . S
C1815 C1814 1.362 . S
C1815 C1816 1.376 . S
C1816 H1787 0.931 . S
C1816 C1815 1.376 . S
C1816 C1817 1.396 . S
C1817 C1816 1.396 . S
C1817 C1818 1.348 . S
C1817 C1835 1.472 . S
C1818 H1788 0.929 . S
C1818 C1817 1.348 . S
C1818 C1819 1.443 . S
C1819 H1786 0.932 . S
C1819 C1814 1.388 . S
C1819 C1818 1.443 . S
C1820 N1800 1.433 . S
C1820 C1821 1.363 . S
C1820 C1825 1.370 . S
C1821 H1789 0.929 . S
C1821 C1820 1.363 . S
C1821 C1822 1.385 . S
C1822 H1790 0.930 . S
C1822 C1821 1.385 . S
C1822 C1823 1.357 . S
C1823 C1822 1.357 . S
C1823 C1824 1.406 . S
C1824 H1791 0.929 . S
C1824 C1823 1.406 . S
C1824 C1825 1.391 . S
C1825 H1792 0.931 . S
C1825 C1820 1.370 . S
C1825 C1824 1.391 . S
C1826 N1800 1.435 . S
C1826 C1827 1.358 . S
C1826 C1831 1.371 . S
C1827 H1793 0.930 . S
C1827 C1826 1.358 . S
C1827 C1828 1.405 . S
C1828 H1794 0.932 . S
C1828 C1827 1.405 . S
C1828 C1829 1.383 . S
C1829 C1828 1.383 . S
C1829 C1830 1.393 . S
C1830 H1795 0.931 . S
C1830 C1829 1.393 . S
C1830 C1831 1.382 . S
C1831 H1796 0.929 . S
C1831 C1826 1.371 . S
C1831 C1830 1.382 . S
C1832 N1800 1.423 . S
C1832 C1833 1.362 . S
C1832 C1837 1.388 . S
C1833 H1797 0.929 . S
C1833 C1832 1.362 . S
C1833 C1834 1.376 . S
C1834 H1798 0.919 1_655 S
C1834 C1833 1.376 . S
C1834 C1835 1.396 1_655 S
C1835 C1817 1.472 . S
C1835 C1834 1.396 1_455 S
C1835 C1836 1.348 1_455 S
C1836 H1799 0.929 1_655 S
C1836 C1835 1.348 1_655 S
C1836 C1837 1.443 . S
C1837 H1801 0.932 . S
C1837 C1832 1.388 . S
C1837 C1836 1.443 . S
H1838 C1865 0.929 . S
N1839 C1864 1.433 . S
N1839 C1870 1.435 . S
N1839 C1876 1.423 . S
H1840 C1866 0.930 . S
H1841 C1869 0.931 . S
H1842 C1868 0.929 . S
H1843 C1871 0.930 . S
H1844 C1872 0.932 . S
H1845 C1875 0.929 . S
H1846 C1874 0.931 . S
H1847 C1877 0.929 . S
H1848 C1881 0.932 . S
H1849 C1878 0.931 . S
H1850 C1880 0.929 . S
H1851 C1883 0.929 . S
H1852 C1884 0.930 . S
H1853 C1886 0.929 . S
H1854 C1887 0.931 . S
H1855 C1889 0.930 . S
H1856 C1890 0.932 . S
H1857 C1892 0.931 . S
H1858 C1893 0.929 . S
H1859 C1895 0.929 . S
H1860 C1896 0.931 . S
H1861 C1898 0.929 . S
N1862 C1882 1.433 . S
N1862 C1888 1.435 . S
N1862 C1894 1.423 . S
H1863 C1899 0.932 . S
C1864 N1839 1.433 . S
C1864 C1865 1.363 . S
C1864 C1869 1.370 . S
C1865 H1838 0.929 . S
C1865 C1864 1.363 . S
C1865 C1866 1.385 . S
C1866 H1840 0.930 . S
C1866 C1865 1.385 . S
C1866 C1867 1.357 . S
C1867 C1866 1.357 . S
C1867 C1868 1.406 . S
C1868 H1842 0.929 . S
C1868 C1867 1.406 . S
C1868 C1869 1.391 . S
C1869 H1841 0.931 . S
C1869 C1864 1.370 . S
C1869 C1868 1.391 . S
C1870 N1839 1.435 . S
C1870 C1871 1.358 . S
C1870 C1875 1.371 . S
C1871 H1843 0.930 . S
C1871 C1870 1.358 . S
C1871 C1872 1.405 . S
C1872 H1844 0.932 . S
C1872 C1871 1.405 . S
C1872 C1873 1.383 . S
C1873 C1872 1.383 . S
C1873 C1874 1.393 . S
C1874 H1846 0.931 . S
C1874 C1873 1.393 . S
C1874 C1875 1.382 . S
C1875 H1845 0.929 . S
C1875 C1870 1.371 . S
C1875 C1874 1.382 . S
C1876 N1839 1.423 . S
C1876 C1877 1.362 . S
C1876 C1881 1.388 . S
C1877 H1847 0.929 . S
C1877 C1876 1.362 . S
C1877 C1878 1.376 . S
C1878 H1849 0.931 . S
C1878 C1877 1.376 . S
C1878 C1879 1.396 . S
C1879 C1878 1.396 . S
C1879 C1880 1.348 . S
C1879 C1897 1.472 1_545 S
C1880 H1850 0.929 . S
C1880 C1879 1.348 . S
C1880 C1881 1.443 . S
C1881 H1848 0.932 . S
C1881 C1876 1.388 . S
C1881 C1880 1.443 . S
C1882 N1862 1.433 . S
C1882 C1883 1.363 . S
C1882 C1887 1.370 . S
C1883 H1851 0.929 . S
C1883 C1882 1.363 . S
C1883 C1884 1.385 . S
C1884 H1852 0.930 . S
C1884 C1883 1.385 . S
C1884 C1885 1.357 . S
C1885 C1884 1.357 . S
C1885 C1886 1.406 . S
C1886 H1853 0.929 . S
C1886 C1885 1.406 . S
C1886 C1887 1.391 . S
C1887 H1854 0.931 . S
C1887 C1882 1.370 . S
C1887 C1886 1.391 . S
C1888 N1862 1.435 . S
C1888 C1889 1.358 . S
C1888 C1893 1.371 . S
C1889 H1855 0.930 . S
C1889 C1888 1.358 . S
C1889 C1890 1.405 . S
C1890 H1856 0.932 . S
C1890 C1889 1.405 . S
C1890 C1891 1.383 . S
C1891 C1890 1.383 . S
C1891 C1892 1.393 . S
C1892 H1857 0.931 . S
C1892 C1891 1.393 . S
C1892 C1893 1.382 . S
C1893 H1858 0.929 . S
C1893 C1888 1.371 . S
C1893 C1892 1.382 . S
C1894 N1862 1.423 . S
C1894 C1895 1.362 . S
C1894 C1899 1.388 . S
C1895 H1859 0.929 . S
C1895 C1894 1.362 . S
C1895 C1896 1.376 . S
C1896 H1860 0.931 . S
C1896 C1895 1.376 . S
C1896 C1897 1.396 . S
C1897 C1879 1.472 1_565 S
C1897 C1896 1.396 . S
C1897 C1898 1.348 . S
C1898 H1861 0.929 . S
C1898 C1897 1.348 . S
C1898 C1899 1.443 . S
C1899 H1863 0.932 . S
C1899 C1894 1.388 . S
C1899 C1898 1.443 . S
H1900 C1927 0.929 . S
N1901 C1926 1.433 . S
N1901 C1932 1.435 . S
N1901 C1938 1.423 . S
H1902 C1928 0.930 . S
H1903 C1931 0.931 . S
H1904 C1930 0.929 . S
H1905 C1933 0.930 . S
H1906 C1934 0.932 . S
H1907 C1937 0.929 . S
H1908 C1936 0.931 . S
H1909 C1939 0.929 . S
H1910 C1943 0.932 . S
H1911 C1940 0.978 . S
H1912 C1942 0.931 1_455 S
H1913 C1945 0.929 . S
H1914 C1946 0.930 . S
H1915 C1948 0.929 . S
H1916 C1949 0.931 . S
H1917 C1951 0.930 . S
H1918 C1952 0.932 . S
H1919 C1954 0.931 . S
H1920 C1955 0.929 . S
H1921 C1957 0.929 . S
H1922 C1958 0.931 . S
H1923 C1960 0.929 . S
N1924 C1944 1.433 . S
N1924 C1950 1.435 . S
N1924 C1956 1.423 . S
H1925 C1961 0.932 . S
C1926 N1901 1.433 . S
C1926 C1927 1.363 . S
C1926 C1931 1.370 . S
C1927 H1900 0.929 . S
C1927 C1926 1.363 . S
C1927 C1928 1.385 . S
C1928 H1902 0.930 . S
C1928 C1927 1.385 . S
C1928 C1929 1.357 . S
C1929 C1928 1.357 . S
C1929 C1930 1.406 . S
C1930 H1904 0.929 . S
C1930 C1929 1.406 . S
C1930 C1931 1.391 . S
C1931 H1903 0.931 . S
C1931 C1926 1.370 . S
C1931 C1930 1.391 . S
C1932 N1901 1.435 . S
C1932 C1933 1.358 . S
C1932 C1937 1.371 . S
C1933 H1905 0.930 . S
C1933 C1932 1.358 . S
C1933 C1934 1.405 . S
C1934 H1906 0.932 . S
C1934 C1933 1.405 . S
C1934 C1935 1.383 . S
C1935 C1934 1.383 . S
C1935 C1936 1.393 . S
C1936 H1908 0.931 . S
C1936 C1935 1.393 . S
C1936 C1937 1.382 . S
C1937 H1907 0.929 . S
C1937 C1932 1.371 . S
C1937 C1936 1.382 . S
C1938 N1901 1.423 . S
C1938 C1939 1.362 . S
C1938 C1943 1.388 . S
C1939 H1909 0.929 . S
C1939 C1938 1.362 . S
C1939 C1940 1.376 . S
C1940 H1911 0.978 . S
C1940 C1939 1.376 . S
C1940 C1941 1.396 1_655 S
C1941 C1940 1.396 1_455 S
C1941 C1942 1.348 1_455 S
C1941 C1959 1.472 . S
C1942 H1912 0.931 1_655 S
C1942 C1941 1.348 1_655 S
C1942 C1943 1.443 . S
C1943 H1910 0.932 . S
C1943 C1938 1.388 . S
C1943 C1942 1.443 . S
C1944 N1924 1.433 . S
C1944 C1945 1.363 . S
C1944 C1949 1.370 . S
C1945 H1913 0.929 . S
C1945 C1944 1.363 . S
C1945 C1946 1.385 . S
C1946 H1914 0.930 . S
C1946 C1945 1.385 . S
C1946 C1947 1.357 . S
C1947 C1946 1.357 . S
C1947 C1948 1.406 . S
C1948 H1915 0.929 . S
C1948 C1947 1.406 . S
C1948 C1949 1.391 . S
C1949 H1916 0.931 . S
C1949 C1944 1.370 . S
C1949 C1948 1.391 . S
C1950 N1924 1.435 . S
C1950 C1951 1.358 . S
C1950 C1955 1.371 . S
C1951 H1917 0.930 . S
C1951 C1950 1.358 . S
C1951 C1952 1.405 . S
C1952 H1918 0.932 . S
C1952 C1951 1.405 . S
C1952 C1953 1.383 . S
C1953 C1952 1.383 . S
C1953 C1954 1.393 . S
C1954 H1919 0.931 . S
C1954 C1953 1.393 . S
C1954 C1955 1.382 . S
C1955 H1920 0.929 . S
C1955 C1950 1.371 . S
C1955 C1954 1.382 . S
C1956 N1924 1.423 . S
C1956 C1957 1.362 . S
C1956 C1961 1.388 . S
C1957 H1921 0.929 . S
C1957 C1956 1.362 . S
C1957 C1958 1.376 . S
C1958 H1922 0.931 . S
C1958 C1957 1.376 . S
C1958 C1959 1.396 . S
C1959 C1941 1.472 . S
C1959 C1958 1.396 . S
C1959 C1960 1.348 . S
C1960 H1923 0.929 . S
C1960 C1959 1.348 . S
C1960 C1961 1.443 . S
C1961 H1925 0.932 . S
C1961 C1956 1.388 . S
C1961 C1960 1.443 . S
H1962 C1989 0.929 . S
N1963 C1988 1.433 . S
N1963 C1994 1.435 . S
N1963 C2000 1.423 . S
H1964 C1990 0.930 . S
H1965 C1993 0.931 . S
H1966 C1992 0.929 . S
H1967 C1995 0.930 . S
H1968 C1996 0.932 . S
H1969 C1999 0.929 . S
H1970 C1998 0.931 . S
H1971 C2001 0.929 . S
H1972 C2005 0.932 . S
H1973 C2002 0.931 . S
H1974 C2004 0.929 . S
H1975 C2007 0.929 . S
H1976 C2008 0.930 . S
H1977 C2010 0.929 . S
H1978 C2011 0.931 . S
H1979 C2013 0.930 . S
H1980 C2014 0.932 . S
H1981 C2016 0.931 . S
H1982 C2017 0.929 . S
H1983 C2019 0.929 . S
H1984 C2020 0.931 . S
H1985 C2022 0.929 . S
N1986 C2006 1.433 . S
N1986 C2012 1.435 . S
N1986 C2018 1.423 . S
H1987 C2023 0.932 . S
C1988 N1963 1.433 . S
C1988 C1989 1.363 . S
C1988 C1993 1.370 . S
C1989 H1962 0.929 . S
C1989 C1988 1.363 . S
C1989 C1990 1.385 . S
C1990 H1964 0.930 . S
C1990 C1989 1.385 . S
C1990 C1991 1.357 . S
C1991 C1990 1.357 . S
C1991 C1992 1.406 . S
C1992 H1966 0.929 . S
C1992 C1991 1.406 . S
C1992 C1993 1.391 . S
C1993 H1965 0.931 . S
C1993 C1988 1.370 . S
C1993 C1992 1.391 . S
C1994 N1963 1.435 . S
C1994 C1995 1.358 . S
C1994 C1999 1.371 . S
C1995 H1967 0.930 . S
C1995 C1994 1.358 . S
C1995 C1996 1.405 . S
C1996 H1968 0.932 . S
C1996 C1995 1.405 . S
C1996 C1997 1.383 . S
C1997 C1996 1.383 . S
C1997 C1998 1.393 . S
C1998 H1970 0.931 . S
C1998 C1997 1.393 . S
C1998 C1999 1.382 . S
C1999 H1969 0.929 . S
C1999 C1994 1.371 . S
C1999 C1998 1.382 . S
C2000 N1963 1.423 . S
C2000 C2001 1.362 . S
C2000 C2005 1.388 . S
C2001 H1971 0.929 . S
C2001 C2000 1.362 . S
C2001 C2002 1.376 . S
C2002 H1973 0.931 . S
C2002 C2001 1.376 . S
C2002 C2003 1.420 . S
C2003 C2002 1.420 . S
C2003 C2004 1.371 . S
C2003 C2021 1.428 1_565 S
C2004 H1974 0.929 . S
C2004 C2003 1.371 . S
C2004 C2005 1.443 . S
C2005 H1972 0.932 . S
C2005 C2000 1.388 . S
C2005 C2004 1.443 . S
C2006 N1986 1.433 . S
C2006 C2007 1.363 . S
C2006 C2011 1.370 . S
C2007 H1975 0.929 . S
C2007 C2006 1.363 . S
C2007 C2008 1.385 . S
C2008 H1976 0.930 . S
C2008 C2007 1.385 . S
C2008 C2009 1.357 . S
C2009 C2008 1.357 . S
C2009 C2010 1.406 . S
C2010 H1977 0.929 . S
C2010 C2009 1.406 . S
C2010 C2011 1.391 . S
C2011 H1978 0.931 . S
C2011 C2006 1.370 . S
C2011 C2010 1.391 . S
C2012 N1986 1.435 . S
C2012 C2013 1.358 . S
C2012 C2017 1.371 . S
C2013 H1979 0.930 . S
C2013 C2012 1.358 . S
C2013 C2014 1.405 . S
C2014 H1980 0.932 . S
C2014 C2013 1.405 . S
C2014 C2015 1.383 . S
C2015 C2014 1.383 . S
C2015 C2016 1.393 . S
C2016 H1981 0.931 . S
C2016 C2015 1.393 . S
C2016 C2017 1.382 . S
C2017 H1982 0.929 . S
C2017 C2012 1.371 . S
C2017 C2016 1.382 . S
C2018 N1986 1.423 . S
C2018 C2019 1.362 . S
C2018 C2023 1.388 . S
C2019 H1983 0.929 . S
C2019 C2018 1.362 . S
C2019 C2020 1.376 . S
C2020 H1984 0.931 . S
C2020 C2019 1.376 . S
C2020 C2021 1.396 . S
C2021 C2003 1.428 1_545 S
C2021 C2020 1.396 . S
C2021 C2022 1.348 . S
C2022 H1985 0.929 . S
C2022 C2021 1.348 . S
C2022 C2023 1.443 . S
C2023 H1987 0.932 . S
C2023 C2018 1.388 . S
C2023 C2022 1.443 . S
H2024 C2051 0.929 . S
N2025 C2050 1.433 . S
N2025 C2056 1.435 . S
N2025 C2062 1.423 . S
H2026 C2052 0.930 . S
H2027 C2055 0.931 . S
H2028 C2054 0.929 . S
H2029 C2057 0.930 . S
H2030 C2058 0.932 . S
H2031 C2061 0.929 . S
H2032 C2060 0.931 . S
H2033 C2063 0.929 . S
H2034 C2067 0.932 . S
H2035 C2064 0.931 . S
H2036 C2066 0.929 . S
H2037 C2069 0.929 . S
H2038 C2070 0.930 . S
H2039 C2072 0.929 . S
H2040 C2073 0.931 . S
H2041 C2075 0.930 . S
H2042 C2076 0.932 . S
H2043 C2078 0.931 . S
H2044 C2079 0.929 . S
H2045 C2081 0.929 . S
H2046 C2082 0.931 . S
H2047 C2084 0.929 . S
N2048 C2068 1.433 . S
N2048 C2074 1.435 . S
N2048 C2080 1.423 . S
H2049 C2085 0.932 . S
C2050 N2025 1.433 . S
C2050 C2051 1.363 . S
C2050 C2055 1.370 . S
C2051 H2024 0.929 . S
C2051 C2050 1.363 . S
C2051 C2052 1.385 . S
C2052 H2026 0.930 . S
C2052 C2051 1.385 . S
C2052 C2053 1.357 . S
C2053 C2052 1.357 . S
C2053 C2054 1.406 . S
C2054 H2028 0.929 . S
C2054 C2053 1.406 . S
C2054 C2055 1.391 . S
C2055 H2027 0.931 . S
C2055 C2050 1.370 . S
C2055 C2054 1.391 . S
C2056 N2025 1.435 . S
C2056 C2057 1.358 . S
C2056 C2061 1.371 . S
C2057 H2029 0.930 . S
C2057 C2056 1.358 . S
C2057 C2058 1.405 . S
C2058 H2030 0.932 . S
C2058 C2057 1.405 . S
C2058 C2059 1.383 . S
C2059 C2058 1.383 . S
C2059 C2060 1.393 . S
C2060 H2032 0.931 . S
C2060 C2059 1.393 . S
C2060 C2061 1.382 . S
C2061 H2031 0.929 . S
C2061 C2056 1.371 . S
C2061 C2060 1.382 . S
C2062 N2025 1.423 . S
C2062 C2063 1.362 . S
C2062 C2067 1.388 . S
C2063 H2033 0.929 . S
C2063 C2062 1.362 . S
C2063 C2064 1.376 . S
C2064 H2035 0.931 . S
C2064 C2063 1.376 . S
C2064 C2065 1.396 . S
C2065 C2064 1.396 . S
C2065 C2066 1.348 . S
C2065 C2083 1.472 . S
C2066 H2036 0.929 . S
C2066 C2065 1.348 . S
C2066 C2067 1.443 . S
C2067 H2034 0.932 . S
C2067 C2062 1.388 . S
C2067 C2066 1.443 . S
C2068 N2048 1.433 . S
C2068 C2069 1.363 . S
C2068 C2073 1.370 . S
C2069 H2037 0.929 . S
C2069 C2068 1.363 . S
C2069 C2070 1.385 . S
C2070 H2038 0.930 . S
C2070 C2069 1.385 . S
C2070 C2071 1.357 . S
C2071 C2070 1.357 . S
C2071 C2072 1.406 . S
C2072 H2039 0.929 . S
C2072 C2071 1.406 . S
C2072 C2073 1.391 . S
C2073 H2040 0.931 . S
C2073 C2068 1.370 . S
C2073 C2072 1.391 . S
C2074 N2048 1.435 . S
C2074 C2075 1.358 . S
C2074 C2079 1.371 . S
C2075 H2041 0.930 . S
C2075 C2074 1.358 . S
C2075 C2076 1.405 . S
C2076 H2042 0.932 . S
C2076 C2075 1.405 . S
C2076 C2077 1.383 . S
C2077 C2076 1.383 . S
C2077 C2078 1.393 . S
C2078 H2043 0.931 . S
C2078 C2077 1.393 . S
C2078 C2079 1.382 . S
C2079 H2044 0.929 . S
C2079 C2074 1.371 . S
C2079 C2078 1.382 . S
C2080 N2048 1.423 . S
C2080 C2081 1.362 . S
C2080 C2085 1.388 . S
C2081 H2045 0.929 . S
C2081 C2080 1.362 . S
C2081 C2082 1.376 . S
C2082 H2046 0.931 . S
C2082 C2081 1.376 . S
C2082 C2083 1.396 . S
C2083 C2065 1.472 . S
C2083 C2082 1.396 . S
C2083 C2084 1.348 . S
C2084 H2047 0.929 . S
C2084 C2083 1.348 . S
C2084 C2085 1.443 . S
C2085 H2049 0.932 . S
C2085 C2080 1.388 . S
C2085 C2084 1.443 . S
H2086 C2113 0.929 . S
N2087 C2112 1.433 . S
N2087 C2118 1.435 . S
N2087 C2124 1.423 . S
H2088 C2114 0.930 . S
H2089 C2117 0.931 . S
H2090 C2116 0.929 . S
H2091 C2119 0.930 . S
H2092 C2120 0.932 . S
H2093 C2123 0.929 . S
H2094 C2122 0.931 . S
H2095 C2125 0.929 . S
H2096 C2129 0.932 . S
H2097 C2126 0.931 . S
H2098 C2128 0.929 . S
H2099 C2131 0.929 . S
H2100 C2132 0.930 . S
H2101 C2134 0.929 . S
H2102 C2135 0.931 . S
H2103 C2137 0.930 . S
H2104 C2138 0.932 . S
H2105 C2140 0.931 . S
H2106 C2141 0.929 . S
H2107 C2143 0.929 . S
H2108 C2144 0.931 . S
H2109 C2146 0.929 . S
N2110 C2130 1.433 . S
N2110 C2136 1.435 . S
N2110 C2142 1.423 . S
H2111 C2147 0.932 . S
C2112 N2087 1.433 . S
C2112 C2113 1.363 . S
C2112 C2117 1.370 . S
C2113 H2086 0.929 . S
C2113 C2112 1.363 . S
C2113 C2114 1.385 . S
C2114 H2088 0.930 . S
C2114 C2113 1.385 . S
C2114 C2115 1.357 . S
C2115 C2114 1.357 . S
C2115 C2116 1.406 . S
C2116 H2090 0.929 . S
C2116 C2115 1.406 . S
C2116 C2117 1.391 . S
C2117 H2089 0.931 . S
C2117 C2112 1.370 . S
C2117 C2116 1.391 . S
C2118 N2087 1.435 . S
C2118 C2119 1.358 . S
C2118 C2123 1.371 . S
C2119 H2091 0.930 . S
C2119 C2118 1.358 . S
C2119 C2120 1.405 . S
C2120 H2092 0.932 . S
C2120 C2119 1.405 . S
C2120 C2121 1.383 . S
C2121 C2120 1.383 . S
C2121 C2122 1.393 . S
C2122 H2094 0.931 . S
C2122 C2121 1.393 . S
C2122 C2123 1.382 . S
C2123 H2093 0.929 . S
C2123 C2118 1.371 . S
C2123 C2122 1.382 . S
C2124 N2087 1.423 . S
C2124 C2125 1.362 . S
C2124 C2129 1.388 . S
C2125 H2095 0.929 . S
C2125 C2124 1.362 . S
C2125 C2126 1.376 . S
C2126 H2097 0.931 . S
C2126 C2125 1.376 . S
C2126 C2127 1.396 . S
C2127 C2126 1.396 . S
C2127 C2128 1.348 . S
C2127 C2145 1.472 . S
C2128 H2098 0.929 . S
C2128 C2127 1.348 . S
C2128 C2129 1.443 . S
C2129 H2096 0.932 . S
C2129 C2124 1.388 . S
C2129 C2128 1.443 . S
C2130 N2110 1.433 . S
C2130 C2131 1.363 . S
C2130 C2135 1.370 . S
C2131 H2099 0.929 . S
C2131 C2130 1.363 . S
C2131 C2132 1.385 . S
C2132 H2100 0.930 . S
C2132 C2131 1.385 . S
C2132 C2133 1.357 . S
C2133 C2132 1.357 . S
C2133 C2134 1.406 . S
C2134 H2101 0.929 . S
C2134 C2133 1.406 . S
C2134 C2135 1.391 . S
C2135 H2102 0.931 . S
C2135 C2130 1.370 . S
C2135 C2134 1.391 . S
C2136 N2110 1.435 . S
C2136 C2137 1.358 . S
C2136 C2141 1.371 . S
C2137 H2103 0.930 . S
C2137 C2136 1.358 . S
C2137 C2138 1.405 . S
C2138 H2104 0.932 . S
C2138 C2137 1.405 . S
C2138 C2139 1.383 . S
C2139 C2138 1.383 . S
C2139 C2140 1.393 . S
C2140 H2105 0.931 . S
C2140 C2139 1.393 . S
C2140 C2141 1.382 . S
C2141 H2106 0.929 . S
C2141 C2136 1.371 . S
C2141 C2140 1.382 . S
C2142 N2110 1.423 . S
C2142 C2143 1.362 . S
C2142 C2147 1.388 . S
C2143 H2107 0.929 . S
C2143 C2142 1.362 . S
C2143 C2144 1.376 . S
C2144 H2108 0.931 . S
C2144 C2143 1.376 . S
C2144 C2145 1.396 . S
C2145 C2127 1.472 . S
C2145 C2144 1.396 . S
C2145 C2146 1.348 . S
C2146 H2109 0.929 . S
C2146 C2145 1.348 . S
C2146 C2147 1.443 . S
C2147 H2111 0.932 . S
C2147 C2142 1.388 . S
C2147 C2146 1.443 . S
H2148 C2175 0.929 . S
N2149 C2174 1.433 . S
N2149 C2180 1.435 . S
N2149 C2186 1.423 . S
H2150 C2176 0.930 . S
H2151 C2179 0.931 . S
H2152 C2178 0.929 . S
H2153 C2181 0.930 . S
H2154 C2182 0.932 . S
H2155 C2185 0.929 . S
H2156 C2184 0.931 . S
H2157 C2187 0.929 . S
H2158 C2191 0.932 . S
H2159 C2188 0.931 . S
H2160 C2190 0.929 . S
H2161 C2193 0.929 . S
H2162 C2194 0.930 . S
H2163 C2196 0.929 . S
H2164 C2197 0.931 . S
H2165 C2199 0.930 . S
H2166 C2200 0.932 . S
H2167 C2202 0.931 . S
H2168 C2203 0.929 . S
H2169 C2205 0.929 . S
H2170 C2206 0.931 . S
H2171 C2208 0.929 . S
N2172 C2192 1.433 . S
N2172 C2198 1.435 . S
N2172 C2204 1.423 . S
H2173 C2209 0.932 . S
C2174 N2149 1.433 . S
C2174 C2175 1.363 . S
C2174 C2179 1.370 . S
C2175 H2148 0.929 . S
C2175 C2174 1.363 . S
C2175 C2176 1.385 . S
C2176 H2150 0.930 . S
C2176 C2175 1.385 . S
C2176 C2177 1.357 . S
C2177 C2176 1.357 . S
C2177 C2178 1.406 . S
C2178 H2152 0.929 . S
C2178 C2177 1.406 . S
C2178 C2179 1.391 . S
C2179 H2151 0.931 . S
C2179 C2174 1.370 . S
C2179 C2178 1.391 . S
C2180 N2149 1.435 . S
C2180 C2181 1.358 . S
C2180 C2185 1.371 . S
C2181 H2153 0.930 . S
C2181 C2180 1.358 . S
C2181 C2182 1.405 . S
C2182 H2154 0.932 . S
C2182 C2181 1.405 . S
C2182 C2183 1.383 . S
C2183 C2182 1.383 . S
C2183 C2184 1.393 . S
C2184 H2156 0.931 . S
C2184 C2183 1.393 . S
C2184 C2185 1.382 . S
C2185 H2155 0.929 . S
C2185 C2180 1.371 . S
C2185 C2184 1.382 . S
C2186 N2149 1.423 . S
C2186 C2187 1.362 . S
C2186 C2191 1.388 . S
C2187 H2157 0.929 . S
C2187 C2186 1.362 . S
C2187 C2188 1.376 . S
C2188 H2159 0.931 . S
C2188 C2187 1.376 . S
C2188 C2189 1.396 . S
C2189 C2188 1.396 . S
C2189 C2190 1.348 . S
C2189 C2207 1.472 . S
C2190 H2160 0.929 . S
C2190 C2189 1.348 . S
C2190 C2191 1.443 . S
C2191 H2158 0.932 . S
C2191 C2186 1.388 . S
C2191 C2190 1.443 . S
C2192 N2172 1.433 . S
C2192 C2193 1.363 . S
C2192 C2197 1.370 . S
C2193 H2161 0.929 . S
C2193 C2192 1.363 . S
C2193 C2194 1.385 . S
C2194 H2162 0.930 . S
C2194 C2193 1.385 . S
C2194 C2195 1.357 . S
C2195 C2194 1.357 . S
C2195 C2196 1.406 . S
C2196 H2163 0.929 . S
C2196 C2195 1.406 . S
C2196 C2197 1.391 . S
C2197 H2164 0.931 . S
C2197 C2192 1.370 . S
C2197 C2196 1.391 . S
C2198 N2172 1.435 . S
C2198 C2199 1.358 . S
C2198 C2203 1.371 . S
C2199 H2165 0.930 . S
C2199 C2198 1.358 . S
C2199 C2200 1.405 . S
C2200 H2166 0.932 . S
C2200 C2199 1.405 . S
C2200 C2201 1.383 . S
C2201 C2200 1.383 . S
C2201 C2202 1.393 . S
C2202 H2167 0.931 . S
C2202 C2201 1.393 . S
C2202 C2203 1.382 . S
C2203 H2168 0.929 . S
C2203 C2198 1.371 . S
C2203 C2202 1.382 . S
C2204 N2172 1.423 . S
C2204 C2205 1.362 . S
C2204 C2209 1.388 . S
C2205 H2169 0.929 . S
C2205 C2204 1.362 . S
C2205 C2206 1.376 . S
C2206 H2170 0.931 . S
C2206 C2205 1.376 . S
C2206 C2207 1.396 . S
C2207 C2189 1.472 . S
C2207 C2206 1.396 . S
C2207 C2208 1.348 . S
C2208 H2171 0.929 . S
C2208 C2207 1.348 . S
C2208 C2209 1.443 . S
C2209 H2173 0.932 . S
C2209 C2204 1.388 . S
C2209 C2208 1.443 . S
H2210 C2237 0.929 . S
N2211 C2236 1.433 . S
N2211 C2242 1.435 . S
N2211 C2248 1.423 . S
H2212 C2238 0.930 . S
H2213 C2241 0.931 . S
H2214 C2240 0.929 . S
H2215 C2243 0.930 . S
H2216 C2244 0.932 . S
H2217 C2247 0.929 . S
H2218 C2246 0.931 . S
H2219 C2249 0.929 . S
H2220 C2253 0.932 . S
H2221 C2250 0.931 . S
H2222 C2252 0.929 . S
H2223 C2255 0.929 . S
H2224 C2256 0.930 . S
H2225 C2258 0.929 . S
H2226 C2259 0.931 . S
H2227 C2261 0.930 . S
H2228 C2262 0.932 . S
H2229 C2264 0.931 . S
H2230 C2265 0.929 . S
H2231 C2267 0.929 . S
H2232 C2268 0.931 . S
H2233 C2270 0.929 . S
N2234 C2254 1.433 . S
N2234 C2260 1.435 . S
N2234 C2266 1.423 . S
H2235 C2271 0.932 . S
C2236 N2211 1.433 . S
C2236 C2237 1.363 . S
C2236 C2241 1.370 . S
C2237 H2210 0.929 . S
C2237 C2236 1.363 . S
C2237 C2238 1.385 . S
C2238 H2212 0.930 . S
C2238 C2237 1.385 . S
C2238 C2239 1.357 . S
C2239 C2238 1.357 . S
C2239 C2240 1.406 . S
C2240 H2214 0.929 . S
C2240 C2239 1.406 . S
C2240 C2241 1.391 . S
C2241 H2213 0.931 . S
C2241 C2236 1.370 . S
C2241 C2240 1.391 . S
C2242 N2211 1.435 . S
C2242 C2243 1.358 . S
C2242 C2247 1.371 . S
C2243 H2215 0.930 . S
C2243 C2242 1.358 . S
C2243 C2244 1.405 . S
C2244 H2216 0.932 . S
C2244 C2243 1.405 . S
C2244 C2245 1.383 . S
C2245 C2244 1.383 . S
C2245 C2246 1.393 . S
C2246 H2218 0.931 . S
C2246 C2245 1.393 . S
C2246 C2247 1.382 . S
C2247 H2217 0.929 . S
C2247 C2242 1.371 . S
C2247 C2246 1.382 . S
C2248 N2211 1.423 . S
C2248 C2249 1.362 . S
C2248 C2253 1.388 . S
C2249 H2219 0.929 . S
C2249 C2248 1.362 . S
C2249 C2250 1.376 . S
C2250 H2221 0.931 . S
C2250 C2249 1.376 . S
C2250 C2251 1.396 . S
C2251 C2250 1.396 . S
C2251 C2252 1.348 . S
C2251 C2269 1.472 . S
C2252 H2222 0.929 . S
C2252 C2251 1.348 . S
C2252 C2253 1.443 . S
C2253 H2220 0.932 . S
C2253 C2248 1.388 . S
C2253 C2252 1.443 . S
C2254 N2234 1.433 . S
C2254 C2255 1.363 . S
C2254 C2259 1.370 . S
C2255 H2223 0.929 . S
C2255 C2254 1.363 . S
C2255 C2256 1.385 . S
C2256 H2224 0.930 . S
C2256 C2255 1.385 . S
C2256 C2257 1.357 . S
C2257 C2256 1.357 . S
C2257 C2258 1.406 . S
C2258 H2225 0.929 . S
C2258 C2257 1.406 . S
C2258 C2259 1.391 . S
C2259 H2226 0.931 . S
C2259 C2254 1.370 . S
C2259 C2258 1.391 . S
C2260 N2234 1.435 . S
C2260 C2261 1.358 . S
C2260 C2265 1.371 . S
C2261 H2227 0.930 . S
C2261 C2260 1.358 . S
C2261 C2262 1.405 . S
C2262 H2228 0.932 . S
C2262 C2261 1.405 . S
C2262 C2263 1.383 . S
C2263 C2262 1.383 . S
C2263 C2264 1.393 . S
C2264 H2229 0.931 . S
C2264 C2263 1.393 . S
C2264 C2265 1.382 . S
C2265 H2230 0.929 . S
C2265 C2260 1.371 . S
C2265 C2264 1.382 . S
C2266 N2234 1.423 . S
C2266 C2267 1.362 . S
C2266 C2271 1.388 . S
C2267 H2231 0.929 . S
C2267 C2266 1.362 . S
C2267 C2268 1.376 . S
C2268 H2232 0.931 . S
C2268 C2267 1.376 . S
C2268 C2269 1.396 . S
C2269 C2251 1.472 . S
C2269 C2268 1.396 . S
C2269 C2270 1.348 . S
C2270 H2233 0.929 . S
C2270 C2269 1.348 . S
C2270 C2271 1.443 . S
C2271 H2235 0.932 . S
C2271 C2266 1.388 . S
C2271 C2270 1.443 . S
H2272 C2299 0.929 . S
N2273 C2298 1.433 . S
N2273 C2304 1.435 . S
N2273 C2310 1.423 . S
H2274 C2300 0.930 . S
H2275 C2303 0.931 . S
H2276 C2302 0.929 . S
H2277 C2305 0.930 . S
H2278 C2306 0.932 . S
H2279 C2309 0.929 . S
H2280 C2308 0.931 . S
H2281 C2311 0.929 . S
H2282 C2315 0.932 . S
H2283 C2312 0.931 . S
H2284 C2314 0.929 . S
H2285 C2317 0.929 . S
H2286 C2318 0.930 . S
H2287 C2320 0.929 . S
H2288 C2321 0.931 . S
H2289 C2323 0.930 . S
H2290 C2324 0.932 . S
H2291 C2326 0.931 . S
H2292 C2327 0.929 . S
H2293 C2329 0.929 . S
H2294 C2330 0.931 . S
H2295 C2332 0.929 . S
N2296 C2316 1.433 . S
N2296 C2322 1.435 . S
N2296 C2328 1.423 . S
H2297 C2333 0.932 . S
C2298 N2273 1.433 . S
C2298 C2299 1.363 . S
C2298 C2303 1.370 . S
C2299 H2272 0.929 . S
C2299 C2298 1.363 . S
C2299 C2300 1.385 . S
C2300 H2274 0.930 . S
C2300 C2299 1.385 . S
C2300 C2301 1.357 . S
C2301 C2300 1.357 . S
C2301 C2302 1.406 . S
C2302 H2276 0.929 . S
C2302 C2301 1.406 . S
C2302 C2303 1.391 . S
C2303 H2275 0.931 . S
C2303 C2298 1.370 . S
C2303 C2302 1.391 . S
C2304 N2273 1.435 . S
C2304 C2305 1.358 . S
C2304 C2309 1.371 . S
C2305 H2277 0.930 . S
C2305 C2304 1.358 . S
C2305 C2306 1.405 . S
C2306 H2278 0.932 . S
C2306 C2305 1.405 . S
C2306 C2307 1.383 . S
C2307 C2306 1.383 . S
C2307 C2308 1.393 . S
C2308 H2280 0.931 . S
C2308 C2307 1.393 . S
C2308 C2309 1.382 . S
C2309 H2279 0.929 . S
C2309 C2304 1.371 . S
C2309 C2308 1.382 . S
C2310 N2273 1.423 . S
C2310 C2311 1.362 . S
C2310 C2315 1.388 . S
C2311 H2281 0.929 . S
C2311 C2310 1.362 . S
C2311 C2312 1.376 . S
C2312 H2283 0.931 . S
C2312 C2311 1.376 . S
C2312 C2313 1.396 . S
C2313 C2312 1.396 . S
C2313 C2314 1.348 . S
C2313 C2331 1.472 . S
C2314 H2284 0.929 . S
C2314 C2313 1.348 . S
C2314 C2315 1.443 . S
C2315 H2282 0.932 . S
C2315 C2310 1.388 . S
C2315 C2314 1.443 . S
C2316 N2296 1.433 . S
C2316 C2317 1.363 . S
C2316 C2321 1.370 . S
C2317 H2285 0.929 . S
C2317 C2316 1.363 . S
C2317 C2318 1.385 . S
C2318 H2286 0.930 . S
C2318 C2317 1.385 . S
C2318 C2319 1.357 . S
C2319 C2318 1.357 . S
C2319 C2320 1.406 . S
C2320 H2287 0.929 . S
C2320 C2319 1.406 . S
C2320 C2321 1.391 . S
C2321 H2288 0.931 . S
C2321 C2316 1.370 . S
C2321 C2320 1.391 . S
C2322 N2296 1.435 . S
C2322 C2323 1.358 . S
C2322 C2327 1.371 . S
C2323 H2289 0.930 . S
C2323 C2322 1.358 . S
C2323 C2324 1.405 . S
C2324 H2290 0.932 . S
C2324 C2323 1.405 . S
C2324 C2325 1.383 . S
C2325 C2324 1.383 . S
C2325 C2326 1.393 . S
C2326 H2291 0.931 . S
C2326 C2325 1.393 . S
C2326 C2327 1.382 . S
C2327 H2292 0.929 . S
C2327 C2322 1.371 . S
C2327 C2326 1.382 . S
C2328 N2296 1.423 . S
C2328 C2329 1.362 . S
C2328 C2333 1.388 . S
C2329 H2293 0.929 . S
C2329 C2328 1.362 . S
C2329 C2330 1.376 . S
C2330 H2294 0.931 . S
C2330 C2329 1.376 . S
C2330 C2331 1.396 . S
C2331 C2313 1.472 . S
C2331 C2330 1.396 . S
C2331 C2332 1.348 . S
C2332 H2295 0.929 . S
C2332 C2331 1.348 . S
C2332 C2333 1.443 . S
C2333 H2297 0.932 . S
C2333 C2328 1.388 . S
C2333 C2332 1.443 . S
H2334 C2361 0.929 . S
N2335 C2360 1.433 . S
N2335 C2366 1.435 . S
N2335 C2372 1.423 . S
H2336 C2362 0.930 . S
H2337 C2365 0.931 . S
H2338 C2364 0.929 . S
H2339 C2367 0.930 . S
H2340 C2368 0.932 . S
H2341 C2371 0.929 . S
H2342 C2370 0.931 . S
H2343 C2373 0.929 . S
H2344 C2377 0.932 . S
H2345 C2374 0.931 . S
H2346 C2376 0.929 . S
H2347 C2379 0.929 . S
H2348 C2380 0.930 . S
H2349 C2382 0.929 . S
H2350 C2383 0.931 . S
H2351 C2385 0.930 . S
H2352 C2386 0.932 . S
H2353 C2388 0.931 . S
H2354 C2389 0.929 . S
H2355 C2391 0.929 . S
H2356 C2392 0.931 . S
H2357 C2394 0.929 . S
N2358 C2378 1.433 . S
N2358 C2384 1.435 . S
N2358 C2390 1.423 . S
H2359 C2395 0.932 . S
C2360 N2335 1.433 . S
C2360 C2361 1.363 . S
C2360 C2365 1.370 . S
C2361 H2334 0.929 . S
C2361 C2360 1.363 . S
C2361 C2362 1.385 . S
C2362 H2336 0.930 . S
C2362 C2361 1.385 . S
C2362 C2363 1.357 . S
C2363 C2362 1.357 . S
C2363 C2364 1.406 . S
C2364 H2338 0.929 . S
C2364 C2363 1.406 . S
C2364 C2365 1.391 . S
C2365 H2337 0.931 . S
C2365 C2360 1.370 . S
C2365 C2364 1.391 . S
C2366 N2335 1.435 . S
C2366 C2367 1.358 . S
C2366 C2371 1.371 . S
C2367 H2339 0.930 . S
C2367 C2366 1.358 . S
C2367 C2368 1.405 . S
C2368 H2340 0.932 . S
C2368 C2367 1.405 . S
C2368 C2369 1.383 . S
C2369 C2368 1.383 . S
C2369 C2370 1.393 . S
C2370 H2342 0.931 . S
C2370 C2369 1.393 . S
C2370 C2371 1.382 . S
C2371 H2341 0.929 . S
C2371 C2366 1.371 . S
C2371 C2370 1.382 . S
C2372 N2335 1.423 . S
C2372 C2373 1.362 . S
C2372 C2377 1.388 . S
C2373 H2343 0.929 . S
C2373 C2372 1.362 . S
C2373 C2374 1.376 . S
C2374 H2345 0.931 . S
C2374 C2373 1.376 . S
C2374 C2375 1.396 . S
C2375 C2374 1.396 . S
C2375 C2376 1.348 . S
C2375 C2393 1.472 . S
C2376 H2346 0.929 . S
C2376 C2375 1.348 . S
C2376 C2377 1.443 . S
C2377 H2344 0.932 . S
C2377 C2372 1.388 . S
C2377 C2376 1.443 . S
C2378 N2358 1.433 . S
C2378 C2379 1.363 . S
C2378 C2383 1.370 . S
C2379 H2347 0.929 . S
C2379 C2378 1.363 . S
C2379 C2380 1.385 . S
C2380 H2348 0.930 . S
C2380 C2379 1.385 . S
C2380 C2381 1.357 . S
C2381 C2380 1.357 . S
C2381 C2382 1.406 . S
C2382 H2349 0.929 . S
C2382 C2381 1.406 . S
C2382 C2383 1.391 . S
C2383 H2350 0.931 . S
C2383 C2378 1.370 . S
C2383 C2382 1.391 . S
C2384 N2358 1.435 . S
C2384 C2385 1.358 . S
C2384 C2389 1.371 . S
C2385 H2351 0.930 . S
C2385 C2384 1.358 . S
C2385 C2386 1.405 . S
C2386 H2352 0.932 . S
C2386 C2385 1.405 . S
C2386 C2387 1.383 . S
C2387 C2386 1.383 . S
C2387 C2388 1.393 . S
C2388 H2353 0.931 . S
C2388 C2387 1.393 . S
C2388 C2389 1.382 . S
C2389 H2354 0.929 . S
C2389 C2384 1.371 . S
C2389 C2388 1.382 . S
C2390 N2358 1.423 . S
C2390 C2391 1.362 . S
C2390 C2395 1.388 . S
C2391 H2355 0.929 . S
C2391 C2390 1.362 . S
C2391 C2392 1.376 . S
C2392 H2356 0.931 . S
C2392 C2391 1.376 . S
C2392 C2393 1.396 . S
C2393 C2375 1.472 . S
C2393 C2392 1.396 . S
C2393 C2394 1.348 . S
C2394 H2357 0.929 . S
C2394 C2393 1.348 . S
C2394 C2395 1.443 . S
C2395 H2359 0.932 . S
C2395 C2390 1.388 . S
C2395 C2394 1.443 . S
H2396 C2423 0.929 . S
N2397 C2422 1.433 . S
N2397 C2428 1.435 . S
N2397 C2434 1.423 . S
H2398 C2424 0.930 . S
H2399 C2427 0.931 . S
H2400 C2426 0.929 . S
H2401 C2429 0.930 . S
H2402 C2430 0.932 . S
H2403 C2433 0.929 . S
H2404 C2432 0.931 . S
H2405 C2435 0.929 . S
H2406 C2439 0.932 . S
H2407 C2436 0.931 . S
H2408 C2438 0.929 . S
H2409 C2441 0.929 . S
H2410 C2442 0.930 . S
H2411 C2444 0.929 . S
H2412 C2445 0.931 . S
H2413 C2447 0.930 . S
H2414 C2448 0.932 . S
H2415 C2450 0.931 . S
H2416 C2451 0.929 . S
H2417 C2453 0.929 . S
H2418 C2454 0.931 . S
H2419 C2456 0.929 . S
N2420 C2440 1.433 . S
N2420 C2446 1.435 . S
N2420 C2452 1.423 . S
H2421 C2457 0.932 . S
C2422 N2397 1.433 . S
C2422 C2423 1.363 . S
C2422 C2427 1.370 . S
C2423 H2396 0.929 . S
C2423 C2422 1.363 . S
C2423 C2424 1.385 . S
C2424 H2398 0.930 . S
C2424 C2423 1.385 . S
C2424 C2425 1.357 . S
C2425 C2424 1.357 . S
C2425 C2426 1.406 . S
C2426 H2400 0.929 . S
C2426 C2425 1.406 . S
C2426 C2427 1.391 . S
C2427 H2399 0.931 . S
C2427 C2422 1.370 . S
C2427 C2426 1.391 . S
C2428 N2397 1.435 . S
C2428 C2429 1.358 . S
C2428 C2433 1.371 . S
C2429 H2401 0.930 . S
C2429 C2428 1.358 . S
C2429 C2430 1.405 . S
C2430 H2402 0.932 . S
C2430 C2429 1.405 . S
C2430 C2431 1.383 . S
C2431 C2430 1.383 . S
C2431 C2432 1.393 . S
C2432 H2404 0.931 . S
C2432 C2431 1.393 . S
C2432 C2433 1.382 . S
C2433 H2403 0.929 . S
C2433 C2428 1.371 . S
C2433 C2432 1.382 . S
C2434 N2397 1.423 . S
C2434 C2435 1.362 . S
C2434 C2439 1.388 . S
C2435 H2405 0.929 . S
C2435 C2434 1.362 . S
C2435 C2436 1.376 . S
C2436 H2407 0.931 . S
C2436 C2435 1.376 . S
C2436 C2437 1.396 . S
C2437 C2436 1.396 . S
C2437 C2438 1.348 . S
C2437 C2455 1.472 . S
C2438 H2408 0.929 . S
C2438 C2437 1.348 . S
C2438 C2439 1.443 . S
C2439 H2406 0.932 . S
C2439 C2434 1.388 . S
C2439 C2438 1.443 . S
C2440 N2420 1.433 . S
C2440 C2441 1.363 . S
C2440 C2445 1.370 . S
C2441 H2409 0.929 . S
C2441 C2440 1.363 . S
C2441 C2442 1.385 . S
C2442 H2410 0.930 . S
C2442 C2441 1.385 . S
C2442 C2443 1.357 . S
C2443 C2442 1.357 . S
C2443 C2444 1.406 . S
C2444 H2411 0.929 . S
C2444 C2443 1.406 . S
C2444 C2445 1.391 . S
C2445 H2412 0.931 . S
C2445 C2440 1.370 . S
C2445 C2444 1.391 . S
C2446 N2420 1.435 . S
C2446 C2447 1.358 . S
C2446 C2451 1.371 . S
C2447 H2413 0.930 . S
C2447 C2446 1.358 . S
C2447 C2448 1.405 . S
C2448 H2414 0.932 . S
C2448 C2447 1.405 . S
C2448 C2449 1.383 . S
C2449 C2448 1.383 . S
C2449 C2450 1.393 . S
C2450 H2415 0.931 . S
C2450 C2449 1.393 . S
C2450 C2451 1.382 . S
C2451 H2416 0.929 . S
C2451 C2446 1.371 . S
C2451 C2450 1.382 . S
C2452 N2420 1.423 . S
C2452 C2453 1.362 . S
C2452 C2457 1.388 . S
C2453 H2417 0.929 . S
C2453 C2452 1.362 . S
C2453 C2454 1.376 . S
C2454 H2418 0.931 . S
C2454 C2453 1.376 . S
C2454 C2455 1.396 . S
C2455 C2437 1.472 . S
C2455 C2454 1.396 . S
C2455 C2456 1.348 . S
C2456 H2419 0.929 . S
C2456 C2455 1.348 . S
C2456 C2457 1.443 . S
C2457 H2421 0.932 . S
C2457 C2452 1.388 . S
C2457 C2456 1.443 . S
H2458 C2485 0.929 . S
N2459 C2484 1.433 . S
N2459 C2490 1.435 . S
N2459 C2496 1.423 . S
H2460 C2486 0.930 . S
H2461 C2489 0.931 . S
H2462 C2488 0.929 . S
H2463 C2491 0.930 . S
H2464 C2492 0.932 . S
H2465 C2495 0.929 . S
H2466 C2494 0.931 . S
H2467 C2497 0.929 . S
H2468 C2501 0.932 . S
H2469 C2498 0.931 . S
H2470 C2500 0.929 . S
H2471 C2503 0.929 . S
H2472 C2504 0.930 . S
H2473 C2506 0.929 . S
H2474 C2507 0.931 . S
H2475 C2509 0.930 . S
H2476 C2510 0.932 . S
H2477 C2512 0.931 . S
H2478 C2513 0.929 . S
H2479 C2515 0.929 . S
H2480 C2516 0.931 . S
H2481 C2518 0.929 . S
N2482 C2502 1.433 . S
N2482 C2508 1.435 . S
N2482 C2514 1.423 . S
H2483 C2519 0.932 . S
C2484 N2459 1.433 . S
C2484 C2485 1.363 . S
C2484 C2489 1.370 . S
C2485 H2458 0.929 . S
C2485 C2484 1.363 . S
C2485 C2486 1.385 . S
C2486 H2460 0.930 . S
C2486 C2485 1.385 . S
C2486 C2487 1.357 . S
C2487 C2486 1.357 . S
C2487 C2488 1.406 . S
C2488 H2462 0.929 . S
C2488 C2487 1.406 . S
C2488 C2489 1.391 . S
C2489 H2461 0.931 . S
C2489 C2484 1.370 . S
C2489 C2488 1.391 . S
C2490 N2459 1.435 . S
C2490 C2491 1.358 . S
C2490 C2495 1.371 . S
C2491 H2463 0.930 . S
C2491 C2490 1.358 . S
C2491 C2492 1.405 . S
C2492 H2464 0.932 . S
C2492 C2491 1.405 . S
C2492 C2493 1.383 . S
C2493 C2492 1.383 . S
C2493 C2494 1.393 . S
C2494 H2466 0.931 . S
C2494 C2493 1.393 . S
C2494 C2495 1.382 . S
C2495 H2465 0.929 . S
C2495 C2490 1.371 . S
C2495 C2494 1.382 . S
C2496 N2459 1.423 . S
C2496 C2497 1.362 . S
C2496 C2501 1.388 . S
C2497 H2467 0.929 . S
C2497 C2496 1.362 . S
C2497 C2498 1.376 . S
C2498 H2469 0.931 . S
C2498 C2497 1.376 . S
C2498 C2499 1.396 . S
C2499 C2498 1.396 . S
C2499 C2500 1.348 . S
C2499 C2517 1.472 . S
C2500 H2470 0.929 . S
C2500 C2499 1.348 . S
C2500 C2501 1.443 . S
C2501 H2468 0.932 . S
C2501 C2496 1.388 . S
C2501 C2500 1.443 . S
C2502 N2482 1.433 . S
C2502 C2503 1.363 . S
C2502 C2507 1.370 . S
C2503 H2471 0.929 . S
C2503 C2502 1.363 . S
C2503 C2504 1.385 . S
C2504 H2472 0.930 . S
C2504 C2503 1.385 . S
C2504 C2505 1.357 . S
C2505 C2504 1.357 . S
C2505 C2506 1.406 . S
C2506 H2473 0.929 . S
C2506 C2505 1.406 . S
C2506 C2507 1.391 . S
C2507 H2474 0.931 . S
C2507 C2502 1.370 . S
C2507 C2506 1.391 . S
C2508 N2482 1.435 . S
C2508 C2509 1.358 . S
C2508 C2513 1.371 . S
C2509 H2475 0.930 . S
C2509 C2508 1.358 . S
C2509 C2510 1.405 . S
C2510 H2476 0.932 . S
C2510 C2509 1.405 . S
C2510 C2511 1.383 . S
C2511 C2510 1.383 . S
C2511 C2512 1.393 . S
C2512 H2477 0.931 . S
C2512 C2511 1.393 . S
C2512 C2513 1.382 . S
C2513 H2478 0.929 . S
C2513 C2508 1.371 . S
C2513 C2512 1.382 . S
C2514 N2482 1.423 . S
C2514 C2515 1.362 . S
C2514 C2519 1.388 . S
C2515 H2479 0.929 . S
C2515 C2514 1.362 . S
C2515 C2516 1.376 . S
C2516 H2480 0.931 . S
C2516 C2515 1.376 . S
C2516 C2517 1.396 . S
C2517 C2499 1.472 . S
C2517 C2516 1.396 . S
C2517 C2518 1.348 . S
C2518 H2481 0.929 . S
C2518 C2517 1.348 . S
C2518 C2519 1.443 . S
C2519 H2483 0.932 . S
C2519 C2514 1.388 . S
C2519 C2518 1.443 . S
H2520 C2547 0.929 . S
N2521 C2546 1.433 . S
N2521 C2552 1.435 . S
N2521 C2558 1.423 . S
H2522 C2548 0.930 . S
H2523 C2551 0.931 . S
H2524 C2550 0.929 . S
H2525 C2553 0.930 . S
H2526 C2554 0.932 . S
H2527 C2557 0.929 . S
H2528 C2556 0.931 . S
H2529 C2559 0.929 . S
H2530 C2563 0.932 . S
H2531 C2560 0.931 . S
H2532 C2562 0.929 . S
H2533 C2565 0.929 . S
H2534 C2566 0.930 . S
H2535 C2568 0.929 . S
H2536 C2569 0.931 . S
H2537 C2571 0.930 . S
H2538 C2572 0.932 . S
H2539 C2574 0.931 . S
H2540 C2575 0.929 . S
H2541 C2577 0.929 . S
H2542 C2578 0.931 . S
H2543 C2580 0.929 . S
N2544 C2564 1.433 . S
N2544 C2570 1.435 . S
N2544 C2576 1.423 . S
H2545 C2581 0.932 . S
C2546 N2521 1.433 . S
C2546 C2547 1.363 . S
C2546 C2551 1.370 . S
C2547 H2520 0.929 . S
C2547 C2546 1.363 . S
C2547 C2548 1.385 . S
C2548 H2522 0.930 . S
C2548 C2547 1.385 . S
C2548 C2549 1.357 . S
C2549 C2548 1.357 . S
C2549 C2550 1.406 . S
C2550 H2524 0.929 . S
C2550 C2549 1.406 . S
C2550 C2551 1.391 . S
C2551 H2523 0.931 . S
C2551 C2546 1.370 . S
C2551 C2550 1.391 . S
C2552 N2521 1.435 . S
C2552 C2553 1.358 . S
C2552 C2557 1.371 . S
C2553 H2525 0.930 . S
C2553 C2552 1.358 . S
C2553 C2554 1.405 . S
C2554 H2526 0.932 . S
C2554 C2553 1.405 . S
C2554 C2555 1.383 . S
C2555 C2554 1.383 . S
C2555 C2556 1.393 . S
C2556 H2528 0.931 . S
C2556 C2555 1.393 . S
C2556 C2557 1.382 . S
C2557 H2527 0.929 . S
C2557 C2552 1.371 . S
C2557 C2556 1.382 . S
C2558 N2521 1.423 . S
C2558 C2559 1.362 . S
C2558 C2563 1.388 . S
C2559 H2529 0.929 . S
C2559 C2558 1.362 . S
C2559 C2560 1.376 . S
C2560 H2531 0.931 . S
C2560 C2559 1.376 . S
C2560 C2561 1.396 . S
C2561 C2560 1.396 . S
C2561 C2562 1.348 . S
C2561 C2579 1.472 . S
C2562 H2532 0.929 . S
C2562 C2561 1.348 . S
C2562 C2563 1.443 . S
C2563 H2530 0.932 . S
C2563 C2558 1.388 . S
C2563 C2562 1.443 . S
C2564 N2544 1.433 . S
C2564 C2565 1.363 . S
C2564 C2569 1.370 . S
C2565 H2533 0.929 . S
C2565 C2564 1.363 . S
C2565 C2566 1.385 . S
C2566 H2534 0.930 . S
C2566 C2565 1.385 . S
C2566 C2567 1.357 . S
C2567 C2566 1.357 . S
C2567 C2568 1.406 . S
C2568 H2535 0.929 . S
C2568 C2567 1.406 . S
C2568 C2569 1.391 . S
C2569 H2536 0.931 . S
C2569 C2564 1.370 . S
C2569 C2568 1.391 . S
C2570 N2544 1.435 . S
C2570 C2571 1.358 . S
C2570 C2575 1.371 . S
C2571 H2537 0.930 . S
C2571 C2570 1.358 . S
C2571 C2572 1.405 . S
C2572 H2538 0.932 . S
C2572 C2571 1.405 . S
C2572 C2573 1.383 . S
C2573 C2572 1.383 . S
C2573 C2574 1.393 . S
C2574 H2539 0.931 . S
C2574 C2573 1.393 . S
C2574 C2575 1.382 . S
C2575 H2540 0.929 . S
C2575 C2570 1.371 . S
C2575 C2574 1.382 . S
C2576 N2544 1.423 . S
C2576 C2577 1.362 . S
C2576 C2581 1.388 . S
C2577 H2541 0.929 . S
C2577 C2576 1.362 . S
C2577 C2578 1.376 . S
C2578 H2542 0.931 . S
C2578 C2577 1.376 . S
C2578 C2579 1.396 . S
C2579 C2561 1.472 . S
C2579 C2578 1.396 . S
C2579 C2580 1.348 . S
C2580 H2543 0.929 . S
C2580 C2579 1.348 . S
C2580 C2581 1.443 . S
C2581 H2545 0.932 . S
C2581 C2576 1.388 . S
C2581 C2580 1.443 . S
H2582 C2609 0.929 . S
N2583 C2608 1.433 . S
N2583 C2614 1.435 . S
N2583 C2620 1.423 . S
H2584 C2610 0.930 . S
H2585 C2613 0.931 . S
H2586 C2612 0.929 . S
H2587 C2615 0.930 . S
H2588 C2616 0.932 . S
H2589 C2619 0.929 . S
H2590 C2618 0.931 . S
H2591 C2621 0.929 . S
H2592 C2625 0.932 . S
H2593 C2622 0.931 . S
H2594 C2624 0.929 . S
H2595 C2627 0.929 . S
H2596 C2628 0.930 . S
H2597 C2630 0.929 . S
H2598 C2631 0.931 . S
H2599 C2633 0.930 . S
H2600 C2634 0.932 . S
H2601 C2636 0.931 . S
H2602 C2637 0.929 . S
H2603 C2639 0.929 . S
H2604 C2640 0.931 . S
H2605 C2642 0.929 . S
N2606 C2626 1.433 . S
N2606 C2632 1.435 . S
N2606 C2638 1.423 . S
H2607 C2643 0.932 . S
C2608 N2583 1.433 . S
C2608 C2609 1.363 . S
C2608 C2613 1.370 . S
C2609 H2582 0.929 . S
C2609 C2608 1.363 . S
C2609 C2610 1.385 . S
C2610 H2584 0.930 . S
C2610 C2609 1.385 . S
C2610 C2611 1.357 . S
C2611 C2610 1.357 . S
C2611 C2612 1.406 . S
C2612 H2586 0.929 . S
C2612 C2611 1.406 . S
C2612 C2613 1.391 . S
C2613 H2585 0.931 . S
C2613 C2608 1.370 . S
C2613 C2612 1.391 . S
C2614 N2583 1.435 . S
C2614 C2615 1.358 . S
C2614 C2619 1.371 . S
C2615 H2587 0.930 . S
C2615 C2614 1.358 . S
C2615 C2616 1.405 . S
C2616 H2588 0.932 . S
C2616 C2615 1.405 . S
C2616 C2617 1.383 . S
C2617 C2616 1.383 . S
C2617 C2618 1.393 . S
C2618 H2590 0.931 . S
C2618 C2617 1.393 . S
C2618 C2619 1.382 . S
C2619 H2589 0.929 . S
C2619 C2614 1.371 . S
C2619 C2618 1.382 . S
C2620 N2583 1.423 . S
C2620 C2621 1.362 . S
C2620 C2625 1.388 . S
C2621 H2591 0.929 . S
C2621 C2620 1.362 . S
C2621 C2622 1.376 . S
C2622 H2593 0.931 . S
C2622 C2621 1.376 . S
C2622 C2623 1.396 . S
C2623 C2622 1.396 . S
C2623 C2624 1.348 . S
C2623 C2641 1.472 . S
C2624 H2594 0.929 . S
C2624 C2623 1.348 . S
C2624 C2625 1.443 . S
C2625 H2592 0.932 . S
C2625 C2620 1.388 . S
C2625 C2624 1.443 . S
C2626 N2606 1.433 . S
C2626 C2627 1.363 . S
C2626 C2631 1.370 . S
C2627 H2595 0.929 . S
C2627 C2626 1.363 . S
C2627 C2628 1.385 . S
C2628 H2596 0.930 . S
C2628 C2627 1.385 . S
C2628 C2629 1.357 . S
C2629 C2628 1.357 . S
C2629 C2630 1.406 . S
C2630 H2597 0.929 . S
C2630 C2629 1.406 . S
C2630 C2631 1.391 . S
C2631 H2598 0.931 . S
C2631 C2626 1.370 . S
C2631 C2630 1.391 . S
C2632 N2606 1.435 . S
C2632 C2633 1.358 . S
C2632 C2637 1.371 . S
C2633 H2599 0.930 . S
C2633 C2632 1.358 . S
C2633 C2634 1.405 . S
C2634 H2600 0.932 . S
C2634 C2633 1.405 . S
C2634 C2635 1.383 . S
C2635 C2634 1.383 . S
C2635 C2636 1.393 . S
C2636 H2601 0.931 . S
C2636 C2635 1.393 . S
C2636 C2637 1.382 . S
C2637 H2602 0.929 . S
C2637 C2632 1.371 . S
C2637 C2636 1.382 . S
C2638 N2606 1.423 . S
C2638 C2639 1.362 . S
C2638 C2643 1.388 . S
C2639 H2603 0.929 . S
C2639 C2638 1.362 . S
C2639 C2640 1.376 . S
C2640 H2604 0.931 . S
C2640 C2639 1.376 . S
C2640 C2641 1.396 . S
C2641 C2623 1.472 . S
C2641 C2640 1.396 . S
C2641 C2642 1.348 . S
C2642 H2605 0.929 . S
C2642 C2641 1.348 . S
C2642 C2643 1.443 . S
C2643 H2607 0.932 . S
C2643 C2638 1.388 . S
C2643 C2642 1.443 . S
H2644 C2671 0.929 . S
N2645 C2670 1.433 . S
N2645 C2676 1.435 . S
N2645 C2682 1.423 . S
H2646 C2672 0.930 . S
H2647 C2675 0.931 . S
H2648 C2674 0.929 . S
H2649 C2677 0.930 . S
H2650 C2678 0.932 . S
H2651 C2681 0.929 . S
H2652 C2680 0.931 . S
H2653 C2683 0.929 . S
H2654 C2687 0.932 . S
H2655 C2684 0.931 . S
H2656 C2686 0.929 . S
H2657 C2689 0.929 . S
H2658 C2690 0.930 . S
H2659 C2692 0.929 . S
H2660 C2693 0.931 . S
H2661 C2695 0.930 . S
H2662 C2696 0.932 . S
H2663 C2698 0.931 . S
H2664 C2699 0.929 . S
H2665 C2701 0.929 . S
H2666 C2702 0.931 . S
H2667 C2704 0.929 . S
N2668 C2688 1.433 . S
N2668 C2694 1.435 . S
N2668 C2700 1.423 . S
H2669 C2705 0.932 . S
C2670 N2645 1.433 . S
C2670 C2671 1.363 . S
C2670 C2675 1.370 . S
C2671 H2644 0.929 . S
C2671 C2670 1.363 . S
C2671 C2672 1.385 . S
C2672 H2646 0.930 . S
C2672 C2671 1.385 . S
C2672 C2673 1.357 . S
C2673 C2672 1.357 . S
C2673 C2674 1.406 . S
C2674 H2648 0.929 . S
C2674 C2673 1.406 . S
C2674 C2675 1.391 . S
C2675 H2647 0.931 . S
C2675 C2670 1.370 . S
C2675 C2674 1.391 . S
C2676 N2645 1.435 . S
C2676 C2677 1.358 . S
C2676 C2681 1.371 . S
C2677 H2649 0.930 . S
C2677 C2676 1.358 . S
C2677 C2678 1.405 . S
C2678 H2650 0.932 . S
C2678 C2677 1.405 . S
C2678 C2679 1.383 . S
C2679 C2678 1.383 . S
C2679 C2680 1.393 . S
C2680 H2652 0.931 . S
C2680 C2679 1.393 . S
C2680 C2681 1.382 . S
C2681 H2651 0.929 . S
C2681 C2676 1.371 . S
C2681 C2680 1.382 . S
C2682 N2645 1.423 . S
C2682 C2683 1.362 . S
C2682 C2687 1.388 . S
C2683 H2653 0.929 . S
C2683 C2682 1.362 . S
C2683 C2684 1.376 . S
C2684 H2655 0.931 . S
C2684 C2683 1.376 . S
C2684 C2685 1.396 . S
C2685 C2684 1.396 . S
C2685 C2686 1.348 . S
C2685 C2703 1.472 . S
C2686 H2656 0.929 . S
C2686 C2685 1.348 . S
C2686 C2687 1.443 . S
C2687 H2654 0.932 . S
C2687 C2682 1.388 . S
C2687 C2686 1.443 . S
C2688 N2668 1.433 . S
C2688 C2689 1.363 . S
C2688 C2693 1.370 . S
C2689 H2657 0.929 . S
C2689 C2688 1.363 . S
C2689 C2690 1.385 . S
C2690 H2658 0.930 . S
C2690 C2689 1.385 . S
C2690 C2691 1.357 . S
C2691 C2690 1.357 . S
C2691 C2692 1.406 . S
C2692 H2659 0.929 . S
C2692 C2691 1.406 . S
C2692 C2693 1.391 . S
C2693 H2660 0.931 . S
C2693 C2688 1.370 . S
C2693 C2692 1.391 . S
C2694 N2668 1.435 . S
C2694 C2695 1.358 . S
C2694 C2699 1.371 . S
C2695 H2661 0.930 . S
C2695 C2694 1.358 . S
C2695 C2696 1.405 . S
C2696 H2662 0.932 . S
C2696 C2695 1.405 . S
C2696 C2697 1.383 . S
C2697 C2696 1.383 . S
C2697 C2698 1.393 . S
C2698 H2663 0.931 . S
C2698 C2697 1.393 . S
C2698 C2699 1.382 . S
C2699 H2664 0.929 . S
C2699 C2694 1.371 . S
C2699 C2698 1.382 . S
C2700 N2668 1.423 . S
C2700 C2701 1.362 . S
C2700 C2705 1.388 . S
C2701 H2665 0.929 . S
C2701 C2700 1.362 . S
C2701 C2702 1.376 . S
C2702 H2666 0.931 . S
C2702 C2701 1.376 . S
C2702 C2703 1.396 . S
C2703 C2685 1.472 . S
C2703 C2702 1.396 . S
C2703 C2704 1.348 . S
C2704 H2667 0.929 . S
C2704 C2703 1.348 . S
C2704 C2705 1.443 . S
C2705 H2669 0.932 . S
C2705 C2700 1.388 . S
C2705 C2704 1.443 . S
H2706 C2733 0.929 . S
N2707 C2732 1.433 . S
N2707 C2738 1.435 . S
N2707 C2744 1.423 . S
H2708 C2734 0.930 . S
H2709 C2737 0.931 . S
H2710 C2736 0.929 . S
H2711 C2739 0.930 . S
H2712 C2740 0.932 . S
H2713 C2743 0.929 . S
H2714 C2742 0.931 . S
H2715 C2745 0.929 . S
H2716 C2749 0.932 . S
H2717 C2746 0.931 . S
H2718 C2748 0.929 . S
H2719 C2751 0.929 . S
H2720 C2752 0.930 . S
H2721 C2754 0.929 . S
H2722 C2755 0.931 . S
H2723 C2757 0.930 . S
H2724 C2758 0.932 . S
H2725 C2760 0.931 . S
H2726 C2761 0.929 . S
H2727 C2763 0.929 . S
H2728 C2764 0.931 . S
H2729 C2766 0.929 . S
N2730 C2750 1.433 . S
N2730 C2756 1.435 . S
N2730 C2762 1.423 . S
H2731 C2767 0.932 . S
C2732 N2707 1.433 . S
C2732 C2733 1.363 . S
C2732 C2737 1.370 . S
C2733 H2706 0.929 . S
C2733 C2732 1.363 . S
C2733 C2734 1.385 . S
C2734 H2708 0.930 . S
C2734 C2733 1.385 . S
C2734 C2735 1.357 . S
C2735 C2734 1.357 . S
C2735 C2736 1.406 . S
C2736 H2710 0.929 . S
C2736 C2735 1.406 . S
C2736 C2737 1.391 . S
C2737 H2709 0.931 . S
C2737 C2732 1.370 . S
C2737 C2736 1.391 . S
C2738 N2707 1.435 . S
C2738 C2739 1.358 . S
C2738 C2743 1.371 . S
C2739 H2711 0.930 . S
C2739 C2738 1.358 . S
C2739 C2740 1.405 . S
C2740 H2712 0.932 . S
C2740 C2739 1.405 . S
C2740 C2741 1.383 . S
C2741 C2740 1.383 . S
C2741 C2742 1.393 . S
C2742 H2714 0.931 . S
C2742 C2741 1.393 . S
C2742 C2743 1.382 . S
C2743 H2713 0.929 . S
C2743 C2738 1.371 . S
C2743 C2742 1.382 . S
C2744 N2707 1.423 . S
C2744 C2745 1.362 . S
C2744 C2749 1.388 . S
C2745 H2715 0.929 . S
C2745 C2744 1.362 . S
C2745 C2746 1.376 . S
C2746 H2717 0.931 . S
C2746 C2745 1.376 . S
C2746 C2747 1.396 . S
C2747 C2746 1.396 . S
C2747 C2748 1.348 . S
C2747 C2765 1.472 . S
C2748 H2718 0.929 . S
C2748 C2747 1.348 . S
C2748 C2749 1.443 . S
C2749 H2716 0.932 . S
C2749 C2744 1.388 . S
C2749 C2748 1.443 . S
C2750 N2730 1.433 . S
C2750 C2751 1.363 . S
C2750 C2755 1.370 . S
C2751 H2719 0.929 . S
C2751 C2750 1.363 . S
C2751 C2752 1.385 . S
C2752 H2720 0.930 . S
C2752 C2751 1.385 . S
C2752 C2753 1.357 . S
C2753 C2752 1.357 . S
C2753 C2754 1.406 . S
C2754 H2721 0.929 . S
C2754 C2753 1.406 . S
C2754 C2755 1.391 . S
C2755 H2722 0.931 . S
C2755 C2750 1.370 . S
C2755 C2754 1.391 . S
C2756 N2730 1.435 . S
C2756 C2757 1.358 . S
C2756 C2761 1.371 . S
C2757 H2723 0.930 . S
C2757 C2756 1.358 . S
C2757 C2758 1.405 . S
C2758 H2724 0.932 . S
C2758 C2757 1.405 . S
C2758 C2759 1.383 . S
C2759 C2758 1.383 . S
C2759 C2760 1.393 . S
C2760 H2725 0.931 . S
C2760 C2759 1.393 . S
C2760 C2761 1.382 . S
C2761 H2726 0.929 . S
C2761 C2756 1.371 . S
C2761 C2760 1.382 . S
C2762 N2730 1.423 . S
C2762 C2763 1.362 . S
C2762 C2767 1.388 . S
C2763 H2727 0.929 . S
C2763 C2762 1.362 . S
C2763 C2764 1.376 . S
C2764 H2728 0.931 . S
C2764 C2763 1.376 . S
C2764 C2765 1.396 . S
C2765 C2747 1.472 . S
C2765 C2764 1.396 . S
C2765 C2766 1.348 . S
C2766 H2729 0.929 . S
C2766 C2765 1.348 . S
C2766 C2767 1.443 . S
C2767 H2731 0.932 . S
C2767 C2762 1.388 . S
C2767 C2766 1.443 . S
H2768 C2776 0.929 . S
H2769 C2778 0.930 . S
H2770 C2780 0.930 . S
H2771 C2783 0.929 . S
H2772 C2786 0.930 . S
H2773 C2788 0.960 . S
H2774 C2788 0.960 . S
H2775 C2788 0.960 . S
C2776 H2768 0.929 . S
C2776 C2777 1.377 . S
C2776 C2778 1.384 . S
C2777 C2776 1.377 . S
C2777 C2783 1.390 . S
C2778 H2769 0.930 . S
C2778 C2776 1.384 . S
C2778 C2779 1.372 . S
C2779 C2778 1.372 . S
C2779 C2780 1.400 . S
C2779 C2784 1.490 . S
C2780 H2770 0.930 . S
C2780 C2779 1.400 . S
C2780 C2783 1.386 . S
H2781 C2797 0.930 . S
H2782 C2798 0.931 . S
C2783 H2771 0.929 . S
C2783 C2777 1.390 . S
C2783 C2780 1.386 . S
C2784 C2779 1.490 . S
C2784 C2786 1.395 . S
C2784 C2787 1.403 . S
H2785 C2791 0.930 . S
C2786 H2772 0.930 . S
C2786 C2784 1.395 . S
C2786 C2789 1.403 . S
C2787 C2784 1.403 . S
C2787 C2788 1.524 . S
C2787 C2791 1.400 . S
C2788 H2773 0.960 . S
C2788 H2774 0.960 . S
C2788 H2775 0.960 . S
C2788 C2787 1.524 . S
C2789 C2786 1.403 . S
C2789 C2790 1.392 . S
C2789 C2793 1.495 . S
C2790 C2789 1.392 . S
C2790 C2791 1.385 . S
C2790 C2792 1.478 . S
C2791 H2785 0.930 . S
C2791 C2787 1.400 . S
C2791 C2790 1.385 . S
C2792 C2790 1.478 . S
C2792 C2794 1.381 . S
C2792 C2798 1.383 . S
C2793 C2789 1.495 . S
C2793 H2799 0.959 . S
C2793 H2800 0.961 . S
C2793 H2801 0.960 . S
C2794 C2792 1.381 . S
C2794 C2795 1.394 . S
C2794 H2802 0.930 . S
C2795 C2794 1.394 . S
C2795 C2796 1.383 . S
C2795 H2803 0.929 . S
C2796 C2795 1.383 . S
C2796 C2797 1.377 . S
C2797 H2781 0.930 . S
C2797 C2796 1.377 . S
C2797 C2798 1.379 . S
C2798 H2782 0.931 . S
C2798 C2792 1.383 . S
C2798 C2797 1.379 . S
H2799 C2793 0.959 . S
H2800 C2793 0.961 . S
H2801 C2793 0.960 . S
H2802 C2794 0.930 . S
H2803 C2795 0.929 . S
H2804 C2812 0.929 . S
H2805 C2814 0.930 . S
H2806 C2816 0.930 . S
H2807 C2819 0.929 . S
H2808 C2822 0.930 . S
H2809 C2824 0.960 . S
H2810 C2824 0.960 . S
H2811 C2824 0.960 . S
C2812 H2804 0.929 . S
C2812 C2813 1.377 . S
C2812 C2814 1.384 . S
C2813 C2812 1.377 . S
C2813 C2819 1.390 . S
C2814 H2805 0.930 . S
C2814 C2812 1.384 . S
C2814 C2815 1.372 . S
C2815 C2814 1.372 . S
C2815 C2816 1.400 . S
C2815 C2820 1.490 . S
C2816 H2806 0.930 . S
C2816 C2815 1.400 . S
C2816 C2819 1.386 . S
H2817 C2833 0.930 . S
H2818 C2834 0.931 . S
C2819 H2807 0.929 . S
C2819 C2813 1.390 . S
C2819 C2816 1.386 . S
C2820 C2815 1.490 . S
C2820 C2822 1.395 . S
C2820 C2823 1.403 . S
H2821 C2827 0.930 . S
C2822 H2808 0.930 . S
C2822 C2820 1.395 . S
C2822 C2825 1.403 . S
C2823 C2820 1.403 . S
C2823 C2824 1.524 . S
C2823 C2827 1.400 . S
C2824 H2809 0.960 . S
C2824 H2810 0.960 . S
C2824 H2811 0.960 . S
C2824 C2823 1.524 . S
C2825 C2822 1.403 . S
C2825 C2826 1.392 . S
C2825 C2829 1.495 . S
C2826 C2825 1.392 . S
C2826 C2827 1.385 . S
C2826 C2828 1.478 . S
C2827 H2821 0.930 . S
C2827 C2823 1.400 . S
C2827 C2826 1.385 . S
C2828 C2826 1.478 . S
C2828 C2830 1.381 . S
C2828 C2834 1.383 . S
C2829 C2825 1.495 . S
C2829 H2835 0.959 . S
C2829 H2836 0.961 . S
C2829 H2837 0.960 . S
C2830 C2828 1.381 . S
C2830 C2831 1.394 . S
C2830 H2838 0.930 . S
C2831 C2830 1.394 . S
C2831 C2832 1.383 . S
C2831 H2839 0.929 . S
C2832 C2831 1.383 . S
C2832 C2833 1.377 . S
C2833 H2817 0.930 . S
C2833 C2832 1.377 . S
C2833 C2834 1.379 . S
C2834 H2818 0.931 . S
C2834 C2828 1.383 . S
C2834 C2833 1.379 . S
H2835 C2829 0.959 . S
H2836 C2829 0.961 . S
H2837 C2829 0.960 . S
H2838 C2830 0.930 . S
H2839 C2831 0.929 . S
H2840 C2848 0.929 . S
H2841 C2850 0.930 . S
H2842 C2852 0.930 . S
H2843 C2855 0.929 . S
H2844 C2858 0.930 . S
H2845 C2860 0.960 . S
H2846 C2860 0.960 . S
H2847 C2860 0.960 . S
C2848 H2840 0.929 . S
C2848 C2849 1.377 . S
C2848 C2850 1.384 . S
C2849 C2848 1.377 . S
C2849 C2855 1.390 . S
C2850 H2841 0.930 . S
C2850 C2848 1.384 . S
C2850 C2851 1.372 . S
C2851 C2850 1.372 . S
C2851 C2852 1.400 . S
C2851 C2856 1.490 . S
C2852 H2842 0.930 . S
C2852 C2851 1.400 . S
C2852 C2855 1.386 . S
H2853 C2869 0.930 . S
H2854 C2870 0.931 . S
C2855 H2843 0.929 . S
C2855 C2849 1.390 . S
C2855 C2852 1.386 . S
C2856 C2851 1.490 . S
C2856 C2858 1.395 . S
C2856 C2859 1.403 . S
H2857 C2863 0.930 . S
C2858 H2844 0.930 . S
C2858 C2856 1.395 . S
C2858 C2861 1.403 . S
C2859 C2856 1.403 . S
C2859 C2860 1.524 . S
C2859 C2863 1.400 . S
C2860 H2845 0.960 . S
C2860 H2846 0.960 . S
C2860 H2847 0.960 . S
C2860 C2859 1.524 . S
C2861 C2858 1.403 . S
C2861 C2862 1.392 . S
C2861 C2865 1.495 . S
C2862 C2861 1.392 . S
C2862 C2863 1.385 . S
C2862 C2864 1.478 . S
C2863 H2857 0.930 . S
C2863 C2859 1.400 . S
C2863 C2862 1.385 . S
C2864 C2862 1.478 . S
C2864 C2866 1.381 . S
C2864 C2870 1.383 . S
C2865 C2861 1.495 . S
C2865 H2871 0.959 . S
C2865 H2872 0.961 . S
C2865 H2873 0.960 . S
C2866 C2864 1.381 . S
C2866 C2867 1.394 . S
C2866 H2874 0.930 . S
C2867 C2866 1.394 . S
C2867 C2868 1.383 . S
C2867 H2875 0.929 . S
C2868 C2867 1.383 . S
C2868 C2869 1.377 . S
C2869 H2853 0.930 . S
C2869 C2868 1.377 . S
C2869 C2870 1.379 . S
C2870 H2854 0.931 . S
C2870 C2864 1.383 . S
C2870 C2869 1.379 . S
H2871 C2865 0.959 . S
H2872 C2865 0.961 . S
H2873 C2865 0.960 . S
H2874 C2866 0.930 . S
H2875 C2867 0.929 . S
H2876 C2884 0.929 . S
H2877 C2886 0.930 . S
H2878 C2888 0.930 . S
H2879 C2891 0.929 . S
H2880 C2894 0.930 . S
H2881 C2896 0.960 . S
H2882 C2896 0.960 . S
H2883 C2896 0.960 . S
C2884 H2876 0.929 . S
C2884 C2885 1.377 . S
C2884 C2886 1.384 . S
C2885 C2884 1.377 . S
C2885 C2891 1.390 . S
C2886 H2877 0.930 . S
C2886 C2884 1.384 . S
C2886 C2887 1.372 . S
C2887 C2886 1.372 . S
C2887 C2888 1.400 . S
C2887 C2892 1.490 . S
C2888 H2878 0.930 . S
C2888 C2887 1.400 . S
C2888 C2891 1.386 . S
H2889 C2905 0.930 . S
H2890 C2906 0.931 . S
C2891 H2879 0.929 . S
C2891 C2885 1.390 . S
C2891 C2888 1.386 . S
C2892 C2887 1.490 . S
C2892 C2894 1.395 . S
C2892 C2895 1.403 . S
H2893 C2899 0.930 . S
C2894 H2880 0.930 . S
C2894 C2892 1.395 . S
C2894 C2897 1.403 . S
C2895 C2892 1.403 . S
C2895 C2896 1.524 . S
C2895 C2899 1.400 . S
C2896 H2881 0.960 . S
C2896 H2882 0.960 . S
C2896 H2883 0.960 . S
C2896 C2895 1.524 . S
C2897 C2894 1.403 . S
C2897 C2898 1.392 . S
C2897 C2901 1.495 . S
C2898 C2897 1.392 . S
C2898 C2899 1.385 . S
C2898 C2900 1.478 . S
C2899 H2893 0.930 . S
C2899 C2895 1.400 . S
C2899 C2898 1.385 . S
C2900 C2898 1.478 . S
C2900 C2902 1.381 . S
C2900 C2906 1.383 . S
C2901 C2897 1.495 . S
C2901 H2907 0.959 . S
C2901 H2908 0.961 . S
C2901 H2909 0.960 . S
C2902 C2900 1.381 . S
C2902 C2903 1.394 . S
C2902 H2910 0.930 . S
C2903 C2902 1.394 . S
C2903 C2904 1.383 . S
C2903 H2911 0.929 . S
C2904 C2903 1.383 . S
C2904 C2905 1.377 . S
C2905 H2889 0.930 . S
C2905 C2904 1.377 . S
C2905 C2906 1.379 . S
C2906 H2890 0.931 . S
C2906 C2900 1.383 . S
C2906 C2905 1.379 . S
H2907 C2901 0.959 . S
H2908 C2901 0.961 . S
H2909 C2901 0.960 . S
H2910 C2902 0.930 . S
H2911 C2903 0.929 . S
H2912 C2920 0.929 . S
H2913 C2922 0.930 . S
H2914 C2924 0.930 . S
H2915 C2927 0.929 . S
H2916 C2930 0.930 . S
H2917 C2932 0.960 . S
H2918 C2932 0.960 . S
H2919 C2932 0.960 . S
C2920 H2912 0.929 . S
C2920 C2921 1.377 . S
C2920 C2922 1.384 . S
C2921 C2920 1.377 . S
C2921 C2927 1.390 . S
C2922 H2913 0.930 . S
C2922 C2920 1.384 . S
C2922 C2923 1.372 . S
C2923 C2922 1.372 . S
C2923 C2924 1.400 . S
C2923 C2928 1.490 . S
C2924 H2914 0.930 . S
C2924 C2923 1.400 . S
C2924 C2927 1.386 . S
H2925 C2941 0.930 . S
H2926 C2942 0.931 . S
C2927 H2915 0.929 . S
C2927 C2921 1.390 . S
C2927 C2924 1.386 . S
C2928 C2923 1.490 . S
C2928 C2930 1.395 . S
C2928 C2931 1.403 . S
H2929 C2935 0.930 . S
C2930 H2916 0.930 . S
C2930 C2928 1.395 . S
C2930 C2933 1.403 . S
C2931 C2928 1.403 . S
C2931 C2932 1.524 . S
C2931 C2935 1.400 . S
C2932 H2917 0.960 . S
C2932 H2918 0.960 . S
C2932 H2919 0.960 . S
C2932 C2931 1.524 . S
C2933 C2930 1.403 . S
C2933 C2934 1.392 . S
C2933 C2937 1.495 . S
C2934 C2933 1.392 . S
C2934 C2935 1.385 . S
C2934 C2936 1.478 . S
C2935 H2929 0.930 . S
C2935 C2931 1.400 . S
C2935 C2934 1.385 . S
C2936 C2934 1.478 . S
C2936 C2938 1.381 . S
C2936 C2942 1.383 . S
C2937 C2933 1.495 . S
C2937 H2943 0.959 . S
C2937 H2944 0.961 . S
C2937 H2945 0.960 . S
C2938 C2936 1.381 . S
C2938 C2939 1.394 . S
C2938 H2946 0.930 . S
C2939 C2938 1.394 . S
C2939 C2940 1.383 . S
C2939 H2947 0.929 . S
C2940 C2939 1.383 . S
C2940 C2941 1.377 . S
C2941 H2925 0.930 . S
C2941 C2940 1.377 . S
C2941 C2942 1.379 . S
C2942 H2926 0.931 . S
C2942 C2936 1.383 . S
C2942 C2941 1.379 . S
H2943 C2937 0.959 . S
H2944 C2937 0.961 . S
H2945 C2937 0.960 . S
H2946 C2938 0.930 . S
H2947 C2939 0.929 . S
H2948 C2956 0.929 . S
H2949 C2958 0.930 . S
H2950 C2960 0.930 . S
H2951 C2963 0.929 . S
H2952 C2966 0.930 . S
H2953 C2968 0.960 . S
H2954 C2968 0.960 . S
H2955 C2968 0.960 . S
C2956 H2948 0.929 . S
C2956 C2957 1.377 . S
C2956 C2958 1.384 . S
C2957 C2956 1.377 . S
C2957 C2963 1.390 . S
C2958 H2949 0.930 . S
C2958 C2956 1.384 . S
C2958 C2959 1.372 . S
C2959 C2958 1.372 . S
C2959 C2960 1.400 . S
C2959 C2964 1.490 . S
C2960 H2950 0.930 . S
C2960 C2959 1.400 . S
C2960 C2963 1.386 . S
H2961 C2977 0.930 . S
H2962 C2978 0.931 . S
C2963 H2951 0.929 . S
C2963 C2957 1.390 . S
C2963 C2960 1.386 . S
C2964 C2959 1.490 . S
C2964 C2966 1.395 . S
C2964 C2967 1.403 . S
H2965 C2971 0.930 . S
C2966 H2952 0.930 . S
C2966 C2964 1.395 . S
C2966 C2969 1.403 . S
C2967 C2964 1.403 . S
C2967 C2968 1.524 . S
C2967 C2971 1.400 . S
C2968 H2953 0.960 . S
C2968 H2954 0.960 . S
C2968 H2955 0.960 . S
C2968 C2967 1.524 . S
C2969 C2966 1.403 . S
C2969 C2970 1.392 . S
C2969 C2973 1.495 . S
C2970 C2969 1.392 . S
C2970 C2971 1.385 . S
C2970 C2972 1.478 . S
C2971 H2965 0.930 . S
C2971 C2967 1.400 . S
C2971 C2970 1.385 . S
C2972 C2970 1.478 . S
C2972 C2974 1.381 . S
C2972 C2978 1.383 . S
C2973 C2969 1.495 . S
C2973 H2979 0.959 . S
C2973 H2980 0.961 . S
C2973 H2981 0.960 . S
C2974 C2972 1.381 . S
C2974 C2975 1.394 . S
C2974 H2982 0.930 . S
C2975 C2974 1.394 . S
C2975 C2976 1.383 . S
C2975 H2983 0.929 . S
C2976 C2975 1.383 . S
C2976 C2977 1.377 . S
C2977 H2961 0.930 . S
C2977 C2976 1.377 . S
C2977 C2978 1.379 . S
C2978 H2962 0.931 . S
C2978 C2972 1.383 . S
C2978 C2977 1.379 . S
H2979 C2973 0.959 . S
H2980 C2973 0.961 . S
H2981 C2973 0.960 . S
H2982 C2974 0.930 . S
H2983 C2975 0.929 . S
H2984 C2992 0.929 . S
H2985 C2994 0.930 . S
H2986 C2996 0.930 . S
H2987 C2999 0.929 . S
H2988 C3002 0.930 . S
H2989 C3004 0.960 . S
H2990 C3004 0.960 . S
H2991 C3004 0.960 . S
C2992 H2984 0.929 . S
C2992 C2993 1.377 . S
C2992 C2994 1.384 . S
C2993 C2992 1.377 . S
C2993 C2999 1.390 . S
C2994 H2985 0.930 . S
C2994 C2992 1.384 . S
C2994 C2995 1.372 . S
C2995 C2994 1.372 . S
C2995 C2996 1.400 . S
C2995 C3000 1.490 . S
C2996 H2986 0.930 . S
C2996 C2995 1.400 . S
C2996 C2999 1.386 . S
H2997 C3013 0.930 . S
H2998 C3014 0.931 . S
C2999 H2987 0.929 . S
C2999 C2993 1.390 . S
C2999 C2996 1.386 . S
C3000 C2995 1.490 . S
C3000 C3002 1.395 . S
C3000 C3003 1.403 . S
H3001 C3007 0.930 . S
C3002 H2988 0.930 . S
C3002 C3000 1.395 . S
C3002 C3005 1.403 . S
C3003 C3000 1.403 . S
C3003 C3004 1.524 . S
C3003 C3007 1.400 . S
C3004 H2989 0.960 . S
C3004 H2990 0.960 . S
C3004 H2991 0.960 . S
C3004 C3003 1.524 . S
C3005 C3002 1.403 . S
C3005 C3006 1.392 . S
C3005 C3009 1.495 . S
C3006 C3005 1.392 . S
C3006 C3007 1.385 . S
C3006 C3008 1.478 . S
C3007 H3001 0.930 . S
C3007 C3003 1.400 . S
C3007 C3006 1.385 . S
C3008 C3006 1.478 . S
C3008 C3010 1.381 . S
C3008 C3014 1.383 . S
C3009 C3005 1.495 . S
C3009 H3015 0.959 . S
C3009 H3016 0.961 . S
C3009 H3017 0.960 . S
C3010 C3008 1.381 . S
C3010 C3011 1.394 . S
C3010 H3018 0.930 . S
C3011 C3010 1.394 . S
C3011 C3012 1.383 . S
C3011 H3019 0.929 . S
C3012 C3011 1.383 . S
C3012 C3013 1.377 . S
C3013 H2997 0.930 . S
C3013 C3012 1.377 . S
C3013 C3014 1.379 . S
C3014 H2998 0.931 . S
C3014 C3008 1.383 . S
C3014 C3013 1.379 . S
H3015 C3009 0.959 . S
H3016 C3009 0.961 . S
H3017 C3009 0.960 . S
H3018 C3010 0.930 . S
H3019 C3011 0.929 . S
H3020 C3028 0.929 . S
H3021 C3030 0.930 . S
H3022 C3032 0.930 . S
H3023 C3035 0.929 . S
H3024 C3038 0.930 . S
H3025 C3040 0.960 . S
H3026 C3040 0.960 . S
H3027 C3040 0.960 . S
C3028 H3020 0.929 . S
C3028 C3029 1.377 . S
C3028 C3030 1.384 . S
C3029 C3028 1.377 . S
C3029 C3035 1.390 . S
C3030 H3021 0.930 . S
C3030 C3028 1.384 . S
C3030 C3031 1.372 . S
C3031 C3030 1.372 . S
C3031 C3032 1.400 . S
C3031 C3036 1.490 . S
C3032 H3022 0.930 . S
C3032 C3031 1.400 . S
C3032 C3035 1.386 . S
H3033 C3049 0.930 . S
H3034 C3050 0.931 . S
C3035 H3023 0.929 . S
C3035 C3029 1.390 . S
C3035 C3032 1.386 . S
C3036 C3031 1.490 . S
C3036 C3038 1.395 . S
C3036 C3039 1.403 . S
H3037 C3043 0.930 . S
C3038 H3024 0.930 . S
C3038 C3036 1.395 . S
C3038 C3041 1.403 . S
C3039 C3036 1.403 . S
C3039 C3040 1.524 . S
C3039 C3043 1.400 . S
C3040 H3025 0.960 . S
C3040 H3026 0.960 . S
C3040 H3027 0.960 . S
C3040 C3039 1.524 . S
C3041 C3038 1.403 . S
C3041 C3042 1.392 . S
C3041 C3045 1.495 . S
C3042 C3041 1.392 . S
C3042 C3043 1.385 . S
C3042 C3044 1.478 . S
C3043 H3037 0.930 . S
C3043 C3039 1.400 . S
C3043 C3042 1.385 . S
C3044 C3042 1.478 . S
C3044 C3046 1.381 . S
C3044 C3050 1.383 . S
C3045 C3041 1.495 . S
C3045 H3051 0.959 . S
C3045 H3052 0.961 . S
C3045 H3053 0.960 . S
C3046 C3044 1.381 . S
C3046 C3047 1.394 . S
C3046 H3054 0.930 . S
C3047 C3046 1.394 . S
C3047 C3048 1.383 . S
C3047 H3055 0.929 . S
C3048 C3047 1.383 . S
C3048 C3049 1.377 . S
C3049 H3033 0.930 . S
C3049 C3048 1.377 . S
C3049 C3050 1.379 . S
C3050 H3034 0.931 . S
C3050 C3044 1.383 . S
C3050 C3049 1.379 . S
H3051 C3045 0.959 . S
H3052 C3045 0.961 . S
H3053 C3045 0.960 . S
H3054 C3046 0.930 . S
H3055 C3047 0.929 . S
H3056 C3064 0.929 . S
H3057 C3066 0.930 . S
H3058 C3068 0.930 . S
H3059 C3071 0.929 . S
H3060 C3074 0.930 . S
H3061 C3076 0.960 . S
H3062 C3076 0.960 . S
H3063 C3076 0.960 . S
C3064 H3056 0.929 . S
C3064 C3065 1.377 . S
C3064 C3066 1.384 . S
C3065 C3064 1.377 . S
C3065 C3071 1.390 . S
C3066 H3057 0.930 . S
C3066 C3064 1.384 . S
C3066 C3067 1.372 . S
C3067 C3066 1.372 . S
C3067 C3068 1.400 . S
C3067 C3072 1.490 . S
C3068 H3058 0.930 . S
C3068 C3067 1.400 . S
C3068 C3071 1.386 . S
H3069 C3085 0.930 . S
H3070 C3086 0.931 . S
C3071 H3059 0.929 . S
C3071 C3065 1.390 . S
C3071 C3068 1.386 . S
C3072 C3067 1.490 . S
C3072 C3074 1.395 . S
C3072 C3075 1.403 . S
H3073 C3079 0.930 . S
C3074 H3060 0.930 . S
C3074 C3072 1.395 . S
C3074 C3077 1.403 . S
C3075 C3072 1.403 . S
C3075 C3076 1.524 . S
C3075 C3079 1.400 . S
C3076 H3061 0.960 . S
C3076 H3062 0.960 . S
C3076 H3063 0.960 . S
C3076 C3075 1.524 . S
C3077 C3074 1.403 . S
C3077 C3078 1.392 . S
C3077 C3081 1.495 . S
C3078 C3077 1.392 . S
C3078 C3079 1.385 . S
C3078 C3080 1.478 . S
C3079 H3073 0.930 . S
C3079 C3075 1.400 . S
C3079 C3078 1.385 . S
C3080 C3078 1.478 . S
C3080 C3082 1.381 . S
C3080 C3086 1.383 . S
C3081 C3077 1.495 . S
C3081 H3087 0.959 . S
C3081 H3088 0.961 . S
C3081 H3089 0.960 . S
C3082 C3080 1.381 . S
C3082 C3083 1.394 . S
C3082 H3090 0.930 . S
C3083 C3082 1.394 . S
C3083 C3084 1.383 . S
C3083 H3091 0.929 . S
C3084 C3083 1.383 . S
C3084 C3085 1.377 . S
C3085 H3069 0.930 . S
C3085 C3084 1.377 . S
C3085 C3086 1.379 . S
C3086 H3070 0.931 . S
C3086 C3080 1.383 . S
C3086 C3085 1.379 . S
H3087 C3081 0.959 . S
H3088 C3081 0.961 . S
H3089 C3081 0.960 . S
H3090 C3082 0.930 . S
H3091 C3083 0.929 . S
H3092 C3100 0.929 . S
H3093 C3102 0.930 . S
H3094 C3104 0.930 . S
H3095 C3107 0.929 . S
H3096 C3110 0.930 . S
H3097 C3112 0.960 . S
H3098 C3112 0.960 . S
H3099 C3112 0.960 . S
C3100 H3092 0.929 . S
C3100 C3101 1.377 . S
C3100 C3102 1.384 . S
C3101 C3100 1.377 . S
C3101 C3107 1.390 . S
C3102 H3093 0.930 . S
C3102 C3100 1.384 . S
C3102 C3103 1.372 . S
C3103 C3102 1.372 . S
C3103 C3104 1.400 . S
C3103 C3108 1.490 . S
C3104 H3094 0.930 . S
C3104 C3103 1.400 . S
C3104 C3107 1.386 . S
H3105 C3121 0.930 . S
H3106 C3122 0.931 . S
C3107 H3095 0.929 . S
C3107 C3101 1.390 . S
C3107 C3104 1.386 . S
C3108 C3103 1.490 . S
C3108 C3110 1.395 . S
C3108 C3111 1.403 . S
H3109 C3115 0.930 . S
C3110 H3096 0.930 . S
C3110 C3108 1.395 . S
C3110 C3113 1.403 . S
C3111 C3108 1.403 . S
C3111 C3112 1.524 . S
C3111 C3115 1.400 . S
C3112 H3097 0.960 . S
C3112 H3098 0.960 . S
C3112 H3099 0.960 . S
C3112 C3111 1.524 . S
C3113 C3110 1.403 . S
C3113 C3114 1.392 . S
C3113 C3117 1.495 . S
C3114 C3113 1.392 . S
C3114 C3115 1.385 . S
C3114 C3116 1.478 . S
C3115 H3109 0.930 . S
C3115 C3111 1.400 . S
C3115 C3114 1.385 . S
C3116 C3114 1.478 . S
C3116 C3118 1.381 . S
C3116 C3122 1.383 . S
C3117 C3113 1.495 . S
C3117 H3123 0.959 . S
C3117 H3124 0.961 . S
C3117 H3125 0.960 . S
C3118 C3116 1.381 . S
C3118 C3119 1.394 . S
C3118 H3126 0.930 . S
C3119 C3118 1.394 . S
C3119 C3120 1.383 . S
C3119 H3127 0.929 . S
C3120 C3119 1.383 . S
C3120 C3121 1.377 . S
C3121 H3105 0.930 . S
C3121 C3120 1.377 . S
C3121 C3122 1.379 . S
C3122 H3106 0.931 . S
C3122 C3116 1.383 . S
C3122 C3121 1.379 . S
H3123 C3117 0.959 . S
H3124 C3117 0.961 . S
H3125 C3117 0.960 . S
H3126 C3118 0.930 . S
H3127 C3119 0.929 . S
H3128 C3136 0.929 . S
H3129 C3138 0.930 . S
H3130 C3140 0.930 . S
H3131 C3143 0.929 . S
H3132 C3146 0.930 . S
H3133 C3148 0.960 . S
H3134 C3148 0.960 . S
H3135 C3148 0.960 . S
C3136 H3128 0.929 . S
C3136 C3137 1.377 . S
C3136 C3138 1.384 . S
C3137 C3136 1.377 . S
C3137 C3143 1.390 . S
C3138 H3129 0.930 . S
C3138 C3136 1.384 . S
C3138 C3139 1.372 . S
C3139 C3138 1.372 . S
C3139 C3140 1.400 . S
C3139 C3144 1.490 . S
C3140 H3130 0.930 . S
C3140 C3139 1.400 . S
C3140 C3143 1.386 . S
H3141 C3157 0.930 . S
H3142 C3158 0.931 . S
C3143 H3131 0.929 . S
C3143 C3137 1.390 . S
C3143 C3140 1.386 . S
C3144 C3139 1.490 . S
C3144 C3146 1.395 . S
C3144 C3147 1.403 . S
H3145 C3151 0.930 . S
C3146 H3132 0.930 . S
C3146 C3144 1.395 . S
C3146 C3149 1.403 . S
C3147 C3144 1.403 . S
C3147 C3148 1.524 . S
C3147 C3151 1.400 . S
C3148 H3133 0.960 . S
C3148 H3134 0.960 . S
C3148 H3135 0.960 . S
C3148 C3147 1.524 . S
C3149 C3146 1.403 . S
C3149 C3150 1.392 . S
C3149 C3153 1.495 . S
C3150 C3149 1.392 . S
C3150 C3151 1.385 . S
C3150 C3152 1.478 . S
C3151 H3145 0.930 . S
C3151 C3147 1.400 . S
C3151 C3150 1.385 . S
C3152 C3150 1.478 . S
C3152 C3154 1.381 . S
C3152 C3158 1.383 . S
C3153 C3149 1.495 . S
C3153 H3159 0.959 . S
C3153 H3160 0.961 . S
C3153 H3161 0.960 . S
C3154 C3152 1.381 . S
C3154 C3155 1.394 . S
C3154 H3162 0.930 . S
C3155 C3154 1.394 . S
C3155 C3156 1.383 . S
C3155 H3163 0.929 . S
C3156 C3155 1.383 . S
C3156 C3157 1.377 . S
C3157 H3141 0.930 . S
C3157 C3156 1.377 . S
C3157 C3158 1.379 . S
C3158 H3142 0.931 . S
C3158 C3152 1.383 . S
C3158 C3157 1.379 . S
H3159 C3153 0.959 . S
H3160 C3153 0.961 . S
H3161 C3153 0.960 . S
H3162 C3154 0.930 . S
H3163 C3155 0.929 . S
H3164 C3172 0.929 . S
H3165 C3174 0.930 . S
H3166 C3176 0.930 . S
H3167 C3179 0.929 . S
H3168 C3182 0.930 . S
H3169 C3184 0.960 . S
H3170 C3184 0.960 . S
H3171 C3184 0.960 . S
C3172 H3164 0.929 . S
C3172 C3173 1.377 . S
C3172 C3174 1.384 . S
C3173 C3172 1.377 . S
C3173 C3179 1.390 . S
C3174 H3165 0.930 . S
C3174 C3172 1.384 . S
C3174 C3175 1.372 . S
C3175 C3174 1.372 . S
C3175 C3176 1.400 . S
C3175 C3180 1.490 . S
C3176 H3166 0.930 . S
C3176 C3175 1.400 . S
C3176 C3179 1.386 . S
H3177 C3193 0.930 . S
H3178 C3194 0.931 . S
C3179 H3167 0.929 . S
C3179 C3173 1.390 . S
C3179 C3176 1.386 . S
C3180 C3175 1.490 . S
C3180 C3182 1.395 . S
C3180 C3183 1.403 . S
H3181 C3187 0.930 . S
C3182 H3168 0.930 . S
C3182 C3180 1.395 . S
C3182 C3185 1.403 . S
C3183 C3180 1.403 . S
C3183 C3184 1.524 . S
C3183 C3187 1.400 . S
C3184 H3169 0.960 . S
C3184 H3170 0.960 . S
C3184 H3171 0.960 . S
C3184 C3183 1.524 . S
C3185 C3182 1.403 . S
C3185 C3186 1.392 . S
C3185 C3189 1.495 . S
C3186 C3185 1.392 . S
C3186 C3187 1.385 . S
C3186 C3188 1.478 . S
C3187 H3181 0.930 . S
C3187 C3183 1.400 . S
C3187 C3186 1.385 . S
C3188 C3186 1.478 . S
C3188 C3190 1.381 . S
C3188 C3194 1.383 . S
C3189 C3185 1.495 . S
C3189 H3195 0.959 . S
C3189 H3196 0.961 . S
C3189 H3197 0.960 . S
C3190 C3188 1.381 . S
C3190 C3191 1.394 . S
C3190 H3198 0.930 . S
C3191 C3190 1.394 . S
C3191 C3192 1.383 . S
C3191 H3199 0.929 . S
C3192 C3191 1.383 . S
C3192 C3193 1.377 . S
C3193 H3177 0.930 . S
C3193 C3192 1.377 . S
C3193 C3194 1.379 . S
C3194 H3178 0.931 . S
C3194 C3188 1.383 . S
C3194 C3193 1.379 . S
H3195 C3189 0.959 . S
H3196 C3189 0.961 . S
H3197 C3189 0.960 . S
H3198 C3190 0.930 . S
H3199 C3191 0.929 . S
H3200 C3208 0.929 . S
H3201 C3210 0.930 . S
H3202 C3212 0.930 . S
H3203 C3215 0.929 . S
H3204 C3218 0.930 . S
H3205 C3220 0.960 . S
H3206 C3220 0.960 . S
H3207 C3220 0.960 . S
C3208 H3200 0.929 . S
C3208 C3209 1.377 . S
C3208 C3210 1.384 . S
C3209 C3208 1.377 . S
C3209 C3215 1.390 . S
C3210 H3201 0.930 . S
C3210 C3208 1.384 . S
C3210 C3211 1.372 . S
C3211 C3210 1.372 . S
C3211 C3212 1.400 . S
C3211 C3216 1.490 . S
C3212 H3202 0.930 . S
C3212 C3211 1.400 . S
C3212 C3215 1.386 . S
H3213 C3229 0.930 . S
H3214 C3230 0.931 . S
C3215 H3203 0.929 . S
C3215 C3209 1.390 . S
C3215 C3212 1.386 . S
C3216 C3211 1.490 . S
C3216 C3218 1.395 . S
C3216 C3219 1.403 . S
H3217 C3223 0.930 . S
C3218 H3204 0.930 . S
C3218 C3216 1.395 . S
C3218 C3221 1.403 . S
C3219 C3216 1.403 . S
C3219 C3220 1.524 . S
C3219 C3223 1.400 . S
C3220 H3205 0.960 . S
C3220 H3206 0.960 . S
C3220 H3207 0.960 . S
C3220 C3219 1.524 . S
C3221 C3218 1.403 . S
C3221 C3222 1.392 . S
C3221 C3225 1.495 . S
C3222 C3221 1.392 . S
C3222 C3223 1.385 . S
C3222 C3224 1.478 . S
C3223 H3217 0.930 . S
C3223 C3219 1.400 . S
C3223 C3222 1.385 . S
C3224 C3222 1.478 . S
C3224 C3226 1.381 . S
C3224 C3230 1.383 . S
C3225 C3221 1.495 . S
C3225 H3231 0.959 . S
C3225 H3232 0.961 . S
C3225 H3233 0.960 . S
C3226 C3224 1.381 . S
C3226 C3227 1.394 . S
C3226 H3234 0.930 . S
C3227 C3226 1.394 . S
C3227 C3228 1.383 . S
C3227 H3235 0.929 . S
C3228 C3227 1.383 . S
C3228 C3229 1.377 . S
C3229 H3213 0.930 . S
C3229 C3228 1.377 . S
C3229 C3230 1.379 . S
C3230 H3214 0.931 . S
C3230 C3224 1.383 . S
C3230 C3229 1.379 . S
H3231 C3225 0.959 . S
H3232 C3225 0.961 . S
H3233 C3225 0.960 . S
H3234 C3226 0.930 . S
H3235 C3227 0.929 . S
H3236 C3244 0.929 . S
H3237 C3246 0.930 . S
H3238 C3248 0.930 . S
H3239 C3251 0.929 . S
H3240 C3254 0.930 . S
H3241 C3256 0.960 . S
H3242 C3256 0.960 . S
H3243 C3256 0.960 . S
C3244 H3236 0.929 . S
C3244 C3245 1.377 . S
C3244 C3246 1.384 . S
C3245 C3244 1.377 . S
C3245 C3251 1.390 . S
C3246 H3237 0.930 . S
C3246 C3244 1.384 . S
C3246 C3247 1.372 . S
C3247 C3246 1.372 . S
C3247 C3248 1.400 . S
C3247 C3252 1.490 . S
C3248 H3238 0.930 . S
C3248 C3247 1.400 . S
C3248 C3251 1.386 . S
H3249 C3265 0.930 . S
H3250 C3266 0.931 . S
C3251 H3239 0.929 . S
C3251 C3245 1.390 . S
C3251 C3248 1.386 . S
C3252 C3247 1.490 . S
C3252 C3254 1.395 . S
C3252 C3255 1.403 . S
H3253 C3259 0.930 . S
C3254 H3240 0.930 . S
C3254 C3252 1.395 . S
C3254 C3257 1.403 . S
C3255 C3252 1.403 . S
C3255 C3256 1.524 . S
C3255 C3259 1.400 . S
C3256 H3241 0.960 . S
C3256 H3242 0.960 . S
C3256 H3243 0.960 . S
C3256 C3255 1.524 . S
C3257 C3254 1.403 . S
C3257 C3258 1.392 . S
C3257 C3261 1.495 . S
C3258 C3257 1.392 . S
C3258 C3259 1.385 . S
C3258 C3260 1.478 . S
C3259 H3253 0.930 . S
C3259 C3255 1.400 . S
C3259 C3258 1.385 . S
C3260 C3258 1.478 . S
C3260 C3262 1.381 . S
C3260 C3266 1.383 . S
C3261 C3257 1.495 . S
C3261 H3267 0.959 . S
C3261 H3268 0.961 . S
C3261 H3269 0.960 . S
C3262 C3260 1.381 . S
C3262 C3263 1.394 . S
C3262 H3270 0.930 . S
C3263 C3262 1.394 . S
C3263 C3264 1.383 . S
C3263 H3271 0.929 . S
C3264 C3263 1.383 . S
C3264 C3265 1.377 . S
C3265 H3249 0.930 . S
C3265 C3264 1.377 . S
C3265 C3266 1.379 . S
C3266 H3250 0.931 . S
C3266 C3260 1.383 . S
C3266 C3265 1.379 . S
H3267 C3261 0.959 . S
H3268 C3261 0.961 . S
H3269 C3261 0.960 . S
H3270 C3262 0.930 . S
H3271 C3263 0.929 . S
H3272 C3280 0.929 . S
H3273 C3282 0.930 . S
H3274 C3284 0.930 . S
H3275 C3287 0.929 . S
H3276 C3290 0.930 . S
H3277 C3292 0.960 . S
H3278 C3292 0.960 . S
H3279 C3292 0.960 . S
C3280 H3272 0.929 . S
C3280 C3281 1.377 . S
C3280 C3282 1.384 . S
C3281 C3280 1.377 . S
C3281 C3287 1.390 . S
C3282 H3273 0.930 . S
C3282 C3280 1.384 . S
C3282 C3283 1.372 . S
C3283 C3282 1.372 . S
C3283 C3284 1.400 . S
C3283 C3288 1.490 . S
C3284 H3274 0.930 . S
C3284 C3283 1.400 . S
C3284 C3287 1.386 . S
H3285 C3301 0.930 . S
H3286 C3302 0.931 . S
C3287 H3275 0.929 . S
C3287 C3281 1.390 . S
C3287 C3284 1.386 . S
C3288 C3283 1.490 . S
C3288 C3290 1.395 . S
C3288 C3291 1.403 . S
H3289 C3295 0.930 . S
C3290 H3276 0.930 . S
C3290 C3288 1.395 . S
C3290 C3293 1.403 . S
C3291 C3288 1.403 . S
C3291 C3292 1.524 . S
C3291 C3295 1.400 . S
C3292 H3277 0.960 . S
C3292 H3278 0.960 . S
C3292 H3279 0.960 . S
C3292 C3291 1.524 . S
C3293 C3290 1.403 . S
C3293 C3294 1.392 . S
C3293 C3297 1.495 . S
C3294 C3293 1.392 . S
C3294 C3295 1.385 . S
C3294 C3296 1.478 . S
C3295 H3289 0.930 . S
C3295 C3291 1.400 . S
C3295 C3294 1.385 . S
C3296 C3294 1.478 . S
C3296 C3298 1.381 . S
C3296 C3302 1.383 . S
C3297 C3293 1.495 . S
C3297 H3303 0.959 . S
C3297 H3304 0.961 . S
C3297 H3305 0.960 . S
C3298 C3296 1.381 . S
C3298 C3299 1.394 . S
C3298 H3306 0.930 . S
C3299 C3298 1.394 . S
C3299 C3300 1.383 . S
C3299 H3307 0.929 . S
C3300 C3299 1.383 . S
C3300 C3301 1.377 . S
C3301 H3285 0.930 . S
C3301 C3300 1.377 . S
C3301 C3302 1.379 . S
C3302 H3286 0.931 . S
C3302 C3296 1.383 . S
C3302 C3301 1.379 . S
H3303 C3297 0.959 . S
H3304 C3297 0.961 . S
H3305 C3297 0.960 . S
H3306 C3298 0.930 . S
H3307 C3299 0.929 . S
H3308 C3316 0.929 . S
H3309 C3318 0.930 . S
H3310 C3320 0.930 . S
H3311 C3323 0.929 . S
H3312 C3326 0.930 . S
H3313 C3328 0.960 . S
H3314 C3328 0.960 . S
H3315 C3328 0.960 . S
C3316 H3308 0.929 . S
C3316 C3317 1.377 . S
C3316 C3318 1.384 . S
C3317 C3316 1.377 . S
C3317 C3323 1.390 . S
C3318 H3309 0.930 . S
C3318 C3316 1.384 . S
C3318 C3319 1.372 . S
C3319 C3318 1.372 . S
C3319 C3320 1.400 . S
C3319 C3324 1.490 . S
C3320 H3310 0.930 . S
C3320 C3319 1.400 . S
C3320 C3323 1.386 . S
H3321 C3337 0.930 . S
H3322 C3338 0.931 . S
C3323 H3311 0.929 . S
C3323 C3317 1.390 . S
C3323 C3320 1.386 . S
C3324 C3319 1.490 . S
C3324 C3326 1.395 . S
C3324 C3327 1.403 . S
H3325 C3331 0.930 . S
C3326 H3312 0.930 . S
C3326 C3324 1.395 . S
C3326 C3329 1.403 . S
C3327 C3324 1.403 . S
C3327 C3328 1.524 . S
C3327 C3331 1.400 . S
C3328 H3313 0.960 . S
C3328 H3314 0.960 . S
C3328 H3315 0.960 . S
C3328 C3327 1.524 . S
C3329 C3326 1.403 . S
C3329 C3330 1.392 . S
C3329 C3333 1.495 . S
C3330 C3329 1.392 . S
C3330 C3331 1.385 . S
C3330 C3332 1.478 . S
C3331 H3325 0.930 . S
C3331 C3327 1.400 . S
C3331 C3330 1.385 . S
C3332 C3330 1.478 . S
C3332 C3334 1.381 . S
C3332 C3338 1.383 . S
C3333 C3329 1.495 . S
C3333 H3339 0.959 . S
C3333 H3340 0.961 . S
C3333 H3341 0.960 . S
C3334 C3332 1.381 . S
C3334 C3335 1.394 . S
C3334 H3342 0.930 . S
C3335 C3334 1.394 . S
C3335 C3336 1.383 . S
C3335 H3343 0.929 . S
C3336 C3335 1.383 . S
C3336 C3337 1.377 . S
C3337 H3321 0.930 . S
C3337 C3336 1.377 . S
C3337 C3338 1.379 . S
C3338 H3322 0.931 . S
C3338 C3332 1.383 . S
C3338 C3337 1.379 . S
H3339 C3333 0.959 . S
H3340 C3333 0.961 . S
H3341 C3333 0.960 . S
H3342 C3334 0.930 . S
H3343 C3335 0.929 . S
H3344 C3352 0.929 . S
H3345 C3354 0.930 . S
H3346 C3356 0.930 . S
H3347 C3359 0.929 . S
H3348 C3362 0.930 . S
H3349 C3364 0.960 . S
H3350 C3364 0.960 . S
H3351 C3364 0.960 . S
C3352 H3344 0.929 . S
C3352 C3353 1.377 . S
C3352 C3354 1.384 . S
C3353 C3352 1.377 . S
C3353 C3359 1.390 . S
C3354 H3345 0.930 . S
C3354 C3352 1.384 . S
C3354 C3355 1.372 . S
C3355 C3354 1.372 . S
C3355 C3356 1.400 . S
C3355 C3360 1.490 . S
C3356 H3346 0.930 . S
C3356 C3355 1.400 . S
C3356 C3359 1.386 . S
H3357 C3373 0.930 . S
H3358 C3374 0.931 . S
C3359 H3347 0.929 . S
C3359 C3353 1.390 . S
C3359 C3356 1.386 . S
C3360 C3355 1.490 . S
C3360 C3362 1.395 . S
C3360 C3363 1.403 . S
H3361 C3367 0.930 . S
C3362 H3348 0.930 . S
C3362 C3360 1.395 . S
C3362 C3365 1.403 . S
C3363 C3360 1.403 . S
C3363 C3364 1.524 . S
C3363 C3367 1.400 . S
C3364 H3349 0.960 . S
C3364 H3350 0.960 . S
C3364 H3351 0.960 . S
C3364 C3363 1.524 . S
C3365 C3362 1.403 . S
C3365 C3366 1.392 . S
C3365 C3369 1.495 . S
C3366 C3365 1.392 . S
C3366 C3367 1.385 . S
C3366 C3368 1.478 . S
C3367 H3361 0.930 . S
C3367 C3363 1.400 . S
C3367 C3366 1.385 . S
C3368 C3366 1.478 . S
C3368 C3370 1.381 . S
C3368 C3374 1.383 . S
C3369 C3365 1.495 . S
C3369 H3375 0.959 . S
C3369 H3376 0.961 . S
C3369 H3377 0.960 . S
C3370 C3368 1.381 . S
C3370 C3371 1.394 . S
C3370 H3378 0.930 . S
C3371 C3370 1.394 . S
C3371 C3372 1.383 . S
C3371 H3379 0.929 . S
C3372 C3371 1.383 . S
C3372 C3373 1.377 . S
C3373 H3357 0.930 . S
C3373 C3372 1.377 . S
C3373 C3374 1.379 . S
C3374 H3358 0.931 . S
C3374 C3368 1.383 . S
C3374 C3373 1.379 . S
H3375 C3369 0.959 . S
H3376 C3369 0.961 . S
H3377 C3369 0.960 . S
H3378 C3370 0.930 . S
H3379 C3371 0.929 . S
H3380 C3388 0.929 . S
H3381 C3390 0.930 . S
H3382 C3392 0.930 . S
H3383 C3395 0.929 . S
H3384 C3398 0.930 . S
H3385 C3400 0.960 . S
H3386 C3400 0.960 . S
H3387 C3400 0.960 . S
C3388 H3380 0.929 . S
C3388 C3389 1.377 . S
C3388 C3390 1.384 . S
C3389 C3388 1.377 . S
C3389 C3395 1.390 . S
C3390 H3381 0.930 . S
C3390 C3388 1.384 . S
C3390 C3391 1.372 . S
C3391 C3390 1.372 . S
C3391 C3392 1.400 . S
C3391 C3396 1.490 . S
C3392 H3382 0.930 . S
C3392 C3391 1.400 . S
C3392 C3395 1.386 . S
H3393 C3409 0.930 . S
H3394 C3410 0.931 . S
C3395 H3383 0.929 . S
C3395 C3389 1.390 . S
C3395 C3392 1.386 . S
C3396 C3391 1.490 . S
C3396 C3398 1.395 . S
C3396 C3399 1.403 . S
H3397 C3403 0.930 . S
C3398 H3384 0.930 . S
C3398 C3396 1.395 . S
C3398 C3401 1.403 . S
C3399 C3396 1.403 . S
C3399 C3400 1.524 . S
C3399 C3403 1.400 . S
C3400 H3385 0.960 . S
C3400 H3386 0.960 . S
C3400 H3387 0.960 . S
C3400 C3399 1.524 . S
C3401 C3398 1.403 . S
C3401 C3402 1.392 . S
C3401 C3405 1.495 . S
C3402 C3401 1.392 . S
C3402 C3403 1.385 . S
C3402 C3404 1.478 . S
C3403 H3397 0.930 . S
C3403 C3399 1.400 . S
C3403 C3402 1.385 . S
C3404 C3402 1.478 . S
C3404 C3406 1.381 . S
C3404 C3410 1.383 . S
C3405 C3401 1.495 . S
C3405 H3411 0.959 . S
C3405 H3412 0.961 . S
C3405 H3413 0.960 . S
C3406 C3404 1.381 . S
C3406 C3407 1.394 . S
C3406 H3414 0.930 . S
C3407 C3406 1.394 . S
C3407 C3408 1.383 . S
C3407 H3415 0.929 . S
C3408 C3407 1.383 . S
C3408 C3409 1.377 . S
C3409 H3393 0.930 . S
C3409 C3408 1.377 . S
C3409 C3410 1.379 . S
C3410 H3394 0.931 . S
C3410 C3404 1.383 . S
C3410 C3409 1.379 . S
H3411 C3405 0.959 . S
H3412 C3405 0.961 . S
H3413 C3405 0.960 . S
H3414 C3406 0.930 . S
H3415 C3407 0.929 . S
H3416 C3424 0.929 . S
H3417 C3426 0.930 . S
H3418 C3428 0.930 . S
H3419 C3431 0.929 . S
H3420 C3434 0.930 . S
H3421 C3436 0.960 . S
H3422 C3436 0.960 . S
H3423 C3436 0.960 . S
C3424 H3416 0.929 . S
C3424 C3425 1.377 . S
C3424 C3426 1.384 . S
C3425 C3424 1.377 . S
C3425 C3431 1.390 . S
C3426 H3417 0.930 . S
C3426 C3424 1.384 . S
C3426 C3427 1.372 . S
C3427 C3426 1.372 . S
C3427 C3428 1.400 . S
C3427 C3432 1.490 . S
C3428 H3418 0.930 . S
C3428 C3427 1.400 . S
C3428 C3431 1.386 . S
H3429 C3445 0.930 . S
H3430 C3446 0.931 . S
C3431 H3419 0.929 . S
C3431 C3425 1.390 . S
C3431 C3428 1.386 . S
C3432 C3427 1.490 . S
C3432 C3434 1.395 . S
C3432 C3435 1.403 . S
H3433 C3439 0.930 . S
C3434 H3420 0.930 . S
C3434 C3432 1.395 . S
C3434 C3437 1.403 . S
C3435 C3432 1.403 . S
C3435 C3436 1.524 . S
C3435 C3439 1.400 . S
C3436 H3421 0.960 . S
C3436 H3422 0.960 . S
C3436 H3423 0.960 . S
C3436 C3435 1.524 . S
C3437 C3434 1.403 . S
C3437 C3438 1.392 . S
C3437 C3441 1.495 . S
C3438 C3437 1.392 . S
C3438 C3439 1.385 . S
C3438 C3440 1.478 . S
C3439 H3433 0.930 . S
C3439 C3435 1.400 . S
C3439 C3438 1.385 . S
C3440 C3438 1.478 . S
C3440 C3442 1.381 . S
C3440 C3446 1.383 . S
C3441 C3437 1.495 . S
C3441 H3447 0.959 . S
C3441 H3448 0.961 . S
C3441 H3449 0.960 . S
C3442 C3440 1.381 . S
C3442 C3443 1.394 . S
C3442 H3450 0.930 . S
C3443 C3442 1.394 . S
C3443 C3444 1.383 . S
C3443 H3451 0.929 . S
C3444 C3443 1.383 . S
C3444 C3445 1.377 . S
C3445 H3429 0.930 . S
C3445 C3444 1.377 . S
C3445 C3446 1.379 . S
C3446 H3430 0.931 . S
C3446 C3440 1.383 . S
C3446 C3445 1.379 . S
H3447 C3441 0.959 . S
H3448 C3441 0.961 . S
H3449 C3441 0.960 . S
H3450 C3442 0.930 . S
H3451 C3443 0.929 . S
H3452 C3460 0.929 . S
H3453 C3462 0.930 . S
H3454 C3464 0.930 . S
H3455 C3467 0.929 . S
H3456 C3470 0.930 . S
H3457 C3472 0.960 . S
H3458 C3472 0.960 . S
H3459 C3472 0.960 . S
C3460 H3452 0.929 . S
C3460 C3461 1.377 . S
C3460 C3462 1.384 . S
C3461 C3460 1.377 . S
C3461 C3467 1.390 . S
C3462 H3453 0.930 . S
C3462 C3460 1.384 . S
C3462 C3463 1.372 . S
C3463 C3462 1.372 . S
C3463 C3464 1.400 . S
C3463 C3468 1.490 . S
C3464 H3454 0.930 . S
C3464 C3463 1.400 . S
C3464 C3467 1.386 . S
H3465 C3481 0.930 . S
H3466 C3482 0.931 . S
C3467 H3455 0.929 . S
C3467 C3461 1.390 . S
C3467 C3464 1.386 . S
C3468 C3463 1.490 . S
C3468 C3470 1.395 . S
C3468 C3471 1.403 . S
H3469 C3475 0.930 . S
C3470 H3456 0.930 . S
C3470 C3468 1.395 . S
C3470 C3473 1.403 . S
C3471 C3468 1.403 . S
C3471 C3472 1.524 . S
C3471 C3475 1.400 . S
C3472 H3457 0.960 . S
C3472 H3458 0.960 . S
C3472 H3459 0.960 . S
C3472 C3471 1.524 . S
C3473 C3470 1.403 . S
C3473 C3474 1.392 . S
C3473 C3477 1.495 . S
C3474 C3473 1.392 . S
C3474 C3475 1.385 . S
C3474 C3476 1.478 . S
C3475 H3469 0.930 . S
C3475 C3471 1.400 . S
C3475 C3474 1.385 . S
C3476 C3474 1.478 . S
C3476 C3478 1.381 . S
C3476 C3482 1.383 . S
C3477 C3473 1.495 . S
C3477 H3483 0.959 . S
C3477 H3484 0.961 . S
C3477 H3485 0.960 . S
C3478 C3476 1.381 . S
C3478 C3479 1.394 . S
C3478 H3486 0.930 . S
C3479 C3478 1.394 . S
C3479 C3480 1.383 . S
C3479 H3487 0.929 . S
C3480 C3479 1.383 . S
C3480 C3481 1.377 . S
C3481 H3465 0.930 . S
C3481 C3480 1.377 . S
C3481 C3482 1.379 . S
C3482 H3466 0.931 . S
C3482 C3476 1.383 . S
C3482 C3481 1.379 . S
H3483 C3477 0.959 . S
H3484 C3477 0.961 . S
H3485 C3477 0.960 . S
H3486 C3478 0.930 . S
H3487 C3479 0.929 . S
H3488 C3496 0.929 . S
H3489 C3498 0.930 . S
H3490 C3500 0.930 . S
H3491 C3503 0.929 . S
H3492 C3506 0.930 . S
H3493 C3508 0.960 . S
H3494 C3508 0.960 . S
H3495 C3508 0.960 . S
C3496 H3488 0.929 . S
C3496 C3497 1.377 . S
C3496 C3498 1.384 . S
C3497 C3496 1.377 . S
C3497 C3503 1.390 . S
C3498 H3489 0.930 . S
C3498 C3496 1.384 . S
C3498 C3499 1.372 . S
C3499 C3498 1.372 . S
C3499 C3500 1.400 . S
C3499 C3504 1.490 . S
C3500 H3490 0.930 . S
C3500 C3499 1.400 . S
C3500 C3503 1.386 . S
H3501 C3517 0.930 . S
H3502 C3518 0.931 . S
C3503 H3491 0.929 . S
C3503 C3497 1.390 . S
C3503 C3500 1.386 . S
C3504 C3499 1.490 . S
C3504 C3506 1.395 . S
C3504 C3507 1.403 . S
H3505 C3511 0.930 . S
C3506 H3492 0.930 . S
C3506 C3504 1.395 . S
C3506 C3509 1.403 . S
C3507 C3504 1.403 . S
C3507 C3508 1.524 . S
C3507 C3511 1.400 . S
C3508 H3493 0.960 . S
C3508 H3494 0.960 . S
C3508 H3495 0.960 . S
C3508 C3507 1.524 . S
C3509 C3506 1.403 . S
C3509 C3510 1.392 . S
C3509 C3513 1.495 . S
C3510 C3509 1.392 . S
C3510 C3511 1.385 . S
C3510 C3512 1.478 . S
C3511 H3505 0.930 . S
C3511 C3507 1.400 . S
C3511 C3510 1.385 . S
C3512 C3510 1.478 . S
C3512 C3514 1.381 . S
C3512 C3518 1.383 . S
C3513 C3509 1.495 . S
C3513 H3519 0.959 . S
C3513 H3520 0.961 . S
C3513 H3521 0.960 . S
C3514 C3512 1.381 . S
C3514 C3515 1.394 . S
C3514 H3522 0.930 . S
C3515 C3514 1.394 . S
C3515 C3516 1.383 . S
C3515 H3523 0.929 . S
C3516 C3515 1.383 . S
C3516 C3517 1.377 . S
C3517 H3501 0.930 . S
C3517 C3516 1.377 . S
C3517 C3518 1.379 . S
C3518 H3502 0.931 . S
C3518 C3512 1.383 . S
C3518 C3517 1.379 . S
H3519 C3513 0.959 . S
H3520 C3513 0.961 . S
H3521 C3513 0.960 . S
H3522 C3514 0.930 . S
H3523 C3515 0.929 . S
H3524 C3532 0.929 . S
H3525 C3534 0.930 . S
H3526 C3536 0.930 . S
H3527 C3539 0.929 . S
H3528 C3542 0.930 . S
H3529 C3544 0.960 . S
H3530 C3544 0.960 . S
H3531 C3544 0.960 . S
C3532 H3524 0.929 . S
C3532 C3533 1.377 . S
C3532 C3534 1.384 . S
C3533 C3532 1.377 . S
C3533 C3539 1.390 . S
C3534 H3525 0.930 . S
C3534 C3532 1.384 . S
C3534 C3535 1.372 . S
C3535 C3534 1.372 . S
C3535 C3536 1.400 . S
C3535 C3540 1.490 . S
C3536 H3526 0.930 . S
C3536 C3535 1.400 . S
C3536 C3539 1.386 . S
H3537 C3553 0.930 . S
H3538 C3554 0.931 . S
C3539 H3527 0.929 . S
C3539 C3533 1.390 . S
C3539 C3536 1.386 . S
C3540 C3535 1.490 . S
C3540 C3542 1.395 . S
C3540 C3543 1.403 . S
H3541 C3547 0.930 . S
C3542 H3528 0.930 . S
C3542 C3540 1.395 . S
C3542 C3545 1.403 . S
C3543 C3540 1.403 . S
C3543 C3544 1.524 . S
C3543 C3547 1.400 . S
C3544 H3529 0.960 . S
C3544 H3530 0.960 . S
C3544 H3531 0.960 . S
C3544 C3543 1.524 . S
C3545 C3542 1.403 . S
C3545 C3546 1.392 . S
C3545 C3549 1.495 . S
C3546 C3545 1.392 . S
C3546 C3547 1.385 . S
C3546 C3548 1.478 . S
C3547 H3541 0.930 . S
C3547 C3543 1.400 . S
C3547 C3546 1.385 . S
C3548 C3546 1.478 . S
C3548 C3550 1.381 . S
C3548 C3554 1.383 . S
C3549 C3545 1.495 . S
C3549 H3555 0.959 . S
C3549 H3556 0.961 . S
C3549 H3557 0.960 . S
C3550 C3548 1.381 . S
C3550 C3551 1.394 . S
C3550 H3558 0.930 . S
C3551 C3550 1.394 . S
C3551 C3552 1.383 . S
C3551 H3559 0.929 . S
C3552 C3551 1.383 . S
C3552 C3553 1.377 . S
C3553 H3537 0.930 . S
C3553 C3552 1.377 . S
C3553 C3554 1.379 . S
C3554 H3538 0.931 . S
C3554 C3548 1.383 . S
C3554 C3553 1.379 . S
H3555 C3549 0.959 . S
H3556 C3549 0.961 . S
H3557 C3549 0.960 . S
H3558 C3550 0.930 . S
H3559 C3551 0.929 . S
H3560 C3568 0.929 . S
H3561 C3570 0.930 . S
H3562 C3572 0.930 . S
H3563 C3575 0.929 . S
H3564 C3578 0.930 . S
H3565 C3580 0.960 . S
H3566 C3580 0.960 . S
H3567 C3580 0.960 . S
C3568 H3560 0.929 . S
C3568 C3569 1.377 . S
C3568 C3570 1.384 . S
C3569 C3568 1.377 . S
C3569 C3575 1.390 . S
C3570 H3561 0.930 . S
C3570 C3568 1.384 . S
C3570 C3571 1.372 . S
C3571 C3570 1.372 . S
C3571 C3572 1.400 . S
C3571 C3576 1.490 . S
C3572 H3562 0.930 . S
C3572 C3571 1.400 . S
C3572 C3575 1.386 . S
H3573 C3589 0.930 . S
H3574 C3590 0.931 . S
C3575 H3563 0.929 . S
C3575 C3569 1.390 . S
C3575 C3572 1.386 . S
C3576 C3571 1.490 . S
C3576 C3578 1.395 . S
C3576 C3579 1.403 . S
H3577 C3583 0.930 . S
C3578 H3564 0.930 . S
C3578 C3576 1.395 . S
C3578 C3581 1.403 . S
C3579 C3576 1.403 . S
C3579 C3580 1.524 . S
C3579 C3583 1.400 . S
C3580 H3565 0.960 . S
C3580 H3566 0.960 . S
C3580 H3567 0.960 . S
C3580 C3579 1.524 . S
C3581 C3578 1.403 . S
C3581 C3582 1.392 . S
C3581 C3585 1.495 . S
C3582 C3581 1.392 . S
C3582 C3583 1.385 . S
C3582 C3584 1.478 . S
C3583 H3577 0.930 . S
C3583 C3579 1.400 . S
C3583 C3582 1.385 . S
C3584 C3582 1.478 . S
C3584 C3586 1.381 . S
C3584 C3590 1.383 . S
C3585 C3581 1.495 . S
C3585 H3591 0.959 . S
C3585 H3592 0.961 . S
C3585 H3593 0.960 . S
C3586 C3584 1.381 . S
C3586 C3587 1.394 . S
C3586 H3594 0.930 . S
C3587 C3586 1.394 . S
C3587 C3588 1.383 . S
C3587 H3595 0.929 . S
C3588 C3587 1.383 . S
C3588 C3589 1.377 . S
C3589 H3573 0.930 . S
C3589 C3588 1.377 . S
C3589 C3590 1.379 . S
C3590 H3574 0.931 . S
C3590 C3584 1.383 . S
C3590 C3589 1.379 . S
H3591 C3585 0.959 . S
H3592 C3585 0.961 . S
H3593 C3585 0.960 . S
H3594 C3586 0.930 . S
H3595 C3587 0.929 . S
H3596 C3604 0.929 . S
H3597 C3606 0.930 . S
H3598 C3608 0.930 . S
H3599 C3611 0.929 . S
H3600 C3614 0.930 . S
H3601 C3616 0.960 . S
H3602 C3616 0.960 . S
H3603 C3616 0.960 . S
C3604 H3596 0.929 . S
C3604 C3605 1.377 . S
C3604 C3606 1.384 . S
C3605 C3604 1.377 . S
C3605 C3611 1.390 . S
C3606 H3597 0.930 . S
C3606 C3604 1.384 . S
C3606 C3607 1.372 . S
C3607 C3606 1.372 . S
C3607 C3608 1.400 . S
C3607 C3612 1.490 . S
C3608 H3598 0.930 . S
C3608 C3607 1.400 . S
C3608 C3611 1.386 . S
H3609 C3625 0.930 . S
H3610 C3626 0.931 . S
C3611 H3599 0.929 . S
C3611 C3605 1.390 . S
C3611 C3608 1.386 . S
C3612 C3607 1.490 . S
C3612 C3614 1.395 . S
C3612 C3615 1.403 . S
H3613 C3619 0.930 . S
C3614 H3600 0.930 . S
C3614 C3612 1.395 . S
C3614 C3617 1.403 . S
C3615 C3612 1.403 . S
C3615 C3616 1.524 . S
C3615 C3619 1.400 . S
C3616 H3601 0.960 . S
C3616 H3602 0.960 . S
C3616 H3603 0.960 . S
C3616 C3615 1.524 . S
C3617 C3614 1.403 . S
C3617 C3618 1.392 . S
C3617 C3621 1.495 . S
C3618 C3617 1.392 . S
C3618 C3619 1.385 . S
C3618 C3620 1.478 . S
C3619 H3613 0.930 . S
C3619 C3615 1.400 . S
C3619 C3618 1.385 . S
C3620 C3618 1.478 . S
C3620 C3622 1.381 . S
C3620 C3626 1.383 . S
C3621 C3617 1.495 . S
C3621 H3627 0.959 . S
C3621 H3628 0.961 . S
C3621 H3629 0.960 . S
C3622 C3620 1.381 . S
C3622 C3623 1.394 . S
C3622 H3630 0.930 . S
C3623 C3622 1.394 . S
C3623 C3624 1.383 . S
C3623 H3631 0.929 . S
C3624 C3623 1.383 . S
C3624 C3625 1.377 . S
C3625 H3609 0.930 . S
C3625 C3624 1.377 . S
C3625 C3626 1.379 . S
C3626 H3610 0.931 . S
C3626 C3620 1.383 . S
C3626 C3625 1.379 . S
H3627 C3621 0.959 . S
H3628 C3621 0.961 . S
H3629 C3621 0.960 . S
H3630 C3622 0.930 . S
H3631 C3623 0.929 . S
H3632 C3640 0.929 . S
H3633 C3642 0.930 . S
H3634 C3644 0.930 . S
H3635 C3647 0.929 . S
H3636 C3650 0.930 . S
H3637 C3652 0.960 . S
H3638 C3652 0.960 . S
H3639 C3652 0.960 . S
C3640 H3632 0.929 . S
C3640 C3641 1.377 . S
C3640 C3642 1.384 . S
C3641 C3640 1.377 . S
C3641 C3647 1.390 . S
C3642 H3633 0.930 . S
C3642 C3640 1.384 . S
C3642 C3643 1.372 . S
C3643 C3642 1.372 . S
C3643 C3644 1.400 . S
C3643 C3648 1.490 . S
C3644 H3634 0.930 . S
C3644 C3643 1.400 . S
C3644 C3647 1.386 . S
H3645 C3661 0.930 . S
H3646 C3662 0.931 . S
C3647 H3635 0.929 . S
C3647 C3641 1.390 . S
C3647 C3644 1.386 . S
C3648 C3643 1.490 . S
C3648 C3650 1.395 . S
C3648 C3651 1.403 . S
H3649 C3655 0.930 . S
C3650 H3636 0.930 . S
C3650 C3648 1.395 . S
C3650 C3653 1.403 . S
C3651 C3648 1.403 . S
C3651 C3652 1.524 . S
C3651 C3655 1.400 . S
C3652 H3637 0.960 . S
C3652 H3638 0.960 . S
C3652 H3639 0.960 . S
C3652 C3651 1.524 . S
C3653 C3650 1.403 . S
C3653 C3654 1.392 . S
C3653 C3657 1.495 . S
C3654 C3653 1.392 . S
C3654 C3655 1.385 . S
C3654 C3656 1.478 . S
C3655 H3649 0.930 . S
C3655 C3651 1.400 . S
C3655 C3654 1.385 . S
C3656 C3654 1.478 . S
C3656 C3658 1.381 . S
C3656 C3662 1.383 . S
C3657 C3653 1.495 . S
C3657 H3663 0.959 . S
C3657 H3664 0.961 . S
C3657 H3665 0.960 . S
C3658 C3656 1.381 . S
C3658 C3659 1.394 . S
C3658 H3666 0.930 . S
C3659 C3658 1.394 . S
C3659 C3660 1.383 . S
C3659 H3667 0.929 . S
C3660 C3659 1.383 . S
C3660 C3661 1.377 . S
C3661 H3645 0.930 . S
C3661 C3660 1.377 . S
C3661 C3662 1.379 . S
C3662 H3646 0.931 . S
C3662 C3656 1.383 . S
C3662 C3661 1.379 . S
H3663 C3657 0.959 . S
H3664 C3657 0.961 . S
H3665 C3657 0.960 . S
H3666 C3658 0.930 . S
H3667 C3659 0.929 . S
H3668 C3676 0.929 . S
H3669 C3678 0.930 . S
H3670 C3680 0.930 . S
H3671 C3683 0.929 . S
H3672 C3686 0.930 . S
H3673 C3688 0.960 . S
H3674 C3688 0.960 . S
H3675 C3688 0.960 . S
C3676 H3668 0.929 . S
C3676 C3677 1.377 . S
C3676 C3678 1.384 . S
C3677 C3676 1.377 . S
C3677 C3683 1.390 . S
C3678 H3669 0.930 . S
C3678 C3676 1.384 . S
C3678 C3679 1.372 . S
C3679 C3678 1.372 . S
C3679 C3680 1.400 . S
C3679 C3684 1.490 . S
C3680 H3670 0.930 . S
C3680 C3679 1.400 . S
C3680 C3683 1.386 . S
H3681 C3697 0.930 . S
H3682 C3698 0.931 . S
C3683 H3671 0.929 . S
C3683 C3677 1.390 . S
C3683 C3680 1.386 . S
C3684 C3679 1.490 . S
C3684 C3686 1.395 . S
C3684 C3687 1.403 . S
H3685 C3691 0.930 . S
C3686 H3672 0.930 . S
C3686 C3684 1.395 . S
C3686 C3689 1.403 . S
C3687 C3684 1.403 . S
C3687 C3688 1.524 . S
C3687 C3691 1.400 . S
C3688 H3673 0.960 . S
C3688 H3674 0.960 . S
C3688 H3675 0.960 . S
C3688 C3687 1.524 . S
C3689 C3686 1.403 . S
C3689 C3690 1.392 . S
C3689 C3693 1.495 . S
C3690 C3689 1.392 . S
C3690 C3691 1.385 . S
C3690 C3692 1.478 . S
C3691 H3685 0.930 . S
C3691 C3687 1.400 . S
C3691 C3690 1.385 . S
C3692 C3690 1.478 . S
C3692 C3694 1.381 . S
C3692 C3698 1.383 . S
C3693 C3689 1.495 . S
C3693 H3699 0.959 . S
C3693 H3700 0.961 . S
C3693 H3701 0.960 . S
C3694 C3692 1.381 . S
C3694 C3695 1.394 . S
C3694 H3702 0.930 . S
C3695 C3694 1.394 . S
C3695 C3696 1.383 . S
C3695 H3703 0.929 . S
C3696 C3695 1.383 . S
C3696 C3697 1.377 . S
C3697 H3681 0.930 . S
C3697 C3696 1.377 . S
C3697 C3698 1.379 . S
C3698 H3682 0.931 . S
C3698 C3692 1.383 . S
C3698 C3697 1.379 . S
H3699 C3693 0.959 . S
H3700 C3693 0.961 . S
H3701 C3693 0.960 . S
H3702 C3694 0.930 . S
H3703 C3695 0.929 . S
H3704 C3712 0.929 . S
H3705 C3714 0.930 . S
H3706 C3716 0.930 . S
H3707 C3719 0.929 . S
H3708 C3722 0.930 . S
H3709 C3724 0.960 . S
H3710 C3724 0.960 . S
H3711 C3724 0.960 . S
C3712 H3704 0.929 . S
C3712 C3713 1.377 . S
C3712 C3714 1.384 . S
C3713 C3712 1.377 . S
C3713 C3719 1.390 . S
C3714 H3705 0.930 . S
C3714 C3712 1.384 . S
C3714 C3715 1.372 . S
C3715 C3714 1.372 . S
C3715 C3716 1.400 . S
C3715 C3720 1.490 . S
C3716 H3706 0.930 . S
C3716 C3715 1.400 . S
C3716 C3719 1.386 . S
H3717 C3733 0.930 . S
H3718 C3734 0.931 . S
C3719 H3707 0.929 . S
C3719 C3713 1.390 . S
C3719 C3716 1.386 . S
C3720 C3715 1.490 . S
C3720 C3722 1.395 . S
C3720 C3723 1.403 . S
H3721 C3727 0.930 . S
C3722 H3708 0.930 . S
C3722 C3720 1.395 . S
C3722 C3725 1.403 . S
C3723 C3720 1.403 . S
C3723 C3724 1.524 . S
C3723 C3727 1.400 . S
C3724 H3709 0.960 . S
C3724 H3710 0.960 . S
C3724 H3711 0.960 . S
C3724 C3723 1.524 . S
C3725 C3722 1.403 . S
C3725 C3726 1.392 . S
C3725 C3729 1.495 . S
C3726 C3725 1.392 . S
C3726 C3727 1.385 . S
C3726 C3728 1.478 . S
C3727 H3721 0.930 . S
C3727 C3723 1.400 . S
C3727 C3726 1.385 . S
C3728 C3726 1.478 . S
C3728 C3730 1.381 . S
C3728 C3734 1.383 . S
C3729 C3725 1.495 . S
C3729 H3735 0.959 . S
C3729 H3736 0.961 . S
C3729 H3737 0.960 . S
C3730 C3728 1.381 . S
C3730 C3731 1.394 . S
C3730 H3738 0.930 . S
C3731 C3730 1.394 . S
C3731 C3732 1.383 . S
C3731 H3739 0.929 . S
C3732 C3731 1.383 . S
C3732 C3733 1.377 . S
C3733 H3717 0.930 . S
C3733 C3732 1.377 . S
C3733 C3734 1.379 . S
C3734 H3718 0.931 . S
C3734 C3728 1.383 . S
C3734 C3733 1.379 . S
H3735 C3729 0.959 . S
H3736 C3729 0.961 . S
H3737 C3729 0.960 . S
H3738 C3730 0.930 . S
H3739 C3731 0.929 . S
H3740 C3748 0.929 . S
H3741 C3750 0.930 . S
H3742 C3752 0.930 . S
H3743 C3755 0.929 . S
H3744 C3758 0.930 . S
H3745 C3760 0.960 . S
H3746 C3760 0.960 . S
H3747 C3760 0.960 . S
C3748 H3740 0.929 . S
C3748 C3749 1.377 . S
C3748 C3750 1.384 . S
C3749 C3748 1.377 . S
C3749 C3755 1.390 . S
C3750 H3741 0.930 . S
C3750 C3748 1.384 . S
C3750 C3751 1.372 . S
C3751 C3750 1.372 . S
C3751 C3752 1.400 . S
C3751 C3756 1.490 . S
C3752 H3742 0.930 . S
C3752 C3751 1.400 . S
C3752 C3755 1.386 . S
H3753 C3769 0.930 . S
H3754 C3770 0.931 . S
C3755 H3743 0.929 . S
C3755 C3749 1.390 . S
C3755 C3752 1.386 . S
C3756 C3751 1.490 . S
C3756 C3758 1.395 . S
C3756 C3759 1.403 . S
H3757 C3763 0.930 . S
C3758 H3744 0.930 . S
C3758 C3756 1.395 . S
C3758 C3761 1.403 . S
C3759 C3756 1.403 . S
C3759 C3760 1.524 . S
C3759 C3763 1.400 . S
C3760 H3745 0.960 . S
C3760 H3746 0.960 . S
C3760 H3747 0.960 . S
C3760 C3759 1.524 . S
C3761 C3758 1.403 . S
C3761 C3762 1.392 . S
C3761 C3765 1.495 . S
C3762 C3761 1.392 . S
C3762 C3763 1.385 . S
C3762 C3764 1.478 . S
C3763 H3757 0.930 . S
C3763 C3759 1.400 . S
C3763 C3762 1.385 . S
C3764 C3762 1.478 . S
C3764 C3766 1.381 . S
C3764 C3770 1.383 . S
C3765 C3761 1.495 . S
C3765 H3771 0.959 . S
C3765 H3772 0.961 . S
C3765 H3773 0.960 . S
C3766 C3764 1.381 . S
C3766 C3767 1.394 . S
C3766 H3774 0.930 . S
C3767 C3766 1.394 . S
C3767 C3768 1.383 . S
C3767 H3775 0.929 . S
C3768 C3767 1.383 . S
C3768 C3769 1.377 . S
C3769 H3753 0.930 . S
C3769 C3768 1.377 . S
C3769 C3770 1.379 . S
C3770 H3754 0.931 . S
C3770 C3764 1.383 . S
C3770 C3769 1.379 . S
H3771 C3765 0.959 . S
H3772 C3765 0.961 . S
H3773 C3765 0.960 . S
H3774 C3766 0.930 . S
H3775 C3767 0.929 . S
H3776 C3784 0.929 . S
H3777 C3786 0.930 . S
H3778 C3788 0.930 . S
H3779 C3791 0.929 . S
H3780 C3794 0.930 . S
H3781 C3796 0.960 . S
H3782 C3796 0.960 . S
H3783 C3796 0.960 . S
C3784 H3776 0.929 . S
C3784 C3785 1.377 . S
C3784 C3786 1.384 . S
C3785 C3784 1.377 . S
C3785 C3791 1.390 . S
C3786 H3777 0.930 . S
C3786 C3784 1.384 . S
C3786 C3787 1.372 . S
C3787 C3786 1.372 . S
C3787 C3788 1.400 . S
C3787 C3792 1.490 . S
C3788 H3778 0.930 . S
C3788 C3787 1.400 . S
C3788 C3791 1.386 . S
H3789 C3805 0.930 . S
H3790 C3806 0.931 . S
C3791 H3779 0.929 . S
C3791 C3785 1.390 . S
C3791 C3788 1.386 . S
C3792 C3787 1.490 . S
C3792 C3794 1.395 . S
C3792 C3795 1.403 . S
H3793 C3799 0.930 . S
C3794 H3780 0.930 . S
C3794 C3792 1.395 . S
C3794 C3797 1.403 . S
C3795 C3792 1.403 . S
C3795 C3796 1.524 . S
C3795 C3799 1.400 . S
C3796 H3781 0.960 . S
C3796 H3782 0.960 . S
C3796 H3783 0.960 . S
C3796 C3795 1.524 . S
C3797 C3794 1.403 . S
C3797 C3798 1.392 . S
C3797 C3801 1.495 . S
C3798 C3797 1.392 . S
C3798 C3799 1.385 . S
C3798 C3800 1.478 . S
C3799 H3793 0.930 . S
C3799 C3795 1.400 . S
C3799 C3798 1.385 . S
C3800 C3798 1.478 . S
C3800 C3802 1.381 . S
C3800 C3806 1.383 . S
C3801 C3797 1.495 . S
C3801 H3807 0.959 . S
C3801 H3808 0.961 . S
C3801 H3809 0.960 . S
C3802 C3800 1.381 . S
C3802 C3803 1.394 . S
C3802 H3810 0.930 . S
C3803 C3802 1.394 . S
C3803 C3804 1.383 . S
C3803 H3811 0.929 . S
C3804 C3803 1.383 . S
C3804 C3805 1.377 . S
C3805 H3789 0.930 . S
C3805 C3804 1.377 . S
C3805 C3806 1.379 . S
C3806 H3790 0.931 . S
C3806 C3800 1.383 . S
C3806 C3805 1.379 . S
H3807 C3801 0.959 . S
H3808 C3801 0.961 . S
H3809 C3801 0.960 . S
H3810 C3802 0.930 . S
H3811 C3803 0.929 . S
H3812 C3820 0.929 . S
H3813 C3822 0.930 . S
H3814 C3824 0.930 . S
H3815 C3827 0.929 . S
H3816 C3830 0.930 . S
H3817 C3832 0.960 . S
H3818 C3832 0.960 . S
H3819 C3832 0.960 . S
C3820 H3812 0.929 . S
C3820 C3821 1.377 . S
C3820 C3822 1.384 . S
C3821 C3820 1.377 . S
C3821 C3827 1.390 . S
C3822 H3813 0.930 . S
C3822 C3820 1.384 . S
C3822 C3823 1.372 . S
C3823 C3822 1.372 . S
C3823 C3824 1.400 . S
C3823 C3828 1.490 . S
C3824 H3814 0.930 . S
C3824 C3823 1.400 . S
C3824 C3827 1.386 . S
H3825 C3841 0.930 . S
H3826 C3842 0.931 . S
C3827 H3815 0.929 . S
C3827 C3821 1.390 . S
C3827 C3824 1.386 . S
C3828 C3823 1.490 . S
C3828 C3830 1.395 . S
C3828 C3831 1.403 . S
H3829 C3835 0.930 . S
C3830 H3816 0.930 . S
C3830 C3828 1.395 . S
C3830 C3833 1.403 . S
C3831 C3828 1.403 . S
C3831 C3832 1.524 . S
C3831 C3835 1.400 . S
C3832 H3817 0.960 . S
C3832 H3818 0.960 . S
C3832 H3819 0.960 . S
C3832 C3831 1.524 . S
C3833 C3830 1.403 . S
C3833 C3834 1.392 . S
C3833 C3837 1.495 . S
C3834 C3833 1.392 . S
C3834 C3835 1.385 . S
C3834 C3836 1.478 . S
C3835 H3829 0.930 . S
C3835 C3831 1.400 . S
C3835 C3834 1.385 . S
C3836 C3834 1.478 . S
C3836 C3838 1.381 . S
C3836 C3842 1.383 . S
C3837 C3833 1.495 . S
C3837 H3843 0.959 . S
C3837 H3844 0.961 . S
C3837 H3845 0.960 . S
C3838 C3836 1.381 . S
C3838 C3839 1.394 . S
C3838 H3846 0.930 . S
C3839 C3838 1.394 . S
C3839 C3840 1.383 . S
C3839 H3847 0.929 . S
C3840 C3839 1.383 . S
C3840 C3841 1.377 . S
C3841 H3825 0.930 . S
C3841 C3840 1.377 . S
C3841 C3842 1.379 . S
C3842 H3826 0.931 . S
C3842 C3836 1.383 . S
C3842 C3841 1.379 . S
H3843 C3837 0.959 . S
H3844 C3837 0.961 . S
H3845 C3837 0.960 . S
H3846 C3838 0.930 . S
H3847 C3839 0.929 . S
H3848 C3856 0.929 . S
H3849 C3858 0.930 . S
H3850 C3860 0.930 . S
H3851 C3863 0.929 . S
H3852 C3866 0.930 . S
H3853 C3868 0.960 . S
H3854 C3868 0.960 . S
H3855 C3868 0.960 . S
C3856 H3848 0.929 . S
C3856 C3857 1.377 . S
C3856 C3858 1.384 . S
C3857 C3856 1.377 . S
C3857 C3863 1.390 . S
C3858 H3849 0.930 . S
C3858 C3856 1.384 . S
C3858 C3859 1.372 . S
C3859 C3858 1.372 . S
C3859 C3860 1.400 . S
C3859 C3864 1.490 . S
C3860 H3850 0.930 . S
C3860 C3859 1.400 . S
C3860 C3863 1.386 . S
H3861 C3877 0.930 . S
H3862 C3878 0.931 . S
C3863 H3851 0.929 . S
C3863 C3857 1.390 . S
C3863 C3860 1.386 . S
C3864 C3859 1.490 . S
C3864 C3866 1.395 . S
C3864 C3867 1.403 . S
H3865 C3871 0.930 . S
C3866 H3852 0.930 . S
C3866 C3864 1.395 . S
C3866 C3869 1.403 . S
C3867 C3864 1.403 . S
C3867 C3868 1.524 . S
C3867 C3871 1.400 . S
C3868 H3853 0.960 . S
C3868 H3854 0.960 . S
C3868 H3855 0.960 . S
C3868 C3867 1.524 . S
C3869 C3866 1.403 . S
C3869 C3870 1.392 . S
C3869 C3873 1.495 . S
C3870 C3869 1.392 . S
C3870 C3871 1.385 . S
C3870 C3872 1.478 . S
C3871 H3865 0.930 . S
C3871 C3867 1.400 . S
C3871 C3870 1.385 . S
C3872 C3870 1.478 . S
C3872 C3874 1.381 . S
C3872 C3878 1.383 . S
C3873 C3869 1.495 . S
C3873 H3879 0.959 . S
C3873 H3880 0.961 . S
C3873 H3881 0.960 . S
C3874 C3872 1.381 . S
C3874 C3875 1.394 . S
C3874 H3882 0.930 . S
C3875 C3874 1.394 . S
C3875 C3876 1.383 . S
C3875 H3883 0.929 . S
C3876 C3875 1.383 . S
C3876 C3877 1.377 . S
C3877 H3861 0.930 . S
C3877 C3876 1.377 . S
C3877 C3878 1.379 . S
C3878 H3862 0.931 . S
C3878 C3872 1.383 . S
C3878 C3877 1.379 . S
H3879 C3873 0.959 . S
H3880 C3873 0.961 . S
H3881 C3873 0.960 . S
H3882 C3874 0.930 . S
H3883 C3875 0.929 . S
H3884 C3892 0.929 . S
H3885 C3894 0.930 . S
H3886 C3896 0.930 . S
H3887 C3899 0.929 . S
H3888 C3902 0.930 . S
H3889 C3904 0.960 . S
H3890 C3904 0.960 . S
H3891 C3904 0.960 . S
C3892 H3884 0.929 . S
C3892 C3893 1.377 . S
C3892 C3894 1.384 . S
C3893 C3892 1.377 . S
C3893 C3899 1.390 . S
C3894 H3885 0.930 . S
C3894 C3892 1.384 . S
C3894 C3895 1.372 . S
C3895 C3894 1.372 . S
C3895 C3896 1.400 . S
C3895 C3900 1.490 . S
C3896 H3886 0.930 . S
C3896 C3895 1.400 . S
C3896 C3899 1.386 . S
H3897 C3913 0.930 . S
H3898 C3914 0.931 . S
C3899 H3887 0.929 . S
C3899 C3893 1.390 . S
C3899 C3896 1.386 . S
C3900 C3895 1.490 . S
C3900 C3902 1.395 . S
C3900 C3903 1.403 . S
H3901 C3907 0.930 . S
C3902 H3888 0.930 . S
C3902 C3900 1.395 . S
C3902 C3905 1.403 . S
C3903 C3900 1.403 . S
C3903 C3904 1.524 . S
C3903 C3907 1.400 . S
C3904 H3889 0.960 . S
C3904 H3890 0.960 . S
C3904 H3891 0.960 . S
C3904 C3903 1.524 . S
C3905 C3902 1.403 . S
C3905 C3906 1.392 . S
C3905 C3909 1.495 . S
C3906 C3905 1.392 . S
C3906 C3907 1.385 . S
C3906 C3908 1.478 . S
C3907 H3901 0.930 . S
C3907 C3903 1.400 . S
C3907 C3906 1.385 . S
C3908 C3906 1.478 . S
C3908 C3910 1.381 . S
C3908 C3914 1.383 . S
C3909 C3905 1.495 . S
C3909 H3915 0.959 . S
C3909 H3916 0.961 . S
C3909 H3917 0.960 . S
C3910 C3908 1.381 . S
C3910 C3911 1.394 . S
C3910 H3918 0.930 . S
C3911 C3910 1.394 . S
C3911 C3912 1.383 . S
C3911 H3919 0.929 . S
C3912 C3911 1.383 . S
C3912 C3913 1.377 . S
C3913 H3897 0.930 . S
C3913 C3912 1.377 . S
C3913 C3914 1.379 . S
C3914 H3898 0.931 . S
C3914 C3908 1.383 . S
C3914 C3913 1.379 . S
H3915 C3909 0.959 . S
H3916 C3909 0.961 . S
H3917 C3909 0.960 . S
H3918 C3910 0.930 . S
H3919 C3911 0.929 . S
H3920 C3928 0.929 . S
H3921 C3930 0.930 . S
H3922 C3932 0.930 . S
H3923 C3935 0.929 . S
H3924 C3938 0.930 . S
H3925 C3940 0.960 . S
H3926 C3940 0.960 . S
H3927 C3940 0.960 . S
C3928 H3920 0.929 . S
C3928 C3929 1.377 . S
C3928 C3930 1.384 . S
C3929 C3928 1.377 . S
C3929 C3935 1.390 . S
C3930 H3921 0.930 . S
C3930 C3928 1.384 . S
C3930 C3931 1.372 . S
C3931 C3930 1.372 . S
C3931 C3932 1.400 . S
C3931 C3936 1.490 . S
C3932 H3922 0.930 . S
C3932 C3931 1.400 . S
C3932 C3935 1.386 . S
H3933 C3949 0.930 . S
H3934 C3950 0.931 . S
C3935 H3923 0.929 . S
C3935 C3929 1.390 . S
C3935 C3932 1.386 . S
C3936 C3931 1.490 . S
C3936 C3938 1.395 . S
C3936 C3939 1.403 . S
H3937 C3943 0.930 . S
C3938 H3924 0.930 . S
C3938 C3936 1.395 . S
C3938 C3941 1.403 . S
C3939 C3936 1.403 . S
C3939 C3940 1.524 . S
C3939 C3943 1.400 . S
C3940 H3925 0.960 . S
C3940 H3926 0.960 . S
C3940 H3927 0.960 . S
C3940 C3939 1.524 . S
C3941 C3938 1.403 . S
C3941 C3942 1.392 . S
C3941 C3945 1.495 . S
C3942 C3941 1.392 . S
C3942 C3943 1.385 . S
C3942 C3944 1.478 . S
C3943 H3937 0.930 . S
C3943 C3939 1.400 . S
C3943 C3942 1.385 . S
C3944 C3942 1.478 . S
C3944 C3946 1.381 . S
C3944 C3950 1.383 . S
C3945 C3941 1.495 . S
C3945 H3951 0.959 . S
C3945 H3952 0.961 . S
C3945 H3953 0.960 . S
C3946 C3944 1.381 . S
C3946 C3947 1.394 . S
C3946 H3954 0.930 . S
C3947 C3946 1.394 . S
C3947 C3948 1.383 . S
C3947 H3955 0.929 . S
C3948 C3947 1.383 . S
C3948 C3949 1.377 . S
C3949 H3933 0.930 . S
C3949 C3948 1.377 . S
C3949 C3950 1.379 . S
C3950 H3934 0.931 . S
C3950 C3944 1.383 . S
C3950 C3949 1.379 . S
H3951 C3945 0.959 . S
H3952 C3945 0.961 . S
H3953 C3945 0.960 . S
H3954 C3946 0.930 . S
H3955 C3947 0.929 . S
H3956 C3964 0.929 . S
H3957 C3966 0.930 . S
H3958 C3968 0.930 . S
H3959 C3971 0.929 . S
H3960 C3974 0.930 . S
H3961 C3976 0.960 . S
H3962 C3976 0.960 . S
H3963 C3976 0.960 . S
C3964 H3956 0.929 . S
C3964 C3965 1.377 . S
C3964 C3966 1.384 . S
C3965 C3964 1.377 . S
C3965 C3971 1.390 . S
C3966 H3957 0.930 . S
C3966 C3964 1.384 . S
C3966 C3967 1.372 . S
C3967 C3966 1.372 . S
C3967 C3968 1.400 . S
C3967 C3972 1.490 . S
C3968 H3958 0.930 . S
C3968 C3967 1.400 . S
C3968 C3971 1.386 . S
H3969 C3985 0.930 . S
H3970 C3986 0.931 . S
C3971 H3959 0.929 . S
C3971 C3965 1.390 . S
C3971 C3968 1.386 . S
C3972 C3967 1.490 . S
C3972 C3974 1.395 . S
C3972 C3975 1.403 . S
H3973 C3979 0.930 . S
C3974 H3960 0.930 . S
C3974 C3972 1.395 . S
C3974 C3977 1.403 . S
C3975 C3972 1.403 . S
C3975 C3976 1.524 . S
C3975 C3979 1.400 . S
C3976 H3961 0.960 . S
C3976 H3962 0.960 . S
C3976 H3963 0.960 . S
C3976 C3975 1.524 . S
C3977 C3974 1.403 . S
C3977 C3978 1.392 . S
C3977 C3981 1.495 . S
C3978 C3977 1.392 . S
C3978 C3979 1.385 . S
C3978 C3980 1.478 . S
C3979 H3973 0.930 . S
C3979 C3975 1.400 . S
C3979 C3978 1.385 . S
C3980 C3978 1.478 . S
C3980 C3982 1.381 . S
C3980 C3986 1.383 . S
C3981 C3977 1.495 . S
C3981 H3987 0.959 . S
C3981 H3988 0.961 . S
C3981 H3989 0.960 . S
C3982 C3980 1.381 . S
C3982 C3983 1.394 . S
C3982 H3990 0.930 . S
C3983 C3982 1.394 . S
C3983 C3984 1.383 . S
C3983 H3991 0.929 . S
C3984 C3983 1.383 . S
C3984 C3985 1.377 . S
C3985 H3969 0.930 . S
C3985 C3984 1.377 . S
C3985 C3986 1.379 . S
C3986 H3970 0.931 . S
C3986 C3980 1.383 . S
C3986 C3985 1.379 . S
H3987 C3981 0.959 . S
H3988 C3981 0.961 . S
H3989 C3981 0.960 . S
H3990 C3982 0.930 . S
H3991 C3983 0.929 . S
H3992 C4000 0.929 . S
H3993 C4002 0.930 . S
H3994 C4004 0.930 . S
H3995 C4007 0.929 . S
H3996 C4010 0.930 . S
H3997 C4012 0.960 . S
H3998 C4012 0.960 . S
H3999 C4012 0.960 . S
C4000 H3992 0.929 . S
C4000 C4001 1.377 . S
C4000 C4002 1.384 . S
C4001 C4000 1.377 . S
C4001 C4007 1.390 . S
C4002 H3993 0.930 . S
C4002 C4000 1.384 . S
C4002 C4003 1.372 . S
C4003 C4002 1.372 . S
C4003 C4004 1.400 . S
C4003 C4008 1.490 . S
C4004 H3994 0.930 . S
C4004 C4003 1.400 . S
C4004 C4007 1.386 . S
H4005 C4021 0.930 . S
H4006 C4022 0.931 . S
C4007 H3995 0.929 . S
C4007 C4001 1.390 . S
C4007 C4004 1.386 . S
C4008 C4003 1.490 . S
C4008 C4010 1.395 . S
C4008 C4011 1.403 . S
H4009 C4015 0.930 . S
C4010 H3996 0.930 . S
C4010 C4008 1.395 . S
C4010 C4013 1.403 . S
C4011 C4008 1.403 . S
C4011 C4012 1.524 . S
C4011 C4015 1.400 . S
C4012 H3997 0.960 . S
C4012 H3998 0.960 . S
C4012 H3999 0.960 . S
C4012 C4011 1.524 . S
C4013 C4010 1.403 . S
C4013 C4014 1.392 . S
C4013 C4017 1.495 . S
C4014 C4013 1.392 . S
C4014 C4015 1.385 . S
C4014 C4016 1.478 . S
C4015 H4009 0.930 . S
C4015 C4011 1.400 . S
C4015 C4014 1.385 . S
C4016 C4014 1.478 . S
C4016 C4018 1.381 . S
C4016 C4022 1.383 . S
C4017 C4013 1.495 . S
C4017 H4023 0.959 . S
C4017 H4024 0.961 . S
C4017 H4025 0.960 . S
C4018 C4016 1.381 . S
C4018 C4019 1.394 . S
C4018 H4026 0.930 . S
C4019 C4018 1.394 . S
C4019 C4020 1.383 . S
C4019 H4027 0.929 . S
C4020 C4019 1.383 . S
C4020 C4021 1.377 . S
C4021 H4005 0.930 . S
C4021 C4020 1.377 . S
C4021 C4022 1.379 . S
C4022 H4006 0.931 . S
C4022 C4016 1.383 . S
C4022 C4021 1.379 . S
H4023 C4017 0.959 . S
H4024 C4017 0.961 . S
H4025 C4017 0.960 . S
H4026 C4018 0.930 . S
H4027 C4019 0.929 . S
H4028 C4036 0.929 . S
H4029 C4038 0.930 . S
H4030 C4040 0.930 . S
H4031 C4043 0.929 . S
H4032 C4046 0.930 . S
H4033 C4048 0.960 . S
H4034 C4048 0.960 . S
H4035 C4048 0.960 . S
C4036 H4028 0.929 . S
C4036 C4037 1.377 . S
C4036 C4038 1.384 . S
C4037 C4036 1.377 . S
C4037 C4043 1.390 . S
C4038 H4029 0.930 . S
C4038 C4036 1.384 . S
C4038 C4039 1.372 . S
C4039 C4038 1.372 . S
C4039 C4040 1.400 . S
C4039 C4044 1.490 . S
C4040 H4030 0.930 . S
C4040 C4039 1.400 . S
C4040 C4043 1.386 . S
H4041 C4057 0.930 . S
H4042 C4058 0.931 . S
C4043 H4031 0.929 . S
C4043 C4037 1.390 . S
C4043 C4040 1.386 . S
C4044 C4039 1.490 . S
C4044 C4046 1.395 . S
C4044 C4047 1.403 . S
H4045 C4051 0.930 . S
C4046 H4032 0.930 . S
C4046 C4044 1.395 . S
C4046 C4049 1.403 . S
C4047 C4044 1.403 . S
C4047 C4048 1.524 . S
C4047 C4051 1.400 . S
C4048 H4033 0.960 . S
C4048 H4034 0.960 . S
C4048 H4035 0.960 . S
C4048 C4047 1.524 . S
C4049 C4046 1.403 . S
C4049 C4050 1.392 . S
C4049 C4053 1.495 . S
C4050 C4049 1.392 . S
C4050 C4051 1.385 . S
C4050 C4052 1.478 . S
C4051 H4045 0.930 . S
C4051 C4047 1.400 . S
C4051 C4050 1.385 . S
C4052 C4050 1.478 . S
C4052 C4054 1.381 . S
C4052 C4058 1.383 . S
C4053 C4049 1.495 . S
C4053 H4059 0.959 . S
C4053 H4060 0.961 . S
C4053 H4061 0.960 . S
C4054 C4052 1.381 . S
C4054 C4055 1.394 . S
C4054 H4062 0.930 . S
C4055 C4054 1.394 . S
C4055 C4056 1.383 . S
C4055 H4063 0.929 . S
C4056 C4055 1.383 . S
C4056 C4057 1.377 . S
C4057 H4041 0.930 . S
C4057 C4056 1.377 . S
C4057 C4058 1.379 . S
C4058 H4042 0.931 . S
C4058 C4052 1.383 . S
C4058 C4057 1.379 . S
H4059 C4053 0.959 . S
H4060 C4053 0.961 . S
H4061 C4053 0.960 . S
H4062 C4054 0.930 . S
H4063 C4055 0.929 . S
H4064 C4072 0.929 . S
H4065 C4074 0.930 . S
H4066 C4076 0.930 . S
H4067 C4079 0.929 . S
H4068 C4082 0.930 . S
H4069 C4084 0.960 . S
H4070 C4084 0.960 . S
H4071 C4084 0.960 . S
C4072 H4064 0.929 . S
C4072 C4073 1.377 . S
C4072 C4074 1.384 . S
C4073 C4072 1.377 . S
C4073 C4079 1.390 . S
C4074 H4065 0.930 . S
C4074 C4072 1.384 . S
C4074 C4075 1.372 . S
C4075 C4074 1.372 . S
C4075 C4076 1.400 . S
C4075 C4080 1.490 . S
C4076 H4066 0.930 . S
C4076 C4075 1.400 . S
C4076 C4079 1.386 . S
H4077 C4093 0.930 . S
H4078 C4094 0.931 . S
C4079 H4067 0.929 . S
C4079 C4073 1.390 . S
C4079 C4076 1.386 . S
C4080 C4075 1.490 . S
C4080 C4082 1.395 . S
C4080 C4083 1.403 . S
H4081 C4087 0.930 . S
C4082 H4068 0.930 . S
C4082 C4080 1.395 . S
C4082 C4085 1.403 . S
C4083 C4080 1.403 . S
C4083 C4084 1.524 . S
C4083 C4087 1.400 . S
C4084 H4069 0.960 . S
C4084 H4070 0.960 . S
C4084 H4071 0.960 . S
C4084 C4083 1.524 . S
C4085 C4082 1.403 . S
C4085 C4086 1.392 . S
C4085 C4089 1.495 . S
C4086 C4085 1.392 . S
C4086 C4087 1.385 . S
C4086 C4088 1.478 . S
C4087 H4081 0.930 . S
C4087 C4083 1.400 . S
C4087 C4086 1.385 . S
C4088 C4086 1.478 . S
C4088 C4090 1.381 . S
C4088 C4094 1.383 . S
C4089 C4085 1.495 . S
C4089 H4095 0.959 . S
C4089 H4096 0.961 . S
C4089 H4097 0.960 . S
C4090 C4088 1.381 . S
C4090 C4091 1.394 . S
C4090 H4098 0.930 . S
C4091 C4090 1.394 . S
C4091 C4092 1.383 . S
C4091 H4099 0.929 . S
C4092 C4091 1.383 . S
C4092 C4093 1.377 . S
C4093 H4077 0.930 . S
C4093 C4092 1.377 . S
C4093 C4094 1.379 . S
C4094 H4078 0.931 . S
C4094 C4088 1.383 . S
C4094 C4093 1.379 . S
H4095 C4089 0.959 . S
H4096 C4089 0.961 . S
H4097 C4089 0.960 . S
H4098 C4090 0.930 . S
H4099 C4091 0.929 . S
H4100 C4108 0.929 . S
H4101 C4110 0.930 . S
H4102 C4112 0.930 . S
H4103 C4115 0.929 . S
H4104 C4118 0.930 . S
H4105 C4120 0.960 . S
H4106 C4120 0.960 . S
H4107 C4120 0.960 . S
C4108 H4100 0.929 . S
C4108 C4109 1.377 . S
C4108 C4110 1.384 . S
C4109 C4108 1.377 . S
C4109 C4115 1.390 . S
C4110 H4101 0.930 . S
C4110 C4108 1.384 . S
C4110 C4111 1.372 . S
C4111 C4110 1.372 . S
C4111 C4112 1.400 . S
C4111 C4116 1.490 . S
C4112 H4102 0.930 . S
C4112 C4111 1.400 . S
C4112 C4115 1.386 . S
H4113 C4129 0.930 . S
H4114 C4130 0.931 . S
C4115 H4103 0.929 . S
C4115 C4109 1.390 . S
C4115 C4112 1.386 . S
C4116 C4111 1.490 . S
C4116 C4118 1.395 . S
C4116 C4119 1.403 . S
H4117 C4123 0.930 . S
C4118 H4104 0.930 . S
C4118 C4116 1.395 . S
C4118 C4121 1.403 . S
C4119 C4116 1.403 . S
C4119 C4120 1.524 . S
C4119 C4123 1.400 . S
C4120 H4105 0.960 . S
C4120 H4106 0.960 . S
C4120 H4107 0.960 . S
C4120 C4119 1.524 . S
C4121 C4118 1.403 . S
C4121 C4122 1.392 . S
C4121 C4125 1.495 . S
C4122 C4121 1.392 . S
C4122 C4123 1.385 . S
C4122 C4124 1.478 . S
C4123 H4117 0.930 . S
C4123 C4119 1.400 . S
C4123 C4122 1.385 . S
C4124 C4122 1.478 . S
C4124 C4126 1.381 . S
C4124 C4130 1.383 . S
C4125 C4121 1.495 . S
C4125 H4131 0.959 . S
C4125 H4132 0.961 . S
C4125 H4133 0.960 . S
C4126 C4124 1.381 . S
C4126 C4127 1.394 . S
C4126 H4134 0.930 . S
C4127 C4126 1.394 . S
C4127 C4128 1.383 . S
C4127 H4135 0.929 . S
C4128 C4127 1.383 . S
C4128 C4129 1.377 . S
C4129 H4113 0.930 . S
C4129 C4128 1.377 . S
C4129 C4130 1.379 . S
C4130 H4114 0.931 . S
C4130 C4124 1.383 . S
C4130 C4129 1.379 . S
H4131 C4125 0.959 . S
H4132 C4125 0.961 . S
H4133 C4125 0.960 . S
H4134 C4126 0.930 . S
H4135 C4127 0.929 . S
H4136 C4144 0.929 . S
H4137 C4146 0.930 . S
H4138 C4148 0.930 . S
H4139 C4151 0.929 . S
H4140 C4154 0.930 . S
H4141 C4156 0.960 . S
H4142 C4156 0.960 . S
H4143 C4156 0.960 . S
C4144 H4136 0.929 . S
C4144 C4145 1.377 . S
C4144 C4146 1.384 . S
C4145 C4144 1.377 . S
C4145 C4151 1.390 . S
C4146 H4137 0.930 . S
C4146 C4144 1.384 . S
C4146 C4147 1.372 . S
C4147 C4146 1.372 . S
C4147 C4148 1.400 . S
C4147 C4152 1.490 . S
C4148 H4138 0.930 . S
C4148 C4147 1.400 . S
C4148 C4151 1.386 . S
H4149 C4165 0.930 . S
H4150 C4166 0.931 . S
C4151 H4139 0.929 . S
C4151 C4145 1.390 . S
C4151 C4148 1.386 . S
C4152 C4147 1.490 . S
C4152 C4154 1.395 . S
C4152 C4155 1.403 . S
H4153 C4159 0.930 . S
C4154 H4140 0.930 . S
C4154 C4152 1.395 . S
C4154 C4157 1.403 . S
C4155 C4152 1.403 . S
C4155 C4156 1.524 . S
C4155 C4159 1.400 . S
C4156 H4141 0.960 . S
C4156 H4142 0.960 . S
C4156 H4143 0.960 . S
C4156 C4155 1.524 . S
C4157 C4154 1.403 . S
C4157 C4158 1.392 . S
C4157 C4161 1.495 . S
C4158 C4157 1.392 . S
C4158 C4159 1.385 . S
C4158 C4160 1.478 . S
C4159 H4153 0.930 . S
C4159 C4155 1.400 . S
C4159 C4158 1.385 . S
C4160 C4158 1.478 . S
C4160 C4162 1.381 . S
C4160 C4166 1.383 . S
C4161 C4157 1.495 . S
C4161 H4167 0.959 . S
C4161 H4168 0.961 . S
C4161 H4169 0.960 . S
C4162 C4160 1.381 . S
C4162 C4163 1.394 . S
C4162 H4170 0.930 . S
C4163 C4162 1.394 . S
C4163 C4164 1.383 . S
C4163 H4171 0.929 . S
C4164 C4163 1.383 . S
C4164 C4165 1.377 . S
C4165 H4149 0.930 . S
C4165 C4164 1.377 . S
C4165 C4166 1.379 . S
C4166 H4150 0.931 . S
C4166 C4160 1.383 . S
C4166 C4165 1.379 . S
H4167 C4161 0.959 . S
H4168 C4161 0.961 . S
H4169 C4161 0.960 . S
H4170 C4162 0.930 . S
H4171 C4163 0.929 . S
H4172 C4180 0.929 . S
H4173 C4182 0.930 . S
H4174 C4184 0.930 . S
H4175 C4187 0.929 . S
H4176 C4190 0.930 . S
H4177 C4192 0.960 . S
H4178 C4192 0.960 . S
H4179 C4192 0.960 . S
C4180 H4172 0.929 . S
C4180 C4181 1.377 . S
C4180 C4182 1.384 . S
C4181 C4180 1.377 . S
C4181 C4187 1.390 . S
C4182 H4173 0.930 . S
C4182 C4180 1.384 . S
C4182 C4183 1.372 . S
C4183 C4182 1.372 . S
C4183 C4184 1.400 . S
C4183 C4188 1.490 . S
C4184 H4174 0.930 . S
C4184 C4183 1.400 . S
C4184 C4187 1.386 . S
H4185 C4201 0.930 . S
H4186 C4202 0.931 . S
C4187 H4175 0.929 . S
C4187 C4181 1.390 . S
C4187 C4184 1.386 . S
C4188 C4183 1.490 . S
C4188 C4190 1.395 . S
C4188 C4191 1.403 . S
H4189 C4195 0.930 . S
C4190 H4176 0.930 . S
C4190 C4188 1.395 . S
C4190 C4193 1.403 . S
C4191 C4188 1.403 . S
C4191 C4192 1.524 . S
C4191 C4195 1.400 . S
C4192 H4177 0.960 . S
C4192 H4178 0.960 . S
C4192 H4179 0.960 . S
C4192 C4191 1.524 . S
C4193 C4190 1.403 . S
C4193 C4194 1.392 . S
C4193 C4197 1.495 . S
C4194 C4193 1.392 . S
C4194 C4195 1.385 . S
C4194 C4196 1.478 . S
C4195 H4189 0.930 . S
C4195 C4191 1.400 . S
C4195 C4194 1.385 . S
C4196 C4194 1.478 . S
C4196 C4198 1.381 . S
C4196 C4202 1.383 . S
C4197 C4193 1.495 . S
C4197 H4203 0.959 . S
C4197 H4204 0.961 . S
C4197 H4205 0.960 . S
C4198 C4196 1.381 . S
C4198 C4199 1.394 . S
C4198 H4206 0.930 . S
C4199 C4198 1.394 . S
C4199 C4200 1.383 . S
C4199 H4207 0.929 . S
C4200 C4199 1.383 . S
C4200 C4201 1.377 . S
C4201 H4185 0.930 . S
C4201 C4200 1.377 . S
C4201 C4202 1.379 . S
C4202 H4186 0.931 . S
C4202 C4196 1.383 . S
C4202 C4201 1.379 . S
H4203 C4197 0.959 . S
H4204 C4197 0.961 . S
H4205 C4197 0.960 . S
H4206 C4198 0.930 . S
H4207 C4199 0.929 . S
H4208 C4216 0.929 . S
H4209 C4218 0.930 . S
H4210 C4220 0.930 . S
H4211 C4223 0.929 . S
H4212 C4226 0.930 . S
H4213 C4228 0.960 . S
H4214 C4228 0.960 . S
H4215 C4228 0.960 . S
C4216 H4208 0.929 . S
C4216 C4217 1.377 . S
C4216 C4218 1.384 . S
C4217 C4216 1.377 . S
C4217 C4223 1.390 . S
C4218 H4209 0.930 . S
C4218 C4216 1.384 . S
C4218 C4219 1.372 . S
C4219 C4218 1.372 . S
C4219 C4220 1.400 . S
C4219 C4224 1.490 . S
C4220 H4210 0.930 . S
C4220 C4219 1.400 . S
C4220 C4223 1.386 . S
H4221 C4237 0.930 . S
H4222 C4238 0.931 . S
C4223 H4211 0.929 . S
C4223 C4217 1.390 . S
C4223 C4220 1.386 . S
C4224 C4219 1.490 . S
C4224 C4226 1.395 . S
C4224 C4227 1.403 . S
H4225 C4231 0.930 . S
C4226 H4212 0.930 . S
C4226 C4224 1.395 . S
C4226 C4229 1.403 . S
C4227 C4224 1.403 . S
C4227 C4228 1.524 . S
C4227 C4231 1.400 . S
C4228 H4213 0.960 . S
C4228 H4214 0.960 . S
C4228 H4215 0.960 . S
C4228 C4227 1.524 . S
C4229 C4226 1.403 . S
C4229 C4230 1.392 . S
C4229 C4233 1.495 . S
C4230 C4229 1.392 . S
C4230 C4231 1.385 . S
C4230 C4232 1.478 . S
C4231 H4225 0.930 . S
C4231 C4227 1.400 . S
C4231 C4230 1.385 . S
C4232 C4230 1.478 . S
C4232 C4234 1.381 . S
C4232 C4238 1.383 . S
C4233 C4229 1.495 . S
C4233 H4239 0.959 . S
C4233 H4240 0.961 . S
C4233 H4241 0.960 . S
C4234 C4232 1.381 . S
C4234 C4235 1.394 . S
C4234 H4242 0.930 . S
C4235 C4234 1.394 . S
C4235 C4236 1.383 . S
C4235 H4243 0.929 . S
C4236 C4235 1.383 . S
C4236 C4237 1.377 . S
C4237 H4221 0.930 . S
C4237 C4236 1.377 . S
C4237 C4238 1.379 . S
C4238 H4222 0.931 . S
C4238 C4232 1.383 . S
C4238 C4237 1.379 . S
H4239 C4233 0.959 . S
H4240 C4233 0.961 . S
H4241 C4233 0.960 . S
H4242 C4234 0.930 . S
H4243 C4235 0.929 . S
H4244 C4252 0.929 . S
H4245 C4254 0.930 . S
H4246 C4256 0.930 . S
H4247 C4259 0.929 . S
H4248 C4262 0.930 . S
H4249 C4264 0.960 . S
H4250 C4264 0.960 . S
H4251 C4264 0.960 . S
C4252 H4244 0.929 . S
C4252 C4253 1.377 . S
C4252 C4254 1.384 . S
C4253 C4252 1.377 . S
C4253 C4259 1.390 . S
C4254 H4245 0.930 . S
C4254 C4252 1.384 . S
C4254 C4255 1.372 . S
C4255 C4254 1.372 . S
C4255 C4256 1.400 . S
C4255 C4260 1.490 . S
C4256 H4246 0.930 . S
C4256 C4255 1.400 . S
C4256 C4259 1.386 . S
H4257 C4273 0.930 . S
H4258 C4274 0.931 . S
C4259 H4247 0.929 . S
C4259 C4253 1.390 . S
C4259 C4256 1.386 . S
C4260 C4255 1.490 . S
C4260 C4262 1.395 . S
C4260 C4263 1.403 . S
H4261 C4267 0.930 . S
C4262 H4248 0.930 . S
C4262 C4260 1.395 . S
C4262 C4265 1.403 . S
C4263 C4260 1.403 . S
C4263 C4264 1.524 . S
C4263 C4267 1.400 . S
C4264 H4249 0.960 . S
C4264 H4250 0.960 . S
C4264 H4251 0.960 . S
C4264 C4263 1.524 . S
C4265 C4262 1.403 . S
C4265 C4266 1.392 . S
C4265 C4269 1.495 . S
C4266 C4265 1.392 . S
C4266 C4267 1.385 . S
C4266 C4268 1.478 . S
C4267 H4261 0.930 . S
C4267 C4263 1.400 . S
C4267 C4266 1.385 . S
C4268 C4266 1.478 . S
C4268 C4270 1.381 . S
C4268 C4274 1.383 . S
C4269 C4265 1.495 . S
C4269 H4275 0.959 . S
C4269 H4276 0.961 . S
C4269 H4277 0.960 . S
C4270 C4268 1.381 . S
C4270 C4271 1.394 . S
C4270 H4278 0.930 . S
C4271 C4270 1.394 . S
C4271 C4272 1.383 . S
C4271 H4279 0.929 . S
C4272 C4271 1.383 . S
C4272 C4273 1.377 . S
C4273 H4257 0.930 . S
C4273 C4272 1.377 . S
C4273 C4274 1.379 . S
C4274 H4258 0.931 . S
C4274 C4268 1.383 . S
C4274 C4273 1.379 . S
H4275 C4269 0.959 . S
H4276 C4269 0.961 . S
H4277 C4269 0.960 . S
H4278 C4270 0.930 . S
H4279 C4271 0.929 . S
H4280 C4288 0.929 . S
H4281 C4290 0.930 . S
H4282 C4292 0.930 . S
H4283 C4295 0.929 . S
H4284 C4298 0.930 . S
H4285 C4300 0.960 . S
H4286 C4300 0.960 . S
H4287 C4300 0.960 . S
C4288 H4280 0.929 . S
C4288 C4289 1.377 . S
C4288 C4290 1.384 . S
C4289 C4288 1.377 . S
C4289 C4295 1.390 . S
C4290 H4281 0.930 . S
C4290 C4288 1.384 . S
C4290 C4291 1.372 . S
C4291 C4290 1.372 . S
C4291 C4292 1.400 . S
C4291 C4296 1.490 . S
C4292 H4282 0.930 . S
C4292 C4291 1.400 . S
C4292 C4295 1.386 . S
H4293 C4309 0.930 . S
H4294 C4310 0.931 . S
C4295 H4283 0.929 . S
C4295 C4289 1.390 . S
C4295 C4292 1.386 . S
C4296 C4291 1.490 . S
C4296 C4298 1.395 . S
C4296 C4299 1.403 . S
H4297 C4303 0.930 . S
C4298 H4284 0.930 . S
C4298 C4296 1.395 . S
C4298 C4301 1.403 . S
C4299 C4296 1.403 . S
C4299 C4300 1.524 . S
C4299 C4303 1.400 . S
C4300 H4285 0.960 . S
C4300 H4286 0.960 . S
C4300 H4287 0.960 . S
C4300 C4299 1.524 . S
C4301 C4298 1.403 . S
C4301 C4302 1.392 . S
C4301 C4305 1.495 . S
C4302 C4301 1.392 . S
C4302 C4303 1.385 . S
C4302 C4304 1.478 . S
C4303 H4297 0.930 . S
C4303 C4299 1.400 . S
C4303 C4302 1.385 . S
C4304 C4302 1.478 . S
C4304 C4306 1.381 . S
C4304 C4310 1.383 . S
C4305 C4301 1.495 . S
C4305 H4311 0.959 . S
C4305 H4312 0.961 . S
C4305 H4313 0.960 . S
C4306 C4304 1.381 . S
C4306 C4307 1.394 . S
C4306 H4314 0.930 . S
C4307 C4306 1.394 . S
C4307 C4308 1.383 . S
C4307 H4315 0.929 . S
C4308 C4307 1.383 . S
C4308 C4309 1.377 . S
C4309 H4293 0.930 . S
C4309 C4308 1.377 . S
C4309 C4310 1.379 . S
C4310 H4294 0.931 . S
C4310 C4304 1.383 . S
C4310 C4309 1.379 . S
H4311 C4305 0.959 . S
H4312 C4305 0.961 . S
H4313 C4305 0.960 . S
H4314 C4306 0.930 . S
H4315 C4307 0.929 . S
H4316 C4324 0.929 . S
H4317 C4326 0.930 . S
H4318 C4328 0.930 . S
H4319 C4331 0.929 . S
H4320 C4334 0.930 . S
H4321 C4336 0.960 . S
H4322 C4336 0.960 . S
H4323 C4336 0.960 . S
C4324 H4316 0.929 . S
C4324 C4325 1.377 . S
C4324 C4326 1.384 . S
C4325 C4324 1.377 . S
C4325 C4331 1.390 . S
C4326 H4317 0.930 . S
C4326 C4324 1.384 . S
C4326 C4327 1.372 . S
C4327 C4326 1.372 . S
C4327 C4328 1.400 . S
C4327 C4332 1.490 . S
C4328 H4318 0.930 . S
C4328 C4327 1.400 . S
C4328 C4331 1.386 . S
H4329 C4345 0.930 . S
H4330 C4346 0.931 . S
C4331 H4319 0.929 . S
C4331 C4325 1.390 . S
C4331 C4328 1.386 . S
C4332 C4327 1.490 . S
C4332 C4334 1.395 . S
C4332 C4335 1.403 . S
H4333 C4339 0.930 . S
C4334 H4320 0.930 . S
C4334 C4332 1.395 . S
C4334 C4337 1.403 . S
C4335 C4332 1.403 . S
C4335 C4336 1.524 . S
C4335 C4339 1.400 . S
C4336 H4321 0.960 . S
C4336 H4322 0.960 . S
C4336 H4323 0.960 . S
C4336 C4335 1.524 . S
C4337 C4334 1.403 . S
C4337 C4338 1.392 . S
C4337 C4341 1.495 . S
C4338 C4337 1.392 . S
C4338 C4339 1.385 . S
C4338 C4340 1.478 . S
C4339 H4333 0.930 . S
C4339 C4335 1.400 . S
C4339 C4338 1.385 . S
C4340 C4338 1.478 . S
C4340 C4342 1.381 . S
C4340 C4346 1.383 . S
C4341 C4337 1.495 . S
C4341 H4347 0.959 . S
C4341 H4348 0.961 . S
C4341 H4349 0.960 . S
C4342 C4340 1.381 . S
C4342 C4343 1.394 . S
C4342 H4350 0.930 . S
C4343 C4342 1.394 . S
C4343 C4344 1.383 . S
C4343 H4351 0.929 . S
C4344 C4343 1.383 . S
C4344 C4345 1.377 . S
C4345 H4329 0.930 . S
C4345 C4344 1.377 . S
C4345 C4346 1.379 . S
C4346 H4330 0.931 . S
C4346 C4340 1.383 . S
C4346 C4345 1.379 . S
H4347 C4341 0.959 . S
H4348 C4341 0.961 . S
H4349 C4341 0.960 . S
H4350 C4342 0.930 . S
H4351 C4343 0.929 . S
H4352 C4360 0.929 . S
H4353 C4362 0.930 . S
H4354 C4364 0.930 . S
H4355 C4367 0.929 . S
H4356 C4370 0.930 . S
H4357 C4372 0.960 . S
H4358 C4372 0.960 . S
H4359 C4372 0.960 . S
C4360 H4352 0.929 . S
C4360 C4361 1.377 . S
C4360 C4362 1.384 . S
C4361 C4360 1.377 . S
C4361 C4367 1.390 . S
C4362 H4353 0.930 . S
C4362 C4360 1.384 . S
C4362 C4363 1.372 . S
C4363 C4362 1.372 . S
C4363 C4364 1.400 . S
C4363 C4368 1.490 . S
C4364 H4354 0.930 . S
C4364 C4363 1.400 . S
C4364 C4367 1.386 . S
H4365 C4381 0.930 . S
H4366 C4382 0.931 . S
C4367 H4355 0.929 . S
C4367 C4361 1.390 . S
C4367 C4364 1.386 . S
C4368 C4363 1.490 . S
C4368 C4370 1.395 . S
C4368 C4371 1.403 . S
H4369 C4375 0.930 . S
C4370 H4356 0.930 . S
C4370 C4368 1.395 . S
C4370 C4373 1.403 . S
C4371 C4368 1.403 . S
C4371 C4372 1.524 . S
C4371 C4375 1.400 . S
C4372 H4357 0.960 . S
C4372 H4358 0.960 . S
C4372 H4359 0.960 . S
C4372 C4371 1.524 . S
C4373 C4370 1.403 . S
C4373 C4374 1.392 . S
C4373 C4377 1.495 . S
C4374 C4373 1.392 . S
C4374 C4375 1.385 . S
C4374 C4376 1.478 . S
C4375 H4369 0.930 . S
C4375 C4371 1.400 . S
C4375 C4374 1.385 . S
C4376 C4374 1.478 . S
C4376 C4378 1.381 . S
C4376 C4382 1.383 . S
C4377 C4373 1.495 . S
C4377 H4383 0.959 . S
C4377 H4384 0.961 . S
C4377 H4385 0.960 . S
C4378 C4376 1.381 . S
C4378 C4379 1.394 . S
C4378 H4386 0.930 . S
C4379 C4378 1.394 . S
C4379 C4380 1.383 . S
C4379 H4387 0.929 . S
C4380 C4379 1.383 . S
C4380 C4381 1.377 . S
C4381 H4365 0.930 . S
C4381 C4380 1.377 . S
C4381 C4382 1.379 . S
C4382 H4366 0.931 . S
C4382 C4376 1.383 . S
C4382 C4381 1.379 . S
H4383 C4377 0.959 . S
H4384 C4377 0.961 . S
H4385 C4377 0.960 . S
H4386 C4378 0.930 . S
H4387 C4379 0.929 . S
H4388 C4396 0.929 . S
H4389 C4398 0.930 . S
H4390 C4400 0.930 . S
H4391 C4403 0.929 . S
H4392 C4406 0.930 . S
H4393 C4408 0.960 . S
H4394 C4408 0.960 . S
H4395 C4408 0.960 . S
C4396 H4388 0.929 . S
C4396 C4397 1.377 . S
C4396 C4398 1.384 . S
C4397 C4396 1.377 . S
C4397 C4403 1.390 . S
C4398 H4389 0.930 . S
C4398 C4396 1.384 . S
C4398 C4399 1.372 . S
C4399 C4398 1.372 . S
C4399 C4400 1.400 . S
C4399 C4404 1.490 . S
C4400 H4390 0.930 . S
C4400 C4399 1.400 . S
C4400 C4403 1.386 . S
H4401 C4417 0.930 . S
H4402 C4418 0.931 . S
C4403 H4391 0.929 . S
C4403 C4397 1.390 . S
C4403 C4400 1.386 . S
C4404 C4399 1.490 . S
C4404 C4406 1.395 . S
C4404 C4407 1.403 . S
H4405 C4411 0.930 . S
C4406 H4392 0.930 . S
C4406 C4404 1.395 . S
C4406 C4409 1.403 . S
C4407 C4404 1.403 . S
C4407 C4408 1.524 . S
C4407 C4411 1.400 . S
C4408 H4393 0.960 . S
C4408 H4394 0.960 . S
C4408 H4395 0.960 . S
C4408 C4407 1.524 . S
C4409 C4406 1.403 . S
C4409 C4410 1.392 . S
C4409 C4413 1.495 . S
C4410 C4409 1.392 . S
C4410 C4411 1.385 . S
C4410 C4412 1.478 . S
C4411 H4405 0.930 . S
C4411 C4407 1.400 . S
C4411 C4410 1.385 . S
C4412 C4410 1.478 . S
C4412 C4414 1.381 . S
C4412 C4418 1.383 . S
C4413 C4409 1.495 . S
C4413 H4419 0.959 . S
C4413 H4420 0.961 . S
C4413 H4421 0.960 . S
C4414 C4412 1.381 . S
C4414 C4415 1.394 . S
C4414 H4422 0.930 . S
C4415 C4414 1.394 . S
C4415 C4416 1.383 . S
C4415 H4423 0.929 . S
C4416 C4415 1.383 . S
C4416 C4417 1.377 . S
C4417 H4401 0.930 . S
C4417 C4416 1.377 . S
C4417 C4418 1.379 . S
C4418 H4402 0.931 . S
C4418 C4412 1.383 . S
C4418 C4417 1.379 . S
H4419 C4413 0.959 . S
H4420 C4413 0.961 . S
H4421 C4413 0.960 . S
H4422 C4414 0.930 . S
H4423 C4415 0.929 . S
H4424 C4432 0.929 . S
H4425 C4434 0.930 . S
H4426 C4436 0.930 . S
H4427 C4439 0.929 . S
H4428 C4442 0.930 . S
H4429 C4444 0.960 . S
H4430 C4444 0.960 . S
H4431 C4444 0.960 . S
C4432 H4424 0.929 . S
C4432 C4433 1.377 . S
C4432 C4434 1.384 . S
C4433 C4432 1.377 . S
C4433 C4439 1.390 . S
C4434 H4425 0.930 . S
C4434 C4432 1.384 . S
C4434 C4435 1.372 . S
C4435 C4434 1.372 . S
C4435 C4436 1.400 . S
C4435 C4440 1.490 . S
C4436 H4426 0.930 . S
C4436 C4435 1.400 . S
C4436 C4439 1.386 . S
H4437 C4453 0.930 . S
H4438 C4454 0.931 . S
C4439 H4427 0.929 . S
C4439 C4433 1.390 . S
C4439 C4436 1.386 . S
C4440 C4435 1.490 . S
C4440 C4442 1.395 . S
C4440 C4443 1.403 . S
H4441 C4447 0.930 . S
C4442 H4428 0.930 . S
C4442 C4440 1.395 . S
C4442 C4445 1.403 . S
C4443 C4440 1.403 . S
C4443 C4444 1.524 . S
C4443 C4447 1.400 . S
C4444 H4429 0.960 . S
C4444 H4430 0.960 . S
C4444 H4431 0.960 . S
C4444 C4443 1.524 . S
C4445 C4442 1.403 . S
C4445 C4446 1.392 . S
C4445 C4449 1.495 . S
C4446 C4445 1.392 . S
C4446 C4447 1.385 . S
C4446 C4448 1.478 . S
C4447 H4441 0.930 . S
C4447 C4443 1.400 . S
C4447 C4446 1.385 . S
C4448 C4446 1.478 . S
C4448 C4450 1.381 . S
C4448 C4454 1.383 . S
C4449 C4445 1.495 . S
C4449 H4455 0.959 . S
C4449 H4456 0.961 . S
C4449 H4457 0.960 . S
C4450 C4448 1.381 . S
C4450 C4451 1.394 . S
C4450 H4458 0.930 . S
C4451 C4450 1.394 . S
C4451 C4452 1.383 . S
C4451 H4459 0.929 . S
C4452 C4451 1.383 . S
C4452 C4453 1.377 . S
C4453 H4437 0.930 . S
C4453 C4452 1.377 . S
C4453 C4454 1.379 . S
C4454 H4438 0.931 . S
C4454 C4448 1.383 . S
C4454 C4453 1.379 . S
H4455 C4449 0.959 . S
H4456 C4449 0.961 . S
H4457 C4449 0.960 . S
H4458 C4450 0.930 . S
H4459 C4451 0.929 . S
H4460 C4468 0.929 . S
H4461 C4470 0.930 . S
H4462 C4472 0.930 . S
H4463 C4475 0.929 . S
H4464 C4478 0.930 . S
H4465 C4480 0.960 . S
H4466 C4480 0.960 . S
H4467 C4480 0.960 . S
C4468 H4460 0.929 . S
C4468 C4469 1.377 . S
C4468 C4470 1.384 . S
C4469 C4468 1.377 . S
C4469 C4475 1.390 . S
C4470 H4461 0.930 . S
C4470 C4468 1.384 . S
C4470 C4471 1.372 . S
C4471 C4470 1.372 . S
C4471 C4472 1.400 . S
C4471 C4476 1.490 . S
C4472 H4462 0.930 . S
C4472 C4471 1.400 . S
C4472 C4475 1.386 . S
H4473 C4489 0.930 . S
H4474 C4490 0.931 . S
C4475 H4463 0.929 . S
C4475 C4469 1.390 . S
C4475 C4472 1.386 . S
C4476 C4471 1.490 . S
C4476 C4478 1.395 . S
C4476 C4479 1.403 . S
H4477 C4483 0.930 . S
C4478 H4464 0.930 . S
C4478 C4476 1.395 . S
C4478 C4481 1.403 . S
C4479 C4476 1.403 . S
C4479 C4480 1.524 . S
C4479 C4483 1.400 . S
C4480 H4465 0.960 . S
C4480 H4466 0.960 . S
C4480 H4467 0.960 . S
C4480 C4479 1.524 . S
C4481 C4478 1.403 . S
C4481 C4482 1.392 . S
C4481 C4485 1.495 . S
C4482 C4481 1.392 . S
C4482 C4483 1.385 . S
C4482 C4484 1.478 . S
C4483 H4477 0.930 . S
C4483 C4479 1.400 . S
C4483 C4482 1.385 . S
C4484 C4482 1.478 . S
C4484 C4486 1.381 . S
C4484 C4490 1.383 . S
C4485 C4481 1.495 . S
C4485 H4491 0.959 . S
C4485 H4492 0.961 . S
C4485 H4493 0.960 . S
C4486 C4484 1.381 . S
C4486 C4487 1.394 . S
C4486 H4494 0.930 . S
C4487 C4486 1.394 . S
C4487 C4488 1.383 . S
C4487 H4495 0.929 . S
C4488 C4487 1.383 . S
C4488 C4489 1.377 . S
C4489 H4473 0.930 . S
C4489 C4488 1.377 . S
C4489 C4490 1.379 . S
C4490 H4474 0.931 . S
C4490 C4484 1.383 . S
C4490 C4489 1.379 . S
H4491 C4485 0.959 . S
H4492 C4485 0.961 . S
H4493 C4485 0.960 . S
H4494 C4486 0.930 . S
H4495 C4487 0.929 . S
H4496 C4504 0.929 . S
H4497 C4506 0.930 . S
H4498 C4508 0.930 . S
H4499 C4511 0.929 . S
H4500 C4514 0.930 . S
H4501 C4516 0.960 . S
H4502 C4516 0.960 . S
H4503 C4516 0.960 . S
C4504 H4496 0.929 . S
C4504 C4505 1.377 . S
C4504 C4506 1.384 . S
C4505 C4504 1.377 . S
C4505 C4511 1.390 . S
C4506 H4497 0.930 . S
C4506 C4504 1.384 . S
C4506 C4507 1.372 . S
C4507 C4506 1.372 . S
C4507 C4508 1.400 . S
C4507 C4512 1.490 . S
C4508 H4498 0.930 . S
C4508 C4507 1.400 . S
C4508 C4511 1.386 . S
H4509 C4525 0.930 . S
H4510 C4526 0.931 . S
C4511 H4499 0.929 . S
C4511 C4505 1.390 . S
C4511 C4508 1.386 . S
C4512 C4507 1.490 . S
C4512 C4514 1.395 . S
C4512 C4515 1.403 . S
H4513 C4519 0.930 . S
C4514 H4500 0.930 . S
C4514 C4512 1.395 . S
C4514 C4517 1.403 . S
C4515 C4512 1.403 . S
C4515 C4516 1.524 . S
C4515 C4519 1.400 . S
C4516 H4501 0.960 . S
C4516 H4502 0.960 . S
C4516 H4503 0.960 . S
C4516 C4515 1.524 . S
C4517 C4514 1.403 . S
C4517 C4518 1.392 . S
C4517 C4521 1.495 . S
C4518 C4517 1.392 . S
C4518 C4519 1.385 . S
C4518 C4520 1.478 . S
C4519 H4513 0.930 . S
C4519 C4515 1.400 . S
C4519 C4518 1.385 . S
C4520 C4518 1.478 . S
C4520 C4522 1.381 . S
C4520 C4526 1.383 . S
C4521 C4517 1.495 . S
C4521 H4527 0.959 . S
C4521 H4528 0.961 . S
C4521 H4529 0.960 . S
C4522 C4520 1.381 . S
C4522 C4523 1.394 . S
C4522 H4530 0.930 . S
C4523 C4522 1.394 . S
C4523 C4524 1.383 . S
C4523 H4531 0.929 . S
C4524 C4523 1.383 . S
C4524 C4525 1.377 . S
C4525 H4509 0.930 . S
C4525 C4524 1.377 . S
C4525 C4526 1.379 . S
C4526 H4510 0.931 . S
C4526 C4520 1.383 . S
C4526 C4525 1.379 . S
H4527 C4521 0.959 . S
H4528 C4521 0.961 . S
H4529 C4521 0.960 . S
H4530 C4522 0.930 . S
H4531 C4523 0.929 . S
H4532 C4540 0.929 . S
H4533 C4542 0.930 . S
H4534 C4544 0.930 . S
H4535 C4547 0.929 . S
H4536 C4550 0.930 . S
H4537 C4552 0.960 . S
H4538 C4552 0.960 . S
H4539 C4552 0.960 . S
C4540 H4532 0.929 . S
C4540 C4541 1.377 . S
C4540 C4542 1.384 . S
C4541 C4540 1.377 . S
C4541 C4547 1.390 . S
C4542 H4533 0.930 . S
C4542 C4540 1.384 . S
C4542 C4543 1.372 . S
C4543 C4542 1.372 . S
C4543 C4544 1.400 . S
C4543 C4548 1.490 . S
C4544 H4534 0.930 . S
C4544 C4543 1.400 . S
C4544 C4547 1.386 . S
H4545 C4561 0.930 . S
H4546 C4562 0.931 . S
C4547 H4535 0.929 . S
C4547 C4541 1.390 . S
C4547 C4544 1.386 . S
C4548 C4543 1.490 . S
C4548 C4550 1.395 . S
C4548 C4551 1.403 . S
H4549 C4555 0.930 . S
C4550 H4536 0.930 . S
C4550 C4548 1.395 . S
C4550 C4553 1.403 . S
C4551 C4548 1.403 . S
C4551 C4552 1.524 . S
C4551 C4555 1.400 . S
C4552 H4537 0.960 . S
C4552 H4538 0.960 . S
C4552 H4539 0.960 . S
C4552 C4551 1.524 . S
C4553 C4550 1.403 . S
C4553 C4554 1.392 . S
C4553 C4557 1.495 . S
C4554 C4553 1.392 . S
C4554 C4555 1.385 . S
C4554 C4556 1.478 . S
C4555 H4549 0.930 . S
C4555 C4551 1.400 . S
C4555 C4554 1.385 . S
C4556 C4554 1.478 . S
C4556 C4558 1.381 . S
C4556 C4562 1.383 . S
C4557 C4553 1.495 . S
C4557 H4563 0.959 . S
C4557 H4564 0.961 . S
C4557 H4565 0.960 . S
C4558 C4556 1.381 . S
C4558 C4559 1.394 . S
C4558 H4566 0.930 . S
C4559 C4558 1.394 . S
C4559 C4560 1.383 . S
C4559 H4567 0.929 . S
C4560 C4559 1.383 . S
C4560 C4561 1.377 . S
C4561 H4545 0.930 . S
C4561 C4560 1.377 . S
C4561 C4562 1.379 . S
C4562 H4546 0.931 . S
C4562 C4556 1.383 . S
C4562 C4561 1.379 . S
H4563 C4557 0.959 . S
H4564 C4557 0.961 . S
H4565 C4557 0.960 . S
H4566 C4558 0.930 . S
H4567 C4559 0.929 . S
H4568 C4576 0.929 . S
H4569 C4578 0.930 . S
H4570 C4580 0.930 . S
H4571 C4583 0.929 . S
H4572 C4586 0.930 . S
H4573 C4588 0.960 . S
H4574 C4588 0.960 . S
H4575 C4588 0.960 . S
C4576 H4568 0.929 . S
C4576 C4577 1.377 . S
C4576 C4578 1.384 . S
C4577 C4576 1.377 . S
C4577 C4583 1.390 . S
C4578 H4569 0.930 . S
C4578 C4576 1.384 . S
C4578 C4579 1.372 . S
C4579 C4578 1.372 . S
C4579 C4580 1.400 . S
C4579 C4584 1.490 . S
C4580 H4570 0.930 . S
C4580 C4579 1.400 . S
C4580 C4583 1.386 . S
H4581 C4597 0.930 . S
H4582 C4598 0.931 . S
C4583 H4571 0.929 . S
C4583 C4577 1.390 . S
C4583 C4580 1.386 . S
C4584 C4579 1.490 . S
C4584 C4586 1.395 . S
C4584 C4587 1.403 . S
H4585 C4591 0.930 . S
C4586 H4572 0.930 . S
C4586 C4584 1.395 . S
C4586 C4589 1.403 . S
C4587 C4584 1.403 . S
C4587 C4588 1.524 . S
C4587 C4591 1.400 . S
C4588 H4573 0.960 . S
C4588 H4574 0.960 . S
C4588 H4575 0.960 . S
C4588 C4587 1.524 . S
C4589 C4586 1.403 . S
C4589 C4590 1.392 . S
C4589 C4593 1.495 . S
C4590 C4589 1.392 . S
C4590 C4591 1.385 . S
C4590 C4592 1.478 . S
C4591 H4585 0.930 . S
C4591 C4587 1.400 . S
C4591 C4590 1.385 . S
C4592 C4590 1.478 . S
C4592 C4594 1.381 . S
C4592 C4598 1.383 . S
C4593 C4589 1.495 . S
C4593 H4599 0.959 . S
C4593 H4600 0.961 . S
C4593 H4601 0.960 . S
C4594 C4592 1.381 . S
C4594 C4595 1.394 . S
C4594 H4602 0.930 . S
C4595 C4594 1.394 . S
C4595 C4596 1.383 . S
C4595 H4603 0.929 . S
C4596 C4595 1.383 . S
C4596 C4597 1.377 . S
C4597 H4581 0.930 . S
C4597 C4596 1.377 . S
C4597 C4598 1.379 . S
C4598 H4582 0.931 . S
C4598 C4592 1.383 . S
C4598 C4597 1.379 . S
H4599 C4593 0.959 . S
H4600 C4593 0.961 . S
H4601 C4593 0.960 . S
H4602 C4594 0.930 . S
H4603 C4595 0.929 . S
H4604 C4612 0.929 . S
H4605 C4614 0.930 . S
H4606 C4616 0.930 . S
H4607 C4619 0.929 . S
H4608 C4622 0.930 . S
H4609 C4624 0.960 . S
H4610 C4624 0.960 . S
H4611 C4624 0.960 . S
C4612 H4604 0.929 . S
C4612 C4613 1.377 . S
C4612 C4614 1.384 . S
C4613 C4612 1.377 . S
C4613 C4619 1.390 . S
C4614 H4605 0.930 . S
C4614 C4612 1.384 . S
C4614 C4615 1.372 . S
C4615 C4614 1.372 . S
C4615 C4616 1.400 . S
C4615 C4620 1.490 . S
C4616 H4606 0.930 . S
C4616 C4615 1.400 . S
C4616 C4619 1.386 . S
H4617 C4633 0.930 . S
H4618 C4634 0.931 . S
C4619 H4607 0.929 . S
C4619 C4613 1.390 . S
C4619 C4616 1.386 . S
C4620 C4615 1.490 . S
C4620 C4622 1.395 . S
C4620 C4623 1.403 . S
H4621 C4627 0.930 . S
C4622 H4608 0.930 . S
C4622 C4620 1.395 . S
C4622 C4625 1.403 . S
C4623 C4620 1.403 . S
C4623 C4624 1.524 . S
C4623 C4627 1.400 . S
C4624 H4609 0.960 . S
C4624 H4610 0.960 . S
C4624 H4611 0.960 . S
C4624 C4623 1.524 . S
C4625 C4622 1.403 . S
C4625 C4626 1.392 . S
C4625 C4629 1.495 . S
C4626 C4625 1.392 . S
C4626 C4627 1.385 . S
C4626 C4628 1.478 . S
C4627 H4621 0.930 . S
C4627 C4623 1.400 . S
C4627 C4626 1.385 . S
C4628 C4626 1.478 . S
C4628 C4630 1.381 . S
C4628 C4634 1.383 . S
C4629 C4625 1.495 . S
C4629 H4635 0.959 . S
C4629 H4636 0.961 . S
C4629 H4637 0.960 . S
C4630 C4628 1.381 . S
C4630 C4631 1.394 . S
C4630 H4638 0.930 . S
C4631 C4630 1.394 . S
C4631 C4632 1.383 . S
C4631 H4639 0.929 . S
C4632 C4631 1.383 . S
C4632 C4633 1.377 . S
C4633 H4617 0.930 . S
C4633 C4632 1.377 . S
C4633 C4634 1.379 . S
C4634 H4618 0.931 . S
C4634 C4628 1.383 . S
C4634 C4633 1.379 . S
H4635 C4629 0.959 . S
H4636 C4629 0.961 . S
H4637 C4629 0.960 . S
H4638 C4630 0.930 . S
H4639 C4631 0.929 . S
H4640 C4648 0.929 . S
H4641 C4650 0.930 . S
H4642 C4652 0.930 . S
H4643 C4655 0.929 . S
H4644 C4658 0.930 . S
H4645 C4660 0.960 . S
H4646 C4660 0.960 . S
H4647 C4660 0.960 . S
C4648 H4640 0.929 . S
C4648 C4649 1.377 . S
C4648 C4650 1.384 . S
C4649 C4648 1.377 . S
C4649 C4655 1.390 . S
C4650 H4641 0.930 . S
C4650 C4648 1.384 . S
C4650 C4651 1.372 . S
C4651 C4650 1.372 . S
C4651 C4652 1.400 . S
C4651 C4656 1.490 . S
C4652 H4642 0.930 . S
C4652 C4651 1.400 . S
C4652 C4655 1.386 . S
H4653 C4669 0.930 . S
H4654 C4670 0.931 . S
C4655 H4643 0.929 . S
C4655 C4649 1.390 . S
C4655 C4652 1.386 . S
C4656 C4651 1.490 . S
C4656 C4658 1.395 . S
C4656 C4659 1.403 . S
H4657 C4663 0.930 . S
C4658 H4644 0.930 . S
C4658 C4656 1.395 . S
C4658 C4661 1.403 . S
C4659 C4656 1.403 . S
C4659 C4660 1.524 . S
C4659 C4663 1.400 . S
C4660 H4645 0.960 . S
C4660 H4646 0.960 . S
C4660 H4647 0.960 . S
C4660 C4659 1.524 . S
C4661 C4658 1.403 . S
C4661 C4662 1.392 . S
C4661 C4665 1.495 . S
C4662 C4661 1.392 . S
C4662 C4663 1.385 . S
C4662 C4664 1.478 . S
C4663 H4657 0.930 . S
C4663 C4659 1.400 . S
C4663 C4662 1.385 . S
C4664 C4662 1.478 . S
C4664 C4666 1.381 . S
C4664 C4670 1.383 . S
C4665 C4661 1.495 . S
C4665 H4671 0.959 . S
C4665 H4672 0.961 . S
C4665 H4673 0.960 . S
C4666 C4664 1.381 . S
C4666 C4667 1.394 . S
C4666 H4674 0.930 . S
C4667 C4666 1.394 . S
C4667 C4668 1.383 . S
C4667 H4675 0.929 . S
C4668 C4667 1.383 . S
C4668 C4669 1.377 . S
C4669 H4653 0.930 . S
C4669 C4668 1.377 . S
C4669 C4670 1.379 . S
C4670 H4654 0.931 . S
C4670 C4664 1.383 . S
C4670 C4669 1.379 . S
H4671 C4665 0.959 . S
H4672 C4665 0.961 . S
H4673 C4665 0.960 . S
H4674 C4666 0.930 . S
H4675 C4667 0.929 . S
H4676 C4684 0.929 . S
H4677 C4686 0.930 . S
H4678 C4688 0.930 . S
H4679 C4691 0.929 . S
H4680 C4694 0.930 . S
H4681 C4696 0.960 . S
H4682 C4696 0.960 . S
H4683 C4696 0.960 . S
C4684 H4676 0.929 . S
C4684 C4685 1.377 . S
C4684 C4686 1.384 . S
C4685 C4684 1.377 . S
C4685 C4691 1.390 . S
C4686 H4677 0.930 . S
C4686 C4684 1.384 . S
C4686 C4687 1.372 . S
C4687 C4686 1.372 . S
C4687 C4688 1.400 . S
C4687 C4692 1.490 . S
C4688 H4678 0.930 . S
C4688 C4687 1.400 . S
C4688 C4691 1.386 . S
H4689 C4705 0.930 . S
H4690 C4706 0.931 . S
C4691 H4679 0.929 . S
C4691 C4685 1.390 . S
C4691 C4688 1.386 . S
C4692 C4687 1.490 . S
C4692 C4694 1.395 . S
C4692 C4695 1.403 . S
H4693 C4699 0.930 . S
C4694 H4680 0.930 . S
C4694 C4692 1.395 . S
C4694 C4697 1.403 . S
C4695 C4692 1.403 . S
C4695 C4696 1.524 . S
C4695 C4699 1.400 . S
C4696 H4681 0.960 . S
C4696 H4682 0.960 . S
C4696 H4683 0.960 . S
C4696 C4695 1.524 . S
C4697 C4694 1.403 . S
C4697 C4698 1.392 . S
C4697 C4701 1.495 . S
C4698 C4697 1.392 . S
C4698 C4699 1.385 . S
C4698 C4700 1.478 . S
C4699 H4693 0.930 . S
C4699 C4695 1.400 . S
C4699 C4698 1.385 . S
C4700 C4698 1.478 . S
C4700 C4702 1.381 . S
C4700 C4706 1.383 . S
C4701 C4697 1.495 . S
C4701 H4707 0.959 . S
C4701 H4708 0.961 . S
C4701 H4709 0.960 . S
C4702 C4700 1.381 . S
C4702 C4703 1.394 . S
C4702 H4710 0.930 . S
C4703 C4702 1.394 . S
C4703 C4704 1.383 . S
C4703 H4711 0.929 . S
C4704 C4703 1.383 . S
C4704 C4705 1.377 . S
C4705 H4689 0.930 . S
C4705 C4704 1.377 . S
C4705 C4706 1.379 . S
C4706 H4690 0.931 . S
C4706 C4700 1.383 . S
C4706 C4705 1.379 . S
H4707 C4701 0.959 . S
H4708 C4701 0.961 . S
H4709 C4701 0.960 . S
H4710 C4702 0.930 . S
H4711 C4703 0.929 . S
H4712 C4720 0.929 . S
H4713 C4722 0.930 . S
H4714 C4724 0.930 . S
H4715 C4727 0.929 . S
H4716 C4730 0.930 . S
H4717 C4732 0.960 . S
H4718 C4732 0.960 . S
H4719 C4732 0.960 . S
C4720 H4712 0.929 . S
C4720 C4721 1.377 . S
C4720 C4722 1.384 . S
C4721 C4720 1.377 . S
C4721 C4727 1.390 . S
C4722 H4713 0.930 . S
C4722 C4720 1.384 . S
C4722 C4723 1.372 . S
C4723 C4722 1.372 . S
C4723 C4724 1.400 . S
C4723 C4728 1.490 . S
C4724 H4714 0.930 . S
C4724 C4723 1.400 . S
C4724 C4727 1.386 . S
H4725 C4741 0.930 . S
H4726 C4742 0.931 . S
C4727 H4715 0.929 . S
C4727 C4721 1.390 . S
C4727 C4724 1.386 . S
C4728 C4723 1.490 . S
C4728 C4730 1.395 . S
C4728 C4731 1.403 . S
H4729 C4735 0.930 . S
C4730 H4716 0.930 . S
C4730 C4728 1.395 . S
C4730 C4733 1.403 . S
C4731 C4728 1.403 . S
C4731 C4732 1.524 . S
C4731 C4735 1.400 . S
C4732 H4717 0.960 . S
C4732 H4718 0.960 . S
C4732 H4719 0.960 . S
C4732 C4731 1.524 . S
C4733 C4730 1.403 . S
C4733 C4734 1.392 . S
C4733 C4737 1.495 . S
C4734 C4733 1.392 . S
C4734 C4735 1.385 . S
C4734 C4736 1.478 . S
C4735 H4729 0.930 . S
C4735 C4731 1.400 . S
C4735 C4734 1.385 . S
C4736 C4734 1.478 . S
C4736 C4738 1.381 . S
C4736 C4742 1.383 . S
C4737 C4733 1.495 . S
C4737 H4743 0.959 . S
C4737 H4744 0.961 . S
C4737 H4745 0.960 . S
C4738 C4736 1.381 . S
C4738 C4739 1.394 . S
C4738 H4746 0.930 . S
C4739 C4738 1.394 . S
C4739 C4740 1.383 . S
C4739 H4747 0.929 . S
C4740 C4739 1.383 . S
C4740 C4741 1.377 . S
C4741 H4725 0.930 . S
C4741 C4740 1.377 . S
C4741 C4742 1.379 . S
C4742 H4726 0.931 . S
C4742 C4736 1.383 . S
C4742 C4741 1.379 . S
H4743 C4737 0.959 . S
H4744 C4737 0.961 . S
H4745 C4737 0.960 . S
H4746 C4738 0.930 . S
H4747 C4739 0.929 . S
H4748 C4756 0.929 . S
H4749 C4758 0.930 . S
H4750 C4760 0.930 . S
H4751 C4763 0.929 . S
H4752 C4766 0.930 . S
H4753 C4768 0.960 . S
H4754 C4768 0.960 . S
H4755 C4768 0.960 . S
C4756 H4748 0.929 . S
C4756 C4757 1.377 . S
C4756 C4758 1.384 . S
C4757 C4756 1.377 . S
C4757 C4763 1.390 . S
C4758 H4749 0.930 . S
C4758 C4756 1.384 . S
C4758 C4759 1.372 . S
C4759 C4758 1.372 . S
C4759 C4760 1.400 . S
C4759 C4764 1.490 . S
C4760 H4750 0.930 . S
C4760 C4759 1.400 . S
C4760 C4763 1.386 . S
H4761 C4777 0.930 . S
H4762 C4778 0.931 . S
C4763 H4751 0.929 . S
C4763 C4757 1.390 . S
C4763 C4760 1.386 . S
C4764 C4759 1.490 . S
C4764 C4766 1.395 . S
C4764 C4767 1.403 . S
H4765 C4771 0.930 . S
C4766 H4752 0.930 . S
C4766 C4764 1.395 . S
C4766 C4769 1.403 . S
C4767 C4764 1.403 . S
C4767 C4768 1.524 . S
C4767 C4771 1.400 . S
C4768 H4753 0.960 . S
C4768 H4754 0.960 . S
C4768 H4755 0.960 . S
C4768 C4767 1.524 . S
C4769 C4766 1.403 . S
C4769 C4770 1.392 . S
C4769 C4773 1.495 . S
C4770 C4769 1.392 . S
C4770 C4771 1.385 . S
C4770 C4772 1.478 . S
C4771 H4765 0.930 . S
C4771 C4767 1.400 . S
C4771 C4770 1.385 . S
C4772 C4770 1.478 . S
C4772 C4774 1.381 . S
C4772 C4778 1.383 . S
C4773 C4769 1.495 . S
C4773 H4779 0.959 . S
C4773 H4780 0.961 . S
C4773 H4781 0.960 . S
C4774 C4772 1.381 . S
C4774 C4775 1.394 . S
C4774 H4782 0.930 . S
C4775 C4774 1.394 . S
C4775 C4776 1.383 . S
C4775 H4783 0.929 . S
C4776 C4775 1.383 . S
C4776 C4777 1.377 . S
C4777 H4761 0.930 . S
C4777 C4776 1.377 . S
C4777 C4778 1.379 . S
C4778 H4762 0.931 . S
C4778 C4772 1.383 . S
C4778 C4777 1.379 . S
H4779 C4773 0.959 . S
H4780 C4773 0.961 . S
H4781 C4773 0.960 . S
H4782 C4774 0.930 . S
H4783 C4775 0.929 . S
H4784 C4792 0.929 . S
H4785 C4794 0.930 . S
H4786 C4796 0.930 . S
H4787 C4799 0.929 . S
H4788 C4802 0.930 . S
H4789 C4804 0.960 . S
H4790 C4804 0.960 . S
H4791 C4804 0.960 . S
C4792 H4784 0.929 . S
C4792 C4793 1.377 . S
C4792 C4794 1.384 . S
C4793 C4792 1.377 . S
C4793 C4799 1.390 . S
C4794 H4785 0.930 . S
C4794 C4792 1.384 . S
C4794 C4795 1.372 . S
C4795 C4794 1.372 . S
C4795 C4796 1.400 . S
C4795 C4800 1.490 . S
C4796 H4786 0.930 . S
C4796 C4795 1.400 . S
C4796 C4799 1.386 . S
H4797 C4813 0.930 . S
H4798 C4814 0.931 . S
C4799 H4787 0.929 . S
C4799 C4793 1.390 . S
C4799 C4796 1.386 . S
C4800 C4795 1.490 . S
C4800 C4802 1.395 . S
C4800 C4803 1.403 . S
H4801 C4807 0.930 . S
C4802 H4788 0.930 . S
C4802 C4800 1.395 . S
C4802 C4805 1.403 . S
C4803 C4800 1.403 . S
C4803 C4804 1.524 . S
C4803 C4807 1.400 . S
C4804 H4789 0.960 . S
C4804 H4790 0.960 . S
C4804 H4791 0.960 . S
C4804 C4803 1.524 . S
C4805 C4802 1.403 . S
C4805 C4806 1.392 . S
C4805 C4809 1.495 . S
C4806 C4805 1.392 . S
C4806 C4807 1.385 . S
C4806 C4808 1.478 . S
C4807 H4801 0.930 . S
C4807 C4803 1.400 . S
C4807 C4806 1.385 . S
C4808 C4806 1.478 . S
C4808 C4810 1.381 . S
C4808 C4814 1.383 . S
C4809 C4805 1.495 . S
C4809 H4815 0.959 . S
C4809 H4816 0.961 . S
C4809 H4817 0.960 . S
C4810 C4808 1.381 . S
C4810 C4811 1.394 . S
C4810 H4818 0.930 . S
C4811 C4810 1.394 . S
C4811 C4812 1.383 . S
C4811 H4819 0.929 . S
C4812 C4811 1.383 . S
C4812 C4813 1.377 . S
C4813 H4797 0.930 . S
C4813 C4812 1.377 . S
C4813 C4814 1.379 . S
C4814 H4798 0.931 . S
C4814 C4808 1.383 . S
C4814 C4813 1.379 . S
H4815 C4809 0.959 . S
H4816 C4809 0.961 . S
H4817 C4809 0.960 . S
H4818 C4810 0.930 . S
H4819 C4811 0.929 . S
H4820 C4828 0.929 . S
H4821 C4830 0.930 . S
H4822 C4832 0.930 . S
H4823 C4835 0.929 . S
H4824 C4838 0.930 . S
H4825 C4840 0.960 . S
H4826 C4840 0.960 . S
H4827 C4840 0.960 . S
C4828 H4820 0.929 . S
C4828 C4829 1.377 . S
C4828 C4830 1.384 . S
C4829 C4828 1.377 . S
C4829 C4835 1.390 . S
C4830 H4821 0.930 . S
C4830 C4828 1.384 . S
C4830 C4831 1.372 . S
C4831 C4830 1.372 . S
C4831 C4832 1.400 . S
C4831 C4836 1.490 . S
C4832 H4822 0.930 . S
C4832 C4831 1.400 . S
C4832 C4835 1.386 . S
H4833 C4849 0.930 . S
H4834 C4850 0.931 . S
C4835 H4823 0.929 . S
C4835 C4829 1.390 . S
C4835 C4832 1.386 . S
C4836 C4831 1.490 . S
C4836 C4838 1.395 . S
C4836 C4839 1.403 . S
H4837 C4843 0.930 . S
C4838 H4824 0.930 . S
C4838 C4836 1.395 . S
C4838 C4841 1.403 . S
C4839 C4836 1.403 . S
C4839 C4840 1.524 . S
C4839 C4843 1.400 . S
C4840 H4825 0.960 . S
C4840 H4826 0.960 . S
C4840 H4827 0.960 . S
C4840 C4839 1.524 . S
C4841 C4838 1.403 . S
C4841 C4842 1.392 . S
C4841 C4845 1.495 . S
C4842 C4841 1.392 . S
C4842 C4843 1.385 . S
C4842 C4844 1.478 . S
C4843 H4837 0.930 . S
C4843 C4839 1.400 . S
C4843 C4842 1.385 . S
C4844 C4842 1.478 . S
C4844 C4846 1.381 . S
C4844 C4850 1.383 . S
C4845 C4841 1.495 . S
C4845 H4851 0.959 . S
C4845 H4852 0.961 . S
C4845 H4853 0.960 . S
C4846 C4844 1.381 . S
C4846 C4847 1.394 . S
C4846 H4854 0.930 . S
C4847 C4846 1.394 . S
C4847 C4848 1.383 . S
C4847 H4855 0.929 . S
C4848 C4847 1.383 . S
C4848 C4849 1.377 . S
C4849 H4833 0.930 . S
C4849 C4848 1.377 . S
C4849 C4850 1.379 . S
C4850 H4834 0.931 . S
C4850 C4844 1.383 . S
C4850 C4849 1.379 . S
H4851 C4845 0.959 . S
H4852 C4845 0.961 . S
H4853 C4845 0.960 . S
H4854 C4846 0.930 . S
H4855 C4847 0.929 . S
H4856 C4864 0.929 . S
H4857 C4866 0.930 . S
H4858 C4868 0.930 . S
H4859 C4871 0.929 . S
H4860 C4874 0.930 . S
H4861 C4876 0.960 . S
H4862 C4876 0.960 . S
H4863 C4876 0.960 . S
C4864 H4856 0.929 . S
C4864 C4865 1.377 . S
C4864 C4866 1.384 . S
C4865 C4864 1.377 . S
C4865 C4871 1.390 . S
C4866 H4857 0.930 . S
C4866 C4864 1.384 . S
C4866 C4867 1.372 . S
C4867 C4866 1.372 . S
C4867 C4868 1.400 . S
C4867 C4872 1.490 . S
C4868 H4858 0.930 . S
C4868 C4867 1.400 . S
C4868 C4871 1.386 . S
H4869 C4885 0.930 . S
H4870 C4886 0.931 . S
C4871 H4859 0.929 . S
C4871 C4865 1.390 . S
C4871 C4868 1.386 . S
C4872 C4867 1.490 . S
C4872 C4874 1.395 . S
C4872 C4875 1.403 . S
H4873 C4879 0.930 . S
C4874 H4860 0.930 . S
C4874 C4872 1.395 . S
C4874 C4877 1.403 . S
C4875 C4872 1.403 . S
C4875 C4876 1.524 . S
C4875 C4879 1.400 . S
C4876 H4861 0.960 . S
C4876 H4862 0.960 . S
C4876 H4863 0.960 . S
C4876 C4875 1.524 . S
C4877 C4874 1.403 . S
C4877 C4878 1.392 . S
C4877 C4881 1.495 . S
C4878 C4877 1.392 . S
C4878 C4879 1.385 . S
C4878 C4880 1.478 . S
C4879 H4873 0.930 . S
C4879 C4875 1.400 . S
C4879 C4878 1.385 . S
C4880 C4878 1.478 . S
C4880 C4882 1.381 . S
C4880 C4886 1.383 . S
C4881 C4877 1.495 . S
C4881 H4887 0.959 . S
C4881 H4888 0.961 . S
C4881 H4889 0.960 . S
C4882 C4880 1.381 . S
C4882 C4883 1.394 . S
C4882 H4890 0.930 . S
C4883 C4882 1.394 . S
C4883 C4884 1.383 . S
C4883 H4891 0.929 . S
C4884 C4883 1.383 . S
C4884 C4885 1.377 . S
C4885 H4869 0.930 . S
C4885 C4884 1.377 . S
C4885 C4886 1.379 . S
C4886 H4870 0.931 . S
C4886 C4880 1.383 . S
C4886 C4885 1.379 . S
H4887 C4881 0.959 . S
H4888 C4881 0.961 . S
H4889 C4881 0.960 . S
H4890 C4882 0.930 . S
H4891 C4883 0.929 . S
H4892 C4900 0.929 . S
H4893 C4902 0.930 . S
H4894 C4904 0.930 . S
H4895 C4907 0.929 . S
H4896 C4910 0.930 . S
H4897 C4912 0.960 . S
H4898 C4912 0.960 . S
H4899 C4912 0.960 . S
C4900 H4892 0.929 . S
C4900 C4901 1.377 . S
C4900 C4902 1.384 . S
C4901 C4900 1.377 . S
C4901 C4907 1.390 . S
C4902 H4893 0.930 . S
C4902 C4900 1.384 . S
C4902 C4903 1.372 . S
C4903 C4902 1.372 . S
C4903 C4904 1.400 . S
C4903 C4908 1.490 . S
C4904 H4894 0.930 . S
C4904 C4903 1.400 . S
C4904 C4907 1.386 . S
H4905 C4921 0.930 . S
H4906 C4922 0.931 . S
C4907 H4895 0.929 . S
C4907 C4901 1.390 . S
C4907 C4904 1.386 . S
C4908 C4903 1.490 . S
C4908 C4910 1.395 . S
C4908 C4911 1.403 . S
H4909 C4915 0.930 . S
C4910 H4896 0.930 . S
C4910 C4908 1.395 . S
C4910 C4913 1.403 . S
C4911 C4908 1.403 . S
C4911 C4912 1.524 . S
C4911 C4915 1.400 . S
C4912 H4897 0.960 . S
C4912 H4898 0.960 . S
C4912 H4899 0.960 . S
C4912 C4911 1.524 . S
C4913 C4910 1.403 . S
C4913 C4914 1.392 . S
C4913 C4917 1.495 . S
C4914 C4913 1.392 . S
C4914 C4915 1.385 . S
C4914 C4916 1.478 . S
C4915 H4909 0.930 . S
C4915 C4911 1.400 . S
C4915 C4914 1.385 . S
C4916 C4914 1.478 . S
C4916 C4918 1.381 . S
C4916 C4922 1.383 . S
C4917 C4913 1.495 . S
C4917 H4923 0.959 . S
C4917 H4924 0.961 . S
C4917 H4925 0.960 . S
C4918 C4916 1.381 . S
C4918 C4919 1.394 . S
C4918 H4926 0.930 . S
C4919 C4918 1.394 . S
C4919 C4920 1.383 . S
C4919 H4927 0.929 . S
C4920 C4919 1.383 . S
C4920 C4921 1.377 . S
C4921 H4905 0.930 . S
C4921 C4920 1.377 . S
C4921 C4922 1.379 . S
C4922 H4906 0.931 . S
C4922 C4916 1.383 . S
C4922 C4921 1.379 . S
H4923 C4917 0.959 . S
H4924 C4917 0.961 . S
H4925 C4917 0.960 . S
H4926 C4918 0.930 . S
H4927 C4919 0.929 . S
H4928 C4936 0.929 . S
H4929 C4938 0.930 . S
H4930 C4940 0.930 . S
H4931 C4943 0.929 . S
H4932 C4946 0.930 . S
H4933 C4948 0.960 . S
H4934 C4948 0.960 . S
H4935 C4948 0.960 . S
C4936 H4928 0.929 . S
C4936 C4937 1.377 . S
C4936 C4938 1.384 . S
C4937 C4936 1.377 . S
C4937 C4943 1.390 . S
C4938 H4929 0.930 . S
C4938 C4936 1.384 . S
C4938 C4939 1.372 . S
C4939 C4938 1.372 . S
C4939 C4940 1.400 . S
C4939 C4944 1.490 . S
C4940 H4930 0.930 . S
C4940 C4939 1.400 . S
C4940 C4943 1.386 . S
H4941 C4957 0.930 . S
H4942 C4958 0.931 . S
C4943 H4931 0.929 . S
C4943 C4937 1.390 . S
C4943 C4940 1.386 . S
C4944 C4939 1.490 . S
C4944 C4946 1.395 . S
C4944 C4947 1.403 . S
H4945 C4951 0.930 . S
C4946 H4932 0.930 . S
C4946 C4944 1.395 . S
C4946 C4949 1.403 . S
C4947 C4944 1.403 . S
C4947 C4948 1.524 . S
C4947 C4951 1.400 . S
C4948 H4933 0.960 . S
C4948 H4934 0.960 . S
C4948 H4935 0.960 . S
C4948 C4947 1.524 . S
C4949 C4946 1.403 . S
C4949 C4950 1.392 . S
C4949 C4953 1.495 . S
C4950 C4949 1.392 . S
C4950 C4951 1.385 . S
C4950 C4952 1.478 . S
C4951 H4945 0.930 . S
C4951 C4947 1.400 . S
C4951 C4950 1.385 . S
C4952 C4950 1.478 . S
C4952 C4954 1.381 . S
C4952 C4958 1.383 . S
C4953 C4949 1.495 . S
C4953 H4959 0.959 . S
C4953 H4960 0.961 . S
C4953 H4961 0.960 . S
C4954 C4952 1.381 . S
C4954 C4955 1.394 . S
C4954 H4962 0.930 . S
C4955 C4954 1.394 . S
C4955 C4956 1.383 . S
C4955 H4963 0.929 . S
C4956 C4955 1.383 . S
C4956 C4957 1.377 . S
C4957 H4941 0.930 . S
C4957 C4956 1.377 . S
C4957 C4958 1.379 . S
C4958 H4942 0.931 . S
C4958 C4952 1.383 . S
C4958 C4957 1.379 . S
H4959 C4953 0.959 . S
H4960 C4953 0.961 . S
H4961 C4953 0.960 . S
H4962 C4954 0.930 . S
H4963 C4955 0.929 . S
H4964 C4972 0.929 . S
H4965 C4974 0.930 . S
H4966 C4976 0.930 . S
H4967 C4979 0.929 . S
H4968 C4982 0.930 . S
H4969 C4984 0.960 . S
H4970 C4984 0.960 . S
H4971 C4984 0.960 . S
C4972 H4964 0.929 . S
C4972 C4973 1.377 . S
C4972 C4974 1.384 . S
C4973 C4972 1.377 . S
C4973 C4979 1.390 . S
C4974 H4965 0.930 . S
C4974 C4972 1.384 . S
C4974 C4975 1.372 . S
C4975 C4974 1.372 . S
C4975 C4976 1.400 . S
C4975 C4980 1.490 . S
C4976 H4966 0.930 . S
C4976 C4975 1.400 . S
C4976 C4979 1.386 . S
H4977 C4993 0.930 . S
H4978 C4994 0.931 . S
C4979 H4967 0.929 . S
C4979 C4973 1.390 . S
C4979 C4976 1.386 . S
C4980 C4975 1.490 . S
C4980 C4982 1.395 . S
C4980 C4983 1.403 . S
H4981 C4987 0.930 . S
C4982 H4968 0.930 . S
C4982 C4980 1.395 . S
C4982 C4985 1.403 . S
C4983 C4980 1.403 . S
C4983 C4984 1.524 . S
C4983 C4987 1.400 . S
C4984 H4969 0.960 . S
C4984 H4970 0.960 . S
C4984 H4971 0.960 . S
C4984 C4983 1.524 . S
C4985 C4982 1.403 . S
C4985 C4986 1.392 . S
C4985 C4989 1.495 . S
C4986 C4985 1.392 . S
C4986 C4987 1.385 . S
C4986 C4988 1.478 . S
C4987 H4981 0.930 . S
C4987 C4983 1.400 . S
C4987 C4986 1.385 . S
C4988 C4986 1.478 . S
C4988 C4990 1.381 . S
C4988 C4994 1.383 . S
C4989 C4985 1.495 . S
C4989 H4995 0.959 . S
C4989 H4996 0.961 . S
C4989 H4997 0.960 . S
C4990 C4988 1.381 . S
C4990 C4991 1.394 . S
C4990 H4998 0.930 . S
C4991 C4990 1.394 . S
C4991 C4992 1.383 . S
C4991 H4999 0.929 . S
C4992 C4991 1.383 . S
C4992 C4993 1.377 . S
C4993 H4977 0.930 . S
C4993 C4992 1.377 . S
C4993 C4994 1.379 . S
C4994 H4978 0.931 . S
C4994 C4988 1.383 . S
C4994 C4993 1.379 . S
H4995 C4989 0.959 . S
H4996 C4989 0.961 . S
H4997 C4989 0.960 . S
H4998 C4990 0.930 . S
H4999 C4991 0.929 . S
H5000 C5008 0.929 . S
H5001 C5010 0.930 . S
H5002 C5012 0.930 . S
H5003 C5015 0.929 . S
H5004 C5018 0.930 . S
H5005 C5020 0.960 . S
H5006 C5020 0.960 . S
H5007 C5020 0.960 . S
C5008 H5000 0.929 . S
C5008 C5009 1.377 . S
C5008 C5010 1.384 . S
C5009 C5008 1.377 . S
C5009 C5015 1.390 . S
C5010 H5001 0.930 . S
C5010 C5008 1.384 . S
C5010 C5011 1.372 . S
C5011 C5010 1.372 . S
C5011 C5012 1.400 . S
C5011 C5016 1.490 . S
C5012 H5002 0.930 . S
C5012 C5011 1.400 . S
C5012 C5015 1.386 . S
H5013 C5029 0.930 . S
H5014 C5030 0.931 . S
C5015 H5003 0.929 . S
C5015 C5009 1.390 . S
C5015 C5012 1.386 . S
C5016 C5011 1.490 . S
C5016 C5018 1.395 . S
C5016 C5019 1.403 . S
H5017 C5023 0.930 . S
C5018 H5004 0.930 . S
C5018 C5016 1.395 . S
C5018 C5021 1.403 . S
C5019 C5016 1.403 . S
C5019 C5020 1.524 . S
C5019 C5023 1.400 . S
C5020 H5005 0.960 . S
C5020 H5006 0.960 . S
C5020 H5007 0.960 . S
C5020 C5019 1.524 . S
C5021 C5018 1.403 . S
C5021 C5022 1.392 . S
C5021 C5025 1.495 . S
C5022 C5021 1.392 . S
C5022 C5023 1.385 . S
C5022 C5024 1.478 . S
C5023 H5017 0.930 . S
C5023 C5019 1.400 . S
C5023 C5022 1.385 . S
C5024 C5022 1.478 . S
C5024 C5026 1.381 . S
C5024 C5030 1.383 . S
C5025 C5021 1.495 . S
C5025 H5031 0.959 . S
C5025 H5032 0.961 . S
C5025 H5033 0.960 . S
C5026 C5024 1.381 . S
C5026 C5027 1.394 . S
C5026 H5034 0.930 . S
C5027 C5026 1.394 . S
C5027 C5028 1.383 . S
C5027 H5035 0.929 . S
C5028 C5027 1.383 . S
C5028 C5029 1.377 . S
C5029 H5013 0.930 . S
C5029 C5028 1.377 . S
C5029 C5030 1.379 . S
C5030 H5014 0.931 . S
C5030 C5024 1.383 . S
C5030 C5029 1.379 . S
H5031 C5025 0.959 . S
H5032 C5025 0.961 . S
H5033 C5025 0.960 . S
H5034 C5026 0.930 . S
H5035 C5027 0.929 . S
H5036 C5044 0.929 . S
H5037 C5046 0.930 . S
H5038 C5048 0.930 . S
H5039 C5051 0.929 . S
H5040 C5054 0.930 . S
H5041 C5056 0.960 . S
H5042 C5056 0.960 . S
H5043 C5056 0.960 . S
C5044 H5036 0.929 . S
C5044 C5045 1.377 . S
C5044 C5046 1.384 . S
C5045 C5044 1.377 . S
C5045 C5051 1.390 . S
C5046 H5037 0.930 . S
C5046 C5044 1.384 . S
C5046 C5047 1.372 . S
C5047 C5046 1.372 . S
C5047 C5048 1.400 . S
C5047 C5052 1.490 . S
C5048 H5038 0.930 . S
C5048 C5047 1.400 . S
C5048 C5051 1.386 . S
H5049 C5065 0.930 . S
H5050 C5066 0.931 . S
C5051 H5039 0.929 . S
C5051 C5045 1.390 . S
C5051 C5048 1.386 . S
C5052 C5047 1.490 . S
C5052 C5054 1.395 . S
C5052 C5055 1.403 . S
H5053 C5059 0.930 . S
C5054 H5040 0.930 . S
C5054 C5052 1.395 . S
C5054 C5057 1.403 . S
C5055 C5052 1.403 . S
C5055 C5056 1.524 . S
C5055 C5059 1.400 . S
C5056 H5041 0.960 . S
C5056 H5042 0.960 . S
C5056 H5043 0.960 . S
C5056 C5055 1.524 . S
C5057 C5054 1.403 . S
C5057 C5058 1.392 . S
C5057 C5061 1.495 . S
C5058 C5057 1.392 . S
C5058 C5059 1.385 . S
C5058 C5060 1.478 . S
C5059 H5053 0.930 . S
C5059 C5055 1.400 . S
C5059 C5058 1.385 . S
C5060 C5058 1.478 . S
C5060 C5062 1.381 . S
C5060 C5066 1.383 . S
C5061 C5057 1.495 . S
C5061 H5067 0.959 . S
C5061 H5068 0.961 . S
C5061 H5069 0.960 . S
C5062 C5060 1.381 . S
C5062 C5063 1.394 . S
C5062 H5070 0.930 . S
C5063 C5062 1.394 . S
C5063 C5064 1.383 . S
C5063 H5071 0.929 . S
C5064 C5063 1.383 . S
C5064 C5065 1.377 . S
C5065 H5049 0.930 . S
C5065 C5064 1.377 . S
C5065 C5066 1.379 . S
C5066 H5050 0.931 . S
C5066 C5060 1.383 . S
C5066 C5065 1.379 . S
H5067 C5061 0.959 . S
H5068 C5061 0.961 . S
H5069 C5061 0.960 . S
H5070 C5062 0.930 . S
H5071 C5063 0.929 . S
H5072 C5080 0.929 . S
H5073 C5082 0.930 . S
H5074 C5084 0.930 . S
H5075 C5087 0.929 . S
H5076 C5090 0.930 . S
H5077 C5092 0.960 . S
H5078 C5092 0.960 . S
H5079 C5092 0.960 . S
C5080 H5072 0.929 . S
C5080 C5081 1.377 . S
C5080 C5082 1.384 . S
C5081 C5080 1.377 . S
C5081 C5087 1.390 . S
C5082 H5073 0.930 . S
C5082 C5080 1.384 . S
C5082 C5083 1.372 . S
C5083 C5082 1.372 . S
C5083 C5084 1.400 . S
C5083 C5088 1.490 . S
C5084 H5074 0.930 . S
C5084 C5083 1.400 . S
C5084 C5087 1.386 . S
H5085 C5101 0.930 . S
H5086 C5102 0.931 . S
C5087 H5075 0.929 . S
C5087 C5081 1.390 . S
C5087 C5084 1.386 . S
C5088 C5083 1.490 . S
C5088 C5090 1.395 . S
C5088 C5091 1.403 . S
H5089 C5095 0.930 . S
C5090 H5076 0.930 . S
C5090 C5088 1.395 . S
C5090 C5093 1.403 . S
C5091 C5088 1.403 . S
C5091 C5092 1.524 . S
C5091 C5095 1.400 . S
C5092 H5077 0.960 . S
C5092 H5078 0.960 . S
C5092 H5079 0.960 . S
C5092 C5091 1.524 . S
C5093 C5090 1.403 . S
C5093 C5094 1.392 . S
C5093 C5097 1.495 . S
C5094 C5093 1.392 . S
C5094 C5095 1.385 . S
C5094 C5096 1.478 . S
C5095 H5089 0.930 . S
C5095 C5091 1.400 . S
C5095 C5094 1.385 . S
C5096 C5094 1.478 . S
C5096 C5098 1.381 . S
C5096 C5102 1.383 . S
C5097 C5093 1.495 . S
C5097 H5103 0.959 . S
C5097 H5104 0.961 . S
C5097 H5105 0.960 . S
C5098 C5096 1.381 . S
C5098 C5099 1.394 . S
C5098 H5106 0.930 . S
C5099 C5098 1.394 . S
C5099 C5100 1.383 . S
C5099 H5107 0.929 . S
C5100 C5099 1.383 . S
C5100 C5101 1.377 . S
C5101 H5085 0.930 . S
C5101 C5100 1.377 . S
C5101 C5102 1.379 . S
C5102 H5086 0.931 . S
C5102 C5096 1.383 . S
C5102 C5101 1.379 . S
H5103 C5097 0.959 . S
H5104 C5097 0.961 . S
H5105 C5097 0.960 . S
H5106 C5098 0.930 . S
H5107 C5099 0.929 . S
H5108 C5116 0.929 . S
H5109 C5118 0.930 . S
H5110 C5120 0.930 . S
H5111 C5123 0.929 . S
H5112 C5126 0.930 . S
H5113 C5128 0.960 . S
H5114 C5128 0.960 . S
H5115 C5128 0.960 . S
C5116 H5108 0.929 . S
C5116 C5117 1.377 . S
C5116 C5118 1.384 . S
C5117 C5116 1.377 . S
C5117 C5123 1.390 . S
C5118 H5109 0.930 . S
C5118 C5116 1.384 . S
C5118 C5119 1.372 . S
C5119 C5118 1.372 . S
C5119 C5120 1.400 . S
C5119 C5124 1.490 . S
C5120 H5110 0.930 . S
C5120 C5119 1.400 . S
C5120 C5123 1.386 . S
H5121 C5137 0.930 . S
H5122 C5138 0.931 . S
C5123 H5111 0.929 . S
C5123 C5117 1.390 . S
C5123 C5120 1.386 . S
C5124 C5119 1.490 . S
C5124 C5126 1.395 . S
C5124 C5127 1.403 . S
H5125 C5131 0.930 . S
C5126 H5112 0.930 . S
C5126 C5124 1.395 . S
C5126 C5129 1.403 . S
C5127 C5124 1.403 . S
C5127 C5128 1.524 . S
C5127 C5131 1.400 . S
C5128 H5113 0.960 . S
C5128 H5114 0.960 . S
C5128 H5115 0.960 . S
C5128 C5127 1.524 . S
C5129 C5126 1.403 . S
C5129 C5130 1.392 . S
C5129 C5133 1.495 . S
C5130 C5129 1.392 . S
C5130 C5131 1.385 . S
C5130 C5132 1.478 . S
C5131 H5125 0.930 . S
C5131 C5127 1.400 . S
C5131 C5130 1.385 . S
C5132 C5130 1.478 . S
C5132 C5134 1.381 . S
C5132 C5138 1.383 . S
C5133 C5129 1.495 . S
C5133 H5139 0.959 . S
C5133 H5140 0.961 . S
C5133 H5141 0.960 . S
C5134 C5132 1.381 . S
C5134 C5135 1.394 . S
C5134 H5142 0.930 . S
C5135 C5134 1.394 . S
C5135 C5136 1.383 . S
C5135 H5143 0.929 . S
C5136 C5135 1.383 . S
C5136 C5137 1.377 . S
C5137 H5121 0.930 . S
C5137 C5136 1.377 . S
C5137 C5138 1.379 . S
C5138 H5122 0.931 . S
C5138 C5132 1.383 . S
C5138 C5137 1.379 . S
H5139 C5133 0.959 . S
H5140 C5133 0.961 . S
H5141 C5133 0.960 . S
H5142 C5134 0.930 . S
H5143 C5135 0.929 . S
H5144 C5152 0.929 . S
H5145 C5154 0.930 . S
H5146 C5156 0.930 . S
H5147 C5159 0.929 . S
H5148 C5162 0.930 . S
H5149 C5164 0.960 . S
H5150 C5164 0.960 . S
H5151 C5164 0.960 . S
C5152 H5144 0.929 . S
C5152 C5153 1.377 . S
C5152 C5154 1.384 . S
C5153 C5152 1.377 . S
C5153 C5159 1.390 . S
C5154 H5145 0.930 . S
C5154 C5152 1.384 . S
C5154 C5155 1.372 . S
C5155 C5154 1.372 . S
C5155 C5156 1.400 . S
C5155 C5160 1.490 . S
C5156 H5146 0.930 . S
C5156 C5155 1.400 . S
C5156 C5159 1.386 . S
H5157 C5173 0.930 . S
H5158 C5174 0.931 . S
C5159 H5147 0.929 . S
C5159 C5153 1.390 . S
C5159 C5156 1.386 . S
C5160 C5155 1.490 . S
C5160 C5162 1.395 . S
C5160 C5163 1.403 . S
H5161 C5167 0.930 . S
C5162 H5148 0.930 . S
C5162 C5160 1.395 . S
C5162 C5165 1.403 . S
C5163 C5160 1.403 . S
C5163 C5164 1.524 . S
C5163 C5167 1.400 . S
C5164 H5149 0.960 . S
C5164 H5150 0.960 . S
C5164 H5151 0.960 . S
C5164 C5163 1.524 . S
C5165 C5162 1.403 . S
C5165 C5166 1.392 . S
C5165 C5169 1.495 . S
C5166 C5165 1.392 . S
C5166 C5167 1.385 . S
C5166 C5168 1.478 . S
C5167 H5161 0.930 . S
C5167 C5163 1.400 . S
C5167 C5166 1.385 . S
C5168 C5166 1.478 . S
C5168 C5170 1.381 . S
C5168 C5174 1.383 . S
C5169 C5165 1.495 . S
C5169 H5175 0.959 . S
C5169 H5176 0.961 . S
C5169 H5177 0.960 . S
C5170 C5168 1.381 . S
C5170 C5171 1.394 . S
C5170 H5178 0.930 . S
C5171 C5170 1.394 . S
C5171 C5172 1.383 . S
C5171 H5179 0.929 . S
C5172 C5171 1.383 . S
C5172 C5173 1.377 . S
C5173 H5157 0.930 . S
C5173 C5172 1.377 . S
C5173 C5174 1.379 . S
C5174 H5158 0.931 . S
C5174 C5168 1.383 . S
C5174 C5173 1.379 . S
H5175 C5169 0.959 . S
H5176 C5169 0.961 . S
H5177 C5169 0.960 . S
H5178 C5170 0.930 . S
H5179 C5171 0.929 . S
H5180 C5188 0.929 . S
H5181 C5190 0.930 . S
H5182 C5192 0.930 . S
H5183 C5195 0.929 . S
H5184 C5198 0.930 . S
H5185 C5200 0.960 . S
H5186 C5200 0.960 . S
H5187 C5200 0.960 . S
C5188 H5180 0.929 . S
C5188 C5189 1.377 . S
C5188 C5190 1.384 . S
C5189 C5188 1.377 . S
C5189 C5195 1.390 . S
C5190 H5181 0.930 . S
C5190 C5188 1.384 . S
C5190 C5191 1.372 . S
C5191 C5190 1.372 . S
C5191 C5192 1.400 . S
C5191 C5196 1.490 . S
C5192 H5182 0.930 . S
C5192 C5191 1.400 . S
C5192 C5195 1.386 . S
H5193 C5209 0.930 . S
H5194 C5210 0.931 . S
C5195 H5183 0.929 . S
C5195 C5189 1.390 . S
C5195 C5192 1.386 . S
C5196 C5191 1.490 . S
C5196 C5198 1.395 . S
C5196 C5199 1.403 . S
H5197 C5203 0.930 . S
C5198 H5184 0.930 . S
C5198 C5196 1.395 . S
C5198 C5201 1.403 . S
C5199 C5196 1.403 . S
C5199 C5200 1.524 . S
C5199 C5203 1.400 . S
C5200 H5185 0.960 . S
C5200 H5186 0.960 . S
C5200 H5187 0.960 . S
C5200 C5199 1.524 . S
C5201 C5198 1.403 . S
C5201 C5202 1.392 . S
C5201 C5205 1.495 . S
C5202 C5201 1.392 . S
C5202 C5203 1.385 . S
C5202 C5204 1.478 . S
C5203 H5197 0.930 . S
C5203 C5199 1.400 . S
C5203 C5202 1.385 . S
C5204 C5202 1.478 . S
C5204 C5206 1.381 . S
C5204 C5210 1.383 . S
C5205 C5201 1.495 . S
C5205 H5211 0.959 . S
C5205 H5212 0.961 . S
C5205 H5213 0.960 . S
C5206 C5204 1.381 . S
C5206 C5207 1.394 . S
C5206 H5214 0.930 . S
C5207 C5206 1.394 . S
C5207 C5208 1.383 . S
C5207 H5215 0.929 . S
C5208 C5207 1.383 . S
C5208 C5209 1.377 . S
C5209 H5193 0.930 . S
C5209 C5208 1.377 . S
C5209 C5210 1.379 . S
C5210 H5194 0.931 . S
C5210 C5204 1.383 . S
C5210 C5209 1.379 . S
H5211 C5205 0.959 . S
H5212 C5205 0.961 . S
H5213 C5205 0.960 . S
H5214 C5206 0.930 . S
H5215 C5207 0.929 . S
H5216 C5224 0.929 . S
H5217 C5226 0.930 . S
H5218 C5228 0.930 . S
H5219 C5231 0.929 . S
H5220 C5234 0.930 . S
H5221 C5236 0.960 . S
H5222 C5236 0.960 . S
H5223 C5236 0.960 . S
C5224 H5216 0.929 . S
C5224 C5225 1.377 . S
C5224 C5226 1.384 . S
C5225 C5224 1.377 . S
C5225 C5231 1.390 . S
C5226 H5217 0.930 . S
C5226 C5224 1.384 . S
C5226 C5227 1.372 . S
C5227 C5226 1.372 . S
C5227 C5228 1.400 . S
C5227 C5232 1.490 . S
C5228 H5218 0.930 . S
C5228 C5227 1.400 . S
C5228 C5231 1.386 . S
H5229 C5245 0.930 . S
H5230 C5246 0.931 . S
C5231 H5219 0.929 . S
C5231 C5225 1.390 . S
C5231 C5228 1.386 . S
C5232 C5227 1.490 . S
C5232 C5234 1.395 . S
C5232 C5235 1.403 . S
H5233 C5239 0.930 . S
C5234 H5220 0.930 . S
C5234 C5232 1.395 . S
C5234 C5237 1.403 . S
C5235 C5232 1.403 . S
C5235 C5236 1.524 . S
C5235 C5239 1.400 . S
C5236 H5221 0.960 . S
C5236 H5222 0.960 . S
C5236 H5223 0.960 . S
C5236 C5235 1.524 . S
C5237 C5234 1.403 . S
C5237 C5238 1.392 . S
C5237 C5241 1.495 . S
C5238 C5237 1.392 . S
C5238 C5239 1.385 . S
C5238 C5240 1.478 . S
C5239 H5233 0.930 . S
C5239 C5235 1.400 . S
C5239 C5238 1.385 . S
C5240 C5238 1.478 . S
C5240 C5242 1.381 . S
C5240 C5246 1.383 . S
C5241 C5237 1.495 . S
C5241 H5247 0.959 . S
C5241 H5248 0.961 . S
C5241 H5249 0.960 . S
C5242 C5240 1.381 . S
C5242 C5243 1.394 . S
C5242 H5250 0.930 . S
C5243 C5242 1.394 . S
C5243 C5244 1.383 . S
C5243 H5251 0.929 . S
C5244 C5243 1.383 . S
C5244 C5245 1.377 . S
C5245 H5229 0.930 . S
C5245 C5244 1.377 . S
C5245 C5246 1.379 . S
C5246 H5230 0.931 . S
C5246 C5240 1.383 . S
C5246 C5245 1.379 . S
H5247 C5241 0.959 . S
H5248 C5241 0.961 . S
H5249 C5241 0.960 . S
H5250 C5242 0.930 . S
H5251 C5243 0.929 . S
H5252 C5260 0.929 . S
H5253 C5262 0.930 . S
H5254 C5264 0.930 . S
H5255 C5267 0.929 . S
H5256 C5270 0.930 . S
H5257 C5272 0.960 . S
H5258 C5272 0.960 . S
H5259 C5272 0.960 . S
C5260 H5252 0.929 . S
C5260 C5261 1.377 . S
C5260 C5262 1.384 . S
C5261 C5260 1.377 . S
C5261 C5267 1.390 . S
C5262 H5253 0.930 . S
C5262 C5260 1.384 . S
C5262 C5263 1.372 . S
C5263 C5262 1.372 . S
C5263 C5264 1.400 . S
C5263 C5268 1.490 . S
C5264 H5254 0.930 . S
C5264 C5263 1.400 . S
C5264 C5267 1.386 . S
H5265 C5281 0.930 . S
H5266 C5282 0.931 . S
C5267 H5255 0.929 . S
C5267 C5261 1.390 . S
C5267 C5264 1.386 . S
C5268 C5263 1.490 . S
C5268 C5270 1.395 . S
C5268 C5271 1.403 . S
H5269 C5275 0.930 . S
C5270 H5256 0.930 . S
C5270 C5268 1.395 . S
C5270 C5273 1.403 . S
C5271 C5268 1.403 . S
C5271 C5272 1.524 . S
C5271 C5275 1.400 . S
C5272 H5257 0.960 . S
C5272 H5258 0.960 . S
C5272 H5259 0.960 . S
C5272 C5271 1.524 . S
C5273 C5270 1.403 . S
C5273 C5274 1.392 . S
C5273 C5277 1.495 . S
C5274 C5273 1.392 . S
C5274 C5275 1.385 . S
C5274 C5276 1.478 . S
C5275 H5269 0.930 . S
C5275 C5271 1.400 . S
C5275 C5274 1.385 . S
C5276 C5274 1.478 . S
C5276 C5278 1.381 . S
C5276 C5282 1.383 . S
C5277 C5273 1.495 . S
C5277 H5283 0.959 . S
C5277 H5284 0.961 . S
C5277 H5285 0.960 . S
C5278 C5276 1.381 . S
C5278 C5279 1.394 . S
C5278 H5286 0.930 . S
C5279 C5278 1.394 . S
C5279 C5280 1.383 . S
C5279 H5287 0.929 . S
C5280 C5279 1.383 . S
C5280 C5281 1.377 . S
C5281 H5265 0.930 . S
C5281 C5280 1.377 . S
C5281 C5282 1.379 . S
C5282 H5266 0.931 . S
C5282 C5276 1.383 . S
C5282 C5281 1.379 . S
H5283 C5277 0.959 . S
H5284 C5277 0.961 . S
H5285 C5277 0.960 . S
H5286 C5278 0.930 . S
H5287 C5279 0.929 . S
H5288 C5296 0.929 . S
H5289 C5298 0.930 . S
H5290 C5300 0.930 . S
H5291 C5303 0.929 . S
H5292 C5306 0.930 . S
H5293 C5308 0.960 . S
H5294 C5308 0.960 . S
H5295 C5308 0.960 . S
C5296 H5288 0.929 . S
C5296 C5297 1.377 . S
C5296 C5298 1.384 . S
C5297 C5296 1.377 . S
C5297 C5303 1.390 . S
C5298 H5289 0.930 . S
C5298 C5296 1.384 . S
C5298 C5299 1.372 . S
C5299 C5298 1.372 . S
C5299 C5300 1.400 . S
C5299 C5304 1.490 . S
C5300 H5290 0.930 . S
C5300 C5299 1.400 . S
C5300 C5303 1.386 . S
H5301 C5317 0.930 . S
H5302 C5318 0.931 . S
C5303 H5291 0.929 . S
C5303 C5297 1.390 . S
C5303 C5300 1.386 . S
C5304 C5299 1.490 . S
C5304 C5306 1.395 . S
C5304 C5307 1.403 . S
H5305 C5311 0.930 . S
C5306 H5292 0.930 . S
C5306 C5304 1.395 . S
C5306 C5309 1.403 . S
C5307 C5304 1.403 . S
C5307 C5308 1.524 . S
C5307 C5311 1.400 . S
C5308 H5293 0.960 . S
C5308 H5294 0.960 . S
C5308 H5295 0.960 . S
C5308 C5307 1.524 . S
C5309 C5306 1.403 . S
C5309 C5310 1.392 . S
C5309 C5313 1.495 . S
C5310 C5309 1.392 . S
C5310 C5311 1.385 . S
C5310 C5312 1.478 . S
C5311 H5305 0.930 . S
C5311 C5307 1.400 . S
C5311 C5310 1.385 . S
C5312 C5310 1.478 . S
C5312 C5314 1.381 . S
C5312 C5318 1.383 . S
C5313 C5309 1.495 . S
C5313 H5319 0.959 . S
C5313 H5320 0.961 . S
C5313 H5321 0.960 . S
C5314 C5312 1.381 . S
C5314 C5315 1.394 . S
C5314 H5322 0.930 . S
C5315 C5314 1.394 . S
C5315 C5316 1.383 . S
C5315 H5323 0.929 . S
C5316 C5315 1.383 . S
C5316 C5317 1.377 . S
C5317 H5301 0.930 . S
C5317 C5316 1.377 . S
C5317 C5318 1.379 . S
C5318 H5302 0.931 . S
C5318 C5312 1.383 . S
C5318 C5317 1.379 . S
H5319 C5313 0.959 . S
H5320 C5313 0.961 . S
H5321 C5313 0.960 . S
H5322 C5314 0.930 . S
H5323 C5315 0.929 . S
H5324 C5332 0.929 . S
H5325 C5334 0.930 . S
H5326 C5336 0.930 . S
H5327 C5339 0.929 . S
H5328 C5342 0.930 . S
H5329 C5344 0.960 . S
H5330 C5344 0.960 . S
H5331 C5344 0.960 . S
C5332 H5324 0.929 . S
C5332 C5333 1.377 . S
C5332 C5334 1.384 . S
C5333 C5332 1.377 . S
C5333 C5339 1.390 . S
C5334 H5325 0.930 . S
C5334 C5332 1.384 . S
C5334 C5335 1.372 . S
C5335 C5334 1.372 . S
C5335 C5336 1.400 . S
C5335 C5340 1.490 . S
C5336 H5326 0.930 . S
C5336 C5335 1.400 . S
C5336 C5339 1.386 . S
H5337 C5353 0.930 . S
H5338 C5354 0.931 . S
C5339 H5327 0.929 . S
C5339 C5333 1.390 . S
C5339 C5336 1.386 . S
C5340 C5335 1.490 . S
C5340 C5342 1.395 . S
C5340 C5343 1.403 . S
H5341 C5347 0.930 . S
C5342 H5328 0.930 . S
C5342 C5340 1.395 . S
C5342 C5345 1.403 . S
C5343 C5340 1.403 . S
C5343 C5344 1.524 . S
C5343 C5347 1.400 . S
C5344 H5329 0.960 . S
C5344 H5330 0.960 . S
C5344 H5331 0.960 . S
C5344 C5343 1.524 . S
C5345 C5342 1.403 . S
C5345 C5346 1.392 . S
C5345 C5349 1.495 . S
C5346 C5345 1.392 . S
C5346 C5347 1.385 . S
C5346 C5348 1.478 . S
C5347 H5341 0.930 . S
C5347 C5343 1.400 . S
C5347 C5346 1.385 . S
C5348 C5346 1.478 . S
C5348 C5350 1.381 . S
C5348 C5354 1.383 . S
C5349 C5345 1.495 . S
C5349 H5355 0.959 . S
C5349 H5356 0.961 . S
C5349 H5357 0.960 . S
C5350 C5348 1.381 . S
C5350 C5351 1.394 . S
C5350 H5358 0.930 . S
C5351 C5350 1.394 . S
C5351 C5352 1.383 . S
C5351 H5359 0.929 . S
C5352 C5351 1.383 . S
C5352 C5353 1.377 . S
C5353 H5337 0.930 . S
C5353 C5352 1.377 . S
C5353 C5354 1.379 . S
C5354 H5338 0.931 . S
C5354 C5348 1.383 . S
C5354 C5353 1.379 . S
H5355 C5349 0.959 . S
H5356 C5349 0.961 . S
H5357 C5349 0.960 . S
H5358 C5350 0.930 . S
H5359 C5351 0.929 . S
H5360 C5368 0.929 . S
H5361 C5370 0.930 . S
H5362 C5372 0.930 . S
H5363 C5375 0.929 . S
H5364 C5378 0.930 . S
H5365 C5380 0.960 . S
H5366 C5380 0.960 . S
H5367 C5380 0.960 . S
C5368 H5360 0.929 . S
C5368 C5369 1.377 . S
C5368 C5370 1.384 . S
C5369 C5368 1.377 . S
C5369 C5375 1.390 . S
C5370 H5361 0.930 . S
C5370 C5368 1.384 . S
C5370 C5371 1.372 . S
C5371 C5370 1.372 . S
C5371 C5372 1.400 . S
C5371 C5376 1.490 . S
C5372 H5362 0.930 . S
C5372 C5371 1.400 . S
C5372 C5375 1.386 . S
H5373 C5389 0.930 . S
H5374 C5390 0.931 . S
C5375 H5363 0.929 . S
C5375 C5369 1.390 . S
C5375 C5372 1.386 . S
C5376 C5371 1.490 . S
C5376 C5378 1.395 . S
C5376 C5379 1.403 . S
H5377 C5383 0.930 . S
C5378 H5364 0.930 . S
C5378 C5376 1.395 . S
C5378 C5381 1.403 . S
C5379 C5376 1.403 . S
C5379 C5380 1.524 . S
C5379 C5383 1.400 . S
C5380 H5365 0.960 . S
C5380 H5366 0.960 . S
C5380 H5367 0.960 . S
C5380 C5379 1.524 . S
C5381 C5378 1.403 . S
C5381 C5382 1.392 . S
C5381 C5385 1.495 . S
C5382 C5381 1.392 . S
C5382 C5383 1.385 . S
C5382 C5384 1.478 . S
C5383 H5377 0.930 . S
C5383 C5379 1.400 . S
C5383 C5382 1.385 . S
C5384 C5382 1.478 . S
C5384 C5386 1.381 . S
C5384 C5390 1.383 . S
C5385 C5381 1.495 . S
C5385 H5391 0.959 . S
C5385 H5392 0.961 . S
C5385 H5393 0.960 . S
C5386 C5384 1.381 . S
C5386 C5387 1.394 . S
C5386 H5394 0.930 . S
C5387 C5386 1.394 . S
C5387 C5388 1.383 . S
C5387 H5395 0.929 . S
C5388 C5387 1.383 . S
C5388 C5389 1.377 . S
C5389 H5373 0.930 . S
C5389 C5388 1.377 . S
C5389 C5390 1.379 . S
C5390 H5374 0.931 . S
C5390 C5384 1.383 . S
C5390 C5389 1.379 . S
H5391 C5385 0.959 . S
H5392 C5385 0.961 . S
H5393 C5385 0.960 . S
H5394 C5386 0.930 . S
H5395 C5387 0.929 . S
H5396 C5404 0.929 . S
H5397 C5406 0.930 . S
H5398 C5408 0.930 . S
H5399 C5411 0.929 . S
H5400 C5414 0.930 . S
H5401 C5416 0.960 . S
H5402 C5416 0.960 . S
H5403 C5416 0.960 . S
C5404 H5396 0.929 . S
C5404 C5405 1.377 . S
C5404 C5406 1.384 . S
C5405 C5404 1.377 . S
C5405 C5411 1.390 . S
C5406 H5397 0.930 . S
C5406 C5404 1.384 . S
C5406 C5407 1.372 . S
C5407 C5406 1.372 . S
C5407 C5408 1.400 . S
C5407 C5412 1.490 . S
C5408 H5398 0.930 . S
C5408 C5407 1.400 . S
C5408 C5411 1.386 . S
H5409 C5425 0.930 . S
H5410 C5426 0.931 . S
C5411 H5399 0.929 . S
C5411 C5405 1.390 . S
C5411 C5408 1.386 . S
C5412 C5407 1.490 . S
C5412 C5414 1.395 . S
C5412 C5415 1.403 . S
H5413 C5419 0.930 . S
C5414 H5400 0.930 . S
C5414 C5412 1.395 . S
C5414 C5417 1.403 . S
C5415 C5412 1.403 . S
C5415 C5416 1.524 . S
C5415 C5419 1.400 . S
C5416 H5401 0.960 . S
C5416 H5402 0.960 . S
C5416 H5403 0.960 . S
C5416 C5415 1.524 . S
C5417 C5414 1.403 . S
C5417 C5418 1.392 . S
C5417 C5421 1.495 . S
C5418 C5417 1.392 . S
C5418 C5419 1.385 . S
C5418 C5420 1.478 . S
C5419 H5413 0.930 . S
C5419 C5415 1.400 . S
C5419 C5418 1.385 . S
C5420 C5418 1.478 . S
C5420 C5422 1.381 . S
C5420 C5426 1.383 . S
C5421 C5417 1.495 . S
C5421 H5427 0.959 . S
C5421 H5428 0.961 . S
C5421 H5429 0.960 . S
C5422 C5420 1.381 . S
C5422 C5423 1.394 . S
C5422 H5430 0.930 . S
C5423 C5422 1.394 . S
C5423 C5424 1.383 . S
C5423 H5431 0.929 . S
C5424 C5423 1.383 . S
C5424 C5425 1.377 . S
C5425 H5409 0.930 . S
C5425 C5424 1.377 . S
C5425 C5426 1.379 . S
C5426 H5410 0.931 . S
C5426 C5420 1.383 . S
C5426 C5425 1.379 . S
H5427 C5421 0.959 . S
H5428 C5421 0.961 . S
H5429 C5421 0.960 . S
H5430 C5422 0.930 . S
H5431 C5423 0.929 . S
H5432 C5440 0.929 . S
H5433 C5442 0.930 . S
H5434 C5444 0.930 . S
H5435 C5447 0.929 . S
H5436 C5450 0.930 . S
H5437 C5452 0.960 . S
H5438 C5452 0.960 . S
H5439 C5452 0.960 . S
C5440 H5432 0.929 . S
C5440 C5441 1.377 . S
C5440 C5442 1.384 . S
C5441 C5440 1.377 . S
C5441 C5447 1.390 . S
C5442 H5433 0.930 . S
C5442 C5440 1.384 . S
C5442 C5443 1.372 . S
C5443 C5442 1.372 . S
C5443 C5444 1.400 . S
C5443 C5448 1.490 . S
C5444 H5434 0.930 . S
C5444 C5443 1.400 . S
C5444 C5447 1.386 . S
H5445 C5461 0.930 . S
H5446 C5462 0.931 . S
C5447 H5435 0.929 . S
C5447 C5441 1.390 . S
C5447 C5444 1.386 . S
C5448 C5443 1.490 . S
C5448 C5450 1.395 . S
C5448 C5451 1.403 . S
H5449 C5455 0.930 . S
C5450 H5436 0.930 . S
C5450 C5448 1.395 . S
C5450 C5453 1.403 . S
C5451 C5448 1.403 . S
C5451 C5452 1.524 . S
C5451 C5455 1.400 . S
C5452 H5437 0.960 . S
C5452 H5438 0.960 . S
C5452 H5439 0.960 . S
C5452 C5451 1.524 . S
C5453 C5450 1.403 . S
C5453 C5454 1.392 . S
C5453 C5457 1.495 . S
C5454 C5453 1.392 . S
C5454 C5455 1.385 . S
C5454 C5456 1.478 . S
C5455 H5449 0.930 . S
C5455 C5451 1.400 . S
C5455 C5454 1.385 . S
C5456 C5454 1.478 . S
C5456 C5458 1.381 . S
C5456 C5462 1.383 . S
C5457 C5453 1.495 . S
C5457 H5463 0.959 . S
C5457 H5464 0.961 . S
C5457 H5465 0.960 . S
C5458 C5456 1.381 . S
C5458 C5459 1.394 . S
C5458 H5466 0.930 . S
C5459 C5458 1.394 . S
C5459 C5460 1.383 . S
C5459 H5467 0.929 . S
C5460 C5459 1.383 . S
C5460 C5461 1.377 . S
C5461 H5445 0.930 . S
C5461 C5460 1.377 . S
C5461 C5462 1.379 . S
C5462 H5446 0.931 . S
C5462 C5456 1.383 . S
C5462 C5461 1.379 . S
H5463 C5457 0.959 . S
H5464 C5457 0.961 . S
H5465 C5457 0.960 . S
H5466 C5458 0.930 . S
H5467 C5459 0.929 . S
H5468 C5476 0.929 . S
H5469 C5478 0.930 . S
H5470 C5480 0.930 . S
H5471 C5483 0.929 . S
H5472 C5486 0.930 . S
H5473 C5488 0.960 . S
H5474 C5488 0.960 . S
H5475 C5488 0.960 . S
C5476 H5468 0.929 . S
C5476 C5477 1.377 . S
C5476 C5478 1.384 . S
C5477 C5476 1.377 . S
C5477 C5483 1.390 . S
C5478 H5469 0.930 . S
C5478 C5476 1.384 . S
C5478 C5479 1.372 . S
C5479 C5478 1.372 . S
C5479 C5480 1.400 . S
C5479 C5484 1.490 . S
C5480 H5470 0.930 . S
C5480 C5479 1.400 . S
C5480 C5483 1.386 . S
H5481 C5497 0.930 . S
H5482 C5498 0.931 . S
C5483 H5471 0.929 . S
C5483 C5477 1.390 . S
C5483 C5480 1.386 . S
C5484 C5479 1.490 . S
C5484 C5486 1.395 . S
C5484 C5487 1.403 . S
H5485 C5491 0.930 . S
C5486 H5472 0.930 . S
C5486 C5484 1.395 . S
C5486 C5489 1.403 . S
C5487 C5484 1.403 . S
C5487 C5488 1.524 . S
C5487 C5491 1.400 . S
C5488 H5473 0.960 . S
C5488 H5474 0.960 . S
C5488 H5475 0.960 . S
C5488 C5487 1.524 . S
C5489 C5486 1.403 . S
C5489 C5490 1.392 . S
C5489 C5493 1.495 . S
C5490 C5489 1.392 . S
C5490 C5491 1.385 . S
C5490 C5492 1.478 . S
C5491 H5485 0.930 . S
C5491 C5487 1.400 . S
C5491 C5490 1.385 . S
C5492 C5490 1.478 . S
C5492 C5494 1.381 . S
C5492 C5498 1.383 . S
C5493 C5489 1.495 . S
C5493 H5499 0.959 . S
C5493 H5500 0.961 . S
C5493 H5501 0.960 . S
C5494 C5492 1.381 . S
C5494 C5495 1.394 . S
C5494 H5502 0.930 . S
C5495 C5494 1.394 . S
C5495 C5496 1.383 . S
C5495 H5503 0.929 . S
C5496 C5495 1.383 . S
C5496 C5497 1.377 . S
C5497 H5481 0.930 . S
C5497 C5496 1.377 . S
C5497 C5498 1.379 . S
C5498 H5482 0.931 . S
C5498 C5492 1.383 . S
C5498 C5497 1.379 . S
H5499 C5493 0.959 . S
H5500 C5493 0.961 . S
H5501 C5493 0.960 . S
H5502 C5494 0.930 . S
H5503 C5495 0.929 . S
H5504 C5512 0.929 . S
H5505 C5514 0.930 . S
H5506 C5516 0.930 . S
H5507 C5519 0.929 . S
H5508 C5522 0.930 . S
H5509 C5524 0.960 . S
H5510 C5524 0.960 . S
H5511 C5524 0.960 . S
C5512 H5504 0.929 . S
C5512 C5513 1.377 . S
C5512 C5514 1.384 . S
C5513 C5512 1.377 . S
C5513 C5519 1.390 . S
C5514 H5505 0.930 . S
C5514 C5512 1.384 . S
C5514 C5515 1.372 . S
C5515 C5514 1.372 . S
C5515 C5516 1.400 . S
C5515 C5520 1.490 . S
C5516 H5506 0.930 . S
C5516 C5515 1.400 . S
C5516 C5519 1.386 . S
H5517 C5533 0.930 . S
H5518 C5534 0.931 . S
C5519 H5507 0.929 . S
C5519 C5513 1.390 . S
C5519 C5516 1.386 . S
C5520 C5515 1.490 . S
C5520 C5522 1.395 . S
C5520 C5523 1.403 . S
H5521 C5527 0.930 . S
C5522 H5508 0.930 . S
C5522 C5520 1.395 . S
C5522 C5525 1.403 . S
C5523 C5520 1.403 . S
C5523 C5524 1.524 . S
C5523 C5527 1.400 . S
C5524 H5509 0.960 . S
C5524 H5510 0.960 . S
C5524 H5511 0.960 . S
C5524 C5523 1.524 . S
C5525 C5522 1.403 . S
C5525 C5526 1.392 . S
C5525 C5529 1.495 . S
C5526 C5525 1.392 . S
C5526 C5527 1.385 . S
C5526 C5528 1.478 . S
C5527 H5521 0.930 . S
C5527 C5523 1.400 . S
C5527 C5526 1.385 . S
C5528 C5526 1.478 . S
C5528 C5530 1.381 . S
C5528 C5534 1.383 . S
C5529 C5525 1.495 . S
C5529 H5535 0.959 . S
C5529 H5536 0.961 . S
C5529 H5537 0.960 . S
C5530 C5528 1.381 . S
C5530 C5531 1.394 . S
C5530 H5538 0.930 . S
C5531 C5530 1.394 . S
C5531 C5532 1.383 . S
C5531 H5539 0.929 . S
C5532 C5531 1.383 . S
C5532 C5533 1.377 . S
C5533 H5517 0.930 . S
C5533 C5532 1.377 . S
C5533 C5534 1.379 . S
C5534 H5518 0.931 . S
C5534 C5528 1.383 . S
C5534 C5533 1.379 . S
H5535 C5529 0.959 . S
H5536 C5529 0.961 . S
H5537 C5529 0.960 . S
H5538 C5530 0.930 . S
H5539 C5531 0.929 . S
H5540 C5548 0.929 . S
H5541 C5550 0.930 . S
H5542 C5552 0.930 . S
H5543 C5555 0.929 . S
H5544 C5558 0.930 . S
H5545 C5560 0.960 . S
H5546 C5560 0.960 . S
H5547 C5560 0.960 . S
C5548 H5540 0.929 . S
C5548 C5549 1.377 . S
C5548 C5550 1.384 . S
C5549 C5548 1.377 . S
C5549 C5555 1.390 . S
C5550 H5541 0.930 . S
C5550 C5548 1.384 . S
C5550 C5551 1.372 . S
C5551 C5550 1.372 . S
C5551 C5552 1.400 . S
C5551 C5556 1.490 . S
C5552 H5542 0.930 . S
C5552 C5551 1.400 . S
C5552 C5555 1.386 . S
H5553 C5569 0.930 . S
H5554 C5570 0.931 . S
C5555 H5543 0.929 . S
C5555 C5549 1.390 . S
C5555 C5552 1.386 . S
C5556 C5551 1.490 . S
C5556 C5558 1.395 . S
C5556 C5559 1.403 . S
H5557 C5563 0.930 . S
C5558 H5544 0.930 . S
C5558 C5556 1.395 . S
C5558 C5561 1.403 . S
C5559 C5556 1.403 . S
C5559 C5560 1.524 . S
C5559 C5563 1.400 . S
C5560 H5545 0.960 . S
C5560 H5546 0.960 . S
C5560 H5547 0.960 . S
C5560 C5559 1.524 . S
C5561 C5558 1.403 . S
C5561 C5562 1.392 . S
C5561 C5565 1.495 . S
C5562 C5561 1.392 . S
C5562 C5563 1.385 . S
C5562 C5564 1.478 . S
C5563 H5557 0.930 . S
C5563 C5559 1.400 . S
C5563 C5562 1.385 . S
C5564 C5562 1.478 . S
C5564 C5566 1.381 . S
C5564 C5570 1.383 . S
C5565 C5561 1.495 . S
C5565 H5571 0.959 . S
C5565 H5572 0.961 . S
C5565 H5573 0.960 . S
C5566 C5564 1.381 . S
C5566 C5567 1.394 . S
C5566 H5574 0.930 . S
C5567 C5566 1.394 . S
C5567 C5568 1.383 . S
C5567 H5575 0.929 . S
C5568 C5567 1.383 . S
C5568 C5569 1.377 . S
C5569 H5553 0.930 . S
C5569 C5568 1.377 . S
C5569 C5570 1.379 . S
C5570 H5554 0.931 . S
C5570 C5564 1.383 . S
C5570 C5569 1.379 . S
H5571 C5565 0.959 . S
H5572 C5565 0.961 . S
H5573 C5565 0.960 . S
H5574 C5566 0.930 . S
H5575 C5567 0.929 . S
H5576 C5584 0.929 . S
H5577 C5586 0.930 . S
H5578 C5588 0.930 . S
H5579 C5591 0.929 . S
H5580 C5594 0.930 . S
H5581 C5596 0.960 . S
H5582 C5596 0.960 . S
H5583 C5596 0.960 . S
C5584 H5576 0.929 . S
C5584 C5585 1.377 . S
C5584 C5586 1.384 . S
C5585 C5584 1.377 . S
C5585 C5591 1.390 . S
C5586 H5577 0.930 . S
C5586 C5584 1.384 . S
C5586 C5587 1.372 . S
C5587 C5586 1.372 . S
C5587 C5588 1.400 . S
C5587 C5592 1.490 . S
C5588 H5578 0.930 . S
C5588 C5587 1.400 . S
C5588 C5591 1.386 . S
H5589 C5605 0.930 . S
H5590 C5606 0.931 . S
C5591 H5579 0.929 . S
C5591 C5585 1.390 . S
C5591 C5588 1.386 . S
C5592 C5587 1.490 . S
C5592 C5594 1.395 . S
C5592 C5595 1.403 . S
H5593 C5599 0.930 . S
C5594 H5580 0.930 . S
C5594 C5592 1.395 . S
C5594 C5597 1.403 . S
C5595 C5592 1.403 . S
C5595 C5596 1.524 . S
C5595 C5599 1.400 . S
C5596 H5581 0.960 . S
C5596 H5582 0.960 . S
C5596 H5583 0.960 . S
C5596 C5595 1.524 . S
C5597 C5594 1.403 . S
C5597 C5598 1.392 . S
C5597 C5601 1.495 . S
C5598 C5597 1.392 . S
C5598 C5599 1.385 . S
C5598 C5600 1.478 . S
C5599 H5593 0.930 . S
C5599 C5595 1.400 . S
C5599 C5598 1.385 . S
C5600 C5598 1.478 . S
C5600 C5602 1.381 . S
C5600 C5606 1.383 . S
C5601 C5597 1.495 . S
C5601 H5607 0.959 . S
C5601 H5608 0.961 . S
C5601 H5609 0.960 . S
C5602 C5600 1.381 . S
C5602 C5603 1.394 . S
C5602 H5610 0.930 . S
C5603 C5602 1.394 . S
C5603 C5604 1.383 . S
C5603 H5611 0.929 . S
C5604 C5603 1.383 . S
C5604 C5605 1.377 . S
C5605 H5589 0.930 . S
C5605 C5604 1.377 . S
C5605 C5606 1.379 . S
C5606 H5590 0.931 . S
C5606 C5600 1.383 . S
C5606 C5605 1.379 . S
H5607 C5601 0.959 . S
H5608 C5601 0.961 . S
H5609 C5601 0.960 . S
H5610 C5602 0.930 . S
H5611 C5603 0.929 . S
H5612 C5620 0.929 . S
H5613 C5622 0.930 . S
H5614 C5624 0.930 . S
H5615 C5627 0.929 . S
H5616 C5630 0.930 . S
H5617 C5632 0.960 . S
H5618 C5632 0.960 . S
H5619 C5632 0.960 . S
C5620 H5612 0.929 . S
C5620 C5621 1.377 . S
C5620 C5622 1.384 . S
C5621 C5620 1.377 . S
C5621 C5627 1.390 . S
C5622 H5613 0.930 . S
C5622 C5620 1.384 . S
C5622 C5623 1.372 . S
C5623 C5622 1.372 . S
C5623 C5624 1.400 . S
C5623 C5628 1.490 . S
C5624 H5614 0.930 . S
C5624 C5623 1.400 . S
C5624 C5627 1.386 . S
H5625 C5641 0.930 . S
H5626 C5642 0.931 . S
C5627 H5615 0.929 . S
C5627 C5621 1.390 . S
C5627 C5624 1.386 . S
C5628 C5623 1.490 . S
C5628 C5630 1.395 . S
C5628 C5631 1.403 . S
H5629 C5635 0.930 . S
C5630 H5616 0.930 . S
C5630 C5628 1.395 . S
C5630 C5633 1.403 . S
C5631 C5628 1.403 . S
C5631 C5632 1.524 . S
C5631 C5635 1.400 . S
C5632 H5617 0.960 . S
C5632 H5618 0.960 . S
C5632 H5619 0.960 . S
C5632 C5631 1.524 . S
C5633 C5630 1.403 . S
C5633 C5634 1.392 . S
C5633 C5637 1.495 . S
C5634 C5633 1.392 . S
C5634 C5635 1.385 . S
C5634 C5636 1.478 . S
C5635 H5629 0.930 . S
C5635 C5631 1.400 . S
C5635 C5634 1.385 . S
C5636 C5634 1.478 . S
C5636 C5638 1.381 . S
C5636 C5642 1.383 . S
C5637 C5633 1.495 . S
C5637 H5643 0.959 . S
C5637 H5644 0.961 . S
C5637 H5645 0.960 . S
C5638 C5636 1.381 . S
C5638 C5639 1.394 . S
C5638 H5646 0.930 . S
C5639 C5638 1.394 . S
C5639 C5640 1.383 . S
C5639 H5647 0.929 . S
C5640 C5639 1.383 . S
C5640 C5641 1.377 . S
C5641 H5625 0.930 . S
C5641 C5640 1.377 . S
C5641 C5642 1.379 . S
C5642 H5626 0.931 . S
C5642 C5636 1.383 . S
C5642 C5641 1.379 . S
H5643 C5637 0.959 . S
H5644 C5637 0.961 . S
H5645 C5637 0.960 . S
H5646 C5638 0.930 . S
H5647 C5639 0.929 . S
H5648 C5656 0.929 . S
H5649 C5658 0.930 . S
H5650 C5660 0.930 . S
H5651 C5663 0.929 . S
H5652 C5666 0.930 . S
H5653 C5668 0.960 . S
H5654 C5668 0.960 . S
H5655 C5668 0.960 . S
C5656 H5648 0.929 . S
C5656 C5657 1.377 . S
C5656 C5658 1.384 . S
C5657 C5656 1.377 . S
C5657 C5663 1.390 . S
C5658 H5649 0.930 . S
C5658 C5656 1.384 . S
C5658 C5659 1.372 . S
C5659 C5658 1.372 . S
C5659 C5660 1.400 . S
C5659 C5664 1.490 . S
C5660 H5650 0.930 . S
C5660 C5659 1.400 . S
C5660 C5663 1.386 . S
H5661 C5677 0.930 . S
H5662 C5678 0.931 . S
C5663 H5651 0.929 . S
C5663 C5657 1.390 . S
C5663 C5660 1.386 . S
C5664 C5659 1.490 . S
C5664 C5666 1.395 . S
C5664 C5667 1.403 . S
H5665 C5671 0.930 . S
C5666 H5652 0.930 . S
C5666 C5664 1.395 . S
C5666 C5669 1.403 . S
C5667 C5664 1.403 . S
C5667 C5668 1.524 . S
C5667 C5671 1.400 . S
C5668 H5653 0.960 . S
C5668 H5654 0.960 . S
C5668 H5655 0.960 . S
C5668 C5667 1.524 . S
C5669 C5666 1.403 . S
C5669 C5670 1.392 . S
C5669 C5673 1.495 . S
C5670 C5669 1.392 . S
C5670 C5671 1.385 . S
C5670 C5672 1.478 . S
C5671 H5665 0.930 . S
C5671 C5667 1.400 . S
C5671 C5670 1.385 . S
C5672 C5670 1.478 . S
C5672 C5674 1.381 . S
C5672 C5678 1.383 . S
C5673 C5669 1.495 . S
C5673 H5679 0.959 . S
C5673 H5680 0.961 . S
C5673 H5681 0.960 . S
C5674 C5672 1.381 . S
C5674 C5675 1.394 . S
C5674 H5682 0.930 . S
C5675 C5674 1.394 . S
C5675 C5676 1.383 . S
C5675 H5683 0.929 . S
C5676 C5675 1.383 . S
C5676 C5677 1.377 . S
C5677 H5661 0.930 . S
C5677 C5676 1.377 . S
C5677 C5678 1.379 . S
C5678 H5662 0.931 . S
C5678 C5672 1.383 . S
C5678 C5677 1.379 . S
H5679 C5673 0.959 . S
H5680 C5673 0.961 . S
H5681 C5673 0.960 . S
H5682 C5674 0.930 . S
H5683 C5675 0.929 . S
H5684 C5692 0.929 . S
H5685 C5694 0.930 . S
H5686 C5696 0.930 . S
H5687 C5699 0.929 . S
H5688 C5702 0.930 . S
H5689 C5704 0.960 . S
H5690 C5704 0.960 . S
H5691 C5704 0.960 . S
C5692 H5684 0.929 . S
C5692 C5693 1.377 . S
C5692 C5694 1.384 . S
C5693 C5692 1.377 . S
C5693 C5699 1.390 . S
C5694 H5685 0.930 . S
C5694 C5692 1.384 . S
C5694 C5695 1.372 . S
C5695 C5694 1.372 . S
C5695 C5696 1.400 . S
C5695 C5700 1.490 . S
C5696 H5686 0.930 . S
C5696 C5695 1.400 . S
C5696 C5699 1.386 . S
H5697 C5713 0.930 . S
H5698 C5714 0.931 . S
C5699 H5687 0.929 . S
C5699 C5693 1.390 . S
C5699 C5696 1.386 . S
C5700 C5695 1.490 . S
C5700 C5702 1.395 . S
C5700 C5703 1.403 . S
H5701 C5707 0.930 . S
C5702 H5688 0.930 . S
C5702 C5700 1.395 . S
C5702 C5705 1.403 . S
C5703 C5700 1.403 . S
C5703 C5704 1.524 . S
C5703 C5707 1.400 . S
C5704 H5689 0.960 . S
C5704 H5690 0.960 . S
C5704 H5691 0.960 . S
C5704 C5703 1.524 . S
C5705 C5702 1.403 . S
C5705 C5706 1.392 . S
C5705 C5709 1.495 . S
C5706 C5705 1.392 . S
C5706 C5707 1.385 . S
C5706 C5708 1.478 . S
C5707 H5701 0.930 . S
C5707 C5703 1.400 . S
C5707 C5706 1.385 . S
C5708 C5706 1.478 . S
C5708 C5710 1.381 . S
C5708 C5714 1.383 . S
C5709 C5705 1.495 . S
C5709 H5715 0.959 . S
C5709 H5716 0.961 . S
C5709 H5717 0.960 . S
C5710 C5708 1.381 . S
C5710 C5711 1.394 . S
C5710 H5718 0.930 . S
C5711 C5710 1.394 . S
C5711 C5712 1.383 . S
C5711 H5719 0.929 . S
C5712 C5711 1.383 . S
C5712 C5713 1.377 . S
C5713 H5697 0.930 . S
C5713 C5712 1.377 . S
C5713 C5714 1.379 . S
C5714 H5698 0.931 . S
C5714 C5708 1.383 . S
C5714 C5713 1.379 . S
H5715 C5709 0.959 . S
H5716 C5709 0.961 . S
H5717 C5709 0.960 . S
H5718 C5710 0.930 . S
H5719 C5711 0.929 . S
H5720 C5728 0.929 . S
H5721 C5730 0.930 . S
H5722 C5732 0.930 . S
H5723 C5735 0.929 . S
H5724 C5738 0.930 . S
H5725 C5740 0.960 . S
H5726 C5740 0.960 . S
H5727 C5740 0.960 . S
C5728 H5720 0.929 . S
C5728 C5729 1.377 . S
C5728 C5730 1.384 . S
C5729 C5728 1.377 . S
C5729 C5735 1.390 . S
C5730 H5721 0.930 . S
C5730 C5728 1.384 . S
C5730 C5731 1.372 . S
C5731 C5730 1.372 . S
C5731 C5732 1.400 . S
C5731 C5736 1.490 . S
C5732 H5722 0.930 . S
C5732 C5731 1.400 . S
C5732 C5735 1.386 . S
H5733 C5749 0.930 . S
H5734 C5750 0.931 . S
C5735 H5723 0.929 . S
C5735 C5729 1.390 . S
C5735 C5732 1.386 . S
C5736 C5731 1.490 . S
C5736 C5738 1.395 . S
C5736 C5739 1.403 . S
H5737 C5743 0.930 . S
C5738 H5724 0.930 . S
C5738 C5736 1.395 . S
C5738 C5741 1.403 . S
C5739 C5736 1.403 . S
C5739 C5740 1.524 . S
C5739 C5743 1.400 . S
C5740 H5725 0.960 . S
C5740 H5726 0.960 . S
C5740 H5727 0.960 . S
C5740 C5739 1.524 . S
C5741 C5738 1.403 . S
C5741 C5742 1.392 . S
C5741 C5745 1.495 . S
C5742 C5741 1.392 . S
C5742 C5743 1.385 . S
C5742 C5744 1.478 . S
C5743 H5737 0.930 . S
C5743 C5739 1.400 . S
C5743 C5742 1.385 . S
C5744 C5742 1.478 . S
C5744 C5746 1.381 . S
C5744 C5750 1.383 . S
C5745 C5741 1.495 . S
C5745 H5751 0.959 . S
C5745 H5752 0.961 . S
C5745 H5753 0.960 . S
C5746 C5744 1.381 . S
C5746 C5747 1.394 . S
C5746 H5754 0.930 . S
C5747 C5746 1.394 . S
C5747 C5748 1.383 . S
C5747 H5755 0.929 . S
C5748 C5747 1.383 . S
C5748 C5749 1.377 . S
C5749 H5733 0.930 . S
C5749 C5748 1.377 . S
C5749 C5750 1.379 . S
C5750 H5734 0.931 . S
C5750 C5744 1.383 . S
C5750 C5749 1.379 . S
H5751 C5745 0.959 . S
H5752 C5745 0.961 . S
H5753 C5745 0.960 . S
H5754 C5746 0.930 . S
H5755 C5747 0.929 . S
H5756 C5764 0.929 . S
H5757 C5766 0.930 . S
H5758 C5768 0.930 . S
H5759 C5771 0.929 . S
H5760 C5774 0.930 . S
H5761 C5776 0.960 . S
H5762 C5776 0.960 . S
H5763 C5776 0.960 . S
C5764 H5756 0.929 . S
C5764 C5765 1.377 . S
C5764 C5766 1.384 . S
C5765 C5764 1.377 . S
C5765 C5771 1.390 . S
C5766 H5757 0.930 . S
C5766 C5764 1.384 . S
C5766 C5767 1.372 . S
C5767 C5766 1.372 . S
C5767 C5768 1.400 . S
C5767 C5772 1.490 . S
C5768 H5758 0.930 . S
C5768 C5767 1.400 . S
C5768 C5771 1.386 . S
H5769 C5785 0.930 . S
H5770 C5786 0.931 . S
C5771 H5759 0.929 . S
C5771 C5765 1.390 . S
C5771 C5768 1.386 . S
C5772 C5767 1.490 . S
C5772 C5774 1.395 . S
C5772 C5775 1.403 . S
H5773 C5779 0.930 . S
C5774 H5760 0.930 . S
C5774 C5772 1.395 . S
C5774 C5777 1.403 . S
C5775 C5772 1.403 . S
C5775 C5776 1.524 . S
C5775 C5779 1.400 . S
C5776 H5761 0.960 . S
C5776 H5762 0.960 . S
C5776 H5763 0.960 . S
C5776 C5775 1.524 . S
C5777 C5774 1.403 . S
C5777 C5778 1.392 . S
C5777 C5781 1.495 . S
C5778 C5777 1.392 . S
C5778 C5779 1.385 . S
C5778 C5780 1.478 . S
C5779 H5773 0.930 . S
C5779 C5775 1.400 . S
C5779 C5778 1.385 . S
C5780 C5778 1.478 . S
C5780 C5782 1.381 . S
C5780 C5786 1.383 . S
C5781 C5777 1.495 . S
C5781 H5787 0.959 . S
C5781 H5788 0.961 . S
C5781 H5789 0.960 . S
C5782 C5780 1.381 . S
C5782 C5783 1.394 . S
C5782 H5790 0.930 . S
C5783 C5782 1.394 . S
C5783 C5784 1.383 . S
C5783 H5791 0.929 . S
C5784 C5783 1.383 . S
C5784 C5785 1.377 . S
C5785 H5769 0.930 . S
C5785 C5784 1.377 . S
C5785 C5786 1.379 . S
C5786 H5770 0.931 . S
C5786 C5780 1.383 . S
C5786 C5785 1.379 . S
H5787 C5781 0.959 . S
H5788 C5781 0.961 . S
H5789 C5781 0.960 . S
H5790 C5782 0.930 . S
H5791 C5783 0.929 . S
H5792 C5800 0.929 . S
H5793 C5802 0.930 . S
H5794 C5804 0.930 . S
H5795 C5807 0.929 . S
H5796 C5810 0.930 . S
H5797 C5812 0.960 . S
H5798 C5812 0.960 . S
H5799 C5812 0.960 . S
C5800 H5792 0.929 . S
C5800 C5801 1.377 . S
C5800 C5802 1.384 . S
C5801 C5800 1.377 . S
C5801 C5807 1.390 . S
C5802 H5793 0.930 . S
C5802 C5800 1.384 . S
C5802 C5803 1.372 . S
C5803 C5802 1.372 . S
C5803 C5804 1.400 . S
C5803 C5808 1.490 . S
C5804 H5794 0.930 . S
C5804 C5803 1.400 . S
C5804 C5807 1.386 . S
H5805 C5821 0.930 . S
H5806 C5822 0.931 . S
C5807 H5795 0.929 . S
C5807 C5801 1.390 . S
C5807 C5804 1.386 . S
C5808 C5803 1.490 . S
C5808 C5810 1.395 . S
C5808 C5811 1.403 . S
H5809 C5815 0.930 . S
C5810 H5796 0.930 . S
C5810 C5808 1.395 . S
C5810 C5813 1.403 . S
C5811 C5808 1.403 . S
C5811 C5812 1.524 . S
C5811 C5815 1.400 . S
C5812 H5797 0.960 . S
C5812 H5798 0.960 . S
C5812 H5799 0.960 . S
C5812 C5811 1.524 . S
C5813 C5810 1.403 . S
C5813 C5814 1.392 . S
C5813 C5817 1.495 . S
C5814 C5813 1.392 . S
C5814 C5815 1.385 . S
C5814 C5816 1.478 . S
C5815 H5809 0.930 . S
C5815 C5811 1.400 . S
C5815 C5814 1.385 . S
C5816 C5814 1.478 . S
C5816 C5818 1.381 . S
C5816 C5822 1.383 . S
C5817 C5813 1.495 . S
C5817 H5823 0.959 . S
C5817 H5824 0.961 . S
C5817 H5825 0.960 . S
C5818 C5816 1.381 . S
C5818 C5819 1.394 . S
C5818 H5826 0.930 . S
C5819 C5818 1.394 . S
C5819 C5820 1.383 . S
C5819 H5827 0.929 . S
C5820 C5819 1.383 . S
C5820 C5821 1.377 . S
C5821 H5805 0.930 . S
C5821 C5820 1.377 . S
C5821 C5822 1.379 . S
C5822 H5806 0.931 . S
C5822 C5816 1.383 . S
C5822 C5821 1.379 . S
H5823 C5817 0.959 . S
H5824 C5817 0.961 . S
H5825 C5817 0.960 . S
H5826 C5818 0.930 . S
H5827 C5819 0.929 . S
H5828 C5836 0.929 . S
H5829 C5838 0.930 . S
H5830 C5840 0.930 . S
H5831 C5843 0.929 . S
H5832 C5846 0.930 . S
H5833 C5848 0.960 . S
H5834 C5848 0.960 . S
H5835 C5848 0.960 . S
C5836 H5828 0.929 . S
C5836 C5837 1.377 . S
C5836 C5838 1.384 . S
C5837 C5836 1.377 . S
C5837 C5843 1.390 . S
C5838 H5829 0.930 . S
C5838 C5836 1.384 . S
C5838 C5839 1.372 . S
C5839 C5838 1.372 . S
C5839 C5840 1.400 . S
C5839 C5844 1.490 . S
C5840 H5830 0.930 . S
C5840 C5839 1.400 . S
C5840 C5843 1.386 . S
H5841 C5857 0.930 . S
H5842 C5858 0.931 . S
C5843 H5831 0.929 . S
C5843 C5837 1.390 . S
C5843 C5840 1.386 . S
C5844 C5839 1.490 . S
C5844 C5846 1.395 . S
C5844 C5847 1.403 . S
H5845 C5851 0.930 . S
C5846 H5832 0.930 . S
C5846 C5844 1.395 . S
C5846 C5849 1.403 . S
C5847 C5844 1.403 . S
C5847 C5848 1.524 . S
C5847 C5851 1.400 . S
C5848 H5833 0.960 . S
C5848 H5834 0.960 . S
C5848 H5835 0.960 . S
C5848 C5847 1.524 . S
C5849 C5846 1.403 . S
C5849 C5850 1.392 . S
C5849 C5853 1.495 . S
C5850 C5849 1.392 . S
C5850 C5851 1.385 . S
C5850 C5852 1.478 . S
C5851 H5845 0.930 . S
C5851 C5847 1.400 . S
C5851 C5850 1.385 . S
C5852 C5850 1.478 . S
C5852 C5854 1.381 . S
C5852 C5858 1.383 . S
C5853 C5849 1.495 . S
C5853 H5859 0.959 . S
C5853 H5860 0.961 . S
C5853 H5861 0.960 . S
C5854 C5852 1.381 . S
C5854 C5855 1.394 . S
C5854 H5862 0.930 . S
C5855 C5854 1.394 . S
C5855 C5856 1.383 . S
C5855 H5863 0.929 . S
C5856 C5855 1.383 . S
C5856 C5857 1.377 . S
C5857 H5841 0.930 . S
C5857 C5856 1.377 . S
C5857 C5858 1.379 . S
C5858 H5842 0.931 . S
C5858 C5852 1.383 . S
C5858 C5857 1.379 . S
H5859 C5853 0.959 . S
H5860 C5853 0.961 . S
H5861 C5853 0.960 . S
H5862 C5854 0.930 . S
H5863 C5855 0.929 . S
H5864 C5872 0.929 . S
H5865 C5874 0.930 . S
H5866 C5876 0.930 . S
H5867 C5879 0.929 . S
H5868 C5882 0.930 . S
H5869 C5884 0.960 . S
H5870 C5884 0.960 . S
H5871 C5884 0.960 . S
C5872 H5864 0.929 . S
C5872 C5873 1.377 . S
C5872 C5874 1.384 . S
C5873 C5872 1.377 . S
C5873 C5879 1.390 . S
C5874 H5865 0.930 . S
C5874 C5872 1.384 . S
C5874 C5875 1.372 . S
C5875 C5874 1.372 . S
C5875 C5876 1.400 . S
C5875 C5880 1.490 . S
C5876 H5866 0.930 . S
C5876 C5875 1.400 . S
C5876 C5879 1.386 . S
H5877 C5893 0.930 . S
H5878 C5894 0.931 . S
C5879 H5867 0.929 . S
C5879 C5873 1.390 . S
C5879 C5876 1.386 . S
C5880 C5875 1.490 . S
C5880 C5882 1.395 . S
C5880 C5883 1.403 . S
H5881 C5887 0.930 . S
C5882 H5868 0.930 . S
C5882 C5880 1.395 . S
C5882 C5885 1.403 . S
C5883 C5880 1.403 . S
C5883 C5884 1.524 . S
C5883 C5887 1.400 . S
C5884 H5869 0.960 . S
C5884 H5870 0.960 . S
C5884 H5871 0.960 . S
C5884 C5883 1.524 . S
C5885 C5882 1.403 . S
C5885 C5886 1.392 . S
C5885 C5889 1.495 . S
C5886 C5885 1.392 . S
C5886 C5887 1.385 . S
C5886 C5888 1.478 . S
C5887 H5881 0.930 . S
C5887 C5883 1.400 . S
C5887 C5886 1.385 . S
C5888 C5886 1.478 . S
C5888 C5890 1.381 . S
C5888 C5894 1.383 . S
C5889 C5885 1.495 . S
C5889 H5895 0.959 . S
C5889 H5896 0.961 . S
C5889 H5897 0.960 . S
C5890 C5888 1.381 . S
C5890 C5891 1.394 . S
C5890 H5898 0.930 . S
C5891 C5890 1.394 . S
C5891 C5892 1.383 . S
C5891 H5899 0.929 . S
C5892 C5891 1.383 . S
C5892 C5893 1.377 . S
C5893 H5877 0.930 . S
C5893 C5892 1.377 . S
C5893 C5894 1.379 . S
C5894 H5878 0.931 . S
C5894 C5888 1.383 . S
C5894 C5893 1.379 . S
H5895 C5889 0.959 . S
H5896 C5889 0.961 . S
H5897 C5889 0.960 . S
H5898 C5890 0.930 . S
H5899 C5891 0.929 . S
H5900 C5908 0.929 . S
H5901 C5910 0.930 . S
H5902 C5912 0.930 . S
H5903 C5915 0.929 . S
H5904 C5918 0.930 . S
H5905 C5920 0.960 . S
H5906 C5920 0.960 . S
H5907 C5920 0.960 . S
C5908 H5900 0.929 . S
C5908 C5909 1.377 . S
C5908 C5910 1.384 . S
C5909 C5908 1.377 . S
C5909 C5915 1.390 . S
C5910 H5901 0.930 . S
C5910 C5908 1.384 . S
C5910 C5911 1.372 . S
C5911 C5910 1.372 . S
C5911 C5912 1.400 . S
C5911 C5916 1.490 . S
C5912 H5902 0.930 . S
C5912 C5911 1.400 . S
C5912 C5915 1.386 . S
H5913 C5929 0.930 . S
H5914 C5930 0.931 . S
C5915 H5903 0.929 . S
C5915 C5909 1.390 . S
C5915 C5912 1.386 . S
C5916 C5911 1.490 . S
C5916 C5918 1.395 . S
C5916 C5919 1.403 . S
H5917 C5923 0.930 . S
C5918 H5904 0.930 . S
C5918 C5916 1.395 . S
C5918 C5921 1.403 . S
C5919 C5916 1.403 . S
C5919 C5920 1.524 . S
C5919 C5923 1.400 . S
C5920 H5905 0.960 . S
C5920 H5906 0.960 . S
C5920 H5907 0.960 . S
C5920 C5919 1.524 . S
C5921 C5918 1.403 . S
C5921 C5922 1.392 . S
C5921 C5925 1.495 . S
C5922 C5921 1.392 . S
C5922 C5923 1.385 . S
C5922 C5924 1.478 . S
C5923 H5917 0.930 . S
C5923 C5919 1.400 . S
C5923 C5922 1.385 . S
C5924 C5922 1.478 . S
C5924 C5926 1.381 . S
C5924 C5930 1.383 . S
C5925 C5921 1.495 . S
C5925 H5931 0.959 . S
C5925 H5932 0.961 . S
C5925 H5933 0.960 . S
C5926 C5924 1.381 . S
C5926 C5927 1.394 . S
C5926 H5934 0.930 . S
C5927 C5926 1.394 . S
C5927 C5928 1.383 . S
C5927 H5935 0.929 . S
C5928 C5927 1.383 . S
C5928 C5929 1.377 . S
C5929 H5913 0.930 . S
C5929 C5928 1.377 . S
C5929 C5930 1.379 . S
C5930 H5914 0.931 . S
C5930 C5924 1.383 . S
C5930 C5929 1.379 . S
H5931 C5925 0.959 . S
H5932 C5925 0.961 . S
H5933 C5925 0.960 . S
H5934 C5926 0.930 . S
H5935 C5927 0.929 . S
H5936 C5944 0.929 . S
H5937 C5946 0.930 . S
H5938 C5948 0.930 . S
H5939 C5951 0.929 . S
H5940 C5954 0.930 . S
H5941 C5956 0.960 . S
H5942 C5956 0.960 . S
H5943 C5956 0.960 . S
C5944 H5936 0.929 . S
C5944 C5945 1.377 . S
C5944 C5946 1.384 . S
C5945 C5944 1.377 . S
C5945 C5951 1.390 . S
C5946 H5937 0.930 . S
C5946 C5944 1.384 . S
C5946 C5947 1.372 . S
C5947 C5946 1.372 . S
C5947 C5948 1.400 . S
C5947 C5952 1.490 . S
C5948 H5938 0.930 . S
C5948 C5947 1.400 . S
C5948 C5951 1.386 . S
H5949 C5965 0.930 . S
H5950 C5966 0.931 . S
C5951 H5939 0.929 . S
C5951 C5945 1.390 . S
C5951 C5948 1.386 . S
C5952 C5947 1.490 . S
C5952 C5954 1.395 . S
C5952 C5955 1.403 . S
H5953 C5959 0.930 . S
C5954 H5940 0.930 . S
C5954 C5952 1.395 . S
C5954 C5957 1.403 . S
C5955 C5952 1.403 . S
C5955 C5956 1.524 . S
C5955 C5959 1.400 . S
C5956 H5941 0.960 . S
C5956 H5942 0.960 . S
C5956 H5943 0.960 . S
C5956 C5955 1.524 . S
C5957 C5954 1.403 . S
C5957 C5958 1.392 . S
C5957 C5961 1.495 . S
C5958 C5957 1.392 . S
C5958 C5959 1.385 . S
C5958 C5960 1.478 . S
C5959 H5953 0.930 . S
C5959 C5955 1.400 . S
C5959 C5958 1.385 . S
C5960 C5958 1.478 . S
C5960 C5962 1.381 . S
C5960 C5966 1.383 . S
C5961 C5957 1.495 . S
C5961 H5967 0.959 . S
C5961 H5968 0.961 . S
C5961 H5969 0.960 . S
C5962 C5960 1.381 . S
C5962 C5963 1.394 . S
C5962 H5970 0.930 . S
C5963 C5962 1.394 . S
C5963 C5964 1.383 . S
C5963 H5971 0.929 . S
C5964 C5963 1.383 . S
C5964 C5965 1.377 . S
C5965 H5949 0.930 . S
C5965 C5964 1.377 . S
C5965 C5966 1.379 . S
C5966 H5950 0.931 . S
C5966 C5960 1.383 . S
C5966 C5965 1.379 . S
H5967 C5961 0.959 . S
H5968 C5961 0.961 . S
H5969 C5961 0.960 . S
H5970 C5962 0.930 . S
H5971 C5963 0.929 . S
H5972 C5980 0.929 . S
H5973 C5982 0.930 . S
H5974 C5984 0.930 . S
H5975 C5987 0.929 . S
H5976 C5990 0.930 . S
H5977 C5992 0.960 . S
H5978 C5992 0.960 . S
H5979 C5992 0.960 . S
C5980 H5972 0.929 . S
C5980 C5981 1.377 . S
C5980 C5982 1.384 . S
C5981 C5980 1.377 . S
C5981 C5987 1.390 . S
C5982 H5973 0.930 . S
C5982 C5980 1.384 . S
C5982 C5983 1.372 . S
C5983 C5982 1.372 . S
C5983 C5984 1.400 . S
C5983 C5988 1.490 . S
C5984 H5974 0.930 . S
C5984 C5983 1.400 . S
C5984 C5987 1.386 . S
H5985 C6001 0.930 . S
H5986 C6002 0.931 . S
C5987 H5975 0.929 . S
C5987 C5981 1.390 . S
C5987 C5984 1.386 . S
C5988 C5983 1.490 . S
C5988 C5990 1.395 . S
C5988 C5991 1.403 . S
H5989 C5995 0.930 . S
C5990 H5976 0.930 . S
C5990 C5988 1.395 . S
C5990 C5993 1.403 . S
C5991 C5988 1.403 . S
C5991 C5992 1.524 . S
C5991 C5995 1.400 . S
C5992 H5977 0.960 . S
C5992 H5978 0.960 . S
C5992 H5979 0.960 . S
C5992 C5991 1.524 . S
C5993 C5990 1.403 . S
C5993 C5994 1.392 . S
C5993 C5997 1.495 . S
C5994 C5993 1.392 . S
C5994 C5995 1.385 . S
C5994 C5996 1.478 . S
C5995 H5989 0.930 . S
C5995 C5991 1.400 . S
C5995 C5994 1.385 . S
C5996 C5994 1.478 . S
C5996 C5998 1.381 . S
C5996 C6002 1.383 . S
C5997 C5993 1.495 . S
C5997 H6003 0.959 . S
C5997 H6004 0.961 . S
C5997 H6005 0.960 . S
C5998 C5996 1.381 . S
C5998 C5999 1.394 . S
C5998 H6006 0.930 . S
C5999 C5998 1.394 . S
C5999 C6000 1.383 . S
C5999 H6007 0.929 . S
C6000 C5999 1.383 . S
C6000 C6001 1.377 . S
C6001 H5985 0.930 . S
C6001 C6000 1.377 . S
C6001 C6002 1.379 . S
C6002 H5986 0.931 . S
C6002 C5996 1.383 . S
C6002 C6001 1.379 . S
H6003 C5997 0.959 . S
H6004 C5997 0.961 . S
H6005 C5997 0.960 . S
H6006 C5998 0.930 . S
H6007 C5999 0.929 . S
H6008 C6016 0.929 . S
H6009 C6018 0.930 . S
H6010 C6020 0.930 . S
H6011 C6023 0.929 . S
H6012 C6026 0.930 . S
H6013 C6028 0.960 . S
H6014 C6028 0.960 . S
H6015 C6028 0.960 . S
C6016 H6008 0.929 . S
C6016 C6017 1.377 . S
C6016 C6018 1.384 . S
C6017 C6016 1.377 . S
C6017 C6023 1.390 . S
C6018 H6009 0.930 . S
C6018 C6016 1.384 . S
C6018 C6019 1.372 . S
C6019 C6018 1.372 . S
C6019 C6020 1.400 . S
C6019 C6024 1.490 . S
C6020 H6010 0.930 . S
C6020 C6019 1.400 . S
C6020 C6023 1.386 . S
H6021 C6037 0.930 . S
H6022 C6038 0.931 . S
C6023 H6011 0.929 . S
C6023 C6017 1.390 . S
C6023 C6020 1.386 . S
C6024 C6019 1.490 . S
C6024 C6026 1.395 . S
C6024 C6027 1.403 . S
H6025 C6031 0.930 . S
C6026 H6012 0.930 . S
C6026 C6024 1.395 . S
C6026 C6029 1.403 . S
C6027 C6024 1.403 . S
C6027 C6028 1.524 . S
C6027 C6031 1.400 . S
C6028 H6013 0.960 . S
C6028 H6014 0.960 . S
C6028 H6015 0.960 . S
C6028 C6027 1.524 . S
C6029 C6026 1.403 . S
C6029 C6030 1.392 . S
C6029 C6033 1.495 . S
C6030 C6029 1.392 . S
C6030 C6031 1.385 . S
C6030 C6032 1.478 . S
C6031 H6025 0.930 . S
C6031 C6027 1.400 . S
C6031 C6030 1.385 . S
C6032 C6030 1.478 . S
C6032 C6034 1.381 . S
C6032 C6038 1.383 . S
C6033 C6029 1.495 . S
C6033 H6039 0.959 . S
C6033 H6040 0.961 . S
C6033 H6041 0.960 . S
C6034 C6032 1.381 . S
C6034 C6035 1.394 . S
C6034 H6042 0.930 . S
C6035 C6034 1.394 . S
C6035 C6036 1.383 . S
C6035 H6043 0.929 . S
C6036 C6035 1.383 . S
C6036 C6037 1.377 . S
C6037 H6021 0.930 . S
C6037 C6036 1.377 . S
C6037 C6038 1.379 . S
C6038 H6022 0.931 . S
C6038 C6032 1.383 . S
C6038 C6037 1.379 . S
H6039 C6033 0.959 . S
H6040 C6033 0.961 . S
H6041 C6033 0.960 . S
H6042 C6034 0.930 . S
H6043 C6035 0.929 . S
H6044 C6052 0.929 . S
H6045 C6054 0.930 . S
H6046 C6056 0.930 . S
H6047 C6059 0.929 . S
H6048 C6062 0.930 . S
H6049 C6064 0.960 . S
H6050 C6064 0.960 . S
H6051 C6064 0.960 . S
C6052 H6044 0.929 . S
C6052 C6053 1.377 . S
C6052 C6054 1.384 . S
C6053 C6052 1.377 . S
C6053 C6059 1.390 . S
C6054 H6045 0.930 . S
C6054 C6052 1.384 . S
C6054 C6055 1.372 . S
C6055 C6054 1.372 . S
C6055 C6056 1.400 . S
C6055 C6060 1.490 . S
C6056 H6046 0.930 . S
C6056 C6055 1.400 . S
C6056 C6059 1.386 . S
H6057 C6073 0.930 . S
H6058 C6074 0.931 . S
C6059 H6047 0.929 . S
C6059 C6053 1.390 . S
C6059 C6056 1.386 . S
C6060 C6055 1.490 . S
C6060 C6062 1.395 . S
C6060 C6063 1.403 . S
H6061 C6067 0.930 . S
C6062 H6048 0.930 . S
C6062 C6060 1.395 . S
C6062 C6065 1.403 . S
C6063 C6060 1.403 . S
C6063 C6064 1.524 . S
C6063 C6067 1.400 . S
C6064 H6049 0.960 . S
C6064 H6050 0.960 . S
C6064 H6051 0.960 . S
C6064 C6063 1.524 . S
C6065 C6062 1.403 . S
C6065 C6066 1.392 . S
C6065 C6069 1.495 . S
C6066 C6065 1.392 . S
C6066 C6067 1.385 . S
C6066 C6068 1.478 . S
C6067 H6061 0.930 . S
C6067 C6063 1.400 . S
C6067 C6066 1.385 . S
C6068 C6066 1.478 . S
C6068 C6070 1.381 . S
C6068 C6074 1.383 . S
C6069 C6065 1.495 . S
C6069 H6075 0.959 . S
C6069 H6076 0.961 . S
C6069 H6077 0.960 . S
C6070 C6068 1.381 . S
C6070 C6071 1.394 . S
C6070 H6078 0.930 . S
C6071 C6070 1.394 . S
C6071 C6072 1.383 . S
C6071 H6079 0.929 . S
C6072 C6071 1.383 . S
C6072 C6073 1.377 . S
C6073 H6057 0.930 . S
C6073 C6072 1.377 . S
C6073 C6074 1.379 . S
C6074 H6058 0.931 . S
C6074 C6068 1.383 . S
C6074 C6073 1.379 . S
H6075 C6069 0.959 . S
H6076 C6069 0.961 . S
H6077 C6069 0.960 . S
H6078 C6070 0.930 . S
H6079 C6071 0.929 . S
H6080 C6088 0.929 . S
H6081 C6090 0.930 . S
H6082 C6092 0.930 . S
H6083 C6095 0.929 . S
H6084 C6098 0.930 . S
H6085 C6100 0.960 . S
H6086 C6100 0.960 . S
H6087 C6100 0.960 . S
C6088 H6080 0.929 . S
C6088 C6089 1.377 . S
C6088 C6090 1.384 . S
C6089 C6088 1.377 . S
C6089 C6095 1.390 . S
C6090 H6081 0.930 . S
C6090 C6088 1.384 . S
C6090 C6091 1.372 . S
C6091 C6090 1.372 . S
C6091 C6092 1.400 . S
C6091 C6096 1.490 . S
C6092 H6082 0.930 . S
C6092 C6091 1.400 . S
C6092 C6095 1.386 . S
H6093 C6109 0.930 . S
H6094 C6110 0.931 . S
C6095 H6083 0.929 . S
C6095 C6089 1.390 . S
C6095 C6092 1.386 . S
C6096 C6091 1.490 . S
C6096 C6098 1.395 . S
C6096 C6099 1.403 . S
H6097 C6103 0.930 . S
C6098 H6084 0.930 . S
C6098 C6096 1.395 . S
C6098 C6101 1.403 . S
C6099 C6096 1.403 . S
C6099 C6100 1.524 . S
C6099 C6103 1.400 . S
C6100 H6085 0.960 . S
C6100 H6086 0.960 . S
C6100 H6087 0.960 . S
C6100 C6099 1.524 . S
C6101 C6098 1.403 . S
C6101 C6102 1.392 . S
C6101 C6105 1.495 . S
C6102 C6101 1.392 . S
C6102 C6103 1.385 . S
C6102 C6104 1.478 . S
C6103 H6097 0.930 . S
C6103 C6099 1.400 . S
C6103 C6102 1.385 . S
C6104 C6102 1.478 . S
C6104 C6106 1.381 . S
C6104 C6110 1.383 . S
C6105 C6101 1.495 . S
C6105 H6111 0.959 . S
C6105 H6112 0.961 . S
C6105 H6113 0.960 . S
C6106 C6104 1.381 . S
C6106 C6107 1.394 . S
C6106 H6114 0.930 . S
C6107 C6106 1.394 . S
C6107 C6108 1.383 . S
C6107 H6115 0.929 . S
C6108 C6107 1.383 . S
C6108 C6109 1.377 . S
C6109 H6093 0.930 . S
C6109 C6108 1.377 . S
C6109 C6110 1.379 . S
C6110 H6094 0.931 . S
C6110 C6104 1.383 . S
C6110 C6109 1.379 . S
H6111 C6105 0.959 . S
H6112 C6105 0.961 . S
H6113 C6105 0.960 . S
H6114 C6106 0.930 . S
H6115 C6107 0.929 . S
H6116 C6124 0.929 . S
H6117 C6126 0.930 . S
H6118 C6128 0.930 . S
H6119 C6131 0.929 . S
H6120 C6134 0.930 . S
H6121 C6136 0.960 . S
H6122 C6136 0.960 . S
H6123 C6136 0.960 . S
C6124 H6116 0.929 . S
C6124 C6125 1.377 . S
C6124 C6126 1.384 . S
C6125 C6124 1.377 . S
C6125 C6131 1.390 . S
C6126 H6117 0.930 . S
C6126 C6124 1.384 . S
C6126 C6127 1.372 . S
C6127 C6126 1.372 . S
C6127 C6128 1.400 . S
C6127 C6132 1.490 . S
C6128 H6118 0.930 . S
C6128 C6127 1.400 . S
C6128 C6131 1.386 . S
H6129 C6145 0.930 . S
H6130 C6146 0.931 . S
C6131 H6119 0.929 . S
C6131 C6125 1.390 . S
C6131 C6128 1.386 . S
C6132 C6127 1.490 . S
C6132 C6134 1.395 . S
C6132 C6135 1.403 . S
H6133 C6139 0.930 . S
C6134 H6120 0.930 . S
C6134 C6132 1.395 . S
C6134 C6137 1.403 . S
C6135 C6132 1.403 . S
C6135 C6136 1.524 . S
C6135 C6139 1.400 . S
C6136 H6121 0.960 . S
C6136 H6122 0.960 . S
C6136 H6123 0.960 . S
C6136 C6135 1.524 . S
C6137 C6134 1.403 . S
C6137 C6138 1.392 . S
C6137 C6141 1.495 . S
C6138 C6137 1.392 . S
C6138 C6139 1.385 . S
C6138 C6140 1.478 . S
C6139 H6133 0.930 . S
C6139 C6135 1.400 . S
C6139 C6138 1.385 . S
C6140 C6138 1.478 . S
C6140 C6142 1.381 . S
C6140 C6146 1.383 . S
C6141 C6137 1.495 . S
C6141 H6147 0.959 . S
C6141 H6148 0.961 . S
C6141 H6149 0.960 . S
C6142 C6140 1.381 . S
C6142 C6143 1.394 . S
C6142 H6150 0.930 . S
C6143 C6142 1.394 . S
C6143 C6144 1.383 . S
C6143 H6151 0.929 . S
C6144 C6143 1.383 . S
C6144 C6145 1.377 . S
C6145 H6129 0.930 . S
C6145 C6144 1.377 . S
C6145 C6146 1.379 . S
C6146 H6130 0.931 . S
C6146 C6140 1.383 . S
C6146 C6145 1.379 . S
H6147 C6141 0.959 . S
H6148 C6141 0.961 . S
H6149 C6141 0.960 . S
H6150 C6142 0.930 . S
H6151 C6143 0.929 . S
H6152 C6160 0.929 . S
H6153 C6162 0.930 . S
H6154 C6164 0.930 . S
H6155 C6167 0.929 . S
H6156 C6170 0.930 . S
H6157 C6172 0.960 . S
H6158 C6172 0.960 . S
H6159 C6172 0.960 . S
C6160 H6152 0.929 . S
C6160 C6161 1.377 . S
C6160 C6162 1.384 . S
C6161 C6160 1.377 . S
C6161 C6167 1.390 . S
C6162 H6153 0.930 . S
C6162 C6160 1.384 . S
C6162 C6163 1.372 . S
C6163 C6162 1.372 . S
C6163 C6164 1.400 . S
C6163 C6168 1.490 . S
C6164 H6154 0.930 . S
C6164 C6163 1.400 . S
C6164 C6167 1.386 . S
H6165 C6181 0.930 . S
H6166 C6182 0.931 . S
C6167 H6155 0.929 . S
C6167 C6161 1.390 . S
C6167 C6164 1.386 . S
C6168 C6163 1.490 . S
C6168 C6170 1.395 . S
C6168 C6171 1.403 . S
H6169 C6175 0.930 . S
C6170 H6156 0.930 . S
C6170 C6168 1.395 . S
C6170 C6173 1.403 . S
C6171 C6168 1.403 . S
C6171 C6172 1.524 . S
C6171 C6175 1.400 . S
C6172 H6157 0.960 . S
C6172 H6158 0.960 . S
C6172 H6159 0.960 . S
C6172 C6171 1.524 . S
C6173 C6170 1.403 . S
C6173 C6174 1.392 . S
C6173 C6177 1.495 . S
C6174 C6173 1.392 . S
C6174 C6175 1.385 . S
C6174 C6176 1.478 . S
C6175 H6169 0.930 . S
C6175 C6171 1.400 . S
C6175 C6174 1.385 . S
C6176 C6174 1.478 . S
C6176 C6178 1.381 . S
C6176 C6182 1.383 . S
C6177 C6173 1.495 . S
C6177 H6183 0.959 . S
C6177 H6184 0.961 . S
C6177 H6185 0.960 . S
C6178 C6176 1.381 . S
C6178 C6179 1.394 . S
C6178 H6186 0.930 . S
C6179 C6178 1.394 . S
C6179 C6180 1.383 . S
C6179 H6187 0.929 . S
C6180 C6179 1.383 . S
C6180 C6181 1.377 . S
C6181 H6165 0.930 . S
C6181 C6180 1.377 . S
C6181 C6182 1.379 . S
C6182 H6166 0.931 . S
C6182 C6176 1.383 . S
C6182 C6181 1.379 . S
H6183 C6177 0.959 . S
H6184 C6177 0.961 . S
H6185 C6177 0.960 . S
H6186 C6178 0.930 . S
H6187 C6179 0.929 . S
H6188 C6196 0.929 . S
H6189 C6198 0.930 . S
H6190 C6200 0.930 . S
H6191 C6203 0.929 . S
H6192 C6206 0.930 . S
H6193 C6208 0.960 . S
H6194 C6208 0.960 . S
H6195 C6208 0.960 . S
C6196 H6188 0.929 . S
C6196 C6197 1.377 . S
C6196 C6198 1.384 . S
C6197 C6196 1.377 . S
C6197 C6203 1.390 . S
C6198 H6189 0.930 . S
C6198 C6196 1.384 . S
C6198 C6199 1.372 . S
C6199 C6198 1.372 . S
C6199 C6200 1.400 . S
C6199 C6204 1.490 . S
C6200 H6190 0.930 . S
C6200 C6199 1.400 . S
C6200 C6203 1.386 . S
H6201 C6217 0.930 . S
H6202 C6218 0.931 . S
C6203 H6191 0.929 . S
C6203 C6197 1.390 . S
C6203 C6200 1.386 . S
C6204 C6199 1.490 . S
C6204 C6206 1.395 . S
C6204 C6207 1.403 . S
H6205 C6211 0.930 . S
C6206 H6192 0.930 . S
C6206 C6204 1.395 . S
C6206 C6209 1.403 . S
C6207 C6204 1.403 . S
C6207 C6208 1.524 . S
C6207 C6211 1.400 . S
C6208 H6193 0.960 . S
C6208 H6194 0.960 . S
C6208 H6195 0.960 . S
C6208 C6207 1.524 . S
C6209 C6206 1.403 . S
C6209 C6210 1.392 . S
C6209 C6213 1.495 . S
C6210 C6209 1.392 . S
C6210 C6211 1.385 . S
C6210 C6212 1.478 . S
C6211 H6205 0.930 . S
C6211 C6207 1.400 . S
C6211 C6210 1.385 . S
C6212 C6210 1.478 . S
C6212 C6214 1.381 . S
C6212 C6218 1.383 . S
C6213 C6209 1.495 . S
C6213 H6219 0.959 . S
C6213 H6220 0.961 . S
C6213 H6221 0.960 . S
C6214 C6212 1.381 . S
C6214 C6215 1.394 . S
C6214 H6222 0.930 . S
C6215 C6214 1.394 . S
C6215 C6216 1.383 . S
C6215 H6223 0.929 . S
C6216 C6215 1.383 . S
C6216 C6217 1.377 . S
C6217 H6201 0.930 . S
C6217 C6216 1.377 . S
C6217 C6218 1.379 . S
C6218 H6202 0.931 . S
C6218 C6212 1.383 . S
C6218 C6217 1.379 . S
H6219 C6213 0.959 . S
H6220 C6213 0.961 . S
H6221 C6213 0.960 . S
H6222 C6214 0.930 . S
H6223 C6215 0.929 . S
C2796 C1327 1.464 . S
C2777 C21 1.533 . S
C2832 C1389 1.386 . S
C2813 C42 1.477 . S
C2849 C82 1.546 . S
C2868 C1451 1.437 . S
C2904 C1519 1.435 . S
C2885 C135 1.463 . S
C2921 C175 1.394 . S
C2940 C1501 1.353 . S
C2957 C221 1.611 . S
C2976 C1309 1.499 . S
C2993 C255 1.632 . S
C3012 C1371 1.495 . S
C3048 C1433 1.526 . S
C3029 C301 1.635 . S
C3084 C1581 1.458 . S
C3065 C15 1.533 . S
C3101 C55 1.514 . S
C3120 C1619 1.383 . S
C3137 C101 1.628 . S
C3156 C1705 1.594 . S
C3192 C1749 1.482 . S
C3173 C141 1.520 . S
C3209 C162 1.384 . S
C3228 C1811 1.399 . S
C3264 C1873 1.533 . S
C3245 C215 1.588 . S
C3281 C261 1.619 . S
C3300 C1929 1.542 . S
C3336 C1991 1.441 . S
C3317 C282 1.553 . S
C3353 C2 1.577 . S
C3372 C1767 1.549 . S
C3389 C181 1.359 . S
C3408 C1891 1.368 . S
C3444 C1947 1.407 . S
C3425 C202 1.548 . S
C3461 C242 1.574 . S
C3480 C2009 1.496 . S
C3516 C1829 1.496 . S
C3497 C295 1.518 . S
C3552 C1637 1.557 . S
C3533 C95 1.636 . S
C3569 C122 1.506 . S
C3588 C1687 1.426 . S
C3624 C1563 1.515 . S
C3605 C61 1.575 . S
C3660 C2071 1.500 . S
C3641 C341 1.634 . S
C3677 C362 1.410 . S
C3696 C2121 1.340 . S
C3713 C402 1.490 . S
C3732 C2177 1.384 . S
C3768 C2263 1.422 . S
C3749 C455 1.499 . S
C3785 C495 1.483 . S
C3804 C2245 1.467 . S
C3821 C541 1.615 . S
C3840 C2053 1.522 . S
C3857 C575 1.516 . S
C3876 C2139 1.481 . S
C3893 C621 1.690 . S
C3912 C2195 1.561 . S
C3948 C1805 1.436 . S
C3929 C335 1.580 . S
C3965 C375 1.437 . S
C3984 C2325 1.368 . S
C4020 C1935 1.575 . S
C4001 C421 1.572 . S
C4037 C461 1.532 . S
C4056 C2387 1.491 . S
C4073 C482 1.422 . S
C4092 C1575 1.304 . S
C4128 C2431 1.556 . S
C4109 C535 1.591 . S
C4145 C581 1.565 . S
C4164 C1699 1.473 . S
C4200 C2487 1.501 . S
C4181 C602 1.607 . S
C4217 C322 1.663 . S
C4236 C2369 1.662 . S
C4272 C2449 1.433 . S
C4253 C501 1.432 . S
C4289 C522 1.538 . S
C4308 C1681 1.408 . S
C4344 C2505 1.370 . S
C4325 C562 1.515 . S
C4361 C615 1.683 . S
C4380 C1557 1.602 . S
C4397 C415 1.517 . S
C4416 C2307 1.499 . S
C4433 C442 1.491 . S
C4452 C1953 1.450 . S
C4469 C381 1.491 . S
C4488 C1823 1.331 . S
C4505 C661 1.442 . S
C4524 C2183 1.435 . S
C4560 C2257 1.349 . S
C4541 C682 1.447 . S
C4577 C722 1.517 . S
C4596 C2077 1.520 . S
C4613 C775 1.537 . S
C4632 C2115 1.445 . S
C4649 C815 1.554 . S
C4668 C2133 1.415 . S
C4685 C861 1.555 . S
C4704 C2201 1.529 . S
C4740 C2239 1.447 . S
C4721 C895 1.593 . S
C4757 C941 1.633 . S
C4776 C2059 1.599 . S
C4812 C2555 1.449 . S
C4793 C655 1.475 . S
C4829 C695 1.537 . S
C4848 C1867 1.402 . S
C4884 C2617 1.578 . S
C4865 C741 1.584 . S
C4901 C781 1.550 . S
C4920 C1997 1.525 . S
C4937 C802 1.480 . S
C4956 C2673 1.368 . S
C4973 C855 1.507 . S
C4992 C1625 1.483 . S
C5028 C2753 1.572 . S
C5009 C901 1.635 . S
C5045 C922 1.553 . S
C5064 C1743 1.433 . S
C5100 C2015 1.495 . S
C5081 C642 1.487 . S
C5136 C1643 1.469 . S
C5117 C821 1.509 . S
C5153 C842 1.478 . S
C5172 C2735 1.338 . S
C5189 C882 1.636 . S
C5208 C1761 1.571 . S
C5244 C2691 1.515 . S
C5225 C935 1.613 . S
C5280 C1885 1.367 . S
C5261 C735 1.500 . S
C5316 C2635 1.520 . S
C5297 C762 1.540 . S
C5352 C2573 1.504 . S
C5333 C701 1.526 . S
C5369 C981 1.490 . S
C5388 C1457 1.470 . S
C5405 C1002 1.467 . S
C5424 C1513 1.313 . S
C5460 C1333 1.433 . S
C5441 C1042 1.484 . S
C5496 C1395 1.412 . S
C5477 C1095 1.474 . S
C5532 C1377 1.504 . S
C5513 C1135 1.548 . S
C5568 C1439 1.601 . S
C5549 C1181 1.604 . S
C5604 C1495 1.463 . S
C5585 C1215 1.561 . S
C5621 C1261 1.623 . S
C5640 C1315 1.588 . S
C5657 C975 1.492 . S
C5676 C2679 1.468 . S
C5712 C2425 1.395 . S
C5693 C1015 1.517 . S
C5748 C2759 1.578 . S
C5729 C1061 1.586 . S
C5784 C2493 1.450 . S
C5765 C1101 1.512 . S
C5801 C1122 1.485 . S
C5820 C2549 1.421 . S
C5856 C2319 1.435 . S
C5837 C1175 1.581 . S
C5892 C2611 1.479 . S
C5873 C1221 1.613 . S
C5909 C1242 1.521 . S
C5928 C2381 1.409 . S
C5964 C2511 1.419 . S
C5945 C962 1.453 . S
C6000 C2301 1.397 . S
C5981 C1141 1.498 . S
C6036 C2629 1.521 . S
C6017 C1162 1.578 . S
C6053 C1202 1.664 . S
C6072 C2363 1.590 . S
C6089 C1255 1.593 . S
C6108 C2567 1.451 . S
C6125 C1055 1.497 . S
C6144 C2443 1.416 . S
C6161 C1082 1.490 . S
C6180 C2741 1.455 . S
C6216 C2697 1.503 . S
C6197 C1021 1.517 . S
