# Generated by pormake.
# Topology anh, (6,3)-cn, num edge types: 1
# Building blocks:
#     Node 0, Type 0, BuildingBlock: PAMTUU_clean_sbu_0, # of connection points: 6
#     Node 1, Type 0, BuildingBlock: PAMTUU_clean_sbu_0, # of connection points: 6
#     Node 2, Type 0, BuildingBlock: PAMTUU_clean_sbu_0, # of connection points: 6
#     Node 3, Type 1, BuildingBlock: BETDAH_clean_linker_0, # of connection points: 3
#     Node 4, Type 1, BuildingBlock: BETDAH_clean_linker_0, # of connection points: 3
#     Node 5, Type 1, BuildingBlock: BETDAH_clean_linker_0, # of connection points: 3
#     Node 6, Type 1, BuildingBlock: BETDAH_clean_linker_0, # of connection points: 3
#     Node 7, Type 1, BuildingBlock: BETDAH_clean_linker_0, # of connection points: 3
#     Node 8, Type 1, BuildingBlock: BETDAH_clean_linker_0, # of connection points: 3
#     Edge 9, Type (0, 1), BuildingBlock: KIFKEQ_clean_linker_1, # of connection points: 2
#     Edge 10, Type (0, 1), BuildingBlock: KIFKEQ_clean_linker_1, # of connection points: 2
#     Edge 11, Type (0, 1), BuildingBlock: KIFKEQ_clean_linker_1, # of connection points: 2
#     Edge 12, Type (0, 1), BuildingBlock: KIFKEQ_clean_linker_1, # of connection points: 2
#     Edge 13, Type (0, 1), BuildingBlock: KIFKEQ_clean_linker_1, # of connection points: 2
#     Edge 14, Type (0, 1), BuildingBlock: KIFKEQ_clean_linker_1, # of connection points: 2
#     Edge 15, Type (0, 1), BuildingBlock: KIFKEQ_clean_linker_1, # of connection points: 2
#     Edge 16, Type (0, 1), BuildingBlock: KIFKEQ_clean_linker_1, # of connection points: 2
#     Edge 17, Type (0, 1), BuildingBlock: KIFKEQ_clean_linker_1, # of connection points: 2
#     Edge 18, Type (0, 1), BuildingBlock: KIFKEQ_clean_linker_1, # of connection points: 2
#     Edge 19, Type (0, 1), BuildingBlock: KIFKEQ_clean_linker_1, # of connection points: 2
#     Edge 20, Type (0, 1), BuildingBlock: KIFKEQ_clean_linker_1, # of connection points: 2
#     Edge 21, Type (0, 1), BuildingBlock: KIFKEQ_clean_linker_1, # of connection points: 2
#     Edge 22, Type (0, 1), BuildingBlock: KIFKEQ_clean_linker_1, # of connection points: 2
#     Edge 23, Type (0, 1), BuildingBlock: KIFKEQ_clean_linker_1, # of connection points: 2
#     Edge 24, Type (0, 1), BuildingBlock: KIFKEQ_clean_linker_1, # of connection points: 2
#     Edge 25, Type (0, 1), BuildingBlock: KIFKEQ_clean_linker_1, # of connection points: 2
#     Edge 26, Type (0, 1), BuildingBlock: KIFKEQ_clean_linker_1, # of connection points: 2
# Relax obj value: 0.235
# Max RMSD: 0.144
# Mean RMSD: 0.101
data_MOF--net-anh--node1-PAMTUU_clean_sbu_0--node2-BETDAH_clean_linker_0--edge1-KIFKEQ_clean_linker_1
_symmetry_space_group_name_H-M    P1
_symmetry_Int_Tables_number       1
_symmetry_cell_setting            triclinic
loop_
_symmetry_equiv_pos_as_xyz
'x, y, z'
_cell_length_a     30.258837
_cell_length_b     30.391071
_cell_length_c     50.600168
_cell_angle_alpha  90.83048
_cell_angle_beta   94.189341
_cell_angle_gamma 120.32385
loop_
_atom_site_label
_atom_site_type_symbol
_atom_site_fract_x
_atom_site_fract_y
_atom_site_fract_z
_atom_type_partial_charge
Tb0 Tb 0.15161 0.69647 0.15894 0.0
Tb1 Tb 0.20505 0.62994 0.14629 0.0
C2 C 0.1611 0.66595 0.10085 0.0
C3 C 1.04498 0.71327 0.17013 0.0
C4 C 0.93875 0.64271 0.16282 0.0
C5 C 0.9611 0.68443 0.14668 0.0
C6 C 1.01392 0.71948 0.15031 0.0
C7 C 1.02142 0.67479 0.18807 0.0
C8 C 0.96881 0.63979 0.18438 0.0
C9 C 1.10112 0.73899 0.16855 0.0
O10 O 1.09512 0.61926 0.16788 0.0
O11 O 1.12184 0.57535 0.14278 0.0
O12 O 0.18668 0.62075 0.1869 0.0
O13 O 0.1985 0.69975 0.19478 0.0
O14 O 0.20547 0.57285 0.12288 0.0
O15 O 0.25838 0.60751 0.15834 0.0
O16 O 0.2696 0.70852 0.15569 0.0
O17 O 0.22765 0.75373 0.14933 0.0
O18 O 1.12948 0.66609 0.11737 0.0
O19 O 0.2023 0.66521 0.10996 0.0
C20 C 1.08695 0.57647 0.15644 0.0
O21 O 1.1269 0.72915 0.18688 0.0
O22 O 1.11527 0.73644 0.14511 0.0
C23 C 0.19925 0.65956 0.20335 0.0
C24 C 0.28012 0.56449 0.12623 0.0
C25 C 0.33275 0.51663 0.10893 0.0
C26 C 0.34659 0.5425 0.13408 0.0
C27 C 0.32039 0.56608 0.14268 0.0
C28 C 0.26954 0.54274 0.10018 0.0
C29 C 0.29578 0.51914 0.09157 0.0
C30 C 0.2426 0.574 0.13828 0.0
C31 C 0.2703 0.75217 0.15327 0.0
H32 H 0.93871 0.68746 0.12985 0.0
H33 H 1.03109 0.74881 0.13627 0.0
H34 H 1.04402 0.66897 0.20372 0.0
H35 H 0.95227 0.60832 0.19729 0.0
H36 H 0.37561 0.54192 0.1477 0.0
H37 H 0.32913 0.58218 0.16293 0.0
H38 H 0.23841 0.54047 0.08708 0.0
H39 H 0.2842 0.49941 0.0721 0.0
Tb40 Tb 0.63892 0.22359 0.49193 0.0
Tb41 Tb 0.76279 0.29141 0.48702 0.0
C42 C 0.68293 0.25172 0.43617 0.0
C43 C 0.51817 0.11564 0.50764 0.0
C44 C 0.47435 1.01114 0.51629 0.0
C45 C 0.44516 1.02931 0.50253 0.0
C46 C 0.46704 1.08124 0.49818 0.0
C47 C 0.54615 0.0982 0.52301 0.0
C48 C 0.52433 1.04643 0.52742 0.0
C49 C 0.54486 0.16714 0.49788 0.0
O50 O 0.66257 0.16804 0.48404 0.0
O51 O 0.74877 0.21563 0.49786 0.0
O52 O 0.75199 0.29566 0.52849 0.0
O53 O 0.67683 0.21999 0.52951 0.0
O54 O 0.83405 0.35696 0.49925 0.0
O55 O 0.82757 0.30258 0.46905 0.0
O56 O 0.73436 0.34427 0.47985 0.0
O57 O 0.65973 0.30273 0.50035 0.0
O58 O 0.64538 0.24391 0.45054 0.0
O59 O 0.72835 0.26293 0.44695 0.0
C60 C 0.70646 0.171 0.49198 0.0
O61 O 0.57727 0.20364 0.5151 0.0
O62 O 0.56453 0.16986 0.47549 0.0
C63 C 0.71954 0.2576 0.54154 0.0
C64 C 0.90605 0.34667 0.49648 0.0
C65 C 1.00314 0.35876 0.51168 0.0
C66 C 0.96046 0.30988 0.50481 0.0
C67 C 0.91219 0.30382 0.49733 0.0
C68 C 0.94771 0.39484 0.50513 0.0
C69 C 0.99577 0.40087 0.51275 0.0
C70 C 0.85868 0.34323 0.48425 0.0
C71 C 0.69632 0.34436 0.49097 0.0
H72 H 0.40679 1.00303 0.49343 0.0
H73 H 0.44516 0.09401 0.48602 0.0
H74 H 0.58592 0.1241 0.53029 0.0
H75 H 0.54758 1.03365 0.53829 0.0
H76 H 0.96495 0.27672 0.50402 0.0
H77 H 0.88042 0.26604 0.49106 0.0
H78 H 0.94374 0.42833 0.50465 0.0
H79 H 1.02793 0.43913 0.51761 0.0
Tb80 Tb 0.55936 0.56563 0.79488 0.0
Tb81 Tb 0.62582 0.67699 0.82719 0.0
C82 C 0.61013 0.66414 0.7651 0.0
C83 C 0.52127 0.43596 0.77498 0.0
C84 C 0.55206 0.36613 0.79047 0.0
C85 C 0.58509 0.40999 0.7776 0.0
C86 C 0.57002 0.4446 0.77004 0.0
C87 C 0.48689 0.39054 0.78632 0.0
C88 C 0.50214 0.35574 0.79398 0.0
C89 C 0.50981 0.47753 0.77267 0.0
O90 O 0.63931 0.58169 0.7954 0.0
O91 O 0.68164 0.65283 0.82458 0.0
O92 O 0.58873 0.62006 0.85635 0.0
O93 O 0.58665 0.55418 0.83311 0.0
O94 O 0.65386 0.7557 0.82872 0.0
O95 O 0.67534 0.72099 0.8605 0.0
O96 O 0.54883 0.66627 0.82043 0.0
O97 O 0.50244 0.57924 0.81188 0.0
O98 O 0.56628 0.62242 0.76747 0.0
O99 O 0.64405 0.68574 0.7858 0.0
C100 C 0.68107 0.61644 0.80999 0.0
O101 O 0.49778 0.4903 0.79458 0.0
O102 O 0.54222 0.51763 0.76076 0.0
C103 C 0.58644 0.57571 0.85557 0.0
C104 C 0.68217 0.80087 0.87131 0.0
C105 C 0.71566 0.89498 0.89886 0.0
C106 C 0.7353 0.86377 0.90716 0.0
C107 C 0.71885 0.81717 0.89337 0.0
C108 C 0.65743 0.82854 0.86537 0.0
C109 C 0.67394 0.87519 0.87912 0.0
C110 C 0.67956 0.76298 0.85182 0.0
C111 C 0.50479 0.62275 0.8179 0.0
H112 H 0.6233 0.41826 0.77392 0.0
H113 H 0.59761 0.47924 0.76145 0.0
H114 H 0.44925 0.38329 0.7905 0.0
H115 H 0.47584 0.32202 0.80369 0.0
H116 H 0.76688 0.87762 0.92257 0.0
H117 H 0.73834 0.79632 0.8984 0.0
H118 H 0.62874 0.81672 0.84858 0.0
H119 H 0.65788 0.89816 0.87213 0.0
H120 H 0.57157 0.0939 0.24344 0.0
H121 H 0.71523 0.22643 0.22879 0.0
H122 H 0.62886 0.10876 0.16673 0.0
C123 C 0.60023 0.11559 0.22995 0.0
C124 C 0.59433 0.09527 0.2039 0.0
C125 C 0.64375 0.16259 0.2392 0.0
C126 C 0.68182 0.1901 0.22187 0.0
C127 C 0.6764 0.17084 0.19561 0.0
C128 C 0.63292 0.12336 0.18697 0.0
N129 N 0.71338 0.19763 0.17718 0.0
C130 C 0.75783 0.24577 0.18152 0.0
H131 H 0.68887 0.65197 0.57892 0.0
H132 H 0.69116 0.79229 0.56489 0.0
H133 H 0.70151 0.70553 0.49997 0.0
C134 C 0.69098 0.67987 0.5652 0.0
C135 C 0.69457 0.6723 0.5381 0.0
C136 C 0.68942 0.72261 0.57502 0.0
C137 C 0.69232 0.75934 0.55742 0.0
C138 C 0.69766 0.75381 0.53032 0.0
C139 C 0.69862 0.7102 0.52092 0.0
N140 N 0.70206 0.7907 0.5118 0.0
C141 C 0.70076 0.83562 0.51668 0.0
H142 H 1.00044 0.6217 0.90409 0.0
H143 H 1.13904 0.62097 0.89068 0.0
H144 H 1.03379 0.60586 0.82445 0.0
C145 C 1.02522 0.61913 0.89052 0.0
C146 C 1.01088 0.61341 0.86299 0.0
C147 C 1.07129 0.62204 0.90083 0.0
C148 C 1.10374 0.61915 0.88304 0.0
C149 C 1.09011 0.61292 0.85546 0.0
C150 C 1.04366 0.60985 0.84571 0.0
N151 N 1.12172 0.60964 0.83676 0.0
C152 C 0.17001 0.61421 0.84218 0.0
H153 H 0.33887 0.70998 0.40471 0.0
H154 H 0.33246 0.57064 0.37991 0.0
H155 H 0.37292 0.62526 0.46179 0.0
C156 C 0.34196 0.67693 0.40948 0.0
C157 C 0.35637 0.67182 0.43577 0.0
C158 C 0.3328 0.64067 0.38912 0.0
C159 C 0.34007 0.59958 0.39519 0.0
C160 C 0.35397 0.59371 0.42136 0.0
C161 C 0.36218 0.62992 0.44158 0.0
N162 N 0.35679 0.54974 0.42736 0.0
C163 C 0.33216 0.52134 0.44839 0.0
H164 H 0.73529 0.23706 0.73594 0.0
H165 H 0.87658 0.23551 0.73845 0.0
H166 H 0.80111 0.21822 0.80984 0.0
C167 C 0.76487 0.23309 0.74719 0.0
C168 C 0.76233 0.22549 0.77442 0.0
C169 C 0.80569 0.23676 0.73415 0.0
C170 C 0.84499 0.23297 0.74847 0.0
C171 C 0.8435 0.22592 0.77582 0.0
C172 C 0.8022 0.22267 0.78869 0.0
N173 N 0.88333 0.22163 0.79001 0.0
C174 C 0.87569 0.19826 0.81398 0.0
H175 H 0.65813 0.43762 0.0312 0.0
H176 H 0.50249 0.31798 0.00787 0.0
H177 H 0.57952 0.31354 0.08146 0.0
C178 C 0.62448 0.4014 0.03454 0.0
C179 C 0.62422 0.37748 0.05804 0.0
C180 C 0.58074 0.38054 0.01621 0.0
C181 C 0.53745 0.3338 0.02114 0.0
C182 C 0.53746 0.30899 0.04432 0.0
C183 C 0.58077 0.33106 0.06281 0.0
N184 N 0.49091 0.26772 0.05148 0.0
C185 C 0.45507 0.27917 0.05972 0.0
H186 H 0.34038 0.44908 0.14077 0.0
H187 H 0.36541 0.50373 0.06181 0.0
H188 H 0.36449 0.38655 0.12937 0.0
H189 H 0.39034 0.44132 0.0504 0.0
H190 H 0.38584 0.29321 0.03034 0.0
H191 H 0.35403 0.34989 0.04264 0.0
H192 H 0.43892 0.38228 0.11989 0.0
H193 H 0.46916 0.32464 0.1076 0.0
C194 C 0.35203 0.44838 0.1211 0.0
C195 C 0.35155 0.48168 0.10225 0.0
C196 C 0.36561 0.41235 0.11453 0.0
C197 C 0.37917 0.40883 0.08896 0.0
C198 C 0.37917 0.44246 0.07014 0.0
C199 C 0.36531 0.47843 0.07669 0.0
C200 C 0.39621 0.31145 0.05017 0.0
C201 C 0.42877 0.3042 0.06833 0.0
C202 C 0.3788 0.34442 0.05708 0.0
C203 C 0.39425 0.37086 0.08218 0.0
C204 C 0.42572 0.36202 0.10055 0.0
C205 C 0.44291 0.32898 0.09362 0.0
H206 H 1.04122 0.31768 0.47851 0.0
H207 H 1.08528 0.42138 0.54746 0.0
H208 H 1.13072 0.35057 0.47213 0.0
H209 H 0.17581 0.45401 0.54144 0.0
H210 H 0.2961 0.5589 0.4835 0.0
H211 H 0.22237 0.50955 0.50835 0.0
H212 H 0.21703 0.37064 0.48213 0.0
H213 H 0.29039 0.42087 0.45642 0.0
C214 C 1.0701 0.34596 0.49305 0.0
C215 C 1.0562 0.36768 0.51317 0.0
C216 C 1.12176 0.3649 0.48943 0.0
C217 C 0.16067 0.40585 0.50593 0.0
C218 C 0.14676 0.42336 0.52796 0.0
C219 C 1.09496 0.40462 0.53147 0.0
C220 C 0.28016 0.51801 0.48383 0.0
C221 C 0.29832 0.49337 0.46814 0.0
C222 C 0.23801 0.48957 0.49822 0.0
C223 C 0.21322 0.43587 0.49705 0.0
C224 C 0.23469 0.41181 0.48312 0.0
C225 C 0.27679 0.44043 0.46857 0.0
H226 H 0.68129 0.96128 0.90925 0.0
H227 H 0.81961 0.95593 0.9009 0.0
H228 H 0.72685 1.05146 0.89981 0.0
H229 H 0.86433 1.04474 0.89114 0.0
H230 H 0.93157 0.19608 0.85809 0.0
H231 H 0.89798 0.13586 0.8934 0.0
H232 H 0.74426 1.07214 0.85446 0.0
H233 H 0.77781 0.13166 0.81992 0.0
C234 C 0.72187 0.97978 0.90648 0.0
C235 C 0.74627 0.95103 0.90492 0.0
C236 C 0.74796 1.03137 0.90101 0.0
C237 C 0.79858 1.05466 0.89365 0.0
C238 C 0.82528 1.02808 0.8965 0.0
C239 C 0.79937 0.97671 0.90214 0.0
C240 C 0.89056 0.16974 0.85766 0.0
C241 C 0.85704 0.16798 0.83652 0.0
C242 C 0.8713 0.13551 0.8778 0.0
C243 C 0.81836 0.09931 0.8769 0.0
C244 C 0.78498 0.10012 0.8563 0.0
C245 C 0.80422 0.13391 0.83627 0.0
H246 H 0.91362 0.54385 0.15743 0.0
H247 H 0.84928 0.64181 0.14804 0.0
H248 H 0.83376 0.47182 0.13678 0.0
H249 H 0.76887 0.56927 0.12739 0.0
H250 H 0.62025 0.41632 0.10568 0.0
H251 H 0.6936 0.47659 0.13657 0.0
H252 H 0.79699 0.46249 0.0873 0.0
H253 H 0.7238 0.40328 0.05622 0.0
C254 C 0.88179 0.54955 0.15171 0.0
C255 C 0.88743 0.59828 0.15443 0.0
C256 C 0.83633 0.50844 0.13974 0.0
C257 C 0.79541 0.51515 0.13057 0.0
C258 C 0.79985 0.56315 0.13457 0.0
C259 C 0.84575 0.60458 0.14622 0.0
C260 C 0.65866 0.42526 0.10195 0.0
C261 C 0.66683 0.40522 0.07886 0.0
C262 C 0.7004 0.45984 0.11942 0.0
C263 C 0.75068 0.474 0.11422 0.0
C264 C 0.75847 0.45171 0.09184 0.0
C265 C 0.71685 0.41798 0.07412 0.0
H266 H 0.52905 0.96551 0.5058 0.0
H267 H 0.37778 0.93154 0.52335 0.0
H268 H 0.49634 0.87609 0.49475 0.0
H269 H 0.34467 0.84088 0.51264 0.0
H270 H 0.30122 0.71885 0.4432 0.0
H271 H 0.32749 0.79515 0.47111 0.0
H272 H 0.45978 0.78931 0.50488 0.0
H273 H 0.43491 0.71443 0.47564 0.0
C274 C 0.48909 0.93862 0.50828 0.0
C275 C 0.4559 0.95568 0.51523 0.0
C276 C 0.47023 0.88704 0.50196 0.0
C277 C 0.41765 0.85115 0.50251 0.0
C278 C 0.38518 0.86768 0.5115 0.0
C279 C 0.40409 0.91952 0.51768 0.0
C280 C 0.33573 0.73365 0.45673 0.0
C281 C 0.36676 0.71148 0.45667 0.0
C282 C 0.35041 0.77701 0.4731 0.0
C283 C 0.39625 0.79895 0.49001 0.0
C284 C 0.4248 0.774 0.49168 0.0
C285 C 0.4103 0.73078 0.4751 0.0
H286 H 0.6442 0.39534 0.81752 0.0
H287 H 0.50264 0.26134 0.78638 0.0
H288 H 0.6845 0.34481 0.82398 0.0
H289 H 0.54194 0.20904 0.79461 0.0
H290 H 0.66083 0.17947 0.75582 0.0
H291 H 0.59889 0.20021 0.77028 0.0
H292 H 0.70238 0.28454 0.83966 0.0
H293 H 0.76659 0.26801 0.82357 0.0
C294 C 0.6213 0.35457 0.81269 0.0
C295 C 0.57106 0.33258 0.80041 0.0
C296 C 0.64413 0.32512 0.81689 0.0
C297 C 0.61701 0.27266 0.8092 0.0
C298 C 0.56454 0.24958 0.79999 0.0
C299 C 0.54181 0.2794 0.79545 0.0
C300 C 0.67026 0.20218 0.77428 0.0
C301 C 0.71965 0.22432 0.78777 0.0
C302 C 0.63414 0.21331 0.78295 0.0
C303 C 0.64626 0.24594 0.80568 0.0
C304 C 0.69256 0.26113 0.82144 0.0
C305 C 0.72929 0.25109 0.81237 0.0
H306 H 0.78887 0.15655 0.50422 0.0
H307 H 0.62335 1.07366 0.48983 0.0
H308 H 0.78709 1.0762 0.51136 0.0
H309 H 0.6214 0.99417 0.4977 0.0
H310 H 0.63522 0.85253 0.48568 0.0
H311 H 0.63742 0.93315 0.47985 0.0
H312 H 0.76695 1.00781 0.5394 0.0
H313 H 0.76517 0.92669 0.54445 0.0
C314 C 0.75208 0.12132 0.5026 0.0
C315 C 0.70638 0.12204 0.4961 0.0
C316 C 0.75095 1.07501 0.50694 0.0
C317 C 0.70406 1.02789 0.50507 0.0
C318 C 0.65845 1.02899 0.49883 0.0
C319 C 0.65959 1.07504 0.49437 0.0
C320 C 0.66374 0.88611 0.49775 0.0
C321 C 0.69961 0.88317 0.51572 0.0
C322 C 0.66504 0.93259 0.49448 0.0
C323 C 0.70238 0.97782 0.50914 0.0
C324 C 0.738 0.97442 0.52743 0.0
C325 C 0.73669 0.92774 0.53061 0.0
H326 H 0.77851 0.69597 0.82075 0.0
H327 H 0.69406 0.53265 0.80443 0.0
H328 H 0.85718 0.69423 0.83078 0.0
H329 H 0.77355 0.53054 0.81528 0.0
H330 H 0.9394 0.55411 0.82107 0.0
H331 H 0.86058 0.55349 0.805 0.0
H332 H 0.89311 0.66917 0.86613 0.0
H333 H 0.97204 0.67129 0.88129 0.0
C334 C 0.77674 0.65951 0.81915 0.0
C335 C 0.72962 0.61441 0.81195 0.0
C336 C 0.82206 0.65845 0.82517 0.0
C337 C 0.82204 0.61212 0.82455 0.0
C338 C 0.77535 0.56704 0.81602 0.0
C339 C 0.72967 0.56818 0.80973 0.0
C340 C 0.92998 0.57982 0.83089 0.0
C341 C 0.96249 0.61268 0.85261 0.0
C342 C 0.88435 0.57905 0.82182 0.0
C343 C 0.87013 0.61147 0.83406 0.0
C344 C 0.90275 0.64417 0.85576 0.0
C345 C 0.94803 0.64489 0.86478 0.0
H346 H 0.28531 0.84837 0.14898 0.0
H347 H 0.36839 0.76969 0.16694 0.0
H348 H 0.36372 0.92992 0.15948 0.0
H349 H 0.44741 0.8521 0.17772 0.0
H350 H 0.58895 1.01578 0.17396 0.0
H351 H 0.51269 0.93304 0.15976 0.0
H352 H 0.41835 0.97763 0.19924 0.0
H353 H 0.49397 1.0602 0.21288 0.0
C354 C 0.32034 0.84827 0.15502 0.0
C355 C 0.32006 0.80197 0.15721 0.0
C356 C 0.36546 0.89534 0.16124 0.0
C357 C 0.41202 0.89789 0.16982 0.0
C358 C 0.41238 0.85174 0.17109 0.0
C359 C 0.36696 0.80438 0.16494 0.0
C360 C 0.55183 1.00807 0.17939 0.0
C361 C 0.5478 1.04488 0.1946 0.0
C362 C 0.50814 0.96037 0.17147 0.0
C363 C 0.45912 0.94844 0.17826 0.0
C364 C 0.4552 0.98547 0.19332 0.0
C365 C 0.49879 1.0328 0.2014 0.0
H366 H 0.61497 0.3552 0.5021 0.0
H367 H 0.77464 0.44399 0.48731 0.0
H368 H 0.61308 0.43311 0.51034 0.0
H369 H 0.77359 0.52264 0.49671 0.0
H370 H 0.74817 0.65961 0.49917 0.0
H371 H 0.74731 0.58175 0.48513 0.0
H372 H 0.63868 0.49872 0.54197 0.0
H373 H 0.63714 0.57491 0.55459 0.0
C374 C 0.64988 0.39144 0.50065 0.0
C375 C 0.69503 0.3929 0.49413 0.0
C376 C 0.64897 0.43653 0.50564 0.0
C377 C 0.6934 0.485 0.50472 0.0
C378 C 0.73832 0.48647 0.49747 0.0
C379 C 0.73905 0.44115 0.49215 0.0
C380 C 0.72347 0.62454 0.50837 0.0
C381 C 0.6931 0.62429 0.52829 0.0
C382 C 0.72347 0.57975 0.50053 0.0
C383 C 0.693 0.53317 0.51232 0.0
C384 C 0.66221 0.53306 0.53195 0.0
C385 C 0.66198 0.57748 0.53961 0.0
H386 H 0.4932 0.70361 0.83296 0.0
H387 H 0.40565 0.54106 0.81372 0.0
H388 H 0.41434 0.70272 0.8412 0.0
H389 H 0.32671 0.54032 0.82135 0.0
H390 H 0.19594 0.54465 0.85841 0.0
H391 H 0.27747 0.54741 0.854 0.0
H392 H 0.33751 0.69424 0.81993 0.0
H393 H 0.2564 0.6915 0.82504 0.0
C394 C 0.45716 0.66764 0.83033 0.0
C395 C 0.45621 0.62243 0.82258 0.0
C396 C 0.41164 0.66715 0.83497 0.0
C397 C 0.36357 0.62143 0.83202 0.0
C398 C 0.36275 0.57623 0.8243 0.0
C399 C 0.40824 0.57671 0.81968 0.0
C400 C 0.22702 0.57781 0.85041 0.0
C401 C 0.22015 0.61812 0.84235 0.0
C402 C 0.27364 0.57924 0.84756 0.0
C403 C 0.31457 0.62097 0.83643 0.0
C404 C 0.30758 0.66174 0.82891 0.0
C405 C 0.26098 0.66023 0.83178 0.0
H406 H 1.05411 0.47899 0.13624 0.0
H407 H 1.00849 0.5638 0.18539 0.0
H408 H 0.97505 0.40015 0.14345 0.0
H409 H 0.93014 0.48509 0.193 0.0
H410 H 0.76909 0.33989 0.17832 0.0
H411 H 0.8483 0.42009 0.17226 0.0
H412 H 0.93327 0.3407 0.17663 0.0
H413 H 0.85373 0.26072 0.18229 0.0
C414 C 1.02732 0.48095 0.14859 0.0
C415 C 1.03796 0.5281 0.16013 0.0
C416 C 0.98199 0.43553 0.15293 0.0
C417 C 0.94588 0.43583 0.16894 0.0
C418 C 0.95647 0.48309 0.18032 0.0
C419 C 1.00174 0.52844 0.176 0.0
C420 C 0.80494 0.33996 0.17836 0.0
C421 C 0.80555 0.29439 0.18105 0.0
C422 C 0.85042 0.38589 0.17486 0.0
C423 C 0.89754 0.38719 0.17373 0.0
C424 C 0.89785 0.34132 0.17692 0.0
C425 C 0.8524 0.29553 0.1805 0.0
H426 H 0.21838 0.66439 0.06184 0.0
H427 H 1.07573 0.65913 0.07327 0.0
H428 H 0.19708 0.65421 0.01406 0.0
H429 H 1.05479 0.6499 0.02516 0.0
H430 H 1.00821 0.57538 0.94027 0.0
H431 H 1.03004 0.58818 0.98815 0.0
H432 H 0.18797 0.69664 0.97609 0.0
H433 H 0.16606 0.6838 0.92813 0.0
C434 C 0.18258 0.66151 0.05419 0.0
C435 C 0.14874 0.66251 0.07155 0.0
C436 C 0.17049 0.65594 0.02665 0.0
C437 C 1.12415 0.65115 0.01559 0.0
C438 C 1.09052 0.65277 0.03293 0.0
C439 C 1.10268 0.65844 0.06055 0.0
C440 C 1.04755 0.60229 0.94779 0.0
C441 C 1.08531 0.62864 0.9302 0.0
C442 C 1.06007 0.60972 0.97533 0.0
C443 C 1.11076 0.64366 0.98615 0.0
C444 C 0.14864 0.66972 0.96856 0.0
C445 C 1.1361 0.66229 0.94099 0.0
H446 H 0.7539 0.29978 0.40099 0.0
H447 H 0.59325 0.18948 0.40486 0.0
H448 H 0.74396 0.28381 0.35314 0.0
H449 H 0.58347 0.17117 0.3569 0.0
H450 H 0.5724 0.16894 0.26682 0.0
H451 H 0.58039 0.19565 0.3135 0.0
H452 H 0.73573 0.2231 0.32198 0.0
H453 H 0.72805 0.19845 0.27516 0.0
C454 C 0.71629 0.27206 0.39153 0.0
C455 C 0.6744 0.24573 0.40674 0.0
C456 C 0.71064 0.26245 0.36403 0.0
C457 C 0.66311 0.22539 0.3509 0.0
C458 C 0.62064 0.20032 0.36608 0.0
C459 C 0.62615 0.21069 0.39365 0.0
C460 C 0.60834 0.18108 0.27871 0.0
C461 C 0.64966 0.18171 0.26728 0.0
C462 C 0.61288 0.19612 0.30556 0.0
C463 C 0.65869 0.2116 0.32184 0.0
C464 C 0.70014 0.2126 0.31018 0.0
C465 C 0.69579 0.19825 0.28326 0.0
H466 H 0.54515 0.63781 0.71968 0.0
H467 H 0.70474 0.73309 0.74938 0.0
H468 H 0.56747 0.66143 0.67466 0.0
H469 H 0.72704 0.75679 0.70418 0.0
H470 H 0.61839 0.73845 0.59737 0.0
H471 H 0.60089 0.73297 0.64417 0.0
H472 H 0.72848 0.70956 0.664 0.0
H473 H 0.74587 0.71524 0.61744 0.0
C474 C 0.58494 0.66435 0.71668 0.0
C475 C 0.62317 0.68331 0.7382 0.0
C476 C 0.59769 0.67816 0.69083 0.0
C477 C 0.64909 0.71089 0.68575 0.0
C478 C 0.68714 0.73115 0.70737 0.0
C479 C 0.67429 0.71777 0.73331 0.0
C480 C 0.64327 0.73323 0.61187 0.0
C481 C 0.68336 0.72707 0.60373 0.0
C482 C 0.63302 0.72963 0.63861 0.0
C483 C 0.6631 0.72053 0.65785 0.0
C484 C 0.70478 0.71698 0.64982 0.0
C485 C 0.71459 0.71994 0.6231 0.0
H486 H 0.79813 0.33385 0.57356 0.0
H487 H 0.67547 0.17657 0.57322 0.0
H488 H 0.82633 0.32999 0.61928 0.0
H489 H 0.7037 0.17304 0.61931 0.0
H490 H 0.79784 0.17169 0.69408 0.0
H491 H 0.77939 0.17677 0.64649 0.0
H492 H 0.79131 0.32253 0.6628 0.0
H493 H 0.80972 0.31723 0.71004 0.0
C494 C 0.777 0.29847 0.58327 0.0
C495 C 0.73435 0.25556 0.56979 0.0
C496 C 0.79323 0.29633 0.60948 0.0
C497 C 0.7674 0.25118 0.6228 0.0
C498 C 0.72476 0.20815 0.60938 0.0
C499 C 0.70823 0.21038 0.58313 0.0
C500 C 0.79788 0.20532 0.68723 0.0
C501 C 0.80557 0.24431 0.70545 0.0
C502 C 0.78667 0.20795 0.66017 0.0
C503 C 0.78353 0.24987 0.65101 0.0
C504 C 0.79385 0.28997 0.66922 0.0
C505 C 0.80449 0.28706 0.6962 0.0
H506 H 0.5701 0.59645 0.906 0.0
H507 H 0.59976 0.49431 0.86029 0.0
H508 H 0.56537 0.54881 0.94543 0.0
H509 H 0.59646 0.44828 0.89931 0.0
H510 H 0.61844 0.48346 0.01484 0.0
H511 H 0.61866 0.53142 0.97667 0.0
H512 H 0.53594 0.39074 0.92765 0.0
H513 H 0.53823 0.34309 0.96548 0.0
C514 C 0.57584 0.56414 0.9044 0.0
C515 C 0.58488 0.549 0.87999 0.0
C516 C 0.57329 0.53694 0.92694 0.0
C517 C 0.57996 0.49434 0.92544 0.0
C518 C 0.58982 0.47999 0.90107 0.0
C519 C 0.59206 0.50678 0.87868 0.0
C520 C 0.60089 0.4628 -0.00417 0.0
C521 C 0.57908 0.40946 -0.0069 0.0
C522 C 0.60029 0.49027 0.97405 0.0
C523 C 0.5776 0.46502 0.94907 0.0
C524 C 0.55453 0.41151 0.94652 0.0
C525 C 0.55538 0.38409 0.96826 0.0
H526 H 0.21156 0.58441 0.22466 0.0
H527 H 0.22861 0.7313 0.24483 0.0
H528 H 0.24486 0.58213 0.26934 0.0
H529 H 0.26246 0.72886 0.29 0.0
H530 H 0.26283 0.66997 0.37486 0.0
H531 H 0.23186 0.67752 0.33031 0.0
H532 H 0.32839 0.62842 0.29701 0.0
H533 H 0.36024 0.62171 0.34162 0.0
C534 C 0.2223 0.61629 0.23864 0.0
C535 C 0.21742 0.65815 0.23112 0.0
C536 C 0.24181 0.61506 0.26423 0.0
C537 C 0.25673 0.65548 0.28308 0.0
C538 C 0.25108 0.69706 0.27584 0.0
C539 C 0.2318 0.6985 0.25002 0.0
C540 C 0.27812 0.66152 0.35807 0.0
C541 C 0.31417 0.6453 0.36185 0.0
C542 C 0.26029 0.66585 0.33255 0.0
C543 C 0.27768 0.65358 0.3102 0.0
C544 C 0.31385 0.63759 0.31391 0.0
C545 C 0.33196 0.63356 0.33944 0.0
loop_
_geom_bond_atom_site_label_1
_geom_bond_atom_site_label_2
_geom_bond_distance
_geom_bond_site_symmetry_2
_ccdc_geom_bond_type
Tb0 C9 2.764 1_455 S
Tb0 O10 2.325 1_455 S
Tb0 O13 2.303 . S
Tb0 O17 2.322 . S
Tb0 O18 2.349 . S
Tb0 O21 2.415 1_455 S
Tb0 O22 2.399 1_455 S
Tb1 O11 2.322 . S
Tb1 O12 2.349 . S
Tb1 O14 2.415 . S
Tb1 O15 2.399 . S
Tb1 O16 2.325 . S
Tb1 O19 2.303 . S
Tb1 C30 2.764 . S
C2 O18 1.261 . S
C2 O19 1.257 . S
C3 C6 1.358 . S
C3 C7 1.332 . S
C3 C9 1.504 . S
C4 C5 1.373 . S
C4 C8 1.308 . S
C5 C4 1.373 . S
C5 C6 1.429 . S
C5 H32 0.932 . S
C6 C3 1.358 . S
C6 C5 1.429 . S
C6 H33 0.930 . S
C7 C3 1.332 . S
C7 C8 1.394 . S
C7 H34 0.932 . S
C8 C4 1.308 . S
C8 C7 1.394 . S
C8 H35 0.929 . S
C9 Tb0 2.764 1_655 S
C9 C3 1.504 . S
C9 O21 1.239 . S
C9 O22 1.263 . S
O10 Tb0 2.325 1_655 S
O10 C20 1.236 . S
O11 Tb1 2.322 . S
O11 C20 1.257 1_455 S
O12 Tb1 2.349 . S
O12 C23 1.261 . S
O13 Tb0 2.303 . S
O13 C23 1.257 . S
O14 Tb1 2.415 . S
O14 C30 1.239 . S
O15 Tb1 2.399 . S
O15 C30 1.263 . S
O16 Tb1 2.325 . S
O16 C31 1.236 . S
O17 Tb0 2.322 . S
O17 C31 1.257 . S
O18 Tb0 2.349 . S
O18 C2 1.261 . S
O19 Tb1 2.303 . S
O19 C2 1.257 . S
C20 O10 1.236 . S
C20 O11 1.257 1_655 S
O21 Tb0 2.415 1_655 S
O21 C9 1.239 . S
O22 Tb0 2.399 1_655 S
O22 C9 1.263 . S
C23 O12 1.261 . S
C23 O13 1.257 . S
C24 C27 1.358 . S
C24 C28 1.332 . S
C24 C30 1.504 . S
C25 C26 1.373 . S
C25 C29 1.308 . S
C26 C25 1.373 . S
C26 C27 1.429 . S
C26 H36 0.932 . S
C27 C24 1.358 . S
C27 C26 1.429 . S
C27 H37 0.930 . S
C28 C24 1.332 . S
C28 C29 1.394 . S
C28 H38 0.932 . S
C29 C25 1.308 . S
C29 C28 1.394 . S
C29 H39 0.929 . S
C30 Tb1 2.764 . S
C30 O14 1.239 . S
C30 O15 1.263 . S
C30 C24 1.504 . S
C31 O16 1.236 . S
C31 O17 1.257 . S
H32 C5 0.932 . S
H33 C6 0.930 . S
H34 C7 0.932 . S
H35 C8 0.929 . S
H36 C26 0.932 . S
H37 C27 0.930 . S
H38 C28 0.932 . S
H39 C29 0.929 . S
Tb40 C49 2.764 1_545 S
Tb40 O50 2.325 1_545 S
Tb40 O53 2.303 . S
Tb40 O57 2.322 . S
Tb40 O58 2.349 . S
Tb40 O61 2.415 1_545 S
Tb40 O62 2.399 1_545 S
Tb41 O51 2.322 . S
Tb41 O52 2.349 . S
Tb41 O54 2.415 . S
Tb41 O55 2.399 . S
Tb41 O56 2.325 . S
Tb41 O59 2.303 . S
Tb41 C70 2.764 . S
C42 O58 1.261 . S
C42 O59 1.257 . S
C43 C46 1.358 . S
C43 C47 1.332 . S
C43 C49 1.504 . S
C44 C45 1.373 . S
C44 C48 1.308 . S
C45 C44 1.373 . S
C45 C46 1.429 . S
C45 H72 0.932 . S
C46 C43 1.358 . S
C46 C45 1.429 . S
C46 H73 0.930 . S
C47 C43 1.332 . S
C47 C48 1.394 . S
C47 H74 0.932 . S
C48 C44 1.308 . S
C48 C47 1.394 . S
C48 H75 0.929 . S
C49 Tb40 2.764 1_565 S
C49 C43 1.504 . S
C49 O61 1.239 . S
C49 O62 1.263 . S
O50 Tb40 2.325 1_565 S
O50 C60 1.236 . S
O51 Tb41 2.322 . S
O51 C60 1.257 1_545 S
O52 Tb41 2.349 . S
O52 C63 1.261 . S
O53 Tb40 2.303 . S
O53 C63 1.257 . S
O54 Tb41 2.415 . S
O54 C70 1.239 . S
O55 Tb41 2.399 . S
O55 C70 1.263 . S
O56 Tb41 2.325 . S
O56 C71 1.236 . S
O57 Tb40 2.322 . S
O57 C71 1.257 . S
O58 Tb40 2.349 . S
O58 C42 1.261 . S
O59 Tb41 2.303 . S
O59 C42 1.257 . S
C60 O50 1.236 . S
C60 O51 1.257 1_565 S
O61 Tb40 2.415 1_565 S
O61 C49 1.239 . S
O62 Tb40 2.399 1_565 S
O62 C49 1.263 . S
C63 O52 1.261 . S
C63 O53 1.257 . S
C64 C67 1.358 . S
C64 C68 1.332 . S
C64 C70 1.504 . S
C65 C66 1.373 . S
C65 C69 1.308 . S
C66 C65 1.373 . S
C66 C67 1.429 . S
C66 H76 0.932 . S
C67 C64 1.358 . S
C67 C66 1.429 . S
C67 H77 0.930 . S
C68 C64 1.332 . S
C68 C69 1.394 . S
C68 H78 0.932 . S
C69 C65 1.308 . S
C69 C68 1.394 . S
C69 H79 0.929 . S
C70 Tb41 2.764 . S
C70 O54 1.239 . S
C70 O55 1.263 . S
C70 C64 1.504 . S
C71 O56 1.236 . S
C71 O57 1.257 . S
H72 C45 0.932 . S
H73 C46 0.930 . S
H74 C47 0.932 . S
H75 C48 0.929 . S
H76 C66 0.932 . S
H77 C67 0.930 . S
H78 C68 0.932 . S
H79 C69 0.929 . S
Tb80 C89 2.764 . S
Tb80 O90 2.325 . S
Tb80 O93 2.303 . S
Tb80 O97 2.322 . S
Tb80 O98 2.349 . S
Tb80 O101 2.415 . S
Tb80 O102 2.399 . S
Tb81 O91 2.322 . S
Tb81 O92 2.349 . S
Tb81 O94 2.415 . S
Tb81 O95 2.399 . S
Tb81 O96 2.325 . S
Tb81 O99 2.303 . S
Tb81 C110 2.764 . S
C82 O98 1.261 . S
C82 O99 1.257 . S
C83 C86 1.358 . S
C83 C87 1.332 . S
C83 C89 1.504 . S
C84 C85 1.373 . S
C84 C88 1.308 . S
C85 C84 1.373 . S
C85 C86 1.429 . S
C85 H112 0.932 . S
C86 C83 1.358 . S
C86 C85 1.429 . S
C86 H113 0.930 . S
C87 C83 1.332 . S
C87 C88 1.394 . S
C87 H114 0.932 . S
C88 C84 1.308 . S
C88 C87 1.394 . S
C88 H115 0.929 . S
C89 Tb80 2.764 . S
C89 C83 1.504 . S
C89 O101 1.239 . S
C89 O102 1.263 . S
O90 Tb80 2.325 . S
O90 C100 1.236 . S
O91 Tb81 2.322 . S
O91 C100 1.257 . S
O92 Tb81 2.349 . S
O92 C103 1.261 . S
O93 Tb80 2.303 . S
O93 C103 1.257 . S
O94 Tb81 2.415 . S
O94 C110 1.239 . S
O95 Tb81 2.399 . S
O95 C110 1.263 . S
O96 Tb81 2.325 . S
O96 C111 1.236 . S
O97 Tb80 2.322 . S
O97 C111 1.257 . S
O98 Tb80 2.349 . S
O98 C82 1.261 . S
O99 Tb81 2.303 . S
O99 C82 1.257 . S
C100 O90 1.236 . S
C100 O91 1.257 . S
O101 Tb80 2.415 . S
O101 C89 1.239 . S
O102 Tb80 2.399 . S
O102 C89 1.263 . S
C103 O92 1.261 . S
C103 O93 1.257 . S
C104 C107 1.358 . S
C104 C108 1.332 . S
C104 C110 1.504 . S
C105 C106 1.373 . S
C105 C109 1.308 . S
C106 C105 1.373 . S
C106 C107 1.429 . S
C106 H116 0.932 . S
C107 C104 1.358 . S
C107 C106 1.429 . S
C107 H117 0.930 . S
C108 C104 1.332 . S
C108 C109 1.394 . S
C108 H118 0.932 . S
C109 C105 1.308 . S
C109 C108 1.394 . S
C109 H119 0.929 . S
C110 Tb81 2.764 . S
C110 O94 1.239 . S
C110 O95 1.263 . S
C110 C104 1.504 . S
C111 O96 1.236 . S
C111 O97 1.257 . S
H112 C85 0.932 . S
H113 C86 0.930 . S
H114 C87 0.932 . S
H115 C88 0.929 . S
H116 C106 0.932 . S
H117 C107 0.930 . S
H118 C108 0.932 . S
H119 C109 0.929 . S
H120 C123 0.929 . S
H121 C126 0.929 . S
H122 C128 0.930 . S
C123 H120 0.929 . S
C123 C124 1.398 . S
C123 C125 1.396 . S
C124 C123 1.398 . S
C124 C128 1.407 . S
C125 C123 1.396 . S
C125 C126 1.394 . S
C126 H121 0.929 . S
C126 C125 1.394 . S
C126 C127 1.382 . S
C127 C126 1.382 . S
C127 C128 1.392 . S
C127 N129 1.420 . S
C128 H122 0.930 . S
C128 C124 1.407 . S
C128 C127 1.392 . S
N129 C127 1.420 . S
N129 C130 1.244 . S
C130 N129 1.244 . S
H131 C134 0.929 . S
H132 C137 0.929 . S
H133 C139 0.930 . S
C134 H131 0.929 . S
C134 C135 1.398 . S
C134 C136 1.396 . S
C135 C134 1.398 . S
C135 C139 1.407 . S
C136 C134 1.396 . S
C136 C137 1.394 . S
C137 H132 0.929 . S
C137 C136 1.394 . S
C137 C138 1.382 . S
C138 C137 1.382 . S
C138 C139 1.392 . S
C138 N140 1.420 . S
C139 H133 0.930 . S
C139 C135 1.407 . S
C139 C138 1.392 . S
N140 C138 1.420 . S
N140 C141 1.244 . S
C141 N140 1.244 . S
H142 C145 0.929 . S
H143 C148 0.929 . S
H144 C150 0.930 . S
C145 H142 0.929 . S
C145 C146 1.398 . S
C145 C147 1.396 . S
C146 C145 1.398 . S
C146 C150 1.407 . S
C147 C145 1.396 . S
C147 C148 1.394 . S
C148 H143 0.929 . S
C148 C147 1.394 . S
C148 C149 1.382 . S
C149 C148 1.382 . S
C149 C150 1.392 . S
C149 N151 1.420 . S
C150 H144 0.930 . S
C150 C146 1.407 . S
C150 C149 1.392 . S
N151 C149 1.420 . S
N151 C152 1.244 . S
C152 N151 1.244 . S
H153 C156 0.929 . S
H154 C159 0.929 . S
H155 C161 0.930 . S
C156 H153 0.929 . S
C156 C157 1.398 . S
C156 C158 1.396 . S
C157 C156 1.398 . S
C157 C161 1.407 . S
C158 C156 1.396 . S
C158 C159 1.394 1_455 S
C159 H154 0.929 . S
C159 C158 1.394 1_655 S
C159 C160 1.382 . S
C160 C159 1.382 . S
C160 C161 1.392 1_655 S
C160 N162 1.420 . S
C161 H155 0.930 . S
C161 C157 1.407 . S
C161 C160 1.392 1_455 S
N162 C160 1.420 . S
N162 C163 1.244 . S
C163 N162 1.244 . S
H164 C167 0.929 . S
H165 C170 0.929 1_565 S
H166 C172 0.930 . S
C167 H164 0.929 . S
C167 C168 1.398 . S
C167 C169 1.396 . S
C168 C167 1.398 . S
C168 C172 1.407 . S
C169 C167 1.396 . S
C169 C170 1.394 . S
C170 H165 0.929 1_545 S
C170 C169 1.394 . S
C170 C171 1.382 . S
C171 C170 1.382 . S
C171 C172 1.392 . S
C171 N173 1.420 1_545 S
C172 H166 0.930 . S
C172 C168 1.407 . S
C172 C171 1.392 . S
N173 C171 1.420 1_565 S
N173 C174 1.244 . S
C174 N173 1.244 . S
H175 C178 0.929 . S
H176 C181 0.929 . S
H177 C183 0.930 . S
C178 H175 0.929 . S
C178 C179 1.398 . S
C178 C180 1.396 . S
C179 C178 1.398 . S
C179 C183 1.407 . S
C180 C178 1.396 . S
C180 C181 1.394 . S
C181 H176 0.929 . S
C181 C180 1.394 . S
C181 C182 1.382 . S
C182 C181 1.382 . S
C182 C183 1.392 . S
C182 N184 1.420 . S
C183 H177 0.930 . S
C183 C179 1.407 . S
C183 C182 1.392 . S
N184 C182 1.420 . S
N184 C185 1.244 . S
C185 N184 1.244 . S
H186 C194 0.950 . S
H187 C199 0.950 . S
H188 C196 0.950 . S
H189 C198 0.950 . S
H190 C200 0.950 . S
H191 C202 0.950 . S
H192 C204 0.950 . S
H193 C205 0.950 . S
C194 H186 0.950 . S
C194 C195 1.386 . S
C194 C196 1.391 . S
C195 C194 1.386 . S
C195 C199 1.393 . S
C196 H188 0.950 . S
C196 C194 1.391 . S
C196 C197 1.400 . S
C197 C196 1.400 . S
C197 C198 1.398 . S
C197 C203 1.491 . S
C198 H189 0.950 . S
C198 C197 1.398 . S
C198 C199 1.391 . S
C199 H187 0.950 . S
C199 C195 1.393 . S
C199 C198 1.391 . S
C200 H190 0.950 . S
C200 C201 1.386 . S
C200 C202 1.391 . S
C201 C200 1.386 . S
C201 C205 1.393 . S
C202 H191 0.950 . S
C202 C200 1.391 . S
C202 C203 1.400 . S
C203 C197 1.491 . S
C203 C202 1.400 . S
C203 C204 1.398 . S
C204 H192 0.950 . S
C204 C203 1.398 . S
C204 C205 1.391 . S
C205 H193 0.950 . S
C205 C201 1.393 . S
C205 C204 1.391 . S
H206 C214 0.950 . S
H207 C219 0.950 . S
H208 C216 0.950 . S
H209 C218 0.950 . S
H210 C220 0.950 . S
H211 C222 0.950 . S
H212 C224 0.950 . S
H213 C225 0.950 . S
C214 H206 0.950 . S
C214 C215 1.386 . S
C214 C216 1.391 . S
C215 C214 1.386 . S
C215 C219 1.393 . S
C216 H208 0.950 . S
C216 C214 1.391 . S
C216 C217 1.400 . S
C217 C216 1.400 . S
C217 C218 1.398 . S
C217 C223 1.491 . S
C218 H209 0.950 . S
C218 C217 1.398 . S
C218 C219 1.391 . S
C219 H207 0.950 . S
C219 C215 1.393 . S
C219 C218 1.391 . S
C220 H210 0.950 . S
C220 C221 1.386 . S
C220 C222 1.391 . S
C221 C220 1.386 . S
C221 C225 1.393 . S
C222 H211 0.950 . S
C222 C220 1.391 . S
C222 C223 1.400 . S
C223 C217 1.491 . S
C223 C222 1.400 . S
C223 C224 1.398 . S
C224 H212 0.950 . S
C224 C223 1.398 . S
C224 C225 1.391 . S
C225 H213 0.950 . S
C225 C221 1.393 . S
C225 C224 1.391 . S
H226 C234 0.950 . S
H227 C239 0.950 . S
H228 C236 0.950 . S
H229 C238 0.950 . S
H230 C240 0.950 . S
H231 C242 0.950 . S
H232 C244 0.950 . S
H233 C245 0.950 . S
C234 H226 0.950 . S
C234 C235 1.386 . S
C234 C236 1.391 . S
C235 C234 1.386 . S
C235 C239 1.393 . S
C236 H228 0.950 . S
C236 C234 1.391 . S
C236 C237 1.400 . S
C237 C236 1.400 . S
C237 C238 1.398 . S
C237 C243 1.491 . S
C238 H229 0.950 . S
C238 C237 1.398 . S
C238 C239 1.391 . S
C239 H227 0.950 . S
C239 C235 1.393 . S
C239 C238 1.391 . S
C240 H230 0.950 . S
C240 C241 1.386 . S
C240 C242 1.391 . S
C241 C240 1.386 . S
C241 C245 1.393 . S
C242 H231 0.950 . S
C242 C240 1.391 . S
C242 C243 1.400 . S
C243 C237 1.491 . S
C243 C242 1.400 . S
C243 C244 1.398 . S
C244 H232 0.950 . S
C244 C243 1.398 . S
C244 C245 1.391 . S
C245 H233 0.950 . S
C245 C241 1.393 . S
C245 C244 1.391 . S
H246 C254 0.950 . S
H247 C259 0.950 . S
H248 C256 0.950 . S
H249 C258 0.950 . S
H250 C260 0.950 . S
H251 C262 0.950 . S
H252 C264 0.950 . S
H253 C265 0.950 . S
C254 H246 0.950 . S
C254 C255 1.386 . S
C254 C256 1.391 . S
C255 C254 1.386 . S
C255 C259 1.393 . S
C256 H248 0.950 . S
C256 C254 1.391 . S
C256 C257 1.400 . S
C257 C256 1.400 . S
C257 C258 1.398 . S
C257 C263 1.491 . S
C258 H249 0.950 . S
C258 C257 1.398 . S
C258 C259 1.391 . S
C259 H247 0.950 . S
C259 C255 1.393 . S
C259 C258 1.391 . S
C260 H250 0.950 . S
C260 C261 1.386 . S
C260 C262 1.391 . S
C261 C260 1.386 . S
C261 C265 1.393 . S
C262 H251 0.950 . S
C262 C260 1.391 . S
C262 C263 1.400 . S
C263 C257 1.491 . S
C263 C262 1.400 . S
C263 C264 1.398 . S
C264 H252 0.950 . S
C264 C263 1.398 . S
C264 C265 1.391 . S
C265 H253 0.950 . S
C265 C261 1.393 . S
C265 C264 1.391 . S
H266 C274 0.950 . S
H267 C279 0.950 . S
H268 C276 0.950 . S
H269 C278 0.950 . S
H270 C280 0.950 . S
H271 C282 0.950 . S
H272 C284 0.950 . S
H273 C285 0.950 . S
C274 H266 0.950 . S
C274 C275 1.386 . S
C274 C276 1.391 . S
C275 C274 1.386 . S
C275 C279 1.393 . S
C276 H268 0.950 . S
C276 C274 1.391 . S
C276 C277 1.400 . S
C277 C276 1.400 . S
C277 C278 1.398 . S
C277 C283 1.491 . S
C278 H269 0.950 . S
C278 C277 1.398 . S
C278 C279 1.391 . S
C279 H267 0.950 . S
C279 C275 1.393 . S
C279 C278 1.391 . S
C280 H270 0.950 . S
C280 C281 1.386 . S
C280 C282 1.391 . S
C281 C280 1.386 . S
C281 C285 1.393 . S
C282 H271 0.950 . S
C282 C280 1.391 . S
C282 C283 1.400 . S
C283 C277 1.491 . S
C283 C282 1.400 . S
C283 C284 1.398 . S
C284 H272 0.950 . S
C284 C283 1.398 . S
C284 C285 1.391 . S
C285 H273 0.950 . S
C285 C281 1.393 . S
C285 C284 1.391 . S
H286 C294 0.950 . S
H287 C299 0.950 . S
H288 C296 0.950 . S
H289 C298 0.950 . S
H290 C300 0.950 . S
H291 C302 0.950 . S
H292 C304 0.950 . S
H293 C305 0.950 . S
C294 H286 0.950 . S
C294 C295 1.386 . S
C294 C296 1.391 . S
C295 C294 1.386 . S
C295 C299 1.393 . S
C296 H288 0.950 . S
C296 C294 1.391 . S
C296 C297 1.400 . S
C297 C296 1.400 . S
C297 C298 1.398 . S
C297 C303 1.491 . S
C298 H289 0.950 . S
C298 C297 1.398 . S
C298 C299 1.391 . S
C299 H287 0.950 . S
C299 C295 1.393 . S
C299 C298 1.391 . S
C300 H290 0.950 . S
C300 C301 1.386 . S
C300 C302 1.391 . S
C301 C300 1.386 . S
C301 C305 1.393 . S
C302 H291 0.950 . S
C302 C300 1.391 . S
C302 C303 1.400 . S
C303 C297 1.491 . S
C303 C302 1.400 . S
C303 C304 1.398 . S
C304 H292 0.950 . S
C304 C303 1.398 . S
C304 C305 1.391 . S
C305 H293 0.950 . S
C305 C301 1.393 . S
C305 C304 1.391 . S
H306 C314 0.950 . S
H307 C319 0.950 . S
H308 C316 0.950 . S
H309 C318 0.950 . S
H310 C320 0.950 . S
H311 C322 0.950 . S
H312 C324 0.950 . S
H313 C325 0.950 . S
C314 H306 0.950 . S
C314 C315 1.386 . S
C314 C316 1.391 . S
C315 C314 1.386 . S
C315 C319 1.393 . S
C316 H308 0.950 . S
C316 C314 1.391 . S
C316 C317 1.400 . S
C317 C316 1.400 . S
C317 C318 1.398 . S
C317 C323 1.491 . S
C318 H309 0.950 . S
C318 C317 1.398 . S
C318 C319 1.391 . S
C319 H307 0.950 . S
C319 C315 1.393 . S
C319 C318 1.391 . S
C320 H310 0.950 . S
C320 C321 1.386 . S
C320 C322 1.391 . S
C321 C320 1.386 . S
C321 C325 1.393 . S
C322 H311 0.950 . S
C322 C320 1.391 . S
C322 C323 1.400 . S
C323 C317 1.491 . S
C323 C322 1.400 . S
C323 C324 1.398 . S
C324 H312 0.950 . S
C324 C323 1.398 . S
C324 C325 1.391 . S
C325 H313 0.950 . S
C325 C321 1.393 . S
C325 C324 1.391 . S
H326 C334 0.950 . S
H327 C339 0.950 . S
H328 C336 0.950 . S
H329 C338 0.950 . S
H330 C340 0.950 . S
H331 C342 0.950 . S
H332 C344 0.950 . S
H333 C345 0.950 . S
C334 H326 0.950 . S
C334 C335 1.386 . S
C334 C336 1.391 . S
C335 C334 1.386 . S
C335 C339 1.393 . S
C336 H328 0.950 . S
C336 C334 1.391 . S
C336 C337 1.400 . S
C337 C336 1.400 . S
C337 C338 1.398 . S
C337 C343 1.491 . S
C338 H329 0.950 . S
C338 C337 1.398 . S
C338 C339 1.391 . S
C339 H327 0.950 . S
C339 C335 1.393 . S
C339 C338 1.391 . S
C340 H330 0.950 . S
C340 C341 1.386 . S
C340 C342 1.391 . S
C341 C340 1.386 . S
C341 C345 1.393 . S
C342 H331 0.950 . S
C342 C340 1.391 . S
C342 C343 1.400 . S
C343 C337 1.491 . S
C343 C342 1.400 . S
C343 C344 1.398 . S
C344 H332 0.950 . S
C344 C343 1.398 . S
C344 C345 1.391 . S
C345 H333 0.950 . S
C345 C341 1.393 . S
C345 C344 1.391 . S
H346 C354 0.950 . S
H347 C359 0.950 . S
H348 C356 0.950 . S
H349 C358 0.950 . S
H350 C360 0.950 . S
H351 C362 0.950 . S
H352 C364 0.950 . S
H353 C365 0.950 . S
C354 H346 0.950 . S
C354 C355 1.386 . S
C354 C356 1.391 . S
C355 C354 1.386 . S
C355 C359 1.393 . S
C356 H348 0.950 . S
C356 C354 1.391 . S
C356 C357 1.400 . S
C357 C356 1.400 . S
C357 C358 1.398 . S
C357 C363 1.491 . S
C358 H349 0.950 . S
C358 C357 1.398 . S
C358 C359 1.391 . S
C359 H347 0.950 . S
C359 C355 1.393 . S
C359 C358 1.391 . S
C360 H350 0.950 . S
C360 C361 1.386 . S
C360 C362 1.391 . S
C361 C360 1.386 . S
C361 C365 1.393 . S
C362 H351 0.950 . S
C362 C360 1.391 . S
C362 C363 1.400 . S
C363 C357 1.491 . S
C363 C362 1.400 . S
C363 C364 1.398 . S
C364 H352 0.950 . S
C364 C363 1.398 . S
C364 C365 1.391 . S
C365 H353 0.950 . S
C365 C361 1.393 . S
C365 C364 1.391 . S
H366 C374 0.950 . S
H367 C379 0.950 . S
H368 C376 0.950 . S
H369 C378 0.950 . S
H370 C380 0.950 . S
H371 C382 0.950 . S
H372 C384 0.950 . S
H373 C385 0.950 . S
C374 H366 0.950 . S
C374 C375 1.386 . S
C374 C376 1.391 . S
C375 C374 1.386 . S
C375 C379 1.393 . S
C376 H368 0.950 . S
C376 C374 1.391 . S
C376 C377 1.400 . S
C377 C376 1.400 . S
C377 C378 1.398 . S
C377 C383 1.491 . S
C378 H369 0.950 . S
C378 C377 1.398 . S
C378 C379 1.391 . S
C379 H367 0.950 . S
C379 C375 1.393 . S
C379 C378 1.391 . S
C380 H370 0.950 . S
C380 C381 1.386 . S
C380 C382 1.391 . S
C381 C380 1.386 . S
C381 C385 1.393 . S
C382 H371 0.950 . S
C382 C380 1.391 . S
C382 C383 1.400 . S
C383 C377 1.491 . S
C383 C382 1.400 . S
C383 C384 1.398 . S
C384 H372 0.950 . S
C384 C383 1.398 . S
C384 C385 1.391 . S
C385 H373 0.950 . S
C385 C381 1.393 . S
C385 C384 1.391 . S
H386 C394 0.950 . S
H387 C399 0.950 . S
H388 C396 0.950 . S
H389 C398 0.950 . S
H390 C400 0.950 . S
H391 C402 0.950 . S
H392 C404 0.950 . S
H393 C405 0.950 . S
C394 H386 0.950 . S
C394 C395 1.386 . S
C394 C396 1.391 . S
C395 C394 1.386 . S
C395 C399 1.393 . S
C396 H388 0.950 . S
C396 C394 1.391 . S
C396 C397 1.400 . S
C397 C396 1.400 . S
C397 C398 1.398 . S
C397 C403 1.491 . S
C398 H389 0.950 . S
C398 C397 1.398 . S
C398 C399 1.391 . S
C399 H387 0.950 . S
C399 C395 1.393 . S
C399 C398 1.391 . S
C400 H390 0.950 . S
C400 C401 1.386 . S
C400 C402 1.391 . S
C401 C400 1.386 . S
C401 C405 1.393 . S
C402 H391 0.950 . S
C402 C400 1.391 . S
C402 C403 1.400 . S
C403 C397 1.491 . S
C403 C402 1.400 . S
C403 C404 1.398 . S
C404 H392 0.950 . S
C404 C403 1.398 . S
C404 C405 1.391 . S
C405 H393 0.950 . S
C405 C401 1.393 . S
C405 C404 1.391 . S
H406 C414 0.950 . S
H407 C419 0.950 . S
H408 C416 0.950 . S
H409 C418 0.950 . S
H410 C420 0.950 . S
H411 C422 0.950 . S
H412 C424 0.950 . S
H413 C425 0.950 . S
C414 H406 0.950 . S
C414 C415 1.386 . S
C414 C416 1.391 . S
C415 C414 1.386 . S
C415 C419 1.393 . S
C416 H408 0.950 . S
C416 C414 1.391 . S
C416 C417 1.400 . S
C417 C416 1.400 . S
C417 C418 1.398 . S
C417 C423 1.491 . S
C418 H409 0.950 . S
C418 C417 1.398 . S
C418 C419 1.391 . S
C419 H407 0.950 . S
C419 C415 1.393 . S
C419 C418 1.391 . S
C420 H410 0.950 . S
C420 C421 1.386 . S
C420 C422 1.391 . S
C421 C420 1.386 . S
C421 C425 1.393 . S
C422 H411 0.950 . S
C422 C420 1.391 . S
C422 C423 1.400 . S
C423 C417 1.491 . S
C423 C422 1.400 . S
C423 C424 1.398 . S
C424 H412 0.950 . S
C424 C423 1.398 . S
C424 C425 1.391 . S
C425 H413 0.950 . S
C425 C421 1.393 . S
C425 C424 1.391 . S
H426 C434 0.950 . S
H427 C439 0.950 1_655 S
H428 C436 0.950 . S
H429 C438 0.950 1_655 S
H430 C440 0.950 1_655 S
H431 C442 0.950 1_655 S
H432 C444 0.932 1_554 S
H433 C445 0.950 . S
C434 H426 0.950 . S
C434 C435 1.386 . S
C434 C436 1.391 . S
C435 C434 1.386 . S
C435 C439 1.393 . S
C436 H428 0.950 . S
C436 C434 1.391 . S
C436 C437 1.400 . S
C437 C436 1.400 . S
C437 C438 1.398 . S
C437 C443 1.491 1_554 S
C438 H429 0.950 1_455 S
C438 C437 1.398 . S
C438 C439 1.391 . S
C439 H427 0.950 1_455 S
C439 C435 1.393 . S
C439 C438 1.391 . S
C440 H430 0.950 1_455 S
C440 C441 1.386 . S
C440 C442 1.391 . S
C441 C440 1.386 . S
C441 C445 1.393 . S
C442 H431 0.950 1_455 S
C442 C440 1.391 . S
C442 C443 1.400 . S
C443 C437 1.491 1_556 S
C443 C442 1.400 . S
C443 C444 1.398 . S
C444 H432 0.932 1_556 S
C444 C443 1.398 . S
C444 C445 1.391 . S
C445 H433 0.950 . S
C445 C441 1.393 . S
C445 C444 1.391 . S
H446 C454 0.950 . S
H447 C459 0.950 . S
H448 C456 0.950 . S
H449 C458 0.950 . S
H450 C460 0.950 . S
H451 C462 0.950 . S
H452 C464 0.950 . S
H453 C465 0.950 . S
C454 H446 0.950 . S
C454 C455 1.386 . S
C454 C456 1.391 . S
C455 C454 1.386 . S
C455 C459 1.393 . S
C456 H448 0.950 . S
C456 C454 1.391 . S
C456 C457 1.400 . S
C457 C456 1.400 . S
C457 C458 1.398 . S
C457 C463 1.491 . S
C458 H449 0.950 . S
C458 C457 1.398 . S
C458 C459 1.391 . S
C459 H447 0.950 . S
C459 C455 1.393 . S
C459 C458 1.391 . S
C460 H450 0.950 . S
C460 C461 1.386 . S
C460 C462 1.391 . S
C461 C460 1.386 . S
C461 C465 1.393 . S
C462 H451 0.950 . S
C462 C460 1.391 . S
C462 C463 1.400 . S
C463 C457 1.491 . S
C463 C462 1.400 . S
C463 C464 1.398 . S
C464 H452 0.950 . S
C464 C463 1.398 . S
C464 C465 1.391 . S
C465 H453 0.950 . S
C465 C461 1.393 . S
C465 C464 1.391 . S
H466 C474 0.950 . S
H467 C479 0.950 . S
H468 C476 0.950 . S
H469 C478 0.950 . S
H470 C480 0.950 . S
H471 C482 0.950 . S
H472 C484 0.950 . S
H473 C485 0.950 . S
C474 H466 0.950 . S
C474 C475 1.386 . S
C474 C476 1.391 . S
C475 C474 1.386 . S
C475 C479 1.393 . S
C476 H468 0.950 . S
C476 C474 1.391 . S
C476 C477 1.400 . S
C477 C476 1.400 . S
C477 C478 1.398 . S
C477 C483 1.491 . S
C478 H469 0.950 . S
C478 C477 1.398 . S
C478 C479 1.391 . S
C479 H467 0.950 . S
C479 C475 1.393 . S
C479 C478 1.391 . S
C480 H470 0.950 . S
C480 C481 1.386 . S
C480 C482 1.391 . S
C481 C480 1.386 . S
C481 C485 1.393 . S
C482 H471 0.950 . S
C482 C480 1.391 . S
C482 C483 1.400 . S
C483 C477 1.491 . S
C483 C482 1.400 . S
C483 C484 1.398 . S
C484 H472 0.950 . S
C484 C483 1.398 . S
C484 C485 1.391 . S
C485 H473 0.950 . S
C485 C481 1.393 . S
C485 C484 1.391 . S
H486 C494 0.950 . S
H487 C499 0.950 . S
H488 C496 0.950 . S
H489 C498 0.950 . S
H490 C500 0.950 . S
H491 C502 0.950 . S
H492 C504 0.950 . S
H493 C505 0.950 . S
C494 H486 0.950 . S
C494 C495 1.386 . S
C494 C496 1.391 . S
C495 C494 1.386 . S
C495 C499 1.393 . S
C496 H488 0.950 . S
C496 C494 1.391 . S
C496 C497 1.400 . S
C497 C496 1.400 . S
C497 C498 1.398 . S
C497 C503 1.491 . S
C498 H489 0.950 . S
C498 C497 1.398 . S
C498 C499 1.391 . S
C499 H487 0.950 . S
C499 C495 1.393 . S
C499 C498 1.391 . S
C500 H490 0.950 . S
C500 C501 1.386 . S
C500 C502 1.391 . S
C501 C500 1.386 . S
C501 C505 1.393 . S
C502 H491 0.950 . S
C502 C500 1.391 . S
C502 C503 1.400 . S
C503 C497 1.491 . S
C503 C502 1.400 . S
C503 C504 1.398 . S
C504 H492 0.950 . S
C504 C503 1.398 . S
C504 C505 1.391 . S
C505 H493 0.950 . S
C505 C501 1.393 . S
C505 C504 1.391 . S
H506 C514 0.950 . S
H507 C519 0.950 . S
H508 C516 0.950 . S
H509 C518 0.950 . S
H510 C520 0.950 . S
H511 C522 0.950 . S
H512 C524 0.950 . S
H513 C525 0.950 . S
C514 H506 0.950 . S
C514 C515 1.386 . S
C514 C516 1.391 . S
C515 C514 1.386 . S
C515 C519 1.393 . S
C516 H508 0.950 . S
C516 C514 1.391 . S
C516 C517 1.400 . S
C517 C516 1.400 . S
C517 C518 1.398 . S
C517 C523 1.491 . S
C518 H509 0.950 . S
C518 C517 1.398 . S
C518 C519 1.391 . S
C519 H507 0.950 . S
C519 C515 1.393 . S
C519 C518 1.391 . S
C520 H510 0.950 . S
C520 C521 1.386 . S
C520 C522 1.391 . S
C521 C520 1.386 . S
C521 C525 1.393 . S
C522 H511 0.950 . S
C522 C520 1.391 . S
C522 C523 1.400 1_554 S
C523 C517 1.491 . S
C523 C522 1.400 1_556 S
C523 C524 1.398 . S
C524 H512 0.950 . S
C524 C523 1.398 . S
C524 C525 1.391 1_556 S
C525 H513 0.950 . S
C525 C521 1.393 . S
C525 C524 1.391 1_554 S
H526 C534 0.950 1_655 S
H527 C539 0.950 . S
H528 C536 0.950 1_655 S
H529 C538 0.950 . S
H530 C540 0.950 . S
H531 C542 0.950 . S
H532 C544 0.950 . S
H533 C545 0.950 . S
C534 H526 0.950 1_455 S
C534 C535 1.386 . S
C534 C536 1.391 . S
C535 C534 1.386 . S
C535 C539 1.393 . S
C536 H528 0.950 1_455 S
C536 C534 1.391 . S
C536 C537 1.400 . S
C537 C536 1.400 . S
C537 C538 1.398 . S
C537 C543 1.491 . S
C538 H529 0.950 . S
C538 C537 1.398 . S
C538 C539 1.391 . S
C539 H527 0.950 . S
C539 C535 1.393 . S
C539 C538 1.391 . S
C540 H530 0.950 . S
C540 C541 1.386 . S
C540 C542 1.391 . S
C541 C540 1.386 . S
C541 C545 1.393 1_455 S
C542 H531 0.950 . S
C542 C540 1.391 . S
C542 C543 1.400 . S
C543 C537 1.491 . S
C543 C542 1.400 . S
C543 C544 1.398 1_455 S
C544 H532 0.950 . S
C544 C543 1.398 1_655 S
C544 C545 1.391 . S
C545 H533 0.950 . S
C545 C541 1.393 1_655 S
C545 C544 1.391 . S
C195 C25 0.478 . S
C201 C185 0.508 . S
C215 C65 0.304 . S
C221 C163 0.268 . S
C235 C105 0.413 . S
C241 C174 0.252 . S
C255 C4 0.441 . S
C261 C179 0.271 . S
C281 C157 0.159 . S
C275 C44 0.288 . S
C301 C168 0.216 . S
C295 C84 0.301 . S
C315 C60 3.026 . S
C321 C141 2.963 . S
C335 C100 3.018 . S
C341 C146 2.971 1_655 S
C355 C31 2.991 . S
C361 C124 2.941 1_565 S
C381 C135 2.950 . S
C375 C71 2.987 . S
C401 C152 2.938 . S
C395 C111 2.991 . S
C415 C20 3.029 . S
C421 C130 2.972 . S
C441 C147 1.743 . S
C435 C2 1.721 . S
C455 C42 1.742 . S
C461 C125 1.762 . S
C475 C82 1.731 . S
C481 C136 1.756 . S
C501 C169 1.189 . S
C495 C63 1.160 . S
C521 C180 1.251 . S
C515 C103 1.242 . S
C535 C23 1.131 . S
C541 C158 1.167 . S
