# Generated by pormake.
# Topology anh, (6,3)-cn, num edge types: 1
# Building blocks:
#     Node 0, Type 0, BuildingBlock: MIFKUJ_clean_sbu_0, # of connection points: 6
#     Node 1, Type 0, BuildingBlock: MIFKUJ_clean_sbu_0, # of connection points: 6
#     Node 2, Type 0, BuildingBlock: MIFKUJ_clean_sbu_0, # of connection points: 6
#     Node 3, Type 1, BuildingBlock: CUQRIR_clean_linker_1, # of connection points: 3
#     Node 4, Type 1, BuildingBlock: CUQRIR_clean_linker_1, # of connection points: 3
#     Node 5, Type 1, BuildingBlock: CUQRIR_clean_linker_1, # of connection points: 3
#     Node 6, Type 1, BuildingBlock: CUQRIR_clean_linker_1, # of connection points: 3
#     Node 7, Type 1, BuildingBlock: CUQRIR_clean_linker_1, # of connection points: 3
#     Node 8, Type 1, BuildingBlock: CUQRIR_clean_linker_1, # of connection points: 3
#     Edge 9, Type (0, 1), BuildingBlock: FUNLAD_clean_linker_0, # of connection points: 2
#     Edge 10, Type (0, 1), BuildingBlock: FUNLAD_clean_linker_0, # of connection points: 2
#     Edge 11, Type (0, 1), BuildingBlock: FUNLAD_clean_linker_0, # of connection points: 2
#     Edge 12, Type (0, 1), BuildingBlock: FUNLAD_clean_linker_0, # of connection points: 2
#     Edge 13, Type (0, 1), BuildingBlock: FUNLAD_clean_linker_0, # of connection points: 2
#     Edge 14, Type (0, 1), BuildingBlock: FUNLAD_clean_linker_0, # of connection points: 2
#     Edge 15, Type (0, 1), BuildingBlock: FUNLAD_clean_linker_0, # of connection points: 2
#     Edge 16, Type (0, 1), BuildingBlock: FUNLAD_clean_linker_0, # of connection points: 2
#     Edge 17, Type (0, 1), BuildingBlock: FUNLAD_clean_linker_0, # of connection points: 2
#     Edge 18, Type (0, 1), BuildingBlock: FUNLAD_clean_linker_0, # of connection points: 2
#     Edge 19, Type (0, 1), BuildingBlock: FUNLAD_clean_linker_0, # of connection points: 2
#     Edge 20, Type (0, 1), BuildingBlock: FUNLAD_clean_linker_0, # of connection points: 2
#     Edge 21, Type (0, 1), BuildingBlock: FUNLAD_clean_linker_0, # of connection points: 2
#     Edge 22, Type (0, 1), BuildingBlock: FUNLAD_clean_linker_0, # of connection points: 2
#     Edge 23, Type (0, 1), BuildingBlock: FUNLAD_clean_linker_0, # of connection points: 2
#     Edge 24, Type (0, 1), BuildingBlock: FUNLAD_clean_linker_0, # of connection points: 2
#     Edge 25, Type (0, 1), BuildingBlock: FUNLAD_clean_linker_0, # of connection points: 2
#     Edge 26, Type (0, 1), BuildingBlock: FUNLAD_clean_linker_0, # of connection points: 2
# Relax obj value: 0.118
# Max RMSD: 0.214
# Mean RMSD: 0.152
data_MOF--net-anh--node1-MIFKUJ_clean_sbu_0--node2-CUQRIR_clean_linker_1--edge1-FUNLAD_clean_linker_0
_symmetry_space_group_name_H-M    P1
_symmetry_Int_Tables_number       1
_symmetry_cell_setting            triclinic
loop_
_symmetry_equiv_pos_as_xyz
'x, y, z'
_cell_length_a     34.108381
_cell_length_b     34.277117
_cell_length_c     52.047109
_cell_angle_alpha  89.507302
_cell_angle_beta   90.961093
_cell_angle_gamma 120.20243
loop_
_atom_site_label
_atom_site_type_symbol
_atom_site_fract_x
_atom_site_fract_y
_atom_site_fract_z
_atom_type_partial_charge
Zn0 Zn 0.02249 0.51848 0.16105 0.0
Zn1 Zn 0.88474 0.41492 0.15931 0.0
C2 C 0.10382 0.52563 0.17842 0.0
O3 O 0.09908 0.55203 0.19469 0.0
C4 C 0.80983 0.42037 0.13874 0.0
O5 O 0.80646 0.3873 0.12452 0.0
O6 O 0.04635 0.58321 0.15056 0.0
O7 O 0.96923 0.47227 0.14217 0.0
O8 O 0.9104 0.4189 0.12339 0.0
C9 C 0.07961 0.6012 0.13527 0.0
O10 O 0.09408 0.57589 0.12504 0.0
O11 O 0.07369 0.50565 0.16103 0.0
C12 C 0.82376 0.34153 0.18977 0.0
O13 O 0.82494 0.37509 0.20247 0.0
O14 O 0.84832 0.35025 0.17008 0.0
O15 O 0.93062 0.45222 0.18836 0.0
O16 O 0.00029 0.50852 0.19698 0.0
O17 O 0.8414 0.43812 0.15556 0.0
C18 C 0.95071 0.45124 0.12168 0.0
C19 C 0.96161 0.47745 0.20454 0.0
Zn20 Zn 0.6071 0.04878 0.49295 0.0
Zn21 Zn 0.58286 0.9272 0.50161 0.0
C22 C 0.70615 0.09972 0.49484 0.0
O23 O 0.70028 0.08481 0.5186 0.0
C24 C 0.50097 0.84601 0.48769 0.0
O25 O 0.53039 0.84012 0.4748 0.0
O26 O 0.58347 0.0915 0.49197 0.0
O27 O 0.56682 0.99646 0.47029 0.0
O28 O 0.60021 0.95633 0.46635 0.0
C29 C 0.59088 0.11814 0.47319 0.0
O30 O 0.61173 0.11527 0.45292 0.0
O31 O 0.67171 0.08612 0.47998 0.0
C32 C 0.61149 0.87458 0.5296 0.0
O33 O 0.59118 0.88363 0.54788 0.0
O34 O 0.61314 0.89041 0.50721 0.0
O35 O 0.59695 0.96519 0.53377 0.0
O36 O 0.60703 0.03419 0.53001 0.0
O37 O 0.51522 0.88205 0.50072 0.0
C38 C 0.58473 0.97982 0.45624 0.0
C39 C 0.60434 0.0021 0.54362 0.0
Zn40 Zn 0.63131 0.59543 0.8237 0.0
Zn41 Zn 0.54455 0.64906 0.83816 0.0
C42 C 0.57726 0.49748 0.82542 0.0
O43 O 0.5561 0.50445 0.84412 0.0
C44 C 0.60721 0.74388 0.82764 0.0
O45 O 0.62462 0.72813 0.81118 0.0
O46 O 0.69826 0.63314 0.81539 0.0
O47 O 0.59092 0.61732 0.81167 0.0
O48 O 0.54246 0.63633 0.79952 0.0
C49 C 0.71602 0.61744 0.80033 0.0
O50 O 0.68952 0.57963 0.78799 0.0
O51 O 0.60835 0.53107 0.81354 0.0
C52 C 0.475 0.6425 0.87057 0.0
O53 O 0.51109 0.67244 0.88338 0.0
O54 O 0.4804 0.62513 0.85039 0.0
O55 O 0.57821 0.62435 0.86091 0.0
O56 O 0.62466 0.59646 0.86163 0.0
O57 O 0.57485 0.71644 0.84175 0.0
C58 C 0.56902 0.62232 0.79344 0.0
C59 C 0.60013 0.6088 0.87337 0.0
C60 C 0.44459 0.96694 0.19281 0.0
N61 N 0.47198 0.98352 0.2138 0.0
N62 N 0.40508 0.92957 0.19901 0.0
C63 C 0.45489 0.98901 0.16678 0.0
C64 C 0.40948 0.92393 0.22448 0.0
N65 N 0.45005 0.95694 0.2335 0.0
C66 C 0.37561 0.88438 0.24003 0.0
H67 H 0.47599 0.02625 0.16859 0.0
H68 H 0.42322 0.98036 0.15598 0.0
H69 H 0.47414 0.97685 0.15569 0.0
H70 H 0.35641 0.85402 0.22776 0.0
H71 H 0.35117 0.89285 0.24849 0.0
H72 H 0.39267 0.87654 0.2559 0.0
C73 C 0.63914 0.50704 0.53938 0.0
N74 N 0.64042 0.53734 0.55638 0.0
N75 N 0.6355 0.47056 0.55182 0.0
C76 C 0.64461 0.51436 0.51082 0.0
C77 C 0.63473 0.47976 0.577 0.0
N78 N 0.63809 0.52052 0.57977 0.0
C79 C 0.62635 0.44718 0.59866 0.0
H80 H 0.61069 0.50129 0.50165 0.0
H81 H 0.6606 0.49605 0.50259 0.0
H82 H 0.66558 0.55082 0.50626 0.0
H83 H 0.65944 0.45284 0.60618 0.0
H84 H 0.60604 0.41173 0.59195 0.0
H85 H 0.60831 0.45242 0.61462 0.0
C86 C 0.08849 0.63353 0.87419 0.0
N87 N 0.10502 0.61885 0.89355 0.0
N88 N 0.05471 0.63978 0.88273 0.0
C89 C 0.10735 0.64493 0.84753 0.0
C90 C 0.05116 0.62825 0.90788 0.0
N91 N 0.08197 0.61605 0.91448 0.0
C92 C 0.01545 0.62575 0.92555 0.0
H93 H 0.10059 0.67044 0.83848 0.0
H94 H 0.09077 0.61391 0.8356 0.0
H95 H 0.14444 0.65796 0.84791 0.0
H96 H 0.98417 0.61822 0.91467 0.0
H97 H 0.02878 0.6588 0.93529 0.0
H98 H 0.00675 0.5995 0.94051 0.0
C99 C 0.07947 0.48947 0.46383 0.0
N100 N 0.04227 0.46866 0.44822 0.0
N101 N 0.1094 0.53104 0.45463 0.0
C102 C 0.08548 0.4705 0.48875 0.0
C103 C 0.0892 0.5346 0.43282 0.0
N104 N 0.04829 0.49704 0.42911 0.0
C105 C 0.11139 0.57284 0.41385 0.0
H106 H 0.10802 0.49797 0.50218 0.0
H107 H 0.10125 0.4497 0.48484 0.0
H108 H 0.05225 0.44868 0.49791 0.0
H109 H 0.09982 0.56087 0.39392 0.0
H110 H 0.14888 0.58899 0.41485 0.0
H111 H 0.10199 0.59861 0.41842 0.0
C112 C 0.60908 0.12964 0.80428 0.0
N113 N 0.61066 0.09832 0.78931 0.0
N114 N 0.61189 0.16382 0.78967 0.0
C115 C 0.60752 0.12834 0.83313 0.0
C116 C 0.61512 0.15219 0.76536 0.0
N117 N 0.61475 0.11263 0.76519 0.0
C118 C 0.61557 0.17791 0.74167 0.0
H119 H 0.57158 0.10912 0.83912 0.0
H120 H 0.6231 0.16291 0.8412 0.0
H121 H 0.62532 0.11121 0.84109 0.0
H122 H 0.65131 0.20175 0.7365 0.0
H123 H 0.59838 0.19755 0.74509 0.0
H124 H 0.59876 0.15479 0.72519 0.0
C125 C 0.47409 0.50169 0.13611 0.0
N126 N 0.50616 0.51349 0.11798 0.0
N127 N 0.44838 0.5207 0.13098 0.0
C128 C 0.46889 0.47317 0.15932 0.0
C129 C 0.46574 0.54431 0.10906 0.0
N130 N 0.50128 0.5404 0.10132 0.0
C131 C 0.4447 0.56675 0.09368 0.0
H132 H 0.44655 0.43709 0.15424 0.0
H133 H 0.45315 0.48144 0.17529 0.0
H134 H 0.50226 0.47813 0.1658 0.0
H135 H 0.4616 0.6029 0.09914 0.0
H136 H 0.40793 0.55107 0.09751 0.0
H137 H 0.44917 0.56465 0.07278 0.0
C138 C 0.15158 0.49557 0.16128 0.0
C139 C 0.14489 0.52154 0.17952 0.0
C140 C 0.19184 0.49424 0.16134 0.0
C141 C 0.22615 0.51865 0.17981 0.0
C142 C 0.21898 0.54385 0.19831 0.0
C143 C 0.17873 0.54515 0.19826 0.0
C144 C 0.27133 0.5223 0.17878 0.0
C145 C 0.27876 0.492 0.16682 0.0
C146 C 0.32479 0.49979 0.16146 0.0
C147 C 0.32948 0.46281 0.15459 0.0
C148 C 0.37091 0.46947 0.14585 0.0
C149 C 0.40821 0.51323 0.14372 0.0
H150 H 0.3608 0.57319 0.16464 0.0
C151 C 0.40431 0.55008 0.15155 0.0
C152 C 0.36298 0.54357 0.16026 0.0
H153 H 0.43284 0.58407 0.14982 0.0
H154 H 0.12624 0.47719 0.1465 0.0
H155 H 0.19647 0.47552 0.14623 0.0
H156 H 0.24497 0.5633 0.21259 0.0
H157 H 0.17463 0.56548 0.2126 0.0
H158 H 0.29946 0.5516 0.1879 0.0
H159 H 0.25011 0.46057 0.15995 0.0
H160 H 0.3006 0.42882 0.15509 0.0
H161 H 0.37328 0.44072 0.13953 0.0
C162 C 0.75559 0.16242 0.46461 0.0
C163 C 0.75119 0.13713 0.48691 0.0
C164 C 0.79688 0.20129 0.459 0.0
C165 C 0.83474 0.21567 0.47558 0.0
C166 C 0.83093 0.189 0.49707 0.0
C167 C 0.7896 0.1504 0.5028 0.0
C168 C 0.87842 0.25838 0.47131 0.0
C169 C 0.88084 0.2948 0.45959 0.0
C170 C 0.92352 0.33921 0.45711 0.0
C171 C 0.92021 0.37808 0.4532 0.0
C172 C 0.95915 0.42047 0.45065 0.0
C173 C 0.00234 0.42496 0.4517 0.0
H174 H 0.97111 0.31462 0.46022 0.0
C175 C 0.00595 0.38627 0.45535 0.0
C176 C 0.96696 0.34374 0.45802 0.0
H177 H 0.03894 0.3889 0.45565 0.0
H178 H 0.72676 0.15304 0.45187 0.0
H179 H 0.79888 0.22007 0.44178 0.0
H180 H 0.85965 0.19888 0.50999 0.0
H181 H 0.78751 0.13157 0.52004 0.0
H182 H 0.90873 0.26094 0.48008 0.0
H183 H 0.84969 0.2932 0.45299 0.0
H184 H 0.88733 0.37573 0.45229 0.0
H185 H 0.95562 0.44991 0.44793 0.0
C186 C 0.59788 0.80773 0.84292 0.0
C187 C 0.62018 0.79207 0.82717 0.0
C188 C 0.60564 0.85161 0.84019 0.0
C189 C 0.63581 0.88075 0.82158 0.0
C190 C 0.66015 0.86605 0.80696 0.0
C191 C 0.65226 0.82205 0.80961 0.0
C192 C 0.64183 0.92612 0.81645 0.0
C193 C 0.60801 0.93527 0.81927 0.0
C194 C 0.61098 0.97882 0.81207 0.0
C195 C 0.57651 0.98683 0.82019 0.0
C196 C 0.57655 0.02622 0.81297 0.0
C197 C 0.61104 0.05832 0.79745 0.0
H198 H 0.67229 0.00651 0.78916 0.0
C199 C 0.64557 0.05068 0.78936 0.0
C200 C 0.64559 0.01132 0.79647 0.0
H201 H 0.67254 0.07527 0.77743 0.0
H202 H 0.5734 0.78571 0.8569 0.0
H203 H 0.58762 0.86236 0.85253 0.0
H204 H 0.68406 0.88807 0.79274 0.0
H205 H 0.67026 0.81117 0.79732 0.0
H206 H 0.67414 0.95132 0.80872 0.0
H207 H 0.57567 0.90909 0.82659 0.0
H208 H 0.54918 0.96233 0.83198 0.0
H209 H 0.54928 0.03131 0.8191 0.0
C210 C 0.74268 0.41724 0.11645 0.0
C211 C 0.7773 0.43662 0.13524 0.0
C212 C 0.71168 0.43228 0.11325 0.0
C213 C 0.71445 0.46686 0.12894 0.0
C214 C 0.7496 0.48678 0.14734 0.0
C215 C 0.78059 0.47173 0.15056 0.0
C216 C 0.68181 0.48343 0.12649 0.0
C217 C 0.63926 0.45805 0.1171 0.0
C218 C 0.60564 0.47349 0.11638 0.0
C219 C 0.55927 0.44098 0.11701 0.0
C220 C 0.5266 0.4541 0.11729 0.0
C221 C 0.53971 0.49995 0.11673 0.0
H222 H 0.65388 0.5455 0.11352 0.0
C223 C 0.58582 0.53253 0.11514 0.0
C224 C 0.61861 0.5195 0.11494 0.0
H225 H 0.59637 0.56806 0.11445 0.0
H226 H 0.73952 0.39047 0.10414 0.0
H227 H 0.68608 0.41706 0.09825 0.0
H228 H 0.75279 0.51373 0.15953 0.0
H229 H 0.80702 0.48757 0.16512 0.0
H230 H 0.69235 0.51654 0.1344 0.0
H231 H 0.62722 0.42336 0.11149 0.0
H232 H 0.5483 0.40533 0.11773 0.0
H233 H 0.49105 0.42851 0.11795 0.0
C234 C 0.43744 0.77055 0.47333 0.0
C235 C 0.45225 0.81057 0.48736 0.0
C236 C 0.39169 0.73683 0.47292 0.0
C237 C 0.35949 0.74211 0.48671 0.0
C238 C 0.37426 0.78231 0.50055 0.0
C239 C 0.42011 0.81607 0.50099 0.0
C240 C 0.31009 0.70777 0.48584 0.0
C241 C 0.2937 0.66381 0.48011 0.0
C242 C 0.24451 0.62963 0.47664 0.0
C243 C 0.23179 0.58383 0.47433 0.0
C244 C 0.18696 0.55105 0.4683 0.0
C245 C 0.15385 0.56336 0.46441 0.0
H246 H 0.21854 0.67617 0.47475 0.0
C247 C 0.16588 0.60864 0.46769 0.0
C248 C 0.21068 0.64152 0.47362 0.0
H249 H 0.14073 0.61875 0.46478 0.0
H250 H 0.46117 0.76527 0.46245 0.0
H251 H 0.38176 0.70725 0.46126 0.0
H252 H 0.35023 0.78763 0.5111 0.0
H253 H 0.4303 0.8465 0.51194 0.0
H254 H 0.28688 0.7195 0.49048 0.0
H255 H 0.31743 0.65184 0.47765 0.0
H256 H 0.25692 0.5735 0.47643 0.0
H257 H 0.17852 0.51639 0.46556 0.0
C258 C 0.5965 0.44576 0.80247 0.0
C259 C 0.5701 0.45185 0.82069 0.0
C260 C 0.59434 0.40424 0.80015 0.0
C261 C 0.56577 0.36783 0.81605 0.0
C262 C 0.53729 0.37297 0.83312 0.0
C263 C 0.53963 0.41473 0.83558 0.0
C264 C 0.56546 0.32444 0.81508 0.0
C265 C 0.60362 0.3231 0.81078 0.0
C266 C 0.60566 0.28112 0.80763 0.0
C267 C 0.64409 0.28462 0.7959 0.0
C268 C 0.64673 0.24616 0.79083 0.0
C269 C 0.61119 0.20343 0.79762 0.0
H270 H 0.54112 0.234 0.82515 0.0
C271 C 0.57361 0.19968 0.81041 0.0
C272 C 0.57075 0.23822 0.81542 0.0
H273 H 0.54591 0.16679 0.81574 0.0
H274 H 0.61985 0.47343 0.79042 0.0
H275 H 0.61536 0.40086 0.78601 0.0
H276 H 0.51441 0.34513 0.84524 0.0
H277 H 0.51856 0.41823 0.84965 0.0
H278 H 0.53347 0.29371 0.81834 0.0
H279 H 0.63528 0.35475 0.80839 0.0
H280 H 0.6717 0.31717 0.78992 0.0
H281 H 0.67608 0.24952 0.78108 0.0
C282 C 0.6411 0.82541 0.5142 0.0
C283 C 0.62859 0.84327 0.5346 0.0
C284 C 0.65271 0.79225 0.5188 0.0
C285 C 0.65205 0.77642 0.54391 0.0
C286 C 0.64224 0.79623 0.56442 0.0
C287 C 0.63027 0.8291 0.55982 0.0
C288 C 0.65936 0.73799 0.54921 0.0
C289 C 0.64509 0.70323 0.53274 0.0
C290 C 0.64545 0.66119 0.53908 0.0
C291 C 0.61275 0.62084 0.52736 0.0
C292 C 0.61102 0.58025 0.53318 0.0
C293 C 0.64246 0.57936 0.5505 0.0
H294 H 0.70365 0.69099 0.56523 0.0
C295 C 0.67567 0.61964 0.56199 0.0
C296 C 0.67724 0.66035 0.55635 0.0
H297 H 0.70057 0.61956 0.57514 0.0
H298 H 0.64062 0.83602 0.49459 0.0
H299 H 0.66158 0.77867 0.50265 0.0
H300 H 0.64202 0.78495 0.58396 0.0
H301 H 0.62135 0.84265 0.57598 0.0
H302 H 0.67183 0.7359 0.56821 0.0
H303 H 0.62835 0.70359 0.51486 0.0
H304 H 0.58792 0.62058 0.51399 0.0
H305 H 0.58482 0.54936 0.52439 0.0
C306 C 0.79419 0.66988 0.81802 0.0
C307 C 0.76575 0.63592 0.80055 0.0
C308 C 0.83941 0.68096 0.82161 0.0
C309 C 0.85699 0.65801 0.80786 0.0
C310 C 0.82958 0.62695 0.78887 0.0
C311 C 0.78447 0.61591 0.78529 0.0
C312 C 0.90196 0.6625 0.8139 0.0
C313 C 0.92325 0.67655 0.83688 0.0
C314 C 0.96219 0.67125 0.84542 0.0
C315 C 0.98908 0.69724 0.86626 0.0
C316 C 0.02131 0.68854 0.87759 0.0
C317 C 0.02698 0.65332 0.8685 0.0
H318 H 0.94888 0.61564 0.81996 0.0
C319 C 0.00179 0.62858 0.84696 0.0
C320 C 0.96957 0.63733 0.83551 0.0
H321 H 0.00531 0.60089 0.83992 0.0
H322 H 0.78103 0.68648 0.8298 0.0
H323 H 0.85983 0.70659 0.83563 0.0
H324 H 0.84229 0.60924 0.77769 0.0
H325 H 0.76372 0.59003 0.77139 0.0
H326 H 0.91561 0.64957 0.79977 0.0
H327 H 0.91017 0.68996 0.85103 0.0
H328 H 0.98406 0.72338 0.87437 0.0
H329 H 0.0407 0.70814 0.89411 0.0
C330 C 0.14324 0.67019 0.11555 0.0
C331 C 0.10679 0.65076 0.13264 0.0
C332 C 0.1751 0.7162 0.11689 0.0
C333 C 0.17131 0.74349 0.13558 0.0
C334 C 0.13233 0.725 0.15074 0.0
C335 C 0.10034 0.67897 0.14934 0.0
C336 C 0.20934 0.78929 0.14195 0.0
C337 C 0.25302 0.80006 0.1399 0.0
C338 C 0.29178 0.83902 0.15305 0.0
C339 C 0.33602 0.85076 0.14606 0.0
C340 C 0.37345 0.88186 0.16059 0.0
C341 C 0.36725 0.90161 0.18244 0.0
H342 H 0.25267 0.85195 0.18097 0.0
C343 C 0.32344 0.89159 0.18888 0.0
C344 C 0.28595 0.8605 0.17441 0.0
H345 H 0.31823 0.90684 0.20565 0.0
H346 H 0.14848 0.64949 0.102 0.0
H347 H 0.20361 0.72976 0.10403 0.0
H348 H 0.12823 0.74545 0.16501 0.0
H349 H 0.07227 0.6651 0.16254 0.0
H350 H 0.20097 0.81192 0.15173 0.0
H351 H 0.26092 0.777 0.13019 0.0
H352 H 0.34157 0.83452 0.12988 0.0
H353 H 0.40709 0.88908 0.15546 0.0
C354 C 0.56781 0.16324 0.49975 0.0
C355 C 0.58335 0.15667 0.47625 0.0
C356 C 0.568 0.20325 0.50452 0.0
C357 C 0.58355 0.23743 0.48584 0.0
C358 C 0.59552 0.22951 0.4616 0.0
C359 C 0.59577 0.18952 0.45688 0.0
C360 C 0.58999 0.28232 0.49203 0.0
C361 C 0.60816 0.30195 0.5148 0.0
C362 C 0.6168 0.34714 0.52231 0.0
C363 C 0.65091 0.37165 0.54071 0.0
C364 C 0.65801 0.41291 0.54976 0.0
C365 C 0.6306 0.42999 0.5409 0.0
H366 H 0.5627 0.34629 0.49921 0.0
C367 C 0.59686 0.40595 0.52224 0.0
C368 C 0.59002 0.36484 0.51293 0.0
H369 H 0.57489 0.41831 0.51552 0.0
H370 H 0.55737 0.13836 0.51497 0.0
H371 H 0.55722 0.20798 0.52312 0.0
H372 H 0.60702 0.25525 0.44683 0.0
H373 H 0.60748 0.18522 0.43847 0.0
H374 H 0.58329 0.30065 0.47712 0.0
H375 H 0.61908 0.28481 0.52833 0.0
H376 H 0.67189 0.35864 0.54828 0.0
H377 H 0.68442 0.43123 0.56401 0.0
C378 C 0.39106 0.60722 0.86226 0.0
C379 C 0.4294 0.63365 0.87789 0.0
C380 C 0.34915 0.60327 0.8678 0.0
C381 C 0.34468 0.62554 0.88924 0.0
C382 C 0.38274 0.65066 0.90524 0.0
C383 C 0.42449 0.65457 0.89972 0.0
C384 C 0.30249 0.62672 0.89457 0.0
C385 C 0.26098 0.59701 0.88505 0.0
C386 C 0.21996 0.60123 0.88881 0.0
C387 C 0.18278 0.57833 0.87184 0.0
C388 C 0.14467 0.58334 0.87369 0.0
C389 C 0.1429 0.61129 0.89259 0.0
H390 H 0.24396 0.64479 0.9226 0.0
C391 C 0.17913 0.63294 0.91015 0.0
C392 C 0.21713 0.62778 0.90845 0.0
H393 H 0.17846 0.65471 0.92487 0.0
H394 H 0.39374 0.59084 0.84522 0.0
H395 H 0.32112 0.58435 0.8546 0.0
H396 H 0.38046 0.66825 0.92184 0.0
H397 H 0.45324 0.67511 0.91223 0.0
H398 H 0.3067 0.65441 0.90647 0.0
H399 H 0.25681 0.56936 0.8731 0.0
H400 H 0.18357 0.55719 0.85674 0.0
H401 H 0.11668 0.56571 0.86023 0.0
C402 C 0.76192 0.28494 0.2176 0.0
C403 C 0.79068 0.29435 0.1966 0.0
C404 C 0.72716 0.24089 0.22237 0.0
C405 C 0.7203 0.20538 0.20607 0.0
C406 C 0.75082 0.21437 0.18608 0.0
C407 C 0.78557 0.25844 0.1813 0.0
C408 C 0.68075 0.15911 0.20861 0.0
C409 C 0.64063 0.1511 0.21775 0.0
C410 C 0.59862 0.10616 0.21743 0.0
C411 C 0.56279 0.09927 0.23332 0.0
C412 C 0.52142 0.05881 0.23233 0.0
C413 C 0.51506 0.02458 0.21534 0.0
H414 H 0.61818 0.07565 0.18735 0.0
C415 C 0.55068 0.03099 0.19956 0.0
C416 C 0.59213 0.07146 0.20049 0.0
H417 H 0.54616 0.00474 0.18637 0.0
H418 H 0.76548 0.31175 0.23004 0.0
H419 H 0.70552 0.23499 0.23864 0.0
H420 H 0.74665 0.18752 0.17346 0.0
H421 H 0.80748 0.26451 0.16511 0.0
H422 H 0.68416 0.1316 0.20102 0.0
H423 H 0.63755 0.17897 0.2251 0.0
H424 H 0.56663 0.12551 0.24634 0.0
H425 H 0.49402 0.05447 0.24446 0.0
C426 C 0.00482 0.50993 0.09189 0.0
C427 C 0.97423 0.46437 0.09688 0.0
C428 C 0.02508 0.52374 0.06792 0.0
C429 C 0.01495 0.49197 0.04822 0.0
C430 C 0.98416 0.44619 0.05328 0.0
C431 C 0.96392 0.43249 0.07737 0.0
C432 C 0.03178 0.50589 0.02158 0.0
C433 C 0.06803 0.54622 0.0157 0.0
C434 C 0.07784 0.56404 0.98905 0.0
C435 C 0.09568 0.61055 0.98532 0.0
C436 C 0.09927 0.62803 0.96061 0.0
C437 C 0.08617 0.5995 0.9392 0.0
H438 H 0.05454 0.50005 0.9696 0.0
C439 C 0.07151 0.55362 0.94262 0.0
C440 C 0.06719 0.53585 0.96742 0.0
H441 H 0.06123 0.53129 0.92618 0.0
H442 H 0.01107 0.53521 0.10612 0.0
H443 H 0.04676 0.55954 0.06473 0.0
H444 H 0.97507 0.42105 0.03839 0.0
H445 H 0.93983 0.3971 0.08063 0.0
H446 H 0.01154 0.48302 0.0062 0.0
H447 H 0.08848 0.56926 0.03093 0.0
H448 H 0.10444 0.63304 0.00162 0.0
H449 H 0.11052 0.66352 0.95814 0.0
C450 C 0.56533 0.00931 0.41701 0.0
C451 C 0.57965 0.9809 0.428 0.0
C452 C 0.55658 0.00807 0.39068 0.0
C453 C 0.56127 0.9778 0.37471 0.0
C454 C 0.57781 0.95103 0.38545 0.0
C455 C 0.58687 0.95248 0.41187 0.0
C456 C 0.54848 0.97298 0.34699 0.0
C457 C 0.51602 0.98098 0.33772 0.0
C458 C 0.50014 0.97435 0.3105 0.0
C459 C 0.45811 0.97099 0.30488 0.0
C460 C 0.44168 0.9651 0.27965 0.0
C461 C 0.46701 0.96261 0.2595 0.0
H462 H 0.55891 0.9761 0.29346 0.0
C463 C 0.50924 0.96645 0.26486 0.0
C464 C 0.52584 0.97241 0.29014 0.0
H465 H 0.52927 0.96476 0.24945 0.0
H466 H 0.56018 0.03217 0.42881 0.0
H467 H 0.54592 0.03075 0.38301 0.0
H468 H 0.58238 0.92792 0.37352 0.0
H469 H 0.59821 0.93039 0.41972 0.0
H470 H 0.56383 0.95938 0.33449 0.0
H471 H 0.49804 0.99052 0.35098 0.0
H472 H 0.43779 0.97283 0.32009 0.0
H473 H 0.40935 0.96293 0.27576 0.0
C474 C 0.60472 0.59827 0.76032 0.0
C475 C 0.57282 0.61089 0.76662 0.0
C476 C 0.60948 0.58862 0.73495 0.0
C477 C 0.58245 0.59165 0.7152 0.0
C478 C 0.54985 0.60337 0.72155 0.0
C479 C 0.54527 0.61323 0.74698 0.0
C480 C 0.58617 0.58095 0.68805 0.0
C481 C 0.625 0.58658 0.67822 0.0
C482 C 0.62881 0.57243 0.65189 0.0
C483 C 0.66447 0.56431 0.64704 0.0
C484 C 0.66807 0.54833 0.62315 0.0
C485 C 0.63637 0.54061 0.60354 0.0
H486 H 0.57086 0.57348 0.6344 0.0
C487 C 0.60174 0.55036 0.60783 0.0
C488 C 0.59796 0.56626 0.6318 0.0
H489 H 0.57704 0.54459 0.59282 0.0
H490 H 0.62615 0.59597 0.77502 0.0
H491 H 0.63382 0.57806 0.73106 0.0
H492 H 0.52818 0.60537 0.70677 0.0
H493 H 0.52021 0.62272 0.75123 0.0
H494 H 0.55578 0.56787 0.67612 0.0
H495 H 0.65526 0.60036 0.69034 0.0
H496 H 0.68899 0.56919 0.66202 0.0
H497 H 0.69519 0.54125 0.62 0.0
C498 C 0.594 0.0344 0.58387 0.0
C499 C 0.60868 0.00766 0.57177 0.0
C500 C 0.5982 0.04028 0.61045 0.0
C501 C 0.61797 0.02021 0.62541 0.0
C502 C 0.63331 0.99402 0.61334 0.0
C503 C 0.62798 0.9871 0.58673 0.0
C504 C 0.62515 0.02898 0.65335 0.0
C505 C 0.59318 0.02921 0.668 0.0
C506 C 0.60171 0.04607 0.69476 0.0
C507 C 0.5654 0.02895 0.71191 0.0
C508 C 0.57065 0.04913 0.73589 0.0
C509 C 0.61193 0.0873 0.74275 0.0
H510 H 0.67217 0.09767 0.68932 0.0
C511 C 0.64872 0.10365 0.72611 0.0
C512 C 0.64384 0.08298 0.70233 0.0
H513 H 0.68058 0.13346 0.73118 0.0
H514 H 0.57901 0.05063 0.57279 0.0
H515 H 0.58703 0.06152 0.61921 0.0
H516 H 0.64915 0.97873 0.62451 0.0
H517 H 0.63993 0.96665 0.57779 0.0
H518 H 0.65739 0.03602 0.66183 0.0
H519 H 0.55964 0.01793 0.65978 0.0
H520 H 0.53253 0.00088 0.70638 0.0
H521 H 0.5419 0.03661 0.74855 0.0
C522 C 0.57067 0.61721 0.9157 0.0
C523 C 0.5963 0.60332 0.90163 0.0
C524 C 0.56548 0.60965 0.94221 0.0
C525 C 0.58595 0.58806 0.95516 0.0
C526 C 0.6118 0.57457 0.94112 0.0
C527 C 0.61718 0.58233 0.91473 0.0
C528 C 0.57834 0.57596 0.9828 0.0
C529 C 0.56794 0.59842 -8e-05 0.0
C530 C 0.55595 0.58349 0.02697 0.0
C531 C 0.5598 0.61503 0.04534 0.0
C532 C 0.54413 0.60124 0.07027 0.0
C533 C 0.52392 0.55561 0.07716 0.0
H534 H 0.53226 0.51224 0.02059 0.0
C535 C 0.52137 0.5242 0.0592 0.0
C536 C 0.53713 0.5379 0.03429 0.0
H537 H 0.50499 0.48871 0.06409 0.0
H538 H 0.55395 0.63318 0.90619 0.0
H539 H 0.5442 0.6194 0.95224 0.0
H540 H 0.62759 0.55754 0.95056 0.0
H541 H 0.63708 0.571 0.90454 0.0
H542 H 0.58228 0.54788 0.98922 0.0
H543 H 0.56838 0.62913 0.99407 0.0
H544 H 0.57391 0.65025 0.04022 0.0
H545 H 0.54618 0.62583 0.08396 0.0
C546 C 0.97974 0.50706 0.24927 0.0
C547 C 0.95363 0.47099 0.23247 0.0
C548 C 0.97703 0.50047 0.27579 0.0
C549 C 0.94811 0.45749 0.28623 0.0
C550 C 0.92112 0.42159 0.26946 0.0
C551 C 0.92349 0.42835 0.24279 0.0
C552 C 0.94987 0.44865 0.31413 0.0
C553 C 0.96175 0.48107 0.33201 0.0
C554 C 0.97589 0.47844 0.35888 0.0
C555 C 0.98213 0.51242 0.37619 0.0
C556 C 0.00359 0.51688 0.39994 0.0
C557 C 0.01926 0.48747 0.40687 0.0
H558 H 0.98598 0.42104 0.35382 0.0
C559 C 0.01069 0.45176 0.39046 0.0
C560 C 0.98928 0.44725 0.36659 0.0
H561 H 0.02299 0.42904 0.39548 0.0
H562 H 0.00343 0.54028 0.2419 0.0
H563 H 0.9995 0.52873 0.28791 0.0
H564 H 0.89905 0.38802 0.27697 0.0
H565 H 0.90353 0.39978 0.23028 0.0
H566 H 0.9432 0.41531 0.3197 0.0
H567 H 0.96397 0.51269 0.32631 0.0
H568 H 0.97234 0.53698 0.37082 0.0
H569 H 0.00988 0.54453 0.4125 0.0
loop_
_geom_bond_atom_site_label_1
_geom_bond_atom_site_label_2
_geom_bond_distance
_geom_bond_site_symmetry_2
_ccdc_geom_bond_type
Zn0 O6 1.969 . S
Zn0 O7 1.965 . S
Zn0 O11 2.024 . S
Zn0 O16 1.969 . S
Zn1 O8 1.969 . S
Zn1 O14 1.969 . S
Zn1 O15 1.965 . S
Zn1 O17 2.024 . S
C2 O3 1.229 . S
C2 O11 1.058 . S
O3 C2 1.229 . S
C4 O5 1.229 . S
C4 O17 1.058 . S
O5 C4 1.229 . S
O6 Zn0 1.969 . S
O6 C9 1.267 . S
O7 Zn0 1.965 . S
O7 C18 1.260 1_455 S
O8 Zn1 1.969 . S
O8 C18 1.258 . S
C9 O6 1.267 . S
C9 O10 1.228 . S
O10 C9 1.228 . S
O11 Zn0 2.024 . S
O11 C2 1.058 . S
C12 O13 1.228 . S
C12 O14 1.267 . S
O13 C12 1.228 . S
O14 Zn1 1.969 . S
O14 C12 1.267 . S
O15 Zn1 1.965 . S
O15 C19 1.260 1_655 S
O16 Zn0 1.969 . S
O16 C19 1.258 . S
O17 Zn1 2.024 . S
O17 C4 1.058 . S
C18 O7 1.260 1_655 S
C18 O8 1.258 . S
C19 O15 1.260 1_455 S
C19 O16 1.258 . S
Zn20 O26 1.969 . S
Zn20 O27 1.965 . S
Zn20 O31 2.024 . S
Zn20 O36 1.969 . S
Zn21 O28 1.969 . S
Zn21 O34 1.969 . S
Zn21 O35 1.965 1_565 S
Zn21 O37 2.024 . S
C22 O23 1.229 . S
C22 O31 1.058 . S
O23 C22 1.229 . S
C24 O25 1.229 . S
C24 O37 1.058 . S
O25 C24 1.229 . S
O26 Zn20 1.969 . S
O26 C29 1.267 . S
O27 Zn20 1.965 . S
O27 C38 1.260 . S
O28 Zn21 1.969 . S
O28 C38 1.258 1_565 S
C29 O26 1.267 . S
C29 O30 1.228 . S
O30 C29 1.228 . S
O31 Zn20 2.024 . S
O31 C22 1.058 . S
C32 O33 1.228 . S
C32 O34 1.267 . S
O33 C32 1.228 . S
O34 Zn21 1.969 . S
O34 C32 1.267 . S
O35 Zn21 1.965 1_545 S
O35 C39 1.260 . S
O36 Zn20 1.969 . S
O36 C39 1.258 . S
O37 Zn21 2.024 . S
O37 C24 1.058 . S
C38 O27 1.260 . S
C38 O28 1.258 1_545 S
C39 O35 1.260 . S
C39 O36 1.258 . S
Zn40 O46 1.969 . S
Zn40 O47 1.965 . S
Zn40 O51 2.024 . S
Zn40 O56 1.969 . S
Zn41 O48 1.969 . S
Zn41 O54 1.969 . S
Zn41 O55 1.965 . S
Zn41 O57 2.024 . S
C42 O43 1.229 . S
C42 O51 1.058 . S
O43 C42 1.229 . S
C44 O45 1.229 . S
C44 O57 1.058 . S
O45 C44 1.229 . S
O46 Zn40 1.969 . S
O46 C49 1.267 . S
O47 Zn40 1.965 . S
O47 C58 1.260 . S
O48 Zn41 1.969 . S
O48 C58 1.258 . S
C49 O46 1.267 . S
C49 O50 1.228 . S
O50 C49 1.228 . S
O51 Zn40 2.024 . S
O51 C42 1.058 . S
C52 O53 1.228 . S
C52 O54 1.267 . S
O53 C52 1.228 . S
O54 Zn41 1.969 . S
O54 C52 1.267 . S
O55 Zn41 1.965 . S
O55 C59 1.260 . S
O56 Zn40 1.969 . S
O56 C59 1.258 . S
O57 Zn41 2.024 . S
O57 C44 1.058 . S
C58 O47 1.260 . S
C58 O48 1.258 . S
C59 O55 1.260 . S
C59 O56 1.258 . S
C60 N61 1.317 . S
C60 N62 1.348 1_545 S
C60 C63 1.485 . S
N61 C60 1.317 . S
N61 N65 1.370 . S
N62 C60 1.348 1_565 S
N62 C64 1.346 . S
C63 C60 1.485 . S
C63 H67 0.960 . S
C63 H68 0.961 1_545 S
C63 H69 0.960 . S
C64 N62 1.346 . S
C64 N65 1.307 1_565 S
C64 C66 1.486 . S
N65 N61 1.370 . S
N65 C64 1.307 1_545 S
C66 C64 1.486 . S
C66 H70 0.960 . S
C66 H71 0.960 . S
C66 H72 0.959 . S
H67 C63 0.960 . S
H68 C63 0.961 1_565 S
H69 C63 0.960 . S
H70 C66 0.960 . S
H71 C66 0.960 . S
H72 C66 0.959 . S
C73 N74 1.317 . S
C73 N75 1.348 . S
C73 C76 1.485 . S
N74 C73 1.317 . S
N74 N78 1.370 . S
N75 C73 1.348 . S
N75 C77 1.346 . S
C76 C73 1.485 . S
C76 H80 0.960 . S
C76 H81 0.961 . S
C76 H82 0.960 . S
C77 N75 1.346 . S
C77 N78 1.307 . S
C77 C79 1.486 . S
N78 N74 1.370 . S
N78 C77 1.307 . S
C79 C77 1.486 . S
C79 H83 0.960 . S
C79 H84 0.960 . S
C79 H85 0.959 . S
H80 C76 0.960 . S
H81 C76 0.961 . S
H82 C76 0.960 . S
H83 C79 0.960 . S
H84 C79 0.960 . S
H85 C79 0.959 . S
C86 N87 1.317 . S
C86 N88 1.348 . S
C86 C89 1.485 . S
N87 C86 1.317 . S
N87 N91 1.370 . S
N88 C86 1.348 . S
N88 C90 1.346 . S
C89 C86 1.485 . S
C89 H93 0.960 . S
C89 H94 0.961 . S
C89 H95 0.960 . S
C90 N88 1.346 . S
C90 N91 1.307 . S
C90 C92 1.486 1_455 S
N91 N87 1.370 . S
N91 C90 1.307 . S
C92 C90 1.486 1_655 S
C92 H96 0.960 . S
C92 H97 0.960 . S
C92 H98 0.959 . S
H93 C89 0.960 . S
H94 C89 0.961 . S
H95 C89 0.960 . S
H96 C92 0.960 . S
H97 C92 0.960 . S
H98 C92 0.959 . S
C99 N100 1.317 . S
C99 N101 1.348 . S
C99 C102 1.485 . S
N100 C99 1.317 . S
N100 N104 1.370 . S
N101 C99 1.348 . S
N101 C103 1.346 . S
C102 C99 1.485 . S
C102 H106 0.960 . S
C102 H107 0.961 . S
C102 H108 0.960 . S
C103 N101 1.346 . S
C103 N104 1.307 . S
C103 C105 1.486 . S
N104 N100 1.370 . S
N104 C103 1.307 . S
C105 C103 1.486 . S
C105 H109 0.960 . S
C105 H110 0.960 . S
C105 H111 0.959 . S
H106 C102 0.960 . S
H107 C102 0.961 . S
H108 C102 0.960 . S
H109 C105 0.960 . S
H110 C105 0.960 . S
H111 C105 0.959 . S
C112 N113 1.317 . S
C112 N114 1.348 . S
C112 C115 1.485 . S
N113 C112 1.317 . S
N113 N117 1.370 . S
N114 C112 1.348 . S
N114 C116 1.346 . S
C115 C112 1.485 . S
C115 H119 0.960 . S
C115 H120 0.961 . S
C115 H121 0.960 . S
C116 N114 1.346 . S
C116 N117 1.307 . S
C116 C118 1.486 . S
N117 N113 1.370 . S
N117 C116 1.307 . S
C118 C116 1.486 . S
C118 H122 0.960 . S
C118 H123 0.960 . S
C118 H124 0.959 . S
H119 C115 0.960 . S
H120 C115 0.961 . S
H121 C115 0.960 . S
H122 C118 0.960 . S
H123 C118 0.960 . S
H124 C118 0.959 . S
C125 N126 1.317 . S
C125 N127 1.348 . S
C125 C128 1.485 . S
N126 C125 1.317 . S
N126 N130 1.370 . S
N127 C125 1.348 . S
N127 C129 1.346 . S
C128 C125 1.485 . S
C128 H132 0.960 . S
C128 H133 0.961 . S
C128 H134 0.960 . S
C129 N127 1.346 . S
C129 N130 1.307 . S
C129 C131 1.486 . S
N130 N126 1.370 . S
N130 C129 1.307 . S
C131 C129 1.486 . S
C131 H135 0.960 . S
C131 H136 0.960 . S
C131 H137 0.959 . S
H132 C128 0.960 . S
H133 C128 0.961 . S
H134 C128 0.960 . S
H135 C131 0.960 . S
H136 C131 0.960 . S
H137 C131 0.959 . S
C138 C139 1.386 . S
C138 C140 1.383 . S
C138 H154 0.951 . S
C139 C138 1.386 . S
C139 C143 1.383 . S
C140 C138 1.383 . S
C140 C141 1.402 . S
C140 H155 0.951 . S
C141 C140 1.402 . S
C141 C142 1.375 . S
C141 C144 1.481 . S
C142 C141 1.375 . S
C142 C143 1.367 . S
C142 H156 0.951 . S
C143 C139 1.383 . S
C143 C142 1.367 . S
C143 H157 0.950 . S
C144 C141 1.481 . S
C144 C145 1.297 . S
C144 H158 0.950 . S
C145 C144 1.297 . S
C145 C146 1.479 . S
C145 H159 0.950 . S
C146 C145 1.479 . S
C146 C147 1.375 . S
C146 C152 1.404 . S
C147 C146 1.375 . S
C147 C148 1.369 . S
C147 H160 0.950 . S
C148 C147 1.369 . S
C148 C149 1.392 . S
C148 H161 0.951 . S
C149 C148 1.392 . S
C149 C151 1.384 . S
H150 C152 0.949 . S
C151 C149 1.384 . S
C151 C152 1.385 . S
C151 H153 0.950 . S
C152 C146 1.404 . S
C152 H150 0.949 . S
C152 C151 1.385 . S
H153 C151 0.950 . S
H154 C138 0.951 . S
H155 C140 0.951 . S
H156 C142 0.951 . S
H157 C143 0.950 . S
H158 C144 0.950 . S
H159 C145 0.950 . S
H160 C147 0.950 . S
H161 C148 0.951 . S
C162 C163 1.386 . S
C162 C164 1.383 . S
C162 H178 0.951 . S
C163 C162 1.386 . S
C163 C167 1.383 . S
C164 C162 1.383 . S
C164 C165 1.402 . S
C164 H179 0.951 . S
C165 C164 1.402 . S
C165 C166 1.375 . S
C165 C168 1.481 . S
C166 C165 1.375 . S
C166 C167 1.367 . S
C166 H180 0.951 . S
C167 C163 1.383 . S
C167 C166 1.367 . S
C167 H181 0.950 . S
C168 C165 1.481 . S
C168 C169 1.297 . S
C168 H182 0.950 . S
C169 C168 1.297 . S
C169 C170 1.479 . S
C169 H183 0.950 . S
C170 C169 1.479 . S
C170 C171 1.375 . S
C170 C176 1.404 . S
C171 C170 1.375 . S
C171 C172 1.369 . S
C171 H184 0.950 . S
C172 C171 1.369 . S
C172 C173 1.392 1_655 S
C172 H185 0.951 . S
C173 C172 1.392 1_455 S
C173 C175 1.384 . S
H174 C176 0.949 . S
C175 C173 1.384 . S
C175 C176 1.385 1_455 S
C175 H177 0.950 . S
C176 C170 1.404 . S
C176 H174 0.949 . S
C176 C175 1.385 1_655 S
H177 C175 0.950 . S
H178 C162 0.951 . S
H179 C164 0.951 . S
H180 C166 0.951 . S
H181 C167 0.950 . S
H182 C168 0.950 . S
H183 C169 0.950 . S
H184 C171 0.950 . S
H185 C172 0.951 . S
C186 C187 1.386 . S
C186 C188 1.383 . S
C186 H202 0.951 . S
C187 C186 1.386 . S
C187 C191 1.383 . S
C188 C186 1.383 . S
C188 C189 1.402 . S
C188 H203 0.951 . S
C189 C188 1.402 . S
C189 C190 1.375 . S
C189 C192 1.481 . S
C190 C189 1.375 . S
C190 C191 1.367 . S
C190 H204 0.951 . S
C191 C187 1.383 . S
C191 C190 1.367 . S
C191 H205 0.950 . S
C192 C189 1.481 . S
C192 C193 1.297 . S
C192 H206 0.950 . S
C193 C192 1.297 . S
C193 C194 1.479 . S
C193 H207 0.950 . S
C194 C193 1.479 . S
C194 C195 1.375 . S
C194 C200 1.404 . S
C195 C194 1.375 . S
C195 C196 1.369 . S
C195 H208 0.950 . S
C196 C195 1.369 . S
C196 C197 1.392 1_565 S
C196 H209 0.951 . S
C197 C196 1.392 1_545 S
C197 C199 1.384 . S
H198 C200 0.949 . S
C199 C197 1.384 . S
C199 C200 1.385 1_545 S
C199 H201 0.950 . S
C200 C194 1.404 . S
C200 H198 0.949 . S
C200 C199 1.385 1_565 S
H201 C199 0.950 . S
H202 C186 0.951 . S
H203 C188 0.951 . S
H204 C190 0.951 . S
H205 C191 0.950 . S
H206 C192 0.950 . S
H207 C193 0.950 . S
H208 C195 0.950 . S
H209 C196 0.951 . S
C210 C211 1.386 . S
C210 C212 1.383 . S
C210 H226 0.951 . S
C211 C210 1.386 . S
C211 C215 1.383 . S
C212 C210 1.383 . S
C212 C213 1.402 . S
C212 H227 0.951 . S
C213 C212 1.402 . S
C213 C214 1.375 . S
C213 C216 1.481 . S
C214 C213 1.375 . S
C214 C215 1.367 . S
C214 H228 0.951 . S
C215 C211 1.383 . S
C215 C214 1.367 . S
C215 H229 0.950 . S
C216 C213 1.481 . S
C216 C217 1.297 . S
C216 H230 0.950 . S
C217 C216 1.297 . S
C217 C218 1.479 . S
C217 H231 0.950 . S
C218 C217 1.479 . S
C218 C219 1.375 . S
C218 C224 1.404 . S
C219 C218 1.375 . S
C219 C220 1.369 . S
C219 H232 0.950 . S
C220 C219 1.369 . S
C220 C221 1.392 . S
C220 H233 0.951 . S
C221 C220 1.392 . S
C221 C223 1.384 . S
H222 C224 0.949 . S
C223 C221 1.384 . S
C223 C224 1.385 . S
C223 H225 0.950 . S
C224 C218 1.404 . S
C224 H222 0.949 . S
C224 C223 1.385 . S
H225 C223 0.950 . S
H226 C210 0.951 . S
H227 C212 0.951 . S
H228 C214 0.951 . S
H229 C215 0.950 . S
H230 C216 0.950 . S
H231 C217 0.950 . S
H232 C219 0.950 . S
H233 C220 0.951 . S
C234 C235 1.386 . S
C234 C236 1.383 . S
C234 H250 0.951 . S
C235 C234 1.386 . S
C235 C239 1.383 . S
C236 C234 1.383 . S
C236 C237 1.402 . S
C236 H251 0.951 . S
C237 C236 1.402 . S
C237 C238 1.375 . S
C237 C240 1.481 . S
C238 C237 1.375 . S
C238 C239 1.367 . S
C238 H252 0.951 . S
C239 C235 1.383 . S
C239 C238 1.367 . S
C239 H253 0.950 . S
C240 C237 1.481 . S
C240 C241 1.297 . S
C240 H254 0.950 . S
C241 C240 1.297 . S
C241 C242 1.479 . S
C241 H255 0.950 . S
C242 C241 1.479 . S
C242 C243 1.375 . S
C242 C248 1.404 . S
C243 C242 1.375 . S
C243 C244 1.369 . S
C243 H256 0.950 . S
C244 C243 1.369 . S
C244 C245 1.392 . S
C244 H257 0.951 . S
C245 C244 1.392 . S
C245 C247 1.384 . S
H246 C248 0.949 . S
C247 C245 1.384 . S
C247 C248 1.385 . S
C247 H249 0.950 . S
C248 C242 1.404 . S
C248 H246 0.949 . S
C248 C247 1.385 . S
H249 C247 0.950 . S
H250 C234 0.951 . S
H251 C236 0.951 . S
H252 C238 0.951 . S
H253 C239 0.950 . S
H254 C240 0.950 . S
H255 C241 0.950 . S
H256 C243 0.950 . S
H257 C244 0.951 . S
C258 C259 1.386 . S
C258 C260 1.383 . S
C258 H274 0.951 . S
C259 C258 1.386 . S
C259 C263 1.383 . S
C260 C258 1.383 . S
C260 C261 1.402 . S
C260 H275 0.951 . S
C261 C260 1.402 . S
C261 C262 1.375 . S
C261 C264 1.481 . S
C262 C261 1.375 . S
C262 C263 1.367 . S
C262 H276 0.951 . S
C263 C259 1.383 . S
C263 C262 1.367 . S
C263 H277 0.950 . S
C264 C261 1.481 . S
C264 C265 1.297 . S
C264 H278 0.950 . S
C265 C264 1.297 . S
C265 C266 1.479 . S
C265 H279 0.950 . S
C266 C265 1.479 . S
C266 C267 1.375 . S
C266 C272 1.404 . S
C267 C266 1.375 . S
C267 C268 1.369 . S
C267 H280 0.950 . S
C268 C267 1.369 . S
C268 C269 1.392 . S
C268 H281 0.951 . S
C269 C268 1.392 . S
C269 C271 1.384 . S
H270 C272 0.949 . S
C271 C269 1.384 . S
C271 C272 1.385 . S
C271 H273 0.950 . S
C272 C266 1.404 . S
C272 H270 0.949 . S
C272 C271 1.385 . S
H273 C271 0.950 . S
H274 C258 0.951 . S
H275 C260 0.951 . S
H276 C262 0.951 . S
H277 C263 0.950 . S
H278 C264 0.950 . S
H279 C265 0.950 . S
H280 C267 0.950 . S
H281 C268 0.951 . S
C282 C283 1.386 . S
C282 C284 1.383 . S
C282 H298 0.951 . S
C283 C282 1.386 . S
C283 C287 1.383 . S
C284 C282 1.383 . S
C284 C285 1.402 . S
C284 H299 0.951 . S
C285 C284 1.402 . S
C285 C286 1.375 . S
C285 C288 1.481 . S
C286 C285 1.375 . S
C286 C287 1.367 . S
C286 H300 0.951 . S
C287 C283 1.383 . S
C287 C286 1.367 . S
C287 H301 0.950 . S
C288 C285 1.481 . S
C288 C289 1.297 . S
C288 H302 0.950 . S
C289 C288 1.297 . S
C289 C290 1.479 . S
C289 H303 0.950 . S
C290 C289 1.479 . S
C290 C291 1.375 . S
C290 C296 1.404 . S
C291 C290 1.375 . S
C291 C292 1.369 . S
C291 H304 0.950 . S
C292 C291 1.369 . S
C292 C293 1.392 . S
C292 H305 0.951 . S
C293 C292 1.392 . S
C293 C295 1.384 . S
H294 C296 0.949 . S
C295 C293 1.384 . S
C295 C296 1.385 . S
C295 H297 0.950 . S
C296 C290 1.404 . S
C296 H294 0.949 . S
C296 C295 1.385 . S
H297 C295 0.950 . S
H298 C282 0.951 . S
H299 C284 0.951 . S
H300 C286 0.951 . S
H301 C287 0.950 . S
H302 C288 0.950 . S
H303 C289 0.950 . S
H304 C291 0.950 . S
H305 C292 0.951 . S
C306 C307 1.386 . S
C306 C308 1.383 . S
C306 H322 0.951 . S
C307 C306 1.386 . S
C307 C311 1.383 . S
C308 C306 1.383 . S
C308 C309 1.402 . S
C308 H323 0.951 . S
C309 C308 1.402 . S
C309 C310 1.375 . S
C309 C312 1.481 . S
C310 C309 1.375 . S
C310 C311 1.367 . S
C310 H324 0.951 . S
C311 C307 1.383 . S
C311 C310 1.367 . S
C311 H325 0.950 . S
C312 C309 1.481 . S
C312 C313 1.297 . S
C312 H326 0.950 . S
C313 C312 1.297 . S
C313 C314 1.479 . S
C313 H327 0.950 . S
C314 C313 1.479 . S
C314 C315 1.375 . S
C314 C320 1.404 . S
C315 C314 1.375 . S
C315 C316 1.369 . S
C315 H328 0.950 . S
C316 C315 1.369 . S
C316 C317 1.392 . S
C316 H329 0.951 1_655 S
C317 C316 1.392 . S
C317 C319 1.384 . S
H318 C320 0.949 . S
C319 C317 1.384 . S
C319 C320 1.385 . S
C319 H321 0.950 . S
C320 C314 1.404 . S
C320 H318 0.949 . S
C320 C319 1.385 . S
H321 C319 0.950 . S
H322 C306 0.951 . S
H323 C308 0.951 . S
H324 C310 0.951 . S
H325 C311 0.950 . S
H326 C312 0.950 . S
H327 C313 0.950 . S
H328 C315 0.950 . S
H329 C316 0.951 1_455 S
C330 C331 1.386 . S
C330 C332 1.383 . S
C330 H346 0.951 . S
C331 C330 1.386 . S
C331 C335 1.383 . S
C332 C330 1.383 . S
C332 C333 1.402 . S
C332 H347 0.951 . S
C333 C332 1.402 . S
C333 C334 1.375 . S
C333 C336 1.481 . S
C334 C333 1.375 . S
C334 C335 1.367 . S
C334 H348 0.951 . S
C335 C331 1.383 . S
C335 C334 1.367 . S
C335 H349 0.950 . S
C336 C333 1.481 . S
C336 C337 1.297 . S
C336 H350 0.950 . S
C337 C336 1.297 . S
C337 C338 1.479 . S
C337 H351 0.950 . S
C338 C337 1.479 . S
C338 C339 1.375 . S
C338 C344 1.404 . S
C339 C338 1.375 . S
C339 C340 1.369 . S
C339 H352 0.950 . S
C340 C339 1.369 . S
C340 C341 1.392 . S
C340 H353 0.951 . S
C341 C340 1.392 . S
C341 C343 1.384 . S
H342 C344 0.949 . S
C343 C341 1.384 . S
C343 C344 1.385 . S
C343 H345 0.950 . S
C344 C338 1.404 . S
C344 H342 0.949 . S
C344 C343 1.385 . S
H345 C343 0.950 . S
H346 C330 0.951 . S
H347 C332 0.951 . S
H348 C334 0.951 . S
H349 C335 0.950 . S
H350 C336 0.950 . S
H351 C337 0.950 . S
H352 C339 0.950 . S
H353 C340 0.951 . S
C354 C355 1.386 . S
C354 C356 1.383 . S
C354 H370 0.951 . S
C355 C354 1.386 . S
C355 C359 1.383 . S
C356 C354 1.383 . S
C356 C357 1.402 . S
C356 H371 0.951 . S
C357 C356 1.402 . S
C357 C358 1.375 . S
C357 C360 1.481 . S
C358 C357 1.375 . S
C358 C359 1.367 . S
C358 H372 0.951 . S
C359 C355 1.383 . S
C359 C358 1.367 . S
C359 H373 0.950 . S
C360 C357 1.481 . S
C360 C361 1.297 . S
C360 H374 0.950 . S
C361 C360 1.297 . S
C361 C362 1.479 . S
C361 H375 0.950 . S
C362 C361 1.479 . S
C362 C363 1.375 . S
C362 C368 1.404 . S
C363 C362 1.375 . S
C363 C364 1.369 . S
C363 H376 0.950 . S
C364 C363 1.369 . S
C364 C365 1.392 . S
C364 H377 0.951 . S
C365 C364 1.392 . S
C365 C367 1.384 . S
H366 C368 0.949 . S
C367 C365 1.384 . S
C367 C368 1.385 . S
C367 H369 0.950 . S
C368 C362 1.404 . S
C368 H366 0.949 . S
C368 C367 1.385 . S
H369 C367 0.950 . S
H370 C354 0.951 . S
H371 C356 0.951 . S
H372 C358 0.951 . S
H373 C359 0.950 . S
H374 C360 0.950 . S
H375 C361 0.950 . S
H376 C363 0.950 . S
H377 C364 0.951 . S
C378 C379 1.386 . S
C378 C380 1.383 . S
C378 H394 0.951 . S
C379 C378 1.386 . S
C379 C383 1.383 . S
C380 C378 1.383 . S
C380 C381 1.402 . S
C380 H395 0.951 . S
C381 C380 1.402 . S
C381 C382 1.375 . S
C381 C384 1.481 . S
C382 C381 1.375 . S
C382 C383 1.367 . S
C382 H396 0.951 . S
C383 C379 1.383 . S
C383 C382 1.367 . S
C383 H397 0.950 . S
C384 C381 1.481 . S
C384 C385 1.297 . S
C384 H398 0.950 . S
C385 C384 1.297 . S
C385 C386 1.479 . S
C385 H399 0.950 . S
C386 C385 1.479 . S
C386 C387 1.375 . S
C386 C392 1.404 . S
C387 C386 1.375 . S
C387 C388 1.369 . S
C387 H400 0.950 . S
C388 C387 1.369 . S
C388 C389 1.392 . S
C388 H401 0.951 . S
C389 C388 1.392 . S
C389 C391 1.384 . S
H390 C392 0.949 . S
C391 C389 1.384 . S
C391 C392 1.385 . S
C391 H393 0.950 . S
C392 C386 1.404 . S
C392 H390 0.949 . S
C392 C391 1.385 . S
H393 C391 0.950 . S
H394 C378 0.951 . S
H395 C380 0.951 . S
H396 C382 0.951 . S
H397 C383 0.950 . S
H398 C384 0.950 . S
H399 C385 0.950 . S
H400 C387 0.950 . S
H401 C388 0.951 . S
C402 C403 1.386 . S
C402 C404 1.383 . S
C402 H418 0.951 . S
C403 C402 1.386 . S
C403 C407 1.383 . S
C404 C402 1.383 . S
C404 C405 1.402 . S
C404 H419 0.951 . S
C405 C404 1.402 . S
C405 C406 1.375 . S
C405 C408 1.481 . S
C406 C405 1.375 . S
C406 C407 1.367 . S
C406 H420 0.951 . S
C407 C403 1.383 . S
C407 C406 1.367 . S
C407 H421 0.950 . S
C408 C405 1.481 . S
C408 C409 1.297 . S
C408 H422 0.950 . S
C409 C408 1.297 . S
C409 C410 1.479 . S
C409 H423 0.950 . S
C410 C409 1.479 . S
C410 C411 1.375 . S
C410 C416 1.404 . S
C411 C410 1.375 . S
C411 C412 1.369 . S
C411 H424 0.950 . S
C412 C411 1.369 . S
C412 C413 1.392 . S
C412 H425 0.951 . S
C413 C412 1.392 . S
C413 C415 1.384 . S
H414 C416 0.949 . S
C415 C413 1.384 . S
C415 C416 1.385 . S
C415 H417 0.950 . S
C416 C410 1.404 . S
C416 H414 0.949 . S
C416 C415 1.385 . S
H417 C415 0.950 . S
H418 C402 0.951 . S
H419 C404 0.951 . S
H420 C406 0.951 . S
H421 C407 0.950 . S
H422 C408 0.950 . S
H423 C409 0.950 . S
H424 C411 0.950 . S
H425 C412 0.951 . S
C426 C427 1.402 . S
C426 C428 1.389 . S
C426 H442 0.929 1_455 S
C427 C426 1.402 . S
C427 C431 1.383 . S
C428 C426 1.389 . S
C428 C429 1.402 . S
C428 H443 0.951 . S
C429 C428 1.402 . S
C429 C430 1.375 . S
C429 C432 1.481 . S
C430 C429 1.375 . S
C430 C431 1.367 . S
C430 H444 0.951 . S
C431 C427 1.383 . S
C431 C430 1.367 . S
C431 H445 0.950 . S
C432 C429 1.481 . S
C432 C433 1.297 . S
C432 H446 0.950 . S
C433 C432 1.297 . S
C433 C434 1.479 1_554 S
C433 H447 0.950 . S
C434 C433 1.479 1_556 S
C434 C435 1.375 . S
C434 C440 1.404 . S
C435 C434 1.375 . S
C435 C436 1.369 . S
C435 H448 0.950 . S
C436 C435 1.369 . S
C436 C437 1.392 . S
C436 H449 0.951 . S
C437 C436 1.392 . S
C437 C439 1.384 . S
H438 C440 0.949 . S
C439 C437 1.384 . S
C439 C440 1.385 . S
C439 H441 0.950 . S
C440 C434 1.404 . S
C440 H438 0.949 . S
C440 C439 1.385 . S
H441 C439 0.950 . S
H442 C426 0.929 1_655 S
H443 C428 0.951 . S
H444 C430 0.951 . S
H445 C431 0.950 . S
H446 C432 0.950 . S
H447 C433 0.950 . S
H448 C435 0.950 . S
H449 C436 0.951 . S
C450 C451 1.386 . S
C450 C452 1.383 . S
C450 H466 0.951 1_545 S
C451 C450 1.386 . S
C451 C455 1.383 . S
C452 C450 1.383 . S
C452 C453 1.402 . S
C452 H467 0.951 1_545 S
C453 C452 1.402 . S
C453 C454 1.375 . S
C453 C456 1.481 . S
C454 C453 1.375 . S
C454 C455 1.367 . S
C454 H468 0.951 . S
C455 C451 1.383 . S
C455 C454 1.367 . S
C455 H469 0.950 . S
C456 C453 1.481 . S
C456 C457 1.297 . S
C456 H470 0.950 . S
C457 C456 1.297 . S
C457 C458 1.479 . S
C457 H471 0.950 . S
C458 C457 1.479 . S
C458 C459 1.375 . S
C458 C464 1.404 . S
C459 C458 1.375 . S
C459 C460 1.368 . S
C459 H472 0.950 1_545 S
C460 C459 1.368 . S
C460 C461 1.392 . S
C460 H473 0.951 1_545 S
C461 C460 1.392 . S
C461 C463 1.384 . S
H462 C464 0.949 . S
C463 C461 1.384 . S
C463 C464 1.385 . S
C463 H465 0.950 . S
C464 C458 1.404 . S
C464 H462 0.949 . S
C464 C463 1.385 . S
H465 C463 0.950 . S
H466 C450 0.951 1_565 S
H467 C452 0.951 1_565 S
H468 C454 0.951 . S
H469 C455 0.950 . S
H470 C456 0.950 . S
H471 C457 0.950 . S
H472 C459 0.950 1_565 S
H473 C460 0.951 1_565 S
C474 C475 1.386 . S
C474 C476 1.383 . S
C474 H490 0.951 . S
C475 C474 1.386 . S
C475 C479 1.383 . S
C476 C474 1.383 . S
C476 C477 1.402 . S
C476 H491 0.951 . S
C477 C476 1.402 . S
C477 C478 1.375 . S
C477 C480 1.481 . S
C478 C477 1.375 . S
C478 C479 1.367 . S
C478 H492 0.951 . S
C479 C475 1.383 . S
C479 C478 1.367 . S
C479 H493 0.950 . S
C480 C477 1.481 . S
C480 C481 1.297 . S
C480 H494 0.950 . S
C481 C480 1.297 . S
C481 C482 1.479 . S
C481 H495 0.950 . S
C482 C481 1.479 . S
C482 C483 1.375 . S
C482 C488 1.404 . S
C483 C482 1.375 . S
C483 C484 1.369 . S
C483 H496 0.950 . S
C484 C483 1.369 . S
C484 C485 1.392 . S
C484 H497 0.951 . S
C485 C484 1.392 . S
C485 C487 1.384 . S
H486 C488 0.949 . S
C487 C485 1.384 . S
C487 C488 1.385 . S
C487 H489 0.950 . S
C488 C482 1.404 . S
C488 H486 0.949 . S
C488 C487 1.385 . S
H489 C487 0.950 . S
H490 C474 0.951 . S
H491 C476 0.951 . S
H492 C478 0.951 . S
H493 C479 0.950 . S
H494 C480 0.950 . S
H495 C481 0.950 . S
H496 C483 0.950 . S
H497 C484 0.951 . S
C498 C499 1.386 . S
C498 C500 1.383 . S
C498 H514 0.951 . S
C499 C498 1.386 . S
C499 C503 1.383 1_545 S
C500 C498 1.383 . S
C500 C501 1.402 . S
C500 H515 0.951 . S
C501 C500 1.402 . S
C501 C502 1.375 1_545 S
C501 C504 1.481 . S
C502 C501 1.375 1_565 S
C502 C503 1.367 . S
C502 H516 0.951 . S
C503 C499 1.383 1_565 S
C503 C502 1.367 . S
C503 H517 0.950 . S
C504 C501 1.481 . S
C504 C505 1.297 . S
C504 H518 0.950 1_545 S
C505 C504 1.297 . S
C505 C506 1.479 . S
C505 H519 0.950 . S
C506 C505 1.479 . S
C506 C507 1.375 . S
C506 C512 1.404 . S
C507 C506 1.375 . S
C507 C508 1.369 . S
C507 H520 0.950 . S
C508 C507 1.369 . S
C508 C509 1.392 . S
C508 H521 0.951 . S
C509 C508 1.392 . S
C509 C511 1.384 . S
H510 C512 0.949 1_565 S
C511 C509 1.384 . S
C511 C512 1.385 . S
C511 H513 0.950 1_545 S
C512 C506 1.404 . S
C512 H510 0.949 1_545 S
C512 C511 1.385 . S
H513 C511 0.950 1_565 S
H514 C498 0.951 . S
H515 C500 0.951 . S
H516 C502 0.951 . S
H517 C503 0.950 . S
H518 C504 0.950 1_565 S
H519 C505 0.950 . S
H520 C507 0.950 . S
H521 C508 0.951 . S
C522 C523 1.386 . S
C522 C524 1.383 . S
C522 H538 0.951 . S
C523 C522 1.386 . S
C523 C527 1.383 . S
C524 C522 1.383 . S
C524 C525 1.402 . S
C524 H539 0.951 . S
C525 C524 1.402 . S
C525 C526 1.375 . S
C525 C528 1.481 . S
C526 C525 1.375 . S
C526 C527 1.367 . S
C526 H540 0.951 . S
C527 C523 1.383 . S
C527 C526 1.367 . S
C527 H541 0.950 . S
C528 C525 1.481 . S
C528 C529 1.297 . S
C528 H542 0.950 . S
C529 C528 1.297 . S
C529 C530 1.479 1_556 S
C529 H543 0.950 . S
C530 C529 1.479 1_554 S
C530 C531 1.375 . S
C530 C536 1.404 . S
C531 C530 1.375 . S
C531 C532 1.369 . S
C531 H544 0.950 . S
C532 C531 1.369 . S
C532 C533 1.392 . S
C532 H545 0.951 . S
C533 C532 1.392 . S
C533 C535 1.384 . S
H534 C536 0.949 . S
C535 C533 1.384 . S
C535 C536 1.385 . S
C535 H537 0.950 . S
C536 C530 1.404 . S
C536 H534 0.949 . S
C536 C535 1.385 . S
H537 C535 0.950 . S
H538 C522 0.951 . S
H539 C524 0.951 . S
H540 C526 0.951 . S
H541 C527 0.950 . S
H542 C528 0.950 . S
H543 C529 0.950 . S
H544 C531 0.950 . S
H545 C532 0.951 . S
C546 C547 1.390 1_455 S
C546 C548 1.384 . S
C546 H562 0.937 1_455 S
C547 C546 1.390 1_655 S
C547 C551 1.386 . S
C548 C546 1.384 . S
C548 C549 1.402 . S
C548 H563 0.951 . S
C549 C548 1.402 . S
C549 C550 1.375 . S
C549 C552 1.481 . S
C550 C549 1.375 . S
C550 C551 1.366 1_455 S
C550 H564 0.951 . S
C551 C547 1.386 . S
C551 C550 1.366 1_655 S
C551 H565 0.947 . S
C552 C549 1.481 . S
C552 C553 1.297 . S
C552 H566 0.950 . S
C553 C552 1.297 . S
C553 C554 1.479 . S
C553 H567 0.938 1_455 S
C554 C553 1.479 . S
C554 C555 1.375 . S
C554 C560 1.404 . S
C555 C554 1.375 . S
C555 C556 1.369 . S
C555 H568 0.950 . S
C556 C555 1.369 . S
C556 C557 1.392 . S
C556 H569 0.951 . S
C557 C556 1.392 . S
C557 C559 1.384 . S
H558 C560 0.949 . S
C559 C557 1.384 . S
C559 C560 1.385 . S
C559 H561 0.950 . S
C560 C554 1.404 . S
C560 H558 0.949 . S
C560 C559 1.385 . S
H561 C559 0.950 . S
H562 C546 0.937 1_655 S
H563 C548 0.951 . S
H564 C550 0.951 . S
H565 C551 0.947 . S
H566 C552 0.950 . S
H567 C553 0.938 1_655 S
H568 C555 0.950 . S
H569 C556 0.951 . S
C139 C2 1.016 . S
C149 N127 1.110 . S
C163 C22 1.257 . S
C173 N100 1.363 . S
C187 C44 1.309 . S
C197 N113 1.351 . S
C211 C4 1.804 . S
C221 N126 1.869 . S
C245 N101 1.628 . S
C235 C24 1.566 . S
C269 N114 1.590 . S
C259 C42 1.505 . S
C283 C32 1.180 . S
C293 N74 1.200 . S
C307 C49 0.871 . S
C317 N88 0.870 1_655 S
C331 C9 1.317 . S
C341 N62 1.330 . S
C365 N75 1.273 . S
C355 C29 1.237 . S
C389 N87 1.550 . S
C379 C52 1.484 . S
C403 C12 1.190 . S
C413 N61 1.196 . S
C437 N91 1.500 . S
C427 C18 1.527 1_455 S
C451 C38 1.535 . S
C461 N65 1.544 . S
C475 C58 1.517 . S
C485 N78 1.463 . S
C509 N117 1.598 . S
C499 C39 1.605 . S
C533 N130 1.499 . S
C523 C59 1.484 . S
C547 C19 1.540 1_655 S
C557 N104 1.567 . S
