# Generated by pormake.
# Topology anh, (6,3)-cn, num edge types: 1
# Building blocks:
#     Node 0, Type 0, BuildingBlock: BETFAJ_clean_sbu_0, # of connection points: 6
#     Node 1, Type 0, BuildingBlock: BETFAJ_clean_sbu_0, # of connection points: 6
#     Node 2, Type 0, BuildingBlock: BETFAJ_clean_sbu_0, # of connection points: 6
#     Node 3, Type 1, BuildingBlock: VETTIZ_charged_linker_0, # of connection points: 3
#     Node 4, Type 1, BuildingBlock: VETTIZ_charged_linker_0, # of connection points: 3
#     Node 5, Type 1, BuildingBlock: VETTIZ_charged_linker_0, # of connection points: 3
#     Node 6, Type 1, BuildingBlock: VETTIZ_charged_linker_0, # of connection points: 3
#     Node 7, Type 1, BuildingBlock: VETTIZ_charged_linker_0, # of connection points: 3
#     Node 8, Type 1, BuildingBlock: VETTIZ_charged_linker_0, # of connection points: 3
#     Edge 9, Type (0, 1), None
#     Edge 10, Type (0, 1), None
#     Edge 11, Type (0, 1), None
#     Edge 12, Type (0, 1), None
#     Edge 13, Type (0, 1), None
#     Edge 14, Type (0, 1), None
#     Edge 15, Type (0, 1), None
#     Edge 16, Type (0, 1), None
#     Edge 17, Type (0, 1), None
#     Edge 18, Type (0, 1), None
#     Edge 19, Type (0, 1), None
#     Edge 20, Type (0, 1), None
#     Edge 21, Type (0, 1), None
#     Edge 22, Type (0, 1), None
#     Edge 23, Type (0, 1), None
#     Edge 24, Type (0, 1), None
#     Edge 25, Type (0, 1), None
#     Edge 26, Type (0, 1), None
# Relax obj value: 0.293
# Max RMSD: 0.263
# Mean RMSD: 0.185
data_MOF--net-anh--node1-BETFAJ_clean_sbu_0--node2-VETTIZ_charged_linker_0--edge1-none
_symmetry_space_group_name_H-M    P1
_symmetry_Int_Tables_number       1
_symmetry_cell_setting            triclinic
loop_
_symmetry_equiv_pos_as_xyz
'x, y, z'
_cell_length_a     19.963664
_cell_length_b     26.514827
_cell_length_c     38.006671
_cell_angle_alpha  91.938335
_cell_angle_beta   88.198981
_cell_angle_gamma 135.25485
loop_
_atom_site_label
_atom_site_type_symbol
_atom_site_fract_x
_atom_site_fract_y
_atom_site_fract_z
_atom_type_partial_charge
Sm0 Sm 0.24371 0.55023 0.13952 0.0
Sm1 Sm 1.15647 0.59029 0.14162 0.0
C2 C 0.37434 0.55305 0.13803 0.0
C3 C 0.46348 0.60943 0.15668 0.0
C4 C 0.5423 0.67368 0.13973 0.0
C5 C 0.63328 0.70698 0.14994 0.0
C6 C 0.63469 0.66362 0.16959 0.0
C7 C 0.57204 0.63487 0.19867 0.0
C8 C 0.47832 0.59702 0.19005 0.0
C9 C 0.19782 0.55324 0.20761 0.0
C10 C 0.37496 0.7225 0.13488 0.0
C11 C 1.07745 0.63144 0.16534 0.0
C12 C 0.97431 0.57734 0.17047 0.0
C13 C 0.93346 0.51265 0.18586 0.0
C14 C 0.86238 0.44763 0.16811 0.0
C15 C 0.8305 0.4475 0.13588 0.0
C16 C 0.85809 0.51057 0.12505 0.0
C17 C 0.92473 0.57421 0.14393 0.0
C18 C 1.14218 0.54304 0.07432 0.0
C19 C 1.02387 0.41654 0.1416 0.0
O20 O 0.36016 0.57261 0.11051 0.0
O21 O 0.29922 0.50746 0.1579 0.0
O22 O 0.23913 0.60255 0.18571 0.0
O23 O 0.17223 0.49698 0.19316 0.0
O24 O 0.36977 0.67458 0.14842 0.0
O25 O 0.29651 0.70021 0.12369 0.0
O26 O 1.12326 0.62648 0.18618 0.0
O27 O 1.10375 0.63889 0.1323 0.0
O28 O 0.21744 0.58328 0.09224 0.0
O29 O 1.07094 0.52405 0.09248 0.0
O30 O 1.03343 0.46814 0.15523 0.0
O31 O 1.09828 0.43662 0.1251 0.0
H32 H 0.53444 0.69141 0.11641 0.0
H33 H 0.69385 0.74924 0.13374 0.0
H34 H 0.58472 0.62101 0.22226 0.0
H35 H 0.41993 0.55412 0.20673 0.0
H36 H 0.96656 0.51306 0.2081 0.0
H37 H 0.83663 0.39868 0.17834 0.0
H38 H 0.82825 0.51069 0.10178 0.0
H39 H 0.95152 0.62303 0.13293 0.0
Sm40 Sm 0.72952 0.04835 0.46861 0.0
Sm41 Sm 0.59639 0.05767 0.46953 0.0
C42 C 0.81792 1.00848 0.47253 0.0
C43 C 0.77851 0.93802 0.48015 0.0
C44 C 0.69741 0.89159 0.50176 0.0
C45 C 0.66067 0.82538 0.51021 0.0
C46 C 0.70715 0.80595 0.49851 0.0
C47 C 0.78355 0.84964 0.47446 0.0
C48 C 0.81879 0.91549 0.46512 0.0
C49 C 0.69086 0.06086 0.40253 0.0
C50 C 0.49975 0.89919 0.47144 0.0
C51 C 0.51318 0.09879 0.45532 0.0
C52 C 0.5466 0.1689 0.46139 0.0
C53 C 0.61449 0.22684 0.43881 0.0
C54 C 0.65632 0.29563 0.44788 0.0
C55 C 0.6313 0.30721 0.4797 0.0
C56 C 0.56066 0.24891 0.50135 0.0
C57 C 0.51847 0.18048 0.49223 0.0
C58 C 0.63013 0.043 0.5362 0.0
C59 C 0.82864 0.20953 0.47088 0.0
O60 O 0.81541 0.04069 0.49858 0.0
O61 O 0.79028 1.01163 0.44284 0.0
O62 O 0.62934 1.01869 0.42581 0.0
O63 O 0.77607 0.10058 0.41432 0.0
O64 O 0.58477 0.93124 0.48225 0.0
O65 O 0.48792 0.93778 0.45863 0.0
O66 O 0.5606 0.09711 0.43169 0.0
O67 O 0.49273 0.06281 0.48353 0.0
O68 O 0.69355 0.08426 0.51311 0.0
O69 O 0.54701 1.01132 0.52496 0.0
O70 O 0.7407 0.1772 0.46485 0.0
O71 O 0.84584 0.17089 0.47655 0.0
H72 H 0.66503 0.90771 0.51366 0.0
H73 H 0.60066 0.79195 0.52831 0.0
H74 H 0.82046 0.83562 0.46503 0.0
H75 H 0.87981 0.95004 0.44756 0.0
H76 H 0.63763 0.21963 0.41475 0.0
H77 H 0.71015 0.33992 0.43073 0.0
H78 H 0.5387 0.25644 0.5257 0.0
H79 H 0.46614 0.13705 0.51002 0.0
Sm80 Sm 0.78793 0.66173 0.82625 0.0
Sm81 Sm 0.65165 0.50216 0.82667 0.0
C82 C 0.90297 0.80019 0.8176 0.0
C83 C 0.87605 0.83851 0.81074 0.0
C84 C 0.90023 0.87123 0.77814 0.0
C85 C 0.85804 0.89302 0.7673 0.0
C86 C 0.79113 0.88319 0.78891 0.0
C87 C 0.77163 0.85514 0.82264 0.0
C88 C 0.81323 0.83241 0.83341 0.0
C89 C 0.72331 0.59705 0.89113 0.0
C90 C 0.56025 0.57422 0.82582 0.0
C91 C 0.55652 0.37279 0.84927 0.0
C92 C 0.56965 0.3253 0.84061 0.0
C93 C 0.63107 0.32845 0.86049 0.0
C94 C 0.65385 0.29116 0.84924 0.0
C95 C 0.61558 0.25007 0.81794 0.0
C96 C 0.55063 0.24426 0.79917 0.0
C97 C 0.52807 0.28138 0.81031 0.0
C98 C 0.68489 0.53637 0.75715 0.0
C99 C 0.88392 0.59376 0.81941 0.0
O100 O 0.88324 0.75697 0.79211 0.0
O101 O 0.8821 0.77225 0.84873 0.0
O102 O 0.75408 0.58615 0.86622 0.0
O103 O 0.71993 0.64176 0.8817 0.0
O104 O 0.64729 0.63373 0.81539 0.0
O105 O 0.54919 0.52063 0.83662 0.0
O106 O 0.62476 0.43107 0.86723 0.0
O107 O 0.52554 0.38425 0.82405 0.0
O108 O 0.72215 0.5817 0.78209 0.0
O109 O 0.63086 0.47193 0.76853 0.0
O110 O 0.79371 0.5297 0.81967 0.0
O111 O 0.90061 0.65266 0.82284 0.0
H112 H 0.94782 0.87626 0.76012 0.0
H113 H 0.87566 0.91571 0.74138 0.0
H114 H 0.72063 0.84729 0.83985 0.0
H115 H 0.79243 0.80686 0.85868 0.0
H116 H 0.66411 0.36166 0.8841 0.0
H117 H 0.70392 0.2966 0.8643 0.0
H118 H 0.51787 0.21156 0.77542 0.0
H119 H 0.48005 0.27718 0.79448 0.0
C120 C 0.89559 0.2758 0.13968 0.0
C121 C 0.95072 0.34335 0.15773 0.0
C122 C 0.94182 0.3431 0.19448 0.0
C123 C 0.82902 0.2138 0.1958 0.0
C124 C 0.83277 0.21088 0.15948 0.0
C125 C 0.76133 0.1322 0.14672 0.0
H126 H 0.42371 0.7757 0.19965 0.0
C127 C 0.75863 0.14032 0.20979 0.0
C128 C 0.71587 0.09045 0.18148 0.0
H129 H 0.497 0.84347 0.09192 0.0
H130 H 0.61325 0.97004 0.11174 0.0
H131 H 0.61051 0.87641 0.23316 0.0
H132 H 0.40789 0.88564 0.21872 0.0
H133 H 0.45278 0.92072 0.26119 0.0
H134 H 0.39341 0.83004 0.25056 0.0
H135 H 0.50979 0.83185 0.26192 0.0
H136 H 0.62261 0.92197 0.27083 0.0
C137 C 0.81542 0.11787 0.12732 0.0
C138 C 0.68754 0.11744 0.12311 0.0
C139 C 0.73302 0.11189 0.34259 0.0
C140 C 0.67087 0.05256 0.36463 0.0
C141 C 0.59377 0.98473 0.34968 0.0
C142 C 0.58231 0.97566 0.31302 0.0
C143 C 0.64796 1.03534 0.29112 0.0
C144 C 0.71904 0.10221 0.30617 0.0
C145 C 0.77477 0.16031 0.27934 0.0
C146 C 0.73188 0.11684 0.24519 0.0
C147 C 0.65887 0.0439 0.25236 0.0
C148 C 0.88099 0.20229 0.28268 0.0
C149 C 0.75225 0.20522 0.28595 0.0
C150 C 0.46624 0.8175 0.18017 0.0
C151 C 0.45415 0.79974 0.14447 0.0
C152 C 0.5073 0.85603 0.11985 0.0
C153 C 0.57379 0.92915 0.13132 0.0
C154 C 0.58417 0.9458 0.16769 0.0
C155 C 0.52862 0.8892 0.19099 0.0
C156 C 0.53938 0.91261 0.22825 0.0
C157 C 0.61572 0.99293 0.22455 0.0
C158 C 0.64292 1.01447 0.18903 0.0
C159 C 0.57169 0.88426 0.24991 0.0
C160 C 0.44353 0.88563 0.24067 0.0
H161 H 0.88625 0.2863 0.24128 0.0
H162 H 0.90012 0.27364 0.11131 0.0
H163 H 0.65596 0.13442 0.13678 0.0
H164 H 0.62844 0.05995 0.11643 0.0
H165 H 0.72131 0.14755 0.09819 0.0
H166 H 0.87146 0.1326 0.14445 0.0
H167 H 0.8502 0.15001 0.103 0.0
H168 H 0.76763 0.06077 0.11982 0.0
H169 H 0.79152 0.16492 0.35329 0.0
H170 H 0.54474 0.93823 0.3662 0.0
H171 H 0.52416 0.92222 0.30318 0.0
H172 H 0.88803 0.16487 0.2868 0.0
H173 H 0.91386 0.24014 0.3055 0.0
H174 H 0.92392 0.23214 0.25885 0.0
H175 H 0.68242 0.17384 0.29955 0.0
H176 H 0.74475 0.22183 0.26128 0.0
H177 H 0.80683 0.25287 0.3028 0.0
H178 H 0.98245 0.39287 0.20924 0.0
C179 C 0.8842 0.28008 0.21334 0.0
C180 C 0.69003 0.70286 0.50008 0.0
C181 C 0.69089 0.75076 0.5176 0.0
C182 C 0.68895 0.75282 0.55469 0.0
C183 C 0.6939 0.66504 0.55652 0.0
C184 C 0.69145 0.66037 0.52014 0.0
C185 C 0.69487 0.60845 0.50633 0.0
H186 H 0.7095 0.36934 0.54287 0.0
C187 C 0.70491 0.62 0.56959 0.0
C188 C 0.70641 0.58701 0.54038 0.0
H189 H 0.65317 0.40534 0.44296 0.0
H190 H 0.68914 0.50764 0.46793 0.0
H191 H 0.88779 0.543 0.56867 0.0
H192 H 0.58574 0.36924 0.58268 0.0
H193 H 0.62613 0.41699 0.62255 0.0
H194 H 0.66738 0.37736 0.60799 0.0
H195 H 0.83277 0.46869 0.59671 0.0
H196 H 0.86396 0.54804 0.61285 0.0
C197 C 0.78294 0.64889 0.48177 0.0
C198 C 0.59857 0.54479 0.48834 0.0
C199 C 0.71178 0.59645 0.70137 0.0
C200 C 0.71442 0.55329 0.7202 0.0
C201 C 0.73416 0.5176 0.70247 0.0
C202 C 0.74606 0.52134 0.66603 0.0
C203 C 0.73557 0.55966 0.64698 0.0
C204 C 0.72171 0.59826 0.66455 0.0
C205 C 0.71095 0.63472 0.63938 0.0
C206 C 0.7163 0.60859 0.60413 0.0
C207 C 0.73055 0.56475 0.60891 0.0
C208 C 0.79642 0.71684 0.6446 0.0
C209 C 0.61192 0.60645 0.64589 0.0
C210 C 0.7075 0.40061 0.52619 0.0
C211 C 0.67726 0.37926 0.49127 0.0
C212 C 0.67589 0.421 0.47008 0.0
C213 C 0.69524 0.47945 0.4848 0.0
C214 C 0.71506 0.49521 0.52097 0.0
C215 C 0.72369 0.45733 0.54074 0.0
C216 C 0.73521 0.47575 0.57926 0.0
C217 C 0.73011 0.52999 0.57963 0.0
C218 C 0.71874 0.54142 0.54549 0.0
C219 C 0.83467 0.51025 0.59028 0.0
C220 C 0.65008 0.40666 0.59945 0.0
H221 H 0.69168 0.71597 0.60227 0.0
H222 H 0.69128 0.70026 0.47159 0.0
H223 H 0.53965 0.53627 0.50035 0.0
H224 H 0.57583 0.49315 0.49157 0.0
H225 H 0.60148 0.55434 0.45985 0.0
H226 H 0.84537 0.7026 0.4931 0.0
H227 H 0.7692 0.65694 0.45548 0.0
H228 H 0.80564 0.62132 0.47821 0.0
H229 H 0.69607 0.62397 0.7146 0.0
H230 H 0.73725 0.48464 0.7168 0.0
H231 H 0.75848 0.49139 0.65402 0.0
H232 H 0.86093 0.7308 0.65301 0.0
H233 H 0.78046 0.73804 0.66509 0.0
H234 H 0.81858 0.74671 0.62001 0.0
H235 H 0.55795 0.54873 0.65276 0.0
H236 H 0.58321 0.60892 0.62241 0.0
H237 H 0.61413 0.63615 0.66796 0.0
H238 H 0.69146 0.79032 0.56882 0.0
C239 C 0.69059 0.71034 0.57419 0.0
C240 C 0.4296 0.5819 0.81647 0.0
C241 C 0.48544 0.57655 0.83724 0.0
C242 C 0.47299 0.57611 0.87361 0.0
C243 C 0.35228 0.57802 0.8698 0.0
C244 C 0.3626 0.58263 0.83365 0.0
C245 C 0.29414 0.58814 0.81949 0.0
H246 H 0.94214 0.58684 0.87997 0.0
C247 C 0.2794 0.57763 0.88198 0.0
C248 C 0.24131 0.58351 0.85301 0.0
H249 H 1.0102 0.60396 0.77013 0.0
H250 H 1.1288 0.59988 0.78386 0.0
H251 H 0.92272 0.46465 0.89004 0.0
H252 H 1.14085 0.69112 0.90814 0.0
H253 H 1.14996 0.65802 0.94458 0.0
H254 H 1.03969 0.63155 0.93687 0.0
H255 H 0.92023 0.50643 0.92734 0.0
H256 H 0.97291 0.4725 0.92923 0.0
C257 C 0.22222 0.52579 0.79382 0.0
C258 C 0.35325 0.66029 0.80136 0.0
C259 C 0.2115 0.55271 0.01503 0.0
C260 C 1.14426 0.54464 0.03549 0.0
C261 C 1.0815 0.54326 0.01866 0.0
C262 C 1.08659 0.55158 0.98241 0.0
C263 C 1.15364 0.55964 0.96186 0.0
C264 C 0.21352 0.55889 0.97818 0.0
C265 C 0.27712 0.56521 0.95189 0.0
C266 C 0.24622 0.57087 0.91703 0.0
C267 C 0.17519 0.56873 0.92336 0.0
C268 C 0.2529 0.4951 0.95364 0.0
C269 C 0.38159 0.63538 0.96094 0.0
C270 C 0.98245 0.59098 0.85832 0.0
C271 C 0.96516 0.59727 0.82425 0.0
C272 C 1.02057 0.60023 0.79733 0.0
C273 C 1.08953 0.59753 0.80519 0.0
C274 C 1.1045 0.59064 0.84046 0.0
C275 C 1.04873 0.5875 0.86543 0.0
C276 C 1.0621 0.57649 0.90116 0.0
C277 C 1.13704 0.57607 0.8956 0.0
C278 C 0.1668 0.58391 0.85981 0.0
C279 C 0.96483 0.50166 0.9129 0.0
C280 C 1.09936 0.64201 0.92413 0.0
H281 H 0.40652 0.57408 0.91747 0.0
H282 H 0.43729 0.58496 0.78811 0.0
H283 H 0.40548 0.70534 0.82 0.0
H284 H 0.30648 0.66575 0.79204 0.0
H285 H 0.39307 0.6649 0.77837 0.0
H286 H 0.18004 0.4737 0.80698 0.0
H287 H 0.25946 0.52795 0.77061 0.0
H288 H 0.17233 0.52812 0.78443 0.0
H289 H 0.26088 0.55395 0.02734 0.0
H290 H 1.03 0.53822 0.03371 0.0
H291 H 1.03811 0.55241 0.97237 0.0
H292 H 0.17915 0.44947 0.96355 0.0
H293 H 0.30179 0.50163 0.97144 0.0
H294 H 0.25435 0.47634 0.92743 0.0
H295 H 0.38617 0.6765 0.97312 0.0
H296 H 0.42833 0.66187 0.93737 0.0
H297 H 0.41247 0.62546 0.9798 0.0
H298 H 0.51691 0.57869 0.89063 0.0
C299 C 0.40852 0.57565 0.88948 0.0
C300 C 0.97018 0.34828 0.47248 0.0
C301 C 0.90489 0.28066 0.45462 0.0
C302 C 0.9061 0.27866 0.41786 0.0
C303 C 1.03225 0.4073 0.41571 0.0
C304 C 1.03416 0.41184 0.4521 0.0
C305 C 1.11125 0.49034 0.46429 0.0
H306 H 0.43449 0.84233 0.40861 0.0
C307 C 1.1024 0.47965 0.40113 0.0
C308 C 1.15009 0.53031 0.4291 0.0
H309 H 0.40115 0.78029 0.516 0.0
H310 H 0.27689 0.65265 0.4977 0.0
H311 H 0.44972 0.74258 0.38017 0.0
H312 H 0.22455 0.73088 0.3864 0.0
H313 H 0.21006 0.69183 0.34541 0.0
H314 H 0.31927 0.78387 0.35449 0.0
H315 H 0.44099 0.7882 0.35002 0.0
H316 H 0.38707 0.69856 0.34113 0.0
C317 C 0.1873 0.50183 0.48423 0.0
C318 C 1.06576 0.50872 0.48717 0.0
C319 C 1.1384 0.50306 0.26791 0.0
C320 C 0.19401 0.56248 0.24574 0.0
C321 C 0.24876 0.63134 0.2605 0.0
C322 C 0.25133 0.64123 0.297 0.0
C323 C 0.19796 0.58153 0.31908 0.0
C324 C 1.1408 0.51392 0.30435 0.0
C325 C 1.08429 0.45675 0.33167 0.0
C326 C 1.12305 0.50152 0.36551 0.0
C327 C 0.18882 0.57405 0.35782 0.0
C328 C 1.10805 0.41229 0.32778 0.0
C329 C 0.97836 0.41415 0.32612 0.0
C330 C 0.40041 0.80168 0.42847 0.0
C331 C 0.42638 0.82112 0.46353 0.0
C332 C 0.38184 0.76632 0.48852 0.0
C333 C 0.31022 0.69268 0.47792 0.0
C334 C 0.28574 0.67453 0.44197 0.0
C335 C 0.33305 0.72989 0.41832 0.0
C336 C 0.3089 0.70544 0.38103 0.0
C337 C 0.23687 0.62571 0.38529 0.0
C338 C 0.22033 0.60556 0.42098 0.0
C339 C 0.40095 0.7353 0.36179 0.0
C340 C 0.26392 0.72941 0.36572 0.0
H341 H 0.96412 0.33309 0.37059 0.0
H342 H 0.97049 0.35143 0.50095 0.0
H343 H 1.0078 0.49618 0.47263 0.0
H344 H 1.1183 0.56619 0.4946 0.0
H345 H 1.0349 0.47721 0.51174 0.0
H346 H 0.21206 0.48164 0.46821 0.0
H347 H 1.15783 0.4726 0.50949 0.0
H348 H 0.25055 0.55894 0.49006 0.0
H349 H 1.09453 0.44931 0.25726 0.0
H350 H 0.2916 0.67788 0.24386 0.0
H351 H 0.29597 0.69528 0.30649 0.0
H352 H 0.18135 0.44524 0.31716 0.0
H353 H 1.05832 0.36598 0.30948 0.0
H354 H 1.10798 0.3931 0.35318 0.0
H355 H 0.97133 0.45024 0.31816 0.0
H356 H 0.93397 0.38871 0.35019 0.0
H357 H 0.94701 0.37321 0.30488 0.0
H358 H 0.85658 0.22815 0.40376 0.0
C359 C 0.96869 0.34055 0.3985 0.0
C360 C 0.73405 0.94319 0.79298 0.0
C361 C 0.73949 0.89904 0.77465 0.0
C362 C 0.70223 0.87446 0.74042 0.0
C363 C 0.67808 0.95152 0.73983 0.0
C364 C 0.70234 0.96856 0.77498 0.0
C365 C 0.69394 1.01791 0.78904 0.0
H366 H 0.65592 0.24546 0.74997 0.0
C367 C 0.66661 0.99647 0.72652 0.0
C368 C 0.67504 1.03549 0.75529 0.0
H369 H 0.64096 0.17525 0.85349 0.0
H370 H 0.66791 0.10555 0.82783 0.0
H371 H 0.82221 0.26353 0.71786 0.0
H372 H 0.51733 0.09612 0.71693 0.0
H373 H 0.5546 0.09685 0.67443 0.0
H374 H 0.58633 0.17572 0.69138 0.0
H375 H 0.75424 0.2637 0.68824 0.0
H376 H 0.7932 0.22116 0.67652 0.0
C377 C 0.78892 0.08489 0.80614 0.0
C378 C 0.60766 0.97467 0.81468 0.0
C379 C 0.64812 1.01125 0.59394 0.0
C380 C 0.65002 0.05595 0.574 0.0
C381 C 0.66262 0.11005 0.5909 0.0
C382 C 0.67038 0.1185 0.62751 0.0
C383 C 0.66508 0.07209 0.6475 0.0
C384 C 0.65667 1.02076 0.63074 0.0
C385 C 0.6575 0.97916 0.65651 0.0
C386 C 0.66312 1.01193 0.69152 0.0
C387 C 0.66721 0.06594 0.68583 0.0
C388 C 0.74837 0.99612 0.6487 0.0
C389 C 0.56345 0.89856 0.65308 0.0
C390 C 0.65821 0.21505 0.76727 0.0
C391 C 0.64416 0.21462 0.80368 0.0
C392 C 0.65077 0.17601 0.82525 0.0
C393 C 0.66498 0.13478 0.81029 0.0
C394 C 0.67211 0.13198 0.77342 0.0
C395 C 0.66965 0.17255 0.75277 0.0
C396 C 0.67075 0.15982 0.71417 0.0
C397 C 0.6707 0.10282 0.71477 0.0
C398 C 0.67353 0.08741 0.74941 0.0
C399 C 0.76436 0.23054 0.69808 0.0
C400 C 0.57811 0.13109 0.69806 0.0
H401 H 0.64578 0.88091 0.69668 0.0
H402 H 0.75881 0.9606 0.8198 0.0
H403 H 0.54992 0.9178 0.80575 0.0
H404 H 0.57423 0.99448 0.8161 0.0
H405 H 0.62829 0.97492 0.84155 0.0
H406 H 0.84969 0.10754 0.78822 0.0
H407 H 0.79963 0.07125 0.83126 0.0
H408 H 0.79316 0.12815 0.81171 0.0
H409 H 0.63852 0.96925 0.5813 0.0
H410 H 0.66391 0.14465 0.57576 0.0
H411 H 0.67826 0.16004 0.63881 0.0
H412 H 0.81147 0.05492 0.64637 0.0
H413 H 0.74153 0.97036 0.62348 0.0
H414 H 0.76578 0.97908 0.66941 0.0
H415 H 0.50551 0.89078 0.64218 0.0
H416 H 0.53566 0.87189 0.67892 0.0
H417 H 0.57262 0.86956 0.63539 0.0
H418 H 0.70112 0.83753 0.72649 0.0
C419 C 0.67103 0.90013 0.72303 0.0
C420 C 0.66505 0.34909 0.12768 0.0
C421 C 0.75474 0.38066 0.11628 0.0
C422 C 0.77062 0.3826 0.07975 0.0
C423 C 0.64488 0.37531 0.07088 0.0
C424 C 0.62083 0.36008 0.1063 0.0
C425 C 0.57413 0.38273 0.12023 0.0
H426 H 0.628 0.64665 0.09649 0.0
C427 C 0.60472 0.40063 0.05751 0.0
C428 C 0.5613 0.40387 0.08612 0.0
H429 H 0.57676 0.53919 0.19259 0.0
H430 H 0.49458 0.4307 0.15838 0.0
H431 H 0.68812 0.60284 0.03063 0.0
H432 H 0.38836 0.44958 0.06327 0.0
H433 H 0.42238 0.47958 0.01888 0.0
H434 H 0.4484 0.5394 0.05303 0.0
H435 H 0.63998 0.63874 0.04097 0.0
H436 H 0.60011 0.58575 0.00378 0.0
C437 C 0.64392 0.44741 0.14656 0.0
C438 C 0.47803 0.31796 0.13746 0.0
C439 C 0.70781 0.52605 0.93928 0.0
C440 C 0.67304 0.5499 0.92186 0.0
C441 C 0.58665 0.52561 0.93337 0.0
C442 C 0.5413 0.48588 0.96393 0.0
C443 C 0.58691 0.47504 -0.01594 0.0
C444 C 0.66164 0.48703 0.97044 0.0
C445 C 0.68395 0.4557 -0.00605 0.0
C446 C 0.61299 0.42793 0.02435 0.0
C447 C 0.56456 0.4472 0.01926 0.0
C448 C 0.78819 0.51756 0.00613 0.0
C449 C 0.6641 0.39465 0.97357 0.0
C450 C 0.60608 0.60216 0.11045 0.0
C451 C 0.61489 0.60522 0.1477 0.0
C452 C 0.5769 0.54204 0.16426 0.0
C453 C 0.53138 0.47946 0.14477 0.0
C454 C 0.53611 0.48211 0.10825 0.0
C455 C 0.56291 0.5392 0.09158 0.0
C456 C 0.5423 0.52336 0.0528 0.0
C457 C 0.53491 0.46171 0.04867 0.0
C458 C 0.52972 0.4373 0.08196 0.0
C459 C 0.62231 0.59085 0.03091 0.0
C460 C 0.44498 0.49642 0.04653 0.0
H461 H 0.7358 0.39032 0.02935 0.0
H462 H 0.64982 0.34311 0.15574 0.0
H463 H 0.43939 0.26859 0.1211 0.0
H464 H 0.43059 0.32581 0.14032 0.0
H465 H 0.48916 0.30832 0.16389 0.0
H466 H 0.6986 0.45204 0.15749 0.0
H467 H 0.60786 0.44205 0.17099 0.0
H468 H 0.68398 0.49966 0.13394 0.0
H469 H 0.77031 0.53931 0.92957 0.0
H470 H 0.55413 0.53712 0.91887 0.0
H471 H 0.4749 0.46739 0.97224 0.0
H472 H 0.80071 0.56334 0.01667 0.0
H473 H 0.83856 0.53723 -0.0162 0.0
H474 H 0.80705 0.50228 0.02734 0.0
H475 H 0.61438 0.37323 0.95139 0.0
H476 H 0.62877 0.34788 -0.00961 0.0
H477 H 0.73071 0.41356 0.9623 0.0
H478 H 0.83702 0.40187 0.07002 0.0
C479 C 0.71436 0.37937 0.05651 0.0
loop_
_geom_bond_atom_site_label_1
_geom_bond_atom_site_label_2
_geom_bond_distance
_geom_bond_site_symmetry_2
_ccdc_geom_bond_type
Sm0 C2 2.846 . S
Sm0 O20 2.543 . S
Sm0 O21 2.450 . S
Sm0 O22 2.681 . S
Sm0 O23 2.464 . S
Sm0 O24 2.396 . S
Sm0 O28 2.386 . S
Sm0 O31 2.408 1_455 S
Sm1 C11 2.846 . S
Sm1 O22 2.386 1_655 S
Sm1 O25 2.408 1_655 S
Sm1 O26 2.543 . S
Sm1 O27 2.450 . S
Sm1 O28 2.681 1_655 S
Sm1 O29 2.464 . S
Sm1 O30 2.396 . S
C2 Sm0 2.846 . S
C2 C3 1.506 . S
C2 O20 1.261 . S
C2 O21 1.242 . S
C3 C2 1.506 . S
C3 C4 1.358 . S
C3 C8 1.382 . S
C4 C3 1.358 . S
C4 C5 1.385 . S
C4 H32 0.930 . S
C5 C4 1.385 . S
C5 C6 1.395 . S
C5 H33 0.929 . S
C6 C5 1.395 . S
C6 C7 1.335 . S
C7 C6 1.335 . S
C7 C8 1.398 . S
C7 H34 0.930 . S
C8 C3 1.382 . S
C8 C7 1.398 . S
C8 H35 0.929 . S
C9 O22 1.271 . S
C9 O23 1.251 . S
C10 O24 1.252 . S
C10 O25 1.272 . S
C11 Sm1 2.846 . S
C11 C12 1.506 . S
C11 O26 1.261 . S
C11 O27 1.242 . S
C12 C11 1.506 . S
C12 C13 1.358 . S
C12 C17 1.382 . S
C13 C12 1.358 . S
C13 C14 1.385 . S
C13 H36 0.930 . S
C14 C13 1.385 . S
C14 C15 1.395 . S
C14 H37 0.929 . S
C15 C14 1.395 . S
C15 C16 1.335 . S
C16 C15 1.335 . S
C16 C17 1.398 . S
C16 H38 0.930 . S
C17 C12 1.382 . S
C17 C16 1.398 . S
C17 H39 0.929 . S
C18 O28 1.271 . S
C18 O29 1.251 1_455 S
C19 O30 1.252 . S
C19 O31 1.272 . S
O20 Sm0 2.543 . S
O20 C2 1.261 . S
O21 Sm0 2.450 . S
O21 C2 1.242 . S
O22 Sm0 2.681 . S
O22 Sm1 2.386 1_455 S
O22 C9 1.271 . S
O23 Sm0 2.464 . S
O23 C9 1.251 . S
O24 Sm0 2.396 . S
O24 C10 1.252 . S
O25 Sm1 2.408 1_455 S
O25 C10 1.272 . S
O26 Sm1 2.543 . S
O26 C11 1.261 . S
O27 Sm1 2.450 . S
O27 C11 1.242 . S
O28 Sm0 2.386 . S
O28 Sm1 2.681 1_455 S
O28 C18 1.271 . S
O29 Sm1 2.464 . S
O29 C18 1.251 1_655 S
O30 Sm1 2.396 . S
O30 C19 1.252 . S
O31 Sm0 2.408 1_655 S
O31 C19 1.272 . S
H32 C4 0.930 . S
H33 C5 0.929 . S
H34 C7 0.930 . S
H35 C8 0.929 . S
H36 C13 0.930 . S
H37 C14 0.929 . S
H38 C16 0.930 . S
H39 C17 0.929 . S
Sm40 C42 2.846 . S
Sm40 O60 2.543 . S
Sm40 O61 2.450 . S
Sm40 O62 2.681 1_565 S
Sm40 O63 2.464 . S
Sm40 O64 2.396 . S
Sm40 O68 2.386 . S
Sm40 O71 2.408 1_565 S
Sm41 C51 2.846 . S
Sm41 O62 2.386 . S
Sm41 O65 2.408 1_545 S
Sm41 O66 2.543 . S
Sm41 O67 2.450 . S
Sm41 O68 2.681 1_545 S
Sm41 O69 2.464 . S
Sm41 O70 2.396 . S
C42 Sm40 2.846 . S
C42 C43 1.506 . S
C42 O60 1.261 . S
C42 O61 1.242 . S
C43 C42 1.506 . S
C43 C44 1.358 . S
C43 C48 1.382 . S
C44 C43 1.358 . S
C44 C45 1.385 . S
C44 H72 0.930 . S
C45 C44 1.385 . S
C45 C46 1.395 . S
C45 H73 0.929 . S
C46 C45 1.395 . S
C46 C47 1.335 . S
C47 C46 1.335 . S
C47 C48 1.398 . S
C47 H74 0.930 . S
C48 C43 1.382 . S
C48 C47 1.398 . S
C48 H75 0.929 . S
C49 O62 1.271 . S
C49 O63 1.251 1_545 S
C50 O64 1.252 . S
C50 O65 1.272 . S
C51 Sm41 2.846 . S
C51 C52 1.506 . S
C51 O66 1.261 . S
C51 O67 1.242 . S
C52 C51 1.506 . S
C52 C53 1.358 . S
C52 C57 1.382 . S
C53 C52 1.358 . S
C53 C54 1.385 . S
C53 H76 0.930 . S
C54 C53 1.385 . S
C54 C55 1.395 . S
C54 H77 0.929 . S
C55 C54 1.395 . S
C55 C56 1.335 . S
C56 C55 1.335 . S
C56 C57 1.398 . S
C56 H78 0.930 . S
C57 C52 1.382 . S
C57 C56 1.398 . S
C57 H79 0.929 . S
C58 O68 1.271 1_545 S
C58 O69 1.251 . S
C59 O70 1.252 . S
C59 O71 1.272 . S
O60 Sm40 2.543 . S
O60 C42 1.261 . S
O61 Sm40 2.450 . S
O61 C42 1.242 . S
O62 Sm40 2.681 1_545 S
O62 Sm41 2.386 . S
O62 C49 1.271 . S
O63 Sm40 2.464 . S
O63 C49 1.251 1_565 S
O64 Sm40 2.396 . S
O64 C50 1.252 . S
O65 Sm41 2.408 1_565 S
O65 C50 1.272 . S
O66 Sm41 2.543 . S
O66 C51 1.261 . S
O67 Sm41 2.450 . S
O67 C51 1.242 . S
O68 Sm40 2.386 . S
O68 Sm41 2.681 1_565 S
O68 C58 1.271 1_565 S
O69 Sm41 2.464 . S
O69 C58 1.251 . S
O70 Sm41 2.396 . S
O70 C59 1.252 . S
O71 Sm40 2.408 1_545 S
O71 C59 1.272 . S
H72 C44 0.930 . S
H73 C45 0.929 . S
H74 C47 0.930 . S
H75 C48 0.929 . S
H76 C53 0.930 . S
H77 C54 0.929 . S
H78 C56 0.930 . S
H79 C57 0.929 . S
Sm80 C82 2.846 . S
Sm80 O100 2.543 . S
Sm80 O101 2.450 . S
Sm80 O102 2.681 . S
Sm80 O103 2.464 . S
Sm80 O104 2.396 . S
Sm80 O108 2.386 . S
Sm80 O111 2.408 . S
Sm81 C91 2.846 . S
Sm81 O102 2.386 . S
Sm81 O105 2.408 . S
Sm81 O106 2.543 . S
Sm81 O107 2.450 . S
Sm81 O108 2.681 . S
Sm81 O109 2.464 . S
Sm81 O110 2.396 . S
C82 Sm80 2.846 . S
C82 C83 1.506 . S
C82 O100 1.261 . S
C82 O101 1.242 . S
C83 C82 1.506 . S
C83 C84 1.358 . S
C83 C88 1.382 . S
C84 C83 1.358 . S
C84 C85 1.385 . S
C84 H112 0.930 . S
C85 C84 1.385 . S
C85 C86 1.395 . S
C85 H113 0.929 . S
C86 C85 1.395 . S
C86 C87 1.335 . S
C87 C86 1.335 . S
C87 C88 1.398 . S
C87 H114 0.930 . S
C88 C83 1.382 . S
C88 C87 1.398 . S
C88 H115 0.929 . S
C89 O102 1.271 . S
C89 O103 1.251 . S
C90 O104 1.252 . S
C90 O105 1.272 . S
C91 Sm81 2.846 . S
C91 C92 1.506 . S
C91 O106 1.261 . S
C91 O107 1.242 . S
C92 C91 1.506 . S
C92 C93 1.358 . S
C92 C97 1.382 . S
C93 C92 1.358 . S
C93 C94 1.385 . S
C93 H116 0.930 . S
C94 C93 1.385 . S
C94 C95 1.395 . S
C94 H117 0.929 . S
C95 C94 1.395 . S
C95 C96 1.335 . S
C96 C95 1.335 . S
C96 C97 1.398 . S
C96 H118 0.930 . S
C97 C92 1.382 . S
C97 C96 1.398 . S
C97 H119 0.929 . S
C98 O108 1.271 . S
C98 O109 1.251 . S
C99 O110 1.252 . S
C99 O111 1.272 . S
O100 Sm80 2.543 . S
O100 C82 1.261 . S
O101 Sm80 2.450 . S
O101 C82 1.242 . S
O102 Sm80 2.681 . S
O102 Sm81 2.386 . S
O102 C89 1.271 . S
O103 Sm80 2.464 . S
O103 C89 1.251 . S
O104 Sm80 2.396 . S
O104 C90 1.252 . S
O105 Sm81 2.408 . S
O105 C90 1.272 . S
O106 Sm81 2.543 . S
O106 C91 1.261 . S
O107 Sm81 2.450 . S
O107 C91 1.242 . S
O108 Sm80 2.386 . S
O108 Sm81 2.681 . S
O108 C98 1.271 . S
O109 Sm81 2.464 . S
O109 C98 1.251 . S
O110 Sm81 2.396 . S
O110 C99 1.252 . S
O111 Sm80 2.408 . S
O111 C99 1.272 . S
H112 C84 0.930 . S
H113 C85 0.929 . S
H114 C87 0.930 . S
H115 C88 0.929 . S
H116 C93 0.930 . S
H117 C94 0.929 . S
H118 C96 0.930 . S
H119 C97 0.929 . S
C120 C121 1.391 . S
C120 C124 1.391 . S
C120 H162 0.948 . S
C121 C120 1.391 . S
C121 C122 1.391 . S
C122 C121 1.391 . S
C122 H178 0.947 . S
C122 C179 1.392 . S
C123 C124 1.391 . S
C123 C127 1.397 . S
C123 C179 1.419 . S
C124 C120 1.391 . S
C124 C123 1.391 . S
C124 C125 1.399 . S
C125 C124 1.399 . S
C125 C128 1.396 . S
C125 C137 1.453 . S
C125 C138 1.684 . S
H126 C150 0.948 . S
C127 C123 1.397 . S
C127 C128 1.394 . S
C127 C146 1.723 . S
C128 C125 1.396 . S
C128 C127 1.394 . S
C128 C158 1.723 1_545 S
H129 C152 0.947 . S
H130 C153 0.948 . S
H131 C159 0.982 . S
H132 C160 0.979 . S
H133 C160 0.980 . S
H134 C160 0.983 . S
H135 C159 0.979 . S
H136 C159 0.977 . S
C137 C125 1.453 . S
C137 H166 0.982 . S
C137 H167 0.979 . S
C137 H168 0.977 . S
C138 C125 1.684 . S
C138 H163 0.979 . S
C138 H164 0.980 . S
C138 H165 0.983 . S
C139 C140 1.391 . S
C139 C144 1.391 . S
C139 H169 0.948 . S
C140 C139 1.391 . S
C140 C141 1.391 1_545 S
C141 C140 1.391 1_565 S
C141 C142 1.392 . S
C141 H170 0.947 . S
C142 C141 1.392 . S
C142 C143 1.419 1_565 S
C142 H171 0.948 . S
C143 C142 1.419 1_545 S
C143 C144 1.391 . S
C143 C147 1.397 . S
C144 C139 1.391 . S
C144 C143 1.391 . S
C144 C145 1.399 . S
C145 C144 1.399 . S
C145 C146 1.396 . S
C145 C148 1.453 . S
C145 C149 1.684 . S
C146 C127 1.723 . S
C146 C145 1.396 . S
C146 C147 1.394 . S
C147 C143 1.397 . S
C147 C146 1.394 . S
C147 C157 1.723 1_545 S
C148 C145 1.453 . S
C148 H172 0.982 . S
C148 H173 0.979 . S
C148 H174 0.977 . S
C149 C145 1.684 . S
C149 H175 0.979 . S
C149 H176 0.980 . S
C149 H177 0.983 . S
C150 H126 0.948 . S
C150 C151 1.391 . S
C150 C155 1.391 . S
C151 C150 1.391 . S
C151 C152 1.391 . S
C152 H129 0.947 . S
C152 C151 1.391 . S
C152 C153 1.392 . S
C153 H130 0.948 . S
C153 C152 1.392 . S
C153 C154 1.419 . S
C154 C153 1.419 . S
C154 C155 1.391 . S
C154 C158 1.397 . S
C155 C150 1.391 . S
C155 C154 1.391 . S
C155 C156 1.399 . S
C156 C155 1.399 . S
C156 C157 1.396 . S
C156 C159 1.453 . S
C156 C160 1.684 . S
C157 C147 1.723 1_565 S
C157 C156 1.396 . S
C157 C158 1.394 . S
C158 C128 1.723 1_565 S
C158 C154 1.397 . S
C158 C157 1.394 . S
C159 H131 0.982 . S
C159 H135 0.979 . S
C159 H136 0.977 . S
C159 C156 1.453 . S
C160 H132 0.979 . S
C160 H133 0.980 . S
C160 H134 0.983 . S
C160 C156 1.684 . S
H161 C179 0.948 . S
H162 C120 0.948 . S
H163 C138 0.979 . S
H164 C138 0.980 . S
H165 C138 0.983 . S
H166 C137 0.982 . S
H167 C137 0.979 . S
H168 C137 0.977 . S
H169 C139 0.948 . S
H170 C141 0.947 . S
H171 C142 0.948 . S
H172 C148 0.982 . S
H173 C148 0.979 . S
H174 C148 0.977 . S
H175 C149 0.979 . S
H176 C149 0.980 . S
H177 C149 0.983 . S
H178 C122 0.947 . S
C179 C122 1.392 . S
C179 C123 1.419 . S
C179 H161 0.948 . S
C180 C181 1.391 . S
C180 C184 1.391 . S
C180 H222 0.948 . S
C181 C180 1.391 . S
C181 C182 1.391 . S
C182 C181 1.391 . S
C182 H238 0.947 . S
C182 C239 1.392 . S
C183 C184 1.391 . S
C183 C187 1.397 . S
C183 C239 1.419 . S
C184 C180 1.391 . S
C184 C183 1.391 . S
C184 C185 1.399 . S
C185 C184 1.399 . S
C185 C188 1.396 . S
C185 C197 1.453 . S
C185 C198 1.684 . S
H186 C210 0.948 . S
C187 C183 1.397 . S
C187 C188 1.394 . S
C187 C206 1.723 . S
C188 C185 1.396 . S
C188 C187 1.394 . S
C188 C218 1.723 . S
H189 C212 0.947 . S
H190 C213 0.948 . S
H191 C219 0.982 . S
H192 C220 0.979 . S
H193 C220 0.980 . S
H194 C220 0.983 . S
H195 C219 0.979 . S
H196 C219 0.977 . S
C197 C185 1.453 . S
C197 H226 0.982 . S
C197 H227 0.979 . S
C197 H228 0.977 . S
C198 C185 1.684 . S
C198 H223 0.979 . S
C198 H224 0.980 . S
C198 H225 0.983 . S
C199 C200 1.391 . S
C199 C204 1.391 . S
C199 H229 0.948 . S
C200 C199 1.391 . S
C200 C201 1.391 . S
C201 C200 1.391 . S
C201 C202 1.392 . S
C201 H230 0.947 . S
C202 C201 1.392 . S
C202 C203 1.419 . S
C202 H231 0.948 . S
C203 C202 1.419 . S
C203 C204 1.391 . S
C203 C207 1.397 . S
C204 C199 1.391 . S
C204 C203 1.391 . S
C204 C205 1.399 . S
C205 C204 1.399 . S
C205 C206 1.396 . S
C205 C208 1.453 . S
C205 C209 1.684 . S
C206 C187 1.723 . S
C206 C205 1.396 . S
C206 C207 1.394 . S
C207 C203 1.397 . S
C207 C206 1.394 . S
C207 C217 1.723 . S
C208 C205 1.453 . S
C208 H232 0.982 . S
C208 H233 0.979 . S
C208 H234 0.977 . S
C209 C205 1.684 . S
C209 H235 0.979 . S
C209 H236 0.980 . S
C209 H237 0.983 . S
C210 H186 0.948 . S
C210 C211 1.391 . S
C210 C215 1.391 . S
C211 C210 1.391 . S
C211 C212 1.391 . S
C212 H189 0.947 . S
C212 C211 1.391 . S
C212 C213 1.392 . S
C213 H190 0.948 . S
C213 C212 1.392 . S
C213 C214 1.419 . S
C214 C213 1.419 . S
C214 C215 1.391 . S
C214 C218 1.397 . S
C215 C210 1.391 . S
C215 C214 1.391 . S
C215 C216 1.399 . S
C216 C215 1.399 . S
C216 C217 1.396 . S
C216 C219 1.453 . S
C216 C220 1.684 . S
C217 C207 1.723 . S
C217 C216 1.396 . S
C217 C218 1.394 . S
C218 C188 1.723 . S
C218 C214 1.397 . S
C218 C217 1.394 . S
C219 H191 0.982 . S
C219 H195 0.979 . S
C219 H196 0.977 . S
C219 C216 1.453 . S
C220 H192 0.979 . S
C220 H193 0.980 . S
C220 H194 0.983 . S
C220 C216 1.684 . S
H221 C239 0.948 . S
H222 C180 0.948 . S
H223 C198 0.979 . S
H224 C198 0.980 . S
H225 C198 0.983 . S
H226 C197 0.982 . S
H227 C197 0.979 . S
H228 C197 0.977 . S
H229 C199 0.948 . S
H230 C201 0.947 . S
H231 C202 0.948 . S
H232 C208 0.982 . S
H233 C208 0.979 . S
H234 C208 0.977 . S
H235 C209 0.979 . S
H236 C209 0.980 . S
H237 C209 0.983 . S
H238 C182 0.947 . S
C239 C182 1.392 . S
C239 C183 1.419 . S
C239 H221 0.948 . S
C240 C241 1.391 . S
C240 C244 1.391 . S
C240 H282 0.948 . S
C241 C240 1.391 . S
C241 C242 1.391 . S
C242 C241 1.391 . S
C242 H298 0.947 . S
C242 C299 1.392 . S
C243 C244 1.391 . S
C243 C247 1.397 . S
C243 C299 1.419 . S
C244 C240 1.391 . S
C244 C243 1.391 . S
C244 C245 1.399 . S
C245 C244 1.399 . S
C245 C248 1.396 . S
C245 C257 1.453 . S
C245 C258 1.684 . S
H246 C270 0.948 . S
C247 C243 1.397 . S
C247 C248 1.394 . S
C247 C266 1.723 . S
C248 C245 1.396 . S
C248 C247 1.394 . S
C248 C278 1.723 . S
H249 C272 0.947 . S
H250 C273 0.948 1_455 S
H251 C279 0.982 . S
H252 C280 0.979 1_455 S
H253 C280 0.980 . S
H254 C280 0.983 . S
H255 C279 0.979 . S
H256 C279 0.977 . S
C257 C245 1.453 . S
C257 H286 0.982 . S
C257 H287 0.979 . S
C257 H288 0.977 . S
C258 C245 1.684 . S
C258 H283 0.979 . S
C258 H284 0.980 . S
C258 H285 0.983 . S
C259 C260 1.391 . S
C259 C264 1.396 . S
C259 H289 0.948 . S
C260 C259 1.391 . S
C260 C261 1.375 1_455 S
C261 C260 1.375 1_655 S
C261 C262 1.391 . S
C261 H290 0.962 . S
C262 C261 1.391 . S
C262 C263 1.401 1_654 S
C262 H291 0.968 1_554 S
C263 C262 1.401 1_456 S
C263 C264 1.389 1_556 S
C263 C267 1.397 . S
C264 C259 1.396 . S
C264 C263 1.389 1_554 S
C264 C265 1.396 1_554 S
C265 C264 1.396 1_556 S
C265 C266 1.396 . S
C265 C268 1.453 . S
C265 C269 1.684 . S
C266 C247 1.723 . S
C266 C265 1.396 . S
C266 C267 1.394 . S
C267 C263 1.397 . S
C267 C266 1.394 . S
C267 C277 1.723 1_455 S
C268 C265 1.453 . S
C268 H292 0.982 . S
C268 H293 0.979 . S
C268 H294 0.977 . S
C269 C265 1.684 . S
C269 H295 0.979 . S
C269 H296 0.980 . S
C269 H297 0.983 1_556 S
C270 H246 0.948 . S
C270 C271 1.391 . S
C270 C275 1.391 . S
C271 C270 1.391 . S
C271 C272 1.391 . S
C272 H249 0.947 . S
C272 C271 1.391 . S
C272 C273 1.392 . S
C273 H250 0.948 1_655 S
C273 C272 1.392 . S
C273 C274 1.419 . S
C274 C273 1.419 . S
C274 C275 1.391 . S
C274 C278 1.397 1_655 S
C275 C270 1.391 . S
C275 C274 1.391 . S
C275 C276 1.399 . S
C276 C275 1.399 . S
C276 C277 1.396 . S
C276 C279 1.453 . S
C276 C280 1.684 . S
C277 C267 1.723 1_655 S
C277 C276 1.396 . S
C277 C278 1.394 1_655 S
C278 C248 1.723 . S
C278 C274 1.397 1_455 S
C278 C277 1.394 1_455 S
C279 H251 0.982 . S
C279 H255 0.979 . S
C279 H256 0.977 . S
C279 C276 1.453 . S
C280 H252 0.979 1_655 S
C280 H253 0.980 . S
C280 H254 0.983 . S
C280 C276 1.684 . S
H281 C299 0.948 . S
H282 C240 0.948 . S
H283 C258 0.979 . S
H284 C258 0.980 . S
H285 C258 0.983 . S
H286 C257 0.982 . S
H287 C257 0.979 . S
H288 C257 0.977 . S
H289 C259 0.948 . S
H290 C261 0.962 . S
H291 C262 0.968 1_556 S
H292 C268 0.982 . S
H293 C268 0.979 . S
H294 C268 0.977 . S
H295 C269 0.979 . S
H296 C269 0.980 . S
H297 C269 0.983 1_554 S
H298 C242 0.947 . S
C299 C242 1.392 . S
C299 C243 1.419 . S
C299 H281 0.948 . S
C300 C301 1.391 . S
C300 C304 1.391 . S
C300 H342 0.948 . S
C301 C300 1.391 . S
C301 C302 1.391 . S
C302 C301 1.391 . S
C302 H358 0.947 . S
C302 C359 1.392 . S
C303 C304 1.391 . S
C303 C307 1.397 . S
C303 C359 1.419 . S
C304 C300 1.391 . S
C304 C303 1.391 . S
C304 C305 1.399 . S
C305 C304 1.399 . S
C305 C308 1.396 . S
C305 C317 1.453 . S
C305 C318 1.684 . S
H306 C330 0.948 . S
C307 C303 1.397 . S
C307 C308 1.394 . S
C307 C326 1.723 . S
C308 C305 1.396 . S
C308 C307 1.394 . S
C308 C338 1.723 1_655 S
H309 C332 0.947 . S
H310 C333 0.948 . S
H311 C339 0.982 . S
H312 C340 0.979 . S
H313 C340 0.980 . S
H314 C340 0.983 . S
H315 C339 0.979 . S
H316 C339 0.977 . S
C317 C305 1.453 . S
C317 H346 0.982 1_655 S
C317 H347 0.979 . S
C317 H348 0.977 1_655 S
C318 C305 1.684 . S
C318 H343 0.979 . S
C318 H344 0.980 . S
C318 H345 0.983 . S
C319 C320 1.391 1_655 S
C319 C324 1.391 . S
C319 H349 0.948 . S
C320 C319 1.391 1_455 S
C320 C321 1.391 . S
C321 C320 1.391 . S
C321 C322 1.392 . S
C321 H350 0.947 . S
C322 C321 1.392 . S
C322 C323 1.419 . S
C322 H351 0.948 . S
C323 C322 1.419 . S
C323 C324 1.391 1_455 S
C323 C327 1.397 . S
C324 C319 1.391 . S
C324 C323 1.391 1_655 S
C324 C325 1.399 . S
C325 C324 1.399 . S
C325 C326 1.396 . S
C325 C328 1.453 . S
C325 C329 1.684 . S
C326 C307 1.723 . S
C326 C325 1.396 . S
C326 C327 1.394 1_655 S
C327 C323 1.397 . S
C327 C326 1.394 1_455 S
C327 C337 1.723 . S
C328 C325 1.453 . S
C328 H352 0.982 . S
C328 H353 0.979 . S
C328 H354 0.977 . S
C329 C325 1.684 . S
C329 H355 0.979 . S
C329 H356 0.980 . S
C329 H357 0.983 . S
C330 H306 0.948 . S
C330 C331 1.391 . S
C330 C335 1.391 . S
C331 C330 1.391 . S
C331 C332 1.391 . S
C332 H309 0.947 . S
C332 C331 1.391 . S
C332 C333 1.392 . S
C333 H310 0.948 . S
C333 C332 1.392 . S
C333 C334 1.419 . S
C334 C333 1.419 . S
C334 C335 1.391 . S
C334 C338 1.397 . S
C335 C330 1.391 . S
C335 C334 1.391 . S
C335 C336 1.399 . S
C336 C335 1.399 . S
C336 C337 1.396 . S
C336 C339 1.453 . S
C336 C340 1.684 . S
C337 C327 1.723 . S
C337 C336 1.396 . S
C337 C338 1.394 . S
C338 C308 1.723 1_455 S
C338 C334 1.397 . S
C338 C337 1.394 . S
C339 H311 0.982 . S
C339 H315 0.979 . S
C339 H316 0.977 . S
C339 C336 1.453 . S
C340 H312 0.979 . S
C340 H313 0.980 . S
C340 H314 0.983 . S
C340 C336 1.684 . S
H341 C359 0.948 . S
H342 C300 0.948 . S
H343 C318 0.979 . S
H344 C318 0.980 . S
H345 C318 0.983 . S
H346 C317 0.982 1_455 S
H347 C317 0.979 . S
H348 C317 0.977 1_455 S
H349 C319 0.948 . S
H350 C321 0.947 . S
H351 C322 0.948 . S
H352 C328 0.982 . S
H353 C328 0.979 . S
H354 C328 0.977 . S
H355 C329 0.979 . S
H356 C329 0.980 . S
H357 C329 0.983 . S
H358 C302 0.947 . S
C359 C302 1.392 . S
C359 C303 1.419 . S
C359 H341 0.948 . S
C360 C361 1.391 . S
C360 C364 1.391 . S
C360 H402 0.948 . S
C361 C360 1.391 . S
C361 C362 1.391 . S
C362 C361 1.391 . S
C362 H418 0.947 . S
C362 C419 1.392 . S
C363 C364 1.391 . S
C363 C367 1.397 . S
C363 C419 1.419 . S
C364 C360 1.391 . S
C364 C363 1.391 . S
C364 C365 1.399 . S
C365 C364 1.399 . S
C365 C368 1.396 . S
C365 C377 1.453 1_565 S
C365 C378 1.684 . S
H366 C390 0.948 . S
C367 C363 1.397 . S
C367 C368 1.394 . S
C367 C386 1.723 . S
C368 C365 1.396 . S
C368 C367 1.394 . S
C368 C398 1.723 1_565 S
H369 C392 0.947 . S
H370 C393 0.948 . S
H371 C399 0.982 . S
H372 C400 0.979 . S
H373 C400 0.980 . S
H374 C400 0.983 . S
H375 C399 0.979 . S
H376 C399 0.977 . S
C377 C365 1.453 1_545 S
C377 H406 0.982 . S
C377 H407 0.992 . S
C377 H408 0.977 . S
C378 C365 1.684 . S
C378 H403 0.979 . S
C378 H404 0.980 . S
C378 H405 0.983 . S
C379 C380 1.391 . S
C379 C384 1.391 . S
C379 H409 0.948 . S
C380 C379 1.391 . S
C380 C381 1.391 1_565 S
C381 C380 1.391 1_545 S
C381 C382 1.392 . S
C381 H410 0.947 . S
C382 C381 1.392 . S
C382 C383 1.419 . S
C382 H411 0.948 . S
C383 C382 1.419 . S
C383 C384 1.391 1_545 S
C383 C387 1.397 . S
C384 C379 1.391 . S
C384 C383 1.391 1_565 S
C384 C385 1.399 . S
C385 C384 1.399 . S
C385 C386 1.396 . S
C385 C388 1.453 . S
C385 C389 1.684 . S
C386 C367 1.723 . S
C386 C385 1.396 . S
C386 C387 1.394 1_565 S
C387 C383 1.397 . S
C387 C386 1.394 1_545 S
C387 C397 1.723 . S
C388 C385 1.453 . S
C388 H412 0.982 . S
C388 H413 0.979 . S
C388 H414 0.977 . S
C389 C385 1.684 . S
C389 H415 0.979 . S
C389 H416 0.980 . S
C389 H417 0.983 . S
C390 H366 0.948 . S
C390 C391 1.391 . S
C390 C395 1.391 . S
C391 C390 1.391 . S
C391 C392 1.391 . S
C392 H369 0.947 . S
C392 C391 1.391 . S
C392 C393 1.392 . S
C393 H370 0.948 . S
C393 C392 1.392 . S
C393 C394 1.419 . S
C394 C393 1.419 . S
C394 C395 1.391 . S
C394 C398 1.397 . S
C395 C390 1.391 . S
C395 C394 1.391 . S
C395 C396 1.399 . S
C396 C395 1.399 . S
C396 C397 1.396 . S
C396 C399 1.453 . S
C396 C400 1.684 . S
C397 C387 1.723 . S
C397 C396 1.396 . S
C397 C398 1.394 . S
C398 C368 1.723 1_545 S
C398 C394 1.397 . S
C398 C397 1.394 . S
C399 H371 0.982 . S
C399 H375 0.979 . S
C399 H376 0.977 . S
C399 C396 1.453 . S
C400 H372 0.979 . S
C400 H373 0.980 . S
C400 H374 0.983 . S
C400 C396 1.684 . S
H401 C419 0.948 . S
H402 C360 0.948 . S
H403 C378 0.979 . S
H404 C378 0.980 . S
H405 C378 0.983 . S
H406 C377 0.982 . S
H407 C377 0.992 . S
H408 C377 0.977 . S
H409 C379 0.948 . S
H410 C381 0.947 . S
H411 C382 0.948 . S
H412 C388 0.982 . S
H413 C388 0.979 . S
H414 C388 0.977 . S
H415 C389 0.979 . S
H416 C389 0.980 . S
H417 C389 0.983 . S
H418 C362 0.947 . S
C419 C362 1.392 . S
C419 C363 1.419 . S
C419 H401 0.948 . S
C420 C421 1.391 . S
C420 C424 1.391 . S
C420 H462 0.948 . S
C421 C420 1.391 . S
C421 C422 1.391 . S
C422 C421 1.391 . S
C422 H478 0.947 . S
C422 C479 1.392 . S
C423 C424 1.391 . S
C423 C427 1.397 . S
C423 C479 1.419 . S
C424 C420 1.391 . S
C424 C423 1.391 . S
C424 C425 1.399 . S
C425 C424 1.399 . S
C425 C428 1.396 . S
C425 C437 1.453 . S
C425 C438 1.684 . S
H426 C450 0.948 . S
C427 C423 1.397 . S
C427 C428 1.394 . S
C427 C446 1.723 . S
C428 C425 1.396 . S
C428 C427 1.394 . S
C428 C458 1.723 . S
H429 C452 0.947 . S
H430 C453 0.948 . S
H431 C459 0.982 . S
H432 C460 0.979 . S
H433 C460 0.980 . S
H434 C460 0.983 . S
H435 C459 0.979 . S
H436 C459 0.977 . S
C437 C425 1.453 . S
C437 H466 0.982 . S
C437 H467 0.979 . S
C437 H468 0.977 . S
C438 C425 1.684 . S
C438 H463 0.979 . S
C438 H464 0.980 . S
C438 H465 0.983 . S
C439 C440 1.391 . S
C439 C444 1.391 . S
C439 H469 0.948 . S
C440 C439 1.391 . S
C440 C441 1.391 . S
C441 C440 1.391 . S
C441 C442 1.392 . S
C441 H470 0.947 . S
C442 C441 1.392 . S
C442 C443 1.419 . S
C442 H471 0.948 . S
C443 C442 1.419 . S
C443 C444 1.391 . S
C443 C447 1.397 1_556 S
C444 C439 1.391 . S
C444 C443 1.391 . S
C444 C445 1.399 1_556 S
C445 C444 1.399 1_554 S
C445 C446 1.396 . S
C445 C448 1.453 . S
C445 C449 1.684 1_554 S
C446 C427 1.723 . S
C446 C445 1.396 . S
C446 C447 1.394 . S
C447 C443 1.397 1_554 S
C447 C446 1.394 . S
C447 C457 1.723 . S
C448 C445 1.453 . S
C448 H472 0.982 . S
C448 H473 0.979 1_554 S
C448 H474 0.977 . S
C449 C445 1.684 1_556 S
C449 H475 0.979 . S
C449 H476 0.980 1_556 S
C449 H477 0.983 . S
C450 H426 0.948 . S
C450 C451 1.391 . S
C450 C455 1.391 . S
C451 C450 1.391 . S
C451 C452 1.391 . S
C452 H429 0.947 . S
C452 C451 1.391 . S
C452 C453 1.392 . S
C453 H430 0.948 . S
C453 C452 1.392 . S
C453 C454 1.419 . S
C454 C453 1.419 . S
C454 C455 1.391 . S
C454 C458 1.397 . S
C455 C450 1.391 . S
C455 C454 1.391 . S
C455 C456 1.399 . S
C456 C455 1.399 . S
C456 C457 1.396 . S
C456 C459 1.453 . S
C456 C460 1.684 . S
C457 C447 1.723 . S
C457 C456 1.396 . S
C457 C458 1.394 . S
C458 C428 1.723 . S
C458 C454 1.397 . S
C458 C457 1.394 . S
C459 H431 0.982 . S
C459 H435 0.979 . S
C459 H436 0.977 . S
C459 C456 1.453 . S
C460 H432 0.979 . S
C460 H433 0.980 . S
C460 H434 0.983 . S
C460 C456 1.684 . S
H461 C479 0.948 . S
H462 C420 0.948 . S
H463 C438 0.979 . S
H464 C438 0.980 . S
H465 C438 0.983 . S
H466 C437 0.982 . S
H467 C437 0.979 . S
H468 C437 0.977 . S
H469 C439 0.948 . S
H470 C441 0.947 . S
H471 C442 0.948 . S
H472 C448 0.982 . S
H473 C448 0.979 1_556 S
H474 C448 0.977 . S
H475 C449 0.979 . S
H476 C449 0.980 1_554 S
H477 C449 0.983 . S
H478 C422 0.947 . S
C479 C422 1.392 . S
C479 C423 1.419 . S
C479 H461 0.948 . S
C6 C451 3.331 . S
C59 C301 2.616 . S
C86 C361 2.658 . S
C15 C421 2.027 . S
C331 C50 3.391 . S
C391 C95 1.519 . S
C46 C181 1.797 . S
C99 C271 5.094 . S
C10 C151 3.550 . S
C211 C55 1.674 . S
C241 C90 4.773 . S
C19 C121 2.647 . S
C260 C18 1.978 . S
C49 C140 1.150 . S
C98 C200 1.329 . S
C380 C58 1.367 1_565 S
C440 C89 1.746 . S
C9 C320 1.153 . S
