# Generated by pormake.
# Topology ptr, (4,4)-cn, num edge types: 1
# Building blocks:
#     Node 0, Type 0, BuildingBlock: AZAVOO_clean_sbu_0, # of connection points: 4
#     Node 1, Type 0, BuildingBlock: AZAVOO_clean_sbu_0, # of connection points: 4
#     Node 2, Type 0, BuildingBlock: AZAVOO_clean_sbu_0, # of connection points: 4
#     Node 3, Type 0, BuildingBlock: AZAVOO_clean_sbu_0, # of connection points: 4
#     Node 4, Type 0, BuildingBlock: AZAVOO_clean_sbu_0, # of connection points: 4
#     Node 5, Type 0, BuildingBlock: AZAVOO_clean_sbu_0, # of connection points: 4
#     Node 6, Type 0, BuildingBlock: AZAVOO_clean_sbu_0, # of connection points: 4
#     Node 7, Type 0, BuildingBlock: AZAVOO_clean_sbu_0, # of connection points: 4
#     Node 8, Type 0, BuildingBlock: AZAVOO_clean_sbu_0, # of connection points: 4
#     Node 9, Type 0, BuildingBlock: AZAVOO_clean_sbu_0, # of connection points: 4
#     Node 10, Type 0, BuildingBlock: AZAVOO_clean_sbu_0, # of connection points: 4
#     Node 11, Type 0, BuildingBlock: AZAVOO_clean_sbu_0, # of connection points: 4
#     Node 12, Type 0, BuildingBlock: AZAVOO_clean_sbu_0, # of connection points: 4
#     Node 13, Type 0, BuildingBlock: AZAVOO_clean_sbu_0, # of connection points: 4
#     Node 14, Type 0, BuildingBlock: AZAVOO_clean_sbu_0, # of connection points: 4
#     Node 15, Type 0, BuildingBlock: AZAVOO_clean_sbu_0, # of connection points: 4
#     Node 16, Type 0, BuildingBlock: AZAVOO_clean_sbu_0, # of connection points: 4
#     Node 17, Type 0, BuildingBlock: AZAVOO_clean_sbu_0, # of connection points: 4
#     Node 18, Type 1, BuildingBlock: KUFVIS_clean_linker_0, # of connection points: 4
#     Node 19, Type 1, BuildingBlock: KUFVIS_clean_linker_0, # of connection points: 4
#     Node 20, Type 1, BuildingBlock: KUFVIS_clean_linker_0, # of connection points: 4
#     Node 21, Type 1, BuildingBlock: KUFVIS_clean_linker_0, # of connection points: 4
#     Node 22, Type 1, BuildingBlock: KUFVIS_clean_linker_0, # of connection points: 4
#     Node 23, Type 1, BuildingBlock: KUFVIS_clean_linker_0, # of connection points: 4
#     Node 24, Type 1, BuildingBlock: KUFVIS_clean_linker_0, # of connection points: 4
#     Node 25, Type 1, BuildingBlock: KUFVIS_clean_linker_0, # of connection points: 4
#     Node 26, Type 1, BuildingBlock: KUFVIS_clean_linker_0, # of connection points: 4
#     Node 27, Type 1, BuildingBlock: KUFVIS_clean_linker_0, # of connection points: 4
#     Node 28, Type 1, BuildingBlock: KUFVIS_clean_linker_0, # of connection points: 4
#     Node 29, Type 1, BuildingBlock: KUFVIS_clean_linker_0, # of connection points: 4
#     Node 30, Type 1, BuildingBlock: KUFVIS_clean_linker_0, # of connection points: 4
#     Node 31, Type 1, BuildingBlock: KUFVIS_clean_linker_0, # of connection points: 4
#     Node 32, Type 1, BuildingBlock: KUFVIS_clean_linker_0, # of connection points: 4
#     Node 33, Type 1, BuildingBlock: KUFVIS_clean_linker_0, # of connection points: 4
#     Node 34, Type 1, BuildingBlock: KUFVIS_clean_linker_0, # of connection points: 4
#     Node 35, Type 1, BuildingBlock: KUFVIS_clean_linker_0, # of connection points: 4
#     Edge 36, Type (0, 1), BuildingBlock: UVAHIK_clean_linker_0, # of connection points: 2
#     Edge 37, Type (0, 1), BuildingBlock: UVAHIK_clean_linker_0, # of connection points: 2
#     Edge 38, Type (0, 1), BuildingBlock: UVAHIK_clean_linker_0, # of connection points: 2
#     Edge 39, Type (0, 1), BuildingBlock: UVAHIK_clean_linker_0, # of connection points: 2
#     Edge 40, Type (0, 1), BuildingBlock: UVAHIK_clean_linker_0, # of connection points: 2
#     Edge 41, Type (0, 1), BuildingBlock: UVAHIK_clean_linker_0, # of connection points: 2
#     Edge 42, Type (0, 1), BuildingBlock: UVAHIK_clean_linker_0, # of connection points: 2
#     Edge 43, Type (0, 1), BuildingBlock: UVAHIK_clean_linker_0, # of connection points: 2
#     Edge 44, Type (0, 1), BuildingBlock: UVAHIK_clean_linker_0, # of connection points: 2
#     Edge 45, Type (0, 1), BuildingBlock: UVAHIK_clean_linker_0, # of connection points: 2
#     Edge 46, Type (0, 1), BuildingBlock: UVAHIK_clean_linker_0, # of connection points: 2
#     Edge 47, Type (0, 1), BuildingBlock: UVAHIK_clean_linker_0, # of connection points: 2
#     Edge 48, Type (0, 1), BuildingBlock: UVAHIK_clean_linker_0, # of connection points: 2
#     Edge 49, Type (0, 1), BuildingBlock: UVAHIK_clean_linker_0, # of connection points: 2
#     Edge 50, Type (0, 1), BuildingBlock: UVAHIK_clean_linker_0, # of connection points: 2
#     Edge 51, Type (0, 1), BuildingBlock: UVAHIK_clean_linker_0, # of connection points: 2
#     Edge 52, Type (0, 1), BuildingBlock: UVAHIK_clean_linker_0, # of connection points: 2
#     Edge 53, Type (0, 1), BuildingBlock: UVAHIK_clean_linker_0, # of connection points: 2
#     Edge 54, Type (0, 1), BuildingBlock: UVAHIK_clean_linker_0, # of connection points: 2
#     Edge 55, Type (0, 1), BuildingBlock: UVAHIK_clean_linker_0, # of connection points: 2
#     Edge 56, Type (0, 1), BuildingBlock: UVAHIK_clean_linker_0, # of connection points: 2
#     Edge 57, Type (0, 1), BuildingBlock: UVAHIK_clean_linker_0, # of connection points: 2
#     Edge 58, Type (0, 1), BuildingBlock: UVAHIK_clean_linker_0, # of connection points: 2
#     Edge 59, Type (0, 1), BuildingBlock: UVAHIK_clean_linker_0, # of connection points: 2
#     Edge 60, Type (0, 1), BuildingBlock: UVAHIK_clean_linker_0, # of connection points: 2
#     Edge 61, Type (0, 1), BuildingBlock: UVAHIK_clean_linker_0, # of connection points: 2
#     Edge 62, Type (0, 1), BuildingBlock: UVAHIK_clean_linker_0, # of connection points: 2
#     Edge 63, Type (0, 1), BuildingBlock: UVAHIK_clean_linker_0, # of connection points: 2
#     Edge 64, Type (0, 1), BuildingBlock: UVAHIK_clean_linker_0, # of connection points: 2
#     Edge 65, Type (0, 1), BuildingBlock: UVAHIK_clean_linker_0, # of connection points: 2
#     Edge 66, Type (0, 1), BuildingBlock: UVAHIK_clean_linker_0, # of connection points: 2
#     Edge 67, Type (0, 1), BuildingBlock: UVAHIK_clean_linker_0, # of connection points: 2
#     Edge 68, Type (0, 1), BuildingBlock: UVAHIK_clean_linker_0, # of connection points: 2
#     Edge 69, Type (0, 1), BuildingBlock: UVAHIK_clean_linker_0, # of connection points: 2
#     Edge 70, Type (0, 1), BuildingBlock: UVAHIK_clean_linker_0, # of connection points: 2
#     Edge 71, Type (0, 1), BuildingBlock: UVAHIK_clean_linker_0, # of connection points: 2
#     Edge 72, Type (0, 1), BuildingBlock: UVAHIK_clean_linker_0, # of connection points: 2
#     Edge 73, Type (0, 1), BuildingBlock: UVAHIK_clean_linker_0, # of connection points: 2
#     Edge 74, Type (0, 1), BuildingBlock: UVAHIK_clean_linker_0, # of connection points: 2
#     Edge 75, Type (0, 1), BuildingBlock: UVAHIK_clean_linker_0, # of connection points: 2
#     Edge 76, Type (0, 1), BuildingBlock: UVAHIK_clean_linker_0, # of connection points: 2
#     Edge 77, Type (0, 1), BuildingBlock: UVAHIK_clean_linker_0, # of connection points: 2
#     Edge 78, Type (0, 1), BuildingBlock: UVAHIK_clean_linker_0, # of connection points: 2
#     Edge 79, Type (0, 1), BuildingBlock: UVAHIK_clean_linker_0, # of connection points: 2
#     Edge 80, Type (0, 1), BuildingBlock: UVAHIK_clean_linker_0, # of connection points: 2
#     Edge 81, Type (0, 1), BuildingBlock: UVAHIK_clean_linker_0, # of connection points: 2
#     Edge 82, Type (0, 1), BuildingBlock: UVAHIK_clean_linker_0, # of connection points: 2
#     Edge 83, Type (0, 1), BuildingBlock: UVAHIK_clean_linker_0, # of connection points: 2
#     Edge 84, Type (0, 1), BuildingBlock: UVAHIK_clean_linker_0, # of connection points: 2
#     Edge 85, Type (0, 1), BuildingBlock: UVAHIK_clean_linker_0, # of connection points: 2
#     Edge 86, Type (0, 1), BuildingBlock: UVAHIK_clean_linker_0, # of connection points: 2
#     Edge 87, Type (0, 1), BuildingBlock: UVAHIK_clean_linker_0, # of connection points: 2
#     Edge 88, Type (0, 1), BuildingBlock: UVAHIK_clean_linker_0, # of connection points: 2
#     Edge 89, Type (0, 1), BuildingBlock: UVAHIK_clean_linker_0, # of connection points: 2
#     Edge 90, Type (0, 1), BuildingBlock: UVAHIK_clean_linker_0, # of connection points: 2
#     Edge 91, Type (0, 1), BuildingBlock: UVAHIK_clean_linker_0, # of connection points: 2
#     Edge 92, Type (0, 1), BuildingBlock: UVAHIK_clean_linker_0, # of connection points: 2
#     Edge 93, Type (0, 1), BuildingBlock: UVAHIK_clean_linker_0, # of connection points: 2
#     Edge 94, Type (0, 1), BuildingBlock: UVAHIK_clean_linker_0, # of connection points: 2
#     Edge 95, Type (0, 1), BuildingBlock: UVAHIK_clean_linker_0, # of connection points: 2
#     Edge 96, Type (0, 1), BuildingBlock: UVAHIK_clean_linker_0, # of connection points: 2
#     Edge 97, Type (0, 1), BuildingBlock: UVAHIK_clean_linker_0, # of connection points: 2
#     Edge 98, Type (0, 1), BuildingBlock: UVAHIK_clean_linker_0, # of connection points: 2
#     Edge 99, Type (0, 1), BuildingBlock: UVAHIK_clean_linker_0, # of connection points: 2
#     Edge 100, Type (0, 1), BuildingBlock: UVAHIK_clean_linker_0, # of connection points: 2
#     Edge 101, Type (0, 1), BuildingBlock: UVAHIK_clean_linker_0, # of connection points: 2
#     Edge 102, Type (0, 1), BuildingBlock: UVAHIK_clean_linker_0, # of connection points: 2
#     Edge 103, Type (0, 1), BuildingBlock: UVAHIK_clean_linker_0, # of connection points: 2
#     Edge 104, Type (0, 1), BuildingBlock: UVAHIK_clean_linker_0, # of connection points: 2
#     Edge 105, Type (0, 1), BuildingBlock: UVAHIK_clean_linker_0, # of connection points: 2
#     Edge 106, Type (0, 1), BuildingBlock: UVAHIK_clean_linker_0, # of connection points: 2
#     Edge 107, Type (0, 1), BuildingBlock: UVAHIK_clean_linker_0, # of connection points: 2
# Relax obj value: 0.078
# Max RMSD: 0.238
# Mean RMSD: 0.131
data_MOF--net-ptr--node1-AZAVOO_clean_sbu_0--node2-KUFVIS_clean_linker_0--edge1-UVAHIK_clean_linker_0
_symmetry_space_group_name_H-M    P1
_symmetry_Int_Tables_number       1
_symmetry_cell_setting            triclinic
loop_
_symmetry_equiv_pos_as_xyz
'x, y, z'
_cell_length_a     102.82391
_cell_length_b     101.28948
_cell_length_c     59.437033
_cell_angle_alpha  91.127793
_cell_angle_beta   91.189682
_cell_angle_gamma 120.07039
loop_
_atom_site_label
_atom_site_type_symbol
_atom_site_fract_x
_atom_site_fract_y
_atom_site_fract_z
_atom_type_partial_charge
Mg0 Mg 0.00848 0.35562 0.97666 0.0
O1 O 0.00361 0.36759 0.00628 0.0
O2 O 0.98332 0.36892 0.99546 0.0
Mg3 Mg 0.97499 0.35783 0.96069 0.0
C4 C 0.9938 0.37159 0.00987 0.0
C5 C 0.02789 0.34185 0.99252 0.0
O6 O 0.01958 0.33221 0.97611 0.0
O7 O 0.98882 0.33226 0.98572 0.0
O8 O 0.96917 0.33479 0.97525 0.0
O9 O 0.02248 0.3783 0.96159 0.0
O10 O 0.99813 0.36343 0.95428 0.0
C11 C 0.97466 0.32701 0.98353 0.0
C12 C 0.0102 0.37638 0.95203 0.0
O13 O 0.02553 0.35264 -0.00193 0.0
Mg14 Mg 0.64464 0.65271 0.04195 0.0
O15 O 0.62762 0.64244 0.01171 0.0
O16 O 0.60723 0.6434 0.02166 0.0
Mg17 Mg 0.61105 0.65445 0.05667 0.0
C18 C 0.61424 0.6398 0.00757 0.0
C19 C 0.66708 0.64388 0.0208 0.0
O20 O 0.65815 0.63109 0.03067 0.0
O21 O 0.6503 0.67681 0.0331 0.0
O22 O 0.6297 0.67713 0.04351 0.0
O23 O 0.63413 0.62961 0.05656 0.0
O24 O 0.62692 0.64643 0.06355 0.0
C25 C 0.64285 0.68371 0.03553 0.0
C26 C 0.6247 0.63283 0.0657 0.0
O27 O 0.66402 0.6546 0.02131 0.0
Mg28 Mg 0.36267 0.99885 0.97991 0.0
O29 O 0.38112 0.00601 0.00811 0.0
O30 O 0.40248 0.02378 0.9933 0.0
Mg31 Mg 0.3981 0.02794 0.95717 0.0
C32 C 0.39529 0.0155 0.00963 0.0
C33 C 0.33054 0.98227 0.99619 0.0
O34 O 0.32917 0.98774 0.97698 0.0
O35 O 0.36247 0.02105 0.98605 0.0
O36 O 0.38375 0.03788 0.97026 0.0
O37 O 0.36709 0.98076 0.96733 0.0
O38 O 0.37905 0.00453 0.95608 0.0
C39 C 0.3717 0.03463 0.98035 0.0
C40 C 0.3777 0.99116 0.95586 0.0
O41 O 0.34363 0.98587 0.00363 0.0
Mg42 Mg 0.99942 0.65421 0.03055 0.0
O43 O 0.00328 0.64213 -0.00028 0.0
O44 O 0.0227 0.63927 0.01036 0.0
Mg45 Mg 0.0317 0.64965 0.04538 0.0
C46 C 0.01244 0.6373 0.99596 0.0
C47 C 0.97047 0.65452 0.01896 0.0
O48 O 0.96736 0.64635 0.03703 0.0
O49 O 0.01983 0.67726 0.02273 0.0
O50 O 0.03884 0.67365 0.03282 0.0
O51 O 0.98439 0.6314 0.04446 0.0
O52 O 0.00882 0.64478 0.05203 0.0
C53 C 0.03388 0.68208 0.02527 0.0
C54 C 0.99626 0.63222 0.05382 0.0
O55 O 0.98335 0.65957 0.01059 0.0
Mg56 Mg 0.36273 0.35325 0.98427 0.0
O57 O 0.37844 0.36263 0.01611 0.0
O58 O 0.39954 0.36252 0.00772 0.0
Mg59 Mg 0.3976 0.3537 0.97156 0.0
C60 C 0.39167 0.36523 0.02139 0.0
C61 C 0.33487 0.35543 0.99585 0.0
O62 O 0.33992 0.36411 0.97834 0.0
O63 O 0.35748 0.32895 0.99034 0.0
O64 O 0.37895 0.32988 0.98155 0.0
O65 O 0.37286 0.377 0.9728 0.0
O66 O 0.38147 0.36147 0.96432 0.0
C67 C 0.3654 0.32257 0.98795 0.0
C68 C 0.38307 0.37492 0.96375 0.0
O69 O 0.34222 0.34938 0.00357 0.0
Mg70 Mg 0.64739 0.00333 0.03808 0.0
O71 O 0.63272 1.00086 0.00665 0.0
O72 O 0.61162 0.97827 0.00844 0.0
Mg73 Mg 0.61292 0.96619 0.03964 0.0
C74 C 0.61968 0.99086 -0.0012 0.0
C75 C 0.6807 0.02514 0.02821 0.0
O76 O 0.68163 0.01524 0.04112 0.0
O77 O 0.65383 0.98667 0.02302 0.0
O78 O 0.63274 0.96427 0.02599 0.0
O79 O 0.63577 0.01346 0.05678 0.0
O80 O 0.62823 0.98882 0.05523 0.0
C81 C 0.64649 0.97215 0.02065 0.0
C82 C 0.62576 0.99961 0.0613 0.0
O83 O 0.66782 0.02341 0.02336 0.0
Mg84 Mg 0.68006 0.6909 0.30915 0.0
O85 O 0.67503 0.70381 0.33729 0.0
O86 O 0.65693 0.70758 0.32257 0.0
Mg87 Mg 0.64932 0.69613 0.28776 0.0
C88 C 0.66626 0.70937 0.33849 0.0
C89 C 0.69631 0.67453 0.32839 0.0
O90 O 0.68799 0.66496 0.31192 0.0
O91 O 0.65886 0.66836 0.31665 0.0
O92 O 0.64094 0.67241 0.30242 0.0
O93 O 0.69654 0.71317 0.29524 0.0
O94 O 0.67241 0.70058 0.28513 0.0
C95 C 0.64503 0.66386 0.31211 0.0
C96 C 0.68536 0.71287 0.2844 0.0
O97 O 0.6949 0.68609 0.33279 0.0
Mg98 Mg 0.31515 0.98633 0.37148 0.0
O99 O 0.29871 0.9759 0.34056 0.0
O100 O 0.27777 0.97601 0.34977 0.0
Mg101 Mg 0.28048 0.98604 0.3853 0.0
C102 C 0.28528 0.97296 0.33588 0.0
C103 C 0.33703 0.97813 0.3476 0.0
O104 O 0.32664 0.96454 0.35359 0.0
O105 O 0.31991 0.0102 0.36356 0.0
O106 O 0.29884 0.00959 0.37381 0.0
O107 O 0.30592 0.96328 0.38515 0.0
O108 O 0.29675 0.97845 0.39239 0.0
C109 C 0.31212 0.0167 0.36631 0.0
C110 C 0.29562 0.96523 0.39409 0.0
O111 O 0.33518 0.98948 0.35143 0.0
Mg112 Mg 0.0281 0.33028 0.30797 0.0
O113 O 0.04696 0.33836 0.33571 0.0
O114 O 0.06823 0.35464 0.3191 0.0
Mg115 Mg 0.06335 0.35747 0.28255 0.0
C116 C 0.06122 0.34744 0.33632 0.0
C117 C 0.9991 0.30559 0.3249 0.0
O118 O 1.0013 0.30051 0.30568 0.0
O119 O 0.0286 0.35301 0.31185 0.0
O120 O 0.05001 0.36865 0.29518 0.0
O121 O 0.03253 0.31166 0.29731 0.0
O122 O 0.04364 0.33466 0.28329 0.0
C123 C 0.03822 0.36625 0.30535 0.0
C124 C 0.04247 0.32143 0.28428 0.0
O125 O 0.00908 0.31875 0.33249 0.0
Mg126 Mg 0.66595 0.98315 0.372 0.0
O127 O 0.66995 0.97005 0.34282 0.0
O128 O 0.68761 0.96531 0.3565 0.0
Mg129 Mg 0.69485 0.97475 0.39241 0.0
C130 C 0.67852 0.96431 0.34069 0.0
C131 C 0.63951 0.97958 0.34169 0.0
O132 O 0.63594 0.96533 0.34453 0.0
O133 O 0.68821 0.00503 0.36562 0.0
O134 O 0.7049 0.99921 0.3799 0.0
O135 O 0.64831 0.9611 0.38526 0.0
O136 O 0.67236 0.97189 0.39513 0.0
C137 C 0.70176 0.0086 0.37066 0.0
C138 C 0.65896 0.96029 0.39589 0.0
O139 O 0.65221 0.99017 0.34941 0.0
Mg140 Mg 0.02827 0.68684 0.31302 0.0
O141 O 0.04428 0.6972 0.34438 0.0
O142 O 0.06554 0.69757 0.33568 0.0
Mg143 Mg 0.06336 0.68793 0.29999 0.0
C144 C 0.05772 0.70032 0.34941 0.0
C145 C 1.00014 0.68843 0.32496 0.0
O146 O 0.00473 0.69686 0.30713 0.0
O147 O 0.02393 0.66315 0.32062 0.0
O148 O 0.0452 0.66405 0.31089 0.0
O149 O 0.0372 0.71001 0.3 0.0
O150 O 0.04689 0.69529 0.29267 0.0
C151 C 0.03184 0.65679 0.31808 0.0
C152 C 0.04773 0.70839 0.29113 0.0
O153 O 0.00784 0.68276 0.33261 0.0
Mg154 Mg 0.31172 0.33573 0.36769 0.0
O155 O 0.29593 0.33372 0.33793 0.0
O156 O 0.27367 0.31304 0.34381 0.0
Mg157 Mg 0.27516 0.30147 0.37535 0.0
C158 C 0.28209 0.32463 0.33234 0.0
C159 C 0.33707 0.36766 0.35214 0.0
O160 O 0.32906 0.37216 0.36346 0.0
O161 O 0.31443 0.31633 0.35286 0.0
O162 O 0.29199 0.29599 0.35886 0.0
O163 O 0.30342 0.34892 0.38729 0.0
O164 O 0.29331 0.32387 0.38771 0.0
C165 C 0.30531 0.30194 0.35162 0.0
C166 C 0.29276 0.33586 0.39362 0.0
O167 O 0.33249 0.35347 0.35 0.0
Mg168 Mg 0.34169 0.02197 0.6463 0.0
O169 O 0.33421 0.03172 0.67572 0.0
O170 O 0.31325 0.03122 0.66337 0.0
Mg171 Mg 0.30706 0.02112 0.62765 0.0
C172 C 0.32341 0.03437 0.67862 0.0
C173 C 0.36242 0.01 0.66303 0.0
O174 O 0.35507 1.00062 0.64586 0.0
O175 O 0.3231 0.99756 0.65306 0.0
O176 O 0.3027 0.99803 0.64054 0.0
O177 O 0.35473 0.04541 0.63334 0.0
O178 O 0.33103 0.02921 0.62342 0.0
C179 C 0.30891 0.991 0.64914 0.0
C180 C 0.34249 0.04279 0.62278 0.0
O181 O 0.35896 0.01999 0.66878 0.0
Mg182 Mg 0.98103 0.31319 0.71299 0.0
O183 O 0.96327 0.29956 0.68441 0.0
O184 O 0.94094 0.29234 0.69937 0.0
Mg185 Mg 0.94421 0.30259 0.73488 0.0
C186 C 0.94888 0.29234 0.68313 0.0
C187 C 0.01304 0.32638 0.70072 0.0
O188 O 0.01295 0.32758 0.72276 0.0
O189 O 0.97881 0.3342 0.70702 0.0
O190 O 0.95651 0.32709 0.72165 0.0
O191 O 0.9783 0.29137 0.72509 0.0
O192 O 0.965 0.30162 0.73701 0.0
C193 C 0.96839 0.33697 0.71218 0.0
C194 C 0.96727 0.2902 0.73666 0.0
O195 O 1.00062 0.32098 0.68959 0.0
Mg196 Mg 0.69282 0.65923 0.64279 0.0
O197 O 0.71085 0.66657 0.67164 0.0
O198 O 0.73269 0.68351 0.65689 0.0
Mg199 Mg 0.7288 0.68773 0.62057 0.0
C200 C 0.72511 0.67561 0.67326 0.0
C201 C 0.67085 0.63428 0.6738 0.0
O202 O 0.68058 0.62975 0.67013 0.0
O203 O 0.69296 0.68161 0.64783 0.0
O204 O 0.71468 0.69821 0.63284 0.0
O205 O 0.69711 0.64083 0.6311 0.0
O206 O 0.70949 0.66447 0.61949 0.0
C207 C 0.70247 0.69514 0.64233 0.0
C208 C 0.70794 0.65102 0.61973 0.0
O209 O 0.67336 0.64698 0.66627 0.0
Mg210 Mg 0.33036 0.31816 0.70007 0.0
O211 O 0.33795 0.30869 0.67007 0.0
O212 O 0.35802 0.308 0.68399 0.0
Mg213 Mg 0.36332 0.31643 0.72049 0.0
C214 C 0.34864 0.30573 0.66789 0.0
C215 C 0.30744 0.32747 0.69067 0.0
O216 O 0.31011 0.32876 0.71256 0.0
O217 O 0.35007 0.34226 0.69544 0.0
O218 O 0.36942 0.34036 0.7092 0.0
O219 O 0.31553 0.29447 0.71134 0.0
O220 O 0.33933 0.30886 0.72239 0.0
C221 C 0.36406 0.34813 0.70049 0.0
C222 C 0.32716 0.29575 0.72222 0.0
O223 O 0.31466 0.32307 0.67842 0.0
Mg224 Mg 0.69281 0.02473 0.63706 0.0
O225 O 0.71022 0.03812 0.66612 0.0
O226 O 0.7326 0.04355 0.65314 0.0
Mg227 Mg 0.72989 0.03439 0.61705 0.0
C228 C 0.7245 0.04414 0.6687 0.0
C229 C 0.6716 0.02784 0.66951 0.0
O230 O 0.68251 0.04203 0.66795 0.0
O231 O 0.69448 0.0035 0.64359 0.0
O232 O 0.71675 0.00979 0.6295 0.0
O233 O 0.69567 0.04633 0.62397 0.0
O234 O 0.70959 0.03635 0.61401 0.0
C235 C 0.70461 1.00025 0.63874 0.0
C236 C 0.70703 0.04758 0.61326 0.0
O237 O 0.67293 0.01726 0.65991 0.0
Mg238 Mg 0.98131 0.67554 0.70809 0.0
O239 O 0.96555 0.67177 0.67741 0.0
O240 O 0.94428 0.64978 0.68228 0.0
Mg241 Mg 0.94661 0.63912 0.71438 0.0
C242 C 0.95215 0.6617 0.67108 0.0
C243 C 0.01434 0.6984 0.69755 0.0
O244 O 0.01609 0.69033 0.71311 0.0
O245 O 0.98689 0.65789 0.69409 0.0
O246 O 0.96552 0.63615 0.69948 0.0
O247 O 0.97074 0.68696 0.72626 0.0
O248 O 0.96276 0.66226 0.72734 0.0
C249 C 0.97904 0.64334 0.69292 0.0
C250 C 0.96075 0.67351 0.73241 0.0
O251 O 1.0011 0.69487 0.69102 0.0
H252 H 0.22266 0.33983 0.12558 0.0
H253 H 0.18304 0.32558 0.08382 0.0
H254 H 0.18316 0.33592 0.15482 0.0
H255 H 0.1596 0.31458 0.14935 0.0
H256 H 0.12239 0.31343 0.11364 0.0
H257 H 0.16587 0.33557 0.08477 0.0
C258 C 0.2112 0.33761 0.12374 0.0
C259 C 0.20381 0.33853 0.14265 0.0
C260 C 0.20382 0.33307 0.1026 0.0
C261 C 0.1888 0.32954 0.10012 0.0
C262 C 0.18107 0.33034 0.11899 0.0
C263 C 0.1888 0.33504 0.14016 0.0
C264 C 0.16477 0.32545 0.11708 0.0
C265 C 0.15521 0.31743 0.13466 0.0
C266 C 0.13994 0.31308 0.13356 0.0
C267 C 0.13408 0.3163 0.11436 0.0
C268 C 0.1433 0.3243 0.09676 0.0
C269 C 0.15868 0.32899 0.09815 0.0
H270 H 0.68323 0.89661 0.1277 0.0
H271 H 0.69647 0.8677 0.09439 0.0
H272 H 0.68377 0.86072 0.16409 0.0
H273 H 0.699 0.85132 0.1658 0.0
H274 H 0.7016 0.81554 0.13043 0.0
H275 H 0.6878 0.84276 0.09427 0.0
C276 C 0.68511 0.887 0.12829 0.0
C277 C 0.68331 0.87937 0.14839 0.0
C278 C 0.68954 0.88254 0.10889 0.0
C279 C 0.69253 0.87051 0.10949 0.0
C280 C 0.69058 0.86238 0.12937 0.0
C281 C 0.68583 0.86693 0.14874 0.0
C282 C 0.69355 0.8493 0.1298 0.0
C283 C 0.6978 0.84516 0.1501 0.0
C284 C 0.70057 0.83293 0.15039 0.0
C285 C 0.6998 0.82522 0.13019 0.0
C286 C 0.69536 0.82887 0.10999 0.0
C287 C 0.69192 0.84063 0.10989 0.0
H288 H 0.22235 0.8878 0.12535 0.0
H289 H 0.18519 0.85097 0.0887 0.0
H290 H 0.18086 0.86162 0.15826 0.0
H291 H 0.16624 0.83666 0.1592 0.0
H292 H 0.12446 0.80592 0.12537 0.0
H293 H 0.16014 0.84012 0.08761 0.0
C294 C 0.21082 0.87842 0.12496 0.0
C295 C 0.20244 0.87528 0.1443 0.0
C296 C 0.20452 0.86991 0.10492 0.0
C297 C 0.18962 0.85778 0.10416 0.0
C298 C 0.18083 0.85428 0.12352 0.0
C299 C 0.18735 0.86357 0.14333 0.0
C300 C 0.16516 0.84079 0.12357 0.0
C301 C 0.15934 0.83328 0.14384 0.0
C302 C 0.14457 0.82112 0.14457 0.0
C303 C 0.13564 0.81585 0.12483 0.0
C304 C 0.14136 0.82233 0.10417 0.0
C305 C 0.15603 0.83497 0.1036 0.0
H306 H 0.33617 0.11784 0.88618 0.0
H307 H 0.33133 0.1524 0.92056 0.0
H308 H 0.31787 0.14121 0.84986 0.0
H309 H 0.3233 0.16486 0.84842 0.0
H310 H 0.31189 0.19483 0.88268 0.0
H311 H 0.31664 0.16184 0.92037 0.0
C312 C 0.33293 0.12651 0.88571 0.0
C313 C 0.32747 0.12909 0.86554 0.0
C314 C 0.33388 0.13462 0.90551 0.0
C315 C 0.32972 0.14583 0.90516 0.0
C316 C 0.32402 0.14869 0.88505 0.0
C317 C 0.32259 0.1398 0.86543 0.0
C318 C 0.32002 0.16111 0.88438 0.0
C319 C 0.32012 0.16808 0.86391 0.0
C320 C 0.31649 0.17969 0.86323 0.0
C321 C 0.31355 0.18507 0.88319 0.0
C322 C 0.31426 0.17909 0.90392 0.0
C323 C 0.31685 0.16673 0.9043 0.0
H324 H 0.78638 0.11871 0.88564 0.0
H325 H 0.82593 0.14644 0.92687 0.0
H326 H 0.82744 0.14911 0.85421 0.0
H327 H 0.85111 0.15545 0.86063 0.0
H328 H 0.8865 0.19554 0.89458 0.0
H329 H 0.84385 0.17127 0.92486 0.0
C330 C 0.79817 0.12742 0.88692 0.0
C331 C 0.80625 0.13306 0.86739 0.0
C332 C 0.80518 0.13246 0.90824 0.0
C333 C 0.82062 0.14307 0.91022 0.0
C334 C 0.829 0.14935 0.89081 0.0
C335 C 0.82155 0.14424 0.86943 0.0
C336 C 0.8453 0.16146 0.89271 0.0
C337 C 0.85503 0.16335 0.87502 0.0
C338 C 0.86983 0.17572 0.87534 0.0
C339 C 0.87527 0.18565 0.8943 0.0
C340 C 0.86604 0.18381 0.91227 0.0
C341 C 0.85105 0.17189 0.91141 0.0
H342 H 0.7877 0.68261 0.89607 0.0
H343 H 0.81739 0.67166 0.9321 0.0
H344 H 0.82648 0.68695 0.86383 0.0
H345 H 0.83287 0.66873 0.86207 0.0
H346 H 0.87087 0.66973 0.8943 0.0
H347 H 0.84388 0.68278 0.93257 0.0
C348 C 0.79804 0.68221 0.89669 0.0
C349 C 0.80649 0.6851 0.87737 0.0
C350 C 0.80215 0.6778 0.91657 0.0
C351 C 0.81474 0.67582 0.91704 0.0
C352 C 0.82361 0.6789 0.8979 0.0
C353 C 0.81956 0.684 0.87844 0.0
C354 C 0.83658 0.6761 0.89747 0.0
C355 C 0.83988 0.67105 0.87715 0.0
C356 C 0.85219 0.66879 0.87605 0.0
C357 C 0.8612 0.6713 0.8953 0.0
C358 C 0.85826 0.67628 0.91564 0.0
C359 C 0.8459 0.67862 0.91686 0.0
H360 H 0.89099 0.67346 0.46168 0.0
H361 H 0.85061 0.65833 0.42141 0.0
H362 H 0.8519 0.66954 0.49234 0.0
H363 H 0.82872 0.6484 0.48864 0.0
H364 H 0.78985 0.64404 0.45388 0.0
H365 H 0.83254 0.66682 0.42246 0.0
C366 C 0.87948 0.67114 0.46026 0.0
C367 C 0.87235 0.67212 0.47946 0.0
C368 C 0.87176 0.66636 0.43938 0.0
C369 C 0.85665 0.66259 0.43747 0.0
C370 C 0.84918 0.66345 0.45662 0.0
C371 C 0.8573 0.66854 0.47747 0.0
C372 C 0.83273 0.65801 0.45542 0.0
C373 C 0.82379 0.65042 0.47376 0.0
C374 C 0.80841 0.64545 0.47329 0.0
C375 C 0.80169 0.64747 0.454 0.0
C376 C 0.81029 0.65511 0.43565 0.0
C377 C 0.82585 0.66051 0.43641 0.0
H378 H 0.35331 0.2331 0.45815 0.0
H379 H 0.34676 0.192 0.42616 0.0
H380 H 0.3584 0.20089 0.49748 0.0
H381 H 0.34628 0.17577 0.49863 0.0
H382 H 0.34954 0.13957 0.46605 0.0
H383 H 0.35762 0.17824 0.42823 0.0
C384 C 0.35358 0.22256 0.4592 0.0
C385 C 0.35594 0.2179 0.48016 0.0
C386 C 0.35066 0.21342 0.43969 0.0
C387 C 0.3498 0.19921 0.44124 0.0
C388 C 0.35271 0.19439 0.46197 0.0
C389 C 0.35586 0.204 0.48137 0.0
C390 C 0.35221 0.17933 0.46332 0.0
C391 C 0.34881 0.17135 0.48366 0.0
C392 C 0.34809 0.15718 0.48466 0.0
C393 C 0.35047 0.15071 0.46537 0.0
C394 C 0.35363 0.15821 0.44507 0.0
C395 C 0.35475 0.17255 0.44408 0.0
H396 H 0.88574 0.22375 0.46718 0.0
H397 H 0.8474 0.19591 0.42324 0.0
H398 H 0.84625 0.18739 0.49457 0.0
H399 H 0.82261 0.18158 0.48916 0.0
H400 H 0.7868 0.14441 0.45142 0.0
H401 H 0.83007 0.16959 0.4222 0.0
C402 C 0.87438 0.21418 0.46466 0.0
C403 C 0.86663 0.206 0.48315 0.0
C404 C 0.86754 0.21057 0.44309 0.0
C405 C 0.85272 0.19834 0.4399 0.0
C406 C 0.84463 0.18987 0.45843 0.0
C407 C 0.85191 0.19378 0.48001 0.0
C408 C 0.82847 0.17753 0.45575 0.0
C409 C 0.81871 0.1747 0.47369 0.0
C410 C 0.80381 0.16271 0.47223 0.0
C411 C 0.79822 0.15402 0.4522 0.0
C412 C 0.80753 0.1565 0.43401 0.0
C413 C 0.82274 0.16814 0.43591 0.0
H414 H 0.01511 0.45955 0.21544 0.0
H415 H 0.00841 0.49225 0.25188 0.0
H416 H 0.99548 0.4823 0.18089 0.0
H417 H 0.99939 0.50548 0.18071 0.0
H418 H 0.98322 0.53095 0.21665 0.0
H419 H 0.99285 0.50055 0.25263 0.0
C420 C 0.0116 0.46803 0.21551 0.0
C421 C 0.00588 0.47066 0.19565 0.0
C422 C 0.01208 0.4755 0.23576 0.0
C423 C 0.00729 0.48624 0.2361 0.0
C424 C 1.00141 0.4892 0.21629 0.0
C425 C 1.00045 0.48092 0.19622 0.0
C426 C 0.99625 0.50075 0.21647 0.0
C427 C 0.99561 0.50776 0.1964 0.0
C428 C 0.99035 0.51812 0.19636 0.0
C429 C 0.98639 0.52221 0.21656 0.0
C430 C 0.98792 0.51633 0.23688 0.0
C431 C 0.99236 0.5053 0.23673 0.0
H432 H 0.4618 0.44349 0.22827 0.0
H433 H 0.4882 0.48619 0.26488 0.0
H434 H 0.4974 0.48093 0.19555 0.0
H435 H 0.50295 0.50514 0.19534 0.0
H436 H 0.53698 0.54539 0.23035 0.0
H437 H 0.51382 0.50378 0.26586 0.0
C438 C 0.47132 0.45504 0.22923 0.0
C439 C 0.47929 0.46128 0.20984 0.0
C440 C 0.47452 0.4639 0.24917 0.0
C441 C 0.48617 0.47924 0.24971 0.0
C442 C 0.49473 0.48567 0.23051 0.0
C443 C 0.49116 0.47643 0.21064 0.0
C444 C 0.50664 0.5022 0.23067 0.0
C445 C 0.50939 0.51051 0.21079 0.0
C446 C 0.52033 0.52599 0.21064 0.0
C447 C 0.52834 0.53343 0.23054 0.0
C448 C 0.52598 0.52553 0.25044 0.0
C449 C 0.51529 0.50987 0.25049 0.0
H450 H 0.45931 0.01422 0.22624 0.0
H451 H 0.48423 0.99713 0.26165 0.0
H452 H 0.49519 0.01252 0.19364 0.0
H453 H 0.49887 0.99274 0.1914 0.0
H454 H 0.53177 0.98523 0.22447 0.0
H455 H 0.50968 0.00421 0.26259 0.0
C456 C 0.46865 0.0121 0.22687 0.0
C457 C 0.47682 0.01385 0.20753 0.0
C458 C 0.47151 0.00644 0.24652 0.0
C459 C 0.48266 0.00227 0.2468 0.0
C460 C 0.49135 0.0043 0.22771 0.0
C461 C 0.48851 0.01051 0.20838 0.0
C462 C 0.5026 0.99904 0.22719 0.0
C463 C 0.5051 0.99345 0.20672 0.0
C464 C 0.51566 0.98861 0.20569 0.0
C465 C 0.52337 0.98871 0.22533 0.0
C466 C 0.52119 0.9942 0.24583 0.0
C467 C 0.51096 0.99956 0.24677 0.0
H468 H 0.56268 0.01936 0.79635 0.0
H469 H 0.52262 0.00511 0.75578 0.0
H470 H 0.52224 0.01042 0.82819 0.0
H471 H 0.49915 0.99075 0.8226 0.0
H472 H 0.46091 0.9882 0.78849 0.0
H473 H 0.50388 0.01174 0.75819 0.0
C474 C 0.551 0.01647 0.79513 0.0
C475 C 0.5432 0.01503 0.81476 0.0
C476 C 0.54369 0.01315 0.77393 0.0
C477 C 0.52828 0.00828 0.77221 0.0
C478 C 0.52024 0.00722 0.79173 0.0
C479 C 0.52798 0.01088 0.81291 0.0
C480 C 0.50372 1.00169 0.79028 0.0
C481 C 0.49451 0.99345 0.80807 0.0
C482 C 0.47918 0.98875 0.80758 0.0
C483 C 0.47272 0.99151 0.78867 0.0
C484 C 0.48154 0.99967 0.77083 0.0
C485 C 0.49707 0.00492 0.7717 0.0
H486 H 0.00971 0.56093 0.78649 0.0
H487 H 0.01039 0.52322 0.75393 0.0
H488 H 0.99906 0.52133 0.82409 0.0
H489 H 0.00935 0.50655 0.82599 0.0
H490 H 0.99466 0.46268 0.79493 0.0
H491 H 0.99553 0.49786 0.75515 0.0
C492 C 0.00834 0.54961 0.78738 0.0
C493 C 0.00446 0.542 0.80765 0.0
C494 C 0.01027 0.54276 0.76807 0.0
C495 C 0.00859 0.52817 0.76901 0.0
C496 C 0.00477 0.5202 0.7893 0.0
C497 C 0.00263 0.52731 0.80852 0.0
C498 C 0.00262 0.50443 0.79045 0.0
C499 C 0.0051 0.49912 0.81107 0.0
C500 C 1.00185 0.48401 0.81274 0.0
C501 C 0.99688 0.4743 0.79365 0.0
C502 C 0.99498 0.47938 0.77286 0.0
C503 C 0.99768 0.49436 0.77122 0.0
H504 H 0.54912 0.56055 0.79396 0.0
H505 H 0.51592 0.51962 0.75913 0.0
H506 H 0.51099 0.52804 0.82937 0.0
H507 H 0.50043 0.5027 0.82953 0.0
H508 H 0.46142 0.46632 0.79547 0.0
H509 H 0.49032 0.50631 0.75951 0.0
C510 C 0.53846 0.54992 0.79396 0.0
C511 C 0.53086 0.54506 0.81402 0.0
C512 C 0.53294 0.54094 0.77414 0.0
C513 C 0.51958 0.52682 0.77431 0.0
C514 C 0.51128 0.52194 0.79412 0.0
C515 C 0.51699 0.53142 0.81387 0.0
C516 C 0.49723 0.50669 0.79453 0.0
C517 C 0.4933 0.4983 0.81442 0.0
C518 C 0.4804 0.48382 0.81485 0.0
C519 C 0.47142 0.47754 0.79525 0.0
C520 C 0.47506 0.48557 0.77536 0.0
C521 C 0.48782 0.50016 0.77499 0.0
H522 H 0.67868 0.78944 0.5471 0.0
H523 H 0.66588 0.81658 0.58671 0.0
H524 H 0.66642 0.81883 0.51388 0.0
H525 H 0.65055 0.82682 0.51837 0.0
H526 H 0.65164 0.86436 0.55407 0.0
H527 H 0.67191 0.84095 0.58495 0.0
C528 C 0.67529 0.79799 0.54805 0.0
C529 C 0.67234 0.80335 0.52825 0.0
C530 C 0.67311 0.80289 0.56906 0.0
C531 C 0.66801 0.81339 0.5703 0.0
C532 C 0.66575 0.81967 0.55054 0.0
C533 C 0.6679 0.81436 0.52949 0.0
C534 C 0.66132 0.83173 0.55187 0.0
C535 C 0.65374 0.83398 0.53352 0.0
C536 C 0.65039 0.8458 0.53426 0.0
C537 C 0.6538 0.85492 0.55386 0.0
C538 C 0.66141 0.8531 0.57225 0.0
C539 C 0.66536 0.84168 0.57107 0.0
H540 H 0.11915 0.7876 0.56087 0.0
H541 H 0.15749 0.82458 0.59538 0.0
H542 H 0.16042 0.81181 0.52646 0.0
H543 H 0.17525 0.83714 0.5246 0.0
H544 H 0.21836 0.86625 0.55641 0.0
H545 H 0.18263 0.83349 0.59568 0.0
C546 C 0.13079 0.7967 0.56068 0.0
C547 C 0.13891 0.79897 0.54117 0.0
C548 C 0.13754 0.8057 0.58022 0.0
C549 C 0.15262 0.81741 0.58031 0.0
C550 C 0.16109 0.82005 0.56077 0.0
C551 C 0.15413 0.81039 0.54148 0.0
C552 C 0.17696 0.83302 0.56003 0.0
C553 C 0.18252 0.84032 0.53955 0.0
C554 C 0.19749 0.85195 0.53812 0.0
C555 C 0.20694 0.85679 0.55737 0.0
C556 C 0.2015 0.85048 0.5782 0.0
C557 C 0.18658 0.83848 0.57953 0.0
H558 H 0.12781 0.35832 0.55666 0.0
H559 H 0.1546 0.34471 0.59501 0.0
H560 H 0.16398 0.35653 0.52531 0.0
H561 H 0.16946 0.33819 0.52541 0.0
H562 H 0.20385 0.33415 0.56059 0.0
H563 H 0.1797 0.35187 0.59616 0.0
C564 C 0.13741 0.35663 0.55779 0.0
C565 C 0.14533 0.35761 0.53846 0.0
C566 C 0.14096 0.35239 0.57828 0.0
C567 C 0.1525 0.34877 0.5794 0.0
C568 C 0.16097 0.35007 0.5603 0.0
C569 C 0.15746 0.35495 0.54009 0.0
C570 C 0.17283 0.34557 0.56081 0.0
C571 C 0.17582 0.33978 0.54095 0.0
C572 C 0.18704 0.33583 0.54082 0.0
C573 C 0.19499 0.33701 0.56076 0.0
C574 C 0.19229 0.34263 0.58068 0.0
C575 C 0.18133 0.34707 0.58076 0.0
C576 C 0.98289 0.38263 0.0363 0.0
C577 C 0.9949 0.3804 0.03072 0.0
C578 C 0.98421 0.39212 0.05458 0.0
C579 C 0.01248 0.4248 0.08899 0.0
H580 H 0.97919 0.4145 0.12806 0.0
C581 C 0.0176 0.46053 0.16907 0.0
C582 C 0.00523 0.46212 0.17467 0.0
C583 C 0.01657 0.45105 0.15094 0.0
C584 C 0.98851 0.41764 0.11709 0.0
H585 H 0.0176 0.38607 0.04051 0.0
H586 H 0.0199 0.40267 0.07267 0.0
H587 H 0.97699 0.39615 0.09892 0.0
H588 H 0.98225 0.45548 0.16515 0.0
H589 H 0.98051 0.4391 0.13307 0.0
H590 H 0.02397 0.44633 0.1071 0.0
C591 C 0.0095 0.39714 0.06264 0.0
C592 C 0.98728 0.4071 0.10047 0.0
C593 C 0.00814 0.38754 0.04435 0.0
C594 C 0.99198 0.45453 0.16116 0.0
C595 C 0.99094 0.44501 0.14298 0.0
C596 C 0.0137 0.43537 0.1056 0.0
C597 C 0.9976 0.39967 0.06776 0.0
C598 C 0.99923 0.41057 0.08619 0.0
C599 C 0.00314 0.44295 0.13793 0.0
C600 C 1.00172 0.43193 0.11982 0.0
H601 H 0.97249 0.37728 0.02624 0.0
H602 H 0.9749 0.39392 0.05792 0.0
H603 H 0.02178 0.42792 0.07801 0.0
H604 H 0.02801 0.46636 0.17907 0.0
H605 H 0.02614 0.44966 0.14764 0.0
C606 C 0.60209 0.62522 0.0887 0.0
C607 C 0.61131 0.6211 0.07694 0.0
C608 C 0.58963 0.61428 0.09979 0.0
C609 C 0.56379 0.57276 0.10415 0.0
H610 H 0.55999 0.58416 0.16526 0.0
C611 C 0.53048 0.52964 0.17215 0.0
C612 C 0.52461 0.53441 0.18956 0.0
C613 C 0.53821 0.5395 0.15493 0.0
C614 C 0.56061 0.58084 0.14806 0.0
H615 H 0.61453 0.60221 0.06725 0.0
H616 H 0.59283 0.58308 0.08695 0.0
H617 H 0.57933 0.60285 0.14213 0.0
H618 H 0.5208 0.55243 0.20167 0.0
H619 H 0.53373 0.56945 0.17115 0.0
H620 H 0.54517 0.5506 0.11036 0.0
C621 C 0.59515 0.59476 0.08731 0.0
C622 C 0.57177 0.59158 0.13481 0.0
C623 C 0.60766 0.60574 0.07621 0.0
C624 C 0.52534 0.54858 0.18844 0.0
C625 C 0.53287 0.55835 0.1711 0.0
C626 C 0.55252 0.56199 0.11743 0.0
C627 C 0.58611 0.59896 0.09944 0.0
C628 C 0.5736 0.58764 0.11281 0.0
C629 C 0.54005 0.55424 0.15479 0.0
C630 C 0.5509 0.56588 0.13963 0.0
H631 H 0.60461 0.63696 0.08968 0.0
H632 H 0.58279 0.61783 0.10881 0.0
H633 H 0.56485 0.56945 0.08715 0.0
H634 H 0.53015 0.51879 0.17283 0.0
H635 H 0.54364 0.53597 0.14273 0.0
C636 C 0.41965 0.0268 0.0319 0.0
C637 C 0.404 0.01675 0.03059 0.0
C638 C 0.42816 0.0276 0.051 0.0
C639 C 0.44425 0.01932 0.08632 0.0
H640 H 0.43066 0.01976 0.14653 0.0
C641 C 0.47043 0.00882 0.16615 0.0
C642 C 0.47177 0.01732 0.18593 0.0
C643 C 0.46331 0.01012 0.14674 0.0
C644 C 0.43468 0.0198 0.12982 0.0
H645 H 0.38501 0.99988 0.04872 0.0
H646 H 0.39997 1.00132 0.08221 0.0
H647 H 0.41541 0.01908 0.11397 0.0
H648 H 0.46759 0.03463 0.20032 0.0
H649 H 0.45511 0.03687 0.16641 0.0
H650 H 0.46352 0.02006 0.10213 0.0
C651 C 0.40558 0.0086 0.06836 0.0
C652 C 0.42585 0.01922 0.11119 0.0
C653 C 0.39703 0.00774 0.04914 0.0
C654 C 0.46653 0.02775 0.18547 0.0
C655 C 0.45934 0.029 0.16609 0.0
C656 C 0.45303 0.01982 0.10493 0.0
C657 C 0.42127 0.01843 0.06936 0.0
C658 C 0.43054 0.01897 0.08924 0.0
C659 C 0.45733 0.01992 0.14669 0.0
C660 C 0.44834 0.02005 0.12689 0.0
H661 H 0.42544 0.03399 0.01805 0.0
H662 H 0.44017 0.03547 0.0514 0.0
H663 H 0.44811 0.01899 0.06961 0.0
H664 H 0.47414 1.00051 0.16599 0.0
H665 H 0.46184 0.00289 0.13212 0.0
C666 C 0.3835 0.97295 0.9359 0.0
C667 C 0.38827 0.98785 0.94408 0.0
C668 C 0.39332 0.96974 0.92428 0.0
C669 C 0.43284 0.98255 0.91578 0.0
H670 H 0.42046 0.96716 0.85426 0.0
C671 C 0.47499 0.99255 0.84759 0.0
C672 C 0.47027 0.9832 0.82797 0.0
C673 C 0.46508 0.98962 0.86497 0.0
C674 C 0.42404 0.97102 0.87157 0.0
H675 H 0.40725 0.01089 0.94751 0.0
H676 H 0.42448 0.00523 0.92747 0.0
H677 H 0.40274 0.9688 0.87887 0.0
H678 H 0.45215 0.96268 0.81184 0.0
H679 H 0.43503 0.95695 0.84276 0.0
H680 H 0.45413 0.98476 0.90868 0.0
C681 C 0.41308 0.9961 0.92985 0.0
C682 C 0.41386 0.97206 0.88561 0.0
C683 C 0.40317 0.99938 0.94106 0.0
C684 C 0.45597 0.97008 0.82682 0.0
C685 C 0.44614 0.96695 0.84443 0.0
C686 C 0.44296 0.98122 0.90189 0.0
C687 C 0.40818 0.9813 0.92115 0.0
C688 C 0.41832 0.97826 0.90758 0.0
C689 C 0.4503 0.97711 0.86323 0.0
C690 C 0.43886 0.97591 0.87934 0.0
H691 H 0.37206 0.96384 0.93806 0.0
H692 H 0.38931 0.95824 0.91769 0.0
H693 H 0.43645 0.9872 0.93281 0.0
H694 H 0.48592 0.00284 0.84872 0.0
H695 H 0.46872 0.99784 0.87895 0.0
C696 C 0.02285 0.40335 0.93913 0.0
C697 C 0.00981 0.38896 0.94036 0.0
C698 C 0.02242 0.41516 0.92791 0.0
C699 C 0.99938 0.42121 0.88511 0.0
H700 H 0.02236 0.46358 0.90606 0.0
C701 C 0.99016 0.46557 0.84289 0.0
C702 C 0.00315 0.4777 0.83425 0.0
C703 C 0.99131 0.45654 0.85929 0.0
C704 C 0.01592 0.45179 0.90007 0.0
H705 H 0.9861 0.37575 0.93073 0.0
H706 H 0.98518 0.39633 0.91213 0.0
H707 H 0.02372 0.44384 0.92752 0.0
H708 H 0.02744 0.49068 0.83685 0.0
H709 H 0.02952 0.4748 0.86589 0.0
H710 H 0.99147 0.42904 0.85786 0.0
C711 C 0.99585 0.39849 0.91937 0.0
C712 C 0.01674 0.4405 0.91224 0.0
C713 C 0.99633 0.38668 0.93032 0.0
C714 C 0.0173 0.48146 0.84354 0.0
C715 C 0.01846 0.47237 0.86004 0.0
C716 C 0.99844 0.43241 0.87317 0.0
C717 C 0.00891 0.41283 0.91777 0.0
C718 C 0.00839 0.42504 0.90494 0.0
C719 C 0.00548 0.45941 0.86726 0.0
C720 C 0.0066 0.44779 0.88057 0.0
H721 H 0.03344 0.40547 0.94666 0.0
H722 H 0.03273 0.42599 0.92679 0.0
H723 H 0.99314 0.40954 0.87857 0.0
H724 H 0.97915 0.46247 0.83584 0.0
H725 H 0.98112 0.44675 0.86482 0.0
C726 C 0.59124 0.62822 0.98205 0.0
C727 C 0.60606 0.6314 0.98649 0.0
C728 C 0.58293 0.61923 0.96327 0.0
C729 C 0.58636 0.60464 0.90781 0.0
H730 H 0.54508 0.57298 0.91625 0.0
C731 C 0.55336 0.55794 0.84001 0.0
C732 C 0.53833 0.5538 0.8352 0.0
C733 C 0.56114 0.56723 0.85879 0.0
C734 C 0.55652 0.58188 0.91355 0.0
H735 H 0.62386 0.6279 0.97417 0.0
H736 H 0.6093 0.61217 0.94129 0.0
H737 H 0.55994 0.59002 0.94789 0.0
H738 H 0.51944 0.55562 0.84667 0.0
H739 H 0.53314 0.57212 0.87971 0.0
H740 H 0.58299 0.59658 0.87351 0.0
C741 C 0.60417 0.61672 0.9524 0.0
C742 C 0.56504 0.59164 0.93167 0.0
C743 C 0.6125 0.62571 0.97127 0.0
C744 C 0.53102 0.55866 0.85006 0.0
C745 C 0.53886 0.56808 0.86892 0.0
C746 C 0.57784 0.59493 0.8897 0.0
C747 C 0.58922 0.61321 0.94839 0.0
C748 C 0.58009 0.60307 0.92902 0.0
C749 C 0.55411 0.57268 0.87323 0.0
C750 C 0.56287 0.58334 0.89239 0.0
H751 H 0.58591 0.63246 0.9933 0.0
H752 H 0.57154 0.61695 0.96043 0.0
H753 H 0.59783 0.61349 0.90514 0.0
H754 H 0.55917 0.55408 0.82905 0.0
H755 H 0.57272 0.57019 0.86194 0.0
C756 C 0.01942 0.62099 0.97295 0.0
C757 C 0.0106 0.62796 0.97523 0.0
C758 C 0.01707 0.61109 0.95473 0.0
C759 C 0.00257 0.60067 0.89683 0.0
H760 H 1.00058 0.56234 0.91 0.0
C761 C 0.99382 0.55689 0.82592 0.0
C762 C 0.00236 0.5496 0.82774 0.0
C763 C 0.99304 0.56538 0.84413 0.0
C764 C 1.00126 0.57304 0.90596 0.0
H765 H 0.99264 0.63026 0.9595 0.0
H766 H 0.98874 0.61304 0.92716 0.0
H767 H 0.00282 0.57969 0.94078 0.0
H768 H 0.0165 0.54519 0.85018 0.0
H769 H 0.01544 0.56026 0.88189 0.0
H770 H 1.00158 0.59435 0.86202 0.0
C771 C 0.9974 0.61526 0.9398 0.0
C772 C 0.00247 0.58295 0.92362 0.0
C773 C 0.99963 0.6251 0.9583 0.0
C774 C 0.00972 0.55058 0.84838 0.0
C775 C 0.00907 0.5592 0.86656 0.0
C776 C 1.00151 0.59082 0.87911 0.0
C777 C 0.00593 0.60795 0.93809 0.0
C778 C 0.00335 0.59696 0.91925 0.0
C779 C 1.00089 0.56691 0.86458 0.0
C780 C 1.00104 0.57695 0.88343 0.0
H781 H 0.02801 0.62289 0.98554 0.0
H782 H 0.024 0.60585 0.95367 0.0
H783 H 0.00335 0.61144 0.89297 0.0
H784 H 0.98786 0.55615 0.81028 0.0
H785 H 0.98635 0.57083 0.8421 0.0
C786 C 0.40535 0.38489 0.93932 0.0
C787 C 0.39634 0.3877 0.9538 0.0
C788 C 0.41725 0.39691 0.92863 0.0
C789 C 0.42986 0.43633 0.91153 0.0
H790 H 0.46538 0.43502 0.89428 0.0
C791 C 0.47216 0.45983 0.83551 0.0
C792 C 0.47586 0.47518 0.83576 0.0
C793 C 0.46551 0.45086 0.85399 0.0
C794 C 0.45555 0.43557 0.89912 0.0
H795 H 0.39315 0.40536 0.9694 0.0
H796 H 0.41417 0.42638 0.95136 0.0
H797 H 0.44779 0.41605 0.91957 0.0
H798 H 0.47625 0.49348 0.85578 0.0
H799 H 0.46439 0.4777 0.88818 0.0
H800 H 0.43756 0.45573 0.89086 0.0
C801 C 0.41181 0.41487 0.94766 0.0
C802 C 0.44542 0.42465 0.91347 0.0
C803 C 0.3998 0.40282 0.95809 0.0
C804 C 0.47354 0.48167 0.85527 0.0
C805 C 0.46669 0.47264 0.87368 0.0
C806 C 0.44008 0.44732 0.89742 0.0
C807 C 0.42051 0.41205 0.93242 0.0
C808 C 0.43224 0.42466 0.9194 0.0
C809 C 0.46227 0.45705 0.87297 0.0
C810 C 0.45283 0.44684 0.89064 0.0
H811 H 0.40292 0.37333 0.93564 0.0
H812 H 0.42351 0.39424 0.91677 0.0
H813 H 0.41975 0.43659 0.91537 0.0
H814 H 0.4739 0.45461 0.82065 0.0
H815 H 0.46211 0.43887 0.85289 0.0
C816 C 0.59791 0.98444 0.9723 0.0
C817 C 0.61298 0.99447 0.97918 0.0
C818 C 0.59095 0.98841 0.95551 0.0
C819 C 0.59789 0.01295 0.9075 0.0
H820 H 0.55764 0.00532 0.9182 0.0
C821 C 0.56566 0.02758 0.84156 0.0
C822 C 0.55065 0.01616 0.83696 0.0
C823 C 0.57352 0.02699 0.86064 0.0
C824 C 0.56883 0.00744 0.91487 0.0
H825 H 0.63268 0.01638 0.97311 0.0
H826 H 0.62047 0.02321 0.94348 0.0
H827 H 0.57119 0.99984 0.94724 0.0
H828 H 0.53192 0.99553 0.84928 0.0
H829 H 0.54557 0.99442 0.88242 0.0
H830 H 0.5954 0.02012 0.87488 0.0
C831 C 0.61409 0.0123 0.95127 0.0
C832 C 0.57659 0.0043 0.93152 0.0
C833 C 0.62106 0.00837 0.96824 0.0
C834 C 0.54341 0.00462 0.8525 0.0
C835 C 0.55128 0.00398 0.87151 0.0
C836 C 0.59009 0.016 0.89076 0.0
C837 C 0.59887 0.00247 0.94504 0.0
C838 C 0.59111 0.00679 0.92788 0.0
C839 C 0.56655 0.01492 0.8755 0.0
C840 C 0.57537 0.01308 0.89411 0.0
H841 H 0.59132 0.97362 0.98024 0.0
H842 H 0.57929 0.98047 0.95077 0.0
H843 H 0.60902 0.01489 0.90416 0.0
H844 H 0.57148 0.03672 0.83 0.0
H845 H 0.58517 0.03579 0.86345 0.0
C846 C 0.60189 0.98144 0.07944 0.0
C847 C 0.61153 0.99613 0.07172 0.0
C848 C 0.58862 0.97816 0.08987 0.0
C849 C 0.56143 0.99134 0.098 0.0
H850 H 0.55585 0.97226 0.15562 0.0
C851 C 0.52607 0.99642 0.16771 0.0
C852 C 0.52017 0.98518 0.18391 0.0
C853 C 0.53404 0.9951 0.14991 0.0
C854 C 0.55692 0.97722 0.13931 0.0
H855 H 0.61464 0.01881 0.06835 0.0
H856 H 0.59141 0.01308 0.08672 0.0
H857 H 0.57622 0.97528 0.13246 0.0
H858 H 0.51656 0.96307 0.19316 0.0
H859 H 0.52987 0.96034 0.16148 0.0
H860 H 0.54221 0.99347 0.10504 0.0
C861 C 0.59411 0.00408 0.08452 0.0
C862 C 0.5687 0.97903 0.12608 0.0
C863 C 0.60746 0.0074 0.07421 0.0
C864 C 0.52112 0.97192 0.1809 0.0
C865 C 0.52887 0.97047 0.16291 0.0
C866 C 0.54951 0.98939 0.11117 0.0
C867 C 0.58466 0.98948 0.0927 0.0
C868 C 0.57126 0.98637 0.10551 0.0
C869 C 0.5361 0.9824 0.14787 0.0
C870 C 0.5473 0.98258 0.13222 0.0
H871 H 0.60472 0.97251 0.07783 0.0
H872 H 0.58149 0.96679 0.09589 0.0
H873 H 0.56306 0.99687 0.08206 0.0
H874 H 0.52558 0.00682 0.16984 0.0
H875 H 0.53951 0.00457 0.1388 0.0
C876 C 0.00842 0.61941 0.07406 0.0
C877 C 0.99541 0.61892 0.06513 0.0
C878 C 0.00744 0.60689 0.0851 0.0
C879 C 0.98157 0.57453 0.11751 0.0
H880 H 0.00872 0.55911 0.10681 0.0
C881 C 0.97663 0.52475 0.16787 0.0
C882 C 0.99014 0.52596 0.17579 0.0
C883 C 0.9767 0.53426 0.15114 0.0
C884 C 1.00113 0.56335 0.11016 0.0
H885 H 0.97117 0.60482 0.0607 0.0
H886 H 0.96948 0.58312 0.08031 0.0
H887 H 0.01024 0.57972 0.08422 0.0
H888 H 0.01422 0.53757 0.17217 0.0
H889 H 0.01451 0.55461 0.14342 0.0
H890 H 0.97285 0.55881 0.14399 0.0
C891 C 0.98043 0.59317 0.07866 0.0
C892 C 1.00199 0.57513 0.09716 0.0
C893 C 0.98142 0.6056 0.06739 0.0
C894 C 0.00365 0.53634 0.16605 0.0
C895 C 0.00377 0.54607 0.14956 0.0
C896 C 0.98083 0.56293 0.13066 0.0
C897 C 0.99342 0.59371 0.08772 0.0
C898 C 0.99225 0.58086 0.10079 0.0
C899 C 0.99033 0.54546 0.14236 0.0
C900 C 0.99063 0.55719 0.12725 0.0
H901 H 0.01935 0.6295 0.07282 0.0
H902 H 0.01762 0.60768 0.09217 0.0
H903 H 0.97407 0.57888 0.1209 0.0
H904 H 0.96608 0.51679 0.17521 0.0
H905 H 0.96608 0.53315 0.14562 0.0
C906 C 0.39655 0.3846 0.05204 0.0
C907 C 0.39895 0.37308 0.0431 0.0
C908 C 0.40542 0.39386 0.07036 0.0
C909 C 0.42817 0.39655 0.11926 0.0
H910 H 0.45267 0.4396 0.10749 0.0
C911 C 0.47179 0.43779 0.18595 0.0
C912 C 0.47362 0.45243 0.18828 0.0
C913 C 0.46382 0.42829 0.1673 0.0
C914 C 0.44577 0.42768 0.1113 0.0
H915 H 0.41189 0.36166 0.04697 0.0
H916 H 0.42692 0.37745 0.07966 0.0
H917 H 0.43497 0.42214 0.07844 0.0
H918 H 0.46886 0.46881 0.17297 0.0
H919 H 0.45446 0.45217 0.14094 0.0
H920 H 0.43829 0.40195 0.15235 0.0
C921 C 0.41839 0.37945 0.07222 0.0
C922 C 0.43567 0.41769 0.09457 0.0
C923 C 0.40979 0.37045 0.05357 0.0
C924 C 0.46782 0.45764 0.1713 0.0
C925 C 0.45955 0.44805 0.15291 0.0
C926 C 0.43801 0.40657 0.1362 0.0
C927 C 0.41655 0.39149 0.08036 0.0
C928 C 0.42682 0.40206 0.09841 0.0
C929 C 0.45713 0.43308 0.15087 0.0
C930 C 0.447 0.42231 0.13248 0.0
H931 H 0.38839 0.38698 0.04413 0.0
H932 H 0.4038 0.40307 0.07646 0.0
H933 H 0.42141 0.38451 0.12257 0.0
H934 H 0.47616 0.43353 0.19893 0.0
H935 H 0.46262 0.41705 0.16611 0.0
C936 C 0.6715 0.71704 0.3797 0.0
C937 C 0.66767 0.71938 0.35793 0.0
C938 C 0.67237 0.72657 0.39784 0.0
C939 C 0.66117 0.75551 0.4133 0.0
H940 H 0.68871 0.76408 0.46414 0.0
C941 C 0.6596 0.78777 0.49333 0.0
C942 C 0.67285 0.79637 0.50646 0.0
C943 C 0.65936 0.779 0.47471 0.0
C944 C 0.68112 0.76207 0.44992 0.0
H945 H 0.66253 0.73391 0.33782 0.0
H946 H 0.66485 0.75087 0.36882 0.0
H947 H 0.68798 0.74785 0.43301 0.0
H948 H 0.69637 0.80314 0.51014 0.0
H949 H 0.6963 0.78865 0.47677 0.0
H950 H 0.65493 0.7704 0.42946 0.0
C951 C 0.66642 0.74132 0.37242 0.0
C952 C 0.68049 0.75245 0.43217 0.0
C953 C 0.66519 0.73163 0.35451 0.0
C954 C 0.68603 0.7966 0.50015 0.0
C955 C 0.68589 0.7881 0.48122 0.0
C956 C 0.66204 0.76538 0.43076 0.0
C957 C 0.66978 0.73883 0.39445 0.0
C958 C 0.67047 0.74899 0.41359 0.0
C959 C 0.67245 0.77885 0.46853 0.0
C960 C 0.67196 0.76875 0.44944 0.0
H961 H 0.67346 0.70767 0.38278 0.0
H962 H 0.67481 0.72412 0.41454 0.0
H963 H 0.65305 0.75294 0.39962 0.0
H964 H 0.64924 0.78722 0.49817 0.0
H965 H 0.64871 0.77187 0.46577 0.0
C966 C 0.28284 0.93878 0.40822 0.0
C967 C 0.28275 0.95241 0.40479 0.0
C968 C 0.27098 0.92668 0.41874 0.0
C969 C 0.23989 0.91835 0.45661 0.0
H970 H 0.22928 0.87651 0.44239 0.0
C971 C 0.19686 0.8681 0.5074 0.0
C972 C 0.20325 0.86001 0.51702 0.0
C973 C 0.20392 0.8779 0.48982 0.0
C974 C 0.23206 0.88814 0.4464 0.0
H975 H 0.26996 0.96391 0.40941 0.0
H976 H 0.24899 0.94261 0.4271 0.0
H977 H 0.24656 0.89691 0.41864 0.0
H978 H 0.22137 0.85504 0.51528 0.0
H979 H 0.23353 0.8719 0.48414 0.0
H980 H 0.2254 0.90949 0.48445 0.0
C981 C 0.2584 0.94138 0.42209 0.0
C982 C 0.24204 0.89985 0.43294 0.0
C983 C 0.27039 0.95358 0.41179 0.0
C984 C 0.21625 0.86116 0.508 0.0
C985 C 0.22315 0.87073 0.49019 0.0
C986 C 0.22974 0.90661 0.46984 0.0
C987 C 0.2586 0.92781 0.42588 0.0
C988 C 0.24645 0.91516 0.43828 0.0
C989 C 0.2173 0.87953 0.48139 0.0
C990 C 0.22606 0.89146 0.46522 0.0
H991 H 0.29222 0.93751 0.40315 0.0
H992 H 0.27175 0.91658 0.4218 0.0
H993 H 0.24313 0.92999 0.46146 0.0
H994 H 0.1869 0.86746 0.51428 0.0
H995 H 0.1992 0.88456 0.48326 0.0
C996 C 0.08585 0.35965 0.35801 0.0
C997 C 0.07018 0.34965 0.35741 0.0
C998 C 0.09455 0.36154 0.37742 0.0
C999 C 0.11113 0.35573 0.41503 0.0
H1000 H 0.09773 0.35911 0.47423 0.0
C1001 C 0.1385 0.3503 0.49757 0.0
C1002 C 0.13973 0.35964 0.51626 0.0
C1003 C 0.13106 0.35037 0.47767 0.0
C1004 C 0.1017 0.35834 0.45779 0.0
H1005 H 0.0514 0.33398 0.37704 0.0
H1006 H 0.06669 0.33726 0.41104 0.0
H1007 H 0.0822 0.35646 0.44091 0.0
H1008 H 0.13493 0.37708 0.52817 0.0
H1009 H 0.12194 0.3772 0.49337 0.0
H1010 H 0.13066 0.35769 0.43185 0.0
C1011 C 0.07217 0.3437 0.39642 0.0
C1012 C 0.09271 0.35663 0.43874 0.0
C1013 C 0.06342 0.34176 0.3769 0.0
C1014 C 0.13398 0.36959 0.51419 0.0
C1015 C 0.1265 0.36962 0.4943 0.0
C1016 C 0.12009 0.35739 0.43406 0.0
C1017 C 0.08785 0.35352 0.3968 0.0
C1018 C 0.09732 0.35529 0.41714 0.0
C1019 C 0.12465 0.35976 0.47601 0.0
C1020 C 0.11547 0.35868 0.45567 0.0
H1021 H 0.09149 0.36601 0.34342 0.0
H1022 H 0.10655 0.36939 0.37727 0.0
H1023 H 0.11494 0.35457 0.39864 0.0
H1024 H 0.14258 0.34233 0.49868 0.0
H1025 H 0.12972 0.34254 0.46396 0.0
C1026 C 0.05392 0.30505 0.27672 0.0
C1027 C 0.05245 0.31773 0.27148 0.0
C1028 C 0.06306 0.30139 0.26399 0.0
C1029 C 0.07726 0.3049 0.20778 0.0
H1030 H 0.11 0.30098 0.23396 0.0
C1031 C 0.13544 0.31453 0.17448 0.0
C1032 C 0.13035 0.30697 0.15332 0.0
C1033 C 0.12528 0.31167 0.19153 0.0
C1034 C 0.10078 0.30188 0.22648 0.0
H1035 H 0.05939 0.33654 0.24898 0.0
H1036 H 0.07507 0.32996 0.22657 0.0
H1037 H 0.09327 0.30495 0.25861 0.0
H1038 H 0.11109 0.28921 0.13429 0.0
H1039 H 0.09334 0.28421 0.16407 0.0
H1040 H 0.08486 0.30233 0.17574 0.0
C1041 C 0.06923 0.32292 0.24055 0.0
C1042 C 0.09123 0.30409 0.24054 0.0
C1043 C 0.06033 0.32672 0.25345 0.0
C1044 C 0.11525 0.29538 0.15033 0.0
C1045 C 0.10511 0.29254 0.16734 0.0
C1046 C 0.08663 0.30249 0.1938 0.0
C1047 C 0.0706 0.31018 0.2456 0.0
C1048 C 0.07965 0.30603 0.23122 0.0
C1049 C 0.10988 0.30122 0.18766 0.0
C1050 C 0.0987 0.30129 0.20295 0.0
H1051 H 0.04801 0.29796 0.2906 0.0
H1052 H 0.06394 0.2915 0.26816 0.0
H1053 H 0.06832 0.30624 0.20023 0.0
H1054 H 0.147 0.32357 0.17724 0.0
H1055 H 0.12929 0.31858 0.20699 0.0
C1056 C 0.70142 0.73747 0.26566 0.0
C1057 C 0.68731 0.72672 0.27349 0.0
C1058 C 0.70351 0.75078 0.25579 0.0
C1059 C 0.68197 0.76742 0.22967 0.0
H1060 H 0.72057 0.80486 0.23483 0.0
C1061 C 0.69074 0.82134 0.18727 0.0
C1062 C 0.70226 0.82656 0.17175 0.0
C1063 C 0.68987 0.81145 0.204 0.0
C1064 C 0.70972 0.79449 0.23338 0.0
H1065 H 0.6645 0.72187 0.27796 0.0
H1066 H 0.66815 0.74516 0.26145 0.0
H1067 H 0.71673 0.78256 0.2553 0.0
H1068 H 0.72262 0.82672 0.16268 0.0
H1069 H 0.72131 0.8097 0.19227 0.0
H1070 H 0.67498 0.77941 0.20782 0.0
C1071 C 0.67753 0.74311 0.26209 0.0
C1072 C 0.70753 0.78166 0.24492 0.0
C1073 C 0.67539 0.72968 0.2716 0.0
C1074 C 0.71365 0.82286 0.17452 0.0
C1075 C 0.7129 0.81314 0.19144 0.0
C1076 C 0.68409 0.7803 0.21846 0.0
C1077 C 0.69159 0.75382 0.25389 0.0
C1078 C 0.69369 0.76785 0.24291 0.0
C1079 C 0.70063 0.80679 0.20566 0.0
C1080 C 0.69804 0.79389 0.21991 0.0
H1081 H 0.71083 0.73548 0.2669 0.0
H1082 H 0.71443 0.75855 0.24933 0.0
H1083 H 0.67126 0.75698 0.22728 0.0
H1084 H 0.68174 0.8239 0.18535 0.0
H1085 H 0.68036 0.8068 0.2149 0.0
C1086 C 0.28382 0.95801 0.30066 0.0
C1087 C 0.27758 0.96468 0.31447 0.0
C1088 C 0.27567 0.94881 0.28183 0.0
C1089 C 0.23657 0.92517 0.25955 0.0
H1090 H 0.25556 0.92581 0.20363 0.0
C1091 C 0.20324 0.89093 0.17833 0.0
C1092 C 0.20986 0.88426 0.16541 0.0
C1093 C 0.21116 0.90068 0.19685 0.0
C1094 C 0.25012 0.92538 0.21922 0.0
H1095 H 0.25814 0.96748 0.31861 0.0
H1096 H 0.24413 0.95169 0.28574 0.0
H1097 H 0.27045 0.94353 0.23454 0.0
H1098 H 0.22951 0.88176 0.16252 0.0
H1099 H 0.2432 0.89856 0.19481 0.0
H1100 H 0.21624 0.90698 0.24422 0.0
C1101 C 0.25516 0.95326 0.28972 0.0
C1102 C 0.25866 0.93555 0.23693 0.0
C1103 C 0.26327 0.96241 0.30851 0.0
C1104 C 0.22424 0.88698 0.17192 0.0
C1105 C 0.23211 0.89666 0.19036 0.0
C1106 C 0.22802 0.915 0.24182 0.0
C1107 C 0.26113 0.94611 0.27639 0.0
C1108 C 0.25201 0.93553 0.25734 0.0
C1109 C 0.22581 0.90387 0.20279 0.0
C1110 C 0.23472 0.91492 0.22151 0.0
H1111 H 0.29478 0.95946 0.30478 0.0
H1112 H 0.28056 0.94339 0.27198 0.0
H1113 H 0.23114 0.9247 0.27517 0.0
H1114 H 0.19221 0.88909 0.1736 0.0
H1115 H 0.20602 0.90611 0.20605 0.0
C1116 C 0.68693 0.94909 0.31798 0.0
C1117 C 0.6775 0.95539 0.3199 0.0
C1118 C 0.68552 0.93976 0.29945 0.0
C1119 C 0.67193 0.93 0.24067 0.0
H1120 H 0.67455 0.89378 0.25192 0.0
C1121 C 0.66859 0.88959 0.16803 0.0
C1122 C 0.67939 0.88494 0.16907 0.0
C1123 C 0.66626 0.89664 0.18672 0.0
C1124 C 0.67389 0.90389 0.24846 0.0
H1125 H 0.65939 0.95704 0.30335 0.0
H1126 H 0.65702 0.94072 0.27066 0.0
H1127 H 0.67456 0.90948 0.28352 0.0
H1128 H 0.69584 0.88361 0.19081 0.0
H1129 H 0.69182 0.89593 0.22343 0.0
H1130 H 0.67165 0.92462 0.20559 0.0
C1131 C 0.66548 0.94306 0.2837 0.0
C1132 C 0.67387 0.91288 0.26657 0.0
C1133 C 0.66684 0.9524 0.30242 0.0
C1134 C 0.68733 0.8869 0.18954 0.0
C1135 C 0.68502 0.89398 0.20824 0.0
C1136 C 0.67199 0.92101 0.22251 0.0
C1137 C 0.67468 0.93647 0.28222 0.0
C1138 C 0.67319 0.9262 0.2629 0.0
C1139 C 0.67467 0.89921 0.20693 0.0
C1140 C 0.67324 0.90799 0.22619 0.0
H1141 H 0.69535 0.95118 0.33095 0.0
H1142 H 0.693 0.93515 0.2986 0.0
H1143 H 0.6715 0.94024 0.23729 0.0
H1144 H 0.66212 0.88801 0.15259 0.0
H1145 H 0.65799 0.90024 0.18526 0.0
C1146 C 0.07312 0.72067 0.27392 0.0
C1147 C 0.06041 0.72136 0.28037 0.0
C1148 C 0.08486 0.73292 0.26331 0.0
C1149 C 0.09966 0.77392 0.25012 0.0
H1150 H 0.11739 0.76414 0.20018 0.0
C1151 C 0.12511 0.8114 0.17369 0.0
C1152 C 0.13855 0.81305 0.16558 0.0
C1153 C 0.11818 0.80197 0.19163 0.0
C1154 C 0.11273 0.76707 0.21433 0.0
H1155 H 0.05005 0.73547 0.28077 0.0
H1156 H 0.07008 0.75647 0.26154 0.0
H1157 H 0.10005 0.74386 0.22382 0.0
H1158 H 0.15556 0.80661 0.17003 0.0
H1159 H 0.14319 0.78974 0.20127 0.0
H1160 H 0.11172 0.79704 0.23953 0.0
C1161 C 0.07133 0.74674 0.26527 0.0
C1162 C 0.10281 0.75545 0.22796 0.0
C1163 C 0.05973 0.73459 0.27614 0.0
C1164 C 0.14525 0.80557 0.17618 0.0
C1165 C 0.13816 0.7959 0.19389 0.0
C1166 C 0.1094 0.78549 0.23626 0.0
C1167 C 0.08403 0.74606 0.25861 0.0
C1168 C 0.09589 0.75867 0.24575 0.0
C1169 C 0.12443 0.79382 0.20148 0.0
C1170 C 0.11581 0.78211 0.21801 0.0
H1171 H 0.07404 0.71067 0.27698 0.0
H1172 H 0.09455 0.73206 0.25872 0.0
H1173 H 0.09485 0.7769 0.26399 0.0
H1174 H 0.11975 0.81704 0.16565 0.0
H1175 H 0.10752 0.80044 0.19702 0.0
C1176 C 0.28349 0.34094 0.29993 0.0
C1177 C 0.27511 0.32806 0.3129 0.0
C1178 C 0.27646 0.34453 0.28261 0.0
C1179 C 0.23912 0.33779 0.26354 0.0
H1180 H 0.25627 0.34756 0.20458 0.0
C1181 C 0.20439 0.33183 0.18282 0.0
C1182 C 0.2115 0.34164 0.16513 0.0
C1183 C 0.21255 0.33284 0.20252 0.0
C1184 C 0.25145 0.34517 0.22106 0.0
H1185 H 0.25276 0.30872 0.31743 0.0
H1186 H 0.24066 0.31494 0.28737 0.0
H1187 H 0.27018 0.3441 0.23538 0.0
H1188 H 0.23234 0.36098 0.15488 0.0
H1189 H 0.24653 0.36293 0.18945 0.0
H1190 H 0.22028 0.3386 0.24919 0.0
C1191 C 0.25261 0.3224 0.29077 0.0
C1192 C 0.25942 0.34314 0.23869 0.0
C1193 C 0.25961 0.31876 0.30791 0.0
C1194 C 0.22664 0.35314 0.16815 0.0
C1195 C 0.23477 0.3542 0.18788 0.0
C1196 C 0.23117 0.33988 0.24596 0.0
C1197 C 0.26089 0.33538 0.27807 0.0
C1198 C 0.2532 0.3391 0.25998 0.0
C1199 C 0.22796 0.34373 0.20499 0.0
C1200 C 0.2371 0.34328 0.22438 0.0
H1201 H 0.29544 0.34838 0.30335 0.0
H1202 H 0.28312 0.35463 0.27309 0.0
H1203 H 0.23416 0.33495 0.27991 0.0
H1204 H 0.19279 0.32275 0.18086 0.0
H1205 H 0.20696 0.3245 0.21525 0.0
C1206 C 0.26982 0.32066 0.41561 0.0
C1207 C 0.27977 0.33447 0.40572 0.0
C1208 C 0.25754 0.31919 0.4272 0.0
C1209 C 0.23282 0.33528 0.43457 0.0
H1210 H 0.22785 0.31867 0.49402 0.0
C1211 C 0.19785 0.34293 0.50296 0.0
C1212 C 0.19183 0.33203 0.51963 0.0
C1213 C 0.20599 0.34126 0.48571 0.0
C1214 C 0.22877 0.32299 0.47726 0.0
H1215 H 0.28455 0.35752 0.39988 0.0
H1216 H 0.263 0.35495 0.42029 0.0
H1217 H 0.24749 0.31997 0.47069 0.0
H1218 H 0.18826 0.31022 0.5304 0.0
H1219 H 0.20183 0.30685 0.49966 0.0
H1220 H 0.21409 0.33836 0.44123 0.0
C1221 C 0.2647 0.34524 0.4189 0.0
C1222 C 0.24013 0.32382 0.46394 0.0
C1223 C 0.2771 0.34676 0.40741 0.0
C1224 C 0.19289 0.31879 0.51772 0.0
C1225 C 0.20081 0.31698 0.50028 0.0
C1226 C 0.2213 0.33431 0.44785 0.0
C1227 C 0.2549 0.33148 0.42907 0.0
C1228 C 0.24237 0.33011 0.44258 0.0
C1229 C 0.2081 0.32856 0.48474 0.0
C1230 C 0.21924 0.32828 0.46947 0.0
H1231 H 0.27161 0.311 0.41468 0.0
H1232 H 0.25011 0.30842 0.43475 0.0
H1233 H 0.23423 0.34004 0.41804 0.0
H1234 H 0.19727 0.35331 0.50428 0.0
H1235 H 0.21151 0.35045 0.47416 0.0
C1236 C 0.667 0.94226 0.41039 0.0
C1237 C 0.65577 0.94613 0.40716 0.0
C1238 C 0.66374 0.92869 0.4207 0.0
C1239 C 0.63972 0.90248 0.46171 0.0
H1240 H 0.65127 0.87442 0.43641 0.0
C1241 C 0.63347 0.85299 0.51381 0.0
C1242 C 0.64579 0.85062 0.5137 0.0
C1243 C 0.63161 0.86148 0.49709 0.0
C1244 C 0.64806 0.88218 0.44384 0.0
H1245 H 0.63232 0.93884 0.41214 0.0
H1246 H 0.62677 0.91536 0.43085 0.0
H1247 H 0.65484 0.89628 0.41502 0.0
H1248 H 0.66531 0.85441 0.49551 0.0
H1249 H 0.66247 0.86963 0.46685 0.0
H1250 H 0.63386 0.88921 0.49106 0.0
C1251 C 0.63803 0.92276 0.42514 0.0
C1252 C 0.65007 0.89465 0.43151 0.0
C1253 C 0.64122 0.93617 0.41443 0.0
C1254 C 0.65559 0.85591 0.49575 0.0
C1255 C 0.65393 0.86467 0.4793 0.0
C1256 C 0.63798 0.89021 0.47422 0.0
C1257 C 0.64926 0.91889 0.42833 0.0
C1258 C 0.6461 0.90502 0.44048 0.0
C1259 C 0.64227 0.86813 0.48027 0.0
C1260 C 0.64234 0.87999 0.46563 0.0
H1261 H 0.67825 0.94955 0.40473 0.0
H1262 H 0.67262 0.92601 0.42313 0.0
H1263 H 0.63669 0.9104 0.46907 0.0
H1264 H 0.62578 0.84901 0.52753 0.0
H1265 H 0.62222 0.86346 0.49804 0.0
C1266 C 0.05851 0.7149 0.38469 0.0
C1267 C 0.06508 0.70849 0.37105 0.0
C1268 C 0.06635 0.72405 0.40371 0.0
C1269 C 0.10517 0.74813 0.42676 0.0
H1270 H 0.08558 0.7471 0.48224 0.0
C1271 C 0.13789 0.78264 0.50792 0.0
C1272 C 0.13122 0.78936 0.52062 0.0
C1273 C 0.13 0.77268 0.48959 0.0
C1274 C 0.09119 0.74764 0.46677 0.0
H1275 H 0.08479 0.70609 0.36745 0.0
H1276 H 0.09827 0.72179 0.40066 0.0
H1277 H 0.0711 0.72933 0.45111 0.0
H1278 H 0.11137 0.79153 0.52339 0.0
H1279 H 0.09769 0.7743 0.49147 0.0
H1280 H 0.12525 0.76648 0.44239 0.0
C1281 C 0.08721 0.72005 0.39639 0.0
C1282 C 0.08288 0.73744 0.44895 0.0
C1283 C 0.07941 0.71095 0.3774 0.0
C1284 C 0.1167 0.78629 0.5142 0.0
C1285 C 0.10884 0.77638 0.49594 0.0
C1286 C 0.11349 0.75832 0.44459 0.0
C1287 C 0.08092 0.72697 0.40952 0.0
C1288 C 0.08976 0.73759 0.42871 0.0
C1289 C 0.11529 0.76928 0.48361 0.0
C1290 C 0.10658 0.75825 0.46477 0.0
H1291 H 0.04752 0.71328 0.38027 0.0
H1292 H 0.06121 0.72929 0.4134 0.0
H1293 H 0.11077 0.74873 0.41127 0.0
H1294 H 0.14901 0.78469 0.51257 0.0
H1295 H 0.13525 0.76732 0.48051 0.0
C1296 C 0.33561 0.04959 0.71456 0.0
C1297 C 0.32306 0.04239 0.69956 0.0
C1298 C 0.33573 0.05857 0.73288 0.0
C1299 C 0.31772 0.08046 0.75155 0.0
H1300 H 0.33572 0.0811 0.80978 0.0
C1301 C 0.31415 0.11303 0.83063 0.0
C1302 C 0.32709 0.12047 0.84481 0.0
C1303 C 0.31348 0.10363 0.81249 0.0
C1304 C 0.33079 0.08117 0.79353 0.0
H1305 H 0.30049 0.03835 0.69277 0.0
H1306 H 0.30064 0.05372 0.72477 0.0
H1307 H 0.33474 0.06385 0.77972 0.0
H1308 H 0.34978 0.12467 0.85034 0.0
H1309 H 0.34868 0.10844 0.81875 0.0
H1310 H 0.31378 0.09779 0.7654 0.0
C1311 C 0.31054 0.05277 0.72211 0.0
C1312 C 0.33022 0.07128 0.77632 0.0
C1313 C 0.31043 0.04386 0.70382 0.0
C1314 C 0.33955 0.11884 0.83995 0.0
C1315 C 0.33889 0.1095 0.82191 0.0
C1316 C 0.31827 0.09034 0.76879 0.0
C1317 C 0.32329 0.06048 0.73661 0.0
C1318 C 0.32371 0.07083 0.7551 0.0
C1319 C 0.32577 0.10154 0.80822 0.0
C1320 C 0.32488 0.09086 0.78994 0.0
H1321 H 0.34554 0.04875 0.71174 0.0
H1322 H 0.34577 0.06443 0.74366 0.0
H1323 H 0.31284 0.08059 0.73529 0.0
H1324 H 0.30435 0.114 0.83406 0.0
H1325 H 0.30318 0.09761 0.8023 0.0
C1326 C 0.95757 0.26245 0.74283 0.0
C1327 C 0.95683 0.27574 0.74729 0.0
C1328 C 0.9475 0.2487 0.75253 0.0
C1329 C 0.9109 0.22959 0.78057 0.0
H1330 H 0.9256 0.20423 0.80553 0.0
C1331 C 0.89467 0.18665 0.85681 0.0
C1332 C 0.87895 0.17992 0.85486 0.0
C1333 C 0.90366 0.19473 0.83909 0.0
C1334 C 0.92129 0.21115 0.79859 0.0
H1335 H 0.94515 0.28509 0.76573 0.0
H1336 H 0.92779 0.26126 0.78294 0.0
H1337 H 0.94241 0.22654 0.78448 0.0
H1338 H 0.86027 0.17477 0.83175 0.0
H1339 H 0.87591 0.18825 0.80051 0.0
H1340 H 0.89013 0.2149 0.79578 0.0
C1341 C 0.93588 0.26132 0.77151 0.0
C1342 C 0.9309 0.22387 0.78633 0.0
C1343 C 0.9459 0.27503 0.76175 0.0
C1344 C 0.87235 0.17986 0.83389 0.0
C1345 C 0.88134 0.18781 0.81606 0.0
C1346 C 0.90135 0.21696 0.7929 0.0
C1347 C 0.93651 0.24796 0.76695 0.0
C1348 C 0.92592 0.23348 0.77772 0.0
C1349 C 0.8971 0.19609 0.81891 0.0
C1350 C 0.90652 0.20779 0.80257 0.0
H1351 H 0.96584 0.26261 0.73166 0.0
H1352 H 0.94821 0.23861 0.74852 0.0
H1353 H 0.9066 0.23655 0.77376 0.0
H1354 H 0.90009 0.18662 0.87263 0.0
H1355 H 0.91574 0.20089 0.84197 0.0
C1356 C 0.74859 0.68107 0.69423 0.0
C1357 C 0.7334 0.67704 0.69462 0.0
C1358 C 0.75681 0.68301 0.7142 0.0
C1359 C 0.75255 0.67477 0.7752 0.0
H1360 H 0.79516 0.70485 0.77798 0.0
C1361 C 0.79274 0.69568 0.85533 0.0
C1362 C 0.80072 0.68772 0.85569 0.0
C1363 C 0.78521 0.69594 0.83564 0.0
C1364 C 0.78326 0.69647 0.77736 0.0
H1365 H 0.71484 0.67188 0.71621 0.0
H1366 H 0.72935 0.67587 0.75132 0.0
H1367 H 0.78004 0.70216 0.74409 0.0
H1368 H 0.80755 0.67442 0.83508 0.0
H1369 H 0.79489 0.67552 0.80055 0.0
H1370 H 0.75593 0.66947 0.80885 0.0
C1371 C 0.73485 0.67713 0.73553 0.0
C1372 C 0.77459 0.69478 0.75793 0.0
C1373 C 0.72652 0.67489 0.71543 0.0
C1374 C 0.80173 0.68085 0.83546 0.0
C1375 C 0.79439 0.68133 0.81572 0.0
C1376 C 0.7612 0.67665 0.79474 0.0
C1377 C 0.75014 0.68129 0.73517 0.0
C1378 C 0.75916 0.68373 0.75643 0.0
C1379 C 0.78579 0.68854 0.81587 0.0
C1380 C 0.77661 0.68738 0.7958 0.0
H1381 H 0.75415 0.6826 0.67841 0.0
H1382 H 0.76839 0.68575 0.7131 0.0
H1383 H 0.7408 0.666 0.77464 0.0
H1384 H 0.79196 0.70137 0.87043 0.0
H1385 H 0.77867 0.70164 0.83596 0.0
C1386 C 0.73339 0.65875 0.60524 0.0
C1387 C 0.71847 0.64737 0.60852 0.0
C1388 C 0.74323 0.65514 0.59452 0.0
C1389 C 0.74365 0.63003 0.55169 0.0
H1390 H 0.78412 0.64339 0.57451 0.0
C1391 C 0.78546 0.62711 0.49337 0.0
C1392 C 0.79967 0.64034 0.4939 0.0
C1393 C 0.77577 0.62426 0.51109 0.0
C1394 C 0.77289 0.63964 0.56781 0.0
H1395 H 0.70215 0.62329 0.60352 0.0
H1396 H 0.71927 0.61711 0.58401 0.0
H1397 H 0.76657 0.6463 0.59832 0.0
H1398 H 0.81533 0.6605 0.51373 0.0
H1399 H 0.79837 0.65597 0.54415 0.0
H1400 H 0.75005 0.62444 0.52069 0.0
C1401 C 0.72335 0.62874 0.59002 0.0
C1402 C 0.76285 0.64125 0.58151 0.0
C1403 C 0.7136 0.63229 0.60114 0.0
C1404 C 0.80446 0.65012 0.51307 0.0
C1405 C 0.79469 0.64746 0.53057 0.0
C1406 C 0.75375 0.6287 0.53783 0.0
C1407 C 0.73823 0.64015 0.58658 0.0
C1408 C 0.74826 0.63675 0.57337 0.0
C1409 C 0.77999 0.63481 0.5294 0.0
C1410 C 0.76863 0.63384 0.54549 0.0
H1411 H 0.73753 0.67039 0.61107 0.0
H1412 H 0.75463 0.66415 0.59188 0.0
H1413 H 0.73248 0.62659 0.545 0.0
H1414 H 0.78159 0.61937 0.47875 0.0
H1415 H 0.76472 0.61416 0.50988 0.0
C1416 C 0.35356 0.0703 0.61335 0.0
C1417 C 0.34144 0.05523 0.61176 0.0
C1418 C 0.35268 0.08202 0.60268 0.0
C1419 C 0.33262 0.08818 0.55569 0.0
H1420 H 0.35037 0.12911 0.58223 0.0
C1421 C 0.33067 0.13498 0.50665 0.0
C1422 C 0.34452 0.14851 0.50543 0.0
C1423 C 0.32855 0.12446 0.52304 0.0
C1424 C 0.34539 0.11774 0.5746 0.0
H1425 H 0.31882 0.04069 0.5978 0.0
H1426 H 0.31718 0.06113 0.57953 0.0
H1427 H 0.35016 0.10876 0.604 0.0
H1428 H 0.36677 0.16216 0.52077 0.0
H1429 H 0.36319 0.14373 0.54948 0.0
H1430 H 0.32815 0.0971 0.52617 0.0
C1431 C 0.32745 0.06388 0.58883 0.0
C1432 C 0.3453 0.1061 0.58703 0.0
C1433 C 0.32835 0.05217 0.59946 0.0
C1434 C 0.35591 0.15188 0.52172 0.0
C1435 C 0.35384 0.1413 0.53808 0.0
C1436 C 0.3327 0.09978 0.54332 0.0
C1437 C 0.33965 0.07894 0.59015 0.0
C1438 C 0.33904 0.0912 0.57762 0.0
C1439 C 0.34034 0.12719 0.53832 0.0
C1440 C 0.33919 0.11474 0.55251 0.0
H1441 H 0.36382 0.07306 0.6227 0.0
H1442 H 0.36236 0.09344 0.60379 0.0
H1443 H 0.32797 0.07694 0.54774 0.0
H1444 H 0.3218 0.13214 0.49405 0.0
H1445 H 0.31792 0.11385 0.52304 0.0
C1446 C 0.92722 0.26908 0.66528 0.0
C1447 C 0.94088 0.2827 0.66291 0.0
C1448 C 0.91935 0.25976 0.64652 0.0
C1449 C 0.92294 0.25322 0.58533 0.0
H1450 H 0.87946 0.2302 0.58711 0.0
C1451 C 0.88743 0.21235 0.51143 0.0
C1452 C 0.87365 0.21139 0.50588 0.0
C1453 C 0.89525 0.21969 0.53155 0.0
C1454 C 0.89157 0.23666 0.5861 0.0
H1455 H 0.95709 0.29729 0.63908 0.0
H1456 H 0.94294 0.28149 0.60596 0.0
H1457 H 0.89394 0.24656 0.61896 0.0
H1458 H 0.85712 0.21715 0.51677 0.0
H1459 H 0.87094 0.23053 0.55136 0.0
H1460 H 0.92048 0.24416 0.55178 0.0
C1461 C 0.93849 0.27766 0.62241 0.0
C1462 C 0.89997 0.2459 0.60468 0.0
C1463 C 0.94659 0.28682 0.64135 0.0
C1464 C 0.86762 0.21753 0.52095 0.0
C1465 C 0.87558 0.22518 0.54082 0.0
C1466 C 0.91451 0.24423 0.56652 0.0
C1467 C 0.92471 0.26401 0.62472 0.0
C1468 C 0.9158 0.25427 0.60466 0.0
C1469 C 0.88965 0.2266 0.54627 0.0
C1470 C 0.89869 0.23579 0.56662 0.0
H1471 H 0.92268 0.26546 0.68177 0.0
H1472 H 0.90909 0.24916 0.64925 0.0
H1473 H 0.93508 0.25926 0.58466 0.0
H1474 H 0.89229 0.20771 0.49994 0.0
H1475 H 0.90582 0.22015 0.53532 0.0
C1476 C 0.36282 0.29722 0.64368 0.0
C1477 C 0.35003 0.29865 0.64662 0.0
C1478 C 0.36383 0.28932 0.62498 0.0
C1479 C 0.34042 0.25957 0.58205 0.0
H1480 H 0.37891 0.27281 0.55519 0.0
C1481 C 0.34918 0.22041 0.51979 0.0
C1482 C 0.35748 0.22728 0.50071 0.0
C1483 C 0.3488 0.22938 0.53771 0.0
C1484 C 0.36804 0.26898 0.56234 0.0
H1485 H 0.32844 0.29323 0.63164 0.0
H1486 H 0.33031 0.27952 0.59857 0.0
H1487 H 0.37677 0.28879 0.58423 0.0
H1488 H 0.37261 0.24894 0.48608 0.0
H1489 H 0.37174 0.26454 0.51699 0.0
H1490 H 0.33162 0.23991 0.55974 0.0
C1491 C 0.33947 0.28439 0.61107 0.0
C1492 C 0.36684 0.27809 0.57918 0.0
C1493 C 0.33844 0.29236 0.62991 0.0
C1494 C 0.36596 0.2433 0.50044 0.0
C1495 C 0.36555 0.25225 0.51827 0.0
C1496 C 0.34161 0.25047 0.56512 0.0
C1497 C 0.35212 0.28263 0.60854 0.0
C1498 C 0.35305 0.27345 0.58941 0.0
C1499 C 0.35672 0.24542 0.53694 0.0
C1500 C 0.35547 0.25501 0.55515 0.0
H1501 H 0.37201 0.30193 0.65613 0.0
H1502 H 0.37365 0.28804 0.62383 0.0
H1503 H 0.32967 0.25556 0.58971 0.0
H1504 H 0.34245 0.2081 0.52046 0.0
H1505 H 0.34211 0.22374 0.55202 0.0
C1506 C 0.71132 0.07111 0.59438 0.0
C1507 C 0.71696 0.06177 0.60172 0.0
C1508 C 0.72052 0.08455 0.58335 0.0
C1509 C 0.75933 0.11408 0.57614 0.0
H1510 H 0.74623 0.11731 0.51592 0.0
C1511 C 0.80022 0.15287 0.51089 0.0
C1512 C 0.79474 0.15736 0.49252 0.0
C1513 C 0.79055 0.14408 0.52753 0.0
C1514 C 0.74997 0.11692 0.53292 0.0
H1515 H 0.73679 0.05947 0.60392 0.0
H1516 H 0.75297 0.08314 0.58493 0.0
H1517 H 0.7296 0.09607 0.53863 0.0
H1518 H 0.77535 0.15753 0.47807 0.0
H1519 H 0.75857 0.14294 0.50783 0.0
H1520 H 0.77963 0.13497 0.57069 0.0
C1521 C 0.74137 0.07991 0.58759 0.0
C1522 C 0.74043 0.10462 0.54584 0.0
C1523 C 0.73207 0.0663 0.59823 0.0
C1524 C 0.77978 0.15412 0.49208 0.0
C1525 C 0.77016 0.14559 0.50898 0.0
C1526 C 0.76877 0.12657 0.5634 0.0
C1527 C 0.73562 0.08907 0.57989 0.0
C1528 C 0.74518 0.10291 0.56731 0.0
C1529 C 0.77523 0.1398 0.52633 0.0
C1530 C 0.76439 0.12795 0.54136 0.0
H1531 H 0.6997 0.0679 0.59687 0.0
H1532 H 0.71586 0.09144 0.57755 0.0
H1533 H 0.76313 0.11306 0.59281 0.0
H1534 H 0.81168 0.15508 0.51143 0.0
H1535 H 0.79492 0.13977 0.54037 0.0
C1536 C 0.92959 0.65444 0.64591 0.0
C1537 C 0.94496 0.66436 0.65112 0.0
C1538 C 0.92236 0.65744 0.62832 0.0
C1539 C 0.92863 0.67751 0.57565 0.0
H1540 H 0.88915 0.67225 0.58566 0.0
C1541 C 0.89544 0.68663 0.50456 0.0
C1542 C 0.88027 0.67519 0.50176 0.0
C1543 C 0.90367 0.68774 0.52422 0.0
C1544 C 0.90013 0.67369 0.58254 0.0
H1545 H 0.96486 0.68505 0.64141 0.0
H1546 H 0.95217 0.69017 0.61037 0.0
H1547 H 0.90317 0.66908 0.61664 0.0
H1548 H 0.86163 0.65638 0.51776 0.0
H1549 H 0.87595 0.65819 0.55196 0.0
H1550 H 0.92542 0.68162 0.5414 0.0
C1551 C 0.94577 0.6801 0.62008 0.0
C1552 C 0.90816 0.67188 0.60029 0.0
C1553 C 0.95301 0.67717 0.63787 0.0
C1554 C 0.87326 0.66544 0.51954 0.0
C1555 C 0.8815 0.66648 0.53915 0.0
C1556 C 0.92055 0.67923 0.55784 0.0
C1557 C 0.93031 0.67037 0.61536 0.0
C1558 C 0.92238 0.67352 0.59694 0.0
C1559 C 0.89692 0.67737 0.54147 0.0
C1560 C 0.90609 0.67709 0.56097 0.0
H1561 H 0.923 0.64445 0.65568 0.0
H1562 H 0.9105 0.64958 0.62482 0.0
H1563 H 0.93951 0.67872 0.57253 0.0
H1564 H 0.90108 0.69442 0.4912 0.0
H1565 H 0.91543 0.69647 0.52565 0.0
C1566 C 0.94333 0.6826 0.74477 0.0
C1567 C 0.94694 0.67094 0.74334 0.0
C1568 C 0.93034 0.68016 0.7554 0.0
C1569 C 0.90518 0.6572 0.79897 0.0
H1570 H 0.87922 0.67184 0.77627 0.0
C1571 C 0.85765 0.65174 0.85243 0.0
C1572 C 0.85673 0.66504 0.85462 0.0
C1573 C 0.86552 0.64997 0.83489 0.0
C1574 C 0.88639 0.66773 0.78286 0.0
H1575 H 0.9397 0.64756 0.75173 0.0
H1576 H 0.91708 0.64334 0.77029 0.0
H1577 H 0.89971 0.67404 0.75347 0.0
H1578 H 0.86242 0.68653 0.8398 0.0
H1579 H 0.8766 0.68375 0.80946 0.0
H1580 H 0.89251 0.65152 0.82869 0.0
C1581 C 0.9243 0.65436 0.76322 0.0
C1582 C 0.89811 0.66899 0.76981 0.0
C1583 C 0.93722 0.65676 0.7525 0.0
C1584 C 0.86287 0.67609 0.83819 0.0
C1585 C 0.87098 0.67446 0.82083 0.0
C1586 C 0.8936 0.65606 0.81206 0.0
C1587 C 0.92078 0.66607 0.76494 0.0
C1588 C 0.90771 0.66388 0.77786 0.0
C1589 C 0.87294 0.66167 0.81955 0.0
C1590 C 0.88413 0.66145 0.80431 0.0
H1591 H 0.95057 0.69364 0.7378 0.0
H1592 H 0.928 0.68945 0.7567 0.0
H1593 H 0.91255 0.65339 0.80579 0.0
H1594 H 0.85298 0.6431 0.86501 0.0
H1595 H 0.86646 0.63979 0.83406 0.0
C1596 C 0.3398 0.2825 0.73965 0.0
C1597 C 0.32657 0.28242 0.73304 0.0
C1598 C 0.33913 0.26993 0.75004 0.0
C1599 C 0.31287 0.22893 0.76215 0.0
H1600 H 0.34215 0.23723 0.81048 0.0
C1601 C 0.30476 0.18883 0.83502 0.0
C1602 C 0.31716 0.18754 0.84221 0.0
C1603 C 0.30616 0.19861 0.81782 0.0
C1604 C 0.33405 0.2347 0.79677 0.0
H1605 H 0.30222 0.26902 0.73217 0.0
H1606 H 0.30101 0.24739 0.75114 0.0
H1607 H 0.3441 0.25816 0.78871 0.0
H1608 H 0.34052 0.1949 0.83667 0.0
H1609 H 0.34306 0.21227 0.80669 0.0
H1610 H 0.30238 0.20549 0.77132 0.0
C1611 C 0.31196 0.25694 0.74769 0.0
C1612 C 0.33516 0.2467 0.78421 0.0
C1613 C 0.31264 0.26943 0.73696 0.0
C1614 C 0.33078 0.19561 0.83121 0.0
C1615 C 0.33225 0.20561 0.81424 0.0
C1616 C 0.31163 0.21694 0.77498 0.0
C1617 C 0.3252 0.25703 0.75447 0.0
C1618 C 0.32449 0.24403 0.76687 0.0
C1619 C 0.32005 0.20748 0.8078 0.0
C1620 C 0.32214 0.21974 0.79255 0.0
H1621 H 0.35071 0.2922 0.73675 0.0
H1622 H 0.34959 0.27034 0.75455 0.0
H1623 H 0.30462 0.22634 0.74866 0.0
H1624 H 0.29418 0.18276 0.8434 0.0
H1625 H 0.29661 0.19993 0.81332 0.0
C1626 C 0.74753 0.05754 0.69395 0.0
C1627 C 0.73223 0.05269 0.68994 0.0
C1628 C 0.75527 0.06641 0.71312 0.0
C1629 C 0.75469 0.09297 0.75552 0.0
H1630 H 0.78318 0.08522 0.78796 0.0
C1631 C 0.78382 0.12321 0.8407 0.0
C1632 C 0.79869 0.12658 0.84504 0.0
C1633 C 0.7759 0.11509 0.82107 0.0
C1634 C 0.77545 0.0877 0.7789 0.0
H1635 H 0.71301 0.05322 0.70327 0.0
H1636 H 0.72659 0.06874 0.73697 0.0
H1637 H 0.7684 0.06851 0.75616 0.0
H1638 H 0.81715 0.12469 0.83159 0.0
H1639 H 0.80347 0.11084 0.79703 0.0
H1640 H 0.76179 0.11221 0.77827 0.0
C1641 C 0.73258 0.06572 0.72505 0.0
C1642 C 0.76692 0.07807 0.76073 0.0
C1643 C 0.72478 0.05674 0.70585 0.0
C1644 C 0.80573 0.12234 0.82872 0.0
C1645 C 0.79782 0.11421 0.80906 0.0
C1646 C 0.76326 0.10265 0.7737 0.0
C1647 C 0.74794 0.07072 0.72881 0.0
C1648 C 0.75649 0.08061 0.74876 0.0
C1649 C 0.78269 0.11016 0.80527 0.0
C1650 C 0.77379 0.10016 0.78556 0.0
H1651 H 0.75366 0.05465 0.68211 0.0
H1652 H 0.76713 0.07021 0.71536 0.0
H1653 H 0.7469 0.09536 0.74645 0.0
H1654 H 0.77813 0.12651 0.8528 0.0
H1655 H 0.76427 0.11213 0.81876 0.0
C1656 C 0.05207 0.35334 0.01559 0.0
C1657 C 0.04076 0.34102 0.0026 0.0
C1658 C 0.06483 0.353 0.02348 0.0
C1659 C 0.08636 0.33287 0.01363 0.0
H1660 H 0.10395 0.34991 0.07288 0.0
C1661 C 0.12489 0.3173 0.06467 0.0
C1662 C 0.13656 0.32872 0.07833 0.0
C1663 C 0.11532 0.32056 0.05196 0.0
C1664 C 0.09934 0.34534 0.05612 0.0
H1665 H 0.03377 0.31849 0.98831 0.0
H1666 H 0.05568 0.31766 0.00265 0.0
H1667 H 0.08245 0.35165 0.05891 0.0
H1668 H 0.14787 0.35258 0.08879 0.0
H1669 H 0.13112 0.35837 0.06647 0.0
H1670 H 0.10296 0.32603 0.01135 0.0
C1671 C 0.05498 0.32781 0.0062 0.0
C1672 C 0.08698 0.34632 0.04809 0.0
C1673 C 0.04232 0.32821 -0.00184 0.0
C1674 C 0.13911 0.34368 0.07803 0.0
C1675 C 0.12941 0.34691 0.06552 0.0
C1676 C 0.09864 0.33177 0.02176 0.0
C1677 C 0.06652 0.34028 0.01873 0.0
C1678 C 0.08018 0.33992 0.02685 0.0
C1679 C 0.11709 0.33525 0.053 0.0
C1680 C 0.10517 0.33785 0.0432 0.0
H1681 H 0.05128 0.36343 0.01918 0.0
H1682 H 0.07352 0.36288 0.03285 0.0
H1683 H 0.08168 0.32811 -0.00302 0.0
H1684 H 0.12256 0.30562 0.06503 0.0
H1685 H 0.10587 0.3113 0.04265 0.0
C1686 C 0.64146 0.70752 0.0315 0.0
C1687 C 0.65 0.70018 0.03089 0.0
C1688 C 0.64844 0.72339 0.03079 0.0
C1689 C 0.68407 0.75643 0.04871 0.0
H1690 H 0.6656 0.77884 0.02528 0.0
C1691 C 0.70456 0.81673 0.08259 0.0
C1692 C 0.69295 0.81909 0.08975 0.0
C1693 C 0.70148 0.80472 0.06745 0.0
C1694 C 0.67093 0.77277 0.0319 0.0
H1695 H 0.67247 0.70373 0.02725 0.0
H1696 H 0.68467 0.73151 0.02604 0.0
H1697 H 0.65601 0.75236 0.01261 0.0
H1698 H 0.66927 0.81156 0.08569 0.0
H1699 H 0.6637 0.7903 0.05971 0.0
H1700 H 0.69837 0.77633 0.06899 0.0
C1701 C 0.67257 0.72494 0.02733 0.0
C1702 C 0.66546 0.75761 0.0246 0.0
C1703 C 0.66557 0.70902 0.02794 0.0
C1704 C 0.67842 0.81002 0.08021 0.0
C1705 C 0.67527 0.79785 0.06528 0.0
C1706 C 0.68948 0.77151 0.05606 0.0
C1707 C 0.66414 0.73232 0.02951 0.0
C1708 C 0.67167 0.74913 0.0335 0.0
C1709 C 0.68665 0.79463 0.05953 0.0
C1710 C 0.68268 0.77973 0.04832 0.0
H1711 H 0.62942 0.70107 0.03352 0.0
H1712 H 0.6416 0.72868 0.03269 0.0
H1713 H 0.68899 0.75019 0.05618 0.0
H1714 H 0.71587 0.82365 0.08971 0.0
H1715 H 0.71058 0.80282 0.06295 0.0
C1716 C 0.31833 0.96097 0.02294 0.0
C1717 C 0.31703 0.97027 0.0069 0.0
C1718 C 0.30551 0.9485 0.03113 0.0
C1719 C 0.26462 0.92286 0.0179 0.0
H1720 H 0.26449 0.91208 0.08012 0.0
C1721 C 0.21208 0.88326 0.06881 0.0
C1722 C 0.21402 0.87449 0.0851 0.0
C1723 C 0.224 0.89263 0.05521 0.0
C1724 C 0.26443 0.91478 0.06258 0.0
H1725 H 0.30123 0.97413 0.98746 0.0
H1726 H 0.27884 0.95274 0.00239 0.0
H1727 H 0.28656 0.93409 0.06618 0.0
H1728 H 0.22913 0.86738 0.09865 0.0
H1729 H 0.24983 0.88346 0.07462 0.0
H1730 H 0.24211 0.90375 0.0148 0.0
C1731 C 0.28977 0.95476 0.00814 0.0
C1732 C 0.27711 0.92744 0.05457 0.0
C1733 C 0.30261 0.96713 -0.00024 0.0
C1734 C 0.22739 0.87396 0.08601 0.0
C1735 C 0.23926 0.8833 0.07249 0.0
C1736 C 0.25183 0.91026 0.02603 0.0
C1737 C 0.29105 0.94515 0.02369 0.0
C1738 C 0.27741 0.93166 0.03212 0.0
C1739 C 0.23797 0.89336 0.05791 0.0
C1740 C 0.25165 0.90607 0.04845 0.0
H1741 H 0.32928 0.96297 0.02863 0.0
H1742 H 0.30698 0.94126 0.04283 0.0
H1743 H 0.26452 0.92562 0.00041 0.0
H1744 H 0.20194 0.88401 0.06814 0.0
H1745 H 0.2227 0.90029 0.04413 0.0
C1746 C 0.35414 0.04373 0.99275 0.0
C1747 C 0.36808 0.04692 0.98435 0.0
C1748 C 0.35024 0.05513 0.99409 0.0
C1749 C 0.3657 0.09716 0.98872 0.0
H1750 H 0.32656 0.0843 0.96089 0.0
C1751 C 0.35331 0.13259 0.92818 0.0
C1752 C 0.33882 0.13062 0.92646 0.0
C1753 C 0.35677 0.12489 0.94431 0.0
C1754 C 0.33738 0.08811 0.96926 0.0
H1755 H 0.38918 0.06489 0.97203 0.0
H1756 H 0.38231 0.0845 0.97389 0.0
H1757 H 0.33273 0.06521 0.97255 0.0
H1758 H 0.31688 0.12004 0.94097 0.0
H1759 H 0.32289 0.10643 0.96929 0.0
H1760 H 0.37065 0.12011 0.98387 0.0
C1761 C 0.37442 0.07329 0.97976 0.0
C1762 C 0.34094 0.07712 0.97596 0.0
C1763 C 0.37831 0.06195 0.97845 0.0
C1764 C 0.32819 0.12183 0.94223 0.0
C1765 C 0.33159 0.11397 0.95826 0.0
C1766 C 0.36217 0.10815 0.98187 0.0
C1767 C 0.36021 0.06997 0.98708 0.0
C1768 C 0.35537 0.08151 0.98487 0.0
C1769 C 0.34571 0.1149 0.95878 0.0
C1770 C 0.34819 0.10373 0.97122 0.0
H1771 H 0.34603 0.0323 -0.00238 0.0
H1772 H 0.33928 0.05222 6e-05 0.0
H1773 H 0.3768 0.10093 0.99603 0.0
H1774 H 0.3616 0.13918 0.91595 0.0
H1775 H 0.3677 0.12574 0.94408 0.0
C1776 C 0.95028 0.3073 -0.00165 0.0
C1777 C 0.96398 0.31102 0.98867 0.0
C1778 C 0.93872 0.29211 -0.00111 0.0
C1779 C 0.92868 0.25167 0.98395 0.0
H1780 H 0.89005 0.24779 0.96875 0.0
C1781 C 0.87948 0.19439 0.94942 0.0
C1782 C 0.87206 0.19577 0.93033 0.0
C1783 C 0.88871 0.20723 0.96334 0.0
C1784 C 0.90074 0.24862 0.97294 0.0
H1785 H 0.97672 0.30184 0.97307 0.0
H1786 H 0.95637 0.2754 0.97284 0.0
H1787 H 0.91098 0.27246 0.98038 0.0
H1788 H 0.8679 0.21122 0.91105 0.0
H1789 H 0.88401 0.23359 0.93489 0.0
H1790 H 0.91866 0.22801 0.97446 0.0
C1791 C 0.95456 0.28404 0.98076 0.0
C1792 C 0.91279 0.26281 0.98004 0.0
C1793 C 0.96629 0.29923 0.9808 0.0
C1794 C 0.87329 0.20989 0.926 0.0
C1795 C 0.88255 0.2227 0.93975 0.0
C1796 C 0.91667 0.23749 0.97645 0.0
C1797 C 0.9404 0.28032 0.98905 0.0
C1798 C 0.92708 0.26468 0.98503 0.0
C1799 C 0.8908 0.22168 0.95819 0.0
C1800 C 0.90266 0.2359 0.97013 0.0
H1801 H 0.9483 0.31621 0.00472 0.0
H1802 H 0.92823 0.28974 0.00617 0.0
H1803 H 0.93937 0.2525 0.98814 0.0
H1804 H 0.87884 0.18362 0.95278 0.0
H1805 H 0.8947 0.20595 0.97756 0.0
C1806 C 0.69239 0.66097 0.00508 0.0
C1807 C 0.68139 0.64638 0.01153 0.0
C1808 C 0.70639 0.6636 -0.00182 0.0
C1809 C 0.72594 0.64457 0.97524 0.0
H1810 H 0.76176 0.68154 -0.00309 0.0
C1811 C 0.78408 0.65949 0.94361 0.0
C1812 C 0.79227 0.6744 0.93592 0.0
C1813 C 0.77182 0.65539 0.9574 0.0
C1814 C 0.75188 0.67117 0.99068 0.0
H1815 H 0.67635 0.62302 0.01522 0.0
H1816 H 0.70075 0.62763 0.00294 0.0
H1817 H 0.73726 0.67565 0.01048 0.0
H1818 H 0.79492 0.69698 0.93777 0.0
H1819 H 0.77371 0.68997 0.96175 0.0
H1820 H 0.74044 0.64034 0.95482 0.0
C1821 C 0.69854 0.63702 0.00329 0.0
C1822 C 0.73783 0.66783 -0.00159 0.0
C1823 C 0.68457 0.6344 0.01036 0.0
C1824 C 0.7888 0.68542 0.94363 0.0
C1825 C 0.77664 0.68138 0.95742 0.0
C1826 C 0.73998 0.64796 0.9674 0.0
C1827 C 0.70968 0.6517 -0.00259 0.0
C1828 C 0.72468 0.65465 0.99043 0.0
C1829 C 0.76763 0.66618 0.96375 0.0
C1830 C 0.7531 0.66147 0.97467 0.0
H1831 H 0.69032 0.67045 0.00577 0.0
H1832 H 0.71465 0.67499 0.99338 0.0
H1833 H 0.716 0.63437 0.96869 0.0
H1834 H 0.78648 0.65077 0.93769 0.0
H1835 H 0.76524 0.64364 0.96227 0.0
C1836 C 0.96354 0.6703 0.99465 0.0
C1837 C 0.95934 0.65837 0.00962 0.0
C1838 C 0.95308 0.6744 0.98714 0.0
C1839 C 0.91552 0.66965 0.00028 0.0
H1840 H 0.91622 0.68167 0.93865 0.0
C1841 C 0.86543 0.66805 0.95067 0.0
C1842 C 0.86885 0.67931 0.9348 0.0
C1843 C 0.87697 0.66798 0.96355 0.0
C1844 C 0.91601 0.67858 0.95604 0.0
H1845 H 0.94077 0.64115 0.02798 0.0
H1846 H 0.92249 0.64787 0.01432 0.0
H1847 H 0.93533 0.67613 0.95245 0.0
H1848 H 0.88668 0.69987 0.92097 0.0
H1849 H 0.90681 0.69995 0.94369 0.0
H1850 H 0.89573 0.67152 0.00339 0.0
C1851 C 0.93394 0.65444 0.00889 0.0
C1852 C 0.927 0.6754 0.96398 0.0
C1853 C 0.94441 0.65047 0.01657 0.0
C1854 C 0.88378 0.6912 0.93337 0.0
C1855 C 0.89529 0.69112 0.94612 0.0
C1856 C 0.90441 0.67268 0.99223 0.0
C1857 C 0.93813 0.66656 0.99423 0.0
C1858 C 0.92685 0.67074 0.98615 0.0
C1859 C 0.8921 0.6791 0.96053 0.0
C1860 C 0.90448 0.67709 0.96997 0.0
H1861 H 0.97499 0.67669 0.98913 0.0
H1862 H 0.9568 0.68391 0.97607 0.0
H1863 H 0.91518 0.66641 0.0176 0.0
H1864 H 0.85404 0.65859 0.95167 0.0
H1865 H 0.87416 0.65854 0.97445 0.0
C1866 C 0.34296 0.29619 0.98613 0.0
C1867 C 0.35841 0.30593 0.99077 0.0
C1868 C 0.33685 0.28035 0.98508 0.0
C1869 C 0.34953 0.25263 0.97392 0.0
H1870 H 0.3075 0.22299 0.98165 0.0
C1871 C 0.32681 0.192 0.94074 0.0
C1872 C 0.31488 0.18763 0.92493 0.0
C1873 C 0.33045 0.20383 0.95657 0.0
C1874 C 0.3193 0.23113 0.9796 0.0
H1875 H 0.37929 0.30675 4e-05 0.0
H1876 H 0.36856 0.27917 -0.00069 0.0
H1877 H 0.3176 0.24938 0.9954 0.0
H1878 H 0.29621 0.1908 0.91526 0.0
H1879 H 0.30266 0.21157 0.9427 0.0
H1880 H 0.3512 0.23461 0.95767 0.0
C1881 C 0.36123 0.28369 0.99546 0.0
C1882 C 0.32508 0.24627 0.98734 0.0
C1883 C 0.36739 0.29952 0.99604 0.0
C1884 C 0.30561 0.19409 0.92703 0.0
C1885 C 0.30925 0.20593 0.94286 0.0
C1886 C 0.34381 0.23753 0.96645 0.0
C1887 C 0.34601 0.27389 0.98904 0.0
C1888 C 0.3402 0.25733 0.98404 0.0
C1889 C 0.32223 0.21151 0.95691 0.0
C1890 C 0.32856 0.22668 0.96866 0.0
H1891 H 0.33576 0.30082 0.98195 0.0
H1892 H 0.32513 0.27326 0.97988 0.0
H1893 H 0.36112 0.26076 0.97055 0.0
H1894 H 0.33419 0.18728 0.93959 0.0
H1895 H 0.34035 0.2077 0.96748 0.0
C1896 C 0.69381 0.04984 0.00837 0.0
C1897 C 0.69446 0.03805 0.01941 0.0
C1898 C 0.70676 0.0619 -0.00024 0.0
C1899 C 0.74858 0.08103 0.00181 0.0
H1900 H 0.74407 0.09447 0.94304 0.0
C1901 C 0.79732 0.11586 0.94159 0.0
C1902 C 0.79588 0.12629 0.92808 0.0
C1903 C 0.78605 0.10706 0.95652 0.0
C1904 C 0.74551 0.09105 0.95964 0.0
H1905 H 0.70926 0.02974 0.03032 0.0
H1906 H 0.73178 0.05056 0.01476 0.0
H1907 H 0.72207 0.075 0.96114 0.0
H1908 H 0.78242 0.13669 0.9206 0.0
H1909 H 0.76295 0.12167 0.947 0.0
H1910 H 0.77222 0.09688 -0.00025 0.0
C1911 C 0.72133 0.05068 0.01315 0.0
C1912 C 0.73287 0.07987 0.97005 0.0
C1913 C 0.70838 0.03867 0.02192 0.0
C1914 C 0.78371 0.12869 0.93092 0.0
C1915 C 0.77254 0.12 0.94585 0.0
C1916 C 0.7613 0.09221 0.99128 0.0
C1917 C 0.72066 0.06238 0.00179 0.0
C1918 C 0.73421 0.07468 0.99124 0.0
C1919 C 0.77323 0.10861 0.95805 0.0
C1920 C 0.75988 0.09733 0.97008 0.0
H1921 H 0.68328 0.04978 0.00636 0.0
H1922 H 0.70587 0.07086 0.99147 0.0
H1923 H 0.74999 0.07741 0.01825 0.0
H1924 H 0.80656 0.11374 0.93942 0.0
H1925 H 0.78687 0.09834 0.96564 0.0
C1926 C 0.67044 0.97183 0.01481 0.0
C1927 C 0.65463 0.96399 0.01478 0.0
C1928 C 0.67819 0.96375 0.01474 0.0
C1929 C 0.67332 0.92458 0.01107 0.0
H1930 H 0.70022 0.93914 0.0638 0.0
C1931 C 0.70319 0.90438 0.08378 0.0
C1932 C 0.69041 0.89035 0.0879 0.0
C1933 C 0.70271 0.91353 0.06684 0.0
C1934 C 0.69312 0.93501 0.04863 0.0
H1935 H 0.6346 0.94157 0.01194 0.0
H1936 H 0.64804 0.92758 0.0121 0.0
H1937 H 0.69225 0.95556 0.04696 0.0
H1938 H 0.66745 0.87436 0.07724 0.0
H1939 H 0.66636 0.89034 0.04801 0.0
H1940 H 0.67362 0.90366 0.01361 0.0
C1941 C 0.65451 0.93993 0.01219 0.0
C1942 C 0.68852 0.94449 0.03892 0.0
C1943 C 0.64677 0.94798 0.0123 0.0
C1944 C 0.67747 0.8851 0.07404 0.0
C1945 C 0.67692 0.89426 0.05724 0.0
C1946 C 0.67799 0.91509 0.02075 0.0
C1947 C 0.67029 0.9477 0.01454 0.0
C1948 C 0.67802 0.93914 0.02069 0.0
C1949 C 0.68933 0.90888 0.05405 0.0
C1950 C 0.68739 0.91994 0.0403 0.0
H1951 H 0.67687 0.98417 0.01644 0.0
H1952 H 0.69036 0.97007 0.01616 0.0
H1953 H 0.66543 0.92023 0.99678 0.0
H1954 H 0.71325 0.90863 0.09447 0.0
H1955 H 0.71253 0.92461 0.0646 0.0
C1956 C 0.04126 0.70973 0.02589 0.0
C1957 C 0.04491 0.69831 0.02158 0.0
C1958 C 0.05247 0.72516 0.02659 0.0
C1959 C 0.09372 0.74852 0.03699 0.0
H1960 H 0.08648 0.78219 0.02856 0.0
C1961 C 0.13816 0.80822 0.06771 0.0
C1962 C 0.13237 0.8143 0.08339 0.0
C1963 C 0.12847 0.79644 0.05252 0.0
C1964 C 0.0887 0.77291 0.03081 0.0
H1965 H 0.06284 0.6941 0.01255 0.0
H1966 H 0.08221 0.72092 0.01259 0.0
H1967 H 0.06737 0.75638 0.01576 0.0
H1968 H 0.11225 0.81415 0.09382 0.0
H1969 H 0.09535 0.79374 0.06725 0.0
H1970 H 0.11483 0.76489 0.05246 0.0
C1971 C 0.07087 0.71805 0.01648 0.0
C1972 C 0.07771 0.75809 0.02362 0.0
C1973 C 0.05974 0.70265 0.01625 0.0
C1974 C 0.11699 0.80963 0.0819 0.0
C1975 C 0.10731 0.79794 0.06663 0.0
C1976 C 0.10471 0.7633 0.0439 0.0
C1977 C 0.06755 0.72952 0.02261 0.0
C1978 C 0.07991 0.74561 0.02717 0.0
C1979 C 0.11284 0.79063 0.05266 0.0
C1980 C 0.10221 0.77562 0.04144 0.0
H1981 H 0.02993 0.70673 0.03016 0.0
H1982 H 0.04942 0.73356 0.03157 0.0
H1983 H 0.0958 0.73929 0.04054 0.0
H1984 H 0.14995 0.81154 0.06858 0.0
H1985 H 0.13308 0.79119 0.04171 0.0
C1986 C 0.31296 0.34002 0.02011 0.0
C1987 C 0.32034 0.35201 0.0053 0.0
C1988 C 0.29887 0.33634 0.02806 0.0
C1989 C 0.26629 0.34219 0.01681 0.0
H1990 H 0.25759 0.33017 0.07865 0.0
C1991 C 0.21909 0.34272 0.06845 0.0
C1992 C 0.21201 0.33116 0.08395 0.0
C1993 C 0.23051 0.3433 0.05532 0.0
C1994 C 0.25974 0.33328 0.06122 0.0
H1995 H 0.31884 0.36972 0.98752 0.0
H1996 H 0.29456 0.36368 0.00196 0.0
H1997 H 0.28154 0.33562 0.06381 0.0
H1998 H 0.21041 0.31063 0.097 0.0
H1999 H 0.23014 0.31144 0.07384 0.0
H2000 H 0.24457 0.34036 0.0147 0.0
C2001 C 0.29941 0.3568 0.00697 0.0
C2002 C 0.2735 0.3364 0.05268 0.0
C2003 C 0.31342 0.36037 -0.00116 0.0
C2004 C 0.21565 0.31955 0.08494 0.0
C2005 C 0.22704 0.32013 0.0719 0.0
C2006 C 0.25255 0.33921 0.02546 0.0
C2007 C 0.2919 0.34468 0.0216 0.0
C2008 C 0.27701 0.34095 0.03039 0.0
C2009 C 0.23505 0.33238 0.05772 0.0
C2010 C 0.24915 0.33473 0.04777 0.0
H2011 H 0.31793 0.33327 0.02524 0.0
H2012 H 0.29335 0.32679 0.03903 0.0
H2013 H 0.26849 0.34543 -0.00056 0.0
H2014 H 0.21661 0.35192 0.06777 0.0
H2015 H 0.23653 0.35291 0.0446 0.0
C2016 C 0.72034 0.68532 0.35161 0.0
C2017 C 0.70848 0.67295 0.33945 0.0
C2018 C 0.73263 0.68433 0.36 0.0
C2019 C 0.7518 0.66158 0.35271 0.0
H2020 H 0.77146 0.68127 0.40989 0.0
C2021 C 0.79031 0.64674 0.40548 0.0
C2022 C 0.8028 0.65867 0.41721 0.0
C2023 C 0.78057 0.64969 0.39264 0.0
C2024 C 0.76625 0.67592 0.3937 0.0
H2025 H 0.69996 0.64963 0.32734 0.0
H2026 H 0.72103 0.64766 0.34269 0.0
H2027 H 0.75028 0.6835 0.39575 0.0
H2028 H 0.81536 0.68307 0.42401 0.0
H2029 H 0.79827 0.6883 0.40153 0.0
H2030 H 0.76748 0.6535 0.35127 0.0
C2031 C 0.72115 0.65834 0.34512 0.0
C2032 C 0.75407 0.67718 0.38557 0.0
C2033 C 0.70895 0.6594 0.33652 0.0
C2034 C 0.80593 0.67373 0.4148 0.0
C2035 C 0.79606 0.67667 0.4022 0.0
C2036 C 0.76387 0.66018 0.36099 0.0
C2037 C 0.73329 0.67087 0.35667 0.0
C2038 C 0.74657 0.66991 0.36505 0.0
C2039 C 0.78301 0.66462 0.39162 0.0
C2040 C 0.77116 0.66725 0.38165 0.0
H2041 H 0.72039 0.69597 0.35402 0.0
H2042 H 0.7418 0.69428 0.36856 0.0
H2043 H 0.74657 0.65611 0.3366 0.0
H2044 H 0.78759 0.63502 0.4074 0.0
H2045 H 0.77057 0.64016 0.38482 0.0
C2046 C 0.31024 0.04028 0.36247 0.0
C2047 C 0.31911 0.03331 0.36281 0.0
C2048 C 0.31695 0.05617 0.3627 0.0
C2049 C 0.35056 0.08904 0.38587 0.0
H2050 H 0.33444 0.11193 0.35667 0.0
C2051 C 0.36661 0.14787 0.42191 0.0
C2052 C 0.35428 0.15 0.42479 0.0
C2053 C 0.36548 0.13652 0.40686 0.0
C2054 C 0.33909 0.10573 0.365 0.0
H2055 H 0.342 0.03758 0.36214 0.0
H2056 H 0.3537 0.06536 0.36287 0.0
H2057 H 0.32603 0.08573 0.34374 0.0
H2058 H 0.33147 0.14272 0.41367 0.0
H2059 H 0.3292 0.12263 0.38797 0.0
H2060 H 0.36274 0.10835 0.40821 0.0
C2061 C 0.34155 0.05848 0.36246 0.0
C2062 C 0.33431 0.09075 0.3575 0.0
C2063 C 0.33483 0.04257 0.36197 0.0
C2064 C 0.34119 0.14141 0.41135 0.0
C2065 C 0.33994 0.12989 0.39659 0.0
C2066 C 0.35519 0.1039 0.39355 0.0
C2067 C 0.33269 0.06544 0.36348 0.0
C2068 C 0.33967 0.0821 0.36832 0.0
C2069 C 0.35183 0.12681 0.39492 0.0
C2070 C 0.34916 0.1123 0.38371 0.0
H2071 H 0.2981 0.03349 0.36293 0.0
H2072 H 0.30982 0.06119 0.36366 0.0
H2073 H 0.35477 0.08262 0.39474 0.0
H2074 H 0.37676 0.15433 0.43232 0.0
H2075 H 0.375 0.13477 0.40562 0.0
C2076 C 0.97543 0.28091 0.32983 0.0
C2077 C 0.98483 0.29633 0.33641 0.0
C2078 C 0.96152 0.27218 0.33952 0.0
C2079 C 0.93979 0.27107 0.38905 0.0
H2080 H 0.90615 0.24014 0.35246 0.0
C2081 C 0.88226 0.23609 0.42674 0.0
C2082 C 0.87622 0.22024 0.42453 0.0
C2083 C 0.89379 0.2459 0.41308 0.0
C2084 C 0.91545 0.24873 0.36285 0.0
H2085 H 0.98701 0.31471 0.35837 0.0
H2086 H 0.96252 0.29955 0.37505 0.0
H2087 H 0.93013 0.25658 0.33513 0.0
H2088 H 0.87656 0.20207 0.40531 0.0
H2089 H 0.89678 0.21928 0.3811 0.0
H2090 H 0.92512 0.26323 0.41674 0.0
C2091 C 0.96604 0.2941 0.36266 0.0
C2092 C 0.92922 0.2581 0.353 0.0
C2093 C 0.98007 0.30282 0.35309 0.0
C2094 C 0.88097 0.21426 0.40713 0.0
C2095 C 0.89256 0.22411 0.39339 0.0
C2096 C 0.92601 0.26181 0.39882 0.0
C2097 C 0.95655 0.27867 0.35589 0.0
C2098 C 0.94163 0.26927 0.36604 0.0
C2099 C 0.89953 0.24004 0.39696 0.0
C2100 C 0.91373 0.25046 0.38589 0.0
H2101 H 0.97882 0.27553 0.31712 0.0
H2102 H 0.95473 0.26027 0.33426 0.0
H2103 H 0.94912 0.27932 0.39973 0.0
H2104 H 0.87871 0.24093 0.44005 0.0
H2105 H 0.89874 0.25811 0.41591 0.0
C2106 C 0.02219 0.3772 0.31792 0.0
C2107 C 0.03567 0.37929 0.30914 0.0
C2108 C 0.01954 0.38947 0.31977 0.0
C2109 C 0.03834 0.43195 0.31623 0.0
H2110 H 1.00007 0.4232 0.28933 0.0
C2111 C 0.03036 0.47134 0.25807 0.0
C2112 C 0.01646 0.47077 0.25657 0.0
C2113 C 0.03285 0.46275 0.27384 0.0
C2114 C 0.01067 0.42587 0.29748 0.0
H2115 H 0.05722 0.39612 0.29645 0.0
H2116 H 0.05251 0.41721 0.29925 0.0
H2117 H 0.0039 0.40226 0.2995 0.0
H2118 H 0.99471 0.46189 0.27136 0.0
H2119 H 0.99901 0.44673 0.29903 0.0
H2120 H 0.04541 0.4556 0.31265 0.0
C2121 C 0.04403 0.40622 0.30503 0.0
C2122 C 0.01288 0.41382 0.3033 0.0
C2123 C 0.04666 0.39402 0.30316 0.0
C2124 C 0.00557 0.46259 0.2724 0.0
C2125 C 0.00799 0.45383 0.28805 0.0
C2126 C 0.03616 0.444 0.31028 0.0
C2127 C 0.03035 0.40407 0.31297 0.0
C2128 C 0.02696 0.41671 0.3118 0.0
C2129 C 0.02139 0.45327 0.28819 0.0
C2130 C 0.02251 0.44106 0.29994 0.0
H2131 H 0.01352 0.36604 0.32284 0.0
H2132 H 0.00893 0.38745 0.32614 0.0
H2133 H 0.04921 0.43456 0.32326 0.0
H2134 H 0.03885 0.4775 0.24588 0.0
H2135 H 0.04324 0.46249 0.27335 0.0
C2136 C 0.61806 0.64383 0.31613 0.0
C2137 C 0.63331 0.64792 0.31653 0.0
C2138 C 0.60678 0.62858 0.31735 0.0
C2139 C 0.59961 0.59047 0.30185 0.0
H2140 H 0.56172 0.57778 0.33033 0.0
C2141 C 0.54804 0.53279 0.2765 0.0
C2142 C 0.53552 0.53416 0.27039 0.0
C2143 C 0.55991 0.54431 0.28972 0.0
C2144 C 0.57223 0.5811 0.32231 0.0
H2145 H 0.64865 0.63916 0.31955 0.0
H2146 H 0.62884 0.61239 0.32146 0.0
H2147 H 0.58324 0.60309 0.33927 0.0
H2148 H 0.52502 0.54791 0.27442 0.0
H2149 H 0.5455 0.56789 0.29749 0.0
H2150 H 0.58846 0.56892 0.28391 0.0
C2151 C 0.62568 0.62107 0.32017 0.0
C2152 C 0.58457 0.59561 0.32745 0.0
C2153 C 0.63702 0.63641 0.3192 0.0
C2154 C 0.53446 0.5465 0.27927 0.0
C2155 C 0.54626 0.55797 0.29248 0.0
C2156 C 0.58726 0.576 0.29662 0.0
C2157 C 0.61041 0.61696 0.31881 0.0
C2158 C 0.59825 0.60066 0.3167 0.0
C2159 C 0.55946 0.55741 0.29698 0.0
C2160 C 0.57325 0.57132 0.30618 0.0
H2161 H 0.6148 0.6524 0.31421 0.0
H2162 H 0.59516 0.62583 0.316 0.0
H2163 H 0.60993 0.59404 0.2931 0.0
H2164 H 0.54919 0.52348 0.26953 0.0
H2165 H 0.5698 0.54339 0.29315 0.0
C2166 C 0.35371 0.96794 0.33603 0.0
C2167 C 0.35136 0.9804 0.33882 0.0
C2168 C 0.36759 0.97014 0.32933 0.0
C2169 C 0.40773 0.9998 0.32708 0.0
H2170 H 0.40915 0.97232 0.28216 0.0
C2171 C 0.45885 0.0152 0.27327 0.0
C2172 C 0.4615 0.00359 0.26558 0.0
C2173 C 0.44671 0.01182 0.2868 0.0
C2174 C 0.409 0.97992 0.29509 0.0
H2175 H 0.36172 0.00495 0.33632 0.0
H2176 H 0.38587 0.00877 0.3243 0.0
H2177 H 0.38496 0.96752 0.29535 0.0
H2178 H 0.45429 0.97958 0.26727 0.0
H2179 H 0.43309 0.97361 0.29131 0.0
H2180 H 0.43178 0.0124 0.32639 0.0
C2181 C 0.37704 0.99731 0.32769 0.0
C2182 C 0.3951 0.9772 0.30258 0.0
C2183 C 0.36315 0.9951 0.33437 0.0
C2184 C 0.45253 0.98874 0.27313 0.0
C2185 C 0.4403 0.98532 0.28662 0.0
C2186 C 0.42164 0.00251 0.3196 0.0
C2187 C 0.37947 0.98487 0.32528 0.0
C2188 C 0.39429 0.98726 0.31836 0.0
C2189 C 0.43692 0.99672 0.29285 0.0
C2190 C 0.42242 0.99275 0.30322 0.0
H2191 H 0.34489 0.95646 0.33939 0.0
H2192 H 0.36911 0.96033 0.32779 0.0
H2193 H 0.40751 0.00759 0.3396 0.0
H2194 H 0.46563 0.02675 0.26761 0.0
H2195 H 0.44442 0.02087 0.29114 0.0
C2196 C 0.63089 0.99814 0.33181 0.0
C2197 C 0.62796 0.98303 0.33286 0.0
C2198 C 0.61938 1.00112 0.32576 0.0
C2199 C 0.57796 0.98293 0.32438 0.0
H2200 H 0.58361 0.01319 0.28084 0.0
C2201 C 0.52935 0.98132 0.27306 0.0
C2202 C 0.53064 0.99492 0.26541 0.0
C2203 C 0.54091 0.98158 0.28615 0.0
C2204 C 0.5819 0.00493 0.29343 0.0
H2205 H 0.61072 0.95924 0.3276 0.0
H2206 H 0.59081 0.96445 0.31702 0.0
H2207 H 0.60491 0.01037 0.29286 0.0
H2208 H 0.54453 0.01952 0.26639 0.0
H2209 H 0.56475 0.02009 0.2898 0.0
H2210 H 0.55492 0.97727 0.32469 0.0
C2211 C 0.60192 0.97399 0.32121 0.0
C2212 C 0.59411 0.00328 0.30022 0.0
C2213 C 0.6134 0.97102 0.32709 0.0
C2214 C 0.54319 0.0089 0.27244 0.0
C2215 C 0.55485 0.00918 0.28551 0.0
C2216 C 0.56578 0.98463 0.31769 0.0
C2217 C 0.60469 0.98905 0.32082 0.0
C2218 C 0.59218 0.99197 0.31531 0.0
C2219 C 0.5541 0.99548 0.29176 0.0
C2220 C 0.56749 0.99538 0.30168 0.0
H2221 H 0.64198 0.00766 0.33619 0.0
H2222 H 0.62187 0.01286 0.32559 0.0
H2223 H 0.57618 0.97435 0.33643 0.0
H2224 H 0.51988 0.9704 0.26746 0.0
H2225 H 0.53996 0.97079 0.29039 0.0
C2226 C 0.00923 0.63107 0.32362 0.0
C2227 C 0.02488 0.64018 0.32159 0.0
C2228 C 0.00238 0.61516 0.3234 0.0
C2229 C 0.0092 0.58259 0.32698 0.0
H2230 H 0.97935 0.56509 0.27801 0.0
C2231 C 1.00054 0.53195 0.27165 0.0
C2232 C 0.98738 0.52388 0.25811 0.0
C2233 C 1.00205 0.54318 0.28722 0.0
C2234 C 0.98729 0.56949 0.29223 0.0
H2235 H 0.0457 0.63972 0.3196 0.0
H2236 H 0.03374 0.61199 0.31928 0.0
H2237 H 0.98802 0.59093 0.29153 0.0
H2238 H 0.96484 0.51981 0.25196 0.0
H2239 H 0.96707 0.53878 0.28012 0.0
H2240 H 0.00871 0.56122 0.32733 0.0
C2241 C 0.02677 0.61716 0.32099 0.0
C2242 C 0.99233 0.58444 0.29992 0.0
C2243 C 0.03362 0.63306 0.32098 0.0
C2244 C 0.97513 0.52597 0.26217 0.0
C2245 C 0.97652 0.53699 0.2781 0.0
C2246 C 0.00398 0.56751 0.3195 0.0
C2247 C 0.01105 0.60803 0.32143 0.0
C2248 C 0.00373 0.59134 0.31677 0.0
C2249 C 0.99033 0.54642 0.28978 0.0
C2250 C 0.9934 0.56096 0.30137 0.0
H2251 H 1.00215 0.63616 0.32425 0.0
H2252 H 0.99024 0.6084 0.32393 0.0
H2253 H 0.01787 0.58759 0.34021 0.0
H2254 H 0.0102 0.53064 0.26865 0.0
H2255 H 0.01291 0.55018 0.2957 0.0
C2256 C 0.36174 0.37434 0.3355 0.0
C2257 C 0.35194 0.37902 0.34384 0.0
C2258 C 0.37615 0.38511 0.32904 0.0
C2259 C 0.39856 0.42422 0.31 0.0
H2260 H 0.43237 0.4191 0.32689 0.0
C2261 C 0.45729 0.46476 0.27764 0.0
C2262 C 0.46434 0.45725 0.26818 0.0
C2263 C 0.44508 0.45699 0.29158 0.0
C2264 C 0.42306 0.42068 0.32198 0.0
H2265 H 0.34951 0.39869 0.35154 0.0
H2266 H 0.37464 0.41748 0.33997 0.0
H2267 H 0.40751 0.40165 0.34075 0.0
H2268 H 0.46507 0.43625 0.26744 0.0
H2269 H 0.44376 0.42264 0.29137 0.0
H2270 H 0.41389 0.44285 0.29051 0.0
C2271 C 0.37116 0.40547 0.33852 0.0
C2272 C 0.40882 0.41067 0.3299 0.0
C2273 C 0.35678 0.3947 0.34517 0.0
C2274 C 0.45976 0.44227 0.27438 0.0
C2275 C 0.44758 0.43451 0.28824 0.0
C2276 C 0.41278 0.43417 0.30194 0.0
C2277 C 0.38105 0.40079 0.33059 0.0
C2278 C 0.39636 0.41215 0.32364 0.0
C2279 C 0.43972 0.44157 0.29631 0.0
C2280 C 0.42516 0.43235 0.30747 0.0
H2281 H 0.35839 0.36236 0.33426 0.0
H2282 H 0.38343 0.38114 0.32265 0.0
H2283 H 0.38916 0.42558 0.30476 0.0
H2284 H 0.46053 0.47629 0.27307 0.0
H2285 H 0.43945 0.46286 0.29787 0.0
C2286 C 0.30047 0.27627 0.33834 0.0
C2287 C 0.31079 0.29154 0.34466 0.0
C2288 C 0.30508 0.26544 0.33719 0.0
C2289 C 0.33851 0.2601 0.34403 0.0
H2290 H 0.31114 0.22647 0.38002 0.0
C2291 C 0.35735 0.2338 0.41188 0.0
C2292 C 0.3478 0.2187 0.41805 0.0
C2293 C 0.35329 0.2399 0.39405 0.0
C2294 C 0.3188 0.23549 0.36942 0.0
H2295 H 0.33428 0.30774 0.35251 0.0
H2296 H 0.34225 0.28884 0.35127 0.0
H2297 H 0.30294 0.24283 0.36364 0.0
H2298 H 0.32713 0.1977 0.40928 0.0
H2299 H 0.32002 0.20834 0.37788 0.0
H2300 H 0.3547 0.25319 0.35127 0.0
C2301 C 0.33063 0.28517 0.34683 0.0
C2302 C 0.31408 0.24493 0.35995 0.0
C2303 C 0.32606 0.29604 0.34766 0.0
C2304 C 0.33469 0.2094 0.40488 0.0
C2305 C 0.33059 0.21552 0.38702 0.0
C2306 C 0.34326 0.25063 0.3536 0.0
C2307 C 0.32005 0.26961 0.34271 0.0
C2308 C 0.32407 0.25775 0.34794 0.0
C2309 C 0.33955 0.23102 0.38202 0.0
C2310 C 0.33364 0.23862 0.36721 0.0
H2311 H 0.28866 0.2725 0.33552 0.0
H2312 H 0.29671 0.25364 0.33332 0.0
H2313 H 0.34639 0.26968 0.33449 0.0
H2314 H 0.36762 0.24115 0.42162 0.0
H2315 H 0.36042 0.2519 0.39084 0.0
C2316 C 0.72925 0.02758 0.3687 0.0
C2317 C 0.71427 0.02438 0.36736 0.0
C2318 C 0.74119 0.04261 0.36869 0.0
C2319 C 0.7514 0.083 0.35931 0.0
H2320 H 0.78195 0.09163 0.40569 0.0
C2321 C 0.78719 0.14147 0.405 0.0
C2322 C 0.80128 0.14531 0.41471 0.0
C2323 C 0.77873 0.1278 0.39248 0.0
C2324 C 0.77378 0.08947 0.39226 0.0
H2325 H 0.70014 0.03451 0.36373 0.0
H2326 H 0.72099 0.06081 0.36419 0.0
H2327 H 0.76271 0.06546 0.39691 0.0
H2328 H 0.81822 0.13865 0.41708 0.0
H2329 H 0.80362 0.1149 0.39466 0.0
H2330 H 0.76226 0.1072 0.35538 0.0
C2331 C 0.72352 0.05166 0.36496 0.0
C2332 C 0.76266 0.07437 0.38723 0.0
C2333 C 0.71154 0.03656 0.36478 0.0
C2334 C 0.80743 0.13601 0.40969 0.0
C2335 C 0.79895 0.1223 0.39713 0.0
C2336 C 0.76257 0.09816 0.36437 0.0
C2337 C 0.7385 0.05489 0.36754 0.0
C2338 C 0.75114 0.07093 0.371 0.0
C2339 C 0.78418 0.11766 0.38939 0.0
C2340 C 0.77373 0.10161 0.38124 0.0
H2341 H 0.73179 0.01847 0.37037 0.0
H2342 H 0.75256 0.04461 0.37015 0.0
H2343 H 0.74284 0.08076 0.34648 0.0
H2344 H 0.78219 0.14845 0.40867 0.0
H2345 H 0.76742 0.12465 0.3869 0.0
C2346 C 0.97891 0.67318 0.35034 0.0
C2347 C 0.98576 0.68492 0.335 0.0
C2348 C 0.965 0.66947 0.35906 0.0
C2349 C 0.93187 0.67462 0.34962 0.0
H2350 H 0.9253 0.66403 0.41229 0.0
C2351 C 0.88604 0.67558 0.40428 0.0
C2352 C 0.87963 0.66434 0.4204 0.0
C2353 C 0.8971 0.67605 0.3904 0.0
C2354 C 0.92685 0.66673 0.39465 0.0
H2355 H 0.9835 0.70212 0.31698 0.0
H2356 H 0.95953 0.69602 0.33275 0.0
H2357 H 0.94882 0.66944 0.39588 0.0
H2358 H 0.87878 0.64424 0.43383 0.0
H2359 H 0.89788 0.64487 0.40939 0.0
H2360 H 0.90998 0.67243 0.34887 0.0
C2361 C 0.96466 0.68937 0.33761 0.0
C2362 C 0.94036 0.66983 0.38521 0.0
C2363 C 0.97848 0.69296 0.32871 0.0
C2364 C 0.88353 0.65293 0.42133 0.0
C2365 C 0.89455 0.65339 0.40754 0.0
C2366 C 0.91837 0.67166 0.35917 0.0
C2367 C 0.95771 0.67754 0.35284 0.0
C2368 C 0.94308 0.67386 0.3626 0.0
C2369 C 0.90192 0.66535 0.39266 0.0
C2370 C 0.91575 0.66769 0.3818 0.0
H2371 H 0.98416 0.66666 0.35535 0.0
H2372 H 0.9599 0.66013 0.37047 0.0
H2373 H 0.93348 0.67746 0.33205 0.0
H2374 H 0.88333 0.68461 0.4036 0.0
H2375 H 0.90264 0.68543 0.37914 0.0
C2376 C 0.3782 0.99784 0.66899 0.0
C2377 C 0.3755 0.00987 0.67383 0.0
C2378 C 0.39109 0.99816 0.67769 0.0
C2379 C 0.42163 0.01703 0.72183 0.0
H2380 H 0.44082 1.00006 0.68507 0.0
C2381 C 0.47549 0.01815 0.75332 0.0
C2382 C 0.47422 0.00369 0.75274 0.0
C2383 C 0.46528 0.02068 0.74087 0.0
C2384 C 0.43559 0.00486 0.69551 0.0
H2385 H 0.38419 0.03164 0.69185 0.0
H2386 H 0.40684 0.03237 0.70671 0.0
H2387 H 0.41899 1.00082 0.66986 0.0
H2388 H 0.4619 0.98079 0.73811 0.0
H2389 H 0.44432 0.98527 0.7158 0.0
H2390 H 0.43828 0.02105 0.74746 0.0
C2391 C 0.39887 0.02252 0.69648 0.0
C2392 C 0.423 0.0052 0.68688 0.0
C2393 C 0.38588 0.02213 0.68792 0.0
C2394 C 0.46326 0.99211 0.73841 0.0
C2395 C 0.45318 0.99468 0.72575 0.0
C2396 C 0.43431 0.01683 0.73036 0.0
C2397 C 0.40173 0.0106 0.69131 0.0
C2398 C 0.41568 0.01105 0.70006 0.0
C2399 C 0.4537 0.00881 0.72753 0.0
C2400 C 0.4413 0.01054 0.71742 0.0
H2401 H 0.37039 0.98817 0.65831 0.0
H2402 H 0.39268 0.98858 0.67377 0.0
H2403 H 0.41623 0.02144 0.73262 0.0
H2404 H 0.48368 0.02713 0.76464 0.0
H2405 H 0.46603 0.03171 0.74243 0.0
C2406 C 0.98393 0.36419 0.70031 0.0
C2407 C 0.97045 0.35239 0.70855 0.0
C2408 C 0.98635 0.37906 0.69917 0.0
C2409 C 0.9671 0.40204 0.70318 0.0
H2410 H 0.00568 0.43345 0.72835 0.0
C2411 C 0.97627 0.45527 0.75292 0.0
C2412 C 0.99043 0.46858 0.75332 0.0
C2413 C 0.97352 0.44251 0.73968 0.0
C2414 C 0.99496 0.42496 0.72075 0.0
H2415 H 0.94868 0.34694 0.72103 0.0
H2416 H 0.95298 0.37273 0.71938 0.0
H2417 H 1.00162 0.40807 0.72 0.0
H2418 H 0.01249 0.47947 0.73922 0.0
H2419 H 0.00767 0.45722 0.71569 0.0
H2420 H 0.96026 0.41884 0.70504 0.0
C2421 C 0.96164 0.37054 0.71353 0.0
C2422 C 0.99262 0.41033 0.71598 0.0
C2423 C 0.95922 0.35571 0.71466 0.0
C2424 C 1.0014 0.46939 0.73886 0.0
C2425 C 0.99869 0.45659 0.72568 0.0
C2426 C 0.96944 0.41668 0.70803 0.0
C2427 C 0.97535 0.38248 0.7062 0.0
C2428 C 0.97851 0.39855 0.70778 0.0
C2429 C 0.98496 0.44277 0.72677 0.0
C2430 C 0.98327 0.42819 0.7175 0.0
H2431 H 0.9928 0.36205 0.69532 0.0
H2432 H 0.99696 0.38793 0.69314 0.0
H2433 H 0.95619 0.39334 0.69644 0.0
H2434 H 0.96775 0.45431 0.76428 0.0
H2435 H 0.96287 0.43206 0.74113 0.0
C2436 C 0.65246 0.60867 0.68804 0.0
C2437 C 0.65613 0.62366 0.68325 0.0
C2438 C 0.63802 0.59806 0.69453 0.0
C2439 C 0.59884 0.59057 0.69275 0.0
H2440 H 0.59341 0.56247 0.73983 0.0
C2441 C 0.54642 0.56056 0.7459 0.0
C2442 C 0.54231 0.54616 0.75422 0.0
C2443 C 0.5587 0.56785 0.73209 0.0
C2444 C 0.5947 0.57 0.72629 0.0
H2445 H 0.64764 0.6394 0.68228 0.0
H2446 H 0.62254 0.62098 0.69419 0.0
H2447 H 0.61862 0.58018 0.72782 0.0
H2448 H 0.54692 0.52754 0.75342 0.0
H2449 H 0.56843 0.54025 0.72901 0.0
H2450 H 0.57489 0.58068 0.69188 0.0
C2451 C 0.63073 0.61732 0.69236 0.0
C2452 C 0.60917 0.58021 0.71947 0.0
C2453 C 0.64517 0.62794 0.68578 0.0
C2454 C 0.54982 0.53858 0.74698 0.0
C2455 C 0.56221 0.54593 0.73327 0.0
C2456 C 0.58435 0.58038 0.69965 0.0
C2457 C 0.62692 0.6022 0.6965 0.0
C2458 C 0.61145 0.59079 0.70288 0.0
C2459 C 0.56717 0.56092 0.72655 0.0
C2460 C 0.58215 0.57015 0.71674 0.0
H2461 H 0.66062 0.60497 0.68616 0.0
H2462 H 0.63546 0.58648 0.69742 0.0
H2463 H 0.60018 0.59834 0.67958 0.0
H2464 H 0.54084 0.56664 0.7515 0.0
H2465 H 0.56227 0.57942 0.72734 0.0
C2466 C 0.68472 0.70438 0.65283 0.0
C2467 C 0.69898 0.70756 0.6459 0.0
C2468 C 0.68101 0.71592 0.65381 0.0
C2469 C 0.69723 0.75808 0.65154 0.0
H2470 H 0.66018 0.74712 0.61825 0.0
C2471 C 0.69004 0.79799 0.59338 0.0
C2472 C 0.6758 0.79633 0.58936 0.0
C2473 C 0.69199 0.78889 0.60884 0.0
C2474 C 0.67037 0.75038 0.62814 0.0
H2475 H 0.72079 0.72558 0.63587 0.0
H2476 H 0.71428 0.74552 0.6373 0.0
H2477 H 0.66526 0.72721 0.6297 0.0
H2478 H 0.65264 0.78472 0.59923 0.0
H2479 H 0.65599 0.76866 0.62646 0.0
H2480 H 0.7027 0.78135 0.64877 0.0
C2481 C 0.70598 0.73418 0.64218 0.0
C2482 C 0.6733 0.73892 0.6347 0.0
C2483 C 0.70967 0.72267 0.64112 0.0
C2484 C 0.66374 0.78624 0.60224 0.0
C2485 C 0.66565 0.777 0.61763 0.0
C2486 C 0.6943 0.76954 0.64497 0.0
C2487 C 0.6915 0.73088 0.64802 0.0
C2488 C 0.68705 0.74269 0.64561 0.0
C2489 C 0.67968 0.77783 0.62043 0.0
C2490 C 0.68113 0.76584 0.63235 0.0
H2491 H 0.67624 0.69288 0.65678 0.0
H2492 H 0.6698 0.71304 0.65858 0.0
H2493 H 0.70778 0.76132 0.66037 0.0
H2494 H 0.69946 0.80565 0.58348 0.0
H2495 H 0.70289 0.78973 0.61035 0.0
C2496 C 0.30522 0.96464 0.65287 0.0
C2497 C 0.29927 0.97448 0.65304 0.0
C2498 C 0.29563 0.94878 0.6529 0.0
C2499 C 0.25629 0.91808 0.6618 0.0
H2500 H 0.26249 0.89805 0.61038 0.0
C2501 C 0.20811 0.86743 0.61231 0.0
C2502 C 0.21126 0.85812 0.59841 0.0
C2503 C 0.21946 0.87893 0.62617 0.0
C2504 C 0.26069 0.90319 0.62525 0.0
H2505 H 0.27872 0.97544 0.65516 0.0
H2506 H 0.26211 0.94793 0.65543 0.0
H2507 H 0.28177 0.9237 0.62196 0.0
H2508 H 0.22816 0.85235 0.58965 0.0
H2509 H 0.2478 0.87179 0.61481 0.0
H2510 H 0.23499 0.8977 0.66471 0.0
C2511 C 0.27413 0.95239 0.65517 0.0
C2512 C 0.27181 0.918 0.63185 0.0
C2513 C 0.28366 0.96818 0.65482 0.0
C2514 C 0.22547 0.85938 0.60034 0.0
C2515 C 0.23676 0.87069 0.61449 0.0
C2516 C 0.24521 0.90316 0.65536 0.0
C2517 C 0.27995 0.94249 0.65351 0.0
C2518 C 0.26951 0.92582 0.64967 0.0
C2519 C 0.23417 0.88122 0.62654 0.0
C2520 C 0.24701 0.89571 0.63645 0.0
H2521 H 0.31719 0.96914 0.6515 0.0
H2522 H 0.30044 0.94143 0.65174 0.0
H2523 H 0.25429 0.92376 0.67581 0.0
H2524 H 0.1973 0.86683 0.6108 0.0
H2525 H 0.21697 0.8868 0.63501 0.0
C2526 C 0.04071 0.33615 0.70253 0.0
C2527 C 0.02718 0.33005 0.68964 0.0
C2528 C 0.05395 0.33872 0.69269 0.0
C2529 C 0.06774 0.32668 0.64416 0.0
H2530 H 0.10556 0.3635 0.65945 0.0
C2531 C 0.12315 0.33645 0.60755 0.0
C2532 C 0.13149 0.35065 0.59764 0.0
C2533 C 0.11162 0.3339 0.62206 0.0
C2534 C 0.09509 0.35314 0.65506 0.0
H2535 H 0.01704 0.32211 0.65618 0.0
H2536 H 0.04027 0.32676 0.63889 0.0
H2537 H 0.08256 0.35945 0.67667 0.0
H2538 H 0.13514 0.3736 0.59622 0.0
H2539 H 0.11517 0.36925 0.62159 0.0
H2540 H 0.08018 0.32059 0.62202 0.0
C2541 C 0.04055 0.32936 0.65672 0.0
C2542 C 0.08193 0.35077 0.66502 0.0
C2543 C 0.02727 0.32682 0.66656 0.0
C2544 C 0.12886 0.36256 0.60371 0.0
C2545 C 0.11744 0.36006 0.61828 0.0
C2546 C 0.08091 0.32902 0.63425 0.0
C2547 C 0.05401 0.33523 0.66973 0.0
C2548 C 0.06807 0.33759 0.65949 0.0
C2549 C 0.10834 0.34556 0.627 0.0
C2550 C 0.09471 0.34236 0.63939 0.0
H2551 H 0.04105 0.33875 0.72037 0.0
H2552 H 0.06408 0.34311 0.70324 0.0
H2553 H 0.05728 0.3163 0.63979 0.0
H2554 H 0.1249 0.32707 0.60296 0.0
H2555 H 0.10492 0.32266 0.62877 0.0
C2556 C 0.29262 0.32938 0.65778 0.0
C2557 C 0.29593 0.33072 0.68106 0.0
C2558 C 0.28143 0.33214 0.64919 0.0
C2559 C 0.24746 0.33311 0.66601 0.0
H2560 H 0.25297 0.35486 0.61088 0.0
C2561 C 0.19897 0.33138 0.61244 0.0
C2562 C 0.2019 0.34436 0.60057 0.0
C2563 C 0.21032 0.33129 0.62573 0.0
C2564 C 0.25132 0.34895 0.62648 0.0
H2565 H 0.29017 0.33624 0.7135 0.0
H2566 H 0.27084 0.34108 0.69854 0.0
H2567 H 0.27328 0.35146 0.62608 0.0
H2568 H 0.21863 0.36764 0.59394 0.0
H2569 H 0.23844 0.36769 0.6176 0.0
H2570 H 0.22546 0.33053 0.66632 0.0
C2571 C 0.27673 0.33772 0.68692 0.0
C2572 C 0.26289 0.34681 0.635 0.0
C2573 C 0.2879 0.33502 0.69548 0.0
C2574 C 0.21604 0.35761 0.60338 0.0
C2575 C 0.22742 0.35753 0.61659 0.0
C2576 C 0.23585 0.33518 0.65742 0.0
C2577 C 0.27328 0.33624 0.6637 0.0
C2578 C 0.26108 0.33878 0.65479 0.0
C2579 C 0.22487 0.34416 0.62715 0.0
C2580 C 0.2376 0.34305 0.63747 0.0
H2581 H 0.29858 0.32607 0.64622 0.0
H2582 H 0.27896 0.33077 0.63121 0.0
H2583 H 0.24563 0.32676 0.68119 0.0
H2584 H 0.18827 0.32091 0.60999 0.0
H2585 H 0.20798 0.32077 0.63346 0.0
C2586 C 0.71371 0.98151 0.64097 0.0
C2587 C 0.70185 0.9846 0.64223 0.0
C2588 C 0.71089 0.96651 0.64119 0.0
C2589 C 0.68115 0.92604 0.64999 0.0
H2590 H 0.70196 0.91758 0.60324 0.0
C2591 C 0.65689 0.86897 0.60025 0.0
C2592 C 0.66673 0.86461 0.59113 0.0
C2593 C 0.66246 0.88236 0.61352 0.0
C2594 C 0.69628 0.91971 0.61677 0.0
H2595 H 0.6778 0.97437 0.64599 0.0
H2596 H 0.67281 0.9482 0.64573 0.0
H2597 H 0.70938 0.94378 0.61318 0.0
H2598 H 0.68994 0.87006 0.59035 0.0
H2599 H 0.69971 0.89339 0.61387 0.0
H2600 H 0.66752 0.90178 0.65262 0.0
C2601 C 0.68435 0.95736 0.64496 0.0
C2602 C 0.70054 0.9348 0.62249 0.0
C2603 C 0.6872 0.9724 0.64498 0.0
C2604 C 0.6821 0.87312 0.59723 0.0
C2605 C 0.6877 0.88657 0.61048 0.0
C2606 C 0.67683 0.91089 0.64418 0.0
C2607 C 0.69611 0.9542 0.64242 0.0
C2608 C 0.6928 0.93818 0.63878 0.0
C2609 C 0.67801 0.89169 0.6179 0.0
C2610 C 0.68412 0.90755 0.62709 0.0
H2611 H 0.72517 0.99066 0.63918 0.0
H2612 H 0.72027 0.96454 0.63975 0.0
H2613 H 0.67512 0.92823 0.6629 0.0
H2614 H 0.64497 0.86255 0.59587 0.0
H2615 H 0.65468 0.88596 0.61884 0.0
C2616 C 0.02575 0.72191 0.67476 0.0
C2617 C 0.02758 0.71179 0.68849 0.0
C2618 C 0.03825 0.73468 0.6665 0.0
C2619 C 0.07983 0.75912 0.67419 0.0
H2620 H 0.0769 0.76861 0.61211 0.0
C2621 C 0.13029 0.79381 0.61744 0.0
C2622 C 0.12839 0.80211 0.60035 0.0
C2623 C 0.11875 0.78578 0.63235 0.0
C2624 C 0.07785 0.76636 0.62962 0.0
H2625 H 0.04399 0.70714 0.70437 0.0
H2626 H 0.06578 0.72916 0.68942 0.0
H2627 H 0.05509 0.74815 0.62916 0.0
H2628 H 0.11381 0.80979 0.58649 0.0
H2629 H 0.09384 0.79621 0.61292 0.0
H2630 H 0.10289 0.77708 0.67417 0.0
C2631 C 0.05471 0.72745 0.68544 0.0
C2632 C 0.06531 0.75457 0.63941 0.0
C2633 C 0.04219 0.71474 0.69385 0.0
C2634 C 0.1155 0.80352 0.59969 0.0
C2635 C 0.10403 0.7956 0.61463 0.0
C2636 C 0.09246 0.77091 0.66431 0.0
C2637 C 0.05289 0.73756 0.6716 0.0
C2638 C 0.06615 0.75069 0.66175 0.0
C2639 C 0.10518 0.78597 0.63029 0.0
C2640 C 0.09162 0.77458 0.64185 0.0
H2641 H 0.01465 0.72006 0.67051 0.0
H2642 H 0.03643 0.74234 0.65619 0.0
H2643 H 0.08082 0.75657 0.69154 0.0
H2644 H 0.14006 0.7924 0.61796 0.0
H2645 H 0.11996 0.77843 0.64417 0.0
C2646 C 1.00193 0.64104 0.68671 0.0
C2647 C 0.98618 0.63431 0.68639 0.0
C2648 C 0.00858 0.63192 0.68536 0.0
C2649 C 1.00063 0.59188 0.67604 0.0
H2650 H 0.02686 0.60157 0.72895 0.0
C2651 C 1.00062 0.54682 0.73188 0.0
C2652 C 0.01285 0.55082 0.74681 0.0
C2653 C 1.00129 0.55716 0.71609 0.0
C2654 C 0.01995 0.59877 0.71367 0.0
H2655 H 0.96514 0.61288 0.68199 0.0
H2656 H 0.97668 0.59707 0.6798 0.0
H2657 H 0.02077 0.62024 0.71554 0.0
H2658 H 0.03583 0.5679 0.75572 0.0
H2659 H 0.03736 0.58572 0.72736 0.0
H2660 H 0.99927 0.57007 0.6749 0.0
C2661 C 0.98394 0.60935 0.6811 0.0
C2662 C 0.01642 0.60956 0.70597 0.0
C2663 C 0.9773 0.61843 0.68258 0.0
C2664 C 0.0263 0.56459 0.74422 0.0
C2665 C 0.02707 0.57485 0.72819 0.0
C2666 C 0.00426 0.58108 0.68367 0.0
C2667 C 0.99963 0.61592 0.68348 0.0
C2668 C 0.00619 0.606 0.6877 0.0
C2669 C 0.01426 0.57167 0.7149 0.0
C2670 C 0.01341 0.58414 0.70323 0.0
H2671 H 0.00911 0.65325 0.68946 0.0
H2672 H 0.02071 0.63734 0.68695 0.0
H2673 H 0.9929 0.58889 0.66168 0.0
H2674 H 0.99008 0.53633 0.73387 0.0
H2675 H 0.99114 0.55428 0.70634 0.0
C2676 C 0.39001 0.37025 0.69678 0.0
C2677 C 0.37444 0.36461 0.69736 0.0
C2678 C 0.40009 0.38593 0.69663 0.0
C2679 C 0.4194 0.41996 0.68977 0.0
H2680 H 0.41339 0.44117 0.73985 0.0
C2681 C 0.4521 0.4783 0.75162 0.0
C2682 C 0.46544 0.47795 0.75513 0.0
C2683 C 0.4407 0.46751 0.737 0.0
C2684 C 0.41516 0.43569 0.72536 0.0
H2685 H 0.35721 0.37099 0.69711 0.0
H2686 H 0.37495 0.39852 0.69726 0.0
H2687 H 0.39331 0.41599 0.72759 0.0
H2688 H 0.47785 0.46683 0.74555 0.0
H2689 H 0.45805 0.44791 0.72027 0.0
H2690 H 0.44148 0.43944 0.68808 0.0
C2691 C 0.37928 0.39073 0.69685 0.0
C2692 C 0.40359 0.42117 0.71836 0.0
C2693 C 0.36914 0.37499 0.69669 0.0
C2694 C 0.46772 0.46745 0.74268 0.0
C2695 C 0.45633 0.45661 0.7282 0.0
C2696 C 0.43094 0.43455 0.69664 0.0
C2697 C 0.39488 0.39636 0.6973 0.0
C2698 C 0.40581 0.4129 0.70112 0.0
C2699 C 0.4424 0.45606 0.72596 0.0
C2700 C 0.4292 0.44233 0.71517 0.0
H2701 H 0.39446 0.36256 0.69711 0.0
H2702 H 0.41203 0.38988 0.69723 0.0
H2703 H 0.42134 0.41394 0.67618 0.0
H2704 H 0.45007 0.4862 0.76136 0.0
H2705 H 0.43023 0.46759 0.73539 0.0
C2706 C 0.65551 0.03666 0.68782 0.0
C2707 C 0.65715 0.02461 0.6791 0.0
C2708 C 0.64151 0.03409 0.69441 0.0
C2709 C 0.6042 0.00454 0.71161 0.0
H2710 H 0.59316 0.0347 0.69573 0.0
C2711 C 0.54979 1.00033 0.74305 0.0
C2712 C 0.55241 0.01384 0.75416 0.0
C2713 C 0.56057 1.0005 0.72884 0.0
C2714 C 0.59606 0.02616 0.70025 0.0
H2715 H 0.64544 1.00025 0.67122 0.0
H2716 H 0.62092 0.99575 0.68293 0.0
H2717 H 0.61644 0.03704 0.68226 0.0
H2718 H 0.56763 0.03816 0.75823 0.0
H2719 H 0.58632 0.03858 0.73328 0.0
H2720 H 0.58405 0.99393 0.7302 0.0
C2721 C 0.63051 0.00721 0.68459 0.0
C2722 C 0.60942 0.02753 0.69263 0.0
C2723 C 0.64456 0.00979 0.67791 0.0
C2724 C 0.56533 0.02766 0.74957 0.0
C2725 C 0.57602 0.02786 0.73529 0.0
C2726 C 0.59082 0.00317 0.71927 0.0
C2727 C 0.62879 0.0194 0.6925 0.0
C2728 C 0.61385 0.01697 0.69872 0.0
C2729 C 0.57405 0.0142 0.72548 0.0
C2730 C 0.5868 0.01419 0.71416 0.0
H2731 H 0.66498 0.0482 0.6891 0.0
H2732 H 0.64063 0.04367 0.70094 0.0
H2733 H 0.60733 0.99626 0.71666 0.0
H2734 H 0.53997 0.98952 0.74663 0.0
H2735 H 0.55868 0.98983 0.72133 0.0
loop_
_geom_bond_atom_site_label_1
_geom_bond_atom_site_label_2
_geom_bond_distance
_geom_bond_site_symmetry_2
_ccdc_geom_bond_type
Mg0 O1 2.028 1_556 S
Mg0 O7 1.992 1_455 S
Mg0 O9 2.114 . S
Mg0 O10 2.251 1_455 S
Mg0 O13 2.010 1_556 S
O1 Mg0 2.028 1_554 S
O1 C4 1.250 1_455 S
O2 Mg3 2.028 1_554 S
O2 C4 1.248 . S
Mg3 O2 2.028 1_556 S
Mg3 O8 2.032 . S
Mg3 O10 2.079 . S
C4 O1 1.250 1_655 S
C4 O2 1.248 . S
C5 O6 1.255 1_554 S
C5 O13 1.249 . S
O6 C5 1.255 1_556 S
O7 Mg0 1.992 1_655 S
O7 C11 1.254 . S
O8 Mg3 2.032 . S
O8 C11 1.259 . S
O9 Mg0 2.114 . S
O9 C12 1.252 . S
O10 Mg0 2.251 1_655 S
O10 Mg3 2.079 . S
O10 C12 1.273 1_655 S
C11 O7 1.254 . S
C11 O8 1.259 . S
C12 O9 1.252 . S
C12 O10 1.273 1_455 S
O13 Mg0 2.010 1_554 S
O13 C5 1.249 . S
Mg14 O15 2.028 1_554 S
Mg14 O21 1.986 . S
Mg14 O23 2.114 . S
Mg14 O24 2.251 . S
Mg14 O27 2.010 . S
O15 Mg14 2.028 1_556 S
O15 C18 1.250 . S
O16 Mg17 2.028 1_556 S
O16 C18 1.248 . S
Mg17 O16 2.028 1_554 S
Mg17 O22 2.032 . S
Mg17 O24 2.079 . S
C18 O15 1.250 . S
C18 O16 1.248 . S
C19 O20 1.264 . S
C19 O27 1.249 . S
O20 C19 1.264 . S
O21 Mg14 1.986 . S
O21 C25 1.246 . S
O22 Mg17 2.032 . S
O22 C25 1.259 . S
O23 Mg14 2.114 . S
O23 C26 1.252 . S
O24 Mg14 2.251 . S
O24 Mg17 2.079 . S
O24 C26 1.273 . S
C25 O21 1.246 . S
C25 O22 1.259 . S
C26 O23 1.252 . S
C26 O24 1.273 . S
O27 Mg14 2.010 . S
O27 C19 1.249 . S
Mg28 O29 2.023 1_556 S
Mg28 O35 1.985 1_566 S
Mg28 O37 2.114 . S
Mg28 O38 2.251 1_565 S
Mg28 O41 2.010 1_556 S
O29 Mg28 2.023 1_554 S
O29 C32 1.244 1_565 S
O30 Mg31 2.028 1_554 S
O30 C32 1.248 . S
Mg31 O30 2.028 1_556 S
Mg31 O36 2.032 . S
Mg31 O38 2.079 . S
C32 O29 1.244 1_545 S
C32 O30 1.248 . S
C33 O34 1.264 1_554 S
C33 O41 1.249 . S
O34 C33 1.264 1_556 S
O35 Mg28 1.985 1_544 S
O35 C39 1.243 1_554 S
O36 Mg31 2.032 . S
O36 C39 1.259 . S
O37 Mg28 2.114 . S
O37 C40 1.252 . S
O38 Mg28 2.251 1_545 S
O38 Mg31 2.079 . S
O38 C40 1.273 1_545 S
C39 O35 1.243 1_556 S
C39 O36 1.259 . S
C40 O37 1.252 . S
C40 O38 1.273 1_565 S
O41 Mg28 2.010 1_554 S
O41 C33 1.249 . S
Mg42 O43 2.056 1_554 S
Mg42 O49 1.986 1_655 S
Mg42 O51 2.114 . S
Mg42 O52 2.251 1_655 S
Mg42 O55 2.010 . S
O43 Mg42 2.056 1_556 S
O43 C46 1.178 1_655 S
O44 Mg45 2.028 1_556 S
O44 C46 1.248 . S
Mg45 O44 2.028 1_554 S
Mg45 O50 2.032 . S
Mg45 O52 2.079 . S
C46 O43 1.178 1_455 S
C46 O44 1.248 . S
C47 O48 1.264 . S
C47 O55 1.249 . S
O48 C47 1.264 . S
O49 Mg42 1.986 1_455 S
O49 C53 1.246 . S
O50 Mg45 2.032 . S
O50 C53 1.259 . S
O51 Mg42 2.114 . S
O51 C54 1.252 . S
O52 Mg42 2.251 1_455 S
O52 Mg45 2.079 . S
O52 C54 1.273 1_455 S
C53 O49 1.246 . S
C53 O50 1.259 . S
C54 O51 1.252 . S
C54 O52 1.273 1_655 S
O55 Mg42 2.010 . S
O55 C47 1.249 . S
Mg56 O57 2.028 1_556 S
Mg56 O63 1.985 1_556 S
Mg56 O65 2.114 . S
Mg56 O66 2.251 . S
Mg56 O69 2.010 1_556 S
O57 Mg56 2.028 1_554 S
O57 C60 1.250 . S
O58 Mg59 2.028 1_554 S
O58 C60 1.248 . S
Mg59 O58 2.028 1_556 S
Mg59 O64 2.032 . S
Mg59 O66 2.079 . S
C60 O57 1.250 . S
C60 O58 1.248 . S
C61 O62 1.264 . S
C61 O69 1.249 . S
O62 C61 1.264 . S
O63 Mg56 1.985 1_554 S
O63 C67 1.242 1_554 S
O64 Mg59 2.032 . S
O64 C67 1.259 . S
O65 Mg56 2.114 . S
O65 C68 1.252 . S
O66 Mg56 2.251 . S
O66 Mg59 2.079 . S
O66 C68 1.273 . S
C67 O63 1.242 1_556 S
C67 O64 1.259 . S
C68 O65 1.252 . S
C68 O66 1.273 . S
O69 Mg56 2.010 1_554 S
O69 C61 1.249 . S
Mg70 O71 2.028 1_554 S
Mg70 O77 1.986 1_545 S
Mg70 O79 2.114 . S
Mg70 O80 2.251 1_545 S
Mg70 O83 2.010 . S
O71 Mg70 2.028 1_556 S
O71 C74 1.250 1_545 S
O72 Mg73 1.983 1_556 S
O72 C74 1.275 . S
Mg73 O72 1.983 1_554 S
Mg73 O78 2.032 . S
Mg73 O80 2.079 . S
C74 O71 1.250 1_565 S
C74 O72 1.275 . S
C75 O76 1.264 . S
C75 O83 1.249 . S
O76 C75 1.264 . S
O77 Mg70 1.986 1_565 S
O77 C81 1.246 . S
O78 Mg73 2.032 . S
O78 C81 1.259 . S
O79 Mg70 2.114 . S
O79 C82 1.252 . S
O80 Mg70 2.251 1_565 S
O80 Mg73 2.079 . S
O80 C82 1.273 1_565 S
C81 O77 1.246 . S
C81 O78 1.259 . S
C82 O79 1.252 . S
C82 O80 1.273 1_545 S
O83 Mg70 2.010 . S
O83 C75 1.249 . S
Mg84 O85 2.028 . S
Mg84 O91 1.986 . S
Mg84 O93 2.114 . S
Mg84 O94 2.251 . S
Mg84 O97 2.010 . S
O85 Mg84 2.028 . S
O85 C88 1.250 . S
O86 Mg87 2.028 . S
O86 C88 1.248 . S
Mg87 O86 2.028 . S
Mg87 O92 2.032 . S
Mg87 O94 2.079 . S
C88 O85 1.250 . S
C88 O86 1.248 . S
C89 O90 1.264 . S
C89 O97 1.249 . S
O90 C89 1.264 . S
O91 Mg84 1.986 . S
O91 C95 1.246 . S
O92 Mg87 2.032 . S
O92 C95 1.259 . S
O93 Mg84 2.114 . S
O93 C96 1.252 . S
O94 Mg84 2.251 . S
O94 Mg87 2.079 . S
O94 C96 1.273 . S
C95 O91 1.246 . S
C95 O92 1.259 . S
C96 O93 1.252 . S
C96 O94 1.273 . S
O97 Mg84 2.010 . S
O97 C89 1.249 . S
Mg98 O99 2.028 . S
Mg98 O105 1.986 1_565 S
Mg98 O107 2.114 . S
Mg98 O108 2.251 . S
Mg98 O111 2.010 . S
O99 Mg98 2.028 . S
O99 C102 1.250 . S
O100 Mg101 2.028 . S
O100 C102 1.248 . S
Mg101 O100 2.028 . S
Mg101 O106 2.032 1_565 S
Mg101 O108 2.079 . S
C102 O99 1.250 . S
C102 O100 1.248 . S
C103 O104 1.264 . S
C103 O111 1.249 . S
O104 C103 1.264 . S
O105 Mg98 1.986 1_545 S
O105 C109 1.246 . S
O106 Mg101 2.032 1_545 S
O106 C109 1.259 . S
O107 Mg98 2.114 . S
O107 C110 1.252 . S
O108 Mg98 2.251 . S
O108 Mg101 2.079 . S
O108 C110 1.273 . S
C109 O105 1.246 . S
C109 O106 1.259 . S
C110 O107 1.252 . S
C110 O108 1.273 . S
O111 Mg98 2.010 . S
O111 C103 1.249 . S
Mg112 O113 2.028 . S
Mg112 O119 1.986 . S
Mg112 O121 2.114 . S
Mg112 O122 2.251 . S
Mg112 O125 2.010 1_455 S
O113 Mg112 2.028 . S
O113 C116 1.250 . S
O114 Mg115 2.028 . S
O114 C116 1.248 . S
Mg115 O114 2.028 . S
Mg115 O120 2.032 . S
Mg115 O122 2.079 . S
C116 O113 1.250 . S
C116 O114 1.248 . S
C117 O118 1.264 . S
C117 O125 1.249 . S
O118 C117 1.264 . S
O119 Mg112 1.986 . S
O119 C123 1.246 . S
O120 Mg115 2.032 . S
O120 C123 1.259 . S
O121 Mg112 2.114 . S
O121 C124 1.252 . S
O122 Mg112 2.251 . S
O122 Mg115 2.079 . S
O122 C124 1.273 . S
C123 O119 1.246 . S
C123 O120 1.259 . S
C124 O121 1.252 . S
C124 O122 1.273 . S
O125 Mg112 2.010 1_655 S
O125 C117 1.249 . S
Mg126 O127 2.028 . S
Mg126 O133 1.986 1_565 S
Mg126 O135 2.114 . S
Mg126 O136 2.251 . S
Mg126 O139 2.010 . S
O127 Mg126 2.028 . S
O127 C130 1.250 . S
O128 Mg129 2.028 . S
O128 C130 1.248 . S
Mg129 O128 2.028 . S
Mg129 O134 2.012 1_565 S
Mg129 O136 2.079 . S
C130 O127 1.250 . S
C130 O128 1.248 . S
C131 O132 1.264 . S
C131 O139 1.249 . S
O132 C131 1.264 . S
O133 Mg126 1.986 1_545 S
O133 C137 1.246 . S
O134 Mg129 2.012 1_545 S
O134 C137 1.278 . S
O135 Mg126 2.114 . S
O135 C138 1.252 . S
O136 Mg126 2.251 . S
O136 Mg129 2.079 . S
O136 C138 1.273 . S
C137 O133 1.246 . S
C137 O134 1.278 . S
C138 O135 1.252 . S
C138 O136 1.273 . S
O139 Mg126 2.010 . S
O139 C131 1.249 . S
Mg140 O141 2.028 . S
Mg140 O147 1.986 . S
Mg140 O149 2.114 . S
Mg140 O150 2.251 . S
Mg140 O153 2.010 1_455 S
O141 Mg140 2.028 . S
O141 C144 1.250 . S
O142 Mg143 2.028 . S
O142 C144 1.248 . S
Mg143 O142 2.028 . S
Mg143 O148 2.032 . S
Mg143 O150 2.079 . S
C144 O141 1.250 . S
C144 O142 1.248 . S
C145 O146 1.264 . S
C145 O153 1.249 . S
O146 C145 1.264 . S
O147 Mg140 1.986 . S
O147 C151 1.246 . S
O148 Mg143 2.032 . S
O148 C151 1.259 . S
O149 Mg140 2.114 . S
O149 C152 1.252 . S
O150 Mg140 2.251 . S
O150 Mg143 2.079 . S
O150 C152 1.273 . S
C151 O147 1.246 . S
C151 O148 1.259 . S
C152 O149 1.252 . S
C152 O150 1.273 . S
O153 Mg140 2.010 1_655 S
O153 C145 1.249 . S
Mg154 O155 2.028 . S
Mg154 O161 1.986 . S
Mg154 O163 2.114 . S
Mg154 O164 2.251 . S
Mg154 O167 2.010 . S
O155 Mg154 2.028 . S
O155 C158 1.250 . S
O156 Mg157 2.028 . S
O156 C158 1.248 . S
Mg157 O156 2.028 . S
Mg157 O162 2.032 . S
Mg157 O164 2.079 . S
C158 O155 1.250 . S
C158 O156 1.248 . S
C159 O160 1.264 . S
C159 O167 1.249 . S
O160 C159 1.264 . S
O161 Mg154 1.986 . S
O161 C165 1.246 . S
O162 Mg157 2.032 . S
O162 C165 1.259 . S
O163 Mg154 2.114 . S
O163 C166 1.252 . S
O164 Mg154 2.251 . S
O164 Mg157 2.079 . S
O164 C166 1.273 . S
C165 O161 1.246 . S
C165 O162 1.259 . S
C166 O163 1.252 . S
C166 O164 1.273 . S
O167 Mg154 2.010 . S
O167 C159 1.249 . S
Mg168 O169 2.028 . S
Mg168 O175 1.954 1_545 S
Mg168 O177 2.114 . S
Mg168 O178 2.251 . S
Mg168 O181 2.010 . S
O169 Mg168 2.028 . S
O169 C172 1.250 . S
O170 Mg171 2.028 . S
O170 C172 1.248 . S
Mg171 O170 2.028 . S
Mg171 O176 2.032 . S
Mg171 O178 2.079 . S
C172 O169 1.250 . S
C172 O170 1.248 . S
C173 O174 1.264 . S
C173 O181 1.249 . S
O174 C173 1.264 . S
O175 Mg168 1.954 1_565 S
O175 C179 1.239 . S
O176 Mg171 2.032 . S
O176 C179 1.259 1_545 S
O177 Mg168 2.114 . S
O177 C180 1.252 . S
O178 Mg168 2.251 . S
O178 Mg171 2.079 . S
O178 C180 1.273 . S
C179 O175 1.239 . S
C179 O176 1.259 1_565 S
C180 O177 1.252 . S
C180 O178 1.273 . S
O181 Mg168 2.010 . S
O181 C173 1.249 . S
Mg182 O183 2.028 . S
Mg182 O189 1.986 . S
Mg182 O191 2.114 . S
Mg182 O192 2.251 . S
Mg182 O195 2.010 1_655 S
O183 Mg182 2.028 . S
O183 C186 1.250 . S
O184 Mg185 2.028 . S
O184 C186 1.248 . S
Mg185 O184 2.028 . S
Mg185 O190 2.032 . S
Mg185 O192 2.079 . S
C186 O183 1.250 . S
C186 O184 1.248 . S
C187 O188 1.264 . S
C187 O195 1.249 . S
O188 C187 1.264 . S
O189 Mg182 1.986 . S
O189 C193 1.246 . S
O190 Mg185 2.032 . S
O190 C193 1.259 . S
O191 Mg182 2.114 . S
O191 C194 1.252 . S
O192 Mg182 2.251 . S
O192 Mg185 2.079 . S
O192 C194 1.273 . S
C193 O189 1.246 . S
C193 O190 1.259 . S
C194 O191 1.252 . S
C194 O192 1.273 . S
O195 Mg182 2.010 1_455 S
O195 C187 1.249 . S
Mg196 O197 2.028 . S
Mg196 O203 1.986 . S
Mg196 O205 2.114 . S
Mg196 O206 2.251 . S
Mg196 O209 2.010 . S
O197 Mg196 2.028 . S
O197 C200 1.250 . S
O198 Mg199 2.028 . S
O198 C200 1.248 . S
Mg199 O198 2.028 . S
Mg199 O204 2.032 . S
Mg199 O206 2.079 . S
C200 O197 1.250 . S
C200 O198 1.248 . S
C201 O202 1.264 . S
C201 O209 1.249 . S
O202 C201 1.264 . S
O203 Mg196 1.986 . S
O203 C207 1.246 . S
O204 Mg199 2.032 . S
O204 C207 1.259 . S
O205 Mg196 2.114 . S
O205 C208 1.252 . S
O206 Mg196 2.251 . S
O206 Mg199 2.079 . S
O206 C208 1.273 . S
C207 O203 1.246 . S
C207 O204 1.259 . S
C208 O205 1.252 . S
C208 O206 1.273 . S
O209 Mg196 2.010 . S
O209 C201 1.249 . S
Mg210 O211 2.028 . S
Mg210 O217 1.986 . S
Mg210 O219 2.114 . S
Mg210 O220 2.251 . S
Mg210 O223 2.010 . S
O211 Mg210 2.028 . S
O211 C214 1.250 . S
O212 Mg213 2.028 . S
O212 C214 1.248 . S
Mg213 O212 2.028 . S
Mg213 O218 2.032 . S
Mg213 O220 2.079 . S
C214 O211 1.250 . S
C214 O212 1.248 . S
C215 O216 1.264 . S
C215 O223 1.249 . S
O216 C215 1.264 . S
O217 Mg210 1.986 . S
O217 C221 1.246 . S
O218 Mg213 2.032 . S
O218 C221 1.259 . S
O219 Mg210 2.114 . S
O219 C222 1.252 . S
O220 Mg210 2.251 . S
O220 Mg213 2.079 . S
O220 C222 1.273 . S
C221 O217 1.246 . S
C221 O218 1.259 . S
C222 O219 1.252 . S
C222 O220 1.273 . S
O223 Mg210 2.010 . S
O223 C215 1.249 . S
Mg224 O225 2.028 . S
Mg224 O231 1.986 1_545 S
Mg224 O233 2.114 . S
Mg224 O234 2.251 . S
Mg224 O237 2.010 . S
O225 Mg224 2.028 . S
O225 C228 1.250 . S
O226 Mg227 2.028 . S
O226 C228 1.248 . S
Mg227 O226 2.028 . S
Mg227 O232 2.019 1_545 S
Mg227 O234 2.079 . S
C228 O225 1.250 . S
C228 O226 1.248 . S
C229 O230 1.264 . S
C229 O237 1.249 . S
O230 C229 1.264 . S
O231 Mg224 1.986 1_565 S
O231 C235 1.246 . S
O232 Mg227 2.019 1_565 S
O232 C235 1.261 . S
O233 Mg224 2.114 . S
O233 C236 1.252 . S
O234 Mg224 2.251 . S
O234 Mg227 2.079 . S
O234 C236 1.273 . S
C235 O231 1.246 . S
C235 O232 1.261 . S
C236 O233 1.252 . S
C236 O234 1.273 . S
O237 Mg224 2.010 . S
O237 C229 1.249 . S
Mg238 O239 2.028 . S
Mg238 O245 1.986 . S
Mg238 O247 2.114 . S
Mg238 O248 2.251 . S
Mg238 O251 2.010 1_655 S
O239 Mg238 2.028 . S
O239 C242 1.250 . S
O240 Mg241 2.028 . S
O240 C242 1.248 . S
Mg241 O240 2.028 . S
Mg241 O246 2.032 . S
Mg241 O248 2.079 . S
C242 O239 1.250 . S
C242 O240 1.248 . S
C243 O244 1.264 . S
C243 O251 1.249 . S
O244 C243 1.264 . S
O245 Mg238 1.986 . S
O245 C249 1.246 . S
O246 Mg241 2.032 . S
O246 C249 1.259 . S
O247 Mg238 2.114 . S
O247 C250 1.252 . S
O248 Mg238 2.251 . S
O248 Mg241 2.079 . S
O248 C250 1.273 . S
C249 O245 1.246 . S
C249 O246 1.259 . S
C250 O247 1.252 . S
C250 O248 1.273 . S
O251 Mg238 2.010 1_455 S
O251 C243 1.249 . S
H252 C258 0.930 . S
H253 C261 0.931 . S
H254 C263 0.931 . S
H255 C265 0.930 . S
H256 C267 0.930 . S
H257 C269 0.931 . S
C258 H252 0.930 . S
C258 C259 1.380 . S
C258 C260 1.394 . S
C259 C258 1.380 . S
C259 C263 1.382 . S
C260 C258 1.394 . S
C260 C261 1.400 . S
C261 H253 0.931 . S
C261 C260 1.400 . S
C261 C262 1.375 . S
C262 C261 1.375 . S
C262 C263 1.415 . S
C262 C264 1.501 . S
C263 H254 0.931 . S
C263 C259 1.382 . S
C263 C262 1.415 . S
C264 C262 1.501 . S
C264 C265 1.384 . S
C264 C269 1.408 . S
C265 H255 0.930 . S
C265 C264 1.384 . S
C265 C266 1.389 . S
C266 C265 1.389 . S
C266 C267 1.405 . S
C267 H256 0.930 . S
C267 C266 1.405 . S
C267 C268 1.364 . S
C268 C267 1.364 . S
C268 C269 1.400 . S
C269 H257 0.931 . S
C269 C264 1.408 . S
C269 C268 1.400 . S
H270 C276 0.930 . S
H271 C279 0.931 . S
H272 C281 0.931 . S
H273 C283 0.930 . S
H274 C285 0.930 . S
H275 C287 0.931 . S
C276 H270 0.930 . S
C276 C277 1.380 . S
C276 C278 1.394 . S
C277 C276 1.380 . S
C277 C281 1.382 . S
C278 C276 1.394 . S
C278 C279 1.400 . S
C279 H271 0.931 . S
C279 C278 1.400 . S
C279 C280 1.375 . S
C280 C279 1.375 . S
C280 C281 1.415 . S
C280 C282 1.501 . S
C281 H272 0.931 . S
C281 C277 1.382 . S
C281 C280 1.415 . S
C282 C280 1.501 . S
C282 C283 1.384 . S
C282 C287 1.408 . S
C283 H273 0.930 . S
C283 C282 1.384 . S
C283 C284 1.389 . S
C284 C283 1.389 . S
C284 C285 1.405 . S
C285 H274 0.930 . S
C285 C284 1.405 . S
C285 C286 1.364 . S
C286 C285 1.364 . S
C286 C287 1.400 . S
C287 H275 0.931 . S
C287 C282 1.408 . S
C287 C286 1.400 . S
H288 C294 0.930 . S
H289 C297 0.931 . S
H290 C299 0.931 . S
H291 C301 0.930 . S
H292 C303 0.930 . S
H293 C305 0.931 . S
C294 H288 0.930 . S
C294 C295 1.380 . S
C294 C296 1.394 . S
C295 C294 1.380 . S
C295 C299 1.382 . S
C296 C294 1.394 . S
C296 C297 1.400 . S
C297 H289 0.931 . S
C297 C296 1.400 . S
C297 C298 1.375 . S
C298 C297 1.375 . S
C298 C299 1.415 . S
C298 C300 1.501 . S
C299 H290 0.931 . S
C299 C295 1.382 . S
C299 C298 1.415 . S
C300 C298 1.501 . S
C300 C301 1.384 . S
C300 C305 1.408 . S
C301 H291 0.930 . S
C301 C300 1.384 . S
C301 C302 1.389 . S
C302 C301 1.389 . S
C302 C303 1.405 . S
C303 H292 0.930 . S
C303 C302 1.405 . S
C303 C304 1.364 . S
C304 C303 1.364 . S
C304 C305 1.400 . S
C305 H293 0.931 . S
C305 C300 1.408 . S
C305 C304 1.400 . S
H306 C312 0.930 . S
H307 C315 0.931 . S
H308 C317 0.931 . S
H309 C319 0.930 . S
H310 C321 0.930 . S
H311 C323 0.931 . S
C312 H306 0.930 . S
C312 C313 1.380 . S
C312 C314 1.394 . S
C313 C312 1.380 . S
C313 C317 1.382 . S
C314 C312 1.394 . S
C314 C315 1.400 . S
C315 H307 0.931 . S
C315 C314 1.400 . S
C315 C316 1.375 . S
C316 C315 1.375 . S
C316 C317 1.415 . S
C316 C318 1.501 . S
C317 H308 0.931 . S
C317 C313 1.382 . S
C317 C316 1.415 . S
C318 C316 1.501 . S
C318 C319 1.384 . S
C318 C323 1.408 . S
C319 H309 0.930 . S
C319 C318 1.384 . S
C319 C320 1.389 . S
C320 C319 1.389 . S
C320 C321 1.405 . S
C321 H310 0.930 . S
C321 C320 1.405 . S
C321 C322 1.364 . S
C322 C321 1.364 . S
C322 C323 1.400 . S
C323 H311 0.931 . S
C323 C318 1.408 . S
C323 C322 1.400 . S
H324 C330 0.930 . S
H325 C333 0.931 . S
H326 C335 0.931 . S
H327 C337 0.930 . S
H328 C339 0.930 . S
H329 C341 0.931 . S
C330 H324 0.930 . S
C330 C331 1.380 . S
C330 C332 1.394 . S
C331 C330 1.380 . S
C331 C335 1.382 . S
C332 C330 1.394 . S
C332 C333 1.400 . S
C333 H325 0.931 . S
C333 C332 1.400 . S
C333 C334 1.375 . S
C334 C333 1.375 . S
C334 C335 1.415 . S
C334 C336 1.501 . S
C335 H326 0.931 . S
C335 C331 1.382 . S
C335 C334 1.415 . S
C336 C334 1.501 . S
C336 C337 1.384 . S
C336 C341 1.408 . S
C337 H327 0.930 . S
C337 C336 1.384 . S
C337 C338 1.389 . S
C338 C337 1.389 . S
C338 C339 1.405 . S
C339 H328 0.930 . S
C339 C338 1.405 . S
C339 C340 1.364 . S
C340 C339 1.364 . S
C340 C341 1.400 . S
C341 H329 0.931 . S
C341 C336 1.408 . S
C341 C340 1.400 . S
H342 C348 0.930 . S
H343 C351 0.931 . S
H344 C353 0.931 . S
H345 C355 0.930 . S
H346 C357 0.930 . S
H347 C359 0.931 . S
C348 H342 0.930 . S
C348 C349 1.380 . S
C348 C350 1.394 . S
C349 C348 1.380 . S
C349 C353 1.382 . S
C350 C348 1.394 . S
C350 C351 1.400 . S
C351 H343 0.931 . S
C351 C350 1.400 . S
C351 C352 1.375 . S
C352 C351 1.375 . S
C352 C353 1.415 . S
C352 C354 1.501 . S
C353 H344 0.931 . S
C353 C349 1.382 . S
C353 C352 1.415 . S
C354 C352 1.501 . S
C354 C355 1.384 . S
C354 C359 1.408 . S
C355 H345 0.930 . S
C355 C354 1.384 . S
C355 C356 1.389 . S
C356 C355 1.389 . S
C356 C357 1.405 . S
C357 H346 0.930 . S
C357 C356 1.405 . S
C357 C358 1.364 . S
C358 C357 1.364 . S
C358 C359 1.400 . S
C359 H347 0.931 . S
C359 C354 1.408 . S
C359 C358 1.400 . S
H360 C366 0.930 . S
H361 C369 0.931 . S
H362 C371 0.931 . S
H363 C373 0.930 . S
H364 C375 0.930 . S
H365 C377 0.931 . S
C366 H360 0.930 . S
C366 C367 1.380 . S
C366 C368 1.394 . S
C367 C366 1.380 . S
C367 C371 1.382 . S
C368 C366 1.394 . S
C368 C369 1.400 . S
C369 H361 0.931 . S
C369 C368 1.400 . S
C369 C370 1.375 . S
C370 C369 1.375 . S
C370 C371 1.415 . S
C370 C372 1.501 . S
C371 H362 0.931 . S
C371 C367 1.382 . S
C371 C370 1.415 . S
C372 C370 1.501 . S
C372 C373 1.384 . S
C372 C377 1.408 . S
C373 H363 0.930 . S
C373 C372 1.384 . S
C373 C374 1.389 . S
C374 C373 1.389 . S
C374 C375 1.405 . S
C375 H364 0.930 . S
C375 C374 1.405 . S
C375 C376 1.364 . S
C376 C375 1.364 . S
C376 C377 1.400 . S
C377 H365 0.931 . S
C377 C372 1.408 . S
C377 C376 1.400 . S
H378 C384 0.930 . S
H379 C387 0.931 . S
H380 C389 0.931 . S
H381 C391 0.930 . S
H382 C393 0.930 . S
H383 C395 0.931 . S
C384 H378 0.930 . S
C384 C385 1.380 . S
C384 C386 1.394 . S
C385 C384 1.380 . S
C385 C389 1.382 . S
C386 C384 1.394 . S
C386 C387 1.400 . S
C387 H379 0.931 . S
C387 C386 1.400 . S
C387 C388 1.375 . S
C388 C387 1.375 . S
C388 C389 1.415 . S
C388 C390 1.501 . S
C389 H380 0.931 . S
C389 C385 1.382 . S
C389 C388 1.415 . S
C390 C388 1.501 . S
C390 C391 1.384 . S
C390 C395 1.408 . S
C391 H381 0.930 . S
C391 C390 1.384 . S
C391 C392 1.389 . S
C392 C391 1.389 . S
C392 C393 1.405 . S
C393 H382 0.930 . S
C393 C392 1.405 . S
C393 C394 1.364 . S
C394 C393 1.364 . S
C394 C395 1.400 . S
C395 H383 0.931 . S
C395 C390 1.408 . S
C395 C394 1.400 . S
H396 C402 0.930 . S
H397 C405 0.931 . S
H398 C407 0.931 . S
H399 C409 0.930 . S
H400 C411 0.930 . S
H401 C413 0.931 . S
C402 H396 0.930 . S
C402 C403 1.380 . S
C402 C404 1.394 . S
C403 C402 1.380 . S
C403 C407 1.382 . S
C404 C402 1.394 . S
C404 C405 1.400 . S
C405 H397 0.931 . S
C405 C404 1.400 . S
C405 C406 1.375 . S
C406 C405 1.375 . S
C406 C407 1.415 . S
C406 C408 1.501 . S
C407 H398 0.931 . S
C407 C403 1.382 . S
C407 C406 1.415 . S
C408 C406 1.501 . S
C408 C409 1.384 . S
C408 C413 1.408 . S
C409 H399 0.930 . S
C409 C408 1.384 . S
C409 C410 1.389 . S
C410 C409 1.389 . S
C410 C411 1.405 . S
C411 H400 0.930 . S
C411 C410 1.405 . S
C411 C412 1.364 . S
C412 C411 1.364 . S
C412 C413 1.400 . S
C413 H401 0.931 . S
C413 C408 1.408 . S
C413 C412 1.400 . S
H414 C420 0.966 . S
H415 C423 0.931 . S
H416 C425 0.931 . S
H417 C427 0.930 . S
H418 C429 0.894 . S
H419 C431 0.937 1_655 S
C420 H414 0.966 . S
C420 C421 1.381 . S
C420 C422 1.394 1_655 S
C421 C420 1.381 . S
C421 C425 1.382 . S
C422 C420 1.394 1_455 S
C422 C423 1.400 . S
C423 H415 0.931 . S
C423 C422 1.400 . S
C423 C424 1.375 . S
C424 C423 1.375 . S
C424 C425 1.415 1_455 S
C424 C426 1.501 . S
C425 H416 0.931 . S
C425 C421 1.382 . S
C425 C424 1.415 1_655 S
C426 C424 1.501 . S
C426 C427 1.384 . S
C426 C431 1.419 . S
C427 H417 0.930 . S
C427 C426 1.384 . S
C427 C428 1.389 . S
C428 C427 1.389 . S
C428 C429 1.429 . S
C429 H418 0.894 . S
C429 C428 1.429 . S
C429 C430 1.379 . S
C430 C429 1.379 . S
C430 C431 1.391 . S
C431 H419 0.937 1_455 S
C431 C426 1.419 . S
C431 C430 1.391 . S
H432 C438 0.930 . S
H433 C441 0.931 . S
H434 C443 0.931 . S
H435 C445 0.930 . S
H436 C447 0.930 . S
H437 C449 0.931 . S
C438 H432 0.930 . S
C438 C439 1.380 . S
C438 C440 1.394 . S
C439 C438 1.380 . S
C439 C443 1.382 . S
C440 C438 1.394 . S
C440 C441 1.400 . S
C441 H433 0.931 . S
C441 C440 1.400 . S
C441 C442 1.375 . S
C442 C441 1.375 . S
C442 C443 1.415 . S
C442 C444 1.501 . S
C443 H434 0.931 . S
C443 C439 1.382 . S
C443 C442 1.415 . S
C444 C442 1.501 . S
C444 C445 1.384 . S
C444 C449 1.408 . S
C445 H435 0.930 . S
C445 C444 1.384 . S
C445 C446 1.389 . S
C446 C445 1.389 . S
C446 C447 1.405 . S
C447 H436 0.930 . S
C447 C446 1.405 . S
C447 C448 1.364 . S
C448 C447 1.364 . S
C448 C449 1.400 . S
C449 H437 0.931 . S
C449 C444 1.408 . S
C449 C448 1.400 . S
H450 C456 0.887 . S
H451 C459 0.931 . S
H452 C461 0.931 . S
H453 C463 0.930 . S
H454 C465 0.980 . S
H455 C467 0.920 . S
C456 H450 0.887 . S
C456 C457 1.379 . S
C456 C458 1.390 1_545 S
C457 C456 1.379 . S
C457 C461 1.382 . S
C458 C456 1.390 1_565 S
C458 C459 1.400 . S
C459 H451 0.931 . S
C459 C458 1.400 . S
C459 C460 1.375 . S
C460 C459 1.375 . S
C460 C461 1.415 1_565 S
C460 C462 1.501 . S
C461 H452 0.931 . S
C461 C457 1.382 . S
C461 C460 1.415 1_545 S
C462 C460 1.501 . S
C462 C463 1.384 . S
C462 C467 1.397 . S
C463 H453 0.930 . S
C463 C462 1.384 . S
C463 C464 1.350 . S
C464 C463 1.350 . S
C464 C465 1.404 . S
C465 H454 0.980 . S
C465 C464 1.404 . S
C465 C466 1.351 . S
C466 C465 1.351 . S
C466 C467 1.409 . S
C467 H455 0.920 . S
C467 C462 1.397 . S
C467 C466 1.409 . S
H468 C474 0.909 . S
H469 C477 0.931 . S
H470 C479 0.931 1_545 S
H471 C481 0.930 . S
H472 C483 0.894 . S
H473 C485 0.931 . S
C474 H468 0.909 . S
C474 C475 1.385 . S
C474 C476 1.414 1_545 S
C475 C474 1.385 . S
C475 C479 1.401 1_545 S
C476 C474 1.414 1_565 S
C476 C477 1.385 . S
C477 H469 0.931 . S
C477 C476 1.385 . S
C477 C478 1.375 . S
C478 C477 1.375 . S
C478 C479 1.413 . S
C478 C480 1.501 . S
C479 H470 0.931 1_565 S
C479 C475 1.401 1_565 S
C479 C478 1.413 . S
C480 C478 1.501 . S
C480 C481 1.384 . S
C480 C485 1.408 1_565 S
C481 H471 0.930 . S
C481 C480 1.384 . S
C481 C482 1.389 . S
C482 C481 1.389 . S
C482 C483 1.440 . S
C483 H472 0.894 . S
C483 C482 1.440 . S
C483 C484 1.374 1_565 S
C484 C483 1.374 1_545 S
C484 C485 1.400 . S
C485 H473 0.931 . S
C485 C480 1.408 1_545 S
C485 C484 1.400 . S
H486 C492 0.963 . S
H487 C495 0.931 . S
H488 C497 0.934 . S
H489 C499 0.930 . S
H490 C501 0.981 . S
H491 C503 0.931 . S
C492 H486 0.963 . S
C492 C493 1.373 . S
C492 C494 1.371 1_655 S
C493 C492 1.373 . S
C493 C497 1.360 1_655 S
C494 C492 1.371 1_455 S
C494 C495 1.413 . S
C495 H487 0.931 . S
C495 C494 1.413 . S
C495 C496 1.375 . S
C496 C495 1.375 . S
C496 C497 1.419 . S
C496 C498 1.501 . S
C497 H488 0.934 . S
C497 C493 1.360 1_455 S
C497 C496 1.419 . S
C498 C496 1.501 . S
C498 C499 1.384 . S
C498 C503 1.408 1_455 S
C499 H489 0.930 . S
C499 C498 1.384 . S
C499 C500 1.389 . S
C500 C499 1.389 . S
C500 C501 1.395 . S
C501 H490 0.981 . S
C501 C500 1.395 . S
C501 C502 1.331 1_455 S
C502 C501 1.331 1_655 S
C502 C503 1.400 . S
C503 H491 0.931 . S
C503 C498 1.408 1_655 S
C503 C502 1.400 . S
H504 C510 0.930 . S
H505 C513 0.931 . S
H506 C515 0.931 . S
H507 C517 0.930 . S
H508 C519 0.930 . S
H509 C521 0.931 . S
C510 H504 0.930 . S
C510 C511 1.380 . S
C510 C512 1.394 . S
C511 C510 1.380 . S
C511 C515 1.382 . S
C512 C510 1.394 . S
C512 C513 1.400 . S
C513 H505 0.931 . S
C513 C512 1.400 . S
C513 C514 1.375 . S
C514 C513 1.375 . S
C514 C515 1.415 . S
C514 C516 1.501 . S
C515 H506 0.931 . S
C515 C511 1.382 . S
C515 C514 1.415 . S
C516 C514 1.501 . S
C516 C517 1.384 . S
C516 C521 1.408 . S
C517 H507 0.930 . S
C517 C516 1.384 . S
C517 C518 1.389 . S
C518 C517 1.389 . S
C518 C519 1.405 . S
C519 H508 0.930 . S
C519 C518 1.405 . S
C519 C520 1.364 . S
C520 C519 1.364 . S
C520 C521 1.400 . S
C521 H509 0.931 . S
C521 C516 1.408 . S
C521 C520 1.400 . S
H522 C528 0.930 . S
H523 C531 0.931 . S
H524 C533 0.931 . S
H525 C535 0.930 . S
H526 C537 0.930 . S
H527 C539 0.931 . S
C528 H522 0.930 . S
C528 C529 1.380 . S
C528 C530 1.394 . S
C529 C528 1.380 . S
C529 C533 1.382 . S
C530 C528 1.394 . S
C530 C531 1.400 . S
C531 H523 0.931 . S
C531 C530 1.400 . S
C531 C532 1.375 . S
C532 C531 1.375 . S
C532 C533 1.415 . S
C532 C534 1.501 . S
C533 H524 0.931 . S
C533 C529 1.382 . S
C533 C532 1.415 . S
C534 C532 1.501 . S
C534 C535 1.384 . S
C534 C539 1.408 . S
C535 H525 0.930 . S
C535 C534 1.384 . S
C535 C536 1.389 . S
C536 C535 1.389 . S
C536 C537 1.405 . S
C537 H526 0.930 . S
C537 C536 1.405 . S
C537 C538 1.364 . S
C538 C537 1.364 . S
C538 C539 1.400 . S
C539 H527 0.931 . S
C539 C534 1.408 . S
C539 C538 1.400 . S
H540 C546 0.930 . S
H541 C549 0.931 . S
H542 C551 0.931 . S
H543 C553 0.930 . S
H544 C555 0.930 . S
H545 C557 0.931 . S
C546 H540 0.930 . S
C546 C547 1.380 . S
C546 C548 1.394 . S
C547 C546 1.380 . S
C547 C551 1.382 . S
C548 C546 1.394 . S
C548 C549 1.400 . S
C549 H541 0.931 . S
C549 C548 1.400 . S
C549 C550 1.375 . S
C550 C549 1.375 . S
C550 C551 1.415 . S
C550 C552 1.501 . S
C551 H542 0.931 . S
C551 C547 1.382 . S
C551 C550 1.415 . S
C552 C550 1.501 . S
C552 C553 1.384 . S
C552 C557 1.408 . S
C553 H543 0.930 . S
C553 C552 1.384 . S
C553 C554 1.389 . S
C554 C553 1.389 . S
C554 C555 1.405 . S
C555 H544 0.930 . S
C555 C554 1.405 . S
C555 C556 1.364 . S
C556 C555 1.364 . S
C556 C557 1.400 . S
C557 H545 0.931 . S
C557 C552 1.408 . S
C557 C556 1.400 . S
H558 C564 0.930 . S
H559 C567 0.931 . S
H560 C569 0.931 . S
H561 C571 0.930 . S
H562 C573 0.930 . S
H563 C575 0.931 . S
C564 H558 0.930 . S
C564 C565 1.380 . S
C564 C566 1.394 . S
C565 C564 1.380 . S
C565 C569 1.382 . S
C566 C564 1.394 . S
C566 C567 1.400 . S
C567 H559 0.931 . S
C567 C566 1.400 . S
C567 C568 1.375 . S
C568 C567 1.375 . S
C568 C569 1.415 . S
C568 C570 1.501 . S
C569 H560 0.931 . S
C569 C565 1.382 . S
C569 C568 1.415 . S
C570 C568 1.501 . S
C570 C571 1.384 . S
C570 C575 1.408 . S
C571 H561 0.930 . S
C571 C570 1.384 . S
C571 C572 1.389 . S
C572 C571 1.389 . S
C572 C573 1.405 . S
C573 H562 0.930 . S
C573 C572 1.405 . S
C573 C574 1.364 . S
C574 C573 1.364 . S
C574 C575 1.400 . S
C575 H563 0.931 . S
C575 C570 1.408 . S
C575 C574 1.400 . S
C576 C577 1.349 . S
C576 C578 1.327 . S
C576 H601 0.950 . S
C577 C576 1.349 . S
C577 C593 1.349 1_655 S
C578 C576 1.327 . S
C578 C597 1.429 . S
C578 H602 0.950 . S
C579 C596 1.574 . S
C579 C598 1.368 1_455 S
C579 H603 0.949 . S
H580 C584 0.949 . S
C581 C582 1.349 1_455 S
C581 C583 1.327 . S
C581 H604 0.950 . S
C582 C581 1.349 1_655 S
C582 C594 1.349 . S
C583 C581 1.327 . S
C583 C599 1.429 1_455 S
C583 H605 0.950 . S
C584 H580 0.949 . S
C584 C592 1.574 . S
C584 C600 1.368 . S
H585 C593 0.950 . S
H586 C591 0.950 . S
H587 C592 0.949 . S
H588 C594 0.950 . S
H589 C595 0.950 . S
H590 C596 0.949 . S
C591 H586 0.950 . S
C591 C593 1.327 . S
C591 C597 1.429 1_455 S
C592 C584 1.574 . S
C592 H587 0.949 . S
C592 C598 1.368 . S
C593 C577 1.349 1_455 S
C593 H585 0.950 . S
C593 C591 1.327 . S
C594 C582 1.349 . S
C594 H588 0.950 . S
C594 C595 1.327 . S
C595 H589 0.950 . S
C595 C594 1.327 . S
C595 C599 1.429 . S
C596 C579 1.574 . S
C596 H590 0.949 . S
C596 C600 1.368 1_455 S
C597 C578 1.429 . S
C597 C591 1.429 1_655 S
C597 C598 1.523 . S
C598 C579 1.368 1_655 S
C598 C592 1.368 . S
C598 C597 1.523 . S
C599 C583 1.429 1_655 S
C599 C595 1.429 . S
C599 C600 1.523 . S
C600 C584 1.368 . S
C600 C596 1.368 1_655 S
C600 C599 1.523 . S
H601 C576 0.950 . S
H602 C578 0.950 . S
H603 C579 0.949 . S
H604 C581 0.950 . S
H605 C583 0.950 . S
C606 C607 1.349 . S
C606 C608 1.327 . S
C606 H631 0.950 . S
C607 C606 1.349 . S
C607 C623 1.349 . S
C608 C606 1.327 . S
C608 C627 1.429 . S
C608 H632 0.950 . S
C609 C626 1.574 . S
C609 C628 1.368 . S
C609 H633 0.949 . S
H610 C614 0.949 . S
C611 C612 1.349 . S
C611 C613 1.327 . S
C611 H634 0.950 . S
C612 C611 1.349 . S
C612 C624 1.349 . S
C613 C611 1.327 . S
C613 C629 1.429 . S
C613 H635 0.950 . S
C614 H610 0.949 . S
C614 C622 1.574 . S
C614 C630 1.368 . S
H615 C623 0.950 . S
H616 C621 0.950 . S
H617 C622 0.949 . S
H618 C624 0.950 . S
H619 C625 0.950 . S
H620 C626 0.949 . S
C621 H616 0.950 . S
C621 C623 1.327 . S
C621 C627 1.429 . S
C622 C614 1.574 . S
C622 H617 0.949 . S
C622 C628 1.368 . S
C623 C607 1.349 . S
C623 H615 0.950 . S
C623 C621 1.327 . S
C624 C612 1.349 . S
C624 H618 0.950 . S
C624 C625 1.327 . S
C625 H619 0.950 . S
C625 C624 1.327 . S
C625 C629 1.429 . S
C626 C609 1.574 . S
C626 H620 0.949 . S
C626 C630 1.368 . S
C627 C608 1.429 . S
C627 C621 1.429 . S
C627 C628 1.523 . S
C628 C609 1.368 . S
C628 C622 1.368 . S
C628 C627 1.523 . S
C629 C613 1.429 . S
C629 C625 1.429 . S
C629 C630 1.523 . S
C630 C614 1.368 . S
C630 C626 1.368 . S
C630 C629 1.523 . S
H631 C606 0.950 . S
H632 C608 0.950 . S
H633 C609 0.949 . S
H634 C611 0.950 . S
H635 C613 0.950 . S
C636 C637 1.349 . S
C636 C638 1.327 . S
C636 H661 0.950 . S
C637 C636 1.349 . S
C637 C653 1.349 1_545 S
C638 C636 1.327 . S
C638 C657 1.429 . S
C638 H662 0.950 . S
C639 C656 1.574 . S
C639 C658 1.368 1_565 S
C639 H663 0.949 . S
H640 C644 0.949 . S
C641 C642 1.349 1_565 S
C641 C643 1.327 . S
C641 H664 0.950 . S
C642 C641 1.349 1_545 S
C642 C654 1.349 . S
C643 C641 1.327 . S
C643 C659 1.429 1_565 S
C643 H665 0.950 . S
C644 H640 0.949 . S
C644 C652 1.574 . S
C644 C660 1.368 . S
H645 C653 0.950 . S
H646 C651 0.950 . S
H647 C652 0.949 . S
H648 C654 0.950 . S
H649 C655 0.950 . S
H650 C656 0.949 . S
C651 H646 0.950 . S
C651 C653 1.327 . S
C651 C657 1.429 1_565 S
C652 C644 1.574 . S
C652 H647 0.949 . S
C652 C658 1.368 . S
C653 C637 1.349 1_565 S
C653 H645 0.950 . S
C653 C651 1.327 . S
C654 C642 1.349 . S
C654 H648 0.950 . S
C654 C655 1.327 . S
C655 H649 0.950 . S
C655 C654 1.327 . S
C655 C659 1.429 . S
C656 C639 1.574 . S
C656 H650 0.949 . S
C656 C660 1.368 1_565 S
C657 C638 1.429 . S
C657 C651 1.429 1_545 S
C657 C658 1.523 . S
C658 C639 1.368 1_545 S
C658 C652 1.368 . S
C658 C657 1.523 . S
C659 C643 1.429 1_545 S
C659 C655 1.429 . S
C659 C660 1.523 . S
C660 C644 1.368 . S
C660 C656 1.368 1_545 S
C660 C659 1.523 . S
H661 C636 0.950 . S
H662 C638 0.950 . S
H663 C639 0.949 . S
H664 C641 0.950 . S
H665 C643 0.950 . S
C666 C667 1.349 . S
C666 C668 1.327 . S
C666 H691 0.950 . S
C667 C666 1.349 . S
C667 C683 1.349 1_565 S
C668 C666 1.327 . S
C668 C687 1.429 . S
C668 H692 0.950 . S
C669 C686 1.574 . S
C669 C688 1.368 1_545 S
C669 H693 0.949 . S
H670 C674 0.949 . S
C671 C672 1.349 1_545 S
C671 C673 1.327 . S
C671 H694 0.950 . S
C672 C671 1.349 1_565 S
C672 C684 1.349 . S
C673 C671 1.327 . S
C673 C689 1.429 1_545 S
C673 H695 0.950 . S
C674 H670 0.949 . S
C674 C682 1.574 . S
C674 C690 1.368 . S
H675 C683 0.950 . S
H676 C681 0.950 . S
H677 C682 0.949 . S
H678 C684 0.950 . S
H679 C685 0.950 . S
H680 C686 0.949 . S
C681 H676 0.950 . S
C681 C683 1.327 . S
C681 C687 1.429 1_545 S
C682 C674 1.574 . S
C682 H677 0.949 . S
C682 C688 1.368 . S
C683 C667 1.349 1_545 S
C683 H675 0.950 . S
C683 C681 1.327 . S
C684 C672 1.349 . S
C684 H678 0.950 . S
C684 C685 1.327 . S
C685 H679 0.950 . S
C685 C684 1.327 . S
C685 C689 1.429 . S
C686 C669 1.574 . S
C686 H680 0.949 . S
C686 C690 1.368 1_545 S
C687 C668 1.429 . S
C687 C681 1.429 1_565 S
C687 C688 1.523 . S
C688 C669 1.368 1_565 S
C688 C682 1.368 . S
C688 C687 1.523 . S
C689 C673 1.429 1_565 S
C689 C685 1.429 . S
C689 C690 1.523 . S
C690 C674 1.368 . S
C690 C686 1.368 1_565 S
C690 C689 1.523 . S
H691 C666 0.950 . S
H692 C668 0.950 . S
H693 C669 0.949 . S
H694 C671 0.950 . S
H695 C673 0.950 . S
C696 C697 1.349 . S
C696 C698 1.327 . S
C696 H721 0.950 . S
C697 C696 1.349 . S
C697 C713 1.323 1_455 S
C698 C696 1.327 . S
C698 C717 1.429 . S
C698 H722 0.950 . S
C699 C716 1.574 . S
C699 C718 1.368 1_655 S
C699 H723 0.949 . S
H700 C704 0.949 . S
C701 C702 1.349 1_655 S
C701 C703 1.327 . S
C701 H724 0.950 . S
C702 C701 1.349 1_455 S
C702 C714 1.349 . S
C703 C701 1.327 . S
C703 C719 1.429 1_655 S
C703 H725 0.950 . S
C704 H700 0.949 . S
C704 C712 1.574 . S
C704 C720 1.368 . S
H705 C713 0.959 . S
H706 C711 0.950 . S
H707 C712 0.949 . S
H708 C714 0.950 . S
H709 C715 0.950 . S
H710 C716 0.949 . S
C711 H706 0.950 . S
C711 C713 1.346 . S
C711 C717 1.429 1_655 S
C712 C704 1.574 . S
C712 H707 0.949 . S
C712 C718 1.368 . S
C713 C697 1.323 1_655 S
C713 H705 0.959 . S
C713 C711 1.346 . S
C714 C702 1.349 . S
C714 H708 0.950 . S
C714 C715 1.327 . S
C715 H709 0.950 . S
C715 C714 1.327 . S
C715 C719 1.429 . S
C716 C699 1.574 . S
C716 H710 0.949 . S
C716 C720 1.368 1_655 S
C717 C698 1.429 . S
C717 C711 1.429 1_455 S
C717 C718 1.523 . S
C718 C699 1.368 1_455 S
C718 C712 1.368 . S
C718 C717 1.523 . S
C719 C703 1.429 1_455 S
C719 C715 1.429 . S
C719 C720 1.523 . S
C720 C704 1.368 . S
C720 C716 1.368 1_455 S
C720 C719 1.523 . S
H721 C696 0.950 . S
H722 C698 0.950 . S
H723 C699 0.949 . S
H724 C701 0.950 . S
H725 C703 0.950 . S
C726 C727 1.349 . S
C726 C728 1.327 . S
C726 H751 0.950 . S
C727 C726 1.349 . S
C727 C743 1.349 . S
C728 C726 1.327 . S
C728 C747 1.429 . S
C728 H752 0.950 . S
C729 C746 1.574 . S
C729 C748 1.368 . S
C729 H753 0.949 . S
H730 C734 0.949 . S
C731 C732 1.349 . S
C731 C733 1.327 . S
C731 H754 0.950 . S
C732 C731 1.349 . S
C732 C744 1.349 . S
C733 C731 1.327 . S
C733 C749 1.429 . S
C733 H755 0.950 . S
C734 H730 0.949 . S
C734 C742 1.574 . S
C734 C750 1.368 . S
H735 C743 0.950 . S
H736 C741 0.950 . S
H737 C742 0.949 . S
H738 C744 0.950 . S
H739 C745 0.950 . S
H740 C746 0.949 . S
C741 H736 0.950 . S
C741 C743 1.327 . S
C741 C747 1.429 . S
C742 C734 1.574 . S
C742 H737 0.949 . S
C742 C748 1.368 . S
C743 C727 1.349 . S
C743 H735 0.950 . S
C743 C741 1.327 . S
C744 C732 1.349 . S
C744 H738 0.950 . S
C744 C745 1.327 . S
C745 H739 0.950 . S
C745 C744 1.327 . S
C745 C749 1.429 . S
C746 C729 1.574 . S
C746 H740 0.949 . S
C746 C750 1.368 . S
C747 C728 1.429 . S
C747 C741 1.429 . S
C747 C748 1.523 . S
C748 C729 1.368 . S
C748 C742 1.368 . S
C748 C747 1.523 . S
C749 C733 1.429 . S
C749 C745 1.429 . S
C749 C750 1.523 . S
C750 C734 1.368 . S
C750 C746 1.368 . S
C750 C749 1.523 . S
H751 C726 0.950 . S
H752 C728 0.950 . S
H753 C729 0.949 . S
H754 C731 0.950 . S
H755 C733 0.950 . S
C756 C757 1.349 . S
C756 C758 1.327 . S
C756 H781 0.950 . S
C757 C756 1.349 . S
C757 C773 1.349 1_455 S
C758 C756 1.327 . S
C758 C777 1.429 . S
C758 H782 0.950 . S
C759 C776 1.574 . S
C759 C778 1.368 1_655 S
C759 H783 0.949 . S
H760 C764 0.949 . S
C761 C762 1.350 1_655 S
C761 C763 1.327 . S
C761 H784 0.950 . S
C762 C761 1.350 1_455 S
C762 C774 1.348 . S
C763 C761 1.327 . S
C763 C779 1.429 1_655 S
C763 H785 0.950 . S
C764 H760 0.949 . S
C764 C772 1.574 . S
C764 C780 1.368 . S
H765 C773 0.950 . S
H766 C771 0.950 . S
H767 C772 0.949 . S
H768 C774 0.950 . S
H769 C775 0.950 . S
H770 C776 0.949 . S
C771 H766 0.950 . S
C771 C773 1.327 . S
C771 C777 1.429 1_655 S
C772 C764 1.574 . S
C772 H767 0.949 . S
C772 C778 1.368 . S
C773 C757 1.349 1_655 S
C773 H765 0.950 . S
C773 C771 1.327 . S
C774 C762 1.348 . S
C774 H768 0.950 . S
C774 C775 1.327 . S
C775 H769 0.950 . S
C775 C774 1.327 . S
C775 C779 1.429 . S
C776 C759 1.574 . S
C776 H770 0.949 . S
C776 C780 1.368 1_655 S
C777 C758 1.429 . S
C777 C771 1.429 1_455 S
C777 C778 1.523 . S
C778 C759 1.368 1_455 S
C778 C772 1.368 . S
C778 C777 1.523 . S
C779 C763 1.429 1_455 S
C779 C775 1.429 . S
C779 C780 1.523 . S
C780 C764 1.368 . S
C780 C776 1.368 1_455 S
C780 C779 1.523 . S
H781 C756 0.950 . S
H782 C758 0.950 . S
H783 C759 0.949 . S
H784 C761 0.950 . S
H785 C763 0.950 . S
C786 C787 1.349 . S
C786 C788 1.327 . S
C786 H811 0.950 . S
C787 C786 1.349 . S
C787 C803 1.349 . S
C788 C786 1.327 . S
C788 C807 1.429 . S
C788 H812 0.950 . S
C789 C806 1.574 . S
C789 C808 1.368 . S
C789 H813 0.949 . S
H790 C794 0.949 . S
C791 C792 1.349 . S
C791 C793 1.327 . S
C791 H814 0.950 . S
C792 C791 1.349 . S
C792 C804 1.349 . S
C793 C791 1.327 . S
C793 C809 1.429 . S
C793 H815 0.950 . S
C794 H790 0.949 . S
C794 C802 1.574 . S
C794 C810 1.368 . S
H795 C803 0.950 . S
H796 C801 0.950 . S
H797 C802 0.949 . S
H798 C804 0.950 . S
H799 C805 0.950 . S
H800 C806 0.949 . S
C801 H796 0.950 . S
C801 C803 1.327 . S
C801 C807 1.429 . S
C802 C794 1.574 . S
C802 H797 0.949 . S
C802 C808 1.368 . S
C803 C787 1.349 . S
C803 H795 0.950 . S
C803 C801 1.327 . S
C804 C792 1.349 . S
C804 H798 0.950 . S
C804 C805 1.327 . S
C805 H799 0.950 . S
C805 C804 1.327 . S
C805 C809 1.429 . S
C806 C789 1.574 . S
C806 H800 0.949 . S
C806 C810 1.368 . S
C807 C788 1.429 . S
C807 C801 1.429 . S
C807 C808 1.523 . S
C808 C789 1.368 . S
C808 C802 1.368 . S
C808 C807 1.523 . S
C809 C793 1.429 . S
C809 C805 1.429 . S
C809 C810 1.523 . S
C810 C794 1.368 . S
C810 C806 1.368 . S
C810 C809 1.523 . S
H811 C786 0.950 . S
H812 C788 0.950 . S
H813 C789 0.949 . S
H814 C791 0.950 . S
H815 C793 0.950 . S
C816 C817 1.349 . S
C816 C818 1.327 . S
C816 H841 0.950 . S
C817 C816 1.349 . S
C817 C833 1.349 1_565 S
C818 C816 1.327 . S
C818 C837 1.429 . S
C818 H842 0.950 . S
C819 C836 1.574 . S
C819 C838 1.368 1_545 S
C819 H843 0.949 . S
H820 C824 0.949 . S
C821 C822 1.355 . S
C821 C823 1.327 . S
C821 H844 0.950 . S
C822 C821 1.355 . S
C822 C834 1.331 1_545 S
C823 C821 1.327 . S
C823 C839 1.412 1_545 S
C823 H845 0.950 . S
C824 H820 0.949 . S
C824 C832 1.574 . S
C824 C840 1.411 . S
H825 C833 0.950 . S
H826 C831 0.950 . S
H827 C832 0.949 . S
H828 C834 0.950 . S
H829 C835 0.950 . S
H830 C836 0.949 . S
C831 H826 0.950 . S
C831 C833 1.327 . S
C831 C837 1.429 1_545 S
C832 C824 1.574 . S
C832 H827 0.949 . S
C832 C838 1.368 . S
C833 C817 1.349 1_545 S
C833 H825 0.950 . S
C833 C831 1.327 . S
C834 C822 1.331 1_565 S
C834 H828 0.950 . S
C834 C835 1.327 . S
C835 H829 0.950 . S
C835 C834 1.327 . S
C835 C839 1.433 . S
C836 C819 1.574 . S
C836 H830 0.949 . S
C836 C840 1.352 1_545 S
C837 C818 1.429 . S
C837 C831 1.429 1_565 S
C837 C838 1.523 . S
C838 C819 1.368 1_565 S
C838 C832 1.368 . S
C838 C837 1.523 . S
C839 C823 1.412 1_565 S
C839 C835 1.433 . S
C839 C840 1.506 . S
C840 C824 1.411 . S
C840 C836 1.352 1_565 S
C840 C839 1.506 . S
H841 C816 0.950 . S
H842 C818 0.950 . S
H843 C819 0.949 . S
H844 C821 0.950 . S
H845 C823 0.950 . S
C846 C847 1.315 1_565 S
C846 C848 1.311 . S
C846 H871 1.003 . S
C847 C846 1.315 1_545 S
C847 C863 1.349 . S
C848 C846 1.311 . S
C848 C867 1.429 1_565 S
C848 H872 0.950 . S
C849 C866 1.574 . S
C849 C868 1.368 . S
C849 H873 0.949 . S
H850 C854 0.949 . S
C851 C852 1.374 . S
C851 C853 1.327 . S
C851 H874 0.950 . S
C852 C851 1.374 . S
C852 C864 1.311 1_545 S
C853 C851 1.327 . S
C853 C869 1.429 . S
C853 H875 0.950 . S
C854 H850 0.949 . S
C854 C862 1.574 . S
C854 C870 1.368 1_565 S
H855 C863 0.950 . S
H856 C861 0.950 . S
H857 C862 0.949 . S
H858 C864 0.950 . S
H859 C865 0.950 . S
H860 C866 0.949 . S
C861 H856 0.950 . S
C861 C863 1.327 . S
C861 C867 1.429 . S
C862 C854 1.574 . S
C862 H857 0.949 . S
C862 C868 1.368 1_565 S
C863 C847 1.349 . S
C863 H855 0.950 . S
C863 C861 1.327 . S
C864 C852 1.311 1_565 S
C864 H858 0.950 . S
C864 C865 1.327 . S
C865 H859 0.950 . S
C865 C864 1.327 . S
C865 C869 1.429 1_565 S
C866 C849 1.574 . S
C866 H860 0.949 . S
C866 C870 1.368 . S
C867 C848 1.429 1_545 S
C867 C861 1.429 . S
C867 C868 1.523 . S
C868 C849 1.368 . S
C868 C862 1.368 1_545 S
C868 C867 1.523 . S
C869 C853 1.429 . S
C869 C865 1.429 1_545 S
C869 C870 1.523 . S
C870 C854 1.368 1_545 S
C870 C866 1.368 . S
C870 C869 1.523 . S
H871 C846 1.003 . S
H872 C848 0.950 . S
H873 C849 0.949 . S
H874 C851 0.950 . S
H875 C853 0.950 . S
C876 C877 1.349 . S
C876 C878 1.327 . S
C876 H901 0.950 . S
C877 C876 1.349 . S
C877 C893 1.349 . S
C878 C876 1.327 . S
C878 C897 1.429 . S
C878 H902 1.004 . S
C879 C896 1.574 . S
C879 C898 1.368 . S
C879 H903 0.949 . S
H880 C884 0.938 1_455 S
C881 C882 1.354 1_655 S
C881 C883 1.327 . S
C881 H904 0.950 . S
C882 C881 1.354 1_455 S
C882 C894 1.347 . S
C883 C881 1.327 . S
C883 C899 1.429 . S
C883 H905 0.950 . S
C884 H880 0.938 1_655 S
C884 C892 1.581 . S
C884 C900 1.373 . S
H885 C893 0.950 . S
H886 C891 0.950 . S
H887 C892 0.950 1_455 S
H888 C894 0.950 . S
H889 C895 0.950 . S
H890 C896 0.949 . S
C891 H886 0.950 . S
C891 C893 1.327 . S
C891 C897 1.429 . S
C892 C884 1.581 . S
C892 H887 0.950 1_655 S
C892 C898 1.368 . S
C893 C877 1.349 . S
C893 H885 0.950 . S
C893 C891 1.327 . S
C894 C882 1.347 . S
C894 H888 0.950 . S
C894 C895 1.327 . S
C895 H889 0.950 . S
C895 C894 1.327 . S
C895 C899 1.429 1_455 S
C896 C879 1.574 . S
C896 H890 0.949 . S
C896 C900 1.368 . S
C897 C878 1.429 . S
C897 C891 1.429 . S
C897 C898 1.523 . S
C898 C879 1.368 . S
C898 C892 1.368 . S
C898 C897 1.523 . S
C899 C883 1.429 . S
C899 C895 1.429 1_655 S
C899 C900 1.523 . S
C900 C884 1.373 . S
C900 C896 1.368 . S
C900 C899 1.523 . S
H901 C876 0.950 . S
H902 C878 1.004 . S
H903 C879 0.949 . S
H904 C881 0.950 . S
H905 C883 0.950 . S
C906 C907 1.349 . S
C906 C908 1.327 . S
C906 H931 0.950 . S
C907 C906 1.349 . S
C907 C923 1.349 . S
C908 C906 1.327 . S
C908 C927 1.429 . S
C908 H932 0.950 . S
C909 C926 1.574 . S
C909 C928 1.368 . S
C909 H933 0.949 . S
H910 C914 0.949 . S
C911 C912 1.349 . S
C911 C913 1.327 . S
C911 H934 0.950 . S
C912 C911 1.349 . S
C912 C924 1.349 . S
C913 C911 1.327 . S
C913 C929 1.429 . S
C913 H935 0.950 . S
C914 H910 0.949 . S
C914 C922 1.574 . S
C914 C930 1.368 . S
H915 C923 0.950 . S
H916 C921 0.950 . S
H917 C922 0.949 . S
H918 C924 0.950 . S
H919 C925 0.950 . S
H920 C926 0.949 . S
C921 H916 0.950 . S
C921 C923 1.327 . S
C921 C927 1.429 . S
C922 C914 1.574 . S
C922 H917 0.949 . S
C922 C928 1.368 . S
C923 C907 1.349 . S
C923 H915 0.950 . S
C923 C921 1.327 . S
C924 C912 1.349 . S
C924 H918 0.950 . S
C924 C925 1.327 . S
C925 H919 0.950 . S
C925 C924 1.327 . S
C925 C929 1.429 . S
C926 C909 1.574 . S
C926 H920 0.949 . S
C926 C930 1.368 . S
C927 C908 1.429 . S
C927 C921 1.429 . S
C927 C928 1.523 . S
C928 C909 1.368 . S
C928 C922 1.368 . S
C928 C927 1.523 . S
C929 C913 1.429 . S
C929 C925 1.429 . S
C929 C930 1.523 . S
C930 C914 1.368 . S
C930 C926 1.368 . S
C930 C929 1.523 . S
H931 C906 0.950 . S
H932 C908 0.950 . S
H933 C909 0.949 . S
H934 C911 0.950 . S
H935 C913 0.950 . S
C936 C937 1.349 . S
C936 C938 1.327 . S
C936 H961 0.950 . S
C937 C936 1.349 . S
C937 C953 1.349 . S
C938 C936 1.327 . S
C938 C957 1.429 . S
C938 H962 0.950 . S
C939 C956 1.574 . S
C939 C958 1.368 . S
C939 H963 0.949 . S
H940 C944 0.949 . S
C941 C942 1.349 . S
C941 C943 1.327 . S
C941 H964 0.950 . S
C942 C941 1.349 . S
C942 C954 1.349 . S
C943 C941 1.327 . S
C943 C959 1.429 . S
C943 H965 0.950 . S
C944 H940 0.949 . S
C944 C952 1.574 . S
C944 C960 1.368 . S
H945 C953 0.950 . S
H946 C951 0.950 . S
H947 C952 0.949 . S
H948 C954 0.950 . S
H949 C955 0.950 . S
H950 C956 0.949 . S
C951 H946 0.950 . S
C951 C953 1.327 . S
C951 C957 1.429 . S
C952 C944 1.574 . S
C952 H947 0.949 . S
C952 C958 1.368 . S
C953 C937 1.349 . S
C953 H945 0.950 . S
C953 C951 1.327 . S
C954 C942 1.349 . S
C954 H948 0.950 . S
C954 C955 1.327 . S
C955 H949 0.950 . S
C955 C954 1.327 . S
C955 C959 1.429 . S
C956 C939 1.574 . S
C956 H950 0.949 . S
C956 C960 1.368 . S
C957 C938 1.429 . S
C957 C951 1.429 . S
C957 C958 1.523 . S
C958 C939 1.368 . S
C958 C952 1.368 . S
C958 C957 1.523 . S
C959 C943 1.429 . S
C959 C955 1.429 . S
C959 C960 1.523 . S
C960 C944 1.368 . S
C960 C956 1.368 . S
C960 C959 1.523 . S
H961 C936 0.950 . S
H962 C938 0.950 . S
H963 C939 0.949 . S
H964 C941 0.950 . S
H965 C943 0.950 . S
C966 C967 1.349 . S
C966 C968 1.327 . S
C966 H991 0.950 . S
C967 C966 1.349 . S
C967 C983 1.349 . S
C968 C966 1.327 . S
C968 C987 1.429 . S
C968 H992 0.950 . S
C969 C986 1.574 . S
C969 C988 1.368 . S
C969 H993 0.949 . S
H970 C974 0.949 . S
C971 C972 1.349 . S
C971 C973 1.327 . S
C971 H994 0.950 . S
C972 C971 1.349 . S
C972 C984 1.349 . S
C973 C971 1.327 . S
C973 C989 1.429 . S
C973 H995 0.950 . S
C974 H970 0.949 . S
C974 C982 1.574 . S
C974 C990 1.368 . S
H975 C983 0.950 . S
H976 C981 0.950 . S
H977 C982 0.949 . S
H978 C984 0.950 . S
H979 C985 0.950 . S
H980 C986 0.949 . S
C981 H976 0.950 . S
C981 C983 1.327 . S
C981 C987 1.429 . S
C982 C974 1.574 . S
C982 H977 0.949 . S
C982 C988 1.368 . S
C983 C967 1.349 . S
C983 H975 0.950 . S
C983 C981 1.327 . S
C984 C972 1.349 . S
C984 H978 0.950 . S
C984 C985 1.327 . S
C985 H979 0.950 . S
C985 C984 1.327 . S
C985 C989 1.429 . S
C986 C969 1.574 . S
C986 H980 0.949 . S
C986 C990 1.368 . S
C987 C968 1.429 . S
C987 C981 1.429 . S
C987 C988 1.523 . S
C988 C969 1.368 . S
C988 C982 1.368 . S
C988 C987 1.523 . S
C989 C973 1.429 . S
C989 C985 1.429 . S
C989 C990 1.523 . S
C990 C974 1.368 . S
C990 C986 1.368 . S
C990 C989 1.523 . S
H991 C966 0.950 . S
H992 C968 0.950 . S
H993 C969 0.949 . S
H994 C971 0.950 . S
H995 C973 0.950 . S
C996 C997 1.349 . S
C996 C998 1.327 . S
C996 H1021 0.950 . S
C997 C996 1.349 . S
C997 C1013 1.349 . S
C998 C996 1.327 . S
C998 C1017 1.429 . S
C998 H1022 0.950 . S
C999 C1016 1.574 . S
C999 C1018 1.368 . S
C999 H1023 0.949 . S
H1000 C1004 0.949 . S
C1001 C1002 1.349 . S
C1001 C1003 1.327 . S
C1001 H1024 0.950 . S
C1002 C1001 1.349 . S
C1002 C1014 1.349 . S
C1003 C1001 1.327 . S
C1003 C1019 1.429 . S
C1003 H1025 0.950 . S
C1004 H1000 0.949 . S
C1004 C1012 1.574 . S
C1004 C1020 1.368 . S
H1005 C1013 0.950 . S
H1006 C1011 0.950 . S
H1007 C1012 0.949 . S
H1008 C1014 0.950 . S
H1009 C1015 0.950 . S
H1010 C1016 0.949 . S
C1011 H1006 0.950 . S
C1011 C1013 1.327 . S
C1011 C1017 1.429 . S
C1012 C1004 1.574 . S
C1012 H1007 0.949 . S
C1012 C1018 1.368 . S
C1013 C997 1.349 . S
C1013 H1005 0.950 . S
C1013 C1011 1.327 . S
C1014 C1002 1.349 . S
C1014 H1008 0.950 . S
C1014 C1015 1.327 . S
C1015 H1009 0.950 . S
C1015 C1014 1.327 . S
C1015 C1019 1.429 . S
C1016 C999 1.574 . S
C1016 H1010 0.949 . S
C1016 C1020 1.368 . S
C1017 C998 1.429 . S
C1017 C1011 1.429 . S
C1017 C1018 1.523 . S
C1018 C999 1.368 . S
C1018 C1012 1.368 . S
C1018 C1017 1.523 . S
C1019 C1003 1.429 . S
C1019 C1015 1.429 . S
C1019 C1020 1.523 . S
C1020 C1004 1.368 . S
C1020 C1016 1.368 . S
C1020 C1019 1.523 . S
H1021 C996 0.950 . S
H1022 C998 0.950 . S
H1023 C999 0.949 . S
H1024 C1001 0.950 . S
H1025 C1003 0.950 . S
C1026 C1027 1.349 . S
C1026 C1028 1.327 . S
C1026 H1051 0.950 . S
C1027 C1026 1.349 . S
C1027 C1043 1.349 . S
C1028 C1026 1.327 . S
C1028 C1047 1.429 . S
C1028 H1052 0.950 . S
C1029 C1046 1.574 . S
C1029 C1048 1.368 . S
C1029 H1053 0.949 . S
H1030 C1034 0.949 . S
C1031 C1032 1.349 . S
C1031 C1033 1.327 . S
C1031 H1054 0.950 . S
C1032 C1031 1.349 . S
C1032 C1044 1.349 . S
C1033 C1031 1.327 . S
C1033 C1049 1.429 . S
C1033 H1055 0.950 . S
C1034 H1030 0.949 . S
C1034 C1042 1.574 . S
C1034 C1050 1.368 . S
H1035 C1043 0.950 . S
H1036 C1041 0.950 . S
H1037 C1042 0.949 . S
H1038 C1044 0.950 . S
H1039 C1045 0.950 . S
H1040 C1046 0.949 . S
C1041 H1036 0.950 . S
C1041 C1043 1.327 . S
C1041 C1047 1.429 . S
C1042 C1034 1.574 . S
C1042 H1037 0.949 . S
C1042 C1048 1.368 . S
C1043 C1027 1.349 . S
C1043 H1035 0.950 . S
C1043 C1041 1.327 . S
C1044 C1032 1.349 . S
C1044 H1038 0.950 . S
C1044 C1045 1.327 . S
C1045 H1039 0.950 . S
C1045 C1044 1.327 . S
C1045 C1049 1.429 . S
C1046 C1029 1.574 . S
C1046 H1040 0.949 . S
C1046 C1050 1.368 . S
C1047 C1028 1.429 . S
C1047 C1041 1.429 . S
C1047 C1048 1.523 . S
C1048 C1029 1.368 . S
C1048 C1042 1.368 . S
C1048 C1047 1.523 . S
C1049 C1033 1.429 . S
C1049 C1045 1.429 . S
C1049 C1050 1.523 . S
C1050 C1034 1.368 . S
C1050 C1046 1.368 . S
C1050 C1049 1.523 . S
H1051 C1026 0.950 . S
H1052 C1028 0.950 . S
H1053 C1029 0.949 . S
H1054 C1031 0.950 . S
H1055 C1033 0.950 . S
C1056 C1057 1.349 . S
C1056 C1058 1.327 . S
C1056 H1081 0.950 . S
C1057 C1056 1.349 . S
C1057 C1073 1.349 . S
C1058 C1056 1.327 . S
C1058 C1077 1.429 . S
C1058 H1082 0.950 . S
C1059 C1076 1.574 . S
C1059 C1078 1.368 . S
C1059 H1083 0.949 . S
H1060 C1064 0.949 . S
C1061 C1062 1.349 . S
C1061 C1063 1.327 . S
C1061 H1084 0.950 . S
C1062 C1061 1.349 . S
C1062 C1074 1.349 . S
C1063 C1061 1.327 . S
C1063 C1079 1.429 . S
C1063 H1085 0.950 . S
C1064 H1060 0.949 . S
C1064 C1072 1.574 . S
C1064 C1080 1.368 . S
H1065 C1073 0.950 . S
H1066 C1071 0.950 . S
H1067 C1072 0.949 . S
H1068 C1074 0.950 . S
H1069 C1075 0.950 . S
H1070 C1076 0.949 . S
C1071 H1066 0.950 . S
C1071 C1073 1.327 . S
C1071 C1077 1.429 . S
C1072 C1064 1.574 . S
C1072 H1067 0.949 . S
C1072 C1078 1.368 . S
C1073 C1057 1.349 . S
C1073 H1065 0.950 . S
C1073 C1071 1.327 . S
C1074 C1062 1.349 . S
C1074 H1068 0.950 . S
C1074 C1075 1.327 . S
C1075 H1069 0.950 . S
C1075 C1074 1.327 . S
C1075 C1079 1.429 . S
C1076 C1059 1.574 . S
C1076 H1070 0.949 . S
C1076 C1080 1.368 . S
C1077 C1058 1.429 . S
C1077 C1071 1.429 . S
C1077 C1078 1.523 . S
C1078 C1059 1.368 . S
C1078 C1072 1.368 . S
C1078 C1077 1.523 . S
C1079 C1063 1.429 . S
C1079 C1075 1.429 . S
C1079 C1080 1.523 . S
C1080 C1064 1.368 . S
C1080 C1076 1.368 . S
C1080 C1079 1.523 . S
H1081 C1056 0.950 . S
H1082 C1058 0.950 . S
H1083 C1059 0.949 . S
H1084 C1061 0.950 . S
H1085 C1063 0.950 . S
C1086 C1087 1.349 . S
C1086 C1088 1.327 . S
C1086 H1111 0.950 . S
C1087 C1086 1.349 . S
C1087 C1103 1.349 . S
C1088 C1086 1.327 . S
C1088 C1107 1.429 . S
C1088 H1112 0.950 . S
C1089 C1106 1.574 . S
C1089 C1108 1.368 . S
C1089 H1113 0.949 . S
H1090 C1094 0.949 . S
C1091 C1092 1.349 . S
C1091 C1093 1.327 . S
C1091 H1114 0.950 . S
C1092 C1091 1.349 . S
C1092 C1104 1.349 . S
C1093 C1091 1.327 . S
C1093 C1109 1.429 . S
C1093 H1115 0.950 . S
C1094 H1090 0.949 . S
C1094 C1102 1.574 . S
C1094 C1110 1.368 . S
H1095 C1103 0.950 . S
H1096 C1101 0.950 . S
H1097 C1102 0.949 . S
H1098 C1104 0.950 . S
H1099 C1105 0.950 . S
H1100 C1106 0.949 . S
C1101 H1096 0.950 . S
C1101 C1103 1.327 . S
C1101 C1107 1.429 . S
C1102 C1094 1.574 . S
C1102 H1097 0.949 . S
C1102 C1108 1.368 . S
C1103 C1087 1.349 . S
C1103 H1095 0.950 . S
C1103 C1101 1.327 . S
C1104 C1092 1.349 . S
C1104 H1098 0.950 . S
C1104 C1105 1.327 . S
C1105 H1099 0.950 . S
C1105 C1104 1.327 . S
C1105 C1109 1.429 . S
C1106 C1089 1.574 . S
C1106 H1100 0.949 . S
C1106 C1110 1.368 . S
C1107 C1088 1.429 . S
C1107 C1101 1.429 . S
C1107 C1108 1.523 . S
C1108 C1089 1.368 . S
C1108 C1102 1.368 . S
C1108 C1107 1.523 . S
C1109 C1093 1.429 . S
C1109 C1105 1.429 . S
C1109 C1110 1.523 . S
C1110 C1094 1.368 . S
C1110 C1106 1.368 . S
C1110 C1109 1.523 . S
H1111 C1086 0.950 . S
H1112 C1088 0.950 . S
H1113 C1089 0.949 . S
H1114 C1091 0.950 . S
H1115 C1093 0.950 . S
C1116 C1117 1.349 . S
C1116 C1118 1.327 . S
C1116 H1141 0.950 . S
C1117 C1116 1.349 . S
C1117 C1133 1.349 . S
C1118 C1116 1.327 . S
C1118 C1137 1.429 . S
C1118 H1142 0.950 . S
C1119 C1136 1.574 . S
C1119 C1138 1.368 . S
C1119 H1143 0.949 . S
H1120 C1124 0.949 . S
C1121 C1122 1.349 . S
C1121 C1123 1.327 . S
C1121 H1144 0.950 . S
C1122 C1121 1.349 . S
C1122 C1134 1.349 . S
C1123 C1121 1.327 . S
C1123 C1139 1.429 . S
C1123 H1145 0.950 . S
C1124 H1120 0.949 . S
C1124 C1132 1.574 . S
C1124 C1140 1.368 . S
H1125 C1133 0.950 . S
H1126 C1131 0.950 . S
H1127 C1132 0.949 . S
H1128 C1134 0.950 . S
H1129 C1135 0.950 . S
H1130 C1136 0.949 . S
C1131 H1126 0.950 . S
C1131 C1133 1.327 . S
C1131 C1137 1.429 . S
C1132 C1124 1.574 . S
C1132 H1127 0.949 . S
C1132 C1138 1.368 . S
C1133 C1117 1.349 . S
C1133 H1125 0.950 . S
C1133 C1131 1.327 . S
C1134 C1122 1.349 . S
C1134 H1128 0.950 . S
C1134 C1135 1.327 . S
C1135 H1129 0.950 . S
C1135 C1134 1.327 . S
C1135 C1139 1.429 . S
C1136 C1119 1.574 . S
C1136 H1130 0.949 . S
C1136 C1140 1.368 . S
C1137 C1118 1.429 . S
C1137 C1131 1.429 . S
C1137 C1138 1.523 . S
C1138 C1119 1.368 . S
C1138 C1132 1.368 . S
C1138 C1137 1.523 . S
C1139 C1123 1.429 . S
C1139 C1135 1.429 . S
C1139 C1140 1.523 . S
C1140 C1124 1.368 . S
C1140 C1136 1.368 . S
C1140 C1139 1.523 . S
H1141 C1116 0.950 . S
H1142 C1118 0.950 . S
H1143 C1119 0.949 . S
H1144 C1121 0.950 . S
H1145 C1123 0.950 . S
C1146 C1147 1.349 . S
C1146 C1148 1.327 . S
C1146 H1171 0.950 . S
C1147 C1146 1.349 . S
C1147 C1163 1.349 . S
C1148 C1146 1.327 . S
C1148 C1167 1.429 . S
C1148 H1172 0.950 . S
C1149 C1166 1.574 . S
C1149 C1168 1.368 . S
C1149 H1173 0.949 . S
H1150 C1154 0.949 . S
C1151 C1152 1.349 . S
C1151 C1153 1.327 . S
C1151 H1174 0.950 . S
C1152 C1151 1.349 . S
C1152 C1164 1.349 . S
C1153 C1151 1.327 . S
C1153 C1169 1.429 . S
C1153 H1175 0.950 . S
C1154 H1150 0.949 . S
C1154 C1162 1.574 . S
C1154 C1170 1.368 . S
H1155 C1163 0.950 . S
H1156 C1161 0.950 . S
H1157 C1162 0.949 . S
H1158 C1164 0.950 . S
H1159 C1165 0.950 . S
H1160 C1166 0.949 . S
C1161 H1156 0.950 . S
C1161 C1163 1.327 . S
C1161 C1167 1.429 . S
C1162 C1154 1.574 . S
C1162 H1157 0.949 . S
C1162 C1168 1.368 . S
C1163 C1147 1.349 . S
C1163 H1155 0.950 . S
C1163 C1161 1.327 . S
C1164 C1152 1.349 . S
C1164 H1158 0.950 . S
C1164 C1165 1.327 . S
C1165 H1159 0.950 . S
C1165 C1164 1.327 . S
C1165 C1169 1.429 . S
C1166 C1149 1.574 . S
C1166 H1160 0.949 . S
C1166 C1170 1.368 . S
C1167 C1148 1.429 . S
C1167 C1161 1.429 . S
C1167 C1168 1.523 . S
C1168 C1149 1.368 . S
C1168 C1162 1.368 . S
C1168 C1167 1.523 . S
C1169 C1153 1.429 . S
C1169 C1165 1.429 . S
C1169 C1170 1.523 . S
C1170 C1154 1.368 . S
C1170 C1166 1.368 . S
C1170 C1169 1.523 . S
H1171 C1146 0.950 . S
H1172 C1148 0.950 . S
H1173 C1149 0.949 . S
H1174 C1151 0.950 . S
H1175 C1153 0.950 . S
C1176 C1177 1.349 . S
C1176 C1178 1.327 . S
C1176 H1201 0.950 . S
C1177 C1176 1.349 . S
C1177 C1193 1.349 . S
C1178 C1176 1.327 . S
C1178 C1197 1.429 . S
C1178 H1202 0.950 . S
C1179 C1196 1.574 . S
C1179 C1198 1.368 . S
C1179 H1203 0.949 . S
H1180 C1184 0.949 . S
C1181 C1182 1.349 . S
C1181 C1183 1.327 . S
C1181 H1204 0.950 . S
C1182 C1181 1.349 . S
C1182 C1194 1.349 . S
C1183 C1181 1.327 . S
C1183 C1199 1.429 . S
C1183 H1205 0.950 . S
C1184 H1180 0.949 . S
C1184 C1192 1.574 . S
C1184 C1200 1.368 . S
H1185 C1193 0.950 . S
H1186 C1191 0.950 . S
H1187 C1192 0.949 . S
H1188 C1194 0.950 . S
H1189 C1195 0.950 . S
H1190 C1196 0.949 . S
C1191 H1186 0.950 . S
C1191 C1193 1.327 . S
C1191 C1197 1.429 . S
C1192 C1184 1.574 . S
C1192 H1187 0.949 . S
C1192 C1198 1.368 . S
C1193 C1177 1.349 . S
C1193 H1185 0.950 . S
C1193 C1191 1.327 . S
C1194 C1182 1.349 . S
C1194 H1188 0.950 . S
C1194 C1195 1.327 . S
C1195 H1189 0.950 . S
C1195 C1194 1.327 . S
C1195 C1199 1.429 . S
C1196 C1179 1.574 . S
C1196 H1190 0.949 . S
C1196 C1200 1.368 . S
C1197 C1178 1.429 . S
C1197 C1191 1.429 . S
C1197 C1198 1.523 . S
C1198 C1179 1.368 . S
C1198 C1192 1.368 . S
C1198 C1197 1.523 . S
C1199 C1183 1.429 . S
C1199 C1195 1.429 . S
C1199 C1200 1.523 . S
C1200 C1184 1.368 . S
C1200 C1196 1.368 . S
C1200 C1199 1.523 . S
H1201 C1176 0.950 . S
H1202 C1178 0.950 . S
H1203 C1179 0.949 . S
H1204 C1181 0.950 . S
H1205 C1183 0.950 . S
C1206 C1207 1.349 . S
C1206 C1208 1.327 . S
C1206 H1231 0.950 . S
C1207 C1206 1.349 . S
C1207 C1223 1.349 . S
C1208 C1206 1.327 . S
C1208 C1227 1.429 . S
C1208 H1232 0.950 . S
C1209 C1226 1.574 . S
C1209 C1228 1.368 . S
C1209 H1233 0.949 . S
H1210 C1214 0.949 . S
C1211 C1212 1.349 . S
C1211 C1213 1.327 . S
C1211 H1234 0.950 . S
C1212 C1211 1.349 . S
C1212 C1224 1.349 . S
C1213 C1211 1.327 . S
C1213 C1229 1.429 . S
C1213 H1235 0.950 . S
C1214 H1210 0.949 . S
C1214 C1222 1.574 . S
C1214 C1230 1.368 . S
H1215 C1223 0.950 . S
H1216 C1221 0.950 . S
H1217 C1222 0.949 . S
H1218 C1224 0.950 . S
H1219 C1225 0.950 . S
H1220 C1226 0.949 . S
C1221 H1216 0.950 . S
C1221 C1223 1.327 . S
C1221 C1227 1.429 . S
C1222 C1214 1.574 . S
C1222 H1217 0.949 . S
C1222 C1228 1.368 . S
C1223 C1207 1.349 . S
C1223 H1215 0.950 . S
C1223 C1221 1.327 . S
C1224 C1212 1.349 . S
C1224 H1218 0.950 . S
C1224 C1225 1.327 . S
C1225 H1219 0.950 . S
C1225 C1224 1.327 . S
C1225 C1229 1.429 . S
C1226 C1209 1.574 . S
C1226 H1220 0.949 . S
C1226 C1230 1.368 . S
C1227 C1208 1.429 . S
C1227 C1221 1.429 . S
C1227 C1228 1.523 . S
C1228 C1209 1.368 . S
C1228 C1222 1.368 . S
C1228 C1227 1.523 . S
C1229 C1213 1.429 . S
C1229 C1225 1.429 . S
C1229 C1230 1.523 . S
C1230 C1214 1.368 . S
C1230 C1226 1.368 . S
C1230 C1229 1.523 . S
H1231 C1206 0.950 . S
H1232 C1208 0.950 . S
H1233 C1209 0.949 . S
H1234 C1211 0.950 . S
H1235 C1213 0.950 . S
C1236 C1237 1.349 . S
C1236 C1238 1.327 . S
C1236 H1261 0.950 . S
C1237 C1236 1.349 . S
C1237 C1253 1.349 . S
C1238 C1236 1.327 . S
C1238 C1257 1.429 . S
C1238 H1262 0.950 . S
C1239 C1256 1.574 . S
C1239 C1258 1.368 . S
C1239 H1263 0.949 . S
H1240 C1244 0.949 . S
C1241 C1242 1.349 . S
C1241 C1243 1.327 . S
C1241 H1264 0.950 . S
C1242 C1241 1.349 . S
C1242 C1254 1.349 . S
C1243 C1241 1.327 . S
C1243 C1259 1.429 . S
C1243 H1265 0.950 . S
C1244 H1240 0.949 . S
C1244 C1252 1.574 . S
C1244 C1260 1.368 . S
H1245 C1253 0.950 . S
H1246 C1251 0.950 . S
H1247 C1252 0.949 . S
H1248 C1254 0.950 . S
H1249 C1255 0.950 . S
H1250 C1256 0.949 . S
C1251 H1246 0.950 . S
C1251 C1253 1.327 . S
C1251 C1257 1.429 . S
C1252 C1244 1.574 . S
C1252 H1247 0.949 . S
C1252 C1258 1.368 . S
C1253 C1237 1.349 . S
C1253 H1245 0.950 . S
C1253 C1251 1.327 . S
C1254 C1242 1.349 . S
C1254 H1248 0.950 . S
C1254 C1255 1.327 . S
C1255 H1249 0.950 . S
C1255 C1254 1.327 . S
C1255 C1259 1.429 . S
C1256 C1239 1.574 . S
C1256 H1250 0.949 . S
C1256 C1260 1.368 . S
C1257 C1238 1.429 . S
C1257 C1251 1.429 . S
C1257 C1258 1.523 . S
C1258 C1239 1.368 . S
C1258 C1252 1.368 . S
C1258 C1257 1.523 . S
C1259 C1243 1.429 . S
C1259 C1255 1.429 . S
C1259 C1260 1.523 . S
C1260 C1244 1.368 . S
C1260 C1256 1.368 . S
C1260 C1259 1.523 . S
H1261 C1236 0.950 . S
H1262 C1238 0.950 . S
H1263 C1239 0.949 . S
H1264 C1241 0.950 . S
H1265 C1243 0.950 . S
C1266 C1267 1.349 . S
C1266 C1268 1.327 . S
C1266 H1291 0.950 . S
C1267 C1266 1.349 . S
C1267 C1283 1.349 . S
C1268 C1266 1.327 . S
C1268 C1287 1.429 . S
C1268 H1292 0.950 . S
C1269 C1286 1.574 . S
C1269 C1288 1.368 . S
C1269 H1293 0.949 . S
H1270 C1274 0.949 . S
C1271 C1272 1.349 . S
C1271 C1273 1.327 . S
C1271 H1294 0.950 . S
C1272 C1271 1.349 . S
C1272 C1284 1.349 . S
C1273 C1271 1.327 . S
C1273 C1289 1.429 . S
C1273 H1295 0.950 . S
C1274 H1270 0.949 . S
C1274 C1282 1.574 . S
C1274 C1290 1.368 . S
H1275 C1283 0.950 . S
H1276 C1281 0.950 . S
H1277 C1282 0.949 . S
H1278 C1284 0.950 . S
H1279 C1285 0.950 . S
H1280 C1286 0.949 . S
C1281 H1276 0.950 . S
C1281 C1283 1.327 . S
C1281 C1287 1.429 . S
C1282 C1274 1.574 . S
C1282 H1277 0.949 . S
C1282 C1288 1.368 . S
C1283 C1267 1.349 . S
C1283 H1275 0.950 . S
C1283 C1281 1.327 . S
C1284 C1272 1.349 . S
C1284 H1278 0.950 . S
C1284 C1285 1.327 . S
C1285 H1279 0.950 . S
C1285 C1284 1.327 . S
C1285 C1289 1.429 . S
C1286 C1269 1.574 . S
C1286 H1280 0.949 . S
C1286 C1290 1.368 . S
C1287 C1268 1.429 . S
C1287 C1281 1.429 . S
C1287 C1288 1.523 . S
C1288 C1269 1.368 . S
C1288 C1282 1.368 . S
C1288 C1287 1.523 . S
C1289 C1273 1.429 . S
C1289 C1285 1.429 . S
C1289 C1290 1.523 . S
C1290 C1274 1.368 . S
C1290 C1286 1.368 . S
C1290 C1289 1.523 . S
H1291 C1266 0.950 . S
H1292 C1268 0.950 . S
H1293 C1269 0.949 . S
H1294 C1271 0.950 . S
H1295 C1273 0.950 . S
C1296 C1297 1.349 . S
C1296 C1298 1.327 . S
C1296 H1321 0.950 . S
C1297 C1296 1.349 . S
C1297 C1313 1.349 . S
C1298 C1296 1.327 . S
C1298 C1317 1.429 . S
C1298 H1322 0.950 . S
C1299 C1316 1.574 . S
C1299 C1318 1.368 . S
C1299 H1323 0.949 . S
H1300 C1304 0.949 . S
C1301 C1302 1.349 . S
C1301 C1303 1.327 . S
C1301 H1324 0.950 . S
C1302 C1301 1.349 . S
C1302 C1314 1.349 . S
C1303 C1301 1.327 . S
C1303 C1319 1.429 . S
C1303 H1325 0.950 . S
C1304 H1300 0.949 . S
C1304 C1312 1.574 . S
C1304 C1320 1.368 . S
H1305 C1313 0.950 . S
H1306 C1311 0.950 . S
H1307 C1312 0.949 . S
H1308 C1314 0.950 . S
H1309 C1315 0.950 . S
H1310 C1316 0.949 . S
C1311 H1306 0.950 . S
C1311 C1313 1.327 . S
C1311 C1317 1.429 . S
C1312 C1304 1.574 . S
C1312 H1307 0.949 . S
C1312 C1318 1.368 . S
C1313 C1297 1.349 . S
C1313 H1305 0.950 . S
C1313 C1311 1.327 . S
C1314 C1302 1.349 . S
C1314 H1308 0.950 . S
C1314 C1315 1.327 . S
C1315 H1309 0.950 . S
C1315 C1314 1.327 . S
C1315 C1319 1.429 . S
C1316 C1299 1.574 . S
C1316 H1310 0.949 . S
C1316 C1320 1.368 . S
C1317 C1298 1.429 . S
C1317 C1311 1.429 . S
C1317 C1318 1.523 . S
C1318 C1299 1.368 . S
C1318 C1312 1.368 . S
C1318 C1317 1.523 . S
C1319 C1303 1.429 . S
C1319 C1315 1.429 . S
C1319 C1320 1.523 . S
C1320 C1304 1.368 . S
C1320 C1316 1.368 . S
C1320 C1319 1.523 . S
H1321 C1296 0.950 . S
H1322 C1298 0.950 . S
H1323 C1299 0.949 . S
H1324 C1301 0.950 . S
H1325 C1303 0.950 . S
C1326 C1327 1.349 . S
C1326 C1328 1.327 . S
C1326 H1351 0.950 . S
C1327 C1326 1.349 . S
C1327 C1343 1.349 . S
C1328 C1326 1.327 . S
C1328 C1347 1.429 . S
C1328 H1352 0.950 . S
C1329 C1346 1.574 . S
C1329 C1348 1.368 . S
C1329 H1353 0.949 . S
H1330 C1334 0.949 . S
C1331 C1332 1.349 . S
C1331 C1333 1.327 . S
C1331 H1354 0.950 . S
C1332 C1331 1.349 . S
C1332 C1344 1.349 . S
C1333 C1331 1.327 . S
C1333 C1349 1.429 . S
C1333 H1355 0.950 . S
C1334 H1330 0.949 . S
C1334 C1342 1.574 . S
C1334 C1350 1.368 . S
H1335 C1343 0.950 . S
H1336 C1341 0.950 . S
H1337 C1342 0.949 . S
H1338 C1344 0.950 . S
H1339 C1345 0.950 . S
H1340 C1346 0.949 . S
C1341 H1336 0.950 . S
C1341 C1343 1.327 . S
C1341 C1347 1.429 . S
C1342 C1334 1.574 . S
C1342 H1337 0.949 . S
C1342 C1348 1.368 . S
C1343 C1327 1.349 . S
C1343 H1335 0.950 . S
C1343 C1341 1.327 . S
C1344 C1332 1.349 . S
C1344 H1338 0.950 . S
C1344 C1345 1.327 . S
C1345 H1339 0.950 . S
C1345 C1344 1.327 . S
C1345 C1349 1.429 . S
C1346 C1329 1.574 . S
C1346 H1340 0.949 . S
C1346 C1350 1.368 . S
C1347 C1328 1.429 . S
C1347 C1341 1.429 . S
C1347 C1348 1.523 . S
C1348 C1329 1.368 . S
C1348 C1342 1.368 . S
C1348 C1347 1.523 . S
C1349 C1333 1.429 . S
C1349 C1345 1.429 . S
C1349 C1350 1.523 . S
C1350 C1334 1.368 . S
C1350 C1346 1.368 . S
C1350 C1349 1.523 . S
H1351 C1326 0.950 . S
H1352 C1328 0.950 . S
H1353 C1329 0.949 . S
H1354 C1331 0.950 . S
H1355 C1333 0.950 . S
C1356 C1357 1.349 . S
C1356 C1358 1.327 . S
C1356 H1381 0.950 . S
C1357 C1356 1.349 . S
C1357 C1373 1.349 . S
C1358 C1356 1.327 . S
C1358 C1377 1.429 . S
C1358 H1382 0.950 . S
C1359 C1376 1.574 . S
C1359 C1378 1.368 . S
C1359 H1383 0.949 . S
H1360 C1364 0.949 . S
C1361 C1362 1.349 . S
C1361 C1363 1.327 . S
C1361 H1384 0.950 . S
C1362 C1361 1.349 . S
C1362 C1374 1.349 . S
C1363 C1361 1.327 . S
C1363 C1379 1.429 . S
C1363 H1385 0.950 . S
C1364 H1360 0.949 . S
C1364 C1372 1.574 . S
C1364 C1380 1.368 . S
H1365 C1373 0.950 . S
H1366 C1371 0.950 . S
H1367 C1372 0.949 . S
H1368 C1374 0.950 . S
H1369 C1375 0.950 . S
H1370 C1376 0.949 . S
C1371 H1366 0.950 . S
C1371 C1373 1.327 . S
C1371 C1377 1.429 . S
C1372 C1364 1.574 . S
C1372 H1367 0.949 . S
C1372 C1378 1.368 . S
C1373 C1357 1.349 . S
C1373 H1365 0.950 . S
C1373 C1371 1.327 . S
C1374 C1362 1.349 . S
C1374 H1368 0.950 . S
C1374 C1375 1.327 . S
C1375 H1369 0.950 . S
C1375 C1374 1.327 . S
C1375 C1379 1.429 . S
C1376 C1359 1.574 . S
C1376 H1370 0.949 . S
C1376 C1380 1.368 . S
C1377 C1358 1.429 . S
C1377 C1371 1.429 . S
C1377 C1378 1.523 . S
C1378 C1359 1.368 . S
C1378 C1372 1.368 . S
C1378 C1377 1.523 . S
C1379 C1363 1.429 . S
C1379 C1375 1.429 . S
C1379 C1380 1.523 . S
C1380 C1364 1.368 . S
C1380 C1376 1.368 . S
C1380 C1379 1.523 . S
H1381 C1356 0.950 . S
H1382 C1358 0.950 . S
H1383 C1359 0.949 . S
H1384 C1361 0.950 . S
H1385 C1363 0.950 . S
C1386 C1387 1.349 . S
C1386 C1388 1.327 . S
C1386 H1411 0.950 . S
C1387 C1386 1.349 . S
C1387 C1403 1.349 . S
C1388 C1386 1.327 . S
C1388 C1407 1.429 . S
C1388 H1412 0.950 . S
C1389 C1406 1.574 . S
C1389 C1408 1.368 . S
C1389 H1413 0.949 . S
H1390 C1394 0.949 . S
C1391 C1392 1.349 . S
C1391 C1393 1.327 . S
C1391 H1414 0.950 . S
C1392 C1391 1.349 . S
C1392 C1404 1.349 . S
C1393 C1391 1.327 . S
C1393 C1409 1.429 . S
C1393 H1415 0.950 . S
C1394 H1390 0.949 . S
C1394 C1402 1.574 . S
C1394 C1410 1.368 . S
H1395 C1403 0.950 . S
H1396 C1401 0.950 . S
H1397 C1402 0.949 . S
H1398 C1404 0.950 . S
H1399 C1405 0.950 . S
H1400 C1406 0.949 . S
C1401 H1396 0.950 . S
C1401 C1403 1.327 . S
C1401 C1407 1.429 . S
C1402 C1394 1.574 . S
C1402 H1397 0.949 . S
C1402 C1408 1.368 . S
C1403 C1387 1.349 . S
C1403 H1395 0.950 . S
C1403 C1401 1.327 . S
C1404 C1392 1.349 . S
C1404 H1398 0.950 . S
C1404 C1405 1.327 . S
C1405 H1399 0.950 . S
C1405 C1404 1.327 . S
C1405 C1409 1.429 . S
C1406 C1389 1.574 . S
C1406 H1400 0.949 . S
C1406 C1410 1.368 . S
C1407 C1388 1.429 . S
C1407 C1401 1.429 . S
C1407 C1408 1.523 . S
C1408 C1389 1.368 . S
C1408 C1402 1.368 . S
C1408 C1407 1.523 . S
C1409 C1393 1.429 . S
C1409 C1405 1.429 . S
C1409 C1410 1.523 . S
C1410 C1394 1.368 . S
C1410 C1406 1.368 . S
C1410 C1409 1.523 . S
H1411 C1386 0.950 . S
H1412 C1388 0.950 . S
H1413 C1389 0.949 . S
H1414 C1391 0.950 . S
H1415 C1393 0.950 . S
C1416 C1417 1.349 . S
C1416 C1418 1.327 . S
C1416 H1441 0.950 . S
C1417 C1416 1.349 . S
C1417 C1433 1.349 . S
C1418 C1416 1.327 . S
C1418 C1437 1.429 . S
C1418 H1442 0.950 . S
C1419 C1436 1.574 . S
C1419 C1438 1.368 . S
C1419 H1443 0.949 . S
H1420 C1424 0.949 . S
C1421 C1422 1.349 . S
C1421 C1423 1.327 . S
C1421 H1444 0.950 . S
C1422 C1421 1.349 . S
C1422 C1434 1.349 . S
C1423 C1421 1.327 . S
C1423 C1439 1.429 . S
C1423 H1445 0.950 . S
C1424 H1420 0.949 . S
C1424 C1432 1.574 . S
C1424 C1440 1.368 . S
H1425 C1433 0.950 . S
H1426 C1431 0.950 . S
H1427 C1432 0.949 . S
H1428 C1434 0.950 . S
H1429 C1435 0.950 . S
H1430 C1436 0.949 . S
C1431 H1426 0.950 . S
C1431 C1433 1.327 . S
C1431 C1437 1.429 . S
C1432 C1424 1.574 . S
C1432 H1427 0.949 . S
C1432 C1438 1.368 . S
C1433 C1417 1.349 . S
C1433 H1425 0.950 . S
C1433 C1431 1.327 . S
C1434 C1422 1.349 . S
C1434 H1428 0.950 . S
C1434 C1435 1.327 . S
C1435 H1429 0.950 . S
C1435 C1434 1.327 . S
C1435 C1439 1.429 . S
C1436 C1419 1.574 . S
C1436 H1430 0.949 . S
C1436 C1440 1.368 . S
C1437 C1418 1.429 . S
C1437 C1431 1.429 . S
C1437 C1438 1.523 . S
C1438 C1419 1.368 . S
C1438 C1432 1.368 . S
C1438 C1437 1.523 . S
C1439 C1423 1.429 . S
C1439 C1435 1.429 . S
C1439 C1440 1.523 . S
C1440 C1424 1.368 . S
C1440 C1436 1.368 . S
C1440 C1439 1.523 . S
H1441 C1416 0.950 . S
H1442 C1418 0.950 . S
H1443 C1419 0.949 . S
H1444 C1421 0.950 . S
H1445 C1423 0.950 . S
C1446 C1447 1.349 . S
C1446 C1448 1.327 . S
C1446 H1471 0.950 . S
C1447 C1446 1.349 . S
C1447 C1463 1.349 . S
C1448 C1446 1.327 . S
C1448 C1467 1.429 . S
C1448 H1472 0.950 . S
C1449 C1466 1.574 . S
C1449 C1468 1.368 . S
C1449 H1473 0.949 . S
H1450 C1454 0.949 . S
C1451 C1452 1.349 . S
C1451 C1453 1.327 . S
C1451 H1474 0.950 . S
C1452 C1451 1.349 . S
C1452 C1464 1.349 . S
C1453 C1451 1.327 . S
C1453 C1469 1.429 . S
C1453 H1475 0.950 . S
C1454 H1450 0.949 . S
C1454 C1462 1.574 . S
C1454 C1470 1.368 . S
H1455 C1463 0.950 . S
H1456 C1461 0.950 . S
H1457 C1462 0.949 . S
H1458 C1464 0.950 . S
H1459 C1465 0.950 . S
H1460 C1466 0.949 . S
C1461 H1456 0.950 . S
C1461 C1463 1.327 . S
C1461 C1467 1.429 . S
C1462 C1454 1.574 . S
C1462 H1457 0.949 . S
C1462 C1468 1.368 . S
C1463 C1447 1.349 . S
C1463 H1455 0.950 . S
C1463 C1461 1.327 . S
C1464 C1452 1.349 . S
C1464 H1458 0.950 . S
C1464 C1465 1.327 . S
C1465 H1459 0.950 . S
C1465 C1464 1.327 . S
C1465 C1469 1.429 . S
C1466 C1449 1.574 . S
C1466 H1460 0.949 . S
C1466 C1470 1.368 . S
C1467 C1448 1.429 . S
C1467 C1461 1.429 . S
C1467 C1468 1.523 . S
C1468 C1449 1.368 . S
C1468 C1462 1.368 . S
C1468 C1467 1.523 . S
C1469 C1453 1.429 . S
C1469 C1465 1.429 . S
C1469 C1470 1.523 . S
C1470 C1454 1.368 . S
C1470 C1466 1.368 . S
C1470 C1469 1.523 . S
H1471 C1446 0.950 . S
H1472 C1448 0.950 . S
H1473 C1449 0.949 . S
H1474 C1451 0.950 . S
H1475 C1453 0.950 . S
C1476 C1477 1.349 . S
C1476 C1478 1.327 . S
C1476 H1501 0.950 . S
C1477 C1476 1.349 . S
C1477 C1493 1.349 . S
C1478 C1476 1.327 . S
C1478 C1497 1.429 . S
C1478 H1502 0.950 . S
C1479 C1496 1.574 . S
C1479 C1498 1.368 . S
C1479 H1503 0.949 . S
H1480 C1484 0.949 . S
C1481 C1482 1.349 . S
C1481 C1483 1.327 . S
C1481 H1504 0.950 . S
C1482 C1481 1.349 . S
C1482 C1494 1.349 . S
C1483 C1481 1.327 . S
C1483 C1499 1.429 . S
C1483 H1505 0.950 . S
C1484 H1480 0.949 . S
C1484 C1492 1.574 . S
C1484 C1500 1.368 . S
H1485 C1493 0.950 . S
H1486 C1491 0.950 . S
H1487 C1492 0.949 . S
H1488 C1494 0.950 . S
H1489 C1495 0.950 . S
H1490 C1496 0.949 . S
C1491 H1486 0.950 . S
C1491 C1493 1.327 . S
C1491 C1497 1.429 . S
C1492 C1484 1.574 . S
C1492 H1487 0.949 . S
C1492 C1498 1.368 . S
C1493 C1477 1.349 . S
C1493 H1485 0.950 . S
C1493 C1491 1.327 . S
C1494 C1482 1.349 . S
C1494 H1488 0.950 . S
C1494 C1495 1.327 . S
C1495 H1489 0.950 . S
C1495 C1494 1.327 . S
C1495 C1499 1.429 . S
C1496 C1479 1.574 . S
C1496 H1490 0.949 . S
C1496 C1500 1.368 . S
C1497 C1478 1.429 . S
C1497 C1491 1.429 . S
C1497 C1498 1.523 . S
C1498 C1479 1.368 . S
C1498 C1492 1.368 . S
C1498 C1497 1.523 . S
C1499 C1483 1.429 . S
C1499 C1495 1.429 . S
C1499 C1500 1.523 . S
C1500 C1484 1.368 . S
C1500 C1496 1.368 . S
C1500 C1499 1.523 . S
H1501 C1476 0.950 . S
H1502 C1478 0.950 . S
H1503 C1479 0.949 . S
H1504 C1481 0.950 . S
H1505 C1483 0.950 . S
C1506 C1507 1.349 . S
C1506 C1508 1.327 . S
C1506 H1531 0.950 . S
C1507 C1506 1.349 . S
C1507 C1523 1.349 . S
C1508 C1506 1.327 . S
C1508 C1527 1.429 . S
C1508 H1532 0.950 . S
C1509 C1526 1.574 . S
C1509 C1528 1.368 . S
C1509 H1533 0.949 . S
H1510 C1514 0.949 . S
C1511 C1512 1.349 . S
C1511 C1513 1.327 . S
C1511 H1534 0.950 . S
C1512 C1511 1.349 . S
C1512 C1524 1.349 . S
C1513 C1511 1.327 . S
C1513 C1529 1.429 . S
C1513 H1535 0.950 . S
C1514 H1510 0.949 . S
C1514 C1522 1.574 . S
C1514 C1530 1.368 . S
H1515 C1523 0.950 . S
H1516 C1521 0.950 . S
H1517 C1522 0.949 . S
H1518 C1524 0.950 . S
H1519 C1525 0.950 . S
H1520 C1526 0.949 . S
C1521 H1516 0.950 . S
C1521 C1523 1.327 . S
C1521 C1527 1.429 . S
C1522 C1514 1.574 . S
C1522 H1517 0.949 . S
C1522 C1528 1.368 . S
C1523 C1507 1.349 . S
C1523 H1515 0.950 . S
C1523 C1521 1.327 . S
C1524 C1512 1.349 . S
C1524 H1518 0.950 . S
C1524 C1525 1.327 . S
C1525 H1519 0.950 . S
C1525 C1524 1.327 . S
C1525 C1529 1.429 . S
C1526 C1509 1.574 . S
C1526 H1520 0.949 . S
C1526 C1530 1.368 . S
C1527 C1508 1.429 . S
C1527 C1521 1.429 . S
C1527 C1528 1.523 . S
C1528 C1509 1.368 . S
C1528 C1522 1.368 . S
C1528 C1527 1.523 . S
C1529 C1513 1.429 . S
C1529 C1525 1.429 . S
C1529 C1530 1.523 . S
C1530 C1514 1.368 . S
C1530 C1526 1.368 . S
C1530 C1529 1.523 . S
H1531 C1506 0.950 . S
H1532 C1508 0.950 . S
H1533 C1509 0.949 . S
H1534 C1511 0.950 . S
H1535 C1513 0.950 . S
C1536 C1537 1.349 . S
C1536 C1538 1.327 . S
C1536 H1561 0.950 . S
C1537 C1536 1.349 . S
C1537 C1553 1.349 . S
C1538 C1536 1.327 . S
C1538 C1557 1.429 . S
C1538 H1562 0.950 . S
C1539 C1556 1.574 . S
C1539 C1558 1.368 . S
C1539 H1563 0.949 . S
H1540 C1544 0.949 . S
C1541 C1542 1.349 . S
C1541 C1543 1.327 . S
C1541 H1564 0.950 . S
C1542 C1541 1.349 . S
C1542 C1554 1.349 . S
C1543 C1541 1.327 . S
C1543 C1559 1.429 . S
C1543 H1565 0.950 . S
C1544 H1540 0.949 . S
C1544 C1552 1.574 . S
C1544 C1560 1.368 . S
H1545 C1553 0.950 . S
H1546 C1551 0.950 . S
H1547 C1552 0.949 . S
H1548 C1554 0.950 . S
H1549 C1555 0.950 . S
H1550 C1556 0.949 . S
C1551 H1546 0.950 . S
C1551 C1553 1.327 . S
C1551 C1557 1.429 . S
C1552 C1544 1.574 . S
C1552 H1547 0.949 . S
C1552 C1558 1.368 . S
C1553 C1537 1.349 . S
C1553 H1545 0.950 . S
C1553 C1551 1.327 . S
C1554 C1542 1.349 . S
C1554 H1548 0.950 . S
C1554 C1555 1.327 . S
C1555 H1549 0.950 . S
C1555 C1554 1.327 . S
C1555 C1559 1.429 . S
C1556 C1539 1.574 . S
C1556 H1550 0.949 . S
C1556 C1560 1.368 . S
C1557 C1538 1.429 . S
C1557 C1551 1.429 . S
C1557 C1558 1.523 . S
C1558 C1539 1.368 . S
C1558 C1552 1.368 . S
C1558 C1557 1.523 . S
C1559 C1543 1.429 . S
C1559 C1555 1.429 . S
C1559 C1560 1.523 . S
C1560 C1544 1.368 . S
C1560 C1556 1.368 . S
C1560 C1559 1.523 . S
H1561 C1536 0.950 . S
H1562 C1538 0.950 . S
H1563 C1539 0.949 . S
H1564 C1541 0.950 . S
H1565 C1543 0.950 . S
C1566 C1567 1.349 . S
C1566 C1568 1.327 . S
C1566 H1591 0.950 . S
C1567 C1566 1.349 . S
C1567 C1583 1.349 . S
C1568 C1566 1.327 . S
C1568 C1587 1.429 . S
C1568 H1592 0.950 . S
C1569 C1586 1.574 . S
C1569 C1588 1.368 . S
C1569 H1593 0.949 . S
H1570 C1574 0.949 . S
C1571 C1572 1.349 . S
C1571 C1573 1.327 . S
C1571 H1594 0.950 . S
C1572 C1571 1.349 . S
C1572 C1584 1.349 . S
C1573 C1571 1.327 . S
C1573 C1589 1.429 . S
C1573 H1595 0.950 . S
C1574 H1570 0.949 . S
C1574 C1582 1.574 . S
C1574 C1590 1.368 . S
H1575 C1583 0.950 . S
H1576 C1581 0.950 . S
H1577 C1582 0.949 . S
H1578 C1584 0.950 . S
H1579 C1585 0.950 . S
H1580 C1586 0.949 . S
C1581 H1576 0.950 . S
C1581 C1583 1.327 . S
C1581 C1587 1.429 . S
C1582 C1574 1.574 . S
C1582 H1577 0.949 . S
C1582 C1588 1.368 . S
C1583 C1567 1.349 . S
C1583 H1575 0.950 . S
C1583 C1581 1.327 . S
C1584 C1572 1.349 . S
C1584 H1578 0.950 . S
C1584 C1585 1.327 . S
C1585 H1579 0.950 . S
C1585 C1584 1.327 . S
C1585 C1589 1.429 . S
C1586 C1569 1.574 . S
C1586 H1580 0.949 . S
C1586 C1590 1.368 . S
C1587 C1568 1.429 . S
C1587 C1581 1.429 . S
C1587 C1588 1.523 . S
C1588 C1569 1.368 . S
C1588 C1582 1.368 . S
C1588 C1587 1.523 . S
C1589 C1573 1.429 . S
C1589 C1585 1.429 . S
C1589 C1590 1.523 . S
C1590 C1574 1.368 . S
C1590 C1586 1.368 . S
C1590 C1589 1.523 . S
H1591 C1566 0.950 . S
H1592 C1568 0.950 . S
H1593 C1569 0.949 . S
H1594 C1571 0.950 . S
H1595 C1573 0.950 . S
C1596 C1597 1.349 . S
C1596 C1598 1.327 . S
C1596 H1621 0.950 . S
C1597 C1596 1.349 . S
C1597 C1613 1.349 . S
C1598 C1596 1.327 . S
C1598 C1617 1.429 . S
C1598 H1622 0.950 . S
C1599 C1616 1.574 . S
C1599 C1618 1.368 . S
C1599 H1623 0.949 . S
H1600 C1604 0.949 . S
C1601 C1602 1.349 . S
C1601 C1603 1.327 . S
C1601 H1624 0.950 . S
C1602 C1601 1.349 . S
C1602 C1614 1.349 . S
C1603 C1601 1.327 . S
C1603 C1619 1.429 . S
C1603 H1625 0.950 . S
C1604 H1600 0.949 . S
C1604 C1612 1.574 . S
C1604 C1620 1.368 . S
H1605 C1613 0.950 . S
H1606 C1611 0.950 . S
H1607 C1612 0.949 . S
H1608 C1614 0.950 . S
H1609 C1615 0.950 . S
H1610 C1616 0.949 . S
C1611 H1606 0.950 . S
C1611 C1613 1.327 . S
C1611 C1617 1.429 . S
C1612 C1604 1.574 . S
C1612 H1607 0.949 . S
C1612 C1618 1.368 . S
C1613 C1597 1.349 . S
C1613 H1605 0.950 . S
C1613 C1611 1.327 . S
C1614 C1602 1.349 . S
C1614 H1608 0.950 . S
C1614 C1615 1.327 . S
C1615 H1609 0.950 . S
C1615 C1614 1.327 . S
C1615 C1619 1.429 . S
C1616 C1599 1.574 . S
C1616 H1610 0.949 . S
C1616 C1620 1.368 . S
C1617 C1598 1.429 . S
C1617 C1611 1.429 . S
C1617 C1618 1.523 . S
C1618 C1599 1.368 . S
C1618 C1612 1.368 . S
C1618 C1617 1.523 . S
C1619 C1603 1.429 . S
C1619 C1615 1.429 . S
C1619 C1620 1.523 . S
C1620 C1604 1.368 . S
C1620 C1616 1.368 . S
C1620 C1619 1.523 . S
H1621 C1596 0.950 . S
H1622 C1598 0.950 . S
H1623 C1599 0.949 . S
H1624 C1601 0.950 . S
H1625 C1603 0.950 . S
C1626 C1627 1.349 . S
C1626 C1628 1.327 . S
C1626 H1651 0.950 . S
C1627 C1626 1.349 . S
C1627 C1643 1.349 . S
C1628 C1626 1.327 . S
C1628 C1647 1.429 . S
C1628 H1652 0.950 . S
C1629 C1646 1.574 . S
C1629 C1648 1.368 . S
C1629 H1653 0.949 . S
H1630 C1634 0.949 . S
C1631 C1632 1.349 . S
C1631 C1633 1.327 . S
C1631 H1654 0.950 . S
C1632 C1631 1.349 . S
C1632 C1644 1.349 . S
C1633 C1631 1.327 . S
C1633 C1649 1.429 . S
C1633 H1655 0.950 . S
C1634 H1630 0.949 . S
C1634 C1642 1.574 . S
C1634 C1650 1.368 . S
H1635 C1643 0.950 . S
H1636 C1641 0.950 . S
H1637 C1642 0.949 . S
H1638 C1644 0.950 . S
H1639 C1645 0.950 . S
H1640 C1646 0.949 . S
C1641 H1636 0.950 . S
C1641 C1643 1.327 . S
C1641 C1647 1.429 . S
C1642 C1634 1.574 . S
C1642 H1637 0.949 . S
C1642 C1648 1.368 . S
C1643 C1627 1.349 . S
C1643 H1635 0.950 . S
C1643 C1641 1.327 . S
C1644 C1632 1.349 . S
C1644 H1638 0.950 . S
C1644 C1645 1.327 . S
C1645 H1639 0.950 . S
C1645 C1644 1.327 . S
C1645 C1649 1.429 . S
C1646 C1629 1.574 . S
C1646 H1640 0.949 . S
C1646 C1650 1.368 . S
C1647 C1628 1.429 . S
C1647 C1641 1.429 . S
C1647 C1648 1.523 . S
C1648 C1629 1.368 . S
C1648 C1642 1.368 . S
C1648 C1647 1.523 . S
C1649 C1633 1.429 . S
C1649 C1645 1.429 . S
C1649 C1650 1.523 . S
C1650 C1634 1.368 . S
C1650 C1646 1.368 . S
C1650 C1649 1.523 . S
H1651 C1626 0.950 . S
H1652 C1628 0.950 . S
H1653 C1629 0.949 . S
H1654 C1631 0.950 . S
H1655 C1633 0.950 . S
C1656 C1657 1.349 . S
C1656 C1658 1.327 . S
C1656 H1681 0.950 . S
C1657 C1656 1.349 . S
C1657 C1673 1.349 . S
C1658 C1656 1.327 . S
C1658 C1677 1.429 . S
C1658 H1682 0.950 . S
C1659 C1676 1.574 . S
C1659 C1678 1.368 . S
C1659 H1683 0.949 . S
H1660 C1664 0.949 . S
C1661 C1662 1.349 . S
C1661 C1663 1.327 . S
C1661 H1684 0.950 . S
C1662 C1661 1.349 . S
C1662 C1674 1.349 . S
C1663 C1661 1.327 . S
C1663 C1679 1.429 . S
C1663 H1685 0.950 . S
C1664 H1660 0.949 . S
C1664 C1672 1.574 . S
C1664 C1680 1.368 . S
H1665 C1673 0.922 1_556 S
H1666 C1671 0.950 . S
H1667 C1672 0.949 . S
H1668 C1674 0.950 . S
H1669 C1675 0.950 . S
H1670 C1676 0.949 . S
C1671 H1666 0.950 . S
C1671 C1673 1.327 . S
C1671 C1677 1.429 . S
C1672 C1664 1.574 . S
C1672 H1667 0.949 . S
C1672 C1678 1.368 . S
C1673 C1657 1.349 . S
C1673 H1665 0.922 1_554 S
C1673 C1671 1.327 . S
C1674 C1662 1.349 . S
C1674 H1668 0.950 . S
C1674 C1675 1.327 . S
C1675 H1669 0.950 . S
C1675 C1674 1.327 . S
C1675 C1679 1.429 . S
C1676 C1659 1.574 . S
C1676 H1670 0.949 . S
C1676 C1680 1.368 . S
C1677 C1658 1.429 . S
C1677 C1671 1.429 . S
C1677 C1678 1.523 . S
C1678 C1659 1.368 . S
C1678 C1672 1.368 . S
C1678 C1677 1.523 . S
C1679 C1663 1.429 . S
C1679 C1675 1.429 . S
C1679 C1680 1.523 . S
C1680 C1664 1.368 . S
C1680 C1676 1.368 . S
C1680 C1679 1.523 . S
H1681 C1656 0.950 . S
H1682 C1658 0.950 . S
H1683 C1659 0.949 . S
H1684 C1661 0.950 . S
H1685 C1663 0.950 . S
C1686 C1687 1.349 . S
C1686 C1688 1.327 . S
C1686 H1711 0.950 . S
C1687 C1686 1.349 . S
C1687 C1703 1.349 . S
C1688 C1686 1.327 . S
C1688 C1707 1.429 . S
C1688 H1712 0.950 . S
C1689 C1706 1.574 . S
C1689 C1708 1.368 . S
C1689 H1713 0.949 . S
H1690 C1694 0.949 . S
C1691 C1692 1.349 . S
C1691 C1693 1.327 . S
C1691 H1714 0.950 . S
C1692 C1691 1.349 . S
C1692 C1704 1.349 . S
C1693 C1691 1.327 . S
C1693 C1709 1.429 . S
C1693 H1715 0.950 . S
C1694 H1690 0.949 . S
C1694 C1702 1.574 . S
C1694 C1710 1.368 . S
H1695 C1703 0.950 . S
H1696 C1701 0.950 . S
H1697 C1702 0.949 . S
H1698 C1704 0.950 . S
H1699 C1705 0.950 . S
H1700 C1706 0.949 . S
C1701 H1696 0.950 . S
C1701 C1703 1.327 . S
C1701 C1707 1.429 . S
C1702 C1694 1.574 . S
C1702 H1697 0.949 . S
C1702 C1708 1.368 . S
C1703 C1687 1.349 . S
C1703 H1695 0.950 . S
C1703 C1701 1.327 . S
C1704 C1692 1.349 . S
C1704 H1698 0.950 . S
C1704 C1705 1.327 . S
C1705 H1699 0.950 . S
C1705 C1704 1.327 . S
C1705 C1709 1.429 . S
C1706 C1689 1.574 . S
C1706 H1700 0.949 . S
C1706 C1710 1.368 . S
C1707 C1688 1.429 . S
C1707 C1701 1.429 . S
C1707 C1708 1.523 . S
C1708 C1689 1.368 . S
C1708 C1702 1.368 . S
C1708 C1707 1.523 . S
C1709 C1693 1.429 . S
C1709 C1705 1.429 . S
C1709 C1710 1.523 . S
C1710 C1694 1.368 . S
C1710 C1706 1.368 . S
C1710 C1709 1.523 . S
H1711 C1686 0.950 . S
H1712 C1688 0.950 . S
H1713 C1689 0.949 . S
H1714 C1691 0.950 . S
H1715 C1693 0.950 . S
C1716 C1717 1.349 . S
C1716 C1718 1.327 . S
C1716 H1741 0.950 . S
C1717 C1716 1.349 . S
C1717 C1733 1.349 . S
C1718 C1716 1.327 . S
C1718 C1737 1.429 . S
C1718 H1742 0.950 . S
C1719 C1736 1.574 . S
C1719 C1738 1.368 . S
C1719 H1743 0.949 . S
H1720 C1724 0.949 . S
C1721 C1722 1.349 . S
C1721 C1723 1.327 . S
C1721 H1744 0.950 . S
C1722 C1721 1.349 . S
C1722 C1734 1.349 . S
C1723 C1721 1.327 . S
C1723 C1739 1.429 . S
C1723 H1745 0.950 . S
C1724 H1720 0.949 . S
C1724 C1732 1.574 . S
C1724 C1740 1.368 . S
H1725 C1733 0.930 1_556 S
H1726 C1731 0.950 . S
H1727 C1732 0.949 . S
H1728 C1734 0.950 . S
H1729 C1735 0.950 . S
H1730 C1736 0.949 . S
C1731 H1726 0.950 . S
C1731 C1733 1.327 . S
C1731 C1737 1.429 . S
C1732 C1724 1.574 . S
C1732 H1727 0.949 . S
C1732 C1738 1.368 . S
C1733 C1717 1.349 . S
C1733 H1725 0.930 1_554 S
C1733 C1731 1.327 . S
C1734 C1722 1.349 . S
C1734 H1728 0.950 . S
C1734 C1735 1.327 . S
C1735 H1729 0.950 . S
C1735 C1734 1.327 . S
C1735 C1739 1.429 . S
C1736 C1719 1.574 . S
C1736 H1730 0.949 . S
C1736 C1740 1.368 . S
C1737 C1718 1.429 . S
C1737 C1731 1.429 . S
C1737 C1738 1.523 . S
C1738 C1719 1.368 . S
C1738 C1732 1.368 . S
C1738 C1737 1.523 . S
C1739 C1723 1.429 . S
C1739 C1735 1.429 . S
C1739 C1740 1.523 . S
C1740 C1724 1.368 . S
C1740 C1736 1.368 . S
C1740 C1739 1.523 . S
H1741 C1716 0.950 . S
H1742 C1718 0.950 . S
H1743 C1719 0.949 . S
H1744 C1721 0.950 . S
H1745 C1723 0.950 . S
C1746 C1747 1.349 . S
C1746 C1748 1.327 . S
C1746 H1771 0.950 . S
C1747 C1746 1.349 . S
C1747 C1763 1.349 . S
C1748 C1746 1.327 . S
C1748 C1767 1.429 . S
C1748 H1772 0.950 . S
C1749 C1766 1.574 . S
C1749 C1768 1.368 . S
C1749 H1773 0.949 . S
H1750 C1754 0.949 . S
C1751 C1752 1.349 . S
C1751 C1753 1.327 . S
C1751 H1774 0.950 . S
C1752 C1751 1.349 . S
C1752 C1764 1.349 . S
C1753 C1751 1.327 . S
C1753 C1769 1.429 . S
C1753 H1775 0.950 . S
C1754 H1750 0.949 . S
C1754 C1762 1.574 . S
C1754 C1770 1.368 . S
H1755 C1763 0.950 1_554 S
H1756 C1761 0.950 . S
H1757 C1762 0.949 . S
H1758 C1764 0.950 . S
H1759 C1765 0.950 . S
H1760 C1766 0.949 . S
C1761 H1756 0.950 . S
C1761 C1763 1.327 . S
C1761 C1767 1.429 . S
C1762 C1754 1.574 . S
C1762 H1757 0.949 . S
C1762 C1768 1.368 . S
C1763 C1747 1.349 . S
C1763 H1755 0.950 1_556 S
C1763 C1761 1.327 . S
C1764 C1752 1.349 . S
C1764 H1758 0.950 . S
C1764 C1765 1.327 . S
C1765 H1759 0.950 . S
C1765 C1764 1.327 . S
C1765 C1769 1.429 . S
C1766 C1749 1.574 . S
C1766 H1760 0.949 . S
C1766 C1770 1.368 . S
C1767 C1748 1.429 . S
C1767 C1761 1.429 . S
C1767 C1768 1.523 . S
C1768 C1749 1.368 . S
C1768 C1762 1.368 . S
C1768 C1767 1.523 . S
C1769 C1753 1.429 . S
C1769 C1765 1.429 . S
C1769 C1770 1.523 . S
C1770 C1754 1.368 . S
C1770 C1766 1.368 . S
C1770 C1769 1.523 . S
H1771 C1746 0.950 . S
H1772 C1748 0.950 . S
H1773 C1749 0.949 . S
H1774 C1751 0.950 . S
H1775 C1753 0.950 . S
C1776 C1777 1.349 . S
C1776 C1778 1.327 . S
C1776 H1801 0.950 . S
C1777 C1776 1.349 . S
C1777 C1793 1.349 . S
C1778 C1776 1.327 . S
C1778 C1797 1.429 . S
C1778 H1802 0.950 . S
C1779 C1796 1.574 . S
C1779 C1798 1.368 . S
C1779 H1803 0.949 . S
H1780 C1784 0.949 . S
C1781 C1782 1.349 . S
C1781 C1783 1.327 . S
C1781 H1804 0.950 . S
C1782 C1781 1.349 . S
C1782 C1794 1.349 . S
C1783 C1781 1.327 . S
C1783 C1799 1.429 . S
C1783 H1805 0.950 . S
C1784 H1780 0.949 . S
C1784 C1792 1.574 . S
C1784 C1800 1.368 . S
H1785 C1793 0.950 . S
H1786 C1791 0.950 . S
H1787 C1792 0.949 . S
H1788 C1794 0.950 . S
H1789 C1795 0.950 . S
H1790 C1796 0.949 . S
C1791 H1786 0.950 . S
C1791 C1793 1.327 . S
C1791 C1797 1.429 . S
C1792 C1784 1.574 . S
C1792 H1787 0.949 . S
C1792 C1798 1.368 . S
C1793 C1777 1.349 . S
C1793 H1785 0.950 . S
C1793 C1791 1.327 . S
C1794 C1782 1.349 . S
C1794 H1788 0.950 . S
C1794 C1795 1.327 . S
C1795 H1789 0.950 . S
C1795 C1794 1.327 . S
C1795 C1799 1.429 . S
C1796 C1779 1.574 . S
C1796 H1790 0.949 . S
C1796 C1800 1.368 . S
C1797 C1778 1.429 . S
C1797 C1791 1.429 . S
C1797 C1798 1.523 . S
C1798 C1779 1.368 . S
C1798 C1792 1.368 . S
C1798 C1797 1.523 . S
C1799 C1783 1.429 . S
C1799 C1795 1.429 . S
C1799 C1800 1.523 . S
C1800 C1784 1.368 . S
C1800 C1796 1.368 . S
C1800 C1799 1.523 . S
H1801 C1776 0.950 . S
H1802 C1778 0.950 . S
H1803 C1779 0.949 . S
H1804 C1781 0.950 . S
H1805 C1783 0.950 . S
C1806 C1807 1.355 . S
C1806 C1808 1.333 . S
C1806 H1831 0.938 1_556 S
C1807 C1806 1.355 . S
C1807 C1823 1.349 . S
C1808 C1806 1.333 . S
C1808 C1827 1.429 . S
C1808 H1832 0.950 . S
C1809 C1826 1.574 . S
C1809 C1828 1.368 . S
C1809 H1833 0.949 . S
H1810 C1814 0.949 . S
C1811 C1812 1.349 . S
C1811 C1813 1.327 . S
C1811 H1834 0.950 . S
C1812 C1811 1.349 . S
C1812 C1824 1.349 . S
C1813 C1811 1.327 . S
C1813 C1829 1.429 . S
C1813 H1835 0.950 . S
C1814 H1810 0.949 . S
C1814 C1822 1.574 . S
C1814 C1830 1.368 . S
H1815 C1823 0.950 . S
H1816 C1821 0.950 . S
H1817 C1822 0.949 . S
H1818 C1824 0.950 . S
H1819 C1825 0.950 . S
H1820 C1826 0.949 . S
C1821 H1816 0.950 . S
C1821 C1823 1.327 . S
C1821 C1827 1.429 . S
C1822 C1814 1.574 . S
C1822 H1817 0.949 . S
C1822 C1828 1.368 . S
C1823 C1807 1.349 . S
C1823 H1815 0.950 . S
C1823 C1821 1.327 . S
C1824 C1812 1.349 . S
C1824 H1818 0.950 . S
C1824 C1825 1.327 . S
C1825 H1819 0.950 . S
C1825 C1824 1.327 . S
C1825 C1829 1.429 . S
C1826 C1809 1.574 . S
C1826 H1820 0.949 . S
C1826 C1830 1.368 . S
C1827 C1808 1.429 . S
C1827 C1821 1.429 . S
C1827 C1828 1.523 . S
C1828 C1809 1.368 . S
C1828 C1822 1.368 . S
C1828 C1827 1.523 . S
C1829 C1813 1.429 . S
C1829 C1825 1.429 . S
C1829 C1830 1.523 . S
C1830 C1814 1.368 . S
C1830 C1826 1.368 . S
C1830 C1829 1.523 . S
H1831 C1806 0.938 1_554 S
H1832 C1808 0.950 . S
H1833 C1809 0.949 . S
H1834 C1811 0.950 . S
H1835 C1813 0.950 . S
C1836 C1837 1.349 . S
C1836 C1838 1.327 . S
C1836 H1861 0.950 . S
C1837 C1836 1.349 . S
C1837 C1853 1.349 . S
C1838 C1836 1.327 . S
C1838 C1857 1.429 . S
C1838 H1862 0.950 . S
C1839 C1856 1.574 . S
C1839 C1858 1.368 . S
C1839 H1863 0.949 . S
H1840 C1844 0.949 . S
C1841 C1842 1.349 . S
C1841 C1843 1.327 . S
C1841 H1864 0.950 . S
C1842 C1841 1.349 . S
C1842 C1854 1.349 . S
C1843 C1841 1.327 . S
C1843 C1859 1.429 . S
C1843 H1865 0.950 . S
C1844 H1840 0.949 . S
C1844 C1852 1.574 . S
C1844 C1860 1.368 . S
H1845 C1853 0.950 . S
H1846 C1851 0.950 . S
H1847 C1852 0.949 . S
H1848 C1854 0.950 . S
H1849 C1855 0.950 . S
H1850 C1856 0.949 . S
C1851 H1846 0.950 . S
C1851 C1853 1.327 . S
C1851 C1857 1.429 . S
C1852 C1844 1.574 . S
C1852 H1847 0.949 . S
C1852 C1858 1.368 . S
C1853 C1837 1.349 . S
C1853 H1845 0.950 . S
C1853 C1851 1.327 . S
C1854 C1842 1.349 . S
C1854 H1848 0.950 . S
C1854 C1855 1.327 . S
C1855 H1849 0.950 . S
C1855 C1854 1.327 . S
C1855 C1859 1.429 . S
C1856 C1839 1.574 . S
C1856 H1850 0.949 . S
C1856 C1860 1.368 . S
C1857 C1838 1.429 . S
C1857 C1851 1.429 . S
C1857 C1858 1.523 . S
C1858 C1839 1.368 . S
C1858 C1852 1.368 . S
C1858 C1857 1.523 . S
C1859 C1843 1.429 . S
C1859 C1855 1.429 . S
C1859 C1860 1.523 . S
C1860 C1844 1.368 . S
C1860 C1856 1.368 . S
C1860 C1859 1.523 . S
H1861 C1836 0.950 . S
H1862 C1838 0.950 . S
H1863 C1839 0.949 . S
H1864 C1841 0.950 . S
H1865 C1843 0.950 . S
C1866 C1867 1.351 . S
C1866 C1868 1.328 . S
C1866 H1891 0.947 1_556 S
C1867 C1866 1.351 . S
C1867 C1883 1.349 . S
C1868 C1866 1.328 . S
C1868 C1887 1.429 . S
C1868 H1892 0.966 . S
C1869 C1886 1.574 . S
C1869 C1888 1.368 . S
C1869 H1893 0.949 . S
H1870 C1874 0.949 . S
C1871 C1872 1.349 . S
C1871 C1873 1.327 . S
C1871 H1894 0.950 . S
C1872 C1871 1.349 . S
C1872 C1884 1.349 . S
C1873 C1871 1.327 . S
C1873 C1889 1.429 . S
C1873 H1895 0.950 . S
C1874 H1870 0.949 . S
C1874 C1882 1.574 . S
C1874 C1890 1.368 . S
H1875 C1883 0.950 . S
H1876 C1881 0.950 . S
H1877 C1882 0.949 . S
H1878 C1884 0.950 . S
H1879 C1885 0.950 . S
H1880 C1886 0.949 . S
C1881 H1876 0.950 . S
C1881 C1883 1.327 . S
C1881 C1887 1.429 . S
C1882 C1874 1.574 . S
C1882 H1877 0.949 . S
C1882 C1888 1.368 . S
C1883 C1867 1.349 . S
C1883 H1875 0.950 . S
C1883 C1881 1.327 . S
C1884 C1872 1.349 . S
C1884 H1878 0.950 . S
C1884 C1885 1.327 . S
C1885 H1879 0.950 . S
C1885 C1884 1.327 . S
C1885 C1889 1.429 . S
C1886 C1869 1.574 . S
C1886 H1880 0.949 . S
C1886 C1890 1.368 . S
C1887 C1868 1.429 . S
C1887 C1881 1.429 . S
C1887 C1888 1.523 . S
C1888 C1869 1.368 . S
C1888 C1882 1.368 . S
C1888 C1887 1.523 . S
C1889 C1873 1.429 . S
C1889 C1885 1.429 . S
C1889 C1890 1.523 . S
C1890 C1874 1.368 . S
C1890 C1886 1.368 . S
C1890 C1889 1.523 . S
H1891 C1866 0.947 1_554 S
H1892 C1868 0.966 . S
H1893 C1869 0.949 . S
H1894 C1871 0.950 . S
H1895 C1873 0.950 . S
C1896 C1897 1.349 . S
C1896 C1898 1.327 . S
C1896 H1921 0.950 . S
C1897 C1896 1.349 . S
C1897 C1913 1.349 1_556 S
C1898 C1896 1.327 . S
C1898 C1917 1.429 . S
C1898 H1922 0.950 . S
C1899 C1916 1.574 . S
C1899 C1918 1.368 . S
C1899 H1923 0.949 . S
H1900 C1904 0.949 . S
C1901 C1902 1.349 . S
C1901 C1903 1.327 . S
C1901 H1924 0.950 . S
C1902 C1901 1.349 . S
C1902 C1914 1.349 . S
C1903 C1901 1.327 . S
C1903 C1919 1.429 . S
C1903 H1925 0.950 . S
C1904 H1900 0.949 . S
C1904 C1912 1.574 . S
C1904 C1920 1.368 . S
H1905 C1913 0.950 . S
H1906 C1911 0.949 . S
H1907 C1912 0.949 . S
H1908 C1914 0.950 . S
H1909 C1915 0.950 . S
H1910 C1916 0.949 . S
C1911 H1906 0.949 . S
C1911 C1913 1.327 . S
C1911 C1917 1.429 1_554 S
C1912 C1904 1.574 . S
C1912 H1907 0.949 . S
C1912 C1918 1.368 . S
C1913 C1897 1.349 1_554 S
C1913 H1905 0.950 . S
C1913 C1911 1.327 . S
C1914 C1902 1.349 . S
C1914 H1908 0.950 . S
C1914 C1915 1.327 . S
C1915 H1909 0.950 . S
C1915 C1914 1.327 . S
C1915 C1919 1.429 . S
C1916 C1899 1.574 . S
C1916 H1910 0.949 . S
C1916 C1920 1.368 . S
C1917 C1898 1.429 . S
C1917 C1911 1.429 1_556 S
C1917 C1918 1.523 . S
C1918 C1899 1.368 . S
C1918 C1912 1.368 . S
C1918 C1917 1.523 . S
C1919 C1903 1.429 . S
C1919 C1915 1.429 . S
C1919 C1920 1.523 . S
C1920 C1904 1.368 . S
C1920 C1916 1.368 . S
C1920 C1919 1.523 . S
H1921 C1896 0.950 . S
H1922 C1898 0.950 . S
H1923 C1899 0.949 . S
H1924 C1901 0.950 . S
H1925 C1903 0.950 . S
C1926 C1927 1.349 . S
C1926 C1928 1.327 . S
C1926 H1951 0.950 . S
C1927 C1926 1.349 . S
C1927 C1943 1.349 . S
C1928 C1926 1.327 . S
C1928 C1947 1.429 . S
C1928 H1952 0.950 . S
C1929 C1946 1.574 . S
C1929 C1948 1.368 . S
C1929 H1953 0.949 . S
H1930 C1934 0.949 . S
C1931 C1932 1.349 . S
C1931 C1933 1.327 . S
C1931 H1954 0.950 . S
C1932 C1931 1.349 . S
C1932 C1944 1.349 . S
C1933 C1931 1.327 . S
C1933 C1949 1.429 . S
C1933 H1955 0.950 . S
C1934 H1930 0.949 . S
C1934 C1942 1.574 . S
C1934 C1950 1.368 . S
H1935 C1943 0.950 . S
H1936 C1941 0.950 . S
H1937 C1942 0.949 . S
H1938 C1944 0.950 . S
H1939 C1945 0.950 . S
H1940 C1946 0.949 . S
C1941 H1936 0.950 . S
C1941 C1943 1.327 . S
C1941 C1947 1.429 . S
C1942 C1934 1.574 . S
C1942 H1937 0.949 . S
C1942 C1948 1.368 . S
C1943 C1927 1.349 . S
C1943 H1935 0.950 . S
C1943 C1941 1.327 . S
C1944 C1932 1.349 . S
C1944 H1938 0.950 . S
C1944 C1945 1.327 . S
C1945 H1939 0.950 . S
C1945 C1944 1.327 . S
C1945 C1949 1.429 . S
C1946 C1929 1.574 . S
C1946 H1940 0.949 . S
C1946 C1950 1.368 . S
C1947 C1928 1.429 . S
C1947 C1941 1.429 . S
C1947 C1948 1.523 . S
C1948 C1929 1.368 . S
C1948 C1942 1.368 . S
C1948 C1947 1.523 . S
C1949 C1933 1.429 . S
C1949 C1945 1.429 . S
C1949 C1950 1.523 . S
C1950 C1934 1.368 . S
C1950 C1946 1.368 . S
C1950 C1949 1.523 . S
H1951 C1926 0.950 . S
H1952 C1928 0.950 . S
H1953 C1929 0.949 . S
H1954 C1931 0.950 . S
H1955 C1933 0.950 . S
C1956 C1957 1.349 . S
C1956 C1958 1.327 . S
C1956 H1981 0.950 . S
C1957 C1956 1.349 . S
C1957 C1973 1.349 . S
C1958 C1956 1.327 . S
C1958 C1977 1.429 . S
C1958 H1982 0.950 . S
C1959 C1976 1.574 . S
C1959 C1978 1.368 . S
C1959 H1983 0.949 . S
H1960 C1964 0.949 . S
C1961 C1962 1.349 . S
C1961 C1963 1.327 . S
C1961 H1984 0.950 . S
C1962 C1961 1.349 . S
C1962 C1974 1.349 . S
C1963 C1961 1.327 . S
C1963 C1979 1.429 . S
C1963 H1985 0.950 . S
C1964 H1960 0.949 . S
C1964 C1972 1.574 . S
C1964 C1980 1.368 . S
H1965 C1973 0.950 . S
H1966 C1971 0.950 . S
H1967 C1972 0.949 . S
H1968 C1974 0.950 . S
H1969 C1975 0.950 . S
H1970 C1976 0.949 . S
C1971 H1966 0.950 . S
C1971 C1973 1.327 . S
C1971 C1977 1.429 . S
C1972 C1964 1.574 . S
C1972 H1967 0.949 . S
C1972 C1978 1.368 . S
C1973 C1957 1.349 . S
C1973 H1965 0.950 . S
C1973 C1971 1.327 . S
C1974 C1962 1.349 . S
C1974 H1968 0.950 . S
C1974 C1975 1.327 . S
C1975 H1969 0.950 . S
C1975 C1974 1.327 . S
C1975 C1979 1.429 . S
C1976 C1959 1.574 . S
C1976 H1970 0.949 . S
C1976 C1980 1.368 . S
C1977 C1958 1.429 . S
C1977 C1971 1.429 . S
C1977 C1978 1.523 . S
C1978 C1959 1.368 . S
C1978 C1972 1.368 . S
C1978 C1977 1.523 . S
C1979 C1963 1.429 . S
C1979 C1975 1.429 . S
C1979 C1980 1.523 . S
C1980 C1964 1.368 . S
C1980 C1976 1.368 . S
C1980 C1979 1.523 . S
H1981 C1956 0.950 . S
H1982 C1958 0.950 . S
H1983 C1959 0.949 . S
H1984 C1961 0.950 . S
H1985 C1963 0.950 . S
C1986 C1987 1.349 . S
C1986 C1988 1.327 . S
C1986 H2011 0.950 . S
C1987 C1986 1.349 . S
C1987 C2003 1.349 . S
C1988 C1986 1.327 . S
C1988 C2007 1.429 . S
C1988 H2012 0.950 . S
C1989 C2006 1.574 . S
C1989 C2008 1.368 . S
C1989 H2013 0.949 . S
H1990 C1994 0.949 . S
C1991 C1992 1.349 . S
C1991 C1993 1.327 . S
C1991 H2014 0.950 . S
C1992 C1991 1.349 . S
C1992 C2004 1.349 . S
C1993 C1991 1.327 . S
C1993 C2009 1.429 . S
C1993 H2015 0.950 . S
C1994 H1990 0.949 . S
C1994 C2002 1.574 . S
C1994 C2010 1.368 . S
H1995 C2003 0.950 . S
H1996 C2001 0.950 . S
H1997 C2002 0.949 . S
H1998 C2004 0.950 . S
H1999 C2005 0.950 . S
H2000 C2006 0.949 . S
C2001 H1996 0.950 . S
C2001 C2003 1.327 . S
C2001 C2007 1.429 . S
C2002 C1994 1.574 . S
C2002 H1997 0.949 . S
C2002 C2008 1.368 . S
C2003 C1987 1.349 . S
C2003 H1995 0.950 . S
C2003 C2001 1.327 . S
C2004 C1992 1.349 . S
C2004 H1998 0.950 . S
C2004 C2005 1.327 . S
C2005 H1999 0.950 . S
C2005 C2004 1.327 . S
C2005 C2009 1.429 . S
C2006 C1989 1.574 . S
C2006 H2000 0.949 . S
C2006 C2010 1.368 . S
C2007 C1988 1.429 . S
C2007 C2001 1.429 . S
C2007 C2008 1.523 . S
C2008 C1989 1.368 . S
C2008 C2002 1.368 . S
C2008 C2007 1.523 . S
C2009 C1993 1.429 . S
C2009 C2005 1.429 . S
C2009 C2010 1.523 . S
C2010 C1994 1.368 . S
C2010 C2006 1.368 . S
C2010 C2009 1.523 . S
H2011 C1986 0.950 . S
H2012 C1988 0.950 . S
H2013 C1989 0.949 . S
H2014 C1991 0.950 . S
H2015 C1993 0.950 . S
C2016 C2017 1.349 . S
C2016 C2018 1.327 . S
C2016 H2041 0.950 . S
C2017 C2016 1.349 . S
C2017 C2033 1.349 . S
C2018 C2016 1.327 . S
C2018 C2037 1.429 . S
C2018 H2042 0.950 . S
C2019 C2036 1.574 . S
C2019 C2038 1.368 . S
C2019 H2043 0.949 . S
H2020 C2024 0.949 . S
C2021 C2022 1.349 . S
C2021 C2023 1.327 . S
C2021 H2044 0.950 . S
C2022 C2021 1.349 . S
C2022 C2034 1.349 . S
C2023 C2021 1.327 . S
C2023 C2039 1.429 . S
C2023 H2045 0.950 . S
C2024 H2020 0.949 . S
C2024 C2032 1.574 . S
C2024 C2040 1.368 . S
H2025 C2033 0.950 . S
H2026 C2031 0.950 . S
H2027 C2032 0.949 . S
H2028 C2034 0.950 . S
H2029 C2035 0.950 . S
H2030 C2036 0.949 . S
C2031 H2026 0.950 . S
C2031 C2033 1.327 . S
C2031 C2037 1.429 . S
C2032 C2024 1.574 . S
C2032 H2027 0.949 . S
C2032 C2038 1.368 . S
C2033 C2017 1.349 . S
C2033 H2025 0.950 . S
C2033 C2031 1.327 . S
C2034 C2022 1.349 . S
C2034 H2028 0.950 . S
C2034 C2035 1.327 . S
C2035 H2029 0.950 . S
C2035 C2034 1.327 . S
C2035 C2039 1.429 . S
C2036 C2019 1.574 . S
C2036 H2030 0.949 . S
C2036 C2040 1.368 . S
C2037 C2018 1.429 . S
C2037 C2031 1.429 . S
C2037 C2038 1.523 . S
C2038 C2019 1.368 . S
C2038 C2032 1.368 . S
C2038 C2037 1.523 . S
C2039 C2023 1.429 . S
C2039 C2035 1.429 . S
C2039 C2040 1.523 . S
C2040 C2024 1.368 . S
C2040 C2036 1.368 . S
C2040 C2039 1.523 . S
H2041 C2016 0.950 . S
H2042 C2018 0.950 . S
H2043 C2019 0.949 . S
H2044 C2021 0.950 . S
H2045 C2023 0.950 . S
C2046 C2047 1.349 . S
C2046 C2048 1.327 . S
C2046 H2071 0.950 . S
C2047 C2046 1.349 . S
C2047 C2063 1.349 . S
C2048 C2046 1.327 . S
C2048 C2067 1.429 . S
C2048 H2072 0.950 . S
C2049 C2066 1.574 . S
C2049 C2068 1.368 . S
C2049 H2073 0.949 . S
H2050 C2054 0.949 . S
C2051 C2052 1.349 . S
C2051 C2053 1.327 . S
C2051 H2074 0.950 . S
C2052 C2051 1.349 . S
C2052 C2064 1.349 . S
C2053 C2051 1.327 . S
C2053 C2069 1.429 . S
C2053 H2075 0.950 . S
C2054 H2050 0.949 . S
C2054 C2062 1.574 . S
C2054 C2070 1.368 . S
H2055 C2063 0.950 . S
H2056 C2061 0.950 . S
H2057 C2062 0.949 . S
H2058 C2064 0.950 . S
H2059 C2065 0.950 . S
H2060 C2066 0.949 . S
C2061 H2056 0.950 . S
C2061 C2063 1.327 . S
C2061 C2067 1.429 . S
C2062 C2054 1.574 . S
C2062 H2057 0.949 . S
C2062 C2068 1.368 . S
C2063 C2047 1.349 . S
C2063 H2055 0.950 . S
C2063 C2061 1.327 . S
C2064 C2052 1.349 . S
C2064 H2058 0.950 . S
C2064 C2065 1.327 . S
C2065 H2059 0.950 . S
C2065 C2064 1.327 . S
C2065 C2069 1.429 . S
C2066 C2049 1.574 . S
C2066 H2060 0.949 . S
C2066 C2070 1.368 . S
C2067 C2048 1.429 . S
C2067 C2061 1.429 . S
C2067 C2068 1.523 . S
C2068 C2049 1.368 . S
C2068 C2062 1.368 . S
C2068 C2067 1.523 . S
C2069 C2053 1.429 . S
C2069 C2065 1.429 . S
C2069 C2070 1.523 . S
C2070 C2054 1.368 . S
C2070 C2066 1.368 . S
C2070 C2069 1.523 . S
H2071 C2046 0.950 . S
H2072 C2048 0.950 . S
H2073 C2049 0.949 . S
H2074 C2051 0.950 . S
H2075 C2053 0.950 . S
C2076 C2077 1.349 . S
C2076 C2078 1.327 . S
C2076 H2101 0.950 . S
C2077 C2076 1.349 . S
C2077 C2093 1.349 . S
C2078 C2076 1.327 . S
C2078 C2097 1.429 . S
C2078 H2102 0.950 . S
C2079 C2096 1.574 . S
C2079 C2098 1.368 . S
C2079 H2103 0.949 . S
H2080 C2084 0.949 . S
C2081 C2082 1.349 . S
C2081 C2083 1.327 . S
C2081 H2104 0.950 . S
C2082 C2081 1.349 . S
C2082 C2094 1.349 . S
C2083 C2081 1.327 . S
C2083 C2099 1.429 . S
C2083 H2105 0.950 . S
C2084 H2080 0.949 . S
C2084 C2092 1.574 . S
C2084 C2100 1.368 . S
H2085 C2093 0.950 . S
H2086 C2091 0.950 . S
H2087 C2092 0.949 . S
H2088 C2094 0.950 . S
H2089 C2095 0.950 . S
H2090 C2096 0.949 . S
C2091 H2086 0.950 . S
C2091 C2093 1.327 . S
C2091 C2097 1.429 . S
C2092 C2084 1.574 . S
C2092 H2087 0.949 . S
C2092 C2098 1.368 . S
C2093 C2077 1.349 . S
C2093 H2085 0.950 . S
C2093 C2091 1.327 . S
C2094 C2082 1.349 . S
C2094 H2088 0.950 . S
C2094 C2095 1.327 . S
C2095 H2089 0.950 . S
C2095 C2094 1.327 . S
C2095 C2099 1.429 . S
C2096 C2079 1.574 . S
C2096 H2090 0.949 . S
C2096 C2100 1.368 . S
C2097 C2078 1.429 . S
C2097 C2091 1.429 . S
C2097 C2098 1.523 . S
C2098 C2079 1.368 . S
C2098 C2092 1.368 . S
C2098 C2097 1.523 . S
C2099 C2083 1.429 . S
C2099 C2095 1.429 . S
C2099 C2100 1.523 . S
C2100 C2084 1.368 . S
C2100 C2096 1.368 . S
C2100 C2099 1.523 . S
H2101 C2076 0.950 . S
H2102 C2078 0.950 . S
H2103 C2079 0.949 . S
H2104 C2081 0.950 . S
H2105 C2083 0.950 . S
C2106 C2107 1.349 . S
C2106 C2108 1.327 . S
C2106 H2131 0.950 . S
C2107 C2106 1.349 . S
C2107 C2123 1.349 . S
C2108 C2106 1.327 . S
C2108 C2127 1.429 . S
C2108 H2132 0.950 . S
C2109 C2126 1.574 . S
C2109 C2128 1.368 . S
C2109 H2133 0.949 . S
H2110 C2114 0.949 . S
C2111 C2112 1.349 . S
C2111 C2113 1.327 . S
C2111 H2134 0.950 . S
C2112 C2111 1.349 . S
C2112 C2124 1.349 . S
C2113 C2111 1.327 . S
C2113 C2129 1.429 . S
C2113 H2135 0.950 . S
C2114 H2110 0.949 . S
C2114 C2122 1.574 . S
C2114 C2130 1.368 . S
H2115 C2123 0.950 . S
H2116 C2121 0.950 . S
H2117 C2122 0.949 . S
H2118 C2124 0.950 1_655 S
H2119 C2125 0.950 . S
H2120 C2126 0.949 . S
C2121 H2116 0.950 . S
C2121 C2123 1.327 . S
C2121 C2127 1.429 . S
C2122 C2114 1.574 . S
C2122 H2117 0.949 . S
C2122 C2128 1.368 . S
C2123 C2107 1.349 . S
C2123 H2115 0.950 . S
C2123 C2121 1.327 . S
C2124 C2112 1.349 . S
C2124 H2118 0.950 1_455 S
C2124 C2125 1.327 . S
C2125 H2119 0.950 . S
C2125 C2124 1.327 . S
C2125 C2129 1.429 . S
C2126 C2109 1.574 . S
C2126 H2120 0.949 . S
C2126 C2130 1.368 . S
C2127 C2108 1.429 . S
C2127 C2121 1.429 . S
C2127 C2128 1.523 . S
C2128 C2109 1.368 . S
C2128 C2122 1.368 . S
C2128 C2127 1.523 . S
C2129 C2113 1.429 . S
C2129 C2125 1.429 . S
C2129 C2130 1.523 . S
C2130 C2114 1.368 . S
C2130 C2126 1.368 . S
C2130 C2129 1.523 . S
H2131 C2106 0.950 . S
H2132 C2108 0.950 . S
H2133 C2109 0.949 . S
H2134 C2111 0.950 . S
H2135 C2113 0.950 . S
C2136 C2137 1.349 . S
C2136 C2138 1.327 . S
C2136 H2161 0.950 . S
C2137 C2136 1.349 . S
C2137 C2153 1.349 . S
C2138 C2136 1.327 . S
C2138 C2157 1.429 . S
C2138 H2162 0.950 . S
C2139 C2156 1.574 . S
C2139 C2158 1.368 . S
C2139 H2163 0.949 . S
H2140 C2144 0.949 . S
C2141 C2142 1.349 . S
C2141 C2143 1.327 . S
C2141 H2164 0.950 . S
C2142 C2141 1.349 . S
C2142 C2154 1.349 . S
C2143 C2141 1.327 . S
C2143 C2159 1.429 . S
C2143 H2165 0.950 . S
C2144 H2140 0.949 . S
C2144 C2152 1.574 . S
C2144 C2160 1.368 . S
H2145 C2153 0.950 . S
H2146 C2151 0.950 . S
H2147 C2152 0.949 . S
H2148 C2154 0.950 . S
H2149 C2155 0.950 . S
H2150 C2156 0.949 . S
C2151 H2146 0.950 . S
C2151 C2153 1.327 . S
C2151 C2157 1.429 . S
C2152 C2144 1.574 . S
C2152 H2147 0.949 . S
C2152 C2158 1.368 . S
C2153 C2137 1.349 . S
C2153 H2145 0.950 . S
C2153 C2151 1.327 . S
C2154 C2142 1.349 . S
C2154 H2148 0.950 . S
C2154 C2155 1.327 . S
C2155 H2149 0.950 . S
C2155 C2154 1.327 . S
C2155 C2159 1.429 . S
C2156 C2139 1.574 . S
C2156 H2150 0.949 . S
C2156 C2160 1.368 . S
C2157 C2138 1.429 . S
C2157 C2151 1.429 . S
C2157 C2158 1.523 . S
C2158 C2139 1.368 . S
C2158 C2152 1.368 . S
C2158 C2157 1.523 . S
C2159 C2143 1.429 . S
C2159 C2155 1.429 . S
C2159 C2160 1.523 . S
C2160 C2144 1.368 . S
C2160 C2156 1.368 . S
C2160 C2159 1.523 . S
H2161 C2136 0.950 . S
H2162 C2138 0.950 . S
H2163 C2139 0.949 . S
H2164 C2141 0.950 . S
H2165 C2143 0.950 . S
C2166 C2167 1.349 . S
C2166 C2168 1.327 . S
C2166 H2191 0.950 . S
C2167 C2166 1.349 . S
C2167 C2183 1.349 . S
C2168 C2166 1.327 . S
C2168 C2187 1.429 . S
C2168 H2192 0.950 . S
C2169 C2186 1.549 . S
C2169 C2188 1.345 1_545 S
C2169 H2193 0.997 . S
H2170 C2174 0.949 . S
C2171 C2172 1.349 1_545 S
C2171 C2173 1.327 . S
C2171 H2194 0.950 . S
C2172 C2171 1.349 1_565 S
C2172 C2184 1.349 . S
C2173 C2171 1.327 . S
C2173 C2189 1.429 1_545 S
C2173 H2195 0.950 . S
C2174 H2170 0.949 . S
C2174 C2182 1.574 . S
C2174 C2190 1.368 . S
H2175 C2183 0.950 1_545 S
H2176 C2181 0.950 1_545 S
H2177 C2182 0.949 . S
H2178 C2184 0.950 . S
H2179 C2185 0.950 . S
H2180 C2186 0.949 . S
C2181 H2176 0.950 1_565 S
C2181 C2183 1.327 . S
C2181 C2187 1.429 . S
C2182 C2174 1.574 . S
C2182 H2177 0.949 . S
C2182 C2188 1.368 . S
C2183 C2167 1.349 . S
C2183 H2175 0.950 1_565 S
C2183 C2181 1.327 . S
C2184 C2172 1.349 . S
C2184 H2178 0.950 . S
C2184 C2185 1.327 . S
C2185 H2179 0.950 . S
C2185 C2184 1.327 . S
C2185 C2189 1.429 . S
C2186 C2169 1.549 . S
C2186 H2180 0.949 . S
C2186 C2190 1.368 1_545 S
C2187 C2168 1.429 . S
C2187 C2181 1.429 . S
C2187 C2188 1.523 . S
C2188 C2169 1.345 1_565 S
C2188 C2182 1.368 . S
C2188 C2187 1.523 . S
C2189 C2173 1.429 1_565 S
C2189 C2185 1.429 . S
C2189 C2190 1.523 . S
C2190 C2174 1.368 . S
C2190 C2186 1.368 1_565 S
C2190 C2189 1.523 . S
H2191 C2166 0.950 . S
H2192 C2168 0.950 . S
H2193 C2169 0.997 . S
H2194 C2171 0.950 . S
H2195 C2173 0.950 . S
C2196 C2197 1.349 . S
C2196 C2198 1.327 . S
C2196 H2221 0.950 1_565 S
C2197 C2196 1.349 . S
C2197 C2213 1.349 . S
C2198 C2196 1.327 . S
C2198 C2217 1.429 . S
C2198 H2222 0.950 1_565 S
C2199 C2216 1.574 . S
C2199 C2218 1.368 . S
C2199 H2223 0.949 . S
H2200 C2204 0.949 . S
C2201 C2202 1.381 . S
C2201 C2203 1.327 . S
C2201 H2224 0.950 . S
C2202 C2201 1.381 . S
C2202 C2214 1.339 1_565 S
C2203 C2201 1.327 . S
C2203 C2219 1.429 . S
C2203 H2225 0.950 . S
C2204 H2200 0.949 . S
C2204 C2212 1.574 . S
C2204 C2220 1.368 1_545 S
H2205 C2213 0.950 . S
H2206 C2211 0.950 . S
H2207 C2212 0.949 . S
H2208 C2214 0.950 . S
H2209 C2215 0.950 . S
H2210 C2216 0.949 . S
C2211 H2206 0.950 . S
C2211 C2213 1.327 . S
C2211 C2217 1.429 . S
C2212 C2204 1.574 . S
C2212 H2207 0.949 . S
C2212 C2218 1.368 1_545 S
C2213 C2197 1.349 . S
C2213 H2205 0.950 . S
C2213 C2211 1.327 . S
C2214 C2202 1.339 1_545 S
C2214 H2208 0.950 . S
C2214 C2215 1.327 . S
C2215 H2209 0.950 . S
C2215 C2214 1.327 . S
C2215 C2219 1.429 1_545 S
C2216 C2199 1.574 . S
C2216 H2210 0.949 . S
C2216 C2220 1.368 . S
C2217 C2198 1.429 . S
C2217 C2211 1.429 . S
C2217 C2218 1.523 . S
C2218 C2199 1.368 . S
C2218 C2212 1.368 1_565 S
C2218 C2217 1.523 . S
C2219 C2203 1.429 . S
C2219 C2215 1.429 1_565 S
C2219 C2220 1.523 . S
C2220 C2204 1.368 1_565 S
C2220 C2216 1.368 . S
C2220 C2219 1.523 . S
H2221 C2196 0.950 1_545 S
H2222 C2198 0.950 1_545 S
H2223 C2199 0.949 . S
H2224 C2201 0.950 . S
H2225 C2203 0.950 . S
C2226 C2227 1.349 . S
C2226 C2228 1.327 . S
C2226 H2251 0.889 1_455 S
C2227 C2226 1.349 . S
C2227 C2243 1.349 . S
C2228 C2226 1.327 . S
C2228 C2247 1.429 . S
C2228 H2252 0.950 1_455 S
C2229 C2246 1.574 . S
C2229 C2248 1.368 . S
C2229 H2253 0.949 . S
H2230 C2234 0.949 . S
C2231 C2232 1.360 . S
C2231 C2233 1.327 . S
C2231 H2254 0.950 . S
C2232 C2231 1.360 . S
C2232 C2244 1.331 1_455 S
C2233 C2231 1.327 . S
C2233 C2249 1.429 . S
C2233 H2255 0.950 . S
C2234 H2230 0.949 . S
C2234 C2242 1.574 . S
C2234 C2250 1.368 1_655 S
H2235 C2243 0.950 . S
H2236 C2241 0.950 . S
H2237 C2242 0.949 . S
H2238 C2244 0.950 . S
H2239 C2245 0.950 . S
H2240 C2246 0.949 . S
C2241 H2236 0.950 . S
C2241 C2243 1.327 . S
C2241 C2247 1.429 . S
C2242 C2234 1.574 . S
C2242 H2237 0.949 . S
C2242 C2248 1.368 1_655 S
C2243 C2227 1.349 . S
C2243 H2235 0.950 . S
C2243 C2241 1.327 . S
C2244 C2232 1.331 1_655 S
C2244 H2238 0.950 . S
C2244 C2245 1.327 . S
C2245 H2239 0.950 . S
C2245 C2244 1.327 . S
C2245 C2249 1.429 1_655 S
C2246 C2229 1.574 . S
C2246 H2240 0.949 . S
C2246 C2250 1.368 . S
C2247 C2228 1.429 . S
C2247 C2241 1.429 . S
C2247 C2248 1.523 . S
C2248 C2229 1.368 . S
C2248 C2242 1.368 1_455 S
C2248 C2247 1.523 . S
C2249 C2233 1.429 . S
C2249 C2245 1.429 1_455 S
C2249 C2250 1.523 . S
C2250 C2234 1.368 1_455 S
C2250 C2246 1.368 . S
C2250 C2249 1.523 . S
H2251 C2226 0.889 1_655 S
H2252 C2228 0.950 1_655 S
H2253 C2229 0.949 . S
H2254 C2231 0.950 . S
H2255 C2233 0.950 . S
C2256 C2257 1.349 . S
C2256 C2258 1.327 . S
C2256 H2281 0.950 . S
C2257 C2256 1.349 . S
C2257 C2273 1.349 . S
C2258 C2256 1.327 . S
C2258 C2277 1.429 . S
C2258 H2282 0.950 . S
C2259 C2276 1.574 . S
C2259 C2278 1.368 . S
C2259 H2283 0.949 . S
H2260 C2264 0.949 . S
C2261 C2262 1.349 . S
C2261 C2263 1.327 . S
C2261 H2284 0.950 . S
C2262 C2261 1.349 . S
C2262 C2274 1.349 . S
C2263 C2261 1.327 . S
C2263 C2279 1.429 . S
C2263 H2285 0.950 . S
C2264 H2260 0.949 . S
C2264 C2272 1.574 . S
C2264 C2280 1.368 . S
H2265 C2273 0.950 . S
H2266 C2271 0.950 . S
H2267 C2272 0.949 . S
H2268 C2274 0.950 . S
H2269 C2275 0.950 . S
H2270 C2276 0.949 . S
C2271 H2266 0.950 . S
C2271 C2273 1.327 . S
C2271 C2277 1.429 . S
C2272 C2264 1.574 . S
C2272 H2267 0.949 . S
C2272 C2278 1.368 . S
C2273 C2257 1.349 . S
C2273 H2265 0.950 . S
C2273 C2271 1.327 . S
C2274 C2262 1.349 . S
C2274 H2268 0.950 . S
C2274 C2275 1.327 . S
C2275 H2269 0.950 . S
C2275 C2274 1.327 . S
C2275 C2279 1.429 . S
C2276 C2259 1.574 . S
C2276 H2270 0.949 . S
C2276 C2280 1.368 . S
C2277 C2258 1.429 . S
C2277 C2271 1.429 . S
C2277 C2278 1.523 . S
C2278 C2259 1.368 . S
C2278 C2272 1.368 . S
C2278 C2277 1.523 . S
C2279 C2263 1.429 . S
C2279 C2275 1.429 . S
C2279 C2280 1.523 . S
C2280 C2264 1.368 . S
C2280 C2276 1.368 . S
C2280 C2279 1.523 . S
H2281 C2256 0.950 . S
H2282 C2258 0.950 . S
H2283 C2259 0.949 . S
H2284 C2261 0.950 . S
H2285 C2263 0.950 . S
C2286 C2287 1.349 . S
C2286 C2288 1.327 . S
C2286 H2311 0.950 . S
C2287 C2286 1.349 . S
C2287 C2303 1.349 . S
C2288 C2286 1.327 . S
C2288 C2307 1.429 . S
C2288 H2312 0.950 . S
C2289 C2306 1.574 . S
C2289 C2308 1.368 . S
C2289 H2313 0.949 . S
H2290 C2294 0.949 . S
C2291 C2292 1.349 . S
C2291 C2293 1.327 . S
C2291 H2314 0.950 . S
C2292 C2291 1.349 . S
C2292 C2304 1.349 . S
C2293 C2291 1.327 . S
C2293 C2309 1.429 . S
C2293 H2315 0.950 . S
C2294 H2290 0.949 . S
C2294 C2302 1.574 . S
C2294 C2310 1.368 . S
H2295 C2303 0.950 . S
H2296 C2301 0.950 . S
H2297 C2302 0.949 . S
H2298 C2304 0.950 . S
H2299 C2305 0.950 . S
H2300 C2306 0.949 . S
C2301 H2296 0.950 . S
C2301 C2303 1.327 . S
C2301 C2307 1.429 . S
C2302 C2294 1.574 . S
C2302 H2297 0.949 . S
C2302 C2308 1.368 . S
C2303 C2287 1.349 . S
C2303 H2295 0.950 . S
C2303 C2301 1.327 . S
C2304 C2292 1.349 . S
C2304 H2298 0.950 . S
C2304 C2305 1.327 . S
C2305 H2299 0.950 . S
C2305 C2304 1.327 . S
C2305 C2309 1.429 . S
C2306 C2289 1.574 . S
C2306 H2300 0.949 . S
C2306 C2310 1.368 . S
C2307 C2288 1.429 . S
C2307 C2301 1.429 . S
C2307 C2308 1.523 . S
C2308 C2289 1.368 . S
C2308 C2302 1.368 . S
C2308 C2307 1.523 . S
C2309 C2293 1.429 . S
C2309 C2305 1.429 . S
C2309 C2310 1.523 . S
C2310 C2294 1.368 . S
C2310 C2306 1.368 . S
C2310 C2309 1.523 . S
H2311 C2286 0.950 . S
H2312 C2288 0.950 . S
H2313 C2289 0.949 . S
H2314 C2291 0.950 . S
H2315 C2293 0.950 . S
C2316 C2317 1.349 . S
C2316 C2318 1.327 . S
C2316 H2341 0.950 . S
C2317 C2316 1.349 . S
C2317 C2333 1.349 . S
C2318 C2316 1.327 . S
C2318 C2337 1.429 . S
C2318 H2342 0.950 . S
C2319 C2336 1.574 . S
C2319 C2338 1.368 . S
C2319 H2343 0.949 . S
H2320 C2324 0.949 . S
C2321 C2322 1.349 . S
C2321 C2323 1.327 . S
C2321 H2344 0.950 . S
C2322 C2321 1.349 . S
C2322 C2334 1.349 . S
C2323 C2321 1.327 . S
C2323 C2339 1.429 . S
C2323 H2345 0.950 . S
C2324 H2320 0.949 . S
C2324 C2332 1.574 . S
C2324 C2340 1.368 . S
H2325 C2333 0.950 . S
H2326 C2331 0.950 . S
H2327 C2332 0.949 . S
H2328 C2334 0.950 . S
H2329 C2335 0.950 . S
H2330 C2336 0.949 . S
C2331 H2326 0.950 . S
C2331 C2333 1.327 . S
C2331 C2337 1.429 . S
C2332 C2324 1.574 . S
C2332 H2327 0.949 . S
C2332 C2338 1.368 . S
C2333 C2317 1.349 . S
C2333 H2325 0.950 . S
C2333 C2331 1.327 . S
C2334 C2322 1.349 . S
C2334 H2328 0.950 . S
C2334 C2335 1.327 . S
C2335 H2329 0.950 . S
C2335 C2334 1.327 . S
C2335 C2339 1.429 . S
C2336 C2319 1.574 . S
C2336 H2330 0.949 . S
C2336 C2340 1.368 . S
C2337 C2318 1.429 . S
C2337 C2331 1.429 . S
C2337 C2338 1.523 . S
C2338 C2319 1.368 . S
C2338 C2332 1.368 . S
C2338 C2337 1.523 . S
C2339 C2323 1.429 . S
C2339 C2335 1.429 . S
C2339 C2340 1.523 . S
C2340 C2324 1.368 . S
C2340 C2336 1.368 . S
C2340 C2339 1.523 . S
H2341 C2316 0.950 . S
H2342 C2318 0.950 . S
H2343 C2319 0.949 . S
H2344 C2321 0.950 . S
H2345 C2323 0.950 . S
C2346 C2347 1.349 . S
C2346 C2348 1.327 . S
C2346 H2371 0.950 . S
C2347 C2346 1.349 . S
C2347 C2363 1.349 . S
C2348 C2346 1.327 . S
C2348 C2367 1.429 . S
C2348 H2372 0.950 . S
C2349 C2366 1.574 . S
C2349 C2368 1.368 . S
C2349 H2373 0.949 . S
H2350 C2354 0.949 . S
C2351 C2352 1.349 . S
C2351 C2353 1.327 . S
C2351 H2374 0.950 . S
C2352 C2351 1.349 . S
C2352 C2364 1.349 . S
C2353 C2351 1.327 . S
C2353 C2369 1.429 . S
C2353 H2375 0.950 . S
C2354 H2350 0.949 . S
C2354 C2362 1.574 . S
C2354 C2370 1.368 . S
H2355 C2363 0.950 . S
H2356 C2361 0.950 . S
H2357 C2362 0.949 . S
H2358 C2364 0.950 . S
H2359 C2365 0.950 . S
H2360 C2366 0.949 . S
C2361 H2356 0.950 . S
C2361 C2363 1.327 . S
C2361 C2367 1.429 . S
C2362 C2354 1.574 . S
C2362 H2357 0.949 . S
C2362 C2368 1.368 . S
C2363 C2347 1.349 . S
C2363 H2355 0.950 . S
C2363 C2361 1.327 . S
C2364 C2352 1.349 . S
C2364 H2358 0.950 . S
C2364 C2365 1.327 . S
C2365 H2359 0.950 . S
C2365 C2364 1.327 . S
C2365 C2369 1.429 . S
C2366 C2349 1.574 . S
C2366 H2360 0.949 . S
C2366 C2370 1.368 . S
C2367 C2348 1.429 . S
C2367 C2361 1.429 . S
C2367 C2368 1.523 . S
C2368 C2349 1.368 . S
C2368 C2362 1.368 . S
C2368 C2367 1.523 . S
C2369 C2353 1.429 . S
C2369 C2365 1.429 . S
C2369 C2370 1.523 . S
C2370 C2354 1.368 . S
C2370 C2366 1.368 . S
C2370 C2369 1.523 . S
H2371 C2346 0.950 . S
H2372 C2348 0.950 . S
H2373 C2349 0.949 . S
H2374 C2351 0.950 . S
H2375 C2353 0.950 . S
C2376 C2377 1.349 . S
C2376 C2378 1.327 . S
C2376 H2401 0.950 . S
C2377 C2376 1.349 . S
C2377 C2393 1.349 . S
C2378 C2376 1.327 . S
C2378 C2397 1.429 . S
C2378 H2402 0.950 1_545 S
C2379 C2396 1.574 . S
C2379 C2398 1.368 . S
C2379 H2403 0.949 . S
H2380 C2384 0.942 1_565 S
C2381 C2382 1.349 . S
C2381 C2383 1.327 . S
C2381 H2404 0.950 . S
C2382 C2381 1.349 . S
C2382 C2394 1.349 1_545 S
C2383 C2381 1.327 . S
C2383 C2399 1.429 . S
C2383 H2405 0.950 . S
C2384 H2380 0.942 1_545 S
C2384 C2392 1.578 . S
C2384 C2400 1.372 . S
H2385 C2393 0.950 . S
H2386 C2391 0.950 . S
H2387 C2392 0.949 1_565 S
H2388 C2394 0.950 . S
H2389 C2395 0.950 . S
H2390 C2396 0.949 . S
C2391 H2386 0.950 . S
C2391 C2393 1.327 . S
C2391 C2397 1.429 . S
C2392 C2384 1.578 . S
C2392 H2387 0.949 1_545 S
C2392 C2398 1.368 . S
C2393 C2377 1.349 . S
C2393 H2385 0.950 . S
C2393 C2391 1.327 . S
C2394 C2382 1.349 1_565 S
C2394 H2388 0.950 . S
C2394 C2395 1.327 . S
C2395 H2389 0.950 . S
C2395 C2394 1.327 . S
C2395 C2399 1.429 1_565 S
C2396 C2379 1.574 . S
C2396 H2390 0.949 . S
C2396 C2400 1.368 . S
C2397 C2378 1.429 . S
C2397 C2391 1.429 . S
C2397 C2398 1.523 . S
C2398 C2379 1.368 . S
C2398 C2392 1.368 . S
C2398 C2397 1.523 . S
C2399 C2383 1.429 . S
C2399 C2395 1.429 1_545 S
C2399 C2400 1.523 . S
C2400 C2384 1.372 . S
C2400 C2396 1.368 . S
C2400 C2399 1.523 . S
H2401 C2376 0.950 . S
H2402 C2378 0.950 1_565 S
H2403 C2379 0.949 . S
H2404 C2381 0.950 . S
H2405 C2383 0.950 . S
C2406 C2407 1.349 . S
C2406 C2408 1.327 . S
C2406 H2431 0.950 . S
C2407 C2406 1.349 . S
C2407 C2423 1.349 . S
C2408 C2406 1.327 . S
C2408 C2427 1.429 . S
C2408 H2432 0.950 . S
C2409 C2426 1.574 . S
C2409 C2428 1.368 . S
C2409 H2433 0.949 . S
H2410 C2414 0.949 1_455 S
C2411 C2412 1.349 . S
C2411 C2413 1.327 . S
C2411 H2434 0.950 . S
C2412 C2411 1.349 . S
C2412 C2424 1.295 1_655 S
C2413 C2411 1.327 . S
C2413 C2429 1.429 . S
C2413 H2435 0.950 . S
C2414 H2410 0.949 1_655 S
C2414 C2422 1.574 . S
C2414 C2430 1.368 . S
H2415 C2423 0.950 . S
H2416 C2421 0.950 . S
H2417 C2422 0.949 . S
H2418 C2424 0.975 . S
H2419 C2425 0.933 1_455 S
H2420 C2426 0.949 . S
C2421 H2416 0.950 . S
C2421 C2423 1.327 . S
C2421 C2427 1.429 . S
C2422 C2414 1.574 . S
C2422 H2417 0.949 . S
C2422 C2428 1.368 . S
C2423 C2407 1.349 . S
C2423 H2415 0.950 . S
C2423 C2421 1.327 . S
C2424 C2412 1.295 1_455 S
C2424 H2418 0.975 . S
C2424 C2425 1.374 1_455 S
C2425 H2419 0.933 1_655 S
C2425 C2424 1.374 1_655 S
C2425 C2429 1.435 . S
C2426 C2409 1.574 . S
C2426 H2420 0.949 . S
C2426 C2430 1.368 . S
C2427 C2408 1.429 . S
C2427 C2421 1.429 . S
C2427 C2428 1.523 . S
C2428 C2409 1.368 . S
C2428 C2422 1.368 . S
C2428 C2427 1.523 . S
C2429 C2413 1.429 . S
C2429 C2425 1.435 . S
C2429 C2430 1.523 . S
C2430 C2414 1.368 . S
C2430 C2426 1.368 . S
C2430 C2429 1.523 . S
H2431 C2406 0.950 . S
H2432 C2408 0.950 . S
H2433 C2409 0.949 . S
H2434 C2411 0.950 . S
H2435 C2413 0.950 . S
C2436 C2437 1.349 . S
C2436 C2438 1.327 . S
C2436 H2461 0.950 . S
C2437 C2436 1.349 . S
C2437 C2453 1.349 . S
C2438 C2436 1.327 . S
C2438 C2457 1.429 . S
C2438 H2462 0.950 . S
C2439 C2456 1.574 . S
C2439 C2458 1.368 . S
C2439 H2463 0.949 . S
H2440 C2444 0.949 . S
C2441 C2442 1.349 . S
C2441 C2443 1.327 . S
C2441 H2464 0.950 . S
C2442 C2441 1.349 . S
C2442 C2454 1.349 . S
C2443 C2441 1.327 . S
C2443 C2459 1.429 . S
C2443 H2465 0.950 . S
C2444 H2440 0.949 . S
C2444 C2452 1.574 . S
C2444 C2460 1.368 . S
H2445 C2453 0.950 . S
H2446 C2451 0.950 . S
H2447 C2452 0.949 . S
H2448 C2454 0.950 . S
H2449 C2455 0.950 . S
H2450 C2456 0.949 . S
C2451 H2446 0.950 . S
C2451 C2453 1.327 . S
C2451 C2457 1.429 . S
C2452 C2444 1.574 . S
C2452 H2447 0.949 . S
C2452 C2458 1.368 . S
C2453 C2437 1.349 . S
C2453 H2445 0.950 . S
C2453 C2451 1.327 . S
C2454 C2442 1.349 . S
C2454 H2448 0.950 . S
C2454 C2455 1.327 . S
C2455 H2449 0.950 . S
C2455 C2454 1.327 . S
C2455 C2459 1.429 . S
C2456 C2439 1.574 . S
C2456 H2450 0.949 . S
C2456 C2460 1.368 . S
C2457 C2438 1.429 . S
C2457 C2451 1.429 . S
C2457 C2458 1.523 . S
C2458 C2439 1.368 . S
C2458 C2452 1.368 . S
C2458 C2457 1.523 . S
C2459 C2443 1.429 . S
C2459 C2455 1.429 . S
C2459 C2460 1.523 . S
C2460 C2444 1.368 . S
C2460 C2456 1.368 . S
C2460 C2459 1.523 . S
H2461 C2436 0.950 . S
H2462 C2438 0.950 . S
H2463 C2439 0.949 . S
H2464 C2441 0.950 . S
H2465 C2443 0.950 . S
C2466 C2467 1.349 . S
C2466 C2468 1.327 . S
C2466 H2491 0.950 . S
C2467 C2466 1.349 . S
C2467 C2483 1.349 . S
C2468 C2466 1.327 . S
C2468 C2487 1.429 . S
C2468 H2492 0.950 . S
C2469 C2486 1.574 . S
C2469 C2488 1.368 . S
C2469 H2493 0.949 . S
H2470 C2474 0.949 . S
C2471 C2472 1.349 . S
C2471 C2473 1.327 . S
C2471 H2494 0.950 . S
C2472 C2471 1.349 . S
C2472 C2484 1.349 . S
C2473 C2471 1.327 . S
C2473 C2489 1.429 . S
C2473 H2495 0.950 . S
C2474 H2470 0.949 . S
C2474 C2482 1.574 . S
C2474 C2490 1.368 . S
H2475 C2483 0.950 . S
H2476 C2481 0.950 . S
H2477 C2482 0.949 . S
H2478 C2484 0.950 . S
H2479 C2485 0.950 . S
H2480 C2486 0.949 . S
C2481 H2476 0.950 . S
C2481 C2483 1.327 . S
C2481 C2487 1.429 . S
C2482 C2474 1.574 . S
C2482 H2477 0.949 . S
C2482 C2488 1.368 . S
C2483 C2467 1.349 . S
C2483 H2475 0.950 . S
C2483 C2481 1.327 . S
C2484 C2472 1.349 . S
C2484 H2478 0.950 . S
C2484 C2485 1.327 . S
C2485 H2479 0.950 . S
C2485 C2484 1.327 . S
C2485 C2489 1.429 . S
C2486 C2469 1.574 . S
C2486 H2480 0.949 . S
C2486 C2490 1.368 . S
C2487 C2468 1.429 . S
C2487 C2481 1.429 . S
C2487 C2488 1.523 . S
C2488 C2469 1.368 . S
C2488 C2482 1.368 . S
C2488 C2487 1.523 . S
C2489 C2473 1.429 . S
C2489 C2485 1.429 . S
C2489 C2490 1.523 . S
C2490 C2474 1.368 . S
C2490 C2486 1.368 . S
C2490 C2489 1.523 . S
H2491 C2466 0.950 . S
H2492 C2468 0.950 . S
H2493 C2469 0.949 . S
H2494 C2471 0.950 . S
H2495 C2473 0.950 . S
C2496 C2497 1.349 . S
C2496 C2498 1.327 . S
C2496 H2521 0.950 . S
C2497 C2496 1.349 . S
C2497 C2513 1.349 . S
C2498 C2496 1.327 . S
C2498 C2517 1.429 . S
C2498 H2522 0.950 . S
C2499 C2516 1.574 . S
C2499 C2518 1.368 . S
C2499 H2523 0.949 . S
H2500 C2504 0.949 . S
C2501 C2502 1.349 . S
C2501 C2503 1.327 . S
C2501 H2524 0.950 . S
C2502 C2501 1.349 . S
C2502 C2514 1.349 . S
C2503 C2501 1.327 . S
C2503 C2519 1.429 . S
C2503 H2525 0.950 . S
C2504 H2500 0.949 . S
C2504 C2512 1.574 . S
C2504 C2520 1.368 . S
H2505 C2513 0.950 . S
H2506 C2511 0.950 . S
H2507 C2512 0.949 . S
H2508 C2514 0.950 . S
H2509 C2515 0.950 . S
H2510 C2516 0.949 . S
C2511 H2506 0.950 . S
C2511 C2513 1.327 . S
C2511 C2517 1.429 . S
C2512 C2504 1.574 . S
C2512 H2507 0.949 . S
C2512 C2518 1.368 . S
C2513 C2497 1.349 . S
C2513 H2505 0.950 . S
C2513 C2511 1.327 . S
C2514 C2502 1.349 . S
C2514 H2508 0.950 . S
C2514 C2515 1.327 . S
C2515 H2509 0.950 . S
C2515 C2514 1.327 . S
C2515 C2519 1.429 . S
C2516 C2499 1.574 . S
C2516 H2510 0.949 . S
C2516 C2520 1.368 . S
C2517 C2498 1.429 . S
C2517 C2511 1.429 . S
C2517 C2518 1.523 . S
C2518 C2499 1.368 . S
C2518 C2512 1.368 . S
C2518 C2517 1.523 . S
C2519 C2503 1.429 . S
C2519 C2515 1.429 . S
C2519 C2520 1.523 . S
C2520 C2504 1.368 . S
C2520 C2516 1.368 . S
C2520 C2519 1.523 . S
H2521 C2496 0.950 . S
H2522 C2498 0.950 . S
H2523 C2499 0.949 . S
H2524 C2501 0.950 . S
H2525 C2503 0.950 . S
C2526 C2527 1.349 . S
C2526 C2528 1.327 . S
C2526 H2551 0.950 . S
C2527 C2526 1.349 . S
C2527 C2543 1.349 . S
C2528 C2526 1.327 . S
C2528 C2547 1.429 . S
C2528 H2552 0.950 . S
C2529 C2546 1.574 . S
C2529 C2548 1.368 . S
C2529 H2553 0.949 . S
H2530 C2534 0.949 . S
C2531 C2532 1.349 . S
C2531 C2533 1.327 . S
C2531 H2554 0.950 . S
C2532 C2531 1.349 . S
C2532 C2544 1.349 . S
C2533 C2531 1.327 . S
C2533 C2549 1.429 . S
C2533 H2555 0.950 . S
C2534 H2530 0.949 . S
C2534 C2542 1.574 . S
C2534 C2550 1.368 . S
H2535 C2543 0.950 . S
H2536 C2541 0.950 . S
H2537 C2542 0.949 . S
H2538 C2544 0.950 . S
H2539 C2545 0.950 . S
H2540 C2546 0.949 . S
C2541 H2536 0.950 . S
C2541 C2543 1.327 . S
C2541 C2547 1.429 . S
C2542 C2534 1.574 . S
C2542 H2537 0.949 . S
C2542 C2548 1.368 . S
C2543 C2527 1.349 . S
C2543 H2535 0.950 . S
C2543 C2541 1.327 . S
C2544 C2532 1.349 . S
C2544 H2538 0.950 . S
C2544 C2545 1.327 . S
C2545 H2539 0.950 . S
C2545 C2544 1.327 . S
C2545 C2549 1.429 . S
C2546 C2529 1.574 . S
C2546 H2540 0.949 . S
C2546 C2550 1.368 . S
C2547 C2528 1.429 . S
C2547 C2541 1.429 . S
C2547 C2548 1.523 . S
C2548 C2529 1.368 . S
C2548 C2542 1.368 . S
C2548 C2547 1.523 . S
C2549 C2533 1.429 . S
C2549 C2545 1.429 . S
C2549 C2550 1.523 . S
C2550 C2534 1.368 . S
C2550 C2546 1.368 . S
C2550 C2549 1.523 . S
H2551 C2526 0.950 . S
H2552 C2528 0.950 . S
H2553 C2529 0.949 . S
H2554 C2531 0.950 . S
H2555 C2533 0.950 . S
C2556 C2557 1.349 . S
C2556 C2558 1.327 . S
C2556 H2581 0.950 . S
C2557 C2556 1.349 . S
C2557 C2573 1.349 . S
C2558 C2556 1.327 . S
C2558 C2577 1.429 . S
C2558 H2582 0.950 . S
C2559 C2576 1.574 . S
C2559 C2578 1.368 . S
C2559 H2583 0.949 . S
H2560 C2564 0.949 . S
C2561 C2562 1.349 . S
C2561 C2563 1.327 . S
C2561 H2584 0.950 . S
C2562 C2561 1.349 . S
C2562 C2574 1.349 . S
C2563 C2561 1.327 . S
C2563 C2579 1.429 . S
C2563 H2585 0.950 . S
C2564 H2560 0.949 . S
C2564 C2572 1.574 . S
C2564 C2580 1.368 . S
H2565 C2573 0.950 . S
H2566 C2571 0.950 . S
H2567 C2572 0.949 . S
H2568 C2574 0.950 . S
H2569 C2575 0.950 . S
H2570 C2576 0.949 . S
C2571 H2566 0.950 . S
C2571 C2573 1.327 . S
C2571 C2577 1.429 . S
C2572 C2564 1.574 . S
C2572 H2567 0.949 . S
C2572 C2578 1.368 . S
C2573 C2557 1.349 . S
C2573 H2565 0.950 . S
C2573 C2571 1.327 . S
C2574 C2562 1.349 . S
C2574 H2568 0.950 . S
C2574 C2575 1.327 . S
C2575 H2569 0.950 . S
C2575 C2574 1.327 . S
C2575 C2579 1.429 . S
C2576 C2559 1.574 . S
C2576 H2570 0.949 . S
C2576 C2580 1.368 . S
C2577 C2558 1.429 . S
C2577 C2571 1.429 . S
C2577 C2578 1.523 . S
C2578 C2559 1.368 . S
C2578 C2572 1.368 . S
C2578 C2577 1.523 . S
C2579 C2563 1.429 . S
C2579 C2575 1.429 . S
C2579 C2580 1.523 . S
C2580 C2564 1.368 . S
C2580 C2576 1.368 . S
C2580 C2579 1.523 . S
H2581 C2556 0.950 . S
H2582 C2558 0.950 . S
H2583 C2559 0.949 . S
H2584 C2561 0.950 . S
H2585 C2563 0.950 . S
C2586 C2587 1.349 . S
C2586 C2588 1.327 . S
C2586 H2611 0.950 . S
C2587 C2586 1.349 . S
C2587 C2603 1.349 . S
C2588 C2586 1.327 . S
C2588 C2607 1.429 . S
C2588 H2612 0.950 . S
C2589 C2606 1.574 . S
C2589 C2608 1.368 . S
C2589 H2613 0.949 . S
H2590 C2594 0.949 . S
C2591 C2592 1.349 . S
C2591 C2593 1.327 . S
C2591 H2614 0.950 . S
C2592 C2591 1.349 . S
C2592 C2604 1.349 . S
C2593 C2591 1.327 . S
C2593 C2609 1.429 . S
C2593 H2615 0.950 . S
C2594 H2590 0.949 . S
C2594 C2602 1.574 . S
C2594 C2610 1.368 . S
H2595 C2603 0.950 . S
H2596 C2601 0.950 . S
H2597 C2602 0.949 . S
H2598 C2604 0.950 . S
H2599 C2605 0.950 . S
H2600 C2606 0.949 . S
C2601 H2596 0.950 . S
C2601 C2603 1.327 . S
C2601 C2607 1.429 . S
C2602 C2594 1.574 . S
C2602 H2597 0.949 . S
C2602 C2608 1.368 . S
C2603 C2587 1.349 . S
C2603 H2595 0.950 . S
C2603 C2601 1.327 . S
C2604 C2592 1.349 . S
C2604 H2598 0.950 . S
C2604 C2605 1.327 . S
C2605 H2599 0.950 . S
C2605 C2604 1.327 . S
C2605 C2609 1.429 . S
C2606 C2589 1.574 . S
C2606 H2600 0.949 . S
C2606 C2610 1.368 . S
C2607 C2588 1.429 . S
C2607 C2601 1.429 . S
C2607 C2608 1.523 . S
C2608 C2589 1.368 . S
C2608 C2602 1.368 . S
C2608 C2607 1.523 . S
C2609 C2593 1.429 . S
C2609 C2605 1.429 . S
C2609 C2610 1.523 . S
C2610 C2594 1.368 . S
C2610 C2606 1.368 . S
C2610 C2609 1.523 . S
H2611 C2586 0.950 . S
H2612 C2588 0.950 . S
H2613 C2589 0.949 . S
H2614 C2591 0.950 . S
H2615 C2593 0.950 . S
C2616 C2617 1.349 . S
C2616 C2618 1.327 . S
C2616 H2641 0.950 . S
C2617 C2616 1.349 . S
C2617 C2633 1.349 . S
C2618 C2616 1.327 . S
C2618 C2637 1.429 . S
C2618 H2642 0.950 . S
C2619 C2636 1.574 . S
C2619 C2638 1.368 . S
C2619 H2643 0.949 . S
H2620 C2624 0.949 . S
C2621 C2622 1.349 . S
C2621 C2623 1.327 . S
C2621 H2644 0.950 . S
C2622 C2621 1.349 . S
C2622 C2634 1.349 . S
C2623 C2621 1.327 . S
C2623 C2639 1.429 . S
C2623 H2645 0.950 . S
C2624 H2620 0.949 . S
C2624 C2632 1.574 . S
C2624 C2640 1.368 . S
H2625 C2633 0.950 . S
H2626 C2631 0.950 . S
H2627 C2632 0.949 . S
H2628 C2634 0.950 . S
H2629 C2635 0.950 . S
H2630 C2636 0.949 . S
C2631 H2626 0.950 . S
C2631 C2633 1.327 . S
C2631 C2637 1.429 . S
C2632 C2624 1.574 . S
C2632 H2627 0.949 . S
C2632 C2638 1.368 . S
C2633 C2617 1.349 . S
C2633 H2625 0.950 . S
C2633 C2631 1.327 . S
C2634 C2622 1.349 . S
C2634 H2628 0.950 . S
C2634 C2635 1.327 . S
C2635 H2629 0.950 . S
C2635 C2634 1.327 . S
C2635 C2639 1.429 . S
C2636 C2619 1.574 . S
C2636 H2630 0.949 . S
C2636 C2640 1.368 . S
C2637 C2618 1.429 . S
C2637 C2631 1.429 . S
C2637 C2638 1.523 . S
C2638 C2619 1.368 . S
C2638 C2632 1.368 . S
C2638 C2637 1.523 . S
C2639 C2623 1.429 . S
C2639 C2635 1.429 . S
C2639 C2640 1.523 . S
C2640 C2624 1.368 . S
C2640 C2636 1.368 . S
C2640 C2639 1.523 . S
H2641 C2616 0.950 . S
H2642 C2618 0.950 . S
H2643 C2619 0.949 . S
H2644 C2621 0.950 . S
H2645 C2623 0.950 . S
C2646 C2647 1.349 . S
C2646 C2648 1.339 . S
C2646 H2671 0.950 1_655 S
C2647 C2646 1.349 . S
C2647 C2663 1.349 . S
C2648 C2646 1.339 . S
C2648 C2667 1.433 . S
C2648 H2672 0.933 1_655 S
C2649 C2666 1.574 . S
C2649 C2668 1.368 . S
C2649 H2673 0.949 . S
H2650 C2654 0.949 . S
C2651 C2652 1.390 . S
C2651 C2653 1.327 . S
C2651 H2674 0.950 . S
C2652 C2651 1.390 . S
C2652 C2664 1.337 1_655 S
C2653 C2651 1.327 . S
C2653 C2669 1.429 . S
C2653 H2675 0.950 . S
C2654 H2650 0.949 . S
C2654 C2662 1.574 . S
C2654 C2670 1.368 1_455 S
H2655 C2663 0.950 . S
H2656 C2661 0.950 . S
H2657 C2662 0.949 . S
H2658 C2664 0.950 . S
H2659 C2665 0.950 . S
H2660 C2666 0.949 . S
C2661 H2656 0.950 . S
C2661 C2663 1.327 . S
C2661 C2667 1.429 . S
C2662 C2654 1.574 . S
C2662 H2657 0.949 . S
C2662 C2668 1.368 1_455 S
C2663 C2647 1.349 . S
C2663 H2655 0.950 . S
C2663 C2661 1.327 . S
C2664 C2652 1.337 1_455 S
C2664 H2658 0.950 . S
C2664 C2665 1.327 . S
C2665 H2659 0.950 . S
C2665 C2664 1.327 . S
C2665 C2669 1.429 1_455 S
C2666 C2649 1.574 . S
C2666 H2660 0.949 . S
C2666 C2670 1.368 . S
C2667 C2648 1.433 . S
C2667 C2661 1.429 . S
C2667 C2668 1.523 . S
C2668 C2649 1.368 . S
C2668 C2662 1.368 1_655 S
C2668 C2667 1.523 . S
C2669 C2653 1.429 . S
C2669 C2665 1.429 1_655 S
C2669 C2670 1.523 . S
C2670 C2654 1.368 1_655 S
C2670 C2666 1.368 . S
C2670 C2669 1.523 . S
H2671 C2646 0.950 1_455 S
H2672 C2648 0.933 1_455 S
H2673 C2649 0.949 . S
H2674 C2651 0.950 . S
H2675 C2653 0.950 . S
C2676 C2677 1.349 . S
C2676 C2678 1.327 . S
C2676 H2701 0.950 . S
C2677 C2676 1.349 . S
C2677 C2693 1.349 . S
C2678 C2676 1.327 . S
C2678 C2697 1.429 . S
C2678 H2702 0.950 . S
C2679 C2696 1.574 . S
C2679 C2698 1.368 . S
C2679 H2703 0.949 . S
H2680 C2684 0.949 . S
C2681 C2682 1.349 . S
C2681 C2683 1.327 . S
C2681 H2704 0.950 . S
C2682 C2681 1.349 . S
C2682 C2694 1.349 . S
C2683 C2681 1.327 . S
C2683 C2699 1.429 . S
C2683 H2705 0.950 . S
C2684 H2680 0.949 . S
C2684 C2692 1.574 . S
C2684 C2700 1.368 . S
H2685 C2693 0.950 . S
H2686 C2691 0.950 . S
H2687 C2692 0.949 . S
H2688 C2694 0.950 . S
H2689 C2695 0.950 . S
H2690 C2696 0.949 . S
C2691 H2686 0.950 . S
C2691 C2693 1.327 . S
C2691 C2697 1.429 . S
C2692 C2684 1.574 . S
C2692 H2687 0.949 . S
C2692 C2698 1.368 . S
C2693 C2677 1.349 . S
C2693 H2685 0.950 . S
C2693 C2691 1.327 . S
C2694 C2682 1.349 . S
C2694 H2688 0.950 . S
C2694 C2695 1.327 . S
C2695 H2689 0.950 . S
C2695 C2694 1.327 . S
C2695 C2699 1.429 . S
C2696 C2679 1.574 . S
C2696 H2690 0.949 . S
C2696 C2700 1.368 . S
C2697 C2678 1.429 . S
C2697 C2691 1.429 . S
C2697 C2698 1.523 . S
C2698 C2679 1.368 . S
C2698 C2692 1.368 . S
C2698 C2697 1.523 . S
C2699 C2683 1.429 . S
C2699 C2695 1.429 . S
C2699 C2700 1.523 . S
C2700 C2684 1.368 . S
C2700 C2696 1.368 . S
C2700 C2699 1.523 . S
H2701 C2676 0.950 . S
H2702 C2678 0.950 . S
H2703 C2679 0.949 . S
H2704 C2681 0.950 . S
H2705 C2683 0.950 . S
C2706 C2707 1.349 . S
C2706 C2708 1.327 . S
C2706 H2731 0.950 . S
C2707 C2706 1.349 . S
C2707 C2723 1.349 . S
C2708 C2706 1.327 . S
C2708 C2727 1.429 . S
C2708 H2732 0.950 . S
C2709 C2726 1.574 . S
C2709 C2728 1.368 1_565 S
C2709 H2733 0.949 . S
H2710 C2714 0.949 . S
C2711 C2712 1.313 1_565 S
C2711 C2713 1.327 . S
C2711 H2734 0.950 . S
C2712 C2711 1.313 1_545 S
C2712 C2724 1.372 . S
C2713 C2711 1.327 . S
C2713 C2729 1.429 1_565 S
C2713 H2735 0.950 . S
C2714 H2710 0.949 . S
C2714 C2722 1.574 . S
C2714 C2730 1.368 . S
H2715 C2723 0.950 1_565 S
H2716 C2721 0.950 1_565 S
H2717 C2722 0.949 . S
H2718 C2724 0.950 . S
H2719 C2725 0.950 . S
H2720 C2726 0.949 . S
C2721 H2716 0.950 1_545 S
C2721 C2723 1.327 . S
C2721 C2727 1.429 . S
C2722 C2714 1.574 . S
C2722 H2717 0.949 . S
C2722 C2728 1.368 . S
C2723 C2707 1.349 . S
C2723 H2715 0.950 1_545 S
C2723 C2721 1.327 . S
C2724 C2712 1.372 . S
C2724 H2718 0.950 . S
C2724 C2725 1.327 . S
C2725 H2719 0.950 . S
C2725 C2724 1.327 . S
C2725 C2729 1.429 . S
C2726 C2709 1.574 . S
C2726 H2720 0.949 . S
C2726 C2730 1.368 1_565 S
C2727 C2708 1.429 . S
C2727 C2721 1.429 . S
C2727 C2728 1.523 . S
C2728 C2709 1.368 1_545 S
C2728 C2722 1.368 . S
C2728 C2727 1.523 . S
C2729 C2713 1.429 1_545 S
C2729 C2725 1.429 . S
C2729 C2730 1.523 . S
C2730 C2714 1.368 . S
C2730 C2726 1.368 1_545 S
C2730 C2729 1.523 . S
H2731 C2706 0.950 . S
H2732 C2708 0.950 . S
H2733 C2709 0.949 . S
H2734 C2711 0.950 . S
H2735 C2713 0.950 . S
C577 C4 1.533 . S
C582 C421 1.557 . S
C607 C26 1.570 . S
C612 C446 1.545 . S
C642 C457 1.497 . S
C637 C32 1.478 . S
C667 C40 1.496 . S
C672 C482 1.479 . S
C697 C12 1.538 . S
C702 C500 1.526 . S
C727 C18 1.507 . S
C732 C511 1.533 . S
C757 C46 1.517 . S
C762 C493 1.547 1_455 S
C792 C518 1.524 . S
C787 C68 1.546 . S
C822 C475 1.509 . S
C817 C74 1.484 . S
C847 C82 1.482 . S
C852 C464 1.502 1_545 S
C882 C428 1.528 . S
C877 C54 1.547 . S
C907 C60 1.488 . S
C912 C439 1.520 . S
C937 C88 1.584 . S
C942 C529 1.609 . S
C967 C110 1.599 . S
C972 C554 1.572 . S
C1002 C565 1.570 . S
C997 C116 1.547 . S
C1027 C124 1.521 . S
C1032 C266 1.498 . S
C1057 C96 1.566 . S
C1062 C284 1.545 . S
C1087 C102 1.521 . S
C1092 C295 1.542 . S
C1117 C130 1.536 . S
C1122 C277 1.566 . S
C1147 C152 1.584 . S
C1152 C302 1.562 . S
C1182 C259 1.558 . S
C1177 C158 1.526 . S
C1212 C572 1.506 . S
C1207 C166 1.526 . S
C1242 C536 1.519 . S
C1237 C138 1.538 . S
C1272 C547 1.556 . S
C1267 C144 1.521 . S
C1297 C172 1.564 . S
C1302 C313 1.587 . S
C1327 C194 1.602 . S
C1332 C338 1.576 . S
C1357 C200 1.549 . S
C1362 C349 1.571 . S
C1387 C208 1.539 . S
C1392 C374 1.516 . S
C1422 C392 1.544 . S
C1417 C180 1.567 . S
C1452 C403 1.562 . S
C1447 C186 1.535 . S
C1482 C385 1.605 . S
C1477 C214 1.570 . S
C1512 C410 1.552 . S
C1507 C236 1.576 . S
C1537 C242 1.512 . S
C1542 C367 1.546 . S
C1572 C356 1.472 . S
C1567 C250 1.491 . S
C1597 C222 1.551 . S
C1602 C320 1.532 . S
C1632 C331 1.538 . S
C1627 C228 1.508 . S
C1662 C268 1.280 . S
C1657 C5 1.156 . S
C1687 C25 1.252 . S
C1692 C286 1.195 . S
C1722 C296 1.281 . S
C1717 C33 1.167 . S
C1752 C314 1.175 . S
C1747 C39 1.212 . S
C1782 C340 1.219 . S
C1777 C11 1.272 . S
C1812 C350 1.228 . S
C1807 C19 1.103 1_556 S
C1837 C47 1.197 1_556 S
C1842 C358 1.316 . S
C1867 C67 1.286 . S
C1872 C322 1.206 . S
C1897 C75 1.176 1_556 S
C1902 C332 1.294 . S
C1927 C81 1.269 . S
C1932 C278 1.213 . S
C1962 C304 1.210 . S
C1957 C53 1.284 . S
C1987 C61 1.122 . S
C1992 C260 1.250 . S
C2022 C376 1.261 . S
C2017 C89 1.131 . S
C2047 C109 1.317 . S
C2052 C394 1.259 . S
C2077 C117 1.155 . S
C2082 C404 1.280 . S
C2112 C422 1.159 . S
C2107 C123 1.196 . S
C2137 C95 1.261 . S
C2142 C448 1.208 . S
C2167 C103 1.080 . S
C2172 C458 1.190 . S
C2197 C131 1.093 . S
C2202 C466 1.191 . S
C2227 C151 1.246 . S
C2232 C430 1.184 . S
C2262 C440 1.264 . S
C2257 C159 1.138 . S
C2287 C165 1.276 . S
C2292 C386 1.215 . S
C2317 C137 1.346 . S
C2322 C412 1.265 . S
C2352 C368 1.296 . S
C2347 C145 1.163 . S
C2382 C484 1.207 . S
C2377 C173 1.096 . S
C2407 C193 1.212 . S
C2412 C502 1.163 . S
C2437 C201 1.112 . S
C2442 C512 1.234 . S
C2472 C530 1.181 . S
C2467 C207 1.232 . S
C2502 C556 1.267 . S
C2497 C179 1.325 . S
C2527 C187 1.148 . S
C2532 C566 1.278 . S
C2557 C215 1.169 . S
C2562 C574 1.286 . S
C2587 C235 1.345 . S
C2592 C538 1.263 . S
C2622 C548 1.296 . S
C2617 C243 1.170 . S
C2652 C494 1.124 1_655 S
C2647 C249 1.192 . S
C2682 C520 1.223 . S
C2677 C221 1.298 . S
C2707 C229 1.090 . S
C2712 C476 1.231 1_545 S
