# Generated by pormake.
# Topology llj, (12,3)-cn, num edge types: 1
# Building blocks:
#     Node 0, Type 0, BuildingBlock: QEWDON_clean_sbu_0, # of connection points: 12
#     Node 1, Type 0, BuildingBlock: QEWDON_clean_sbu_0, # of connection points: 12
#     Node 2, Type 1, BuildingBlock: CUQRIR_clean_linker_1, # of connection points: 3
#     Node 3, Type 1, BuildingBlock: CUQRIR_clean_linker_1, # of connection points: 3
#     Node 4, Type 1, BuildingBlock: CUQRIR_clean_linker_1, # of connection points: 3
#     Node 5, Type 1, BuildingBlock: CUQRIR_clean_linker_1, # of connection points: 3
#     Node 6, Type 1, BuildingBlock: CUQRIR_clean_linker_1, # of connection points: 3
#     Node 7, Type 1, BuildingBlock: CUQRIR_clean_linker_1, # of connection points: 3
#     Node 8, Type 1, BuildingBlock: CUQRIR_clean_linker_1, # of connection points: 3
#     Node 9, Type 1, BuildingBlock: CUQRIR_clean_linker_1, # of connection points: 3
#     Edge 10, Type (0, 1), BuildingBlock: EZIPEK_clean_linker_0, # of connection points: 2
#     Edge 11, Type (0, 1), BuildingBlock: EZIPEK_clean_linker_0, # of connection points: 2
#     Edge 12, Type (0, 1), BuildingBlock: EZIPEK_clean_linker_0, # of connection points: 2
#     Edge 13, Type (0, 1), BuildingBlock: EZIPEK_clean_linker_0, # of connection points: 2
#     Edge 14, Type (0, 1), BuildingBlock: EZIPEK_clean_linker_0, # of connection points: 2
#     Edge 15, Type (0, 1), BuildingBlock: EZIPEK_clean_linker_0, # of connection points: 2
#     Edge 16, Type (0, 1), BuildingBlock: EZIPEK_clean_linker_0, # of connection points: 2
#     Edge 17, Type (0, 1), BuildingBlock: EZIPEK_clean_linker_0, # of connection points: 2
#     Edge 18, Type (0, 1), BuildingBlock: EZIPEK_clean_linker_0, # of connection points: 2
#     Edge 19, Type (0, 1), BuildingBlock: EZIPEK_clean_linker_0, # of connection points: 2
#     Edge 20, Type (0, 1), BuildingBlock: EZIPEK_clean_linker_0, # of connection points: 2
#     Edge 21, Type (0, 1), BuildingBlock: EZIPEK_clean_linker_0, # of connection points: 2
#     Edge 22, Type (0, 1), BuildingBlock: EZIPEK_clean_linker_0, # of connection points: 2
#     Edge 23, Type (0, 1), BuildingBlock: EZIPEK_clean_linker_0, # of connection points: 2
#     Edge 24, Type (0, 1), BuildingBlock: EZIPEK_clean_linker_0, # of connection points: 2
#     Edge 25, Type (0, 1), BuildingBlock: EZIPEK_clean_linker_0, # of connection points: 2
#     Edge 26, Type (0, 1), BuildingBlock: EZIPEK_clean_linker_0, # of connection points: 2
#     Edge 27, Type (0, 1), BuildingBlock: EZIPEK_clean_linker_0, # of connection points: 2
#     Edge 28, Type (0, 1), BuildingBlock: EZIPEK_clean_linker_0, # of connection points: 2
#     Edge 29, Type (0, 1), BuildingBlock: EZIPEK_clean_linker_0, # of connection points: 2
#     Edge 30, Type (0, 1), BuildingBlock: EZIPEK_clean_linker_0, # of connection points: 2
#     Edge 31, Type (0, 1), BuildingBlock: EZIPEK_clean_linker_0, # of connection points: 2
#     Edge 32, Type (0, 1), BuildingBlock: EZIPEK_clean_linker_0, # of connection points: 2
#     Edge 33, Type (0, 1), BuildingBlock: EZIPEK_clean_linker_0, # of connection points: 2
# Relax obj value: 0.011
# Max RMSD: 0.106
# Mean RMSD: 0.093
data_MOF--net-llj--node1-QEWDON_clean_sbu_0--node2-CUQRIR_clean_linker_1--edge1-EZIPEK_clean_linker_0
_symmetry_space_group_name_H-M    P1
_symmetry_Int_Tables_number       1
_symmetry_cell_setting            triclinic
loop_
_symmetry_equiv_pos_as_xyz
'x, y, z'
_cell_length_a     28.746039
_cell_length_b     28.578651
_cell_length_c     16.097415
_cell_angle_alpha  90.131981
_cell_angle_beta   90.696024
_cell_angle_gamma 90.440263
loop_
_atom_site_label
_atom_site_type_symbol
_atom_site_fract_x
_atom_site_fract_y
_atom_site_fract_z
_atom_type_partial_charge
Zn0 Zn 0.93038 0.08235 0.93541 0.0
Zn1 Zn 0.92762 0.07825 0.13767 0.0
O2 O 0.96477 0.05925 0.03807 0.0
H3 H -0.01464 0.03274 0.03636 0.0
C4 C 0.85036 0.00375 0.7663 0.0
O5 O 0.89543 -0.00106 0.77727 0.0
Zn6 Zn 0.03594 0.90029 0.13128 0.0
Zn7 Zn 0.02534 0.88333 0.93123 0.0
O8 O -0.00128 0.91801 0.02942 0.0
H9 H 0.97987 0.94572 0.02434 0.0
Zn10 Zn 0.84417 0.9439 0.91948 0.0
O11 O 0.87873 0.97303 1.01712 0.0
Zn12 Zn 0.87118 0.93121 0.11706 0.0
H13 H 0.90132 -0.00212 1.01129 0.0
Zn14 Zn 0.08299 0.03472 0.91487 0.0
O15 O 0.07361 -0.00014 0.02272 0.0
H16 H 0.07977 0.96668 0.02162 0.0
Zn17 Zn 0.08834 0.04491 0.11726 0.0
C18 C 0.13364 0.9839 0.7869 0.0
O19 O 0.16917 0.00057 0.83 0.0
O20 O 0.88073 0.13087 0.96736 0.0
O21 O 0.88342 0.12994 0.10635 0.0
O22 O 0.07712 0.8381 0.96665 0.0
O23 O 0.08326 0.85021 0.10367 0.0
O24 O 0.80874 0.88407 0.95405 0.0
O25 O 0.83005 0.87533 0.08733 0.0
C26 C 0.01442 0.09207 0.2251 0.0
O27 O 0.12655 0.09088 0.9326 0.0
O28 O 0.13158 0.09386 0.0715 0.0
O29 O 0.98132 0.86279 0.83361 0.0
C30 C 0.8675 0.14585 0.03782 0.0
O31 O 0.97072 0.0979 0.8318 0.0
C32 C 0.95 0.8864 0.21358 0.0
O33 O 0.82236 0.98425 0.81656 0.0
C34 C 0.0957 0.82954 0.03719 0.0
O35 O 0.09262 -0.00607 0.80882 0.0
C36 C 0.85622 0.00985 0.21461 0.0
O37 O 0.97106 0.09965 0.23109 0.0
O38 O 0.02842 0.07131 0.16003 0.0
C39 C 0.80788 0.86158 0.02236 0.0
O40 O -0.0071 0.87657 0.21867 0.0
O41 O 0.93553 0.91135 0.15349 0.0
C42 C 0.10073 0.97032 0.22048 0.0
O43 O 0.84066 0.96835 0.20797 0.0
O44 O 0.89023 0.02132 0.16888 0.0
C45 C 0.1425 0.1088 0.9997 0.0
O46 O 0.11806 0.011 0.21335 0.0
O47 O 0.06869 0.95858 0.16957 0.0
C48 C 0.97465 0.88721 0.76869 0.0
O49 O -0.00488 0.92818 0.76165 0.0
C50 C -7e-05 0.07011 0.79978 0.0
O51 O 0.00315 0.02737 0.82882 0.0
Zn52 Zn 0.42465 0.57514 0.45192 0.0
Zn53 Zn 0.42212 0.58545 0.64799 0.0
O54 O 0.46505 0.57262 0.55425 0.0
H55 H 0.49596 0.58559 0.54887 0.0
C56 C 0.34639 0.47884 0.27055 0.0
O57 O 0.38417 0.45466 0.25672 0.0
Zn58 Zn 0.54166 0.4042 0.64742 0.0
Zn59 Zn 0.52159 0.40132 0.44327 0.0
O60 O 0.50101 0.42942 0.55393 0.0
H61 H 0.47974 0.45527 0.55838 0.0
Zn62 Zn 0.35141 0.43617 0.4421 0.0
O63 O 0.38486 0.46899 0.53794 0.0
Zn64 Zn 0.3789 0.42957 0.64132 0.0
H65 H 0.40528 0.49563 0.53076 0.0
Zn66 Zn 0.62807 0.49813 0.51993 0.0
O67 O 0.56481 0.50914 0.56634 0.0
H68 H 0.53711 0.51083 0.53227 0.0
Zn69 Zn 0.58172 0.55375 0.65758 0.0
C70 C 0.63734 0.4763 0.34717 0.0
O71 O 0.63407 0.52206 0.34414 0.0
O72 O 0.36747 0.61606 0.47198 0.0
O73 O 0.37168 0.62907 0.60873 0.0
O74 O 0.57342 0.35364 0.45905 0.0
O75 O 0.5822 0.35345 0.59718 0.0
O76 O 0.31525 0.37801 0.48366 0.0
O77 O 0.33749 0.37322 0.61725 0.0
C78 C 0.50181 0.60641 0.74702 0.0
O79 O 0.66564 0.55902 0.52188 0.0
O80 O 0.62744 0.60151 0.61504 0.0
O81 O 0.47528 0.38658 0.34477 0.0
C82 C 0.35311 0.63599 0.5375 0.0
O83 O 0.46261 0.5955 0.34999 0.0
C84 C 0.4591 0.38504 0.73438 0.0
O85 O 0.32701 0.47658 0.34126 0.0
C86 C 0.59226 0.33812 0.52518 0.0
O87 O 0.63542 0.45577 0.41686 0.0
C88 C 0.36513 0.51048 0.73543 0.0
O89 O 0.45851 0.61453 0.74201 0.0
O90 O 0.52031 0.58131 0.69154 0.0
C91 C 0.31446 0.35786 0.55433 0.0
O92 O 0.50215 0.37588 0.73608 0.0
O93 O 0.44316 0.41001 0.67568 0.0
C94 C 0.60597 0.47608 0.7564 0.0
O95 O 0.35159 0.46813 0.73333 0.0
O96 O 0.39459 0.52374 0.68198 0.0
C97 C 0.65983 0.59691 0.56212 0.0
O98 O 0.61431 0.51942 0.74974 0.0
O99 O 0.57813 0.45833 0.70212 0.0
C100 C 0.47465 0.345 0.31602 0.0
O101 O 0.50099 0.31316 0.35122 0.0
C102 C 0.50505 0.58431 0.34409 0.0
O103 O 0.52377 0.55614 0.39908 0.0
C104 C 0.3059 0.2705 0.94833 0.0
N105 N 0.34498 0.29328 0.97419 0.0
N106 N 0.29017 0.24197 1.00843 0.0
C107 C 0.28433 0.274 0.8629 0.0
C108 C 0.32027 0.24823 0.07238 0.0
N109 N 0.35338 0.28011 0.05251 0.0
C110 C 0.31674 0.22353 0.15452 0.0
H111 H 0.29474 0.307 0.83173 0.0
H112 H 0.24584 0.27216 0.86664 0.0
H113 H 0.29582 0.24393 0.82478 0.0
H114 H 0.35054 0.22399 0.18854 0.0
H115 H 0.30504 0.18679 0.14525 0.0
H116 H 0.29034 0.24134 0.19284 0.0
C117 C 0.72881 0.32649 0.97549 0.0
N118 N 0.70111 0.36184 1.00095 0.0
N119 N 0.74166 0.29953 0.04042 0.0
C120 C 0.7441 0.31845 0.88752 0.0
C121 C 0.72147 0.31959 0.10663 0.0
N122 N 0.69749 0.3581 0.08326 0.0
C123 C 0.72775 0.30305 0.19466 0.0
H124 H 0.72264 0.28996 0.85948 0.0
H125 H 0.78087 0.30705 0.88636 0.0
H126 H 0.7403 0.35052 0.84942 0.0
H127 H 0.72652 0.26428 0.19692 0.0
H128 H 0.70065 0.31748 0.23578 0.0
H129 H 0.76251 0.31443 0.21804 0.0
C130 C 0.65828 0.69288 0.11393 0.0
N131 N 0.61848 0.66925 0.09627 0.0
N132 N 0.6772 0.70996 0.04405 0.0
C133 C 0.67645 0.70294 0.20022 0.0
C134 C 0.64806 0.69493 0.98284 0.0
N135 N 0.61104 0.67089 1.01421 0.0
C136 C 0.65694 0.70364 0.89219 0.0
H137 H 0.65639 0.73222 0.22706 0.0
H138 H 0.7138 0.71305 0.19938 0.0
H139 H 0.67173 0.67192 0.2407 0.0
H140 H 0.69492 0.7051 0.88077 0.0
H141 H 0.6423 0.73799 0.8741 0.0
H142 H 0.64104 0.67573 0.85286 0.0
C143 C 0.24245 0.65211 0.08658 0.0
N144 N 0.27108 0.61952 0.0545 0.0
N145 N 0.22987 0.68325 0.02776 0.0
C146 C 0.22633 0.65343 0.17509 0.0
C147 C 0.25134 0.66844 0.95833 0.0
N148 N 0.27594 0.62909 0.97398 0.0
C149 C 0.24667 0.69159 0.87496 0.0
H150 H 0.19069 0.66786 0.17872 0.0
H151 H 0.24997 0.67671 0.21161 0.0
H152 H 0.22695 0.61804 0.20324 0.0
H153 H 0.2456 0.73018 0.88254 0.0
H154 H 0.2134 0.68029 0.84526 0.0
H155 H 0.27577 0.68202 0.83375 0.0
C156 C 0.80335 0.76818 0.44708 0.0
N157 N 0.84011 0.79705 0.46215 0.0
N158 N 0.79293 0.74355 0.51585 0.0
C159 C 0.77918 0.76194 0.36428 0.0
C160 C 0.8241 0.75832 0.57363 0.0
N161 N 0.85239 0.79165 0.54174 0.0
C162 C 0.82596 0.74089 0.66186 0.0
H163 H 0.74108 0.75838 0.37261 0.0
H164 H 0.79143 0.72918 0.33492 0.0
H165 H 0.78639 0.79178 0.32224 0.0
H166 H 0.82127 0.70239 0.66371 0.0
H167 H 0.79695 0.75655 0.69695 0.0
H168 H 0.85943 0.75022 0.69292 0.0
C169 C 0.21317 0.81529 0.56969 0.0
N170 N 0.18713 0.85096 0.5403 0.0
N171 N 0.22413 0.78574 0.50769 0.0
C172 C 0.22893 0.80976 0.65861 0.0
C173 C 0.20442 0.80456 0.43909 0.0
N174 N 0.18236 0.8448 0.45838 0.0
C175 C 0.2083 0.78429 0.3532 0.0
H176 H 0.23188 0.84421 0.69022 0.0
H177 H 0.26288 0.79164 0.66239 0.0
H178 H 0.20294 0.78813 0.69188 0.0
H179 H 0.20788 0.74548 0.35597 0.0
H180 H 0.24196 0.79536 0.32624 0.0
H181 H 0.17962 0.79648 0.31206 0.0
C182 C 0.16837 0.17275 0.60044 0.0
N183 N 0.12963 0.15134 0.56886 0.0
N184 N 0.18012 0.21045 0.55471 0.0
C185 C 0.19288 0.15845 0.67936 0.0
C186 C 0.14833 0.21062 0.49237 0.0
N187 N 0.11846 0.17376 0.49857 0.0
C188 C 0.14446 0.24924 0.42931 0.0
H189 H 0.22941 0.1713 0.68058 0.0
H190 H 0.19214 0.11983 0.68547 0.0
H191 H 0.17465 0.17335 0.73357 0.0
H192 H 0.17499 0.24854 0.38784 0.0
H193 H 0.14517 0.28356 0.46173 0.0
H194 H 0.11191 0.2462 0.39188 0.0
C195 C 0.73275 0.15766 0.55819 0.0
N196 N 0.76187 0.12469 0.52879 0.0
N197 N 0.71741 0.18524 0.49594 0.0
C198 C 0.71958 0.16353 0.64771 0.0
C199 C 0.73732 0.16782 0.42713 0.0
N200 N 0.76366 0.13023 0.4465 0.0
C201 C 0.73096 0.18781 0.34147 0.0
H202 H 0.68311 0.17561 0.6524 0.0
H203 H 0.74244 0.19062 0.67665 0.0
H204 H 0.72371 0.13032 0.68252 0.0
H205 H 0.7284 0.22649 0.34475 0.0
H206 H 0.69794 0.17415 0.31411 0.0
H207 H 0.76006 0.17802 0.30038 0.0
C208 C 0.16944 0.19158 1.00875 0.0
C209 C 0.17962 0.14384 0.99461 0.0
C210 C 0.26228 0.16194 0.98192 0.0
C211 C 0.2526 0.20892 1.00264 0.0
N212 N 0.19958 0.26904 0.04268 0.0
N213 N 0.2348 0.08172 0.97414 0.0
C214 C 0.20678 0.22399 1.01765 0.0
C215 C 0.22578 0.12848 0.98209 0.0
N216 N 0.12416 0.20572 1.012 0.0
N217 N 0.30656 0.14966 0.96191 0.0
H218 H 0.20881 0.05606 0.9722 0.0
H219 H 0.26811 0.06772 0.97436 0.0
H220 H 0.33453 0.17282 0.96731 0.0
H221 H 0.31539 0.11753 0.93624 0.0
H222 H 0.11412 0.24058 1.01492 0.0
H223 H 0.09614 0.18248 1.0059 0.0
H224 H 0.1677 0.28155 0.06261 0.0
H225 H 0.22663 0.29345 0.04833 0.0
C226 C 0.78686 0.1767 0.05137 0.0
C227 C 0.83502 0.18527 0.04007 0.0
C228 C 0.82164 0.26961 0.03622 0.0
C229 C 0.77325 0.26084 0.04044 0.0
N230 N 0.70843 0.20753 0.04249 0.0
N231 N 0.89871 0.23855 1.01395 0.0
C232 C 0.75545 0.2147 0.04559 0.0
C233 C 0.85259 0.23141 0.03026 0.0
N234 N 0.77143 0.13245 0.06868 0.0
N235 N 0.8378 0.31464 0.03998 0.0
H236 H 0.92289 0.21154 1.01247 0.0
H237 H 0.91267 0.27077 0.99683 0.0
H238 H 0.81569 0.34331 0.04202 0.0
H239 H 0.8728 0.32361 0.04656 0.0
H240 H 0.73751 0.12468 0.08623 0.0
H241 H 0.79347 0.10363 0.07097 0.0
H242 H 0.69284 0.17462 0.03792 0.0
H243 H 0.68488 0.23508 0.03864 0.0
C244 C 0.79123 0.77536 0.03175 0.0
C245 C 0.7749 0.82211 0.02956 0.0
C246 C 0.69465 0.79455 0.04316 0.0
C247 C 0.71046 0.74779 0.03897 0.0
N248 N 0.77179 0.6923 0.02415 0.0
N249 N 0.71151 0.8771 0.02687 0.0
C250 C 0.75833 0.73781 0.03201 0.0
C251 C 0.7267 0.83194 0.0333 0.0
N252 N 0.83802 0.76713 0.03416 0.0
N253 N 0.64905 0.80305 0.05986 0.0
H254 H 0.73381 0.90604 0.02599 0.0
H255 H 0.67679 0.88605 1.01782 0.0
H256 H 0.62466 0.77641 0.06632 0.0
H257 H 0.63593 0.83595 0.07372 0.0
H258 H 0.85246 0.73427 0.04355 0.0
H259 H 0.86283 0.79388 0.03122 0.0
H260 H 0.80562 0.68205 1.0115 0.0
H261 H 0.74802 0.66453 0.02581 0.0
C262 C 0.17773 0.8022 0.05848 0.0
C263 C 0.13012 0.79166 0.04233 0.0
C264 C 0.14868 0.70937 1.01811 0.0
C265 C 0.19604 0.71976 0.03481 0.0
N266 N 0.25573 0.77241 0.0834 0.0
N267 N 0.06849 0.73474 0.02352 0.0
C268 C 0.21055 0.76519 0.05912 0.0
C269 C 0.11505 0.74503 0.02677 0.0
N270 N 0.19161 0.84767 0.06976 0.0
N271 N 0.13623 0.66528 0.99306 0.0
H272 H 0.04281 0.75996 0.03097 0.0
H273 H 0.05502 0.70088 0.02035 0.0
H274 H 0.15979 0.63778 0.99149 0.0
H275 H 0.10337 0.65633 0.97001 0.0
H276 H 0.22624 0.85837 0.07392 0.0
H277 H 0.16835 0.87551 0.07032 0.0
H278 H 0.2681 0.80341 0.10982 0.0
H279 H 0.28045 0.74587 0.08191 0.0
C280 C 0.7419 0.62532 0.55423 0.0
C281 C 0.69358 0.63529 0.55026 0.0
C282 C 0.71137 0.71815 0.52965 0.0
C283 C 0.759 0.70695 0.52423 0.0
N284 N 0.81908 0.64939 0.51332 0.0
N285 N 0.63213 0.68975 0.51681 0.0
C286 C 0.77404 0.66024 0.53046 0.0
C287 C 0.67807 0.68139 0.53329 0.0
N288 N 0.75732 0.58366 0.58533 0.0
N289 N 0.69825 0.7639 0.53311 0.0
H290 H 0.60685 0.6634 0.51542 0.0
H291 H 0.6199 0.72202 0.49641 0.0
H292 H 0.72221 0.79146 0.53037 0.0
H293 H 0.66434 0.77425 0.54537 0.0
H294 H 0.79238 0.5767 0.59635 0.0
H295 H 0.73514 0.55808 0.60909 0.0
H296 H 0.8309 0.6151 0.50901 0.0
H297 H 0.84351 0.67463 0.49615 0.0
C298 C 0.27186 0.666 0.54796 0.0
C299 C 0.3192 0.67381 0.52814 0.0
C300 C 0.30361 0.75589 0.49715 0.0
C301 C 0.25597 0.74746 0.51214 0.0
N302 N 0.19276 0.69577 0.54442 0.0
N303 N 0.38 0.72371 0.47418 0.0
C304 C 0.2395 0.70275 0.53552 0.0
C305 C 0.33502 0.71803 0.49951 0.0
N306 N 0.25825 0.62372 0.5793 0.0
N307 N 0.31889 0.80067 0.48453 0.0
H308 H 0.40502 0.6976 0.47901 0.0
H309 H 0.392 0.75335 0.44339 0.0
H310 H 0.29652 0.82917 0.48326 0.0
H311 H 0.35384 0.81027 0.4821 0.0
H312 H 0.22532 0.61694 0.6027 0.0
H313 H 0.28097 0.59564 0.58561 0.0
H314 H 0.17741 0.66326 0.55466 0.0
H315 H 0.16877 0.7227 0.53658 0.0
C316 C 0.29186 0.27573 0.51684 0.0
C317 C 0.28378 0.31665 0.56442 0.0
C318 C 0.21405 0.28061 0.62311 0.0
C319 C 0.21825 0.24299 0.5664 0.0
N320 N 0.26046 0.20297 0.46045 0.0
N321 N 0.2354 0.36038 0.65814 0.0
C322 C 0.25729 0.23991 0.51401 0.0
C323 C 0.24481 0.31949 0.61745 0.0
N324 N 0.33307 0.27082 0.47628 0.0
N325 N 0.18052 0.27917 0.68221 0.0
H326 H 0.25659 0.39007 0.65522 0.0
H327 H 0.2046 0.36636 0.68968 0.0
H328 H 0.15705 0.25158 0.68674 0.0
H329 H 0.17877 0.30281 0.73137 0.0
H330 H 0.34289 0.24036 0.44584 0.0
H331 H 0.35942 0.29612 0.47886 0.0
H332 H 0.28478 0.20097 0.41322 0.0
H333 H 0.2371 0.17486 0.46132 0.0
C334 C 0.60659 0.25314 0.50527 0.0
C335 C 0.62471 0.29893 0.5183 0.0
C336 C 0.7042 0.2691 0.51915 0.0
C337 C 0.68616 0.22392 0.50184 0.0
N338 N 0.62234 0.17214 0.47009 0.0
N339 N 0.68968 0.35251 0.52904 0.0
C340 C 0.63787 0.21576 0.49234 0.0
C341 C 0.6733 0.30754 0.52316 0.0
N342 N 0.5596 0.24535 0.50808 0.0
N343 N 0.75091 0.27468 0.53283 0.0
H344 H 0.66784 0.38139 0.53329 0.0
H345 H 0.72464 0.36173 0.52471 0.0
H346 H 0.77428 0.24716 0.52692 0.0
H347 H 0.76631 0.30556 0.5542 0.0
H348 H 0.54429 0.21225 0.50722 0.0
H349 H 0.53559 0.27204 0.51699 0.0
H350 H 0.58805 0.16443 0.45342 0.0
H351 H 0.64466 0.14382 0.46345 0.0
C352 C 0.03206 0.10125 0.37683 0.0
C353 C 0.04635 0.10742 0.2939 0.0
C354 C 0.11435 0.14894 0.34954 0.0
C355 C 0.09315 0.15279 0.42864 0.0
N356 N 0.02081 0.14512 0.50202 0.0
N357 N 0.09737 0.14999 0.20225 0.0
C358 C 0.04869 0.13251 0.43837 0.0
C359 C 0.08694 0.13449 0.27977 0.0
N360 N 0.00561 0.0638 0.39828 0.0
N361 N 0.16054 0.1583 0.34258 0.0
H362 H 0.07546 0.14401 0.15121 0.0
H363 H 0.1248 0.17321 0.1914 0.0
H364 H 0.17895 0.15364 0.28771 0.0
H365 H 0.17895 0.15364 0.28771 0.0
H366 H -0.00269 0.057 0.46012 0.0
H367 H -0.00223 0.03732 0.35548 0.0
H368 H -0.01267 0.13123 0.50846 0.0
H369 H 0.02934 0.17343 0.5404 0.0
C370 C 0.78398 0.04973 0.26428 0.0
C371 C 0.83288 0.04368 0.27048 0.0
C372 C 0.83575 0.09982 0.38559 0.0
C373 C 0.78685 0.10034 0.38777 0.0
N374 N 0.71324 0.07191 0.33417 0.0
N375 N 0.90326 0.05587 0.3503 0.0
C376 C 0.76054 0.07414 0.32838 0.0
C377 C 0.85824 0.06692 0.33444 0.0
N378 N 0.76019 0.03373 0.19574 0.0
N379 N 0.86088 0.13257 0.42885 0.0
H380 H 0.92192 0.03305 0.31321 0.0
H381 H 0.91948 0.06598 0.40569 0.0
H382 H 0.84491 0.15957 0.46093 0.0
H383 H 0.89689 0.13615 0.42405 0.0
H384 H 0.72531 0.04113 0.18397 0.0
H385 H 0.7765 0.01728 0.14617 0.0
H386 H 0.69253 0.04953 0.29811 0.0
H387 H 0.695 0.08952 0.38006 0.0
C388 C 0.90928 0.81645 0.26838 0.0
C389 C 0.91782 0.86514 0.27334 0.0
C390 C 0.87054 0.86981 0.39837 0.0
C391 C 0.86712 0.82045 0.3994 0.0
N392 N 0.89106 0.74596 0.34394 0.0
N393 N 0.91403 0.93724 0.35076 0.0
C394 C 0.88861 0.79348 0.33654 0.0
C395 C 0.90045 0.89173 0.34044 0.0
N396 N 0.92047 0.79223 0.19813 0.0
N397 N 0.84399 0.89563 0.4507 0.0
H398 H 0.93634 0.954 0.30958 0.0
H399 H 0.90626 0.95681 0.40342 0.0
H400 H 0.82052 0.88009 0.49128 0.0
H401 H 0.84198 0.93198 0.44789 0.0
H402 H 0.91061 0.75753 0.18779 0.0
H403 H 0.93565 0.80813 0.1467 0.0
H404 H 0.91025 0.72499 0.3042 0.0
H405 H 0.87808 0.72794 0.39493 0.0
C406 C 0.16951 0.92713 0.27685 0.0
C407 C 0.12121 0.93664 0.27977 0.0
C408 C 0.11294 0.88061 0.39313 0.0
C409 C 0.16182 0.87694 0.39947 0.0
N410 N 0.23773 0.89812 0.34867 0.0
N411 N 0.04787 0.9281 0.3502 0.0
C412 C 0.19046 0.90079 0.34175 0.0
C413 C 0.09307 0.91494 0.34048 0.0
N414 N 0.19487 0.9411 0.20983 0.0
N415 N 0.08539 0.84894 0.43251 0.0
H416 H 0.03207 0.95373 0.31373 0.0
H417 H 0.02744 0.9162 0.39903 0.0
H418 H 0.09919 0.82174 0.46778 0.0
H419 H 0.04976 0.84621 0.42055 0.0
H420 H 0.22905 0.93089 0.19988 0.0
H421 H 0.18036 0.95882 0.15934 0.0
H422 H 0.26042 0.91914 0.31502 0.0
H423 H 0.25441 0.87714 0.39235 0.0
C424 C 0.17167 0.96599 0.65138 0.0
C425 C 0.14174 0.95168 0.71612 0.0
C426 C 0.13338 0.87431 0.65066 0.0
C427 C 0.16718 0.8872 0.59125 0.0
N428 N 0.22624 0.94127 0.5474 0.0
N429 N 0.09922 0.88996 0.78482 0.0
C430 C 0.18799 0.93222 0.59411 0.0
C431 C 0.12329 0.90538 0.71724 0.0
N432 N 0.1846 0.01192 0.6447 0.0
N433 N 0.11266 0.83121 0.64508 0.0
H434 H 0.09258 0.91082 0.8364 0.0
H435 H 0.08885 0.85539 0.79351 0.0
H436 H 0.12116 0.80689 0.59949 0.0
H437 H 0.08541 0.82014 0.68229 0.0
H438 H 0.20277 0.0252 0.59425 0.0
H439 H 0.1729 0.0377 0.68519 0.0
H440 H 0.24603 0.97183 0.55253 0.0
H441 H 0.24116 0.91583 0.51022 0.0
C442 C 0.05357 0.13389 0.7532 0.0
C443 C 0.03459 0.0886 0.73952 0.0
C444 C 0.0826 0.08201 0.61398 0.0
C445 C 0.09585 0.12955 0.62306 0.0
N446 N 0.07796 0.20416 0.68462 0.0
N447 N 0.02491 0.02247 0.64651 0.0
C448 C 0.07655 0.15653 0.68778 0.0
C449 C 0.04756 0.0631 0.66706 0.0
N450 N 0.05163 0.15489 0.82941 0.0
N451 N 0.10272 0.05559 0.55386 0.0
H452 H -0.00281 0.00936 0.68066 0.0
H453 H 0.03046 0.00434 0.59137 0.0
H454 H 0.12771 0.06945 0.51413 0.0
H455 H 0.09712 0.0197 0.54748 0.0
H456 H 0.06836 0.18666 0.84232 0.0
H457 H 0.039 0.13798 0.88197 0.0
H458 H 0.06147 0.22522 0.72813 0.0
H459 H 0.08988 0.22205 0.63263 0.0
C460 C 0.84058 0.08319 0.70141 0.0
C461 C 0.83217 0.03425 0.69869 0.0
C462 C 0.77876 0.04474 0.58028 0.0
C463 C 0.78921 0.09317 0.57963 0.0
N464 N 0.8357 0.15779 0.63085 0.0
N465 N 0.8029 0.9674 0.62303 0.0
C466 C 0.82231 0.112 0.63712 0.0
C467 C 0.80423 0.0147 0.63403 0.0
N468 N 0.86346 0.10257 0.76814 0.0
N469 N 0.7424 0.02794 0.53361 0.0
H470 H 0.82309 0.94515 0.65938 0.0
H471 H 0.78602 0.95107 0.5731 0.0
H472 H 0.72155 0.04975 0.49761 0.0
H473 H 0.73017 -0.00639 0.53719 0.0
H474 H 0.86613 0.13846 0.77857 0.0
H475 H 0.87645 0.08269 0.81721 0.0
H476 H 0.86346 0.1723 0.66446 0.0
H477 H 0.82125 0.18056 0.58742 0.0
C478 C 0.89396 0.86827 0.71743 0.0
C479 C 0.94243 0.86979 0.70288 0.0
C480 C 0.93155 0.82129 0.57871 0.0
C481 C 0.88286 0.82193 0.59022 0.0
N482 N 0.81657 0.8531 0.66071 0.0
N483 N 0.0057 0.85877 0.60858 0.0
C484 C 0.86375 0.84814 0.65638 0.0
C485 C 0.96062 0.85023 0.62938 0.0
N486 N 0.87699 0.88536 0.79014 0.0
N487 N 0.95028 0.79025 0.52435 0.0
H488 H 0.0276 0.88055 0.64363 0.0
H489 H 0.01975 0.84791 0.55269 0.0
H490 H 0.92989 0.76584 0.49221 0.0
H491 H -0.01406 0.78523 0.51839 0.0
H492 H 0.84273 0.88074 0.80835 0.0
H493 H 0.89795 0.90214 0.83456 0.0
H494 H 0.79972 0.87213 0.70636 0.0
H495 H 0.79395 0.84096 0.61418 0.0
C496 C 0.53862 0.59291 0.88483 0.0
C497 C 0.5282 0.6241 0.81927 0.0
C498 C 0.55183 0.69028 0.90735 0.0
C499 C 0.56873 0.65835 0.96729 0.0
N500 N 0.53569 0.59072 0.03182 0.0
N501 N 0.5232 0.70283 0.76656 0.0
C502 C 0.55247 0.61154 0.96262 0.0
C503 C 0.53343 0.67315 0.83062 0.0
N504 N 0.53171 0.5458 0.87552 0.0
N505 N 0.55321 0.73685 0.92566 0.0
H506 H 0.51083 0.69104 0.70894 0.0
H507 H 0.52981 0.73866 0.76805 0.0
H508 H 0.56529 0.74871 0.98328 0.0
H509 H 0.53911 0.76283 0.88807 0.0
H510 H 0.54117 0.52182 0.92137 0.0
H511 H 0.5198 0.53044 0.82037 0.0
H512 H 0.52213 0.55679 0.03268 0.0
H513 H 0.52352 0.61154 0.07982 0.0
C514 C 0.36971 0.56565 0.85771 0.0
C515 C 0.34312 0.54371 0.79359 0.0
C516 C 0.27172 0.57597 0.85177 0.0
C517 C 0.29868 0.6001 0.913 0.0
N518 N 0.37345 0.62782 0.96009 0.0
N519 N 0.27008 0.53486 0.71982 0.0
C520 C 0.34778 0.59764 0.91209 0.0
C521 C 0.29441 0.55084 0.78786 0.0
N522 N 0.4155 0.55473 0.86872 0.0
N523 N 0.2243 0.57634 0.85566 0.0
H524 H 0.28564 0.51709 0.67091 0.0
H525 H 0.23543 0.54298 0.70761 0.0
H526 H 0.20639 0.59531 0.90007 0.0
H527 H 0.20268 0.55506 0.81926 0.0
H528 H 0.43501 0.56528 0.92051 0.0
H529 H 0.43309 0.53249 0.82874 0.0
H530 H 0.40954 0.63074 0.95698 0.0
H531 H 0.35796 0.65358 0.99602 0.0
C532 C 0.4185 0.31455 0.78707 0.0
C533 C 0.42834 0.36282 0.79539 0.0
C534 C 0.38286 0.36582 0.92301 0.0
C535 C 0.37696 0.31666 0.91919 0.0
N536 N 0.39571 0.24296 0.85482 0.0
N537 N 0.42669 0.43361 0.8769 0.0
C538 C 0.39694 0.29069 0.85335 0.0
C539 C 0.41252 0.38834 0.86511 0.0
N540 N 0.4285 0.29178 0.71464 0.0
N541 N 0.35832 0.39108 0.97922 0.0
H542 H 0.44818 0.45103 0.83515 0.0
H543 H 0.42002 0.45258 0.93074 0.0
H544 H 0.33549 0.37527 0.0205 0.0
H545 H 0.35752 0.42751 0.97995 0.0
H546 H 0.41729 0.25782 0.70126 0.0
H547 H 0.44427 0.30827 0.6644 0.0
H548 H 0.41383 0.22199 0.81349 0.0
H549 H 0.38013 0.22424 0.90237 0.0
C550 C 0.63333 0.39869 0.81444 0.0
C551 C 0.6296 0.44784 0.82357 0.0
C552 C 0.67966 0.44088 0.94799 0.0
C553 C 0.67398 0.39178 0.94672 0.0
N554 N 0.63284 0.32544 0.88765 0.0
N555 N 0.64368 0.51445 0.91745 0.0
C556 C 0.64577 0.37134 0.8838 0.0
C557 C 0.65072 0.46882 0.89612 0.0
N558 N 0.6323 0.37855 0.73793 0.0
N559 N 0.71482 0.46082 0.99336 0.0
H560 H 0.6219 0.53704 0.88561 0.0
H561 H 0.65591 0.52844 0.97357 0.0
H562 H 0.73985 0.44059 0.02311 0.0
H563 H 0.72254 0.49652 0.99137 0.0
H564 H 0.63815 0.34287 0.72924 0.0
H565 H 0.63465 0.3988 0.68436 0.0
H566 H 0.61075 0.3102 0.84313 0.0
H567 H 0.64063 0.30455 0.93899 0.0
C568 C 0.61845 0.42263 0.22747 0.0
C569 C 0.65152 0.44988 0.27288 0.0
C570 C 0.71418 0.42017 0.18677 0.0
C571 C 0.68115 0.39351 0.13989 0.0
N572 N 0.60193 0.37386 0.10647 0.0
N573 N 0.72907 0.48203 0.28679 0.0
C574 C 0.63314 0.39664 0.15694 0.0
C575 C 0.69879 0.45114 0.24937 0.0
N576 N 0.57344 0.42044 0.2537 0.0
N577 N 0.76063 0.4143 0.17361 0.0
H578 H 0.7199 0.50377 0.33594 0.0
H579 H 0.76249 0.48867 0.26531 0.0
H580 H 0.77337 0.3944 0.12481 0.0
H581 H 0.78662 0.42717 0.21326 0.0
H582 H 0.54779 0.39967 0.22606 0.0
H583 H 0.5619 0.43842 0.30592 0.0
H584 H 0.56627 0.37963 0.10764 0.0
H585 H 0.61226 0.35147 0.05908 0.0
C586 C 0.56289 0.57823 0.22963 0.0
C587 C 0.53435 0.60635 0.28033 0.0
C588 C 0.55791 0.67566 0.20244 0.0
C589 C 0.58967 0.64805 0.15788 0.0
N590 N 0.63038 0.57548 0.14127 0.0
N591 N 0.51391 0.68375 0.32849 0.0
C592 C 0.59541 0.60021 0.17689 0.0
C593 C 0.5343 0.65573 0.27062 0.0
N594 N 0.55616 0.53097 0.22612 0.0
N595 N 0.54997 0.72068 0.17876 0.0
H596 H 0.4985 0.67079 0.38211 0.0
H597 H 0.51676 0.72011 0.32792 0.0
H598 H 0.56709 0.7359 0.12901 0.0
H599 H 0.52373 0.74118 0.20366 0.0
H600 H 0.57228 0.50995 0.1822 0.0
H601 H 0.53077 0.51376 0.26057 0.0
H602 H 0.63814 0.54115 0.15797 0.0
H603 H 0.65346 0.59062 0.09942 0.0
C604 C 0.34281 0.56201 0.22136 0.0
C605 C 0.33072 0.51428 0.20908 0.0
C606 C 0.27949 0.53605 0.09302 0.0
C607 C 0.29413 0.5832 0.10137 0.0
N608 N 0.34438 0.64076 0.1657 0.0
N609 N 0.29564 0.45474 0.12223 0.0
C610 C 0.32752 0.59595 0.16296 0.0
C611 C 0.30187 0.50092 0.14091 0.0
N612 N 0.36757 0.57516 0.29048 0.0
N613 N 0.24178 0.52542 0.04423 0.0
H614 H 0.31207 0.42856 0.15602 0.0
H615 H 0.27814 0.44293 0.06905 0.0
H616 H 0.22249 0.5512 1.01444 0.0
H617 H 0.22667 0.49222 0.04104 0.0
H618 H 0.37247 0.6099 0.30826 0.0
H619 H 0.38069 0.55111 0.33314 0.0
H620 H 0.37264 0.65118 0.20254 0.0
H621 H 0.33218 0.66701 0.12644 0.0
C622 C 0.39515 0.33835 0.2495 0.0
C623 C 0.44394 0.33179 0.24453 0.0
C624 C 0.43302 0.29117 0.11085 0.0
C625 C 0.38512 0.30191 0.11177 0.0
N626 N 0.32035 0.3388 0.17778 0.0
N627 N 0.51035 0.30708 0.16527 0.0
C628 C 0.36634 0.32702 0.17968 0.0
C629 C 0.4632 0.30991 0.17342 0.0
N630 N 0.37604 0.35259 0.32264 0.0
N631 N 0.44903 0.25998 0.05392 0.0
H632 H 0.53388 0.31911 0.21033 0.0
H633 H 0.52629 0.29624 0.11081 0.0
H634 H 0.42707 0.24374 1.01081 0.0
H635 H 0.48262 0.24659 0.05491 0.0
H636 H 0.34047 0.35305 0.33335 0.0
H637 H 0.39567 0.36004 0.37596 0.0
H638 H 0.30408 0.35815 0.22368 0.0
H639 H 0.29873 0.33206 0.12661 0.0
loop_
_geom_bond_atom_site_label_1
_geom_bond_atom_site_label_2
_geom_bond_distance
_geom_bond_site_symmetry_2
_ccdc_geom_bond_type
Zn0 O2 1.933 1_556 S
Zn0 O20 1.985 . S
Zn0 O31 1.955 . S
Zn1 O2 1.911 . S
Zn1 O21 1.970 . S
Zn1 O37 1.945 . S
Zn1 O44 1.981 . S
O2 Zn0 1.933 1_554 S
O2 Zn1 1.911 . S
O2 H3 0.841 1_654 S
H3 O2 0.841 1_456 S
C4 O5 1.246 . S
C4 O33 1.276 1_545 S
O5 C4 1.246 . S
Zn6 O8 1.911 . S
Zn6 O23 1.970 . S
Zn6 O40 1.945 . S
Zn6 O47 1.981 . S
Zn7 O8 1.933 1_556 S
Zn7 O22 1.985 . S
Zn7 O29 1.955 . S
O8 Zn6 1.911 . S
O8 Zn7 1.933 1_554 S
O8 H9 0.840 1_454 S
H9 O8 0.840 1_656 S
Zn10 O11 1.933 1_556 S
Zn10 O24 1.985 . S
Zn10 O33 1.955 . S
O11 Zn10 1.933 1_554 S
O11 Zn12 1.911 . S
O11 H13 0.841 1_564 S
Zn12 O11 1.911 . S
Zn12 O25 1.970 . S
Zn12 O41 1.981 . S
Zn12 O43 1.945 . S
H13 O11 0.841 1_546 S
Zn14 O15 1.933 1_556 S
Zn14 O27 1.985 . S
Zn14 O35 1.955 . S
O15 Zn14 1.933 1_554 S
O15 H16 0.841 1_544 S
O15 Zn17 1.911 . S
H16 O15 0.841 1_566 S
Zn17 O15 1.911 . S
Zn17 O28 1.970 . S
Zn17 O38 1.981 . S
Zn17 O46 1.945 . S
C18 O19 1.246 . S
C18 O35 1.276 1_565 S
O19 C18 1.246 . S
O20 Zn0 1.985 . S
O20 C30 1.245 1_556 S
O21 Zn1 1.970 . S
O21 C30 1.263 . S
O22 Zn7 1.985 . S
O22 C34 1.245 1_556 S
O23 Zn6 1.970 . S
O23 C34 1.263 . S
O24 Zn10 1.985 . S
O24 C39 1.245 1_556 S
O25 Zn12 1.970 . S
O25 C39 1.263 . S
C26 O37 1.262 1_455 S
C26 O38 1.245 . S
O27 Zn14 1.985 . S
O27 C45 1.245 1_556 S
O28 Zn17 1.970 . S
O28 C45 1.263 . S
O29 Zn7 1.955 . S
O29 C48 1.276 1_455 S
C30 O20 1.245 1_554 S
C30 O21 1.263 . S
O31 Zn0 1.955 . S
O31 C50 1.276 1_655 S
C32 O40 1.262 1_655 S
C32 O41 1.245 . S
O33 C4 1.276 1_565 S
O33 Zn10 1.955 . S
C34 O22 1.245 1_554 S
C34 O23 1.263 . S
O35 Zn14 1.955 . S
O35 C18 1.276 1_545 S
C36 O43 1.262 1_545 S
C36 O44 1.245 . S
O37 Zn1 1.945 . S
O37 C26 1.262 1_655 S
O38 Zn17 1.981 . S
O38 C26 1.245 . S
C39 O24 1.245 1_554 S
C39 O25 1.263 . S
O40 Zn6 1.945 . S
O40 C32 1.262 1_455 S
O41 Zn12 1.981 . S
O41 C32 1.245 . S
C42 O46 1.262 1_565 S
C42 O47 1.245 . S
O43 Zn12 1.945 . S
O43 C36 1.262 1_565 S
O44 Zn1 1.981 . S
O44 C36 1.245 . S
C45 O27 1.245 1_554 S
C45 O28 1.263 . S
O46 Zn17 1.945 . S
O46 C42 1.262 1_545 S
O47 Zn6 1.981 . S
O47 C42 1.245 . S
C48 O29 1.276 1_655 S
C48 O49 1.246 . S
O49 C48 1.246 . S
C50 O31 1.276 1_455 S
C50 O51 1.246 . S
O51 C50 1.246 . S
Zn52 O54 1.933 . S
Zn52 O72 1.985 . S
Zn52 O83 1.955 . S
Zn53 O54 1.911 . S
Zn53 O73 1.970 . S
Zn53 O89 1.945 . S
Zn53 O96 1.981 . S
O54 Zn52 1.933 . S
O54 Zn53 1.911 . S
O54 H55 0.841 . S
H55 O54 0.841 . S
C56 O57 1.246 . S
C56 O85 1.276 . S
O57 C56 1.246 . S
Zn58 O60 1.911 . S
Zn58 O75 1.970 . S
Zn58 O92 1.945 . S
Zn58 O99 1.981 . S
Zn59 O60 1.933 . S
Zn59 O74 1.985 . S
Zn59 O81 1.955 . S
O60 Zn58 1.911 . S
O60 Zn59 1.933 . S
O60 H61 0.841 . S
H61 O60 0.841 . S
Zn62 O63 1.933 . S
Zn62 O76 1.985 . S
Zn62 O85 1.955 . S
O63 Zn62 1.933 . S
O63 Zn64 1.911 . S
O63 H65 0.841 . S
Zn64 O63 1.911 . S
Zn64 O77 1.970 . S
Zn64 O93 1.981 . S
Zn64 O95 1.945 . S
H65 O63 0.841 . S
Zn66 O67 1.933 . S
Zn66 O79 1.985 . S
Zn66 O87 1.955 . S
O67 Zn66 1.933 . S
O67 H68 0.841 . S
O67 Zn69 1.911 . S
H68 O67 0.841 . S
Zn69 O67 1.911 . S
Zn69 O80 1.970 . S
Zn69 O90 1.981 . S
Zn69 O98 1.945 . S
C70 O71 1.246 . S
C70 O87 1.276 . S
O71 C70 1.246 . S
O72 Zn52 1.985 . S
O72 C82 1.245 . S
O73 Zn53 1.970 . S
O73 C82 1.263 . S
O74 Zn59 1.985 . S
O74 C86 1.245 . S
O75 Zn58 1.970 . S
O75 C86 1.263 . S
O76 Zn62 1.985 . S
O76 C91 1.245 . S
O77 Zn64 1.970 . S
O77 C91 1.263 . S
C78 O89 1.262 . S
C78 O90 1.245 . S
O79 Zn66 1.985 . S
O79 C97 1.245 . S
O80 Zn69 1.970 . S
O80 C97 1.263 . S
O81 Zn59 1.955 . S
O81 C100 1.276 . S
C82 O72 1.245 . S
C82 O73 1.263 . S
O83 Zn52 1.955 . S
O83 C102 1.276 . S
C84 O92 1.262 . S
C84 O93 1.245 . S
O85 C56 1.276 . S
O85 Zn62 1.955 . S
C86 O74 1.245 . S
C86 O75 1.263 . S
O87 Zn66 1.955 . S
O87 C70 1.276 . S
C88 O95 1.262 . S
C88 O96 1.245 . S
O89 Zn53 1.945 . S
O89 C78 1.262 . S
O90 Zn69 1.981 . S
O90 C78 1.245 . S
C91 O76 1.245 . S
C91 O77 1.263 . S
O92 Zn58 1.945 . S
O92 C84 1.262 . S
O93 Zn64 1.981 . S
O93 C84 1.245 . S
C94 O98 1.262 . S
C94 O99 1.245 . S
O95 Zn64 1.945 . S
O95 C88 1.262 . S
O96 Zn53 1.981 . S
O96 C88 1.245 . S
C97 O79 1.245 . S
C97 O80 1.263 . S
O98 Zn69 1.945 . S
O98 C94 1.262 . S
O99 Zn58 1.981 . S
O99 C94 1.245 . S
C100 O81 1.276 . S
C100 O101 1.246 . S
O101 C100 1.246 . S
C102 O83 1.276 . S
C102 O103 1.246 . S
O103 C102 1.246 . S
C104 N105 1.317 . S
C104 N106 1.348 1_556 S
C104 C107 1.485 . S
N105 C104 1.317 . S
N105 N109 1.370 1_556 S
N106 C104 1.348 1_554 S
N106 C108 1.346 . S
C107 C104 1.485 . S
C107 H111 0.960 . S
C107 H112 0.961 . S
C107 H113 0.960 . S
C108 N106 1.346 . S
C108 N109 1.307 . S
C108 C110 1.486 . S
N109 N105 1.370 1_554 S
N109 C108 1.307 . S
C110 C108 1.486 . S
C110 H114 0.960 . S
C110 H115 0.960 . S
C110 H116 0.959 . S
H111 C107 0.960 . S
H112 C107 0.961 . S
H113 C107 0.960 . S
H114 C110 0.960 . S
H115 C110 0.960 . S
H116 C110 0.959 . S
C117 N118 1.317 . S
C117 N119 1.348 1_556 S
C117 C120 1.485 . S
N118 C117 1.317 . S
N118 N122 1.370 1_556 S
N119 C117 1.348 1_554 S
N119 C121 1.346 . S
C120 C117 1.485 . S
C120 H124 0.960 . S
C120 H125 0.961 . S
C120 H126 0.960 . S
C121 N119 1.346 . S
C121 N122 1.307 . S
C121 C123 1.486 . S
N122 N118 1.370 1_554 S
N122 C121 1.307 . S
C123 C121 1.486 . S
C123 H127 0.960 . S
C123 H128 0.960 . S
C123 H129 0.959 . S
H124 C120 0.960 . S
H125 C120 0.961 . S
H126 C120 0.960 . S
H127 C123 0.960 . S
H128 C123 0.960 . S
H129 C123 0.959 . S
C130 N131 1.317 . S
C130 N132 1.348 . S
C130 C133 1.485 . S
N131 C130 1.317 . S
N131 N135 1.370 1_554 S
N132 C130 1.348 . S
N132 C134 1.346 1_554 S
C133 C130 1.485 . S
C133 H137 0.960 . S
C133 H138 0.961 . S
C133 H139 0.960 . S
C134 N132 1.346 1_556 S
C134 N135 1.307 . S
C134 C136 1.486 . S
N135 N131 1.370 1_556 S
N135 C134 1.307 . S
C136 C134 1.486 . S
C136 H140 0.960 . S
C136 H141 0.960 . S
C136 H142 0.959 . S
H137 C133 0.960 . S
H138 C133 0.961 . S
H139 C133 0.960 . S
H140 C136 0.960 . S
H141 C136 0.960 . S
H142 C136 0.959 . S
C143 N144 1.317 . S
C143 N145 1.348 . S
C143 C146 1.485 . S
N144 C143 1.317 . S
N144 N148 1.370 1_554 S
N145 C143 1.348 . S
N145 C147 1.346 1_554 S
C146 C143 1.485 . S
C146 H150 0.960 . S
C146 H151 0.961 . S
C146 H152 0.960 . S
C147 N145 1.346 1_556 S
C147 N148 1.307 . S
C147 C149 1.486 . S
N148 N144 1.370 1_556 S
N148 C147 1.307 . S
C149 C147 1.486 . S
C149 H153 0.960 . S
C149 H154 0.960 . S
C149 H155 0.959 . S
H150 C146 0.960 . S
H151 C146 0.961 . S
H152 C146 0.960 . S
H153 C149 0.960 . S
H154 C149 0.960 . S
H155 C149 0.959 . S
C156 N157 1.317 . S
C156 N158 1.348 . S
C156 C159 1.485 . S
N157 C156 1.317 . S
N157 N161 1.370 . S
N158 C156 1.348 . S
N158 C160 1.346 . S
C159 C156 1.485 . S
C159 H163 0.960 . S
C159 H164 0.961 . S
C159 H165 0.960 . S
C160 N158 1.346 . S
C160 N161 1.307 . S
C160 C162 1.486 . S
N161 N157 1.370 . S
N161 C160 1.307 . S
C162 C160 1.486 . S
C162 H166 0.960 . S
C162 H167 0.960 . S
C162 H168 0.959 . S
H163 C159 0.960 . S
H164 C159 0.961 . S
H165 C159 0.960 . S
H166 C162 0.960 . S
H167 C162 0.960 . S
H168 C162 0.959 . S
C169 N170 1.317 . S
C169 N171 1.348 . S
C169 C172 1.485 . S
N170 C169 1.317 . S
N170 N174 1.370 . S
N171 C169 1.348 . S
N171 C173 1.346 . S
C172 C169 1.485 . S
C172 H176 0.960 . S
C172 H177 0.961 . S
C172 H178 0.960 . S
C173 N171 1.346 . S
C173 N174 1.307 . S
C173 C175 1.486 . S
N174 N170 1.370 . S
N174 C173 1.307 . S
C175 C173 1.486 . S
C175 H179 0.960 . S
C175 H180 0.960 . S
C175 H181 0.959 . S
H176 C172 0.960 . S
H177 C172 0.961 . S
H178 C172 0.960 . S
H179 C175 0.960 . S
H180 C175 0.960 . S
H181 C175 0.959 . S
C182 N183 1.317 . S
C182 N184 1.348 . S
C182 C185 1.485 . S
N183 C182 1.317 . S
N183 N187 1.370 . S
N184 C182 1.348 . S
N184 C186 1.346 . S
C185 C182 1.485 . S
C185 H189 0.960 . S
C185 H190 0.961 . S
C185 H191 0.960 . S
C186 N184 1.346 . S
C186 N187 1.307 . S
C186 C188 1.486 . S
N187 N183 1.370 . S
N187 C186 1.307 . S
C188 C186 1.486 . S
C188 H192 0.960 . S
C188 H193 0.960 . S
C188 H194 0.959 . S
H189 C185 0.960 . S
H190 C185 0.961 . S
H191 C185 0.960 . S
H192 C188 0.960 . S
H193 C188 0.960 . S
H194 C188 0.959 . S
C195 N196 1.317 . S
C195 N197 1.348 . S
C195 C198 1.485 . S
N196 C195 1.317 . S
N196 N200 1.370 . S
N197 C195 1.348 . S
N197 C199 1.346 . S
C198 C195 1.485 . S
C198 H202 0.960 . S
C198 H203 0.961 . S
C198 H204 0.960 . S
C199 N197 1.346 . S
C199 N200 1.307 . S
C199 C201 1.486 . S
N200 N196 1.370 . S
N200 C199 1.307 . S
C201 C199 1.486 . S
C201 H205 0.960 . S
C201 H206 0.960 . S
C201 H207 0.959 . S
H202 C198 0.960 . S
H203 C198 0.961 . S
H204 C198 0.960 . S
H205 C201 0.960 . S
H206 C201 0.960 . S
H207 C201 0.959 . S
C208 C209 1.363 . S
C208 C214 1.379 . S
C208 N216 1.356 . S
C209 C208 1.363 . S
C209 C215 1.363 1_554 S
C210 C211 1.363 1_556 S
C210 C215 1.379 . S
C210 N217 1.356 . S
C211 C210 1.363 1_554 S
C211 C214 1.363 . S
N212 C214 1.356 . S
N212 H224 0.984 . S
N212 H225 0.985 . S
N213 C215 1.356 . S
N213 H218 0.984 . S
N213 H219 0.985 . S
C214 C208 1.379 . S
C214 C211 1.363 . S
C214 N212 1.356 . S
C215 C209 1.363 1_556 S
C215 C210 1.379 . S
C215 N213 1.356 . S
N216 C208 1.356 . S
N216 H222 0.984 . S
N216 H223 0.984 . S
N217 C210 1.356 . S
N217 H220 0.984 . S
N217 H221 0.985 . S
H218 N213 0.984 . S
H219 N213 0.985 . S
H220 N217 0.984 . S
H221 N217 0.985 . S
H222 N216 0.984 . S
H223 N216 0.984 . S
H224 N212 0.984 . S
H225 N212 0.985 . S
C226 C227 1.363 . S
C226 C232 1.379 . S
C226 N234 1.356 . S
C227 C226 1.363 . S
C227 C233 1.363 1_554 S
C228 C229 1.363 1_556 S
C228 C233 1.379 . S
C228 N235 1.356 . S
C229 C228 1.363 1_554 S
C229 C232 1.363 . S
N230 C232 1.356 . S
N230 H242 0.984 . S
N230 H243 0.985 . S
N231 C233 1.356 . S
N231 H236 0.984 . S
N231 H237 0.985 . S
C232 C226 1.379 . S
C232 C229 1.363 . S
C232 N230 1.356 . S
C233 C227 1.363 1_556 S
C233 C228 1.379 . S
C233 N231 1.356 . S
N234 C226 1.356 . S
N234 H240 0.984 . S
N234 H241 0.984 . S
N235 C228 1.356 . S
N235 H238 0.984 . S
N235 H239 0.985 . S
H236 N231 0.984 . S
H237 N231 0.985 . S
H238 N235 0.984 . S
H239 N235 0.985 . S
H240 N234 0.984 . S
H241 N234 0.984 . S
H242 N230 0.984 . S
H243 N230 0.985 . S
C244 C245 1.363 . S
C244 C250 1.379 . S
C244 N252 1.356 . S
C245 C244 1.363 . S
C245 C251 1.363 1_554 S
C246 C247 1.363 1_556 S
C246 C251 1.379 . S
C246 N253 1.356 . S
C247 C246 1.363 1_554 S
C247 C250 1.363 . S
N248 C250 1.356 . S
N248 H260 0.984 . S
N248 H261 0.985 . S
N249 C251 1.356 . S
N249 H254 0.984 . S
N249 H255 0.985 . S
C250 C244 1.379 . S
C250 C247 1.363 . S
C250 N248 1.356 . S
C251 C245 1.363 1_556 S
C251 C246 1.379 . S
C251 N249 1.356 . S
N252 C244 1.356 . S
N252 H258 0.984 . S
N252 H259 0.984 . S
N253 C246 1.356 . S
N253 H256 0.984 . S
N253 H257 0.985 . S
H254 N249 0.984 . S
H255 N249 0.985 . S
H256 N253 0.984 . S
H257 N253 0.985 . S
H258 N252 0.984 . S
H259 N252 0.984 . S
H260 N248 0.984 . S
H261 N248 0.985 . S
C262 C263 1.363 . S
C262 C268 1.379 . S
C262 N270 1.356 . S
C263 C262 1.363 . S
C263 C269 1.363 1_554 S
C264 C265 1.363 1_556 S
C264 C269 1.379 . S
C264 N271 1.356 . S
C265 C264 1.363 1_554 S
C265 C268 1.363 . S
N266 C268 1.356 . S
N266 H278 0.984 . S
N266 H279 0.985 . S
N267 C269 1.356 . S
N267 H272 0.984 . S
N267 H273 0.985 . S
C268 C262 1.379 . S
C268 C265 1.363 . S
C268 N266 1.356 . S
C269 C263 1.363 1_556 S
C269 C264 1.379 . S
C269 N267 1.356 . S
N270 C262 1.356 . S
N270 H276 0.984 . S
N270 H277 0.984 . S
N271 C264 1.356 . S
N271 H274 0.984 . S
N271 H275 0.985 . S
H272 N267 0.984 . S
H273 N267 0.985 . S
H274 N271 0.984 . S
H275 N271 0.985 . S
H276 N270 0.984 . S
H277 N270 0.984 . S
H278 N266 0.984 . S
H279 N266 0.985 . S
C280 C281 1.363 . S
C280 C286 1.379 . S
C280 N288 1.356 . S
C281 C280 1.363 . S
C281 C287 1.363 . S
C282 C283 1.363 . S
C282 C287 1.379 . S
C282 N289 1.356 . S
C283 C282 1.363 . S
C283 C286 1.363 . S
N284 C286 1.356 . S
N284 H296 0.984 . S
N284 H297 0.985 . S
N285 C287 1.356 . S
N285 H290 0.984 . S
N285 H291 0.985 . S
C286 C280 1.379 . S
C286 C283 1.363 . S
C286 N284 1.356 . S
C287 C281 1.363 . S
C287 C282 1.379 . S
C287 N285 1.356 . S
N288 C280 1.356 . S
N288 H294 0.984 . S
N288 H295 0.984 . S
N289 C282 1.356 . S
N289 H292 0.984 . S
N289 H293 0.985 . S
H290 N285 0.984 . S
H291 N285 0.985 . S
H292 N289 0.984 . S
H293 N289 0.985 . S
H294 N288 0.984 . S
H295 N288 0.984 . S
H296 N284 0.984 . S
H297 N284 0.985 . S
C298 C299 1.363 . S
C298 C304 1.379 . S
C298 N306 1.356 . S
C299 C298 1.363 . S
C299 C305 1.363 . S
C300 C301 1.363 . S
C300 C305 1.379 . S
C300 N307 1.356 . S
C301 C300 1.363 . S
C301 C304 1.363 . S
N302 C304 1.356 . S
N302 H314 0.984 . S
N302 H315 0.985 . S
N303 C305 1.356 . S
N303 H308 0.984 . S
N303 H309 0.985 . S
C304 C298 1.379 . S
C304 C301 1.363 . S
C304 N302 1.356 . S
C305 C299 1.363 . S
C305 C300 1.379 . S
C305 N303 1.356 . S
N306 C298 1.356 . S
N306 H312 0.984 . S
N306 H313 0.984 . S
N307 C300 1.356 . S
N307 H310 0.984 . S
N307 H311 0.985 . S
H308 N303 0.984 . S
H309 N303 0.985 . S
H310 N307 0.984 . S
H311 N307 0.985 . S
H312 N306 0.984 . S
H313 N306 0.984 . S
H314 N302 0.984 . S
H315 N302 0.985 . S
C316 C317 1.363 . S
C316 C322 1.379 . S
C316 N324 1.356 . S
C317 C316 1.363 . S
C317 C323 1.363 . S
C318 C319 1.363 . S
C318 C323 1.379 . S
C318 N325 1.356 . S
C319 C318 1.363 . S
C319 C322 1.363 . S
N320 C322 1.356 . S
N320 H332 0.984 . S
N320 H333 0.985 . S
N321 C323 1.356 . S
N321 H326 0.984 . S
N321 H327 0.985 . S
C322 C316 1.379 . S
C322 C319 1.363 . S
C322 N320 1.356 . S
C323 C317 1.363 . S
C323 C318 1.379 . S
C323 N321 1.356 . S
N324 C316 1.356 . S
N324 H330 0.984 . S
N324 H331 0.984 . S
N325 C318 1.356 . S
N325 H328 0.984 . S
N325 H329 0.985 . S
H326 N321 0.984 . S
H327 N321 0.985 . S
H328 N325 0.984 . S
H329 N325 0.985 . S
H330 N324 0.984 . S
H331 N324 0.984 . S
H332 N320 0.984 . S
H333 N320 0.985 . S
C334 C335 1.363 . S
C334 C340 1.379 . S
C334 N342 1.356 . S
C335 C334 1.363 . S
C335 C341 1.363 . S
C336 C337 1.363 . S
C336 C341 1.379 . S
C336 N343 1.356 . S
C337 C336 1.363 . S
C337 C340 1.363 . S
N338 C340 1.356 . S
N338 H350 0.984 . S
N338 H351 0.985 . S
N339 C341 1.356 . S
N339 H344 0.984 . S
N339 H345 0.985 . S
C340 C334 1.379 . S
C340 C337 1.363 . S
C340 N338 1.356 . S
C341 C335 1.363 . S
C341 C336 1.379 . S
C341 N339 1.356 . S
N342 C334 1.356 . S
N342 H348 0.984 . S
N342 H349 0.984 . S
N343 C336 1.356 . S
N343 H346 0.984 . S
N343 H347 0.985 . S
H344 N339 0.984 . S
H345 N339 0.985 . S
H346 N343 0.984 . S
H347 N343 0.985 . S
H348 N342 0.984 . S
H349 N342 0.984 . S
H350 N338 0.984 . S
H351 N338 0.985 . S
C352 C353 1.363 . S
C352 C358 1.379 . S
C352 N360 1.356 . S
C353 C352 1.363 . S
C353 C359 1.363 . S
C354 C355 1.363 . S
C354 C359 1.379 . S
C354 N361 1.356 . S
C355 C354 1.363 . S
C355 C358 1.363 . S
N356 C358 1.356 . S
N356 H368 0.984 . S
N356 H369 0.985 . S
N357 C359 1.356 . S
N357 H362 0.984 . S
N357 H363 0.985 . S
C358 C352 1.379 . S
C358 C355 1.363 . S
C358 N356 1.356 . S
C359 C353 1.363 . S
C359 C354 1.379 . S
C359 N357 1.356 . S
N360 C352 1.356 . S
N360 H366 0.984 1_455 S
N360 H367 0.984 . S
N361 C354 1.356 . S
N361 H364 0.984 . S
N361 H365 0.985 . S
H362 N357 0.984 . S
H363 N357 0.985 . S
H364 N361 0.984 . S
H365 N361 0.985 . S
H366 N360 0.984 1_655 S
H367 N360 0.984 . S
H368 N356 0.984 . S
H369 N356 0.985 . S
C370 C371 1.363 . S
C370 C376 1.379 . S
C370 N378 1.356 1_545 S
C371 C370 1.363 . S
C371 C377 1.363 . S
C372 C373 1.363 . S
C372 C377 1.379 . S
C372 N379 1.356 . S
C373 C372 1.363 . S
C373 C376 1.363 . S
N374 C376 1.356 . S
N374 H386 0.984 1_545 S
N374 H387 0.985 . S
N375 C377 1.356 . S
N375 H380 0.984 . S
N375 H381 0.985 . S
C376 C370 1.379 . S
C376 C373 1.363 . S
C376 N374 1.356 . S
C377 C371 1.363 . S
C377 C372 1.379 . S
C377 N375 1.356 . S
N378 C370 1.356 1_565 S
N378 H384 0.984 . S
N378 H385 0.984 . S
N379 C372 1.356 . S
N379 H382 0.984 . S
N379 H383 0.985 . S
H380 N375 0.984 . S
H381 N375 0.985 . S
H382 N379 0.984 . S
H383 N379 0.985 . S
H384 N378 0.984 . S
H385 N378 0.984 . S
H386 N374 0.984 1_565 S
H387 N374 0.985 . S
C388 C389 1.363 . S
C388 C394 1.379 . S
C388 N396 1.356 . S
C389 C388 1.363 . S
C389 C395 1.363 . S
C390 C391 1.363 . S
C390 C395 1.379 . S
C390 N397 1.356 . S
C391 C390 1.363 . S
C391 C394 1.363 . S
N392 C394 1.356 . S
N392 H404 0.984 . S
N392 H405 0.985 . S
N393 C395 1.356 . S
N393 H398 0.984 . S
N393 H399 0.985 . S
C394 C388 1.379 . S
C394 C391 1.363 . S
C394 N392 1.356 . S
C395 C389 1.363 . S
C395 C390 1.379 . S
C395 N393 1.356 . S
N396 C388 1.356 . S
N396 H402 0.984 . S
N396 H403 0.984 . S
N397 C390 1.356 . S
N397 H400 0.984 . S
N397 H401 0.985 . S
H398 N393 0.984 . S
H399 N393 0.985 . S
H400 N397 0.984 . S
H401 N397 0.985 . S
H402 N396 0.984 . S
H403 N396 0.984 . S
H404 N392 0.984 . S
H405 N392 0.985 . S
C406 C407 1.363 . S
C406 C412 1.379 . S
C406 N414 1.356 . S
C407 C406 1.363 . S
C407 C413 1.363 . S
C408 C409 1.363 . S
C408 C413 1.379 . S
C408 N415 1.356 . S
C409 C408 1.363 . S
C409 C412 1.363 . S
N410 C412 1.356 . S
N410 H422 0.984 . S
N410 H423 0.985 . S
N411 C413 1.356 . S
N411 H416 0.984 . S
N411 H417 0.985 . S
C412 C406 1.379 . S
C412 C409 1.363 . S
C412 N410 1.356 . S
C413 C407 1.363 . S
C413 C408 1.379 . S
C413 N411 1.356 . S
N414 C406 1.356 . S
N414 H420 0.984 . S
N414 H421 0.984 . S
N415 C408 1.356 . S
N415 H418 0.984 . S
N415 H419 0.985 . S
H416 N411 0.984 . S
H417 N411 0.985 . S
H418 N415 0.984 . S
H419 N415 0.985 . S
H420 N414 0.984 . S
H421 N414 0.984 . S
H422 N410 0.984 . S
H423 N410 0.985 . S
C424 C425 1.363 . S
C424 C430 1.379 . S
C424 N432 1.356 . S
C425 C424 1.363 . S
C425 C431 1.363 . S
C426 C427 1.363 . S
C426 C431 1.379 . S
C426 N433 1.356 . S
C427 C426 1.363 . S
C427 C430 1.363 . S
N428 C430 1.356 . S
N428 H440 0.984 . S
N428 H441 0.985 . S
N429 C431 1.356 . S
N429 H434 0.984 . S
N429 H435 0.985 . S
C430 C424 1.379 . S
C430 C427 1.363 . S
C430 N428 1.356 . S
C431 C425 1.363 . S
C431 C426 1.379 . S
C431 N429 1.356 . S
N432 C424 1.356 . S
N432 H438 0.984 . S
N432 H439 0.984 . S
N433 C426 1.356 . S
N433 H436 0.984 . S
N433 H437 0.985 . S
H434 N429 0.984 . S
H435 N429 0.985 . S
H436 N433 0.984 . S
H437 N433 0.985 . S
H438 N432 0.984 . S
H439 N432 0.984 . S
H440 N428 0.984 . S
H441 N428 0.985 . S
C442 C443 1.363 . S
C442 C448 1.379 . S
C442 N450 1.356 . S
C443 C442 1.363 . S
C443 C449 1.363 . S
C444 C445 1.363 . S
C444 C449 1.379 . S
C444 N451 1.356 . S
C445 C444 1.363 . S
C445 C448 1.363 . S
N446 C448 1.356 . S
N446 H458 0.984 . S
N446 H459 0.985 . S
N447 C449 1.356 . S
N447 H452 0.984 . S
N447 H453 0.985 . S
C448 C442 1.379 . S
C448 C445 1.363 . S
C448 N446 1.356 . S
C449 C443 1.363 . S
C449 C444 1.379 . S
C449 N447 1.356 . S
N450 C442 1.356 . S
N450 H456 0.984 . S
N450 H457 0.984 . S
N451 C444 1.356 . S
N451 H454 0.984 . S
N451 H455 0.985 . S
H452 N447 0.984 . S
H453 N447 0.985 . S
H454 N451 0.984 . S
H455 N451 0.985 . S
H456 N450 0.984 . S
H457 N450 0.984 . S
H458 N446 0.984 . S
H459 N446 0.985 . S
C460 C461 1.363 . S
C460 C466 1.379 . S
C460 N468 1.356 . S
C461 C460 1.363 . S
C461 C467 1.363 . S
C462 C463 1.363 . S
C462 C467 1.379 . S
C462 N469 1.356 . S
C463 C462 1.363 . S
C463 C466 1.363 . S
N464 C466 1.356 . S
N464 H476 0.984 . S
N464 H477 0.985 . S
N465 C467 1.356 . S
N465 H470 0.984 . S
N465 H471 0.985 1_545 S
C466 C460 1.379 . S
C466 C463 1.363 . S
C466 N464 1.356 . S
C467 C461 1.363 . S
C467 C462 1.379 . S
C467 N465 1.356 . S
N468 C460 1.356 . S
N468 H474 0.984 . S
N468 H475 0.984 . S
N469 C462 1.356 . S
N469 H472 0.984 . S
N469 H473 0.985 . S
H470 N465 0.984 . S
H471 N465 0.985 1_565 S
H472 N469 0.984 . S
H473 N469 0.985 . S
H474 N468 0.984 . S
H475 N468 0.984 . S
H476 N464 0.984 . S
H477 N464 0.985 . S
C478 C479 1.363 . S
C478 C484 1.379 . S
C478 N486 1.356 . S
C479 C478 1.363 . S
C479 C485 1.363 . S
C480 C481 1.363 . S
C480 C485 1.379 . S
C480 N487 1.356 . S
C481 C480 1.363 . S
C481 C484 1.363 . S
N482 C484 1.356 . S
N482 H494 0.984 . S
N482 H495 0.985 . S
N483 C485 1.356 1_455 S
N483 H488 0.984 . S
N483 H489 0.985 . S
C484 C478 1.379 . S
C484 C481 1.363 . S
C484 N482 1.356 . S
C485 C479 1.363 . S
C485 C480 1.379 . S
C485 N483 1.356 1_655 S
N486 C478 1.356 . S
N486 H492 0.984 . S
N486 H493 0.984 . S
N487 C480 1.356 . S
N487 H490 0.984 . S
N487 H491 0.985 1_655 S
H488 N483 0.984 . S
H489 N483 0.985 . S
H490 N487 0.984 . S
H491 N487 0.985 1_455 S
H492 N486 0.984 . S
H493 N486 0.984 . S
H494 N482 0.984 . S
H495 N482 0.985 . S
C496 C497 1.363 . S
C496 C502 1.379 . S
C496 N504 1.356 . S
C497 C496 1.363 . S
C497 C503 1.363 . S
C498 C499 1.363 . S
C498 C503 1.379 . S
C498 N505 1.356 . S
C499 C498 1.363 . S
C499 C502 1.363 . S
N500 C502 1.356 . S
N500 H512 0.984 1_556 S
N500 H513 0.985 1_556 S
N501 C503 1.356 . S
N501 H506 0.984 . S
N501 H507 0.985 . S
C502 C496 1.379 . S
C502 C499 1.363 . S
C502 N500 1.356 . S
C503 C497 1.363 . S
C503 C498 1.379 . S
C503 N501 1.356 . S
N504 C496 1.356 . S
N504 H510 0.984 . S
N504 H511 0.984 . S
N505 C498 1.356 . S
N505 H508 0.984 . S
N505 H509 0.985 . S
H506 N501 0.984 . S
H507 N501 0.985 . S
H508 N505 0.984 . S
H509 N505 0.985 . S
H510 N504 0.984 . S
H511 N504 0.984 . S
H512 N500 0.984 1_554 S
H513 N500 0.985 1_554 S
C514 C515 1.363 . S
C514 C520 1.379 . S
C514 N522 1.356 . S
C515 C514 1.363 . S
C515 C521 1.363 . S
C516 C517 1.363 . S
C516 C521 1.379 . S
C516 N523 1.356 . S
C517 C516 1.363 . S
C517 C520 1.363 . S
N518 C520 1.356 . S
N518 H530 0.984 1_556 S
N518 H531 0.985 1_556 S
N519 C521 1.356 . S
N519 H524 0.984 . S
N519 H525 0.985 . S
C520 C514 1.379 . S
C520 C517 1.363 . S
C520 N518 1.356 . S
C521 C515 1.363 . S
C521 C516 1.379 . S
C521 N519 1.356 . S
N522 C514 1.356 . S
N522 H528 0.984 . S
N522 H529 0.984 . S
N523 C516 1.356 . S
N523 H526 0.984 . S
N523 H527 0.985 . S
H524 N519 0.984 . S
H525 N519 0.985 . S
H526 N523 0.984 . S
H527 N523 0.985 . S
H528 N522 0.984 . S
H529 N522 0.984 . S
H530 N518 0.984 1_554 S
H531 N518 0.985 1_554 S
C532 C533 1.363 . S
C532 C538 1.379 . S
C532 N540 1.356 . S
C533 C532 1.363 . S
C533 C539 1.363 . S
C534 C535 1.363 . S
C534 C539 1.379 . S
C534 N541 1.356 . S
C535 C534 1.363 . S
C535 C538 1.363 . S
N536 C538 1.356 . S
N536 H548 0.984 . S
N536 H549 0.985 . S
N537 C539 1.356 . S
N537 H542 0.984 . S
N537 H543 0.985 . S
C538 C532 1.379 . S
C538 C535 1.363 . S
C538 N536 1.356 . S
C539 C533 1.363 . S
C539 C534 1.379 . S
C539 N537 1.356 . S
N540 C532 1.356 . S
N540 H546 0.984 . S
N540 H547 0.984 . S
N541 C534 1.356 . S
N541 H544 0.984 1_556 S
N541 H545 0.985 1_556 S
H542 N537 0.984 . S
H543 N537 0.985 . S
H544 N541 0.984 1_554 S
H545 N541 0.985 1_554 S
H546 N540 0.984 . S
H547 N540 0.984 . S
H548 N536 0.984 . S
H549 N536 0.985 . S
C550 C551 1.363 . S
C550 C556 1.379 . S
C550 N558 1.356 . S
C551 C550 1.363 . S
C551 C557 1.363 . S
C552 C553 1.363 . S
C552 C557 1.379 . S
C552 N559 1.356 . S
C553 C552 1.363 . S
C553 C556 1.363 . S
N554 C556 1.356 . S
N554 H566 0.984 . S
N554 H567 0.985 . S
N555 C557 1.356 . S
N555 H560 0.984 . S
N555 H561 0.985 . S
C556 C550 1.379 . S
C556 C553 1.363 . S
C556 N554 1.356 . S
C557 C551 1.363 . S
C557 C552 1.379 . S
C557 N555 1.356 . S
N558 C550 1.356 . S
N558 H564 0.984 . S
N558 H565 0.984 . S
N559 C552 1.356 . S
N559 H562 0.984 . S
N559 H563 0.985 . S
H560 N555 0.984 . S
H561 N555 0.985 . S
H562 N559 0.984 . S
H563 N559 0.985 . S
H564 N558 0.984 . S
H565 N558 0.984 . S
H566 N554 0.984 . S
H567 N554 0.985 . S
C568 C569 1.363 . S
C568 C574 1.379 . S
C568 N576 1.356 . S
C569 C568 1.363 . S
C569 C575 1.363 . S
C570 C571 1.363 . S
C570 C575 1.379 . S
C570 N577 1.356 . S
C571 C570 1.363 . S
C571 C574 1.363 . S
N572 C574 1.356 . S
N572 H584 0.984 . S
N572 H585 0.985 . S
N573 C575 1.356 . S
N573 H578 0.984 . S
N573 H579 0.985 . S
C574 C568 1.379 . S
C574 C571 1.363 . S
C574 N572 1.356 . S
C575 C569 1.363 . S
C575 C570 1.379 . S
C575 N573 1.356 . S
N576 C568 1.356 . S
N576 H582 0.984 . S
N576 H583 0.984 . S
N577 C570 1.356 . S
N577 H580 0.984 . S
N577 H581 0.985 . S
H578 N573 0.984 . S
H579 N573 0.985 . S
H580 N577 0.984 . S
H581 N577 0.985 . S
H582 N576 0.984 . S
H583 N576 0.984 . S
H584 N572 0.984 . S
H585 N572 0.985 . S
C586 C587 1.363 . S
C586 C592 1.379 . S
C586 N594 1.356 . S
C587 C586 1.363 . S
C587 C593 1.363 . S
C588 C589 1.363 . S
C588 C593 1.379 . S
C588 N595 1.356 . S
C589 C588 1.363 . S
C589 C592 1.363 . S
N590 C592 1.356 . S
N590 H602 0.984 1_554 S
N590 H603 0.985 1_554 S
N591 C593 1.356 . S
N591 H596 0.984 . S
N591 H597 0.985 . S
C592 C586 1.379 . S
C592 C589 1.363 . S
C592 N590 1.356 . S
C593 C587 1.363 . S
C593 C588 1.379 . S
C593 N591 1.356 . S
N594 C586 1.356 . S
N594 H600 0.984 . S
N594 H601 0.984 . S
N595 C588 1.356 . S
N595 H598 0.984 . S
N595 H599 0.985 . S
H596 N591 0.984 . S
H597 N591 0.985 . S
H598 N595 0.984 . S
H599 N595 0.985 . S
H600 N594 0.984 . S
H601 N594 0.984 . S
H602 N590 0.984 1_556 S
H603 N590 0.985 1_556 S
C604 C605 1.363 . S
C604 C610 1.379 . S
C604 N612 1.356 . S
C605 C604 1.363 . S
C605 C611 1.363 . S
C606 C607 1.363 . S
C606 C611 1.379 . S
C606 N613 1.356 . S
C607 C606 1.363 . S
C607 C610 1.363 . S
N608 C610 1.356 . S
N608 H620 0.984 . S
N608 H621 0.985 . S
N609 C611 1.356 . S
N609 H614 0.984 . S
N609 H615 0.985 . S
C610 C604 1.379 . S
C610 C607 1.363 . S
C610 N608 1.356 . S
C611 C605 1.363 . S
C611 C606 1.379 . S
C611 N609 1.356 . S
N612 C604 1.356 . S
N612 H618 0.984 . S
N612 H619 0.984 . S
N613 C606 1.356 . S
N613 H616 0.984 1_554 S
N613 H617 0.985 . S
H614 N609 0.984 . S
H615 N609 0.985 . S
H616 N613 0.984 1_556 S
H617 N613 0.985 . S
H618 N612 0.984 . S
H619 N612 0.984 . S
H620 N608 0.984 . S
H621 N608 0.985 . S
C622 C623 1.363 . S
C622 C628 1.379 . S
C622 N630 1.356 . S
C623 C622 1.363 . S
C623 C629 1.363 . S
C624 C625 1.363 . S
C624 C629 1.379 . S
C624 N631 1.356 . S
C625 C624 1.363 . S
C625 C628 1.363 . S
N626 C628 1.356 . S
N626 H638 0.984 . S
N626 H639 0.985 . S
N627 C629 1.356 . S
N627 H632 0.984 . S
N627 H633 0.985 . S
C628 C622 1.379 . S
C628 C625 1.363 . S
C628 N626 1.356 . S
C629 C623 1.363 . S
C629 C624 1.379 . S
C629 N627 1.356 . S
N630 C622 1.356 . S
N630 H636 0.984 . S
N630 H637 0.984 . S
N631 C624 1.356 . S
N631 H634 0.984 . S
N631 H635 0.985 . S
H632 N627 0.984 . S
H633 N627 0.985 . S
H634 N631 0.984 . S
H635 N631 0.985 . S
H636 N630 0.984 . S
H637 N630 0.984 . S
H638 N626 0.984 . S
H639 N626 0.985 . S
C209 C45 1.532 . S
C211 N106 1.545 . S
C227 C30 1.532 . S
C229 N119 1.544 . S
C245 C39 1.532 . S
C247 N132 1.534 . S
C265 N145 1.534 . S
C263 C34 1.532 . S
C281 C97 1.532 . S
C283 N158 1.545 . S
C301 N171 1.534 . S
C299 C82 1.532 . S
C319 N184 1.534 . S
C317 C91 1.532 . S
C337 N197 1.534 . S
C335 C86 1.532 . S
C355 N187 1.517 . S
C353 C26 1.483 . S
C373 N200 1.518 . S
C371 C36 1.483 . S
C391 N157 1.527 . S
C389 C32 1.483 . S
C409 N174 1.519 . S
C407 C42 1.484 . S
C425 C18 1.525 . S
C427 N170 1.570 . S
C445 N183 1.572 . S
C443 C50 1.527 . S
C461 C4 1.526 . S
C463 N196 1.571 . S
C479 C48 1.527 . S
C481 N161 1.588 . S
C499 N135 1.518 . S
C497 C78 1.483 . S
C515 C88 1.483 . S
C517 N148 1.518 . S
C535 N105 1.528 . S
C533 C84 1.483 . S
C553 N118 1.527 . S
C551 C94 1.483 . S
C571 N122 1.588 . S
C569 C70 1.527 . S
C589 N131 1.571 . S
C587 C102 1.526 . S
C605 C56 1.526 . S
C607 N144 1.571 . S
C623 C100 1.526 . S
C625 N109 1.587 . S
