# Generated by pormake.
# Topology cml, (3,6)-cn, num edge types: 1
# Building blocks:
#     Node 0, Type 0, BuildingBlock: BELTOD_clean_linker_0, # of connection points: 3
#     Node 1, Type 0, BuildingBlock: BELTOD_clean_linker_0, # of connection points: 3
#     Node 2, Type 0, BuildingBlock: BELTOD_clean_linker_0, # of connection points: 3
#     Node 3, Type 0, BuildingBlock: BELTOD_clean_linker_0, # of connection points: 3
#     Node 4, Type 0, BuildingBlock: BELTOD_clean_linker_0, # of connection points: 3
#     Node 5, Type 0, BuildingBlock: BELTOD_clean_linker_0, # of connection points: 3
#     Node 6, Type 0, BuildingBlock: BELTOD_clean_linker_0, # of connection points: 3
#     Node 7, Type 0, BuildingBlock: BELTOD_clean_linker_0, # of connection points: 3
#     Node 8, Type 1, BuildingBlock: OJICUG_clean_sbu_0, # of connection points: 6
#     Node 9, Type 1, BuildingBlock: OJICUG_clean_sbu_0, # of connection points: 6
#     Node 10, Type 1, BuildingBlock: OJICUG_clean_sbu_0, # of connection points: 6
#     Node 11, Type 1, BuildingBlock: OJICUG_clean_sbu_0, # of connection points: 6
#     Edge 12, Type (0, 1), BuildingBlock: UVAHIK_clean_linker_0, # of connection points: 2
#     Edge 13, Type (0, 1), BuildingBlock: UVAHIK_clean_linker_0, # of connection points: 2
#     Edge 14, Type (0, 1), BuildingBlock: UVAHIK_clean_linker_0, # of connection points: 2
#     Edge 15, Type (0, 1), BuildingBlock: UVAHIK_clean_linker_0, # of connection points: 2
#     Edge 16, Type (0, 1), BuildingBlock: UVAHIK_clean_linker_0, # of connection points: 2
#     Edge 17, Type (0, 1), BuildingBlock: UVAHIK_clean_linker_0, # of connection points: 2
#     Edge 18, Type (0, 1), BuildingBlock: UVAHIK_clean_linker_0, # of connection points: 2
#     Edge 19, Type (0, 1), BuildingBlock: UVAHIK_clean_linker_0, # of connection points: 2
#     Edge 20, Type (0, 1), BuildingBlock: UVAHIK_clean_linker_0, # of connection points: 2
#     Edge 21, Type (0, 1), BuildingBlock: UVAHIK_clean_linker_0, # of connection points: 2
#     Edge 22, Type (0, 1), BuildingBlock: UVAHIK_clean_linker_0, # of connection points: 2
#     Edge 23, Type (0, 1), BuildingBlock: UVAHIK_clean_linker_0, # of connection points: 2
#     Edge 24, Type (0, 1), BuildingBlock: UVAHIK_clean_linker_0, # of connection points: 2
#     Edge 25, Type (0, 1), BuildingBlock: UVAHIK_clean_linker_0, # of connection points: 2
#     Edge 26, Type (0, 1), BuildingBlock: UVAHIK_clean_linker_0, # of connection points: 2
#     Edge 27, Type (0, 1), BuildingBlock: UVAHIK_clean_linker_0, # of connection points: 2
#     Edge 28, Type (0, 1), BuildingBlock: UVAHIK_clean_linker_0, # of connection points: 2
#     Edge 29, Type (0, 1), BuildingBlock: UVAHIK_clean_linker_0, # of connection points: 2
#     Edge 30, Type (0, 1), BuildingBlock: UVAHIK_clean_linker_0, # of connection points: 2
#     Edge 31, Type (0, 1), BuildingBlock: UVAHIK_clean_linker_0, # of connection points: 2
#     Edge 32, Type (0, 1), BuildingBlock: UVAHIK_clean_linker_0, # of connection points: 2
#     Edge 33, Type (0, 1), BuildingBlock: UVAHIK_clean_linker_0, # of connection points: 2
#     Edge 34, Type (0, 1), BuildingBlock: UVAHIK_clean_linker_0, # of connection points: 2
#     Edge 35, Type (0, 1), BuildingBlock: UVAHIK_clean_linker_0, # of connection points: 2
# Relax obj value: 0.065
# Max RMSD: 0.077
# Mean RMSD: 0.074
data_MOF--net-cml--node1-OJICUG_clean_sbu_0--node2-BELTOD_clean_linker_0--edge1-UVAHIK_clean_linker_0
_symmetry_space_group_name_H-M    P1
_symmetry_Int_Tables_number       1
_symmetry_cell_setting            triclinic
loop_
_symmetry_equiv_pos_as_xyz
'x, y, z'
_cell_length_a     55.245315
_cell_length_b     55.691894
_cell_length_c     52.171184
_cell_angle_alpha  89.577164
_cell_angle_beta   89.685379
_cell_angle_gamma 89.906215
loop_
_atom_site_label
_atom_site_type_symbol
_atom_site_fract_x
_atom_site_fract_y
_atom_site_fract_z
_atom_type_partial_charge
P0 P 0.32288 0.35816 0.95801 0.0
H1 H 0.33374 0.31113 0.97987 0.0
H2 H 0.33553 0.2961 0.024 0.0
H3 H 0.31705 0.36697 0.05147 0.0
H4 H 0.31403 0.3813 0.00751 0.0
H5 H 0.30793 0.33245 0.9119 0.0
H6 H 0.26829 0.31948 0.89671 0.0
H7 H 0.2344 0.35293 0.9623 0.0
H8 H 0.27414 0.36534 0.9776 0.0
H9 H 0.35975 0.38978 0.97836 0.0
H10 H 0.2943 0.39704 0.93417 0.0
O11 O 0.34491 0.34548 0.94076 0.0
H12 H 0.36533 0.43332 0.97675 0.0
H13 H 0.29952 0.44048 0.93291 0.0
C14 C 0.32463 0.34749 0.99051 0.0
C15 C 0.33014 0.32336 0.99548 0.0
C16 C 0.33115 0.31483 0.02071 0.0
C17 C 0.32665 0.33035 0.04138 0.0
C18 C 0.32038 0.35438 0.03613 0.0
C19 C 0.31909 0.36277 0.01092 0.0
C20 C 0.29388 0.34948 0.94604 0.0
C21 C 0.29196 0.33698 0.92297 0.0
C22 C 0.26928 0.32978 0.9142 0.0
C23 C 0.24825 0.33508 0.92839 0.0
C24 C 0.25031 0.34823 0.95117 0.0
C25 C 0.27296 0.35535 0.95992 0.0
C26 C 0.32653 0.3902 0.95666 0.0
C27 C 0.34649 0.40077 0.96852 0.0
C28 C 0.34952 0.42564 0.96779 0.0
C29 C 0.33272 0.44032 0.95491 0.0
C30 C 0.31277 0.42962 0.94294 0.0
C31 C 0.30974 0.40475 0.94375 0.0
P32 P 0.73811 0.55913 0.52267 0.0
H33 H 0.74152 0.52341 0.48235 0.0
H34 H 0.71148 0.50585 0.45363 0.0
H35 H 0.6564 0.55177 0.4862 0.0
H36 H 0.68639 0.5692 0.51471 0.0
H37 H 0.78705 0.57527 0.53318 0.0
H38 H 0.81474 0.6023 0.5104 0.0
H39 H 0.75995 0.61562 0.45319 0.0
H40 H 0.73246 0.58839 0.47596 0.0
H41 H 0.71326 0.53972 0.56722 0.0
H42 H 0.7289 0.60981 0.53572 0.0
O43 O 0.75463 0.53637 0.53407 0.0
H44 H 0.68995 0.55806 0.60175 0.0
H45 H 0.70621 0.62846 0.57073 0.0
C46 C 0.71605 0.54712 0.50106 0.0
C47 C 0.72297 0.52967 0.48325 0.0
C48 C 0.70585 0.51981 0.46674 0.0
C49 C 0.68156 0.5273 0.46786 0.0
C50 C 0.67491 0.54537 0.48522 0.0
C51 C 0.69205 0.55532 0.50156 0.0
C52 C 0.75796 0.57949 0.50597 0.0
C53 C 0.78106 0.58397 0.51569 0.0
C54 C 0.79678 0.59953 0.50275 0.0
C55 C 0.78957 0.61098 0.4799 0.0
C56 C 0.76617 0.60675 0.47049 0.0
C57 C 0.75042 0.59124 0.48353 0.0
C58 C 0.72317 0.57339 0.54924 0.0
C59 C 0.71207 0.55911 0.56807 0.0
C60 C 0.69881 0.56967 0.58786 0.0
C61 C 0.69635 0.59479 0.58919 0.0
C62 C 0.7076 0.60907 0.57022 0.0
C63 C 0.7208 0.59844 0.55032 0.0
P64 P 0.75476 0.43352 0.03573 0.0
H65 H 0.75825 0.41163 0.08679 0.0
H66 H 0.72825 0.39246 0.11498 0.0
H67 H 0.67405 0.40123 0.05623 0.0
H68 H 0.70401 0.42046 0.02833 0.0
H69 H 0.80066 0.43734 0.00845 0.0
H70 H 0.82274 0.41 0.98017 0.0
H71 H 0.76567 0.35757 0.98906 0.0
H72 H 0.74385 0.38488 0.01743 0.0
H73 H 0.7279 0.47609 0.05034 0.0
H74 H 0.74582 0.43933 0.98027 0.0
O75 O 0.7746 0.4476 0.05434 0.0
H76 H 0.7028 0.50441 0.02633 0.0
H77 H 0.72154 0.46804 0.956 0.0
C78 C 0.73317 0.41801 0.05579 0.0
C79 C 0.73991 0.40938 0.08001 0.0
C80 C 0.7228 0.39828 0.09602 0.0
C81 C 0.69871 0.3956 0.08794 0.0
C82 C 0.69233 0.40348 0.0632 0.0
C83 C 0.70945 0.41446 0.04723 0.0
C84 C 0.77093 0.41292 0.01547 0.0
C85 C 0.79302 0.41989 0.00442 0.0
C86 C 0.80548 0.40434 0.98808 0.0
C87 C 0.79599 0.38158 0.98247 0.0
C88 C 0.77363 0.37483 0.99333 0.0
C89 C 0.76113 0.39045 0.00957 0.0
C90 C 0.73885 0.45575 0.01711 0.0
C91 C 0.7268 0.47443 0.02971 0.0
C92 C 0.71255 0.49067 0.01591 0.0
C93 C 0.71012 0.48854 0.98919 0.0
C94 C 0.72272 0.47003 0.97658 0.0
C95 C 0.73684 0.4537 0.99045 0.0
P96 P 0.3061 0.62607 0.47536 0.0
H97 H 0.28849 0.604 0.42872 0.0
H98 H 0.28739 0.56258 0.41391 0.0
H99 H 0.3192 0.53909 0.48543 0.0
H100 H 0.31894 0.58022 0.50055 0.0
H101 H 0.29763 0.67609 0.46116 0.0
H102 H 0.26111 0.69808 0.44847 0.0
H103 H 0.21875 0.63363 0.45934 0.0
H104 H 0.25522 0.61184 0.47224 0.0
H105 H 0.34971 0.62036 0.50557 0.0
H106 H 0.27447 0.63697 0.51949 0.0
O107 O 0.32946 0.63807 0.45945 0.0
H108 H 0.3579 0.6238 0.55143 0.0
H109 H 0.2827 0.64084 0.56534 0.0
C110 C 0.30357 0.59522 0.46581 0.0
C111 C 0.29476 0.58984 0.44139 0.0
C112 C 0.29432 0.56615 0.43288 0.0
C113 C 0.30328 0.54743 0.44842 0.0
C114 C 0.31172 0.55292 0.4731 0.0
C115 C 0.31183 0.57659 0.48171 0.0
C116 C 0.27917 0.64223 0.46681 0.0
C117 C 0.28047 0.66672 0.46075 0.0
C118 C 0.25962 0.67928 0.4537 0.0
C119 C 0.23722 0.66744 0.45266 0.0
C120 C 0.23589 0.64304 0.45954 0.0
C121 C 0.2567 0.63059 0.46684 0.0
C122 C 0.31161 0.62874 0.50912 0.0
C123 C 0.33499 0.62482 0.51849 0.0
C124 C 0.3396 0.62661 0.54466 0.0
C125 C 0.3209 0.63258 0.56183 0.0
C126 C 0.29743 0.63637 0.55243 0.0
C127 C 0.29275 0.63419 0.52624 0.0
P128 P 0.82384 0.84319 0.96593 0.0
H129 H 0.82751 0.79813 0.99435 0.0
H130 H 0.8276 0.7886 0.0402 0.0
H131 H 0.81897 0.8641 0.05712 0.0
H132 H 0.81745 0.8731 0.01158 0.0
H133 H 0.80875 0.81999 0.91851 0.0
H134 H 0.76888 0.8122 0.90025 0.0
H135 H 0.73514 0.84531 0.96613 0.0
H136 H 0.775 0.85243 0.98448 0.0
H137 H 0.86448 0.87269 0.98152 0.0
H138 H 0.79838 0.88246 0.9389 0.0
O139 O 0.8451 0.82655 0.95174 0.0
H140 H 0.87341 0.91554 0.97656 0.0
H141 H 0.80704 0.92509 0.93422 0.0
C142 C 0.82337 0.83637 -0.00037 0.0
C143 C 0.82558 0.81255 0.00803 0.0
C144 C 0.82566 0.80716 0.03424 0.0
C145 C 0.82359 0.82559 0.05246 0.0
C146 C 0.82038 0.84936 0.04377 0.0
C147 C 0.81997 0.85464 0.01761 0.0
C148 C 0.7947 0.83622 0.95309 0.0
C149 C 0.79274 0.82528 0.92912 0.0
C150 C 0.76996 0.82112 0.91858 0.0
C151 C 0.74886 0.82808 0.93179 0.0
C152 C 0.75102 0.83934 0.9557 0.0
C153 C 0.77377 0.8434 0.96623 0.0
C154 C 0.83076 0.8744 0.96075 0.0
C155 C 0.85193 0.88404 0.97109 0.0
C156 C 0.85688 0.90852 0.96846 0.0
C157 C 0.8408 0.92366 0.95517 0.0
C158 C 0.81979 0.91383 0.94447 0.0
C159 C 0.81481 0.8894 0.94723 0.0
P160 P 0.2486 0.05906 0.53333 0.0
H161 H 0.24503 0.01161 0.50985 0.0
H162 H 0.21389 0.99281 0.48379 0.0
H163 H 0.17223 0.05861 0.48546 0.0
H164 H 0.20318 0.07697 0.51225 0.0
H165 H 0.29075 0.0869 0.54759 0.0
H166 H 0.31734 0.11416 0.52365 0.0
H167 H 0.27347 0.10458 0.45615 0.0
H168 H 0.24747 0.07697 0.47992 0.0
H169 H 0.22517 0.03952 0.57858 0.0
H170 H 0.23642 0.10949 0.54474 0.0
O171 O 0.26659 0.03771 0.54533 0.0
H172 H 0.20094 0.05741 0.61264 0.0
H173 H 0.21285 0.12778 0.57934 0.0
C174 C 0.22616 0.04551 0.51329 0.0
C175 C 0.22917 0.02195 0.50465 0.0
C176 C 0.21143 0.01131 0.48952 0.0
C177 C 0.19048 0.02417 0.48257 0.0
C178 C 0.1879 0.04804 0.49082 0.0
C179 C 0.20559 0.05859 0.50607 0.0
C180 C 0.26718 0.07991 0.51559 0.0
C181 C 0.28688 0.09074 0.52764 0.0
C182 C 0.30196 0.10641 0.51397 0.0
C183 C 0.29755 0.11153 0.48795 0.0
C184 C 0.27758 0.10076 0.47604 0.0
C185 C 0.26255 0.08507 0.48973 0.0
C186 C 0.233 0.07321 0.5595 0.0
C187 C 0.22283 0.05883 0.57883 0.0
C188 C 0.20904 0.06914 0.59836 0.0
C189 C 0.20511 0.09411 0.59893 0.0
C190 C 0.2154 0.10849 0.57944 0.0
C191 C 0.22911 0.09809 0.55978 0.0
P192 P 0.25849 0.93382 0.04484 0.0
H193 H 0.26167 0.92497 0.10019 0.0
H194 H 0.23322 0.90758 0.13126 0.0
H195 H 0.18363 0.8918 0.06997 0.0
H196 H 0.21204 0.90953 0.03897 0.0
H197 H 0.30048 0.94022 0.01187 0.0
H198 H 0.32203 0.91358 0.98248 0.0
H199 H 0.27214 0.8564 0.00158 0.0
H200 H 0.25108 0.88292 0.03125 0.0
H201 H 0.23044 0.97539 0.06007 0.0
H202 H 0.24557 0.93735 0.99005 0.0
O203 O 0.27893 0.94969 0.06093 0.0
H204 H 0.2037 0.00275 0.03679 0.0
H205 H 0.21967 0.96512 0.96646 0.0
C206 C 0.23888 0.91861 0.06732 0.0
C207 C 0.24478 0.91761 0.09339 0.0
C208 C 0.2285 0.90773 0.11114 0.0
C209 C 0.20621 0.89841 0.10301 0.0
C210 C 0.20076 0.89866 0.07673 0.0
C211 C 0.21692 0.90884 0.05905 0.0
C212 C 0.27442 0.91349 0.02403 0.0
C213 C 0.29433 0.92188 0.00985 0.0
C214 C 0.30646 0.90671 0.99286 0.0
C215 C 0.29882 0.88285 0.98969 0.0
C216 C 0.27869 0.87458 0.00384 0.0
C217 C 0.26656 0.88979 0.0208 0.0
C218 C 0.24016 0.95452 0.02679 0.0
C219 C 0.22826 0.97316 0.0396 0.0
C220 C 0.21308 0.98886 0.02622 0.0
C221 C 0.20958 0.98622 -0.00031 0.0
C222 C 0.22172 0.96753 0.98691 0.0
C223 C 0.23676 0.95173 0.00038 0.0
P224 P 0.79968 0.12309 0.47587 0.0
H225 H 0.80257 0.09551 0.42879 0.0
H226 H 0.80199 0.05235 0.42029 0.0
H227 H 0.78989 0.03805 0.50078 0.0
H228 H 0.78972 0.08124 0.50914 0.0
H229 H 0.78281 0.17111 0.4889 0.0
H230 H 0.74693 0.19409 0.47703 0.0
H231 H 0.72268 0.13463 0.43084 0.0
H232 H 0.7575 0.11135 0.44432 0.0
H233 H 0.8455 0.11631 0.50152 0.0
H234 H 0.77259 0.13608 0.52277 0.0
O235 O 0.82184 0.13396 0.45731 0.0
H236 H 0.85772 0.11877 0.54646 0.0
H237 H 0.78505 0.13949 0.56765 0.0
C238 C 0.79671 0.09153 0.46962 0.0
C239 C 0.79944 0.0831 0.44454 0.0
C240 C 0.79889 0.0585 0.43968 0.0
C241 C 0.79592 0.04199 0.45992 0.0
C242 C 0.79226 0.0505 0.48491 0.0
C243 C 0.79232 0.07515 0.48967 0.0
C244 C 0.77251 0.13929 0.46812 0.0
C245 C 0.76944 0.16288 0.47669 0.0
C246 C 0.74904 0.17612 0.46957 0.0
C247 C 0.73174 0.16625 0.453 0.0
C248 C 0.73519 0.14266 0.44416 0.0
C249 C 0.75532 0.12931 0.45173 0.0
C250 C 0.80839 0.12682 0.50872 0.0
C251 C 0.83225 0.1216 0.51579 0.0
C252 C 0.83915 0.12282 0.5414 0.0
C253 C 0.82229 0.12945 0.5603 0.0
C254 C 0.79836 0.13462 0.55327 0.0
C255 C 0.79133 0.13287 0.52765 0.0
Sc256 Sc 0.98769 0.79748 0.316 0.0
Sc257 Sc 0.97747 0.86005 0.31869 0.0
Sc258 Sc 0.98244 0.82651 0.37568 0.0
O259 O 0.98255 0.82798 0.33676 0.0
C260 C 0.9544 0.77818 0.36175 0.0
C261 C 0.94657 0.8245 0.28414 0.0
C262 C 0.93941 0.86309 0.36495 0.0
C263 C 0.01843 0.83581 0.28379 0.0
C264 C 0.02554 0.79094 0.36168 0.0
C265 C 0.01097 0.87557 0.36506 0.0
O266 O 0.962 0.77706 0.33872 0.0
O267 O 0.95099 0.84518 0.29315 0.0
O268 O 0.94942 0.84698 0.37866 0.0
O269 O 0.01396 0.81432 0.29077 0.0
O270 O 0.01529 0.80585 0.37655 0.0
O271 O 0.00329 0.87848 0.34232 0.0
O272 O 0.0173 0.78568 0.3397 0.0
O273 O 0.00651 0.85374 0.292 0.0
O274 O 0.00437 0.85813 0.37926 0.0
O275 O 0.95867 0.80588 0.29015 0.0
O276 O 0.96075 0.79465 0.37699 0.0
O277 O 0.94798 0.87001 0.34348 0.0
Sc278 Sc 0.99206 0.19841 0.81552 0.0
Sc279 Sc 0.99303 0.13618 0.82804 0.0
Sc280 Sc 0.99275 0.17646 0.87928 0.0
O281 O 0.9926 0.1704 0.84093 0.0
C282 C 0.02833 0.21731 0.85776 0.0
C283 C 0.02905 0.16164 0.78886 0.0
C284 C 0.02931 0.13264 0.8756 0.0
C285 C 0.95655 0.16173 0.78881 0.0
C286 C 0.95588 0.21638 0.85973 0.0
C287 C 0.95687 0.13173 0.87518 0.0
O288 O 0.02117 0.21644 0.83467 0.0
O289 O 0.02229 0.14359 0.80208 0.0
O290 O 0.02233 0.15203 0.88601 0.0
O291 O 0.96296 0.18312 0.79372 0.0
O292 O 0.96335 0.20148 0.87648 0.0
O293 O 0.96381 0.1257 0.85288 0.0
O294 O 0.96513 0.21806 0.83737 0.0
O295 O 0.96656 0.14347 0.79897 0.0
O296 O 0.96642 0.14884 0.88754 0.0
O297 O 0.01904 0.1822 0.79056 0.0
O298 O 0.01905 0.20466 0.87564 0.0
O299 O 0.01965 0.12439 0.85544 0.0
Sc300 Sc 0.48655 0.29363 0.3077 0.0
Sc301 Sc 0.47456 0.35571 0.30462 0.0
Sc302 Sc 0.48212 0.32747 0.36426 0.0
O303 O 0.48111 0.32558 0.3255 0.0
C304 C 0.45488 0.27741 0.35553 0.0
C305 C 0.44396 0.3171 0.27458 0.0
C306 C 0.43793 0.36165 0.35202 0.0
C307 C 0.51518 0.3293 0.27082 0.0
C308 C 0.52538 0.29187 0.353 0.0
C309 C 0.5086 0.37634 0.34767 0.0
O310 O 0.46073 0.27523 0.33204 0.0
O311 O 0.44682 0.33827 0.28296 0.0
O312 O 0.44806 0.34604 0.36626 0.0
O313 O 0.51303 0.30886 0.28166 0.0
O314 O 0.51627 0.30903 0.36577 0.0
O315 O 0.50175 0.37609 0.32446 0.0
O316 O 0.51583 0.28363 0.33276 0.0
O317 O 0.50171 0.34709 0.27634 0.0
O318 O 0.50177 0.36081 0.36415 0.0
O319 O 0.45781 0.29969 0.28053 0.0
O320 O 0.46246 0.2945 0.36934 0.0
O321 O 0.44643 0.36786 0.33026 0.0
Sc322 Sc 0.49112 0.70499 0.81135 0.0
Sc323 Sc 0.49117 0.64271 0.82375 0.0
Sc324 Sc 0.49472 0.6829 0.87491 0.0
O325 O 0.49238 0.67692 0.83664 0.0
C326 C 0.5295 0.72358 0.85164 0.0
C327 C 0.52625 0.66747 0.78306 0.0
C328 C 0.52978 0.63816 0.86922 0.0
C329 C 0.45365 0.66908 0.78638 0.0
C330 C 0.45728 0.72321 0.85742 0.0
C331 C 0.45726 0.63929 0.87276 0.0
O332 O 0.52108 0.7229 0.82904 0.0
O333 O 0.51938 0.6495 0.79636 0.0
O334 O 0.52405 0.65781 0.8799 0.0
O335 O 0.46092 0.69023 0.79097 0.0
O336 O 0.46575 0.70845 0.87375 0.0
O337 O 0.4628 0.63312 0.85008 0.0
O338 O 0.46521 0.72477 0.83448 0.0
O339 O 0.46355 0.6505 0.79598 0.0
O340 O 0.46816 0.65591 0.88462 0.0
O341 O 0.51696 0.68833 0.78531 0.0
O342 O 0.5213 0.7107 0.86991 0.0
O343 O 0.51873 0.63017 0.84976 0.0
C344 C 0.20848 0.31582 0.9384 0.0
C345 C 0.2244 0.32588 0.92021 0.0
C346 C 0.18657 0.3059 0.93076 0.0
C347 C 0.14215 0.30439 0.87853 0.0
H348 H 0.12548 0.24293 0.90925 0.0
C349 C 0.06266 0.24437 0.84471 0.0
C350 C 0.0491 0.23286 0.86411 0.0
C351 C 0.08344 0.25738 0.85082 0.0
C352 C 0.12973 0.26021 0.90072 0.0
H353 H 0.22953 0.33411 0.87985 0.0
H354 H 0.19123 0.31634 0.86641 0.0
H355 H 0.16299 0.26255 0.92118 0.0
H356 H 0.04613 0.227 0.90523 0.0
H357 H 0.08209 0.24978 0.91575 0.0
H358 H 0.10875 0.30186 0.85798 0.0
C359 C 0.19572 0.31632 0.8866 0.0
C360 C 0.15121 0.27145 0.90755 0.0
C361 C 0.21772 0.32625 0.89425 0.0
C362 C 0.05626 0.23538 0.88976 0.0
C363 C 0.07695 0.24836 0.89581 0.0
C364 C 0.12056 0.2931 0.87167 0.0
C365 C 0.18011 0.30574 0.90477 0.0
C366 C 0.15754 0.29375 0.89675 0.0
C367 C 0.09102 0.25907 0.87639 0.0
C368 C 0.11406 0.27101 0.88293 0.0
H369 H 0.21321 0.31503 0.9585 0.0
H370 H 0.17474 0.29817 0.94524 0.0
H371 H 0.14654 0.32164 0.87001 0.0
H372 H 0.05763 0.24281 0.82476 0.0
H373 H 0.09402 0.26538 0.83545 0.0
C374 C 0.82071 0.64362 0.47953 0.0
C375 C 0.80646 0.62722 0.46599 0.0
C376 C 0.83705 0.65853 0.46659 0.0
C377 C 0.85138 0.68441 0.40297 0.0
H378 H 0.91365 0.69633 0.43434 0.0
C379 C 0.92714 0.74249 0.35537 0.0
C380 C 0.93773 0.75944 0.37172 0.0
C381 C 0.9115 0.72489 0.36526 0.0
C382 C 0.8963 0.69323 0.42539 0.0
H383 H 0.79817 0.61355 0.42823 0.0
H384 H 0.82684 0.63959 0.40557 0.0
H385 H 0.88552 0.66838 0.45466 0.0
H386 H 0.94011 0.7711 0.4113 0.0
H387 H 0.91307 0.7406 0.4283 0.0
H388 H 0.86228 0.70949 0.37373 0.0
C389 C 0.82514 0.64111 0.42619 0.0
C390 C 0.88015 0.67729 0.43706 0.0
C391 C 0.80873 0.62621 0.43916 0.0
C392 C 0.93234 0.75837 0.39808 0.0
C393 C 0.91695 0.74076 0.40792 0.0
C394 C 0.86763 0.70034 0.39121 0.0
C395 C 0.8396 0.65733 0.43979 0.0
C396 C 0.85732 0.67303 0.42627 0.0
C397 C 0.90641 0.72379 0.39168 0.0
C398 C 0.89005 0.70525 0.40259 0.0
H399 H 0.81907 0.64512 0.50015 0.0
H400 H 0.84752 0.67119 0.4776 0.0
H401 H 0.83387 0.68164 0.39426 0.0
H402 H 0.93085 0.74283 0.33497 0.0
H403 H 0.90365 0.71196 0.35233 0.0
C404 C 0.81159 0.34038 0.97255 0.0
C405 C 0.80958 0.36476 0.96576 0.0
C406 C 0.82504 0.32464 0.95737 0.0
C407 C 0.87431 0.32381 0.90935 0.0
H408 H 0.85437 0.25752 0.90175 0.0
C409 C 0.93173 0.25429 0.85348 0.0
C410 C 0.936 0.23284 0.86714 0.0
C411 C 0.91416 0.27058 0.86197 0.0
C412 C 0.86016 0.27599 0.9037 0.0
H413 H 0.81953 0.3916 0.93732 0.0
H414 H 0.8429 0.36405 0.91064 0.0
H415 H 0.82752 0.28589 0.92318 0.0
H416 H 0.92443 0.21127 0.89979 0.0
H417 H 0.89386 0.23953 0.9144 0.0
H418 H 0.90711 0.31374 0.89012 0.0
C419 C 0.83442 0.3572 0.92796 0.0
C420 C 0.84483 0.29222 0.91606 0.0
C421 C 0.82103 0.37298 0.94323 0.0
C422 C 0.92173 0.22767 0.88889 0.0
C423 C 0.90405 0.24379 0.89717 0.0
C424 C 0.88958 0.30758 0.89684 0.0
C425 C 0.83672 0.33286 0.93494 0.0
C426 C 0.85195 0.31621 0.91955 0.0
C427 C 0.9003 0.26557 0.88405 0.0
C428 C 0.88289 0.28338 0.8944 0.0
H429 H 0.80328 0.33358 0.98999 0.0
H430 H 0.82681 0.30614 0.96362 0.0
H431 H 0.8805 0.34207 0.91193 0.0
H432 H 0.94242 0.25881 0.83666 0.0
H433 H 0.91152 0.28719 0.8514 0.0
C434 C 0.20032 0.66992 0.42538 0.0
C435 C 0.21537 0.68031 0.4438 0.0
C436 C 0.17994 0.68216 0.41654 0.0
C437 C 0.15295 0.74296 0.41261 0.0
H438 H 0.09427 0.70743 0.39831 0.0
C439 C 0.06071 0.78789 0.39158 0.0
C440 C 0.04786 0.7789 0.37053 0.0
C441 C 0.08152 0.77624 0.40028 0.0
C442 C 0.11061 0.71752 0.40204 0.0
H443 H 0.22085 0.7114 0.46778 0.0
H444 H 0.18486 0.73265 0.45282 0.0
H445 H 0.12963 0.68624 0.41474 0.0
H446 H 0.04686 0.75068 0.34206 0.0
H447 H 0.0831 0.73023 0.35751 0.0
H448 H 0.13358 0.77431 0.40033 0.0
C449 C 0.18908 0.71529 0.44472 0.0
C450 C 0.13089 0.70541 0.41138 0.0
C451 C 0.20962 0.70312 0.45337 0.0
C452 C 0.05635 0.75809 0.3583 0.0
C453 C 0.07699 0.74629 0.36721 0.0
C454 C 0.13257 0.75509 0.40351 0.0
C455 C 0.17404 0.70498 0.42613 0.0
C456 C 0.15234 0.71796 0.41666 0.0
C457 C 0.08971 0.75523 0.38831 0.0
C458 C 0.11127 0.74246 0.39804 0.0
H459 H 0.20458 0.65249 0.41742 0.0
H460 H 0.16903 0.67389 0.40186 0.0
H461 H 0.16928 0.75312 0.41606 0.0
H462 H 0.05472 0.80395 0.40135 0.0
H463 H 0.09094 0.78339 0.4167 0.0
C464 C 0.70586 0.81487 0.93695 0.0
C465 C 0.72464 0.82319 0.92097 0.0
C466 C 0.68328 0.80941 0.92679 0.0
C467 C 0.65494 0.79006 0.86758 0.0
H468 H 0.59575 0.80274 0.90549 0.0
C469 C 0.56247 0.75158 0.83702 0.0
C470 C 0.54988 0.73993 0.85704 0.0
C471 C 0.58231 0.76624 0.84232 0.0
C472 C 0.61213 0.79913 0.89467 0.0
H473 H 0.73424 0.83303 0.8819 0.0
H474 H 0.69469 0.82315 0.86406 0.0
H475 H 0.63367 0.82076 0.9194 0.0
H476 H 0.54788 0.7351 0.89836 0.0
H477 H 0.58242 0.76044 0.90747 0.0
H478 H 0.63355 0.76774 0.84339 0.0
C479 C 0.6976 0.82074 0.88443 0.0
C480 C 0.6338 0.80941 0.90262 0.0
C481 C 0.72022 0.82629 0.89463 0.0
C482 C 0.55719 0.74371 0.88245 0.0
C483 C 0.57686 0.75844 0.88772 0.0
C484 C 0.63325 0.77977 0.85961 0.0
C485 C 0.67896 0.81209 0.90041 0.0
C486 C 0.65553 0.80437 0.88963 0.0
C487 C 0.58976 0.76967 0.86773 0.0
C488 C 0.61179 0.78362 0.87357 0.0
H489 H 0.70879 0.8119 0.95723 0.0
H490 H 0.66942 0.80231 0.9395 0.0
H491 H 0.67145 0.7857 0.8573 0.0
H492 H 0.55728 0.74908 0.81723 0.0
H493 H 0.5919 0.77478 0.82656 0.0
C494 C 0.32286 0.14881 0.48458 0.0
C495 C 0.31381 0.12785 0.47327 0.0
C496 C 0.33843 0.16398 0.47092 0.0
C497 C 0.35771 0.18081 0.40556 0.0
H498 H 0.41324 0.20728 0.44056 0.0
C499 C 0.43066 0.23914 0.35419 0.0
C500 C 0.43867 0.25938 0.36769 0.0
C501 C 0.41574 0.22209 0.36618 0.0
C502 C 0.3977 0.2002 0.43057 0.0
H503 H 0.3142 0.10635 0.43875 0.0
H504 H 0.34128 0.133 0.41484 0.0
H505 H 0.38649 0.17956 0.46324 0.0
H506 H 0.43682 0.27769 0.4043 0.0
H507 H 0.41078 0.24828 0.42488 0.0
H508 H 0.36885 0.20171 0.37294 0.0
C509 C 0.3361 0.13777 0.4342 0.0
C510 C 0.38238 0.18433 0.44357 0.0
C511 C 0.32057 0.12253 0.44789 0.0
C512 C 0.43121 0.26227 0.39331 0.0
C513 C 0.41636 0.2453 0.40522 0.0
C514 C 0.37305 0.19676 0.39253 0.0
C515 C 0.34529 0.15859 0.44562 0.0
C516 C 0.36206 0.17467 0.43132 0.0
C517 C 0.40858 0.22493 0.39189 0.0
C518 C 0.39304 0.20686 0.40502 0.0
H519 H 0.31768 0.15365 0.50392 0.0
H520 H 0.34487 0.18013 0.48009 0.0
H521 H 0.34208 0.17379 0.39568 0.0
H522 H 0.43606 0.23634 0.33445 0.0
H523 H 0.41014 0.20649 0.35546 0.0
C524 C 0.31672 0.84265 0.97928 0.0
C525 C 0.31202 0.86655 0.97203 0.0
C526 C 0.32971 0.82745 0.96308 0.0
C527 C 0.37401 0.82839 0.9102 0.0
H528 H 0.35746 0.7609 0.90596 0.0
C529 C 0.43154 0.76028 0.85212 0.0
C530 C 0.43752 0.73935 0.86595 0.0
C531 C 0.4138 0.77604 0.86142 0.0
C532 C 0.3623 0.77971 0.90695 0.0
H533 H 0.31677 0.89303 0.94174 0.0
H534 H 0.33955 0.86645 0.91341 0.0
H535 H 0.33082 0.78822 0.92916 0.0
H536 H 0.42889 0.71815 0.8999 0.0
H537 H 0.39822 0.74546 0.91594 0.0
H538 H 0.40579 0.8197 0.88842 0.0
C539 C 0.33342 0.85959 0.93181 0.0
C540 C 0.34709 0.79534 0.92029 0.0
C541 C 0.3204 0.87482 0.94804 0.0
C542 C 0.42489 0.73417 0.8888 0.0
C543 C 0.4071 0.74974 0.89792 0.0
C544 C 0.38922 0.81274 0.89678 0.0
C545 C 0.33831 0.83576 0.93919 0.0
C546 C 0.35307 0.81975 0.92262 0.0
C547 C 0.40153 0.77097 0.88452 0.0
C548 C 0.38382 0.78813 0.89557 0.0
H549 H 0.31087 0.83583 0.9978 0.0
H550 H 0.33357 0.80934 0.96959 0.0
H551 H 0.37925 0.84705 0.9118 0.0
H552 H 0.44092 0.76478 0.83445 0.0
H553 H 0.40977 0.79223 0.85063 0.0
C554 C 0.71271 0.20551 0.43981 0.0
C555 C 0.71057 0.18062 0.44429 0.0
C556 C 0.6931 0.21875 0.43053 0.0
C557 C 0.64238 0.21473 0.38953 0.0
H558 H 0.61149 0.26548 0.42836 0.0
C559 C 0.55236 0.25618 0.35722 0.0
C560 C 0.54768 0.28041 0.36252 0.0
C561 C 0.57291 0.24493 0.36704 0.0
C562 C 0.62016 0.25171 0.41699 0.0
H563 H 0.68565 0.15047 0.44333 0.0
H564 H 0.65192 0.17353 0.42587 0.0
H565 H 0.64644 0.24444 0.44621 0.0
H566 H 0.56107 0.31213 0.38159 0.0
H567 H 0.59762 0.29285 0.39775 0.0
H568 H 0.61701 0.22229 0.35989 0.0
C569 C 0.66883 0.1826 0.42976 0.0
C570 C 0.64003 0.2396 0.42736 0.0
C571 C 0.68822 0.16943 0.43955 0.0
C572 C 0.56417 0.29334 0.37741 0.0
C573 C 0.58502 0.28222 0.3868 0.0
C574 C 0.62289 0.22715 0.37891 0.0
C575 C 0.6712 0.20728 0.42509 0.0
C576 C 0.651 0.22084 0.41382 0.0
C577 C 0.58956 0.25779 0.38193 0.0
C578 C 0.61126 0.24557 0.39265 0.0
H579 H 0.72969 0.21472 0.44277 0.0
H580 H 0.69524 0.23781 0.42687 0.0
H581 H 0.65086 0.20043 0.37872 0.0
H582 H 0.53979 0.2457 0.34604 0.0
H583 H 0.57541 0.22598 0.36334 0.0
C584 C 0.33413 0.47808 0.92879 0.0
C585 C 0.33693 0.46651 0.95259 0.0
C586 C 0.34079 0.50206 0.92566 0.0
C587 C 0.38389 0.54458 0.9521 0.0
H588 H 0.35558 0.58676 0.9009 0.0
C589 C 0.43538 0.62672 0.91292 0.0
C590 C 0.43767 0.62605 0.88607 0.0
C591 C 0.41817 0.61244 0.9255 0.0
C592 C 0.36355 0.57527 0.91544 0.0
H593 H 0.34724 0.47139 0.99224 0.0
H594 H 0.35884 0.51346 0.9868 0.0
H595 H 0.33303 0.55167 0.916 0.0
H596 H 0.42273 0.61107 0.85129 0.0
H597 H 0.39285 0.58623 0.87319 0.0
H598 H 0.41479 0.56762 0.95076 0.0
C599 C 0.35189 0.50383 0.97046 0.0
C600 C 0.35071 0.55518 0.92403 0.0
C601 C 0.3453 0.47977 0.97356 0.0
C602 C 0.4216 0.6118 0.872 0.0
C603 C 0.40428 0.59778 0.88454 0.0
C604 C 0.39665 0.56476 0.94364 0.0
C605 C 0.35032 0.51505 0.94629 0.0
C606 C 0.3612 0.53903 0.94161 0.0
C607 C 0.40275 0.59753 0.91142 0.0
C608 C 0.38702 0.5797 0.92443 0.0
H609 H 0.32799 0.46827 0.9122 0.0
H610 H 0.33973 0.50995 0.90667 0.0
H611 H 0.39263 0.53245 0.96548 0.0
H612 H 0.44743 0.63759 0.92429 0.0
H613 H 0.41729 0.61261 0.94624 0.0
C614 C 0.66733 0.5109 0.4258 0.0
C615 C 0.66298 0.51557 0.45186 0.0
C616 C 0.64995 0.4991 0.41112 0.0
C617 C 0.58492 0.48122 0.41167 0.0
H618 H 0.60649 0.43157 0.36503 0.0
C619 C 0.5259 0.40167 0.38225 0.0
C620 C 0.52518 0.39545 0.35622 0.0
C621 C 0.54188 0.41919 0.39078 0.0
C622 C 0.60024 0.44564 0.37768 0.0
H623 H 0.63723 0.51134 0.48304 0.0
H624 H 0.60722 0.49041 0.45775 0.0
H625 H 0.6363 0.45699 0.38599 0.0
H626 H 0.54062 0.40276 0.31865 0.0
H627 H 0.56916 0.43318 0.33384 0.0
H628 H 0.54892 0.46896 0.40428 0.0
C629 C 0.62366 0.49642 0.44832 0.0
C630 C 0.61728 0.46025 0.38967 0.0
C631 C 0.64091 0.50835 0.46289 0.0
C632 C 0.54072 0.40726 0.33882 0.0
C633 C 0.55708 0.42455 0.34747 0.0
C634 C 0.56796 0.46644 0.39994 0.0
C635 C 0.62795 0.49158 0.42226 0.0
C636 C 0.60985 0.47787 0.40727 0.0
C637 C 0.55775 0.43065 0.37354 0.0
C638 C 0.57549 0.4482 0.38327 0.0
H639 H 0.68412 0.51647 0.41676 0.0
H640 H 0.65373 0.49593 0.39104 0.0
H641 H 0.5785 0.49499 0.42459 0.0
H642 H 0.51409 0.39299 0.39612 0.0
H643 H 0.54222 0.42339 0.41102 0.0
C644 C 0.6917 0.52927 0.98118 0.0
C645 C 0.69365 0.50485 0.97477 0.0
C646 C 0.67513 0.5442 0.96862 0.0
C647 C 0.61865 0.54133 0.93104 0.0
H648 H 0.63329 0.60785 0.91494 0.0
C649 C 0.55467 0.60048 0.87083 0.0
C650 C 0.54987 0.62368 0.88009 0.0
C651 C 0.57302 0.58645 0.88157 0.0
C652 C 0.62891 0.58935 0.9195 0.0
H653 H 0.6798 0.47713 0.94979 0.0
H654 H 0.6516 0.50328 0.92735 0.0
H655 H 0.66418 0.58244 0.93471 0.0
H656 H 0.56108 0.65046 0.90762 0.0
H657 H 0.59316 0.62588 0.92633 0.0
H658 H 0.58345 0.5482 0.91571 0.0
C659 C 0.66256 0.51082 0.94243 0.0
C660 C 0.64657 0.57479 0.93085 0.0
C661 C 0.67902 0.49588 0.95507 0.0
C662 C 0.5642 0.63265 0.90006 0.0
C663 C 0.58269 0.61865 0.91069 0.0
C664 C 0.60108 0.55582 0.91956 0.0
C665 C 0.66017 0.53509 0.94927 0.0
C666 C 0.64163 0.5506 0.93679 0.0
C667 C 0.58713 0.59531 0.90171 0.0
C668 C 0.606 0.57998 0.91369 0.0
H669 H 0.7029 0.53686 0.99603 0.0
H670 H 0.67365 0.56274 0.97454 0.0
H671 H 0.61402 0.52294 0.93582 0.0
H672 H 0.54408 0.59297 0.85544 0.0
H673 H 0.57622 0.56864 0.87404 0.0
C674 C 0.31348 0.51935 0.41264 0.0
C675 C 0.30597 0.52273 0.43816 0.0
C676 C 0.31931 0.49651 0.40379 0.0
C677 C 0.34552 0.44167 0.42793 0.0
H678 H 0.33651 0.42049 0.35799 0.0
C679 C 0.40556 0.3676 0.38539 0.0
C680 C 0.41577 0.37377 0.36147 0.0
C681 C 0.38582 0.38043 0.3951 0.0
C682 C 0.33914 0.4261 0.37761 0.0
H683 H 0.29697 0.50437 0.4738 0.0
H684 H 0.30787 0.46441 0.4584 0.0
H685 H 0.31185 0.45335 0.37468 0.0
H686 H 0.41241 0.39755 0.3285 0.0
H687 H 0.37855 0.42015 0.34562 0.0
H688 H 0.37382 0.41562 0.43046 0.0
C689 C 0.30927 0.47959 0.44537 0.0
C690 C 0.32496 0.44483 0.38717 0.0
C691 C 0.30318 0.50247 0.4542 0.0
C692 C 0.40512 0.39235 0.34703 0.0
C693 C 0.38547 0.40518 0.35676 0.0
C694 C 0.35978 0.42305 0.41834 0.0
C695 C 0.31797 0.47651 0.42027 0.0
C696 C 0.32869 0.4534 0.41208 0.0
C697 C 0.37589 0.39971 0.38112 0.0
C698 C 0.35742 0.41573 0.39274 0.0
H699 H 0.31624 0.53449 0.39983 0.0
H700 H 0.32635 0.49477 0.38446 0.0
H701 H 0.34896 0.44804 0.44713 0.0
H702 H 0.41312 0.3532 0.39691 0.0
H703 H 0.37865 0.37559 0.41379 0.0
C704 C 0.85497 0.96307 0.97248 0.0
C705 C 0.84625 0.94952 0.9519 0.0
C706 C 0.86132 0.98715 0.96891 0.0
C707 C 0.85689 0.03824 0.92259 0.0
H708 H 0.91977 0.05516 0.94965 0.0
C709 C 0.92289 0.10235 0.87289 0.0
C710 C 0.93769 0.11728 0.88767 0.0
C711 C 0.90667 0.08658 0.88471 0.0
C712 C 0.90192 0.05099 0.94243 0.0
H713 H 0.83694 0.95057 0.9116 0.0
H714 H 0.84838 0.99231 0.90521 0.0
H715 H 0.90055 0.01798 0.96345 0.0
H716 H 0.94617 0.12834 0.9264 0.0
H717 H 0.91797 0.10039 0.94709 0.0
H718 H 0.8591 0.07067 0.90037 0.0
C719 C 0.84981 0.98463 0.92428 0.0
C720 C 0.89088 0.02966 0.95034 0.0
C721 C 0.84336 0.96065 0.92788 0.0
C722 C 0.93506 0.11699 0.9145 0.0
C723 C 0.91899 0.10098 0.92635 0.0
C724 C 0.86803 0.0595 0.91454 0.0
C725 C 0.85918 -0.00192 0.94465 0.0
C726 C 0.86863 0.02263 0.93982 0.0
C727 C 0.90505 0.08527 0.91156 0.0
C728 C 0.89102 0.06564 0.92375 0.0
H729 H 0.857 0.95502 0.99132 0.0
H730 H 0.86819 -0.0029 0.98507 0.0
H731 H 0.83949 0.03358 0.91457 0.0
H732 H 0.92432 0.10231 0.85218 0.0
H733 H 0.89634 0.07451 0.87282 0.0
C734 C 0.14658 0.01644 0.47367 0.0
C735 C 0.17107 0.01242 0.46757 0.0
C736 C 0.12833 0.00427 0.46072 0.0
C737 C 0.11581 0.9677 0.40299 0.0
H738 H 0.06391 0.9421 0.44535 0.0
C739 C 0.03569 0.91339 0.36139 0.0
C740 C 0.0285 0.89301 0.37558 0.0
C741 C 0.05228 0.92968 0.37156 0.0
C742 C 0.07832 0.94903 0.43326 0.0
H743 H 0.19548 0.99317 0.44227 0.0
H744 H 0.16368 0.97137 0.42022 0.0
H745 H 0.09454 0.96745 0.46452 0.0
H746 H 0.03341 0.87372 0.41154 0.0
H747 H 0.06238 0.90181 0.42896 0.0
H748 H 0.09999 0.9484 0.37193 0.0
C749 C 0.15856 0.98416 0.43483 0.0
C750 C 0.09572 0.96385 0.44418 0.0
C751 C 0.17682 0.99642 0.44772 0.0
C752 C 0.03835 0.88928 0.40009 0.0
C753 C 0.05489 0.90549 0.41019 0.0
C754 C 0.09839 0.95279 0.39206 0.0
C755 C 0.13411 0.98768 0.44143 0.0
C756 C 0.11483 0.97317 0.42926 0.0
C757 C 0.06199 0.92593 0.39613 0.0
C758 C 0.07963 0.94303 0.40717 0.0
H759 H 0.14148 0.02847 0.489 0.0
H760 H 0.10967 0.00767 0.46603 0.0
H761 H 0.13013 0.97481 0.3909 0.0
H762 H 0.02847 0.91684 0.34245 0.0
H763 H 0.05725 0.94535 0.36032 0.0
C764 C 0.17769 0.99362 0.96636 0.0
C765 C 0.1929 0.00256 0.98559 0.0
C766 C 0.1615 0.00881 0.95364 0.0
C767 C 0.12773 0.06487 0.96161 0.0
H768 H 0.11947 0.06135 0.88798 0.0
C769 C 0.06322 0.12888 0.90727 0.0
C770 C 0.04937 0.11889 0.8875 0.0
C771 C 0.08195 0.11572 0.91861 0.0
C772 C 0.12135 0.06238 0.90859 0.0
H773 H 0.20339 0.03471 0.00599 0.0
H774 H 0.17478 0.06109 0.98406 0.0
H775 H 0.14991 0.03632 0.90886 0.0
H776 H 0.0444 0.08715 0.8642 0.0
H777 H 0.07656 0.0641 0.88432 0.0
H778 H 0.09883 0.09045 0.96154 0.0
C779 C 0.17532 0.04226 0.97902 0.0
C780 C 0.13885 0.04809 0.92052 0.0
C781 C 0.19165 0.02712 0.99161 0.0
C782 C 0.05476 0.09549 0.87927 0.0
C783 C 0.07335 0.08229 0.89072 0.0
C784 C 0.11011 0.07904 0.94972 0.0
C785 C 0.16001 0.03324 0.95998 0.0
C786 C 0.14212 0.04908 0.94717 0.0
C787 C 0.08716 0.09221 0.91056 0.0
C788 C 0.10658 0.07786 0.92308 0.0
H789 H 0.17785 0.97475 0.96152 0.0
H790 H 0.14969 0.00128 0.93928 0.0
H791 H 0.12965 0.06579 0.98223 0.0
H792 H 0.0597 0.14692 0.91395 0.0
H793 H 0.09245 0.12406 0.93356 0.0
C794 C 0.78761 0.00457 0.4352 0.0
C795 C 0.79965 0.01614 0.45522 0.0
C796 C 0.79452 0.98146 0.42783 0.0
C797 C 0.82671 0.94564 0.40163 0.0
H798 H 0.86415 0.90309 0.44519 0.0
C799 C 0.90949 0.89669 0.36361 0.0
C800 C 0.91719 0.87491 0.37459 0.0
C801 C 0.88939 0.90872 0.37339 0.0
C802 C 0.85337 0.91436 0.43268 0.0
H803 H 0.82736 0.01242 0.48413 0.0
H804 H 0.84027 0.97285 0.47072 0.0
H805 H 0.83685 0.93205 0.4645 0.0
H806 H 0.90915 0.84812 0.40381 0.0
H807 H 0.87353 0.86892 0.42055 0.0
H808 H 0.84283 0.92766 0.36983 0.0
C809 C 0.82494 0.98091 0.46109 0.0
C810 C 0.83794 0.9313 0.4438 0.0
C811 C 0.81766 0.00375 0.46876 0.0
C812 C 0.90381 0.86502 0.3951 0.0
C813 C 0.88344 0.87697 0.40472 0.0
C814 C 0.8417 0.92839 0.39054 0.0
C815 C 0.81407 0.96978 0.4399 0.0
C816 C 0.82542 0.94803 0.42844 0.0
C817 C 0.87617 0.89916 0.3942 0.0
C818 C 0.85624 0.91344 0.4059 0.0
H819 H 0.77346 0.01376 0.42466 0.0
H820 H 0.78524 0.97325 0.41193 0.0
H821 H 0.81748 0.95808 0.389 0.0
H822 H 0.91943 0.90491 0.3479 0.0
H823 H 0.88481 0.92603 0.36514 0.0
C824 C 0.34913 0.30657 0.07468 0.0
C825 C 0.32993 0.32208 0.0683 0.0
C826 C 0.35435 0.30139 0.10027 0.0
C827 C 0.35277 0.33122 0.16077 0.0
H828 H 0.37417 0.27 0.18838 0.0
C829 C 0.40388 0.32787 0.2557 0.0
C830 C 0.42437 0.31293 0.25604 0.0
C831 C 0.38651 0.32548 0.23656 0.0
C832 C 0.36837 0.28726 0.18094 0.0
H833 H 0.29991 0.34266 0.0839 0.0
H834 H 0.3097 0.33428 0.12867 0.0
H835 H 0.35387 0.27153 0.14689 0.0
H836 H 0.4423 0.28314 0.23731 0.0
H837 H 0.41275 0.27969 0.20325 0.0
H838 H 0.36869 0.34735 0.19347 0.0
C839 C 0.32065 0.32622 0.11374 0.0
C840 C 0.3566 0.28806 0.1573 0.0
C841 C 0.31522 0.33115 0.08812 0.0
C842 C 0.42665 0.29488 0.23755 0.0
C843 C 0.40954 0.2928 0.2181 0.0
C844 C 0.36485 0.33049 0.18414 0.0
C845 C 0.34065 0.3118 0.12002 0.0
C846 C 0.34923 0.31013 0.14675 0.0
C847 C 0.38952 0.30844 0.217 0.0
C848 C 0.3734 0.30857 0.19423 0.0
H849 H 0.36104 0.29947 0.06002 0.0
H850 H 0.37006 0.29046 0.10462 0.0
H851 H 0.34756 0.34852 0.15289 0.0
H852 H 0.40146 0.34169 0.27 0.0
H853 H 0.37103 0.33743 0.23674 0.0
C854 C 0.68174 0.59604 0.63483 0.0
C855 C 0.68146 0.60578 0.60988 0.0
C856 C 0.66624 0.60489 0.65375 0.0
C857 C 0.62834 0.65608 0.67288 0.0
H858 H 0.592 0.60746 0.71009 0.0
C859 C 0.54854 0.67831 0.74235 0.0
C860 C 0.54583 0.66345 0.76407 0.0
C861 C 0.56595 0.67294 0.72358 0.0
C862 C 0.60223 0.62132 0.70022 0.0
H863 H 0.66511 0.6331 0.58562 0.0
H864 H 0.63829 0.64881 0.61894 0.0
H865 H 0.6213 0.59541 0.67778 0.0
H866 H 0.56024 0.63221 0.7839 0.0
H867 H 0.59085 0.62336 0.75186 0.0
H868 H 0.60942 0.68202 0.69566 0.0
C869 C 0.65058 0.6343 0.62372 0.0
C870 C 0.61899 0.61437 0.68162 0.0
C871 C 0.66599 0.62531 0.60467 0.0
C872 C 0.56154 0.64378 0.76717 0.0
C873 C 0.57904 0.63861 0.74867 0.0
C874 C 0.61167 0.66308 0.69175 0.0
C875 C 0.65021 0.62382 0.64829 0.0
C876 C 0.63234 0.63163 0.66786 0.0
C877 C 0.58112 0.65275 0.72633 0.0
C878 C 0.59854 0.64574 0.7058 0.0
H879 H 0.6938 0.58138 0.6397 0.0
H880 H 0.66664 0.59675 0.67267 0.0
H881 H 0.63845 0.66976 0.66257 0.0
H882 H 0.53668 0.69359 0.73943 0.0
H883 H 0.56696 0.68415 0.70657 0.0
C884 C 0.68483 0.3653 0.12089 0.0
C885 C 0.68001 0.38558 0.10554 0.0
C886 C 0.66716 0.35627 0.1377 0.0
C887 C 0.60099 0.35872 0.15102 0.0
H888 H 0.61939 0.33845 0.21948 0.0
C889 C 0.5331 0.3529 0.23444 0.0
C890 C 0.53408 0.33279 0.25086 0.0
C891 C 0.55092 0.35663 0.2158 0.0
C892 C 0.61403 0.34374 0.20031 0.0
H893 H 0.65309 0.41257 0.09618 0.0
H894 H 0.6225 0.39711 0.12557 0.0
H895 H 0.65067 0.3501 0.18855 0.0
H896 H 0.55469 0.3008 0.26051 0.0
H897 H 0.58611 0.30756 0.22795 0.0
H898 H 0.56433 0.3531 0.16308 0.0
C899 C 0.63964 0.38772 0.12422 0.0
C900 C 0.63194 0.35038 0.18256 0.0
C901 C 0.65721 0.39664 0.10738 0.0
C902 C 0.55336 0.31644 0.24813 0.0
C903 C 0.5714 0.32035 0.2296 0.0
C904 C 0.58314 0.35227 0.1688 0.0
C905 C 0.64435 0.3674 0.13959 0.0
C906 C 0.62559 0.35837 0.15783 0.0
C907 C 0.5703 0.34047 0.21322 0.0
C908 C 0.58943 0.3451 0.19375 0.0
H909 H 0.70217 0.35626 0.11972 0.0
H910 H 0.67131 0.34044 0.14904 0.0
H911 H 0.59547 0.36422 0.13198 0.0
H912 H 0.51852 0.36585 0.23593 0.0
H913 H 0.54975 0.37245 0.20366 0.0
C914 C 0.31922 0.65654 0.60216 0.0
C915 C 0.32626 0.63554 0.58934 0.0
C916 C 0.32683 0.66062 0.62725 0.0
C917 C 0.35276 0.63178 0.68475 0.0
H918 H 0.38827 0.69133 0.69186 0.0
C919 C 0.4286 0.64304 0.75808 0.0
C920 C 0.43334 0.66579 0.76837 0.0
C921 C 0.41064 0.64012 0.73969 0.0
C922 C 0.37796 0.67487 0.69057 0.0
H923 H 0.3454 0.60173 0.593 0.0
H924 H 0.35856 0.60874 0.63692 0.0
H925 H 0.36447 0.68453 0.65354 0.0
H926 H 0.42201 0.70312 0.76838 0.0
H927 H 0.39025 0.69792 0.73666 0.0
H928 H 0.36653 0.6219 0.72159 0.0
C929 C 0.34724 0.62206 0.62761 0.0
C930 C 0.36435 0.67097 0.66854 0.0
C931 C 0.33992 0.61814 0.60245 0.0
C932 C 0.41903 0.6854 0.76059 0.0
C933 C 0.40086 0.68243 0.74235 0.0
C934 C 0.36615 0.63577 0.70694 0.0
C935 C 0.34128 0.6436 0.64002 0.0
C936 C 0.35221 0.64912 0.6651 0.0
C937 C 0.39677 0.65984 0.73131 0.0
C938 C 0.37954 0.65706 0.70975 0.0
H939 H 0.30877 0.67026 0.59239 0.0
H940 H 0.32193 0.67732 0.63646 0.0
H941 H 0.34331 0.61488 0.68266 0.0
H942 H 0.4393 0.62754 0.76359 0.0
H943 H 0.40833 0.62254 0.73133 0.0
C944 C 0.84393 0.80356 0.08854 0.0
C945 C 0.82666 0.82049 0.08028 0.0
C946 C 0.84952 0.80124 0.11448 0.0
C947 C 0.85468 0.83876 0.16954 0.0
H948 H 0.86903 0.77934 0.20557 0.0
C949 C 0.90871 0.83966 0.26326 0.0
C950 C 0.92684 0.82205 0.26533 0.0
C951 C 0.8908 0.83785 0.24457 0.0
C952 C 0.86523 0.7961 0.19574 0.0
H953 H 0.80029 0.84678 0.09321 0.0
H954 H 0.81086 0.84331 0.13849 0.0
H955 H 0.84702 0.77822 0.16511 0.0
H956 H 0.9401 0.78844 0.24982 0.0
H957 H 0.90964 0.78577 0.21667 0.0
H958 H 0.87425 0.85664 0.19887 0.0
C959 C 0.81999 0.83192 0.12473 0.0
C960 C 0.85247 0.79543 0.17271 0.0
C961 C 0.81412 0.83401 0.0988 0.0
C962 C 0.92633 0.80228 0.24878 0.0
C963 C 0.90867 0.80065 0.22988 0.0
C964 C 0.86773 0.83943 0.19234 0.0
C965 C 0.83819 0.81597 0.13268 0.0
C966 C 0.84765 0.81671 0.1591 0.0
C967 C 0.89085 0.81856 0.22729 0.0
C968 C 0.87379 0.81805 0.20535 0.0
H969 H 0.8542 0.79306 0.07489 0.0
H970 H 0.86384 0.789 0.12008 0.0
H971 H 0.85146 0.85542 0.15925 0.0
H972 H 0.90841 0.85494 0.276 0.0
H973 H 0.87711 0.85174 0.24347 0.0
C974 C 0.19045 0.09563 0.64455 0.0
C975 C 0.18963 0.10476 0.61936 0.0
C976 C 0.17442 0.10399 0.66324 0.0
C977 C 0.13372 0.15332 0.68119 0.0
H978 H 0.0994 0.10347 0.71871 0.0
C979 C 0.0519 0.17285 0.74869 0.0
C980 C 0.04925 0.15812 0.77051 0.0
C981 C 0.06995 0.16797 0.73046 0.0
C982 C 0.10906 0.11768 0.70878 0.0
H983 H 0.17176 0.13055 0.59441 0.0
H984 H 0.14406 0.14548 0.62734 0.0
H985 H 0.12971 0.09244 0.68702 0.0
H986 H 0.06431 0.12764 0.7911 0.0
H987 H 0.09608 0.11969 0.76001 0.0
H988 H 0.11327 0.17861 0.70328 0.0
C989 C 0.15715 0.13179 0.63247 0.0
C990 C 0.1264 0.11131 0.69053 0.0
C991 C 0.17307 0.12326 0.61365 0.0
C992 C 0.0656 0.13909 0.77426 0.0
C993 C 0.08376 0.13444 0.75631 0.0
C994 C 0.1165 0.15974 0.69974 0.0
C995 C 0.15734 0.12185 0.65729 0.0
C996 C 0.13898 0.12902 0.67662 0.0
C997 C 0.08585 0.14843 0.73387 0.0
C998 C 0.10404 0.14197 0.71387 0.0
H999 H 0.20333 0.08179 0.6498 0.0
H1000 H 0.17523 0.0963 0.68235 0.0
H1001 H 0.14324 0.16733 0.67076 0.0
H1002 H 0.03953 0.18762 0.74525 0.0
H1003 H 0.0709 0.17904 0.71334 0.0
C1004 C 0.1758 0.86803 0.11854 0.0
C1005 C 0.18808 0.88985 0.12201 0.0
C1006 C 0.15792 0.86067 0.136 0.0
C1007 C 0.11373 0.88502 0.1808 0.0
H1008 H 0.11305 0.8218 0.21242 0.0
C1009 C 0.0488 0.86346 0.26379 0.0
C1010 C 0.03844 0.84048 0.26541 0.0
C1011 C 0.06725 0.86835 0.24617 0.0
C1012 C 0.11272 0.83939 0.20347 0.0
H1013 H 0.1913 0.92106 0.14632 0.0
H1014 H 0.15987 0.90835 0.17659 0.0
H1015 H 0.14489 0.83217 0.18152 0.0
H1016 H 0.03951 0.80449 0.24988 0.0
H1017 H 0.07128 0.81322 0.21843 0.0
H1018 H 0.08143 0.89227 0.20197 0.0
C1019 C 0.16419 0.89689 0.16049 0.0
C1020 C 0.13103 0.84533 0.18587 0.0
C1021 C 0.18228 0.90406 0.14331 0.0
C1022 C 0.04718 0.82237 0.24914 0.0
C1023 C 0.06548 0.82737 0.2312 0.0
C1024 C 0.0953 0.87902 0.19806 0.0
C1025 C 0.15173 0.87522 0.15693 0.0
C1026 C 0.13186 0.86832 0.17467 0.0
C1027 C 0.07564 0.8505 0.22936 0.0
C1028 C 0.09472 0.85626 0.20997 0.0
H1029 H 0.18002 0.85671 0.10231 0.0
H1030 H 0.1485 0.84392 0.13279 0.0
H1031 H 0.11373 0.90274 0.17208 0.0
H1032 H 0.04277 0.87774 0.2763 0.0
H1033 H 0.07504 0.88618 0.24588 0.0
C1034 C 0.84116 0.11118 0.59902 0.0
C1035 C 0.82996 0.13094 0.58725 0.0
C1036 C 0.85072 0.1132 0.62358 0.0
C1037 C 0.85381 0.153 0.68076 0.0
H1038 H 0.91614 0.1218 0.6889 0.0
C1039 C 0.92545 0.17706 0.75768 0.0
C1040 C 0.93743 0.15766 0.76954 0.0
C1041 C 0.90901 0.17303 0.73788 0.0
C1042 C 0.8986 0.13037 0.68705 0.0
H1043 H 0.81909 0.168 0.59187 0.0
H1044 H 0.83667 0.17197 0.63452 0.0
H1045 H 0.89347 0.11597 0.64978 0.0
H1046 H 0.94051 0.11875 0.77071 0.0
H1047 H 0.91209 0.11191 0.73614 0.0
H1048 H 0.8598 0.1682 0.71789 0.0
C1049 C 0.83758 0.1547 0.62517 0.0
C1050 C 0.8855 0.12695 0.66466 0.0
C1051 C 0.82761 0.15252 0.60073 0.0
C1052 C 0.93183 0.13416 0.76189 0.0
C1053 C 0.91557 0.13018 0.74205 0.0
C1054 C 0.86713 0.15666 0.70313 0.0
C1055 C 0.84975 0.1352 0.63664 0.0
C1056 C 0.86294 0.1382 0.66117 0.0
C1057 C 0.90442 0.14958 0.7295 0.0
C1058 C 0.88964 0.14535 0.70642 0.0
H1059 H 0.84285 0.09427 0.58902 0.0
H1060 H 0.85935 0.09761 0.63208 0.0
H1061 H 0.83638 0.16174 0.67884 0.0
H1062 H 0.92921 0.19538 0.76319 0.0
H1063 H 0.9007 0.18831 0.7284 0.0
loop_
_geom_bond_atom_site_label_1
_geom_bond_atom_site_label_2
_geom_bond_distance
_geom_bond_site_symmetry_2
_ccdc_geom_bond_type
P0 O11 1.490 . S
P0 C14 1.812 1_556 S
P0 C20 1.803 . S
P0 C26 1.819 . S
H1 C15 0.941 . S
H2 C16 0.939 . S
H3 C18 0.940 . S
H4 C19 0.940 . S
H5 C21 0.939 . S
H6 C22 0.942 . S
H7 C24 0.940 1_554 S
H8 C25 0.939 . S
H9 C27 0.941 . S
H10 C31 0.939 . S
O11 P0 1.490 . S
H12 C28 0.939 . S
H13 C30 0.940 . S
C14 P0 1.812 1_554 S
C14 C15 1.389 . S
C14 C19 1.391 . S
C15 H1 0.941 . S
C15 C14 1.389 . S
C15 C16 1.397 . S
C16 H2 0.939 . S
C16 C15 1.397 . S
C16 C17 1.378 . S
C17 C16 1.378 . S
C17 C18 1.378 . S
C18 H3 0.940 . S
C18 C17 1.378 . S
C18 C19 1.396 . S
C19 H4 0.940 . S
C19 C14 1.391 . S
C19 C18 1.396 . S
C20 P0 1.803 . S
C20 C21 1.378 . S
C20 C25 1.400 1_556 S
C21 H5 0.939 . S
C21 C20 1.378 . S
C21 C22 1.361 . S
C22 H6 0.942 . S
C22 C21 1.361 . S
C22 C23 1.369 . S
C23 C22 1.369 . S
C23 C24 1.404 . S
C24 H7 0.940 1_556 S
C24 C23 1.404 . S
C24 C25 1.389 1_556 S
C25 H8 0.939 . S
C25 C20 1.400 1_554 S
C25 C24 1.389 1_554 S
C26 P0 1.819 . S
C26 C27 1.391 . S
C26 C31 1.391 . S
C27 H9 0.941 . S
C27 C26 1.391 . S
C27 C28 1.396 . S
C28 H12 0.939 . S
C28 C27 1.396 . S
C28 C29 1.397 . S
C29 C28 1.397 . S
C29 C30 1.385 . S
C30 H13 0.940 . S
C30 C29 1.385 . S
C30 C31 1.388 . S
C31 H10 0.939 . S
C31 C26 1.391 . S
C31 C30 1.388 . S
P32 O43 1.490 . S
P32 C46 1.812 . S
P32 C52 1.803 . S
P32 C58 1.819 . S
H33 C47 0.941 . S
H34 C48 0.939 . S
H35 C50 0.940 . S
H36 C51 0.940 . S
H37 C53 0.939 . S
H38 C54 0.942 . S
H39 C56 0.940 . S
H40 C57 0.939 . S
H41 C59 0.941 . S
H42 C63 0.939 . S
O43 P32 1.490 . S
H44 C60 0.939 . S
H45 C62 0.940 . S
C46 P32 1.812 . S
C46 C47 1.389 . S
C46 C51 1.391 . S
C47 H33 0.941 . S
C47 C46 1.389 . S
C47 C48 1.397 . S
C48 H34 0.939 . S
C48 C47 1.397 . S
C48 C49 1.378 . S
C49 C48 1.378 . S
C49 C50 1.378 . S
C50 H35 0.940 . S
C50 C49 1.378 . S
C50 C51 1.396 . S
C51 H36 0.940 . S
C51 C46 1.391 . S
C51 C50 1.396 . S
C52 P32 1.803 . S
C52 C53 1.378 . S
C52 C57 1.400 . S
C53 H37 0.939 . S
C53 C52 1.378 . S
C53 C54 1.361 . S
C54 H38 0.942 . S
C54 C53 1.361 . S
C54 C55 1.369 . S
C55 C54 1.369 . S
C55 C56 1.404 . S
C56 H39 0.940 . S
C56 C55 1.404 . S
C56 C57 1.389 . S
C57 H40 0.939 . S
C57 C52 1.400 . S
C57 C56 1.389 . S
C58 P32 1.819 . S
C58 C59 1.391 . S
C58 C63 1.391 . S
C59 H41 0.941 . S
C59 C58 1.391 . S
C59 C60 1.396 . S
C60 H44 0.939 . S
C60 C59 1.396 . S
C60 C61 1.397 . S
C61 C60 1.397 . S
C61 C62 1.385 . S
C62 H45 0.940 . S
C62 C61 1.385 . S
C62 C63 1.388 . S
C63 H42 0.939 . S
C63 C58 1.391 . S
C63 C62 1.388 . S
P64 O75 1.490 . S
P64 C78 1.812 . S
P64 C84 1.803 . S
P64 C90 1.819 . S
H65 C79 0.941 . S
H66 C80 0.939 . S
H67 C82 0.940 . S
H68 C83 0.940 . S
H69 C85 0.935 1_554 S
H70 C86 0.942 . S
H71 C88 0.940 . S
H72 C89 0.939 . S
H73 C91 0.941 . S
H74 C95 0.939 . S
O75 P64 1.490 . S
H76 C92 0.932 1_554 S
H77 C94 0.940 . S
C78 P64 1.812 . S
C78 C79 1.389 . S
C78 C83 1.391 . S
C79 H65 0.941 . S
C79 C78 1.389 . S
C79 C80 1.397 . S
C80 H66 0.939 . S
C80 C79 1.397 . S
C80 C81 1.378 . S
C81 C80 1.378 . S
C81 C82 1.378 . S
C82 H67 0.940 . S
C82 C81 1.378 . S
C82 C83 1.396 . S
C83 H68 0.940 . S
C83 C78 1.391 . S
C83 C82 1.396 . S
C84 P64 1.803 . S
C84 C85 1.368 1_554 S
C84 C89 1.400 . S
C85 H69 0.935 1_556 S
C85 C84 1.368 1_556 S
C85 C86 1.376 . S
C86 H70 0.942 . S
C86 C85 1.376 . S
C86 C87 1.369 . S
C87 C86 1.369 . S
C87 C88 1.404 . S
C88 H71 0.940 . S
C88 C87 1.404 . S
C88 C89 1.389 1_556 S
C89 H72 0.939 . S
C89 C84 1.400 . S
C89 C88 1.389 1_554 S
C90 P64 1.819 . S
C90 C91 1.391 . S
C90 C95 1.391 1_554 S
C91 H73 0.941 . S
C91 C90 1.391 . S
C91 C92 1.396 1_554 S
C92 H76 0.932 1_556 S
C92 C91 1.396 1_556 S
C92 C93 1.397 . S
C93 C92 1.397 . S
C93 C94 1.385 . S
C94 H77 0.940 . S
C94 C93 1.385 . S
C94 C95 1.388 . S
C95 H74 0.939 . S
C95 C90 1.391 1_556 S
C95 C94 1.388 . S
P96 O107 1.490 . S
P96 C110 1.812 . S
P96 C116 1.803 . S
P96 C122 1.819 . S
H97 C111 0.941 . S
H98 C112 0.939 . S
H99 C114 0.940 . S
H100 C115 0.940 . S
H101 C117 0.939 . S
H102 C118 0.942 . S
H103 C120 0.940 . S
H104 C121 0.939 . S
H105 C123 0.941 . S
H106 C127 0.939 . S
O107 P96 1.490 . S
H108 C124 0.939 . S
H109 C126 0.940 . S
C110 P96 1.812 . S
C110 C111 1.389 . S
C110 C115 1.391 . S
C111 H97 0.941 . S
C111 C110 1.389 . S
C111 C112 1.397 . S
C112 H98 0.939 . S
C112 C111 1.397 . S
C112 C113 1.378 . S
C113 C112 1.378 . S
C113 C114 1.378 . S
C114 H99 0.940 . S
C114 C113 1.378 . S
C114 C115 1.396 . S
C115 H100 0.940 . S
C115 C110 1.391 . S
C115 C114 1.396 . S
C116 P96 1.803 . S
C116 C117 1.378 . S
C116 C121 1.400 . S
C117 H101 0.939 . S
C117 C116 1.378 . S
C117 C118 1.361 . S
C118 H102 0.942 . S
C118 C117 1.361 . S
C118 C119 1.369 . S
C119 C118 1.369 . S
C119 C120 1.404 . S
C120 H103 0.940 . S
C120 C119 1.404 . S
C120 C121 1.389 . S
C121 H104 0.939 . S
C121 C116 1.400 . S
C121 C120 1.389 . S
C122 P96 1.819 . S
C122 C123 1.391 . S
C122 C127 1.391 . S
C123 H105 0.941 . S
C123 C122 1.391 . S
C123 C124 1.396 . S
C124 H108 0.939 . S
C124 C123 1.396 . S
C124 C125 1.397 . S
C125 C124 1.397 . S
C125 C126 1.385 . S
C126 H109 0.940 . S
C126 C125 1.385 . S
C126 C127 1.388 . S
C127 H106 0.939 . S
C127 C122 1.391 . S
C127 C126 1.388 . S
P128 O139 1.490 . S
P128 C142 1.812 1_556 S
P128 C148 1.803 . S
P128 C154 1.819 . S
H129 C143 0.941 . S
H130 C144 0.939 . S
H131 C146 0.940 . S
H132 C147 0.940 . S
H133 C149 0.939 . S
H134 C150 0.942 . S
H135 C152 0.940 1_554 S
H136 C153 0.939 . S
H137 C155 0.941 . S
H138 C159 0.939 . S
O139 P128 1.490 . S
H140 C156 0.939 . S
H141 C158 0.940 . S
C142 P128 1.812 1_554 S
C142 C143 1.389 . S
C142 C147 1.391 . S
C143 H129 0.941 . S
C143 C142 1.389 . S
C143 C144 1.397 . S
C144 H130 0.939 . S
C144 C143 1.397 . S
C144 C145 1.378 . S
C145 C144 1.378 . S
C145 C146 1.378 . S
C146 H131 0.940 . S
C146 C145 1.378 . S
C146 C147 1.396 . S
C147 H132 0.940 . S
C147 C142 1.391 . S
C147 C146 1.396 . S
C148 P128 1.803 . S
C148 C149 1.378 . S
C148 C153 1.400 1_556 S
C149 H133 0.939 . S
C149 C148 1.378 . S
C149 C150 1.361 . S
C150 H134 0.942 . S
C150 C149 1.361 . S
C150 C151 1.369 . S
C151 C150 1.369 . S
C151 C152 1.404 . S
C152 H135 0.940 1_556 S
C152 C151 1.404 . S
C152 C153 1.389 1_556 S
C153 H136 0.939 . S
C153 C148 1.400 1_554 S
C153 C152 1.389 1_554 S
C154 P128 1.819 . S
C154 C155 1.391 . S
C154 C159 1.391 . S
C155 H137 0.941 . S
C155 C154 1.391 . S
C155 C156 1.396 . S
C156 H140 0.939 . S
C156 C155 1.396 . S
C156 C157 1.397 . S
C157 C156 1.397 . S
C157 C158 1.385 . S
C158 H141 0.940 . S
C158 C157 1.385 . S
C158 C159 1.388 . S
C159 H138 0.939 . S
C159 C154 1.391 . S
C159 C158 1.388 . S
P160 O171 1.490 . S
P160 C174 1.812 . S
P160 C180 1.803 . S
P160 C186 1.819 . S
H161 C175 0.941 . S
H162 C176 0.939 . S
H163 C178 0.940 . S
H164 C179 0.940 . S
H165 C181 0.939 . S
H166 C182 0.942 . S
H167 C184 0.940 . S
H168 C185 0.939 . S
H169 C187 0.941 . S
H170 C191 0.939 . S
O171 P160 1.490 . S
H172 C188 0.939 . S
H173 C190 0.940 . S
C174 P160 1.812 . S
C174 C175 1.389 . S
C174 C179 1.391 . S
C175 H161 0.941 . S
C175 C174 1.389 . S
C175 C176 1.397 . S
C176 H162 0.939 . S
C176 C175 1.397 . S
C176 C177 1.378 . S
C177 C176 1.378 . S
C177 C178 1.378 . S
C178 H163 0.940 . S
C178 C177 1.378 . S
C178 C179 1.396 . S
C179 H164 0.940 . S
C179 C174 1.391 . S
C179 C178 1.396 . S
C180 P160 1.803 . S
C180 C181 1.378 . S
C180 C185 1.400 . S
C181 H165 0.939 . S
C181 C180 1.378 . S
C181 C182 1.361 . S
C182 H166 0.942 . S
C182 C181 1.361 . S
C182 C183 1.369 . S
C183 C182 1.369 . S
C183 C184 1.404 . S
C184 H167 0.940 . S
C184 C183 1.404 . S
C184 C185 1.389 . S
C185 H168 0.939 . S
C185 C180 1.400 . S
C185 C184 1.389 . S
C186 P160 1.819 . S
C186 C187 1.391 . S
C186 C191 1.391 . S
C187 H169 0.941 . S
C187 C186 1.391 . S
C187 C188 1.396 . S
C188 H172 0.939 . S
C188 C187 1.396 . S
C188 C189 1.397 . S
C189 C188 1.397 . S
C189 C190 1.385 . S
C190 H173 0.940 . S
C190 C189 1.385 . S
C190 C191 1.388 . S
C191 H170 0.939 . S
C191 C186 1.391 . S
C191 C190 1.388 . S
P192 O203 1.490 . S
P192 C206 1.812 . S
P192 C212 1.803 . S
P192 C218 1.819 . S
H193 C207 0.941 . S
H194 C208 0.939 . S
H195 C210 0.940 . S
H196 C211 0.940 . S
H197 C213 0.935 1_554 S
H198 C214 0.942 . S
H199 C216 0.940 . S
H200 C217 0.939 . S
H201 C219 0.941 . S
H202 C223 0.939 . S
O203 P192 1.490 . S
H204 C220 0.932 1_554 S
H205 C222 0.940 . S
C206 P192 1.812 . S
C206 C207 1.389 . S
C206 C211 1.391 . S
C207 H193 0.941 . S
C207 C206 1.389 . S
C207 C208 1.397 . S
C208 H194 0.939 . S
C208 C207 1.397 . S
C208 C209 1.378 . S
C209 C208 1.378 . S
C209 C210 1.378 . S
C210 H195 0.940 . S
C210 C209 1.378 . S
C210 C211 1.396 . S
C211 H196 0.940 . S
C211 C206 1.391 . S
C211 C210 1.396 . S
C212 P192 1.803 . S
C212 C213 1.368 1_554 S
C212 C217 1.400 . S
C213 H197 0.935 1_556 S
C213 C212 1.368 1_556 S
C213 C214 1.376 . S
C214 H198 0.942 . S
C214 C213 1.376 . S
C214 C215 1.369 . S
C215 C214 1.369 . S
C215 C216 1.404 . S
C216 H199 0.940 . S
C216 C215 1.404 . S
C216 C217 1.389 1_556 S
C217 H200 0.939 . S
C217 C212 1.400 . S
C217 C216 1.389 1_554 S
C218 P192 1.819 . S
C218 C219 1.391 . S
C218 C223 1.391 1_554 S
C219 H201 0.941 . S
C219 C218 1.391 . S
C219 C220 1.396 1_554 S
C220 H204 0.932 1_556 S
C220 C219 1.396 1_556 S
C220 C221 1.397 . S
C221 C220 1.397 . S
C221 C222 1.385 . S
C222 H205 0.940 . S
C222 C221 1.385 . S
C222 C223 1.388 . S
C223 H202 0.939 . S
C223 C218 1.391 1_556 S
C223 C222 1.388 . S
P224 O235 1.490 . S
P224 C238 1.812 . S
P224 C244 1.803 . S
P224 C250 1.819 . S
H225 C239 0.941 . S
H226 C240 0.939 . S
H227 C242 0.940 . S
H228 C243 0.940 . S
H229 C245 0.939 . S
H230 C246 0.942 . S
H231 C248 0.940 . S
H232 C249 0.939 . S
H233 C251 0.941 . S
H234 C255 0.939 . S
O235 P224 1.490 . S
H236 C252 0.939 . S
H237 C254 0.940 . S
C238 P224 1.812 . S
C238 C239 1.389 . S
C238 C243 1.391 . S
C239 H225 0.941 . S
C239 C238 1.389 . S
C239 C240 1.397 . S
C240 H226 0.939 . S
C240 C239 1.397 . S
C240 C241 1.378 . S
C241 C240 1.378 . S
C241 C242 1.378 . S
C242 H227 0.940 . S
C242 C241 1.378 . S
C242 C243 1.396 . S
C243 H228 0.940 . S
C243 C238 1.391 . S
C243 C242 1.396 . S
C244 P224 1.803 . S
C244 C245 1.378 . S
C244 C249 1.400 . S
C245 H229 0.939 . S
C245 C244 1.378 . S
C245 C246 1.361 . S
C246 H230 0.942 . S
C246 C245 1.361 . S
C246 C247 1.369 . S
C247 C246 1.369 . S
C247 C248 1.404 . S
C248 H231 0.940 . S
C248 C247 1.404 . S
C248 C249 1.389 . S
C249 H232 0.939 . S
C249 C244 1.400 . S
C249 C248 1.389 . S
C250 P224 1.819 . S
C250 C251 1.391 . S
C250 C255 1.391 . S
C251 H233 0.941 . S
C251 C250 1.391 . S
C251 C252 1.396 . S
C252 H236 0.939 . S
C252 C251 1.396 . S
C252 C253 1.397 . S
C253 C252 1.397 . S
C253 C254 1.385 . S
C254 H237 0.940 . S
C254 C253 1.385 . S
C254 C255 1.388 . S
C255 H234 0.939 . S
C255 C250 1.391 . S
C255 C254 1.388 . S
Sc256 O259 2.025 . S
Sc256 O266 2.105 1_455 S
Sc256 O269 2.105 . S
Sc256 O272 2.105 . S
Sc256 O275 2.105 1_455 S
Sc257 O259 2.025 . S
Sc257 O267 2.105 1_455 S
Sc257 O271 2.105 . S
Sc257 O273 2.105 . S
Sc257 O277 2.105 1_455 S
Sc258 O259 2.025 . S
Sc258 O268 2.105 1_455 S
Sc258 O270 2.105 . S
Sc258 O274 2.105 . S
Sc258 O276 2.105 1_455 S
O259 Sc256 2.025 . S
O259 Sc257 2.025 . S
O259 Sc258 2.025 . S
C260 O266 1.268 . S
C260 O276 1.268 . S
C261 O267 1.268 . S
C261 O275 1.268 . S
C262 O268 1.268 . S
C262 O277 1.268 . S
C263 O269 1.268 . S
C263 O273 1.268 . S
C264 O270 1.268 . S
C264 O272 1.268 . S
C265 O271 1.268 . S
C265 O274 1.268 . S
O266 Sc256 2.105 1_655 S
O266 C260 1.268 . S
O267 Sc257 2.105 1_655 S
O267 C261 1.268 . S
O268 Sc258 2.105 1_655 S
O268 C262 1.268 . S
O269 Sc256 2.105 . S
O269 C263 1.268 . S
O270 Sc258 2.105 . S
O270 C264 1.268 . S
O271 Sc257 2.105 . S
O271 C265 1.268 . S
O272 Sc256 2.105 . S
O272 C264 1.268 . S
O273 Sc257 2.105 . S
O273 C263 1.268 . S
O274 Sc258 2.105 . S
O274 C265 1.268 . S
O275 Sc256 2.105 1_655 S
O275 C261 1.268 . S
O276 Sc258 2.105 1_655 S
O276 C260 1.268 . S
O277 Sc257 2.105 1_655 S
O277 C262 1.268 . S
Sc278 O281 2.025 . S
Sc278 O288 2.105 . S
Sc278 O291 2.105 1_455 S
Sc278 O294 2.105 1_455 S
Sc278 O297 2.105 . S
Sc279 O281 2.025 . S
Sc279 O289 2.105 . S
Sc279 O293 2.105 1_455 S
Sc279 O295 2.105 1_455 S
Sc279 O299 2.105 . S
Sc280 O281 2.025 . S
Sc280 O290 2.105 . S
Sc280 O292 2.105 1_455 S
Sc280 O296 2.105 1_455 S
Sc280 O298 2.105 . S
O281 Sc278 2.025 . S
O281 Sc279 2.025 . S
O281 Sc280 2.025 . S
C282 O288 1.268 . S
C282 O298 1.268 . S
C283 O289 1.268 . S
C283 O297 1.268 . S
C284 O290 1.268 . S
C284 O299 1.268 . S
C285 O291 1.268 . S
C285 O295 1.268 . S
C286 O292 1.268 . S
C286 O294 1.268 . S
C287 O293 1.268 . S
C287 O296 1.268 . S
O288 Sc278 2.105 . S
O288 C282 1.268 . S
O289 Sc279 2.105 . S
O289 C283 1.268 . S
O290 Sc280 2.105 . S
O290 C284 1.268 . S
O291 Sc278 2.105 1_655 S
O291 C285 1.268 . S
O292 Sc280 2.105 1_655 S
O292 C286 1.268 . S
O293 Sc279 2.105 1_655 S
O293 C287 1.268 . S
O294 Sc278 2.105 1_655 S
O294 C286 1.268 . S
O295 Sc279 2.105 1_655 S
O295 C285 1.268 . S
O296 Sc280 2.105 1_655 S
O296 C287 1.268 . S
O297 Sc278 2.105 . S
O297 C283 1.268 . S
O298 Sc280 2.105 . S
O298 C282 1.268 . S
O299 Sc279 2.105 . S
O299 C284 1.268 . S
Sc300 O303 2.025 . S
Sc300 O310 2.105 . S
Sc300 O313 2.105 . S
Sc300 O316 2.105 . S
Sc300 O319 2.105 . S
Sc301 O303 2.025 . S
Sc301 O311 2.105 . S
Sc301 O315 2.105 . S
Sc301 O317 2.105 . S
Sc301 O321 2.105 . S
Sc302 O303 2.025 . S
Sc302 O312 2.105 . S
Sc302 O314 2.105 . S
Sc302 O318 2.105 . S
Sc302 O320 2.105 . S
O303 Sc300 2.025 . S
O303 Sc301 2.025 . S
O303 Sc302 2.025 . S
C304 O310 1.268 . S
C304 O320 1.268 . S
C305 O311 1.268 . S
C305 O319 1.268 . S
C306 O312 1.268 . S
C306 O321 1.268 . S
C307 O313 1.268 . S
C307 O317 1.268 . S
C308 O314 1.268 . S
C308 O316 1.268 . S
C309 O315 1.268 . S
C309 O318 1.268 . S
O310 Sc300 2.105 . S
O310 C304 1.268 . S
O311 Sc301 2.105 . S
O311 C305 1.268 . S
O312 Sc302 2.105 . S
O312 C306 1.268 . S
O313 Sc300 2.105 . S
O313 C307 1.268 . S
O314 Sc302 2.105 . S
O314 C308 1.268 . S
O315 Sc301 2.105 . S
O315 C309 1.268 . S
O316 Sc300 2.105 . S
O316 C308 1.268 . S
O317 Sc301 2.105 . S
O317 C307 1.268 . S
O318 Sc302 2.105 . S
O318 C309 1.268 . S
O319 Sc300 2.105 . S
O319 C305 1.268 . S
O320 Sc302 2.105 . S
O320 C304 1.268 . S
O321 Sc301 2.105 . S
O321 C306 1.268 . S
Sc322 O325 2.025 . S
Sc322 O332 2.105 . S
Sc322 O335 2.105 . S
Sc322 O338 2.105 . S
Sc322 O341 2.105 . S
Sc323 O325 2.025 . S
Sc323 O333 2.105 . S
Sc323 O337 2.105 . S
Sc323 O339 2.105 . S
Sc323 O343 2.105 . S
Sc324 O325 2.025 . S
Sc324 O334 2.105 . S
Sc324 O336 2.105 . S
Sc324 O340 2.105 . S
Sc324 O342 2.105 . S
O325 Sc322 2.025 . S
O325 Sc323 2.025 . S
O325 Sc324 2.025 . S
C326 O332 1.268 . S
C326 O342 1.268 . S
C327 O333 1.268 . S
C327 O341 1.268 . S
C328 O334 1.268 . S
C328 O343 1.268 . S
C329 O335 1.268 . S
C329 O339 1.268 . S
C330 O336 1.268 . S
C330 O338 1.268 . S
C331 O337 1.268 . S
C331 O340 1.268 . S
O332 Sc322 2.105 . S
O332 C326 1.268 . S
O333 Sc323 2.105 . S
O333 C327 1.268 . S
O334 Sc324 2.105 . S
O334 C328 1.268 . S
O335 Sc322 2.105 . S
O335 C329 1.268 . S
O336 Sc324 2.105 . S
O336 C330 1.268 . S
O337 Sc323 2.105 . S
O337 C331 1.268 . S
O338 Sc322 2.105 . S
O338 C330 1.268 . S
O339 Sc323 2.105 . S
O339 C329 1.268 . S
O340 Sc324 2.105 . S
O340 C331 1.268 . S
O341 Sc322 2.105 . S
O341 C327 1.268 . S
O342 Sc324 2.105 . S
O342 C326 1.268 . S
O343 Sc323 2.105 . S
O343 C328 1.268 . S
C344 C345 1.349 . S
C344 C346 1.327 . S
C344 H369 0.950 . S
C345 C344 1.349 . S
C345 C361 1.349 . S
C346 C344 1.327 . S
C346 C365 1.429 . S
C346 H370 0.950 . S
C347 C364 1.574 . S
C347 C366 1.368 . S
C347 H371 0.949 . S
H348 C352 0.949 . S
C349 C350 1.349 . S
C349 C351 1.327 . S
C349 H372 0.950 . S
C350 C349 1.349 . S
C350 C362 1.349 . S
C351 C349 1.327 . S
C351 C367 1.429 . S
C351 H373 0.950 . S
C352 H348 0.949 . S
C352 C360 1.574 . S
C352 C368 1.368 . S
H353 C361 0.950 . S
H354 C359 0.950 . S
H355 C360 0.949 . S
H356 C362 0.950 . S
H357 C363 0.950 . S
H358 C364 0.949 . S
C359 H354 0.950 . S
C359 C361 1.327 . S
C359 C365 1.429 . S
C360 C352 1.574 . S
C360 H355 0.949 . S
C360 C366 1.368 . S
C361 C345 1.349 . S
C361 H353 0.950 . S
C361 C359 1.327 . S
C362 C350 1.349 . S
C362 H356 0.950 . S
C362 C363 1.327 . S
C363 H357 0.950 . S
C363 C362 1.327 . S
C363 C367 1.429 . S
C364 C347 1.574 . S
C364 H358 0.949 . S
C364 C368 1.368 . S
C365 C346 1.429 . S
C365 C359 1.429 . S
C365 C366 1.523 . S
C366 C347 1.368 . S
C366 C360 1.368 . S
C366 C365 1.523 . S
C367 C351 1.429 . S
C367 C363 1.429 . S
C367 C368 1.523 . S
C368 C352 1.368 . S
C368 C364 1.368 . S
C368 C367 1.523 . S
H369 C344 0.950 . S
H370 C346 0.950 . S
H371 C347 0.949 . S
H372 C349 0.950 . S
H373 C351 0.950 . S
C374 C375 1.349 . S
C374 C376 1.327 . S
C374 H399 0.950 . S
C375 C374 1.349 . S
C375 C391 1.349 . S
C376 C374 1.327 . S
C376 C395 1.429 . S
C376 H400 0.950 . S
C377 C394 1.574 . S
C377 C396 1.368 . S
C377 H401 0.949 . S
H378 C382 0.949 . S
C379 C380 1.349 . S
C379 C381 1.327 . S
C379 H402 0.950 . S
C380 C379 1.349 . S
C380 C392 1.349 . S
C381 C379 1.327 . S
C381 C397 1.429 . S
C381 H403 0.950 . S
C382 H378 0.949 . S
C382 C390 1.574 . S
C382 C398 1.368 . S
H383 C391 0.950 . S
H384 C389 0.950 . S
H385 C390 0.949 . S
H386 C392 0.950 . S
H387 C393 0.950 . S
H388 C394 0.949 . S
C389 H384 0.950 . S
C389 C391 1.327 . S
C389 C395 1.429 . S
C390 C382 1.574 . S
C390 H385 0.949 . S
C390 C396 1.368 . S
C391 C375 1.349 . S
C391 H383 0.950 . S
C391 C389 1.327 . S
C392 C380 1.349 . S
C392 H386 0.950 . S
C392 C393 1.327 . S
C393 H387 0.950 . S
C393 C392 1.327 . S
C393 C397 1.429 . S
C394 C377 1.574 . S
C394 H388 0.949 . S
C394 C398 1.368 . S
C395 C376 1.429 . S
C395 C389 1.429 . S
C395 C396 1.523 . S
C396 C377 1.368 . S
C396 C390 1.368 . S
C396 C395 1.523 . S
C397 C381 1.429 . S
C397 C393 1.429 . S
C397 C398 1.523 . S
C398 C382 1.368 . S
C398 C394 1.368 . S
C398 C397 1.523 . S
H399 C374 0.950 . S
H400 C376 0.950 . S
H401 C377 0.949 . S
H402 C379 0.950 . S
H403 C381 0.950 . S
C404 C405 1.349 . S
C404 C406 1.327 . S
C404 H429 0.950 . S
C405 C404 1.349 . S
C405 C421 1.349 . S
C406 C404 1.327 . S
C406 C425 1.429 . S
C406 H430 0.950 . S
C407 C424 1.574 . S
C407 C426 1.368 . S
C407 H431 0.949 . S
H408 C412 0.949 . S
C409 C410 1.349 . S
C409 C411 1.327 . S
C409 H432 0.950 . S
C410 C409 1.349 . S
C410 C422 1.349 . S
C411 C409 1.327 . S
C411 C427 1.429 . S
C411 H433 0.950 . S
C412 H408 0.949 . S
C412 C420 1.574 . S
C412 C428 1.368 . S
H413 C421 0.950 . S
H414 C419 0.950 . S
H415 C420 0.949 . S
H416 C422 0.950 . S
H417 C423 0.950 . S
H418 C424 0.949 . S
C419 H414 0.950 . S
C419 C421 1.327 . S
C419 C425 1.429 . S
C420 C412 1.574 . S
C420 H415 0.949 . S
C420 C426 1.368 . S
C421 C405 1.349 . S
C421 H413 0.950 . S
C421 C419 1.327 . S
C422 C410 1.349 . S
C422 H416 0.950 . S
C422 C423 1.327 . S
C423 H417 0.950 . S
C423 C422 1.327 . S
C423 C427 1.429 . S
C424 C407 1.574 . S
C424 H418 0.949 . S
C424 C428 1.368 . S
C425 C406 1.429 . S
C425 C419 1.429 . S
C425 C426 1.523 . S
C426 C407 1.368 . S
C426 C420 1.368 . S
C426 C425 1.523 . S
C427 C411 1.429 . S
C427 C423 1.429 . S
C427 C428 1.523 . S
C428 C412 1.368 . S
C428 C424 1.368 . S
C428 C427 1.523 . S
H429 C404 0.950 . S
H430 C406 0.950 . S
H431 C407 0.949 . S
H432 C409 0.950 . S
H433 C411 0.950 . S
C434 C435 1.349 . S
C434 C436 1.327 . S
C434 H459 0.950 . S
C435 C434 1.349 . S
C435 C451 1.349 . S
C436 C434 1.327 . S
C436 C455 1.429 . S
C436 H460 0.950 . S
C437 C454 1.574 . S
C437 C456 1.368 . S
C437 H461 0.949 . S
H438 C442 0.949 . S
C439 C440 1.349 . S
C439 C441 1.327 . S
C439 H462 0.950 . S
C440 C439 1.349 . S
C440 C452 1.349 . S
C441 C439 1.327 . S
C441 C457 1.429 . S
C441 H463 0.950 . S
C442 H438 0.949 . S
C442 C450 1.574 . S
C442 C458 1.368 . S
H443 C451 0.950 . S
H444 C449 0.950 . S
H445 C450 0.949 . S
H446 C452 0.950 . S
H447 C453 0.950 . S
H448 C454 0.949 . S
C449 H444 0.950 . S
C449 C451 1.327 . S
C449 C455 1.429 . S
C450 C442 1.574 . S
C450 H445 0.949 . S
C450 C456 1.368 . S
C451 C435 1.349 . S
C451 H443 0.950 . S
C451 C449 1.327 . S
C452 C440 1.349 . S
C452 H446 0.950 . S
C452 C453 1.327 . S
C453 H447 0.950 . S
C453 C452 1.327 . S
C453 C457 1.429 . S
C454 C437 1.574 . S
C454 H448 0.949 . S
C454 C458 1.368 . S
C455 C436 1.429 . S
C455 C449 1.429 . S
C455 C456 1.523 . S
C456 C437 1.368 . S
C456 C450 1.368 . S
C456 C455 1.523 . S
C457 C441 1.429 . S
C457 C453 1.429 . S
C457 C458 1.523 . S
C458 C442 1.368 . S
C458 C454 1.368 . S
C458 C457 1.523 . S
H459 C434 0.950 . S
H460 C436 0.950 . S
H461 C437 0.949 . S
H462 C439 0.950 . S
H463 C441 0.950 . S
C464 C465 1.349 . S
C464 C466 1.327 . S
C464 H489 0.950 . S
C465 C464 1.349 . S
C465 C481 1.349 . S
C466 C464 1.327 . S
C466 C485 1.429 . S
C466 H490 0.950 . S
C467 C484 1.574 . S
C467 C486 1.368 . S
C467 H491 0.949 . S
H468 C472 0.949 . S
C469 C470 1.349 . S
C469 C471 1.327 . S
C469 H492 0.950 . S
C470 C469 1.349 . S
C470 C482 1.349 . S
C471 C469 1.327 . S
C471 C487 1.429 . S
C471 H493 0.950 . S
C472 H468 0.949 . S
C472 C480 1.574 . S
C472 C488 1.368 . S
H473 C481 0.950 . S
H474 C479 0.950 . S
H475 C480 0.949 . S
H476 C482 0.950 . S
H477 C483 0.950 . S
H478 C484 0.949 . S
C479 H474 0.950 . S
C479 C481 1.327 . S
C479 C485 1.429 . S
C480 C472 1.574 . S
C480 H475 0.949 . S
C480 C486 1.368 . S
C481 C465 1.349 . S
C481 H473 0.950 . S
C481 C479 1.327 . S
C482 C470 1.349 . S
C482 H476 0.950 . S
C482 C483 1.327 . S
C483 H477 0.950 . S
C483 C482 1.327 . S
C483 C487 1.429 . S
C484 C467 1.574 . S
C484 H478 0.949 . S
C484 C488 1.368 . S
C485 C466 1.429 . S
C485 C479 1.429 . S
C485 C486 1.523 . S
C486 C467 1.368 . S
C486 C480 1.368 . S
C486 C485 1.523 . S
C487 C471 1.429 . S
C487 C483 1.429 . S
C487 C488 1.523 . S
C488 C472 1.368 . S
C488 C484 1.368 . S
C488 C487 1.523 . S
H489 C464 0.950 . S
H490 C466 0.950 . S
H491 C467 0.949 . S
H492 C469 0.950 . S
H493 C471 0.950 . S
C494 C495 1.349 . S
C494 C496 1.327 . S
C494 H519 0.950 . S
C495 C494 1.349 . S
C495 C511 1.349 . S
C496 C494 1.327 . S
C496 C515 1.429 . S
C496 H520 0.950 . S
C497 C514 1.574 . S
C497 C516 1.368 . S
C497 H521 0.949 . S
H498 C502 0.949 . S
C499 C500 1.349 . S
C499 C501 1.327 . S
C499 H522 0.950 . S
C500 C499 1.349 . S
C500 C512 1.349 . S
C501 C499 1.327 . S
C501 C517 1.429 . S
C501 H523 0.950 . S
C502 H498 0.949 . S
C502 C510 1.574 . S
C502 C518 1.368 . S
H503 C511 0.950 . S
H504 C509 0.950 . S
H505 C510 0.949 . S
H506 C512 0.950 . S
H507 C513 0.950 . S
H508 C514 0.949 . S
C509 H504 0.950 . S
C509 C511 1.327 . S
C509 C515 1.429 . S
C510 C502 1.574 . S
C510 H505 0.949 . S
C510 C516 1.368 . S
C511 C495 1.349 . S
C511 H503 0.950 . S
C511 C509 1.327 . S
C512 C500 1.349 . S
C512 H506 0.950 . S
C512 C513 1.327 . S
C513 H507 0.950 . S
C513 C512 1.327 . S
C513 C517 1.429 . S
C514 C497 1.574 . S
C514 H508 0.949 . S
C514 C518 1.368 . S
C515 C496 1.429 . S
C515 C509 1.429 . S
C515 C516 1.523 . S
C516 C497 1.368 . S
C516 C510 1.368 . S
C516 C515 1.523 . S
C517 C501 1.429 . S
C517 C513 1.429 . S
C517 C518 1.523 . S
C518 C502 1.368 . S
C518 C514 1.368 . S
C518 C517 1.523 . S
H519 C494 0.950 . S
H520 C496 0.950 . S
H521 C497 0.949 . S
H522 C499 0.950 . S
H523 C501 0.950 . S
C524 C525 1.349 . S
C524 C526 1.327 . S
C524 H549 0.950 . S
C525 C524 1.349 . S
C525 C541 1.349 . S
C526 C524 1.327 . S
C526 C545 1.429 . S
C526 H550 0.950 . S
C527 C544 1.574 . S
C527 C546 1.368 . S
C527 H551 0.949 . S
H528 C532 0.949 . S
C529 C530 1.349 . S
C529 C531 1.327 . S
C529 H552 0.950 . S
C530 C529 1.349 . S
C530 C542 1.349 . S
C531 C529 1.327 . S
C531 C547 1.429 . S
C531 H553 0.950 . S
C532 H528 0.949 . S
C532 C540 1.574 . S
C532 C548 1.368 . S
H533 C541 0.950 . S
H534 C539 0.950 . S
H535 C540 0.949 . S
H536 C542 0.950 . S
H537 C543 0.950 . S
H538 C544 0.949 . S
C539 H534 0.950 . S
C539 C541 1.327 . S
C539 C545 1.429 . S
C540 C532 1.574 . S
C540 H535 0.949 . S
C540 C546 1.368 . S
C541 C525 1.349 . S
C541 H533 0.950 . S
C541 C539 1.327 . S
C542 C530 1.349 . S
C542 H536 0.950 . S
C542 C543 1.327 . S
C543 H537 0.950 . S
C543 C542 1.327 . S
C543 C547 1.429 . S
C544 C527 1.574 . S
C544 H538 0.949 . S
C544 C548 1.368 . S
C545 C526 1.429 . S
C545 C539 1.429 . S
C545 C546 1.523 . S
C546 C527 1.368 . S
C546 C540 1.368 . S
C546 C545 1.523 . S
C547 C531 1.429 . S
C547 C543 1.429 . S
C547 C548 1.523 . S
C548 C532 1.368 . S
C548 C544 1.368 . S
C548 C547 1.523 . S
H549 C524 0.950 . S
H550 C526 0.950 . S
H551 C527 0.949 . S
H552 C529 0.950 . S
H553 C531 0.950 . S
C554 C555 1.349 . S
C554 C556 1.327 . S
C554 H579 0.950 . S
C555 C554 1.349 . S
C555 C571 1.349 . S
C556 C554 1.327 . S
C556 C575 1.429 . S
C556 H580 0.950 . S
C557 C574 1.574 . S
C557 C576 1.368 . S
C557 H581 0.949 . S
H558 C562 0.949 . S
C559 C560 1.349 . S
C559 C561 1.327 . S
C559 H582 0.950 . S
C560 C559 1.349 . S
C560 C572 1.349 . S
C561 C559 1.327 . S
C561 C577 1.429 . S
C561 H583 0.950 . S
C562 H558 0.949 . S
C562 C570 1.574 . S
C562 C578 1.368 . S
H563 C571 0.950 . S
H564 C569 0.950 . S
H565 C570 0.949 . S
H566 C572 0.950 . S
H567 C573 0.950 . S
H568 C574 0.949 . S
C569 H564 0.950 . S
C569 C571 1.327 . S
C569 C575 1.429 . S
C570 C562 1.574 . S
C570 H565 0.949 . S
C570 C576 1.368 . S
C571 C555 1.349 . S
C571 H563 0.950 . S
C571 C569 1.327 . S
C572 C560 1.349 . S
C572 H566 0.950 . S
C572 C573 1.327 . S
C573 H567 0.950 . S
C573 C572 1.327 . S
C573 C577 1.429 . S
C574 C557 1.574 . S
C574 H568 0.949 . S
C574 C578 1.368 . S
C575 C556 1.429 . S
C575 C569 1.429 . S
C575 C576 1.523 . S
C576 C557 1.368 . S
C576 C570 1.368 . S
C576 C575 1.523 . S
C577 C561 1.429 . S
C577 C573 1.429 . S
C577 C578 1.523 . S
C578 C562 1.368 . S
C578 C574 1.368 . S
C578 C577 1.523 . S
H579 C554 0.950 . S
H580 C556 0.950 . S
H581 C557 0.949 . S
H582 C559 0.950 . S
H583 C561 0.950 . S
C584 C585 1.349 . S
C584 C586 1.327 . S
C584 H609 0.950 . S
C585 C584 1.349 . S
C585 C601 1.349 . S
C586 C584 1.327 . S
C586 C605 1.429 . S
C586 H610 0.950 . S
C587 C604 1.574 . S
C587 C606 1.368 . S
C587 H611 0.949 . S
H588 C592 0.949 . S
C589 C590 1.349 . S
C589 C591 1.327 . S
C589 H612 0.950 . S
C590 C589 1.349 . S
C590 C602 1.349 . S
C591 C589 1.327 . S
C591 C607 1.429 . S
C591 H613 0.950 . S
C592 H588 0.949 . S
C592 C600 1.574 . S
C592 C608 1.368 . S
H593 C601 0.950 . S
H594 C599 0.950 . S
H595 C600 0.949 . S
H596 C602 0.950 . S
H597 C603 0.950 . S
H598 C604 0.949 . S
C599 H594 0.950 . S
C599 C601 1.327 . S
C599 C605 1.429 . S
C600 C592 1.574 . S
C600 H595 0.949 . S
C600 C606 1.368 . S
C601 C585 1.349 . S
C601 H593 0.950 . S
C601 C599 1.327 . S
C602 C590 1.349 . S
C602 H596 0.950 . S
C602 C603 1.327 . S
C603 H597 0.950 . S
C603 C602 1.327 . S
C603 C607 1.429 . S
C604 C587 1.574 . S
C604 H598 0.949 . S
C604 C608 1.368 . S
C605 C586 1.429 . S
C605 C599 1.429 . S
C605 C606 1.523 . S
C606 C587 1.368 . S
C606 C600 1.368 . S
C606 C605 1.523 . S
C607 C591 1.429 . S
C607 C603 1.429 . S
C607 C608 1.523 . S
C608 C592 1.368 . S
C608 C604 1.368 . S
C608 C607 1.523 . S
H609 C584 0.950 . S
H610 C586 0.950 . S
H611 C587 0.949 . S
H612 C589 0.950 . S
H613 C591 0.950 . S
C614 C615 1.349 . S
C614 C616 1.327 . S
C614 H639 0.950 . S
C615 C614 1.349 . S
C615 C631 1.349 . S
C616 C614 1.327 . S
C616 C635 1.429 . S
C616 H640 0.950 . S
C617 C634 1.574 . S
C617 C636 1.368 . S
C617 H641 0.949 . S
H618 C622 0.949 . S
C619 C620 1.349 . S
C619 C621 1.327 . S
C619 H642 0.950 . S
C620 C619 1.349 . S
C620 C632 1.349 . S
C621 C619 1.327 . S
C621 C637 1.429 . S
C621 H643 0.950 . S
C622 H618 0.949 . S
C622 C630 1.574 . S
C622 C638 1.368 . S
H623 C631 0.950 . S
H624 C629 0.950 . S
H625 C630 0.949 . S
H626 C632 0.950 . S
H627 C633 0.950 . S
H628 C634 0.949 . S
C629 H624 0.950 . S
C629 C631 1.327 . S
C629 C635 1.429 . S
C630 C622 1.574 . S
C630 H625 0.949 . S
C630 C636 1.368 . S
C631 C615 1.349 . S
C631 H623 0.950 . S
C631 C629 1.327 . S
C632 C620 1.349 . S
C632 H626 0.950 . S
C632 C633 1.327 . S
C633 H627 0.950 . S
C633 C632 1.327 . S
C633 C637 1.429 . S
C634 C617 1.574 . S
C634 H628 0.949 . S
C634 C638 1.368 . S
C635 C616 1.429 . S
C635 C629 1.429 . S
C635 C636 1.523 . S
C636 C617 1.368 . S
C636 C630 1.368 . S
C636 C635 1.523 . S
C637 C621 1.429 . S
C637 C633 1.429 . S
C637 C638 1.523 . S
C638 C622 1.368 . S
C638 C634 1.368 . S
C638 C637 1.523 . S
H639 C614 0.950 . S
H640 C616 0.950 . S
H641 C617 0.949 . S
H642 C619 0.950 . S
H643 C621 0.950 . S
C644 C645 1.349 . S
C644 C646 1.327 . S
C644 H669 0.950 . S
C645 C644 1.349 . S
C645 C661 1.349 . S
C646 C644 1.327 . S
C646 C665 1.429 . S
C646 H670 0.950 . S
C647 C664 1.574 . S
C647 C666 1.368 . S
C647 H671 0.949 . S
H648 C652 0.949 . S
C649 C650 1.349 . S
C649 C651 1.327 . S
C649 H672 0.950 . S
C650 C649 1.349 . S
C650 C662 1.349 . S
C651 C649 1.327 . S
C651 C667 1.429 . S
C651 H673 0.950 . S
C652 H648 0.949 . S
C652 C660 1.574 . S
C652 C668 1.368 . S
H653 C661 0.950 . S
H654 C659 0.950 . S
H655 C660 0.949 . S
H656 C662 0.950 . S
H657 C663 0.950 . S
H658 C664 0.949 . S
C659 H654 0.950 . S
C659 C661 1.327 . S
C659 C665 1.429 . S
C660 C652 1.574 . S
C660 H655 0.949 . S
C660 C666 1.368 . S
C661 C645 1.349 . S
C661 H653 0.950 . S
C661 C659 1.327 . S
C662 C650 1.349 . S
C662 H656 0.950 . S
C662 C663 1.327 . S
C663 H657 0.950 . S
C663 C662 1.327 . S
C663 C667 1.429 . S
C664 C647 1.574 . S
C664 H658 0.949 . S
C664 C668 1.368 . S
C665 C646 1.429 . S
C665 C659 1.429 . S
C665 C666 1.523 . S
C666 C647 1.368 . S
C666 C660 1.368 . S
C666 C665 1.523 . S
C667 C651 1.429 . S
C667 C663 1.429 . S
C667 C668 1.523 . S
C668 C652 1.368 . S
C668 C664 1.368 . S
C668 C667 1.523 . S
H669 C644 0.950 . S
H670 C646 0.950 . S
H671 C647 0.949 . S
H672 C649 0.950 . S
H673 C651 0.950 . S
C674 C675 1.349 . S
C674 C676 1.327 . S
C674 H699 0.950 . S
C675 C674 1.349 . S
C675 C691 1.349 . S
C676 C674 1.327 . S
C676 C695 1.429 . S
C676 H700 0.950 . S
C677 C694 1.574 . S
C677 C696 1.368 . S
C677 H701 0.949 . S
H678 C682 0.949 . S
C679 C680 1.349 . S
C679 C681 1.327 . S
C679 H702 0.950 . S
C680 C679 1.349 . S
C680 C692 1.349 . S
C681 C679 1.327 . S
C681 C697 1.429 . S
C681 H703 0.950 . S
C682 H678 0.949 . S
C682 C690 1.574 . S
C682 C698 1.368 . S
H683 C691 0.950 . S
H684 C689 0.950 . S
H685 C690 0.949 . S
H686 C692 0.950 . S
H687 C693 0.950 . S
H688 C694 0.949 . S
C689 H684 0.950 . S
C689 C691 1.327 . S
C689 C695 1.429 . S
C690 C682 1.574 . S
C690 H685 0.949 . S
C690 C696 1.368 . S
C691 C675 1.349 . S
C691 H683 0.950 . S
C691 C689 1.327 . S
C692 C680 1.349 . S
C692 H686 0.950 . S
C692 C693 1.327 . S
C693 H687 0.950 . S
C693 C692 1.327 . S
C693 C697 1.429 . S
C694 C677 1.574 . S
C694 H688 0.949 . S
C694 C698 1.368 . S
C695 C676 1.429 . S
C695 C689 1.429 . S
C695 C696 1.523 . S
C696 C677 1.368 . S
C696 C690 1.368 . S
C696 C695 1.523 . S
C697 C681 1.429 . S
C697 C693 1.429 . S
C697 C698 1.523 . S
C698 C682 1.368 . S
C698 C694 1.368 . S
C698 C697 1.523 . S
H699 C674 0.950 . S
H700 C676 0.950 . S
H701 C677 0.949 . S
H702 C679 0.950 . S
H703 C681 0.950 . S
C704 C705 1.349 . S
C704 C706 1.327 1_565 S
C704 H729 0.950 . S
C705 C704 1.349 . S
C705 C721 1.349 . S
C706 C704 1.327 1_545 S
C706 C725 1.429 . S
C706 H730 0.950 . S
C707 C724 1.574 . S
C707 C726 1.368 . S
C707 H731 0.949 . S
H708 C712 0.949 . S
C709 C710 1.349 . S
C709 C711 1.327 . S
C709 H732 0.950 . S
C710 C709 1.349 . S
C710 C722 1.349 . S
C711 C709 1.327 . S
C711 C727 1.429 . S
C711 H733 0.950 . S
C712 H708 0.949 . S
C712 C720 1.574 . S
C712 C728 1.368 . S
H713 C721 0.950 . S
H714 C719 0.950 . S
H715 C720 0.949 . S
H716 C722 0.950 . S
H717 C723 0.950 . S
H718 C724 0.949 . S
C719 H714 0.950 . S
C719 C721 1.327 1_545 S
C719 C725 1.429 . S
C720 C712 1.574 . S
C720 H715 0.949 . S
C720 C726 1.368 . S
C721 C705 1.349 . S
C721 H713 0.950 . S
C721 C719 1.327 1_565 S
C722 C710 1.349 . S
C722 H716 0.950 . S
C722 C723 1.327 . S
C723 H717 0.950 . S
C723 C722 1.327 . S
C723 C727 1.429 . S
C724 C707 1.574 . S
C724 H718 0.949 . S
C724 C728 1.368 . S
C725 C706 1.429 . S
C725 C719 1.429 . S
C725 C726 1.523 . S
C726 C707 1.368 . S
C726 C720 1.368 . S
C726 C725 1.523 . S
C727 C711 1.429 . S
C727 C723 1.429 . S
C727 C728 1.523 . S
C728 C712 1.368 . S
C728 C724 1.368 . S
C728 C727 1.523 . S
H729 C704 0.950 . S
H730 C706 0.950 . S
H731 C707 0.949 . S
H732 C709 0.950 . S
H733 C711 0.950 . S
C734 C735 1.349 . S
C734 C736 1.327 1_545 S
C734 H759 0.950 . S
C735 C734 1.349 . S
C735 C751 1.349 . S
C736 C734 1.327 1_565 S
C736 C755 1.429 . S
C736 H760 0.950 . S
C737 C754 1.574 . S
C737 C756 1.368 . S
C737 H761 0.949 . S
H738 C742 0.949 . S
C739 C740 1.349 . S
C739 C741 1.327 . S
C739 H762 0.950 . S
C740 C739 1.349 . S
C740 C752 1.349 . S
C741 C739 1.327 . S
C741 C757 1.429 . S
C741 H763 0.950 . S
C742 H738 0.949 . S
C742 C750 1.574 . S
C742 C758 1.368 . S
H743 C751 0.950 . S
H744 C749 0.950 . S
H745 C750 0.949 . S
H746 C752 0.950 . S
H747 C753 0.950 . S
H748 C754 0.949 . S
C749 H744 0.950 . S
C749 C751 1.327 1_565 S
C749 C755 1.429 . S
C750 C742 1.574 . S
C750 H745 0.949 . S
C750 C756 1.368 . S
C751 C735 1.349 . S
C751 H743 0.950 . S
C751 C749 1.327 1_545 S
C752 C740 1.349 . S
C752 H746 0.950 . S
C752 C753 1.327 . S
C753 H747 0.950 . S
C753 C752 1.327 . S
C753 C757 1.429 . S
C754 C737 1.574 . S
C754 H748 0.949 . S
C754 C758 1.368 . S
C755 C736 1.429 . S
C755 C749 1.429 . S
C755 C756 1.523 . S
C756 C737 1.368 . S
C756 C750 1.368 . S
C756 C755 1.523 . S
C757 C741 1.429 . S
C757 C753 1.429 . S
C757 C758 1.523 . S
C758 C742 1.368 . S
C758 C754 1.368 . S
C758 C757 1.523 . S
H759 C734 0.950 . S
H760 C736 0.950 . S
H761 C737 0.949 . S
H762 C739 0.950 . S
H763 C741 0.950 . S
C764 C765 1.349 . S
C764 C766 1.327 . S
C764 H789 0.950 . S
C765 C764 1.349 . S
C765 C781 1.349 1_565 S
C766 C764 1.327 . S
C766 C785 1.429 1_565 S
C766 H790 0.950 . S
C767 C784 1.574 . S
C767 C786 1.368 . S
C767 H791 0.949 . S
H768 C772 0.949 . S
C769 C770 1.349 . S
C769 C771 1.327 . S
C769 H792 0.950 . S
C770 C769 1.349 . S
C770 C782 1.349 . S
C771 C769 1.327 . S
C771 C787 1.429 . S
C771 H793 0.950 . S
C772 H768 0.949 . S
C772 C780 1.574 . S
C772 C788 1.368 . S
H773 C781 0.950 . S
H774 C779 0.950 . S
H775 C780 0.949 . S
H776 C782 0.950 . S
H777 C783 0.950 . S
H778 C784 0.949 . S
C779 H774 0.950 . S
C779 C781 1.327 . S
C779 C785 1.429 . S
C780 C772 1.574 . S
C780 H775 0.949 . S
C780 C786 1.368 . S
C781 C765 1.349 1_545 S
C781 H773 0.950 . S
C781 C779 1.327 . S
C782 C770 1.349 . S
C782 H776 0.950 . S
C782 C783 1.327 . S
C783 H777 0.950 . S
C783 C782 1.327 . S
C783 C787 1.429 . S
C784 C767 1.574 . S
C784 H778 0.949 . S
C784 C788 1.368 . S
C785 C766 1.429 1_545 S
C785 C779 1.429 . S
C785 C786 1.523 . S
C786 C767 1.368 . S
C786 C780 1.368 . S
C786 C785 1.523 . S
C787 C771 1.429 . S
C787 C783 1.429 . S
C787 C788 1.523 . S
C788 C772 1.368 . S
C788 C784 1.368 . S
C788 C787 1.523 . S
H789 C764 0.950 . S
H790 C766 0.950 . S
H791 C767 0.949 . S
H792 C769 0.950 . S
H793 C771 0.950 . S
C794 C795 1.349 1_565 S
C794 C796 1.327 . S
C794 H819 0.950 . S
C795 C794 1.349 1_545 S
C795 C811 1.349 . S
C796 C794 1.327 . S
C796 C815 1.429 . S
C796 H820 0.950 . S
C797 C814 1.574 . S
C797 C816 1.368 . S
C797 H821 0.949 . S
H798 C802 0.949 . S
C799 C800 1.349 . S
C799 C801 1.327 . S
C799 H822 0.950 . S
C800 C799 1.349 . S
C800 C812 1.349 . S
C801 C799 1.327 . S
C801 C817 1.429 . S
C801 H823 0.950 . S
C802 H798 0.949 . S
C802 C810 1.574 . S
C802 C818 1.368 . S
H803 C811 0.950 . S
H804 C809 0.950 . S
H805 C810 0.949 . S
H806 C812 0.950 . S
H807 C813 0.950 . S
H808 C814 0.949 . S
C809 H804 0.950 . S
C809 C811 1.327 . S
C809 C815 1.429 1_545 S
C810 C802 1.574 . S
C810 H805 0.949 . S
C810 C816 1.368 . S
C811 C795 1.349 . S
C811 H803 0.950 . S
C811 C809 1.327 . S
C812 C800 1.349 . S
C812 H806 0.950 . S
C812 C813 1.327 . S
C813 H807 0.950 . S
C813 C812 1.327 . S
C813 C817 1.429 . S
C814 C797 1.574 . S
C814 H808 0.949 . S
C814 C818 1.368 . S
C815 C796 1.429 . S
C815 C809 1.429 1_565 S
C815 C816 1.523 . S
C816 C797 1.368 . S
C816 C810 1.368 . S
C816 C815 1.523 . S
C817 C801 1.429 . S
C817 C813 1.429 . S
C817 C818 1.523 . S
C818 C802 1.368 . S
C818 C814 1.368 . S
C818 C817 1.523 . S
H819 C794 0.950 . S
H820 C796 0.950 . S
H821 C797 0.949 . S
H822 C799 0.950 . S
H823 C801 0.950 . S
C824 C825 1.349 . S
C824 C826 1.327 . S
C824 H849 0.950 . S
C825 C824 1.349 . S
C825 C841 1.349 . S
C826 C824 1.327 . S
C826 C845 1.429 . S
C826 H850 0.950 . S
C827 C844 1.574 . S
C827 C846 1.368 . S
C827 H851 0.949 . S
H828 C832 0.949 . S
C829 C830 1.349 . S
C829 C831 1.327 . S
C829 H852 0.950 . S
C830 C829 1.349 . S
C830 C842 1.349 . S
C831 C829 1.327 . S
C831 C847 1.429 . S
C831 H853 0.950 . S
C832 H828 0.949 . S
C832 C840 1.574 . S
C832 C848 1.368 . S
H833 C841 0.950 . S
H834 C839 0.950 . S
H835 C840 0.949 . S
H836 C842 0.950 . S
H837 C843 0.950 . S
H838 C844 0.949 . S
C839 H834 0.950 . S
C839 C841 1.327 . S
C839 C845 1.429 . S
C840 C832 1.574 . S
C840 H835 0.949 . S
C840 C846 1.368 . S
C841 C825 1.349 . S
C841 H833 0.950 . S
C841 C839 1.327 . S
C842 C830 1.349 . S
C842 H836 0.950 . S
C842 C843 1.327 . S
C843 H837 0.950 . S
C843 C842 1.327 . S
C843 C847 1.429 . S
C844 C827 1.574 . S
C844 H838 0.949 . S
C844 C848 1.368 . S
C845 C826 1.429 . S
C845 C839 1.429 . S
C845 C846 1.523 . S
C846 C827 1.368 . S
C846 C840 1.368 . S
C846 C845 1.523 . S
C847 C831 1.429 . S
C847 C843 1.429 . S
C847 C848 1.523 . S
C848 C832 1.368 . S
C848 C844 1.368 . S
C848 C847 1.523 . S
H849 C824 0.950 . S
H850 C826 0.950 . S
H851 C827 0.949 . S
H852 C829 0.950 . S
H853 C831 0.950 . S
C854 C855 1.349 . S
C854 C856 1.327 . S
C854 H879 0.950 . S
C855 C854 1.349 . S
C855 C871 1.349 . S
C856 C854 1.327 . S
C856 C875 1.429 . S
C856 H880 0.950 . S
C857 C874 1.574 . S
C857 C876 1.368 . S
C857 H881 0.949 . S
H858 C862 0.949 . S
C859 C860 1.349 . S
C859 C861 1.327 . S
C859 H882 0.950 . S
C860 C859 1.349 . S
C860 C872 1.349 . S
C861 C859 1.327 . S
C861 C877 1.429 . S
C861 H883 0.950 . S
C862 H858 0.949 . S
C862 C870 1.574 . S
C862 C878 1.368 . S
H863 C871 0.950 . S
H864 C869 0.950 . S
H865 C870 0.949 . S
H866 C872 0.950 . S
H867 C873 0.950 . S
H868 C874 0.949 . S
C869 H864 0.950 . S
C869 C871 1.327 . S
C869 C875 1.429 . S
C870 C862 1.574 . S
C870 H865 0.949 . S
C870 C876 1.368 . S
C871 C855 1.349 . S
C871 H863 0.950 . S
C871 C869 1.327 . S
C872 C860 1.349 . S
C872 H866 0.950 . S
C872 C873 1.327 . S
C873 H867 0.950 . S
C873 C872 1.327 . S
C873 C877 1.429 . S
C874 C857 1.574 . S
C874 H868 0.949 . S
C874 C878 1.368 . S
C875 C856 1.429 . S
C875 C869 1.429 . S
C875 C876 1.523 . S
C876 C857 1.368 . S
C876 C870 1.368 . S
C876 C875 1.523 . S
C877 C861 1.429 . S
C877 C873 1.429 . S
C877 C878 1.523 . S
C878 C862 1.368 . S
C878 C874 1.368 . S
C878 C877 1.523 . S
H879 C854 0.950 . S
H880 C856 0.950 . S
H881 C857 0.949 . S
H882 C859 0.950 . S
H883 C861 0.950 . S
C884 C885 1.349 . S
C884 C886 1.327 . S
C884 H909 0.950 . S
C885 C884 1.349 . S
C885 C901 1.349 . S
C886 C884 1.327 . S
C886 C905 1.429 . S
C886 H910 0.950 . S
C887 C904 1.574 . S
C887 C906 1.368 . S
C887 H911 0.949 . S
H888 C892 0.949 . S
C889 C890 1.349 . S
C889 C891 1.327 . S
C889 H912 0.950 . S
C890 C889 1.349 . S
C890 C902 1.349 . S
C891 C889 1.327 . S
C891 C907 1.429 . S
C891 H913 0.950 . S
C892 H888 0.949 . S
C892 C900 1.574 . S
C892 C908 1.368 . S
H893 C901 0.950 . S
H894 C899 0.950 . S
H895 C900 0.949 . S
H896 C902 0.950 . S
H897 C903 0.950 . S
H898 C904 0.949 . S
C899 H894 0.950 . S
C899 C901 1.327 . S
C899 C905 1.429 . S
C900 C892 1.574 . S
C900 H895 0.949 . S
C900 C906 1.368 . S
C901 C885 1.349 . S
C901 H893 0.950 . S
C901 C899 1.327 . S
C902 C890 1.349 . S
C902 H896 0.950 . S
C902 C903 1.327 . S
C903 H897 0.950 . S
C903 C902 1.327 . S
C903 C907 1.429 . S
C904 C887 1.574 . S
C904 H898 0.949 . S
C904 C908 1.368 . S
C905 C886 1.429 . S
C905 C899 1.429 . S
C905 C906 1.523 . S
C906 C887 1.368 . S
C906 C900 1.368 . S
C906 C905 1.523 . S
C907 C891 1.429 . S
C907 C903 1.429 . S
C907 C908 1.523 . S
C908 C892 1.368 . S
C908 C904 1.368 . S
C908 C907 1.523 . S
H909 C884 0.950 . S
H910 C886 0.950 . S
H911 C887 0.949 . S
H912 C889 0.950 . S
H913 C891 0.950 . S
C914 C915 1.349 . S
C914 C916 1.327 . S
C914 H939 0.950 . S
C915 C914 1.349 . S
C915 C931 1.349 . S
C916 C914 1.327 . S
C916 C935 1.429 . S
C916 H940 0.950 . S
C917 C934 1.574 . S
C917 C936 1.368 . S
C917 H941 0.949 . S
H918 C922 0.949 . S
C919 C920 1.349 . S
C919 C921 1.327 . S
C919 H942 0.950 . S
C920 C919 1.349 . S
C920 C932 1.349 . S
C921 C919 1.327 . S
C921 C937 1.429 . S
C921 H943 0.950 . S
C922 H918 0.949 . S
C922 C930 1.574 . S
C922 C938 1.368 . S
H923 C931 0.950 . S
H924 C929 0.950 . S
H925 C930 0.949 . S
H926 C932 0.950 . S
H927 C933 0.950 . S
H928 C934 0.949 . S
C929 H924 0.950 . S
C929 C931 1.327 . S
C929 C935 1.429 . S
C930 C922 1.574 . S
C930 H925 0.949 . S
C930 C936 1.368 . S
C931 C915 1.349 . S
C931 H923 0.950 . S
C931 C929 1.327 . S
C932 C920 1.349 . S
C932 H926 0.950 . S
C932 C933 1.327 . S
C933 H927 0.950 . S
C933 C932 1.327 . S
C933 C937 1.429 . S
C934 C917 1.574 . S
C934 H928 0.949 . S
C934 C938 1.368 . S
C935 C916 1.429 . S
C935 C929 1.429 . S
C935 C936 1.523 . S
C936 C917 1.368 . S
C936 C930 1.368 . S
C936 C935 1.523 . S
C937 C921 1.429 . S
C937 C933 1.429 . S
C937 C938 1.523 . S
C938 C922 1.368 . S
C938 C934 1.368 . S
C938 C937 1.523 . S
H939 C914 0.950 . S
H940 C916 0.950 . S
H941 C917 0.949 . S
H942 C919 0.950 . S
H943 C921 0.950 . S
C944 C945 1.349 . S
C944 C946 1.327 . S
C944 H969 0.950 . S
C945 C944 1.349 . S
C945 C961 1.349 . S
C946 C944 1.327 . S
C946 C965 1.429 . S
C946 H970 0.950 . S
C947 C964 1.574 . S
C947 C966 1.368 . S
C947 H971 0.949 . S
H948 C952 0.949 . S
C949 C950 1.349 . S
C949 C951 1.327 . S
C949 H972 0.950 . S
C950 C949 1.349 . S
C950 C962 1.349 . S
C951 C949 1.327 . S
C951 C967 1.429 . S
C951 H973 0.950 . S
C952 H948 0.949 . S
C952 C960 1.574 . S
C952 C968 1.368 . S
H953 C961 0.950 . S
H954 C959 0.950 . S
H955 C960 0.949 . S
H956 C962 0.950 . S
H957 C963 0.950 . S
H958 C964 0.949 . S
C959 H954 0.950 . S
C959 C961 1.327 . S
C959 C965 1.429 . S
C960 C952 1.574 . S
C960 H955 0.949 . S
C960 C966 1.368 . S
C961 C945 1.349 . S
C961 H953 0.950 . S
C961 C959 1.327 . S
C962 C950 1.349 . S
C962 H956 0.950 . S
C962 C963 1.327 . S
C963 H957 0.950 . S
C963 C962 1.327 . S
C963 C967 1.429 . S
C964 C947 1.574 . S
C964 H958 0.949 . S
C964 C968 1.368 . S
C965 C946 1.429 . S
C965 C959 1.429 . S
C965 C966 1.523 . S
C966 C947 1.368 . S
C966 C960 1.368 . S
C966 C965 1.523 . S
C967 C951 1.429 . S
C967 C963 1.429 . S
C967 C968 1.523 . S
C968 C952 1.368 . S
C968 C964 1.368 . S
C968 C967 1.523 . S
H969 C944 0.950 . S
H970 C946 0.950 . S
H971 C947 0.949 . S
H972 C949 0.950 . S
H973 C951 0.950 . S
C974 C975 1.349 . S
C974 C976 1.327 . S
C974 H999 0.950 . S
C975 C974 1.349 . S
C975 C991 1.349 . S
C976 C974 1.327 . S
C976 C995 1.429 . S
C976 H1000 0.950 . S
C977 C994 1.574 . S
C977 C996 1.368 . S
C977 H1001 0.949 . S
H978 C982 0.949 . S
C979 C980 1.349 . S
C979 C981 1.327 . S
C979 H1002 0.950 . S
C980 C979 1.349 . S
C980 C992 1.349 . S
C981 C979 1.327 . S
C981 C997 1.429 . S
C981 H1003 0.950 . S
C982 H978 0.949 . S
C982 C990 1.574 . S
C982 C998 1.368 . S
H983 C991 0.950 . S
H984 C989 0.950 . S
H985 C990 0.949 . S
H986 C992 0.950 . S
H987 C993 0.950 . S
H988 C994 0.949 . S
C989 H984 0.950 . S
C989 C991 1.327 . S
C989 C995 1.429 . S
C990 C982 1.574 . S
C990 H985 0.949 . S
C990 C996 1.368 . S
C991 C975 1.349 . S
C991 H983 0.950 . S
C991 C989 1.327 . S
C992 C980 1.349 . S
C992 H986 0.950 . S
C992 C993 1.327 . S
C993 H987 0.950 . S
C993 C992 1.327 . S
C993 C997 1.429 . S
C994 C977 1.574 . S
C994 H988 0.949 . S
C994 C998 1.368 . S
C995 C976 1.429 . S
C995 C989 1.429 . S
C995 C996 1.523 . S
C996 C977 1.368 . S
C996 C990 1.368 . S
C996 C995 1.523 . S
C997 C981 1.429 . S
C997 C993 1.429 . S
C997 C998 1.523 . S
C998 C982 1.368 . S
C998 C994 1.368 . S
C998 C997 1.523 . S
H999 C974 0.950 . S
H1000 C976 0.950 . S
H1001 C977 0.949 . S
H1002 C979 0.950 . S
H1003 C981 0.950 . S
C1004 C1005 1.349 . S
C1004 C1006 1.327 . S
C1004 H1029 0.950 . S
C1005 C1004 1.349 . S
C1005 C1021 1.349 . S
C1006 C1004 1.327 . S
C1006 C1025 1.429 . S
C1006 H1030 0.950 . S
C1007 C1024 1.574 . S
C1007 C1026 1.368 . S
C1007 H1031 0.949 . S
H1008 C1012 0.949 . S
C1009 C1010 1.349 . S
C1009 C1011 1.327 . S
C1009 H1032 0.950 . S
C1010 C1009 1.349 . S
C1010 C1022 1.349 . S
C1011 C1009 1.327 . S
C1011 C1027 1.429 . S
C1011 H1033 0.950 . S
C1012 H1008 0.949 . S
C1012 C1020 1.574 . S
C1012 C1028 1.368 . S
H1013 C1021 0.950 . S
H1014 C1019 0.950 . S
H1015 C1020 0.949 . S
H1016 C1022 0.950 . S
H1017 C1023 0.950 . S
H1018 C1024 0.949 . S
C1019 H1014 0.950 . S
C1019 C1021 1.327 . S
C1019 C1025 1.429 . S
C1020 C1012 1.574 . S
C1020 H1015 0.949 . S
C1020 C1026 1.368 . S
C1021 C1005 1.349 . S
C1021 H1013 0.950 . S
C1021 C1019 1.327 . S
C1022 C1010 1.349 . S
C1022 H1016 0.950 . S
C1022 C1023 1.327 . S
C1023 H1017 0.950 . S
C1023 C1022 1.327 . S
C1023 C1027 1.429 . S
C1024 C1007 1.574 . S
C1024 H1018 0.949 . S
C1024 C1028 1.368 . S
C1025 C1006 1.429 . S
C1025 C1019 1.429 . S
C1025 C1026 1.523 . S
C1026 C1007 1.368 . S
C1026 C1020 1.368 . S
C1026 C1025 1.523 . S
C1027 C1011 1.429 . S
C1027 C1023 1.429 . S
C1027 C1028 1.523 . S
C1028 C1012 1.368 . S
C1028 C1024 1.368 . S
C1028 C1027 1.523 . S
H1029 C1004 0.950 . S
H1030 C1006 0.950 . S
H1031 C1007 0.949 . S
H1032 C1009 0.950 . S
H1033 C1011 0.950 . S
C1034 C1035 1.349 . S
C1034 C1036 1.327 . S
C1034 H1059 0.950 . S
C1035 C1034 1.349 . S
C1035 C1051 1.349 . S
C1036 C1034 1.327 . S
C1036 C1055 1.429 . S
C1036 H1060 0.950 . S
C1037 C1054 1.574 . S
C1037 C1056 1.368 . S
C1037 H1061 0.949 . S
H1038 C1042 0.949 . S
C1039 C1040 1.349 . S
C1039 C1041 1.327 . S
C1039 H1062 0.950 . S
C1040 C1039 1.349 . S
C1040 C1052 1.349 . S
C1041 C1039 1.327 . S
C1041 C1057 1.429 . S
C1041 H1063 0.950 . S
C1042 H1038 0.949 . S
C1042 C1050 1.574 . S
C1042 C1058 1.368 . S
H1043 C1051 0.950 . S
H1044 C1049 0.950 . S
H1045 C1050 0.949 . S
H1046 C1052 0.950 . S
H1047 C1053 0.950 . S
H1048 C1054 0.949 . S
C1049 H1044 0.950 . S
C1049 C1051 1.327 . S
C1049 C1055 1.429 . S
C1050 C1042 1.574 . S
C1050 H1045 0.949 . S
C1050 C1056 1.368 . S
C1051 C1035 1.349 . S
C1051 H1043 0.950 . S
C1051 C1049 1.327 . S
C1052 C1040 1.349 . S
C1052 H1046 0.950 . S
C1052 C1053 1.327 . S
C1053 H1047 0.950 . S
C1053 C1052 1.327 . S
C1053 C1057 1.429 . S
C1054 C1037 1.574 . S
C1054 H1048 0.949 . S
C1054 C1058 1.368 . S
C1055 C1036 1.429 . S
C1055 C1049 1.429 . S
C1055 C1056 1.523 . S
C1056 C1037 1.368 . S
C1056 C1050 1.368 . S
C1056 C1055 1.523 . S
C1057 C1041 1.429 . S
C1057 C1053 1.429 . S
C1057 C1058 1.523 . S
C1058 C1042 1.368 . S
C1058 C1054 1.368 . S
C1058 C1057 1.523 . S
H1059 C1034 0.950 . S
H1060 C1036 0.950 . S
H1061 C1037 0.949 . S
H1062 C1039 0.950 . S
H1063 C1041 0.950 . S
C345 C23 1.495 . S
C350 C282 1.525 . S
C380 C260 1.475 . S
C375 C55 1.502 . S
C410 C286 1.529 . S
C405 C87 1.560 . S
C440 C264 1.475 . S
C435 C119 1.434 . S
C470 C326 1.529 . S
C465 C151 1.495 . S
C500 C304 1.475 . S
C495 C183 1.499 . S
C525 C215 1.557 . S
C530 C330 1.529 . S
C560 C308 1.475 . S
C555 C247 1.438 . S
C585 C29 1.484 . S
C590 C331 1.536 . S
C620 C309 1.457 . S
C615 C49 1.471 . S
C645 C93 1.546 . S
C650 C328 1.536 . S
C675 C113 1.420 . S
C680 C306 1.457 . S
C710 C287 1.536 . S
C705 C157 1.486 . S
C735 C177 1.471 . S
C740 C265 1.453 . S
C770 C284 1.536 . S
C765 C221 1.542 . S
C800 C262 1.457 . S
C795 C241 1.422 . S
C830 C305 1.463 . S
C825 C17 1.424 . S
C860 C327 1.459 . S
C855 C61 1.474 . S
C885 C81 1.483 . S
C890 C307 1.463 . S
C920 C329 1.459 . S
C915 C125 1.404 . S
C950 C261 1.463 . S
C945 C145 1.427 . S
C975 C189 1.474 . S
C980 C283 1.455 . S
C1005 C209 1.483 . S
C1010 C263 1.459 . S
C1035 C253 1.404 . S
C1040 C285 1.463 . S
