# Generated by pormake.
# Topology pyr, (3,6)-cn, num edge types: 1
# Building blocks:
#     Node 0, Type 0, BuildingBlock: MIDCAF_clean_linker_0, # of connection points: 3
#     Node 1, Type 0, BuildingBlock: MIDCAF_clean_linker_0, # of connection points: 3
#     Node 2, Type 0, BuildingBlock: MIDCAF_clean_linker_0, # of connection points: 3
#     Node 3, Type 0, BuildingBlock: MIDCAF_clean_linker_0, # of connection points: 3
#     Node 4, Type 0, BuildingBlock: MIDCAF_clean_linker_0, # of connection points: 3
#     Node 5, Type 0, BuildingBlock: MIDCAF_clean_linker_0, # of connection points: 3
#     Node 6, Type 0, BuildingBlock: MIDCAF_clean_linker_0, # of connection points: 3
#     Node 7, Type 0, BuildingBlock: MIDCAF_clean_linker_0, # of connection points: 3
#     Node 8, Type 1, BuildingBlock: LEVNOQ01_clean_sbu_1, # of connection points: 6
#     Node 9, Type 1, BuildingBlock: LEVNOQ01_clean_sbu_1, # of connection points: 6
#     Node 10, Type 1, BuildingBlock: LEVNOQ01_clean_sbu_1, # of connection points: 6
#     Node 11, Type 1, BuildingBlock: LEVNOQ01_clean_sbu_1, # of connection points: 6
#     Edge 12, Type (0, 1), BuildingBlock: XUDNAN_clean_linker_2, # of connection points: 2
#     Edge 13, Type (0, 1), BuildingBlock: XUDNAN_clean_linker_2, # of connection points: 2
#     Edge 14, Type (0, 1), BuildingBlock: XUDNAN_clean_linker_2, # of connection points: 2
#     Edge 15, Type (0, 1), BuildingBlock: XUDNAN_clean_linker_2, # of connection points: 2
#     Edge 16, Type (0, 1), BuildingBlock: XUDNAN_clean_linker_2, # of connection points: 2
#     Edge 17, Type (0, 1), BuildingBlock: XUDNAN_clean_linker_2, # of connection points: 2
#     Edge 18, Type (0, 1), BuildingBlock: XUDNAN_clean_linker_2, # of connection points: 2
#     Edge 19, Type (0, 1), BuildingBlock: XUDNAN_clean_linker_2, # of connection points: 2
#     Edge 20, Type (0, 1), BuildingBlock: XUDNAN_clean_linker_2, # of connection points: 2
#     Edge 21, Type (0, 1), BuildingBlock: XUDNAN_clean_linker_2, # of connection points: 2
#     Edge 22, Type (0, 1), BuildingBlock: XUDNAN_clean_linker_2, # of connection points: 2
#     Edge 23, Type (0, 1), BuildingBlock: XUDNAN_clean_linker_2, # of connection points: 2
#     Edge 24, Type (0, 1), BuildingBlock: XUDNAN_clean_linker_2, # of connection points: 2
#     Edge 25, Type (0, 1), BuildingBlock: XUDNAN_clean_linker_2, # of connection points: 2
#     Edge 26, Type (0, 1), BuildingBlock: XUDNAN_clean_linker_2, # of connection points: 2
#     Edge 27, Type (0, 1), BuildingBlock: XUDNAN_clean_linker_2, # of connection points: 2
#     Edge 28, Type (0, 1), BuildingBlock: XUDNAN_clean_linker_2, # of connection points: 2
#     Edge 29, Type (0, 1), BuildingBlock: XUDNAN_clean_linker_2, # of connection points: 2
#     Edge 30, Type (0, 1), BuildingBlock: XUDNAN_clean_linker_2, # of connection points: 2
#     Edge 31, Type (0, 1), BuildingBlock: XUDNAN_clean_linker_2, # of connection points: 2
#     Edge 32, Type (0, 1), BuildingBlock: XUDNAN_clean_linker_2, # of connection points: 2
#     Edge 33, Type (0, 1), BuildingBlock: XUDNAN_clean_linker_2, # of connection points: 2
#     Edge 34, Type (0, 1), BuildingBlock: XUDNAN_clean_linker_2, # of connection points: 2
#     Edge 35, Type (0, 1), BuildingBlock: XUDNAN_clean_linker_2, # of connection points: 2
# Relax obj value: 0.035
# Max RMSD: 0.111
# Mean RMSD: 0.047
data_MOF--net-pry--node1-LEVNOQ01_clean_sbu_1--node2-MIDCAF_clean_linker_0--edge1-XUDNAN_clean_linker_2
_symmetry_space_group_name_H-M    P1
_symmetry_Int_Tables_number       1
_symmetry_cell_setting            triclinic
loop_
_symmetry_equiv_pos_as_xyz
'x, y, z'
_cell_length_a     45.580353
_cell_length_b     43.919314
_cell_length_c     44.074954
_cell_angle_alpha  92.289585
_cell_angle_beta   91.069527
_cell_angle_gamma 93.636713
loop_
_atom_site_label
_atom_site_type_symbol
_atom_site_fract_x
_atom_site_fract_y
_atom_site_fract_z
_atom_type_partial_charge
C0 C 0.082 0.10752 0.2243 0.0
C1 C 0.10088 0.09183 0.243 0.0
C2 C 0.1306 0.09107 0.23504 0.0
C3 C 0.14091 0.10438 0.20873 0.0
H4 H 0.20581 0.09526 0.15077 0.0
H5 H 0.24791 0.07144 0.13011 0.0
H6 H 0.23709 0.11807 0.04656 0.0
H7 H 0.19487 0.14274 0.06766 0.0
H8 H 0.15466 0.21589 0.09148 0.0
H9 H 0.12912 0.25929 0.07339 0.0
H10 H 0.0462 0.2149 0.09863 0.0
H11 H 0.07193 0.1731 0.11839 0.0
H12 H 0.07734 0.1328 0.18387 0.0
H13 H 0.05896 0.10855 0.2295 0.0
H14 H 0.14617 0.08021 0.24921 0.0
H15 H 0.1639 0.10292 0.20343 0.0
N16 N 0.15845 0.12245 0.14934 0.0
N17 N 0.15592 0.15632 0.10967 0.0
N18 N 0.11946 0.15445 0.14695 0.0
C19 C 0.16982 0.13388 0.12358 0.0
C20 C 0.13067 0.16667 0.12132 0.0
C21 C 0.13343 0.13249 0.16125 0.0
C22 C 0.19665 0.1209 0.11086 0.0
C23 C 0.21226 0.1006 0.12797 0.0
C24 C 0.23641 0.08663 0.11599 0.0
C25 C 0.24576 0.09236 0.08645 0.0
C26 C 0.23061 0.11317 0.06946 0.0
C27 C 0.20634 0.12731 0.08154 0.0
C28 C 0.11534 0.19132 0.1068 0.0
C29 C 0.13095 0.2155 0.09296 0.0
C30 C 0.11622 0.24035 0.08246 0.0
C31 C 0.08547 0.24122 0.08504 0.0
C32 C 0.06992 0.21594 0.09725 0.0
C33 C 0.08465 0.19165 0.10836 0.0
C34 C 0.12202 0.11947 0.18971 0.0
C35 C 0.0925 0.12134 0.19803 0.0
C36 C 0.27171 0.93035 0.60362 0.0
C37 C 0.25653 0.91393 0.57961 0.0
C38 C 0.271 0.89209 0.56246 0.0
C39 C 0.2998 0.88567 0.57022 0.0
H40 H 0.35931 0.82159 0.55609 0.0
H41 H 0.37784 0.7743 0.536 0.0
H42 H 0.45114 0.78512 0.59984 0.0
H43 H 0.43256 0.83232 0.62035 0.0
H44 H 0.43847 0.89163 0.66655 0.0
H45 H 0.45989 0.91758 0.71294 0.0
H46 H 0.38323 0.96954 0.72184 0.0
H47 H 0.36178 0.94432 0.6757 0.0
H48 H 0.31132 0.93692 0.63027 0.0
H49 H 0.26104 0.94756 0.61694 0.0
H50 H 0.25963 0.87913 0.54387 0.0
H51 H 0.31005 0.86796 0.5572 0.0
N52 N 0.35618 0.86789 0.59262 0.0
N53 N 0.39609 0.8745 0.62723 0.0
N54 N 0.35813 0.90802 0.62926 0.0
C55 C 0.3822 0.85871 0.6033 0.0
C56 C 0.38418 0.8993 0.64028 0.0
C57 C 0.34403 0.89258 0.60542 0.0
C58 C 0.39438 0.83082 0.58996 0.0
C59 C 0.37949 0.81409 0.56579 0.0
C60 C 0.39017 0.78703 0.55411 0.0
C61 C 0.4159 0.77605 0.56637 0.0
C62 C 0.43106 0.79292 0.59017 0.0
C63 C 0.42045 0.82005 0.60182 0.0
C64 C 0.39835 0.91583 0.6673 0.0
C65 C 0.42631 0.90885 0.67815 0.0
C66 C 0.43867 0.92374 0.70453 0.0
C67 C 0.42319 0.94564 0.72048 0.0
C68 C 0.39559 0.95292 0.70957 0.0
C69 C 0.38335 0.93834 0.68318 0.0
C70 C 0.31469 0.90126 0.59508 0.0
C71 C 0.30054 0.92423 0.61117 0.0
C72 C 0.61365 0.28331 0.92443 0.0
C73 C 0.59652 0.26518 0.903 0.0
C74 C 0.5837 0.2789 0.87827 0.0
C75 C 0.58976 0.30985 0.87378 0.0
H76 H 0.58827 0.36621 0.80665 0.0
H77 H 0.57815 0.38168 0.75529 0.0
H78 H 0.62874 0.46696 0.77407 0.0
H79 H 0.6394 0.45157 0.82563 0.0
H80 H 0.68875 0.45198 0.88037 0.0
H81 H 0.73283 0.47379 0.90771 0.0
H82 H 0.72685 0.39969 0.96927 0.0
H83 H 0.68298 0.37813 0.94258 0.0
H84 H 0.63407 0.32735 0.93624 0.0
H85 H 0.62296 0.2734 0.94427 0.0
H86 H 0.57018 0.26543 0.86157 0.0
H87 H 0.58069 0.31942 0.85365 0.0
N88 N 0.61068 0.37037 0.85994 0.0
N89 N 0.64627 0.41115 0.8665 0.0
N90 N 0.64278 0.37287 0.90202 0.0
C91 C 0.6235 0.39678 0.85014 0.0
C92 C 0.65595 0.39932 0.89261 0.0
C93 C 0.62007 0.35835 0.88591 0.0
C94 C 0.61492 0.40758 0.82018 0.0
C95 C 0.59717 0.38836 0.80004 0.0
C96 C 0.59154 0.39701 0.77055 0.0
C97 C 0.60316 0.42517 0.76084 0.0
C98 C 0.6198 0.445 0.78119 0.0
C99 C 0.62583 0.43618 0.81061 0.0
C100 C 0.68207 0.41346 0.90943 0.0
C101 C 0.69667 0.44051 0.89992 0.0
C102 C 0.72194 0.45297 0.91548 0.0
C103 C 0.73293 0.4387 0.9409 0.0
C104 C 0.71841 0.41166 0.95028 0.0
C105 C 0.6933 0.39921 0.93478 0.0
C106 C 0.60884 0.32755 0.89393 0.0
C107 C 0.61977 0.31425 0.91995 0.0
C108 C 0.78891 0.57442 0.45798 0.0
C109 C 0.77062 0.55309 0.44072 0.0
C110 C 0.78036 0.54203 0.41255 0.0
C111 C 0.80746 0.55287 0.40146 0.0
H112 H 0.86589 0.54223 0.3304 0.0
H113 H 0.87585 0.53111 0.27694 0.0
H114 H 0.93436 0.61224 0.27583 0.0
H115 H 0.92476 0.62346 0.32911 0.0
H116 H 0.94321 0.65698 0.39154 0.0
H117 H 0.96484 0.70555 0.41238 0.0
H118 H 0.89707 0.7077 0.47945 0.0
H119 H 0.8755 0.65875 0.45895 0.0
H120 H 0.82923 0.60197 0.46079 0.0
H121 H 0.78217 0.58299 0.47999 0.0
H122 H 0.76662 0.52575 0.39863 0.0
H123 H 0.81395 0.54445 0.37931 0.0
N124 N 0.86201 0.57881 0.37796 0.0
N125 N 0.90097 0.61634 0.38058 0.0
N126 N 0.86812 0.61244 0.42063 0.0
C127 C 0.88608 0.59257 0.36531 0.0
C128 C 0.89227 0.62637 0.40829 0.0
C129 C 0.85294 0.58853 0.40569 0.0
C130 C 0.89426 0.58391 0.33398 0.0
C131 C 0.88105 0.55758 0.31886 0.0
C132 C 0.88675 0.55116 0.28832 0.0
C133 C 0.9054 0.57116 0.27234 0.0
C134 C 0.91942 0.59683 0.28763 0.0
C135 C 0.91405 0.60307 0.3182 0.0
C136 C 0.90735 0.65404 0.42331 0.0
C137 C 0.93302 0.66754 0.41095 0.0
C138 C 0.94542 0.69547 0.42282 0.0
C139 C 0.93248 0.71062 0.44733 0.0
C140 C 0.90767 0.69648 0.46068 0.0
C141 C 0.89524 0.66847 0.44881 0.0
C142 C 0.82539 0.57496 0.41837 0.0
C143 C 0.81597 0.58519 0.44698 0.0
C144 C 0.77391 0.92681 0.90074 0.0
C145 C 0.76863 0.92437 0.932 0.0
C146 C 0.79072 0.91269 0.95026 0.0
C147 C 0.8162 0.90201 0.93754 0.0
H148 H 0.86159 0.82315 0.94235 0.0
H149 H 0.875 0.77448 0.96098 0.0
H150 H 0.9419 0.76933 0.8935 0.0
H151 H 0.92833 0.81838 0.87419 0.0
H152 H 0.91325 0.85839 0.80946 0.0
H153 H 0.92684 0.8766 0.75952 0.0
H154 H 0.88936 0.96243 0.78156 0.0
H155 H 0.87509 0.94401 0.83071 0.0
H156 H 0.80288 0.91833 0.86389 0.0
H157 H 0.75761 0.93541 0.88572 0.0
H158 H 0.78835 0.91142 0.97457 0.0
H159 H 0.83221 0.89245 0.95228 0.0
N160 N 0.85928 0.86624 0.90558 0.0
N161 N 0.89315 0.86338 0.86619 0.0
N162 N 0.85833 0.90074 0.86646 0.0
C163 C 0.88222 0.85256 0.89261 0.0
C164 C 0.88146 0.88772 0.85316 0.0
C165 C 0.84714 0.89021 0.89267 0.0
C166 C 0.89345 0.82471 0.90626 0.0
C167 C 0.87945 0.81209 0.93153 0.0
C168 C 0.88719 0.78413 0.94239 0.0
C169 C 0.90941 0.76802 0.92866 0.0
C170 C 0.9248 0.78133 0.90466 0.0
C171 C 0.91682 0.80934 0.89347 0.0
C172 C 0.89264 0.89951 0.824 0.0
C173 C 0.90813 0.88123 0.8037 0.0
C174 C 0.91601 0.89173 0.77506 0.0
C175 C 0.90875 0.92083 0.76615 0.0
C176 C 0.89456 0.93956 0.78714 0.0
C177 C 0.88648 0.92901 0.81551 0.0
C178 C 0.82097 0.90357 0.90628 0.0
C179 C 0.79988 0.91681 0.88811 0.0
C180 C 0.60897 0.07782 0.29389 0.0
C181 C 0.58565 0.09214 0.28048 0.0
C182 C 0.57111 0.11389 0.29785 0.0
C183 C 0.58081 0.12251 0.32742 0.0
H184 H 0.56444 0.17856 0.40432 0.0
H185 H 0.54867 0.22898 0.41961 0.0
H186 H 0.63203 0.25074 0.46561 0.0
H187 H 0.64797 0.20033 0.45097 0.0
H188 H 0.68536 0.12033 0.45962 0.0
H189 H 0.73489 0.10352 0.46969 0.0
H190 H 0.75183 0.10434 0.37344 0.0
H191 H 0.70231 0.11873 0.36361 0.0
H192 H 0.63778 0.07607 0.33255 0.0
H193 H 0.62067 0.06117 0.28092 0.0
H194 H 0.55292 0.12515 0.28804 0.0
H195 H 0.56978 0.14021 0.33963 0.0
N196 N 0.60608 0.14472 0.38582 0.0
N197 N 0.64658 0.14941 0.41986 0.0
N198 N 0.6457 0.1141 0.37845 0.0
C199 C 0.61974 0.15826 0.4111 0.0
C200 C 0.65955 0.12726 0.40364 0.0
C201 C 0.61883 0.12238 0.36949 0.0
C202 C 0.60767 0.18552 0.42597 0.0
C203 C 0.57911 0.19365 0.41852 0.0
C204 C 0.56992 0.22236 0.42746 0.0
C205 C 0.58915 0.24338 0.44385 0.0
C206 C 0.61678 0.23459 0.45328 0.0
C207 C 0.62588 0.20577 0.44471 0.0
C208 C 0.68991 0.11994 0.4108 0.0
C209 C 0.69987 0.11677 0.4408 0.0
C210 C 0.72825 0.10738 0.44652 0.0
C211 C 0.74717 0.10173 0.42231 0.0
C212 C 0.73756 0.10713 0.39259 0.0
C213 C 0.70919 0.11558 0.38689 0.0
C214 C 0.60549 0.10977 0.3402 0.0
C215 C 0.61886 0.08661 0.32342 0.0
C216 C 0.27679 0.59151 0.10611 0.0
C217 C 0.26522 0.60816 0.08285 0.0
C218 C 0.28268 0.63137 0.06984 0.0
C219 C 0.31138 0.63854 0.08061 0.0
H220 H 0.3875 0.70265 0.07711 0.0
H221 H 0.40521 0.75538 0.07077 0.0
H222 H 0.43886 0.76081 0.16343 0.0
H223 H 0.42275 0.70768 0.169 0.0
H224 H 0.43118 0.64205 0.19999 0.0
H225 H 0.4394 0.61857 0.24837 0.0
H226 H 0.36589 0.55329 0.22796 0.0
H227 H 0.35888 0.57525 0.17943 0.0
H228 H 0.31347 0.58588 0.13556 0.0
H229 H 0.26339 0.57368 0.1165 0.0
H230 H 0.27382 0.64441 0.05184 0.0
H231 H 0.32417 0.65708 0.07067 0.0
N232 N 0.36596 0.65942 0.11227 0.0
N233 N 0.40023 0.65392 0.15186 0.0
N234 N 0.3621 0.61652 0.14196 0.0
C235 C 0.39037 0.67016 0.12854 0.0
C236 C 0.38627 0.62685 0.15846 0.0
C237 C 0.35172 0.63248 0.11894 0.0
C238 C 0.40359 0.70107 0.12358 0.0
C239 C 0.399 0.71506 0.09596 0.0
C240 C 0.40888 0.74544 0.0925 0.0
C241 C 0.42299 0.76269 0.11681 0.0
C242 C 0.42834 0.74828 0.1441 0.0
C243 C 0.419 0.71775 0.14734 0.0
C244 C 0.39421 0.61077 0.18592 0.0
C245 C 0.41716 0.62233 0.20565 0.0
C246 C 0.42162 0.60909 0.23355 0.0
C247 C 0.403 0.58429 0.24229 0.0
C248 C 0.38087 0.57211 0.22195 0.0
C249 C 0.37672 0.58496 0.19404 0.0
C250 C 0.3229 0.62261 0.10466 0.0
C251 C 0.30546 0.59859 0.11689 0.0
C252 C 0.07116 0.31371 0.54622 0.0
C253 C 0.05158 0.29694 0.56435 0.0
C254 C 0.04433 0.30935 0.59288 0.0
C255 C 0.05738 0.33746 0.60366 0.0
H256 H 0.05467 0.40493 0.67291 0.0
H257 H 0.04434 0.42418 0.72388 0.0
H258 H 0.12725 0.47792 0.72683 0.0
H259 H 0.13703 0.45974 0.67562 0.0
H260 H 0.17121 0.46804 0.61536 0.0
H261 H 0.21823 0.48512 0.59428 0.0
H262 H 0.21129 0.40886 0.52916 0.0
H263 H 0.16418 0.39161 0.55004 0.0
H264 H 0.10041 0.35348 0.54306 0.0
H265 H 0.07727 0.30446 0.52424 0.0
H266 H 0.02921 0.29681 0.60723 0.0
H267 H 0.05188 0.34589 0.62614 0.0
N268 N 0.08749 0.39394 0.62658 0.0
N269 N 0.12817 0.42924 0.62553 0.0
N270 N 0.11958 0.39279 0.58559 0.0
C271 C 0.10389 0.41802 0.63971 0.0
C272 C 0.13619 0.41688 0.59849 0.0
C273 C 0.0951 0.38126 0.59942 0.0
C274 C 0.09672 0.43067 0.67013 0.0
C275 C 0.0706 0.42101 0.68434 0.0
C276 C 0.06479 0.43188 0.71369 0.0
C277 C 0.0851 0.45242 0.7296 0.0
C278 C 0.11095 0.46244 0.71516 0.0
C279 C 0.11663 0.45182 0.68576 0.0
C280 C 0.16384 0.42836 0.58443 0.0
C281 C 0.17951 0.45497 0.59639 0.0
C282 C 0.20641 0.46489 0.58427 0.0
C283 C 0.21837 0.44828 0.56014 0.0
C284 C 0.20263 0.42194 0.54793 0.0
C285 C 0.17557 0.41218 0.55981 0.0
C286 C 0.07835 0.35354 0.58632 0.0
C287 C 0.08454 0.34167 0.55714 0.0
O288 O 0.01361 0.99552 0.57518 0.0
Mg289 Mg 0.03519 0.02295 0.54162 0.0
O290 O 0.97455 0.99256 0.54526 0.0
Mg291 Mg 0.00039 0.00289 0.50152 0.0
O292 O 0.01382 0.05498 0.51869 0.0
O293 O 0.04267 0.06502 0.56025 0.0
O294 O 0.02611 0.01296 0.4574 0.0
O295 O 0.95961 0.03086 0.48466 0.0
Mg296 Mg 0.96621 0.98112 0.46121 0.0
O297 O 0.98761 0.95068 0.48531 0.0
O298 O 0.98687 0.00923 0.42769 0.0
O299 O 0.92774 0.99232 0.48318 0.0
O300 O 0.96054 0.93851 0.44283 0.0
C301 C 0.06764 0.98212 0.51911 0.0
C302 C 0.98644 0.98841 0.571 0.0
C303 C 0.02666 0.07448 0.53862 0.0
C304 C 0.01396 0.01673 0.43169 0.0
C305 C 0.93276 0.02074 0.48355 0.0
C306 C 0.97579 0.93032 0.46567 0.0
O307 O 0.07472 0.01016 0.52234 0.0
O308 O 0.04037 0.97379 0.51734 0.0
O309 O 0.44818 0.06466 0.0012 0.0
Mg310 Mg 0.49081 0.06647 0.01757 0.0
O311 O 0.45492 0.01837 0.01481 0.0
Mg312 Mg 0.50612 0.01018 0.00204 0.0
O313 O 0.52224 0.05793 0.9872 0.0
O314 O 0.5117 0.10498 0.00396 0.0
O315 O 0.55531 0.99817 0.99085 0.0
O316 O 0.48962 0.00464 0.95072 0.0
Mg317 Mg 0.50746 0.94377 0.97329 0.0
O318 O 0.49258 0.96151 0.0134 0.0
O319 O 0.55357 0.95041 0.97198 0.0
O320 O 0.48271 0.95595 0.93602 0.0
O321 O 0.48915 0.91168 0.00065 0.0
C322 C 0.51689 0.04096 0.0719 0.0
C323 C 0.4374 0.03941 0.00951 0.0
C324 C 0.52586 0.0873 0.98626 0.0
C325 C 0.56813 0.97502 0.98012 0.0
C326 C 0.48074 0.98387 0.93095 0.0
C327 C 0.48485 0.93378 0.0199 0.0
O328 O 0.49935 0.06035 0.0636 0.0
O329 O 0.52396 0.01988 0.05306 0.0
O330 O 0.45786 0.55013 0.55232 0.0
Mg331 Mg 0.46783 0.50356 0.55416 0.0
O332 O 0.4909 0.55486 0.51704 0.0
Mg333 Mg 0.49587 0.50472 0.50336 0.0
O334 O 0.51038 0.49073 0.55254 0.0
O335 O 0.48482 0.49844 0.59527 0.0
O336 O 0.50435 0.45598 0.48466 0.0
O337 O 0.5475 0.51345 0.50463 0.0
Mg338 Mg 0.52498 0.52091 0.4557 0.0
O339 O 0.48067 0.52067 0.45581 0.0
O340 O 0.53665 0.47479 0.45219 0.0
O341 O 0.5541 0.55417 0.47886 0.0
O342 O 0.50853 0.53685 0.41719 0.0
C343 C 0.42605 0.47731 0.51832 0.0
C344 C 0.47298 0.56672 0.53491 0.0
C345 C 0.5083 0.49062 0.58197 0.0
C346 C 0.52421 0.45204 0.46494 0.0
C347 C 0.56458 0.53543 0.49633 0.0
C348 C 0.48312 0.53133 0.4289 0.0
O349 O 0.43483 0.46926 0.54382 0.0
O350 O 0.44365 0.49362 0.50249 0.0
O351 O 0.03486 0.45111 0.05693 0.0
Mg352 Mg 0.03443 0.49765 0.06197 0.0
O353 O 0.01192 0.45556 0.01299 0.0
Mg354 Mg 0.00105 0.50821 0.00705 0.0
O355 O 0.99434 0.51679 0.05853 0.0
O356 O 0.01905 0.51046 0.10234 0.0
O357 O 0.98544 0.55755 0.99726 0.0
O358 O 0.95096 0.49245 0.01283 0.0
Mg359 Mg 0.96813 0.49451 0.96248 0.0
O360 O 0.01153 0.49878 0.95476 0.0
O361 O 0.94894 0.53766 0.96778 0.0
O362 O 0.95008 0.45396 0.98111 0.0
O363 O 0.9766 0.48484 0.91897 0.0
C364 C 0.07226 0.53329 0.0241 0.0
C365 C 0.02376 0.43912 0.03263 0.0
C366 C 0.99624 0.51899 0.08799 0.0
C367 C 0.96205 0.56087 0.98143 0.0
C368 C 0.93761 0.46816 0.00198 0.0
C369 C 0.00379 0.49088 0.92686 0.0
O370 O 0.07157 0.52245 0.05009 0.0
O371 O 0.04993 0.53002 0.00609 0.0
H372 H 0.05799 0.1085 0.28363 0.0
H373 H 0.11848 0.03791 0.26438 0.0
H374 H 0.10441 0.01323 0.31142 0.0
H375 H 0.06795 0.11313 0.36429 0.0
H376 H 0.02977 0.11744 0.37231 0.0
H377 H 0.04477 0.13051 0.33723 0.0
H378 H 0.00499 0.09688 0.30655 0.0
H379 H 0.9896 0.08401 0.3415 0.0
H380 H 0.00056 0.0566 0.31306 0.0
H381 H 0.08679 0.9979 0.36225 0.0
H382 H 0.06032 0.98806 0.40975 0.0
H383 H 0.00687 0.06427 0.39391 0.0
C384 C 0.06807 0.08767 0.28904 0.0
C385 C 0.09005 0.07577 0.27041 0.0
C386 C 0.10247 0.04833 0.27861 0.0
C387 C 0.09447 0.03391 0.30527 0.0
C388 C 0.0735 0.04671 0.32347 0.0
C389 C 0.05993 0.07254 0.31545 0.0
C390 C 0.03722 0.08081 0.3387 0.0
C391 C 0.04543 0.11235 0.35404 0.0
C392 C 0.00625 0.07948 0.32408 0.0
C393 C 0.04021 0.05553 0.36092 0.0
C394 C 0.06175 0.03653 0.35194 0.0
C395 C 0.06964 0.0124 0.36936 0.0
C396 C 0.0547 0.00711 0.39638 0.0
C397 C 0.03171 0.0254 0.40535 0.0
C398 C 0.02439 0.04995 0.38742 0.0
H399 H 0.40513 0.92906 0.77562 0.0
H400 H 0.46586 0.99182 0.7314 0.0
H401 H 0.48246 0.01496 0.78178 0.0
H402 H 0.38512 0.98022 0.8377 0.0
H403 H 0.38426 0.95072 0.86502 0.0
H404 H 0.37567 0.94107 0.8256 0.0
H405 H 0.41621 0.90218 0.82405 0.0
H406 H 0.42419 0.911 0.86362 0.0
H407 H 0.45313 0.91455 0.83643 0.0
H408 H 0.49377 0.02908 0.83808 0.0
H409 H 0.50346 0.02776 0.89365 0.0
H410 H 0.43534 0.95502 0.89945 0.0
C411 C 0.42176 0.94785 0.77668 0.0
C412 C 0.43422 0.95894 0.75002 0.0
C413 C 0.45617 0.98321 0.75187 0.0
C414 C 0.46547 0.99656 0.78028 0.0
C415 C 0.4525 0.98525 0.80637 0.0
C416 C 0.43136 0.96115 0.80469 0.0
C417 C 0.42256 0.95123 0.8358 0.0
C418 C 0.38997 0.95612 0.84135 0.0
C419 C 0.42945 0.91778 0.84022 0.0
C420 C 0.44241 0.97305 0.85542 0.0
C421 C 0.45919 0.99297 0.83825 0.0
C422 C 0.48051 0.0138 0.85171 0.0
C423 C 0.48572 0.01311 0.88327 0.0
C424 C 0.46998 0.99137 0.90062 0.0
C425 C 0.44739 0.97206 0.88664 0.0
H426 H 0.57871 0.47634 0.74303 0.0
H427 H 0.61399 0.39273 0.70868 0.0
H428 H 0.60146 0.40592 0.65609 0.0
H429 H 0.51746 0.47052 0.69642 0.0
H430 H 0.51589 0.51093 0.69143 0.0
H431 H 0.53286 0.49767 0.72509 0.0
H432 H 0.58068 0.53017 0.71385 0.0
H433 H 0.56388 0.54318 0.67977 0.0
H434 H 0.59817 0.52493 0.67783 0.0
H435 H 0.58015 0.42534 0.60824 0.0
H436 H 0.5465 0.44601 0.57042 0.0
H437 H 0.52403 0.51557 0.63697 0.0
C438 C 0.58458 0.46137 0.72427 0.0
C439 C 0.59767 0.43389 0.72951 0.0
C440 C 0.60412 0.41407 0.70478 0.0
C441 C 0.59735 0.4215 0.67495 0.0
C442 C 0.58412 0.44874 0.67044 0.0
C443 C 0.57759 0.46824 0.69451 0.0
C444 C 0.5595 0.49367 0.68426 0.0
C445 C 0.52968 0.49313 0.70023 0.0
C446 C 0.57659 0.52483 0.68921 0.0
C447 C 0.55587 0.48477 0.65089 0.0
C448 C 0.57089 0.45934 0.64307 0.0
C449 C 0.56865 0.44553 0.61394 0.0
C450 C 0.5496 0.45736 0.59263 0.0
C451 C 0.53278 0.48211 0.60111 0.0
C452 C 0.5368 0.49658 0.6301 0.0
H453 H 0.92131 0.51872 0.24396 0.0
H454 H 0.90084 0.61174 0.22759 0.0
H455 H 0.91178 0.60374 0.17327 0.0
H456 H 0.98248 0.51937 0.20123 0.0
H457 H 0.97747 0.48024 0.18716 0.0
H458 H 0.96187 0.49146 0.22261 0.0
H459 H 0.91061 0.46993 0.20207 0.0
H460 H 0.92623 0.45948 0.16613 0.0
H461 H 0.89585 0.48381 0.16738 0.0
H462 H 0.93139 0.58854 0.1232 0.0
H463 H 0.9646 0.56952 0.08375 0.0
H464 H 0.9732 0.4872 0.13312 0.0
C465 C 0.9182 0.53699 0.22864 0.0
C466 C 0.9099 0.56565 0.23962 0.0
C467 C 0.90708 0.58954 0.21937 0.0
C468 C 0.91287 0.58509 0.1885 0.0
C469 C 0.92136 0.55662 0.17831 0.0
C470 C 0.92422 0.533 0.19786 0.0
C471 C 0.93824 0.50641 0.18247 0.0
C472 C 0.96669 0.49899 0.19936 0.0
C473 C 0.91642 0.47824 0.17932 0.0
C474 C 0.94451 0.51959 0.15193 0.0
C475 C 0.93361 0.54807 0.14946 0.0
C476 C 0.93955 0.56602 0.12454 0.0
C477 C 0.95833 0.55517 0.10229 0.0
C478 C 0.9712 0.52718 0.1059 0.0
C479 C 0.96324 0.50866 0.13011 0.0
H480 H 0.28981 0.1163 0.05078 0.0
H481 H 0.26003 0.03302 0.09377 0.0
H482 H 0.30411 0.00834 0.07594 0.0
H483 H 0.3206 0.07942 0.98378 0.0
H484 H 0.35101 0.10763 0.98255 0.0
H485 H 0.3164 0.11805 0.99763 0.0
H486 H 0.34279 0.13788 0.04788 0.0
H487 H 0.37742 0.1276 0.03294 0.0
H488 H 0.36506 0.11274 0.06836 0.0
H489 H 0.35439 0.99401 0.0561 0.0
H490 H 0.40485 0.99209 0.03594 0.0
H491 H 0.39878 0.08367 0.00377 0.0
C492 C 0.29215 0.09267 0.05594 0.0
C493 C 0.27135 0.07675 0.07382 0.0
C494 C 0.2758 0.04598 0.08052 0.0
C495 C 0.3007 0.03162 0.07028 0.0
C496 C 0.32096 0.04814 0.05304 0.0
C497 C 0.31676 0.07795 0.04578 0.0
C498 C 0.34219 0.09124 0.02796 0.0
C499 C 0.33193 0.09956 0.99609 0.0
C500 C 0.35778 0.11899 0.04533 0.0
C501 C 0.36145 0.0644 0.02649 0.0
C502 C 0.34905 0.03967 0.04107 0.0
C503 C 0.36409 0.01312 0.04422 0.0
C504 C 0.3927 0.01215 0.03262 0.0
C505 C 0.40586 0.03755 0.018 0.0
C506 C 0.38948 0.06359 0.01446 0.0
H507 H 0.22941 0.92743 0.52611 0.0
H508 H 0.2131 0.91068 0.62078 0.0
H509 H 0.16042 0.9185 0.61247 0.0
H510 H 0.18403 0.98813 0.5209 0.0
H511 H 0.17087 0.97856 0.48266 0.0
H512 H 0.20624 0.96723 0.49495 0.0
H513 H 0.19026 0.91097 0.47942 0.0
H514 H 0.1546 0.92218 0.46749 0.0
H515 H 0.15747 0.89328 0.49509 0.0
H516 H 0.11048 0.92992 0.59488 0.0
H517 H 0.06799 0.95306 0.57151 0.0
H518 H 0.11706 0.9669 0.48945 0.0
C519 C 0.21454 0.92489 0.54485 0.0
C520 C 0.22504 0.91817 0.57399 0.0
C521 C 0.20529 0.91575 0.59828 0.0
C522 C 0.17536 0.91984 0.5937 0.0
C523 C 0.16559 0.92644 0.56472 0.0
C524 C 0.18459 0.92942 0.54076 0.0
C525 C 0.16893 0.94 0.51281 0.0
C526 C 0.18337 0.97028 0.50224 0.0
C527 C 0.16775 0.91512 0.48719 0.0
C528 C 0.13859 0.94397 0.5253 0.0
C529 C 0.13687 0.93476 0.5549 0.0
C530 C 0.1114 0.93687 0.57162 0.0
C531 C 0.08734 0.94977 0.55813 0.0
C532 C 0.08931 0.96104 0.52861 0.0
C533 C 0.11498 0.95767 0.51179 0.0
H534 H 0.78458 0.45848 0.91565 0.0
H535 H 0.74319 0.44477 0.00225 0.0
H536 H 0.79103 0.45656 0.02874 0.0
H537 H 0.84566 0.42232 0.92967 0.0
H538 H 0.87135 0.44783 0.91097 0.0
H539 H 0.83334 0.44485 0.89913 0.0
H540 H 0.83041 0.50321 0.90828 0.0
H541 H 0.86864 0.50647 0.91996 0.0
H542 H 0.84125 0.52077 0.94478 0.0
H543 H 0.84454 0.46318 0.04524 0.0
H544 H 0.89919 0.46411 0.04947 0.0
H545 H 0.90428 0.47166 0.95197 0.0
C546 C 0.78539 0.45915 0.94024 0.0
C547 C 0.76028 0.45079 0.95695 0.0
C548 C 0.76231 0.45099 0.98907 0.0
C549 C 0.7893 0.45787 0.00432 0.0
C550 C 0.81395 0.46483 0.98712 0.0
C551 C 0.81215 0.46594 0.95577 0.0
C552 C 0.84223 0.47081 0.94228 0.0
C553 C 0.84848 0.4449 0.91918 0.0
C554 C 0.84583 0.50218 0.92799 0.0
C555 C 0.86118 0.46997 0.97065 0.0
C556 C 0.84465 0.46752 0.99646 0.0
C557 C 0.85773 0.46532 0.02519 0.0
C558 C 0.88858 0.46554 0.02742 0.0
C559 C 0.90547 0.46693 0.00093 0.0
C560 C 0.8916 0.46967 0.97244 0.0
H561 H 0.73016 0.58962 0.46523 0.0
H562 H 0.74386 0.49519 0.43993 0.0
H563 H 0.694 0.4799 0.45751 0.0
H564 H 0.6863 0.57396 0.53299 0.0
H565 H 0.66269 0.60448 0.52617 0.0
H566 H 0.70039 0.60746 0.51436 0.0
H567 H 0.6832 0.61642 0.45922 0.0
H568 H 0.64555 0.61374 0.47083 0.0
H569 H 0.65715 0.58909 0.44024 0.0
H570 H 0.64258 0.47522 0.47721 0.0
H571 H 0.59098 0.482 0.49004 0.0
H572 H 0.60977 0.58004 0.49931 0.0
C573 C 0.72289 0.56564 0.46395 0.0
C574 C 0.74099 0.54351 0.45164 0.0
C575 C 0.73035 0.51248 0.44939 0.0
C576 C 0.70221 0.50358 0.45956 0.0
C577 C 0.68503 0.526 0.47182 0.0
C578 C 0.69486 0.55642 0.47373 0.0
C579 C 0.67133 0.57634 0.48559 0.0
C580 C 0.68074 0.59146 0.51662 0.0
C581 C 0.66386 0.60029 0.46259 0.0
C582 C 0.64619 0.55254 0.48878 0.0
C583 C 0.65491 0.52353 0.48177 0.0
C584 C 0.63557 0.49779 0.4829 0.0
C585 C 0.60633 0.50189 0.49045 0.0
C586 C 0.59649 0.53158 0.4959 0.0
C587 C 0.61683 0.55714 0.49556 0.0
H588 H 0.09819 0.28248 0.03963 0.0
H589 H 0.03733 0.26385 0.11243 0.0
H590 H 0.00972 0.30737 0.09845 0.0
H591 H 0.10254 0.36284 0.0533 0.0
H592 H 0.10541 0.37182 0.01386 0.0
H593 H 0.11818 0.33651 0.02665 0.0
H594 H 0.0842 0.30691 0.98616 0.0
H595 H 0.07083 0.34228 0.97384 0.0
H596 H 0.04531 0.31231 0.9858 0.0
H597 H 0.98895 0.3532 0.07825 0.0
H598 H 0.9831 0.40521 0.06108 0.0
H599 H 0.05972 0.39884 0.00516 0.0
C600 C 0.079 0.28736 0.0526 0.0
C601 C 0.06952 0.26861 0.07652 0.0
C602 C 0.04446 0.27655 0.09306 0.0
C603 C 0.02857 0.30147 0.08538 0.0
C604 C 0.03804 0.31883 0.06131 0.0
C605 C 0.06307 0.31269 0.04561 0.0
C606 C 0.0702 0.33726 0.02302 0.0
C607 C 0.1009 0.35304 0.02963 0.0
C608 C 0.06748 0.32388 0.99026 0.0
C609 C 0.04595 0.35869 0.02946 0.0
C610 C 0.02701 0.34684 0.05077 0.0
C611 C 0.00342 0.36259 0.06131 0.0
C612 C 1e-05 0.39196 0.0511 0.0
C613 C 0.02042 0.40559 0.03114 0.0
C614 C 0.04316 0.38842 0.01945 0.0
H615 H 0.54598 0.22897 0.89569 0.0
H616 H 0.63886 0.2268 0.9177 0.0
H617 H 0.63187 0.17209 0.9277 0.0
H618 H 0.52116 0.18994 0.95232 0.0
H619 H 0.49081 0.16879 0.9327 0.0
H620 H 0.50467 0.20444 0.91874 0.0
H621 H 0.51278 0.17739 0.86638 0.0
H622 H 0.49952 0.14132 0.88083 0.0
H623 H 0.53524 0.14507 0.86401 0.0
H624 H 0.61377 0.12341 0.94721 0.0
H625 H 0.58503 0.08714 0.97846 0.0
H626 H 0.50431 0.11927 0.94242 0.0
C627 C 0.56499 0.21657 0.90135 0.0
C628 C 0.59288 0.23187 0.90591 0.0
C629 C 0.61721 0.21538 0.91435 0.0
C630 C 0.61355 0.18421 0.91951 0.0
C631 C 0.58554 0.16981 0.91569 0.0
C632 C 0.56164 0.18545 0.90658 0.0
C633 C 0.53309 0.16655 0.90968 0.0
C634 C 0.51122 0.18343 0.92956 0.0
C635 C 0.51936 0.15701 0.87835 0.0
C636 C 0.54443 0.13942 0.9251 0.0
C637 C 0.57486 0.14092 0.92706 0.0
C638 C 0.59004 0.12128 0.94496 0.0
C639 C 0.5737 0.10086 0.96266 0.0
C640 C 0.54283 0.10091 0.9623 0.0
C641 C 0.52806 0.11895 0.94224 0.0
H642 H 0.948 0.75761 0.41117 0.0
H643 H 0.94064 0.73495 0.50571 0.0
H644 H 0.95657 0.78838 0.52133 0.0
H645 H 0.01231 0.81238 0.42061 0.0
H646 H -0.0016 0.83705 0.39274 0.0
H647 H 0.98936 0.79649 0.38939 0.0
H648 H 0.93382 0.80609 0.38807 0.0
H649 H 0.94268 0.84657 0.39122 0.0
H650 H 0.91882 0.82868 0.41839 0.0
H651 H 0.97129 0.84544 0.52615 0.0
H652 H 0.97854 0.90123 0.51951 0.0
H653 H 0.97493 0.88528 0.42178 0.0
C654 C 0.95046 0.76364 0.43519 0.0
C655 C 0.94352 0.74204 0.45725 0.0
C656 C 0.94596 0.75115 0.48844 0.0
C657 C 0.95518 0.78136 0.4975 0.0
C658 C 0.96185 0.80209 0.47508 0.0
C659 C 0.95944 0.79356 0.44455 0.0
C660 C 0.96551 0.82046 0.42476 0.0
C661 C 0.99304 0.81634 0.40576 0.0
C662 C 0.9386 0.82576 0.40444 0.0
C663 C 0.971 0.84571 0.44887 0.0
C664 C 0.96943 0.83472 0.47779 0.0
C665 C 0.97283 0.85422 0.5036 0.0
C666 C 0.97712 0.88581 0.49966 0.0
C667 C 0.97737 0.8974 0.47015 0.0
C668 C 0.97495 0.87697 0.44459 0.0
H669 H 0.43474 0.73008 0.60021 0.0
H670 H 0.4198 0.75512 0.50721 0.0
H671 H 0.43572 0.70496 0.48879 0.0
H672 H 0.49964 0.68706 0.58563 0.0
H673 H 0.4895 0.65885 0.61279 0.0
H674 H 0.47889 0.69747 0.61844 0.0
H675 H 0.42426 0.67755 0.62167 0.0
H676 H 0.43472 0.63895 0.61608 0.0
H677 H 0.40774 0.65355 0.591 0.0
H678 H 0.45328 0.65203 0.48075 0.0
H679 H 0.46667 0.59843 0.48388 0.0
H680 H 0.46724 0.60753 0.58219 0.0
C681 C 0.43532 0.72522 0.57595 0.0
C682 C 0.42633 0.74653 0.55509 0.0
C683 C 0.4266 0.73905 0.52354 0.0
C684 C 0.43577 0.71075 0.51289 0.0
C685 C 0.44451 0.69027 0.53411 0.0
C686 C 0.44418 0.69709 0.56498 0.0
C687 C 0.45315 0.67057 0.58314 0.0
C688 C 0.48201 0.679 0.60106 0.0
C689 C 0.42849 0.65951 0.6042 0.0
C690 C 0.45769 0.64739 0.5577 0.0
C691 C 0.45335 0.65942 0.52956 0.0
C692 C 0.45674 0.64238 0.50265 0.0
C693 C 0.46443 0.61211 0.50463 0.0
C694 C 0.46785 0.5992 0.53328 0.0
C695 C 0.46458 0.61705 0.56008 0.0
H696 H 0.95749 0.91224 0.73064 0.0
H697 H 0.87325 0.95322 0.73028 0.0
H698 H 0.88287 0.97217 0.67938 0.0
H699 H 0.99825 0.97042 0.69439 0.0
H700 H 0.01957 0.94523 0.67171 0.0
H701 H 0.00538 0.93313 0.70741 0.0
H702 H 0.97937 0.8851 0.68024 0.0
H703 H 0.99345 0.89716 0.64439 0.0
H704 H 0.95447 0.88954 0.64871 0.0
H705 H 0.90153 0.98729 0.62852 0.0
H706 H 0.92996 0.00086 0.58317 0.0
H707 H 0.00275 0.95187 0.61674 0.0
C708 C 0.94088 0.92485 0.71973 0.0
C709 C 0.91465 0.93135 0.7348 0.0
C710 C 0.89374 0.94831 0.71965 0.0
C711 C 0.89885 0.95895 0.69051 0.0
C712 C 0.92492 0.95234 0.67646 0.0
C713 C 0.94564 0.93572 0.69052 0.0
C714 C 0.97227 0.93269 0.67067 0.0
C715 C 0.00053 0.94619 0.68703 0.0
C716 C 0.97506 0.89913 0.6604 0.0
C717 C 0.96389 0.95151 0.64407 0.0
C718 C 0.93609 0.96184 0.64744 0.0
C719 C 0.92332 0.97931 0.62562 0.0
C720 C 0.93957 0.98683 0.59991 0.0
C721 C 0.96853 0.97755 0.59658 0.0
C722 C 0.9807 0.95944 0.61886 0.0
H723 H 0.57318 0.0382 0.24609 0.0
H724 H 0.58387 0.13671 0.24033 0.0
H725 H 0.57401 0.13176 0.1853 0.0
H726 H 0.60454 0.02009 0.16975 0.0
H727 H 0.57866 0.9879 0.16177 0.0
H728 H 0.59014 0.99813 0.20043 0.0
H729 H 0.53582 0.00193 0.21537 0.0
H730 H 0.52423 0.99156 0.17688 0.0
H731 H 0.51296 0.02645 0.19478 0.0
H732 H 0.56231 0.11786 0.1329 0.0
H733 H 0.54079 0.09667 0.08488 0.0
H734 H 0.5329 0.00625 0.12167 0.0
C735 C 0.57368 0.05858 0.23302 0.0
C736 C 0.57924 0.08791 0.2474 0.0
C737 C 0.57944 0.11413 0.2298 0.0
C738 C 0.57421 0.11151 0.19848 0.0
C739 C 0.56872 0.08248 0.18496 0.0
C740 C 0.56799 0.0564 0.20146 0.0
C741 C 0.55898 0.02836 0.18101 0.0
C742 C 0.5846 0.00737 0.17807 0.0
C743 C 0.53134 0.01107 0.19271 0.0
C744 C 0.55292 0.04321 0.15103 0.0
C745 C 0.56006 0.0743 0.15397 0.0
C746 C 0.55651 0.09361 0.13027 0.0
C747 C 0.54413 0.08127 0.10309 0.0
C748 C 0.53468 0.04993 0.09966 0.0
C749 C 0.53998 0.03026 0.12364 0.0
H750 H 0.41811 0.61532 0.29621 0.0
H751 H 0.39523 0.5243 0.2573 0.0
H752 H 0.4 0.50323 0.30777 0.0
H753 H 0.47539 0.5951 0.33869 0.0
H754 H 0.47024 0.62098 0.37068 0.0
H755 H 0.45699 0.62979 0.33372 0.0
H756 H 0.40489 0.63443 0.35546 0.0
H757 H 0.41807 0.62475 0.39247 0.0
H758 H 0.38735 0.60278 0.37445 0.0
H759 H 0.41414 0.49059 0.35941 0.0
H760 H 0.44606 0.48625 0.40473 0.0
H761 H 0.46442 0.58416 0.4092 0.0
C762 C 0.41377 0.59099 0.29831 0.0
C763 C 0.40582 0.57159 0.27278 0.0
C764 C 0.40046 0.53985 0.27659 0.0
C765 C 0.40297 0.52763 0.30526 0.0
C766 C 0.41097 0.54737 0.32993 0.0
C767 C 0.41673 0.57835 0.32668 0.0
C768 C 0.43023 0.59372 0.35539 0.0
C769 C 0.45997 0.61085 0.34923 0.0
C770 C 0.40885 0.61519 0.37032 0.0
C771 C 0.43377 0.56606 0.37418 0.0
C772 C 0.42087 0.53982 0.35982 0.0
C773 C 0.42376 0.51098 0.37125 0.0
C774 C 0.44179 0.50869 0.39698 0.0
C775 C 0.45708 0.53498 0.41018 0.0
C776 C 0.45214 0.56402 0.3996 0.0
H777 H 0.05976 0.41914 0.77471 0.0
H778 H 0.0976 0.5096 0.75619 0.0
H779 H 0.08811 0.52689 0.8088 0.0
H780 H 0.00065 0.44412 0.8152 0.0
H781 H 0.00011 0.414 0.84184 0.0
H782 H 0.01429 0.40764 0.80452 0.0
H783 H 0.06331 0.39226 0.82866 0.0
H784 H 0.04924 0.39912 0.86611 0.0
H785 H 0.08333 0.41838 0.85534 0.0
H786 H 0.07116 0.53551 0.8621 0.0
H787 H 0.04235 0.53621 0.90932 0.0
H788 H 0.01261 0.44158 0.89092 0.0
C789 C 0.06618 0.44258 0.78165 0.0
C790 C 0.07968 0.4629 0.76132 0.0
C791 C 0.08783 0.49336 0.77151 0.0
C792 C 0.08255 0.50341 0.80137 0.0
C793 C 0.06913 0.48276 0.82075 0.0
C794 C 0.0608 0.45304 0.81119 0.0
C795 C 0.04385 0.43631 0.83527 0.0
C796 C 0.0129 0.42488 0.8235 0.0
C797 C 0.06096 0.40996 0.84703 0.0
C798 C 0.0427 0.46172 0.85924 0.0
C799 C 0.05827 0.48804 0.85097 0.0
C800 C 0.05922 0.51494 0.86902 0.0
C801 C 0.04301 0.51515 0.89576 0.0
C802 C 0.02577 0.48886 0.90344 0.0
C803 C 0.0261 0.46174 0.88543 0.0
H804 H 0.73014 0.9683 0.91463 0.0
H805 H 0.74026 0.89708 0.97918 0.0
H806 H 0.69408 0.90944 0.00251 0.0
H807 H 0.69293 0.02153 0.9654 0.0
H808 H 0.66764 0.03212 0.93631 0.0
H809 H 0.70371 0.02093 0.92626 0.0
H810 H 0.68054 0.97904 0.88862 0.0
H811 H 0.64451 0.99044 0.89818 0.0
H812 H 0.65336 0.95131 0.90187 0.0
H813 H 0.64668 0.9271 0.01842 0.0
H814 H 0.59604 0.94333 0.02063 0.0
H815 H 0.61196 0.00011 0.94368 0.0
C816 C 0.7228 0.95532 0.93373 0.0
C817 C 0.73988 0.93228 0.94552 0.0
C818 C 0.72881 0.91579 0.97037 0.0
C819 C 0.70229 0.92249 0.9838 0.0
C820 C 0.68645 0.94551 0.97204 0.0
C821 C 0.69585 0.96134 0.94722 0.0
C822 C 0.67286 0.98297 0.93752 0.0
C823 C 0.68501 0.01637 0.94162 0.0
C824 C 0.66218 0.97547 0.9046 0.0
C825 C 0.64871 0.97581 0.96012 0.0
C826 C 0.65769 0.95482 0.98036 0.0
C827 C 0.63943 0.94369 0.00289 0.0
C828 C 0.61077 0.9532 0.00411 0.0
C829 C 0.60034 0.97335 0.98278 0.0
C830 C 0.61972 0.98538 0.96081 0.0
H831 H 0.78744 0.1124 0.47069 0.0
H832 H 0.77204 0.05962 0.38561 0.0
H833 H 0.8209 0.04017 0.39006 0.0
H834 H 0.86631 0.12963 0.46319 0.0
H835 H 0.87521 0.12368 0.50243 0.0
H836 H 0.83979 0.13669 0.49207 0.0
H837 H 0.81373 0.09095 0.51833 0.0
H838 H 0.84906 0.07824 0.52924 0.0
H839 H 0.82308 0.05268 0.50794 0.0
H840 H 0.87052 0.02713 0.40168 0.0
H841 H 0.91555 0.01098 0.42603 0.0
H842 H 0.89877 0.06612 0.50697 0.0
C843 C 0.79434 0.09676 0.45302 0.0
C844 C 0.77617 0.08865 0.42709 0.0
C845 C 0.78593 0.06755 0.40488 0.0
C846 C 0.81368 0.05617 0.40724 0.0
C847 C 0.83137 0.06547 0.4323 0.0
C848 C 0.822 0.08451 0.45532 0.0
C849 C 0.84478 0.08824 0.48111 0.0
C850 C 0.85725 0.12154 0.48492 0.0
C851 C 0.83189 0.07683 0.51092 0.0
C852 C 0.86793 0.06771 0.46907 0.0
C853 C 0.8599 0.05579 0.44039 0.0
C854 C 0.87711 0.0362 0.42414 0.0
C855 C 0.90268 0.02734 0.43806 0.0
C856 C 0.9105 0.03751 0.46814 0.0
C857 C 0.89339 0.05854 0.48373 0.0
H858 H 0.24137 0.56505 0.04186 0.0
H859 H 0.21996 0.63902 0.10383 0.0
H860 H 0.16791 0.63283 0.08625 0.0
H861 H 0.19005 0.58169 0.98044 0.0
H862 H 0.18037 0.54203 0.97073 0.0
H863 H 0.21643 0.55352 0.98633 0.0
H864 H 0.20899 0.51597 0.02998 0.0
H865 H 0.17354 0.50369 0.01374 0.0
H866 H 0.17665 0.51758 0.0528 0.0
H867 H 0.11954 0.62014 0.0611 0.0
H868 H 0.07417 0.59169 0.04227 0.0
H869 H 0.12557 0.52283 -0.00011 0.0
C870 C 0.22559 0.57995 0.05144 0.0
C871 C 0.23428 0.60293 0.07354 0.0
C872 C 0.21339 0.62176 0.08634 0.0
C873 C 0.18401 0.61855 0.07635 0.0
C874 C 0.17619 0.59652 0.05351 0.0
C875 C 0.19611 0.57692 0.04183 0.0
C876 C 0.18128 0.55338 0.01955 0.0
C877 C 0.19272 0.55792 0.98735 0.0
C878 C 0.18534 0.52073 0.02965 0.0
C879 C 0.14965 0.56185 0.02176 0.0
C880 C 0.14759 0.58778 0.04029 0.0
C881 C 0.1208 0.59994 0.04642 0.0
C882 C 0.09518 0.58394 0.03517 0.0
C883 C 0.09661 0.55553 0.01922 0.0
C884 C 0.12411 0.54504 0.01115 0.0
H885 H 0.26455 0.41274 0.5506 0.0
H886 H 0.2384 0.5055 0.54427 0.0
H887 H 0.28771 0.52133 0.52549 0.0
H888 H 0.3356 0.4323 0.57959 0.0
H889 H 0.35244 0.40162 0.55949 0.0
H890 H 0.31424 0.39742 0.56895 0.0
H891 H 0.30057 0.38527 0.51221 0.0
H892 H 0.3388 0.38987 0.50247 0.0
H893 H 0.31214 0.412 0.48415 0.0
H894 H 0.34023 0.52705 0.50842 0.0
H895 H 0.39391 0.52439 0.50299 0.0
H896 H 0.38646 0.42873 0.52405 0.0
C897 C 0.26906 0.43625 0.54466 0.0
C898 C 0.2476 0.45782 0.54833 0.0
C899 C 0.25454 0.48861 0.54137 0.0
C900 C 0.28236 0.49772 0.53047 0.0
C901 C 0.30298 0.47578 0.52686 0.0
C902 C 0.29678 0.44578 0.53421 0.0
C903 C 0.32356 0.4273 0.53112 0.0
C904 C 0.33195 0.4139 0.5616 0.0
C905 C 0.31846 0.40212 0.50599 0.0
C906 C 0.34612 0.45179 0.52184 0.0
C907 C 0.33359 0.47937 0.51852 0.0
C908 C 0.35021 0.50553 0.51069 0.0
C909 C 0.38062 0.50374 0.50733 0.0
C910 C 0.39408 0.47622 0.51262 0.0
C911 C 0.37651 0.44982 0.5193 0.0
H912 H 0.95974 0.74118 0.94927 0.0
H913 H 0.86728 0.72205 0.92629 0.0
H914 H 0.87087 0.66856 0.93993 0.0
H915 H 0.98513 0.66925 0.92202 0.0
H916 H 0.0112 0.66583 0.95277 0.0
H917 H 0.00171 0.70303 0.94163 0.0
H918 H 0.98681 0.71626 0.99666 0.0
H919 H 0.99606 0.679 0.00801 0.0
H920 H 0.95984 0.69169 0.01477 0.0
H921 H 0.88366 0.61765 0.95456 0.0
H922 H 0.90531 0.57031 0.96841 0.0
H923 H 0.99018 0.6198 0.98397 0.0
C924 C 0.94036 0.7256 0.94713 0.0
C925 C 0.91311 0.73579 0.93678 0.0
C926 C 0.88822 0.71482 0.93439 0.0
C927 C 0.89005 0.68438 0.94209 0.0
C928 C 0.91694 0.67507 0.95256 0.0
C929 C 0.94171 0.69489 0.95524 0.0
C930 C 0.96775 0.67838 0.96729 0.0
C931 C 0.99293 0.67916 0.94456 0.0
C932 C 0.97823 0.69216 0.99854 0.0
C933 C 0.95383 0.64608 0.96998 0.0
C934 C 0.9244 0.64508 0.96157 0.0
C935 C 0.90664 0.61814 0.96133 0.0
C936 C 0.91924 0.59127 0.96929 0.0
C937 C 0.94948 0.59111 0.97745 0.0
C938 C 0.96693 0.61915 0.97829 0.0
H939 H 0.39433 0.8045 0.08457 0.0
H940 H 0.47182 0.79544 0.1415 0.0
H941 H 0.48713 0.84926 0.13446 0.0
H942 H 0.43115 0.84031 0.02975 0.0
H943 H 0.40236 0.86451 0.0194 0.0
H944 H 0.3932 0.82905 0.03665 0.0
H945 H 0.36576 0.8585 0.07851 0.0
H946 H 0.37601 0.89427 0.06161 0.0
H947 H 0.38514 0.88889 0.10093 0.0
H948 H 0.49947 0.89932 0.11412 0.0
H949 H 0.51276 0.9354 0.07442 0.0
H950 H 0.42978 0.91166 0.02782 0.0
C951 C 0.41431 0.81388 0.09599 0.0
C952 C 0.43159 0.79566 0.11395 0.0
C953 C 0.45762 0.809 0.12836 0.0
C954 C 0.46647 0.83971 0.12461 0.0
C955 C 0.44916 0.85688 0.10632 0.0
C956 C 0.42378 0.84426 0.09189 0.0
C957 C 0.4125 0.86509 0.06843 0.0
C958 C 0.4097 0.84878 0.03672 0.0
C959 C 0.38311 0.87742 0.07796 0.0
C960 C 0.43689 0.89018 0.07011 0.0
C961 C 0.45698 0.88591 0.0933 0.0
C962 C 0.48356 0.90349 0.09648 0.0
C963 C 0.49088 0.92414 0.07403 0.0
C964 C 0.47189 0.92631 0.04874 0.0
C965 C 0.44393 0.91085 0.04775 0.0
H966 H 0.0592 0.24673 0.59637 0.0
H967 H 0.02298 0.2755 0.51141 0.0
H968 H 0.0093 0.22129 0.49596 0.0
H969 H 0.09202 0.18266 0.56415 0.0
H970 H 0.08578 0.15956 0.59659 0.0
H971 H 0.0899 0.20048 0.60154 0.0
H972 H 0.03955 0.20063 0.62794 0.0
H973 H 0.0353 0.15967 0.62314 0.0
H974 H 0.00728 0.18276 0.60871 0.0
H975 H 0.00117 0.16261 0.48982 0.0
H976 H 0.00201 0.10626 0.49251 0.0
H977 H 0.04554 0.11826 0.58101 0.0
C978 C 0.04782 0.24163 0.57478 0.0
C979 C 0.0416 0.26511 0.55526 0.0
C980 C 0.02764 0.25765 0.52673 0.0
C981 C 0.01977 0.22702 0.51786 0.0
C982 C 0.02644 0.20427 0.53766 0.0
C983 C 0.04035 0.21137 0.56546 0.0
C984 C 0.04728 0.18304 0.58175 0.0
C985 C 0.08072 0.18134 0.58625 0.0
C986 C 0.03139 0.18144 0.61218 0.0
C987 C 0.03482 0.15876 0.55905 0.0
C988 C 0.02273 0.17119 0.53376 0.0
C989 C 0.01052 0.15269 0.5096 0.0
C990 C 0.01104 0.12074 0.51131 0.0
C991 C 0.02388 0.1078 0.5369 0.0
C992 C 0.03556 0.12727 0.56105 0.0
H993 H 0.55095 0.27367 0.48058 0.0
H994 H 0.61382 0.28573 0.40873 0.0
H995 H 0.60249 0.33973 0.40586 0.0
H996 H 0.49718 0.32194 0.45279 0.0
H997 H 0.48851 0.33854 0.48935 0.0
H998 H 0.50155 0.30067 0.48655 0.0
H999 H 0.54403 0.31689 0.52483 0.0
H1000 H 0.53091 0.35471 0.52805 0.0
H1001 H 0.56836 0.34964 0.51754 0.0
H1002 H 0.58333 0.39017 0.40836 0.0
H1003 H 0.56115 0.43839 0.41969 0.0
H1004 H 0.5115 0.3967 0.49232 0.0
C1005 C 0.56236 0.28794 0.46452 0.0
C1006 C 0.58323 0.27592 0.44482 0.0
C1007 C 0.5979 0.29486 0.42401 0.0
C1008 C 0.59153 0.3254 0.42216 0.0
C1009 C 0.57067 0.33663 0.44155 0.0
C1010 C 0.55661 0.31885 0.46273 0.0
C1011 C 0.53567 0.33737 0.48123 0.0
C1012 C 0.50384 0.32382 0.47723 0.0
C1013 C 0.54532 0.3398 0.51491 0.0
C1014 C 0.53981 0.36805 0.46659 0.0
C1015 C 0.56005 0.36677 0.44369 0.0
C1016 C 0.56766 0.39166 0.42642 0.0
C1017 C 0.55481 0.419 0.4331 0.0
C1018 C 0.53464 0.42153 0.45709 0.0
C1019 C 0.52675 0.3955 0.47383 0.0
loop_
_geom_bond_atom_site_label_1
_geom_bond_atom_site_label_2
_geom_bond_distance
_geom_bond_site_symmetry_2
_ccdc_geom_bond_type
C0 C1 1.384 . S
C0 H13 0.947 . S
C0 C35 1.382 . S
C1 C0 1.384 . S
C1 C2 1.378 . S
C2 C1 1.378 . S
C2 C3 1.378 . S
C2 H14 0.952 . S
C3 C2 1.378 . S
C3 H15 0.950 . S
C3 C34 1.383 . S
H4 C23 0.947 . S
H5 C24 0.946 . S
H6 C26 0.953 . S
H7 C27 0.945 . S
H8 C29 0.952 . S
H9 C30 0.949 . S
H10 C32 0.950 . S
H11 C33 0.948 . S
H12 C35 0.951 . S
H13 C0 0.947 . S
H14 C2 0.952 . S
H15 C3 0.950 . S
N16 C19 1.382 . S
N16 C21 1.363 . S
N17 C19 1.371 . S
N17 C20 1.372 . S
N18 C20 1.361 . S
N18 C21 1.377 . S
C19 N16 1.382 . S
C19 N17 1.371 . S
C19 C22 1.480 . S
C20 N17 1.372 . S
C20 N18 1.361 . S
C20 C28 1.457 . S
C21 N16 1.363 . S
C21 N18 1.377 . S
C21 C34 1.479 . S
C22 C19 1.480 . S
C22 C23 1.383 . S
C22 C27 1.385 . S
C23 H4 0.947 . S
C23 C22 1.383 . S
C23 C24 1.388 . S
C24 H5 0.946 . S
C24 C23 1.388 . S
C24 C25 1.384 . S
C25 C24 1.384 . S
C25 C26 1.377 . S
C26 H6 0.953 . S
C26 C25 1.377 . S
C26 C27 1.369 . S
C27 H7 0.945 . S
C27 C22 1.385 . S
C27 C26 1.369 . S
C28 C20 1.457 . S
C28 C29 1.372 . S
C28 C33 1.364 . S
C29 H8 0.952 . S
C29 C28 1.372 . S
C29 C30 1.389 . S
C30 H9 0.949 . S
C30 C29 1.389 . S
C30 C31 1.387 . S
C31 C30 1.387 . S
C31 C32 1.372 . S
C32 H10 0.950 . S
C32 C31 1.372 . S
C32 C33 1.379 . S
C33 H11 0.948 . S
C33 C28 1.364 . S
C33 C32 1.379 . S
C34 C3 1.383 . S
C34 C21 1.479 . S
C34 C35 1.398 . S
C35 C0 1.382 . S
C35 H12 0.951 . S
C35 C34 1.398 . S
C36 C37 1.384 . S
C36 H49 0.947 . S
C36 C71 1.382 . S
C37 C36 1.384 . S
C37 C38 1.378 . S
C38 C37 1.378 . S
C38 C39 1.378 . S
C38 H50 0.952 . S
C39 C38 1.378 . S
C39 H51 0.950 . S
C39 C70 1.383 . S
H40 C59 0.947 . S
H41 C60 0.946 . S
H42 C62 0.953 . S
H43 C63 0.945 . S
H44 C65 0.952 . S
H45 C66 0.949 . S
H46 C68 0.950 . S
H47 C69 0.948 . S
H48 C71 0.951 . S
H49 C36 0.947 . S
H50 C38 0.952 . S
H51 C39 0.950 . S
N52 C55 1.382 . S
N52 C57 1.363 . S
N53 C55 1.371 . S
N53 C56 1.372 . S
N54 C56 1.361 . S
N54 C57 1.377 . S
C55 N52 1.382 . S
C55 N53 1.371 . S
C55 C58 1.480 . S
C56 N53 1.372 . S
C56 N54 1.361 . S
C56 C64 1.457 . S
C57 N52 1.363 . S
C57 N54 1.377 . S
C57 C70 1.479 . S
C58 C55 1.480 . S
C58 C59 1.383 . S
C58 C63 1.385 . S
C59 H40 0.947 . S
C59 C58 1.383 . S
C59 C60 1.388 . S
C60 H41 0.946 . S
C60 C59 1.388 . S
C60 C61 1.384 . S
C61 C60 1.384 . S
C61 C62 1.377 . S
C62 H42 0.953 . S
C62 C61 1.377 . S
C62 C63 1.369 . S
C63 H43 0.945 . S
C63 C58 1.385 . S
C63 C62 1.369 . S
C64 C56 1.457 . S
C64 C65 1.372 . S
C64 C69 1.364 . S
C65 H44 0.952 . S
C65 C64 1.372 . S
C65 C66 1.389 . S
C66 H45 0.949 . S
C66 C65 1.389 . S
C66 C67 1.387 . S
C67 C66 1.387 . S
C67 C68 1.372 . S
C68 H46 0.950 . S
C68 C67 1.372 . S
C68 C69 1.379 . S
C69 H47 0.948 . S
C69 C64 1.364 . S
C69 C68 1.379 . S
C70 C39 1.383 . S
C70 C57 1.479 . S
C70 C71 1.398 . S
C71 C36 1.382 . S
C71 H48 0.951 . S
C71 C70 1.398 . S
C72 C73 1.384 . S
C72 H85 0.947 . S
C72 C107 1.382 . S
C73 C72 1.384 . S
C73 C74 1.378 . S
C74 C73 1.378 . S
C74 C75 1.378 . S
C74 H86 0.952 . S
C75 C74 1.378 . S
C75 H87 0.950 . S
C75 C106 1.383 . S
H76 C95 0.947 . S
H77 C96 0.946 . S
H78 C98 0.953 . S
H79 C99 0.945 . S
H80 C101 0.952 . S
H81 C102 0.949 . S
H82 C104 0.950 . S
H83 C105 0.948 . S
H84 C107 0.951 . S
H85 C72 0.947 . S
H86 C74 0.952 . S
H87 C75 0.950 . S
N88 C91 1.382 . S
N88 C93 1.363 . S
N89 C91 1.371 . S
N89 C92 1.372 . S
N90 C92 1.361 . S
N90 C93 1.377 . S
C91 N88 1.382 . S
C91 N89 1.371 . S
C91 C94 1.480 . S
C92 N89 1.372 . S
C92 N90 1.361 . S
C92 C100 1.457 . S
C93 N88 1.363 . S
C93 N90 1.377 . S
C93 C106 1.479 . S
C94 C91 1.480 . S
C94 C95 1.383 . S
C94 C99 1.385 . S
C95 H76 0.947 . S
C95 C94 1.383 . S
C95 C96 1.388 . S
C96 H77 0.946 . S
C96 C95 1.388 . S
C96 C97 1.384 . S
C97 C96 1.384 . S
C97 C98 1.377 . S
C98 H78 0.953 . S
C98 C97 1.377 . S
C98 C99 1.369 . S
C99 H79 0.945 . S
C99 C94 1.385 . S
C99 C98 1.369 . S
C100 C92 1.457 . S
C100 C101 1.372 . S
C100 C105 1.364 . S
C101 H80 0.952 . S
C101 C100 1.372 . S
C101 C102 1.389 . S
C102 H81 0.949 . S
C102 C101 1.389 . S
C102 C103 1.387 . S
C103 C102 1.387 . S
C103 C104 1.372 . S
C104 H82 0.950 . S
C104 C103 1.372 . S
C104 C105 1.379 . S
C105 H83 0.948 . S
C105 C100 1.364 . S
C105 C104 1.379 . S
C106 C75 1.383 . S
C106 C93 1.479 . S
C106 C107 1.398 . S
C107 C72 1.382 . S
C107 H84 0.951 . S
C107 C106 1.398 . S
C108 C109 1.384 . S
C108 H121 0.947 . S
C108 C143 1.382 . S
C109 C108 1.384 . S
C109 C110 1.378 . S
C110 C109 1.378 . S
C110 C111 1.378 . S
C110 H122 0.952 . S
C111 C110 1.378 . S
C111 H123 0.950 . S
C111 C142 1.383 . S
H112 C131 0.947 . S
H113 C132 0.946 . S
H114 C134 0.953 . S
H115 C135 0.945 . S
H116 C137 0.952 . S
H117 C138 0.949 . S
H118 C140 0.950 . S
H119 C141 0.948 . S
H120 C143 0.951 . S
H121 C108 0.947 . S
H122 C110 0.952 . S
H123 C111 0.950 . S
N124 C127 1.382 . S
N124 C129 1.363 . S
N125 C127 1.371 . S
N125 C128 1.372 . S
N126 C128 1.361 . S
N126 C129 1.377 . S
C127 N124 1.382 . S
C127 N125 1.371 . S
C127 C130 1.480 . S
C128 N125 1.372 . S
C128 N126 1.361 . S
C128 C136 1.457 . S
C129 N124 1.363 . S
C129 N126 1.377 . S
C129 C142 1.479 . S
C130 C127 1.480 . S
C130 C131 1.383 . S
C130 C135 1.385 . S
C131 H112 0.947 . S
C131 C130 1.383 . S
C131 C132 1.388 . S
C132 H113 0.946 . S
C132 C131 1.388 . S
C132 C133 1.384 . S
C133 C132 1.384 . S
C133 C134 1.377 . S
C134 H114 0.953 . S
C134 C133 1.377 . S
C134 C135 1.369 . S
C135 H115 0.945 . S
C135 C130 1.385 . S
C135 C134 1.369 . S
C136 C128 1.457 . S
C136 C137 1.372 . S
C136 C141 1.364 . S
C137 H116 0.952 . S
C137 C136 1.372 . S
C137 C138 1.389 . S
C138 H117 0.949 . S
C138 C137 1.389 . S
C138 C139 1.387 . S
C139 C138 1.387 . S
C139 C140 1.372 . S
C140 H118 0.950 . S
C140 C139 1.372 . S
C140 C141 1.379 . S
C141 H119 0.948 . S
C141 C136 1.364 . S
C141 C140 1.379 . S
C142 C111 1.383 . S
C142 C129 1.479 . S
C142 C143 1.398 . S
C143 C108 1.382 . S
C143 H120 0.951 . S
C143 C142 1.398 . S
C144 C145 1.384 . S
C144 H157 0.947 . S
C144 C179 1.382 . S
C145 C144 1.384 . S
C145 C146 1.378 . S
C146 C145 1.378 . S
C146 C147 1.378 . S
C146 H158 0.952 . S
C147 C146 1.378 . S
C147 H159 0.950 . S
C147 C178 1.383 . S
H148 C167 0.947 . S
H149 C168 0.946 . S
H150 C170 0.953 . S
H151 C171 0.945 . S
H152 C173 0.952 . S
H153 C174 0.949 . S
H154 C176 0.950 . S
H155 C177 0.948 . S
H156 C179 0.951 . S
H157 C144 0.947 . S
H158 C146 0.952 . S
H159 C147 0.950 . S
N160 C163 1.382 . S
N160 C165 1.363 . S
N161 C163 1.371 . S
N161 C164 1.372 . S
N162 C164 1.361 . S
N162 C165 1.377 . S
C163 N160 1.382 . S
C163 N161 1.371 . S
C163 C166 1.480 . S
C164 N161 1.372 . S
C164 N162 1.361 . S
C164 C172 1.457 . S
C165 N160 1.363 . S
C165 N162 1.377 . S
C165 C178 1.479 . S
C166 C163 1.480 . S
C166 C167 1.383 . S
C166 C171 1.385 . S
C167 H148 0.947 . S
C167 C166 1.383 . S
C167 C168 1.388 . S
C168 H149 0.946 . S
C168 C167 1.388 . S
C168 C169 1.384 . S
C169 C168 1.384 . S
C169 C170 1.377 . S
C170 H150 0.953 . S
C170 C169 1.377 . S
C170 C171 1.369 . S
C171 H151 0.945 . S
C171 C166 1.385 . S
C171 C170 1.369 . S
C172 C164 1.457 . S
C172 C173 1.372 . S
C172 C177 1.364 . S
C173 H152 0.952 . S
C173 C172 1.372 . S
C173 C174 1.389 . S
C174 H153 0.949 . S
C174 C173 1.389 . S
C174 C175 1.387 . S
C175 C174 1.387 . S
C175 C176 1.372 . S
C176 H154 0.950 . S
C176 C175 1.372 . S
C176 C177 1.379 . S
C177 H155 0.948 . S
C177 C172 1.364 . S
C177 C176 1.379 . S
C178 C147 1.383 . S
C178 C165 1.479 . S
C178 C179 1.398 . S
C179 C144 1.382 . S
C179 H156 0.951 . S
C179 C178 1.398 . S
C180 C181 1.384 . S
C180 H193 0.947 . S
C180 C215 1.382 . S
C181 C180 1.384 . S
C181 C182 1.378 . S
C182 C181 1.378 . S
C182 C183 1.378 . S
C182 H194 0.952 . S
C183 C182 1.378 . S
C183 H195 0.950 . S
C183 C214 1.383 . S
H184 C203 0.947 . S
H185 C204 0.946 . S
H186 C206 0.953 . S
H187 C207 0.945 . S
H188 C209 0.952 . S
H189 C210 0.949 . S
H190 C212 0.950 . S
H191 C213 0.948 . S
H192 C215 0.951 . S
H193 C180 0.947 . S
H194 C182 0.952 . S
H195 C183 0.950 . S
N196 C199 1.382 . S
N196 C201 1.363 . S
N197 C199 1.371 . S
N197 C200 1.372 . S
N198 C200 1.361 . S
N198 C201 1.377 . S
C199 N196 1.382 . S
C199 N197 1.371 . S
C199 C202 1.480 . S
C200 N197 1.372 . S
C200 N198 1.361 . S
C200 C208 1.457 . S
C201 N196 1.363 . S
C201 N198 1.377 . S
C201 C214 1.479 . S
C202 C199 1.480 . S
C202 C203 1.383 . S
C202 C207 1.385 . S
C203 H184 0.947 . S
C203 C202 1.383 . S
C203 C204 1.388 . S
C204 H185 0.946 . S
C204 C203 1.388 . S
C204 C205 1.384 . S
C205 C204 1.384 . S
C205 C206 1.377 . S
C206 H186 0.953 . S
C206 C205 1.377 . S
C206 C207 1.369 . S
C207 H187 0.945 . S
C207 C202 1.385 . S
C207 C206 1.369 . S
C208 C200 1.457 . S
C208 C209 1.372 . S
C208 C213 1.364 . S
C209 H188 0.952 . S
C209 C208 1.372 . S
C209 C210 1.389 . S
C210 H189 0.949 . S
C210 C209 1.389 . S
C210 C211 1.387 . S
C211 C210 1.387 . S
C211 C212 1.372 . S
C212 H190 0.950 . S
C212 C211 1.372 . S
C212 C213 1.379 . S
C213 H191 0.948 . S
C213 C208 1.364 . S
C213 C212 1.379 . S
C214 C183 1.383 . S
C214 C201 1.479 . S
C214 C215 1.398 . S
C215 C180 1.382 . S
C215 H192 0.951 . S
C215 C214 1.398 . S
C216 C217 1.384 . S
C216 H229 0.947 . S
C216 C251 1.382 . S
C217 C216 1.384 . S
C217 C218 1.378 . S
C218 C217 1.378 . S
C218 C219 1.378 . S
C218 H230 0.952 . S
C219 C218 1.378 . S
C219 H231 0.950 . S
C219 C250 1.383 . S
H220 C239 0.947 . S
H221 C240 0.946 . S
H222 C242 0.953 . S
H223 C243 0.945 . S
H224 C245 0.952 . S
H225 C246 0.949 . S
H226 C248 0.950 . S
H227 C249 0.948 . S
H228 C251 0.951 . S
H229 C216 0.947 . S
H230 C218 0.952 . S
H231 C219 0.950 . S
N232 C235 1.382 . S
N232 C237 1.363 . S
N233 C235 1.371 . S
N233 C236 1.372 . S
N234 C236 1.361 . S
N234 C237 1.377 . S
C235 N232 1.382 . S
C235 N233 1.371 . S
C235 C238 1.480 . S
C236 N233 1.372 . S
C236 N234 1.361 . S
C236 C244 1.457 . S
C237 N232 1.363 . S
C237 N234 1.377 . S
C237 C250 1.479 . S
C238 C235 1.480 . S
C238 C239 1.383 . S
C238 C243 1.385 . S
C239 H220 0.947 . S
C239 C238 1.383 . S
C239 C240 1.388 . S
C240 H221 0.946 . S
C240 C239 1.388 . S
C240 C241 1.384 . S
C241 C240 1.384 . S
C241 C242 1.377 . S
C242 H222 0.953 . S
C242 C241 1.377 . S
C242 C243 1.369 . S
C243 H223 0.945 . S
C243 C238 1.385 . S
C243 C242 1.369 . S
C244 C236 1.457 . S
C244 C245 1.372 . S
C244 C249 1.364 . S
C245 H224 0.952 . S
C245 C244 1.372 . S
C245 C246 1.389 . S
C246 H225 0.949 . S
C246 C245 1.389 . S
C246 C247 1.387 . S
C247 C246 1.387 . S
C247 C248 1.372 . S
C248 H226 0.950 . S
C248 C247 1.372 . S
C248 C249 1.379 . S
C249 H227 0.948 . S
C249 C244 1.364 . S
C249 C248 1.379 . S
C250 C219 1.383 . S
C250 C237 1.479 . S
C250 C251 1.398 . S
C251 C216 1.382 . S
C251 H228 0.951 . S
C251 C250 1.398 . S
C252 C253 1.384 . S
C252 H265 0.947 . S
C252 C287 1.382 . S
C253 C252 1.384 . S
C253 C254 1.378 . S
C254 C253 1.378 . S
C254 C255 1.378 . S
C254 H266 0.952 . S
C255 C254 1.378 . S
C255 H267 0.950 . S
C255 C286 1.383 . S
H256 C275 0.947 . S
H257 C276 0.946 . S
H258 C278 0.953 . S
H259 C279 0.945 . S
H260 C281 0.952 . S
H261 C282 0.949 . S
H262 C284 0.950 . S
H263 C285 0.948 . S
H264 C287 0.951 . S
H265 C252 0.947 . S
H266 C254 0.952 . S
H267 C255 0.950 . S
N268 C271 1.382 . S
N268 C273 1.363 . S
N269 C271 1.371 . S
N269 C272 1.372 . S
N270 C272 1.361 . S
N270 C273 1.377 . S
C271 N268 1.382 . S
C271 N269 1.371 . S
C271 C274 1.480 . S
C272 N269 1.372 . S
C272 N270 1.361 . S
C272 C280 1.457 . S
C273 N268 1.363 . S
C273 N270 1.377 . S
C273 C286 1.479 . S
C274 C271 1.480 . S
C274 C275 1.383 . S
C274 C279 1.385 . S
C275 H256 0.947 . S
C275 C274 1.383 . S
C275 C276 1.388 . S
C276 H257 0.946 . S
C276 C275 1.388 . S
C276 C277 1.384 . S
C277 C276 1.384 . S
C277 C278 1.377 . S
C278 H258 0.953 . S
C278 C277 1.377 . S
C278 C279 1.369 . S
C279 H259 0.945 . S
C279 C274 1.385 . S
C279 C278 1.369 . S
C280 C272 1.457 . S
C280 C281 1.372 . S
C280 C285 1.364 . S
C281 H260 0.952 . S
C281 C280 1.372 . S
C281 C282 1.389 . S
C282 H261 0.949 . S
C282 C281 1.389 . S
C282 C283 1.387 . S
C283 C282 1.387 . S
C283 C284 1.372 . S
C284 H262 0.950 . S
C284 C283 1.372 . S
C284 C285 1.379 . S
C285 H263 0.948 . S
C285 C280 1.364 . S
C285 C284 1.379 . S
C286 C255 1.383 . S
C286 C273 1.479 . S
C286 C287 1.398 . S
C287 C252 1.382 . S
C287 H264 0.951 . S
C287 C286 1.398 . S
O288 Mg289 1.990 . S
O288 C302 1.253 1_445 S
Mg289 O288 1.990 . S
Mg289 O292 2.180 . S
Mg289 O293 2.117 . S
Mg289 O307 2.030 1_545 S
O290 Mg291 2.072 1_665 S
O290 C302 1.260 . S
Mg291 O290 2.072 1_445 S
Mg291 O292 2.099 . S
Mg291 O294 2.079 . S
Mg291 O295 2.072 1_455 S
Mg291 O297 2.099 1_445 S
Mg291 O308 2.079 1_545 S
O292 Mg289 2.180 . S
O292 Mg291 2.099 . S
O292 C303 1.279 . S
O293 Mg289 2.117 . S
O293 C303 1.250 . S
O294 Mg291 2.079 . S
O294 C304 1.264 . S
O295 Mg291 2.072 1_655 S
O295 C305 1.260 . S
Mg296 O297 2.180 . S
Mg296 O298 2.030 1_565 S
Mg296 O299 1.990 1_565 S
Mg296 O300 2.117 . S
O297 Mg291 2.099 1_665 S
O297 Mg296 2.180 . S
O297 C306 1.279 . S
O298 Mg296 2.030 1_545 S
O298 C304 1.248 1_655 S
O299 Mg296 1.990 1_545 S
O299 C305 1.253 . S
O300 Mg296 2.117 . S
O300 C306 1.250 . S
C301 O307 1.248 . S
C301 O308 1.264 . S
C302 O288 1.253 1_665 S
C302 O290 1.260 . S
C303 O292 1.279 . S
C303 O293 1.250 . S
C304 O294 1.264 . S
C304 O298 1.248 1_455 S
C305 O295 1.260 . S
C305 O299 1.253 . S
C306 O297 1.279 . S
C306 O300 1.250 . S
O307 Mg289 2.030 1_565 S
O307 C301 1.248 . S
O308 Mg291 2.079 1_565 S
O308 C301 1.264 . S
O309 Mg310 1.990 . S
O309 C323 1.253 . S
Mg310 O309 1.990 . S
Mg310 O313 2.163 1_554 S
Mg310 O314 2.117 1_554 S
Mg310 O328 2.030 . S
O311 Mg312 2.072 . S
O311 C323 1.260 . S
Mg312 O311 2.072 . S
Mg312 O313 2.094 1_554 S
Mg312 O315 2.079 1_554 S
Mg312 O316 2.072 1_554 S
Mg312 O318 2.099 1_545 S
Mg312 O329 2.079 . S
O313 Mg310 2.163 1_556 S
O313 Mg312 2.094 1_556 S
O313 C324 1.296 . S
O314 Mg310 2.117 1_556 S
O314 C324 1.250 . S
O315 Mg312 2.079 1_556 S
O315 C325 1.264 1_545 S
O316 Mg312 2.072 1_556 S
O316 C326 1.260 1_545 S
Mg317 O318 2.180 1_556 S
Mg317 O319 2.030 . S
Mg317 O320 1.990 . S
Mg317 O321 2.117 1_556 S
O318 Mg312 2.099 1_565 S
O318 Mg317 2.180 1_554 S
O318 C327 1.279 . S
O319 Mg317 2.030 . S
O319 C325 1.248 . S
O320 Mg317 1.990 . S
O320 C326 1.253 . S
O321 Mg317 2.117 1_554 S
O321 C327 1.250 . S
C322 O328 1.248 . S
C322 O329 1.264 . S
C323 O309 1.253 . S
C323 O311 1.260 . S
C324 O313 1.296 . S
C324 O314 1.250 . S
C325 O315 1.264 1_565 S
C325 O319 1.248 . S
C326 O316 1.260 1_565 S
C326 O320 1.253 . S
C327 O318 1.279 . S
C327 O321 1.250 . S
O328 Mg310 2.030 . S
O328 C322 1.248 . S
O329 Mg312 2.079 . S
O329 C322 1.264 . S
O330 Mg331 1.990 . S
O330 C344 1.253 . S
Mg331 O330 1.990 . S
Mg331 O334 2.180 . S
Mg331 O335 2.117 . S
Mg331 O349 2.030 . S
O332 Mg333 2.072 . S
O332 C344 1.260 . S
Mg333 O332 2.072 . S
Mg333 O334 2.099 . S
Mg333 O336 2.079 . S
Mg333 O337 2.072 . S
Mg333 O339 2.099 . S
Mg333 O350 2.079 . S
O334 Mg331 2.180 . S
O334 Mg333 2.099 . S
O334 C345 1.279 . S
O335 Mg331 2.117 . S
O335 C345 1.250 . S
O336 Mg333 2.079 . S
O336 C346 1.264 . S
O337 Mg333 2.072 . S
O337 C347 1.260 . S
Mg338 O339 2.180 . S
Mg338 O340 2.030 . S
Mg338 O341 1.990 . S
Mg338 O342 2.117 . S
O339 Mg333 2.099 . S
O339 Mg338 2.180 . S
O339 C348 1.279 . S
O340 Mg338 2.030 . S
O340 C346 1.248 . S
O341 Mg338 1.990 . S
O341 C347 1.253 . S
O342 Mg338 2.117 . S
O342 C348 1.250 . S
C343 O349 1.248 . S
C343 O350 1.264 . S
C344 O330 1.253 . S
C344 O332 1.260 . S
C345 O334 1.279 . S
C345 O335 1.250 . S
C346 O336 1.264 . S
C346 O340 1.248 . S
C347 O337 1.260 . S
C347 O341 1.253 . S
C348 O339 1.279 . S
C348 O342 1.250 . S
O349 Mg331 2.030 . S
O349 C343 1.248 . S
O350 Mg333 2.079 . S
O350 C343 1.264 . S
O351 Mg352 1.990 . S
O351 C365 1.253 . S
Mg352 O351 1.990 . S
Mg352 O355 2.180 1_455 S
Mg352 O356 2.117 1_455 S
Mg352 O370 2.030 . S
O353 Mg354 2.072 . S
O353 C365 1.260 . S
Mg354 O353 2.072 . S
Mg354 O355 2.099 1_455 S
Mg354 O357 2.079 1_454 S
Mg354 O358 2.072 1_455 S
Mg354 O360 2.099 1_554 S
Mg354 O371 2.079 . S
O355 Mg352 2.180 1_655 S
O355 Mg354 2.099 1_655 S
O355 C366 1.279 . S
O356 Mg352 2.117 1_655 S
O356 C366 1.250 . S
O357 Mg354 2.079 1_656 S
O357 C367 1.264 . S
O358 Mg354 2.072 1_655 S
O358 C368 1.260 1_554 S
Mg359 O360 2.180 1_655 S
Mg359 O361 2.030 . S
Mg359 O362 1.990 . S
Mg359 O363 2.117 . S
O360 Mg354 2.099 1_556 S
O360 Mg359 2.180 1_455 S
O360 C369 1.279 . S
O361 Mg359 2.030 . S
O361 C367 1.248 . S
O362 Mg359 1.990 . S
O362 C368 1.253 . S
O363 Mg359 2.117 . S
O363 C369 1.250 1_655 S
C364 O370 1.248 . S
C364 O371 1.264 . S
C365 O351 1.253 . S
C365 O353 1.260 . S
C366 O355 1.279 . S
C366 O356 1.250 . S
C367 O357 1.264 . S
C367 O361 1.248 . S
C368 O358 1.260 1_556 S
C368 O362 1.253 . S
C369 O360 1.279 . S
C369 O363 1.250 1_455 S
O370 Mg352 2.030 . S
O370 C364 1.248 . S
O371 Mg354 2.079 . S
O371 C364 1.264 . S
H372 C384 0.930 . S
H373 C386 0.930 . S
H374 C387 0.930 . S
H375 C391 0.959 . S
H376 C391 0.959 . S
H377 C391 0.961 . S
H378 C392 0.960 . S
H379 C392 0.961 1_655 S
H380 C392 0.959 1_655 S
H381 C395 0.931 1_565 S
H382 C396 0.931 1_565 S
H383 C398 0.930 . S
C384 H372 0.930 . S
C384 C385 1.399 . S
C384 C389 1.399 . S
C385 C384 1.399 . S
C385 C386 1.376 . S
C386 H373 0.930 . S
C386 C385 1.376 . S
C386 C387 1.388 . S
C387 H374 0.930 . S
C387 C386 1.388 . S
C387 C388 1.390 . S
C388 C387 1.390 . S
C388 C389 1.394 . S
C388 C394 1.465 . S
C389 C384 1.399 . S
C389 C388 1.394 . S
C389 C390 1.516 . S
C390 C389 1.516 . S
C390 C391 1.502 . S
C390 C392 1.561 . S
C390 C393 1.526 . S
C391 H375 0.959 . S
C391 H376 0.959 . S
C391 H377 0.961 . S
C391 C390 1.502 . S
C392 H378 0.960 . S
C392 H379 0.961 1_455 S
C392 H380 0.959 1_455 S
C392 C390 1.561 . S
C393 C390 1.526 . S
C393 C394 1.396 . S
C393 C398 1.390 . S
C394 C388 1.465 . S
C394 C393 1.396 . S
C394 C395 1.399 . S
C395 H381 0.931 1_545 S
C395 C394 1.399 . S
C395 C396 1.385 . S
C396 H382 0.931 1_545 S
C396 C395 1.385 . S
C396 C397 1.389 . S
C397 C396 1.389 . S
C397 C398 1.387 . S
C398 H383 0.930 . S
C398 C393 1.390 . S
C398 C397 1.387 . S
H399 C411 0.930 . S
H400 C413 0.930 . S
H401 C414 0.930 . S
H402 C418 0.959 . S
H403 C418 0.959 . S
H404 C418 0.961 . S
H405 C419 0.960 . S
H406 C419 0.961 . S
H407 C419 0.959 . S
H408 C422 0.929 . S
H409 C423 0.931 . S
H410 C425 0.930 . S
C411 H399 0.930 . S
C411 C412 1.399 . S
C411 C416 1.399 . S
C412 C411 1.399 . S
C412 C413 1.376 . S
C413 H400 0.930 . S
C413 C412 1.376 . S
C413 C414 1.388 . S
C414 H401 0.930 . S
C414 C413 1.388 . S
C414 C415 1.390 . S
C415 C414 1.390 . S
C415 C416 1.394 . S
C415 C421 1.465 . S
C416 C411 1.399 . S
C416 C415 1.394 . S
C416 C417 1.516 . S
C417 C416 1.516 . S
C417 C418 1.502 . S
C417 C419 1.561 . S
C417 C420 1.526 . S
C418 H402 0.959 . S
C418 H403 0.959 . S
C418 H404 0.961 . S
C418 C417 1.502 . S
C419 H405 0.960 . S
C419 H406 0.961 . S
C419 H407 0.959 . S
C419 C417 1.561 . S
C420 C417 1.526 . S
C420 C421 1.396 . S
C420 C425 1.390 . S
C421 C415 1.465 . S
C421 C420 1.396 . S
C421 C422 1.399 1_565 S
C422 H408 0.929 . S
C422 C421 1.399 1_545 S
C422 C423 1.385 . S
C423 H409 0.931 . S
C423 C422 1.385 . S
C423 C424 1.389 1_545 S
C424 C423 1.389 1_565 S
C424 C425 1.387 . S
C425 H410 0.930 . S
C425 C420 1.390 . S
C425 C424 1.387 . S
H426 C438 0.930 . S
H427 C440 0.930 . S
H428 C441 0.930 . S
H429 C445 0.959 . S
H430 C445 0.959 . S
H431 C445 0.961 . S
H432 C446 0.960 . S
H433 C446 0.961 . S
H434 C446 0.959 . S
H435 C449 0.929 . S
H436 C450 0.931 . S
H437 C452 0.930 . S
C438 H426 0.930 . S
C438 C439 1.399 . S
C438 C443 1.399 . S
C439 C438 1.399 . S
C439 C440 1.376 . S
C440 H427 0.930 . S
C440 C439 1.376 . S
C440 C441 1.388 . S
C441 H428 0.930 . S
C441 C440 1.388 . S
C441 C442 1.390 . S
C442 C441 1.390 . S
C442 C443 1.394 . S
C442 C448 1.465 . S
C443 C438 1.399 . S
C443 C442 1.394 . S
C443 C444 1.516 . S
C444 C443 1.516 . S
C444 C445 1.502 . S
C444 C446 1.561 . S
C444 C447 1.526 . S
C445 H429 0.959 . S
C445 H430 0.959 . S
C445 H431 0.961 . S
C445 C444 1.502 . S
C446 H432 0.960 . S
C446 H433 0.961 . S
C446 H434 0.959 . S
C446 C444 1.561 . S
C447 C444 1.526 . S
C447 C448 1.396 . S
C447 C452 1.390 . S
C448 C442 1.465 . S
C448 C447 1.396 . S
C448 C449 1.399 . S
C449 H435 0.929 . S
C449 C448 1.399 . S
C449 C450 1.385 . S
C450 H436 0.931 . S
C450 C449 1.385 . S
C450 C451 1.389 . S
C451 C450 1.389 . S
C451 C452 1.387 . S
C452 H437 0.930 . S
C452 C447 1.390 . S
C452 C451 1.387 . S
H453 C465 0.930 . S
H454 C467 0.930 . S
H455 C468 0.930 . S
H456 C472 0.953 1_455 S
H457 C472 0.959 . S
H458 C472 0.961 . S
H459 C473 0.960 . S
H460 C473 0.961 . S
H461 C473 0.959 . S
H462 C476 0.929 . S
H463 C477 0.931 . S
H464 C479 0.930 . S
C465 H453 0.930 . S
C465 C466 1.399 . S
C465 C470 1.399 . S
C466 C465 1.399 . S
C466 C467 1.376 . S
C467 H454 0.930 . S
C467 C466 1.376 . S
C467 C468 1.388 . S
C468 H455 0.930 . S
C468 C467 1.388 . S
C468 C469 1.390 . S
C469 C468 1.390 . S
C469 C470 1.394 . S
C469 C475 1.465 . S
C470 C465 1.399 . S
C470 C469 1.394 . S
C470 C471 1.516 . S
C471 C470 1.516 . S
C471 C472 1.502 . S
C471 C473 1.561 . S
C471 C474 1.526 . S
C472 H456 0.953 1_655 S
C472 H457 0.959 . S
C472 H458 0.961 . S
C472 C471 1.502 . S
C473 H459 0.960 . S
C473 H460 0.961 . S
C473 H461 0.959 . S
C473 C471 1.561 . S
C474 C471 1.526 . S
C474 C475 1.396 . S
C474 C479 1.390 . S
C475 C469 1.465 . S
C475 C474 1.396 . S
C475 C476 1.399 . S
C476 H462 0.929 . S
C476 C475 1.399 . S
C476 C477 1.385 . S
C477 H463 0.931 . S
C477 C476 1.385 . S
C477 C478 1.389 . S
C478 C477 1.389 . S
C478 C479 1.387 . S
C479 H464 0.930 . S
C479 C474 1.390 . S
C479 C478 1.387 . S
H480 C492 0.930 . S
H481 C494 0.930 . S
H482 C495 0.930 . S
H483 C499 0.959 1_556 S
H484 C499 0.959 1_556 S
H485 C499 0.961 . S
H486 C500 0.960 . S
H487 C500 0.961 . S
H488 C500 0.959 . S
H489 C503 0.929 . S
H490 C504 0.931 . S
H491 C506 0.930 . S
C492 H480 0.930 . S
C492 C493 1.399 . S
C492 C497 1.399 . S
C493 C492 1.399 . S
C493 C494 1.376 . S
C494 H481 0.930 . S
C494 C493 1.376 . S
C494 C495 1.388 . S
C495 H482 0.930 . S
C495 C494 1.388 . S
C495 C496 1.390 . S
C496 C495 1.390 . S
C496 C497 1.394 . S
C496 C502 1.465 . S
C497 C492 1.399 . S
C497 C496 1.394 . S
C497 C498 1.516 . S
C498 C497 1.516 . S
C498 C499 1.502 . S
C498 C500 1.561 . S
C498 C501 1.526 . S
C499 H483 0.959 1_554 S
C499 H484 0.959 1_554 S
C499 H485 0.961 . S
C499 C498 1.502 . S
C500 H486 0.960 . S
C500 H487 0.961 . S
C500 H488 0.959 . S
C500 C498 1.561 . S
C501 C498 1.526 . S
C501 C502 1.396 . S
C501 C506 1.390 . S
C502 C496 1.465 . S
C502 C501 1.396 . S
C502 C503 1.399 . S
C503 H489 0.929 . S
C503 C502 1.399 . S
C503 C504 1.385 . S
C504 H490 0.931 . S
C504 C503 1.385 . S
C504 C505 1.389 . S
C505 C504 1.389 . S
C505 C506 1.387 . S
C506 H491 0.930 . S
C506 C501 1.390 . S
C506 C505 1.387 . S
H507 C519 0.930 . S
H508 C521 0.930 . S
H509 C522 0.930 . S
H510 C526 0.959 . S
H511 C526 0.959 . S
H512 C526 0.961 . S
H513 C527 0.960 . S
H514 C527 0.961 . S
H515 C527 0.959 . S
H516 C530 0.929 . S
H517 C531 0.931 . S
H518 C533 0.930 . S
C519 H507 0.930 . S
C519 C520 1.399 . S
C519 C524 1.399 . S
C520 C519 1.399 . S
C520 C521 1.376 . S
C521 H508 0.930 . S
C521 C520 1.376 . S
C521 C522 1.388 . S
C522 H509 0.930 . S
C522 C521 1.388 . S
C522 C523 1.390 . S
C523 C522 1.390 . S
C523 C524 1.394 . S
C523 C529 1.465 . S
C524 C519 1.399 . S
C524 C523 1.394 . S
C524 C525 1.516 . S
C525 C524 1.516 . S
C525 C526 1.502 . S
C525 C527 1.561 . S
C525 C528 1.526 . S
C526 H510 0.959 . S
C526 H511 0.959 . S
C526 H512 0.961 . S
C526 C525 1.502 . S
C527 H513 0.960 . S
C527 H514 0.961 . S
C527 H515 0.959 . S
C527 C525 1.561 . S
C528 C525 1.526 . S
C528 C529 1.396 . S
C528 C533 1.390 . S
C529 C523 1.465 . S
C529 C528 1.396 . S
C529 C530 1.399 . S
C530 H516 0.929 . S
C530 C529 1.399 . S
C530 C531 1.385 . S
C531 H517 0.931 . S
C531 C530 1.385 . S
C531 C532 1.389 . S
C532 C531 1.389 . S
C532 C533 1.387 . S
C533 H518 0.930 . S
C533 C528 1.390 . S
C533 C532 1.387 . S
H534 C546 0.930 . S
H535 C548 0.930 . S
H536 C549 0.930 . S
H537 C553 0.959 . S
H538 C553 0.959 . S
H539 C553 0.961 . S
H540 C554 0.960 . S
H541 C554 0.961 . S
H542 C554 0.959 . S
H543 C557 0.929 . S
H544 C558 0.931 . S
H545 C560 0.930 . S
C546 H534 0.930 . S
C546 C547 1.399 . S
C546 C551 1.399 . S
C547 C546 1.399 . S
C547 C548 1.376 . S
C548 H535 0.930 . S
C548 C547 1.376 . S
C548 C549 1.388 . S
C549 H536 0.930 . S
C549 C548 1.388 . S
C549 C550 1.390 . S
C550 C549 1.390 . S
C550 C551 1.394 . S
C550 C556 1.465 . S
C551 C546 1.399 . S
C551 C550 1.394 . S
C551 C552 1.516 . S
C552 C551 1.516 . S
C552 C553 1.502 . S
C552 C554 1.561 . S
C552 C555 1.526 . S
C553 H537 0.959 . S
C553 H538 0.959 . S
C553 H539 0.961 . S
C553 C552 1.502 . S
C554 H540 0.960 . S
C554 H541 0.961 . S
C554 H542 0.959 . S
C554 C552 1.561 . S
C555 C552 1.526 . S
C555 C556 1.396 . S
C555 C560 1.390 . S
C556 C550 1.465 . S
C556 C555 1.396 . S
C556 C557 1.399 1_556 S
C557 H543 0.929 . S
C557 C556 1.399 1_554 S
C557 C558 1.385 . S
C558 H544 0.931 . S
C558 C557 1.385 . S
C558 C559 1.389 1_554 S
C559 C558 1.389 1_556 S
C559 C560 1.387 . S
C560 H545 0.930 . S
C560 C555 1.390 . S
C560 C559 1.387 . S
H561 C573 0.930 . S
H562 C575 0.930 . S
H563 C576 0.930 . S
H564 C580 0.959 . S
H565 C580 0.959 . S
H566 C580 0.961 . S
H567 C581 0.960 . S
H568 C581 0.961 . S
H569 C581 0.959 . S
H570 C584 0.929 . S
H571 C585 0.931 . S
H572 C587 0.930 . S
C573 H561 0.930 . S
C573 C574 1.399 . S
C573 C578 1.399 . S
C574 C573 1.399 . S
C574 C575 1.376 . S
C575 H562 0.930 . S
C575 C574 1.376 . S
C575 C576 1.388 . S
C576 H563 0.930 . S
C576 C575 1.388 . S
C576 C577 1.390 . S
C577 C576 1.390 . S
C577 C578 1.394 . S
C577 C583 1.465 . S
C578 C573 1.399 . S
C578 C577 1.394 . S
C578 C579 1.516 . S
C579 C578 1.516 . S
C579 C580 1.502 . S
C579 C581 1.561 . S
C579 C582 1.526 . S
C580 H564 0.959 . S
C580 H565 0.959 . S
C580 H566 0.961 . S
C580 C579 1.502 . S
C581 H567 0.960 . S
C581 H568 0.961 . S
C581 H569 0.959 . S
C581 C579 1.561 . S
C582 C579 1.526 . S
C582 C583 1.396 . S
C582 C587 1.390 . S
C583 C577 1.465 . S
C583 C582 1.396 . S
C583 C584 1.399 . S
C584 H570 0.929 . S
C584 C583 1.399 . S
C584 C585 1.385 . S
C585 H571 0.931 . S
C585 C584 1.385 . S
C585 C586 1.389 . S
C586 C585 1.389 . S
C586 C587 1.387 . S
C587 H572 0.930 . S
C587 C582 1.390 . S
C587 C586 1.387 . S
H588 C600 0.930 . S
H589 C602 0.930 . S
H590 C603 0.930 . S
H591 C607 0.959 . S
H592 C607 0.959 1_556 S
H593 C607 0.961 . S
H594 C608 0.960 . S
H595 C608 0.961 . S
H596 C608 0.959 . S
H597 C611 0.929 . S
H598 C612 0.931 . S
H599 C614 0.951 . S
C600 H588 0.930 . S
C600 C601 1.399 . S
C600 C605 1.399 . S
C601 C600 1.399 . S
C601 C602 1.376 . S
C602 H589 0.930 . S
C602 C601 1.376 . S
C602 C603 1.388 . S
C603 H590 0.930 . S
C603 C602 1.388 . S
C603 C604 1.390 . S
C604 C603 1.390 . S
C604 C605 1.394 . S
C604 C610 1.465 . S
C605 C600 1.399 . S
C605 C604 1.394 . S
C605 C606 1.516 . S
C606 C605 1.516 . S
C606 C607 1.502 . S
C606 C608 1.561 1_554 S
C606 C609 1.526 . S
C607 H591 0.959 . S
C607 H592 0.959 1_554 S
C607 H593 0.961 . S
C607 C606 1.502 . S
C608 H594 0.960 . S
C608 H595 0.961 . S
C608 H596 0.959 . S
C608 C606 1.561 1_556 S
C609 C606 1.526 . S
C609 C610 1.396 . S
C609 C614 1.390 . S
C610 C604 1.465 . S
C610 C609 1.396 . S
C610 C611 1.399 . S
C611 H597 0.929 . S
C611 C610 1.399 . S
C611 C612 1.385 . S
C612 H598 0.931 . S
C612 C611 1.385 . S
C612 C613 1.389 . S
C613 C612 1.389 . S
C613 C614 1.387 . S
C614 H599 0.951 . S
C614 C609 1.390 . S
C614 C613 1.387 . S
H615 C627 0.930 . S
H616 C629 0.930 . S
H617 C630 0.930 . S
H618 C634 0.959 . S
H619 C634 0.959 . S
H620 C634 0.961 . S
H621 C635 0.960 . S
H622 C635 0.961 . S
H623 C635 0.959 . S
H624 C638 0.929 . S
H625 C639 0.931 . S
H626 C641 0.930 . S
C627 H615 0.930 . S
C627 C628 1.399 . S
C627 C632 1.399 . S
C628 C627 1.399 . S
C628 C629 1.376 . S
C629 H616 0.930 . S
C629 C628 1.376 . S
C629 C630 1.388 . S
C630 H617 0.930 . S
C630 C629 1.388 . S
C630 C631 1.390 . S
C631 C630 1.390 . S
C631 C632 1.394 . S
C631 C637 1.465 . S
C632 C627 1.399 . S
C632 C631 1.394 . S
C632 C633 1.516 . S
C633 C632 1.516 . S
C633 C634 1.502 . S
C633 C635 1.561 . S
C633 C636 1.526 . S
C634 H618 0.959 . S
C634 H619 0.959 . S
C634 H620 0.961 . S
C634 C633 1.502 . S
C635 H621 0.960 . S
C635 H622 0.961 . S
C635 H623 0.959 . S
C635 C633 1.561 . S
C636 C633 1.526 . S
C636 C637 1.396 . S
C636 C641 1.390 . S
C637 C631 1.465 . S
C637 C636 1.396 . S
C637 C638 1.399 . S
C638 H624 0.929 . S
C638 C637 1.399 . S
C638 C639 1.385 . S
C639 H625 0.931 . S
C639 C638 1.385 . S
C639 C640 1.389 . S
C640 C639 1.389 . S
C640 C641 1.387 . S
C641 H626 0.930 . S
C641 C636 1.390 . S
C641 C640 1.387 . S
H642 C654 0.930 . S
H643 C656 0.930 . S
H644 C657 0.930 . S
H645 C661 0.959 1_455 S
H646 C661 0.959 . S
H647 C661 0.961 . S
H648 C662 0.960 . S
H649 C662 0.961 . S
H650 C662 0.959 . S
H651 C665 0.929 . S
H652 C666 0.931 . S
H653 C668 0.930 . S
C654 H642 0.930 . S
C654 C655 1.399 . S
C654 C659 1.399 . S
C655 C654 1.399 . S
C655 C656 1.376 . S
C656 H643 0.930 . S
C656 C655 1.376 . S
C656 C657 1.388 . S
C657 H644 0.930 . S
C657 C656 1.388 . S
C657 C658 1.390 . S
C658 C657 1.390 . S
C658 C659 1.394 . S
C658 C664 1.465 . S
C659 C654 1.399 . S
C659 C658 1.394 . S
C659 C660 1.516 . S
C660 C659 1.516 . S
C660 C661 1.502 . S
C660 C662 1.561 . S
C660 C663 1.526 . S
C661 H645 0.959 1_655 S
C661 H646 0.959 . S
C661 H647 0.961 . S
C661 C660 1.502 . S
C662 H648 0.960 . S
C662 H649 0.961 . S
C662 H650 0.959 . S
C662 C660 1.561 . S
C663 C660 1.526 . S
C663 C664 1.396 . S
C663 C668 1.390 . S
C664 C658 1.465 . S
C664 C663 1.396 . S
C664 C665 1.399 . S
C665 H651 0.929 . S
C665 C664 1.399 . S
C665 C666 1.385 . S
C666 H652 0.931 . S
C666 C665 1.385 . S
C666 C667 1.389 . S
C667 C666 1.389 . S
C667 C668 1.387 . S
C668 H653 0.930 . S
C668 C663 1.390 . S
C668 C667 1.387 . S
H669 C681 0.930 . S
H670 C683 0.930 . S
H671 C684 0.930 . S
H672 C688 0.959 . S
H673 C688 0.959 . S
H674 C688 0.961 . S
H675 C689 0.960 . S
H676 C689 0.961 . S
H677 C689 0.959 . S
H678 C692 0.929 . S
H679 C693 0.931 . S
H680 C695 0.930 . S
C681 H669 0.930 . S
C681 C682 1.399 . S
C681 C686 1.399 . S
C682 C681 1.399 . S
C682 C683 1.376 . S
C683 H670 0.930 . S
C683 C682 1.376 . S
C683 C684 1.388 . S
C684 H671 0.930 . S
C684 C683 1.388 . S
C684 C685 1.390 . S
C685 C684 1.390 . S
C685 C686 1.394 . S
C685 C691 1.465 . S
C686 C681 1.399 . S
C686 C685 1.394 . S
C686 C687 1.516 . S
C687 C686 1.516 . S
C687 C688 1.502 . S
C687 C689 1.561 . S
C687 C690 1.526 . S
C688 H672 0.959 . S
C688 H673 0.959 . S
C688 H674 0.961 . S
C688 C687 1.502 . S
C689 H675 0.960 . S
C689 H676 0.961 . S
C689 H677 0.959 . S
C689 C687 1.561 . S
C690 C687 1.526 . S
C690 C691 1.396 . S
C690 C695 1.390 . S
C691 C685 1.465 . S
C691 C690 1.396 . S
C691 C692 1.399 . S
C692 H678 0.929 . S
C692 C691 1.399 . S
C692 C693 1.385 . S
C693 H679 0.931 . S
C693 C692 1.385 . S
C693 C694 1.389 . S
C694 C693 1.389 . S
C694 C695 1.387 . S
C695 H680 0.930 . S
C695 C690 1.390 . S
C695 C694 1.387 . S
H696 C708 0.930 . S
H697 C710 0.930 . S
H698 C711 0.930 . S
H699 C715 0.959 . S
H700 C715 0.959 . S
H701 C715 0.961 . S
H702 C716 0.960 . S
H703 C716 0.961 . S
H704 C716 0.959 . S
H705 C719 0.924 1_545 S
H706 C720 0.931 1_545 S
H707 C722 0.930 . S
C708 H696 0.930 . S
C708 C709 1.399 . S
C708 C713 1.399 . S
C709 C708 1.399 . S
C709 C710 1.376 . S
C710 H697 0.930 . S
C710 C709 1.376 . S
C710 C711 1.388 . S
C711 H698 0.930 . S
C711 C710 1.388 . S
C711 C712 1.390 . S
C712 C711 1.390 . S
C712 C713 1.394 . S
C712 C718 1.465 . S
C713 C708 1.399 . S
C713 C712 1.394 . S
C713 C714 1.516 . S
C714 C713 1.516 . S
C714 C715 1.502 1_655 S
C714 C716 1.561 . S
C714 C717 1.526 . S
C715 H699 0.959 . S
C715 H700 0.959 . S
C715 H701 0.961 . S
C715 C714 1.502 1_455 S
C716 H702 0.960 . S
C716 H703 0.961 . S
C716 H704 0.959 . S
C716 C714 1.561 . S
C717 C714 1.526 . S
C717 C718 1.396 . S
C717 C722 1.390 . S
C718 C712 1.465 . S
C718 C717 1.396 . S
C718 C719 1.399 . S
C719 H705 0.924 1_565 S
C719 C718 1.399 . S
C719 C720 1.385 . S
C720 H706 0.931 1_565 S
C720 C719 1.385 . S
C720 C721 1.389 . S
C721 C720 1.389 . S
C721 C722 1.387 . S
C722 H707 0.930 . S
C722 C717 1.390 . S
C722 C721 1.387 . S
H723 C735 0.930 . S
H724 C737 0.930 . S
H725 C738 0.930 . S
H726 C742 0.959 . S
H727 C742 0.959 1_565 S
H728 C742 0.961 . S
H729 C743 0.960 1_565 S
H730 C743 0.961 1_565 S
H731 C743 0.959 . S
H732 C746 0.929 . S
H733 C747 0.931 . S
H734 C749 0.930 . S
C735 H723 0.930 . S
C735 C736 1.399 . S
C735 C740 1.399 . S
C736 C735 1.399 . S
C736 C737 1.376 . S
C737 H724 0.930 . S
C737 C736 1.376 . S
C737 C738 1.388 . S
C738 H725 0.930 . S
C738 C737 1.388 . S
C738 C739 1.390 . S
C739 C738 1.390 . S
C739 C740 1.394 . S
C739 C745 1.465 . S
C740 C735 1.399 . S
C740 C739 1.394 . S
C740 C741 1.516 . S
C741 C740 1.516 . S
C741 C742 1.502 . S
C741 C743 1.561 . S
C741 C744 1.526 . S
C742 H726 0.959 . S
C742 H727 0.959 1_545 S
C742 H728 0.961 . S
C742 C741 1.502 . S
C743 H729 0.960 1_545 S
C743 H730 0.961 1_545 S
C743 H731 0.959 . S
C743 C741 1.561 . S
C744 C741 1.526 . S
C744 C745 1.396 . S
C744 C749 1.390 . S
C745 C739 1.465 . S
C745 C744 1.396 . S
C745 C746 1.399 . S
C746 H732 0.929 . S
C746 C745 1.399 . S
C746 C747 1.385 . S
C747 H733 0.931 . S
C747 C746 1.385 . S
C747 C748 1.389 . S
C748 C747 1.389 . S
C748 C749 1.387 . S
C749 H734 0.930 . S
C749 C744 1.390 . S
C749 C748 1.387 . S
H750 C762 0.930 . S
H751 C764 0.930 . S
H752 C765 0.930 . S
H753 C769 0.959 . S
H754 C769 0.959 . S
H755 C769 0.961 . S
H756 C770 0.960 . S
H757 C770 0.961 . S
H758 C770 0.959 . S
H759 C773 0.929 . S
H760 C774 0.931 . S
H761 C776 0.930 . S
C762 H750 0.930 . S
C762 C763 1.399 . S
C762 C767 1.399 . S
C763 C762 1.399 . S
C763 C764 1.376 . S
C764 H751 0.930 . S
C764 C763 1.376 . S
C764 C765 1.388 . S
C765 H752 0.930 . S
C765 C764 1.388 . S
C765 C766 1.390 . S
C766 C765 1.390 . S
C766 C767 1.394 . S
C766 C772 1.465 . S
C767 C762 1.399 . S
C767 C766 1.394 . S
C767 C768 1.516 . S
C768 C767 1.516 . S
C768 C769 1.502 . S
C768 C770 1.561 . S
C768 C771 1.526 . S
C769 H753 0.959 . S
C769 H754 0.959 . S
C769 H755 0.961 . S
C769 C768 1.502 . S
C770 H756 0.960 . S
C770 H757 0.961 . S
C770 H758 0.959 . S
C770 C768 1.561 . S
C771 C768 1.526 . S
C771 C772 1.396 . S
C771 C776 1.390 . S
C772 C766 1.465 . S
C772 C771 1.396 . S
C772 C773 1.399 . S
C773 H759 0.929 . S
C773 C772 1.399 . S
C773 C774 1.385 . S
C774 H760 0.931 . S
C774 C773 1.385 . S
C774 C775 1.389 . S
C775 C774 1.389 . S
C775 C776 1.387 . S
C776 H761 0.930 . S
C776 C771 1.390 . S
C776 C775 1.387 . S
H777 C789 0.930 . S
H778 C791 0.930 . S
H779 C792 0.930 . S
H780 C796 0.959 1_655 S
H781 C796 0.959 . S
H782 C796 0.961 . S
H783 C797 0.960 . S
H784 C797 0.961 . S
H785 C797 0.959 . S
H786 C800 0.929 . S
H787 C801 0.931 . S
H788 C803 0.930 . S
C789 H777 0.930 . S
C789 C790 1.399 . S
C789 C794 1.399 . S
C790 C789 1.399 . S
C790 C791 1.376 . S
C791 H778 0.930 . S
C791 C790 1.376 . S
C791 C792 1.388 . S
C792 H779 0.930 . S
C792 C791 1.388 . S
C792 C793 1.390 . S
C793 C792 1.390 . S
C793 C794 1.394 . S
C793 C799 1.465 . S
C794 C789 1.399 . S
C794 C793 1.394 . S
C794 C795 1.516 . S
C795 C794 1.516 . S
C795 C796 1.502 . S
C795 C797 1.561 . S
C795 C798 1.526 . S
C796 H780 0.959 1_455 S
C796 H781 0.959 . S
C796 H782 0.961 . S
C796 C795 1.502 . S
C797 H783 0.960 . S
C797 H784 0.961 . S
C797 H785 0.959 . S
C797 C795 1.561 . S
C798 C795 1.526 . S
C798 C799 1.396 . S
C798 C803 1.390 . S
C799 C793 1.465 . S
C799 C798 1.396 . S
C799 C800 1.399 . S
C800 H786 0.929 . S
C800 C799 1.399 . S
C800 C801 1.385 . S
C801 H787 0.931 . S
C801 C800 1.385 . S
C801 C802 1.389 . S
C802 C801 1.389 . S
C802 C803 1.387 . S
C803 H788 0.930 . S
C803 C798 1.390 . S
C803 C802 1.387 . S
H804 C816 0.930 . S
H805 C818 0.930 . S
H806 C819 0.930 . S
H807 C823 0.959 . S
H808 C823 0.959 . S
H809 C823 0.961 . S
H810 C824 0.960 . S
H811 C824 0.935 1_545 S
H812 C824 0.959 . S
H813 C827 0.929 . S
H814 C828 0.931 . S
H815 C830 0.930 1_545 S
C816 H804 0.930 . S
C816 C817 1.399 . S
C816 C821 1.399 . S
C817 C816 1.399 . S
C817 C818 1.376 . S
C818 H805 0.930 . S
C818 C817 1.376 . S
C818 C819 1.388 . S
C819 H806 0.930 . S
C819 C818 1.388 . S
C819 C820 1.390 . S
C820 C819 1.390 . S
C820 C821 1.394 . S
C820 C826 1.465 . S
C821 C816 1.399 . S
C821 C820 1.394 . S
C821 C822 1.516 . S
C822 C821 1.516 . S
C822 C823 1.502 1_565 S
C822 C824 1.561 . S
C822 C825 1.526 . S
C823 H807 0.959 . S
C823 H808 0.959 . S
C823 H809 0.961 . S
C823 C822 1.502 1_545 S
C824 H810 0.960 . S
C824 H811 0.935 1_565 S
C824 H812 0.959 . S
C824 C822 1.561 . S
C825 C822 1.526 . S
C825 C826 1.396 . S
C825 C830 1.390 . S
C826 C820 1.465 . S
C826 C825 1.396 . S
C826 C827 1.399 . S
C827 H813 0.929 . S
C827 C826 1.399 . S
C827 C828 1.385 . S
C828 H814 0.931 . S
C828 C827 1.385 . S
C828 C829 1.389 . S
C829 C828 1.389 . S
C829 C830 1.387 . S
C830 H815 0.930 1_565 S
C830 C825 1.390 . S
C830 C829 1.387 . S
H831 C843 0.930 . S
H832 C845 0.930 . S
H833 C846 0.930 . S
H834 C850 0.959 . S
H835 C850 0.959 . S
H836 C850 0.961 . S
H837 C851 0.960 . S
H838 C851 0.961 . S
H839 C851 0.959 . S
H840 C854 0.929 . S
H841 C855 0.931 . S
H842 C857 0.930 . S
C843 H831 0.930 . S
C843 C844 1.399 . S
C843 C848 1.399 . S
C844 C843 1.399 . S
C844 C845 1.376 . S
C845 H832 0.930 . S
C845 C844 1.376 . S
C845 C846 1.388 . S
C846 H833 0.930 . S
C846 C845 1.388 . S
C846 C847 1.390 . S
C847 C846 1.390 . S
C847 C848 1.394 . S
C847 C853 1.465 . S
C848 C843 1.399 . S
C848 C847 1.394 . S
C848 C849 1.516 . S
C849 C848 1.516 . S
C849 C850 1.502 . S
C849 C851 1.561 . S
C849 C852 1.526 . S
C850 H834 0.959 . S
C850 H835 0.959 . S
C850 H836 0.961 . S
C850 C849 1.502 . S
C851 H837 0.960 . S
C851 H838 0.961 . S
C851 H839 0.959 . S
C851 C849 1.561 . S
C852 C849 1.526 . S
C852 C853 1.396 . S
C852 C857 1.390 . S
C853 C847 1.465 . S
C853 C852 1.396 . S
C853 C854 1.399 . S
C854 H840 0.929 . S
C854 C853 1.399 . S
C854 C855 1.385 . S
C855 H841 0.931 . S
C855 C854 1.385 . S
C855 C856 1.389 . S
C856 C855 1.389 . S
C856 C857 1.387 . S
C857 H842 0.930 . S
C857 C852 1.390 . S
C857 C856 1.387 . S
H858 C870 0.930 . S
H859 C872 0.930 . S
H860 C873 0.930 . S
H861 C877 0.959 . S
H862 C877 0.959 1_556 S
H863 C877 0.958 1_556 S
H864 C878 0.960 . S
H865 C878 0.961 . S
H866 C878 0.959 . S
H867 C881 0.929 . S
H868 C882 0.931 . S
H869 C884 0.930 . S
C870 H858 0.930 . S
C870 C871 1.399 . S
C870 C875 1.399 . S
C871 C870 1.399 . S
C871 C872 1.376 . S
C872 H859 0.930 . S
C872 C871 1.376 . S
C872 C873 1.388 . S
C873 H860 0.930 . S
C873 C872 1.388 . S
C873 C874 1.390 . S
C874 C873 1.390 . S
C874 C875 1.394 . S
C874 C880 1.465 . S
C875 C870 1.399 . S
C875 C874 1.394 . S
C875 C876 1.516 . S
C876 C875 1.516 . S
C876 C877 1.502 . S
C876 C878 1.561 . S
C876 C879 1.526 . S
C877 H861 0.959 . S
C877 H862 0.959 1_554 S
C877 H863 0.958 1_554 S
C877 C876 1.502 . S
C878 H864 0.960 . S
C878 H865 0.961 . S
C878 H866 0.959 . S
C878 C876 1.561 . S
C879 C876 1.526 . S
C879 C880 1.396 . S
C879 C884 1.390 . S
C880 C874 1.465 . S
C880 C879 1.396 . S
C880 C881 1.399 . S
C881 H867 0.929 . S
C881 C880 1.399 . S
C881 C882 1.385 . S
C882 H868 0.931 . S
C882 C881 1.385 . S
C882 C883 1.389 . S
C883 C882 1.389 . S
C883 C884 1.387 . S
C884 H869 0.930 . S
C884 C879 1.390 . S
C884 C883 1.387 . S
H885 C897 0.930 . S
H886 C899 0.930 . S
H887 C900 0.930 . S
H888 C904 0.959 . S
H889 C904 0.959 . S
H890 C904 0.961 . S
H891 C905 0.960 . S
H892 C905 0.961 . S
H893 C905 0.959 . S
H894 C908 0.929 . S
H895 C909 0.931 . S
H896 C911 0.930 . S
C897 H885 0.930 . S
C897 C898 1.399 . S
C897 C902 1.399 . S
C898 C897 1.399 . S
C898 C899 1.376 . S
C899 H886 0.930 . S
C899 C898 1.376 . S
C899 C900 1.388 . S
C900 H887 0.930 . S
C900 C899 1.388 . S
C900 C901 1.390 . S
C901 C900 1.390 . S
C901 C902 1.394 . S
C901 C907 1.465 . S
C902 C897 1.399 . S
C902 C901 1.394 . S
C902 C903 1.516 . S
C903 C902 1.516 . S
C903 C904 1.502 . S
C903 C905 1.561 . S
C903 C906 1.526 . S
C904 H888 0.959 . S
C904 H889 0.959 . S
C904 H890 0.961 . S
C904 C903 1.502 . S
C905 H891 0.960 . S
C905 H892 0.961 . S
C905 H893 0.959 . S
C905 C903 1.561 . S
C906 C903 1.526 . S
C906 C907 1.396 . S
C906 C911 1.390 . S
C907 C901 1.465 . S
C907 C906 1.396 . S
C907 C908 1.399 . S
C908 H894 0.929 . S
C908 C907 1.399 . S
C908 C909 1.385 . S
C909 H895 0.931 . S
C909 C908 1.385 . S
C909 C910 1.389 . S
C910 C909 1.389 . S
C910 C911 1.387 . S
C911 H896 0.930 . S
C911 C906 1.390 . S
C911 C910 1.387 . S
H912 C924 0.930 . S
H913 C926 0.930 . S
H914 C927 0.930 . S
H915 C931 0.959 . S
H916 C931 0.959 . S
H917 C931 0.961 . S
H918 C932 0.960 . S
H919 C932 0.961 . S
H920 C932 0.959 . S
H921 C935 0.929 . S
H922 C936 0.931 . S
H923 C938 0.953 . S
C924 H912 0.930 . S
C924 C925 1.399 . S
C924 C929 1.399 . S
C925 C924 1.399 . S
C925 C926 1.376 . S
C926 H913 0.930 . S
C926 C925 1.376 . S
C926 C927 1.388 . S
C927 H914 0.930 . S
C927 C926 1.388 . S
C927 C928 1.390 . S
C928 C927 1.390 . S
C928 C929 1.394 . S
C928 C934 1.465 . S
C929 C924 1.399 . S
C929 C928 1.394 . S
C929 C930 1.516 . S
C930 C929 1.516 . S
C930 C931 1.502 1_655 S
C930 C932 1.561 1_556 S
C930 C933 1.526 . S
C931 H915 0.959 . S
C931 H916 0.959 . S
C931 H917 0.961 . S
C931 C930 1.502 1_455 S
C932 H918 0.960 . S
C932 H919 0.961 . S
C932 H920 0.959 . S
C932 C930 1.561 1_554 S
C933 C930 1.526 . S
C933 C934 1.396 . S
C933 C938 1.390 . S
C934 C928 1.465 . S
C934 C933 1.396 . S
C934 C935 1.399 . S
C935 H921 0.929 . S
C935 C934 1.399 . S
C935 C936 1.385 . S
C936 H922 0.931 . S
C936 C935 1.385 . S
C936 C937 1.389 . S
C937 C936 1.389 . S
C937 C938 1.387 . S
C938 H923 0.953 . S
C938 C933 1.390 . S
C938 C937 1.387 . S
H939 C951 0.930 . S
H940 C953 0.930 . S
H941 C954 0.930 . S
H942 C958 0.959 . S
H943 C958 0.959 . S
H944 C958 0.961 . S
H945 C959 0.960 . S
H946 C959 0.961 . S
H947 C959 0.959 . S
H948 C962 0.929 . S
H949 C963 0.931 . S
H950 C965 0.930 . S
C951 H939 0.930 . S
C951 C952 1.399 . S
C951 C956 1.399 . S
C952 C951 1.399 . S
C952 C953 1.376 . S
C953 H940 0.930 . S
C953 C952 1.376 . S
C953 C954 1.388 . S
C954 H941 0.930 . S
C954 C953 1.388 . S
C954 C955 1.390 . S
C955 C954 1.390 . S
C955 C956 1.394 . S
C955 C961 1.465 . S
C956 C951 1.399 . S
C956 C955 1.394 . S
C956 C957 1.516 . S
C957 C956 1.516 . S
C957 C958 1.502 . S
C957 C959 1.561 . S
C957 C960 1.526 . S
C958 H942 0.959 . S
C958 H943 0.959 . S
C958 H944 0.961 . S
C958 C957 1.502 . S
C959 H945 0.960 . S
C959 H946 0.961 . S
C959 H947 0.959 . S
C959 C957 1.561 . S
C960 C957 1.526 . S
C960 C961 1.396 . S
C960 C965 1.390 . S
C961 C955 1.465 . S
C961 C960 1.396 . S
C961 C962 1.399 . S
C962 H948 0.929 . S
C962 C961 1.399 . S
C962 C963 1.385 . S
C963 H949 0.931 . S
C963 C962 1.385 . S
C963 C964 1.389 . S
C964 C963 1.389 . S
C964 C965 1.387 . S
C965 H950 0.930 . S
C965 C960 1.390 . S
C965 C964 1.387 . S
H966 C978 0.930 . S
H967 C980 0.930 . S
H968 C981 0.930 . S
H969 C985 0.959 . S
H970 C985 0.959 . S
H971 C985 0.961 . S
H972 C986 0.960 . S
H973 C986 0.961 . S
H974 C986 0.959 . S
H975 C989 0.929 1_655 S
H976 C990 0.931 1_655 S
H977 C992 0.930 . S
C978 H966 0.930 . S
C978 C979 1.399 . S
C978 C983 1.399 . S
C979 C978 1.399 . S
C979 C980 1.376 . S
C980 H967 0.930 . S
C980 C979 1.376 . S
C980 C981 1.388 . S
C981 H968 0.930 . S
C981 C980 1.388 . S
C981 C982 1.390 . S
C982 C981 1.390 . S
C982 C983 1.394 . S
C982 C988 1.465 . S
C983 C978 1.399 . S
C983 C982 1.394 . S
C983 C984 1.516 . S
C984 C983 1.516 . S
C984 C985 1.502 . S
C984 C986 1.561 . S
C984 C987 1.526 . S
C985 H969 0.959 . S
C985 H970 0.959 . S
C985 H971 0.961 . S
C985 C984 1.502 . S
C986 H972 0.960 . S
C986 H973 0.961 . S
C986 H974 0.959 . S
C986 C984 1.561 . S
C987 C984 1.526 . S
C987 C988 1.396 . S
C987 C992 1.390 . S
C988 C982 1.465 . S
C988 C987 1.396 . S
C988 C989 1.399 . S
C989 H975 0.929 1_455 S
C989 C988 1.399 . S
C989 C990 1.385 . S
C990 H976 0.931 1_455 S
C990 C989 1.385 . S
C990 C991 1.389 . S
C991 C990 1.389 . S
C991 C992 1.387 . S
C992 H977 0.930 . S
C992 C987 1.390 . S
C992 C991 1.387 . S
H993 C1005 0.930 . S
H994 C1007 0.930 . S
H995 C1008 0.930 . S
H996 C1012 0.959 . S
H997 C1012 0.959 . S
H998 C1012 0.961 . S
H999 C1013 0.960 . S
H1000 C1013 0.961 . S
H1001 C1013 0.959 . S
H1002 C1016 0.929 . S
H1003 C1017 0.931 . S
H1004 C1019 0.930 . S
C1005 H993 0.930 . S
C1005 C1006 1.399 . S
C1005 C1010 1.399 . S
C1006 C1005 1.399 . S
C1006 C1007 1.376 . S
C1007 H994 0.930 . S
C1007 C1006 1.376 . S
C1007 C1008 1.388 . S
C1008 H995 0.930 . S
C1008 C1007 1.388 . S
C1008 C1009 1.390 . S
C1009 C1008 1.390 . S
C1009 C1010 1.394 . S
C1009 C1015 1.465 . S
C1010 C1005 1.399 . S
C1010 C1009 1.394 . S
C1010 C1011 1.516 . S
C1011 C1010 1.516 . S
C1011 C1012 1.502 . S
C1011 C1013 1.561 . S
C1011 C1014 1.526 . S
C1012 H996 0.959 . S
C1012 H997 0.959 . S
C1012 H998 0.961 . S
C1012 C1011 1.502 . S
C1013 H999 0.960 . S
C1013 H1000 0.961 . S
C1013 H1001 0.959 . S
C1013 C1011 1.561 . S
C1014 C1011 1.526 . S
C1014 C1015 1.396 . S
C1014 C1019 1.390 . S
C1015 C1009 1.465 . S
C1015 C1014 1.396 . S
C1015 C1016 1.399 . S
C1016 H1002 0.929 . S
C1016 C1015 1.399 . S
C1016 C1017 1.385 . S
C1017 H1003 0.931 . S
C1017 C1016 1.385 . S
C1017 C1018 1.389 . S
C1018 C1017 1.389 . S
C1018 C1019 1.387 . S
C1019 H1004 0.930 . S
C1019 C1014 1.390 . S
C1019 C1018 1.387 . S
C385 C1 1.603 . S
C397 C304 1.545 . S
C412 C67 1.506 . S
C424 C326 1.476 . S
C451 C345 1.271 . S
C439 C97 1.389 . S
C466 C133 1.836 . S
C478 C366 1.555 . S
C505 C323 1.790 . S
C493 C25 1.788 . S
C532 C301 1.650 . S
C520 C37 1.668 . S
C559 C368 1.351 . S
C547 C103 1.365 . S
C586 C347 1.417 . S
C574 C109 1.497 . S
C601 C31 1.726 . S
C613 C365 1.672 . S
C640 C324 1.321 . S
C628 C73 1.569 . S
C655 C139 1.700 . S
C667 C306 1.565 . S
C682 C61 1.499 . S
C694 C344 1.525 . S
C721 C302 1.556 . S
C709 C175 1.640 . S
C736 C181 1.291 . S
C748 C322 1.239 . S
C763 C247 1.517 . S
C775 C348 1.244 . S
C790 C277 1.759 . S
C802 C369 1.406 . S
C817 C145 1.738 . S
C829 C325 1.683 . S
C856 C305 1.691 . S
C844 C211 1.767 . S
C883 C364 1.149 . S
C871 C217 1.246 . S
C910 C343 1.525 . S
C898 C283 1.612 . S
C925 C169 1.563 . S
C937 C367 1.510 . S
C964 C327 1.273 . S
C952 C241 1.513 . S
C991 C303 1.412 . S
C979 C253 1.519 . S
C1006 C205 1.417 . S
C1018 C346 1.410 . S
