# Generated by pormake.
# Topology zzz, (3,6)-cn, num edge types: 1
# Building blocks:
#     Node 0, Type 0, BuildingBlock: QEWDON_clean_linker_0, # of connection points: 3
#     Node 1, Type 0, BuildingBlock: QEWDON_clean_linker_0, # of connection points: 3
#     Node 2, Type 0, BuildingBlock: QEWDON_clean_linker_0, # of connection points: 3
#     Node 3, Type 0, BuildingBlock: QEWDON_clean_linker_0, # of connection points: 3
#     Node 4, Type 0, BuildingBlock: QEWDON_clean_linker_0, # of connection points: 3
#     Node 5, Type 0, BuildingBlock: QEWDON_clean_linker_0, # of connection points: 3
#     Node 6, Type 0, BuildingBlock: QEWDON_clean_linker_0, # of connection points: 3
#     Node 7, Type 0, BuildingBlock: QEWDON_clean_linker_0, # of connection points: 3
#     Node 8, Type 1, BuildingBlock: KUMBUR_clean_sbu_0, # of connection points: 6
#     Node 9, Type 1, BuildingBlock: KUMBUR_clean_sbu_0, # of connection points: 6
#     Node 10, Type 1, BuildingBlock: KUMBUR_clean_sbu_0, # of connection points: 6
#     Node 11, Type 1, BuildingBlock: KUMBUR_clean_sbu_0, # of connection points: 6
#     Edge 12, Type (0, 1), BuildingBlock: MIFKUJ_clean_linker_0, # of connection points: 2
#     Edge 13, Type (0, 1), BuildingBlock: MIFKUJ_clean_linker_0, # of connection points: 2
#     Edge 14, Type (0, 1), BuildingBlock: MIFKUJ_clean_linker_0, # of connection points: 2
#     Edge 15, Type (0, 1), BuildingBlock: MIFKUJ_clean_linker_0, # of connection points: 2
#     Edge 16, Type (0, 1), BuildingBlock: MIFKUJ_clean_linker_0, # of connection points: 2
#     Edge 17, Type (0, 1), BuildingBlock: MIFKUJ_clean_linker_0, # of connection points: 2
#     Edge 18, Type (0, 1), BuildingBlock: MIFKUJ_clean_linker_0, # of connection points: 2
#     Edge 19, Type (0, 1), BuildingBlock: MIFKUJ_clean_linker_0, # of connection points: 2
#     Edge 20, Type (0, 1), BuildingBlock: MIFKUJ_clean_linker_0, # of connection points: 2
#     Edge 21, Type (0, 1), BuildingBlock: MIFKUJ_clean_linker_0, # of connection points: 2
#     Edge 22, Type (0, 1), BuildingBlock: MIFKUJ_clean_linker_0, # of connection points: 2
#     Edge 23, Type (0, 1), BuildingBlock: MIFKUJ_clean_linker_0, # of connection points: 2
#     Edge 24, Type (0, 1), BuildingBlock: MIFKUJ_clean_linker_0, # of connection points: 2
#     Edge 25, Type (0, 1), BuildingBlock: MIFKUJ_clean_linker_0, # of connection points: 2
#     Edge 26, Type (0, 1), BuildingBlock: MIFKUJ_clean_linker_0, # of connection points: 2
#     Edge 27, Type (0, 1), BuildingBlock: MIFKUJ_clean_linker_0, # of connection points: 2
#     Edge 28, Type (0, 1), BuildingBlock: MIFKUJ_clean_linker_0, # of connection points: 2
#     Edge 29, Type (0, 1), BuildingBlock: MIFKUJ_clean_linker_0, # of connection points: 2
#     Edge 30, Type (0, 1), BuildingBlock: MIFKUJ_clean_linker_0, # of connection points: 2
#     Edge 31, Type (0, 1), BuildingBlock: MIFKUJ_clean_linker_0, # of connection points: 2
#     Edge 32, Type (0, 1), BuildingBlock: MIFKUJ_clean_linker_0, # of connection points: 2
#     Edge 33, Type (0, 1), BuildingBlock: MIFKUJ_clean_linker_0, # of connection points: 2
#     Edge 34, Type (0, 1), BuildingBlock: MIFKUJ_clean_linker_0, # of connection points: 2
#     Edge 35, Type (0, 1), BuildingBlock: MIFKUJ_clean_linker_0, # of connection points: 2
# Relax obj value: 0.092
# Max RMSD: 0.140
# Mean RMSD: 0.071
data_MOF--net-zzz--node1-KUMBUR_clean_sbu_0--node2-QEWDON_clean_linker_0--edge1-MIFKUJ_clean_linker_0
_symmetry_space_group_name_H-M    P1
_symmetry_Int_Tables_number       1
_symmetry_cell_setting            triclinic
loop_
_symmetry_equiv_pos_as_xyz
'x, y, z'
_cell_length_a     69.877061
_cell_length_b     69.888489
_cell_length_c     18.470939
_cell_angle_alpha  90.541056
_cell_angle_beta   90.121508
_cell_angle_gamma 89.903343
loop_
_atom_site_label
_atom_site_type_symbol
_atom_site_fract_x
_atom_site_fract_y
_atom_site_fract_z
_atom_type_partial_charge
H0 H 0.75745 0.54431 0.06468 0.0
C1 C 0.7676 0.54222 0.10819 0.0
C2 C 0.78712 0.54409 0.09256 0.0
C3 C 0.76126 0.53845 0.17899 0.0
H4 H 0.81577 0.54416 0.13616 0.0
C5 C 0.80067 0.54271 0.1485 0.0
C6 C 0.79511 0.53865 0.21957 0.0
C7 C 0.7754 0.53613 0.2343 0.0
C8 C 0.74 0.53815 0.19504 0.0
H9 H 0.77125 0.53264 0.28898 0.0
C10 C 0.72592 0.53373 0.14109 0.0
C11 C 0.70605 0.53478 0.15668 0.0
C12 C 0.73351 0.54353 0.26444 0.0
H13 H 0.74339 0.54774 0.30679 0.0
C14 C 0.71402 0.54431 0.28019 0.0
H15 H 0.73022 0.5292 0.08739 0.0
C16 C 0.70046 0.54005 0.22713 0.0
H17 H 0.68546 0.5413 0.24108 0.0
H18 H 0.70938 0.54859 0.33383 0.0
H19 H 0.01915 0.76692 0.07753 0.0
C20 C 0.01841 0.77531 0.12693 0.0
C21 C 0.02601 0.79379 0.12633 0.0
C22 C 1.00945 0.76813 0.18957 0.0
H23 H 0.03003 0.82021 0.18465 0.0
C24 C 0.02446 0.80571 0.1871 0.0
C25 C 0.01518 0.79979 0.24952 0.0
C26 C 1.00782 0.78083 0.25129 0.0
C27 C 1.00119 0.74792 0.1881 0.0
H28 H 1.00108 0.77619 0.30069 0.0
C29 C 1.00736 0.73337 0.1377 0.0
C30 C 0.99886 0.71488 0.13638 0.0
C31 C 0.98632 0.74312 0.23604 0.0
H32 H 0.98044 0.75351 0.27356 0.0
C33 C 0.97824 0.72487 0.23556 0.0
H34 H 0.01887 0.73608 0.10021 0.0
C35 C 0.98443 0.71091 0.18655 0.0
H36 H 0.9777 0.69695 0.18711 0.0
H37 H 0.96686 0.72158 0.27309 0.0
H38 H 0.76864 1.00873 0.0636 0.0
C39 C 0.75826 1.0117 0.10564 0.0
C40 C 0.73896 1.01268 0.08587 0.0
C41 C 0.76408 0.01379 0.17828 0.0
H42 H 0.71006 0.01583 0.12328 0.0
C43 C 0.72498 0.01534 0.13937 0.0
C44 C 0.72992 0.01757 0.2128 0.0
C45 C 0.7496 0.01677 0.23189 0.0
C46 C 0.78511 1.01198 0.19696 0.0
H47 H 0.75351 0.0189 0.28807 0.0
C48 C 0.79988 0.01598 0.1458 0.0
C49 C 0.81947 0.01276 0.16224 0.0
C50 C 0.79064 1.00509 0.26522 0.0
H51 H 0.78012 1.00126 0.3054 0.0
C52 C 0.80989 1.00229 0.28224 0.0
H53 H 0.79633 0.02179 0.0934 0.0
C54 C 0.82413 1.00596 0.23147 0.0
H55 H 0.83884 1.00298 0.2461 0.0
H56 H 0.8138 0.99682 0.33489 0.0
H57 H 0.55288 0.78067 0.0982 0.0
C58 C 0.5491 0.76973 0.13662 0.0
C59 C 0.5532 0.75072 0.11827 0.0
C60 C 0.54047 0.77449 0.20341 0.0
H61 H 0.55224 0.72143 0.15155 0.0
C62 C 0.5491 0.73612 0.16696 0.0
C63 C 0.5402 0.74 0.23335 0.0
C64 C 0.53597 0.75927 0.25163 0.0
C65 C 0.53659 0.79523 0.22239 0.0
H66 H 0.52866 0.76216 0.30213 0.0
C67 C 0.53417 0.80952 0.16836 0.0
C68 C 0.53219 0.82914 0.18717 0.0
C69 C 0.53626 0.80114 0.29546 0.0
H70 H 0.53858 0.7911 0.3388 0.0
C71 C 0.5335 0.82031 0.31429 0.0
H72 H 0.53413 0.8056 0.11163 0.0
C73 C 0.53154 0.83416 0.26101 0.0
H74 H 0.5295 0.8489 0.27791 0.0
H75 H 0.53319 0.82452 0.37083 0.0
H76 H 0.27202 0.52076 0.16091 0.0
C77 C 0.262 0.5164 0.11918 0.0
C78 C 0.24237 0.51729 0.13443 0.0
C79 C 0.26871 0.51076 0.05038 0.0
H80 H 0.21392 0.51299 0.0915 0.0
C81 C 0.22912 0.51263 0.07982 0.0
C82 C 0.23505 0.50767 0.00985 0.0
C83 C 0.25491 0.50664 0.99518 0.0
C84 C 0.29003 0.51029 0.03662 0.0
H85 H 0.25943 0.50237 0.94141 0.0
C86 C 0.3036 0.50673 0.09299 0.0
C87 C 0.32361 0.50772 0.08032 0.0
C88 C 0.29709 0.51449 0.96732 0.0
H89 H 0.28751 0.51783 0.92312 0.0
C90 C 0.31671 0.51519 0.95424 0.0
H91 H 0.2987 0.503 0.14655 0.0
C92 C 0.32981 0.51199 0.00987 0.0
H93 H 0.3449 0.51336 0.99773 0.0
H94 H 0.32183 0.51866 0.90067 0.0
H95 H 0.04554 0.27606 0.11975 0.0
C96 C 0.04148 0.26602 0.07761 0.0
C97 C 0.04884 0.24746 0.08167 0.0
C98 C 0.02945 0.27153 0.02006 0.0
H99 H 0.05014 0.21955 0.03226 0.0
C100 C 0.0447 0.23404 0.02721 0.0
C101 C 0.03269 0.23842 0.96909 0.0
C102 C 0.02471 0.25719 0.96634 0.0
C103 C 0.02304 0.29236 0.01516 0.0
H104 H 0.01507 0.26045 0.92228 0.0
C105 C 0.02287 0.30528 0.07633 0.0
C106 C 0.01923 0.32521 0.06798 0.0
C107 C 0.01851 0.30001 0.94698 0.0
H108 H 0.01886 0.29128 0.89841 0.0
C109 C 0.01414 0.31936 0.93917 0.0
H110 H 0.02591 0.30017 0.13017 0.0
C111 C 0.01465 0.33181 0.99848 0.0
H112 H 1.0114 0.34678 0.98979 0.0
H113 H 1.01073 0.32486 0.88608 0.0
H114 H 0.25934 0.05207 0.11541 0.0
C115 C 0.27014 0.04919 0.07495 0.0
C116 C 0.28901 0.054 0.09199 0.0
C117 C 0.2653 0.04109 0.0072 0.0
H118 H 0.31795 0.05516 0.05427 0.0
C119 C 0.30332 0.05168 0.03985 0.0
C120 C 0.29949 0.04377 0.97144 0.0
C121 C 0.2804 0.03805 0.95578 0.0
C122 C 0.24443 0.03693 0.99061 0.0
H123 H 0.27745 0.03147 0.90373 0.0
C124 C 0.23054 0.0341 0.0464 0.0
C125 C 0.2107 0.03302 0.03052 0.0
C126 C 0.23784 0.03738 0.91857 0.0
H127 H 0.24752 0.03989 0.87408 0.0
C128 C 0.21842 0.03539 0.90247 0.0
H129 H 0.23488 0.03322 0.10246 0.0
C130 C 0.20498 0.03345 0.95762 0.0
H131 H 0.19 0.03232 0.94308 0.0
H132 H 0.21368 0.03584 0.84668 0.0
H133 H 0.47949 0.25293 0.06975 0.0
C134 C 0.48301 0.26309 0.02814 0.0
C135 C 0.48087 0.28251 0.045 0.0
C136 C 0.48983 0.25699 0.95983 0.0
H137 H 0.4831 0.3113 0.00515 0.0
C138 C 0.48427 0.29618 0.99178 0.0
C139 C 0.49052 0.29094 0.92284 0.0
C140 C 0.49366 0.27133 0.90692 0.0
C141 C 0.49295 0.23582 0.94558 0.0
H142 H 0.49939 0.26752 0.8544 0.0
C143 C 0.49551 0.22251 0.00307 0.0
C144 C 0.49743 0.20266 0.98949 0.0
C145 C 0.49279 0.2285 0.87426 0.0
H146 H 0.49035 0.2377 0.82843 0.0
C147 C 0.49528 0.20896 0.86056 0.0
H148 H 0.49635 0.22733 0.05873 0.0
C149 C 0.49755 0.19615 0.91742 0.0
H150 H 0.49893 0.18103 0.90503 0.0
H151 H 0.49508 0.20365 0.80531 0.0
Tb152 Tb 0.03325 0.01681 0.68653 0.0
C153 C 0.96621 0.9984 0.48904 0.0
C154 C 0.97596 0.97058 0.41887 0.0
C155 C 0.94233 0.97565 0.44598 0.0
C156 C 0.98066 0.98719 0.45926 0.0
C157 C 0.94686 0.99304 0.48052 0.0
C158 C 0.95685 0.96446 0.41501 0.0
C159 C 0.93771 0.02379 0.53013 0.0
N160 N 0.97101 0.01545 0.52015 0.0
C161 C 0.95705 0.0286 0.53673 0.0
C162 C 0.93259 1.00578 0.50339 0.0
Tb163 Tb 1.00326 0.02105 0.53056 0.0
N164 N 0.99903 0.99361 0.46328 0.0
C165 C 0.0128 0.98536 0.42039 0.0
C166 C 0.99041 0.96119 0.38015 0.0
C167 C 1.00881 0.96886 0.3797 0.0
H168 H 0.96065 0.04263 0.55716 0.0
H169 H 0.01995 0.96207 0.34792 0.0
H170 H 0.95307 0.95155 0.38541 0.0
H171 H 0.92676 0.034 0.54558 0.0
H172 H 0.02707 0.99098 0.41785 0.0
H173 H 0.01759 0.07562 0.8701 0.0
H174 H 0.98734 0.94849 0.34813 0.0
H175 H 0.07506 0.99686 0.64415 0.0
H176 H 1.01014 0.04739 0.79558 0.0
H177 H 0.10925 1.00462 0.65491 0.0
H178 H 0.92757 0.97117 0.43988 0.0
H179 H 0.0506 0.08826 0.87457 0.0
H180 H 0.08512 0.08452 0.83903 0.0
H181 H 0.91758 1.00217 0.49776 0.0
H182 H 0.11019 0.06509 0.7803 0.0
N183 N 0.03856 0.04396 0.7552 0.0
C184 C 0.02466 0.05254 0.79652 0.0
C185 C 0.04742 0.07579 0.84141 0.0
C186 C 0.06183 0.06632 0.80271 0.0
C187 C 0.02881 0.06866 0.83924 0.0
C188 C 0.0569 0.05013 0.76041 0.0
H189 H 0.11937 0.03502 0.71289 0.0
N190 N 0.06554 0.02288 0.69376 0.0
C191 C 0.09862 0.01452 0.67562 0.0
C192 C 0.07093 0.03917 0.72846 0.0
C193 C 0.07915 1.01016 0.66982 0.0
C194 C 0.10427 0.03172 0.70807 0.0
C195 C 0.09039 0.04414 0.73625 0.0
O196 O 0.04352 0.99273 0.74194 0.0
O197 O 0.01654 1.00128 0.60461 0.0
O198 O 0.9842 0.01276 0.6195 0.0
O199 O 1.00298 0.02008 0.72039 0.0
O200 O 0.04144 0.9891 0.63754 0.0
O201 O 0.02341 1.01214 0.7923 0.0
O202 O 0.9929 0.02691 0.42603 0.0
O203 O 0.01864 0.0363 0.61485 0.0
O204 O 0.05056 0.0282 0.5969 0.0
O205 O 0.03338 0.01509 0.50082 0.0
O206 O 0.99347 0.04806 0.58148 0.0
O207 O 0.01568 0.04353 0.47219 0.0
C208 C 0.027 0.98653 0.59577 0.0
C209 C 0.04498 0.99577 0.86871 0.0
C210 C 0.05549 0.97542 0.96729 0.0
C211 C 0.04517 0.9781 0.90297 0.0
C212 C 0.06594 0.99074 0.99702 0.0
C213 C 0.05517 1.01115 0.89922 0.0
C214 C 0.06563 1.00859 0.96319 0.0
C215 C 0.98629 0.01561 0.6901 0.0
C216 C 0.03425 0.99719 0.80071 0.0
C217 C 0.09534 0.06092 0.77426 0.0
C218 C 0.08107 0.07199 0.80761 0.0
C219 C 1.00767 0.05062 0.62506 0.0
C220 C 0.9944 0.05966 0.39495 0.0
C221 C 1.00589 0.07576 0.38468 0.0
C222 C 0.99812 0.09286 0.35835 0.0
C223 C 0.97838 0.09377 0.34354 0.0
C224 C 0.9747 0.06076 0.37999 0.0
C225 C 0.96677 0.0778 0.35465 0.0
C226 C 0.0493 0.02272 0.52794 0.0
C227 C 1.00361 0.04189 0.41907 0.0
H228 H 0.03754 0.96619 0.87832 0.0
H229 H 0.07417 0.98892 0.04624 0.0
H230 H 0.05513 0.025 0.87387 0.0
H231 H 0.07357 0.02044 0.9864 0.0
H232 H 0.021 0.07492 0.39774 0.0
H233 H 0.97196 0.10667 0.32239 0.0
H234 H 0.96547 0.0485 0.38742 0.0
H235 H 0.95161 0.07858 0.34291 0.0
Tb236 Tb 0.52168 0.03521 0.67208 0.0
C237 C 0.5468 0.98314 0.45376 0.0
C238 C 0.5587 1.00359 0.35917 0.0
C239 C 0.57461 0.97352 0.38271 0.0
C240 C 0.54548 0.99981 0.41525 0.0
C241 C 0.56107 0.96947 0.43626 0.0
C242 C 0.57364 0.99071 0.34504 0.0
C243 C 0.54513 0.94713 0.51353 0.0
N244 N 0.53275 0.97927 0.50193 0.0
C245 C 0.53102 0.96088 0.52701 0.0
C246 C 0.5605 0.95159 0.46919 0.0
Tb247 Tb 0.51067 1.0035 0.52551 0.0
N248 N 0.53036 1.01155 0.42858 0.0
C249 C 0.52664 0.02606 0.38071 0.0
C250 C 0.55592 0.01965 0.31616 0.0
C251 C 0.53957 0.03068 0.32601 0.0
H252 H 0.51857 0.95648 0.55696 0.0
H253 H 0.53659 0.04248 0.29013 0.0
H254 H 0.58389 0.99341 0.3024 0.0
H255 H 0.54382 0.93292 0.53579 0.0
H256 H 0.51348 0.03395 0.38099 0.0
H257 H 0.47035 1.01086 0.87535 0.0
H258 H 0.56574 0.02305 0.27284 0.0
H259 H 0.53694 0.07946 0.64029 0.0
H260 H 0.49567 1.00657 0.78851 0.0
H261 H 0.52573 0.1125 0.66182 0.0
H262 H 0.58525 0.96302 0.36717 0.0
H263 H 0.45613 0.0427 0.89704 0.0
H264 H 0.45572 0.07762 0.8705 0.0
H265 H 0.57118 0.94076 0.45725 0.0
H266 H 0.47008 0.10518 0.80969 0.0
N267 N 0.4972 0.03618 0.75724 0.0
C268 C 0.49053 0.02091 0.7963 0.0
C269 C 0.46772 0.0411 0.85853 0.0
C270 C 0.47488 0.05683 0.8214 0.0
C271 C 0.47572 0.02314 0.84645 0.0
C272 C 0.48998 0.05398 0.77146 0.0
H273 H 0.49626 0.11836 0.73255 0.0
N274 N 0.51322 0.06656 0.69329 0.0
C275 C 0.51763 0.10057 0.68261 0.0
C276 C 0.49796 0.06956 0.73714 0.0
C277 C 0.52387 0.08182 0.67022 0.0
C278 C 0.501 0.10381 0.72245 0.0
C279 C 0.49125 0.08827 0.75205 0.0
O280 O 0.5479 0.02479 0.71267 0.0
O281 O 0.5334 0.01788 0.58388 0.0
O282 O 0.51706 0.9856 0.61998 0.0
O283 O 0.52178 1.00641 0.71778 0.0
O284 O 0.54265 0.04561 0.5939 0.0
O285 O 0.53508 0.04988 0.75844 0.0
O286 O 0.49717 0.97959 0.47809 0.0
O287 O 0.49868 0.02142 0.61145 0.0
O288 O 0.51283 0.05407 0.58393 0.0
O289 O 0.50221 0.03284 0.49457 0.0
O290 O 0.48756 0.99459 0.59682 0.0
O291 O 0.48914 1.00802 0.44765 0.0
C292 C 0.54508 0.02991 0.55786 0.0
C293 C 0.56852 0.0507 0.7391 0.0
C294 C 0.60162 0.05128 0.69621 0.0
C295 C 0.58486 0.04114 0.71309 0.0
C296 C 0.60171 0.07131 0.70502 0.0
C297 C 0.56914 0.07067 0.74887 0.0
C298 C 0.58558 0.08087 0.73122 0.0
C299 C 0.52058 0.98902 0.68931 0.0
C300 C 0.55068 0.03993 0.75247 0.0
C301 C 0.47557 0.09095 0.79836 0.0
C302 C 0.46747 0.07527 0.83324 0.0
C303 C 0.48539 1.01036 0.63232 0.0
C304 C 0.46423 0.98517 0.45993 0.0
C305 C 0.45024 0.99955 0.46853 0.0
C306 C 0.43093 0.9948 0.48128 0.0
C307 C 0.42606 0.97537 0.48862 0.0
C308 C 0.45888 0.96593 0.46686 0.0
C309 C 0.43996 0.96112 0.48198 0.0
C310 C 0.50548 0.05041 0.51935 0.0
C311 C 0.48448 0.99001 0.44547 0.0
H312 H 0.58452 0.02574 0.70621 0.0
H313 H 0.61449 0.07957 0.69451 0.0
H314 H 0.55689 0.07848 0.76957 0.0
H315 H 0.58592 0.09625 0.73878 0.0
H316 H 0.45436 0.01443 0.46471 0.0
H317 H 0.41137 0.971 0.49671 0.0
H318 H 0.46935 0.95458 0.46081 0.0
H319 H 0.43597 0.94623 0.48706 0.0
Tb320 Tb 0.52963 0.51107 0.55968 0.0
C321 C 0.45721 0.51252 0.73613 0.0
C322 C 0.43334 0.52453 0.65267 0.0
C323 C 0.42406 0.50239 0.74685 0.0
C324 C 0.45256 0.52335 0.67602 0.0
C325 C 0.44286 0.50252 0.77374 0.0
C326 C 0.4193 0.51339 0.68643 0.0
C327 C 0.46599 0.49608 0.86784 0.0
N328 N 0.47543 0.51332 0.76178 0.0
C329 C 0.47971 0.50625 0.82894 0.0
C330 C 0.44761 0.49382 0.83932 0.0
Tb331 Tb 0.49671 0.52957 0.69111 0.0
N332 N 0.46647 0.53415 0.64505 0.0
C333 C 0.46148 0.54814 0.59698 0.0
C334 C 0.42859 0.53759 0.59867 0.0
C335 C 0.44263 0.54978 0.57215 0.0
H336 H 0.49385 0.50789 0.85166 0.0
H337 H 0.43897 0.56046 0.53235 0.0
H338 H 0.40455 0.51385 0.66828 0.0
H339 H 0.46961 0.48998 0.91974 0.0
H340 H 0.47181 0.55797 0.57575 0.0
H341 H 0.58823 0.47621 0.69615 0.0
H342 H 0.41401 0.53892 0.57926 0.0
H343 H 0.52991 0.53726 0.41004 0.0
H344 H 0.55493 0.4823 0.66725 0.0
H345 H 0.55332 0.55426 0.33547 0.0
H346 H 0.41291 0.49454 0.77435 0.0
H347 H 0.61394 0.49543 0.64027 0.0
H348 H 0.62322 0.52037 0.54984 0.0
H349 H 0.43698 0.48603 0.86982 0.0
H350 H 0.61363 0.54167 0.45063 0.0
N351 N 0.56069 0.50511 0.59428 0.0
C352 C 0.56558 0.4909 0.64129 0.0
C353 C 0.5991 0.49824 0.6269 0.0
C354 C 0.59418 0.51199 0.57573 0.0
C355 C 0.58471 0.48739 0.65861 0.0
C356 C 0.57464 0.51488 0.55968 0.0
H357 H 0.58761 0.55401 0.36901 0.0
N358 N 0.55052 0.5275 0.48686 0.0
C359 C 0.55804 0.54659 0.38291 0.0
C360 C 0.56934 0.52659 0.50392 0.0
C361 C 0.54479 0.53683 0.42551 0.0
C362 C 0.57736 0.54649 0.4022 0.0
C363 C 0.58328 0.53612 0.46261 0.0
O364 O 0.5275 0.49889 0.45515 0.0
O365 O 0.49959 0.51553 0.58683 0.0
O366 O 0.49524 0.49817 0.70034 0.0
O367 O 0.52304 0.48879 0.64005 0.0
O368 O 0.50753 0.51976 0.48235 0.0
O369 O 0.53122 0.48125 0.54923 0.0
O370 O 0.48171 0.5466 0.76663 0.0
O371 O 0.52638 0.52395 0.66586 0.0
O372 O 0.5333 0.54243 0.56656 0.0
O373 O 0.50285 0.55076 0.60639 0.0
O374 O 0.51813 0.52039 0.77111 0.0
O375 O 0.50966 0.55473 0.73203 0.0
C376 C 0.49312 0.51974 0.52488 0.0
C377 C 0.54244 0.46868 0.43953 0.0
C378 C 0.54725 0.43707 0.38614 0.0
C379 C 0.53541 0.45065 0.42011 0.0
C380 C 0.56639 0.44183 0.37168 0.0
C381 C 0.5615 0.4734 0.42458 0.0
C382 C 0.57342 0.45997 0.39052 0.0
C383 C 0.50814 0.48506 0.68213 0.0
C384 C 0.52964 0.48158 0.47921 0.0
C385 C 0.6027 0.53432 0.48119 0.0
C386 C 0.60815 0.52222 0.53769 0.0
C387 C 0.53263 0.51954 0.72816 0.0
C388 C 0.4872 0.57954 0.74731 0.0
C389 C 0.49981 0.59512 0.75079 0.0
C390 C 0.49417 0.61332 0.72615 0.0
C391 C 0.47555 0.61561 0.69814 0.0
C392 C 0.46842 0.58244 0.7222 0.0
C393 C 0.46275 0.60032 0.69716 0.0
C394 C 0.51942 0.55524 0.57575 0.0
C395 C 0.49426 0.56023 0.76537 0.0
H396 H 0.52076 0.447 0.43338 0.0
H397 H 0.57584 0.43162 0.34546 0.0
H398 H 0.56717 0.48727 0.43973 0.0
H399 H 0.58816 0.46358 0.37913 0.0
H400 H 0.514 0.59293 0.77291 0.0
H401 H 0.47082 0.62919 0.67675 0.0
H402 H 0.45818 0.57085 0.72067 0.0
H403 H 0.4484 0.60231 0.67632 0.0
Tb404 Tb 0.01934 0.5317 0.55386 0.0
C405 C 0.02452 0.4608 0.7461 0.0
C406 C 1.0083 0.43558 0.68022 0.0
C407 C 0.03368 0.42763 0.76491 0.0
C408 C 1.01116 0.45518 0.69561 0.0
C409 C 0.0357 0.44711 0.78269 0.0
C410 C 0.01997 0.42186 0.71375 0.0
C411 C 0.04857 0.47275 0.85634 0.0
N412 N 0.0258 0.4797 0.76216 0.0
C413 C 0.03712 0.48575 0.81861 0.0
C414 C 0.04807 0.45337 0.83761 0.0
Tb415 Tb 1.00669 0.50005 0.69661 0.0
N416 N 1.00013 0.46888 0.66495 0.0
C417 C 0.98485 0.4637 0.62274 0.0
C418 C 0.99333 0.43034 0.63385 0.0
C419 C 0.98138 0.44449 0.606 0.0
H420 H 0.03784 0.5007 0.83338 0.0
H421 H 0.96942 0.44071 0.57172 0.0
H422 H 0.01813 0.40675 0.70205 0.0
H423 H 0.05782 0.47772 0.89963 0.0
H424 H 0.97546 0.47428 0.60004 0.0
H425 H 0.05631 0.59169 0.67575 0.0
H426 H 0.99055 0.41545 0.6211 0.0
H427 H 0.98756 0.53035 0.4183 0.0
H428 H 0.05021 0.55796 0.65052 0.0
H429 H 0.96728 0.55294 0.3521 0.0
H430 H 0.04225 0.41689 0.7919 0.0
H431 H 0.03541 0.61668 0.62362 0.0
H432 H 1.008 0.62496 0.54112 0.0
H433 H 0.0569 0.44332 0.86702 0.0
H434 H 0.98375 0.61436 0.45256 0.0
N435 N 0.02588 0.56304 0.58327 0.0
C436 C 0.04095 0.56842 0.62623 0.0
C437 C 0.03266 0.60173 0.61166 0.0
C438 C 0.01782 0.59626 0.56506 0.0
C439 C 0.04446 0.58772 0.6413 0.0
C440 C 0.01499 0.57659 0.55097 0.0
H441 H 0.96862 0.58754 0.38104 0.0
N442 N 1.00024 0.55172 0.48654 0.0
C443 C 0.97685 0.55815 0.39396 0.0
C444 C 1.00161 0.57071 0.50095 0.0
C445 C 0.98851 0.54536 0.43175 0.0
C446 C 0.9776 0.57765 0.4106 0.0
C447 C 0.9903 0.5842 0.46389 0.0
O448 O 0.02809 0.52583 0.44692 0.0
O449 O 0.0163 0.50192 0.58607 0.0
O450 O 0.03742 0.49577 0.67663 0.0
O451 O 0.04416 0.52522 0.62556 0.0
O452 O 1.00723 0.50893 0.48527 0.0
O453 O 0.0477 0.53797 0.52467 0.0
O454 O 0.99879 0.50451 0.80513 0.0
O455 O 1.00972 0.52974 0.66434 0.0
O456 O 0.98874 0.53639 0.575 0.0
O457 O 0.98171 0.50697 0.62623 0.0
O458 O 0.01812 0.52304 0.7661 0.0
O459 O 0.97832 0.4942 0.72662 0.0
C460 C 1.00918 0.49482 0.52844 0.0
C461 C 0.0597 0.5135 0.4497 0.0
C462 C 0.09222 0.50101 0.46269 0.0
C463 C 0.07918 0.51639 0.46492 0.0
C464 C 0.08534 0.48258 0.44549 0.0
C465 C 0.0534 0.49512 0.42935 0.0
C466 C 0.06613 0.47976 0.42804 0.0
C467 C 0.04972 0.50937 0.65902 0.0
C468 C 0.04596 0.52924 0.46245 0.0
C469 C 0.99239 0.60377 0.48002 0.0
C470 C 1.00617 0.6098 0.53047 0.0
C471 C 0.01628 0.53707 0.72247 0.0
C472 C 0.96747 0.51679 0.81422 0.0
C473 C 0.95151 0.52177 0.77162 0.0
C474 C 0.93869 0.53618 0.7944 0.0
C475 C 0.94248 0.54579 0.86049 0.0
C476 C 0.97083 0.52666 0.87947 0.0
C477 C 0.95848 0.54116 0.90201 0.0
C478 C 0.97633 0.52287 0.59263 0.0
C479 C 0.98079 0.50147 0.79118 0.0
H480 H 0.08408 0.53069 0.47835 0.0
H481 H 0.09479 0.47029 0.44518 0.0
H482 H 0.03859 0.49247 0.41568 0.0
H483 H 0.06105 0.46557 0.41392 0.0
H484 H 0.94903 0.51426 0.72115 0.0
H485 H 0.93277 0.55645 0.88215 0.0
H486 H 0.98301 0.52312 0.91322 0.0
H487 H 0.9611 0.54861 0.95272 0.0
H488 H 0.17782 0.0542 0.04009 0.0
H489 H 0.15215 0.05226 0.12929 0.0
H490 H 0.18324 1.00839 0.24245 0.0
H491 H 0.20916 1.01028 0.15256 0.0
H492 H 0.14455 0.99919 0.22595 0.0
H493 H 0.18108 0.05251 0.31344 0.0
H494 H 0.1977 0.08349 0.30494 0.0
H495 H 0.14496 0.11092 0.24608 0.0
H496 H 0.12806 0.08003 0.2532 0.0
H497 H 0.08465 0.03867 0.55848 0.0
H498 H 0.11301 0.03963 0.48113 0.0
H499 H 0.08085 0.01352 0.30708 0.0
H500 H 0.05288 1.01158 0.38518 0.0
H501 H 0.12234 0.05644 0.36281 0.0
H502 H 0.10869 0.98804 0.19401 0.0
H503 H 0.09202 0.95713 0.2062 0.0
H504 H 0.10058 0.95913 0.43643 0.0
H505 H 0.11754 0.98989 0.42553 0.0
C506 C 0.17927 0.04411 0.08392 0.0
C507 C 0.19564 0.03235 0.08869 0.0
C508 C 0.16455 0.04309 0.1353 0.0
C509 C 0.16562 0.03022 0.19319 0.0
C510 C 0.18197 0.01845 0.19845 0.0
C511 C 0.19688 0.01964 0.14728 0.0
C512 C 0.14958 0.02908 0.2473 0.0
C513 C 0.13976 1.01171 0.256 0.0
C514 C 0.14324 0.04531 0.28735 0.0
C515 C 0.15334 0.06392 0.28328 0.0
C516 C 0.17305 0.06512 0.29814 0.0
C517 C 0.18252 0.08267 0.29366 0.0
C518 C 0.1724 0.09916 0.27483 0.0
C519 C 0.15278 0.09813 0.2606 0.0
C520 C 0.14325 0.08061 0.26492 0.0
C521 C 0.08368 0.03273 0.50432 0.0
C522 C 0.06648 0.02441 0.47953 0.0
C523 C 0.09994 0.03351 0.45953 0.0
C524 C 0.09946 0.0262 0.38818 0.0
C525 C 0.08202 0.01868 0.36236 0.0
C526 C 0.06587 0.01767 0.40737 0.0
C527 C 0.11703 0.0266 0.34079 0.0
C528 C 0.12714 0.04387 0.33312 0.0
C529 C 0.12369 1.01023 0.30203 0.0
C530 C 0.11427 0.99134 0.30895 0.0
C531 C 0.10716 0.9818 0.24716 0.0
C532 C 0.09763 0.96433 0.25385 0.0
C533 C 0.09521 0.95622 0.32206 0.0
C534 C 0.10244 0.96546 0.38366 0.0
C535 C 0.11201 0.98291 0.37725 0.0
H536 H 0.08772 0.94278 0.32722 0.0
H537 H 0.17976 0.11273 0.2714 0.0
H538 H 0.5233 0.1735 0.0072 0.0
H539 H 0.52351 0.14864 0.09955 0.0
H540 H 0.47344 0.17397 0.19791 0.0
H541 H 0.47387 0.19943 0.10745 0.0
H542 H 0.4939 0.16184 0.30018 0.0
H543 H 0.47343 0.13143 0.0783 0.0
H544 H 0.4758 0.12171 0.94977 0.0
H545 H 0.52804 0.09158 0.99425 0.0
H546 H 0.52611 0.10127 0.12278 0.0
H547 H 0.48011 0.05305 0.40525 0.0
H548 H 0.47688 0.07931 0.31852 0.0
H549 H 0.52117 0.11055 0.43131 0.0
H550 H 0.52421 0.08466 0.51778 0.0
H551 H 0.50011 0.09392 0.22336 0.0
H552 H 0.51575 0.15783 0.41678 0.0
H553 H 0.51139 0.16606 0.5459 0.0
H554 H 0.46338 0.12794 0.55714 0.0
H555 H 0.46724 0.11973 0.42786 0.0
C556 C 0.51243 0.17385 0.04891 0.0
C557 C 0.49853 0.18845 0.04971 0.0
C558 C 0.51243 0.15947 0.10152 0.0
C559 C 0.49815 0.15889 0.15522 0.0
C560 C 0.4846 0.17385 0.15729 0.0
C561 C 0.48485 0.18848 0.1055 0.0
C562 C 0.49728 0.14275 0.20871 0.0
C563 C 0.49523 0.14702 0.28298 0.0
C564 C 0.49864 0.12319 0.1873 0.0
C565 C 0.4997 0.11723 0.11006 0.0
C566 C 0.48547 0.12281 0.06058 0.0
C567 C 0.48673 0.1173 0.98774 0.0
C568 C 0.50211 0.1061 0.96387 0.0
C569 C 0.51617 0.10028 0.01282 0.0
C570 C 0.51498 0.10576 0.08566 0.0
C571 C 0.48895 0.06566 0.41211 0.0
C572 C 0.50214 0.06686 0.46971 0.0
C573 C 0.48717 0.08065 0.36217 0.0
C574 C 0.49857 0.0972 0.36847 0.0
C575 C 0.51179 0.0983 0.42585 0.0
C576 C 0.51345 0.08344 0.47589 0.0
C577 C 0.49707 0.11309 0.31444 0.0
C578 C 0.49869 0.10876 0.24025 0.0
C579 C 0.49489 0.13254 0.33573 0.0
C580 C 0.49189 0.13807 0.4127 0.0
C581 C 0.50416 0.15134 0.44662 0.0
C582 C 0.5018 0.15597 0.5199 0.0
C583 C 0.48716 0.14748 0.55975 0.0
C584 C 0.47475 0.13446 0.52628 0.0
C585 C 0.47701 0.12983 0.453 0.0
H586 H 0.48542 0.15101 0.61655 0.0
H587 H 0.50315 0.10192 0.9075 0.0
H588 H 0.32216 0.51972 0.22374 0.0
H589 H 0.34787 0.51895 0.31416 0.0
H590 H 0.38458 0.49008 0.16075 0.0
H591 H 0.35874 0.48988 0.072 0.0
H592 H 0.39293 0.47684 0.2865 0.0
H593 H 0.38518 0.54072 0.19352 0.0
H594 H 0.36771 0.57056 0.16703 0.0
H595 H 0.35667 0.57902 0.39371 0.0
H596 H 0.37388 0.54909 0.42142 0.0
H597 H 0.47806 0.53957 0.41484 0.0
H598 H 0.44723 0.53537 0.35451 0.0
H599 H 0.43294 0.49042 0.50341 0.0
H600 H 0.4643 0.49446 0.56336 0.0
H601 H 0.41153 0.53959 0.39245 0.0
H602 H 0.40405 0.45809 0.41471 0.0
H603 H 0.42485 0.4299 0.4325 0.0
H604 H 0.47118 0.45872 0.32731 0.0
H605 H 0.4506 0.48696 0.30821 0.0
C606 C 0.33554 0.51281 0.20966 0.0
C607 C 0.33831 0.50516 0.13956 0.0
C608 C 0.3504 0.51258 0.26139 0.0
C609 C 0.36854 0.50487 0.24433 0.0
C610 C 0.37092 0.49627 0.17582 0.0
C611 C 0.35608 0.49637 0.12448 0.0
C612 C 0.38538 0.50673 0.29525 0.0
C613 C 0.39683 0.49057 0.31007 0.0
C614 C 0.39092 0.52459 0.32595 0.0
C615 C 0.38059 0.54256 0.30942 0.0
C616 C 0.3789 0.54888 0.23763 0.0
C617 C 0.36907 0.56581 0.22241 0.0
C618 C 0.36103 0.57664 0.27863 0.0
C619 C 0.36286 0.57059 0.35021 0.0
C620 C 0.37265 0.55365 0.36571 0.0
C621 C 0.46827 0.5289 0.43521 0.0
C622 C 0.47341 0.51769 0.49497 0.0
C623 C 0.45056 0.52653 0.40075 0.0
C624 C 0.43755 0.51258 0.42395 0.0
C625 C 0.44267 0.50123 0.48385 0.0
C626 C 0.46051 0.50366 0.51869 0.0
C627 C 0.41909 0.5098 0.38313 0.0
C628 C 0.40739 0.52579 0.37005 0.0
C629 C 0.41364 0.49192 0.35253 0.0
C630 C 0.42583 0.47468 0.3607 0.0
C631 C 0.41863 0.45834 0.39496 0.0
C632 C 0.43039 0.44237 0.40537 0.0
C633 C 0.44934 0.44255 0.38128 0.0
C634 C 0.45652 0.45862 0.34615 0.0
C635 C 0.44482 0.47461 0.33553 0.0
H636 H 0.45848 0.43025 0.38975 0.0
H637 H 0.35343 0.58975 0.26674 0.0
H638 H 0.03764 0.35981 0.06826 0.0
H639 H 0.03673 0.3854 0.15904 0.0
H640 H 1.00275 0.34985 0.29805 0.0
H641 H 1.00348 0.32406 0.20611 0.0
H642 H 0.98752 0.38477 0.29342 0.0
H643 H 0.05048 0.36145 0.33768 0.0
H644 H 0.08333 0.35128 0.30749 0.0
H645 H 0.09577 0.40744 0.22811 0.0
H646 H 0.06289 0.41788 0.25685 0.0
H647 H 0.03316 0.46397 0.56266 0.0
H648 H 0.03461 0.43254 0.50117 0.0
H649 H 0.98927 0.45016 0.35747 0.0
H650 H 0.98696 0.48054 0.42175 0.0
H651 H 0.04434 0.4209 0.37922 0.0
H652 H 0.96818 0.41971 0.26973 0.0
H653 H 0.93481 0.42656 0.30515 0.0
H654 H 0.94857 0.4146 0.5268 0.0
H655 H 0.98217 0.40805 0.49258 0.0
C656 C 0.0301 0.35727 0.11843 0.0
C657 C 0.02059 0.33972 0.12926 0.0
C658 C 0.02969 0.372 0.17087 0.0
C659 C 0.01977 0.36979 0.23647 0.0
C660 C 1.01057 0.3521 0.24829 0.0
C661 C 1.01111 0.33722 0.19579 0.0
C662 C 0.01822 0.38628 0.29019 0.0
C663 C 1.00002 0.39255 0.31235 0.0
C664 C 0.03437 0.39661 0.31633 0.0
C665 C 0.05416 0.3904 0.29888 0.0
C666 C 0.06017 0.37159 0.31325 0.0
C667 C 0.07881 0.36579 0.29649 0.0
C668 C 0.09162 0.3787 0.26575 0.0
C669 C 0.08582 0.39745 0.25185 0.0
C670 C 0.06719 0.40333 0.26844 0.0
C671 C 0.02303 0.46078 0.5198 0.0
C672 C 1.00948 0.47465 0.49905 0.0
C673 C 0.024 0.44282 0.48363 0.0
C674 C 1.01169 0.43829 0.42485 0.0
C675 C 0.99841 0.45241 0.40408 0.0
C676 C 0.99724 0.47008 0.4407 0.0
C677 C 0.01354 0.41965 0.38189 0.0
C678 C 0.03183 0.41303 0.36112 0.0
C679 C 0.99746 0.40884 0.35741 0.0
C680 C 0.97766 0.4137 0.37893 0.0
C681 C 0.96409 0.41872 0.32612 0.0
C682 C 0.94518 0.42259 0.34596 0.0
C683 C 0.93962 0.42121 0.41834 0.0
C684 C 0.95297 0.41592 0.47093 0.0
C685 C 0.97198 0.41228 0.45148 0.0
H686 H 0.92495 0.42412 0.4336 0.0
H687 H 0.10604 0.37418 0.25284 0.0
H688 H 0.81976 1.00369 0.01612 0.0
H689 H 0.84679 1.00522 0.93179 0.0
H690 H 0.88223 0.02916 0.101 0.0
H691 H 0.85522 0.02823 0.1845 0.0
H692 H 0.89054 0.04619 0.9787 0.0
H693 H 0.88388 0.98059 0.05059 0.0
H694 H 0.86701 0.94996 0.06676 0.0
H695 H 0.85733 0.94586 0.83748 0.0
H696 H 0.87393 0.97661 0.82007 0.0
H697 H 0.98259 0.0271 0.83253 0.0
H698 H 0.95388 0.02719 0.90769 0.0
H699 H 0.92141 1.00289 0.73077 0.0
H700 H 0.9503 1.00201 0.65628 0.0
H701 H 0.91072 0.98664 0.85194 0.0
H702 H 0.91925 0.05177 0.77997 0.0
H703 H 0.93741 0.0817 0.76518 0.0
H704 H 0.94421 0.08655 0.99571 0.0
H705 H 0.92638 0.05644 0.01184 0.0
C706 C 0.83319 1.00961 0.0351 0.0
C707 C 0.83521 0.01565 0.10773 0.0
C708 C 0.84878 1.01027 0.98689 0.0
C709 C 0.86685 0.01696 0.00992 0.0
C710 C 0.86861 0.0238 0.08145 0.0
C711 C 0.85309 0.02313 0.12953 0.0
C712 C 0.88406 0.0164 0.9608 0.0
C713 C 0.895 0.03309 0.95157 0.0
C714 C 0.88991 0.99948 0.92382 0.0
C715 C 0.87995 0.981 0.93413 0.0
C716 C 0.87802 0.97322 0.00369 0.0
C717 C 0.86853 0.95583 0.01307 0.0
C718 C 0.86105 0.946 0.95321 0.0
C719 C 0.86309 0.95351 0.88382 0.0
C720 C 0.87255 0.97091 0.87415 0.0
C721 C 0.96939 0.02172 0.80934 0.0
C722 C 0.96883 0.01495 0.73726 0.0
C723 C 0.95285 0.02191 0.85252 0.0
C724 C 0.93517 0.01548 0.82486 0.0
C725 C 0.93471 1.00814 0.75365 0.0
C726 C 0.95128 1.00785 0.71059 0.0
C727 C 0.91724 0.0164 0.87003 0.0
C728 C 0.90619 0.99977 0.87861 0.0
C729 C 0.91132 0.03338 0.9065 0.0
C730 C 0.9216 0.05176 0.89708 0.0
C731 C 0.92469 0.05917 0.82751 0.0
C732 C 0.93493 0.07616 0.81888 0.0
C733 C 0.94199 0.086 0.87946 0.0
C734 C 0.93875 0.0789 0.94882 0.0
C735 C 0.92857 0.06187 0.95775 0.0
H736 H 0.94995 0.09914 0.87266 0.0
H737 H 0.85371 0.93253 0.96058 0.0
H738 H 0.51332 0.82929 0.05486 0.0
H739 H 0.51112 0.85556 0.96791 0.0
H740 H 0.54692 0.89048 0.10589 0.0
H741 H 0.54935 0.8644 0.19204 0.0
H742 H 0.517 0.91087 0.06079 0.0
H743 H 0.56364 0.86953 0.94717 0.0
H744 H 0.57561 0.83909 0.89586 0.0
H745 H 0.53018 0.83902 0.73894 0.0
H746 H 0.51779 0.86934 0.78998 0.0
H747 H 0.53874 0.98685 0.82113 0.0
H748 H 0.54069 0.95936 0.90221 0.0
H749 H 0.50685 0.92594 0.75217 0.0
H750 H 0.50494 0.95328 0.67113 0.0
H751 H 0.53458 0.90433 0.80178 0.0
H752 H 0.48821 0.94565 0.91119 0.0
H753 H 0.47567 0.97601 0.96108 0.0
H754 H 0.51921 0.97582 0.12547 0.0
H755 H 0.53225 0.94562 0.0757 0.0
C756 C 0.52092 0.84247 0.06633 0.0
C757 C 0.53138 0.84464 0.13119 0.0
C758 C 0.51961 0.85755 0.0165 0.0
C759 C 0.52886 0.87515 0.02996 0.0
C760 C 0.53948 0.87721 0.09416 0.0
C761 C 0.5408 0.86221 0.14371 0.0
C762 C 0.5274 0.89156 0.97823 0.0
C763 C 0.52107 0.90945 0.00435 0.0
C764 C 0.53217 0.88976 0.90389 0.0
C765 C 0.53967 0.8716 0.87289 0.0
C766 C 0.55612 0.86295 0.90207 0.0
C767 C 0.56299 0.84573 0.87298 0.0
C768 C 0.55363 0.8371 0.81431 0.0
C769 C 0.5374 0.8457 0.78446 0.0
C770 C 0.53045 0.86291 0.81342 0.0
C771 C 0.53173 0.97364 0.80535 0.0
C772 C 0.52193 0.97228 0.73886 0.0
C773 C 0.5328 0.95789 0.85196 0.0
C774 C 0.5238 0.94045 0.83399 0.0
C775 C 0.51407 0.93908 0.76745 0.0
C776 C 0.51308 0.95477 0.72073 0.0
C777 C 0.52436 0.92371 0.88451 0.0
C778 C 0.53048 0.90575 0.85818 0.0
C779 C 0.51927 0.92541 0.95861 0.0
C780 C 0.51132 0.94345 0.98925 0.0
C781 C 0.4952 0.95214 0.95767 0.0
C782 C 0.48799 0.96932 0.98594 0.0
C783 C 0.49667 0.97786 0.04631 0.0
C784 C 0.51253 0.9692 0.07864 0.0
C785 C 0.51983 0.95205 0.05042 0.0
H786 H 0.49107 0.99115 0.06812 0.0
H787 H 0.55897 0.82376 0.79188 0.0
H788 H 0.70376 0.54731 0.01511 0.0
H789 H 0.67667 0.54388 0.93061 0.0
H790 H 0.64633 0.51072 0.08895 0.0
H791 H 0.67332 0.51374 0.17217 0.0
H792 H 0.64118 0.49512 0.96206 0.0
H793 H 0.63668 0.55937 0.05583 0.0
H794 H 0.64767 0.5923 0.08081 0.0
H795 H 0.65377 0.60208 0.85287 0.0
H796 H 0.64307 0.5691 0.82657 0.0
H797 H 0.54522 0.49923 0.84195 0.0
H798 H 0.57607 0.50062 0.90273 0.0
H799 H 0.59661 0.53986 0.74162 0.0
H800 H 0.5648 0.53965 0.68404 0.0
H801 H 0.60907 0.55201 0.85896 0.0
H802 H 0.61994 0.48538 0.76974 0.0
H803 H 0.61135 0.45149 0.74797 0.0
H804 H 0.59377 0.44635 0.96953 0.0
H805 H 0.60264 0.48007 0.9926 0.0
C806 C 0.69144 0.53902 0.03137 0.0
C807 C 0.69077 0.5309 0.10087 0.0
C808 C 0.6758 0.53727 0.98328 0.0
C809 C 0.65913 0.5273 0.00341 0.0
C810 C 0.65884 0.51858 0.07169 0.0
C811 C 0.67434 0.52038 0.11958 0.0
C812 C 0.6419 0.52579 0.95439 0.0
C813 C 0.63415 0.50763 0.93992 0.0
C814 C 0.63274 0.54193 0.92355 0.0
C815 C 0.63932 0.56169 0.93929 0.0
C816 C 0.64055 0.56848 0.01107 0.0
C817 C 0.64668 0.58717 0.02546 0.0
C818 C 0.65148 0.59925 0.96848 0.0
C819 C 0.6501 0.59269 0.89696 0.0
C820 C 0.644 0.574 0.88228 0.0
C821 C 0.55643 0.50791 0.81861 0.0
C822 C 0.55268 0.5188 0.75652 0.0
C823 C 0.57433 0.50849 0.85304 0.0
C824 C 0.58936 0.51975 0.82606 0.0
C825 C 0.58558 0.53078 0.76378 0.0
C826 C 0.56741 0.5305 0.73002 0.0
C827 C 0.60821 0.52124 0.86647 0.0
C828 C 0.61625 0.53944 0.87985 0.0
C829 C 0.61769 0.50514 0.89662 0.0
C830 C 0.61146 0.48527 0.88219 0.0
C831 C 0.614 0.47704 0.81337 0.0
C832 C 0.60926 0.45784 0.80105 0.0
C833 C 0.60182 0.44684 0.85712 0.0
C834 C 0.59939 0.45492 0.92597 0.0
C835 C 0.60438 0.47402 0.93879 0.0
H836 H 0.59807 0.43202 0.84734 0.0
H837 H 0.65621 0.61372 0.97973 0.0
H838 H 0.99022 0.71195 0.99127 0.0
H839 H 0.99385 0.6837 0.91159 0.0
H840 H 0.02219 0.65365 0.08412 0.0
H841 H 0.01831 0.68174 0.16368 0.0
H842 H 0.04001 0.64694 0.95399 0.0
H843 H 0.97546 0.64535 0.04417 0.0
H844 H 0.94297 0.65807 0.06487 0.0
H845 H 0.93402 0.66196 0.8354 0.0
H846 H 0.96658 0.64952 0.81335 0.0
H847 H 0.03693 0.55114 0.83368 0.0
H848 H 0.03489 0.58194 0.89442 0.0
H849 H 0.99297 0.60052 0.73818 0.0
H850 H 0.99358 0.56843 0.68168 0.0
H851 H 0.98248 0.6153 0.85121 0.0
H852 H 0.04748 0.62075 0.75879 0.0
H853 H 0.081 0.61106 0.73569 0.0
H854 H 0.08957 0.60183 0.96286 0.0
H855 H 0.05626 0.61178 0.98727 0.0
C856 C 0.99763 0.69947 0.01153 0.0
C857 C 1.00433 0.69929 0.08352 0.0
C858 C 0.99949 0.68317 0.96619 0.0
C859 C 1.00816 0.66625 0.99149 0.0
C860 C 0.01546 0.66638 0.06266 0.0
C861 C 0.01336 0.68253 0.10818 0.0
C862 C 1.0094 0.64831 0.94501 0.0
C863 C 0.02738 0.63998 0.93193 0.0
C864 C 0.9931 0.63928 0.91394 0.0
C865 C 0.97353 0.64672 0.92714 0.0
C866 C 0.96663 0.64908 0.99813 0.0
C867 C 0.94819 0.65621 0.01011 0.0
C868 C 0.93646 0.66088 0.95149 0.0
C869 C 0.94313 0.65838 0.88076 0.0
C870 C 0.96157 0.65128 0.86849 0.0
C871 C 0.02742 0.56184 0.81137 0.0
C872 C 0.01596 0.55736 0.75077 0.0
C873 C 0.02648 0.57981 0.84585 0.0
C874 C 0.01442 0.59444 0.82011 0.0
C875 C 1.0027 0.58991 0.75957 0.0
C876 C 1.00324 0.57155 0.72613 0.0
C877 C 0.01324 0.61372 0.85945 0.0
C878 C 0.99522 0.62231 0.87189 0.0
C879 C 0.02957 0.62321 0.88923 0.0
C880 C 0.04935 0.61668 0.87454 0.0
C881 C 0.05649 0.61645 0.80357 0.0
C882 C 0.07546 0.61103 0.79035 0.0
C883 C 0.08732 0.60565 0.84765 0.0
C884 C 0.08034 0.6059 0.91846 0.0
C885 C 0.06147 0.61154 0.93206 0.0
H886 H 0.10197 0.60138 0.83722 0.0
H887 H 0.92218 0.66639 0.96087 0.0
H888 H 0.03442 0.24758 0.21693 0.0
H889 H 0.04139 0.22291 0.30442 0.0
H890 H 0.09164 0.2065 0.18303 0.0
H891 H 0.08409 0.23086 0.09338 0.0
H892 H 0.06622 0.18097 0.16777 0.0
H893 H 0.0922 0.20973 0.37466 0.0
H894 H 0.09773 0.23334 0.47228 0.0
H895 H 0.04126 0.22339 0.55477 0.0
H896 H 0.0352 0.19998 0.45697 0.0
H897 H 0.03491 0.09267 0.30731 0.0
H898 H 0.05635 0.11982 0.29405 0.0
H899 H 1.01147 0.15804 0.36508 0.0
H900 H 0.99021 0.13079 0.38334 0.0
H901 H 0.04684 0.16828 0.42066 0.0
H902 H 0.01947 0.14685 0.19068 0.0
H903 H 0.01408 0.12393 0.09058 0.0
H904 H 0.07449 0.12171 0.04942 0.0
H905 H 0.0803 0.14421 0.15081 0.0
C906 C 0.04761 0.23952 0.21135 0.0
C907 C 0.05843 0.24063 0.14773 0.0
C908 C 0.0517 0.22538 0.26184 0.0
C909 C 0.06678 0.21242 0.24931 0.0
C910 C 0.07976 0.21613 0.19316 0.0
C911 C 0.07546 0.23006 0.14193 0.0
C912 C 0.06472 0.19263 0.27647 0.0
C913 C 0.06275 0.17808 0.22383 0.0
C914 C 0.05984 0.18878 0.3492 0.0
C915 C 0.06325 0.20304 0.4081 0.0
C916 C 0.08088 0.21266 0.4132 0.0
C917 C 0.08412 0.22601 0.46869 0.0
C918 C 0.06986 0.22986 0.51969 0.0
C919 C 0.05231 0.22037 0.51528 0.0
C920 C 0.04898 0.20702 0.45986 0.0
C921 C 0.02965 0.10679 0.32161 0.0
C922 C 1.0108 0.10953 0.3466 0.0
C923 C 0.04194 0.12228 0.3137 0.0
C924 C 0.03547 0.14087 0.32856 0.0
C925 C 0.01674 0.14373 0.35378 0.0
C926 C 1.00449 0.12819 0.36277 0.0
C927 C 0.04743 0.15756 0.31113 0.0
C928 C 0.05117 0.17122 0.36553 0.0
C929 C 0.05393 0.16071 0.23984 0.0
C930 C 0.05036 0.14698 0.1793 0.0
C931 C 0.03165 0.14125 0.16115 0.0
C932 C 0.02851 0.12833 0.10409 0.0
C933 C 0.04393 0.12131 0.0638 0.0
C934 C 0.06255 0.12713 0.08076 0.0
C935 C 0.06578 0.13991 0.13818 0.0
H936 H 0.04146 0.11143 0.0193 0.0
H937 H 0.0724 0.2402 0.56263 0.0
H938 H 0.31267 0.08282 0.13755 0.0
H939 H 0.33218 0.08154 0.24718 0.0
H940 H 0.29812 0.03475 0.32512 0.0
H941 H 0.27879 0.03564 0.21509 0.0
H942 H 0.32573 0.06709 0.43167 0.0
H943 H 0.32358 1.01014 0.25455 0.0
H944 H 0.31854 0.99955 0.12793 0.0
H945 H 0.359 0.04133 0.05532 0.0
H946 H 0.36414 0.05221 0.1816 0.0
H947 H 0.39673 0.99628 0.55652 0.0
H948 H 0.36884 0.01589 0.52653 0.0
H949 H 0.40262 0.04728 0.37329 0.0
H950 H 0.43007 0.0273 0.39903 0.0
H951 H 0.37328 0.02402 0.31449 0.0
H952 H 0.37441 0.08265 0.47971 0.0
H953 H 0.37505 0.10006 0.59664 0.0
H954 H 0.33743 0.05833 0.6886 0.0
H955 H 0.33624 0.04097 0.57147 0.0
C956 C 0.30874 0.07291 0.17975 0.0
C957 C 0.29466 0.05894 0.16708 0.0
C958 C 0.31976 0.07234 0.24266 0.0
C959 C 0.31667 0.05788 0.29334 0.0
C960 C 0.30058 0.04606 0.28653 0.0
C961 C 0.28959 0.04655 0.22339 0.0
C962 C 0.33313 0.0511 0.33567 0.0
C963 C 0.33605 0.05746 0.40683 0.0
C964 C 0.34668 0.03892 0.30236 0.0
C965 C 0.3442 0.03196 0.22705 0.0
C966 C 0.33142 0.01699 0.21146 0.0
C967 C 0.32853 1.01097 0.13989 0.0
C968 C 0.33847 0.01974 0.08373 0.0
C969 C 0.35139 0.0345 0.09898 0.0
C970 C 0.35428 0.04061 0.17046 0.0
C971 C 0.39833 1.0075 0.51701 0.0
C972 C 0.41562 1.00972 0.4787 0.0
C973 C 0.38244 0.01898 0.50116 0.0
C974 C 0.3837 0.03302 0.44772 0.0
C975 C 0.40143 0.03662 0.41525 0.0
C976 C 0.4172 0.02508 0.43029 0.0
C977 C 0.36618 0.03994 0.41159 0.0
C978 C 0.36299 0.03348 0.34047 0.0
C979 C 0.35253 0.05199 0.44527 0.0
C980 C 0.35553 0.06039 0.51772 0.0
C981 C 0.36658 0.07704 0.52537 0.0
C982 C 0.36686 0.087 0.5913 0.0
C983 C 0.35631 0.0803 0.64996 0.0
C984 C 0.34558 0.06351 0.64303 0.0
C985 C 0.3451 0.05361 0.57697 0.0
H986 H 0.35649 0.0881 0.70087 0.0
H987 H 0.33616 0.01511 0.02839 0.0
H988 H 0.45734 0.31071 0.09657 0.0
H989 H 0.46604 0.33142 0.19779 0.0
H990 H 0.508 0.2901 0.26746 0.0
H991 H 0.50005 0.26975 0.16377 0.0
H992 H 0.4736 0.33604 0.33793 0.0
H993 H 0.55153 0.31583 0.28499 0.0
H994 H 0.57097 0.29634 0.20061 0.0
H995 H 0.52951 0.30514 0.03243 0.0
H996 H 0.51016 0.3251 0.11479 0.0
H997 H 0.56363 0.40216 0.41141 0.0
H998 H 0.54922 0.37057 0.39157 0.0
H999 H 0.49916 0.39729 0.29972 0.0
H1000 H 0.51324 0.42874 0.32087 0.0
H1001 H 0.53963 0.35434 0.26916 0.0
H1002 H 0.46767 0.38232 0.31796 0.0
H1003 H 0.4441 0.39635 0.40259 0.0
H1004 H 0.47167 0.36817 0.58016 0.0
H1005 H 0.49586 0.35467 0.4968 0.0
C1006 C 0.4678 0.30564 0.13536 0.0
C1007 C 0.47864 0.28912 0.12071 0.0
C1008 C 0.47273 0.31746 0.19344 0.0
C1009 C 0.48829 0.31263 0.23786 0.0
C1010 C 0.49633 0.29427 0.23222 0.0
C1011 C 0.49163 0.28256 0.17322 0.0
C1012 C 0.49848 0.32822 0.27611 0.0
C1013 C 0.48813 0.33996 0.32357 0.0
C1014 C 0.51753 0.33321 0.25788 0.0
C1015 C 0.52929 0.32178 0.20648 0.0
C1016 C 0.54665 0.31372 0.22979 0.0
C1017 C 0.55767 0.30262 0.18221 0.0
C1018 C 0.55148 0.29952 0.1111 0.0
C1019 C 0.53435 0.30766 0.08726 0.0
C1020 C 0.52338 0.31893 0.13433 0.0
C1021 C 0.54957 0.40124 0.38682 0.0
C1022 C 0.53946 0.41789 0.36834 0.0
C1023 C 0.54124 0.38323 0.37642 0.0
C1024 C 0.52271 0.38158 0.34721 0.0
C1025 C 0.51296 0.39819 0.32615 0.0
C1026 C 0.52119 0.41616 0.33699 0.0
C1027 C 0.51458 0.36251 0.33005 0.0
C1028 C 0.52537 0.35016 0.28584 0.0
C1029 C 0.49589 0.35702 0.35072 0.0
C1030 C 0.48396 0.36813 0.40172 0.0
C1031 C 0.4691 0.37974 0.37545 0.0
C1032 C 0.45556 0.38747 0.42308 0.0
C1033 C 0.45647 0.38327 0.4968 0.0
C1034 C 0.4711 0.37157 0.52316 0.0
C1035 C 0.48489 0.36411 0.47594 0.0
H1036 H 0.44584 0.38907 0.53349 0.0
H1037 H 0.55995 0.29081 0.07448 0.0
H1038 H 0.21168 0.53983 0.16825 0.0
H1039 H 0.19632 0.54315 0.28454 0.0
H1040 H 0.24278 0.51234 0.38547 0.0
H1041 H 0.2574 0.5074 0.26672 0.0
H1042 H 0.21426 0.49687 0.42786 0.0
H1043 H 0.22788 0.56049 0.44622 0.0
H1044 H 0.23455 0.59396 0.41436 0.0
H1045 H 0.17612 0.60154 0.34825 0.0
H1046 H 0.16911 0.56806 0.37836 0.0
H1047 H 0.10969 0.52673 0.55614 0.0
H1048 H 0.14391 0.53314 0.56891 0.0
H1049 H 0.15574 0.48989 0.40657 0.0
H1050 H 0.12206 0.48331 0.39459 0.0
H1051 H 0.16641 0.54754 0.48013 0.0
H1052 H 0.19235 0.46944 0.40751 0.0
H1053 H 0.18855 0.43702 0.45677 0.0
H1054 H 0.17414 0.46083 0.6645 0.0
H1055 H 0.17728 0.49347 0.61622 0.0
C1056 C 0.21874 0.53384 0.21516 0.0
C1057 C 0.23545 0.52284 0.20773 0.0
C1058 C 0.21016 0.53619 0.28253 0.0
C1059 C 0.21838 0.52816 0.34484 0.0
C1060 C 0.23606 0.51865 0.33849 0.0
C1061 C 0.24448 0.51592 0.27047 0.0
C1062 C 0.20651 0.52645 0.41127 0.0
C1063 C 0.20412 0.50814 0.44068 0.0
C1064 C 0.19402 0.54136 0.43354 0.0
C1065 C 0.19794 0.56168 0.41518 0.0
C1066 C 0.21644 0.56925 0.42468 0.0
C1067 C 0.22029 0.58825 0.40686 0.0
C1068 C 0.20576 0.59988 0.37946 0.0
C1069 C 0.18735 0.59254 0.36979 0.0
C1070 C 0.18341 0.57354 0.38753 0.0
C1071 C 0.11962 0.51834 0.52422 0.0
C1072 C 0.11301 0.50426 0.47513 0.0
C1073 C 0.13923 0.52197 0.53193 0.0
C1074 C 0.15258 0.51164 0.49039 0.0
C1075 C 0.14595 0.49747 0.44206 0.0
C1076 C 0.1265 0.4938 0.4347 0.0
C1077 C 0.17297 0.51747 0.48652 0.0
C1078 C 0.1771 0.53659 0.4701 0.0
C1079 C 0.18758 0.50357 0.47961 0.0
C1080 C 0.18516 0.48393 0.50824 0.0
C1081 C 0.18839 0.46779 0.46377 0.0
C1082 C 0.18618 0.44937 0.49139 0.0
C1083 C 0.18098 0.44689 0.56366 0.0
C1084 C 0.17792 0.46282 0.60837 0.0
C1085 C 0.17977 0.48128 0.58076 0.0
H1086 H 0.17937 0.43262 0.58509 0.0
H1087 H 0.20878 0.61459 0.36564 0.0
H1088 H 1.00727 0.81183 0.01955 0.0
H1089 H 0.02013 0.84047 0.96448 0.0
H1090 H 0.07678 0.82497 0.03704 0.0
H1091 H 0.06364 0.7965 0.09418 0.0
H1092 H 0.06373 0.85479 0.10867 0.0
H1093 H 0.0688 0.84 0.85626 0.0
H1094 H 0.05931 0.82755 0.73606 0.0
H1095 H 1.0102 0.86454 0.73618 0.0
H1096 H 0.0193 0.87712 0.85652 0.0
H1097 H 0.08674 0.95447 0.00791 0.0
H1098 H 0.08733 0.91969 0.02658 0.0
H1099 H 0.02576 0.91816 0.01191 0.0
H1100 H 0.02502 0.95277 0.99534 0.0
H1101 H 0.04818 0.89653 0.90155 0.0
H1102 H 0.03988 0.90785 0.15493 0.0
H1103 H 0.0465 0.91907 0.27917 0.0
H1104 H 0.0995 0.88791 0.27962 0.0
H1105 H 0.09326 0.87657 0.1549 0.0
C1106 C 0.02265 0.81382 0.019 0.0
C1107 C 0.03449 0.80221 0.06142 0.0
C1108 C 0.03005 0.83029 0.98766 0.0
C1109 C 0.0494 0.83507 0.99784 0.0
C1110 C 0.06178 0.8216 0.02906 0.0
C1111 C 0.05432 0.80522 0.06103 0.0
C1112 C 0.05494 0.8555 0.99647 0.0
C1113 C 0.06108 0.86383 0.06226 0.0
C1114 C 0.05059 0.86738 0.93721 0.0
C1115 C 0.04473 0.85946 0.86565 0.0
C1116 C 0.05589 0.84536 0.83096 0.0
C1117 C 0.0506 0.83832 0.76267 0.0
C1118 C 0.03416 0.84524 0.72853 0.0
C1119 C 0.02292 0.85917 0.76272 0.0
C1120 C 0.02817 0.8663 0.83089 0.0
C1121 C 0.07333 0.94678 0.0117 0.0
C1122 C 0.05585 0.95614 0.99907 0.0
C1123 C 0.0737 0.92697 0.02184 0.0
C1124 C 0.0566 0.9165 0.01928 0.0
C1125 C 0.03908 0.92609 0.01324 0.0
C1126 C 0.03868 0.9458 0.00395 0.0
C1127 C 0.05691 0.89551 0.01318 0.0
C1128 C 0.05167 0.88727 0.94648 0.0
C1129 C 0.06186 0.88373 0.07175 0.0
C1130 C 0.06625 0.8916 0.14489 0.0
C1131 C 0.05315 0.90369 0.18077 0.0
C1132 C 0.05676 0.90997 0.25158 0.0
C1133 C 0.07343 0.90424 0.28721 0.0
C1134 C 0.08659 0.89234 0.25192 0.0
C1135 C 0.08301 0.88597 0.18119 0.0
H1136 H 0.0761 0.90894 0.34228 0.0
H1137 H 0.03015 0.83984 0.67553 0.0
H1138 H 0.71099 0.99062 0.02465 0.0
H1139 H 0.69828 0.99276 0.90179 0.0
H1140 H 0.7413 0.03464 0.84965 0.0
H1141 H 0.754 0.0326 0.97318 0.0
H1142 H 0.70618 0.04805 0.82836 0.0
H1143 H 0.73942 0.99394 0.74846 0.0
H1144 H 0.75341 0.96157 0.74993 0.0
H1145 H 0.69718 0.937 0.75635 0.0
H1146 H 0.6828 0.9692 0.7562 0.0
H1147 H 0.62997 0.06168 0.60066 0.0
H1148 H 0.66302 0.05003 0.6022 0.0
H1149 H 0.64688 1.00584 0.75141 0.0
H1150 H 0.61428 0.01739 0.7513 0.0
H1151 H 0.67996 0.99616 0.67227 0.0
H1152 H 0.65369 0.05027 0.82372 0.0
H1153 H 0.63787 0.08186 0.82975 0.0
H1154 H 0.68095 0.1052 0.69064 0.0
H1155 H 0.69688 0.07363 0.68336 0.0
C1156 C 0.71797 0.99998 0.9865 0.0
C1157 C 0.7333 1.01161 0.00854 0.0
C1158 C 0.71089 1.00101 0.91595 0.0
C1159 C 0.71896 0.01374 0.86616 0.0
C1160 C 0.73498 0.02459 0.88691 0.0
C1161 C 0.74219 0.02343 0.95744 0.0
C1162 C 0.70829 0.01818 0.7989 0.0
C1163 C 0.70112 0.03683 0.79207 0.0
C1164 C 0.70156 1.00359 0.75169 0.0
C1165 C 0.71002 0.98407 0.75234 0.0
C1166 C 0.73001 0.98165 0.75071 0.0
C1167 C 0.73802 0.96331 0.75124 0.0
C1168 C 0.72619 0.94724 0.75322 0.0
C1169 C 0.70632 0.94947 0.75469 0.0
C1170 C 0.69823 0.96778 0.75422 0.0
C1171 C 0.63338 0.04915 0.63225 0.0
C1172 C 0.61963 0.04095 0.67813 0.0
C1173 C 0.65222 0.04235 0.63221 0.0
C1174 C 0.65746 0.02742 0.67853 0.0
C1175 C 0.64317 0.01746 0.71554 0.0
C1176 C 0.62442 0.0242 0.71563 0.0
C1177 C 0.67731 0.02559 0.70559 0.0
C1178 C 0.68606 1.00752 0.70538 0.0
C1179 C 0.68554 0.04064 0.74691 0.0
C1180 C 0.67638 0.05968 0.75277 0.0
C1181 C 0.65977 0.06218 0.7946 0.0
C1182 C 0.65078 0.08004 0.79812 0.0
C1183 C 0.6584 0.09553 0.76057 0.0
C1184 C 0.67506 0.09318 0.71962 0.0
C1185 C 0.68408 0.07532 0.71576 0.0
H1186 H 0.6514 0.10934 0.76325 0.0
H1187 H 0.73242 0.93305 0.75358 0.0
H1188 H 0.5859 0.73237 0.07633 0.0
H1189 H 0.58974 0.71388 0.96402 0.0
H1190 H 0.53588 0.73642 0.88676 0.0
H1191 H 0.53291 0.7557 0.99597 0.0
H1192 H 0.56858 0.68652 0.94651 0.0
H1193 H 0.52418 0.7272 0.72178 0.0
H1194 H 0.52472 0.75864 0.66275 0.0
H1195 H 0.58334 0.76639 0.7264 0.0
H1196 H 0.58332 0.73484 0.78477 0.0
H1197 H 0.48511 0.65094 0.75327 0.0
H1198 H 0.50687 0.67737 0.77604 0.0
H1199 H 0.55515 0.64007 0.74047 0.0
H1200 H 0.53349 0.61359 0.71267 0.0
H1201 H 0.5387 0.69558 0.70556 0.0
H1202 H 0.58567 0.65013 0.87989 0.0
H1203 H 0.5862 0.61857 0.93908 0.0
H1204 H 0.52556 0.62212 0.97434 0.0
H1205 H 0.52476 0.65376 0.91607 0.0
C1206 C 0.57553 0.73412 0.03321 0.0
C1207 C 0.55909 0.7453 0.04433 0.0
C1208 C 0.57764 0.7235 0.96923 0.0
C1209 C 0.56303 0.72348 0.91668 0.0
C1210 C 0.54763 0.73632 0.92502 0.0
C1211 C 0.54581 0.74732 0.988 0.0
C1212 C 0.56116 0.70721 0.86459 0.0
C1213 C 0.56281 0.68863 0.8926 0.0
C1214 C 0.55362 0.70962 0.79392 0.0
C1215 C 0.55374 0.72856 0.75785 0.0
C1216 C 0.53727 0.73548 0.72264 0.0
C1217 C 0.53746 0.75337 0.68943 0.0
C1218 C 0.55404 0.76451 0.69087 0.0
C1219 C 0.57049 0.75776 0.72545 0.0
C1220 C 0.57039 0.73988 0.75871 0.0
C1221 C 0.5003 0.64836 0.7474 0.0
C1222 C 0.50745 0.62993 0.73196 0.0
C1223 C 0.51276 0.66357 0.76053 0.0
C1224 C 0.53259 0.66064 0.75986 0.0
C1225 C 0.53986 0.64257 0.74117 0.0
C1226 C 0.5274 0.62739 0.72664 0.0
C1227 C 0.54516 0.67569 0.79023 0.0
C1228 C 0.54544 0.69378 0.75799 0.0
C1229 C 0.55482 0.67291 0.85651 0.0
C1230 C 0.55515 0.65414 0.89304 0.0
C1231 C 0.57249 0.64416 0.90051 0.0
C1232 C 0.57283 0.62628 0.93385 0.0
C1233 C 0.55591 0.61832 0.96024 0.0
C1234 C 0.53864 0.62827 0.95369 0.0
C1235 C 0.53823 0.64617 0.92054 0.0
H1236 H 0.5562 0.60446 0.98589 0.0
H1237 H 0.55415 0.77837 0.66521 0.0
H1238 H 0.81127 0.57128 0.04029 0.0
H1239 H 0.82696 0.57121 0.92204 0.0
H1240 H 0.79394 0.52185 0.85709 0.0
H1241 H 0.77796 0.52208 0.9752 0.0
H1242 H 0.83304 0.51585 0.86663 0.0
H1243 H 0.79191 0.55808 0.7454 0.0
H1244 H 0.77155 0.58642 0.72629 0.0
H1245 H 0.82047 0.62304 0.7502 0.0
H1246 H 0.8411 0.59496 0.77049 0.0
H1247 H 0.91767 0.51126 0.707 0.0
H1248 H 0.88402 0.51417 0.67812 0.0
H1249 H 0.88349 0.5713 0.76808 0.0
H1250 H 0.91775 0.56969 0.78709 0.0
H1251 H 0.85218 0.56695 0.69707 0.0
H1252 H 0.88516 0.52815 0.88356 0.0
H1253 H 0.90722 0.5022 0.91893 0.0
H1254 H 0.87482 0.46206 0.79096 0.0
H1255 H 0.85271 0.48788 0.75433 0.0
C1256 C 0.80694 0.56081 0.99986 0.0
C1257 C 0.79363 0.54654 0.01694 0.0
C1258 C 0.81571 0.56092 0.93199 0.0
C1259 C 0.81151 0.5466 0.88051 0.0
C1260 C 0.79718 0.53317 0.89564 0.0
C1261 C 0.78816 0.53326 0.96318 0.0
C1262 C 0.82532 0.54303 0.82115 0.0
C1263 C 0.83677 0.52668 0.82735 0.0
C1264 C 0.83037 0.55732 0.771 0.0
C1265 C 0.81805 0.57436 0.75973 0.0
C1266 C 0.79831 0.57218 0.74724 0.0
C1267 C 0.78672 0.58821 0.73603 0.0
C1268 C 0.79471 0.60652 0.73712 0.0
C1269 C 0.81431 0.60884 0.74937 0.0
C1270 C 0.82596 0.59286 0.76058 0.0
C1271 C 0.91086 0.52492 0.71706 0.0
C1272 C 0.92037 0.53981 0.75461 0.0
C1273 C 0.89138 0.52648 0.70078 0.0
C1274 C 0.88094 0.54236 0.72609 0.0
C1275 C 0.89103 0.55851 0.75065 0.0
C1276 C 0.91067 0.55736 0.7635 0.0
C1277 C 0.86048 0.54046 0.74677 0.0
C1278 C 0.84782 0.55568 0.73342 0.0
C1279 C 0.8545 0.52547 0.79285 0.0
C1280 C 0.86747 0.50989 0.81571 0.0
C1281 C 0.88278 0.51376 0.86311 0.0
C1282 C 0.89529 0.49911 0.88322 0.0
C1283 C 0.89244 0.4805 0.85707 0.0
C1284 C 0.87703 0.47649 0.81099 0.0
C1285 C 0.86452 0.49112 0.79049 0.0
H1286 H 0.90215 0.46917 0.87263 0.0
H1287 H 0.78571 0.61891 0.72837 0.0
H1288 H 0.99816 0.22203 0.92659 0.0
H1289 H 0.99364 0.19139 0.86165 0.0
H1290 H 0.05459 0.18706 0.82971 0.0
H1291 H 0.05898 0.21765 0.89253 0.0
H1292 H 0.03823 0.17243 0.71592 0.0
H1293 H 0.02888 0.1659 0.97019 0.0
H1294 H 0.01344 0.1734 0.08675 0.0
H1295 H 0.96033 0.15053 0.00742 0.0
H1296 H 0.9751 0.14403 0.88857 0.0
H1297 H 0.04172 0.07126 0.63512 0.0
H1298 H 0.04662 0.10311 0.68988 0.0
H1299 H 0.9864 0.10636 0.73996 0.0
H1300 H 0.98192 0.07419 0.68983 0.0
H1301 H 1.00296 0.12177 0.84548 0.0
H1302 H 0.01369 0.12813 0.58851 0.0
H1303 H 0.03049 0.1205 0.47522 0.0
H1304 H 0.08252 0.14388 0.56167 0.0
H1305 H 0.06647 0.15022 0.67822 0.0
C1306 C 1.01051 0.21486 0.90356 0.0
C1307 C 0.02893 0.22252 0.91468 0.0
C1308 C 1.00797 0.1971 0.86721 0.0
C1309 C 0.02381 0.18636 0.84152 0.0
C1310 C 0.04204 0.19469 0.84872 0.0
C1311 C 0.04455 0.21236 0.88473 0.0
C1312 C 0.02177 0.16615 0.81096 0.0
C1313 C 0.03059 0.16135 0.74468 0.0
C1314 C 1.01179 0.1514 0.84756 0.0
C1315 C 1.00305 0.15476 0.91985 0.0
C1316 C 0.01383 0.1627 0.9771 0.0
C1317 C 1.00518 0.16685 0.04357 0.0
C1318 C 0.98593 0.1624 0.05458 0.0
C1319 C 0.97524 0.15398 0.99881 0.0
C1320 C 0.98371 0.15022 0.93163 0.0
C1321 C 0.02964 0.07866 0.65908 0.0
C1322 C 1.01153 0.06981 0.66 0.0
C1323 C 0.03234 0.09714 0.68952 0.0
C1324 C 0.01686 0.10775 0.71896 0.0
C1325 C 0.99876 0.09884 0.71863 0.0
C1326 C 0.99615 0.08033 0.68945 0.0
C1327 C 0.01911 0.12803 0.74934 0.0
C1328 C 1.01046 0.13284 0.81615 0.0
C1329 C 0.0294 0.14275 0.71345 0.0
C1330 C 0.03889 0.13944 0.64259 0.0
C1331 C 0.02876 0.13151 0.58376 0.0
C1332 C 0.03817 0.12738 0.51886 0.0
C1333 C 0.05749 0.13191 0.51069 0.0
C1334 C 0.06754 0.14038 0.56797 0.0
C1335 C 0.05834 0.14405 0.63382 0.0
H1336 H 0.06469 0.12881 0.46006 0.0
H1337 H 0.97932 0.16545 0.10635 0.0
H1338 H 0.30986 1.01232 0.88647 0.0
H1339 H 0.34021 1.00734 0.82168 0.0
H1340 H 0.35805 0.0644 0.88156 0.0
H1341 H 0.32759 0.06971 0.94184 0.0
H1342 H 0.37122 0.0591 0.7603 0.0
H1343 H 0.37851 0.01892 0.97335 0.0
H1344 H 0.36985 0.99333 0.05876 0.0
H1345 H 0.36496 0.9533 0.88201 0.0
H1346 H 0.37408 0.97854 0.796 0.0
H1347 H 0.46893 0.04628 0.65557 0.0
H1348 H 0.43873 0.0532 0.71618 0.0
H1349 H 0.42441 0.99302 0.70436 0.0
H1350 H 0.45656 0.98608 0.66353 0.0
H1351 H 0.40941 1.00112 0.8091 0.0
H1352 H 0.40637 0.04107 0.59202 0.0
H1353 H 0.4183 0.06656 0.51241 0.0
H1354 H 0.4146 0.10699 0.68829 0.0
H1355 H 0.40259 0.08168 0.76854 0.0
C1356 C 0.32006 0.02395 0.88418 0.0
C1357 C 0.31619 0.04137 0.92024 0.0
C1358 C 0.3377 0.02097 0.84834 0.0
C1359 C 0.35202 0.03525 0.84812 0.0
C1360 C 0.34761 0.05296 0.88082 0.0
C1361 C 0.33005 0.05598 0.91573 0.0
C1362 C 0.37152 0.03206 0.81429 0.0
C1363 C 0.37938 0.04621 0.76952 0.0
C1364 C 0.38276 0.01557 0.8274 0.0
C1365 C 0.37664 1.00062 0.87843 0.0
C1366 C 0.37541 1.00469 0.95285 0.0
C1367 C 0.37054 0.99024 1.00131 0.0
C1368 C 0.36664 0.97177 0.97574 0.0
C1369 C 0.36787 0.96763 0.90172 0.0
C1370 C 0.37301 0.98196 0.85318 0.0
C1371 C 0.45971 0.03454 0.67022 0.0
C1372 C 0.46592 0.0156 0.66027 0.0
C1373 C 0.44175 0.03852 0.70166 0.0
C1374 C 0.42834 0.02378 0.71502 0.0
C1375 C 0.43415 1.00492 0.69807 0.0
C1376 C 0.45268 1.00089 0.67335 0.0
C1377 C 0.40864 0.02738 0.748 0.0
C1378 C 0.40094 0.01355 0.79506 0.0
C1379 C 0.39735 0.04403 0.73524 0.0
C1380 C 0.40357 0.05945 0.68601 0.0
C1381 C 0.40789 0.05542 0.61321 0.0
C1382 C 0.41478 0.06981 0.5682 0.0
C1383 C 0.41726 0.08837 0.59532 0.0
C1384 C 0.41272 0.09259 0.66738 0.0
C1385 C 0.4058 0.07824 0.71256 0.0
H1386 H 0.42264 0.09949 0.56046 0.0
H1387 H 0.3628 0.96064 0.01332 0.0
H1388 H 0.52354 0.31124 0.91011 0.0
H1389 H 0.52605 0.34426 0.86752 0.0
H1390 H 0.46849 0.3411 0.78433 0.0
H1391 H 0.46574 0.30825 0.82966 0.0
H1392 H 0.49431 0.36296 0.69383 0.0
H1393 H 0.47291 0.35918 0.93864 0.0
H1394 H 0.47323 0.35002 0.06714 0.0
H1395 H 0.52672 0.37912 0.09779 0.0
H1396 H 0.52696 0.38812 0.96885 0.0
H1397 H 0.47845 0.46923 0.76025 0.0
H1398 H 0.47566 0.43641 0.80488 0.0
H1399 H 0.53052 0.42261 0.71223 0.0
H1400 H 0.53368 0.45528 0.66916 0.0
H1401 H 0.50304 0.41009 0.89427 0.0
H1402 H 0.52158 0.386 0.61129 0.0
H1403 H 0.52059 0.40042 0.49057 0.0
H1404 H 0.46851 0.4298 0.5444 0.0
H1405 H 0.46913 0.41542 0.66594 0.0
C1406 C 0.51168 0.31733 0.88042 0.0
C1407 C 0.49455 0.30698 0.87232 0.0
C1408 C 0.51305 0.33631 0.85664 0.0
C1409 C 0.49738 0.34535 0.8234 0.0
C1410 C 0.4808 0.3345 0.80966 0.0
C1411 C 0.47931 0.31561 0.83473 0.0
C1412 C 0.49772 0.36647 0.80934 0.0
C1413 C 0.49616 0.37315 0.73791 0.0
C1414 C 0.49981 0.38006 0.8666 0.0
C1415 C 0.50004 0.37418 0.94372 0.0
C1416 C 0.48488 0.36342 0.97243 0.0
C1417 C 0.48493 0.35831 0.04545 0.0
C1418 C 0.49994 0.36407 0.09065 0.0
C1419 C 0.51507 0.37474 0.06271 0.0
C1420 C 0.51513 0.37983 0.98963 0.0
C1421 C 0.49019 0.45943 0.75114 0.0
C1422 C 0.50642 0.46523 0.71179 0.0
C1423 C 0.48856 0.44061 0.77685 0.0
C1424 C 0.50299 0.42704 0.76283 0.0
C1425 C 0.51929 0.43283 0.72457 0.0
C1426 C 0.521 0.45162 0.69949 0.0
C1427 C 0.50012 0.4063 0.7792 0.0
C1428 C 0.50116 0.39976 0.85068 0.0
C1429 C 0.49713 0.39286 0.72267 0.0
C1430 C 0.49534 0.39951 0.64721 0.0
C1431 C 0.50976 0.39526 0.59689 0.0
C1432 C 0.50933 0.40357 0.52845 0.0
C1433 C 0.4945 0.41601 0.50944 0.0
C1434 C 0.48001 0.42018 0.55909 0.0
C1435 C 0.48035 0.41191 0.62766 0.0
H1436 H 0.49417 0.42236 0.45629 0.0
H1437 H 0.49985 0.36026 0.1473 0.0
H1438 H 0.22598 0.52972 0.89257 0.0
H1439 H 0.19624 0.52865 0.82103 0.0
H1440 H 0.17897 0.47782 0.93372 0.0
H1441 H 0.20854 0.47903 0.00554 0.0
H1442 H 0.16858 0.47627 0.78748 0.0
H1443 H 0.163 0.52 0.98895 0.0
H1444 H 0.17249 0.54767 0.06456 0.0
H1445 H 0.16459 0.58504 0.88366 0.0
H1446 H 0.15541 0.55751 0.80655 0.0
H1447 H 0.06809 0.47828 0.71906 0.0
H1448 H 0.10029 0.47671 0.76986 0.0
H1449 H 0.11098 0.53437 0.69927 0.0
H1450 H 0.07831 0.53643 0.65317 0.0
H1451 H 0.12584 0.53235 0.82039 0.0
H1452 H 0.1307 0.48932 0.6183 0.0
H1453 H 0.1228 0.46185 0.53894 0.0
H1454 H 0.13292 0.42343 0.71489 0.0
H1455 H 0.14063 0.45074 0.79534 0.0
C1456 C 0.21613 0.51797 0.90027 0.0
C1457 C 0.21979 0.50429 0.95399 0.0
C1458 C 0.19899 0.51747 0.85992 0.0
C1459 C 0.1851 0.50325 0.8722 0.0
C1460 C 0.18933 0.48892 0.9228 0.0
C1461 C 0.20633 0.48956 0.96367 0.0
C1462 C 0.16566 0.50406 0.83688 0.0
C1463 C 0.15917 0.48848 0.79492 0.0
C1464 C 0.15336 0.52008 0.84535 0.0
C1465 C 0.15874 0.53666 0.89176 0.0
C1466 C 0.16345 0.53409 0.96512 0.0
C1467 C 0.16875 0.54975 0.00827 0.0
C1468 C 0.16919 0.5681 0.97888 0.0
C1469 C 0.16429 0.57082 0.90631 0.0
C1470 C 0.15904 0.55519 0.86285 0.0
C1471 C 0.07718 0.49074 0.71503 0.0
C1472 C 0.07022 0.50764 0.68324 0.0
C1473 C 0.09589 0.48971 0.74312 0.0
C1474 C 0.10857 0.50532 0.73808 0.0
C1475 C 0.10172 0.52206 0.70478 0.0
C1476 C 0.08291 0.5232 0.67778 0.0
C1477 C 0.12861 0.50458 0.76949 0.0
C1478 C 0.13521 0.52017 0.81155 0.0
C1479 C 0.14105 0.48859 0.7605 0.0
C1480 C 0.13601 0.47213 0.71289 0.0
C1481 C 0.131 0.47505 0.64011 0.0
C1482 C 0.12661 0.45951 0.59494 0.0
C1483 C 0.12729 0.44091 0.62191 0.0
C1484 C 0.13236 0.43784 0.6941 0.0
C1485 C 0.13675 0.45336 0.73949 0.0
H1486 H 0.12394 0.42889 0.58683 0.0
H1487 H 0.17329 0.58021 0.01238 0.0
H1488 H 0.9839 0.82202 0.28136 0.0
H1489 H 0.98382 0.85275 0.34714 0.0
H1490 H 0.04266 0.84375 0.40855 0.0
H1491 H 0.04263 0.81305 0.34297 0.0
H1492 H 0.02575 0.86217 0.51587 0.0
H1493 H 0.03024 0.8703 0.26502 0.0
H1494 H 0.02215 0.86751 0.13556 0.0
H1495 H 0.97032 0.89923 0.17157 0.0
H1496 H 0.97778 0.90171 0.30193 0.0
H1497 H 0.05286 0.96327 0.53087 0.0
H1498 H 0.04868 0.93078 0.48209 0.0
H1499 H 0.98874 0.93308 0.53511 0.0
H1500 H 0.99304 0.96562 0.58639 0.0
H1501 H 1.00586 0.91839 0.37195 0.0
H1502 H 1.0066 0.90933 0.63645 0.0
H1503 H 0.02211 0.91436 0.75518 0.0
H1504 H 0.07276 0.88596 0.67827 0.0
H1505 H 0.05775 0.88124 0.55846 0.0
C1506 C 0.99654 0.82618 0.31163 0.0
C1507 C 0.01308 0.81466 0.30855 0.0
C1508 C 0.99663 0.84401 0.34831 0.0
C1509 C 0.01333 0.851 0.38258 0.0
C1510 C 0.02951 0.83893 0.38319 0.0
C1511 C 0.02944 0.82117 0.34619 0.0
C1512 C 0.01438 0.87123 0.41321 0.0
C1513 C 0.02126 0.87437 0.48414 0.0
C1514 C 1.00911 0.88755 0.37206 0.0
C1515 C 1.00441 0.88591 0.29373 0.0
C1516 C 0.01694 0.87641 0.24571 0.0
C1517 C 1.0125 0.87491 0.17206 0.0
C1518 C 0.99572 0.88315 0.14538 0.0
C1519 C 0.98331 0.89283 0.19237 0.0
C1520 C 0.98761 0.89424 0.26622 0.0
C1521 C 0.0387 0.95696 0.53162 0.0
C1522 C 0.02316 0.96742 0.56044 0.0
C1523 C 0.03635 0.9383 0.50371 0.0
C1524 C 0.01838 0.92933 0.50412 0.0
C1525 C 1.00276 0.93964 0.5334 0.0
C1526 C 1.00517 0.95834 0.5622 0.0
C1527 C 0.01623 0.90911 0.47538 0.0
C1528 C 1.00966 0.90606 0.40415 0.0
C1529 C 0.02247 0.89296 0.51514 0.0
C1530 C 0.03115 0.89522 0.58807 0.0
C1531 C 0.02113 0.90438 0.64453 0.0
C1532 C 0.02984 0.90718 0.71203 0.0
C1533 C 0.04849 0.90068 0.72393 0.0
C1534 C 0.05837 0.89113 0.66874 0.0
C1535 C 0.04977 0.8884 0.60105 0.0
H1536 H 0.05525 0.90291 0.77603 0.0
H1537 H 0.99236 0.88207 0.08826 0.0
H1538 H 0.69813 0.04039 0.19989 0.0
H1539 H 0.67001 0.04183 0.27662 0.0
H1540 H 0.69718 1.00398 0.42878 0.0
H1541 H 0.72528 1.00166 0.34904 0.0
H1542 H 0.66312 0.99298 0.42031 0.0
H1543 H 0.68687 0.05361 0.47032 0.0
H1544 H 0.70115 0.08542 0.45185 0.0
H1545 H 0.65229 0.10233 0.32627 0.0
H1546 H 0.6378 0.07053 0.34328 0.0
H1547 H 0.5712 1.00301 0.60345 0.0
H1548 H 0.60496 1.00115 0.5726 0.0
H1549 H 0.59651 0.04462 0.41052 0.0
H1550 H 0.56358 0.04843 0.45072 0.0
H1551 H 0.62634 0.05284 0.45714 0.0
H1552 H 0.61653 0.97765 0.3898 0.0
H1553 H 0.60834 0.94548 0.4362 0.0
H1554 H 0.63671 0.95863 0.63681 0.0
H1555 H 0.64535 0.99053 0.59083 0.0
C1556 C 0.69827 0.03235 0.24972 0.0
C1557 C 0.71409 0.0207 0.26733 0.0
C1558 C 0.68211 0.03341 0.29451 0.0
C1559 C 0.68121 0.0232 0.35971 0.0
C1560 C 0.69727 1.01204 0.37899 0.0
C1561 C 0.71351 1.01087 0.33359 0.0
C1562 C 0.66304 0.02344 0.40424 0.0
C1563 C 0.65512 1.00615 0.42817 0.0
C1564 C 0.65267 0.04051 0.41872 0.0
C1565 C 0.66134 0.05962 0.40752 0.0
C1566 C 0.67925 0.06405 0.43821 0.0
C1567 C 0.68736 0.0821 0.42815 0.0
C1568 C 0.67766 0.09587 0.38774 0.0
C1569 C 0.6598 0.09164 0.35749 0.0
C1570 C 0.65161 0.07362 0.36743 0.0
C1571 C 0.57659 1.01193 0.56043 0.0
C1572 C 0.56455 0.02559 0.5284 0.0
C1573 C 0.59613 1.01066 0.54148 0.0
C1574 C 0.60406 0.02235 0.48699 0.0
C1575 C 0.59149 0.03548 0.45345 0.0
C1576 C 0.57236 0.03749 0.47544 0.0
C1577 C 0.62518 0.02208 0.46567 0.0
C1578 C 0.63398 0.03957 0.4474 0.0
C1579 C 0.63677 1.00531 0.46015 0.0
C1580 C 0.63083 0.98659 0.48809 0.0
C1581 C 0.62063 0.97371 0.44422 0.0
C1582 C 0.61606 0.95553 0.47018 0.0
C1583 C 0.62166 0.95018 0.53982 0.0
C1584 C 0.63216 0.96286 0.58323 0.0
C1585 C 0.63696 0.98092 0.55716 0.0
H1586 H 0.61805 0.93613 0.5598 0.0
H1587 H 0.68396 0.10984 0.38001 0.0
H1588 H 0.52171 0.70733 0.19252 0.0
H1589 H 0.51783 0.6779 0.26043 0.0
H1590 H 0.54299 0.70499 0.44848 0.0
H1591 H 0.54748 0.7346 0.37908 0.0
H1592 H 0.55805 0.67045 0.43075 0.0
H1593 H 0.49423 0.69386 0.43985 0.0
H1594 H 0.46404 0.7072 0.39268 0.0
H1595 H 0.4564 0.6575 0.25737 0.0
H1596 H 0.48669 0.64396 0.30299 0.0
H1597 H 0.49488 0.58572 0.59033 0.0
H1598 H 0.49862 0.61823 0.54719 0.0
H1599 H 0.55243 0.60244 0.4486 0.0
H1600 H 0.54997 0.57075 0.50151 0.0
H1601 H 0.49755 0.63355 0.43232 0.0
H1602 H 0.58013 0.64117 0.40381 0.0
H1603 H 0.60968 0.62969 0.46256 0.0
H1604 H 0.57878 0.62013 0.65961 0.0
H1605 H 0.54914 0.63177 0.60166 0.0
C1606 C 0.52626 0.70715 0.24863 0.0
C1607 C 0.53497 0.72338 0.28018 0.0
C1608 C 0.52392 0.69026 0.28771 0.0
C1609 C 0.52999 0.68905 0.36011 0.0
C1610 C 0.53819 0.70544 0.39273 0.0
C1611 C 0.54056 0.72246 0.35332 0.0
C1612 C 0.52837 0.67043 0.39982 0.0
C1613 C 0.54479 0.6624 0.43152 0.0
C1614 C 0.51106 0.65991 0.40206 0.0
C1615 C 0.49281 0.66797 0.37447 0.0
C1616 C 0.48618 0.68584 0.39965 0.0
C1617 C 0.46904 0.69342 0.37325 0.0
C1618 C 0.45833 0.68322 0.32196 0.0
C1619 C 0.46472 0.66539 0.29707 0.0
C1620 C 0.48187 0.65774 0.32325 0.0
C1621 C 0.50773 0.58921 0.56083 0.0
C1622 C 0.52198 0.57527 0.54881 0.0
C1623 C 0.50979 0.60792 0.53514 0.0
C1624 C 0.52589 0.61327 0.49424 0.0
C1625 C 0.54005 0.59924 0.48138 0.0
C1626 C 0.5384 0.58076 0.5102 0.0
C1627 C 0.52732 0.63322 0.46355 0.0
C1628 C 0.51085 0.64152 0.4327 0.0
C1629 C 0.54453 0.64413 0.46366 0.0
C1630 C 0.56238 0.63725 0.49861 0.0
C1631 C 0.57967 0.63673 0.4598 0.0
C1632 C 0.59644 0.63016 0.49282 0.0
C1633 C 0.59611 0.62417 0.56477 0.0
C1634 C 0.57903 0.62478 0.60389 0.0
C1635 C 0.56226 0.63137 0.57106 0.0
H1636 H 0.6091 0.61906 0.59021 0.0
H1637 H 0.44506 0.68912 0.30159 0.0
H1638 H 0.80588 0.50721 0.29881 0.0
H1639 H 0.8343 0.50389 0.37701 0.0
H1640 H 0.84769 0.56338 0.34498 0.0
H1641 H 0.81963 0.56655 0.26591 0.0
H1642 H 0.87205 0.50896 0.33786 0.0
H1643 H 0.87029 0.58089 0.50051 0.0
H1644 H 0.8466 0.60235 0.55808 0.0
H1645 H 0.80701 0.55573 0.57499 0.0
H1646 H 0.8305 0.53394 0.5182 0.0
H1647 H 0.95739 0.5551 0.54503 0.0
H1648 H 0.92479 0.55738 0.49626 0.0
H1649 H 0.916 0.49751 0.53863 0.0
H1650 H 0.94852 0.49508 0.5863 0.0
H1651 H 0.88816 0.55041 0.54882 0.0
H1652 H 0.88956 0.478 0.39982 0.0
H1653 H 0.9133 0.45501 0.35216 0.0
H1654 H 0.95299 0.5008 0.31663 0.0
H1655 H 0.92933 0.52412 0.36261 0.0
C1656 C 0.81467 0.51965 0.30982 0.0
C1657 C 0.81036 0.5372 0.2767 0.0
C1658 C 0.83102 0.51773 0.35413 0.0
C1659 C 0.84326 0.5334 0.36763 0.0
C1660 C 0.8385 0.55109 0.33653 0.0
C1661 C 0.82241 0.55291 0.29126 0.0
C1662 C 0.86164 0.53109 0.40958 0.0
C1663 C 0.87538 0.51785 0.38465 0.0
C1664 C 0.86634 0.54279 0.47035 0.0
C1665 C 0.85206 0.55585 0.50391 0.0
C1666 C 0.85652 0.57522 0.5164 0.0
C1667 C 0.84313 0.58744 0.54888 0.0
C1668 C 0.82525 0.58044 0.56946 0.0
C1669 C 0.82079 0.56117 0.55825 0.0
C1670 C 0.83412 0.54889 0.52572 0.0
C1671 C 0.94854 0.5424 0.54398 0.0
C1672 C 0.95589 0.52481 0.56853 0.0
C1673 C 0.92978 0.54376 0.51652 0.0
C1674 C 0.91787 0.52756 0.5124 0.0
C1675 C 0.92491 0.51019 0.53973 0.0
C1676 C 0.94361 0.50882 0.56725 0.0
C1677 C 0.89858 0.52855 0.47617 0.0
C1678 C 0.88474 0.54153 0.50209 0.0
C1679 C 0.89371 0.51651 0.41664 0.0
C1680 C 0.90772 0.50277 0.38535 0.0
C1681 C 0.90329 0.48318 0.38126 0.0
C1682 C 0.91676 0.47008 0.35463 0.0
C1683 C 0.93469 0.47642 0.33168 0.0
C1684 C 0.93912 0.4959 0.33462 0.0
C1685 C 0.92567 0.50906 0.36088 0.0
H1686 H 0.94513 0.46625 0.31147 0.0
H1687 H 0.81489 0.58994 0.59438 0.0
loop_
_geom_bond_atom_site_label_1
_geom_bond_atom_site_label_2
_geom_bond_distance
_geom_bond_site_symmetry_2
_ccdc_geom_bond_type
H0 C1 0.949 . S
C1 H0 0.949 . S
C1 C2 1.395 . S
C1 C3 1.391 . S
C2 C1 1.395 . S
C2 C5 1.390 . S
C3 C1 1.391 . S
C3 C7 1.387 . S
C3 C8 1.491 . S
H4 C5 0.950 . S
C5 C2 1.390 . S
C5 H4 0.950 . S
C5 C6 1.378 . S
C6 C5 1.378 . S
C6 C7 1.409 . S
C7 C3 1.387 . S
C7 C6 1.409 . S
C7 H9 0.951 . S
C8 C3 1.491 . S
C8 C10 1.382 . S
C8 C12 1.404 . S
H9 C7 0.951 . S
C10 C8 1.382 . S
C10 C11 1.390 . S
C10 H15 0.949 . S
C11 C10 1.390 . S
C11 C16 1.399 . S
C12 C8 1.404 . S
C12 H13 0.950 . S
C12 C14 1.375 . S
H13 C12 0.950 . S
C14 C12 1.375 . S
C14 C16 1.382 . S
C14 H18 0.950 . S
H15 C10 0.949 . S
C16 C11 1.399 . S
C16 C14 1.382 . S
C16 H17 0.952 . S
H17 C16 0.952 . S
H18 C14 0.950 . S
H19 C20 0.949 . S
C20 H19 0.949 . S
C20 C21 1.395 . S
C20 C22 1.391 . S
C21 C20 1.395 . S
C21 C24 1.390 . S
C22 C20 1.391 . S
C22 C26 1.387 . S
C22 C27 1.491 . S
H23 C24 0.950 . S
C24 C21 1.390 . S
C24 H23 0.950 . S
C24 C25 1.378 . S
C25 C24 1.378 . S
C25 C26 1.409 . S
C26 C22 1.387 . S
C26 C25 1.409 . S
C26 H28 0.951 . S
C27 C22 1.491 . S
C27 C29 1.382 . S
C27 C31 1.404 . S
H28 C26 0.951 . S
C29 C27 1.382 . S
C29 C30 1.390 . S
C29 H34 0.949 . S
C30 C29 1.390 . S
C30 C35 1.399 . S
C31 C27 1.404 . S
C31 H32 0.950 . S
C31 C33 1.375 . S
H32 C31 0.950 . S
C33 C31 1.375 . S
C33 C35 1.382 . S
C33 H37 0.950 . S
H34 C29 0.949 . S
C35 C30 1.399 . S
C35 C33 1.382 . S
C35 H36 0.952 . S
H36 C35 0.952 . S
H37 C33 0.950 . S
H38 C39 0.949 . S
C39 H38 0.949 . S
C39 C40 1.395 . S
C39 C41 1.391 . S
C40 C39 1.395 . S
C40 C43 1.390 . S
C41 C39 1.391 . S
C41 C45 1.387 . S
C41 C46 1.491 . S
H42 C43 0.950 . S
C43 C40 1.390 . S
C43 H42 0.950 . S
C43 C44 1.378 . S
C44 C43 1.378 . S
C44 C45 1.409 . S
C45 C41 1.387 . S
C45 C44 1.409 . S
C45 H47 0.951 . S
C46 C41 1.491 . S
C46 C48 1.382 . S
C46 C50 1.404 . S
H47 C45 0.951 . S
C48 C46 1.382 . S
C48 C49 1.390 . S
C48 H53 0.949 . S
C49 C48 1.390 . S
C49 C54 1.399 . S
C50 C46 1.404 . S
C50 H51 0.950 . S
C50 C52 1.375 . S
H51 C50 0.950 . S
C52 C50 1.375 . S
C52 C54 1.382 . S
C52 H56 0.950 . S
H53 C48 0.949 . S
C54 C49 1.399 . S
C54 C52 1.382 . S
C54 H55 0.952 . S
H55 C54 0.952 . S
H56 C52 0.950 . S
H57 C58 0.949 . S
C58 H57 0.949 . S
C58 C59 1.395 . S
C58 C60 1.391 . S
C59 C58 1.395 . S
C59 C62 1.390 . S
C60 C58 1.391 . S
C60 C64 1.387 . S
C60 C65 1.491 . S
H61 C62 0.950 . S
C62 C59 1.390 . S
C62 H61 0.950 . S
C62 C63 1.378 . S
C63 C62 1.378 . S
C63 C64 1.409 . S
C64 C60 1.387 . S
C64 C63 1.409 . S
C64 H66 0.951 . S
C65 C60 1.491 . S
C65 C67 1.382 . S
C65 C69 1.404 . S
H66 C64 0.951 . S
C67 C65 1.382 . S
C67 C68 1.390 . S
C67 H72 0.949 . S
C68 C67 1.390 . S
C68 C73 1.399 . S
C69 C65 1.404 . S
C69 H70 0.950 . S
C69 C71 1.375 . S
H70 C69 0.950 . S
C71 C69 1.375 . S
C71 C73 1.382 . S
C71 H75 0.950 . S
H72 C67 0.949 . S
C73 C68 1.399 . S
C73 C71 1.382 . S
C73 H74 0.952 . S
H74 C73 0.952 . S
H75 C71 0.950 . S
H76 C77 0.949 . S
C77 H76 0.949 . S
C77 C78 1.395 . S
C77 C79 1.391 1_554 S
C78 C77 1.395 . S
C78 C81 1.390 1_554 S
C79 C77 1.391 1_556 S
C79 C83 1.387 . S
C79 C84 1.491 . S
H80 C81 0.950 . S
C81 C78 1.390 1_556 S
C81 H80 0.950 . S
C81 C82 1.378 . S
C82 C81 1.378 . S
C82 C83 1.409 . S
C83 C79 1.387 . S
C83 C82 1.409 . S
C83 H85 0.951 . S
C84 C79 1.491 . S
C84 C86 1.382 1_556 S
C84 C88 1.404 . S
H85 C83 0.951 . S
C86 C84 1.382 1_554 S
C86 C87 1.390 . S
C86 H91 0.949 . S
C87 C86 1.390 . S
C87 C92 1.399 1_554 S
C88 C84 1.404 . S
C88 H89 0.950 . S
C88 C90 1.375 . S
H89 C88 0.950 . S
C90 C88 1.375 . S
C90 C92 1.382 . S
C90 H94 0.950 . S
H91 C86 0.949 . S
C92 C87 1.399 1_556 S
C92 C90 1.382 . S
C92 H93 0.952 1_556 S
H93 C92 0.952 1_554 S
H94 C90 0.950 . S
H95 C96 0.949 . S
C96 H95 0.949 . S
C96 C97 1.395 . S
C96 C98 1.391 1_554 S
C97 C96 1.395 . S
C97 C100 1.390 1_554 S
C98 C96 1.391 1_556 S
C98 C102 1.387 . S
C98 C103 1.491 . S
H99 C100 0.950 . S
C100 C97 1.390 1_556 S
C100 H99 0.950 . S
C100 C101 1.378 . S
C101 C100 1.378 . S
C101 C102 1.409 . S
C102 C98 1.387 . S
C102 C101 1.409 . S
C102 H104 0.951 . S
C103 C98 1.491 . S
C103 C105 1.382 1_556 S
C103 C107 1.404 . S
H104 C102 0.951 . S
C105 C103 1.382 1_554 S
C105 C106 1.390 . S
C105 H110 0.949 . S
C106 C105 1.390 . S
C106 C111 1.399 1_554 S
C107 C103 1.404 . S
C107 H108 0.950 . S
C107 C109 1.375 . S
H108 C107 0.950 . S
C109 C107 1.375 . S
C109 C111 1.382 . S
C109 H113 0.950 . S
H110 C105 0.949 . S
C111 C106 1.399 1_556 S
C111 C109 1.382 . S
C111 H112 0.952 . S
H112 C111 0.952 . S
H113 C109 0.950 . S
H114 C115 0.949 . S
C115 H114 0.949 . S
C115 C116 1.395 . S
C115 C117 1.391 1_554 S
C116 C115 1.395 . S
C116 C119 1.390 1_554 S
C117 C115 1.391 1_556 S
C117 C121 1.387 . S
C117 C122 1.491 . S
H118 C119 0.950 . S
C119 C116 1.390 1_556 S
C119 H118 0.950 . S
C119 C120 1.378 . S
C120 C119 1.378 . S
C120 C121 1.409 . S
C121 C117 1.387 . S
C121 C120 1.409 . S
C121 H123 0.951 . S
C122 C117 1.491 . S
C122 C124 1.382 1_556 S
C122 C126 1.404 . S
H123 C121 0.951 . S
C124 C122 1.382 1_554 S
C124 C125 1.390 . S
C124 H129 0.949 . S
C125 C124 1.390 . S
C125 C130 1.399 1_554 S
C126 C122 1.404 . S
C126 H127 0.950 . S
C126 C128 1.375 . S
H127 C126 0.950 . S
C128 C126 1.375 . S
C128 C130 1.382 . S
C128 H132 0.950 . S
H129 C124 0.949 . S
C130 C125 1.399 1_556 S
C130 C128 1.382 . S
C130 H131 0.952 . S
H131 C130 0.952 . S
H132 C128 0.950 . S
H133 C134 0.949 . S
C134 H133 0.949 . S
C134 C135 1.395 . S
C134 C136 1.391 1_554 S
C135 C134 1.395 . S
C135 C138 1.390 1_554 S
C136 C134 1.391 1_556 S
C136 C140 1.387 . S
C136 C141 1.491 . S
H137 C138 0.950 . S
C138 C135 1.390 1_556 S
C138 H137 0.950 . S
C138 C139 1.378 . S
C139 C138 1.378 . S
C139 C140 1.409 . S
C140 C136 1.387 . S
C140 C139 1.409 . S
C140 H142 0.951 . S
C141 C136 1.491 . S
C141 C143 1.382 1_556 S
C141 C145 1.404 . S
H142 C140 0.951 . S
C143 C141 1.382 1_554 S
C143 C144 1.390 . S
C143 H148 0.949 . S
C144 C143 1.390 . S
C144 C149 1.397 1_554 S
C145 C141 1.404 . S
C145 H146 0.950 . S
C145 C147 1.375 . S
H146 C145 0.950 . S
C147 C145 1.375 . S
C147 C149 1.385 . S
C147 H151 0.950 . S
H148 C143 0.949 . S
C149 C144 1.397 1_556 S
C149 C147 1.385 . S
C149 H150 0.951 1_556 S
H150 C149 0.951 1_554 S
H151 C147 0.950 . S
Tb152 N183 2.660 1_565 S
Tb152 N190 2.600 1_565 S
Tb152 O196 2.546 . S
Tb152 O197 2.610 1_455 S
Tb152 O199 2.320 1_465 S
Tb152 O200 2.552 . S
Tb152 O201 2.413 . S
Tb152 O203 2.362 1_565 S
Tb152 O204 2.420 . S
Tb152 C216 2.833 . S
C153 C156 1.431 . S
C153 C157 1.414 . S
C153 N160 1.359 . S
C154 C156 1.418 1_565 S
C154 C158 1.432 . S
C154 C166 1.410 . S
C155 C157 1.444 1_565 S
C155 C158 1.317 . S
C155 H178 0.929 . S
C156 C153 1.431 . S
C156 C154 1.418 1_545 S
C156 N164 1.359 . S
C157 C153 1.414 . S
C157 C155 1.444 1_545 S
C157 C162 1.385 . S
C158 C154 1.432 . S
C158 C155 1.317 . S
C158 H170 0.930 . S
C159 C161 1.392 . S
C159 C162 1.370 . S
C159 H171 0.931 . S
N160 C153 1.359 . S
N160 C161 1.327 . S
N160 Tb163 2.600 . S
C161 C159 1.392 . S
C161 N160 1.327 . S
C161 H168 0.930 . S
C162 C157 1.385 . S
C162 C159 1.370 . S
C162 H181 0.930 . S
Tb163 N160 2.600 . S
Tb163 N164 2.660 . S
Tb163 O197 2.362 1_545 S
Tb163 O198 2.421 . S
Tb163 O202 2.546 . S
Tb163 O203 2.610 1_655 S
Tb163 O205 2.320 1_655 S
Tb163 O206 2.552 1_655 S
Tb163 O207 2.413 1_655 S
Tb163 C227 2.833 . S
N164 C156 1.359 . S
N164 Tb163 2.660 . S
N164 C165 1.305 1_645 S
C165 N164 1.305 1_465 S
C165 C167 1.407 . S
C165 H172 0.930 . S
C166 C154 1.410 . S
C166 C167 1.345 1_655 S
C166 H174 0.930 . S
C167 C165 1.407 . S
C167 C166 1.345 1_455 S
C167 H169 0.930 . S
H168 C161 0.930 . S
H169 C167 0.930 . S
H170 C158 0.930 . S
H171 C159 0.931 . S
H172 C165 0.930 . S
H173 C187 0.887 1_655 S
H174 C166 0.930 . S
H175 C193 0.930 . S
H176 C184 0.930 1_655 S
H177 C191 0.931 . S
H178 C155 0.929 . S
H179 C185 0.930 . S
H180 C218 0.930 . S
H181 C162 0.930 . S
H182 C217 0.929 . S
N183 Tb152 2.660 1_545 S
N183 C184 1.305 . S
N183 C188 1.360 . S
C184 H176 0.930 1_455 S
C184 N183 1.305 . S
C184 C187 1.411 . S
C185 H179 0.930 . S
C185 C186 1.410 . S
C185 C187 1.387 . S
C186 C185 1.410 . S
C186 C188 1.417 . S
C186 C218 1.432 . S
C187 H173 0.887 1_455 S
C187 C184 1.411 . S
C187 C185 1.387 . S
C188 N183 1.360 . S
C188 C186 1.417 . S
C188 C192 1.432 . S
H189 C194 0.930 . S
N190 Tb152 2.600 1_545 S
N190 C192 1.359 . S
N190 C193 1.327 1_545 S
C191 H177 0.931 . S
C191 C193 1.392 . S
C191 C194 1.370 1_565 S
C192 C188 1.432 . S
C192 N190 1.359 . S
C192 C195 1.414 . S
C193 H175 0.930 . S
C193 N190 1.327 1_565 S
C193 C191 1.392 . S
C194 H189 0.930 . S
C194 C191 1.370 1_545 S
C194 C195 1.385 . S
C195 C192 1.414 . S
C195 C194 1.385 . S
C195 C217 1.444 . S
O196 Tb152 2.546 . S
O196 C216 1.251 . S
O197 Tb152 2.610 1_655 S
O197 Tb163 2.362 1_565 S
O197 C208 1.283 . S
O198 Tb163 2.421 . S
O198 C215 1.262 . S
O199 Tb152 2.320 1_645 S
O199 C215 1.260 . S
O200 Tb152 2.552 . S
O200 C208 1.243 1_455 S
O201 Tb152 2.413 . S
O201 C216 1.256 . S
O202 Tb163 2.546 . S
O202 C227 1.251 . S
O203 Tb152 2.362 1_545 S
O203 Tb163 2.610 1_455 S
O203 C219 1.283 . S
O204 Tb152 2.420 . S
O204 C226 1.267 1_565 S
O205 Tb163 2.320 1_455 S
O205 C226 1.260 . S
O206 Tb163 2.552 1_455 S
O206 C219 1.243 . S
O207 Tb163 2.413 1_455 S
O207 C227 1.256 1_455 S
C208 O197 1.283 . S
C208 O200 1.243 1_655 S
C209 C211 1.382 . S
C209 C213 1.393 . S
C209 C216 1.500 . S
C210 C211 1.400 . S
C210 C212 1.384 . S
C211 C209 1.382 . S
C211 C210 1.400 . S
C211 H228 0.930 1_455 S
C212 C210 1.384 . S
C212 C214 1.392 . S
C212 H229 0.931 . S
C213 C209 1.393 . S
C213 C214 1.401 . S
C213 H230 0.930 . S
C214 C212 1.392 . S
C214 C213 1.401 . S
C214 H231 0.930 . S
C215 O198 1.262 . S
C215 O199 1.260 . S
C216 Tb152 2.833 . S
C216 O196 1.251 . S
C216 O201 1.256 . S
C216 C209 1.500 . S
C217 H182 0.929 . S
C217 C195 1.444 . S
C217 C218 1.317 . S
C218 H180 0.930 . S
C218 C186 1.432 . S
C218 C217 1.317 . S
C219 O203 1.283 . S
C219 O206 1.243 . S
C220 C221 1.382 1_655 S
C220 C224 1.393 . S
C220 C227 1.500 . S
C221 C220 1.382 1_455 S
C221 C222 1.400 . S
C221 H232 0.930 . S
C222 C221 1.400 . S
C222 C223 1.384 1_455 S
C223 C222 1.384 1_655 S
C223 C225 1.392 . S
C223 H233 0.931 . S
C224 C220 1.393 . S
C224 C225 1.401 . S
C224 H234 0.930 . S
C225 C223 1.392 . S
C225 C224 1.401 . S
C225 H235 0.930 . S
C226 O204 1.267 1_545 S
C226 O205 1.260 . S
C227 Tb163 2.833 . S
C227 O202 1.251 . S
C227 O207 1.256 1_655 S
C227 C220 1.500 . S
H228 C211 0.930 1_655 S
H229 C212 0.931 . S
H230 C213 0.930 . S
H231 C214 0.930 . S
H232 C221 0.930 . S
H233 C223 0.931 . S
H234 C224 0.930 . S
H235 C225 0.930 . S
Tb236 N267 2.660 . S
Tb236 N274 2.600 . S
Tb236 O280 2.546 . S
Tb236 O281 2.610 . S
Tb236 O283 2.320 1_545 S
Tb236 O284 2.552 . S
Tb236 O285 2.413 . S
Tb236 O287 2.362 . S
Tb236 O288 2.421 . S
Tb236 C300 2.833 . S
C237 C240 1.432 . S
C237 C241 1.414 . S
C237 N244 1.359 . S
C238 C240 1.417 . S
C238 C242 1.432 . S
C238 C250 1.431 . S
C239 C241 1.444 . S
C239 C242 1.317 . S
C239 H262 0.929 . S
C240 C237 1.432 . S
C240 C238 1.417 . S
C240 N248 1.360 . S
C241 C237 1.414 . S
C241 C239 1.444 . S
C241 C246 1.385 . S
C242 C238 1.432 . S
C242 C239 1.317 . S
C242 H254 0.930 . S
C243 C245 1.392 . S
C243 C246 1.370 . S
C243 H255 0.931 . S
N244 C237 1.359 . S
N244 C245 1.327 . S
N244 Tb247 2.600 . S
C245 C243 1.392 . S
C245 N244 1.327 . S
C245 H252 0.930 . S
C246 C241 1.385 . S
C246 C243 1.370 . S
C246 H265 0.930 . S
Tb247 N244 2.600 . S
Tb247 N248 2.660 . S
Tb247 O281 2.362 1_565 S
Tb247 O282 2.421 . S
Tb247 O286 2.546 . S
Tb247 O287 2.610 1_565 S
Tb247 O289 2.320 1_565 S
Tb247 O290 2.552 1_565 S
Tb247 O291 2.413 1_565 S
Tb247 C311 2.833 . S
N248 C240 1.360 . S
N248 Tb247 2.660 . S
N248 C249 1.305 1_565 S
C249 N248 1.305 1_545 S
C249 C251 1.407 . S
C249 H256 0.930 . S
C250 C238 1.431 . S
C250 C251 1.325 1_565 S
C250 H258 0.929 1_565 S
C251 C249 1.407 . S
C251 C250 1.325 1_545 S
C251 H253 0.930 . S
H252 C245 0.930 . S
H253 C251 0.930 . S
H254 C242 0.930 . S
H255 C243 0.931 . S
H256 C249 0.930 . S
H257 C271 0.930 1_565 S
H258 C250 0.929 1_545 S
H259 C277 0.930 . S
H260 C268 0.930 1_565 S
H261 C275 0.931 . S
H262 C239 0.929 . S
H263 C269 0.930 . S
H264 C302 0.930 . S
H265 C246 0.930 . S
H266 C301 0.929 . S
N267 Tb236 2.660 . S
N267 C268 1.305 . S
N267 C272 1.360 . S
C268 H260 0.930 1_545 S
C268 N267 1.305 . S
C268 C271 1.407 . S
C269 H263 0.930 . S
C269 C270 1.410 . S
C269 C271 1.345 . S
C270 C269 1.410 . S
C270 C272 1.417 . S
C270 C302 1.432 . S
C271 H257 0.930 1_545 S
C271 C268 1.407 . S
C271 C269 1.345 . S
C272 N267 1.360 . S
C272 C270 1.417 . S
C272 C276 1.432 . S
H273 C278 0.930 . S
N274 Tb236 2.600 . S
N274 C276 1.359 . S
N274 C277 1.327 . S
C275 H261 0.931 . S
C275 C277 1.392 . S
C275 C278 1.370 . S
C276 C272 1.432 . S
C276 N274 1.359 . S
C276 C279 1.414 . S
C277 H259 0.930 . S
C277 N274 1.327 . S
C277 C275 1.392 . S
C278 H273 0.930 . S
C278 C275 1.370 . S
C278 C279 1.385 . S
C279 C276 1.414 . S
C279 C278 1.385 . S
C279 C301 1.444 . S
O280 Tb236 2.546 . S
O280 C300 1.251 . S
O281 Tb236 2.610 . S
O281 Tb247 2.362 1_545 S
O281 C292 1.283 . S
O282 Tb247 2.421 . S
O282 C299 1.262 . S
O283 Tb236 2.320 1_565 S
O283 C299 1.260 . S
O284 Tb236 2.552 . S
O284 C292 1.243 . S
O285 Tb236 2.413 . S
O285 C300 1.256 . S
O286 Tb247 2.546 . S
O286 C311 1.251 . S
O287 Tb236 2.362 . S
O287 Tb247 2.610 1_545 S
O287 C303 1.283 . S
O288 Tb236 2.421 . S
O288 C310 1.262 . S
O289 Tb247 2.320 1_545 S
O289 C310 1.260 . S
O290 Tb247 2.552 1_545 S
O290 C303 1.243 . S
O291 Tb247 2.413 1_545 S
O291 C311 1.256 1_545 S
C292 O281 1.283 . S
C292 O284 1.243 . S
C293 C295 1.382 . S
C293 C297 1.393 . S
C293 C300 1.500 . S
C294 C295 1.400 . S
C294 C296 1.384 . S
C295 C293 1.382 . S
C295 C294 1.400 . S
C295 H312 0.930 . S
C296 C294 1.384 . S
C296 C298 1.392 . S
C296 H313 0.931 . S
C297 C293 1.393 . S
C297 C298 1.401 . S
C297 H314 0.930 . S
C298 C296 1.392 . S
C298 C297 1.401 . S
C298 H315 0.930 . S
C299 O282 1.262 . S
C299 O283 1.260 . S
C300 Tb236 2.833 . S
C300 O280 1.251 . S
C300 O285 1.256 . S
C300 C293 1.500 . S
C301 H266 0.929 . S
C301 C279 1.444 . S
C301 C302 1.317 . S
C302 H264 0.930 . S
C302 C270 1.432 . S
C302 C301 1.317 . S
C303 O287 1.283 . S
C303 O290 1.243 . S
C304 C305 1.382 1_565 S
C304 C308 1.393 . S
C304 C311 1.500 . S
C305 C304 1.382 1_545 S
C305 C306 1.400 . S
C305 H316 0.930 . S
C306 C305 1.400 . S
C306 C307 1.384 1_545 S
C307 C306 1.384 1_565 S
C307 C309 1.392 . S
C307 H317 0.931 . S
C308 C304 1.393 . S
C308 C309 1.401 . S
C308 H318 0.930 . S
C309 C307 1.392 . S
C309 C308 1.401 . S
C309 H319 0.930 . S
C310 O288 1.262 . S
C310 O289 1.260 . S
C311 Tb247 2.833 . S
C311 O286 1.251 . S
C311 O291 1.256 1_565 S
C311 C304 1.500 . S
H312 C295 0.930 . S
H313 C296 0.931 . S
H314 C297 0.930 . S
H315 C298 0.930 . S
H316 C305 0.930 . S
H317 C307 0.931 . S
H318 C308 0.930 . S
H319 C309 0.930 . S
Tb320 N351 2.660 . S
Tb320 N358 2.600 . S
Tb320 O364 2.546 . S
Tb320 O365 2.610 . S
Tb320 O367 2.320 . S
Tb320 O368 2.552 . S
Tb320 O369 2.413 . S
Tb320 O371 2.362 . S
Tb320 O372 2.421 . S
Tb320 C384 2.833 . S
C321 C324 1.432 . S
C321 C325 1.414 . S
C321 N328 1.359 . S
C322 C324 1.417 . S
C322 C326 1.432 . S
C322 C334 1.410 . S
C323 C325 1.444 . S
C323 C326 1.317 . S
C323 H346 0.929 . S
C324 C321 1.432 . S
C324 C322 1.417 . S
C324 N332 1.360 . S
C325 C321 1.414 . S
C325 C323 1.444 . S
C325 C330 1.385 . S
C326 C322 1.432 . S
C326 C323 1.317 . S
C326 H338 0.930 . S
C327 C329 1.392 . S
C327 C330 1.370 . S
C327 H339 0.931 . S
N328 C321 1.359 . S
N328 C329 1.327 . S
N328 Tb331 2.600 . S
C329 C327 1.392 . S
C329 N328 1.327 . S
C329 H336 0.930 . S
C330 C325 1.385 . S
C330 C327 1.370 . S
C330 H349 0.930 . S
Tb331 N328 2.600 . S
Tb331 N332 2.660 . S
Tb331 O365 2.362 . S
Tb331 O366 2.421 . S
Tb331 O370 2.546 . S
Tb331 O371 2.610 . S
Tb331 O373 2.320 . S
Tb331 O374 2.552 . S
Tb331 O375 2.413 . S
Tb331 C395 2.833 . S
N332 C324 1.360 . S
N332 Tb331 2.660 . S
N332 C333 1.305 . S
C333 N332 1.305 . S
C333 C335 1.407 . S
C333 H340 0.930 . S
C334 C322 1.410 . S
C334 C335 1.345 . S
C334 H342 0.930 . S
C335 C333 1.407 . S
C335 C334 1.345 . S
C335 H337 0.930 . S
H336 C329 0.930 . S
H337 C335 0.930 . S
H338 C326 0.930 . S
H339 C327 0.931 . S
H340 C333 0.930 . S
H341 C355 0.930 . S
H342 C334 0.930 . S
H343 C361 0.930 . S
H344 C352 0.930 . S
H345 C359 0.931 . S
H346 C323 0.929 . S
H347 C353 0.930 . S
H348 C386 0.930 . S
H349 C330 0.930 . S
H350 C385 0.929 . S
N351 Tb320 2.660 . S
N351 C352 1.305 . S
N351 C356 1.360 . S
C352 H344 0.930 . S
C352 N351 1.305 . S
C352 C355 1.407 . S
C353 H347 0.930 . S
C353 C354 1.410 . S
C353 C355 1.345 . S
C354 C353 1.410 . S
C354 C356 1.417 . S
C354 C386 1.432 . S
C355 H341 0.930 . S
C355 C352 1.407 . S
C355 C353 1.345 . S
C356 N351 1.360 . S
C356 C354 1.417 . S
C356 C360 1.432 . S
H357 C362 0.930 . S
N358 Tb320 2.600 . S
N358 C360 1.359 . S
N358 C361 1.327 . S
C359 H345 0.931 . S
C359 C361 1.392 . S
C359 C362 1.370 . S
C360 C356 1.432 . S
C360 N358 1.359 . S
C360 C363 1.414 . S
C361 H343 0.930 . S
C361 N358 1.327 . S
C361 C359 1.392 . S
C362 H357 0.930 . S
C362 C359 1.370 . S
C362 C363 1.385 . S
C363 C360 1.414 . S
C363 C362 1.385 . S
C363 C385 1.444 . S
O364 Tb320 2.546 . S
O364 C384 1.251 . S
O365 Tb320 2.610 . S
O365 Tb331 2.362 . S
O365 C376 1.283 . S
O366 Tb331 2.421 . S
O366 C383 1.262 . S
O367 Tb320 2.320 . S
O367 C383 1.260 . S
O368 Tb320 2.552 . S
O368 C376 1.243 . S
O369 Tb320 2.413 . S
O369 C384 1.256 . S
O370 Tb331 2.546 . S
O370 C395 1.251 . S
O371 Tb320 2.362 . S
O371 Tb331 2.610 . S
O371 C387 1.283 . S
O372 Tb320 2.421 . S
O372 C394 1.262 . S
O373 Tb331 2.320 . S
O373 C394 1.260 . S
O374 Tb331 2.552 . S
O374 C387 1.243 . S
O375 Tb331 2.413 . S
O375 C395 1.256 . S
C376 O365 1.283 . S
C376 O368 1.243 . S
C377 C379 1.382 . S
C377 C381 1.393 . S
C377 C384 1.500 . S
C378 C379 1.400 . S
C378 C380 1.384 . S
C379 C377 1.382 . S
C379 C378 1.400 . S
C379 H396 0.930 . S
C380 C378 1.384 . S
C380 C382 1.392 . S
C380 H397 0.931 . S
C381 C377 1.393 . S
C381 C382 1.401 . S
C381 H398 0.930 . S
C382 C380 1.392 . S
C382 C381 1.401 . S
C382 H399 0.930 . S
C383 O366 1.262 . S
C383 O367 1.260 . S
C384 Tb320 2.833 . S
C384 O364 1.251 . S
C384 O369 1.256 . S
C384 C377 1.500 . S
C385 H350 0.929 . S
C385 C363 1.444 . S
C385 C386 1.317 . S
C386 H348 0.930 . S
C386 C354 1.432 . S
C386 C385 1.317 . S
C387 O371 1.283 . S
C387 O374 1.243 . S
C388 C389 1.382 . S
C388 C392 1.393 . S
C388 C395 1.500 . S
C389 C388 1.382 . S
C389 C390 1.400 . S
C389 H400 0.930 . S
C390 C389 1.400 . S
C390 C391 1.384 . S
C391 C390 1.384 . S
C391 C393 1.392 . S
C391 H401 0.931 . S
C392 C388 1.393 . S
C392 C393 1.401 . S
C392 H402 0.930 . S
C393 C391 1.392 . S
C393 C392 1.401 . S
C393 H403 0.930 1_556 S
C394 O372 1.262 . S
C394 O373 1.260 . S
C395 Tb331 2.833 . S
C395 O370 1.251 . S
C395 O375 1.256 . S
C395 C388 1.500 . S
H396 C379 0.930 . S
H397 C380 0.931 . S
H398 C381 0.930 . S
H399 C382 0.930 . S
H400 C389 0.930 . S
H401 C391 0.931 . S
H402 C392 0.930 . S
H403 C393 0.930 1_554 S
Tb404 N435 2.660 . S
Tb404 N442 2.600 . S
Tb404 O448 2.546 . S
Tb404 O449 2.610 . S
Tb404 O451 2.320 . S
Tb404 O452 2.552 . S
Tb404 O453 2.413 . S
Tb404 O455 2.362 . S
Tb404 O456 2.421 1_455 S
Tb404 C468 2.833 . S
C405 C408 1.432 . S
C405 C409 1.414 . S
C405 N412 1.359 . S
C406 C408 1.417 . S
C406 C410 1.432 . S
C406 C418 1.410 . S
C407 C409 1.444 . S
C407 C410 1.317 . S
C407 H430 0.929 . S
C408 C405 1.432 . S
C408 C406 1.417 . S
C408 N416 1.360 . S
C409 C405 1.414 . S
C409 C407 1.444 . S
C409 C414 1.385 1_655 S
C410 C406 1.432 . S
C410 C407 1.317 . S
C410 H422 0.930 . S
C411 C413 1.392 . S
C411 C414 1.370 . S
C411 H423 0.931 . S
N412 C405 1.359 . S
N412 C413 1.327 1_655 S
N412 Tb415 2.600 . S
C413 C411 1.392 . S
C413 N412 1.327 1_455 S
C413 H420 0.930 . S
C414 C409 1.385 1_455 S
C414 C411 1.370 . S
C414 H433 0.930 . S
Tb415 N412 2.600 . S
Tb415 N416 2.660 . S
Tb415 O449 2.362 1_655 S
Tb415 O450 2.421 1_655 S
Tb415 O454 2.546 . S
Tb415 O455 2.610 1_655 S
Tb415 O457 2.320 . S
Tb415 O458 2.552 . S
Tb415 O459 2.413 . S
Tb415 C479 2.833 . S
N416 C408 1.360 . S
N416 Tb415 2.660 . S
N416 C417 1.305 . S
C417 N416 1.305 . S
C417 C419 1.407 . S
C417 H424 0.930 . S
C418 C406 1.410 . S
C418 C419 1.345 . S
C418 H426 0.930 . S
C419 C417 1.407 . S
C419 C418 1.345 . S
C419 H421 0.930 . S
H420 C413 0.930 . S
H421 C419 0.930 . S
H422 C410 0.930 . S
H423 C411 0.931 . S
H424 C417 0.930 . S
H425 C439 0.930 . S
H426 C418 0.930 . S
H427 C445 0.930 1_655 S
H428 C436 0.930 . S
H429 C443 0.931 1_655 S
H430 C407 0.929 . S
H431 C437 0.930 . S
H432 C470 0.930 . S
H433 C414 0.930 . S
H434 C469 0.929 . S
N435 Tb404 2.660 . S
N435 C436 1.305 . S
N435 C440 1.360 . S
C436 H428 0.930 . S
C436 N435 1.305 . S
C436 C439 1.407 . S
C437 H431 0.930 . S
C437 C438 1.410 . S
C437 C439 1.345 . S
C438 C437 1.410 . S
C438 C440 1.417 . S
C438 C470 1.432 . S
C439 H425 0.930 . S
C439 C436 1.407 . S
C439 C437 1.345 . S
C440 N435 1.360 . S
C440 C438 1.417 . S
C440 C444 1.432 . S
H441 C446 0.930 . S
N442 Tb404 2.600 . S
N442 C444 1.359 . S
N442 C445 1.327 . S
C443 H429 0.931 1_455 S
C443 C445 1.392 . S
C443 C446 1.370 . S
C444 C440 1.432 . S
C444 N442 1.359 . S
C444 C447 1.414 . S
C445 H427 0.930 1_455 S
C445 N442 1.327 . S
C445 C443 1.392 . S
C446 H441 0.930 . S
C446 C443 1.370 . S
C446 C447 1.385 . S
C447 C444 1.414 . S
C447 C446 1.385 . S
C447 C469 1.444 . S
O448 Tb404 2.546 . S
O448 C468 1.251 . S
O449 Tb404 2.610 . S
O449 Tb415 2.362 1_455 S
O449 C460 1.283 . S
O450 Tb415 2.421 1_455 S
O450 C467 1.262 . S
O451 Tb404 2.320 . S
O451 C467 1.260 . S
O452 Tb404 2.552 . S
O452 C460 1.243 . S
O453 Tb404 2.413 . S
O453 C468 1.256 . S
O454 Tb415 2.546 . S
O454 C479 1.251 . S
O455 Tb404 2.362 . S
O455 Tb415 2.610 1_455 S
O455 C471 1.283 1_455 S
O456 Tb404 2.421 1_655 S
O456 C478 1.262 . S
O457 Tb415 2.320 . S
O457 C478 1.260 . S
O458 Tb415 2.552 . S
O458 C471 1.243 . S
O459 Tb415 2.413 . S
O459 C479 1.256 . S
C460 O449 1.283 . S
C460 O452 1.243 . S
C461 C463 1.382 . S
C461 C465 1.393 . S
C461 C468 1.500 . S
C462 C463 1.400 . S
C462 C464 1.384 . S
C463 C461 1.382 . S
C463 C462 1.400 . S
C463 H480 0.930 . S
C464 C462 1.384 . S
C464 C466 1.392 . S
C464 H481 0.931 . S
C465 C461 1.393 . S
C465 C466 1.401 . S
C465 H482 0.930 . S
C466 C464 1.392 . S
C466 C465 1.401 . S
C466 H483 0.930 . S
C467 O450 1.262 . S
C467 O451 1.260 . S
C468 Tb404 2.833 . S
C468 O448 1.251 . S
C468 O453 1.256 . S
C468 C461 1.500 . S
C469 H434 0.929 . S
C469 C447 1.444 . S
C469 C470 1.317 . S
C470 H432 0.930 . S
C470 C438 1.432 . S
C470 C469 1.317 . S
C471 O455 1.283 1_655 S
C471 O458 1.243 . S
C472 C473 1.382 . S
C472 C476 1.393 . S
C472 C479 1.500 . S
C473 C472 1.382 . S
C473 C474 1.400 . S
C473 H484 0.930 . S
C474 C473 1.400 . S
C474 C475 1.384 . S
C475 C474 1.384 . S
C475 C477 1.392 . S
C475 H485 0.931 . S
C476 C472 1.393 . S
C476 C477 1.401 . S
C476 H486 0.930 . S
C477 C475 1.392 . S
C477 C476 1.401 . S
C477 H487 0.930 1_556 S
C478 O456 1.262 . S
C478 O457 1.260 . S
C479 Tb415 2.833 . S
C479 O454 1.251 . S
C479 O459 1.256 . S
C479 C472 1.500 . S
H480 C463 0.930 . S
H481 C464 0.931 . S
H482 C465 0.930 . S
H483 C466 0.930 . S
H484 C473 0.930 . S
H485 C475 0.931 . S
H486 C476 0.930 . S
H487 C477 0.930 1_554 S
H488 C506 0.951 . S
H489 C508 0.951 . S
H490 C510 0.950 . S
H491 C511 0.950 . S
H492 C513 0.950 . S
H493 C516 0.950 . S
H494 C517 0.950 . S
H495 C519 0.950 . S
H496 C520 0.950 . S
H497 C521 0.951 1_565 S
H498 C523 0.951 . S
H499 C525 0.950 . S
H500 C526 0.950 . S
H501 C528 0.950 . S
H502 C531 0.950 . S
H503 C532 0.950 . S
H504 C534 0.950 . S
H505 C535 0.950 . S
C506 H488 0.951 . S
C506 C507 1.366 . S
C506 C508 1.388 . S
C507 C506 1.366 . S
C507 C511 1.385 . S
C508 H489 0.951 . S
C508 C506 1.388 . S
C508 C509 1.366 . S
C509 C508 1.366 . S
C509 C510 1.414 . S
C509 C512 1.499 . S
C510 H490 0.950 . S
C510 C509 1.414 . S
C510 C511 1.374 . S
C511 H491 0.950 . S
C511 C507 1.385 . S
C511 C510 1.374 . S
C512 C509 1.499 . S
C512 C513 1.373 . S
C512 C514 1.389 . S
C513 H492 0.950 . S
C513 C512 1.373 . S
C513 C529 1.377 . S
C514 C512 1.389 . S
C514 C515 1.524 . S
C514 C528 1.377 . S
C515 C514 1.524 . S
C515 C516 1.397 . S
C515 C520 1.363 . S
C516 H493 0.950 . S
C516 C515 1.397 . S
C516 C517 1.334 . S
C517 H494 0.950 . S
C517 C516 1.334 . S
C517 C518 1.287 . S
C518 C517 1.287 . S
C518 C519 1.524 . S
C518 H537 0.913 . S
C519 H495 0.950 . S
C519 C518 1.524 . S
C519 C520 1.415 . S
C520 H496 0.950 . S
C520 C515 1.363 . S
C520 C519 1.415 . S
C521 H497 0.951 1_545 S
C521 C522 1.366 . S
C521 C523 1.388 . S
C522 C521 1.366 . S
C522 C526 1.385 . S
C523 H498 0.951 . S
C523 C521 1.388 . S
C523 C524 1.366 . S
C524 C523 1.366 . S
C524 C525 1.414 . S
C524 C527 1.499 . S
C525 H499 0.950 . S
C525 C524 1.414 . S
C525 C526 1.374 . S
C526 H500 0.950 . S
C526 C522 1.385 . S
C526 C525 1.374 . S
C527 C524 1.499 . S
C527 C528 1.373 . S
C527 C529 1.389 . S
C528 H501 0.950 . S
C528 C514 1.377 . S
C528 C527 1.373 . S
C529 C513 1.377 . S
C529 C527 1.389 . S
C529 C530 1.524 . S
C530 C529 1.524 . S
C530 C531 1.397 . S
C530 C535 1.363 1_545 S
C531 H502 0.950 . S
C531 C530 1.397 . S
C531 C532 1.334 . S
C532 H503 0.950 . S
C532 C531 1.334 . S
C532 C533 1.287 1_545 S
C533 C532 1.287 1_565 S
C533 C534 1.524 . S
C533 H536 0.999 . S
C534 H504 0.950 . S
C534 C533 1.524 . S
C534 C535 1.415 . S
C535 H505 0.950 . S
C535 C530 1.363 1_565 S
C535 C534 1.415 . S
H536 C533 0.999 . S
H537 C518 0.913 . S
H538 C556 0.951 . S
H539 C558 0.951 . S
H540 C560 0.950 . S
H541 C561 0.950 . S
H542 C563 0.950 . S
H543 C566 0.950 . S
H544 C567 0.950 1_556 S
H545 C569 0.950 . S
H546 C570 0.950 . S
H547 C571 0.951 . S
H548 C573 0.951 . S
H549 C575 0.950 . S
H550 C576 0.950 . S
H551 C578 0.950 . S
H552 C581 0.950 . S
H553 C582 0.950 . S
H554 C584 0.950 . S
H555 C585 0.950 . S
C556 H538 0.951 . S
C556 C557 1.366 . S
C556 C558 1.388 . S
C557 C556 1.366 . S
C557 C561 1.385 . S
C558 H539 0.951 . S
C558 C556 1.388 . S
C558 C559 1.366 . S
C559 C558 1.366 . S
C559 C560 1.414 . S
C559 C562 1.499 . S
C560 H540 0.950 . S
C560 C559 1.414 . S
C560 C561 1.374 . S
C561 H541 0.950 . S
C561 C557 1.385 . S
C561 C560 1.374 . S
C562 C559 1.499 . S
C562 C563 1.373 . S
C562 C564 1.389 . S
C563 H542 0.950 . S
C563 C562 1.373 . S
C563 C579 1.377 . S
C564 C562 1.389 . S
C564 C565 1.524 . S
C564 C578 1.377 . S
C565 C564 1.524 . S
C565 C566 1.397 . S
C565 C570 1.363 . S
C566 H543 0.950 . S
C566 C565 1.397 . S
C566 C567 1.334 . S
C567 H544 0.950 1_554 S
C567 C566 1.334 . S
C567 C568 1.287 . S
C568 C567 1.287 . S
C568 C569 1.524 . S
C568 H587 0.913 1_554 S
C569 H545 0.950 . S
C569 C568 1.524 . S
C569 C570 1.415 . S
C570 H546 0.950 . S
C570 C565 1.363 . S
C570 C569 1.415 . S
C571 H547 0.951 . S
C571 C572 1.366 . S
C571 C573 1.388 . S
C572 C571 1.366 . S
C572 C576 1.385 . S
C573 H548 0.951 . S
C573 C571 1.388 . S
C573 C574 1.366 . S
C574 C573 1.366 . S
C574 C575 1.414 . S
C574 C577 1.499 . S
C575 H549 0.950 . S
C575 C574 1.414 . S
C575 C576 1.374 . S
C576 H550 0.950 . S
C576 C572 1.385 . S
C576 C575 1.374 . S
C577 C574 1.499 . S
C577 C578 1.373 . S
C577 C579 1.389 . S
C578 H551 0.950 . S
C578 C564 1.377 . S
C578 C577 1.373 . S
C579 C563 1.377 . S
C579 C577 1.389 . S
C579 C580 1.524 . S
C580 C579 1.524 . S
C580 C581 1.397 . S
C580 C585 1.363 . S
C581 H552 0.950 . S
C581 C580 1.397 . S
C581 C582 1.334 . S
C582 H553 0.950 . S
C582 C581 1.334 . S
C582 C583 1.287 . S
C583 C582 1.287 . S
C583 C584 1.524 . S
C583 H586 0.999 . S
C584 H554 0.950 . S
C584 C583 1.524 . S
C584 C585 1.415 . S
C585 H555 0.950 . S
C585 C580 1.363 . S
C585 C584 1.415 . S
H586 C583 0.999 . S
H587 C568 0.913 1_556 S
H588 C606 0.951 . S
H589 C608 0.951 . S
H590 C610 0.950 . S
H591 C611 0.950 . S
H592 C613 0.950 . S
H593 C616 0.950 . S
H594 C617 0.950 . S
H595 C619 0.950 . S
H596 C620 0.950 . S
H597 C621 0.951 . S
H598 C623 0.951 . S
H599 C625 0.950 . S
H600 C626 0.950 . S
H601 C628 0.950 . S
H602 C631 0.950 . S
H603 C632 0.950 . S
H604 C634 0.950 . S
H605 C635 0.950 . S
C606 H588 0.951 . S
C606 C607 1.366 . S
C606 C608 1.388 . S
C607 C606 1.366 . S
C607 C611 1.385 . S
C608 H589 0.951 . S
C608 C606 1.388 . S
C608 C609 1.366 . S
C609 C608 1.366 . S
C609 C610 1.414 . S
C609 C612 1.499 . S
C610 H590 0.950 . S
C610 C609 1.414 . S
C610 C611 1.374 . S
C611 H591 0.950 . S
C611 C607 1.385 . S
C611 C610 1.374 . S
C612 C609 1.499 . S
C612 C613 1.373 . S
C612 C614 1.389 . S
C613 H592 0.950 . S
C613 C612 1.373 . S
C613 C629 1.377 . S
C614 C612 1.389 . S
C614 C615 1.524 . S
C614 C628 1.377 . S
C615 C614 1.524 . S
C615 C616 1.397 . S
C615 C620 1.363 . S
C616 H593 0.950 . S
C616 C615 1.397 . S
C616 C617 1.334 . S
C617 H594 0.950 . S
C617 C616 1.334 . S
C617 C618 1.287 . S
C618 C617 1.287 . S
C618 C619 1.524 . S
C618 H637 0.913 . S
C619 H595 0.950 . S
C619 C618 1.524 . S
C619 C620 1.415 . S
C620 H596 0.950 . S
C620 C615 1.363 . S
C620 C619 1.415 . S
C621 H597 0.951 . S
C621 C622 1.366 . S
C621 C623 1.388 . S
C622 C621 1.366 . S
C622 C626 1.385 . S
C623 H598 0.951 . S
C623 C621 1.388 . S
C623 C624 1.366 . S
C624 C623 1.366 . S
C624 C625 1.414 . S
C624 C627 1.499 . S
C625 H599 0.950 . S
C625 C624 1.414 . S
C625 C626 1.374 . S
C626 H600 0.950 . S
C626 C622 1.385 . S
C626 C625 1.374 . S
C627 C624 1.499 . S
C627 C628 1.373 . S
C627 C629 1.389 . S
C628 H601 0.950 . S
C628 C614 1.377 . S
C628 C627 1.373 . S
C629 C613 1.377 . S
C629 C627 1.389 . S
C629 C630 1.524 . S
C630 C629 1.524 . S
C630 C631 1.397 . S
C630 C635 1.363 . S
C631 H602 0.950 . S
C631 C630 1.397 . S
C631 C632 1.334 . S
C632 H603 0.950 . S
C632 C631 1.334 . S
C632 C633 1.287 . S
C633 C632 1.287 . S
C633 C634 1.524 . S
C633 H636 0.999 . S
C634 H604 0.950 . S
C634 C633 1.524 . S
C634 C635 1.415 . S
C635 H605 0.950 . S
C635 C630 1.363 . S
C635 C634 1.415 . S
H636 C633 0.999 . S
H637 C618 0.913 . S
H638 C656 0.951 . S
H639 C658 0.951 . S
H640 C660 0.950 . S
H641 C661 0.950 . S
H642 C663 0.950 . S
H643 C666 0.950 . S
H644 C667 0.950 . S
H645 C669 0.950 . S
H646 C670 0.950 . S
H647 C671 0.951 . S
H648 C673 0.951 . S
H649 C675 0.950 . S
H650 C676 0.950 . S
H651 C678 0.950 . S
H652 C681 0.950 . S
H653 C682 0.950 . S
H654 C684 0.950 . S
H655 C685 0.950 . S
C656 H638 0.951 . S
C656 C657 1.366 . S
C656 C658 1.388 . S
C657 C656 1.366 . S
C657 C661 1.385 . S
C658 H639 0.951 . S
C658 C656 1.388 . S
C658 C659 1.366 . S
C659 C658 1.366 . S
C659 C660 1.414 . S
C659 C662 1.499 . S
C660 H640 0.950 . S
C660 C659 1.414 . S
C660 C661 1.374 . S
C661 H641 0.950 . S
C661 C657 1.385 . S
C661 C660 1.374 . S
C662 C659 1.499 . S
C662 C663 1.373 . S
C662 C664 1.389 . S
C663 H642 0.950 . S
C663 C662 1.373 . S
C663 C679 1.377 . S
C664 C662 1.389 . S
C664 C665 1.524 . S
C664 C678 1.377 . S
C665 C664 1.524 . S
C665 C666 1.397 . S
C665 C670 1.363 . S
C666 H643 0.950 . S
C666 C665 1.397 . S
C666 C667 1.334 . S
C667 H644 0.950 . S
C667 C666 1.334 . S
C667 C668 1.287 . S
C668 C667 1.287 . S
C668 C669 1.524 . S
C668 H687 0.913 . S
C669 H645 0.950 . S
C669 C668 1.524 . S
C669 C670 1.415 . S
C670 H646 0.950 . S
C670 C665 1.363 . S
C670 C669 1.415 . S
C671 H647 0.951 . S
C671 C672 1.366 . S
C671 C673 1.388 . S
C672 C671 1.366 . S
C672 C676 1.385 . S
C673 H648 0.951 . S
C673 C671 1.388 . S
C673 C674 1.366 . S
C674 C673 1.366 . S
C674 C675 1.414 . S
C674 C677 1.499 . S
C675 H649 0.950 . S
C675 C674 1.414 . S
C675 C676 1.374 . S
C676 H650 0.950 . S
C676 C672 1.385 . S
C676 C675 1.374 . S
C677 C674 1.499 . S
C677 C678 1.373 . S
C677 C679 1.389 . S
C678 H651 0.950 . S
C678 C664 1.377 . S
C678 C677 1.373 . S
C679 C663 1.377 . S
C679 C677 1.389 . S
C679 C680 1.524 . S
C680 C679 1.524 . S
C680 C681 1.397 1_455 S
C680 C685 1.363 . S
C681 H652 0.950 . S
C681 C680 1.397 1_655 S
C681 C682 1.334 . S
C682 H653 0.950 . S
C682 C681 1.334 . S
C682 C683 1.287 . S
C683 C682 1.287 . S
C683 C684 1.524 . S
C683 H686 0.999 . S
C684 H654 0.950 . S
C684 C683 1.524 . S
C684 C685 1.415 1_655 S
C685 H655 0.950 . S
C685 C680 1.363 . S
C685 C684 1.415 1_455 S
H686 C683 0.999 . S
H687 C668 0.913 . S
H688 C706 0.951 . S
H689 C708 0.951 . S
H690 C710 0.950 . S
H691 C711 0.950 . S
H692 C713 0.950 1_554 S
H693 C716 0.950 . S
H694 C717 0.950 . S
H695 C719 0.950 . S
H696 C720 0.950 . S
H697 C721 0.951 . S
H698 C723 0.951 . S
H699 C725 0.950 . S
H700 C726 0.950 . S
H701 C728 0.950 . S
H702 C731 0.950 . S
H703 C732 0.950 . S
H704 C734 0.950 . S
H705 C735 0.950 . S
C706 H688 0.951 . S
C706 C707 1.366 . S
C706 C708 1.388 1_554 S
C707 C706 1.366 . S
C707 C711 1.385 . S
C708 H689 0.951 . S
C708 C706 1.388 1_556 S
C708 C709 1.366 1_556 S
C709 C708 1.366 1_554 S
C709 C710 1.414 . S
C709 C712 1.499 1_554 S
C710 H690 0.950 . S
C710 C709 1.414 . S
C710 C711 1.374 . S
C711 H691 0.950 . S
C711 C707 1.385 . S
C711 C710 1.374 . S
C712 C709 1.499 1_556 S
C712 C713 1.373 . S
C712 C714 1.389 . S
C713 H692 0.950 1_556 S
C713 C712 1.373 . S
C713 C729 1.377 . S
C714 C712 1.389 . S
C714 C715 1.524 . S
C714 C728 1.377 . S
C715 C714 1.524 . S
C715 C716 1.397 . S
C715 C720 1.363 . S
C716 H693 0.950 . S
C716 C715 1.397 . S
C716 C717 1.334 . S
C717 H694 0.950 . S
C717 C716 1.334 . S
C717 C718 1.287 . S
C718 C717 1.287 . S
C718 C719 1.524 . S
C718 H737 0.913 . S
C719 H695 0.950 . S
C719 C718 1.524 . S
C719 C720 1.415 . S
C720 H696 0.950 . S
C720 C715 1.363 . S
C720 C719 1.415 . S
C721 H697 0.951 . S
C721 C722 1.366 . S
C721 C723 1.388 . S
C722 C721 1.366 . S
C722 C726 1.385 . S
C723 H698 0.951 . S
C723 C721 1.388 . S
C723 C724 1.366 . S
C724 C723 1.366 . S
C724 C725 1.414 . S
C724 C727 1.499 . S
C725 H699 0.950 . S
C725 C724 1.414 . S
C725 C726 1.374 . S
C726 H700 0.950 . S
C726 C722 1.385 . S
C726 C725 1.374 . S
C727 C724 1.499 . S
C727 C728 1.373 . S
C727 C729 1.389 . S
C728 H701 0.950 . S
C728 C714 1.377 . S
C728 C727 1.373 . S
C729 C713 1.377 . S
C729 C727 1.389 . S
C729 C730 1.524 1_565 S
C730 C729 1.524 1_545 S
C730 C731 1.397 . S
C730 C735 1.363 1_556 S
C731 H702 0.950 . S
C731 C730 1.397 . S
C731 C732 1.334 . S
C732 H703 0.950 . S
C732 C731 1.334 . S
C732 C733 1.287 . S
C733 C732 1.287 . S
C733 C734 1.524 1_556 S
C733 H736 0.999 . S
C734 H704 0.950 . S
C734 C733 1.524 1_554 S
C734 C735 1.415 . S
C735 H705 0.950 . S
C735 C730 1.363 1_554 S
C735 C734 1.415 . S
H736 C733 0.999 . S
H737 C718 0.913 . S
H738 C756 0.951 . S
H739 C758 0.951 . S
H740 C760 0.950 . S
H741 C761 0.950 . S
H742 C763 0.950 1_554 S
H743 C766 0.950 . S
H744 C767 0.950 . S
H745 C769 0.950 . S
H746 C770 0.950 . S
H747 C771 0.951 . S
H748 C773 0.951 . S
H749 C775 0.950 . S
H750 C776 0.950 . S
H751 C778 0.950 . S
H752 C781 0.950 . S
H753 C782 0.950 . S
H754 C784 0.950 . S
H755 C785 0.950 . S
C756 H738 0.951 . S
C756 C757 1.366 . S
C756 C758 1.388 . S
C757 C756 1.366 . S
C757 C761 1.385 . S
C758 H739 0.951 . S
C758 C756 1.388 . S
C758 C759 1.366 . S
C759 C758 1.366 . S
C759 C760 1.414 . S
C759 C762 1.499 1_554 S
C760 H740 0.950 . S
C760 C759 1.414 . S
C760 C761 1.374 . S
C761 H741 0.950 . S
C761 C757 1.385 . S
C761 C760 1.374 . S
C762 C759 1.499 1_556 S
C762 C763 1.373 . S
C762 C764 1.389 . S
C763 H742 0.950 1_556 S
C763 C762 1.373 . S
C763 C779 1.377 . S
C764 C762 1.389 . S
C764 C765 1.524 . S
C764 C778 1.377 . S
C765 C764 1.524 . S
C765 C766 1.397 . S
C765 C770 1.363 . S
C766 H743 0.950 . S
C766 C765 1.397 . S
C766 C767 1.334 . S
C767 H744 0.950 . S
C767 C766 1.334 . S
C767 C768 1.287 . S
C768 C767 1.287 . S
C768 C769 1.524 . S
C768 H787 0.913 . S
C769 H745 0.950 . S
C769 C768 1.524 . S
C769 C770 1.415 . S
C770 H746 0.950 . S
C770 C765 1.363 . S
C770 C769 1.415 . S
C771 H747 0.951 . S
C771 C772 1.366 . S
C771 C773 1.388 . S
C772 C771 1.366 . S
C772 C776 1.385 . S
C773 H748 0.951 . S
C773 C771 1.388 . S
C773 C774 1.366 . S
C774 C773 1.366 . S
C774 C775 1.414 . S
C774 C777 1.499 . S
C775 H749 0.950 . S
C775 C774 1.414 . S
C775 C776 1.374 . S
C776 H750 0.950 . S
C776 C772 1.385 . S
C776 C775 1.374 . S
C777 C774 1.499 . S
C777 C778 1.373 . S
C777 C779 1.389 . S
C778 H751 0.950 . S
C778 C764 1.377 . S
C778 C777 1.373 . S
C779 C763 1.377 . S
C779 C777 1.389 . S
C779 C780 1.524 . S
C780 C779 1.524 . S
C780 C781 1.397 . S
C780 C785 1.363 . S
C781 H752 0.950 . S
C781 C780 1.397 . S
C781 C782 1.334 . S
C782 H753 0.950 . S
C782 C781 1.334 . S
C782 C783 1.287 1_556 S
C783 C782 1.287 1_554 S
C783 C784 1.524 . S
C783 H786 0.999 . S
C784 H754 0.950 . S
C784 C783 1.524 . S
C784 C785 1.415 1_554 S
C785 H755 0.950 . S
C785 C780 1.363 . S
C785 C784 1.415 1_556 S
H786 C783 0.999 . S
H787 C768 0.913 . S
H788 C806 0.951 . S
H789 C808 0.951 . S
H790 C810 0.950 . S
H791 C811 0.950 . S
H792 C813 0.950 . S
H793 C816 0.950 1_554 S
H794 C817 0.950 1_554 S
H795 C819 0.950 . S
H796 C820 0.950 . S
H797 C821 0.951 . S
H798 C823 0.951 . S
H799 C825 0.950 . S
H800 C826 0.950 . S
H801 C828 0.950 . S
H802 C831 0.950 . S
H803 C832 0.950 . S
H804 C834 0.950 1_554 S
H805 C835 0.950 1_554 S
C806 H788 0.951 . S
C806 C807 1.366 . S
C806 C808 1.388 1_554 S
C807 C806 1.366 . S
C807 C811 1.385 . S
C808 H789 0.951 . S
C808 C806 1.388 1_556 S
C808 C809 1.366 1_556 S
C809 C808 1.366 1_554 S
C809 C810 1.414 . S
C809 C812 1.499 1_554 S
C810 H790 0.950 . S
C810 C809 1.414 . S
C810 C811 1.374 . S
C811 H791 0.950 . S
C811 C807 1.385 . S
C811 C810 1.374 . S
C812 C809 1.499 1_556 S
C812 C813 1.373 . S
C812 C814 1.389 . S
C813 H792 0.950 . S
C813 C812 1.373 . S
C813 C829 1.377 . S
C814 C812 1.389 . S
C814 C815 1.524 . S
C814 C828 1.377 . S
C815 C814 1.524 . S
C815 C816 1.397 . S
C815 C820 1.363 . S
C816 H793 0.950 1_556 S
C816 C815 1.397 . S
C816 C817 1.334 . S
C817 H794 0.950 1_556 S
C817 C816 1.334 . S
C817 C818 1.287 . S
C818 C817 1.287 . S
C818 C819 1.524 . S
C818 H837 0.913 . S
C819 H795 0.950 . S
C819 C818 1.524 . S
C819 C820 1.415 . S
C820 H796 0.950 . S
C820 C815 1.363 . S
C820 C819 1.415 . S
C821 H797 0.951 . S
C821 C822 1.366 . S
C821 C823 1.388 . S
C822 C821 1.366 . S
C822 C826 1.385 . S
C823 H798 0.951 . S
C823 C821 1.388 . S
C823 C824 1.366 . S
C824 C823 1.366 . S
C824 C825 1.414 . S
C824 C827 1.499 . S
C825 H799 0.950 . S
C825 C824 1.414 . S
C825 C826 1.374 . S
C826 H800 0.950 . S
C826 C822 1.385 . S
C826 C825 1.374 . S
C827 C824 1.499 . S
C827 C828 1.373 . S
C827 C829 1.389 . S
C828 H801 0.950 . S
C828 C814 1.377 . S
C828 C827 1.373 . S
C829 C813 1.377 . S
C829 C827 1.389 . S
C829 C830 1.524 . S
C830 C829 1.524 . S
C830 C831 1.397 . S
C830 C835 1.363 . S
C831 H802 0.950 . S
C831 C830 1.397 . S
C831 C832 1.334 . S
C832 H803 0.950 . S
C832 C831 1.334 . S
C832 C833 1.287 . S
C833 C832 1.287 . S
C833 C834 1.524 . S
C833 H836 0.999 . S
C834 H804 0.950 1_556 S
C834 C833 1.524 . S
C834 C835 1.415 . S
C835 H805 0.950 1_556 S
C835 C830 1.363 . S
C835 C834 1.415 . S
H836 C833 0.999 . S
H837 C818 0.913 . S
H838 C856 0.951 . S
H839 C858 0.951 1_556 S
H840 C860 0.950 . S
H841 C861 0.950 . S
H842 C863 0.950 . S
H843 C866 0.950 . S
H844 C867 0.950 . S
H845 C869 0.950 . S
H846 C870 0.950 . S
H847 C871 0.951 . S
H848 C873 0.977 . S
H849 C875 0.950 . S
H850 C876 0.950 . S
H851 C878 0.950 . S
H852 C881 1.004 . S
H853 C882 0.950 . S
H854 C884 0.950 . S
H855 C885 0.950 . S
C856 H838 0.951 . S
C856 C857 1.366 . S
C856 C858 1.388 . S
C857 C856 1.366 . S
C857 C861 1.385 . S
C858 H839 0.951 1_554 S
C858 C856 1.388 . S
C858 C859 1.366 . S
C859 C858 1.366 . S
C859 C860 1.414 . S
C859 C862 1.499 1_554 S
C860 H840 0.950 . S
C860 C859 1.414 . S
C860 C861 1.374 . S
C861 H841 0.950 . S
C861 C857 1.385 . S
C861 C860 1.374 . S
C862 C859 1.499 1_556 S
C862 C863 1.373 . S
C862 C864 1.389 . S
C863 H842 0.950 . S
C863 C862 1.373 . S
C863 C879 1.377 . S
C864 C862 1.389 . S
C864 C865 1.524 1_556 S
C864 C878 1.377 . S
C865 C864 1.524 1_554 S
C865 C866 1.397 . S
C865 C870 1.363 1_554 S
C866 H843 0.950 . S
C866 C865 1.397 . S
C866 C867 1.334 . S
C867 H844 0.950 . S
C867 C866 1.334 . S
C867 C868 1.287 . S
C868 C867 1.287 . S
C868 C869 1.524 . S
C868 H887 0.913 . S
C869 H845 0.950 . S
C869 C868 1.524 . S
C869 C870 1.415 1_554 S
C870 H846 0.950 . S
C870 C865 1.363 1_556 S
C870 C869 1.415 1_556 S
C871 H847 0.951 . S
C871 C872 1.366 1_455 S
C871 C873 1.396 . S
C872 C871 1.366 1_655 S
C872 C876 1.385 . S
C873 H848 0.977 . S
C873 C871 1.396 . S
C873 C874 1.332 1_455 S
C874 C873 1.332 1_655 S
C874 C875 1.414 . S
C874 C877 1.499 . S
C875 H849 0.950 . S
C875 C874 1.414 . S
C875 C876 1.374 . S
C876 H850 0.950 . S
C876 C872 1.385 . S
C876 C875 1.374 . S
C877 C874 1.499 . S
C877 C878 1.373 . S
C877 C879 1.389 . S
C878 H851 0.950 . S
C878 C864 1.377 . S
C878 C877 1.373 . S
C879 C863 1.377 . S
C879 C877 1.389 . S
C879 C880 1.524 1_655 S
C880 C879 1.524 1_455 S
C880 C881 1.384 1_455 S
C880 C885 1.363 . S
C881 H852 1.004 . S
C881 C880 1.384 1_655 S
C881 C882 1.295 1_655 S
C882 H853 0.950 . S
C882 C881 1.295 1_455 S
C882 C883 1.287 . S
C883 C882 1.287 . S
C883 C884 1.524 . S
C883 H886 0.999 . S
C884 H854 0.950 . S
C884 C883 1.524 . S
C884 C885 1.415 . S
C885 H855 0.950 . S
C885 C880 1.363 . S
C885 C884 1.415 . S
H886 C883 0.999 . S
H887 C868 0.913 . S
H888 C906 0.951 . S
H889 C908 0.951 . S
H890 C910 0.950 . S
H891 C911 0.950 1_556 S
H892 C913 0.950 . S
H893 C916 0.950 . S
H894 C917 0.950 . S
H895 C919 0.950 . S
H896 C920 0.950 . S
H897 C921 0.951 . S
H898 C923 0.951 . S
H899 C925 0.950 . S
H900 C926 0.950 . S
H901 C928 0.950 . S
H902 C931 0.950 . S
H903 C932 0.950 . S
H904 C934 0.950 1_556 S
H905 C935 0.950 . S
C906 H888 0.951 . S
C906 C907 1.366 . S
C906 C908 1.388 . S
C907 C906 1.366 . S
C907 C911 1.385 . S
C908 H889 0.951 . S
C908 C906 1.388 . S
C908 C909 1.366 . S
C909 C908 1.366 . S
C909 C910 1.414 . S
C909 C912 1.499 . S
C910 H890 0.950 . S
C910 C909 1.414 . S
C910 C911 1.374 . S
C911 H891 0.950 1_554 S
C911 C907 1.385 . S
C911 C910 1.374 . S
C912 C909 1.499 . S
C912 C913 1.373 . S
C912 C914 1.389 . S
C913 H892 0.950 . S
C913 C912 1.373 . S
C913 C929 1.377 . S
C914 C912 1.389 . S
C914 C915 1.524 . S
C914 C928 1.377 . S
C915 C914 1.524 . S
C915 C916 1.397 . S
C915 C920 1.363 . S
C916 H893 0.950 . S
C916 C915 1.397 . S
C916 C917 1.334 . S
C917 H894 0.950 . S
C917 C916 1.334 . S
C917 C918 1.287 . S
C918 C917 1.287 . S
C918 C919 1.524 . S
C918 H937 0.913 . S
C919 H895 0.950 . S
C919 C918 1.524 . S
C919 C920 1.415 . S
C920 H896 0.950 . S
C920 C915 1.363 . S
C920 C919 1.415 . S
C921 H897 0.951 . S
C921 C922 1.366 . S
C921 C923 1.388 . S
C922 C921 1.366 . S
C922 C926 1.385 . S
C923 H898 0.951 . S
C923 C921 1.388 . S
C923 C924 1.366 . S
C924 C923 1.366 . S
C924 C925 1.414 . S
C924 C927 1.499 . S
C925 H899 0.950 . S
C925 C924 1.414 . S
C925 C926 1.374 . S
C926 H900 0.950 . S
C926 C922 1.385 . S
C926 C925 1.374 . S
C927 C924 1.499 . S
C927 C928 1.373 . S
C927 C929 1.389 . S
C928 H901 0.950 . S
C928 C914 1.377 . S
C928 C927 1.373 . S
C929 C913 1.377 . S
C929 C927 1.389 . S
C929 C930 1.524 . S
C930 C929 1.524 . S
C930 C931 1.397 1_455 S
C930 C935 1.363 . S
C931 H902 0.950 . S
C931 C930 1.397 1_655 S
C931 C932 1.334 . S
C932 H903 0.950 . S
C932 C931 1.334 . S
C932 C933 1.287 . S
C933 C932 1.287 . S
C933 C934 1.524 . S
C933 H936 0.999 . S
C934 H904 0.950 1_554 S
C934 C933 1.524 . S
C934 C935 1.415 1_655 S
C935 H905 0.950 . S
C935 C930 1.363 . S
C935 C934 1.415 1_455 S
H936 C933 0.999 . S
H937 C918 0.913 . S
H938 C956 0.951 1_556 S
H939 C958 0.951 . S
H940 C960 0.950 . S
H941 C961 0.950 . S
H942 C963 0.950 . S
H943 C966 0.950 . S
H944 C967 0.950 1_565 S
H945 C969 0.950 . S
H946 C970 0.950 . S
H947 C971 0.951 . S
H948 C973 0.951 . S
H949 C975 0.950 . S
H950 C976 0.950 . S
H951 C978 0.950 . S
H952 C981 0.950 . S
H953 C982 0.950 . S
H954 C984 0.950 . S
H955 C985 0.950 . S
C956 H938 0.951 1_554 S
C956 C957 1.366 . S
C956 C958 1.388 . S
C957 C956 1.366 . S
C957 C961 1.385 . S
C958 H939 0.951 . S
C958 C956 1.388 . S
C958 C959 1.366 . S
C959 C958 1.366 . S
C959 C960 1.414 . S
C959 C962 1.499 . S
C960 H940 0.950 . S
C960 C959 1.414 . S
C960 C961 1.374 . S
C961 H941 0.950 . S
C961 C957 1.385 . S
C961 C960 1.374 . S
C962 C959 1.499 . S
C962 C963 1.373 . S
C962 C964 1.389 . S
C963 H942 0.950 . S
C963 C962 1.373 . S
C963 C979 1.377 . S
C964 C962 1.389 . S
C964 C965 1.524 . S
C964 C978 1.377 . S
C965 C964 1.524 . S
C965 C966 1.397 . S
C965 C970 1.363 . S
C966 H943 0.950 . S
C966 C965 1.397 . S
C966 C967 1.334 1_554 S
C967 H944 0.950 1_545 S
C967 C966 1.334 1_556 S
C967 C968 1.287 . S
C968 C967 1.287 . S
C968 C969 1.524 . S
C968 H987 0.913 1_545 S
C969 H945 0.950 . S
C969 C968 1.524 . S
C969 C970 1.415 1_556 S
C970 H946 0.950 . S
C970 C965 1.363 . S
C970 C969 1.415 1_554 S
C971 H947 0.951 . S
C971 C972 1.366 . S
C971 C973 1.388 . S
C972 C971 1.366 . S
C972 C976 1.385 . S
C973 H948 0.951 . S
C973 C971 1.388 . S
C973 C974 1.366 . S
C974 C973 1.366 . S
C974 C975 1.414 . S
C974 C977 1.499 . S
C975 H949 0.950 . S
C975 C974 1.414 . S
C975 C976 1.374 . S
C976 H950 0.950 . S
C976 C972 1.385 . S
C976 C975 1.374 . S
C977 C974 1.499 . S
C977 C978 1.373 . S
C977 C979 1.389 . S
C978 H951 0.950 . S
C978 C964 1.377 . S
C978 C977 1.373 . S
C979 C963 1.377 . S
C979 C977 1.389 . S
C979 C980 1.524 . S
C980 C979 1.524 . S
C980 C981 1.397 . S
C980 C985 1.363 . S
C981 H952 0.950 . S
C981 C980 1.397 . S
C981 C982 1.334 . S
C982 H953 0.950 . S
C982 C981 1.334 . S
C982 C983 1.287 . S
C983 C982 1.287 . S
C983 C984 1.524 . S
C983 H986 0.999 . S
C984 H954 0.950 . S
C984 C983 1.524 . S
C984 C985 1.415 . S
C985 H955 0.950 . S
C985 C980 1.363 . S
C985 C984 1.415 . S
H986 C983 0.999 . S
H987 C968 0.913 1_565 S
H988 C1006 0.951 1_556 S
H989 C1008 0.951 . S
H990 C1010 0.950 . S
H991 C1011 0.950 . S
H992 C1013 0.950 . S
H993 C1016 0.950 . S
H994 C1017 0.950 . S
H995 C1019 0.950 . S
H996 C1020 0.950 . S
H997 C1021 0.951 . S
H998 C1023 0.951 . S
H999 C1025 0.950 . S
H1000 C1026 0.950 . S
H1001 C1028 0.950 . S
H1002 C1031 0.950 . S
H1003 C1032 0.950 . S
H1004 C1034 0.950 . S
H1005 C1035 0.950 . S
C1006 H988 0.951 1_554 S
C1006 C1007 1.366 . S
C1006 C1008 1.388 . S
C1007 C1006 1.366 . S
C1007 C1011 1.385 . S
C1008 H989 0.951 . S
C1008 C1006 1.388 . S
C1008 C1009 1.366 . S
C1009 C1008 1.366 . S
C1009 C1010 1.414 . S
C1009 C1012 1.499 . S
C1010 H990 0.950 . S
C1010 C1009 1.414 . S
C1010 C1011 1.374 . S
C1011 H991 0.950 . S
C1011 C1007 1.385 . S
C1011 C1010 1.374 . S
C1012 C1009 1.499 . S
C1012 C1013 1.373 . S
C1012 C1014 1.389 . S
C1013 H992 0.950 . S
C1013 C1012 1.373 . S
C1013 C1029 1.377 . S
C1014 C1012 1.389 . S
C1014 C1015 1.524 . S
C1014 C1028 1.377 . S
C1015 C1014 1.524 . S
C1015 C1016 1.397 . S
C1015 C1020 1.363 . S
C1016 H993 0.950 . S
C1016 C1015 1.397 . S
C1016 C1017 1.334 . S
C1017 H994 0.950 . S
C1017 C1016 1.334 . S
C1017 C1018 1.287 1_554 S
C1018 C1017 1.287 1_556 S
C1018 C1019 1.524 . S
C1018 H1037 0.913 . S
C1019 H995 0.950 . S
C1019 C1018 1.524 . S
C1019 C1020 1.415 1_556 S
C1020 H996 0.950 . S
C1020 C1015 1.363 . S
C1020 C1019 1.415 1_554 S
C1021 H997 0.951 . S
C1021 C1022 1.366 . S
C1021 C1023 1.388 . S
C1022 C1021 1.366 . S
C1022 C1026 1.385 . S
C1023 H998 0.951 . S
C1023 C1021 1.388 . S
C1023 C1024 1.366 . S
C1024 C1023 1.366 . S
C1024 C1025 1.414 . S
C1024 C1027 1.499 . S
C1025 H999 0.950 . S
C1025 C1024 1.414 . S
C1025 C1026 1.374 . S
C1026 H1000 0.950 . S
C1026 C1022 1.385 . S
C1026 C1025 1.374 . S
C1027 C1024 1.499 . S
C1027 C1028 1.373 . S
C1027 C1029 1.389 . S
C1028 H1001 0.950 . S
C1028 C1014 1.377 . S
C1028 C1027 1.373 . S
C1029 C1013 1.377 . S
C1029 C1027 1.389 . S
C1029 C1030 1.524 . S
C1030 C1029 1.524 . S
C1030 C1031 1.397 . S
C1030 C1035 1.363 . S
C1031 H1002 0.950 . S
C1031 C1030 1.397 . S
C1031 C1032 1.334 . S
C1032 H1003 0.950 . S
C1032 C1031 1.334 . S
C1032 C1033 1.287 . S
C1033 C1032 1.287 . S
C1033 C1034 1.524 . S
C1033 H1036 0.999 . S
C1034 H1004 0.950 . S
C1034 C1033 1.524 . S
C1034 C1035 1.415 . S
C1035 H1005 0.950 . S
C1035 C1030 1.363 . S
C1035 C1034 1.415 . S
H1036 C1033 0.999 . S
H1037 C1018 0.913 . S
H1038 C1056 0.948 1_556 S
H1039 C1058 0.951 . S
H1040 C1060 0.950 . S
H1041 C1061 0.950 . S
H1042 C1063 0.950 . S
H1043 C1066 0.950 . S
H1044 C1067 0.950 . S
H1045 C1069 0.950 . S
H1046 C1070 0.950 . S
H1047 C1071 0.951 . S
H1048 C1073 0.951 . S
H1049 C1075 0.950 . S
H1050 C1076 0.950 . S
H1051 C1078 0.950 . S
H1052 C1081 0.950 . S
H1053 C1082 0.950 . S
H1054 C1084 0.950 . S
H1055 C1085 0.950 . S
C1056 H1038 0.948 1_554 S
C1056 C1057 1.366 . S
C1056 C1058 1.388 . S
C1057 C1056 1.366 . S
C1057 C1061 1.385 . S
C1058 H1039 0.951 . S
C1058 C1056 1.388 . S
C1058 C1059 1.366 . S
C1059 C1058 1.366 . S
C1059 C1060 1.414 . S
C1059 C1062 1.499 . S
C1060 H1040 0.950 . S
C1060 C1059 1.414 . S
C1060 C1061 1.374 . S
C1061 H1041 0.950 . S
C1061 C1057 1.385 . S
C1061 C1060 1.374 . S
C1062 C1059 1.499 . S
C1062 C1063 1.373 . S
C1062 C1064 1.389 . S
C1063 H1042 0.950 . S
C1063 C1062 1.373 . S
C1063 C1079 1.377 . S
C1064 C1062 1.389 . S
C1064 C1065 1.524 . S
C1064 C1078 1.377 . S
C1065 C1064 1.524 . S
C1065 C1066 1.397 . S
C1065 C1070 1.363 . S
C1066 H1043 0.950 . S
C1066 C1065 1.397 . S
C1066 C1067 1.334 . S
C1067 H1044 0.950 . S
C1067 C1066 1.334 . S
C1067 C1068 1.287 . S
C1068 C1067 1.287 . S
C1068 C1069 1.524 . S
C1068 H1087 0.913 . S
C1069 H1045 0.950 . S
C1069 C1068 1.524 . S
C1069 C1070 1.415 . S
C1070 H1046 0.950 . S
C1070 C1065 1.363 . S
C1070 C1069 1.415 . S
C1071 H1047 0.951 . S
C1071 C1072 1.366 . S
C1071 C1073 1.388 . S
C1072 C1071 1.366 . S
C1072 C1076 1.385 . S
C1073 H1048 0.951 . S
C1073 C1071 1.388 . S
C1073 C1074 1.366 . S
C1074 C1073 1.366 . S
C1074 C1075 1.414 . S
C1074 C1077 1.499 . S
C1075 H1049 0.950 . S
C1075 C1074 1.414 . S
C1075 C1076 1.374 . S
C1076 H1050 0.950 . S
C1076 C1072 1.385 . S
C1076 C1075 1.374 . S
C1077 C1074 1.499 . S
C1077 C1078 1.373 . S
C1077 C1079 1.389 . S
C1078 H1051 0.950 . S
C1078 C1064 1.377 . S
C1078 C1077 1.373 . S
C1079 C1063 1.377 . S
C1079 C1077 1.389 . S
C1079 C1080 1.524 . S
C1080 C1079 1.524 . S
C1080 C1081 1.397 . S
C1080 C1085 1.363 . S
C1081 H1052 0.950 . S
C1081 C1080 1.397 . S
C1081 C1082 1.334 . S
C1082 H1053 0.950 . S
C1082 C1081 1.334 . S
C1082 C1083 1.287 . S
C1083 C1082 1.287 . S
C1083 C1084 1.524 . S
C1083 H1086 0.999 . S
C1084 H1054 0.950 . S
C1084 C1083 1.524 . S
C1084 C1085 1.415 . S
C1085 H1055 0.950 . S
C1085 C1080 1.363 . S
C1085 C1084 1.415 . S
H1086 C1083 0.999 . S
H1087 C1068 0.913 . S
H1088 C1106 0.951 . S
H1089 C1108 0.951 . S
H1090 C1110 0.950 . S
H1091 C1111 0.950 . S
H1092 C1113 0.950 . S
H1093 C1116 0.950 . S
H1094 C1117 0.950 . S
H1095 C1119 0.950 . S
H1096 C1120 0.950 . S
H1097 C1121 0.951 . S
H1098 C1123 0.951 . S
H1099 C1125 0.950 . S
H1100 C1126 0.950 . S
H1101 C1128 0.950 . S
H1102 C1131 0.950 . S
H1103 C1132 0.950 . S
H1104 C1134 0.950 . S
H1105 C1135 0.950 . S
C1106 H1088 0.951 . S
C1106 C1107 1.366 . S
C1106 C1108 1.388 . S
C1107 C1106 1.366 . S
C1107 C1111 1.385 . S
C1108 H1089 0.951 . S
C1108 C1106 1.388 . S
C1108 C1109 1.366 . S
C1109 C1108 1.366 . S
C1109 C1110 1.414 . S
C1109 C1112 1.499 . S
C1110 H1090 0.950 . S
C1110 C1109 1.414 . S
C1110 C1111 1.374 . S
C1111 H1091 0.950 . S
C1111 C1107 1.385 . S
C1111 C1110 1.374 . S
C1112 C1109 1.499 . S
C1112 C1113 1.373 . S
C1112 C1114 1.389 1_554 S
C1113 H1092 0.950 . S
C1113 C1112 1.373 . S
C1113 C1129 1.377 . S
C1114 C1112 1.389 1_556 S
C1114 C1115 1.524 . S
C1114 C1128 1.377 . S
C1115 C1114 1.524 . S
C1115 C1116 1.397 . S
C1115 C1120 1.363 . S
C1116 H1093 0.950 . S
C1116 C1115 1.397 . S
C1116 C1117 1.334 . S
C1117 H1094 0.950 . S
C1117 C1116 1.334 . S
C1117 C1118 1.287 . S
C1118 C1117 1.287 . S
C1118 C1119 1.524 . S
C1118 H1137 0.913 . S
C1119 H1095 0.950 . S
C1119 C1118 1.524 . S
C1119 C1120 1.415 . S
C1120 H1096 0.950 . S
C1120 C1115 1.363 . S
C1120 C1119 1.415 . S
C1121 H1097 0.951 . S
C1121 C1122 1.366 . S
C1121 C1123 1.388 . S
C1122 C1121 1.366 . S
C1122 C1126 1.385 1_455 S
C1123 H1098 0.951 . S
C1123 C1121 1.388 . S
C1123 C1124 1.366 1_455 S
C1124 C1123 1.366 1_655 S
C1124 C1125 1.414 . S
C1124 C1127 1.499 . S
C1125 H1099 0.950 . S
C1125 C1124 1.414 . S
C1125 C1126 1.374 . S
C1126 H1100 0.950 . S
C1126 C1122 1.385 1_655 S
C1126 C1125 1.374 . S
C1127 C1124 1.499 . S
C1127 C1128 1.373 . S
C1127 C1129 1.389 1_556 S
C1128 H1101 0.950 . S
C1128 C1114 1.377 . S
C1128 C1127 1.373 . S
C1129 C1113 1.377 . S
C1129 C1127 1.389 1_554 S
C1129 C1130 1.524 1_655 S
C1130 C1129 1.524 1_455 S
C1130 C1131 1.397 1_455 S
C1130 C1135 1.363 . S
C1131 H1102 0.950 . S
C1131 C1130 1.397 1_655 S
C1131 C1132 1.334 1_655 S
C1132 H1103 0.950 . S
C1132 C1131 1.334 1_455 S
C1132 C1133 1.287 . S
C1133 C1132 1.287 . S
C1133 C1134 1.524 . S
C1133 H1136 0.999 . S
C1134 H1104 0.950 . S
C1134 C1133 1.524 . S
C1134 C1135 1.415 . S
C1135 H1105 0.950 . S
C1135 C1130 1.363 . S
C1135 C1134 1.415 . S
H1136 C1133 0.999 . S
H1137 C1118 0.913 . S
H1138 C1156 0.951 . S
H1139 C1158 0.951 . S
H1140 C1160 0.950 . S
H1141 C1161 0.950 . S
H1142 C1163 0.950 1_545 S
H1143 C1166 0.950 . S
H1144 C1167 0.950 . S
H1145 C1169 0.950 1_554 S
H1146 C1170 0.950 . S
H1147 C1171 0.951 . S
H1148 C1173 0.951 . S
H1149 C1175 0.950 . S
H1150 C1176 0.950 . S
H1151 C1178 0.950 . S
H1152 C1181 0.950 . S
H1153 C1182 0.950 . S
H1154 C1184 0.952 . S
H1155 C1185 0.950 1_556 S
C1156 H1138 0.951 . S
C1156 C1157 1.366 . S
C1156 C1158 1.388 . S
C1157 C1156 1.366 . S
C1157 C1161 1.385 . S
C1158 H1139 0.951 . S
C1158 C1156 1.388 . S
C1158 C1159 1.366 . S
C1159 C1158 1.366 . S
C1159 C1160 1.414 . S
C1159 C1162 1.499 . S
C1160 H1140 0.950 . S
C1160 C1159 1.414 . S
C1160 C1161 1.374 . S
C1161 H1141 0.950 . S
C1161 C1157 1.385 . S
C1161 C1160 1.374 . S
C1162 C1159 1.499 . S
C1162 C1163 1.373 . S
C1162 C1164 1.394 . S
C1163 H1142 0.950 1_565 S
C1163 C1162 1.373 . S
C1163 C1179 1.368 1_565 S
C1164 C1162 1.394 . S
C1164 C1165 1.523 1_554 S
C1164 C1178 1.373 1_554 S
C1165 C1164 1.523 1_556 S
C1165 C1166 1.397 . S
C1165 C1170 1.363 1_556 S
C1166 H1143 0.950 . S
C1166 C1165 1.397 . S
C1166 C1167 1.334 . S
C1167 H1144 0.950 . S
C1167 C1166 1.334 . S
C1167 C1168 1.287 . S
C1168 C1167 1.287 . S
C1168 C1169 1.524 . S
C1168 H1187 0.913 . S
C1169 H1145 0.950 1_556 S
C1169 C1168 1.524 . S
C1169 C1170 1.415 1_556 S
C1170 H1146 0.950 . S
C1170 C1165 1.363 1_554 S
C1170 C1169 1.415 1_554 S
C1171 H1147 0.951 . S
C1171 C1172 1.366 . S
C1171 C1173 1.388 . S
C1172 C1171 1.366 . S
C1172 C1176 1.385 1_545 S
C1173 H1148 0.951 . S
C1173 C1171 1.388 . S
C1173 C1174 1.366 1_545 S
C1174 C1173 1.366 1_565 S
C1174 C1175 1.414 . S
C1174 C1177 1.499 . S
C1175 H1149 0.950 . S
C1175 C1174 1.414 . S
C1175 C1176 1.374 . S
C1176 H1150 0.950 . S
C1176 C1172 1.385 1_565 S
C1176 C1175 1.374 . S
C1177 C1174 1.499 . S
C1177 C1178 1.373 . S
C1177 C1179 1.372 1_566 S
C1178 H1151 0.950 . S
C1178 C1164 1.373 1_556 S
C1178 C1177 1.373 . S
C1179 C1163 1.368 1_545 S
C1179 C1177 1.372 1_544 S
C1179 C1180 1.551 . S
C1180 C1179 1.551 . S
C1180 C1181 1.397 . S
C1180 C1185 1.363 . S
C1181 H1152 0.950 . S
C1181 C1180 1.397 . S
C1181 C1182 1.334 . S
C1182 H1153 0.950 . S
C1182 C1181 1.334 . S
C1182 C1183 1.287 . S
C1183 C1182 1.287 . S
C1183 C1184 1.524 . S
C1183 H1186 0.999 . S
C1184 H1154 0.952 . S
C1184 C1183 1.524 . S
C1184 C1185 1.415 . S
C1185 H1155 0.950 1_554 S
C1185 C1180 1.363 . S
C1185 C1184 1.415 . S
H1186 C1183 0.999 . S
H1187 C1168 0.913 . S
H1188 C1206 0.951 . S
H1189 C1208 0.951 1_556 S
H1190 C1210 0.950 . S
H1191 C1211 0.950 . S
H1192 C1213 0.950 . S
H1193 C1216 0.950 1_554 S
H1194 C1217 0.950 . S
H1195 C1219 0.950 . S
H1196 C1220 0.950 . S
H1197 C1221 0.951 . S
H1198 C1223 0.951 1_554 S
H1199 C1225 0.950 . S
H1200 C1226 0.950 . S
H1201 C1228 0.950 . S
H1202 C1231 0.950 1_556 S
H1203 C1232 0.950 . S
H1204 C1234 0.950 . S
H1205 C1235 0.950 . S
C1206 H1188 0.951 . S
C1206 C1207 1.366 . S
C1206 C1208 1.388 . S
C1207 C1206 1.366 . S
C1207 C1211 1.385 . S
C1208 H1189 0.951 1_554 S
C1208 C1206 1.388 . S
C1208 C1209 1.366 . S
C1209 C1208 1.366 . S
C1209 C1210 1.414 . S
C1209 C1212 1.499 . S
C1210 H1190 0.950 . S
C1210 C1209 1.414 . S
C1210 C1211 1.374 . S
C1211 H1191 0.950 . S
C1211 C1207 1.385 . S
C1211 C1210 1.374 . S
C1212 C1209 1.499 . S
C1212 C1213 1.373 . S
C1212 C1214 1.389 1_554 S
C1213 H1192 0.950 . S
C1213 C1212 1.373 . S
C1213 C1229 1.377 . S
C1214 C1212 1.389 1_556 S
C1214 C1215 1.524 . S
C1214 C1228 1.377 . S
C1215 C1214 1.524 . S
C1215 C1216 1.397 . S
C1215 C1220 1.363 . S
C1216 H1193 0.950 1_556 S
C1216 C1215 1.397 . S
C1216 C1217 1.334 . S
C1217 H1194 0.950 . S
C1217 C1216 1.334 . S
C1217 C1218 1.287 . S
C1218 C1217 1.287 . S
C1218 C1219 1.524 . S
C1218 H1237 0.913 . S
C1219 H1195 0.950 . S
C1219 C1218 1.524 . S
C1219 C1220 1.415 . S
C1220 H1196 0.950 . S
C1220 C1215 1.363 . S
C1220 C1219 1.415 . S
C1221 H1197 0.951 . S
C1221 C1222 1.366 . S
C1221 C1223 1.388 . S
C1222 C1221 1.366 . S
C1222 C1226 1.385 . S
C1223 H1198 0.951 1_556 S
C1223 C1221 1.388 . S
C1223 C1224 1.366 . S
C1224 C1223 1.366 . S
C1224 C1225 1.414 . S
C1224 C1227 1.499 . S
C1225 H1199 0.950 . S
C1225 C1224 1.414 . S
C1225 C1226 1.374 . S
C1226 H1200 0.950 . S
C1226 C1222 1.385 . S
C1226 C1225 1.374 . S
C1227 C1224 1.499 . S
C1227 C1228 1.373 . S
C1227 C1229 1.389 1_556 S
C1228 H1201 0.950 . S
C1228 C1214 1.377 . S
C1228 C1227 1.373 . S
C1229 C1213 1.377 . S
C1229 C1227 1.389 1_554 S
C1229 C1230 1.524 . S
C1230 C1229 1.524 . S
C1230 C1231 1.397 . S
C1230 C1235 1.363 . S
C1231 H1202 0.950 1_554 S
C1231 C1230 1.397 . S
C1231 C1232 1.334 . S
C1232 H1203 0.950 . S
C1232 C1231 1.334 . S
C1232 C1233 1.287 . S
C1233 C1232 1.287 . S
C1233 C1234 1.524 . S
C1233 H1236 0.999 . S
C1234 H1204 0.950 . S
C1234 C1233 1.524 . S
C1234 C1235 1.415 . S
C1235 H1205 0.950 . S
C1235 C1230 1.363 . S
C1235 C1234 1.415 . S
H1236 C1233 0.999 . S
H1237 C1218 0.913 . S
H1238 C1256 0.951 . S
H1239 C1258 0.951 . S
H1240 C1260 0.950 . S
H1241 C1261 0.950 . S
H1242 C1263 0.950 . S
H1243 C1266 0.950 . S
H1244 C1267 0.950 . S
H1245 C1269 0.950 . S
H1246 C1270 0.950 . S
H1247 C1271 0.951 . S
H1248 C1273 0.951 . S
H1249 C1275 0.950 . S
H1250 C1276 0.950 . S
H1251 C1278 0.950 . S
H1252 C1281 0.950 . S
H1253 C1282 0.950 . S
H1254 C1284 0.950 . S
H1255 C1285 0.950 . S
C1256 H1238 0.951 . S
C1256 C1257 1.366 . S
C1256 C1258 1.388 . S
C1257 C1256 1.366 . S
C1257 C1261 1.385 . S
C1258 H1239 0.951 . S
C1258 C1256 1.388 . S
C1258 C1259 1.366 . S
C1259 C1258 1.366 . S
C1259 C1260 1.414 . S
C1259 C1262 1.499 . S
C1260 H1240 0.950 . S
C1260 C1259 1.414 . S
C1260 C1261 1.374 . S
C1261 H1241 0.950 . S
C1261 C1257 1.385 . S
C1261 C1260 1.374 . S
C1262 C1259 1.499 . S
C1262 C1263 1.373 . S
C1262 C1264 1.389 1_554 S
C1263 H1242 0.950 . S
C1263 C1262 1.373 . S
C1263 C1279 1.377 . S
C1264 C1262 1.389 1_556 S
C1264 C1265 1.524 . S
C1264 C1278 1.377 . S
C1265 C1264 1.524 . S
C1265 C1266 1.397 . S
C1265 C1270 1.363 . S
C1266 H1243 0.950 . S
C1266 C1265 1.397 . S
C1266 C1267 1.334 . S
C1267 H1244 0.950 . S
C1267 C1266 1.334 . S
C1267 C1268 1.287 . S
C1268 C1267 1.287 . S
C1268 C1269 1.524 . S
C1268 H1287 0.913 . S
C1269 H1245 0.950 . S
C1269 C1268 1.524 . S
C1269 C1270 1.415 . S
C1270 H1246 0.950 . S
C1270 C1265 1.363 . S
C1270 C1269 1.415 . S
C1271 H1247 0.951 . S
C1271 C1272 1.366 . S
C1271 C1273 1.388 . S
C1272 C1271 1.366 . S
C1272 C1276 1.385 . S
C1273 H1248 0.951 . S
C1273 C1271 1.388 . S
C1273 C1274 1.366 . S
C1274 C1273 1.366 . S
C1274 C1275 1.414 . S
C1274 C1277 1.499 . S
C1275 H1249 0.950 . S
C1275 C1274 1.414 . S
C1275 C1276 1.374 . S
C1276 H1250 0.950 . S
C1276 C1272 1.385 . S
C1276 C1275 1.374 . S
C1277 C1274 1.499 . S
C1277 C1278 1.373 . S
C1277 C1279 1.389 1_556 S
C1278 H1251 0.950 . S
C1278 C1264 1.377 . S
C1278 C1277 1.373 . S
C1279 C1263 1.377 . S
C1279 C1277 1.389 1_554 S
C1279 C1280 1.524 . S
C1280 C1279 1.524 . S
C1280 C1281 1.397 . S
C1280 C1285 1.363 . S
C1281 H1252 0.950 . S
C1281 C1280 1.397 . S
C1281 C1282 1.334 . S
C1282 H1253 0.950 . S
C1282 C1281 1.334 . S
C1282 C1283 1.287 . S
C1283 C1282 1.287 . S
C1283 C1284 1.524 . S
C1283 H1286 0.999 . S
C1284 H1254 0.950 . S
C1284 C1283 1.524 . S
C1284 C1285 1.415 . S
C1285 H1255 0.950 . S
C1285 C1280 1.363 . S
C1285 C1284 1.415 . S
H1286 C1283 0.999 . S
H1287 C1268 0.913 . S
H1288 C1306 0.951 . S
H1289 C1308 0.951 . S
H1290 C1310 0.950 . S
H1291 C1311 0.950 . S
H1292 C1313 0.950 . S
H1293 C1316 0.950 . S
H1294 C1317 0.950 . S
H1295 C1319 0.950 . S
H1296 C1320 0.950 . S
H1297 C1321 0.951 . S
H1298 C1323 0.951 . S
H1299 C1325 0.950 . S
H1300 C1326 0.950 . S
H1301 C1328 0.950 . S
H1302 C1331 0.950 . S
H1303 C1332 0.950 . S
H1304 C1334 0.950 . S
H1305 C1335 0.950 . S
C1306 H1288 0.951 . S
C1306 C1307 1.366 . S
C1306 C1308 1.388 . S
C1307 C1306 1.366 . S
C1307 C1311 1.385 . S
C1308 H1289 0.951 . S
C1308 C1306 1.388 . S
C1308 C1309 1.366 . S
C1309 C1308 1.366 . S
C1309 C1310 1.414 . S
C1309 C1312 1.499 . S
C1310 H1290 0.950 . S
C1310 C1309 1.414 . S
C1310 C1311 1.374 . S
C1311 H1291 0.950 . S
C1311 C1307 1.385 . S
C1311 C1310 1.374 . S
C1312 C1309 1.499 . S
C1312 C1313 1.373 . S
C1312 C1314 1.389 . S
C1313 H1292 0.950 . S
C1313 C1312 1.373 . S
C1313 C1329 1.377 . S
C1314 C1312 1.389 . S
C1314 C1315 1.524 . S
C1314 C1328 1.377 . S
C1315 C1314 1.524 . S
C1315 C1316 1.397 . S
C1315 C1320 1.363 1_455 S
C1316 H1293 0.950 . S
C1316 C1315 1.397 . S
C1316 C1317 1.334 1_455 S
C1317 H1294 0.950 . S
C1317 C1316 1.334 1_655 S
C1317 C1318 1.287 . S
C1318 C1317 1.287 . S
C1318 C1319 1.524 . S
C1318 H1337 0.913 . S
C1319 H1295 0.950 . S
C1319 C1318 1.524 . S
C1319 C1320 1.415 . S
C1320 H1296 0.950 . S
C1320 C1315 1.363 1_655 S
C1320 C1319 1.415 . S
C1321 H1297 0.951 . S
C1321 C1322 1.366 . S
C1321 C1323 1.388 . S
C1322 C1321 1.366 . S
C1322 C1326 1.385 . S
C1323 H1298 0.951 . S
C1323 C1321 1.388 . S
C1323 C1324 1.366 . S
C1324 C1323 1.366 . S
C1324 C1325 1.414 . S
C1324 C1327 1.499 . S
C1325 H1299 0.950 . S
C1325 C1324 1.414 . S
C1325 C1326 1.374 . S
C1326 H1300 0.950 . S
C1326 C1322 1.385 . S
C1326 C1325 1.374 . S
C1327 C1324 1.499 . S
C1327 C1328 1.373 . S
C1327 C1329 1.389 . S
C1328 H1301 0.950 . S
C1328 C1314 1.377 . S
C1328 C1327 1.373 . S
C1329 C1313 1.377 . S
C1329 C1327 1.389 . S
C1329 C1330 1.524 . S
C1330 C1329 1.524 . S
C1330 C1331 1.397 . S
C1330 C1335 1.363 . S
C1331 H1302 0.950 . S
C1331 C1330 1.397 . S
C1331 C1332 1.334 . S
C1332 H1303 0.950 . S
C1332 C1331 1.334 . S
C1332 C1333 1.287 . S
C1333 C1332 1.287 . S
C1333 C1334 1.524 . S
C1333 H1336 0.999 . S
C1334 H1304 0.950 . S
C1334 C1333 1.524 . S
C1334 C1335 1.415 . S
C1335 H1305 0.950 . S
C1335 C1330 1.363 . S
C1335 C1334 1.415 . S
H1336 C1333 0.999 . S
H1337 C1318 0.913 . S
H1338 C1356 0.951 . S
H1339 C1358 0.951 . S
H1340 C1360 0.950 . S
H1341 C1361 0.950 . S
H1342 C1363 0.950 . S
H1343 C1366 0.950 . S
H1344 C1367 0.950 . S
H1345 C1369 0.950 . S
H1346 C1370 0.950 . S
H1347 C1371 0.951 . S
H1348 C1373 0.951 . S
H1349 C1375 0.950 . S
H1350 C1376 0.950 . S
H1351 C1378 0.950 . S
H1352 C1381 0.950 . S
H1353 C1382 0.950 . S
H1354 C1384 0.950 . S
H1355 C1385 0.950 . S
C1356 H1338 0.951 . S
C1356 C1357 1.366 . S
C1356 C1358 1.388 . S
C1357 C1356 1.366 . S
C1357 C1361 1.385 . S
C1358 H1339 0.951 . S
C1358 C1356 1.388 . S
C1358 C1359 1.366 . S
C1359 C1358 1.366 . S
C1359 C1360 1.414 . S
C1359 C1362 1.499 . S
C1360 H1340 0.950 . S
C1360 C1359 1.414 . S
C1360 C1361 1.374 . S
C1361 H1341 0.950 . S
C1361 C1357 1.385 . S
C1361 C1360 1.374 . S
C1362 C1359 1.499 . S
C1362 C1363 1.373 . S
C1362 C1364 1.389 . S
C1363 H1342 0.950 . S
C1363 C1362 1.373 . S
C1363 C1379 1.377 . S
C1364 C1362 1.389 . S
C1364 C1365 1.524 . S
C1364 C1378 1.377 . S
C1365 C1364 1.524 . S
C1365 C1366 1.397 . S
C1365 C1370 1.363 1_545 S
C1366 H1343 0.950 . S
C1366 C1365 1.397 . S
C1366 C1367 1.334 1_545 S
C1367 H1344 0.950 . S
C1367 C1366 1.334 1_565 S
C1367 C1368 1.287 . S
C1368 C1367 1.287 . S
C1368 C1369 1.524 . S
C1368 H1387 0.913 . S
C1369 H1345 0.950 . S
C1369 C1368 1.524 . S
C1369 C1370 1.415 . S
C1370 H1346 0.950 . S
C1370 C1365 1.363 1_565 S
C1370 C1369 1.415 . S
C1371 H1347 0.951 . S
C1371 C1372 1.366 . S
C1371 C1373 1.388 . S
C1372 C1371 1.366 . S
C1372 C1376 1.385 . S
C1373 H1348 0.951 . S
C1373 C1371 1.388 . S
C1373 C1374 1.366 . S
C1374 C1373 1.366 . S
C1374 C1375 1.414 . S
C1374 C1377 1.499 . S
C1375 H1349 0.950 . S
C1375 C1374 1.414 . S
C1375 C1376 1.374 . S
C1376 H1350 0.950 . S
C1376 C1372 1.385 . S
C1376 C1375 1.374 . S
C1377 C1374 1.499 . S
C1377 C1378 1.373 . S
C1377 C1379 1.389 . S
C1378 H1351 0.950 . S
C1378 C1364 1.377 . S
C1378 C1377 1.373 . S
C1379 C1363 1.377 . S
C1379 C1377 1.389 . S
C1379 C1380 1.524 . S
C1380 C1379 1.524 . S
C1380 C1381 1.397 . S
C1380 C1385 1.363 . S
C1381 H1352 0.950 . S
C1381 C1380 1.397 . S
C1381 C1382 1.334 . S
C1382 H1353 0.950 . S
C1382 C1381 1.334 . S
C1382 C1383 1.287 . S
C1383 C1382 1.287 . S
C1383 C1384 1.524 . S
C1383 H1386 0.999 . S
C1384 H1354 0.950 . S
C1384 C1383 1.524 . S
C1384 C1385 1.415 . S
C1385 H1355 0.950 . S
C1385 C1380 1.363 . S
C1385 C1384 1.415 . S
H1386 C1383 0.999 . S
H1387 C1368 0.913 . S
H1388 C1406 0.951 . S
H1389 C1408 0.951 . S
H1390 C1410 0.950 . S
H1391 C1411 0.950 . S
H1392 C1413 0.950 . S
H1393 C1416 0.950 . S
H1394 C1417 0.950 . S
H1395 C1419 0.950 . S
H1396 C1420 0.950 . S
H1397 C1421 0.951 . S
H1398 C1423 0.951 . S
H1399 C1425 0.950 . S
H1400 C1426 0.950 . S
H1401 C1428 0.950 . S
H1402 C1431 0.950 . S
H1403 C1432 0.950 . S
H1404 C1434 0.950 . S
H1405 C1435 0.950 . S
C1406 H1388 0.951 . S
C1406 C1407 1.366 . S
C1406 C1408 1.388 . S
C1407 C1406 1.366 . S
C1407 C1411 1.385 . S
C1408 H1389 0.951 . S
C1408 C1406 1.388 . S
C1408 C1409 1.366 . S
C1409 C1408 1.366 . S
C1409 C1410 1.414 . S
C1409 C1412 1.499 . S
C1410 H1390 0.950 . S
C1410 C1409 1.414 . S
C1410 C1411 1.374 . S
C1411 H1391 0.950 . S
C1411 C1407 1.385 . S
C1411 C1410 1.374 . S
C1412 C1409 1.499 . S
C1412 C1413 1.373 . S
C1412 C1414 1.389 . S
C1413 H1392 0.950 . S
C1413 C1412 1.373 . S
C1413 C1429 1.377 . S
C1414 C1412 1.389 . S
C1414 C1415 1.524 . S
C1414 C1428 1.377 . S
C1415 C1414 1.524 . S
C1415 C1416 1.397 . S
C1415 C1420 1.363 . S
C1416 H1393 0.950 . S
C1416 C1415 1.397 . S
C1416 C1417 1.334 1_556 S
C1417 H1394 0.950 . S
C1417 C1416 1.334 1_554 S
C1417 C1418 1.287 . S
C1418 C1417 1.287 . S
C1418 C1419 1.524 . S
C1418 H1437 0.913 . S
C1419 H1395 0.950 . S
C1419 C1418 1.524 . S
C1419 C1420 1.415 1_554 S
C1420 H1396 0.950 . S
C1420 C1415 1.363 . S
C1420 C1419 1.415 1_556 S
C1421 H1397 0.951 . S
C1421 C1422 1.366 . S
C1421 C1423 1.388 . S
C1422 C1421 1.366 . S
C1422 C1426 1.385 . S
C1423 H1398 0.951 . S
C1423 C1421 1.388 . S
C1423 C1424 1.366 . S
C1424 C1423 1.366 . S
C1424 C1425 1.414 . S
C1424 C1427 1.499 . S
C1425 H1399 0.950 . S
C1425 C1424 1.414 . S
C1425 C1426 1.374 . S
C1426 H1400 0.950 . S
C1426 C1422 1.385 . S
C1426 C1425 1.374 . S
C1427 C1424 1.499 . S
C1427 C1428 1.373 . S
C1427 C1429 1.389 . S
C1428 H1401 0.950 . S
C1428 C1414 1.377 . S
C1428 C1427 1.373 . S
C1429 C1413 1.377 . S
C1429 C1427 1.389 . S
C1429 C1430 1.524 . S
C1430 C1429 1.524 . S
C1430 C1431 1.397 . S
C1430 C1435 1.363 . S
C1431 H1402 0.950 . S
C1431 C1430 1.397 . S
C1431 C1432 1.334 . S
C1432 H1403 0.950 . S
C1432 C1431 1.334 . S
C1432 C1433 1.287 . S
C1433 C1432 1.287 . S
C1433 C1434 1.524 . S
C1433 H1436 0.999 . S
C1434 H1404 0.950 . S
C1434 C1433 1.524 . S
C1434 C1435 1.415 . S
C1435 H1405 0.950 . S
C1435 C1430 1.363 . S
C1435 C1434 1.415 . S
H1436 C1433 0.999 . S
H1437 C1418 0.913 . S
H1438 C1456 0.951 . S
H1439 C1458 0.951 . S
H1440 C1460 0.950 . S
H1441 C1461 0.950 . S
H1442 C1463 0.950 . S
H1443 C1466 0.950 . S
H1444 C1467 0.950 . S
H1445 C1469 0.950 . S
H1446 C1470 0.950 . S
H1447 C1471 0.951 . S
H1448 C1473 0.951 . S
H1449 C1475 0.950 . S
H1450 C1476 0.950 . S
H1451 C1478 0.950 . S
H1452 C1481 0.950 . S
H1453 C1482 0.950 . S
H1454 C1484 0.950 . S
H1455 C1485 0.950 . S
C1456 H1438 0.951 . S
C1456 C1457 1.366 . S
C1456 C1458 1.388 . S
C1457 C1456 1.366 . S
C1457 C1461 1.385 . S
C1458 H1439 0.951 . S
C1458 C1456 1.388 . S
C1458 C1459 1.366 . S
C1459 C1458 1.366 . S
C1459 C1460 1.414 . S
C1459 C1462 1.499 . S
C1460 H1440 0.950 . S
C1460 C1459 1.414 . S
C1460 C1461 1.374 . S
C1461 H1441 0.950 . S
C1461 C1457 1.385 . S
C1461 C1460 1.374 . S
C1462 C1459 1.499 . S
C1462 C1463 1.373 . S
C1462 C1464 1.389 . S
C1463 H1442 0.950 . S
C1463 C1462 1.373 . S
C1463 C1479 1.377 . S
C1464 C1462 1.389 . S
C1464 C1465 1.524 . S
C1464 C1478 1.377 . S
C1465 C1464 1.524 . S
C1465 C1466 1.397 . S
C1465 C1470 1.363 . S
C1466 H1443 0.950 . S
C1466 C1465 1.397 . S
C1466 C1467 1.334 1_556 S
C1467 H1444 0.950 . S
C1467 C1466 1.334 1_554 S
C1467 C1468 1.287 1_554 S
C1468 C1467 1.287 1_556 S
C1468 C1469 1.524 . S
C1468 H1487 0.913 1_556 S
C1469 H1445 0.950 . S
C1469 C1468 1.524 . S
C1469 C1470 1.415 . S
C1470 H1446 0.950 . S
C1470 C1465 1.363 . S
C1470 C1469 1.415 . S
C1471 H1447 0.951 . S
C1471 C1472 1.366 . S
C1471 C1473 1.388 . S
C1472 C1471 1.366 . S
C1472 C1476 1.385 . S
C1473 H1448 0.951 . S
C1473 C1471 1.388 . S
C1473 C1474 1.366 . S
C1474 C1473 1.366 . S
C1474 C1475 1.414 . S
C1474 C1477 1.499 . S
C1475 H1449 0.950 . S
C1475 C1474 1.414 . S
C1475 C1476 1.374 . S
C1476 H1450 0.950 . S
C1476 C1472 1.385 . S
C1476 C1475 1.374 . S
C1477 C1474 1.499 . S
C1477 C1478 1.373 . S
C1477 C1479 1.389 . S
C1478 H1451 0.950 . S
C1478 C1464 1.377 . S
C1478 C1477 1.373 . S
C1479 C1463 1.377 . S
C1479 C1477 1.389 . S
C1479 C1480 1.524 . S
C1480 C1479 1.524 . S
C1480 C1481 1.397 . S
C1480 C1485 1.363 . S
C1481 H1452 0.950 . S
C1481 C1480 1.397 . S
C1481 C1482 1.334 . S
C1482 H1453 0.950 . S
C1482 C1481 1.334 . S
C1482 C1483 1.287 . S
C1483 C1482 1.287 . S
C1483 C1484 1.524 . S
C1483 H1486 0.999 . S
C1484 H1454 0.950 . S
C1484 C1483 1.524 . S
C1484 C1485 1.415 . S
C1485 H1455 0.950 . S
C1485 C1480 1.363 . S
C1485 C1484 1.415 . S
H1486 C1483 0.999 . S
H1487 C1468 0.913 1_554 S
H1488 C1506 0.951 . S
H1489 C1508 0.951 . S
H1490 C1510 0.950 . S
H1491 C1511 0.950 . S
H1492 C1513 0.950 . S
H1493 C1516 0.950 . S
H1494 C1517 0.950 . S
H1495 C1519 0.950 . S
H1496 C1520 0.950 . S
H1497 C1521 0.930 1_455 S
H1498 C1523 0.951 1_455 S
H1499 C1525 0.950 . S
H1500 C1526 0.950 . S
H1501 C1528 0.950 . S
H1502 C1531 0.950 . S
H1503 C1532 0.950 . S
H1504 C1534 0.950 1_455 S
H1505 C1535 0.950 1_455 S
C1506 H1488 0.951 . S
C1506 C1507 1.366 . S
C1506 C1508 1.388 . S
C1507 C1506 1.366 . S
C1507 C1511 1.385 . S
C1508 H1489 0.951 . S
C1508 C1506 1.388 . S
C1508 C1509 1.366 . S
C1509 C1508 1.366 . S
C1509 C1510 1.414 . S
C1509 C1512 1.499 . S
C1510 H1490 0.950 . S
C1510 C1509 1.414 . S
C1510 C1511 1.374 . S
C1511 H1491 0.950 . S
C1511 C1507 1.385 . S
C1511 C1510 1.374 . S
C1512 C1509 1.499 . S
C1512 C1513 1.373 . S
C1512 C1514 1.389 . S
C1513 H1492 0.950 . S
C1513 C1512 1.373 . S
C1513 C1529 1.377 . S
C1514 C1512 1.389 . S
C1514 C1515 1.524 . S
C1514 C1528 1.377 . S
C1515 C1514 1.524 . S
C1515 C1516 1.397 . S
C1515 C1520 1.363 . S
C1516 H1493 0.950 . S
C1516 C1515 1.397 . S
C1516 C1517 1.334 . S
C1517 H1494 0.950 . S
C1517 C1516 1.334 . S
C1517 C1518 1.287 . S
C1518 C1517 1.287 . S
C1518 C1519 1.524 . S
C1518 H1537 0.913 . S
C1519 H1495 0.950 . S
C1519 C1518 1.524 . S
C1519 C1520 1.415 . S
C1520 H1496 0.950 . S
C1520 C1515 1.363 . S
C1520 C1519 1.415 . S
C1521 H1497 0.930 1_655 S
C1521 C1522 1.382 . S
C1521 C1523 1.393 . S
C1522 C1521 1.382 . S
C1522 C1526 1.385 . S
C1523 H1498 0.951 1_655 S
C1523 C1521 1.393 . S
C1523 C1524 1.366 . S
C1524 C1523 1.366 . S
C1524 C1525 1.414 . S
C1524 C1527 1.499 . S
C1525 H1499 0.950 . S
C1525 C1524 1.414 . S
C1525 C1526 1.374 . S
C1526 H1500 0.950 . S
C1526 C1522 1.385 . S
C1526 C1525 1.374 . S
C1527 C1524 1.499 . S
C1527 C1528 1.373 . S
C1527 C1529 1.389 . S
C1528 H1501 0.950 . S
C1528 C1514 1.377 . S
C1528 C1527 1.373 . S
C1529 C1513 1.377 . S
C1529 C1527 1.389 . S
C1529 C1530 1.524 . S
C1530 C1529 1.524 . S
C1530 C1531 1.397 . S
C1530 C1535 1.363 . S
C1531 H1502 0.950 . S
C1531 C1530 1.397 . S
C1531 C1532 1.334 . S
C1532 H1503 0.950 . S
C1532 C1531 1.334 . S
C1532 C1533 1.287 . S
C1533 C1532 1.287 . S
C1533 C1534 1.524 . S
C1533 H1536 0.999 . S
C1534 H1504 0.950 1_655 S
C1534 C1533 1.524 . S
C1534 C1535 1.415 . S
C1535 H1505 0.950 1_655 S
C1535 C1530 1.363 . S
C1535 C1534 1.415 . S
H1536 C1533 0.999 . S
H1537 C1518 0.913 . S
H1538 C1556 0.951 . S
H1539 C1558 0.951 . S
H1540 C1560 0.950 . S
H1541 C1561 0.950 . S
H1542 C1563 0.950 . S
H1543 C1566 0.950 . S
H1544 C1567 0.950 . S
H1545 C1569 0.950 . S
H1546 C1570 0.950 . S
H1547 C1571 0.951 . S
H1548 C1573 0.951 . S
H1549 C1575 0.950 . S
H1550 C1576 0.950 . S
H1551 C1578 0.950 1_545 S
H1552 C1581 0.950 . S
H1553 C1582 0.950 . S
H1554 C1584 0.950 . S
H1555 C1585 0.950 . S
C1556 H1538 0.951 . S
C1556 C1557 1.366 . S
C1556 C1558 1.388 . S
C1557 C1556 1.366 . S
C1557 C1561 1.385 . S
C1558 H1539 0.951 . S
C1558 C1556 1.388 . S
C1558 C1559 1.366 . S
C1559 C1558 1.366 . S
C1559 C1560 1.414 . S
C1559 C1562 1.499 . S
C1560 H1540 0.950 . S
C1560 C1559 1.414 . S
C1560 C1561 1.374 . S
C1561 H1541 0.950 . S
C1561 C1557 1.385 . S
C1561 C1560 1.374 . S
C1562 C1559 1.499 . S
C1562 C1563 1.373 . S
C1562 C1564 1.389 . S
C1563 H1542 0.950 . S
C1563 C1562 1.373 . S
C1563 C1579 1.377 . S
C1564 C1562 1.389 . S
C1564 C1565 1.524 1_565 S
C1564 C1578 1.377 . S
C1565 C1564 1.524 1_545 S
C1565 C1566 1.397 . S
C1565 C1570 1.363 . S
C1566 H1543 0.950 . S
C1566 C1565 1.397 . S
C1566 C1567 1.334 . S
C1567 H1544 0.950 . S
C1567 C1566 1.334 . S
C1567 C1568 1.287 . S
C1568 C1567 1.287 . S
C1568 C1569 1.524 . S
C1568 H1587 0.913 . S
C1569 H1545 0.950 . S
C1569 C1568 1.524 . S
C1569 C1570 1.415 . S
C1570 H1546 0.950 . S
C1570 C1565 1.363 . S
C1570 C1569 1.415 . S
C1571 H1547 0.951 . S
C1571 C1572 1.366 . S
C1571 C1573 1.388 . S
C1572 C1571 1.366 . S
C1572 C1576 1.385 . S
C1573 H1548 0.951 . S
C1573 C1571 1.388 . S
C1573 C1574 1.366 . S
C1574 C1573 1.366 . S
C1574 C1575 1.414 . S
C1574 C1577 1.499 . S
C1575 H1549 0.950 . S
C1575 C1574 1.414 . S
C1575 C1576 1.374 . S
C1576 H1550 0.950 . S
C1576 C1572 1.385 . S
C1576 C1575 1.374 . S
C1577 C1574 1.499 . S
C1577 C1578 1.373 . S
C1577 C1579 1.389 . S
C1578 H1551 0.950 1_565 S
C1578 C1564 1.377 . S
C1578 C1577 1.373 . S
C1579 C1563 1.377 . S
C1579 C1577 1.389 . S
C1579 C1580 1.524 . S
C1580 C1579 1.524 . S
C1580 C1581 1.397 . S
C1580 C1585 1.363 . S
C1581 H1552 0.950 . S
C1581 C1580 1.397 . S
C1581 C1582 1.334 . S
C1582 H1553 0.950 . S
C1582 C1581 1.334 . S
C1582 C1583 1.287 . S
C1583 C1582 1.287 . S
C1583 C1584 1.524 . S
C1583 H1586 0.999 . S
C1584 H1554 0.950 . S
C1584 C1583 1.524 . S
C1584 C1585 1.415 . S
C1585 H1555 0.950 . S
C1585 C1580 1.363 . S
C1585 C1584 1.415 . S
H1586 C1583 0.999 . S
H1587 C1568 0.913 . S
H1588 C1606 0.951 . S
H1589 C1608 0.951 . S
H1590 C1610 0.950 . S
H1591 C1611 0.950 . S
H1592 C1613 0.950 . S
H1593 C1616 0.950 . S
H1594 C1617 0.950 . S
H1595 C1619 0.950 . S
H1596 C1620 0.950 . S
H1597 C1621 0.951 . S
H1598 C1623 0.951 . S
H1599 C1625 0.950 . S
H1600 C1626 0.950 . S
H1601 C1628 0.950 . S
H1602 C1631 0.950 . S
H1603 C1632 0.950 . S
H1604 C1634 0.950 . S
H1605 C1635 0.950 . S
C1606 H1588 0.951 . S
C1606 C1607 1.366 . S
C1606 C1608 1.388 . S
C1607 C1606 1.366 . S
C1607 C1611 1.385 . S
C1608 H1589 0.951 . S
C1608 C1606 1.388 . S
C1608 C1609 1.366 . S
C1609 C1608 1.366 . S
C1609 C1610 1.414 . S
C1609 C1612 1.499 . S
C1610 H1590 0.950 . S
C1610 C1609 1.414 . S
C1610 C1611 1.374 . S
C1611 H1591 0.950 . S
C1611 C1607 1.385 . S
C1611 C1610 1.374 . S
C1612 C1609 1.499 . S
C1612 C1613 1.373 . S
C1612 C1614 1.389 . S
C1613 H1592 0.950 . S
C1613 C1612 1.373 . S
C1613 C1629 1.377 . S
C1614 C1612 1.389 . S
C1614 C1615 1.524 . S
C1614 C1628 1.377 . S
C1615 C1614 1.524 . S
C1615 C1616 1.397 . S
C1615 C1620 1.363 . S
C1616 H1593 0.950 . S
C1616 C1615 1.397 . S
C1616 C1617 1.334 . S
C1617 H1594 0.950 . S
C1617 C1616 1.334 . S
C1617 C1618 1.287 . S
C1618 C1617 1.287 . S
C1618 C1619 1.524 . S
C1618 H1637 0.913 . S
C1619 H1595 0.950 . S
C1619 C1618 1.524 . S
C1619 C1620 1.415 . S
C1620 H1596 0.950 . S
C1620 C1615 1.363 . S
C1620 C1619 1.415 . S
C1621 H1597 0.951 . S
C1621 C1622 1.366 . S
C1621 C1623 1.388 . S
C1622 C1621 1.366 . S
C1622 C1626 1.385 . S
C1623 H1598 0.951 . S
C1623 C1621 1.388 . S
C1623 C1624 1.366 . S
C1624 C1623 1.366 . S
C1624 C1625 1.414 . S
C1624 C1627 1.499 . S
C1625 H1599 0.950 . S
C1625 C1624 1.414 . S
C1625 C1626 1.374 . S
C1626 H1600 0.950 . S
C1626 C1622 1.385 . S
C1626 C1625 1.374 . S
C1627 C1624 1.499 . S
C1627 C1628 1.373 . S
C1627 C1629 1.389 . S
C1628 H1601 0.950 . S
C1628 C1614 1.377 . S
C1628 C1627 1.373 . S
C1629 C1613 1.377 . S
C1629 C1627 1.389 . S
C1629 C1630 1.524 . S
C1630 C1629 1.524 . S
C1630 C1631 1.397 . S
C1630 C1635 1.363 . S
C1631 H1602 0.950 . S
C1631 C1630 1.397 . S
C1631 C1632 1.334 . S
C1632 H1603 0.950 . S
C1632 C1631 1.334 . S
C1632 C1633 1.287 . S
C1633 C1632 1.287 . S
C1633 C1634 1.524 . S
C1633 H1636 0.999 . S
C1634 H1604 0.950 . S
C1634 C1633 1.524 . S
C1634 C1635 1.415 . S
C1635 H1605 0.950 . S
C1635 C1630 1.363 . S
C1635 C1634 1.415 . S
H1636 C1633 0.999 . S
H1637 C1618 0.913 . S
H1638 C1656 0.951 . S
H1639 C1658 0.951 . S
H1640 C1660 0.950 . S
H1641 C1661 0.950 . S
H1642 C1663 0.950 . S
H1643 C1666 0.950 . S
H1644 C1667 0.950 . S
H1645 C1669 0.950 . S
H1646 C1670 0.950 . S
H1647 C1671 0.951 . S
H1648 C1673 0.951 . S
H1649 C1675 0.950 . S
H1650 C1676 0.950 . S
H1651 C1678 0.950 . S
H1652 C1681 0.950 . S
H1653 C1682 0.950 . S
H1654 C1684 0.950 . S
H1655 C1685 0.950 . S
C1656 H1638 0.951 . S
C1656 C1657 1.366 . S
C1656 C1658 1.388 . S
C1657 C1656 1.366 . S
C1657 C1661 1.385 . S
C1658 H1639 0.951 . S
C1658 C1656 1.388 . S
C1658 C1659 1.366 . S
C1659 C1658 1.366 . S
C1659 C1660 1.414 . S
C1659 C1662 1.499 . S
C1660 H1640 0.950 . S
C1660 C1659 1.414 . S
C1660 C1661 1.374 . S
C1661 H1641 0.950 . S
C1661 C1657 1.385 . S
C1661 C1660 1.374 . S
C1662 C1659 1.499 . S
C1662 C1663 1.373 . S
C1662 C1664 1.389 . S
C1663 H1642 0.950 . S
C1663 C1662 1.373 . S
C1663 C1679 1.377 . S
C1664 C1662 1.389 . S
C1664 C1665 1.524 . S
C1664 C1678 1.377 . S
C1665 C1664 1.524 . S
C1665 C1666 1.397 . S
C1665 C1670 1.363 . S
C1666 H1643 0.950 . S
C1666 C1665 1.397 . S
C1666 C1667 1.334 . S
C1667 H1644 0.950 . S
C1667 C1666 1.334 . S
C1667 C1668 1.287 . S
C1668 C1667 1.287 . S
C1668 C1669 1.524 . S
C1668 H1687 0.913 . S
C1669 H1645 0.950 . S
C1669 C1668 1.524 . S
C1669 C1670 1.415 . S
C1670 H1646 0.950 . S
C1670 C1665 1.363 . S
C1670 C1669 1.415 . S
C1671 H1647 0.951 . S
C1671 C1672 1.366 . S
C1671 C1673 1.388 . S
C1672 C1671 1.366 . S
C1672 C1676 1.385 . S
C1673 H1648 0.951 . S
C1673 C1671 1.388 . S
C1673 C1674 1.366 . S
C1674 C1673 1.366 . S
C1674 C1675 1.414 . S
C1674 C1677 1.499 . S
C1675 H1649 0.950 . S
C1675 C1674 1.414 . S
C1675 C1676 1.374 . S
C1676 H1650 0.950 . S
C1676 C1672 1.385 . S
C1676 C1675 1.374 . S
C1677 C1674 1.499 . S
C1677 C1678 1.373 . S
C1677 C1679 1.389 . S
C1678 H1651 0.950 . S
C1678 C1664 1.377 . S
C1678 C1677 1.373 . S
C1679 C1663 1.377 . S
C1679 C1677 1.389 . S
C1679 C1680 1.524 . S
C1680 C1679 1.524 . S
C1680 C1681 1.397 . S
C1680 C1685 1.363 . S
C1681 H1652 0.950 . S
C1681 C1680 1.397 . S
C1681 C1682 1.334 . S
C1682 H1653 0.950 . S
C1682 C1681 1.334 . S
C1682 C1683 1.287 . S
C1683 C1682 1.287 . S
C1683 C1684 1.524 . S
C1683 H1686 0.999 . S
C1684 H1654 0.950 . S
C1684 C1683 1.524 . S
C1684 C1685 1.415 . S
C1685 H1655 0.950 . S
C1685 C1680 1.363 . S
C1685 C1684 1.415 . S
H1686 C1683 0.999 . S
H1687 C1668 0.913 . S
C507 C125 1.820 . S
C522 C226 1.877 . S
C572 C310 1.910 . S
C557 C144 1.843 . S
C622 C376 1.936 . S
C607 C87 1.958 . S
C672 C460 1.905 . S
C657 C106 1.936 . S
C722 C215 1.877 1_565 S
C707 C49 1.914 . S
C757 C68 1.947 . S
C772 C299 1.911 . S
C807 C11 2.071 . S
C822 C387 1.935 . S
C857 C30 2.042 . S
C872 C471 1.906 . S
C922 C222 0.584 . S
C907 C97 0.566 . S
C972 C306 0.560 . S
C957 C116 0.540 . S
C1022 C378 0.536 . S
C1007 C135 0.525 . S
C1057 C78 0.550 . S
C1072 C462 0.558 . S
C1107 C21 0.564 . S
C1122 C210 0.584 . S
C1172 C294 0.563 . S
C1157 C40 0.534 . S
C1222 C390 0.538 . S
C1207 C59 0.521 . S
C1257 C2 0.546 . S
C1272 C474 0.560 . S
C1307 C101 1.989 . S
C1322 C219 2.013 . S
C1357 C120 1.949 . S
C1372 C303 1.972 . S
C1422 C383 1.971 . S
C1407 C139 1.846 . S
C1472 C467 2.009 . S
C1457 C82 1.882 . S
C1507 C25 1.994 . S
C1522 C208 2.013 . S
C1572 C292 1.971 1_565 S
C1557 C44 1.954 . S
C1622 C394 1.971 . S
C1607 C63 1.851 . S
C1657 C6 1.887 . S
C1672 C478 2.010 . S
