# Generated by pormake.
# Topology apo, (3,6)-cn, num edge types: 1
# Building blocks:
#     Node 0, Type 0, BuildingBlock: VETTIZ_charged_linker_0, # of connection points: 3
#     Node 1, Type 0, BuildingBlock: VETTIZ_charged_linker_0, # of connection points: 3
#     Node 2, Type 0, BuildingBlock: VETTIZ_charged_linker_0, # of connection points: 3
#     Node 3, Type 0, BuildingBlock: VETTIZ_charged_linker_0, # of connection points: 3
#     Node 4, Type 0, BuildingBlock: VETTIZ_charged_linker_0, # of connection points: 3
#     Node 5, Type 0, BuildingBlock: VETTIZ_charged_linker_0, # of connection points: 3
#     Node 6, Type 0, BuildingBlock: VETTIZ_charged_linker_0, # of connection points: 3
#     Node 7, Type 0, BuildingBlock: VETTIZ_charged_linker_0, # of connection points: 3
#     Node 8, Type 1, BuildingBlock: KUMBOL_clean_sbu_1, # of connection points: 6
#     Node 9, Type 1, BuildingBlock: KUMBOL_clean_sbu_1, # of connection points: 6
#     Node 10, Type 1, BuildingBlock: KUMBOL_clean_sbu_1, # of connection points: 6
#     Node 11, Type 1, BuildingBlock: KUMBOL_clean_sbu_1, # of connection points: 6
#     Edge 12, Type (0, 1), None
#     Edge 13, Type (0, 1), None
#     Edge 14, Type (0, 1), None
#     Edge 15, Type (0, 1), None
#     Edge 16, Type (0, 1), None
#     Edge 17, Type (0, 1), None
#     Edge 18, Type (0, 1), None
#     Edge 19, Type (0, 1), None
#     Edge 20, Type (0, 1), None
#     Edge 21, Type (0, 1), None
#     Edge 22, Type (0, 1), None
#     Edge 23, Type (0, 1), None
#     Edge 24, Type (0, 1), None
#     Edge 25, Type (0, 1), None
#     Edge 26, Type (0, 1), None
#     Edge 27, Type (0, 1), None
#     Edge 28, Type (0, 1), None
#     Edge 29, Type (0, 1), None
#     Edge 30, Type (0, 1), None
#     Edge 31, Type (0, 1), None
#     Edge 32, Type (0, 1), None
#     Edge 33, Type (0, 1), None
#     Edge 34, Type (0, 1), None
#     Edge 35, Type (0, 1), None
# Relax obj value: 0.007
# Max RMSD: 0.141
# Mean RMSD: 0.106
data_MOF--net-apo--node1-KUMBOL_clean_sbu_1--node2-VETTIZ_charged_linker_0--edge1-none
_symmetry_space_group_name_H-M    P1
_symmetry_Int_Tables_number       1
_symmetry_cell_setting            triclinic
loop_
_symmetry_equiv_pos_as_xyz
'x, y, z'
_cell_length_a     16.177389
_cell_length_b     28.14158
_cell_length_c     38.490613
_cell_angle_alpha  90.156357
_cell_angle_beta   90.050124
_cell_angle_gamma 90.81001
loop_
_atom_site_label
_atom_site_type_symbol
_atom_site_fract_x
_atom_site_fract_y
_atom_site_fract_z
_atom_type_partial_charge
C0 C 0.26647 0.3511 0.5203 0.0
C1 C 0.3069 0.38582 0.54095 0.0
C2 C 0.36183 0.41823 0.52505 0.0
C3 C 0.32324 0.38777 0.46832 0.0
C4 C 0.27666 0.3522 0.48394 0.0
C5 C 0.23535 0.32009 0.45725 0.0
H6 H 0.13348 0.28658 0.28585 0.0
C7 C 0.30841 0.38566 0.43048 0.0
C8 C 0.25683 0.34576 0.42356 0.0
H9 H 0.0822 0.18906 0.36942 0.0
H10 H 0.1471 0.24391 0.41094 0.0
H11 H 0.09065 0.38392 0.32926 0.0
H12 H 0.30332 0.30391 0.30259 0.0
H13 H 0.34387 0.36152 0.3066 0.0
H14 H 0.2654 0.34947 0.27438 0.0
H15 H 0.1353 0.38228 0.28662 0.0
H16 H 0.16688 0.42623 0.31836 0.0
C17 C 0.14129 0.31824 0.46406 0.0
C18 C 0.27662 0.27101 0.45908 0.0
C19 C 0.41277 0.52053 0.35136 0.0
C20 C 0.40281 0.52767 0.31532 0.0
C21 C 0.35965 0.49355 0.29586 0.0
C22 C 0.32184 0.45458 0.31133 0.0
C23 C 0.33032 0.44776 0.34712 0.0
C24 C 0.37583 0.47991 0.36673 0.0
C25 C 0.37962 0.46471 0.40435 0.0
C26 C 0.32949 0.41812 0.40344 0.0
C27 C 0.30057 0.40924 0.36982 0.0
C28 C 0.33676 0.5034 0.42624 0.0
C29 C 0.47133 0.45664 0.41411 0.0
C30 C 0.13504 0.27741 0.31318 0.0
C31 C 0.10287 0.23404 0.32456 0.0
C32 C 0.10685 0.22275 0.36024 0.0
C33 C 0.14496 0.2544 0.38416 0.0
C34 C 0.17937 0.29761 0.3721 0.0
C35 C 0.17291 0.30821 0.33709 0.0
C36 C 0.21596 0.35354 0.32773 0.0
C37 C 0.25098 0.36865 0.36247 0.0
C38 C 0.22925 0.33649 0.38886 0.0
C39 C 0.14941 0.38847 0.31453 0.0
C40 C 0.28541 0.34185 0.3013 0.0
H41 H 0.41017 0.44632 0.47819 0.0
H42 H 0.22385 0.32585 0.53203 0.0
H43 H 0.34504 0.2751 0.46065 0.0
H44 H 0.26453 0.24907 0.43581 0.0
H45 H 0.25554 0.25112 0.48242 0.0
H46 H 0.1177 0.35455 0.46906 0.0
H47 H 0.12671 0.29589 0.48706 0.0
H48 H 0.10586 0.30416 0.44173 0.0
H49 H 0.44786 0.54574 0.367 0.0
H50 H 0.35758 0.49598 0.26827 0.0
H51 H 0.28858 0.43109 0.29435 0.0
H52 H 0.27703 0.51337 0.41411 0.0
H53 H 0.37614 0.53599 0.42799 0.0
H54 H 0.32127 0.49183 0.45278 0.0
H55 H 0.50817 0.44606 0.39102 0.0
H56 H 0.47884 0.42708 0.43269 0.0
H57 H 0.50034 0.48942 0.42506 0.0
H58 H 0.39327 0.44523 0.54049 0.0
C59 C 0.37028 0.41937 0.48887 0.0
C60 C 0.36382 0.21864 0.81378 0.0
C61 C 0.39214 0.26263 0.82622 0.0
C62 C 0.38607 0.27273 0.86201 0.0
C63 C 0.31919 0.19581 0.87201 0.0
C64 C 0.32769 0.18612 0.83691 0.0
C65 C 0.29112 0.13887 0.827 0.0
H66 H 0.06431 0.94345 0.86364 0.0
C67 C 0.27298 0.15513 0.88802 0.0
C68 C 0.25578 0.12235 0.86131 0.0
H69 H 0.1667 0.99037 0.7657 0.0
H70 H 0.23019 0.05679 0.79301 0.0
H71 H 0.23108 0.97626 0.91277 0.0
H72 H 0.00205 0.04409 0.88641 0.0
H73 H 0.02675 0.06036 0.9293 0.0
H74 H 0.0062 -0.00136 0.91896 0.0
H75 H 0.13129 0.95374 0.92567 0.0
H76 H 0.18447 -0.00142 0.95072 0.0
C77 C 0.36281 0.10679 0.81478 0.0
C78 C 0.22224 0.14692 0.79964 0.0
C79 C 0.22853 0.14127 0.01897 0.0
C80 C 0.1887 0.10628 0.03944 0.0
C81 C 0.13657 0.07264 0.02301 0.0
C82 C 0.1308 0.07056 0.98667 0.0
C83 C 0.17763 0.10252 0.96645 0.0
C84 C 0.22103 0.13921 0.98248 0.0
C85 C 0.2621 0.17172 0.95618 0.0
C86 C 0.24412 0.14532 0.92235 0.0
C87 C 0.19487 0.10443 0.92869 0.0
C88 C 0.35574 0.17515 0.96396 0.0
C89 C 0.21803 0.22007 0.95744 0.0
C90 C 0.1008 0.96806 0.8482 0.0
C91 C 0.11256 0.96021 0.81221 0.0
C92 C 0.15922 0.99381 0.79332 0.0
C93 C 0.19518 0.03337 0.80936 0.0
C94 C 0.18258 0.04114 0.84491 0.0
C95 C 0.13612 0.00897 0.86393 0.0
C96 C 0.12884 0.02449 0.90146 0.0
C97 C 0.17777 0.07142 0.90131 0.0
C98 C 0.20895 0.08044 0.86804 0.0
C99 C 0.17058 0.98637 0.92413 0.0
C100 C 0.03627 0.03205 0.9098 0.0
H101 H 0.34677 0.24906 0.91202 0.0
H102 H 0.36861 0.20988 0.78644 0.0
H103 H 0.20073 0.18423 0.79982 0.0
H104 H 0.16553 0.1256 0.80478 0.0
H105 H 0.24439 0.13837 0.77318 0.0
H106 H 0.41915 0.11311 0.83086 0.0
H107 H 0.37949 0.11421 0.78732 0.0
H108 H 0.34883 0.06844 0.81766 0.0
H109 H 0.26916 0.16744 0.03099 0.0
H110 H 0.10569 0.04534 0.03822 0.0
H111 H 0.09305 0.04273 0.97567 0.0
H112 H 0.38066 0.13933 0.96956 0.0
H113 H 0.36813 0.19824 0.98688 0.0
H114 H 0.39187 0.18908 0.94184 0.0
H115 H 0.15005 0.21486 0.96023 0.0
H116 H 0.22606 0.2408 0.93338 0.0
H117 H 0.24008 0.24175 0.97986 0.0
H118 H 0.40897 0.30642 0.87208 0.0
C119 C 0.34971 0.23953 0.88504 0.0
C120 C 0.79537 0.17343 0.51499 0.0
C121 C 0.81185 0.14007 0.48911 0.0
C122 C 0.84118 0.09496 0.49878 0.0
C123 C 0.82357 0.11536 0.55988 0.0
C124 C 0.79815 0.15997 0.54964 0.0
C125 C 0.76149 0.18822 0.57842 0.0
H126 H 0.63741 0.2064 0.74407 0.0
C127 C 0.80899 0.11165 0.59793 0.0
C128 C 0.77108 0.15428 0.60824 0.0
H129 H 0.60677 0.30678 0.66031 0.0
H130 H 0.68068 0.25602 0.6216 0.0
H131 H 0.60166 0.11222 0.70094 0.0
H132 H 0.81887 0.19014 0.72985 0.0
H133 H 0.85673 0.13279 0.72347 0.0
H134 H 0.77988 0.14313 0.75665 0.0
H135 H 0.64514 0.1138 0.74386 0.0
H136 H 0.6746 0.06941 0.71257 0.0
C137 C 0.66895 0.19694 0.56953 0.0
C138 C 0.81487 0.23393 0.58344 0.0
C139 C 0.90486 0.97133 0.67287 0.0
C140 C 0.90157 0.96469 0.70932 0.0
C141 C 0.86423 -0.00045 0.73007 0.0
C142 C 0.82841 0.03899 0.71542 0.0
C143 C 0.83191 0.04551 0.67953 0.0
C144 C 0.87034 0.01273 0.65851 0.0
C145 C 0.86813 0.02795 0.62071 0.0
C146 C 0.82552 0.07614 0.62345 0.0
C147 C 0.80322 0.08481 0.65816 0.0
C148 C 0.81551 0.99117 0.60031 0.0
C149 C 0.95759 0.03263 0.60721 0.0
C150 C 0.64683 0.21725 0.71736 0.0
C151 C 0.61595 0.26031 0.70514 0.0
C152 C 0.62935 0.27337 0.67025 0.0
C153 C 0.67238 0.24378 0.64772 0.0
C154 C 0.70193 0.20034 0.66006 0.0
C155 C 0.68982 0.18803 0.69438 0.0
C156 C 0.72885 0.14165 0.70316 0.0
C157 C 0.76216 0.12687 0.66789 0.0
C158 C 0.74659 0.1614 0.64302 0.0
C159 C 0.65958 0.10729 0.71606 0.0
C160 C 0.79935 0.15208 0.72977 0.0
H161 H 0.86757 0.04729 0.54036 0.0
H162 H 0.77289 0.20836 0.50832 0.0
H163 H 0.8816 0.22645 0.57956 0.0
H164 H 0.81098 0.24875 0.60999 0.0
H165 H 0.79729 0.26175 0.56451 0.0
H166 H 0.64341 0.16898 0.55187 0.0
H167 H 0.66091 0.23169 0.55644 0.0
H168 H 0.62809 0.19512 0.59251 0.0
H169 H 0.93352 0.94531 0.65616 0.0
H170 H 0.86146 -0.00354 0.75809 0.0
H171 H 0.79913 0.06275 0.73302 0.0
H172 H 0.7577 0.98234 0.61469 0.0
H173 H 0.85011 0.95771 0.5965 0.0
H174 H 0.79584 0.0044 0.57474 0.0
H175 H 0.99497 0.05596 0.62474 0.0
H176 H 0.9608 0.04841 0.58106 0.0
H177 H 0.98739 -0.00268 0.60615 0.0
H178 H 0.85451 0.06866 0.47904 0.0
C179 C 0.84769 0.08249 0.53424 0.0
C180 C 0.85392 0.27024 0.21515 0.0
C181 C 0.88732 0.2282 0.20202 0.0
C182 C 0.88014 0.21751 0.16647 0.0
C183 C 0.80557 0.29034 0.15756 0.0
C184 C 0.81426 0.30097 0.19238 0.0
C185 C 0.77624 0.34755 0.20181 0.0
H186 H 0.57011 0.54379 0.15601 0.0
C187 C 0.76117 0.32976 0.14121 0.0
C188 C 0.74491 0.36366 0.16662 0.0
H189 H 0.64144 0.4941 0.25807 0.0
H190 H 0.70663 0.42754 0.23281 0.0
H191 H 0.74689 0.50947 0.11511 0.0
H192 H 0.5118 0.43316 0.12352 0.0
H193 H 0.54613 0.44293 0.08006 0.0
H194 H 0.51759 0.49254 0.10638 0.0
H195 H 0.65419 0.53296 0.09638 0.0
H196 H 0.71068 0.48672 0.07494 0.0
C197 C 0.84602 0.38085 0.21576 0.0
C198 C 0.70462 0.3374 0.22782 0.0
C199 C 0.69317 0.31439 0.01515 0.0
C200 C 0.68174 0.34758 0.98875 0.0
C201 C 0.6595 0.39438 0.99793 0.0
C202 C 0.65588 0.4082 0.03333 0.0
C203 C 0.67759 0.37525 0.05924 0.0
C204 C 0.69738 0.32954 0.04935 0.0
C205 C 0.73968 0.30229 0.07714 0.0
C206 C 0.73453 0.33688 0.10679 0.0
C207 C 0.69681 0.37962 0.09693 0.0
C208 C 0.83096 0.29461 0.06568 0.0
C209 C 0.68905 0.25604 0.0839 0.0
C210 C 0.59946 0.51816 0.17275 0.0
C211 C 0.6023 0.52501 0.20917 0.0
C212 C 0.64025 0.49072 0.23003 0.0
C213 C 0.67738 0.45139 0.21528 0.0
C214 C 0.67439 0.44483 0.17924 0.0
C215 C 0.63525 0.47733 0.15832 0.0
C216 C 0.63778 0.46265 0.12041 0.0
C217 C 0.68127 0.4149 0.12277 0.0
C218 C 0.70385 0.4059 0.15743 0.0
C219 C 0.68979 0.49992 0.10039 0.0
C220 C 0.54853 0.45754 0.10665 0.0
H221 H 0.83344 0.2373 0.11759 0.0
H222 H 0.85965 0.2794 0.24242 0.0
H223 H 0.68358 0.29962 0.22701 0.0
H224 H 0.64833 0.35771 0.22161 0.0
H225 H 0.72372 0.34531 0.25497 0.0
H226 H 0.90361 0.37655 0.20032 0.0
H227 H 0.86081 0.37262 0.24325 0.0
H228 H 0.83127 0.41894 0.21367 0.0
H229 H 0.71008 0.27816 1.00907 0.0
H230 H 0.65015 0.42077 0.97794 0.0
H231 H 0.64136 0.44445 0.03915 0.0
H232 H 0.85209 0.32199 0.04671 0.0
H233 H 0.83867 0.25934 0.05317 0.0
H234 H 0.87544 0.29837 0.08743 0.0
H235 H 0.62155 0.26281 0.08235 0.0
H236 H 0.69884 0.24124 0.11008 0.0
H237 H 0.70377 0.22834 0.06433 0.0
H238 H 0.90536 0.18497 0.15604 0.0
C239 C 0.83869 0.24814 0.1442 0.0
C240 C 0.64441 0.49155 0.71368 0.0
C241 C 0.59637 0.45313 0.70128 0.0
C242 C 0.57615 0.45124 0.66563 0.0
C243 C 0.65072 0.5253 0.65575 0.0
C244 C 0.67131 0.52682 0.69055 0.0
C245 C 0.7234 0.56975 0.69959 0.0
H246 H 0.87256 0.78649 0.65764 0.0
C247 C 0.68615 0.56831 0.6391 0.0
C248 C 0.72834 0.59454 0.66459 0.0
H249 H 0.90711 0.70715 0.752 0.0
H250 H 0.83659 0.63958 0.72726 0.0
H251 H 0.93172 0.68701 0.61246 0.0
H252 H 0.69095 0.74857 0.62964 0.0
H253 H 0.70765 0.736 0.58503 0.0
H254 H 0.77176 0.77963 0.60657 0.0
H255 H 0.90422 0.74294 0.59364 0.0
H256 H 0.87458 0.68728 0.57359 0.0
C257 C 0.8095 0.55281 0.71201 0.0
C258 C 0.67566 0.59928 0.72683 0.0
C259 C 0.65619 0.58792 0.50963 0.0
C260 C 0.69135 0.6195 0.48561 0.0
C261 C 0.72996 0.66159 0.49786 0.0
C262 C 0.73842 0.67009 0.53389 0.0
C263 C 0.70903 0.63574 0.55764 0.0
C264 C 0.6668 0.59613 0.54514 0.0
C265 C 0.64415 0.5615 0.57318 0.0
C266 C 0.68271 0.58544 0.60453 0.0
C267 C 0.71984 0.6294 0.59573 0.0
C268 C 0.68524 0.51322 0.56485 0.0
C269 C 0.54857 0.55938 0.57575 0.0
C270 C 0.86258 0.75469 0.67295 0.0
C271 C 0.88846 0.75296 0.70788 0.0
C272 C 0.88155 0.71013 0.7262 0.0
C273 C 0.84164 0.67075 0.71155 0.0
C274 C 0.81096 0.67355 0.67757 0.0
C275 C 0.82557 0.71387 0.658 0.0
C276 C 0.80147 0.70607 0.62039 0.0
C277 C 0.76122 0.6567 0.62197 0.0
C278 C 0.7669 0.63844 0.65584 0.0
C279 C 0.88178 0.70608 0.59859 0.0
C280 C 0.73982 0.74467 0.60956 0.0
H281 H 0.5848 0.48357 0.61617 0.0
H282 H 0.66041 0.49453 0.74083 0.0
H283 H 0.60979 0.60277 0.71902 0.0
H284 H 0.69976 0.63587 0.72982 0.0
H285 H 0.67711 0.58188 0.75269 0.0
H286 H 0.81985 0.51462 0.70613 0.0
H287 H 0.81683 0.55765 0.74045 0.0
H288 H 0.86079 0.57214 0.6988 0.0
H289 H 0.62684 0.55516 0.50084 0.0
H290 H 0.75791 0.68634 0.47968 0.0
H291 H 0.77005 0.70206 0.54189 0.0
H292 H 0.74536 0.51866 0.55129 0.0
H293 H 0.64513 0.49088 0.54777 0.0
H294 H 0.70108 0.49273 0.5883 0.0
H295 H 0.52169 0.59501 0.57115 0.0
H296 H 0.52626 0.54905 0.6018 0.0
H297 H 0.52182 0.53458 0.5561 0.0
H298 H 0.5391 0.42215 0.65522 0.0
C299 C 0.60269 0.48711 0.6429 0.0
C300 C 0.63655 0.77339 0.20792 0.0
C301 C 0.60399 0.73053 0.19448 0.0
C302 C 0.60718 0.72315 0.15815 0.0
C303 C 0.6785 0.79927 0.15005 0.0
C304 C 0.67294 0.80687 0.18547 0.0
C305 C 0.71179 0.85336 0.19627 0.0
H306 H 0.9378 0.05046 0.1613 0.0
C307 C 0.7246 0.84049 0.13468 0.0
C308 C 0.74436 0.87183 0.16195 0.0
H309 H 0.84829 -0.00274 0.25964 0.0
H310 H 0.77961 0.9331 0.23158 0.0
H311 H 0.99636 0.95019 0.1345 0.0
H312 H 0.76643 0.02095 0.11444 0.0
H313 H 0.8073 -0.00044 0.07505 0.0
H314 H 0.86488 0.04318 0.09966 0.0
H315 H 0.99013 -0.00168 0.10416 0.0
H316 H 0.96789 0.93766 0.09137 0.0
C317 C 0.78316 0.84328 0.22202 0.0
C318 C 0.64242 0.88529 0.21083 0.0
C319 C 0.76644 0.85635 1.00387 0.0
C320 C 0.80436 0.89192 0.98342 0.0
C321 C 0.85399 0.92684 0.99979 0.0
C322 C 0.86002 0.92895 0.03613 0.0
C323 C 0.81593 0.89575 0.05639 0.0
C324 C 0.77389 0.85857 0.0403 0.0
C325 C 0.7332 0.82574 0.0664 0.0
C326 C 0.75143 0.85168 0.10032 0.0
C327 C 0.8 0.89291 0.09423 0.0
C328 C 0.77749 0.77746 0.06479 0.0
C329 C 0.63941 0.82247 0.05869 0.0
C330 C 0.90311 0.02493 0.17667 0.0
C331 C 0.896 0.03049 0.2131 0.0
C332 C 0.85172 0.9957 0.23182 0.0
C333 C 0.81288 0.95743 0.2153 0.0
C334 C 0.82065 0.95194 0.17931 0.0
C335 C 0.86538 0.98507 0.1604 0.0
C336 C 0.86872 0.97149 0.12237 0.0
C337 C 0.81942 0.92466 0.12212 0.0
C338 C 0.79122 0.91398 0.15562 0.0
C339 C 0.96037 0.96429 0.11224 0.0
C340 C 0.82508 0.01078 0.1015 0.0
H341 H 0.64509 0.74923 0.10865 0.0
H342 H 0.63417 0.78099 0.23548 0.0
H343 H 0.58464 0.88075 0.19538 0.0
H344 H 0.65761 0.92364 0.20931 0.0
H345 H 0.62776 0.876 0.2382 0.0
H346 H 0.80335 0.80578 0.22039 0.0
H347 H 0.76424 0.85081 0.24907 0.0
H348 H 0.83992 0.86433 0.21636 0.0
H349 H 0.72726 0.82941 0.99189 0.0
H350 H 0.88309 0.9547 0.98452 0.0
H351 H 0.89597 0.95759 0.04707 0.0
H352 H 0.8456 0.78289 0.0629 0.0
H353 H 0.75705 0.75658 0.04172 0.0
H354 H 0.7678 0.75583 0.08832 0.0
H355 H 0.61548 0.85778 0.05097 0.0
H356 H 0.60256 0.81176 0.08153 0.0
H357 H 0.62627 0.7971 0.03716 0.0
H358 H 0.58179 0.69081 0.14686 0.0
C359 C 0.64435 0.7571 0.13595 0.0
C360 C 0.14227 -0.00295 0.31107 0.0
C361 C 0.10148 0.03633 0.32465 0.0
C362 C 0.0893 0.03906 0.36107 0.0
C363 C 0.1553 0.96294 0.3689 0.0
C364 C 0.16982 0.96176 0.33348 0.0
C365 C 0.21803 0.91956 0.32253 0.0
H366 H 0.38164 0.70751 0.35676 0.0
C367 C 0.18789 0.91838 0.38401 0.0
C368 C 0.22418 0.89317 0.35654 0.0
H369 H 0.38596 0.78717 0.26079 0.0
H370 H 0.31383 0.85076 0.28814 0.0
H371 H 0.42063 0.80422 0.40931 0.0
H372 H 0.20698 0.72361 0.37605 0.0
H373 H 0.17995 0.7482 0.41642 0.0
H374 H 0.26419 0.7068 0.41385 0.0
H375 H 0.40216 0.74222 0.41784 0.0
H376 H 0.36054 0.78705 0.44561 0.0
C377 C 0.30405 0.93779 0.30982 0.0
C378 C 0.16637 0.89153 0.29506 0.0
C379 C 0.17483 0.87967 0.51406 0.0
C380 C 0.19822 0.83885 0.53268 0.0
C381 C 0.21789 0.79729 0.51426 0.0
C382 C 0.2216 0.79726 0.47801 0.0
C383 C 0.20614 0.83934 0.45985 0.0
C384 C 0.17805 0.87887 0.47742 0.0
C385 C 0.15768 0.91871 0.45254 0.0
C386 C 0.18536 0.89776 0.4179 0.0
C387 C 0.21534 0.8515 0.42283 0.0
C388 C 0.20881 0.96346 0.46253 0.0
C389 C 0.06332 0.92617 0.45368 0.0
C390 C 0.36777 0.73905 0.3419 0.0
C391 C 0.38869 0.74235 0.30654 0.0
C392 C 0.36957 0.7837 0.28797 0.0
C393 C 0.32783 0.82073 0.30401 0.0
C394 C 0.30482 0.81652 0.33905 0.0
C395 C 0.32569 0.77657 0.35759 0.0
C396 C 0.29618 0.7788 0.39465 0.0
C397 C 0.25427 0.82699 0.39511 0.0
C398 C 0.25951 0.84833 0.36241 0.0
C399 C 0.3735 0.77787 0.41836 0.0
C400 C 0.23398 0.73717 0.40083 0.0
H401 H 0.10408 0.00639 0.41052 0.0
H402 H 0.1527 0.99344 0.28342 0.0
H403 H 0.09905 0.8938 0.30065 0.0
H404 H 0.17888 0.85306 0.29486 0.0
H405 H 0.17687 0.90589 0.26855 0.0
H406 H 0.32198 0.97208 0.32241 0.0
H407 H 0.30435 0.94374 0.28131 0.0
H408 H 0.35471 0.91353 0.31675 0.0
H409 H 0.15917 0.91201 0.52771 0.0
H410 H 0.23559 0.76554 0.52813 0.0
H411 H 0.23957 0.76493 0.46557 0.0
H412 H 0.27413 0.95396 0.46781 0.0
H413 H 0.18353 0.98046 0.48626 0.0
H414 H 0.21091 0.99011 0.44158 0.0
H415 H 0.02973 0.89139 0.45325 0.0
H416 H 0.04012 0.9459 0.43108 0.0
H417 H 0.04538 0.94523 0.47778 0.0
H418 H 0.05871 0.06929 0.37251 0.0
C419 C 0.11532 0.00241 0.3832 0.0
C420 C 0.14171 0.71794 0.80848 0.0
C421 C 0.11006 0.76065 0.82125 0.0
C422 C 0.11032 0.76913 0.85739 0.0
C423 C 0.17592 0.69387 0.86722 0.0
C424 C 0.17517 0.68552 0.83189 0.0
C425 C 0.21597 0.6398 0.82258 0.0
H426 H 0.42983 0.44611 0.86712 0.0
C427 C 0.21861 0.65411 0.88405 0.0
C428 C 0.24324 0.62272 0.85817 0.0
H429 H 0.35343 0.49657 0.76581 0.0
H430 H 0.28756 0.56169 0.79166 0.0
H431 H 0.48442 0.55884 0.89458 0.0
H432 H 0.25705 0.47894 0.91414 0.0
H433 H 0.30736 0.5002 0.95242 0.0
H434 H 0.35612 0.45581 0.92625 0.0
H435 H 0.48574 0.50331 0.91756 0.0
H436 H 0.45649 0.55733 0.93902 0.0
C437 C 0.29053 0.65178 0.79846 0.0
C438 C 0.14889 0.6064 0.80649 0.0
C439 C 0.26074 0.66326 0.01288 0.0
C440 C 0.31395 0.64102 0.03615 0.0
C441 C 0.35403 0.59915 0.02538 0.0
C442 C 0.34521 0.58214 0.99082 0.0
C443 C 0.29721 0.60789 0.96692 0.0
C444 C 0.25565 0.64751 0.97865 0.0
C445 C 0.21681 0.67519 0.95015 0.0
C446 C 0.23864 0.64521 0.91914 0.0
C447 C 0.28519 0.60517 0.92849 0.0
C448 C 0.25957 0.72513 0.94888 0.0
C449 C 0.12219 0.67582 0.95652 0.0
C450 C 0.39857 0.47143 0.85075 0.0
C451 C 0.39495 0.46498 0.81423 0.0
C452 C 0.35567 0.49938 0.79387 0.0
C453 C 0.31758 0.53796 0.80903 0.0
C454 C 0.3209 0.54408 0.84507 0.0
C455 C 0.36136 0.51176 0.86566 0.0
C456 C 0.36137 0.52727 0.90352 0.0
C457 C 0.31102 0.57293 0.90185 0.0
C458 C 0.28882 0.58201 0.86715 0.0
C459 C 0.45176 0.5371 0.91454 0.0
C460 C 0.31835 0.48848 0.92547 0.0
H461 H 0.13903 0.74433 0.9075 0.0
H462 H 0.14028 0.70965 0.781 0.0
H463 H 0.08806 0.61136 0.81941 0.0
H464 H 0.16221 0.5683 0.81002 0.0
H465 H 0.14043 0.61374 0.77839 0.0
H466 H 0.31214 0.68921 0.80169 0.0
H467 H 0.27414 0.64671 0.77066 0.0
H468 H 0.34588 0.63066 0.80455 0.0
H469 H 0.22906 0.69543 0.02033 0.0
H470 H 0.39536 0.58121 0.04299 0.0
H471 H 0.37846 0.55092 0.98358 0.0
H472 H 0.32253 0.72479 0.96056 0.0
H473 H 0.22328 0.75197 0.96328 0.0
H474 H 0.27047 0.73784 0.92207 0.0
H475 H 0.09973 0.64091 0.96655 0.0
H476 H 0.08617 0.68175 0.93256 0.0
H477 H 0.10588 0.70339 0.97594 0.0
H478 H 0.08544 0.80159 0.86808 0.0
C479 C 0.14198 0.7358 0.88039 0.0
C480 C 0.72379 0.1051 0.281 0.0
C481 C 0.70769 0.02277 0.29838 0.0
C482 C 0.75572 0.06492 0.29608 0.0
C483 C 0.6286 0.02103 0.28328 0.0
C484 C 0.64284 0.10427 0.26729 0.0
C485 C 0.59635 0.06168 0.26761 0.0
N486 N 0.7701 0.14571 0.28162 0.0
C487 C 0.73518 0.18792 0.27258 0.0
C488 C 0.61025 0.14661 0.25465 0.0
C489 C 0.65568 0.18886 0.25826 0.0
Gd490 Gd 0.10627 0.13424 0.23017 0.0
Gd491 Gd 0.90846 0.13869 0.30108 0.0
N492 N 0.83316 0.06751 0.30953 0.0
C493 C 0.74049 0.98389 0.31606 0.0
C494 C 0.86423 0.03046 0.328 0.0
C495 C 0.81871 0.988 0.33136 0.0
H496 H 0.92478 0.03347 0.33954 0.0
H497 H 0.84431 0.95836 0.3454 0.0
H498 H 0.07939 0.24464 0.19728 0.0
H499 H 0.76875 0.22105 0.27607 0.0
H500 H 0.16171 0.31808 0.18994 0.0
H501 H 0.70573 0.95084 0.31833 0.0
H502 H 0.59135 0.98874 0.28415 0.0
H503 H 0.23616 0.05632 0.26634 0.0
H504 H 0.54907 0.14735 0.24325 0.0
H505 H 0.62934 0.22216 0.25013 0.0
H506 H 0.41885 0.286 0.24664 0.0
H507 H 0.53454 0.0602 0.25674 0.0
H508 H 0.45654 0.13151 0.29567 0.0
H509 H 0.37332 0.05721 0.29415 0.0
N510 N 0.23814 0.13011 0.25509 0.0
C511 C 0.28471 0.17071 0.25375 0.0
C512 C 0.2702 0.08931 0.26813 0.0
C513 C 0.3958 0.13145 0.28381 0.0
C514 C 0.34874 0.08952 0.28327 0.0
C515 C 0.365 0.1724 0.2681 0.0
H516 H 0.47377 0.21658 0.27707 0.0
N517 N 0.17276 0.20888 0.22572 0.0
C518 C 0.25189 0.2108 0.23798 0.0
C519 C 0.26773 0.29124 0.21695 0.0
C520 C 0.30072 0.25246 0.23458 0.0
C521 C 0.14038 0.2467 0.20851 0.0
C522 C 0.18731 0.28835 0.20389 0.0
O523 O 0.92101 0.07427 0.26611 0.0
O524 O 0.98169 0.1017 0.21546 0.0
O525 O 0.13681 0.14888 0.17587 0.0
O526 O 0.17002 0.08086 0.19933 0.0
O527 O 0.03322 0.10991 0.31532 0.0
O528 O 0.08803 0.07213 0.26739 0.0
O529 O 0.12466 0.17455 0.28098 0.0
O530 O 0.99384 0.20003 0.28956 0.0
O531 O 0.92276 0.13095 0.35725 0.0
O532 O 0.85624 0.1901 0.33593 0.0
O533 O 0.99674 0.17557 0.21249 0.0
O534 O 0.90004 0.19011 0.25661 0.0
C535 C 0.93458 0.07115 0.23238 0.0
C536 C 0.07149 0.07402 0.30112 0.0
C537 C 0.20832 0.09271 0.13838 0.0
C538 C 0.21984 0.09533 0.07479 0.0
C539 C 0.31793 0.05047 0.10896 0.0
C540 C 0.27747 0.06326 0.13945 0.0
C541 C 0.28959 0.06643 0.07694 0.0
C542 C 0.17899 0.10878 0.10572 0.0
C543 C 0.17118 0.10783 0.17174 0.0
C544 C 0.3809 0.25408 0.24866 0.0
C545 C 0.41228 0.2145 0.26595 0.0
H546 H 0.30382 0.32359 0.21328 0.0
C547 C 0.07148 0.19978 0.29859 0.0
C548 C 0.93014 0.19561 0.22505 0.0
C549 C 0.81681 0.16469 0.39201 0.0
C550 C 0.78596 0.15145 0.4532 0.0
C551 C 0.68276 0.18603 0.41518 0.0
C552 C 0.73729 0.18335 0.38736 0.0
C553 C 0.70672 0.17026 0.44784 0.0
C554 C 0.84062 0.14819 0.42502 0.0
C555 C 0.87833 0.16801 0.36394 0.0
H556 H 0.37148 0.02792 0.11015 0.0
H557 H 0.30135 0.05078 0.16404 0.0
H558 H 0.32129 0.05532 0.05355 0.0
H559 H 0.12488 0.13098 0.10436 0.0
H560 H 0.62227 0.20124 0.41158 0.0
H561 H 0.71767 0.19702 0.36244 0.0
H562 H 0.66354 0.1735 0.4692 0.0
H563 H 0.90268 0.13526 0.42914 0.0
C564 C 0.77253 0.39167 0.77062 0.0
C565 C 0.79161 0.47353 0.78961 0.0
C566 C 0.74196 0.43211 0.78659 0.0
C567 C 0.87205 0.47395 0.77594 0.0
C568 C 0.85386 0.39191 0.75727 0.0
C569 C 0.90287 0.43339 0.75959 0.0
N570 N 0.72491 0.35138 0.77009 0.0
C571 C 0.75813 0.30942 0.75938 0.0
C572 C 0.88489 0.34986 0.74329 0.0
C573 C 0.83731 0.30825 0.7449 0.0
Gd574 Gd 0.39797 0.35467 0.72913 0.0
Gd575 Gd 0.5942 0.35741 0.79691 0.0
N576 N 0.66417 0.43063 0.79991 0.0
C577 C 0.7593 0.51309 0.80679 0.0
C578 C 0.63378 0.46826 0.81807 0.0
C579 C 0.68014 0.51036 0.82118 0.0
H580 H 0.57388 0.46568 0.83023 0.0
H581 H 0.65525 0.54044 0.83506 0.0
H582 H 0.43973 0.24389 0.69943 0.0
H583 H 0.72562 0.27629 0.76337 0.0
H584 H 0.36571 0.16782 0.6924 0.0
H585 H 0.79536 0.54563 0.80951 0.0
H586 H 0.91123 0.50537 0.77813 0.0
H587 H 0.26336 0.42856 0.76529 0.0
H588 H 0.94673 0.34866 0.73257 0.0
H589 H 0.86259 0.27501 0.73594 0.0
H590 H 0.09655 0.19602 0.73955 0.0
H591 H 0.96548 0.4341 0.74959 0.0
H592 H 0.0409 0.3503 0.78627 0.0
H593 H 0.12121 0.42568 0.78837 0.0
N594 N 0.26605 0.3551 0.75332 0.0
C595 C 0.22237 0.31367 0.7507 0.0
C596 C 0.23027 0.39523 0.76575 0.0
C597 C 0.1039 0.35125 0.77676 0.0
C598 C 0.14918 0.3938 0.77822 0.0
C599 C 0.13973 0.31073 0.76225 0.0
H600 H 0.0314 0.26508 0.76694 0.0
N601 N 0.3405 0.27789 0.72542 0.0
C602 C 0.26027 0.27419 0.73605 0.0
C603 C 0.25351 0.19298 0.71565 0.0
C604 C 0.21484 0.23149 0.73158 0.0
C605 C 0.37816 0.24048 0.70967 0.0
C606 C 0.33564 0.19736 0.70497 0.0
O607 O 0.58387 0.41791 0.75837 0.0
O608 O 0.52451 0.37949 0.71218 0.0
O609 O 0.35488 0.34001 0.67645 0.0
O610 O 0.3403 0.41112 0.69911 0.0
O611 O 0.47708 0.3939 0.81409 0.0
O612 O 0.41867 0.41982 0.76241 0.0
O613 O 0.37858 0.32363 0.78319 0.0
O614 O 0.50709 0.29458 0.79436 0.0
O615 O 0.58305 0.36132 0.85433 0.0
O616 O 0.68641 0.32624 0.82868 0.0
O617 O 0.51324 0.31826 0.71195 0.0
O618 O 0.58116 0.29281 0.76146 0.0
C619 C 0.56629 0.4155 0.72511 0.0
C620 C 0.43103 0.42351 0.79629 0.0
C621 C 0.29061 0.39915 0.6396 0.0
C622 C 0.27647 0.39712 0.57625 0.0
C623 C 0.18364 0.4446 0.61122 0.0
C624 C 0.22422 0.43057 0.64138 0.0
C625 C 0.20939 0.42797 0.57891 0.0
C626 C 0.31713 0.38242 0.60677 0.0
C627 C 0.32923 0.38319 0.67228 0.0
C628 C 0.13218 0.22864 0.74271 0.0
C629 C 0.09508 0.26794 0.75837 0.0
H630 H 0.22044 0.1597 0.71143 0.0
C631 C 0.42844 0.29733 0.80179 0.0
C632 C 0.56798 0.29177 0.72765 0.0
C633 C 0.69278 0.32652 0.89072 0.0
C634 C 0.71004 0.33394 0.95343 0.0
C635 C 0.80998 0.29012 0.91905 0.0
C636 C 0.76455 0.29888 0.8893 0.0
C637 C 0.78407 0.30817 0.95068 0.0
C638 C 0.66492 0.34387 0.92305 0.0
C639 C 0.6528 0.33912 0.85771 0.0
H640 H 0.13227 0.46872 0.61286 0.0
H641 H 0.20282 0.44372 0.66624 0.0
H642 H 0.17809 0.44015 0.55574 0.0
H643 H 0.36948 0.35893 0.60494 0.0
H644 H 0.86592 0.26954 0.91756 0.0
H645 H 0.78712 0.28472 0.86494 0.0
H646 H 0.82201 0.30133 0.97329 0.0
H647 H 0.60902 0.36454 0.92456 0.0
C648 C 0.72834 0.81348 0.77196 0.0
C649 C 0.72509 0.73032 0.78874 0.0
C650 C 0.76728 0.77444 0.78675 0.0
C651 C 0.64475 0.7257 0.77508 0.0
C652 C 0.6476 0.80897 0.75842 0.0
C653 C 0.60618 0.76486 0.75996 0.0
N654 N 0.77006 0.85572 0.77034 0.0
C655 C 0.73358 0.89525 0.75738 0.0
C656 C 0.61084 0.84904 0.74377 0.0
C657 C 0.65373 0.89246 0.74358 0.0
Gd658 Gd 0.0926 0.85082 0.72322 0.0
Gd659 Gd 0.90152 0.85683 0.79518 0.0
N660 N 0.84584 0.77967 0.79932 0.0
C661 C 0.76448 0.69226 0.80484 0.0
C662 C 0.88269 0.74342 0.8166 0.0
C663 C 0.84308 0.69904 0.81925 0.0
H664 H 0.94177 0.74865 0.82892 0.0
H665 H 0.87308 0.67013 0.83252 0.0
H666 H 0.07956 0.95508 0.68401 0.0
H667 H 0.76547 0.92905 0.75817 0.0
H668 H 0.16387 0.02836 0.67614 0.0
H669 H 0.73417 0.65778 0.80683 0.0
H670 H 0.61161 0.69202 0.77631 0.0
H671 H 0.22357 0.76868 0.75485 0.0
H672 H 0.54918 0.84694 0.73283 0.0
H673 H 0.62513 0.92384 0.73301 0.0
H674 H 0.41762 0.9953 0.73605 0.0
H675 H 0.54404 0.76075 0.74975 0.0
H676 H 0.44922 0.83917 0.78352 0.0
H677 H 0.36223 0.76643 0.78132 0.0
N678 N 0.22792 0.8431 0.74551 0.0
C679 C 0.27733 0.88248 0.74408 0.0
C680 C 0.25902 0.80119 0.75717 0.0
C681 C 0.38771 0.84061 0.77246 0.0
C682 C 0.33848 0.79952 0.77149 0.0
C683 C 0.35832 0.88249 0.75771 0.0
H684 H 0.46996 0.92459 0.766 0.0
N685 N 0.17023 0.92067 0.71437 0.0
C686 C 0.24816 0.92222 0.72734 0.0
C687 C 0.26746 0.0019 0.70521 0.0
C688 C 0.29866 0.96314 0.72359 0.0
C689 C 0.14045 0.95752 0.69535 0.0
C690 C 0.18824 -0.00114 0.69074 0.0
O691 O 0.88004 0.82422 0.74142 0.0
O692 O 0.00481 0.79097 0.73389 0.0
O693 O 0.07137 0.8547 0.66695 0.0
O694 O 0.15784 0.80483 0.68801 0.0
O695 O 0.01924 0.82416 0.81274 0.0
O696 O 0.08241 0.79239 0.76401 0.0
O697 O 0.09082 0.9141 0.75999 0.0
O698 O 0.02515 0.88985 0.81067 0.0
O699 O 0.86344 0.84269 0.84869 0.0
O700 O 0.83634 0.91123 0.82438 0.0
O701 O 0.97525 0.89018 0.70901 0.0
O702 O 0.92314 0.92001 0.76094 0.0
C703 C 0.92751 0.79404 0.72517 0.0
C704 C 0.07164 0.79536 0.79798 0.0
C705 C 0.18782 0.83425 0.63186 0.0
C706 C 0.22066 0.84136 0.56996 0.0
C707 C 0.33093 0.84047 0.61283 0.0
C708 C 0.27295 0.83655 0.63944 0.0
C709 C 0.30511 0.84264 0.57837 0.0
C710 C 0.16172 0.83714 0.59683 0.0
C711 C 0.12774 0.82355 0.65995 0.0
C712 C 0.37824 0.96398 0.73821 0.0
C713 C 0.40794 0.92376 0.75534 0.0
H714 H 0.30414 0.03407 0.70183 0.0
C715 C 0.07516 0.91873 0.79352 0.0
C716 C 0.93523 0.92256 0.72705 0.0
C717 C 0.78968 0.90023 0.88424 0.0
C718 C 0.77466 0.90095 0.94762 0.0
C719 C 0.67577 0.94176 0.91119 0.0
C720 C 0.71881 0.92812 0.88152 0.0
C721 C 0.70333 0.92827 0.94396 0.0
C722 C 0.81791 0.88654 0.91758 0.0
C723 C 0.83055 0.88437 0.85193 0.0
H724 H 0.39628 0.84091 0.6189 0.0
H725 H 0.2951 0.834 0.66593 0.0
H726 H 0.35137 0.84447 0.55803 0.0
H727 H 0.09657 0.83416 0.59046 0.0
H728 H 0.6209 0.96307 0.90878 0.0
H729 H 0.69577 0.93872 0.85631 0.0
H730 H 0.66964 0.93994 0.9667 0.0
H731 H 0.87316 0.86549 0.92014 0.0
C732 C 0.76868 0.67872 0.26833 0.0
C733 C 0.78215 0.76014 0.28927 0.0
C734 C 0.73386 0.71875 0.28366 0.0
C735 C 0.86475 0.76161 0.2781 0.0
C736 C 0.85195 0.68023 0.2573 0.0
C737 C 0.89913 0.72207 0.26171 0.0
N738 N 0.72363 0.63744 0.26683 0.0
C739 C 0.76004 0.59628 0.25638 0.0
C740 C 0.88688 0.63889 0.24384 0.0
C741 C 0.84096 0.59662 0.24374 0.0
Gd742 Gd 0.39869 0.6309 0.22428 0.0
Gd743 Gd 0.59254 0.64145 0.29304 0.0
N744 N 0.65421 0.71635 0.29491 0.0
C745 C 0.74673 0.7984 0.30693 0.0
C746 C 0.62012 0.75287 0.31301 0.0
C747 C 0.66524 0.79485 0.31866 0.0
H748 H 0.55906 0.74899 0.32396 0.0
H749 H 0.63797 0.82393 0.33286 0.0
H750 H 0.42513 0.52159 0.19064 0.0
H751 H 0.72914 0.56257 0.25929 0.0
H752 H 0.34569 0.44637 0.18583 0.0
H753 H 0.78214 0.83065 0.31201 0.0
H754 H 0.9027 0.79318 0.28213 0.0
H755 H 0.26864 0.70913 0.2615 0.0
H756 H 0.95039 0.63872 0.23492 0.0
H757 H 0.86891 0.5639 0.23514 0.0
H758 H 0.09035 0.47788 0.24417 0.0
H759 H 0.96324 0.72366 0.25359 0.0
H760 H 0.04845 0.63394 0.28996 0.0
H761 H 0.13142 0.70831 0.28863 0.0
N762 N 0.26956 0.63466 0.25186 0.0
C763 C 0.22307 0.59399 0.25035 0.0
C764 C 0.23618 0.67575 0.26406 0.0
C765 C 0.11017 0.63372 0.27904 0.0
C766 C 0.15701 0.6757 0.27857 0.0
C767 C 0.14224 0.59243 0.26419 0.0
H768 H 0.03308 0.54846 0.27257 0.0
N769 N 0.33346 0.55634 0.22057 0.0
C770 C 0.25548 0.55401 0.23402 0.0
C771 C 0.24101 0.47265 0.21421 0.0
C772 C 0.20755 0.51182 0.23143 0.0
C773 C 0.36532 0.51877 0.20278 0.0
C774 C 0.3199 0.47627 0.1996 0.0
O775 O 0.57825 0.69887 0.25203 0.0
O776 O 0.52293 0.65883 0.2051 0.0
O777 O 0.35247 0.61252 0.17284 0.0
O778 O 0.3324 0.68273 0.19383 0.0
O779 O 0.46818 0.67119 0.30664 0.0
O780 O 0.41683 0.69864 0.2546 0.0
O781 O 0.38763 0.59398 0.27713 0.0
O782 O 0.51906 0.57347 0.29582 0.0
O783 O 0.57573 0.64509 0.35003 0.0
O784 O 0.69278 0.62562 0.32749 0.0
O785 O 0.51242 0.59171 0.20801 0.0
O786 O 0.58561 0.57557 0.25889 0.0
C787 C 0.56727 0.69408 0.21827 0.0
C788 C 0.42721 0.7024 0.28842 0.0
C789 C 0.33969 0.67477 0.1321 0.0
C790 C 0.33556 0.66713 0.0687 0.0
C791 C 0.36952 0.74328 0.09584 0.0
C792 C 0.36049 0.72317 0.1286 0.0
C793 C 0.35744 0.71564 0.06619 0.0
C794 C 0.3276 0.64661 0.10189 0.0
C795 C 0.324 0.65464 0.16694 0.0
C796 C 0.12778 0.51005 0.24582 0.0
C797 C 0.09523 0.55021 0.2621 0.0
H798 H 0.20619 0.43962 0.21178 0.0
C799 C 0.43818 0.56898 0.29681 0.0
C800 C 0.56552 0.56686 0.22607 0.0
C801 C 0.6764 0.60601 0.3868 0.0
C802 C 0.70228 0.60252 0.44942 0.0
C803 C 0.75728 0.54189 0.41114 0.0
C804 C 0.72132 0.56389 0.3826 0.0
C805 C 0.74803 0.56103 0.44425 0.0
C806 C 0.66695 0.6253 0.42051 0.0
C807 C 0.65244 0.63394 0.35593 0.0
H808 H 0.38479 0.78069 0.09341 0.0
H809 H 0.3688 0.74581 0.15116 0.0
H810 H 0.36379 0.73253 0.04105 0.0
H811 H 0.30884 0.60961 0.10419 0.0
H812 H 0.79328 0.51012 0.40755 0.0
H813 H 0.73118 0.54876 0.35705 0.0
H814 H 0.7768 0.54336 0.46605 0.0
H815 H 0.63343 0.65801 0.42416 0.0
loop_
_geom_bond_atom_site_label_1
_geom_bond_atom_site_label_2
_geom_bond_distance
_geom_bond_site_symmetry_2
_ccdc_geom_bond_type
C0 C1 1.391 . S
C0 C4 1.391 . S
C0 H42 0.948 . S
C1 C0 1.391 . S
C1 C2 1.391 . S
C2 C1 1.391 . S
C2 H58 0.947 . S
C2 C59 1.392 . S
C3 C4 1.391 . S
C3 C7 1.397 . S
C3 C59 1.419 . S
C4 C0 1.391 . S
C4 C3 1.391 . S
C4 C5 1.399 . S
C5 C4 1.399 . S
C5 C8 1.396 . S
C5 C17 1.453 . S
C5 C18 1.684 . S
H6 C30 0.948 . S
C7 C3 1.397 . S
C7 C8 1.394 . S
C7 C26 1.723 . S
C8 C5 1.396 . S
C8 C7 1.394 . S
C8 C38 1.723 . S
H9 C32 0.947 . S
H10 C33 0.948 . S
H11 C39 0.982 . S
H12 C40 0.979 . S
H13 C40 0.980 . S
H14 C40 0.983 . S
H15 C39 0.979 . S
H16 C39 0.977 . S
C17 C5 1.453 . S
C17 H46 0.982 . S
C17 H47 0.979 . S
C17 H48 0.977 . S
C18 C5 1.684 . S
C18 H43 0.979 . S
C18 H44 0.980 . S
C18 H45 0.983 . S
C19 C20 1.391 . S
C19 C24 1.391 . S
C19 H49 0.948 . S
C20 C19 1.391 . S
C20 C21 1.391 . S
C21 C20 1.391 . S
C21 C22 1.392 . S
C21 H50 0.947 . S
C22 C21 1.392 . S
C22 C23 1.419 . S
C22 H51 0.948 . S
C23 C22 1.419 . S
C23 C24 1.391 . S
C23 C27 1.397 . S
C24 C19 1.391 . S
C24 C23 1.391 . S
C24 C25 1.399 . S
C25 C24 1.399 . S
C25 C26 1.396 . S
C25 C28 1.453 . S
C25 C29 1.684 . S
C26 C7 1.723 . S
C26 C25 1.396 . S
C26 C27 1.394 . S
C27 C23 1.397 . S
C27 C26 1.394 . S
C27 C37 1.723 . S
C28 C25 1.453 . S
C28 H52 0.982 . S
C28 H53 0.979 . S
C28 H54 0.977 . S
C29 C25 1.684 . S
C29 H55 0.979 . S
C29 H56 0.980 . S
C29 H57 0.983 . S
C30 H6 0.948 . S
C30 C31 1.391 . S
C30 C35 1.391 . S
C31 C30 1.391 . S
C31 C32 1.391 . S
C32 H9 0.947 . S
C32 C31 1.391 . S
C32 C33 1.392 . S
C33 H10 0.948 . S
C33 C32 1.392 . S
C33 C34 1.419 . S
C34 C33 1.419 . S
C34 C35 1.391 . S
C34 C38 1.397 . S
C35 C30 1.391 . S
C35 C34 1.391 . S
C35 C36 1.399 . S
C36 C35 1.399 . S
C36 C37 1.396 . S
C36 C39 1.453 . S
C36 C40 1.684 . S
C37 C27 1.723 . S
C37 C36 1.396 . S
C37 C38 1.394 . S
C38 C8 1.723 . S
C38 C34 1.397 . S
C38 C37 1.394 . S
C39 H11 0.982 . S
C39 H15 0.979 . S
C39 H16 0.977 . S
C39 C36 1.453 . S
C40 H12 0.979 . S
C40 H13 0.980 . S
C40 H14 0.983 . S
C40 C36 1.684 . S
H41 C59 0.948 . S
H42 C0 0.948 . S
H43 C18 0.979 . S
H44 C18 0.980 . S
H45 C18 0.983 . S
H46 C17 0.982 . S
H47 C17 0.979 . S
H48 C17 0.977 . S
H49 C19 0.948 . S
H50 C21 0.947 . S
H51 C22 0.948 . S
H52 C28 0.982 . S
H53 C28 0.979 . S
H54 C28 0.977 . S
H55 C29 0.979 . S
H56 C29 0.980 . S
H57 C29 0.983 . S
H58 C2 0.947 . S
C59 C2 1.392 . S
C59 C3 1.419 . S
C59 H41 0.948 . S
C60 C61 1.391 . S
C60 C64 1.391 . S
C60 H102 0.948 . S
C61 C60 1.391 . S
C61 C62 1.391 . S
C62 C61 1.391 . S
C62 H118 0.947 . S
C62 C119 1.392 . S
C63 C64 1.391 . S
C63 C67 1.397 . S
C63 C119 1.419 . S
C64 C60 1.391 . S
C64 C63 1.391 . S
C64 C65 1.399 . S
C65 C64 1.399 . S
C65 C68 1.396 . S
C65 C77 1.453 . S
C65 C78 1.684 . S
H66 C90 0.948 . S
C67 C63 1.397 . S
C67 C68 1.394 . S
C67 C86 1.723 . S
C68 C65 1.396 . S
C68 C67 1.394 . S
C68 C98 1.723 . S
H69 C92 0.947 . S
H70 C93 0.948 . S
H71 C99 0.982 . S
H72 C100 0.979 . S
H73 C100 0.980 . S
H74 C100 0.983 1_565 S
H75 C99 0.979 . S
H76 C99 0.977 1_545 S
C77 C65 1.453 . S
C77 H106 0.982 . S
C77 H107 0.979 . S
C77 H108 0.977 . S
C78 C65 1.684 . S
C78 H103 0.979 . S
C78 H104 0.980 . S
C78 H105 0.983 . S
C79 C80 1.391 . S
C79 C84 1.391 1_554 S
C79 H109 0.948 . S
C80 C79 1.391 . S
C80 C81 1.391 . S
C81 C80 1.391 . S
C81 C82 1.392 1_554 S
C81 H110 0.947 . S
C82 C81 1.392 1_556 S
C82 C83 1.419 . S
C82 H111 0.948 . S
C83 C82 1.419 . S
C83 C84 1.391 . S
C83 C87 1.397 . S
C84 C79 1.391 1_556 S
C84 C83 1.391 . S
C84 C85 1.399 . S
C85 C84 1.399 . S
C85 C86 1.396 . S
C85 C88 1.453 . S
C85 C89 1.684 . S
C86 C67 1.723 . S
C86 C85 1.396 . S
C86 C87 1.394 . S
C87 C83 1.397 . S
C87 C86 1.394 . S
C87 C97 1.723 . S
C88 C85 1.453 . S
C88 H112 0.982 . S
C88 H113 0.979 . S
C88 H114 0.977 . S
C89 C85 1.684 . S
C89 H115 0.979 . S
C89 H116 0.980 . S
C89 H117 0.983 . S
C90 H66 0.948 . S
C90 C91 1.391 . S
C90 C95 1.391 1_565 S
C91 C90 1.391 . S
C91 C92 1.391 . S
C92 H69 0.947 . S
C92 C91 1.391 . S
C92 C93 1.392 1_565 S
C93 H70 0.948 . S
C93 C92 1.392 1_545 S
C93 C94 1.419 . S
C94 C93 1.419 . S
C94 C95 1.391 . S
C94 C98 1.397 . S
C95 C90 1.391 1_545 S
C95 C94 1.391 . S
C95 C96 1.399 . S
C96 C95 1.399 . S
C96 C97 1.396 . S
C96 C99 1.453 1_545 S
C96 C100 1.684 . S
C97 C87 1.723 . S
C97 C96 1.396 . S
C97 C98 1.394 . S
C98 C68 1.723 . S
C98 C94 1.397 . S
C98 C97 1.394 . S
C99 H71 0.982 . S
C99 H75 0.979 . S
C99 H76 0.977 1_565 S
C99 C96 1.453 1_565 S
C100 H72 0.979 . S
C100 H73 0.980 . S
C100 H74 0.983 1_545 S
C100 C96 1.684 . S
H101 C119 0.948 . S
H102 C60 0.948 . S
H103 C78 0.979 . S
H104 C78 0.980 . S
H105 C78 0.983 . S
H106 C77 0.982 . S
H107 C77 0.979 . S
H108 C77 0.977 . S
H109 C79 0.948 . S
H110 C81 0.947 . S
H111 C82 0.948 . S
H112 C88 0.982 . S
H113 C88 0.979 . S
H114 C88 0.977 . S
H115 C89 0.979 . S
H116 C89 0.980 . S
H117 C89 0.983 . S
H118 C62 0.947 . S
C119 C62 1.392 . S
C119 C63 1.419 . S
C119 H101 0.948 . S
C120 C121 1.391 . S
C120 C124 1.391 . S
C120 H162 0.948 . S
C121 C120 1.391 . S
C121 C122 1.391 . S
C122 C121 1.391 . S
C122 H178 0.947 . S
C122 C179 1.392 . S
C123 C124 1.391 . S
C123 C127 1.397 . S
C123 C179 1.419 . S
C124 C120 1.391 . S
C124 C123 1.391 . S
C124 C125 1.399 . S
C125 C124 1.399 . S
C125 C128 1.396 . S
C125 C137 1.453 . S
C125 C138 1.684 . S
H126 C150 0.948 . S
C127 C123 1.397 . S
C127 C128 1.394 . S
C127 C146 1.723 . S
C128 C125 1.396 . S
C128 C127 1.394 . S
C128 C158 1.723 . S
H129 C152 0.947 . S
H130 C153 0.948 . S
H131 C159 0.982 . S
H132 C160 0.979 . S
H133 C160 0.980 . S
H134 C160 0.983 . S
H135 C159 0.979 . S
H136 C159 0.977 . S
C137 C125 1.453 . S
C137 H166 0.982 . S
C137 H167 0.979 . S
C137 H168 0.977 . S
C138 C125 1.684 . S
C138 H163 0.979 . S
C138 H164 0.980 . S
C138 H165 0.983 . S
C139 C140 1.391 . S
C139 C144 1.391 1_565 S
C139 H169 0.948 . S
C140 C139 1.391 . S
C140 C141 1.391 . S
C141 C140 1.391 . S
C141 C142 1.392 1_565 S
C141 H170 0.947 . S
C142 C141 1.392 1_545 S
C142 C143 1.419 . S
C142 H171 0.948 . S
C143 C142 1.419 . S
C143 C144 1.391 . S
C143 C147 1.397 . S
C144 C139 1.391 1_545 S
C144 C143 1.391 . S
C144 C145 1.399 . S
C145 C144 1.399 . S
C145 C146 1.396 . S
C145 C148 1.453 1_545 S
C145 C149 1.684 . S
C146 C127 1.723 . S
C146 C145 1.396 . S
C146 C147 1.394 . S
C147 C143 1.397 . S
C147 C146 1.394 . S
C147 C157 1.723 . S
C148 C145 1.453 1_565 S
C148 H172 0.982 . S
C148 H173 0.979 . S
C148 H174 0.977 1_565 S
C149 C145 1.684 . S
C149 H175 0.979 1_655 S
C149 H176 0.980 . S
C149 H177 0.983 1_545 S
C150 H126 0.948 . S
C150 C151 1.391 . S
C150 C155 1.391 . S
C151 C150 1.391 . S
C151 C152 1.391 . S
C152 H129 0.947 . S
C152 C151 1.391 . S
C152 C153 1.392 . S
C153 H130 0.948 . S
C153 C152 1.392 . S
C153 C154 1.419 . S
C154 C153 1.419 . S
C154 C155 1.391 . S
C154 C158 1.397 . S
C155 C150 1.391 . S
C155 C154 1.391 . S
C155 C156 1.399 . S
C156 C155 1.399 . S
C156 C157 1.396 . S
C156 C159 1.453 . S
C156 C160 1.684 . S
C157 C147 1.723 . S
C157 C156 1.396 . S
C157 C158 1.394 . S
C158 C128 1.723 . S
C158 C154 1.397 . S
C158 C157 1.394 . S
C159 H131 0.982 . S
C159 H135 0.979 . S
C159 H136 0.977 . S
C159 C156 1.453 . S
C160 H132 0.979 . S
C160 H133 0.980 . S
C160 H134 0.983 . S
C160 C156 1.684 . S
H161 C179 0.948 . S
H162 C120 0.948 . S
H163 C138 0.979 . S
H164 C138 0.980 . S
H165 C138 0.983 . S
H166 C137 0.982 . S
H167 C137 0.979 . S
H168 C137 0.977 . S
H169 C139 0.948 . S
H170 C141 0.947 . S
H171 C142 0.948 . S
H172 C148 0.982 . S
H173 C148 0.979 . S
H174 C148 0.977 1_545 S
H175 C149 0.979 1_455 S
H176 C149 0.980 . S
H177 C149 0.983 1_565 S
H178 C122 0.947 . S
C179 C122 1.392 . S
C179 C123 1.419 . S
C179 H161 0.948 . S
C180 C181 1.391 . S
C180 C184 1.391 . S
C180 H222 0.948 . S
C181 C180 1.391 . S
C181 C182 1.391 . S
C182 C181 1.391 . S
C182 H238 0.947 . S
C182 C239 1.392 . S
C183 C184 1.391 . S
C183 C187 1.397 . S
C183 C239 1.419 . S
C184 C180 1.391 . S
C184 C183 1.391 . S
C184 C185 1.399 . S
C185 C184 1.399 . S
C185 C188 1.396 . S
C185 C197 1.453 . S
C185 C198 1.684 . S
H186 C210 0.948 . S
C187 C183 1.397 . S
C187 C188 1.394 . S
C187 C206 1.723 . S
C188 C185 1.396 . S
C188 C187 1.394 . S
C188 C218 1.723 . S
H189 C212 0.947 . S
H190 C213 0.948 . S
H191 C219 0.982 . S
H192 C220 0.979 . S
H193 C220 0.980 . S
H194 C220 0.983 . S
H195 C219 0.979 . S
H196 C219 0.977 . S
C197 C185 1.453 . S
C197 H226 0.982 . S
C197 H227 0.979 . S
C197 H228 0.977 . S
C198 C185 1.684 . S
C198 H223 0.979 . S
C198 H224 0.980 . S
C198 H225 0.983 . S
C199 C200 1.391 . S
C199 C204 1.391 1_556 S
C199 H229 0.948 . S
C200 C199 1.391 . S
C200 C201 1.391 . S
C201 C200 1.391 . S
C201 C202 1.392 1_556 S
C201 H230 0.947 . S
C202 C201 1.392 1_554 S
C202 C203 1.419 . S
C202 H231 0.948 . S
C203 C202 1.419 . S
C203 C204 1.391 . S
C203 C207 1.397 . S
C204 C199 1.391 1_554 S
C204 C203 1.391 . S
C204 C205 1.399 . S
C205 C204 1.399 . S
C205 C206 1.396 . S
C205 C208 1.453 . S
C205 C209 1.684 . S
C206 C187 1.723 . S
C206 C205 1.396 . S
C206 C207 1.394 . S
C207 C203 1.397 . S
C207 C206 1.394 . S
C207 C217 1.723 . S
C208 C205 1.453 . S
C208 H232 0.982 . S
C208 H233 0.979 . S
C208 H234 0.977 . S
C209 C205 1.684 . S
C209 H235 0.979 . S
C209 H236 0.980 . S
C209 H237 0.983 . S
C210 H186 0.948 . S
C210 C211 1.391 . S
C210 C215 1.391 . S
C211 C210 1.391 . S
C211 C212 1.391 . S
C212 H189 0.947 . S
C212 C211 1.391 . S
C212 C213 1.392 . S
C213 H190 0.948 . S
C213 C212 1.392 . S
C213 C214 1.419 . S
C214 C213 1.419 . S
C214 C215 1.391 . S
C214 C218 1.397 . S
C215 C210 1.391 . S
C215 C214 1.391 . S
C215 C216 1.399 . S
C216 C215 1.399 . S
C216 C217 1.396 . S
C216 C219 1.453 . S
C216 C220 1.684 . S
C217 C207 1.723 . S
C217 C216 1.396 . S
C217 C218 1.394 . S
C218 C188 1.723 . S
C218 C214 1.397 . S
C218 C217 1.394 . S
C219 H191 0.982 . S
C219 H195 0.979 . S
C219 H196 0.977 . S
C219 C216 1.453 . S
C220 H192 0.979 . S
C220 H193 0.980 . S
C220 H194 0.983 . S
C220 C216 1.684 . S
H221 C239 0.948 . S
H222 C180 0.948 . S
H223 C198 0.979 . S
H224 C198 0.980 . S
H225 C198 0.983 . S
H226 C197 0.982 . S
H227 C197 0.979 . S
H228 C197 0.977 . S
H229 C199 0.948 . S
H230 C201 0.947 . S
H231 C202 0.948 . S
H232 C208 0.982 . S
H233 C208 0.979 . S
H234 C208 0.977 . S
H235 C209 0.979 . S
H236 C209 0.980 . S
H237 C209 0.983 . S
H238 C182 0.947 . S
C239 C182 1.392 . S
C239 C183 1.419 . S
C239 H221 0.948 . S
C240 C241 1.391 . S
C240 C244 1.391 . S
C240 H282 0.948 . S
C241 C240 1.391 . S
C241 C242 1.391 . S
C242 C241 1.391 . S
C242 H298 0.947 . S
C242 C299 1.392 . S
C243 C244 1.391 . S
C243 C247 1.397 . S
C243 C299 1.419 . S
C244 C240 1.391 . S
C244 C243 1.391 . S
C244 C245 1.399 . S
C245 C244 1.399 . S
C245 C248 1.396 . S
C245 C257 1.453 . S
C245 C258 1.684 . S
H246 C270 0.948 . S
C247 C243 1.397 . S
C247 C248 1.394 . S
C247 C266 1.723 . S
C248 C245 1.396 . S
C248 C247 1.394 . S
C248 C278 1.723 . S
H249 C272 0.947 . S
H250 C273 0.948 . S
H251 C279 0.982 . S
H252 C280 0.979 . S
H253 C280 0.980 . S
H254 C280 0.983 . S
H255 C279 0.979 . S
H256 C279 0.977 . S
C257 C245 1.453 . S
C257 H286 0.982 . S
C257 H287 0.979 . S
C257 H288 0.977 . S
C258 C245 1.684 . S
C258 H283 0.979 . S
C258 H284 0.980 . S
C258 H285 0.983 . S
C259 C260 1.391 . S
C259 C264 1.391 . S
C259 H289 0.948 . S
C260 C259 1.391 . S
C260 C261 1.391 . S
C261 C260 1.391 . S
C261 C262 1.392 . S
C261 H290 0.947 . S
C262 C261 1.392 . S
C262 C263 1.419 . S
C262 H291 0.948 . S
C263 C262 1.419 . S
C263 C264 1.391 . S
C263 C267 1.397 . S
C264 C259 1.391 . S
C264 C263 1.391 . S
C264 C265 1.399 . S
C265 C264 1.399 . S
C265 C266 1.396 . S
C265 C268 1.453 . S
C265 C269 1.684 . S
C266 C247 1.723 . S
C266 C265 1.396 . S
C266 C267 1.394 . S
C267 C263 1.397 . S
C267 C266 1.394 . S
C267 C277 1.723 . S
C268 C265 1.453 . S
C268 H292 0.982 . S
C268 H293 0.979 . S
C268 H294 0.977 . S
C269 C265 1.684 . S
C269 H295 0.979 . S
C269 H296 0.980 . S
C269 H297 0.983 . S
C270 H246 0.948 . S
C270 C271 1.391 . S
C270 C275 1.391 . S
C271 C270 1.391 . S
C271 C272 1.391 . S
C272 H249 0.947 . S
C272 C271 1.391 . S
C272 C273 1.392 . S
C273 H250 0.948 . S
C273 C272 1.392 . S
C273 C274 1.419 . S
C274 C273 1.419 . S
C274 C275 1.391 . S
C274 C278 1.397 . S
C275 C270 1.391 . S
C275 C274 1.391 . S
C275 C276 1.399 . S
C276 C275 1.399 . S
C276 C277 1.396 . S
C276 C279 1.453 . S
C276 C280 1.684 . S
C277 C267 1.723 . S
C277 C276 1.396 . S
C277 C278 1.394 . S
C278 C248 1.723 . S
C278 C274 1.397 . S
C278 C277 1.394 . S
C279 H251 0.982 . S
C279 H255 0.979 . S
C279 H256 0.977 . S
C279 C276 1.453 . S
C280 H252 0.979 . S
C280 H253 0.980 . S
C280 H254 0.983 . S
C280 C276 1.684 . S
H281 C299 0.948 . S
H282 C240 0.948 . S
H283 C258 0.979 . S
H284 C258 0.980 . S
H285 C258 0.983 . S
H286 C257 0.982 . S
H287 C257 0.979 . S
H288 C257 0.977 . S
H289 C259 0.948 . S
H290 C261 0.947 . S
H291 C262 0.948 . S
H292 C268 0.982 . S
H293 C268 0.979 . S
H294 C268 0.977 . S
H295 C269 0.979 . S
H296 C269 0.980 . S
H297 C269 0.983 . S
H298 C242 0.947 . S
C299 C242 1.392 . S
C299 C243 1.419 . S
C299 H281 0.948 . S
C300 C301 1.391 . S
C300 C304 1.391 . S
C300 H342 0.948 . S
C301 C300 1.391 . S
C301 C302 1.391 . S
C302 C301 1.391 . S
C302 H358 0.947 . S
C302 C359 1.392 . S
C303 C304 1.391 . S
C303 C307 1.397 . S
C303 C359 1.419 . S
C304 C300 1.391 . S
C304 C303 1.391 . S
C304 C305 1.399 . S
C305 C304 1.399 . S
C305 C308 1.396 . S
C305 C317 1.453 . S
C305 C318 1.684 . S
H306 C330 0.948 . S
C307 C303 1.397 . S
C307 C308 1.394 . S
C307 C326 1.723 . S
C308 C305 1.396 . S
C308 C307 1.394 . S
C308 C338 1.723 . S
H309 C332 0.947 . S
H310 C333 0.948 . S
H311 C339 0.982 . S
H312 C340 0.979 . S
H313 C340 0.980 . S
H314 C340 0.983 . S
H315 C339 0.979 1_545 S
H316 C339 0.977 . S
C317 C305 1.453 . S
C317 H346 0.982 . S
C317 H347 0.979 . S
C317 H348 0.977 . S
C318 C305 1.684 . S
C318 H343 0.979 . S
C318 H344 0.980 . S
C318 H345 0.983 . S
C319 C320 1.391 . S
C319 C324 1.391 1_556 S
C319 H349 0.948 . S
C320 C319 1.391 . S
C320 C321 1.391 . S
C321 C320 1.391 . S
C321 C322 1.392 1_556 S
C321 H350 0.947 . S
C322 C321 1.392 1_554 S
C322 C323 1.419 . S
C322 H351 0.948 . S
C323 C322 1.419 . S
C323 C324 1.391 . S
C323 C327 1.397 . S
C324 C319 1.391 1_554 S
C324 C323 1.391 . S
C324 C325 1.399 . S
C325 C324 1.399 . S
C325 C326 1.396 . S
C325 C328 1.453 . S
C325 C329 1.684 . S
C326 C307 1.723 . S
C326 C325 1.396 . S
C326 C327 1.394 . S
C327 C323 1.397 . S
C327 C326 1.394 . S
C327 C337 1.723 . S
C328 C325 1.453 . S
C328 H352 0.982 . S
C328 H353 0.979 . S
C328 H354 0.977 . S
C329 C325 1.684 . S
C329 H355 0.979 . S
C329 H356 0.980 . S
C329 H357 0.983 . S
C330 H306 0.948 . S
C330 C331 1.391 . S
C330 C335 1.388 1_545 S
C331 C330 1.391 . S
C331 C332 1.391 . S
C332 H309 0.947 . S
C332 C331 1.391 . S
C332 C333 1.392 1_545 S
C333 H310 0.948 . S
C333 C332 1.392 1_565 S
C333 C334 1.419 . S
C334 C333 1.419 . S
C334 C335 1.395 . S
C334 C338 1.397 . S
C335 C330 1.388 1_565 S
C335 C334 1.395 . S
C335 C336 1.401 . S
C336 C335 1.401 . S
C336 C337 1.396 . S
C336 C339 1.453 . S
C336 C340 1.684 1_565 S
C337 C327 1.723 . S
C337 C336 1.396 . S
C337 C338 1.394 . S
C338 C308 1.723 . S
C338 C334 1.397 . S
C338 C337 1.394 . S
C339 H311 0.982 . S
C339 H315 0.979 1_565 S
C339 H316 0.977 . S
C339 C336 1.453 . S
C340 H312 0.979 . S
C340 H313 0.980 . S
C340 H314 0.983 . S
C340 C336 1.684 1_545 S
H341 C359 0.948 . S
H342 C300 0.948 . S
H343 C318 0.979 . S
H344 C318 0.980 . S
H345 C318 0.983 . S
H346 C317 0.982 . S
H347 C317 0.979 . S
H348 C317 0.977 . S
H349 C319 0.948 . S
H350 C321 0.947 . S
H351 C322 0.948 . S
H352 C328 0.982 . S
H353 C328 0.979 . S
H354 C328 0.977 . S
H355 C329 0.979 . S
H356 C329 0.980 . S
H357 C329 0.983 . S
H358 C302 0.947 . S
C359 C302 1.392 . S
C359 C303 1.419 . S
C359 H341 0.948 . S
C360 C361 1.391 . S
C360 C364 1.391 1_545 S
C360 H402 0.948 . S
C361 C360 1.391 . S
C361 C362 1.391 . S
C362 C361 1.391 . S
C362 H418 0.947 . S
C362 C419 1.392 . S
C363 C364 1.391 . S
C363 C367 1.397 . S
C363 C419 1.419 1_565 S
C364 C360 1.391 1_565 S
C364 C363 1.391 . S
C364 C365 1.399 . S
C365 C364 1.399 . S
C365 C368 1.396 . S
C365 C377 1.453 . S
C365 C378 1.684 . S
H366 C390 0.948 . S
C367 C363 1.397 . S
C367 C368 1.394 . S
C367 C386 1.723 . S
C368 C365 1.396 . S
C368 C367 1.394 . S
C368 C398 1.723 . S
H369 C392 0.947 . S
H370 C393 0.948 . S
H371 C399 0.982 . S
H372 C400 0.979 . S
H373 C400 0.980 . S
H374 C400 0.983 . S
H375 C399 0.979 . S
H376 C399 0.977 . S
C377 C365 1.453 . S
C377 H406 0.982 . S
C377 H407 0.979 . S
C377 H408 0.977 . S
C378 C365 1.684 . S
C378 H403 0.979 . S
C378 H404 0.980 . S
C378 H405 0.983 . S
C379 C380 1.391 . S
C379 C384 1.391 . S
C379 H409 0.948 . S
C380 C379 1.391 . S
C380 C381 1.391 . S
C381 C380 1.391 . S
C381 C382 1.392 . S
C381 H410 0.947 . S
C382 C381 1.392 . S
C382 C383 1.419 . S
C382 H411 0.948 . S
C383 C382 1.419 . S
C383 C384 1.391 . S
C383 C387 1.397 . S
C384 C379 1.391 . S
C384 C383 1.391 . S
C384 C385 1.399 . S
C385 C384 1.399 . S
C385 C386 1.396 . S
C385 C388 1.453 . S
C385 C389 1.684 . S
C386 C367 1.723 . S
C386 C385 1.396 . S
C386 C387 1.394 . S
C387 C383 1.397 . S
C387 C386 1.394 . S
C387 C397 1.723 . S
C388 C385 1.453 . S
C388 H412 0.982 . S
C388 H413 0.979 . S
C388 H414 0.974 1_565 S
C389 C385 1.684 . S
C389 H415 0.979 . S
C389 H416 0.980 . S
C389 H417 0.983 . S
C390 H366 0.948 . S
C390 C391 1.391 . S
C390 C395 1.391 . S
C391 C390 1.391 . S
C391 C392 1.391 . S
C392 H369 0.947 . S
C392 C391 1.391 . S
C392 C393 1.392 . S
C393 H370 0.948 . S
C393 C392 1.392 . S
C393 C394 1.419 . S
C394 C393 1.419 . S
C394 C395 1.391 . S
C394 C398 1.397 . S
C395 C390 1.391 . S
C395 C394 1.391 . S
C395 C396 1.399 . S
C396 C395 1.399 . S
C396 C397 1.396 . S
C396 C399 1.453 . S
C396 C400 1.684 . S
C397 C387 1.723 . S
C397 C396 1.396 . S
C397 C398 1.394 . S
C398 C368 1.723 . S
C398 C394 1.397 . S
C398 C397 1.394 . S
C399 H371 0.982 . S
C399 H375 0.979 . S
C399 H376 0.977 . S
C399 C396 1.453 . S
C400 H372 0.979 . S
C400 H373 0.980 . S
C400 H374 0.983 . S
C400 C396 1.684 . S
H401 C419 0.948 . S
H402 C360 0.948 . S
H403 C378 0.979 . S
H404 C378 0.980 . S
H405 C378 0.983 . S
H406 C377 0.982 . S
H407 C377 0.979 . S
H408 C377 0.977 . S
H409 C379 0.948 . S
H410 C381 0.947 . S
H411 C382 0.948 . S
H412 C388 0.982 . S
H413 C388 0.979 . S
H414 C388 0.974 1_545 S
H415 C389 0.979 . S
H416 C389 0.980 . S
H417 C389 0.983 . S
H418 C362 0.947 . S
C419 C362 1.392 . S
C419 C363 1.419 1_545 S
C419 H401 0.948 . S
C420 C421 1.391 . S
C420 C424 1.391 . S
C420 H462 0.948 . S
C421 C420 1.391 . S
C421 C422 1.391 . S
C422 C421 1.391 . S
C422 H478 0.947 . S
C422 C479 1.392 . S
C423 C424 1.391 . S
C423 C427 1.397 . S
C423 C479 1.419 . S
C424 C420 1.391 . S
C424 C423 1.391 . S
C424 C425 1.399 . S
C425 C424 1.399 . S
C425 C428 1.396 . S
C425 C437 1.453 . S
C425 C438 1.684 . S
H426 C450 0.948 . S
C427 C423 1.397 . S
C427 C428 1.394 . S
C427 C446 1.723 . S
C428 C425 1.396 . S
C428 C427 1.394 . S
C428 C458 1.723 . S
H429 C452 0.947 . S
H430 C453 0.948 . S
H431 C459 0.982 . S
H432 C460 0.979 . S
H433 C460 0.980 . S
H434 C460 0.983 . S
H435 C459 0.979 . S
H436 C459 0.977 . S
C437 C425 1.453 . S
C437 H466 0.982 . S
C437 H467 0.979 . S
C437 H468 0.977 . S
C438 C425 1.684 . S
C438 H463 0.979 . S
C438 H464 0.980 . S
C438 H465 0.983 . S
C439 C440 1.391 . S
C439 C444 1.391 1_554 S
C439 H469 0.948 . S
C440 C439 1.391 . S
C440 C441 1.391 . S
C441 C440 1.391 . S
C441 C442 1.392 1_554 S
C441 H470 0.947 . S
C442 C441 1.392 1_556 S
C442 C443 1.419 . S
C442 H471 0.948 . S
C443 C442 1.419 . S
C443 C444 1.391 . S
C443 C447 1.397 . S
C444 C439 1.391 1_556 S
C444 C443 1.391 . S
C444 C445 1.399 . S
C445 C444 1.399 . S
C445 C446 1.396 . S
C445 C448 1.453 . S
C445 C449 1.684 . S
C446 C427 1.723 . S
C446 C445 1.396 . S
C446 C447 1.394 . S
C447 C443 1.397 . S
C447 C446 1.394 . S
C447 C457 1.723 . S
C448 C445 1.453 . S
C448 H472 0.982 . S
C448 H473 0.979 . S
C448 H474 0.977 . S
C449 C445 1.684 . S
C449 H475 0.979 . S
C449 H476 0.980 . S
C449 H477 0.983 . S
C450 H426 0.948 . S
C450 C451 1.391 . S
C450 C455 1.391 . S
C451 C450 1.391 . S
C451 C452 1.391 . S
C452 H429 0.947 . S
C452 C451 1.391 . S
C452 C453 1.392 . S
C453 H430 0.948 . S
C453 C452 1.392 . S
C453 C454 1.419 . S
C454 C453 1.419 . S
C454 C455 1.391 . S
C454 C458 1.397 . S
C455 C450 1.391 . S
C455 C454 1.391 . S
C455 C456 1.399 . S
C456 C455 1.399 . S
C456 C457 1.396 . S
C456 C459 1.453 . S
C456 C460 1.684 . S
C457 C447 1.723 . S
C457 C456 1.396 . S
C457 C458 1.394 . S
C458 C428 1.723 . S
C458 C454 1.397 . S
C458 C457 1.394 . S
C459 H431 0.982 . S
C459 H435 0.979 . S
C459 H436 0.977 . S
C459 C456 1.453 . S
C460 H432 0.979 . S
C460 H433 0.980 . S
C460 H434 0.983 . S
C460 C456 1.684 . S
H461 C479 0.948 . S
H462 C420 0.948 . S
H463 C438 0.979 . S
H464 C438 0.980 . S
H465 C438 0.983 . S
H466 C437 0.982 . S
H467 C437 0.979 . S
H468 C437 0.977 . S
H469 C439 0.948 . S
H470 C441 0.947 . S
H471 C442 0.948 . S
H472 C448 0.982 . S
H473 C448 0.979 . S
H474 C448 0.977 . S
H475 C449 0.979 . S
H476 C449 0.980 . S
H477 C449 0.983 . S
H478 C422 0.947 . S
C479 C422 1.392 . S
C479 C423 1.419 . S
C479 H461 0.948 . S
C480 C482 1.422 . S
C480 C484 1.415 . S
C480 N486 1.369 . S
C481 C482 1.421 . S
C481 C483 1.417 . S
C481 C493 1.422 1_545 S
C482 C480 1.422 . S
C482 C481 1.421 . S
C482 N492 1.359 . S
C483 C481 1.417 . S
C483 C485 1.329 . S
C483 H502 0.930 1_545 S
C484 C480 1.415 . S
C484 C485 1.437 . S
C484 C488 1.413 . S
C485 C483 1.329 . S
C485 C484 1.437 . S
C485 H507 0.929 . S
N486 C480 1.369 . S
N486 C487 1.338 . S
N486 Gd491 2.622 . S
C487 N486 1.338 . S
C487 C489 1.378 . S
C487 H499 0.929 . S
C488 C484 1.413 . S
C488 C489 1.348 . S
C488 H504 0.931 . S
C489 C487 1.378 . S
C489 C488 1.348 . S
C489 H505 0.930 . S
Gd490 N510 2.622 . S
Gd490 N517 2.570 . S
Gd490 O524 2.353 1_455 S
Gd490 O525 2.468 . S
Gd490 O526 2.427 . S
Gd490 O528 2.388 . S
Gd490 O529 2.386 . S
Gd490 O533 2.307 1_455 S
Gd490 C543 2.805 . S
Gd491 N486 2.622 . S
Gd491 N492 2.570 . S
Gd491 O523 2.386 . S
Gd491 O527 2.307 1_655 S
Gd491 O530 2.353 1_655 S
Gd491 O531 2.468 . S
Gd491 O532 2.427 . S
Gd491 O534 2.388 . S
Gd491 C555 2.805 . S
N492 C482 1.359 . S
N492 Gd491 2.570 . S
N492 C494 1.343 . S
C493 C481 1.422 1_565 S
C493 C495 1.321 . S
C493 H501 0.931 . S
C494 N492 1.343 . S
C494 C495 1.390 1_545 S
C494 H496 0.931 . S
C495 C493 1.321 . S
C495 C494 1.390 1_565 S
C495 H497 0.930 . S
H496 C494 0.931 . S
H497 C495 0.930 . S
H498 C521 0.931 . S
H499 C487 0.929 . S
H500 C522 0.930 . S
H501 C493 0.931 . S
H502 C483 0.930 1_565 S
H503 C512 0.929 . S
H504 C488 0.931 . S
H505 C489 0.930 . S
H506 C544 0.930 . S
H507 C485 0.929 . S
H508 C513 0.931 . S
H509 C514 0.930 . S
N510 Gd490 2.622 . S
N510 C511 1.369 . S
N510 C512 1.338 . S
C511 N510 1.369 . S
C511 C515 1.415 . S
C511 C518 1.422 . S
C512 H503 0.929 . S
C512 N510 1.338 . S
C512 C514 1.378 . S
C513 H508 0.931 . S
C513 C514 1.348 . S
C513 C515 1.413 . S
C514 H509 0.930 . S
C514 C512 1.378 . S
C514 C513 1.348 . S
C515 C511 1.415 . S
C515 C513 1.413 . S
C515 C545 1.437 . S
H516 C545 0.929 . S
N517 Gd490 2.570 . S
N517 C518 1.359 . S
N517 C521 1.343 . S
C518 C511 1.422 . S
C518 N517 1.359 . S
C518 C520 1.421 . S
C519 C520 1.422 . S
C519 C522 1.321 . S
C519 H546 0.931 . S
C520 C518 1.421 . S
C520 C519 1.422 . S
C520 C544 1.417 . S
C521 H498 0.931 . S
C521 N517 1.343 . S
C521 C522 1.390 . S
C522 H500 0.930 . S
C522 C519 1.321 . S
C522 C521 1.390 . S
O523 Gd491 2.386 . S
O523 C535 1.265 . S
O524 Gd490 2.353 1_655 S
O524 C535 1.242 . S
O525 Gd490 2.468 . S
O525 C543 1.263 . S
O526 Gd490 2.427 . S
O526 C543 1.252 . S
O527 Gd491 2.307 1_455 S
O527 C536 1.261 . S
O528 Gd490 2.388 . S
O528 C536 1.252 . S
O529 Gd490 2.386 . S
O529 C547 1.265 . S
O530 Gd491 2.353 1_455 S
O530 C547 1.242 . S
O531 Gd491 2.468 . S
O531 C555 1.263 . S
O532 Gd491 2.427 . S
O532 C555 1.252 . S
O533 Gd490 2.307 1_655 S
O533 C548 1.261 . S
O534 Gd491 2.388 . S
O534 C548 1.252 . S
C535 O523 1.265 . S
C535 O524 1.242 . S
C536 O527 1.261 . S
C536 O528 1.252 . S
C537 C540 1.394 . S
C537 C542 1.370 . S
C537 C543 1.500 . S
C538 C541 1.383 . S
C538 C542 1.395 . S
C539 C540 1.396 . S
C539 C541 1.365 . S
C539 H556 0.929 . S
C540 C537 1.394 . S
C540 C539 1.396 . S
C540 H557 0.930 . S
C541 C538 1.383 . S
C541 C539 1.365 . S
C541 H558 0.931 . S
C542 C537 1.370 . S
C542 C538 1.395 . S
C542 H559 0.930 . S
C543 Gd490 2.805 . S
C543 O525 1.263 . S
C543 O526 1.252 . S
C543 C537 1.500 . S
C544 H506 0.930 . S
C544 C520 1.417 . S
C544 C545 1.329 . S
C545 C515 1.437 . S
C545 H516 0.929 . S
C545 C544 1.329 . S
H546 C519 0.931 . S
C547 O529 1.265 . S
C547 O530 1.242 . S
C548 O533 1.261 . S
C548 O534 1.252 . S
C549 C552 1.394 . S
C549 C554 1.370 . S
C549 C555 1.500 . S
C550 C553 1.383 . S
C550 C554 1.395 . S
C551 C552 1.396 . S
C551 C553 1.365 . S
C551 H560 0.929 . S
C552 C549 1.394 . S
C552 C551 1.396 . S
C552 H561 0.930 . S
C553 C550 1.383 . S
C553 C551 1.365 . S
C553 H562 0.931 . S
C554 C549 1.370 . S
C554 C550 1.395 . S
C554 H563 0.930 . S
C555 Gd491 2.805 . S
C555 O531 1.263 . S
C555 O532 1.252 . S
C555 C549 1.500 . S
H556 C539 0.929 . S
H557 C540 0.930 . S
H558 C541 0.931 . S
H559 C542 0.930 . S
H560 C551 0.929 . S
H561 C552 0.930 . S
H562 C553 0.931 . S
H563 C554 0.930 . S
C564 C566 1.422 . S
C564 C568 1.415 . S
C564 N570 1.369 . S
C565 C566 1.421 . S
C565 C567 1.417 . S
C565 C577 1.422 . S
C566 C564 1.422 . S
C566 C565 1.421 . S
C566 N576 1.359 . S
C567 C565 1.417 . S
C567 C569 1.329 . S
C567 H586 0.930 . S
C568 C564 1.415 . S
C568 C569 1.437 . S
C568 C572 1.413 . S
C569 C567 1.329 . S
C569 C568 1.437 . S
C569 H591 0.929 . S
N570 C564 1.369 . S
N570 C571 1.338 . S
N570 Gd575 2.622 . S
C571 N570 1.338 . S
C571 C573 1.378 . S
C571 H583 0.929 . S
C572 C568 1.413 . S
C572 C573 1.348 . S
C572 H588 0.931 . S
C573 C571 1.378 . S
C573 C572 1.348 . S
C573 H589 0.930 . S
Gd574 N594 2.622 . S
Gd574 N601 2.570 . S
Gd574 O608 2.353 . S
Gd574 O609 2.468 . S
Gd574 O610 2.427 . S
Gd574 O612 2.388 . S
Gd574 O613 2.386 . S
Gd574 O617 2.307 . S
Gd574 C627 2.805 . S
Gd575 N570 2.622 . S
Gd575 N576 2.570 . S
Gd575 O607 2.386 . S
Gd575 O611 2.307 . S
Gd575 O614 2.353 . S
Gd575 O615 2.468 . S
Gd575 O616 2.427 . S
Gd575 O618 2.388 . S
Gd575 C639 2.805 . S
N576 C566 1.359 . S
N576 Gd575 2.570 . S
N576 C578 1.343 . S
C577 C565 1.422 . S
C577 C579 1.321 . S
C577 H585 0.931 . S
C578 N576 1.343 . S
C578 C579 1.390 . S
C578 H580 0.931 . S
C579 C577 1.321 . S
C579 C578 1.390 . S
C579 H581 0.930 . S
H580 C578 0.931 . S
H581 C579 0.930 . S
H582 C605 0.931 . S
H583 C571 0.929 . S
H584 C606 0.930 . S
H585 C577 0.931 . S
H586 C567 0.930 . S
H587 C596 0.929 . S
H588 C572 0.931 . S
H589 C573 0.930 . S
H590 C628 0.930 . S
H591 C569 0.929 . S
H592 C597 0.931 . S
H593 C598 0.930 . S
N594 Gd574 2.622 . S
N594 C595 1.369 . S
N594 C596 1.338 . S
C595 N594 1.369 . S
C595 C599 1.415 . S
C595 C602 1.422 . S
C596 H587 0.929 . S
C596 N594 1.338 . S
C596 C598 1.378 . S
C597 H592 0.931 . S
C597 C598 1.348 . S
C597 C599 1.413 . S
C598 H593 0.930 . S
C598 C596 1.378 . S
C598 C597 1.348 . S
C599 C595 1.415 . S
C599 C597 1.413 . S
C599 C629 1.437 . S
H600 C629 0.929 . S
N601 Gd574 2.570 . S
N601 C602 1.359 . S
N601 C605 1.343 . S
C602 C595 1.422 . S
C602 N601 1.359 . S
C602 C604 1.421 . S
C603 C604 1.422 . S
C603 C606 1.321 . S
C603 H630 0.931 . S
C604 C602 1.421 . S
C604 C603 1.422 . S
C604 C628 1.417 . S
C605 H582 0.931 . S
C605 N601 1.343 . S
C605 C606 1.390 . S
C606 H584 0.930 . S
C606 C603 1.321 . S
C606 C605 1.390 . S
O607 Gd575 2.386 . S
O607 C619 1.265 . S
O608 Gd574 2.353 . S
O608 C619 1.242 . S
O609 Gd574 2.468 . S
O609 C627 1.263 . S
O610 Gd574 2.427 . S
O610 C627 1.252 . S
O611 Gd575 2.307 . S
O611 C620 1.261 . S
O612 Gd574 2.388 . S
O612 C620 1.252 . S
O613 Gd574 2.386 . S
O613 C631 1.265 . S
O614 Gd575 2.353 . S
O614 C631 1.242 . S
O615 Gd575 2.468 . S
O615 C639 1.263 . S
O616 Gd575 2.427 . S
O616 C639 1.252 . S
O617 Gd574 2.307 . S
O617 C632 1.261 . S
O618 Gd575 2.388 . S
O618 C632 1.252 . S
C619 O607 1.265 . S
C619 O608 1.242 . S
C620 O611 1.261 . S
C620 O612 1.252 . S
C621 C624 1.394 . S
C621 C626 1.370 . S
C621 C627 1.500 . S
C622 C625 1.383 . S
C622 C626 1.395 . S
C623 C624 1.396 . S
C623 C625 1.365 . S
C623 H640 0.929 . S
C624 C621 1.394 . S
C624 C623 1.396 . S
C624 H641 0.930 . S
C625 C622 1.383 . S
C625 C623 1.365 . S
C625 H642 0.931 . S
C626 C621 1.370 . S
C626 C622 1.395 . S
C626 H643 0.930 . S
C627 Gd574 2.805 . S
C627 O609 1.263 . S
C627 O610 1.252 . S
C627 C621 1.500 . S
C628 H590 0.930 . S
C628 C604 1.417 . S
C628 C629 1.329 . S
C629 C599 1.437 . S
C629 H600 0.929 . S
C629 C628 1.329 . S
H630 C603 0.931 . S
C631 O613 1.265 . S
C631 O614 1.242 . S
C632 O617 1.261 . S
C632 O618 1.252 . S
C633 C636 1.394 . S
C633 C638 1.370 . S
C633 C639 1.500 . S
C634 C637 1.383 . S
C634 C638 1.395 . S
C635 C636 1.396 . S
C635 C637 1.365 . S
C635 H644 0.929 . S
C636 C633 1.394 . S
C636 C635 1.396 . S
C636 H645 0.930 . S
C637 C634 1.383 . S
C637 C635 1.365 . S
C637 H646 0.931 . S
C638 C633 1.370 . S
C638 C634 1.395 . S
C638 H647 0.930 . S
C639 Gd575 2.805 . S
C639 O615 1.263 . S
C639 O616 1.252 . S
C639 C633 1.500 . S
H640 C623 0.929 . S
H641 C624 0.930 . S
H642 C625 0.931 . S
H643 C626 0.930 . S
H644 C635 0.929 . S
H645 C636 0.930 . S
H646 C637 0.931 . S
H647 C638 0.930 . S
C648 C650 1.422 . S
C648 C652 1.415 . S
C648 N654 1.369 . S
C649 C650 1.421 . S
C649 C651 1.417 . S
C649 C661 1.422 . S
C650 C648 1.422 . S
C650 C649 1.421 . S
C650 N660 1.359 . S
C651 C649 1.417 . S
C651 C653 1.329 . S
C651 H670 0.930 . S
C652 C648 1.415 . S
C652 C653 1.437 . S
C652 C656 1.413 . S
C653 C651 1.329 . S
C653 C652 1.437 . S
C653 H675 0.929 . S
N654 C648 1.369 . S
N654 C655 1.338 . S
N654 Gd659 2.622 . S
C655 N654 1.338 . S
C655 C657 1.378 . S
C655 H667 0.929 . S
C656 C652 1.413 . S
C656 C657 1.348 . S
C656 H672 0.931 . S
C657 C655 1.378 . S
C657 C656 1.348 . S
C657 H673 0.930 . S
Gd658 N678 2.622 . S
Gd658 N685 2.570 . S
Gd658 O692 2.353 . S
Gd658 O693 2.468 . S
Gd658 O694 2.427 . S
Gd658 O696 2.388 . S
Gd658 O697 2.386 . S
Gd658 O701 2.307 . S
Gd658 C711 2.805 . S
Gd659 N654 2.622 . S
Gd659 N660 2.570 . S
Gd659 O691 2.386 . S
Gd659 O695 2.307 1_655 S
Gd659 O698 2.353 1_655 S
Gd659 O699 2.468 . S
Gd659 O700 2.427 . S
Gd659 O702 2.388 . S
Gd659 C723 2.805 . S
N660 C650 1.359 . S
N660 Gd659 2.570 . S
N660 C662 1.343 . S
C661 C649 1.422 . S
C661 C663 1.321 . S
C661 H669 0.931 . S
C662 N660 1.343 . S
C662 C663 1.390 . S
C662 H664 0.931 . S
C663 C661 1.321 . S
C663 C662 1.390 . S
C663 H665 0.930 . S
H664 C662 0.931 . S
H665 C663 0.930 . S
H666 C689 0.931 . S
H667 C655 0.929 . S
H668 C690 0.930 . S
H669 C661 0.931 . S
H670 C651 0.930 . S
H671 C680 0.929 . S
H672 C656 0.931 . S
H673 C657 0.930 . S
H674 C712 0.930 1_545 S
H675 C653 0.929 . S
H676 C681 0.931 . S
H677 C682 0.930 . S
N678 Gd658 2.622 . S
N678 C679 1.369 . S
N678 C680 1.338 . S
C679 N678 1.369 . S
C679 C683 1.415 . S
C679 C686 1.422 . S
C680 H671 0.929 . S
C680 N678 1.338 . S
C680 C682 1.378 . S
C681 H676 0.931 . S
C681 C682 1.348 . S
C681 C683 1.413 . S
C682 H677 0.930 . S
C682 C680 1.378 . S
C682 C681 1.348 . S
C683 C679 1.415 . S
C683 C681 1.413 . S
C683 C713 1.437 . S
H684 C713 0.929 . S
N685 Gd658 2.570 . S
N685 C686 1.359 . S
N685 C689 1.343 . S
C686 C679 1.422 . S
C686 N685 1.359 . S
C686 C688 1.421 . S
C687 C688 1.422 1_545 S
C687 C690 1.321 . S
C687 H714 0.931 . S
C688 C686 1.421 . S
C688 C687 1.422 1_565 S
C688 C712 1.417 . S
C689 H666 0.931 . S
C689 N685 1.343 . S
C689 C690 1.390 1_565 S
C690 H668 0.930 . S
C690 C687 1.321 . S
C690 C689 1.390 1_545 S
O691 Gd659 2.386 . S
O691 C703 1.265 . S
O692 Gd658 2.353 . S
O692 C703 1.242 1_455 S
O693 Gd658 2.468 . S
O693 C711 1.263 . S
O694 Gd658 2.427 . S
O694 C711 1.252 . S
O695 Gd659 2.307 1_455 S
O695 C704 1.261 . S
O696 Gd658 2.388 . S
O696 C704 1.252 . S
O697 Gd658 2.386 . S
O697 C715 1.265 . S
O698 Gd659 2.353 1_455 S
O698 C715 1.242 . S
O699 Gd659 2.468 . S
O699 C723 1.263 . S
O700 Gd659 2.427 . S
O700 C723 1.252 . S
O701 Gd658 2.307 . S
O701 C716 1.261 1_455 S
O702 Gd659 2.388 . S
O702 C716 1.252 . S
C703 O691 1.265 . S
C703 O692 1.242 1_655 S
C704 O695 1.261 . S
C704 O696 1.252 . S
C705 C708 1.394 . S
C705 C710 1.370 . S
C705 C711 1.500 . S
C706 C709 1.383 . S
C706 C710 1.395 . S
C707 C708 1.396 . S
C707 C709 1.365 . S
C707 H724 0.929 . S
C708 C705 1.394 . S
C708 C707 1.396 . S
C708 H725 0.930 . S
C709 C706 1.383 . S
C709 C707 1.365 . S
C709 H726 0.931 . S
C710 C705 1.370 . S
C710 C706 1.395 . S
C710 H727 0.930 . S
C711 Gd658 2.805 . S
C711 O693 1.263 . S
C711 O694 1.252 . S
C711 C705 1.500 . S
C712 H674 0.930 1_565 S
C712 C688 1.417 . S
C712 C713 1.329 . S
C713 C683 1.437 . S
C713 H684 0.929 . S
C713 C712 1.329 . S
H714 C687 0.931 . S
C715 O697 1.265 . S
C715 O698 1.242 . S
C716 O701 1.261 1_655 S
C716 O702 1.252 . S
C717 C720 1.394 . S
C717 C722 1.370 . S
C717 C723 1.500 . S
C718 C721 1.383 . S
C718 C722 1.395 . S
C719 C720 1.396 . S
C719 C721 1.365 . S
C719 H728 0.929 . S
C720 C717 1.394 . S
C720 C719 1.396 . S
C720 H729 0.930 . S
C721 C718 1.383 . S
C721 C719 1.365 . S
C721 H730 0.931 . S
C722 C717 1.370 . S
C722 C718 1.395 . S
C722 H731 0.930 . S
C723 Gd659 2.805 . S
C723 O699 1.263 . S
C723 O700 1.252 . S
C723 C717 1.500 . S
H724 C707 0.929 . S
H725 C708 0.930 . S
H726 C709 0.931 . S
H727 C710 0.930 . S
H728 C719 0.929 . S
H729 C720 0.930 . S
H730 C721 0.931 . S
H731 C722 0.930 . S
C732 C734 1.422 . S
C732 C736 1.415 . S
C732 N738 1.369 . S
C733 C734 1.421 . S
C733 C735 1.417 . S
C733 C745 1.422 . S
C734 C732 1.422 . S
C734 C733 1.421 . S
C734 N744 1.359 . S
C735 C733 1.417 . S
C735 C737 1.329 . S
C735 H754 0.930 . S
C736 C732 1.415 . S
C736 C737 1.437 . S
C736 C740 1.413 . S
C737 C735 1.329 . S
C737 C736 1.437 . S
C737 H759 0.929 . S
N738 C732 1.369 . S
N738 C739 1.338 . S
N738 Gd743 2.622 . S
C739 N738 1.338 . S
C739 C741 1.378 . S
C739 H751 0.929 . S
C740 C736 1.413 . S
C740 C741 1.348 . S
C740 H756 0.931 . S
C741 C739 1.378 . S
C741 C740 1.348 . S
C741 H757 0.930 . S
Gd742 N762 2.622 . S
Gd742 N769 2.570 . S
Gd742 O776 2.353 . S
Gd742 O777 2.468 . S
Gd742 O778 2.427 . S
Gd742 O780 2.388 . S
Gd742 O781 2.386 . S
Gd742 O785 2.307 . S
Gd742 C795 2.805 . S
Gd743 N738 2.622 . S
Gd743 N744 2.570 . S
Gd743 O775 2.386 . S
Gd743 O779 2.307 . S
Gd743 O782 2.353 . S
Gd743 O783 2.468 . S
Gd743 O784 2.427 . S
Gd743 O786 2.388 . S
Gd743 C807 2.805 . S
N744 C734 1.359 . S
N744 Gd743 2.570 . S
N744 C746 1.343 . S
C745 C733 1.422 . S
C745 C747 1.321 . S
C745 H753 0.931 . S
C746 N744 1.343 . S
C746 C747 1.390 . S
C746 H748 0.931 . S
C747 C745 1.321 . S
C747 C746 1.390 . S
C747 H749 0.930 . S
H748 C746 0.931 . S
H749 C747 0.930 . S
H750 C773 0.931 . S
H751 C739 0.929 . S
H752 C774 0.930 . S
H753 C745 0.931 . S
H754 C735 0.930 . S
H755 C764 0.929 . S
H756 C740 0.931 . S
H757 C741 0.930 . S
H758 C796 0.930 . S
H759 C737 0.929 . S
H760 C765 0.931 . S
H761 C766 0.930 . S
N762 Gd742 2.622 . S
N762 C763 1.369 . S
N762 C764 1.338 . S
C763 N762 1.369 . S
C763 C767 1.415 . S
C763 C770 1.422 . S
C764 H755 0.929 . S
C764 N762 1.338 . S
C764 C766 1.378 . S
C765 H760 0.931 . S
C765 C766 1.348 . S
C765 C767 1.413 . S
C766 H761 0.930 . S
C766 C764 1.378 . S
C766 C765 1.348 . S
C767 C763 1.415 . S
C767 C765 1.413 . S
C767 C797 1.437 . S
H768 C797 0.929 . S
N769 Gd742 2.570 . S
N769 C770 1.359 . S
N769 C773 1.343 . S
C770 C763 1.422 . S
C770 N769 1.359 . S
C770 C772 1.421 . S
C771 C772 1.422 . S
C771 C774 1.321 . S
C771 H798 0.931 . S
C772 C770 1.421 . S
C772 C771 1.422 . S
C772 C796 1.417 . S
C773 H750 0.931 . S
C773 N769 1.343 . S
C773 C774 1.390 . S
C774 H752 0.930 . S
C774 C771 1.321 . S
C774 C773 1.390 . S
O775 Gd743 2.386 . S
O775 C787 1.265 . S
O776 Gd742 2.353 . S
O776 C787 1.242 . S
O777 Gd742 2.468 . S
O777 C795 1.263 . S
O778 Gd742 2.427 . S
O778 C795 1.252 . S
O779 Gd743 2.307 . S
O779 C788 1.261 . S
O780 Gd742 2.388 . S
O780 C788 1.252 . S
O781 Gd742 2.386 . S
O781 C799 1.265 . S
O782 Gd743 2.353 . S
O782 C799 1.242 . S
O783 Gd743 2.468 . S
O783 C807 1.263 . S
O784 Gd743 2.427 . S
O784 C807 1.252 . S
O785 Gd742 2.307 . S
O785 C800 1.261 . S
O786 Gd743 2.388 . S
O786 C800 1.252 . S
C787 O775 1.265 . S
C787 O776 1.242 . S
C788 O779 1.261 . S
C788 O780 1.252 . S
C789 C792 1.394 . S
C789 C794 1.370 . S
C789 C795 1.500 . S
C790 C793 1.383 . S
C790 C794 1.395 . S
C791 C792 1.396 . S
C791 C793 1.365 . S
C791 H808 0.929 . S
C792 C789 1.394 . S
C792 C791 1.396 . S
C792 H809 0.930 . S
C793 C790 1.383 . S
C793 C791 1.365 . S
C793 H810 0.931 . S
C794 C789 1.370 . S
C794 C790 1.395 . S
C794 H811 0.930 . S
C795 Gd742 2.805 . S
C795 O777 1.263 . S
C795 O778 1.252 . S
C795 C789 1.500 . S
C796 H758 0.930 . S
C796 C772 1.417 . S
C796 C797 1.329 . S
C797 C767 1.437 . S
C797 H768 0.929 . S
C797 C796 1.329 . S
H798 C771 0.931 . S
C799 O781 1.265 . S
C799 O782 1.242 . S
C800 O785 1.261 . S
C800 O786 1.252 . S
C801 C804 1.394 . S
C801 C806 1.370 . S
C801 C807 1.500 . S
C802 C805 1.383 . S
C802 C806 1.395 . S
C803 C804 1.396 . S
C803 C805 1.365 . S
C803 H812 0.929 . S
C804 C801 1.394 . S
C804 C803 1.396 . S
C804 H813 0.930 . S
C805 C802 1.383 . S
C805 C803 1.365 . S
C805 H814 0.931 . S
C806 C801 1.370 . S
C806 C802 1.395 . S
C806 H815 0.930 . S
C807 Gd743 2.805 . S
C807 O783 1.263 . S
C807 O784 1.252 . S
C807 C801 1.500 . S
H808 C791 0.929 . S
H809 C792 0.930 . S
H810 C793 0.931 . S
H811 C794 0.930 . S
H812 C803 0.929 . S
H813 C804 0.930 . S
H814 C805 0.931 . S
H815 C806 0.930 . S
C361 C536 1.456 . S
C620 C451 1.449 . S
C619 C241 1.423 . S
C331 C535 1.483 . S
C716 C140 1.368 . S
C800 C211 1.368 . S
C20 C799 1.401 . S
C91 C715 1.401 . S
C538 C80 1.171 . S
C622 C1 1.171 . S
C634 C200 1.553 . S
C550 C121 1.553 . S
C718 C320 1.177 . S
C260 C802 1.215 . S
C790 C440 1.598 . S
C380 C706 1.347 . S
C547 C31 1.689 . S
C631 C61 1.689 . S
C151 C632 1.755 . S
C548 C181 1.755 . S
C703 C271 1.555 . S
C301 C787 1.803 . S
C391 C788 1.534 . S
C421 C704 1.837 . S
