# Generated by pormake.
# Topology nom, (4,4)-cn, num edge types: 1
# Building blocks:
#     Node 0, Type 0, BuildingBlock: MIFKUJ_clean_linker_1, # of connection points: 4
#     Node 1, Type 0, BuildingBlock: MIFKUJ_clean_linker_1, # of connection points: 4
#     Node 2, Type 0, BuildingBlock: MIFKUJ_clean_linker_1, # of connection points: 4
#     Node 3, Type 0, BuildingBlock: MIFKUJ_clean_linker_1, # of connection points: 4
#     Node 4, Type 0, BuildingBlock: MIFKUJ_clean_linker_1, # of connection points: 4
#     Node 5, Type 0, BuildingBlock: MIFKUJ_clean_linker_1, # of connection points: 4
#     Node 6, Type 1, BuildingBlock: CEKHIL_clean_sbu_0, # of connection points: 4
#     Node 7, Type 1, BuildingBlock: CEKHIL_clean_sbu_0, # of connection points: 4
#     Node 8, Type 1, BuildingBlock: CEKHIL_clean_sbu_0, # of connection points: 4
#     Node 9, Type 1, BuildingBlock: CEKHIL_clean_sbu_0, # of connection points: 4
#     Node 10, Type 1, BuildingBlock: CEKHIL_clean_sbu_0, # of connection points: 4
#     Node 11, Type 1, BuildingBlock: CEKHIL_clean_sbu_0, # of connection points: 4
#     Edge 12, Type (0, 1), BuildingBlock: ZUJKAS_clean_linker_0, # of connection points: 2
#     Edge 13, Type (0, 1), BuildingBlock: ZUJKAS_clean_linker_0, # of connection points: 2
#     Edge 14, Type (0, 1), BuildingBlock: ZUJKAS_clean_linker_0, # of connection points: 2
#     Edge 15, Type (0, 1), BuildingBlock: ZUJKAS_clean_linker_0, # of connection points: 2
#     Edge 16, Type (0, 1), BuildingBlock: ZUJKAS_clean_linker_0, # of connection points: 2
#     Edge 17, Type (0, 1), BuildingBlock: ZUJKAS_clean_linker_0, # of connection points: 2
#     Edge 18, Type (0, 1), BuildingBlock: ZUJKAS_clean_linker_0, # of connection points: 2
#     Edge 19, Type (0, 1), BuildingBlock: ZUJKAS_clean_linker_0, # of connection points: 2
#     Edge 20, Type (0, 1), BuildingBlock: ZUJKAS_clean_linker_0, # of connection points: 2
#     Edge 21, Type (0, 1), BuildingBlock: ZUJKAS_clean_linker_0, # of connection points: 2
#     Edge 22, Type (0, 1), BuildingBlock: ZUJKAS_clean_linker_0, # of connection points: 2
#     Edge 23, Type (0, 1), BuildingBlock: ZUJKAS_clean_linker_0, # of connection points: 2
#     Edge 24, Type (0, 1), BuildingBlock: ZUJKAS_clean_linker_0, # of connection points: 2
#     Edge 25, Type (0, 1), BuildingBlock: ZUJKAS_clean_linker_0, # of connection points: 2
#     Edge 26, Type (0, 1), BuildingBlock: ZUJKAS_clean_linker_0, # of connection points: 2
#     Edge 27, Type (0, 1), BuildingBlock: ZUJKAS_clean_linker_0, # of connection points: 2
#     Edge 28, Type (0, 1), BuildingBlock: ZUJKAS_clean_linker_0, # of connection points: 2
#     Edge 29, Type (0, 1), BuildingBlock: ZUJKAS_clean_linker_0, # of connection points: 2
#     Edge 30, Type (0, 1), BuildingBlock: ZUJKAS_clean_linker_0, # of connection points: 2
#     Edge 31, Type (0, 1), BuildingBlock: ZUJKAS_clean_linker_0, # of connection points: 2
#     Edge 32, Type (0, 1), BuildingBlock: ZUJKAS_clean_linker_0, # of connection points: 2
#     Edge 33, Type (0, 1), BuildingBlock: ZUJKAS_clean_linker_0, # of connection points: 2
#     Edge 34, Type (0, 1), BuildingBlock: ZUJKAS_clean_linker_0, # of connection points: 2
#     Edge 35, Type (0, 1), BuildingBlock: ZUJKAS_clean_linker_0, # of connection points: 2
# Relax obj value: 0.002
# Max RMSD: 0.099
# Mean RMSD: 0.066
data_MOF--net-nom--node1-CEKHIL_clean_sbu_0--node2-MIFKUJ_clean_linker_1--edge1-ZUJKAS_clean_linker_0
_symmetry_space_group_name_H-M    P1
_symmetry_Int_Tables_number       1
_symmetry_cell_setting            triclinic
loop_
_symmetry_equiv_pos_as_xyz
'x, y, z'
_cell_length_a     66.844449
_cell_length_b     66.16001
_cell_length_c     70.365144
_cell_angle_alpha  89.959491
_cell_angle_beta   90.01982
_cell_angle_gamma 120.95372
loop_
_atom_site_label
_atom_site_type_symbol
_atom_site_fract_x
_atom_site_fract_y
_atom_site_fract_z
_atom_type_partial_charge
H0 H 0.98931 0.48297 0.28956 0.0
H1 H 0.96213 0.46941 0.26283 0.0
H2 H 0.9372 0.51506 0.28081 0.0
H3 H 0.9651 0.52922 0.3071 0.0
H4 H 0.02537 0.52718 0.29834 0.0
H5 H 0.95047 0.46919 0.3284 0.0
H6 H 0.90952 0.45434 0.33618 0.0
H7 H 0.92906 0.52146 0.36175 0.0
H8 H 0.96988 0.53584 0.35436 0.0
H9 H 0.0332 0.55806 0.37735 0.0
H10 H 0.06029 0.56884 0.40397 0.0
H11 H 0.08827 0.52883 0.37903 0.0
H12 H 0.06045 0.5173 0.3529 0.0
H13 H 0.99854 0.5186 0.36519 0.0
H14 H 0.0675 0.57852 0.33764 0.0
H15 H 0.10884 0.60168 0.32932 0.0
H16 H 0.10225 0.54257 0.29776 0.0
H17 H 0.0608 0.51929 0.30635 0.0
C18 C 0.97904 0.50687 0.30049 0.0
C19 C 0.97806 0.49013 0.28769 0.0
C20 C 0.96236 0.48225 0.2725 0.0
C21 C 0.94732 0.491 0.26974 0.0
C22 C 0.94862 0.50807 0.28243 0.0
C23 C 0.96439 0.51599 0.2976 0.0
C24 C 0.99555 0.51479 0.31675 0.0
C25 C 0.01947 0.52491 0.31297 0.0
C26 C 0.98802 0.51305 0.33581 0.0
C27 C 0.96319 0.50364 0.34076 0.0
C28 C 0.94587 0.48064 0.3357 0.0
C29 C 0.92245 0.47225 0.34008 0.0
C30 C 0.91591 0.4867 0.34959 0.0
C31 C 0.93342 0.50968 0.35471 0.0
C32 C 0.95679 0.51799 0.35043 0.0
C33 C 0.04488 0.53704 0.363 0.0
C34 C 0.04506 0.55149 0.37768 0.0
C35 C 0.06075 0.55783 0.3928 0.0
C36 C 0.0766 0.54983 0.39361 0.0
C37 C 0.07621 0.53516 0.37897 0.0
C38 C 0.06046 0.52877 0.36389 0.0
C39 C 0.02834 0.53047 0.3468 0.0
C40 C 0.00447 0.52067 0.35058 0.0
C41 C 0.03598 0.53339 0.3277 0.0
C42 C 0.06112 0.54712 0.32274 0.0
C43 C 0.07499 0.57047 0.32905 0.0
C44 C 0.09856 0.58375 0.32417 0.0
C45 C 0.10877 0.57394 0.31287 0.0
C46 C 0.0949 0.5505 0.30663 0.0
C47 C 0.07122 0.53725 0.31141 0.0
H48 H 0.4387 0.95683 0.5187 0.0
H49 H 0.41553 0.91498 0.52669 0.0
H50 H 0.46514 0.90288 0.49729 0.0
H51 H 0.48858 0.94495 0.48961 0.0
H52 H 0.48189 0.99017 0.52756 0.0
H53 H 0.44083 0.95213 0.46901 0.0
H54 H 0.42996 0.92421 0.44273 0.0
H55 H 0.50245 0.95717 0.42649 0.0
H56 H 0.51319 0.98502 0.4528 0.0
H57 H 0.54336 0.05612 0.47024 0.0
H58 H 0.56058 0.09794 0.46219 0.0
H59 H 0.50337 0.09835 0.49034 0.0
H60 H 0.4862 0.05663 0.4982 0.0
H61 H 0.50077 0.01752 0.46073 0.0
H62 H 0.54263 0.05619 0.516 0.0
H63 H 0.55662 0.08423 0.54221 0.0
H64 H 0.48692 0.0498 0.56559 0.0
H65 H 0.4728 0.02238 0.53874 0.0
C66 C 0.46526 0.95402 0.50338 0.0
C67 C 0.44472 0.94522 0.5141 0.0
C68 C 0.4315 0.92131 0.51867 0.0
C69 C 0.4385 0.90567 0.51256 0.0
C70 C 0.45918 0.9145 0.50197 0.0
C71 C 0.47257 0.93851 0.49758 0.0
C72 C 0.47877 0.97941 0.49827 0.0
C73 C 0.48575 0.99613 0.51293 0.0
C74 C 0.4847 0.98722 0.47922 0.0
C75 C 0.47786 0.97052 0.46302 0.0
C76 C 0.45439 0.95324 0.45986 0.0
C77 C 0.44821 0.93724 0.44486 0.0
C78 C 0.46535 0.93837 0.43256 0.0
C79 C 0.4888 0.95594 0.43559 0.0
C80 C 0.49497 0.97186 0.45064 0.0
C81 C 0.5136 0.05334 0.4849 0.0
C82 C 0.53453 0.06524 0.47461 0.0
C83 C 0.54442 0.08913 0.47016 0.0
C84 C 0.53331 0.10138 0.47567 0.0
C85 C 0.51221 0.08932 0.48578 0.0
C86 C 0.50248 0.06554 0.49038 0.0
C87 C 0.50321 0.02814 0.48998 0.0
C88 C 0.49691 0.01151 0.47536 0.0
C89 C 0.49817 0.0204 0.50907 0.0
C90 C 0.50659 0.03732 0.52523 0.0
C91 C 0.53027 0.05484 0.52662 0.0
C92 C 0.53831 0.07072 0.54178 0.0
C93 C 0.52292 0.06927 0.55608 0.0
C94 C 0.4992 0.05162 0.55472 0.0
C95 C 0.49114 0.03579 0.53947 0.0
H96 H 0.51008 0.52251 0.70253 0.0
H97 H 0.4968 0.53647 0.72905 0.0
H98 H 0.42554 0.49259 0.71011 0.0
H99 H 0.43895 0.47855 0.68363 0.0
H100 H 0.49985 0.47804 0.6938 0.0
H101 H 0.48635 0.53765 0.66299 0.0
H102 H 0.46096 0.55285 0.65458 0.0
H103 H 0.41256 0.48609 0.62829 0.0
H104 H 0.43831 0.47138 0.6363 0.0
H105 H 0.48023 0.44855 0.61431 0.0
H106 H 0.49815 0.4388 0.58839 0.0
H107 H 0.56578 0.48148 0.61465 0.0
H108 H 0.54764 0.49071 0.64068 0.0
H109 H 0.48508 0.48864 0.62647 0.0
H110 H 0.49131 0.42783 0.653 0.0
H111 H 0.50695 0.4032 0.66238 0.0
H112 H 0.55808 0.45959 0.69776 0.0
H113 H 0.54203 0.48412 0.68844 0.0
C114 C 0.47557 0.4997 0.69095 0.0
C115 C 0.49158 0.51583 0.70412 0.0
C116 C 0.48396 0.52373 0.71931 0.0
C117 C 0.46011 0.51564 0.72169 0.0
C118 C 0.44405 0.49939 0.70852 0.0
C119 C 0.4517 0.49137 0.69338 0.0
C120 C 0.48402 0.49148 0.6749 0.0
C121 C 0.497 0.48076 0.67907 0.0
C122 C 0.47905 0.49366 0.6557 0.0
C123 C 0.46417 0.50337 0.65032 0.0
C124 C 0.47028 0.52637 0.65538 0.0
C125 C 0.45566 0.53496 0.65064 0.0
C126 C 0.43464 0.52071 0.64075 0.0
C127 C 0.42875 0.49774 0.63561 0.0
C128 C 0.44341 0.48924 0.64024 0.0
C129 C 0.51254 0.4702 0.62952 0.0
C130 C 0.49892 0.45583 0.61444 0.0
C131 C 0.50924 0.45036 0.59958 0.0
C132 C 0.53346 0.45935 0.59939 0.0
C133 C 0.54705 0.47391 0.61447 0.0
C134 C 0.53671 0.47927 0.62935 0.0
C135 C 0.50166 0.47601 0.64537 0.0
C136 C 0.48817 0.48615 0.64119 0.0
C137 C 0.50527 0.47235 0.66458 0.0
C138 C 0.51566 0.45794 0.66984 0.0
C139 C 0.5061 0.43504 0.66258 0.0
C140 C 0.5151 0.42095 0.66795 0.0
C141 C 0.53386 0.42941 0.68078 0.0
C142 C 0.54346 0.45241 0.68802 0.0
C143 C 0.53438 0.4665 0.68265 0.0
H144 H 0.03485 0.52465 0.78931 0.0
H145 H 0.06219 0.53854 0.76269 0.0
H146 H 0.08712 0.49278 0.78045 0.0
H147 H 0.05905 0.47831 0.80665 0.0
H148 H 0.99875 0.48037 0.79806 0.0
H149 H 0.0739 0.5383 0.82809 0.0
H150 H 0.11479 0.55296 0.83596 0.0
H151 H 0.09491 0.48563 0.86137 0.0
H152 H 0.05414 0.47146 0.85391 0.0
H153 H 0.98982 0.44955 0.87709 0.0
H154 H 0.96231 0.43928 0.90336 0.0
H155 H 0.93819 0.48291 0.87886 0.0
H156 H 0.96553 0.49286 0.85255 0.0
H157 H 0.0258 0.48936 0.86489 0.0
H158 H 0.95637 0.42995 0.8384 0.0
H159 H 0.91506 0.40698 0.83043 0.0
H160 H 0.92203 0.46551 0.79755 0.0
H161 H 0.96367 0.48831 0.80537 0.0
C162 C 0.0451 0.50068 0.80013 0.0
C163 C 0.04612 0.51752 0.78741 0.0
C164 C 0.06192 0.52559 0.77228 0.0
C165 C 0.07703 0.51694 0.76951 0.0
C166 C 0.07565 0.49971 0.78209 0.0
C167 C 0.05978 0.4916 0.7972 0.0
C168 C 0.02862 0.49273 0.81642 0.0
C169 C 0.0047 0.48271 0.81268 0.0
C170 C 0.03621 0.49452 0.83547 0.0
C171 C 0.06102 0.50378 0.84038 0.0
C172 C 0.07842 0.52676 0.83537 0.0
C173 C 0.1018 0.53505 0.8398 0.0
C174 C 0.10823 0.52048 0.8493 0.0
C175 C 0.09064 0.49749 0.85434 0.0
C176 C 0.0673 0.4893 0.85002 0.0
C177 C 0.97962 0.47181 0.86274 0.0
C178 C 0.97868 0.45698 0.87743 0.0
C179 C 0.96297 0.45119 0.89248 0.0
C180 C 0.94797 0.46023 0.89324 0.0
C181 C 0.94917 0.4753 0.87859 0.0
C182 C 0.96485 0.48106 0.86355 0.0
C183 C 0.99601 0.47769 0.84655 0.0
C184 C 0.01984 0.48721 0.85028 0.0
C185 C 0.98826 0.47455 0.82747 0.0
C186 C 0.96306 0.46095 0.82266 0.0
C187 C 0.94897 0.43793 0.82961 0.0
C188 C 0.92529 0.42483 0.82509 0.0
C189 C 0.91512 0.43443 0.81346 0.0
C190 C 0.92932 0.45748 0.8064 0.0
C191 C 0.9531 0.47058 0.8109 0.0
H192 H 0.58729 0.05155 0.01663 0.0
H193 H 0.61137 0.09358 0.02371 0.0
H194 H 0.5602 0.10556 0.99686 0.0
H195 H 0.53586 0.06331 0.99026 0.0
H196 H 0.54273 0.01887 0.02771 0.0
H197 H 0.58374 0.05413 0.96855 0.0
H198 H 0.59533 0.08194 0.94212 0.0
H199 H 0.52295 0.05113 0.92614 0.0
H200 H 0.51146 0.02387 0.95301 0.0
H201 H 0.48131 0.95289 0.96922 0.0
H202 H 0.46329 0.91091 0.9617 0.0
H203 H 0.51671 0.90816 0.99417 0.0
H204 H 0.53463 0.94998 1.00156 0.0
H205 H 0.52272 0.99001 0.96133 0.0
H206 H 0.48054 0.95397 0.01732 0.0
H207 H 0.46594 0.9265 0.044 0.0
H208 H 0.53588 0.95858 0.06657 0.0
H209 H 0.55053 0.98559 0.03941 0.0
C210 C 0.55988 0.05434 0.0028 0.0
C211 C 0.5812 0.06322 0.01237 0.0
C212 C 0.59504 0.08727 0.01623 0.0
C213 C 0.58778 0.10294 0.0107 0.0
C214 C 0.56622 0.09394 1.00138 0.0
C215 C 0.55237 0.06984 0.99749 0.0
C216 C 0.54578 0.02887 0.99823 0.0
C217 C 0.53856 0.01253 0.01319 0.0
C218 C 0.53952 0.02067 0.97933 0.0
C219 C 0.54671 0.03709 0.9629 0.0
C220 C 0.57036 0.05348 0.95943 0.0
C221 C 0.57697 0.06924 0.9442 0.0
C222 C 0.56006 0.06883 0.93201 0.0
C223 C 0.53639 0.05219 0.9354 0.0
C224 C 0.52981 0.03644 0.95065 0.0
C225 C 0.50915 0.95452 0.98615 0.0
C226 C 0.48914 0.94323 0.97468 0.0
C227 C 0.47889 0.91926 0.97038 0.0
C228 C 0.48849 0.90618 0.97745 0.0
C229 C 0.50863 0.91761 0.98881 0.0
C230 C 0.51891 0.94154 0.99303 0.0
C231 C 0.52015 0.97996 0.99079 0.0
C232 C 0.52675 0.9963 0.97587 0.0
C233 C 0.52547 0.98818 0.00977 0.0
C234 C 0.51668 0.97173 0.02624 0.0
C235 C 0.49278 0.95498 0.02792 0.0
C236 C 0.48442 0.93942 0.0433 0.0
C237 C 0.49973 0.94035 0.05747 0.0
C238 C 0.52366 0.95721 0.05581 0.0
C239 C 0.53203 0.9728 0.04038 0.0
H240 H 0.51407 0.48543 0.20258 0.0
H241 H 0.5273 0.47172 0.22933 0.0
H242 H 0.59865 0.51596 0.2107 0.0
H243 H 0.58528 0.52971 0.18397 0.0
H244 H 0.52418 0.52989 0.19356 0.0
H245 H 0.53909 0.4708 0.16437 0.0
H246 H 0.56527 0.45623 0.15684 0.0
H247 H 0.6112 0.52131 0.12732 0.0
H248 H 0.58535 0.53595 0.13531 0.0
H249 H 0.54533 0.56012 0.11454 0.0
H250 H 0.5282 0.57059 0.08846 0.0
H251 H 0.45985 0.52753 0.11348 0.0
H252 H 0.47722 0.51765 0.13971 0.0
H253 H 0.53966 0.51931 0.12645 0.0
H254 H 0.53487 0.58084 0.15365 0.0
H255 H 0.51949 0.60591 0.16274 0.0
H256 H 0.46567 0.54881 0.19585 0.0
H257 H 0.48111 0.52365 0.18658 0.0
C258 C 0.54862 0.50838 0.19113 0.0
C259 C 0.53257 0.49224 0.20429 0.0
C260 C 0.54017 0.48449 0.21961 0.0
C261 C 0.56404 0.49275 0.22215 0.0
C262 C 0.58013 0.50903 0.20901 0.0
C263 C 0.57251 0.51689 0.19372 0.0
C264 C 0.5402 0.51641 0.17492 0.0
C265 C 0.52718 0.52715 0.17889 0.0
C266 C 0.54535 0.51419 0.15577 0.0
C267 C 0.56039 0.50456 0.15057 0.0
C268 C 0.55484 0.48192 0.15633 0.0
C269 C 0.56974 0.47356 0.1519 0.0
C270 C 0.59042 0.48768 0.14158 0.0
C271 C 0.59564 0.51015 0.13555 0.0
C272 C 0.58076 0.51845 0.13995 0.0
C273 C 0.5126 0.53825 0.12916 0.0
C274 C 0.52665 0.55291 0.11437 0.0
C275 C 0.51678 0.55879 0.09941 0.0
C276 C 0.49259 0.54991 0.09881 0.0
C277 C 0.47856 0.53503 0.1136 0.0
C278 C 0.48847 0.52929 0.1286 0.0
C279 C 0.52302 0.53205 0.14513 0.0
C280 C 0.53641 0.52176 0.14113 0.0
C281 C 0.51918 0.53565 0.16426 0.0
C282 C 0.50902 0.5503 0.16931 0.0
C283 C 0.51961 0.57362 0.16271 0.0
C284 C 0.51094 0.58799 0.16804 0.0
C285 C 0.49143 0.57935 0.18006 0.0
C286 C 0.48063 0.55589 0.18647 0.0
C287 C 0.48948 0.54155 0.18127 0.0
Co288 Co 0.63917 0.37928 0.40974 0.0
O289 O 0.66004 0.37836 0.39138 0.0
O290 O 0.66925 0.40815 0.41087 0.0
C291 C 0.62599 0.34278 0.42144 0.0
O292 O 0.62293 0.38626 0.43119 0.0
Co293 Co 0.58579 0.34464 0.40771 0.0
O294 O 0.58576 0.35649 0.43354 0.0
C295 C 0.60825 0.38453 0.38076 0.0
C296 C 0.67573 0.39897 0.39766 0.0
C297 C 0.60309 0.37554 0.43981 0.0
O298 O 0.62762 0.39311 0.38995 0.0
O299 O 0.59016 0.36462 0.38483 0.0
O300 O 0.6456 0.36052 0.42736 0.0
O301 O 0.616 0.34729 0.40773 0.0
Co302 Co 0.26705 0.6285 0.58147 0.0
O303 O 0.28948 0.6294 0.59913 0.0
O304 O 0.2674 0.59942 0.58009 0.0
C305 C 0.2908 0.6648 0.56932 0.0
O306 O 0.24286 0.62164 0.56078 0.0
Co307 Co 0.2498 0.66379 0.58477 0.0
O308 O 0.23682 0.65202 0.5591 0.0
C309 C 0.23272 0.62422 0.61192 0.0
C310 C 0.28376 0.60866 0.59289 0.0
C311 C 0.23406 0.63277 0.55261 0.0
O312 O 0.24224 0.61509 0.60193 0.0
O313 O 0.23533 0.64441 0.60824 0.0
O314 O 0.29189 0.64688 0.56318 0.0
O315 O 0.27692 0.66058 0.5835 0.0
Co316 Co 0.64035 0.26074 0.74372 0.0
O317 O 0.6414 0.28408 0.72675 0.0
O318 O 0.61202 0.26183 0.74607 0.0
C319 C 0.67678 0.28397 0.75526 0.0
O320 O 0.63344 0.23571 0.76392 0.0
Co321 Co 0.67411 0.24216 0.73899 0.0
O322 O 0.66242 0.22791 0.76435 0.0
C323 C 0.63436 0.22611 0.71259 0.0
C324 C 0.62116 0.27862 0.73347 0.0
C325 C 0.64383 0.22573 0.77136 0.0
O326 O 0.62605 0.23614 0.72297 0.0
O327 O 0.65413 0.22807 0.71583 0.0
O328 O 0.65944 0.28524 0.76216 0.0
O329 O 0.6719 0.27011 0.74085 0.0
Co330 Co 0.38533 0.62932 0.90917 0.0
O331 O 0.36399 0.63001 0.89119 0.0
O332 O 0.35541 0.60025 0.91057 0.0
C333 C 0.39834 0.66577 0.92089 0.0
O334 O 0.40221 0.6226 0.93025 0.0
Co335 Co 0.43853 0.66449 0.90644 0.0
O336 O 0.43932 0.65262 0.9321 0.0
C337 C 0.41595 0.62445 0.87967 0.0
C338 C 0.34856 0.60932 0.89752 0.0
C339 C 0.42226 0.63348 0.93855 0.0
O340 O 0.39671 0.61573 0.88907 0.0
O341 O 0.43399 0.64446 0.88358 0.0
O342 O 0.37902 0.64788 0.92709 0.0
O343 O 0.40814 0.66141 0.90696 0.0
Co344 Co 0.75777 0.38003 0.08133 0.0
O345 O 0.7349 0.3788 0.09868 0.0
O346 O 0.75718 0.40897 0.07986 0.0
C347 C 0.73456 0.34372 0.06904 0.0
O348 O 0.78233 0.38724 0.0609 0.0
Co349 Co 0.77552 0.34514 0.08503 0.0
O350 O 0.78962 0.35766 0.05979 0.0
C351 C 0.79143 0.38429 0.11238 0.0
C352 C 0.74062 0.39957 0.09249 0.0
C353 C 0.79194 0.37667 0.05312 0.0
O354 O 0.78223 0.39351 0.10208 0.0
O355 O 0.78894 0.36415 0.1088 0.0
O356 O 0.73329 0.3615 0.06278 0.0
O357 O 0.74824 0.34807 0.08338 0.0
Co358 Co 0.38396 0.74645 0.2441 0.0
O359 O 0.38282 0.72387 0.22622 0.0
O360 O 0.41249 0.74562 0.24542 0.0
C361 C 0.34774 0.7225 0.25579 0.0
O362 O 0.39099 0.7706 0.26512 0.0
Co363 Co 0.34976 0.76482 0.24146 0.0
O364 O 0.36078 0.77638 0.26757 0.0
C365 C 0.38933 0.78265 0.21458 0.0
C366 C 0.40321 0.72923 0.23252 0.0
C367 C 0.37989 0.77904 0.2738 0.0
O368 O 0.39772 0.77193 0.22396 0.0
O369 O 0.36967 0.78061 0.21855 0.0
O370 O 0.36524 0.72101 0.26201 0.0
O371 O 0.35235 0.73703 0.24191 0.0
H372 H 0.1418 0.56119 0.31343 0.0
H373 H 0.18314 0.58547 0.30461 0.0
H374 H 0.17328 0.64332 0.29113 0.0
H375 H 0.13202 0.61925 0.29984 0.0
H376 H 0.19787 0.62617 0.26211 0.0
H377 H 0.23389 0.64902 0.3356 0.0
H378 H 0.21125 0.61917 0.33032 0.0
H379 H 0.20462 0.64218 0.33015 0.0
C380 C 0.14844 0.57905 0.3085 0.0
C381 C 0.13371 0.58836 0.30738 0.0
C382 C 0.17203 0.59289 0.30359 0.0
C383 C 0.18116 0.61616 0.29737 0.0
C384 C 0.1665 0.62542 0.29602 0.0
H385 H 0.31 0.72675 0.2487 0.0
H386 H 0.26985 0.70068 0.2593 0.0
C387 C 0.143 0.61169 0.30107 0.0
C388 C 0.20597 0.63085 0.29194 0.0
H389 H 0.26066 0.66499 0.31031 0.0
C390 C 0.21166 0.63463 0.2726 0.0
C391 C 0.22379 0.6416 0.30572 0.0
C392 C 0.21828 0.63797 0.32666 0.0
C393 C 0.23485 0.64904 0.26661 0.0
C394 C 0.2527 0.66051 0.28039 0.0
C395 C 0.24698 0.65633 0.29977 0.0
C396 C 0.27733 0.67712 0.27494 0.0
C397 C 0.24001 0.65147 0.24557 0.0
C398 C 0.2951 0.67324 0.28099 0.0
C399 C 0.31818 0.68839 0.27522 0.0
C400 C 0.32382 0.70763 0.26326 0.0
C401 C 0.30613 0.71191 0.25774 0.0
C402 C 0.28315 0.69692 0.26366 0.0
H403 H 0.2261 0.63631 0.23749 0.0
H404 H 0.24087 0.66769 0.24025 0.0
H405 H 0.25695 0.65279 0.24256 0.0
H406 H 0.29104 0.65819 0.28984 0.0
H407 H 0.33147 0.68468 0.27972 0.0
H408 H 0.51102 0.12274 0.46097 0.0
H409 H 0.52783 0.16441 0.45306 0.0
H410 H 0.59533 0.17884 0.47201 0.0
H411 H 0.57866 0.13705 0.4796 0.0
H412 H 0.54891 0.20302 0.4754 0.0
H413 H 0.61093 0.20894 0.42013 0.0
H414 H 0.58817 0.18114 0.42951 0.0
H415 H 0.61476 0.19865 0.44265 0.0
C416 C 0.52945 0.13481 0.46344 0.0
C417 C 0.54357 0.12664 0.4708 0.0
C418 C 0.53904 0.1586 0.45889 0.0
C419 C 0.56291 0.1747 0.46165 0.0
C420 C 0.57699 0.16665 0.46928 0.0
H421 H 0.64701 0.32702 0.44561 0.0
H422 H 0.63169 0.28651 0.4567 0.0
C423 C 0.56745 0.14279 0.47366 0.0
C424 C 0.57286 0.19994 0.45685 0.0
H425 H 0.61399 0.24487 0.42953 0.0
C426 C 0.56311 0.21214 0.46534 0.0
C427 C 0.59138 0.21184 0.4437 0.0
C428 C 0.60179 0.19944 0.43332 0.0
C429 C 0.57143 0.2359 0.46108 0.0
C430 C 0.58992 0.24771 0.448 0.0
C431 C 0.59988 0.23569 0.43966 0.0
C432 C 0.59862 0.27235 0.4422 0.0
C433 C 0.56051 0.24832 0.47061 0.0
C434 C 0.58502 0.27767 0.43042 0.0
C435 C 0.59376 0.30069 0.42394 0.0
C436 C 0.61622 0.31878 0.42923 0.0
C437 C 0.62962 0.31346 0.44135 0.0
C438 C 0.62094 0.29037 0.44767 0.0
H439 H 0.54923 0.23804 0.48276 0.0
H440 H 0.57422 0.26595 0.47578 0.0
H441 H 0.54966 0.25098 0.46013 0.0
H442 H 0.56783 0.26391 0.42593 0.0
H443 H 0.58304 0.30425 0.41462 0.0
H444 H 0.42428 0.54879 0.6623 0.0
H445 H 0.39773 0.56275 0.65438 0.0
H446 H 0.38192 0.52621 0.60079 0.0
H447 H 0.40897 0.5128 0.6082 0.0
H448 H 0.39956 0.58912 0.61805 0.0
H449 H 0.31713 0.5034 0.62931 0.0
H450 H 0.34432 0.51027 0.64039 0.0
H451 H 0.33975 0.50316 0.61558 0.0
C452 C 0.41541 0.54394 0.64871 0.0
C453 C 0.41876 0.52957 0.63592 0.0
C454 C 0.40012 0.5518 0.64429 0.0
C455 C 0.3877 0.54524 0.62712 0.0
C456 C 0.3911 0.53113 0.61425 0.0
H457 H 0.28343 0.57066 0.577 0.0
H458 H 0.30846 0.55495 0.58544 0.0
C459 C 0.40651 0.52342 0.61857 0.0
C460 C 0.37148 0.55351 0.62249 0.0
H461 H 0.31369 0.53492 0.61759 0.0
C462 C 0.38078 0.57734 0.618 0.0
C463 C 0.34704 0.53798 0.62226 0.0
C464 C 0.33631 0.51227 0.62723 0.0
C465 C 0.36626 0.58607 0.61306 0.0
C466 C 0.34173 0.57064 0.61318 0.0
C467 C 0.33246 0.54674 0.61758 0.0
C468 C 0.32547 0.57907 0.60884 0.0
C469 C 0.37742 0.61161 0.60729 0.0
C470 C 0.32614 0.59727 0.61958 0.0
C471 C 0.31203 0.60636 0.6147 0.0
C472 C 0.29666 0.59716 0.59917 0.0
C473 C 0.29511 0.57811 0.58902 0.0
C474 C 0.30943 0.56916 0.59381 0.0
H475 H 0.39571 0.61892 0.60249 0.0
H476 H 0.36748 0.61386 0.59568 0.0
H477 H 0.37774 0.62211 0.6197 0.0
H478 H 0.33785 0.60473 0.63158 0.0
H479 H 0.31346 0.62087 0.62294 0.0
H480 H 0.89438 0.43194 0.77916 0.0
H481 H 0.85315 0.40698 0.77075 0.0
H482 H 0.83767 0.37906 0.8277 0.0
H483 H 0.87869 0.40441 0.83646 0.0
H484 H 0.82094 0.34456 0.79589 0.0
H485 H 0.79602 0.41264 0.78989 0.0
H486 H 0.82272 0.41904 0.77839 0.0
H487 H 0.82067 0.41702 0.80381 0.0
C488 C 0.88217 0.42085 0.79002 0.0
C489 C 0.88991 0.42017 0.80849 0.0
C490 C 0.85864 0.40653 0.78515 0.0
C491 C 0.84243 0.39129 0.79864 0.0
C492 C 0.84997 0.39071 0.81711 0.0
H493 H 0.69122 0.31194 0.78687 0.0
H494 H 0.73131 0.33709 0.79826 0.0
C495 C 0.87345 0.40511 0.82203 0.0
C496 C 0.81777 0.3752 0.79327 0.0
H497 H 0.7681 0.37403 0.77996 0.0
C498 C 0.80932 0.35094 0.79246 0.0
C499 C 0.80269 0.38363 0.78903 0.0
C500 C 0.81081 0.40949 0.79042 0.0
C501 C 0.78618 0.33483 0.78717 0.0
C502 C 0.77123 0.34331 0.78235 0.0
C503 C 0.77961 0.36758 0.78354 0.0
C504 C 0.74691 0.32735 0.77585 0.0
C505 C 0.77793 0.30888 0.78701 0.0
C506 C 0.74239 0.31357 0.75946 0.0
C507 C 0.71953 0.29905 0.75304 0.0
C508 C 0.70078 0.29831 0.76273 0.0
C509 C 0.70532 0.31212 0.77913 0.0
C510 C 0.72819 0.32652 0.78562 0.0
H511 H 0.789 0.30487 0.79616 0.0
H512 H 0.75957 0.29815 0.79191 0.0
H513 H 0.77892 0.30345 0.77229 0.0
H514 H 0.75658 0.31433 0.75143 0.0
H515 H 0.7166 0.28878 0.74025 0.0
H516 H 0.48125 0.87026 1.00122 0.0
H517 H 0.46537 0.82878 0.99311 0.0
H518 H 0.45583 0.84318 0.93509 0.0
H519 H 0.47171 0.8847 0.94307 0.0
H520 H 0.41759 0.80252 0.94965 0.0
H521 H 0.49996 0.80336 0.96275 0.0
H522 H 0.49009 0.81316 0.98249 0.0
H523 H 0.49893 0.83002 0.96086 0.0
C524 C 0.4759 0.86462 0.9867 0.0
C525 C 0.4779 0.8808 0.97275 0.0
C526 C 0.46685 0.84092 0.9821 0.0
C527 C 0.4598 0.833 0.96344 0.0
C528 C 0.46124 0.84896 0.94958 0.0
H529 H 0.43736 0.70608 0.9092 0.0
H530 H 0.45177 0.74626 0.92038 0.0
C531 C 0.47023 0.87265 0.95418 0.0
C532 C 0.45095 0.80808 0.95829 0.0
H533 H 0.46641 0.76632 0.95599 0.0
C534 C 0.42823 0.79456 0.95105 0.0
C535 C 0.46499 0.79787 0.95994 0.0
C536 C 0.48992 0.81187 0.96676 0.0
C537 C 0.41911 0.77105 0.94545 0.0
C538 C 0.43299 0.7607 0.94747 0.0
C539 C 0.45574 0.77424 0.95465 0.0
C540 C 0.4246 0.73616 0.94139 0.0
C541 C 0.39496 0.75772 0.93696 0.0
C542 C 0.40483 0.7171 0.94979 0.0
C543 C 0.3965 0.69411 0.94338 0.0
C544 C 0.40792 0.6898 0.92857 0.0
C545 C 0.42813 0.70885 0.9206 0.0
C546 C 0.4364 0.73181 0.92698 0.0
H547 H 0.38897 0.76977 0.93218 0.0
H548 H 0.39437 0.74692 0.92466 0.0
H549 H 0.38249 0.74569 0.94783 0.0
H550 H 0.39575 0.72003 0.96122 0.0
H551 H 0.38097 0.67977 0.94988 0.0
H552 H 0.63809 0.51247 0.14358 0.0
H553 H 0.6649 0.49903 0.1353 0.0
H554 H 0.6065 0.43017 0.12191 0.0
H555 H 0.57952 0.44365 0.12973 0.0
H556 H 0.66831 0.46176 0.15091 0.0
H557 H 0.64749 0.44854 0.07386 0.0
H558 H 0.63925 0.46518 0.0889 0.0
H559 H 0.62262 0.43352 0.08928 0.0
C560 C 0.63093 0.49453 0.13869 0.0
C561 C 0.60665 0.47919 0.13715 0.0
C562 C 0.64628 0.48684 0.13408 0.0
C563 C 0.63771 0.46372 0.12772 0.0
C564 C 0.61349 0.44821 0.12649 0.0
H565 H 0.70733 0.38455 0.12005 0.0
H566 H 0.68384 0.40163 0.12896 0.0
C567 C 0.5981 0.45587 0.13115 0.0
C568 C 0.65415 0.45583 0.1226 0.0
H569 H 0.67164 0.43483 0.08582 0.0
C570 C 0.66911 0.45595 0.13666 0.0
C571 C 0.65539 0.44857 0.10394 0.0
C572 C 0.6405 0.4491 0.08805 0.0
C573 C 0.6849 0.44848 0.13268 0.0
C574 C 0.68558 0.44048 0.11419 0.0
C575 C 0.671 0.44087 0.10001 0.0
C576 C 0.70078 0.43096 0.10939 0.0
C577 C 0.70085 0.44938 0.14826 0.0
C578 C 0.718 0.44166 0.09529 0.0
C579 C 0.7315 0.43191 0.09012 0.0
C580 C 0.72781 0.41114 0.09885 0.0
C581 C 0.7107 0.40062 0.1131 0.0
C582 C 0.6973 0.41042 0.11829 0.0
H583 H 0.7026 0.46159 0.15984 0.0
H584 H 0.69351 0.43152 0.15449 0.0
H585 H 0.71847 0.45502 0.1426 0.0
H586 H 0.72086 0.45746 0.08818 0.0
H587 H 0.74446 0.44035 0.07903 0.0
H588 H 0.42544 0.86814 0.48884 0.0
H589 H 0.40048 0.82611 0.49643 0.0
H590 H 0.39409 0.84381 0.55417 0.0
H591 H 0.41908 0.88578 0.54676 0.0
H592 H 0.40593 0.80597 0.54777 0.0
H593 H 0.32773 0.79353 0.5089 0.0
H594 H 0.35537 0.80852 0.49673 0.0
H595 H 0.35068 0.82214 0.51688 0.0
C596 C 0.41886 0.86304 0.50318 0.0
C597 C 0.42412 0.88022 0.5172 0.0
C598 C 0.40451 0.83908 0.50745 0.0
C599 C 0.39535 0.83197 0.5258 0.0
C600 C 0.40094 0.84902 0.5399 0.0
H601 H 0.28843 0.70386 0.57728 0.0
H602 H 0.3139 0.74396 0.56531 0.0
C603 C 0.4151 0.87295 0.53562 0.0
C604 C 0.37984 0.80675 0.5304 0.0
H605 H 0.32443 0.7602 0.52417 0.0
C606 C 0.38817 0.79587 0.54252 0.0
C607 C 0.35666 0.79381 0.5236 0.0
C608 C 0.34688 0.805 0.51088 0.0
C609 C 0.37382 0.77228 0.5481 0.0
C610 C 0.35062 0.75935 0.54135 0.0
C611 C 0.3423 0.7702 0.52919 0.0
C612 C 0.33446 0.73482 0.54753 0.0
C613 C 0.3833 0.76145 0.56155 0.0
C614 C 0.33739 0.71642 0.54118 0.0
C615 C 0.3228 0.69347 0.5479 0.0
C616 C 0.30515 0.68865 0.56116 0.0
C617 C 0.30194 0.70706 0.56714 0.0
C618 C 0.31642 0.72994 0.5603 0.0
H619 H 0.40051 0.77477 0.56753 0.0
H620 H 0.37091 0.75244 0.57344 0.0
H621 H 0.38537 0.748 0.55386 0.0
H622 H 0.35115 0.71989 0.53121 0.0
H623 H 0.32566 0.67964 0.54302 0.0
H624 H 0.54034 0.39901 0.65885 0.0
H625 H 0.55349 0.37242 0.66905 0.0
H626 H 0.56159 0.39854 0.72635 0.0
H627 H 0.54802 0.42495 0.71637 0.0
H628 H 0.59989 0.39555 0.71273 0.0
H629 H 0.51572 0.31215 0.70149 0.0
H630 H 0.5257 0.33156 0.6813 0.0
H631 H 0.51796 0.3405 0.70283 0.0
C632 C 0.54467 0.39896 0.67367 0.0
C633 C 0.54293 0.41402 0.68681 0.0
C634 C 0.55219 0.38374 0.67947 0.0
C635 C 0.55812 0.38323 0.69851 0.0
C636 C 0.55696 0.39859 0.7116 0.0
H637 H 0.5823 0.27642 0.74874 0.0
H638 H 0.56647 0.30168 0.74099 0.0
C639 C 0.54935 0.41378 0.70583 0.0
C640 C 0.56596 0.36696 0.70466 0.0
H641 H 0.54898 0.3087 0.70717 0.0
C642 C 0.58873 0.37656 0.71163 0.0
C643 C 0.55124 0.34219 0.70348 0.0
C644 C 0.52621 0.33091 0.69704 0.0
C645 C 0.59744 0.36205 0.71692 0.0
C646 C 0.58307 0.3373 0.7149 0.0
C647 C 0.56004 0.32768 0.7085 0.0
C648 C 0.59186 0.32122 0.71902 0.0
C649 C 0.62191 0.37338 0.72472 0.0
C650 C 0.6109 0.32336 0.70885 0.0
C651 C 0.61996 0.30905 0.71326 0.0
C652 C 0.61002 0.29211 0.7278 0.0
C653 C 0.59035 0.28932 0.73748 0.0
C654 C 0.58132 0.30376 0.73309 0.0
H655 H 0.62798 0.39129 0.73039 0.0
H656 H 0.62304 0.3625 0.73622 0.0
H657 H 0.63397 0.37512 0.71315 0.0
H658 H 0.61892 0.33629 0.69761 0.0
H659 H 0.635 0.31151 0.70541 0.0
H660 H 0.14707 0.54869 0.82768 0.0
H661 H 0.18785 0.5626 0.83542 0.0
H662 H 0.16664 0.52532 0.88874 0.0
H663 H 0.12591 0.51193 0.8815 0.0
H664 H 0.21271 0.58868 0.8715 0.0
H665 H 0.20865 0.50336 0.86028 0.0
H666 H 0.18817 0.50995 0.84936 0.0
H667 H 0.18576 0.50282 0.87416 0.0
C668 C 0.15104 0.54364 0.84116 0.0
C669 C 0.13311 0.52911 0.85394 0.0
C670 C 0.17435 0.55147 0.84547 0.0
C671 C 0.18015 0.54472 0.86252 0.0
C672 C 0.16242 0.53039 0.87536 0.0
H673 H 0.3102 0.57121 0.9133 0.0
H674 H 0.26923 0.55519 0.90455 0.0
C675 C 0.13914 0.52269 0.87115 0.0
C676 C 0.20482 0.55316 0.86714 0.0
H677 H 0.24398 0.53498 0.87221 0.0
C678 C 0.21963 0.57702 0.87159 0.0
C679 C 0.21361 0.53777 0.86741 0.0
C680 C 0.19835 0.51204 0.86245 0.0
C681 C 0.24304 0.58591 0.87658 0.0
C682 C 0.25203 0.57062 0.87655 0.0
C683 C 0.23712 0.54669 0.87215 0.0
C684 C 0.27686 0.57921 0.88104 0.0
C685 C 0.25772 0.61147 0.88233 0.0
C686 C 0.29475 0.59747 0.87034 0.0
C687 C 0.31808 0.60673 0.87539 0.0
C688 C 0.32402 0.59767 0.89106 0.0
C689 C 0.30616 0.57857 0.90117 0.0
C690 C 0.28276 0.56943 0.89621 0.0
H691 H 0.24675 0.61869 0.88699 0.0
H692 H 0.26987 0.61379 0.89404 0.0
H693 H 0.26818 0.62199 0.86995 0.0
H694 H 0.29066 0.60482 0.85824 0.0
H695 H 0.33145 0.62128 0.86719 0.0
H696 H 0.63509 0.1308 0.00673 0.0
H697 H 0.65985 0.17242 0.01516 0.0
H698 H 0.599 0.17478 0.03179 0.0
H699 H 0.57413 0.13297 0.02387 0.0
H700 H 0.65945 0.21272 1.00182 0.0
H701 H 0.64128 0.198 0.07925 0.0
H702 H 0.6343 0.17427 0.06289 0.0
H703 H 0.61587 0.1866 0.0644 0.0
C704 C 0.62698 0.14014 0.0123 0.0
C705 C 0.60266 0.12852 0.01482 0.0
C706 C 0.64114 0.16395 0.01696 0.0
C707 C 0.63127 0.17656 0.02432 0.0
C708 C 0.60697 0.16524 0.02638 0.0
H709 H 0.70143 0.32875 0.04114 0.0
H710 H 0.67668 0.28847 0.02927 0.0
C711 C 0.59278 0.14142 0.02169 0.0
C712 C 0.64653 0.20142 0.03023 0.0
H713 H 0.66392 0.23755 0.06896 0.0
C714 C 0.66045 0.21821 0.01649 0.0
C715 C 0.64798 0.20839 0.04941 0.0
C716 C 0.63424 0.19088 0.06491 0.0
C717 C 0.6757 0.24191 0.02142 0.0
C718 C 0.67679 0.24896 0.04056 0.0
C719 C 0.66294 0.23211 0.05429 0.0
C720 C 0.69253 0.27361 0.04683 0.0
C721 C 0.69089 0.25905 0.00622 0.0
C722 C 0.70947 0.27857 0.06077 0.0
C723 C 0.72346 0.30147 0.06768 0.0
C724 C 0.72073 0.31985 0.06081 0.0
C725 C 0.70401 0.31496 0.04663 0.0
C726 C 0.68995 0.29199 0.03976 0.0
H727 H 0.69229 0.24984 0.99354 0.0
H728 H 0.68315 0.2696 1.00161 0.0
H729 H 0.70871 0.27137 0.01171 0.0
H730 H 0.71171 0.26463 0.06645 0.0
H731 H 0.73619 0.30468 0.07859 0.0
H732 H 0.517 0.62462 0.19293 0.0
H733 H 0.50291 0.65067 0.20254 0.0
H734 H 0.43233 0.59577 0.1899 0.0
H735 H 0.44633 0.56947 0.18067 0.0
H736 H 0.4808 0.66765 0.1825 0.0
H737 H 0.42424 0.61444 0.24232 0.0
H738 H 0.44473 0.60814 0.23118 0.0
H739 H 0.41675 0.59831 0.22042 0.0
C740 C 0.49847 0.6181 0.19224 0.0
C741 C 0.48274 0.59498 0.18611 0.0
C742 C 0.49043 0.63298 0.19777 0.0
C743 C 0.46652 0.62509 0.19725 0.0
C744 C 0.45079 0.60207 0.19094 0.0
H745 H 0.38497 0.69133 0.2088 0.0
H746 H 0.40165 0.66725 0.20023 0.0
C747 C 0.4588 0.58707 0.18559 0.0
C748 C 0.45821 0.64124 0.20274 0.0
H749 H 0.42011 0.64644 0.2318 0.0
C750 C 0.46769 0.66307 0.1934 0.0
C751 C 0.44115 0.63535 0.21705 0.0
C752 C 0.4313 0.6129 0.22846 0.0
C753 C 0.46018 0.67887 0.19766 0.0
C754 C 0.44277 0.67268 0.21158 0.0
C755 C 0.43343 0.65103 0.22107 0.0
C756 C 0.43351 0.68816 0.21612 0.0
C757 C 0.47049 0.70191 0.18706 0.0
C758 C 0.44606 0.708 0.22779 0.0
C759 C 0.43653 0.7218 0.23283 0.0
C760 C 0.41435 0.71598 0.22617 0.0
C761 C 0.40212 0.69636 0.21413 0.0
C762 C 0.41157 0.68252 0.20924 0.0
H763 H 0.48264 0.70337 0.17564 0.0
H764 H 0.45635 0.70381 0.18067 0.0
H765 H 0.48015 0.71674 0.19715 0.0
H766 H 0.46301 0.71252 0.23328 0.0
H767 H 0.44635 0.73676 0.24215 0.0
H768 H 0.87724 0.45862 0.32776 0.0
H769 H 0.8364 0.44471 0.33526 0.0
H770 H 0.85718 0.48153 0.38876 0.0
H771 H 0.89796 0.49493 0.38176 0.0
H772 H 0.81091 0.4183 0.37076 0.0
H773 H 0.81588 0.50418 0.36044 0.0
H774 H 0.83654 0.4977 0.34975 0.0
H775 H 0.83838 0.50435 0.37463 0.0
C776 C 0.87316 0.46357 0.34123 0.0
C777 C 0.89098 0.47799 0.35412 0.0
C778 C 0.84982 0.45574 0.34541 0.0
C779 C 0.84388 0.46237 0.36244 0.0
C780 C 0.8615 0.47656 0.3754 0.0
H781 H 0.71443 0.43669 0.41336 0.0
H782 H 0.75525 0.4523 0.4044 0.0
C783 C 0.88481 0.48426 0.37132 0.0
C784 C 0.81918 0.45403 0.36687 0.0
H785 H 0.78039 0.47262 0.37225 0.0
C786 C 0.80415 0.4301 0.37101 0.0
C787 C 0.81059 0.46958 0.36734 0.0
C788 C 0.82606 0.49539 0.3627 0.0
C789 C 0.78073 0.42131 0.37593 0.0
C790 C 0.77197 0.43679 0.37614 0.0
C791 C 0.78708 0.46076 0.37201 0.0
C792 C 0.74721 0.4284 0.38075 0.0
C793 C 0.76584 0.39566 0.38138 0.0
C794 C 0.72912 0.41034 0.37006 0.0
C795 C 0.70585 0.40128 0.37525 0.0
C796 C 0.70019 0.41038 0.39103 0.0
C797 C 0.71825 0.4293 0.40114 0.0
C798 C 0.74157 0.43821 0.39605 0.0
H799 H 0.77664 0.38817 0.38586 0.0
H800 H 0.7537 0.39323 0.39312 0.0
H801 H 0.75535 0.38545 0.36891 0.0
H802 H 0.733 0.40297 0.35787 0.0
H803 H 0.69232 0.38687 0.36705 0.0
H804 H 0.0903 0.5226 0.41256 0.0
H805 H 0.11746 0.53411 0.43933 0.0
H806 H 0.12799 0.60407 0.43786 0.0
H807 H 0.10127 0.59293 0.41093 0.0
H808 H 0.1657 0.57233 0.44221 0.0
H809 H 0.10735 0.58111 0.49326 0.0
H810 H 0.097 0.56538 0.47106 0.0
H811 H 0.11202 0.59703 0.47143 0.0
C812 C 0.09857 0.54051 0.41779 0.0
C813 C 0.09343 0.55679 0.40966 0.0
C814 C 0.11401 0.54701 0.43315 0.0
C815 C 0.12445 0.56982 0.44073 0.0
C816 C 0.11975 0.58623 0.43244 0.0
H817 H 0.21671 0.65345 0.52966 0.0
H818 H 0.19083 0.63645 0.50244 0.0
C819 C 0.1044 0.57979 0.41708 0.0
C820 C 0.14017 0.57658 0.45742 0.0
H821 H 0.14661 0.5965 0.50303 0.0
C822 C 0.16149 0.57741 0.45559 0.0
C823 C 0.13452 0.58303 0.47486 0.0
C824 C 0.11139 0.58142 0.47791 0.0
C825 C 0.17781 0.58557 0.47053 0.0
C826 C 0.17242 0.59269 0.48779 0.0
C827 C 0.15077 0.59115 0.48976 0.0
C828 C 0.18934 0.60304 0.5037 0.0
C829 C 0.20102 0.58739 0.46748 0.0
C830 C 0.19727 0.58994 0.51344 0.0
C831 C 0.21224 0.59967 0.5291 0.0
C832 C 0.21935 0.62262 0.53538 0.0
C833 C 0.21156 0.63571 0.52535 0.0
C834 C 0.19673 0.62602 0.50975 0.0
H835 H 0.20435 0.58597 0.45221 0.0
H836 H 0.21547 0.60435 0.47308 0.0
H837 H 0.2012 0.57288 0.47524 0.0
H838 H 0.19148 0.57201 0.50922 0.0
H839 H 0.2178 0.58905 0.53652 0.0
H840 H 0.56388 0.08557 0.57553 0.0
H841 H 0.57903 0.11379 0.6017 0.0
H842 H 0.5172 0.11871 0.6003 0.0
H843 H 0.50201 0.09076 0.57375 0.0
H844 H 0.58657 0.16136 0.60089 0.0
H845 H 0.52434 0.10449 0.6572 0.0
H846 H 0.52902 0.09238 0.63581 0.0
H847 H 0.51232 0.1066 0.6349 0.0
C848 C 0.55352 0.09275 0.58064 0.0
C849 C 0.53174 0.08593 0.57244 0.0
C850 C 0.56216 0.10878 0.59569 0.0
C851 C 0.54916 0.11819 0.60301 0.0
C852 C 0.52735 0.11138 0.59502 0.0
H853 H 0.59055 0.21526 0.70077 0.0
H854 H 0.5683 0.19065 0.67359 0.0
C855 C 0.51869 0.09536 0.57988 0.0
C856 C 0.55897 0.13562 0.61865 0.0
H857 H 0.55388 0.14263 0.66617 0.0
C858 C 0.57931 0.15736 0.61513 0.0
C859 C 0.5493 0.13043 0.63715 0.0
C860 C 0.52761 0.10719 0.64166 0.0
C861 C 0.59065 0.17382 0.62973 0.0
C862 C 0.58166 0.16818 0.64843 0.0
C863 C 0.56075 0.14687 0.65182 0.0
C864 C 0.59489 0.18323 0.66483 0.0
C865 C 0.61231 0.19704 0.62502 0.0
C866 C 0.617 0.18688 0.66906 0.0
C867 C 0.6297 0.20081 0.68448 0.0
C868 C 0.62054 0.21138 0.69619 0.0
C869 C 0.59821 0.20749 0.69204 0.0
C870 C 0.58544 0.19343 0.67654 0.0
H871 H 0.61271 0.20165 0.60979 0.0
H872 H 0.61352 0.21154 0.63385 0.0
H873 H 0.62791 0.1957 0.62789 0.0
H874 H 0.62441 0.17876 0.66046 0.0
H875 H 0.64673 0.20322 0.68722 0.0
H876 H 0.42752 0.52903 0.72127 0.0
H877 H 0.41569 0.54466 0.74775 0.0
H878 H 0.46309 0.53768 0.78492 0.0
H879 H 0.47462 0.52157 0.75869 0.0
H880 H 0.41815 0.52198 0.80101 0.0
H881 H 0.45844 0.61169 0.76949 0.0
H882 H 0.43809 0.58789 0.75456 0.0
H883 H 0.46505 0.58998 0.76115 0.0
C884 C 0.43522 0.53057 0.73514 0.0
C885 C 0.45214 0.52423 0.73785 0.0
C886 C 0.42858 0.53967 0.7502 0.0
C887 C 0.43873 0.54258 0.76822 0.0
C888 C 0.45512 0.53566 0.7711 0.0
H889 H 0.45526 0.63328 0.86069 0.0
H890 H 0.45843 0.61192 0.83386 0.0
C891 C 0.46182 0.52664 0.75606 0.0
C892 C 0.43288 0.55348 0.78401 0.0
H893 H 0.43873 0.60545 0.79859 0.0
C894 C 0.42248 0.54018 0.80048 0.0
C895 C 0.4388 0.57729 0.7833 0.0
C896 C 0.45088 0.59269 0.76627 0.0
C897 C 0.41807 0.55015 0.81639 0.0
C898 C 0.42398 0.57398 0.81566 0.0
C899 C 0.43408 0.58714 0.79907 0.0
C900 C 0.4215 0.58621 0.83237 0.0
C901 C 0.40795 0.53539 0.83406 0.0
C902 C 0.39962 0.57885 0.84053 0.0
C903 C 0.39771 0.59101 0.85607 0.0
C904 C 0.41765 0.6109 0.86357 0.0
C905 C 0.43949 0.61813 0.85529 0.0
C906 C 0.44137 0.60593 0.83991 0.0
H907 H 0.40916 0.51926 0.83372 0.0
H908 H 0.41702 0.54568 0.84697 0.0
H909 H 0.38925 0.52982 0.83521 0.0
H910 H 0.38398 0.56393 0.83472 0.0
H911 H 0.3806 0.58506 0.86199 0.0
H912 H 0.95492 0.45586 0.93106 0.0
H913 H 0.92667 0.44375 0.95696 0.0
H914 H 0.87491 0.43914 0.91774 0.0
H915 H 0.90276 0.45031 0.89158 0.0
H916 H 0.90207 0.46385 0.97108 0.0
H917 H 0.84193 0.37416 0.94251 0.0
H918 H 0.87103 0.39289 0.93336 0.0
H919 H 0.84798 0.39786 0.92658 0.0
C920 C 0.93746 0.45203 0.92788 0.0
C921 C 0.93107 0.45384 0.90917 0.0
C922 C 0.92139 0.44533 0.94274 0.0
C923 C 0.89859 0.44023 0.93925 0.0
C924 C 0.89229 0.4426 0.92071 0.0
H925 H 0.80072 0.41614 0.0329 0.0
H926 H 0.82549 0.43279 0.00469 0.0
C927 C 0.90834 0.44924 0.90581 0.0
C928 C 0.88138 0.43202 0.95502 0.0
H929 H 0.8303 0.38469 0.9706 0.0
C930 C 0.8863 0.4466 0.97096 0.0
C931 C 0.86091 0.40942 0.95487 0.0
C932 C 0.85516 0.39255 0.93851 0.0
C933 C 0.87147 0.43908 0.98688 0.0
C934 C 0.85101 0.41648 0.98671 0.0
C935 C 0.84591 0.40208 0.97063 0.0
C936 C 0.83565 0.40658 0.00363 0.0
C937 C 0.87831 0.45499 0.00401 0.0
C938 C 0.8327 0.38605 0.01213 0.0
C939 C 0.81848 0.37641 0.02808 0.0
C940 C 0.80678 0.38706 0.03596 0.0
C941 C 0.80957 0.40755 0.02731 0.0
C942 C 0.82382 0.41717 0.01123 0.0
H943 H 0.89685 0.4695 0.00338 0.0
H944 H 0.86726 0.46299 0.00467 0.0
H945 H 0.87556 0.44484 0.01731 0.0
H946 H 0.84162 0.37755 0.00649 0.0
H947 H 0.8168 0.36062 0.03428 0.0
H948 H 0.45991 0.92662 0.07785 0.0
H949 H 0.44428 0.89876 0.1043 0.0
H950 H 0.50318 0.88899 0.10104 0.0
H951 H 0.5189 0.91676 0.07438 0.0
H952 H 0.43237 0.85109 0.10386 0.0
H953 H 0.50072 0.90324 0.15781 0.0
H954 H 0.49727 0.91636 0.13649 0.0
H955 H 0.51081 0.89897 0.13534 0.0
C956 C 0.46952 0.91849 0.08268 0.0
C957 C 0.49065 0.92391 0.07395 0.0
C958 C 0.46062 0.90266 0.09787 0.0
C959 C 0.47268 0.89199 0.10476 0.0
C960 C 0.49381 0.89736 0.09618 0.0
H961 H 0.43118 0.79117 0.19974 0.0
H962 H 0.45254 0.81643 0.17257 0.0
C963 C 0.50276 0.91324 0.08095 0.0
C964 C 0.46253 0.87465 0.12051 0.0
H965 H 0.47028 0.86553 0.16707 0.0
C966 C 0.44071 0.8542 0.11765 0.0
C967 C 0.47357 0.87863 0.13842 0.0
C968 C 0.49681 0.90054 0.14236 0.0
C969 C 0.42941 0.83781 0.13232 0.0
C970 C 0.43999 0.84222 0.15046 0.0
C971 C 0.46219 0.86224 0.15316 0.0
C972 C 0.42747 0.82712 0.16706 0.0
C973 C 0.40614 0.81595 0.12829 0.0
C974 C 0.40657 0.82515 0.17316 0.0
C975 C 0.39436 0.8108 0.18857 0.0
C976 C 0.40283 0.79817 0.19839 0.0
C977 C 0.42407 0.80054 0.19248 0.0
C978 C 0.43632 0.81498 0.17698 0.0
H979 H 0.40386 0.81168 0.11288 0.0
H980 H 0.40419 0.80053 0.13624 0.0
H981 H 0.39197 0.81897 0.13278 0.0
H982 H 0.39969 0.83478 0.16598 0.0
H983 H 0.37822 0.80966 0.19274 0.0
H984 H 0.59691 0.47972 0.22208 0.0
H985 H 0.60868 0.46424 0.24872 0.0
H986 H 0.56065 0.47069 0.28545 0.0
H987 H 0.54917 0.48666 0.25905 0.0
H988 H 0.6055 0.48668 0.30187 0.0
H989 H 0.56612 0.39709 0.27037 0.0
H990 H 0.5865 0.42099 0.25551 0.0
H991 H 0.55938 0.41866 0.26188 0.0
C992 C 0.58906 0.47811 0.23589 0.0
C993 C 0.57197 0.48426 0.23842 0.0
C994 C 0.59567 0.46909 0.25105 0.0
C995 C 0.58532 0.46606 0.26899 0.0
C996 C 0.56877 0.4728 0.27169 0.0
H997 H 0.56889 0.37558 0.36177 0.0
H998 H 0.56564 0.39687 0.33488 0.0
C999 C 0.5621 0.48174 0.25656 0.0
C1000 C 0.59114 0.45523 0.28487 0.0
H1001 H 0.58563 0.40343 0.2996 0.0
C1002 C 0.60132 0.46853 0.30137 0.0
C1003 C 0.58542 0.43148 0.2842 0.0
C1004 C 0.57358 0.41608 0.26713 0.0
C1005 C 0.60573 0.45862 0.31734 0.0
C1006 C 0.60003 0.43486 0.31666 0.0
C1007 C 0.59013 0.42169 0.30004 0.0
C1008 C 0.60254 0.42269 0.33342 0.0
C1009 C 0.61565 0.47337 0.33503 0.0
C1010 C 0.62443 0.43014 0.3416 0.0
C1011 C 0.62639 0.41802 0.35716 0.0
C1012 C 0.60649 0.39808 0.36466 0.0
C1013 C 0.58463 0.39077 0.35638 0.0
C1014 C 0.5827 0.40293 0.34096 0.0
H1015 H 0.61434 0.48944 0.33462 0.0
H1016 H 0.60649 0.46303 0.34791 0.0
H1017 H 0.63435 0.47902 0.33631 0.0
H1018 H 0.64003 0.44511 0.33579 0.0
H1019 H 0.6435 0.42404 0.36309 0.0
H1020 H 0.43364 0.89085 0.43264 0.0
H1021 H 0.42192 0.86342 0.4059 0.0
H1022 H 0.47067 0.91992 0.36956 0.0
H1023 H 0.48202 0.9476 0.39608 0.0
H1024 H 0.42705 0.89398 0.35379 0.0
H1025 H 0.45672 0.83483 0.38038 0.0
H1026 H 0.4383 0.83858 0.39679 0.0
H1027 H 0.46636 0.86341 0.39066 0.0
C1028 C 0.44185 0.89746 0.41895 0.0
C1029 C 0.45878 0.92144 0.41651 0.0
C1030 C 0.43535 0.88168 0.40374 0.0
C1031 C 0.4457 0.88953 0.38581 0.0
C1032 C 0.46262 0.91343 0.38333 0.0
H1033 H 0.42483 0.79934 0.28733 0.0
H1034 H 0.44185 0.82619 0.31449 0.0
C1035 C 0.46917 0.92921 0.39853 0.0
C1036 C 0.43783 0.87317 0.36935 0.0
H1037 H 0.43136 0.82131 0.35342 0.0
C1038 C 0.42814 0.87818 0.35366 0.0
C1039 C 0.43958 0.85273 0.36906 0.0
C1040 C 0.45101 0.84713 0.38504 0.0
C1041 C 0.41954 0.86301 0.33794 0.0
C1042 C 0.42021 0.84197 0.33805 0.0
C1043 C 0.43058 0.83729 0.35346 0.0
C1044 C 0.40973 0.82446 0.32243 0.0
C1045 C 0.40991 0.86976 0.32131 0.0
C1046 C 0.38591 0.81402 0.31828 0.0
C1047 C 0.37621 0.79886 0.30277 0.0
C1048 C 0.39004 0.79354 0.29117 0.0
C1049 C 0.41369 0.80312 0.29591 0.0
C1050 C 0.42345 0.81847 0.31142 0.0
H1051 H 0.41676 0.88903 0.32098 0.0
H1052 H 0.41422 0.86454 0.30762 0.0
H1053 H 0.39064 0.86061 0.32256 0.0
H1054 H 0.37485 0.81788 0.32689 0.0
H1055 H 0.35785 0.79153 0.29976 0.0
H1056 H 0.56885 0.44984 0.6015 0.0
H1057 H 0.5865 0.43985 0.57553 0.0
H1058 H 0.53985 0.44426 0.53569 0.0
H1059 H 0.5229 0.4554 0.56137 0.0
H1060 H 0.56658 0.40228 0.55286 0.0
H1061 H 0.60117 0.48233 0.50845 0.0
H1062 H 0.59144 0.48119 0.53257 0.0
H1063 H 0.57071 0.46979 0.51334 0.0
C1064 C 0.56265 0.44918 0.58716 0.0
C1065 C 0.54446 0.45352 0.58356 0.0
C1066 C 0.57268 0.44331 0.57233 0.0
C1067 C 0.5648 0.44169 0.55358 0.0
C1068 C 0.54664 0.44596 0.54994 0.0
H1069 H 0.56364 0.35802 0.46144 0.0
H1070 H 0.55739 0.37515 0.48972 0.0
C1071 C 0.53669 0.45195 0.56473 0.0
C1072 C 0.57447 0.43405 0.53801 0.0
H1073 H 0.59655 0.44771 0.49295 0.0
C1074 C 0.57342 0.41239 0.53987 0.0
C1075 C 0.58385 0.4474 0.52118 0.0
C1076 C 0.58711 0.47159 0.51883 0.0
C1077 C 0.58038 0.4032 0.52502 0.0
C1078 C 0.58811 0.41573 0.50767 0.0
C1079 C 0.59031 0.43794 0.50615 0.0
C1080 C 0.59248 0.40537 0.4906 0.0
C1081 C 0.57923 0.38004 0.52804 0.0
C1082 C 0.61418 0.41697 0.48133 0.0
C1083 C 0.61783 0.40727 0.46492 0.0
C1084 C 0.59976 0.38587 0.45743 0.0
C1085 C 0.57805 0.37443 0.46679 0.0
C1086 C 0.57445 0.38413 0.48309 0.0
H1087 H 0.58053 0.37679 0.54336 0.0
H1088 H 0.56224 0.36548 0.52275 0.0
H1089 H 0.5934 0.37951 0.52024 0.0
H1090 H 0.62829 0.4335 0.48681 0.0
H1091 H 0.63474 0.41661 0.45808 0.0
H1092 H 0.0895 0.49212 0.74596 0.0
H1093 H 0.11793 0.50749 0.71995 0.0
H1094 H 0.1312 0.57749 0.73077 0.0
H1095 H 0.10356 0.5625 0.75713 0.0
H1096 H 0.11764 0.53051 0.68723 0.0
H1097 H 0.19668 0.58805 0.72966 0.0
H1098 H 0.16972 0.56565 0.74033 0.0
H1099 H 0.17364 0.59383 0.73399 0.0
C1100 C 0.09874 0.51085 0.74299 0.0
C1101 C 0.09428 0.52609 0.75369 0.0
C1102 C 0.11486 0.51956 0.72804 0.0
C1103 C 0.12697 0.54369 0.72362 0.0
C1104 C 0.12243 0.55889 0.73417 0.0
H1105 H 0.21385 0.63968 0.6385 0.0
H1106 H 0.18887 0.61795 0.66528 0.0
C1107 C 0.10637 0.55022 0.7491 0.0
C1108 C 0.14375 0.553 0.70756 0.0
H1109 H 0.19956 0.59536 0.69608 0.0
C1110 C 0.13565 0.54443 0.68917 0.0
C1111 C 0.16729 0.57107 0.71014 0.0
C1112 C 0.17743 0.58002 0.72962 0.0
C1113 C 0.15015 0.5543 0.67321 0.0
C1114 C 0.17337 0.57304 0.67576 0.0
C1115 C 0.1817 0.58104 0.69418 0.0
C1116 C 0.18875 0.58582 0.65944 0.0
C1117 C 0.1403 0.54538 0.65365 0.0
C1118 C 0.19717 0.57498 0.64736 0.0
C1119 C 0.21161 0.58741 0.63196 0.0
C1120 C 0.2178 0.61088 0.62838 0.0
C1121 C 0.20941 0.62163 0.64069 0.0
C1122 C 0.19514 0.60926 0.65607 0.0
H1123 H 0.1211 0.53311 0.65393 0.0
H1124 H 0.14434 0.56035 0.64406 0.0
H1125 H 0.1485 0.5359 0.64756 0.0
H1126 H 0.19263 0.55695 0.64988 0.0
H1127 H 0.21778 0.57859 0.62281 0.0
H1128 H 0.59686 0.08257 0.90772 0.0
H1129 H 0.60849 0.10998 0.881 0.0
H1130 H 0.5505 0.11961 0.89209 0.0
H1131 H 0.53913 0.09275 0.91926 0.0
H1132 H 0.58229 0.10578 0.84864 0.0
H1133 H 0.6059 0.18752 0.88873 0.0
H1134 H 0.6023 0.1614 0.90014 0.0
H1135 H 0.57718 0.16281 0.89323 0.0
C1136 C 0.58676 0.09077 0.90468 0.0
C1137 C 0.56712 0.08553 0.91572 0.0
C1138 C 0.59334 0.10631 0.88931 0.0
C1139 C 0.58055 0.11707 0.88469 0.0
C1140 C 0.56086 0.11183 0.89559 0.0
H1141 H 0.60435 0.21584 0.79139 0.0
H1142 H 0.58718 0.18924 0.81871 0.0
C1143 C 0.55424 0.09625 0.91098 0.0
C1144 C 0.58753 0.13319 0.86809 0.0
H1145 H 0.60806 0.19042 0.85523 0.0
C1146 C 0.58786 0.12427 0.85008 0.0
C1147 C 0.59462 0.15728 0.86998 0.0
C1148 C 0.5952 0.16796 0.88906 0.0
C1149 C 0.59534 0.13881 0.83394 0.0
C1150 C 0.60307 0.16302 0.8359 0.0
C1151 C 0.60213 0.17185 0.85379 0.0
C1152 C 0.61358 0.17963 0.81972 0.0
C1153 C 0.59495 0.12813 0.8149 0.0
C1154 C 0.63434 0.18339 0.81153 0.0
C1155 C 0.64419 0.19853 0.79602 0.0
C1156 C 0.63355 0.21037 0.78834 0.0
C1157 C 0.61297 0.20695 0.79686 0.0
C1158 C 0.60313 0.19178 0.81248 0.0
H1159 H 0.58278 0.10874 0.81487 0.0
H1160 H 0.58975 0.13605 0.80342 0.0
H1161 H 0.61268 0.1316 0.81162 0.0
H1162 H 0.64293 0.17454 0.81713 0.0
H1163 H 0.66011 0.20078 0.78999 0.0
H1164 H 0.50423 0.55479 0.06099 0.0
H1165 H 0.48823 0.56687 0.03516 0.0
H1166 H 0.44022 0.56997 0.07424 0.0
H1167 H 0.45691 0.55908 0.10038 0.0
H1168 H 0.44423 0.54678 0.02036 0.0
H1169 H 0.47165 0.63492 0.05044 0.0
H1170 H 0.482 0.61654 0.05975 0.0
H1171 H 0.45336 0.61065 0.06581 0.0
C1172 C 0.49048 0.55834 0.06419 0.0
C1173 C 0.48209 0.55622 0.08287 0.0
C1174 C 0.48118 0.56501 0.04934 0.0
C1175 C 0.46327 0.56968 0.0528 0.0
C1176 C 0.45434 0.56691 0.07129 0.0
H1177 H 0.39091 0.5931 0.95782 0.0
H1178 H 0.39833 0.57633 0.98617 0.0
C1179 C 0.46374 0.56039 0.08619 0.0
C1180 C 0.45434 0.57785 0.03704 0.0
H1181 H 0.44985 0.62448 0.02204 0.0
C1182 C 0.44533 0.56371 0.02075 0.0
C1183 C 0.45596 0.60004 0.03752 0.0
C1184 C 0.46644 0.61654 0.05423 0.0
C1185 C 0.43827 0.57131 0.00481 0.0
C1186 C 0.43988 0.59348 0.00531 0.0
C1187 C 0.44846 0.60741 0.02174 0.0
C1188 C 0.43475 0.60355 0.98842 0.0
C1189 C 0.43005 0.55597 0.9873 0.0
C1190 C 0.45255 0.6247 0.98058 0.0
C1191 C 0.44836 0.63441 0.96455 0.0
C1192 C 0.42619 0.6232 0.95594 0.0
C1193 C 0.40822 0.60213 0.96399 0.0
C1194 C 0.41246 0.59244 0.98013 0.0
H1195 H 0.43454 0.54197 0.9878 0.0
H1196 H 0.41081 0.5473 0.98618 0.0
H1197 H 0.43784 0.56669 0.97428 0.0
H1198 H 0.46987 0.63362 0.98675 0.0
H1199 H 0.46265 0.65066 0.95885 0.0
H1200 H 0.92077 0.44566 0.2569 0.0
H1201 H 0.89347 0.43122 0.23026 0.0
H1202 H 0.90702 0.50149 0.22024 0.0
H1203 H 0.93507 0.51629 0.24648 0.0
H1204 H 0.85312 0.43294 0.22518 0.0
H1205 H 0.9174 0.4819 0.16777 0.0
H1206 H 0.92611 0.47891 0.19139 0.0
H1207 H 0.91694 0.49966 0.18687 0.0
C1208 C 0.91821 0.45814 0.24889 0.0
C1209 C 0.93029 0.48218 0.25375 0.0
C1210 C 0.90245 0.44981 0.23375 0.0
C1211 C 0.89844 0.46532 0.2231 0.0
C1212 C 0.91015 0.48927 0.22805 0.0
H1213 H 0.8075 0.43037 0.12261 0.0
H1214 H 0.83225 0.45179 0.14994 0.0
C1215 C 0.92598 0.49765 0.2432 0.0
C1216 C 0.88175 0.45615 0.20697 0.0
H1217 H 0.87798 0.45829 0.15864 0.0
C1218 C 0.85853 0.43859 0.21065 0.0
C1219 C 0.88881 0.46365 0.18802 0.0
C1220 C 0.9137 0.48192 0.18316 0.0
C1221 C 0.84229 0.42799 0.19586 0.0
C1222 C 0.84953 0.43494 0.17689 0.0
C1223 C 0.87251 0.45307 0.17323 0.0
C1224 C 0.8341 0.42213 0.16061 0.0
C1225 C 0.81755 0.40924 0.20063 0.0
C1226 C 0.82719 0.3985 0.15751 0.0
C1227 C 0.81324 0.3863 0.14196 0.0
C1228 C 0.80586 0.39746 0.12908 0.0
C1229 C 0.81278 0.4212 0.13226 0.0
C1230 C 0.82693 0.43348 0.14783 0.0
H1231 H 0.81318 0.41054 0.21564 0.0
H1232 H 0.80493 0.41051 0.19118 0.0
H1233 H 0.81545 0.39161 0.1986 0.0
H1234 H 0.83285 0.38953 0.16703 0.0
H1235 H 0.80832 0.36807 0.14003 0.0
loop_
_geom_bond_atom_site_label_1
_geom_bond_atom_site_label_2
_geom_bond_distance
_geom_bond_site_symmetry_2
_ccdc_geom_bond_type
H0 C19 0.949 . S
H1 C20 0.950 . S
H2 C22 0.950 . S
H3 C23 0.950 . S
H4 C25 0.950 . S
H5 C28 0.950 . S
H6 C29 0.950 . S
H7 C31 0.951 . S
H8 C32 0.949 . S
H9 C34 0.949 . S
H10 C35 0.950 . S
H11 C37 0.950 . S
H12 C38 0.950 . S
H13 C40 0.950 1_655 S
H14 C43 0.950 . S
H15 C44 0.950 . S
H16 C46 0.951 . S
H17 C47 0.949 . S
C18 C19 1.376 . S
C18 C23 1.386 . S
C18 C24 1.483 . S
C19 H0 0.949 . S
C19 C18 1.376 . S
C19 C20 1.397 . S
C20 H1 0.950 . S
C20 C19 1.397 . S
C20 C21 1.391 . S
C21 C20 1.391 . S
C21 C22 1.405 . S
C22 H2 0.950 . S
C22 C21 1.405 . S
C22 C23 1.367 . S
C23 H3 0.950 . S
C23 C18 1.386 . S
C23 C22 1.367 . S
C24 C18 1.483 . S
C24 C25 1.382 1_655 S
C24 C26 1.403 . S
C25 H4 0.950 . S
C25 C24 1.382 1_455 S
C25 C41 1.411 . S
C26 C24 1.403 . S
C26 C27 1.489 . S
C26 C40 1.411 1_655 S
C27 C26 1.489 . S
C27 C28 1.383 . S
C27 C32 1.382 . S
C28 H5 0.950 . S
C28 C27 1.383 . S
C28 C29 1.395 . S
C29 H6 0.950 . S
C29 C28 1.395 . S
C29 C30 1.288 . S
C30 C29 1.288 . S
C30 C31 1.392 . S
C31 H7 0.951 . S
C31 C30 1.392 . S
C31 C32 1.392 . S
C32 H8 0.949 . S
C32 C27 1.382 . S
C32 C31 1.392 . S
C33 C34 1.376 . S
C33 C38 1.386 . S
C33 C39 1.483 . S
C34 H9 0.949 . S
C34 C33 1.376 . S
C34 C35 1.397 . S
C35 H10 0.950 . S
C35 C34 1.397 . S
C35 C36 1.391 . S
C36 C35 1.391 . S
C36 C37 1.405 . S
C37 H11 0.950 . S
C37 C36 1.405 . S
C37 C38 1.367 . S
C38 H12 0.950 . S
C38 C33 1.386 . S
C38 C37 1.367 . S
C39 C33 1.483 . S
C39 C40 1.382 . S
C39 C41 1.403 . S
C40 H13 0.950 1_455 S
C40 C26 1.411 1_455 S
C40 C39 1.382 . S
C41 C25 1.411 . S
C41 C39 1.403 . S
C41 C42 1.489 . S
C42 C41 1.489 . S
C42 C43 1.383 . S
C42 C47 1.382 . S
C43 H14 0.950 . S
C43 C42 1.383 . S
C43 C44 1.395 . S
C44 H15 0.950 . S
C44 C43 1.395 . S
C44 C45 1.288 . S
C45 C44 1.288 . S
C45 C46 1.392 . S
C46 H16 0.951 . S
C46 C45 1.392 . S
C46 C47 1.392 . S
C47 H17 0.949 . S
C47 C42 1.382 . S
C47 C46 1.392 . S
H48 C67 0.949 . S
H49 C68 0.950 . S
H50 C70 0.950 . S
H51 C71 0.950 . S
H52 C73 0.950 . S
H53 C76 0.950 . S
H54 C77 0.950 . S
H55 C79 0.951 . S
H56 C80 0.949 . S
H57 C82 0.949 . S
H58 C83 0.950 . S
H59 C85 0.950 . S
H60 C86 0.950 . S
H61 C88 0.950 . S
H62 C91 0.950 . S
H63 C92 0.950 . S
H64 C94 0.951 . S
H65 C95 0.949 . S
C66 C67 1.376 . S
C66 C71 1.386 . S
C66 C72 1.483 . S
C67 H48 0.949 . S
C67 C66 1.376 . S
C67 C68 1.397 . S
C68 H49 0.950 . S
C68 C67 1.397 . S
C68 C69 1.391 . S
C69 C68 1.391 . S
C69 C70 1.405 . S
C70 H50 0.950 . S
C70 C69 1.405 . S
C70 C71 1.367 . S
C71 H51 0.950 . S
C71 C66 1.386 . S
C71 C70 1.367 . S
C72 C66 1.483 . S
C72 C73 1.382 . S
C72 C74 1.403 . S
C73 H52 0.950 . S
C73 C72 1.382 . S
C73 C89 1.411 1_565 S
C74 C72 1.403 . S
C74 C75 1.489 . S
C74 C88 1.411 1_565 S
C75 C74 1.489 . S
C75 C76 1.383 . S
C75 C80 1.382 . S
C76 H53 0.950 . S
C76 C75 1.383 . S
C76 C77 1.395 . S
C77 H54 0.950 . S
C77 C76 1.395 . S
C77 C78 1.288 . S
C78 C77 1.288 . S
C78 C79 1.392 . S
C79 H55 0.951 . S
C79 C78 1.392 . S
C79 C80 1.392 . S
C80 H56 0.949 . S
C80 C75 1.382 . S
C80 C79 1.392 . S
C81 C82 1.376 . S
C81 C86 1.386 . S
C81 C87 1.483 . S
C82 H57 0.949 . S
C82 C81 1.376 . S
C82 C83 1.397 . S
C83 H58 0.950 . S
C83 C82 1.397 . S
C83 C84 1.391 . S
C84 C83 1.391 . S
C84 C85 1.405 . S
C85 H59 0.950 . S
C85 C84 1.405 . S
C85 C86 1.367 . S
C86 H60 0.950 . S
C86 C81 1.386 . S
C86 C85 1.367 . S
C87 C81 1.483 . S
C87 C88 1.382 . S
C87 C89 1.403 . S
C88 H61 0.950 . S
C88 C74 1.411 1_545 S
C88 C87 1.382 . S
C89 C73 1.411 1_545 S
C89 C87 1.403 . S
C89 C90 1.489 . S
C90 C89 1.489 . S
C90 C91 1.383 . S
C90 C95 1.382 . S
C91 H62 0.950 . S
C91 C90 1.383 . S
C91 C92 1.395 . S
C92 H63 0.950 . S
C92 C91 1.395 . S
C92 C93 1.288 . S
C93 C92 1.288 . S
C93 C94 1.392 . S
C94 H64 0.951 . S
C94 C93 1.392 . S
C94 C95 1.392 . S
C95 H65 0.949 . S
C95 C90 1.382 . S
C95 C94 1.392 . S
H96 C115 0.949 . S
H97 C116 0.950 . S
H98 C118 0.950 . S
H99 C119 0.950 . S
H100 C121 0.950 . S
H101 C124 0.950 . S
H102 C125 0.950 . S
H103 C127 0.951 . S
H104 C128 0.949 . S
H105 C130 0.949 . S
H106 C131 0.950 . S
H107 C133 0.950 . S
H108 C134 0.950 . S
H109 C136 0.950 . S
H110 C139 0.950 . S
H111 C140 0.950 . S
H112 C142 0.951 . S
H113 C143 0.949 . S
C114 C115 1.376 . S
C114 C119 1.386 . S
C114 C120 1.483 . S
C115 H96 0.949 . S
C115 C114 1.376 . S
C115 C116 1.397 . S
C116 H97 0.950 . S
C116 C115 1.397 . S
C116 C117 1.391 . S
C117 C116 1.391 . S
C117 C118 1.405 . S
C118 H98 0.950 . S
C118 C117 1.405 . S
C118 C119 1.367 . S
C119 H99 0.950 . S
C119 C114 1.386 . S
C119 C118 1.367 . S
C120 C114 1.483 . S
C120 C121 1.382 . S
C120 C122 1.403 . S
C121 H100 0.950 . S
C121 C120 1.382 . S
C121 C137 1.411 . S
C122 C120 1.403 . S
C122 C123 1.489 . S
C122 C136 1.411 . S
C123 C122 1.489 . S
C123 C124 1.383 . S
C123 C128 1.382 . S
C124 H101 0.950 . S
C124 C123 1.383 . S
C124 C125 1.395 . S
C125 H102 0.950 . S
C125 C124 1.395 . S
C125 C126 1.288 . S
C126 C125 1.288 . S
C126 C127 1.392 . S
C127 H103 0.951 . S
C127 C126 1.392 . S
C127 C128 1.392 . S
C128 H104 0.949 . S
C128 C123 1.382 . S
C128 C127 1.392 . S
C129 C130 1.376 . S
C129 C134 1.386 . S
C129 C135 1.483 . S
C130 H105 0.949 . S
C130 C129 1.376 . S
C130 C131 1.397 . S
C131 H106 0.950 . S
C131 C130 1.397 . S
C131 C132 1.391 . S
C132 C131 1.391 . S
C132 C133 1.405 . S
C133 H107 0.950 . S
C133 C132 1.405 . S
C133 C134 1.367 . S
C134 H108 0.950 . S
C134 C129 1.386 . S
C134 C133 1.367 . S
C135 C129 1.483 . S
C135 C136 1.382 . S
C135 C137 1.403 . S
C136 H109 0.950 . S
C136 C122 1.411 . S
C136 C135 1.382 . S
C137 C121 1.411 . S
C137 C135 1.403 . S
C137 C138 1.489 . S
C138 C137 1.489 . S
C138 C139 1.383 . S
C138 C143 1.382 . S
C139 H110 0.950 . S
C139 C138 1.383 . S
C139 C140 1.395 . S
C140 H111 0.950 . S
C140 C139 1.395 . S
C140 C141 1.288 . S
C141 C140 1.288 . S
C141 C142 1.392 . S
C142 H112 0.951 . S
C142 C141 1.392 . S
C142 C143 1.392 . S
C143 H113 0.949 . S
C143 C138 1.382 . S
C143 C142 1.392 . S
H144 C163 0.949 . S
H145 C164 0.950 . S
H146 C166 0.950 . S
H147 C167 0.950 . S
H148 C169 0.950 1_655 S
H149 C172 0.950 . S
H150 C173 0.950 . S
H151 C175 0.951 . S
H152 C176 0.949 . S
H153 C178 0.949 . S
H154 C179 0.950 . S
H155 C181 0.950 . S
H156 C182 0.950 . S
H157 C184 0.950 . S
H158 C187 0.950 . S
H159 C188 0.950 . S
H160 C190 0.951 . S
H161 C191 0.949 . S
C162 C163 1.376 . S
C162 C167 1.386 . S
C162 C168 1.483 . S
C163 H144 0.949 . S
C163 C162 1.376 . S
C163 C164 1.397 . S
C164 H145 0.950 . S
C164 C163 1.397 . S
C164 C165 1.391 . S
C165 C164 1.391 . S
C165 C166 1.405 . S
C166 H146 0.950 . S
C166 C165 1.405 . S
C166 C167 1.367 . S
C167 H147 0.950 . S
C167 C162 1.386 . S
C167 C166 1.367 . S
C168 C162 1.483 . S
C168 C169 1.382 . S
C168 C170 1.403 . S
C169 H148 0.950 1_455 S
C169 C168 1.382 . S
C169 C185 1.411 1_455 S
C170 C168 1.403 . S
C170 C171 1.489 . S
C170 C184 1.411 . S
C171 C170 1.489 . S
C171 C172 1.383 . S
C171 C176 1.382 . S
C172 H149 0.950 . S
C172 C171 1.383 . S
C172 C173 1.395 . S
C173 H150 0.950 . S
C173 C172 1.395 . S
C173 C174 1.288 . S
C174 C173 1.288 . S
C174 C175 1.392 . S
C175 H151 0.951 . S
C175 C174 1.392 . S
C175 C176 1.392 . S
C176 H152 0.949 . S
C176 C171 1.382 . S
C176 C175 1.392 . S
C177 C178 1.376 . S
C177 C182 1.386 . S
C177 C183 1.483 . S
C178 H153 0.949 . S
C178 C177 1.376 . S
C178 C179 1.397 . S
C179 H154 0.950 . S
C179 C178 1.397 . S
C179 C180 1.391 . S
C180 C179 1.391 . S
C180 C181 1.405 . S
C181 H155 0.950 . S
C181 C180 1.405 . S
C181 C182 1.367 . S
C182 H156 0.950 . S
C182 C177 1.386 . S
C182 C181 1.367 . S
C183 C177 1.483 . S
C183 C184 1.382 1_655 S
C183 C185 1.403 . S
C184 H157 0.950 . S
C184 C170 1.411 . S
C184 C183 1.382 1_455 S
C185 C169 1.411 1_655 S
C185 C183 1.403 . S
C185 C186 1.489 . S
C186 C185 1.489 . S
C186 C187 1.383 . S
C186 C191 1.382 . S
C187 H158 0.950 . S
C187 C186 1.383 . S
C187 C188 1.395 . S
C188 H159 0.950 . S
C188 C187 1.395 . S
C188 C189 1.288 . S
C189 C188 1.288 . S
C189 C190 1.392 . S
C190 H160 0.951 . S
C190 C189 1.392 . S
C190 C191 1.392 . S
C191 H161 0.949 . S
C191 C186 1.382 . S
C191 C190 1.392 . S
H192 C211 0.949 . S
H193 C212 0.950 . S
H194 C214 0.950 . S
H195 C215 0.974 . S
H196 C217 0.950 . S
H197 C220 0.950 . S
H198 C221 0.950 . S
H199 C223 0.951 . S
H200 C224 0.949 . S
H201 C226 0.949 . S
H202 C227 0.950 . S
H203 C229 0.950 . S
H204 C230 0.950 . S
H205 C232 0.950 . S
H206 C235 0.950 . S
H207 C236 0.950 . S
H208 C238 0.951 . S
H209 C239 0.949 . S
C210 C211 1.376 . S
C210 C215 1.377 1_554 S
C210 C216 1.483 1_554 S
C211 H192 0.949 . S
C211 C210 1.376 . S
C211 C212 1.397 . S
C212 H193 0.950 . S
C212 C211 1.397 . S
C212 C213 1.391 . S
C213 C212 1.391 . S
C213 C214 1.405 . S
C214 H194 0.950 . S
C214 C213 1.405 . S
C214 C215 1.354 1_554 S
C215 H195 0.974 . S
C215 C210 1.377 1_556 S
C215 C214 1.354 1_556 S
C216 C210 1.483 1_556 S
C216 C217 1.382 1_556 S
C216 C218 1.403 . S
C217 H196 0.950 . S
C217 C216 1.382 1_554 S
C217 C233 1.411 1_545 S
C218 C216 1.403 . S
C218 C219 1.489 . S
C218 C232 1.411 1_545 S
C219 C218 1.489 . S
C219 C220 1.383 . S
C219 C224 1.382 . S
C220 H197 0.950 . S
C220 C219 1.383 . S
C220 C221 1.395 . S
C221 H198 0.950 . S
C221 C220 1.395 . S
C221 C222 1.288 . S
C222 C221 1.288 . S
C222 C223 1.392 . S
C223 H199 0.951 . S
C223 C222 1.392 . S
C223 C224 1.392 . S
C224 H200 0.949 . S
C224 C219 1.382 . S
C224 C223 1.392 . S
C225 C226 1.376 . S
C225 C230 1.386 . S
C225 C231 1.483 . S
C226 H201 0.949 . S
C226 C225 1.376 . S
C226 C227 1.397 . S
C227 H202 0.950 . S
C227 C226 1.397 . S
C227 C228 1.391 . S
C228 C227 1.391 . S
C228 C229 1.405 . S
C229 H203 0.950 . S
C229 C228 1.405 . S
C229 C230 1.367 . S
C230 H204 0.950 . S
C230 C225 1.386 . S
C230 C229 1.367 . S
C231 C225 1.483 . S
C231 C232 1.382 . S
C231 C233 1.403 1_556 S
C232 H205 0.950 . S
C232 C218 1.411 1_565 S
C232 C231 1.382 . S
C233 C217 1.411 1_565 S
C233 C231 1.403 1_554 S
C233 C234 1.489 . S
C234 C233 1.489 . S
C234 C235 1.383 . S
C234 C239 1.382 . S
C235 H206 0.950 . S
C235 C234 1.383 . S
C235 C236 1.395 . S
C236 H207 0.950 . S
C236 C235 1.395 . S
C236 C237 1.288 . S
C237 C236 1.288 . S
C237 C238 1.392 . S
C238 H208 0.951 . S
C238 C237 1.392 . S
C238 C239 1.392 . S
C239 H209 0.949 . S
C239 C234 1.382 . S
C239 C238 1.392 . S
H240 C259 0.949 . S
H241 C260 0.950 . S
H242 C262 0.950 . S
H243 C263 0.950 . S
H244 C265 0.950 . S
H245 C268 0.950 . S
H246 C269 0.950 . S
H247 C271 0.951 . S
H248 C272 0.949 . S
H249 C274 0.949 . S
H250 C275 0.950 . S
H251 C277 0.950 . S
H252 C278 0.950 . S
H253 C280 0.950 . S
H254 C283 0.950 . S
H255 C284 0.950 . S
H256 C286 0.951 . S
H257 C287 0.949 . S
C258 C259 1.376 . S
C258 C263 1.386 . S
C258 C264 1.483 . S
C259 H240 0.949 . S
C259 C258 1.376 . S
C259 C260 1.397 . S
C260 H241 0.950 . S
C260 C259 1.397 . S
C260 C261 1.391 . S
C261 C260 1.391 . S
C261 C262 1.405 . S
C262 H242 0.950 . S
C262 C261 1.405 . S
C262 C263 1.367 . S
C263 H243 0.950 . S
C263 C258 1.386 . S
C263 C262 1.367 . S
C264 C258 1.483 . S
C264 C265 1.382 . S
C264 C266 1.403 . S
C265 H244 0.950 . S
C265 C264 1.382 . S
C265 C281 1.411 . S
C266 C264 1.403 . S
C266 C267 1.489 . S
C266 C280 1.411 . S
C267 C266 1.489 . S
C267 C268 1.383 . S
C267 C272 1.382 . S
C268 H245 0.950 . S
C268 C267 1.383 . S
C268 C269 1.395 . S
C269 H246 0.950 . S
C269 C268 1.395 . S
C269 C270 1.288 . S
C270 C269 1.288 . S
C270 C271 1.392 . S
C271 H247 0.951 . S
C271 C270 1.392 . S
C271 C272 1.392 . S
C272 H248 0.949 . S
C272 C267 1.382 . S
C272 C271 1.392 . S
C273 C274 1.376 . S
C273 C278 1.386 . S
C273 C279 1.483 . S
C274 H249 0.949 . S
C274 C273 1.376 . S
C274 C275 1.397 . S
C275 H250 0.950 . S
C275 C274 1.397 . S
C275 C276 1.391 . S
C276 C275 1.391 . S
C276 C277 1.405 . S
C277 H251 0.950 . S
C277 C276 1.405 . S
C277 C278 1.367 . S
C278 H252 0.950 . S
C278 C273 1.386 . S
C278 C277 1.367 . S
C279 C273 1.483 . S
C279 C280 1.382 . S
C279 C281 1.403 . S
C280 H253 0.950 . S
C280 C266 1.411 . S
C280 C279 1.382 . S
C281 C265 1.411 . S
C281 C279 1.403 . S
C281 C282 1.489 . S
C282 C281 1.489 . S
C282 C283 1.383 . S
C282 C287 1.382 . S
C283 H254 0.950 . S
C283 C282 1.383 . S
C283 C284 1.395 . S
C284 H255 0.950 . S
C284 C283 1.395 . S
C284 C285 1.288 . S
C285 C284 1.288 . S
C285 C286 1.392 . S
C286 H256 0.951 . S
C286 C285 1.392 . S
C286 C287 1.392 . S
C287 H257 0.949 . S
C287 C282 1.382 . S
C287 C286 1.392 . S
Co288 O289 2.216 . S
Co288 O290 2.091 . S
Co288 O292 2.004 . S
Co288 O298 2.021 . S
Co288 O300 2.137 . S
Co288 O301 2.244 . S
O289 Co288 2.216 . S
O289 C296 1.247 . S
O290 Co288 2.091 . S
O290 C296 1.261 . S
C291 O300 1.247 . S
C291 O301 1.272 . S
O292 Co288 2.004 . S
O292 C297 1.259 . S
Co293 O294 2.061 . S
Co293 O299 2.052 . S
Co293 O301 2.135 . S
O294 Co293 2.061 . S
O294 C297 1.235 . S
C295 O298 1.238 . S
C295 O299 1.241 . S
C296 O289 1.247 . S
C296 O290 1.261 . S
C297 O292 1.259 . S
C297 O294 1.235 . S
O298 Co288 2.021 . S
O298 C295 1.238 . S
O299 Co293 2.052 . S
O299 C295 1.241 . S
O300 Co288 2.137 . S
O300 C291 1.247 . S
O301 Co288 2.244 . S
O301 C291 1.272 . S
O301 Co293 2.135 . S
Co302 O303 2.216 . S
Co302 O304 2.091 . S
Co302 O306 2.004 . S
Co302 O312 2.021 . S
Co302 O314 2.137 . S
Co302 O315 2.244 . S
O303 Co302 2.216 . S
O303 C310 1.247 . S
O304 Co302 2.091 . S
O304 C310 1.261 . S
C305 O314 1.247 . S
C305 O315 1.272 . S
O306 Co302 2.004 . S
O306 C311 1.259 . S
Co307 O308 2.061 . S
Co307 O313 2.052 . S
Co307 O315 2.135 . S
O308 Co307 2.061 . S
O308 C311 1.235 . S
C309 O312 1.238 . S
C309 O313 1.241 . S
C310 O303 1.247 . S
C310 O304 1.261 . S
C311 O306 1.259 . S
C311 O308 1.235 . S
O312 Co302 2.021 . S
O312 C309 1.238 . S
O313 Co307 2.052 . S
O313 C309 1.241 . S
O314 Co302 2.137 . S
O314 C305 1.247 . S
O315 Co302 2.244 . S
O315 C305 1.272 . S
O315 Co307 2.135 . S
Co316 O317 2.216 . S
Co316 O318 2.091 . S
Co316 O320 2.004 . S
Co316 O326 2.021 . S
Co316 O328 2.137 . S
Co316 O329 2.244 . S
O317 Co316 2.216 . S
O317 C324 1.247 . S
O318 Co316 2.091 . S
O318 C324 1.261 . S
C319 O328 1.247 . S
C319 O329 1.272 . S
O320 Co316 2.004 . S
O320 C325 1.259 . S
Co321 O322 2.061 . S
Co321 O327 2.052 . S
Co321 O329 2.135 . S
O322 Co321 2.061 . S
O322 C325 1.235 . S
C323 O326 1.238 . S
C323 O327 1.241 . S
C324 O317 1.247 . S
C324 O318 1.261 . S
C325 O320 1.259 . S
C325 O322 1.235 . S
O326 Co316 2.021 . S
O326 C323 1.238 . S
O327 Co321 2.052 . S
O327 C323 1.241 . S
O328 Co316 2.137 . S
O328 C319 1.247 . S
O329 Co316 2.244 . S
O329 C319 1.272 . S
O329 Co321 2.135 . S
Co330 O331 2.216 . S
Co330 O332 2.091 . S
Co330 O334 2.004 . S
Co330 O340 2.021 . S
Co330 O342 2.137 . S
Co330 O343 2.244 . S
O331 Co330 2.216 . S
O331 C338 1.247 . S
O332 Co330 2.091 . S
O332 C338 1.261 . S
C333 O342 1.247 . S
C333 O343 1.272 . S
O334 Co330 2.004 . S
O334 C339 1.259 . S
Co335 O336 2.061 . S
Co335 O341 2.052 . S
Co335 O343 2.135 . S
O336 Co335 2.061 . S
O336 C339 1.235 . S
C337 O340 1.238 . S
C337 O341 1.241 . S
C338 O331 1.247 . S
C338 O332 1.261 . S
C339 O334 1.259 . S
C339 O336 1.235 . S
O340 Co330 2.021 . S
O340 C337 1.238 . S
O341 Co335 2.052 . S
O341 C337 1.241 . S
O342 Co330 2.137 . S
O342 C333 1.247 . S
O343 Co330 2.244 . S
O343 C333 1.272 . S
O343 Co335 2.135 . S
Co344 O345 2.216 . S
Co344 O346 2.091 . S
Co344 O348 2.004 . S
Co344 O354 2.021 . S
Co344 O356 2.137 . S
Co344 O357 2.244 . S
O345 Co344 2.216 . S
O345 C352 1.247 . S
O346 Co344 2.091 . S
O346 C352 1.261 . S
C347 O356 1.247 . S
C347 O357 1.272 . S
O348 Co344 2.004 . S
O348 C353 1.259 . S
Co349 O350 2.061 . S
Co349 O355 2.052 . S
Co349 O357 2.135 . S
O350 Co349 2.061 . S
O350 C353 1.235 . S
C351 O354 1.238 . S
C351 O355 1.241 . S
C352 O345 1.247 . S
C352 O346 1.261 . S
C353 O348 1.259 . S
C353 O350 1.235 . S
O354 Co344 2.021 . S
O354 C351 1.238 . S
O355 Co349 2.052 . S
O355 C351 1.241 . S
O356 Co344 2.137 . S
O356 C347 1.247 . S
O357 Co344 2.244 . S
O357 C347 1.272 . S
O357 Co349 2.135 . S
Co358 O359 2.216 . S
Co358 O360 2.091 . S
Co358 O362 2.004 . S
Co358 O368 2.021 . S
Co358 O370 2.137 . S
Co358 O371 2.244 . S
O359 Co358 2.216 . S
O359 C366 1.247 . S
O360 Co358 2.091 . S
O360 C366 1.261 . S
C361 O370 1.247 . S
C361 O371 1.272 . S
O362 Co358 2.004 . S
O362 C367 1.259 . S
Co363 O364 2.061 . S
Co363 O369 2.052 . S
Co363 O371 2.135 . S
O364 Co363 2.061 . S
O364 C367 1.235 . S
C365 O368 1.238 . S
C365 O369 1.241 . S
C366 O359 1.247 . S
C366 O360 1.261 . S
C367 O362 1.259 . S
C367 O364 1.235 . S
O368 Co358 2.021 . S
O368 C365 1.238 . S
O369 Co363 2.052 . S
O369 C365 1.241 . S
O370 Co358 2.137 . S
O370 C361 1.247 . S
O371 Co358 2.244 . S
O371 C361 1.272 . S
O371 Co363 2.135 . S
H372 C380 0.929 . S
H373 C382 0.930 . S
H374 C384 0.930 . S
H375 C387 0.929 . S
H376 C390 0.930 . S
H377 C392 0.960 . S
H378 C392 0.960 . S
H379 C392 0.960 . S
C380 H372 0.929 . S
C380 C381 1.377 . S
C380 C382 1.384 . S
C381 C380 1.377 . S
C381 C387 1.390 . S
C382 H373 0.930 . S
C382 C380 1.384 . S
C382 C383 1.372 . S
C383 C382 1.372 . S
C383 C384 1.400 . S
C383 C388 1.490 . S
C384 H374 0.930 . S
C384 C383 1.400 . S
C384 C387 1.386 . S
H385 C401 0.930 . S
H386 C402 0.931 . S
C387 H375 0.929 . S
C387 C381 1.390 . S
C387 C384 1.386 . S
C388 C383 1.490 . S
C388 C390 1.395 . S
C388 C391 1.403 . S
H389 C395 0.930 . S
C390 H376 0.930 . S
C390 C388 1.395 . S
C390 C393 1.403 . S
C391 C388 1.403 . S
C391 C392 1.524 . S
C391 C395 1.400 . S
C392 H377 0.960 . S
C392 H378 0.960 . S
C392 H379 0.960 . S
C392 C391 1.524 . S
C393 C390 1.403 . S
C393 C394 1.392 . S
C393 C397 1.495 . S
C394 C393 1.392 . S
C394 C395 1.385 . S
C394 C396 1.478 . S
C395 H389 0.930 . S
C395 C391 1.400 . S
C395 C394 1.385 . S
C396 C394 1.478 . S
C396 C398 1.381 . S
C396 C402 1.383 . S
C397 C393 1.495 . S
C397 H403 0.959 . S
C397 H404 0.961 . S
C397 H405 0.960 . S
C398 C396 1.381 . S
C398 C399 1.394 . S
C398 H406 0.930 . S
C399 C398 1.394 . S
C399 C400 1.383 . S
C399 H407 0.929 . S
C400 C399 1.383 . S
C400 C401 1.377 . S
C401 H385 0.930 . S
C401 C400 1.377 . S
C401 C402 1.379 . S
C402 H386 0.931 . S
C402 C396 1.383 . S
C402 C401 1.379 . S
H403 C397 0.959 . S
H404 C397 0.961 . S
H405 C397 0.960 . S
H406 C398 0.930 . S
H407 C399 0.929 . S
H408 C416 0.929 . S
H409 C418 0.930 . S
H410 C420 0.930 . S
H411 C423 0.929 . S
H412 C426 0.930 . S
H413 C428 0.960 . S
H414 C428 0.960 . S
H415 C428 0.960 . S
C416 H408 0.929 . S
C416 C417 1.377 . S
C416 C418 1.384 . S
C417 C416 1.377 . S
C417 C423 1.390 . S
C418 H409 0.930 . S
C418 C416 1.384 . S
C418 C419 1.372 . S
C419 C418 1.372 . S
C419 C420 1.400 . S
C419 C424 1.490 . S
C420 H410 0.930 . S
C420 C419 1.400 . S
C420 C423 1.386 . S
H421 C437 0.930 . S
H422 C438 0.931 . S
C423 H411 0.929 . S
C423 C417 1.390 . S
C423 C420 1.386 . S
C424 C419 1.490 . S
C424 C426 1.395 . S
C424 C427 1.403 . S
H425 C431 0.930 . S
C426 H412 0.930 . S
C426 C424 1.395 . S
C426 C429 1.403 . S
C427 C424 1.403 . S
C427 C428 1.524 . S
C427 C431 1.400 . S
C428 H413 0.960 . S
C428 H414 0.960 . S
C428 H415 0.960 . S
C428 C427 1.524 . S
C429 C426 1.403 . S
C429 C430 1.392 . S
C429 C433 1.495 . S
C430 C429 1.392 . S
C430 C431 1.385 . S
C430 C432 1.478 . S
C431 H425 0.930 . S
C431 C427 1.400 . S
C431 C430 1.385 . S
C432 C430 1.478 . S
C432 C434 1.381 . S
C432 C438 1.383 . S
C433 C429 1.495 . S
C433 H439 0.959 . S
C433 H440 0.961 . S
C433 H441 0.960 . S
C434 C432 1.381 . S
C434 C435 1.394 . S
C434 H442 0.930 . S
C435 C434 1.394 . S
C435 C436 1.383 . S
C435 H443 0.929 . S
C436 C435 1.383 . S
C436 C437 1.377 . S
C437 H421 0.930 . S
C437 C436 1.377 . S
C437 C438 1.379 . S
C438 H422 0.931 . S
C438 C432 1.383 . S
C438 C437 1.379 . S
H439 C433 0.959 . S
H440 C433 0.961 . S
H441 C433 0.960 . S
H442 C434 0.930 . S
H443 C435 0.929 . S
H444 C452 0.929 . S
H445 C454 0.930 . S
H446 C456 0.930 . S
H447 C459 0.929 . S
H448 C462 0.930 . S
H449 C464 0.960 . S
H450 C464 0.960 . S
H451 C464 0.960 . S
C452 H444 0.929 . S
C452 C453 1.377 . S
C452 C454 1.384 . S
C453 C452 1.377 . S
C453 C459 1.390 . S
C454 H445 0.930 . S
C454 C452 1.384 . S
C454 C455 1.372 . S
C455 C454 1.372 . S
C455 C456 1.400 . S
C455 C460 1.490 . S
C456 H446 0.930 . S
C456 C455 1.400 . S
C456 C459 1.386 . S
H457 C473 0.930 . S
H458 C474 0.931 . S
C459 H447 0.929 . S
C459 C453 1.390 . S
C459 C456 1.386 . S
C460 C455 1.490 . S
C460 C462 1.395 . S
C460 C463 1.403 . S
H461 C467 0.930 . S
C462 H448 0.930 . S
C462 C460 1.395 . S
C462 C465 1.403 . S
C463 C460 1.403 . S
C463 C464 1.524 . S
C463 C467 1.400 . S
C464 H449 0.960 . S
C464 H450 0.960 . S
C464 H451 0.960 . S
C464 C463 1.524 . S
C465 C462 1.403 . S
C465 C466 1.392 . S
C465 C469 1.495 . S
C466 C465 1.392 . S
C466 C467 1.385 . S
C466 C468 1.478 . S
C467 H461 0.930 . S
C467 C463 1.400 . S
C467 C466 1.385 . S
C468 C466 1.478 . S
C468 C470 1.381 . S
C468 C474 1.383 . S
C469 C465 1.495 . S
C469 H475 0.959 . S
C469 H476 0.961 . S
C469 H477 0.960 . S
C470 C468 1.381 . S
C470 C471 1.394 . S
C470 H478 0.930 . S
C471 C470 1.394 . S
C471 C472 1.383 . S
C471 H479 0.929 . S
C472 C471 1.383 . S
C472 C473 1.377 . S
C473 H457 0.930 . S
C473 C472 1.377 . S
C473 C474 1.379 . S
C474 H458 0.931 . S
C474 C468 1.383 . S
C474 C473 1.379 . S
H475 C469 0.959 . S
H476 C469 0.961 . S
H477 C469 0.960 . S
H478 C470 0.930 . S
H479 C471 0.929 . S
H480 C488 0.929 . S
H481 C490 0.930 . S
H482 C492 0.930 . S
H483 C495 0.929 . S
H484 C498 0.930 . S
H485 C500 0.960 . S
H486 C500 0.960 . S
H487 C500 0.960 . S
C488 H480 0.929 . S
C488 C489 1.377 . S
C488 C490 1.384 . S
C489 C488 1.377 . S
C489 C495 1.390 . S
C490 H481 0.930 . S
C490 C488 1.384 . S
C490 C491 1.372 . S
C491 C490 1.372 . S
C491 C492 1.400 . S
C491 C496 1.490 . S
C492 H482 0.930 . S
C492 C491 1.400 . S
C492 C495 1.386 . S
H493 C509 0.930 . S
H494 C510 0.931 . S
C495 H483 0.929 . S
C495 C489 1.390 . S
C495 C492 1.386 . S
C496 C491 1.490 . S
C496 C498 1.395 . S
C496 C499 1.403 . S
H497 C503 0.930 . S
C498 H484 0.930 . S
C498 C496 1.395 . S
C498 C501 1.403 . S
C499 C496 1.403 . S
C499 C500 1.524 . S
C499 C503 1.400 . S
C500 H485 0.960 . S
C500 H486 0.960 . S
C500 H487 0.960 . S
C500 C499 1.524 . S
C501 C498 1.403 . S
C501 C502 1.392 . S
C501 C505 1.495 . S
C502 C501 1.392 . S
C502 C503 1.385 . S
C502 C504 1.478 . S
C503 H497 0.930 . S
C503 C499 1.400 . S
C503 C502 1.385 . S
C504 C502 1.478 . S
C504 C506 1.381 . S
C504 C510 1.383 . S
C505 C501 1.495 . S
C505 H511 0.959 . S
C505 H512 0.961 . S
C505 H513 0.960 . S
C506 C504 1.381 . S
C506 C507 1.394 . S
C506 H514 0.930 . S
C507 C506 1.394 . S
C507 C508 1.383 . S
C507 H515 0.929 . S
C508 C507 1.383 . S
C508 C509 1.377 . S
C509 H493 0.930 . S
C509 C508 1.377 . S
C509 C510 1.379 . S
C510 H494 0.931 . S
C510 C504 1.383 . S
C510 C509 1.379 . S
H511 C505 0.959 . S
H512 C505 0.961 . S
H513 C505 0.960 . S
H514 C506 0.930 . S
H515 C507 0.929 . S
H516 C524 0.929 . S
H517 C526 0.930 . S
H518 C528 0.930 . S
H519 C531 0.929 . S
H520 C534 0.930 . S
H521 C536 0.960 . S
H522 C536 0.960 . S
H523 C536 0.960 . S
C524 H516 0.929 . S
C524 C525 1.377 . S
C524 C526 1.384 . S
C525 C524 1.377 . S
C525 C531 1.390 . S
C526 H517 0.930 . S
C526 C524 1.384 . S
C526 C527 1.372 . S
C527 C526 1.372 . S
C527 C528 1.400 . S
C527 C532 1.490 . S
C528 H518 0.930 . S
C528 C527 1.400 . S
C528 C531 1.386 . S
H529 C545 0.930 . S
H530 C546 0.931 . S
C531 H519 0.929 . S
C531 C525 1.390 . S
C531 C528 1.386 . S
C532 C527 1.490 . S
C532 C534 1.395 . S
C532 C535 1.403 . S
H533 C539 0.930 . S
C534 H520 0.930 . S
C534 C532 1.395 . S
C534 C537 1.403 . S
C535 C532 1.403 . S
C535 C536 1.524 . S
C535 C539 1.400 . S
C536 H521 0.960 . S
C536 H522 0.960 . S
C536 H523 0.960 . S
C536 C535 1.524 . S
C537 C534 1.403 . S
C537 C538 1.392 . S
C537 C541 1.495 . S
C538 C537 1.392 . S
C538 C539 1.385 . S
C538 C540 1.478 . S
C539 H533 0.930 . S
C539 C535 1.400 . S
C539 C538 1.385 . S
C540 C538 1.478 . S
C540 C542 1.381 . S
C540 C546 1.383 . S
C541 C537 1.495 . S
C541 H547 0.959 . S
C541 H548 0.961 . S
C541 H549 0.960 . S
C542 C540 1.381 . S
C542 C543 1.394 . S
C542 H550 0.930 . S
C543 C542 1.394 . S
C543 C544 1.383 . S
C543 H551 0.929 . S
C544 C543 1.383 . S
C544 C545 1.377 . S
C545 H529 0.930 . S
C545 C544 1.377 . S
C545 C546 1.379 . S
C546 H530 0.931 . S
C546 C540 1.383 . S
C546 C545 1.379 . S
H547 C541 0.959 . S
H548 C541 0.961 . S
H549 C541 0.960 . S
H550 C542 0.930 . S
H551 C543 0.929 . S
H552 C560 0.929 . S
H553 C562 0.930 . S
H554 C564 0.930 . S
H555 C567 0.929 . S
H556 C570 0.930 . S
H557 C572 0.960 . S
H558 C572 0.960 . S
H559 C572 0.960 . S
C560 H552 0.929 . S
C560 C561 1.377 . S
C560 C562 1.384 . S
C561 C560 1.377 . S
C561 C567 1.390 . S
C562 H553 0.930 . S
C562 C560 1.384 . S
C562 C563 1.372 . S
C563 C562 1.372 . S
C563 C564 1.400 . S
C563 C568 1.490 . S
C564 H554 0.930 . S
C564 C563 1.400 . S
C564 C567 1.386 . S
H565 C581 0.930 . S
H566 C582 0.931 . S
C567 H555 0.929 . S
C567 C561 1.390 . S
C567 C564 1.386 . S
C568 C563 1.490 . S
C568 C570 1.395 . S
C568 C571 1.403 . S
H569 C575 0.930 . S
C570 H556 0.930 . S
C570 C568 1.395 . S
C570 C573 1.403 . S
C571 C568 1.403 . S
C571 C572 1.524 . S
C571 C575 1.400 . S
C572 H557 0.960 . S
C572 H558 0.960 . S
C572 H559 0.960 . S
C572 C571 1.524 . S
C573 C570 1.403 . S
C573 C574 1.392 . S
C573 C577 1.495 . S
C574 C573 1.392 . S
C574 C575 1.385 . S
C574 C576 1.478 . S
C575 H569 0.930 . S
C575 C571 1.400 . S
C575 C574 1.385 . S
C576 C574 1.478 . S
C576 C578 1.381 . S
C576 C582 1.383 . S
C577 C573 1.495 . S
C577 H583 0.959 . S
C577 H584 0.961 . S
C577 H585 0.960 . S
C578 C576 1.381 . S
C578 C579 1.394 . S
C578 H586 0.930 . S
C579 C578 1.394 . S
C579 C580 1.383 . S
C579 H587 0.929 . S
C580 C579 1.383 . S
C580 C581 1.377 . S
C581 H565 0.930 . S
C581 C580 1.377 . S
C581 C582 1.379 . S
C582 H566 0.931 . S
C582 C576 1.383 . S
C582 C581 1.379 . S
H583 C577 0.959 . S
H584 C577 0.961 . S
H585 C577 0.960 . S
H586 C578 0.930 . S
H587 C579 0.929 . S
H588 C596 0.929 . S
H589 C598 0.930 . S
H590 C600 0.930 . S
H591 C603 0.929 . S
H592 C606 0.930 . S
H593 C608 0.960 . S
H594 C608 0.960 . S
H595 C608 0.960 . S
C596 H588 0.929 . S
C596 C597 1.377 . S
C596 C598 1.384 . S
C597 C596 1.377 . S
C597 C603 1.390 . S
C598 H589 0.930 . S
C598 C596 1.384 . S
C598 C599 1.372 . S
C599 C598 1.372 . S
C599 C600 1.400 . S
C599 C604 1.490 . S
C600 H590 0.930 . S
C600 C599 1.400 . S
C600 C603 1.386 . S
H601 C617 0.930 . S
H602 C618 0.931 . S
C603 H591 0.929 . S
C603 C597 1.390 . S
C603 C600 1.386 . S
C604 C599 1.490 . S
C604 C606 1.395 . S
C604 C607 1.403 . S
H605 C611 0.930 . S
C606 H592 0.930 . S
C606 C604 1.395 . S
C606 C609 1.403 . S
C607 C604 1.403 . S
C607 C608 1.524 . S
C607 C611 1.400 . S
C608 H593 0.960 . S
C608 H594 0.960 . S
C608 H595 0.960 . S
C608 C607 1.524 . S
C609 C606 1.403 . S
C609 C610 1.392 . S
C609 C613 1.495 . S
C610 C609 1.392 . S
C610 C611 1.385 . S
C610 C612 1.478 . S
C611 H605 0.930 . S
C611 C607 1.400 . S
C611 C610 1.385 . S
C612 C610 1.478 . S
C612 C614 1.381 . S
C612 C618 1.383 . S
C613 C609 1.495 . S
C613 H619 0.959 . S
C613 H620 0.961 . S
C613 H621 0.960 . S
C614 C612 1.381 . S
C614 C615 1.394 . S
C614 H622 0.930 . S
C615 C614 1.394 . S
C615 C616 1.383 . S
C615 H623 0.929 . S
C616 C615 1.383 . S
C616 C617 1.377 . S
C617 H601 0.930 . S
C617 C616 1.377 . S
C617 C618 1.379 . S
C618 H602 0.931 . S
C618 C612 1.383 . S
C618 C617 1.379 . S
H619 C613 0.959 . S
H620 C613 0.961 . S
H621 C613 0.960 . S
H622 C614 0.930 . S
H623 C615 0.929 . S
H624 C632 0.929 . S
H625 C634 0.930 . S
H626 C636 0.930 . S
H627 C639 0.929 . S
H628 C642 0.930 . S
H629 C644 0.960 . S
H630 C644 0.960 . S
H631 C644 0.960 . S
C632 H624 0.929 . S
C632 C633 1.377 . S
C632 C634 1.384 . S
C633 C632 1.377 . S
C633 C639 1.390 . S
C634 H625 0.930 . S
C634 C632 1.384 . S
C634 C635 1.372 . S
C635 C634 1.372 . S
C635 C636 1.400 . S
C635 C640 1.490 . S
C636 H626 0.930 . S
C636 C635 1.400 . S
C636 C639 1.386 . S
H637 C653 0.930 . S
H638 C654 0.931 . S
C639 H627 0.929 . S
C639 C633 1.390 . S
C639 C636 1.386 . S
C640 C635 1.490 . S
C640 C642 1.395 . S
C640 C643 1.403 . S
H641 C647 0.930 . S
C642 H628 0.930 . S
C642 C640 1.395 . S
C642 C645 1.403 . S
C643 C640 1.403 . S
C643 C644 1.524 . S
C643 C647 1.400 . S
C644 H629 0.960 . S
C644 H630 0.960 . S
C644 H631 0.960 . S
C644 C643 1.524 . S
C645 C642 1.403 . S
C645 C646 1.392 . S
C645 C649 1.495 . S
C646 C645 1.392 . S
C646 C647 1.385 . S
C646 C648 1.478 . S
C647 H641 0.930 . S
C647 C643 1.400 . S
C647 C646 1.385 . S
C648 C646 1.478 . S
C648 C650 1.381 . S
C648 C654 1.383 . S
C649 C645 1.495 . S
C649 H655 0.959 . S
C649 H656 0.961 . S
C649 H657 0.960 . S
C650 C648 1.381 . S
C650 C651 1.394 . S
C650 H658 0.930 . S
C651 C650 1.394 . S
C651 C652 1.383 . S
C651 H659 0.929 . S
C652 C651 1.383 . S
C652 C653 1.377 . S
C653 H637 0.930 . S
C653 C652 1.377 . S
C653 C654 1.379 . S
C654 H638 0.931 . S
C654 C648 1.383 . S
C654 C653 1.379 . S
H655 C649 0.959 . S
H656 C649 0.961 . S
H657 C649 0.960 . S
H658 C650 0.930 . S
H659 C651 0.929 . S
H660 C668 0.929 . S
H661 C670 0.930 . S
H662 C672 0.930 . S
H663 C675 0.929 . S
H664 C678 0.930 . S
H665 C680 0.960 . S
H666 C680 0.960 . S
H667 C680 0.960 . S
C668 H660 0.929 . S
C668 C669 1.377 . S
C668 C670 1.384 . S
C669 C668 1.377 . S
C669 C675 1.390 . S
C670 H661 0.930 . S
C670 C668 1.384 . S
C670 C671 1.372 . S
C671 C670 1.372 . S
C671 C672 1.400 . S
C671 C676 1.490 . S
C672 H662 0.930 . S
C672 C671 1.400 . S
C672 C675 1.386 . S
H673 C689 0.930 . S
H674 C690 0.931 . S
C675 H663 0.929 . S
C675 C669 1.390 . S
C675 C672 1.386 . S
C676 C671 1.490 . S
C676 C678 1.395 . S
C676 C679 1.403 . S
H677 C683 0.930 . S
C678 H664 0.930 . S
C678 C676 1.395 . S
C678 C681 1.403 . S
C679 C676 1.403 . S
C679 C680 1.524 . S
C679 C683 1.400 . S
C680 H665 0.960 . S
C680 H666 0.960 . S
C680 H667 0.960 . S
C680 C679 1.524 . S
C681 C678 1.403 . S
C681 C682 1.392 . S
C681 C685 1.495 . S
C682 C681 1.392 . S
C682 C683 1.385 . S
C682 C684 1.478 . S
C683 H677 0.930 . S
C683 C679 1.400 . S
C683 C682 1.385 . S
C684 C682 1.478 . S
C684 C686 1.381 . S
C684 C690 1.383 . S
C685 C681 1.495 . S
C685 H691 0.959 . S
C685 H692 0.961 . S
C685 H693 0.960 . S
C686 C684 1.381 . S
C686 C687 1.394 . S
C686 H694 0.930 . S
C687 C686 1.394 . S
C687 C688 1.383 . S
C687 H695 0.929 . S
C688 C687 1.383 . S
C688 C689 1.377 . S
C689 H673 0.930 . S
C689 C688 1.377 . S
C689 C690 1.379 . S
C690 H674 0.931 . S
C690 C684 1.383 . S
C690 C689 1.379 . S
H691 C685 0.959 . S
H692 C685 0.961 . S
H693 C685 0.960 . S
H694 C686 0.930 . S
H695 C687 0.929 . S
H696 C704 0.961 . S
H697 C706 0.930 . S
H698 C708 0.930 . S
H699 C711 0.929 . S
H700 C714 0.930 . S
H701 C716 0.960 . S
H702 C716 0.960 . S
H703 C716 0.960 . S
C704 H696 0.961 . S
C704 C705 1.377 . S
C704 C706 1.384 . S
C705 C704 1.377 . S
C705 C711 1.390 . S
C706 H697 0.930 . S
C706 C704 1.384 . S
C706 C707 1.372 . S
C707 C706 1.372 . S
C707 C708 1.400 . S
C707 C712 1.490 . S
C708 H698 0.930 . S
C708 C707 1.400 . S
C708 C711 1.386 . S
H709 C725 0.930 . S
H710 C726 0.931 . S
C711 H699 0.929 . S
C711 C705 1.390 . S
C711 C708 1.386 . S
C712 C707 1.490 . S
C712 C714 1.395 . S
C712 C715 1.403 . S
H713 C719 0.930 . S
C714 H700 0.930 . S
C714 C712 1.395 . S
C714 C717 1.403 . S
C715 C712 1.403 . S
C715 C716 1.524 . S
C715 C719 1.400 . S
C716 H701 0.960 . S
C716 H702 0.960 . S
C716 H703 0.960 . S
C716 C715 1.524 . S
C717 C714 1.403 . S
C717 C718 1.392 . S
C717 C721 1.495 . S
C718 C717 1.392 . S
C718 C719 1.385 . S
C718 C720 1.478 . S
C719 H713 0.930 . S
C719 C715 1.400 . S
C719 C718 1.385 . S
C720 C718 1.478 . S
C720 C722 1.381 . S
C720 C726 1.383 . S
C721 C717 1.495 . S
C721 H727 0.955 . S
C721 H728 0.961 . S
C721 H729 0.960 . S
C722 C720 1.381 . S
C722 C723 1.394 . S
C722 H730 0.930 . S
C723 C722 1.394 . S
C723 C724 1.383 . S
C723 H731 0.929 . S
C724 C723 1.383 . S
C724 C725 1.377 . S
C725 H709 0.930 . S
C725 C724 1.377 . S
C725 C726 1.379 . S
C726 H710 0.931 . S
C726 C720 1.383 . S
C726 C725 1.379 . S
H727 C721 0.955 . S
H728 C721 0.961 . S
H729 C721 0.960 . S
H730 C722 0.930 . S
H731 C723 0.929 . S
H732 C740 0.929 . S
H733 C742 0.930 . S
H734 C744 0.930 . S
H735 C747 0.929 . S
H736 C750 0.930 . S
H737 C752 0.960 . S
H738 C752 0.960 . S
H739 C752 0.960 . S
C740 H732 0.929 . S
C740 C741 1.377 . S
C740 C742 1.384 . S
C741 C740 1.377 . S
C741 C747 1.390 . S
C742 H733 0.930 . S
C742 C740 1.384 . S
C742 C743 1.372 . S
C743 C742 1.372 . S
C743 C744 1.400 . S
C743 C748 1.490 . S
C744 H734 0.930 . S
C744 C743 1.400 . S
C744 C747 1.386 . S
H745 C761 0.930 . S
H746 C762 0.931 . S
C747 H735 0.929 . S
C747 C741 1.390 . S
C747 C744 1.386 . S
C748 C743 1.490 . S
C748 C750 1.395 . S
C748 C751 1.403 . S
H749 C755 0.930 . S
C750 H736 0.930 . S
C750 C748 1.395 . S
C750 C753 1.403 . S
C751 C748 1.403 . S
C751 C752 1.524 . S
C751 C755 1.400 . S
C752 H737 0.960 . S
C752 H738 0.960 . S
C752 H739 0.960 . S
C752 C751 1.524 . S
C753 C750 1.403 . S
C753 C754 1.392 . S
C753 C757 1.495 . S
C754 C753 1.392 . S
C754 C755 1.385 . S
C754 C756 1.478 . S
C755 H749 0.930 . S
C755 C751 1.400 . S
C755 C754 1.385 . S
C756 C754 1.478 . S
C756 C758 1.381 . S
C756 C762 1.383 . S
C757 C753 1.495 . S
C757 H763 0.959 . S
C757 H764 0.961 . S
C757 H765 0.960 . S
C758 C756 1.381 . S
C758 C759 1.394 . S
C758 H766 0.930 . S
C759 C758 1.394 . S
C759 C760 1.383 . S
C759 H767 0.929 . S
C760 C759 1.383 . S
C760 C761 1.377 . S
C761 H745 0.930 . S
C761 C760 1.377 . S
C761 C762 1.379 . S
C762 H746 0.931 . S
C762 C756 1.383 . S
C762 C761 1.379 . S
H763 C757 0.959 . S
H764 C757 0.961 . S
H765 C757 0.960 . S
H766 C758 0.930 . S
H767 C759 0.929 . S
H768 C776 0.929 . S
H769 C778 0.930 . S
H770 C780 0.930 . S
H771 C783 0.929 . S
H772 C786 0.930 . S
H773 C788 0.960 . S
H774 C788 0.960 . S
H775 C788 0.960 . S
C776 H768 0.929 . S
C776 C777 1.377 . S
C776 C778 1.384 . S
C777 C776 1.377 . S
C777 C783 1.390 . S
C778 H769 0.930 . S
C778 C776 1.384 . S
C778 C779 1.372 . S
C779 C778 1.372 . S
C779 C780 1.400 . S
C779 C784 1.490 . S
C780 H770 0.930 . S
C780 C779 1.400 . S
C780 C783 1.386 . S
H781 C797 0.930 . S
H782 C798 0.931 . S
C783 H771 0.929 . S
C783 C777 1.390 . S
C783 C780 1.386 . S
C784 C779 1.490 . S
C784 C786 1.395 . S
C784 C787 1.403 . S
H785 C791 0.930 . S
C786 H772 0.930 . S
C786 C784 1.395 . S
C786 C789 1.403 . S
C787 C784 1.403 . S
C787 C788 1.524 . S
C787 C791 1.400 . S
C788 H773 0.960 . S
C788 H774 0.960 . S
C788 H775 0.960 . S
C788 C787 1.524 . S
C789 C786 1.403 . S
C789 C790 1.392 . S
C789 C793 1.495 . S
C790 C789 1.392 . S
C790 C791 1.385 . S
C790 C792 1.478 . S
C791 H785 0.930 . S
C791 C787 1.400 . S
C791 C790 1.385 . S
C792 C790 1.478 . S
C792 C794 1.381 . S
C792 C798 1.383 . S
C793 C789 1.495 . S
C793 H799 0.959 . S
C793 H800 0.961 . S
C793 H801 0.960 . S
C794 C792 1.381 . S
C794 C795 1.394 . S
C794 H802 0.930 . S
C795 C794 1.394 . S
C795 C796 1.383 . S
C795 H803 0.929 . S
C796 C795 1.383 . S
C796 C797 1.377 . S
C797 H781 0.930 . S
C797 C796 1.377 . S
C797 C798 1.379 . S
C798 H782 0.931 . S
C798 C792 1.383 . S
C798 C797 1.379 . S
H799 C793 0.959 . S
H800 C793 0.961 . S
H801 C793 0.960 . S
H802 C794 0.930 . S
H803 C795 0.929 . S
H804 C812 0.929 . S
H805 C814 0.930 . S
H806 C816 0.930 . S
H807 C819 0.929 . S
H808 C822 0.930 . S
H809 C824 0.960 . S
H810 C824 0.960 . S
H811 C824 0.960 . S
C812 H804 0.929 . S
C812 C813 1.377 . S
C812 C814 1.384 . S
C813 C812 1.377 . S
C813 C819 1.390 . S
C814 H805 0.930 . S
C814 C812 1.384 . S
C814 C815 1.372 . S
C815 C814 1.372 . S
C815 C816 1.400 . S
C815 C820 1.490 . S
C816 H806 0.930 . S
C816 C815 1.400 . S
C816 C819 1.386 . S
H817 C833 0.930 . S
H818 C834 0.931 . S
C819 H807 0.929 . S
C819 C813 1.390 . S
C819 C816 1.386 . S
C820 C815 1.490 . S
C820 C822 1.395 . S
C820 C823 1.403 . S
H821 C827 0.930 . S
C822 H808 0.930 . S
C822 C820 1.395 . S
C822 C825 1.403 . S
C823 C820 1.403 . S
C823 C824 1.524 . S
C823 C827 1.400 . S
C824 H809 0.960 . S
C824 H810 0.960 . S
C824 H811 0.960 . S
C824 C823 1.524 . S
C825 C822 1.403 . S
C825 C826 1.392 . S
C825 C829 1.495 . S
C826 C825 1.392 . S
C826 C827 1.385 . S
C826 C828 1.478 . S
C827 H821 0.930 . S
C827 C823 1.400 . S
C827 C826 1.385 . S
C828 C826 1.478 . S
C828 C830 1.381 . S
C828 C834 1.383 . S
C829 C825 1.495 . S
C829 H835 0.959 . S
C829 H836 0.961 . S
C829 H837 0.960 . S
C830 C828 1.381 . S
C830 C831 1.394 . S
C830 H838 0.930 . S
C831 C830 1.394 . S
C831 C832 1.383 . S
C831 H839 0.929 . S
C832 C831 1.383 . S
C832 C833 1.377 . S
C833 H817 0.930 . S
C833 C832 1.377 . S
C833 C834 1.379 . S
C834 H818 0.931 . S
C834 C828 1.383 . S
C834 C833 1.379 . S
H835 C829 0.959 . S
H836 C829 0.961 . S
H837 C829 0.960 . S
H838 C830 0.930 . S
H839 C831 0.929 . S
H840 C848 0.929 . S
H841 C850 0.930 . S
H842 C852 0.930 . S
H843 C855 0.929 . S
H844 C858 0.930 . S
H845 C860 0.960 . S
H846 C860 0.960 . S
H847 C860 0.960 . S
C848 H840 0.929 . S
C848 C849 1.377 . S
C848 C850 1.384 . S
C849 C848 1.377 . S
C849 C855 1.390 . S
C850 H841 0.930 . S
C850 C848 1.384 . S
C850 C851 1.372 . S
C851 C850 1.372 . S
C851 C852 1.400 . S
C851 C856 1.490 . S
C852 H842 0.930 . S
C852 C851 1.400 . S
C852 C855 1.386 . S
H853 C869 0.930 . S
H854 C870 0.931 . S
C855 H843 0.929 . S
C855 C849 1.390 . S
C855 C852 1.386 . S
C856 C851 1.490 . S
C856 C858 1.395 . S
C856 C859 1.403 . S
H857 C863 0.930 . S
C858 H844 0.930 . S
C858 C856 1.395 . S
C858 C861 1.403 . S
C859 C856 1.403 . S
C859 C860 1.524 . S
C859 C863 1.400 . S
C860 H845 0.960 . S
C860 H846 0.960 . S
C860 H847 0.960 . S
C860 C859 1.524 . S
C861 C858 1.403 . S
C861 C862 1.392 . S
C861 C865 1.495 . S
C862 C861 1.392 . S
C862 C863 1.385 . S
C862 C864 1.478 . S
C863 H857 0.930 . S
C863 C859 1.400 . S
C863 C862 1.385 . S
C864 C862 1.478 . S
C864 C866 1.381 . S
C864 C870 1.383 . S
C865 C861 1.495 . S
C865 H871 0.959 . S
C865 H872 0.961 . S
C865 H873 0.960 . S
C866 C864 1.381 . S
C866 C867 1.394 . S
C866 H874 0.930 . S
C867 C866 1.394 . S
C867 C868 1.383 . S
C867 H875 0.929 . S
C868 C867 1.383 . S
C868 C869 1.377 . S
C869 H853 0.930 . S
C869 C868 1.377 . S
C869 C870 1.379 . S
C870 H854 0.931 . S
C870 C864 1.383 . S
C870 C869 1.379 . S
H871 C865 0.959 . S
H872 C865 0.961 . S
H873 C865 0.960 . S
H874 C866 0.930 . S
H875 C867 0.929 . S
H876 C884 0.929 . S
H877 C886 0.930 . S
H878 C888 0.930 . S
H879 C891 0.929 . S
H880 C894 0.930 . S
H881 C896 0.960 . S
H882 C896 0.960 . S
H883 C896 0.960 . S
C884 H876 0.929 . S
C884 C885 1.377 . S
C884 C886 1.384 . S
C885 C884 1.377 . S
C885 C891 1.390 . S
C886 H877 0.930 . S
C886 C884 1.384 . S
C886 C887 1.372 . S
C887 C886 1.372 . S
C887 C888 1.400 . S
C887 C892 1.490 . S
C888 H878 0.930 . S
C888 C887 1.400 . S
C888 C891 1.386 . S
H889 C905 0.930 . S
H890 C906 0.931 . S
C891 H879 0.929 . S
C891 C885 1.390 . S
C891 C888 1.386 . S
C892 C887 1.490 . S
C892 C894 1.395 . S
C892 C895 1.403 . S
H893 C899 0.930 . S
C894 H880 0.930 . S
C894 C892 1.395 . S
C894 C897 1.403 . S
C895 C892 1.403 . S
C895 C896 1.524 . S
C895 C899 1.400 . S
C896 H881 0.960 . S
C896 H882 0.960 . S
C896 H883 0.960 . S
C896 C895 1.524 . S
C897 C894 1.403 . S
C897 C898 1.392 . S
C897 C901 1.495 . S
C898 C897 1.392 . S
C898 C899 1.385 . S
C898 C900 1.478 . S
C899 H893 0.930 . S
C899 C895 1.400 . S
C899 C898 1.385 . S
C900 C898 1.478 . S
C900 C902 1.381 . S
C900 C906 1.383 . S
C901 C897 1.495 . S
C901 H907 0.959 . S
C901 H908 0.961 . S
C901 H909 0.960 . S
C902 C900 1.381 . S
C902 C903 1.394 . S
C902 H910 0.930 . S
C903 C902 1.394 . S
C903 C904 1.383 . S
C903 H911 0.929 . S
C904 C903 1.383 . S
C904 C905 1.377 . S
C905 H889 0.930 . S
C905 C904 1.377 . S
C905 C906 1.379 . S
C906 H890 0.931 . S
C906 C900 1.383 . S
C906 C905 1.379 . S
H907 C901 0.959 . S
H908 C901 0.961 . S
H909 C901 0.960 . S
H910 C902 0.930 . S
H911 C903 0.929 . S
H912 C920 0.929 . S
H913 C922 0.930 . S
H914 C924 0.930 . S
H915 C927 0.929 . S
H916 C930 0.930 . S
H917 C932 0.960 . S
H918 C932 0.960 . S
H919 C932 0.960 . S
C920 H912 0.929 . S
C920 C921 1.377 . S
C920 C922 1.384 . S
C921 C920 1.377 . S
C921 C927 1.390 . S
C922 H913 0.930 . S
C922 C920 1.384 . S
C922 C923 1.372 . S
C923 C922 1.372 . S
C923 C924 1.400 . S
C923 C928 1.490 . S
C924 H914 0.930 . S
C924 C923 1.400 . S
C924 C927 1.386 . S
H925 C941 0.930 . S
H926 C942 0.931 . S
C927 H915 0.929 . S
C927 C921 1.390 . S
C927 C924 1.386 . S
C928 C923 1.490 . S
C928 C930 1.395 . S
C928 C931 1.403 . S
H929 C935 0.930 . S
C930 H916 0.930 . S
C930 C928 1.395 . S
C930 C933 1.403 . S
C931 C928 1.403 . S
C931 C932 1.524 . S
C931 C935 1.400 . S
C932 H917 0.960 . S
C932 H918 0.960 . S
C932 H919 0.960 . S
C932 C931 1.524 . S
C933 C930 1.403 . S
C933 C934 1.392 . S
C933 C937 1.495 . S
C934 C933 1.392 . S
C934 C935 1.385 . S
C934 C936 1.502 . S
C935 H929 0.930 . S
C935 C931 1.400 . S
C935 C934 1.385 . S
C936 C934 1.502 . S
C936 C938 1.352 1_556 S
C936 C942 1.388 . S
C937 C933 1.495 . S
C937 H943 0.959 . S
C937 H944 0.961 . S
C937 H945 0.960 1_556 S
C938 C936 1.352 1_554 S
C938 C939 1.394 . S
C938 H946 0.930 . S
C939 C938 1.394 . S
C939 C940 1.383 . S
C939 H947 0.929 . S
C940 C939 1.383 . S
C940 C941 1.377 . S
C941 H925 0.930 . S
C941 C940 1.377 . S
C941 C942 1.379 1_554 S
C942 H926 0.931 . S
C942 C936 1.388 . S
C942 C941 1.379 1_556 S
H943 C937 0.959 . S
H944 C937 0.961 . S
H945 C937 0.960 1_554 S
H946 C938 0.930 . S
H947 C939 0.929 . S
H948 C956 0.929 . S
H949 C958 0.930 . S
H950 C960 0.930 . S
H951 C963 0.929 . S
H952 C966 0.930 . S
H953 C968 0.960 . S
H954 C968 0.960 . S
H955 C968 0.960 . S
C956 H948 0.929 . S
C956 C957 1.377 . S
C956 C958 1.384 . S
C957 C956 1.377 . S
C957 C963 1.390 . S
C958 H949 0.930 . S
C958 C956 1.384 . S
C958 C959 1.372 . S
C959 C958 1.372 . S
C959 C960 1.400 . S
C959 C964 1.490 . S
C960 H950 0.930 . S
C960 C959 1.400 . S
C960 C963 1.386 . S
H961 C977 0.930 . S
H962 C978 0.931 . S
C963 H951 0.929 . S
C963 C957 1.390 . S
C963 C960 1.386 . S
C964 C959 1.490 . S
C964 C966 1.395 . S
C964 C967 1.403 . S
H965 C971 0.930 . S
C966 H952 0.930 . S
C966 C964 1.395 . S
C966 C969 1.403 . S
C967 C964 1.403 . S
C967 C968 1.524 . S
C967 C971 1.400 . S
C968 H953 0.960 . S
C968 H954 0.960 . S
C968 H955 0.960 . S
C968 C967 1.524 . S
C969 C966 1.403 . S
C969 C970 1.392 . S
C969 C973 1.495 . S
C970 C969 1.392 . S
C970 C971 1.385 . S
C970 C972 1.478 . S
C971 H965 0.930 . S
C971 C967 1.400 . S
C971 C970 1.385 . S
C972 C970 1.478 . S
C972 C974 1.381 . S
C972 C978 1.383 . S
C973 C969 1.495 . S
C973 H979 0.959 . S
C973 H980 0.961 . S
C973 H981 0.960 . S
C974 C972 1.381 . S
C974 C975 1.394 . S
C974 H982 0.930 . S
C975 C974 1.394 . S
C975 C976 1.383 . S
C975 H983 0.929 . S
C976 C975 1.383 . S
C976 C977 1.377 . S
C977 H961 0.930 . S
C977 C976 1.377 . S
C977 C978 1.379 . S
C978 H962 0.931 . S
C978 C972 1.383 . S
C978 C977 1.379 . S
H979 C973 0.959 . S
H980 C973 0.961 . S
H981 C973 0.960 . S
H982 C974 0.930 . S
H983 C975 0.929 . S
H984 C992 0.929 . S
H985 C994 0.930 . S
H986 C996 0.930 . S
H987 C999 0.929 . S
H988 C1002 0.930 . S
H989 C1004 0.960 . S
H990 C1004 0.960 . S
H991 C1004 0.960 . S
C992 H984 0.929 . S
C992 C993 1.377 . S
C992 C994 1.384 . S
C993 C992 1.377 . S
C993 C999 1.390 . S
C994 H985 0.930 . S
C994 C992 1.384 . S
C994 C995 1.372 . S
C995 C994 1.372 . S
C995 C996 1.400 . S
C995 C1000 1.490 . S
C996 H986 0.930 . S
C996 C995 1.400 . S
C996 C999 1.386 . S
H997 C1013 0.930 . S
H998 C1014 0.931 . S
C999 H987 0.929 . S
C999 C993 1.390 . S
C999 C996 1.386 . S
C1000 C995 1.490 . S
C1000 C1002 1.395 . S
C1000 C1003 1.403 . S
H1001 C1007 0.930 . S
C1002 H988 0.930 . S
C1002 C1000 1.395 . S
C1002 C1005 1.403 . S
C1003 C1000 1.403 . S
C1003 C1004 1.524 . S
C1003 C1007 1.400 . S
C1004 H989 0.960 . S
C1004 H990 0.960 . S
C1004 H991 0.960 . S
C1004 C1003 1.524 . S
C1005 C1002 1.403 . S
C1005 C1006 1.392 . S
C1005 C1009 1.495 . S
C1006 C1005 1.392 . S
C1006 C1007 1.385 . S
C1006 C1008 1.478 . S
C1007 H1001 0.930 . S
C1007 C1003 1.400 . S
C1007 C1006 1.385 . S
C1008 C1006 1.478 . S
C1008 C1010 1.381 . S
C1008 C1014 1.383 . S
C1009 C1005 1.495 . S
C1009 H1015 0.959 . S
C1009 H1016 0.961 . S
C1009 H1017 0.960 . S
C1010 C1008 1.381 . S
C1010 C1011 1.394 . S
C1010 H1018 0.930 . S
C1011 C1010 1.394 . S
C1011 C1012 1.383 . S
C1011 H1019 0.929 . S
C1012 C1011 1.383 . S
C1012 C1013 1.377 . S
C1013 H997 0.930 . S
C1013 C1012 1.377 . S
C1013 C1014 1.379 . S
C1014 H998 0.931 . S
C1014 C1008 1.383 . S
C1014 C1013 1.379 . S
H1015 C1009 0.959 . S
H1016 C1009 0.961 . S
H1017 C1009 0.960 . S
H1018 C1010 0.930 . S
H1019 C1011 0.929 . S
H1020 C1028 0.929 . S
H1021 C1030 0.930 . S
H1022 C1032 0.930 . S
H1023 C1035 0.929 . S
H1024 C1038 0.930 . S
H1025 C1040 0.960 . S
H1026 C1040 0.960 . S
H1027 C1040 0.960 . S
C1028 H1020 0.929 . S
C1028 C1029 1.377 . S
C1028 C1030 1.384 . S
C1029 C1028 1.377 . S
C1029 C1035 1.390 . S
C1030 H1021 0.930 . S
C1030 C1028 1.384 . S
C1030 C1031 1.372 . S
C1031 C1030 1.372 . S
C1031 C1032 1.400 . S
C1031 C1036 1.490 . S
C1032 H1022 0.930 . S
C1032 C1031 1.400 . S
C1032 C1035 1.386 . S
H1033 C1049 0.930 . S
H1034 C1050 0.931 . S
C1035 H1023 0.929 . S
C1035 C1029 1.390 . S
C1035 C1032 1.386 . S
C1036 C1031 1.490 . S
C1036 C1038 1.395 . S
C1036 C1039 1.403 . S
H1037 C1043 0.930 . S
C1038 H1024 0.930 . S
C1038 C1036 1.395 . S
C1038 C1041 1.403 . S
C1039 C1036 1.403 . S
C1039 C1040 1.524 . S
C1039 C1043 1.400 . S
C1040 H1025 0.960 . S
C1040 H1026 0.960 . S
C1040 H1027 0.960 . S
C1040 C1039 1.524 . S
C1041 C1038 1.403 . S
C1041 C1042 1.392 . S
C1041 C1045 1.495 . S
C1042 C1041 1.392 . S
C1042 C1043 1.385 . S
C1042 C1044 1.478 . S
C1043 H1037 0.930 . S
C1043 C1039 1.400 . S
C1043 C1042 1.385 . S
C1044 C1042 1.478 . S
C1044 C1046 1.381 . S
C1044 C1050 1.383 . S
C1045 C1041 1.495 . S
C1045 H1051 0.959 . S
C1045 H1052 0.961 . S
C1045 H1053 0.960 . S
C1046 C1044 1.381 . S
C1046 C1047 1.394 . S
C1046 H1054 0.930 . S
C1047 C1046 1.394 . S
C1047 C1048 1.383 . S
C1047 H1055 0.929 . S
C1048 C1047 1.383 . S
C1048 C1049 1.377 . S
C1049 H1033 0.930 . S
C1049 C1048 1.377 . S
C1049 C1050 1.379 . S
C1050 H1034 0.931 . S
C1050 C1044 1.383 . S
C1050 C1049 1.379 . S
H1051 C1045 0.959 . S
H1052 C1045 0.961 . S
H1053 C1045 0.960 . S
H1054 C1046 0.930 . S
H1055 C1047 0.929 . S
H1056 C1064 0.929 . S
H1057 C1066 0.930 . S
H1058 C1068 0.930 . S
H1059 C1071 0.929 . S
H1060 C1074 0.930 . S
H1061 C1076 0.960 . S
H1062 C1076 0.960 . S
H1063 C1076 0.960 . S
C1064 H1056 0.929 . S
C1064 C1065 1.377 . S
C1064 C1066 1.384 . S
C1065 C1064 1.377 . S
C1065 C1071 1.390 . S
C1066 H1057 0.930 . S
C1066 C1064 1.384 . S
C1066 C1067 1.372 . S
C1067 C1066 1.372 . S
C1067 C1068 1.400 . S
C1067 C1072 1.490 . S
C1068 H1058 0.930 . S
C1068 C1067 1.400 . S
C1068 C1071 1.386 . S
H1069 C1085 0.930 . S
H1070 C1086 0.931 . S
C1071 H1059 0.929 . S
C1071 C1065 1.390 . S
C1071 C1068 1.386 . S
C1072 C1067 1.490 . S
C1072 C1074 1.395 . S
C1072 C1075 1.403 . S
H1073 C1079 0.930 . S
C1074 H1060 0.930 . S
C1074 C1072 1.395 . S
C1074 C1077 1.403 . S
C1075 C1072 1.403 . S
C1075 C1076 1.524 . S
C1075 C1079 1.400 . S
C1076 H1061 0.960 . S
C1076 H1062 0.960 . S
C1076 H1063 0.960 . S
C1076 C1075 1.524 . S
C1077 C1074 1.403 . S
C1077 C1078 1.392 . S
C1077 C1081 1.495 . S
C1078 C1077 1.392 . S
C1078 C1079 1.385 . S
C1078 C1080 1.478 . S
C1079 H1073 0.930 . S
C1079 C1075 1.400 . S
C1079 C1078 1.385 . S
C1080 C1078 1.478 . S
C1080 C1082 1.381 . S
C1080 C1086 1.383 . S
C1081 C1077 1.495 . S
C1081 H1087 0.959 . S
C1081 H1088 0.961 . S
C1081 H1089 0.960 . S
C1082 C1080 1.381 . S
C1082 C1083 1.394 . S
C1082 H1090 0.930 . S
C1083 C1082 1.394 . S
C1083 C1084 1.383 . S
C1083 H1091 0.929 . S
C1084 C1083 1.383 . S
C1084 C1085 1.377 . S
C1085 H1069 0.930 . S
C1085 C1084 1.377 . S
C1085 C1086 1.379 . S
C1086 H1070 0.931 . S
C1086 C1080 1.383 . S
C1086 C1085 1.379 . S
H1087 C1081 0.959 . S
H1088 C1081 0.961 . S
H1089 C1081 0.960 . S
H1090 C1082 0.930 . S
H1091 C1083 0.929 . S
H1092 C1100 0.929 . S
H1093 C1102 0.930 . S
H1094 C1104 0.930 . S
H1095 C1107 0.929 . S
H1096 C1110 0.930 . S
H1097 C1112 0.960 . S
H1098 C1112 0.960 . S
H1099 C1112 0.960 . S
C1100 H1092 0.929 . S
C1100 C1101 1.377 . S
C1100 C1102 1.384 . S
C1101 C1100 1.377 . S
C1101 C1107 1.390 . S
C1102 H1093 0.930 . S
C1102 C1100 1.384 . S
C1102 C1103 1.372 . S
C1103 C1102 1.372 . S
C1103 C1104 1.400 . S
C1103 C1108 1.490 . S
C1104 H1094 0.930 . S
C1104 C1103 1.400 . S
C1104 C1107 1.386 . S
H1105 C1121 0.930 . S
H1106 C1122 0.931 . S
C1107 H1095 0.929 . S
C1107 C1101 1.390 . S
C1107 C1104 1.386 . S
C1108 C1103 1.490 . S
C1108 C1110 1.395 . S
C1108 C1111 1.403 . S
H1109 C1115 0.930 . S
C1110 H1096 0.930 . S
C1110 C1108 1.395 . S
C1110 C1113 1.403 . S
C1111 C1108 1.403 . S
C1111 C1112 1.524 . S
C1111 C1115 1.400 . S
C1112 H1097 0.960 . S
C1112 H1098 0.960 . S
C1112 H1099 0.960 . S
C1112 C1111 1.524 . S
C1113 C1110 1.403 . S
C1113 C1114 1.392 . S
C1113 C1117 1.495 . S
C1114 C1113 1.392 . S
C1114 C1115 1.385 . S
C1114 C1116 1.478 . S
C1115 H1109 0.930 . S
C1115 C1111 1.400 . S
C1115 C1114 1.385 . S
C1116 C1114 1.478 . S
C1116 C1118 1.381 . S
C1116 C1122 1.383 . S
C1117 C1113 1.495 . S
C1117 H1123 0.959 . S
C1117 H1124 0.961 . S
C1117 H1125 0.960 . S
C1118 C1116 1.381 . S
C1118 C1119 1.394 . S
C1118 H1126 0.930 . S
C1119 C1118 1.394 . S
C1119 C1120 1.383 . S
C1119 H1127 0.929 . S
C1120 C1119 1.383 . S
C1120 C1121 1.377 . S
C1121 H1105 0.930 . S
C1121 C1120 1.377 . S
C1121 C1122 1.379 . S
C1122 H1106 0.931 . S
C1122 C1116 1.383 . S
C1122 C1121 1.379 . S
H1123 C1117 0.959 . S
H1124 C1117 0.961 . S
H1125 C1117 0.960 . S
H1126 C1118 0.930 . S
H1127 C1119 0.929 . S
H1128 C1136 0.929 . S
H1129 C1138 0.930 . S
H1130 C1140 0.930 . S
H1131 C1143 0.929 . S
H1132 C1146 0.930 . S
H1133 C1148 0.960 . S
H1134 C1148 0.960 . S
H1135 C1148 0.960 . S
C1136 H1128 0.929 . S
C1136 C1137 1.377 . S
C1136 C1138 1.384 . S
C1137 C1136 1.377 . S
C1137 C1143 1.390 . S
C1138 H1129 0.930 . S
C1138 C1136 1.384 . S
C1138 C1139 1.372 . S
C1139 C1138 1.372 . S
C1139 C1140 1.400 . S
C1139 C1144 1.490 . S
C1140 H1130 0.930 . S
C1140 C1139 1.400 . S
C1140 C1143 1.386 . S
H1141 C1157 0.930 . S
H1142 C1158 0.931 . S
C1143 H1131 0.929 . S
C1143 C1137 1.390 . S
C1143 C1140 1.386 . S
C1144 C1139 1.490 . S
C1144 C1146 1.395 . S
C1144 C1147 1.403 . S
H1145 C1151 0.930 . S
C1146 H1132 0.930 . S
C1146 C1144 1.395 . S
C1146 C1149 1.403 . S
C1147 C1144 1.403 . S
C1147 C1148 1.524 . S
C1147 C1151 1.400 . S
C1148 H1133 0.960 . S
C1148 H1134 0.960 . S
C1148 H1135 0.960 . S
C1148 C1147 1.524 . S
C1149 C1146 1.403 . S
C1149 C1150 1.392 . S
C1149 C1153 1.495 . S
C1150 C1149 1.392 . S
C1150 C1151 1.385 . S
C1150 C1152 1.478 . S
C1151 H1145 0.930 . S
C1151 C1147 1.400 . S
C1151 C1150 1.385 . S
C1152 C1150 1.478 . S
C1152 C1154 1.381 . S
C1152 C1158 1.383 . S
C1153 C1149 1.495 . S
C1153 H1159 0.959 . S
C1153 H1160 0.961 . S
C1153 H1161 0.960 . S
C1154 C1152 1.381 . S
C1154 C1155 1.394 . S
C1154 H1162 0.930 . S
C1155 C1154 1.394 . S
C1155 C1156 1.383 . S
C1155 H1163 0.929 . S
C1156 C1155 1.383 . S
C1156 C1157 1.377 . S
C1157 H1141 0.930 . S
C1157 C1156 1.377 . S
C1157 C1158 1.379 . S
C1158 H1142 0.931 . S
C1158 C1152 1.383 . S
C1158 C1157 1.379 . S
H1159 C1153 0.959 . S
H1160 C1153 0.961 . S
H1161 C1153 0.960 . S
H1162 C1154 0.930 . S
H1163 C1155 0.929 . S
H1164 C1172 0.929 . S
H1165 C1174 0.930 . S
H1166 C1176 0.930 . S
H1167 C1179 0.929 . S
H1168 C1182 0.930 . S
H1169 C1184 0.960 . S
H1170 C1184 0.960 . S
H1171 C1184 0.960 . S
C1172 H1164 0.929 . S
C1172 C1173 1.377 . S
C1172 C1174 1.384 . S
C1173 C1172 1.377 . S
C1173 C1179 1.390 . S
C1174 H1165 0.930 . S
C1174 C1172 1.384 . S
C1174 C1175 1.372 . S
C1175 C1174 1.372 . S
C1175 C1176 1.400 . S
C1175 C1180 1.490 . S
C1176 H1166 0.930 . S
C1176 C1175 1.400 . S
C1176 C1179 1.386 . S
H1177 C1193 0.930 . S
H1178 C1194 0.931 . S
C1179 H1167 0.929 . S
C1179 C1173 1.390 . S
C1179 C1176 1.386 . S
C1180 C1175 1.490 . S
C1180 C1182 1.395 . S
C1180 C1183 1.403 . S
H1181 C1187 0.930 . S
C1182 H1168 0.930 . S
C1182 C1180 1.395 . S
C1182 C1185 1.371 1_554 S
C1183 C1180 1.403 . S
C1183 C1184 1.524 . S
C1183 C1187 1.400 . S
C1184 H1169 0.960 . S
C1184 H1170 0.960 . S
C1184 H1171 0.960 . S
C1184 C1183 1.524 . S
C1185 C1182 1.371 1_556 S
C1185 C1186 1.389 1_556 S
C1185 C1189 1.530 . S
C1186 C1185 1.389 1_554 S
C1186 C1187 1.385 . S
C1186 C1188 1.478 1_554 S
C1187 H1181 0.930 . S
C1187 C1183 1.400 . S
C1187 C1186 1.385 . S
C1188 C1186 1.478 1_556 S
C1188 C1190 1.381 . S
C1188 C1194 1.383 . S
C1189 C1185 1.530 . S
C1189 H1195 0.959 . S
C1189 H1196 0.961 . S
C1189 H1197 0.960 . S
C1190 C1188 1.381 . S
C1190 C1191 1.394 . S
C1190 H1198 0.930 . S
C1191 C1190 1.394 . S
C1191 C1192 1.383 . S
C1191 H1199 0.929 . S
C1192 C1191 1.383 . S
C1192 C1193 1.377 . S
C1193 H1177 0.930 . S
C1193 C1192 1.377 . S
C1193 C1194 1.379 . S
C1194 H1178 0.931 . S
C1194 C1188 1.383 . S
C1194 C1193 1.379 . S
H1195 C1189 0.959 . S
H1196 C1189 0.961 . S
H1197 C1189 0.960 . S
H1198 C1190 0.930 . S
H1199 C1191 0.929 . S
H1200 C1208 0.929 . S
H1201 C1210 0.930 . S
H1202 C1212 0.930 . S
H1203 C1215 0.929 . S
H1204 C1218 0.930 . S
H1205 C1220 0.960 . S
H1206 C1220 0.960 . S
H1207 C1220 0.960 . S
C1208 H1200 0.929 . S
C1208 C1209 1.377 . S
C1208 C1210 1.384 . S
C1209 C1208 1.377 . S
C1209 C1215 1.390 . S
C1210 H1201 0.930 . S
C1210 C1208 1.384 . S
C1210 C1211 1.372 . S
C1211 C1210 1.372 . S
C1211 C1212 1.400 . S
C1211 C1216 1.490 . S
C1212 H1202 0.930 . S
C1212 C1211 1.400 . S
C1212 C1215 1.386 . S
H1213 C1229 0.930 . S
H1214 C1230 0.931 . S
C1215 H1203 0.929 . S
C1215 C1209 1.390 . S
C1215 C1212 1.386 . S
C1216 C1211 1.490 . S
C1216 C1218 1.395 . S
C1216 C1219 1.403 . S
H1217 C1223 0.930 . S
C1218 H1204 0.930 . S
C1218 C1216 1.395 . S
C1218 C1221 1.403 . S
C1219 C1216 1.403 . S
C1219 C1220 1.524 . S
C1219 C1223 1.400 . S
C1220 H1205 0.960 . S
C1220 H1206 0.960 . S
C1220 H1207 0.960 . S
C1220 C1219 1.524 . S
C1221 C1218 1.403 . S
C1221 C1222 1.392 . S
C1221 C1225 1.495 . S
C1222 C1221 1.392 . S
C1222 C1223 1.385 . S
C1222 C1224 1.478 . S
C1223 H1217 0.930 . S
C1223 C1219 1.400 . S
C1223 C1222 1.385 . S
C1224 C1222 1.478 . S
C1224 C1226 1.381 . S
C1224 C1230 1.383 . S
C1225 C1221 1.495 . S
C1225 H1231 0.959 . S
C1225 H1232 0.961 . S
C1225 H1233 0.960 . S
C1226 C1224 1.381 . S
C1226 C1227 1.394 . S
C1226 H1234 0.930 . S
C1227 C1226 1.394 . S
C1227 C1228 1.383 . S
C1227 H1235 0.929 . S
C1228 C1227 1.383 . S
C1228 C1229 1.377 . S
C1229 H1213 0.930 . S
C1229 C1228 1.377 . S
C1229 C1230 1.379 . S
C1230 H1214 0.931 . S
C1230 C1224 1.383 . S
C1230 C1229 1.379 . S
H1231 C1225 0.959 . S
H1232 C1225 0.961 . S
H1233 C1225 0.960 . S
H1234 C1226 0.930 . S
H1235 C1227 0.929 . S
C400 C361 1.620 . S
C381 C45 1.624 . S
C417 C84 1.619 . S
C436 C291 1.620 . S
C453 C126 1.611 . S
C472 C310 1.634 . S
C489 C189 1.624 . S
C508 C319 1.621 . S
C544 C333 1.610 . S
C525 C228 1.617 . S
C561 C270 1.609 . S
C580 C352 1.645 . S
C597 C69 1.584 . S
C616 C305 1.590 . S
C633 C141 1.620 . S
C652 C324 1.617 . S
C669 C174 1.590 . S
C688 C338 1.610 . S
C724 C347 1.588 . S
C705 C213 1.581 . S
C760 C366 1.621 . S
C741 C285 1.620 . S
C796 C296 1.612 . S
C777 C30 1.589 . S
C813 C36 1.505 . S
C832 C311 1.499 . S
C849 C93 1.495 . S
C868 C323 1.472 . S
C904 C337 1.493 . S
C885 C117 1.505 . S
C921 C180 1.505 . S
C940 C353 1.500 . S
C976 C365 1.457 . S
C957 C237 1.495 . S
C1012 C295 1.492 . S
C993 C261 1.505 . S
C1048 C367 1.483 . S
C1029 C78 1.501 . S
C1065 C132 1.525 . S
C1084 C297 1.509 . S
C1120 C309 1.470 . S
C1101 C165 1.513 . S
C1137 C222 1.505 . S
C1156 C325 1.494 . S
C1173 C276 1.523 . S
C1192 C339 1.510 . S
C1209 C21 1.511 . S
C1228 C351 1.494 . S
