# Generated by pormake.
# Topology rtl, (3,6)-cn, num edge types: 1
# Building blocks:
#     Node 0, Type 0, BuildingBlock: BETDAH_clean_linker_0, # of connection points: 3
#     Node 1, Type 0, BuildingBlock: BETDAH_clean_linker_0, # of connection points: 3
#     Node 2, Type 0, BuildingBlock: BETDAH_clean_linker_0, # of connection points: 3
#     Node 3, Type 0, BuildingBlock: BETDAH_clean_linker_0, # of connection points: 3
#     Node 4, Type 1, BuildingBlock: KUMBUR_clean_sbu_1, # of connection points: 6
#     Node 5, Type 1, BuildingBlock: KUMBUR_clean_sbu_1, # of connection points: 6
#     Edge 6, Type (0, 1), BuildingBlock: MIFKUJ_clean_linker_0, # of connection points: 2
#     Edge 7, Type (0, 1), BuildingBlock: MIFKUJ_clean_linker_0, # of connection points: 2
#     Edge 8, Type (0, 1), BuildingBlock: MIFKUJ_clean_linker_0, # of connection points: 2
#     Edge 9, Type (0, 1), BuildingBlock: MIFKUJ_clean_linker_0, # of connection points: 2
#     Edge 10, Type (0, 1), BuildingBlock: MIFKUJ_clean_linker_0, # of connection points: 2
#     Edge 11, Type (0, 1), BuildingBlock: MIFKUJ_clean_linker_0, # of connection points: 2
#     Edge 12, Type (0, 1), BuildingBlock: MIFKUJ_clean_linker_0, # of connection points: 2
#     Edge 13, Type (0, 1), BuildingBlock: MIFKUJ_clean_linker_0, # of connection points: 2
#     Edge 14, Type (0, 1), BuildingBlock: MIFKUJ_clean_linker_0, # of connection points: 2
#     Edge 15, Type (0, 1), BuildingBlock: MIFKUJ_clean_linker_0, # of connection points: 2
#     Edge 16, Type (0, 1), BuildingBlock: MIFKUJ_clean_linker_0, # of connection points: 2
#     Edge 17, Type (0, 1), BuildingBlock: MIFKUJ_clean_linker_0, # of connection points: 2
# Relax obj value: 0.047
# Max RMSD: 0.205
# Mean RMSD: 0.150
data_MOF--net-rtl--node1-KUMBUR_clean_sbu_1--node2-BETDAH_clean_linker_0--edge1-MIFKUJ_clean_linker_0
_symmetry_space_group_name_H-M    P1
_symmetry_Int_Tables_number       1
_symmetry_cell_setting            triclinic
loop_
_symmetry_equiv_pos_as_xyz
'x, y, z'
_cell_length_a     45.584728
_cell_length_b     45.541536
_cell_length_c     34.216549
_cell_angle_alpha  81.367139
_cell_angle_beta   100.41401
_cell_angle_gamma 90.735656
loop_
_atom_site_label
_atom_site_type_symbol
_atom_site_fract_x
_atom_site_fract_y
_atom_site_fract_z
_atom_type_partial_charge
H0 H 0.15919 0.86524 1.00121 0.0
H1 H 0.23502 0.83205 0.09066 0.0
H2 H 0.23642 0.83059 0.96589 0.0
C3 C 0.18104 0.8546 0.0092 0.0
C4 C 0.19598 0.84849 0.97864 0.0
C5 C 0.19497 0.84896 0.0498 0.0
C6 C 0.22387 0.83648 0.05955 0.0
C7 C 0.23848 0.829 0.0297 0.0
C8 C 0.22461 0.83518 0.98915 0.0
N9 N 0.26809 0.8176 0.04132 0.0
C10 C 0.27901 0.79388 0.02663 0.0
H11 H 0.64042 0.66586 0.61545 0.0
H12 H 0.70704 0.72589 0.5767 0.0
H13 H 0.69496 0.7139 0.69979 0.0
C14 C 0.65764 0.68198 0.62189 0.0
C15 C 0.66578 0.68823 0.66133 0.0
C16 C 0.67245 0.69529 0.5911 0.0
C17 C 0.69564 0.71539 0.60017 0.0
C18 C 0.70359 0.72222 0.63949 0.0
C19 C 0.68868 0.7085 0.66962 0.0
N20 N 0.72619 0.74282 0.65041 0.0
C21 C 0.74498 0.75736 0.62612 0.0
H22 H 0.86318 0.14673 0.06052 0.0
H23 H 0.79759 0.20131 0.09318 0.0
H24 H 0.79787 0.19587 0.9687 0.0
C25 C 0.84417 0.1619 0.05196 0.0
C26 C 0.83209 0.17004 0.01117 0.0
C27 C 0.83209 0.17321 0.08179 0.0
C28 C 0.80716 0.19266 0.07038 0.0
C29 C 0.79488 0.20093 0.02933 0.0
C30 C 0.8075 0.18957 1.0002 0.0
N31 N 0.76964 0.22014 0.01563 0.0
C32 C 0.75681 0.23753 0.03835 0.0
H33 H 0.374 0.35403 0.46371 0.0
H34 H 0.30439 0.29572 0.49653 0.0
H35 H 0.32054 0.30856 0.37512 0.0
C36 C 0.35627 0.3388 0.45546 0.0
C37 C 0.34938 0.333 0.41569 0.0
C38 C 0.34018 0.32551 0.48469 0.0
C39 C 0.317 0.30579 0.47416 0.0
C40 C 0.31032 0.29933 0.43453 0.0
C41 C 0.32645 0.31309 0.40576 0.0
N42 N 0.28724 0.27981 0.4215 0.0
C43 C 0.27017 0.26179 0.44506 0.0
Tb44 Tb 0.03206 0.97844 0.50199 0.0
C45 C 0.9619 0.08941 0.49793 0.0
N46 N 0.98761 0.08012 0.52358 0.0
C47 C 0.00839 0.12845 0.5093 0.0
C48 C 0.95914 0.11803 0.4751 0.0
C49 C 0.00976 0.10002 0.53177 0.0
C50 C 0.98326 0.13726 0.48011 0.0
C51 C 0.90984 0.08025 0.47269 0.0
C52 C 0.93753 0.0709 0.49674 0.0
C53 C 0.90743 0.10811 0.44825 0.0
C54 C 0.93206 0.12693 0.44935 0.0
Tb55 Tb 0.98748 0.03207 0.55575 0.0
N56 N 0.94096 0.04368 0.51966 0.0
C57 C 0.88547 0.06132 0.47413 0.0
C58 C 0.917 0.02577 0.52292 0.0
C59 C 0.88899 0.03414 0.49978 0.0
H60 H 0.02827 0.09444 0.55619 0.0
H61 H 0.87015 0.01963 0.50173 0.0
H62 H 1.00601 0.91279 0.53422 0.0
H63 H 0.14559 0.01788 0.51346 0.0
H64 H 0.91957 0.00491 0.54301 0.0
H65 H 0.86381 0.06767 0.45608 0.0
H66 H 0.09254 0.01678 0.48267 0.0
H67 H 0.02646 0.14376 0.51513 0.0
H68 H 0.88649 0.11552 0.42895 0.0
H69 H 0.92966 0.14868 0.43113 0.0
H70 H 0.0244 0.86801 0.58232 0.0
H71 H 0.98208 0.15943 0.46314 0.0
H72 H 0.16682 0.97896 0.56974 0.0
N73 N 0.04719 0.93537 0.54411 0.0
C74 C 0.07625 0.93371 0.56248 0.0
C75 C 0.03918 0.88641 0.57718 0.0
C76 C 0.08767 0.90879 0.59044 0.0
C77 C 0.02882 0.91178 0.54994 0.0
C78 C 0.06863 0.88505 0.59794 0.0
N79 N 0.08261 0.98004 0.52436 0.0
C80 C 0.101 1.00072 0.50866 0.0
C81 C 0.12492 0.95615 0.57042 0.0
C82 C 0.09444 0.95715 0.55282 0.0
C83 C 0.14325 0.97893 0.55707 0.0
C84 C 0.13134 1.00098 0.52543 0.0
H85 H 0.07653 0.86548 0.61924 0.0
H86 H 0.1268 0.88958 0.63171 0.0
H87 H 0.15955 0.93101 0.61393 0.0
O88 O 0.05666 0.96456 0.46116 0.0
O89 O 0.02862 0.96907 0.56595 0.0
O90 O 0.03089 0.01399 0.58815 0.0
O91 O 0.00944 0.95825 0.45399 0.0
O92 O 0.04378 0.02598 0.49601 0.0
O93 O 0.03451 0.04312 0.55324 0.0
O94 O 0.97475 0.01672 0.61158 0.0
O95 O 0.97055 0.02111 0.49537 0.0
O96 O 0.01196 0.01972 0.46714 0.0
O97 O 0.97402 0.06312 0.58867 0.0
O98 O 0.97339 0.98535 0.56109 0.0
O99 O 0.98584 0.96528 0.50673 0.0
C100 C 0.03861 0.98583 0.59329 0.0
C101 C 0.03741 0.92462 0.4279 0.0
C102 C 0.05409 0.89582 0.38083 0.0
C103 C 0.04258 0.87011 0.40058 0.0
C104 C 0.02588 0.8987 0.44689 0.0
C105 C 0.02869 0.87159 0.43344 0.0
C106 C 0.05166 0.92302 0.39504 0.0
C107 C 0.04939 0.04395 0.52334 0.0
C108 C 0.03355 0.95378 0.44028 0.0
C109 C 0.11766 0.90833 0.60966 0.0
C110 C 0.13627 0.93198 0.59966 0.0
C111 C 0.98407 0.02764 0.46458 0.0
C112 C 0.98606 0.05053 0.65813 0.0
C113 C 0.98281 0.06898 0.72051 0.0
C114 C 0.01386 0.07258 0.72754 0.0
C115 C 0.01715 0.05364 0.66603 0.0
C116 C 0.969 0.05768 0.6858 0.0
C117 C 0.03095 0.06454 0.7007 0.0
C118 C 0.97011 0.96578 0.53566 0.0
C119 C 0.97098 0.04342 0.61909 0.0
H120 H 0.04443 0.84881 0.39071 0.0
H121 H 0.01432 0.89942 0.47164 0.0
H122 H 0.01979 0.85168 0.44829 0.0
H123 H 0.06008 0.94312 0.37982 0.0
H124 H 0.02484 0.08159 0.75387 0.0
H125 H 0.03061 0.04856 0.64482 0.0
H126 H 0.94493 0.05576 0.67944 0.0
H127 H 0.0549 0.06727 0.70642 0.0
Tb128 Tb 0.48229 0.48718 1.00134 0.0
C129 C 0.5859 0.5702 0.04314 0.0
N130 N 0.58307 0.54108 0.0574 0.0
C131 C 0.63263 0.53092 0.04816 0.0
C132 C 0.61179 0.58069 0.02887 0.0
C133 C 0.60636 0.52157 0.06172 0.0
C134 C 0.6352 0.56053 0.03111 0.0
C135 C 0.56537 0.62012 0.03074 0.0
C136 C 0.56303 0.58951 0.04418 0.0
C137 C 0.59049 0.63062 0.01468 0.0
C138 C 0.61367 0.61093 0.01374 0.0
Tb139 Tb 0.53987 0.5279 0.07943 0.0
N140 N 0.53957 0.57854 0.06101 0.0
C141 C 0.54299 0.63935 0.03534 0.0
C142 C 0.51922 0.59764 0.06893 0.0
C143 C 0.52009 0.62811 0.05514 0.0
H144 H 0.60446 0.49876 0.07515 0.0
H145 H 0.50342 0.64298 0.06042 0.0
H146 H 0.42302 0.53424 0.97594 0.0
H147 H 0.48741 0.36985 0.05518 0.0
H148 H 0.50241 0.58969 0.08631 0.0
H149 H 0.54385 0.66302 0.02528 0.0
H150 H 0.50568 0.41771 0.02441 0.0
H151 H 0.65085 0.51531 0.05085 0.0
H152 H 0.59266 0.65405 1.00407 0.0
H153 H 0.63322 0.61944 1.00217 0.0
H154 H 0.37307 0.53656 0.99266 0.0
H155 H 0.65553 0.5677 0.02054 0.0
H156 H 0.43852 0.36784 0.07721 0.0
N157 N 0.43439 0.49207 0.01206 0.0
C158 C 0.42331 0.46739 0.03171 0.0
C159 C 0.38718 0.51716 1.00453 0.0
C160 C 0.39412 0.46711 0.0401 0.0
C161 C 0.41599 0.51606 0.99607 0.0
C162 C 0.37636 0.49277 0.02725 0.0
N163 N 0.46806 0.44245 0.03085 0.0
C164 C 0.48448 0.41699 0.0344 0.0
C165 C 0.42906 0.41481 0.05802 0.0
C166 C 0.44043 0.44153 0.04052 0.0
C167 C 0.44646 0.38885 0.0639 0.0
C168 C 0.47412 0.38989 0.05154 0.0
H169 H 0.35379 0.49348 0.03298 0.0
H170 H 0.36086 0.44027 0.06619 0.0
H171 H 0.39158 0.39457 0.08221 0.0
O172 O 0.49571 0.46911 0.95393 0.0
O173 O 0.49265 0.46946 0.06623 0.0
O174 O 0.49836 0.51095 0.09687 0.0
O175 O 0.44972 0.47854 0.9527 0.0
O176 O 0.52862 0.47063 0.01365 0.0
O177 O 0.5498 0.48105 0.07736 0.0
O178 O 0.55675 0.54979 0.1298 0.0
O179 O 0.54841 0.52513 0.0186 0.0
O180 O 0.50235 0.52859 0.97791 0.0
O181 O 0.5621 0.50214 0.13192 0.0
O182 O 0.49253 0.54191 0.06678 0.0
O183 O 0.47488 0.53505 1.00096 0.0
C184 C 0.48948 0.4835 0.09613 0.0
C185 C 0.46472 0.48171 0.89033 0.0
C186 C 0.44709 0.47566 0.82026 0.0
C187 C 0.45223 0.50596 0.80868 0.0
C188 C 0.46971 0.51185 0.8782 0.0
C189 C 0.4637 0.52384 0.8375 0.0
C190 C 0.45373 0.46357 0.86126 0.0
C191 C 0.54852 0.46565 0.04728 0.0
C192 C 0.46881 0.46939 0.93323 0.0
C193 C 0.38316 0.44088 0.05931 0.0
C194 C 0.4006 0.41479 0.06827 0.0
C195 C 0.53095 0.53464 0.98414 0.0
C196 C 0.58411 0.52139 0.19272 0.0
C197 C 0.60503 0.54148 0.25417 0.0
C198 C 0.61861 0.51373 0.27046 0.0
C199 C 0.59785 0.49385 0.21 0.0
C200 C 0.5875 0.54521 0.21522 0.0
C201 C 0.6149 0.49011 0.24857 0.0
C202 C 0.47484 0.54937 0.03173 0.0
C203 C 0.56746 0.52485 0.15087 0.0
H204 H 0.44742 0.51575 0.77729 0.0
H205 H 0.47772 0.52613 0.90025 0.0
H206 H 0.46757 0.54715 0.82833 0.0
H207 H 0.4494 0.44034 0.87063 0.0
H208 H 0.63193 0.51025 0.30043 0.0
H209 H 0.59573 0.47516 0.19354 0.0
H210 H 0.57711 0.56659 0.20232 0.0
H211 H 0.62541 0.46882 0.26149 0.0
H212 H 0.23956 0.22411 0.40159 0.0
H213 H 0.20216 0.18864 0.4211 0.0
H214 H 0.21563 0.21549 0.53867 0.0
H215 H 0.25353 0.25124 0.51891 0.0
H216 H 0.21104 0.15333 0.54089 0.0
H217 H 0.15543 0.24039 0.47338 0.0
H218 H 0.14079 0.28224 0.41878 0.0
H219 H 0.11411 0.2211 0.3353 0.0
H220 H 0.12899 0.17887 0.38928 0.0
H221 H 0.0814 0.07237 0.5821 0.0
H222 H 0.11852 0.11115 0.57455 0.0
H223 H 0.10749 0.1055 0.44796 0.0
H224 H 0.06929 0.068 0.455 0.0
H225 H 0.10978 0.16068 0.45699 0.0
H226 H 0.16999 0.07411 0.52142 0.0
H227 H 0.1859 0.03164 0.57466 0.0
H228 H 0.2041 0.09073 0.66247 0.0
H229 H 0.18827 0.13358 0.60975 0.0
C230 C 0.2346 0.22233 0.43166 0.0
C231 C 0.24918 0.2403 0.45877 0.0
C232 C 0.21318 0.20215 0.44275 0.0
C233 C 0.20575 0.19963 0.48117 0.0
C234 C 0.22093 0.21713 0.50882 0.0
C235 C 0.24246 0.23752 0.49758 0.0
C236 C 0.18174 0.179 0.49156 0.0
C237 C 0.18872 0.15521 0.52306 0.0
C238 C 0.15275 0.18111 0.46785 0.0
C239 C 0.14352 0.20647 0.43535 0.0
C240 C 0.14663 0.23587 0.44333 0.0
C241 C 0.13826 0.25966 0.41249 0.0
C242 C 0.12657 0.25433 0.37358 0.0
C243 C 0.12317 0.22519 0.36545 0.0
C244 C 0.13153 0.20132 0.39617 0.0
C245 C 0.08681 0.07953 0.55262 0.0
C246 C 0.07245 0.06701 0.51917 0.0
C247 C 0.10827 0.10152 0.5484 0.0
C248 C 0.11627 0.11108 0.51076 0.0
C249 C 0.10185 0.09858 0.47736 0.0
C250 C 0.08014 0.07691 0.48147 0.0
C251 C 0.13921 0.13439 0.50566 0.0
C252 C 0.13199 0.15883 0.47514 0.0
C253 C 0.16798 0.13271 0.53012 0.0
C254 C 0.17767 0.107 0.56174 0.0
C255 C 0.17722 0.07801 0.55213 0.0
C256 C 0.18623 0.05388 0.58219 0.0
C257 C 0.19582 0.05845 0.62194 0.0
C258 C 0.1966 0.08721 0.63168 0.0
C259 C 0.18768 0.11143 0.60171 0.0
H260 H 0.20275 0.03972 0.64517 0.0
H261 H 0.12012 0.27278 0.34975 0.0
H262 H 0.31419 0.7907 0.97134 0.0
H263 H 0.34524 0.74785 0.96712 0.0
H264 H 0.3092 0.69628 0.0635 0.0
H265 H 0.27834 0.73904 0.06764 0.0
H266 H 0.3701 0.6951 0.07742 0.0
H267 H 0.29037 0.68164 0.96782 0.0
H268 H 0.25651 0.69737 0.90337 0.0
H269 H 0.33163 0.71342 0.84373 0.0
H270 H 0.36596 0.69816 0.90795 0.0
H271 H 0.43743 0.55659 0.08283 0.0
H272 H 0.40114 0.5968 0.07697 0.0
H273 H 0.42782 0.63778 0.96679 0.0
H274 H 0.46256 0.59613 0.97129 0.0
H275 H 0.37215 0.64578 0.95817 0.0
H276 H 0.45212 0.66189 0.06421 0.0
H277 H 0.48807 0.64836 0.1275 0.0
H278 H 0.41583 0.63126 0.19235 0.0
H279 H 0.37948 0.64434 0.12941 0.0
C280 C 0.3125 0.76994 0.99088 0.0
C281 C 0.29382 0.76783 0.01952 0.0
C282 C 0.33021 0.74552 0.98853 0.0
C283 C 0.32951 0.71878 0.01496 0.0
C284 C 0.31013 0.71663 0.04282 0.0
C285 C 0.29239 0.74094 0.04502 0.0
C286 C 0.35033 0.69371 0.01565 0.0
C287 C 0.37028 0.68404 0.05149 0.0
C288 C 0.35139 0.68004 0.98142 0.0
C289 C 0.33074 0.68903 0.94277 0.0
C290 C 0.29967 0.68875 0.94102 0.0
C291 C 0.28039 0.69754 0.90452 0.0
C292 C 0.29191 0.70646 0.8695 0.0
C293 C 0.32273 0.70653 0.87089 0.0
C294 C 0.34211 0.69779 0.90732 0.0
C295 C 0.4354 0.57421 0.05737 0.0
C296 C 0.45283 0.57357 0.02768 0.0
C297 C 0.41482 0.59732 0.05411 0.0
C298 C 0.41221 0.621 0.02204 0.0
C299 C 0.42938 0.61997 0.99194 0.0
C300 C 0.44928 0.59627 0.99453 0.0
C301 C 0.39184 0.64684 0.02019 0.0
C302 C 0.37206 0.65679 0.98414 0.0
C303 C 0.3913 0.66124 0.05406 0.0
C304 C 0.41311 0.65385 0.09206 0.0
C305 C 0.44394 0.65509 0.09196 0.0
C306 C 0.46437 0.64751 0.12774 0.0
C307 C 0.45424 0.63888 0.16387 0.0
C308 C 0.42365 0.63792 0.16433 0.0
C309 C 0.40312 0.64546 0.12863 0.0
H310 H 0.47009 0.63299 0.19154 0.0
H311 H 0.27695 0.71327 0.84127 0.0
H312 H 0.73774 0.7995 0.55963 0.0
H313 H 0.77612 0.83386 0.5386 0.0
H314 H 0.84149 0.78963 0.63615 0.0
H315 H 0.80327 0.75546 0.65692 0.0
H316 H 0.84001 0.85015 0.63453 0.0
H317 H 0.8435 0.78153 0.54008 0.0
H318 H 0.82173 0.75363 0.48561 0.0
H319 H 0.79402 0.83538 0.40809 0.0
H320 H 0.81528 0.86377 0.4623 0.0
H321 H 0.97166 0.92111 0.59777 0.0
H322 H 0.93356 0.88372 0.60783 0.0
H323 H 0.879 0.92259 0.49571 0.0
H324 H 0.91824 0.95881 0.48462 0.0
H325 H 0.87245 0.86641 0.50227 0.0
H326 H 0.86719 0.93577 0.5923 0.0
H327 H 0.88639 0.96613 0.64505 0.0
H328 H 0.91282 0.88704 0.72906 0.0
H329 H 0.89418 0.8562 0.67663 0.0
C330 C 0.76049 0.79682 0.57585 0.0
C331 C 0.76782 0.7748 0.60954 0.0
C332 C 0.78236 0.81643 0.56395 0.0
C333 C 0.81175 0.81432 0.58579 0.0
C334 C 0.81903 0.79172 0.61885 0.0
C335 C 0.79728 0.77211 0.63054 0.0
C336 C 0.83457 0.83662 0.57606 0.0
C337 C 0.84738 0.85345 0.60577 0.0
C338 C 0.84332 0.84182 0.53801 0.0
C339 C 0.83072 0.82475 0.50538 0.0
C340 C 0.83255 0.79355 0.51153 0.0
C341 C 0.82035 0.77765 0.48068 0.0
C342 C 0.80643 0.79272 0.44345 0.0
C343 C 0.80477 0.82373 0.43696 0.0
C344 C 0.81692 0.83973 0.46772 0.0
C345 C 0.95158 0.9214 0.57523 0.0
C346 C 0.94764 0.9427 0.54056 0.0
C347 C 0.92969 0.90021 0.58106 0.0
C348 C 0.90286 0.90068 0.55308 0.0
C349 C 0.89934 0.9217 0.51786 0.0
C350 C 0.92166 0.94241 0.51153 0.0
C351 C 0.8784 0.87968 0.56108 0.0
C352 C 0.86512 0.86321 0.53104 0.0
C353 C 0.86868 0.87521 0.59862 0.0
C354 C 0.87948 0.89368 0.63044 0.0
C355 C 0.87722 0.92485 0.62197 0.0
C356 C 0.88801 0.94215 0.65181 0.0
C357 C 0.90087 0.92852 0.69036 0.0
C358 C 0.90288 0.89756 0.69918 0.0
C359 C 0.89218 0.88016 0.66942 0.0
H360 H 0.90923 0.94195 0.71341 0.0
H361 H 0.79699 0.78037 0.41961 0.0
H362 H 0.76493 0.2964 0.03205 0.0
H363 H 0.73036 0.33342 0.04398 0.0
H364 H 0.67473 0.26311 0.08765 0.0
H365 H 0.70918 0.2261 0.0748 0.0
H366 H 0.64193 0.30147 0.03467 0.0
H367 H 0.71418 0.30894 0.15098 0.0
H368 H 0.76404 0.31432 0.19119 0.0
H369 H 0.77156 0.40081 0.1241 0.0
H370 H 0.72189 0.39578 0.08306 0.0
H371 H 0.58338 0.43805 0.1165 0.0
H372 H 0.61897 0.39702 0.12378 0.0
H373 H 0.60028 0.39774 0.99543 0.0
H374 H 0.56388 0.43791 0.98814 0.0
H375 H 0.66859 0.39049 0.10045 0.0
H376 H 0.60745 0.33166 0.97047 0.0
H377 H 0.55596 0.32348 0.93705 0.0
H378 H 0.52366 0.33361 0.04468 0.0
H379 H 0.57491 0.34186 0.07873 0.0
C380 C 0.74573 0.28895 0.04526 0.0
C381 C 0.73976 0.25859 0.05308 0.0
C382 C 0.72597 0.31008 0.05209 0.0
C383 C 0.69994 0.30114 0.067 0.0
C384 C 0.69463 0.2706 0.07619 0.0
C385 C 0.71439 0.24947 0.06921 0.0
C386 C 0.67713 0.32364 0.06951 0.0
C387 C 0.64778 0.32082 0.04931 0.0
C388 C 0.68446 0.34871 0.08917 0.0
C389 C 0.71438 0.35187 0.11372 0.0
C390 C 0.72655 0.32901 0.14457 0.0
C391 C 0.75477 0.33202 0.16756 0.0
C392 C 0.77098 0.35787 0.16015 0.0
C393 C 0.75898 0.38079 0.12979 0.0
C394 C 0.73078 0.37789 0.10668 0.0
C395 C 0.58676 0.4294 0.08981 0.0
C396 C 0.57056 0.44112 0.05175 0.0
C397 C 0.6072 0.40595 0.09403 0.0
C398 C 0.61206 0.39383 0.06028 0.0
C399 C 0.59642 0.40606 0.02213 0.0
C400 C 0.57567 0.42918 0.01795 0.0
C401 C 0.63361 0.36863 0.0648 0.0
C402 C 0.66271 0.37099 0.08616 0.0
C403 C 0.62588 0.34271 0.04716 0.0
C404 C 0.59499 0.33757 0.02702 0.0
C405 C 0.58935 0.33207 0.98702 0.0
C406 C 0.5602 0.32752 0.96794 0.0
C407 C 0.53653 0.3282 0.98866 0.0
C408 C 0.54197 0.33335 0.02855 0.0
C409 C 0.57106 0.33802 0.04774 0.0
H410 H 0.51398 0.32464 0.97385 0.0
H411 H 0.79282 0.36016 0.178 0.0
H412 H 0.13738 0.83785 0.05977 0.0
H413 H 0.11331 0.84904 0.11434 0.0
H414 H 0.1942 0.88942 0.16679 0.0
H415 H 0.21849 0.87768 0.11278 0.0
H416 H 0.17369 0.85616 0.22321 0.0
H417 H 0.13029 0.93094 0.11617 0.0
H418 H 0.10401 0.95149 0.04827 0.0
H419 H 0.02643 0.90115 0.06844 0.0
H420 H 0.0524 0.87996 0.1363 0.0
H421 H 0.10632 0.92078 0.36392 0.0
H422 H 0.13 0.91617 0.30613 0.0
H423 H 0.05716 0.86253 0.25941 0.0
H424 H 0.03333 0.86719 0.31686 0.0
H425 H 0.07421 0.90517 0.20026 0.0
H426 H 0.12033 0.82951 0.30768 0.0
H427 H 0.14744 0.81116 0.37596 0.0
H428 H 0.22132 0.86694 0.35466 0.0
H429 H 0.19445 0.88595 0.2864 0.0
C430 C 0.14991 0.84935 0.08276 0.0
C431 C 0.17985 0.85681 0.08201 0.0
C432 C 0.13612 0.85583 0.11392 0.0
C433 C 0.15178 0.87042 0.14461 0.0
C434 C 0.18162 0.8781 0.14363 0.0
C435 C 0.1955 0.87134 0.11275 0.0
C436 C 0.13746 0.87677 0.17843 0.0
C437 C 0.15216 0.86734 0.21805 0.0
C438 C 0.10912 0.89095 0.17199 0.0
C439 C 0.09341 0.90364 0.13119 0.0
C440 C 0.10771 0.92406 0.10602 0.0
C441 C 0.09285 0.93586 0.06755 0.0
C442 C 0.06359 0.92757 0.05401 0.0
C443 C 0.04911 0.90752 0.07895 0.0
C444 C 0.06388 0.89563 0.11743 0.0
C445 C 0.09524 0.90824 0.34113 0.0
C446 C 0.06806 0.89416 0.3451 0.0
C447 C 0.10886 0.9055 0.30825 0.0
C448 C 0.09546 0.8888 0.27861 0.0
C449 C 0.06792 0.87546 0.28194 0.0
C450 C 0.05446 0.87795 0.31494 0.0
C451 C 0.11044 0.88446 0.24469 0.0
C452 C 0.09584 0.89421 0.20517 0.0
C453 C 0.13902 0.87092 0.25118 0.0
C454 C 0.15525 0.85938 0.2921 0.0
C455 C 0.14226 0.83804 0.31767 0.0
C456 C 0.1576 0.82749 0.35635 0.0
C457 C 0.18605 0.83794 0.36968 0.0
C458 C 0.19926 0.8589 0.34431 0.0
C459 C 0.18399 0.86956 0.30562 0.0
H460 H 0.1979 0.82974 0.39963 0.0
H461 H 0.05212 0.93674 0.02422 0.0
H462 H 0.69206 0.66211 0.73654 0.0
H463 H 0.66781 0.63675 0.79025 0.0
H464 H 0.58174 0.6547 0.71418 0.0
H465 H 0.60592 0.68015 0.66019 0.0
H466 H 0.58428 0.6663 0.79446 0.0
H467 H 0.609 0.58814 0.72528 0.0
H468 H 0.64253 0.55908 0.69615 0.0
H469 H 0.6979 0.53633 0.81228 0.0
H470 H 0.66493 0.56564 0.84201 0.0
H471 H 0.50215 0.57091 0.9175 0.0
H472 H 0.52344 0.5965 0.86136 0.0
H473 H 0.61088 0.56259 0.92011 0.0
H474 H 0.58903 0.53445 0.97391 0.0
H475 H 0.60657 0.5598 0.84648 0.0
H476 H 0.58321 0.63813 0.91663 0.0
H477 H 0.55056 0.66785 0.94639 0.0
H478 H 0.49451 0.69137 0.83107 0.0
H479 H 0.52651 0.66155 0.8006 0.0
C480 C 0.66795 0.66084 0.73133 0.0
C481 C 0.6509 0.67312 0.69409 0.0
C482 C 0.65414 0.64622 0.76198 0.0
C483 C 0.62297 0.64372 0.75618 0.0
C484 C 0.60582 0.65637 0.7193 0.0
C485 C 0.61966 0.67071 0.68841 0.0
C486 C 0.60842 0.62745 0.78845 0.0
C487 C 0.58883 0.64293 0.8056 0.0
C488 C 0.61491 0.59714 0.80355 0.0
C489 C 0.63465 0.57932 0.78579 0.0
C490 C 0.62846 0.57714 0.74455 0.0
C491 C 0.64734 0.56059 0.72793 0.0
C492 C 0.67237 0.54593 0.75233 0.0
C493 C 0.67853 0.54773 0.79341 0.0
C494 C 0.65973 0.56429 0.81016 0.0
C495 C 0.52585 0.56858 0.91817 0.0
C496 C 0.54397 0.55087 0.95052 0.0
C497 C 0.53814 0.58367 0.8863 0.0
C498 C 0.56901 0.58223 0.88669 0.0
C499 C 0.58706 0.56437 0.91897 0.0
C500 C 0.57462 0.54862 0.95019 0.0
C501 C 0.58252 0.59867 0.85324 0.0
C502 C 0.60196 0.58321 0.83566 0.0
C503 C 0.57611 0.62911 0.83811 0.0
C504 C 0.55713 0.6474 0.85639 0.0
C505 C 0.56384 0.64951 0.89765 0.0
C506 C 0.54546 0.66636 0.91465 0.0
C507 C 0.52048 0.68138 0.89069 0.0
C508 C 0.51386 0.67969 0.84961 0.0
C509 C 0.53212 0.66285 0.83244 0.0
H510 H 0.50629 0.69438 0.90395 0.0
H511 H 0.68696 0.53312 0.73942 0.0
H512 H 0.8048 0.14994 0.14443 0.0
H513 H 0.8292 0.12784 0.21225 0.0
H514 H 0.91497 0.15376 0.18292 0.0
H515 H 0.89073 0.17518 0.11519 0.0
H516 H 0.91706 0.09798 0.21383 0.0
H517 H 0.88136 0.18704 0.24982 0.0
H518 H 0.84403 0.22466 0.25381 0.0
H519 H 0.79644 0.15825 0.31936 0.0
H520 H 0.83326 0.12012 0.31525 0.0
H521 H 0.00651 0.06538 0.40808 0.0
H522 H 0.97899 0.0925 0.34505 0.0
H523 H 0.89703 0.05305 0.37196 0.0
H524 H 0.92462 0.0253 0.43448 0.0
H525 H 0.89183 0.11501 0.3438 0.0
H526 H 0.92782 0.02622 0.30699 0.0
H527 H 0.96611 0.98919 0.30426 0.0
H528 H 0.01395 0.05648 0.24057 0.0
H529 H 0.97618 0.09404 0.2435 0.0
C530 C 0.82879 0.15142 0.15287 0.0
C531 C 0.84591 0.1641 0.12458 0.0
C532 C 0.84274 0.1388 0.1916 0.0
C533 C 0.874 0.13908 0.2028 0.0
C534 C 0.89089 0.15302 0.175 0.0
C535 C 0.87702 0.16533 0.13634 0.0
C536 C 0.88946 0.12313 0.24223 0.0
C537 C 0.91177 0.10211 0.24221 0.0
C538 C 0.88208 0.12777 0.27936 0.0
C539 C 0.85989 0.15065 0.28181 0.0
C540 C 0.86278 0.18039 0.26476 0.0
C541 C 0.84174 0.20182 0.26711 0.0
C542 C 0.81782 0.19383 0.28671 0.0
C543 C 0.81494 0.1644 0.30411 0.0
C544 C 0.8359 0.14287 0.3018 0.0
C545 C 0.98266 0.06237 0.40036 0.0
C546 C 0.9676 0.04347 0.42623 0.0
C547 C 0.96695 0.07796 0.36453 0.0
C548 C 0.93596 0.0748 0.35388 0.0
C549 C 0.92089 0.05597 0.37975 0.0
C550 C 0.93664 0.04018 0.41541 0.0
C551 C 0.91951 0.09038 0.31506 0.0
C552 C 0.89702 0.1111 0.31527 0.0
C553 C 0.92675 0.08561 0.27802 0.0
C554 C 0.94932 0.063 0.27581 0.0
C555 C 0.94663 0.03317 0.29268 0.0
C556 C 0.96822 0.01208 0.29106 0.0
C557 C 0.99249 0.02049 0.27234 0.0
C558 C 0.99516 0.05 0.2551 0.0
C559 C 0.97366 0.0712 0.25671 0.0
H560 H 0.00918 0.00413 0.27112 0.0
H561 H 0.80156 0.21046 0.28851 0.0
H562 H 0.39218 0.31552 0.53825 0.0
H563 H 0.40708 0.33668 0.60071 0.0
H564 H 0.31996 0.37751 0.58363 0.0
H565 H 0.30476 0.35564 0.52165 0.0
H566 H 0.37245 0.41681 0.59261 0.0
H567 H 0.33367 0.32669 0.65662 0.0
H568 H 0.32953 0.27236 0.67273 0.0
H569 H 0.4227 0.26531 0.72468 0.0
H570 H 0.42751 0.31959 0.70833 0.0
H571 H 0.3959 0.48634 0.7652 0.0
H572 H 0.37487 0.45695 0.71292 0.0
H573 H 0.44842 0.39439 0.75263 0.0
H574 H 0.46862 0.42311 0.80641 0.0
H575 H 0.40161 0.36482 0.73232 0.0
H576 H 0.44378 0.45064 0.66707 0.0
H577 H 0.45283 0.50397 0.64842 0.0
H578 H 0.36037 0.51828 0.5953 0.0
H579 H 0.35067 0.46507 0.61413 0.0
C580 C 0.37601 0.32833 0.54853 0.0
C581 C 0.34728 0.33379 0.52553 0.0
C582 C 0.38453 0.34043 0.58407 0.0
C583 C 0.36461 0.35864 0.59675 0.0
C584 C 0.33559 0.36341 0.57439 0.0
C585 C 0.32688 0.35081 0.53924 0.0
C586 C 0.37499 0.37474 0.63124 0.0
C587 C 0.37831 0.40558 0.62331 0.0
C588 C 0.3839 0.35981 0.67089 0.0
C589 C 0.38101 0.32719 0.68089 0.0
C590 C 0.35334 0.31354 0.67114 0.0
C591 C 0.35086 0.28275 0.68039 0.0
C592 C 0.37585 0.26539 0.69963 0.0
C593 C 0.40337 0.27879 0.70974 0.0
C594 C 0.40598 0.30957 0.70053 0.0
C595 C 0.40748 0.46624 0.76278 0.0
C596 C 0.43401 0.45711 0.78953 0.0
C597 C 0.39555 0.44951 0.73276 0.0
C598 C 0.41038 0.42374 0.72797 0.0
C599 C 0.43654 0.41419 0.75545 0.0
C600 C 0.44814 0.43062 0.78611 0.0
C601 C 0.39889 0.40721 0.69392 0.0
C602 C 0.39556 0.37624 0.70175 0.0
C603 C 0.39071 0.42191 0.65384 0.0
C604 C 0.39644 0.45392 0.64239 0.0
C605 C 0.42533 0.4652 0.65168 0.0
C606 C 0.43058 0.4954 0.64103 0.0
C607 C 0.40717 0.51451 0.62079 0.0
C608 C 0.37847 0.50345 0.61104 0.0
C609 C 0.37308 0.47327 0.62167 0.0
H610 H 0.41129 0.53789 0.61257 0.0
H611 H 0.37388 0.24156 0.70677 0.0
H612 H 0.61636 0.69119 0.54779 0.0
H613 H 0.60216 0.67251 0.48374 0.0
H614 H 0.69504 0.66173 0.47772 0.0
H615 H 0.70936 0.68083 0.54165 0.0
H616 H 0.66369 0.68095 0.40439 0.0
H617 H 0.65388 0.60316 0.51257 0.0
H618 H 0.63588 0.58041 0.57379 0.0
H619 H 0.54529 0.59168 0.5111 0.0
H620 H 0.56275 0.61492 0.44964 0.0
H621 H 0.65773 0.56268 0.28904 0.0
H622 H 0.6657 0.59682 0.33862 0.0
H623 H 0.57055 0.60858 0.32613 0.0
H624 H 0.56251 0.57436 0.27605 0.0
H625 H 0.59894 0.59252 0.40526 0.0
H626 H 0.61066 0.66566 0.29405 0.0
H627 H 0.63037 0.68687 0.23354 0.0
H628 H 0.71928 0.68226 0.30234 0.0
H629 H 0.70016 0.6606 0.36318 0.0
C630 C 0.63376 0.68503 0.53267 0.0
C631 C 0.66399 0.68717 0.55001 0.0
C632 C 0.62561 0.67434 0.49605 0.0
C633 C 0.6475 0.66512 0.47622 0.0
C634 C 0.67772 0.66861 0.49247 0.0
C635 C 0.6859 0.67956 0.529 0.0
C636 C 0.63891 0.65035 0.43985 0.0
C637 C 0.64972 0.66149 0.40467 0.0
C638 C 0.62015 0.62528 0.43983 0.0
C639 C 0.60961 0.61108 0.47664 0.0
C640 C 0.63011 0.60098 0.51193 0.0
C641 C 0.62001 0.58798 0.54666 0.0
C642 C 0.58946 0.58468 0.54637 0.0
C643 C 0.56895 0.5943 0.5113 0.0
C644 C 0.57893 0.60738 0.4765 0.0
C645 C 0.63854 0.57306 0.29626 0.0
C646 C 0.60951 0.56594 0.27874 0.0
C647 C 0.64311 0.59262 0.32451 0.0
C648 C 0.61874 0.60535 0.33605 0.0
C649 C 0.58967 0.59907 0.31757 0.0
C650 C 0.58509 0.57973 0.28883 0.0
C651 C 0.62384 0.623 0.36986 0.0
C652 C 0.61253 0.61226 0.40472 0.0
C653 C 0.64237 0.6482 0.36965 0.0
C654 C 0.65398 0.66128 0.33314 0.0
C655 C 0.63445 0.66894 0.29623 0.0
C656 C 0.64551 0.68109 0.26187 0.0
C657 C 0.67606 0.68585 0.26407 0.0
C658 C 0.69561 0.67854 0.30067 0.0
C659 C 0.68467 0.66636 0.33512 0.0
H660 H 0.68458 0.69527 0.23744 0.0
H661 H 0.58169 0.57461 0.57329 0.0
H662 H 0.85079 0.20162 0.94631 0.0
H663 H 0.87392 0.18257 0.89584 0.0
H664 H 0.86541 0.0929 0.95462 0.0
H665 H 0.84356 0.11216 0.00625 0.0
H666 H 0.91613 0.09657 0.93451 0.0
H667 H 0.81901 0.12428 0.86239 0.0
H668 H 0.77451 0.15635 0.83609 0.0
H669 H 0.8265 0.21848 0.77096 0.0
H670 H 0.87143 0.18699 0.79731 0.0
H671 H 0.94454 0.03546 0.76083 0.0
H672 H 0.91624 0.05082 0.8094 0.0
H673 H 0.95183 0.13896 0.7907 0.0
H674 H 0.98073 0.12349 0.74312 0.0
H675 H 0.88479 0.13256 0.78878 0.0
H676 H 0.98281 0.10221 0.86744 0.0
H677 H 0.02443 0.06623 0.89195 0.0
H678 H 0.96526 1.00361 0.94277 0.0
H679 H 0.92316 0.03908 0.91792 0.0
C680 C 0.85375 0.17784 0.94824 0.0
C681 C 0.84532 0.15833 0.98 0.0
C682 C 0.86681 0.16692 0.91927 0.0
C683 C 0.87094 0.13618 0.92079 0.0
C684 C 0.86248 0.11667 0.95263 0.0
C685 C 0.84996 0.12766 0.98208 0.0
C686 C 0.88486 0.12452 0.88987 0.0
C687 C 0.90884 0.10415 0.90266 0.0
C688 C 0.87563 0.13435 0.84812 0.0
C689 C 0.84866 0.15338 0.83213 0.0
C690 C 0.82101 0.14489 0.84269 0.0
C691 C 0.7957 0.16295 0.82774 0.0
C692 C 0.79769 0.18947 0.80195 0.0
C693 C 0.825 0.19795 0.79097 0.0
C694 C 0.85039 0.17998 0.80588 0.0
C695 C 0.94615 0.05811 0.76708 0.0
C696 C 0.96481 0.07831 0.74852 0.0
C697 C 0.93008 0.06682 0.79473 0.0
C698 C 0.93202 0.096 0.80351 0.0
C699 C 0.95005 0.11638 0.78419 0.0
C700 C 0.9666 0.10751 0.75727 0.0
C701 C 0.91597 0.10517 0.83373 0.0
C702 C 0.89169 0.12497 0.82071 0.0
C703 C 0.92441 0.09431 0.87511 0.0
C704 C 0.94978 0.07315 0.8904 0.0
C705 C 0.97862 0.08066 0.88349 0.0
C706 C 1.00231 0.06038 0.89751 0.0
C707 C 0.99748 0.03261 0.9188 0.0
C708 C 0.96896 0.02511 0.92621 0.0
C709 C 0.94518 0.04529 0.91218 0.0
H710 H 0.01585 0.01694 0.92964 0.0
H711 H 0.77807 0.20342 0.7904 0.0
H712 H 0.3698 0.3094 0.35619 0.0
H713 H 0.39451 0.33519 0.3033 0.0
H714 H 0.39034 0.41703 0.35134 0.0
H715 H 0.36496 0.39156 0.4037 0.0
H716 H 0.37341 0.42564 0.27071 0.0
H717 H 0.45565 0.37815 0.36588 0.0
H718 H 0.48379 0.33612 0.40993 0.0
H719 H 0.48657 0.29255 0.3077 0.0
H720 H 0.45806 0.33416 0.26308 0.0
H721 H 0.46728 0.50851 0.15273 0.0
H722 H 0.44535 0.48338 0.20851 0.0
H723 H 0.45911 0.39877 0.17168 0.0
H724 H 0.48369 0.42372 0.11837 0.0
H725 H 0.47105 0.39192 0.24766 0.0
H726 H 0.38721 0.43882 0.15241 0.0
H727 H 0.35857 0.48084 0.10878 0.0
H728 H 0.35864 0.52536 0.21073 0.0
H729 H 0.3873 0.48371 0.25503 0.0
C730 C 0.37404 0.33292 0.35543 0.0
C731 C 0.36543 0.34838 0.38429 0.0
C732 C 0.3884 0.34759 0.32535 0.0
C733 C 0.39456 0.37803 0.32351 0.0
C734 C 0.38593 0.39353 0.3522 0.0
C735 C 0.37164 0.37887 0.38234 0.0
C736 C 0.40946 0.39382 0.29124 0.0
C737 C 0.39494 0.41849 0.26594 0.0
C738 C 0.43724 0.38415 0.28443 0.0
C739 C 0.45446 0.35914 0.31119 0.0
C740 C 0.46205 0.3595 0.35283 0.0
C741 C 0.4781 0.33577 0.3779 0.0
C742 C 0.48689 0.31164 0.36164 0.0
C743 C 0.47971 0.31124 0.32026 0.0
C744 C 0.46362 0.33489 0.29506 0.0
C745 C 0.46578 0.48453 0.15664 0.0
C746 C 0.47641 0.46814 0.13024 0.0
C747 C 0.45286 0.47016 0.18833 0.0
C748 C 0.44958 0.43914 0.19377 0.0
C749 C 0.46092 0.42273 0.168 0.0
C750 C 0.47453 0.43705 0.13698 0.0
C751 C 0.43489 0.4237 0.22667 0.0
C752 C 0.44947 0.39908 0.2522 0.0
C753 C 0.40707 0.43336 0.2336 0.0
C754 C 0.38961 0.45826 0.20697 0.0
C755 C 0.38124 0.45764 0.16548 0.0
C756 C 0.36501 0.48137 0.14064 0.0
C757 C 0.35695 0.50578 0.1569 0.0
C758 C 0.36494 0.50645 0.19814 0.0
C759 C 0.3811 0.48277 0.22316 0.0
H760 H 0.34444 0.52413 0.13757 0.0
H761 H 0.49933 0.2933 0.3811 0.0
H762 H 0.14065 0.83624 0.93882 0.0
H763 H 0.11669 0.85774 0.87039 0.0
H764 H 0.19639 0.90668 0.85497 0.0
H765 H 0.22073 0.88458 0.92285 0.0
H766 H 0.1325 0.93853 0.84323 0.0
H767 H 0.19061 0.86362 0.80258 0.0
H768 H 0.20773 0.81225 0.80416 0.0
H769 H 0.1174 0.78611 0.76669 0.0
H770 H 0.0997 0.83727 0.76554 0.0
H771 H 0.08375 0.00951 0.64224 0.0
H772 H 0.11285 0.98525 0.70605 0.0
H773 H 0.05927 0.90681 0.69714 0.0
H774 H 0.03102 0.93072 0.63293 0.0
H775 H 0.11253 0.88934 0.72143 0.0
H776 H 0.0523 0.95944 0.76395 0.0
H777 H 0.03059 0.00738 0.77062 0.0
H778 H 0.11819 0.03988 0.80972 0.0
H779 H 0.14044 0.99223 0.80296 0.0
C780 C 0.15319 0.85115 0.92048 0.0
C781 C 0.18257 0.85864 0.93594 0.0
C782 C 0.13954 0.86337 0.8815 0.0
C783 C 0.15485 0.88369 0.85771 0.0
C784 C 0.18432 0.89087 0.87284 0.0
C785 C 0.19821 0.87816 0.91145 0.0
C786 C 0.13927 0.89912 0.81832 0.0
C787 C 0.1285 0.92807 0.8163 0.0
C788 C 0.13318 0.8849 0.78386 0.0
C789 C 0.14381 0.85418 0.7845 0.0
C790 C 0.17437 0.84685 0.79516 0.0
C791 C 0.18418 0.81779 0.79586 0.0
C792 C 0.16366 0.7959 0.78567 0.0
C793 C 0.13327 0.80307 0.77465 0.0
C794 C 0.12334 0.83209 0.77395 0.0
C795 C 0.07818 0.98715 0.65417 0.0
C796 C 0.0553 0.9719 0.63267 0.0
C797 C 0.09472 0.9733 0.6907 0.0
C798 C 0.08814 0.9442 0.70694 0.0
C799 C 0.065 0.92915 0.68541 0.0
C800 C 0.04881 0.94283 0.64868 0.0
C801 C 0.10549 0.92917 0.74592 0.0
C802 C 0.11657 0.90014 0.74806 0.0
C803 C 0.11127 0.94311 0.78088 0.0
C804 C 0.09805 0.97236 0.78259 0.0
C805 C 0.06695 0.97695 0.77345 0.0
C806 C 0.05455 1.00402 0.77743 0.0
C807 C 0.07302 0.02661 0.79068 0.0
C808 C 0.10393 0.02233 0.79953 0.0
C809 C 0.11644 0.9953 0.79565 0.0
H810 H 0.06344 0.04741 0.79429 0.0
H811 H 0.1713 0.77342 0.78621 0.0
loop_
_geom_bond_atom_site_label_1
_geom_bond_atom_site_label_2
_geom_bond_distance
_geom_bond_site_symmetry_2
_ccdc_geom_bond_type
H0 C3 0.929 . S
H1 C6 0.929 . S
H2 C8 0.930 . S
C3 H0 0.929 . S
C3 C4 1.398 1_554 S
C3 C5 1.396 . S
C4 C3 1.398 1_556 S
C4 C8 1.407 . S
C5 C3 1.396 . S
C5 C6 1.394 . S
C6 H1 0.929 . S
C6 C5 1.394 . S
C6 C7 1.382 . S
C7 C6 1.382 . S
C7 C8 1.392 1_554 S
C7 N9 1.420 . S
C8 H2 0.930 . S
C8 C4 1.407 . S
C8 C7 1.392 1_556 S
N9 C7 1.420 . S
N9 C10 1.244 . S
C10 N9 1.244 . S
H11 C14 0.929 . S
H12 C17 0.929 . S
H13 C19 0.930 . S
C14 H11 0.929 . S
C14 C15 1.398 . S
C14 C16 1.396 . S
C15 C14 1.398 . S
C15 C19 1.407 . S
C16 C14 1.396 . S
C16 C17 1.394 . S
C17 H12 0.929 . S
C17 C16 1.394 . S
C17 C18 1.382 . S
C18 C17 1.382 . S
C18 C19 1.392 . S
C18 N20 1.420 . S
C19 H13 0.930 . S
C19 C15 1.407 . S
C19 C18 1.392 . S
N20 C18 1.420 . S
N20 C21 1.244 . S
C21 N20 1.244 . S
H22 C25 0.929 . S
H23 C28 0.929 . S
H24 C30 0.930 . S
C25 H22 0.929 . S
C25 C26 1.398 1_554 S
C25 C27 1.396 . S
C26 C25 1.398 1_556 S
C26 C30 1.407 . S
C27 C25 1.396 . S
C27 C28 1.394 . S
C28 H23 0.929 . S
C28 C27 1.394 . S
C28 C29 1.382 . S
C29 C28 1.382 . S
C29 C30 1.392 1_554 S
C29 N31 1.420 . S
C30 H24 0.930 . S
C30 C26 1.407 . S
C30 C29 1.392 1_556 S
N31 C29 1.420 . S
N31 C32 1.244 . S
C32 N31 1.244 . S
H33 C36 0.929 . S
H34 C39 0.929 . S
H35 C41 0.930 . S
C36 H33 0.929 . S
C36 C37 1.398 . S
C36 C38 1.396 . S
C37 C36 1.398 . S
C37 C41 1.407 . S
C38 C36 1.396 . S
C38 C39 1.394 . S
C39 H34 0.929 . S
C39 C38 1.394 . S
C39 C40 1.382 . S
C40 C39 1.382 . S
C40 C41 1.392 . S
C40 N42 1.420 . S
C41 H35 0.930 . S
C41 C37 1.407 . S
C41 C40 1.392 . S
N42 C40 1.420 . S
N42 C43 1.244 . S
C43 N42 1.244 . S
Tb44 N73 2.617 . S
Tb44 N79 2.572 . S
Tb44 O88 2.465 . S
Tb44 O89 2.387 . S
Tb44 O91 2.428 . S
Tb44 O92 2.308 1_565 S
Tb44 O96 2.349 1_465 S
Tb44 O99 2.393 1_455 S
Tb44 C108 2.802 . S
C45 N46 1.379 . S
C45 C48 1.416 . S
C45 C52 1.424 . S
N46 C45 1.379 . S
N46 C49 1.334 1_655 S
N46 Tb55 2.617 . S
C47 C49 1.390 . S
C47 C50 1.339 1_455 S
C47 H67 0.930 . S
C48 C45 1.416 . S
C48 C50 1.416 . S
C48 C54 1.448 . S
C49 N46 1.334 1_455 S
C49 C47 1.390 . S
C49 H60 0.930 . S
C50 C47 1.339 1_655 S
C50 C48 1.416 . S
C50 H71 0.930 . S
C51 C52 1.413 . S
C51 C53 1.427 . S
C51 C57 1.416 . S
C52 C45 1.424 . S
C52 C51 1.413 . S
C52 N56 1.361 . S
C53 C51 1.427 . S
C53 C54 1.328 . S
C53 H68 0.929 . S
C54 C48 1.448 . S
C54 C53 1.328 . S
C54 H69 0.930 . S
Tb55 N46 2.617 . S
Tb55 N56 2.572 . S
Tb55 O90 2.349 1_655 S
Tb55 O93 2.393 1_655 S
Tb55 O94 2.465 . S
Tb55 O95 2.387 . S
Tb55 O97 2.428 . S
Tb55 O98 2.308 1_545 S
Tb55 C119 2.802 . S
N56 C52 1.361 . S
N56 Tb55 2.572 . S
N56 C58 1.340 . S
C57 C51 1.416 . S
C57 C59 1.332 . S
C57 H65 0.931 . S
C58 N56 1.340 . S
C58 C59 1.407 . S
C58 H64 0.930 . S
C59 C57 1.332 . S
C59 C58 1.407 . S
C59 H61 0.929 . S
H60 C49 0.930 . S
H61 C59 0.929 . S
H62 C77 0.930 1_655 S
H63 C84 0.929 . S
H64 C58 0.930 . S
H65 C57 0.931 . S
H66 C80 0.930 . S
H67 C47 0.930 . S
H68 C53 0.929 . S
H69 C54 0.930 . S
H70 C75 0.930 1_655 S
H71 C50 0.930 . S
H72 C83 0.931 . S
N73 Tb44 2.617 . S
N73 C74 1.379 . S
N73 C77 1.334 . S
C74 N73 1.379 . S
C74 C76 1.416 . S
C74 C82 1.424 . S
C75 H70 0.930 1_455 S
C75 C77 1.390 . S
C75 C78 1.339 . S
C76 C74 1.416 . S
C76 C78 1.416 . S
C76 C109 1.448 . S
C77 H62 0.930 1_455 S
C77 N73 1.334 . S
C77 C75 1.390 . S
C78 C75 1.339 . S
C78 C76 1.416 . S
C78 H85 0.930 . S
N79 Tb44 2.572 . S
N79 C80 1.340 . S
N79 C82 1.361 . S
C80 H66 0.930 . S
C80 N79 1.340 . S
C80 C84 1.407 . S
C81 C82 1.413 . S
C81 C83 1.416 . S
C81 C110 1.427 . S
C82 C74 1.424 . S
C82 N79 1.361 . S
C82 C81 1.413 . S
C83 H72 0.931 . S
C83 C81 1.416 . S
C83 C84 1.332 . S
C84 H63 0.929 . S
C84 C80 1.407 . S
C84 C83 1.332 . S
H85 C78 0.930 . S
H86 C109 0.930 . S
H87 C110 0.929 . S
O88 Tb44 2.465 . S
O88 C108 1.264 . S
O89 Tb44 2.387 . S
O89 C100 1.264 . S
O90 Tb55 2.349 1_455 S
O90 C100 1.243 1_545 S
O91 Tb44 2.428 . S
O91 C108 1.256 . S
O92 Tb44 2.308 1_545 S
O92 C107 1.266 . S
O93 Tb55 2.393 1_455 S
O93 C107 1.248 . S
O94 Tb55 2.465 . S
O94 C119 1.264 . S
O95 Tb55 2.387 . S
O95 C111 1.264 . S
O96 Tb44 2.349 1_645 S
O96 C111 1.243 . S
O97 Tb55 2.428 . S
O97 C119 1.256 . S
O98 Tb55 2.308 1_565 S
O98 C118 1.266 . S
O99 Tb44 2.393 1_655 S
O99 C118 1.248 . S
C100 O89 1.264 . S
C100 O90 1.243 1_565 S
C101 C104 1.399 . S
C101 C106 1.383 . S
C101 C108 1.496 . S
C102 C103 1.399 . S
C102 C106 1.389 . S
C103 C102 1.399 . S
C103 C105 1.380 . S
C103 H120 0.929 . S
C104 C101 1.399 . S
C104 C105 1.392 . S
C104 H121 0.929 . S
C105 C103 1.380 . S
C105 C104 1.392 . S
C105 H122 0.929 . S
C106 C101 1.383 . S
C106 C102 1.389 . S
C106 H123 0.931 . S
C107 O92 1.266 . S
C107 O93 1.248 . S
C108 Tb44 2.802 . S
C108 O88 1.264 . S
C108 O91 1.256 . S
C108 C101 1.496 . S
C109 C76 1.448 . S
C109 H86 0.930 . S
C109 C110 1.328 . S
C110 C81 1.427 . S
C110 H87 0.929 . S
C110 C109 1.328 . S
C111 O95 1.264 . S
C111 O96 1.243 . S
C112 C115 1.399 . S
C112 C116 1.383 . S
C112 C119 1.496 . S
C113 C114 1.399 . S
C113 C116 1.389 . S
C114 C113 1.399 . S
C114 C117 1.380 . S
C114 H124 0.929 . S
C115 C112 1.399 . S
C115 C117 1.392 . S
C115 H125 0.929 . S
C116 C112 1.383 . S
C116 C113 1.389 . S
C116 H126 0.931 . S
C117 C114 1.380 . S
C117 C115 1.392 . S
C117 H127 0.929 . S
C118 O98 1.266 . S
C118 O99 1.248 . S
C119 Tb55 2.802 . S
C119 O94 1.264 . S
C119 O97 1.256 . S
C119 C112 1.496 . S
H120 C103 0.929 . S
H121 C104 0.929 . S
H122 C105 0.929 . S
H123 C106 0.931 . S
H124 C114 0.929 . S
H125 C115 0.929 . S
H126 C116 0.931 . S
H127 C117 0.929 . S
Tb128 N157 2.617 1_556 S
Tb128 N163 2.572 1_556 S
Tb128 O172 2.465 . S
Tb128 O173 2.387 1_556 S
Tb128 O175 2.428 . S
Tb128 O176 2.308 1_556 S
Tb128 O180 2.349 . S
Tb128 O183 2.393 1_556 S
Tb128 C192 2.802 . S
C129 N130 1.379 . S
C129 C132 1.416 . S
C129 C136 1.424 . S
N130 C129 1.379 . S
N130 C133 1.334 . S
N130 Tb139 2.617 . S
C131 C133 1.390 . S
C131 C134 1.339 . S
C131 H151 0.930 . S
C132 C129 1.416 . S
C132 C134 1.416 . S
C132 C138 1.448 . S
C133 N130 1.334 . S
C133 C131 1.390 . S
C133 H144 0.930 . S
C134 C131 1.339 . S
C134 C132 1.416 . S
C134 H155 0.930 . S
C135 C136 1.413 . S
C135 C137 1.427 . S
C135 C141 1.416 . S
C136 C129 1.424 . S
C136 C135 1.413 . S
C136 N140 1.361 . S
C137 C135 1.427 . S
C137 C138 1.328 . S
C137 H152 0.929 . S
C138 C132 1.448 . S
C138 C137 1.328 . S
C138 H153 0.930 . S
Tb139 N130 2.617 . S
Tb139 N140 2.572 . S
Tb139 O174 2.349 . S
Tb139 O177 2.393 . S
Tb139 O178 2.465 . S
Tb139 O179 2.387 . S
Tb139 O181 2.428 . S
Tb139 O182 2.308 . S
Tb139 C203 2.802 . S
N140 C136 1.361 . S
N140 Tb139 2.572 . S
N140 C142 1.340 . S
C141 C135 1.416 . S
C141 C143 1.332 . S
C141 H149 0.931 . S
C142 N140 1.340 . S
C142 C143 1.407 . S
C142 H148 0.930 . S
C143 C141 1.332 . S
C143 C142 1.407 . S
C143 H145 0.929 . S
H144 C133 0.930 . S
H145 C143 0.929 . S
H146 C161 0.930 . S
H147 C168 0.929 . S
H148 C142 0.930 . S
H149 C141 0.931 . S
H150 C164 0.930 . S
H151 C131 0.930 . S
H152 C137 0.929 . S
H153 C138 0.930 . S
H154 C159 0.930 . S
H155 C134 0.930 . S
H156 C167 0.931 . S
N157 Tb128 2.617 1_554 S
N157 C158 1.380 . S
N157 C161 1.335 1_554 S
C158 N157 1.380 . S
C158 C160 1.416 . S
C158 C166 1.424 . S
C159 H154 0.930 . S
C159 C161 1.392 . S
C159 C162 1.337 1_556 S
C160 C158 1.416 . S
C160 C162 1.416 . S
C160 C193 1.448 . S
C161 H146 0.930 . S
C161 N157 1.335 1_556 S
C161 C159 1.392 . S
C162 C159 1.337 1_554 S
C162 C160 1.416 . S
C162 H169 0.930 . S
N163 Tb128 2.572 1_554 S
N163 C164 1.340 . S
N163 C166 1.361 . S
C164 H150 0.930 . S
C164 N163 1.340 . S
C164 C168 1.407 . S
C165 C166 1.413 . S
C165 C167 1.416 . S
C165 C194 1.427 . S
C166 C158 1.424 . S
C166 N163 1.361 . S
C166 C165 1.413 . S
C167 H156 0.931 . S
C167 C165 1.416 . S
C167 C168 1.332 . S
C168 H147 0.929 . S
C168 C164 1.407 . S
C168 C167 1.332 . S
H169 C162 0.930 . S
H170 C193 0.930 . S
H171 C194 0.929 . S
O172 Tb128 2.465 . S
O172 C192 1.264 . S
O173 Tb128 2.387 1_554 S
O173 C184 1.264 . S
O174 Tb139 2.349 . S
O174 C184 1.243 . S
O175 Tb128 2.428 . S
O175 C192 1.256 . S
O176 Tb128 2.308 1_554 S
O176 C191 1.266 . S
O177 Tb139 2.393 . S
O177 C191 1.248 . S
O178 Tb139 2.465 . S
O178 C203 1.264 . S
O179 Tb139 2.387 . S
O179 C195 1.264 1_554 S
O180 Tb128 2.349 . S
O180 C195 1.243 . S
O181 Tb139 2.428 . S
O181 C203 1.256 . S
O182 Tb139 2.308 . S
O182 C202 1.266 . S
O183 Tb128 2.393 1_554 S
O183 C202 1.248 . S
C184 O173 1.264 . S
C184 O174 1.243 . S
C185 C188 1.399 . S
C185 C190 1.383 . S
C185 C192 1.496 . S
C186 C187 1.399 . S
C186 C190 1.389 . S
C187 C186 1.399 . S
C187 C189 1.380 . S
C187 H204 0.929 . S
C188 C185 1.399 . S
C188 C189 1.392 . S
C188 H205 0.929 . S
C189 C187 1.380 . S
C189 C188 1.392 . S
C189 H206 0.929 . S
C190 C185 1.383 . S
C190 C186 1.389 . S
C190 H207 0.931 . S
C191 O176 1.266 . S
C191 O177 1.248 . S
C192 Tb128 2.802 . S
C192 O172 1.264 . S
C192 O175 1.256 . S
C192 C185 1.496 . S
C193 C160 1.448 . S
C193 H170 0.930 . S
C193 C194 1.328 . S
C194 C165 1.427 . S
C194 H171 0.929 . S
C194 C193 1.328 . S
C195 O179 1.264 1_556 S
C195 O180 1.243 . S
C196 C199 1.399 . S
C196 C200 1.383 . S
C196 C203 1.496 . S
C197 C198 1.399 . S
C197 C200 1.389 . S
C198 C197 1.399 . S
C198 C201 1.380 . S
C198 H208 0.929 . S
C199 C196 1.399 . S
C199 C201 1.392 . S
C199 H209 0.929 . S
C200 C196 1.383 . S
C200 C197 1.389 . S
C200 H210 0.931 . S
C201 C198 1.380 . S
C201 C199 1.392 . S
C201 H211 0.929 . S
C202 O182 1.266 . S
C202 O183 1.248 . S
C203 Tb139 2.802 . S
C203 O178 1.264 . S
C203 O181 1.256 . S
C203 C196 1.496 . S
H204 C187 0.929 . S
H205 C188 0.929 . S
H206 C189 0.929 . S
H207 C190 0.931 . S
H208 C198 0.929 . S
H209 C199 0.929 . S
H210 C200 0.931 . S
H211 C201 0.929 . S
H212 C230 0.951 . S
H213 C232 0.951 . S
H214 C234 0.950 . S
H215 C235 0.950 . S
H216 C237 0.950 . S
H217 C240 0.950 . S
H218 C241 0.950 . S
H219 C243 0.950 . S
H220 C244 0.950 . S
H221 C245 0.951 . S
H222 C247 0.951 . S
H223 C249 0.950 . S
H224 C250 0.950 . S
H225 C252 0.950 . S
H226 C255 0.950 . S
H227 C256 0.950 . S
H228 C258 0.950 . S
H229 C259 0.950 . S
C230 H212 0.951 . S
C230 C231 1.366 . S
C230 C232 1.388 . S
C231 C230 1.366 . S
C231 C235 1.385 . S
C232 H213 0.951 . S
C232 C230 1.388 . S
C232 C233 1.366 . S
C233 C232 1.366 . S
C233 C234 1.414 . S
C233 C236 1.499 . S
C234 H214 0.950 . S
C234 C233 1.414 . S
C234 C235 1.374 . S
C235 H215 0.950 . S
C235 C231 1.385 . S
C235 C234 1.374 . S
C236 C233 1.499 . S
C236 C237 1.373 . S
C236 C238 1.389 . S
C237 H216 0.950 . S
C237 C236 1.373 . S
C237 C253 1.377 . S
C238 C236 1.389 . S
C238 C239 1.524 . S
C238 C252 1.377 . S
C239 C238 1.524 . S
C239 C240 1.397 . S
C239 C244 1.363 . S
C240 H217 0.950 . S
C240 C239 1.397 . S
C240 C241 1.334 . S
C241 H218 0.950 . S
C241 C240 1.334 . S
C241 C242 1.287 . S
C242 C241 1.287 . S
C242 C243 1.524 . S
C242 H261 0.913 . S
C243 H219 0.950 . S
C243 C242 1.524 . S
C243 C244 1.415 . S
C244 H220 0.950 . S
C244 C239 1.363 . S
C244 C243 1.415 . S
C245 H221 0.951 . S
C245 C246 1.366 . S
C245 C247 1.388 . S
C246 C245 1.366 . S
C246 C250 1.385 . S
C247 H222 0.951 . S
C247 C245 1.388 . S
C247 C248 1.366 . S
C248 C247 1.366 . S
C248 C249 1.414 . S
C248 C251 1.499 . S
C249 H223 0.950 . S
C249 C248 1.414 . S
C249 C250 1.374 . S
C250 H224 0.950 . S
C250 C246 1.385 . S
C250 C249 1.374 . S
C251 C248 1.499 . S
C251 C252 1.373 . S
C251 C253 1.389 . S
C252 H225 0.950 . S
C252 C238 1.377 . S
C252 C251 1.373 . S
C253 C237 1.377 . S
C253 C251 1.389 . S
C253 C254 1.524 . S
C254 C253 1.524 . S
C254 C255 1.397 . S
C254 C259 1.363 . S
C255 H226 0.950 . S
C255 C254 1.397 . S
C255 C256 1.334 . S
C256 H227 0.950 . S
C256 C255 1.334 . S
C256 C257 1.287 . S
C257 C256 1.287 . S
C257 C258 1.524 . S
C257 H260 0.999 . S
C258 H228 0.950 . S
C258 C257 1.524 . S
C258 C259 1.415 . S
C259 H229 0.950 . S
C259 C254 1.363 . S
C259 C258 1.415 . S
H260 C257 0.999 . S
H261 C242 0.913 . S
H262 C280 0.951 . S
H263 C282 0.951 . S
H264 C284 0.950 . S
H265 C285 0.950 . S
H266 C287 0.950 . S
H267 C290 0.950 . S
H268 C291 0.950 . S
H269 C293 0.950 . S
H270 C294 0.950 1_554 S
H271 C295 0.951 . S
H272 C297 0.951 . S
H273 C299 0.950 . S
H274 C300 0.950 . S
H275 C302 0.950 . S
H276 C305 0.950 . S
H277 C306 0.950 . S
H278 C308 0.950 . S
H279 C309 0.950 . S
C280 H262 0.951 . S
C280 C281 1.366 . S
C280 C282 1.388 . S
C281 C280 1.366 . S
C281 C285 1.385 . S
C282 H263 0.951 . S
C282 C280 1.388 . S
C282 C283 1.366 . S
C283 C282 1.366 . S
C283 C284 1.414 . S
C283 C286 1.499 . S
C284 H264 0.950 . S
C284 C283 1.414 . S
C284 C285 1.374 . S
C285 H265 0.950 . S
C285 C281 1.385 . S
C285 C284 1.374 . S
C286 C283 1.499 . S
C286 C287 1.373 . S
C286 C288 1.389 . S
C287 H266 0.950 . S
C287 C286 1.373 . S
C287 C303 1.377 . S
C288 C286 1.389 . S
C288 C289 1.524 1_554 S
C288 C302 1.377 . S
C289 C288 1.524 1_556 S
C289 C290 1.397 . S
C289 C294 1.363 . S
C290 H267 0.950 . S
C290 C289 1.397 . S
C290 C291 1.334 . S
C291 H268 0.950 . S
C291 C290 1.334 . S
C291 C292 1.287 . S
C292 C291 1.287 . S
C292 C293 1.524 . S
C292 H311 0.913 . S
C293 H269 0.950 . S
C293 C292 1.524 . S
C293 C294 1.415 . S
C294 H270 0.950 1_556 S
C294 C289 1.363 . S
C294 C293 1.415 . S
C295 H271 0.951 . S
C295 C296 1.366 . S
C295 C297 1.388 . S
C296 C295 1.366 . S
C296 C300 1.385 . S
C297 H272 0.951 . S
C297 C295 1.388 . S
C297 C298 1.366 . S
C298 C297 1.366 . S
C298 C299 1.414 . S
C298 C301 1.499 . S
C299 H273 0.950 . S
C299 C298 1.414 . S
C299 C300 1.374 . S
C300 H274 0.950 . S
C300 C296 1.385 . S
C300 C299 1.374 . S
C301 C298 1.499 . S
C301 C302 1.373 . S
C301 C303 1.389 . S
C302 H275 0.950 . S
C302 C288 1.377 . S
C302 C301 1.373 . S
C303 C287 1.377 . S
C303 C301 1.389 . S
C303 C304 1.524 . S
C304 C303 1.524 . S
C304 C305 1.397 . S
C304 C309 1.363 . S
C305 H276 0.950 . S
C305 C304 1.397 . S
C305 C306 1.334 . S
C306 H277 0.950 . S
C306 C305 1.334 . S
C306 C307 1.287 . S
C307 C306 1.287 . S
C307 C308 1.524 . S
C307 H310 0.999 . S
C308 H278 0.950 . S
C308 C307 1.524 . S
C308 C309 1.415 . S
C309 H279 0.950 . S
C309 C304 1.363 . S
C309 C308 1.415 . S
H310 C307 0.999 . S
H311 C292 0.913 . S
H312 C330 0.951 . S
H313 C332 0.951 . S
H314 C334 0.950 . S
H315 C335 0.950 . S
H316 C337 0.950 . S
H317 C340 0.950 . S
H318 C341 0.950 . S
H319 C343 0.950 . S
H320 C344 0.950 . S
H321 C345 0.951 . S
H322 C347 0.951 . S
H323 C349 0.950 . S
H324 C350 0.950 . S
H325 C352 0.950 . S
H326 C355 0.950 . S
H327 C356 0.950 . S
H328 C358 0.950 . S
H329 C359 0.950 . S
C330 H312 0.951 . S
C330 C331 1.366 . S
C330 C332 1.388 . S
C331 C330 1.366 . S
C331 C335 1.385 . S
C332 H313 0.951 . S
C332 C330 1.388 . S
C332 C333 1.366 . S
C333 C332 1.366 . S
C333 C334 1.414 . S
C333 C336 1.499 . S
C334 H314 0.950 . S
C334 C333 1.414 . S
C334 C335 1.374 . S
C335 H315 0.950 . S
C335 C331 1.385 . S
C335 C334 1.374 . S
C336 C333 1.499 . S
C336 C337 1.373 . S
C336 C338 1.389 . S
C337 H316 0.950 . S
C337 C336 1.373 . S
C337 C353 1.377 . S
C338 C336 1.389 . S
C338 C339 1.524 . S
C338 C352 1.377 . S
C339 C338 1.524 . S
C339 C340 1.397 . S
C339 C344 1.363 . S
C340 H317 0.950 . S
C340 C339 1.397 . S
C340 C341 1.334 . S
C341 H318 0.950 . S
C341 C340 1.334 . S
C341 C342 1.287 . S
C342 C341 1.287 . S
C342 C343 1.524 . S
C342 H361 0.913 . S
C343 H319 0.950 . S
C343 C342 1.524 . S
C343 C344 1.415 . S
C344 H320 0.950 . S
C344 C339 1.363 . S
C344 C343 1.415 . S
C345 H321 0.951 . S
C345 C346 1.366 . S
C345 C347 1.388 . S
C346 C345 1.366 . S
C346 C350 1.385 . S
C347 H322 0.951 . S
C347 C345 1.388 . S
C347 C348 1.366 . S
C348 C347 1.366 . S
C348 C349 1.414 . S
C348 C351 1.499 . S
C349 H323 0.950 . S
C349 C348 1.414 . S
C349 C350 1.374 . S
C350 H324 0.950 . S
C350 C346 1.385 . S
C350 C349 1.374 . S
C351 C348 1.499 . S
C351 C352 1.373 . S
C351 C353 1.389 . S
C352 H325 0.950 . S
C352 C338 1.377 . S
C352 C351 1.373 . S
C353 C337 1.377 . S
C353 C351 1.389 . S
C353 C354 1.524 . S
C354 C353 1.524 . S
C354 C355 1.397 . S
C354 C359 1.363 . S
C355 H326 0.950 . S
C355 C354 1.397 . S
C355 C356 1.334 . S
C356 H327 0.950 . S
C356 C355 1.334 . S
C356 C357 1.287 . S
C357 C356 1.287 . S
C357 C358 1.524 . S
C357 H360 0.999 . S
C358 H328 0.950 . S
C358 C357 1.524 . S
C358 C359 1.415 . S
C359 H329 0.950 . S
C359 C354 1.363 . S
C359 C358 1.415 . S
H360 C357 0.999 . S
H361 C342 0.913 . S
H362 C380 0.951 . S
H363 C382 0.951 . S
H364 C384 0.950 . S
H365 C385 0.950 . S
H366 C387 0.950 1_556 S
H367 C390 0.950 . S
H368 C391 0.950 . S
H369 C393 0.950 . S
H370 C394 0.950 . S
H371 C395 0.951 . S
H372 C397 0.951 . S
H373 C399 0.950 . S
H374 C400 0.950 . S
H375 C402 0.950 . S
H376 C405 0.950 . S
H377 C406 0.950 . S
H378 C408 0.950 . S
H379 C409 0.950 . S
C380 H362 0.951 . S
C380 C381 1.366 . S
C380 C382 1.388 . S
C381 C380 1.366 . S
C381 C385 1.385 . S
C382 H363 0.951 . S
C382 C380 1.388 . S
C382 C383 1.366 . S
C383 C382 1.366 . S
C383 C384 1.414 . S
C383 C386 1.499 . S
C384 H364 0.950 . S
C384 C383 1.414 . S
C384 C385 1.374 . S
C385 H365 0.950 . S
C385 C381 1.385 . S
C385 C384 1.374 . S
C386 C383 1.499 . S
C386 C387 1.373 . S
C386 C388 1.389 . S
C387 H366 0.950 1_554 S
C387 C386 1.373 . S
C387 C403 1.372 . S
C388 C386 1.389 . S
C388 C389 1.524 . S
C388 C402 1.377 . S
C389 C388 1.524 . S
C389 C390 1.397 . S
C389 C394 1.363 . S
C390 H367 0.950 . S
C390 C389 1.397 . S
C390 C391 1.334 . S
C391 H368 0.950 . S
C391 C390 1.334 . S
C391 C392 1.287 . S
C392 C391 1.287 . S
C392 C393 1.524 . S
C392 H411 0.913 . S
C393 H369 0.950 . S
C393 C392 1.524 . S
C393 C394 1.415 . S
C394 H370 0.950 . S
C394 C389 1.363 . S
C394 C393 1.415 . S
C395 H371 0.951 . S
C395 C396 1.366 . S
C395 C397 1.388 . S
C396 C395 1.366 . S
C396 C400 1.385 . S
C397 H372 0.951 . S
C397 C395 1.388 . S
C397 C398 1.366 . S
C398 C397 1.366 . S
C398 C399 1.414 . S
C398 C401 1.499 . S
C399 H373 0.950 . S
C399 C398 1.414 . S
C399 C400 1.374 . S
C400 H374 0.950 . S
C400 C396 1.385 . S
C400 C399 1.374 . S
C401 C398 1.499 . S
C401 C402 1.373 . S
C401 C403 1.406 . S
C402 H375 0.950 . S
C402 C388 1.377 . S
C402 C401 1.373 . S
C403 C387 1.372 . S
C403 C401 1.406 . S
C403 C404 1.511 1_554 S
C404 C403 1.511 1_556 S
C404 C405 1.397 . S
C404 C409 1.363 . S
C405 H376 0.950 . S
C405 C404 1.397 . S
C405 C406 1.334 . S
C406 H377 0.950 . S
C406 C405 1.334 . S
C406 C407 1.287 . S
C407 C406 1.287 . S
C407 C408 1.524 . S
C407 H410 0.999 . S
C408 H378 0.950 . S
C408 C407 1.524 . S
C408 C409 1.415 . S
C409 H379 0.950 . S
C409 C404 1.363 . S
C409 C408 1.415 . S
H410 C407 0.999 . S
H411 C392 0.913 . S
H412 C430 0.951 . S
H413 C432 0.951 . S
H414 C434 0.950 . S
H415 C435 0.950 . S
H416 C437 0.950 . S
H417 C440 0.950 . S
H418 C441 0.950 . S
H419 C443 0.950 . S
H420 C444 0.950 . S
H421 C445 0.951 . S
H422 C447 0.951 . S
H423 C449 0.950 . S
H424 C450 0.950 . S
H425 C452 0.950 . S
H426 C455 0.950 . S
H427 C456 0.950 . S
H428 C458 0.950 . S
H429 C459 0.950 . S
C430 H412 0.951 . S
C430 C431 1.366 . S
C430 C432 1.388 . S
C431 C430 1.366 . S
C431 C435 1.385 . S
C432 H413 0.951 . S
C432 C430 1.388 . S
C432 C433 1.366 . S
C433 C432 1.366 . S
C433 C434 1.414 . S
C433 C436 1.499 . S
C434 H414 0.950 . S
C434 C433 1.414 . S
C434 C435 1.374 . S
C435 H415 0.950 . S
C435 C431 1.385 . S
C435 C434 1.374 . S
C436 C433 1.499 . S
C436 C437 1.373 . S
C436 C438 1.389 . S
C437 H416 0.950 . S
C437 C436 1.373 . S
C437 C453 1.377 . S
C438 C436 1.389 . S
C438 C439 1.524 . S
C438 C452 1.377 . S
C439 C438 1.524 . S
C439 C440 1.397 . S
C439 C444 1.363 . S
C440 H417 0.950 . S
C440 C439 1.397 . S
C440 C441 1.334 . S
C441 H418 0.950 . S
C441 C440 1.334 . S
C441 C442 1.287 . S
C442 C441 1.287 . S
C442 C443 1.524 . S
C442 H461 0.913 . S
C443 H419 0.950 . S
C443 C442 1.524 . S
C443 C444 1.415 . S
C444 H420 0.950 . S
C444 C439 1.363 . S
C444 C443 1.415 . S
C445 H421 0.951 . S
C445 C446 1.366 . S
C445 C447 1.388 . S
C446 C445 1.366 . S
C446 C450 1.385 . S
C447 H422 0.951 . S
C447 C445 1.388 . S
C447 C448 1.366 . S
C448 C447 1.366 . S
C448 C449 1.414 . S
C448 C451 1.499 . S
C449 H423 0.950 . S
C449 C448 1.414 . S
C449 C450 1.374 . S
C450 H424 0.950 . S
C450 C446 1.385 . S
C450 C449 1.374 . S
C451 C448 1.499 . S
C451 C452 1.373 . S
C451 C453 1.389 . S
C452 H425 0.950 . S
C452 C438 1.377 . S
C452 C451 1.373 . S
C453 C437 1.377 . S
C453 C451 1.389 . S
C453 C454 1.524 . S
C454 C453 1.524 . S
C454 C455 1.397 . S
C454 C459 1.363 . S
C455 H426 0.950 . S
C455 C454 1.397 . S
C455 C456 1.334 . S
C456 H427 0.950 . S
C456 C455 1.334 . S
C456 C457 1.287 . S
C457 C456 1.287 . S
C457 C458 1.524 . S
C457 H460 0.999 . S
C458 H428 0.950 . S
C458 C457 1.524 . S
C458 C459 1.415 . S
C459 H429 0.950 . S
C459 C454 1.363 . S
C459 C458 1.415 . S
H460 C457 0.999 . S
H461 C442 0.913 . S
H462 C480 0.951 . S
H463 C482 0.951 . S
H464 C484 0.950 . S
H465 C485 0.950 . S
H466 C487 0.950 . S
H467 C490 0.950 . S
H468 C491 0.950 . S
H469 C493 0.950 . S
H470 C494 0.950 . S
H471 C495 0.951 . S
H472 C497 0.951 . S
H473 C499 0.950 . S
H474 C500 0.950 . S
H475 C502 0.950 . S
H476 C505 0.950 . S
H477 C506 0.950 . S
H478 C508 0.950 . S
H479 C509 0.950 . S
C480 H462 0.951 . S
C480 C481 1.366 . S
C480 C482 1.388 . S
C481 C480 1.366 . S
C481 C485 1.385 . S
C482 H463 0.951 . S
C482 C480 1.388 . S
C482 C483 1.366 . S
C483 C482 1.366 . S
C483 C484 1.414 . S
C483 C486 1.499 . S
C484 H464 0.950 . S
C484 C483 1.414 . S
C484 C485 1.374 . S
C485 H465 0.950 . S
C485 C481 1.385 . S
C485 C484 1.374 . S
C486 C483 1.499 . S
C486 C487 1.373 . S
C486 C488 1.389 . S
C487 H466 0.950 . S
C487 C486 1.373 . S
C487 C503 1.377 . S
C488 C486 1.389 . S
C488 C489 1.524 . S
C488 C502 1.377 . S
C489 C488 1.524 . S
C489 C490 1.397 . S
C489 C494 1.363 . S
C490 H467 0.950 . S
C490 C489 1.397 . S
C490 C491 1.334 . S
C491 H468 0.950 . S
C491 C490 1.334 . S
C491 C492 1.287 . S
C492 C491 1.287 . S
C492 C493 1.524 . S
C492 H511 0.913 . S
C493 H469 0.950 . S
C493 C492 1.524 . S
C493 C494 1.415 . S
C494 H470 0.950 . S
C494 C489 1.363 . S
C494 C493 1.415 . S
C495 H471 0.951 . S
C495 C496 1.366 . S
C495 C497 1.388 . S
C496 C495 1.366 . S
C496 C500 1.385 . S
C497 H472 0.951 . S
C497 C495 1.388 . S
C497 C498 1.366 . S
C498 C497 1.366 . S
C498 C499 1.414 . S
C498 C501 1.499 . S
C499 H473 0.950 . S
C499 C498 1.414 . S
C499 C500 1.374 . S
C500 H474 0.950 . S
C500 C496 1.385 . S
C500 C499 1.374 . S
C501 C498 1.499 . S
C501 C502 1.373 . S
C501 C503 1.389 . S
C502 H475 0.950 . S
C502 C488 1.377 . S
C502 C501 1.373 . S
C503 C487 1.377 . S
C503 C501 1.389 . S
C503 C504 1.524 . S
C504 C503 1.524 . S
C504 C505 1.397 . S
C504 C509 1.363 . S
C505 H476 0.950 . S
C505 C504 1.397 . S
C505 C506 1.334 . S
C506 H477 0.950 . S
C506 C505 1.334 . S
C506 C507 1.287 . S
C507 C506 1.287 . S
C507 C508 1.524 . S
C507 H510 0.999 . S
C508 H478 0.950 . S
C508 C507 1.524 . S
C508 C509 1.415 . S
C509 H479 0.950 . S
C509 C504 1.363 . S
C509 C508 1.415 . S
H510 C507 0.999 . S
H511 C492 0.913 . S
H512 C530 0.951 . S
H513 C532 0.951 . S
H514 C534 0.950 . S
H515 C535 0.950 . S
H516 C537 0.950 . S
H517 C540 0.950 . S
H518 C541 0.950 . S
H519 C543 0.950 . S
H520 C544 0.950 . S
H521 C545 0.951 . S
H522 C547 0.951 . S
H523 C549 0.950 . S
H524 C550 0.950 . S
H525 C552 0.950 . S
H526 C555 0.950 . S
H527 C556 0.950 . S
H528 C558 0.950 . S
H529 C559 0.950 . S
C530 H512 0.951 . S
C530 C531 1.366 . S
C530 C532 1.388 . S
C531 C530 1.366 . S
C531 C535 1.385 . S
C532 H513 0.951 . S
C532 C530 1.388 . S
C532 C533 1.366 . S
C533 C532 1.366 . S
C533 C534 1.414 . S
C533 C536 1.499 . S
C534 H514 0.950 . S
C534 C533 1.414 . S
C534 C535 1.374 . S
C535 H515 0.950 . S
C535 C531 1.385 . S
C535 C534 1.374 . S
C536 C533 1.499 . S
C536 C537 1.373 . S
C536 C538 1.389 . S
C537 H516 0.950 . S
C537 C536 1.373 . S
C537 C553 1.377 . S
C538 C536 1.389 . S
C538 C539 1.524 . S
C538 C552 1.377 . S
C539 C538 1.524 . S
C539 C540 1.397 . S
C539 C544 1.363 . S
C540 H517 0.950 . S
C540 C539 1.397 . S
C540 C541 1.334 . S
C541 H518 0.950 . S
C541 C540 1.334 . S
C541 C542 1.287 . S
C542 C541 1.287 . S
C542 C543 1.524 . S
C542 H561 0.913 . S
C543 H519 0.950 . S
C543 C542 1.524 . S
C543 C544 1.415 . S
C544 H520 0.950 . S
C544 C539 1.363 . S
C544 C543 1.415 . S
C545 H521 0.951 . S
C545 C546 1.366 . S
C545 C547 1.388 . S
C546 C545 1.366 . S
C546 C550 1.385 . S
C547 H522 0.951 . S
C547 C545 1.388 . S
C547 C548 1.366 . S
C548 C547 1.366 . S
C548 C549 1.414 . S
C548 C551 1.499 . S
C549 H523 0.950 . S
C549 C548 1.414 . S
C549 C550 1.374 . S
C550 H524 0.950 . S
C550 C546 1.385 . S
C550 C549 1.374 . S
C551 C548 1.499 . S
C551 C552 1.373 . S
C551 C553 1.389 . S
C552 H525 0.950 . S
C552 C538 1.377 . S
C552 C551 1.373 . S
C553 C537 1.377 . S
C553 C551 1.389 . S
C553 C554 1.524 . S
C554 C553 1.524 . S
C554 C555 1.397 . S
C554 C559 1.363 . S
C555 H526 0.950 . S
C555 C554 1.397 . S
C555 C556 1.334 1_545 S
C556 H527 0.950 . S
C556 C555 1.334 1_565 S
C556 C557 1.287 . S
C557 C556 1.287 . S
C557 C558 1.524 . S
C557 H560 0.999 . S
C558 H528 0.950 . S
C558 C557 1.524 . S
C558 C559 1.415 1_565 S
C559 H529 0.950 . S
C559 C554 1.363 . S
C559 C558 1.415 1_545 S
H560 C557 0.999 . S
H561 C542 0.913 . S
H562 C580 0.951 . S
H563 C582 0.951 . S
H564 C584 0.950 . S
H565 C585 0.950 . S
H566 C587 0.950 . S
H567 C590 0.950 . S
H568 C591 0.950 . S
H569 C593 0.950 . S
H570 C594 0.950 . S
H571 C595 0.951 . S
H572 C597 0.951 . S
H573 C599 0.950 . S
H574 C600 0.950 . S
H575 C602 0.950 . S
H576 C605 0.950 . S
H577 C606 0.950 . S
H578 C608 0.950 . S
H579 C609 0.950 . S
C580 H562 0.951 . S
C580 C581 1.366 . S
C580 C582 1.388 . S
C581 C580 1.366 . S
C581 C585 1.385 . S
C582 H563 0.951 . S
C582 C580 1.388 . S
C582 C583 1.366 . S
C583 C582 1.366 . S
C583 C584 1.414 . S
C583 C586 1.499 . S
C584 H564 0.950 . S
C584 C583 1.414 . S
C584 C585 1.374 . S
C585 H565 0.950 . S
C585 C581 1.385 . S
C585 C584 1.374 . S
C586 C583 1.499 . S
C586 C587 1.373 . S
C586 C588 1.389 . S
C587 H566 0.950 . S
C587 C586 1.373 . S
C587 C603 1.377 . S
C588 C586 1.389 . S
C588 C589 1.524 . S
C588 C602 1.377 . S
C589 C588 1.524 . S
C589 C590 1.397 . S
C589 C594 1.363 . S
C590 H567 0.950 . S
C590 C589 1.397 . S
C590 C591 1.334 . S
C591 H568 0.950 . S
C591 C590 1.334 . S
C591 C592 1.287 . S
C592 C591 1.287 . S
C592 C593 1.524 . S
C592 H611 0.913 . S
C593 H569 0.950 . S
C593 C592 1.524 . S
C593 C594 1.415 . S
C594 H570 0.950 . S
C594 C589 1.363 . S
C594 C593 1.415 . S
C595 H571 0.951 . S
C595 C596 1.366 . S
C595 C597 1.388 . S
C596 C595 1.366 . S
C596 C600 1.385 . S
C597 H572 0.951 . S
C597 C595 1.388 . S
C597 C598 1.366 . S
C598 C597 1.366 . S
C598 C599 1.414 . S
C598 C601 1.499 . S
C599 H573 0.950 . S
C599 C598 1.414 . S
C599 C600 1.374 . S
C600 H574 0.950 . S
C600 C596 1.385 . S
C600 C599 1.374 . S
C601 C598 1.499 . S
C601 C602 1.373 . S
C601 C603 1.389 . S
C602 H575 0.950 . S
C602 C588 1.377 . S
C602 C601 1.373 . S
C603 C587 1.377 . S
C603 C601 1.389 . S
C603 C604 1.524 . S
C604 C603 1.524 . S
C604 C605 1.397 . S
C604 C609 1.363 . S
C605 H576 0.950 . S
C605 C604 1.397 . S
C605 C606 1.334 . S
C606 H577 0.950 . S
C606 C605 1.334 . S
C606 C607 1.287 . S
C607 C606 1.287 . S
C607 C608 1.524 . S
C607 H610 0.999 . S
C608 H578 0.950 . S
C608 C607 1.524 . S
C608 C609 1.415 . S
C609 H579 0.950 . S
C609 C604 1.363 . S
C609 C608 1.415 . S
H610 C607 0.999 . S
H611 C592 0.913 . S
H612 C630 0.951 . S
H613 C632 0.951 . S
H614 C634 0.950 . S
H615 C635 0.950 . S
H616 C637 0.950 . S
H617 C640 0.950 . S
H618 C641 0.950 . S
H619 C643 0.950 . S
H620 C644 0.950 . S
H621 C645 0.951 . S
H622 C647 0.951 . S
H623 C649 0.950 . S
H624 C650 0.950 . S
H625 C652 0.950 . S
H626 C655 0.950 . S
H627 C656 0.950 . S
H628 C658 0.950 . S
H629 C659 0.950 . S
C630 H612 0.951 . S
C630 C631 1.366 . S
C630 C632 1.388 . S
C631 C630 1.366 . S
C631 C635 1.385 . S
C632 H613 0.951 . S
C632 C630 1.388 . S
C632 C633 1.366 . S
C633 C632 1.366 . S
C633 C634 1.414 . S
C633 C636 1.499 . S
C634 H614 0.950 . S
C634 C633 1.414 . S
C634 C635 1.374 . S
C635 H615 0.950 . S
C635 C631 1.385 . S
C635 C634 1.374 . S
C636 C633 1.499 . S
C636 C637 1.373 . S
C636 C638 1.389 . S
C637 H616 0.950 . S
C637 C636 1.373 . S
C637 C653 1.377 . S
C638 C636 1.389 . S
C638 C639 1.524 . S
C638 C652 1.377 . S
C639 C638 1.524 . S
C639 C640 1.397 . S
C639 C644 1.363 . S
C640 H617 0.950 . S
C640 C639 1.397 . S
C640 C641 1.334 . S
C641 H618 0.950 . S
C641 C640 1.334 . S
C641 C642 1.287 . S
C642 C641 1.287 . S
C642 C643 1.524 . S
C642 H661 0.913 . S
C643 H619 0.950 . S
C643 C642 1.524 . S
C643 C644 1.415 . S
C644 H620 0.950 . S
C644 C639 1.363 . S
C644 C643 1.415 . S
C645 H621 0.951 . S
C645 C646 1.366 . S
C645 C647 1.388 . S
C646 C645 1.366 . S
C646 C650 1.385 . S
C647 H622 0.951 . S
C647 C645 1.388 . S
C647 C648 1.366 . S
C648 C647 1.366 . S
C648 C649 1.414 . S
C648 C651 1.499 . S
C649 H623 0.950 . S
C649 C648 1.414 . S
C649 C650 1.374 . S
C650 H624 0.950 . S
C650 C646 1.385 . S
C650 C649 1.374 . S
C651 C648 1.499 . S
C651 C652 1.373 . S
C651 C653 1.389 . S
C652 H625 0.950 . S
C652 C638 1.377 . S
C652 C651 1.373 . S
C653 C637 1.377 . S
C653 C651 1.389 . S
C653 C654 1.524 . S
C654 C653 1.524 . S
C654 C655 1.397 . S
C654 C659 1.363 . S
C655 H626 0.950 . S
C655 C654 1.397 . S
C655 C656 1.334 . S
C656 H627 0.950 . S
C656 C655 1.334 . S
C656 C657 1.287 . S
C657 C656 1.287 . S
C657 C658 1.524 . S
C657 H660 0.999 . S
C658 H628 0.950 . S
C658 C657 1.524 . S
C658 C659 1.415 . S
C659 H629 0.950 . S
C659 C654 1.363 . S
C659 C658 1.415 . S
H660 C657 0.999 . S
H661 C642 0.913 . S
H662 C680 0.951 . S
H663 C682 0.951 . S
H664 C684 0.950 . S
H665 C685 0.950 . S
H666 C687 0.950 . S
H667 C690 0.950 . S
H668 C691 0.950 . S
H669 C693 0.950 . S
H670 C694 0.950 . S
H671 C695 0.951 . S
H672 C697 0.951 . S
H673 C699 0.950 . S
H674 C700 0.950 . S
H675 C702 0.950 . S
H676 C705 0.950 . S
H677 C706 0.950 . S
H678 C708 0.950 1_565 S
H679 C709 0.950 . S
C680 H662 0.951 . S
C680 C681 1.366 . S
C680 C682 1.388 . S
C681 C680 1.366 . S
C681 C685 1.385 . S
C682 H663 0.951 . S
C682 C680 1.388 . S
C682 C683 1.366 . S
C683 C682 1.366 . S
C683 C684 1.414 . S
C683 C686 1.499 . S
C684 H664 0.950 . S
C684 C683 1.414 . S
C684 C685 1.374 . S
C685 H665 0.950 . S
C685 C681 1.385 . S
C685 C684 1.374 . S
C686 C683 1.499 . S
C686 C687 1.373 . S
C686 C688 1.389 . S
C687 H666 0.950 . S
C687 C686 1.373 . S
C687 C703 1.377 . S
C688 C686 1.389 . S
C688 C689 1.524 . S
C688 C702 1.377 . S
C689 C688 1.524 . S
C689 C690 1.397 . S
C689 C694 1.363 . S
C690 H667 0.950 . S
C690 C689 1.397 . S
C690 C691 1.334 . S
C691 H668 0.950 . S
C691 C690 1.334 . S
C691 C692 1.287 . S
C692 C691 1.287 . S
C692 C693 1.524 . S
C692 H711 0.913 . S
C693 H669 0.950 . S
C693 C692 1.524 . S
C693 C694 1.415 . S
C694 H670 0.950 . S
C694 C689 1.363 . S
C694 C693 1.415 . S
C695 H671 0.951 . S
C695 C696 1.366 . S
C695 C697 1.388 . S
C696 C695 1.366 . S
C696 C700 1.385 . S
C697 H672 0.951 . S
C697 C695 1.388 . S
C697 C698 1.366 . S
C698 C697 1.366 . S
C698 C699 1.414 . S
C698 C701 1.499 . S
C699 H673 0.950 . S
C699 C698 1.414 . S
C699 C700 1.374 . S
C700 H674 0.950 . S
C700 C696 1.385 . S
C700 C699 1.374 . S
C701 C698 1.499 . S
C701 C702 1.373 . S
C701 C703 1.389 . S
C702 H675 0.950 . S
C702 C688 1.377 . S
C702 C701 1.373 . S
C703 C687 1.377 . S
C703 C701 1.389 . S
C703 C704 1.524 . S
C704 C703 1.524 . S
C704 C705 1.397 . S
C704 C709 1.363 . S
C705 H676 0.950 . S
C705 C704 1.397 . S
C705 C706 1.334 . S
C706 H677 0.950 . S
C706 C705 1.334 . S
C706 C707 1.287 . S
C707 C706 1.287 . S
C707 C708 1.524 . S
C707 H710 0.999 . S
C708 H678 0.950 1_545 S
C708 C707 1.524 . S
C708 C709 1.415 . S
C709 H679 0.950 . S
C709 C704 1.363 . S
C709 C708 1.415 . S
H710 C707 0.999 . S
H711 C692 0.913 . S
H712 C730 0.951 . S
H713 C732 0.951 . S
H714 C734 0.950 . S
H715 C735 0.950 . S
H716 C737 0.950 . S
H717 C740 0.950 . S
H718 C741 0.950 . S
H719 C743 0.950 . S
H720 C744 0.950 . S
H721 C745 0.951 . S
H722 C747 0.951 . S
H723 C749 0.950 . S
H724 C750 0.950 . S
H725 C752 0.950 . S
H726 C755 0.950 . S
H727 C756 0.950 . S
H728 C758 0.950 . S
H729 C759 0.950 . S
C730 H712 0.951 . S
C730 C731 1.366 . S
C730 C732 1.388 . S
C731 C730 1.366 . S
C731 C735 1.385 . S
C732 H713 0.951 . S
C732 C730 1.388 . S
C732 C733 1.366 . S
C733 C732 1.366 . S
C733 C734 1.414 . S
C733 C736 1.499 . S
C734 H714 0.950 . S
C734 C733 1.414 . S
C734 C735 1.374 . S
C735 H715 0.950 . S
C735 C731 1.385 . S
C735 C734 1.374 . S
C736 C733 1.499 . S
C736 C737 1.373 . S
C736 C738 1.389 . S
C737 H716 0.950 . S
C737 C736 1.373 . S
C737 C753 1.377 . S
C738 C736 1.389 . S
C738 C739 1.524 . S
C738 C752 1.377 . S
C739 C738 1.524 . S
C739 C740 1.397 . S
C739 C744 1.363 . S
C740 H717 0.950 . S
C740 C739 1.397 . S
C740 C741 1.334 . S
C741 H718 0.950 . S
C741 C740 1.334 . S
C741 C742 1.287 . S
C742 C741 1.287 . S
C742 C743 1.524 . S
C742 H761 0.913 . S
C743 H719 0.950 . S
C743 C742 1.524 . S
C743 C744 1.415 . S
C744 H720 0.950 . S
C744 C739 1.363 . S
C744 C743 1.415 . S
C745 H721 0.951 . S
C745 C746 1.366 . S
C745 C747 1.388 . S
C746 C745 1.366 . S
C746 C750 1.385 . S
C747 H722 0.951 . S
C747 C745 1.388 . S
C747 C748 1.366 . S
C748 C747 1.366 . S
C748 C749 1.414 . S
C748 C751 1.499 . S
C749 H723 0.950 . S
C749 C748 1.414 . S
C749 C750 1.374 . S
C750 H724 0.950 . S
C750 C746 1.385 . S
C750 C749 1.374 . S
C751 C748 1.499 . S
C751 C752 1.373 . S
C751 C753 1.389 . S
C752 H725 0.950 . S
C752 C738 1.377 . S
C752 C751 1.373 . S
C753 C737 1.377 . S
C753 C751 1.389 . S
C753 C754 1.524 . S
C754 C753 1.524 . S
C754 C755 1.397 . S
C754 C759 1.363 . S
C755 H726 0.950 . S
C755 C754 1.397 . S
C755 C756 1.334 . S
C756 H727 0.950 . S
C756 C755 1.334 . S
C756 C757 1.287 . S
C757 C756 1.287 . S
C757 C758 1.524 . S
C757 H760 0.999 . S
C758 H728 0.950 . S
C758 C757 1.524 . S
C758 C759 1.415 . S
C759 H729 0.950 . S
C759 C754 1.363 . S
C759 C758 1.415 . S
H760 C757 0.999 . S
H761 C742 0.913 . S
H762 C780 0.951 . S
H763 C782 0.951 . S
H764 C784 0.950 . S
H765 C785 0.950 . S
H766 C787 0.950 . S
H767 C790 0.950 . S
H768 C791 0.950 . S
H769 C793 0.950 . S
H770 C794 0.950 . S
H771 C795 0.951 . S
H772 C797 0.951 . S
H773 C799 0.950 . S
H774 C800 0.950 . S
H775 C802 0.950 . S
H776 C805 0.950 1_565 S
H777 C806 0.950 . S
H778 C808 0.950 . S
H779 C809 0.950 . S
C780 H762 0.951 . S
C780 C781 1.366 . S
C780 C782 1.388 . S
C781 C780 1.366 . S
C781 C785 1.385 . S
C782 H763 0.951 . S
C782 C780 1.388 . S
C782 C783 1.366 . S
C783 C782 1.366 . S
C783 C784 1.414 . S
C783 C786 1.499 . S
C784 H764 0.950 . S
C784 C783 1.414 . S
C784 C785 1.374 . S
C785 H765 0.950 . S
C785 C781 1.385 . S
C785 C784 1.374 . S
C786 C783 1.499 . S
C786 C787 1.373 . S
C786 C788 1.389 . S
C787 H766 0.950 . S
C787 C786 1.373 . S
C787 C803 1.377 . S
C788 C786 1.389 . S
C788 C789 1.524 . S
C788 C802 1.377 . S
C789 C788 1.524 . S
C789 C790 1.397 . S
C789 C794 1.363 . S
C790 H767 0.950 . S
C790 C789 1.397 . S
C790 C791 1.334 . S
C791 H768 0.950 . S
C791 C790 1.334 . S
C791 C792 1.287 . S
C792 C791 1.287 . S
C792 C793 1.524 . S
C792 H811 0.913 . S
C793 H769 0.950 . S
C793 C792 1.524 . S
C793 C794 1.415 . S
C794 H770 0.950 . S
C794 C789 1.363 . S
C794 C793 1.415 . S
C795 H771 0.951 . S
C795 C796 1.366 . S
C795 C797 1.388 . S
C796 C795 1.366 . S
C796 C800 1.385 . S
C797 H772 0.951 . S
C797 C795 1.388 . S
C797 C798 1.366 . S
C798 C797 1.366 . S
C798 C799 1.414 . S
C798 C801 1.499 . S
C799 H773 0.950 . S
C799 C798 1.414 . S
C799 C800 1.374 . S
C800 H774 0.950 . S
C800 C796 1.385 . S
C800 C799 1.374 . S
C801 C798 1.499 . S
C801 C802 1.373 . S
C801 C803 1.389 . S
C802 H775 0.950 . S
C802 C788 1.377 . S
C802 C801 1.373 . S
C803 C787 1.377 . S
C803 C801 1.389 . S
C803 C804 1.524 . S
C804 C803 1.524 . S
C804 C805 1.397 1_565 S
C804 C809 1.363 1_565 S
C805 H776 0.950 1_545 S
C805 C804 1.397 1_545 S
C805 C806 1.334 . S
C806 H777 0.950 . S
C806 C805 1.334 . S
C806 C807 1.287 . S
C807 C806 1.287 . S
C807 C808 1.524 . S
C807 H810 0.999 . S
C808 H778 0.950 . S
C808 C807 1.524 . S
C808 C809 1.415 . S
C809 H779 0.950 . S
C809 C804 1.363 1_545 S
C809 C808 1.415 . S
H810 C807 0.999 . S
H811 C792 0.913 . S
C246 C107 1.673 . S
C231 C43 1.688 . S
C281 C10 1.687 . S
C296 C202 1.666 . S
C331 C21 1.693 . S
C346 C118 1.690 . S
C381 C32 1.661 . S
C396 C191 1.652 . S
C446 C102 1.467 . S
C431 C5 1.631 . S
C496 C195 1.736 . S
C481 C15 1.734 . S
C531 C27 1.656 . S
C546 C111 1.669 . S
C581 C38 1.623 . S
C596 C186 1.457 . S
C646 C197 1.404 . S
C631 C16 1.569 . S
C696 C113 1.404 . S
C681 C26 1.575 . S
C746 C184 1.648 . S
C731 C37 1.640 . S
C781 C4 1.580 . S
C796 C100 1.589 . S
