# Generated by pormake.
# Topology pyr, (3,6)-cn, num edge types: 1
# Building blocks:
#     Node 0, Type 0, BuildingBlock: VETTIZ_charged_linker_0, # of connection points: 3
#     Node 1, Type 0, BuildingBlock: VETTIZ_charged_linker_0, # of connection points: 3
#     Node 2, Type 0, BuildingBlock: VETTIZ_charged_linker_0, # of connection points: 3
#     Node 3, Type 0, BuildingBlock: VETTIZ_charged_linker_0, # of connection points: 3
#     Node 4, Type 0, BuildingBlock: VETTIZ_charged_linker_0, # of connection points: 3
#     Node 5, Type 0, BuildingBlock: VETTIZ_charged_linker_0, # of connection points: 3
#     Node 6, Type 0, BuildingBlock: VETTIZ_charged_linker_0, # of connection points: 3
#     Node 7, Type 0, BuildingBlock: VETTIZ_charged_linker_0, # of connection points: 3
#     Node 8, Type 1, BuildingBlock: INOVEN_clean_sbu_0, # of connection points: 6
#     Node 9, Type 1, BuildingBlock: INOVEN_clean_sbu_0, # of connection points: 6
#     Node 10, Type 1, BuildingBlock: INOVEN_clean_sbu_0, # of connection points: 6
#     Node 11, Type 1, BuildingBlock: INOVEN_clean_sbu_0, # of connection points: 6
#     Edge 12, Type (0, 1), BuildingBlock: KIFKEQ_clean_linker_1, # of connection points: 2
#     Edge 13, Type (0, 1), BuildingBlock: KIFKEQ_clean_linker_1, # of connection points: 2
#     Edge 14, Type (0, 1), BuildingBlock: KIFKEQ_clean_linker_1, # of connection points: 2
#     Edge 15, Type (0, 1), BuildingBlock: KIFKEQ_clean_linker_1, # of connection points: 2
#     Edge 16, Type (0, 1), BuildingBlock: KIFKEQ_clean_linker_1, # of connection points: 2
#     Edge 17, Type (0, 1), BuildingBlock: KIFKEQ_clean_linker_1, # of connection points: 2
#     Edge 18, Type (0, 1), BuildingBlock: KIFKEQ_clean_linker_1, # of connection points: 2
#     Edge 19, Type (0, 1), BuildingBlock: KIFKEQ_clean_linker_1, # of connection points: 2
#     Edge 20, Type (0, 1), BuildingBlock: KIFKEQ_clean_linker_1, # of connection points: 2
#     Edge 21, Type (0, 1), BuildingBlock: KIFKEQ_clean_linker_1, # of connection points: 2
#     Edge 22, Type (0, 1), BuildingBlock: KIFKEQ_clean_linker_1, # of connection points: 2
#     Edge 23, Type (0, 1), BuildingBlock: KIFKEQ_clean_linker_1, # of connection points: 2
#     Edge 24, Type (0, 1), BuildingBlock: KIFKEQ_clean_linker_1, # of connection points: 2
#     Edge 25, Type (0, 1), BuildingBlock: KIFKEQ_clean_linker_1, # of connection points: 2
#     Edge 26, Type (0, 1), BuildingBlock: KIFKEQ_clean_linker_1, # of connection points: 2
#     Edge 27, Type (0, 1), BuildingBlock: KIFKEQ_clean_linker_1, # of connection points: 2
#     Edge 28, Type (0, 1), BuildingBlock: KIFKEQ_clean_linker_1, # of connection points: 2
#     Edge 29, Type (0, 1), BuildingBlock: KIFKEQ_clean_linker_1, # of connection points: 2
#     Edge 30, Type (0, 1), BuildingBlock: KIFKEQ_clean_linker_1, # of connection points: 2
#     Edge 31, Type (0, 1), BuildingBlock: KIFKEQ_clean_linker_1, # of connection points: 2
#     Edge 32, Type (0, 1), BuildingBlock: KIFKEQ_clean_linker_1, # of connection points: 2
#     Edge 33, Type (0, 1), BuildingBlock: KIFKEQ_clean_linker_1, # of connection points: 2
#     Edge 34, Type (0, 1), BuildingBlock: KIFKEQ_clean_linker_1, # of connection points: 2
#     Edge 35, Type (0, 1), BuildingBlock: KIFKEQ_clean_linker_1, # of connection points: 2
# Relax obj value: 0.093
# Max RMSD: 0.126
# Mean RMSD: 0.060
data_MOF--net-pyr--node1-INOVEN_clean_sbu_0--node2-VETTIZ_charged_linker_0--edge1-KIFKEQ_clean_linker_1
_symmetry_space_group_name_H-M    P1
_symmetry_Int_Tables_number       1
_symmetry_cell_setting            triclinic
loop_
_symmetry_equiv_pos_as_xyz
'x, y, z'
_cell_length_a     46.989381
_cell_length_b     49.013003
_cell_length_c     44.338641
_cell_angle_alpha  91.00711
_cell_angle_beta   88.681394
_cell_angle_gamma 100.60267
loop_
_atom_site_label
_atom_site_type_symbol
_atom_site_fract_x
_atom_site_fract_y
_atom_site_fract_z
_atom_type_partial_charge
C0 C 0.29448 0.26499 0.32764 0.0
C1 C 0.27293 0.27854 0.34015 0.0
C2 C 0.26792 0.30294 0.32649 0.0
C3 C 0.30073 0.29623 0.28524 0.0
C4 C 0.30806 0.27417 0.30027 0.0
C5 C 0.32917 0.26038 0.28235 0.0
H6 H 0.39101 0.2376 0.14787 0.0
C7 C 0.31451 0.29725 0.25489 0.0
C8 C 0.33165 0.27664 0.25324 0.0
H9 H 0.40112 0.20004 0.23359 0.0
H10 H 0.37303 0.23056 0.25848 0.0
H11 H 0.39968 0.30284 0.17489 0.0
H12 H 0.32532 0.23947 0.15644 0.0
H13 H 0.31693 0.27124 0.14561 0.0
H14 H 0.34642 0.2585 0.12683 0.0
H15 H 0.38935 0.29153 0.13732 0.0
H16 H 0.37389 0.31825 0.15655 0.0
C17 C 0.35819 0.26497 0.29934 0.0
C18 C 0.31522 0.22945 0.27734 0.0
C19 C 0.27926 0.35476 0.17466 0.0
C20 C 0.28285 0.35564 0.14314 0.0
C21 C 0.30294 0.34111 0.12915 0.0
C22 C 0.31852 0.32525 0.14628 0.0
C23 C 0.31356 0.32346 0.17766 0.0
C24 C 0.2945 0.33844 0.19135 0.0
C25 C 0.29029 0.33272 0.22448 0.0
C26 C 0.31009 0.31192 0.22858 0.0
C27 C 0.32363 0.30647 0.20109 0.0
C28 C 0.30085 0.3601 0.2422 0.0
C29 C 0.25791 0.31978 0.23007 0.0
C30 C 0.38752 0.23627 0.17208 0.0
C31 C 0.39799 0.21613 0.18875 0.0
C32 C 0.39282 0.21499 0.22017 0.0
C33 C 0.3766 0.2328 0.23462 0.0
C34 C 0.36506 0.25183 0.21749 0.0
C35 C 0.37116 0.25388 0.1869 0.0
C36 C 0.357 0.27548 0.17253 0.0
C37 C 0.34165 0.28612 0.19963 0.0
C38 C 0.34607 0.27176 0.22574 0.0
C39 C 0.38108 0.29825 0.15937 0.0
C40 C 0.33539 0.26067 0.14893 0.0
H41 H 0.27611 0.32991 0.28917 0.0
H42 H 0.29906 0.24628 0.33754 0.0
H43 H 0.29208 0.2275 0.27125 0.0
H44 H 0.32538 0.21931 0.25869 0.0
H45 H 0.31609 0.21731 0.2981 0.0
H46 H 0.36055 0.28355 0.31451 0.0
H47 H 0.35982 0.24687 0.31349 0.0
H48 H 0.37723 0.26917 0.28379 0.0
H49 H 0.26356 0.36523 0.18601 0.0
H50 H 0.30617 0.34162 0.10488 0.0
H51 H 0.33319 0.31433 0.13432 0.0
H52 H 0.31916 0.3734 0.23009 0.0
H53 H 0.28325 0.3723 0.24527 0.0
H54 H 0.30952 0.35656 0.26449 0.0
H55 H 0.24953 0.30552 0.21118 0.0
H56 H 0.25394 0.30685 0.25031 0.0
H57 H 0.24438 0.33612 0.23185 0.0
H58 H 0.25211 0.3143 0.33611 0.0
C59 C 0.28181 0.31193 0.29918 0.0
C60 C 0.1879 0.87483 0.62715 0.0
C61 C 0.16921 0.8875 0.64564 0.0
C62 C 0.16904 0.88367 0.67708 0.0
C63 C 0.20804 0.85774 0.67135 0.0
C64 C 0.2072 0.86028 0.64042 0.0
C65 C 0.23011 0.84755 0.62418 0.0
H66 H 0.35016 0.79059 0.63198 0.0
C67 C 0.23257 0.84406 0.67812 0.0
C68 C 0.24558 0.838 0.65059 0.0
H69 H 0.30482 0.80534 0.55187 0.0
H70 H 0.269 0.82328 0.58276 0.0
H71 H 0.34459 0.84713 0.66657 0.0
H72 H 0.29428 0.76451 0.66956 0.0
H73 H 0.29733 0.77704 0.70694 0.0
H74 H 0.32958 0.77351 0.68552 0.0
H75 H 0.35672 0.81945 0.68551 0.0
H76 H 0.33434 0.84094 0.70446 0.0
C77 C 0.24994 0.87061 0.60606 0.0
C78 C 0.21492 0.8228 0.60468 0.0
C79 C 0.26233 0.8384 0.78673 0.0
C80 C 0.28749 0.83235 0.79969 0.0
C81 C 0.30716 0.82078 0.78114 0.0
C82 C 0.30272 0.81691 0.75011 0.0
C83 C 0.2786 0.82505 0.73726 0.0
C84 C 0.25863 0.83513 0.75558 0.0
C85 C 0.23552 0.84472 0.73782 0.0
C86 C 0.24495 0.83872 0.7058 0.0
C87 C 0.27011 0.82716 0.70565 0.0
C88 C 0.23728 0.87628 0.74408 0.0
C89 C 0.20603 0.82648 0.74642 0.0
C90 C 0.33288 0.79826 0.621 0.0
C91 C 0.33056 0.79711 0.58946 0.0
C92 C 0.30713 0.80628 0.57614 0.0
C93 C 0.28638 0.81658 0.59411 0.0
C94 C 0.28906 0.81754 0.62569 0.0
C95 C 0.31193 0.80825 0.63856 0.0
C96 C 0.31082 0.80961 0.67241 0.0
C97 C 0.2833 0.82103 0.67787 0.0
C98 C 0.27087 0.82604 0.65048 0.0
C99 C 0.33803 0.83014 0.68306 0.0
C100 C 0.30806 0.77973 0.68449 0.0
H101 H 0.18756 0.86711 0.7141 0.0
H102 H 0.18812 0.87687 0.60286 0.0
H103 H 0.19383 0.81294 0.61507 0.0
H104 H 0.22753 0.80588 0.60268 0.0
H105 H 0.21053 0.82962 0.58176 0.0
H106 H 0.25473 0.89014 0.61968 0.0
H107 H 0.23937 0.87523 0.58507 0.0
H108 H 0.27123 0.86548 0.59998 0.0
H109 H 0.24649 0.84695 0.80022 0.0
H110 H 0.32692 0.81616 0.79017 0.0
H111 H 0.31892 0.80879 0.73717 0.0
H112 H 0.25966 0.88659 0.74985 0.0
H113 H 0.22277 0.88001 0.76323 0.0
H114 H 0.23216 0.88762 0.7242 0.0
H115 H 0.20832 0.80444 0.74896 0.0
H116 H 0.18959 0.8261 0.72893 0.0
H117 H 0.19747 0.83353 0.76818 0.0
H118 H 0.15498 0.89328 0.69188 0.0
C119 C 0.18823 0.86871 0.68999 0.0
C120 C 0.63438 0.27543 0.90881 0.0
C121 C 0.6075 0.25936 0.90047 0.0
C122 C 0.59207 0.27008 0.87771 0.0
C123 C 0.62999 0.31122 0.87232 0.0
C124 C 0.64492 0.30103 0.89481 0.0
C125 C 0.67263 0.32053 0.90214 0.0
H126 H 0.76638 0.44201 0.88165 0.0
C127 C 0.64727 0.33855 0.86243 0.0
C128 C 0.67221 0.34399 0.88023 0.0
H129 H 0.77174 0.37653 0.94415 0.0
H130 H 0.7274 0.34981 0.92544 0.0
H131 H 0.69474 0.43919 0.88786 0.0
H132 H 0.74838 0.40121 0.82602 0.0
H133 H 0.71949 0.40885 0.80538 0.0
H134 H 0.74469 0.43679 0.82254 0.0
H135 H 0.72025 0.4585 0.86176 0.0
H136 H 0.68415 0.44338 0.85054 0.0
C137 C 0.67037 0.33026 0.93545 0.0
C138 C 0.69819 0.30527 0.89515 0.0
C139 C 0.61393 0.39314 0.77574 0.0
C140 C 0.62669 0.41788 0.76084 0.0
C141 C 0.65349 0.43237 0.77139 0.0
C142 C 0.66724 0.42276 0.79588 0.0
C143 C 0.65448 0.39801 0.81027 0.0
C144 C 0.62831 0.38346 0.80005 0.0
C145 C 0.61864 0.35698 0.8176 0.0
C146 C 0.64324 0.35801 0.83981 0.0
C147 C 0.66411 0.38241 0.83559 0.0
C148 C 0.58965 0.35879 0.83399 0.0
C149 C 0.61681 0.33211 0.79537 0.0
C150 C 0.75779 0.42202 0.89145 0.0
C151 C 0.77279 0.41151 0.91461 0.0
C152 C 0.76096 0.38513 0.92623 0.0
C153 C 0.735 0.36963 0.91538 0.0
C154 C 0.72029 0.38026 0.89231 0.0
C155 C 0.73181 0.40596 0.8805 0.0
C156 C 0.71368 0.41315 0.85504 0.0
C157 C 0.689 0.38801 0.8543 0.0
C158 C 0.69303 0.36887 0.87633 0.0
C159 C 0.70264 0.44007 0.86399 0.0
C160 C 0.7324 0.41536 0.82565 0.0
H161 H 0.59017 0.3024 0.84665 0.0
H162 H 0.64737 0.26824 0.92574 0.0
H163 H 0.69366 0.29129 0.8751 0.0
H164 H 0.71852 0.31954 0.88923 0.0
H165 H 0.70207 0.29234 0.91443 0.0
H166 H 0.64773 0.33215 0.94167 0.0
H167 H 0.67708 0.31529 0.95112 0.0
H168 H 0.68319 0.35113 0.93985 0.0
H169 H 0.59352 0.38126 0.76821 0.0
H170 H 0.66378 0.45153 0.76081 0.0
H171 H 0.68744 0.43503 0.80267 0.0
H172 H 0.5901 0.38001 0.84355 0.0
H173 H 0.5713 0.35417 0.81822 0.0
H174 H 0.58513 0.34472 0.85337 0.0
H175 H 0.63591 0.33511 0.77967 0.0
H176 H 0.61695 0.31232 0.80674 0.0
H177 H 0.59703 0.32986 0.78159 0.0
H178 H 0.57109 0.25893 0.87091 0.0
C179 C 0.60311 0.29564 0.86366 0.0
C180 C 0.91035 0.78635 0.37956 0.0
C181 C 0.89976 0.80079 0.40414 0.0
C182 C 0.87472 0.78733 0.41982 0.0
C183 C 0.87055 0.74708 0.38637 0.0
C184 C 0.89539 0.75958 0.3711 0.0
C185 C 0.90321 0.74102 0.34566 0.0
H186 H 0.87058 0.61853 0.26609 0.0
C187 C 0.85983 0.71951 0.37221 0.0
C188 C 0.87892 0.7156 0.34825 0.0
H189 H 0.94401 0.68484 0.25184 0.0
H190 H 0.92722 0.71115 0.29299 0.0
H191 H 0.87462 0.6191 0.33803 0.0
H192 H 0.82285 0.65809 0.27904 0.0
H193 H 0.80058 0.64287 0.30897 0.0
H194 H 0.81743 0.62116 0.28369 0.0
H195 H 0.84423 0.59962 0.31856 0.0
H196 H 0.83992 0.61614 0.35465 0.0
C197 C 0.93311 0.7338 0.35222 0.0
C198 C 0.90223 0.75623 0.31557 0.0
C199 C 0.76675 0.6602 0.41354 0.0
C200 C 0.75122 0.63344 0.40642 0.0
C201 C 0.76224 0.61846 0.38266 0.0
C202 C 0.78768 0.62981 0.36644 0.0
C203 C 0.8028 0.65652 0.37393 0.0
C204 C 0.79231 0.6711 0.39732 0.0
C205 C 0.81153 0.69881 0.40289 0.0
C206 C 0.83515 0.69867 0.37882 0.0
C207 C 0.82991 0.67391 0.36172 0.0
C208 C 0.82353 0.6989 0.43523 0.0
C209 C 0.79359 0.72174 0.39731 0.0
C210 C 0.88334 0.63858 0.27183 0.0
C211 C 0.90883 0.64932 0.25518 0.0
C212 C 0.92413 0.67592 0.26361 0.0
C213 C 0.91445 0.6912 0.28782 0.0
C214 C 0.8891 0.68 0.30422 0.0
C215 C 0.87404 0.65404 0.29601 0.0
C216 C 0.84769 0.64507 0.31597 0.0
C217 C 0.84924 0.66981 0.33745 0.0
C218 C 0.8736 0.69045 0.3306 0.0
C219 C 0.8515 0.61848 0.33262 0.0
C220 C 0.82058 0.64137 0.29605 0.0
H221 H 0.84125 0.7523 0.42411 0.0
H222 H 0.92951 0.79578 0.36691 0.0
H223 H 0.88297 0.76646 0.31525 0.0
H224 H 0.90017 0.74207 0.29582 0.0
H225 H 0.92183 0.77253 0.3124 0.0
H226 H 0.93476 0.72936 0.37657 0.0
H227 H 0.95084 0.75134 0.34637 0.0
H228 H 0.93698 0.71495 0.34009 0.0
H229 H 0.75916 0.67272 0.43124 0.0
H230 H 0.75149 0.59765 0.37677 0.0
H231 H 0.79471 0.61723 0.34873 0.0
H232 H 0.82525 0.67758 0.44224 0.0
H233 H 0.80924 0.70712 0.45201 0.0
H234 H 0.84581 0.71087 0.437 0.0
H235 H 0.77928 0.71617 0.37765 0.0
H236 H 0.8071 0.74194 0.3916 0.0
H237 H 0.77959 0.72456 0.41722 0.0
H238 H 0.86633 0.79712 0.43932 0.0
C239 C 0.86016 0.76092 0.41109 0.0
C240 C 0.74684 0.7339 0.89921 0.0
C241 C 0.76846 0.72143 0.88499 0.0
C242 C 0.77259 0.72375 0.85347 0.0
C243 C 0.73546 0.75186 0.85113 0.0
C244 C 0.73052 0.74885 0.88182 0.0
C245 C 0.70713 0.76404 0.8931 0.0
H246 H 0.61941 0.85548 0.86448 0.0
C247 C 0.71612 0.76969 0.83975 0.0
C248 C 0.69893 0.7765 0.86405 0.0
H249 H 0.63215 0.81888 0.94997 0.0
H250 H 0.6626 0.79005 0.92533 0.0
H251 H 0.61154 0.80007 0.82483 0.0
H252 H 0.68557 0.86365 0.84295 0.0
H253 H 0.68438 0.85712 0.80386 0.0
H254 H 0.65474 0.8693 0.82236 0.0
H255 H 0.61794 0.83222 0.8049 0.0
H256 H 0.63323 0.80277 0.79182 0.0
C257 C 0.6818 0.74253 0.90622 0.0
C258 C 0.72083 0.78661 0.91601 0.0
C259 C 0.73461 0.81042 0.73547 0.0
C260 C 0.72221 0.83001 0.7199 0.0
C261 C 0.69546 0.83598 0.73057 0.0
C262 C 0.6832 0.82526 0.75799 0.0
C263 C 0.69786 0.80848 0.77497 0.0
C264 C 0.72205 0.79989 0.76276 0.0
C265 C 0.73396 0.78089 0.78339 0.0
C266 C 0.71414 0.78123 0.81091 0.0
C267 C 0.69348 0.79793 0.80606 0.0
C268 C 0.73017 0.75171 0.7682 0.0
C269 C 0.76578 0.79413 0.79026 0.0
C270 C 0.62822 0.84085 0.87786 0.0
C271 C 0.62344 0.83959 0.90924 0.0
C272 C 0.63582 0.82056 0.92581 0.0
C273 C 0.6535 0.80385 0.91147 0.0
C274 C 0.65922 0.80643 0.88027 0.0
C275 C 0.64613 0.82431 0.86396 0.0
C276 C 0.65525 0.82522 0.83127 0.0
C277 C 0.67606 0.80493 0.83053 0.0
C278 C 0.67858 0.79416 0.85935 0.0
C279 C 0.62819 0.81474 0.81201 0.0
C280 C 0.67069 0.85532 0.82445 0.0
H281 H 0.76076 0.74006 0.81278 0.0
H282 H 0.74284 0.73224 0.92332 0.0
H283 H 0.74297 0.79653 0.90832 0.0
H284 H 0.70881 0.80384 0.91864 0.0
H285 H 0.72269 0.77753 0.9385 0.0
H286 H 0.6787 0.72293 0.89265 0.0
H287 H 0.68603 0.73734 0.92979 0.0
H288 H 0.6608 0.74956 0.90558 0.0
H289 H 0.75496 0.805 0.72801 0.0
H290 H 0.68472 0.8501 0.71853 0.0
H291 H 0.66358 0.83162 0.76566 0.0
H292 H 0.713 0.74875 0.75095 0.0
H293 H 0.75052 0.74834 0.7567 0.0
H294 H 0.72302 0.73483 0.78452 0.0
H295 H 0.76774 0.81678 0.79495 0.0
H296 H 0.77417 0.78562 0.81035 0.0
H297 H 0.78038 0.79148 0.7708 0.0
H298 H 0.78928 0.71475 0.84191 0.0
C299 C 0.75613 0.73868 0.83653 0.0
C300 C 0.84501 0.20277 0.4483 0.0
C301 C 0.86365 0.19045 0.42934 0.0
C302 C 0.86318 0.19438 0.39795 0.0
C303 C 0.82348 0.21929 0.40464 0.0
C304 C 0.82501 0.21686 0.43552 0.0
C305 C 0.80188 0.22895 0.45223 0.0
H306 H 0.67547 0.27563 0.44681 0.0
C307 C 0.79812 0.23193 0.39837 0.0
C308 C 0.78534 0.23768 0.42615 0.0
H309 H 0.72552 0.26845 0.52576 0.0
H310 H 0.76298 0.25346 0.49424 0.0
H311 H 0.68729 0.22049 0.41142 0.0
H312 H 0.72788 0.30655 0.4088 0.0
H313 H 0.72817 0.29405 0.37148 0.0
H314 H 0.694 0.29383 0.39104 0.0
H315 H 0.67054 0.24674 0.39523 0.0
H316 H 0.6944 0.22888 0.37333 0.0
C317 C 0.78319 0.20562 0.47098 0.0
C318 C 0.81667 0.2542 0.47125 0.0
C319 C 0.76512 0.23443 0.29044 0.0
C320 C 0.73923 0.23929 0.27801 0.0
C321 C 0.71927 0.25008 0.29691 0.0
C322 C 0.72422 0.25438 0.3278 0.0
C323 C 0.74916 0.24745 0.34017 0.0
C324 C 0.76939 0.2382 0.32147 0.0
C325 C 0.79365 0.23011 0.33876 0.0
C326 C 0.78465 0.23614 0.37094 0.0
C327 C 0.7586 0.24624 0.37158 0.0
C328 C 0.79338 0.19869 0.33291 0.0
C329 C 0.8222 0.24943 0.32921 0.0
C330 C 0.69425 0.27026 0.45733 0.0
C331 C 0.69736 0.27234 0.48871 0.0
C332 C 0.7226 0.26643 0.50161 0.0
C333 C 0.74424 0.25788 0.48329 0.0
C334 C 0.74061 0.25559 0.45184 0.0
C335 C 0.71616 0.26229 0.43941 0.0
C336 C 0.71672 0.26077 0.40558 0.0
C337 C 0.74553 0.25184 0.39959 0.0
C338 C 0.75915 0.24821 0.42673 0.0
C339 C 0.69087 0.23823 0.3956 0.0
C340 C 0.71648 0.29018 0.39335 0.0
H341 H 0.84351 0.21048 0.36145 0.0
H342 H 0.84529 0.20067 0.47256 0.0
H343 H 0.83763 0.26424 0.46072 0.0
H344 H 0.80365 0.27084 0.47285 0.0
H345 H 0.82123 0.2479 0.49433 0.0
H346 H 0.77775 0.18626 0.45718 0.0
H347 H 0.79499 0.20084 0.49108 0.0
H348 H 0.7623 0.21064 0.47873 0.0
H349 H 0.78116 0.22648 0.27664 0.0
H350 H 0.69898 0.25377 0.28827 0.0
H351 H 0.70777 0.26183 0.34104 0.0
H352 H 0.77138 0.1874 0.32709 0.0
H353 H 0.80828 0.19541 0.31394 0.0
H354 H 0.79896 0.18792 0.35301 0.0
H355 H 0.81869 0.2711 0.32661 0.0
H356 H 0.83924 0.25077 0.34621 0.0
H357 H 0.83058 0.24259 0.30727 0.0
H358 H 0.87716 0.18505 0.38277 0.0
C359 C 0.84335 0.20889 0.38555 0.0
C360 C 0.41398 0.67404 0.30075 0.0
C361 C 0.40127 0.64911 0.31531 0.0
C362 C 0.37449 0.6347 0.30459 0.0
C363 C 0.37343 0.66955 0.26625 0.0
C364 C 0.3996 0.68398 0.27661 0.0
C365 C 0.40931 0.71063 0.25938 0.0
H366 H 0.38067 0.80047 0.15243 0.0
C367 C 0.36381 0.68543 0.24116 0.0
C368 C 0.38474 0.70985 0.2372 0.0
H369 H 0.45696 0.80929 0.20719 0.0
H370 H 0.43789 0.76556 0.23098 0.0
H371 H 0.33435 0.7768 0.20294 0.0
H372 H 0.38057 0.73743 0.13541 0.0
H373 H 0.34557 0.71749 0.13746 0.0
H374 H 0.35043 0.75337 0.12648 0.0
H375 H 0.32624 0.77654 0.16357 0.0
H376 H 0.30951 0.74889 0.18809 0.0
C377 C 0.41114 0.73528 0.28191 0.0
C378 C 0.43831 0.70897 0.24293 0.0
C379 C 0.26988 0.64694 0.18508 0.0
C380 C 0.25514 0.65771 0.16185 0.0
C381 C 0.26737 0.68401 0.1503 0.0
C382 C 0.29336 0.69925 0.16136 0.0
C383 C 0.30775 0.68839 0.18452 0.0
C384 C 0.29595 0.6627 0.19617 0.0
C385 C 0.31403 0.65514 0.2215 0.0
C386 C 0.3389 0.6801 0.22244 0.0
C387 C 0.33501 0.69947 0.20061 0.0
C388 C 0.29535 0.65284 0.25091 0.0
C389 C 0.32478 0.62814 0.21225 0.0
C390 C 0.39368 0.79312 0.16924 0.0
C391 C 0.42056 0.8091 0.17768 0.0
C392 C 0.43599 0.79819 0.2003 0.0
C393 C 0.42495 0.77249 0.21408 0.0
C394 C 0.39808 0.75698 0.20527 0.0
C395 C 0.38316 0.76741 0.18294 0.0
C396 C 0.35549 0.748 0.17536 0.0
C397 C 0.35588 0.72433 0.19697 0.0
C398 C 0.38078 0.72955 0.21482 0.0
C399 C 0.32993 0.76322 0.18258 0.0
C400 C 0.35781 0.73861 0.14193 0.0
H401 H 0.34051 0.63241 0.27337 0.0
H402 H 0.43437 0.68587 0.3084 0.0
H403 H 0.43784 0.68786 0.23308 0.0
H404 H 0.44287 0.72327 0.22376 0.0
H405 H 0.45664 0.71338 0.25874 0.0
H406 H 0.39201 0.73214 0.29758 0.0
H407 H 0.43089 0.73737 0.29569 0.0
H408 H 0.41103 0.75519 0.27078 0.0
H409 H 0.26104 0.62698 0.19479 0.0
H410 H 0.25695 0.69279 0.13225 0.0
H411 H 0.30123 0.71903 0.15136 0.0
H412 H 0.28002 0.66766 0.25099 0.0
H413 H 0.28235 0.63163 0.25344 0.0
H414 H 0.30836 0.65843 0.27128 0.0
H415 H 0.33243 0.62905 0.1883 0.0
H416 H 0.34339 0.62467 0.22542 0.0
H417 H 0.3071 0.60979 0.21458 0.0
H418 H 0.36423 0.61539 0.31487 0.0
C419 C 0.36071 0.64461 0.28029 0.0
C420 C 0.12106 0.28199 0.69095 0.0
C421 C 0.13206 0.26838 0.66597 0.0
C422 C 0.15718 0.28249 0.65091 0.0
C423 C 0.16051 0.32178 0.68562 0.0
C424 C 0.1356 0.30864 0.70029 0.0
C425 C 0.12714 0.32643 0.72611 0.0
H426 H 0.15464 0.44784 0.80811 0.0
C427 C 0.17057 0.34913 0.70053 0.0
C428 C 0.15101 0.35225 0.72428 0.0
H429 H 0.08428 0.37835 0.82108 0.0
H430 H 0.10223 0.35399 0.77911 0.0
H431 H 0.15217 0.44798 0.73617 0.0
H432 H 0.20549 0.40956 0.7942 0.0
H433 H 0.22724 0.42759 0.76535 0.0
H434 H 0.20847 0.44654 0.79184 0.0
H435 H 0.18178 0.46803 0.75632 0.0
H436 H 0.18718 0.45229 0.72002 0.0
C437 C 0.09705 0.33321 0.7195 0.0
C438 C 0.12821 0.31062 0.75581 0.0
C439 C 0.26388 0.40984 0.66223 0.0
C440 C 0.27834 0.43683 0.66945 0.0
C441 C 0.26624 0.45194 0.69222 0.0
C442 C 0.24057 0.44016 0.70788 0.0
C443 C 0.22643 0.41302 0.70051 0.0
C444 C 0.23798 0.39859 0.67763 0.0
C445 C 0.21926 0.37081 0.67129 0.0
C446 C 0.19499 0.37045 0.69468 0.0
C447 C 0.19932 0.39509 0.71206 0.0
C448 C 0.20815 0.37092 0.63858 0.0
C449 C 0.23734 0.34809 0.67723 0.0
C450 C 0.14323 0.42726 0.80221 0.0
C451 C 0.11778 0.41528 0.81827 0.0
C452 C 0.10359 0.3885 0.80912 0.0
C453 C 0.11416 0.3742 0.78471 0.0
C454 C 0.13937 0.38656 0.76882 0.0
C455 C 0.15351 0.41267 0.77775 0.0
C456 C 0.17989 0.42275 0.7581 0.0
C457 C 0.17944 0.39841 0.73614 0.0
C458 C 0.15552 0.37712 0.7424 0.0
C459 C 0.17532 0.44927 0.74185 0.0
C460 C 0.20682 0.42706 0.77827 0.0
H461 H 0.19039 0.31786 0.64803 0.0
H462 H 0.10186 0.27207 0.7032 0.0
H463 H 0.14728 0.30011 0.75564 0.0
H464 H 0.13074 0.32443 0.77586 0.0
H465 H 0.10847 0.29447 0.75892 0.0
H466 H 0.09548 0.33795 0.69522 0.0
H467 H 0.07955 0.31535 0.72496 0.0
H468 H 0.09269 0.35177 0.73188 0.0
H469 H 0.27226 0.39789 0.64444 0.0
H470 H 0.27691 0.47279 0.69818 0.0
H471 H 0.23267 0.45266 0.72513 0.0
H472 H 0.20753 0.39235 0.63107 0.0
H473 H 0.22231 0.36188 0.62232 0.0
H474 H 0.18557 0.35973 0.63641 0.0
H475 H 0.25039 0.35321 0.69788 0.0
H476 H 0.22393 0.3275 0.68144 0.0
H477 H 0.25257 0.34625 0.65808 0.0
H478 H 0.16589 0.27341 0.63113 0.0
C479 C 0.17138 0.30873 0.66059 0.0
Gd480 Gd 0.03576 0.04558 0.50624 0.0
Gd481 Gd 0.99645 1.02643 0.55904 0.0
C482 C 0.04229 0.08525 0.56438 0.0
C483 C 0.06059 0.06425 0.45634 0.0
C484 C 0.0819 0.08922 0.44902 0.0
C485 C 0.10104 0.08871 0.42445 0.0
C486 C 0.08459 0.11302 0.4676 0.0
C487 C 0.12576 0.13549 0.43728 0.0
C488 C 0.10629 0.136 0.46174 0.0
C489 C 0.12278 0.11166 0.41859 0.0
C490 C 0.05996 1.01969 0.54907 0.0
C491 C 0.99026 0.98595 0.5013 0.0
C492 C 0.9706 1.00942 0.60904 0.0
C493 C 0.94388 0.98979 0.61591 0.0
C494 C 0.92485 0.97933 0.59277 0.0
C495 C 0.93684 0.98201 0.64573 0.0
C496 C 0.89109 0.95435 0.62955 0.0
C497 C 0.91069 0.96436 0.65252 0.0
C498 C 0.89863 0.96178 0.59953 0.0
C499 C 0.97263 0.053 0.51633 0.0
O500 O 0.04617 0.0843 0.5348 0.0
O501 O 0.02696 0.06384 0.57896 0.0
O502 O 0.07024 0.04625 0.47289 0.0
O503 O 0.03478 0.06824 0.46492 0.0
O504 O 0.07375 0.04095 0.53443 0.0
O505 O 0.03464 1.01257 0.53953 0.0
O506 O 0.98417 0.98805 0.5304 0.0
O507 O 1.00764 1.00628 0.4869 0.0
O508 O 0.967 1.0321 0.59573 0.0
O509 O 0.99181 0.99865 0.59707 0.0
O510 O 0.95867 1.03165 0.53071 0.0
O511 O 0.99788 0.0597 0.52611 0.0
H512 H 0.09937 0.07045 0.41 0.0
H513 H 0.07016 0.11372 0.48687 0.0
H514 H 0.10817 0.15394 0.47668 0.0
H515 H 0.13716 0.1108 0.39929 0.0
H516 H 0.93008 0.98515 0.56956 0.0
H517 H 0.95142 0.98979 0.66379 0.0
H518 H 0.9058 0.95858 0.67579 0.0
H519 H 0.88397 0.95463 0.58137 0.0
Gd520 Gd 0.53921 0.04043 0.05588 0.0
Gd521 Gd 0.48752 1.02851 1.02289 0.0
C522 C 0.49138 0.07289 0.07797 0.0
C523 C 0.5921 0.05473 0.0733 0.0
C524 C 0.61039 0.08012 0.08455 0.0
C525 C 0.63717 0.07862 0.09687 0.0
C526 C 0.60093 0.10565 0.08414 0.0
C527 C 0.64454 0.12785 0.10984 0.0
C528 C 0.61791 0.12937 0.09669 0.0
C529 C 0.65412 0.10226 0.10942 0.0
C530 C 0.50068 0.99729 0.08047 0.0
C531 C 0.5347 0.99458 1.00207 0.0
C532 C 0.4348 1.01482 1.00472 0.0
C533 C 0.41627 0.98944 0.99374 0.0
C534 C 0.3896 0.99109 0.98127 0.0
C535 C 0.4254 0.96378 0.99457 0.0
C536 C 0.3817 0.94172 0.96892 0.0
C537 C 0.40822 0.94005 0.98224 0.0
C538 C 0.37244 0.96745 0.96895 0.0
C539 C 0.52621 0.07175 0.99868 0.0
O540 O 0.51963 0.07533 0.07517 0.0
O541 O 0.47433 0.05333 0.06274 0.0
O542 O 0.57075 0.04378 0.09121 0.0
O543 O 0.58456 0.05495 0.04514 0.0
O544 O 0.51612 1.01714 0.09581 0.0
O545 O 0.50641 1.00105 0.05273 0.0
O546 O 0.50651 0.99289 1.00458 0.0
O547 O 0.55204 1.01426 1.01688 0.0
O548 O 0.45655 1.02508 0.98698 0.0
O549 O 0.44189 1.01499 1.03304 0.0
O550 O 0.51116 0.05177 0.98322 0.0
O551 O 0.52014 0.06798 1.02636 0.0
H552 H 0.64466 0.05901 0.09742 0.0
H553 H 0.58024 0.10709 0.0746 0.0
H554 H 0.61004 0.14879 0.09647 0.0
H555 H 0.67421 0.1002 0.11987 0.0
H556 H 0.38235 1.01081 0.98041 0.0
H557 H 0.446 0.96222 1.00424 0.0
H558 H 0.41585 0.92052 0.98275 0.0
H559 H 0.35245 0.96962 0.95835 0.0
Gd560 Gd 0.51347 0.50951 0.51895 0.0
Gd561 Gd 0.51529 0.55779 0.55682 0.0
C562 C 0.53939 0.50906 0.58731 0.0
C563 C 0.52445 0.46591 0.4909 0.0
C564 C 0.53683 0.44193 0.50014 0.0
C565 C 0.52234 0.41498 0.49338 0.0
C566 C 0.5628 0.44559 0.51608 0.0
C567 C 0.56059 0.39562 0.51655 0.0
C568 C 0.5746 0.42269 0.52409 0.0
C569 C 0.53402 0.39202 0.50161 0.0
C570 C 0.46296 0.50982 0.55001 0.0
C571 C 0.48963 0.55803 0.48837 0.0
C572 C 0.50341 0.6011 0.58482 0.0
C573 C 0.48722 0.62251 0.57589 0.0
C574 C 0.4966 0.65021 0.58474 0.0
C575 C 0.46292 0.6156 0.55752 0.0
C576 C 0.45695 0.66379 0.55774 0.0
C577 C 0.44801 0.63604 0.54844 0.0
C578 C 0.48156 0.67071 0.5758 0.0
C579 C 0.56593 0.55755 0.52625 0.0
O580 O 0.53912 0.49899 0.55934 0.0
O581 O 0.52822 0.5314 0.59335 0.0
O582 O 0.49894 0.46744 0.50235 0.0
O583 O 0.54202 0.48993 0.49044 0.0
O584 O 0.46456 0.50327 0.52164 0.0
O585 O 0.48812 0.51622 0.56047 0.0
O586 O 0.48881 0.56735 0.51658 0.0
O587 O 0.50191 0.53641 0.48221 0.0
O588 O 0.52783 0.60108 0.5702 0.0
O589 O 0.48821 0.57616 0.58833 0.0
O590 O 0.56405 0.56414 0.5546 0.0
O591 O 0.54086 0.55108 0.51543 0.0
H592 H 0.50207 0.4117 0.48149 0.0
H593 H 0.57429 0.46617 0.52195 0.0
H594 H 0.59526 0.42632 0.53522 0.0
H595 H 0.52241 0.37146 0.4959 0.0
H596 H 0.51541 0.65593 0.59875 0.0
H597 H 0.45531 0.59435 0.55028 0.0
H598 H 0.42936 0.63009 0.53426 0.0
H599 H 0.48874 0.69183 0.58373 0.0
Gd600 Gd 0.01884 0.50581 0.04952 0.0
Gd601 Gd 1.01128 0.5625 1.02153 0.0
C602 C 0.06924 0.55989 0.06096 0.0
C603 C 0.03507 0.45872 0.05524 0.0
C604 C 0.0634 0.45003 0.0569 0.0
C605 C 0.08631 0.46643 0.07239 0.0
C606 C 0.06752 0.42487 0.0436 0.0
C607 C 0.11656 0.43169 0.06298 0.0
C608 C 0.09386 0.41579 0.04653 0.0
C609 C 0.11252 0.45731 0.07553 0.0
C610 C 0.98802 0.53403 0.08878 0.0
C611 C 0.95973 0.50962 1.01339 0.0
C612 C 1.00206 0.61175 1.01088 0.0
C613 C 0.9767 0.6224 1.00054 0.0
C614 C 0.9805 0.6471 0.98431 0.0
C615 C 0.94856 0.6078 1.00645 0.0
C616 C 0.92816 0.64269 0.98008 0.0
C617 C 0.92454 0.61789 0.99643 0.0
C618 C 0.95647 0.65716 0.97412 0.0
C619 C 0.03213 0.52649 0.98345 0.0
O620 O 0.06076 0.53272 0.06388 0.0
O621 O 0.05396 0.57526 0.04588 0.0
O622 O 0.02805 0.47354 0.07815 0.0
O623 O 0.02851 0.4678 1.02912 0.0
O624 O 0.99462 0.51005 0.09435 0.0
O625 O 0.99768 0.54047 0.06264 0.0
O626 O 0.96655 0.53713 1.01469 0.0
O627 O 0.97751 0.49355 1.02296 0.0
O628 O 0.0143 0.59722 0.9911 0.0
O629 O 0.99949 0.6008 0.03773 0.0
O630 O 0.01476 0.5428 0.97566 0.0
O631 O 0.03885 0.53106 1.01089 0.0
H632 H 0.08376 0.48605 0.08271 0.0
H633 H 0.0502 0.41205 1.03131 0.0
H634 H 0.09635 0.3962 0.0361 0.0
H635 H 0.12924 0.46997 0.08869 0.0
H636 H 1.00206 0.65853 0.97935 0.0
H637 H 0.94513 0.5886 1.01888 0.0
H638 H 0.90312 0.60637 1.00177 0.0
H639 H 0.96012 0.67605 0.96116 0.0
H640 H 0.28545 0.2496 0.38938 0.0
H641 H 0.2144 0.27508 0.34397 0.0
H642 H 0.25081 0.21804 0.42035 0.0
H643 H 0.18018 0.24406 0.37493 0.0
H644 H 0.12178 0.19052 0.43896 0.0
H645 H 0.15893 0.22998 0.42424 0.0
H646 H 0.21897 0.17446 0.40586 0.0
H647 H 0.18223 0.13525 0.42151 0.0
C648 C 0.26251 0.24892 0.3864 0.0
C649 C 0.25276 0.26466 0.3639 0.0
C650 C 0.2427 0.23085 0.40413 0.0
C651 C 0.21277 0.2283 0.39981 0.0
C652 C 0.20306 0.2457 0.37907 0.0
C653 C 0.2228 0.26363 0.3613 0.0
C654 C 0.14311 0.18685 0.4324 0.0
C655 C 0.14898 0.15974 0.43099 0.0
C656 C 0.16432 0.20942 0.42381 0.0
C657 C 0.19184 0.20534 0.41374 0.0
C658 C 0.19811 0.17838 0.4138 0.0
C659 C 0.17691 0.15585 0.42231 0.0
H660 H 0.27655 0.8789 0.82916 0.0
H661 H 0.31677 0.80731 0.84136 0.0
H662 H 0.2952 0.89798 0.87686 0.0
H663 H 0.33664 0.82743 0.88901 0.0
H664 H 0.40253 0.90426 0.93211 0.0
H665 H 0.37504 0.8709 0.8975 0.0
H666 H 0.29533 0.8917 0.93315 0.0
H667 H 0.3228 0.92483 0.96828 0.0
C668 C 0.28859 0.8667 0.84235 0.0
C669 C 0.29517 0.8415 0.83114 0.0
C670 C 0.2994 0.87779 0.8698 0.0
C671 C 0.31741 0.86421 0.88661 0.0
C672 C 0.32293 0.83839 0.87633 0.0
C673 C 0.31171 0.82701 0.84897 0.0
C674 C 0.37911 0.90105 0.93338 0.0
C675 C 0.36487 0.91757 0.95257 0.0
C676 C 0.36335 0.88188 0.91353 0.0
C677 C 0.33309 0.87898 0.91242 0.0
C678 C 0.31869 0.89383 0.93329 0.0
C679 C 0.33442 0.91287 0.95326 0.0
H680 H 0.65202 0.43723 0.70695 0.0
H681 H 0.56975 0.42394 0.75465 0.0
H682 H 0.63064 0.45794 0.66526 0.0
H683 H 0.54831 0.44496 0.71292 0.0
H684 H 0.53228 0.51555 0.64869 0.0
H685 H 0.55196 0.4921 0.68947 0.0
H686 H 0.5945 0.44645 0.62392 0.0
H687 H 0.57451 0.46966 0.58306 0.0
C688 C 0.6293 0.43864 0.70856 0.0
C689 C 0.61272 0.42887 0.7344 0.0
C690 C 0.61695 0.45042 0.68447 0.0
C691 C 0.58767 0.45334 0.68553 0.0
C692 C 0.57097 0.44335 0.71127 0.0
C693 C 0.58322 0.43105 0.73516 0.0
C694 C 0.54582 0.50052 0.64286 0.0
C695 C 0.55178 0.49471 0.61234 0.0
C696 C 0.55698 0.48687 0.66637 0.0
C697 C 0.57492 0.46725 0.66024 0.0
C698 C 0.58099 0.46152 0.6297 0.0
C699 C 0.5694 0.47482 0.60616 0.0
H700 H 0.93724 0.66807 0.2018 0.0
H701 H 0.90511 0.59252 0.25009 0.0
H702 H 0.95584 0.64116 0.16158 0.0
H703 H 0.92213 0.56565 0.20928 0.0
H704 H 0.98281 0.52596 0.14911 0.0
H705 H 0.96403 0.55381 0.18792 0.0
H706 H 0.94524 0.60959 0.11985 0.0
H707 H 0.96476 0.58156 0.08087 0.0
C708 C 0.93405 0.64575 0.20398 0.0
C709 C 0.91961 0.63273 0.22965 0.0
C710 C 0.94444 0.63018 0.18053 0.0
C711 C 0.94077 0.601 0.18186 0.0
C712 C 0.92598 0.58802 0.20735 0.0
C713 C 0.91572 0.60355 0.23078 0.0
C714 C 0.97465 0.54416 0.14231 0.0
C715 C 0.97565 0.55161 0.11176 0.0
C716 C 0.96362 0.56015 0.1647 0.0
C717 C 0.9528 0.58415 0.1574 0.0
C718 C 0.95369 0.59159 0.12667 0.0
C719 C 0.96494 0.57552 0.10417 0.0
H720 H 0.44046 0.2249 0.14466 0.0
H721 H 0.38892 0.16041 0.1981 0.0
H722 H 0.46391 0.19009 0.11883 0.0
H723 H 0.41261 0.12585 0.17277 0.0
H724 H 0.43456 0.07049 0.09383 0.0
H725 H 0.41295 0.10541 0.12111 0.0
H726 H 0.49745 0.15697 0.12989 0.0
H727 H 0.51921 0.12202 0.10239 0.0
C728 C 0.43421 0.20333 0.1509 0.0
C729 C 0.41291 0.19539 0.17344 0.0
C730 C 0.44778 0.18347 0.13634 0.0
C731 C 0.44007 0.15526 0.1438 0.0
C732 C 0.41885 0.14739 0.16639 0.0
C733 C 0.40549 0.16722 0.18108 0.0
C734 C 0.44859 0.08919 0.10169 0.0
C735 C 0.4786 0.09347 0.09597 0.0
C736 C 0.4362 0.10915 0.11743 0.0
C737 C 0.45351 0.13393 0.12761 0.0
C738 C 0.48356 0.13817 0.12206 0.0
C739 C 0.49601 0.11807 0.10653 0.0
H740 H 0.18578 0.92528 0.60134 0.0
H741 H 0.1135 0.8931 0.66058 0.0
H742 H 0.15826 0.95756 0.58052 0.0
H743 H 0.08635 0.92656 0.64068 0.0
H744 H 0.11509 1.0307 0.56924 0.0
H745 H 0.1406 0.99908 0.595 0.0
H746 H 0.06288 0.93621 0.59488 0.0
H747 H 0.03722 0.96819 0.56991 0.0
C748 C 0.16392 0.92497 0.6098 0.0
C749 C 0.15176 0.90647 0.63248 0.0
C750 C 0.14832 0.94384 0.59823 0.0
C751 C 0.12023 0.94484 0.60917 0.0
C752 C 0.10791 0.92621 0.63169 0.0
C753 C 0.12353 0.90721 0.64325 0.0
C754 C 0.10343 1.01024 0.57508 0.0
C755 C 0.07435 1.00174 0.56739 0.0
C756 C 0.11804 0.99206 0.58962 0.0
C757 C 0.10387 0.96499 0.59657 0.0
C758 C 0.07436 0.95696 0.59 0.0
C759 C 0.05971 0.97521 0.57559 0.0
H760 H 0.82277 0.39223 0.92471 0.0
H761 H 0.78616 0.46652 0.93254 0.0
H762 H 0.86706 0.41626 0.94765 0.0
H763 H 0.83016 0.4906 0.95685 0.0
H764 H 0.92287 0.53364 0.97929 0.0
H765 H 0.87886 0.51115 0.95423 0.0
H766 H 0.88807 0.43269 0.99221 0.0
H767 H 0.93266 0.45499 1.0159 0.0
C768 C 0.82413 0.41375 0.93153 0.0
C769 C 0.80072 0.42733 0.92684 0.0
C770 C 0.84959 0.4276 0.94503 0.0
C771 C 0.85251 0.45551 0.95484 0.0
C772 C 0.82921 0.46928 0.94952 0.0
C773 C 0.80381 0.45545 0.93555 0.0
C774 C 0.91547 0.51158 0.98235 0.0
C775 C 0.9316 0.49621 0.99963 0.0
C776 C 0.88997 0.49859 0.96801 0.0
C777 C 0.87954 0.46981 0.9707 0.0
C778 C 0.89545 0.45467 0.98866 0.0
C779 C 0.92108 0.46757 1.00263 0.0
H780 H 0.70279 0.59733 0.3861 0.0
H781 H 0.73715 0.64137 0.46645 0.0
H782 H 0.65945 0.57686 0.41432 0.0
H783 H 0.6929 0.62278 0.49394 0.0
H784 H 0.62142 0.56833 0.54601 0.0
H785 H 0.66583 0.58473 0.51717 0.0
H786 H 0.61599 0.58353 0.4362 0.0
H787 H 0.57182 0.56567 0.46508 0.0
C788 C 0.70127 0.60275 0.40977 0.0
C789 C 0.72396 0.62116 0.42373 0.0
C790 C 0.67596 0.59125 0.42598 0.0
C791 C 0.6722 0.59796 0.45669 0.0
C792 C 0.69483 0.61651 0.47057 0.0
C793 C 0.72026 0.62771 0.45448 0.0
C794 C 0.62003 0.57133 0.52197 0.0
C795 C 0.59305 0.56572 0.5079 0.0
C796 C 0.64556 0.58107 0.50535 0.0
C797 C 0.6449 0.58598 0.47413 0.0
C798 C 0.61778 0.5798 0.46001 0.0
C799 C 0.59228 0.56963 0.47661 0.0
H800 H 0.26897 0.4069 0.15266 0.0
H801 H 0.25231 0.33502 0.09359 0.0
H802 H 0.23103 0.42607 0.12832 0.0
H803 H 0.21456 0.35433 0.06898 0.0
H804 H 0.1223 0.37815 0.07403 0.0
H805 H 0.16574 0.36136 0.08788 0.0
H806 H 0.21571 0.4442 0.07984 0.0
H807 H 0.17234 0.46106 0.06513 0.0
C808 C 0.25754 0.39547 0.13409 0.0
C809 C 0.26351 0.36943 0.1251 0.0
C810 C 0.23595 0.4065 0.12003 0.0
C811 C 0.21969 0.3916 0.09687 0.0
C812 C 0.22657 0.36616 0.08695 0.0
C813 C 0.24837 0.35524 0.10082 0.0
C814 C 0.14262 0.39273 0.0744 0.0
C815 C 0.14367 0.42103 0.06858 0.0
C816 C 0.16756 0.38307 0.08242 0.0
C817 C 0.19412 0.40148 0.08504 0.0
C818 C 0.19545 0.4296 0.07833 0.0
C819 C 0.17056 0.43924 0.07003 0.0
H820 H 0.61554 0.2427 0.9588 0.0
H821 H 0.57239 0.21259 0.87649 0.0
H822 H 0.5983 0.19809 0.98194 0.0
H823 H 0.55315 0.1688 0.90046 0.0
H824 H 0.54129 0.08264 0.9396 0.0
H825 H 0.56152 0.12692 0.91658 0.0
H826 H 0.56088 0.16747 1.00393 0.0
H827 H 0.54202 0.12269 1.02695 0.0
C828 C 0.60239 0.2267 0.94544 0.0
C829 C 0.59576 0.23179 0.91537 0.0
C830 C 0.59195 0.20094 0.95907 0.0
C831 C 0.57411 0.17922 0.9434 0.0
C832 C 0.56719 0.18444 0.91346 0.0
C833 C 0.57792 0.21007 0.8997 0.0
C834 C 0.54569 0.101 0.95392 0.0
C835 C 0.53995 0.09897 0.98516 0.0
C836 C 0.55708 0.12667 0.94063 0.0
C837 C 0.56279 0.15142 0.95803 0.0
C838 C 0.55732 0.14919 0.98948 0.0
C839 C 0.54628 0.12338 1.00283 0.0
H840 H 0.95836 0.82409 0.40565 0.0
H841 H 0.87378 0.84346 0.4252 0.0
H842 H 0.98078 0.86939 0.42684 0.0
H843 H 0.89608 0.88786 0.44697 0.0
H844 H 0.9446 0.94599 0.51909 0.0
H845 H 0.92409 0.90273 0.49341 0.0
H846 H 0.98647 0.92227 0.42046 0.0
H847 H 1.00705 0.96603 0.4462 0.0
C848 C 0.94449 0.83798 0.4141 0.0
C849 C 0.91412 0.82956 0.41411 0.0
C850 C 0.95738 0.86398 0.42636 0.0
C851 C 0.94028 0.88219 0.43916 0.0
C852 C 0.91001 0.87421 0.43803 0.0
C853 C 0.89719 0.84853 0.42555 0.0
C854 C 0.95401 0.94124 0.49754 0.0
C855 C 0.97751 0.95974 0.48477 0.0
C856 C 0.94211 0.91637 0.4827 0.0
C857 C 0.95351 0.90889 0.45473 0.0
C858 C 0.97721 0.92722 0.44201 0.0
C859 C 0.98888 0.95243 0.45669 0.0
H860 H 0.31858 0.75767 0.54501 0.0
H861 H 0.38927 0.8065 0.59366 0.0
H862 H 0.35106 0.72771 0.52538 0.0
H863 H 0.42142 0.77613 0.5751 0.0
H864 H 0.47602 0.71784 0.54094 0.0
H865 H 0.44693 0.75406 0.53647 0.0
H866 H 0.36935 0.69359 0.55442 0.0
H867 H 0.39817 0.65774 0.55882 0.0
C868 C 0.34126 0.76252 0.55072 0.0
C869 C 0.35133 0.78399 0.57135 0.0
C870 C 0.3598 0.74523 0.53971 0.0
C871 C 0.38864 0.74914 0.54923 0.0
C872 C 0.39937 0.77248 0.56725 0.0
C873 C 0.38089 0.78976 0.57817 0.0
C874 C 0.45271 0.71231 0.54353 0.0
C875 C 0.43942 0.68501 0.5506 0.0
C876 C 0.43606 0.73299 0.54083 0.0
C877 C 0.40584 0.72676 0.54521 0.0
C878 C 0.3925 0.69909 0.55037 0.0
C879 C 0.40908 0.67848 0.55304 0.0
H880 H 0.72437 0.88526 0.70943 0.0
H881 H 0.76007 0.81459 0.6771 0.0
H882 H 0.76081 0.91587 0.68055 0.0
H883 H 0.79812 0.8457 0.65014 0.0
H884 H 0.86241 0.90868 0.59875 0.0
H885 H 0.81622 0.87936 0.61252 0.0
H886 H 0.81024 0.93069 0.69189 0.0
H887 H 0.85521 0.96059 0.67731 0.0
C888 C 0.73947 0.87603 0.69561 0.0
C889 C 0.73956 0.84735 0.69629 0.0
C890 C 0.76079 0.89377 0.67941 0.0
C891 C 0.78302 0.88339 0.66391 0.0
C892 C 0.78148 0.85449 0.66204 0.0
C893 C 0.75982 0.83664 0.67786 0.0
C894 C 0.8509 0.91394 0.61884 0.0
C895 C 0.86263 0.93683 0.63711 0.0
C896 C 0.82456 0.89702 0.62684 0.0
C897 C 0.80942 0.90265 0.65326 0.0
C898 C 0.82093 0.92593 0.67108 0.0
C899 C 0.84708 0.94284 0.66303 0.0
H900 H 0.70834 0.26305 0.23682 0.0
H901 H 0.75123 0.19315 0.24856 0.0
H902 H 0.68819 0.2422 0.18961 0.0
H903 H 0.73215 0.17325 0.2013 0.0
H904 H 0.70338 0.1453 0.11026 0.0
H905 H 0.73072 0.17871 0.14522 0.0
H906 H 0.65077 0.19835 0.18163 0.0
H907 H 0.62343 0.16474 0.14718 0.0
C908 C 0.7139 0.24356 0.22919 0.0
C909 C 0.73127 0.22974 0.24676 0.0
C910 C 0.70249 0.23175 0.20208 0.0
C911 C 0.70862 0.20613 0.19182 0.0
C912 C 0.72743 0.19325 0.20835 0.0
C913 C 0.73848 0.2048 0.23554 0.0
C914 C 0.69167 0.15704 0.12544 0.0
C915 C 0.66122 0.15199 0.12633 0.0
C916 C 0.70733 0.17624 0.14532 0.0
C917 C 0.69284 0.19089 0.16631 0.0
C918 C 0.66253 0.18755 0.1655 0.0
C919 C 0.64686 0.16824 0.14574 0.0
H920 H 0.45855 0.64425 0.32192 0.0
H921 H 0.37574 0.62804 0.36851 0.0
H922 H 0.4802 0.62321 0.36346 0.0
H923 H 0.39728 0.60719 0.40992 0.0
H924 H 0.45223 0.59536 0.49259 0.0
H925 H 0.432 0.61844 0.45185 0.0
H926 H 0.47851 0.57648 0.38629 0.0
H927 H 0.49855 0.55326 0.42702 0.0
C928 C 0.44498 0.63646 0.34111 0.0
C929 C 0.41528 0.63787 0.3416 0.0
C930 C 0.45736 0.62414 0.36489 0.0
C931 C 0.44058 0.6133 0.39026 0.0
C932 C 0.41105 0.61537 0.39103 0.0
C933 C 0.3986 0.62722 0.36707 0.0
C934 C 0.45821 0.59103 0.46953 0.0
C935 C 0.47708 0.57226 0.46335 0.0
C936 C 0.44645 0.60422 0.44604 0.0
C937 C 0.45353 0.59949 0.41552 0.0
C938 C 0.47268 0.58096 0.40938 0.0
C939 C 0.48405 0.56743 0.43285 0.0
H940 H 0.14708 0.44907 0.8627 0.0
H941 H 0.06066 0.41649 0.83243 0.0
H942 H 0.12691 0.47439 0.90361 0.0
H943 H 0.04063 0.44099 0.87358 0.0
H944 H 0.01575 0.51454 0.9258 0.0
H945 H 0.03664 0.48756 0.88762 0.0
H946 H 0.09852 0.47023 0.95176 0.0
H947 H 0.07746 0.49785 0.99032 0.0
C948 C 0.1238 0.44724 0.86468 0.0
C949 C 0.10563 0.4306 0.84394 0.0
C950 C 0.11218 0.46155 0.88846 0.0
C951 C 0.08203 0.45995 0.89211 0.0
C952 C 0.06394 0.44313 0.8715 0.0
C953 C 0.07549 0.42874 0.84793 0.0
C954 C 0.03374 0.50491 0.93195 0.0
C955 C 0.04485 0.50845 0.96125 0.0
C956 C 0.04568 0.48921 0.90996 0.0
C957 C 0.06933 0.47645 0.91635 0.0
C958 C 0.0805 0.47987 0.94579 0.0
C959 C 0.06831 0.49555 0.96801 0.0
H960 H 0.57424 0.85668 0.89105 0.0
H961 H 0.6373 0.86858 0.96172 0.0
H962 H 0.55238 0.89427 0.9125 0.0
H963 H 0.61471 0.90537 0.98387 0.0
H964 H 0.59168 0.99129 0.99296 0.0
H965 H 0.6115 0.95262 0.97126 0.0
H966 H 0.52487 0.90791 0.95533 0.0
H967 H 0.505 0.94685 0.97649 0.0
C968 C 0.58323 0.86711 0.91136 0.0
C969 C 0.60763 0.85973 0.92456 0.0
C970 C 0.57056 0.88852 0.92379 0.0
C971 C 0.58199 0.90305 0.94972 0.0
C972 C 0.6057 0.89494 0.96356 0.0
C973 C 0.61838 0.87355 0.95113 0.0
C974 C 0.57684 0.97332 0.9846 0.0
C975 C 0.54676 0.97217 0.98648 0.0
C976 C 0.58821 0.95102 0.97242 0.0
C977 C 0.56977 0.92702 0.96188 0.0
C978 C 0.53968 0.92615 0.96308 0.0
C979 C 0.5283 0.94848 0.97523 0.0
H980 H 0.84808 0.15238 0.4736 0.0
H981 H 0.91905 0.18487 0.41289 0.0
H982 H 0.87556 0.11911 0.49231 0.0
H983 H 0.94609 0.15044 0.43063 0.0
H984 H 0.9961 0.10476 0.49671 0.0
H985 H 0.97066 0.13848 0.47466 0.0
H986 H 0.89152 0.07741 0.47516 0.0
H987 H 0.91683 0.04403 0.49803 0.0
C988 C 0.86967 0.15261 0.46441 0.0
C989 C 0.88142 0.17141 0.44184 0.0
C990 C 0.88523 0.13316 0.47476 0.0
C991 C 0.91286 0.13186 0.46267 0.0
C992 C 0.92488 0.15095 0.44046 0.0
C993 C 0.90931 0.17053 0.43015 0.0
C994 C 0.97333 0.09851 0.49179 0.0
C995 C 0.95828 0.07195 0.49936 0.0
C996 C 0.95879 0.11777 0.47906 0.0
C997 C 0.92898 0.11075 0.47356 0.0
C998 C 0.91434 0.08367 0.47979 0.0
C999 C 0.92884 0.06448 0.49265 0.0
H1000 H 0.24045 0.6022 0.14608 0.0
H1001 H 0.2063 0.67807 0.14893 0.0
H1002 H 0.1965 0.57837 0.12152 0.0
H1003 H 0.16222 0.65437 0.1253 0.0
H1004 H 0.09832 0.61384 0.05542 0.0
H1005 H 0.14261 0.63624 0.07985 0.0
H1006 H 0.14682 0.5598 0.12515 0.0
H1007 H 0.10313 0.53721 0.09983 0.0
C1008 C 0.22339 0.61371 0.1419 0.0
C1009 C 0.22718 0.64218 0.14933 0.0
C1010 C 0.19804 0.60003 0.12776 0.0
C1011 C 0.17553 0.61433 0.12086 0.0
C1012 C 0.17911 0.64262 0.12926 0.0
C1013 C 0.20448 0.65628 0.14309 0.0
C1014 C 0.10871 0.60173 0.07049 0.0
C1015 C 0.0969 0.5736 0.07548 0.0
C1016 C 0.13416 0.6147 0.08482 0.0
C1017 C 0.1486 0.60009 0.10491 0.0
C1018 C 0.13684 0.57186 0.10967 0.0
C1019 C 0.1115 0.55884 0.09516 0.0
H1020 H 0.29117 0.48645 0.63993 0.0
H1021 H 0.32754 0.41485 0.66194 0.0
H1022 H 0.33576 0.5057 0.61164 0.0
H1023 H 0.37239 0.43446 0.63448 0.0
H1024 H 0.45819 0.49715 0.61014 0.0
H1025 H 0.41381 0.48037 0.63974 0.0
H1026 H 0.3625 0.48836 0.56209 0.0
H1027 H 0.4069 0.50425 0.53219 0.0
C1028 C 0.3088 0.47497 0.63896 0.0
C1029 C 0.30582 0.44912 0.65316 0.0
C1030 C 0.33426 0.48593 0.62267 0.0
C1031 C 0.35764 0.47164 0.62089 0.0
C1032 C 0.35485 0.44605 0.63559 0.0
C1033 C 0.32914 0.43477 0.65119 0.0
C1034 C 0.43743 0.4955 0.59944 0.0
C1035 C 0.43607 0.50199 0.56878 0.0
C1036 C 0.41204 0.48577 0.61636 0.0
C1037 C 0.38463 0.483 0.60325 0.0
C1038 C 0.38326 0.49038 0.57287 0.0
C1039 C 0.40867 0.49942 0.55574 0.0
H1040 H 0.79327 0.73749 0.93936 0.0
H1041 H 0.7879 0.67346 0.87043 0.0
H1042 H 0.82934 0.71708 0.96532 0.0
H1043 H 0.82491 0.65395 0.89541 0.0
H1044 H 0.87815 0.61259 0.95701 0.0
H1045 H 0.83666 0.62982 0.93814 0.0
H1046 H 0.87929 0.71396 0.95752 0.0
H1047 H 0.92007 0.69664 0.97798 0.0
C1048 C 0.7995 0.71887 0.92994 0.0
C1049 C 0.78785 0.70725 0.90267 0.0
C1050 C 0.82049 0.70738 0.94459 0.0
C1051 C 0.83033 0.68404 0.93231 0.0
C1052 C 0.81777 0.67179 0.9057 0.0
C1053 C 0.79674 0.68319 0.89115 0.0
C1054 C 0.87849 0.63474 0.95777 0.0
C1055 C 0.90256 0.65321 0.96898 0.0
C1056 C 0.85479 0.64465 0.9466 0.0
C1057 C 0.8546 0.67331 0.94617 0.0
C1058 C 0.87848 0.69175 0.95781 0.0
C1059 C 0.90212 0.68183 0.96912 0.0
H1060 H 0.41243 0.82605 0.11954 0.0
H1061 H 0.45565 0.85575 0.20195 0.0
H1062 H 0.42938 0.87084 0.09677 0.0
H1063 H 0.47467 0.89975 0.17828 0.0
H1064 H 0.48603 0.98616 0.13962 0.0
H1065 H 0.46613 0.94171 0.1625 0.0
H1066 H 0.46655 0.90159 0.07489 0.0
H1067 H 0.485 0.94649 0.05205 0.0
C1068 C 0.42554 0.84201 0.13301 0.0
C1069 C 0.43226 0.83675 0.163 0.0
C1070 C 0.43582 0.86787 0.11957 0.0
C1071 C 0.45362 0.88953 0.13536 0.0
C1072 C 0.46066 0.88415 0.16521 0.0
C1073 C 0.45007 0.85841 0.17879 0.0
C1074 C 0.48164 0.96785 0.12523 0.0
C1075 C 0.48716 0.97002 0.09397 0.0
C1076 C 0.47045 0.94209 0.13843 0.0
C1077 C 0.46476 0.91742 0.12089 0.0
C1078 C 0.47007 0.9198 0.08943 0.0
C1079 C 0.48088 0.94568 0.07619 0.0
H1080 H 0.07363 0.24441 0.66475 0.0
H1081 H 0.15844 0.22685 0.64223 0.0
H1082 H 0.05152 0.19956 0.64237 0.0
H1083 H 0.13634 0.18305 0.61901 0.0
H1084 H 0.08579 0.12699 0.54564 0.0
H1085 H 0.10634 0.16982 0.57227 0.0
H1086 H 0.04814 0.14605 0.64783 0.0
H1087 H 0.0277 0.1027 0.62127 0.0
C1088 C 0.08764 0.23105 0.65537 0.0
C1089 C 0.11797 0.23986 0.65495 0.0
C1090 C 0.0749 0.20532 0.6424 0.0
C1091 C 0.09212 0.18783 0.62839 0.0
C1092 C 0.12235 0.19619 0.62895 0.0
C1093 C 0.13504 0.22155 0.64222 0.0
C1094 C 0.07735 0.13073 0.56797 0.0
C1095 C 0.0551 0.11118 0.58128 0.0
C1096 C 0.08924 0.15533 0.58332 0.0
C1097 C 0.07897 0.16146 0.61227 0.0
C1098 C 0.05648 0.14209 0.62552 0.0
C1099 C 0.04491 0.11714 0.61036 0.0
H1100 H 0.70455 0.31838 0.52475 0.0
H1101 H 0.63992 0.25088 0.49213 0.0
H1102 H 0.66652 0.34367 0.54076 0.0
H1103 H 0.6017 0.27566 0.50889 0.0
H1104 H 0.59249 0.38591 0.5653 0.0
H1105 H 0.6225 0.35034 0.56914 0.0
H1106 H 0.59131 0.31585 0.48312 0.0
H1107 H 0.56203 0.35123 0.47904 0.0
C1108 C 0.68212 0.30846 0.52233 0.0
C1109 C 0.67502 0.28298 0.5069 0.0
C1110 C 0.6603 0.32288 0.53151 0.0
C1111 C 0.63113 0.3119 0.52546 0.0
C1112 C 0.62402 0.2849 0.51323 0.0
C1113 C 0.64581 0.27065 0.50382 0.0
C1114 C 0.59185 0.37051 0.54739 0.0
C1115 C 0.57504 0.37161 0.52171 0.0
C1116 C 0.60892 0.35009 0.54969 0.0
C1117 C 0.6093 0.33027 0.52647 0.0
C1118 C 0.59114 0.33042 0.50174 0.0
C1119 C 0.57428 0.35084 0.49936 0.0
loop_
_geom_bond_atom_site_label_1
_geom_bond_atom_site_label_2
_geom_bond_distance
_geom_bond_site_symmetry_2
_ccdc_geom_bond_type
C0 C1 1.391 . S
C0 C4 1.391 . S
C0 H42 0.948 . S
C1 C0 1.391 . S
C1 C2 1.391 . S
C2 C1 1.391 . S
C2 H58 0.947 . S
C2 C59 1.392 . S
C3 C4 1.391 . S
C3 C7 1.397 . S
C3 C59 1.419 . S
C4 C0 1.391 . S
C4 C3 1.391 . S
C4 C5 1.399 . S
C5 C4 1.399 . S
C5 C8 1.396 . S
C5 C17 1.453 . S
C5 C18 1.684 . S
H6 C30 0.948 . S
C7 C3 1.397 . S
C7 C8 1.394 . S
C7 C26 1.723 . S
C8 C5 1.396 . S
C8 C7 1.394 . S
C8 C38 1.723 . S
H9 C32 0.947 . S
H10 C33 0.948 . S
H11 C39 0.982 . S
H12 C40 0.979 . S
H13 C40 0.980 . S
H14 C40 0.983 . S
H15 C39 0.979 . S
H16 C39 0.977 . S
C17 C5 1.453 . S
C17 H46 0.982 . S
C17 H47 0.979 . S
C17 H48 0.977 . S
C18 C5 1.684 . S
C18 H43 0.979 . S
C18 H44 0.980 . S
C18 H45 0.983 . S
C19 C20 1.391 . S
C19 C24 1.391 . S
C19 H49 0.948 . S
C20 C19 1.391 . S
C20 C21 1.391 . S
C21 C20 1.391 . S
C21 C22 1.392 . S
C21 H50 0.947 . S
C22 C21 1.392 . S
C22 C23 1.419 . S
C22 H51 0.948 . S
C23 C22 1.419 . S
C23 C24 1.391 . S
C23 C27 1.397 . S
C24 C19 1.391 . S
C24 C23 1.391 . S
C24 C25 1.399 . S
C25 C24 1.399 . S
C25 C26 1.396 . S
C25 C28 1.453 . S
C25 C29 1.684 . S
C26 C7 1.723 . S
C26 C25 1.396 . S
C26 C27 1.394 . S
C27 C23 1.397 . S
C27 C26 1.394 . S
C27 C37 1.723 . S
C28 C25 1.453 . S
C28 H52 0.982 . S
C28 H53 0.979 . S
C28 H54 0.977 . S
C29 C25 1.684 . S
C29 H55 0.979 . S
C29 H56 0.980 . S
C29 H57 0.983 . S
C30 H6 0.948 . S
C30 C31 1.391 . S
C30 C35 1.391 . S
C31 C30 1.391 . S
C31 C32 1.391 . S
C32 H9 0.947 . S
C32 C31 1.391 . S
C32 C33 1.392 . S
C33 H10 0.948 . S
C33 C32 1.392 . S
C33 C34 1.419 . S
C34 C33 1.419 . S
C34 C35 1.391 . S
C34 C38 1.397 . S
C35 C30 1.391 . S
C35 C34 1.391 . S
C35 C36 1.399 . S
C36 C35 1.399 . S
C36 C37 1.396 . S
C36 C39 1.453 . S
C36 C40 1.684 . S
C37 C27 1.723 . S
C37 C36 1.396 . S
C37 C38 1.394 . S
C38 C8 1.723 . S
C38 C34 1.397 . S
C38 C37 1.394 . S
C39 H11 0.982 . S
C39 H15 0.979 . S
C39 H16 0.977 . S
C39 C36 1.453 . S
C40 H12 0.979 . S
C40 H13 0.980 . S
C40 H14 0.983 . S
C40 C36 1.684 . S
H41 C59 0.948 . S
H42 C0 0.948 . S
H43 C18 0.979 . S
H44 C18 0.980 . S
H45 C18 0.983 . S
H46 C17 0.982 . S
H47 C17 0.979 . S
H48 C17 0.977 . S
H49 C19 0.948 . S
H50 C21 0.947 . S
H51 C22 0.948 . S
H52 C28 0.982 . S
H53 C28 0.979 . S
H54 C28 0.977 . S
H55 C29 0.979 . S
H56 C29 0.980 . S
H57 C29 0.983 . S
H58 C2 0.947 . S
C59 C2 1.392 . S
C59 C3 1.419 . S
C59 H41 0.948 . S
C60 C61 1.391 . S
C60 C64 1.391 . S
C60 H102 0.948 . S
C61 C60 1.391 . S
C61 C62 1.391 . S
C62 C61 1.391 . S
C62 H118 0.947 . S
C62 C119 1.392 . S
C63 C64 1.391 . S
C63 C67 1.397 . S
C63 C119 1.419 . S
C64 C60 1.391 . S
C64 C63 1.391 . S
C64 C65 1.399 . S
C65 C64 1.399 . S
C65 C68 1.396 . S
C65 C77 1.453 . S
C65 C78 1.684 . S
H66 C90 0.948 . S
C67 C63 1.397 . S
C67 C68 1.394 . S
C67 C86 1.723 . S
C68 C65 1.396 . S
C68 C67 1.394 . S
C68 C98 1.723 . S
H69 C92 0.947 . S
H70 C93 0.948 . S
H71 C99 0.982 . S
H72 C100 0.979 . S
H73 C100 0.980 . S
H74 C100 0.983 . S
H75 C99 0.979 . S
H76 C99 0.977 . S
C77 C65 1.453 . S
C77 H106 0.982 . S
C77 H107 0.979 . S
C77 H108 0.977 . S
C78 C65 1.684 . S
C78 H103 0.979 . S
C78 H104 0.980 . S
C78 H105 0.983 . S
C79 C80 1.391 . S
C79 C84 1.391 . S
C79 H109 0.948 . S
C80 C79 1.391 . S
C80 C81 1.391 . S
C81 C80 1.391 . S
C81 C82 1.392 . S
C81 H110 0.947 . S
C82 C81 1.392 . S
C82 C83 1.419 . S
C82 H111 0.948 . S
C83 C82 1.419 . S
C83 C84 1.391 . S
C83 C87 1.397 . S
C84 C79 1.391 . S
C84 C83 1.391 . S
C84 C85 1.399 . S
C85 C84 1.399 . S
C85 C86 1.396 . S
C85 C88 1.453 . S
C85 C89 1.684 . S
C86 C67 1.723 . S
C86 C85 1.396 . S
C86 C87 1.394 . S
C87 C83 1.397 . S
C87 C86 1.394 . S
C87 C97 1.723 . S
C88 C85 1.453 . S
C88 H112 0.982 . S
C88 H113 0.979 . S
C88 H114 0.977 . S
C89 C85 1.684 . S
C89 H115 0.979 . S
C89 H116 0.980 . S
C89 H117 0.983 . S
C90 H66 0.948 . S
C90 C91 1.391 . S
C90 C95 1.391 . S
C91 C90 1.391 . S
C91 C92 1.391 . S
C92 H69 0.947 . S
C92 C91 1.391 . S
C92 C93 1.392 . S
C93 H70 0.948 . S
C93 C92 1.392 . S
C93 C94 1.419 . S
C94 C93 1.419 . S
C94 C95 1.391 . S
C94 C98 1.397 . S
C95 C90 1.391 . S
C95 C94 1.391 . S
C95 C96 1.399 . S
C96 C95 1.399 . S
C96 C97 1.396 . S
C96 C99 1.453 . S
C96 C100 1.684 . S
C97 C87 1.723 . S
C97 C96 1.396 . S
C97 C98 1.394 . S
C98 C68 1.723 . S
C98 C94 1.397 . S
C98 C97 1.394 . S
C99 H71 0.982 . S
C99 H75 0.979 . S
C99 H76 0.977 . S
C99 C96 1.453 . S
C100 H72 0.979 . S
C100 H73 0.980 . S
C100 H74 0.983 . S
C100 C96 1.684 . S
H101 C119 0.948 . S
H102 C60 0.948 . S
H103 C78 0.979 . S
H104 C78 0.980 . S
H105 C78 0.983 . S
H106 C77 0.982 . S
H107 C77 0.979 . S
H108 C77 0.977 . S
H109 C79 0.948 . S
H110 C81 0.947 . S
H111 C82 0.948 . S
H112 C88 0.982 . S
H113 C88 0.979 . S
H114 C88 0.977 . S
H115 C89 0.979 . S
H116 C89 0.980 . S
H117 C89 0.983 . S
H118 C62 0.947 . S
C119 C62 1.392 . S
C119 C63 1.419 . S
C119 H101 0.948 . S
C120 C121 1.391 . S
C120 C124 1.391 . S
C120 H162 0.948 . S
C121 C120 1.391 . S
C121 C122 1.391 . S
C122 C121 1.391 . S
C122 H178 0.947 . S
C122 C179 1.392 . S
C123 C124 1.391 . S
C123 C127 1.397 . S
C123 C179 1.419 . S
C124 C120 1.391 . S
C124 C123 1.391 . S
C124 C125 1.399 . S
C125 C124 1.399 . S
C125 C128 1.396 . S
C125 C137 1.453 . S
C125 C138 1.684 . S
H126 C150 0.948 . S
C127 C123 1.397 . S
C127 C128 1.394 . S
C127 C146 1.723 . S
C128 C125 1.396 . S
C128 C127 1.394 . S
C128 C158 1.723 . S
H129 C152 0.947 . S
H130 C153 0.948 . S
H131 C159 0.982 . S
H132 C160 0.979 . S
H133 C160 0.980 . S
H134 C160 0.983 . S
H135 C159 0.979 . S
H136 C159 0.977 . S
C137 C125 1.453 . S
C137 H166 0.982 . S
C137 H167 0.979 . S
C137 H168 0.977 . S
C138 C125 1.684 . S
C138 H163 0.979 . S
C138 H164 0.980 . S
C138 H165 0.983 . S
C139 C140 1.391 . S
C139 C144 1.391 . S
C139 H169 0.948 . S
C140 C139 1.391 . S
C140 C141 1.391 . S
C141 C140 1.391 . S
C141 C142 1.392 . S
C141 H170 0.947 . S
C142 C141 1.392 . S
C142 C143 1.419 . S
C142 H171 0.948 . S
C143 C142 1.419 . S
C143 C144 1.391 . S
C143 C147 1.397 . S
C144 C139 1.391 . S
C144 C143 1.391 . S
C144 C145 1.399 . S
C145 C144 1.399 . S
C145 C146 1.396 . S
C145 C148 1.453 . S
C145 C149 1.684 . S
C146 C127 1.723 . S
C146 C145 1.396 . S
C146 C147 1.394 . S
C147 C143 1.397 . S
C147 C146 1.394 . S
C147 C157 1.723 . S
C148 C145 1.453 . S
C148 H172 0.982 . S
C148 H173 0.979 . S
C148 H174 0.977 . S
C149 C145 1.684 . S
C149 H175 0.979 . S
C149 H176 0.980 . S
C149 H177 0.983 . S
C150 H126 0.948 . S
C150 C151 1.391 . S
C150 C155 1.391 . S
C151 C150 1.391 . S
C151 C152 1.391 . S
C152 H129 0.947 . S
C152 C151 1.391 . S
C152 C153 1.392 . S
C153 H130 0.948 . S
C153 C152 1.392 . S
C153 C154 1.419 . S
C154 C153 1.419 . S
C154 C155 1.391 . S
C154 C158 1.397 . S
C155 C150 1.391 . S
C155 C154 1.391 . S
C155 C156 1.399 . S
C156 C155 1.399 . S
C156 C157 1.396 . S
C156 C159 1.453 . S
C156 C160 1.684 . S
C157 C147 1.723 . S
C157 C156 1.396 . S
C157 C158 1.394 . S
C158 C128 1.723 . S
C158 C154 1.397 . S
C158 C157 1.394 . S
C159 H131 0.982 . S
C159 H135 0.979 . S
C159 H136 0.977 . S
C159 C156 1.453 . S
C160 H132 0.979 . S
C160 H133 0.980 . S
C160 H134 0.983 . S
C160 C156 1.684 . S
H161 C179 0.948 . S
H162 C120 0.948 . S
H163 C138 0.979 . S
H164 C138 0.980 . S
H165 C138 0.983 . S
H166 C137 0.982 . S
H167 C137 0.979 . S
H168 C137 0.977 . S
H169 C139 0.948 . S
H170 C141 0.947 . S
H171 C142 0.948 . S
H172 C148 0.982 . S
H173 C148 0.979 . S
H174 C148 0.977 . S
H175 C149 0.979 . S
H176 C149 0.980 . S
H177 C149 0.983 . S
H178 C122 0.947 . S
C179 C122 1.392 . S
C179 C123 1.419 . S
C179 H161 0.948 . S
C180 C181 1.391 . S
C180 C184 1.391 . S
C180 H222 0.948 . S
C181 C180 1.391 . S
C181 C182 1.391 . S
C182 C181 1.391 . S
C182 H238 0.947 . S
C182 C239 1.392 . S
C183 C184 1.391 . S
C183 C187 1.397 . S
C183 C239 1.419 . S
C184 C180 1.391 . S
C184 C183 1.391 . S
C184 C185 1.399 . S
C185 C184 1.399 . S
C185 C188 1.396 . S
C185 C197 1.453 . S
C185 C198 1.684 . S
H186 C210 0.948 . S
C187 C183 1.397 . S
C187 C188 1.394 . S
C187 C206 1.723 . S
C188 C185 1.396 . S
C188 C187 1.394 . S
C188 C218 1.723 . S
H189 C212 0.947 . S
H190 C213 0.948 . S
H191 C219 0.982 . S
H192 C220 0.979 . S
H193 C220 0.980 . S
H194 C220 0.983 . S
H195 C219 0.979 . S
H196 C219 0.977 . S
C197 C185 1.453 . S
C197 H226 0.982 . S
C197 H227 0.979 . S
C197 H228 0.977 . S
C198 C185 1.684 . S
C198 H223 0.979 . S
C198 H224 0.980 . S
C198 H225 0.983 . S
C199 C200 1.391 . S
C199 C204 1.391 . S
C199 H229 0.948 . S
C200 C199 1.391 . S
C200 C201 1.391 . S
C201 C200 1.391 . S
C201 C202 1.392 . S
C201 H230 0.947 . S
C202 C201 1.392 . S
C202 C203 1.419 . S
C202 H231 0.948 . S
C203 C202 1.419 . S
C203 C204 1.391 . S
C203 C207 1.397 . S
C204 C199 1.391 . S
C204 C203 1.391 . S
C204 C205 1.399 . S
C205 C204 1.399 . S
C205 C206 1.396 . S
C205 C208 1.453 . S
C205 C209 1.684 . S
C206 C187 1.723 . S
C206 C205 1.396 . S
C206 C207 1.394 . S
C207 C203 1.397 . S
C207 C206 1.394 . S
C207 C217 1.723 . S
C208 C205 1.453 . S
C208 H232 0.982 . S
C208 H233 0.979 . S
C208 H234 0.977 . S
C209 C205 1.684 . S
C209 H235 0.979 . S
C209 H236 0.980 . S
C209 H237 0.983 . S
C210 H186 0.948 . S
C210 C211 1.391 . S
C210 C215 1.391 . S
C211 C210 1.391 . S
C211 C212 1.391 . S
C212 H189 0.947 . S
C212 C211 1.391 . S
C212 C213 1.392 . S
C213 H190 0.948 . S
C213 C212 1.392 . S
C213 C214 1.419 . S
C214 C213 1.419 . S
C214 C215 1.391 . S
C214 C218 1.397 . S
C215 C210 1.391 . S
C215 C214 1.391 . S
C215 C216 1.399 . S
C216 C215 1.399 . S
C216 C217 1.396 . S
C216 C219 1.453 . S
C216 C220 1.684 . S
C217 C207 1.723 . S
C217 C216 1.396 . S
C217 C218 1.394 . S
C218 C188 1.723 . S
C218 C214 1.397 . S
C218 C217 1.394 . S
C219 H191 0.982 . S
C219 H195 0.979 . S
C219 H196 0.977 . S
C219 C216 1.453 . S
C220 H192 0.979 . S
C220 H193 0.980 . S
C220 H194 0.983 . S
C220 C216 1.684 . S
H221 C239 0.948 . S
H222 C180 0.948 . S
H223 C198 0.979 . S
H224 C198 0.980 . S
H225 C198 0.983 . S
H226 C197 0.982 . S
H227 C197 0.979 . S
H228 C197 0.977 . S
H229 C199 0.948 . S
H230 C201 0.947 . S
H231 C202 0.948 . S
H232 C208 0.982 . S
H233 C208 0.979 . S
H234 C208 0.977 . S
H235 C209 0.979 . S
H236 C209 0.980 . S
H237 C209 0.983 . S
H238 C182 0.947 . S
C239 C182 1.392 . S
C239 C183 1.419 . S
C239 H221 0.948 . S
C240 C241 1.391 . S
C240 C244 1.391 . S
C240 H282 0.948 . S
C241 C240 1.391 . S
C241 C242 1.391 . S
C242 C241 1.391 . S
C242 H298 0.947 . S
C242 C299 1.392 . S
C243 C244 1.391 . S
C243 C247 1.397 . S
C243 C299 1.419 . S
C244 C240 1.391 . S
C244 C243 1.391 . S
C244 C245 1.399 . S
C245 C244 1.399 . S
C245 C248 1.396 . S
C245 C257 1.453 . S
C245 C258 1.684 . S
H246 C270 0.948 . S
C247 C243 1.397 . S
C247 C248 1.394 . S
C247 C266 1.723 . S
C248 C245 1.396 . S
C248 C247 1.394 . S
C248 C278 1.723 . S
H249 C272 0.947 . S
H250 C273 0.948 . S
H251 C279 0.982 . S
H252 C280 0.979 . S
H253 C280 0.980 . S
H254 C280 0.983 . S
H255 C279 0.979 . S
H256 C279 0.977 . S
C257 C245 1.453 . S
C257 H286 0.982 . S
C257 H287 0.979 . S
C257 H288 0.977 . S
C258 C245 1.684 . S
C258 H283 0.979 . S
C258 H284 0.980 . S
C258 H285 0.983 . S
C259 C260 1.391 . S
C259 C264 1.391 . S
C259 H289 0.948 . S
C260 C259 1.391 . S
C260 C261 1.391 . S
C261 C260 1.391 . S
C261 C262 1.392 . S
C261 H290 0.947 . S
C262 C261 1.392 . S
C262 C263 1.419 . S
C262 H291 0.948 . S
C263 C262 1.419 . S
C263 C264 1.391 . S
C263 C267 1.397 . S
C264 C259 1.391 . S
C264 C263 1.391 . S
C264 C265 1.399 . S
C265 C264 1.399 . S
C265 C266 1.396 . S
C265 C268 1.453 . S
C265 C269 1.684 . S
C266 C247 1.723 . S
C266 C265 1.396 . S
C266 C267 1.394 . S
C267 C263 1.397 . S
C267 C266 1.394 . S
C267 C277 1.723 . S
C268 C265 1.453 . S
C268 H292 0.982 . S
C268 H293 0.979 . S
C268 H294 0.977 . S
C269 C265 1.684 . S
C269 H295 0.979 . S
C269 H296 0.980 . S
C269 H297 0.983 . S
C270 H246 0.948 . S
C270 C271 1.391 . S
C270 C275 1.391 . S
C271 C270 1.391 . S
C271 C272 1.391 . S
C272 H249 0.947 . S
C272 C271 1.391 . S
C272 C273 1.392 . S
C273 H250 0.948 . S
C273 C272 1.392 . S
C273 C274 1.419 . S
C274 C273 1.419 . S
C274 C275 1.391 . S
C274 C278 1.397 . S
C275 C270 1.391 . S
C275 C274 1.391 . S
C275 C276 1.399 . S
C276 C275 1.399 . S
C276 C277 1.396 . S
C276 C279 1.453 . S
C276 C280 1.684 . S
C277 C267 1.723 . S
C277 C276 1.396 . S
C277 C278 1.394 . S
C278 C248 1.723 . S
C278 C274 1.397 . S
C278 C277 1.394 . S
C279 H251 0.982 . S
C279 H255 0.979 . S
C279 H256 0.977 . S
C279 C276 1.453 . S
C280 H252 0.979 . S
C280 H253 0.980 . S
C280 H254 0.983 . S
C280 C276 1.684 . S
H281 C299 0.948 . S
H282 C240 0.948 . S
H283 C258 0.979 . S
H284 C258 0.980 . S
H285 C258 0.983 . S
H286 C257 0.982 . S
H287 C257 0.979 . S
H288 C257 0.977 . S
H289 C259 0.948 . S
H290 C261 0.947 . S
H291 C262 0.948 . S
H292 C268 0.982 . S
H293 C268 0.979 . S
H294 C268 0.977 . S
H295 C269 0.979 . S
H296 C269 0.980 . S
H297 C269 0.983 . S
H298 C242 0.947 . S
C299 C242 1.392 . S
C299 C243 1.419 . S
C299 H281 0.948 . S
C300 C301 1.391 . S
C300 C304 1.391 . S
C300 H342 0.948 . S
C301 C300 1.391 . S
C301 C302 1.391 . S
C302 C301 1.391 . S
C302 H358 0.947 . S
C302 C359 1.392 . S
C303 C304 1.391 . S
C303 C307 1.397 . S
C303 C359 1.419 . S
C304 C300 1.391 . S
C304 C303 1.391 . S
C304 C305 1.399 . S
C305 C304 1.399 . S
C305 C308 1.396 . S
C305 C317 1.453 . S
C305 C318 1.684 . S
H306 C330 0.948 . S
C307 C303 1.397 . S
C307 C308 1.394 . S
C307 C326 1.723 . S
C308 C305 1.396 . S
C308 C307 1.394 . S
C308 C338 1.723 . S
H309 C332 0.947 . S
H310 C333 0.948 . S
H311 C339 0.982 . S
H312 C340 0.979 . S
H313 C340 0.980 . S
H314 C340 0.983 . S
H315 C339 0.979 . S
H316 C339 0.977 . S
C317 C305 1.453 . S
C317 H346 0.982 . S
C317 H347 0.979 . S
C317 H348 0.977 . S
C318 C305 1.684 . S
C318 H343 0.979 . S
C318 H344 0.980 . S
C318 H345 0.983 . S
C319 C320 1.391 . S
C319 C324 1.391 . S
C319 H349 0.948 . S
C320 C319 1.391 . S
C320 C321 1.391 . S
C321 C320 1.391 . S
C321 C322 1.392 . S
C321 H350 0.947 . S
C322 C321 1.392 . S
C322 C323 1.419 . S
C322 H351 0.948 . S
C323 C322 1.419 . S
C323 C324 1.391 . S
C323 C327 1.397 . S
C324 C319 1.391 . S
C324 C323 1.391 . S
C324 C325 1.399 . S
C325 C324 1.399 . S
C325 C326 1.396 . S
C325 C328 1.453 . S
C325 C329 1.684 . S
C326 C307 1.723 . S
C326 C325 1.396 . S
C326 C327 1.394 . S
C327 C323 1.397 . S
C327 C326 1.394 . S
C327 C337 1.723 . S
C328 C325 1.453 . S
C328 H352 0.982 . S
C328 H353 0.979 . S
C328 H354 0.977 . S
C329 C325 1.684 . S
C329 H355 0.979 . S
C329 H356 0.980 . S
C329 H357 0.983 . S
C330 H306 0.948 . S
C330 C331 1.391 . S
C330 C335 1.391 . S
C331 C330 1.391 . S
C331 C332 1.391 . S
C332 H309 0.947 . S
C332 C331 1.391 . S
C332 C333 1.392 . S
C333 H310 0.948 . S
C333 C332 1.392 . S
C333 C334 1.419 . S
C334 C333 1.419 . S
C334 C335 1.391 . S
C334 C338 1.397 . S
C335 C330 1.391 . S
C335 C334 1.391 . S
C335 C336 1.399 . S
C336 C335 1.399 . S
C336 C337 1.396 . S
C336 C339 1.453 . S
C336 C340 1.684 . S
C337 C327 1.723 . S
C337 C336 1.396 . S
C337 C338 1.394 . S
C338 C308 1.723 . S
C338 C334 1.397 . S
C338 C337 1.394 . S
C339 H311 0.982 . S
C339 H315 0.979 . S
C339 H316 0.977 . S
C339 C336 1.453 . S
C340 H312 0.979 . S
C340 H313 0.980 . S
C340 H314 0.983 . S
C340 C336 1.684 . S
H341 C359 0.948 . S
H342 C300 0.948 . S
H343 C318 0.979 . S
H344 C318 0.980 . S
H345 C318 0.983 . S
H346 C317 0.982 . S
H347 C317 0.979 . S
H348 C317 0.977 . S
H349 C319 0.948 . S
H350 C321 0.947 . S
H351 C322 0.948 . S
H352 C328 0.982 . S
H353 C328 0.979 . S
H354 C328 0.977 . S
H355 C329 0.979 . S
H356 C329 0.980 . S
H357 C329 0.983 . S
H358 C302 0.947 . S
C359 C302 1.392 . S
C359 C303 1.419 . S
C359 H341 0.948 . S
C360 C361 1.391 . S
C360 C364 1.391 . S
C360 H402 0.948 . S
C361 C360 1.391 . S
C361 C362 1.391 . S
C362 C361 1.391 . S
C362 H418 0.947 . S
C362 C419 1.392 . S
C363 C364 1.391 . S
C363 C367 1.397 . S
C363 C419 1.419 . S
C364 C360 1.391 . S
C364 C363 1.391 . S
C364 C365 1.399 . S
C365 C364 1.399 . S
C365 C368 1.396 . S
C365 C377 1.453 . S
C365 C378 1.684 . S
H366 C390 0.948 . S
C367 C363 1.397 . S
C367 C368 1.394 . S
C367 C386 1.723 . S
C368 C365 1.396 . S
C368 C367 1.394 . S
C368 C398 1.723 . S
H369 C392 0.947 . S
H370 C393 0.948 . S
H371 C399 0.982 . S
H372 C400 0.979 . S
H373 C400 0.980 . S
H374 C400 0.983 . S
H375 C399 0.979 . S
H376 C399 0.977 . S
C377 C365 1.453 . S
C377 H406 0.982 . S
C377 H407 0.979 . S
C377 H408 0.977 . S
C378 C365 1.684 . S
C378 H403 0.979 . S
C378 H404 0.980 . S
C378 H405 0.983 . S
C379 C380 1.391 . S
C379 C384 1.391 . S
C379 H409 0.948 . S
C380 C379 1.391 . S
C380 C381 1.391 . S
C381 C380 1.391 . S
C381 C382 1.392 . S
C381 H410 0.947 . S
C382 C381 1.392 . S
C382 C383 1.419 . S
C382 H411 0.948 . S
C383 C382 1.419 . S
C383 C384 1.391 . S
C383 C387 1.397 . S
C384 C379 1.391 . S
C384 C383 1.391 . S
C384 C385 1.399 . S
C385 C384 1.399 . S
C385 C386 1.396 . S
C385 C388 1.453 . S
C385 C389 1.684 . S
C386 C367 1.723 . S
C386 C385 1.396 . S
C386 C387 1.394 . S
C387 C383 1.397 . S
C387 C386 1.394 . S
C387 C397 1.723 . S
C388 C385 1.453 . S
C388 H412 0.982 . S
C388 H413 0.979 . S
C388 H414 0.977 . S
C389 C385 1.684 . S
C389 H415 0.979 . S
C389 H416 0.980 . S
C389 H417 0.983 . S
C390 H366 0.948 . S
C390 C391 1.391 . S
C390 C395 1.391 . S
C391 C390 1.391 . S
C391 C392 1.391 . S
C392 H369 0.947 . S
C392 C391 1.391 . S
C392 C393 1.392 . S
C393 H370 0.948 . S
C393 C392 1.392 . S
C393 C394 1.419 . S
C394 C393 1.419 . S
C394 C395 1.391 . S
C394 C398 1.397 . S
C395 C390 1.391 . S
C395 C394 1.391 . S
C395 C396 1.399 . S
C396 C395 1.399 . S
C396 C397 1.396 . S
C396 C399 1.453 . S
C396 C400 1.684 . S
C397 C387 1.723 . S
C397 C396 1.396 . S
C397 C398 1.394 . S
C398 C368 1.723 . S
C398 C394 1.397 . S
C398 C397 1.394 . S
C399 H371 0.982 . S
C399 H375 0.979 . S
C399 H376 0.977 . S
C399 C396 1.453 . S
C400 H372 0.979 . S
C400 H373 0.980 . S
C400 H374 0.983 . S
C400 C396 1.684 . S
H401 C419 0.948 . S
H402 C360 0.948 . S
H403 C378 0.979 . S
H404 C378 0.980 . S
H405 C378 0.983 . S
H406 C377 0.982 . S
H407 C377 0.979 . S
H408 C377 0.977 . S
H409 C379 0.948 . S
H410 C381 0.947 . S
H411 C382 0.948 . S
H412 C388 0.982 . S
H413 C388 0.979 . S
H414 C388 0.977 . S
H415 C389 0.979 . S
H416 C389 0.980 . S
H417 C389 0.983 . S
H418 C362 0.947 . S
C419 C362 1.392 . S
C419 C363 1.419 . S
C419 H401 0.948 . S
C420 C421 1.391 . S
C420 C424 1.391 . S
C420 H462 0.948 . S
C421 C420 1.391 . S
C421 C422 1.391 . S
C422 C421 1.391 . S
C422 H478 0.947 . S
C422 C479 1.392 . S
C423 C424 1.391 . S
C423 C427 1.397 . S
C423 C479 1.419 . S
C424 C420 1.391 . S
C424 C423 1.391 . S
C424 C425 1.399 . S
C425 C424 1.399 . S
C425 C428 1.396 . S
C425 C437 1.453 . S
C425 C438 1.684 . S
H426 C450 0.948 . S
C427 C423 1.397 . S
C427 C428 1.394 . S
C427 C446 1.723 . S
C428 C425 1.396 . S
C428 C427 1.394 . S
C428 C458 1.723 . S
H429 C452 0.947 . S
H430 C453 0.948 . S
H431 C459 0.982 . S
H432 C460 0.979 . S
H433 C460 0.980 . S
H434 C460 0.983 . S
H435 C459 0.979 . S
H436 C459 0.977 . S
C437 C425 1.453 . S
C437 H466 0.982 . S
C437 H467 0.979 . S
C437 H468 0.977 . S
C438 C425 1.684 . S
C438 H463 0.979 . S
C438 H464 0.980 . S
C438 H465 0.983 . S
C439 C440 1.391 . S
C439 C444 1.391 . S
C439 H469 0.948 . S
C440 C439 1.391 . S
C440 C441 1.391 . S
C441 C440 1.391 . S
C441 C442 1.392 . S
C441 H470 0.947 . S
C442 C441 1.392 . S
C442 C443 1.419 . S
C442 H471 0.948 . S
C443 C442 1.419 . S
C443 C444 1.391 . S
C443 C447 1.397 . S
C444 C439 1.391 . S
C444 C443 1.391 . S
C444 C445 1.399 . S
C445 C444 1.399 . S
C445 C446 1.396 . S
C445 C448 1.453 . S
C445 C449 1.684 . S
C446 C427 1.723 . S
C446 C445 1.396 . S
C446 C447 1.394 . S
C447 C443 1.397 . S
C447 C446 1.394 . S
C447 C457 1.723 . S
C448 C445 1.453 . S
C448 H472 0.982 . S
C448 H473 0.979 . S
C448 H474 0.977 . S
C449 C445 1.684 . S
C449 H475 0.979 . S
C449 H476 0.980 . S
C449 H477 0.983 . S
C450 H426 0.948 . S
C450 C451 1.391 . S
C450 C455 1.391 . S
C451 C450 1.391 . S
C451 C452 1.391 . S
C452 H429 0.947 . S
C452 C451 1.391 . S
C452 C453 1.392 . S
C453 H430 0.948 . S
C453 C452 1.392 . S
C453 C454 1.419 . S
C454 C453 1.419 . S
C454 C455 1.391 . S
C454 C458 1.397 . S
C455 C450 1.391 . S
C455 C454 1.391 . S
C455 C456 1.399 . S
C456 C455 1.399 . S
C456 C457 1.396 . S
C456 C459 1.453 . S
C456 C460 1.684 . S
C457 C447 1.723 . S
C457 C456 1.396 . S
C457 C458 1.394 . S
C458 C428 1.723 . S
C458 C454 1.397 . S
C458 C457 1.394 . S
C459 H431 0.982 . S
C459 H435 0.979 . S
C459 H436 0.977 . S
C459 C456 1.453 . S
C460 H432 0.979 . S
C460 H433 0.980 . S
C460 H434 0.983 . S
C460 C456 1.684 . S
H461 C479 0.948 . S
H462 C420 0.948 . S
H463 C438 0.979 . S
H464 C438 0.980 . S
H465 C438 0.983 . S
H466 C437 0.982 . S
H467 C437 0.979 . S
H468 C437 0.977 . S
H469 C439 0.948 . S
H470 C441 0.947 . S
H471 C442 0.948 . S
H472 C448 0.982 . S
H473 C448 0.979 . S
H474 C448 0.977 . S
H475 C449 0.979 . S
H476 C449 0.980 . S
H477 C449 0.983 . S
H478 C422 0.947 . S
C479 C422 1.392 . S
C479 C423 1.419 . S
C479 H461 0.948 . S
Gd480 C483 2.818 . S
Gd480 O500 2.377 . S
Gd480 O502 2.448 . S
Gd480 O503 2.506 . S
Gd480 O504 2.435 1_545 S
Gd480 O505 2.717 1_545 S
Gd480 O507 2.395 1_445 S
Gd480 O511 2.327 1_455 S
Gd481 C492 2.818 . S
Gd481 O501 2.395 1_665 S
Gd481 O505 2.327 1_655 S
Gd481 O506 2.377 . S
Gd481 O508 2.448 . S
Gd481 O509 2.506 . S
Gd481 O510 2.435 1_565 S
Gd481 O511 2.717 1_565 S
C482 O500 1.240 . S
C482 O501 1.240 . S
C483 Gd480 2.818 . S
C483 C484 1.510 . S
C483 O502 1.249 . S
C483 O503 1.252 . S
C484 C483 1.510 . S
C484 C485 1.404 . S
C484 C486 1.352 . S
C485 C484 1.404 . S
C485 C489 1.389 . S
C485 H512 0.930 . S
C486 C484 1.352 . S
C486 C488 1.374 . S
C486 H513 0.931 . S
C487 C488 1.359 . S
C487 C489 1.364 . S
C488 C486 1.374 . S
C488 C487 1.359 . S
C488 H514 0.931 . S
C489 C485 1.389 . S
C489 C487 1.364 . S
C489 H515 0.931 . S
C490 O504 1.256 . S
C490 O505 1.257 . S
C491 O506 1.240 . S
C491 O507 1.240 . S
C492 Gd481 2.818 . S
C492 C493 1.510 . S
C492 O508 1.249 . S
C492 O509 1.252 . S
C493 C492 1.510 . S
C493 C494 1.404 . S
C493 C495 1.352 . S
C494 C493 1.404 . S
C494 C498 1.389 . S
C494 H516 0.930 . S
C495 C493 1.352 . S
C495 C497 1.374 . S
C495 H517 0.931 . S
C496 C497 1.359 . S
C496 C498 1.364 . S
C497 C495 1.374 . S
C497 C496 1.359 . S
C497 H518 0.931 . S
C498 C494 1.389 . S
C498 C496 1.364 . S
C498 H519 0.931 . S
C499 O510 1.256 . S
C499 O511 1.257 . S
O500 Gd480 2.377 . S
O500 C482 1.240 . S
O501 Gd481 2.395 1_445 S
O501 C482 1.240 . S
O502 Gd480 2.448 . S
O502 C483 1.249 . S
O503 Gd480 2.506 . S
O503 C483 1.252 . S
O504 Gd480 2.435 1_565 S
O504 C490 1.256 . S
O505 Gd480 2.717 1_565 S
O505 Gd481 2.327 1_455 S
O505 C490 1.257 . S
O506 Gd481 2.377 . S
O506 C491 1.240 . S
O507 Gd480 2.395 1_665 S
O507 C491 1.240 . S
O508 Gd481 2.448 . S
O508 C492 1.249 . S
O509 Gd481 2.506 . S
O509 C492 1.252 . S
O510 Gd481 2.435 1_545 S
O510 C499 1.256 . S
O511 Gd480 2.327 1_655 S
O511 Gd481 2.717 1_545 S
O511 C499 1.257 . S
H512 C485 0.930 . S
H513 C486 0.931 . S
H514 C488 0.931 . S
H515 C489 0.931 . S
H516 C494 0.930 . S
H517 C495 0.931 . S
H518 C497 0.931 . S
H519 C498 0.931 . S
Gd520 C523 2.798 1_565 S
Gd520 O540 2.355 1_565 S
Gd520 O542 2.445 1_565 S
Gd520 O543 2.473 1_565 S
Gd520 O544 2.465 . S
Gd520 O545 2.732 . S
Gd520 O547 2.420 1_554 S
Gd520 O551 2.300 1_564 S
Gd521 C532 2.818 1_545 S
Gd521 O541 2.395 1_556 S
Gd521 O545 2.327 1_546 S
Gd521 O546 2.377 1_545 S
Gd521 O548 2.448 1_545 S
Gd521 O549 2.506 1_545 S
Gd521 O550 2.435 . S
Gd521 O551 2.717 . S
C522 O540 1.240 . S
C522 O541 1.240 . S
C523 Gd520 2.798 1_545 S
C523 C524 1.510 . S
C523 O542 1.249 . S
C523 O543 1.252 . S
C524 C523 1.510 . S
C524 C525 1.404 . S
C524 C526 1.352 . S
C525 C524 1.404 . S
C525 C529 1.389 . S
C525 H552 0.930 . S
C526 C524 1.352 . S
C526 C528 1.374 . S
C526 H553 0.931 . S
C527 C528 1.359 . S
C527 C529 1.364 . S
C528 C526 1.374 . S
C528 C527 1.359 . S
C528 H554 0.931 . S
C529 C525 1.389 . S
C529 C527 1.364 . S
C529 H555 0.931 . S
C530 O544 1.256 . S
C530 O545 1.257 . S
C531 O546 1.240 . S
C531 O547 1.240 . S
C532 Gd521 2.818 1_565 S
C532 C533 1.510 . S
C532 O548 1.249 . S
C532 O549 1.252 . S
C533 C532 1.510 . S
C533 C534 1.404 . S
C533 C535 1.352 . S
C534 C533 1.404 . S
C534 C538 1.389 . S
C534 H556 0.930 . S
C535 C533 1.352 . S
C535 C537 1.374 . S
C535 H557 0.931 . S
C536 C537 1.359 . S
C536 C538 1.364 . S
C537 C535 1.374 . S
C537 C536 1.359 . S
C537 H558 0.931 . S
C538 C534 1.389 . S
C538 C536 1.364 . S
C538 H559 0.931 . S
C539 O550 1.256 . S
C539 O551 1.257 . S
O540 Gd520 2.355 1_545 S
O540 C522 1.240 . S
O541 Gd521 2.395 1_554 S
O541 C522 1.240 . S
O542 Gd520 2.445 1_545 S
O542 C523 1.249 . S
O543 Gd520 2.473 1_545 S
O543 C523 1.252 . S
O544 Gd520 2.465 . S
O544 C530 1.256 . S
O545 Gd520 2.732 . S
O545 Gd521 2.327 1_564 S
O545 C530 1.257 . S
O546 Gd521 2.377 1_565 S
O546 C531 1.240 . S
O547 Gd520 2.420 1_556 S
O547 C531 1.240 . S
O548 Gd521 2.448 1_565 S
O548 C532 1.249 . S
O549 Gd521 2.506 1_565 S
O549 C532 1.252 . S
O550 Gd521 2.435 . S
O550 C539 1.256 . S
O551 Gd520 2.300 1_546 S
O551 Gd521 2.717 . S
O551 C539 1.257 . S
H552 C525 0.930 . S
H553 C526 0.931 . S
H554 C528 0.931 . S
H555 C529 0.931 . S
H556 C534 0.930 . S
H557 C535 0.931 . S
H558 C537 0.931 . S
H559 C538 0.931 . S
Gd560 C563 2.818 . S
Gd560 O580 2.377 . S
Gd560 O582 2.448 . S
Gd560 O583 2.506 . S
Gd560 O584 2.435 . S
Gd560 O585 2.717 . S
Gd560 O587 2.395 . S
Gd560 O591 2.327 . S
Gd561 C572 2.818 . S
Gd561 O581 2.395 . S
Gd561 O585 2.327 . S
Gd561 O586 2.377 . S
Gd561 O588 2.448 . S
Gd561 O589 2.506 . S
Gd561 O590 2.435 . S
Gd561 O591 2.717 . S
C562 O580 1.240 . S
C562 O581 1.240 . S
C563 Gd560 2.818 . S
C563 C564 1.510 . S
C563 O582 1.249 . S
C563 O583 1.252 . S
C564 C563 1.510 . S
C564 C565 1.404 . S
C564 C566 1.352 . S
C565 C564 1.404 . S
C565 C569 1.389 . S
C565 H592 0.930 . S
C566 C564 1.352 . S
C566 C568 1.374 . S
C566 H593 0.931 . S
C567 C568 1.359 . S
C567 C569 1.364 . S
C568 C566 1.374 . S
C568 C567 1.359 . S
C568 H594 0.931 . S
C569 C565 1.389 . S
C569 C567 1.364 . S
C569 H595 0.931 . S
C570 O584 1.256 . S
C570 O585 1.257 . S
C571 O586 1.240 . S
C571 O587 1.240 . S
C572 Gd561 2.818 . S
C572 C573 1.510 . S
C572 O588 1.249 . S
C572 O589 1.252 . S
C573 C572 1.510 . S
C573 C574 1.404 . S
C573 C575 1.352 . S
C574 C573 1.404 . S
C574 C578 1.389 . S
C574 H596 0.930 . S
C575 C573 1.352 . S
C575 C577 1.374 . S
C575 H597 0.931 . S
C576 C577 1.359 . S
C576 C578 1.364 . S
C577 C575 1.374 . S
C577 C576 1.359 . S
C577 H598 0.931 . S
C578 C574 1.389 . S
C578 C576 1.364 . S
C578 H599 0.931 . S
C579 O590 1.256 . S
C579 O591 1.257 . S
O580 Gd560 2.377 . S
O580 C562 1.240 . S
O581 Gd561 2.395 . S
O581 C562 1.240 . S
O582 Gd560 2.448 . S
O582 C563 1.249 . S
O583 Gd560 2.506 . S
O583 C563 1.252 . S
O584 Gd560 2.435 . S
O584 C570 1.256 . S
O585 Gd560 2.717 . S
O585 Gd561 2.327 . S
O585 C570 1.257 . S
O586 Gd561 2.377 . S
O586 C571 1.240 . S
O587 Gd560 2.395 . S
O587 C571 1.240 . S
O588 Gd561 2.448 . S
O588 C572 1.249 . S
O589 Gd561 2.506 . S
O589 C572 1.252 . S
O590 Gd561 2.435 . S
O590 C579 1.256 . S
O591 Gd560 2.327 . S
O591 Gd561 2.717 . S
O591 C579 1.257 . S
H592 C565 0.930 . S
H593 C566 0.931 . S
H594 C568 0.931 . S
H595 C569 0.931 . S
H596 C574 0.930 . S
H597 C575 0.931 . S
H598 C577 0.931 . S
H599 C578 0.931 . S
Gd600 C603 2.818 . S
Gd600 O620 2.377 . S
Gd600 O622 2.448 . S
Gd600 O623 2.506 . S
Gd600 O624 2.435 1_455 S
Gd600 O625 2.717 1_455 S
Gd600 O627 2.395 1_454 S
Gd600 O631 2.327 1_554 S
Gd601 C612 2.818 . S
Gd601 O621 2.395 1_656 S
Gd601 O625 2.327 1_556 S
Gd601 O626 2.377 . S
Gd601 O628 2.448 . S
Gd601 O629 2.506 . S
Gd601 O630 2.435 1_655 S
Gd601 O631 2.717 1_655 S
C602 O620 1.240 . S
C602 O621 1.240 . S
C603 Gd600 2.818 . S
C603 C604 1.510 . S
C603 O622 1.249 . S
C603 O623 1.252 . S
C604 C603 1.510 . S
C604 C605 1.404 . S
C604 C606 1.352 . S
C605 C604 1.404 . S
C605 C609 1.389 . S
C605 H632 0.930 . S
C606 C604 1.352 . S
C606 C608 1.374 . S
C606 H633 0.931 . S
C607 C608 1.359 . S
C607 C609 1.364 . S
C608 C606 1.374 . S
C608 C607 1.359 . S
C608 H634 0.931 . S
C609 C605 1.389 . S
C609 C607 1.364 . S
C609 H635 0.931 . S
C610 O624 1.256 . S
C610 O625 1.257 . S
C611 O626 1.240 . S
C611 O627 1.240 . S
C612 Gd601 2.818 . S
C612 C613 1.510 . S
C612 O628 1.249 . S
C612 O629 1.252 . S
C613 C612 1.510 . S
C613 C614 1.404 . S
C613 C615 1.352 . S
C614 C613 1.404 . S
C614 C618 1.389 . S
C614 H636 0.930 . S
C615 C613 1.352 . S
C615 C617 1.374 . S
C615 H637 0.931 . S
C616 C617 1.359 . S
C616 C618 1.364 . S
C617 C615 1.374 . S
C617 C616 1.359 . S
C617 H638 0.931 . S
C618 C614 1.389 . S
C618 C616 1.364 . S
C618 H639 0.931 . S
C619 O630 1.256 . S
C619 O631 1.257 . S
O620 Gd600 2.377 . S
O620 C602 1.240 . S
O621 Gd601 2.395 1_454 S
O621 C602 1.240 . S
O622 Gd600 2.448 . S
O622 C603 1.249 . S
O623 Gd600 2.506 . S
O623 C603 1.252 . S
O624 Gd600 2.435 1_655 S
O624 C610 1.256 . S
O625 Gd600 2.717 1_655 S
O625 Gd601 2.327 1_554 S
O625 C610 1.257 . S
O626 Gd601 2.377 . S
O626 C611 1.240 . S
O627 Gd600 2.395 1_656 S
O627 C611 1.240 . S
O628 Gd601 2.448 . S
O628 C612 1.249 . S
O629 Gd601 2.506 . S
O629 C612 1.252 . S
O630 Gd601 2.435 1_455 S
O630 C619 1.256 . S
O631 Gd600 2.327 1_556 S
O631 Gd601 2.717 1_455 S
O631 C619 1.257 . S
H632 C605 0.930 . S
H633 C606 0.931 . S
H634 C608 0.931 . S
H635 C609 0.931 . S
H636 C614 0.930 . S
H637 C615 0.931 . S
H638 C617 0.931 . S
H639 C618 0.931 . S
H640 C648 0.950 . S
H641 C653 0.950 . S
H642 C650 0.950 . S
H643 C652 0.950 . S
H644 C654 0.950 . S
H645 C656 0.950 . S
H646 C658 0.950 . S
H647 C659 0.950 . S
C648 H640 0.950 . S
C648 C649 1.386 . S
C648 C650 1.391 . S
C649 C648 1.386 . S
C649 C653 1.393 . S
C650 H642 0.950 . S
C650 C648 1.391 . S
C650 C651 1.400 . S
C651 C650 1.400 . S
C651 C652 1.398 . S
C651 C657 1.491 . S
C652 H643 0.950 . S
C652 C651 1.398 . S
C652 C653 1.391 . S
C653 H641 0.950 . S
C653 C649 1.393 . S
C653 C652 1.391 . S
C654 H644 0.950 . S
C654 C655 1.386 . S
C654 C656 1.391 . S
C655 C654 1.386 . S
C655 C659 1.393 . S
C656 H645 0.950 . S
C656 C654 1.391 . S
C656 C657 1.400 . S
C657 C651 1.491 . S
C657 C656 1.400 . S
C657 C658 1.398 . S
C658 H646 0.950 . S
C658 C657 1.398 . S
C658 C659 1.391 . S
C659 H647 0.950 . S
C659 C655 1.393 . S
C659 C658 1.391 . S
H660 C668 0.950 . S
H661 C673 0.950 . S
H662 C670 0.950 . S
H663 C672 0.950 . S
H664 C674 0.950 . S
H665 C676 0.950 . S
H666 C678 0.950 . S
H667 C679 0.950 . S
C668 H660 0.950 . S
C668 C669 1.386 . S
C668 C670 1.391 . S
C669 C668 1.386 . S
C669 C673 1.393 . S
C670 H662 0.950 . S
C670 C668 1.391 . S
C670 C671 1.400 . S
C671 C670 1.400 . S
C671 C672 1.398 . S
C671 C677 1.491 . S
C672 H663 0.950 . S
C672 C671 1.398 . S
C672 C673 1.391 . S
C673 H661 0.950 . S
C673 C669 1.393 . S
C673 C672 1.391 . S
C674 H664 0.950 . S
C674 C675 1.386 . S
C674 C676 1.391 . S
C675 C674 1.386 . S
C675 C679 1.393 . S
C676 H665 0.950 . S
C676 C674 1.391 . S
C676 C677 1.400 . S
C677 C671 1.491 . S
C677 C676 1.400 . S
C677 C678 1.398 . S
C678 H666 0.950 . S
C678 C677 1.398 . S
C678 C679 1.391 . S
C679 H667 0.950 . S
C679 C675 1.393 . S
C679 C678 1.391 . S
H680 C688 0.950 . S
H681 C693 0.950 . S
H682 C690 0.950 . S
H683 C692 0.950 . S
H684 C694 0.950 . S
H685 C696 0.950 . S
H686 C698 0.950 . S
H687 C699 0.950 . S
C688 H680 0.950 . S
C688 C689 1.386 . S
C688 C690 1.391 . S
C689 C688 1.386 . S
C689 C693 1.393 . S
C690 H682 0.950 . S
C690 C688 1.391 . S
C690 C691 1.400 . S
C691 C690 1.400 . S
C691 C692 1.398 . S
C691 C697 1.491 . S
C692 H683 0.950 . S
C692 C691 1.398 . S
C692 C693 1.391 . S
C693 H681 0.950 . S
C693 C689 1.393 . S
C693 C692 1.391 . S
C694 H684 0.950 . S
C694 C695 1.386 . S
C694 C696 1.391 . S
C695 C694 1.386 . S
C695 C699 1.393 . S
C696 H685 0.950 . S
C696 C694 1.391 . S
C696 C697 1.400 . S
C697 C691 1.491 . S
C697 C696 1.400 . S
C697 C698 1.398 . S
C698 H686 0.950 . S
C698 C697 1.398 . S
C698 C699 1.391 . S
C699 H687 0.950 . S
C699 C695 1.393 . S
C699 C698 1.391 . S
H700 C708 0.950 . S
H701 C713 0.950 . S
H702 C710 0.950 . S
H703 C712 0.950 . S
H704 C714 0.950 . S
H705 C716 0.950 . S
H706 C718 0.950 . S
H707 C719 0.950 . S
C708 H700 0.950 . S
C708 C709 1.386 . S
C708 C710 1.391 . S
C709 C708 1.386 . S
C709 C713 1.393 . S
C710 H702 0.950 . S
C710 C708 1.391 . S
C710 C711 1.400 . S
C711 C710 1.400 . S
C711 C712 1.398 . S
C711 C717 1.491 . S
C712 H703 0.950 . S
C712 C711 1.398 . S
C712 C713 1.391 . S
C713 H701 0.950 . S
C713 C709 1.393 . S
C713 C712 1.391 . S
C714 H704 0.950 . S
C714 C715 1.386 . S
C714 C716 1.391 . S
C715 C714 1.386 . S
C715 C719 1.393 . S
C716 H705 0.950 . S
C716 C714 1.391 . S
C716 C717 1.400 . S
C717 C711 1.491 . S
C717 C716 1.400 . S
C717 C718 1.398 . S
C718 H706 0.950 . S
C718 C717 1.398 . S
C718 C719 1.391 . S
C719 H707 0.950 . S
C719 C715 1.393 . S
C719 C718 1.391 . S
H720 C728 0.950 . S
H721 C733 0.950 . S
H722 C730 0.950 . S
H723 C732 0.950 . S
H724 C734 0.950 . S
H725 C736 0.950 . S
H726 C738 0.950 . S
H727 C739 0.950 . S
C728 H720 0.950 . S
C728 C729 1.386 . S
C728 C730 1.391 . S
C729 C728 1.386 . S
C729 C733 1.393 . S
C730 H722 0.950 . S
C730 C728 1.391 . S
C730 C731 1.400 . S
C731 C730 1.400 . S
C731 C732 1.398 . S
C731 C737 1.491 . S
C732 H723 0.950 . S
C732 C731 1.398 . S
C732 C733 1.391 . S
C733 H721 0.950 . S
C733 C729 1.393 . S
C733 C732 1.391 . S
C734 H724 0.950 . S
C734 C735 1.386 . S
C734 C736 1.391 . S
C735 C734 1.386 . S
C735 C739 1.393 . S
C736 H725 0.950 . S
C736 C734 1.391 . S
C736 C737 1.400 . S
C737 C731 1.491 . S
C737 C736 1.400 . S
C737 C738 1.398 . S
C738 H726 0.950 . S
C738 C737 1.398 . S
C738 C739 1.391 . S
C739 H727 0.950 . S
C739 C735 1.393 . S
C739 C738 1.391 . S
H740 C748 0.950 . S
H741 C753 0.950 . S
H742 C750 0.950 . S
H743 C752 0.950 . S
H744 C754 0.950 . S
H745 C756 0.950 . S
H746 C758 0.950 . S
H747 C759 0.950 . S
C748 H740 0.950 . S
C748 C749 1.386 . S
C748 C750 1.391 . S
C749 C748 1.386 . S
C749 C753 1.393 . S
C750 H742 0.950 . S
C750 C748 1.391 . S
C750 C751 1.400 . S
C751 C750 1.400 . S
C751 C752 1.398 . S
C751 C757 1.491 . S
C752 H743 0.950 . S
C752 C751 1.398 . S
C752 C753 1.391 . S
C753 H741 0.950 . S
C753 C749 1.393 . S
C753 C752 1.391 . S
C754 H744 0.950 . S
C754 C755 1.386 . S
C754 C756 1.391 . S
C755 C754 1.386 . S
C755 C759 1.393 . S
C756 H745 0.950 . S
C756 C754 1.391 . S
C756 C757 1.400 . S
C757 C751 1.491 . S
C757 C756 1.400 . S
C757 C758 1.398 . S
C758 H746 0.950 . S
C758 C757 1.398 . S
C758 C759 1.391 . S
C759 H747 0.950 . S
C759 C755 1.393 . S
C759 C758 1.391 . S
H760 C768 0.950 . S
H761 C773 0.950 . S
H762 C770 0.950 . S
H763 C772 0.950 . S
H764 C774 0.950 . S
H765 C776 0.950 . S
H766 C778 0.950 . S
H767 C779 0.950 . S
C768 H760 0.950 . S
C768 C769 1.386 . S
C768 C770 1.391 . S
C769 C768 1.386 . S
C769 C773 1.393 . S
C770 H762 0.950 . S
C770 C768 1.391 . S
C770 C771 1.400 . S
C771 C770 1.400 . S
C771 C772 1.398 . S
C771 C777 1.491 . S
C772 H763 0.950 . S
C772 C771 1.398 . S
C772 C773 1.391 . S
C773 H761 0.950 . S
C773 C769 1.393 . S
C773 C772 1.391 . S
C774 H764 0.950 . S
C774 C775 1.386 . S
C774 C776 1.391 . S
C775 C774 1.386 . S
C775 C779 1.393 . S
C776 H765 0.950 . S
C776 C774 1.391 . S
C776 C777 1.400 . S
C777 C771 1.491 . S
C777 C776 1.400 . S
C777 C778 1.398 . S
C778 H766 0.950 . S
C778 C777 1.398 . S
C778 C779 1.391 . S
C779 H767 0.950 . S
C779 C775 1.393 . S
C779 C778 1.391 . S
H780 C788 0.950 . S
H781 C793 0.950 . S
H782 C790 0.950 . S
H783 C792 0.950 . S
H784 C794 0.950 . S
H785 C796 0.950 . S
H786 C798 0.950 . S
H787 C799 0.950 . S
C788 H780 0.950 . S
C788 C789 1.386 . S
C788 C790 1.391 . S
C789 C788 1.386 . S
C789 C793 1.393 . S
C790 H782 0.950 . S
C790 C788 1.391 . S
C790 C791 1.400 . S
C791 C790 1.400 . S
C791 C792 1.398 . S
C791 C797 1.491 . S
C792 H783 0.950 . S
C792 C791 1.398 . S
C792 C793 1.391 . S
C793 H781 0.950 . S
C793 C789 1.393 . S
C793 C792 1.391 . S
C794 H784 0.950 . S
C794 C795 1.386 . S
C794 C796 1.391 . S
C795 C794 1.386 . S
C795 C799 1.393 . S
C796 H785 0.950 . S
C796 C794 1.391 . S
C796 C797 1.400 . S
C797 C791 1.491 . S
C797 C796 1.400 . S
C797 C798 1.398 . S
C798 H786 0.950 . S
C798 C797 1.398 . S
C798 C799 1.391 . S
C799 H787 0.950 . S
C799 C795 1.393 . S
C799 C798 1.391 . S
H800 C808 0.950 . S
H801 C813 0.950 . S
H802 C810 0.950 . S
H803 C812 0.950 . S
H804 C814 0.950 . S
H805 C816 0.950 . S
H806 C818 0.950 . S
H807 C819 0.950 . S
C808 H800 0.950 . S
C808 C809 1.386 . S
C808 C810 1.391 . S
C809 C808 1.386 . S
C809 C813 1.393 . S
C810 H802 0.950 . S
C810 C808 1.391 . S
C810 C811 1.400 . S
C811 C810 1.400 . S
C811 C812 1.398 . S
C811 C817 1.491 . S
C812 H803 0.950 . S
C812 C811 1.398 . S
C812 C813 1.391 . S
C813 H801 0.950 . S
C813 C809 1.393 . S
C813 C812 1.391 . S
C814 H804 0.950 . S
C814 C815 1.386 . S
C814 C816 1.391 . S
C815 C814 1.386 . S
C815 C819 1.393 . S
C816 H805 0.950 . S
C816 C814 1.391 . S
C816 C817 1.400 . S
C817 C811 1.491 . S
C817 C816 1.400 . S
C817 C818 1.398 . S
C818 H806 0.950 . S
C818 C817 1.398 . S
C818 C819 1.391 . S
C819 H807 0.950 . S
C819 C815 1.393 . S
C819 C818 1.391 . S
H820 C828 0.950 . S
H821 C833 0.950 . S
H822 C830 0.950 . S
H823 C832 0.950 . S
H824 C834 0.950 . S
H825 C836 0.950 . S
H826 C838 0.950 . S
H827 C839 0.950 . S
C828 H820 0.950 . S
C828 C829 1.386 . S
C828 C830 1.391 . S
C829 C828 1.386 . S
C829 C833 1.393 . S
C830 H822 0.950 . S
C830 C828 1.391 . S
C830 C831 1.400 . S
C831 C830 1.400 . S
C831 C832 1.398 . S
C831 C837 1.491 . S
C832 H823 0.950 . S
C832 C831 1.398 . S
C832 C833 1.391 . S
C833 H821 0.950 . S
C833 C829 1.393 . S
C833 C832 1.391 . S
C834 H824 0.950 . S
C834 C835 1.386 . S
C834 C836 1.391 . S
C835 C834 1.386 . S
C835 C839 1.393 . S
C836 H825 0.950 . S
C836 C834 1.391 . S
C836 C837 1.400 . S
C837 C831 1.491 . S
C837 C836 1.400 . S
C837 C838 1.398 . S
C838 H826 0.950 . S
C838 C837 1.398 . S
C838 C839 1.391 . S
C839 H827 0.950 . S
C839 C835 1.393 . S
C839 C838 1.391 . S
H840 C848 0.950 . S
H841 C853 0.950 . S
H842 C850 0.950 . S
H843 C852 0.950 . S
H844 C854 0.950 . S
H845 C856 0.950 . S
H846 C858 0.950 . S
H847 C859 0.950 . S
C848 H840 0.950 . S
C848 C849 1.386 . S
C848 C850 1.391 . S
C849 C848 1.386 . S
C849 C853 1.393 . S
C850 H842 0.950 . S
C850 C848 1.391 . S
C850 C851 1.400 . S
C851 C850 1.400 . S
C851 C852 1.398 . S
C851 C857 1.491 . S
C852 H843 0.950 . S
C852 C851 1.398 . S
C852 C853 1.391 . S
C853 H841 0.950 . S
C853 C849 1.393 . S
C853 C852 1.391 . S
C854 H844 0.950 . S
C854 C855 1.386 . S
C854 C856 1.391 . S
C855 C854 1.386 . S
C855 C859 1.393 . S
C856 H845 0.950 . S
C856 C854 1.391 . S
C856 C857 1.400 . S
C857 C851 1.491 . S
C857 C856 1.400 . S
C857 C858 1.398 . S
C858 H846 0.950 . S
C858 C857 1.398 . S
C858 C859 1.391 . S
C859 H847 0.950 . S
C859 C855 1.393 . S
C859 C858 1.391 . S
H860 C868 0.950 . S
H861 C873 0.950 . S
H862 C870 0.950 . S
H863 C872 0.950 . S
H864 C874 0.950 . S
H865 C876 0.950 . S
H866 C878 0.950 . S
H867 C879 0.950 . S
C868 H860 0.950 . S
C868 C869 1.386 . S
C868 C870 1.391 . S
C869 C868 1.386 . S
C869 C873 1.393 . S
C870 H862 0.950 . S
C870 C868 1.391 . S
C870 C871 1.400 . S
C871 C870 1.400 . S
C871 C872 1.398 . S
C871 C877 1.491 . S
C872 H863 0.950 . S
C872 C871 1.398 . S
C872 C873 1.391 . S
C873 H861 0.950 . S
C873 C869 1.393 . S
C873 C872 1.391 . S
C874 H864 0.950 . S
C874 C875 1.386 . S
C874 C876 1.391 . S
C875 C874 1.386 . S
C875 C879 1.393 . S
C876 H865 0.950 . S
C876 C874 1.391 . S
C876 C877 1.400 . S
C877 C871 1.491 . S
C877 C876 1.400 . S
C877 C878 1.398 . S
C878 H866 0.950 . S
C878 C877 1.398 . S
C878 C879 1.391 . S
C879 H867 0.950 . S
C879 C875 1.393 . S
C879 C878 1.391 . S
H880 C888 0.950 . S
H881 C893 0.950 . S
H882 C890 0.950 . S
H883 C892 0.950 . S
H884 C894 0.950 . S
H885 C896 0.950 . S
H886 C898 0.950 . S
H887 C899 0.950 . S
C888 H880 0.950 . S
C888 C889 1.386 . S
C888 C890 1.391 . S
C889 C888 1.386 . S
C889 C893 1.393 . S
C890 H882 0.950 . S
C890 C888 1.391 . S
C890 C891 1.400 . S
C891 C890 1.400 . S
C891 C892 1.398 . S
C891 C897 1.491 . S
C892 H883 0.950 . S
C892 C891 1.398 . S
C892 C893 1.391 . S
C893 H881 0.950 . S
C893 C889 1.393 . S
C893 C892 1.391 . S
C894 H884 0.950 . S
C894 C895 1.386 . S
C894 C896 1.391 . S
C895 C894 1.386 . S
C895 C899 1.393 . S
C896 H885 0.950 . S
C896 C894 1.391 . S
C896 C897 1.400 . S
C897 C891 1.491 . S
C897 C896 1.400 . S
C897 C898 1.398 . S
C898 H886 0.950 . S
C898 C897 1.398 . S
C898 C899 1.391 . S
C899 H887 0.950 . S
C899 C895 1.393 . S
C899 C898 1.391 . S
H900 C908 0.950 . S
H901 C913 0.950 . S
H902 C910 0.950 . S
H903 C912 0.950 . S
H904 C914 0.950 . S
H905 C916 0.950 . S
H906 C918 0.950 . S
H907 C919 0.950 . S
C908 H900 0.950 . S
C908 C909 1.386 . S
C908 C910 1.391 . S
C909 C908 1.386 . S
C909 C913 1.393 . S
C910 H902 0.950 . S
C910 C908 1.391 . S
C910 C911 1.400 . S
C911 C910 1.400 . S
C911 C912 1.398 . S
C911 C917 1.491 . S
C912 H903 0.950 . S
C912 C911 1.398 . S
C912 C913 1.391 . S
C913 H901 0.950 . S
C913 C909 1.393 . S
C913 C912 1.391 . S
C914 H904 0.950 . S
C914 C915 1.386 . S
C914 C916 1.391 . S
C915 C914 1.386 . S
C915 C919 1.393 . S
C916 H905 0.950 . S
C916 C914 1.391 . S
C916 C917 1.400 . S
C917 C911 1.491 . S
C917 C916 1.400 . S
C917 C918 1.398 . S
C918 H906 0.950 . S
C918 C917 1.398 . S
C918 C919 1.391 . S
C919 H907 0.950 . S
C919 C915 1.393 . S
C919 C918 1.391 . S
H920 C928 0.950 . S
H921 C933 0.950 . S
H922 C930 0.950 . S
H923 C932 0.950 . S
H924 C934 0.950 . S
H925 C936 0.950 . S
H926 C938 0.950 . S
H927 C939 0.950 . S
C928 H920 0.950 . S
C928 C929 1.386 . S
C928 C930 1.391 . S
C929 C928 1.386 . S
C929 C933 1.393 . S
C930 H922 0.950 . S
C930 C928 1.391 . S
C930 C931 1.400 . S
C931 C930 1.400 . S
C931 C932 1.398 . S
C931 C937 1.491 . S
C932 H923 0.950 . S
C932 C931 1.398 . S
C932 C933 1.391 . S
C933 H921 0.950 . S
C933 C929 1.393 . S
C933 C932 1.391 . S
C934 H924 0.950 . S
C934 C935 1.386 . S
C934 C936 1.391 . S
C935 C934 1.386 . S
C935 C939 1.393 . S
C936 H925 0.950 . S
C936 C934 1.391 . S
C936 C937 1.400 . S
C937 C931 1.491 . S
C937 C936 1.400 . S
C937 C938 1.398 . S
C938 H926 0.950 . S
C938 C937 1.398 . S
C938 C939 1.391 . S
C939 H927 0.950 . S
C939 C935 1.393 . S
C939 C938 1.391 . S
H940 C948 0.950 . S
H941 C953 0.950 . S
H942 C950 0.950 . S
H943 C952 0.950 . S
H944 C954 0.950 . S
H945 C956 0.950 . S
H946 C958 0.950 . S
H947 C959 0.950 . S
C948 H940 0.950 . S
C948 C949 1.386 . S
C948 C950 1.391 . S
C949 C948 1.386 . S
C949 C953 1.393 . S
C950 H942 0.950 . S
C950 C948 1.391 . S
C950 C951 1.400 . S
C951 C950 1.400 . S
C951 C952 1.398 . S
C951 C957 1.491 . S
C952 H943 0.950 . S
C952 C951 1.398 . S
C952 C953 1.391 . S
C953 H941 0.950 . S
C953 C949 1.393 . S
C953 C952 1.391 . S
C954 H944 0.950 . S
C954 C955 1.386 . S
C954 C956 1.391 . S
C955 C954 1.386 . S
C955 C959 1.393 . S
C956 H945 0.950 . S
C956 C954 1.391 . S
C956 C957 1.400 . S
C957 C951 1.491 . S
C957 C956 1.400 . S
C957 C958 1.398 . S
C958 H946 0.950 . S
C958 C957 1.398 . S
C958 C959 1.391 . S
C959 H947 0.950 . S
C959 C955 1.393 . S
C959 C958 1.391 . S
H960 C968 0.950 . S
H961 C973 0.950 . S
H962 C970 0.950 . S
H963 C972 0.950 . S
H964 C974 0.950 . S
H965 C976 0.950 . S
H966 C978 0.950 . S
H967 C979 0.950 . S
C968 H960 0.950 . S
C968 C969 1.386 . S
C968 C970 1.391 . S
C969 C968 1.386 . S
C969 C973 1.393 . S
C970 H962 0.950 . S
C970 C968 1.391 . S
C970 C971 1.400 . S
C971 C970 1.400 . S
C971 C972 1.398 . S
C971 C977 1.491 . S
C972 H963 0.950 . S
C972 C971 1.398 . S
C972 C973 1.391 . S
C973 H961 0.950 . S
C973 C969 1.393 . S
C973 C972 1.391 . S
C974 H964 0.950 . S
C974 C975 1.386 . S
C974 C976 1.391 . S
C975 C974 1.386 . S
C975 C979 1.393 . S
C976 H965 0.950 . S
C976 C974 1.391 . S
C976 C977 1.400 . S
C977 C971 1.491 . S
C977 C976 1.400 . S
C977 C978 1.398 . S
C978 H966 0.950 . S
C978 C977 1.398 . S
C978 C979 1.391 . S
C979 H967 0.950 . S
C979 C975 1.393 . S
C979 C978 1.391 . S
H980 C988 0.950 . S
H981 C993 0.950 . S
H982 C990 0.950 . S
H983 C992 0.950 . S
H984 C994 0.950 . S
H985 C996 0.950 . S
H986 C998 0.950 . S
H987 C999 0.950 . S
C988 H980 0.950 . S
C988 C989 1.386 . S
C988 C990 1.391 . S
C989 C988 1.386 . S
C989 C993 1.393 . S
C990 H982 0.950 . S
C990 C988 1.391 . S
C990 C991 1.400 . S
C991 C990 1.400 . S
C991 C992 1.398 . S
C991 C997 1.491 . S
C992 H983 0.950 . S
C992 C991 1.398 . S
C992 C993 1.391 . S
C993 H981 0.950 . S
C993 C989 1.393 . S
C993 C992 1.391 . S
C994 H984 0.950 . S
C994 C995 1.386 . S
C994 C996 1.391 . S
C995 C994 1.386 . S
C995 C999 1.393 . S
C996 H985 0.950 . S
C996 C994 1.391 . S
C996 C997 1.400 . S
C997 C991 1.491 . S
C997 C996 1.400 . S
C997 C998 1.398 . S
C998 H986 0.950 . S
C998 C997 1.398 . S
C998 C999 1.391 . S
C999 H987 0.950 . S
C999 C995 1.393 . S
C999 C998 1.391 . S
H1000 C1008 0.950 . S
H1001 C1013 0.950 . S
H1002 C1010 0.950 . S
H1003 C1012 0.950 . S
H1004 C1014 0.950 . S
H1005 C1016 0.950 . S
H1006 C1018 0.950 . S
H1007 C1019 0.950 . S
C1008 H1000 0.950 . S
C1008 C1009 1.386 . S
C1008 C1010 1.391 . S
C1009 C1008 1.386 . S
C1009 C1013 1.393 . S
C1010 H1002 0.950 . S
C1010 C1008 1.391 . S
C1010 C1011 1.400 . S
C1011 C1010 1.400 . S
C1011 C1012 1.398 . S
C1011 C1017 1.491 . S
C1012 H1003 0.950 . S
C1012 C1011 1.398 . S
C1012 C1013 1.391 . S
C1013 H1001 0.950 . S
C1013 C1009 1.393 . S
C1013 C1012 1.391 . S
C1014 H1004 0.950 . S
C1014 C1015 1.386 . S
C1014 C1016 1.391 . S
C1015 C1014 1.386 . S
C1015 C1019 1.393 . S
C1016 H1005 0.950 . S
C1016 C1014 1.391 . S
C1016 C1017 1.400 . S
C1017 C1011 1.491 . S
C1017 C1016 1.400 . S
C1017 C1018 1.398 . S
C1018 H1006 0.950 . S
C1018 C1017 1.398 . S
C1018 C1019 1.391 . S
C1019 H1007 0.950 . S
C1019 C1015 1.393 . S
C1019 C1018 1.391 . S
H1020 C1028 0.950 . S
H1021 C1033 0.950 . S
H1022 C1030 0.950 . S
H1023 C1032 0.950 . S
H1024 C1034 0.950 . S
H1025 C1036 0.950 . S
H1026 C1038 0.950 . S
H1027 C1039 0.950 . S
C1028 H1020 0.950 . S
C1028 C1029 1.386 . S
C1028 C1030 1.391 . S
C1029 C1028 1.386 . S
C1029 C1033 1.393 . S
C1030 H1022 0.950 . S
C1030 C1028 1.391 . S
C1030 C1031 1.400 . S
C1031 C1030 1.400 . S
C1031 C1032 1.398 . S
C1031 C1037 1.491 . S
C1032 H1023 0.950 . S
C1032 C1031 1.398 . S
C1032 C1033 1.391 . S
C1033 H1021 0.950 . S
C1033 C1029 1.393 . S
C1033 C1032 1.391 . S
C1034 H1024 0.950 . S
C1034 C1035 1.386 . S
C1034 C1036 1.391 . S
C1035 C1034 1.386 . S
C1035 C1039 1.393 . S
C1036 H1025 0.950 . S
C1036 C1034 1.391 . S
C1036 C1037 1.400 . S
C1037 C1031 1.491 . S
C1037 C1036 1.400 . S
C1037 C1038 1.398 . S
C1038 H1026 0.950 . S
C1038 C1037 1.398 . S
C1038 C1039 1.391 . S
C1039 H1027 0.950 . S
C1039 C1035 1.393 . S
C1039 C1038 1.391 . S
H1040 C1048 0.950 . S
H1041 C1053 0.950 . S
H1042 C1050 0.950 . S
H1043 C1052 0.950 . S
H1044 C1054 0.950 . S
H1045 C1056 0.950 . S
H1046 C1058 0.950 . S
H1047 C1059 0.950 . S
C1048 H1040 0.950 . S
C1048 C1049 1.386 . S
C1048 C1050 1.391 . S
C1049 C1048 1.386 . S
C1049 C1053 1.393 . S
C1050 H1042 0.950 . S
C1050 C1048 1.391 . S
C1050 C1051 1.400 . S
C1051 C1050 1.400 . S
C1051 C1052 1.398 . S
C1051 C1057 1.491 . S
C1052 H1043 0.950 . S
C1052 C1051 1.398 . S
C1052 C1053 1.391 . S
C1053 H1041 0.950 . S
C1053 C1049 1.393 . S
C1053 C1052 1.391 . S
C1054 H1044 0.950 . S
C1054 C1055 1.386 . S
C1054 C1056 1.391 . S
C1055 C1054 1.386 . S
C1055 C1059 1.393 . S
C1056 H1045 0.950 . S
C1056 C1054 1.391 . S
C1056 C1057 1.400 . S
C1057 C1051 1.491 . S
C1057 C1056 1.400 . S
C1057 C1058 1.398 . S
C1058 H1046 0.950 . S
C1058 C1057 1.398 . S
C1058 C1059 1.391 . S
C1059 H1047 0.950 . S
C1059 C1055 1.393 . S
C1059 C1058 1.391 . S
H1060 C1068 0.950 . S
H1061 C1073 0.950 . S
H1062 C1070 0.950 . S
H1063 C1072 0.950 . S
H1064 C1074 0.950 . S
H1065 C1076 0.950 . S
H1066 C1078 0.950 . S
H1067 C1079 0.950 . S
C1068 H1060 0.950 . S
C1068 C1069 1.386 . S
C1068 C1070 1.391 . S
C1069 C1068 1.386 . S
C1069 C1073 1.393 . S
C1070 H1062 0.950 . S
C1070 C1068 1.391 . S
C1070 C1071 1.400 . S
C1071 C1070 1.400 . S
C1071 C1072 1.398 . S
C1071 C1077 1.491 . S
C1072 H1063 0.950 . S
C1072 C1071 1.398 . S
C1072 C1073 1.391 . S
C1073 H1061 0.950 . S
C1073 C1069 1.393 . S
C1073 C1072 1.391 . S
C1074 H1064 0.950 . S
C1074 C1075 1.386 . S
C1074 C1076 1.391 . S
C1075 C1074 1.386 . S
C1075 C1079 1.393 . S
C1076 H1065 0.950 . S
C1076 C1074 1.391 . S
C1076 C1077 1.400 . S
C1077 C1071 1.491 . S
C1077 C1076 1.400 . S
C1077 C1078 1.398 . S
C1078 H1066 0.950 . S
C1078 C1077 1.398 . S
C1078 C1079 1.391 . S
C1079 H1067 0.950 . S
C1079 C1075 1.393 . S
C1079 C1078 1.391 . S
H1080 C1088 0.950 . S
H1081 C1093 0.950 . S
H1082 C1090 0.950 . S
H1083 C1092 0.950 . S
H1084 C1094 0.950 . S
H1085 C1096 0.950 . S
H1086 C1098 0.950 . S
H1087 C1099 0.950 . S
C1088 H1080 0.950 . S
C1088 C1089 1.386 . S
C1088 C1090 1.391 . S
C1089 C1088 1.386 . S
C1089 C1093 1.393 . S
C1090 H1082 0.950 . S
C1090 C1088 1.391 . S
C1090 C1091 1.400 . S
C1091 C1090 1.400 . S
C1091 C1092 1.398 . S
C1091 C1097 1.491 . S
C1092 H1083 0.950 . S
C1092 C1091 1.398 . S
C1092 C1093 1.391 . S
C1093 H1081 0.950 . S
C1093 C1089 1.393 . S
C1093 C1092 1.391 . S
C1094 H1084 0.950 . S
C1094 C1095 1.386 . S
C1094 C1096 1.391 . S
C1095 C1094 1.386 . S
C1095 C1099 1.393 . S
C1096 H1085 0.950 . S
C1096 C1094 1.391 . S
C1096 C1097 1.400 . S
C1097 C1091 1.491 . S
C1097 C1096 1.400 . S
C1097 C1098 1.398 . S
C1098 H1086 0.950 . S
C1098 C1097 1.398 . S
C1098 C1099 1.391 . S
C1099 H1087 0.950 . S
C1099 C1095 1.393 . S
C1099 C1098 1.391 . S
H1100 C1108 0.950 . S
H1101 C1113 0.950 . S
H1102 C1110 0.950 . S
H1103 C1112 0.950 . S
H1104 C1114 0.950 . S
H1105 C1116 0.950 . S
H1106 C1118 0.950 . S
H1107 C1119 0.950 . S
C1108 H1100 0.950 . S
C1108 C1109 1.386 . S
C1108 C1110 1.391 . S
C1109 C1108 1.386 . S
C1109 C1113 1.393 . S
C1110 H1102 0.950 . S
C1110 C1108 1.391 . S
C1110 C1111 1.400 . S
C1111 C1110 1.400 . S
C1111 C1112 1.398 . S
C1111 C1117 1.491 . S
C1112 H1103 0.950 . S
C1112 C1111 1.398 . S
C1112 C1113 1.391 . S
C1113 H1101 0.950 . S
C1113 C1109 1.393 . S
C1113 C1112 1.391 . S
C1114 H1104 0.950 . S
C1114 C1115 1.386 . S
C1114 C1116 1.391 . S
C1115 C1114 1.386 . S
C1115 C1119 1.393 . S
C1116 H1105 0.950 . S
C1116 C1114 1.391 . S
C1116 C1117 1.400 . S
C1117 C1111 1.491 . S
C1117 C1116 1.400 . S
C1117 C1118 1.398 . S
C1118 H1106 0.950 . S
C1118 C1117 1.398 . S
C1118 C1119 1.391 . S
C1119 H1107 0.950 . S
C1119 C1115 1.393 . S
C1119 C1118 1.391 . S
C649 C1 1.180 . S
C655 C487 1.296 . S
C669 C80 0.954 . S
C675 C536 0.989 . S
C695 C562 2.449 . S
C689 C140 2.435 . S
C709 C211 2.351 . S
C715 C610 2.330 . S
C735 C522 2.500 . S
C729 C31 2.234 . S
C755 C490 0.872 . S
C749 C61 0.885 . S
C775 C611 1.896 . S
C769 C151 1.902 . S
C795 C579 1.567 . S
C789 C200 1.579 . S
C809 C20 1.682 . S
C815 C607 1.774 . S
C835 C539 2.323 . S
C829 C121 2.376 . S
C849 C181 2.286 . S
C855 C491 2.332 . S
C869 C91 0.902 . S
C875 C576 0.891 . S
C895 C496 1.294 . S
C889 C260 1.224 . S
C909 C320 0.962 . S
C915 C527 0.993 . S
C929 C361 2.434 . S
C935 C571 2.445 . S
C949 C451 2.353 . S
C955 C619 2.328 . S
C969 C271 2.324 . S
C975 C531 2.504 . S
C995 C499 0.864 . S
C989 C301 0.873 . S
C1015 C602 1.894 . S
C1009 C380 1.887 . S
C1035 C570 1.568 . S
C1029 C440 1.569 . S
C1049 C241 1.608 . S
C1055 C616 1.775 . S
C1075 C530 2.311 . S
C1069 C391 2.377 . S
C1095 C482 2.326 . S
C1089 C421 2.285 . S
C1109 C331 0.894 . S
C1115 C567 0.876 . S
