# Generated by pormake.
# Topology llk, (3,12)-cn, num edge types: 1
# Building blocks:
#     Node 0, Type 0, BuildingBlock: MIDCAF_clean_linker_0, # of connection points: 3
#     Node 1, Type 0, BuildingBlock: MIDCAF_clean_linker_0, # of connection points: 3
#     Node 2, Type 0, BuildingBlock: MIDCAF_clean_linker_0, # of connection points: 3
#     Node 3, Type 0, BuildingBlock: MIDCAF_clean_linker_0, # of connection points: 3
#     Node 4, Type 0, BuildingBlock: MIDCAF_clean_linker_0, # of connection points: 3
#     Node 5, Type 0, BuildingBlock: MIDCAF_clean_linker_0, # of connection points: 3
#     Node 6, Type 0, BuildingBlock: MIDCAF_clean_linker_0, # of connection points: 3
#     Node 7, Type 0, BuildingBlock: MIDCAF_clean_linker_0, # of connection points: 3
#     Node 8, Type 0, BuildingBlock: MIDCAF_clean_linker_0, # of connection points: 3
#     Node 9, Type 0, BuildingBlock: MIDCAF_clean_linker_0, # of connection points: 3
#     Node 10, Type 0, BuildingBlock: MIDCAF_clean_linker_0, # of connection points: 3
#     Node 11, Type 0, BuildingBlock: MIDCAF_clean_linker_0, # of connection points: 3
#     Node 12, Type 0, BuildingBlock: MIDCAF_clean_linker_0, # of connection points: 3
#     Node 13, Type 0, BuildingBlock: MIDCAF_clean_linker_0, # of connection points: 3
#     Node 14, Type 0, BuildingBlock: MIDCAF_clean_linker_0, # of connection points: 3
#     Node 15, Type 0, BuildingBlock: MIDCAF_clean_linker_0, # of connection points: 3
#     Node 16, Type 0, BuildingBlock: MIDCAF_clean_linker_0, # of connection points: 3
#     Node 17, Type 0, BuildingBlock: MIDCAF_clean_linker_0, # of connection points: 3
#     Node 18, Type 0, BuildingBlock: MIDCAF_clean_linker_0, # of connection points: 3
#     Node 19, Type 0, BuildingBlock: MIDCAF_clean_linker_0, # of connection points: 3
#     Node 20, Type 0, BuildingBlock: MIDCAF_clean_linker_0, # of connection points: 3
#     Node 21, Type 0, BuildingBlock: MIDCAF_clean_linker_0, # of connection points: 3
#     Node 22, Type 0, BuildingBlock: MIDCAF_clean_linker_0, # of connection points: 3
#     Node 23, Type 0, BuildingBlock: MIDCAF_clean_linker_0, # of connection points: 3
#     Node 24, Type 1, BuildingBlock: QEWDON_clean_sbu_0, # of connection points: 12
#     Node 25, Type 1, BuildingBlock: QEWDON_clean_sbu_0, # of connection points: 12
#     Node 26, Type 1, BuildingBlock: QEWDON_clean_sbu_0, # of connection points: 12
#     Node 27, Type 1, BuildingBlock: QEWDON_clean_sbu_0, # of connection points: 12
#     Node 28, Type 1, BuildingBlock: QEWDON_clean_sbu_0, # of connection points: 12
#     Node 29, Type 1, BuildingBlock: QEWDON_clean_sbu_0, # of connection points: 12
#     Edge 30, Type (0, 1), BuildingBlock: CIFDUS_clean_linker_0, # of connection points: 2
#     Edge 31, Type (0, 1), BuildingBlock: CIFDUS_clean_linker_0, # of connection points: 2
#     Edge 32, Type (0, 1), BuildingBlock: CIFDUS_clean_linker_0, # of connection points: 2
#     Edge 33, Type (0, 1), BuildingBlock: CIFDUS_clean_linker_0, # of connection points: 2
#     Edge 34, Type (0, 1), BuildingBlock: CIFDUS_clean_linker_0, # of connection points: 2
#     Edge 35, Type (0, 1), BuildingBlock: CIFDUS_clean_linker_0, # of connection points: 2
#     Edge 36, Type (0, 1), BuildingBlock: CIFDUS_clean_linker_0, # of connection points: 2
#     Edge 37, Type (0, 1), BuildingBlock: CIFDUS_clean_linker_0, # of connection points: 2
#     Edge 38, Type (0, 1), BuildingBlock: CIFDUS_clean_linker_0, # of connection points: 2
#     Edge 39, Type (0, 1), BuildingBlock: CIFDUS_clean_linker_0, # of connection points: 2
#     Edge 40, Type (0, 1), BuildingBlock: CIFDUS_clean_linker_0, # of connection points: 2
#     Edge 41, Type (0, 1), BuildingBlock: CIFDUS_clean_linker_0, # of connection points: 2
#     Edge 42, Type (0, 1), BuildingBlock: CIFDUS_clean_linker_0, # of connection points: 2
#     Edge 43, Type (0, 1), BuildingBlock: CIFDUS_clean_linker_0, # of connection points: 2
#     Edge 44, Type (0, 1), BuildingBlock: CIFDUS_clean_linker_0, # of connection points: 2
#     Edge 45, Type (0, 1), BuildingBlock: CIFDUS_clean_linker_0, # of connection points: 2
#     Edge 46, Type (0, 1), BuildingBlock: CIFDUS_clean_linker_0, # of connection points: 2
#     Edge 47, Type (0, 1), BuildingBlock: CIFDUS_clean_linker_0, # of connection points: 2
#     Edge 48, Type (0, 1), BuildingBlock: CIFDUS_clean_linker_0, # of connection points: 2
#     Edge 49, Type (0, 1), BuildingBlock: CIFDUS_clean_linker_0, # of connection points: 2
#     Edge 50, Type (0, 1), BuildingBlock: CIFDUS_clean_linker_0, # of connection points: 2
#     Edge 51, Type (0, 1), BuildingBlock: CIFDUS_clean_linker_0, # of connection points: 2
#     Edge 52, Type (0, 1), BuildingBlock: CIFDUS_clean_linker_0, # of connection points: 2
#     Edge 53, Type (0, 1), BuildingBlock: CIFDUS_clean_linker_0, # of connection points: 2
#     Edge 54, Type (0, 1), BuildingBlock: CIFDUS_clean_linker_0, # of connection points: 2
#     Edge 55, Type (0, 1), BuildingBlock: CIFDUS_clean_linker_0, # of connection points: 2
#     Edge 56, Type (0, 1), BuildingBlock: CIFDUS_clean_linker_0, # of connection points: 2
#     Edge 57, Type (0, 1), BuildingBlock: CIFDUS_clean_linker_0, # of connection points: 2
#     Edge 58, Type (0, 1), BuildingBlock: CIFDUS_clean_linker_0, # of connection points: 2
#     Edge 59, Type (0, 1), BuildingBlock: CIFDUS_clean_linker_0, # of connection points: 2
#     Edge 60, Type (0, 1), BuildingBlock: CIFDUS_clean_linker_0, # of connection points: 2
#     Edge 61, Type (0, 1), BuildingBlock: CIFDUS_clean_linker_0, # of connection points: 2
#     Edge 62, Type (0, 1), BuildingBlock: CIFDUS_clean_linker_0, # of connection points: 2
#     Edge 63, Type (0, 1), BuildingBlock: CIFDUS_clean_linker_0, # of connection points: 2
#     Edge 64, Type (0, 1), BuildingBlock: CIFDUS_clean_linker_0, # of connection points: 2
#     Edge 65, Type (0, 1), BuildingBlock: CIFDUS_clean_linker_0, # of connection points: 2
#     Edge 66, Type (0, 1), BuildingBlock: CIFDUS_clean_linker_0, # of connection points: 2
#     Edge 67, Type (0, 1), BuildingBlock: CIFDUS_clean_linker_0, # of connection points: 2
#     Edge 68, Type (0, 1), BuildingBlock: CIFDUS_clean_linker_0, # of connection points: 2
#     Edge 69, Type (0, 1), BuildingBlock: CIFDUS_clean_linker_0, # of connection points: 2
#     Edge 70, Type (0, 1), BuildingBlock: CIFDUS_clean_linker_0, # of connection points: 2
#     Edge 71, Type (0, 1), BuildingBlock: CIFDUS_clean_linker_0, # of connection points: 2
#     Edge 72, Type (0, 1), BuildingBlock: CIFDUS_clean_linker_0, # of connection points: 2
#     Edge 73, Type (0, 1), BuildingBlock: CIFDUS_clean_linker_0, # of connection points: 2
#     Edge 74, Type (0, 1), BuildingBlock: CIFDUS_clean_linker_0, # of connection points: 2
#     Edge 75, Type (0, 1), BuildingBlock: CIFDUS_clean_linker_0, # of connection points: 2
#     Edge 76, Type (0, 1), BuildingBlock: CIFDUS_clean_linker_0, # of connection points: 2
#     Edge 77, Type (0, 1), BuildingBlock: CIFDUS_clean_linker_0, # of connection points: 2
#     Edge 78, Type (0, 1), BuildingBlock: CIFDUS_clean_linker_0, # of connection points: 2
#     Edge 79, Type (0, 1), BuildingBlock: CIFDUS_clean_linker_0, # of connection points: 2
#     Edge 80, Type (0, 1), BuildingBlock: CIFDUS_clean_linker_0, # of connection points: 2
#     Edge 81, Type (0, 1), BuildingBlock: CIFDUS_clean_linker_0, # of connection points: 2
#     Edge 82, Type (0, 1), BuildingBlock: CIFDUS_clean_linker_0, # of connection points: 2
#     Edge 83, Type (0, 1), BuildingBlock: CIFDUS_clean_linker_0, # of connection points: 2
#     Edge 84, Type (0, 1), BuildingBlock: CIFDUS_clean_linker_0, # of connection points: 2
#     Edge 85, Type (0, 1), BuildingBlock: CIFDUS_clean_linker_0, # of connection points: 2
#     Edge 86, Type (0, 1), BuildingBlock: CIFDUS_clean_linker_0, # of connection points: 2
#     Edge 87, Type (0, 1), BuildingBlock: CIFDUS_clean_linker_0, # of connection points: 2
#     Edge 88, Type (0, 1), BuildingBlock: CIFDUS_clean_linker_0, # of connection points: 2
#     Edge 89, Type (0, 1), BuildingBlock: CIFDUS_clean_linker_0, # of connection points: 2
#     Edge 90, Type (0, 1), BuildingBlock: CIFDUS_clean_linker_0, # of connection points: 2
#     Edge 91, Type (0, 1), BuildingBlock: CIFDUS_clean_linker_0, # of connection points: 2
#     Edge 92, Type (0, 1), BuildingBlock: CIFDUS_clean_linker_0, # of connection points: 2
#     Edge 93, Type (0, 1), BuildingBlock: CIFDUS_clean_linker_0, # of connection points: 2
#     Edge 94, Type (0, 1), BuildingBlock: CIFDUS_clean_linker_0, # of connection points: 2
#     Edge 95, Type (0, 1), BuildingBlock: CIFDUS_clean_linker_0, # of connection points: 2
#     Edge 96, Type (0, 1), BuildingBlock: CIFDUS_clean_linker_0, # of connection points: 2
#     Edge 97, Type (0, 1), BuildingBlock: CIFDUS_clean_linker_0, # of connection points: 2
#     Edge 98, Type (0, 1), BuildingBlock: CIFDUS_clean_linker_0, # of connection points: 2
#     Edge 99, Type (0, 1), BuildingBlock: CIFDUS_clean_linker_0, # of connection points: 2
#     Edge 100, Type (0, 1), BuildingBlock: CIFDUS_clean_linker_0, # of connection points: 2
#     Edge 101, Type (0, 1), BuildingBlock: CIFDUS_clean_linker_0, # of connection points: 2
# Relax obj value: 0.130
# Max RMSD: 0.164
# Mean RMSD: 0.148
data_MOF--net-llk--node1-QEWDON_clean_sbu_0--node2-MIDCAF_clean_linker_0--edge1-CIFDUS_clean_linker_0
_symmetry_space_group_name_H-M    P1
_symmetry_Int_Tables_number       1
_symmetry_cell_setting            triclinic
loop_
_symmetry_equiv_pos_as_xyz
'x, y, z'
_cell_length_a     49.784733
_cell_length_b     51.747588
_cell_length_c     50.798483
_cell_angle_alpha  90.015592
_cell_angle_beta   90.064946
_cell_angle_gamma 89.729269
loop_
_atom_site_label
_atom_site_type_symbol
_atom_site_fract_x
_atom_site_fract_y
_atom_site_fract_z
_atom_type_partial_charge
C0 C 0.08042 0.30971 0.18637 0.0
C1 C 0.05592 0.31907 0.17608 0.0
C2 C 0.03184 0.30997 0.18723 0.0
C3 C 0.03231 0.29385 0.20941 0.0
H4 H 0.03947 0.20311 0.26159 0.0
H5 H 0.0317 0.16235 0.28492 0.0
H6 H 0.07311 0.19264 0.35302 0.0
H7 H 0.08164 0.23239 0.32954 0.0
H8 H 0.05704 0.28834 0.34649 0.0
H9 H 0.04597 0.32174 0.37849 0.0
H10 H 0.03479 0.37673 0.3154 0.0
H11 H 0.04633 0.34362 0.28339 0.0
H12 H 0.09996 0.28849 0.21734 0.0
H13 H 0.0994 0.31644 0.17865 0.0
H14 H 0.01258 0.31632 0.17964 0.0
H15 H 0.01351 0.289 0.2189 0.0
N16 N 0.05933 0.25324 0.25671 0.0
N17 N 0.05859 0.26754 0.30069 0.0
N18 N 0.05563 0.29762 0.26668 0.0
C19 C 0.06019 0.24786 0.2831 0.0
C20 C 0.05623 0.29237 0.29275 0.0
C21 C 0.05734 0.2784 0.24861 0.0
C22 C 0.06084 0.22112 0.2938 0.0
C23 C 0.04768 0.20062 0.28119 0.0
C24 C 0.04297 0.17739 0.29475 0.0
C25 C 0.05133 0.17423 0.32116 0.0
C26 C 0.06645 0.19405 0.33278 0.0
C27 C 0.07116 0.21708 0.31929 0.0
C28 C 0.05231 0.31321 0.31231 0.0
C29 C 0.05253 0.30761 0.33941 0.0
C30 C 0.04608 0.3267 0.35777 0.0
C31 C 0.03931 0.35177 0.34944 0.0
C32 C 0.04018 0.35765 0.32245 0.0
C33 C 0.04665 0.33859 0.30408 0.0
C34 C 0.05679 0.2861 0.22068 0.0
C35 C 0.08082 0.29348 0.20848 0.0
C36 C 0.74456 0.06529 0.12807 0.0
C37 C 0.7289 0.0875 0.12325 0.0
C38 C 0.73329 0.10964 0.13868 0.0
C39 C 0.74942 0.10815 0.16115 0.0
H40 H 0.81583 0.03107 0.25373 0.0
H41 H 0.84448 0.03135 0.29277 0.0
H42 H 0.8401 0.11478 0.29472 0.0
H43 H 0.81219 0.11426 0.25505 0.0
H44 H 0.73468 0.04331 0.28265 0.0
H45 H 0.69336 0.03917 0.30807 0.0
H46 H 0.6486 0.0759 0.24562 0.0
H47 H 0.68983 0.07971 0.21962 0.0
H48 H 0.7696 0.04541 0.15585 0.0
H49 H 0.74164 0.04787 0.11661 0.0
H50 H 0.72181 0.12714 0.13517 0.0
H51 H 0.74949 0.12429 0.17474 0.0
N52 N 0.78758 0.07838 0.20939 0.0
N53 N 0.76462 0.06608 0.24789 0.0
N54 N 0.7406 0.07305 0.20913 0.0
C55 C 0.78785 0.07191 0.23539 0.0
C56 C 0.74089 0.06667 0.23493 0.0
C57 C 0.7637 0.07868 0.19627 0.0
C58 C 0.81231 0.07264 0.25133 0.0
C59 C 0.82216 0.04944 0.26183 0.0
C60 C 0.83806 0.04964 0.28445 0.0
C61 C 0.8439 0.07307 0.29726 0.0
C62 C 0.83597 0.09642 0.28534 0.0
C63 C 0.82023 0.09618 0.2625 0.0
C64 C 0.71556 0.06199 0.24919 0.0
C65 C 0.71603 0.05022 0.27411 0.0
C66 C 0.69245 0.04773 0.28861 0.0
C67 C 0.66809 0.05725 0.27861 0.0
C68 C 0.66731 0.06845 0.25354 0.0
C69 C 0.69086 0.07055 0.23877 0.0
C70 C 0.76154 0.08464 0.16821 0.0
C71 C 0.76077 0.06387 0.15051 0.0
C72 C 0.02867 0.7172 0.16932 0.0
C73 C 0.00307 0.70626 0.1656 0.0
C74 C 0.98199 0.71424 0.18222 0.0
C75 C 0.98703 0.73078 0.20352 0.0
H76 H 0.98961 0.81562 0.25401 0.0
H77 H 0.97896 0.85572 0.2776 0.0
H78 H 0.03804 0.83624 0.3368 0.0
H79 H 0.04895 0.7969 0.31327 0.0
H80 H 0.04681 0.7358 0.32933 0.0
H81 H 0.04824 0.69934 0.3595 0.0
H82 H 0.04818 0.64655 0.29367 0.0
H83 H 0.04648 0.68289 0.26334 0.0
H84 H 0.05407 0.73974 0.19435 0.0
H85 H 0.04559 0.71131 0.15734 0.0
H86 H 0.96198 0.70647 0.17978 0.0
H87 H 0.97107 0.73471 0.21747 0.0
N88 N 0.01697 0.77156 0.24475 0.0
N89 N 0.0347 0.75797 0.28545 0.0
N90 N 0.03123 0.72857 0.25086 0.0
C91 C 0.02437 0.77706 0.27003 0.0
C92 C 0.03817 0.7337 0.27606 0.0
C93 C 0.0208 0.74723 0.23516 0.0
C94 C 0.01994 0.80293 0.28186 0.0
C95 C 0.00064 0.8202 0.27179 0.0
C96 C 0.9944 0.84305 0.28541 0.0
C97 C 0.00756 0.84913 0.30916 0.0
C98 C 0.0277 0.83237 0.31845 0.0
C99 C 0.03379 0.80962 0.30501 0.0
C100 C 0.04575 0.71229 0.29392 0.0
C101 C 0.04782 0.71648 0.3212 0.0
C102 C 0.04884 0.69556 0.33853 0.0
C103 C 0.04785 0.67015 0.32888 0.0
C104 C 0.04851 0.66599 0.30159 0.0
C105 C 0.04752 0.68686 0.28426 0.0
C106 C 0.01314 0.73971 0.20836 0.0
C107 C 0.03362 0.73365 0.19052 0.0
C108 C 0.31504 0.94365 0.1839 0.0
C109 C 0.31697 0.96194 0.16354 0.0
C110 C 0.29799 0.98222 0.16254 0.0
C111 C 0.27924 0.98548 0.18283 0.0
H112 H 0.21041 0.04263 0.24904 0.0
H113 H 0.16989 0.05827 0.27119 0.0
H114 H 0.14741 0.9791 0.28722 0.0
H115 H 0.18679 0.96406 0.2639 0.0
H116 H 0.25628 0.00376 0.32269 0.0
H117 H 0.28352 0.00424 0.3626 0.0
H118 H 0.34451 0.95888 0.32336 0.0
H119 H 0.31736 0.95816 0.2835 0.0
H120 H 0.29705 0.93386 0.22078 0.0
H121 H 0.32882 0.92742 0.18491 0.0
H122 H 0.29895 0.99677 0.14726 0.0
H123 H 0.26623 0.00233 0.18265 0.0
N124 N 0.24038 0.98587 0.2293 0.0
N125 N 0.24358 0.9915 0.27517 0.0
N126 N 0.2798 0.97401 0.25206 0.0
C127 C 0.22927 0.99344 0.25255 0.0
C128 C 0.26888 0.98191 0.27513 0.0
C129 C 0.2658 0.97594 0.22916 0.0
C130 C 0.20137 0.0022 0.25464 0.0
C131 C 0.19581 0.02874 0.25597 0.0
C132 C 0.17287 0.03763 0.26913 0.0
C133 C 0.15559 0.02007 0.28178 0.0
C134 C 0.15987 0.99341 0.27772 0.0
C135 C 0.18251 0.98462 0.26422 0.0
C136 C 0.28468 0.98098 0.29981 0.0
C137 C 0.27538 0.99366 0.3226 0.0
C138 C 0.291 0.99406 0.34545 0.0
C139 C 0.31607 0.98158 0.34608 0.0
C140 C 0.32508 0.96839 0.32354 0.0
C141 C 0.3096 0.96815 0.30063 0.0
C142 C 0.27948 0.96873 0.20452 0.0
C143 C 0.29672 0.94721 0.20434 0.0
C144 C 0.01777 0.68457 0.82758 0.0
C145 C 0.01639 0.69659 0.85235 0.0
C146 C 0.01039 0.72325 0.85341 0.0
C147 C 0.00388 0.73698 0.83041 0.0
H148 H 0.93868 0.80452 0.74371 0.0
H149 H 0.94214 0.84468 0.71895 0.0
H150 H 0.02877 0.83957 0.72332 0.0
H151 H 0.02495 0.80006 0.7494 0.0
H152 H 0.95057 0.74181 0.6928 0.0
H153 H 0.94396 0.71114 0.65698 0.0
H154 H 0.95093 0.64784 0.71197 0.0
H155 H 0.95721 0.67828 0.7478 0.0
H156 H 0.01118 0.68784 0.78624 0.0
H157 H 0.02201 0.6641 0.82583 0.0
H158 H 0.00949 0.7332 0.87215 0.0
H159 H -0.0022 0.75705 0.83196 0.0
N160 N 0.99162 0.76217 0.77783 0.0
N161 N 0.96662 0.756 0.73894 0.0
N162 N 0.97789 0.72058 0.76512 0.0
C163 C 0.97931 0.77204 0.75599 0.0
C164 C 0.96579 0.73024 0.74336 0.0
C165 C 0.99067 0.73621 0.7825 0.0
C166 C 0.98154 0.79941 0.74853 0.0
C167 C 0.95839 0.81264 0.74025 0.0
C168 C 0.96044 0.83541 0.7257 0.0
C169 C 0.98574 0.84508 0.71846 0.0
C170 C 0.00893 0.83285 0.72858 0.0
C171 C 0.00681 0.81024 0.74363 0.0
C172 C 0.9552 0.71246 0.72306 0.0
C173 C 0.94989 0.72139 0.69742 0.0
C174 C 0.94609 0.70385 0.67686 0.0
C175 C 0.94737 0.67713 0.68163 0.0
C176 C 0.94974 0.66832 0.70768 0.0
C177 C 0.95365 0.68582 0.7282 0.0
C178 C 0.00309 0.7242 0.80604 0.0
C179 C 0.01121 0.69818 0.80479 0.0
C180 C 0.22587 0.04646 0.71546 0.0
C181 C 0.20552 0.02779 0.71574 0.0
C182 C 0.20335 0.01145 0.73785 0.0
C183 C 0.22233 0.0125 0.75823 0.0
H184 H 0.30387 0.96385 0.82649 0.0
H185 H 0.32641 0.95367 0.86792 0.0
H186 H 0.30076 0.02748 0.8992 0.0
H187 H 0.2774 0.03674 0.85833 0.0
H188 H 0.36381 0.0137 0.79351 0.0
H189 H 0.40595 0.02025 0.76987 0.0
H190 H 0.36583 0.07328 0.71707 0.0
H191 H 0.32385 0.06681 0.7405 0.0
H192 H 0.26083 0.06144 0.73418 0.0
H193 H 0.22829 0.05931 0.69882 0.0
H194 H 0.18753 0.99721 0.73897 0.0
H195 H 0.22103 0.99872 0.77422 0.0
N196 N 0.26589 0.01574 0.79857 0.0
N197 N 0.31271 0.02037 0.80335 0.0
N198 N 0.29148 0.03583 0.76557 0.0
C199 C 0.28878 0.01229 0.81295 0.0
C200 C 0.3142 0.03228 0.77976 0.0
C201 C 0.26732 0.02765 0.77461 0.0
C202 C 0.2889 1.00102 0.83939 0.0
C203 C 0.30161 0.97702 0.84294 0.0
C204 C 0.31496 0.97146 0.86652 0.0
C205 C 0.31632 0.99013 0.88663 0.0
C206 C 0.3003 0.01255 0.88428 0.0
C207 C 0.28665 0.0179 0.86083 0.0
C208 C 0.34044 0.03945 0.76856 0.0
C209 C 0.36414 0.02725 0.77725 0.0
C210 C 0.38826 0.03096 0.76377 0.0
C211 C 0.3891 0.04722 0.74167 0.0
C212 C 0.36585 0.06087 0.73424 0.0
C213 C 0.34172 0.05693 0.74748 0.0
C214 C 0.24383 0.0299 0.75681 0.0
C215 C 0.24471 0.04753 0.73574 0.0
C216 C 0.97018 0.32643 0.83583 0.0
C217 C 0.99008 0.32582 0.85541 0.0
C218 C 0.01333 0.31082 0.85143 0.0
C219 C 0.01713 0.29757 0.82767 0.0
H220 H 0.00032 0.21463 0.76672 0.0
H221 H 0.00235 0.17467 0.74099 0.0
H222 H 0.06321 0.20855 0.69129 0.0
H223 H 0.06161 0.2477 0.71735 0.0
H224 H 0.01558 0.29112 0.68331 0.0
H225 H 0.01366 0.32119 0.64677 0.0
H226 H 0.99073 0.38258 0.6999 0.0
H227 H 0.99229 0.35234 0.73682 0.0
H228 H 0.9594 0.31588 0.79646 0.0
H229 H 0.95227 0.33815 0.83833 0.0
H230 H 0.029 0.31027 0.86623 0.0
H231 H 0.03575 0.28712 0.82446 0.0
N232 N 0.01488 0.26718 0.77587 0.0
N233 N 0.01828 0.27757 0.73105 0.0
N234 N 0.00088 0.30804 0.76031 0.0
C235 C 0.02186 0.26046 0.75089 0.0
C236 C 0.00777 0.30129 0.73543 0.0
C237 C 0.00451 0.29119 0.78057 0.0
C238 C 0.03056 0.23422 0.74372 0.0
C239 C 0.01512 0.21287 0.7512 0.0
C240 C 0.01602 0.19018 0.73618 0.0
C241 C 0.03236 0.18869 0.71358 0.0
C242 C 0.05036 0.20889 0.70847 0.0
C243 C 0.04945 0.23144 0.72342 0.0
C244 C 0.00443 0.31939 0.71313 0.0
C245 C 0.00992 0.31096 0.68734 0.0
C246 C 0.00885 0.32817 0.66633 0.0
C247 C 0.00227 0.35421 0.67055 0.0
C248 C 0.99567 0.36252 0.69609 0.0
C249 C 0.99674 0.34524 0.71723 0.0
C250 C -0.00194 0.29982 0.80741 0.0
C251 C 0.9743 0.31382 0.8119 0.0
C252 C 0.87521 0.99295 0.74429 0.0
C253 C 0.89005 0.01546 0.73941 0.0
C254 C 0.88332 0.03819 0.75323 0.0
C255 C 0.85998 0.03931 0.76856 0.0
H256 H 0.79032 0.02485 0.84679 0.0
H257 H 0.76117 0.02551 0.88553 0.0
H258 H 0.69673 0.05719 0.83823 0.0
H259 H 0.72586 0.05746 0.80024 0.0
H260 H 0.72494 0.04848 0.73797 0.0
H261 H 0.69969 0.04477 0.69687 0.0
H262 H 0.76037 0.99339 0.66574 0.0
H263 H 0.78587 0.99721 0.70663 0.0
H264 H 0.83891 0.97737 0.76012 0.0
H265 H 0.87978 0.97516 0.73395 0.0
H266 H 0.89464 0.05576 0.75014 0.0
H267 H 0.85345 0.05783 0.77627 0.0
N268 N 0.80204 0.02961 0.79548 0.0
N269 N 0.76085 0.03292 0.77283 0.0
N270 N 0.79937 0.01993 0.75031 0.0
C271 C 0.7751 0.03489 0.79561 0.0
C272 C 0.77285 0.02543 0.75017 0.0
C273 C 0.81409 0.02206 0.77262 0.0
C274 C 0.76026 0.04055 0.82028 0.0
C275 C 0.7702 0.0327 0.84493 0.0
C276 C 0.75339 0.03289 0.86707 0.0
C277 C 0.72637 0.04093 0.86496 0.0
C278 C 0.71737 0.05097 0.84081 0.0
C279 C 0.73409 0.05083 0.81882 0.0
C280 C 0.75737 0.02314 0.72552 0.0
C281 C 0.73291 0.03642 0.72237 0.0
C282 C 0.71859 0.03447 0.69883 0.0
C283 C 0.72827 0.01891 0.67823 0.0
C284 C 0.75257 0.0055 0.6814 0.0
C285 C 0.76713 0.00776 0.70476 0.0
C286 C 0.84313 0.01775 0.77017 0.0
C287 C 0.85185 0.99415 0.75946 0.0
C288 C 0.1566 0.29352 0.98756 0.0
C289 C 0.14173 0.30306 0.00908 0.0
C290 C 0.15026 0.29682 0.03471 0.0
C291 C 0.17467 0.28399 0.03874 0.0
H292 H 0.25679 0.20871 0.99081 0.0
H293 H 0.29167 0.17546 0.98453 0.0
H294 H 0.33522 0.20667 0.05107 0.0
H295 H 0.30006 0.23768 0.05819 0.0
H296 H 0.30823 0.2981 0.05716 0.0
H297 H 0.33864 0.33447 0.05776 0.0
H298 H 0.27937 0.38138 0.01762 0.0
H299 H 0.24876 0.34446 0.01658 0.0
H300 H 0.19347 0.27585 0.97483 0.0
H301 H 0.15073 0.29817 0.96758 0.0
H302 H 0.13908 0.30357 0.05167 0.0
H303 H 0.1821 0.28172 0.05867 0.0
N304 N 0.23277 0.25082 0.02034 0.0
N305 N 0.27294 0.27181 0.03141 0.0
N306 N 0.23367 0.29601 0.02714 0.0
C307 C 0.25965 0.24979 0.02563 0.0
C308 C 0.26032 0.29489 0.03209 0.0
C309 C 0.21977 0.27414 0.02155 0.0
C310 C 0.27576 0.22576 0.02495 0.0
C311 C 0.27335 0.20754 0.00461 0.0
C312 C 0.29363 0.18888 0.00075 0.0
C313 C 0.31663 0.18833 0.01709 0.0
C314 C 0.31787 0.2058 0.03826 0.0
C315 C 0.29764 0.2239 0.04229 0.0
C316 C 0.27625 0.31838 0.03653 0.0
C317 C 0.30144 0.31627 0.04883 0.0
C318 C 0.31881 0.3372 0.0494 0.0
C319 C 0.3114 0.36073 0.03765 0.0
C320 C 0.28561 0.36335 0.02663 0.0
C321 C 0.26807 0.34233 0.0262 0.0
C322 C 0.19077 0.27686 0.01726 0.0
C323 C 0.18102 0.28059 0.99165 0.0
C324 C 0.14649 0.7312 0.01622 0.0
C325 C 0.14479 0.71815 0.0405 0.0
C326 C 0.15872 0.72837 0.06221 0.0
C327 C 0.17616 0.74932 0.05902 0.0
H328 H 0.23981 0.83988 0.98714 0.0
H329 H 0.26916 0.87779 0.98585 0.0
H330 H 0.29587 0.86045 0.06498 0.0
H331 H 0.26596 0.82357 0.06622 0.0
H332 H 0.30608 0.76262 0.02905 0.0
H333 H 0.33851 0.72725 0.0321 0.0
H334 H 0.27683 0.67288 0.01026 0.0
H335 H 0.24437 0.70811 0.007 0.0
H336 H 0.16744 0.75957 0.99342 0.0
H337 H 0.13623 0.7238 0.99901 0.0
H338 H 0.15762 0.71902 0.08125 0.0
H339 H 0.18884 0.75488 0.07541 0.0
N340 N 0.2141 0.79578 0.02909 0.0
N341 N 0.25914 0.78383 0.02084 0.0
N342 N 0.22622 0.75211 0.02353 0.0
C343 C 0.24036 0.80249 0.025 0.0
C344 C 0.25214 0.75863 0.01991 0.0
C345 C 0.20716 0.77024 0.02809 0.0
C346 C 0.2501 0.82929 0.02706 0.0
C347 C 0.25102 0.8451 0.00463 0.0
C348 C 0.2683 0.86649 0.00375 0.0
C349 C 0.28528 0.87227 0.02521 0.0
C350 C 0.28295 0.85715 0.04817 0.0
C351 C 0.26564 0.83596 0.04903 0.0
C352 C 0.27264 0.73811 0.01802 0.0
C353 C 0.29953 0.7432 0.02448 0.0
C354 C 0.318 0.72297 0.0265 0.0
C355 C 0.30995 0.6974 0.02181 0.0
C356 C 0.28346 0.69245 0.01402 0.0
C357 C 0.26493 0.71262 0.01223 0.0
C358 C 0.18016 0.76038 0.03408 0.0
C359 C 0.16412 0.75201 0.01303 0.0
C360 C 0.8964 0.31527 0.97755 0.0
C361 C 0.90265 0.31667 0.00452 0.0
C362 C 0.88985 0.2993 0.02181 0.0
C363 C 0.86912 0.28324 0.01284 0.0
H364 H 0.80687 0.20402 0.99565 0.0
H365 H 0.77966 0.16456 0.99302 0.0
H366 H 0.73322 0.19872 0.92996 0.0
H367 H 0.76045 0.23726 0.93229 0.0
H368 H 0.74015 0.29652 0.94774 0.0
H369 H 0.70828 0.33239 0.9482 0.0
H370 H 0.76565 0.37934 0.99009 0.0
H371 H 0.79772 0.3435 0.98969 0.0
H372 H 0.86947 0.30065 0.94827 0.0
H373 H 0.90557 0.32835 0.96361 0.0
H374 H 0.89449 0.29947 0.04265 0.0
H375 H 0.85771 0.2722 0.02704 0.0
N376 N 0.82375 0.25335 0.97602 0.0
N377 N 0.78101 0.27053 0.96605 0.0
N378 N 0.81602 0.29832 0.97679 0.0
C379 C 0.7975 0.24971 0.96885 0.0
C380 C 0.79002 0.29481 0.9702 0.0
C381 C 0.83301 0.27797 0.97956 0.0
C382 C 0.78572 0.22378 0.96429 0.0
C383 C 0.79138 0.20263 0.98075 0.0
C384 C 0.77556 0.18018 0.9794 0.0
C385 C 0.754 0.17841 0.96138 0.0
C386 C 0.74971 0.19904 0.94387 0.0
C387 C 0.76528 0.22133 0.94534 0.0
C388 C 0.77143 0.31711 0.96876 0.0
C389 C 0.7461 0.31453 0.95685 0.0
C390 C 0.72792 0.33512 0.95694 0.0
C391 C 0.73458 0.3586 0.96915 0.0
C392 C 0.76004 0.36139 0.98064 0.0
C393 C 0.77838 0.34089 0.98028 0.0
C394 C 0.86103 0.28408 0.98641 0.0
C395 C 0.87576 0.29921 0.96865 0.0
C396 C 0.7395 0.84386 0.02042 0.0
C397 C 0.73402 0.85644 0.9964 0.0
C398 C 0.75145 0.85161 0.97498 0.0
C399 C 0.77119 0.83219 0.97654 0.0
H400 H 0.86431 0.77629 0.00084 0.0
H401 H 0.90581 0.75076 0.00062 0.0
H402 H 0.86367 0.68911 0.96047 0.0
H403 H 0.82394 0.71527 0.95895 0.0
H404 H 0.77803 0.69541 0.01214 0.0
H405 H 0.74323 0.66344 0.02118 0.0
H406 H 0.68289 0.72359 0.01943 0.0
H407 H 0.71734 0.75558 0.01051 0.0
H408 H 0.76133 0.81404 0.04015 0.0
H409 H 0.72685 0.84648 0.0375 0.0
H410 H 0.74875 0.86153 0.95641 0.0
H411 H 0.78206 0.82674 0.95891 0.0
N412 N 0.80825 0.78335 0.98973 0.0
N413 N 0.79543 0.73985 0.99508 0.0
N414 N 0.76516 0.77264 0.00524 0.0
C415 C 0.81418 0.75755 0.98811 0.0
C416 C 0.77094 0.74724 0.00365 0.0
C417 C 0.7834 0.79075 0.99844 0.0
C418 C 0.84084 0.74751 0.98038 0.0
C419 C 0.86457 0.75778 0.99087 0.0
C420 C 0.8882 0.74281 0.99118 0.0
C421 C 0.88826 0.7172 0.98144 0.0
C422 C 0.86511 0.70851 0.96823 0.0
C423 C 0.84191 0.72355 0.9675 0.0
C424 C 0.75041 0.72798 0.01045 0.0
C425 C 0.75737 0.70183 0.01384 0.0
C426 C 0.73757 0.68359 0.01919 0.0
C427 C 0.71056 0.69121 0.02089 0.0
C428 C 0.70365 0.71734 0.01803 0.0
C429 C 0.7234 0.7356 0.013 0.0
C430 C 0.77417 0.81776 -0.0003 0.0
C431 C 0.75954 0.82508 0.02208 0.0
C432 C 0.55172 0.80904 0.65675 0.0
C433 C 0.52732 0.82234 0.65299 0.0
C434 C 0.50494 0.81527 0.66818 0.0
C435 C 0.50751 0.79688 0.68824 0.0
H436 H 0.56011 0.69848 0.74752 0.0
H437 H 0.55571 0.66074 0.77643 0.0
H438 H 0.48768 0.69707 0.81445 0.0
H439 H 0.492 0.73411 0.78537 0.0
H440 H 0.5431 0.78262 0.81732 0.0
H441 H 0.54584 0.81749 0.84939 0.0
H442 H 0.57123 0.8701 0.78865 0.0
H443 H 0.56826 0.83533 0.75604 0.0
H444 H 0.57404 0.78292 0.68138 0.0
H445 H 0.56936 0.81427 0.64552 0.0
H446 H 0.48589 0.82519 0.66566 0.0
H447 H 0.49059 0.79347 0.70116 0.0
N448 N 0.53101 0.7512 0.72795 0.0
N449 N 0.54234 0.76214 0.77155 0.0
N450 N 0.5464 0.79298 0.73836 0.0
C451 C 0.53379 0.74443 0.7538 0.0
C452 C 0.54884 0.78639 0.76403 0.0
C453 C 0.53766 0.77565 0.72028 0.0
C454 C 0.52609 0.71889 0.76399 0.0
C455 C 0.5435 0.69768 0.76125 0.0
C456 C 0.54121 0.67631 0.77812 0.0
C457 C 0.52151 0.67589 0.79804 0.0
C458 C 0.50287 0.6964 0.79923 0.0
C459 C 0.50525 0.71767 0.78249 0.0
C460 C 0.55513 0.80625 0.78401 0.0
C461 C 0.54987 0.8014 0.81074 0.0
C462 C 0.55145 0.82129 0.82915 0.0
C463 C 0.55874 0.84622 0.82128 0.0
C464 C 0.56576 0.85086 0.79502 0.0
C465 C 0.56389 0.831 0.77644 0.0
C466 C 0.53253 0.78542 0.69357 0.0
C467 C 0.55437 0.79094 0.6771 0.0
C468 C 0.25294 0.58299 0.68076 0.0
C469 C 0.25559 0.56518 0.65998 0.0
C470 C 0.27581 0.54604 0.66185 0.0
C471 C 0.29087 0.54311 0.68507 0.0
H472 H 0.36493 0.57203 0.76747 0.0
H473 H 0.40362 0.57025 0.7975 0.0
H474 H 0.37877 0.49461 0.82357 0.0
H475 H 0.34047 0.49657 0.79385 0.0
H476 H 0.27629 0.54409 0.82881 0.0
H477 H 0.23745 0.54386 0.85826 0.0
H478 H 0.18522 0.52849 0.79231 0.0
H479 H 0.2239 0.5292 0.76264 0.0
H480 H 0.26358 0.59264 0.72032 0.0
H481 H 0.23756 0.59784 0.68035 0.0
H482 H 0.2788 0.53227 0.64605 0.0
H483 H 0.30443 0.52678 0.68696 0.0
N484 N 0.31839 0.54649 0.74202 0.0
N485 N 0.30146 0.53492 0.78372 0.0
N486 N 0.27188 0.54721 0.75033 0.0
C487 C 0.32268 0.53836 0.76731 0.0
C488 C 0.27603 0.53926 0.77533 0.0
C489 C 0.29269 0.55084 0.73359 0.0
C490 C 0.34983 0.5344 0.77835 0.0
C491 C 0.3685 0.55464 0.77884 0.0
C492 C 0.39043 0.55371 0.79625 0.0
C493 C 0.39418 0.53238 0.81314 0.0
C494 C 0.37674 0.51122 0.81074 0.0
C495 C 0.35473 0.51232 0.79371 0.0
C496 C 0.25308 0.53677 0.79344 0.0
C497 C 0.25657 0.54041 0.82063 0.0
C498 C 0.23441 0.54043 0.83743 0.0
C499 C 0.2085 0.53629 0.82739 0.0
C500 C 0.20507 0.53169 0.80041 0.0
C501 C 0.22715 0.53219 0.78351 0.0
C502 C 0.28598 0.55934 0.70668 0.0
C503 C 0.26792 0.58004 0.70379 0.0
C504 C 0.49785 0.20336 0.68154 0.0
C505 C 0.47653 0.18823 0.6717 0.0
C506 C 0.451 0.19136 0.6832 0.0
C507 C 0.44743 0.20723 0.70522 0.0
H508 H 0.46627 0.31261 0.76208 0.0
H509 H 0.47888 0.35117 0.78752 0.0
H510 H 0.52769 0.30345 0.83858 0.0
H511 H 0.51454 0.26533 0.81371 0.0
H512 H 0.44857 0.23281 0.83998 0.0
H513 H 0.4468 0.20044 0.8746 0.0
H514 H 0.43886 0.14041 0.81614 0.0
H515 H 0.44087 0.17268 0.78131 0.0
H516 H 0.51126 0.22968 0.71157 0.0
H517 H 0.51788 0.20146 0.67348 0.0
H518 H 0.43386 0.18077 0.67583 0.0
H519 H 0.42788 0.20785 0.71458 0.0
N520 N 0.47785 0.25465 0.75028 0.0
N521 N 0.46528 0.24654 0.79416 0.0
N522 N 0.45496 0.21645 0.76156 0.0
C523 C 0.47678 0.26222 0.77606 0.0
C524 C 0.45423 0.22372 0.78716 0.0
C525 C 0.46655 0.23166 0.743 0.0
C526 C 0.48957 0.28608 0.78588 0.0
C527 C 0.48036 0.31065 0.77823 0.0
C528 C 0.48746 0.33265 0.79294 0.0
C529 C 0.50384 0.33035 0.81552 0.0
C530 C 0.51447 0.30591 0.82181 0.0
C531 C 0.50727 0.28409 0.80733 0.0
C532 C 0.4457 0.20529 0.80781 0.0
C533 C 0.44568 0.2128 0.83444 0.0
C534 C 0.44439 0.19427 0.85435 0.0
C535 C 0.44314 0.1679 0.84801 0.0
C536 C 0.44016 0.16062 0.82152 0.0
C537 C 0.44134 0.17916 0.80158 0.0
C538 C 0.46907 0.22095 0.71604 0.0
C539 C 0.4941 0.21967 0.70339 0.0
C540 C 0.81255 0.51506 0.72381 0.0
C541 C 0.80798 0.52554 0.69869 0.0
C542 C 0.78185 0.53419 0.69229 0.0
C543 C 0.76126 0.53377 0.71119 0.0
H544 H 0.67931 0.48595 0.77997 0.0
H545 H 0.63595 0.47962 0.80166 0.0
H546 H 0.62441 0.56244 0.80419 0.0
H547 H 0.66711 0.56836 0.78216 0.0
H548 H 0.72623 0.53532 0.8531 0.0
H549 H 0.75143 0.54265 0.89388 0.0
H550 H 0.81532 0.57771 0.84914 0.0
H551 H 0.7905 0.57021 0.8086 0.0
H552 H 0.79685 0.50773 0.76212 0.0
H553 H 0.83235 0.50845 0.72965 0.0
H554 H 0.77754 0.54201 0.67296 0.0
H555 H 0.74178 0.54188 0.70632 0.0
N556 N 0.72103 0.52664 0.75729 0.0
N557 N 0.71701 0.54034 0.80144 0.0
N558 N 0.75916 0.53883 0.78164 0.0
C559 C 0.70547 0.53188 0.77881 0.0
C560 C 0.7438 0.54399 0.80291 0.0
C561 C 0.74816 0.53018 0.75887 0.0
C562 C 0.67634 0.52762 0.77933 0.0
C563 C 0.66662 0.50261 0.78374 0.0
C564 C 0.642 0.49906 0.79659 0.0
C565 C 0.62693 0.52053 0.80535 0.0
C566 C 0.63524 0.54539 0.79775 0.0
C567 C 0.65976 0.54887 0.78496 0.0
C568 C 0.7566 0.55196 0.82773 0.0
C569 C 0.74537 0.54515 0.85211 0.0
C570 C 0.75973 0.54929 0.87539 0.0
C571 C 0.78521 0.56081 0.87459 0.0
C572 C 0.79556 0.56912 0.85035 0.0
C573 C 0.78148 0.56458 0.82712 0.0
C574 C 0.76662 0.52489 0.73676 0.0
C575 C 0.79217 0.51474 0.74253 0.0
C576 C 0.52792 0.2071 0.33146 0.0
C577 C 0.51416 0.21473 0.35435 0.0
C578 C 0.50111 0.23908 0.35428 0.0
C579 C 0.49976 0.25409 0.3312 0.0
H580 H 0.52858 0.32865 0.26696 0.0
H581 H 0.53674 0.36862 0.24244 0.0
H582 H 0.47154 0.34967 0.18964 0.0
H583 H 0.46279 0.31099 0.21475 0.0
H584 H 0.48632 0.25459 0.18508 0.0
H585 H 0.49367 0.22381 0.14957 0.0
H586 H 0.5031 0.16233 0.20634 0.0
H587 H 0.49545 0.19288 0.24196 0.0
H588 H 0.53622 0.21465 0.29103 0.0
H589 H 0.538 0.18856 0.33028 0.0
H590 H 0.4908 0.24601 0.37167 0.0
H591 H 0.48787 0.27167 0.33114 0.0
N592 N 0.50217 0.2814 0.27623 0.0
N593 N 0.49039 0.27106 0.23254 0.0
N594 N 0.49924 0.23806 0.2624 0.0
C595 C 0.49509 0.28914 0.25134 0.0
C596 C 0.49238 0.24556 0.23785 0.0
C597 C 0.50401 0.25552 0.28172 0.0
C598 C 0.49524 0.31653 0.24264 0.0
C599 C 0.51533 0.3337 0.25082 0.0
C600 C 0.52025 0.35641 0.23641 0.0
C601 C 0.50525 0.36227 0.2135 0.0
C602 C 0.48353 0.34619 0.20707 0.0
C603 C 0.47857 0.32376 0.22148 0.0
C604 C 0.49093 0.22632 0.21641 0.0
C605 C 0.48932 0.23443 0.19005 0.0
C606 C 0.49361 0.21684 0.16968 0.0
C607 C 0.49943 0.19085 0.17529 0.0
C608 C 0.49864 0.18228 0.20148 0.0
C609 C 0.49443 0.19986 0.22188 0.0
C610 C 0.51156 0.24505 0.30787 0.0
C611 C 0.52674 0.22208 0.30869 0.0
C612 C 0.65711 0.49677 0.21784 0.0
C613 C 0.65934 0.4752 0.20094 0.0
C614 C 0.67984 0.45705 0.20591 0.0
C615 C 0.69927 0.46176 0.22517 0.0
H616 H 0.72926 0.48746 0.33423 0.0
H617 H 0.75032 0.49253 0.37749 0.0
H618 H 0.793 0.55944 0.34868 0.0
H619 H 0.77102 0.55494 0.30655 0.0
H620 H 0.81556 0.52816 0.26146 0.0
H621 H 0.85731 0.52799 0.23652 0.0
H622 H 0.82166 0.47711 0.17902 0.0
H623 H 0.77981 0.47706 0.20394 0.0
H624 H 0.67543 0.51905 0.24869 0.0
H625 H 0.64177 0.51133 0.2146 0.0
H626 H 0.68185 0.43988 0.19387 0.0
H627 H 0.71605 0.44847 0.22704 0.0
N628 N 0.72288 0.50257 0.279 0.0
N629 N 0.76884 0.51206 0.27476 0.0
N630 N 0.74614 0.49296 0.23973 0.0
C631 C 0.74614 0.51208 0.28944 0.0
C632 C 0.76911 0.50253 0.25003 0.0
C633 C 0.72298 0.49307 0.25386 0.0
C634 C 0.74875 0.52065 0.31703 0.0
C635 C 0.74198 0.50404 0.33777 0.0
C636 C 0.75452 0.50672 0.36239 0.0
C637 C 0.77421 0.52589 0.36651 0.0
C638 C 0.7781 0.54441 0.34662 0.0
C639 C 0.76546 0.54184 0.32226 0.0
C640 C 0.79432 0.50258 0.23469 0.0
C641 C 0.81657 0.51685 0.24354 0.0
C642 C 0.84047 0.51688 0.22924 0.0
C643 C 0.8427 0.50246 0.20597 0.0
C644 C 0.82054 0.48814 0.19712 0.0
C645 C 0.79653 0.48828 0.21128 0.0
C646 C 0.69832 0.4844 0.2404 0.0
C647 C 0.67637 0.50124 0.2375 0.0
C648 C 0.52212 0.8355 0.3173 0.0
C649 C 0.53535 0.82945 0.34093 0.0
C650 C 0.55264 0.80781 0.34158 0.0
C651 C 0.55826 0.79388 0.31839 0.0
H652 H 0.53493 0.72174 0.25154 0.0
H653 H 0.52448 0.68261 0.22658 0.0
H654 H 0.57888 0.70671 0.16519 0.0
H655 H 0.59001 0.74488 0.19035 0.0
H656 H 0.58913 0.80452 0.17598 0.0
H657 H 0.58919 0.84018 0.14465 0.0
H658 H 0.57551 0.89422 0.20803 0.0
H659 H 0.5754 0.8588 0.23945 0.0
H660 H 0.51836 0.8279 0.27611 0.0
H661 H 0.50829 0.8517 0.31628 0.0
H662 H 0.56307 0.80269 0.35957 0.0
H663 H 0.57323 0.77864 0.31881 0.0
N664 N 0.55696 0.76835 0.25986 0.0
N665 N 0.57498 0.7824 0.21949 0.0
N666 N 0.56681 0.81222 0.2529 0.0
C667 C 0.5659 0.76285 0.23496 0.0
C668 C 0.57559 0.80708 0.2283 0.0
C669 C 0.55775 0.79323 0.26887 0.0
C670 C 0.56299 0.73675 0.22285 0.0
C671 C 0.54517 0.71832 0.23306 0.0
C672 C 0.539 0.69598 0.21857 0.0
C673 C 0.55049 0.69157 0.19355 0.0
C674 C 0.56971 0.70916 0.18435 0.0
C675 C 0.5759 0.73134 0.19879 0.0
C676 C 0.58164 0.82869 0.21018 0.0
C677 C 0.58681 0.82403 0.18338 0.0
C678 C 0.58702 0.84448 0.16542 0.0
C679 C 0.582 0.86987 0.17395 0.0
C680 C 0.5791 0.87475 0.20096 0.0
C681 C 0.57904 0.85439 0.21892 0.0
C682 C 0.54642 0.80134 0.29443 0.0
C683 C 0.52761 0.82165 0.29437 0.0
C684 C 0.37429 0.59513 0.20233 0.0
C685 C 0.39788 0.58303 0.21176 0.0
C686 C 0.39739 0.57332 0.23784 0.0
C687 C 0.37307 0.57134 0.25168 0.0
H688 H 0.2952 0.56455 0.32253 0.0
H689 H 0.2624 0.56428 0.35866 0.0
H690 H 0.19764 0.56627 0.30197 0.0
H691 H 0.23009 0.56689 0.26641 0.0
H692 H 0.24671 0.50762 0.2282 0.0
H693 H 0.22351 0.49094 0.18953 0.0
H694 H 0.28498 0.52267 0.13936 0.0
H695 H 0.30849 0.5392 0.17791 0.0
H696 H 0.33211 0.60081 0.20723 0.0
H697 H 0.37295 0.60317 0.18277 0.0
H698 H 0.41518 0.56522 0.24688 0.0
H699 H 0.37262 0.56056 0.26996 0.0
N700 N 0.30845 0.5715 0.26764 0.0
N701 N 0.27489 0.54451 0.25004 0.0
N702 N 0.31431 0.55119 0.22655 0.0
C703 C 0.28373 0.5602 0.26963 0.0
C704 C 0.29014 0.53974 0.22857 0.0
C705 C 0.3237 0.56687 0.24579 0.0
C706 C 0.26517 0.56545 0.29173 0.0
C707 C 0.27397 0.56569 0.31797 0.0
C708 C 0.25517 0.5653 0.33857 0.0
C709 C 0.22734 0.56498 0.3332 0.0
C710 C 0.2188 0.56671 0.30692 0.0
C711 C 0.23746 0.56684 0.28649 0.0
C712 C 0.27911 0.52517 0.20608 0.0
C713 C 0.25566 0.51048 0.209 0.0
C714 C 0.24253 0.5007 0.18691 0.0
C715 C 0.25248 0.50571 0.16157 0.0
C716 C 0.27698 0.51865 0.15875 0.0
C717 C 0.29034 0.52811 0.18085 0.0
C718 C 0.34913 0.58011 0.2402 0.0
C719 C 0.35041 0.59395 0.21655 0.0
C720 C 0.70775 0.84522 0.50211 0.0
C721 C 0.6859 0.83589 0.48739 0.0
C722 C 0.68902 0.81221 0.47386 0.0
C723 C 0.71402 0.79942 0.47339 0.0
H724 H 0.77906 0.73109 0.50641 0.0
H725 H 0.80202 0.6904 0.51704 0.0
H726 H 0.869 0.71305 0.46835 0.0
H727 H 0.84604 0.7529 0.45731 0.0
H728 H 0.85984 0.81915 0.4837 0.0
H729 H 0.88774 0.85752 0.48325 0.0
H730 H 0.82565 0.89886 0.44068 0.0
H731 H 0.79717 0.86078 0.44275 0.0
H732 H 0.74931 0.84129 0.51175 0.0
H733 H 0.70655 0.86346 0.51249 0.0
H734 H 0.67255 0.80421 0.46262 0.0
H735 H 0.71646 0.7823 0.46134 0.0
N736 N 0.77294 0.77735 0.48238 0.0
N737 N 0.81644 0.79119 0.47098 0.0
N738 N 0.78138 0.82113 0.47327 0.0
C739 C 0.79941 0.77177 0.47759 0.0
C740 C 0.8075 0.8158 0.46855 0.0
C741 C 0.76399 0.80225 0.48016 0.0
C742 C 0.81078 0.74541 0.48124 0.0
C743 C 0.7984 0.72706 0.49754 0.0
C744 C 0.81169 0.70385 0.5038 0.0
C745 C 0.8375 0.69848 0.49371 0.0
C746 C 0.84909 0.71628 0.47629 0.0
C747 C 0.83594 0.73936 0.47015 0.0
C748 C 0.82626 0.83716 0.46358 0.0
C749 C 0.85242 0.8363 0.47381 0.0
C750 C 0.86848 0.85835 0.47338 0.0
C751 C 0.85888 0.88155 0.46221 0.0
C752 C 0.83345 0.88162 0.4501 0.0
C753 C 0.81718 0.85976 0.4511 0.0
C754 C 0.73619 0.81018 0.48639 0.0
C755 C 0.73248 0.83255 0.50159 0.0
C756 C 0.70691 0.1946 0.50506 0.0
C757 C 0.68166 0.20675 0.50376 0.0
C758 C 0.68059 0.23362 0.4992 0.0
C759 C 0.70417 0.24761 0.49435 0.0
H760 H 0.77079 0.31197 0.52255 0.0
H761 H 0.79256 0.35237 0.53575 0.0
H762 H 0.8322 0.35603 0.46027 0.0
H763 H 0.8106 0.31592 0.44721 0.0
H764 H 0.84908 0.25176 0.45894 0.0
H765 H 0.88389 0.21925 0.45224 0.0
H766 H 0.82331 0.16307 0.4322 0.0
H767 H 0.7884 0.19538 0.43963 0.0
H768 H 0.74925 0.19809 0.50003 0.0
H769 H 0.70863 0.17395 0.50819 0.0
H770 H 0.66144 0.24361 0.49832 0.0
H771 H 0.70272 0.26797 0.48959 0.0
N772 N 0.75855 0.27317 0.48755 0.0
N773 N 0.79978 0.26859 0.46528 0.0
N774 N 0.77191 0.23287 0.4706 0.0
C775 C 0.7817 0.28376 0.47814 0.0
C776 C 0.79495 0.24316 0.46132 0.0
C777 C 0.7536 0.24756 0.48362 0.0
C778 C 0.78921 0.31075 0.48395 0.0
C779 C 0.78348 0.32188 0.50854 0.0
C780 C 0.79611 0.34485 0.51615 0.0
C781 C 0.81429 0.3572 0.49913 0.0
C782 C 0.81821 0.34709 0.47377 0.0
C783 C 0.80593 0.32404 0.46634 0.0
C784 C 0.81597 0.22592 0.45051 0.0
C785 C 0.84321 0.2327 0.45233 0.0
C786 C 0.86321 0.21408 0.44832 0.0
C787 C 0.85629 0.18845 0.44221 0.0
C788 C 0.8292 0.18253 0.43746 0.0
C789 C 0.80921 0.20104 0.44173 0.0
C790 C 0.72911 0.23484 0.49367 0.0
C791 C 0.73027 0.20844 0.50004 0.0
C792 C 0.33967 0.8155 0.51946 0.0
C793 C 0.35893 0.81375 0.53966 0.0
C794 C 0.35446 0.79624 0.56044 0.0
C795 C 0.33022 0.78264 0.56215 0.0
H796 H 0.26744 0.70543 0.53433 0.0
H797 H 0.24286 0.66512 0.52745 0.0
H798 H 0.17684 0.6955 0.57351 0.0
H799 H 0.20174 0.73451 0.58142 0.0
H800 H 0.18336 0.7909 0.56104 0.0
H801 H 0.15041 0.82566 0.55788 0.0
H802 H 0.21435 0.88138 0.55148 0.0
H803 H 0.24749 0.84674 0.55479 0.0
H804 H 0.30004 0.80561 0.50662 0.0
H805 H 0.34269 0.82824 0.50282 0.0
H806 H 0.36875 0.79447 0.57643 0.0
H807 H 0.32632 0.77092 0.57938 0.0
N808 N 0.27378 0.7548 0.55183 0.0
N809 N 0.22992 0.76992 0.55971 0.0
N810 N 0.26409 0.79941 0.5514 0.0
C811 C 0.24743 0.74989 0.55727 0.0
C812 C 0.23799 0.79466 0.55689 0.0
C813 C 0.28206 0.77976 0.54904 0.0
C814 C 0.23636 0.72336 0.558 0.0
C815 C 0.24808 0.70301 0.5437 0.0
C816 C 0.23379 0.68005 0.5395 0.0
C817 C 0.20751 0.6771 0.54944 0.0
C818 C 0.19698 0.69669 0.56562 0.0
C819 C 0.21125 0.71938 0.56995 0.0
C820 C 0.21812 0.81598 0.55784 0.0
C821 C 0.1905 0.81057 0.5593 0.0
C822 C 0.17157 0.83044 0.55744 0.0
C823 C 0.17985 0.85613 0.55428 0.0
C824 C 0.20742 0.86173 0.55411 0.0
C825 C 0.22639 0.84185 0.55581 0.0
C826 C 0.3101 0.7865 0.54321 0.0
C827 C 0.31539 0.80227 0.5214 0.0
C828 C 0.21744 0.33622 0.54996 0.0
C829 C 0.22742 0.3534 0.53095 0.0
C830 C 0.24962 0.34564 0.51564 0.0
C831 C 0.26067 0.32084 0.51841 0.0
H832 H 0.33974 0.26351 0.53409 0.0
H833 H 0.38251 0.2406 0.52771 0.0
H834 H 0.33965 0.17657 0.49287 0.0
H835 H 0.29785 0.19967 0.49835 0.0
H836 H 0.25734 0.1832 0.56065 0.0
H837 H 0.22611 0.14721 0.56174 0.0
H838 H 0.1608 0.19916 0.54248 0.0
H839 H 0.19203 0.2354 0.54202 0.0
H840 H 0.21947 0.29847 0.56682 0.0
H841 H 0.20085 0.34173 0.56258 0.0
H842 H 0.25772 0.35829 0.50067 0.0
H843 H 0.27702 0.31507 0.50561 0.0
N844 N 0.28287 0.26832 0.52776 0.0
N845 N 0.27136 0.22503 0.53523 0.0
N846 N 0.2403 0.25759 0.54477 0.0
C847 C 0.2894 0.24273 0.52694 0.0
C848 C 0.24692 0.23218 0.54425 0.0
C849 C 0.25817 0.27581 0.53678 0.0
C850 C 0.31552 0.23313 0.51715 0.0
C851 C 0.33978 0.24498 0.52417 0.0
C852 C 0.36419 0.2317 0.52074 0.0
C853 C 0.36462 0.20643 0.51023 0.0
C854 C 0.34044 0.19595 0.50085 0.0
C855 C 0.31627 0.20914 0.50426 0.0
C856 C 0.22717 0.212 0.5507 0.0
C857 C 0.2362 0.18705 0.55724 0.0
C858 C 0.21835 0.16643 0.55783 0.0
C859 C 0.19114 0.17027 0.55163 0.0
C860 C 0.18166 0.1956 0.54741 0.0
C861 C 0.19955 0.21635 0.54706 0.0
C862 C 0.24956 0.30324 0.53635 0.0
C863 C 0.22825 0.31143 0.5525 0.0
Zn864 Zn 0.9498 0.99506 0.44535 0.0
Zn865 Zn 0.96138 0.05519 0.4602 0.0
O866 O 0.97825 0.02001 0.45855 0.0
H867 H 0.99456 0.01493 0.46751 0.0
C868 C 0.95554 0.99074 0.51427 0.0
O869 O 0.94359 0.01317 0.51778 0.0
Zn870 Zn 0.05903 0.05118 0.56161 0.0
Zn871 Zn 0.05972 0.99128 0.58291 0.0
O872 O 0.03632 0.01999 0.56808 0.0
H873 H 0.04577 0.00508 0.57484 0.0
Zn874 Zn 0.98956 0.01337 0.55335 0.0
O875 O 0.00212 0.04761 0.53748 0.0
Zn876 Zn 0.97968 0.07293 0.55667 0.0
H877 H 0.00926 0.05 0.51999 0.0
Zn878 Zn 0.04664 0.98868 0.45755 0.0
O879 O 0.04624 0.01843 0.48292 0.0
H880 H 0.03778 0.01786 0.50001 0.0
Zn881 Zn 0.05417 0.04956 0.46159 0.0
C882 C 0.07649 0.95715 0.49381 0.0
O883 O 0.07887 0.97996 0.50489 0.0
O884 O 0.91627 0.01441 0.43238 0.0
O885 O 0.92396 0.05515 0.44432 0.0
O886 O 0.0961 0.0057 0.5937 0.0
O887 O 0.09549 0.04667 0.58039 0.0
O888 O 0.97056 0.01533 0.58987 0.0
O889 O 0.95899 0.05658 0.58631 0.0
C890 C 0.00674 0.07884 0.43648 0.0
O891 O 0.05846 0.99947 0.42028 0.0
O892 O 0.07095 0.04039 0.42609 0.0
O893 O 0.04558 0.96737 0.61283 0.0
C894 C 0.90933 0.03812 0.43323 0.0
O895 O 0.96197 0.96517 0.42052 0.0
C896 C 0.02505 0.09876 0.58643 0.0
O897 O 0.97668 0.98563 0.52728 0.0
C898 C 0.10695 0.02787 0.59242 0.0
O899 O 0.06297 0.9551 0.47268 0.0
C900 C 0.94976 0.0846 0.50829 0.0
O901 O 0.98133 0.07955 0.43668 0.0
O902 O 0.01812 0.06442 0.45346 0.0
C903 C 0.95811 0.03513 0.59854 0.0
O904 O 0.04235 0.08167 0.58021 0.0
O905 O 0.00146 0.09893 0.57669 0.0
C906 C 0.07701 0.07289 0.50928 0.0
O907 O 0.95299 0.09039 0.53241 0.0
O908 O 0.96406 0.06708 0.49787 0.0
C909 C 0.06872 0.02031 0.41158 0.0
O910 O 0.07691 0.07315 0.48415 0.0
O911 O 0.06205 0.05722 0.52176 0.0
C912 C 0.02414 0.9542 0.61357 0.0
O913 O 0.0075 0.95499 0.59349 0.0
C914 C 0.98632 0.96324 0.41329 0.0
O915 O 0.00392 0.97969 0.42262 0.0
Zn916 Zn 0.46066 0.04274 0.03703 0.0
Zn917 Zn 0.47993 0.0611 0.98056 0.0
O918 O 0.48853 0.03606 0.00959 0.0
H919 H 0.50604 0.02917 0.01385 0.0
C920 C 0.54984 0.08146 0.07677 0.0
O921 O 0.53861 0.05959 0.06975 0.0
Zn922 Zn 0.5625 0.96886 0.96581 0.0
Zn923 Zn 0.57308 0.98818 0.02293 0.0
O924 O 0.54673 0.9922 0.99285 0.0
H925 H 0.53614 0.00728 0.98856 0.0
Zn926 Zn 0.58498 0.07083 0.03211 0.0
O927 O 0.55741 0.06496 0.0045 0.0
Zn928 Zn 0.57682 0.06411 0.97032 0.0
H929 H 0.53842 0.06417 0.00817 0.0
Zn930 Zn 0.47045 0.96762 0.02992 0.0
O931 O 0.49665 0.95845 0.00058 0.0
H932 H 0.51063 0.94543 0.00112 0.0
Zn933 Zn 0.4727 0.96656 0.97082 0.0
C934 C 0.51098 0.96011 0.06972 0.0
O935 O 0.52615 0.96638 0.0496 0.0
O936 O 0.44486 0.07875 0.03402 0.0
O937 O 0.45761 0.09209 0.99428 0.0
O938 O 0.59266 0.95349 0.02308 0.0
O939 O 0.58611 0.94042 0.98194 0.0
O940 O 0.62021 0.08423 0.01702 0.0
O941 O 0.6148 0.0813 0.97364 0.0
C942 C 0.45467 0.01803 0.95474 0.0
O943 O 0.43137 0.95611 0.02178 0.0
O944 O 0.43457 0.95304 0.97829 0.0
O945 O 0.60216 0.01591 0.02813 0.0
C946 C 0.44478 0.09562 0.01582 0.0
O947 O 0.43196 0.0155 0.04593 0.0
C948 C 0.59375 0.01295 0.94635 0.0
O949 O 0.57031 0.0895 0.06442 0.0
C950 C 0.59704 0.9375 0.00454 0.0
O951 O 0.48561 0.96013 0.06696 0.0
C952 C 0.52705 0.0805 0.94511 0.0
O953 O 0.45524 0.04255 0.95559 0.0
O954 O 0.47253 0.00508 0.96678 0.0
C955 C 0.629 0.08757 0.99375 0.0
O956 O 0.58943 0.98884 0.94404 0.0
O957 O 0.57826 0.02632 0.96085 0.0
C958 C 0.51177 0.94554 0.93099 0.0
O959 O 0.5526 0.08121 0.94316 0.0
O960 O 0.51665 0.07014 0.96535 0.0
C961 C 0.42102 0.95049 -0.00047 0.0
O962 O 0.48764 0.94925 0.93856 0.0
O963 O 0.53141 0.95444 0.94428 0.0
C964 C 0.6055 0.02538 0.05091 0.0
O965 O 0.58841 0.01958 0.06967 0.0
C966 C 0.4336 0.00407 0.06794 0.0
O967 O 0.45489 0.00801 0.08271 0.0
Zn968 Zn 0.95406 0.48867 0.97429 0.0
Zn969 Zn 0.9617 0.55062 0.97373 0.0
O970 O 0.98196 0.51719 0.97248 0.0
H971 H 0.00099 0.51469 0.97521 0.0
C972 C 0.98705 0.44577 0.03017 0.0
O973 O 0.00864 0.45461 0.01843 0.0
Zn974 Zn 0.07887 0.55255 0.05635 0.0
Zn975 Zn 0.07802 0.48901 0.06013 0.0
O976 O 0.05454 0.52143 0.06241 0.0
H977 H 0.0363 0.52113 0.06884 0.0
Zn978 Zn 0.98737 0.4959 0.06223 0.0
O979 O 0.99002 0.52767 0.0386 0.0
Zn980 Zn 0.98838 0.5586 0.06301 0.0
H981 H -0.00074 0.52753 0.02192 0.0
Zn982 Zn 0.06065 0.48976 0.97088 0.0
O983 O 0.05397 0.52251 0.99191 0.0
H984 H 0.04562 0.52308 0.00904 0.0
Zn985 Zn 0.05472 0.55097 0.96523 0.0
C986 C 0.06441 0.43476 0.98403 0.0
O987 O 0.04789 0.4334 0.96397 0.0
O988 O 0.91545 0.5021 0.96782 0.0
O989 O 0.92246 0.54449 0.96577 0.0
O990 O 0.11738 0.49924 0.06552 0.0
O991 O 0.1173 0.54239 0.06526 0.0
O992 O 0.96928 0.50605 0.09703 0.0
O993 O 0.96841 0.5491 0.09644 0.0
C994 C 0.00255 0.5766 0.9456 0.0
O995 O 0.08026 0.49709 0.93577 0.0
O996 O 0.07686 0.54002 0.93384 0.0
O997 O 0.06738 0.45369 0.07821 0.0
C998 C 0.9068 0.5251 0.9644 0.0
O999 O 0.96409 0.45358 0.95682 0.0
C1000 C 0.04124 0.58626 0.07868 0.0
O1001 O 0.97558 0.45953 0.0477 0.0
C1002 C 0.12957 0.52075 0.06778 0.0
O1003 O 0.07257 0.45682 0.99146 0.0
C1004 C 0.96318 0.58734 0.02152 0.0
O1005 O 0.97723 0.57585 0.94798 0.0
O1006 O 0.01628 0.55896 0.95678 0.0
C1007 C 0.96262 0.5276 0.10736 0.0
O1008 O 0.06653 0.58343 0.07714 0.0
O1009 O 0.02664 0.56795 0.07034 0.0
C1010 C 0.07656 0.58441 0.00477 0.0
O1011 O 0.97047 0.58909 0.04542 0.0
O1012 O 0.9664 0.56565 0.01007 0.0
C1013 C 0.08532 0.51856 0.92453 0.0
O1014 O 0.06993 0.58316 0.98069 0.0
O1015 O 0.07594 0.56367 0.01833 0.0
C1016 C 0.04712 0.45079 0.09317 0.0
O1017 O 0.03084 0.47051 0.09691 0.0
C1018 C 0.98602 0.45156 0.94418 0.0
O1019 O 0.0022 0.47151 0.9432 0.0
Zn1020 Zn 0.47868 0.47518 0.99796 0.0
Zn1021 Zn 0.48512 0.48326 0.06042 0.0
O1022 O 0.49261 0.50056 0.02536 0.0
H1023 H 0.49428 0.5188 0.02181 0.0
C1024 C 0.53505 0.43141 0.93146 0.0
O1025 O 0.54263 0.45395 0.9223 0.0
Zn1026 Zn 0.55534 0.55884 0.04948 0.0
Zn1027 Zn 0.54744 0.55931 0.98728 0.0
O1028 O 0.54358 0.53628 0.01931 0.0
H1029 H 0.54259 0.51769 0.01833 0.0
Zn1030 Zn 0.55485 0.45247 0.98349 0.0
O1031 O 0.53737 0.45847 0.01934 0.0
Zn1032 Zn 0.56674 0.46395 0.04655 0.0
H1033 H 0.51919 0.45314 0.02303 0.0
Zn1034 Zn 0.46982 0.57462 0.97887 0.0
O1035 O 0.49585 0.57785 0.01012 0.0
H1036 H 0.51328 0.58587 0.00897 0.0
Zn1037 Zn 0.4726 0.57727 0.0428 0.0
C1038 C 0.50054 0.59441 0.92985 0.0
O1039 O 0.52315 0.5915 0.94288 0.0
O1040 O 0.4484 0.45309 0.01325 0.0
O1041 O 0.45408 0.45853 0.05642 0.0
O1042 O 0.57345 0.58928 0.99466 0.0
O1043 O 0.58363 0.58345 0.03702 0.0
O1044 O 0.59539 0.44674 0.98873 0.0
O1045 O 0.60264 0.4516 0.03183 0.0
C1046 C 0.47026 0.53336 0.08307 0.0
O1047 O 0.43107 0.58358 0.98973 0.0
O1048 O 0.43508 0.58831 0.03309 0.0
O1049 O 0.55154 0.54267 0.95012 0.0
C1050 C 0.44149 0.44871 0.03697 0.0
O1051 O 0.47622 0.48341 0.95754 0.0
C1052 C 0.57179 0.5131 0.07829 0.0
O1053 O 0.53721 0.42692 0.95607 0.0
C1054 C 0.58708 0.59497 0.01509 0.0
O1055 O 0.47845 0.58868 0.94096 0.0
C1056 C 0.53297 0.44982 0.08714 0.0
O1057 O 0.47452 0.50954 0.08772 0.0
O1058 O 0.47335 0.54159 0.05958 0.0
C1059 C 0.61101 0.44618 0.00865 0.0
O1060 O 0.56836 0.5374 0.0798 0.0
O1061 O 0.56803 0.50182 0.0563 0.0
C1062 C 0.51177 0.59687 0.07528 0.0
O1063 O 0.55689 0.44517 0.07977 0.0
O1064 O 0.51869 0.46413 0.07219 0.0
C1065 C 0.42116 0.58948 0.01205 0.0
O1066 O 0.48738 0.6015 0.0699 0.0
O1067 O 0.52367 0.58017 0.06101 0.0
C1068 C 0.56346 0.52112 0.94705 0.0
O1069 O 0.5716 0.50837 0.96799 0.0
C1070 C 0.46872 0.50522 0.94851 0.0
O1071 O 0.46384 0.52413 0.9651 0.0
Zn1072 Zn 0.95324 0.49841 0.46722 0.0
Zn1073 Zn 0.95946 0.5599 0.47385 0.0
O1074 O 0.97931 0.5267 0.47547 0.0
H1075 H -0.00197 0.52425 0.4799 0.0
C1076 C 0.91658 0.47314 0.52359 0.0
O1077 O 0.91537 0.49711 0.51514 0.0
Zn1078 Zn 0.06911 0.55838 0.56288 0.0
Zn1079 Zn 0.08031 0.50046 0.55252 0.0
O1080 O 0.05 0.52499 0.56218 0.0
H1081 H 0.03158 0.52299 0.55659 0.0
Zn1082 Zn 0.95827 0.49378 0.55965 0.0
O1083 O 0.96956 0.52643 0.54043 0.0
Zn1084 Zn 0.96857 0.55547 0.56662 0.0
H1085 H 0.98242 0.52586 0.52625 0.0
Zn1086 Zn 0.08792 0.50336 0.47306 0.0
O1087 O 0.06077 0.52655 0.4904 0.0
H1088 H 0.04801 0.52183 0.50386 0.0
Zn1089 Zn 0.0604 0.55886 0.4685 0.0
C1090 C 0.13132 0.47256 0.49569 0.0
O1091 O 0.14506 0.49279 0.48793 0.0
O1092 O 0.91632 0.51209 0.45534 0.0
O1093 O 0.92131 0.55473 0.45855 0.0
O1094 O 0.1169 0.51341 0.56632 0.0
O1095 O 0.10738 0.55396 0.57776 0.0
O1096 O 0.94317 0.50134 0.5962 0.0
O1097 O 0.94653 0.54413 0.59891 0.0
C1098 C 0.00759 0.5827 0.44978 0.0
O1099 O 0.10785 0.52106 0.44303 0.0
O1100 O 0.08182 0.55502 0.43384 0.0
O1101 O 0.07173 0.46255 0.56153 0.0
C1102 C 0.90706 0.53497 0.45275 0.0
O1103 O 0.97013 0.46844 0.44631 0.0
C1104 C 0.02021 0.58322 0.58331 0.0
O1105 O 0.93394 0.46697 0.54087 0.0
C1106 C 0.12384 0.53491 0.57649 0.0
O1107 O 0.10601 0.47243 0.4923 0.0
C1108 C 0.94507 0.58749 0.52604 0.0
O1109 O 0.98197 0.58331 0.45069 0.0
O1110 O 0.02055 0.5682 0.46554 0.0
C1111 C 0.93847 0.52251 0.60808 0.0
O1112 O 0.0458 0.58433 0.58239 0.0
O1113 O 0.0082 0.56395 0.57319 0.0
C1114 C 0.08543 0.58472 0.51228 0.0
O1115 O 0.9483 0.5859 0.55082 0.0
O1116 O 0.95756 0.57128 0.51172 0.0
C1117 C 0.10225 0.54067 0.42886 0.0
O1118 O 0.08233 0.58558 0.48754 0.0
O1119 O 0.07098 0.56908 0.52521 0.0
C1120 C 0.04725 0.4561 0.56365 0.0
O1121 O 0.02843 0.4729 0.55743 0.0
C1122 C 0.98877 0.47437 0.43038 0.0
O1123 O 0.99563 0.49873 0.4279 0.0
Zn1124 Zn 0.48242 0.99389 0.46192 0.0
Zn1125 Zn 0.46884 0.05534 0.47392 0.0
O1126 O 0.49837 0.02849 0.47257 0.0
H1127 H 0.51423 0.02972 0.48341 0.0
C1128 C 0.45719 0.93466 0.55372 0.0
O1129 O 0.4799 0.92837 0.56525 0.0
Zn1130 Zn 0.57363 0.05712 0.53864 0.0
Zn1131 Zn 0.57135 0.99476 0.55059 0.0
O1132 O 0.54911 0.02603 0.53892 0.0
H1133 H 0.53298 0.0248 0.52845 0.0
Zn1134 Zn 0.47633 0.9881 0.5639 0.0
O1135 O 0.48008 0.02012 0.54109 0.0
Zn1136 Zn 0.48299 0.05114 0.56486 0.0
H1137 H 0.48352 0.01944 0.52241 0.0
Zn1138 Zn 0.5613 0.99631 0.44519 0.0
O1139 O 0.5632 0.02728 0.46995 0.0
H1140 H 0.56258 0.01138 0.46003 0.0
Zn1141 Zn 0.55839 0.05908 0.44766 0.0
C1142 C 0.58859 0.95773 0.47933 0.0
O1143 O 0.58714 0.9768 0.49637 0.0
O1144 O 0.44292 0.9987 0.45144 0.0
O1145 O 0.43439 0.04052 0.4582 0.0
O1146 O 0.60853 0.00554 0.5644 0.0
O1147 O 0.60919 0.04769 0.55564 0.0
O1148 O 0.47274 0.99748 0.60318 0.0
O1149 O 0.47465 0.04052 0.60235 0.0
C1150 C 0.50374 0.08919 0.44541 0.0
O1151 O 0.56861 0.00767 0.40702 0.0
O1152 O 0.56867 0.05069 0.40987 0.0
O1153 O 0.55461 0.96174 0.5683 0.0
C1154 C 0.42707 0.0181 0.45048 0.0
O1155 O 0.50387 0.96792 0.43788 0.0
C1156 C 0.53353 0.08558 0.5673 0.0
O1157 O 0.4515 0.95844 0.55044 0.0
C1158 C 0.62025 0.02738 0.56501 0.0
O1159 O 0.57875 0.96098 0.45645 0.0
C1160 C 0.45542 0.08204 0.52736 0.0
O1161 O 0.47964 0.08715 0.45334 0.0
O1162 O 0.51974 0.07064 0.45072 0.0
C1163 C 0.47183 0.01928 0.61486 0.0
O1164 O 0.55769 0.08664 0.55943 0.0
O1165 O 0.52045 0.06509 0.5621 0.0
C1166 C 0.58571 0.08746 0.48715 0.0
O1167 O 0.45891 0.0797 0.55204 0.0
O1168 O 0.46474 0.06437 0.51247 0.0
C1169 C 0.57159 0.02988 0.39656 0.0
O1170 O 0.58131 0.08734 0.46251 0.0
O1171 O 0.57691 0.06859 0.5007 0.0
C1172 C 0.55056 0.94111 0.55526 0.0
O1173 O 0.55442 0.94127 0.52971 0.0
C1174 C 0.50513 0.94376 0.44264 0.0
O1175 O 0.49422 0.93489 0.46435 0.0
H1176 H 0.13867 0.16294 0.56564 0.0
H1177 H 0.20463 0.12746 0.5237 0.0
H1178 H 0.17545 0.09281 0.50897 0.0
H1179 H 0.13036 0.0748 0.50428 0.0
H1180 H 0.06373 0.11054 0.54425 0.0
H1181 H 0.09382 0.14279 0.56363 0.0
C1182 C 0.14664 0.14747 0.55349 0.0
C1183 C 0.17377 0.1478 0.54583 0.0
C1184 C 0.1296 0.1277 0.54469 0.0
C1185 C 0.18393 0.12751 0.53025 0.0
C1186 C 0.16721 0.10777 0.52158 0.0
C1187 C 0.12264 0.08946 0.5176 0.0
C1188 C 0.09517 0.09026 0.52334 0.0
C1189 C 0.13994 0.108 0.52817 0.0
C1190 C 0.08505 0.10925 0.54037 0.0
C1191 C 0.10218 0.12784 0.5511 0.0
H1192 H 0.84867 0.14362 0.46793 0.0
H1193 H 0.909 0.18663 0.42593 0.0
H1194 H 0.94344 0.15562 0.44016 0.0
H1195 H 0.95694 0.11954 0.46948 0.0
H1196 H 0.89643 0.07939 0.51386 0.0
H1197 H 0.86121 0.10563 0.49326 0.0
C1198 C 0.86917 0.14581 0.46113 0.0
C1199 C 0.87627 0.16739 0.44588 0.0
C1200 C 0.88882 0.1285 0.47006 0.0
C1201 C 0.90309 0.17024 0.43781 0.0
C1202 C 0.92276 0.15256 0.44599 0.0
C1203 C 0.93595 0.11634 0.4741 0.0
C1204 C 0.92897 0.09782 0.49303 0.0
C1205 C 0.91598 0.13214 0.46288 0.0
C1206 C 0.90196 0.09374 0.49932 0.0
C1207 C 0.88193 0.10871 0.48761 0.0
H1208 H 0.91339 0.88868 0.46228 0.0
H1209 H 0.8382 0.9299 0.47113 0.0
H1210 H 0.86222 0.96867 0.48371 0.0
H1211 H 0.90371 0.9891 0.49842 0.0
H1212 H 0.97848 0.94677 0.49463 0.0
H1213 H 0.95549 0.91026 0.47415 0.0
C1214 C 0.90221 0.90612 0.46693 0.0
C1215 C 0.87394 0.90609 0.46592 0.0
C1216 C 0.91607 0.92815 0.47546 0.0
C1217 C 0.85994 0.9292 0.47133 0.0
C1218 C 0.87365 0.95143 0.47888 0.0
C1219 C 0.91505 0.97204 0.49276 0.0
C1220 C 0.94262 0.97042 0.49841 0.0
C1221 C 0.90159 0.95085 0.48189 0.0
C1222 C 0.95711 0.94826 0.49084 0.0
C1223 C 0.94398 0.9274 0.47915 0.0
H1224 H 0.13863 0.8542 0.51977 0.0
H1225 H 0.177 0.90432 0.57613 0.0
H1226 H 0.14674 0.93968 0.56365 0.0
H1227 H 0.11164 0.95692 0.53463 0.0
H1228 H 0.07449 0.90703 0.47709 0.0
H1229 H 0.10182 0.87076 0.49247 0.0
C1230 C 0.14001 0.87272 0.52967 0.0
C1231 C 0.15994 0.87672 0.54882 0.0
C1232 C 0.12292 0.89297 0.52209 0.0
C1233 C 0.16188 0.90092 0.56119 0.0
C1234 C 0.14461 0.92108 0.55408 0.0
C1235 C 0.10932 0.93806 0.52559 0.0
C1236 C 0.09123 0.93472 0.5046 0.0
C1237 C 0.12541 0.91743 0.5342 0.0
C1238 C 0.08842 0.91015 0.49316 0.0
C1239 C 0.10404 0.88941 0.50192 0.0
H1240 H 0.48547 0.14085 0.16535 0.0
H1241 H 0.53746 0.20223 0.1392 0.0
H1242 H 0.5579 0.1735 0.10693 0.0
H1243 H 0.56179 0.13115 0.08689 0.0
H1244 H 0.50975 0.06925 0.11158 0.0
H1245 H 0.48871 0.09795 0.14402 0.0
C1246 C 0.50119 0.14786 0.15246 0.0
C1247 C 0.5098 0.17363 0.15444 0.0
C1248 C 0.51299 0.13117 0.13396 0.0
C1249 C 0.53013 0.1826 0.13766 0.0
C1250 C 0.54202 0.16614 0.1194 0.0
C1251 C 0.54593 0.12381 0.09942 0.0
C1252 C 0.53747 0.09809 0.097 0.0
C1253 C 0.53373 0.14041 0.11753 0.0
C1254 C 0.51667 0.089 0.11317 0.0
C1255 C 0.50462 0.1054 0.13165 0.0
H1256 H 0.87229 0.5442 0.19208 0.0
H1257 H 0.86933 0.46114 0.18544 0.0
H1258 H 0.90877 0.46153 0.15689 0.0
H1259 H 0.94122 0.48559 0.13099 0.0
H1260 H 0.94311 0.56893 0.13548 0.0
H1261 H 0.90737 0.56826 0.16842 0.0
C1262 C 0.88059 0.52619 0.1847 0.0
C1263 C 0.86787 0.50269 0.19059 0.0
C1264 C 0.90301 0.52661 0.168 0.0
C1265 C 0.87861 0.47947 0.18078 0.0
C1266 C 0.90118 0.47969 0.16459 0.0
C1267 C 0.93417 0.50365 0.1394 0.0
C1268 C 0.94464 0.52729 0.13051 0.0
C1269 C 0.91314 0.50318 0.15763 0.0
C1270 C 0.93529 0.55045 0.14181 0.0
C1271 C 0.91476 0.5501 0.16056 0.0
H1272 H 0.53902 0.90157 0.17412 0.0
H1273 H 0.61044 0.88308 0.12988 0.0
H1274 H 0.5961 0.91254 0.09475 0.0
H1275 H 0.56094 0.93972 0.07488 0.0
H1276 H 0.48796 0.95521 0.11804 0.0
H1277 H 0.50549 0.93113 0.15573 0.0
C1278 C 0.55178 0.90451 0.15709 0.0
C1279 C 0.57578 0.89033 0.15455 0.0
C1280 C 0.54301 0.92078 0.13678 0.0
C1281 C 0.59185 0.89381 0.13214 0.0
C1282 C 0.58364 0.91059 0.11211 0.0
C1283 C 0.54909 0.93823 0.09272 0.0
C1284 C 0.52314 0.94906 0.09368 0.0
C1285 C 0.55891 0.92362 0.11393 0.0
C1286 C 0.50792 0.94686 0.11682 0.0
C1287 C 0.5179 0.93307 0.13832 0.0
H1288 H 0.23777 0.54149 0.1261 0.0
H1289 H 0.22691 0.46145 0.14686 0.0
H1290 H 0.19008 0.45803 0.11507 0.0
H1291 H 0.15699 0.47967 0.08724 0.0
H1292 H 0.16494 0.56107 0.07022 0.0
H1293 H 0.20744 0.56201 0.09428 0.0
C1294 C 0.22787 0.52309 0.12299 0.0
C1295 C 0.23489 0.50171 0.13862 0.0
C1296 C 0.20606 0.52167 0.10566 0.0
C1297 C 0.22169 0.47809 0.13494 0.0
C1298 C 0.20063 0.47621 0.11691 0.0
C1299 C 0.16825 0.49754 0.08826 0.0
C1300 C 0.1576 0.52038 0.07729 0.0
C1301 C 0.19198 0.49817 0.10301 0.0
C1302 C 0.17254 0.5433 0.07876 0.0
C1303 C 0.19679 0.54386 0.09257 0.0
H1304 H 0.51206 0.86443 0.83897 0.0
H1305 H 0.59746 0.87582 0.84452 0.0
H1306 H 0.59055 0.90923 0.87836 0.0
H1307 H 0.5599 0.93287 0.90827 0.0
H1308 H 0.47425 0.92118 0.9012 0.0
H1309 H 0.48155 0.89038 0.86584 0.0
C1310 C 0.52908 0.87446 0.84753 0.0
C1311 C 0.55517 0.86778 0.83976 0.0
C1312 C 0.52489 0.89345 0.86667 0.0
C1313 C 0.57722 0.88082 0.85051 0.0
C1314 C 0.57324 0.89978 0.8698 0.0
C1315 C 0.54284 0.92376 0.89881 0.0
C1316 C 0.51661 0.92911 0.90765 0.0
C1317 C 0.54713 0.90594 0.87835 0.0
C1318 C 0.4947 0.91732 0.895 0.0
C1319 C 0.4988 0.89963 0.87476 0.0
H1320 H 0.17051 0.49969 0.83479 0.0
H1321 H 0.19428 0.57603 0.85918 0.0
H1322 H 0.1561 0.57836 0.88937 0.0
H1323 H 0.11779 0.55775 0.91053 0.0
H1324 H 0.09596 0.47989 0.88927 0.0
H1325 H 0.13132 0.47913 0.85579 0.0
C1326 C 0.16709 0.51684 0.84663 0.0
C1327 C 0.18502 0.53764 0.84498 0.0
C1328 C 0.1455 0.51775 0.86437 0.0
C1329 C 0.18073 0.55975 0.86044 0.0
C1330 C 0.15892 0.56111 0.87757 0.0
C1331 C 0.12046 0.54075 0.89828 0.0
C1332 C 0.10424 0.51895 0.90222 0.0
C1333 C 0.14139 0.54011 0.87991 0.0
C1334 C 0.10823 0.49691 0.88653 0.0
C1335 C 0.12847 0.49644 0.86748 0.0
H1336 H 0.48017 0.13049 0.84289 0.0
H1337 H 0.42394 0.16278 0.89851 0.0
H1338 H 0.44313 0.13572 0.93355 0.0
H1339 H 0.47965 0.10674 0.94904 0.0
H1340 H 0.53787 0.07821 0.89324 0.0
H1341 H 0.51397 0.09966 0.85741 0.0
C1342 C 0.47154 0.13104 0.86249 0.0
C1343 C 0.45056 0.1484 0.86811 0.0
C1344 C 0.48331 0.11632 0.88253 0.0
C1345 C 0.44008 0.14947 0.89377 0.0
C1346 C 0.45112 0.13411 0.91377 0.0
C1347 C 0.48666 0.10486 0.92895 0.0
C1348 C 0.51043 0.09105 0.92368 0.0
C1349 C 0.4733 0.11804 0.90853 0.0
C1350 C 0.5197 0.08897 0.89769 0.0
C1351 C 0.50606 0.10118 0.87722 0.0
H1352 H 0.79635 0.52037 0.90624 0.0
H1353 H 0.81453 0.60087 0.89415 0.0
H1354 H 0.85201 0.5977 0.92518 0.0
H1355 H 0.88356 0.57039 0.94952 0.0
H1356 H 0.86718 0.48899 0.95888 0.0
H1357 H 0.82463 0.4943 0.93564 0.0
C1358 C 0.80797 0.53741 0.91112 0.0
C1359 C 0.80291 0.56078 0.89792 0.0
C1360 C 0.83001 0.53516 0.92816 0.0
C1361 C 0.81828 0.58266 0.90404 0.0
C1362 C 0.83973 0.58081 0.92165 0.0
C1363 C 0.87048 0.55386 0.94696 0.0
C1364 C 0.87884 0.52921 0.95544 0.0
C1365 C 0.84647 0.55688 0.93287 0.0
C1366 C 0.86144 0.50812 0.95222 0.0
C1367 C 0.83712 0.51111 0.93886 0.0
H1368 H 0.66692 0.68547 0.99039 0.0
H1369 H 0.70723 0.65356 0.05822 0.0
H1370 H 0.67176 0.62121 0.06302 0.0
H1371 H 0.6297 0.60198 0.04742 0.0
H1372 H 0.59065 0.63298 0.97827 0.0
H1373 H 0.62524 0.66601 0.97454 0.0
C1374 C 0.66774 0.67152 0.00633 0.0
C1375 C 0.68933 0.67182 0.02407 0.0
C1376 C 0.64762 0.65295 0.00867 0.0
C1377 C 0.69067 0.65349 0.04436 0.0
C1378 C 0.67043 0.63513 0.04712 0.0
C1379 C 0.6287 0.61606 0.03163 0.0
C1380 C 0.60769 0.61512 0.01318 0.0
C1381 C 0.64886 0.63467 0.02933 0.0
C1382 C 0.60674 0.63328 0.99264 0.0
C1383 C 0.62645 0.65217 0.99051 0.0
H1384 H 0.31987 0.65751 0.98863 0.0
H1385 H 0.34237 0.6892 0.064 0.0
H1386 H 0.37602 0.65515 0.06965 0.0
H1387 H 0.40185 0.6195 0.05119 0.0
H1388 H 0.3819 0.58957 0.97429 0.0
H1389 H 0.34365 0.61924 0.97161 0.0
C1390 C 0.33192 0.65667 0.00642 0.0
C1391 C 0.32902 0.67588 0.02573 0.0
C1392 C 0.35148 0.63733 0.00931 0.0
C1393 C 0.34473 0.6748 0.04868 0.0
C1394 C 0.36378 0.65529 0.05198 0.0
C1395 C 0.3888 0.619 0.03408 0.0
C1396 C 0.39482 0.60255 0.01286 0.0
C1397 C 0.36773 0.63684 0.03215 0.0
C1398 C 0.37775 0.6022 0.99081 0.0
C1399 C 0.35601 0.61927 0.98919 0.0
H1400 H 0.34657 0.37777 0.07454 0.0
H1401 H 0.32225 0.38899 0.99376 0.0
H1402 H 0.36025 0.41776 0.98663 0.0
H1403 H 0.402 0.43705 0.0024 0.0
H1404 H 0.42703 0.42525 0.08296 0.0
H1405 H 0.3873 0.39887 0.09099 0.0
C1406 C 0.34954 0.38667 0.05544 0.0
C1407 C 0.33174 0.38123 0.0347 0.0
C1408 C 0.37173 0.40266 0.05132 0.0
C1409 C 0.3355 0.39314 0.01014 0.0
C1410 C 0.35739 0.40933 0.00595 0.0
C1411 C 0.39883 0.42865 0.02171 0.0
C1412 C 0.41756 0.43281 0.04196 0.0
C1413 C 0.37593 0.41374 0.02623 0.0
C1414 C 0.41293 0.42221 0.067 0.0
C1415 C 0.39022 0.40718 0.07162 0.0
H1416 H 0.7203 0.38525 0.01293 0.0
H1417 H 0.7031 0.37808 0.93002 0.0
H1418 H 0.66519 0.40791 0.93451 0.0
H1419 H 0.63428 0.43175 0.96271 0.0
H1420 H 0.64961 0.43712 0.04625 0.0
H1421 H 0.69144 0.41283 0.04067 0.0
C1422 C 0.70857 0.39071 0.99578 0.0
C1423 C 0.71425 0.3794 0.97122 0.0
C1424 C 0.68647 0.40739 0.99865 0.0
C1425 C 0.69882 0.38635 0.94916 0.0
C1426 C 0.67721 0.40339 0.95172 0.0
C1427 C 0.64689 0.42796 0.97972 0.0
C1428 C 0.63854 0.43588 0.00494 0.0
C1429 C 0.6704 0.41338 0.97651 0.0
C1430 C 0.6554 0.43106 0.02664 0.0
C1431 C 0.67927 0.41706 0.02349 0.0
H1432 H 0.98111 0.6832 0.64083 0.0
H1433 H 0.92461 0.62942 0.67412 0.0
H1434 H 0.94035 0.59577 0.64381 0.0
H1435 H 0.97509 0.58036 0.61287 0.0
H1436 H 0.03275 0.63396 0.5817 0.0
H1437 H 0.01177 0.66919 0.60631 0.0
C1438 C 0.97157 0.6644 0.64087 0.0
C1439 C 0.95176 0.65877 0.65967 0.0
C1440 C 0.98134 0.64505 0.62414 0.0
C1441 C 0.94001 0.63412 0.65987 0.0
C1442 C 0.94909 0.61489 0.64266 0.0
C1443 C 0.98232 0.59989 0.61077 0.0
C1444 C 0.00519 0.60465 0.59545 0.0
C1445 C 0.97046 0.6199 0.62543 0.0
C1446 C 0.0152 0.62989 0.59356 0.0
C1447 C 0.0032 0.65001 0.60757 0.0
H1448 H 0.41506 0.00518 0.72323 0.0
H1449 H 0.41439 0.08842 0.71915 0.0
H1450 H 0.44456 0.08698 0.68121 0.0
H1451 H 0.46437 0.06181 0.64523 0.0
H1452 H 0.46208 0.97849 0.64774 0.0
H1453 H 0.44044 0.98016 0.69072 0.0
C1454 C 0.42228 0.02302 0.71459 0.0
C1455 C 0.41243 0.04687 0.72373 0.0
C1456 C 0.43874 0.02197 0.69229 0.0
C1457 C 0.4216 0.06985 0.7122 0.0
C1458 C 0.43872 0.06901 0.69048 0.0
C1459 C 0.45955 0.04403 0.65535 0.0
C1460 C 0.46418 0.02013 0.64295 0.0
C1461 C 0.44635 0.04514 0.67965 0.0
C1462 C 0.45832 0.9972 0.65659 0.0
C1463 C 0.44587 0.99812 0.68117 0.0
H1464 H 0.04275 0.35799 0.63549 0.0
H1465 H 0.96695 0.39267 0.65711 0.0
H1466 H 0.97275 0.42572 0.62313 0.0
H1467 H 0.00116 0.44654 0.59 0.0
H1468 H 0.07818 0.41306 0.5704 0.0
H1469 H 0.06973 0.37712 0.60043 0.0
C1470 C 0.02724 0.37248 0.63241 0.0
C1471 C 0.00446 0.37297 0.64872 0.0
C1472 C 0.03093 0.39151 0.61321 0.0
C1473 C 0.98477 0.39212 0.6449 0.0
C1474 C 0.98804 0.4109 0.62544 0.0
C1475 C 0.01586 0.4311 0.5919 0.0
C1476 C 0.04029 0.43242 0.57812 0.0
C1477 C 0.01128 0.41105 0.60984 0.0
C1478 C 0.05928 0.41246 0.58094 0.0
C1479 C 0.05451 0.392 0.59815 0.0
H1480 H 0.70848 0.05712 0.64741 0.0
H1481 H 0.7128 0.97422 0.65475 0.0
H1482 H 0.68223 0.96932 0.61736 0.0
H1483 H 0.65054 0.98878 0.58617 0.0
H1484 H 0.64595 0.0719 0.57906 0.0
H1485 H 0.68088 0.07652 0.61237 0.0
C1486 C 0.70286 0.03803 0.64058 0.0
C1487 C 0.71244 0.01606 0.65386 0.0
C1488 C 0.68529 0.0354 0.61919 0.0
C1489 C 0.70553 0.99136 0.64473 0.0
C1490 C 0.68803 0.98858 0.62346 0.0
C1491 C 0.65747 0.00791 0.59155 0.0
C1492 C 0.64524 0.02994 0.58051 0.0
C1493 C 0.67724 0.01048 0.61102 0.0
C1494 C 0.65481 0.05457 0.58741 0.0
C1495 C 0.67468 0.05727 0.60659 0.0
H1496 H 0.05219 0.40272 0.35146 0.0
H1497 H 0.00447 0.34459 0.39011 0.0
H1498 H 0.98557 0.37727 0.41942 0.0
H1499 H 0.98059 0.4226 0.43229 0.0
H1500 H 0.02741 0.48103 0.39295 0.0
H1501 H 0.04844 0.44798 0.36548 0.0
C1502 C 0.03764 0.39724 0.3663 0.0
C1503 C 0.02969 0.37132 0.36855 0.0
C1504 C 0.02652 0.41617 0.38279 0.0
C1505 C 0.01117 0.36438 0.38816 0.0
C1506 C 0.00017 0.38308 0.40479 0.0
C1507 C 0.99544 0.42812 0.41776 0.0
C1508 C 0.00223 0.45425 0.41451 0.0
C1509 C 0.0074 0.40907 0.402 0.0
C1510 C 0.02169 0.46105 0.39575 0.0
C1511 C 0.03375 0.44217 0.38003 0.0
H1512 H 0.64065 0.01554 0.29498 0.0
H1513 H 0.64316 0.09852 0.30042 0.0
H1514 H 0.60964 0.09783 0.3357 0.0
H1515 H 0.58496 0.07302 0.36887 0.0
H1516 H 0.58291 0.98971 0.36341 0.0
H1517 H 0.61023 0.99115 0.32375 0.0
C1518 C 0.63324 0.03342 0.30354 0.0
C1519 C 0.64417 0.05701 0.29548 0.0
C1520 C 0.61424 0.03279 0.32384 0.0
C1521 C 0.63472 0.0802 0.30645 0.0
C1522 C 0.61575 0.07976 0.32666 0.0
C1523 C 0.59 0.0552 0.35873 0.0
C1524 C 0.58246 0.03128 0.36952 0.0
C1525 C 0.60611 0.05609 0.33612 0.0
C1526 C 0.58881 0.0084 0.35584 0.0
C1527 C 0.60455 0.00916 0.33317 0.0
H1528 H 0.07091 0.6589 0.37637 0.0
H1529 H 0.00959 0.63379 0.32206 0.0
H1530 H 0.99295 0.6031 0.35434 0.0
H1531 H 0.99262 0.5868 0.39941 0.0
H1532 H 0.05333 0.61125 0.45432 0.0
H1533 H 0.07362 0.63871 0.42046 0.0
C1534 C 0.05419 0.64639 0.37156 0.0
C1535 C 0.04146 0.64864 0.34694 0.0
C1536 C 0.04447 0.62891 0.39038 0.0
C1537 C 0.01994 0.63222 0.34077 0.0
C1538 C 0.01021 0.61484 0.3593 0.0
C1539 C 0.01044 0.59802 0.40383 0.0
C1540 C 0.02148 0.59731 0.42919 0.0
C1541 C 0.02181 0.61359 0.38437 0.0
C1542 C 0.04474 0.61147 0.43477 0.0
C1543 C 0.05617 0.62726 0.41549 0.0
H1544 H 0.32749 0.02441 0.37485 0.0
H1545 H 0.34407 0.94264 0.36973 0.0
H1546 H 0.37756 0.94637 0.40466 0.0
H1547 H 0.40528 0.97344 0.43285 0.0
H1548 H 0.39046 0.05566 0.43681 0.0
H1549 H 0.35245 0.05101 0.40673 0.0
C1550 C 0.33803 0.00734 0.38181 0.0
C1551 C 0.33357 0.98333 0.36958 0.0
C1552 C 0.35756 0.00971 0.40161 0.0
C1553 C 0.34751 0.96139 0.37859 0.0
C1554 C 0.36657 0.96349 0.39858 0.0
C1555 C 0.39355 0.99036 0.42749 0.0
C1556 C 0.40103 0.01492 0.43677 0.0
C1557 C 0.37229 0.98767 0.40966 0.0
C1558 C 0.3853 0.03653 0.42985 0.0
C1559 C 0.36364 0.03391 0.41251 0.0
H1560 H 0.0778 0.14798 0.36096 0.0
H1561 H 0.00202 0.15146 0.31945 0.0
H1562 H 0.98288 0.1207 0.35014 0.0
H1563 H 0.98582 0.09626 0.39091 0.0
H1564 H 0.06014 0.09346 0.43454 0.0
H1565 H 0.08161 0.12055 0.40094 0.0
C1566 C 0.05713 0.14193 0.35851 0.0
C1567 C 0.04146 0.15229 0.33773 0.0
C1568 C 0.04586 0.12456 0.37681 0.0
C1569 C 0.01485 0.14371 0.33478 0.0
C1570 C 0.0037 0.12628 0.3526 0.0
C1571 C 0.0068 0.10141 0.39312 0.0
C1572 C 0.02128 0.093 0.41542 0.0
C1573 C 0.01877 0.11713 0.374 0.0
C1574 C 0.04853 0.0996 0.41761 0.0
C1575 C 0.06074 0.11521 0.39844 0.0
H1576 H 0.83167 0.04089 0.33757 0.0
H1577 H 0.88238 0.10534 0.31745 0.0
H1578 H 0.90285 0.10376 0.36121 0.0
H1579 H 0.91018 0.08065 0.40278 0.0
H1580 H 0.86294 0.01325 0.42064 0.0
H1581 H 0.8367 0.01977 0.38042 0.0
C1582 C 0.84734 0.0545 0.34266 0.0
C1583 C 0.85589 0.07286 0.32405 0.0
C1584 C 0.85935 0.05313 0.36759 0.0
C1585 C 0.87554 0.09093 0.33133 0.0
C1586 C 0.88724 0.09003 0.35635 0.0
C1587 C 0.8935 0.06794 0.39833 0.0
C1588 C 0.88834 0.04657 0.41466 0.0
C1589 C 0.87971 0.07085 0.3744 0.0
C1590 C 0.86708 0.02992 0.40842 0.0
C1591 C 0.85236 0.03345 0.38527 0.0
H1592 H 0.0398 0.88279 0.33563 0.0
H1593 H 0.95655 0.86594 0.31963 0.0
H1594 H 0.94263 0.89991 0.35015 0.0
H1595 H 0.95404 0.93284 0.38315 0.0
H1596 H 0.03733 0.94922 0.39961 0.0
H1597 H 0.05124 0.91672 0.36749 0.0
C1598 C 0.0186 0.88656 0.3388 0.0
C1599 C -0.00073 0.87173 0.3254 0.0
C1600 C 0.01072 0.90584 0.35671 0.0
C1601 C 0.97188 0.87721 0.32941 0.0
C1602 C 0.96389 0.89647 0.34709 0.0
C1603 C 0.97524 0.92927 0.37975 0.0
C1604 C 0.9946 0.94337 0.39389 0.0
C1605 C 0.98312 0.91062 0.36115 0.0
C1606 C 0.02199 0.93867 0.38902 0.0
C1607 C 0.02998 0.92008 0.37064 0.0
H1608 H 0.10729 0.99897 0.29586 0.0
H1609 H 0.16169 0.06073 0.31606 0.0
H1610 H 0.13701 0.06862 0.35648 0.0
H1611 H 0.10475 0.05347 0.38963 0.0
H1612 H 0.05412 0.98831 0.37161 0.0
H1613 H 0.07303 0.98584 0.32748 0.0
C1614 C 0.11378 0.01423 0.30901 0.0
C1615 C 0.13672 0.02883 0.30286 0.0
C1616 C 0.10054 0.01766 0.33314 0.0
C1617 C 0.14406 0.04916 0.31986 0.0
C1618 C 0.13018 0.05349 0.34335 0.0
C1619 C 0.09766 0.03893 0.37593 0.0
C1620 C 0.07845 0.02079 0.38409 0.0
C1621 C 0.10915 0.03713 0.35072 0.0
C1622 C 0.06931 0.00217 0.36604 0.0
C1623 C 0.08002 1.00081 0.34071 0.0
H1624 H 0.02231 0.8845 0.71572 0.0
H1625 H 0.95421 0.85202 0.67489 0.0
H1626 H 0.95885 0.88385 0.64006 0.0
H1627 H 0.98374 0.9193 0.61955 0.0
H1628 H 0.05325 0.95047 0.65904 0.0
H1629 H 0.04672 0.92064 0.6956 0.0
C1630 C 0.0085 0.88433 0.69921 0.0
C1631 C 0.98784 0.86587 0.69821 0.0
C1632 C 0.01164 0.90238 0.67874 0.0
C1633 C 0.96997 0.86626 0.67667 0.0
C1634 C 0.97276 0.88433 0.65649 0.0
C1635 C 0.99736 0.91971 0.63622 0.0
C1636 C 0.01901 0.93705 0.6364 0.0
C1637 C 0.9937 0.90229 0.65713 0.0
C1638 C 0.03646 0.93726 0.65824 0.0
C1639 C 0.03276 0.92019 0.67922 0.0
H1640 H 0.18361 0.06468 0.6832 0.0
H1641 H 0.18962 0.98208 0.69427 0.0
H1642 H 0.16296 0.97504 0.65477 0.0
H1643 H 0.13647 0.99199 0.61841 0.0
H1644 H 0.12889 0.07442 0.60723 0.0
H1645 H 0.15902 0.08177 0.6446 0.0
C1646 C 0.17928 0.04513 0.67687 0.0
C1647 C 0.18835 0.02395 0.69203 0.0
C1648 C 0.16413 0.04115 0.65383 0.0
C1649 C 0.18234 0.99877 0.68352 0.0
C1650 C 0.16739 0.99469 0.66069 0.0
C1651 C 0.14167 0.01163 0.6238 0.0
C1652 C 0.13018 0.03261 0.61009 0.0
C1653 C 0.15803 0.01571 0.64584 0.0
C1654 C 0.13747 0.05787 0.61731 0.0
C1655 C 0.15442 0.06209 0.63892 0.0
H1656 H 0.06901 0.16391 0.68211 0.0
H1657 H 0.9839 0.17021 0.69748 0.0
H1658 H 0.97429 0.14404 0.6589 0.0
H1659 H 0.9896 0.12124 0.61959 0.0
H1660 H 0.07447 0.11424 0.60379 0.0
H1661 H 0.08453 0.13971 0.64316 0.0
C1662 C 0.04837 0.15944 0.67709 0.0
C1663 C 0.02727 0.16903 0.69282 0.0
C1664 C 0.04286 0.14488 0.65439 0.0
C1665 C 0.00064 0.16273 0.68617 0.0
C1666 C 0.99504 0.1481 0.6638 0.0
C1667 C 0.0103 0.12562 0.62451 0.0
C1668 C 0.03123 0.11636 0.60849 0.0
C1669 C 0.01594 0.13953 0.64752 0.0
C1670 C 0.05798 0.12153 0.61559 0.0
C1671 C 0.06374 0.13588 0.63821 0.0
H1672 H 0.89019 0.05193 0.70164 0.0
H1673 H 0.92889 0.9805 0.72392 0.0
H1674 H 0.95307 0.97968 0.68183 0.0
H1675 H 0.96188 0.99885 0.63791 0.0
H1676 H 0.92187 0.07014 0.61664 0.0
H1677 H 0.89953 0.07131 0.6591 0.0
C1678 C 0.90443 0.03649 0.69765 0.0
C1679 C 0.90803 0.01652 0.71608 0.0
C1680 C 0.9177 0.03589 0.67335 0.0
C1681 C 0.9259 0.99621 0.71012 0.0
C1682 C 0.9396 0.99567 0.68601 0.0
C1683 C 0.94813 0.01452 0.64253 0.0
C1684 C 0.94353 0.03431 0.62398 0.0
C1685 C 0.93533 0.01524 0.66727 0.0
C1686 C 0.92584 0.05463 0.63044 0.0
C1687 C 0.91307 0.0554 0.6548 0.0
H1688 H 0.31976 0.97436 0.11107 0.0
H1689 H 0.3687 0.95082 0.17722 0.0
H1690 H 0.40915 0.95788 0.1517 0.0
H1691 H 0.4309 0.97651 0.11315 0.0
H1692 H 0.38262 0.00276 0.04771 0.0
H1693 H 0.34192 0.98875 0.07027 0.0
C1694 C 0.33926 0.97055 0.11981 0.0
C1695 C 0.34101 0.96221 0.14613 0.0
C1696 C 0.3627 0.97543 0.10524 0.0
C1697 C 0.36652 0.95693 0.15694 0.0
C1698 C 0.38981 0.96123 0.14244 0.0
C1699 C 0.41151 0.97883 0.10364 0.0
C1700 C 0.40978 0.99109 0.07905 0.0
C1701 C 0.38816 0.97131 0.11694 0.0
C1702 C 0.38452 0.99363 0.06682 0.0
C1703 C 0.36119 0.98574 0.07975 0.0
H1704 H 0.022 0.36067 0.17315 0.0
H1705 H 0.08959 0.32549 0.13358 0.0
H1706 H 0.09219 0.36246 0.10376 0.0
H1707 H 0.07685 0.40606 0.09049 0.0
H1708 H 0.00869 0.44044 0.12991 0.0
H1709 H 0.00446 0.40228 0.15767 0.0
C1710 C 0.03696 0.36069 0.15766 0.0
C1711 C 0.05564 0.34017 0.15585 0.0
C1712 C 0.03835 0.38203 0.14053 0.0
C1713 C 0.07517 0.34106 0.13583 0.0
C1714 C 0.07662 0.36221 0.11866 0.0
C1715 C 0.06094 0.40514 0.10501 0.0
C1716 C 0.0433 0.42635 0.1082 0.0
C1717 C 0.05862 0.38304 0.12111 0.0
C1718 C 0.02268 0.4246 0.12703 0.0
C1719 C 0.02024 0.40274 0.14301 0.0
H1720 H 0.72194 0.06509 0.07483 0.0
H1721 H 0.67904 0.10328 0.13769 0.0
H1722 H 0.63647 0.08952 0.11916 0.0
H1723 H 0.6119 0.06089 0.0894 0.0
H1724 H 0.65392 0.02294 0.02596 0.0
H1725 H 0.69621 0.04221 0.0404 0.0
C1726 C 0.70323 0.07088 0.08406 0.0
C1727 C 0.70377 0.08504 0.10769 0.0
C1728 C 0.67864 0.06243 0.07358 0.0
C1729 C 0.67932 0.09264 0.11933 0.0
C1730 C 0.65488 0.08446 0.10896 0.0
C1731 C 0.63026 0.05718 0.07852 0.0
C1732 C 0.62996 0.04015 0.05706 0.0
C1733 C 0.65439 0.06845 0.08678 0.0
C1734 C 0.65374 0.03582 0.04278 0.0
C1735 C 0.67794 0.04677 0.05105 0.0
H1736 H 0.02573 0.69988 0.11719 0.0
H1737 H 0.97373 0.66197 0.17288 0.0
H1738 H 0.977 0.62186 0.1478 0.0
H1739 H 0.00111 0.59552 0.11437 0.0
H1740 H 0.05761 0.63304 0.06307 0.0
H1741 H 0.04636 0.67492 0.08189 0.0
C1742 C 0.0149 0.68293 0.12377 0.0
C1743 C -9e-05 0.68398 0.14718 0.0
C1744 C 0.01803 0.65955 0.1101 0.0
C1745 C 0.98538 0.66193 0.15489 0.0
C1746 C 0.9875 0.63879 0.14072 0.0
C1747 C 0.01039 0.613 0.10702 0.0
C1748 C 0.03022 0.61131 0.08742 0.0
C1749 C 0.00471 0.63705 0.11893 0.0
C1750 C 0.04236 0.63397 0.07816 0.0
C1751 C 0.03599 0.65792 0.08899 0.0
H1752 H 0.3675 0.9724 0.8799 0.0
H1753 H 0.31517 0.00667 0.93818 0.0
H1754 H 0.35403 0.01653 0.96572 0.0
H1755 H 0.40315 0.02137 0.96976 0.0
H1756 H 0.45515 0.98606 0.91225 0.0
H1757 H 0.41594 0.97008 0.88797 0.0
C1758 C 0.36429 0.98115 0.89903 0.0
C1759 C 0.33832 0.98927 0.9066 0.0
C1760 C 0.38673 0.98695 0.91466 0.0
C1761 C 0.33492 1.00078 0.93149 0.0
C1762 C 0.35715 0.00646 0.94725 0.0
C1763 C 0.40575 0.00982 0.95209 0.0
C1764 C 0.4317 0.00518 0.94234 0.0
C1765 C 0.38319 1.00072 0.93843 0.0
C1766 C 0.4352 0.9899 0.91984 0.0
C1767 C 0.41282 0.98087 0.906 0.0
H1768 H 0.02514 0.36316 0.86785 0.0
H1769 H 0.94989 0.32985 0.89176 0.0
H1770 H 0.94311 0.36498 0.92355 0.0
H1771 H 0.95643 0.40747 0.94082 0.0
H1772 H 0.02996 0.44233 0.91351 0.0
H1773 H 0.03963 0.40432 0.88683 0.0
C1774 C 0.0076 0.36332 0.88051 0.0
C1775 C 0.98813 0.34399 0.87776 0.0
C1776 C 0.00334 0.38408 0.89778 0.0
C1777 C 0.96516 0.34458 0.89376 0.0
C1778 C 0.96122 0.36471 0.91174 0.0
C1779 C 0.97468 0.40667 0.9292 0.0
C1780 C 0.99246 0.42774 0.92926 0.0
C1781 C 0.9798 0.38498 0.91331 0.0
C1782 C 0.01596 0.42638 0.91398 0.0
C1783 C 0.02152 0.40465 0.89866 0.0
H1784 H 0.68313 0.0703 0.88086 0.0
H1785 H 0.72439 0.99821 0.89631 0.0
H1786 H 0.68772 0.98439 0.9244 0.0
H1787 H 0.6418 0.99021 0.94025 0.0
H1788 H 0.59897 0.06092 0.92377 0.0
H1789 H 0.63816 0.0777 0.90014 0.0
C1790 C 0.6842 0.05165 0.89053 0.0
C1791 C 0.70652 0.03527 0.88615 0.0
C1792 C 0.66252 0.04335 0.90609 0.0
C1793 C 0.70776 0.01142 0.8994 0.0
C1794 C 0.68657 0.00328 0.91525 0.0
C1795 C 0.64109 0.00934 0.93153 0.0
C1796 C 0.61752 0.02425 0.93347 0.0
C1797 C 0.66353 0.01868 0.91797 0.0
C1798 C 0.61695 0.04915 0.92255 0.0
C1799 C 0.63931 0.05867 0.90898 0.0
H1800 H 0.04893 0.65488 0.86334 0.0
H1801 H 0.98447 0.70113 0.89572 0.0
H1802 H 0.97765 0.66931 0.93023 0.0
H1803 H 0.98469 0.62548 0.9466 0.0
H1804 H 0.04686 0.57742 0.91334 0.0
H1805 H 0.06 0.61276 0.88386 0.0
C1806 C 0.03364 0.65817 0.87816 0.0
C1807 C 0.01701 0.68031 0.87658 0.0
C1808 C 0.02916 0.63927 0.89757 0.0
C1809 C -0.00227 0.68449 0.89638 0.0
C1810 C 0.99356 0.6661 0.91602 0.0
C1811 C 0.00142 0.62288 0.93317 0.0
C1812 C 0.01458 0.59882 0.9318 0.0
C1813 C 0.00836 0.64299 0.91608 0.0
C1814 C 0.03652 0.5958 0.91475 0.0
C1815 C 0.04382 0.61594 0.89776 0.0
H1816 H 0.13511 0.3479 0.03589 0.0
H1817 H 0.10139 0.30347 0.97213 0.0
H1818 H 0.07198 0.33979 0.96057 0.0
H1819 H 0.05974 0.38563 0.96561 0.0
H1820 H 0.09524 0.43033 0.02832 0.0
H1821 H 0.11955 0.39214 0.04373 0.0
C1822 C 0.1208 0.34583 0.01992 0.0
C1823 C 0.1205 0.32297 0.00485 0.0
C1824 C 0.10445 0.36694 0.01307 0.0
C1825 C 0.10218 0.32091 0.98389 0.0
C1826 C 0.08539 0.34167 0.97728 0.0
C1827 C 0.07251 0.38695 0.98286 0.0
C1828 C 0.07602 0.41091 0.99553 0.0
C1829 C 0.08697 0.36505 0.99123 0.0
C1830 C 0.09248 0.41222 0.01798 0.0
C1831 C 0.10642 0.39039 0.02679 0.0
H1832 H 0.09699 0.70295 0.01921 0.0
H1833 H 0.16413 0.67448 0.06455 0.0
H1834 H 0.14714 0.6304 0.06094 0.0
H1835 H 0.11605 0.599 0.03986 0.0
H1836 H 0.05012 0.62828 0.99329 0.0
H1837 H 0.06356 0.67251 0.00253 0.0
C1838 C 0.10774 0.68715 0.02856 0.0
C1839 C 0.13189 0.69214 0.04196 0.0
C1840 C 0.09813 0.66173 0.026 0.0
C1841 C 0.14534 0.67137 0.05428 0.0
C1842 C 0.13576 0.64602 0.05203 0.0
C1843 C 0.10433 0.61511 0.03236 0.0
C1844 C 0.08222 0.61035 0.0158 0.0
C1845 C 0.11256 0.64081 0.03728 0.0
C1846 C 0.06734 0.63143 0.00595 0.0
C1847 C 0.07505 0.65679 0.01114 0.0
H1848 H 0.35053 0.16608 0.05282 0.0
H1849 H 0.33617 0.17143 0.96912 0.0
H1850 H 0.37639 0.14541 0.96081 0.0
H1851 H 0.41542 0.12026 0.9777 0.0
H1852 H 0.43041 0.11862 0.0614 0.0
H1853 H 0.39114 0.14573 0.06909 0.0
C1854 C 0.35632 0.16221 0.03264 0.0
C1855 C 0.34011 0.17097 0.0117 0.0
C1856 C 0.38007 0.14836 0.02794 0.0
C1857 C 0.34779 0.16465 0.98578 0.0
C1858 C 0.37109 0.15008 0.98095 0.0
C1859 C 0.41051 0.12654 0.99751 0.0
C1860 C 0.4258 0.11743 0.01896 0.0
C1861 C 0.38747 0.14188 0.00191 0.0
C1862 C 0.41897 0.12537 0.04457 0.0
C1863 C 0.39635 0.14064 0.04902 0.0
H1864 H 0.94802 0.33874 0.98326 0.0
H1865 H 0.89301 0.34529 0.04866 0.0
H1866 H 0.91482 0.38488 0.06276 0.0
H1867 H 0.94716 0.41951 0.05495 0.0
H1868 H 0.00236 0.41368 0.98979 0.0
H1869 H 0.98273 0.37224 0.97719 0.0
C1870 C 0.9409 0.34871 0.00071 0.0
C1871 C 0.91883 0.33878 0.01484 0.0
C1872 C 0.95332 0.37191 0.00859 0.0
C1873 C 0.91018 0.35199 0.03757 0.0
C1874 C 0.92246 0.37492 0.04553 0.0
C1875 C 0.95496 0.40922 0.03798 0.0
C1876 C 0.97596 0.42001 0.02312 0.0
C1877 C 0.94366 0.38533 0.03092 0.0
C1878 C 0.98604 0.40607 0.00146 0.0
C1879 C 0.97481 0.38231 0.99423 0.0
H1880 H 0.70592 0.88386 0.03394 0.0
H1881 H 0.70344 0.86312 0.95147 0.0
H1882 H 0.66015 0.88454 0.94706 0.0
H1883 H 0.62259 0.90906 0.96657 0.0
H1884 H 0.62341 0.92535 0.04999 0.0
H1885 H 0.6668 0.90394 0.05422 0.0
C1886 C 0.6959 0.88338 0.01502 0.0
C1887 C 0.7085 0.87169 0.99314 0.0
C1888 C 0.67017 0.8944 0.01284 0.0
C1889 C 0.69504 0.8724 0.96869 0.0
C1890 C 0.66986 0.88428 0.96617 0.0
C1891 C 0.63192 0.90741 0.9858 0.0
C1892 C 0.61968 0.91901 0.00786 0.0
C1893 C 0.65713 0.89518 0.98816 0.0
C1894 C 0.63227 0.91671 0.03259 0.0
C1895 C 0.65728 0.90468 0.03503 0.0
H1896 H 0.90437 0.67338 0.9546 0.0
H1897 H 0.92141 0.71738 0.02508 0.0
H1898 H 0.94886 0.68216 0.04161 0.0
H1899 H 0.9625 0.63669 0.03953 0.0
H1900 H 0.93721 0.59014 0.97374 0.0
H1901 H 0.91783 0.62799 0.95254 0.0
C1902 C 0.91373 0.67539 0.97374 0.0
C1903 C 0.90993 0.69819 0.98862 0.0
C1904 C 0.92776 0.65419 0.98432 0.0
C1905 C 0.92376 0.70048 0.01276 0.0
C1906 C 0.93923 0.68003 0.0226 0.0
C1907 C 0.95288 0.63477 0.02047 0.0
C1908 C 0.95189 0.61044 0.008 0.0
C1909 C 0.94041 0.65645 0.00907 0.0
C1910 C 0.93916 0.60851 0.98342 0.0
C1911 C 0.92776 0.63024 0.97139 0.0
H1912 H 0.31567 0.88503 0.98192 0.0
H1913 H 0.30448 0.9045 0.0639 0.0
H1914 H 0.3447 0.93105 0.06286 0.0
H1915 H 0.38525 0.94565 0.03989 0.0
H1916 H 0.39507 0.9289 0.95723 0.0
H1917 H 0.3529 0.90491 0.95729 0.0
C1918 C 0.3215 0.89556 -0.00056 0.0
C1919 C 0.3071 0.89211 0.02313 0.0
C1920 C 0.34461 0.91124 0.99866 0.0
C1921 C 0.31541 0.90599 0.04556 0.0
C1922 C 0.33842 0.92139 0.04497 0.0
C1923 C 0.37799 0.9372 0.02173 0.0
C1924 C 0.39364 0.93891 0.99868 0.0
C1925 C 0.35357 0.9236 0.02183 0.0
C1926 C 0.3837 0.92778 0.97536 0.0
C1927 C 0.35954 0.91398 0.97538 0.0
H1928 H 0.73409 0.15416 0.00481 0.0
H1929 H 0.72863 0.15408 0.92005 0.0
H1930 H 0.69042 0.12468 0.92212 0.0
H1931 H 0.65561 0.1022 0.94838 0.0
H1932 H 0.66253 0.10242 0.03319 0.0
H1933 H 0.70314 0.12781 0.03051 0.0
C1934 C 0.72509 0.14724 0.9867 0.0
C1935 C 0.73416 0.15675 0.96235 0.0
C1936 C 0.70301 0.1304 0.988 0.0
C1937 C 0.72182 0.1476 0.93916 0.0
C1938 C 0.69992 0.13071 0.9403 0.0
C1939 C 0.66617 0.10755 0.96623 0.0
C1940 C 0.65555 0.10056 0.99092 0.0
C1941 C 0.68979 0.12255 0.96467 0.0
C1942 C 0.66983 0.10757 0.01383 0.0
C1943 C 0.6932 0.12223 0.01239 0.0
H1944 H 0.47907 0.65256 0.8225 0.0
H1945 H 0.5657 0.65528 0.82262 0.0
H1946 H 0.56702 0.62851 0.8621 0.0
H1947 H 0.54352 0.608 0.89929 0.0
H1948 H 0.45682 0.6073 0.90011 0.0
H1949 H 0.45568 0.62958 0.8579 0.0
C1950 C 0.49827 0.64721 0.83106 0.0
C1951 C 0.52221 0.65618 0.81955 0.0
C1952 C 0.4989 0.63236 0.85426 0.0
C1953 C 0.5469 0.64853 0.83073 0.0
C1954 C 0.54769 0.63341 0.85357 0.0
C1955 C 0.52437 0.61257 0.89017 0.0
C1956 C 0.50029 0.60611 0.9031 0.0
C1957 C 0.52381 0.6258 0.86592 0.0
C1958 C 0.47569 0.612 0.89074 0.0
C1959 C 0.47499 0.62485 0.86657 0.0
H1960 H 0.4275 0.4942 0.83165 0.0
H1961 H 0.40275 0.5729 0.84637 0.0
H1962 H 0.42604 0.57229 0.88856 0.0
H1963 H 0.44864 0.54783 0.92363 0.0
H1964 H 0.47284 0.46882 0.90951 0.0
H1965 H 0.45486 0.47127 0.86484 0.0
C1966 C 0.42762 0.51136 0.8439 0.0
C1967 C 0.41319 0.53349 0.83584 0.0
C1968 C 0.4408 0.51079 0.86845 0.0
C1969 C 0.41386 0.55568 0.85184 0.0
C1970 C 0.42703 0.55529 0.87616 0.0
C1971 C 0.45044 0.53127 0.91067 0.0
C1972 C 0.46172 0.50805 0.92017 0.0
C1973 C 0.43985 0.53271 0.88502 0.0
C1974 C 0.46398 0.48686 0.90293 0.0
C1975 C 0.45366 0.48822 0.87733 0.0
H1976 H 0.50331 0.33033 0.86907 0.0
H1977 H 0.51472 0.38093 0.80259 0.0
H1978 H 0.52394 0.41698 0.83251 0.0
H1979 H 0.53075 0.43362 0.87769 0.0
H1980 H 0.51991 0.38221 0.94376 0.0
H1981 H 0.50873 0.34704 0.91382 0.0
C1982 C 0.50807 0.34917 0.86103 0.0
C1983 C 0.50868 0.35274 0.83352 0.0
C1984 C 0.51351 0.36972 0.87833 0.0
C1985 C 0.51408 0.37756 0.82361 0.0
C1986 C 0.51947 0.39817 0.84074 0.0
C1987 C 0.52579 0.41477 0.88558 0.0
C1988 C 0.52633 0.41064 0.91306 0.0
C1989 C 0.5195 0.39442 0.86816 0.0
C1990 C 0.51974 0.38604 0.9228 0.0
C1991 C 0.51338 0.36584 0.90566 0.0
H1992 H 0.62832 0.4878 0.84721 0.0
H1993 H 0.57976 0.54786 0.81193 0.0
H1994 H 0.55352 0.55146 0.8524 0.0
H1995 H 0.54891 0.54189 0.8997 0.0
H1996 H 0.59803 0.48195 0.93455 0.0
H1997 H 0.6189 0.47348 0.89203 0.0
C1998 C 0.6114 0.50104 0.84787 0.0
C1999 C 0.60638 0.51781 0.82655 0.0
C2000 C 0.59665 0.50327 0.87131 0.0
C2001 C 0.58446 0.53504 0.82816 0.0
C2002 C 0.56945 0.53714 0.85133 0.0
C2003 C 0.56387 0.52668 0.89791 0.0
C2004 C 0.57226 0.51294 0.92044 0.0
C2005 C 0.57613 0.52211 0.8734 0.0
C2006 C 0.59139 0.49305 0.91766 0.0
C2007 C 0.60341 0.48821 0.89332 0.0
H2008 H 0.47424 0.39362 0.18141 0.0
H2009 H 0.55678 0.3764 0.20163 0.0
H2010 H 0.57213 0.40393 0.16606 0.0
H2011 H 0.56261 0.42892 0.12635 0.0
H2012 H 0.4806 0.44477 0.10387 0.0
H2013 H 0.46466 0.42143 0.14286 0.0
C2014 C 0.49561 0.39586 0.17813 0.0
C2015 C 0.5142 0.38259 0.19438 0.0
C2016 C 0.50446 0.41117 0.15688 0.0
C2017 C 0.54182 0.38646 0.18998 0.0
C2018 C 0.55072 0.40201 0.1693 0.0
C2019 C 0.5412 0.42738 0.12997 0.0
C2020 C 0.5228 0.43817 0.11192 0.0
C2021 C 0.53225 0.41381 0.15221 0.0
C2022 C 0.49518 0.43647 0.11729 0.0
C2023 C 0.48609 0.42307 0.13958 0.0
H2024 H 0.60642 0.48866 0.19348 0.0
H2025 H 0.6757 0.45868 0.15226 0.0
H2026 H 0.65209 0.46255 0.11056 0.0
H2027 H 0.61475 0.48134 0.08489 0.0
H2028 H 0.54752 0.51526 0.1257 0.0
H2029 H 0.56696 0.50277 0.16809 0.0
C2030 C 0.6163 0.48276 0.17543 0.0
C2031 C 0.64298 0.47362 0.17626 0.0
C2032 C 0.60292 0.48589 0.1512 0.0
C2033 C 0.65513 0.46555 0.15255 0.0
C2034 C 0.64171 0.46799 0.12849 0.0
C2035 C 0.60405 0.48518 0.10308 0.0
C2036 C 0.57983 0.49914 0.10233 0.0
C2037 C 0.61599 0.47902 0.12745 0.0
C2038 C 0.56624 0.50447 0.12595 0.0
C2039 C 0.57744 0.49752 0.15016 0.0
H2040 H 0.57893 0.66139 0.15829 0.0
H2041 H 0.49881 0.67498 0.18807 0.0
H2042 H 0.48063 0.64543 0.15552 0.0
H2043 H 0.4865 0.61909 0.11622 0.0
H2044 H 0.56572 0.60536 0.08483 0.0
H2045 H 0.58517 0.63185 0.12017 0.0
C2046 C 0.5575 0.65785 0.15773 0.0
C2047 C 0.54035 0.67066 0.17576 0.0
C2048 C 0.54694 0.6411 0.13841 0.0
C2049 C 0.51267 0.6653 0.17491 0.0
C2050 C 0.50214 0.64857 0.15602 0.0
C2051 C 0.50808 0.62177 0.11709 0.0
C2052 C 0.52461 0.61064 0.09762 0.0
C2053 C 0.51897 0.6369 0.13733 0.0
C2054 C 0.55254 0.61386 0.09943 0.0
C2055 C 0.56362 0.62906 0.11962 0.0
H2056 H 0.41146 0.60619 0.16405 0.0
H2057 H 0.43618 0.54397 0.21597 0.0
H2058 H 0.46446 0.52666 0.18178 0.0
H2059 H 0.47596 0.52393 0.13514 0.0
H2060 H 0.44263 0.57953 0.08096 0.0
H2061 H 0.42347 0.60389 0.11751 0.0
C2062 C 0.4225 0.58859 0.16814 0.0
C2063 C 0.42034 0.57629 0.19295 0.0
C2064 C 0.43713 0.5771 0.1475 0.0
C2065 C 0.4368 0.55442 0.19759 0.0
C2066 C 0.45291 0.54403 0.1777 0.0
C2067 C 0.46478 0.54158 0.13128 0.0
C2068 C 0.46131 0.55017 0.10516 0.0
C2069 C 0.45219 0.55444 0.15228 0.0
C2070 C 0.44655 0.57293 0.1007 0.0
C2071 C 0.4352 0.58668 0.1217 0.0
H2072 H 0.84984 0.49245 0.68987 0.0
H2073 H 0.81841 0.56692 0.66664 0.0
H2074 H 0.85779 0.57405 0.63898 0.0
H2075 H 0.90077 0.55861 0.6205 0.0
H2076 H 0.93156 0.48392 0.6436 0.0
H2077 H 0.89348 0.478 0.67321 0.0
C2078 C 0.85165 0.51037 0.67896 0.0
C2079 C 0.83103 0.52905 0.68033 0.0
C2080 C 0.87456 0.51455 0.66348 0.0
C2081 C 0.83363 0.55194 0.66562 0.0
C2082 C 0.85636 0.55621 0.65005 0.0
C2083 C 0.89948 0.54136 0.63256 0.0
C2084 C 0.91907 0.52182 0.63005 0.0
C2085 C 0.87698 0.53766 0.64885 0.0
C2086 C 0.91682 0.4993 0.64534 0.0
C2087 C 0.89492 0.49579 0.66206 0.0
H2088 H 0.54382 0.82806 0.60201 0.0
H2089 H 0.50959 0.86994 0.66733 0.0
H2090 H 0.51295 0.91038 0.64279 0.0
H2091 H 0.5284 0.93435 0.60383 0.0
H2092 H 0.56049 0.89233 0.53749 0.0
H2093 H 0.55519 0.85164 0.56122 0.0
C2094 C 0.53684 0.84603 0.61068 0.0
C2095 C 0.52649 0.84601 0.63643 0.0
C2096 C 0.53865 0.86926 0.59635 0.0
C2097 C 0.51738 0.8694 0.64743 0.0
C2098 C 0.51949 0.89258 0.63349 0.0
C2099 C 0.53405 0.91626 0.59452 0.0
C2100 C 0.54497 0.91643 0.56901 0.0
C2101 C 0.53051 0.89282 0.60811 0.0
C2102 C 0.55192 0.89278 0.55708 0.0
C2103 C 0.54899 0.86947 0.57068 0.0
H2104 H 0.23315 0.52254 0.63764 0.0
H2105 H 0.2299 0.60589 0.63532 0.0
H2106 H 0.18917 0.60407 0.60852 0.0
H2107 H 0.15196 0.57863 0.58941 0.0
H2108 H 0.15702 0.49532 0.59047 0.0
H2109 H 0.1997 0.49744 0.6137 0.0
C2110 C 0.22413 0.54039 0.63069 0.0
C2111 C 0.23456 0.56432 0.63894 0.0
C2112 C 0.20069 0.53923 0.6153 0.0
C2113 C 0.22211 0.58715 0.62982 0.0
C2114 C 0.19876 0.58615 0.61446 0.0
C2115 C 0.16251 0.56097 0.59454 0.0
C2116 C 0.15099 0.53687 0.5885 0.0
C2117 C 0.18737 0.56227 0.60778 0.0
C2118 C 0.16522 0.51417 0.59496 0.0
C2119 C 0.18969 0.51533 0.60831 0.0
H2120 H 0.5111 0.18909 0.62944 0.0
H2121 H 0.45279 0.14049 0.6679 0.0
H2122 H 0.4622 0.10598 0.63682 0.0
H2123 H 0.49087 0.08723 0.60186 0.0
H2124 H 0.55083 0.13509 0.56528 0.0
H2125 H 0.53739 0.17151 0.59268 0.0
C2126 C 0.50053 0.17091 0.63123 0.0
C2127 C 0.48127 0.16771 0.65127 0.0
C2128 C 0.50672 0.15053 0.61379 0.0
C2129 C 0.46746 0.144 0.65262 0.0
C2130 C 0.47311 0.12391 0.635 0.0
C2131 C 0.50065 0.10569 0.59958 0.0
C2132 C 0.522 0.10818 0.58164 0.0
C2133 C 0.49316 0.12665 0.61589 0.0
C2134 C 0.53452 0.13241 0.5791 0.0
C2135 C 0.52688 0.15334 0.59482 0.0
H2136 H 0.79994 0.56521 0.3931 0.0
H2137 H 0.7941 0.48194 0.38957 0.0
H2138 H 0.83276 0.47785 0.41835 0.0
H2139 H 0.8719 0.49722 0.43913 0.0
H2140 H 0.88041 0.5802 0.44067 0.0
H2141 H 0.83752 0.58492 0.41753 0.0
C2142 C 0.80698 0.54613 0.39868 0.0
C2143 C 0.79398 0.52396 0.3887 0.0
C2144 C 0.83018 0.54378 0.41444 0.0
C2145 C 0.80316 0.49947 0.39696 0.0
C2146 C 0.82567 0.49703 0.4132 0.0
C2147 C 0.86433 0.51642 0.43477 0.0
C2148 C 0.87969 0.5383 0.44138 0.0
C2149 C 0.83988 0.51898 0.42121 0.0
C2150 C 0.86925 0.56298 0.43563 0.0
C2151 C 0.84468 0.56569 0.42237 0.0
H2152 H 0.53982 0.88154 0.34128 0.0
H2153 H 0.52425 0.81679 0.39229 0.0
H2154 H 0.51542 0.84647 0.42902 0.0
H2155 H 0.5089 0.89103 0.44554 0.0
H2156 H 0.52491 0.95547 0.39395 0.0
H2157 H 0.53693 0.9257 0.35863 0.0
C2158 C 0.53451 0.87392 0.36047 0.0
C2159 C 0.53225 0.84701 0.36397 0.0
C2160 C 0.52948 0.89106 0.38136 0.0
C2161 C 0.52602 0.8374 0.38908 0.0
C2162 C 0.52088 0.85438 0.41003 0.0
C2163 C 0.51527 0.89859 0.42666 0.0
C2164 C 0.51561 0.92554 0.42239 0.0
C2165 C 0.52207 0.88129 0.40626 0.0
C2166 C 0.5242 0.9349 0.39782 0.0
C2167 C 0.53104 0.91786 0.37754 0.0
H2168 H 0.17743 0.58689 0.33997 0.0
H2169 H 0.23179 0.53041 0.37333 0.0
H2170 H 0.19759 0.51762 0.40488 0.0
H2171 H 0.15225 0.52122 0.42208 0.0
H2172 H 0.09717 0.57779 0.39009 0.0
H2173 H 0.13154 0.59135 0.35844 0.0
C2174 C 0.1818 0.57184 0.35422 0.0
C2175 C 0.20729 0.55973 0.35428 0.0
C2176 C 0.16182 0.56429 0.37222 0.0
C2177 C 0.21265 0.54044 0.37307 0.0
C2178 C 0.19295 0.53286 0.39094 0.0
C2179 C 0.1475 0.53639 0.40808 0.0
C2180 C 0.12193 0.5482 0.40829 0.0
C2181 C 0.16743 0.54442 0.39048 0.0
C2182 C 0.11654 0.56816 0.39023 0.0
C2183 C 0.13625 0.57601 0.37223 0.0
H2184 H 0.54982 0.17764 0.37233 0.0
H2185 H 0.47016 0.20838 0.38615 0.0
H2186 H 0.46131 0.17371 0.41711 0.0
H2187 H 0.47396 0.13233 0.43674 0.0
H2188 H 0.55179 0.09909 0.42036 0.0
H2189 H 0.56325 0.13671 0.39358 0.0
C2190 C 0.53046 0.17684 0.38201 0.0
C2191 C 0.51069 0.19582 0.37648 0.0
C2192 C 0.52496 0.15608 0.39912 0.0
C2193 C 0.48606 0.19455 0.39003 0.0
C2194 C 0.48077 0.17442 0.40757 0.0
C2195 C 0.49354 0.13327 0.42747 0.0
C2196 C 0.51195 0.11269 0.43057 0.0
C2197 C 0.49976 0.15473 0.4117 0.0
C2198 C 0.53725 0.11453 0.41848 0.0
C2199 C 0.54377 0.13608 0.40305 0.0
H2200 H 0.66171 0.86783 0.52339 0.0
H2201 H 0.65571 0.84258 0.44257 0.0
H2202 H 0.62258 0.87632 0.4338 0.0
H2203 H 0.6 0.91664 0.44733 0.0
H2204 H 0.6101 0.94435 0.52691 0.0
H2205 H 0.63714 0.90644 0.53763 0.0
C2206 C 0.65316 0.8696 0.50383 0.0
C2207 C 0.6617 0.85276 0.48363 0.0
C2208 C 0.63511 0.8899 0.49851 0.0
C2209 C 0.64958 0.85499 0.45866 0.0
C2210 C 0.63083 0.87458 0.45348 0.0
C2211 C 0.60792 0.91429 0.46708 0.0
C2212 C 0.60311 0.9335 0.4862 0.0
C2213 C 0.6242 0.89272 0.47298 0.0
C2214 C 0.6135 0.93001 0.51173 0.0
C2215 C 0.62902 0.90829 0.51791 0.0
H2216 H 0.66984 0.16478 0.53449 0.0
H2217 H 0.63832 0.2118 0.47129 0.0
H2218 H 0.60327 0.18014 0.46317 0.0
H2219 H 0.58609 0.13637 0.46927 0.0
H2220 H 0.61858 0.08799 0.53058 0.0
H2221 H 0.64865 0.12279 0.54428 0.0
C2222 C 0.65506 0.16827 0.51919 0.0
C2223 C 0.65701 0.19055 0.50331 0.0
C2224 C 0.63536 0.14953 0.51404 0.0
C2225 C 0.63731 0.195 0.48395 0.0
C2226 C 0.6174 0.17672 0.47905 0.0
C2227 C 0.59948 0.13357 0.4859 0.0
C2228 C 0.60036 0.10951 0.49877 0.0
C2229 C 0.61694 0.1535 0.49325 0.0
C2230 C 0.61744 0.1063 0.52051 0.0
C2231 C 0.6348 0.12618 0.52815 0.0
H2232 H 0.87074 0.66701 0.46485 0.0
H2233 H 0.84082 0.67917 0.54366 0.0
H2234 H 0.87082 0.64552 0.56018 0.0
H2235 H 0.90743 0.61465 0.55292 0.0
H2236 H 0.93861 0.60304 0.4746 0.0
H2237 H 0.90647 0.63463 0.4573 0.0
C2238 C 0.87074 0.66228 0.48564 0.0
C2239 C 0.8535 0.67576 0.50296 0.0
C2240 C 0.88849 0.64319 0.49516 0.0
C2241 C 0.85351 0.66898 0.52977 0.0
C2242 C 0.87091 0.6499 0.53932 0.0
C2243 C 0.90728 0.619 0.53204 0.0
C2244 C 0.92556 0.60647 0.51509 0.0
C2245 C 0.8888 0.63723 0.52228 0.0
C2246 C 0.92477 0.61222 0.48807 0.0
C2247 C 0.9064 0.63038 0.47819 0.0
H2248 H 0.35788 0.86465 0.52655 0.0
H2249 H 0.41107 0.8051 0.55582 0.0
H2250 H 0.44666 0.83708 0.56161 0.0
H2251 H 0.46174 0.88244 0.56055 0.0
H2252 H 0.40803 0.94144 0.53086 0.0
H2253 H 0.37382 0.90895 0.52245 0.0
C2254 C 0.37743 0.85841 0.5336 0.0
C2255 C 0.3817 0.83238 0.54068 0.0
C2256 C 0.39772 0.87686 0.5369 0.0
C2257 C 0.40706 0.825 0.55044 0.0
C2258 C 0.42746 0.84328 0.55369 0.0
C2259 C 0.44263 0.88818 0.55204 0.0
C2260 C 0.43743 0.91444 0.54658 0.0
C2261 C 0.42286 0.86936 0.54738 0.0
C2262 C 0.41259 0.92145 0.53543 0.0
C2263 C 0.39295 0.90286 0.53062 0.0
H2264 H 0.17362 0.36305 0.53107 0.0
H2265 H 0.2501 0.40036 0.5195 0.0
H2266 H 0.22709 0.44082 0.50874 0.0
H2267 H 0.18525 0.46507 0.50092 0.0
H2268 H 0.10893 0.42765 0.51323 0.0
H2269 H 0.13202 0.38794 0.52615 0.0
C2270 C 0.18536 0.38012 0.52672 0.0
C2271 C 0.21362 0.37856 0.52607 0.0
C2272 C 0.17203 0.40333 0.5207 0.0
C2273 C 0.22835 0.40084 0.5198 0.0
C2274 C 0.21521 0.42405 0.51378 0.0
C2275 C 0.17364 0.44831 0.50664 0.0
C2276 C 0.14538 0.44931 0.50585 0.0
C2277 C 0.18705 0.42543 0.51387 0.0
C2278 C 0.13069 0.4274 0.51345 0.0
C2279 C 0.14388 0.40465 0.52081 0.0
H2280 H 0.38252 0.16854 0.47644 0.0
H2281 H 0.40048 0.20491 0.55098 0.0
H2282 H 0.43249 0.1708 0.56111 0.0
H2283 H 0.4502 0.12771 0.55217 0.0
H2284 H 0.43022 0.08904 0.47957 0.0
H2285 H 0.40394 0.12677 0.46551 0.0
C2286 C 0.39359 0.16915 0.49482 0.0
C2287 C 0.38862 0.18923 0.51304 0.0
C2288 C 0.4112 0.14874 0.50115 0.0
C2289 C 0.40384 0.18999 0.53639 0.0
C2290 C 0.42195 0.17021 0.54244 0.0
C2291 C 0.44021 0.12753 0.53318 0.0
C2292 C 0.44176 0.10542 0.5171 0.0
C2293 C 0.4249 0.14902 0.5255 0.0
C2294 C 0.42925 0.10576 0.49232 0.0
C2295 C 0.41415 0.12731 0.48435 0.0
H2296 H 0.82675 0.40216 0.47385 0.0
H2297 H 0.84159 0.35952 0.54543 0.0
H2298 H 0.87478 0.39138 0.55904 0.0
H2299 H 0.9011 0.43016 0.54978 0.0
H2300 H 0.88569 0.47391 0.47911 0.0
H2301 H 0.85148 0.44269 0.46574 0.0
C2302 C 0.83714 0.4 0.49251 0.0
C2303 C 0.83168 0.37852 0.50861 0.0
C2304 C 0.85636 0.41836 0.50017 0.0
C2305 C 0.84511 0.37605 0.53284 0.0
C2306 C 0.86432 0.39411 0.54052 0.0
C2307 C 0.89037 0.43279 0.53137 0.0
C2308 C 0.8962 0.4541 0.51522 0.0
C2309 C 0.87039 0.4151 0.52416 0.0
C2310 C 0.8817 0.45755 0.49173 0.0
C2311 C 0.86211 0.43973 0.48414 0.0
H2312 H 0.168 0.652 0.57718 0.0
H2313 H 0.20613 0.65433 0.5008 0.0
H2314 H 0.17262 0.62489 0.48347 0.0
H2315 H 0.13028 0.60181 0.48853 0.0
H2316 H 0.08957 0.60223 0.56336 0.0
H2317 H 0.12585 0.62785 0.58252 0.0
C2318 C 0.16904 0.64614 0.55672 0.0
C2319 C 0.18967 0.65571 0.54039 0.0
C2320 C 0.14892 0.63003 0.54643 0.0
C2321 C 0.19091 0.64717 0.5141 0.0
C2322 C 0.17145 0.63056 0.50398 0.0
C2323 C 0.12928 0.60751 0.50906 0.0
C2324 C 0.1072 0.60004 0.52454 0.0
C2325 C 0.15001 0.62247 0.51976 0.0
C2326 C 0.10641 0.60741 0.55111 0.0
C2327 C 0.12713 0.62218 0.56202 0.0
loop_
_geom_bond_atom_site_label_1
_geom_bond_atom_site_label_2
_geom_bond_distance
_geom_bond_site_symmetry_2
_ccdc_geom_bond_type
C0 C1 1.384 . S
C0 H13 0.947 . S
C0 C35 1.382 . S
C1 C0 1.384 . S
C1 C2 1.378 . S
C2 C1 1.378 . S
C2 C3 1.378 . S
C2 H14 0.952 . S
C3 C2 1.378 . S
C3 H15 0.950 . S
C3 C34 1.383 . S
H4 C23 0.947 . S
H5 C24 0.946 . S
H6 C26 0.953 . S
H7 C27 0.945 . S
H8 C29 0.952 . S
H9 C30 0.949 . S
H10 C32 0.950 . S
H11 C33 0.948 . S
H12 C35 0.951 . S
H13 C0 0.947 . S
H14 C2 0.952 . S
H15 C3 0.950 . S
N16 C19 1.382 . S
N16 C21 1.363 . S
N17 C19 1.371 . S
N17 C20 1.372 . S
N18 C20 1.361 . S
N18 C21 1.377 . S
C19 N16 1.382 . S
C19 N17 1.371 . S
C19 C22 1.480 . S
C20 N17 1.372 . S
C20 N18 1.361 . S
C20 C28 1.457 . S
C21 N16 1.363 . S
C21 N18 1.377 . S
C21 C34 1.479 . S
C22 C19 1.480 . S
C22 C23 1.383 . S
C22 C27 1.385 . S
C23 H4 0.947 . S
C23 C22 1.383 . S
C23 C24 1.388 . S
C24 H5 0.946 . S
C24 C23 1.388 . S
C24 C25 1.384 . S
C25 C24 1.384 . S
C25 C26 1.377 . S
C26 H6 0.953 . S
C26 C25 1.377 . S
C26 C27 1.369 . S
C27 H7 0.945 . S
C27 C22 1.385 . S
C27 C26 1.369 . S
C28 C20 1.457 . S
C28 C29 1.372 . S
C28 C33 1.364 . S
C29 H8 0.952 . S
C29 C28 1.372 . S
C29 C30 1.389 . S
C30 H9 0.949 . S
C30 C29 1.389 . S
C30 C31 1.387 . S
C31 C30 1.387 . S
C31 C32 1.372 . S
C32 H10 0.950 . S
C32 C31 1.372 . S
C32 C33 1.379 . S
C33 H11 0.948 . S
C33 C28 1.364 . S
C33 C32 1.379 . S
C34 C3 1.383 . S
C34 C21 1.479 . S
C34 C35 1.398 . S
C35 C0 1.382 . S
C35 H12 0.951 . S
C35 C34 1.398 . S
C36 C37 1.384 . S
C36 H49 0.947 . S
C36 C71 1.382 . S
C37 C36 1.384 . S
C37 C38 1.378 . S
C38 C37 1.378 . S
C38 C39 1.378 . S
C38 H50 0.952 . S
C39 C38 1.378 . S
C39 H51 0.950 . S
C39 C70 1.383 . S
H40 C59 0.947 . S
H41 C60 0.946 . S
H42 C62 0.953 . S
H43 C63 0.945 . S
H44 C65 0.952 . S
H45 C66 0.949 . S
H46 C68 0.950 . S
H47 C69 0.948 . S
H48 C71 0.951 . S
H49 C36 0.947 . S
H50 C38 0.952 . S
H51 C39 0.950 . S
N52 C55 1.382 . S
N52 C57 1.363 . S
N53 C55 1.371 . S
N53 C56 1.372 . S
N54 C56 1.361 . S
N54 C57 1.377 . S
C55 N52 1.382 . S
C55 N53 1.371 . S
C55 C58 1.480 . S
C56 N53 1.372 . S
C56 N54 1.361 . S
C56 C64 1.457 . S
C57 N52 1.363 . S
C57 N54 1.377 . S
C57 C70 1.479 . S
C58 C55 1.480 . S
C58 C59 1.383 . S
C58 C63 1.385 . S
C59 H40 0.947 . S
C59 C58 1.383 . S
C59 C60 1.388 . S
C60 H41 0.946 . S
C60 C59 1.388 . S
C60 C61 1.384 . S
C61 C60 1.384 . S
C61 C62 1.377 . S
C62 H42 0.953 . S
C62 C61 1.377 . S
C62 C63 1.369 . S
C63 H43 0.945 . S
C63 C58 1.385 . S
C63 C62 1.369 . S
C64 C56 1.457 . S
C64 C65 1.372 . S
C64 C69 1.364 . S
C65 H44 0.952 . S
C65 C64 1.372 . S
C65 C66 1.389 . S
C66 H45 0.949 . S
C66 C65 1.389 . S
C66 C67 1.387 . S
C67 C66 1.387 . S
C67 C68 1.372 . S
C68 H46 0.950 . S
C68 C67 1.372 . S
C68 C69 1.379 . S
C69 H47 0.948 . S
C69 C64 1.364 . S
C69 C68 1.379 . S
C70 C39 1.383 . S
C70 C57 1.479 . S
C70 C71 1.398 . S
C71 C36 1.382 . S
C71 H48 0.951 . S
C71 C70 1.398 . S
C72 C73 1.384 . S
C72 H85 0.947 . S
C72 C107 1.382 . S
C73 C72 1.384 . S
C73 C74 1.378 . S
C74 C73 1.378 . S
C74 C75 1.378 . S
C74 H86 0.952 . S
C75 C74 1.378 . S
C75 H87 0.950 . S
C75 C106 1.383 . S
H76 C95 0.947 . S
H77 C96 0.946 . S
H78 C98 0.953 . S
H79 C99 0.945 . S
H80 C101 0.952 . S
H81 C102 0.949 . S
H82 C104 0.950 . S
H83 C105 0.948 . S
H84 C107 0.951 . S
H85 C72 0.947 . S
H86 C74 0.952 . S
H87 C75 0.950 . S
N88 C91 1.382 . S
N88 C93 1.363 . S
N89 C91 1.371 . S
N89 C92 1.372 . S
N90 C92 1.361 . S
N90 C93 1.377 . S
C91 N88 1.382 . S
C91 N89 1.371 . S
C91 C94 1.480 . S
C92 N89 1.372 . S
C92 N90 1.361 . S
C92 C100 1.457 . S
C93 N88 1.363 . S
C93 N90 1.377 . S
C93 C106 1.479 . S
C94 C91 1.480 . S
C94 C95 1.383 . S
C94 C99 1.385 . S
C95 H76 0.947 . S
C95 C94 1.383 . S
C95 C96 1.388 . S
C96 H77 0.946 . S
C96 C95 1.388 . S
C96 C97 1.384 . S
C97 C96 1.384 . S
C97 C98 1.377 . S
C98 H78 0.953 . S
C98 C97 1.377 . S
C98 C99 1.369 . S
C99 H79 0.945 . S
C99 C94 1.385 . S
C99 C98 1.369 . S
C100 C92 1.457 . S
C100 C101 1.372 . S
C100 C105 1.364 . S
C101 H80 0.952 . S
C101 C100 1.372 . S
C101 C102 1.389 . S
C102 H81 0.949 . S
C102 C101 1.389 . S
C102 C103 1.387 . S
C103 C102 1.387 . S
C103 C104 1.372 . S
C104 H82 0.950 . S
C104 C103 1.372 . S
C104 C105 1.379 . S
C105 H83 0.948 . S
C105 C100 1.364 . S
C105 C104 1.379 . S
C106 C75 1.383 . S
C106 C93 1.479 . S
C106 C107 1.398 . S
C107 C72 1.382 . S
C107 H84 0.951 . S
C107 C106 1.398 . S
C108 C109 1.384 . S
C108 H121 0.947 . S
C108 C143 1.382 . S
C109 C108 1.384 . S
C109 C110 1.378 . S
C110 C109 1.378 . S
C110 C111 1.378 . S
C110 H122 0.952 . S
C111 C110 1.378 . S
C111 H123 0.950 . S
C111 C142 1.383 . S
H112 C131 0.947 . S
H113 C132 0.939 1_565 S
H114 C134 0.953 . S
H115 C135 0.945 . S
H116 C137 0.952 . S
H117 C138 0.951 . S
H118 C140 0.950 . S
H119 C141 0.948 . S
H120 C143 0.951 . S
H121 C108 0.947 . S
H122 C110 0.952 . S
H123 C111 0.950 . S
N124 C127 1.382 . S
N124 C129 1.363 . S
N125 C127 1.371 . S
N125 C128 1.372 . S
N126 C128 1.361 . S
N126 C129 1.377 . S
C127 N124 1.382 . S
C127 N125 1.371 . S
C127 C130 1.480 . S
C128 N125 1.372 . S
C128 N126 1.361 . S
C128 C136 1.457 . S
C129 N124 1.363 . S
C129 N126 1.377 . S
C129 C142 1.479 . S
C130 C127 1.480 . S
C130 C131 1.383 . S
C130 C135 1.385 . S
C131 H112 0.947 . S
C131 C130 1.383 . S
C131 C132 1.388 . S
C132 H113 0.939 1_545 S
C132 C131 1.388 . S
C132 C133 1.384 . S
C133 C132 1.384 . S
C133 C134 1.377 . S
C134 H114 0.953 . S
C134 C133 1.377 . S
C134 C135 1.369 . S
C135 H115 0.945 . S
C135 C130 1.385 . S
C135 C134 1.369 . S
C136 C128 1.457 . S
C136 C137 1.372 . S
C136 C141 1.364 . S
C137 H116 0.952 . S
C137 C136 1.372 . S
C137 C138 1.389 . S
C138 H117 0.951 . S
C138 C137 1.389 . S
C138 C139 1.387 . S
C139 C138 1.387 . S
C139 C140 1.372 . S
C140 H118 0.950 . S
C140 C139 1.372 . S
C140 C141 1.379 . S
C141 H119 0.948 . S
C141 C136 1.364 . S
C141 C140 1.379 . S
C142 C111 1.383 . S
C142 C129 1.479 . S
C142 C143 1.398 . S
C143 C108 1.382 . S
C143 H120 0.951 . S
C143 C142 1.398 . S
C144 C145 1.383 1_455 S
C144 H157 0.949 . S
C144 C179 1.382 . S
C145 C144 1.383 1_655 S
C145 C146 1.378 . S
C146 C145 1.378 . S
C146 C147 1.378 . S
C146 H158 0.952 . S
C147 C146 1.378 . S
C147 H159 0.950 . S
C147 C178 1.383 . S
H148 C167 0.947 . S
H149 C168 0.954 . S
H150 C170 0.953 . S
H151 C171 0.945 . S
H152 C173 0.950 1_455 S
H153 C174 0.949 . S
H154 C176 0.950 . S
H155 C177 0.948 . S
H156 C179 0.951 . S
H157 C144 0.949 . S
H158 C146 0.952 . S
H159 C147 0.950 . S
N160 C163 1.382 . S
N160 C165 1.363 . S
N161 C163 1.371 . S
N161 C164 1.372 . S
N162 C164 1.361 . S
N162 C165 1.377 . S
C163 N160 1.382 . S
C163 N161 1.371 . S
C163 C166 1.480 . S
C164 N161 1.372 . S
C164 N162 1.361 . S
C164 C172 1.457 . S
C165 N160 1.363 . S
C165 N162 1.377 . S
C165 C178 1.479 . S
C166 C163 1.480 . S
C166 C167 1.383 . S
C166 C171 1.385 . S
C167 H148 0.947 . S
C167 C166 1.383 . S
C167 C168 1.385 1_655 S
C168 H149 0.954 . S
C168 C167 1.385 1_455 S
C168 C169 1.381 1_455 S
C169 C168 1.381 1_655 S
C169 C170 1.377 . S
C170 H150 0.953 . S
C170 C169 1.377 . S
C170 C171 1.369 . S
C171 H151 0.945 . S
C171 C166 1.385 . S
C171 C170 1.369 . S
C172 C164 1.457 . S
C172 C173 1.374 . S
C172 C177 1.364 . S
C173 H152 0.950 1_655 S
C173 C172 1.374 . S
C173 C174 1.388 1_655 S
C174 H153 0.949 . S
C174 C173 1.388 1_455 S
C174 C175 1.387 1_455 S
C175 C174 1.387 1_655 S
C175 C176 1.372 . S
C176 H154 0.950 . S
C176 C175 1.372 . S
C176 C177 1.379 . S
C177 H155 0.948 . S
C177 C172 1.364 . S
C177 C176 1.379 . S
C178 C147 1.383 . S
C178 C165 1.479 . S
C178 C179 1.398 1_655 S
C179 C144 1.382 . S
C179 H156 0.951 . S
C179 C178 1.398 1_455 S
C180 C181 1.384 . S
C180 H193 0.947 . S
C180 C215 1.382 . S
C181 C180 1.384 . S
C181 C182 1.378 . S
C182 C181 1.378 . S
C182 C183 1.378 . S
C182 H194 0.952 . S
C183 C182 1.378 . S
C183 H195 0.950 . S
C183 C214 1.383 . S
H184 C203 0.947 . S
H185 C204 0.946 . S
H186 C206 0.953 . S
H187 C207 0.945 . S
H188 C209 0.952 . S
H189 C210 0.949 . S
H190 C212 0.950 . S
H191 C213 0.948 . S
H192 C215 0.951 . S
H193 C180 0.947 . S
H194 C182 0.952 . S
H195 C183 0.950 . S
N196 C199 1.382 . S
N196 C201 1.363 . S
N197 C199 1.371 . S
N197 C200 1.372 . S
N198 C200 1.361 . S
N198 C201 1.377 . S
C199 N196 1.382 . S
C199 N197 1.371 . S
C199 C202 1.480 . S
C200 N197 1.372 . S
C200 N198 1.361 . S
C200 C208 1.457 . S
C201 N196 1.363 . S
C201 N198 1.377 . S
C201 C214 1.479 . S
C202 C199 1.480 . S
C202 C203 1.383 . S
C202 C207 1.385 . S
C203 H184 0.947 . S
C203 C202 1.383 . S
C203 C204 1.388 . S
C204 H185 0.946 . S
C204 C203 1.388 . S
C204 C205 1.384 . S
C205 C204 1.384 . S
C205 C206 1.377 . S
C206 H186 0.953 . S
C206 C205 1.377 . S
C206 C207 1.369 . S
C207 H187 0.945 . S
C207 C202 1.385 . S
C207 C206 1.369 . S
C208 C200 1.457 . S
C208 C209 1.372 . S
C208 C213 1.364 . S
C209 H188 0.952 . S
C209 C208 1.372 . S
C209 C210 1.389 . S
C210 H189 0.949 . S
C210 C209 1.389 . S
C210 C211 1.387 . S
C211 C210 1.387 . S
C211 C212 1.372 . S
C212 H190 0.950 . S
C212 C211 1.372 . S
C212 C213 1.379 . S
C213 H191 0.948 . S
C213 C208 1.364 . S
C213 C212 1.379 . S
C214 C183 1.383 . S
C214 C201 1.479 . S
C214 C215 1.398 . S
C215 C180 1.382 . S
C215 H192 0.951 . S
C215 C214 1.398 . S
C216 C217 1.384 . S
C216 H229 0.947 . S
C216 C251 1.382 . S
C217 C216 1.384 . S
C217 C218 1.378 . S
C218 C217 1.378 . S
C218 C219 1.378 . S
C218 H230 0.952 . S
C219 C218 1.378 . S
C219 H231 0.950 . S
C219 C250 1.383 . S
H220 C239 0.947 . S
H221 C240 0.946 . S
H222 C242 0.953 . S
H223 C243 0.945 . S
H224 C245 0.952 . S
H225 C246 0.949 . S
H226 C248 0.950 . S
H227 C249 0.948 . S
H228 C251 0.951 . S
H229 C216 0.947 . S
H230 C218 0.952 . S
H231 C219 0.950 . S
N232 C235 1.382 . S
N232 C237 1.363 . S
N233 C235 1.371 . S
N233 C236 1.372 . S
N234 C236 1.361 . S
N234 C237 1.377 . S
C235 N232 1.382 . S
C235 N233 1.371 . S
C235 C238 1.480 . S
C236 N233 1.372 . S
C236 N234 1.361 . S
C236 C244 1.457 . S
C237 N232 1.363 . S
C237 N234 1.377 . S
C237 C250 1.479 . S
C238 C235 1.480 . S
C238 C239 1.383 . S
C238 C243 1.385 . S
C239 H220 0.947 . S
C239 C238 1.383 . S
C239 C240 1.388 . S
C240 H221 0.946 . S
C240 C239 1.388 . S
C240 C241 1.384 . S
C241 C240 1.384 . S
C241 C242 1.377 . S
C242 H222 0.953 . S
C242 C241 1.377 . S
C242 C243 1.369 . S
C243 H223 0.945 . S
C243 C238 1.385 . S
C243 C242 1.369 . S
C244 C236 1.457 . S
C244 C245 1.372 . S
C244 C249 1.364 . S
C245 H224 0.952 . S
C245 C244 1.372 . S
C245 C246 1.389 . S
C246 H225 0.949 . S
C246 C245 1.389 . S
C246 C247 1.387 . S
C247 C246 1.387 . S
C247 C248 1.372 . S
C248 H226 0.950 . S
C248 C247 1.372 . S
C248 C249 1.379 . S
C249 H227 0.948 . S
C249 C244 1.364 . S
C249 C248 1.379 . S
C250 C219 1.383 . S
C250 C237 1.479 . S
C250 C251 1.398 . S
C251 C216 1.382 . S
C251 H228 0.951 . S
C251 C250 1.398 . S
C252 C253 1.384 . S
C252 H265 0.947 . S
C252 C287 1.382 . S
C253 C252 1.384 . S
C253 C254 1.378 . S
C254 C253 1.378 . S
C254 C255 1.378 . S
C254 H266 0.952 . S
C255 C254 1.378 . S
C255 H267 0.950 . S
C255 C286 1.383 . S
H256 C275 0.947 . S
H257 C276 0.946 . S
H258 C278 0.953 . S
H259 C279 0.945 . S
H260 C281 0.952 . S
H261 C282 0.949 . S
H262 C284 0.950 . S
H263 C285 0.948 . S
H264 C287 0.951 . S
H265 C252 0.947 . S
H266 C254 0.952 . S
H267 C255 0.950 . S
N268 C271 1.382 . S
N268 C273 1.363 . S
N269 C271 1.371 . S
N269 C272 1.372 . S
N270 C272 1.361 . S
N270 C273 1.377 . S
C271 N268 1.382 . S
C271 N269 1.371 . S
C271 C274 1.480 . S
C272 N269 1.372 . S
C272 N270 1.361 . S
C272 C280 1.457 . S
C273 N268 1.363 . S
C273 N270 1.377 . S
C273 C286 1.479 . S
C274 C271 1.480 . S
C274 C275 1.383 . S
C274 C279 1.385 . S
C275 H256 0.947 . S
C275 C274 1.383 . S
C275 C276 1.388 . S
C276 H257 0.946 . S
C276 C275 1.388 . S
C276 C277 1.384 . S
C277 C276 1.384 . S
C277 C278 1.377 . S
C278 H258 0.953 . S
C278 C277 1.377 . S
C278 C279 1.369 . S
C279 H259 0.945 . S
C279 C274 1.385 . S
C279 C278 1.369 . S
C280 C272 1.457 . S
C280 C281 1.372 . S
C280 C285 1.364 . S
C281 H260 0.952 . S
C281 C280 1.372 . S
C281 C282 1.389 . S
C282 H261 0.949 . S
C282 C281 1.389 . S
C282 C283 1.387 . S
C283 C282 1.387 . S
C283 C284 1.372 . S
C284 H262 0.950 . S
C284 C283 1.372 . S
C284 C285 1.379 . S
C285 H263 0.948 . S
C285 C280 1.364 . S
C285 C284 1.379 . S
C286 C255 1.383 . S
C286 C273 1.479 . S
C286 C287 1.398 . S
C287 C252 1.382 . S
C287 H264 0.951 . S
C287 C286 1.398 . S
C288 C289 1.384 . S
C288 H301 0.947 . S
C288 C323 1.382 . S
C289 C288 1.384 . S
C289 C290 1.378 . S
C290 C289 1.378 . S
C290 C291 1.378 . S
C290 H302 0.952 . S
C291 C290 1.378 . S
C291 H303 0.950 . S
C291 C322 1.383 . S
H292 C311 0.947 . S
H293 C312 0.946 . S
H294 C314 0.953 . S
H295 C315 0.945 . S
H296 C317 0.952 . S
H297 C318 0.949 . S
H298 C320 0.950 . S
H299 C321 0.948 . S
H300 C323 0.951 . S
H301 C288 0.947 . S
H302 C290 0.952 . S
H303 C291 0.950 . S
N304 C307 1.382 . S
N304 C309 1.363 . S
N305 C307 1.371 . S
N305 C308 1.372 . S
N306 C308 1.361 . S
N306 C309 1.377 . S
C307 N304 1.382 . S
C307 N305 1.371 . S
C307 C310 1.480 . S
C308 N305 1.372 . S
C308 N306 1.361 . S
C308 C316 1.457 . S
C309 N304 1.363 . S
C309 N306 1.377 . S
C309 C322 1.479 . S
C310 C307 1.480 . S
C310 C311 1.383 . S
C310 C315 1.385 . S
C311 H292 0.947 . S
C311 C310 1.383 . S
C311 C312 1.388 . S
C312 H293 0.946 . S
C312 C311 1.388 . S
C312 C313 1.384 . S
C313 C312 1.384 . S
C313 C314 1.377 . S
C314 H294 0.953 . S
C314 C313 1.377 . S
C314 C315 1.369 . S
C315 H295 0.945 . S
C315 C310 1.385 . S
C315 C314 1.369 . S
C316 C308 1.457 . S
C316 C317 1.372 . S
C316 C321 1.364 . S
C317 H296 0.952 . S
C317 C316 1.372 . S
C317 C318 1.389 . S
C318 H297 0.949 . S
C318 C317 1.389 . S
C318 C319 1.387 . S
C319 C318 1.387 . S
C319 C320 1.372 . S
C320 H298 0.950 . S
C320 C319 1.372 . S
C320 C321 1.379 . S
C321 H299 0.948 . S
C321 C316 1.364 . S
C321 C320 1.379 . S
C322 C291 1.383 . S
C322 C309 1.479 . S
C322 C323 1.398 . S
C323 C288 1.382 . S
C323 H300 0.951 . S
C323 C322 1.398 . S
C324 C325 1.384 . S
C324 H337 0.947 . S
C324 C359 1.382 . S
C325 C324 1.384 . S
C325 C326 1.378 . S
C326 C325 1.378 . S
C326 C327 1.378 . S
C326 H338 0.952 . S
C327 C326 1.378 . S
C327 H339 0.950 . S
C327 C358 1.383 . S
H328 C347 0.947 . S
H329 C348 0.946 . S
H330 C350 0.953 . S
H331 C351 0.945 . S
H332 C353 0.952 . S
H333 C354 0.949 . S
H334 C356 0.950 . S
H335 C357 0.948 . S
H336 C359 0.951 . S
H337 C324 0.947 . S
H338 C326 0.952 . S
H339 C327 0.950 . S
N340 C343 1.382 . S
N340 C345 1.363 . S
N341 C343 1.371 . S
N341 C344 1.372 . S
N342 C344 1.361 . S
N342 C345 1.377 . S
C343 N340 1.382 . S
C343 N341 1.371 . S
C343 C346 1.480 . S
C344 N341 1.372 . S
C344 N342 1.361 . S
C344 C352 1.457 . S
C345 N340 1.363 . S
C345 N342 1.377 . S
C345 C358 1.479 . S
C346 C343 1.480 . S
C346 C347 1.383 . S
C346 C351 1.385 . S
C347 H328 0.947 . S
C347 C346 1.383 . S
C347 C348 1.388 . S
C348 H329 0.946 . S
C348 C347 1.388 . S
C348 C349 1.384 . S
C349 C348 1.384 . S
C349 C350 1.377 . S
C350 H330 0.953 . S
C350 C349 1.377 . S
C350 C351 1.369 . S
C351 H331 0.945 . S
C351 C346 1.385 . S
C351 C350 1.369 . S
C352 C344 1.457 . S
C352 C353 1.372 . S
C352 C357 1.364 . S
C353 H332 0.952 . S
C353 C352 1.372 . S
C353 C354 1.389 . S
C354 H333 0.949 . S
C354 C353 1.389 . S
C354 C355 1.387 . S
C355 C354 1.387 . S
C355 C356 1.372 . S
C356 H334 0.950 . S
C356 C355 1.372 . S
C356 C357 1.379 . S
C357 H335 0.948 . S
C357 C352 1.364 . S
C357 C356 1.379 . S
C358 C327 1.383 . S
C358 C345 1.479 . S
C358 C359 1.398 . S
C359 C324 1.382 . S
C359 H336 0.951 . S
C359 C358 1.398 . S
C360 C361 1.386 . S
C360 H373 0.947 . S
C360 C395 1.382 . S
C361 C360 1.386 . S
C361 C362 1.375 1_554 S
C362 C361 1.375 1_556 S
C362 C363 1.378 . S
C362 H374 0.952 . S
C363 C362 1.378 . S
C363 H375 0.950 . S
C363 C394 1.383 . S
H364 C383 0.946 . S
H365 C384 0.946 . S
H366 C386 0.953 . S
H367 C387 0.945 . S
H368 C389 0.952 . S
H369 C390 0.949 . S
H370 C392 0.950 . S
H371 C393 0.948 . S
H372 C395 0.951 . S
H373 C360 0.947 . S
H374 C362 0.952 . S
H375 C363 0.950 . S
N376 C379 1.382 . S
N376 C381 1.363 . S
N377 C379 1.371 . S
N377 C380 1.372 . S
N378 C380 1.361 . S
N378 C381 1.377 . S
C379 N376 1.382 . S
C379 N377 1.371 . S
C379 C382 1.480 . S
C380 N377 1.372 . S
C380 N378 1.361 . S
C380 C388 1.457 . S
C381 N376 1.363 . S
C381 N378 1.377 . S
C381 C394 1.479 . S
C382 C379 1.480 . S
C382 C383 1.383 . S
C382 C387 1.385 . S
C383 H364 0.946 . S
C383 C382 1.383 . S
C383 C384 1.388 1_556 S
C384 H365 0.946 . S
C384 C383 1.388 1_554 S
C384 C385 1.384 . S
C385 C384 1.384 . S
C385 C386 1.376 1_554 S
C386 H366 0.953 . S
C386 C385 1.376 1_556 S
C386 C387 1.369 . S
C387 H367 0.945 . S
C387 C382 1.385 . S
C387 C386 1.369 . S
C388 C380 1.457 . S
C388 C389 1.372 1_556 S
C388 C393 1.364 . S
C389 H368 0.952 . S
C389 C388 1.372 1_554 S
C389 C390 1.389 . S
C390 H369 0.949 . S
C390 C389 1.389 . S
C390 C391 1.387 . S
C391 C390 1.387 . S
C391 C392 1.372 1_554 S
C392 H370 0.950 . S
C392 C391 1.372 1_556 S
C392 C393 1.379 . S
C393 H371 0.948 . S
C393 C388 1.364 . S
C393 C392 1.379 . S
C394 C363 1.383 . S
C394 C381 1.479 . S
C394 C395 1.398 1_556 S
C395 C360 1.382 . S
C395 H372 0.951 . S
C395 C394 1.398 1_554 S
C396 C397 1.384 . S
C396 H409 0.947 . S
C396 C431 1.382 . S
C397 C396 1.384 . S
C397 C398 1.377 1_554 S
C398 C397 1.377 1_556 S
C398 C399 1.379 . S
C398 H410 0.953 . S
C399 C398 1.379 . S
C399 H411 0.950 . S
C399 C430 1.378 1_556 S
H400 C419 0.947 . S
H401 C420 0.946 . S
H402 C422 0.953 . S
H403 C423 0.945 . S
H404 C425 0.952 . S
H405 C426 0.949 . S
H406 C428 0.950 . S
H407 C429 0.948 . S
H408 C431 0.951 . S
H409 C396 0.947 . S
H410 C398 0.953 . S
H411 C399 0.950 . S
N412 C415 1.382 . S
N412 C417 1.364 . S
N413 C415 1.369 1_554 S
N413 C416 1.372 1_554 S
N414 C416 1.362 . S
N414 C417 1.378 . S
C415 N412 1.382 . S
C415 N413 1.369 1_556 S
C415 C418 1.479 . S
C416 N413 1.372 1_556 S
C416 N414 1.362 . S
C416 C424 1.457 . S
C417 N412 1.364 . S
C417 N414 1.378 . S
C417 C430 1.476 1_556 S
C418 C415 1.479 . S
C418 C419 1.383 1_556 S
C418 C423 1.385 . S
C419 H400 0.947 . S
C419 C418 1.383 1_554 S
C419 C420 1.388 . S
C420 H401 0.946 . S
C420 C419 1.388 . S
C420 C421 1.384 . S
C421 C420 1.384 . S
C421 C422 1.375 1_554 S
C422 H402 0.953 . S
C422 C421 1.375 1_556 S
C422 C423 1.370 . S
C423 H403 0.945 . S
C423 C418 1.385 . S
C423 C422 1.370 . S
C424 C416 1.457 . S
C424 C425 1.372 1_556 S
C424 C429 1.364 . S
C425 H404 0.952 . S
C425 C424 1.372 1_554 S
C425 C426 1.389 . S
C426 H405 0.949 . S
C426 C425 1.389 . S
C426 C427 1.387 . S
C427 C426 1.387 . S
C427 C428 1.372 1_554 S
C428 H406 0.950 . S
C428 C427 1.372 1_556 S
C428 C429 1.379 . S
C429 H407 0.948 . S
C429 C424 1.364 . S
C429 C428 1.379 . S
C430 C399 1.378 1_554 S
C430 C417 1.476 1_554 S
C430 C431 1.404 . S
C431 C396 1.382 . S
C431 H408 0.951 . S
C431 C430 1.404 . S
C432 C433 1.384 . S
C432 H445 0.947 . S
C432 C467 1.382 . S
C433 C432 1.384 . S
C433 C434 1.378 . S
C434 C433 1.378 . S
C434 C435 1.378 . S
C434 H446 0.952 . S
C435 C434 1.378 . S
C435 H447 0.950 . S
C435 C466 1.383 . S
H436 C455 0.947 . S
H437 C456 0.946 . S
H438 C458 0.953 . S
H439 C459 0.945 . S
H440 C461 0.952 . S
H441 C462 0.949 . S
H442 C464 0.950 . S
H443 C465 0.948 . S
H444 C467 0.951 . S
H445 C432 0.947 . S
H446 C434 0.952 . S
H447 C435 0.950 . S
N448 C451 1.382 . S
N448 C453 1.363 . S
N449 C451 1.371 . S
N449 C452 1.372 . S
N450 C452 1.361 . S
N450 C453 1.377 . S
C451 N448 1.382 . S
C451 N449 1.371 . S
C451 C454 1.480 . S
C452 N449 1.372 . S
C452 N450 1.361 . S
C452 C460 1.457 . S
C453 N448 1.363 . S
C453 N450 1.377 . S
C453 C466 1.479 . S
C454 C451 1.480 . S
C454 C455 1.383 . S
C454 C459 1.385 . S
C455 H436 0.947 . S
C455 C454 1.383 . S
C455 C456 1.388 . S
C456 H437 0.946 . S
C456 C455 1.388 . S
C456 C457 1.384 . S
C457 C456 1.384 . S
C457 C458 1.377 . S
C458 H438 0.953 . S
C458 C457 1.377 . S
C458 C459 1.369 . S
C459 H439 0.945 . S
C459 C454 1.385 . S
C459 C458 1.369 . S
C460 C452 1.457 . S
C460 C461 1.372 . S
C460 C465 1.364 . S
C461 H440 0.952 . S
C461 C460 1.372 . S
C461 C462 1.389 . S
C462 H441 0.949 . S
C462 C461 1.389 . S
C462 C463 1.387 . S
C463 C462 1.387 . S
C463 C464 1.372 . S
C464 H442 0.950 . S
C464 C463 1.372 . S
C464 C465 1.379 . S
C465 H443 0.948 . S
C465 C460 1.364 . S
C465 C464 1.379 . S
C466 C435 1.383 . S
C466 C453 1.479 . S
C466 C467 1.398 . S
C467 C432 1.382 . S
C467 H444 0.951 . S
C467 C466 1.398 . S
C468 C469 1.384 . S
C468 H481 0.947 . S
C468 C503 1.382 . S
C469 C468 1.384 . S
C469 C470 1.378 . S
C470 C469 1.378 . S
C470 C471 1.378 . S
C470 H482 0.952 . S
C471 C470 1.378 . S
C471 H483 0.950 . S
C471 C502 1.383 . S
H472 C491 0.947 . S
H473 C492 0.946 . S
H474 C494 0.953 . S
H475 C495 0.945 . S
H476 C497 0.952 . S
H477 C498 0.949 . S
H478 C500 0.950 . S
H479 C501 0.948 . S
H480 C503 0.951 . S
H481 C468 0.947 . S
H482 C470 0.952 . S
H483 C471 0.950 . S
N484 C487 1.382 . S
N484 C489 1.363 . S
N485 C487 1.371 . S
N485 C488 1.372 . S
N486 C488 1.361 . S
N486 C489 1.377 . S
C487 N484 1.382 . S
C487 N485 1.371 . S
C487 C490 1.480 . S
C488 N485 1.372 . S
C488 N486 1.361 . S
C488 C496 1.457 . S
C489 N484 1.363 . S
C489 N486 1.377 . S
C489 C502 1.479 . S
C490 C487 1.480 . S
C490 C491 1.383 . S
C490 C495 1.385 . S
C491 H472 0.947 . S
C491 C490 1.383 . S
C491 C492 1.388 . S
C492 H473 0.946 . S
C492 C491 1.388 . S
C492 C493 1.384 . S
C493 C492 1.384 . S
C493 C494 1.377 . S
C494 H474 0.953 . S
C494 C493 1.377 . S
C494 C495 1.369 . S
C495 H475 0.945 . S
C495 C490 1.385 . S
C495 C494 1.369 . S
C496 C488 1.457 . S
C496 C497 1.372 . S
C496 C501 1.364 . S
C497 H476 0.952 . S
C497 C496 1.372 . S
C497 C498 1.389 . S
C498 H477 0.949 . S
C498 C497 1.389 . S
C498 C499 1.387 . S
C499 C498 1.387 . S
C499 C500 1.372 . S
C500 H478 0.950 . S
C500 C499 1.372 . S
C500 C501 1.379 . S
C501 H479 0.948 . S
C501 C496 1.364 . S
C501 C500 1.379 . S
C502 C471 1.383 . S
C502 C489 1.479 . S
C502 C503 1.398 . S
C503 C468 1.382 . S
C503 H480 0.951 . S
C503 C502 1.398 . S
C504 C505 1.384 . S
C504 H517 0.947 . S
C504 C539 1.382 . S
C505 C504 1.384 . S
C505 C506 1.378 . S
C506 C505 1.378 . S
C506 C507 1.378 . S
C506 H518 0.952 . S
C507 C506 1.378 . S
C507 H519 0.950 . S
C507 C538 1.383 . S
H508 C527 0.947 . S
H509 C528 0.946 . S
H510 C530 0.953 . S
H511 C531 0.945 . S
H512 C533 0.952 . S
H513 C534 0.949 . S
H514 C536 0.950 . S
H515 C537 0.948 . S
H516 C539 0.951 . S
H517 C504 0.947 . S
H518 C506 0.952 . S
H519 C507 0.950 . S
N520 C523 1.382 . S
N520 C525 1.363 . S
N521 C523 1.371 . S
N521 C524 1.372 . S
N522 C524 1.361 . S
N522 C525 1.377 . S
C523 N520 1.382 . S
C523 N521 1.371 . S
C523 C526 1.480 . S
C524 N521 1.372 . S
C524 N522 1.361 . S
C524 C532 1.457 . S
C525 N520 1.363 . S
C525 N522 1.377 . S
C525 C538 1.479 . S
C526 C523 1.480 . S
C526 C527 1.383 . S
C526 C531 1.385 . S
C527 H508 0.947 . S
C527 C526 1.383 . S
C527 C528 1.388 . S
C528 H509 0.946 . S
C528 C527 1.388 . S
C528 C529 1.384 . S
C529 C528 1.384 . S
C529 C530 1.377 . S
C530 H510 0.953 . S
C530 C529 1.377 . S
C530 C531 1.369 . S
C531 H511 0.945 . S
C531 C526 1.385 . S
C531 C530 1.369 . S
C532 C524 1.457 . S
C532 C533 1.372 . S
C532 C537 1.364 . S
C533 H512 0.952 . S
C533 C532 1.372 . S
C533 C534 1.389 . S
C534 H513 0.949 . S
C534 C533 1.389 . S
C534 C535 1.387 . S
C535 C534 1.387 . S
C535 C536 1.372 . S
C536 H514 0.950 . S
C536 C535 1.372 . S
C536 C537 1.379 . S
C537 H515 0.948 . S
C537 C532 1.364 . S
C537 C536 1.379 . S
C538 C507 1.383 . S
C538 C525 1.479 . S
C538 C539 1.398 . S
C539 C504 1.382 . S
C539 H516 0.951 . S
C539 C538 1.398 . S
C540 C541 1.384 . S
C540 H553 0.947 . S
C540 C575 1.382 . S
C541 C540 1.384 . S
C541 C542 1.378 . S
C542 C541 1.378 . S
C542 C543 1.378 . S
C542 H554 0.952 . S
C543 C542 1.378 . S
C543 H555 0.950 . S
C543 C574 1.383 . S
H544 C563 0.947 . S
H545 C564 0.946 . S
H546 C566 0.953 . S
H547 C567 0.945 . S
H548 C569 0.952 . S
H549 C570 0.949 . S
H550 C572 0.950 . S
H551 C573 0.948 . S
H552 C575 0.951 . S
H553 C540 0.947 . S
H554 C542 0.952 . S
H555 C543 0.950 . S
N556 C559 1.382 . S
N556 C561 1.363 . S
N557 C559 1.371 . S
N557 C560 1.372 . S
N558 C560 1.361 . S
N558 C561 1.377 . S
C559 N556 1.382 . S
C559 N557 1.371 . S
C559 C562 1.480 . S
C560 N557 1.372 . S
C560 N558 1.361 . S
C560 C568 1.457 . S
C561 N556 1.363 . S
C561 N558 1.377 . S
C561 C574 1.479 . S
C562 C559 1.480 . S
C562 C563 1.383 . S
C562 C567 1.385 . S
C563 H544 0.947 . S
C563 C562 1.383 . S
C563 C564 1.388 . S
C564 H545 0.946 . S
C564 C563 1.388 . S
C564 C565 1.384 . S
C565 C564 1.384 . S
C565 C566 1.377 . S
C566 H546 0.953 . S
C566 C565 1.377 . S
C566 C567 1.369 . S
C567 H547 0.945 . S
C567 C562 1.385 . S
C567 C566 1.369 . S
C568 C560 1.457 . S
C568 C569 1.372 . S
C568 C573 1.364 . S
C569 H548 0.952 . S
C569 C568 1.372 . S
C569 C570 1.389 . S
C570 H549 0.949 . S
C570 C569 1.389 . S
C570 C571 1.387 . S
C571 C570 1.387 . S
C571 C572 1.372 . S
C572 H550 0.950 . S
C572 C571 1.372 . S
C572 C573 1.379 . S
C573 H551 0.948 . S
C573 C568 1.364 . S
C573 C572 1.379 . S
C574 C543 1.383 . S
C574 C561 1.479 . S
C574 C575 1.398 . S
C575 C540 1.382 . S
C575 H552 0.951 . S
C575 C574 1.398 . S
C576 C577 1.384 . S
C576 H589 0.947 . S
C576 C611 1.382 . S
C577 C576 1.384 . S
C577 C578 1.378 . S
C578 C577 1.378 . S
C578 C579 1.378 . S
C578 H590 0.952 . S
C579 C578 1.378 . S
C579 H591 0.950 . S
C579 C610 1.383 . S
H580 C599 0.947 . S
H581 C600 0.946 . S
H582 C602 0.953 . S
H583 C603 0.945 . S
H584 C605 0.952 . S
H585 C606 0.949 . S
H586 C608 0.950 . S
H587 C609 0.948 . S
H588 C611 0.951 . S
H589 C576 0.947 . S
H590 C578 0.952 . S
H591 C579 0.950 . S
N592 C595 1.382 . S
N592 C597 1.363 . S
N593 C595 1.371 . S
N593 C596 1.372 . S
N594 C596 1.361 . S
N594 C597 1.377 . S
C595 N592 1.382 . S
C595 N593 1.371 . S
C595 C598 1.480 . S
C596 N593 1.372 . S
C596 N594 1.361 . S
C596 C604 1.457 . S
C597 N592 1.363 . S
C597 N594 1.377 . S
C597 C610 1.479 . S
C598 C595 1.480 . S
C598 C599 1.383 . S
C598 C603 1.385 . S
C599 H580 0.947 . S
C599 C598 1.383 . S
C599 C600 1.388 . S
C600 H581 0.946 . S
C600 C599 1.388 . S
C600 C601 1.384 . S
C601 C600 1.384 . S
C601 C602 1.377 . S
C602 H582 0.953 . S
C602 C601 1.377 . S
C602 C603 1.369 . S
C603 H583 0.945 . S
C603 C598 1.385 . S
C603 C602 1.369 . S
C604 C596 1.457 . S
C604 C605 1.372 . S
C604 C609 1.364 . S
C605 H584 0.952 . S
C605 C604 1.372 . S
C605 C606 1.389 . S
C606 H585 0.949 . S
C606 C605 1.389 . S
C606 C607 1.387 . S
C607 C606 1.387 . S
C607 C608 1.372 . S
C608 H586 0.950 . S
C608 C607 1.372 . S
C608 C609 1.379 . S
C609 H587 0.948 . S
C609 C604 1.364 . S
C609 C608 1.379 . S
C610 C579 1.383 . S
C610 C597 1.479 . S
C610 C611 1.398 . S
C611 C576 1.382 . S
C611 H588 0.951 . S
C611 C610 1.398 . S
C612 C613 1.384 . S
C612 H625 0.947 . S
C612 C647 1.382 . S
C613 C612 1.384 . S
C613 C614 1.378 . S
C614 C613 1.378 . S
C614 C615 1.378 . S
C614 H626 0.952 . S
C615 C614 1.378 . S
C615 H627 0.950 . S
C615 C646 1.383 . S
H616 C635 0.947 . S
H617 C636 0.946 . S
H618 C638 0.953 . S
H619 C639 0.945 . S
H620 C641 0.952 . S
H621 C642 0.949 . S
H622 C644 0.950 . S
H623 C645 0.948 . S
H624 C647 0.951 . S
H625 C612 0.947 . S
H626 C614 0.952 . S
H627 C615 0.950 . S
N628 C631 1.382 . S
N628 C633 1.363 . S
N629 C631 1.371 . S
N629 C632 1.372 . S
N630 C632 1.361 . S
N630 C633 1.377 . S
C631 N628 1.382 . S
C631 N629 1.371 . S
C631 C634 1.480 . S
C632 N629 1.372 . S
C632 N630 1.361 . S
C632 C640 1.457 . S
C633 N628 1.363 . S
C633 N630 1.377 . S
C633 C646 1.479 . S
C634 C631 1.480 . S
C634 C635 1.383 . S
C634 C639 1.385 . S
C635 H616 0.947 . S
C635 C634 1.383 . S
C635 C636 1.388 . S
C636 H617 0.946 . S
C636 C635 1.388 . S
C636 C637 1.384 . S
C637 C636 1.384 . S
C637 C638 1.377 . S
C638 H618 0.953 . S
C638 C637 1.377 . S
C638 C639 1.369 . S
C639 H619 0.945 . S
C639 C634 1.385 . S
C639 C638 1.369 . S
C640 C632 1.457 . S
C640 C641 1.372 . S
C640 C645 1.364 . S
C641 H620 0.952 . S
C641 C640 1.372 . S
C641 C642 1.389 . S
C642 H621 0.949 . S
C642 C641 1.389 . S
C642 C643 1.387 . S
C643 C642 1.387 . S
C643 C644 1.372 . S
C644 H622 0.950 . S
C644 C643 1.372 . S
C644 C645 1.379 . S
C645 H623 0.948 . S
C645 C640 1.364 . S
C645 C644 1.379 . S
C646 C615 1.383 . S
C646 C633 1.479 . S
C646 C647 1.398 . S
C647 C612 1.382 . S
C647 H624 0.951 . S
C647 C646 1.398 . S
C648 C649 1.384 . S
C648 H661 0.947 . S
C648 C683 1.382 . S
C649 C648 1.384 . S
C649 C650 1.378 . S
C650 C649 1.378 . S
C650 C651 1.378 . S
C650 H662 0.952 . S
C651 C650 1.378 . S
C651 H663 0.950 . S
C651 C682 1.383 . S
H652 C671 0.947 . S
H653 C672 0.946 . S
H654 C674 0.953 . S
H655 C675 0.945 . S
H656 C677 0.952 . S
H657 C678 0.949 . S
H658 C680 0.950 . S
H659 C681 0.948 . S
H660 C683 0.951 . S
H661 C648 0.947 . S
H662 C650 0.952 . S
H663 C651 0.950 . S
N664 C667 1.382 . S
N664 C669 1.363 . S
N665 C667 1.371 . S
N665 C668 1.372 . S
N666 C668 1.361 . S
N666 C669 1.377 . S
C667 N664 1.382 . S
C667 N665 1.371 . S
C667 C670 1.480 . S
C668 N665 1.372 . S
C668 N666 1.361 . S
C668 C676 1.457 . S
C669 N664 1.363 . S
C669 N666 1.377 . S
C669 C682 1.479 . S
C670 C667 1.480 . S
C670 C671 1.383 . S
C670 C675 1.385 . S
C671 H652 0.947 . S
C671 C670 1.383 . S
C671 C672 1.388 . S
C672 H653 0.946 . S
C672 C671 1.388 . S
C672 C673 1.384 . S
C673 C672 1.384 . S
C673 C674 1.377 . S
C674 H654 0.953 . S
C674 C673 1.377 . S
C674 C675 1.369 . S
C675 H655 0.945 . S
C675 C670 1.385 . S
C675 C674 1.369 . S
C676 C668 1.457 . S
C676 C677 1.372 . S
C676 C681 1.364 . S
C677 H656 0.952 . S
C677 C676 1.372 . S
C677 C678 1.389 . S
C678 H657 0.949 . S
C678 C677 1.389 . S
C678 C679 1.387 . S
C679 C678 1.387 . S
C679 C680 1.372 . S
C680 H658 0.950 . S
C680 C679 1.372 . S
C680 C681 1.379 . S
C681 H659 0.948 . S
C681 C676 1.364 . S
C681 C680 1.379 . S
C682 C651 1.383 . S
C682 C669 1.479 . S
C682 C683 1.398 . S
C683 C648 1.382 . S
C683 H660 0.951 . S
C683 C682 1.398 . S
C684 C685 1.384 . S
C684 H697 0.947 . S
C684 C719 1.382 . S
C685 C684 1.384 . S
C685 C686 1.378 . S
C686 C685 1.378 . S
C686 C687 1.378 . S
C686 H698 0.952 . S
C687 C686 1.378 . S
C687 H699 0.950 . S
C687 C718 1.383 . S
H688 C707 0.947 . S
H689 C708 0.946 . S
H690 C710 0.953 . S
H691 C711 0.945 . S
H692 C713 0.952 . S
H693 C714 0.949 . S
H694 C716 0.950 . S
H695 C717 0.948 . S
H696 C719 0.951 . S
H697 C684 0.947 . S
H698 C686 0.952 . S
H699 C687 0.950 . S
N700 C703 1.382 . S
N700 C705 1.363 . S
N701 C703 1.371 . S
N701 C704 1.372 . S
N702 C704 1.361 . S
N702 C705 1.377 . S
C703 N700 1.382 . S
C703 N701 1.371 . S
C703 C706 1.480 . S
C704 N701 1.372 . S
C704 N702 1.361 . S
C704 C712 1.457 . S
C705 N700 1.363 . S
C705 N702 1.377 . S
C705 C718 1.479 . S
C706 C703 1.480 . S
C706 C707 1.383 . S
C706 C711 1.385 . S
C707 H688 0.947 . S
C707 C706 1.383 . S
C707 C708 1.388 . S
C708 H689 0.946 . S
C708 C707 1.388 . S
C708 C709 1.384 . S
C709 C708 1.384 . S
C709 C710 1.377 . S
C710 H690 0.953 . S
C710 C709 1.377 . S
C710 C711 1.369 . S
C711 H691 0.945 . S
C711 C706 1.385 . S
C711 C710 1.369 . S
C712 C704 1.457 . S
C712 C713 1.372 . S
C712 C717 1.364 . S
C713 H692 0.952 . S
C713 C712 1.372 . S
C713 C714 1.389 . S
C714 H693 0.949 . S
C714 C713 1.389 . S
C714 C715 1.387 . S
C715 C714 1.387 . S
C715 C716 1.372 . S
C716 H694 0.950 . S
C716 C715 1.372 . S
C716 C717 1.379 . S
C717 H695 0.948 . S
C717 C712 1.364 . S
C717 C716 1.379 . S
C718 C687 1.383 . S
C718 C705 1.479 . S
C718 C719 1.398 . S
C719 C684 1.382 . S
C719 H696 0.951 . S
C719 C718 1.398 . S
C720 C721 1.384 . S
C720 H733 0.947 . S
C720 C755 1.382 . S
C721 C720 1.384 . S
C721 C722 1.378 . S
C722 C721 1.378 . S
C722 C723 1.378 . S
C722 H734 0.952 . S
C723 C722 1.378 . S
C723 H735 0.950 . S
C723 C754 1.383 . S
H724 C743 0.947 . S
H725 C744 0.946 . S
H726 C746 0.953 . S
H727 C747 0.945 . S
H728 C749 0.952 . S
H729 C750 0.949 . S
H730 C752 0.950 . S
H731 C753 0.948 . S
H732 C755 0.951 . S
H733 C720 0.947 . S
H734 C722 0.952 . S
H735 C723 0.950 . S
N736 C739 1.382 . S
N736 C741 1.363 . S
N737 C739 1.371 . S
N737 C740 1.372 . S
N738 C740 1.361 . S
N738 C741 1.377 . S
C739 N736 1.382 . S
C739 N737 1.371 . S
C739 C742 1.480 . S
C740 N737 1.372 . S
C740 N738 1.361 . S
C740 C748 1.457 . S
C741 N736 1.363 . S
C741 N738 1.377 . S
C741 C754 1.479 . S
C742 C739 1.480 . S
C742 C743 1.383 . S
C742 C747 1.385 . S
C743 H724 0.947 . S
C743 C742 1.383 . S
C743 C744 1.388 . S
C744 H725 0.946 . S
C744 C743 1.388 . S
C744 C745 1.384 . S
C745 C744 1.384 . S
C745 C746 1.377 . S
C746 H726 0.953 . S
C746 C745 1.377 . S
C746 C747 1.369 . S
C747 H727 0.945 . S
C747 C742 1.385 . S
C747 C746 1.369 . S
C748 C740 1.457 . S
C748 C749 1.372 . S
C748 C753 1.364 . S
C749 H728 0.952 . S
C749 C748 1.372 . S
C749 C750 1.389 . S
C750 H729 0.949 . S
C750 C749 1.389 . S
C750 C751 1.387 . S
C751 C750 1.387 . S
C751 C752 1.372 . S
C752 H730 0.950 . S
C752 C751 1.372 . S
C752 C753 1.379 . S
C753 H731 0.948 . S
C753 C748 1.364 . S
C753 C752 1.379 . S
C754 C723 1.383 . S
C754 C741 1.479 . S
C754 C755 1.398 . S
C755 C720 1.382 . S
C755 H732 0.951 . S
C755 C754 1.398 . S
C756 C757 1.384 . S
C756 H769 0.947 . S
C756 C791 1.382 . S
C757 C756 1.384 . S
C757 C758 1.378 . S
C758 C757 1.378 . S
C758 C759 1.378 . S
C758 H770 0.952 . S
C759 C758 1.378 . S
C759 H771 0.950 . S
C759 C790 1.383 . S
H760 C779 0.947 . S
H761 C780 0.946 . S
H762 C782 0.953 . S
H763 C783 0.945 . S
H764 C785 0.952 . S
H765 C786 0.949 . S
H766 C788 0.950 . S
H767 C789 0.948 . S
H768 C791 0.951 . S
H769 C756 0.947 . S
H770 C758 0.952 . S
H771 C759 0.950 . S
N772 C775 1.382 . S
N772 C777 1.363 . S
N773 C775 1.371 . S
N773 C776 1.372 . S
N774 C776 1.361 . S
N774 C777 1.377 . S
C775 N772 1.382 . S
C775 N773 1.371 . S
C775 C778 1.480 . S
C776 N773 1.372 . S
C776 N774 1.361 . S
C776 C784 1.457 . S
C777 N772 1.363 . S
C777 N774 1.377 . S
C777 C790 1.479 . S
C778 C775 1.480 . S
C778 C779 1.383 . S
C778 C783 1.385 . S
C779 H760 0.947 . S
C779 C778 1.383 . S
C779 C780 1.388 . S
C780 H761 0.946 . S
C780 C779 1.388 . S
C780 C781 1.384 . S
C781 C780 1.384 . S
C781 C782 1.377 . S
C782 H762 0.953 . S
C782 C781 1.377 . S
C782 C783 1.369 . S
C783 H763 0.945 . S
C783 C778 1.385 . S
C783 C782 1.369 . S
C784 C776 1.457 . S
C784 C785 1.372 . S
C784 C789 1.364 . S
C785 H764 0.952 . S
C785 C784 1.372 . S
C785 C786 1.389 . S
C786 H765 0.949 . S
C786 C785 1.389 . S
C786 C787 1.387 . S
C787 C786 1.387 . S
C787 C788 1.372 . S
C788 H766 0.950 . S
C788 C787 1.372 . S
C788 C789 1.379 . S
C789 H767 0.948 . S
C789 C784 1.364 . S
C789 C788 1.379 . S
C790 C759 1.383 . S
C790 C777 1.479 . S
C790 C791 1.398 . S
C791 C756 1.382 . S
C791 H768 0.951 . S
C791 C790 1.398 . S
C792 C793 1.384 . S
C792 H805 0.947 . S
C792 C827 1.382 . S
C793 C792 1.384 . S
C793 C794 1.378 . S
C794 C793 1.378 . S
C794 C795 1.378 . S
C794 H806 0.952 . S
C795 C794 1.378 . S
C795 H807 0.950 . S
C795 C826 1.383 . S
H796 C815 0.947 . S
H797 C816 0.946 . S
H798 C818 0.953 . S
H799 C819 0.945 . S
H800 C821 0.952 . S
H801 C822 0.949 . S
H802 C824 0.950 . S
H803 C825 0.948 . S
H804 C827 0.951 . S
H805 C792 0.947 . S
H806 C794 0.952 . S
H807 C795 0.950 . S
N808 C811 1.382 . S
N808 C813 1.363 . S
N809 C811 1.371 . S
N809 C812 1.372 . S
N810 C812 1.361 . S
N810 C813 1.377 . S
C811 N808 1.382 . S
C811 N809 1.371 . S
C811 C814 1.480 . S
C812 N809 1.372 . S
C812 N810 1.361 . S
C812 C820 1.457 . S
C813 N808 1.363 . S
C813 N810 1.377 . S
C813 C826 1.479 . S
C814 C811 1.480 . S
C814 C815 1.383 . S
C814 C819 1.385 . S
C815 H796 0.947 . S
C815 C814 1.383 . S
C815 C816 1.388 . S
C816 H797 0.946 . S
C816 C815 1.388 . S
C816 C817 1.384 . S
C817 C816 1.384 . S
C817 C818 1.377 . S
C818 H798 0.953 . S
C818 C817 1.377 . S
C818 C819 1.369 . S
C819 H799 0.945 . S
C819 C814 1.385 . S
C819 C818 1.369 . S
C820 C812 1.457 . S
C820 C821 1.372 . S
C820 C825 1.364 . S
C821 H800 0.952 . S
C821 C820 1.372 . S
C821 C822 1.389 . S
C822 H801 0.949 . S
C822 C821 1.389 . S
C822 C823 1.387 . S
C823 C822 1.387 . S
C823 C824 1.372 . S
C824 H802 0.950 . S
C824 C823 1.372 . S
C824 C825 1.379 . S
C825 H803 0.948 . S
C825 C820 1.364 . S
C825 C824 1.379 . S
C826 C795 1.383 . S
C826 C813 1.479 . S
C826 C827 1.398 . S
C827 C792 1.382 . S
C827 H804 0.951 . S
C827 C826 1.398 . S
C828 C829 1.384 . S
C828 H841 0.947 . S
C828 C863 1.382 . S
C829 C828 1.384 . S
C829 C830 1.378 . S
C830 C829 1.378 . S
C830 C831 1.378 . S
C830 H842 0.952 . S
C831 C830 1.378 . S
C831 H843 0.950 . S
C831 C862 1.383 . S
H832 C851 0.947 . S
H833 C852 0.946 . S
H834 C854 0.953 . S
H835 C855 0.945 . S
H836 C857 0.952 . S
H837 C858 0.949 . S
H838 C860 0.950 . S
H839 C861 0.948 . S
H840 C863 0.951 . S
H841 C828 0.947 . S
H842 C830 0.952 . S
H843 C831 0.950 . S
N844 C847 1.382 . S
N844 C849 1.363 . S
N845 C847 1.371 . S
N845 C848 1.372 . S
N846 C848 1.361 . S
N846 C849 1.377 . S
C847 N844 1.382 . S
C847 N845 1.371 . S
C847 C850 1.480 . S
C848 N845 1.372 . S
C848 N846 1.361 . S
C848 C856 1.457 . S
C849 N844 1.363 . S
C849 N846 1.377 . S
C849 C862 1.479 . S
C850 C847 1.480 . S
C850 C851 1.383 . S
C850 C855 1.385 . S
C851 H832 0.947 . S
C851 C850 1.383 . S
C851 C852 1.388 . S
C852 H833 0.946 . S
C852 C851 1.388 . S
C852 C853 1.384 . S
C853 C852 1.384 . S
C853 C854 1.377 . S
C854 H834 0.953 . S
C854 C853 1.377 . S
C854 C855 1.369 . S
C855 H835 0.945 . S
C855 C850 1.385 . S
C855 C854 1.369 . S
C856 C848 1.457 . S
C856 C857 1.372 . S
C856 C861 1.364 . S
C857 H836 0.952 . S
C857 C856 1.372 . S
C857 C858 1.389 . S
C858 H837 0.949 . S
C858 C857 1.389 . S
C858 C859 1.387 . S
C859 C858 1.387 . S
C859 C860 1.372 . S
C860 H838 0.950 . S
C860 C859 1.372 . S
C860 C861 1.379 . S
C861 H839 0.948 . S
C861 C856 1.364 . S
C861 C860 1.379 . S
C862 C831 1.383 . S
C862 C849 1.479 . S
C862 C863 1.398 . S
C863 C828 1.382 . S
C863 H840 0.951 . S
C863 C862 1.398 . S
Zn864 O866 1.939 1_565 S
Zn864 O884 1.985 1_565 S
Zn864 O895 1.955 . S
Zn865 O866 1.919 . S
Zn865 O885 1.970 . S
Zn865 O901 1.945 . S
Zn865 O908 1.981 . S
O866 Zn864 1.939 1_545 S
O866 Zn865 1.919 . S
O866 H867 0.822 1_655 S
H867 O866 0.822 1_455 S
C868 O869 1.246 . S
C868 O897 1.276 . S
O869 C868 1.246 . S
Zn870 O872 1.911 . S
Zn870 O887 1.970 . S
Zn870 O904 1.945 . S
Zn870 O911 1.981 . S
Zn871 O872 1.933 1_565 S
Zn871 O886 1.985 . S
Zn871 O893 1.955 . S
O872 Zn870 1.911 . S
O872 Zn871 1.933 1_545 S
O872 H873 0.841 . S
H873 O872 0.841 . S
Zn874 O875 1.933 1_565 S
Zn874 O888 1.985 1_565 S
Zn874 O897 1.955 . S
O875 Zn874 1.933 1_545 S
O875 Zn876 1.911 . S
O875 H877 0.841 . S
Zn876 O875 1.911 . S
Zn876 O889 1.970 . S
Zn876 O905 1.981 1_655 S
Zn876 O907 1.945 . S
H877 O875 0.841 . S
Zn878 O879 1.933 1_565 S
Zn878 O891 1.985 . S
Zn878 O899 1.955 . S
O879 Zn878 1.933 1_545 S
O879 H880 0.841 . S
O879 Zn881 1.911 . S
H880 O879 0.841 . S
Zn881 O879 1.911 . S
Zn881 O892 1.970 . S
Zn881 O902 1.981 . S
Zn881 O910 1.945 . S
C882 O883 1.246 . S
C882 O899 1.276 . S
O883 C882 1.246 . S
O884 Zn864 1.985 1_545 S
O884 C894 1.245 . S
O885 Zn865 1.970 . S
O885 C894 1.263 . S
O886 Zn871 1.985 . S
O886 C898 1.245 1_565 S
O887 Zn870 1.970 . S
O887 C898 1.263 . S
O888 Zn874 1.985 1_545 S
O888 C903 1.245 . S
O889 Zn876 1.970 . S
O889 C903 1.263 . S
C890 O901 1.262 1_455 S
C890 O902 1.245 . S
O891 Zn878 1.985 . S
O891 C909 1.245 1_565 S
O892 Zn881 1.970 . S
O892 C909 1.263 . S
O893 Zn871 1.955 . S
O893 C912 1.276 . S
C894 O884 1.245 . S
C894 O885 1.263 . S
O895 Zn864 1.955 . S
O895 C914 1.276 1_655 S
C896 O904 1.262 . S
C896 O905 1.245 . S
O897 C868 1.276 . S
O897 Zn874 1.955 . S
C898 O886 1.245 1_545 S
C898 O887 1.263 . S
O899 Zn878 1.955 . S
O899 C882 1.276 . S
C900 O907 1.262 . S
C900 O908 1.245 . S
O901 Zn865 1.945 . S
O901 C890 1.262 1_655 S
O902 Zn881 1.981 . S
O902 C890 1.245 . S
C903 O888 1.245 . S
C903 O889 1.263 . S
O904 Zn870 1.945 . S
O904 C896 1.262 . S
O905 Zn876 1.981 1_455 S
O905 C896 1.245 . S
C906 O910 1.262 . S
C906 O911 1.245 . S
O907 Zn876 1.945 . S
O907 C900 1.262 . S
O908 Zn865 1.981 . S
O908 C900 1.245 . S
C909 O891 1.245 1_545 S
C909 O892 1.263 . S
O910 Zn881 1.945 . S
O910 C906 1.262 . S
O911 Zn870 1.981 . S
O911 C906 1.245 . S
C912 O893 1.276 . S
C912 O913 1.246 . S
O913 C912 1.246 . S
C914 O895 1.276 1_455 S
C914 O915 1.246 . S
O915 C914 1.246 . S
Zn916 O918 1.933 . S
Zn916 O936 1.985 . S
Zn916 O947 1.955 . S
Zn917 O918 1.911 1_556 S
Zn917 O937 1.970 . S
Zn917 O953 1.945 . S
Zn917 O960 1.981 . S
O918 Zn916 1.933 . S
O918 Zn917 1.911 1_554 S
O918 H919 0.841 . S
H919 O918 0.841 . S
C920 O921 1.246 . S
C920 O949 1.276 . S
O921 C920 1.246 . S
Zn922 O924 1.926 1_556 S
Zn922 O939 1.970 . S
Zn922 O956 1.945 . S
Zn922 O963 1.981 . S
Zn923 O924 1.943 . S
Zn923 O938 1.985 . S
Zn923 O945 1.962 . S
O924 Zn922 1.926 1_554 S
O924 Zn923 1.943 . S
O924 H925 0.808 1_565 S
H925 O924 0.808 1_545 S
Zn926 O927 1.933 . S
Zn926 O940 1.985 . S
Zn926 O949 1.955 . S
O927 Zn926 1.933 . S
O927 Zn928 1.911 1_554 S
O927 H929 0.841 . S
Zn928 O927 1.911 1_556 S
Zn928 O941 1.970 . S
Zn928 O957 1.981 . S
Zn928 O959 1.945 . S
H929 O927 0.841 . S
Zn930 O931 1.933 . S
Zn930 O943 1.985 . S
Zn930 O951 1.955 . S
O931 Zn930 1.933 . S
O931 H932 0.841 . S
O931 Zn933 1.911 1_554 S
H932 O931 0.841 . S
Zn933 O931 1.911 1_556 S
Zn933 O944 1.970 . S
Zn933 O954 1.981 1_565 S
Zn933 O962 1.945 . S
C934 O935 1.246 . S
C934 O951 1.276 . S
O935 C934 1.246 . S
O936 Zn916 1.985 . S
O936 C946 1.245 . S
O937 Zn917 1.970 . S
O937 C946 1.263 1_556 S
O938 Zn923 1.985 . S
O938 C950 1.245 . S
O939 Zn922 1.970 . S
O939 C950 1.263 1_556 S
O940 Zn926 1.985 . S
O940 C955 1.245 . S
O941 Zn928 1.970 . S
O941 C955 1.263 1_556 S
C942 O953 1.262 . S
C942 O954 1.245 . S
O943 Zn930 1.985 . S
O943 C961 1.245 . S
O944 Zn933 1.970 . S
O944 C961 1.263 1_556 S
O945 Zn923 1.962 . S
O945 C964 1.254 1_565 S
C946 O936 1.245 . S
C946 O937 1.263 1_554 S
O947 Zn916 1.955 . S
O947 C966 1.276 . S
C948 O956 1.262 1_545 S
C948 O957 1.245 . S
O949 C920 1.276 . S
O949 Zn926 1.955 . S
C950 O938 1.245 . S
C950 O939 1.263 1_554 S
O951 Zn930 1.955 . S
O951 C934 1.276 . S
C952 O959 1.262 . S
C952 O960 1.245 . S
O953 Zn917 1.945 . S
O953 C942 1.262 . S
O954 Zn933 1.981 1_545 S
O954 C942 1.245 . S
C955 O940 1.245 . S
C955 O941 1.263 1_554 S
O956 Zn922 1.945 . S
O956 C948 1.262 1_565 S
O957 Zn928 1.981 . S
O957 C948 1.245 . S
C958 O962 1.262 . S
C958 O963 1.245 . S
O959 Zn928 1.945 . S
O959 C952 1.262 . S
O960 Zn917 1.981 . S
O960 C952 1.245 . S
C961 O943 1.245 . S
C961 O944 1.263 1_554 S
O962 Zn933 1.945 . S
O962 C958 1.262 . S
O963 Zn922 1.981 . S
O963 C958 1.245 . S
C964 O945 1.254 1_545 S
C964 O965 1.246 . S
O965 C964 1.246 . S
C966 O947 1.276 . S
C966 O967 1.246 . S
O967 C966 1.246 . S
Zn968 O970 1.933 . S
Zn968 O988 1.985 . S
Zn968 O999 1.945 1_655 S
Zn969 O970 1.911 . S
Zn969 O989 1.970 . S
Zn969 O1005 1.945 . S
Zn969 O1012 1.981 . S
O970 Zn968 1.933 . S
O970 Zn969 1.911 . S
O970 H971 0.841 1_655 S
H971 O970 0.841 1_455 S
C972 O973 1.246 1_554 S
C972 O1001 1.276 . S
O973 C972 1.246 1_556 S
Zn974 O976 1.911 . S
Zn974 O991 1.970 . S
Zn974 O1008 1.945 . S
Zn974 O1015 1.981 . S
Zn975 O976 1.933 . S
Zn975 O990 1.985 . S
Zn975 O997 1.955 . S
O976 Zn974 1.911 . S
O976 Zn975 1.933 . S
O976 H977 0.841 . S
H977 O976 0.841 . S
Zn978 O979 1.933 . S
Zn978 O992 1.985 . S
Zn978 O1001 1.955 . S
O979 Zn978 1.933 . S
O979 Zn980 1.911 . S
O979 H981 0.841 . S
Zn980 O979 1.911 . S
Zn980 O993 1.970 . S
Zn980 O1009 1.981 1_655 S
Zn980 O1011 1.945 . S
H981 O979 0.841 . S
Zn982 O983 1.933 . S
Zn982 O995 1.985 . S
Zn982 O1003 1.955 . S
O983 Zn982 1.933 . S
O983 H984 0.841 1_556 S
O983 Zn985 1.911 . S
H984 O983 0.841 1_554 S
Zn985 O983 1.911 . S
Zn985 O996 1.970 . S
Zn985 O1006 1.981 . S
Zn985 O1014 1.945 . S
C986 O987 1.246 . S
C986 O1003 1.276 1_554 S
O987 C986 1.246 . S
O988 Zn968 1.985 . S
O988 C998 1.245 . S
O989 Zn969 1.970 . S
O989 C998 1.263 . S
O990 Zn975 1.985 . S
O990 C1002 1.245 . S
O991 Zn974 1.970 . S
O991 C1002 1.263 . S
O992 Zn978 1.985 . S
O992 C1007 1.245 . S
O993 Zn980 1.970 . S
O993 C1007 1.263 . S
C994 O1005 1.262 1_455 S
C994 O1006 1.245 . S
O995 Zn982 1.985 . S
O995 C1013 1.245 . S
O996 Zn985 1.970 . S
O996 C1013 1.263 . S
O997 Zn975 1.955 . S
O997 C1016 1.276 . S
C998 O988 1.245 . S
C998 O989 1.263 . S
O999 Zn968 1.945 1_455 S
O999 C1018 1.308 . S
C1000 O1008 1.262 . S
C1000 O1009 1.245 . S
O1001 C972 1.276 . S
O1001 Zn978 1.955 . S
C1002 O990 1.245 . S
C1002 O991 1.263 . S
O1003 Zn982 1.955 . S
O1003 C986 1.276 1_556 S
C1004 O1011 1.262 . S
C1004 O1012 1.245 1_554 S
O1005 Zn969 1.945 . S
O1005 C994 1.262 1_655 S
O1006 Zn985 1.981 . S
O1006 C994 1.245 . S
C1007 O992 1.245 . S
C1007 O993 1.263 . S
O1008 Zn974 1.945 . S
O1008 C1000 1.262 . S
O1009 Zn980 1.981 1_455 S
O1009 C1000 1.245 . S
C1010 O1014 1.262 1_554 S
C1010 O1015 1.245 . S
O1011 Zn980 1.945 . S
O1011 C1004 1.262 . S
O1012 Zn969 1.981 . S
O1012 C1004 1.245 1_556 S
C1013 O995 1.245 . S
C1013 O996 1.263 . S
O1014 Zn985 1.945 . S
O1014 C1010 1.262 1_556 S
O1015 Zn974 1.981 . S
O1015 C1010 1.245 . S
C1016 O997 1.276 . S
C1016 O1017 1.246 . S
O1017 C1016 1.246 . S
C1018 O999 1.308 . S
C1018 O1019 1.246 . S
O1019 C1018 1.246 . S
Zn1020 O1022 1.933 1_556 S
Zn1020 O1040 1.985 . S
Zn1020 O1051 1.955 . S
Zn1021 O1022 1.911 . S
Zn1021 O1041 1.970 . S
Zn1021 O1057 1.945 . S
Zn1021 O1064 1.981 . S
O1022 Zn1020 1.933 1_554 S
O1022 Zn1021 1.911 . S
O1022 H1023 0.841 . S
H1023 O1022 0.841 . S
C1024 O1025 1.246 . S
C1024 O1053 1.276 . S
O1025 C1024 1.246 . S
Zn1026 O1028 1.911 . S
Zn1026 O1043 1.970 . S
Zn1026 O1060 1.945 . S
Zn1026 O1067 1.981 . S
Zn1027 O1028 1.933 1_556 S
Zn1027 O1042 1.985 . S
Zn1027 O1049 1.955 . S
O1028 Zn1026 1.911 . S
O1028 Zn1027 1.933 1_554 S
O1028 H1029 0.841 . S
H1029 O1028 0.841 . S
Zn1030 O1031 1.933 1_556 S
Zn1030 O1044 1.985 . S
Zn1030 O1053 1.955 . S
O1031 Zn1030 1.933 1_554 S
O1031 Zn1032 1.911 . S
O1031 H1033 0.841 . S
Zn1032 O1031 1.911 . S
Zn1032 O1045 1.970 . S
Zn1032 O1061 1.981 . S
Zn1032 O1063 1.945 . S
H1033 O1031 0.841 . S
Zn1034 O1035 1.933 1_556 S
Zn1034 O1047 1.985 . S
Zn1034 O1055 1.955 . S
O1035 Zn1034 1.933 1_554 S
O1035 H1036 0.841 . S
O1035 Zn1037 1.911 . S
H1036 O1035 0.841 . S
Zn1037 O1035 1.911 . S
Zn1037 O1048 1.970 . S
Zn1037 O1058 1.981 . S
Zn1037 O1066 1.945 . S
C1038 O1039 1.246 . S
C1038 O1055 1.276 . S
O1039 C1038 1.246 . S
O1040 Zn1020 1.985 . S
O1040 C1050 1.245 1_556 S
O1041 Zn1021 1.970 . S
O1041 C1050 1.263 . S
O1042 Zn1027 1.985 . S
O1042 C1054 1.245 1_556 S
O1043 Zn1026 1.970 . S
O1043 C1054 1.263 . S
O1044 Zn1030 1.985 . S
O1044 C1059 1.245 1_556 S
O1045 Zn1032 1.970 . S
O1045 C1059 1.263 . S
C1046 O1057 1.262 . S
C1046 O1058 1.245 . S
O1047 Zn1034 1.985 . S
O1047 C1065 1.245 1_556 S
O1048 Zn1037 1.970 . S
O1048 C1065 1.263 . S
O1049 Zn1027 1.955 . S
O1049 C1068 1.276 . S
C1050 O1040 1.245 1_554 S
C1050 O1041 1.263 . S
O1051 Zn1020 1.955 . S
O1051 C1070 1.276 . S
C1052 O1060 1.262 . S
C1052 O1061 1.245 . S
O1053 C1024 1.276 . S
O1053 Zn1030 1.955 . S
C1054 O1042 1.245 1_554 S
C1054 O1043 1.263 . S
O1055 Zn1034 1.955 . S
O1055 C1038 1.276 . S
C1056 O1063 1.262 . S
C1056 O1064 1.245 . S
O1057 Zn1021 1.945 . S
O1057 C1046 1.262 . S
O1058 Zn1037 1.981 . S
O1058 C1046 1.245 . S
C1059 O1044 1.245 1_554 S
C1059 O1045 1.263 . S
O1060 Zn1026 1.945 . S
O1060 C1052 1.262 . S
O1061 Zn1032 1.981 . S
O1061 C1052 1.245 . S
C1062 O1066 1.262 . S
C1062 O1067 1.245 . S
O1063 Zn1032 1.945 . S
O1063 C1056 1.262 . S
O1064 Zn1021 1.981 . S
O1064 C1056 1.245 . S
C1065 O1047 1.245 1_554 S
C1065 O1048 1.263 . S
O1066 Zn1037 1.945 . S
O1066 C1062 1.262 . S
O1067 Zn1026 1.981 . S
O1067 C1062 1.245 . S
C1068 O1049 1.276 . S
C1068 O1069 1.246 . S
O1069 C1068 1.246 . S
C1070 O1051 1.276 . S
C1070 O1071 1.246 . S
O1071 C1070 1.246 . S
Zn1072 O1074 1.937 . S
Zn1072 O1092 1.985 . S
Zn1072 O1103 1.955 1_655 S
Zn1073 O1074 1.917 . S
Zn1073 O1093 1.970 . S
Zn1073 O1109 1.945 . S
Zn1073 O1116 1.981 . S
O1074 Zn1072 1.937 . S
O1074 Zn1073 1.917 . S
O1074 H1075 0.826 1_655 S
H1075 O1074 0.826 1_455 S
C1076 O1077 1.246 . S
C1076 O1105 1.276 . S
O1077 C1076 1.246 . S
Zn1078 O1080 1.911 . S
Zn1078 O1095 1.970 . S
Zn1078 O1112 1.945 . S
Zn1078 O1119 1.981 . S
Zn1079 O1080 1.933 . S
Zn1079 O1094 1.985 . S
Zn1079 O1101 1.955 . S
O1080 Zn1078 1.911 . S
O1080 Zn1079 1.933 . S
O1080 H1081 0.841 . S
H1081 O1080 0.841 . S
Zn1082 O1083 1.933 . S
Zn1082 O1096 1.985 . S
Zn1082 O1105 1.955 . S
O1083 Zn1082 1.933 . S
O1083 Zn1084 1.911 . S
O1083 H1085 0.841 . S
Zn1084 O1083 1.911 . S
Zn1084 O1097 1.970 . S
Zn1084 O1113 1.981 1_655 S
Zn1084 O1115 1.945 . S
H1085 O1083 0.841 . S
Zn1086 O1087 1.933 . S
Zn1086 O1099 1.985 . S
Zn1086 O1107 1.955 . S
O1087 Zn1086 1.933 . S
O1087 H1088 0.841 . S
O1087 Zn1089 1.911 . S
H1088 O1087 0.841 . S
Zn1089 O1087 1.911 . S
Zn1089 O1100 1.970 . S
Zn1089 O1110 1.981 . S
Zn1089 O1118 1.945 . S
C1090 O1091 1.246 . S
C1090 O1107 1.276 . S
O1091 C1090 1.246 . S
O1092 Zn1072 1.985 . S
O1092 C1102 1.245 . S
O1093 Zn1073 1.970 . S
O1093 C1102 1.263 . S
O1094 Zn1079 1.985 . S
O1094 C1106 1.245 . S
O1095 Zn1078 1.970 . S
O1095 C1106 1.263 . S
O1096 Zn1082 1.985 . S
O1096 C1111 1.245 . S
O1097 Zn1084 1.970 . S
O1097 C1111 1.263 . S
C1098 O1109 1.262 1_455 S
C1098 O1110 1.245 . S
O1099 Zn1086 1.985 . S
O1099 C1117 1.245 . S
O1100 Zn1089 1.970 . S
O1100 C1117 1.263 . S
O1101 Zn1079 1.955 . S
O1101 C1120 1.276 . S
C1102 O1092 1.245 . S
C1102 O1093 1.263 . S
O1103 Zn1072 1.955 1_455 S
O1103 C1122 1.276 . S
C1104 O1112 1.262 . S
C1104 O1113 1.245 . S
O1105 C1076 1.276 . S
O1105 Zn1082 1.955 . S
C1106 O1094 1.245 . S
C1106 O1095 1.263 . S
O1107 Zn1086 1.955 . S
O1107 C1090 1.276 . S
C1108 O1115 1.262 . S
C1108 O1116 1.245 . S
O1109 Zn1073 1.945 . S
O1109 C1098 1.262 1_655 S
O1110 Zn1089 1.981 . S
O1110 C1098 1.245 . S
C1111 O1096 1.245 . S
C1111 O1097 1.263 . S
O1112 Zn1078 1.945 . S
O1112 C1104 1.262 . S
O1113 Zn1084 1.981 1_455 S
O1113 C1104 1.245 . S
C1114 O1118 1.262 . S
C1114 O1119 1.245 . S
O1115 Zn1084 1.945 . S
O1115 C1108 1.262 . S
O1116 Zn1073 1.981 . S
O1116 C1108 1.245 . S
C1117 O1099 1.245 . S
C1117 O1100 1.263 . S
O1118 Zn1089 1.945 . S
O1118 C1114 1.262 . S
O1119 Zn1078 1.981 . S
O1119 C1114 1.245 . S
C1120 O1101 1.276 . S
C1120 O1121 1.246 . S
O1121 C1120 1.246 . S
C1122 O1103 1.276 . S
C1122 O1123 1.246 . S
O1123 C1122 1.246 . S
Zn1124 O1126 1.933 1_565 S
Zn1124 O1144 1.985 . S
Zn1124 O1155 1.955 . S
Zn1125 O1126 1.911 . S
Zn1125 O1145 1.970 . S
Zn1125 O1161 1.945 . S
Zn1125 O1168 1.981 . S
O1126 Zn1124 1.933 1_545 S
O1126 Zn1125 1.911 . S
O1126 H1127 0.841 . S
H1127 O1126 0.841 . S
C1128 O1129 1.246 . S
C1128 O1157 1.276 . S
O1129 C1128 1.246 . S
Zn1130 O1132 1.911 . S
Zn1130 O1147 1.970 . S
Zn1130 O1164 1.945 . S
Zn1130 O1171 1.981 . S
Zn1131 O1132 1.933 1_565 S
Zn1131 O1146 1.985 1_565 S
Zn1131 O1153 1.955 . S
O1132 Zn1130 1.911 . S
O1132 Zn1131 1.933 1_545 S
O1132 H1133 0.841 . S
H1133 O1132 0.841 . S
Zn1134 O1135 1.933 1_565 S
Zn1134 O1148 1.985 . S
Zn1134 O1157 1.955 . S
O1135 Zn1134 1.933 1_545 S
O1135 Zn1136 1.911 . S
O1135 H1137 0.841 . S
Zn1136 O1135 1.911 . S
Zn1136 O1149 1.970 . S
Zn1136 O1165 1.981 . S
Zn1136 O1167 1.945 . S
H1137 O1135 0.841 . S
Zn1138 O1139 1.933 1_565 S
Zn1138 O1151 1.985 1_565 S
Zn1138 O1159 1.955 . S
O1139 Zn1138 1.933 1_545 S
O1139 H1140 0.841 . S
O1139 Zn1141 1.911 . S
H1140 O1139 0.841 . S
Zn1141 O1139 1.911 . S
Zn1141 O1152 1.970 . S
Zn1141 O1162 1.981 . S
Zn1141 O1170 1.945 . S
C1142 O1143 1.246 . S
C1142 O1159 1.276 . S
O1143 C1142 1.246 . S
O1144 Zn1124 1.985 . S
O1144 C1154 1.245 1_565 S
O1145 Zn1125 1.970 . S
O1145 C1154 1.263 . S
O1146 Zn1131 1.985 1_545 S
O1146 C1158 1.245 . S
O1147 Zn1130 1.970 . S
O1147 C1158 1.263 . S
O1148 Zn1134 1.985 . S
O1148 C1163 1.245 1_565 S
O1149 Zn1136 1.970 . S
O1149 C1163 1.263 . S
C1150 O1161 1.262 . S
C1150 O1162 1.245 . S
O1151 Zn1138 1.985 1_545 S
O1151 C1169 1.245 . S
O1152 Zn1141 1.970 . S
O1152 C1169 1.263 . S
O1153 Zn1131 1.955 . S
O1153 C1172 1.276 . S
C1154 O1144 1.245 1_545 S
C1154 O1145 1.263 . S
O1155 Zn1124 1.955 . S
O1155 C1174 1.276 . S
C1156 O1164 1.262 . S
C1156 O1165 1.245 . S
O1157 C1128 1.276 . S
O1157 Zn1134 1.955 . S
C1158 O1146 1.245 . S
C1158 O1147 1.263 . S
O1159 Zn1138 1.955 . S
O1159 C1142 1.276 . S
C1160 O1167 1.262 . S
C1160 O1168 1.245 . S
O1161 Zn1125 1.945 . S
O1161 C1150 1.262 . S
O1162 Zn1141 1.981 . S
O1162 C1150 1.245 . S
C1163 O1148 1.245 1_545 S
C1163 O1149 1.263 . S
O1164 Zn1130 1.945 . S
O1164 C1156 1.262 . S
O1165 Zn1136 1.981 . S
O1165 C1156 1.245 . S
C1166 O1170 1.262 . S
C1166 O1171 1.245 . S
O1167 Zn1136 1.945 . S
O1167 C1160 1.262 . S
O1168 Zn1125 1.981 . S
O1168 C1160 1.245 . S
C1169 O1151 1.245 . S
C1169 O1152 1.263 . S
O1170 Zn1141 1.945 . S
O1170 C1166 1.262 . S
O1171 Zn1130 1.981 . S
O1171 C1166 1.245 . S
C1172 O1153 1.276 . S
C1172 O1173 1.246 . S
O1173 C1172 1.246 . S
C1174 O1155 1.276 . S
C1174 O1175 1.246 . S
O1175 C1174 1.246 . S
H1176 C1182 0.930 . S
H1177 C1185 0.930 . S
H1178 C1186 0.930 . S
H1179 C1187 0.930 . S
H1180 C1190 0.930 . S
H1181 C1191 0.930 . S
C1182 H1176 0.930 . S
C1182 C1183 1.355 . S
C1182 C1184 1.415 . S
C1183 C1182 1.355 . S
C1183 C1185 1.419 . S
C1184 C1182 1.415 . S
C1184 C1189 1.425 . S
C1184 C1191 1.409 . S
C1185 H1177 0.930 . S
C1185 C1183 1.419 . S
C1185 C1186 1.362 . S
C1186 H1178 0.930 . S
C1186 C1185 1.362 . S
C1186 C1189 1.409 . S
C1187 H1179 0.930 . S
C1187 C1188 1.355 . S
C1187 C1189 1.415 . S
C1188 C1187 1.355 . S
C1188 C1190 1.419 . S
C1189 C1184 1.425 . S
C1189 C1186 1.409 . S
C1189 C1187 1.415 . S
C1190 H1180 0.930 . S
C1190 C1188 1.419 . S
C1190 C1191 1.362 . S
C1191 H1181 0.930 . S
C1191 C1184 1.409 . S
C1191 C1190 1.362 . S
H1192 C1198 0.930 . S
H1193 C1201 0.930 . S
H1194 C1202 0.930 . S
H1195 C1203 0.930 . S
H1196 C1206 0.930 . S
H1197 C1207 0.930 . S
C1198 H1192 0.930 . S
C1198 C1199 1.355 . S
C1198 C1200 1.415 . S
C1199 C1198 1.355 . S
C1199 C1201 1.419 . S
C1200 C1198 1.415 . S
C1200 C1205 1.425 . S
C1200 C1207 1.409 . S
C1201 H1193 0.930 . S
C1201 C1199 1.419 . S
C1201 C1202 1.362 . S
C1202 H1194 0.930 . S
C1202 C1201 1.362 . S
C1202 C1205 1.409 . S
C1203 H1195 0.930 . S
C1203 C1204 1.355 . S
C1203 C1205 1.415 . S
C1204 C1203 1.355 . S
C1204 C1206 1.419 . S
C1205 C1200 1.425 . S
C1205 C1202 1.409 . S
C1205 C1203 1.415 . S
C1206 H1196 0.930 . S
C1206 C1204 1.419 . S
C1206 C1207 1.362 . S
C1207 H1197 0.930 . S
C1207 C1200 1.409 . S
C1207 C1206 1.362 . S
H1208 C1214 0.930 . S
H1209 C1217 0.930 . S
H1210 C1218 0.930 . S
H1211 C1219 0.930 . S
H1212 C1222 0.930 . S
H1213 C1223 0.930 . S
C1214 H1208 0.930 . S
C1214 C1215 1.355 . S
C1214 C1216 1.415 . S
C1215 C1214 1.355 . S
C1215 C1217 1.419 . S
C1216 C1214 1.415 . S
C1216 C1221 1.425 . S
C1216 C1223 1.409 . S
C1217 H1209 0.930 . S
C1217 C1215 1.419 . S
C1217 C1218 1.362 . S
C1218 H1210 0.930 . S
C1218 C1217 1.362 . S
C1218 C1221 1.409 . S
C1219 H1211 0.930 . S
C1219 C1220 1.355 . S
C1219 C1221 1.415 . S
C1220 C1219 1.355 . S
C1220 C1222 1.419 . S
C1221 C1216 1.425 . S
C1221 C1218 1.409 . S
C1221 C1219 1.415 . S
C1222 H1212 0.930 . S
C1222 C1220 1.419 . S
C1222 C1223 1.362 . S
C1223 H1213 0.930 . S
C1223 C1216 1.409 . S
C1223 C1222 1.362 . S
H1224 C1230 0.930 . S
H1225 C1233 0.930 . S
H1226 C1234 0.930 . S
H1227 C1235 0.930 . S
H1228 C1238 0.930 . S
H1229 C1239 0.930 . S
C1230 H1224 0.930 . S
C1230 C1231 1.355 . S
C1230 C1232 1.415 . S
C1231 C1230 1.355 . S
C1231 C1233 1.419 . S
C1232 C1230 1.415 . S
C1232 C1237 1.425 . S
C1232 C1239 1.409 . S
C1233 H1225 0.930 . S
C1233 C1231 1.419 . S
C1233 C1234 1.362 . S
C1234 H1226 0.930 . S
C1234 C1233 1.362 . S
C1234 C1237 1.409 . S
C1235 H1227 0.930 . S
C1235 C1236 1.355 . S
C1235 C1237 1.415 . S
C1236 C1235 1.355 . S
C1236 C1238 1.419 . S
C1237 C1232 1.425 . S
C1237 C1234 1.409 . S
C1237 C1235 1.415 . S
C1238 H1228 0.930 . S
C1238 C1236 1.419 . S
C1238 C1239 1.362 . S
C1239 H1229 0.930 . S
C1239 C1232 1.409 . S
C1239 C1238 1.362 . S
H1240 C1246 0.930 . S
H1241 C1249 0.930 . S
H1242 C1250 0.930 . S
H1243 C1251 0.930 . S
H1244 C1254 0.930 . S
H1245 C1255 0.930 . S
C1246 H1240 0.930 . S
C1246 C1247 1.355 . S
C1246 C1248 1.415 . S
C1247 C1246 1.355 . S
C1247 C1249 1.419 . S
C1248 C1246 1.415 . S
C1248 C1253 1.425 . S
C1248 C1255 1.409 . S
C1249 H1241 0.930 . S
C1249 C1247 1.419 . S
C1249 C1250 1.362 . S
C1250 H1242 0.930 . S
C1250 C1249 1.362 . S
C1250 C1253 1.409 . S
C1251 H1243 0.930 . S
C1251 C1252 1.355 . S
C1251 C1253 1.415 . S
C1252 C1251 1.355 . S
C1252 C1254 1.419 . S
C1253 C1248 1.425 . S
C1253 C1250 1.409 . S
C1253 C1251 1.415 . S
C1254 H1244 0.930 . S
C1254 C1252 1.419 . S
C1254 C1255 1.362 . S
C1255 H1245 0.930 . S
C1255 C1248 1.409 . S
C1255 C1254 1.362 . S
H1256 C1262 0.930 . S
H1257 C1265 0.930 . S
H1258 C1266 0.930 . S
H1259 C1267 0.930 . S
H1260 C1270 0.930 . S
H1261 C1271 0.930 . S
C1262 H1256 0.930 . S
C1262 C1263 1.355 . S
C1262 C1264 1.415 . S
C1263 C1262 1.355 . S
C1263 C1265 1.419 . S
C1264 C1262 1.415 . S
C1264 C1269 1.425 . S
C1264 C1271 1.409 . S
C1265 H1257 0.930 . S
C1265 C1263 1.419 . S
C1265 C1266 1.362 . S
C1266 H1258 0.930 . S
C1266 C1265 1.362 . S
C1266 C1269 1.409 . S
C1267 H1259 0.930 . S
C1267 C1268 1.355 . S
C1267 C1269 1.415 . S
C1268 C1267 1.355 . S
C1268 C1270 1.419 . S
C1269 C1264 1.425 . S
C1269 C1266 1.409 . S
C1269 C1267 1.415 . S
C1270 H1260 0.930 . S
C1270 C1268 1.419 . S
C1270 C1271 1.362 . S
C1271 H1261 0.930 . S
C1271 C1264 1.409 . S
C1271 C1270 1.362 . S
H1272 C1278 0.930 . S
H1273 C1281 0.930 . S
H1274 C1282 0.930 . S
H1275 C1283 0.930 . S
H1276 C1286 0.930 . S
H1277 C1287 0.930 . S
C1278 H1272 0.930 . S
C1278 C1279 1.355 . S
C1278 C1280 1.415 . S
C1279 C1278 1.355 . S
C1279 C1281 1.419 . S
C1280 C1278 1.415 . S
C1280 C1285 1.425 . S
C1280 C1287 1.409 . S
C1281 H1273 0.930 . S
C1281 C1279 1.419 . S
C1281 C1282 1.362 . S
C1282 H1274 0.930 . S
C1282 C1281 1.362 . S
C1282 C1285 1.409 . S
C1283 H1275 0.930 . S
C1283 C1284 1.355 . S
C1283 C1285 1.415 . S
C1284 C1283 1.355 . S
C1284 C1286 1.419 . S
C1285 C1280 1.425 . S
C1285 C1282 1.409 . S
C1285 C1283 1.415 . S
C1286 H1276 0.930 . S
C1286 C1284 1.419 . S
C1286 C1287 1.362 . S
C1287 H1277 0.930 . S
C1287 C1280 1.409 . S
C1287 C1286 1.362 . S
H1288 C1294 0.930 . S
H1289 C1297 0.930 . S
H1290 C1298 0.930 . S
H1291 C1299 0.930 . S
H1292 C1302 0.930 . S
H1293 C1303 0.930 . S
C1294 H1288 0.930 . S
C1294 C1295 1.355 . S
C1294 C1296 1.415 . S
C1295 C1294 1.355 . S
C1295 C1297 1.419 . S
C1296 C1294 1.415 . S
C1296 C1301 1.425 . S
C1296 C1303 1.409 . S
C1297 H1289 0.930 . S
C1297 C1295 1.419 . S
C1297 C1298 1.362 . S
C1298 H1290 0.930 . S
C1298 C1297 1.362 . S
C1298 C1301 1.409 . S
C1299 H1291 0.930 . S
C1299 C1300 1.355 . S
C1299 C1301 1.415 . S
C1300 C1299 1.355 . S
C1300 C1302 1.419 . S
C1301 C1296 1.425 . S
C1301 C1298 1.409 . S
C1301 C1299 1.415 . S
C1302 H1292 0.930 . S
C1302 C1300 1.419 . S
C1302 C1303 1.362 . S
C1303 H1293 0.930 . S
C1303 C1296 1.409 . S
C1303 C1302 1.362 . S
H1304 C1310 0.930 . S
H1305 C1313 0.930 . S
H1306 C1314 0.930 . S
H1307 C1315 0.930 . S
H1308 C1318 0.930 . S
H1309 C1319 0.930 . S
C1310 H1304 0.930 . S
C1310 C1311 1.355 . S
C1310 C1312 1.415 . S
C1311 C1310 1.355 . S
C1311 C1313 1.419 . S
C1312 C1310 1.415 . S
C1312 C1317 1.425 . S
C1312 C1319 1.409 . S
C1313 H1305 0.930 . S
C1313 C1311 1.419 . S
C1313 C1314 1.362 . S
C1314 H1306 0.930 . S
C1314 C1313 1.362 . S
C1314 C1317 1.409 . S
C1315 H1307 0.930 . S
C1315 C1316 1.355 . S
C1315 C1317 1.415 . S
C1316 C1315 1.355 . S
C1316 C1318 1.419 . S
C1317 C1312 1.425 . S
C1317 C1314 1.409 . S
C1317 C1315 1.415 . S
C1318 H1308 0.930 . S
C1318 C1316 1.419 . S
C1318 C1319 1.362 . S
C1319 H1309 0.930 . S
C1319 C1312 1.409 . S
C1319 C1318 1.362 . S
H1320 C1326 0.930 . S
H1321 C1329 0.930 . S
H1322 C1330 0.930 . S
H1323 C1331 0.930 . S
H1324 C1334 0.930 . S
H1325 C1335 0.930 . S
C1326 H1320 0.930 . S
C1326 C1327 1.355 . S
C1326 C1328 1.415 . S
C1327 C1326 1.355 . S
C1327 C1329 1.419 . S
C1328 C1326 1.415 . S
C1328 C1333 1.425 . S
C1328 C1335 1.409 . S
C1329 H1321 0.930 . S
C1329 C1327 1.419 . S
C1329 C1330 1.362 . S
C1330 H1322 0.930 . S
C1330 C1329 1.362 . S
C1330 C1333 1.409 . S
C1331 H1323 0.930 . S
C1331 C1332 1.355 . S
C1331 C1333 1.415 . S
C1332 C1331 1.355 . S
C1332 C1334 1.419 . S
C1333 C1328 1.425 . S
C1333 C1330 1.409 . S
C1333 C1331 1.415 . S
C1334 H1324 0.930 . S
C1334 C1332 1.419 . S
C1334 C1335 1.362 . S
C1335 H1325 0.930 . S
C1335 C1328 1.409 . S
C1335 C1334 1.362 . S
H1336 C1342 0.930 . S
H1337 C1345 0.930 . S
H1338 C1346 0.930 . S
H1339 C1347 0.930 . S
H1340 C1350 0.930 . S
H1341 C1351 0.930 . S
C1342 H1336 0.930 . S
C1342 C1343 1.355 . S
C1342 C1344 1.415 . S
C1343 C1342 1.355 . S
C1343 C1345 1.419 . S
C1344 C1342 1.415 . S
C1344 C1349 1.425 . S
C1344 C1351 1.409 . S
C1345 H1337 0.930 . S
C1345 C1343 1.419 . S
C1345 C1346 1.362 . S
C1346 H1338 0.930 . S
C1346 C1345 1.362 . S
C1346 C1349 1.409 . S
C1347 H1339 0.930 . S
C1347 C1348 1.355 . S
C1347 C1349 1.415 . S
C1348 C1347 1.355 . S
C1348 C1350 1.419 . S
C1349 C1344 1.425 . S
C1349 C1346 1.409 . S
C1349 C1347 1.415 . S
C1350 H1340 0.930 . S
C1350 C1348 1.419 . S
C1350 C1351 1.362 . S
C1351 H1341 0.930 . S
C1351 C1344 1.409 . S
C1351 C1350 1.362 . S
H1352 C1358 0.930 . S
H1353 C1361 0.930 . S
H1354 C1362 0.930 . S
H1355 C1363 0.930 . S
H1356 C1366 0.930 . S
H1357 C1367 0.930 . S
C1358 H1352 0.930 . S
C1358 C1359 1.355 . S
C1358 C1360 1.415 . S
C1359 C1358 1.355 . S
C1359 C1361 1.419 . S
C1360 C1358 1.415 . S
C1360 C1365 1.425 . S
C1360 C1367 1.409 . S
C1361 H1353 0.930 . S
C1361 C1359 1.419 . S
C1361 C1362 1.362 . S
C1362 H1354 0.930 . S
C1362 C1361 1.362 . S
C1362 C1365 1.409 . S
C1363 H1355 0.930 . S
C1363 C1364 1.355 . S
C1363 C1365 1.415 . S
C1364 C1363 1.355 . S
C1364 C1366 1.419 . S
C1365 C1360 1.425 . S
C1365 C1362 1.409 . S
C1365 C1363 1.415 . S
C1366 H1356 0.930 . S
C1366 C1364 1.419 . S
C1366 C1367 1.362 . S
C1367 H1357 0.930 . S
C1367 C1360 1.409 . S
C1367 C1366 1.362 . S
H1368 C1374 0.929 . S
H1369 C1377 0.930 . S
H1370 C1378 0.930 . S
H1371 C1379 0.930 . S
H1372 C1382 0.930 . S
H1373 C1383 0.930 1_556 S
C1374 H1368 0.929 . S
C1374 C1375 1.355 . S
C1374 C1376 1.415 . S
C1375 C1374 1.355 . S
C1375 C1377 1.419 . S
C1376 C1374 1.415 . S
C1376 C1381 1.425 . S
C1376 C1383 1.409 . S
C1377 H1369 0.930 . S
C1377 C1375 1.419 . S
C1377 C1378 1.362 . S
C1378 H1370 0.930 . S
C1378 C1377 1.362 . S
C1378 C1381 1.409 . S
C1379 H1371 0.930 . S
C1379 C1380 1.355 . S
C1379 C1381 1.415 . S
C1380 C1379 1.355 . S
C1380 C1382 1.419 . S
C1381 C1376 1.425 . S
C1381 C1378 1.409 . S
C1381 C1379 1.415 . S
C1382 H1372 0.930 . S
C1382 C1380 1.419 . S
C1382 C1383 1.362 . S
C1383 H1373 0.930 1_554 S
C1383 C1376 1.409 . S
C1383 C1382 1.362 . S
H1384 C1390 0.930 . S
H1385 C1393 0.930 . S
H1386 C1394 0.930 . S
H1387 C1395 0.930 . S
H1388 C1398 0.930 1_556 S
H1389 C1399 0.930 1_556 S
C1390 H1384 0.930 . S
C1390 C1391 1.355 . S
C1390 C1392 1.415 . S
C1391 C1390 1.355 . S
C1391 C1393 1.419 . S
C1392 C1390 1.415 . S
C1392 C1397 1.425 . S
C1392 C1399 1.409 . S
C1393 H1385 0.930 . S
C1393 C1391 1.419 . S
C1393 C1394 1.362 . S
C1394 H1386 0.930 . S
C1394 C1393 1.362 . S
C1394 C1397 1.409 . S
C1395 H1387 0.930 . S
C1395 C1396 1.355 . S
C1395 C1397 1.415 . S
C1396 C1395 1.355 . S
C1396 C1398 1.419 . S
C1397 C1392 1.425 . S
C1397 C1394 1.409 . S
C1397 C1395 1.415 . S
C1398 H1388 0.930 1_554 S
C1398 C1396 1.419 . S
C1398 C1399 1.362 . S
C1399 H1389 0.930 1_554 S
C1399 C1392 1.409 . S
C1399 C1398 1.362 . S
H1400 C1406 0.930 . S
H1401 C1409 0.930 1_556 S
H1402 C1410 0.925 1_556 S
H1403 C1411 0.930 1_556 S
H1404 C1414 0.930 . S
H1405 C1415 0.930 . S
C1406 H1400 0.930 . S
C1406 C1407 1.355 . S
C1406 C1408 1.415 . S
C1407 C1406 1.355 . S
C1407 C1409 1.419 . S
C1408 C1406 1.415 . S
C1408 C1413 1.425 . S
C1408 C1415 1.409 . S
C1409 H1401 0.930 1_554 S
C1409 C1407 1.419 . S
C1409 C1410 1.364 . S
C1410 H1402 0.925 1_554 S
C1410 C1409 1.364 . S
C1410 C1413 1.412 . S
C1411 H1403 0.930 1_554 S
C1411 C1412 1.355 . S
C1411 C1413 1.415 . S
C1412 C1411 1.355 . S
C1412 C1414 1.419 . S
C1413 C1408 1.425 . S
C1413 C1410 1.412 . S
C1413 C1411 1.415 . S
C1414 H1404 0.930 . S
C1414 C1412 1.419 . S
C1414 C1415 1.362 . S
C1415 H1405 0.930 . S
C1415 C1408 1.409 . S
C1415 C1414 1.362 . S
H1416 C1422 0.930 . S
H1417 C1425 0.930 . S
H1418 C1426 0.930 . S
H1419 C1427 0.930 . S
H1420 C1430 0.930 . S
H1421 C1431 0.930 . S
C1422 H1416 0.930 . S
C1422 C1423 1.355 . S
C1422 C1424 1.415 . S
C1423 C1422 1.355 . S
C1423 C1425 1.419 . S
C1424 C1422 1.415 . S
C1424 C1429 1.425 . S
C1424 C1431 1.409 . S
C1425 H1417 0.930 . S
C1425 C1423 1.419 . S
C1425 C1426 1.362 . S
C1426 H1418 0.930 . S
C1426 C1425 1.362 . S
C1426 C1429 1.409 . S
C1427 H1419 0.930 . S
C1427 C1428 1.355 . S
C1427 C1429 1.415 . S
C1428 C1427 1.355 . S
C1428 C1430 1.419 . S
C1429 C1424 1.425 . S
C1429 C1426 1.409 . S
C1429 C1427 1.415 . S
C1430 H1420 0.930 . S
C1430 C1428 1.419 . S
C1430 C1431 1.362 . S
C1431 H1421 0.930 . S
C1431 C1424 1.409 . S
C1431 C1430 1.362 . S
H1432 C1438 0.930 . S
H1433 C1441 0.930 . S
H1434 C1442 0.930 . S
H1435 C1443 0.941 . S
H1436 C1446 0.930 . S
H1437 C1447 0.930 . S
C1438 H1432 0.930 . S
C1438 C1439 1.355 1_455 S
C1438 C1440 1.415 . S
C1439 C1438 1.355 1_655 S
C1439 C1441 1.419 . S
C1440 C1438 1.415 . S
C1440 C1445 1.425 1_455 S
C1440 C1447 1.409 . S
C1441 H1433 0.930 . S
C1441 C1439 1.419 . S
C1441 C1442 1.362 . S
C1442 H1434 0.930 . S
C1442 C1441 1.362 . S
C1442 C1445 1.409 . S
C1443 H1435 0.941 . S
C1443 C1444 1.343 1_655 S
C1443 C1445 1.415 . S
C1444 C1443 1.343 1_455 S
C1444 C1446 1.419 . S
C1445 C1440 1.425 1_655 S
C1445 C1442 1.409 . S
C1445 C1443 1.415 . S
C1446 H1436 0.930 . S
C1446 C1444 1.419 . S
C1446 C1447 1.362 . S
C1447 H1437 0.930 . S
C1447 C1440 1.409 . S
C1447 C1446 1.362 . S
H1448 C1454 0.930 . S
H1449 C1457 0.930 . S
H1450 C1458 0.930 . S
H1451 C1459 0.930 . S
H1452 C1462 0.930 . S
H1453 C1463 0.930 . S
C1454 H1448 0.930 . S
C1454 C1455 1.355 1_565 S
C1454 C1456 1.421 . S
C1455 C1454 1.355 1_545 S
C1455 C1457 1.419 . S
C1456 C1454 1.421 . S
C1456 C1461 1.406 1_565 S
C1456 C1463 1.421 . S
C1457 H1449 0.930 . S
C1457 C1455 1.419 . S
C1457 C1458 1.362 . S
C1458 H1450 0.930 . S
C1458 C1457 1.362 . S
C1458 C1461 1.409 . S
C1459 H1451 0.930 . S
C1459 C1460 1.355 . S
C1459 C1461 1.415 . S
C1460 C1459 1.355 . S
C1460 C1462 1.419 1_545 S
C1461 C1456 1.406 1_545 S
C1461 C1458 1.409 . S
C1461 C1459 1.415 . S
C1462 H1452 0.930 . S
C1462 C1460 1.419 1_565 S
C1462 C1463 1.362 . S
C1463 H1453 0.930 . S
C1463 C1456 1.421 . S
C1463 C1462 1.362 . S
H1464 C1470 0.930 . S
H1465 C1473 0.930 . S
H1466 C1474 0.930 . S
H1467 C1475 0.948 . S
H1468 C1478 0.930 . S
H1469 C1479 0.930 . S
C1470 H1464 0.930 . S
C1470 C1471 1.355 . S
C1470 C1472 1.415 . S
C1471 C1470 1.355 . S
C1471 C1473 1.419 1_455 S
C1472 C1470 1.415 . S
C1472 C1477 1.425 . S
C1472 C1479 1.409 . S
C1473 H1465 0.930 . S
C1473 C1471 1.419 1_655 S
C1473 C1474 1.362 . S
C1474 H1466 0.930 . S
C1474 C1473 1.362 . S
C1474 C1477 1.409 1_655 S
C1475 H1467 0.948 . S
C1475 C1476 1.341 1_655 S
C1475 C1477 1.410 1_655 S
C1476 C1475 1.341 1_455 S
C1476 C1478 1.419 . S
C1477 C1472 1.425 . S
C1477 C1474 1.409 1_455 S
C1477 C1475 1.410 1_455 S
C1478 H1468 0.930 . S
C1478 C1476 1.419 . S
C1478 C1479 1.362 . S
C1479 H1469 0.930 . S
C1479 C1472 1.409 . S
C1479 C1478 1.362 . S
H1480 C1486 0.930 . S
H1481 C1489 0.930 . S
H1482 C1490 0.930 1_565 S
H1483 C1491 0.961 . S
H1484 C1494 0.930 . S
H1485 C1495 0.930 . S
C1486 H1480 0.930 . S
C1486 C1487 1.355 . S
C1486 C1488 1.415 . S
C1487 C1486 1.355 . S
C1487 C1489 1.419 . S
C1488 C1486 1.415 . S
C1488 C1493 1.425 . S
C1488 C1495 1.409 . S
C1489 H1481 0.930 . S
C1489 C1487 1.419 . S
C1489 C1490 1.362 . S
C1490 H1482 0.930 1_545 S
C1490 C1489 1.362 . S
C1490 C1493 1.409 . S
C1491 H1483 0.961 . S
C1491 C1492 1.355 . S
C1491 C1493 1.415 . S
C1492 C1491 1.355 . S
C1492 C1494 1.419 . S
C1493 C1488 1.425 . S
C1493 C1490 1.409 . S
C1493 C1491 1.415 . S
C1494 H1484 0.930 . S
C1494 C1492 1.419 . S
C1494 C1495 1.362 . S
C1495 H1485 0.930 . S
C1495 C1488 1.409 . S
C1495 C1494 1.362 . S
H1496 C1502 0.930 . S
H1497 C1505 0.930 1_655 S
H1498 C1506 0.930 1_655 S
H1499 C1507 0.923 1_655 S
H1500 C1510 0.930 . S
H1501 C1511 0.930 . S
C1502 H1496 0.930 . S
C1502 C1503 1.355 . S
C1502 C1504 1.415 . S
C1503 C1502 1.355 . S
C1503 C1505 1.419 . S
C1504 C1502 1.415 . S
C1504 C1509 1.425 . S
C1504 C1511 1.409 . S
C1505 H1497 0.930 1_455 S
C1505 C1503 1.419 . S
C1505 C1506 1.362 . S
C1506 H1498 0.930 1_455 S
C1506 C1505 1.362 . S
C1506 C1509 1.409 . S
C1507 H1499 0.923 1_455 S
C1507 C1508 1.355 . S
C1507 C1509 1.415 . S
C1508 C1507 1.355 . S
C1508 C1510 1.419 . S
C1509 C1504 1.425 . S
C1509 C1506 1.409 . S
C1509 C1507 1.415 . S
C1510 H1500 0.930 . S
C1510 C1508 1.419 . S
C1510 C1511 1.362 . S
C1511 H1501 0.930 . S
C1511 C1504 1.409 . S
C1511 C1510 1.362 . S
H1512 C1518 0.930 . S
H1513 C1521 0.930 . S
H1514 C1522 0.930 . S
H1515 C1523 0.930 . S
H1516 C1526 0.930 1_565 S
H1517 C1527 0.930 1_565 S
C1518 H1512 0.930 . S
C1518 C1519 1.355 . S
C1518 C1520 1.415 . S
C1519 C1518 1.355 . S
C1519 C1521 1.419 . S
C1520 C1518 1.415 . S
C1520 C1525 1.425 . S
C1520 C1527 1.409 . S
C1521 H1513 0.930 . S
C1521 C1519 1.419 . S
C1521 C1522 1.362 . S
C1522 H1514 0.930 . S
C1522 C1521 1.362 . S
C1522 C1525 1.409 . S
C1523 H1515 0.930 . S
C1523 C1524 1.355 . S
C1523 C1525 1.415 . S
C1524 C1523 1.355 . S
C1524 C1526 1.419 . S
C1525 C1520 1.425 . S
C1525 C1522 1.409 . S
C1525 C1523 1.415 . S
C1526 H1516 0.930 1_545 S
C1526 C1524 1.419 . S
C1526 C1527 1.362 . S
C1527 H1517 0.930 1_545 S
C1527 C1520 1.409 . S
C1527 C1526 1.362 . S
H1528 C1534 0.930 . S
H1529 C1537 0.925 1_655 S
H1530 C1538 0.930 . S
H1531 C1539 0.930 1_655 S
H1532 C1542 0.930 . S
H1533 C1543 0.930 . S
C1534 H1528 0.930 . S
C1534 C1535 1.355 . S
C1534 C1536 1.415 . S
C1535 C1534 1.355 . S
C1535 C1537 1.425 . S
C1536 C1534 1.415 . S
C1536 C1541 1.425 . S
C1536 C1543 1.409 . S
C1537 H1529 0.925 1_455 S
C1537 C1535 1.425 . S
C1537 C1538 1.361 1_455 S
C1538 H1530 0.930 . S
C1538 C1537 1.361 1_655 S
C1538 C1541 1.409 1_655 S
C1539 H1531 0.930 1_455 S
C1539 C1540 1.355 . S
C1539 C1541 1.415 . S
C1540 C1539 1.355 . S
C1540 C1542 1.419 . S
C1541 C1536 1.425 . S
C1541 C1538 1.409 1_455 S
C1541 C1539 1.415 . S
C1542 H1532 0.930 . S
C1542 C1540 1.419 . S
C1542 C1543 1.362 . S
C1543 H1533 0.930 . S
C1543 C1536 1.409 . S
C1543 C1542 1.362 . S
H1544 C1550 0.930 . S
H1545 C1553 0.930 . S
H1546 C1554 0.938 . S
H1547 C1555 0.930 . S
H1548 C1558 0.930 . S
H1549 C1559 0.930 . S
C1550 H1544 0.930 . S
C1550 C1551 1.355 . S
C1550 C1552 1.415 . S
C1551 C1550 1.355 . S
C1551 C1553 1.419 1_545 S
C1552 C1550 1.415 . S
C1552 C1557 1.425 . S
C1552 C1559 1.409 . S
C1553 H1545 0.930 . S
C1553 C1551 1.419 1_565 S
C1553 C1554 1.365 . S
C1554 H1546 0.938 . S
C1554 C1553 1.365 . S
C1554 C1557 1.399 1_565 S
C1555 H1547 0.930 . S
C1555 C1556 1.355 . S
C1555 C1557 1.415 . S
C1556 C1555 1.355 . S
C1556 C1558 1.419 . S
C1557 C1552 1.425 . S
C1557 C1554 1.399 1_545 S
C1557 C1555 1.415 . S
C1558 H1548 0.930 . S
C1558 C1556 1.419 . S
C1558 C1559 1.362 . S
C1559 H1549 0.930 . S
C1559 C1552 1.409 . S
C1559 C1558 1.362 . S
H1560 C1566 0.930 . S
H1561 C1569 0.930 . S
H1562 C1570 0.930 1_655 S
H1563 C1571 0.930 . S
H1564 C1574 0.930 . S
H1565 C1575 0.930 . S
C1566 H1560 0.930 . S
C1566 C1567 1.355 . S
C1566 C1568 1.415 . S
C1567 C1566 1.355 . S
C1567 C1569 1.419 . S
C1568 C1566 1.415 . S
C1568 C1573 1.425 . S
C1568 C1575 1.409 . S
C1569 H1561 0.930 . S
C1569 C1567 1.419 . S
C1569 C1570 1.362 . S
C1570 H1562 0.930 1_455 S
C1570 C1569 1.362 . S
C1570 C1573 1.409 . S
C1571 H1563 0.930 . S
C1571 C1572 1.355 . S
C1571 C1573 1.415 . S
C1572 C1571 1.355 . S
C1572 C1574 1.419 . S
C1573 C1568 1.425 . S
C1573 C1570 1.409 . S
C1573 C1571 1.415 . S
C1574 H1564 0.930 . S
C1574 C1572 1.419 . S
C1574 C1575 1.362 . S
C1575 H1565 0.930 . S
C1575 C1568 1.409 . S
C1575 C1574 1.362 . S
H1576 C1582 0.930 . S
H1577 C1585 0.930 . S
H1578 C1586 0.930 . S
H1579 C1587 0.930 . S
H1580 C1590 0.930 1_565 S
H1581 C1591 0.910 1_565 S
C1582 H1576 0.930 . S
C1582 C1583 1.355 . S
C1582 C1584 1.415 . S
C1583 C1582 1.355 . S
C1583 C1585 1.419 . S
C1584 C1582 1.415 . S
C1584 C1589 1.425 . S
C1584 C1591 1.428 . S
C1585 H1577 0.930 . S
C1585 C1583 1.419 . S
C1585 C1586 1.362 . S
C1586 H1578 0.930 . S
C1586 C1585 1.362 . S
C1586 C1589 1.409 . S
C1587 H1579 0.930 . S
C1587 C1588 1.355 . S
C1587 C1589 1.415 . S
C1588 C1587 1.355 . S
C1588 C1590 1.419 . S
C1589 C1584 1.425 . S
C1589 C1586 1.409 . S
C1589 C1587 1.415 . S
C1590 H1580 0.930 1_545 S
C1590 C1588 1.419 . S
C1590 C1591 1.364 . S
C1591 H1581 0.910 1_545 S
C1591 C1584 1.428 . S
C1591 C1590 1.364 . S
H1592 C1598 0.930 . S
H1593 C1601 0.930 . S
H1594 C1602 0.930 . S
H1595 C1603 0.930 1_655 S
H1596 C1606 0.930 . S
H1597 C1607 0.930 . S
C1598 H1592 0.930 . S
C1598 C1599 1.355 . S
C1598 C1600 1.415 . S
C1599 C1598 1.355 . S
C1599 C1601 1.419 1_455 S
C1600 C1598 1.415 . S
C1600 C1605 1.425 . S
C1600 C1607 1.409 . S
C1601 H1593 0.930 . S
C1601 C1599 1.419 1_655 S
C1601 C1602 1.362 . S
C1602 H1594 0.930 . S
C1602 C1601 1.362 . S
C1602 C1605 1.409 1_655 S
C1603 H1595 0.930 1_455 S
C1603 C1604 1.355 . S
C1603 C1605 1.415 . S
C1604 C1603 1.355 . S
C1604 C1606 1.419 . S
C1605 C1600 1.425 . S
C1605 C1602 1.409 1_455 S
C1605 C1603 1.415 . S
C1606 H1596 0.930 . S
C1606 C1604 1.419 . S
C1606 C1607 1.362 . S
C1607 H1597 0.930 . S
C1607 C1600 1.409 . S
C1607 C1606 1.362 . S
H1608 C1614 0.948 . S
H1609 C1617 0.930 . S
H1610 C1618 0.930 . S
H1611 C1619 0.930 . S
H1612 C1622 0.927 1_565 S
H1613 C1623 0.930 . S
C1614 H1608 0.948 . S
C1614 C1615 1.344 1_565 S
C1614 C1616 1.409 1_565 S
C1615 C1614 1.344 1_545 S
C1615 C1617 1.419 . S
C1616 C1614 1.409 1_545 S
C1616 C1621 1.425 . S
C1616 C1623 1.409 1_545 S
C1617 H1609 0.930 . S
C1617 C1615 1.419 . S
C1617 C1618 1.362 . S
C1618 H1610 0.930 . S
C1618 C1617 1.362 . S
C1618 C1621 1.409 . S
C1619 H1611 0.930 . S
C1619 C1620 1.355 . S
C1619 C1621 1.415 . S
C1620 C1619 1.355 . S
C1620 C1622 1.424 . S
C1621 C1616 1.425 . S
C1621 C1618 1.409 . S
C1621 C1619 1.415 . S
C1622 H1612 0.927 1_545 S
C1622 C1620 1.424 . S
C1622 C1623 1.361 1_545 S
C1623 H1613 0.930 . S
C1623 C1616 1.409 1_565 S
C1623 C1622 1.361 1_565 S
H1624 C1630 0.930 . S
H1625 C1633 0.930 . S
H1626 C1634 0.930 . S
H1627 C1635 0.930 . S
H1628 C1638 0.930 . S
H1629 C1639 0.930 . S
C1630 H1624 0.930 . S
C1630 C1631 1.355 1_455 S
C1630 C1632 1.415 . S
C1631 C1630 1.355 1_655 S
C1631 C1633 1.418 . S
C1632 C1630 1.415 . S
C1632 C1637 1.425 1_455 S
C1632 C1639 1.409 . S
C1633 H1625 0.930 . S
C1633 C1631 1.418 . S
C1633 C1634 1.362 . S
C1634 H1626 0.930 . S
C1634 C1633 1.362 . S
C1634 C1637 1.409 . S
C1635 H1627 0.930 . S
C1635 C1636 1.355 1_655 S
C1635 C1637 1.415 . S
C1636 C1635 1.355 1_455 S
C1636 C1638 1.419 . S
C1637 C1632 1.425 1_655 S
C1637 C1634 1.409 . S
C1637 C1635 1.415 . S
C1638 H1628 0.930 . S
C1638 C1636 1.419 . S
C1638 C1639 1.362 . S
C1639 H1629 0.930 . S
C1639 C1632 1.409 . S
C1639 C1638 1.362 . S
H1640 C1646 0.930 . S
H1641 C1649 0.931 1_565 S
H1642 C1650 0.930 . S
H1643 C1651 0.930 . S
H1644 C1654 0.930 . S
H1645 C1655 0.930 . S
C1646 H1640 0.930 . S
C1646 C1647 1.355 . S
C1646 C1648 1.415 . S
C1647 C1646 1.355 . S
C1647 C1649 1.419 . S
C1648 C1646 1.415 . S
C1648 C1653 1.425 . S
C1648 C1655 1.409 . S
C1649 H1641 0.931 1_545 S
C1649 C1647 1.419 . S
C1649 C1650 1.362 . S
C1650 H1642 0.930 . S
C1650 C1649 1.362 . S
C1650 C1653 1.409 . S
C1651 H1643 0.930 . S
C1651 C1652 1.355 . S
C1651 C1653 1.415 . S
C1652 C1651 1.355 . S
C1652 C1654 1.419 . S
C1653 C1648 1.425 . S
C1653 C1650 1.409 . S
C1653 C1651 1.415 . S
C1654 H1644 0.930 . S
C1654 C1652 1.419 . S
C1654 C1655 1.362 . S
C1655 H1645 0.930 . S
C1655 C1648 1.409 . S
C1655 C1654 1.362 . S
H1656 C1662 0.930 . S
H1657 C1665 0.930 . S
H1658 C1666 0.930 . S
H1659 C1667 0.896 1_655 S
H1660 C1670 0.930 . S
H1661 C1671 0.930 . S
C1662 H1656 0.930 . S
C1662 C1663 1.355 . S
C1662 C1664 1.415 . S
C1663 C1662 1.355 . S
C1663 C1665 1.419 1_455 S
C1664 C1662 1.415 . S
C1664 C1669 1.425 . S
C1664 C1671 1.409 . S
C1665 H1657 0.930 . S
C1665 C1663 1.419 1_655 S
C1665 C1666 1.362 . S
C1666 H1658 0.930 . S
C1666 C1665 1.362 . S
C1666 C1669 1.409 1_655 S
C1667 H1659 0.896 1_455 S
C1667 C1668 1.381 . S
C1667 C1669 1.422 . S
C1668 C1667 1.381 . S
C1668 C1670 1.419 . S
C1669 C1664 1.425 . S
C1669 C1666 1.409 1_455 S
C1669 C1667 1.422 . S
C1670 H1660 0.930 . S
C1670 C1668 1.419 . S
C1670 C1671 1.362 . S
C1671 H1661 0.930 . S
C1671 C1664 1.409 . S
C1671 C1670 1.362 . S
H1672 C1678 0.930 . S
H1673 C1681 0.930 . S
H1674 C1682 0.930 . S
H1675 C1683 0.930 . S
H1676 C1686 0.930 . S
H1677 C1687 0.930 . S
C1678 H1672 0.930 . S
C1678 C1679 1.355 . S
C1678 C1680 1.415 . S
C1679 C1678 1.355 . S
C1679 C1681 1.419 . S
C1680 C1678 1.415 . S
C1680 C1685 1.425 . S
C1680 C1687 1.409 . S
C1681 H1673 0.930 . S
C1681 C1679 1.419 . S
C1681 C1682 1.362 . S
C1682 H1674 0.930 . S
C1682 C1681 1.362 . S
C1682 C1685 1.409 . S
C1683 H1675 0.930 . S
C1683 C1684 1.355 . S
C1683 C1685 1.415 . S
C1684 C1683 1.355 . S
C1684 C1686 1.419 . S
C1685 C1680 1.425 . S
C1685 C1682 1.409 . S
C1685 C1683 1.415 . S
C1686 H1676 0.930 . S
C1686 C1684 1.419 . S
C1686 C1687 1.362 . S
C1687 H1677 0.930 . S
C1687 C1680 1.409 . S
C1687 C1686 1.362 . S
H1688 C1694 0.930 . S
H1689 C1697 0.930 . S
H1690 C1698 0.930 . S
H1691 C1699 0.930 . S
H1692 C1702 0.930 . S
H1693 C1703 0.930 . S
C1694 H1688 0.930 . S
C1694 C1695 1.355 . S
C1694 C1696 1.415 . S
C1695 C1694 1.355 . S
C1695 C1697 1.419 . S
C1696 C1694 1.415 . S
C1696 C1701 1.425 . S
C1696 C1703 1.409 . S
C1697 H1689 0.930 . S
C1697 C1695 1.419 . S
C1697 C1698 1.362 . S
C1698 H1690 0.930 . S
C1698 C1697 1.362 . S
C1698 C1701 1.409 . S
C1699 H1691 0.930 . S
C1699 C1700 1.355 . S
C1699 C1701 1.415 . S
C1700 C1699 1.355 . S
C1700 C1702 1.419 . S
C1701 C1696 1.425 . S
C1701 C1698 1.409 . S
C1701 C1699 1.415 . S
C1702 H1692 0.930 . S
C1702 C1700 1.419 . S
C1702 C1703 1.362 . S
C1703 H1693 0.930 . S
C1703 C1696 1.409 . S
C1703 C1702 1.362 . S
H1704 C1710 0.930 . S
H1705 C1713 0.930 . S
H1706 C1714 0.930 . S
H1707 C1715 0.930 . S
H1708 C1718 0.930 1_655 S
H1709 C1719 0.930 1_655 S
C1710 H1704 0.930 . S
C1710 C1711 1.355 . S
C1710 C1712 1.415 . S
C1711 C1710 1.355 . S
C1711 C1713 1.419 . S
C1712 C1710 1.415 . S
C1712 C1717 1.425 . S
C1712 C1719 1.409 . S
C1713 H1705 0.930 . S
C1713 C1711 1.419 . S
C1713 C1714 1.362 . S
C1714 H1706 0.930 . S
C1714 C1713 1.362 . S
C1714 C1717 1.409 . S
C1715 H1707 0.930 . S
C1715 C1716 1.355 . S
C1715 C1717 1.415 . S
C1716 C1715 1.355 . S
C1716 C1718 1.419 . S
C1717 C1712 1.425 . S
C1717 C1714 1.409 . S
C1717 C1715 1.415 . S
C1718 H1708 0.930 1_455 S
C1718 C1716 1.419 . S
C1718 C1719 1.362 . S
C1719 H1709 0.930 1_455 S
C1719 C1712 1.409 . S
C1719 C1718 1.362 . S
H1720 C1726 0.930 . S
H1721 C1729 0.930 . S
H1722 C1730 0.930 . S
H1723 C1731 0.930 . S
H1724 C1734 0.930 . S
H1725 C1735 0.930 . S
C1726 H1720 0.930 . S
C1726 C1727 1.355 . S
C1726 C1728 1.415 . S
C1727 C1726 1.355 . S
C1727 C1729 1.419 . S
C1728 C1726 1.415 . S
C1728 C1733 1.425 . S
C1728 C1735 1.409 . S
C1729 H1721 0.930 . S
C1729 C1727 1.419 . S
C1729 C1730 1.362 . S
C1730 H1722 0.930 . S
C1730 C1729 1.362 . S
C1730 C1733 1.409 . S
C1731 H1723 0.930 . S
C1731 C1732 1.355 . S
C1731 C1733 1.415 . S
C1732 C1731 1.355 . S
C1732 C1734 1.419 . S
C1733 C1728 1.425 . S
C1733 C1730 1.409 . S
C1733 C1731 1.415 . S
C1734 H1724 0.930 . S
C1734 C1732 1.419 . S
C1734 C1735 1.362 . S
C1735 H1725 0.930 . S
C1735 C1728 1.409 . S
C1735 C1734 1.362 . S
H1736 C1742 0.930 . S
H1737 C1745 0.930 . S
H1738 C1746 0.930 . S
H1739 C1747 0.930 . S
H1740 C1750 0.930 . S
H1741 C1751 0.930 . S
C1742 H1736 0.930 . S
C1742 C1743 1.355 . S
C1742 C1744 1.415 . S
C1743 C1742 1.355 . S
C1743 C1745 1.419 . S
C1744 C1742 1.415 . S
C1744 C1749 1.425 . S
C1744 C1751 1.409 . S
C1745 H1737 0.930 . S
C1745 C1743 1.419 . S
C1745 C1746 1.362 . S
C1746 H1738 0.930 . S
C1746 C1745 1.362 . S
C1746 C1749 1.409 . S
C1747 H1739 0.930 . S
C1747 C1748 1.355 . S
C1747 C1749 1.415 . S
C1748 C1747 1.355 . S
C1748 C1750 1.419 . S
C1749 C1744 1.425 . S
C1749 C1746 1.409 . S
C1749 C1747 1.415 . S
C1750 H1740 0.930 . S
C1750 C1748 1.419 . S
C1750 C1751 1.362 . S
C1751 H1741 0.930 . S
C1751 C1744 1.409 . S
C1751 C1750 1.362 . S
H1752 C1758 0.952 . S
H1753 C1761 0.930 . S
H1754 C1762 0.930 . S
H1755 C1763 0.930 . S
H1756 C1766 0.930 . S
H1757 C1767 0.930 . S
C1758 H1752 0.952 . S
C1758 C1759 1.340 1_565 S
C1758 C1760 1.409 1_565 S
C1759 C1758 1.340 1_545 S
C1759 C1761 1.419 . S
C1760 C1758 1.409 1_545 S
C1760 C1765 1.425 . S
C1760 C1767 1.409 1_545 S
C1761 H1753 0.930 . S
C1761 C1759 1.419 . S
C1761 C1762 1.362 . S
C1762 H1754 0.930 . S
C1762 C1761 1.362 . S
C1762 C1765 1.409 . S
C1763 H1755 0.930 . S
C1763 C1764 1.355 . S
C1763 C1765 1.415 . S
C1764 C1763 1.355 . S
C1764 C1766 1.419 1_545 S
C1765 C1760 1.425 . S
C1765 C1762 1.409 . S
C1765 C1763 1.415 . S
C1766 H1756 0.930 . S
C1766 C1764 1.419 1_565 S
C1766 C1767 1.362 . S
C1767 H1757 0.930 . S
C1767 C1760 1.409 1_565 S
C1767 C1766 1.362 . S
H1768 C1774 0.930 . S
H1769 C1777 0.930 1_655 S
H1770 C1778 0.930 1_655 S
H1771 C1779 0.930 . S
H1772 C1782 0.930 . S
H1773 C1783 0.930 . S
C1774 H1768 0.930 . S
C1774 C1775 1.355 . S
C1774 C1776 1.415 . S
C1775 C1774 1.355 . S
C1775 C1777 1.419 . S
C1776 C1774 1.415 . S
C1776 C1781 1.425 . S
C1776 C1783 1.409 . S
C1777 H1769 0.930 1_455 S
C1777 C1775 1.419 . S
C1777 C1778 1.362 . S
C1778 H1770 0.930 1_455 S
C1778 C1777 1.362 . S
C1778 C1781 1.409 . S
C1779 H1771 0.930 . S
C1779 C1780 1.355 . S
C1779 C1781 1.415 . S
C1780 C1779 1.355 . S
C1780 C1782 1.419 . S
C1781 C1776 1.425 . S
C1781 C1778 1.409 . S
C1781 C1779 1.415 . S
C1782 H1772 0.930 . S
C1782 C1780 1.419 . S
C1782 C1783 1.362 . S
C1783 H1773 0.930 . S
C1783 C1776 1.409 . S
C1783 C1782 1.362 . S
H1784 C1790 0.930 . S
H1785 C1793 0.930 . S
H1786 C1794 0.930 . S
H1787 C1795 0.930 . S
H1788 C1798 0.930 . S
H1789 C1799 0.930 . S
C1790 H1784 0.930 . S
C1790 C1791 1.355 . S
C1790 C1792 1.415 . S
C1791 C1790 1.355 . S
C1791 C1793 1.419 . S
C1792 C1790 1.415 . S
C1792 C1797 1.425 . S
C1792 C1799 1.409 . S
C1793 H1785 0.930 . S
C1793 C1791 1.419 . S
C1793 C1794 1.362 . S
C1794 H1786 0.930 . S
C1794 C1793 1.362 . S
C1794 C1797 1.409 . S
C1795 H1787 0.930 . S
C1795 C1796 1.355 . S
C1795 C1797 1.415 . S
C1796 C1795 1.355 . S
C1796 C1798 1.419 . S
C1797 C1792 1.425 . S
C1797 C1794 1.409 . S
C1797 C1795 1.415 . S
C1798 H1788 0.930 . S
C1798 C1796 1.419 . S
C1798 C1799 1.362 . S
C1799 H1789 0.930 . S
C1799 C1792 1.409 . S
C1799 C1798 1.362 . S
H1800 C1806 0.930 . S
H1801 C1809 0.930 . S
H1802 C1810 0.930 . S
H1803 C1811 0.934 . S
H1804 C1814 0.930 . S
H1805 C1815 0.930 . S
C1806 H1800 0.930 . S
C1806 C1807 1.355 . S
C1806 C1808 1.415 . S
C1807 C1806 1.355 . S
C1807 C1809 1.419 1_455 S
C1808 C1806 1.415 . S
C1808 C1813 1.425 1_455 S
C1808 C1815 1.409 . S
C1809 H1801 0.930 . S
C1809 C1807 1.419 1_655 S
C1809 C1810 1.362 . S
C1810 H1802 0.930 . S
C1810 C1809 1.362 . S
C1810 C1813 1.409 . S
C1811 H1803 0.934 . S
C1811 C1812 1.351 1_655 S
C1811 C1813 1.415 . S
C1812 C1811 1.351 1_455 S
C1812 C1814 1.419 . S
C1813 C1808 1.425 1_655 S
C1813 C1810 1.409 . S
C1813 C1811 1.415 . S
C1814 H1804 0.930 . S
C1814 C1812 1.419 . S
C1814 C1815 1.362 . S
C1815 H1805 0.930 . S
C1815 C1808 1.409 . S
C1815 C1814 1.362 . S
H1816 C1822 0.930 . S
H1817 C1825 0.930 1_556 S
H1818 C1826 0.941 . S
H1819 C1827 0.930 1_556 S
H1820 C1830 0.930 . S
H1821 C1831 0.930 . S
C1822 H1816 0.930 . S
C1822 C1823 1.355 . S
C1822 C1824 1.415 . S
C1823 C1822 1.355 . S
C1823 C1825 1.419 . S
C1824 C1822 1.415 . S
C1824 C1829 1.425 . S
C1824 C1831 1.409 . S
C1825 H1817 0.930 1_554 S
C1825 C1823 1.419 . S
C1825 C1826 1.360 1_554 S
C1826 H1818 0.941 . S
C1826 C1825 1.360 1_556 S
C1826 C1829 1.401 1_556 S
C1827 H1819 0.930 1_554 S
C1827 C1828 1.355 . S
C1827 C1829 1.415 . S
C1828 C1827 1.355 . S
C1828 C1830 1.419 . S
C1829 C1824 1.425 . S
C1829 C1826 1.401 1_554 S
C1829 C1827 1.415 . S
C1830 H1820 0.930 . S
C1830 C1828 1.419 . S
C1830 C1831 1.362 . S
C1831 H1821 0.930 . S
C1831 C1824 1.409 . S
C1831 C1830 1.362 . S
H1832 C1838 0.930 1_556 S
H1833 C1841 0.930 . S
H1834 C1842 0.930 . S
H1835 C1843 0.930 . S
H1836 C1846 0.930 . S
H1837 C1847 0.930 . S
C1838 H1832 0.930 1_554 S
C1838 C1839 1.355 . S
C1838 C1840 1.415 . S
C1839 C1838 1.355 . S
C1839 C1841 1.419 . S
C1840 C1838 1.415 . S
C1840 C1845 1.425 . S
C1840 C1847 1.409 1_554 S
C1841 H1833 0.930 . S
C1841 C1839 1.419 . S
C1841 C1842 1.362 . S
C1842 H1834 0.930 . S
C1842 C1841 1.362 . S
C1842 C1845 1.409 . S
C1843 H1835 0.930 . S
C1843 C1844 1.355 . S
C1843 C1845 1.415 . S
C1844 C1843 1.355 . S
C1844 C1846 1.419 1_554 S
C1845 C1840 1.425 . S
C1845 C1842 1.409 . S
C1845 C1843 1.415 . S
C1846 H1836 0.930 . S
C1846 C1844 1.419 1_556 S
C1846 C1847 1.362 . S
C1847 H1837 0.930 . S
C1847 C1840 1.409 1_556 S
C1847 C1846 1.362 . S
H1848 C1854 0.930 . S
H1849 C1857 0.930 . S
H1850 C1858 0.930 . S
H1851 C1859 0.930 . S
H1852 C1862 0.930 . S
H1853 C1863 0.930 . S
C1854 H1848 0.930 . S
C1854 C1855 1.355 . S
C1854 C1856 1.415 . S
C1855 C1854 1.355 . S
C1855 C1857 1.419 1_554 S
C1856 C1854 1.415 . S
C1856 C1861 1.425 . S
C1856 C1863 1.409 . S
C1857 H1849 0.930 . S
C1857 C1855 1.419 1_556 S
C1857 C1858 1.362 . S
C1858 H1850 0.930 . S
C1858 C1857 1.362 . S
C1858 C1861 1.409 1_556 S
C1859 H1851 0.930 . S
C1859 C1860 1.355 1_556 S
C1859 C1861 1.415 1_556 S
C1860 C1859 1.355 1_554 S
C1860 C1862 1.419 . S
C1861 C1856 1.425 . S
C1861 C1858 1.409 1_554 S
C1861 C1859 1.415 1_554 S
C1862 H1852 0.930 . S
C1862 C1860 1.419 . S
C1862 C1863 1.362 . S
C1863 H1853 0.930 . S
C1863 C1856 1.409 . S
C1863 C1862 1.362 . S
H1864 C1870 0.930 . S
H1865 C1873 0.930 . S
H1866 C1874 0.930 . S
H1867 C1875 0.930 . S
H1868 C1878 0.930 . S
H1869 C1879 0.930 . S
C1870 H1864 0.930 . S
C1870 C1871 1.355 1_556 S
C1870 C1872 1.415 . S
C1871 C1870 1.355 1_554 S
C1871 C1873 1.419 . S
C1872 C1870 1.415 . S
C1872 C1877 1.425 1_556 S
C1872 C1879 1.409 . S
C1873 H1865 0.930 . S
C1873 C1871 1.419 . S
C1873 C1874 1.362 . S
C1874 H1866 0.930 . S
C1874 C1873 1.362 . S
C1874 C1877 1.409 . S
C1875 H1867 0.930 . S
C1875 C1876 1.354 . S
C1875 C1877 1.415 . S
C1876 C1875 1.354 . S
C1876 C1878 1.419 1_554 S
C1877 C1872 1.425 1_554 S
C1877 C1874 1.409 . S
C1877 C1875 1.415 . S
C1878 H1868 0.930 . S
C1878 C1876 1.419 1_556 S
C1878 C1879 1.362 . S
C1879 H1869 0.930 . S
C1879 C1872 1.409 . S
C1879 C1878 1.362 . S
H1880 C1886 0.930 . S
H1881 C1889 0.930 . S
H1882 C1890 0.930 . S
H1883 C1891 0.930 . S
H1884 C1894 0.930 . S
H1885 C1895 0.930 . S
C1886 H1880 0.930 . S
C1886 C1887 1.355 . S
C1886 C1888 1.415 . S
C1887 C1886 1.355 . S
C1887 C1889 1.419 1_554 S
C1888 C1886 1.415 . S
C1888 C1893 1.425 1_554 S
C1888 C1895 1.409 . S
C1889 H1881 0.930 . S
C1889 C1887 1.419 1_556 S
C1889 C1890 1.362 . S
C1890 H1882 0.930 . S
C1890 C1889 1.362 . S
C1890 C1893 1.409 . S
C1891 H1883 0.930 . S
C1891 C1892 1.355 1_556 S
C1891 C1893 1.415 . S
C1892 C1891 1.355 1_554 S
C1892 C1894 1.419 . S
C1893 C1888 1.425 1_556 S
C1893 C1890 1.409 . S
C1893 C1891 1.415 . S
C1894 H1884 0.930 . S
C1894 C1892 1.419 . S
C1894 C1895 1.362 . S
C1895 H1885 0.930 . S
C1895 C1888 1.409 . S
C1895 C1894 1.362 . S
H1896 C1902 0.930 . S
H1897 C1905 0.930 . S
H1898 C1906 0.930 . S
H1899 C1907 0.930 . S
H1900 C1910 0.930 . S
H1901 C1911 0.930 . S
C1902 H1896 0.930 . S
C1902 C1903 1.355 1_556 S
C1902 C1904 1.415 . S
C1903 C1902 1.355 1_554 S
C1903 C1905 1.419 . S
C1904 C1902 1.415 . S
C1904 C1909 1.425 1_556 S
C1904 C1911 1.409 . S
C1905 H1897 0.930 . S
C1905 C1903 1.419 . S
C1905 C1906 1.362 . S
C1906 H1898 0.930 . S
C1906 C1905 1.362 . S
C1906 C1909 1.409 . S
C1907 H1899 0.930 . S
C1907 C1908 1.355 . S
C1907 C1909 1.415 . S
C1908 C1907 1.355 . S
C1908 C1910 1.419 1_554 S
C1909 C1904 1.425 1_554 S
C1909 C1906 1.409 . S
C1909 C1907 1.415 . S
C1910 H1900 0.930 . S
C1910 C1908 1.419 1_556 S
C1910 C1911 1.362 . S
C1911 H1901 0.930 . S
C1911 C1904 1.409 . S
C1911 C1910 1.362 . S
H1912 C1918 0.930 . S
H1913 C1921 0.930 . S
H1914 C1922 0.930 . S
H1915 C1923 0.930 . S
H1916 C1926 0.932 . S
H1917 C1927 0.930 1_556 S
C1918 H1912 0.930 . S
C1918 C1919 1.355 . S
C1918 C1920 1.415 . S
C1919 C1918 1.355 . S
C1919 C1921 1.419 . S
C1920 C1918 1.415 . S
C1920 C1925 1.425 . S
C1920 C1927 1.409 . S
C1921 H1913 0.930 . S
C1921 C1919 1.419 . S
C1921 C1922 1.362 . S
C1922 H1914 0.930 . S
C1922 C1921 1.362 . S
C1922 C1925 1.409 . S
C1923 H1915 0.930 . S
C1923 C1924 1.355 . S
C1923 C1925 1.415 . S
C1924 C1923 1.355 . S
C1924 C1926 1.419 . S
C1925 C1920 1.425 . S
C1925 C1922 1.409 . S
C1925 C1923 1.415 . S
C1926 H1916 0.932 . S
C1926 C1924 1.419 . S
C1926 C1927 1.362 . S
C1927 H1917 0.930 1_554 S
C1927 C1920 1.409 . S
C1927 C1926 1.362 . S
H1928 C1934 0.930 . S
H1929 C1937 0.930 . S
H1930 C1938 0.930 . S
H1931 C1939 0.930 . S
H1932 C1942 0.930 . S
H1933 C1943 0.930 . S
C1934 H1928 0.930 . S
C1934 C1935 1.387 . S
C1934 C1936 1.415 . S
C1935 C1934 1.387 . S
C1935 C1937 1.382 1_554 S
C1936 C1934 1.415 . S
C1936 C1941 1.425 1_554 S
C1936 C1943 1.409 . S
C1937 H1929 0.930 . S
C1937 C1935 1.382 1_556 S
C1937 C1938 1.362 . S
C1938 H1930 0.930 . S
C1938 C1937 1.362 . S
C1938 C1941 1.409 . S
C1939 H1931 0.930 . S
C1939 C1940 1.355 1_556 S
C1939 C1941 1.415 . S
C1940 C1939 1.355 1_554 S
C1940 C1942 1.419 . S
C1941 C1936 1.425 1_556 S
C1941 C1938 1.409 . S
C1941 C1939 1.415 . S
C1942 H1932 0.930 . S
C1942 C1940 1.419 . S
C1942 C1943 1.362 . S
C1943 H1933 0.930 . S
C1943 C1936 1.409 . S
C1943 C1942 1.362 . S
H1944 C1950 0.930 . S
H1945 C1953 0.930 . S
H1946 C1954 0.930 . S
H1947 C1955 0.930 . S
H1948 C1958 0.930 . S
H1949 C1959 0.930 . S
C1950 H1944 0.930 . S
C1950 C1951 1.355 . S
C1950 C1952 1.415 . S
C1951 C1950 1.355 . S
C1951 C1953 1.419 . S
C1952 C1950 1.415 . S
C1952 C1957 1.425 . S
C1952 C1959 1.409 . S
C1953 H1945 0.930 . S
C1953 C1951 1.419 . S
C1953 C1954 1.362 . S
C1954 H1946 0.930 . S
C1954 C1953 1.362 . S
C1954 C1957 1.409 . S
C1955 H1947 0.930 . S
C1955 C1956 1.355 . S
C1955 C1957 1.415 . S
C1956 C1955 1.355 . S
C1956 C1958 1.419 . S
C1957 C1952 1.425 . S
C1957 C1954 1.409 . S
C1957 C1955 1.415 . S
C1958 H1948 0.930 . S
C1958 C1956 1.419 . S
C1958 C1959 1.362 . S
C1959 H1949 0.930 . S
C1959 C1952 1.409 . S
C1959 C1958 1.362 . S
H1960 C1966 0.930 . S
H1961 C1969 0.930 . S
H1962 C1970 0.930 . S
H1963 C1971 0.930 . S
H1964 C1974 0.930 . S
H1965 C1975 0.930 . S
C1966 H1960 0.930 . S
C1966 C1967 1.355 . S
C1966 C1968 1.415 . S
C1967 C1966 1.355 . S
C1967 C1969 1.419 . S
C1968 C1966 1.415 . S
C1968 C1973 1.425 . S
C1968 C1975 1.409 . S
C1969 H1961 0.930 . S
C1969 C1967 1.419 . S
C1969 C1970 1.362 . S
C1970 H1962 0.930 . S
C1970 C1969 1.362 . S
C1970 C1973 1.409 . S
C1971 H1963 0.930 . S
C1971 C1972 1.355 . S
C1971 C1973 1.415 . S
C1972 C1971 1.355 . S
C1972 C1974 1.419 . S
C1973 C1968 1.425 . S
C1973 C1970 1.409 . S
C1973 C1971 1.415 . S
C1974 H1964 0.930 . S
C1974 C1972 1.419 . S
C1974 C1975 1.362 . S
C1975 H1965 0.930 . S
C1975 C1968 1.409 . S
C1975 C1974 1.362 . S
H1976 C1982 0.930 . S
H1977 C1985 0.930 . S
H1978 C1986 0.930 . S
H1979 C1987 0.930 . S
H1980 C1990 0.930 . S
H1981 C1991 0.930 . S
C1982 H1976 0.930 . S
C1982 C1983 1.355 . S
C1982 C1984 1.415 . S
C1983 C1982 1.355 . S
C1983 C1985 1.419 . S
C1984 C1982 1.415 . S
C1984 C1989 1.425 . S
C1984 C1991 1.409 . S
C1985 H1977 0.930 . S
C1985 C1983 1.419 . S
C1985 C1986 1.362 . S
C1986 H1978 0.930 . S
C1986 C1985 1.362 . S
C1986 C1989 1.409 . S
C1987 H1979 0.930 . S
C1987 C1988 1.355 . S
C1987 C1989 1.415 . S
C1988 C1987 1.355 . S
C1988 C1990 1.419 . S
C1989 C1984 1.425 . S
C1989 C1986 1.409 . S
C1989 C1987 1.415 . S
C1990 H1980 0.930 . S
C1990 C1988 1.419 . S
C1990 C1991 1.362 . S
C1991 H1981 0.930 . S
C1991 C1984 1.409 . S
C1991 C1990 1.362 . S
H1992 C1998 0.930 . S
H1993 C2001 0.930 . S
H1994 C2002 0.930 . S
H1995 C2003 0.930 . S
H1996 C2006 0.930 . S
H1997 C2007 0.930 . S
C1998 H1992 0.930 . S
C1998 C1999 1.355 . S
C1998 C2000 1.415 . S
C1999 C1998 1.355 . S
C1999 C2001 1.419 . S
C2000 C1998 1.415 . S
C2000 C2005 1.425 . S
C2000 C2007 1.409 . S
C2001 H1993 0.930 . S
C2001 C1999 1.419 . S
C2001 C2002 1.362 . S
C2002 H1994 0.930 . S
C2002 C2001 1.362 . S
C2002 C2005 1.409 . S
C2003 H1995 0.930 . S
C2003 C2004 1.355 . S
C2003 C2005 1.415 . S
C2004 C2003 1.355 . S
C2004 C2006 1.419 . S
C2005 C2000 1.425 . S
C2005 C2002 1.409 . S
C2005 C2003 1.415 . S
C2006 H1996 0.930 . S
C2006 C2004 1.419 . S
C2006 C2007 1.362 . S
C2007 H1997 0.930 . S
C2007 C2000 1.409 . S
C2007 C2006 1.362 . S
H2008 C2014 0.930 . S
H2009 C2017 0.930 . S
H2010 C2018 0.930 . S
H2011 C2019 0.930 . S
H2012 C2022 0.930 . S
H2013 C2023 0.930 . S
C2014 H2008 0.930 . S
C2014 C2015 1.355 . S
C2014 C2016 1.415 . S
C2015 C2014 1.355 . S
C2015 C2017 1.419 . S
C2016 C2014 1.415 . S
C2016 C2021 1.425 . S
C2016 C2023 1.409 . S
C2017 H2009 0.930 . S
C2017 C2015 1.419 . S
C2017 C2018 1.362 . S
C2018 H2010 0.930 . S
C2018 C2017 1.362 . S
C2018 C2021 1.409 . S
C2019 H2011 0.930 . S
C2019 C2020 1.355 . S
C2019 C2021 1.415 . S
C2020 C2019 1.355 . S
C2020 C2022 1.419 . S
C2021 C2016 1.425 . S
C2021 C2018 1.409 . S
C2021 C2019 1.415 . S
C2022 H2012 0.930 . S
C2022 C2020 1.419 . S
C2022 C2023 1.362 . S
C2023 H2013 0.930 . S
C2023 C2016 1.409 . S
C2023 C2022 1.362 . S
H2024 C2030 0.930 . S
H2025 C2033 0.930 . S
H2026 C2034 0.930 . S
H2027 C2035 0.930 . S
H2028 C2038 0.930 . S
H2029 C2039 0.930 . S
C2030 H2024 0.930 . S
C2030 C2031 1.355 . S
C2030 C2032 1.415 . S
C2031 C2030 1.355 . S
C2031 C2033 1.419 . S
C2032 C2030 1.415 . S
C2032 C2037 1.425 . S
C2032 C2039 1.409 . S
C2033 H2025 0.930 . S
C2033 C2031 1.419 . S
C2033 C2034 1.362 . S
C2034 H2026 0.930 . S
C2034 C2033 1.362 . S
C2034 C2037 1.409 . S
C2035 H2027 0.930 . S
C2035 C2036 1.355 . S
C2035 C2037 1.415 . S
C2036 C2035 1.355 . S
C2036 C2038 1.419 . S
C2037 C2032 1.425 . S
C2037 C2034 1.409 . S
C2037 C2035 1.415 . S
C2038 H2028 0.930 . S
C2038 C2036 1.419 . S
C2038 C2039 1.362 . S
C2039 H2029 0.930 . S
C2039 C2032 1.409 . S
C2039 C2038 1.362 . S
H2040 C2046 0.930 . S
H2041 C2049 0.930 . S
H2042 C2050 0.930 . S
H2043 C2051 0.930 . S
H2044 C2054 0.930 . S
H2045 C2055 0.930 . S
C2046 H2040 0.930 . S
C2046 C2047 1.355 . S
C2046 C2048 1.415 . S
C2047 C2046 1.355 . S
C2047 C2049 1.419 . S
C2048 C2046 1.415 . S
C2048 C2053 1.425 . S
C2048 C2055 1.409 . S
C2049 H2041 0.930 . S
C2049 C2047 1.419 . S
C2049 C2050 1.362 . S
C2050 H2042 0.930 . S
C2050 C2049 1.362 . S
C2050 C2053 1.409 . S
C2051 H2043 0.930 . S
C2051 C2052 1.355 . S
C2051 C2053 1.415 . S
C2052 C2051 1.355 . S
C2052 C2054 1.419 . S
C2053 C2048 1.425 . S
C2053 C2050 1.409 . S
C2053 C2051 1.415 . S
C2054 H2044 0.930 . S
C2054 C2052 1.419 . S
C2054 C2055 1.362 . S
C2055 H2045 0.930 . S
C2055 C2048 1.409 . S
C2055 C2054 1.362 . S
H2056 C2062 0.930 . S
H2057 C2065 0.930 . S
H2058 C2066 0.930 . S
H2059 C2067 0.930 . S
H2060 C2070 0.930 . S
H2061 C2071 0.930 . S
C2062 H2056 0.930 . S
C2062 C2063 1.355 . S
C2062 C2064 1.415 . S
C2063 C2062 1.355 . S
C2063 C2065 1.419 . S
C2064 C2062 1.415 . S
C2064 C2069 1.425 . S
C2064 C2071 1.409 . S
C2065 H2057 0.930 . S
C2065 C2063 1.419 . S
C2065 C2066 1.362 . S
C2066 H2058 0.930 . S
C2066 C2065 1.362 . S
C2066 C2069 1.409 . S
C2067 H2059 0.930 . S
C2067 C2068 1.355 . S
C2067 C2069 1.415 . S
C2068 C2067 1.355 . S
C2068 C2070 1.419 . S
C2069 C2064 1.425 . S
C2069 C2066 1.409 . S
C2069 C2067 1.415 . S
C2070 H2060 0.930 . S
C2070 C2068 1.419 . S
C2070 C2071 1.362 . S
C2071 H2061 0.930 . S
C2071 C2064 1.409 . S
C2071 C2070 1.362 . S
H2072 C2078 0.930 . S
H2073 C2081 0.930 . S
H2074 C2082 0.930 . S
H2075 C2083 0.930 . S
H2076 C2086 0.930 . S
H2077 C2087 0.930 . S
C2078 H2072 0.930 . S
C2078 C2079 1.355 . S
C2078 C2080 1.415 . S
C2079 C2078 1.355 . S
C2079 C2081 1.419 . S
C2080 C2078 1.415 . S
C2080 C2085 1.425 . S
C2080 C2087 1.409 . S
C2081 H2073 0.930 . S
C2081 C2079 1.419 . S
C2081 C2082 1.362 . S
C2082 H2074 0.930 . S
C2082 C2081 1.362 . S
C2082 C2085 1.409 . S
C2083 H2075 0.930 . S
C2083 C2084 1.355 . S
C2083 C2085 1.415 . S
C2084 C2083 1.355 . S
C2084 C2086 1.419 . S
C2085 C2080 1.425 . S
C2085 C2082 1.409 . S
C2085 C2083 1.415 . S
C2086 H2076 0.930 . S
C2086 C2084 1.419 . S
C2086 C2087 1.362 . S
C2087 H2077 0.930 . S
C2087 C2080 1.409 . S
C2087 C2086 1.362 . S
H2088 C2094 0.930 . S
H2089 C2097 0.930 . S
H2090 C2098 0.930 . S
H2091 C2099 0.930 . S
H2092 C2102 0.930 . S
H2093 C2103 0.930 . S
C2094 H2088 0.930 . S
C2094 C2095 1.355 . S
C2094 C2096 1.415 . S
C2095 C2094 1.355 . S
C2095 C2097 1.419 . S
C2096 C2094 1.415 . S
C2096 C2101 1.425 . S
C2096 C2103 1.409 . S
C2097 H2089 0.930 . S
C2097 C2095 1.419 . S
C2097 C2098 1.362 . S
C2098 H2090 0.930 . S
C2098 C2097 1.362 . S
C2098 C2101 1.409 . S
C2099 H2091 0.930 . S
C2099 C2100 1.355 . S
C2099 C2101 1.415 . S
C2100 C2099 1.355 . S
C2100 C2102 1.419 . S
C2101 C2096 1.425 . S
C2101 C2098 1.409 . S
C2101 C2099 1.415 . S
C2102 H2092 0.930 . S
C2102 C2100 1.419 . S
C2102 C2103 1.362 . S
C2103 H2093 0.930 . S
C2103 C2096 1.409 . S
C2103 C2102 1.362 . S
H2104 C2110 0.930 . S
H2105 C2113 0.930 . S
H2106 C2114 0.930 . S
H2107 C2115 0.930 . S
H2108 C2118 0.930 . S
H2109 C2119 0.930 . S
C2110 H2104 0.930 . S
C2110 C2111 1.355 . S
C2110 C2112 1.415 . S
C2111 C2110 1.355 . S
C2111 C2113 1.419 . S
C2112 C2110 1.415 . S
C2112 C2117 1.425 . S
C2112 C2119 1.409 . S
C2113 H2105 0.930 . S
C2113 C2111 1.419 . S
C2113 C2114 1.362 . S
C2114 H2106 0.930 . S
C2114 C2113 1.362 . S
C2114 C2117 1.409 . S
C2115 H2107 0.930 . S
C2115 C2116 1.355 . S
C2115 C2117 1.415 . S
C2116 C2115 1.355 . S
C2116 C2118 1.419 . S
C2117 C2112 1.425 . S
C2117 C2114 1.409 . S
C2117 C2115 1.415 . S
C2118 H2108 0.930 . S
C2118 C2116 1.419 . S
C2118 C2119 1.362 . S
C2119 H2109 0.930 . S
C2119 C2112 1.409 . S
C2119 C2118 1.362 . S
H2120 C2126 0.930 . S
H2121 C2129 0.930 . S
H2122 C2130 0.930 . S
H2123 C2131 0.930 . S
H2124 C2134 0.930 . S
H2125 C2135 0.930 . S
C2126 H2120 0.930 . S
C2126 C2127 1.355 . S
C2126 C2128 1.415 . S
C2127 C2126 1.355 . S
C2127 C2129 1.419 . S
C2128 C2126 1.415 . S
C2128 C2133 1.425 . S
C2128 C2135 1.409 . S
C2129 H2121 0.930 . S
C2129 C2127 1.419 . S
C2129 C2130 1.362 . S
C2130 H2122 0.930 . S
C2130 C2129 1.362 . S
C2130 C2133 1.409 . S
C2131 H2123 0.930 . S
C2131 C2132 1.355 . S
C2131 C2133 1.415 . S
C2132 C2131 1.355 . S
C2132 C2134 1.419 . S
C2133 C2128 1.425 . S
C2133 C2130 1.409 . S
C2133 C2131 1.415 . S
C2134 H2124 0.930 . S
C2134 C2132 1.419 . S
C2134 C2135 1.362 . S
C2135 H2125 0.930 . S
C2135 C2128 1.409 . S
C2135 C2134 1.362 . S
H2136 C2142 0.930 . S
H2137 C2145 0.930 . S
H2138 C2146 0.930 . S
H2139 C2147 0.930 . S
H2140 C2150 0.930 . S
H2141 C2151 0.930 . S
C2142 H2136 0.930 . S
C2142 C2143 1.355 . S
C2142 C2144 1.415 . S
C2143 C2142 1.355 . S
C2143 C2145 1.419 . S
C2144 C2142 1.415 . S
C2144 C2149 1.425 . S
C2144 C2151 1.409 . S
C2145 H2137 0.930 . S
C2145 C2143 1.419 . S
C2145 C2146 1.362 . S
C2146 H2138 0.930 . S
C2146 C2145 1.362 . S
C2146 C2149 1.409 . S
C2147 H2139 0.930 . S
C2147 C2148 1.355 . S
C2147 C2149 1.415 . S
C2148 C2147 1.355 . S
C2148 C2150 1.419 . S
C2149 C2144 1.425 . S
C2149 C2146 1.409 . S
C2149 C2147 1.415 . S
C2150 H2140 0.930 . S
C2150 C2148 1.419 . S
C2150 C2151 1.362 . S
C2151 H2141 0.930 . S
C2151 C2144 1.409 . S
C2151 C2150 1.362 . S
H2152 C2158 0.930 . S
H2153 C2161 0.930 . S
H2154 C2162 0.930 . S
H2155 C2163 0.930 . S
H2156 C2166 0.930 . S
H2157 C2167 0.930 . S
C2158 H2152 0.930 . S
C2158 C2159 1.355 . S
C2158 C2160 1.415 . S
C2159 C2158 1.355 . S
C2159 C2161 1.419 . S
C2160 C2158 1.415 . S
C2160 C2165 1.425 . S
C2160 C2167 1.409 . S
C2161 H2153 0.930 . S
C2161 C2159 1.419 . S
C2161 C2162 1.362 . S
C2162 H2154 0.930 . S
C2162 C2161 1.362 . S
C2162 C2165 1.409 . S
C2163 H2155 0.930 . S
C2163 C2164 1.355 . S
C2163 C2165 1.415 . S
C2164 C2163 1.355 . S
C2164 C2166 1.419 . S
C2165 C2160 1.425 . S
C2165 C2162 1.409 . S
C2165 C2163 1.415 . S
C2166 H2156 0.930 . S
C2166 C2164 1.419 . S
C2166 C2167 1.362 . S
C2167 H2157 0.930 . S
C2167 C2160 1.409 . S
C2167 C2166 1.362 . S
H2168 C2174 0.930 . S
H2169 C2177 0.930 . S
H2170 C2178 0.930 . S
H2171 C2179 0.930 . S
H2172 C2182 0.930 . S
H2173 C2183 0.930 . S
C2174 H2168 0.930 . S
C2174 C2175 1.355 . S
C2174 C2176 1.415 . S
C2175 C2174 1.355 . S
C2175 C2177 1.419 . S
C2176 C2174 1.415 . S
C2176 C2181 1.425 . S
C2176 C2183 1.409 . S
C2177 H2169 0.930 . S
C2177 C2175 1.419 . S
C2177 C2178 1.362 . S
C2178 H2170 0.930 . S
C2178 C2177 1.362 . S
C2178 C2181 1.409 . S
C2179 H2171 0.930 . S
C2179 C2180 1.355 . S
C2179 C2181 1.415 . S
C2180 C2179 1.355 . S
C2180 C2182 1.419 . S
C2181 C2176 1.425 . S
C2181 C2178 1.409 . S
C2181 C2179 1.415 . S
C2182 H2172 0.930 . S
C2182 C2180 1.419 . S
C2182 C2183 1.362 . S
C2183 H2173 0.930 . S
C2183 C2176 1.409 . S
C2183 C2182 1.362 . S
H2184 C2190 0.930 . S
H2185 C2193 0.930 . S
H2186 C2194 0.930 . S
H2187 C2195 0.930 . S
H2188 C2198 0.930 . S
H2189 C2199 0.930 . S
C2190 H2184 0.930 . S
C2190 C2191 1.355 . S
C2190 C2192 1.415 . S
C2191 C2190 1.355 . S
C2191 C2193 1.419 . S
C2192 C2190 1.415 . S
C2192 C2197 1.425 . S
C2192 C2199 1.409 . S
C2193 H2185 0.930 . S
C2193 C2191 1.419 . S
C2193 C2194 1.362 . S
C2194 H2186 0.930 . S
C2194 C2193 1.362 . S
C2194 C2197 1.409 . S
C2195 H2187 0.930 . S
C2195 C2196 1.355 . S
C2195 C2197 1.415 . S
C2196 C2195 1.355 . S
C2196 C2198 1.419 . S
C2197 C2192 1.425 . S
C2197 C2194 1.409 . S
C2197 C2195 1.415 . S
C2198 H2188 0.930 . S
C2198 C2196 1.419 . S
C2198 C2199 1.362 . S
C2199 H2189 0.930 . S
C2199 C2192 1.409 . S
C2199 C2198 1.362 . S
H2200 C2206 0.930 . S
H2201 C2209 0.930 . S
H2202 C2210 0.930 . S
H2203 C2211 0.930 . S
H2204 C2214 0.930 . S
H2205 C2215 0.930 . S
C2206 H2200 0.930 . S
C2206 C2207 1.355 . S
C2206 C2208 1.415 . S
C2207 C2206 1.355 . S
C2207 C2209 1.419 . S
C2208 C2206 1.415 . S
C2208 C2213 1.425 . S
C2208 C2215 1.409 . S
C2209 H2201 0.930 . S
C2209 C2207 1.419 . S
C2209 C2210 1.362 . S
C2210 H2202 0.930 . S
C2210 C2209 1.362 . S
C2210 C2213 1.409 . S
C2211 H2203 0.930 . S
C2211 C2212 1.355 . S
C2211 C2213 1.415 . S
C2212 C2211 1.355 . S
C2212 C2214 1.419 . S
C2213 C2208 1.425 . S
C2213 C2210 1.409 . S
C2213 C2211 1.415 . S
C2214 H2204 0.930 . S
C2214 C2212 1.419 . S
C2214 C2215 1.362 . S
C2215 H2205 0.930 . S
C2215 C2208 1.409 . S
C2215 C2214 1.362 . S
H2216 C2222 0.930 . S
H2217 C2225 0.930 . S
H2218 C2226 0.930 . S
H2219 C2227 0.930 . S
H2220 C2230 0.930 . S
H2221 C2231 0.930 . S
C2222 H2216 0.930 . S
C2222 C2223 1.355 . S
C2222 C2224 1.415 . S
C2223 C2222 1.355 . S
C2223 C2225 1.419 . S
C2224 C2222 1.415 . S
C2224 C2229 1.425 . S
C2224 C2231 1.409 . S
C2225 H2217 0.930 . S
C2225 C2223 1.419 . S
C2225 C2226 1.362 . S
C2226 H2218 0.930 . S
C2226 C2225 1.362 . S
C2226 C2229 1.409 . S
C2227 H2219 0.930 . S
C2227 C2228 1.355 . S
C2227 C2229 1.415 . S
C2228 C2227 1.355 . S
C2228 C2230 1.419 . S
C2229 C2224 1.425 . S
C2229 C2226 1.409 . S
C2229 C2227 1.415 . S
C2230 H2220 0.930 . S
C2230 C2228 1.419 . S
C2230 C2231 1.362 . S
C2231 H2221 0.930 . S
C2231 C2224 1.409 . S
C2231 C2230 1.362 . S
H2232 C2238 0.930 . S
H2233 C2241 0.930 . S
H2234 C2242 0.930 . S
H2235 C2243 0.930 . S
H2236 C2246 0.930 . S
H2237 C2247 0.930 . S
C2238 H2232 0.930 . S
C2238 C2239 1.355 . S
C2238 C2240 1.415 . S
C2239 C2238 1.355 . S
C2239 C2241 1.419 . S
C2240 C2238 1.415 . S
C2240 C2245 1.425 . S
C2240 C2247 1.409 . S
C2241 H2233 0.930 . S
C2241 C2239 1.419 . S
C2241 C2242 1.362 . S
C2242 H2234 0.930 . S
C2242 C2241 1.362 . S
C2242 C2245 1.409 . S
C2243 H2235 0.930 . S
C2243 C2244 1.355 . S
C2243 C2245 1.415 . S
C2244 C2243 1.355 . S
C2244 C2246 1.419 . S
C2245 C2240 1.425 . S
C2245 C2242 1.409 . S
C2245 C2243 1.415 . S
C2246 H2236 0.930 . S
C2246 C2244 1.419 . S
C2246 C2247 1.362 . S
C2247 H2237 0.930 . S
C2247 C2240 1.409 . S
C2247 C2246 1.362 . S
H2248 C2254 0.930 . S
H2249 C2257 0.930 . S
H2250 C2258 0.930 . S
H2251 C2259 0.930 . S
H2252 C2262 0.930 . S
H2253 C2263 0.930 . S
C2254 H2248 0.930 . S
C2254 C2255 1.355 . S
C2254 C2256 1.415 . S
C2255 C2254 1.355 . S
C2255 C2257 1.419 . S
C2256 C2254 1.415 . S
C2256 C2261 1.425 . S
C2256 C2263 1.409 . S
C2257 H2249 0.930 . S
C2257 C2255 1.419 . S
C2257 C2258 1.362 . S
C2258 H2250 0.930 . S
C2258 C2257 1.362 . S
C2258 C2261 1.409 . S
C2259 H2251 0.930 . S
C2259 C2260 1.355 . S
C2259 C2261 1.415 . S
C2260 C2259 1.355 . S
C2260 C2262 1.419 . S
C2261 C2256 1.425 . S
C2261 C2258 1.409 . S
C2261 C2259 1.415 . S
C2262 H2252 0.930 . S
C2262 C2260 1.419 . S
C2262 C2263 1.362 . S
C2263 H2253 0.930 . S
C2263 C2256 1.409 . S
C2263 C2262 1.362 . S
H2264 C2270 0.930 . S
H2265 C2273 0.930 . S
H2266 C2274 0.930 . S
H2267 C2275 0.930 . S
H2268 C2278 0.930 . S
H2269 C2279 0.930 . S
C2270 H2264 0.930 . S
C2270 C2271 1.355 . S
C2270 C2272 1.415 . S
C2271 C2270 1.355 . S
C2271 C2273 1.419 . S
C2272 C2270 1.415 . S
C2272 C2277 1.425 . S
C2272 C2279 1.409 . S
C2273 H2265 0.930 . S
C2273 C2271 1.419 . S
C2273 C2274 1.362 . S
C2274 H2266 0.930 . S
C2274 C2273 1.362 . S
C2274 C2277 1.409 . S
C2275 H2267 0.930 . S
C2275 C2276 1.355 . S
C2275 C2277 1.415 . S
C2276 C2275 1.355 . S
C2276 C2278 1.419 . S
C2277 C2272 1.425 . S
C2277 C2274 1.409 . S
C2277 C2275 1.415 . S
C2278 H2268 0.930 . S
C2278 C2276 1.419 . S
C2278 C2279 1.362 . S
C2279 H2269 0.930 . S
C2279 C2272 1.409 . S
C2279 C2278 1.362 . S
H2280 C2286 0.930 . S
H2281 C2289 0.930 . S
H2282 C2290 0.930 . S
H2283 C2291 0.930 . S
H2284 C2294 0.930 . S
H2285 C2295 0.930 . S
C2286 H2280 0.930 . S
C2286 C2287 1.355 . S
C2286 C2288 1.415 . S
C2287 C2286 1.355 . S
C2287 C2289 1.419 . S
C2288 C2286 1.415 . S
C2288 C2293 1.425 . S
C2288 C2295 1.409 . S
C2289 H2281 0.930 . S
C2289 C2287 1.419 . S
C2289 C2290 1.362 . S
C2290 H2282 0.930 . S
C2290 C2289 1.362 . S
C2290 C2293 1.409 . S
C2291 H2283 0.930 . S
C2291 C2292 1.355 . S
C2291 C2293 1.415 . S
C2292 C2291 1.355 . S
C2292 C2294 1.419 . S
C2293 C2288 1.425 . S
C2293 C2290 1.409 . S
C2293 C2291 1.415 . S
C2294 H2284 0.930 . S
C2294 C2292 1.419 . S
C2294 C2295 1.362 . S
C2295 H2285 0.930 . S
C2295 C2288 1.409 . S
C2295 C2294 1.362 . S
H2296 C2302 0.930 . S
H2297 C2305 0.930 . S
H2298 C2306 0.930 . S
H2299 C2307 0.930 . S
H2300 C2310 0.930 . S
H2301 C2311 0.930 . S
C2302 H2296 0.930 . S
C2302 C2303 1.355 . S
C2302 C2304 1.415 . S
C2303 C2302 1.355 . S
C2303 C2305 1.419 . S
C2304 C2302 1.415 . S
C2304 C2309 1.425 . S
C2304 C2311 1.409 . S
C2305 H2297 0.930 . S
C2305 C2303 1.419 . S
C2305 C2306 1.362 . S
C2306 H2298 0.930 . S
C2306 C2305 1.362 . S
C2306 C2309 1.409 . S
C2307 H2299 0.930 . S
C2307 C2308 1.355 . S
C2307 C2309 1.415 . S
C2308 C2307 1.355 . S
C2308 C2310 1.419 . S
C2309 C2304 1.425 . S
C2309 C2306 1.409 . S
C2309 C2307 1.415 . S
C2310 H2300 0.930 . S
C2310 C2308 1.419 . S
C2310 C2311 1.362 . S
C2311 H2301 0.930 . S
C2311 C2304 1.409 . S
C2311 C2310 1.362 . S
H2312 C2318 0.930 . S
H2313 C2321 0.930 . S
H2314 C2322 0.930 . S
H2315 C2323 0.930 . S
H2316 C2326 0.930 . S
H2317 C2327 0.930 . S
C2318 H2312 0.930 . S
C2318 C2319 1.355 . S
C2318 C2320 1.415 . S
C2319 C2318 1.355 . S
C2319 C2321 1.419 . S
C2320 C2318 1.415 . S
C2320 C2325 1.425 . S
C2320 C2327 1.409 . S
C2321 H2313 0.930 . S
C2321 C2319 1.419 . S
C2321 C2322 1.362 . S
C2322 H2314 0.930 . S
C2322 C2321 1.362 . S
C2322 C2325 1.409 . S
C2323 H2315 0.930 . S
C2323 C2324 1.355 . S
C2323 C2325 1.415 . S
C2324 C2323 1.355 . S
C2324 C2326 1.419 . S
C2325 C2320 1.425 . S
C2325 C2322 1.409 . S
C2325 C2323 1.415 . S
C2326 H2316 0.930 . S
C2326 C2324 1.419 . S
C2326 C2327 1.362 . S
C2327 H2317 0.930 . S
C2327 C2320 1.409 . S
C2327 C2326 1.362 . S
C1188 C906 1.052 . S
C1183 C859 1.065 . S
C1199 C787 1.097 . S
C1204 C900 1.019 . S
C1220 C868 1.218 . S
C1215 C751 1.214 . S
C1231 C823 1.251 . S
C1236 C882 1.206 . S
C1252 C920 1.580 . S
C1247 C607 1.655 . S
C1268 C1007 1.136 . S
C1263 C643 1.141 . S
C1279 C679 1.712 . S
C1284 C934 1.621 . S
C1300 C1002 0.834 . S
C1295 C715 0.808 . S
C1311 C463 1.703 . S
C1316 C958 1.583 . S
C1332 C1013 1.165 . S
C1327 C499 1.199 . S
C1343 C535 1.653 . S
C1348 C952 1.597 . S
C1359 C571 0.807 . S
C1364 C998 0.846 . S
C1380 C1054 0.859 . S
C1375 C427 0.841 . S
C1391 C355 1.223 . S
C1396 C1065 1.218 . S
C1407 C319 0.897 . S
C1412 C1050 0.928 . S
C1428 C1059 1.280 . S
C1423 C391 1.285 . S
C1439 C175 1.186 . S
C1444 C1104 1.140 . S
C1455 C211 0.347 . S
C1460 C1163 0.362 . S
C1471 C247 1.339 . S
C1476 C1120 1.244 . S
C1487 C283 0.741 . S
C1492 C1158 0.748 . S
C1508 C1122 1.310 . S
C1503 C31 1.341 . S
C1524 C1169 0.482 . S
C1519 C67 0.454 . S
C1535 C103 1.175 . S
C1540 C1098 1.172 . S
C1556 C1154 0.825 . S
C1551 C139 0.772 . S
C1572 C890 1.973 . S
C1567 C25 1.934 . S
C1583 C61 1.649 . S
C1588 C894 1.728 . S
C1599 C97 1.917 . S
C1604 C914 1.926 . S
C1615 C133 1.284 . S
C1620 C909 1.503 . S
C1631 C169 1.930 . S
C1636 C912 1.928 . S
C1652 C898 1.669 . S
C1647 C181 1.639 . S
C1663 C241 1.889 . S
C1668 C896 1.868 . S
C1684 C903 1.498 . S
C1679 C253 1.403 . S
C1700 C966 1.902 . S
C1695 C109 1.963 . S
C1711 C1 2.235 . S
C1716 C1016 2.246 . S
C1732 C964 1.532 . S
C1727 C37 1.595 . S
C1748 C1000 2.137 . S
C1743 C73 2.075 . S
C1759 C205 1.566 . S
C1764 C942 1.584 . S
C1780 C1018 2.221 . S
C1775 C217 2.205 . S
C1796 C948 1.949 . S
C1791 C277 1.920 . S
C1812 C994 2.197 . S
C1807 C145 2.127 1_455 S
C1828 C986 2.024 . S
C1823 C289 1.952 . S
C1839 C325 1.776 . S
C1844 C1010 1.927 . S
C1860 C946 1.650 . S
C1855 C313 1.565 . S
C1876 C972 1.999 . S
C1871 C361 1.822 . S
C1887 C397 1.586 . S
C1892 C950 1.623 . S
C1903 C421 1.813 . S
C1908 C1004 2.004 . S
C1924 C961 1.987 . S
C1919 C349 1.812 . S
C1940 C955 2.047 . S
C1935 C385 1.834 . S
C1956 C1038 2.368 . S
C1951 C457 2.237 . S
C1972 C1070 2.080 . S
C1967 C493 1.873 . S
C1983 C529 2.231 . S
C1988 C1024 2.355 . S
C2004 C1068 1.697 . S
C1999 C565 1.605 . S
C2020 C1056 2.345 . S
C2015 C601 2.196 . S
C2031 C613 1.898 . S
C2036 C1052 2.014 . S
C2047 C673 2.244 . S
C2052 C1062 2.435 . S
C2068 C1046 1.669 . S
C2063 C685 1.541 . S
C2084 C1111 1.855 . S
C2079 C541 1.813 . S
C2095 C433 1.992 . S
C2100 C1172 2.145 . S
C2116 C1106 1.707 . S
C2111 C469 1.553 . S
C2132 C1156 2.113 . S
C2127 C505 1.976 . S
C2148 C1102 1.625 . S
C2143 C637 1.368 . S
C2159 C649 1.969 . S
C2164 C1174 2.055 . S
C2180 C1117 1.833 . S
C2175 C709 1.728 . S
C2196 C1150 2.000 . S
C2191 C577 1.858 . S
C2212 C1142 2.140 . S
C2207 C721 2.042 . S
C2223 C757 2.106 . S
C2228 C1166 2.163 . S
C2244 C1108 1.772 . S
C2239 C745 1.726 . S
C2255 C793 2.193 . S
C2260 C1128 2.189 . S
C2276 C1090 1.870 . S
C2271 C829 1.909 . S
C2292 C1160 2.061 . S
C2287 C853 1.923 . S
C2308 C1076 1.784 . S
C2303 C781 1.786 . S
C2319 C817 1.741 . S
C2324 C1114 1.778 . S
