# Generated by pormake.
# Topology ctn, (3,4)-cn, num edge types: 1
# Building blocks:
#     Node 0, Type 0, BuildingBlock: VETTIZ_charged_linker_0, # of connection points: 3
#     Node 1, Type 0, BuildingBlock: VETTIZ_charged_linker_0, # of connection points: 3
#     Node 2, Type 0, BuildingBlock: VETTIZ_charged_linker_0, # of connection points: 3
#     Node 3, Type 0, BuildingBlock: VETTIZ_charged_linker_0, # of connection points: 3
#     Node 4, Type 0, BuildingBlock: VETTIZ_charged_linker_0, # of connection points: 3
#     Node 5, Type 0, BuildingBlock: VETTIZ_charged_linker_0, # of connection points: 3
#     Node 6, Type 0, BuildingBlock: VETTIZ_charged_linker_0, # of connection points: 3
#     Node 7, Type 0, BuildingBlock: VETTIZ_charged_linker_0, # of connection points: 3
#     Node 8, Type 0, BuildingBlock: VETTIZ_charged_linker_0, # of connection points: 3
#     Node 9, Type 0, BuildingBlock: VETTIZ_charged_linker_0, # of connection points: 3
#     Node 10, Type 0, BuildingBlock: VETTIZ_charged_linker_0, # of connection points: 3
#     Node 11, Type 0, BuildingBlock: VETTIZ_charged_linker_0, # of connection points: 3
#     Node 12, Type 0, BuildingBlock: VETTIZ_charged_linker_0, # of connection points: 3
#     Node 13, Type 0, BuildingBlock: VETTIZ_charged_linker_0, # of connection points: 3
#     Node 14, Type 0, BuildingBlock: VETTIZ_charged_linker_0, # of connection points: 3
#     Node 15, Type 0, BuildingBlock: VETTIZ_charged_linker_0, # of connection points: 3
#     Node 16, Type 1, BuildingBlock: TATPOV_clean_sbu_0, # of connection points: 4
#     Node 17, Type 1, BuildingBlock: TATPOV_clean_sbu_0, # of connection points: 4
#     Node 18, Type 1, BuildingBlock: TATPOV_clean_sbu_0, # of connection points: 4
#     Node 19, Type 1, BuildingBlock: TATPOV_clean_sbu_0, # of connection points: 4
#     Node 20, Type 1, BuildingBlock: TATPOV_clean_sbu_0, # of connection points: 4
#     Node 21, Type 1, BuildingBlock: TATPOV_clean_sbu_0, # of connection points: 4
#     Node 22, Type 1, BuildingBlock: TATPOV_clean_sbu_0, # of connection points: 4
#     Node 23, Type 1, BuildingBlock: TATPOV_clean_sbu_0, # of connection points: 4
#     Node 24, Type 1, BuildingBlock: TATPOV_clean_sbu_0, # of connection points: 4
#     Node 25, Type 1, BuildingBlock: TATPOV_clean_sbu_0, # of connection points: 4
#     Node 26, Type 1, BuildingBlock: TATPOV_clean_sbu_0, # of connection points: 4
#     Node 27, Type 1, BuildingBlock: TATPOV_clean_sbu_0, # of connection points: 4
#     Edge 28, Type (0, 1), BuildingBlock: XUDNAN_clean_linker_2, # of connection points: 2
#     Edge 29, Type (0, 1), BuildingBlock: XUDNAN_clean_linker_2, # of connection points: 2
#     Edge 30, Type (0, 1), BuildingBlock: XUDNAN_clean_linker_2, # of connection points: 2
#     Edge 31, Type (0, 1), BuildingBlock: XUDNAN_clean_linker_2, # of connection points: 2
#     Edge 32, Type (0, 1), BuildingBlock: XUDNAN_clean_linker_2, # of connection points: 2
#     Edge 33, Type (0, 1), BuildingBlock: XUDNAN_clean_linker_2, # of connection points: 2
#     Edge 34, Type (0, 1), BuildingBlock: XUDNAN_clean_linker_2, # of connection points: 2
#     Edge 35, Type (0, 1), BuildingBlock: XUDNAN_clean_linker_2, # of connection points: 2
#     Edge 36, Type (0, 1), BuildingBlock: XUDNAN_clean_linker_2, # of connection points: 2
#     Edge 37, Type (0, 1), BuildingBlock: XUDNAN_clean_linker_2, # of connection points: 2
#     Edge 38, Type (0, 1), BuildingBlock: XUDNAN_clean_linker_2, # of connection points: 2
#     Edge 39, Type (0, 1), BuildingBlock: XUDNAN_clean_linker_2, # of connection points: 2
#     Edge 40, Type (0, 1), BuildingBlock: XUDNAN_clean_linker_2, # of connection points: 2
#     Edge 41, Type (0, 1), BuildingBlock: XUDNAN_clean_linker_2, # of connection points: 2
#     Edge 42, Type (0, 1), BuildingBlock: XUDNAN_clean_linker_2, # of connection points: 2
#     Edge 43, Type (0, 1), BuildingBlock: XUDNAN_clean_linker_2, # of connection points: 2
#     Edge 44, Type (0, 1), BuildingBlock: XUDNAN_clean_linker_2, # of connection points: 2
#     Edge 45, Type (0, 1), BuildingBlock: XUDNAN_clean_linker_2, # of connection points: 2
#     Edge 46, Type (0, 1), BuildingBlock: XUDNAN_clean_linker_2, # of connection points: 2
#     Edge 47, Type (0, 1), BuildingBlock: XUDNAN_clean_linker_2, # of connection points: 2
#     Edge 48, Type (0, 1), BuildingBlock: XUDNAN_clean_linker_2, # of connection points: 2
#     Edge 49, Type (0, 1), BuildingBlock: XUDNAN_clean_linker_2, # of connection points: 2
#     Edge 50, Type (0, 1), BuildingBlock: XUDNAN_clean_linker_2, # of connection points: 2
#     Edge 51, Type (0, 1), BuildingBlock: XUDNAN_clean_linker_2, # of connection points: 2
#     Edge 52, Type (0, 1), BuildingBlock: XUDNAN_clean_linker_2, # of connection points: 2
#     Edge 53, Type (0, 1), BuildingBlock: XUDNAN_clean_linker_2, # of connection points: 2
#     Edge 54, Type (0, 1), BuildingBlock: XUDNAN_clean_linker_2, # of connection points: 2
#     Edge 55, Type (0, 1), BuildingBlock: XUDNAN_clean_linker_2, # of connection points: 2
#     Edge 56, Type (0, 1), BuildingBlock: XUDNAN_clean_linker_2, # of connection points: 2
#     Edge 57, Type (0, 1), BuildingBlock: XUDNAN_clean_linker_2, # of connection points: 2
#     Edge 58, Type (0, 1), BuildingBlock: XUDNAN_clean_linker_2, # of connection points: 2
#     Edge 59, Type (0, 1), BuildingBlock: XUDNAN_clean_linker_2, # of connection points: 2
#     Edge 60, Type (0, 1), BuildingBlock: XUDNAN_clean_linker_2, # of connection points: 2
#     Edge 61, Type (0, 1), BuildingBlock: XUDNAN_clean_linker_2, # of connection points: 2
#     Edge 62, Type (0, 1), BuildingBlock: XUDNAN_clean_linker_2, # of connection points: 2
#     Edge 63, Type (0, 1), BuildingBlock: XUDNAN_clean_linker_2, # of connection points: 2
#     Edge 64, Type (0, 1), BuildingBlock: XUDNAN_clean_linker_2, # of connection points: 2
#     Edge 65, Type (0, 1), BuildingBlock: XUDNAN_clean_linker_2, # of connection points: 2
#     Edge 66, Type (0, 1), BuildingBlock: XUDNAN_clean_linker_2, # of connection points: 2
#     Edge 67, Type (0, 1), BuildingBlock: XUDNAN_clean_linker_2, # of connection points: 2
#     Edge 68, Type (0, 1), BuildingBlock: XUDNAN_clean_linker_2, # of connection points: 2
#     Edge 69, Type (0, 1), BuildingBlock: XUDNAN_clean_linker_2, # of connection points: 2
#     Edge 70, Type (0, 1), BuildingBlock: XUDNAN_clean_linker_2, # of connection points: 2
#     Edge 71, Type (0, 1), BuildingBlock: XUDNAN_clean_linker_2, # of connection points: 2
#     Edge 72, Type (0, 1), BuildingBlock: XUDNAN_clean_linker_2, # of connection points: 2
#     Edge 73, Type (0, 1), BuildingBlock: XUDNAN_clean_linker_2, # of connection points: 2
#     Edge 74, Type (0, 1), BuildingBlock: XUDNAN_clean_linker_2, # of connection points: 2
#     Edge 75, Type (0, 1), BuildingBlock: XUDNAN_clean_linker_2, # of connection points: 2
# Relax obj value: 0.003
# Max RMSD: 0.048
# Mean RMSD: 0.021
data_MOF--net-ctn--node1-TATPOV_clean_sbu_0--node2-VETTIZ_charged_linker_0--edge1-XUDNAN_clean_linker_2
_symmetry_space_group_name_H-M    P1
_symmetry_Int_Tables_number       1
_symmetry_cell_setting            triclinic
loop_
_symmetry_equiv_pos_as_xyz
'x, y, z'
_cell_length_a     66.853907
_cell_length_b     66.863626
_cell_length_c     66.843311
_cell_angle_alpha  90.995873
_cell_angle_beta   91.047902
_cell_angle_gamma 91.017385
loop_
_atom_site_label
_atom_site_type_symbol
_atom_site_fract_x
_atom_site_fract_y
_atom_site_fract_z
_atom_type_partial_charge
C0 C 0.0245 0.09076 0.9824 0.0
C1 C 0.00989 0.10562 0.98323 0.0
C2 C 0.99542 0.10473 0.99829 0.0
C3 C 0.01038 0.07481 0.01157 0.0
C4 C 0.02459 0.07569 0.9968 0.0
C5 C 0.03991 0.05959 0.99898 0.0
H6 H 0.07498 0.98023 0.04976 0.0
C7 C 0.01501 0.05767 0.02455 0.0
C8 C 0.03241 0.04877 0.01728 0.0
H9 H 0.10121 0.00903 0.99877 0.0
H10 H 0.07376 0.03193 0.9974 0.0
H11 H 0.06453 0.02036 0.07268 0.0
H12 H 0.02935 0.9811 0.03379 0.0
H13 H 0.01385 0.98844 0.05343 0.0
H14 H 0.03616 0.97462 0.05892 0.0
H15 H 0.0554 0.99639 0.0805 0.0
H16 H 0.04062 0.01858 0.08297 0.0
C17 C 0.06065 0.0698 0.00293 0.0
C18 C 0.03872 0.04604 0.97997 0.0
C19 C 0.96969 0.0403 0.08267 0.0
C20 C 0.97022 0.02519 0.09713 0.0
C21 C 0.9861 0.01158 0.09683 0.0
C22 C 0.00102 0.01285 0.08241 0.0
C23 C 1.00022 0.02792 0.06802 0.0
C24 C 0.98478 0.04138 0.06833 0.0
C25 C 0.98652 0.05649 0.05193 0.0
C26 C 0.00538 0.04969 0.04158 0.0
C27 C 0.01333 0.03297 0.05112 0.0
C28 C 0.98932 0.07753 0.06179 0.0
C29 C 0.9678 0.05418 0.03806 0.0
C30 C 0.07498 0.99155 0.03837 0.0
C31 C 0.09047 0.99275 0.02441 0.0
C32 C 0.08945 0.00753 0.0096 0.0
C33 C 0.07355 0.02097 0.00893 0.0
C34 C 0.05845 0.01979 0.02326 0.0
C35 C 0.05933 0.00518 0.0376 0.0
C36 C 0.04222 0.00628 0.05186 0.0
C37 C 0.03099 0.02407 0.04385 0.0
C38 C 0.04049 0.0319 0.02705 0.0
C39 C 0.05098 0.01047 0.07319 0.0
C40 C 0.02972 0.98659 0.04961 0.0
H41 H 0.98411 0.0896 0.02343 0.0
H42 H 0.03602 0.09127 0.97122 0.0
H43 H 0.02287 0.04327 0.97519 0.0
H44 H 0.04493 0.03107 0.98234 0.0
H45 H 0.04656 0.05315 0.96735 0.0
H46 H 0.05919 0.08407 0.01155 0.0
H47 H 0.06812 0.07333 0.98868 0.0
H48 H 0.07073 0.06073 0.01222 0.0
H49 H 0.95788 0.05116 0.08257 0.0
H50 H 0.98679 0.99963 0.10754 0.0
H51 H 0.01257 0.00193 0.08298 0.0
H52 H 0.99787 0.07673 0.07619 0.0
H53 H 0.97466 0.08432 0.06504 0.0
H54 H 0.99818 0.08788 0.05261 0.0
H55 H 0.96383 0.0381 0.0355 0.0
H56 H 0.97009 0.06026 0.02302 0.0
H57 H 0.95468 0.06151 0.04481 0.0
H58 H 0.98401 0.11601 0.99919 0.0
C59 C 0.99551 0.08939 0.01235 0.0
C60 C 0.22055 0.64571 0.2307 0.0
C61 C 0.20218 0.64561 0.22 0.0
C62 C 0.19893 0.66039 0.20557 0.0
C63 C 0.23139 0.67551 0.21329 0.0
C64 C 0.23487 0.66084 0.22718 0.0
C65 C 0.25498 0.66369 0.23756 0.0
H66 H 0.33748 0.72237 0.25479 0.0
C67 C 0.2488 0.68944 0.21362 0.0
C68 C 0.26273 0.68267 0.22783 0.0
H69 H 0.32396 0.66453 0.28004 0.0
H70 H 0.29347 0.66229 0.26038 0.0
H71 H 0.29245 0.74004 0.25317 0.0
H72 H 0.32783 0.70765 0.21076 0.0
H73 H 0.31318 0.72411 0.19684 0.0
H74 H 0.33128 0.73406 0.21496 0.0
H75 H 0.3148 0.75003 0.2423 0.0
H76 H 0.29085 0.75189 0.22983 0.0
C77 C 0.25143 0.66688 0.2602 0.0
C78 C 0.26796 0.6454 0.23246 0.0
C79 C 0.24838 0.74941 0.16803 0.0
C80 C 0.26228 0.76493 0.1646 0.0
C81 C 0.28036 0.76568 0.17582 0.0
C82 C 0.28448 0.75124 0.19026 0.0
C83 C 0.27045 0.73573 0.19342 0.0
C84 C 0.25281 0.73499 0.18231 0.0
C85 C 0.23987 0.71722 0.18723 0.0
C86 C 0.2527 0.70726 0.203 0.0
C87 C 0.27051 0.71823 0.20672 0.0
C88 C 0.22008 0.72508 0.19593 0.0
C89 C 0.23722 0.70396 0.16805 0.0
C90 C 0.32823 0.70903 0.25606 0.0
C91 C 0.33335 0.69375 0.26942 0.0
C92 C 0.32038 0.67687 0.27044 0.0
C93 C 0.30267 0.67546 0.25882 0.0
C94 C 0.29781 0.69095 0.24575 0.0
C95 C 0.31074 0.70718 0.24425 0.0
C96 C 0.30397 0.72155 0.22854 0.0
C97 C 0.28452 0.7116 0.22129 0.0
C98 C 0.28081 0.69378 0.2316 0.0
C99 C 0.3004 0.74205 0.23884 0.0
C100 C 0.31985 0.72208 0.21191 0.0
H101 H 0.20983 0.68607 0.19105 0.0
H102 H 0.2235 0.63459 0.24192 0.0
H103 H 0.26426 0.63934 0.21721 0.0
H104 H 0.2841 0.64923 0.2321 0.0
H105 H 0.26551 0.63315 0.24321 0.0
H106 H 0.23889 0.67732 0.26261 0.0
H107 H 0.2475 0.65252 0.26738 0.0
H108 H 0.26442 0.67371 0.26828 0.0
H109 H 0.2345 0.74822 0.15944 0.0
H110 H 0.29126 0.77756 0.1735 0.0
H111 H 0.29843 0.75269 0.19839 0.0
H112 H 0.22275 0.73918 0.20473 0.0
H113 H 0.20906 0.72828 0.18382 0.0
H114 H 0.21317 0.71471 0.20659 0.0
H115 H 0.25093 0.70451 0.15885 0.0
H116 H 0.23497 0.68794 0.17127 0.0
H117 H 0.22456 0.70907 0.15856 0.0
H118 H 0.18512 0.66044 0.19683 0.0
C119 C 0.21337 0.67526 0.20216 0.0
C120 C 0.97136 0.38443 0.99451 0.0
C121 C 0.95999 0.38215 0.97669 0.0
C122 C 0.94674 0.39744 0.9713 0.0
C123 C 0.95621 0.41652 0.00135 0.0
C124 C 0.96919 0.40155 0.00654 0.0
C125 C 0.98004 0.40592 0.02603 0.0
H126 H 0.99531 0.46499 0.10805 0.0
C127 C 0.95744 0.43216 0.01734 0.0
C128 C 0.97133 0.42595 0.03183 0.0
H129 H 0.0233 0.40909 0.09265 0.0
H130 H 0.00491 0.40739 0.06153 0.0
H131 H 0.95135 0.4526 0.09317 0.0
H132 H 0.99833 0.48356 0.06212 0.0
H133 H 0.9757 0.49589 0.05768 0.0
H134 H 0.98558 0.4946 0.08287 0.0
H135 H 0.95841 0.47807 0.09916 0.0
H136 H 0.94043 0.47191 0.07946 0.0
C137 C 0.9742 0.38931 0.04087 0.0
C138 C 0.00275 0.40767 0.02181 0.0
C139 C 0.91689 0.49528 0.01116 0.0
C140 C 0.9148 0.51231 0.02352 0.0
C141 C 0.92455 0.51308 0.04238 0.0
C142 C 0.93685 0.4974 0.0485 0.0
C143 C 0.93929 0.48073 0.03567 0.0
C144 C 0.92907 0.47974 0.01751 0.0
C145 C 0.93288 0.46068 0.00603 0.0
C146 C 0.94759 0.45065 0.01997 0.0
C147 C 0.9514 0.46249 0.03729 0.0
C148 C 0.91286 0.44872 0.00387 0.0
C149 C 0.9425 0.46617 0.9859 0.0
C150 C 0.99757 0.45253 0.09783 0.0
C151 C 0.01057 0.437 0.10295 0.0
C152 C 0.01308 0.42101 0.08926 0.0
C153 C 0.00241 0.42008 0.07111 0.0
C154 C 0.989 0.43529 0.06644 0.0
C155 C 0.98692 0.45133 0.07951 0.0
C156 C 0.97205 0.46613 0.07171 0.0
C157 C 0.96544 0.45613 0.05199 0.0
C158 C 0.97543 0.43805 0.04911 0.0
C159 C 0.95464 0.46747 0.08663 0.0
C160 C 0.98332 0.4862 0.06849 0.0
H161 H 0.93443 0.42564 0.97862 0.0
H162 H 0.98197 0.37321 0.99898 0.0
H163 H 0.00543 0.4134 0.00654 0.0
H164 H 0.01071 0.41852 0.03193 0.0
H165 H 0.01003 0.39291 0.02286 0.0
H166 H 0.95829 0.38451 0.03856 0.0
H167 H 0.98356 0.37589 0.03879 0.0
H168 H 0.97524 0.3943 0.05669 0.0
H169 H 0.90927 0.49414 0.99673 0.0
H170 H 0.9231 0.52606 0.05214 0.0
H171 H 0.94414 0.49895 0.06289 0.0
H172 H 0.90332 0.45121 0.01711 0.0
H173 H 0.90421 0.45332 0.99042 0.0
H174 H 0.91496 0.43238 0.00318 0.0
H175 H 0.95358 0.47868 0.98808 0.0
H176 H 0.95096 0.4538 0.9792 0.0
H177 H 0.931 0.47102 0.97489 0.0
H178 H 0.93766 0.39603 0.95775 0.0
C179 C 0.94479 0.41458 0.98352 0.0
C180 C 0.6644 0.77978 0.2638 0.0
C181 C 0.64962 0.76525 0.2589 0.0
C182 C 0.65349 0.75081 0.24392 0.0
C183 C 0.68585 0.7667 0.23788 0.0
C184 C 0.68226 0.78021 0.25324 0.0
C185 C 0.69899 0.79528 0.25633 0.0
H186 H 0.78746 0.83492 0.22758 0.0
C187 C 0.70545 0.77221 0.22917 0.0
C188 C 0.71319 0.78888 0.24012 0.0
H189 H 0.75095 0.85334 0.27708 0.0
H190 H 0.72702 0.82696 0.26904 0.0
H191 H 0.74963 0.82569 0.19578 0.0
H192 H 0.78496 0.79008 0.23535 0.0
H193 H 0.77842 0.77414 0.21506 0.0
H194 H 0.79347 0.79637 0.21093 0.0
H195 H 0.77561 0.82055 0.19224 0.0
H196 H 0.7562 0.80388 0.18257 0.0
C197 C 0.69052 0.81636 0.25255 0.0
C198 C 0.70812 0.79251 0.27757 0.0
C199 C 0.73062 0.7367 0.16627 0.0
C200 C 0.74794 0.73964 0.15485 0.0
C201 C 0.76267 0.75354 0.16185 0.0
C202 C 0.75987 0.76506 0.17915 0.0
C203 C 0.74214 0.76276 0.18981 0.0
C204 C 0.72806 0.74843 0.18372 0.0
C205 C 0.71049 0.74783 0.19762 0.0
C206 C 0.71619 0.76454 0.21257 0.0
C207 C 0.7347 0.77332 0.20767 0.0
C208 C 0.69136 0.75265 0.1854 0.0
C209 C 0.70984 0.72714 0.2076 0.0
C210 C 0.77417 0.83337 0.2365 0.0
C211 C 0.77108 0.84623 0.25298 0.0
C212 C 0.75377 0.84351 0.26443 0.0
C213 C 0.73985 0.82818 0.25971 0.0
C214 C 0.74319 0.81529 0.24333 0.0
C215 C 0.76015 0.81796 0.23208 0.0
C216 C 0.76145 0.80248 0.21557 0.0
C217 C 0.74245 0.79015 0.21876 0.0
C218 C 0.73178 0.79782 0.23493 0.0
C219 C 0.76083 0.81357 0.19541 0.0
C220 C 0.78059 0.79015 0.21921 0.0
H221 H 0.67348 0.74041 0.22175 0.0
H222 H 0.66187 0.79098 0.27535 0.0
H223 H 0.70711 0.77659 0.2821 0.0
H224 H 0.72428 0.79629 0.27848 0.0
H225 H 0.70015 0.80154 0.28891 0.0
H226 H 0.67924 0.81583 0.24009 0.0
H227 H 0.68307 0.82235 0.26606 0.0
H228 H 0.70197 0.8273 0.24784 0.0
H229 H 0.71908 0.72602 0.16142 0.0
H230 H 0.77643 0.75568 0.15377 0.0
H231 H 0.77157 0.77553 0.18337 0.0
H232 H 0.69421 0.76544 0.17535 0.0
H233 H 0.6864 0.7396 0.17594 0.0
H234 H 0.67883 0.75718 0.19484 0.0
H235 H 0.72524 0.72179 0.21074 0.0
H236 H 0.70256 0.7275 0.22229 0.0
H237 H 0.7021 0.71579 0.19774 0.0
H238 H 0.64224 0.73954 0.23986 0.0
C239 C 0.67154 0.75148 0.23334 0.0
C240 C 0.05094 0.93304 0.51716 0.0
C241 C 0.03244 0.92269 0.51734 0.0
C242 C 0.01781 0.92723 0.50265 0.0
C243 C 0.04077 0.95055 0.48719 0.0
C244 C 0.05473 0.94684 0.50212 0.0
C245 C 0.07381 0.9587 0.49973 0.0
H246 H 0.1322 0.01672 0.44234 0.0
C247 C 0.05009 0.96441 0.47288 0.0
C248 C 0.06945 0.96923 0.48025 0.0
H249 H 0.14487 0.99661 0.50222 0.0
H250 H 0.112 0.98084 0.50336 0.0
H251 H 0.08596 0.03038 0.45217 0.0
H252 H 0.11232 0.97846 0.42544 0.0
H253 H 0.08906 0.98091 0.41325 0.0
H254 H 0.10784 1.00053 0.41131 0.0
H255 H 0.0982 0.03036 0.42847 0.0
H256 H 0.07206 0.02394 0.43032 0.0
C257 C 0.07615 0.97365 0.51767 0.0
C258 C 0.09123 0.94388 0.49772 0.0
C259 C 0.01308 0.98426 0.40886 0.0
C260 C 0.01924 0.99445 0.39158 0.0
C261 C 0.03946 0.00085 0.39063 0.0
C262 C 0.05286 0.9981 0.40661 0.0
C263 C 0.04632 0.98841 0.4238 0.0
C264 C 0.02691 0.98113 0.42454 0.0
C265 C 0.02339 0.96931 0.44325 0.0
C266 C 0.04359 0.97172 0.454 0.0
C267 C 0.05681 0.98317 0.44257 0.0
C268 C 0.00653 0.97929 0.45515 0.0
C269 C 0.01881 0.94729 0.43685 0.0
C270 C 0.12782 0.00892 0.45569 0.0
C271 C 0.14105 0.00766 0.47215 0.0
C272 C 0.13481 0.99773 0.48941 0.0
C273 C 0.11579 0.98856 0.48999 0.0
C274 C 0.10285 0.98954 0.47319 0.0
C275 C 0.1088 0.99998 0.45662 0.0
C276 C 0.09281 1.00028 0.44053 0.0
C277 C 0.07626 0.9882 0.45015 0.0
C278 C 0.08235 0.98166 0.46909 0.0
C279 C 0.08691 0.02235 0.4375 0.0
C280 C 0.10083 0.98965 0.42155 0.0
H281 H 0.0102 0.94374 0.47681 0.0
H282 H 0.06261 0.93 0.52807 0.0
H283 H 0.08691 0.93128 0.48733 0.0
H284 H 0.10483 0.9507 0.49146 0.0
H285 H 0.09524 0.93745 0.51244 0.0
H286 H 0.06147 0.97708 0.52439 0.0
H287 H 0.08585 0.96756 0.5297 0.0
H288 H 0.08225 0.98838 0.51318 0.0
H289 H 0.99784 0.97891 0.4104 0.0
H290 H 0.04521 0.00786 0.37739 0.0
H291 H 0.06789 0.00353 0.40486 0.0
H292 H 0.00845 0.99585 0.45525 0.0
H293 H 0.99161 0.97554 0.44834 0.0
H294 H 0.00654 0.97502 0.47103 0.0
H295 H 0.0274 0.94301 0.42338 0.0
H296 H 0.02332 0.93648 0.44829 0.0
H297 H 0.00266 0.94497 0.43312 0.0
H298 H 0.0032 0.91998 0.50267 0.0
C299 C 0.02187 0.94107 0.48762 0.0
C300 C 0.26168 0.66946 0.79017 0.0
C301 C 0.26053 0.65383 0.77579 0.0
C302 C 0.2467 0.65524 0.75971 0.0
C303 C 0.23437 0.68648 0.77358 0.0
C304 C 0.24851 0.68545 0.78885 0.0
C305 C 0.24723 0.7026 0.80362 0.0
H306 H 0.19632 0.78169 0.83898 0.0
C307 C 0.22211 0.7044 0.77741 0.0
C308 C 0.22966 0.71388 0.79501 0.0
H309 H 0.25191 0.75804 0.86203 0.0
H310 H 0.25207 0.73386 0.83502 0.0
H311 H 0.17491 0.73996 0.8252 0.0
H312 H 0.21099 0.78348 0.79526 0.0
H313 H 0.19465 0.77345 0.77672 0.0
H314 H 0.18461 0.78661 0.79804 0.0
H315 H 0.16689 0.76476 0.81955 0.0
H316 H 0.16349 0.74439 0.80179 0.0
C317 C 0.24259 0.69387 0.82438 0.0
C318 C 0.26699 0.71505 0.80298 0.0
C319 C 0.16234 0.71993 0.73195 0.0
C320 C 0.1481 0.73523 0.73242 0.0
C321 C 0.14946 0.74985 0.74786 0.0
C322 C 0.16454 0.74924 0.7626 0.0
C323 C 0.17854 0.73383 0.76205 0.0
C324 C 0.17745 0.71958 0.74683 0.0
C325 C 0.19384 0.70446 0.74872 0.0
C326 C 0.20497 0.71215 0.76746 0.0
C327 C 0.19574 0.72923 0.77525 0.0
C328 C 0.18393 0.68367 0.75182 0.0
C329 C 0.20699 0.7057 0.72995 0.0
C330 C 0.20869 0.77151 0.83825 0.0
C331 C 0.22389 0.77175 0.85314 0.0
C332 C 0.23959 0.75797 0.8513 0.0
C333 C 0.23981 0.74398 0.83542 0.0
C334 C 0.22429 0.74374 0.82096 0.0
C335 C 0.20936 0.75767 0.82229 0.0
C336 C 0.19483 0.75613 0.80487 0.0
C337 C 0.20321 0.73861 0.79316 0.0
C338 C 0.22028 0.73119 0.8028 0.0
C339 C 0.17384 0.75117 0.81313 0.0
C340 C 0.19613 0.77592 0.7931 0.0
H341 H 0.22317 0.67149 0.74615 0.0
H342 H 0.27238 0.66904 0.80252 0.0
H343 H 0.27378 0.71415 0.78793 0.0
H344 H 0.26468 0.73121 0.80568 0.0
H345 H 0.27819 0.7096 0.81399 0.0
H346 H 0.23105 0.68171 0.82294 0.0
H347 H 0.25621 0.68747 0.83135 0.0
H348 H 0.23641 0.70491 0.83491 0.0
H349 H 0.1618 0.70854 0.72022 0.0
H350 H 0.13855 0.7616 0.7488 0.0
H351 H 0.16455 0.7607 0.774 0.0
H352 H 0.17083 0.68491 0.76177 0.0
H353 H 0.17854 0.67695 0.73735 0.0
H354 H 0.19395 0.67308 0.75928 0.0
H355 H 0.2089 0.72149 0.72524 0.0
H356 H 0.22232 0.70037 0.73263 0.0
H357 H 0.20007 0.69709 0.71718 0.0
H358 H 0.24546 0.64341 0.74846 0.0
C359 C 0.23363 0.67147 0.75852 0.0
C360 C 0.88794 0.51501 0.4839 0.0
C361 C 0.87852 0.50141 0.47039 0.0
C362 C 0.88747 0.49718 0.45194 0.0
C363 C 0.91538 0.5194 0.46091 0.0
C364 C 0.90622 0.52398 0.47879 0.0
C365 C 0.91789 0.53949 0.49098 0.0
H366 H 0.00174 0.59716 0.50212 0.0
C367 C 0.93458 0.53068 0.46046 0.0
C368 C 0.93614 0.54245 0.4781 0.0
H369 H 0.94765 0.60076 0.53646 0.0
H370 H 0.93365 0.57217 0.51801 0.0
H371 H 0.98056 0.59851 0.46454 0.0
H372 H 0.00316 0.54766 0.49513 0.0
H373 H 0.00884 0.54434 0.46971 0.0
H374 H 0.01854 0.56609 0.48328 0.0
H375 H 0.00587 0.59078 0.46165 0.0
H376 H 0.98588 0.58158 0.44525 0.0
C377 C 0.90524 0.55868 0.49245 0.0
C378 C 0.92346 0.53054 0.51147 0.0
C379 C 0.9812 0.52368 0.4011 0.0
C380 C 0.99988 0.53269 0.39714 0.0
C381 C 0.00938 0.5449 0.41193 0.0
C382 C 1.00031 0.54855 0.43021 0.0
C383 C 0.98133 0.54018 0.43375 0.0
C384 C 0.97213 0.52776 0.41949 0.0
C385 C 0.95193 0.5203 0.4262 0.0
C386 C 0.95041 0.53082 0.4465 0.0
C387 C 0.96772 0.54237 0.4507 0.0
C388 C 0.93585 0.52747 0.41111 0.0
C389 C 0.95285 0.49729 0.42813 0.0
C390 C 0.9869 0.59183 0.50585 0.0
C391 C 0.97576 0.60154 0.52061 0.0
C392 C 0.95667 0.59363 0.52519 0.0
C393 C 0.9484 0.57724 0.51422 0.0
C394 C 0.95913 0.56896 0.49827 0.0
C395 C 0.9781 0.57628 0.49446 0.0
C396 C 0.9864 0.56787 0.47549 0.0
C397 C 0.96932 0.5542 0.46845 0.0
C398 C 0.95354 0.5545 0.48199 0.0
C399 C 0.99004 0.58546 0.46094 0.0
C400 C 0.00533 0.55594 0.48101 0.0
H401 H 0.9121 0.50204 0.43298 0.0
H402 H 0.88114 0.51865 0.49806 0.0
H403 H 0.92978 0.51538 0.50942 0.0
H404 H 0.93493 0.53954 0.51981 0.0
H405 H 0.91007 0.52912 0.52098 0.0
H406 H 0.89421 0.55952 0.47983 0.0
H407 H 0.89674 0.55921 0.50656 0.0
H408 H 0.91447 0.57251 0.49137 0.0
H409 H 0.97367 0.5141 0.38999 0.0
H410 H 0.02396 0.5516 0.40934 0.0
H411 H 0.0084 0.55797 0.44077 0.0
H412 H 0.93959 0.54277 0.40588 0.0
H413 H 0.93478 0.51738 0.39774 0.0
H414 H 0.9209 0.52871 0.41771 0.0
H415 H 0.96763 0.49282 0.43434 0.0
H416 H 0.94178 0.49124 0.43858 0.0
H417 H 0.9507 0.4897 0.41331 0.0
H418 H 0.88036 0.48668 0.4414 0.0
C419 C 0.90591 0.50601 0.44717 0.0
C420 C 0.81523 0.77427 0.85745 0.0
C421 C 0.80121 0.77797 0.87246 0.0
C422 C 0.78981 0.79548 0.87161 0.0
C423 C 0.80601 0.80489 0.84093 0.0
C424 C 0.81742 0.7879 0.84195 0.0
C425 C 0.83151 0.78614 0.82472 0.0
H426 H 0.86061 0.81924 0.73466 0.0
C427 C 0.81175 0.81581 0.82284 0.0
C428 C 0.8269 0.80506 0.81341 0.0
H429 H 0.88078 0.7669 0.76543 0.0
H430 H 0.86181 0.77644 0.79459 0.0
H431 H 0.86649 0.84894 0.77092 0.0
H432 H 0.81407 0.81729 0.7483 0.0
H433 H 0.80889 0.84297 0.75162 0.0
H434 H 0.82809 0.83571 0.73485 0.0
H435 H 0.85095 0.8593 0.75174 0.0
H436 H 0.84615 0.86363 0.77798 0.0
C437 C 0.85324 0.78637 0.83318 0.0
C438 C 0.82552 0.76699 0.81251 0.0
C439 C 0.77281 0.87675 0.80175 0.0
C440 C 0.77513 0.8906 0.78621 0.0
C441 C 0.79188 0.88881 0.77375 0.0
C442 C 0.80523 0.87303 0.77596 0.0
C443 C 0.80206 0.85893 0.79092 0.0
C444 C 0.78659 0.86142 0.80405 0.0
C445 C 0.78677 0.84613 0.82031 0.0
C446 C 0.80439 0.83352 0.81418 0.0
C447 C 0.8129 0.8408 0.79665 0.0
C448 C 0.79068 0.85715 0.84067 0.0
C449 C 0.7668 0.83405 0.81899 0.0
C450 C 0.86095 0.80995 0.74778 0.0
C451 C 0.87181 0.79221 0.74783 0.0
C452 C 0.87238 0.7806 0.76517 0.0
C453 C 0.86124 0.78609 0.78195 0.0
C454 C 0.84948 0.80334 0.78126 0.0
C455 C 0.84999 0.81527 0.76459 0.0
C456 C 0.83709 0.83333 0.76661 0.0
C457 C 0.82793 0.82979 0.78688 0.0
C458 C 0.83507 0.81212 0.79531 0.0
C459 C 0.85074 0.85234 0.76671 0.0
C460 C 0.82118 0.83245 0.74945 0.0
H461 H 0.78284 0.82184 0.856 0.0
H462 H 0.82439 0.76107 0.85781 0.0
H463 H 0.80895 0.76526 0.81133 0.0
H464 H 0.8306 0.76721 0.79693 0.0
H465 H 0.8314 0.75343 0.81979 0.0
H466 H 0.85471 0.79621 0.84675 0.0
H467 H 0.85788 0.77114 0.83745 0.0
H468 H 0.86414 0.79259 0.82261 0.0
H469 H 0.76031 0.87733 0.81175 0.0
H470 H 0.79474 0.89953 0.76216 0.0
H471 H 0.81739 0.87229 0.76577 0.0
H472 H 0.79867 0.87171 0.83874 0.0
H473 H 0.77645 0.86031 0.84835 0.0
H474 H 0.80057 0.84869 0.8508 0.0
H475 H 0.76298 0.82996 0.80315 0.0
H476 H 0.76733 0.81979 0.827 0.0
H477 H 0.75432 0.84295 0.82501 0.0
H478 H 0.77878 0.79856 0.88287 0.0
C479 C 0.79213 0.80893 0.85595 0.0
C480 C 0.30825 0.27176 0.37013 0.0
C481 C 0.29117 0.27251 0.38206 0.0
C482 C 0.27771 0.2883 0.37953 0.0
C483 C 0.29815 0.30181 0.35314 0.0
C484 C 0.31145 0.28648 0.3559 0.0
C485 C 0.32884 0.28768 0.342 0.0
H486 H 0.37371 0.33267 0.26449 0.0
C487 C 0.30597 0.31464 0.33717 0.0
C488 C 0.32408 0.30657 0.33077 0.0
H489 H 0.39137 0.27888 0.29455 0.0
H490 H 0.36481 0.2831 0.31818 0.0
H491 H 0.36653 0.35835 0.30219 0.0
H492 H 0.32488 0.32362 0.26549 0.0
H493 H 0.31604 0.34818 0.26902 0.0
H494 H 0.33951 0.34461 0.25719 0.0
H495 H 0.35465 0.36886 0.28065 0.0
H496 H 0.3433 0.36989 0.30498 0.0
C497 C 0.34833 0.29009 0.35477 0.0
C498 C 0.32796 0.26883 0.32812 0.0
C499 C 0.26485 0.37217 0.31095 0.0
C500 C 0.26891 0.38757 0.29731 0.0
C501 C 0.28834 0.38897 0.28937 0.0
C502 C 0.30278 0.37469 0.29374 0.0
C503 C 0.29802 0.35893 0.30646 0.0
C504 C 0.2797 0.35839 0.3156 0.0
C505 C 0.27832 0.34195 0.33067 0.0
C506 C 0.29842 0.33205 0.32806 0.0
C507 C 0.30962 0.34178 0.31346 0.0
C508 C 0.27636 0.35165 0.35178 0.0
C509 C 0.2607 0.32773 0.32443 0.0
C510 C 0.37176 0.32175 0.27612 0.0
C511 C 0.38447 0.30529 0.27752 0.0
C512 C 0.38181 0.29172 0.29319 0.0
C513 C 0.36626 0.2941 0.30678 0.0
C514 C 0.35318 0.3102 0.30467 0.0
C515 C 0.35627 0.32388 0.28973 0.0
C516 C 0.34099 0.34012 0.28976 0.0
C517 C 0.32778 0.33351 0.30677 0.0
C518 C 0.33497 0.31598 0.3154 0.0
C519 C 0.35182 0.36041 0.29451 0.0
C520 C 0.32972 0.33925 0.26931 0.0
H521 H 0.2702 0.31442 0.36363 0.0
H522 H 0.31902 0.25997 0.3719 0.0
H523 H 0.3122 0.2641 0.32472 0.0
H524 H 0.33453 0.27139 0.31334 0.0
H525 H 0.33552 0.25605 0.33526 0.0
H526 H 0.34588 0.29971 0.36822 0.0
H527 H 0.35359 0.27538 0.36001 0.0
H528 H 0.36055 0.29763 0.34673 0.0
H529 H 0.25036 0.37044 0.31767 0.0
H530 H 0.29255 0.40107 0.27969 0.0
H531 H 0.31707 0.3764 0.28691 0.0
H532 H 0.28268 0.36717 0.3524 0.0
H533 H 0.26045 0.35245 0.3562 0.0
H534 H 0.28491 0.34364 0.36339 0.0
H535 H 0.26113 0.32415 0.30812 0.0
H536 H 0.26114 0.31324 0.33205 0.0
H537 H 0.24612 0.33474 0.32753 0.0
H538 H 0.26439 0.28912 0.38846 0.0
C539 C 0.28109 0.30293 0.36509 0.0
C540 C 0.48724 0.88199 0.51289 0.0
C541 C 0.48123 0.88161 0.49255 0.0
C542 C 0.47208 0.89879 0.48473 0.0
C543 C 0.4748 0.91571 0.51712 0.0
C544 C 0.48418 0.89915 0.52469 0.0
C545 C 0.49092 0.90231 0.54613 0.0
H546 H 0.49825 0.96247 0.62862 0.0
C547 C 0.47383 0.93097 0.5334 0.0
C548 C 0.48349 0.92326 0.55036 0.0
H549 H 0.5223 0.90342 0.61992 0.0
H550 H 0.50814 0.90163 0.58651 0.0
H551 H 0.45663 0.95247 0.61005 0.0
H552 H 0.50846 0.97931 0.58353 0.0
H553 H 0.48729 0.99345 0.57723 0.0
H554 H 0.49438 0.99082 0.60311 0.0
H555 H 0.46202 0.97875 0.61275 0.0
H556 H 0.4474 0.96864 0.59181 0.0
C557 C 0.4801 0.88655 0.55899 0.0
C558 C 0.5141 0.90139 0.54706 0.0
C559 C 0.43738 0.99614 0.52215 0.0
C560 C 0.43279 0.01227 0.53494 0.0
C561 C 0.43919 0.01198 0.5551 0.0
C562 C 0.45037 0.99602 0.56236 0.0
C563 C 0.45499 0.98005 0.54937 0.0
C564 C 0.44826 0.98013 0.5297 0.0
C565 C 0.45375 0.96141 0.51837 0.0
C566 C 0.46497 0.95013 0.53446 0.0
C567 C 0.46588 0.96128 0.55248 0.0
C568 C 0.43414 0.9504 0.51162 0.0
C569 C 0.46753 0.9674 0.50099 0.0
C570 C 0.50065 0.94928 0.61939 0.0
C571 C 0.51146 0.93311 0.62687 0.0
C572 C 0.5139 0.91602 0.61455 0.0
C573 C 0.50575 0.91504 0.5951 0.0
C574 C 0.49499 0.93132 0.58781 0.0
C575 C 0.49249 0.94802 0.59992 0.0
C576 C 0.48011 0.96361 0.58982 0.0
C577 C 0.47622 0.95378 0.56942 0.0
C578 C 0.48495 0.93487 0.56835 0.0
C579 C 0.46056 0.9662 0.60168 0.0
C580 C 0.49308 0.98293 0.58837 0.0
H581 H 0.46175 0.92821 0.48999 0.0
H582 H 0.49417 0.86921 0.51967 0.0
H583 H 0.52077 0.90634 0.5328 0.0
H584 H 0.52086 0.9116 0.55858 0.0
H585 H 0.51917 0.88592 0.54978 0.0
H586 H 0.46424 0.8845 0.55394 0.0
H587 H 0.4874 0.87179 0.55776 0.0
H588 H 0.47943 0.89098 0.57494 0.0
H589 H 0.43236 0.99587 0.50664 0.0
H590 H 0.43583 0.0243 0.56517 0.0
H591 H 0.45502 0.99677 0.57779 0.0
H592 H 0.42292 0.95094 0.5237 0.0
H593 H 0.42744 0.95747 0.49821 0.0
H594 H 0.43616 0.93436 0.50833 0.0
H595 H 0.47721 0.98053 0.50531 0.0
H596 H 0.47807 0.95553 0.4969 0.0
H597 H 0.45863 0.97146 0.48751 0.0
H598 H 0.46775 0.89941 0.46908 0.0
C599 C 0.46875 0.9157 0.49689 0.0
C600 C 0.16973 0.27981 0.75283 0.0
C601 C 0.15461 0.26486 0.75196 0.0
C602 C 0.15695 0.24834 0.73883 0.0
C603 C 0.18809 0.26276 0.72678 0.0
C604 C 0.18601 0.27862 0.74005 0.0
C605 C 0.2022 0.29431 0.73808 0.0
H606 H 0.28482 0.32871 0.69181 0.0
C607 C 0.20622 0.26679 0.71486 0.0
C608 C 0.21442 0.28533 0.7214 0.0
H609 H 0.25191 0.35693 0.73941 0.0
H610 H 0.22904 0.32887 0.73985 0.0
H611 H 0.24525 0.31265 0.66632 0.0
H612 H 0.28372 0.285 0.70973 0.0
H613 H 0.27748 0.26665 0.69147 0.0
H614 H 0.29127 0.28882 0.68444 0.0
H615 H 0.27062 0.30612 0.66124 0.0
H616 H 0.25026 0.28833 0.65757 0.0
C617 C 0.19226 0.31411 0.73181 0.0
C618 C 0.2142 0.29566 0.75812 0.0
C619 C 0.22775 0.21691 0.66126 0.0
C620 C 0.2439 0.21662 0.648 0.0
C621 C 0.25765 0.2329 0.64847 0.0
C622 C 0.25537 0.24911 0.66177 0.0
C623 C 0.23917 0.24918 0.67487 0.0
C624 C 0.22572 0.23323 0.67453 0.0
C625 C 0.20947 0.23587 0.68963 0.0
C626 C 0.21551 0.25592 0.69919 0.0
C627 C 0.23288 0.2637 0.69037 0.0
C628 C 0.18916 0.23684 0.6782 0.0
C629 C 0.21081 0.21864 0.70473 0.0
C630 C 0.27257 0.3289 0.70219 0.0
C631 C 0.27034 0.3451 0.71569 0.0
C632 C 0.25427 0.34457 0.72909 0.0
C633 C 0.24087 0.32826 0.72925 0.0
C634 C 0.24333 0.31217 0.71579 0.0
C635 C 0.25896 0.31264 0.70254 0.0
C636 C 0.2592 0.29407 0.68944 0.0
C637 C 0.24104 0.28255 0.69691 0.0
C638 C 0.23185 0.29326 0.71234 0.0
C639 C 0.25633 0.30047 0.66743 0.0
C640 C 0.27895 0.28302 0.69377 0.0
H641 H 0.17433 0.23444 0.71636 0.0
H642 H 0.1687 0.29257 0.76293 0.0
H643 H 0.21593 0.28056 0.76462 0.0
H644 H 0.22964 0.30144 0.7564 0.0
H645 H 0.20648 0.30513 0.76927 0.0
H646 H 0.17842 0.31114 0.72264 0.0
H647 H 0.18801 0.32318 0.7451 0.0
H648 H 0.20183 0.32332 0.72214 0.0
H649 H 0.21677 0.20481 0.66121 0.0
H650 H 0.27042 0.23299 0.63874 0.0
H651 H 0.26638 0.26095 0.66137 0.0
H652 H 0.19086 0.24479 0.66382 0.0
H653 H 0.18306 0.2216 0.67466 0.0
H654 H 0.17787 0.24538 0.68644 0.0
H655 H 0.2267 0.21541 0.70849 0.0
H656 H 0.20388 0.22224 0.71918 0.0
H657 H 0.20376 0.20468 0.69842 0.0
H658 H 0.14554 0.23665 0.73769 0.0
C659 C 0.1736 0.24719 0.72628 0.0
C660 C 0.72097 0.1435 0.73607 0.0
C661 C 0.70223 0.14093 0.72645 0.0
C662 C 0.69747 0.15274 0.70985 0.0
C663 C 0.72995 0.16949 0.71274 0.0
C664 C 0.73465 0.15761 0.72882 0.0
C665 C 0.75566 0.16137 0.73656 0.0
H666 H 0.84439 0.21091 0.72985 0.0
C667 C 0.74765 0.1823 0.7087 0.0
C668 C 0.76287 0.17736 0.7224 0.0
H669 H 0.82694 0.16675 0.77311 0.0
H670 H 0.79457 0.16318 0.75705 0.0
H671 H 0.80133 0.23473 0.73077 0.0
H672 H 0.82525 0.18944 0.69177 0.0
H673 H 0.81079 0.20516 0.67675 0.0
H674 H 0.83264 0.21527 0.68996 0.0
H675 H 0.82257 0.23887 0.7152 0.0
H676 H 0.79749 0.24169 0.7057 0.0
C677 C 0.75454 0.1694 0.7584 0.0
C678 C 0.76742 0.14172 0.73412 0.0
C679 C 0.7436 0.23546 0.6553 0.0
C680 C 0.7579 0.24842 0.64679 0.0
C681 C 0.77796 0.24744 0.65384 0.0
C682 C 0.78344 0.23454 0.66925 0.0
C683 C 0.76889 0.22203 0.67766 0.0
C684 C 0.74947 0.22224 0.67029 0.0
C685 C 0.73648 0.20641 0.67955 0.0
C686 C 0.75107 0.19745 0.69446 0.0
C687 C 0.76998 0.20686 0.69349 0.0
C688 C 0.719 0.21681 0.69014 0.0
C689 C 0.72977 0.19109 0.66292 0.0
C690 C 0.83357 0.20055 0.73597 0.0
C691 C 0.83842 0.18905 0.75281 0.0
C692 C 0.82388 0.17555 0.75999 0.0
C693 C 0.80494 0.17362 0.75074 0.0
C694 C 0.80029 0.18536 0.7341 0.0
C695 C 0.81449 0.19857 0.72699 0.0
C696 C 0.80673 0.2101 0.70939 0.0
C697 C 0.7855 0.20168 0.7072 0.0
C698 C 0.78188 0.18714 0.72167 0.0
C699 C 0.80708 0.23258 0.71538 0.0
C700 C 0.81951 0.20493 0.69096 0.0
H701 H 0.70663 0.17586 0.6905 0.0
H702 H 0.72505 0.13437 0.74869 0.0
H703 H 0.7626 0.13345 0.72022 0.0
H704 H 0.78366 0.14428 0.7325 0.0
H705 H 0.76488 0.13166 0.74692 0.0
H706 H 0.74124 0.17897 0.76035 0.0
H707 H 0.75332 0.15694 0.76911 0.0
H708 H 0.76743 0.17915 0.76283 0.0
H709 H 0.72806 0.23548 0.65055 0.0
H710 H 0.78969 0.25638 0.64729 0.0
H711 H 0.79889 0.23465 0.67389 0.0
H712 H 0.72464 0.22987 0.69927 0.0
H713 H 0.70791 0.22233 0.67906 0.0
H714 H 0.71112 0.20695 0.70059 0.0
H715 H 0.74013 0.19121 0.65008 0.0
H716 H 0.72995 0.17548 0.66816 0.0
H717 H 0.71459 0.19441 0.65696 0.0
H718 H 0.68307 0.15092 0.70229 0.0
C719 C 0.71117 0.16714 0.70305 0.0
C720 C 0.54441 0.58464 0.4819 0.0
C721 C 0.53143 0.60099 0.48212 0.0
C722 C 0.51618 0.60147 0.49644 0.0
C723 C 0.52759 0.57019 0.51033 0.0
C724 C 0.54222 0.56953 0.496 0.0
C725 C 0.55489 0.55124 0.49769 0.0
H726 H 0.57702 0.4654 0.54491 0.0
C727 C 0.52977 0.55236 0.52308 0.0
C728 C 0.54575 0.5412 0.51564 0.0
H729 H 0.60467 0.48989 0.49249 0.0
H730 H 0.58303 0.51831 0.49409 0.0
H731 H 0.5751 0.50616 0.56927 0.0
H732 H 0.53135 0.47532 0.53154 0.0
H733 H 0.51922 0.48372 0.55316 0.0
H734 H 0.53934 0.46631 0.55547 0.0
H735 H 0.56111 0.4849 0.57777 0.0
H736 H 0.55182 0.51001 0.58025 0.0
C737 C 0.57681 0.5582 0.502 0.0
C738 C 0.55184 0.53848 0.47826 0.0
C739 C 0.48422 0.54185 0.58266 0.0
C740 C 0.48345 0.52723 0.59764 0.0
C741 C 0.49739 0.51161 0.59701 0.0
C742 C 0.51155 0.51042 0.58185 0.0
C743 C 0.51207 0.52506 0.56705 0.0
C744 C 0.49865 0.54053 0.56767 0.0
C745 C 0.50192 0.55509 0.55099 0.0
C746 C 0.51941 0.54572 0.54025 0.0
C747 C 0.5252 0.52805 0.5497 0.0
C748 C 0.50767 0.57572 0.56051 0.0
C749 C 0.48278 0.55511 0.53761 0.0
C750 C 0.57832 0.47679 0.53366 0.0
C751 C 0.59262 0.47527 0.5185 0.0
C752 C 0.59399 0.49072 0.50445 0.0
C753 C 0.58127 0.50718 0.50531 0.0
C754 C 0.56693 0.50834 0.52041 0.0
C755 C 0.5657 0.49333 0.53431 0.0
C756 C 0.54964 0.4971 0.54935 0.0
C757 C 0.54119 0.51667 0.54199 0.0
C758 C 0.5514 0.5232 0.52506 0.0
C759 C 0.55977 0.49955 0.57032 0.0
C760 C 0.53405 0.47971 0.5475 0.0
H761 H 0.50244 0.58755 0.52114 0.0
H762 H 0.55606 0.58358 0.4709 0.0
H763 H 0.5363 0.53975 0.47221 0.0
H764 H 0.5537 0.52231 0.48066 0.0
H765 H 0.5622 0.54344 0.46645 0.0
H766 H 0.57734 0.57149 0.51225 0.0
H767 H 0.58437 0.56243 0.48799 0.0
H768 H 0.58577 0.54684 0.50969 0.0
H769 H 0.47377 0.55403 0.58248 0.0
H770 H 0.49764 0.50038 0.60849 0.0
H771 H 0.52165 0.49815 0.58234 0.0
H772 H 0.51758 0.57394 0.57389 0.0
H773 H 0.49417 0.58379 0.56538 0.0
H774 H 0.51628 0.58536 0.55042 0.0
H775 H 0.47619 0.53975 0.536 0.0
H776 H 0.48569 0.55983 0.52218 0.0
H777 H 0.47125 0.56488 0.54416 0.0
H778 H 0.50604 0.61391 0.49705 0.0
C779 C 0.51421 0.58621 0.51053 0.0
C780 C 0.53962 0.4406 0.0138 0.0
C781 C 0.5219 0.42896 0.0137 0.0
C782 C 0.50805 0.43113 0.99766 0.0
C783 C 0.52976 0.45601 0.98259 0.0
C784 C 0.54304 0.45408 0.99848 0.0
C785 C 0.56057 0.46829 0.99756 0.0
H786 H 0.60999 0.54245 0.95124 0.0
C787 C 0.53824 0.47124 0.96908 0.0
C788 C 0.5562 0.4785 0.97797 0.0
H789 H 0.62269 0.51687 0.00897 0.0
H790 H 0.59516 0.49362 0.00429 0.0
H791 H 0.56053 0.54242 0.95522 0.0
H792 H 0.60201 0.50203 0.92833 0.0
H793 H 0.57953 0.49893 0.91452 0.0
H794 H 0.59249 0.5229 0.9149 0.0
H795 H 0.57635 0.54839 0.93462 0.0
H796 H 0.55252 0.53614 0.93051 0.0
C797 C 0.55967 0.48299 0.0158 0.0
C798 C 0.5799 0.45588 0.99659 0.0
C799 C 0.50302 0.48811 0.90327 0.0
C800 C 0.50866 0.49991 0.88687 0.0
C801 C 0.52766 0.50956 0.88773 0.0
C802 C 0.54023 0.50829 0.90463 0.0
C803 C 0.5341 0.49693 0.92092 0.0
C804 C 0.51608 0.48654 0.91986 0.0
C805 C 0.51305 0.47363 0.93789 0.0
C806 C 0.53197 0.4785 0.95012 0.0
C807 C 0.54403 0.49253 0.94023 0.0
C808 C 0.49406 0.48056 0.9487 0.0
C809 C 0.51215 0.45151 0.93068 0.0
C810 C 0.60677 0.53179 0.96282 0.0
C811 C 0.61833 0.53167 0.98064 0.0
C812 C 0.61375 0.51755 0.99533 0.0
C813 C 0.59774 0.50401 0.99256 0.0
C814 C 0.58596 0.50463 0.97497 0.0
C815 C 0.59059 0.51824 0.96037 0.0
C816 C 0.57626 0.51659 0.94271 0.0
C817 C 0.56186 0.5003 0.94958 0.0
C818 C 0.56779 0.49334 0.96838 0.0
C819 C 0.56584 0.53693 0.94047 0.0
C820 C 0.58808 0.50989 0.92406 0.0
H821 H 0.50078 0.44558 0.97042 0.0
H822 H 0.55086 0.43929 0.02554 0.0
H823 H 0.57758 0.44249 0.98664 0.0
H824 H 0.59263 0.46419 0.99023 0.0
H825 H 0.58437 0.45057 0.01165 0.0
H826 H 0.54428 0.48399 0.02175 0.0
H827 H 0.56959 0.47819 0.02827 0.0
H828 H 0.56365 0.49856 0.0119 0.0
H829 H 0.4887 0.48034 0.90347 0.0
H830 H 0.53309 0.51804 0.87524 0.0
H831 H 0.55432 0.51617 0.90433 0.0
H832 H 0.49323 0.49716 0.94889 0.0
H833 H 0.48031 0.47449 0.94104 0.0
H834 H 0.49387 0.47625 0.96456 0.0
H835 H 0.52326 0.44881 0.91878 0.0
H836 H 0.51597 0.44095 0.94258 0.0
H837 H 0.4971 0.44745 0.92437 0.0
H838 H 0.49408 0.42269 0.99722 0.0
C839 C 0.51191 0.44453 0.98211 0.0
C840 C 0.761 0.15986 0.27538 0.0
C841 C 0.7612 0.14906 0.257 0.0
C842 C 0.74869 0.15569 0.24121 0.0
C843 C 0.73546 0.18183 0.26247 0.0
C844 C 0.74849 0.17636 0.27755 0.0
C845 C 0.74806 0.19061 0.29524 0.0
H846 H 0.71268 0.27542 0.33767 0.0
C847 C 0.72425 0.19936 0.26958 0.0
C848 C 0.73191 0.20493 0.28856 0.0
H849 H 0.761 0.23841 0.35828 0.0
H850 H 0.75453 0.21509 0.33102 0.0
H851 H 0.68236 0.23663 0.32584 0.0
H852 H 0.72196 0.27319 0.29096 0.0
H853 H 0.69881 0.27018 0.27807 0.0
H854 H 0.69972 0.28266 0.30214 0.0
H855 H 0.67622 0.26168 0.31911 0.0
H856 H 0.67057 0.2406 0.30261 0.0
C857 C 0.74164 0.17872 0.31379 0.0
C858 C 0.76894 0.20109 0.29747 0.0
C859 C 0.66336 0.22144 0.23008 0.0
C860 C 0.64866 0.23577 0.23366 0.0
C861 C 0.65126 0.24913 0.2501 0.0
C862 C 0.66776 0.24756 0.26329 0.0
C863 C 0.68184 0.23249 0.26 0.0
C864 C 0.67964 0.21998 0.24339 0.0
C865 C 0.69593 0.20483 0.2421 0.0
C866 C 0.70772 0.20958 0.26126 0.0
C867 C 0.69953 0.22588 0.27166 0.0
C868 C 0.6861 0.18369 0.2423 0.0
C869 C 0.70835 0.20906 0.2232 0.0
C870 C 0.72167 0.26216 0.33636 0.0
C871 C 0.7376 0.25891 0.34993 0.0
C872 C 0.74893 0.24145 0.34778 0.0
C873 C 0.74521 0.22794 0.3319 0.0
C874 C 0.73003 0.23188 0.31784 0.0
C875 C 0.71824 0.2485 0.32036 0.0
C876 C 0.70267 0.24994 0.30384 0.0
C877 C 0.70797 0.23222 0.29047 0.0
C878 C 0.72395 0.22166 0.29889 0.0
C879 C 0.68179 0.24723 0.3132 0.0
C880 C 0.70576 0.27008 0.29316 0.0
H881 H 0.72652 0.17575 0.2314 0.0
H882 H 0.77024 0.15575 0.28803 0.0
H883 H 0.77727 0.20064 0.28321 0.0
H884 H 0.7679 0.21722 0.30121 0.0
H885 H 0.77837 0.19381 0.30899 0.0
H886 H 0.72894 0.16832 0.30986 0.0
H887 H 0.75415 0.16965 0.31962 0.0
H888 H 0.73627 0.18841 0.32603 0.0
H889 H 0.662 0.21125 0.21733 0.0
H890 H 0.64013 0.26031 0.25316 0.0
H891 H 0.66877 0.25791 0.27574 0.0
H892 H 0.67496 0.18272 0.25442 0.0
H893 H 0.6782 0.18019 0.22786 0.0
H894 H 0.69687 0.17173 0.2451 0.0
H895 H 0.70663 0.2247 0.2181 0.0
H896 H 0.72463 0.20757 0.22604 0.0
H897 H 0.70367 0.19897 0.21051 0.0
H898 H 0.7489 0.14874 0.2265 0.0
C899 C 0.73575 0.17174 0.24393 0.0
C900 C 0.39086 0.02067 0.99786 0.0
C901 C 0.38729 0.00084 0.99089 0.0
C902 C 0.40225 0.99155 0.97948 0.0
C903 C 0.423 0.02158 0.9815 0.0
C904 C 0.40886 0.03054 0.99331 0.0
C905 C 0.41581 0.05087 0.001 0.0
H906 H 0.48937 0.12191 0.00749 0.0
C907 C 0.43997 0.03577 0.97947 0.0
C908 C 0.43602 0.05289 0.99108 0.0
H909 H 0.43374 0.11985 0.03944 0.0
H910 H 0.42368 0.08968 0.02124 0.0
H911 H 0.47049 0.11005 0.96511 0.0
H912 H 0.499 0.07471 0.01024 0.0
H913 H 0.50909 0.06858 0.98677 0.0
H914 H 0.51163 0.09376 0.99637 0.0
H915 H 0.4972 0.10874 0.96723 0.0
H916 H 0.48266 0.09078 0.95228 0.0
C917 C 0.40097 0.06661 0.99332 0.0
C918 C 0.41782 0.05006 0.02414 0.0
C919 C 0.49755 0.01776 0.93449 0.0
C920 C 0.51487 0.0282 0.92874 0.0
C921 C 0.51831 0.04792 0.93589 0.0
C922 C 0.50493 0.05689 0.9491 0.0
C923 C 0.48788 0.04607 0.95509 0.0
C924 C 0.48424 0.02699 0.94746 0.0
C925 C 0.46499 0.01802 0.95476 0.0
C926 C 0.4577 0.03483 0.96815 0.0
C927 C 0.4713 0.05107 0.96852 0.0
C928 C 0.45092 0.0142 0.93637 0.0
C929 C 0.46996 0.99903 0.96678 0.0
C930 C 0.47509 0.11487 0.01067 0.0
C931 C 0.46246 0.12312 0.0251 0.0
C932 C 0.44373 0.11381 0.02838 0.0
C933 C 0.438 0.09619 0.01794 0.0
C934 C 0.45113 0.08773 0.00411 0.0
C935 C 0.46918 0.09726 1.00043 0.0
C936 C 0.48117 0.08624 0.9851 0.0
C937 C 0.46777 0.06804 0.98091 0.0
C938 C 0.45018 0.069 0.99205 0.0
C939 C 0.48318 0.09958 0.96646 0.0
C940 C 0.50137 0.08054 0.99496 0.0
H941 H 0.43048 0.99385 0.96585 0.0
H942 H 0.37998 0.02848 0.00671 0.0
H943 H 0.42101 0.03466 0.0292 0.0
H944 H 0.43052 0.05925 0.03018 0.0
H945 H 0.40385 0.05484 0.03142 0.0
H946 H 0.39694 0.06362 0.97731 0.0
H947 H 0.38694 0.06622 0.00197 0.0
H948 H 0.40728 0.08198 0.99398 0.0
H949 H 0.49438 0.00269 0.92894 0.0
H950 H 0.53159 0.0562 0.93161 0.0
H951 H 0.50848 0.07182 0.95431 0.0
H952 H 0.45177 0.02694 0.92591 0.0
H953 H 0.45519 1.00048 0.92799 0.0
H954 H 0.43501 0.01286 0.94028 0.0
H955 H 0.48523 1.00011 0.97365 0.0
H956 H 0.45995 0.99684 0.97958 0.0
H957 H 0.46933 0.98541 0.95701 0.0
H958 H 0.40068 0.97611 0.97452 0.0
C959 C 0.41985 0.00183 0.97461 0.0
Zn960 Zn 0.27401 0.85792 0.00829 0.0
Zn961 Zn 0.24064 0.87868 0.01408 0.0
O962 O 0.24289 0.86072 0.03889 0.0
O963 O 0.27192 0.84608 0.03581 0.0
O964 O 0.21582 0.89464 0.0199 0.0
O965 O 0.28932 0.88387 0.0042 0.0
O966 O 0.26264 0.90063 0.01286 0.0
C967 C 0.25629 0.84919 0.04574 0.0
C968 C 0.24384 0.84966 0.97801 0.0
O969 O 0.23461 0.86359 0.98711 0.0
O970 O 0.26053 0.8438 0.98472 0.0
C971 C 0.2054 0.90386 0.007 0.0
O972 O 0.21033 0.9029 0.98808 0.0
C973 C 0.28098 0.90032 0.00802 0.0
Zn974 Zn 0.10182 0.45209 0.26989 0.0
Zn975 Zn 0.11312 0.4867 0.25306 0.0
O976 O 0.09515 0.49503 0.27646 0.0
O977 O 0.08498 0.46678 0.28966 0.0
O978 O 0.12426 0.51308 0.24343 0.0
O979 O 0.13036 0.44546 0.2769 0.0
O980 O 0.13913 0.47206 0.25996 0.0
C981 C 0.0848 0.48568 0.28925 0.0
C982 C 0.08887 0.45648 0.22808 0.0
O983 O 0.09698 0.47387 0.22956 0.0
O984 O 0.08972 0.44466 0.2427 0.0
C985 C 0.114 0.52887 0.24261 0.0
O986 O 0.09493 0.52792 0.24699 0.0
C987 C 0.14383 0.4566 0.26973 0.0
Zn988 Zn 0.77924 0.61953 0.96049 0.0
Zn989 Zn 0.77928 0.63676 0.99724 0.0
O990 O 0.80429 0.6189 0.99961 0.0
O991 O 0.80489 0.60644 0.96884 0.0
O992 O 0.77816 0.65319 0.02294 0.0
O993 O 0.7808 0.64599 0.94686 0.0
O994 O 0.78194 0.6597 0.97701 0.0
C995 C 0.81256 0.60812 0.98627 0.0
C996 C 0.74389 0.60997 0.98245 0.0
O997 O 0.75241 0.62115 0.99584 0.0
O998 O 0.7524 0.60674 0.96596 0.0
C999 C 0.76863 0.64963 0.03885 0.0
O1000 O 0.75883 0.63256 0.0405 0.0
C1001 C 0.78218 0.66143 0.95804 0.0
Zn1002 Zn 0.86548 0.00516 0.29272 0.0
Zn1003 Zn 0.88078 0.0009 0.25638 0.0
O1004 O 0.86178 0.02505 0.25471 0.0
O1005 O 0.85223 0.03106 0.28556 0.0
O1006 O 0.89368 0.00093 0.22891 0.0
O1007 O 0.89238 0.00494 0.30608 0.0
O1008 O 0.90548 0.00376 0.27604 0.0
C1009 C 0.85221 0.0356 0.26727 0.0
C1010 C 0.85425 0.96754 0.27271 0.0
O1011 O 0.86532 0.97369 0.2586 0.0
O1012 O 0.85164 0.97849 0.28806 0.0
C1013 C 0.88333 0.00427 0.21318 0.0
O1014 O 0.86392 0.00643 0.21476 0.0
C1015 C 0.90754 0.00452 0.29508 0.0
Zn1016 Zn 0.29974 0.1095 0.4604 0.0
Zn1017 Zn 0.28905 0.12097 0.4963 0.0
O1018 O 0.31744 0.10927 0.50129 0.0
O1019 O 0.32707 0.10298 0.4705 0.0
O1020 O 0.28116 0.13261 0.52319 0.0
O1021 O 0.29488 0.13603 0.44839 0.0
O1022 O 0.28763 0.14639 0.47874 0.0
C1023 C 0.33073 0.10336 0.48914 0.0
C1024 C 0.26566 0.08731 0.47414 0.0
O1025 O 0.26743 0.09914 0.48929 0.0
O1026 O 0.27796 0.08855 0.46002 0.0
C1027 C 0.27447 0.12274 0.5378 0.0
O1028 O 0.27259 0.10319 0.53608 0.0
C1029 C 0.28994 0.14996 0.46022 0.0
Zn1030 Zn 0.35831 0.49356 0.78248 0.0
Zn1031 Zn 0.37246 0.50742 0.74896 0.0
O1032 O 0.35271 0.53004 0.75678 0.0
O1033 O 0.34273 0.51889 0.7858 0.0
O1034 O 0.38572 0.51722 0.72355 0.0
O1035 O 0.38531 0.49132 0.79556 0.0
O1036 O 0.39699 0.50587 0.76878 0.0
C1037 C 0.34244 0.53223 0.77258 0.0
C1038 C 0.34842 0.46711 0.75005 0.0
O1039 O 0.35833 0.48015 0.74034 0.0
O1040 O 0.34598 0.46963 0.76864 0.0
C1041 C 0.39504 0.50532 0.71208 0.0
O1042 O 0.39544 0.48624 0.71642 0.0
C1043 C 0.39983 0.49877 0.78621 0.0
Zn1044 Zn 0.77946 0.35778 0.50726 0.0
Zn1045 Zn 0.74277 0.37119 0.50189 0.0
O1046 O 0.74154 0.35353 0.52739 0.0
O1047 O 0.77252 0.34389 0.53257 0.0
O1048 O 0.71578 0.38477 0.50126 0.0
O1049 O 0.79228 0.38497 0.50866 0.0
O1050 O 0.76225 0.39598 0.50144 0.0
C1051 C 0.75442 0.34405 0.53772 0.0
C1052 C 0.75937 0.34447 0.46961 0.0
O1053 O 0.74436 0.3541 0.47591 0.0
O1054 O 0.77538 0.34408 0.48008 0.0
C1055 C 0.69942 0.37609 0.50575 0.0
O1056 O 0.69952 0.35701 0.51012 0.0
C1057 C 0.78093 0.3993 0.50458 0.0
Zn1058 Zn 0.60862 0.94726 0.79024 0.0
Zn1059 Zn 0.61186 0.98486 0.7782 0.0
O1060 O 0.59935 0.98693 0.80649 0.0
O1061 O 0.59695 0.9557 0.81616 0.0
O1062 O 0.61689 0.01389 0.77166 0.0
O1063 O 0.63822 0.94359 0.78911 0.0
O1064 O 0.64061 0.97393 0.77692 0.0
C1065 C 0.59448 0.97413 0.81958 0.0
C1066 C 0.58586 0.95522 0.75378 0.0
O1067 O 0.59274 0.97306 0.75613 0.0
O1068 O 0.59066 0.94187 0.76613 0.0
C1069 C 0.62538 0.01935 0.75573 0.0
O1070 O 0.62958 0.00578 0.74206 0.0
C1071 C 0.64869 0.95769 0.7822 0.0
Zn1072 Zn 0.98578 0.27168 0.83063 0.0
Zn1073 Zn 0.99754 0.24081 0.85217 0.0
O1074 O 0.02364 0.24705 0.83619 0.0
O1075 O 0.01329 0.27312 0.8194 0.0
O1076 O 0.00465 0.21995 0.87291 0.0
O1077 O 0.97951 0.28911 0.85424 0.0
O1078 O 0.98942 0.26357 0.87189 0.0
C1079 C 0.02702 0.2611 0.82389 0.0
C1080 C 0.96199 0.23622 0.82224 0.0
O1081 O 0.97377 0.22845 0.83511 0.0
O1082 O 0.96421 0.25443 0.81776 0.0
C1083 C 0.00371 0.2009 0.87235 0.0
O1084 O 0.99842 0.19155 0.85558 0.0
C1085 C 0.98275 0.28131 0.87106 0.0
Zn1086 Zn 0.48327 0.76941 0.34596 0.0
Zn1087 Zn 0.49789 0.73812 0.36403 0.0
O1088 O 0.52105 0.7444 0.34418 0.0
O1089 O 0.50932 0.7722 0.33171 0.0
O1090 O 0.50651 0.71406 0.38015 0.0
O1091 O 0.47941 0.78443 0.37199 0.0
O1092 O 0.49549 0.75994 0.38638 0.0
C1093 C 0.52308 0.75946 0.33281 0.0
C1094 C 0.45846 0.73556 0.33834 0.0
O1095 O 0.47093 0.72793 0.35062 0.0
O1096 O 0.46078 0.75348 0.333 0.0
C1097 C 0.52416 0.71235 0.38728 0.0
O1098 O 0.5377 0.72614 0.38336 0.0
C1099 C 0.48735 0.77705 0.38746 0.0
Zn1100 Zn 0.96842 0.76871 0.59042 0.0
Zn1101 Zn 0.9979 0.76432 0.61777 0.0
O1102 O 0.00595 0.79115 0.60438 0.0
O1103 O 0.98179 0.79407 0.58177 0.0
O1104 O 0.02042 0.75751 0.63702 0.0
O1105 O 0.94884 0.76882 0.61289 0.0
O1106 O 0.97301 0.7662 0.63548 0.0
C1107 C 0.99779 0.80069 0.59008 0.0
C1108 C 0.98848 0.73283 0.58394 0.0
O1109 O 0.99817 0.7391 0.59945 0.0
O1110 O 0.97469 0.74306 0.57634 0.0
C1111 C 0.03497 0.76846 0.64347 0.0
O1112 O 0.03616 0.78726 0.63815 0.0
C1113 C 0.95447 0.76769 0.63102 0.0
Zn1114 Zn 0.46331 0.28651 0.11312 0.0
Zn1115 Zn 0.50033 0.28133 0.12998 0.0
O1116 O 0.50456 0.30737 0.11446 0.0
O1117 O 0.47546 0.31005 0.09862 0.0
O1118 O 0.52676 0.27524 0.14382 0.0
O1119 O 0.45204 0.28999 0.14098 0.0
O1120 O 0.48186 0.28424 0.15387 0.0
C1121 C 0.49318 0.31637 0.10215 0.0
C1122 C 0.48025 0.24922 0.10172 0.0
O1123 O 0.49502 0.2563 0.11208 0.0
O1124 O 0.46426 0.25902 0.10024 0.0
C1125 C 0.52732 0.25808 0.15174 0.0
O1126 O 0.51143 0.24627 0.15008 0.0
C1127 C 0.4634 0.28784 0.15614 0.0
H1128 H 0.23787 0.76649 0.89182 0.0
H1129 H 0.2091 0.81018 0.85401 0.0
H1130 H 0.20799 0.83363 0.88275 0.0
H1131 H 0.21319 0.77831 0.93787 0.0
H1132 H 0.23547 0.77538 0.95306 0.0
H1133 H 0.2322 0.76121 0.93003 0.0
H1134 H 0.26603 0.77523 0.91745 0.0
H1135 H 0.26948 0.78927 0.9405 0.0
H1136 H 0.27022 0.80193 0.91692 0.0
H1137 H 0.21061 0.85282 0.91598 0.0
H1138 H 0.22015 0.86705 0.9494 0.0
H1139 H 0.24989 0.81189 0.96388 0.0
C1140 C 0.23145 0.781 0.88937 0.0
C1141 C 0.22339 0.78621 0.87047 0.0
C1142 C 0.21492 0.80541 0.86833 0.0
C1143 C 0.21431 0.81897 0.88459 0.0
C1144 C 0.22243 0.81328 0.90292 0.0
C1145 C 0.23108 0.79484 0.90528 0.0
C1146 C 0.24008 0.79283 0.92606 0.0
C1147 C 0.2296 0.77593 0.93742 0.0
C1148 C 0.2628 0.78964 0.92517 0.0
C1149 C 0.23537 0.81312 0.93497 0.0
C1150 C 0.22483 0.82461 0.92158 0.0
C1151 C 0.21888 0.84395 0.92657 0.0
C1152 C 0.22426 0.85188 0.94559 0.0
C1153 C 0.23581 0.8406 0.95913 0.0
C1154 C 0.24113 0.8209 0.95377 0.0
H1155 H 0.0084 0.49708 0.37875 0.0
H1156 H 0.01473 0.56132 0.37279 0.0
H1157 H 0.03582 0.55637 0.34319 0.0
H1158 H 0.05769 0.48602 0.36783 0.0
H1159 H 0.05214 0.46314 0.35402 0.0
H1160 H 0.03543 0.47157 0.37307 0.0
H1161 H 0.00588 0.47077 0.34739 0.0
H1162 H 0.02247 0.46206 0.32829 0.0
H1163 H 0.00812 0.48428 0.32441 0.0
H1164 H 0.05859 0.54447 0.31624 0.0
H1165 H 0.08056 0.52636 0.29305 0.0
H1166 H 0.05977 0.4699 0.31708 0.0
C1167 C 0.01377 0.51004 0.37082 0.0
C1168 C 0.00991 0.52956 0.37786 0.0
C1169 C 0.01757 0.54624 0.36751 0.0
C1170 C 0.02951 0.54358 0.35071 0.0
C1171 C 0.03361 0.52414 0.34448 0.0
C1172 C 0.02586 0.50764 0.3541 0.0
C1173 C 0.03367 0.48839 0.34523 0.0
C1174 C 0.04543 0.4766 0.36098 0.0
C1175 C 0.01651 0.47563 0.33576 0.0
C1176 C 0.04732 0.49667 0.32944 0.0
C1177 C 0.04697 0.5173 0.32912 0.0
C1178 C 0.05886 0.52829 0.3162 0.0
C1179 C 0.07135 0.51789 0.30315 0.0
C1180 C 0.07192 0.49672 0.30324 0.0
C1181 C 0.0597 0.48608 0.3166 0.0
H1182 H 0.79828 0.7372 0.86885 0.0
H1183 H 0.79705 0.78586 0.91258 0.0
H1184 H 0.79166 0.76143 0.93944 0.0
H1185 H 0.76009 0.7068 0.89076 0.0
H1186 H 0.77213 0.68357 0.8849 0.0
H1187 H 0.7759 0.70493 0.86927 0.0
H1188 H 0.81429 0.70244 0.87451 0.0
H1189 H 0.81064 0.68104 0.89011 0.0
H1190 H 0.8247 0.70254 0.89959 0.0
H1191 H 0.78694 0.73138 0.96157 0.0
H1192 H 0.78273 0.69826 0.97703 0.0
H1193 H 0.78688 0.6697 0.91844 0.0
C1194 C 0.79706 0.74272 0.8841 0.0
C1195 C 0.79815 0.76341 0.88866 0.0
C1196 C 0.7961 0.77006 0.90875 0.0
C1197 C 0.79313 0.75631 0.9241 0.0
C1198 C 0.79213 0.73599 0.91906 0.0
C1199 C 0.79399 0.72924 0.89953 0.0
C1200 C 0.79223 0.70669 0.898 0.0
C1201 C 0.774 0.70012 0.88496 0.0
C1202 C 0.81162 0.69765 0.89009 0.0
C1203 C 0.7892 0.70176 0.91974 0.0
C1204 C 0.78921 0.71883 0.93169 0.0
C1205 C 0.78687 0.71791 0.95234 0.0
C1206 C 0.78449 0.69904 0.96099 0.0
C1207 C 0.78442 0.68137 0.94896 0.0
C1208 C 0.78677 0.68289 0.92807 0.0
H1209 H 0.98495 0.97283 0.37966 0.0
H1210 H 0.02028 0.02566 0.36486 0.0
H1211 H 0.99777 0.03149 0.3363 0.0
H1212 H 0.9698 0.95706 0.32987 0.0
H1213 H 0.94463 0.95055 0.33683 0.0
H1214 H 0.96484 0.94892 0.3549 0.0
H1215 H 0.94622 0.97237 0.37928 0.0
H1216 H 0.92586 0.97387 0.36141 0.0
H1217 H 0.93817 0.99643 0.37079 0.0
H1218 H 0.97113 0.03178 0.30887 0.0
H1219 H 0.93966 0.02935 0.28853 0.0
H1220 H 0.91971 0.97953 0.32412 0.0
C1221 C 0.98805 0.98575 0.37065 0.0
C1222 C 0.00497 0.99839 0.37456 0.0
C1223 C 0.0081 0.01508 0.36199 0.0
C1224 C 0.99524 0.0187 0.34568 0.0
C1225 C 0.97892 0.00584 0.34225 0.0
C1226 C 0.97505 0.98996 0.35465 0.0
C1227 C 0.95546 0.9795 0.34887 0.0
C1228 C 0.9589 0.95772 0.34222 0.0
C1229 C 0.94055 0.98062 0.36611 0.0
C1230 C 0.94888 0.99208 0.3314 0.0
C1231 C 0.96284 0.00691 0.32747 0.0
C1232 C 0.96005 0.02027 0.31186 0.0
C1233 C 0.94227 0.01874 0.30032 0.0
C1234 C 0.92743 0.00429 0.30485 0.0
C1235 C 0.93091 0.9907 0.32041 0.0
H1236 H 0.25633 0.21769 0.60897 0.0
H1237 H 0.23776 0.17656 0.65492 0.0
H1238 H 0.24295 0.1481 0.63165 0.0
H1239 H 0.23412 0.19058 0.56691 0.0
H1240 H 0.25445 0.19626 0.55048 0.0
H1241 H 0.24866 0.21336 0.57058 0.0
H1242 H 0.28516 0.21158 0.58406 0.0
H1243 H 0.29107 0.19446 0.56401 0.0
H1244 H 0.29558 0.18757 0.58963 0.0
H1245 H 0.25092 0.12396 0.60338 0.0
H1246 H 0.26076 0.10625 0.57242 0.0
H1247 H 0.27484 0.16327 0.54542 0.0
C1248 C 0.25346 0.20271 0.61423 0.0
C1249 C 0.2466 0.19943 0.63384 0.0
C1250 C 0.24274 0.17954 0.63992 0.0
C1251 C 0.24577 0.16324 0.62684 0.0
C1252 C 0.25267 0.16704 0.6077 0.0
C1253 C 0.25644 0.1863 0.60141 0.0
C1254 C 0.26397 0.18636 0.58017 0.0
C1255 C 0.24943 0.19728 0.56622 0.0
C1256 C 0.28521 0.19553 0.57944 0.0
C1257 C 0.26398 0.16411 0.57551 0.0
C1258 C 0.25736 0.15321 0.59154 0.0
C1259 C 0.25611 0.13237 0.59073 0.0
C1260 C 0.26175 0.12243 0.57307 0.0
C1261 C 0.26861 0.13332 0.55646 0.0
C1262 C 0.2697 0.15446 0.55782 0.0
H1263 H 0.46406 0.49601 0.61623 0.0
H1264 H 0.46919 0.56087 0.61677 0.0
H1265 H 0.44564 0.56246 0.64474 0.0
H1266 H 0.41187 0.4921 0.62927 0.0
H1267 H 0.41558 0.47084 0.64504 0.0
H1268 H 0.43166 0.4749 0.62409 0.0
H1269 H 0.46276 0.47431 0.64777 0.0
H1270 H 0.4468 0.47022 0.66877 0.0
H1271 H 0.46422 0.49112 0.66916 0.0
H1272 H 0.42229 0.55683 0.67379 0.0
H1273 H 0.40204 0.54443 0.70175 0.0
H1274 H 0.41367 0.48331 0.68303 0.0
C1275 C 0.46037 0.5106 0.6222 0.0
C1276 C 0.46857 0.52832 0.61409 0.0
C1277 C 0.46292 0.54705 0.62234 0.0
C1278 C 0.44962 0.54812 0.63836 0.0
C1279 C 0.44206 0.53034 0.6461 0.0
C1280 C 0.44729 0.51194 0.63829 0.0
C1281 C 0.43778 0.49501 0.64979 0.0
C1282 C 0.42336 0.48248 0.63624 0.0
C1283 C 0.45385 0.4819 0.65945 0.0
C1284 C 0.42655 0.50674 0.66544 0.0
C1285 C 0.42904 0.52711 0.66298 0.0
C1286 C 0.42021 0.54091 0.67581 0.0
C1287 C 0.40871 0.53372 0.69165 0.0
C1288 C 0.40624 0.51289 0.69466 0.0
C1289 C 0.41523 0.49932 0.68121 0.0
H1290 H 0.77617 0.2845 0.63691 0.0
H1291 H 0.72673 0.24458 0.61878 0.0
H1292 H 0.71761 0.26765 0.59213 0.0
H1293 H 0.75413 0.33181 0.62394 0.0
H1294 H 0.77706 0.34168 0.61392 0.0
H1295 H 0.77791 0.32377 0.63375 0.0
H1296 H 0.79985 0.30059 0.61212 0.0
H1297 H 0.79925 0.31852 0.59238 0.0
H1298 H 0.79115 0.29303 0.5874 0.0
H1299 H 0.7145 0.29472 0.56617 0.0
H1300 H 0.72097 0.32025 0.54049 0.0
H1301 H 0.77492 0.33938 0.57284 0.0
C1302 C 0.76346 0.28032 0.62741 0.0
C1303 C 0.75211 0.26256 0.63051 0.0
C1304 C 0.73544 0.25826 0.61752 0.0
C1305 C 0.73014 0.27128 0.60211 0.0
C1306 C 0.74179 0.28847 0.5995 0.0
C1307 C 0.75833 0.29279 0.61158 0.0
C1308 C 0.76978 0.31091 0.60429 0.0
C1309 C 0.76971 0.32806 0.61991 0.0
C1310 C 0.79127 0.30543 0.59871 0.0
C1311 C 0.75731 0.31589 0.58597 0.0
C1312 C 0.74088 0.30316 0.58376 0.0
C1313 C 0.72731 0.30478 0.56777 0.0
C1314 C 0.731 0.31938 0.55334 0.0
C1315 C 0.74839 0.33173 0.55477 0.0
C1316 C 0.76146 0.33015 0.57148 0.0
H1317 H 0.53284 0.9638 0.64572 0.0
H1318 H 0.50929 0.90376 0.65457 0.0
H1319 H 0.52449 0.90384 0.68846 0.0
H1320 H 0.57959 0.95687 0.67042 0.0
H1321 H 0.5811 0.98156 0.68167 0.0
H1322 H 0.56735 0.97745 0.65851 0.0
H1323 H 0.53575 0.99236 0.67442 0.0
H1324 H 0.54943 0.99657 0.69764 0.0
H1325 H 0.52643 0.98207 0.69727 0.0
H1326 H 0.54314 0.90956 0.72036 0.0
H1327 H 0.56458 0.92036 0.74887 0.0
H1328 H 0.57651 0.97701 0.72006 0.0
C1329 C 0.53066 0.95081 0.65494 0.0
C1330 C 0.51991 0.93374 0.64754 0.0
C1331 C 0.51763 0.91689 0.65988 0.0
C1332 C 0.5261 0.91685 0.67918 0.0
C1333 C 0.5368 0.93378 0.68594 0.0
C1334 C 0.53912 0.95048 0.67427 0.0
C1335 C 0.55209 0.96635 0.68497 0.0
C1336 C 0.57116 0.97081 0.67319 0.0
C1337 C 0.54021 0.98547 0.6888 0.0
C1338 C 0.55686 0.95582 0.70435 0.0
C1339 C 0.54775 0.93711 0.70456 0.0
C1340 C 0.55027 0.92422 0.72046 0.0
C1341 C 0.56256 0.93052 0.73658 0.0
C1342 C 0.57227 0.94956 0.73676 0.0
C1343 C 0.5692 0.96244 0.72045 0.0
H1344 H 0.86019 0.22386 0.75947 0.0
H1345 H 0.86153 0.16004 0.77018 0.0
H1346 H 0.89347 0.16473 0.78902 0.0
H1347 H 0.91352 0.2303 0.75191 0.0
H1348 H 0.91446 0.25463 0.76398 0.0
H1349 H 0.89186 0.24598 0.75126 0.0
H1350 H 0.87197 0.25192 0.7837 0.0
H1351 H 0.8945 0.26047 0.79654 0.0
H1352 H 0.87993 0.24014 0.80648 0.0
H1353 H 0.92517 0.17698 0.80792 0.0
H1354 H 0.95389 0.19555 0.82389 0.0
H1355 H 0.93169 0.2507 0.79915 0.0
C1356 C 0.8673 0.21077 0.76543 0.0
C1357 C 0.85822 0.19158 0.76331 0.0
C1358 C 0.86797 0.17496 0.77181 0.0
C1359 C 0.88621 0.17745 0.78245 0.0
C1360 C 0.89462 0.19662 0.78437 0.0
C1361 C 0.88551 0.21295 0.77594 0.0
C1362 C 0.89743 0.23201 0.7802 0.0
C1363 C 0.90475 0.24127 0.76068 0.0
C1364 C 0.88523 0.24701 0.79246 0.0
C1365 C 0.91463 0.22393 0.79244 0.0
C1366 C 0.91282 0.2035 0.79478 0.0
C1367 C 0.9268 0.19297 0.80605 0.0
C1368 C 0.94304 0.20362 0.81509 0.0
C1369 C 0.94516 0.22456 0.8127 0.0
C1370 C 0.9307 0.23468 0.80117 0.0
H1371 H 0.45858 0.86746 0.45998 0.0
H1372 H 0.51216 0.85478 0.49504 0.0
H1373 H 0.51767 0.82502 0.47389 0.0
H1374 H 0.44263 0.81665 0.44884 0.0
H1375 H 0.435 0.82191 0.42349 0.0
H1376 H 0.43405 0.84122 0.44257 0.0
H1377 H 0.45644 0.86437 0.42135 0.0
H1378 H 0.45732 0.8452 0.40216 0.0
H1379 H 0.48024 0.85553 0.41295 0.0
H1380 H 0.51771 0.79657 0.44844 0.0
H1381 H 0.51417 0.77409 0.41873 0.0
H1382 H 0.46265 0.80735 0.39859 0.0
C1383 C 0.47159 0.85862 0.46325 0.0
C1384 C 0.48472 0.86357 0.47955 0.0
C1385 C 0.50142 0.85119 0.48315 0.0
C1386 C 0.50481 0.83424 0.47109 0.0
C1387 C 0.49157 0.82989 0.45523 0.0
C1388 C 0.47545 0.84189 0.45113 0.0
C1389 C 0.46425 0.83475 0.43235 0.0
C1390 C 0.44271 0.82824 0.4371 0.0
C1391 C 0.46459 0.85092 0.41625 0.0
C1392 C 0.47672 0.81698 0.42643 0.0
C1393 C 0.49219 0.81418 0.44001 0.0
C1394 C 0.50566 0.79865 0.43769 0.0
C1395 C 0.50349 0.7859 0.42082 0.0
C1396 C 0.48819 0.78901 0.40633 0.0
C1397 C 0.47454 0.80464 0.40938 0.0
H1398 H 0.1315 0.23622 0.77133 0.0
H1399 H 0.1348 0.29964 0.7582 0.0
H1400 H 0.10435 0.30511 0.77722 0.0
H1401 H 0.07795 0.2317 0.76586 0.0
H1402 H 0.07496 0.21424 0.78588 0.0
H1403 H 0.09794 0.21507 0.77223 0.0
H1404 H 0.11793 0.22088 0.80543 0.0
H1405 H 0.09499 0.22016 0.81918 0.0
H1406 H 0.11171 0.24154 0.82171 0.0
H1407 H 0.0735 0.30423 0.79611 0.0
H1408 H 0.04221 0.29686 0.81326 0.0
H1409 H 0.05686 0.23384 0.8146 0.0
C1410 C 0.12581 0.25125 0.77248 0.0
C1411 C 0.13593 0.26756 0.76353 0.0
C1412 C 0.12784 0.28696 0.76537 0.0
C1413 C 0.11041 0.29024 0.77606 0.0
C1414 C 0.10099 0.27399 0.78482 0.0
C1415 C 0.10823 0.25484 0.78314 0.0
C1416 C 0.09446 0.24003 0.7935 0.0
C1417 C 0.08582 0.22433 0.77847 0.0
C1418 C 0.10543 0.23007 0.81099 0.0
C1419 C 0.07831 0.2539 0.80099 0.0
C1420 C 0.08262 0.27342 0.79582 0.0
C1421 C 0.06995 0.28903 0.80031 0.0
C1422 C 0.05215 0.28464 0.81003 0.0
C1423 C 0.04702 0.26477 0.81527 0.0
C1424 C 0.06048 0.24919 0.81098 0.0
H1425 H 0.50255 0.62112 0.46073 0.0
H1426 H 0.5667 0.61876 0.47133 0.0
H1427 H 0.57177 0.64626 0.44772 0.0
H1428 H 0.50468 0.63162 0.40796 0.0
H1429 H 0.48386 0.64838 0.40829 0.0
H1430 H 0.48517 0.62838 0.42596 0.0
H1431 H 0.48233 0.65395 0.45529 0.0
H1432 H 0.48094 0.67402 0.43771 0.0
H1433 H 0.49985 0.67473 0.4573 0.0
H1434 H 0.56995 0.67458 0.42363 0.0
H1435 H 0.56135 0.7015 0.40037 0.0
H1436 H 0.4984 0.68543 0.40484 0.0
C1437 C 0.51765 0.62646 0.45816 0.0
C1438 C 0.53424 0.61768 0.46786 0.0
C1439 C 0.55378 0.62501 0.46389 0.0
C1440 C 0.55681 0.64071 0.45057 0.0
C1441 C 0.54017 0.64896 0.44121 0.0
C1442 C 0.52097 0.64209 0.44478 0.0
C1443 C 0.5057 0.6536 0.43272 0.0
C1444 C 0.49418 0.63966 0.41785 0.0
C1445 C 0.49136 0.66474 0.44658 0.0
C1446 C 0.51932 0.66808 0.42193 0.0
C1447 C 0.53914 0.66515 0.42708 0.0
C1448 C 0.55448 0.67696 0.41941 0.0
C1449 C 0.54943 0.69224 0.4062 0.0
C1450 C 0.52922 0.69557 0.40066 0.0
C1451 C 0.51401 0.68318 0.4086 0.0
H1452 H 0.91147 0.78497 0.74093 0.0
H1453 H 0.85257 0.78433 0.71268 0.0
H1454 H 0.86736 0.77513 0.6803 0.0
H1455 H 0.93633 0.80792 0.70129 0.0
H1456 H 0.95905 0.79396 0.70362 0.0
H1457 H 0.94381 0.79807 0.72517 0.0
H1458 H 0.94142 0.75985 0.7307 0.0
H1459 H 0.95676 0.75562 0.70918 0.0
H1460 H 0.93251 0.74355 0.71056 0.0
H1461 H 0.88814 0.76871 0.65098 0.0
H1462 H 0.91402 0.76583 0.62555 0.0
H1463 H 0.96023 0.77121 0.67202 0.0
C1464 C 0.90176 0.78244 0.72795 0.0
C1465 C 0.88093 0.78518 0.72914 0.0
C1466 C 0.86858 0.78224 0.71191 0.0
C1467 C 0.87682 0.77695 0.69354 0.0
C1468 C 0.89745 0.77472 0.69268 0.0
C1469 C 0.90982 0.77735 0.70936 0.0
C1470 C 0.93164 0.77552 0.70384 0.0
C1471 C 0.94339 0.79503 0.70877 0.0
C1472 C 0.94114 0.75756 0.71419 0.0
C1473 C 0.92955 0.77192 0.68142 0.0
C1474 C 0.90965 0.77129 0.67544 0.0
C1475 C 0.90379 0.76899 0.65546 0.0
C1476 C 0.91865 0.76745 0.64112 0.0
C1477 C 0.9392 0.7683 0.64676 0.0
C1478 C 0.94467 0.77035 0.66725 0.0
H1479 H 0.01148 0.88727 0.5114 0.0
H1480 H 0.0455 0.92129 0.55678 0.0
H1481 H 0.04178 0.89328 0.58007 0.0
H1482 H 0.97573 0.86618 0.54545 0.0
H1483 H 0.9739 0.84269 0.53184 0.0
H1484 H 0.97972 0.86536 0.51884 0.0
H1485 H 0.01184 0.84922 0.50523 0.0
H1486 H 0.00625 0.82658 0.51839 0.0
H1487 H 0.02998 0.83934 0.52256 0.0
H1488 H 0.03504 0.86049 0.59821 0.0
H1489 H 0.02307 0.82753 0.61025 0.0
H1490 H 0.99206 0.81672 0.55341 0.0
C1491 C 0.01789 0.8891 0.52633 0.0
C1492 C 0.0289 0.90656 0.5321 0.0
C1493 C 0.03731 0.90797 0.55176 0.0
C1494 C 0.03521 0.89215 0.56517 0.0
C1495 C 0.02449 0.87507 0.55883 0.0
C1496 C 0.01575 0.87361 0.53994 0.0
C1497 C 0.00462 0.8539 0.53681 0.0
C1498 C 0.98216 0.85724 0.53302 0.0
C1499 C 0.01373 0.84154 0.51974 0.0
C1500 C 0.00844 0.84447 0.55688 0.0
C1501 C 0.0201 0.85673 0.56937 0.0
C1502 C 0.02578 0.85084 0.58858 0.0
C1503 C 0.01903 0.83208 0.59526 0.0
C1504 C 0.00653 0.81966 0.58283 0.0
C1505 C 0.00143 0.82596 0.56336 0.0
H1506 H 0.1334 0.76808 0.71329 0.0
H1507 H 0.12486 0.70384 0.7179 0.0
H1508 H 0.09545 0.70526 0.69505 0.0
H1509 H 0.08208 0.78047 0.71368 0.0
H1510 H 0.08436 0.80033 0.69593 0.0
H1511 H 0.10543 0.79412 0.71163 0.0
H1512 H 0.12705 0.7887 0.68028 0.0
H1513 H 0.10607 0.79503 0.66447 0.0
H1514 H 0.11838 0.77151 0.66079 0.0
H1515 H 0.06575 0.71404 0.67345 0.0
H1516 H 0.03904 0.7291 0.65308 0.0
H1517 H 0.06699 0.78772 0.66245 0.0
C1518 C 0.12539 0.75428 0.70944 0.0
C1519 C 0.13144 0.73582 0.7174 0.0
C1520 C 0.12067 0.7181 0.71181 0.0
C1521 C 0.10387 0.71879 0.69894 0.0
C1522 C 0.09811 0.73729 0.69169 0.0
C1523 C 0.10865 0.75469 0.69659 0.0
C1524 C 0.09917 0.77269 0.68702 0.0
C1525 C 0.09235 0.78779 0.70302 0.0
C1526 C 0.11352 0.78256 0.67226 0.0
C1527 C 0.08145 0.76274 0.67618 0.0
C1528 C 0.08112 0.74232 0.67908 0.0
C1529 C 0.06594 0.72999 0.67096 0.0
C1530 C 0.05078 0.73872 0.65946 0.0
C1531 C 0.0509 0.75962 0.6561 0.0
C1532 C 0.06649 0.77172 0.66464 0.0
H1533 H 0.97086 0.61767 0.55876 0.0
H1534 H 0.9961 0.63074 0.50084 0.0
H1535 H 0.00681 0.66389 0.5132 0.0
H1536 H 0.94977 0.66455 0.56542 0.0
H1537 H 0.95432 0.66642 0.59205 0.0
H1538 H 0.95154 0.64222 0.58004 0.0
H1539 H 0.98604 0.63211 0.59456 0.0
H1540 H 0.98895 0.65637 0.60658 0.0
H1541 H 0.00783 0.64747 0.58987 0.0
H1542 H 0.01098 0.6968 0.52945 0.0
H1543 H 0.00737 0.72822 0.549 0.0
H1544 H 0.97921 0.69528 0.59642 0.0
C1545 C 0.9789 0.62738 0.54879 0.0
C1546 C 0.98307 0.62119 0.52896 0.0
C1547 C 0.99338 0.6346 0.51633 0.0
C1548 C 0.99946 0.65363 0.52316 0.0
C1549 C 0.99506 0.65926 0.54265 0.0
C1550 C 0.98498 0.64663 0.55533 0.0
C1551 C 0.98036 0.6573 0.57487 0.0
C1552 C 0.95765 0.65764 0.57828 0.0
C1553 C 0.99146 0.64774 0.59252 0.0
C1554 C 0.98874 0.67803 0.5708 0.0
C1555 C 0.99744 0.67868 0.55221 0.0
C1556 C 0.00465 0.69646 0.54422 0.0
C1557 C 0.00256 0.71417 0.55536 0.0
C1558 C 0.99348 0.71386 0.57424 0.0
C1559 C 0.98679 0.69561 0.58225 0.0
H1560 H 0.78955 0.87397 0.22896 0.0
H1561 H 0.78624 0.85421 0.29034 0.0
H1562 H 0.80943 0.88153 0.30109 0.0
H1563 H 0.84291 0.89024 0.23128 0.0
H1564 H 0.83874 0.91168 0.21587 0.0
H1565 H 0.82323 0.8895 0.21246 0.0
H1566 H 0.79157 0.9106 0.21769 0.0
H1567 H 0.80696 0.9328 0.22114 0.0
H1568 H 0.78956 0.92569 0.24015 0.0
H1569 H 0.83026 0.91192 0.30587 0.0
H1570 H 0.84809 0.94431 0.30466 0.0
H1571 H 0.83917 0.9452 0.24019 0.0
C1572 C 0.79405 0.87522 0.24459 0.0
C1573 C 0.78608 0.862 0.25886 0.0
C1574 C 0.79201 0.86429 0.27922 0.0
C1575 C 0.80527 0.87967 0.28544 0.0
C1576 C 0.81258 0.89264 0.27112 0.0
C1577 C 0.80729 0.89064 0.25111 0.0
C1578 C 0.81649 0.90747 0.23912 0.0
C1579 C 0.83122 0.89923 0.22377 0.0
C1580 C 0.80017 0.91987 0.22893 0.0
C1581 C 0.82738 0.91945 0.25563 0.0
C1582 C 0.82496 0.91043 0.27391 0.0
C1583 C 0.83248 0.91902 0.29164 0.0
C1584 C 0.84251 0.93748 0.29079 0.0
C1585 C 0.84508 0.94723 0.27233 0.0
C1586 C 0.83771 0.93792 0.25444 0.0
H1587 H 0.796 0.13894 0.27814 0.0
H1588 H 0.75609 0.11724 0.22993 0.0
H1589 H 0.77757 0.08847 0.22491 0.0
H1590 H 0.8426 0.12075 0.25969 0.0
H1591 H 0.85131 0.11276 0.28389 0.0
H1592 H 0.83455 0.13348 0.28205 0.0
H1593 H 0.80967 0.11568 0.30543 0.0
H1594 H 0.82643 0.09502 0.3075 0.0
H1595 H 0.80091 0.09065 0.29916 0.0
H1596 H 0.80344 0.06154 0.22495 0.0
H1597 H 0.82819 0.03593 0.23399 0.0
H1598 H 0.84747 0.07212 0.28547 0.0
C1599 C 0.79142 0.12826 0.26657 0.0
C1600 C 0.77427 0.13115 0.25417 0.0
C1601 C 0.76945 0.11635 0.2392 0.0
C1602 C 0.78152 0.09965 0.23627 0.0
C1603 C 0.79817 0.09744 0.24875 0.0
C1604 C 0.80284 0.11109 0.26391 0.0
C1605 C 0.82025 0.10409 0.27669 0.0
C1606 C 0.83824 0.11864 0.2755 0.0
C1607 C 0.81393 0.10118 0.29848 0.0
C1608 C 0.82449 0.08429 0.2664 0.0
C1609 C 0.81196 0.08101 0.24996 0.0
C1610 C 0.81326 0.06389 0.23786 0.0
C1611 C 0.8274 0.0495 0.24302 0.0
C1612 C 0.8396 0.0521 0.26042 0.0
C1613 C 0.83824 0.0698 0.27211 0.0
H1614 H 0.36818 0.97039 0.96894 0.0
H1615 H 0.36345 0.00517 0.02423 0.0
H1616 H 0.33326 0.98573 0.0325 0.0
H1617 H 0.31553 0.96088 0.95863 0.0
H1618 H 0.3194 0.93542 0.95051 0.0
H1619 H 0.33877 0.95411 0.94728 0.0
H1620 H 0.3639 0.93243 0.96693 0.0
H1621 H 0.34468 0.91365 0.97011 0.0
H1622 H 0.35778 0.9243 0.99169 0.0
H1623 H 0.30389 0.96137 0.0354 0.0
H1624 H 0.28083 0.93185 0.03456 0.0
H1625 H 0.30824 0.91054 0.98013 0.0
C1626 C 0.36106 0.97401 0.9829 0.0
C1627 C 0.36845 0.98962 0.99577 0.0
C1628 C 0.35804 0.99379 0.01368 0.0
C1629 C 0.34085 0.98269 0.01864 0.0
C1630 C 0.33434 0.96722 0.00575 0.0
C1631 C 0.34433 0.96272 0.9884 0.0
C1632 C 0.33567 0.94409 0.97812 0.0
C1633 C 0.32682 0.94893 0.95741 0.0
C1634 C 0.35145 0.92765 0.97664 0.0
C1635 C 0.31943 0.93859 0.99258 0.0
C1636 C 0.31849 0.9524 0.00815 0.0
C1637 C 0.30452 0.95045 0.02329 0.0
C1638 C 0.29147 0.93373 0.02267 0.0
C1639 C 0.29293 0.919 0.00735 0.0
C1640 C 0.30694 0.9216 0.99205 0.0
H1641 H 0.23541 0.39965 0.31813 0.0
H1642 H 0.26527 0.40716 0.26133 0.0
H1643 H 0.23858 0.42922 0.25026 0.0
H1644 H 0.18769 0.39323 0.29564 0.0
H1645 H 0.17465 0.40537 0.31571 0.0
H1646 H 0.19786 0.39307 0.3208 0.0
H1647 H 0.21263 0.42593 0.3366 0.0
H1648 H 0.18945 0.43838 0.33146 0.0
H1649 H 0.21261 0.44851 0.32224 0.0
H1650 H 0.20781 0.44938 0.24444 0.0
H1651 H 0.17341 0.4624 0.24281 0.0
H1652 H 0.16161 0.43765 0.30106 0.0
C1653 C 0.23654 0.40578 0.30333 0.0
C1654 C 0.25297 0.40168 0.2909 0.0
C1655 C 0.25348 0.41044 0.27167 0.0
C1656 C 0.23822 0.42296 0.26508 0.0
C1657 C 0.22223 0.42636 0.27764 0.0
C1658 C 0.22112 0.41776 0.29622 0.0
C1659 C 0.20124 0.42184 0.30584 0.0
C1660 C 0.18968 0.40221 0.30971 0.0
C1661 C 0.20417 0.43442 0.32518 0.0
C1662 C 0.19121 0.43375 0.28956 0.0
C1663 C 0.20378 0.43668 0.27365 0.0
C1664 C 0.19782 0.4472 0.25681 0.0
C1665 C 0.17832 0.45458 0.25603 0.0
C1666 C 0.16494 0.45091 0.27176 0.0
C1667 C 0.17157 0.44057 0.2888 0.0
H1668 H 0.16011 0.03475 0.49772 0.0
H1669 H 0.16784 0.99968 0.44332 0.0
H1670 H 0.20153 0.01469 0.43954 0.0
H1671 H 0.18305 0.07903 0.48014 0.0
H1672 H 0.19492 0.08625 0.50367 0.0
H1673 H 0.17219 0.0714 0.50336 0.0
H1674 H 0.18969 0.04445 0.52445 0.0
H1675 H 0.2125 0.05925 0.52487 0.0
H1676 H 0.21258 0.03372 0.51574 0.0
H1677 H 0.23304 0.03428 0.44048 0.0
H1678 H 0.26087 0.05838 0.44526 0.0
H1679 H 0.23313 0.08205 0.49879 0.0
C1680 C 0.16911 0.03005 0.48525 0.0
C1681 C 0.16156 0.01603 0.47083 0.0
C1682 C 0.17346 0.01044 0.45445 0.0
C1683 C 0.19259 0.0188 0.45225 0.0
C1684 C 0.19955 0.03279 0.46652 0.0
C1685 C 0.18823 0.03846 0.48269 0.0
C1686 C 0.19888 0.05482 0.49506 0.0
C1687 C 0.18652 0.07401 0.49558 0.0
C1688 C 0.2037 0.04762 0.51629 0.0
C1689 C 0.21777 0.05762 0.4831 0.0
C1690 C 0.21784 0.04456 0.46686 0.0
C1691 C 0.23325 0.04453 0.4532 0.0
C1692 C 0.24899 0.05836 0.45605 0.0
C1693 C 0.24922 0.07219 0.4724 0.0
C1694 C 0.23345 0.07163 0.48623 0.0
H1695 H 0.68711 0.10823 0.70586 0.0
H1696 H 0.68579 0.13913 0.76332 0.0
H1697 H 0.66309 0.11278 0.77606 0.0
H1698 H 0.63535 0.08837 0.70511 0.0
H1699 H 0.64225 0.06477 0.69404 0.0
H1700 H 0.65647 0.08716 0.68877 0.0
H1701 H 0.68893 0.07018 0.70095 0.0
H1702 H 0.67484 0.04777 0.70623 0.0
H1703 H 0.69 0.05981 0.72566 0.0
H1704 H 0.64181 0.08246 0.78289 0.0
H1705 H 0.62581 0.04903 0.78449 0.0
H1706 H 0.64244 0.0368 0.72304 0.0
C1707 C 0.68167 0.10957 0.72099 0.0
C1708 C 0.68785 0.12575 0.7336 0.0
C1709 C 0.68101 0.12685 0.75347 0.0
C1710 C 0.66809 0.11203 0.76076 0.0
C1711 C 0.66236 0.09612 0.74803 0.0
C1712 C 0.66905 0.0947 0.72861 0.0
C1713 C 0.66209 0.07521 0.71861 0.0
C1714 C 0.64821 0.07912 0.70057 0.0
C1715 C 0.68003 0.0625 0.71251 0.0
C1716 C 0.6507 0.06576 0.73553 0.0
C1717 C 0.65075 0.07823 0.75223 0.0
C1718 C 0.6416 0.0726 0.76988 0.0
C1719 C 0.63252 0.05356 0.77062 0.0
C1720 C 0.63286 0.04024 0.7539 0.0
C1721 C 0.64185 0.04663 0.73605 0.0
H1722 H 0.3988 0.02866 0.55013 0.0
H1723 H 0.44111 0.03407 0.50204 0.0
H1724 H 0.4216 0.0617 0.48794 0.0
H1725 H 0.35602 0.03512 0.52033 0.0
H1726 H 0.34236 0.04905 0.53876 0.0
H1727 H 0.36105 0.03168 0.54663 0.0
H1728 H 0.37927 0.05994 0.56721 0.0
H1729 H 0.36064 0.07745 0.55929 0.0
H1730 H 0.38675 0.08264 0.55502 0.0
H1731 H 0.39642 0.08618 0.47741 0.0
H1732 H 0.36578 0.10455 0.46949 0.0
H1733 H 0.33894 0.08347 0.52403 0.0
C1734 C 0.40413 0.03601 0.53688 0.0
C1735 C 0.42151 0.02943 0.5272 0.0
C1736 C 0.42782 0.03895 0.50962 0.0
C1737 C 0.41693 0.05474 0.50163 0.0
C1738 C 0.39975 0.06077 0.51138 0.0
C1739 C 0.39328 0.05168 0.52857 0.0
C1740 C 0.37323 0.05972 0.53491 0.0
C1741 C 0.35722 0.04289 0.53516 0.0
C1742 C 0.37509 0.07059 0.55532 0.0
C1743 C 0.36917 0.07432 0.51825 0.0
C1744 C 0.38488 0.0749 0.50508 0.0
C1745 C 0.38415 0.08607 0.48774 0.0
C1746 C 0.36666 0.09644 0.48336 0.0
C1747 C 0.35008 0.09555 0.49623 0.0
C1748 C 0.35158 0.0848 0.5142 0.0
H1749 H 0.63271 0.47434 0.50943 0.0
H1750 H 0.58231 0.43592 0.52433 0.0
H1751 H 0.60391 0.40645 0.52208 0.0
H1752 H 0.65445 0.44043 0.4734 0.0
H1753 H 0.67986 0.44695 0.48068 0.0
H1754 H 0.66042 0.46507 0.48342 0.0
H1755 H 0.66967 0.46948 0.52107 0.0
H1756 H 0.68914 0.45141 0.51844 0.0
H1757 H 0.67004 0.44784 0.53679 0.0
H1758 H 0.63107 0.38109 0.51838 0.0
H1759 H 0.6619 0.36181 0.51417 0.0
H1760 H 0.69457 0.41662 0.50115 0.0
C1761 C 0.62614 0.45972 0.51204 0.0
C1762 C 0.60576 0.45751 0.51712 0.0
C1763 C 0.59791 0.43809 0.52071 0.0
C1764 C 0.61004 0.42122 0.51932 0.0
C1765 C 0.63003 0.42394 0.51429 0.0
C1766 C 0.63804 0.4427 0.51072 0.0
C1767 C 0.66007 0.44155 0.50584 0.0
C1768 C 0.66392 0.44893 0.48457 0.0
C1769 C 0.67299 0.45326 0.52147 0.0
C1770 C 0.66319 0.4192 0.50726 0.0
C1771 C 0.64566 0.40932 0.51211 0.0
C1772 C 0.64487 0.38867 0.51454 0.0
C1773 C 0.66249 0.37783 0.5121 0.0
C1774 C 0.6807 0.38764 0.50728 0.0
C1775 C 0.68091 0.40862 0.50472 0.0
H1776 H 0.7139 0.27826 0.37753 0.0
H1777 H 0.77504 0.27366 0.35744 0.0
H1778 H 0.78643 0.29676 0.38453 0.0
H1779 H 0.71751 0.33175 0.3933 0.0
H1780 H 0.70216 0.32818 0.41489 0.0
H1781 H 0.69827 0.3125 0.39289 0.0
H1782 H 0.70291 0.28099 0.41435 0.0
H1783 H 0.70688 0.29654 0.43637 0.0
H1784 H 0.72541 0.27861 0.42933 0.0
H1785 H 0.7919 0.31763 0.41474 0.0
H1786 H 0.79126 0.33634 0.44667 0.0
H1787 H 0.72664 0.32884 0.44801 0.0
C1788 C 0.7296 0.28245 0.37868 0.0
C1789 C 0.74363 0.27409 0.36546 0.0
C1790 C 0.7641 0.2797 0.36755 0.0
C1791 C 0.7707 0.2929 0.38281 0.0
C1792 C 0.75665 0.30052 0.39586 0.0
C1793 C 0.73651 0.29567 0.39398 0.0
C1794 C 0.72486 0.30535 0.4108 0.0
C1795 C 0.70981 0.32034 0.40247 0.0
C1796 C 0.7144 0.28942 0.42346 0.0
C1797 C 0.74169 0.31599 0.42258 0.0
C1798 C 0.75984 0.313 0.41352 0.0
C1799 C 0.77777 0.32029 0.42188 0.0
C1800 C 0.77724 0.33083 0.4401 0.0
C1801 C 0.75891 0.33411 0.44983 0.0
C1802 C 0.74084 0.32679 0.44078 0.0
H1803 H 0.53136 0.04219 0.89418 0.0
H1804 H 0.53083 0.99155 0.93388 0.0
H1805 H 0.55348 0.97355 0.91138 0.0
H1806 H 0.52951 0.0139 0.8493 0.0
H1807 H 0.5458 0.03027 0.83562 0.0
H1808 H 0.53126 0.04017 0.85578 0.0
H1809 H 0.56356 0.05435 0.87316 0.0
H1810 H 0.57823 0.04452 0.853 0.0
H1811 H 0.58395 0.03784 0.87845 0.0
H1812 H 0.57384 0.96017 0.88403 0.0
H1813 H 0.59058 0.95151 0.85273 0.0
H1814 H 0.57814 0.01054 0.82988 0.0
C1815 C 0.53638 0.02747 0.89826 0.0
C1816 C 0.52946 0.01821 0.91575 0.0
C1817 C 0.53594 0.9988 0.92049 0.0
C1818 C 0.54887 0.98854 0.90788 0.0
C1819 C 0.55517 0.9979 0.8906 0.0
C1820 C 0.5492 0.01691 0.88572 0.0
C1821 C 0.55714 0.02289 0.8655 0.0
C1822 C 0.5399 0.02704 0.85068 0.0
C1823 C 0.57158 0.04097 0.86767 0.0
C1824 C 0.56814 0.00408 0.85965 0.0
C1825 C 0.56694 0.99 0.8745 0.0
C1826 C 0.57506 0.97111 0.87235 0.0
C1827 C 0.58448 0.96633 0.85445 0.0
C1828 C 0.58569 0.98035 0.83882 0.0
C1829 C 0.57764 0.99959 0.84161 0.0
H1830 H 0.29479 0.23231 0.37631 0.0
H1831 H 0.27934 0.27686 0.42107 0.0
H1832 H 0.27554 0.25016 0.44607 0.0
H1833 H 0.26114 0.1928 0.39301 0.0
H1834 H 0.27871 0.17342 0.3875 0.0
H1835 H 0.27871 0.19595 0.37311 0.0
H1836 H 0.31633 0.20187 0.38183 0.0
H1837 H 0.31644 0.17942 0.39628 0.0
H1838 H 0.32444 0.2029 0.4077 0.0
H1839 H 0.27586 0.21827 0.46672 0.0
H1840 H 0.27929 0.18433 0.48061 0.0
H1841 H 0.29458 0.16162 0.42169 0.0
C1842 C 0.29054 0.23647 0.39136 0.0
C1843 C 0.28744 0.25663 0.39681 0.0
C1844 C 0.28163 0.26145 0.41657 0.0
C1845 C 0.27952 0.24641 0.43086 0.0
C1846 C 0.28308 0.22667 0.42505 0.0
C1847 C 0.28831 0.22172 0.40569 0.0
C1848 C 0.29193 0.1996 0.40322 0.0
C1849 C 0.27671 0.18987 0.38833 0.0
C1850 C 0.31357 0.19573 0.39689 0.0
C1851 C 0.28835 0.19285 0.42431 0.0
C1852 C 0.28315 0.20857 0.43674 0.0
C1853 C 0.27976 0.20583 0.45706 0.0
C1854 C 0.28177 0.18653 0.46482 0.0
C1855 C 0.28718 0.17029 0.45226 0.0
C1856 C 0.29035 0.17363 0.43174 0.0
H1857 H 0.47914 0.47358 0.87172 0.0
H1858 H 0.5062 0.53211 0.86151 0.0
H1859 H 0.48424 0.53595 0.83212 0.0
H1860 H 0.46868 0.4588 0.82021 0.0
H1861 H 0.44459 0.44787 0.82561 0.0
H1862 H 0.46426 0.4483 0.84442 0.0
H1863 H 0.44119 0.46666 0.86919 0.0
H1864 H 0.42141 0.46609 0.85056 0.0
H1865 H 0.42962 0.4896 0.86178 0.0
H1866 H 0.45859 0.53398 0.80391 0.0
H1867 H 0.42827 0.52838 0.78254 0.0
H1868 H 0.41548 0.4734 0.81371 0.0
C1869 C 0.48055 0.48731 0.86351 0.0
C1870 C 0.49498 0.5023 0.86903 0.0
C1871 C 0.49601 0.51992 0.85744 0.0
C1872 C 0.48342 0.52237 0.84067 0.0
C1873 C 0.46949 0.5073 0.83574 0.0
C1874 C 0.46773 0.49029 0.84705 0.0
C1875 C 0.45022 0.47725 0.83977 0.0
C1876 C 0.45737 0.45685 0.83204 0.0
C1877 C 0.43469 0.47476 0.8563 0.0
C1878 C 0.44225 0.48975 0.8228 0.0
C1879 C 0.45387 0.50679 0.82037 0.0
C1880 C 0.44937 0.52068 0.80568 0.0
C1881 C 0.43221 0.51734 0.79353 0.0
C1882 C 0.41957 0.5005 0.79651 0.0
C1883 C 0.4249 0.48641 0.81112 0.0
H1884 H 0.74016 0.69978 0.1446 0.0
H1885 H 0.76187 0.75592 0.12064 0.0
H1886 H 0.76959 0.73883 0.08894 0.0
H1887 H 0.7762 0.66842 0.12205 0.0
H1888 H 0.75904 0.64794 0.11628 0.0
H1889 H 0.75449 0.66448 0.1372 0.0
H1890 H 0.71936 0.67216 0.12263 0.0
H1891 H 0.72372 0.65549 0.10175 0.0
H1892 H 0.71699 0.68106 0.0974 0.0
H1893 H 0.77686 0.71591 0.06073 0.0
H1894 H 0.78064 0.68864 0.03602 0.0
H1895 H 0.75304 0.64695 0.07684 0.0
C1896 C 0.74627 0.70849 0.13257 0.0
C1897 C 0.75071 0.72917 0.13527 0.0
C1898 C 0.75878 0.74001 0.11915 0.0
C1899 C 0.76313 0.73046 0.10101 0.0
C1900 C 0.75913 0.71004 0.09902 0.0
C1901 C 0.75064 0.69916 0.11419 0.0
C1902 C 0.74795 0.67731 0.10791 0.0
C1903 C 0.76015 0.66374 0.12168 0.0
C1904 C 0.72568 0.67114 0.10739 0.0
C1905 C 0.75645 0.67768 0.08698 0.0
C1906 C 0.76287 0.69674 0.08229 0.0
C1907 C 0.77174 0.70093 0.06413 0.0
C1908 C 0.77391 0.68527 0.05022 0.0
C1909 C 0.76712 0.66561 0.05441 0.0
C1910 C 0.75831 0.66181 0.07313 0.0
H1911 H 0.97407 0.01627 0.13718 0.0
H1912 H 0.92981 0.02939 0.09115 0.0
H1913 H 0.90296 0.0251 0.11567 0.0
H1914 H 0.94524 0.97805 0.16146 0.0
H1915 H 0.95374 0.98532 0.18633 0.0
H1916 H 0.96957 0.98971 0.16527 0.0
H1917 H 0.97217 0.02737 0.17494 0.0
H1918 H 0.95642 0.02308 0.19607 0.0
H1919 H 0.94963 0.04144 0.17785 0.0
H1920 H 0.88082 0.01879 0.14501 0.0
H1921 H 0.86503 0.01229 0.17736 0.0
H1922 H 0.92358 0.00303 0.20449 0.0
C1923 C 0.95872 0.01815 0.13221 0.0
C1924 C 0.9541 0.0232 0.11217 0.0
C1925 C 0.9338 0.02579 0.10643 0.0
C1926 C 0.91842 0.02324 0.12022 0.0
C1927 C 0.92351 0.01812 0.13977 0.0
C1928 C 0.94317 0.01569 0.14581 0.0
C1929 C 0.94459 0.01034 0.16776 0.0
C1930 C 0.95383 0.98962 0.17035 0.0
C1931 C 0.9564 0.02652 0.17986 0.0
C1932 C 0.92263 0.01008 0.17312 0.0
C1933 C 0.91074 0.01456 0.15673 0.0
C1934 C 0.88999 0.01529 0.15795 0.0
C1935 C 0.88115 0.01153 0.17643 0.0
C1936 C 0.89301 0.00712 0.19354 0.0
C1937 C 0.91405 0.00629 0.19173 0.0
H1938 H 0.28736 0.77823 0.13551 0.0
H1939 H 0.22749 0.78507 0.15829 0.0
H1940 H 0.21977 0.80861 0.13118 0.0
H1941 H 0.29478 0.82983 0.11961 0.0
H1942 H 0.30808 0.82253 0.09751 0.0
H1943 H 0.3092 0.8073 0.11946 0.0
H1944 H 0.29659 0.77655 0.09838 0.0
H1945 H 0.29536 0.79169 0.0764 0.0
H1946 H 0.27346 0.77803 0.08423 0.0
H1947 H 0.21831 0.83062 0.10084 0.0
H1948 H 0.22295 0.84862 0.06921 0.0
H1949 H 0.2836 0.82673 0.06611 0.0
C1950 C 0.27275 0.78497 0.13499 0.0
C1951 C 0.25805 0.77993 0.14905 0.0
C1952 C 0.23894 0.78869 0.14761 0.0
C1953 C 0.23445 0.80213 0.13233 0.0
C1954 C 0.24922 0.80661 0.11857 0.0
C1955 C 0.26798 0.79827 0.11976 0.0
C1956 C 0.28086 0.80477 0.10256 0.0
C1957 C 0.29932 0.81683 0.11025 0.0
C1958 C 0.28691 0.78668 0.08963 0.0
C1959 C 0.26637 0.81792 0.09141 0.0
C1960 C 0.24825 0.81894 0.10096 0.0
C1961 C 0.23246 0.82999 0.09327 0.0
C1962 C 0.23524 0.84016 0.07529 0.0
C1963 C 0.25362 0.83909 0.06512 0.0
C1964 C 0.26935 0.82787 0.07346 0.0
H1965 H 0.03076 0.46802 0.12287 0.0
H1966 H 0.0139 0.40529 0.12765 0.0
H1967 H 0.03277 0.4036 0.15952 0.0
H1968 H 0.08061 0.46393 0.14298 0.0
H1969 H 0.08043 0.48739 0.15668 0.0
H1970 H 0.06533 0.48406 0.13422 0.0
H1971 H 0.03367 0.49359 0.15376 0.0
H1972 H 0.0487 0.49712 0.17623 0.0
H1973 H 0.02744 0.48015 0.17602 0.0
H1974 H 0.05352 0.40815 0.19015 0.0
H1975 H 0.07412 0.41908 0.21925 0.0
H1976 H 0.07784 0.47914 0.19555 0.0
C1977 C 0.0309 0.45401 0.13076 0.0
C1978 C 0.02103 0.43672 0.12269 0.0
C1979 C 0.02164 0.41862 0.13338 0.0
C1980 C 0.03225 0.41752 0.15152 0.0
C1981 C 0.04213 0.43467 0.15887 0.0
C1982 C 0.0415 0.45262 0.14898 0.0
C1983 C 0.05354 0.46874 0.16034 0.0
C1984 C 0.07101 0.47648 0.1478 0.0
C1985 C 0.04003 0.48592 0.16698 0.0
C1986 C 0.06099 0.45697 0.17811 0.0
C1987 C 0.05421 0.43735 0.17684 0.0
C1988 C 0.05891 0.42348 0.19138 0.0
C1989 C 0.07066 0.42988 0.20786 0.0
C1990 C 0.07762 0.44999 0.20974 0.0
C1991 C 0.07284 0.46365 0.19451 0.0
H1992 H 0.36907 0.71326 0.26104 0.0
H1993 H 0.34025 0.67863 0.30722 0.0
H1994 H 0.37065 0.68236 0.32839 0.0
H1995 H 0.41995 0.69745 0.26946 0.0
H1996 H 0.4304 0.72209 0.26564 0.0
H1997 H 0.4074 0.71447 0.25301 0.0
H1998 H 0.38965 0.74528 0.26803 0.0
H1999 H 0.41259 0.75307 0.28057 0.0
H2000 H 0.39019 0.7494 0.29476 0.0
H2001 H 0.40432 0.69105 0.34529 0.0
H2002 H 0.43626 0.7069 0.3574 0.0
H2003 H 0.44075 0.73864 0.30161 0.0
C2004 C 0.36889 0.70649 0.27561 0.0
C2005 C 0.35202 0.69548 0.28218 0.0
C2006 C 0.35298 0.68669 0.30138 0.0
C2007 C 0.37021 0.68883 0.31366 0.0
C2008 C 0.38637 0.7 0.30674 0.0
C2009 C 0.38572 0.70887 0.28823 0.0
C2010 C 0.40426 0.7216 0.2849 0.0
C2011 C 0.41621 0.7134 0.2672 0.0
C2012 C 0.39884 0.74364 0.2819 0.0
C2013 C 0.41535 0.71877 0.30455 0.0
C2014 C 0.40506 0.70591 0.31682 0.0
C2015 C 0.41248 0.70114 0.33579 0.0
C2016 C 0.43065 0.71012 0.34252 0.0
C2017 C 0.44087 0.72401 0.33047 0.0
C2018 C 0.43319 0.72811 0.31117 0.0
H2019 H 0.96089 0.37975 0.93558 0.0
H2020 H 0.96418 0.34336 0.98867 0.0
H2021 H 0.96993 0.31349 0.9675 0.0
H2022 H 0.93464 0.34241 0.90392 0.0
H2023 H 0.94798 0.34939 0.88184 0.0
H2024 H 0.94363 0.36778 0.90122 0.0
H2025 H 0.98172 0.37554 0.90386 0.0
H2026 H 0.9862 0.3571 0.88459 0.0
H2027 H 0.99876 0.35549 0.90858 0.0
H2028 H 0.97682 0.28776 0.94055 0.0
H2029 H 0.98303 0.26802 0.90972 0.0
H2030 H 0.97405 0.32111 0.87437 0.0
C2031 C 0.96248 0.36546 0.94276 0.0
C2032 C 0.96218 0.36397 0.96382 0.0
C2033 C 0.96467 0.34498 0.97259 0.0
C2034 C 0.96782 0.32788 0.96069 0.0
C2035 C 0.96831 0.32995 0.94001 0.0
C2036 C 0.96555 0.34823 0.93111 0.0
C2037 C 0.96704 0.34646 0.90858 0.0
C2038 C 0.94714 0.35183 0.89829 0.0
C2039 C 0.98447 0.35941 0.90097 0.0
C2040 C 0.97124 0.32438 0.90622 0.0
C2041 C 0.97194 0.3151 0.92451 0.0
C2042 C 0.97616 0.29483 0.92612 0.0
C2043 C 0.97971 0.28375 0.90854 0.0
C2044 C 0.97894 0.29296 0.88961 0.0
C2045 C 0.9746 0.31355 0.88857 0.0
H2046 H 0.62807 0.73651 0.27946 0.0
H2047 H 0.62628 0.79774 0.25913 0.0
H2048 H 0.59393 0.80221 0.27549 0.0
H2049 H 0.5742 0.72578 0.27442 0.0
H2050 H 0.57307 0.71125 0.29684 0.0
H2051 H 0.5958 0.71226 0.28278 0.0
H2052 H 0.61541 0.72453 0.31455 0.0
H2053 H 0.59273 0.72366 0.32869 0.0
H2054 H 0.60732 0.74655 0.32785 0.0
H2055 H 0.56278 0.80076 0.29401 0.0
H2056 H 0.53346 0.79373 0.31427 0.0
H2057 H 0.5543 0.73344 0.32437 0.0
C2058 C 0.62067 0.75073 0.27833 0.0
C2059 C 0.62963 0.76683 0.26804 0.0
C2060 C 0.6197 0.7853 0.26702 0.0
C2061 C 0.60132 0.78796 0.27623 0.0
C2062 C 0.59301 0.77202 0.28652 0.0
C2063 C 0.60224 0.75375 0.28771 0.0
C2064 C 0.59005 0.73943 0.30036 0.0
C2065 C 0.58285 0.72109 0.28785 0.0
C2066 C 0.6021 0.73318 0.31897 0.0
C2067 C 0.57264 0.7526 0.30606 0.0
C2068 C 0.57477 0.77127 0.29774 0.0
C2069 C 0.56087 0.78619 0.30059 0.0
C2070 C 0.5442 0.78197 0.31216 0.0
C2071 C 0.54141 0.76298 0.32096 0.0
C2072 C 0.55597 0.7481 0.31792 0.0
H2073 H 0.01047 0.10428 0.94199 0.0
H2074 H 0.00994 0.14529 0.99293 0.0
H2075 H 0.01006 0.17396 0.97008 0.0
H2076 H 0.04209 0.13465 0.91003 0.0
H2077 H 0.02815 0.12811 0.88745 0.0
H2078 H 0.02923 0.11077 0.90776 0.0
H2079 H 0.99051 0.10929 0.90851 0.0
H2080 H 0.98932 0.12659 0.8882 0.0
H2081 H 0.97688 0.13217 0.91128 0.0
H2082 H 0.01006 0.1981 0.94196 0.0
H2083 H 0.00748 0.21635 0.91038 0.0
H2084 H 0.00633 0.15995 0.87708 0.0
C2085 C 0.01057 0.11933 0.94826 0.0
C2086 C 0.01027 0.12263 0.96922 0.0
C2087 C 0.01009 0.14248 0.97693 0.0
C2088 C 0.01026 0.15883 0.96407 0.0
C2089 C 0.01042 0.15511 0.9435 0.0
C2090 C 0.01041 0.13588 0.93559 0.0
C2091 C 0.00952 0.13611 0.91286 0.0
C2092 C 0.02837 0.12686 0.904 0.0
C2093 C 0.99042 0.12541 0.90474 0.0
C2094 C 0.00894 0.15846 0.90927 0.0
C2095 C 0.00974 0.16911 0.92718 0.0
C2096 C 0.00941 0.18992 0.92784 0.0
C2097 C 0.00799 0.20017 0.90976 0.0
C2098 C 0.00667 0.18964 0.89116 0.0
C2099 C 0.0073 0.16847 0.891 0.0
H2100 H 0.37985 0.30855 0.23704 0.0
H2101 H 0.42345 0.29394 0.28315 0.0
H2102 H 0.4486 0.28785 0.25711 0.0
H2103 H 0.39461 0.27178 0.20107 0.0
H2104 H 0.39039 0.28762 0.17991 0.0
H2105 H 0.37604 0.29097 0.20222 0.0
H2106 H 0.38743 0.32822 0.20453 0.0
H2107 H 0.40178 0.325 0.1822 0.0
H2108 H 0.41378 0.33449 0.20488 0.0
H2109 H 0.46898 0.28368 0.22582 0.0
H2110 H 0.48278 0.28107 0.19187 0.0
H2111 H 0.42547 0.29834 0.16656 0.0
C2112 C 0.39476 0.30429 0.2417 0.0
C2113 C 0.39976 0.30184 0.26211 0.0
C2114 C 0.41929 0.29581 0.26757 0.0
C2115 C 0.43367 0.2924 0.2529 0.0
C2116 C 0.42822 0.295 0.2329 0.0
C2117 C 0.40921 0.30076 0.2273 0.0
C2118 C 0.40698 0.30226 0.20482 0.0
C2119 C 0.39107 0.28726 0.19652 0.0
C2120 C 0.40222 0.32377 0.19876 0.0
C2121 C 0.42776 0.2965 0.19859 0.0
C2122 C 0.43982 0.2924 0.21497 0.0
C2123 C 0.45966 0.28684 0.21288 0.0
C2124 C 0.46737 0.28541 0.19353 0.0
C2125 C 0.45522 0.28948 0.17652 0.0
C2126 C 0.43516 0.29509 0.17921 0.0
H2127 H 0.50188 0.39228 0.01194 0.0
H2128 H 0.53324 0.43325 0.05343 0.0
H2129 H 0.53066 0.40838 0.07988 0.0
H2130 H 0.46645 0.37452 0.04897 0.0
H2131 H 0.46549 0.34945 0.03858 0.0
H2132 H 0.47035 0.37035 0.02262 0.0
H2133 H 0.50302 0.35378 0.01102 0.0
H2134 H 0.49841 0.33297 0.02715 0.0
H2135 H 0.52163 0.347 0.02942 0.0
H2136 H 0.5269 0.37805 0.10133 0.0
H2137 H 0.51727 0.34641 0.1177 0.0
H2138 H 0.48495 0.32705 0.06375 0.0
C2139 C 0.50794 0.39626 0.02662 0.0
C2140 C 0.51826 0.41467 0.03025 0.0
C2141 C 0.52595 0.41903 0.04985 0.0
C2142 C 0.52443 0.40504 0.06512 0.0
C2143 C 0.5147 0.38688 0.06083 0.0
C2144 C 0.50614 0.38265 0.04223 0.0
C2145 C 0.49576 0.36232 0.04183 0.0
C2146 C 0.47317 0.36428 0.03776 0.0
C2147 C 0.50528 0.34819 0.02644 0.0
C2148 C 0.50004 0.35575 0.06303 0.0
C2149 C 0.51127 0.36999 0.07366 0.0
C2150 C 0.51786 0.36688 0.09327 0.0
C2151 C 0.51246 0.34887 0.1024 0.0
C2152 C 0.50027 0.33448 0.09202 0.0
C2153 C 0.49409 0.33796 0.07208 0.0
H2154 H 0.62925 0.26787 0.21698 0.0
H2155 H 0.62604 0.20327 0.22211 0.0
H2156 H 0.59537 0.20217 0.20111 0.0
H2157 H 0.57609 0.27605 0.21888 0.0
H2158 H 0.57626 0.29571 0.20076 0.0
H2159 H 0.59817 0.29157 0.21613 0.0
H2160 H 0.61939 0.28765 0.18431 0.0
H2161 H 0.59754 0.29171 0.16884 0.0
H2162 H 0.61189 0.26939 0.16534 0.0
H2163 H 0.56487 0.20779 0.18059 0.0
H2164 H 0.53613 0.2198 0.16096 0.0
H2165 H 0.55878 0.28085 0.16793 0.0
C2166 C 0.62202 0.25354 0.2137 0.0
C2167 C 0.63012 0.23562 0.22106 0.0
C2168 C 0.6203 0.21713 0.21638 0.0
C2169 C 0.60281 0.21636 0.20454 0.0
C2170 C 0.59531 0.2342 0.19739 0.0
C2171 C 0.60455 0.25246 0.2017 0.0
C2172 C 0.59323 0.26934 0.19198 0.0
C2173 C 0.58548 0.28403 0.20789 0.0
C2174 C 0.6063 0.28016 0.17671 0.0
C2175 C 0.57615 0.25768 0.18169 0.0
C2176 C 0.57769 0.23744 0.18511 0.0
C2177 C 0.56352 0.22359 0.17771 0.0
C2178 C 0.54722 0.23058 0.1666 0.0
C2179 C 0.54523 0.25125 0.16284 0.0
C2180 C 0.56002 0.26495 0.17038 0.0
H2181 H 0.44047 0.15597 0.03529 0.0
H2182 H 0.49942 0.13053 0.04218 0.0
H2183 H 0.51053 0.16004 0.06245 0.0
H2184 H 0.45702 0.20712 0.03103 0.0
H2185 H 0.43649 0.21706 0.04495 0.0
H2186 H 0.43325 0.19395 0.03093 0.0
H2187 H 0.42186 0.17607 0.063 0.0
H2188 H 0.42507 0.19912 0.07712 0.0
H2189 H 0.43786 0.17702 0.08502 0.0
H2190 H 0.51503 0.19212 0.08245 0.0
H2191 H 0.51277 0.22479 0.10004 0.0
H2192 H 0.45086 0.22912 0.07994 0.0
C2193 C 0.45568 0.15656 0.04116 0.0
C2194 C 0.46909 0.14098 0.03712 0.0
C2195 C 0.48896 0.14242 0.04487 0.0
C2196 C 0.49537 0.15906 0.05649 0.0
C2197 C 0.48176 0.17414 0.0602 0.0
C2198 C 0.46235 0.17307 0.05272 0.0
C2199 C 0.45072 0.19135 0.05879 0.0
C2200 C 0.44398 0.20306 0.04032 0.0
C2201 C 0.43282 0.18553 0.07175 0.0
C2202 C 0.46661 0.20283 0.0709 0.0
C2203 C 0.4844 0.19265 0.07158 0.0
C2204 C 0.50118 0.20027 0.082 0.0
C2205 C 0.49976 0.21883 0.09195 0.0
C2206 C 0.48167 0.22957 0.09135 0.0
C2207 C 0.46494 0.22135 0.08067 0.0
H2208 H 0.28595 0.36499 0.74867 0.0
H2209 H 0.28684 0.36478 0.6838 0.0
H2210 H 0.30868 0.39515 0.68504 0.0
H2211 H 0.28208 0.4171 0.75533 0.0
H2212 H 0.29763 0.41828 0.77764 0.0
H2213 H 0.28359 0.39577 0.77138 0.0
H2214 H 0.31623 0.37539 0.7726 0.0
H2215 H 0.33038 0.39787 0.7789 0.0
H2216 H 0.33703 0.38285 0.75747 0.0
H2217 H 0.32914 0.42734 0.69395 0.0
H2218 H 0.34589 0.45732 0.70959 0.0
H2219 H 0.33033 0.43566 0.76823 0.0
C2220 C 0.29072 0.37127 0.73468 0.0
C2221 C 0.28458 0.36252 0.71613 0.0
C2222 C 0.29148 0.37109 0.69821 0.0
C2223 C 0.30382 0.3884 0.69877 0.0
C2224 C 0.30923 0.39687 0.71736 0.0
C2225 C 0.30293 0.38845 0.73497 0.0
C2226 C 0.31007 0.40061 0.75305 0.0
C2227 C 0.29228 0.4084 0.76505 0.0
C2228 C 0.32427 0.38845 0.76628 0.0
C2229 C 0.32112 0.41744 0.74295 0.0
C2230 C 0.32068 0.41508 0.72238 0.0
C2231 C 0.32963 0.42922 0.71006 0.0
C2232 C 0.33911 0.44621 0.71905 0.0
C2233 C 0.33942 0.44893 0.74013 0.0
C2234 C 0.3304 0.43416 0.75207 0.0
H2235 H 0.28156 0.63213 0.74754 0.0
H2236 H 0.26649 0.63393 0.81046 0.0
H2237 H 0.28622 0.60377 0.81605 0.0
H2238 H 0.27927 0.57826 0.74155 0.0
H2239 H 0.30023 0.57701 0.72502 0.0
H2240 H 0.28509 0.59903 0.72569 0.0
H2241 H 0.31668 0.62095 0.7335 0.0
H2242 H 0.33192 0.59899 0.73288 0.0
H2243 H 0.33246 0.6152 0.75472 0.0
H2244 H 0.30652 0.57347 0.81515 0.0
H2245 H 0.32712 0.54431 0.80802 0.0
H2246 H 0.33024 0.56118 0.74564 0.0
C2247 C 0.28241 0.62611 0.76246 0.0
C2248 C 0.27261 0.63555 0.77862 0.0
C2249 C 0.27414 0.62724 0.79794 0.0
C2250 C 0.28522 0.61003 0.80125 0.0
C2251 C 0.29478 0.6012 0.78512 0.0
C2252 C 0.29359 0.60888 0.7661 0.0
C2253 C 0.30545 0.59625 0.75151 0.0
C2254 C 0.29168 0.5871 0.73496 0.0
C2255 C 0.32265 0.60859 0.74263 0.0
C2256 C 0.31334 0.58026 0.76534 0.0
C2257 C 0.30688 0.58351 0.78463 0.0
C2258 C 0.31173 0.57077 0.80012 0.0
C2259 C 0.32344 0.55418 0.79586 0.0
C2260 C 0.33036 0.55036 0.77625 0.0
C2261 C 0.3253 0.56372 0.76079 0.0
H2262 H 0.87395 0.47378 0.49926 0.0
H2263 H 0.84159 0.5047 0.45281 0.0
H2264 H 0.81091 0.48491 0.46017 0.0
H2265 H 0.85399 0.42677 0.48722 0.0
H2266 H 0.85317 0.41807 0.51258 0.0
H2267 H 0.87124 0.43694 0.50596 0.0
H2268 H 0.85806 0.46047 0.5338 0.0
H2269 H 0.83986 0.44164 0.54047 0.0
H2270 H 0.83186 0.46637 0.53412 0.0
H2271 H 0.78463 0.45982 0.47098 0.0
H2272 H 0.76623 0.42944 0.4815 0.0
H2273 H 0.8167 0.41381 0.51944 0.0
C2274 C 0.86021 0.47669 0.49107 0.0
C2275 C 0.85984 0.49091 0.47577 0.0
C2276 C 0.84193 0.49397 0.46477 0.0
C2277 C 0.82449 0.48289 0.46892 0.0
C2278 C 0.82535 0.46872 0.48399 0.0
C2279 C 0.84283 0.4655 0.49478 0.0
C2280 C 0.84059 0.44783 0.50844 0.0
C2281 C 0.85563 0.43144 0.50323 0.0
C2282 C 0.84271 0.45448 0.53052 0.0
C2283 C 0.81932 0.44122 0.50328 0.0
C2284 C 0.81058 0.45373 0.48953 0.0
C2285 C 0.79127 0.45004 0.48189 0.0
C2286 C 0.78089 0.4328 0.48801 0.0
C2287 C 0.79003 0.41929 0.50129 0.0
C2288 C 0.80928 0.42391 0.50934 0.0
H2289 H 0.75018 0.9086 0.81356 0.0
H2290 H 0.76419 0.90759 0.75025 0.0
H2291 H 0.73667 0.93051 0.74377 0.0
H2292 H 0.69962 0.90208 0.80495 0.0
H2293 H 0.69207 0.91702 0.82612 0.0
H2294 H 0.71581 0.90487 0.82673 0.0
H2295 H 0.73369 0.93902 0.83409 0.0
H2296 H 0.70991 0.95132 0.8334 0.0
H2297 H 0.72974 0.95953 0.8174 0.0
H2298 H 0.70515 0.9506 0.74334 0.0
H2299 H 0.67053 0.96217 0.74848 0.0
H2300 H 0.67475 0.94558 0.81072 0.0
C2301 C 0.74771 0.91315 0.79828 0.0
C2302 C 0.75975 0.90617 0.78252 0.0
C2303 C 0.75579 0.91301 0.76285 0.0
C2304 C 0.74003 0.92604 0.75893 0.0
C2305 C 0.72811 0.93199 0.77475 0.0
C2306 C 0.73166 0.92556 0.794 0.0
C2307 C 0.71493 0.93135 0.80777 0.0
C2308 C 0.70503 0.91273 0.81691 0.0
C2309 C 0.72253 0.94619 0.82413 0.0
C2310 C 0.70104 0.94135 0.79309 0.0
C2311 C 0.7092 0.94226 0.77426 0.0
C2312 C 0.6987 0.95015 0.75806 0.0
C2313 C 0.67913 0.95673 0.76108 0.0
C2314 C 0.67023 0.95475 0.77997 0.0
C2315 C 0.68143 0.94735 0.79619 0.0
H2316 H 0.64793 0.54188 0.95467 0.0
H2317 H 0.62689 0.55368 0.01466 0.0
H2318 H 0.65619 0.57597 0.02146 0.0
H2319 H 0.69925 0.53966 0.96768 0.0
H2320 H 0.70786 0.55164 0.94539 0.0
H2321 H 0.68458 0.53769 0.94481 0.0
H2322 H 0.66602 0.56881 0.93195 0.0
H2323 H 0.68929 0.58283 0.93238 0.0
H2324 H 0.66819 0.59209 0.94591 0.0
H2325 H 0.68856 0.5959 0.02213 0.0
H2326 H 0.72154 0.61198 0.01653 0.0
H2327 H 0.72127 0.58683 0.95617 0.0
C2328 C 0.64932 0.54944 0.9691 0.0
C2329 C 0.63517 0.54609 0.98414 0.0
C2330 C 0.63768 0.55594 0.00299 0.0
C2331 C 0.65421 0.56869 0.00695 0.0
C2332 C 0.66807 0.57142 0.99191 0.0
C2333 C 0.66578 0.56213 0.97334 0.0
C2334 C 0.68322 0.56693 0.96005 0.0
C2335 C 0.69439 0.54784 0.95415 0.0
C2336 C 0.67626 0.57835 0.94148 0.0
C2337 C 0.69577 0.58021 0.9741 0.0
C2338 C 0.68675 0.58273 0.99237 0.0
C2339 C 0.69574 0.59412 0.00784 0.0
C2340 C 0.71448 0.60317 0.00454 0.0
C2341 C 0.72402 0.60068 0.98593 0.0
C2342 C 0.71441 0.58907 0.97057 0.0
H2343 H 0.20571 0.60496 0.22523 0.0
H2344 H 0.16226 0.65241 0.22375 0.0
H2345 H 0.13508 0.62768 0.22865 0.0
H2346 H 0.17549 0.568 0.19881 0.0
H2347 H 0.18385 0.54741 0.21367 0.0
H2348 H 0.20009 0.56882 0.21033 0.0
H2349 H 0.20369 0.57364 0.24878 0.0
H2350 H 0.18758 0.55215 0.25223 0.0
H2351 H 0.18154 0.57589 0.26357 0.0
H2352 H 0.11253 0.59796 0.23346 0.0
H2353 H 0.09616 0.56516 0.23875 0.0
H2354 H 0.15407 0.53681 0.23716 0.0
C2355 C 0.1905 0.61015 0.22614 0.0
C2356 C 0.18611 0.63062 0.22397 0.0
C2357 C 0.16596 0.63678 0.22506 0.0
C2358 C 0.15042 0.62286 0.22793 0.0
C2359 C 0.1552 0.60279 0.22971 0.0
C2360 C 0.17473 0.59641 0.22894 0.0
C2361 C 0.17572 0.57392 0.23119 0.0
C2362 C 0.18429 0.56396 0.21237 0.0
C2363 C 0.18785 0.56859 0.25007 0.0
C2364 C 0.1537 0.5687 0.23335 0.0
C2365 C 0.14214 0.58559 0.23244 0.0
C2366 C 0.12141 0.58461 0.2342 0.0
C2367 C 0.11224 0.5659 0.23717 0.0
C2368 C 0.12378 0.54837 0.23834 0.0
C2369 C 0.14479 0.54988 0.23624 0.0
H2370 H 0.88503 0.53282 0.04271 0.0
H2371 H 0.9182 0.53017 0.98758 0.0
H2372 H 0.89767 0.55709 0.97378 0.0
H2373 H 0.83789 0.53933 0.02015 0.0
H2374 H 0.82866 0.55638 0.03888 0.0
H2375 H 0.8474 0.53855 0.04553 0.0
H2376 H 0.87059 0.56732 0.0591 0.0
H2377 H 0.85189 0.58526 0.05248 0.0
H2378 H 0.87688 0.58781 0.04306 0.0
H2379 H 0.8721 0.58138 0.96462 0.0
H2380 H 0.84225 0.60196 0.9602 0.0
H2381 H 0.82502 0.59003 0.02118 0.0
C2382 C 0.88818 0.53826 0.02792 0.0
C2383 C 0.90319 0.52947 0.01617 0.0
C2384 C 0.90668 0.53664 0.99673 0.0
C2385 C 0.8952 0.552 0.98883 0.0
C2386 C 0.8803 0.56012 1.00059 0.0
C2387 C 0.87672 0.5536 0.01971 0.0
C2388 C 0.85871 0.56394 0.02847 0.0
C2389 C 0.84219 0.54864 0.03355 0.0
C2390 C 0.8649 0.57685 0.04687 0.0
C2391 C 0.85246 0.57684 0.01104 0.0
C2392 C 0.86532 0.57448 0.99523 0.0
C2393 C 0.86208 0.58361 0.97696 0.0
C2394 C 0.84504 0.59521 0.97458 0.0
C2395 C 0.83144 0.59768 0.99038 0.0
C2396 C 0.83541 0.5887 0.00901 0.0
H2397 H 0.11132 0.97529 0.99346 0.0
H2398 H 0.10926 0.9793 0.05833 0.0
H2399 H 0.13758 0.95638 0.06077 0.0
H2400 H 0.12452 0.9235 0.98962 0.0
H2401 H 0.14127 0.92712 0.96912 0.0
H2402 H 0.12039 0.94347 0.97232 0.0
H2403 H 0.1445 0.97425 0.97302 0.0
H2404 H 0.16544 0.95801 0.96974 0.0
H2405 H 0.16517 0.97529 0.99073 0.0
H2406 H 0.16617 0.93309 0.05636 0.0
H2407 H 0.19382 0.91187 0.04534 0.0
H2408 H 0.17838 0.92386 0.98335 0.0
C2409 C 0.11688 0.9715 0.0082 0.0
C2410 C 0.1078 0.97903 0.02571 0.0
C2411 C 0.11555 0.97344 0.04467 0.0
C2412 C 0.13177 0.96052 0.04624 0.0
C2413 C 0.14025 0.95334 0.02872 0.0
C2414 C 0.13317 0.95869 0.01005 0.0
C2415 C 0.14527 0.9491 0.99359 0.0
C2416 C 0.13207 0.93496 0.98039 0.0
C2417 C 0.15572 0.96512 0.98103 0.0
C2418 C 0.16027 0.93757 0.00594 0.0
C2419 C 0.15703 0.94016 0.02617 0.0
C2420 C 0.16888 0.93098 0.04056 0.0
C2421 C 0.18455 0.91891 0.03413 0.0
C2422 C 0.18834 0.91618 0.01347 0.0
C2423 C 0.17593 0.92564 0.99925 0.0
loop_
_geom_bond_atom_site_label_1
_geom_bond_atom_site_label_2
_geom_bond_distance
_geom_bond_site_symmetry_2
_ccdc_geom_bond_type
C0 C1 1.391 . S
C0 C4 1.391 1_556 S
C0 H42 0.948 . S
C1 C0 1.391 . S
C1 C2 1.391 1_556 S
C2 C1 1.391 1_554 S
C2 H58 0.967 . S
C2 C59 1.392 . S
C3 C4 1.391 . S
C3 C7 1.397 . S
C3 C59 1.419 . S
C4 C0 1.391 1_554 S
C4 C3 1.391 . S
C4 C5 1.399 . S
C5 C4 1.399 . S
C5 C8 1.396 . S
C5 C17 1.453 . S
C5 C18 1.684 1_554 S
H6 C30 0.948 . S
C7 C3 1.397 . S
C7 C8 1.394 . S
C7 C26 1.723 . S
C8 C5 1.396 . S
C8 C7 1.394 . S
C8 C38 1.723 . S
H9 C32 0.967 . S
H10 C33 0.948 . S
H11 C39 0.982 . S
H12 C40 0.979 . S
H13 C40 0.980 . S
H14 C40 0.983 . S
H15 C39 0.979 1_565 S
H16 C39 0.977 . S
C17 C5 1.453 . S
C17 H46 0.982 . S
C17 H47 0.979 1_554 S
C17 H48 0.977 . S
C18 C5 1.684 1_556 S
C18 H43 0.979 . S
C18 H44 0.980 . S
C18 H45 0.983 . S
C19 C20 1.391 . S
C19 C24 1.391 1_655 S
C19 H49 0.948 . S
C20 C19 1.391 . S
C20 C21 1.391 1_655 S
C21 C20 1.391 1_455 S
C21 C22 1.392 . S
C21 H50 0.967 . S
C22 C21 1.392 . S
C22 C23 1.419 . S
C22 H51 0.948 . S
C23 C22 1.419 . S
C23 C24 1.391 . S
C23 C27 1.397 . S
C24 C19 1.391 1_455 S
C24 C23 1.391 . S
C24 C25 1.399 . S
C25 C24 1.399 . S
C25 C26 1.396 . S
C25 C28 1.453 . S
C25 C29 1.684 1_455 S
C26 C7 1.723 . S
C26 C25 1.396 . S
C26 C27 1.394 . S
C27 C23 1.397 . S
C27 C26 1.394 . S
C27 C37 1.723 . S
C28 C25 1.453 . S
C28 H52 0.982 . S
C28 H53 0.979 1_455 S
C28 H54 0.977 . S
C29 C25 1.684 1_655 S
C29 H55 0.979 . S
C29 H56 0.980 . S
C29 H57 0.983 . S
C30 H6 0.948 . S
C30 C31 1.391 . S
C30 C35 1.391 1_565 S
C31 C30 1.391 . S
C31 C32 1.391 1_565 S
C32 H9 0.967 . S
C32 C31 1.391 1_545 S
C32 C33 1.392 . S
C33 H10 0.948 . S
C33 C32 1.392 . S
C33 C34 1.419 . S
C34 C33 1.419 . S
C34 C35 1.391 . S
C34 C38 1.397 . S
C35 C30 1.391 1_545 S
C35 C34 1.391 . S
C35 C36 1.399 . S
C36 C35 1.399 . S
C36 C37 1.396 . S
C36 C39 1.453 . S
C36 C40 1.684 1_545 S
C37 C27 1.723 . S
C37 C36 1.396 . S
C37 C38 1.394 . S
C38 C8 1.723 . S
C38 C34 1.397 . S
C38 C37 1.394 . S
C39 H11 0.982 . S
C39 H15 0.979 1_545 S
C39 H16 0.977 . S
C39 C36 1.453 . S
C40 H12 0.979 . S
C40 H13 0.980 . S
C40 H14 0.983 . S
C40 C36 1.684 1_565 S
H41 C59 0.948 . S
H42 C0 0.948 . S
H43 C18 0.979 . S
H44 C18 0.980 . S
H45 C18 0.983 . S
H46 C17 0.982 . S
H47 C17 0.979 1_556 S
H48 C17 0.977 . S
H49 C19 0.948 . S
H50 C21 0.967 . S
H51 C22 0.948 . S
H52 C28 0.982 . S
H53 C28 0.979 1_655 S
H54 C28 0.977 . S
H55 C29 0.979 . S
H56 C29 0.980 . S
H57 C29 0.983 . S
H58 C2 0.967 . S
C59 C2 1.392 . S
C59 C3 1.419 . S
C59 H41 0.948 . S
C60 C61 1.391 . S
C60 C64 1.391 . S
C60 H102 0.948 . S
C61 C60 1.391 . S
C61 C62 1.391 . S
C62 C61 1.391 . S
C62 H118 0.947 . S
C62 C119 1.392 . S
C63 C64 1.391 . S
C63 C67 1.397 . S
C63 C119 1.419 . S
C64 C60 1.391 . S
C64 C63 1.391 . S
C64 C65 1.399 . S
C65 C64 1.399 . S
C65 C68 1.396 . S
C65 C77 1.453 . S
C65 C78 1.684 . S
H66 C90 0.948 . S
C67 C63 1.397 . S
C67 C68 1.394 . S
C67 C86 1.723 . S
C68 C65 1.396 . S
C68 C67 1.394 . S
C68 C98 1.723 . S
H69 C92 0.947 . S
H70 C93 0.948 . S
H71 C99 0.982 . S
H72 C100 0.979 . S
H73 C100 0.980 . S
H74 C100 0.983 . S
H75 C99 0.979 . S
H76 C99 0.977 . S
C77 C65 1.453 . S
C77 H106 0.982 . S
C77 H107 0.979 . S
C77 H108 0.977 . S
C78 C65 1.684 . S
C78 H103 0.979 . S
C78 H104 0.980 . S
C78 H105 0.983 . S
C79 C80 1.391 . S
C79 C84 1.391 . S
C79 H109 0.948 . S
C80 C79 1.391 . S
C80 C81 1.391 . S
C81 C80 1.391 . S
C81 C82 1.392 . S
C81 H110 0.947 . S
C82 C81 1.392 . S
C82 C83 1.419 . S
C82 H111 0.948 . S
C83 C82 1.419 . S
C83 C84 1.391 . S
C83 C87 1.397 . S
C84 C79 1.391 . S
C84 C83 1.391 . S
C84 C85 1.399 . S
C85 C84 1.399 . S
C85 C86 1.396 . S
C85 C88 1.453 . S
C85 C89 1.684 . S
C86 C67 1.723 . S
C86 C85 1.396 . S
C86 C87 1.394 . S
C87 C83 1.397 . S
C87 C86 1.394 . S
C87 C97 1.723 . S
C88 C85 1.453 . S
C88 H112 0.982 . S
C88 H113 0.979 . S
C88 H114 0.977 . S
C89 C85 1.684 . S
C89 H115 0.979 . S
C89 H116 0.980 . S
C89 H117 0.983 . S
C90 H66 0.948 . S
C90 C91 1.391 . S
C90 C95 1.391 . S
C91 C90 1.391 . S
C91 C92 1.391 . S
C92 H69 0.947 . S
C92 C91 1.391 . S
C92 C93 1.392 . S
C93 H70 0.948 . S
C93 C92 1.392 . S
C93 C94 1.419 . S
C94 C93 1.419 . S
C94 C95 1.391 . S
C94 C98 1.397 . S
C95 C90 1.391 . S
C95 C94 1.391 . S
C95 C96 1.399 . S
C96 C95 1.399 . S
C96 C97 1.396 . S
C96 C99 1.453 . S
C96 C100 1.684 . S
C97 C87 1.723 . S
C97 C96 1.396 . S
C97 C98 1.394 . S
C98 C68 1.723 . S
C98 C94 1.397 . S
C98 C97 1.394 . S
C99 H71 0.982 . S
C99 H75 0.979 . S
C99 H76 0.977 . S
C99 C96 1.453 . S
C100 H72 0.979 . S
C100 H73 0.980 . S
C100 H74 0.983 . S
C100 C96 1.684 . S
H101 C119 0.948 . S
H102 C60 0.948 . S
H103 C78 0.979 . S
H104 C78 0.980 . S
H105 C78 0.983 . S
H106 C77 0.982 . S
H107 C77 0.979 . S
H108 C77 0.977 . S
H109 C79 0.948 . S
H110 C81 0.947 . S
H111 C82 0.948 . S
H112 C88 0.982 . S
H113 C88 0.979 . S
H114 C88 0.977 . S
H115 C89 0.979 . S
H116 C89 0.980 . S
H117 C89 0.983 . S
H118 C62 0.947 . S
C119 C62 1.392 . S
C119 C63 1.419 . S
C119 H101 0.948 . S
C120 C121 1.391 1_554 S
C120 C124 1.391 . S
C120 H162 0.948 . S
C121 C120 1.391 1_556 S
C121 C122 1.391 . S
C122 C121 1.391 . S
C122 H178 0.947 . S
C122 C179 1.392 1_556 S
C123 C124 1.391 . S
C123 C127 1.397 . S
C123 C179 1.419 . S
C124 C120 1.391 . S
C124 C123 1.391 . S
C124 C125 1.399 . S
C125 C124 1.399 . S
C125 C128 1.396 . S
C125 C137 1.453 . S
C125 C138 1.684 1_655 S
H126 C150 0.948 . S
C127 C123 1.397 . S
C127 C128 1.394 . S
C127 C146 1.723 . S
C128 C125 1.396 . S
C128 C127 1.394 . S
C128 C158 1.723 . S
H129 C152 0.947 . S
H130 C153 0.948 1_455 S
H131 C159 0.982 . S
H132 C160 0.979 . S
H133 C160 0.980 . S
H134 C160 0.983 . S
H135 C159 0.979 . S
H136 C159 0.977 . S
C137 C125 1.453 . S
C137 H166 0.982 . S
C137 H167 0.979 . S
C137 H168 0.977 . S
C138 C125 1.684 1_455 S
C138 H163 0.979 . S
C138 H164 0.980 . S
C138 H165 0.983 . S
C139 C140 1.391 . S
C139 C144 1.391 . S
C139 H169 0.948 . S
C140 C139 1.391 . S
C140 C141 1.391 . S
C141 C140 1.391 . S
C141 C142 1.392 . S
C141 H170 0.947 . S
C142 C141 1.392 . S
C142 C143 1.419 . S
C142 H171 0.948 . S
C143 C142 1.419 . S
C143 C144 1.391 . S
C143 C147 1.397 . S
C144 C139 1.391 . S
C144 C143 1.391 . S
C144 C145 1.399 . S
C145 C144 1.399 . S
C145 C146 1.396 . S
C145 C148 1.453 . S
C145 C149 1.707 . S
C146 C127 1.723 . S
C146 C145 1.396 . S
C146 C147 1.394 . S
C147 C143 1.397 . S
C147 C146 1.394 . S
C147 C157 1.723 . S
C148 C145 1.453 . S
C148 H172 0.982 . S
C148 H173 0.979 . S
C148 H174 0.977 . S
C149 C145 1.707 . S
C149 H175 0.971 1_554 S
C149 H176 0.973 1_554 S
C149 H177 0.975 1_554 S
C150 H126 0.948 . S
C150 C151 1.391 1_655 S
C150 C155 1.391 . S
C151 C150 1.391 1_455 S
C151 C152 1.391 . S
C152 H129 0.947 . S
C152 C151 1.391 . S
C152 C153 1.392 1_455 S
C153 H130 0.948 1_655 S
C153 C152 1.392 1_655 S
C153 C154 1.419 . S
C154 C153 1.419 . S
C154 C155 1.391 . S
C154 C158 1.397 . S
C155 C150 1.391 . S
C155 C154 1.391 . S
C155 C156 1.399 . S
C156 C155 1.399 . S
C156 C157 1.396 . S
C156 C159 1.453 . S
C156 C160 1.684 . S
C157 C147 1.723 . S
C157 C156 1.396 . S
C157 C158 1.394 . S
C158 C128 1.723 . S
C158 C154 1.397 . S
C158 C157 1.394 . S
C159 H131 0.982 . S
C159 H135 0.979 . S
C159 H136 0.977 . S
C159 C156 1.453 . S
C160 H132 0.979 . S
C160 H133 0.980 . S
C160 H134 0.983 . S
C160 C156 1.684 . S
H161 C179 0.948 . S
H162 C120 0.948 . S
H163 C138 0.979 . S
H164 C138 0.980 . S
H165 C138 0.983 . S
H166 C137 0.982 . S
H167 C137 0.979 . S
H168 C137 0.977 . S
H169 C139 0.948 . S
H170 C141 0.947 . S
H171 C142 0.948 . S
H172 C148 0.982 . S
H173 C148 0.979 . S
H174 C148 0.977 . S
H175 C149 0.971 1_556 S
H176 C149 0.973 1_556 S
H177 C149 0.975 1_556 S
H178 C122 0.947 . S
C179 C122 1.392 1_554 S
C179 C123 1.419 . S
C179 H161 0.948 . S
C180 C181 1.391 . S
C180 C184 1.391 . S
C180 H222 0.948 . S
C181 C180 1.391 . S
C181 C182 1.391 . S
C182 C181 1.391 . S
C182 H238 0.947 . S
C182 C239 1.392 . S
C183 C184 1.391 . S
C183 C187 1.397 . S
C183 C239 1.419 . S
C184 C180 1.391 . S
C184 C183 1.391 . S
C184 C185 1.399 . S
C185 C184 1.399 . S
C185 C188 1.396 . S
C185 C197 1.453 . S
C185 C198 1.684 . S
H186 C210 0.948 . S
C187 C183 1.397 . S
C187 C188 1.394 . S
C187 C206 1.723 . S
C188 C185 1.396 . S
C188 C187 1.394 . S
C188 C218 1.723 . S
H189 C212 0.947 . S
H190 C213 0.948 . S
H191 C219 0.982 . S
H192 C220 0.979 . S
H193 C220 0.980 . S
H194 C220 0.983 . S
H195 C219 0.979 . S
H196 C219 0.977 . S
C197 C185 1.453 . S
C197 H226 0.982 . S
C197 H227 0.979 . S
C197 H228 0.977 . S
C198 C185 1.684 . S
C198 H223 0.979 . S
C198 H224 0.980 . S
C198 H225 0.983 . S
C199 C200 1.391 . S
C199 C204 1.391 . S
C199 H229 0.948 . S
C200 C199 1.391 . S
C200 C201 1.391 . S
C201 C200 1.391 . S
C201 C202 1.392 . S
C201 H230 0.947 . S
C202 C201 1.392 . S
C202 C203 1.419 . S
C202 H231 0.948 . S
C203 C202 1.419 . S
C203 C204 1.391 . S
C203 C207 1.397 . S
C204 C199 1.391 . S
C204 C203 1.391 . S
C204 C205 1.399 . S
C205 C204 1.399 . S
C205 C206 1.396 . S
C205 C208 1.453 . S
C205 C209 1.684 . S
C206 C187 1.723 . S
C206 C205 1.396 . S
C206 C207 1.394 . S
C207 C203 1.397 . S
C207 C206 1.394 . S
C207 C217 1.723 . S
C208 C205 1.453 . S
C208 H232 0.982 . S
C208 H233 0.979 . S
C208 H234 0.977 . S
C209 C205 1.684 . S
C209 H235 0.979 . S
C209 H236 0.980 . S
C209 H237 0.983 . S
C210 H186 0.948 . S
C210 C211 1.391 . S
C210 C215 1.391 . S
C211 C210 1.391 . S
C211 C212 1.391 . S
C212 H189 0.947 . S
C212 C211 1.391 . S
C212 C213 1.392 . S
C213 H190 0.948 . S
C213 C212 1.392 . S
C213 C214 1.419 . S
C214 C213 1.419 . S
C214 C215 1.391 . S
C214 C218 1.397 . S
C215 C210 1.391 . S
C215 C214 1.391 . S
C215 C216 1.399 . S
C216 C215 1.399 . S
C216 C217 1.396 . S
C216 C219 1.453 . S
C216 C220 1.684 . S
C217 C207 1.723 . S
C217 C216 1.396 . S
C217 C218 1.394 . S
C218 C188 1.723 . S
C218 C214 1.397 . S
C218 C217 1.394 . S
C219 H191 0.982 . S
C219 H195 0.979 . S
C219 H196 0.977 . S
C219 C216 1.453 . S
C220 H192 0.979 . S
C220 H193 0.980 . S
C220 H194 0.983 . S
C220 C216 1.684 . S
H221 C239 0.948 . S
H222 C180 0.948 . S
H223 C198 0.979 . S
H224 C198 0.980 . S
H225 C198 0.983 . S
H226 C197 0.982 . S
H227 C197 0.979 . S
H228 C197 0.977 . S
H229 C199 0.948 . S
H230 C201 0.947 . S
H231 C202 0.948 . S
H232 C208 0.982 . S
H233 C208 0.979 . S
H234 C208 0.977 . S
H235 C209 0.979 . S
H236 C209 0.980 . S
H237 C209 0.983 . S
H238 C182 0.947 . S
C239 C182 1.392 . S
C239 C183 1.419 . S
C239 H221 0.948 . S
C240 C241 1.391 . S
C240 C244 1.391 . S
C240 H282 0.948 . S
C241 C240 1.391 . S
C241 C242 1.391 . S
C242 C241 1.391 . S
C242 H298 0.947 . S
C242 C299 1.392 . S
C243 C244 1.391 . S
C243 C247 1.397 . S
C243 C299 1.419 . S
C244 C240 1.391 . S
C244 C243 1.391 . S
C244 C245 1.399 . S
C245 C244 1.399 . S
C245 C248 1.396 . S
C245 C257 1.453 . S
C245 C258 1.684 . S
H246 C270 0.965 . S
C247 C243 1.397 . S
C247 C248 1.394 . S
C247 C266 1.723 . S
C248 C245 1.396 . S
C248 C247 1.394 . S
C248 C278 1.723 . S
H249 C272 0.947 . S
H250 C273 0.948 . S
H251 C279 0.982 . S
H252 C280 0.979 . S
H253 C280 0.980 . S
H254 C280 0.983 1_545 S
H255 C279 0.979 . S
H256 C279 0.970 1_565 S
C257 C245 1.453 . S
C257 H286 0.982 . S
C257 H287 0.979 . S
C257 H288 0.977 . S
C258 C245 1.684 . S
C258 H283 0.979 . S
C258 H284 0.980 . S
C258 H285 0.983 . S
C259 C260 1.391 . S
C259 C264 1.391 . S
C259 H289 0.948 1_455 S
C260 C259 1.391 . S
C260 C261 1.391 . S
C261 C260 1.391 . S
C261 C262 1.392 . S
C261 H290 0.947 . S
C262 C261 1.392 . S
C262 C263 1.419 . S
C262 H291 0.948 . S
C263 C262 1.419 . S
C263 C264 1.391 . S
C263 C267 1.397 . S
C264 C259 1.391 . S
C264 C263 1.391 . S
C264 C265 1.399 . S
C265 C264 1.399 . S
C265 C266 1.396 . S
C265 C268 1.453 . S
C265 C269 1.684 . S
C266 C247 1.723 . S
C266 C265 1.396 . S
C266 C267 1.394 . S
C267 C263 1.397 . S
C267 C266 1.394 . S
C267 C277 1.723 . S
C268 C265 1.453 . S
C268 H292 0.982 1_455 S
C268 H293 0.979 1_455 S
C268 H294 0.977 . S
C269 C265 1.684 . S
C269 H295 0.979 . S
C269 H296 0.980 . S
C269 H297 0.983 . S
C270 H246 0.965 . S
C270 C271 1.386 1_545 S
C270 C275 1.376 1_545 S
C271 C270 1.386 1_565 S
C271 C272 1.431 . S
C272 H249 0.947 . S
C272 C271 1.431 . S
C272 C273 1.392 . S
C273 H250 0.948 . S
C273 C272 1.392 . S
C273 C274 1.419 . S
C274 C273 1.419 . S
C274 C275 1.391 . S
C274 C278 1.397 . S
C275 C270 1.376 1_565 S
C275 C274 1.391 . S
C275 C276 1.399 . S
C276 C275 1.399 . S
C276 C277 1.396 . S
C276 C279 1.453 1_565 S
C276 C280 1.684 . S
C277 C267 1.723 . S
C277 C276 1.396 . S
C277 C278 1.394 . S
C278 C248 1.723 . S
C278 C274 1.397 . S
C278 C277 1.394 . S
C279 H251 0.982 . S
C279 H255 0.979 . S
C279 H256 0.970 1_545 S
C279 C276 1.453 1_545 S
C280 H252 0.979 . S
C280 H253 0.980 . S
C280 H254 0.983 1_565 S
C280 C276 1.684 . S
H281 C299 0.948 . S
H282 C240 0.948 . S
H283 C258 0.979 . S
H284 C258 0.980 . S
H285 C258 0.983 . S
H286 C257 0.982 . S
H287 C257 0.979 . S
H288 C257 0.977 . S
H289 C259 0.948 1_655 S
H290 C261 0.947 . S
H291 C262 0.948 . S
H292 C268 0.982 1_655 S
H293 C268 0.979 1_655 S
H294 C268 0.977 . S
H295 C269 0.979 . S
H296 C269 0.980 . S
H297 C269 0.983 . S
H298 C242 0.947 . S
C299 C242 1.392 . S
C299 C243 1.419 . S
C299 H281 0.948 . S
C300 C301 1.391 . S
C300 C304 1.391 . S
C300 H342 0.948 . S
C301 C300 1.391 . S
C301 C302 1.391 . S
C302 C301 1.391 . S
C302 H358 0.947 . S
C302 C359 1.392 . S
C303 C304 1.391 . S
C303 C307 1.397 . S
C303 C359 1.419 . S
C304 C300 1.391 . S
C304 C303 1.391 . S
C304 C305 1.399 . S
C305 C304 1.399 . S
C305 C308 1.396 . S
C305 C317 1.453 . S
C305 C318 1.684 . S
H306 C330 0.948 . S
C307 C303 1.397 . S
C307 C308 1.394 . S
C307 C326 1.723 . S
C308 C305 1.396 . S
C308 C307 1.394 . S
C308 C338 1.723 . S
H309 C332 0.947 . S
H310 C333 0.948 . S
H311 C339 0.982 . S
H312 C340 0.979 . S
H313 C340 0.980 . S
H314 C340 0.983 . S
H315 C339 0.979 . S
H316 C339 0.977 . S
C317 C305 1.453 . S
C317 H346 0.982 . S
C317 H347 0.979 . S
C317 H348 0.977 . S
C318 C305 1.684 . S
C318 H343 0.979 . S
C318 H344 0.980 . S
C318 H345 0.983 . S
C319 C320 1.391 . S
C319 C324 1.391 . S
C319 H349 0.948 . S
C320 C319 1.391 . S
C320 C321 1.391 . S
C321 C320 1.391 . S
C321 C322 1.392 . S
C321 H350 0.947 . S
C322 C321 1.392 . S
C322 C323 1.419 . S
C322 H351 0.948 . S
C323 C322 1.419 . S
C323 C324 1.391 . S
C323 C327 1.397 . S
C324 C319 1.391 . S
C324 C323 1.391 . S
C324 C325 1.399 . S
C325 C324 1.399 . S
C325 C326 1.396 . S
C325 C328 1.453 . S
C325 C329 1.684 . S
C326 C307 1.723 . S
C326 C325 1.396 . S
C326 C327 1.394 . S
C327 C323 1.397 . S
C327 C326 1.394 . S
C327 C337 1.723 . S
C328 C325 1.453 . S
C328 H352 0.982 . S
C328 H353 0.979 . S
C328 H354 0.977 . S
C329 C325 1.684 . S
C329 H355 0.979 . S
C329 H356 0.980 . S
C329 H357 0.983 . S
C330 H306 0.948 . S
C330 C331 1.391 . S
C330 C335 1.391 . S
C331 C330 1.391 . S
C331 C332 1.391 . S
C332 H309 0.947 . S
C332 C331 1.391 . S
C332 C333 1.392 . S
C333 H310 0.948 . S
C333 C332 1.392 . S
C333 C334 1.419 . S
C334 C333 1.419 . S
C334 C335 1.391 . S
C334 C338 1.397 . S
C335 C330 1.391 . S
C335 C334 1.391 . S
C335 C336 1.399 . S
C336 C335 1.399 . S
C336 C337 1.396 . S
C336 C339 1.453 . S
C336 C340 1.684 . S
C337 C327 1.723 . S
C337 C336 1.396 . S
C337 C338 1.394 . S
C338 C308 1.723 . S
C338 C334 1.397 . S
C338 C337 1.394 . S
C339 H311 0.982 . S
C339 H315 0.979 . S
C339 H316 0.977 . S
C339 C336 1.453 . S
C340 H312 0.979 . S
C340 H313 0.980 . S
C340 H314 0.983 . S
C340 C336 1.684 . S
H341 C359 0.948 . S
H342 C300 0.948 . S
H343 C318 0.979 . S
H344 C318 0.980 . S
H345 C318 0.983 . S
H346 C317 0.982 . S
H347 C317 0.979 . S
H348 C317 0.977 . S
H349 C319 0.948 . S
H350 C321 0.947 . S
H351 C322 0.948 . S
H352 C328 0.982 . S
H353 C328 0.979 . S
H354 C328 0.977 . S
H355 C329 0.979 . S
H356 C329 0.980 . S
H357 C329 0.983 . S
H358 C302 0.947 . S
C359 C302 1.392 . S
C359 C303 1.419 . S
C359 H341 0.948 . S
C360 C361 1.391 . S
C360 C364 1.391 . S
C360 H402 0.948 . S
C361 C360 1.391 . S
C361 C362 1.391 . S
C362 C361 1.391 . S
C362 H418 0.947 . S
C362 C419 1.392 . S
C363 C364 1.391 . S
C363 C367 1.397 . S
C363 C419 1.419 . S
C364 C360 1.391 . S
C364 C363 1.391 . S
C364 C365 1.399 . S
C365 C364 1.399 . S
C365 C368 1.396 . S
C365 C377 1.453 . S
C365 C378 1.684 . S
H366 C390 0.948 . S
C367 C363 1.397 . S
C367 C368 1.394 . S
C367 C386 1.723 . S
C368 C365 1.396 . S
C368 C367 1.394 . S
C368 C398 1.723 . S
H369 C392 0.947 . S
H370 C393 0.948 . S
H371 C399 0.982 . S
H372 C400 0.979 . S
H373 C400 0.980 . S
H374 C400 0.983 . S
H375 C399 0.979 . S
H376 C399 0.977 . S
C377 C365 1.453 . S
C377 H406 0.982 . S
C377 H407 0.979 . S
C377 H408 0.977 . S
C378 C365 1.684 . S
C378 H403 0.979 . S
C378 H404 0.980 . S
C378 H405 0.983 . S
C379 C380 1.391 1_655 S
C379 C384 1.391 . S
C379 H409 0.948 . S
C380 C379 1.391 1_455 S
C380 C381 1.391 . S
C381 C380 1.391 . S
C381 C382 1.392 . S
C381 H410 0.947 . S
C382 C381 1.392 . S
C382 C383 1.419 1_455 S
C382 H411 0.948 . S
C383 C382 1.419 1_655 S
C383 C384 1.391 . S
C383 C387 1.397 . S
C384 C379 1.391 . S
C384 C383 1.391 . S
C384 C385 1.399 . S
C385 C384 1.399 . S
C385 C386 1.396 . S
C385 C388 1.453 . S
C385 C389 1.684 . S
C386 C367 1.723 . S
C386 C385 1.396 . S
C386 C387 1.394 . S
C387 C383 1.397 . S
C387 C386 1.394 . S
C387 C397 1.723 . S
C388 C385 1.453 . S
C388 H412 0.982 . S
C388 H413 0.979 . S
C388 H414 0.977 . S
C389 C385 1.684 . S
C389 H415 0.979 . S
C389 H416 0.980 . S
C389 H417 0.983 . S
C390 H366 0.948 . S
C390 C391 1.391 . S
C390 C395 1.391 . S
C391 C390 1.391 . S
C391 C392 1.391 . S
C392 H369 0.947 . S
C392 C391 1.391 . S
C392 C393 1.392 . S
C393 H370 0.948 . S
C393 C392 1.392 . S
C393 C394 1.419 . S
C394 C393 1.419 . S
C394 C395 1.391 . S
C394 C398 1.397 . S
C395 C390 1.391 . S
C395 C394 1.391 . S
C395 C396 1.399 . S
C396 C395 1.399 . S
C396 C397 1.396 . S
C396 C399 1.453 . S
C396 C400 1.684 1_655 S
C397 C387 1.723 . S
C397 C396 1.396 . S
C397 C398 1.394 . S
C398 C368 1.723 . S
C398 C394 1.397 . S
C398 C397 1.394 . S
C399 H371 0.982 . S
C399 H375 0.979 . S
C399 H376 0.977 . S
C399 C396 1.453 . S
C400 H372 0.979 . S
C400 H373 0.980 . S
C400 H374 0.983 . S
C400 C396 1.684 1_455 S
H401 C419 0.948 . S
H402 C360 0.948 . S
H403 C378 0.979 . S
H404 C378 0.980 . S
H405 C378 0.983 . S
H406 C377 0.982 . S
H407 C377 0.979 . S
H408 C377 0.977 . S
H409 C379 0.948 . S
H410 C381 0.947 . S
H411 C382 0.948 . S
H412 C388 0.982 . S
H413 C388 0.979 . S
H414 C388 0.977 . S
H415 C389 0.979 . S
H416 C389 0.980 . S
H417 C389 0.983 . S
H418 C362 0.947 . S
C419 C362 1.392 . S
C419 C363 1.419 . S
C419 H401 0.948 . S
C420 C421 1.391 . S
C420 C424 1.391 . S
C420 H462 0.948 . S
C421 C420 1.391 . S
C421 C422 1.391 . S
C422 C421 1.391 . S
C422 H478 0.947 . S
C422 C479 1.392 . S
C423 C424 1.391 . S
C423 C427 1.397 . S
C423 C479 1.419 . S
C424 C420 1.391 . S
C424 C423 1.391 . S
C424 C425 1.399 . S
C425 C424 1.399 . S
C425 C428 1.396 . S
C425 C437 1.453 . S
C425 C438 1.684 . S
H426 C450 0.948 . S
C427 C423 1.397 . S
C427 C428 1.394 . S
C427 C446 1.723 . S
C428 C425 1.396 . S
C428 C427 1.394 . S
C428 C458 1.723 . S
H429 C452 0.947 . S
H430 C453 0.948 . S
H431 C459 0.982 . S
H432 C460 0.979 . S
H433 C460 0.980 . S
H434 C460 0.983 . S
H435 C459 0.979 . S
H436 C459 0.977 . S
C437 C425 1.453 . S
C437 H466 0.982 . S
C437 H467 0.979 . S
C437 H468 0.977 . S
C438 C425 1.684 . S
C438 H463 0.979 . S
C438 H464 0.980 . S
C438 H465 0.983 . S
C439 C440 1.391 . S
C439 C444 1.391 . S
C439 H469 0.948 . S
C440 C439 1.391 . S
C440 C441 1.391 . S
C441 C440 1.391 . S
C441 C442 1.392 . S
C441 H470 0.947 . S
C442 C441 1.392 . S
C442 C443 1.419 . S
C442 H471 0.948 . S
C443 C442 1.419 . S
C443 C444 1.391 . S
C443 C447 1.397 . S
C444 C439 1.391 . S
C444 C443 1.391 . S
C444 C445 1.399 . S
C445 C444 1.399 . S
C445 C446 1.396 . S
C445 C448 1.453 . S
C445 C449 1.684 . S
C446 C427 1.723 . S
C446 C445 1.396 . S
C446 C447 1.394 . S
C447 C443 1.397 . S
C447 C446 1.394 . S
C447 C457 1.723 . S
C448 C445 1.453 . S
C448 H472 0.982 . S
C448 H473 0.979 . S
C448 H474 0.977 . S
C449 C445 1.684 . S
C449 H475 0.979 . S
C449 H476 0.980 . S
C449 H477 0.983 . S
C450 H426 0.948 . S
C450 C451 1.391 . S
C450 C455 1.391 . S
C451 C450 1.391 . S
C451 C452 1.391 . S
C452 H429 0.947 . S
C452 C451 1.391 . S
C452 C453 1.392 . S
C453 H430 0.948 . S
C453 C452 1.392 . S
C453 C454 1.419 . S
C454 C453 1.419 . S
C454 C455 1.391 . S
C454 C458 1.397 . S
C455 C450 1.391 . S
C455 C454 1.391 . S
C455 C456 1.399 . S
C456 C455 1.399 . S
C456 C457 1.396 . S
C456 C459 1.453 . S
C456 C460 1.684 . S
C457 C447 1.723 . S
C457 C456 1.396 . S
C457 C458 1.394 . S
C458 C428 1.723 . S
C458 C454 1.397 . S
C458 C457 1.394 . S
C459 H431 0.982 . S
C459 H435 0.979 . S
C459 H436 0.977 . S
C459 C456 1.453 . S
C460 H432 0.979 . S
C460 H433 0.980 . S
C460 H434 0.983 . S
C460 C456 1.684 . S
H461 C479 0.948 . S
H462 C420 0.948 . S
H463 C438 0.979 . S
H464 C438 0.980 . S
H465 C438 0.983 . S
H466 C437 0.982 . S
H467 C437 0.979 . S
H468 C437 0.977 . S
H469 C439 0.948 . S
H470 C441 0.947 . S
H471 C442 0.948 . S
H472 C448 0.982 . S
H473 C448 0.979 . S
H474 C448 0.977 . S
H475 C449 0.979 . S
H476 C449 0.980 . S
H477 C449 0.983 . S
H478 C422 0.947 . S
C479 C422 1.392 . S
C479 C423 1.419 . S
C479 H461 0.948 . S
C480 C481 1.391 . S
C480 C484 1.391 . S
C480 H522 0.948 . S
C481 C480 1.391 . S
C481 C482 1.391 . S
C482 C481 1.391 . S
C482 H538 0.947 . S
C482 C539 1.392 . S
C483 C484 1.391 . S
C483 C487 1.397 . S
C483 C539 1.419 . S
C484 C480 1.391 . S
C484 C483 1.391 . S
C484 C485 1.399 . S
C485 C484 1.399 . S
C485 C488 1.396 . S
C485 C497 1.453 . S
C485 C498 1.684 . S
H486 C510 0.948 . S
C487 C483 1.397 . S
C487 C488 1.394 . S
C487 C506 1.723 . S
C488 C485 1.396 . S
C488 C487 1.394 . S
C488 C518 1.723 . S
H489 C512 0.947 . S
H490 C513 0.948 . S
H491 C519 0.982 . S
H492 C520 0.979 . S
H493 C520 0.980 . S
H494 C520 0.983 . S
H495 C519 0.979 . S
H496 C519 0.977 . S
C497 C485 1.453 . S
C497 H526 0.982 . S
C497 H527 0.979 . S
C497 H528 0.977 . S
C498 C485 1.684 . S
C498 H523 0.979 . S
C498 H524 0.980 . S
C498 H525 0.983 . S
C499 C500 1.391 . S
C499 C504 1.391 . S
C499 H529 0.948 . S
C500 C499 1.391 . S
C500 C501 1.391 . S
C501 C500 1.391 . S
C501 C502 1.392 . S
C501 H530 0.947 . S
C502 C501 1.392 . S
C502 C503 1.419 . S
C502 H531 0.948 . S
C503 C502 1.419 . S
C503 C504 1.391 . S
C503 C507 1.397 . S
C504 C499 1.391 . S
C504 C503 1.391 . S
C504 C505 1.399 . S
C505 C504 1.399 . S
C505 C506 1.396 . S
C505 C508 1.453 . S
C505 C509 1.684 . S
C506 C487 1.723 . S
C506 C505 1.396 . S
C506 C507 1.394 . S
C507 C503 1.397 . S
C507 C506 1.394 . S
C507 C517 1.723 . S
C508 C505 1.453 . S
C508 H532 0.982 . S
C508 H533 0.979 . S
C508 H534 0.977 . S
C509 C505 1.684 . S
C509 H535 0.979 . S
C509 H536 0.980 . S
C509 H537 0.983 . S
C510 H486 0.948 . S
C510 C511 1.391 . S
C510 C515 1.391 . S
C511 C510 1.391 . S
C511 C512 1.391 . S
C512 H489 0.947 . S
C512 C511 1.391 . S
C512 C513 1.392 . S
C513 H490 0.948 . S
C513 C512 1.392 . S
C513 C514 1.419 . S
C514 C513 1.419 . S
C514 C515 1.391 . S
C514 C518 1.397 . S
C515 C510 1.391 . S
C515 C514 1.391 . S
C515 C516 1.399 . S
C516 C515 1.399 . S
C516 C517 1.396 . S
C516 C519 1.453 . S
C516 C520 1.684 . S
C517 C507 1.723 . S
C517 C516 1.396 . S
C517 C518 1.394 . S
C518 C488 1.723 . S
C518 C514 1.397 . S
C518 C517 1.394 . S
C519 H491 0.982 . S
C519 H495 0.979 . S
C519 H496 0.977 . S
C519 C516 1.453 . S
C520 H492 0.979 . S
C520 H493 0.980 . S
C520 H494 0.983 . S
C520 C516 1.684 . S
H521 C539 0.948 . S
H522 C480 0.948 . S
H523 C498 0.979 . S
H524 C498 0.980 . S
H525 C498 0.983 . S
H526 C497 0.982 . S
H527 C497 0.979 . S
H528 C497 0.977 . S
H529 C499 0.948 . S
H530 C501 0.947 . S
H531 C502 0.948 . S
H532 C508 0.982 . S
H533 C508 0.979 . S
H534 C508 0.977 . S
H535 C509 0.979 . S
H536 C509 0.980 . S
H537 C509 0.983 . S
H538 C482 0.947 . S
C539 C482 1.392 . S
C539 C483 1.419 . S
C539 H521 0.948 . S
C540 C541 1.391 . S
C540 C544 1.391 . S
C540 H582 0.948 . S
C541 C540 1.391 . S
C541 C542 1.391 . S
C542 C541 1.391 . S
C542 H598 0.947 . S
C542 C599 1.392 . S
C543 C544 1.391 . S
C543 C547 1.397 . S
C543 C599 1.419 . S
C544 C540 1.391 . S
C544 C543 1.391 . S
C544 C545 1.399 . S
C545 C544 1.399 . S
C545 C548 1.396 . S
C545 C557 1.453 . S
C545 C558 1.684 . S
H546 C570 0.948 . S
C547 C543 1.397 . S
C547 C548 1.394 . S
C547 C566 1.723 . S
C548 C545 1.396 . S
C548 C547 1.394 . S
C548 C578 1.723 . S
H549 C572 0.947 . S
H550 C573 0.948 . S
H551 C579 0.982 . S
H552 C580 0.979 . S
H553 C580 0.980 . S
H554 C580 0.983 . S
H555 C579 0.979 . S
H556 C579 0.977 . S
C557 C545 1.453 . S
C557 H586 0.982 . S
C557 H587 0.979 . S
C557 H588 0.977 . S
C558 C545 1.684 . S
C558 H583 0.979 . S
C558 H584 0.980 . S
C558 H585 0.983 . S
C559 C560 1.391 1_565 S
C559 C564 1.391 . S
C559 H589 0.948 . S
C560 C559 1.391 1_545 S
C560 C561 1.391 . S
C561 C560 1.391 . S
C561 C562 1.392 . S
C561 H590 0.947 . S
C562 C561 1.392 . S
C562 C563 1.419 1_545 S
C562 H591 0.948 . S
C563 C562 1.419 1_565 S
C563 C564 1.391 . S
C563 C567 1.397 . S
C564 C559 1.391 . S
C564 C563 1.391 . S
C564 C565 1.399 . S
C565 C564 1.399 . S
C565 C566 1.396 . S
C565 C568 1.453 . S
C565 C569 1.684 . S
C566 C547 1.723 . S
C566 C565 1.396 . S
C566 C567 1.394 . S
C567 C563 1.397 . S
C567 C566 1.394 . S
C567 C577 1.723 . S
C568 C565 1.453 . S
C568 H592 0.982 . S
C568 H593 0.979 . S
C568 H594 0.977 . S
C569 C565 1.684 . S
C569 H595 0.979 . S
C569 H596 0.980 . S
C569 H597 0.983 . S
C570 H546 0.948 . S
C570 C571 1.391 . S
C570 C575 1.391 . S
C571 C570 1.391 . S
C571 C572 1.391 . S
C572 H549 0.947 . S
C572 C571 1.391 . S
C572 C573 1.392 . S
C573 H550 0.948 . S
C573 C572 1.392 . S
C573 C574 1.419 . S
C574 C573 1.419 . S
C574 C575 1.391 . S
C574 C578 1.397 . S
C575 C570 1.391 . S
C575 C574 1.391 . S
C575 C576 1.399 . S
C576 C575 1.399 . S
C576 C577 1.396 . S
C576 C579 1.453 . S
C576 C580 1.684 1_565 S
C577 C567 1.723 . S
C577 C576 1.396 . S
C577 C578 1.394 . S
C578 C548 1.723 . S
C578 C574 1.397 . S
C578 C577 1.394 . S
C579 H551 0.982 . S
C579 H555 0.979 . S
C579 H556 0.977 . S
C579 C576 1.453 . S
C580 H552 0.979 . S
C580 H553 0.980 . S
C580 H554 0.983 . S
C580 C576 1.684 1_545 S
H581 C599 0.948 . S
H582 C540 0.948 . S
H583 C558 0.979 . S
H584 C558 0.980 . S
H585 C558 0.983 . S
H586 C557 0.982 . S
H587 C557 0.979 . S
H588 C557 0.977 . S
H589 C559 0.948 . S
H590 C561 0.947 . S
H591 C562 0.948 . S
H592 C568 0.982 . S
H593 C568 0.979 . S
H594 C568 0.977 . S
H595 C569 0.979 . S
H596 C569 0.980 . S
H597 C569 0.983 . S
H598 C542 0.947 . S
C599 C542 1.392 . S
C599 C543 1.419 . S
C599 H581 0.948 . S
C600 C601 1.391 . S
C600 C604 1.391 . S
C600 H642 0.948 . S
C601 C600 1.391 . S
C601 C602 1.391 . S
C602 C601 1.391 . S
C602 H658 0.947 . S
C602 C659 1.392 . S
C603 C604 1.391 . S
C603 C607 1.397 . S
C603 C659 1.419 . S
C604 C600 1.391 . S
C604 C603 1.391 . S
C604 C605 1.399 . S
C605 C604 1.399 . S
C605 C608 1.396 . S
C605 C617 1.453 . S
C605 C618 1.684 . S
H606 C630 0.948 . S
C607 C603 1.397 . S
C607 C608 1.394 . S
C607 C626 1.723 . S
C608 C605 1.396 . S
C608 C607 1.394 . S
C608 C638 1.723 . S
H609 C632 0.947 . S
H610 C633 0.948 . S
H611 C639 0.982 . S
H612 C640 0.979 . S
H613 C640 0.980 . S
H614 C640 0.983 . S
H615 C639 0.979 . S
H616 C639 0.977 . S
C617 C605 1.453 . S
C617 H646 0.982 . S
C617 H647 0.979 . S
C617 H648 0.977 . S
C618 C605 1.684 . S
C618 H643 0.979 . S
C618 H644 0.980 . S
C618 H645 0.983 . S
C619 C620 1.391 . S
C619 C624 1.391 . S
C619 H649 0.948 . S
C620 C619 1.391 . S
C620 C621 1.391 . S
C621 C620 1.391 . S
C621 C622 1.392 . S
C621 H650 0.947 . S
C622 C621 1.392 . S
C622 C623 1.419 . S
C622 H651 0.948 . S
C623 C622 1.419 . S
C623 C624 1.391 . S
C623 C627 1.397 . S
C624 C619 1.391 . S
C624 C623 1.391 . S
C624 C625 1.399 . S
C625 C624 1.399 . S
C625 C626 1.396 . S
C625 C628 1.453 . S
C625 C629 1.684 . S
C626 C607 1.723 . S
C626 C625 1.396 . S
C626 C627 1.394 . S
C627 C623 1.397 . S
C627 C626 1.394 . S
C627 C637 1.723 . S
C628 C625 1.453 . S
C628 H652 0.982 . S
C628 H653 0.979 . S
C628 H654 0.977 . S
C629 C625 1.684 . S
C629 H655 0.979 . S
C629 H656 0.980 . S
C629 H657 0.983 . S
C630 H606 0.948 . S
C630 C631 1.391 . S
C630 C635 1.391 . S
C631 C630 1.391 . S
C631 C632 1.391 . S
C632 H609 0.947 . S
C632 C631 1.391 . S
C632 C633 1.392 . S
C633 H610 0.948 . S
C633 C632 1.392 . S
C633 C634 1.419 . S
C634 C633 1.419 . S
C634 C635 1.391 . S
C634 C638 1.397 . S
C635 C630 1.391 . S
C635 C634 1.391 . S
C635 C636 1.399 . S
C636 C635 1.399 . S
C636 C637 1.396 . S
C636 C639 1.453 . S
C636 C640 1.684 . S
C637 C627 1.723 . S
C637 C636 1.396 . S
C637 C638 1.394 . S
C638 C608 1.723 . S
C638 C634 1.397 . S
C638 C637 1.394 . S
C639 H611 0.982 . S
C639 H615 0.979 . S
C639 H616 0.977 . S
C639 C636 1.453 . S
C640 H612 0.979 . S
C640 H613 0.980 . S
C640 H614 0.983 . S
C640 C636 1.684 . S
H641 C659 0.948 . S
H642 C600 0.948 . S
H643 C618 0.979 . S
H644 C618 0.980 . S
H645 C618 0.983 . S
H646 C617 0.982 . S
H647 C617 0.979 . S
H648 C617 0.977 . S
H649 C619 0.948 . S
H650 C621 0.947 . S
H651 C622 0.948 . S
H652 C628 0.982 . S
H653 C628 0.979 . S
H654 C628 0.977 . S
H655 C629 0.979 . S
H656 C629 0.980 . S
H657 C629 0.983 . S
H658 C602 0.947 . S
C659 C602 1.392 . S
C659 C603 1.419 . S
C659 H641 0.948 . S
C660 C661 1.391 . S
C660 C664 1.391 . S
C660 H702 0.948 . S
C661 C660 1.391 . S
C661 C662 1.391 . S
C662 C661 1.391 . S
C662 H718 0.947 . S
C662 C719 1.392 . S
C663 C664 1.391 . S
C663 C667 1.397 . S
C663 C719 1.419 . S
C664 C660 1.391 . S
C664 C663 1.391 . S
C664 C665 1.399 . S
C665 C664 1.399 . S
C665 C668 1.396 . S
C665 C677 1.453 . S
C665 C678 1.684 . S
H666 C690 0.948 . S
C667 C663 1.397 . S
C667 C668 1.394 . S
C667 C686 1.723 . S
C668 C665 1.396 . S
C668 C667 1.394 . S
C668 C698 1.723 . S
H669 C692 0.947 . S
H670 C693 0.948 . S
H671 C699 0.982 . S
H672 C700 0.979 . S
H673 C700 0.980 . S
H674 C700 0.983 . S
H675 C699 0.979 . S
H676 C699 0.977 . S
C677 C665 1.453 . S
C677 H706 0.982 . S
C677 H707 0.979 . S
C677 H708 0.977 . S
C678 C665 1.684 . S
C678 H703 0.979 . S
C678 H704 0.980 . S
C678 H705 0.983 . S
C679 C680 1.391 . S
C679 C684 1.391 . S
C679 H709 0.948 . S
C680 C679 1.391 . S
C680 C681 1.391 . S
C681 C680 1.391 . S
C681 C682 1.392 . S
C681 H710 0.947 . S
C682 C681 1.392 . S
C682 C683 1.419 . S
C682 H711 0.948 . S
C683 C682 1.419 . S
C683 C684 1.391 . S
C683 C687 1.397 . S
C684 C679 1.391 . S
C684 C683 1.391 . S
C684 C685 1.399 . S
C685 C684 1.399 . S
C685 C686 1.396 . S
C685 C688 1.453 . S
C685 C689 1.684 . S
C686 C667 1.723 . S
C686 C685 1.396 . S
C686 C687 1.394 . S
C687 C683 1.397 . S
C687 C686 1.394 . S
C687 C697 1.723 . S
C688 C685 1.453 . S
C688 H712 0.982 . S
C688 H713 0.979 . S
C688 H714 0.977 . S
C689 C685 1.684 . S
C689 H715 0.979 . S
C689 H716 0.980 . S
C689 H717 0.983 . S
C690 H666 0.948 . S
C690 C691 1.391 . S
C690 C695 1.391 . S
C691 C690 1.391 . S
C691 C692 1.391 . S
C692 H669 0.947 . S
C692 C691 1.391 . S
C692 C693 1.392 . S
C693 H670 0.948 . S
C693 C692 1.392 . S
C693 C694 1.419 . S
C694 C693 1.419 . S
C694 C695 1.391 . S
C694 C698 1.397 . S
C695 C690 1.391 . S
C695 C694 1.391 . S
C695 C696 1.399 . S
C696 C695 1.399 . S
C696 C697 1.396 . S
C696 C699 1.453 . S
C696 C700 1.684 . S
C697 C687 1.723 . S
C697 C696 1.396 . S
C697 C698 1.394 . S
C698 C668 1.723 . S
C698 C694 1.397 . S
C698 C697 1.394 . S
C699 H671 0.982 . S
C699 H675 0.979 . S
C699 H676 0.977 . S
C699 C696 1.453 . S
C700 H672 0.979 . S
C700 H673 0.980 . S
C700 H674 0.983 . S
C700 C696 1.684 . S
H701 C719 0.948 . S
H702 C660 0.948 . S
H703 C678 0.979 . S
H704 C678 0.980 . S
H705 C678 0.983 . S
H706 C677 0.982 . S
H707 C677 0.979 . S
H708 C677 0.977 . S
H709 C679 0.948 . S
H710 C681 0.947 . S
H711 C682 0.948 . S
H712 C688 0.982 . S
H713 C688 0.979 . S
H714 C688 0.977 . S
H715 C689 0.979 . S
H716 C689 0.980 . S
H717 C689 0.983 . S
H718 C662 0.947 . S
C719 C662 1.392 . S
C719 C663 1.419 . S
C719 H701 0.948 . S
C720 C721 1.391 . S
C720 C724 1.391 . S
C720 H762 0.948 . S
C721 C720 1.391 . S
C721 C722 1.391 . S
C722 C721 1.391 . S
C722 H778 0.947 . S
C722 C779 1.392 . S
C723 C724 1.391 . S
C723 C727 1.397 . S
C723 C779 1.419 . S
C724 C720 1.391 . S
C724 C723 1.391 . S
C724 C725 1.399 . S
C725 C724 1.399 . S
C725 C728 1.396 . S
C725 C737 1.453 . S
C725 C738 1.684 . S
H726 C750 0.948 . S
C727 C723 1.397 . S
C727 C728 1.394 . S
C727 C746 1.723 . S
C728 C725 1.396 . S
C728 C727 1.394 . S
C728 C758 1.723 . S
H729 C752 0.947 . S
H730 C753 0.948 . S
H731 C759 0.982 . S
H732 C760 0.979 . S
H733 C760 0.980 . S
H734 C760 0.983 . S
H735 C759 0.979 . S
H736 C759 0.977 . S
C737 C725 1.453 . S
C737 H766 0.982 . S
C737 H767 0.979 . S
C737 H768 0.977 . S
C738 C725 1.684 . S
C738 H763 0.979 . S
C738 H764 0.980 . S
C738 H765 0.983 . S
C739 C740 1.391 . S
C739 C744 1.391 . S
C739 H769 0.948 . S
C740 C739 1.391 . S
C740 C741 1.391 . S
C741 C740 1.391 . S
C741 C742 1.392 . S
C741 H770 0.947 . S
C742 C741 1.392 . S
C742 C743 1.419 . S
C742 H771 0.948 . S
C743 C742 1.419 . S
C743 C744 1.391 . S
C743 C747 1.397 . S
C744 C739 1.391 . S
C744 C743 1.391 . S
C744 C745 1.399 . S
C745 C744 1.399 . S
C745 C746 1.396 . S
C745 C748 1.453 . S
C745 C749 1.684 . S
C746 C727 1.723 . S
C746 C745 1.396 . S
C746 C747 1.394 . S
C747 C743 1.397 . S
C747 C746 1.394 . S
C747 C757 1.723 . S
C748 C745 1.453 . S
C748 H772 0.982 . S
C748 H773 0.979 . S
C748 H774 0.977 . S
C749 C745 1.684 . S
C749 H775 0.979 . S
C749 H776 0.980 . S
C749 H777 0.983 . S
C750 H726 0.948 . S
C750 C751 1.391 . S
C750 C755 1.391 . S
C751 C750 1.391 . S
C751 C752 1.391 . S
C752 H729 0.947 . S
C752 C751 1.391 . S
C752 C753 1.392 . S
C753 H730 0.948 . S
C753 C752 1.392 . S
C753 C754 1.419 . S
C754 C753 1.419 . S
C754 C755 1.391 . S
C754 C758 1.397 . S
C755 C750 1.391 . S
C755 C754 1.391 . S
C755 C756 1.399 . S
C756 C755 1.399 . S
C756 C757 1.396 . S
C756 C759 1.453 . S
C756 C760 1.684 . S
C757 C747 1.723 . S
C757 C756 1.396 . S
C757 C758 1.394 . S
C758 C728 1.723 . S
C758 C754 1.397 . S
C758 C757 1.394 . S
C759 H731 0.982 . S
C759 H735 0.979 . S
C759 H736 0.977 . S
C759 C756 1.453 . S
C760 H732 0.979 . S
C760 H733 0.980 . S
C760 H734 0.983 . S
C760 C756 1.684 . S
H761 C779 0.948 . S
H762 C720 0.948 . S
H763 C738 0.979 . S
H764 C738 0.980 . S
H765 C738 0.983 . S
H766 C737 0.982 . S
H767 C737 0.979 . S
H768 C737 0.977 . S
H769 C739 0.948 . S
H770 C741 0.947 . S
H771 C742 0.948 . S
H772 C748 0.982 . S
H773 C748 0.979 . S
H774 C748 0.977 . S
H775 C749 0.979 . S
H776 C749 0.980 . S
H777 C749 0.983 . S
H778 C722 0.947 . S
C779 C722 1.392 . S
C779 C723 1.419 . S
C779 H761 0.948 . S
C780 C781 1.391 . S
C780 C784 1.391 1_554 S
C780 H822 0.948 . S
C781 C780 1.391 . S
C781 C782 1.391 1_554 S
C782 C781 1.391 1_556 S
C782 H838 0.947 . S
C782 C839 1.392 . S
C783 C784 1.391 . S
C783 C787 1.397 . S
C783 C839 1.419 . S
C784 C780 1.391 1_556 S
C784 C783 1.391 . S
C784 C785 1.399 . S
C785 C784 1.399 . S
C785 C788 1.396 . S
C785 C797 1.453 1_556 S
C785 C798 1.684 . S
H786 C810 0.948 . S
C787 C783 1.397 . S
C787 C788 1.394 . S
C787 C806 1.723 . S
C788 C785 1.396 . S
C788 C787 1.394 . S
C788 C818 1.723 . S
H789 C812 0.947 . S
H790 C813 0.948 . S
H791 C819 0.982 . S
H792 C820 0.979 . S
H793 C820 0.980 . S
H794 C820 0.983 . S
H795 C819 0.979 . S
H796 C819 0.977 . S
C797 C785 1.453 1_554 S
C797 H826 0.982 . S
C797 H827 0.979 . S
C797 H828 0.977 . S
C798 C785 1.684 . S
C798 H823 0.979 . S
C798 H824 0.980 . S
C798 H825 0.983 1_556 S
C799 C800 1.391 . S
C799 C804 1.391 . S
C799 H829 0.948 . S
C800 C799 1.391 . S
C800 C801 1.391 . S
C801 C800 1.391 . S
C801 C802 1.392 . S
C801 H830 0.947 . S
C802 C801 1.392 . S
C802 C803 1.419 . S
C802 H831 0.948 . S
C803 C802 1.419 . S
C803 C804 1.391 . S
C803 C807 1.397 . S
C804 C799 1.391 . S
C804 C803 1.391 . S
C804 C805 1.399 . S
C805 C804 1.399 . S
C805 C806 1.396 . S
C805 C808 1.453 . S
C805 C809 1.684 . S
C806 C787 1.723 . S
C806 C805 1.396 . S
C806 C807 1.394 . S
C807 C803 1.397 . S
C807 C806 1.394 . S
C807 C817 1.723 . S
C808 C805 1.453 . S
C808 H832 0.982 . S
C808 H833 0.979 . S
C808 H834 0.977 . S
C809 C805 1.684 . S
C809 H835 0.979 . S
C809 H836 0.980 . S
C809 H837 0.983 . S
C810 H786 0.948 . S
C810 C811 1.391 . S
C810 C815 1.391 . S
C811 C810 1.391 . S
C811 C812 1.391 . S
C812 H789 0.947 . S
C812 C811 1.391 . S
C812 C813 1.392 . S
C813 H790 0.948 . S
C813 C812 1.392 . S
C813 C814 1.419 . S
C814 C813 1.419 . S
C814 C815 1.391 . S
C814 C818 1.397 . S
C815 C810 1.391 . S
C815 C814 1.391 . S
C815 C816 1.399 . S
C816 C815 1.399 . S
C816 C817 1.396 . S
C816 C819 1.453 . S
C816 C820 1.684 . S
C817 C807 1.723 . S
C817 C816 1.396 . S
C817 C818 1.394 . S
C818 C788 1.723 . S
C818 C814 1.397 . S
C818 C817 1.394 . S
C819 H791 0.982 . S
C819 H795 0.979 . S
C819 H796 0.977 . S
C819 C816 1.453 . S
C820 H792 0.979 . S
C820 H793 0.980 . S
C820 H794 0.983 . S
C820 C816 1.684 . S
H821 C839 0.948 . S
H822 C780 0.948 . S
H823 C798 0.979 . S
H824 C798 0.980 . S
H825 C798 0.983 1_554 S
H826 C797 0.982 . S
H827 C797 0.979 . S
H828 C797 0.977 . S
H829 C799 0.948 . S
H830 C801 0.947 . S
H831 C802 0.948 . S
H832 C808 0.982 . S
H833 C808 0.979 . S
H834 C808 0.977 . S
H835 C809 0.979 . S
H836 C809 0.980 . S
H837 C809 0.983 . S
H838 C782 0.947 . S
C839 C782 1.392 . S
C839 C783 1.419 . S
C839 H821 0.948 . S
C840 C841 1.391 . S
C840 C844 1.391 . S
C840 H882 0.948 . S
C841 C840 1.391 . S
C841 C842 1.391 . S
C842 C841 1.391 . S
C842 H898 0.947 . S
C842 C899 1.392 . S
C843 C844 1.391 . S
C843 C847 1.397 . S
C843 C899 1.419 . S
C844 C840 1.391 . S
C844 C843 1.391 . S
C844 C845 1.399 . S
C845 C844 1.399 . S
C845 C848 1.396 . S
C845 C857 1.453 . S
C845 C858 1.684 . S
H846 C870 0.948 . S
C847 C843 1.397 . S
C847 C848 1.394 . S
C847 C866 1.723 . S
C848 C845 1.396 . S
C848 C847 1.394 . S
C848 C878 1.723 . S
H849 C872 0.947 . S
H850 C873 0.948 . S
H851 C879 0.982 . S
H852 C880 0.979 . S
H853 C880 0.980 . S
H854 C880 0.983 . S
H855 C879 0.979 . S
H856 C879 0.977 . S
C857 C845 1.453 . S
C857 H886 0.982 . S
C857 H887 0.979 . S
C857 H888 0.977 . S
C858 C845 1.684 . S
C858 H883 0.979 . S
C858 H884 0.980 . S
C858 H885 0.983 . S
C859 C860 1.391 . S
C859 C864 1.391 . S
C859 H889 0.948 . S
C860 C859 1.391 . S
C860 C861 1.391 . S
C861 C860 1.391 . S
C861 C862 1.392 . S
C861 H890 0.947 . S
C862 C861 1.392 . S
C862 C863 1.419 . S
C862 H891 0.948 . S
C863 C862 1.419 . S
C863 C864 1.391 . S
C863 C867 1.397 . S
C864 C859 1.391 . S
C864 C863 1.391 . S
C864 C865 1.399 . S
C865 C864 1.399 . S
C865 C866 1.396 . S
C865 C868 1.453 . S
C865 C869 1.684 . S
C866 C847 1.723 . S
C866 C865 1.396 . S
C866 C867 1.394 . S
C867 C863 1.397 . S
C867 C866 1.394 . S
C867 C877 1.723 . S
C868 C865 1.453 . S
C868 H892 0.982 . S
C868 H893 0.979 . S
C868 H894 0.977 . S
C869 C865 1.684 . S
C869 H895 0.979 . S
C869 H896 0.980 . S
C869 H897 0.983 . S
C870 H846 0.948 . S
C870 C871 1.391 . S
C870 C875 1.391 . S
C871 C870 1.391 . S
C871 C872 1.391 . S
C872 H849 0.947 . S
C872 C871 1.391 . S
C872 C873 1.392 . S
C873 H850 0.948 . S
C873 C872 1.392 . S
C873 C874 1.419 . S
C874 C873 1.419 . S
C874 C875 1.391 . S
C874 C878 1.397 . S
C875 C870 1.391 . S
C875 C874 1.391 . S
C875 C876 1.399 . S
C876 C875 1.399 . S
C876 C877 1.396 . S
C876 C879 1.453 . S
C876 C880 1.684 . S
C877 C867 1.723 . S
C877 C876 1.396 . S
C877 C878 1.394 . S
C878 C848 1.723 . S
C878 C874 1.397 . S
C878 C877 1.394 . S
C879 H851 0.982 . S
C879 H855 0.979 . S
C879 H856 0.977 . S
C879 C876 1.453 . S
C880 H852 0.979 . S
C880 H853 0.980 . S
C880 H854 0.983 . S
C880 C876 1.684 . S
H881 C899 0.948 . S
H882 C840 0.948 . S
H883 C858 0.979 . S
H884 C858 0.980 . S
H885 C858 0.983 . S
H886 C857 0.982 . S
H887 C857 0.979 . S
H888 C857 0.977 . S
H889 C859 0.948 . S
H890 C861 0.947 . S
H891 C862 0.948 . S
H892 C868 0.982 . S
H893 C868 0.979 . S
H894 C868 0.977 . S
H895 C869 0.979 . S
H896 C869 0.980 . S
H897 C869 0.983 . S
H898 C842 0.947 . S
C899 C842 1.392 . S
C899 C843 1.419 . S
C899 H881 0.948 . S
C900 C901 1.391 1_545 S
C900 C904 1.391 . S
C900 H942 0.948 . S
C901 C900 1.391 1_565 S
C901 C902 1.391 . S
C902 C901 1.391 . S
C902 H958 0.947 . S
C902 C959 1.392 1_565 S
C903 C904 1.391 . S
C903 C907 1.397 . S
C903 C959 1.419 . S
C904 C900 1.391 . S
C904 C903 1.391 . S
C904 C905 1.399 . S
C905 C904 1.399 . S
C905 C908 1.396 . S
C905 C917 1.453 . S
C905 C918 1.684 1_556 S
H906 C930 0.948 . S
C907 C903 1.397 . S
C907 C908 1.394 . S
C907 C926 1.723 . S
C908 C905 1.396 . S
C908 C907 1.394 . S
C908 C938 1.723 . S
H909 C932 0.947 . S
H910 C933 0.948 1_554 S
H911 C939 0.982 . S
H912 C940 0.979 . S
H913 C940 0.980 . S
H914 C940 0.983 . S
H915 C939 0.979 . S
H916 C939 0.977 . S
C917 C905 1.453 . S
C917 H946 0.982 . S
C917 H947 0.979 . S
C917 H948 0.977 . S
C918 C905 1.684 1_554 S
C918 H943 0.979 . S
C918 H944 0.980 . S
C918 H945 0.983 . S
C919 C920 1.391 . S
C919 C924 1.391 . S
C919 H949 0.948 . S
C920 C919 1.391 . S
C920 C921 1.391 . S
C921 C920 1.391 . S
C921 C922 1.392 . S
C921 H950 0.947 . S
C922 C921 1.392 . S
C922 C923 1.419 . S
C922 H951 0.948 . S
C923 C922 1.419 . S
C923 C924 1.391 . S
C923 C927 1.397 . S
C924 C919 1.391 . S
C924 C923 1.391 . S
C924 C925 1.399 . S
C925 C924 1.399 . S
C925 C926 1.396 . S
C925 C928 1.453 . S
C925 C929 1.707 . S
C926 C907 1.723 . S
C926 C925 1.396 . S
C926 C927 1.394 . S
C927 C923 1.397 . S
C927 C926 1.394 . S
C927 C937 1.723 . S
C928 C925 1.453 . S
C928 H952 0.982 . S
C928 H953 0.979 . S
C928 H954 0.977 . S
C929 C925 1.707 . S
C929 H955 0.971 1_545 S
C929 H956 0.973 1_545 S
C929 H957 0.975 1_545 S
C930 H906 0.948 . S
C930 C931 1.391 1_556 S
C930 C935 1.391 . S
C931 C930 1.391 1_554 S
C931 C932 1.391 . S
C932 H909 0.947 . S
C932 C931 1.391 . S
C932 C933 1.392 1_554 S
C933 H910 0.948 1_556 S
C933 C932 1.392 1_556 S
C933 C934 1.419 . S
C934 C933 1.419 . S
C934 C935 1.391 . S
C934 C938 1.397 . S
C935 C930 1.391 . S
C935 C934 1.391 . S
C935 C936 1.399 . S
C936 C935 1.399 . S
C936 C937 1.396 . S
C936 C939 1.453 . S
C936 C940 1.684 . S
C937 C927 1.723 . S
C937 C936 1.396 . S
C937 C938 1.394 . S
C938 C908 1.723 . S
C938 C934 1.397 . S
C938 C937 1.394 . S
C939 H911 0.982 . S
C939 H915 0.979 . S
C939 H916 0.977 . S
C939 C936 1.453 . S
C940 H912 0.979 . S
C940 H913 0.980 . S
C940 H914 0.983 . S
C940 C936 1.684 . S
H941 C959 0.948 . S
H942 C900 0.948 . S
H943 C918 0.979 . S
H944 C918 0.980 . S
H945 C918 0.983 . S
H946 C917 0.982 . S
H947 C917 0.979 . S
H948 C917 0.977 . S
H949 C919 0.948 . S
H950 C921 0.947 . S
H951 C922 0.948 . S
H952 C928 0.982 . S
H953 C928 0.979 . S
H954 C928 0.977 . S
H955 C929 0.971 1_565 S
H956 C929 0.973 1_565 S
H957 C929 0.975 1_565 S
H958 C902 0.947 . S
C959 C902 1.392 1_545 S
C959 C903 1.419 . S
C959 H941 0.948 . S
Zn960 O963 2.030 . S
Zn960 O965 2.050 1_554 S
Zn960 O970 2.069 1_554 S
Zn961 O962 1.962 . S
Zn961 O964 1.986 . S
Zn961 O966 1.996 . S
Zn961 O969 1.943 1_554 S
O962 Zn961 1.962 . S
O962 C967 1.254 . S
O963 Zn960 2.030 . S
O963 C967 1.269 . S
O964 Zn961 1.986 . S
O964 C971 1.262 . S
O965 Zn960 2.050 1_556 S
O965 C973 1.260 . S
O966 Zn961 1.996 . S
O966 C973 1.257 1_554 S
C967 O962 1.254 . S
C967 O963 1.269 . S
C968 O969 1.249 . S
C968 O970 1.270 . S
O969 Zn961 1.943 1_556 S
O969 C968 1.249 . S
O970 Zn960 2.069 1_556 S
O970 C968 1.270 . S
C971 O964 1.262 . S
C971 O972 1.232 . S
O972 C971 1.232 . S
C973 O965 1.260 . S
C973 O966 1.257 1_556 S
Zn974 O977 2.031 . S
Zn974 O979 2.049 . S
Zn974 O984 2.067 . S
Zn975 O976 1.962 . S
Zn975 O978 1.986 . S
Zn975 O980 1.996 . S
Zn975 O983 1.943 . S
O976 Zn975 1.962 . S
O976 C981 1.254 . S
O977 Zn974 2.031 . S
O977 C981 1.269 . S
O978 Zn975 1.986 . S
O978 C985 1.262 . S
O979 Zn974 2.049 . S
O979 C987 1.260 . S
O980 Zn975 1.996 . S
O980 C987 1.257 . S
C981 O976 1.254 . S
C981 O977 1.269 . S
C982 O983 1.249 . S
C982 O984 1.270 . S
O983 Zn975 1.943 . S
O983 C982 1.249 . S
O984 Zn974 2.067 . S
O984 C982 1.270 . S
C985 O978 1.262 . S
C985 O986 1.232 . S
O986 C985 1.232 . S
C987 O979 1.260 . S
C987 O980 1.257 . S
Zn988 O991 2.031 . S
Zn988 O993 2.049 . S
Zn988 O998 2.067 . S
Zn989 O990 1.962 . S
Zn989 O992 1.986 . S
Zn989 O994 1.996 1_554 S
Zn989 O997 1.943 . S
O990 Zn989 1.962 . S
O990 C995 1.254 . S
O991 Zn988 2.031 . S
O991 C995 1.269 1_556 S
O992 Zn989 1.986 . S
O992 C999 1.262 . S
O993 Zn988 2.049 . S
O993 C1001 1.260 . S
O994 Zn989 1.996 1_556 S
O994 C1001 1.257 . S
C995 O990 1.254 . S
C995 O991 1.269 1_554 S
C996 O997 1.249 1_556 S
C996 O998 1.270 . S
O997 Zn989 1.943 . S
O997 C996 1.249 1_554 S
O998 Zn988 2.067 . S
O998 C996 1.270 . S
C999 O992 1.262 . S
C999 O1000 1.232 . S
O1000 C999 1.232 . S
C1001 O993 1.260 . S
C1001 O994 1.257 . S
Zn1002 O1005 2.030 . S
Zn1002 O1007 2.050 1_545 S
Zn1002 O1012 2.069 1_545 S
Zn1003 O1004 1.962 . S
Zn1003 O1006 1.986 . S
Zn1003 O1008 1.996 . S
Zn1003 O1011 1.943 1_545 S
O1004 Zn1003 1.962 . S
O1004 C1009 1.254 . S
O1005 Zn1002 2.030 . S
O1005 C1009 1.269 . S
O1006 Zn1003 1.986 . S
O1006 C1013 1.262 . S
O1007 Zn1002 2.050 1_565 S
O1007 C1015 1.260 . S
O1008 Zn1003 1.996 . S
O1008 C1015 1.257 1_545 S
C1009 O1004 1.254 . S
C1009 O1005 1.269 . S
C1010 O1011 1.249 . S
C1010 O1012 1.270 . S
O1011 Zn1003 1.943 1_565 S
O1011 C1010 1.249 . S
O1012 Zn1002 2.069 1_565 S
O1012 C1010 1.270 . S
C1013 O1006 1.262 . S
C1013 O1014 1.232 . S
O1014 C1013 1.232 . S
C1015 O1007 1.260 . S
C1015 O1008 1.257 1_565 S
Zn1016 O1019 2.031 . S
Zn1016 O1021 2.049 . S
Zn1016 O1026 2.067 . S
Zn1017 O1018 1.962 . S
Zn1017 O1020 1.986 . S
Zn1017 O1022 1.996 . S
Zn1017 O1025 1.943 . S
O1018 Zn1017 1.962 . S
O1018 C1023 1.254 . S
O1019 Zn1016 2.031 . S
O1019 C1023 1.269 . S
O1020 Zn1017 1.986 . S
O1020 C1027 1.262 . S
O1021 Zn1016 2.049 . S
O1021 C1029 1.260 . S
O1022 Zn1017 1.996 . S
O1022 C1029 1.257 . S
C1023 O1018 1.254 . S
C1023 O1019 1.269 . S
C1024 O1025 1.249 . S
C1024 O1026 1.270 . S
O1025 Zn1017 1.943 . S
O1025 C1024 1.249 . S
O1026 Zn1016 2.067 . S
O1026 C1024 1.270 . S
C1027 O1020 1.262 . S
C1027 O1028 1.232 . S
O1028 C1027 1.232 . S
C1029 O1021 1.260 . S
C1029 O1022 1.257 . S
Zn1030 O1033 2.031 . S
Zn1030 O1035 2.049 . S
Zn1030 O1040 2.067 . S
Zn1031 O1032 1.962 . S
Zn1031 O1034 1.986 . S
Zn1031 O1036 1.996 . S
Zn1031 O1039 1.943 . S
O1032 Zn1031 1.962 . S
O1032 C1037 1.254 . S
O1033 Zn1030 2.031 . S
O1033 C1037 1.269 . S
O1034 Zn1031 1.986 . S
O1034 C1041 1.262 . S
O1035 Zn1030 2.049 . S
O1035 C1043 1.260 . S
O1036 Zn1031 1.996 . S
O1036 C1043 1.257 . S
C1037 O1032 1.254 . S
C1037 O1033 1.269 . S
C1038 O1039 1.249 . S
C1038 O1040 1.270 . S
O1039 Zn1031 1.943 . S
O1039 C1038 1.249 . S
O1040 Zn1030 2.067 . S
O1040 C1038 1.270 . S
C1041 O1034 1.262 . S
C1041 O1042 1.232 . S
O1042 C1041 1.232 . S
C1043 O1035 1.260 . S
C1043 O1036 1.257 . S
Zn1044 O1047 2.031 . S
Zn1044 O1049 2.049 . S
Zn1044 O1054 2.067 . S
Zn1045 O1046 1.962 . S
Zn1045 O1048 1.986 . S
Zn1045 O1050 1.996 . S
Zn1045 O1053 1.943 . S
O1046 Zn1045 1.962 . S
O1046 C1051 1.254 . S
O1047 Zn1044 2.031 . S
O1047 C1051 1.269 . S
O1048 Zn1045 1.986 . S
O1048 C1055 1.262 . S
O1049 Zn1044 2.049 . S
O1049 C1057 1.260 . S
O1050 Zn1045 1.996 . S
O1050 C1057 1.257 . S
C1051 O1046 1.254 . S
C1051 O1047 1.269 . S
C1052 O1053 1.249 . S
C1052 O1054 1.270 . S
O1053 Zn1045 1.943 . S
O1053 C1052 1.249 . S
O1054 Zn1044 2.067 . S
O1054 C1052 1.270 . S
C1055 O1048 1.262 . S
C1055 O1056 1.232 . S
O1056 C1055 1.232 . S
C1057 O1049 1.260 . S
C1057 O1050 1.257 . S
Zn1058 O1061 2.031 . S
Zn1058 O1063 2.049 . S
Zn1058 O1068 2.067 . S
Zn1059 O1060 1.962 . S
Zn1059 O1062 1.986 . S
Zn1059 O1064 1.996 1_545 S
Zn1059 O1067 1.943 . S
O1060 Zn1059 1.962 . S
O1060 C1065 1.254 . S
O1061 Zn1058 2.031 . S
O1061 C1065 1.269 1_565 S
O1062 Zn1059 1.986 . S
O1062 C1069 1.262 . S
O1063 Zn1058 2.049 . S
O1063 C1071 1.260 . S
O1064 Zn1059 1.996 1_565 S
O1064 C1071 1.257 . S
C1065 O1060 1.254 . S
C1065 O1061 1.269 1_545 S
C1066 O1067 1.249 1_565 S
C1066 O1068 1.270 . S
O1067 Zn1059 1.943 . S
O1067 C1066 1.249 1_545 S
O1068 Zn1058 2.067 . S
O1068 C1066 1.270 . S
C1069 O1062 1.262 . S
C1069 O1070 1.232 . S
O1070 C1069 1.232 . S
C1071 O1063 1.260 . S
C1071 O1064 1.257 . S
Zn1072 O1075 2.030 . S
Zn1072 O1077 2.050 1_455 S
Zn1072 O1082 2.069 1_455 S
Zn1073 O1074 1.962 . S
Zn1073 O1076 1.986 . S
Zn1073 O1078 1.996 . S
Zn1073 O1081 1.943 1_455 S
O1074 Zn1073 1.962 . S
O1074 C1079 1.254 . S
O1075 Zn1072 2.030 . S
O1075 C1079 1.269 . S
O1076 Zn1073 1.986 . S
O1076 C1083 1.262 . S
O1077 Zn1072 2.050 1_655 S
O1077 C1085 1.260 . S
O1078 Zn1073 1.996 . S
O1078 C1085 1.257 1_455 S
C1079 O1074 1.254 . S
C1079 O1075 1.269 . S
C1080 O1081 1.249 . S
C1080 O1082 1.270 . S
O1081 Zn1073 1.943 1_655 S
O1081 C1080 1.249 . S
O1082 Zn1072 2.069 1_655 S
O1082 C1080 1.270 . S
C1083 O1076 1.262 . S
C1083 O1084 1.232 . S
O1084 C1083 1.232 . S
C1085 O1077 1.260 . S
C1085 O1078 1.257 1_655 S
Zn1086 O1089 2.031 . S
Zn1086 O1091 2.049 . S
Zn1086 O1096 2.067 . S
Zn1087 O1088 1.962 . S
Zn1087 O1090 1.986 . S
Zn1087 O1092 1.996 . S
Zn1087 O1095 1.943 . S
O1088 Zn1087 1.962 . S
O1088 C1093 1.254 . S
O1089 Zn1086 2.031 . S
O1089 C1093 1.269 . S
O1090 Zn1087 1.986 . S
O1090 C1097 1.262 . S
O1091 Zn1086 2.049 . S
O1091 C1099 1.260 . S
O1092 Zn1087 1.996 . S
O1092 C1099 1.257 . S
C1093 O1088 1.254 . S
C1093 O1089 1.269 . S
C1094 O1095 1.249 . S
C1094 O1096 1.270 . S
O1095 Zn1087 1.943 . S
O1095 C1094 1.249 . S
O1096 Zn1086 2.067 . S
O1096 C1094 1.270 . S
C1097 O1090 1.262 . S
C1097 O1098 1.232 . S
O1098 C1097 1.232 . S
C1099 O1091 1.260 . S
C1099 O1092 1.257 . S
Zn1100 O1103 2.031 . S
Zn1100 O1105 2.049 . S
Zn1100 O1110 2.067 . S
Zn1101 O1102 1.962 . S
Zn1101 O1104 1.986 . S
Zn1101 O1106 1.996 1_455 S
Zn1101 O1109 1.943 . S
O1102 Zn1101 1.962 . S
O1102 C1107 1.254 . S
O1103 Zn1100 2.031 . S
O1103 C1107 1.269 1_655 S
O1104 Zn1101 1.986 . S
O1104 C1111 1.262 . S
O1105 Zn1100 2.049 . S
O1105 C1113 1.260 . S
O1106 Zn1101 1.996 1_655 S
O1106 C1113 1.257 . S
C1107 O1102 1.254 . S
C1107 O1103 1.269 1_455 S
C1108 O1109 1.249 1_655 S
C1108 O1110 1.270 . S
O1109 Zn1101 1.943 . S
O1109 C1108 1.249 1_455 S
O1110 Zn1100 2.067 . S
O1110 C1108 1.270 . S
C1111 O1104 1.262 . S
C1111 O1112 1.232 . S
O1112 C1111 1.232 . S
C1113 O1105 1.260 . S
C1113 O1106 1.257 . S
Zn1114 O1117 2.031 . S
Zn1114 O1119 2.049 . S
Zn1114 O1124 2.067 . S
Zn1115 O1116 1.962 . S
Zn1115 O1118 1.986 . S
Zn1115 O1120 1.996 . S
Zn1115 O1123 1.943 . S
O1116 Zn1115 1.962 . S
O1116 C1121 1.254 . S
O1117 Zn1114 2.031 . S
O1117 C1121 1.269 . S
O1118 Zn1115 1.986 . S
O1118 C1125 1.262 . S
O1119 Zn1114 2.049 . S
O1119 C1127 1.260 . S
O1120 Zn1115 1.996 . S
O1120 C1127 1.257 . S
C1121 O1116 1.254 . S
C1121 O1117 1.269 . S
C1122 O1123 1.249 . S
C1122 O1124 1.270 . S
O1123 Zn1115 1.943 . S
O1123 C1122 1.249 . S
O1124 Zn1114 2.067 . S
O1124 C1122 1.270 . S
C1125 O1118 1.262 . S
C1125 O1126 1.232 . S
O1126 C1125 1.232 . S
C1127 O1119 1.260 . S
C1127 O1120 1.257 . S
H1128 C1140 0.930 . S
H1129 C1142 0.930 . S
H1130 C1143 0.930 . S
H1131 C1147 0.959 . S
H1132 C1147 0.959 . S
H1133 C1147 0.961 . S
H1134 C1148 0.960 . S
H1135 C1148 0.961 . S
H1136 C1148 0.959 . S
H1137 C1151 0.929 . S
H1138 C1152 0.931 . S
H1139 C1154 0.930 . S
C1140 H1128 0.930 . S
C1140 C1141 1.399 . S
C1140 C1145 1.399 . S
C1141 C1140 1.399 . S
C1141 C1142 1.376 . S
C1142 H1129 0.930 . S
C1142 C1141 1.376 . S
C1142 C1143 1.388 . S
C1143 H1130 0.930 . S
C1143 C1142 1.388 . S
C1143 C1144 1.390 . S
C1144 C1143 1.390 . S
C1144 C1145 1.394 . S
C1144 C1150 1.465 . S
C1145 C1140 1.399 . S
C1145 C1144 1.394 . S
C1145 C1146 1.516 . S
C1146 C1145 1.516 . S
C1146 C1147 1.502 . S
C1146 C1148 1.561 . S
C1146 C1149 1.526 . S
C1147 H1131 0.959 . S
C1147 H1132 0.959 . S
C1147 H1133 0.961 . S
C1147 C1146 1.502 . S
C1148 H1134 0.960 . S
C1148 H1135 0.961 . S
C1148 H1136 0.959 . S
C1148 C1146 1.561 . S
C1149 C1146 1.526 . S
C1149 C1150 1.396 . S
C1149 C1154 1.390 . S
C1150 C1144 1.465 . S
C1150 C1149 1.396 . S
C1150 C1151 1.399 . S
C1151 H1137 0.929 . S
C1151 C1150 1.399 . S
C1151 C1152 1.385 . S
C1152 H1138 0.931 . S
C1152 C1151 1.385 . S
C1152 C1153 1.389 . S
C1153 C1152 1.389 . S
C1153 C1154 1.387 . S
C1154 H1139 0.930 . S
C1154 C1149 1.390 . S
C1154 C1153 1.387 . S
H1155 C1167 0.930 . S
H1156 C1169 0.930 . S
H1157 C1170 0.930 . S
H1158 C1174 0.959 . S
H1159 C1174 0.959 . S
H1160 C1174 0.961 . S
H1161 C1175 0.960 . S
H1162 C1175 0.961 . S
H1163 C1175 0.959 . S
H1164 C1178 0.929 . S
H1165 C1179 0.931 . S
H1166 C1181 0.930 . S
C1167 H1155 0.930 . S
C1167 C1168 1.399 . S
C1167 C1172 1.399 . S
C1168 C1167 1.399 . S
C1168 C1169 1.376 . S
C1169 H1156 0.930 . S
C1169 C1168 1.376 . S
C1169 C1170 1.388 . S
C1170 H1157 0.930 . S
C1170 C1169 1.388 . S
C1170 C1171 1.390 . S
C1171 C1170 1.390 . S
C1171 C1172 1.394 . S
C1171 C1177 1.465 . S
C1172 C1167 1.399 . S
C1172 C1171 1.394 . S
C1172 C1173 1.516 . S
C1173 C1172 1.516 . S
C1173 C1174 1.502 . S
C1173 C1175 1.561 . S
C1173 C1176 1.526 . S
C1174 H1158 0.959 . S
C1174 H1159 0.959 . S
C1174 H1160 0.961 . S
C1174 C1173 1.502 . S
C1175 H1161 0.960 . S
C1175 H1162 0.961 . S
C1175 H1163 0.959 . S
C1175 C1173 1.561 . S
C1176 C1173 1.526 . S
C1176 C1177 1.396 . S
C1176 C1181 1.390 . S
C1177 C1171 1.465 . S
C1177 C1176 1.396 . S
C1177 C1178 1.399 . S
C1178 H1164 0.929 . S
C1178 C1177 1.399 . S
C1178 C1179 1.385 . S
C1179 H1165 0.931 . S
C1179 C1178 1.385 . S
C1179 C1180 1.389 . S
C1180 C1179 1.389 . S
C1180 C1181 1.387 . S
C1181 H1166 0.930 . S
C1181 C1176 1.390 . S
C1181 C1180 1.387 . S
H1182 C1194 0.930 . S
H1183 C1196 0.930 . S
H1184 C1197 0.930 . S
H1185 C1201 0.959 . S
H1186 C1201 0.959 . S
H1187 C1201 0.961 . S
H1188 C1202 0.960 . S
H1189 C1202 0.961 . S
H1190 C1202 0.959 . S
H1191 C1205 0.929 . S
H1192 C1206 0.931 . S
H1193 C1208 0.930 . S
C1194 H1182 0.930 . S
C1194 C1195 1.399 . S
C1194 C1199 1.399 . S
C1195 C1194 1.399 . S
C1195 C1196 1.376 . S
C1196 H1183 0.930 . S
C1196 C1195 1.376 . S
C1196 C1197 1.388 . S
C1197 H1184 0.930 . S
C1197 C1196 1.388 . S
C1197 C1198 1.390 . S
C1198 C1197 1.390 . S
C1198 C1199 1.394 . S
C1198 C1204 1.465 . S
C1199 C1194 1.399 . S
C1199 C1198 1.394 . S
C1199 C1200 1.516 . S
C1200 C1199 1.516 . S
C1200 C1201 1.502 . S
C1200 C1202 1.561 . S
C1200 C1203 1.526 . S
C1201 H1185 0.959 . S
C1201 H1186 0.959 . S
C1201 H1187 0.961 . S
C1201 C1200 1.502 . S
C1202 H1188 0.960 . S
C1202 H1189 0.961 . S
C1202 H1190 0.959 . S
C1202 C1200 1.561 . S
C1203 C1200 1.526 . S
C1203 C1204 1.396 . S
C1203 C1208 1.390 . S
C1204 C1198 1.465 . S
C1204 C1203 1.396 . S
C1204 C1205 1.399 . S
C1205 H1191 0.929 . S
C1205 C1204 1.399 . S
C1205 C1206 1.385 . S
C1206 H1192 0.931 . S
C1206 C1205 1.385 . S
C1206 C1207 1.389 . S
C1207 C1206 1.389 . S
C1207 C1208 1.387 . S
C1208 H1193 0.930 . S
C1208 C1203 1.390 . S
C1208 C1207 1.387 . S
H1209 C1221 0.930 . S
H1210 C1223 0.930 . S
H1211 C1224 0.930 1_545 S
H1212 C1228 0.959 . S
H1213 C1228 0.959 . S
H1214 C1228 0.961 . S
H1215 C1229 0.960 . S
H1216 C1229 0.961 . S
H1217 C1229 0.959 . S
H1218 C1232 0.929 . S
H1219 C1233 0.931 . S
H1220 C1235 0.930 . S
C1221 H1209 0.930 . S
C1221 C1222 1.399 . S
C1221 C1226 1.399 . S
C1222 C1221 1.399 . S
C1222 C1223 1.376 . S
C1223 H1210 0.930 . S
C1223 C1222 1.376 . S
C1223 C1224 1.388 . S
C1224 H1211 0.930 1_565 S
C1224 C1223 1.388 . S
C1224 C1225 1.390 . S
C1225 C1224 1.390 . S
C1225 C1226 1.394 . S
C1225 C1231 1.465 . S
C1226 C1221 1.399 . S
C1226 C1225 1.394 . S
C1226 C1227 1.516 . S
C1227 C1226 1.516 . S
C1227 C1228 1.502 . S
C1227 C1229 1.561 . S
C1227 C1230 1.526 . S
C1228 H1212 0.959 . S
C1228 H1213 0.959 . S
C1228 H1214 0.961 . S
C1228 C1227 1.502 . S
C1229 H1215 0.960 . S
C1229 H1216 0.961 . S
C1229 H1217 0.959 . S
C1229 C1227 1.561 . S
C1230 C1227 1.526 . S
C1230 C1231 1.396 . S
C1230 C1235 1.390 . S
C1231 C1225 1.465 . S
C1231 C1230 1.396 . S
C1231 C1232 1.399 1_565 S
C1232 H1218 0.929 . S
C1232 C1231 1.399 1_545 S
C1232 C1233 1.385 . S
C1233 H1219 0.931 . S
C1233 C1232 1.385 . S
C1233 C1234 1.389 1_545 S
C1234 C1233 1.389 1_565 S
C1234 C1235 1.387 . S
C1235 H1220 0.930 . S
C1235 C1230 1.390 . S
C1235 C1234 1.387 . S
H1236 C1248 0.930 . S
H1237 C1250 0.930 . S
H1238 C1251 0.930 . S
H1239 C1255 0.959 . S
H1240 C1255 0.959 . S
H1241 C1255 0.961 . S
H1242 C1256 0.960 . S
H1243 C1256 0.961 . S
H1244 C1256 0.959 . S
H1245 C1259 0.929 . S
H1246 C1260 0.931 . S
H1247 C1262 0.930 . S
C1248 H1236 0.930 . S
C1248 C1249 1.399 . S
C1248 C1253 1.399 . S
C1249 C1248 1.399 . S
C1249 C1250 1.376 . S
C1250 H1237 0.930 . S
C1250 C1249 1.376 . S
C1250 C1251 1.388 . S
C1251 H1238 0.930 . S
C1251 C1250 1.388 . S
C1251 C1252 1.390 . S
C1252 C1251 1.390 . S
C1252 C1253 1.394 . S
C1252 C1258 1.465 . S
C1253 C1248 1.399 . S
C1253 C1252 1.394 . S
C1253 C1254 1.516 . S
C1254 C1253 1.516 . S
C1254 C1255 1.502 . S
C1254 C1256 1.561 . S
C1254 C1257 1.526 . S
C1255 H1239 0.959 . S
C1255 H1240 0.959 . S
C1255 H1241 0.961 . S
C1255 C1254 1.502 . S
C1256 H1242 0.960 . S
C1256 H1243 0.961 . S
C1256 H1244 0.959 . S
C1256 C1254 1.561 . S
C1257 C1254 1.526 . S
C1257 C1258 1.396 . S
C1257 C1262 1.390 . S
C1258 C1252 1.465 . S
C1258 C1257 1.396 . S
C1258 C1259 1.399 . S
C1259 H1245 0.929 . S
C1259 C1258 1.399 . S
C1259 C1260 1.385 . S
C1260 H1246 0.931 . S
C1260 C1259 1.385 . S
C1260 C1261 1.389 . S
C1261 C1260 1.389 . S
C1261 C1262 1.387 . S
C1262 H1247 0.930 . S
C1262 C1257 1.390 . S
C1262 C1261 1.387 . S
H1263 C1275 0.930 . S
H1264 C1277 0.930 . S
H1265 C1278 0.930 . S
H1266 C1282 0.959 . S
H1267 C1282 0.959 . S
H1268 C1282 0.961 . S
H1269 C1283 0.960 . S
H1270 C1283 0.961 . S
H1271 C1283 0.959 . S
H1272 C1286 0.929 . S
H1273 C1287 0.931 . S
H1274 C1289 0.930 . S
C1275 H1263 0.930 . S
C1275 C1276 1.399 . S
C1275 C1280 1.399 . S
C1276 C1275 1.399 . S
C1276 C1277 1.376 . S
C1277 H1264 0.930 . S
C1277 C1276 1.376 . S
C1277 C1278 1.388 . S
C1278 H1265 0.930 . S
C1278 C1277 1.388 . S
C1278 C1279 1.390 . S
C1279 C1278 1.390 . S
C1279 C1280 1.394 . S
C1279 C1285 1.465 . S
C1280 C1275 1.399 . S
C1280 C1279 1.394 . S
C1280 C1281 1.516 . S
C1281 C1280 1.516 . S
C1281 C1282 1.502 . S
C1281 C1283 1.561 . S
C1281 C1284 1.526 . S
C1282 H1266 0.959 . S
C1282 H1267 0.959 . S
C1282 H1268 0.961 . S
C1282 C1281 1.502 . S
C1283 H1269 0.960 . S
C1283 H1270 0.961 . S
C1283 H1271 0.959 . S
C1283 C1281 1.561 . S
C1284 C1281 1.526 . S
C1284 C1285 1.396 . S
C1284 C1289 1.390 . S
C1285 C1279 1.465 . S
C1285 C1284 1.396 . S
C1285 C1286 1.399 . S
C1286 H1272 0.929 . S
C1286 C1285 1.399 . S
C1286 C1287 1.385 . S
C1287 H1273 0.931 . S
C1287 C1286 1.385 . S
C1287 C1288 1.389 . S
C1288 C1287 1.389 . S
C1288 C1289 1.387 . S
C1289 H1274 0.930 . S
C1289 C1284 1.390 . S
C1289 C1288 1.387 . S
H1290 C1302 0.930 . S
H1291 C1304 0.930 . S
H1292 C1305 0.930 . S
H1293 C1309 0.959 . S
H1294 C1309 0.959 . S
H1295 C1309 0.961 . S
H1296 C1310 0.960 . S
H1297 C1310 0.961 . S
H1298 C1310 0.959 . S
H1299 C1313 0.929 . S
H1300 C1314 0.931 . S
H1301 C1316 0.930 . S
C1302 H1290 0.930 . S
C1302 C1303 1.399 . S
C1302 C1307 1.399 . S
C1303 C1302 1.399 . S
C1303 C1304 1.376 . S
C1304 H1291 0.930 . S
C1304 C1303 1.376 . S
C1304 C1305 1.388 . S
C1305 H1292 0.930 . S
C1305 C1304 1.388 . S
C1305 C1306 1.390 . S
C1306 C1305 1.390 . S
C1306 C1307 1.394 . S
C1306 C1312 1.465 . S
C1307 C1302 1.399 . S
C1307 C1306 1.394 . S
C1307 C1308 1.516 . S
C1308 C1307 1.516 . S
C1308 C1309 1.502 . S
C1308 C1310 1.561 . S
C1308 C1311 1.526 . S
C1309 H1293 0.959 . S
C1309 H1294 0.959 . S
C1309 H1295 0.961 . S
C1309 C1308 1.502 . S
C1310 H1296 0.960 . S
C1310 H1297 0.961 . S
C1310 H1298 0.959 . S
C1310 C1308 1.561 . S
C1311 C1308 1.526 . S
C1311 C1312 1.396 . S
C1311 C1316 1.390 . S
C1312 C1306 1.465 . S
C1312 C1311 1.396 . S
C1312 C1313 1.399 . S
C1313 H1299 0.929 . S
C1313 C1312 1.399 . S
C1313 C1314 1.385 . S
C1314 H1300 0.931 . S
C1314 C1313 1.385 . S
C1314 C1315 1.389 . S
C1315 C1314 1.389 . S
C1315 C1316 1.387 . S
C1316 H1301 0.930 . S
C1316 C1311 1.390 . S
C1316 C1315 1.387 . S
H1317 C1329 0.930 1_545 S
H1318 C1331 0.930 . S
H1319 C1332 0.930 . S
H1320 C1336 0.959 . S
H1321 C1336 0.959 . S
H1322 C1336 0.961 . S
H1323 C1337 0.960 . S
H1324 C1337 0.961 . S
H1325 C1337 0.959 . S
H1326 C1340 0.929 . S
H1327 C1341 0.931 . S
H1328 C1343 0.930 . S
C1329 H1317 0.930 1_565 S
C1329 C1330 1.399 . S
C1329 C1334 1.399 . S
C1330 C1329 1.399 . S
C1330 C1331 1.376 . S
C1331 H1318 0.930 . S
C1331 C1330 1.376 . S
C1331 C1332 1.388 . S
C1332 H1319 0.930 . S
C1332 C1331 1.388 . S
C1332 C1333 1.390 . S
C1333 C1332 1.390 . S
C1333 C1334 1.394 . S
C1333 C1339 1.465 . S
C1334 C1329 1.399 . S
C1334 C1333 1.394 . S
C1334 C1335 1.516 1_565 S
C1335 C1334 1.516 1_545 S
C1335 C1336 1.502 . S
C1335 C1337 1.561 . S
C1335 C1338 1.526 1_545 S
C1336 H1320 0.959 . S
C1336 H1321 0.959 . S
C1336 H1322 0.961 . S
C1336 C1335 1.502 . S
C1337 H1323 0.960 . S
C1337 H1324 0.961 . S
C1337 H1325 0.959 . S
C1337 C1335 1.561 . S
C1338 C1335 1.526 1_565 S
C1338 C1339 1.396 . S
C1338 C1343 1.390 1_565 S
C1339 C1333 1.465 . S
C1339 C1338 1.396 . S
C1339 C1340 1.399 . S
C1340 H1326 0.929 . S
C1340 C1339 1.399 . S
C1340 C1341 1.385 . S
C1341 H1327 0.931 . S
C1341 C1340 1.385 . S
C1341 C1342 1.389 . S
C1342 C1341 1.389 . S
C1342 C1343 1.387 1_565 S
C1343 H1328 0.930 . S
C1343 C1338 1.390 1_545 S
C1343 C1342 1.387 1_545 S
H1344 C1356 0.930 . S
H1345 C1358 0.930 . S
H1346 C1359 0.930 . S
H1347 C1363 0.959 . S
H1348 C1363 0.959 . S
H1349 C1363 0.961 . S
H1350 C1364 0.960 . S
H1351 C1364 0.961 . S
H1352 C1364 0.959 . S
H1353 C1367 0.929 . S
H1354 C1368 0.931 . S
H1355 C1370 0.930 . S
C1356 H1344 0.930 . S
C1356 C1357 1.399 . S
C1356 C1361 1.399 . S
C1357 C1356 1.399 . S
C1357 C1358 1.376 . S
C1358 H1345 0.930 . S
C1358 C1357 1.376 . S
C1358 C1359 1.388 . S
C1359 H1346 0.930 . S
C1359 C1358 1.388 . S
C1359 C1360 1.390 . S
C1360 C1359 1.390 . S
C1360 C1361 1.394 . S
C1360 C1366 1.465 . S
C1361 C1356 1.399 . S
C1361 C1360 1.394 . S
C1361 C1362 1.516 . S
C1362 C1361 1.516 . S
C1362 C1363 1.502 . S
C1362 C1364 1.561 . S
C1362 C1365 1.526 . S
C1363 H1347 0.959 . S
C1363 H1348 0.959 . S
C1363 H1349 0.961 . S
C1363 C1362 1.502 . S
C1364 H1350 0.960 . S
C1364 H1351 0.961 . S
C1364 H1352 0.959 . S
C1364 C1362 1.561 . S
C1365 C1362 1.526 . S
C1365 C1366 1.396 . S
C1365 C1370 1.390 . S
C1366 C1360 1.465 . S
C1366 C1365 1.396 . S
C1366 C1367 1.399 . S
C1367 H1353 0.929 . S
C1367 C1366 1.399 . S
C1367 C1368 1.385 . S
C1368 H1354 0.931 . S
C1368 C1367 1.385 . S
C1368 C1369 1.389 . S
C1369 C1368 1.389 . S
C1369 C1370 1.387 . S
C1370 H1355 0.930 . S
C1370 C1365 1.390 . S
C1370 C1369 1.387 . S
H1371 C1383 0.930 . S
H1372 C1385 0.930 . S
H1373 C1386 0.930 . S
H1374 C1390 0.959 . S
H1375 C1390 0.959 . S
H1376 C1390 0.961 . S
H1377 C1391 0.960 . S
H1378 C1391 0.961 . S
H1379 C1391 0.959 . S
H1380 C1394 0.929 . S
H1381 C1395 0.931 . S
H1382 C1397 0.930 . S
C1383 H1371 0.930 . S
C1383 C1384 1.399 . S
C1383 C1388 1.399 . S
C1384 C1383 1.399 . S
C1384 C1385 1.376 . S
C1385 H1372 0.930 . S
C1385 C1384 1.376 . S
C1385 C1386 1.388 . S
C1386 H1373 0.930 . S
C1386 C1385 1.388 . S
C1386 C1387 1.390 . S
C1387 C1386 1.390 . S
C1387 C1388 1.394 . S
C1387 C1393 1.465 . S
C1388 C1383 1.399 . S
C1388 C1387 1.394 . S
C1388 C1389 1.516 . S
C1389 C1388 1.516 . S
C1389 C1390 1.502 . S
C1389 C1391 1.561 . S
C1389 C1392 1.526 . S
C1390 H1374 0.959 . S
C1390 H1375 0.959 . S
C1390 H1376 0.961 . S
C1390 C1389 1.502 . S
C1391 H1377 0.960 . S
C1391 H1378 0.961 . S
C1391 H1379 0.959 . S
C1391 C1389 1.561 . S
C1392 C1389 1.526 . S
C1392 C1393 1.396 . S
C1392 C1397 1.390 . S
C1393 C1387 1.465 . S
C1393 C1392 1.396 . S
C1393 C1394 1.399 . S
C1394 H1380 0.929 . S
C1394 C1393 1.399 . S
C1394 C1395 1.385 . S
C1395 H1381 0.931 . S
C1395 C1394 1.385 . S
C1395 C1396 1.389 . S
C1396 C1395 1.389 . S
C1396 C1397 1.387 . S
C1397 H1382 0.930 . S
C1397 C1392 1.390 . S
C1397 C1396 1.387 . S
H1398 C1410 0.930 . S
H1399 C1412 0.930 . S
H1400 C1413 0.930 . S
H1401 C1417 0.959 . S
H1402 C1417 0.959 . S
H1403 C1417 0.961 . S
H1404 C1418 0.960 . S
H1405 C1418 0.961 . S
H1406 C1418 0.959 . S
H1407 C1421 0.929 . S
H1408 C1422 0.931 . S
H1409 C1424 0.930 . S
C1410 H1398 0.930 . S
C1410 C1411 1.399 . S
C1410 C1415 1.399 . S
C1411 C1410 1.399 . S
C1411 C1412 1.376 . S
C1412 H1399 0.930 . S
C1412 C1411 1.376 . S
C1412 C1413 1.388 . S
C1413 H1400 0.930 . S
C1413 C1412 1.388 . S
C1413 C1414 1.390 . S
C1414 C1413 1.390 . S
C1414 C1415 1.394 . S
C1414 C1420 1.465 . S
C1415 C1410 1.399 . S
C1415 C1414 1.394 . S
C1415 C1416 1.516 . S
C1416 C1415 1.516 . S
C1416 C1417 1.502 . S
C1416 C1418 1.561 . S
C1416 C1419 1.526 . S
C1417 H1401 0.959 . S
C1417 H1402 0.959 . S
C1417 H1403 0.961 . S
C1417 C1416 1.502 . S
C1418 H1404 0.960 . S
C1418 H1405 0.961 . S
C1418 H1406 0.959 . S
C1418 C1416 1.561 . S
C1419 C1416 1.526 . S
C1419 C1420 1.396 . S
C1419 C1424 1.390 . S
C1420 C1414 1.465 . S
C1420 C1419 1.396 . S
C1420 C1421 1.399 . S
C1421 H1407 0.929 . S
C1421 C1420 1.399 . S
C1421 C1422 1.385 . S
C1422 H1408 0.931 . S
C1422 C1421 1.385 . S
C1422 C1423 1.389 . S
C1423 C1422 1.389 . S
C1423 C1424 1.387 . S
C1424 H1409 0.930 . S
C1424 C1419 1.390 . S
C1424 C1423 1.387 . S
H1425 C1437 0.930 . S
H1426 C1439 0.930 . S
H1427 C1440 0.930 . S
H1428 C1444 0.959 . S
H1429 C1444 0.959 . S
H1430 C1444 0.961 . S
H1431 C1445 0.960 . S
H1432 C1445 0.961 . S
H1433 C1445 0.959 . S
H1434 C1448 0.929 . S
H1435 C1449 0.931 . S
H1436 C1451 0.930 . S
C1437 H1425 0.930 . S
C1437 C1438 1.399 . S
C1437 C1442 1.399 . S
C1438 C1437 1.399 . S
C1438 C1439 1.376 . S
C1439 H1426 0.930 . S
C1439 C1438 1.376 . S
C1439 C1440 1.388 . S
C1440 H1427 0.930 . S
C1440 C1439 1.388 . S
C1440 C1441 1.390 . S
C1441 C1440 1.390 . S
C1441 C1442 1.394 . S
C1441 C1447 1.465 . S
C1442 C1437 1.399 . S
C1442 C1441 1.394 . S
C1442 C1443 1.516 . S
C1443 C1442 1.516 . S
C1443 C1444 1.502 . S
C1443 C1445 1.561 . S
C1443 C1446 1.526 . S
C1444 H1428 0.959 . S
C1444 H1429 0.959 . S
C1444 H1430 0.961 . S
C1444 C1443 1.502 . S
C1445 H1431 0.960 . S
C1445 H1432 0.961 . S
C1445 H1433 0.959 . S
C1445 C1443 1.561 . S
C1446 C1443 1.526 . S
C1446 C1447 1.396 . S
C1446 C1451 1.390 . S
C1447 C1441 1.465 . S
C1447 C1446 1.396 . S
C1447 C1448 1.399 . S
C1448 H1434 0.929 . S
C1448 C1447 1.399 . S
C1448 C1449 1.385 . S
C1449 H1435 0.931 . S
C1449 C1448 1.385 . S
C1449 C1450 1.389 . S
C1450 C1449 1.389 . S
C1450 C1451 1.387 . S
C1451 H1436 0.930 . S
C1451 C1446 1.390 . S
C1451 C1450 1.387 . S
H1452 C1464 0.930 . S
H1453 C1466 0.930 . S
H1454 C1467 0.930 . S
H1455 C1471 0.959 . S
H1456 C1471 0.959 . S
H1457 C1471 0.961 . S
H1458 C1472 0.960 . S
H1459 C1472 0.961 . S
H1460 C1472 0.959 . S
H1461 C1475 0.929 . S
H1462 C1476 0.931 . S
H1463 C1478 0.930 . S
C1464 H1452 0.930 . S
C1464 C1465 1.399 . S
C1464 C1469 1.399 . S
C1465 C1464 1.399 . S
C1465 C1466 1.376 . S
C1466 H1453 0.930 . S
C1466 C1465 1.376 . S
C1466 C1467 1.388 . S
C1467 H1454 0.930 . S
C1467 C1466 1.388 . S
C1467 C1468 1.390 . S
C1468 C1467 1.390 . S
C1468 C1469 1.394 . S
C1468 C1474 1.465 . S
C1469 C1464 1.399 . S
C1469 C1468 1.394 . S
C1469 C1470 1.516 . S
C1470 C1469 1.516 . S
C1470 C1471 1.502 . S
C1470 C1472 1.561 . S
C1470 C1473 1.526 . S
C1471 H1455 0.959 . S
C1471 H1456 0.959 . S
C1471 H1457 0.961 . S
C1471 C1470 1.502 . S
C1472 H1458 0.960 . S
C1472 H1459 0.961 . S
C1472 H1460 0.959 . S
C1472 C1470 1.561 . S
C1473 C1470 1.526 . S
C1473 C1474 1.396 . S
C1473 C1478 1.390 . S
C1474 C1468 1.465 . S
C1474 C1473 1.396 . S
C1474 C1475 1.399 . S
C1475 H1461 0.929 . S
C1475 C1474 1.399 . S
C1475 C1476 1.385 . S
C1476 H1462 0.931 . S
C1476 C1475 1.385 . S
C1476 C1477 1.389 . S
C1477 C1476 1.389 . S
C1477 C1478 1.387 . S
C1478 H1463 0.930 . S
C1478 C1473 1.390 . S
C1478 C1477 1.387 . S
H1479 C1491 0.930 . S
H1480 C1493 0.930 . S
H1481 C1494 0.930 . S
H1482 C1498 0.959 . S
H1483 C1498 0.959 . S
H1484 C1498 0.961 . S
H1485 C1499 0.960 . S
H1486 C1499 0.961 . S
H1487 C1499 0.959 . S
H1488 C1502 0.929 . S
H1489 C1503 0.931 . S
H1490 C1505 0.930 . S
C1491 H1479 0.930 . S
C1491 C1492 1.399 . S
C1491 C1496 1.399 . S
C1492 C1491 1.399 . S
C1492 C1493 1.376 . S
C1493 H1480 0.930 . S
C1493 C1492 1.376 . S
C1493 C1494 1.388 . S
C1494 H1481 0.930 . S
C1494 C1493 1.388 . S
C1494 C1495 1.390 . S
C1495 C1494 1.390 . S
C1495 C1496 1.394 . S
C1495 C1501 1.465 . S
C1496 C1491 1.399 . S
C1496 C1495 1.394 . S
C1496 C1497 1.516 . S
C1497 C1496 1.516 . S
C1497 C1498 1.502 1_455 S
C1497 C1499 1.561 . S
C1497 C1500 1.526 . S
C1498 H1482 0.959 . S
C1498 H1483 0.959 . S
C1498 H1484 0.961 . S
C1498 C1497 1.502 1_655 S
C1499 H1485 0.960 . S
C1499 H1486 0.961 . S
C1499 H1487 0.959 . S
C1499 C1497 1.561 . S
C1500 C1497 1.526 . S
C1500 C1501 1.396 . S
C1500 C1505 1.390 . S
C1501 C1495 1.465 . S
C1501 C1500 1.396 . S
C1501 C1502 1.399 . S
C1502 H1488 0.929 . S
C1502 C1501 1.399 . S
C1502 C1503 1.385 . S
C1503 H1489 0.931 . S
C1503 C1502 1.385 . S
C1503 C1504 1.389 . S
C1504 C1503 1.389 . S
C1504 C1505 1.387 . S
C1505 H1490 0.930 . S
C1505 C1500 1.390 . S
C1505 C1504 1.387 . S
H1506 C1518 0.930 . S
H1507 C1520 0.930 . S
H1508 C1521 0.930 . S
H1509 C1525 0.959 . S
H1510 C1525 0.959 . S
H1511 C1525 0.961 . S
H1512 C1526 0.960 . S
H1513 C1526 0.961 . S
H1514 C1526 0.959 . S
H1515 C1529 0.929 . S
H1516 C1530 0.931 . S
H1517 C1532 0.930 . S
C1518 H1506 0.930 . S
C1518 C1519 1.399 . S
C1518 C1523 1.399 . S
C1519 C1518 1.399 . S
C1519 C1520 1.376 . S
C1520 H1507 0.930 . S
C1520 C1519 1.376 . S
C1520 C1521 1.388 . S
C1521 H1508 0.930 . S
C1521 C1520 1.388 . S
C1521 C1522 1.390 . S
C1522 C1521 1.390 . S
C1522 C1523 1.394 . S
C1522 C1528 1.465 . S
C1523 C1518 1.399 . S
C1523 C1522 1.394 . S
C1523 C1524 1.516 . S
C1524 C1523 1.516 . S
C1524 C1525 1.502 . S
C1524 C1526 1.561 . S
C1524 C1527 1.526 . S
C1525 H1509 0.959 . S
C1525 H1510 0.959 . S
C1525 H1511 0.961 . S
C1525 C1524 1.502 . S
C1526 H1512 0.960 . S
C1526 H1513 0.961 . S
C1526 H1514 0.959 . S
C1526 C1524 1.561 . S
C1527 C1524 1.526 . S
C1527 C1528 1.396 . S
C1527 C1532 1.390 . S
C1528 C1522 1.465 . S
C1528 C1527 1.396 . S
C1528 C1529 1.399 . S
C1529 H1515 0.929 . S
C1529 C1528 1.399 . S
C1529 C1530 1.385 . S
C1530 H1516 0.931 . S
C1530 C1529 1.385 . S
C1530 C1531 1.389 . S
C1531 C1530 1.389 . S
C1531 C1532 1.387 . S
C1532 H1517 0.930 . S
C1532 C1527 1.390 . S
C1532 C1531 1.387 . S
H1533 C1545 0.930 . S
H1534 C1547 0.930 . S
H1535 C1548 0.930 . S
H1536 C1552 0.959 . S
H1537 C1552 0.959 . S
H1538 C1552 0.961 . S
H1539 C1553 0.960 . S
H1540 C1553 0.961 . S
H1541 C1553 0.959 1_455 S
H1542 C1556 0.932 . S
H1543 C1557 0.931 . S
H1544 C1559 0.930 . S
C1545 H1533 0.930 . S
C1545 C1546 1.399 . S
C1545 C1550 1.399 . S
C1546 C1545 1.399 . S
C1546 C1547 1.376 . S
C1547 H1534 0.930 . S
C1547 C1546 1.376 . S
C1547 C1548 1.388 . S
C1548 H1535 0.930 . S
C1548 C1547 1.388 . S
C1548 C1549 1.390 . S
C1549 C1548 1.390 . S
C1549 C1550 1.394 . S
C1549 C1555 1.465 . S
C1550 C1545 1.399 . S
C1550 C1549 1.394 . S
C1550 C1551 1.516 . S
C1551 C1550 1.516 . S
C1551 C1552 1.502 . S
C1551 C1553 1.561 . S
C1551 C1554 1.526 . S
C1552 H1536 0.959 . S
C1552 H1537 0.959 . S
C1552 H1538 0.961 . S
C1552 C1551 1.502 . S
C1553 H1539 0.960 . S
C1553 H1540 0.961 . S
C1553 H1541 0.959 1_655 S
C1553 C1551 1.561 . S
C1554 C1551 1.526 . S
C1554 C1555 1.396 . S
C1554 C1559 1.390 . S
C1555 C1549 1.465 . S
C1555 C1554 1.396 . S
C1555 C1556 1.395 1_655 S
C1556 H1542 0.932 . S
C1556 C1555 1.395 1_455 S
C1556 C1557 1.385 . S
C1557 H1543 0.931 . S
C1557 C1556 1.385 . S
C1557 C1558 1.389 1_455 S
C1558 C1557 1.389 1_655 S
C1558 C1559 1.387 . S
C1559 H1544 0.930 . S
C1559 C1554 1.390 . S
C1559 C1558 1.387 . S
H1560 C1572 0.930 . S
H1561 C1574 0.930 . S
H1562 C1575 0.930 . S
H1563 C1579 0.959 . S
H1564 C1579 0.959 . S
H1565 C1579 0.961 . S
H1566 C1580 0.960 . S
H1567 C1580 0.961 . S
H1568 C1580 0.959 . S
H1569 C1583 0.929 . S
H1570 C1584 0.931 . S
H1571 C1586 0.930 . S
C1572 H1560 0.930 . S
C1572 C1573 1.399 . S
C1572 C1577 1.399 . S
C1573 C1572 1.399 . S
C1573 C1574 1.376 . S
C1574 H1561 0.930 . S
C1574 C1573 1.376 . S
C1574 C1575 1.388 . S
C1575 H1562 0.930 . S
C1575 C1574 1.388 . S
C1575 C1576 1.390 . S
C1576 C1575 1.390 . S
C1576 C1577 1.394 . S
C1576 C1582 1.465 . S
C1577 C1572 1.399 . S
C1577 C1576 1.394 . S
C1577 C1578 1.516 . S
C1578 C1577 1.516 . S
C1578 C1579 1.502 . S
C1578 C1580 1.561 . S
C1578 C1581 1.526 . S
C1579 H1563 0.959 . S
C1579 H1564 0.959 . S
C1579 H1565 0.961 . S
C1579 C1578 1.502 . S
C1580 H1566 0.960 . S
C1580 H1567 0.961 . S
C1580 H1568 0.959 . S
C1580 C1578 1.561 . S
C1581 C1578 1.526 . S
C1581 C1582 1.396 . S
C1581 C1586 1.390 . S
C1582 C1576 1.465 . S
C1582 C1581 1.396 . S
C1582 C1583 1.399 . S
C1583 H1569 0.929 . S
C1583 C1582 1.399 . S
C1583 C1584 1.385 . S
C1584 H1570 0.931 . S
C1584 C1583 1.385 . S
C1584 C1585 1.389 . S
C1585 C1584 1.389 . S
C1585 C1586 1.387 . S
C1586 H1571 0.930 . S
C1586 C1581 1.390 . S
C1586 C1585 1.387 . S
H1587 C1599 0.930 . S
H1588 C1601 0.930 . S
H1589 C1602 0.930 . S
H1590 C1606 0.959 . S
H1591 C1606 0.959 . S
H1592 C1606 0.961 . S
H1593 C1607 0.960 . S
H1594 C1607 0.961 . S
H1595 C1607 0.959 . S
H1596 C1610 0.929 . S
H1597 C1611 0.931 . S
H1598 C1613 0.930 . S
C1599 H1587 0.930 . S
C1599 C1600 1.399 . S
C1599 C1604 1.399 . S
C1600 C1599 1.399 . S
C1600 C1601 1.376 . S
C1601 H1588 0.930 . S
C1601 C1600 1.376 . S
C1601 C1602 1.388 . S
C1602 H1589 0.930 . S
C1602 C1601 1.388 . S
C1602 C1603 1.390 . S
C1603 C1602 1.390 . S
C1603 C1604 1.394 . S
C1603 C1609 1.465 . S
C1604 C1599 1.399 . S
C1604 C1603 1.394 . S
C1604 C1605 1.516 . S
C1605 C1604 1.516 . S
C1605 C1606 1.502 . S
C1605 C1607 1.561 . S
C1605 C1608 1.526 . S
C1606 H1590 0.959 . S
C1606 H1591 0.959 . S
C1606 H1592 0.961 . S
C1606 C1605 1.502 . S
C1607 H1593 0.960 . S
C1607 H1594 0.961 . S
C1607 H1595 0.959 . S
C1607 C1605 1.561 . S
C1608 C1605 1.526 . S
C1608 C1609 1.396 . S
C1608 C1613 1.390 . S
C1609 C1603 1.465 . S
C1609 C1608 1.396 . S
C1609 C1610 1.399 . S
C1610 H1596 0.929 . S
C1610 C1609 1.399 . S
C1610 C1611 1.385 . S
C1611 H1597 0.931 . S
C1611 C1610 1.385 . S
C1611 C1612 1.389 . S
C1612 C1611 1.389 . S
C1612 C1613 1.387 . S
C1613 H1598 0.930 . S
C1613 C1608 1.390 . S
C1613 C1612 1.387 . S
H1614 C1626 0.930 . S
H1615 C1628 0.930 . S
H1616 C1629 0.930 1_554 S
H1617 C1633 0.959 . S
H1618 C1633 0.959 . S
H1619 C1633 0.961 . S
H1620 C1634 0.960 . S
H1621 C1634 0.961 . S
H1622 C1634 0.959 . S
H1623 C1637 0.929 . S
H1624 C1638 0.931 . S
H1625 C1640 0.930 . S
C1626 H1614 0.930 . S
C1626 C1627 1.399 . S
C1626 C1631 1.399 . S
C1627 C1626 1.399 . S
C1627 C1628 1.376 . S
C1628 H1615 0.930 . S
C1628 C1627 1.376 . S
C1628 C1629 1.388 . S
C1629 H1616 0.930 1_556 S
C1629 C1628 1.388 . S
C1629 C1630 1.390 . S
C1630 C1629 1.390 . S
C1630 C1631 1.394 . S
C1630 C1636 1.465 . S
C1631 C1626 1.399 . S
C1631 C1630 1.394 . S
C1631 C1632 1.516 . S
C1632 C1631 1.516 . S
C1632 C1633 1.502 . S
C1632 C1634 1.561 . S
C1632 C1635 1.526 . S
C1633 H1617 0.959 . S
C1633 H1618 0.959 . S
C1633 H1619 0.961 . S
C1633 C1632 1.502 . S
C1634 H1620 0.960 . S
C1634 H1621 0.961 . S
C1634 H1622 0.959 . S
C1634 C1632 1.561 . S
C1635 C1632 1.526 . S
C1635 C1636 1.396 . S
C1635 C1640 1.390 . S
C1636 C1630 1.465 . S
C1636 C1635 1.396 . S
C1636 C1637 1.399 1_556 S
C1637 H1623 0.929 . S
C1637 C1636 1.399 1_554 S
C1637 C1638 1.385 . S
C1638 H1624 0.931 . S
C1638 C1637 1.385 . S
C1638 C1639 1.389 1_554 S
C1639 C1638 1.389 1_556 S
C1639 C1640 1.387 . S
C1640 H1625 0.930 . S
C1640 C1635 1.390 . S
C1640 C1639 1.387 . S
H1641 C1653 0.930 . S
H1642 C1655 0.930 . S
H1643 C1656 0.930 . S
H1644 C1660 0.959 . S
H1645 C1660 0.959 . S
H1646 C1660 0.961 . S
H1647 C1661 0.960 . S
H1648 C1661 0.961 . S
H1649 C1661 0.959 . S
H1650 C1664 0.929 . S
H1651 C1665 0.931 . S
H1652 C1667 0.930 . S
C1653 H1641 0.930 . S
C1653 C1654 1.399 . S
C1653 C1658 1.399 . S
C1654 C1653 1.399 . S
C1654 C1655 1.376 . S
C1655 H1642 0.930 . S
C1655 C1654 1.376 . S
C1655 C1656 1.388 . S
C1656 H1643 0.930 . S
C1656 C1655 1.388 . S
C1656 C1657 1.390 . S
C1657 C1656 1.390 . S
C1657 C1658 1.394 . S
C1657 C1663 1.465 . S
C1658 C1653 1.399 . S
C1658 C1657 1.394 . S
C1658 C1659 1.516 . S
C1659 C1658 1.516 . S
C1659 C1660 1.502 . S
C1659 C1661 1.561 . S
C1659 C1662 1.526 . S
C1660 H1644 0.959 . S
C1660 H1645 0.959 . S
C1660 H1646 0.961 . S
C1660 C1659 1.502 . S
C1661 H1647 0.960 . S
C1661 H1648 0.961 . S
C1661 H1649 0.959 . S
C1661 C1659 1.561 . S
C1662 C1659 1.526 . S
C1662 C1663 1.396 . S
C1662 C1667 1.390 . S
C1663 C1657 1.465 . S
C1663 C1662 1.396 . S
C1663 C1664 1.399 . S
C1664 H1650 0.929 . S
C1664 C1663 1.399 . S
C1664 C1665 1.385 . S
C1665 H1651 0.931 . S
C1665 C1664 1.385 . S
C1665 C1666 1.389 . S
C1666 C1665 1.389 . S
C1666 C1667 1.387 . S
C1667 H1652 0.930 . S
C1667 C1662 1.390 . S
C1667 C1666 1.387 . S
H1668 C1680 0.930 . S
H1669 C1682 0.930 . S
H1670 C1683 0.930 . S
H1671 C1687 0.959 . S
H1672 C1687 0.959 . S
H1673 C1687 0.961 . S
H1674 C1688 0.960 . S
H1675 C1688 0.961 . S
H1676 C1688 0.959 . S
H1677 C1691 0.929 . S
H1678 C1692 0.931 . S
H1679 C1694 0.930 . S
C1680 H1668 0.930 . S
C1680 C1681 1.399 . S
C1680 C1685 1.399 . S
C1681 C1680 1.399 . S
C1681 C1682 1.376 . S
C1682 H1669 0.930 . S
C1682 C1681 1.376 . S
C1682 C1683 1.388 . S
C1683 H1670 0.930 . S
C1683 C1682 1.388 . S
C1683 C1684 1.390 . S
C1684 C1683 1.390 . S
C1684 C1685 1.394 . S
C1684 C1690 1.465 . S
C1685 C1680 1.399 . S
C1685 C1684 1.394 . S
C1685 C1686 1.516 . S
C1686 C1685 1.516 . S
C1686 C1687 1.502 . S
C1686 C1688 1.561 . S
C1686 C1689 1.526 . S
C1687 H1671 0.959 . S
C1687 H1672 0.959 . S
C1687 H1673 0.961 . S
C1687 C1686 1.502 . S
C1688 H1674 0.960 . S
C1688 H1675 0.961 . S
C1688 H1676 0.959 . S
C1688 C1686 1.561 . S
C1689 C1686 1.526 . S
C1689 C1690 1.396 . S
C1689 C1694 1.390 . S
C1690 C1684 1.465 . S
C1690 C1689 1.396 . S
C1690 C1691 1.399 . S
C1691 H1677 0.929 . S
C1691 C1690 1.399 . S
C1691 C1692 1.385 . S
C1692 H1678 0.931 . S
C1692 C1691 1.385 . S
C1692 C1693 1.389 . S
C1693 C1692 1.389 . S
C1693 C1694 1.387 . S
C1694 H1679 0.930 . S
C1694 C1689 1.390 . S
C1694 C1693 1.387 . S
H1695 C1707 0.930 . S
H1696 C1709 0.930 . S
H1697 C1710 0.930 . S
H1698 C1714 0.959 . S
H1699 C1714 0.959 . S
H1700 C1714 0.961 . S
H1701 C1715 0.960 . S
H1702 C1715 0.961 . S
H1703 C1715 0.959 . S
H1704 C1718 0.929 . S
H1705 C1719 0.931 . S
H1706 C1721 0.930 . S
C1707 H1695 0.930 . S
C1707 C1708 1.399 . S
C1707 C1712 1.399 . S
C1708 C1707 1.399 . S
C1708 C1709 1.376 . S
C1709 H1696 0.930 . S
C1709 C1708 1.376 . S
C1709 C1710 1.388 . S
C1710 H1697 0.930 . S
C1710 C1709 1.388 . S
C1710 C1711 1.390 . S
C1711 C1710 1.390 . S
C1711 C1712 1.394 . S
C1711 C1717 1.465 . S
C1712 C1707 1.399 . S
C1712 C1711 1.394 . S
C1712 C1713 1.516 . S
C1713 C1712 1.516 . S
C1713 C1714 1.502 . S
C1713 C1715 1.561 . S
C1713 C1716 1.526 . S
C1714 H1698 0.959 . S
C1714 H1699 0.959 . S
C1714 H1700 0.961 . S
C1714 C1713 1.502 . S
C1715 H1701 0.960 . S
C1715 H1702 0.961 . S
C1715 H1703 0.959 . S
C1715 C1713 1.561 . S
C1716 C1713 1.526 . S
C1716 C1717 1.396 . S
C1716 C1721 1.390 . S
C1717 C1711 1.465 . S
C1717 C1716 1.396 . S
C1717 C1718 1.399 . S
C1718 H1704 0.929 . S
C1718 C1717 1.399 . S
C1718 C1719 1.385 . S
C1719 H1705 0.931 . S
C1719 C1718 1.385 . S
C1719 C1720 1.389 . S
C1720 C1719 1.389 . S
C1720 C1721 1.387 . S
C1721 H1706 0.930 . S
C1721 C1716 1.390 . S
C1721 C1720 1.387 . S
H1722 C1734 0.930 . S
H1723 C1736 0.930 . S
H1724 C1737 0.930 . S
H1725 C1741 0.959 . S
H1726 C1741 0.959 . S
H1727 C1741 0.961 . S
H1728 C1742 0.960 . S
H1729 C1742 0.961 . S
H1730 C1742 0.959 . S
H1731 C1745 0.929 . S
H1732 C1746 0.931 . S
H1733 C1748 0.930 . S
C1734 H1722 0.930 . S
C1734 C1735 1.399 . S
C1734 C1739 1.399 . S
C1735 C1734 1.399 . S
C1735 C1736 1.376 . S
C1736 H1723 0.930 . S
C1736 C1735 1.376 . S
C1736 C1737 1.388 . S
C1737 H1724 0.930 . S
C1737 C1736 1.388 . S
C1737 C1738 1.390 . S
C1738 C1737 1.390 . S
C1738 C1739 1.394 . S
C1738 C1744 1.465 . S
C1739 C1734 1.399 . S
C1739 C1738 1.394 . S
C1739 C1740 1.516 . S
C1740 C1739 1.516 . S
C1740 C1741 1.502 . S
C1740 C1742 1.561 . S
C1740 C1743 1.526 . S
C1741 H1725 0.959 . S
C1741 H1726 0.959 . S
C1741 H1727 0.961 . S
C1741 C1740 1.502 . S
C1742 H1728 0.960 . S
C1742 H1729 0.961 . S
C1742 H1730 0.959 . S
C1742 C1740 1.561 . S
C1743 C1740 1.526 . S
C1743 C1744 1.396 . S
C1743 C1748 1.390 . S
C1744 C1738 1.465 . S
C1744 C1743 1.396 . S
C1744 C1745 1.399 . S
C1745 H1731 0.929 . S
C1745 C1744 1.399 . S
C1745 C1746 1.385 . S
C1746 H1732 0.931 . S
C1746 C1745 1.385 . S
C1746 C1747 1.389 . S
C1747 C1746 1.389 . S
C1747 C1748 1.387 . S
C1748 H1733 0.930 . S
C1748 C1743 1.390 . S
C1748 C1747 1.387 . S
H1749 C1761 0.930 . S
H1750 C1763 0.930 . S
H1751 C1764 0.930 . S
H1752 C1768 0.959 . S
H1753 C1768 0.959 . S
H1754 C1768 0.961 . S
H1755 C1769 0.960 . S
H1756 C1769 0.961 . S
H1757 C1769 0.959 . S
H1758 C1772 0.929 . S
H1759 C1773 0.931 . S
H1760 C1775 0.930 . S
C1761 H1749 0.930 . S
C1761 C1762 1.399 . S
C1761 C1766 1.399 . S
C1762 C1761 1.399 . S
C1762 C1763 1.376 . S
C1763 H1750 0.930 . S
C1763 C1762 1.376 . S
C1763 C1764 1.388 . S
C1764 H1751 0.930 . S
C1764 C1763 1.388 . S
C1764 C1765 1.390 . S
C1765 C1764 1.390 . S
C1765 C1766 1.394 . S
C1765 C1771 1.465 . S
C1766 C1761 1.399 . S
C1766 C1765 1.394 . S
C1766 C1767 1.516 . S
C1767 C1766 1.516 . S
C1767 C1768 1.502 . S
C1767 C1769 1.561 . S
C1767 C1770 1.526 . S
C1768 H1752 0.959 . S
C1768 H1753 0.959 . S
C1768 H1754 0.961 . S
C1768 C1767 1.502 . S
C1769 H1755 0.960 . S
C1769 H1756 0.961 . S
C1769 H1757 0.959 . S
C1769 C1767 1.561 . S
C1770 C1767 1.526 . S
C1770 C1771 1.396 . S
C1770 C1775 1.390 . S
C1771 C1765 1.465 . S
C1771 C1770 1.396 . S
C1771 C1772 1.399 . S
C1772 H1758 0.929 . S
C1772 C1771 1.399 . S
C1772 C1773 1.385 . S
C1773 H1759 0.931 . S
C1773 C1772 1.385 . S
C1773 C1774 1.389 . S
C1774 C1773 1.389 . S
C1774 C1775 1.387 . S
C1775 H1760 0.930 . S
C1775 C1770 1.390 . S
C1775 C1774 1.387 . S
H1776 C1788 0.930 . S
H1777 C1790 0.930 . S
H1778 C1791 0.930 . S
H1779 C1795 0.959 . S
H1780 C1795 0.959 . S
H1781 C1795 0.961 . S
H1782 C1796 0.960 . S
H1783 C1796 0.961 . S
H1784 C1796 0.959 . S
H1785 C1799 0.929 . S
H1786 C1800 0.931 . S
H1787 C1802 0.930 . S
C1788 H1776 0.930 . S
C1788 C1789 1.399 . S
C1788 C1793 1.399 . S
C1789 C1788 1.399 . S
C1789 C1790 1.376 . S
C1790 H1777 0.930 . S
C1790 C1789 1.376 . S
C1790 C1791 1.388 . S
C1791 H1778 0.930 . S
C1791 C1790 1.388 . S
C1791 C1792 1.390 . S
C1792 C1791 1.390 . S
C1792 C1793 1.394 . S
C1792 C1798 1.465 . S
C1793 C1788 1.399 . S
C1793 C1792 1.394 . S
C1793 C1794 1.516 . S
C1794 C1793 1.516 . S
C1794 C1795 1.502 . S
C1794 C1796 1.561 . S
C1794 C1797 1.526 . S
C1795 H1779 0.959 . S
C1795 H1780 0.959 . S
C1795 H1781 0.961 . S
C1795 C1794 1.502 . S
C1796 H1782 0.960 . S
C1796 H1783 0.961 . S
C1796 H1784 0.959 . S
C1796 C1794 1.561 . S
C1797 C1794 1.526 . S
C1797 C1798 1.396 . S
C1797 C1802 1.390 . S
C1798 C1792 1.465 . S
C1798 C1797 1.396 . S
C1798 C1799 1.399 . S
C1799 H1785 0.929 . S
C1799 C1798 1.399 . S
C1799 C1800 1.385 . S
C1800 H1786 0.931 . S
C1800 C1799 1.385 . S
C1800 C1801 1.389 . S
C1801 C1800 1.389 . S
C1801 C1802 1.387 . S
C1802 H1787 0.930 . S
C1802 C1797 1.390 . S
C1802 C1801 1.387 . S
H1803 C1815 0.930 . S
H1804 C1817 0.930 . S
H1805 C1818 0.930 . S
H1806 C1822 0.959 . S
H1807 C1822 0.959 . S
H1808 C1822 0.961 . S
H1809 C1823 0.960 . S
H1810 C1823 0.961 . S
H1811 C1823 0.959 . S
H1812 C1826 0.935 . S
H1813 C1827 0.931 1_565 S
H1814 C1829 0.930 . S
C1815 H1803 0.930 . S
C1815 C1816 1.399 . S
C1815 C1820 1.399 . S
C1816 C1815 1.399 . S
C1816 C1817 1.376 . S
C1817 H1804 0.930 . S
C1817 C1816 1.376 . S
C1817 C1818 1.388 . S
C1818 H1805 0.930 . S
C1818 C1817 1.388 . S
C1818 C1819 1.390 . S
C1819 C1818 1.390 . S
C1819 C1820 1.394 . S
C1819 C1825 1.465 . S
C1820 C1815 1.399 . S
C1820 C1819 1.394 . S
C1820 C1821 1.516 . S
C1821 C1820 1.516 . S
C1821 C1822 1.502 . S
C1821 C1823 1.561 . S
C1821 C1824 1.526 . S
C1822 H1806 0.959 . S
C1822 H1807 0.959 . S
C1822 H1808 0.961 . S
C1822 C1821 1.502 . S
C1823 H1809 0.960 . S
C1823 H1810 0.961 . S
C1823 H1811 0.959 . S
C1823 C1821 1.561 . S
C1824 C1821 1.526 . S
C1824 C1825 1.396 . S
C1824 C1829 1.390 . S
C1825 C1819 1.465 . S
C1825 C1824 1.396 . S
C1825 C1826 1.399 . S
C1826 H1812 0.935 . S
C1826 C1825 1.399 . S
C1826 C1827 1.385 . S
C1827 H1813 0.931 1_545 S
C1827 C1826 1.385 . S
C1827 C1828 1.389 . S
C1828 C1827 1.389 . S
C1828 C1829 1.387 . S
C1829 H1814 0.930 . S
C1829 C1824 1.390 . S
C1829 C1828 1.387 . S
H1830 C1842 0.930 . S
H1831 C1844 0.930 . S
H1832 C1845 0.930 . S
H1833 C1849 0.959 . S
H1834 C1849 0.959 . S
H1835 C1849 0.961 . S
H1836 C1850 0.960 . S
H1837 C1850 0.961 . S
H1838 C1850 0.959 . S
H1839 C1853 0.929 . S
H1840 C1854 0.931 . S
H1841 C1856 0.930 . S
C1842 H1830 0.930 . S
C1842 C1843 1.399 . S
C1842 C1847 1.399 . S
C1843 C1842 1.399 . S
C1843 C1844 1.376 . S
C1844 H1831 0.930 . S
C1844 C1843 1.376 . S
C1844 C1845 1.388 . S
C1845 H1832 0.930 . S
C1845 C1844 1.388 . S
C1845 C1846 1.390 . S
C1846 C1845 1.390 . S
C1846 C1847 1.394 . S
C1846 C1852 1.465 . S
C1847 C1842 1.399 . S
C1847 C1846 1.394 . S
C1847 C1848 1.516 . S
C1848 C1847 1.516 . S
C1848 C1849 1.502 . S
C1848 C1850 1.561 . S
C1848 C1851 1.526 . S
C1849 H1833 0.959 . S
C1849 H1834 0.959 . S
C1849 H1835 0.961 . S
C1849 C1848 1.502 . S
C1850 H1836 0.960 . S
C1850 H1837 0.961 . S
C1850 H1838 0.959 . S
C1850 C1848 1.561 . S
C1851 C1848 1.526 . S
C1851 C1852 1.396 . S
C1851 C1856 1.390 . S
C1852 C1846 1.465 . S
C1852 C1851 1.396 . S
C1852 C1853 1.399 . S
C1853 H1839 0.929 . S
C1853 C1852 1.399 . S
C1853 C1854 1.385 . S
C1854 H1840 0.931 . S
C1854 C1853 1.385 . S
C1854 C1855 1.389 . S
C1855 C1854 1.389 . S
C1855 C1856 1.387 . S
C1856 H1841 0.930 . S
C1856 C1851 1.390 . S
C1856 C1855 1.387 . S
H1857 C1869 0.930 . S
H1858 C1871 0.930 . S
H1859 C1872 0.930 . S
H1860 C1876 0.959 . S
H1861 C1876 0.959 . S
H1862 C1876 0.961 . S
H1863 C1877 0.960 . S
H1864 C1877 0.961 . S
H1865 C1877 0.959 . S
H1866 C1880 0.929 . S
H1867 C1881 0.931 . S
H1868 C1883 0.930 . S
C1869 H1857 0.930 . S
C1869 C1870 1.399 . S
C1869 C1874 1.399 . S
C1870 C1869 1.399 . S
C1870 C1871 1.376 . S
C1871 H1858 0.930 . S
C1871 C1870 1.376 . S
C1871 C1872 1.388 . S
C1872 H1859 0.930 . S
C1872 C1871 1.388 . S
C1872 C1873 1.390 . S
C1873 C1872 1.390 . S
C1873 C1874 1.394 . S
C1873 C1879 1.465 . S
C1874 C1869 1.399 . S
C1874 C1873 1.394 . S
C1874 C1875 1.516 . S
C1875 C1874 1.516 . S
C1875 C1876 1.502 . S
C1875 C1877 1.561 . S
C1875 C1878 1.526 . S
C1876 H1860 0.959 . S
C1876 H1861 0.959 . S
C1876 H1862 0.961 . S
C1876 C1875 1.502 . S
C1877 H1863 0.960 . S
C1877 H1864 0.961 . S
C1877 H1865 0.959 . S
C1877 C1875 1.561 . S
C1878 C1875 1.526 . S
C1878 C1879 1.396 . S
C1878 C1883 1.390 . S
C1879 C1873 1.465 . S
C1879 C1878 1.396 . S
C1879 C1880 1.399 . S
C1880 H1866 0.929 . S
C1880 C1879 1.399 . S
C1880 C1881 1.385 . S
C1881 H1867 0.931 . S
C1881 C1880 1.385 . S
C1881 C1882 1.389 . S
C1882 C1881 1.389 . S
C1882 C1883 1.387 . S
C1883 H1868 0.930 . S
C1883 C1878 1.390 . S
C1883 C1882 1.387 . S
H1884 C1896 0.930 . S
H1885 C1898 0.930 . S
H1886 C1899 0.930 . S
H1887 C1903 0.959 . S
H1888 C1903 0.959 . S
H1889 C1903 0.961 . S
H1890 C1904 0.960 . S
H1891 C1904 0.961 . S
H1892 C1904 0.959 . S
H1893 C1907 0.929 . S
H1894 C1908 0.931 . S
H1895 C1910 0.930 . S
C1896 H1884 0.930 . S
C1896 C1897 1.399 . S
C1896 C1901 1.399 . S
C1897 C1896 1.399 . S
C1897 C1898 1.376 . S
C1898 H1885 0.930 . S
C1898 C1897 1.376 . S
C1898 C1899 1.388 . S
C1899 H1886 0.930 . S
C1899 C1898 1.388 . S
C1899 C1900 1.390 . S
C1900 C1899 1.390 . S
C1900 C1901 1.394 . S
C1900 C1906 1.465 . S
C1901 C1896 1.399 . S
C1901 C1900 1.394 . S
C1901 C1902 1.516 . S
C1902 C1901 1.516 . S
C1902 C1903 1.502 . S
C1902 C1904 1.561 . S
C1902 C1905 1.526 . S
C1903 H1887 0.959 . S
C1903 H1888 0.959 . S
C1903 H1889 0.961 . S
C1903 C1902 1.502 . S
C1904 H1890 0.960 . S
C1904 H1891 0.961 . S
C1904 H1892 0.959 . S
C1904 C1902 1.561 . S
C1905 C1902 1.526 . S
C1905 C1906 1.396 . S
C1905 C1910 1.390 . S
C1906 C1900 1.465 . S
C1906 C1905 1.396 . S
C1906 C1907 1.399 . S
C1907 H1893 0.929 . S
C1907 C1906 1.399 . S
C1907 C1908 1.385 . S
C1908 H1894 0.931 . S
C1908 C1907 1.385 . S
C1908 C1909 1.389 . S
C1909 C1908 1.389 . S
C1909 C1910 1.387 . S
C1910 H1895 0.930 . S
C1910 C1905 1.390 . S
C1910 C1909 1.387 . S
H1911 C1923 0.930 . S
H1912 C1925 0.934 1_565 S
H1913 C1926 0.930 1_565 S
H1914 C1930 0.959 . S
H1915 C1930 0.959 . S
H1916 C1930 0.961 . S
H1917 C1931 0.960 . S
H1918 C1931 0.961 . S
H1919 C1931 0.959 . S
H1920 C1934 0.929 . S
H1921 C1935 0.931 . S
H1922 C1937 0.930 . S
C1923 H1911 0.930 . S
C1923 C1924 1.399 . S
C1923 C1928 1.399 . S
C1924 C1923 1.399 . S
C1924 C1925 1.376 . S
C1925 H1912 0.934 1_545 S
C1925 C1924 1.376 . S
C1925 C1926 1.388 . S
C1926 H1913 0.930 1_545 S
C1926 C1925 1.388 . S
C1926 C1927 1.390 . S
C1927 C1926 1.390 . S
C1927 C1928 1.394 . S
C1927 C1933 1.465 . S
C1928 C1923 1.399 . S
C1928 C1927 1.394 . S
C1928 C1929 1.516 . S
C1929 C1928 1.516 . S
C1929 C1930 1.502 . S
C1929 C1931 1.561 . S
C1929 C1932 1.526 . S
C1930 H1914 0.959 . S
C1930 H1915 0.959 . S
C1930 H1916 0.961 . S
C1930 C1929 1.502 . S
C1931 H1917 0.960 . S
C1931 H1918 0.961 . S
C1931 H1919 0.959 . S
C1931 C1929 1.561 . S
C1932 C1929 1.526 . S
C1932 C1933 1.396 . S
C1932 C1937 1.390 . S
C1933 C1927 1.465 . S
C1933 C1932 1.396 . S
C1933 C1934 1.399 1_545 S
C1934 H1920 0.929 . S
C1934 C1933 1.399 1_565 S
C1934 C1935 1.385 . S
C1935 H1921 0.931 . S
C1935 C1934 1.385 . S
C1935 C1936 1.389 1_565 S
C1936 C1935 1.389 1_545 S
C1936 C1937 1.387 . S
C1937 H1922 0.930 . S
C1937 C1932 1.390 . S
C1937 C1936 1.387 . S
H1938 C1950 0.930 . S
H1939 C1952 0.930 . S
H1940 C1953 0.930 . S
H1941 C1957 0.959 . S
H1942 C1957 0.959 . S
H1943 C1957 0.961 . S
H1944 C1958 0.960 . S
H1945 C1958 0.961 . S
H1946 C1958 0.959 . S
H1947 C1961 0.929 . S
H1948 C1962 0.931 . S
H1949 C1964 0.930 . S
C1950 H1938 0.930 . S
C1950 C1951 1.399 . S
C1950 C1955 1.399 . S
C1951 C1950 1.399 . S
C1951 C1952 1.376 . S
C1952 H1939 0.930 . S
C1952 C1951 1.376 . S
C1952 C1953 1.388 . S
C1953 H1940 0.930 . S
C1953 C1952 1.388 . S
C1953 C1954 1.390 . S
C1954 C1953 1.390 . S
C1954 C1955 1.394 . S
C1954 C1960 1.465 . S
C1955 C1950 1.399 . S
C1955 C1954 1.394 . S
C1955 C1956 1.516 . S
C1956 C1955 1.516 . S
C1956 C1957 1.502 . S
C1956 C1958 1.561 . S
C1956 C1959 1.526 . S
C1957 H1941 0.959 . S
C1957 H1942 0.959 . S
C1957 H1943 0.961 . S
C1957 C1956 1.502 . S
C1958 H1944 0.960 . S
C1958 H1945 0.961 . S
C1958 H1946 0.959 . S
C1958 C1956 1.561 . S
C1959 C1956 1.526 . S
C1959 C1960 1.396 . S
C1959 C1964 1.390 . S
C1960 C1954 1.465 . S
C1960 C1959 1.396 . S
C1960 C1961 1.399 . S
C1961 H1947 0.929 . S
C1961 C1960 1.399 . S
C1961 C1962 1.385 . S
C1962 H1948 0.931 . S
C1962 C1961 1.385 . S
C1962 C1963 1.389 . S
C1963 C1962 1.389 . S
C1963 C1964 1.387 . S
C1964 H1949 0.930 . S
C1964 C1959 1.390 . S
C1964 C1963 1.387 . S
H1965 C1977 0.930 . S
H1966 C1979 0.930 . S
H1967 C1980 0.930 . S
H1968 C1984 0.959 . S
H1969 C1984 0.959 . S
H1970 C1984 0.961 . S
H1971 C1985 0.960 . S
H1972 C1985 0.961 . S
H1973 C1985 0.959 . S
H1974 C1988 0.929 . S
H1975 C1989 0.931 . S
H1976 C1991 0.930 . S
C1977 H1965 0.930 . S
C1977 C1978 1.399 . S
C1977 C1982 1.399 . S
C1978 C1977 1.399 . S
C1978 C1979 1.376 . S
C1979 H1966 0.930 . S
C1979 C1978 1.376 . S
C1979 C1980 1.388 . S
C1980 H1967 0.930 . S
C1980 C1979 1.388 . S
C1980 C1981 1.390 . S
C1981 C1980 1.390 . S
C1981 C1982 1.394 . S
C1981 C1987 1.465 . S
C1982 C1977 1.399 . S
C1982 C1981 1.394 . S
C1982 C1983 1.516 . S
C1983 C1982 1.516 . S
C1983 C1984 1.502 . S
C1983 C1985 1.561 . S
C1983 C1986 1.526 . S
C1984 H1968 0.959 . S
C1984 H1969 0.959 . S
C1984 H1970 0.961 . S
C1984 C1983 1.502 . S
C1985 H1971 0.960 . S
C1985 H1972 0.961 . S
C1985 H1973 0.959 . S
C1985 C1983 1.561 . S
C1986 C1983 1.526 . S
C1986 C1987 1.396 . S
C1986 C1991 1.390 . S
C1987 C1981 1.465 . S
C1987 C1986 1.396 . S
C1987 C1988 1.399 . S
C1988 H1974 0.929 . S
C1988 C1987 1.399 . S
C1988 C1989 1.385 . S
C1989 H1975 0.931 . S
C1989 C1988 1.385 . S
C1989 C1990 1.389 . S
C1990 C1989 1.389 . S
C1990 C1991 1.387 . S
C1991 H1976 0.930 . S
C1991 C1986 1.390 . S
C1991 C1990 1.387 . S
H1992 C2004 0.930 . S
H1993 C2006 0.930 . S
H1994 C2007 0.930 . S
H1995 C2011 0.959 . S
H1996 C2011 0.959 . S
H1997 C2011 0.961 . S
H1998 C2012 0.960 . S
H1999 C2012 0.961 . S
H2000 C2012 0.959 . S
H2001 C2015 0.929 . S
H2002 C2016 0.931 . S
H2003 C2018 0.930 . S
C2004 H1992 0.930 . S
C2004 C2005 1.399 . S
C2004 C2009 1.399 . S
C2005 C2004 1.399 . S
C2005 C2006 1.376 . S
C2006 H1993 0.930 . S
C2006 C2005 1.376 . S
C2006 C2007 1.388 . S
C2007 H1994 0.930 . S
C2007 C2006 1.388 . S
C2007 C2008 1.390 . S
C2008 C2007 1.390 . S
C2008 C2009 1.394 . S
C2008 C2014 1.465 . S
C2009 C2004 1.399 . S
C2009 C2008 1.394 . S
C2009 C2010 1.516 . S
C2010 C2009 1.516 . S
C2010 C2011 1.502 . S
C2010 C2012 1.561 . S
C2010 C2013 1.526 . S
C2011 H1995 0.959 . S
C2011 H1996 0.959 . S
C2011 H1997 0.961 . S
C2011 C2010 1.502 . S
C2012 H1998 0.960 . S
C2012 H1999 0.961 . S
C2012 H2000 0.959 . S
C2012 C2010 1.561 . S
C2013 C2010 1.526 . S
C2013 C2014 1.396 . S
C2013 C2018 1.390 . S
C2014 C2008 1.465 . S
C2014 C2013 1.396 . S
C2014 C2015 1.399 . S
C2015 H2001 0.929 . S
C2015 C2014 1.399 . S
C2015 C2016 1.385 . S
C2016 H2002 0.931 . S
C2016 C2015 1.385 . S
C2016 C2017 1.389 . S
C2017 C2016 1.389 . S
C2017 C2018 1.387 . S
C2018 H2003 0.930 . S
C2018 C2013 1.390 . S
C2018 C2017 1.387 . S
H2019 C2031 0.930 . S
H2020 C2033 0.930 1_554 S
H2021 C2034 0.970 . S
H2022 C2038 0.959 . S
H2023 C2038 0.959 . S
H2024 C2038 0.961 . S
H2025 C2039 0.960 . S
H2026 C2039 0.961 . S
H2027 C2039 0.959 . S
H2028 C2042 0.937 . S
H2029 C2043 0.931 . S
H2030 C2045 0.930 . S
C2031 H2019 0.930 . S
C2031 C2032 1.399 . S
C2031 C2036 1.399 . S
C2032 C2031 1.399 . S
C2032 C2033 1.376 . S
C2033 H2020 0.930 1_556 S
C2033 C2032 1.376 . S
C2033 C2034 1.388 . S
C2034 H2021 0.970 . S
C2034 C2033 1.388 . S
C2034 C2035 1.390 . S
C2035 C2034 1.390 . S
C2035 C2036 1.394 . S
C2035 C2041 1.465 . S
C2036 C2031 1.399 . S
C2036 C2035 1.394 . S
C2036 C2037 1.516 . S
C2037 C2036 1.516 . S
C2037 C2038 1.502 . S
C2037 C2039 1.561 . S
C2037 C2040 1.526 . S
C2038 H2022 0.959 . S
C2038 H2023 0.959 . S
C2038 H2024 0.961 . S
C2038 C2037 1.502 . S
C2039 H2025 0.960 . S
C2039 H2026 0.961 . S
C2039 H2027 0.959 . S
C2039 C2037 1.561 . S
C2040 C2037 1.526 . S
C2040 C2041 1.396 . S
C2040 C2045 1.390 . S
C2041 C2035 1.465 . S
C2041 C2040 1.396 . S
C2041 C2042 1.390 1_655 S
C2042 H2028 0.937 . S
C2042 C2041 1.390 1_455 S
C2042 C2043 1.386 . S
C2043 H2029 0.931 . S
C2043 C2042 1.386 . S
C2043 C2044 1.389 1_455 S
C2044 C2043 1.389 1_655 S
C2044 C2045 1.387 . S
C2045 H2030 0.930 . S
C2045 C2040 1.390 . S
C2045 C2044 1.387 . S
H2046 C2058 0.930 . S
H2047 C2060 0.930 . S
H2048 C2061 0.930 . S
H2049 C2065 0.959 . S
H2050 C2065 0.959 . S
H2051 C2065 0.961 . S
H2052 C2066 0.960 . S
H2053 C2066 0.961 . S
H2054 C2066 0.959 . S
H2055 C2069 0.929 . S
H2056 C2070 0.931 . S
H2057 C2072 0.930 . S
C2058 H2046 0.930 . S
C2058 C2059 1.399 . S
C2058 C2063 1.399 . S
C2059 C2058 1.399 . S
C2059 C2060 1.376 . S
C2060 H2047 0.930 . S
C2060 C2059 1.376 . S
C2060 C2061 1.388 . S
C2061 H2048 0.930 . S
C2061 C2060 1.388 . S
C2061 C2062 1.390 . S
C2062 C2061 1.390 . S
C2062 C2063 1.394 . S
C2062 C2068 1.465 . S
C2063 C2058 1.399 . S
C2063 C2062 1.394 . S
C2063 C2064 1.516 . S
C2064 C2063 1.516 . S
C2064 C2065 1.502 . S
C2064 C2066 1.561 . S
C2064 C2067 1.526 . S
C2065 H2049 0.959 . S
C2065 H2050 0.959 . S
C2065 H2051 0.961 . S
C2065 C2064 1.502 . S
C2066 H2052 0.960 . S
C2066 H2053 0.961 . S
C2066 H2054 0.959 . S
C2066 C2064 1.561 . S
C2067 C2064 1.526 . S
C2067 C2068 1.396 . S
C2067 C2072 1.390 . S
C2068 C2062 1.465 . S
C2068 C2067 1.396 . S
C2068 C2069 1.399 . S
C2069 H2055 0.929 . S
C2069 C2068 1.399 . S
C2069 C2070 1.385 . S
C2070 H2056 0.931 . S
C2070 C2069 1.385 . S
C2070 C2071 1.389 . S
C2071 C2070 1.389 . S
C2071 C2072 1.387 . S
C2072 H2057 0.930 . S
C2072 C2067 1.390 . S
C2072 C2071 1.387 . S
H2073 C2085 0.930 . S
H2074 C2087 0.930 1_554 S
H2075 C2088 0.930 . S
H2076 C2092 0.959 . S
H2077 C2092 0.959 . S
H2078 C2092 0.961 . S
H2079 C2093 0.960 . S
H2080 C2093 0.961 . S
H2081 C2093 0.959 1_655 S
H2082 C2096 0.910 1_655 S
H2083 C2097 0.928 1_655 S
H2084 C2099 0.930 . S
C2085 H2073 0.930 . S
C2085 C2086 1.399 . S
C2085 C2090 1.399 . S
C2086 C2085 1.399 . S
C2086 C2087 1.376 . S
C2087 H2074 0.930 1_556 S
C2087 C2086 1.376 . S
C2087 C2088 1.388 . S
C2088 H2075 0.930 . S
C2088 C2087 1.388 . S
C2088 C2089 1.390 . S
C2089 C2088 1.390 . S
C2089 C2090 1.394 . S
C2089 C2095 1.465 . S
C2090 C2085 1.399 . S
C2090 C2089 1.394 . S
C2090 C2091 1.516 . S
C2091 C2090 1.516 . S
C2091 C2092 1.502 . S
C2091 C2093 1.561 . S
C2091 C2094 1.526 . S
C2092 H2076 0.959 . S
C2092 H2077 0.959 . S
C2092 H2078 0.961 . S
C2092 C2091 1.502 . S
C2093 H2079 0.960 . S
C2093 H2080 0.961 . S
C2093 H2081 0.959 1_455 S
C2093 C2091 1.561 . S
C2094 C2091 1.526 . S
C2094 C2095 1.396 . S
C2094 C2099 1.390 . S
C2095 C2089 1.465 . S
C2095 C2094 1.396 . S
C2095 C2096 1.399 . S
C2096 H2082 0.910 1_455 S
C2096 C2095 1.399 . S
C2096 C2097 1.385 . S
C2097 H2083 0.928 1_455 S
C2097 C2096 1.385 . S
C2097 C2098 1.389 . S
C2098 C2097 1.389 . S
C2098 C2099 1.387 . S
C2099 H2084 0.930 . S
C2099 C2094 1.390 . S
C2099 C2098 1.387 . S
H2100 C2112 0.930 . S
H2101 C2114 0.930 . S
H2102 C2115 0.930 . S
H2103 C2119 0.959 . S
H2104 C2119 0.959 . S
H2105 C2119 0.961 . S
H2106 C2120 0.960 . S
H2107 C2120 0.961 . S
H2108 C2120 0.959 . S
H2109 C2123 0.929 . S
H2110 C2124 0.931 . S
H2111 C2126 0.930 . S
C2112 H2100 0.930 . S
C2112 C2113 1.399 . S
C2112 C2117 1.399 . S
C2113 C2112 1.399 . S
C2113 C2114 1.376 . S
C2114 H2101 0.930 . S
C2114 C2113 1.376 . S
C2114 C2115 1.388 . S
C2115 H2102 0.930 . S
C2115 C2114 1.388 . S
C2115 C2116 1.390 . S
C2116 C2115 1.390 . S
C2116 C2117 1.394 . S
C2116 C2122 1.465 . S
C2117 C2112 1.399 . S
C2117 C2116 1.394 . S
C2117 C2118 1.516 . S
C2118 C2117 1.516 . S
C2118 C2119 1.502 . S
C2118 C2120 1.561 . S
C2118 C2121 1.526 . S
C2119 H2103 0.959 . S
C2119 H2104 0.959 . S
C2119 H2105 0.961 . S
C2119 C2118 1.502 . S
C2120 H2106 0.960 . S
C2120 H2107 0.961 . S
C2120 H2108 0.959 . S
C2120 C2118 1.561 . S
C2121 C2118 1.526 . S
C2121 C2122 1.396 . S
C2121 C2126 1.390 . S
C2122 C2116 1.465 . S
C2122 C2121 1.396 . S
C2122 C2123 1.399 . S
C2123 H2109 0.929 . S
C2123 C2122 1.399 . S
C2123 C2124 1.385 . S
C2124 H2110 0.931 . S
C2124 C2123 1.385 . S
C2124 C2125 1.389 . S
C2125 C2124 1.389 . S
C2125 C2126 1.387 . S
C2126 H2111 0.930 . S
C2126 C2121 1.390 . S
C2126 C2125 1.387 . S
H2127 C2139 0.930 . S
H2128 C2141 0.930 . S
H2129 C2142 0.930 . S
H2130 C2146 0.959 . S
H2131 C2146 0.959 . S
H2132 C2146 0.961 . S
H2133 C2147 0.960 . S
H2134 C2147 0.961 . S
H2135 C2147 0.959 . S
H2136 C2150 0.929 . S
H2137 C2151 0.931 . S
H2138 C2153 0.930 . S
C2139 H2127 0.930 . S
C2139 C2140 1.399 . S
C2139 C2144 1.399 . S
C2140 C2139 1.399 . S
C2140 C2141 1.376 . S
C2141 H2128 0.930 . S
C2141 C2140 1.376 . S
C2141 C2142 1.388 . S
C2142 H2129 0.930 . S
C2142 C2141 1.388 . S
C2142 C2143 1.390 . S
C2143 C2142 1.390 . S
C2143 C2144 1.394 . S
C2143 C2149 1.465 . S
C2144 C2139 1.399 . S
C2144 C2143 1.394 . S
C2144 C2145 1.516 . S
C2145 C2144 1.516 . S
C2145 C2146 1.502 . S
C2145 C2147 1.561 . S
C2145 C2148 1.526 . S
C2146 H2130 0.959 . S
C2146 H2131 0.959 . S
C2146 H2132 0.961 . S
C2146 C2145 1.502 . S
C2147 H2133 0.960 . S
C2147 H2134 0.961 . S
C2147 H2135 0.959 . S
C2147 C2145 1.561 . S
C2148 C2145 1.526 . S
C2148 C2149 1.396 . S
C2148 C2153 1.390 . S
C2149 C2143 1.465 . S
C2149 C2148 1.396 . S
C2149 C2150 1.399 . S
C2150 H2136 0.929 . S
C2150 C2149 1.399 . S
C2150 C2151 1.385 . S
C2151 H2137 0.931 . S
C2151 C2150 1.385 . S
C2151 C2152 1.389 . S
C2152 C2151 1.389 . S
C2152 C2153 1.387 . S
C2153 H2138 0.930 . S
C2153 C2148 1.390 . S
C2153 C2152 1.387 . S
H2154 C2166 0.930 . S
H2155 C2168 0.930 . S
H2156 C2169 0.930 . S
H2157 C2173 0.959 . S
H2158 C2173 0.959 . S
H2159 C2173 0.961 . S
H2160 C2174 0.960 . S
H2161 C2174 0.961 . S
H2162 C2174 0.959 . S
H2163 C2177 0.929 . S
H2164 C2178 0.931 . S
H2165 C2180 0.930 . S
C2166 H2154 0.930 . S
C2166 C2167 1.399 . S
C2166 C2171 1.399 . S
C2167 C2166 1.399 . S
C2167 C2168 1.376 . S
C2168 H2155 0.930 . S
C2168 C2167 1.376 . S
C2168 C2169 1.388 . S
C2169 H2156 0.930 . S
C2169 C2168 1.388 . S
C2169 C2170 1.390 . S
C2170 C2169 1.390 . S
C2170 C2171 1.394 . S
C2170 C2176 1.465 . S
C2171 C2166 1.399 . S
C2171 C2170 1.394 . S
C2171 C2172 1.516 . S
C2172 C2171 1.516 . S
C2172 C2173 1.502 . S
C2172 C2174 1.561 . S
C2172 C2175 1.526 . S
C2173 H2157 0.959 . S
C2173 H2158 0.959 . S
C2173 H2159 0.961 . S
C2173 C2172 1.502 . S
C2174 H2160 0.960 . S
C2174 H2161 0.961 . S
C2174 H2162 0.959 . S
C2174 C2172 1.561 . S
C2175 C2172 1.526 . S
C2175 C2176 1.396 . S
C2175 C2180 1.390 . S
C2176 C2170 1.465 . S
C2176 C2175 1.396 . S
C2176 C2177 1.399 . S
C2177 H2163 0.929 . S
C2177 C2176 1.399 . S
C2177 C2178 1.385 . S
C2178 H2164 0.931 . S
C2178 C2177 1.385 . S
C2178 C2179 1.389 . S
C2179 C2178 1.389 . S
C2179 C2180 1.387 . S
C2180 H2165 0.930 . S
C2180 C2175 1.390 . S
C2180 C2179 1.387 . S
H2181 C2193 0.930 . S
H2182 C2195 0.930 . S
H2183 C2196 0.930 . S
H2184 C2200 0.959 . S
H2185 C2200 0.959 . S
H2186 C2200 0.961 . S
H2187 C2201 0.960 . S
H2188 C2201 0.961 . S
H2189 C2201 0.959 . S
H2190 C2204 0.929 . S
H2191 C2205 0.931 . S
H2192 C2207 0.930 . S
C2193 H2181 0.930 . S
C2193 C2194 1.399 . S
C2193 C2198 1.399 . S
C2194 C2193 1.399 . S
C2194 C2195 1.376 . S
C2195 H2182 0.930 . S
C2195 C2194 1.376 . S
C2195 C2196 1.388 . S
C2196 H2183 0.930 . S
C2196 C2195 1.388 . S
C2196 C2197 1.390 . S
C2197 C2196 1.390 . S
C2197 C2198 1.394 . S
C2197 C2203 1.465 . S
C2198 C2193 1.399 . S
C2198 C2197 1.394 . S
C2198 C2199 1.516 . S
C2199 C2198 1.516 . S
C2199 C2200 1.502 . S
C2199 C2201 1.561 . S
C2199 C2202 1.526 . S
C2200 H2184 0.959 . S
C2200 H2185 0.959 . S
C2200 H2186 0.961 . S
C2200 C2199 1.502 . S
C2201 H2187 0.960 . S
C2201 H2188 0.961 . S
C2201 H2189 0.959 . S
C2201 C2199 1.561 . S
C2202 C2199 1.526 . S
C2202 C2203 1.396 . S
C2202 C2207 1.390 . S
C2203 C2197 1.465 . S
C2203 C2202 1.396 . S
C2203 C2204 1.399 . S
C2204 H2190 0.929 . S
C2204 C2203 1.399 . S
C2204 C2205 1.385 . S
C2205 H2191 0.931 . S
C2205 C2204 1.385 . S
C2205 C2206 1.389 . S
C2206 C2205 1.389 . S
C2206 C2207 1.387 . S
C2207 H2192 0.930 . S
C2207 C2202 1.390 . S
C2207 C2206 1.387 . S
H2208 C2220 0.930 . S
H2209 C2222 0.930 . S
H2210 C2223 0.930 . S
H2211 C2227 0.959 . S
H2212 C2227 0.959 . S
H2213 C2227 0.961 . S
H2214 C2228 0.960 . S
H2215 C2228 0.961 . S
H2216 C2228 0.959 . S
H2217 C2231 0.929 . S
H2218 C2232 0.931 . S
H2219 C2234 0.930 . S
C2220 H2208 0.930 . S
C2220 C2221 1.399 . S
C2220 C2225 1.399 . S
C2221 C2220 1.399 . S
C2221 C2222 1.376 . S
C2222 H2209 0.930 . S
C2222 C2221 1.376 . S
C2222 C2223 1.388 . S
C2223 H2210 0.930 . S
C2223 C2222 1.388 . S
C2223 C2224 1.390 . S
C2224 C2223 1.390 . S
C2224 C2225 1.394 . S
C2224 C2230 1.465 . S
C2225 C2220 1.399 . S
C2225 C2224 1.394 . S
C2225 C2226 1.516 . S
C2226 C2225 1.516 . S
C2226 C2227 1.502 . S
C2226 C2228 1.561 . S
C2226 C2229 1.526 . S
C2227 H2211 0.959 . S
C2227 H2212 0.959 . S
C2227 H2213 0.961 . S
C2227 C2226 1.502 . S
C2228 H2214 0.960 . S
C2228 H2215 0.961 . S
C2228 H2216 0.959 . S
C2228 C2226 1.561 . S
C2229 C2226 1.526 . S
C2229 C2230 1.396 . S
C2229 C2234 1.390 . S
C2230 C2224 1.465 . S
C2230 C2229 1.396 . S
C2230 C2231 1.399 . S
C2231 H2217 0.929 . S
C2231 C2230 1.399 . S
C2231 C2232 1.385 . S
C2232 H2218 0.931 . S
C2232 C2231 1.385 . S
C2232 C2233 1.389 . S
C2233 C2232 1.389 . S
C2233 C2234 1.387 . S
C2234 H2219 0.930 . S
C2234 C2229 1.390 . S
C2234 C2233 1.387 . S
H2235 C2247 0.930 . S
H2236 C2249 0.930 . S
H2237 C2250 0.930 . S
H2238 C2254 0.959 . S
H2239 C2254 0.959 . S
H2240 C2254 0.961 . S
H2241 C2255 0.960 . S
H2242 C2255 0.961 . S
H2243 C2255 0.959 . S
H2244 C2258 0.929 . S
H2245 C2259 0.931 . S
H2246 C2261 0.930 . S
C2247 H2235 0.930 . S
C2247 C2248 1.399 . S
C2247 C2252 1.399 . S
C2248 C2247 1.399 . S
C2248 C2249 1.376 . S
C2249 H2236 0.930 . S
C2249 C2248 1.376 . S
C2249 C2250 1.388 . S
C2250 H2237 0.930 . S
C2250 C2249 1.388 . S
C2250 C2251 1.390 . S
C2251 C2250 1.390 . S
C2251 C2252 1.394 . S
C2251 C2257 1.465 . S
C2252 C2247 1.399 . S
C2252 C2251 1.394 . S
C2252 C2253 1.516 . S
C2253 C2252 1.516 . S
C2253 C2254 1.502 . S
C2253 C2255 1.561 . S
C2253 C2256 1.526 . S
C2254 H2238 0.959 . S
C2254 H2239 0.959 . S
C2254 H2240 0.961 . S
C2254 C2253 1.502 . S
C2255 H2241 0.960 . S
C2255 H2242 0.961 . S
C2255 H2243 0.959 . S
C2255 C2253 1.561 . S
C2256 C2253 1.526 . S
C2256 C2257 1.396 . S
C2256 C2261 1.390 . S
C2257 C2251 1.465 . S
C2257 C2256 1.396 . S
C2257 C2258 1.399 . S
C2258 H2244 0.929 . S
C2258 C2257 1.399 . S
C2258 C2259 1.385 . S
C2259 H2245 0.931 . S
C2259 C2258 1.385 . S
C2259 C2260 1.389 . S
C2260 C2259 1.389 . S
C2260 C2261 1.387 . S
C2261 H2246 0.930 . S
C2261 C2256 1.390 . S
C2261 C2260 1.387 . S
H2262 C2274 0.930 . S
H2263 C2276 0.930 . S
H2264 C2277 0.930 . S
H2265 C2281 0.959 . S
H2266 C2281 0.959 . S
H2267 C2281 0.961 . S
H2268 C2282 0.960 . S
H2269 C2282 0.961 . S
H2270 C2282 0.959 . S
H2271 C2285 0.929 . S
H2272 C2286 0.931 . S
H2273 C2288 0.930 . S
C2274 H2262 0.930 . S
C2274 C2275 1.399 . S
C2274 C2279 1.399 . S
C2275 C2274 1.399 . S
C2275 C2276 1.376 . S
C2276 H2263 0.930 . S
C2276 C2275 1.376 . S
C2276 C2277 1.388 . S
C2277 H2264 0.930 . S
C2277 C2276 1.388 . S
C2277 C2278 1.390 . S
C2278 C2277 1.390 . S
C2278 C2279 1.394 . S
C2278 C2284 1.465 . S
C2279 C2274 1.399 . S
C2279 C2278 1.394 . S
C2279 C2280 1.516 . S
C2280 C2279 1.516 . S
C2280 C2281 1.502 . S
C2280 C2282 1.561 . S
C2280 C2283 1.526 . S
C2281 H2265 0.959 . S
C2281 H2266 0.959 . S
C2281 H2267 0.961 . S
C2281 C2280 1.502 . S
C2282 H2268 0.960 . S
C2282 H2269 0.961 . S
C2282 H2270 0.959 . S
C2282 C2280 1.561 . S
C2283 C2280 1.526 . S
C2283 C2284 1.396 . S
C2283 C2288 1.390 . S
C2284 C2278 1.465 . S
C2284 C2283 1.396 . S
C2284 C2285 1.399 . S
C2285 H2271 0.929 . S
C2285 C2284 1.399 . S
C2285 C2286 1.385 . S
C2286 H2272 0.931 . S
C2286 C2285 1.385 . S
C2286 C2287 1.389 . S
C2287 C2286 1.389 . S
C2287 C2288 1.387 . S
C2288 H2273 0.930 . S
C2288 C2283 1.390 . S
C2288 C2287 1.387 . S
H2289 C2301 0.930 . S
H2290 C2303 0.930 . S
H2291 C2304 0.930 . S
H2292 C2308 0.959 . S
H2293 C2308 0.959 . S
H2294 C2308 0.961 . S
H2295 C2309 0.960 . S
H2296 C2309 0.961 . S
H2297 C2309 0.959 . S
H2298 C2312 0.929 . S
H2299 C2313 0.931 . S
H2300 C2315 0.930 . S
C2301 H2289 0.930 . S
C2301 C2302 1.399 . S
C2301 C2306 1.399 . S
C2302 C2301 1.399 . S
C2302 C2303 1.376 . S
C2303 H2290 0.930 . S
C2303 C2302 1.376 . S
C2303 C2304 1.388 . S
C2304 H2291 0.930 . S
C2304 C2303 1.388 . S
C2304 C2305 1.390 . S
C2305 C2304 1.390 . S
C2305 C2306 1.394 . S
C2305 C2311 1.465 . S
C2306 C2301 1.399 . S
C2306 C2305 1.394 . S
C2306 C2307 1.516 . S
C2307 C2306 1.516 . S
C2307 C2308 1.502 . S
C2307 C2309 1.561 . S
C2307 C2310 1.526 . S
C2308 H2292 0.959 . S
C2308 H2293 0.959 . S
C2308 H2294 0.961 . S
C2308 C2307 1.502 . S
C2309 H2295 0.960 . S
C2309 H2296 0.961 . S
C2309 H2297 0.959 . S
C2309 C2307 1.561 . S
C2310 C2307 1.526 . S
C2310 C2311 1.396 . S
C2310 C2315 1.390 . S
C2311 C2305 1.465 . S
C2311 C2310 1.396 . S
C2311 C2312 1.399 . S
C2312 H2298 0.929 . S
C2312 C2311 1.399 . S
C2312 C2313 1.385 . S
C2313 H2299 0.931 . S
C2313 C2312 1.385 . S
C2313 C2314 1.389 . S
C2314 C2313 1.389 . S
C2314 C2315 1.387 . S
C2315 H2300 0.930 . S
C2315 C2310 1.390 . S
C2315 C2314 1.387 . S
H2316 C2328 0.930 . S
H2317 C2330 0.930 1_554 S
H2318 C2331 0.930 . S
H2319 C2335 0.959 . S
H2320 C2335 0.959 . S
H2321 C2335 0.961 . S
H2322 C2336 0.960 . S
H2323 C2336 0.961 . S
H2324 C2336 0.959 . S
H2325 C2339 0.929 . S
H2326 C2340 0.931 . S
H2327 C2342 0.930 . S
C2328 H2316 0.930 . S
C2328 C2329 1.399 . S
C2328 C2333 1.399 . S
C2329 C2328 1.399 . S
C2329 C2330 1.376 . S
C2330 H2317 0.930 1_556 S
C2330 C2329 1.376 . S
C2330 C2331 1.388 1_556 S
C2331 H2318 0.930 . S
C2331 C2330 1.388 1_554 S
C2331 C2332 1.390 1_554 S
C2332 C2331 1.390 1_556 S
C2332 C2333 1.394 . S
C2332 C2338 1.465 . S
C2333 C2328 1.399 . S
C2333 C2332 1.394 . S
C2333 C2334 1.516 . S
C2334 C2333 1.516 . S
C2334 C2335 1.502 . S
C2334 C2336 1.561 . S
C2334 C2337 1.526 . S
C2335 H2319 0.959 . S
C2335 H2320 0.959 . S
C2335 H2321 0.961 . S
C2335 C2334 1.502 . S
C2336 H2322 0.960 . S
C2336 H2323 0.961 . S
C2336 H2324 0.959 . S
C2336 C2334 1.561 . S
C2337 C2334 1.526 . S
C2337 C2338 1.396 . S
C2337 C2342 1.390 . S
C2338 C2332 1.465 . S
C2338 C2337 1.396 . S
C2338 C2339 1.399 1_556 S
C2339 H2325 0.929 . S
C2339 C2338 1.399 1_554 S
C2339 C2340 1.385 . S
C2340 H2326 0.931 . S
C2340 C2339 1.385 . S
C2340 C2341 1.389 1_554 S
C2341 C2340 1.389 1_556 S
C2341 C2342 1.387 . S
C2342 H2327 0.930 . S
C2342 C2337 1.390 . S
C2342 C2341 1.387 . S
H2343 C2355 0.930 . S
H2344 C2357 0.930 . S
H2345 C2358 0.930 . S
H2346 C2362 0.959 . S
H2347 C2362 0.959 . S
H2348 C2362 0.961 . S
H2349 C2363 0.960 . S
H2350 C2363 0.961 . S
H2351 C2363 0.959 . S
H2352 C2366 0.929 . S
H2353 C2367 0.931 . S
H2354 C2369 0.930 . S
C2355 H2343 0.930 . S
C2355 C2356 1.399 . S
C2355 C2360 1.399 . S
C2356 C2355 1.399 . S
C2356 C2357 1.376 . S
C2357 H2344 0.930 . S
C2357 C2356 1.376 . S
C2357 C2358 1.388 . S
C2358 H2345 0.930 . S
C2358 C2357 1.388 . S
C2358 C2359 1.390 . S
C2359 C2358 1.390 . S
C2359 C2360 1.394 . S
C2359 C2365 1.465 . S
C2360 C2355 1.399 . S
C2360 C2359 1.394 . S
C2360 C2361 1.516 . S
C2361 C2360 1.516 . S
C2361 C2362 1.502 . S
C2361 C2363 1.561 . S
C2361 C2364 1.526 . S
C2362 H2346 0.959 . S
C2362 H2347 0.959 . S
C2362 H2348 0.961 . S
C2362 C2361 1.502 . S
C2363 H2349 0.960 . S
C2363 H2350 0.961 . S
C2363 H2351 0.959 . S
C2363 C2361 1.561 . S
C2364 C2361 1.526 . S
C2364 C2365 1.396 . S
C2364 C2369 1.390 . S
C2365 C2359 1.465 . S
C2365 C2364 1.396 . S
C2365 C2366 1.399 . S
C2366 H2352 0.929 . S
C2366 C2365 1.399 . S
C2366 C2367 1.385 . S
C2367 H2353 0.931 . S
C2367 C2366 1.385 . S
C2367 C2368 1.389 . S
C2368 C2367 1.389 . S
C2368 C2369 1.387 . S
C2369 H2354 0.930 . S
C2369 C2364 1.390 . S
C2369 C2368 1.387 . S
H2370 C2382 0.930 . S
H2371 C2384 0.930 . S
H2372 C2385 0.930 1_556 S
H2373 C2389 0.959 . S
H2374 C2389 0.959 . S
H2375 C2389 0.961 . S
H2376 C2390 0.960 . S
H2377 C2390 0.961 . S
H2378 C2390 0.959 . S
H2379 C2393 0.925 . S
H2380 C2394 0.975 . S
H2381 C2396 0.930 . S
C2382 H2370 0.930 . S
C2382 C2383 1.399 . S
C2382 C2387 1.399 . S
C2383 C2382 1.399 . S
C2383 C2384 1.376 . S
C2384 H2371 0.930 . S
C2384 C2383 1.376 . S
C2384 C2385 1.388 . S
C2385 H2372 0.930 1_554 S
C2385 C2384 1.388 . S
C2385 C2386 1.390 . S
C2386 C2385 1.390 . S
C2386 C2387 1.394 . S
C2386 C2392 1.465 . S
C2387 C2382 1.399 . S
C2387 C2386 1.394 . S
C2387 C2388 1.516 . S
C2388 C2387 1.516 . S
C2388 C2389 1.502 . S
C2388 C2390 1.561 . S
C2388 C2391 1.526 . S
C2389 H2373 0.959 . S
C2389 H2374 0.959 . S
C2389 H2375 0.961 . S
C2389 C2388 1.502 . S
C2390 H2376 0.960 . S
C2390 H2377 0.961 . S
C2390 H2378 0.959 . S
C2390 C2388 1.561 . S
C2391 C2388 1.526 . S
C2391 C2392 1.396 . S
C2391 C2396 1.390 . S
C2392 C2386 1.465 . S
C2392 C2391 1.396 . S
C2392 C2393 1.403 1_554 S
C2393 H2379 0.925 . S
C2393 C2392 1.403 1_556 S
C2393 C2394 1.384 . S
C2394 H2380 0.975 . S
C2394 C2393 1.384 . S
C2394 C2395 1.349 1_556 S
C2395 C2394 1.349 1_554 S
C2395 C2396 1.387 . S
C2396 H2381 0.930 . S
C2396 C2391 1.390 . S
C2396 C2395 1.387 . S
H2397 C2409 0.930 1_556 S
H2398 C2411 0.930 . S
H2399 C2412 0.930 . S
H2400 C2416 0.959 . S
H2401 C2416 0.959 . S
H2402 C2416 0.961 . S
H2403 C2417 0.960 . S
H2404 C2417 0.961 . S
H2405 C2417 0.959 . S
H2406 C2420 0.929 . S
H2407 C2421 0.931 . S
H2408 C2423 0.930 1_556 S
C2409 H2397 0.930 1_554 S
C2409 C2410 1.399 . S
C2409 C2414 1.399 . S
C2410 C2409 1.399 . S
C2410 C2411 1.376 . S
C2411 H2398 0.930 . S
C2411 C2410 1.376 . S
C2411 C2412 1.388 . S
C2412 H2399 0.930 . S
C2412 C2411 1.388 . S
C2412 C2413 1.390 . S
C2413 C2412 1.390 . S
C2413 C2414 1.394 . S
C2413 C2419 1.465 . S
C2414 C2409 1.399 . S
C2414 C2413 1.394 . S
C2414 C2415 1.516 1_554 S
C2415 C2414 1.516 1_556 S
C2415 C2416 1.502 . S
C2415 C2417 1.561 . S
C2415 C2418 1.526 1_556 S
C2416 H2400 0.959 . S
C2416 H2401 0.959 . S
C2416 H2402 0.961 . S
C2416 C2415 1.502 . S
C2417 H2403 0.960 . S
C2417 H2404 0.961 . S
C2417 H2405 0.959 . S
C2417 C2415 1.561 . S
C2418 C2415 1.526 1_554 S
C2418 C2419 1.396 . S
C2418 C2423 1.390 . S
C2419 C2413 1.465 . S
C2419 C2418 1.396 . S
C2419 C2420 1.399 . S
C2420 H2406 0.929 . S
C2420 C2419 1.399 . S
C2420 C2421 1.385 . S
C2421 H2407 0.931 . S
C2421 C2420 1.385 . S
C2421 C2422 1.389 . S
C2422 C2421 1.389 . S
C2422 C2423 1.387 . S
C2423 H2408 0.930 1_554 S
C2423 C2418 1.390 . S
C2423 C2422 1.387 . S
C1153 C968 1.470 . S
C1141 C331 1.475 . S
C1180 C981 1.490 . S
C1168 C380 1.457 . S
C1195 C421 1.642 . S
C1207 C1001 1.563 . S
C1234 C1015 1.345 . S
C1222 C260 1.419 1_655 S
C1261 C1027 1.497 . S
C1249 C620 1.464 . S
C1288 C1041 1.412 . S
C1276 C740 1.423 . S
C1303 C680 1.456 . S
C1315 C1051 1.472 . S
C1342 C1066 1.475 . S
C1330 C571 1.508 . S
C1357 C691 1.461 . S
C1369 C1080 1.512 . S
C1396 C1099 1.353 . S
C1384 C541 1.401 . S
C1411 C601 1.486 . S
C1423 C1079 1.459 . S
C1450 C1097 1.409 . S
C1438 C721 1.428 . S
C1465 C451 1.653 . S
C1477 C1113 1.492 . S
C1492 C241 1.486 . S
C1504 C1107 1.486 . S
C1519 C320 1.509 . S
C1531 C1111 1.513 . S
C1546 C391 1.528 . S
C1558 C1108 1.517 . S
C1573 C211 1.473 . S
C1585 C1010 1.468 . S
C1600 C841 1.456 . S
C1612 C1009 1.481 . S
C1639 C973 1.350 . S
C1627 C901 1.399 . S
C1666 C987 1.563 . S
C1654 C500 1.614 . S
C1681 C271 1.482 1_545 S
C1693 C1024 1.480 . S
C1720 C1069 1.508 . S
C1708 C661 1.509 . S
C1747 C1023 1.469 . S
C1735 C560 1.425 . S
C1774 C1055 1.421 . S
C1762 C751 1.393 . S
C1801 C1052 1.459 . S
C1789 C871 1.465 . S
C1816 C920 1.424 . S
C1828 C1065 1.470 . S
C1843 C481 1.643 . S
C1855 C1029 1.560 . S
C1882 C1043 1.347 . S
C1870 C800 1.418 . S
C1897 C200 1.497 . S
C1909 C999 1.519 . S
C1936 C1013 1.420 . S
C1924 C20 1.395 . S
C1963 C967 1.483 . S
C1951 C80 1.480 . S
C1990 C982 1.478 . S
C1978 C151 1.518 . S
C2005 C91 1.513 . S
C2017 C1094 1.462 . S
C2032 C121 1.429 . S
C2044 C1085 1.396 . S
C2059 C181 1.485 . S
C2071 C1093 1.460 . S
C2086 C1 1.381 . S
C2098 C1083 1.428 . S
C2125 C1127 1.518 . S
C2113 C511 1.654 . S
C2152 C1121 1.486 . S
C2140 C781 1.486 . S
C2179 C1125 1.511 . S
C2167 C860 1.507 . S
C2194 C931 1.472 . S
C2206 C1122 1.493 . S
C2221 C631 1.509 . S
C2233 C1038 1.506 . S
C2260 C1037 1.460 . S
C2248 C301 1.486 . S
C2287 C1057 1.383 . S
C2275 C361 1.422 . S
C2314 C1071 1.569 . S
C2302 C440 1.615 . S
C2329 C811 1.525 . S
C2341 C996 1.534 . S
C2368 C985 1.503 . S
C2356 C61 1.489 . S
C2383 C140 1.432 . S
C2395 C995 1.465 . S
C2422 C971 1.413 . S
C2410 C31 1.420 . S
