# Generated by pormake.
# Topology pth, (4,4)-cn, num edge types: 1
# Building blocks:
#     Node 0, Type 0, BuildingBlock: AZAVOO_clean_sbu_0, # of connection points: 4
#     Node 1, Type 0, BuildingBlock: AZAVOO_clean_sbu_0, # of connection points: 4
#     Node 2, Type 0, BuildingBlock: AZAVOO_clean_sbu_0, # of connection points: 4
#     Node 3, Type 1, BuildingBlock: MUDLON_clean_linker_0, # of connection points: 4
#     Node 4, Type 1, BuildingBlock: MUDLON_clean_linker_0, # of connection points: 4
#     Node 5, Type 1, BuildingBlock: MUDLON_clean_linker_0, # of connection points: 4
#     Edge 6, Type (0, 1), BuildingBlock: CIFDUS_clean_linker_0, # of connection points: 2
#     Edge 7, Type (0, 1), BuildingBlock: CIFDUS_clean_linker_0, # of connection points: 2
#     Edge 8, Type (0, 1), BuildingBlock: CIFDUS_clean_linker_0, # of connection points: 2
#     Edge 9, Type (0, 1), BuildingBlock: CIFDUS_clean_linker_0, # of connection points: 2
#     Edge 10, Type (0, 1), BuildingBlock: CIFDUS_clean_linker_0, # of connection points: 2
#     Edge 11, Type (0, 1), BuildingBlock: CIFDUS_clean_linker_0, # of connection points: 2
#     Edge 12, Type (0, 1), BuildingBlock: CIFDUS_clean_linker_0, # of connection points: 2
#     Edge 13, Type (0, 1), BuildingBlock: CIFDUS_clean_linker_0, # of connection points: 2
#     Edge 14, Type (0, 1), BuildingBlock: CIFDUS_clean_linker_0, # of connection points: 2
#     Edge 15, Type (0, 1), BuildingBlock: CIFDUS_clean_linker_0, # of connection points: 2
#     Edge 16, Type (0, 1), BuildingBlock: CIFDUS_clean_linker_0, # of connection points: 2
#     Edge 17, Type (0, 1), BuildingBlock: CIFDUS_clean_linker_0, # of connection points: 2
# Relax obj value: 0.078
# Max RMSD: 0.216
# Mean RMSD: 0.136
data_MOF--net-pth--node1-AZAVOO_clean_sbu_0--node2-MUDLON_clean_linker_0--edge1-CIFDUS_clean_linker_0
_symmetry_space_group_name_H-M    P1
_symmetry_Int_Tables_number       1
_symmetry_cell_setting            triclinic
loop_
_symmetry_equiv_pos_as_xyz
'x, y, z'
_cell_length_a     30.197534
_cell_length_b     30.796258
_cell_length_c     61.320635
_cell_angle_alpha  90.980362
_cell_angle_beta   92.588853
_cell_angle_gamma 121.94979
loop_
_atom_site_label
_atom_site_type_symbol
_atom_site_fract_x
_atom_site_fract_y
_atom_site_fract_z
_atom_type_partial_charge
Mg0 Mg 0.14788 0.0465 0.02431 0.0
O1 O 0.07147 0.00825 0.00292 0.0
O2 O 0.06848 0.06879 0.98454 0.0
Mg3 Mg 0.14648 0.14471 -0.00789 0.0
C4 C 0.04817 0.02229 0.98966 0.0
C5 C 0.14494 0.96376 0.05343 0.0
O6 O 0.19526 0.99221 0.05059 0.0
O7 O 0.11876 0.08413 0.04729 0.0
O8 O 0.12432 0.14652 0.02714 0.0
O9 O 0.18799 0.03446 -0.0031 0.0
O10 O 0.1847 0.10374 0.00269 0.0
C11 C 0.11495 0.12326 0.04499 0.0
C12 C 0.19958 0.07933 0.99102 0.0
O13 O 0.11442 0.97567 0.04433 0.0
Mg14 Mg 0.88601 0.93687 0.34436 0.0
O15 O 0.96221 0.97422 0.36582 0.0
O16 O 0.97327 0.04366 0.38342 0.0
Mg17 Mg 0.90224 0.04949 0.37401 0.0
C18 C 0.98879 0.01337 0.37892 0.0
C19 C 0.87733 0.84027 0.32303 0.0
O20 O 0.83059 0.82026 0.33047 0.0
O21 O 0.92487 1.00094 0.32034 0.0
O22 O 0.92791 0.06587 0.33908 0.0
O23 O 0.84013 0.89133 0.37257 0.0
O24 O 0.85574 0.96758 0.36461 0.0
C25 C 0.93533 0.04692 0.32199 0.0
C26 C 0.83542 0.92984 0.3772 0.0
O27 O 0.91014 0.88803 0.32633 0.0
Mg28 Mg 0.97303 0.99151 0.67849 0.0
O29 O 0.03104 0.05857 0.70154 0.0
O30 O 0.98817 0.07452 0.72588 0.0
Mg31 Mg 0.90079 0.01559 0.71824 0.0
C32 C 0.03068 0.08434 0.71792 0.0
C33 C 0.04084 0.98472 0.64243 0.0
O34 O 1.00117 0.93709 0.63991 0.0
O35 O 0.94905 0.04107 0.66072 0.0
O36 O 0.89982 0.0482 0.68492 0.0
O37 O 0.97369 0.93575 0.70145 0.0
O38 O 0.9186 0.9622 0.70217 0.0
C39 C 0.91842 0.05575 0.66608 0.0
C40 C 0.93549 0.93521 0.71053 0.0
O41 O 0.03968 0.01473 0.65651 0.0
H42 H 0.92671 0.63728 0.19659 0.0
N43 N 0.0166 0.6446 0.19053 0.0
H44 H 0.90732 0.67854 0.22586 0.0
H45 H 0.08064 0.69675 0.22725 0.0
H46 H 0.06147 0.73741 0.25661 0.0
H47 H 0.11088 0.73587 0.19295 0.0
H48 H 0.14608 0.79764 0.16449 0.0
H49 H 0.97555 0.63438 0.15021 0.0
H50 H 0.01101 0.69584 0.12132 0.0
H51 H 0.95704 0.54441 0.18245 0.0
H52 H 0.11384 0.66425 0.20396 0.0
H53 H 0.98303 0.48168 0.18386 0.0
H54 H 0.13946 0.6018 0.20693 0.0
H55 H 0.03428 0.29644 0.19148 0.0
H56 H 0.00671 0.22758 0.21625 0.0
H57 H 0.14397 0.32496 0.25926 0.0
H58 H 0.17315 0.39332 0.23333 0.0
H59 H 0.19547 0.36853 0.18052 0.0
H60 H 0.18676 0.31907 0.14713 0.0
H61 H 0.0449 0.31345 0.127 0.0
H62 H 0.05325 0.36215 0.16045 0.0
H63 H 0.03086 0.37271 0.20508 0.0
H64 H 0.00587 0.43548 0.20622 0.0
H65 H 0.15801 0.55061 0.18562 0.0
N66 N 0.12684 0.38955 0.19466 0.0
H67 H 0.18402 0.48784 0.18595 0.0
C68 C 0.00489 0.66371 0.20962 0.0
C69 C 0.95587 0.65832 0.20989 0.0
C70 C 0.94488 0.68182 0.22665 0.0
C71 C 0.98297 0.71147 0.24354 0.0
C72 C 0.03155 0.71537 0.24369 0.0
C73 C 0.04244 0.69173 0.22691 0.0
C74 C 0.04033 0.68045 0.17367 0.0
C75 C 0.08901 0.72649 0.17735 0.0
C76 C 0.10926 0.76178 0.16098 0.0
C77 C 0.08126 0.75173 0.14065 0.0
C78 C 0.03319 0.70503 0.13689 0.0
C79 C 0.01302 0.6698 0.15327 0.0
C80 C 0.03299 0.60875 0.19338 0.0
C81 C 0.99679 0.5569 0.18796 0.0
C82 C 0.01177 0.52111 0.18892 0.0
C83 C 0.06344 0.53641 0.19561 0.0
C84 C 0.09954 0.58853 0.20141 0.0
C85 C 0.08466 0.62441 0.20008 0.0
C86 C 0.10628 0.35024 0.21047 0.0
C87 C 0.05864 0.30323 0.20619 0.0
C88 C 0.04259 0.26379 0.22055 0.0
C89 C 0.07311 0.27052 0.2398 0.0
C90 C 0.11996 0.31808 0.24439 0.0
C91 C 0.13639 0.35743 0.22979 0.0
C92 C 0.12546 0.3694 0.17302 0.0
C93 C 0.1632 0.35762 0.16865 0.0
C94 C 0.15783 0.32895 0.14976 0.0
C95 C 0.11479 0.31199 0.13471 0.0
C96 C 0.07847 0.32619 0.13837 0.0
C97 C 0.08347 0.35435 0.15744 0.0
C98 C 0.11005 0.42565 0.19571 0.0
C99 C 0.05938 0.41146 0.20112 0.0
C100 C 0.04474 0.44756 0.20151 0.0
C101 C 0.07979 0.4984 0.19601 0.0
C102 C 0.13021 0.51225 0.19043 0.0
C103 C 0.14511 0.47633 0.19042 0.0
H104 H 0.70721 0.10255 0.53128 0.0
N105 N 0.61714 0.00858 0.52199 0.0
H106 H 0.76705 0.12697 0.56384 0.0
H107 H 0.60286 0.9556 0.55742 0.0
H108 H 0.66149 0.98086 0.59051 0.0
H109 H 0.6091 0.92194 0.50845 0.0
H110 H 0.65069 0.90886 0.47775 0.0
H111 H 0.68284 0.08166 0.49485 0.0
H112 H 0.72717 0.07004 0.46527 0.0
H113 H 0.60073 0.07094 0.54906 0.0
H114 H 0.55997 0.99628 0.48444 0.0
H115 H 0.54192 0.10029 0.54169 0.0
H116 H 0.50303 0.02814 0.47682 0.0
H117 H 0.32618 0.16388 0.52727 0.0
H118 H 0.26336 0.1301 0.5556 0.0
H119 H 0.25672 0.98661 0.55025 0.0
H120 H 0.31763 0.01978 0.52153 0.0
H121 H 0.27291 0.02301 0.48564 0.0
H122 H 0.20936 0.01438 0.45752 0.0
H123 H 0.30343 0.17706 0.44819 0.0
H124 H 0.36697 0.18556 0.47698 0.0
H125 H 0.45456 0.17413 0.51968 0.0
H126 H 0.52423 0.15588 0.52202 0.0
H127 H 0.42104 0.01026 0.48704 0.0
N128 N 0.3571 0.11348 0.5032 0.0
H129 H 0.35319 0.02976 0.48399 0.0
C130 C 0.65095 0.02656 0.54176 0.0
C131 C 0.6971 0.07554 0.54398 0.0
C132 C 0.73108 0.08969 0.56264 0.0
C133 C 0.71872 0.05575 0.57957 0.0
C134 C 0.67161 0.00781 0.57771 0.0
C135 C 0.63827 0.99329 0.55888 0.0
C136 C 0.64296 0.00259 0.50398 0.0
C137 C 0.63478 0.95422 0.49897 0.0
C138 C 0.65896 0.94701 0.48157 0.0
C139 C 0.69227 0.98836 0.46897 0.0
C140 C 0.7011 0.03709 0.47434 0.0
C141 C 0.67639 0.04406 0.49151 0.0
C142 C 0.58762 0.03275 0.517 0.0
C143 C 0.58104 0.06218 0.53296 0.0
C144 C 0.54702 0.07928 0.52873 0.0
C145 C 0.51794 0.06707 0.50857 0.0
C146 C 0.52454 0.03812 0.49259 0.0
C147 C 0.55805 0.02051 0.49687 0.0
C148 C 0.32704 0.09486 0.52227 0.0
C149 C 0.31191 0.12553 0.53256 0.0
C150 C 0.27607 0.10612 0.54877 0.0
C151 C 0.25473 0.05546 0.55511 0.0
C152 C 0.27175 0.02548 0.5455 0.0
C153 C 0.30729 0.04479 0.52918 0.0
C154 C 0.3251 0.10521 0.48347 0.0
C155 C 0.281 0.0567 0.47716 0.0
C156 C 0.24442 0.05177 0.46097 0.0
C157 C 0.25099 0.09511 0.45071 0.0
C158 C 0.29681 0.14303 0.45602 0.0
C159 C 0.33343 0.14792 0.47227 0.0
C160 C 0.3986 0.10358 0.50176 0.0
C161 C 0.44756 0.13878 0.51215 0.0
C162 C 0.48707 0.12801 0.51365 0.0
C163 C 0.47821 0.08133 0.50491 0.0
C164 C 0.42969 0.04689 0.49373 0.0
C165 C 0.39041 0.05796 0.49206 0.0
H166 H 0.72018 0.8047 0.88192 0.0
N167 N 0.68841 0.71103 0.86709 0.0
H168 H 0.78893 0.8567 0.90971 0.0
H169 H 0.73286 0.67503 0.89623 0.0
H170 H 0.79803 0.72506 0.92578 0.0
H171 H 0.78687 0.73783 0.85676 0.0
H172 H 0.83138 0.78321 0.82483 0.0
H173 H 0.64651 0.72973 0.83231 0.0
H174 H 0.6892 0.7715 0.7994 0.0
H175 H 0.5886 0.65989 0.8761 0.0
H176 H 0.71052 0.63875 0.85523 0.0
H177 H 0.52457 0.56828 0.86937 0.0
H178 H 0.64663 0.54741 0.84764 0.0
H179 H 0.3924 0.37072 0.87344 0.0
H180 H 0.35642 0.32487 0.90623 0.0
H181 H 0.38091 0.20567 0.88369 0.0
H182 H 0.41414 0.25089 0.85003 0.0
H183 H 0.40296 0.28282 0.80161 0.0
H184 H 0.32174 0.23905 0.7784 0.0
H185 H 0.26044 0.31138 0.81743 0.0
H186 H 0.33984 0.35209 0.84107 0.0
H187 H 0.41594 0.42293 0.8291 0.0
H188 H 0.48269 0.5114 0.83771 0.0
H189 H 0.58772 0.46621 0.86274 0.0
N190 N 0.42215 0.33777 0.83861 0.0
H191 H 0.5204 0.37652 0.85362 0.0
C192 C 0.7212 0.73609 0.88681 0.0
C193 C 0.73655 0.78695 0.89171 0.0
C194 C 0.7759 0.81662 0.90786 0.0
C195 C 0.80004 0.79569 0.92023 0.0
C196 C 0.78187 0.74337 0.91631 0.0
C197 C 0.74362 0.71414 0.89953 0.0
C198 C 0.7137 0.73181 0.84715 0.0
C199 C 0.76538 0.74518 0.84432 0.0
C200 C 0.79064 0.77068 0.82587 0.0
C201 C 0.76431 0.78206 0.80964 0.0
C202 C 0.71138 0.76508 0.81187 0.0
C203 C 0.68663 0.74072 0.83053 0.0
C204 C 0.65402 0.65608 0.86612 0.0
C205 C 0.60154 0.63521 0.87033 0.0
C206 C 0.565 0.58303 0.86617 0.0
C207 C 0.58024 0.55059 0.85754 0.0
C208 C 0.63351 0.57119 0.85432 0.0
C209 C 0.67012 0.62345 0.85861 0.0
C210 C 0.40564 0.31391 0.85919 0.0
C211 C 0.38999 0.33471 0.8755 0.0
C212 C 0.36992 0.30859 0.89442 0.0
C213 C 0.3658 0.26148 0.8977 0.0
C214 C 0.38275 0.24142 0.88158 0.0
C215 C 0.40223 0.26736 0.86247 0.0
C216 C 0.37821 0.32125 0.82296 0.0
C217 C 0.37236 0.29001 0.80481 0.0
C218 C 0.32583 0.26509 0.79154 0.0
C219 C 0.28411 0.27125 0.79611 0.0
C220 C 0.29113 0.30474 0.81365 0.0
C221 C 0.33715 0.32878 0.8271 0.0
C222 C 0.46235 0.39188 0.84098 0.0
C223 C 0.45281 0.43105 0.83642 0.0
C224 C 0.49137 0.48234 0.8415 0.0
C225 C 0.54033 0.49601 0.85132 0.0
C226 C 0.55055 0.45718 0.85514 0.0
C227 C 0.51208 0.40587 0.84994 0.0
H228 H 0.09268 0.19789 0.04502 0.0
H229 H 0.11679 0.1017 0.08809 0.0
H230 H 0.11639 0.15059 0.11978 0.0
H231 H 0.11718 0.22543 0.13508 0.0
H232 H 0.09389 0.32179 0.09199 0.0
H233 H 0.08601 0.26796 0.06037 0.0
C234 C 0.09727 0.18715 0.06133 0.0
C235 C 0.10547 0.14656 0.06413 0.0
C236 C 0.0978 0.21585 0.07944 0.0
C237 C 0.11055 0.1328 0.08542 0.0
C238 C 0.11071 0.16098 0.10356 0.0
C239 C 0.11037 0.23451 0.11873 0.0
C240 C 0.10693 0.27783 0.11573 0.0
C241 C 0.10583 0.20341 0.10072 0.0
C242 C 0.09685 0.28869 0.09461 0.0
C243 C 0.09245 0.25801 0.07658 0.0
H244 H 0.79415 0.98754 0.38178 0.0
H245 H 0.81542 0.87694 0.41499 0.0
H246 H 0.77265 0.88514 0.44661 0.0
H247 H 0.73164 0.92627 0.46494 0.0
H248 H 0.70676 0.03278 0.42973 0.0
H249 H 0.74955 0.02422 0.39883 0.0
C250 C 0.78963 0.96526 0.39596 0.0
C251 C 0.80839 0.93215 0.39622 0.0
C252 C 0.76474 0.96976 0.41374 0.0
C253 C 0.80134 0.90279 0.41449 0.0
C254 C 0.77704 0.90759 0.43253 0.0
C255 C 0.735 0.94714 0.45042 0.0
C256 C 0.71665 0.98082 0.4499 0.0
C257 C 0.7588 0.94122 0.43236 0.0
C258 C 0.72173 0.00774 0.43093 0.0
C259 C 0.74581 0.00255 0.41312 0.0
H260 H 0.8592 0.93227 0.73306 0.0
H261 H 0.95605 0.86817 0.7307 0.0
H262 H 0.91091 0.81396 0.76095 0.0
H263 H 0.8421 0.78357 0.78733 0.0
H264 H 0.75108 0.85425 0.79064 0.0
H265 H 0.79561 0.9067 0.76043 0.0
C266 C 0.87126 0.90718 0.73928 0.0
C267 C 0.91128 0.90468 0.7297 0.0
C268 C 0.84562 0.87673 0.75666 0.0
C269 C 0.92554 0.87109 0.73787 0.0
C270 C 0.89962 0.83998 0.75511 0.0
C271 C 0.83235 0.81082 0.78164 0.0
C272 C 0.79245 0.81406 0.79115 0.0
C273 C 0.85934 0.84231 0.76455 0.0
C274 C 0.78028 0.84947 0.78331 0.0
C275 C 0.8062 0.88008 0.76615 0.0
H276 H 0.19995 0.93048 0.07622 0.0
H277 H 0.04357 0.89889 0.06326 0.0
H278 H 0.01005 0.82949 0.08848 0.0
H279 H 0.02556 0.78023 0.11536 0.0
H280 H 0.18164 0.81136 0.12836 0.0
H281 H 0.2149 0.87884 0.10209 0.0
C282 C 0.15849 0.90828 0.07882 0.0
C283 C 0.12442 0.92007 0.06791 0.0
C284 C 0.13945 0.86855 0.09345 0.0
C285 C 0.07076 0.89078 0.07146 0.0
C286 C 0.05151 0.85108 0.08591 0.0
C287 C 0.06673 0.80122 0.11221 0.0
C288 C 0.10105 0.79079 0.12383 0.0
C289 C 0.08556 0.83992 0.09712 0.0
C290 C 0.15447 0.81903 0.11982 0.0
C291 C 0.17348 0.85747 0.10475 0.0
H292 H 0.06002 0.09599 0.40514 0.0
H293 H 0.03067 0.95362 0.37608 0.0
H294 H 0.11122 0.96836 0.39432 0.0
H295 H 0.188 0.01959 0.41983 0.0
H296 H 0.21576 0.16053 0.44969 0.0
H297 H 0.1387 0.14897 0.42937 0.0
C298 C 0.07121 0.06818 0.40272 0.0
C299 C 0.03889 0.02353 0.38938 0.0
C300 C 0.11761 0.07678 0.41329 0.0
C301 C 0.0545 0.98823 0.38632 0.0
C302 C 0.10065 0.99661 0.39675 0.0
C303 C 0.17725 0.04783 0.42186 0.0
C304 C 0.20769 0.09079 0.43632 0.0
C305 C 0.13218 0.04043 0.41047 0.0
C306 C 0.19361 0.12744 0.43846 0.0
C307 C 0.14914 0.1206 0.42702 0.0
H308 H 0.0495 0.12498 0.75949 0.0
H309 H 0.12615 0.13367 0.70054 0.0
H310 H 0.211 0.19483 0.71907 0.0
H311 H 0.26385 0.24274 0.75248 0.0
H312 H 0.18707 0.22832 0.81209 0.0
H313 H 0.10217 0.17369 0.79269 0.0
C314 C 0.08469 0.14073 0.75061 0.0
C315 C 0.08142 0.12471 0.72867 0.0
C316 C 0.13352 0.17499 0.76149 0.0
C317 C 0.12753 0.14515 0.71748 0.0
C318 C 0.17612 0.18013 0.72806 0.0
C319 C 0.22863 0.22752 0.76128 0.0
C320 C 0.23226 0.24006 0.78375 0.0
C321 C 0.17967 0.19469 0.75017 0.0
C322 C 0.18585 0.22043 0.79473 0.0
C323 C 0.13707 0.18864 0.78369 0.0
H324 H 0.83416 0.06477 0.66836 0.0
H325 H 0.9513 0.08444 0.62481 0.0
H326 H 0.9024 0.09379 0.59433 0.0
H327 H 0.81987 0.08309 0.57919 0.0
H328 H 0.6998 0.05514 0.62247 0.0
H329 H 0.75637 0.06245 0.65399 0.0
C330 C 0.84979 0.07226 0.65233 0.0
C331 C 0.89611 0.07328 0.64887 0.0
C332 C 0.8204 0.07532 0.63475 0.0
C333 C 0.91557 0.08307 0.62793 0.0
C334 C 0.88745 0.08813 0.61046 0.0
C335 C 0.80677 0.07983 0.59561 0.0
C336 C 0.75589 0.06843 0.59864 0.0
C337 C 0.83883 0.08227 0.61352 0.0
C338 C 0.7388 0.06362 0.61986 0.0
C339 C 0.77107 0.06775 0.63782 0.0
H340 H 0.01811 0.92701 0.97452 0.0
H341 H 0.9636 0.03036 0.98134 0.0
H342 H 0.87923 0.9664 0.96292 0.0
H343 H 0.82284 0.88293 0.94375 0.0
H344 H 0.88356 0.78569 0.93174 0.0
H345 H 0.96229 0.84422 0.95419 0.0
C346 C 0.98749 0.93522 0.9721 0.0
C347 C 0.99673 0.98306 0.97929 0.0
C348 C 0.93998 0.89913 0.96075 0.0
C349 C 0.95724 0.99375 0.97584 0.0
C350 C 0.90907 0.9572 0.96536 0.0
C351 C 0.85333 0.87451 0.94564 0.0
C352 C 0.84642 0.82942 0.93572 0.0
C353 C 0.90031 0.91004 0.95746 0.0
C354 C 0.88638 0.81911 0.93933 0.0
C355 C 0.93215 0.8531 0.95198 0.0
H356 H 0.97026 0.8693 0.3059 0.0
H357 H 0.81385 0.73871 0.31088 0.0
H358 H 0.83357 0.68666 0.28771 0.0
H359 H 0.89398 0.67905 0.26476 0.0
H360 H 0.04971 0.8101 0.25921 0.0
H361 H 0.03174 0.86072 0.28416 0.0
C362 C 0.94052 0.82939 0.30201 0.0
C363 C 0.89052 0.80812 0.31001 0.0
C364 C 0.95203 0.79964 0.2886 0.0
C365 C 0.85261 0.75621 0.3049 0.0
C366 C 0.86382 0.72635 0.29162 0.0
C367 C 0.92397 0.71869 0.26901 0.0
C368 C 0.97305 0.74072 0.26007 0.0
C369 C 0.91317 0.74783 0.28316 0.0
C370 C 0.01178 0.79194 0.26603 0.0
C371 C 1.00141 0.82108 0.28017 0.0
H372 H 0.05239 0.93483 0.60817 0.0
H373 H 0.13177 0.07821 0.64631 0.0
H374 H 0.20593 0.11163 0.62343 0.0
H375 H 0.2474 0.10124 0.59202 0.0
H376 H 0.16658 0.95935 0.55288 0.0
H377 H 0.09458 0.92402 0.57701 0.0
C378 C 0.08599 0.9733 0.61153 0.0
C379 C 0.08632 0.00397 0.62886 0.0
C380 C 0.12848 0.99255 0.5982 0.0
C381 C 0.13026 0.05378 0.633 0.0
C382 C 0.1728 0.07298 0.61994 0.0
C383 C 0.21395 0.06266 0.58871 0.0
C384 C 0.21253 0.0331 0.57065 0.0
C385 C 0.17212 0.04289 0.60238 0.0
C386 C 0.1692 0.9828 0.56684 0.0
C387 C 0.12771 0.96265 0.58052 0.0
H388 H 0.26935 0.17894 0.98783 0.0
H389 H 0.19772 0.03363 0.95182 0.0
H390 H 0.24466 0.07724 0.91958 0.0
H391 H 0.3019 0.15771 0.90136 0.0
H392 H 0.37805 0.30163 0.93918 0.0
H393 H 0.33296 0.25733 0.97107 0.0
C394 C 0.26416 0.1568 0.97292 0.0
C395 C 0.22978 0.10344 0.97195 0.0
C396 C 0.29174 0.18189 0.95483 0.0
C397 C 0.22401 0.07488 0.9528 0.0
C398 C 0.25068 0.09981 0.93443 0.0
C399 C 0.3095 0.17935 0.91666 0.0
C400 C 0.34263 0.23321 0.91765 0.0
C401 C 0.28421 0.15346 0.9352 0.0
C402 C 0.35162 0.26043 0.93768 0.0
C403 C 0.32614 0.23512 0.95602 0.0
H404 H 0.03355 0.10413 0.30853 0.0
H405 H 0.87465 0.06335 0.29459 0.0
H406 H 0.90322 0.12887 0.26748 0.0
H407 H 0.97376 0.202 0.25029 0.0
H408 H 0.1334 0.24305 0.26338 0.0
H409 H 0.10444 0.17406 0.28875 0.0
C410 C 0.00535 0.10898 0.29907 0.0
C411 C 0.95218 0.07888 0.30307 0.0
C412 C 0.02227 0.14744 0.28385 0.0
C413 C 0.9157 0.08585 0.29132 0.0
C414 C 0.93206 0.12351 0.27603 0.0
C415 C 0.00229 0.19539 0.25831 0.0
C416 C 0.05574 0.22795 0.25494 0.0
C417 C 0.98534 0.1552 0.27252 0.0
C418 C 0.09209 0.21929 0.26595 0.0
C419 C 0.07553 0.17949 0.28031 0.0
loop_
_geom_bond_atom_site_label_1
_geom_bond_atom_site_label_2
_geom_bond_distance
_geom_bond_site_symmetry_2
_ccdc_geom_bond_type
Mg0 O1 2.028 1_545 S
Mg0 O7 1.986 . S
Mg0 O9 2.114 . S
Mg0 O10 2.251 . S
Mg0 O13 2.010 1_545 S
O1 Mg0 2.028 1_565 S
O1 C4 1.250 1_455 S
O2 Mg3 2.028 1_655 S
O2 C4 1.248 1_546 S
Mg3 O2 2.028 1_455 S
Mg3 O8 2.032 1_556 S
Mg3 O10 2.079 1_556 S
C4 O1 1.250 1_655 S
C4 O2 1.248 1_564 S
C5 O6 1.264 . S
C5 O13 1.249 . S
O6 C5 1.264 . S
O7 Mg0 1.986 . S
O7 C11 1.246 . S
O8 Mg3 2.032 1_554 S
O8 C11 1.259 . S
O9 Mg0 2.114 . S
O9 C12 1.252 . S
O10 Mg0 2.251 . S
O10 Mg3 2.079 1_554 S
O10 C12 1.273 . S
C11 O7 1.246 . S
C11 O8 1.259 . S
C12 O9 1.252 . S
C12 O10 1.273 . S
O13 Mg0 2.010 1_565 S
O13 C5 1.249 . S
Mg14 O15 2.028 1_665 S
Mg14 O21 1.986 1_665 S
Mg14 O23 2.114 . S
Mg14 O24 2.251 1_565 S
Mg14 O27 2.010 . S
O15 Mg14 2.028 1_445 S
O15 C18 1.250 . S
O16 Mg17 2.028 . S
O16 C18 1.248 . S
Mg17 O16 2.028 . S
Mg17 O22 2.032 . S
Mg17 O24 2.079 1_455 S
C18 O15 1.250 . S
C18 O16 1.248 . S
C19 O20 1.264 . S
C19 O27 1.249 . S
O20 C19 1.264 . S
O21 Mg14 1.986 1_445 S
O21 C25 1.246 . S
O22 Mg17 2.032 . S
O22 C25 1.259 . S
O23 Mg14 2.114 . S
O23 C26 1.252 . S
O24 Mg14 2.251 1_545 S
O24 Mg17 2.079 1_655 S
O24 C26 1.273 1_545 S
C25 O21 1.246 . S
C25 O22 1.259 . S
C26 O23 1.252 . S
C26 O24 1.273 1_565 S
O27 Mg14 2.010 . S
O27 C19 1.249 . S
Mg28 O29 2.028 1_565 S
Mg28 O35 1.986 1_465 S
Mg28 O37 2.113 . S
Mg28 O38 2.251 1_455 S
Mg28 O41 2.010 . S
O29 Mg28 2.028 1_545 S
O29 C32 1.250 . S
O30 Mg31 2.028 1_455 S
O30 C32 1.248 . S
Mg31 O30 2.028 1_655 S
Mg31 O36 2.032 . S
Mg31 O38 2.079 1_545 S
C32 O29 1.250 . S
C32 O30 1.248 . S
C33 O34 1.264 . S
C33 O41 1.249 . S
O34 C33 1.264 . S
O35 Mg28 1.986 1_645 S
O35 C39 1.246 . S
O36 Mg31 2.032 . S
O36 C39 1.259 . S
O37 Mg28 2.113 . S
O37 C40 1.252 1_455 S
O38 Mg28 2.251 1_655 S
O38 Mg31 2.079 1_565 S
O38 C40 1.273 . S
C39 O35 1.246 . S
C39 O36 1.259 . S
C40 O37 1.252 1_655 S
C40 O38 1.273 . S
O41 Mg28 2.010 . S
O41 C33 1.249 . S
H42 C69 0.929 . S
N43 C68 1.433 . S
N43 C74 1.435 . S
N43 C80 1.423 1_455 S
H44 C70 0.930 . S
H45 C73 0.931 . S
H46 C72 0.929 . S
H47 C75 0.930 . S
H48 C76 0.932 . S
H49 C79 0.929 . S
H50 C78 0.931 . S
H51 C81 0.929 . S
H52 C85 0.932 . S
H53 C82 0.931 . S
H54 C84 0.929 . S
H55 C87 0.929 . S
H56 C88 0.930 . S
H57 C90 0.929 . S
H58 C91 0.931 . S
H59 C93 0.930 . S
H60 C94 0.932 . S
H61 C96 0.931 . S
H62 C97 0.929 . S
H63 C99 0.929 . S
H64 C100 0.931 . S
H65 C102 0.929 . S
N66 C86 1.433 . S
N66 C92 1.435 . S
N66 C98 1.423 1_455 S
H67 C103 0.932 . S
C68 N43 1.433 . S
C68 C69 1.363 1_455 S
C68 C73 1.370 . S
C69 H42 0.929 . S
C69 C68 1.363 1_655 S
C69 C70 1.385 . S
C70 H44 0.930 . S
C70 C69 1.385 . S
C70 C71 1.357 1_655 S
C71 C70 1.357 1_455 S
C71 C72 1.406 . S
C72 H46 0.929 . S
C72 C71 1.406 . S
C72 C73 1.391 . S
C73 H45 0.931 . S
C73 C68 1.370 . S
C73 C72 1.391 . S
C74 N43 1.435 . S
C74 C75 1.358 . S
C74 C79 1.371 1_455 S
C75 H47 0.930 . S
C75 C74 1.358 . S
C75 C76 1.405 . S
C76 H48 0.932 . S
C76 C75 1.405 . S
C76 C77 1.383 . S
C77 C76 1.383 . S
C77 C78 1.393 1_455 S
C78 H50 0.931 . S
C78 C77 1.393 1_655 S
C78 C79 1.382 . S
C79 H49 0.929 . S
C79 C74 1.371 1_655 S
C79 C78 1.382 . S
C80 N43 1.423 1_655 S
C80 C81 1.362 . S
C80 C85 1.388 1_655 S
C81 H51 0.929 . S
C81 C80 1.362 . S
C81 C82 1.376 . S
C82 H53 0.931 . S
C82 C81 1.376 . S
C82 C83 1.396 . S
C83 C82 1.396 . S
C83 C84 1.348 1_655 S
C83 C101 1.472 . S
C84 H54 0.929 . S
C84 C83 1.348 1_455 S
C84 C85 1.443 . S
C85 H52 0.932 . S
C85 C80 1.388 1_455 S
C85 C84 1.443 . S
C86 N66 1.433 . S
C86 C87 1.363 1_455 S
C86 C91 1.370 . S
C87 H55 0.929 . S
C87 C86 1.363 1_655 S
C87 C88 1.385 . S
C88 H56 0.930 . S
C88 C87 1.385 . S
C88 C89 1.357 1_655 S
C89 C88 1.357 1_455 S
C89 C90 1.406 . S
C90 H57 0.929 . S
C90 C89 1.406 . S
C90 C91 1.391 . S
C91 H58 0.931 . S
C91 C86 1.370 . S
C91 C90 1.391 . S
C92 N66 1.435 . S
C92 C93 1.358 . S
C92 C97 1.371 1_455 S
C93 H59 0.930 . S
C93 C92 1.358 . S
C93 C94 1.405 . S
C94 H60 0.932 . S
C94 C93 1.405 . S
C94 C95 1.383 . S
C95 C94 1.383 . S
C95 C96 1.393 1_455 S
C96 H61 0.931 . S
C96 C95 1.393 1_655 S
C96 C97 1.382 . S
C97 H62 0.929 . S
C97 C92 1.371 1_655 S
C97 C96 1.382 . S
C98 N66 1.423 1_655 S
C98 C99 1.362 . S
C98 C103 1.388 1_655 S
C99 H63 0.929 . S
C99 C98 1.362 . S
C99 C100 1.376 . S
C100 H64 0.931 . S
C100 C99 1.376 . S
C100 C101 1.396 . S
C101 C83 1.472 . S
C101 C100 1.396 . S
C101 C102 1.348 1_655 S
C102 H65 0.929 . S
C102 C101 1.348 1_455 S
C102 C103 1.443 . S
C103 H67 0.932 . S
C103 C98 1.388 1_455 S
C103 C102 1.443 . S
H104 C131 0.929 . S
N105 C130 1.433 . S
N105 C136 1.435 . S
N105 C142 1.423 . S
H106 C132 0.930 . S
H107 C135 0.931 . S
H108 C134 0.929 . S
H109 C137 0.930 1_565 S
H110 C138 0.932 1_565 S
H111 C141 0.929 . S
H112 C140 0.931 . S
H113 C143 0.929 . S
H114 C147 0.932 . S
H115 C144 0.931 . S
H116 C146 0.929 . S
H117 C149 0.929 . S
H118 C150 0.930 . S
H119 C152 0.929 . S
H120 C153 0.931 . S
H121 C155 0.930 1_565 S
H122 C156 0.932 1_565 S
H123 C158 0.931 . S
H124 C159 0.929 . S
H125 C161 0.929 . S
H126 C162 0.931 . S
H127 C164 0.929 . S
N128 C148 1.433 . S
N128 C154 1.435 . S
N128 C160 1.423 . S
H129 C165 0.932 . S
C130 N105 1.433 . S
C130 C131 1.363 . S
C130 C135 1.370 . S
C131 H104 0.929 . S
C131 C130 1.363 . S
C131 C132 1.385 . S
C132 H106 0.930 . S
C132 C131 1.385 . S
C132 C133 1.357 . S
C133 C132 1.357 . S
C133 C134 1.406 . S
C134 H108 0.929 . S
C134 C133 1.406 . S
C134 C135 1.391 . S
C135 H107 0.931 . S
C135 C130 1.370 . S
C135 C134 1.391 . S
C136 N105 1.435 . S
C136 C137 1.358 . S
C136 C141 1.371 . S
C137 H109 0.930 1_545 S
C137 C136 1.358 . S
C137 C138 1.405 . S
C138 H110 0.932 1_545 S
C138 C137 1.405 . S
C138 C139 1.383 . S
C139 C138 1.383 . S
C139 C140 1.393 . S
C140 H112 0.931 . S
C140 C139 1.393 . S
C140 C141 1.382 . S
C141 H111 0.929 . S
C141 C136 1.371 . S
C141 C140 1.382 . S
C142 N105 1.423 . S
C142 C143 1.362 . S
C142 C147 1.388 . S
C143 H113 0.929 . S
C143 C142 1.362 . S
C143 C144 1.376 . S
C144 H115 0.931 . S
C144 C143 1.376 . S
C144 C145 1.396 . S
C145 C144 1.396 . S
C145 C146 1.348 . S
C145 C163 1.472 . S
C146 H116 0.929 . S
C146 C145 1.348 . S
C146 C147 1.443 . S
C147 H114 0.932 . S
C147 C142 1.388 . S
C147 C146 1.443 . S
C148 N128 1.433 . S
C148 C149 1.363 . S
C148 C153 1.370 . S
C149 H117 0.929 . S
C149 C148 1.363 . S
C149 C150 1.385 . S
C150 H118 0.930 . S
C150 C149 1.385 . S
C150 C151 1.357 . S
C151 C150 1.357 . S
C151 C152 1.406 . S
C152 H119 0.929 . S
C152 C151 1.406 . S
C152 C153 1.391 . S
C153 H120 0.931 . S
C153 C148 1.370 . S
C153 C152 1.391 . S
C154 N128 1.435 . S
C154 C155 1.358 . S
C154 C159 1.371 . S
C155 H121 0.930 1_545 S
C155 C154 1.358 . S
C155 C156 1.405 . S
C156 H122 0.932 1_545 S
C156 C155 1.405 . S
C156 C157 1.383 . S
C157 C156 1.383 . S
C157 C158 1.393 . S
C158 H123 0.931 . S
C158 C157 1.393 . S
C158 C159 1.382 . S
C159 H124 0.929 . S
C159 C154 1.371 . S
C159 C158 1.382 . S
C160 N128 1.423 . S
C160 C161 1.362 . S
C160 C165 1.388 . S
C161 H125 0.929 . S
C161 C160 1.362 . S
C161 C162 1.376 . S
C162 H126 0.931 . S
C162 C161 1.376 . S
C162 C163 1.396 . S
C163 C145 1.472 . S
C163 C162 1.396 . S
C163 C164 1.348 . S
C164 H127 0.929 . S
C164 C163 1.348 . S
C164 C165 1.443 . S
C165 H129 0.932 . S
C165 C160 1.388 . S
C165 C164 1.443 . S
H166 C193 0.929 . S
N167 C192 1.433 . S
N167 C198 1.435 . S
N167 C204 1.423 . S
H168 C194 0.930 . S
H169 C197 0.931 . S
H170 C196 0.929 . S
H171 C199 0.930 . S
H172 C200 0.932 . S
H173 C203 0.929 . S
H174 C202 0.931 . S
H175 C205 0.929 . S
H176 C209 0.932 . S
H177 C206 0.931 . S
H178 C208 0.929 . S
H179 C211 0.929 . S
H180 C212 0.930 . S
H181 C214 0.929 . S
H182 C215 0.931 . S
H183 C217 0.930 . S
H184 C218 0.932 . S
H185 C220 0.931 . S
H186 C221 0.929 . S
H187 C223 0.929 . S
H188 C224 0.931 . S
H189 C226 0.929 . S
N190 C210 1.433 . S
N190 C216 1.435 . S
N190 C222 1.423 . S
H191 C227 0.932 . S
C192 N167 1.433 . S
C192 C193 1.363 . S
C192 C197 1.370 . S
C193 H166 0.929 . S
C193 C192 1.363 . S
C193 C194 1.385 . S
C194 H168 0.930 . S
C194 C193 1.385 . S
C194 C195 1.357 . S
C195 C194 1.357 . S
C195 C196 1.406 . S
C196 H170 0.929 . S
C196 C195 1.406 . S
C196 C197 1.391 . S
C197 H169 0.931 . S
C197 C192 1.370 . S
C197 C196 1.391 . S
C198 N167 1.435 . S
C198 C199 1.358 . S
C198 C203 1.371 . S
C199 H171 0.930 . S
C199 C198 1.358 . S
C199 C200 1.405 . S
C200 H172 0.932 . S
C200 C199 1.405 . S
C200 C201 1.383 . S
C201 C200 1.383 . S
C201 C202 1.393 . S
C202 H174 0.931 . S
C202 C201 1.393 . S
C202 C203 1.382 . S
C203 H173 0.929 . S
C203 C198 1.371 . S
C203 C202 1.382 . S
C204 N167 1.423 . S
C204 C205 1.362 . S
C204 C209 1.388 . S
C205 H175 0.929 . S
C205 C204 1.362 . S
C205 C206 1.376 . S
C206 H177 0.931 . S
C206 C205 1.376 . S
C206 C207 1.396 . S
C207 C206 1.396 . S
C207 C208 1.348 . S
C207 C225 1.472 . S
C208 H178 0.929 . S
C208 C207 1.348 . S
C208 C209 1.443 . S
C209 H176 0.932 . S
C209 C204 1.388 . S
C209 C208 1.443 . S
C210 N190 1.433 . S
C210 C211 1.363 . S
C210 C215 1.370 . S
C211 H179 0.929 . S
C211 C210 1.363 . S
C211 C212 1.385 . S
C212 H180 0.930 . S
C212 C211 1.385 . S
C212 C213 1.357 . S
C213 C212 1.357 . S
C213 C214 1.406 . S
C214 H181 0.929 . S
C214 C213 1.406 . S
C214 C215 1.391 . S
C215 H182 0.931 . S
C215 C210 1.370 . S
C215 C214 1.391 . S
C216 N190 1.435 . S
C216 C217 1.358 . S
C216 C221 1.371 . S
C217 H183 0.930 . S
C217 C216 1.358 . S
C217 C218 1.405 . S
C218 H184 0.932 . S
C218 C217 1.405 . S
C218 C219 1.383 . S
C219 C218 1.383 . S
C219 C220 1.393 . S
C220 H185 0.931 . S
C220 C219 1.393 . S
C220 C221 1.382 . S
C221 H186 0.929 . S
C221 C216 1.371 . S
C221 C220 1.382 . S
C222 N190 1.423 . S
C222 C223 1.362 . S
C222 C227 1.388 . S
C223 H187 0.929 . S
C223 C222 1.362 . S
C223 C224 1.376 . S
C224 H188 0.931 . S
C224 C223 1.376 . S
C224 C225 1.396 . S
C225 C207 1.472 . S
C225 C224 1.396 . S
C225 C226 1.348 . S
C226 H189 0.929 . S
C226 C225 1.348 . S
C226 C227 1.443 . S
C227 H191 0.932 . S
C227 C222 1.388 . S
C227 C226 1.443 . S
H228 C234 0.930 1_655 S
H229 C237 0.930 . S
H230 C238 0.930 . S
H231 C239 0.930 . S
H232 C242 0.930 1_655 S
H233 C243 0.930 . S
C234 H228 0.930 1_455 S
C234 C235 1.355 . S
C234 C236 1.415 . S
C235 C234 1.355 . S
C235 C237 1.419 . S
C236 C234 1.415 . S
C236 C241 1.425 . S
C236 C243 1.409 1_455 S
C237 H229 0.930 . S
C237 C235 1.419 . S
C237 C238 1.362 . S
C238 H230 0.930 . S
C238 C237 1.362 . S
C238 C241 1.409 . S
C239 H231 0.930 . S
C239 C240 1.355 . S
C239 C241 1.415 . S
C240 C239 1.355 . S
C240 C242 1.419 . S
C241 C236 1.425 . S
C241 C238 1.409 . S
C241 C239 1.415 . S
C242 H232 0.930 1_455 S
C242 C240 1.419 . S
C242 C243 1.362 1_455 S
C243 H233 0.930 . S
C243 C236 1.409 1_655 S
C243 C242 1.362 1_655 S
H244 C250 0.930 . S
H245 C253 0.930 . S
H246 C254 0.930 . S
H247 C255 0.930 . S
H248 C258 0.930 . S
H249 C259 0.932 1_565 S
C250 H244 0.930 . S
C250 C251 1.355 . S
C250 C252 1.415 1_565 S
C251 C250 1.355 . S
C251 C253 1.419 1_565 S
C252 C250 1.415 1_545 S
C252 C257 1.425 . S
C252 C259 1.409 . S
C253 H245 0.930 . S
C253 C251 1.419 1_545 S
C253 C254 1.362 . S
C254 H246 0.930 . S
C254 C253 1.362 . S
C254 C257 1.409 . S
C255 H247 0.930 . S
C255 C256 1.355 . S
C255 C257 1.415 . S
C256 C255 1.355 . S
C256 C258 1.419 . S
C257 C252 1.425 . S
C257 C254 1.409 . S
C257 C255 1.415 . S
C258 H248 0.930 . S
C258 C256 1.419 . S
C258 C259 1.362 . S
C259 H249 0.932 1_545 S
C259 C252 1.409 . S
C259 C258 1.362 . S
H260 C266 0.930 . S
H261 C269 0.930 . S
H262 C270 0.930 . S
H263 C271 0.930 . S
H264 C274 0.930 . S
H265 C275 0.930 . S
C266 H260 0.930 . S
C266 C267 1.355 . S
C266 C268 1.415 . S
C267 C266 1.355 . S
C267 C269 1.419 . S
C268 C266 1.415 . S
C268 C273 1.425 . S
C268 C275 1.409 . S
C269 H261 0.930 . S
C269 C267 1.419 . S
C269 C270 1.362 . S
C270 H262 0.930 . S
C270 C269 1.362 . S
C270 C273 1.409 . S
C271 H263 0.930 . S
C271 C272 1.355 . S
C271 C273 1.415 . S
C272 C271 1.355 . S
C272 C274 1.419 . S
C273 C268 1.425 . S
C273 C270 1.409 . S
C273 C271 1.415 . S
C274 H264 0.930 . S
C274 C272 1.419 . S
C274 C275 1.362 . S
C275 H265 0.930 . S
C275 C268 1.409 . S
C275 C274 1.362 . S
H276 C282 0.930 . S
H277 C285 0.930 1_655 S
H278 C286 0.930 . S
H279 C287 0.930 1_655 S
H280 C290 0.930 . S
H281 C291 0.930 . S
C282 H276 0.930 . S
C282 C283 1.355 . S
C282 C284 1.415 . S
C283 C282 1.355 . S
C283 C285 1.419 . S
C284 C282 1.415 . S
C284 C289 1.425 . S
C284 C291 1.409 . S
C285 H277 0.930 1_455 S
C285 C283 1.419 . S
C285 C286 1.362 1_455 S
C286 H278 0.930 . S
C286 C285 1.362 1_655 S
C286 C289 1.409 1_655 S
C287 H279 0.930 1_455 S
C287 C288 1.355 . S
C287 C289 1.415 . S
C288 C287 1.355 . S
C288 C290 1.419 . S
C289 C284 1.425 . S
C289 C286 1.409 1_455 S
C289 C287 1.415 . S
C290 H280 0.930 . S
C290 C288 1.419 . S
C290 C291 1.362 . S
C291 H281 0.930 . S
C291 C284 1.409 . S
C291 C290 1.362 . S
H292 C298 0.930 . S
H293 C301 0.930 . S
H294 C302 0.930 . S
H295 C303 0.930 1_565 S
H296 C306 0.930 . S
H297 C307 0.930 . S
C298 H292 0.930 . S
C298 C299 1.355 . S
C298 C300 1.415 . S
C299 C298 1.355 . S
C299 C301 1.419 1_545 S
C300 C298 1.415 . S
C300 C305 1.425 . S
C300 C307 1.409 . S
C301 H293 0.930 . S
C301 C299 1.419 1_565 S
C301 C302 1.362 . S
C302 H294 0.930 . S
C302 C301 1.362 . S
C302 C305 1.409 1_565 S
C303 H295 0.930 1_545 S
C303 C304 1.355 . S
C303 C305 1.415 . S
C304 C303 1.355 . S
C304 C306 1.419 . S
C305 C300 1.425 . S
C305 C302 1.409 1_545 S
C305 C303 1.415 . S
C306 H296 0.930 . S
C306 C304 1.419 . S
C306 C307 1.362 . S
C307 H297 0.930 . S
C307 C300 1.409 . S
C307 C306 1.362 . S
H308 C314 0.930 . S
H309 C317 0.930 . S
H310 C318 0.930 . S
H311 C319 0.930 . S
H312 C322 0.930 . S
H313 C323 0.930 . S
C314 H308 0.930 . S
C314 C315 1.355 . S
C314 C316 1.415 . S
C315 C314 1.355 . S
C315 C317 1.419 . S
C316 C314 1.415 . S
C316 C321 1.425 . S
C316 C323 1.409 . S
C317 H309 0.930 . S
C317 C315 1.419 . S
C317 C318 1.362 . S
C318 H310 0.930 . S
C318 C317 1.362 . S
C318 C321 1.409 . S
C319 H311 0.930 . S
C319 C320 1.355 . S
C319 C321 1.415 . S
C320 C319 1.355 . S
C320 C322 1.419 . S
C321 C316 1.425 . S
C321 C318 1.409 . S
C321 C319 1.415 . S
C322 H312 0.930 . S
C322 C320 1.419 . S
C322 C323 1.362 . S
C323 H313 0.930 . S
C323 C316 1.409 . S
C323 C322 1.362 . S
H324 C330 0.930 . S
H325 C333 0.930 . S
H326 C334 0.930 . S
H327 C335 0.930 . S
H328 C338 0.930 . S
H329 C339 0.930 . S
C330 H324 0.930 . S
C330 C331 1.355 . S
C330 C332 1.415 . S
C331 C330 1.355 . S
C331 C333 1.419 . S
C332 C330 1.415 . S
C332 C337 1.425 . S
C332 C339 1.409 . S
C333 H325 0.930 . S
C333 C331 1.419 . S
C333 C334 1.362 . S
C334 H326 0.930 . S
C334 C333 1.362 . S
C334 C337 1.409 . S
C335 H327 0.930 . S
C335 C336 1.355 . S
C335 C337 1.415 . S
C336 C335 1.355 . S
C336 C338 1.419 . S
C337 C332 1.425 . S
C337 C334 1.409 . S
C337 C335 1.415 . S
C338 H328 0.930 . S
C338 C336 1.419 . S
C338 C339 1.362 . S
C339 H329 0.930 . S
C339 C332 1.409 . S
C339 C338 1.362 . S
H340 C346 0.930 . S
H341 C349 0.930 . S
H342 C350 0.930 . S
H343 C351 0.930 . S
H344 C354 0.930 . S
H345 C355 0.930 . S
C346 H340 0.930 . S
C346 C347 1.355 . S
C346 C348 1.415 . S
C347 C346 1.355 . S
C347 C349 1.419 . S
C348 C346 1.415 . S
C348 C353 1.425 . S
C348 C355 1.409 . S
C349 H341 0.930 . S
C349 C347 1.419 . S
C349 C350 1.362 . S
C350 H342 0.930 . S
C350 C349 1.362 . S
C350 C353 1.409 . S
C351 H343 0.930 . S
C351 C352 1.355 . S
C351 C353 1.415 . S
C352 C351 1.355 . S
C352 C354 1.419 . S
C353 C348 1.425 . S
C353 C350 1.409 . S
C353 C351 1.415 . S
C354 H344 0.930 . S
C354 C352 1.419 . S
C354 C355 1.362 . S
C355 H345 0.930 . S
C355 C348 1.409 . S
C355 C354 1.362 . S
H356 C362 0.930 . S
H357 C365 0.930 . S
H358 C366 0.930 . S
H359 C367 0.930 . S
H360 C370 0.930 . S
H361 C371 0.930 . S
C362 H356 0.930 . S
C362 C363 1.355 1_455 S
C362 C364 1.415 . S
C363 C362 1.355 1_655 S
C363 C365 1.419 . S
C364 C362 1.415 . S
C364 C369 1.425 1_455 S
C364 C371 1.409 . S
C365 H357 0.930 . S
C365 C363 1.419 . S
C365 C366 1.362 . S
C366 H358 0.930 . S
C366 C365 1.362 . S
C366 C369 1.409 . S
C367 H359 0.930 . S
C367 C368 1.355 1_655 S
C367 C369 1.415 . S
C368 C367 1.355 1_455 S
C368 C370 1.419 . S
C369 C364 1.425 1_655 S
C369 C366 1.409 . S
C369 C367 1.415 . S
C370 H360 0.930 . S
C370 C368 1.419 . S
C370 C371 1.362 . S
C371 H361 0.930 . S
C371 C364 1.409 . S
C371 C370 1.362 . S
H372 C378 0.930 . S
H373 C381 0.930 . S
H374 C382 0.930 . S
H375 C383 0.930 . S
H376 C386 0.930 . S
H377 C387 0.930 . S
C378 H372 0.930 . S
C378 C379 1.355 . S
C378 C380 1.415 . S
C379 C378 1.355 . S
C379 C381 1.419 1_565 S
C380 C378 1.415 . S
C380 C385 1.425 1_565 S
C380 C387 1.409 . S
C381 H373 0.930 . S
C381 C379 1.419 1_545 S
C381 C382 1.362 . S
C382 H374 0.930 . S
C382 C381 1.362 . S
C382 C385 1.409 . S
C383 H375 0.930 . S
C383 C384 1.355 . S
C383 C385 1.415 . S
C384 C383 1.355 . S
C384 C386 1.419 1_545 S
C385 C380 1.425 1_545 S
C385 C382 1.409 . S
C385 C383 1.415 . S
C386 H376 0.930 . S
C386 C384 1.419 1_565 S
C386 C387 1.362 . S
C387 H377 0.930 . S
C387 C380 1.409 . S
C387 C386 1.362 . S
H388 C394 0.897 1_554 S
H389 C397 0.930 . S
H390 C398 0.930 . S
H391 C399 0.930 . S
H392 C402 0.930 . S
H393 C403 0.930 . S
C394 H388 0.897 1_556 S
C394 C395 1.355 . S
C394 C396 1.415 . S
C395 C394 1.355 . S
C395 C397 1.419 . S
C396 C394 1.415 . S
C396 C401 1.425 . S
C396 C403 1.409 . S
C397 H389 0.930 . S
C397 C395 1.419 . S
C397 C398 1.362 . S
C398 H390 0.930 . S
C398 C397 1.362 . S
C398 C401 1.409 . S
C399 H391 0.930 . S
C399 C400 1.355 . S
C399 C401 1.415 . S
C400 C399 1.355 . S
C400 C402 1.419 . S
C401 C396 1.425 . S
C401 C398 1.409 . S
C401 C399 1.415 . S
C402 H392 0.930 . S
C402 C400 1.419 . S
C402 C403 1.362 . S
C403 H393 0.930 . S
C403 C396 1.409 . S
C403 C402 1.362 . S
H404 C410 0.930 . S
H405 C413 0.930 . S
H406 C414 0.930 . S
H407 C415 0.930 . S
H408 C418 0.930 . S
H409 C419 0.930 . S
C410 H404 0.930 . S
C410 C411 1.355 . S
C410 C412 1.415 . S
C411 C410 1.355 . S
C411 C413 1.419 1_455 S
C412 C410 1.415 . S
C412 C417 1.425 . S
C412 C419 1.409 . S
C413 H405 0.930 . S
C413 C411 1.419 1_655 S
C413 C414 1.362 . S
C414 H406 0.930 . S
C414 C413 1.362 . S
C414 C417 1.409 1_655 S
C415 H407 0.930 . S
C415 C416 1.355 1_655 S
C415 C417 1.415 1_655 S
C416 C415 1.355 1_455 S
C416 C418 1.419 . S
C417 C412 1.425 . S
C417 C414 1.409 1_455 S
C417 C415 1.415 1_455 S
C418 H408 0.930 . S
C418 C416 1.419 . S
C418 C419 1.362 . S
C419 H409 0.930 . S
C419 C412 1.409 . S
C419 C418 1.362 . S
C240 C95 1.266 . S
C235 C11 1.264 . S
C251 C26 1.432 . S
C256 C139 1.467 . S
C267 C40 1.356 . S
C272 C201 1.364 . S
C283 C5 1.207 . S
C288 C77 1.268 . S
C304 C157 1.408 . S
C299 C18 1.430 . S
C315 C32 1.325 . S
C320 C219 1.304 . S
C336 C133 1.418 . S
C331 C39 1.463 . S
C347 C4 1.604 1_556 S
C352 C195 1.543 . S
C368 C71 1.506 . S
C363 C19 1.434 . S
C384 C151 1.390 . S
C379 C33 1.429 . S
C400 C213 1.586 . S
C395 C12 1.643 1_556 S
C411 C25 1.529 . S
C416 C89 1.463 . S
