# Generated by pormake.
# Topology anh, (6,3)-cn, num edge types: 1
# Building blocks:
#     Node 0, Type 0, BuildingBlock: VOLQOD_clean_sbu_1, # of connection points: 6
#     Node 1, Type 0, BuildingBlock: VOLQOD_clean_sbu_1, # of connection points: 6
#     Node 2, Type 0, BuildingBlock: VOLQOD_clean_sbu_1, # of connection points: 6
#     Node 3, Type 1, BuildingBlock: CUQRIR_clean_linker_1, # of connection points: 3
#     Node 4, Type 1, BuildingBlock: CUQRIR_clean_linker_1, # of connection points: 3
#     Node 5, Type 1, BuildingBlock: CUQRIR_clean_linker_1, # of connection points: 3
#     Node 6, Type 1, BuildingBlock: CUQRIR_clean_linker_1, # of connection points: 3
#     Node 7, Type 1, BuildingBlock: CUQRIR_clean_linker_1, # of connection points: 3
#     Node 8, Type 1, BuildingBlock: CUQRIR_clean_linker_1, # of connection points: 3
#     Edge 9, Type (0, 1), BuildingBlock: ZUJKAS_clean_linker_0, # of connection points: 2
#     Edge 10, Type (0, 1), BuildingBlock: ZUJKAS_clean_linker_0, # of connection points: 2
#     Edge 11, Type (0, 1), BuildingBlock: ZUJKAS_clean_linker_0, # of connection points: 2
#     Edge 12, Type (0, 1), BuildingBlock: ZUJKAS_clean_linker_0, # of connection points: 2
#     Edge 13, Type (0, 1), BuildingBlock: ZUJKAS_clean_linker_0, # of connection points: 2
#     Edge 14, Type (0, 1), BuildingBlock: ZUJKAS_clean_linker_0, # of connection points: 2
#     Edge 15, Type (0, 1), BuildingBlock: ZUJKAS_clean_linker_0, # of connection points: 2
#     Edge 16, Type (0, 1), BuildingBlock: ZUJKAS_clean_linker_0, # of connection points: 2
#     Edge 17, Type (0, 1), BuildingBlock: ZUJKAS_clean_linker_0, # of connection points: 2
#     Edge 18, Type (0, 1), BuildingBlock: ZUJKAS_clean_linker_0, # of connection points: 2
#     Edge 19, Type (0, 1), BuildingBlock: ZUJKAS_clean_linker_0, # of connection points: 2
#     Edge 20, Type (0, 1), BuildingBlock: ZUJKAS_clean_linker_0, # of connection points: 2
#     Edge 21, Type (0, 1), BuildingBlock: ZUJKAS_clean_linker_0, # of connection points: 2
#     Edge 22, Type (0, 1), BuildingBlock: ZUJKAS_clean_linker_0, # of connection points: 2
#     Edge 23, Type (0, 1), BuildingBlock: ZUJKAS_clean_linker_0, # of connection points: 2
#     Edge 24, Type (0, 1), BuildingBlock: ZUJKAS_clean_linker_0, # of connection points: 2
#     Edge 25, Type (0, 1), BuildingBlock: ZUJKAS_clean_linker_0, # of connection points: 2
#     Edge 26, Type (0, 1), BuildingBlock: ZUJKAS_clean_linker_0, # of connection points: 2
# Relax obj value: 0.185
# Max RMSD: 0.221
# Mean RMSD: 0.171
data_MOF--net-anh--node1-VOLQOD_clean_sbu_1--node2-CUQRIR_clean_linker_1--edge1-ZUJKAS_clean_linker_0
_symmetry_space_group_name_H-M    P1
_symmetry_Int_Tables_number       1
_symmetry_cell_setting            triclinic
loop_
_symmetry_equiv_pos_as_xyz
'x, y, z'
_cell_length_a     35.535956
_cell_length_b     35.425185
_cell_length_c     70.21731
_cell_angle_alpha  85.554199
_cell_angle_beta   89.921184
_cell_angle_gamma 120.20381
loop_
_atom_site_label
_atom_site_type_symbol
_atom_site_fract_x
_atom_site_fract_y
_atom_site_fract_z
_atom_type_partial_charge
O0 O 0.98067 0.50968 0.20797 0.0
Zn1 Zn 0.99111 0.52472 0.17944 0.0
O2 O 0.00481 0.48501 0.16731 0.0
Zn3 Zn 0.95949 0.45036 0.1502 0.0
Zn4 Zn 0.00934 0.44584 0.18716 0.0
Zn5 Zn 0.05934 0.51935 0.15227 0.0
O6 O 0.98353 0.45594 0.1234 0.0
O7 O 0.05175 0.5105 0.12423 0.0
O8 O 0.93961 0.52489 0.16765 0.0
O9 O 0.91771 0.4726 0.14775 0.0
O10 O 0.92519 0.38696 0.16048 0.0
O11 O 0.95928 0.38413 0.18657 0.0
O12 O 0.06635 0.44673 0.18425 0.0
O13 O 0.0416 0.58652 0.17609 0.0
O14 O 0.10142 0.50095 0.16128 0.0
O15 O 0.08725 0.58367 0.15546 0.0
C16 C 0.99075 0.4869 0.21949 0.0
C17 C 0.02031 0.48297 0.11501 0.0
C18 C 0.92857 0.36565 0.1752 0.0
C19 C 0.9138 0.50217 0.15519 0.0
C20 C 0.10026 0.47197 0.17357 0.0
C21 C 0.07694 0.60523 0.16586 0.0
O22 O 0.005 0.46326 0.21338 0.0
O23 O 0.58467 0.069 0.45518 0.0
Zn24 Zn 0.5679 0.06744 0.4825 0.0
O25 O 0.60574 0.05738 0.49937 0.0
Zn26 Zn 0.64016 0.10835 0.51326 0.0
Zn27 Zn 0.6441 0.04524 0.48408 0.0
Zn28 Zn 0.56988 0.00864 0.51799 0.0
O29 O 0.63234 0.09389 0.54183 0.0
O30 O 0.57395 0.02721 0.54462 0.0
O31 O 0.56858 0.12306 0.48699 0.0
O32 O 0.62035 0.15184 0.50787 0.0
O33 O 0.70324 0.13827 0.50481 0.0
O34 O 0.70554 0.09737 0.48285 0.0
O35 O 0.64394 0.99063 0.49587 0.0
O36 O 0.50624 0.01758 0.48609 0.0
O37 O 0.592 0.96722 0.51885 0.0
O38 O 0.50701 0.97571 0.51107 0.0
C39 C 0.60501 0.05326 0.44694 0.0
C40 C 0.60239 0.06119 0.5521 0.0
C41 C 0.72413 0.13113 0.49219 0.0
C42 C 0.59176 0.15351 0.49751 0.0
C43 C 0.62073 0.96323 0.50985 0.0
C44 C 0.48677 0.9835 0.49782 0.0
O45 O 0.6262 0.03854 0.45647 0.0
O46 O 0.52947 0.60895 0.79289 0.0
Zn47 Zn 0.52496 0.59421 0.82147 0.0
O48 O 0.5786 0.63371 0.83341 0.0
Zn49 Zn 0.56845 0.66822 0.85049 0.0
Zn50 Zn 0.62212 0.67218 0.81341 0.0
Zn51 Zn 0.59861 0.60045 0.84895 0.0
O52 O 0.59314 0.66883 0.87633 0.0
O53 O 0.5971 0.60828 0.87695 0.0
O54 O 0.47295 0.59313 0.83388 0.0
O55 O 0.50429 0.64057 0.85579 0.0
O56 O 0.59136 0.72951 0.8384 0.0
O57 O 0.62987 0.73275 0.81271 0.0
O58 O 0.67973 0.67439 0.81742 0.0
O59 O 0.51488 0.53284 0.82477 0.0
O60 O 0.661 0.62324 0.84176 0.0
O61 O 0.56468 0.53637 0.8448 0.0
C62 C 0.56283 0.62947 0.78137 0.0
C63 C 0.59867 0.63955 0.88539 0.0
C64 C 0.61516 0.75041 0.82337 0.0
C65 C 0.47045 0.61227 0.84807 0.0
C66 C 0.68927 0.65214 0.82954 0.0
C67 C 0.53263 0.51462 0.83448 0.0
O68 O 0.60101 0.65189 0.78748 0.0
C69 C 0.48363 0.99096 0.22257 0.0
N70 N 0.51349 0.01019 0.23585 0.0
N71 N 0.44322 0.96625 0.23102 0.0
C72 C 0.49405 0.99534 0.20144 0.0
C73 C 0.44953 0.97123 0.24989 0.0
N74 N 0.4922 -0.00157 0.25278 0.0
C75 C 0.41448 0.94838 0.26558 0.0
H76 H 0.46572 0.98946 0.19292 0.0
H77 H 0.5032 0.97068 0.19835 0.0
H78 H 0.52186 0.02845 0.19683 0.0
H79 H 0.42463 0.93159 0.27664 0.0
H80 H 0.38271 0.92433 0.26018 0.0
H81 H 0.41012 0.97306 0.27253 0.0
C82 C 0.53649 0.51681 0.55838 0.0
N83 N 0.54231 0.54486 0.5716 0.0
N84 N 0.52636 0.47713 0.567 0.0
C85 C 0.54522 0.5294 0.53717 0.0
C86 C 0.52682 0.48225 0.58592 0.0
N87 N 0.53677 0.52359 0.58873 0.0
C88 C 0.51587 0.44631 0.60155 0.0
H89 H 0.51415 0.52184 0.53054 0.0
H90 H 0.55814 0.51057 0.53052 0.0
H91 H 0.56879 0.56493 0.53402 0.0
H92 H 0.54644 0.44814 0.60634 0.0
H93 H 0.49477 0.41362 0.59632 0.0
H94 H 0.49917 0.4501 0.61401 0.0
C95 C 0.05655 0.58667 0.88276 0.0
N96 N 0.07018 0.57341 0.89853 0.0
N97 N 0.01794 0.58396 0.8866 0.0
C98 C 0.07923 0.59932 0.86324 0.0
C99 C 0.00831 0.56823 0.90524 0.0
N100 N 0.03992 0.56139 0.91246 0.0
C101 C 0.97032 0.56367 0.91682 0.0
H102 H 0.10292 0.63507 0.86173 0.0
H103 H 0.05547 0.59191 0.85186 0.0
H104 H 0.09719 0.58169 0.86126 0.0
H105 H 0.94237 0.52985 0.91641 0.0
H106 H 0.96027 0.58703 0.91089 0.0
H107 H 0.97848 0.56945 0.93196 0.0
C108 C 0.07839 0.58775 0.44266 0.0
N109 N 0.05346 0.55965 0.42987 0.0
N110 N 0.09993 0.62943 0.43437 0.0
C111 C 0.08284 0.57446 0.46304 0.0
C112 C 0.08705 0.62573 0.41613 0.0
N113 N 0.05833 0.58338 0.41348 0.0
C114 C 0.10437 0.66293 0.40059 0.0
H115 H 0.09124 0.60122 0.47234 0.0
H116 H 0.10941 0.56664 0.4635 0.0
H117 H 0.0522 0.54499 0.46885 0.0
H118 H 0.1194 0.65543 0.38868 0.0
H119 H 0.1286 0.69461 0.40582 0.0
H120 H 0.07708 0.66629 0.39482 0.0
C121 C 0.52738 0.11408 0.77648 0.0
N122 N 0.53582 0.09396 0.76285 0.0
N123 N 0.51327 0.14052 0.76851 0.0
C124 C 0.5345 0.10933 0.79746 0.0
C125 C 0.51324 0.1356 0.74957 0.0
N126 N 0.52644 0.10688 0.74617 0.0
C127 C 0.50294 0.16075 0.73425 0.0
H128 H 0.51183 0.11417 0.80638 0.0
H129 H 0.56826 0.13465 0.80035 0.0
H130 H 0.53009 0.0765 0.80175 0.0
H131 H 0.53146 0.17949 0.72401 0.0
H132 H 0.49409 0.18347 0.74022 0.0
H133 H 0.47522 0.13751 0.72617 0.0
C134 C 0.52237 0.52002 0.11405 0.0
N135 N 0.55205 0.53776 0.09919 0.0
N136 N 0.48738 0.52422 0.11005 0.0
C137 C 0.52883 0.50121 0.13289 0.0
C138 C 0.49704 0.54546 0.09227 0.0
N139 N 0.5367 0.55412 0.08574 0.0
C140 C 0.46622 0.55428 0.08069 0.0
H141 H 0.5171 0.46587 0.13206 0.0
H142 H 0.51021 0.5045 0.1447 0.0
H143 H 0.56385 0.51774 0.13612 0.0
H144 H 0.43183 0.53092 0.08551 0.0
H145 H 0.47051 0.5518 0.06527 0.0
H146 H 0.47332 0.58805 0.08248 0.0
H147 H 0.10525 0.39901 0.18541 0.0
H148 H 0.17069 0.39199 0.18419 0.0
H149 H 0.24826 0.52896 0.16408 0.0
H150 H 0.18367 0.53607 0.16503 0.0
H151 H 0.22099 0.41268 0.14854 0.0
H152 H 0.32265 0.51078 0.20523 0.0
H153 H 0.26408 0.4869 0.20573 0.0
H154 H 0.29886 0.53784 0.19162 0.0
C155 C 0.13649 0.42771 0.1811 0.0
C156 C 0.13946 0.46799 0.17516 0.0
C157 C 0.17369 0.42367 0.18045 0.0
C158 C 0.21425 0.46013 0.17433 0.0
C159 C 0.21739 0.50067 0.16921 0.0
H160 H 0.45401 0.57331 0.12011 0.0
H161 H 0.38671 0.5483 0.13939 0.0
C162 C 0.18037 0.50456 0.16957 0.0
C163 C 0.2526 0.45566 0.17059 0.0
H164 H 0.36172 0.50823 0.17731 0.0
C165 C 0.25162 0.43228 0.1552 0.0
C166 C 0.29225 0.48128 0.17938 0.0
C167 C 0.29451 0.50528 0.19655 0.0
C168 C 0.29021 0.43762 0.14703 0.0
C169 C 0.33043 0.46639 0.1548 0.0
C170 C 0.33083 0.48649 0.17131 0.0
C171 C 0.37234 0.48114 0.1444 0.0
C172 C 0.28801 0.41556 0.12917 0.0
C173 C 0.38661 0.45173 0.14104 0.0
C174 C 0.42466 0.46595 0.12981 0.0
C175 C 0.44894 0.50974 0.122 0.0
C176 C 0.43529 0.53932 0.12584 0.0
C177 C 0.39725 0.52513 0.13694 0.0
H178 H 0.2548 0.39926 0.12353 0.0
H179 H 0.3112 0.4398 0.11781 0.0
H180 H 0.29736 0.3903 0.13241 0.0
H181 H 0.36807 0.41779 0.14686 0.0
H182 H 0.43481 0.44273 0.12694 0.0
H183 H 0.76415 0.15286 0.4567 0.0
H184 H 0.82958 0.22175 0.44566 0.0
H185 H 0.85085 0.25797 0.50363 0.0
H186 H 0.78413 0.19003 0.51457 0.0
H187 H 0.84745 0.31803 0.48197 0.0
H188 H 0.95873 0.27809 0.44506 0.0
H189 H 0.90534 0.25058 0.43581 0.0
H190 H 0.91294 0.2377 0.46032 0.0
C191 C 0.7836 0.17486 0.46717 0.0
C192 C 0.76897 0.16631 0.48647 0.0
C193 C 0.82119 0.21423 0.46084 0.0
C194 C 0.84538 0.2451 0.4738 0.0
C195 C 0.83267 0.23476 0.49334 0.0
H196 H 0.07593 0.50132 0.4445 0.0
H197 H 0.02611 0.42342 0.4545 0.0
C198 C 0.79462 0.19591 0.4996 0.0
C199 C 0.87936 0.29044 0.46678 0.0
H200 H 0.97017 0.35078 0.43712 0.0
C201 C 0.87458 0.32509 0.47236 0.0
C202 C 0.91491 0.29987 0.45429 0.0
C203 C 0.92355 0.26457 0.44869 0.0
C204 C 0.90379 0.36868 0.46562 0.0
C205 C 0.9379 0.37791 0.4523 0.0
C206 C 0.94345 0.34351 0.44702 0.0
C207 C 0.96867 0.42336 0.44423 0.0
C208 C 0.89811 0.40442 0.47312 0.0
C209 C 0.95318 0.44864 0.43449 0.0
C210 C 0.9814 0.4932 0.42921 0.0
C211 C 0.02557 0.51289 0.43332 0.0
C212 C 0.04167 0.48689 0.44172 0.0
C213 C 0.01338 0.44245 0.44724 0.0
H214 H 0.87908 0.39325 0.48702 0.0
H215 H 0.9301 0.434 0.47507 0.0
H216 H 0.88004 0.41382 0.46276 0.0
H217 H 0.91899 0.43424 0.43155 0.0
H218 H 0.96849 0.51269 0.4226 0.0
H219 H 0.60237 0.80505 0.84443 0.0
H220 H 0.59846 0.8695 0.83233 0.0
H221 H 0.63472 0.85721 0.77549 0.0
H222 H 0.63998 0.7935 0.78754 0.0
H223 H 0.6703 0.9435 0.78297 0.0
H224 H 0.49315 0.84907 0.80232 0.0
H225 H 0.52618 0.85442 0.82237 0.0
H226 H 0.52664 0.82413 0.80303 0.0
C227 C 0.61032 0.81654 0.82942 0.0
C228 C 0.62084 0.79378 0.8169 0.0
C229 C 0.60784 0.85322 0.82252 0.0
C230 C 0.61504 0.86726 0.80293 0.0
C231 C 0.62865 0.84662 0.79063 0.0
H232 H 0.49947 0.01327 0.7508 0.0
H233 H 0.52267 0.95924 0.75768 0.0
C234 C 0.63168 0.81023 0.79757 0.0
C235 C 0.60513 0.90114 0.79507 0.0
H236 H 0.52305 0.92442 0.79208 0.0
C237 C 0.6381 0.93937 0.78488 0.0
C238 C 0.56276 0.89508 0.79714 0.0
C239 C 0.52502 0.85327 0.80663 0.0
C240 C 0.6301 0.97233 0.77715 0.0
C241 C 0.58831 0.96721 0.78012 0.0
C242 C 0.55516 0.92849 0.78992 0.0
C243 C 0.57806 0.00177 0.77371 0.0
C244 C 0.66628 0.0119 0.76568 0.0
C245 C 0.60189 0.04379 0.7801 0.0
C246 C 0.58902 0.07469 0.77589 0.0
C247 C 0.55154 0.06371 0.76564 0.0
C248 C 0.52847 0.02226 0.75873 0.0
C249 C 0.54163 0.9915 0.76272 0.0
H250 H 0.6902 0.00429 0.75944 0.0
H251 H 0.65334 0.02427 0.75392 0.0
H252 H 0.68397 0.03843 0.77521 0.0
H253 H 0.62953 0.05224 0.78893 0.0
H254 H 0.60764 0.10683 0.78104 0.0
H255 H 0.90966 0.57645 0.15843 0.0
H256 H 0.8552 0.59307 0.14548 0.0
H257 H 0.78645 0.46544 0.12407 0.0
H258 H 0.84145 0.4492 0.13636 0.0
H259 H 0.79468 0.52888 0.09765 0.0
H260 H 0.73369 0.54727 0.1673 0.0
H261 H 0.79105 0.58331 0.16227 0.0
H262 H 0.7693 0.52503 0.16574 0.0
C263 C 0.88271 0.55181 0.15111 0.0
C264 C 0.87967 0.51142 0.1485 0.0
C265 C 0.8516 0.56132 0.14375 0.0
C266 C 0.8165 0.53026 0.13404 0.0
C267 C 0.81334 0.48989 0.13151 0.0
H268 H 0.5681 0.47161 0.0996 0.0
H269 H 0.63879 0.4765 0.10463 0.0
C270 C 0.84469 0.48059 0.1386 0.0
C271 C 0.78292 0.53948 0.12636 0.0
H272 H 0.70295 0.56002 0.13958 0.0
C273 C 0.77483 0.536 0.1068 0.0
C274 C 0.75711 0.54882 0.13833 0.0
C275 C 0.76285 0.55097 0.1596 0.0
C276 C 0.7408 0.54042 0.09901 0.0
C277 C 0.71461 0.54879 0.11107 0.0
C278 C 0.72363 0.55399 0.13042 0.0
C279 C 0.67456 0.5472 0.10453 0.0
C280 C 0.73221 0.53512 0.07809 0.0
C281 C 0.67187 0.58545 0.10242 0.0
C282 C 0.63171 0.58259 0.09932 0.0
C283 C 0.59406 0.54148 0.09868 0.0
C284 C 0.59713 0.50349 0.09997 0.0
C285 C 0.63725 0.50633 0.1028 0.0
H286 H 0.75982 0.53646 0.07 0.0
H287 H 0.70255 0.50293 0.07658 0.0
H288 H 0.7261 0.56106 0.07163 0.0
H289 H 0.70039 0.61716 0.10393 0.0
H290 H 0.62946 0.61204 0.09852 0.0
H291 H 0.43049 0.91173 0.52187 0.0
H292 H 0.35802 0.8527 0.51484 0.0
H293 H 0.36784 0.92065 0.45971 0.0
H294 H 0.43934 0.98028 0.46682 0.0
H295 H 0.28619 0.882 0.47562 0.0
H296 H 0.34623 0.76402 0.479 0.0
H297 H 0.35057 0.78904 0.50077 0.0
H298 H 0.38227 0.82217 0.47967 0.0
C299 C 0.41695 0.91436 0.50836 0.0
C300 C 0.44093 0.95044 0.49481 0.0
C301 C 0.37565 0.8805 0.50433 0.0
C302 C 0.35806 0.8818 0.48656 0.0
C303 C 0.38091 0.91886 0.47347 0.0
H304 H 0.18418 0.66989 0.42296 0.0
H305 H 0.24494 0.73263 0.43657 0.0
C306 C 0.42187 0.95293 0.47757 0.0
C307 C 0.31728 0.84367 0.48095 0.0
H308 H 0.27268 0.73641 0.47212 0.0
C309 C 0.28304 0.85004 0.47495 0.0
C310 C 0.3136 0.80222 0.47984 0.0
C311 C 0.35022 0.79389 0.48498 0.0
C312 C 0.24552 0.81633 0.46753 0.0
C313 C 0.24179 0.77484 0.46655 0.0
C314 C 0.2756 0.76822 0.47296 0.0
C315 C 0.20445 0.73844 0.4579 0.0
C316 C 0.21118 0.82604 0.46007 0.0
C317 C 0.16159 0.72105 0.46531 0.0
C318 C 0.12698 0.68576 0.4573 0.0
C319 C 0.13494 0.667 0.44205 0.0
C320 C 0.17765 0.68429 0.43467 0.0
C321 C 0.21214 0.71981 0.44248 0.0
H322 H 0.22403 0.86187 0.45736 0.0
H323 H 0.19837 0.81053 0.44661 0.0
H324 H 0.18364 0.81261 0.47086 0.0
H325 H 0.15499 0.73426 0.47744 0.0
H326 H 0.09408 0.6726 0.46312 0.0
H327 H 0.49058 0.46741 0.8048 0.0
H328 H 0.47708 0.39495 0.79885 0.0
H329 H 0.52794 0.38379 0.85347 0.0
H330 H 0.54368 0.45757 0.85906 0.0
H331 H 0.56494 0.36516 0.82784 0.0
H332 H 0.38942 0.27213 0.81549 0.0
H333 H 0.41437 0.32189 0.8 0.0
H334 H 0.41416 0.32425 0.82558 0.0
C335 C 0.49804 0.44917 0.81574 0.0
C336 C 0.51835 0.46822 0.83237 0.0
C337 C 0.4899 0.40745 0.81239 0.0
C338 C 0.50074 0.38341 0.82584 0.0
C339 C 0.51915 0.40161 0.8429 0.0
H340 H 0.45193 0.12643 0.79519 0.0
H341 H 0.44721 0.18259 0.81194 0.0
C342 C 0.52814 0.44375 0.84608 0.0
C343 C 0.4981 0.34214 0.82096 0.0
H344 H 0.434 0.24766 0.80002 0.0
C345 C 0.53594 0.33908 0.82214 0.0
C346 C 0.46014 0.30751 0.81384 0.0
C347 C 0.41716 0.30644 0.81388 0.0
C348 C 0.53766 0.30378 0.81539 0.0
C349 C 0.50112 0.27151 0.80651 0.0
C350 C 0.46239 0.273 0.8064 0.0
C351 C 0.5033 0.23734 0.79646 0.0
C352 C 0.57884 0.30174 0.81775 0.0
C353 C 0.53567 0.24954 0.78197 0.0
C354 C 0.53871 0.21764 0.77277 0.0
C355 C 0.50883 0.1731 0.77756 0.0
C356 C 0.47548 0.16076 0.79152 0.0
C357 C 0.47276 0.1927 0.80097 0.0
H358 H 0.59634 0.31844 0.83037 0.0
H359 H 0.57186 0.26735 0.81945 0.0
H360 H 0.60103 0.31892 0.80494 0.0
H361 H 0.55871 0.28379 0.77781 0.0
H362 H 0.5645 0.22755 0.76195 0.0
H363 H 0.57633 0.90091 0.53912 0.0
H364 H 0.58312 0.83809 0.54966 0.0
H365 H 0.68501 0.87664 0.50627 0.0
H366 H 0.67793 0.94031 0.49519 0.0
H367 H 0.62338 0.7906 0.50692 0.0
H368 H 0.67309 0.82731 0.58052 0.0
H369 H 0.62651 0.83312 0.57622 0.0
H370 H 0.67696 0.86868 0.56258 0.0
C371 C 0.60058 0.89658 0.53182 0.0
C372 C 0.62665 0.92582 0.51627 0.0
C373 C 0.60474 0.86075 0.53806 0.0
C374 C 0.63538 0.85334 0.52912 0.0
C375 C 0.66161 0.88226 0.51356 0.0
H376 H 0.61973 0.61067 0.58094 0.0
H377 H 0.65175 0.68893 0.56994 0.0
C378 C 0.65744 0.91845 0.50722 0.0
C379 C 0.63618 0.81282 0.53516 0.0
H380 H 0.62917 0.74913 0.57555 0.0
C381 C 0.62581 0.78189 0.52184 0.0
C382 C 0.64037 0.80173 0.55453 0.0
C383 C 0.65537 0.83477 0.5692 0.0
C384 C 0.61546 0.73888 0.5277 0.0
C385 C 0.61434 0.7264 0.54744 0.0
C386 C 0.62883 0.75841 0.56049 0.0
C387 C 0.59501 0.67987 0.55489 0.0
C388 C 0.60456 0.70695 0.51275 0.0
C389 C 0.55202 0.64939 0.55078 0.0
C390 C 0.53403 0.60515 0.55702 0.0
C391 C 0.55842 0.5909 0.56775 0.0
C392 C 0.60051 0.62148 0.57277 0.0
C393 C 0.61876 0.66583 0.56639 0.0
H394 H 0.62175 0.7242 0.4988 0.0
H395 H 0.61341 0.68172 0.51714 0.0
H396 H 0.56903 0.69021 0.51054 0.0
H397 H 0.53258 0.65974 0.54249 0.0
H398 H 0.50147 0.58173 0.5531 0.0
H399 H 0.72681 0.63518 0.8599 0.0
H400 H 0.79827 0.642 0.8609 0.0
H401 H 0.82496 0.69235 0.80152 0.0
H402 H 0.7526 0.68587 0.80038 0.0
H403 H 0.83768 0.61766 0.81279 0.0
H404 H 0.92201 0.7531 0.85907 0.0
H405 H 0.86738 0.71445 0.86795 0.0
H406 H 0.87624 0.74571 0.84525 0.0
C407 C 0.7479 0.64813 0.84705 0.0
C408 C 0.73407 0.65983 0.83002 0.0
C409 C 0.7889 0.65235 0.84771 0.0
C410 C 0.81698 0.66821 0.83137 0.0
C411 C 0.80375 0.6805 0.81432 0.0
H412 H 0.05004 0.66358 0.86742 0.0
H413 H 0.00932 0.69007 0.84787 0.0
C414 C 0.7626 0.67682 0.8137 0.0
C415 C 0.85826 0.66787 0.83228 0.0
H416 H 0.94343 0.69767 0.86138 0.0
C417 C 0.86175 0.63611 0.82293 0.0
C418 C 0.8899 0.69244 0.84526 0.0
C419 C 0.88899 0.72868 0.85481 0.0
C420 C 0.89357 0.62514 0.82778 0.0
C421 C 0.92187 0.64608 0.84251 0.0
C422 C 0.92126 0.68107 0.85031 0.0
C423 C 0.94806 0.6287 0.85182 0.0
C424 C 0.89524 0.58987 0.81774 0.0
C425 C 0.92713 0.58549 0.86049 0.0
C426 C 0.95035 0.57044 0.87152 0.0
C427 C -0.00529 0.59846 0.87421 0.0
C428 C 0.0159 0.64138 0.86528 0.0
C429 C 0.99272 0.65645 0.85419 0.0
H430 H 0.88439 0.58931 0.80288 0.0
H431 H 0.9286 0.59462 0.81731 0.0
H432 H 0.87276 0.55742 0.82546 0.0
H433 H 0.89243 0.56389 0.85933 0.0
H434 H 0.93361 0.53724 0.87831 0.0
H435 H 0.08398 0.65243 0.1958 0.0
H436 H 0.14419 0.7245 0.20147 0.0
H437 H 0.20193 0.73617 0.14561 0.0
H438 H 0.14267 0.66273 0.14028 0.0
H439 H 0.25868 0.75147 0.17025 0.0
H440 H 0.18358 0.84893 0.18673 0.0
H441 H 0.15784 0.79853 0.20178 0.0
H442 H 0.1535 0.79755 0.17619 0.0
C443 C 0.10892 0.67078 0.18452 0.0
C444 C 0.10881 0.65186 0.16765 0.0
C445 C 0.14322 0.71229 0.18771 0.0
C446 C 0.17743 0.73623 0.17387 0.0
C447 C 0.1759 0.7184 0.1565 0.0
H448 H 0.39712 0.98573 0.2058 0.0
H449 H 0.33323 0.93312 0.18921 0.0
C450 C 0.14206 0.67645 0.15346 0.0
C451 C 0.21745 0.77637 0.17873 0.0
H452 H 0.25301 0.86953 0.20143 0.0
C453 C 0.25745 0.77773 0.17667 0.0
C454 C 0.21634 0.81122 0.18681 0.0
C455 C 0.1755 0.81417 0.18778 0.0
C456 C 0.29567 0.81139 0.18351 0.0
C457 C 0.29359 0.84368 0.19336 0.0
C458 C 0.25434 0.84409 0.19431 0.0
C459 C 0.33123 0.87572 0.20356 0.0
C460 C 0.3378 0.81161 0.18027 0.0
C461 C 0.35044 0.86085 0.21741 0.0
C462 C 0.38701 0.89071 0.22653 0.0
C463 C 0.40431 0.93584 0.22228 0.0
C464 C 0.3842 0.95088 0.20905 0.0
C465 C 0.34786 0.92098 0.19969 0.0
H466 H 0.33712 0.79546 0.16722 0.0
H467 H 0.36623 0.84551 0.1788 0.0
H468 H 0.34238 0.79297 0.19259 0.0
H469 H 0.33733 0.82608 0.22106 0.0
H470 H 0.40217 0.87874 0.23679 0.0
H471 H 0.52507 0.16239 0.48255 0.0
H472 H 0.50776 0.21961 0.48793 0.0
H473 H 0.62166 0.28366 0.52122 0.0
H474 H 0.63947 0.2273 0.51581 0.0
H475 H 0.49068 0.23693 0.52395 0.0
H476 H 0.6294 0.38554 0.48678 0.0
H477 H 0.61568 0.33082 0.4819 0.0
H478 H 0.64738 0.35537 0.50208 0.0
C479 C 0.54689 0.18913 0.4907 0.0
C480 C 0.5836 0.19023 0.4988 0.0
C481 C 0.5369 0.22171 0.49377 0.0
C482 C 0.56376 0.25608 0.50474 0.0
C483 C 0.60104 0.25792 0.51235 0.0
H484 H 0.57791 0.44307 0.57372 0.0
H485 H 0.58067 0.38696 0.55638 0.0
C486 C 0.61097 0.22543 0.50936 0.0
C487 C 0.55108 0.28784 0.51001 0.0
H488 H 0.59259 0.39732 0.51279 0.0
C489 C 0.51232 0.27203 0.52111 0.0
C490 C 0.57936 0.33353 0.5062 0.0
C491 C 0.62005 0.3523 0.49341 0.0
C492 C 0.50277 0.30086 0.52971 0.0
C493 C 0.53268 0.34634 0.527 0.0
C494 C 0.56999 0.36226 0.51493 0.0
C495 C 0.52828 0.37764 0.53807 0.0
C496 C 0.46231 0.28264 0.5426 0.0
C497 C 0.49752 0.39027 0.53358 0.0
C498 C 0.49582 0.42207 0.54356 0.0
C499 C 0.5248 0.44135 0.55808 0.0
C500 C 0.55486 0.42793 0.56278 0.0
C501 C 0.55664 0.39634 0.55282 0.0
H502 H 0.44353 0.24621 0.54401 0.0
H503 H 0.4713 0.2943 0.55703 0.0
H504 H 0.44093 0.29479 0.53677 0.0
H505 H 0.47561 0.37628 0.52212 0.0
H506 H 0.47263 0.43238 0.53974 0.0
H507 H 0.44914 0.60702 0.88559 0.0
H508 H 0.3787 0.5883 0.90006 0.0
H509 H 0.32556 0.57448 0.84406 0.0
H510 H 0.39538 0.59029 0.82971 0.0
H511 H 0.33871 0.62951 0.89762 0.0
H512 H 0.22811 0.46913 0.87137 0.0
H513 H 0.28655 0.49428 0.86873 0.0
H514 H 0.25701 0.50819 0.85139 0.0
C515 C 0.42218 0.59942 0.87642 0.0
C516 C 0.4275 0.60008 0.85655 0.0
C517 C 0.38193 0.58864 0.8847 0.0
C518 C 0.34642 0.57919 0.87324 0.0
C519 C 0.35186 0.58005 0.85332 0.0
H520 H 0.15028 0.64111 0.88905 0.0
H521 H 0.21748 0.6387 0.88677 0.0
C522 C 0.39187 0.5896 0.84508 0.0
C523 C 0.30506 0.57229 0.88194 0.0
H524 H 0.19452 0.51106 0.88005 0.0
C525 C 0.30721 0.60301 0.89406 0.0
C526 C 0.26378 0.53707 0.87788 0.0
C527 C 0.2588 0.50007 0.86682 0.0
C528 C 0.26941 0.60111 0.90118 0.0
C529 C 0.22838 0.56888 0.8953 0.0
C530 C 0.226 0.53638 0.88427 0.0
C531 C 0.18832 0.57103 0.89863 0.0
C532 C 0.27407 0.63406 0.91476 0.0
C533 C 0.14922 0.53362 0.90571 0.0
C534 C 0.11044 0.53473 0.90641 0.0
C535 C 0.11039 0.57323 0.90005 0.0
C536 C 0.14971 0.61101 0.8938 0.0
C537 C 0.18818 0.60977 0.89281 0.0
H538 H 0.3025 0.6428 0.92378 0.0
H539 H 0.28002 0.66463 0.90642 0.0
H540 H 0.24445 0.62146 0.92428 0.0
H541 H 0.14849 0.50328 0.91017 0.0
H542 H 0.08026 0.50522 0.91118 0.0
H543 H 0.90992 0.3187 0.21008 0.0
H544 H 0.84349 0.25013 0.22024 0.0
H545 H 0.8003 0.24076 0.1625 0.0
H546 H 0.86607 0.31027 0.15234 0.0
H547 H 0.74129 0.23611 0.18661 0.0
H548 H 0.79423 0.12173 0.21592 0.0
H549 H 0.82139 0.17285 0.22649 0.0
H550 H 0.83023 0.17174 0.20133 0.0
C551 C 0.88685 0.3015 0.19942 0.0
C552 C 0.89308 0.32013 0.18042 0.0
C553 C 0.84894 0.26206 0.20525 0.0
C554 C 0.81701 0.24007 0.19211 0.0
C555 C 0.82451 0.25719 0.17288 0.0
H556 H 0.57081 0.99618 0.2169 0.0
H557 H 0.64646 0.05124 0.2069 0.0
C558 C 0.86212 0.29691 0.16709 0.0
C559 C 0.77358 0.2029 0.19887 0.0
H560 H 0.72157 0.10384 0.22547 0.0
C561 C 0.73701 0.20698 0.19492 0.0
C562 C 0.76792 0.16479 0.20964 0.0
C563 C 0.80552 0.15727 0.21342 0.0
C564 C 0.69509 0.17451 0.20171 0.0
C565 C 0.68968 0.13748 0.2133 0.0
C566 C 0.72599 0.13271 0.21689 0.0
C567 C 0.6462 0.10297 0.2213 0.0
C568 C 0.65694 0.17999 0.19617 0.0
C569 C 0.62172 0.11341 0.2333 0.0
C570 C 0.57849 0.08229 0.23868 0.0
C571 C 0.5594 0.04024 0.23235 0.0
C572 C 0.58482 0.02885 0.22153 0.0
C573 C 0.62795 0.06007 0.21597 0.0
H574 H 0.66508 0.20334 0.18324 0.0
H575 H 0.62817 0.14811 0.19335 0.0
H576 H 0.64784 0.19318 0.20806 0.0
H577 H 0.63559 0.14609 0.23792 0.0
H578 H 0.55936 0.09153 0.24712 0.0
H579 H 0.96111 0.42919 0.09047 0.0
H580 H 0.96799 0.43577 0.05556 0.0
H581 H 0.09788 0.54694 0.05692 0.0
H582 H 0.09169 0.54025 0.09179 0.0
H583 H 0.98012 0.5072 0.03255 0.0
H584 H 0.1152 0.47582 0.01873 0.0
H585 H 0.08643 0.46181 0.04174 0.0
H586 H 0.1284 0.5174 0.03478 0.0
C587 C 0.99144 0.45463 0.08338 0.0
C588 C 0.02582 0.48424 0.09397 0.0
C589 C -0.00471 0.45832 0.06342 0.0
C590 C 0.03363 0.4915 0.05363 0.0
C591 C 0.06837 0.52047 0.06416 0.0
H592 H 0.10407 0.60519 0.93635 0.0
H593 H 0.10372 0.58526 0.97074 0.0
C594 C 0.06462 0.51676 0.08413 0.0
C595 C 0.03573 0.49826 0.03246 0.0
H596 H 0.09467 0.5069 0.99218 0.0
C597 C 0.00488 0.50665 0.02371 0.0
C598 C 0.06829 0.49787 0.02097 0.0
C599 C 0.10123 0.48734 0.0295 0.0
C600 C 0.00619 0.5156 0.00384 0.0
C601 C 0.03886 0.51547 0.99236 0.0
C602 C 0.06966 0.50691 0.00105 0.0
C603 C 0.04162 0.52486 0.97133 0.0
C604 C 0.9733 0.52629 0.99533 0.0
C605 C 0.00757 0.4968 0.96025 0.0
C606 C 0.00788 0.50812 0.94074 0.0
C607 C 0.04231 0.5475 0.932 0.0
C608 C 0.0774 0.57455 0.94286 0.0
C609 C 0.07712 0.56324 0.96242 0.0
H610 H 0.95694 0.53476 0.00632 0.0
H611 H 0.98904 0.55411 0.98406 0.0
H612 H 0.94788 0.49733 0.98865 0.0
H613 H 0.98022 0.46671 0.96682 0.0
H614 H 0.98078 0.48674 0.93248 0.0
H615 H 0.5661 0.08538 0.42256 0.0
H616 H 0.5551 0.07614 0.38866 0.0
H617 H 0.62505 0.0059 0.38955 0.0
H618 H 0.63648 0.01498 0.42379 0.0
H619 H 0.64454 0.07486 0.35614 0.0
H620 H 0.46942 0.95067 0.37063 0.0
H621 H 0.48827 0.0 0.38238 0.0
H622 H 0.50935 0.96427 0.38868 0.0
C623 C 0.57949 0.06815 0.41563 0.0
C624 C 0.60181 0.05048 0.42599 0.0
C625 C 0.57312 0.06294 0.39622 0.0
C626 C 0.5888 0.03992 0.38673 0.0
C627 C 0.6126 0.02365 0.39672 0.0
H628 H 0.5519 0.97964 0.26675 0.0
H629 H 0.58026 0.99049 0.29905 0.0
C630 C 0.61902 0.02882 0.41626 0.0
C631 C 0.57823 0.03147 0.3666 0.0
H632 H 0.49166 0.98043 0.33841 0.0
C633 C 0.61128 0.05379 0.35218 0.0
C634 C 0.5348 0.00392 0.36161 0.0
C635 C 0.49838 0.97799 0.37661 0.0
C636 C 0.60156 0.05076 0.33276 0.0
C637 C 0.55782 0.02435 0.3278 0.0
C638 C 0.52512 0.00093 0.34227 0.0
C639 C 0.54457 0.02146 0.30775 0.0
C640 C 0.63771 0.07711 0.31771 0.0
C641 C 0.5153 0.03533 0.302 0.0
C642 C 0.49917 0.02901 0.2837 0.0
C643 C 0.51183 0.00848 0.27095 0.0
C644 C 0.54208 0.99577 0.27644 0.0
C645 C 0.55827 0.00206 0.29478 0.0
H646 H 0.66785 0.10236 0.3239 0.0
H647 H 0.64557 0.05478 0.31066 0.0
H648 H 0.62736 0.09354 0.30654 0.0
H649 H 0.50438 0.05039 0.31181 0.0
H650 H 0.47635 0.03957 0.27955 0.0
H651 H 0.62646 0.66637 0.75265 0.0
H652 H 0.61829 0.65464 0.71876 0.0
H653 H 0.47926 0.5721 0.72886 0.0
H654 H 0.48708 0.58306 0.7629 0.0
H655 H 0.51523 0.53341 0.70929 0.0
H656 H 0.57192 0.70097 0.67554 0.0
H657 H 0.60988 0.69862 0.69173 0.0
H658 H 0.55698 0.68589 0.70073 0.0
C659 C 0.59402 0.64617 0.74767 0.0
C660 C 0.55743 0.62554 0.76055 0.0
C661 C 0.5894 0.63979 0.72823 0.0
C662 C 0.54811 0.61301 0.72124 0.0
C663 C 0.5114 0.59314 0.73395 0.0
H664 H 0.49494 0.56361 0.60092 0.0
H665 H 0.49667 0.58792 0.633 0.0
C666 C 0.51597 0.59944 0.75341 0.0
C667 C 0.54381 0.60254 0.70104 0.0
H668 H 0.56866 0.64858 0.65486 0.0
C669 C 0.52647 0.55856 0.6974 0.0
C670 C 0.55811 0.63533 0.68552 0.0
C671 C 0.57486 0.6828 0.68853 0.0
C672 C 0.52447 0.54664 0.67869 0.0
C673 C 0.54087 0.57966 0.66325 0.0
C674 C 0.55668 0.62346 0.66678 0.0
C675 C 0.54268 0.56905 0.64343 0.0
C676 C 0.50498 0.49876 0.6756 0.0
C677 C 0.56904 0.55187 0.63858 0.0
C678 C 0.56813 0.53826 0.62038 0.0
C679 C 0.54087 0.54162 0.60678 0.0
C680 C 0.51609 0.56076 0.61129 0.0
C681 C 0.51702 0.57447 0.62953 0.0
H682 H 0.48416 0.47709 0.68815 0.0
H683 H 0.48513 0.49054 0.66274 0.0
H684 H 0.53164 0.49165 0.67335 0.0
H685 H 0.58971 0.54825 0.64901 0.0
H686 H 0.58817 0.52445 0.61698 0.0
H687 H 0.65246 0.13083 0.57275 0.0
H688 H 0.6442 0.13587 0.60687 0.0
H689 H 0.53731 0.00235 0.61285 0.0
H690 H 0.54538 -0.00325 0.57879 0.0
H691 H 0.56775 0.12436 0.62485 0.0
H692 H 0.61451 0.00693 0.6576 0.0
H693 H 0.62869 0.02971 0.63299 0.0
H694 H 0.57455 0.98557 0.63975 0.0
C695 C 0.62752 0.1023 0.58134 0.0
C696 C 0.59951 0.06339 0.573 0.0
C697 C 0.62287 0.10529 0.60084 0.0
C698 C 0.59047 0.06935 0.61239 0.0
C699 C 0.56303 0.0302 0.60423 0.0
H700 H 0.46893 0.06891 0.71911 0.0
H701 H 0.48545 0.05871 0.68654 0.0
C702 C 0.56753 0.0272 0.58472 0.0
C703 C 0.58322 0.07389 0.63263 0.0
H704 H 0.58095 0.03251 0.67848 0.0
C705 C 0.57087 0.10447 0.63658 0.0
C706 C 0.58762 0.04806 0.64788 0.0
C707 C 0.60244 0.01596 0.64443 0.0
C708 C 0.56186 0.10928 0.65539 0.0
C709 C 0.56489 0.08249 0.67059 0.0
C710 C 0.57824 0.05262 0.66673 0.0
C711 C 0.55435 0.0854 0.69059 0.0
C712 C 0.54933 0.14312 0.6589 0.0
C713 C 0.58742 0.10257 0.7037 0.0
C714 C 0.578 0.10867 0.72216 0.0
C715 C 0.53543 0.09743 0.72772 0.0
C716 C 0.50208 0.07857 0.71487 0.0
C717 C 0.51148 0.07263 0.6964 0.0
H718 H 0.55743 0.16718 0.64624 0.0
H719 H 0.51367 0.12641 0.66212 0.0
H720 H 0.56607 0.16114 0.67136 0.0
H721 H 0.62067 0.11247 0.69946 0.0
H722 H 0.60407 0.12331 0.73194 0.0
H723 H 0.60013 0.69886 0.90867 0.0
H724 H 0.60341 0.69625 0.94349 0.0
H725 H 0.61287 0.57947 0.94422 0.0
H726 H 0.61023 0.58204 0.90946 0.0
H727 H 0.54221 0.62778 0.96772 0.0
H728 H 0.70619 0.65165 0.98074 0.0
H729 H 0.69158 0.66546 0.95769 0.0
H730 H 0.67579 0.60953 0.96518 0.0
C731 C 0.60365 0.67301 0.91619 0.0
C732 C 0.60474 0.64054 0.90625 0.0
C733 C 0.60557 0.67163 0.93609 0.0
C734 C 0.60897 0.63802 0.94641 0.0
C735 C 0.61127 0.60628 0.93651 0.0
H736 H 0.56102 0.51638 0.06045 0.0
H737 H 0.58472 0.54301 0.0268 0.0
C738 C 0.60936 0.60761 0.91662 0.0
C739 C 0.60537 0.63331 0.96758 0.0
H740 H 0.65437 0.62116 0.00752 0.0
C741 C 0.56703 0.62706 0.97646 0.0
C742 C 0.63772 0.63213 0.97889 0.0
C743 C 0.68033 0.64047 0.97016 0.0
C744 C 0.55928 0.61781 0.99632 0.0
C745 C 0.59119 0.61564 0.00762 0.0
C746 C 0.63004 0.62294 0.9988 0.0
C747 C 0.5833 0.60305 0.02845 0.0
C748 C 0.51613 0.60846 0.00492 0.0
C749 C 0.5763 0.62879 0.04062 0.0
C750 C 0.56274 0.61352 0.05974 0.0
C751 C 0.55642 0.5726 0.06695 0.0
C752 C 0.56601 0.54815 0.05511 0.0
C753 C 0.5794 0.56329 0.03596 0.0
H754 H 0.49172 0.6021 0.9939 0.0
H755 H 0.5026 0.57966 0.01573 0.0
H756 H 0.52101 0.63724 0.01216 0.0
H757 H 0.57991 0.65994 0.03515 0.0
H758 H 0.55589 0.63293 0.0688 0.0
H759 H 0.01551 0.44841 0.24827 0.0
H760 H 0.01702 0.45842 0.28231 0.0
H761 H 0.96139 0.54147 0.2722 0.0
H762 H 0.96044 0.53233 0.23803 0.0
H763 H 0.03468 0.57885 0.29268 0.0
H764 H 0.92185 0.40962 0.32447 0.0
H765 H 0.9638 0.41341 0.30881 0.0
H766 H 0.92393 0.42589 0.29929 0.0
C767 C 0.00301 0.46834 0.25328 0.0
C768 C 0.98796 0.48967 0.24036 0.0
C769 C 0.0036 0.47375 0.2728 0.0
C770 C 0.98873 0.50017 0.27984 0.0
C771 C 0.97278 0.52071 0.26707 0.0
H772 H 0.00646 0.60088 0.39119 0.0
H773 H 0.98504 0.57824 0.35887 0.0
C774 C 0.97229 0.51545 0.24753 0.0
C775 C 0.99342 0.50949 0.30019 0.0
H776 H 0.96776 0.46127 0.34602 0.0
C777 C 0.01961 0.5532 0.30434 0.0
C778 C 0.97392 0.47593 0.31537 0.0
C779 C 0.94396 0.42862 0.3118 0.0
C780 C 0.02784 0.56418 0.32325 0.0
C781 C 0.00881 0.53059 0.33842 0.0
C782 C 0.98224 0.4869 0.33432 0.0
C783 C 0.01745 0.54037 0.35858 0.0
C784 C 0.05799 0.61151 0.32682 0.0
C785 C 0.04122 0.52513 0.36932 0.0
C786 C 0.0534 0.5381 0.38768 0.0
C787 C 0.04184 0.56631 0.39551 0.0
C788 C 0.01627 0.57976 0.38516 0.0
C789 C 0.00407 0.56683 0.36681 0.0
H790 H 0.07725 0.63163 0.31367 0.0
H791 H 0.0384 0.62558 0.33181 0.0
H792 H 0.08087 0.61414 0.33809 0.0
H793 H 0.05171 0.50458 0.36323 0.0
H794 H 0.07317 0.52751 0.39553 0.0
loop_
_geom_bond_atom_site_label_1
_geom_bond_atom_site_label_2
_geom_bond_distance
_geom_bond_site_symmetry_2
_ccdc_geom_bond_type
O0 Zn1 1.953 . S
O0 C16 1.225 . S
Zn1 O0 1.953 . S
Zn1 O2 1.949 . S
Zn1 O8 1.919 1_455 S
Zn1 O13 1.924 . S
O2 Zn1 1.949 . S
O2 Zn3 1.923 1_455 S
O2 Zn4 1.950 . S
O2 Zn5 1.945 . S
Zn3 O2 1.923 1_655 S
Zn3 O6 1.933 . S
Zn3 O9 1.941 . S
Zn3 O10 1.965 . S
Zn4 O2 1.950 . S
Zn4 O11 1.938 1_455 S
Zn4 O12 1.906 . S
Zn4 O22 1.953 . S
Zn5 O2 1.945 . S
Zn5 O7 1.932 . S
Zn5 O14 1.977 . S
Zn5 O15 1.910 . S
O6 Zn3 1.933 . S
O6 C17 1.226 1_655 S
O7 Zn5 1.932 . S
O7 C17 1.307 . S
O8 Zn1 1.919 1_655 S
O8 C19 1.253 . S
O9 Zn3 1.941 . S
O9 C19 1.283 . S
O10 Zn3 1.965 . S
O10 C18 1.303 . S
O11 Zn4 1.938 1_655 S
O11 C18 1.247 . S
O12 Zn4 1.906 . S
O12 C20 1.304 . S
O13 Zn1 1.924 . S
O13 C21 1.311 . S
O14 Zn5 1.977 . S
O14 C20 1.272 . S
O15 Zn5 1.910 . S
O15 C21 1.231 . S
C16 O0 1.225 . S
C16 O22 1.298 . S
C17 O6 1.226 1_455 S
C17 O7 1.307 . S
C18 O10 1.303 . S
C18 O11 1.247 . S
C19 O8 1.253 . S
C19 O9 1.283 . S
C20 O12 1.304 . S
C20 O14 1.272 . S
C21 O13 1.311 . S
C21 O15 1.231 . S
O22 Zn4 1.953 . S
O22 C16 1.298 . S
O23 Zn24 1.953 . S
O23 C39 1.225 . S
Zn24 O23 1.953 . S
Zn24 O25 1.949 . S
Zn24 O31 1.919 . S
Zn24 O36 1.924 . S
O25 Zn24 1.949 . S
O25 Zn26 1.923 . S
O25 Zn27 1.950 . S
O25 Zn28 1.945 . S
Zn26 O25 1.923 . S
Zn26 O29 1.933 . S
Zn26 O32 1.941 . S
Zn26 O33 1.965 . S
Zn27 O25 1.950 . S
Zn27 O34 1.938 . S
Zn27 O35 1.906 . S
Zn27 O45 1.953 . S
Zn28 O25 1.945 . S
Zn28 O30 1.932 . S
Zn28 O37 1.977 1_545 S
Zn28 O38 1.910 1_545 S
O29 Zn26 1.933 . S
O29 C40 1.226 . S
O30 Zn28 1.932 . S
O30 C40 1.307 . S
O31 Zn24 1.919 . S
O31 C42 1.253 . S
O32 Zn26 1.941 . S
O32 C42 1.283 . S
O33 Zn26 1.965 . S
O33 C41 1.303 . S
O34 Zn27 1.938 . S
O34 C41 1.247 . S
O35 Zn27 1.906 . S
O35 C43 1.304 1_545 S
O36 Zn24 1.924 . S
O36 C44 1.311 1_545 S
O37 Zn28 1.977 1_565 S
O37 C43 1.272 . S
O38 Zn28 1.910 1_565 S
O38 C44 1.231 . S
C39 O23 1.225 . S
C39 O45 1.298 . S
C40 O29 1.226 . S
C40 O30 1.307 . S
C41 O33 1.303 . S
C41 O34 1.247 . S
C42 O31 1.253 . S
C42 O32 1.283 . S
C43 O35 1.304 1_565 S
C43 O37 1.272 . S
C44 O36 1.311 1_565 S
C44 O38 1.231 . S
O45 Zn27 1.953 . S
O45 C39 1.298 . S
O46 Zn47 1.953 . S
O46 C62 1.225 . S
Zn47 O46 1.953 . S
Zn47 O48 1.949 . S
Zn47 O54 1.919 . S
Zn47 O59 1.924 . S
O48 Zn47 1.949 . S
O48 Zn49 1.923 . S
O48 Zn50 1.950 . S
O48 Zn51 1.945 . S
Zn49 O48 1.923 . S
Zn49 O52 1.933 . S
Zn49 O55 1.941 . S
Zn49 O56 1.965 . S
Zn50 O48 1.950 . S
Zn50 O57 1.938 . S
Zn50 O58 1.906 . S
Zn50 O68 1.953 . S
Zn51 O48 1.945 . S
Zn51 O53 1.932 . S
Zn51 O60 1.977 . S
Zn51 O61 1.910 . S
O52 Zn49 1.933 . S
O52 C63 1.226 . S
O53 Zn51 1.932 . S
O53 C63 1.307 . S
O54 Zn47 1.919 . S
O54 C65 1.253 . S
O55 Zn49 1.941 . S
O55 C65 1.283 . S
O56 Zn49 1.965 . S
O56 C64 1.303 . S
O57 Zn50 1.938 . S
O57 C64 1.247 . S
O58 Zn50 1.906 . S
O58 C66 1.304 . S
O59 Zn47 1.924 . S
O59 C67 1.311 . S
O60 Zn51 1.977 . S
O60 C66 1.272 . S
O61 Zn51 1.910 . S
O61 C67 1.231 . S
C62 O46 1.225 . S
C62 O68 1.298 . S
C63 O52 1.226 . S
C63 O53 1.307 . S
C64 O56 1.303 . S
C64 O57 1.247 . S
C65 O54 1.253 . S
C65 O55 1.283 . S
C66 O58 1.304 . S
C66 O60 1.272 . S
C67 O59 1.311 . S
C67 O61 1.231 . S
O68 Zn50 1.953 . S
O68 C62 1.298 . S
C69 N70 1.317 . S
C69 N71 1.348 1_545 S
C69 C72 1.485 . S
N70 C69 1.317 . S
N70 N74 1.370 . S
N71 C69 1.348 1_565 S
N71 C73 1.346 . S
C72 C69 1.485 . S
C72 H76 0.960 . S
C72 H77 0.961 . S
C72 H78 0.960 . S
C73 N71 1.346 . S
C73 N74 1.307 1_565 S
C73 C75 1.486 . S
N74 N70 1.370 . S
N74 C73 1.307 1_545 S
C75 C73 1.486 . S
C75 H79 0.960 . S
C75 H80 0.960 . S
C75 H81 0.959 . S
H76 C72 0.960 . S
H77 C72 0.961 . S
H78 C72 0.960 . S
H79 C75 0.960 . S
H80 C75 0.960 . S
H81 C75 0.959 . S
C82 N83 1.317 . S
C82 N84 1.348 . S
C82 C85 1.485 . S
N83 C82 1.317 . S
N83 N87 1.370 . S
N84 C82 1.348 . S
N84 C86 1.346 . S
C85 C82 1.485 . S
C85 H89 0.960 . S
C85 H90 0.961 . S
C85 H91 0.960 . S
C86 N84 1.346 . S
C86 N87 1.307 . S
C86 C88 1.486 . S
N87 N83 1.370 . S
N87 C86 1.307 . S
C88 C86 1.486 . S
C88 H92 0.960 . S
C88 H93 0.960 . S
C88 H94 0.959 . S
H89 C85 0.960 . S
H90 C85 0.961 . S
H91 C85 0.960 . S
H92 C88 0.960 . S
H93 C88 0.960 . S
H94 C88 0.959 . S
C95 N96 1.317 . S
C95 N97 1.348 . S
C95 C98 1.485 . S
N96 C95 1.317 . S
N96 N100 1.370 . S
N97 C95 1.348 . S
N97 C99 1.346 . S
C98 C95 1.485 . S
C98 H102 0.960 . S
C98 H103 0.961 . S
C98 H104 0.960 . S
C99 N97 1.346 . S
C99 N100 1.307 . S
C99 C101 1.486 1_455 S
N100 N96 1.370 . S
N100 C99 1.307 . S
C101 C99 1.486 1_655 S
C101 H105 0.960 . S
C101 H106 0.960 . S
C101 H107 0.959 . S
H102 C98 0.960 . S
H103 C98 0.961 . S
H104 C98 0.960 . S
H105 C101 0.960 . S
H106 C101 0.960 . S
H107 C101 0.959 . S
C108 N109 1.317 . S
C108 N110 1.348 . S
C108 C111 1.485 . S
N109 C108 1.317 . S
N109 N113 1.370 . S
N110 C108 1.348 . S
N110 C112 1.346 . S
C111 C108 1.485 . S
C111 H115 0.960 . S
C111 H116 0.961 . S
C111 H117 0.960 . S
C112 N110 1.346 . S
C112 N113 1.307 . S
C112 C114 1.486 . S
N113 N109 1.370 . S
N113 C112 1.307 . S
C114 C112 1.486 . S
C114 H118 0.960 . S
C114 H119 0.960 . S
C114 H120 0.959 . S
H115 C111 0.960 . S
H116 C111 0.961 . S
H117 C111 0.960 . S
H118 C114 0.960 . S
H119 C114 0.960 . S
H120 C114 0.959 . S
C121 N122 1.317 . S
C121 N123 1.348 . S
C121 C124 1.485 . S
N122 C121 1.317 . S
N122 N126 1.370 . S
N123 C121 1.348 . S
N123 C125 1.346 . S
C124 C121 1.485 . S
C124 H128 0.960 . S
C124 H129 0.961 . S
C124 H130 0.960 . S
C125 N123 1.346 . S
C125 N126 1.307 . S
C125 C127 1.486 . S
N126 N122 1.370 . S
N126 C125 1.307 . S
C127 C125 1.486 . S
C127 H131 0.960 . S
C127 H132 0.960 . S
C127 H133 0.959 . S
H128 C124 0.960 . S
H129 C124 0.961 . S
H130 C124 0.960 . S
H131 C127 0.960 . S
H132 C127 0.960 . S
H133 C127 0.959 . S
C134 N135 1.317 . S
C134 N136 1.348 . S
C134 C137 1.485 . S
N135 C134 1.317 . S
N135 N139 1.370 . S
N136 C134 1.348 . S
N136 C138 1.346 . S
C137 C134 1.485 . S
C137 H141 0.960 . S
C137 H142 0.961 . S
C137 H143 0.960 . S
C138 N136 1.346 . S
C138 N139 1.307 . S
C138 C140 1.486 . S
N139 N135 1.370 . S
N139 C138 1.307 . S
C140 C138 1.486 . S
C140 H144 0.960 . S
C140 H145 0.960 . S
C140 H146 0.959 . S
H141 C137 0.960 . S
H142 C137 0.961 . S
H143 C137 0.960 . S
H144 C140 0.960 . S
H145 C140 0.960 . S
H146 C140 0.959 . S
H147 C155 0.929 . S
H148 C157 0.930 . S
H149 C159 0.930 . S
H150 C162 0.929 . S
H151 C165 0.930 . S
H152 C167 0.960 . S
H153 C167 0.960 . S
H154 C167 0.960 . S
C155 H147 0.929 . S
C155 C156 1.377 . S
C155 C157 1.384 . S
C156 C155 1.377 . S
C156 C162 1.390 . S
C157 H148 0.930 . S
C157 C155 1.384 . S
C157 C158 1.372 . S
C158 C157 1.372 . S
C158 C159 1.400 . S
C158 C163 1.490 . S
C159 H149 0.930 . S
C159 C158 1.400 . S
C159 C162 1.386 . S
H160 C176 0.930 . S
H161 C177 0.931 . S
C162 H150 0.929 . S
C162 C156 1.390 . S
C162 C159 1.386 . S
C163 C158 1.490 . S
C163 C165 1.395 . S
C163 C166 1.403 . S
H164 C170 0.930 . S
C165 H151 0.930 . S
C165 C163 1.395 . S
C165 C168 1.403 . S
C166 C163 1.403 . S
C166 C167 1.524 . S
C166 C170 1.400 . S
C167 H152 0.960 . S
C167 H153 0.960 . S
C167 H154 0.960 . S
C167 C166 1.524 . S
C168 C165 1.403 . S
C168 C169 1.392 . S
C168 C172 1.495 . S
C169 C168 1.392 . S
C169 C170 1.385 . S
C169 C171 1.478 . S
C170 H164 0.930 . S
C170 C166 1.400 . S
C170 C169 1.385 . S
C171 C169 1.478 . S
C171 C173 1.381 . S
C171 C177 1.383 . S
C172 C168 1.495 . S
C172 H178 0.959 . S
C172 H179 0.961 . S
C172 H180 0.960 . S
C173 C171 1.381 . S
C173 C174 1.394 . S
C173 H181 0.930 . S
C174 C173 1.394 . S
C174 C175 1.383 . S
C174 H182 0.929 . S
C175 C174 1.383 . S
C175 C176 1.377 . S
C176 H160 0.930 . S
C176 C175 1.377 . S
C176 C177 1.379 . S
C177 H161 0.931 . S
C177 C171 1.383 . S
C177 C176 1.379 . S
H178 C172 0.959 . S
H179 C172 0.961 . S
H180 C172 0.960 . S
H181 C173 0.930 . S
H182 C174 0.929 . S
H183 C191 0.929 . S
H184 C193 0.930 . S
H185 C195 0.930 . S
H186 C198 0.929 . S
H187 C201 0.930 . S
H188 C203 0.960 . S
H189 C203 0.960 . S
H190 C203 0.960 . S
C191 H183 0.929 . S
C191 C192 1.377 . S
C191 C193 1.384 . S
C192 C191 1.377 . S
C192 C198 1.390 . S
C193 H184 0.930 . S
C193 C191 1.384 . S
C193 C194 1.372 . S
C194 C193 1.372 . S
C194 C195 1.400 . S
C194 C199 1.490 . S
C195 H185 0.930 . S
C195 C194 1.400 . S
C195 C198 1.386 . S
H196 C212 0.930 . S
H197 C213 0.931 . S
C198 H186 0.929 . S
C198 C192 1.390 . S
C198 C195 1.386 . S
C199 C194 1.490 . S
C199 C201 1.395 . S
C199 C202 1.403 . S
H200 C206 0.930 . S
C201 H187 0.930 . S
C201 C199 1.395 . S
C201 C204 1.403 . S
C202 C199 1.403 . S
C202 C203 1.524 . S
C202 C206 1.400 . S
C203 H188 0.960 . S
C203 H189 0.960 . S
C203 H190 0.960 . S
C203 C202 1.524 . S
C204 C201 1.403 . S
C204 C205 1.392 . S
C204 C208 1.495 . S
C205 C204 1.392 . S
C205 C206 1.385 . S
C205 C207 1.478 . S
C206 H200 0.930 . S
C206 C202 1.400 . S
C206 C205 1.385 . S
C207 C205 1.478 . S
C207 C209 1.381 . S
C207 C213 1.383 . S
C208 C204 1.495 . S
C208 H214 0.959 . S
C208 H215 0.961 . S
C208 H216 0.960 . S
C209 C207 1.381 . S
C209 C210 1.394 . S
C209 H217 0.930 . S
C210 C209 1.394 . S
C210 C211 1.383 1_655 S
C210 H218 0.929 . S
C211 C210 1.383 1_455 S
C211 C212 1.377 . S
C212 H196 0.930 . S
C212 C211 1.377 . S
C212 C213 1.379 1_455 S
C213 H197 0.931 . S
C213 C207 1.383 . S
C213 C212 1.379 1_655 S
H214 C208 0.959 . S
H215 C208 0.961 . S
H216 C208 0.960 . S
H217 C209 0.930 . S
H218 C210 0.929 . S
H219 C227 0.929 . S
H220 C229 0.930 . S
H221 C231 0.930 . S
H222 C234 0.929 . S
H223 C237 0.930 . S
H224 C239 0.960 . S
H225 C239 0.960 . S
H226 C239 0.960 . S
C227 H219 0.929 . S
C227 C228 1.377 . S
C227 C229 1.384 . S
C228 C227 1.377 . S
C228 C234 1.390 . S
C229 H220 0.930 . S
C229 C227 1.384 . S
C229 C230 1.372 . S
C230 C229 1.372 . S
C230 C231 1.400 . S
C230 C235 1.490 . S
C231 H221 0.930 . S
C231 C230 1.400 . S
C231 C234 1.386 . S
H232 C248 0.930 . S
H233 C249 0.931 . S
C234 H222 0.929 . S
C234 C228 1.390 . S
C234 C231 1.386 . S
C235 C230 1.490 . S
C235 C237 1.395 . S
C235 C238 1.403 . S
H236 C242 0.930 . S
C237 H223 0.930 . S
C237 C235 1.395 . S
C237 C240 1.403 . S
C238 C235 1.403 . S
C238 C239 1.524 . S
C238 C242 1.400 . S
C239 H224 0.960 . S
C239 H225 0.960 . S
C239 H226 0.960 . S
C239 C238 1.524 . S
C240 C237 1.403 . S
C240 C241 1.392 . S
C240 C244 1.495 . S
C241 C240 1.392 . S
C241 C242 1.385 . S
C241 C243 1.478 . S
C242 H236 0.930 . S
C242 C238 1.400 . S
C242 C241 1.385 . S
C243 C241 1.478 . S
C243 C245 1.381 1_565 S
C243 C249 1.383 . S
C244 C240 1.495 . S
C244 H250 0.959 . S
C244 H251 0.961 . S
C244 H252 0.982 . S
C245 C243 1.381 1_545 S
C245 C246 1.394 . S
C245 H253 0.930 . S
C246 C245 1.394 . S
C246 C247 1.383 . S
C246 H254 0.929 . S
C247 C246 1.383 . S
C247 C248 1.377 1_545 S
C248 H232 0.930 . S
C248 C247 1.377 1_565 S
C248 C249 1.379 . S
C249 H233 0.931 . S
C249 C243 1.383 . S
C249 C248 1.379 . S
H250 C244 0.959 . S
H251 C244 0.961 . S
H252 C244 0.982 . S
H253 C245 0.930 . S
H254 C246 0.929 . S
H255 C263 0.929 . S
H256 C265 0.930 . S
H257 C267 0.930 . S
H258 C270 0.929 . S
H259 C273 0.930 . S
H260 C275 0.960 . S
H261 C275 0.960 . S
H262 C275 0.960 . S
C263 H255 0.929 . S
C263 C264 1.377 . S
C263 C265 1.384 . S
C264 C263 1.377 . S
C264 C270 1.390 . S
C265 H256 0.930 . S
C265 C263 1.384 . S
C265 C266 1.372 . S
C266 C265 1.372 . S
C266 C267 1.400 . S
C266 C271 1.490 . S
C267 H257 0.930 . S
C267 C266 1.400 . S
C267 C270 1.386 . S
H268 C284 0.930 . S
H269 C285 0.931 . S
C270 H258 0.929 . S
C270 C264 1.390 . S
C270 C267 1.386 . S
C271 C266 1.490 . S
C271 C273 1.395 . S
C271 C274 1.403 . S
H272 C278 0.930 . S
C273 H259 0.930 . S
C273 C271 1.395 . S
C273 C276 1.403 . S
C274 C271 1.403 . S
C274 C275 1.524 . S
C274 C278 1.400 . S
C275 H260 0.960 . S
C275 H261 0.960 . S
C275 H262 0.960 . S
C275 C274 1.524 . S
C276 C273 1.403 . S
C276 C277 1.392 . S
C276 C280 1.495 . S
C277 C276 1.392 . S
C277 C278 1.385 . S
C277 C279 1.478 . S
C278 H272 0.930 . S
C278 C274 1.400 . S
C278 C277 1.385 . S
C279 C277 1.478 . S
C279 C281 1.381 . S
C279 C285 1.383 . S
C280 C276 1.495 . S
C280 H286 0.959 . S
C280 H287 0.961 . S
C280 H288 0.960 . S
C281 C279 1.381 . S
C281 C282 1.394 . S
C281 H289 0.930 . S
C282 C281 1.394 . S
C282 C283 1.383 . S
C282 H290 0.929 . S
C283 C282 1.383 . S
C283 C284 1.377 . S
C284 H268 0.930 . S
C284 C283 1.377 . S
C284 C285 1.379 . S
C285 H269 0.931 . S
C285 C279 1.383 . S
C285 C284 1.379 . S
H286 C280 0.959 . S
H287 C280 0.961 . S
H288 C280 0.960 . S
H289 C281 0.930 . S
H290 C282 0.929 . S
H291 C299 0.929 . S
H292 C301 0.930 . S
H293 C303 0.930 . S
H294 C306 0.929 . S
H295 C309 0.930 . S
H296 C311 0.960 . S
H297 C311 0.960 . S
H298 C311 0.960 . S
C299 H291 0.929 . S
C299 C300 1.377 . S
C299 C301 1.384 . S
C300 C299 1.377 . S
C300 C306 1.390 . S
C301 H292 0.930 . S
C301 C299 1.384 . S
C301 C302 1.372 . S
C302 C301 1.372 . S
C302 C303 1.400 . S
C302 C307 1.490 . S
C303 H293 0.930 . S
C303 C302 1.400 . S
C303 C306 1.386 . S
H304 C320 0.930 . S
H305 C321 0.931 . S
C306 H294 0.929 . S
C306 C300 1.390 . S
C306 C303 1.386 . S
C307 C302 1.490 . S
C307 C309 1.395 . S
C307 C310 1.403 . S
H308 C314 0.930 . S
C309 H295 0.930 . S
C309 C307 1.395 . S
C309 C312 1.403 . S
C310 C307 1.403 . S
C310 C311 1.524 . S
C310 C314 1.400 . S
C311 H296 0.960 . S
C311 H297 0.960 . S
C311 H298 0.960 . S
C311 C310 1.524 . S
C312 C309 1.403 . S
C312 C313 1.392 . S
C312 C316 1.495 . S
C313 C312 1.392 . S
C313 C314 1.385 . S
C313 C315 1.478 . S
C314 H308 0.930 . S
C314 C310 1.400 . S
C314 C313 1.385 . S
C315 C313 1.478 . S
C315 C317 1.381 . S
C315 C321 1.383 . S
C316 C312 1.495 . S
C316 H322 0.959 . S
C316 H323 0.961 . S
C316 H324 0.960 . S
C317 C315 1.381 . S
C317 C318 1.394 . S
C317 H325 0.930 . S
C318 C317 1.394 . S
C318 C319 1.383 . S
C318 H326 0.929 . S
C319 C318 1.383 . S
C319 C320 1.377 . S
C320 H304 0.930 . S
C320 C319 1.377 . S
C320 C321 1.379 . S
C321 H305 0.931 . S
C321 C315 1.383 . S
C321 C320 1.379 . S
H322 C316 0.959 . S
H323 C316 0.961 . S
H324 C316 0.960 . S
H325 C317 0.930 . S
H326 C318 0.929 . S
H327 C335 0.929 . S
H328 C337 0.930 . S
H329 C339 0.930 . S
H330 C342 0.929 . S
H331 C345 0.930 . S
H332 C347 0.960 . S
H333 C347 0.960 . S
H334 C347 0.960 . S
C335 H327 0.929 . S
C335 C336 1.377 . S
C335 C337 1.384 . S
C336 C335 1.377 . S
C336 C342 1.390 . S
C337 H328 0.930 . S
C337 C335 1.384 . S
C337 C338 1.372 . S
C338 C337 1.372 . S
C338 C339 1.400 . S
C338 C343 1.490 . S
C339 H329 0.930 . S
C339 C338 1.400 . S
C339 C342 1.386 . S
H340 C356 0.930 . S
H341 C357 0.931 . S
C342 H330 0.929 . S
C342 C336 1.390 . S
C342 C339 1.386 . S
C343 C338 1.490 . S
C343 C345 1.395 . S
C343 C346 1.403 . S
H344 C350 0.930 . S
C345 H331 0.930 . S
C345 C343 1.395 . S
C345 C348 1.403 . S
C346 C343 1.403 . S
C346 C347 1.524 . S
C346 C350 1.400 . S
C347 H332 0.960 . S
C347 H333 0.960 . S
C347 H334 0.960 . S
C347 C346 1.524 . S
C348 C345 1.403 . S
C348 C349 1.392 . S
C348 C352 1.495 . S
C349 C348 1.392 . S
C349 C350 1.385 . S
C349 C351 1.478 . S
C350 H344 0.930 . S
C350 C346 1.400 . S
C350 C349 1.385 . S
C351 C349 1.478 . S
C351 C353 1.381 . S
C351 C357 1.383 . S
C352 C348 1.495 . S
C352 H358 0.959 . S
C352 H359 0.961 . S
C352 H360 0.960 . S
C353 C351 1.381 . S
C353 C354 1.394 . S
C353 H361 0.930 . S
C354 C353 1.394 . S
C354 C355 1.383 . S
C354 H362 0.929 . S
C355 C354 1.383 . S
C355 C356 1.377 . S
C356 H340 0.930 . S
C356 C355 1.377 . S
C356 C357 1.379 . S
C357 H341 0.931 . S
C357 C351 1.383 . S
C357 C356 1.379 . S
H358 C352 0.959 . S
H359 C352 0.961 . S
H360 C352 0.960 . S
H361 C353 0.930 . S
H362 C354 0.929 . S
H363 C371 0.929 . S
H364 C373 0.930 . S
H365 C375 0.930 . S
H366 C378 0.929 . S
H367 C381 0.930 . S
H368 C383 0.960 . S
H369 C383 0.960 . S
H370 C383 0.960 . S
C371 H363 0.929 . S
C371 C372 1.377 . S
C371 C373 1.384 . S
C372 C371 1.377 . S
C372 C378 1.390 . S
C373 H364 0.930 . S
C373 C371 1.384 . S
C373 C374 1.372 . S
C374 C373 1.372 . S
C374 C375 1.400 . S
C374 C379 1.490 . S
C375 H365 0.930 . S
C375 C374 1.400 . S
C375 C378 1.386 . S
H376 C392 0.930 . S
H377 C393 0.931 . S
C378 H366 0.929 . S
C378 C372 1.390 . S
C378 C375 1.386 . S
C379 C374 1.490 . S
C379 C381 1.395 . S
C379 C382 1.403 . S
H380 C386 0.930 . S
C381 H367 0.930 . S
C381 C379 1.395 . S
C381 C384 1.403 . S
C382 C379 1.403 . S
C382 C383 1.524 . S
C382 C386 1.400 . S
C383 H368 0.960 . S
C383 H369 0.960 . S
C383 H370 0.960 . S
C383 C382 1.524 . S
C384 C381 1.403 . S
C384 C385 1.392 . S
C384 C388 1.495 . S
C385 C384 1.392 . S
C385 C386 1.385 . S
C385 C387 1.478 . S
C386 H380 0.930 . S
C386 C382 1.400 . S
C386 C385 1.385 . S
C387 C385 1.478 . S
C387 C389 1.381 . S
C387 C393 1.383 . S
C388 C384 1.495 . S
C388 H394 0.959 . S
C388 H395 0.961 . S
C388 H396 0.960 . S
C389 C387 1.381 . S
C389 C390 1.394 . S
C389 H397 0.930 . S
C390 C389 1.394 . S
C390 C391 1.383 . S
C390 H398 0.929 . S
C391 C390 1.383 . S
C391 C392 1.377 . S
C392 H376 0.930 . S
C392 C391 1.377 . S
C392 C393 1.379 . S
C393 H377 0.931 . S
C393 C387 1.383 . S
C393 C392 1.379 . S
H394 C388 0.959 . S
H395 C388 0.961 . S
H396 C388 0.960 . S
H397 C389 0.930 . S
H398 C390 0.929 . S
H399 C407 0.929 . S
H400 C409 0.930 . S
H401 C411 0.930 . S
H402 C414 0.929 . S
H403 C417 0.930 . S
H404 C419 0.960 . S
H405 C419 0.960 . S
H406 C419 0.960 . S
C407 H399 0.929 . S
C407 C408 1.377 . S
C407 C409 1.384 . S
C408 C407 1.377 . S
C408 C414 1.390 . S
C409 H400 0.930 . S
C409 C407 1.384 . S
C409 C410 1.372 . S
C410 C409 1.372 . S
C410 C411 1.400 . S
C410 C415 1.490 . S
C411 H401 0.930 . S
C411 C410 1.400 . S
C411 C414 1.386 . S
H412 C428 0.930 . S
H413 C429 0.931 . S
C414 H402 0.929 . S
C414 C408 1.390 . S
C414 C411 1.386 . S
C415 C410 1.490 . S
C415 C417 1.395 . S
C415 C418 1.403 . S
H416 C422 0.930 . S
C417 H403 0.930 . S
C417 C415 1.395 . S
C417 C420 1.403 . S
C418 C415 1.403 . S
C418 C419 1.524 . S
C418 C422 1.400 . S
C419 H404 0.960 . S
C419 H405 0.960 . S
C419 H406 0.960 . S
C419 C418 1.524 . S
C420 C417 1.403 . S
C420 C421 1.392 . S
C420 C424 1.495 . S
C421 C420 1.392 . S
C421 C422 1.385 . S
C421 C423 1.478 . S
C422 H416 0.930 . S
C422 C418 1.400 . S
C422 C421 1.385 . S
C423 C421 1.478 . S
C423 C425 1.381 . S
C423 C429 1.383 . S
C424 C420 1.495 . S
C424 H430 0.959 . S
C424 H431 0.961 . S
C424 H432 0.960 . S
C425 C423 1.381 . S
C425 C426 1.394 . S
C425 H433 0.930 . S
C426 C425 1.394 . S
C426 C427 1.383 . S
C426 H434 0.929 . S
C427 C426 1.383 . S
C427 C428 1.377 1_655 S
C428 H412 0.930 . S
C428 C427 1.377 1_455 S
C428 C429 1.379 1_455 S
C429 H413 0.931 . S
C429 C423 1.383 . S
C429 C428 1.379 1_655 S
H430 C424 0.959 . S
H431 C424 0.961 . S
H432 C424 0.960 . S
H433 C425 0.930 . S
H434 C426 0.929 . S
H435 C443 0.929 . S
H436 C445 0.930 . S
H437 C447 0.930 . S
H438 C450 0.929 . S
H439 C453 0.930 . S
H440 C455 0.960 . S
H441 C455 0.960 . S
H442 C455 0.960 . S
C443 H435 0.929 . S
C443 C444 1.377 . S
C443 C445 1.384 . S
C444 C443 1.377 . S
C444 C450 1.390 . S
C445 H436 0.930 . S
C445 C443 1.384 . S
C445 C446 1.372 . S
C446 C445 1.372 . S
C446 C447 1.400 . S
C446 C451 1.490 . S
C447 H437 0.930 . S
C447 C446 1.400 . S
C447 C450 1.386 . S
H448 C464 0.930 . S
H449 C465 0.931 . S
C450 H438 0.929 . S
C450 C444 1.390 . S
C450 C447 1.386 . S
C451 C446 1.490 . S
C451 C453 1.395 . S
C451 C454 1.403 . S
H452 C458 0.930 . S
C453 H439 0.930 . S
C453 C451 1.395 . S
C453 C456 1.403 . S
C454 C451 1.403 . S
C454 C455 1.524 . S
C454 C458 1.400 . S
C455 H440 0.960 . S
C455 H441 0.960 . S
C455 H442 0.960 . S
C455 C454 1.524 . S
C456 C453 1.403 . S
C456 C457 1.392 . S
C456 C460 1.495 . S
C457 C456 1.392 . S
C457 C458 1.385 . S
C457 C459 1.478 . S
C458 H452 0.930 . S
C458 C454 1.400 . S
C458 C457 1.385 . S
C459 C457 1.478 . S
C459 C461 1.381 . S
C459 C465 1.383 . S
C460 C456 1.495 . S
C460 H466 0.959 . S
C460 H467 0.961 . S
C460 H468 0.960 . S
C461 C459 1.381 . S
C461 C462 1.394 . S
C461 H469 0.930 . S
C462 C461 1.394 . S
C462 C463 1.383 . S
C462 H470 0.929 . S
C463 C462 1.383 . S
C463 C464 1.377 . S
C464 H448 0.930 . S
C464 C463 1.377 . S
C464 C465 1.379 . S
C465 H449 0.931 . S
C465 C459 1.383 . S
C465 C464 1.379 . S
H466 C460 0.959 . S
H467 C460 0.961 . S
H468 C460 0.960 . S
H469 C461 0.930 . S
H470 C462 0.929 . S
H471 C479 0.929 . S
H472 C481 0.930 . S
H473 C483 0.930 . S
H474 C486 0.929 . S
H475 C489 0.930 . S
H476 C491 0.960 . S
H477 C491 0.960 . S
H478 C491 0.960 . S
C479 H471 0.929 . S
C479 C480 1.377 . S
C479 C481 1.384 . S
C480 C479 1.377 . S
C480 C486 1.390 . S
C481 H472 0.930 . S
C481 C479 1.384 . S
C481 C482 1.372 . S
C482 C481 1.372 . S
C482 C483 1.400 . S
C482 C487 1.490 . S
C483 H473 0.930 . S
C483 C482 1.400 . S
C483 C486 1.386 . S
H484 C500 0.930 . S
H485 C501 0.931 . S
C486 H474 0.929 . S
C486 C480 1.390 . S
C486 C483 1.386 . S
C487 C482 1.490 . S
C487 C489 1.395 . S
C487 C490 1.403 . S
H488 C494 0.930 . S
C489 H475 0.930 . S
C489 C487 1.395 . S
C489 C492 1.403 . S
C490 C487 1.403 . S
C490 C491 1.524 . S
C490 C494 1.400 . S
C491 H476 0.960 . S
C491 H477 0.960 . S
C491 H478 0.960 . S
C491 C490 1.524 . S
C492 C489 1.403 . S
C492 C493 1.392 . S
C492 C496 1.495 . S
C493 C492 1.392 . S
C493 C494 1.385 . S
C493 C495 1.478 . S
C494 H488 0.930 . S
C494 C490 1.400 . S
C494 C493 1.385 . S
C495 C493 1.478 . S
C495 C497 1.381 . S
C495 C501 1.383 . S
C496 C492 1.495 . S
C496 H502 0.959 . S
C496 H503 0.961 . S
C496 H504 0.960 . S
C497 C495 1.381 . S
C497 C498 1.394 . S
C497 H505 0.930 . S
C498 C497 1.394 . S
C498 C499 1.383 . S
C498 H506 0.929 . S
C499 C498 1.383 . S
C499 C500 1.377 . S
C500 H484 0.930 . S
C500 C499 1.377 . S
C500 C501 1.379 . S
C501 H485 0.931 . S
C501 C495 1.383 . S
C501 C500 1.379 . S
H502 C496 0.959 . S
H503 C496 0.961 . S
H504 C496 0.960 . S
H505 C497 0.930 . S
H506 C498 0.929 . S
H507 C515 0.929 . S
H508 C517 0.930 . S
H509 C519 0.930 . S
H510 C522 0.929 . S
H511 C525 0.930 . S
H512 C527 0.960 . S
H513 C527 0.960 . S
H514 C527 0.960 . S
C515 H507 0.929 . S
C515 C516 1.377 . S
C515 C517 1.384 . S
C516 C515 1.377 . S
C516 C522 1.390 . S
C517 H508 0.930 . S
C517 C515 1.384 . S
C517 C518 1.372 . S
C518 C517 1.372 . S
C518 C519 1.400 . S
C518 C523 1.490 . S
C519 H509 0.930 . S
C519 C518 1.400 . S
C519 C522 1.386 . S
H520 C536 0.930 . S
H521 C537 0.931 . S
C522 H510 0.929 . S
C522 C516 1.390 . S
C522 C519 1.386 . S
C523 C518 1.490 . S
C523 C525 1.395 . S
C523 C526 1.403 . S
H524 C530 0.930 . S
C525 H511 0.930 . S
C525 C523 1.395 . S
C525 C528 1.403 . S
C526 C523 1.403 . S
C526 C527 1.524 . S
C526 C530 1.400 . S
C527 H512 0.960 . S
C527 H513 0.960 . S
C527 H514 0.960 . S
C527 C526 1.524 . S
C528 C525 1.403 . S
C528 C529 1.392 . S
C528 C532 1.495 . S
C529 C528 1.392 . S
C529 C530 1.385 . S
C529 C531 1.478 . S
C530 H524 0.930 . S
C530 C526 1.400 . S
C530 C529 1.385 . S
C531 C529 1.478 . S
C531 C533 1.381 . S
C531 C537 1.383 . S
C532 C528 1.495 . S
C532 H538 0.959 . S
C532 H539 0.961 . S
C532 H540 0.960 . S
C533 C531 1.381 . S
C533 C534 1.394 . S
C533 H541 0.930 . S
C534 C533 1.394 . S
C534 C535 1.383 . S
C534 H542 0.929 . S
C535 C534 1.383 . S
C535 C536 1.377 . S
C536 H520 0.930 . S
C536 C535 1.377 . S
C536 C537 1.379 . S
C537 H521 0.931 . S
C537 C531 1.383 . S
C537 C536 1.379 . S
H538 C532 0.959 . S
H539 C532 0.961 . S
H540 C532 0.960 . S
H541 C533 0.930 . S
H542 C534 0.929 . S
H543 C551 0.929 . S
H544 C553 0.930 . S
H545 C555 0.930 . S
H546 C558 0.929 . S
H547 C561 0.930 . S
H548 C563 0.960 . S
H549 C563 0.960 . S
H550 C563 0.960 . S
C551 H543 0.929 . S
C551 C552 1.377 . S
C551 C553 1.384 . S
C552 C551 1.377 . S
C552 C558 1.390 . S
C553 H544 0.930 . S
C553 C551 1.384 . S
C553 C554 1.372 . S
C554 C553 1.372 . S
C554 C555 1.400 . S
C554 C559 1.490 . S
C555 H545 0.930 . S
C555 C554 1.400 . S
C555 C558 1.386 . S
H556 C572 0.930 . S
H557 C573 0.931 . S
C558 H546 0.929 . S
C558 C552 1.390 . S
C558 C555 1.386 . S
C559 C554 1.490 . S
C559 C561 1.395 . S
C559 C562 1.403 . S
H560 C566 0.930 . S
C561 H547 0.930 . S
C561 C559 1.395 . S
C561 C564 1.403 . S
C562 C559 1.403 . S
C562 C563 1.524 . S
C562 C566 1.400 . S
C563 H548 0.960 . S
C563 H549 0.960 . S
C563 H550 0.960 . S
C563 C562 1.524 . S
C564 C561 1.403 . S
C564 C565 1.392 . S
C564 C568 1.495 . S
C565 C564 1.392 . S
C565 C566 1.385 . S
C565 C567 1.478 . S
C566 H560 0.930 . S
C566 C562 1.400 . S
C566 C565 1.385 . S
C567 C565 1.478 . S
C567 C569 1.381 . S
C567 C573 1.383 . S
C568 C564 1.495 . S
C568 H574 0.959 . S
C568 H575 0.961 . S
C568 H576 0.960 . S
C569 C567 1.381 . S
C569 C570 1.394 . S
C569 H577 0.930 . S
C570 C569 1.394 . S
C570 C571 1.383 . S
C570 H578 0.929 . S
C571 C570 1.383 . S
C571 C572 1.377 . S
C572 H556 0.930 . S
C572 C571 1.377 . S
C572 C573 1.379 . S
C573 H557 0.931 . S
C573 C567 1.383 . S
C573 C572 1.379 . S
H574 C568 0.959 . S
H575 C568 0.961 . S
H576 C568 0.960 . S
H577 C569 0.930 . S
H578 C570 0.929 . S
H579 C587 0.929 . S
H580 C589 0.930 . S
H581 C591 0.930 . S
H582 C594 0.929 . S
H583 C597 0.930 1_655 S
H584 C599 0.960 . S
H585 C599 0.960 . S
H586 C599 0.960 . S
C587 H579 0.929 . S
C587 C588 1.377 1_655 S
C587 C589 1.384 . S
C588 C587 1.377 1_455 S
C588 C594 1.390 . S
C589 H580 0.930 . S
C589 C587 1.384 . S
C589 C590 1.372 1_655 S
C590 C589 1.372 1_455 S
C590 C591 1.400 . S
C590 C595 1.490 . S
C591 H581 0.930 . S
C591 C590 1.400 . S
C591 C594 1.386 . S
H592 C608 0.930 . S
H593 C609 0.931 . S
C594 H582 0.929 . S
C594 C588 1.390 . S
C594 C591 1.386 . S
C595 C590 1.490 . S
C595 C597 1.395 . S
C595 C598 1.403 . S
H596 C602 0.930 1_556 S
C597 H583 0.930 1_455 S
C597 C595 1.395 . S
C597 C600 1.403 . S
C598 C595 1.403 . S
C598 C599 1.524 . S
C598 C602 1.400 . S
C599 H584 0.960 . S
C599 H585 0.960 . S
C599 H586 0.960 . S
C599 C598 1.524 . S
C600 C597 1.403 . S
C600 C601 1.392 1_554 S
C600 C604 1.495 1_454 S
C601 C600 1.392 1_556 S
C601 C602 1.385 1_556 S
C601 C603 1.478 . S
C602 H596 0.930 1_554 S
C602 C598 1.400 . S
C602 C601 1.385 1_554 S
C603 C601 1.478 . S
C603 C605 1.381 . S
C603 C609 1.383 . S
C604 C600 1.495 1_656 S
C604 H610 0.959 1_556 S
C604 H611 0.961 . S
C604 H612 0.960 . S
C605 C603 1.381 . S
C605 C606 1.394 . S
C605 H613 0.930 1_455 S
C606 C605 1.394 . S
C606 C607 1.383 . S
C606 H614 0.929 1_455 S
C607 C606 1.383 . S
C607 C608 1.377 . S
C608 H592 0.930 . S
C608 C607 1.377 . S
C608 C609 1.379 . S
C609 H593 0.931 . S
C609 C603 1.383 . S
C609 C608 1.379 . S
H610 C604 0.959 1_554 S
H611 C604 0.961 . S
H612 C604 0.960 . S
H613 C605 0.930 1_655 S
H614 C606 0.929 1_655 S
H615 C623 0.929 . S
H616 C625 0.930 . S
H617 C627 0.930 1_565 S
H618 C630 0.929 1_565 S
H619 C633 0.930 . S
H620 C635 0.960 . S
H621 C635 0.960 . S
H622 C635 0.960 1_565 S
C623 H615 0.929 . S
C623 C624 1.377 . S
C623 C625 1.384 . S
C624 C623 1.377 . S
C624 C630 1.390 . S
C625 H616 0.930 . S
C625 C623 1.384 . S
C625 C626 1.372 . S
C626 C625 1.372 . S
C626 C627 1.400 . S
C626 C631 1.490 . S
C627 H617 0.930 1_545 S
C627 C626 1.400 . S
C627 C630 1.386 . S
H628 C644 0.930 1_565 S
H629 C645 0.931 1_565 S
C630 H618 0.929 1_545 S
C630 C624 1.390 . S
C630 C627 1.386 . S
C631 C626 1.490 . S
C631 C633 1.395 . S
C631 C634 1.403 . S
H632 C638 0.930 . S
C633 H619 0.930 . S
C633 C631 1.395 . S
C633 C636 1.403 . S
C634 C631 1.403 . S
C634 C635 1.524 . S
C634 C638 1.400 . S
C635 H620 0.960 . S
C635 H621 0.960 . S
C635 H622 0.960 1_545 S
C635 C634 1.524 . S
C636 C633 1.403 . S
C636 C637 1.392 . S
C636 C640 1.495 . S
C637 C636 1.392 . S
C637 C638 1.385 . S
C637 C639 1.478 . S
C638 H632 0.930 . S
C638 C634 1.400 . S
C638 C637 1.385 . S
C639 C637 1.478 . S
C639 C641 1.381 . S
C639 C645 1.383 . S
C640 C636 1.495 . S
C640 H646 0.959 . S
C640 H647 0.961 . S
C640 H648 0.960 . S
C641 C639 1.381 . S
C641 C642 1.394 . S
C641 H649 0.930 . S
C642 C641 1.394 . S
C642 C643 1.383 . S
C642 H650 0.929 . S
C643 C642 1.383 . S
C643 C644 1.377 . S
C644 H628 0.930 1_545 S
C644 C643 1.377 . S
C644 C645 1.379 . S
C645 H629 0.931 1_545 S
C645 C639 1.383 . S
C645 C644 1.379 . S
H646 C640 0.959 . S
H647 C640 0.961 . S
H648 C640 0.960 . S
H649 C641 0.930 . S
H650 C642 0.929 . S
H651 C659 0.929 . S
H652 C661 0.930 . S
H653 C663 0.930 . S
H654 C666 0.929 . S
H655 C669 0.930 . S
H656 C671 0.960 . S
H657 C671 0.960 . S
H658 C671 0.960 . S
C659 H651 0.929 . S
C659 C660 1.377 . S
C659 C661 1.384 . S
C660 C659 1.377 . S
C660 C666 1.390 . S
C661 H652 0.930 . S
C661 C659 1.384 . S
C661 C662 1.372 . S
C662 C661 1.372 . S
C662 C663 1.400 . S
C662 C667 1.490 . S
C663 H653 0.930 . S
C663 C662 1.400 . S
C663 C666 1.386 . S
H664 C680 0.930 . S
H665 C681 0.931 . S
C666 H654 0.929 . S
C666 C660 1.390 . S
C666 C663 1.386 . S
C667 C662 1.490 . S
C667 C669 1.395 . S
C667 C670 1.403 . S
H668 C674 0.930 . S
C669 H655 0.930 . S
C669 C667 1.395 . S
C669 C672 1.403 . S
C670 C667 1.403 . S
C670 C671 1.524 . S
C670 C674 1.400 . S
C671 H656 0.960 . S
C671 H657 0.960 . S
C671 H658 0.960 . S
C671 C670 1.524 . S
C672 C669 1.403 . S
C672 C673 1.392 . S
C672 C676 1.495 . S
C673 C672 1.392 . S
C673 C674 1.385 . S
C673 C675 1.478 . S
C674 H668 0.930 . S
C674 C670 1.400 . S
C674 C673 1.385 . S
C675 C673 1.478 . S
C675 C677 1.381 . S
C675 C681 1.383 . S
C676 C672 1.495 . S
C676 H682 0.959 . S
C676 H683 0.961 . S
C676 H684 0.960 . S
C677 C675 1.381 . S
C677 C678 1.394 . S
C677 H685 0.930 . S
C678 C677 1.394 . S
C678 C679 1.383 . S
C678 H686 0.929 . S
C679 C678 1.383 . S
C679 C680 1.377 . S
C680 H664 0.930 . S
C680 C679 1.377 . S
C680 C681 1.379 . S
C681 H665 0.931 . S
C681 C675 1.383 . S
C681 C680 1.379 . S
H682 C676 0.959 . S
H683 C676 0.961 . S
H684 C676 0.960 . S
H685 C677 0.930 . S
H686 C678 0.929 . S
H687 C695 0.929 . S
H688 C697 0.930 . S
H689 C699 0.930 . S
H690 C702 0.929 . S
H691 C705 0.930 . S
H692 C707 0.960 . S
H693 C707 0.960 . S
H694 C707 0.960 . S
C695 H687 0.929 . S
C695 C696 1.377 . S
C695 C697 1.384 . S
C696 C695 1.377 . S
C696 C702 1.390 . S
C697 H688 0.930 . S
C697 C695 1.384 . S
C697 C698 1.372 . S
C698 C697 1.372 . S
C698 C699 1.400 . S
C698 C703 1.490 . S
C699 H689 0.930 . S
C699 C698 1.400 . S
C699 C702 1.386 . S
H700 C716 0.930 . S
H701 C717 0.931 . S
C702 H690 0.929 . S
C702 C696 1.390 . S
C702 C699 1.386 . S
C703 C698 1.490 . S
C703 C705 1.395 . S
C703 C706 1.403 . S
H704 C710 0.930 . S
C705 H691 0.930 . S
C705 C703 1.395 . S
C705 C708 1.403 . S
C706 C703 1.403 . S
C706 C707 1.524 1_545 S
C706 C710 1.400 . S
C707 H692 0.960 . S
C707 H693 0.960 . S
C707 H694 0.960 . S
C707 C706 1.524 1_565 S
C708 C705 1.403 . S
C708 C709 1.392 . S
C708 C712 1.495 . S
C709 C708 1.392 . S
C709 C710 1.385 . S
C709 C711 1.478 . S
C710 H704 0.930 . S
C710 C706 1.400 . S
C710 C709 1.385 . S
C711 C709 1.478 . S
C711 C713 1.381 . S
C711 C717 1.383 . S
C712 C708 1.495 . S
C712 H718 0.959 . S
C712 H719 0.961 . S
C712 H720 0.960 . S
C713 C711 1.381 . S
C713 C714 1.394 . S
C713 H721 0.930 . S
C714 C713 1.394 . S
C714 C715 1.383 . S
C714 H722 0.929 . S
C715 C714 1.383 . S
C715 C716 1.377 . S
C716 H700 0.930 . S
C716 C715 1.377 . S
C716 C717 1.379 . S
C717 H701 0.931 . S
C717 C711 1.383 . S
C717 C716 1.379 . S
H718 C712 0.959 . S
H719 C712 0.961 . S
H720 C712 0.960 . S
H721 C713 0.930 . S
H722 C714 0.929 . S
H723 C731 0.929 . S
H724 C733 0.930 . S
H725 C735 0.930 . S
H726 C738 0.929 . S
H727 C741 0.930 . S
H728 C743 0.960 . S
H729 C743 0.960 . S
H730 C743 0.960 . S
C731 H723 0.929 . S
C731 C732 1.377 . S
C731 C733 1.384 . S
C732 C731 1.377 . S
C732 C738 1.390 . S
C733 H724 0.930 . S
C733 C731 1.384 . S
C733 C734 1.372 . S
C734 C733 1.372 . S
C734 C735 1.400 . S
C734 C739 1.490 . S
C735 H725 0.930 . S
C735 C734 1.400 . S
C735 C738 1.386 . S
H736 C752 0.930 . S
H737 C753 0.931 . S
C738 H726 0.929 . S
C738 C732 1.390 . S
C738 C735 1.386 . S
C739 C734 1.490 . S
C739 C741 1.395 . S
C739 C742 1.403 . S
H740 C746 0.930 1_554 S
C741 H727 0.930 . S
C741 C739 1.395 . S
C741 C744 1.403 . S
C742 C739 1.403 . S
C742 C743 1.524 . S
C742 C746 1.400 . S
C743 H728 0.960 . S
C743 H729 0.960 . S
C743 H730 0.960 . S
C743 C742 1.524 . S
C744 C741 1.403 . S
C744 C745 1.392 1_556 S
C744 C748 1.495 1_556 S
C745 C744 1.392 1_554 S
C745 C746 1.385 1_554 S
C745 C747 1.478 . S
C746 H740 0.930 1_556 S
C746 C742 1.400 . S
C746 C745 1.385 1_556 S
C747 C745 1.478 . S
C747 C749 1.381 . S
C747 C753 1.383 . S
C748 C744 1.495 1_554 S
C748 H754 0.959 1_554 S
C748 H755 0.961 . S
C748 H756 0.960 . S
C749 C747 1.381 . S
C749 C750 1.394 . S
C749 H757 0.930 . S
C750 C749 1.394 . S
C750 C751 1.383 . S
C750 H758 0.929 . S
C751 C750 1.383 . S
C751 C752 1.377 . S
C752 H736 0.930 . S
C752 C751 1.377 . S
C752 C753 1.379 . S
C753 H737 0.931 . S
C753 C747 1.383 . S
C753 C752 1.379 . S
H754 C748 0.959 1_556 S
H755 C748 0.961 . S
H756 C748 0.960 . S
H757 C749 0.930 . S
H758 C750 0.929 . S
H759 C767 0.929 . S
H760 C769 0.930 . S
H761 C771 0.930 . S
H762 C774 0.929 . S
H763 C777 0.930 . S
H764 C779 0.960 . S
H765 C779 0.960 1_455 S
H766 C779 0.960 . S
C767 H759 0.929 . S
C767 C768 1.377 . S
C767 C769 1.384 . S
C768 C767 1.377 . S
C768 C774 1.390 1_455 S
C769 H760 0.930 . S
C769 C767 1.384 . S
C769 C770 1.372 . S
C770 C769 1.372 . S
C770 C771 1.400 1_455 S
C770 C775 1.490 . S
C771 H761 0.930 . S
C771 C770 1.400 1_655 S
C771 C774 1.386 . S
H772 C788 0.908 1_655 S
H773 C789 0.931 1_655 S
C774 H762 0.929 . S
C774 C768 1.390 1_655 S
C774 C771 1.386 . S
C775 C770 1.490 . S
C775 C777 1.395 . S
C775 C778 1.403 . S
H776 C782 0.930 . S
C777 H763 0.930 . S
C777 C775 1.395 . S
C777 C780 1.403 . S
C778 C775 1.403 . S
C778 C779 1.524 1_455 S
C778 C782 1.400 . S
C779 H764 0.960 . S
C779 H765 0.960 1_655 S
C779 H766 0.960 . S
C779 C778 1.524 1_655 S
C780 C777 1.403 . S
C780 C781 1.392 . S
C780 C784 1.495 . S
C781 C780 1.392 . S
C781 C782 1.385 . S
C781 C783 1.478 . S
C782 H776 0.930 . S
C782 C778 1.400 . S
C782 C781 1.385 . S
C783 C781 1.478 . S
C783 C785 1.381 . S
C783 C789 1.383 . S
C784 C780 1.495 . S
C784 H790 0.959 . S
C784 H791 0.961 . S
C784 H792 0.960 . S
C785 C783 1.381 . S
C785 C786 1.394 . S
C785 H793 0.930 . S
C786 C785 1.394 . S
C786 C787 1.383 . S
C786 H794 0.929 . S
C787 C786 1.383 . S
C787 C788 1.377 . S
C788 H772 0.908 1_455 S
C788 C787 1.377 . S
C788 C789 1.379 . S
C789 H773 0.931 1_455 S
C789 C783 1.383 . S
C789 C788 1.379 . S
H790 C784 0.959 . S
H791 C784 0.961 . S
H792 C784 0.960 . S
H793 C785 0.930 . S
H794 C786 0.929 . S
C156 C20 0.838 . S
C175 N136 0.821 . S
C192 C41 1.202 . S
C211 N109 1.206 . S
C228 C64 1.200 . S
C247 N122 1.180 . S
C264 C19 1.549 . S
C283 N135 1.582 . S
C319 N110 1.261 . S
C300 C44 1.257 . S
C355 N123 1.244 . S
C336 C67 1.252 . S
C372 C43 1.113 . S
C391 N83 1.151 . S
C408 C66 0.826 . S
C427 N97 0.858 1_655 S
C444 C21 1.254 . S
C463 N71 1.243 . S
C499 N84 1.248 . S
C480 C42 1.232 . S
C535 N96 1.583 . S
C516 C65 1.551 . S
C552 C18 1.182 . S
C571 N70 1.186 . S
C607 N100 1.477 . S
C588 C17 1.532 . S
C624 C39 1.545 . S
C643 N74 1.545 . S
C660 C62 1.543 . S
C679 N87 1.534 . S
C715 N126 1.507 . S
C696 C40 1.538 . S
C751 N139 1.474 . S
C732 C63 1.532 . S
C768 C16 1.531 . S
C787 N113 1.510 . S
