# Generated by pormake.
# Topology anh, (6,3)-cn, num edge types: 1
# Building blocks:
#     Node 0, Type 0, BuildingBlock: CUKXOW_clean_sbu_0, # of connection points: 6
#     Node 1, Type 0, BuildingBlock: CUKXOW_clean_sbu_0, # of connection points: 6
#     Node 2, Type 0, BuildingBlock: CUKXOW_clean_sbu_0, # of connection points: 6
#     Node 3, Type 1, BuildingBlock: CUQRIR_clean_linker_1, # of connection points: 3
#     Node 4, Type 1, BuildingBlock: CUQRIR_clean_linker_1, # of connection points: 3
#     Node 5, Type 1, BuildingBlock: CUQRIR_clean_linker_1, # of connection points: 3
#     Node 6, Type 1, BuildingBlock: CUQRIR_clean_linker_1, # of connection points: 3
#     Node 7, Type 1, BuildingBlock: CUQRIR_clean_linker_1, # of connection points: 3
#     Node 8, Type 1, BuildingBlock: CUQRIR_clean_linker_1, # of connection points: 3
#     Edge 9, Type (0, 1), BuildingBlock: KIFKEQ_clean_linker_1, # of connection points: 2
#     Edge 10, Type (0, 1), BuildingBlock: KIFKEQ_clean_linker_1, # of connection points: 2
#     Edge 11, Type (0, 1), BuildingBlock: KIFKEQ_clean_linker_1, # of connection points: 2
#     Edge 12, Type (0, 1), BuildingBlock: KIFKEQ_clean_linker_1, # of connection points: 2
#     Edge 13, Type (0, 1), BuildingBlock: KIFKEQ_clean_linker_1, # of connection points: 2
#     Edge 14, Type (0, 1), BuildingBlock: KIFKEQ_clean_linker_1, # of connection points: 2
#     Edge 15, Type (0, 1), BuildingBlock: KIFKEQ_clean_linker_1, # of connection points: 2
#     Edge 16, Type (0, 1), BuildingBlock: KIFKEQ_clean_linker_1, # of connection points: 2
#     Edge 17, Type (0, 1), BuildingBlock: KIFKEQ_clean_linker_1, # of connection points: 2
#     Edge 18, Type (0, 1), BuildingBlock: KIFKEQ_clean_linker_1, # of connection points: 2
#     Edge 19, Type (0, 1), BuildingBlock: KIFKEQ_clean_linker_1, # of connection points: 2
#     Edge 20, Type (0, 1), BuildingBlock: KIFKEQ_clean_linker_1, # of connection points: 2
#     Edge 21, Type (0, 1), BuildingBlock: KIFKEQ_clean_linker_1, # of connection points: 2
#     Edge 22, Type (0, 1), BuildingBlock: KIFKEQ_clean_linker_1, # of connection points: 2
#     Edge 23, Type (0, 1), BuildingBlock: KIFKEQ_clean_linker_1, # of connection points: 2
#     Edge 24, Type (0, 1), BuildingBlock: KIFKEQ_clean_linker_1, # of connection points: 2
#     Edge 25, Type (0, 1), BuildingBlock: KIFKEQ_clean_linker_1, # of connection points: 2
#     Edge 26, Type (0, 1), BuildingBlock: KIFKEQ_clean_linker_1, # of connection points: 2
# Relax obj value: 0.140
# Max RMSD: 0.197
# Mean RMSD: 0.165
data_MOF--net-anh--node1-CUKXOW_clean_sbu_0--node2-CUQRIR_clean_linker_1--edge1-KIFKEQ_clean_linker_1
_symmetry_space_group_name_H-M    P1
_symmetry_Int_Tables_number       1
_symmetry_cell_setting            triclinic
loop_
_symmetry_equiv_pos_as_xyz
'x, y, z'
_cell_length_a     26.914147
_cell_length_b     26.203214
_cell_length_c     46.171093
_cell_angle_alpha  90.325744
_cell_angle_beta   89.774828
_cell_angle_gamma 112.23729
loop_
_atom_site_label
_atom_site_type_symbol
_atom_site_fract_x
_atom_site_fract_y
_atom_site_fract_z
_atom_type_partial_charge
Tb0 Tb 0.04243 0.536 0.15304 0.0
C1 C 1.00459 0.48737 0.2155 0.0
Tb2 Tb 0.97176 0.41123 0.15948 0.0
O3 O 0.97803 0.56771 0.14598 0.0
O4 O 0.96021 0.48521 0.15183 0.0
O5 O 0.03951 0.52766 0.19997 0.0
C6 C 0.88986 0.31603 0.1691 0.0
O7 O 0.97142 0.4404 0.20387 0.0
C8 C 0.07634 0.43554 0.15366 0.0
C9 C 1.00836 0.45886 0.09733 0.0
O10 O 0.93831 0.32872 0.17889 0.0
O11 O 0.88802 0.35654 0.15376 0.0
O12 O 0.03919 0.38891 0.1459 0.0
O13 O 0.05379 0.4637 0.16675 0.0
O14 O 0.9736 0.4181 0.11263 0.0
O15 O 0.04117 0.50619 0.10877 0.0
C16 C 0.13054 0.6275 0.14952 0.0
O17 O 0.12249 0.58208 0.13539 0.0
O18 O 0.08864 0.62159 0.16527 0.0
C19 C 0.93865 0.51992 0.14767 0.0
Tb20 Tb 0.54979 0.98717 0.51012 0.0
C21 C 0.59969 0.01905 0.44772 0.0
Tb22 Tb 0.6721 0.06645 0.50378 0.0
O23 O 0.52499 0.05323 0.4955 0.0
O24 O 0.59822 0.07204 0.51649 0.0
O25 O 0.56016 0.98433 0.46356 0.0
C26 C 0.75301 0.16109 0.49312 0.0
O27 O 0.64418 0.05617 0.45894 0.0
C28 C 0.65762 0.96064 0.5027 0.0
C29 C 0.62344 0.02778 0.5661 0.0
O30 O 0.70584 0.14494 0.48136 0.0
O31 O 0.75488 0.1239 0.51123 0.0
O32 O 0.70491 1.00006 0.50052 0.0
O33 O 0.6247 0.9838 0.50387 0.0
O34 O 0.66258 0.06481 0.55078 0.0
O35 O 0.57858 0.99156 0.55452 0.0
C36 C 0.45991 0.89912 0.51723 0.0
O37 O 0.46754 0.94848 0.52655 0.0
O38 O 0.50287 0.8996 0.50419 0.0
C39 C 0.56966 0.09272 0.50304 0.0
Tb40 Tb 0.55871 0.61253 0.84417 0.0
C41 C 0.63686 0.62704 0.89762 0.0
Tb42 Tb 0.67802 0.62497 0.83422 0.0
O43 O 0.5322 0.52823 0.82672 0.0
O44 O 0.60514 0.56332 0.84784 0.0
O45 O 0.5961 0.63785 0.88676 0.0
C46 C 0.75317 0.58809 0.81892 0.0
O47 O 0.67122 0.61455 0.88102 0.0
C48 C 0.66907 0.72187 0.83354 0.0
C49 C 0.60253 0.62431 0.78071 0.0
O50 O 0.75957 0.62687 0.83805 0.0
O51 O 0.70482 0.57046 0.80864 0.0
O52 O 0.71451 0.71571 0.82976 0.0
O53 O 0.63386 0.6748 0.83761 0.0
O54 O 0.64472 0.6152 0.79063 0.0
O55 O 0.56575 0.63104 0.79796 0.0
C56 C 0.46426 0.60879 0.86346 0.0
O57 O 0.49092 0.63949 0.84215 0.0
O58 O 0.49126 0.58137 0.87383 0.0
C59 C 0.57597 0.52178 0.83381 0.0
C60 C 0.5277 0.95415 0.18933 0.0
N61 N 0.55865 0.98437 0.21118 0.0
N62 N 0.47991 0.91935 0.19971 0.0
C63 C 0.54262 0.9612 0.1578 0.0
C64 C 0.48256 0.92954 0.22848 0.0
N65 N 0.53022 0.96951 0.23547 0.0
C66 C 0.439 0.89907 0.24972 0.0
H67 H 0.56224 1.00565 0.15251 0.0
H68 H 0.50701 0.94179 0.14374 0.0
H69 H 0.57184 0.94156 0.15325 0.0
H70 H 0.41356 0.85771 0.24127 0.0
H71 H 0.41308 0.92289 0.25332 0.0
H72 H 0.45639 0.89439 0.27081 0.0
C73 C 0.60105 0.52496 0.52826 0.0
N74 N 0.59626 0.56384 0.54636 0.0
N75 N 0.58728 0.47591 0.54202 0.0
C76 C 0.61742 0.53438 0.497 0.0
C77 C 0.57423 0.48648 0.56915 0.0
N78 N 0.57911 0.53975 0.57174 0.0
C79 C 0.56193 0.44611 0.5938 0.0
H80 H 0.60337 0.56519 0.48731 0.0
H81 H 0.60123 0.49531 0.48445 0.0
H82 H 0.66188 0.55073 0.49564 0.0
H83 H 0.57764 0.41331 0.58948 0.0
H84 H 0.51777 0.42651 0.59662 0.0
H85 H 0.5796 0.46737 0.61431 0.0
C86 C 0.04927 0.4163 0.83756 0.0
N87 N 0.07129 0.41942 0.86408 0.0
N88 N 0.99591 0.40487 0.83943 0.0
C89 C 0.08101 0.42905 0.80979 0.0
C90 C 0.98593 0.39879 0.86834 0.0
N91 N 1.03165 0.40749 0.88324 0.0
C92 C 0.93383 0.39563 0.88211 0.0
H93 H 0.10233 0.47427 0.80757 0.0
H94 H 0.05434 0.41309 0.79081 0.0
H95 H 0.11185 0.41048 0.81026 0.0
H96 H 0.90122 0.35664 0.8754 0.0
H97 H 0.92326 0.4303 0.87444 0.0
H98 H 0.93546 0.39741 0.90606 0.0
C99 C 0.08411 0.55119 0.47271 0.0
N100 N 0.05093 0.5225 0.45132 0.0
N101 N 0.11842 0.60044 0.46278 0.0
C102 C 0.08129 0.5323 0.50359 0.0
C103 C 0.10493 0.60062 0.43454 0.0
N104 N 0.0633 0.55343 0.42766 0.0
C105 C 0.13624 0.64399 0.41304 0.0
H106 H 0.09764 0.56795 0.51861 0.0
H107 H 0.10539 0.5063 0.50577 0.0
H108 H 0.03926 0.50712 0.50979 0.0
H109 H 0.17871 0.66478 0.41979 0.0
H110 H 0.11801 0.67544 0.41165 0.0
H111 H 0.13524 0.62582 0.39118 0.0
C112 C 0.61874 0.11824 0.82086 0.0
N113 N 0.62344 0.08067 0.80191 0.0
N114 N 0.62168 0.1645 0.80676 0.0
C115 C 0.61397 0.1105 0.85307 0.0
C116 C 0.62815 0.15368 0.77866 0.0
N117 N 0.62989 0.10303 0.77572 0.0
C118 C 0.62981 0.19159 0.75395 0.0
H119 H 0.58163 0.07021 0.8581 0.0
H120 H 0.60558 0.14418 0.86401 0.0
H121 H 0.65207 0.10946 0.86159 0.0
H122 H 0.60715 0.21804 0.75936 0.0
H123 H 0.61281 0.16781 0.73396 0.0
H124 H 0.67218 0.21873 0.74967 0.0
C125 C 0.51112 0.48648 0.14203 0.0
N126 N 0.55434 0.49786 0.12399 0.0
N127 N 0.46991 0.49531 0.12856 0.0
C128 C 0.50987 0.46842 0.17286 0.0
C129 C 0.4898 0.51215 0.10177 0.0
N130 N 0.54043 0.51368 0.09901 0.0
C131 C 0.45943 0.52677 0.07802 0.0
H132 H 0.46814 0.44876 0.181 0.0
H133 H 0.53146 0.50506 0.18652 0.0
H134 H 0.53087 0.43941 0.17485 0.0
H135 H 0.4657 0.57099 0.0801 0.0
H136 H 0.41577 0.50197 0.07972 0.0
H137 H 0.47391 0.52011 0.05633 0.0
H138 H 0.1624 0.52496 0.17523 0.0
H139 H 0.12454 0.37185 0.12868 0.0
H140 H 0.25824 0.54032 0.17305 0.0
H141 H 0.2194 0.38698 0.12624 0.0
H142 H 0.38882 0.40067 0.1444 0.0
H143 H 0.29471 0.38742 0.15298 0.0
H144 H 0.33518 0.5621 0.14177 0.0
H145 H 0.42921 0.57473 0.13397 0.0
C146 C 0.17446 0.4947 0.16441 0.0
C147 C 0.13543 0.44713 0.15214 0.0
C148 C 0.22961 0.50345 0.16311 0.0
C149 C 0.24738 0.46468 0.14969 0.0
C150 C 0.20797 0.41738 0.13735 0.0
C151 C 0.1532 0.40886 0.13853 0.0
C152 C 0.37768 0.43629 0.14463 0.0
C153 C 0.41666 0.48881 0.1389 0.0
C154 C 0.32346 0.42876 0.14906 0.0
C155 C 0.30638 0.47356 0.14779 0.0
C156 C 0.34613 0.52648 0.14322 0.0
C157 C 0.40024 0.53386 0.13874 0.0
H158 H 0.84959 0.20786 0.52047 0.0
H159 H 0.75614 0.23127 0.44973 0.0
H160 H 0.92219 0.29519 0.50876 0.0
H161 H 0.82923 0.31702 0.43706 0.0
H162 H 0.94569 0.49735 0.44317 0.0
H163 H 0.87297 0.40872 0.45291 0.0
H164 H 0.99032 0.33886 0.47443 0.0
H165 H 0.06222 0.42847 0.46571 0.0
C166 C 0.84489 0.23155 0.50227 0.0
C167 C 0.79742 0.21313 0.48606 0.0
C168 C 0.88655 0.28134 0.49537 0.0
C169 C 0.8817 0.31325 0.47188 0.0
C170 C 0.83411 0.29416 0.45556 0.0
C171 C 0.79232 0.24483 0.4627 0.0
C172 C 0.95538 0.46257 0.44969 0.0
C173 C 1.00888 0.46906 0.4539 0.0
C174 C 0.91403 0.41184 0.45521 0.0
C175 C 0.92569 0.36656 0.4647 0.0
C176 C 0.97973 0.37303 0.46783 0.0
C177 C 1.02089 0.42394 0.46263 0.0
H178 H 0.73996 0.81812 0.81278 0.0
H179 H 0.57998 0.74335 0.84786 0.0
H180 H 0.72756 0.90438 0.80629 0.0
H181 H 0.56799 0.83095 0.84288 0.0
H182 H 0.54504 0.97964 0.80109 0.0
H183 H 0.55484 0.89176 0.8096 0.0
H184 H 0.72266 0.98057 0.82985 0.0
H185 H 0.71256 0.06747 0.81918 0.0
C186 C 0.70226 0.8205 0.81946 0.0
C187 C 0.6609 0.77419 0.83079 0.0
C188 C 0.69522 0.8702 0.81599 0.0
C189 C 0.64687 0.87524 0.82425 0.0
C190 C 0.60552 0.82867 0.83588 0.0
C191 C 0.61238 0.77852 0.83893 0.0
C192 C 0.5839 0.9797 0.80709 0.0
C193 C 0.6284 0.02948 0.8089 0.0
C194 C 0.58956 0.92962 0.81236 0.0
C195 C 0.63976 0.92862 0.82016 0.0
C196 C 0.68371 0.97926 0.82312 0.0
C197 C 0.67809 0.02909 0.81731 0.0
H198 H 0.84784 0.42382 0.13892 0.0
H199 H 0.89678 0.59882 0.15212 0.0
H200 H 0.75392 0.41498 0.13555 0.0
H201 H 0.80401 0.59069 0.14816 0.0
H202 H 0.62754 0.55805 0.16365 0.0
H203 H 0.71832 0.55971 0.17136 0.0
H204 H 0.69112 0.43556 0.10485 0.0
H205 H 0.60003 0.43331 0.09804 0.0
C206 C 0.83868 0.46026 0.14149 0.0
C207 C 0.88026 0.51184 0.14621 0.0
C208 C 0.78465 0.45544 0.13919 0.0
C209 C 0.7705 0.50209 0.14173 0.0
C210 C 0.8124 0.55349 0.1466 0.0
C211 C 0.86607 0.55823 0.14867 0.0
C212 C 0.64089 0.53069 0.15101 0.0
C213 C 0.60667 0.49583 0.13011 0.0
C214 C 0.69323 0.53192 0.15515 0.0
C215 C 0.71304 0.49809 0.13859 0.0
C216 C 0.67785 0.46206 0.11823 0.0
C217 C 0.62564 0.46111 0.11404 0.0
H218 H 0.36237 0.89562 0.53613 0.0
H219 H 0.44182 0.79591 0.49804 0.0
H220 H 0.27543 0.81976 0.52954 0.0
H221 H 0.35557 0.72095 0.49082 0.0
H222 H 0.19716 0.58249 0.49136 0.0
H223 H 0.27766 0.65223 0.51244 0.0
H224 H 0.22112 0.77951 0.48716 0.0
H225 H 0.13972 0.70902 0.46733 0.0
C226 C 0.36121 0.85718 0.52678 0.0
C227 C 0.40852 0.85157 0.51737 0.0
C228 C 0.31154 0.81395 0.52283 0.0
C229 C 0.30853 0.76447 0.50946 0.0
C230 C 0.35637 0.75816 0.5015 0.0
C231 C 0.40583 0.80126 0.50544 0.0
C232 C 0.2016 0.6253 0.49108 0.0
C233 C 0.16279 0.6408 0.47773 0.0
C234 C 0.24774 0.66525 0.50285 0.0
C235 C 0.25604 0.72149 0.50127 0.0
C236 C 0.21579 0.73658 0.48904 0.0
C237 C 0.16954 0.69651 0.47742 0.0
H238 H 0.51047 0.42575 0.80883 0.0
H239 H 0.6602 0.49976 0.85495 0.0
H240 H 0.52295 0.33816 0.80693 0.0
H241 H 0.67297 0.41226 0.85291 0.0
H242 H 0.70032 0.2647 0.80633 0.0
H243 H 0.69045 0.35259 0.81545 0.0
H244 H 0.52483 0.2641 0.83987 0.0
H245 H 0.53536 0.1764 0.83038 0.0
C246 C 0.54607 0.42324 0.81851 0.0
C247 C 0.58453 0.46952 0.83184 0.0
C248 C 0.55301 0.37303 0.81767 0.0
C249 C 0.59873 0.36821 0.82999 0.0
C250 C 0.63743 0.41475 0.84314 0.0
C251 C 0.6302 0.46483 0.84423 0.0
C252 C 0.66243 0.26449 0.81445 0.0
C253 C 0.61869 0.21442 0.81798 0.0
C254 C 0.65664 0.31452 0.81961 0.0
C255 C 0.60669 0.31523 0.82812 0.0
C256 C 0.5636 0.26481 0.83298 0.0
C257 C 0.56963 0.21477 0.82797 0.0
H258 H 0.57952 0.88849 0.53646 0.0
H259 H 0.71212 0.90043 0.48073 0.0
H260 H 0.56479 0.79305 0.54707 0.0
H261 H 0.69585 0.80377 0.48959 0.0
H262 H 0.68943 0.64508 0.53151 0.0
H263 H 0.70412 0.74101 0.52101 0.0
H264 H 0.53421 0.70317 0.53311 0.0
H265 H 0.52155 0.60861 0.54565 0.0
C266 C 0.60461 0.87003 0.52585 0.0
C267 C 0.6465 0.90155 0.50751 0.0
C268 C 0.59622 0.81502 0.53187 0.0
C269 C 0.62893 0.78963 0.51923 0.0
C270 C 0.67037 0.82149 0.50039 0.0
C271 C 0.67948 0.87691 0.49497 0.0
C272 C 0.65559 0.65786 0.53189 0.0
C273 C 0.60448 0.62002 0.53934 0.0
C274 C 0.66365 0.71272 0.52564 0.0
C275 C 0.6204 0.73078 0.52598 0.0
C276 C 0.56897 0.69195 0.53314 0.0
C277 C 0.56134 0.6375 0.54008 0.0
H278 H 0.85546 0.62086 0.8383 0.0
H279 H 0.7391 0.50054 0.78351 0.0
H280 H 0.91749 0.57464 0.83073 0.0
H281 H 0.80178 0.45442 0.77532 0.0
H282 H 0.89346 0.35203 0.82174 0.0
H283 H 0.835 0.39902 0.80643 0.0
H284 H 0.97355 0.55069 0.79709 0.0
H285 H 1.03044 0.50508 0.81477 0.0
C286 C 0.84373 0.58515 0.82414 0.0
C287 C 0.79269 0.564 0.81164 0.0
C288 C 0.87939 0.5589 0.81948 0.0
C289 C 0.86467 0.51101 0.80217 0.0
C290 C 0.81416 0.49112 0.78876 0.0
C291 C 0.77845 0.51754 0.79341 0.0
C292 C 0.91127 0.39487 0.81536 0.0
C293 C 0.96614 0.42505 0.81988 0.0
C294 C 0.878 0.42182 0.80648 0.0
C295 C 0.8997 0.47903 0.80148 0.0
C296 C 0.95561 0.50694 0.80159 0.0
C297 C 0.98846 0.48044 0.81117 0.0
H298 H 0.15312 0.72061 0.18155 0.0
H299 H 0.22321 0.64195 0.12033 0.0
H300 H 0.2399 0.7953 0.18796 0.0
H301 H 0.31029 0.71782 0.12598 0.0
H302 H 0.46336 0.81754 0.18047 0.0
H303 H 0.37814 0.74945 0.16285 0.0
H304 H 0.30814 0.87323 0.16693 0.0
H305 H 0.39315 0.93993 0.18557 0.0
C306 C 0.18699 0.71997 0.16902 0.0
C307 C 0.18162 0.67557 0.15053 0.0
C308 C 0.23675 0.76299 0.17251 0.0
C309 C 0.28223 0.7627 0.15746 0.0
C310 C 0.27626 0.71904 0.13814 0.0
C311 C 0.22639 0.67582 0.13474 0.0
C312 C 0.42985 0.82998 0.17681 0.0
C313 C 0.43407 0.88335 0.1841 0.0
C314 C 0.38116 0.79132 0.1667 0.0
C315 C 0.33602 0.8057 0.16372 0.0
C316 C 0.34172 0.86046 0.16947 0.0
C317 C 0.39025 0.89878 0.17979 0.0
H318 H 0.50405 0.13949 0.48029 0.0
H319 H 0.65227 0.17945 0.5274 0.0
H320 H 0.51064 0.23457 0.48547 0.0
H321 H 0.65888 0.27489 0.53274 0.0
H322 H 0.67083 0.45373 0.52083 0.0
H323 H 0.6704 0.36249 0.50739 0.0
H324 H 0.50065 0.28975 0.52638 0.0
H325 H 0.50172 0.38072 0.53948 0.0
C326 C 0.53836 0.16878 0.49152 0.0
C327 C 0.57743 0.15188 0.50361 0.0
C328 C 0.54202 0.22326 0.49461 0.0
C329 C 0.58499 0.26237 0.50979 0.0
C330 C 0.62542 0.246 0.52077 0.0
C331 C 0.62158 0.19128 0.5178 0.0
C332 C 0.63348 0.41812 0.52154 0.0
C333 C 0.58623 0.42388 0.53099 0.0
C334 C 0.63321 0.36593 0.51416 0.0
C335 C 0.58548 0.31867 0.5158 0.0
C336 C 0.53798 0.32516 0.52447 0.0
C337 C 0.53846 0.37709 0.53206 0.0
H338 H 0.40897 0.5508 0.9094 0.0
H339 H 0.39155 0.63464 0.83219 0.0
H340 H 0.31166 0.51007 0.91499 0.0
H341 H 0.29425 0.59276 0.83715 0.0
H342 H 0.11979 0.52813 0.85775 0.0
H343 H 0.21522 0.58388 0.86373 0.0
H344 H 0.24227 0.43778 0.88909 0.0
H345 H 0.14586 0.38294 0.88398 0.0
C346 C 0.3842 0.56137 0.89397 0.0
C347 C 0.40743 0.59545 0.87024 0.0
C348 C 0.32855 0.53762 0.89701 0.0
C349 C 0.29519 0.54732 0.87626 0.0
C350 C 0.31875 0.58467 0.85366 0.0
C351 C 0.37449 0.60874 0.85075 0.0
C352 C 0.1465 0.50854 0.86493 0.0
C353 C 0.12649 0.45168 0.87023 0.0
C354 C 0.20089 0.54016 0.86826 0.0
C355 C 0.23647 0.51525 0.8766 0.0
C356 C 0.21583 0.45839 0.88296 0.0
C357 C 0.16102 0.42685 0.87989 0.0
H358 H 0.78562 0.29616 0.15753 0.0
H359 H 0.88853 0.22282 0.19612 0.0
H360 H 0.70695 0.21468 0.16997 0.0
H361 H 0.80936 0.14056 0.20837 0.0
H362 H 0.65113 0.98278 0.1895 0.0
H363 H 0.73435 0.06301 0.18049 0.0
H364 H 0.66092 0.16969 0.21696 0.0
H365 H 0.57817 0.08932 0.22584 0.0
C366 C 0.79136 0.26244 0.16858 0.0
C367 C 0.84304 0.26565 0.17589 0.0
C368 C 0.74634 0.21601 0.17586 0.0
C369 C 0.7521 0.17153 0.19029 0.0
C370 C 0.8039 0.17428 0.19718 0.0
C371 C 0.84904 0.22123 0.19024 0.0
C372 C 0.6534 0.02349 0.19574 0.0
C373 C 0.6088 0.03045 0.20823 0.0
C374 C 0.7008 0.06917 0.19077 0.0
C375 C 0.70386 0.12252 0.19787 0.0
C376 C 0.65945 0.12908 0.21104 0.0
C377 C 0.61242 0.08335 0.21631 0.0
H378 H 1.02383 0.53339 0.05419 0.0
H379 H 1.00476 0.36515 0.07052 0.0
H380 H 1.03323 0.51966 0.00264 0.0
H381 H 1.01865 0.35205 0.01934 0.0
H382 H 0.98728 0.32784 0.92213 0.0
H383 H 0.98214 0.33918 0.97431 0.0
H384 H 0.08632 0.51121 0.96616 0.0
H385 H 0.08573 0.50019 0.9139 0.0
C386 C 1.02221 0.49357 0.04663 0.0
C387 C 1.01302 0.45015 0.06611 0.0
C388 C 1.02834 0.48572 0.01709 0.0
C389 C 1.02721 0.43472 0.00647 0.0
C390 C 1.01866 0.39154 0.02632 0.0
C391 C 1.01087 0.39898 0.05574 0.0
C392 C 1.00953 0.36769 0.93183 0.0
C393 C 0.03749 0.41286 0.9142 0.0
C394 C 1.00694 0.37439 0.96175 0.0
C395 C 1.03351 0.42636 0.97482 0.0
C396 C 0.0641 0.47084 0.95707 0.0
C397 C 0.06518 0.46436 0.92706 0.0
H398 H 0.6768 0.06637 0.40639 0.0
H399 H 0.50795 0.96711 0.41684 0.0
H400 H 0.6651 0.06335 0.35377 0.0
H401 H 0.49659 0.96432 0.36454 0.0
H402 H 0.48059 0.01306 0.27313 0.0
H403 H 0.50124 0.03131 0.32465 0.0
H404 H 0.64102 0.98982 0.31381 0.0
H405 H 0.6195 0.97102 0.26221 0.0
C406 C 0.63724 0.04401 0.39752 0.0
C407 C 0.5933 0.0169 0.41584 0.0
C408 C 0.63066 0.04221 0.36742 0.0
C409 C 0.57989 0.01402 0.35512 0.0
C410 C 0.53605 0.98709 0.37344 0.0
C411 C 0.5427 0.98829 0.40342 0.0
C412 C 0.51599 1.00857 0.28184 0.0
C413 C 0.54805 0.98986 0.26412 0.0
C414 C 0.52777 0.01883 0.3112 0.0
C415 C 0.5722 0.01104 0.3233 0.0
C416 C 0.60655 0.99619 0.30505 0.0
C417 C 0.59443 0.98555 0.27563 0.0
H418 H 0.51423 0.61916 0.74867 0.0
H419 H 0.67829 0.63122 0.74021 0.0
H420 H 0.50465 0.61203 0.69582 0.0
H421 H 0.66842 0.62281 0.68829 0.0
H422 H 0.65607 0.62937 0.59484 0.0
H423 H 0.65843 0.66407 0.64421 0.0
H424 H 0.4986 0.5433 0.6591 0.0
H425 H 0.49566 0.51124 0.60904 0.0
C426 C 0.54834 0.6209 0.73561 0.0
C427 C 0.59683 0.62523 0.74876 0.0
C428 C 0.5428 0.61656 0.70535 0.0
C429 C 0.58577 0.61692 0.68769 0.0
C430 C 0.63469 0.62337 0.70096 0.0
C431 C 0.64014 0.62753 0.73097 0.0
C432 C 0.62078 0.6119 0.60837 0.0
C433 C 0.57591 0.56737 0.59837 0.0
C434 C 0.62229 0.63111 0.63679 0.0
C435 C 0.57919 0.60561 0.65594 0.0
C436 C 0.53251 0.56403 0.64506 0.0
C437 C 0.53087 0.5453 0.6165 0.0
H438 H 0.54246 0.99831 0.60548 0.0
H439 H 0.71511 0.05918 0.59843 0.0
H440 H 0.54933 1.00641 0.65768 0.0
H441 H 0.72243 0.06386 0.65111 0.0
H442 H 0.7132 0.14435 0.73931 0.0
H443 H 0.71534 0.11783 0.68892 0.0
H444 H 0.5665 0.97777 0.70189 0.0
H445 H 0.56245 1.00859 0.75138 0.0
C446 C 0.58197 0.01229 0.61523 0.0
C447 C 0.62827 0.0287 0.59792 0.0
C448 C 0.58601 0.0164 0.64532 0.0
C449 C 0.63653 0.03581 0.65897 0.0
C450 C 0.68285 0.04988 0.64152 0.0
C451 C 0.67877 0.04703 0.61131 0.0
C452 C 0.68164 0.10734 0.73131 0.0
C453 C 0.63767 0.07851 0.74903 0.0
C454 C 0.68289 0.09171 0.70247 0.0
C455 C 0.64052 0.04602 0.69088 0.0
C456 C 0.59908 0.01412 0.70965 0.0
C457 C 0.59726 0.03079 0.73831 0.0
H458 H 0.58961 0.66808 0.93934 0.0
H459 H 0.68855 0.57243 0.92799 0.0
H460 H 0.58102 0.64601 0.9908 0.0
H461 H 0.67956 0.55013 0.97957 0.0
H462 H 0.55866 0.45455 0.05553 0.0
H463 H 0.59697 0.49002 0.00811 0.0
H464 H 0.63086 0.65617 0.03821 0.0
H465 H 0.59321 0.61994 0.08579 0.0
C466 C 0.61043 0.64328 0.94792 0.0
C467 C 0.63952 0.62182 0.92949 0.0
C468 C 0.60573 0.63086 0.97746 0.0
C469 C 0.62946 0.59614 0.98921 0.0
C470 C 0.66063 0.57675 0.97108 0.0
C471 C 0.66599 0.58984 0.94157 0.0
C472 C 0.5768 0.49867 0.0523 0.0
C473 C 0.57447 0.53478 0.07427 0.0
C474 C 0.59834 0.51907 0.02517 0.0
C475 C 0.61681 0.57593 0.01942 0.0
C476 C 0.61681 0.61219 0.04198 0.0
C477 C 0.59589 0.59172 0.0692 0.0
H478 H 0.05225 0.58225 0.24661 0.0
H479 H 0.95701 0.40852 0.25664 0.0
H480 H 0.05651 0.59356 0.29898 0.0
H481 H 0.96124 0.42015 0.3093 0.0
H482 H 0.05706 0.46207 0.39822 0.0
H483 H 1.03383 0.44229 0.34698 0.0
H484 H 0.99846 0.58962 0.3416 0.0
H485 H 1.0214 0.60867 0.39289 0.0
C486 C 1.03189 0.54649 0.25996 0.0
C487 C 1.00448 0.49443 0.24738 0.0
C488 C 1.03397 0.5531 0.29001 0.0
C489 C 1.00905 0.50777 0.30827 0.0
C490 C 0.98103 0.45577 0.29576 0.0
C491 C 0.97846 0.44922 0.26561 0.0
C492 C 0.04279 0.48913 0.38617 0.0
C493 C 0.04117 0.53696 0.3992 0.0
C494 C 1.02963 0.47801 0.35689 0.0
C495 C 1.01497 0.51481 0.34018 0.0
C496 C 1.01047 0.56101 0.3538 0.0
C497 C 1.0233 0.57184 0.38306 0.0
loop_
_geom_bond_atom_site_label_1
_geom_bond_atom_site_label_2
_geom_bond_distance
_geom_bond_site_symmetry_2
_ccdc_geom_bond_type
Tb0 O3 2.453 1_455 S
Tb0 O4 2.596 1_455 S
Tb0 O5 2.374 . S
Tb0 O13 2.343 . S
Tb0 O15 2.353 . S
Tb0 O17 2.427 . S
Tb0 O18 2.513 . S
C1 O5 1.251 1_655 S
C1 O7 1.263 . S
Tb2 O4 2.343 . S
Tb2 O7 2.353 . S
Tb2 O10 2.427 . S
Tb2 O11 2.513 . S
Tb2 O12 2.453 1_655 S
Tb2 O13 2.596 1_655 S
Tb2 O14 2.374 . S
O3 Tb0 2.453 1_655 S
O3 C19 1.245 . S
O4 Tb0 2.596 1_655 S
O4 Tb2 2.343 . S
O4 C19 1.259 . S
O5 Tb0 2.374 . S
O5 C1 1.251 1_455 S
C6 O10 1.275 . S
C6 O11 1.246 . S
O7 C1 1.263 . S
O7 Tb2 2.353 . S
C8 O12 1.245 . S
C8 O13 1.259 . S
C9 O14 1.250 1_455 S
C9 O15 1.263 . S
O10 Tb2 2.427 . S
O10 C6 1.275 . S
O11 Tb2 2.513 . S
O11 C6 1.246 . S
O12 Tb2 2.453 1_455 S
O12 C8 1.245 . S
O13 Tb0 2.343 . S
O13 Tb2 2.596 1_455 S
O13 C8 1.259 . S
O14 Tb2 2.374 . S
O14 C9 1.250 1_655 S
O15 Tb0 2.353 . S
O15 C9 1.263 . S
C16 O17 1.275 . S
C16 O18 1.246 . S
O17 Tb0 2.427 . S
O17 C16 1.275 . S
O18 Tb0 2.513 . S
O18 C16 1.246 . S
C19 O3 1.245 . S
C19 O4 1.259 . S
Tb20 O23 2.454 . S
Tb20 O24 2.596 . S
Tb20 O25 2.374 . S
Tb20 O33 2.343 1_545 S
Tb20 O35 2.353 . S
Tb20 O37 2.426 1_545 S
Tb20 O38 2.512 1_545 S
C21 O25 1.251 . S
C21 O27 1.263 . S
Tb22 O24 2.343 . S
Tb22 O27 2.353 . S
Tb22 O30 2.427 . S
Tb22 O31 2.513 . S
Tb22 O32 2.453 1_545 S
Tb22 O33 2.596 1_545 S
Tb22 O34 2.374 . S
O23 Tb20 2.454 . S
O23 C39 1.245 . S
O24 Tb20 2.596 . S
O24 Tb22 2.343 . S
O24 C39 1.259 . S
O25 Tb20 2.374 . S
O25 C21 1.251 . S
C26 O30 1.275 . S
C26 O31 1.246 . S
O27 C21 1.263 . S
O27 Tb22 2.353 . S
C28 O32 1.245 . S
C28 O33 1.259 . S
C29 O34 1.250 . S
C29 O35 1.263 . S
O30 Tb22 2.427 . S
O30 C26 1.275 . S
O31 Tb22 2.513 . S
O31 C26 1.246 . S
O32 Tb22 2.453 1_565 S
O32 C28 1.245 . S
O33 Tb20 2.343 1_565 S
O33 Tb22 2.596 1_565 S
O33 C28 1.259 . S
O34 Tb22 2.374 . S
O34 C29 1.250 . S
O35 Tb20 2.353 . S
O35 C29 1.263 . S
C36 O37 1.275 . S
C36 O38 1.246 . S
O37 Tb20 2.426 1_565 S
O37 C36 1.275 . S
O38 Tb20 2.512 1_565 S
O38 C36 1.246 . S
C39 O23 1.245 . S
C39 O24 1.259 . S
Tb40 O43 2.453 . S
Tb40 O44 2.596 . S
Tb40 O45 2.374 . S
Tb40 O53 2.343 . S
Tb40 O55 2.353 . S
Tb40 O57 2.427 . S
Tb40 O58 2.513 . S
C41 O45 1.251 . S
C41 O47 1.263 . S
Tb42 O44 2.343 . S
Tb42 O47 2.353 . S
Tb42 O50 2.427 . S
Tb42 O51 2.513 . S
Tb42 O52 2.453 . S
Tb42 O53 2.596 . S
Tb42 O54 2.374 . S
O43 Tb40 2.453 . S
O43 C59 1.245 . S
O44 Tb40 2.596 . S
O44 Tb42 2.343 . S
O44 C59 1.259 . S
O45 Tb40 2.374 . S
O45 C41 1.251 . S
C46 O50 1.275 . S
C46 O51 1.246 . S
O47 C41 1.263 . S
O47 Tb42 2.353 . S
C48 O52 1.245 . S
C48 O53 1.259 . S
C49 O54 1.250 . S
C49 O55 1.263 . S
O50 Tb42 2.427 . S
O50 C46 1.275 . S
O51 Tb42 2.513 . S
O51 C46 1.246 . S
O52 Tb42 2.453 . S
O52 C48 1.245 . S
O53 Tb40 2.343 . S
O53 Tb42 2.596 . S
O53 C48 1.259 . S
O54 Tb42 2.374 . S
O54 C49 1.250 . S
O55 Tb40 2.353 . S
O55 C49 1.263 . S
C56 O57 1.275 . S
C56 O58 1.246 . S
O57 Tb40 2.427 . S
O57 C56 1.275 . S
O58 Tb40 2.513 . S
O58 C56 1.246 . S
C59 O43 1.245 . S
C59 O44 1.259 . S
C60 N61 1.317 1_565 S
C60 N62 1.348 . S
C60 C63 1.485 . S
N61 C60 1.317 1_545 S
N61 N65 1.370 . S
N62 C60 1.348 . S
N62 C64 1.346 . S
C63 C60 1.485 . S
C63 H67 0.960 1_565 S
C63 H68 0.961 . S
C63 H69 0.960 1_565 S
C64 N62 1.346 . S
C64 N65 1.307 1_565 S
C64 C66 1.486 . S
N65 N61 1.370 . S
N65 C64 1.307 1_545 S
C66 C64 1.486 . S
C66 H70 0.960 . S
C66 H71 0.960 . S
C66 H72 0.959 . S
H67 C63 0.960 1_545 S
H68 C63 0.961 . S
H69 C63 0.960 1_545 S
H70 C66 0.960 . S
H71 C66 0.960 . S
H72 C66 0.959 . S
C73 N74 1.317 . S
C73 N75 1.348 . S
C73 C76 1.485 . S
N74 C73 1.317 . S
N74 N78 1.370 . S
N75 C73 1.348 . S
N75 C77 1.346 . S
C76 C73 1.485 . S
C76 H80 0.960 . S
C76 H81 0.961 . S
C76 H82 0.960 . S
C77 N75 1.346 . S
C77 N78 1.307 . S
C77 C79 1.486 . S
N78 N74 1.370 . S
N78 C77 1.307 . S
C79 C77 1.486 . S
C79 H83 0.960 . S
C79 H84 0.960 . S
C79 H85 0.959 . S
H80 C76 0.960 . S
H81 C76 0.961 . S
H82 C76 0.960 . S
H83 C79 0.960 . S
H84 C79 0.960 . S
H85 C79 0.959 . S
C86 N87 1.317 . S
C86 N88 1.348 . S
C86 C89 1.485 . S
N87 C86 1.317 . S
N87 N91 1.370 . S
N88 C86 1.348 . S
N88 C90 1.346 . S
C89 C86 1.485 . S
C89 H93 0.960 . S
C89 H94 0.961 . S
C89 H95 0.960 . S
C90 N88 1.346 . S
C90 N91 1.307 . S
C90 C92 1.486 1_455 S
N91 N87 1.370 . S
N91 C90 1.307 . S
C92 C90 1.486 1_655 S
C92 H96 0.960 . S
C92 H97 0.960 . S
C92 H98 0.959 . S
H93 C89 0.960 . S
H94 C89 0.961 . S
H95 C89 0.960 . S
H96 C92 0.960 . S
H97 C92 0.960 . S
H98 C92 0.959 . S
C99 N100 1.317 1_455 S
C99 N101 1.348 . S
C99 C102 1.485 . S
N100 C99 1.317 1_655 S
N100 N104 1.370 1_655 S
N101 C99 1.348 . S
N101 C103 1.346 . S
C102 C99 1.485 . S
C102 H106 0.960 . S
C102 H107 0.961 . S
C102 H108 0.960 1_455 S
C103 N101 1.346 . S
C103 N104 1.307 . S
C103 C105 1.486 . S
N104 N100 1.370 1_455 S
N104 C103 1.307 . S
C105 C103 1.486 . S
C105 H109 0.960 . S
C105 H110 0.960 . S
C105 H111 0.959 . S
H106 C102 0.960 . S
H107 C102 0.961 . S
H108 C102 0.960 1_655 S
H109 C105 0.960 . S
H110 C105 0.960 . S
H111 C105 0.959 . S
C112 N113 1.317 . S
C112 N114 1.348 . S
C112 C115 1.485 . S
N113 C112 1.317 . S
N113 N117 1.370 . S
N114 C112 1.348 . S
N114 C116 1.346 . S
C115 C112 1.485 . S
C115 H119 0.960 . S
C115 H120 0.961 . S
C115 H121 0.960 . S
C116 N114 1.346 . S
C116 N117 1.307 . S
C116 C118 1.486 . S
N117 N113 1.370 . S
N117 C116 1.307 . S
C118 C116 1.486 . S
C118 H122 0.960 . S
C118 H123 0.960 . S
C118 H124 0.959 . S
H119 C115 0.960 . S
H120 C115 0.961 . S
H121 C115 0.960 . S
H122 C118 0.960 . S
H123 C118 0.960 . S
H124 C118 0.959 . S
C125 N126 1.317 . S
C125 N127 1.348 . S
C125 C128 1.485 . S
N126 C125 1.317 . S
N126 N130 1.370 . S
N127 C125 1.348 . S
N127 C129 1.346 . S
C128 C125 1.485 . S
C128 H132 0.960 . S
C128 H133 0.961 . S
C128 H134 0.960 . S
C129 N127 1.346 . S
C129 N130 1.307 . S
C129 C131 1.486 . S
N130 N126 1.370 . S
N130 C129 1.307 . S
C131 C129 1.486 . S
C131 H135 0.960 . S
C131 H136 0.960 . S
C131 H137 0.959 . S
H132 C128 0.960 . S
H133 C128 0.961 . S
H134 C128 0.960 . S
H135 C131 0.960 . S
H136 C131 0.960 . S
H137 C131 0.959 . S
H138 C146 0.950 . S
H139 C151 0.950 . S
H140 C148 0.950 . S
H141 C150 0.950 . S
H142 C152 0.950 . S
H143 C154 0.950 . S
H144 C156 0.950 . S
H145 C157 0.950 . S
C146 H138 0.950 . S
C146 C147 1.386 . S
C146 C148 1.391 . S
C147 C146 1.386 . S
C147 C151 1.393 . S
C148 H140 0.950 . S
C148 C146 1.391 . S
C148 C149 1.400 . S
C149 C148 1.400 . S
C149 C150 1.398 . S
C149 C155 1.491 . S
C150 H141 0.950 . S
C150 C149 1.398 . S
C150 C151 1.391 . S
C151 H139 0.950 . S
C151 C147 1.393 . S
C151 C150 1.391 . S
C152 H142 0.950 . S
C152 C153 1.386 . S
C152 C154 1.391 . S
C153 C152 1.386 . S
C153 C157 1.393 . S
C154 H143 0.950 . S
C154 C152 1.391 . S
C154 C155 1.400 . S
C155 C149 1.491 . S
C155 C154 1.400 . S
C155 C156 1.398 . S
C156 H144 0.950 . S
C156 C155 1.398 . S
C156 C157 1.391 . S
C157 H145 0.950 . S
C157 C153 1.393 . S
C157 C156 1.391 . S
H158 C166 0.950 . S
H159 C171 0.950 . S
H160 C168 0.950 . S
H161 C170 0.950 . S
H162 C172 0.950 . S
H163 C174 0.950 . S
H164 C176 0.950 . S
H165 C177 0.950 . S
C166 H158 0.950 . S
C166 C167 1.386 . S
C166 C168 1.391 . S
C167 C166 1.386 . S
C167 C171 1.393 . S
C168 H160 0.950 . S
C168 C166 1.391 . S
C168 C169 1.400 . S
C169 C168 1.400 . S
C169 C170 1.398 . S
C169 C175 1.491 . S
C170 H161 0.950 . S
C170 C169 1.398 . S
C170 C171 1.391 . S
C171 H159 0.950 . S
C171 C167 1.393 . S
C171 C170 1.391 . S
C172 H162 0.950 . S
C172 C173 1.386 . S
C172 C174 1.391 . S
C173 C172 1.386 . S
C173 C177 1.393 . S
C174 H163 0.950 . S
C174 C172 1.391 . S
C174 C175 1.400 . S
C175 C169 1.491 . S
C175 C174 1.400 . S
C175 C176 1.398 . S
C176 H164 0.950 . S
C176 C175 1.398 . S
C176 C177 1.391 . S
C177 H165 0.950 . S
C177 C173 1.393 . S
C177 C176 1.391 . S
H178 C186 0.950 . S
H179 C191 0.950 . S
H180 C188 0.950 . S
H181 C190 0.950 . S
H182 C192 0.950 . S
H183 C194 0.950 . S
H184 C196 0.950 . S
H185 C197 0.950 . S
C186 H178 0.950 . S
C186 C187 1.386 . S
C186 C188 1.391 . S
C187 C186 1.386 . S
C187 C191 1.393 . S
C188 H180 0.950 . S
C188 C186 1.391 . S
C188 C189 1.400 . S
C189 C188 1.400 . S
C189 C190 1.398 . S
C189 C195 1.491 . S
C190 H181 0.950 . S
C190 C189 1.398 . S
C190 C191 1.391 . S
C191 H179 0.950 . S
C191 C187 1.393 . S
C191 C190 1.391 . S
C192 H182 0.950 . S
C192 C193 1.386 . S
C192 C194 1.391 . S
C193 C192 1.386 . S
C193 C197 1.393 . S
C194 H183 0.950 . S
C194 C192 1.391 . S
C194 C195 1.400 . S
C195 C189 1.491 . S
C195 C194 1.400 . S
C195 C196 1.398 . S
C196 H184 0.950 . S
C196 C195 1.398 . S
C196 C197 1.391 . S
C197 H185 0.950 . S
C197 C193 1.393 . S
C197 C196 1.391 . S
H198 C206 0.950 . S
H199 C211 0.950 . S
H200 C208 0.950 . S
H201 C210 0.950 . S
H202 C212 0.950 . S
H203 C214 0.950 . S
H204 C216 0.950 . S
H205 C217 0.950 . S
C206 H198 0.950 . S
C206 C207 1.386 . S
C206 C208 1.391 . S
C207 C206 1.386 . S
C207 C211 1.393 . S
C208 H200 0.950 . S
C208 C206 1.391 . S
C208 C209 1.400 . S
C209 C208 1.400 . S
C209 C210 1.398 . S
C209 C215 1.491 . S
C210 H201 0.950 . S
C210 C209 1.398 . S
C210 C211 1.391 . S
C211 H199 0.950 . S
C211 C207 1.393 . S
C211 C210 1.391 . S
C212 H202 0.950 . S
C212 C213 1.386 . S
C212 C214 1.391 . S
C213 C212 1.386 . S
C213 C217 1.393 . S
C214 H203 0.950 . S
C214 C212 1.391 . S
C214 C215 1.400 . S
C215 C209 1.491 . S
C215 C214 1.400 . S
C215 C216 1.398 . S
C216 H204 0.950 . S
C216 C215 1.398 . S
C216 C217 1.391 . S
C217 H205 0.950 . S
C217 C213 1.393 . S
C217 C216 1.391 . S
H218 C226 0.950 . S
H219 C231 0.950 . S
H220 C228 0.950 . S
H221 C230 0.950 . S
H222 C232 0.950 . S
H223 C234 0.950 . S
H224 C236 0.950 . S
H225 C237 0.950 . S
C226 H218 0.950 . S
C226 C227 1.386 . S
C226 C228 1.391 . S
C227 C226 1.386 . S
C227 C231 1.393 . S
C228 H220 0.950 . S
C228 C226 1.391 . S
C228 C229 1.400 . S
C229 C228 1.400 . S
C229 C230 1.398 . S
C229 C235 1.491 . S
C230 H221 0.950 . S
C230 C229 1.398 . S
C230 C231 1.391 . S
C231 H219 0.950 . S
C231 C227 1.393 . S
C231 C230 1.391 . S
C232 H222 0.950 . S
C232 C233 1.386 . S
C232 C234 1.391 . S
C233 C232 1.386 . S
C233 C237 1.393 . S
C234 H223 0.950 . S
C234 C232 1.391 . S
C234 C235 1.400 . S
C235 C229 1.491 . S
C235 C234 1.400 . S
C235 C236 1.398 . S
C236 H224 0.950 . S
C236 C235 1.398 . S
C236 C237 1.391 . S
C237 H225 0.950 . S
C237 C233 1.393 . S
C237 C236 1.391 . S
H238 C246 0.950 . S
H239 C251 0.950 . S
H240 C248 0.950 . S
H241 C250 0.950 . S
H242 C252 0.950 . S
H243 C254 0.950 . S
H244 C256 0.950 . S
H245 C257 0.950 . S
C246 H238 0.950 . S
C246 C247 1.386 . S
C246 C248 1.391 . S
C247 C246 1.386 . S
C247 C251 1.393 . S
C248 H240 0.950 . S
C248 C246 1.391 . S
C248 C249 1.400 . S
C249 C248 1.400 . S
C249 C250 1.398 . S
C249 C255 1.491 . S
C250 H241 0.950 . S
C250 C249 1.398 . S
C250 C251 1.391 . S
C251 H239 0.950 . S
C251 C247 1.393 . S
C251 C250 1.391 . S
C252 H242 0.950 . S
C252 C253 1.386 . S
C252 C254 1.391 . S
C253 C252 1.386 . S
C253 C257 1.393 . S
C254 H243 0.950 . S
C254 C252 1.391 . S
C254 C255 1.400 . S
C255 C249 1.491 . S
C255 C254 1.400 . S
C255 C256 1.398 . S
C256 H244 0.950 . S
C256 C255 1.398 . S
C256 C257 1.391 . S
C257 H245 0.950 . S
C257 C253 1.393 . S
C257 C256 1.391 . S
H258 C266 0.950 . S
H259 C271 0.950 . S
H260 C268 0.950 . S
H261 C270 0.950 . S
H262 C272 0.950 . S
H263 C274 0.950 . S
H264 C276 0.950 . S
H265 C277 0.950 . S
C266 H258 0.950 . S
C266 C267 1.386 . S
C266 C268 1.391 . S
C267 C266 1.386 . S
C267 C271 1.393 . S
C268 H260 0.950 . S
C268 C266 1.391 . S
C268 C269 1.400 . S
C269 C268 1.400 . S
C269 C270 1.398 . S
C269 C275 1.491 . S
C270 H261 0.950 . S
C270 C269 1.398 . S
C270 C271 1.391 . S
C271 H259 0.950 . S
C271 C267 1.393 . S
C271 C270 1.391 . S
C272 H262 0.950 . S
C272 C273 1.386 . S
C272 C274 1.391 . S
C273 C272 1.386 . S
C273 C277 1.393 . S
C274 H263 0.950 . S
C274 C272 1.391 . S
C274 C275 1.400 . S
C275 C269 1.491 . S
C275 C274 1.400 . S
C275 C276 1.398 . S
C276 H264 0.950 . S
C276 C275 1.398 . S
C276 C277 1.391 . S
C277 H265 0.950 . S
C277 C273 1.393 . S
C277 C276 1.391 . S
H278 C286 0.950 . S
H279 C291 0.950 . S
H280 C288 0.950 . S
H281 C290 0.950 . S
H282 C292 0.950 . S
H283 C294 0.950 . S
H284 C296 0.950 . S
H285 C297 0.950 . S
C286 H278 0.950 . S
C286 C287 1.386 . S
C286 C288 1.391 . S
C287 C286 1.386 . S
C287 C291 1.393 . S
C288 H280 0.950 . S
C288 C286 1.391 . S
C288 C289 1.400 . S
C289 C288 1.400 . S
C289 C290 1.398 . S
C289 C295 1.491 . S
C290 H281 0.950 . S
C290 C289 1.398 . S
C290 C291 1.391 . S
C291 H279 0.950 . S
C291 C287 1.393 . S
C291 C290 1.391 . S
C292 H282 0.950 . S
C292 C293 1.386 . S
C292 C294 1.391 . S
C293 C292 1.386 . S
C293 C297 1.393 . S
C294 H283 0.950 . S
C294 C292 1.391 . S
C294 C295 1.400 . S
C295 C289 1.491 . S
C295 C294 1.400 . S
C295 C296 1.398 . S
C296 H284 0.950 . S
C296 C295 1.398 . S
C296 C297 1.391 . S
C297 H285 0.950 . S
C297 C293 1.393 . S
C297 C296 1.391 . S
H298 C306 0.950 . S
H299 C311 0.950 . S
H300 C308 0.950 . S
H301 C310 0.950 . S
H302 C312 0.950 . S
H303 C314 0.950 . S
H304 C316 0.950 . S
H305 C317 0.950 . S
C306 H298 0.950 . S
C306 C307 1.386 . S
C306 C308 1.391 . S
C307 C306 1.386 . S
C307 C311 1.393 . S
C308 H300 0.950 . S
C308 C306 1.391 . S
C308 C309 1.400 . S
C309 C308 1.400 . S
C309 C310 1.398 . S
C309 C315 1.491 . S
C310 H301 0.950 . S
C310 C309 1.398 . S
C310 C311 1.391 . S
C311 H299 0.950 . S
C311 C307 1.393 . S
C311 C310 1.391 . S
C312 H302 0.950 . S
C312 C313 1.386 . S
C312 C314 1.391 . S
C313 C312 1.386 . S
C313 C317 1.393 . S
C314 H303 0.950 . S
C314 C312 1.391 . S
C314 C315 1.400 . S
C315 C309 1.491 . S
C315 C314 1.400 . S
C315 C316 1.398 . S
C316 H304 0.950 . S
C316 C315 1.398 . S
C316 C317 1.391 . S
C317 H305 0.950 . S
C317 C313 1.393 . S
C317 C316 1.391 . S
H318 C326 0.950 . S
H319 C331 0.950 . S
H320 C328 0.950 . S
H321 C330 0.950 . S
H322 C332 0.950 . S
H323 C334 0.950 . S
H324 C336 0.950 . S
H325 C337 0.950 . S
C326 H318 0.950 . S
C326 C327 1.386 . S
C326 C328 1.391 . S
C327 C326 1.386 . S
C327 C331 1.393 . S
C328 H320 0.950 . S
C328 C326 1.391 . S
C328 C329 1.400 . S
C329 C328 1.400 . S
C329 C330 1.398 . S
C329 C335 1.491 . S
C330 H321 0.950 . S
C330 C329 1.398 . S
C330 C331 1.391 . S
C331 H319 0.950 . S
C331 C327 1.393 . S
C331 C330 1.391 . S
C332 H322 0.950 . S
C332 C333 1.386 . S
C332 C334 1.391 . S
C333 C332 1.386 . S
C333 C337 1.393 . S
C334 H323 0.950 . S
C334 C332 1.391 . S
C334 C335 1.400 . S
C335 C329 1.491 . S
C335 C334 1.400 . S
C335 C336 1.398 . S
C336 H324 0.950 . S
C336 C335 1.398 . S
C336 C337 1.391 . S
C337 H325 0.950 . S
C337 C333 1.393 . S
C337 C336 1.391 . S
H338 C346 0.950 . S
H339 C351 0.950 . S
H340 C348 0.950 . S
H341 C350 0.950 . S
H342 C352 0.950 . S
H343 C354 0.950 . S
H344 C356 0.950 . S
H345 C357 0.950 . S
C346 H338 0.950 . S
C346 C347 1.386 . S
C346 C348 1.391 . S
C347 C346 1.386 . S
C347 C351 1.393 . S
C348 H340 0.950 . S
C348 C346 1.391 . S
C348 C349 1.400 . S
C349 C348 1.400 . S
C349 C350 1.398 . S
C349 C355 1.491 . S
C350 H341 0.950 . S
C350 C349 1.398 . S
C350 C351 1.391 . S
C351 H339 0.950 . S
C351 C347 1.393 . S
C351 C350 1.391 . S
C352 H342 0.950 . S
C352 C353 1.386 . S
C352 C354 1.391 . S
C353 C352 1.386 . S
C353 C357 1.393 . S
C354 H343 0.950 . S
C354 C352 1.391 . S
C354 C355 1.400 . S
C355 C349 1.491 . S
C355 C354 1.400 . S
C355 C356 1.398 . S
C356 H344 0.950 . S
C356 C355 1.398 . S
C356 C357 1.391 . S
C357 H345 0.950 . S
C357 C353 1.393 . S
C357 C356 1.391 . S
H358 C366 0.950 . S
H359 C371 0.950 . S
H360 C368 0.950 . S
H361 C370 0.950 . S
H362 C372 0.950 . S
H363 C374 0.950 . S
H364 C376 0.950 . S
H365 C377 0.950 . S
C366 H358 0.950 . S
C366 C367 1.386 . S
C366 C368 1.391 . S
C367 C366 1.386 . S
C367 C371 1.393 . S
C368 H360 0.950 . S
C368 C366 1.391 . S
C368 C369 1.400 . S
C369 C368 1.400 . S
C369 C370 1.398 . S
C369 C375 1.491 . S
C370 H361 0.950 . S
C370 C369 1.398 . S
C370 C371 1.391 . S
C371 H359 0.950 . S
C371 C367 1.393 . S
C371 C370 1.391 . S
C372 H362 0.950 . S
C372 C373 1.386 . S
C372 C374 1.391 . S
C373 C372 1.386 . S
C373 C377 1.393 . S
C374 H363 0.950 . S
C374 C372 1.391 . S
C374 C375 1.400 . S
C375 C369 1.491 . S
C375 C374 1.400 . S
C375 C376 1.398 . S
C376 H364 0.950 . S
C376 C375 1.398 . S
C376 C377 1.391 . S
C377 H365 0.950 . S
C377 C373 1.393 . S
C377 C376 1.391 . S
H378 C386 0.950 1_655 S
H379 C391 0.950 . S
H380 C388 0.950 1_655 S
H381 C390 0.950 . S
H382 C392 0.950 . S
H383 C394 0.950 . S
H384 C396 0.950 1_655 S
H385 C397 0.950 . S
C386 H378 0.950 1_455 S
C386 C387 1.386 . S
C386 C388 1.391 . S
C387 C386 1.386 . S
C387 C391 1.393 . S
C388 H380 0.950 1_455 S
C388 C386 1.391 . S
C388 C389 1.400 . S
C389 C388 1.400 . S
C389 C390 1.398 . S
C389 C395 1.491 1_554 S
C390 H381 0.950 . S
C390 C389 1.398 . S
C390 C391 1.391 . S
C391 H379 0.950 . S
C391 C387 1.393 . S
C391 C390 1.391 . S
C392 H382 0.950 . S
C392 C393 1.386 . S
C392 C394 1.391 . S
C393 C392 1.386 . S
C393 C397 1.393 . S
C394 H383 0.950 . S
C394 C392 1.391 . S
C394 C395 1.400 . S
C395 C389 1.491 1_556 S
C395 C394 1.400 . S
C395 C396 1.398 . S
C396 H384 0.950 1_455 S
C396 C395 1.398 . S
C396 C397 1.391 . S
C397 H385 0.950 . S
C397 C393 1.393 . S
C397 C396 1.391 . S
H398 C406 0.950 1_565 S
H399 C411 0.950 . S
H400 C408 0.950 1_565 S
H401 C410 0.950 . S
H402 C412 0.950 . S
H403 C414 0.950 . S
H404 C416 0.955 . S
H405 C417 0.950 . S
C406 H398 0.950 1_545 S
C406 C407 1.386 . S
C406 C408 1.391 . S
C407 C406 1.386 . S
C407 C411 1.393 . S
C408 H400 0.950 1_545 S
C408 C406 1.391 . S
C408 C409 1.400 . S
C409 C408 1.400 . S
C409 C410 1.398 . S
C409 C415 1.491 . S
C410 H401 0.950 . S
C410 C409 1.398 . S
C410 C411 1.391 . S
C411 H399 0.950 . S
C411 C407 1.393 . S
C411 C410 1.391 . S
C412 H402 0.950 . S
C412 C413 1.386 . S
C412 C414 1.391 . S
C413 C412 1.386 . S
C413 C417 1.393 1_545 S
C414 H403 0.950 . S
C414 C412 1.391 . S
C414 C415 1.400 . S
C415 C409 1.491 . S
C415 C414 1.400 . S
C415 C416 1.394 1_545 S
C416 H404 0.955 . S
C416 C415 1.394 1_565 S
C416 C417 1.390 . S
C417 H405 0.950 . S
C417 C413 1.393 1_565 S
C417 C416 1.390 . S
H418 C426 0.950 . S
H419 C431 0.950 . S
H420 C428 0.950 . S
H421 C430 0.950 . S
H422 C432 0.950 . S
H423 C434 0.950 . S
H424 C436 0.950 . S
H425 C437 0.950 . S
C426 H418 0.950 . S
C426 C427 1.386 . S
C426 C428 1.391 . S
C427 C426 1.386 . S
C427 C431 1.393 . S
C428 H420 0.950 . S
C428 C426 1.391 . S
C428 C429 1.400 . S
C429 C428 1.400 . S
C429 C430 1.398 . S
C429 C435 1.491 . S
C430 H421 0.950 . S
C430 C429 1.398 . S
C430 C431 1.391 . S
C431 H419 0.950 . S
C431 C427 1.393 . S
C431 C430 1.391 . S
C432 H422 0.950 . S
C432 C433 1.386 . S
C432 C434 1.391 . S
C433 C432 1.386 . S
C433 C437 1.393 . S
C434 H423 0.950 . S
C434 C432 1.391 . S
C434 C435 1.400 . S
C435 C429 1.491 . S
C435 C434 1.400 . S
C435 C436 1.398 . S
C436 H424 0.950 . S
C436 C435 1.398 . S
C436 C437 1.391 . S
C437 H425 0.950 . S
C437 C433 1.393 . S
C437 C436 1.391 . S
H438 C446 0.950 . S
H439 C451 0.950 . S
H440 C448 0.950 . S
H441 C450 0.950 1_565 S
H442 C452 0.950 . S
H443 C454 0.961 . S
H444 C456 0.950 . S
H445 C457 0.950 . S
C446 H438 0.950 . S
C446 C447 1.386 . S
C446 C448 1.391 . S
C447 C446 1.386 . S
C447 C451 1.393 1_545 S
C448 H440 0.950 . S
C448 C446 1.391 . S
C448 C449 1.400 . S
C449 C448 1.400 . S
C449 C450 1.398 . S
C449 C455 1.491 . S
C450 H441 0.950 1_545 S
C450 C449 1.398 . S
C450 C451 1.391 1_545 S
C451 H439 0.950 . S
C451 C447 1.393 1_565 S
C451 C450 1.391 1_565 S
C452 H442 0.950 . S
C452 C453 1.386 . S
C452 C454 1.391 . S
C453 C452 1.386 . S
C453 C457 1.393 . S
C454 H443 0.961 . S
C454 C452 1.391 . S
C454 C455 1.400 . S
C455 C449 1.491 . S
C455 C454 1.400 . S
C455 C456 1.398 . S
C456 H444 0.950 . S
C456 C455 1.398 . S
C456 C457 1.391 . S
C457 H445 0.950 . S
C457 C453 1.393 . S
C457 C456 1.391 . S
H458 C466 0.950 . S
H459 C471 0.950 . S
H460 C468 0.950 . S
H461 C470 0.950 . S
H462 C472 0.950 . S
H463 C474 0.950 . S
H464 C476 0.950 . S
H465 C477 0.950 . S
C466 H458 0.950 . S
C466 C467 1.386 . S
C466 C468 1.391 . S
C467 C466 1.386 . S
C467 C471 1.393 . S
C468 H460 0.950 . S
C468 C466 1.391 . S
C468 C469 1.400 . S
C469 C468 1.400 . S
C469 C470 1.398 . S
C469 C475 1.491 1_556 S
C470 H461 0.950 . S
C470 C469 1.398 . S
C470 C471 1.391 . S
C471 H459 0.950 . S
C471 C467 1.393 . S
C471 C470 1.391 . S
C472 H462 0.950 . S
C472 C473 1.386 . S
C472 C474 1.391 . S
C473 C472 1.386 . S
C473 C477 1.393 . S
C474 H463 0.950 . S
C474 C472 1.391 . S
C474 C475 1.400 . S
C475 C469 1.491 1_554 S
C475 C474 1.400 . S
C475 C476 1.398 . S
C476 H464 0.950 . S
C476 C475 1.398 . S
C476 C477 1.391 . S
C477 H465 0.950 . S
C477 C473 1.393 . S
C477 C476 1.391 . S
H478 C486 0.950 . S
H479 C491 0.950 . S
H480 C488 0.950 . S
H481 C490 0.950 1_455 S
H482 C492 0.950 . S
H483 C494 0.950 . S
H484 C496 0.950 . S
H485 C497 0.950 . S
C486 H478 0.950 . S
C486 C487 1.386 . S
C486 C488 1.391 . S
C487 C486 1.386 . S
C487 C491 1.393 . S
C488 H480 0.950 . S
C488 C486 1.391 . S
C488 C489 1.400 . S
C489 C488 1.400 . S
C489 C490 1.398 . S
C489 C495 1.491 . S
C490 H481 0.950 1_655 S
C490 C489 1.398 . S
C490 C491 1.391 . S
C491 H479 0.950 . S
C491 C487 1.393 . S
C491 C490 1.391 . S
C492 H482 0.950 . S
C492 C493 1.386 . S
C492 C494 1.391 . S
C493 C492 1.386 . S
C493 C497 1.393 1_455 S
C494 H483 0.950 . S
C494 C492 1.391 . S
C494 C495 1.400 1_455 S
C495 C489 1.491 . S
C495 C494 1.400 1_655 S
C495 C496 1.398 . S
C496 H484 0.950 . S
C496 C495 1.398 . S
C496 C497 1.391 . S
C497 H485 0.950 . S
C497 C493 1.393 1_655 S
C497 C496 1.391 . S
C147 C8 1.684 . S
C153 N127 1.713 . S
C167 C26 1.264 . S
C173 N100 1.275 . S
C187 C48 1.442 . S
C193 N113 1.484 1_565 S
C207 C19 1.990 . S
C213 N126 2.106 . S
C233 N101 1.555 . S
C227 C36 1.499 . S
C253 N114 1.706 . S
C247 C59 1.610 . S
C267 C28 1.432 . S
C273 N74 1.490 . S
C287 C46 0.929 . S
C293 N88 0.933 1_655 S
C307 C16 1.508 . S
C313 N62 1.539 . S
C333 N75 1.708 . S
C327 C39 1.596 . S
C353 N87 1.318 . S
C347 C56 1.265 . S
C367 C6 1.308 . S
C373 N61 1.316 . S
C393 N91 1.515 . S
C387 C9 1.521 . S
C407 C21 1.522 . S
C413 N65 1.541 . S
C427 C49 1.547 . S
C433 N78 1.567 . S
C453 N117 1.527 . S
C447 C29 1.532 . S
C473 N130 1.587 . S
C467 C41 1.605 . S
C487 C1 1.571 . S
C493 N104 1.566 . S
