# Generated by pormake.
# Topology hwx, (6,3)-cn, num edge types: 1
# Building blocks:
#     Node 0, Type 0, BuildingBlock: IZENUY_clean_sbu_0, # of connection points: 6
#     Node 1, Type 0, BuildingBlock: IZENUY_clean_sbu_0, # of connection points: 6
#     Node 2, Type 0, BuildingBlock: IZENUY_clean_sbu_0, # of connection points: 6
#     Node 3, Type 0, BuildingBlock: IZENUY_clean_sbu_0, # of connection points: 6
#     Node 4, Type 1, BuildingBlock: QEWDON_clean_linker_0, # of connection points: 3
#     Node 5, Type 1, BuildingBlock: QEWDON_clean_linker_0, # of connection points: 3
#     Node 6, Type 1, BuildingBlock: QEWDON_clean_linker_0, # of connection points: 3
#     Node 7, Type 1, BuildingBlock: QEWDON_clean_linker_0, # of connection points: 3
#     Node 8, Type 1, BuildingBlock: QEWDON_clean_linker_0, # of connection points: 3
#     Node 9, Type 1, BuildingBlock: QEWDON_clean_linker_0, # of connection points: 3
#     Node 10, Type 1, BuildingBlock: QEWDON_clean_linker_0, # of connection points: 3
#     Node 11, Type 1, BuildingBlock: QEWDON_clean_linker_0, # of connection points: 3
#     Edge 12, Type (0, 1), BuildingBlock: ZUJKAS_clean_linker_0, # of connection points: 2
#     Edge 13, Type (0, 1), BuildingBlock: ZUJKAS_clean_linker_0, # of connection points: 2
#     Edge 14, Type (0, 1), BuildingBlock: ZUJKAS_clean_linker_0, # of connection points: 2
#     Edge 15, Type (0, 1), BuildingBlock: ZUJKAS_clean_linker_0, # of connection points: 2
#     Edge 16, Type (0, 1), BuildingBlock: ZUJKAS_clean_linker_0, # of connection points: 2
#     Edge 17, Type (0, 1), BuildingBlock: ZUJKAS_clean_linker_0, # of connection points: 2
#     Edge 18, Type (0, 1), BuildingBlock: ZUJKAS_clean_linker_0, # of connection points: 2
#     Edge 19, Type (0, 1), BuildingBlock: ZUJKAS_clean_linker_0, # of connection points: 2
#     Edge 20, Type (0, 1), BuildingBlock: ZUJKAS_clean_linker_0, # of connection points: 2
#     Edge 21, Type (0, 1), BuildingBlock: ZUJKAS_clean_linker_0, # of connection points: 2
#     Edge 22, Type (0, 1), BuildingBlock: ZUJKAS_clean_linker_0, # of connection points: 2
#     Edge 23, Type (0, 1), BuildingBlock: ZUJKAS_clean_linker_0, # of connection points: 2
#     Edge 24, Type (0, 1), BuildingBlock: ZUJKAS_clean_linker_0, # of connection points: 2
#     Edge 25, Type (0, 1), BuildingBlock: ZUJKAS_clean_linker_0, # of connection points: 2
#     Edge 26, Type (0, 1), BuildingBlock: ZUJKAS_clean_linker_0, # of connection points: 2
#     Edge 27, Type (0, 1), BuildingBlock: ZUJKAS_clean_linker_0, # of connection points: 2
#     Edge 28, Type (0, 1), BuildingBlock: ZUJKAS_clean_linker_0, # of connection points: 2
#     Edge 29, Type (0, 1), BuildingBlock: ZUJKAS_clean_linker_0, # of connection points: 2
#     Edge 30, Type (0, 1), BuildingBlock: ZUJKAS_clean_linker_0, # of connection points: 2
#     Edge 31, Type (0, 1), BuildingBlock: ZUJKAS_clean_linker_0, # of connection points: 2
#     Edge 32, Type (0, 1), BuildingBlock: ZUJKAS_clean_linker_0, # of connection points: 2
#     Edge 33, Type (0, 1), BuildingBlock: ZUJKAS_clean_linker_0, # of connection points: 2
#     Edge 34, Type (0, 1), BuildingBlock: ZUJKAS_clean_linker_0, # of connection points: 2
#     Edge 35, Type (0, 1), BuildingBlock: ZUJKAS_clean_linker_0, # of connection points: 2
# Relax obj value: 0.005
# Max RMSD: 0.122
# Mean RMSD: 0.093
data_MOF--net-hwx--node1-IZENUY_clean_sbu_0--node2-QEWDON_clean_linker_0--edge1-ZUJKAS_clean_linker_0
_symmetry_space_group_name_H-M    P1
_symmetry_Int_Tables_number       1
_symmetry_cell_setting            triclinic
loop_
_symmetry_equiv_pos_as_xyz
'x, y, z'
_cell_length_a     69.639642
_cell_length_b     69.667512
_cell_length_c     26.219195
_cell_angle_alpha  92.163067
_cell_angle_beta   92.11018
_cell_angle_gamma 89.983865
loop_
_atom_site_label
_atom_site_type_symbol
_atom_site_fract_x
_atom_site_fract_y
_atom_site_fract_z
_atom_type_partial_charge
Fe0 Fe 0.23805 0.24542 0.05587 0.0
Fe1 Fe 0.23609 0.24471 0.93855 0.0
O2 O 0.22801 0.2362 0.99693 0.0
Fe3 Fe 0.20985 0.2184 0.99656 0.0
O4 O 0.19943 0.2272 0.05636 0.0
O5 O 0.21479 0.25414 0.07592 0.0
O6 O 0.2425 0.26962 0.0331 0.0
C7 C 0.2354 0.27844 0.99545 0.0
C8 C 0.23368 0.20562 0.07267 0.0
O9 O 0.22935 0.26927 0.95564 0.0
C10 C 0.23266 0.20619 0.91439 0.0
O11 O 0.26189 0.23733 0.03952 0.0
O12 O 0.26113 0.24864 0.96224 0.0
O13 O 0.22562 0.20193 0.0296 0.0
O14 O 0.23554 0.22285 0.08953 0.0
C15 C 0.19562 0.24093 0.92104 0.0
O16 O 0.24347 0.22075 0.91738 0.0
O17 O 0.21686 0.20628 0.93676 0.0
C18 C 0.27044 0.24198 1.00019 0.0
O19 O 0.21246 0.24228 0.9045 0.0
O20 O 0.1929 0.2337 0.96354 0.0
C21 C 0.20018 0.2436 0.07888 0.0
Fe22 Fe 0.27603 0.74725 0.57007 0.0
Fe23 Fe 0.30253 0.71992 0.51116 0.0
O24 O 0.28452 0.73787 0.51128 0.0
Fe25 Fe 0.27512 0.74641 0.45264 0.0
O26 O 0.2827 0.77079 0.46988 0.0
O27 O 0.27154 0.7716 0.54727 0.0
O28 O 0.29988 0.75552 0.59098 0.0
C29 C 0.31448 0.74485 0.59415 0.0
C30 C 0.24224 0.7443 0.51353 0.0
O31 O 0.31455 0.72852 0.57126 0.0
C32 C 0.27761 0.70799 0.42814 0.0
O33 O 0.2789 0.72452 0.60353 0.0
O34 O 0.28739 0.7036 0.54371 0.0
O35 O 0.25071 0.75069 0.47563 0.0
O36 O 0.25166 0.73968 0.5532 0.0
C37 C 0.31508 0.74229 0.43593 0.0
O38 O 0.29393 0.70792 0.45106 0.0
O39 O 0.26691 0.72258 0.43138 0.0
C40 C 0.28021 0.7073 0.5864 0.0
O41 O 0.31882 0.73511 0.47858 0.0
O42 O 0.29784 0.74365 0.41902 0.0
C43 C 0.27802 0.78014 0.50965 0.0
Fe44 Fe 0.77611 0.7852 0.96564 0.0
Fe45 Fe 0.77786 0.78646 0.08321 0.0
O46 O 0.78586 0.79484 0.0246 0.0
Fe47 Fe 0.80372 0.81296 0.02513 0.0
O48 O 0.78769 0.82906 0.99182 0.0
O49 O 0.77775 0.80795 0.93214 0.0
O50 O 0.7519 0.79227 0.98153 0.0
C51 C 0.74353 0.78756 0.02105 0.0
C52 C 0.81402 0.78816 0.94265 0.0
O53 O 0.75307 0.78169 0.0595 0.0
C54 C 0.81816 0.79085 0.10103 0.0
O55 O 0.77277 0.76081 0.98872 0.0
O56 O 0.78526 0.76207 0.06714 0.0
O57 O 0.81444 0.80447 0.96556 0.0
O58 O 0.79961 0.77733 0.9453 0.0
C59 C 0.78045 0.825 0.10644 0.0
O60 O 0.80132 0.78963 0.11764 0.0
O61 O 0.82087 0.79793 0.05836 0.0
C62 C 0.77997 0.75251 0.02721 0.0
O63 O 0.76981 0.81032 0.10312 0.0
O64 O 0.7964 0.82499 0.08484 0.0
C65 C 0.77951 0.82522 0.94894 0.0
Fe66 Fe 0.70969 0.31341 0.51276 0.0
Fe67 Fe 0.73689 0.28624 0.56971 0.0
O68 O 0.72749 0.29522 0.51153 0.0
Fe69 Fe 0.73575 0.28616 0.4521 0.0
O70 O 0.73328 0.30925 0.42016 0.0
O71 O 0.7251 0.3298 0.48126 0.0
O72 O 0.71831 0.32483 0.57348 0.0
C73 C 0.73465 0.32455 0.59612 0.0
C74 C 0.69727 0.28938 0.42868 0.0
O75 O 0.74524 0.30992 0.59211 0.0
C76 C 0.73378 0.25279 0.51125 0.0
O77 O 0.69322 0.29812 0.54439 0.0
O78 O 0.71415 0.28882 0.60326 0.0
O79 O 0.71171 0.27846 0.4309 0.0
O80 O 0.69757 0.30555 0.45228 0.0
C81 C 0.76975 0.28817 0.50856 0.0
O82 O 0.72936 0.26191 0.55164 0.0
O83 O 0.73975 0.26155 0.47337 0.0
C84 C 0.69692 0.29042 0.58638 0.0
O85 O 0.7612 0.28199 0.54654 0.0
O86 O 0.76039 0.29306 0.46898 0.0
C87 C 0.73226 0.32635 0.43842 0.0
H88 H 0.2646 0.53466 0.07547 0.0
C89 C 0.26191 0.54172 0.03976 0.0
C90 C 0.25465 0.56056 0.04011 0.0
C91 C 0.26685 0.53237 0.99367 0.0
H92 H 0.24737 0.58461 0.99393 0.0
C93 C 0.25199 0.56974 0.99359 0.0
C94 C 0.25714 0.56073 0.94726 0.0
C95 C 0.26454 0.54195 0.94764 0.0
C96 C 0.27776 0.5142 0.99474 0.0
H97 H 0.26915 0.53501 0.91246 0.0
C98 C 0.26857 0.4963 0.99836 0.0
C99 C 0.27959 0.47933 1.00094 0.0
C100 C 0.29784 0.51502 0.99309 0.0
H101 H 0.3051 0.52868 0.99029 0.0
C102 C 0.30874 0.49829 0.99556 0.0
H103 H 0.25305 0.49562 0.99966 0.0
C104 C 0.29973 0.48058 0.99961 0.0
H105 H 0.30852 0.46776 1.001 0.0
H106 H 0.32425 0.49905 0.99435 0.0
H107 H 0.98788 0.74289 0.4531 0.0
C108 C 0.98009 0.74648 0.48719 0.0
C109 C 0.96269 0.75671 0.48339 0.0
C110 C 0.98691 0.73992 0.53458 0.0
H111 H 0.9387 0.76781 0.52495 0.0
C112 C 0.95254 0.76074 0.52789 0.0
C113 C 0.95918 0.75439 0.57554 0.0
C114 C 0.97638 0.74389 0.57851 0.0
C115 C 1.00356 0.72675 0.5373 0.0
H116 H 0.98147 0.73852 0.61485 0.0
C117 C 0.02213 0.73264 0.52484 0.0
C118 C 0.03763 0.7196 0.52718 0.0
C119 C 1.00064 0.70786 0.55217 0.0
H120 H 0.98646 0.70307 0.56179 0.0
C121 C 0.01587 0.69491 0.55405 0.0
H122 H 0.02449 0.74724 0.51361 0.0
C123 C 0.03423 0.70069 0.5416 0.0
H124 H 0.04589 0.69043 0.54424 0.0
H125 H 0.01347 0.68036 0.56541 0.0
H126 H 0.78302 0.49429 0.95559 0.0
C127 C 0.77818 0.48799 0.99005 0.0
C128 C 0.76793 0.47056 0.98686 0.0
C129 C 0.78304 0.49682 0.03787 0.0
H130 H 0.7554 0.44835 0.02982 0.0
C131 C 0.7624 0.46227 0.03207 0.0
C132 C 0.76726 0.4708 0.08021 0.0
C133 C 0.77761 0.48816 0.08273 0.0
C134 C 0.79645 0.51328 0.04133 0.0
H135 H 0.78191 0.49473 0.11953 0.0
C136 C 0.7903 0.53212 0.03161 0.0
C137 C 0.80365 0.54741 0.03428 0.0
C138 C 0.81585 0.50986 0.0541 0.0
H139 H 0.82078 0.49546 0.06174 0.0
C140 C 0.82906 0.52491 0.05668 0.0
H141 H 0.77531 0.53481 0.02181 0.0
C142 C 0.82305 0.54354 0.04675 0.0
H143 H 0.83358 0.55502 0.04966 0.0
H144 H 0.84401 0.52214 0.0665 0.0
H145 H 0.02117 0.25761 0.55719 0.0
C146 C 0.03053 0.26105 0.5267 0.0
C147 C 0.04962 0.26689 0.53835 0.0
C148 C 0.0239 0.25867 0.47544 0.0
H149 H 0.07673 0.27427 0.50702 0.0
C150 C 0.06185 0.27039 0.49833 0.0
C151 C 0.05558 0.26773 0.44719 0.0
C152 C 0.03648 0.26221 0.436 0.0
C153 C 1.00484 0.24999 0.46215 0.0
H154 H 0.03166 0.25966 0.39653 0.0
C155 C 0.98756 0.25888 0.4767 0.0
C156 C 0.96971 0.251 0.45926 0.0
C157 C 1.00404 0.23285 0.4321 0.0
H158 H 0.01713 0.22571 0.42082 0.0
C159 C 0.98643 0.22481 0.41608 0.0
H160 H 0.988 0.27221 0.49942 0.0
C161 C 0.96939 0.23387 0.42917 0.0
H162 H 0.95586 0.22746 0.41578 0.0
H163 H 0.986 0.21161 0.39293 0.0
H164 H 0.76428 1.00113 0.45727 0.0
C165 C 0.76194 0.99232 0.48968 0.0
C166 C 0.75534 0.9733 0.48169 0.0
C167 C 0.76652 0.99959 0.53948 0.0
H168 H 0.74869 0.94695 0.51784 0.0
C169 C 0.75324 0.96177 0.52393 0.0
C170 C 0.75819 0.96864 0.57359 0.0
C171 C 0.7645 0.98768 0.58117 0.0
C172 C 0.77599 0.01853 0.54816 0.0
H173 H 0.76884 0.99298 0.61928 0.0
C174 C 0.76659 0.03583 0.53624 0.0
C175 C 0.77548 0.05365 0.54931 0.0
C176 C 0.79452 0.01922 0.57121 0.0
H177 H 0.80203 1.0061 0.58042 0.0
C178 C 0.80352 0.03678 0.58278 0.0
H179 H 0.7522 0.03544 0.51903 0.0
C180 C 0.79405 0.05387 0.57229 0.0
H181 H 0.80128 0.06736 0.5821 0.0
H182 H 0.81781 0.03714 0.60048 0.0
H183 H 0.52531 0.24128 0.07062 0.0
C184 C 0.53308 0.24509 0.03737 0.0
C185 C 0.55047 0.25531 0.04364 0.0
C186 C 0.52625 0.23887 0.9883 0.0
H187 H 0.57439 0.26694 0.00518 0.0
C188 C 0.56078 0.25941 1.00039 0.0
C189 C 0.55447 0.25287 0.95137 0.0
C190 C 0.53701 0.24281 0.94547 0.0
C191 C 0.5096 0.22568 0.98243 0.0
H192 H 0.53225 0.23721 0.90798 0.0
C193 C 0.4908 0.23178 0.99307 0.0
C194 C 0.47536 0.21863 0.98814 0.0
C195 C 0.51279 0.20651 0.96661 0.0
H196 H 0.52714 0.20157 0.95833 0.0
C197 C 0.49759 0.19349 0.96206 0.0
H198 H 0.48823 0.24659 0.00507 0.0
C199 C 0.47902 0.19945 0.97286 0.0
H200 H 0.4674 0.18912 0.96839 0.0
H201 H 0.5002 0.17872 0.95002 0.0
H202 H 0.28199 0.03384 0.56674 0.0
C203 C 0.27785 0.04177 0.53329 0.0
C204 C 0.26739 0.05896 0.5388 0.0
C205 C 0.28373 0.03531 0.48475 0.0
H206 H 0.2551 0.08296 0.49978 0.0
C207 C 0.26281 0.0695 0.49545 0.0
C208 C 0.26896 0.06355 0.44708 0.0
C209 C 0.27915 0.04626 0.44188 0.0
C210 C 0.29662 0.01848 0.47902 0.0
H211 H 0.28427 0.0417 0.40479 0.0
C212 C 0.29129 1.00009 0.49442 0.0
C213 C 0.30358 0.98418 0.48644 0.0
C214 C 0.3144 0.02089 0.45649 0.0
H215 H 0.31883 0.0349 0.44465 0.0
C216 C 0.32663 1.00532 0.44902 0.0
H217 H 0.27759 0.99819 0.51186 0.0
C218 C 0.32128 0.98712 0.46352 0.0
H219 H 0.33089 0.97523 0.45569 0.0
H220 H 0.34026 1.00733 0.43135 0.0
H221 H 0.4884 0.75762 0.94548 0.0
C222 C 0.48104 0.76002 0.98088 0.0
C223 C 0.46216 0.76727 0.9799 0.0
C224 C 0.48998 0.75466 0.0271 0.0
H225 H 0.43774 0.77424 0.02518 0.0
C226 C 0.4526 0.76959 0.02601 0.0
C227 C 0.46126 0.76416 0.07247 0.0
C228 C 0.48003 0.75672 0.07264 0.0
C229 C 0.50825 0.74387 0.02677 0.0
H230 H 0.48672 0.75196 0.10795 0.0
C231 C 0.52588 0.75284 0.01781 0.0
C232 C 0.54301 0.74198 0.0173 0.0
C233 C 0.50783 0.72412 0.03532 0.0
H234 H 0.49439 0.71701 0.04226 0.0
C235 C 0.52467 0.71334 0.0345 0.0
H236 H 0.52626 0.76811 0.01136 0.0
C237 C 0.54213 0.72216 0.02554 0.0
H238 H 0.55505 0.7135 0.02605 0.0
H239 H 0.52421 0.69811 0.04108 0.0
H240 H 0.1712 0.22124 0.11098 0.0
H241 H 0.14562 0.23036 0.16776 0.0
H242 H 0.16737 0.28839 0.17973 0.0
H243 H 0.19357 0.27917 0.12379 0.0
H244 H 0.15919 0.27644 0.27066 0.0
H245 H 0.09711 0.25936 0.14029 0.0
H246 H 0.11254 0.23889 0.1453 0.0
H247 H 0.12131 0.26047 0.11822 0.0
C248 C 0.17052 0.236 0.12529 0.0
C249 C 0.18444 0.24949 0.11269 0.0
C250 C 0.15573 0.24125 0.15746 0.0
C251 C 0.15423 0.26019 0.17704 0.0
C252 C 0.16811 0.27373 0.16468 0.0
H253 H 0.05195 0.28618 0.35651 0.0
H254 H 0.07573 0.28758 0.28965 0.0
C255 C 0.18309 0.26843 0.13279 0.0
C256 C 0.13886 0.26536 0.21297 0.0
H257 H 0.09083 0.26004 0.23068 0.0
C258 C 0.1442 0.27316 0.26157 0.0
C259 C 0.1192 0.26154 0.20094 0.0
C260 C 0.11219 0.25482 0.14812 0.0
C261 C 0.13062 0.27612 0.29935 0.0
C262 C 0.11127 0.27059 0.28877 0.0
C263 C 0.10571 0.26394 0.23921 0.0
C264 C 0.09694 0.27034 0.32938 0.0
C265 C 0.13725 0.28501 0.35037 0.0
C266 C 0.10078 0.25988 0.37331 0.0
C267 C 0.08737 0.2592 0.4114 0.0
C268 C 0.06964 0.26872 0.40615 0.0
C269 C 0.06554 0.27879 0.36159 0.0
C270 C 0.07911 0.27962 0.32353 0.0
H271 H 0.14985 0.29454 0.34639 0.0
H272 H 0.12564 0.29349 0.36839 0.0
H273 H 0.14174 0.27346 0.37625 0.0
H274 H 0.11409 0.25199 0.3779 0.0
H275 H 0.09074 0.25091 0.4447 0.0
H276 H 0.2815 0.66871 0.5624 0.0
H277 H 0.27546 0.6422 0.61813 0.0
H278 H 0.26198 0.68266 0.74006 0.0
H279 H 0.26816 0.70933 0.68483 0.0
H280 H 0.28863 0.65464 0.76859 0.0
H281 H 0.22447 0.62157 0.66857 0.0
H282 H 0.24449 0.62522 0.62871 0.0
H283 H 0.23249 0.64561 0.65685 0.0
C284 C 0.27709 0.67201 0.60094 0.0
C285 C 0.27538 0.69119 0.61915 0.0
C286 C 0.27352 0.65681 0.63263 0.0
C287 C 0.26807 0.66045 0.68304 0.0
C288 C 0.2661 0.67954 0.70117 0.0
H289 H 0.22896 0.58466 0.91142 0.0
H290 H 0.23141 0.60769 0.84361 0.0
C291 C 0.26963 0.69476 0.66951 0.0
C292 C 0.26555 0.64441 0.71788 0.0
H293 H 0.23899 0.60413 0.73597 0.0
C294 C 0.27777 0.64361 0.76149 0.0
C295 C 0.25128 0.63011 0.70865 0.0
C296 C 0.2373 0.63068 0.66342 0.0
C297 C 0.27622 0.62882 0.796 0.0
C298 C 0.26223 0.61428 0.78625 0.0
C299 C 0.24986 0.61516 0.74292 0.0
C300 C 0.25979 0.5986 0.82217 0.0
C301 C 0.28932 0.6291 0.8432 0.0
C302 C 0.27463 0.58538 0.83118 0.0
C303 C 0.27329 0.57224 0.86995 0.0
C304 C 0.25706 0.57209 0.90033 0.0
C305 C 0.24173 0.58458 0.88902 0.0
C306 C 0.24307 0.59768 0.85021 0.0
H307 H 0.29633 0.64331 0.85053 0.0
H308 H 0.28123 0.6255 0.87731 0.0
H309 H 0.30076 0.61818 0.83814 0.0
H310 H 0.28755 0.58571 0.80947 0.0
H311 H 0.28542 0.56294 0.87791 0.0
H312 H 0.85588 0.78875 0.07532 0.0
H313 H 0.88378 0.78145 0.1306 0.0
H314 H 0.84672 0.77508 0.25711 0.0
H315 H 0.81872 0.78189 0.20192 0.0
H316 H 0.89787 0.80042 0.21481 0.0
H317 H 0.87821 0.72671 0.26423 0.0
H318 H 0.86602 0.73912 0.21329 0.0
H319 H 0.85953 0.74356 0.27855 0.0
C320 C 0.85363 0.78565 0.11483 0.0
C321 C 0.83503 0.78586 0.13414 0.0
C322 C 0.86961 0.78149 0.14638 0.0
C323 C 0.86734 0.77742 0.19783 0.0
C324 C 0.84881 0.77768 0.21724 0.0
H325 H 0.9441 0.78976 0.45766 0.0
H326 H 0.92348 0.79467 0.38212 0.0
C327 C 0.8328 0.78171 0.18566 0.0
C328 C 0.88439 0.77369 0.23182 0.0
H329 H 0.90235 0.74243 0.31858 0.0
C330 C 0.89898 0.78762 0.23703 0.0
C331 C 0.88609 0.75681 0.26001 0.0
C332 C 0.87173 0.74061 0.25335 0.0
C333 C 0.91473 0.78555 0.27144 0.0
C334 C 0.91569 0.76933 0.30233 0.0
C335 C 0.90157 0.75498 0.29533 0.0
C336 C 0.93037 0.76745 0.34452 0.0
C337 C 0.93015 0.80081 0.27429 0.0
C338 C 0.94123 0.75054 0.34875 0.0
C339 C 0.95281 0.74755 0.39251 0.0
C340 C 0.95367 0.76139 0.43301 0.0
C341 C 0.94363 0.77875 0.42734 0.0
C342 C 0.93199 0.78168 0.38382 0.0
H343 H 0.93109 0.80798 0.23732 0.0
H344 H 0.92652 0.81196 0.30369 0.0
H345 H 0.94444 0.79472 0.28467 0.0
H346 H 0.94015 0.73932 0.31903 0.0
H347 H 0.96015 0.73392 0.39585 0.0
H348 H 0.71597 0.3587 0.60991 0.0
H349 H 0.72442 0.38522 0.6698 0.0
H350 H 0.7748 0.35451 0.72146 0.0
H351 H 0.76636 0.32765 0.66168 0.0
H352 H 0.75256 0.36862 0.80043 0.0
H353 H 0.76662 0.42594 0.66573 0.0
H354 H 0.74393 0.41412 0.65325 0.0
H355 H 0.76586 0.40079 0.64631 0.0
C356 C 0.72894 0.35757 0.63369 0.0
C357 C 0.74045 0.34096 0.63106 0.0
C358 C 0.73384 0.37287 0.66762 0.0
C359 C 0.75039 0.37199 0.69953 0.0
C360 C 0.76203 0.35553 0.69684 0.0
H361 H 0.79362 0.46353 0.91168 0.0
H362 H 0.78998 0.44051 0.83881 0.0
C363 C 0.75718 0.3402 0.6627 0.0
C364 C 0.75469 0.38768 0.73815 0.0
H365 H 0.76187 0.43617 0.75271 0.0
C366 C 0.75479 0.38335 0.78997 0.0
C367 C 0.75775 0.40688 0.72445 0.0
C368 C 0.75874 0.41223 0.6694 0.0
C369 C 0.75721 0.39777 0.82847 0.0
C370 C 0.75933 0.41709 0.81479 0.0
C371 C 0.75995 0.42138 0.76303 0.0
C372 C 0.76069 0.43293 0.85414 0.0
C373 C 0.7574 0.39224 0.88359 0.0
C374 C 0.74514 0.4369 0.88535 0.0
C375 C 0.74712 0.45009 0.92666 0.0
C376 C 0.7647 0.45961 0.9375 0.0
C377 C 0.77986 0.45655 0.90411 0.0
C378 C 0.77785 0.44332 0.86268 0.0
H379 H 0.76026 0.37666 0.88759 0.0
H380 H 0.76846 0.40054 0.90668 0.0
H381 H 0.74318 0.39549 0.89958 0.0
H382 H 0.73166 0.42929 0.87879 0.0
H383 H 0.73511 0.45234 0.9513 0.0
H384 H 0.69279 0.2582 0.36169 0.0
H385 H 0.66526 0.25089 0.30317 0.0
H386 H 0.63611 0.30144 0.36025 0.0
H387 H 0.66335 0.30879 0.41894 0.0
H388 H 0.61218 0.26794 0.34707 0.0
H389 H 0.65348 0.28269 0.17518 0.0
H390 H 0.66394 0.26537 0.21702 0.0
H391 H 0.66188 0.28999 0.23892 0.0
C392 C 0.6805 0.26772 0.36195 0.0
C393 C 0.68041 0.28421 0.39462 0.0
C394 C 0.6648 0.26354 0.32842 0.0
C395 C 0.64875 0.27576 0.32701 0.0
C396 C 0.64837 0.29185 0.36066 0.0
H397 H 0.56603 0.28934 0.07935 0.0
H398 H 0.58805 0.29434 0.15352 0.0
C399 C 0.66403 0.29607 0.39401 0.0
C400 C 0.63266 0.27234 0.28907 0.0
H401 H 0.62153 0.27214 0.16121 0.0
C402 C 0.61419 0.26877 0.30639 0.0
C403 C 0.63531 0.27371 0.23613 0.0
C404 C 0.65467 0.2783 0.21548 0.0
C405 C 0.59829 0.26645 0.272 0.0
C406 C 0.60101 0.26766 0.21906 0.0
C407 C 0.61948 0.27122 0.20186 0.0
C408 C 0.58499 0.26555 0.18032 0.0
C409 C 0.57866 0.26317 0.29253 0.0
C410 C 0.5754 0.24791 0.17186 0.0
C411 C 0.56271 0.24506 0.12951 0.0
C412 C 0.55958 0.25974 0.09482 0.0
C413 C 0.56822 0.27776 0.1054 0.0
C414 C 0.58083 0.28061 0.14765 0.0
H415 H 0.57828 0.2668 0.33411 0.0
H416 H 0.56766 0.27185 0.27214 0.0
H417 H 0.57473 0.2478 0.28635 0.0
H418 H 0.5786 0.236 0.19614 0.0
H419 H 0.55648 0.23094 0.12189 0.0
H420 H 0.26307 0.20191 0.85092 0.0
H421 H 0.27026 0.17417 0.79455 0.0
H422 H 0.22085 0.14443 0.84687 0.0
H423 H 0.21359 0.17192 0.90342 0.0
H424 H 0.25515 0.12123 0.83927 0.0
H425 H 0.23706 0.16057 0.66315 0.0
H426 H 0.25449 0.17195 0.70662 0.0
H427 H 0.23016 0.16918 0.72563 0.0
C428 C 0.25376 0.18946 0.85056 0.0
C429 C 0.23762 0.18927 0.88129 0.0
C430 C 0.25788 0.17363 0.81828 0.0
C431 C 0.24596 0.15734 0.8162 0.0
C432 C 0.2302 0.15687 0.84786 0.0
H433 H 0.23298 0.07266 0.57007 0.0
H434 H 0.2277 0.09455 0.64336 0.0
C435 C 0.22603 0.17268 0.87996 0.0
C436 C 0.24937 0.14105 0.77955 0.0
H437 H 0.24864 0.12896 0.65216 0.0
C438 C 0.25379 0.12288 0.79833 0.0
C439 C 0.24734 0.14323 0.72624 0.0
C440 C 0.24185 0.16222 0.70397 0.0
C441 C 0.25636 0.10684 0.76503 0.0
C442 C 0.25451 0.1091 0.71172 0.0
C443 C 0.25006 0.12726 0.69309 0.0
C444 C 0.2569 0.09292 0.674 0.0
C445 C 0.26063 0.08754 0.787 0.0
C446 C 0.27488 0.08413 0.66806 0.0
C447 C 0.27789 0.07149 0.62624 0.0
C448 C 0.26301 0.06764 0.58961 0.0
C449 C 0.24469 0.0754 0.59774 0.0
C450 C 0.24169 0.08795 0.63946 0.0
H451 H 0.25747 0.08733 0.8282 0.0
H452 H 0.25213 0.07606 0.76609 0.0
H453 H 0.27608 0.08418 0.78286 0.0
H454 H 0.28689 0.08797 0.69382 0.0
H455 H 0.29222 0.06594 0.62048 0.0
H456 H 0.31294 0.75346 0.33672 0.0
H457 H 0.33956 0.75881 0.28057 0.0
H458 H 0.38018 0.74682 0.40326 0.0
H459 H 0.3537 0.74154 0.45991 0.0
H460 H 0.38967 0.77949 0.34462 0.0
H461 H 0.37289 0.71401 0.22365 0.0
H462 H 0.35308 0.73024 0.23191 0.0
H463 H 0.36316 0.71816 0.28599 0.0
C464 C 0.32752 0.75206 0.35195 0.0
C465 C 0.33115 0.74687 0.40274 0.0
C466 C 0.34271 0.75506 0.31971 0.0
C467 C 0.36181 0.75293 0.33758 0.0
C468 C 0.36553 0.74844 0.38868 0.0
H469 H 0.45876 0.7358 0.14135 0.0
H470 H 0.43638 0.73392 0.21073 0.0
C471 C 0.35036 0.74538 0.42094 0.0
C472 C 0.37789 0.75482 0.30256 0.0
H473 H 0.39684 0.73471 0.19488 0.0
C474 C 0.3913 0.76969 0.31193 0.0
C475 C 0.38013 0.74182 0.26047 0.0
C476 C 0.36668 0.72504 0.24996 0.0
C477 C 0.40668 0.77218 0.27949 0.0
C478 C 0.40854 0.75954 0.23643 0.0
C479 C 0.39535 0.74443 0.22779 0.0
C480 C 0.42377 0.76187 0.19899 0.0
C481 C 0.42089 0.78817 0.29182 0.0
C482 C 0.42434 0.77835 0.16992 0.0
C483 C 0.43721 0.77952 0.13043 0.0
C484 C 0.44969 0.76418 0.11907 0.0
C485 C 0.44956 0.74799 0.14954 0.0
C486 C 0.43667 0.74682 0.18896 0.0
H487 H 0.42054 0.79313 0.33255 0.0
H488 H 0.43573 0.78352 0.28339 0.0
H489 H 0.41722 0.80056 0.26796 0.0
H490 H 0.41431 0.78999 0.17639 0.0
H491 H 0.43701 0.79221 0.10778 0.0
H492 H 0.76336 0.82297 0.85187 0.0
H493 H 0.75762 0.84934 0.79406 0.0
H494 H 0.7781 0.88999 0.91161 0.0
H495 H 0.78395 0.86383 0.9697 0.0
H496 H 0.73502 0.88497 0.80618 0.0
H497 H 0.81344 0.89704 0.78785 0.0
H498 H 0.80395 0.87527 0.81244 0.0
H499 H 0.80496 0.89691 0.85181 0.0
C500 C 0.7665 0.83753 0.86564 0.0
C501 C 0.77434 0.84123 0.91528 0.0
C502 C 0.76316 0.85257 0.83258 0.0
C503 C 0.76767 0.87155 0.84844 0.0
C504 C 0.77476 0.8754 0.8985 0.0
H505 H 0.74494 0.9745 0.67051 0.0
H506 H 0.74642 0.95193 0.74053 0.0
C507 C 0.77806 0.8604 0.93164 0.0
C508 C 0.76585 0.88716 0.81176 0.0
H509 H 0.79243 0.91763 0.74358 0.0
C510 C 0.74753 0.89223 0.79269 0.0
C511 C 0.78225 0.89646 0.79407 0.0
C512 C 0.80231 0.89112 0.81217 0.0
C513 C 0.74518 0.90635 0.75603 0.0
C514 C 0.76159 0.91558 0.73828 0.0
C515 C 0.77989 0.91061 0.75769 0.0
C516 C 0.76027 0.92932 0.69657 0.0
C517 C 0.72528 0.91088 0.73526 0.0
C518 C 0.76778 0.92414 0.64916 0.0
C519 C 0.76697 0.93691 0.60944 0.0
C520 C 0.7587 0.9552 0.61633 0.0
C521 C 0.75136 0.96049 0.66412 0.0
C522 C 0.75209 0.9476 0.70394 0.0
H523 H 0.71436 0.90063 0.74783 0.0
H524 H 0.72121 0.92557 0.74871 0.0
H525 H 0.72501 0.9106 0.69286 0.0
H526 H 0.77429 0.91016 0.64289 0.0
H527 H 0.7731 0.93254 0.57345 0.0
H528 H 0.84775 0.8073 0.93204 0.0
H529 H 0.87338 0.79936 0.87386 0.0
H530 H 0.84238 0.74869 0.81893 0.0
H531 H 0.81646 0.75658 0.87696 0.0
H532 H 0.89653 0.76555 0.86396 0.0
H533 H 0.85173 0.77906 0.6889 0.0
H534 H 0.84479 0.78713 0.75181 0.0
H535 H 0.84202 0.76233 0.73175 0.0
C536 C 0.84632 0.79444 0.90768 0.0
C537 C 0.82991 0.78269 0.90881 0.0
C538 C 0.86106 0.78989 0.87459 0.0
C539 C 0.85968 0.77358 0.84171 0.0
C540 C 0.84359 0.76151 0.84354 0.0
H541 H 0.95032 0.72856 0.64759 0.0
H542 H 0.92719 0.73269 0.71537 0.0
C543 C 0.82882 0.76601 0.87682 0.0
C544 C 0.87489 0.76965 0.80461 0.0
H545 H 0.88346 0.7685 0.67716 0.0
C546 C 0.89369 0.76607 0.82309 0.0
C547 C 0.87115 0.7706 0.75139 0.0
C548 C 0.85139 0.77513 0.72954 0.0
C549 C 0.90888 0.76344 0.78965 0.0
C550 C 0.9051 0.76429 0.73643 0.0
C551 C 0.88629 0.76779 0.71801 0.0
C552 C 0.92048 0.7622 0.69897 0.0
C553 C 0.92893 0.76029 0.81147 0.0
C554 C 0.92449 0.77746 0.66758 0.0
C555 C 0.93771 0.77517 0.62905 0.0
C556 C 0.94711 0.75751 0.6208 0.0
C557 C 0.94354 0.74242 0.65341 0.0
C558 C 0.93029 0.74474 0.69208 0.0
H559 H 0.93009 0.76398 0.85307 0.0
H560 H 0.93284 0.74494 0.80564 0.0
H561 H 0.9395 0.76902 0.79169 0.0
H562 H 0.9171 0.79106 0.67234 0.0
H563 H 0.94029 0.78713 0.60495 0.0
H564 H 0.74076 0.32541 0.33714 0.0
H565 H 0.74792 0.35256 0.28467 0.0
H566 H 0.7432 0.39134 0.41575 0.0
H567 H 0.73554 0.36432 0.4683 0.0
H568 H 0.72399 0.40478 0.33445 0.0
H569 H 0.79678 0.38297 0.27787 0.0
H570 H 0.77932 0.36457 0.26215 0.0
H571 H 0.78451 0.37156 0.32806 0.0
C572 C 0.74141 0.33969 0.35498 0.0
C573 C 0.73758 0.34266 0.40698 0.0
C574 C 0.74562 0.35521 0.32494 0.0
C575 C 0.74643 0.37399 0.34641 0.0
C576 C 0.74274 0.37699 0.39837 0.0
H577 H 0.79081 0.46602 0.16503 0.0
H578 H 0.78552 0.44509 0.23605 0.0
C579 C 0.73837 0.3615 0.42836 0.0
C580 C 0.75026 0.39055 0.31412 0.0
H581 H 0.78137 0.4072 0.22835 0.0
C582 C 0.73665 0.40541 0.31168 0.0
C583 C 0.76695 0.39163 0.28514 0.0
C584 C 0.78282 0.37693 0.28881 0.0
C585 C 0.7389 0.42089 0.27956 0.0
C586 C 0.75496 0.42129 0.24807 0.0
C587 C 0.76895 0.40683 0.25205 0.0
C588 C 0.75713 0.43594 0.20885 0.0
C589 C 0.72405 0.43666 0.27991 0.0
C590 C 0.74281 0.43807 0.17039 0.0
C591 C 0.74568 0.45025 0.13023 0.0
C592 C 0.76307 0.46034 0.12708 0.0
C593 C 0.77715 0.45869 0.16656 0.0
C594 C 0.77421 0.44658 0.20697 0.0
H595 H 0.71691 0.43781 0.31711 0.0
H596 H 0.73052 0.45079 0.27231 0.0
H597 H 0.71279 0.43331 0.24985 0.0
H598 H 0.72969 0.42974 0.17025 0.0
H599 H 0.73447 0.4513 0.1007 0.0
H600 H 0.19525 0.25339 0.82301 0.0
H601 H 0.16721 0.2595 0.76698 0.0
H602 H 0.12967 0.2452 0.88707 0.0
H603 H 0.15755 0.23926 0.94358 0.0
H604 H 0.13883 0.23278 0.73649 0.0
H605 H 0.10725 0.29608 0.83764 0.0
H606 H 0.13163 0.28825 0.85018 0.0
H607 H 0.11194 0.27579 0.87653 0.0
C608 C 0.18104 0.25173 0.83776 0.0
C609 C 0.1787 0.24579 0.88784 0.0
C610 C 0.16503 0.25521 0.80564 0.0
C611 C 0.14635 0.25299 0.823 0.0
C612 C 0.14393 0.24734 0.87314 0.0
H613 H 0.04789 0.23858 0.60741 0.0
H614 H 0.06897 0.23524 0.68362 0.0
C615 C 0.15993 0.24383 0.90529 0.0
C616 C 0.12947 0.25551 0.78758 0.0
H617 H 0.08896 0.28233 0.7674 0.0
C618 C 0.12789 0.24357 0.74332 0.0
C619 C 0.11527 0.26966 0.79651 0.0
C620 C 0.11661 0.28331 0.84254 0.0
C621 C 0.11258 0.24546 0.70752 0.0
C622 C 0.09825 0.25947 0.71663 0.0
C623 C 0.09979 0.2714 0.76096 0.0
C624 C 0.08263 0.26295 0.67804 0.0
C625 C 0.11224 0.23285 0.65937 0.0
C626 C 0.08243 0.28012 0.65181 0.0
C627 C 0.07029 0.28213 0.60872 0.0
C628 C 0.05809 0.267 0.59116 0.0
C629 C 0.05705 0.25051 0.62021 0.0
C630 C 0.06924 0.2485 0.66338 0.0
H631 H 0.12622 0.22555 0.65359 0.0
H632 H 0.10103 0.22163 0.66182 0.0
H633 H 0.10866 0.2414 0.6254 0.0
H634 H 0.09255 0.29149 0.66265 0.0
H635 H 0.07131 0.29503 0.58718 0.0
H636 H 0.24529 0.70397 0.36512 0.0
H637 H 0.23696 0.67692 0.30594 0.0
H638 H 0.28886 0.64772 0.35308 0.0
H639 H 0.2972 0.67443 0.4125 0.0
H640 H 0.25841 0.66356 0.22502 0.0
H641 H 0.24856 0.6056 0.36062 0.0
H642 H 0.24888 0.63072 0.38041 0.0
H643 H 0.27103 0.61803 0.37068 0.0
C644 C 0.25485 0.69171 0.36326 0.0
C645 C 0.27195 0.69142 0.39356 0.0
C646 C 0.25005 0.67626 0.32945 0.0
C647 C 0.26213 0.66016 0.32568 0.0
C648 C 0.27909 0.65977 0.35617 0.0
H649 H 0.27947 0.56282 0.1234 0.0
H650 H 0.27883 0.58614 0.19548 0.0
C651 C 0.28392 0.67517 0.38985 0.0
C652 C 0.25782 0.64437 0.28735 0.0
H653 H 0.25246 0.59566 0.27309 0.0
C654 C 0.25681 0.64875 0.23553 0.0
C655 C 0.25584 0.62504 0.30116 0.0
C656 C 0.25594 0.61955 0.35628 0.0
C657 C 0.25465 0.63426 0.19704 0.0
C658 C 0.25306 0.61488 0.21079 0.0
C659 C 0.25366 0.61052 0.26265 0.0
C660 C 0.25183 0.59895 0.17157 0.0
C661 C 0.25492 0.63977 0.14192 0.0
C662 C 0.23642 0.59784 0.13554 0.0
C663 C 0.23672 0.5845 0.09438 0.0
C664 C 0.25237 0.57191 0.08871 0.0
C665 C 0.26712 0.57217 0.12688 0.0
C666 C 0.26683 0.58557 0.16795 0.0
H667 H 0.26048 0.65457 0.13804 0.0
H668 H 0.26392 0.62965 0.11944 0.0
H669 H 0.24007 0.63916 0.12506 0.0
H670 H 0.22449 0.60777 0.13824 0.0
H671 H 0.22505 0.58448 0.0659 0.0
H672 H 0.34734 0.72447 0.61338 0.0
H673 H 0.37397 0.73293 0.67305 0.0
H674 H 0.3463 0.78658 0.71225 0.0
H675 H 0.31933 0.77812 0.65303 0.0
H676 H 0.39925 0.76439 0.67865 0.0
H677 H 0.35504 0.76199 0.8507 0.0
H678 H 0.34666 0.75242 0.78896 0.0
H679 H 0.34644 0.77789 0.80258 0.0
C680 C 0.34685 0.7381 0.63461 0.0
C681 C 0.33103 0.75051 0.62881 0.0
C682 C 0.36216 0.74293 0.66859 0.0
C683 C 0.362 0.76025 0.69762 0.0
C684 C 0.34654 0.77297 0.69091 0.0
H685 H 0.43814 0.79687 0.95492 0.0
H686 H 0.4153 0.7978 0.88178 0.0
C687 C 0.33116 0.76813 0.65691 0.0
C688 C 0.37782 0.76458 0.73583 0.0
H689 H 0.3876 0.77029 0.86405 0.0
C690 C 0.39671 0.7658 0.71919 0.0
C691 C 0.37448 0.76641 0.78869 0.0
C692 C 0.3546 0.76447 0.80906 0.0
C693 C 0.41237 0.76868 0.75404 0.0
C694 C 0.40905 0.77008 0.80695 0.0
C695 C 0.39012 0.76931 0.82345 0.0
C696 C 0.42494 0.77114 0.84634 0.0
C697 C 0.4323 0.77023 0.7339 0.0
C698 C 0.43827 0.75607 0.85013 0.0
C699 C 0.45134 0.75551 0.89186 0.0
C700 C 0.45121 0.76993 0.93089 0.0
C701 C 0.43851 0.7855 0.92562 0.0
C702 C 0.42547 0.78606 0.88386 0.0
H703 H 0.43187 0.77483 0.69376 0.0
H704 H 0.44125 0.78056 0.75767 0.0
H705 H 0.43933 0.75594 0.73474 0.0
H706 H 0.43786 0.74417 0.82231 0.0
H707 H 0.46068 0.74315 0.89518 0.0
H708 H 0.80172 0.85738 0.12933 0.0
H709 H 0.79355 0.88479 0.18502 0.0
H710 H 0.73885 0.85886 0.21234 0.0
H711 H 0.74705 0.83109 0.15731 0.0
H712 H 0.76353 0.91093 0.18088 0.0
H713 H 0.76157 0.8687 0.35624 0.0
H714 H 0.77136 0.85919 0.29777 0.0
H715 H 0.74579 0.86003 0.30477 0.0
C716 C 0.78794 0.85743 0.14719 0.0
C717 C 0.77514 0.84187 0.1393 0.0
C718 C 0.78327 0.87319 0.17888 0.0
C719 C 0.76572 0.87377 0.20344 0.0
C720 C 0.75265 0.85854 0.1946 0.0
H721 H 0.72523 0.9517 0.44259 0.0
H722 H 0.72548 0.92947 0.36808 0.0
C723 C 0.75734 0.84269 0.16302 0.0
C724 C 0.76142 0.89013 0.2392 0.0
H725 H 0.75324 0.90139 0.36434 0.0
C726 C 0.7612 0.90886 0.22098 0.0
C727 C 0.75846 0.88742 0.29153 0.0
C728 C 0.75946 0.86779 0.314 0.0
C729 C 0.75805 0.92493 0.25372 0.0
C730 C 0.75527 0.92219 0.30609 0.0
C731 C 0.75522 0.90346 0.32407 0.0
C732 C 0.75335 0.93843 0.34393 0.0
C733 C 0.75763 0.94466 0.23197 0.0
C734 C 0.7686 0.9514 0.35397 0.0
C735 C 0.76843 0.9642 0.39645 0.0
C736 C 0.7531 0.96408 0.42982 0.0
C737 C 0.73724 0.95207 0.41753 0.0
C738 C 0.73739 0.93934 0.37507 0.0
H739 H 0.75446 0.94397 0.1901 0.0
H740 H 0.74673 0.95391 0.25059 0.0
H741 H 0.77191 0.95153 0.23888 0.0
H742 H 0.78123 0.95073 0.33107 0.0
H743 H 0.78098 0.97306 0.40542 0.0
H744 H 0.69915 0.27585 0.68197 0.0
H745 H 0.67269 0.26878 0.73701 0.0
H746 H 0.63187 0.28634 0.62026 0.0
H747 H 0.65821 0.29328 0.56459 0.0
H748 H 0.64529 0.29552 0.77139 0.0
H749 H 0.61042 0.23432 0.66149 0.0
H750 H 0.63457 0.24216 0.65018 0.0
H751 H 0.61433 0.25554 0.62632 0.0
C752 C 0.68456 0.27806 0.66771 0.0
C753 C 0.68085 0.28519 0.61884 0.0
C754 C 0.66944 0.27401 0.69926 0.0
C755 C 0.65031 0.27686 0.68254 0.0
C756 C 0.6465 0.28372 0.63359 0.0
H757 H 0.54482 0.26486 0.85488 0.0
H758 H 0.56688 0.27108 0.78601 0.0
C759 C 0.66162 0.2878 0.60196 0.0
C760 C 0.6345 0.27363 0.71766 0.0
H761 H 0.59507 0.24579 0.73567 0.0
C762 C 0.6343 0.28467 0.76351 0.0
C763 C 0.62004 0.25962 0.70701 0.0
C764 C 0.61983 0.2471 0.65879 0.0
C765 C 0.6202 0.2819 0.79936 0.0
C766 C 0.6061 0.2675 0.78951 0.0
C767 C 0.60592 0.25682 0.74303 0.0
C768 C 0.5924 0.26251 0.82888 0.0
C769 C 0.62055 0.2944 0.84769 0.0
C770 C 0.59941 0.25508 0.87485 0.0
C771 C 0.58695 0.25152 0.91382 0.0
C772 C 0.56717 0.25528 0.9077 0.0
C773 C 0.56 0.2619 0.86069 0.0
C774 C 0.57256 0.26549 0.82148 0.0
H775 H 0.62872 0.3079 0.8433 0.0
H776 H 0.60576 0.29811 0.85902 0.0
H777 H 0.62766 0.28647 0.87909 0.0
H778 H 0.61461 0.25227 0.88086 0.0
H779 H 0.59286 0.24594 0.94907 0.0
H780 H 0.22975 0.16689 0.05169 0.0
H781 H 0.23568 0.14078 0.11018 0.0
H782 H 0.25487 0.18184 0.22825 0.0
H783 H 0.24886 0.20805 0.17047 0.0
H784 H 0.26976 0.12981 0.16633 0.0
H785 H 0.21119 0.1523 0.29327 0.0
H786 H 0.21319 0.16109 0.22979 0.0
H787 H 0.22793 0.17112 0.28188 0.0
C788 C 0.2353 0.17039 0.09006 0.0
C789 C 0.23861 0.18962 0.10656 0.0
C790 C 0.2387 0.15543 0.12336 0.0
C791 C 0.24537 0.15942 0.17376 0.0
C792 C 0.24935 0.1785 0.18977 0.0
H793 H 0.27463 0.10221 0.44708 0.0
H794 H 0.26862 0.12381 0.37724 0.0
C795 C 0.24598 0.19346 0.15658 0.0
C796 C 0.24786 0.14376 0.21013 0.0
H797 H 0.23297 0.12883 0.3247 0.0
C798 C 0.26161 0.12943 0.20074 0.0
C799 C 0.23706 0.14325 0.25469 0.0
C800 C 0.22138 0.15764 0.26542 0.0
C801 C 0.26548 0.1151 0.23608 0.0
C802 C 0.25512 0.11502 0.28146 0.0
C803 C 0.24096 0.12899 0.28996 0.0
C804 C 0.25948 0.10139 0.32238 0.0
C805 C 0.28111 0.10064 0.22564 0.0
C806 C 0.2564 0.08155 0.31464 0.0
C807 C 0.25974 0.06909 0.3548 0.0
C808 C 0.26604 0.07635 0.40335 0.0
C809 C 0.2694 0.0962 0.41047 0.0
C810 C 0.26608 0.10856 0.37052 0.0
H811 H 0.2901 0.10481 0.19372 0.0
H812 H 0.29054 0.09893 0.26026 0.0
H813 H 0.27448 0.08648 0.21528 0.0
H814 H 0.25103 0.07576 0.27794 0.0
H815 H 0.25695 0.05389 0.34827 0.0
H816 H 0.25203 0.30241 0.06932 0.0
H817 H 0.25565 0.33725 0.06838 0.0
H818 H 0.22483 0.33793 0.9229 0.0
H819 H 0.22115 0.3029 0.92321 0.0
H820 H 0.27428 0.35644 0.9831 0.0
H821 H 0.19975 0.38151 0.01756 0.0
H822 H 0.2083 0.35831 0.03705 0.0
H823 H 0.20306 0.36227 0.97084 0.0
C824 C 0.24583 0.30991 0.03723 0.0
C825 C 0.23637 0.29977 0.99618 0.0
C826 C 0.24792 0.32986 0.03685 0.0
C827 C 0.2404 0.34017 0.99579 0.0
C828 C 0.23055 0.33024 0.95524 0.0
H829 H 0.25056 0.4633 0.93987 0.0
H830 H 0.23968 0.42967 0.9374 0.0
C831 C 0.22855 0.31021 0.95539 0.0
C832 C 0.24417 0.36109 0.99414 0.0
H833 H 0.22321 0.40532 0.0067 0.0
C834 C 0.26312 0.36714 0.98812 0.0
C835 C 0.22952 0.37497 1.00008 0.0
C836 C 0.20898 0.36908 0.00701 0.0
C837 C 0.2679 0.38671 0.98836 0.0
C838 C 0.25341 0.40067 0.99636 0.0
C839 C 0.23432 0.39463 1.00103 0.0
C840 C 0.25809 0.42151 1.00128 0.0
C841 C 0.28844 0.39221 0.97946 0.0
C842 C 0.27138 0.42827 0.03932 0.0
C843 C 0.27766 0.44733 0.04055 0.0
C844 C 0.27054 0.46013 0.00427 0.0
C845 C 0.25624 0.45374 0.96834 0.0
C846 C 0.25008 0.43454 0.96681 0.0
H847 H 0.29618 0.38049 0.95896 0.0
H848 H 0.28915 0.40538 0.95704 0.0
H849 H 0.2961 0.39505 0.01685 0.0
H850 H 0.27736 0.41864 0.06721 0.0
H851 H 0.28849 0.45195 0.06912 0.0
H852 H 0.21695 0.74934 0.43237 0.0
H853 H 0.18186 0.74741 0.43132 0.0
H854 H 0.18407 0.7359 0.5919 0.0
H855 H 0.21911 0.73729 0.59301 0.0
H856 H 0.16041 0.71167 0.54039 0.0
H857 H 0.14314 0.78571 0.48375 0.0
H858 H 0.15818 0.77307 0.43965 0.0
H859 H 0.16707 0.77855 0.50385 0.0
C860 C 0.20998 0.74652 0.46756 0.0
C861 C 0.2209 0.74353 0.51281 0.0
C862 C 0.18987 0.74557 0.46698 0.0
C863 C 0.18025 0.74188 0.51175 0.0
C864 C 0.19113 0.73888 0.55692 0.0
H865 H 0.0576 0.75095 0.56665 0.0
H866 H 0.09213 0.75728 0.56051 0.0
C867 C 0.21121 0.73967 0.55747 0.0
C868 C 0.15893 0.74013 0.51124 0.0
H869 H 0.11696 0.76359 0.48252 0.0
C870 C 0.15093 0.72307 0.52788 0.0
C871 C 0.14651 0.75509 0.49559 0.0
C872 C 0.15413 0.77421 0.48019 0.0
C873 C 0.13097 0.72043 0.52876 0.0
C874 C 0.11854 0.73506 0.51116 0.0
C875 C 0.12648 0.75228 0.49529 0.0
C876 C 0.09729 0.73271 0.50984 0.0
C877 C 0.12341 0.70211 0.54964 0.0
C878 C 0.08857 0.71733 0.48167 0.0
C879 C 0.06896 0.71365 0.48539 0.0
C880 C 0.05757 0.72546 0.51672 0.0
C881 C 0.06602 0.74166 0.5421 0.0
C882 C 0.08574 0.74523 0.53875 0.0
H883 H 0.13437 0.69506 0.57445 0.0
H884 H 0.11041 0.70489 0.57206 0.0
H885 H 0.11949 0.69191 0.51742 0.0
H886 H 0.09706 0.70779 0.45798 0.0
H887 H 0.06277 0.70122 0.46484 0.0
H888 H 0.79013 0.72941 0.10626 0.0
H889 H 0.792 0.69436 0.10468 0.0
H890 H 0.77443 0.6921 0.94516 0.0
H891 H 0.77211 0.72715 0.94658 0.0
H892 H 0.75597 0.66493 0.99863 0.0
H893 H 0.83443 0.66258 0.04215 0.0
H894 H 0.82145 0.67623 0.08894 0.0
H895 H 0.8222 0.68433 0.02467 0.0
C896 C 0.78667 0.7215 0.07076 0.0
C897 C 0.78106 0.73117 0.02646 0.0
C898 C 0.78784 0.70143 0.06989 0.0
C899 C 0.78367 0.69058 0.02459 0.0
C900 C 0.77778 0.70015 0.98052 0.0
H901 H 0.82028 0.5728 0.97287 0.0
H902 H 0.81372 0.60714 0.96719 0.0
C903 C 0.77651 0.72022 0.9814 0.0
C904 C 0.78556 0.66927 0.02305 0.0
H905 H 0.81759 0.63304 0.04407 0.0
C906 C 0.76945 0.65793 0.0084 0.0
C907 C 0.80322 0.66014 0.03509 0.0
C908 C 0.82136 0.67142 0.0481 0.0
C909 C 0.77047 0.63773 0.00614 0.0
C910 C 0.78798 0.62861 0.01979 0.0
C911 C 0.80411 0.63999 0.03392 0.0
C912 C 0.79021 0.60732 0.01895 0.0
C913 C 0.75289 0.6264 0.9881 0.0
C914 C 0.77892 0.59581 0.04907 0.0
C915 C 0.78254 0.57606 0.05193 0.0
C916 C 0.79772 0.56756 0.02538 0.0
C917 C 0.80857 0.57899 0.99401 0.0
C918 C 0.80484 0.59862 0.99079 0.0
H919 H 0.74267 0.63528 0.96555 0.0
H920 H 0.75684 0.61358 0.96433 0.0
H921 H 0.74534 0.62146 0.02176 0.0
H922 H 0.76781 0.60221 0.07202 0.0
H923 H 0.77412 0.56765 0.0769 0.0
H924 H 0.79323 0.29238 0.42786 0.0
H925 H 0.82825 0.28964 0.42789 0.0
H926 H 0.82977 0.28122 0.59009 0.0
H927 H 0.79474 0.28338 0.59017 0.0
H928 H 0.8573 0.30985 0.47632 0.0
H929 H 0.8588 0.23471 0.53979 0.0
H930 H 0.83684 0.24642 0.51991 0.0
H931 H 0.84724 0.2512 0.58295 0.0
C932 C 0.801 0.28997 0.4636 0.0
C933 C 0.79111 0.28784 0.5089 0.0
C934 C 0.82105 0.28843 0.46356 0.0
C935 C 0.83167 0.2848 0.50879 0.0
C936 C 0.8219 0.28346 0.55443 0.0
H937 H 0.95535 0.26081 0.55266 0.0
H938 H 0.92247 0.27172 0.56984 0.0
C939 C 0.80184 0.28481 0.55444 0.0
C940 C 0.85288 0.28214 0.50779 0.0
H941 H 0.8888 0.2498 0.53133 0.0
C942 C 0.86417 0.29674 0.48854 0.0
C943 C 0.86192 0.26503 0.52376 0.0
C944 C 0.85059 0.24836 0.54232 0.0
C945 C 0.88415 0.29462 0.48438 0.0
C946 C 0.89308 0.27743 0.49964 0.0
C947 C 0.88192 0.26305 0.52012 0.0
C948 C 0.91359 0.27324 0.49013 0.0
C949 C 0.89557 0.31072 0.46334 0.0
C950 C 0.91951 0.27069 0.43977 0.0
C951 C 0.93809 0.26436 0.43002 0.0
C952 C 0.95119 0.26053 0.47043 0.0
C953 C 0.94557 0.26386 0.52091 0.0
C954 C 0.92681 0.26999 0.5307 0.0
H955 H 0.88775 0.32461 0.46598 0.0
H956 H 0.90972 0.31236 0.48397 0.0
H957 H 0.89819 0.30736 0.42248 0.0
H958 H 0.90948 0.27282 0.40791 0.0
H959 H 0.94207 0.26186 0.39076 0.0
H960 H 0.73815 0.22818 0.42847 0.0
H961 H 0.74 0.19311 0.42715 0.0
H962 H 0.73234 0.19398 0.58971 0.0
H963 H 0.72988 0.22894 0.59111 0.0
H964 H 0.76599 0.17133 0.4722 0.0
H965 H 0.69524 0.15242 0.54489 0.0
H966 H 0.70062 0.17623 0.52458 0.0
H967 H 0.70785 0.16907 0.58777 0.0
C968 C 0.73661 0.2209 0.46387 0.0
C969 C 0.73384 0.23143 0.5099 0.0
C970 C 0.73767 0.20082 0.46304 0.0
C971 C 0.73599 0.19079 0.50815 0.0
C972 C 0.73311 0.20127 0.55409 0.0
H973 H 0.77028 0.08278 0.61911 0.0
H974 H 0.75827 0.11516 0.60378 0.0
C975 C 0.73187 0.22133 0.5549 0.0
C976 C 0.7387 0.16956 0.50791 0.0
H977 H 0.7197 0.12792 0.54963 0.0
C978 C 0.75567 0.16182 0.48827 0.0
C979 C 0.72524 0.15704 0.5287 0.0
C980 C 0.70613 0.1641 0.54716 0.0
C981 C 0.75994 0.14216 0.491 0.0
C982 C 0.7469 0.12988 0.51389 0.0
C983 C 0.72967 0.13741 0.53215 0.0
C984 C 0.75187 0.10959 0.52329 0.0
C985 C 0.77873 0.13472 0.47139 0.0
C986 C 0.75175 0.09557 0.48328 0.0
C987 C 0.75847 0.07695 0.49206 0.0
C988 C 0.76562 0.07222 0.54082 0.0
C989 C 0.76497 0.0861 0.58109 0.0
C990 C 0.75808 0.10456 0.57244 0.0
H991 H 0.78795 0.14639 0.458 0.0
H992 H 0.78677 0.12709 0.50189 0.0
H993 H 0.77586 0.12423 0.4391 0.0
H994 H 0.74697 0.09921 0.44507 0.0
H995 H 0.75892 0.06654 0.46037 0.0
H996 H 0.29475 0.22411 0.06781 0.0
H997 H 0.32987 0.22255 0.06764 0.0
H998 H 0.3297 0.25617 0.93302 0.0
H999 H 0.29452 0.25771 0.93246 0.0
H1000 H 0.35232 0.20816 0.97505 0.0
H1001 H 0.36889 0.28303 0.045 0.0
H1002 H 0.34667 0.27119 0.05872 0.0
H1003 H 0.35033 0.2794 0.99584 0.0
C1004 C 0.30214 0.23125 0.03822 0.0
C1005 C 0.29177 0.24106 1.00017 0.0
C1006 C 0.32222 0.23034 0.03823 0.0
C1007 C 0.33236 0.23942 1.00066 0.0
C1008 C 0.32213 0.24925 0.96268 0.0
H1009 H 0.45515 0.24815 0.94577 0.0
H1010 H 0.42042 0.25407 0.94969 0.0
C1011 C 0.30202 0.25003 0.96231 0.0
C1012 C 0.3536 0.23789 1.00008 0.0
H1013 H 0.39518 0.26321 0.0243 0.0
C1014 C 0.36172 0.22017 0.98587 0.0
C1015 C 0.36576 0.25365 0.01361 0.0
C1016 C 0.3576 0.27293 0.02944 0.0
C1017 C 0.38173 0.21777 0.9846 0.0
C1018 C 0.394 0.23338 0.99962 0.0
C1019 C 0.38583 0.25121 0.0132 0.0
C1020 C 0.41531 0.23131 0.00155 0.0
C1021 C 0.38947 0.19862 0.96596 0.0
C1022 C 0.42413 0.21717 0.03113 0.0
C1023 C 0.44384 0.21369 0.02856 0.0
C1024 C 0.45525 0.22455 0.99721 0.0
C1025 C 0.4467 0.23962 0.97038 0.0
C1026 C 0.42686 0.24295 0.97245 0.0
H1027 H 0.37862 0.19049 0.94165 0.0
H1028 H 0.40255 0.20043 0.94367 0.0
H1029 H 0.39324 0.18983 0.99928 0.0
H1030 H 0.41566 0.20842 0.05515 0.0
H1031 H 0.45012 0.20213 0.0501 0.0
H1032 H 0.29729 0.80308 0.44624 0.0
H1033 H 0.29908 0.83814 0.44903 0.0
H1034 H 0.26192 0.84059 0.57714 0.0
H1035 H 0.26062 0.8055 0.57575 0.0
H1036 H 0.27232 0.86472 0.4363 0.0
H1037 H 0.30488 0.87448 0.63172 0.0
H1038 H 0.30297 0.85127 0.59913 0.0
H1039 H 0.28252 0.86168 0.6298 0.0
C1040 C 0.28955 0.81106 0.47517 0.0
C1041 C 0.27891 0.80145 0.51097 0.0
C1042 C 0.29057 0.83114 0.47669 0.0
C1043 C 0.2809 0.84208 0.51384 0.0
C1044 C 0.26995 0.83252 0.54901 0.0
H1045 H 0.2681 0.96676 0.47437 0.0
H1046 H 0.26039 0.93291 0.48582 0.0
C1047 C 0.26912 0.81242 0.54795 0.0
C1048 C 0.28212 0.86345 0.51493 0.0
H1049 H 0.29518 0.90272 0.5904 0.0
C1050 C 0.2773 0.87303 0.47004 0.0
C1051 C 0.28876 0.87432 0.55883 0.0
C1052 C 0.29526 0.86492 0.60744 0.0
C1053 C 0.27921 0.89306 0.4675 0.0
C1054 C 0.28555 0.90397 0.51163 0.0
C1055 C 0.2901 0.89442 0.55676 0.0
C1056 C 0.28925 0.92502 0.51052 0.0
C1057 C 0.27521 0.90217 0.41685 0.0
C1058 C 0.30767 0.93217 0.52371 0.0
C1059 C 0.31198 0.95156 0.51846 0.0
C1060 C 0.298 0.96431 0.49945 0.0
C1061 C 0.27923 0.95738 0.48903 0.0
C1062 C 0.27487 0.93794 0.49482 0.0
H1063 H 0.27525 0.8914 0.38449 0.0
H1064 H 0.2608 0.90898 0.41694 0.0
H1065 H 0.28601 0.91341 0.41005 0.0
H1066 H 0.31898 0.9226 0.53651 0.0
H1067 H 0.32646 0.95645 0.52811 0.0
H1068 H 0.71801 0.79262 0.94019 0.0
H1069 H 0.68309 0.7887 0.9386 0.0
H1070 H 0.68571 0.77713 0.09912 0.0
H1071 H 0.72062 0.78062 0.10088 0.0
H1072 H 0.66516 0.7504 0.04503 0.0
H1073 H 0.64011 0.82253 0.99035 0.0
H1074 H 0.65685 0.812 0.94702 0.0
H1075 H 0.66454 0.81795 0.01195 0.0
C1076 C 0.71115 0.78947 0.97534 0.0
C1077 C 0.72218 0.78684 0.02063 0.0
C1078 C 0.69113 0.78738 0.97443 0.0
C1079 C 0.68169 0.78285 0.01888 0.0
C1080 C 0.69264 0.78068 0.06436 0.0
H1081 H 0.55816 0.77457 0.06506 0.0
H1082 H 0.59155 0.7859 0.06363 0.0
C1083 C 0.71263 0.78266 0.06527 0.0
C1084 C 0.66068 0.77882 0.01729 0.0
H1085 H 0.61654 0.79749 0.98595 0.0
C1086 C 0.65455 0.76077 0.03237 0.0
C1087 C 0.64678 0.79239 0.00129 0.0
C1088 C 0.65235 0.81237 0.98721 0.0
C1089 C 0.63502 0.75577 0.03105 0.0
C1090 C 0.62117 0.76902 0.01307 0.0
C1091 C 0.62719 0.78726 0.99905 0.0
C1092 C 0.60042 0.76398 0.00877 0.0
C1093 C 0.62938 0.73637 0.04954 0.0
C1094 C 0.59415 0.74845 0.97679 0.0
C1095 C 0.5752 0.74196 0.97765 0.0
C1096 C 0.56203 0.75098 0.01015 0.0
C1097 C 0.56796 0.76737 0.03954 0.0
C1098 C 0.58703 0.77381 0.03888 0.0
H1099 H 0.64089 0.73016 0.07436 0.0
H1100 H 0.61599 0.73734 0.07119 0.0
H1101 H 0.6268 0.72632 0.01615 0.0
H1102 H 0.60412 0.74092 0.95239 0.0
H1103 H 0.57096 0.72949 0.95397 0.0
loop_
_geom_bond_atom_site_label_1
_geom_bond_atom_site_label_2
_geom_bond_distance
_geom_bond_site_symmetry_2
_ccdc_geom_bond_type
Fe0 O2 1.918 . S
Fe0 O5 1.997 . S
Fe0 O6 2.002 . S
Fe0 O11 1.976 . S
Fe0 O14 1.996 . S
Fe1 O2 1.918 1_556 S
Fe1 O9 1.997 . S
Fe1 O12 1.996 . S
Fe1 O16 1.976 . S
Fe1 O19 2.002 . S
O2 Fe0 1.918 . S
O2 Fe1 1.918 1_554 S
O2 Fe3 1.918 1_554 S
Fe3 O2 1.918 1_556 S
Fe3 O4 1.993 1_556 S
Fe3 O13 1.966 1_556 S
Fe3 O17 2.005 . S
Fe3 O20 2.006 . S
O4 Fe3 1.993 1_554 S
O4 C21 1.295 . S
O5 Fe0 1.997 . S
O5 C21 1.235 . S
O6 Fe0 2.002 . S
O6 C7 1.295 . S
C7 O6 1.295 . S
C7 O9 1.235 1_554 S
C8 O13 1.287 . S
C8 O14 1.255 . S
O9 Fe1 1.997 . S
O9 C7 1.235 1_556 S
C10 O16 1.287 . S
C10 O17 1.255 . S
O11 Fe0 1.976 . S
O11 C18 1.287 . S
O12 Fe1 1.996 . S
O12 C18 1.255 1_556 S
O13 Fe3 1.966 1_554 S
O13 C8 1.287 . S
O14 Fe0 1.996 . S
O14 C8 1.255 . S
C15 O19 1.295 . S
C15 O20 1.235 . S
O16 Fe1 1.976 . S
O16 C10 1.287 . S
O17 Fe3 2.005 . S
O17 C10 1.255 . S
C18 O11 1.287 . S
C18 O12 1.255 1_554 S
O19 Fe1 2.002 . S
O19 C15 1.295 . S
O20 Fe3 2.006 . S
O20 C15 1.235 . S
C21 O4 1.295 . S
C21 O5 1.235 . S
Fe22 O24 1.918 . S
Fe22 O27 1.997 . S
Fe22 O28 2.002 . S
Fe22 O33 1.976 . S
Fe22 O36 1.996 . S
Fe23 O24 1.918 . S
Fe23 O31 1.997 . S
Fe23 O34 1.996 . S
Fe23 O38 1.976 . S
Fe23 O41 2.002 . S
O24 Fe22 1.918 . S
O24 Fe23 1.918 . S
O24 Fe25 1.918 . S
Fe25 O24 1.918 . S
Fe25 O26 2.002 . S
Fe25 O35 1.976 . S
Fe25 O39 1.996 . S
Fe25 O42 1.997 . S
O26 Fe25 2.002 . S
O26 C43 1.295 . S
O27 Fe22 1.997 . S
O27 C43 1.235 . S
O28 Fe22 2.002 . S
O28 C29 1.295 . S
C29 O28 1.295 . S
C29 O31 1.235 . S
C30 O35 1.287 . S
C30 O36 1.255 . S
O31 Fe23 1.997 . S
O31 C29 1.235 . S
C32 O38 1.287 . S
C32 O39 1.255 . S
O33 Fe22 1.976 . S
O33 C40 1.287 . S
O34 Fe23 1.996 . S
O34 C40 1.255 . S
O35 Fe25 1.976 . S
O35 C30 1.287 . S
O36 Fe22 1.996 . S
O36 C30 1.255 . S
C37 O41 1.295 . S
C37 O42 1.235 . S
O38 Fe23 1.976 . S
O38 C32 1.287 . S
O39 Fe25 1.996 . S
O39 C32 1.255 . S
C40 O33 1.287 . S
C40 O34 1.255 . S
O41 Fe23 2.002 . S
O41 C37 1.295 . S
O42 Fe25 1.997 . S
O42 C37 1.235 . S
C43 O26 1.295 . S
C43 O27 1.235 . S
Fe44 O46 1.918 1_556 S
Fe44 O49 1.997 . S
Fe44 O50 2.002 . S
Fe44 O55 1.976 . S
Fe44 O58 1.996 . S
Fe45 O46 1.918 . S
Fe45 O53 1.997 . S
Fe45 O56 1.996 . S
Fe45 O60 1.976 . S
Fe45 O63 2.002 . S
O46 Fe44 1.918 1_554 S
O46 Fe45 1.918 . S
O46 Fe47 1.918 . S
Fe47 O46 1.918 . S
Fe47 O48 2.002 1_554 S
Fe47 O57 1.976 1_554 S
Fe47 O61 1.996 . S
Fe47 O64 1.997 . S
O48 Fe47 2.002 1_556 S
O48 C65 1.295 . S
O49 Fe44 1.997 . S
O49 C65 1.235 . S
O50 Fe44 2.002 . S
O50 C51 1.295 1_556 S
C51 O50 1.295 1_554 S
C51 O53 1.235 . S
C52 O57 1.287 . S
C52 O58 1.255 . S
O53 Fe45 1.997 . S
O53 C51 1.235 . S
C54 O60 1.287 . S
C54 O61 1.255 . S
O55 Fe44 1.976 . S
O55 C62 1.287 1_556 S
O56 Fe45 1.996 . S
O56 C62 1.255 . S
O57 Fe47 1.976 1_556 S
O57 C52 1.287 . S
O58 Fe44 1.996 . S
O58 C52 1.255 . S
C59 O63 1.295 . S
C59 O64 1.235 . S
O60 Fe45 1.976 . S
O60 C54 1.287 . S
O61 Fe47 1.996 . S
O61 C54 1.255 . S
C62 O55 1.287 1_554 S
C62 O56 1.255 . S
O63 Fe45 2.002 . S
O63 C59 1.295 . S
O64 Fe47 1.997 . S
O64 C59 1.235 . S
C65 O48 1.295 . S
C65 O49 1.235 . S
Fe66 O68 1.918 . S
Fe66 O71 1.997 . S
Fe66 O72 2.002 . S
Fe66 O77 1.976 . S
Fe66 O80 1.996 . S
Fe67 O68 1.918 . S
Fe67 O75 1.997 . S
Fe67 O78 1.996 . S
Fe67 O82 1.976 . S
Fe67 O85 2.002 . S
O68 Fe66 1.918 . S
O68 Fe67 1.918 . S
O68 Fe69 1.918 . S
Fe69 O68 1.918 . S
Fe69 O70 2.002 . S
Fe69 O79 1.976 . S
Fe69 O83 1.996 . S
Fe69 O86 1.997 . S
O70 Fe69 2.002 . S
O70 C87 1.295 . S
O71 Fe66 1.997 . S
O71 C87 1.235 . S
O72 Fe66 2.002 . S
O72 C73 1.295 . S
C73 O72 1.295 . S
C73 O75 1.235 . S
C74 O79 1.287 . S
C74 O80 1.255 . S
O75 Fe67 1.997 . S
O75 C73 1.235 . S
C76 O82 1.287 . S
C76 O83 1.255 . S
O77 Fe66 1.976 . S
O77 C84 1.287 . S
O78 Fe67 1.996 . S
O78 C84 1.255 . S
O79 Fe69 1.976 . S
O79 C74 1.287 . S
O80 Fe66 1.996 . S
O80 C74 1.255 . S
C81 O85 1.295 . S
C81 O86 1.235 . S
O82 Fe67 1.976 . S
O82 C76 1.287 . S
O83 Fe69 1.996 . S
O83 C76 1.255 . S
C84 O77 1.287 . S
C84 O78 1.255 . S
O85 Fe67 2.002 . S
O85 C81 1.295 . S
O86 Fe69 1.997 . S
O86 C81 1.235 . S
C87 O70 1.295 . S
C87 O71 1.235 . S
H88 C89 0.949 . S
C89 H88 0.949 . S
C89 C90 1.395 . S
C89 C91 1.391 1_554 S
C90 C89 1.395 . S
C90 C93 1.390 . S
C91 C89 1.391 1_556 S
C91 C95 1.387 . S
C91 C96 1.491 . S
H92 C93 0.950 . S
C93 C90 1.390 . S
C93 H92 0.950 . S
C93 C94 1.378 1_554 S
C94 C93 1.378 1_556 S
C94 C95 1.409 . S
C95 C91 1.387 . S
C95 C94 1.409 . S
C95 H97 0.951 . S
C96 C91 1.491 . S
C96 C98 1.382 1_556 S
C96 C100 1.404 . S
H97 C95 0.951 . S
C98 C96 1.382 1_554 S
C98 C99 1.390 1_554 S
C98 H103 0.949 . S
C99 C98 1.390 1_556 S
C99 C104 1.399 . S
C100 C96 1.404 . S
C100 H101 0.950 . S
C100 C102 1.375 . S
H101 C100 0.950 . S
C102 C100 1.375 . S
C102 C104 1.382 . S
C102 H106 0.950 . S
H103 C98 0.949 . S
C104 C99 1.399 . S
C104 C102 1.382 . S
C104 H105 0.952 . S
H105 C104 0.952 . S
H106 C102 0.950 . S
H107 C108 0.949 . S
C108 H107 0.949 . S
C108 C109 1.395 . S
C108 C110 1.391 . S
C109 C108 1.395 . S
C109 C112 1.390 . S
C110 C108 1.391 . S
C110 C114 1.387 . S
C110 C115 1.491 1_655 S
H111 C112 0.950 . S
C112 C109 1.390 . S
C112 H111 0.950 . S
C112 C113 1.378 . S
C113 C112 1.378 . S
C113 C114 1.409 . S
C114 C110 1.387 . S
C114 C113 1.409 . S
C114 H116 0.951 . S
C115 C110 1.491 1_455 S
C115 C117 1.382 . S
C115 C119 1.404 . S
H116 C114 0.951 . S
C117 C115 1.382 . S
C117 C118 1.390 . S
C117 H122 0.949 . S
C118 C117 1.390 . S
C118 C123 1.399 . S
C119 C115 1.404 . S
C119 H120 0.950 . S
C119 C121 1.375 . S
H120 C119 0.950 . S
C121 C119 1.375 . S
C121 C123 1.382 . S
C121 H125 0.950 . S
H122 C117 0.949 . S
C123 C118 1.399 . S
C123 C121 1.382 . S
C123 H124 0.952 . S
H124 C123 0.952 . S
H125 C121 0.950 . S
H126 C127 0.949 . S
C127 H126 0.949 . S
C127 C128 1.395 . S
C127 C129 1.391 1_556 S
C128 C127 1.395 . S
C128 C131 1.390 1_556 S
C129 C127 1.391 1_554 S
C129 C133 1.387 . S
C129 C134 1.491 . S
H130 C131 0.950 . S
C131 C128 1.390 1_554 S
C131 H130 0.950 . S
C131 C132 1.378 . S
C132 C131 1.378 . S
C132 C133 1.409 . S
C133 C129 1.387 . S
C133 C132 1.409 . S
C133 H135 0.951 . S
C134 C129 1.491 . S
C134 C136 1.382 . S
C134 C138 1.404 . S
H135 C133 0.951 . S
C136 C134 1.382 . S
C136 C137 1.390 . S
C136 H141 0.949 1_554 S
C137 C136 1.390 . S
C137 C142 1.399 . S
C138 C134 1.404 . S
C138 H139 0.950 . S
C138 C140 1.375 . S
H139 C138 0.950 . S
C140 C138 1.375 . S
C140 C142 1.382 . S
C140 H144 0.950 . S
H141 C136 0.949 1_556 S
C142 C137 1.399 . S
C142 C140 1.382 . S
C142 H143 0.952 . S
H143 C142 0.952 . S
H144 C140 0.950 . S
H145 C146 0.986 . S
C146 H145 0.986 . S
C146 C147 1.395 . S
C146 C148 1.391 . S
C147 C146 1.395 . S
C147 C150 1.390 . S
C148 C146 1.391 . S
C148 C152 1.387 . S
C148 C153 1.491 1_455 S
H149 C150 0.950 . S
C150 C147 1.390 . S
C150 H149 0.950 . S
C150 C151 1.378 . S
C151 C150 1.378 . S
C151 C152 1.409 . S
C152 C148 1.387 . S
C152 C151 1.409 . S
C152 H154 0.951 . S
C153 C148 1.491 1_655 S
C153 C155 1.382 . S
C153 C157 1.404 . S
H154 C152 0.951 . S
C155 C153 1.382 . S
C155 C156 1.390 . S
C155 H160 0.949 . S
C156 C155 1.390 . S
C156 C161 1.399 . S
C157 C153 1.404 . S
C157 H158 0.950 . S
C157 C159 1.375 . S
H158 C157 0.950 . S
C159 C157 1.375 . S
C159 C161 1.382 . S
C159 H163 0.950 . S
H160 C155 0.949 . S
C161 C156 1.399 . S
C161 C159 1.382 . S
C161 H162 0.952 . S
H162 C161 0.952 . S
H163 C159 0.950 . S
H164 C165 0.942 1_545 S
C165 H164 0.942 1_565 S
C165 C166 1.395 . S
C165 C167 1.394 . S
C166 C165 1.395 . S
C166 C169 1.390 . S
C167 C165 1.394 . S
C167 C171 1.394 . S
C167 C172 1.481 1_565 S
H168 C169 0.950 . S
C169 C166 1.390 . S
C169 H168 0.950 . S
C169 C170 1.378 . S
C170 C169 1.378 . S
C170 C171 1.409 . S
C171 C167 1.394 . S
C171 C170 1.409 . S
C171 H173 0.951 . S
C172 C167 1.481 1_545 S
C172 C174 1.382 . S
C172 C176 1.404 . S
H173 C171 0.951 . S
C174 C172 1.382 . S
C174 C175 1.390 . S
C174 H179 0.949 . S
C175 C174 1.390 . S
C175 C180 1.399 . S
C176 C172 1.404 . S
C176 H177 0.950 . S
C176 C178 1.375 . S
H177 C176 0.950 . S
C178 C176 1.375 . S
C178 C180 1.382 . S
C178 H182 0.950 . S
H179 C174 0.949 . S
C180 C175 1.399 . S
C180 C178 1.382 . S
C180 H181 0.952 . S
H181 C180 0.952 . S
H182 C178 0.950 . S
H183 C184 0.949 . S
C184 H183 0.949 . S
C184 C185 1.395 . S
C184 C186 1.391 1_554 S
C185 C184 1.395 . S
C185 C188 1.390 . S
C186 C184 1.391 1_556 S
C186 C190 1.387 . S
C186 C191 1.491 . S
H187 C188 0.950 . S
C188 C185 1.390 . S
C188 H187 0.950 . S
C188 C189 1.378 1_554 S
C189 C188 1.378 1_556 S
C189 C190 1.409 . S
C190 C186 1.387 . S
C190 C189 1.409 . S
C190 H192 0.951 . S
C191 C186 1.491 . S
C191 C193 1.382 1_556 S
C191 C195 1.404 . S
H192 C190 0.951 . S
C193 C191 1.382 1_554 S
C193 C194 1.390 1_554 S
C193 H198 0.949 . S
C194 C193 1.390 1_556 S
C194 C199 1.399 . S
C195 C191 1.404 . S
C195 H196 0.950 . S
C195 C197 1.375 . S
H196 C195 0.950 . S
C197 C195 1.375 . S
C197 C199 1.382 . S
C197 H201 0.950 . S
H198 C193 0.949 . S
C199 C194 1.399 . S
C199 C197 1.382 . S
C199 H200 0.952 . S
H200 C199 0.952 . S
H201 C197 0.950 . S
H202 C203 0.949 . S
C203 H202 0.949 . S
C203 C204 1.395 . S
C203 C205 1.391 . S
C204 C203 1.395 . S
C204 C207 1.390 . S
C205 C203 1.391 . S
C205 C209 1.387 . S
C205 C210 1.491 1_545 S
H206 C207 0.950 . S
C207 C204 1.390 . S
C207 H206 0.950 . S
C207 C208 1.378 . S
C208 C207 1.378 . S
C208 C209 1.409 . S
C209 C205 1.387 . S
C209 C208 1.409 . S
C209 H211 0.951 . S
C210 C205 1.491 1_565 S
C210 C212 1.382 . S
C210 C214 1.404 . S
H211 C209 0.951 . S
C212 C210 1.382 . S
C212 C213 1.390 . S
C212 H217 0.949 . S
C213 C212 1.390 . S
C213 C218 1.399 . S
C214 C210 1.404 . S
C214 H215 0.950 . S
C214 C216 1.375 . S
H215 C214 0.950 . S
C216 C214 1.375 . S
C216 C218 1.382 . S
C216 H220 0.950 . S
H217 C212 0.949 . S
C218 C213 1.399 . S
C218 C216 1.382 . S
C218 H219 0.952 . S
H219 C218 0.952 . S
H220 C216 0.950 . S
H221 C222 0.949 . S
C222 H221 0.949 . S
C222 C223 1.395 . S
C222 C224 1.391 1_556 S
C223 C222 1.395 . S
C223 C226 1.390 1_556 S
C224 C222 1.391 1_554 S
C224 C228 1.387 . S
C224 C229 1.491 . S
H225 C226 0.950 . S
C226 C223 1.390 1_554 S
C226 H225 0.950 . S
C226 C227 1.378 . S
C227 C226 1.378 . S
C227 C228 1.409 . S
C228 C224 1.387 . S
C228 C227 1.409 . S
C228 H230 0.951 . S
C229 C224 1.491 . S
C229 C231 1.382 . S
C229 C233 1.404 . S
H230 C228 0.951 . S
C231 C229 1.382 . S
C231 C232 1.390 . S
C231 H236 0.949 1_554 S
C232 C231 1.390 . S
C232 C237 1.399 . S
C233 C229 1.404 . S
C233 H234 0.950 . S
C233 C235 1.375 . S
H234 C233 0.950 . S
C235 C233 1.375 . S
C235 C237 1.382 . S
C235 H239 0.950 . S
H236 C231 0.949 1_556 S
C237 C232 1.399 . S
C237 C235 1.382 . S
C237 H238 0.952 . S
H238 C237 0.952 . S
H239 C235 0.950 . S
H240 C248 0.929 . S
H241 C250 0.930 . S
H242 C252 0.930 . S
H243 C255 0.929 . S
H244 C258 0.930 . S
H245 C260 0.960 . S
H246 C260 0.960 . S
H247 C260 0.960 . S
C248 H240 0.929 . S
C248 C249 1.377 . S
C248 C250 1.384 . S
C249 C248 1.377 . S
C249 C255 1.390 . S
C250 H241 0.930 . S
C250 C248 1.384 . S
C250 C251 1.372 . S
C251 C250 1.372 . S
C251 C252 1.400 . S
C251 C256 1.490 . S
C252 H242 0.930 . S
C252 C251 1.400 . S
C252 C255 1.386 . S
H253 C269 0.930 . S
H254 C270 0.931 . S
C255 H243 0.929 . S
C255 C249 1.390 . S
C255 C252 1.386 . S
C256 C251 1.490 . S
C256 C258 1.395 . S
C256 C259 1.403 . S
H257 C263 0.930 . S
C258 H244 0.930 . S
C258 C256 1.395 . S
C258 C261 1.403 . S
C259 C256 1.403 . S
C259 C260 1.524 . S
C259 C263 1.400 . S
C260 H245 0.960 . S
C260 H246 0.960 . S
C260 H247 0.960 . S
C260 C259 1.524 . S
C261 C258 1.403 . S
C261 C262 1.392 . S
C261 C265 1.495 . S
C262 C261 1.392 . S
C262 C263 1.385 . S
C262 C264 1.478 . S
C263 H257 0.930 . S
C263 C259 1.400 . S
C263 C262 1.385 . S
C264 C262 1.478 . S
C264 C266 1.381 . S
C264 C270 1.383 . S
C265 C261 1.495 . S
C265 H271 0.959 . S
C265 H272 0.961 . S
C265 H273 0.960 . S
C266 C264 1.381 . S
C266 C267 1.394 . S
C266 H274 0.930 . S
C267 C266 1.394 . S
C267 C268 1.383 . S
C267 H275 0.929 . S
C268 C267 1.383 . S
C268 C269 1.377 . S
C269 H253 0.930 . S
C269 C268 1.377 . S
C269 C270 1.379 . S
C270 H254 0.931 . S
C270 C264 1.383 . S
C270 C269 1.379 . S
H271 C265 0.959 . S
H272 C265 0.961 . S
H273 C265 0.960 . S
H274 C266 0.930 . S
H275 C267 0.929 . S
H276 C284 0.929 . S
H277 C286 0.930 . S
H278 C288 0.930 . S
H279 C291 0.929 . S
H280 C294 0.930 . S
H281 C296 0.960 . S
H282 C296 0.960 . S
H283 C296 0.960 . S
C284 H276 0.929 . S
C284 C285 1.377 . S
C284 C286 1.384 . S
C285 C284 1.377 . S
C285 C291 1.390 . S
C286 H277 0.930 . S
C286 C284 1.384 . S
C286 C287 1.372 . S
C287 C286 1.372 . S
C287 C288 1.400 . S
C287 C292 1.490 . S
C288 H278 0.930 . S
C288 C287 1.400 . S
C288 C291 1.386 . S
H289 C305 0.930 . S
H290 C306 0.931 . S
C291 H279 0.929 . S
C291 C285 1.390 . S
C291 C288 1.386 . S
C292 C287 1.490 . S
C292 C294 1.395 . S
C292 C295 1.403 . S
H293 C299 0.930 . S
C294 H280 0.930 . S
C294 C292 1.395 . S
C294 C297 1.403 . S
C295 C292 1.403 . S
C295 C296 1.524 . S
C295 C299 1.400 . S
C296 H281 0.960 . S
C296 H282 0.960 . S
C296 H283 0.960 . S
C296 C295 1.524 . S
C297 C294 1.403 . S
C297 C298 1.392 . S
C297 C301 1.495 . S
C298 C297 1.392 . S
C298 C299 1.385 . S
C298 C300 1.478 . S
C299 H293 0.930 . S
C299 C295 1.400 . S
C299 C298 1.385 . S
C300 C298 1.478 . S
C300 C302 1.381 . S
C300 C306 1.383 . S
C301 C297 1.495 . S
C301 H307 0.959 . S
C301 H308 0.961 . S
C301 H309 0.960 . S
C302 C300 1.381 . S
C302 C303 1.394 . S
C302 H310 0.930 . S
C303 C302 1.394 . S
C303 C304 1.383 . S
C303 H311 0.929 . S
C304 C303 1.383 . S
C304 C305 1.377 . S
C305 H289 0.930 . S
C305 C304 1.377 . S
C305 C306 1.379 . S
C306 H290 0.931 . S
C306 C300 1.383 . S
C306 C305 1.379 . S
H307 C301 0.959 . S
H308 C301 0.961 . S
H309 C301 0.960 . S
H310 C302 0.930 . S
H311 C303 0.929 . S
H312 C320 0.929 . S
H313 C322 0.930 . S
H314 C324 0.930 . S
H315 C327 0.929 . S
H316 C330 0.930 . S
H317 C332 0.960 . S
H318 C332 0.960 . S
H319 C332 0.960 . S
C320 H312 0.929 . S
C320 C321 1.377 . S
C320 C322 1.384 . S
C321 C320 1.377 . S
C321 C327 1.390 . S
C322 H313 0.930 . S
C322 C320 1.384 . S
C322 C323 1.372 . S
C323 C322 1.372 . S
C323 C324 1.400 . S
C323 C328 1.490 . S
C324 H314 0.930 . S
C324 C323 1.400 . S
C324 C327 1.386 . S
H325 C341 0.930 . S
H326 C342 0.931 . S
C327 H315 0.929 . S
C327 C321 1.390 . S
C327 C324 1.386 . S
C328 C323 1.490 . S
C328 C330 1.395 . S
C328 C331 1.403 . S
H329 C335 0.930 . S
C330 H316 0.930 . S
C330 C328 1.395 . S
C330 C333 1.403 . S
C331 C328 1.403 . S
C331 C332 1.524 . S
C331 C335 1.400 . S
C332 H317 0.960 . S
C332 H318 0.960 . S
C332 H319 0.960 . S
C332 C331 1.524 . S
C333 C330 1.403 . S
C333 C334 1.392 . S
C333 C337 1.495 . S
C334 C333 1.392 . S
C334 C335 1.385 . S
C334 C336 1.478 . S
C335 H329 0.930 . S
C335 C331 1.400 . S
C335 C334 1.385 . S
C336 C334 1.478 . S
C336 C338 1.381 . S
C336 C342 1.383 . S
C337 C333 1.495 . S
C337 H343 0.959 . S
C337 H344 0.961 . S
C337 H345 0.960 . S
C338 C336 1.381 . S
C338 C339 1.394 . S
C338 H346 0.930 . S
C339 C338 1.394 . S
C339 C340 1.383 . S
C339 H347 0.929 . S
C340 C339 1.383 . S
C340 C341 1.377 . S
C341 H325 0.930 . S
C341 C340 1.377 . S
C341 C342 1.379 . S
C342 H326 0.931 . S
C342 C336 1.383 . S
C342 C341 1.379 . S
H343 C337 0.959 . S
H344 C337 0.961 . S
H345 C337 0.960 . S
H346 C338 0.930 . S
H347 C339 0.929 . S
H348 C356 0.929 . S
H349 C358 0.930 . S
H350 C360 0.930 . S
H351 C363 0.929 . S
H352 C366 0.930 . S
H353 C368 0.960 . S
H354 C368 0.960 . S
H355 C368 0.960 . S
C356 H348 0.929 . S
C356 C357 1.377 . S
C356 C358 1.384 . S
C357 C356 1.377 . S
C357 C363 1.390 . S
C358 H349 0.930 . S
C358 C356 1.384 . S
C358 C359 1.372 . S
C359 C358 1.372 . S
C359 C360 1.400 . S
C359 C364 1.490 . S
C360 H350 0.930 . S
C360 C359 1.400 . S
C360 C363 1.386 . S
H361 C377 0.930 . S
H362 C378 0.931 . S
C363 H351 0.929 . S
C363 C357 1.390 . S
C363 C360 1.386 . S
C364 C359 1.490 . S
C364 C366 1.395 . S
C364 C367 1.403 . S
H365 C371 0.930 . S
C366 H352 0.930 . S
C366 C364 1.395 . S
C366 C369 1.403 . S
C367 C364 1.403 . S
C367 C368 1.524 . S
C367 C371 1.400 . S
C368 H353 0.960 . S
C368 H354 0.960 . S
C368 H355 0.960 . S
C368 C367 1.524 . S
C369 C366 1.403 . S
C369 C370 1.392 . S
C369 C373 1.495 . S
C370 C369 1.392 . S
C370 C371 1.385 . S
C370 C372 1.478 . S
C371 H365 0.930 . S
C371 C367 1.400 . S
C371 C370 1.385 . S
C372 C370 1.478 . S
C372 C374 1.381 . S
C372 C378 1.383 . S
C373 C369 1.495 . S
C373 H379 0.959 . S
C373 H380 0.961 . S
C373 H381 0.960 . S
C374 C372 1.381 . S
C374 C375 1.394 . S
C374 H382 0.930 . S
C375 C374 1.394 . S
C375 C376 1.383 . S
C375 H383 0.929 . S
C376 C375 1.383 . S
C376 C377 1.377 . S
C377 H361 0.930 . S
C377 C376 1.377 . S
C377 C378 1.379 . S
C378 H362 0.931 . S
C378 C372 1.383 . S
C378 C377 1.379 . S
H379 C373 0.959 . S
H380 C373 0.961 . S
H381 C373 0.960 . S
H382 C374 0.930 . S
H383 C375 0.929 . S
H384 C392 0.929 . S
H385 C394 0.930 . S
H386 C396 0.930 . S
H387 C399 0.929 . S
H388 C402 0.930 . S
H389 C404 0.960 . S
H390 C404 0.960 . S
H391 C404 0.960 . S
C392 H384 0.929 . S
C392 C393 1.377 . S
C392 C394 1.384 . S
C393 C392 1.377 . S
C393 C399 1.390 . S
C394 H385 0.930 . S
C394 C392 1.384 . S
C394 C395 1.372 . S
C395 C394 1.372 . S
C395 C396 1.400 . S
C395 C400 1.490 . S
C396 H386 0.930 . S
C396 C395 1.400 . S
C396 C399 1.386 . S
H397 C413 0.930 . S
H398 C414 0.931 . S
C399 H387 0.929 . S
C399 C393 1.390 . S
C399 C396 1.386 . S
C400 C395 1.490 . S
C400 C402 1.395 . S
C400 C403 1.403 . S
H401 C407 0.930 . S
C402 H388 0.930 . S
C402 C400 1.395 . S
C402 C405 1.403 . S
C403 C400 1.403 . S
C403 C404 1.524 . S
C403 C407 1.400 . S
C404 H389 0.960 . S
C404 H390 0.960 . S
C404 H391 0.960 . S
C404 C403 1.524 . S
C405 C402 1.403 . S
C405 C406 1.392 . S
C405 C409 1.495 . S
C406 C405 1.392 . S
C406 C407 1.385 . S
C406 C408 1.478 . S
C407 H401 0.930 . S
C407 C403 1.400 . S
C407 C406 1.385 . S
C408 C406 1.478 . S
C408 C410 1.381 . S
C408 C414 1.383 . S
C409 C405 1.495 . S
C409 H415 0.959 . S
C409 H416 0.961 . S
C409 H417 0.960 . S
C410 C408 1.381 . S
C410 C411 1.394 . S
C410 H418 0.930 . S
C411 C410 1.394 . S
C411 C412 1.383 . S
C411 H419 0.929 . S
C412 C411 1.383 . S
C412 C413 1.377 . S
C413 H397 0.930 . S
C413 C412 1.377 . S
C413 C414 1.379 . S
C414 H398 0.931 . S
C414 C408 1.383 . S
C414 C413 1.379 . S
H415 C409 0.959 . S
H416 C409 0.961 . S
H417 C409 0.960 . S
H418 C410 0.930 . S
H419 C411 0.929 . S
H420 C428 0.929 . S
H421 C430 0.930 . S
H422 C432 0.930 . S
H423 C435 0.929 . S
H424 C438 0.930 . S
H425 C440 0.960 . S
H426 C440 0.960 . S
H427 C440 0.960 . S
C428 H420 0.929 . S
C428 C429 1.377 . S
C428 C430 1.384 . S
C429 C428 1.377 . S
C429 C435 1.390 . S
C430 H421 0.930 . S
C430 C428 1.384 . S
C430 C431 1.372 . S
C431 C430 1.372 . S
C431 C432 1.400 . S
C431 C436 1.490 . S
C432 H422 0.930 . S
C432 C431 1.400 . S
C432 C435 1.386 . S
H433 C449 0.930 . S
H434 C450 0.931 . S
C435 H423 0.929 . S
C435 C429 1.390 . S
C435 C432 1.386 . S
C436 C431 1.490 . S
C436 C438 1.395 . S
C436 C439 1.403 . S
H437 C443 0.930 . S
C438 H424 0.930 . S
C438 C436 1.395 . S
C438 C441 1.403 . S
C439 C436 1.403 . S
C439 C440 1.524 . S
C439 C443 1.400 . S
C440 H425 0.960 . S
C440 H426 0.960 . S
C440 H427 0.960 . S
C440 C439 1.524 . S
C441 C438 1.403 . S
C441 C442 1.392 . S
C441 C445 1.495 . S
C442 C441 1.392 . S
C442 C443 1.385 . S
C442 C444 1.478 . S
C443 H437 0.930 . S
C443 C439 1.400 . S
C443 C442 1.385 . S
C444 C442 1.478 . S
C444 C446 1.381 . S
C444 C450 1.383 . S
C445 C441 1.495 . S
C445 H451 0.959 . S
C445 H452 0.961 . S
C445 H453 0.960 . S
C446 C444 1.381 . S
C446 C447 1.394 . S
C446 H454 0.930 . S
C447 C446 1.394 . S
C447 C448 1.383 . S
C447 H455 0.929 . S
C448 C447 1.383 . S
C448 C449 1.377 . S
C449 H433 0.930 . S
C449 C448 1.377 . S
C449 C450 1.379 . S
C450 H434 0.931 . S
C450 C444 1.383 . S
C450 C449 1.379 . S
H451 C445 0.959 . S
H452 C445 0.961 . S
H453 C445 0.960 . S
H454 C446 0.930 . S
H455 C447 0.929 . S
H456 C464 0.929 . S
H457 C466 0.930 . S
H458 C468 0.930 . S
H459 C471 0.929 . S
H460 C474 0.930 . S
H461 C476 0.960 . S
H462 C476 0.960 . S
H463 C476 0.960 . S
C464 H456 0.929 . S
C464 C465 1.377 . S
C464 C466 1.384 . S
C465 C464 1.377 . S
C465 C471 1.390 . S
C466 H457 0.930 . S
C466 C464 1.384 . S
C466 C467 1.372 . S
C467 C466 1.372 . S
C467 C468 1.400 . S
C467 C472 1.490 . S
C468 H458 0.930 . S
C468 C467 1.400 . S
C468 C471 1.386 . S
H469 C485 0.930 . S
H470 C486 0.931 . S
C471 H459 0.929 . S
C471 C465 1.390 . S
C471 C468 1.386 . S
C472 C467 1.490 . S
C472 C474 1.395 . S
C472 C475 1.403 . S
H473 C479 0.930 . S
C474 H460 0.930 . S
C474 C472 1.395 . S
C474 C477 1.403 . S
C475 C472 1.403 . S
C475 C476 1.524 . S
C475 C479 1.400 . S
C476 H461 0.960 . S
C476 H462 0.960 . S
C476 H463 0.960 . S
C476 C475 1.524 . S
C477 C474 1.403 . S
C477 C478 1.392 . S
C477 C481 1.495 . S
C478 C477 1.392 . S
C478 C479 1.385 . S
C478 C480 1.478 . S
C479 H473 0.930 . S
C479 C475 1.400 . S
C479 C478 1.385 . S
C480 C478 1.478 . S
C480 C482 1.381 . S
C480 C486 1.383 . S
C481 C477 1.495 . S
C481 H487 0.959 . S
C481 H488 0.961 . S
C481 H489 0.960 . S
C482 C480 1.381 . S
C482 C483 1.394 . S
C482 H490 0.930 . S
C483 C482 1.394 . S
C483 C484 1.383 . S
C483 H491 0.929 . S
C484 C483 1.383 . S
C484 C485 1.377 . S
C485 H469 0.930 . S
C485 C484 1.377 . S
C485 C486 1.379 . S
C486 H470 0.931 . S
C486 C480 1.383 . S
C486 C485 1.379 . S
H487 C481 0.959 . S
H488 C481 0.961 . S
H489 C481 0.960 . S
H490 C482 0.930 . S
H491 C483 0.929 . S
H492 C500 0.929 . S
H493 C502 0.930 . S
H494 C504 0.930 . S
H495 C507 0.929 . S
H496 C510 0.930 . S
H497 C512 0.960 . S
H498 C512 0.960 . S
H499 C512 0.960 . S
C500 H492 0.929 . S
C500 C501 1.377 . S
C500 C502 1.384 . S
C501 C500 1.377 . S
C501 C507 1.390 . S
C502 H493 0.930 . S
C502 C500 1.384 . S
C502 C503 1.372 . S
C503 C502 1.372 . S
C503 C504 1.400 . S
C503 C508 1.490 . S
C504 H494 0.930 . S
C504 C503 1.400 . S
C504 C507 1.386 . S
H505 C521 0.930 . S
H506 C522 0.931 . S
C507 H495 0.929 . S
C507 C501 1.390 . S
C507 C504 1.386 . S
C508 C503 1.490 . S
C508 C510 1.395 . S
C508 C511 1.403 . S
H509 C515 0.930 . S
C510 H496 0.930 . S
C510 C508 1.395 . S
C510 C513 1.403 . S
C511 C508 1.403 . S
C511 C512 1.524 . S
C511 C515 1.400 . S
C512 H497 0.960 . S
C512 H498 0.960 . S
C512 H499 0.960 . S
C512 C511 1.524 . S
C513 C510 1.403 . S
C513 C514 1.392 . S
C513 C517 1.495 . S
C514 C513 1.392 . S
C514 C515 1.385 . S
C514 C516 1.478 . S
C515 H509 0.930 . S
C515 C511 1.400 . S
C515 C514 1.385 . S
C516 C514 1.478 . S
C516 C518 1.381 . S
C516 C522 1.383 . S
C517 C513 1.495 . S
C517 H523 0.959 . S
C517 H524 0.961 . S
C517 H525 0.960 . S
C518 C516 1.381 . S
C518 C519 1.394 . S
C518 H526 0.930 . S
C519 C518 1.394 . S
C519 C520 1.383 . S
C519 H527 0.929 . S
C520 C519 1.383 . S
C520 C521 1.377 . S
C521 H505 0.930 . S
C521 C520 1.377 . S
C521 C522 1.379 . S
C522 H506 0.931 . S
C522 C516 1.383 . S
C522 C521 1.379 . S
H523 C517 0.959 . S
H524 C517 0.961 . S
H525 C517 0.960 . S
H526 C518 0.930 . S
H527 C519 0.929 . S
H528 C536 0.929 . S
H529 C538 0.930 . S
H530 C540 0.930 . S
H531 C543 0.929 . S
H532 C546 0.930 . S
H533 C548 0.960 . S
H534 C548 0.960 . S
H535 C548 0.960 . S
C536 H528 0.929 . S
C536 C537 1.377 . S
C536 C538 1.384 . S
C537 C536 1.377 . S
C537 C543 1.390 . S
C538 H529 0.930 . S
C538 C536 1.384 . S
C538 C539 1.372 . S
C539 C538 1.372 . S
C539 C540 1.400 . S
C539 C544 1.490 . S
C540 H530 0.930 . S
C540 C539 1.400 . S
C540 C543 1.386 . S
H541 C557 0.930 . S
H542 C558 0.931 . S
C543 H531 0.929 . S
C543 C537 1.390 . S
C543 C540 1.386 . S
C544 C539 1.490 . S
C544 C546 1.395 . S
C544 C547 1.403 . S
H545 C551 0.930 . S
C546 H532 0.930 . S
C546 C544 1.395 . S
C546 C549 1.403 . S
C547 C544 1.403 . S
C547 C548 1.524 . S
C547 C551 1.400 . S
C548 H533 0.960 . S
C548 H534 0.960 . S
C548 H535 0.960 . S
C548 C547 1.524 . S
C549 C546 1.403 . S
C549 C550 1.392 . S
C549 C553 1.495 . S
C550 C549 1.392 . S
C550 C551 1.385 . S
C550 C552 1.478 . S
C551 H545 0.930 . S
C551 C547 1.400 . S
C551 C550 1.385 . S
C552 C550 1.478 . S
C552 C554 1.381 . S
C552 C558 1.383 . S
C553 C549 1.495 . S
C553 H559 0.959 . S
C553 H560 0.961 . S
C553 H561 0.960 . S
C554 C552 1.381 . S
C554 C555 1.394 . S
C554 H562 0.930 . S
C555 C554 1.394 . S
C555 C556 1.383 . S
C555 H563 0.929 . S
C556 C555 1.383 . S
C556 C557 1.377 . S
C557 H541 0.930 . S
C557 C556 1.377 . S
C557 C558 1.379 . S
C558 H542 0.931 . S
C558 C552 1.383 . S
C558 C557 1.379 . S
H559 C553 0.959 . S
H560 C553 0.961 . S
H561 C553 0.960 . S
H562 C554 0.930 . S
H563 C555 0.929 . S
H564 C572 0.929 . S
H565 C574 0.930 . S
H566 C576 0.930 . S
H567 C579 0.929 . S
H568 C582 0.930 . S
H569 C584 0.960 . S
H570 C584 0.960 . S
H571 C584 0.960 . S
C572 H564 0.929 . S
C572 C573 1.377 . S
C572 C574 1.384 . S
C573 C572 1.377 . S
C573 C579 1.390 . S
C574 H565 0.930 . S
C574 C572 1.384 . S
C574 C575 1.372 . S
C575 C574 1.372 . S
C575 C576 1.400 . S
C575 C580 1.490 . S
C576 H566 0.930 . S
C576 C575 1.400 . S
C576 C579 1.386 . S
H577 C593 0.930 . S
H578 C594 0.931 . S
C579 H567 0.929 . S
C579 C573 1.390 . S
C579 C576 1.386 . S
C580 C575 1.490 . S
C580 C582 1.395 . S
C580 C583 1.403 . S
H581 C587 0.930 . S
C582 H568 0.930 . S
C582 C580 1.395 . S
C582 C585 1.403 . S
C583 C580 1.403 . S
C583 C584 1.524 . S
C583 C587 1.400 . S
C584 H569 0.960 . S
C584 H570 0.960 . S
C584 H571 0.960 . S
C584 C583 1.524 . S
C585 C582 1.403 . S
C585 C586 1.392 . S
C585 C589 1.495 . S
C586 C585 1.392 . S
C586 C587 1.385 . S
C586 C588 1.478 . S
C587 H581 0.930 . S
C587 C583 1.400 . S
C587 C586 1.385 . S
C588 C586 1.478 . S
C588 C590 1.381 . S
C588 C594 1.383 . S
C589 C585 1.495 . S
C589 H595 0.959 . S
C589 H596 0.961 . S
C589 H597 0.960 . S
C590 C588 1.381 . S
C590 C591 1.394 . S
C590 H598 0.930 . S
C591 C590 1.394 . S
C591 C592 1.383 . S
C591 H599 0.929 . S
C592 C591 1.383 . S
C592 C593 1.377 . S
C593 H577 0.930 . S
C593 C592 1.377 . S
C593 C594 1.379 . S
C594 H578 0.931 . S
C594 C588 1.383 . S
C594 C593 1.379 . S
H595 C589 0.959 . S
H596 C589 0.961 . S
H597 C589 0.960 . S
H598 C590 0.930 . S
H599 C591 0.929 . S
H600 C608 0.929 . S
H601 C610 0.930 . S
H602 C612 0.930 . S
H603 C615 0.929 . S
H604 C618 0.930 . S
H605 C620 0.960 . S
H606 C620 0.960 . S
H607 C620 0.960 . S
C608 H600 0.929 . S
C608 C609 1.377 . S
C608 C610 1.384 . S
C609 C608 1.377 . S
C609 C615 1.390 . S
C610 H601 0.930 . S
C610 C608 1.384 . S
C610 C611 1.372 . S
C611 C610 1.372 . S
C611 C612 1.400 . S
C611 C616 1.490 . S
C612 H602 0.930 . S
C612 C611 1.400 . S
C612 C615 1.386 . S
H613 C629 0.930 . S
H614 C630 0.931 . S
C615 H603 0.929 . S
C615 C609 1.390 . S
C615 C612 1.386 . S
C616 C611 1.490 . S
C616 C618 1.395 . S
C616 C619 1.403 . S
H617 C623 0.930 . S
C618 H604 0.930 . S
C618 C616 1.395 . S
C618 C621 1.403 . S
C619 C616 1.403 . S
C619 C620 1.524 . S
C619 C623 1.400 . S
C620 H605 0.960 . S
C620 H606 0.960 . S
C620 H607 0.960 . S
C620 C619 1.524 . S
C621 C618 1.403 . S
C621 C622 1.392 . S
C621 C625 1.495 . S
C622 C621 1.392 . S
C622 C623 1.385 . S
C622 C624 1.478 . S
C623 H617 0.930 . S
C623 C619 1.400 . S
C623 C622 1.385 . S
C624 C622 1.478 . S
C624 C626 1.381 . S
C624 C630 1.383 . S
C625 C621 1.495 . S
C625 H631 0.959 . S
C625 H632 0.961 . S
C625 H633 0.960 . S
C626 C624 1.381 . S
C626 C627 1.394 . S
C626 H634 0.930 . S
C627 C626 1.394 . S
C627 C628 1.383 . S
C627 H635 0.929 . S
C628 C627 1.383 . S
C628 C629 1.377 . S
C629 H613 0.930 . S
C629 C628 1.377 . S
C629 C630 1.379 . S
C630 H614 0.931 . S
C630 C624 1.383 . S
C630 C629 1.379 . S
H631 C625 0.959 . S
H632 C625 0.961 . S
H633 C625 0.960 . S
H634 C626 0.930 . S
H635 C627 0.929 . S
H636 C644 0.929 . S
H637 C646 0.930 . S
H638 C648 0.930 . S
H639 C651 0.929 . S
H640 C654 0.930 . S
H641 C656 0.960 . S
H642 C656 0.960 . S
H643 C656 0.960 . S
C644 H636 0.929 . S
C644 C645 1.377 . S
C644 C646 1.384 . S
C645 C644 1.377 . S
C645 C651 1.390 . S
C646 H637 0.930 . S
C646 C644 1.384 . S
C646 C647 1.372 . S
C647 C646 1.372 . S
C647 C648 1.400 . S
C647 C652 1.490 . S
C648 H638 0.930 . S
C648 C647 1.400 . S
C648 C651 1.386 . S
H649 C665 0.930 . S
H650 C666 0.931 . S
C651 H639 0.929 . S
C651 C645 1.390 . S
C651 C648 1.386 . S
C652 C647 1.490 . S
C652 C654 1.395 . S
C652 C655 1.403 . S
H653 C659 0.930 . S
C654 H640 0.930 . S
C654 C652 1.395 . S
C654 C657 1.403 . S
C655 C652 1.403 . S
C655 C656 1.524 . S
C655 C659 1.400 . S
C656 H641 0.960 . S
C656 H642 0.960 . S
C656 H643 0.960 . S
C656 C655 1.524 . S
C657 C654 1.403 . S
C657 C658 1.392 . S
C657 C661 1.495 . S
C658 C657 1.392 . S
C658 C659 1.385 . S
C658 C660 1.478 . S
C659 H653 0.930 . S
C659 C655 1.400 . S
C659 C658 1.385 . S
C660 C658 1.478 . S
C660 C662 1.381 . S
C660 C666 1.383 . S
C661 C657 1.495 . S
C661 H667 0.959 . S
C661 H668 0.961 . S
C661 H669 0.960 . S
C662 C660 1.381 . S
C662 C663 1.394 . S
C662 H670 0.930 . S
C663 C662 1.394 . S
C663 C664 1.383 . S
C663 H671 0.929 . S
C664 C663 1.383 . S
C664 C665 1.377 . S
C665 H649 0.930 . S
C665 C664 1.377 . S
C665 C666 1.379 . S
C666 H650 0.931 . S
C666 C660 1.383 . S
C666 C665 1.379 . S
H667 C661 0.959 . S
H668 C661 0.961 . S
H669 C661 0.960 . S
H670 C662 0.930 . S
H671 C663 0.929 . S
H672 C680 0.929 . S
H673 C682 0.930 . S
H674 C684 0.930 . S
H675 C687 0.929 . S
H676 C690 0.930 . S
H677 C692 0.960 . S
H678 C692 0.960 . S
H679 C692 0.960 . S
C680 H672 0.929 . S
C680 C681 1.377 . S
C680 C682 1.384 . S
C681 C680 1.377 . S
C681 C687 1.390 . S
C682 H673 0.930 . S
C682 C680 1.384 . S
C682 C683 1.372 . S
C683 C682 1.372 . S
C683 C684 1.400 . S
C683 C688 1.490 . S
C684 H674 0.930 . S
C684 C683 1.400 . S
C684 C687 1.386 . S
H685 C701 0.930 . S
H686 C702 0.931 . S
C687 H675 0.929 . S
C687 C681 1.390 . S
C687 C684 1.386 . S
C688 C683 1.490 . S
C688 C690 1.395 . S
C688 C691 1.403 . S
H689 C695 0.930 . S
C690 H676 0.930 . S
C690 C688 1.395 . S
C690 C693 1.403 . S
C691 C688 1.403 . S
C691 C692 1.524 . S
C691 C695 1.400 . S
C692 H677 0.960 . S
C692 H678 0.960 . S
C692 H679 0.960 . S
C692 C691 1.524 . S
C693 C690 1.403 . S
C693 C694 1.392 . S
C693 C697 1.495 . S
C694 C693 1.392 . S
C694 C695 1.385 . S
C694 C696 1.478 . S
C695 H689 0.930 . S
C695 C691 1.400 . S
C695 C694 1.385 . S
C696 C694 1.478 . S
C696 C698 1.381 . S
C696 C702 1.383 . S
C697 C693 1.495 . S
C697 H703 0.959 . S
C697 H704 0.961 . S
C697 H705 0.960 . S
C698 C696 1.381 . S
C698 C699 1.394 . S
C698 H706 0.930 . S
C699 C698 1.394 . S
C699 C700 1.383 . S
C699 H707 0.929 . S
C700 C699 1.383 . S
C700 C701 1.377 . S
C701 H685 0.930 . S
C701 C700 1.377 . S
C701 C702 1.379 . S
C702 H686 0.931 . S
C702 C696 1.383 . S
C702 C701 1.379 . S
H703 C697 0.959 . S
H704 C697 0.961 . S
H705 C697 0.960 . S
H706 C698 0.930 . S
H707 C699 0.929 . S
H708 C716 0.929 . S
H709 C718 0.930 . S
H710 C720 0.930 . S
H711 C723 0.929 . S
H712 C726 0.930 . S
H713 C728 0.960 . S
H714 C728 0.960 . S
H715 C728 0.960 . S
C716 H708 0.929 . S
C716 C717 1.377 . S
C716 C718 1.384 . S
C717 C716 1.377 . S
C717 C723 1.390 . S
C718 H709 0.930 . S
C718 C716 1.384 . S
C718 C719 1.372 . S
C719 C718 1.372 . S
C719 C720 1.400 . S
C719 C724 1.490 . S
C720 H710 0.930 . S
C720 C719 1.400 . S
C720 C723 1.386 . S
H721 C737 0.930 . S
H722 C738 0.931 . S
C723 H711 0.929 . S
C723 C717 1.390 . S
C723 C720 1.386 . S
C724 C719 1.490 . S
C724 C726 1.395 . S
C724 C727 1.403 . S
H725 C731 0.930 . S
C726 H712 0.930 . S
C726 C724 1.395 . S
C726 C729 1.403 . S
C727 C724 1.403 . S
C727 C728 1.524 . S
C727 C731 1.400 . S
C728 H713 0.960 . S
C728 H714 0.960 . S
C728 H715 0.960 . S
C728 C727 1.524 . S
C729 C726 1.403 . S
C729 C730 1.392 . S
C729 C733 1.495 . S
C730 C729 1.392 . S
C730 C731 1.385 . S
C730 C732 1.478 . S
C731 H725 0.930 . S
C731 C727 1.400 . S
C731 C730 1.385 . S
C732 C730 1.478 . S
C732 C734 1.381 . S
C732 C738 1.383 . S
C733 C729 1.495 . S
C733 H739 0.959 . S
C733 H740 0.961 . S
C733 H741 0.960 . S
C734 C732 1.381 . S
C734 C735 1.394 . S
C734 H742 0.930 . S
C735 C734 1.394 . S
C735 C736 1.383 . S
C735 H743 0.929 . S
C736 C735 1.383 . S
C736 C737 1.377 . S
C737 H721 0.930 . S
C737 C736 1.377 . S
C737 C738 1.379 . S
C738 H722 0.931 . S
C738 C732 1.383 . S
C738 C737 1.379 . S
H739 C733 0.959 . S
H740 C733 0.961 . S
H741 C733 0.960 . S
H742 C734 0.930 . S
H743 C735 0.929 . S
H744 C752 0.929 . S
H745 C754 0.930 . S
H746 C756 0.930 . S
H747 C759 0.929 . S
H748 C762 0.930 . S
H749 C764 0.960 . S
H750 C764 0.960 . S
H751 C764 0.960 . S
C752 H744 0.929 . S
C752 C753 1.377 . S
C752 C754 1.384 . S
C753 C752 1.377 . S
C753 C759 1.390 . S
C754 H745 0.930 . S
C754 C752 1.384 . S
C754 C755 1.372 . S
C755 C754 1.372 . S
C755 C756 1.400 . S
C755 C760 1.490 . S
C756 H746 0.930 . S
C756 C755 1.400 . S
C756 C759 1.386 . S
H757 C773 0.930 . S
H758 C774 0.931 . S
C759 H747 0.929 . S
C759 C753 1.390 . S
C759 C756 1.386 . S
C760 C755 1.490 . S
C760 C762 1.395 . S
C760 C763 1.403 . S
H761 C767 0.930 . S
C762 H748 0.930 . S
C762 C760 1.395 . S
C762 C765 1.403 . S
C763 C760 1.403 . S
C763 C764 1.524 . S
C763 C767 1.400 . S
C764 H749 0.960 . S
C764 H750 0.960 . S
C764 H751 0.960 . S
C764 C763 1.524 . S
C765 C762 1.403 . S
C765 C766 1.392 . S
C765 C769 1.495 . S
C766 C765 1.392 . S
C766 C767 1.385 . S
C766 C768 1.478 . S
C767 H761 0.930 . S
C767 C763 1.400 . S
C767 C766 1.385 . S
C768 C766 1.478 . S
C768 C770 1.381 . S
C768 C774 1.383 . S
C769 C765 1.495 . S
C769 H775 0.959 . S
C769 H776 0.961 . S
C769 H777 0.960 . S
C770 C768 1.381 . S
C770 C771 1.394 . S
C770 H778 0.930 . S
C771 C770 1.394 . S
C771 C772 1.383 . S
C771 H779 0.929 . S
C772 C771 1.383 . S
C772 C773 1.377 . S
C773 H757 0.930 . S
C773 C772 1.377 . S
C773 C774 1.379 . S
C774 H758 0.931 . S
C774 C768 1.383 . S
C774 C773 1.379 . S
H775 C769 0.959 . S
H776 C769 0.961 . S
H777 C769 0.960 . S
H778 C770 0.930 . S
H779 C771 0.929 . S
H780 C788 0.929 . S
H781 C790 0.930 . S
H782 C792 0.930 . S
H783 C795 0.929 . S
H784 C798 0.930 . S
H785 C800 0.960 . S
H786 C800 0.960 . S
H787 C800 0.960 . S
C788 H780 0.929 . S
C788 C789 1.377 . S
C788 C790 1.384 . S
C789 C788 1.377 . S
C789 C795 1.390 . S
C790 H781 0.930 . S
C790 C788 1.384 . S
C790 C791 1.372 . S
C791 C790 1.372 . S
C791 C792 1.400 . S
C791 C796 1.490 . S
C792 H782 0.930 . S
C792 C791 1.400 . S
C792 C795 1.386 . S
H793 C809 0.930 . S
H794 C810 0.931 . S
C795 H783 0.929 . S
C795 C789 1.390 . S
C795 C792 1.386 . S
C796 C791 1.490 . S
C796 C798 1.395 . S
C796 C799 1.403 . S
H797 C803 0.930 . S
C798 H784 0.930 . S
C798 C796 1.395 . S
C798 C801 1.403 . S
C799 C796 1.403 . S
C799 C800 1.524 . S
C799 C803 1.400 . S
C800 H785 0.960 . S
C800 H786 0.960 . S
C800 H787 0.960 . S
C800 C799 1.524 . S
C801 C798 1.403 . S
C801 C802 1.392 . S
C801 C805 1.495 . S
C802 C801 1.392 . S
C802 C803 1.385 . S
C802 C804 1.478 . S
C803 H797 0.930 . S
C803 C799 1.400 . S
C803 C802 1.385 . S
C804 C802 1.478 . S
C804 C806 1.381 . S
C804 C810 1.383 . S
C805 C801 1.495 . S
C805 H811 0.959 . S
C805 H812 0.961 . S
C805 H813 0.960 . S
C806 C804 1.381 . S
C806 C807 1.394 . S
C806 H814 0.930 . S
C807 C806 1.394 . S
C807 C808 1.383 . S
C807 H815 0.929 . S
C808 C807 1.383 . S
C808 C809 1.377 . S
C809 H793 0.930 . S
C809 C808 1.377 . S
C809 C810 1.379 . S
C810 H794 0.931 . S
C810 C804 1.383 . S
C810 C809 1.379 . S
H811 C805 0.959 . S
H812 C805 0.961 . S
H813 C805 0.960 . S
H814 C806 0.930 . S
H815 C807 0.929 . S
H816 C824 0.929 . S
H817 C826 0.930 . S
H818 C828 0.930 . S
H819 C831 0.929 . S
H820 C834 0.930 . S
H821 C836 0.960 . S
H822 C836 0.960 . S
H823 C836 0.960 1_556 S
C824 H816 0.929 . S
C824 C825 1.377 . S
C824 C826 1.384 . S
C825 C824 1.377 . S
C825 C831 1.390 1_554 S
C826 H817 0.930 . S
C826 C824 1.384 . S
C826 C827 1.372 . S
C827 C826 1.372 . S
C827 C828 1.400 1_554 S
C827 C832 1.490 . S
C828 H818 0.930 . S
C828 C827 1.400 1_556 S
C828 C831 1.386 . S
H829 C845 0.930 . S
H830 C846 0.931 . S
C831 H819 0.929 . S
C831 C825 1.390 1_556 S
C831 C828 1.386 . S
C832 C827 1.490 . S
C832 C834 1.395 . S
C832 C835 1.403 . S
H833 C839 0.930 . S
C834 H820 0.930 . S
C834 C832 1.395 . S
C834 C837 1.403 . S
C835 C832 1.403 . S
C835 C836 1.524 . S
C835 C839 1.400 . S
C836 H821 0.960 . S
C836 H822 0.960 . S
C836 H823 0.960 1_554 S
C836 C835 1.524 . S
C837 C834 1.403 . S
C837 C838 1.392 . S
C837 C841 1.495 . S
C838 C837 1.392 . S
C838 C839 1.385 . S
C838 C840 1.478 . S
C839 H833 0.930 . S
C839 C835 1.400 . S
C839 C838 1.385 . S
C840 C838 1.478 . S
C840 C842 1.381 . S
C840 C846 1.383 1_554 S
C841 C837 1.495 . S
C841 H847 0.959 . S
C841 H848 0.961 1_554 S
C841 H849 0.960 . S
C842 C840 1.381 . S
C842 C843 1.394 . S
C842 H850 0.930 . S
C843 C842 1.394 . S
C843 C844 1.383 . S
C843 H851 0.929 . S
C844 C843 1.383 . S
C844 C845 1.377 1_554 S
C845 H829 0.930 . S
C845 C844 1.377 1_556 S
C845 C846 1.379 . S
C846 H830 0.931 . S
C846 C840 1.383 1_556 S
C846 C845 1.379 . S
H847 C841 0.959 . S
H848 C841 0.961 1_556 S
H849 C841 0.960 . S
H850 C842 0.930 . S
H851 C843 0.929 . S
H852 C860 0.929 . S
H853 C862 0.930 . S
H854 C864 0.930 . S
H855 C867 0.929 . S
H856 C870 0.930 . S
H857 C872 0.960 . S
H858 C872 0.960 . S
H859 C872 0.960 . S
C860 H852 0.929 . S
C860 C861 1.377 . S
C860 C862 1.384 . S
C861 C860 1.377 . S
C861 C867 1.390 . S
C862 H853 0.930 . S
C862 C860 1.384 . S
C862 C863 1.372 . S
C863 C862 1.372 . S
C863 C864 1.400 . S
C863 C868 1.490 . S
C864 H854 0.930 . S
C864 C863 1.400 . S
C864 C867 1.386 . S
H865 C881 0.930 . S
H866 C882 0.931 . S
C867 H855 0.929 . S
C867 C861 1.390 . S
C867 C864 1.386 . S
C868 C863 1.490 . S
C868 C870 1.395 . S
C868 C871 1.403 . S
H869 C875 0.930 . S
C870 H856 0.930 . S
C870 C868 1.395 . S
C870 C873 1.403 . S
C871 C868 1.403 . S
C871 C872 1.524 . S
C871 C875 1.400 . S
C872 H857 0.960 . S
C872 H858 0.960 . S
C872 H859 0.960 . S
C872 C871 1.524 . S
C873 C870 1.403 . S
C873 C874 1.392 . S
C873 C877 1.495 . S
C874 C873 1.392 . S
C874 C875 1.385 . S
C874 C876 1.478 . S
C875 H869 0.930 . S
C875 C871 1.400 . S
C875 C874 1.385 . S
C876 C874 1.478 . S
C876 C878 1.381 . S
C876 C882 1.383 . S
C877 C873 1.495 . S
C877 H883 0.959 . S
C877 H884 0.961 . S
C877 H885 0.960 . S
C878 C876 1.381 . S
C878 C879 1.394 . S
C878 H886 0.930 . S
C879 C878 1.394 . S
C879 C880 1.383 . S
C879 H887 0.929 . S
C880 C879 1.383 . S
C880 C881 1.377 . S
C881 H865 0.930 . S
C881 C880 1.377 . S
C881 C882 1.379 . S
C882 H866 0.931 . S
C882 C876 1.383 . S
C882 C881 1.379 . S
H883 C877 0.959 . S
H884 C877 0.961 . S
H885 C877 0.960 . S
H886 C878 0.930 . S
H887 C879 0.929 . S
H888 C896 0.929 . S
H889 C898 0.930 . S
H890 C900 0.930 . S
H891 C903 0.929 . S
H892 C906 0.930 . S
H893 C908 0.960 . S
H894 C908 0.960 . S
H895 C908 0.960 1_556 S
C896 H888 0.929 . S
C896 C897 1.377 . S
C896 C898 1.384 . S
C897 C896 1.377 . S
C897 C903 1.390 1_554 S
C898 H889 0.930 . S
C898 C896 1.384 . S
C898 C899 1.372 . S
C899 C898 1.372 . S
C899 C900 1.400 1_554 S
C899 C904 1.490 . S
C900 H890 0.930 . S
C900 C899 1.400 1_556 S
C900 C903 1.386 . S
H901 C917 0.930 . S
H902 C918 0.931 . S
C903 H891 0.929 . S
C903 C897 1.390 1_556 S
C903 C900 1.386 . S
C904 C899 1.490 . S
C904 C906 1.395 . S
C904 C907 1.403 . S
H905 C911 0.930 . S
C906 H892 0.930 . S
C906 C904 1.395 . S
C906 C909 1.403 . S
C907 C904 1.403 . S
C907 C908 1.524 . S
C907 C911 1.400 . S
C908 H893 0.960 . S
C908 H894 0.960 . S
C908 H895 0.960 1_554 S
C908 C907 1.524 . S
C909 C906 1.403 . S
C909 C910 1.392 . S
C909 C913 1.495 . S
C910 C909 1.392 . S
C910 C911 1.385 . S
C910 C912 1.478 . S
C911 H905 0.930 . S
C911 C907 1.400 . S
C911 C910 1.385 . S
C912 C910 1.478 . S
C912 C914 1.381 . S
C912 C918 1.383 1_554 S
C913 C909 1.495 . S
C913 H919 0.959 . S
C913 H920 0.961 1_554 S
C913 H921 0.960 . S
C914 C912 1.381 . S
C914 C915 1.394 . S
C914 H922 0.930 . S
C915 C914 1.394 . S
C915 C916 1.383 . S
C915 H923 0.929 . S
C916 C915 1.383 . S
C916 C917 1.377 1_554 S
C917 H901 0.930 . S
C917 C916 1.377 1_556 S
C917 C918 1.379 . S
C918 H902 0.931 . S
C918 C912 1.383 1_556 S
C918 C917 1.379 . S
H919 C913 0.959 . S
H920 C913 0.961 1_556 S
H921 C913 0.960 . S
H922 C914 0.930 . S
H923 C915 0.929 . S
H924 C932 0.929 . S
H925 C934 0.930 . S
H926 C936 0.930 . S
H927 C939 0.929 . S
H928 C942 0.930 . S
H929 C944 0.960 . S
H930 C944 0.960 . S
H931 C944 0.960 . S
C932 H924 0.929 . S
C932 C933 1.377 . S
C932 C934 1.384 . S
C933 C932 1.377 . S
C933 C939 1.390 . S
C934 H925 0.930 . S
C934 C932 1.384 . S
C934 C935 1.372 . S
C935 C934 1.372 . S
C935 C936 1.400 . S
C935 C940 1.490 . S
C936 H926 0.930 . S
C936 C935 1.400 . S
C936 C939 1.386 . S
H937 C953 0.930 . S
H938 C954 0.931 . S
C939 H927 0.929 . S
C939 C933 1.390 . S
C939 C936 1.386 . S
C940 C935 1.490 . S
C940 C942 1.395 . S
C940 C943 1.403 . S
H941 C947 0.930 . S
C942 H928 0.930 . S
C942 C940 1.395 . S
C942 C945 1.403 . S
C943 C940 1.403 . S
C943 C944 1.524 . S
C943 C947 1.400 . S
C944 H929 0.960 . S
C944 H930 0.960 . S
C944 H931 0.960 . S
C944 C943 1.524 . S
C945 C942 1.403 . S
C945 C946 1.392 . S
C945 C949 1.495 . S
C946 C945 1.392 . S
C946 C947 1.385 . S
C946 C948 1.478 . S
C947 H941 0.930 . S
C947 C943 1.400 . S
C947 C946 1.385 . S
C948 C946 1.478 . S
C948 C950 1.381 . S
C948 C954 1.383 . S
C949 C945 1.495 . S
C949 H955 0.959 . S
C949 H956 0.961 . S
C949 H957 0.960 . S
C950 C948 1.381 . S
C950 C951 1.394 . S
C950 H958 0.930 . S
C951 C950 1.394 . S
C951 C952 1.383 . S
C951 H959 0.929 . S
C952 C951 1.383 . S
C952 C953 1.377 . S
C953 H937 0.930 . S
C953 C952 1.377 . S
C953 C954 1.379 . S
C954 H938 0.931 . S
C954 C948 1.383 . S
C954 C953 1.379 . S
H955 C949 0.959 . S
H956 C949 0.961 . S
H957 C949 0.960 . S
H958 C950 0.930 . S
H959 C951 0.929 . S
H960 C968 0.929 . S
H961 C970 0.930 . S
H962 C972 0.930 . S
H963 C975 0.929 . S
H964 C978 0.930 . S
H965 C980 0.960 . S
H966 C980 0.960 . S
H967 C980 0.960 . S
C968 H960 0.929 . S
C968 C969 1.377 . S
C968 C970 1.384 . S
C969 C968 1.377 . S
C969 C975 1.390 . S
C970 H961 0.930 . S
C970 C968 1.384 . S
C970 C971 1.372 . S
C971 C970 1.372 . S
C971 C972 1.400 . S
C971 C976 1.490 . S
C972 H962 0.930 . S
C972 C971 1.400 . S
C972 C975 1.386 . S
H973 C989 0.930 . S
H974 C990 0.931 . S
C975 H963 0.929 . S
C975 C969 1.390 . S
C975 C972 1.386 . S
C976 C971 1.490 . S
C976 C978 1.395 . S
C976 C979 1.403 . S
H977 C983 0.930 . S
C978 H964 0.930 . S
C978 C976 1.395 . S
C978 C981 1.403 . S
C979 C976 1.403 . S
C979 C980 1.524 . S
C979 C983 1.400 . S
C980 H965 0.960 . S
C980 H966 0.960 . S
C980 H967 0.960 . S
C980 C979 1.524 . S
C981 C978 1.403 . S
C981 C982 1.392 . S
C981 C985 1.495 . S
C982 C981 1.392 . S
C982 C983 1.385 . S
C982 C984 1.478 . S
C983 H977 0.930 . S
C983 C979 1.400 . S
C983 C982 1.385 . S
C984 C982 1.478 . S
C984 C986 1.381 . S
C984 C990 1.383 . S
C985 C981 1.495 . S
C985 H991 0.959 . S
C985 H992 0.961 . S
C985 H993 0.960 . S
C986 C984 1.381 . S
C986 C987 1.394 . S
C986 H994 0.930 . S
C987 C986 1.394 . S
C987 C988 1.383 . S
C987 H995 0.929 . S
C988 C987 1.383 . S
C988 C989 1.377 . S
C989 H973 0.930 . S
C989 C988 1.377 . S
C989 C990 1.379 . S
C990 H974 0.931 . S
C990 C984 1.383 . S
C990 C989 1.379 . S
H991 C985 0.959 . S
H992 C985 0.961 . S
H993 C985 0.960 . S
H994 C986 0.930 . S
H995 C987 0.929 . S
H996 C1004 0.929 . S
H997 C1006 0.930 . S
H998 C1008 0.930 . S
H999 C1011 0.929 . S
H1000 C1014 0.930 . S
H1001 C1016 0.960 . S
H1002 C1016 0.960 . S
H1003 C1016 0.960 . S
C1004 H996 0.929 . S
C1004 C1005 1.377 . S
C1004 C1006 1.384 . S
C1005 C1004 1.377 . S
C1005 C1011 1.390 1_554 S
C1006 H997 0.930 . S
C1006 C1004 1.384 . S
C1006 C1007 1.372 . S
C1007 C1006 1.372 . S
C1007 C1008 1.400 1_554 S
C1007 C1012 1.490 . S
C1008 H998 0.930 . S
C1008 C1007 1.400 1_556 S
C1008 C1011 1.386 . S
H1009 C1025 0.930 . S
H1010 C1026 0.931 . S
C1011 H999 0.929 . S
C1011 C1005 1.390 1_556 S
C1011 C1008 1.386 . S
C1012 C1007 1.490 . S
C1012 C1014 1.395 1_554 S
C1012 C1015 1.403 . S
H1013 C1019 0.930 . S
C1014 H1000 0.930 . S
C1014 C1012 1.395 1_556 S
C1014 C1017 1.403 . S
C1015 C1012 1.403 . S
C1015 C1016 1.524 . S
C1015 C1019 1.400 . S
C1016 H1001 0.960 . S
C1016 H1002 0.960 . S
C1016 H1003 0.960 . S
C1016 C1015 1.524 . S
C1017 C1014 1.403 . S
C1017 C1018 1.392 1_556 S
C1017 C1021 1.495 . S
C1018 C1017 1.392 1_554 S
C1018 C1019 1.385 . S
C1018 C1020 1.478 . S
C1019 H1013 0.930 . S
C1019 C1015 1.400 . S
C1019 C1018 1.385 . S
C1020 C1018 1.478 . S
C1020 C1022 1.381 . S
C1020 C1026 1.383 1_554 S
C1021 C1017 1.495 . S
C1021 H1027 0.959 . S
C1021 H1028 0.961 . S
C1021 H1029 0.960 . S
C1022 C1020 1.381 . S
C1022 C1023 1.394 . S
C1022 H1030 0.930 . S
C1023 C1022 1.394 . S
C1023 C1024 1.383 . S
C1023 H1031 0.929 . S
C1024 C1023 1.383 . S
C1024 C1025 1.377 1_554 S
C1025 H1009 0.930 . S
C1025 C1024 1.377 1_556 S
C1025 C1026 1.379 . S
C1026 H1010 0.931 . S
C1026 C1020 1.383 1_556 S
C1026 C1025 1.379 . S
H1027 C1021 0.959 . S
H1028 C1021 0.961 . S
H1029 C1021 0.960 . S
H1030 C1022 0.930 . S
H1031 C1023 0.929 . S
H1032 C1040 0.929 . S
H1033 C1042 0.930 . S
H1034 C1044 0.930 . S
H1035 C1047 0.929 . S
H1036 C1050 0.930 . S
H1037 C1052 0.960 . S
H1038 C1052 0.960 . S
H1039 C1052 0.960 . S
C1040 H1032 0.929 . S
C1040 C1041 1.377 . S
C1040 C1042 1.384 . S
C1041 C1040 1.377 . S
C1041 C1047 1.390 . S
C1042 H1033 0.930 . S
C1042 C1040 1.384 . S
C1042 C1043 1.372 . S
C1043 C1042 1.372 . S
C1043 C1044 1.400 . S
C1043 C1048 1.490 . S
C1044 H1034 0.930 . S
C1044 C1043 1.400 . S
C1044 C1047 1.386 . S
H1045 C1061 0.930 . S
H1046 C1062 0.931 . S
C1047 H1035 0.929 . S
C1047 C1041 1.390 . S
C1047 C1044 1.386 . S
C1048 C1043 1.490 . S
C1048 C1050 1.395 . S
C1048 C1051 1.403 . S
H1049 C1055 0.930 . S
C1050 H1036 0.930 . S
C1050 C1048 1.395 . S
C1050 C1053 1.403 . S
C1051 C1048 1.403 . S
C1051 C1052 1.524 . S
C1051 C1055 1.400 . S
C1052 H1037 0.960 . S
C1052 H1038 0.960 . S
C1052 H1039 0.960 . S
C1052 C1051 1.524 . S
C1053 C1050 1.403 . S
C1053 C1054 1.392 . S
C1053 C1057 1.495 . S
C1054 C1053 1.392 . S
C1054 C1055 1.385 . S
C1054 C1056 1.478 . S
C1055 H1049 0.930 . S
C1055 C1051 1.400 . S
C1055 C1054 1.385 . S
C1056 C1054 1.478 . S
C1056 C1058 1.381 . S
C1056 C1062 1.383 . S
C1057 C1053 1.495 . S
C1057 H1063 0.959 . S
C1057 H1064 0.961 . S
C1057 H1065 0.960 . S
C1058 C1056 1.381 . S
C1058 C1059 1.394 . S
C1058 H1066 0.930 . S
C1059 C1058 1.394 . S
C1059 C1060 1.383 . S
C1059 H1067 0.929 . S
C1060 C1059 1.383 . S
C1060 C1061 1.377 . S
C1061 H1045 0.930 . S
C1061 C1060 1.377 . S
C1061 C1062 1.379 . S
C1062 H1046 0.931 . S
C1062 C1056 1.383 . S
C1062 C1061 1.379 . S
H1063 C1057 0.959 . S
H1064 C1057 0.961 . S
H1065 C1057 0.960 . S
H1066 C1058 0.930 . S
H1067 C1059 0.929 . S
H1068 C1076 0.929 . S
H1069 C1078 0.930 . S
H1070 C1080 0.930 . S
H1071 C1083 0.929 . S
H1072 C1086 0.930 . S
H1073 C1088 0.960 . S
H1074 C1088 0.960 1_556 S
H1075 C1088 0.960 . S
C1076 H1068 0.929 . S
C1076 C1077 1.377 1_556 S
C1076 C1078 1.384 . S
C1077 C1076 1.377 1_554 S
C1077 C1083 1.390 . S
C1078 H1069 0.930 . S
C1078 C1076 1.384 . S
C1078 C1079 1.372 1_556 S
C1079 C1078 1.372 1_554 S
C1079 C1080 1.400 . S
C1079 C1084 1.490 . S
C1080 H1070 0.930 . S
C1080 C1079 1.400 . S
C1080 C1083 1.386 . S
H1081 C1097 0.930 . S
H1082 C1098 0.931 . S
C1083 H1071 0.929 . S
C1083 C1077 1.390 . S
C1083 C1080 1.386 . S
C1084 C1079 1.490 . S
C1084 C1086 1.395 . S
C1084 C1087 1.403 . S
H1085 C1091 0.930 . S
C1086 H1072 0.930 . S
C1086 C1084 1.395 . S
C1086 C1089 1.403 . S
C1087 C1084 1.403 . S
C1087 C1088 1.524 . S
C1087 C1091 1.400 . S
C1088 H1073 0.960 . S
C1088 H1074 0.960 1_554 S
C1088 H1075 0.960 . S
C1088 C1087 1.524 . S
C1089 C1086 1.403 . S
C1089 C1090 1.392 . S
C1089 C1093 1.495 . S
C1090 C1089 1.392 . S
C1090 C1091 1.385 . S
C1090 C1092 1.478 . S
C1091 H1085 0.930 . S
C1091 C1087 1.400 . S
C1091 C1090 1.385 . S
C1092 C1090 1.478 . S
C1092 C1094 1.381 1_554 S
C1092 C1098 1.383 . S
C1093 C1089 1.495 . S
C1093 H1099 0.959 . S
C1093 H1100 0.961 . S
C1093 H1101 0.960 1_554 S
C1094 C1092 1.381 1_556 S
C1094 C1095 1.394 . S
C1094 H1102 0.930 . S
C1095 C1094 1.394 . S
C1095 C1096 1.383 1_556 S
C1095 H1103 0.929 . S
C1096 C1095 1.383 1_554 S
C1096 C1097 1.377 . S
C1097 H1081 0.930 . S
C1097 C1096 1.377 . S
C1097 C1098 1.379 . S
C1098 H1082 0.931 . S
C1098 C1092 1.383 . S
C1098 C1097 1.379 . S
H1099 C1093 0.959 . S
H1100 C1093 0.961 . S
H1101 C1093 0.960 1_556 S
H1102 C1094 0.930 . S
H1103 C1095 0.929 . S
C249 C21 1.534 . S
C268 C151 1.531 . S
C285 C40 1.509 . S
C304 C94 1.492 . S
C340 C109 1.496 . S
C321 C54 1.521 . S
C357 C73 1.547 . S
C376 C128 1.496 . S
C412 C185 1.486 . S
C393 C74 1.507 . S
C448 C204 1.516 . S
C429 C10 1.540 . S
C484 C227 1.560 . S
C465 C37 1.552 . S
C520 C170 1.517 . S
C501 C65 1.515 . S
C537 C52 1.474 . S
C556 C113 1.475 . S
C573 C87 1.532 . S
C592 C132 1.532 . S
C609 C15 1.585 . S
C628 C147 1.522 . S
C664 C90 1.469 . S
C645 C32 1.525 . S
C681 C29 1.565 . S
C700 C223 1.551 . S
C736 C166 1.540 . S
C717 C59 1.562 . S
C772 C189 1.477 . S
C753 C84 1.489 . S
C789 C8 1.492 . S
C808 C208 1.494 . S
C844 C99 1.363 1_554 S
C825 C7 1.510 . S
C880 C118 1.332 . S
C861 C30 1.484 . S
C897 C62 1.497 . S
C916 C137 1.410 . S
C933 C81 1.522 . S
C952 C156 1.424 . S
C988 C175 1.343 . S
C969 C76 1.498 . S
C1005 C18 1.483 . S
C1024 C194 1.332 1_554 S
C1041 C43 1.511 . S
C1060 C213 1.386 . S
C1077 C51 1.524 . S
C1096 C232 1.368 . S
