# Generated by pormake.
# Topology pth, (4,4)-cn, num edge types: 1
# Building blocks:
#     Node 0, Type 0, BuildingBlock: NAHDIM_clean_sbu_0, # of connection points: 4
#     Node 1, Type 0, BuildingBlock: NAHDIM_clean_sbu_0, # of connection points: 4
#     Node 2, Type 0, BuildingBlock: NAHDIM_clean_sbu_0, # of connection points: 4
#     Node 3, Type 1, BuildingBlock: AZAVOO_clean_linker_0, # of connection points: 4
#     Node 4, Type 1, BuildingBlock: AZAVOO_clean_linker_0, # of connection points: 4
#     Node 5, Type 1, BuildingBlock: AZAVOO_clean_linker_0, # of connection points: 4
#     Edge 6, Type (0, 1), BuildingBlock: TEMPAE_clean_linker_10, # of connection points: 2
#     Edge 7, Type (0, 1), BuildingBlock: TEMPAE_clean_linker_10, # of connection points: 2
#     Edge 8, Type (0, 1), BuildingBlock: TEMPAE_clean_linker_10, # of connection points: 2
#     Edge 9, Type (0, 1), BuildingBlock: TEMPAE_clean_linker_10, # of connection points: 2
#     Edge 10, Type (0, 1), BuildingBlock: TEMPAE_clean_linker_10, # of connection points: 2
#     Edge 11, Type (0, 1), BuildingBlock: TEMPAE_clean_linker_10, # of connection points: 2
#     Edge 12, Type (0, 1), BuildingBlock: TEMPAE_clean_linker_10, # of connection points: 2
#     Edge 13, Type (0, 1), BuildingBlock: TEMPAE_clean_linker_10, # of connection points: 2
#     Edge 14, Type (0, 1), BuildingBlock: TEMPAE_clean_linker_10, # of connection points: 2
#     Edge 15, Type (0, 1), BuildingBlock: TEMPAE_clean_linker_10, # of connection points: 2
#     Edge 16, Type (0, 1), BuildingBlock: TEMPAE_clean_linker_10, # of connection points: 2
#     Edge 17, Type (0, 1), BuildingBlock: TEMPAE_clean_linker_10, # of connection points: 2
# Relax obj value: 0.156
# Max RMSD: 0.228
# Mean RMSD: 0.208
data_MOF--net-pth--node1-NAHDIM_clean_sbu_0--node2-AZAVOO_clean_linker_0--edge1-TEMPAE_clean_linker_10
_symmetry_space_group_name_H-M    P1
_symmetry_Int_Tables_number       1
_symmetry_cell_setting            triclinic
loop_
_symmetry_equiv_pos_as_xyz
'x, y, z'
_cell_length_a     26.439909
_cell_length_b     26.750453
_cell_length_c     70.547472
_cell_angle_alpha  94.068254
_cell_angle_beta   88.841631
_cell_angle_gamma 120.60616
loop_
_atom_site_label
_atom_site_type_symbol
_atom_site_fract_x
_atom_site_fract_y
_atom_site_fract_z
_atom_type_partial_charge
C0 C 0.07865 0.98308 0.08702 0.0
O1 O 0.03064 0.96719 0.0771 0.0
O2 O 0.07694 0.12997 0.09768 0.0
Zn3 Zn 0.10443 0.0949 0.07707 0.0
O4 O 0.04406 0.05731 0.05609 0.0
C5 C 0.20949 0.15063 0.05485 0.0
O6 O 0.19756 0.09714 0.05038 0.0
O7 O 0.11875 0.03643 0.08836 0.0
C8 C 0.0276 0.0865 0.04726 0.0
O9 O 0.04998 0.14214 0.05226 0.0
C10 C 0.0295 0.10064 0.10651 0.0
O11 O 0.99557 0.04481 0.10173 0.0
O12 O 0.17699 0.15919 0.06648 0.0
C13 C 0.05693 0.15049 0.37996 0.0
O14 O 0.0135 0.11039 0.38938 0.0
O15 O 0.08899 0.03083 0.38829 0.0
Zn16 Zn 0.11796 0.11077 0.40063 0.0
O17 O 0.0699 0.10565 0.4236 0.0
C18 C 0.23071 0.12061 0.40616 0.0
O19 O 0.20824 0.07346 0.39454 0.0
O20 O 0.10848 0.15938 0.38232 0.0
C21 C 0.0888 0.111 0.44049 0.0
O22 O 0.1416 0.11938 0.44331 0.0
C23 C 0.06383 0.98517 0.39741 0.0
O24 O 0.05451 0.98954 0.41565 0.0
O25 O 0.20176 0.14623 0.40943 0.0
C26 C 0.19828 0.07535 0.71575 0.0
O27 O 0.19405 0.12036 0.71176 0.0
O28 O 0.06504 0.07382 0.71616 0.0
Zn29 Zn 0.10808 0.06655 0.738 0.0
O30 O 0.1577 0.14425 0.75198 0.0
C31 C 0.00345 0.01347 0.75902 0.0
O32 O 0.99579 0.05089 0.75027 0.0
O33 O 0.16292 0.04101 0.72755 0.0
C34 C 0.18604 0.14707 0.76671 0.0
O35 O 0.18033 0.09887 0.77252 0.0
C36 C 0.05668 0.11649 0.71579 0.0
O37 O 0.0773 0.15717 0.72982 0.0
O38 O 0.04976 0.01108 0.75597 0.0
H39 H 0.95106 0.45571 0.11684 0.0
H40 H 0.12566 0.92464 0.28298 0.0
H41 H 0.89563 0.41496 0.21904 0.0
H42 H 0.87971 0.3247 0.20225 0.0
H43 H 0.05595 0.36992 0.21805 0.0
H44 H 0.0708 0.45932 0.23514 0.0
H45 H 0.92375 0.52394 0.1953 0.0
H46 H 0.92001 0.49532 0.16139 0.0
H47 H 0.08286 0.49631 0.16782 0.0
H48 H 0.08646 0.52575 0.20163 0.0
H49 H 0.94848 0.64012 0.21742 0.0
H50 H 0.96693 0.70755 0.1929 0.0
H51 H 0.13537 0.72213 0.18216 0.0
H52 H 0.11604 0.65401 0.20653 0.0
H53 H 0.94026 0.64043 0.26362 0.0
H54 H 0.95866 0.73512 0.27715 0.0
H55 H 0.13939 0.81418 0.25946 0.0
H56 H 0.12058 0.719 0.24626 0.0
H57 H 0.91873 0.53211 0.28469 0.0
H58 H 0.91563 0.57505 0.31625 0.0
H59 H 0.10199 0.69862 0.31355 0.0
H60 H 0.10479 0.65422 0.28248 0.0
H61 H 0.90992 0.41172 0.2627 0.0
H62 H 0.9111 0.34561 0.28492 0.0
H63 H 0.09149 0.47284 0.30025 0.0
H64 H 0.09051 0.53786 0.27779 0.0
O65 O 0.95361 0.46744 0.13025 0.0
O66 O 0.03685 0.46759 0.1344 0.0
O67 O 0.02347 0.84415 0.28607 0.0
O68 O 0.11686 0.88694 0.27735 0.0
C69 C -0.00255 0.50255 0.23498 0.0
C70 C 0.00684 0.54306 0.22156 0.0
C71 C 0.0185 0.59929 0.22776 0.0
C72 C 0.019 0.61447 0.24733 0.0
C73 C 0.01098 0.57427 0.26075 0.0
C74 C 0.00139 0.51874 0.2546 0.0
C75 C 0.98443 0.44355 0.22816 0.0
C76 C 0.93011 0.40442 0.21928 0.0
C77 C 0.92126 0.35319 0.20963 0.0
C78 C 0.96679 0.34056 0.20865 0.0
C79 C 0.0198 0.37808 0.21871 0.0
C80 C 0.02851 0.42924 0.22842 0.0
C81 C 0.00525 0.52671 0.2009 0.0
C82 C 0.95869 0.51822 0.18932 0.0
C83 C 0.95661 0.50174 0.16997 0.0
C84 C 0.00106 0.49336 0.1619 0.0
C85 C 0.04785 0.50226 0.17358 0.0
C86 C 0.04997 0.51895 0.1929 0.0
C87 C 0.03093 0.64235 0.21367 0.0
C88 C 0.98949 0.65832 0.20985 0.0
C89 C 0.00022 0.69688 0.19591 0.0
C90 C 0.05261 0.72006 0.18561 0.0
C91 C 0.09433 0.70441 0.18969 0.0
C92 C 0.08355 0.66586 0.20364 0.0
C93 C 0.02905 0.67291 0.25394 0.0
C94 C 0.98367 0.67834 0.26257 0.0
C95 C 0.99434 0.73246 0.27031 0.0
C96 C 0.05059 0.78223 0.26944 0.0
C97 C 0.09561 0.77676 0.2604 0.0
C98 C 0.08493 0.72253 0.25273 0.0
C99 C 0.01182 0.59075 0.28128 0.0
C100 C 0.95914 0.56713 0.29127 0.0
C101 C 0.9574 0.59195 0.30919 0.0
C102 C 0.00837 0.64072 0.31728 0.0
C103 C 0.06202 0.66078 0.30786 0.0
C104 C 0.06373 0.63579 0.29002 0.0
C105 C 0.00013 0.47954 0.26867 0.0
C106 C 0.9496 0.42519 0.27087 0.0
C107 C 0.95033 0.38762 0.28351 0.0
C108 C 0.00133 0.40439 0.2943 0.0
C109 C 0.05142 0.45924 0.29228 0.0
C110 C 0.05092 0.49632 0.27948 0.0
C111 C -0.00153 0.47538 0.14138 0.0
C112 C 0.06255 0.83952 0.27811 0.0
H113 H 0.66667 0.11926 0.44456 0.0
H114 H 0.32204 0.15022 0.62097 0.0
H115 H 0.66609 0.0293 0.54217 0.0
H116 H 0.74994 0.02865 0.52729 0.0
H117 H 0.86648 0.20003 0.5541 0.0
H118 H 0.78162 0.20096 0.56838 0.0
H119 H 0.57415 0.04833 0.52014 0.0
H120 H 0.59935 0.06206 0.48661 0.0
H121 H 0.7481 0.23273 0.50226 0.0
H122 H 0.72187 0.21872 0.53573 0.0
H123 H 0.4713 0.04169 0.54265 0.0
H124 H 0.41687 0.0521 0.5171 0.0
H125 H 0.55026 0.23403 0.51599 0.0
H126 H 0.60474 0.22287 0.54141 0.0
H127 H 0.46066 0.01592 0.58497 0.0
H128 H 0.37399 0.01086 0.5999 0.0
H129 H 0.45479 0.19748 0.59835 0.0
H130 H 0.54161 0.20195 0.58366 0.0
H131 H 0.54901 0.00303 0.60502 0.0
H132 H 0.49388 0.97953 0.63462 0.0
H133 H 0.55173 0.16164 0.64673 0.0
H134 H 0.60677 0.18456 0.61727 0.0
H135 H 0.65894 0.01555 0.59035 0.0
H136 H 0.72973 0.01372 0.61198 0.0
H137 H 0.80498 0.19788 0.6265 0.0
H138 H 0.73375 0.19914 0.6051 0.0
O139 O 0.65754 0.11473 0.4579 0.0
O140 O 0.73394 0.20181 0.46671 0.0
O141 O 0.31445 0.0547 0.61424 0.0
O142 O 0.355 0.1508 0.61452 0.0
C143 C 0.66614 0.11734 0.5634 0.0
C144 C 0.63013 0.12436 0.55066 0.0
C145 C 0.57868 0.12308 0.55722 0.0
C146 C 0.56237 0.11285 0.57633 0.0
C147 C 0.59905 0.10659 0.58907 0.0
C148 C 0.65123 0.10977 0.58268 0.0
C149 C 0.71799 0.11518 0.55626 0.0
C150 C 0.70986 0.06633 0.54499 0.0
C151 C 0.75786 0.0659 0.53666 0.0
C152 C 0.81489 0.1143 0.53955 0.0
C153 C 0.82303 0.16235 0.55149 0.0
C154 C 0.77482 0.16282 0.55975 0.0
C155 C 0.64612 0.13257 0.53033 0.0
C156 C 0.61203 0.08871 0.51628 0.0
C157 C 0.62661 0.09664 0.49715 0.0
C158 C 0.67574 0.14852 0.49175 0.0
C159 C 0.70998 0.19226 0.50592 0.0
C160 C 0.69521 0.18434 0.52504 0.0
C161 C 0.54178 0.13152 0.54383 0.0
C162 C 0.48802 0.084 0.53714 0.0
C163 C 0.4571 0.09008 0.52256 0.0
C164 C 0.47954 0.14385 0.51446 0.0
C165 C 0.53236 0.19192 0.52176 0.0
C166 C 0.56321 0.18578 0.53635 0.0
C167 C 0.50729 0.10928 0.58325 0.0
C168 C 0.45927 0.05556 0.58771 0.0
C169 C 0.4099 0.05282 0.59626 0.0
C170 C 0.40756 0.10383 0.6004 0.0
C171 C 0.45522 0.15742 0.59542 0.0
C172 C 0.50469 0.16008 0.58691 0.0
C173 C 0.58128 0.09536 0.60904 0.0
C174 C 0.55167 0.038 0.6145 0.0
C175 C 0.52002 0.02465 0.6313 0.0
C176 C 0.51812 0.06868 0.64284 0.0
C177 C 0.55285 0.12689 0.63823 0.0
C178 C 0.58418 0.14011 0.62139 0.0
C179 C 0.69151 0.10745 0.59628 0.0
C180 C 0.69048 0.05524 0.59835 0.0
C181 C 0.73071 0.05429 0.61064 0.0
C182 C 0.77282 0.10576 0.62074 0.0
C183 C 0.7733 0.15783 0.61869 0.0
C184 C 0.73261 0.15855 0.60663 0.0
C185 C 0.69102 0.15684 0.4714 0.0
C186 C 0.35606 0.10138 0.61009 0.0
H187 H 0.61251 0.788 0.03162 0.0
H188 H 0.31846 0.26168 0.87301 0.0
H189 H 0.59053 0.77958 0.93093 0.0
H190 H 0.66504 0.87017 0.94776 0.0
H191 H 0.7971 0.82491 0.93326 0.0
H192 H 0.72247 0.73502 0.91626 0.0
H193 H 0.50779 0.67675 0.95695 0.0
H194 H 0.53547 0.72156 0.9894 0.0
H195 H 0.70037 0.72483 0.98414 0.0
H196 H 0.67168 0.67912 0.95187 0.0
H197 H 0.4176 0.54948 0.94025 0.0
H198 H 0.37044 0.47653 0.96373 0.0
H199 H 0.53157 0.47432 0.97032 0.0
H200 H 0.57851 0.54825 0.94723 0.0
H201 H 0.40418 0.54067 0.89497 0.0
H202 H 0.32929 0.44366 0.8821 0.0
H203 H 0.44152 0.37692 0.89594 0.0
H204 H 0.5164 0.47445 0.90853 0.0
H205 H 0.48084 0.63107 0.8692 0.0
H206 H 0.42847 0.5693 0.84066 0.0
H207 H 0.52135 0.47634 0.84509 0.0
H208 H 0.57341 0.53824 0.87345 0.0
H209 H 0.60705 0.77009 0.88592 0.0
H210 H 0.67441 0.82917 0.86146 0.0
H211 H 0.732 0.70465 0.85207 0.0
H212 H 0.66583 0.64674 0.87667 0.0
O213 O 0.60163 0.76863 0.019 0.0
O214 O 0.68635 0.7706 0.01536 0.0
O215 O 0.28988 0.33622 0.87224 0.0
O216 O 0.34627 0.29987 0.87873 0.0
C217 C 0.60447 0.69019 0.91724 0.0
C218 C 0.57327 0.65299 0.93181 0.0
C219 C 0.52893 0.59495 0.9271 0.0
C220 C 0.5139 0.57481 0.9079 0.0
C221 C 0.54624 0.61154 0.89339 0.0
C222 C 0.59255 0.66871 0.89803 0.0
C223 C 0.65123 0.75079 0.92254 0.0
C224 C 0.63599 0.79042 0.93082 0.0
C225 C 0.67843 0.84179 0.94053 0.0
C226 C 0.73665 0.85412 0.94208 0.0
C227 C 0.75271 0.81684 0.93221 0.0
C228 C 0.7102 0.76546 0.92248 0.0
C229 C 0.58784 0.67497 0.95207 0.0
C230 C 0.5495 0.68646 0.96295 0.0
C231 C 0.56559 0.71236 0.98143 0.0
C232 C 0.62035 0.72719 0.98931 0.0
C233 C 0.65801 0.71421 0.97848 0.0
C234 C 0.64172 0.68806 0.96006 0.0
C235 C 0.5013 0.55395 0.94215 0.0
C236 C 0.44266 0.53352 0.94695 0.0
C237 C 0.41582 0.49164 0.96022 0.0
C238 C 0.44722 0.4694 0.96878 0.0
C239 C 0.50643 0.49103 0.96415 0.0
C240 C 0.53324 0.53305 0.95095 0.0
C241 C 0.46555 0.51446 0.90271 0.0
C242 C 0.41211 0.50484 0.89545 0.0
C243 C 0.36954 0.44945 0.88804 0.0
C244 C 0.37958 0.40258 0.88788 0.0
C245 C 0.43246 0.41207 0.89578 0.0
C246 C 0.47511 0.46759 0.90312 0.0
C247 C 0.53052 0.58874 0.87335 0.0
C248 C 0.49168 0.59907 0.86347 0.0
C249 C 0.4615 0.56349 0.84733 0.0
C250 C 0.47036 0.51764 0.84086 0.0
C251 C 0.51396 0.51159 0.84967 0.0
C252 C 0.5438 0.54691 0.86585 0.0
C253 C 0.63131 0.70398 0.88292 0.0
C254 C 0.63424 0.7557 0.87855 0.0
C255 C 0.67264 0.7893 0.86466 0.0
C256 C 0.70801 0.77113 0.85486 0.0
C257 C 0.70457 0.71912 0.85923 0.0
C258 C 0.66684 0.68606 0.87323 0.0
C259 C 0.63826 0.75668 0.00867 0.0
C260 C 0.33568 0.3443 0.87918 0.0
C261 C 0.05285 0.18801 0.128 0.0
C262 C 0.01386 0.12936 0.1223 0.0
C263 C 0.03938 0.21633 0.14294 0.0
C264 C 0.98546 0.18532 0.1524 0.0
C265 C 0.94591 0.12605 0.14682 0.0
C266 C 0.96064 0.09864 0.13182 0.0
C267 C 0.08279 0.27966 0.14849 0.0
C268 C 0.88793 0.09189 0.15658 0.0
C269 C 0.98537 0.2587 0.20025 0.0
C270 C 0.96213 0.29296 0.19532 0.0
C271 C 0.98977 0.22028 0.18665 0.0
C272 C 0.97046 0.21622 0.16773 0.0
C273 C 0.94351 0.24787 0.16299 0.0
C274 C 0.93985 0.28602 0.17683 0.0
C275 C 0.01857 0.18702 0.19223 0.0
C276 C 0.92237 0.24473 0.14297 0.0
H277 H 0.09416 0.21205 0.12078 0.0
H278 H 0.93033 0.05329 0.1275 0.0
H279 H 0.06224 0.30627 0.14655 0.0
H280 H 0.09536 0.2852 0.16373 0.0
H281 H 0.12335 0.29706 0.13996 0.0
H282 H 0.86284 0.04566 0.15092 0.0
H283 H 0.89539 0.09327 0.17207 0.0
H284 H 0.86068 0.11194 0.15472 0.0
H285 H 0.00195 0.26342 0.21459 0.0
H286 H 0.92261 0.31295 0.17282 0.0
H287 H 0.06258 0.20564 0.18576 0.0
H288 H 0.99237 0.14072 0.1868 0.0
H289 H 0.02407 0.189 0.20789 0.0
H290 H 0.96079 0.26694 0.13365 0.0
H291 H 0.89564 0.26585 0.1422 0.0
H292 H 0.89573 0.19879 0.13721 0.0
C293 C 0.07565 0.12459 0.47532 0.0
C294 C 0.05213 0.10951 0.45675 0.0
C295 C 0.04179 0.12585 0.49072 0.0
C296 C 0.9831 0.11132 0.48742 0.0
C297 C 0.95878 0.09484 0.46876 0.0
C298 C 0.99366 0.09431 0.45365 0.0
C299 C 0.06911 0.1439 0.51044 0.0
C300 C 0.89613 0.07863 0.4647 0.0
C301 C 0.86912 0.06645 0.52581 0.0
C302 C 0.86442 0.11633 0.5287 0.0
C303 C 0.90999 0.06511 0.51313 0.0
C304 C 0.94713 0.11499 0.50324 0.0
C305 C 0.94524 0.16666 0.50704 0.0
C306 C 0.9037 0.16664 0.51969 0.0
C307 C 0.9109 0.00928 0.50947 0.0
C308 C 0.98447 0.22086 0.49685 0.0
H309 H 0.12086 0.13644 0.47781 0.0
H310 H 0.97509 0.08228 0.43935 0.0
H311 H 0.07074 0.18467 0.51586 0.0
H312 H 0.04182 0.11011 0.52034 0.0
H313 H 0.11441 0.15124 0.51073 0.0
H314 H 0.88335 0.0649 0.44948 0.0
H315 H 0.8655 0.04259 0.4734 0.0
H316 H 0.89046 0.11634 0.46869 0.0
H317 H 0.83949 0.02777 0.53301 0.0
H318 H 0.89994 0.20517 0.52169 0.0
H319 H 0.9566 0.01799 0.51009 0.0
H320 H 0.8931 0.98997 0.49497 0.0
H321 H 0.88421 0.97678 0.51984 0.0
H322 H 0.03073 0.23117 0.49737 0.0
H323 H 0.98254 0.25919 0.50306 0.0
H324 H 0.9707 0.21335 0.48167 0.0
C325 C 0.9037 0.97081 0.77291 0.0
C326 C 0.95923 0.976 0.77254 0.0
C327 C 0.86154 0.93682 0.78596 0.0
C328 C 0.87556 0.90793 0.79909 0.0
C329 C 0.93142 0.91274 0.79875 0.0
C330 C 0.97255 0.94648 0.78536 0.0
C331 C 0.8021 0.93204 0.78575 0.0
C332 C 0.94798 0.88287 0.81268 0.0
C333 C 0.78803 0.86635 0.84436 0.0
C334 C 0.74939 0.80664 0.84034 0.0
C335 C 0.82955 0.89989 0.83106 0.0
C336 C 0.83182 0.87303 0.81329 0.0
C337 C 0.79222 0.8129 0.80905 0.0
C338 C 0.75162 0.78031 0.8227 0.0
C339 C 0.87147 0.96384 0.83611 0.0
C340 C 0.79283 0.783 0.79014 0.0
H341 H 0.89303 0.99326 0.76294 0.0
H342 H 0.01551 0.95058 0.78518 0.0
H343 H 0.76687 0.88564 0.78377 0.0
H344 H 0.79479 0.94957 0.79959 0.0
H345 H 0.79768 0.95603 0.77427 0.0
H346 H 0.99321 0.89094 0.81051 0.0
H347 H 0.94502 0.89845 0.82743 0.0
H348 H 0.91672 0.83522 0.81128 0.0
H349 H 0.78668 0.8865 0.8581 0.0
H350 H 0.72132 0.73418 0.81955 0.0
H351 H 0.86663 0.99031 0.82567 0.0
H352 H 0.91746 0.9733 0.83542 0.0
H353 H 0.864 0.97796 0.85056 0.0
H354 H 0.78592 0.80457 0.77842 0.0
H355 H 0.7584 0.73612 0.78899 0.0
H356 H 0.83633 0.78681 0.78805 0.0
C357 C 0.03301 0.88526 0.09999 0.0
C358 C 0.08198 0.94126 0.09879 0.0
C359 C 0.0321 0.84794 0.11312 0.0
C360 C 0.08152 0.86699 0.12523 0.0
C361 C 0.13243 0.92203 0.1233 0.0
C362 C 0.13201 0.95866 0.11011 0.0
C363 C 0.97699 0.78945 0.11477 0.0
C364 C 0.18622 0.94343 0.13581 0.0
C365 C 0.04898 0.80345 0.17326 0.0
C366 C 0.06308 0.75962 0.17042 0.0
C367 C 0.0559 0.83941 0.15875 0.0
C368 C 0.07771 0.83146 0.14099 0.0
C369 C 0.09343 0.78827 0.13817 0.0
C370 C 0.08577 0.75268 0.15293 0.0
C371 C 0.03878 0.88517 0.1623 0.0
C372 C 0.117 0.77877 0.11943 0.0
H373 H 0.99427 0.87135 0.09122 0.0
H374 H 0.17022 0.00171 0.10915 0.0
H375 H 0.98781 0.75441 0.11435 0.0
H376 H 0.95629 0.78915 0.12863 0.0
H377 H 0.94438 0.77914 0.10325 0.0
H378 H 0.22431 0.9842 0.13109 0.0
H379 H 0.17623 0.95186 0.15064 0.0
H380 H 0.19888 0.90978 0.13595 0.0
H381 H 0.03236 0.80956 0.18687 0.0
H382 H 0.09617 0.71844 0.1506 0.0
H383 H 0.00271 0.87619 0.15233 0.0
H384 H 0.07656 0.92874 0.1596 0.0
H385 H 0.02397 0.8867 0.17707 0.0
H386 H 0.08271 0.76363 0.10813 0.0
H387 H 0.13091 0.74608 0.11997 0.0
H388 H 0.15508 0.82034 0.11527 0.0
C389 C 0.30367 0.18451 0.4317 0.0
C390 C 0.28131 0.13556 0.41869 0.0
C391 C 0.3428 0.19264 0.44633 0.0
C392 C 0.35956 0.15064 0.44801 0.0
C393 C 0.34066 0.10355 0.43409 0.0
C394 C 0.30195 0.09674 0.41952 0.0
C395 C 0.36286 0.24394 0.46073 0.0
C396 C 0.35769 0.05789 0.4354 0.0
C397 C 0.48149 0.1784 0.48224 0.0
C398 C 0.44923 0.14884 0.49789 0.0
C399 C 0.45309 0.18051 0.466 0.0
C400 C 0.39103 0.15207 0.46539 0.0
C401 C 0.35832 0.12311 0.48128 0.0
C402 C 0.38786 0.12199 0.49736 0.0
C403 C 0.48931 0.21201 0.44935 0.0
C404 C 0.29199 0.09236 0.48117 0.0
H405 H 0.28839 0.21505 0.43104 0.0
H406 H 0.28512 0.05895 0.40947 0.0
H407 H 0.3403 0.22856 0.47435 0.0
H408 H 0.4108 0.26535 0.4636 0.0
H409 H 0.35293 0.27677 0.45594 0.0
H410 H 0.34489 0.02789 0.42238 0.0
H411 H 0.40577 0.07861 0.43781 0.0
H412 H 0.3357 0.03179 0.44771 0.0
H413 H 0.52893 0.19857 0.48248 0.0
H414 H 0.36285 0.0998 0.50952 0.0
H415 H 0.47761 0.24413 0.44518 0.0
H416 H 0.47956 0.18045 0.43692 0.0
H417 H 0.53725 0.23507 0.45257 0.0
H418 H 0.27727 0.12337 0.47845 0.0
H419 H 0.27325 0.07271 0.49481 0.0
H420 H 0.27366 0.05736 0.46953 0.0
C421 C 0.25461 0.20672 0.79375 0.0
C422 C 0.22653 0.20399 0.77674 0.0
C423 C 0.29406 0.26042 0.80323 0.0
C424 C 0.30592 0.31258 0.79542 0.0
C425 C 0.27762 0.31019 0.7783 0.0
C426 C 0.23808 0.25586 0.76918 0.0
C427 C 0.32312 0.26135 0.82158 0.0
C428 C 0.28927 0.36499 0.76961 0.0
C429 C 0.3679 0.44515 0.83028 0.0
C430 C 0.4284 0.47076 0.82721 0.0
C431 C 0.32728 0.39475 0.81952 0.0
C432 C 0.34775 0.36952 0.80536 0.0
C433 C 0.40859 0.39662 0.80163 0.0
C434 C 0.44832 0.44693 0.81268 0.0
C435 C 0.26277 0.36688 0.824 0.0
C436 C 0.43193 0.37101 0.78657 0.0
H437 H 0.24579 0.16685 0.7997 0.0
H438 H 0.21662 0.25408 0.75601 0.0
H439 H 0.37157 0.28531 0.8201 0.0
H440 H 0.31278 0.28472 0.83321 0.0
H441 H 0.3088 0.2169 0.82581 0.0
H442 H 0.26374 0.35561 0.75619 0.0
H443 H 0.27785 0.39113 0.77979 0.0
H444 H 0.33673 0.39222 0.7666 0.0
H445 H 0.35245 0.46278 0.84178 0.0
H446 H 0.49511 0.46678 0.81033 0.0
H447 H 0.24738 0.32423 0.82994 0.0
H448 H 0.23654 0.35849 0.81084 0.0
H449 H 0.25372 0.39436 0.83443 0.0
H450 H 0.42422 0.32851 0.79077 0.0
H451 H 0.47975 0.39993 0.78438 0.0
H452 H 0.40825 0.36276 0.77286 0.0
C453 C 0.00676 0.08118 0.68393 0.0
C454 C 0.01924 0.11717 0.7007 0.0
C455 C 0.96863 0.07906 0.66995 0.0
C456 C 0.94174 0.11302 0.67301 0.0
C457 C 0.95476 0.14998 0.6898 0.0
C458 C 0.99379 0.15198 0.70339 0.0
C459 C 0.95653 0.03995 0.65204 0.0
C460 C 0.92634 0.18634 0.69363 0.0
C461 C 0.87618 0.1466 0.63196 0.0
C462 C 0.81632 0.1055 0.63345 0.0
C463 C 0.91781 0.14854 0.64443 0.0
C464 C 0.8988 0.10899 0.65888 0.0
C465 C 0.83842 0.06686 0.66028 0.0
C466 C 0.79786 0.06535 0.64742 0.0
C467 C 0.98195 0.19336 0.64232 0.0
C468 C 0.81651 0.02446 0.67567 0.0
H469 H 0.02667 0.05447 0.68175 0.0
H470 H 0.00307 0.17964 0.71637 0.0
H471 H 0.90938 0.00562 0.65119 0.0
H472 H 0.96587 0.06541 0.63936 0.0
H473 H 0.98331 0.01865 0.65143 0.0
H474 H 0.9417 0.2133 0.7073 0.0
H475 H 0.93597 0.21558 0.68199 0.0
H476 H 0.87789 0.15758 0.69401 0.0
H477 H 0.89036 0.17721 0.62098 0.0
H478 H 0.75145 0.03387 0.64861 0.0
H479 H 0.00843 0.17181 0.64108 0.0
H480 H -0.00182 0.22406 0.65515 0.0
H481 H 0.98975 0.21872 0.62967 0.0
H482 H 0.83913 -0.00095 0.67495 0.0
H483 H 0.76833 0.99363 0.67453 0.0
H484 H 0.82692 0.04866 0.68983 0.0
C485 C 0.96424 -0.00034 0.02538 0.0
C486 C 0.98458 0.05806 0.03132 0.0
C487 C 0.92389 0.97185 0.01022 0.0
C488 C 0.90312 0.00311 0.00081 0.0
C489 C 0.92331 0.06203 0.00671 0.0
C490 C 0.96399 0.08892 0.02191 0.0
C491 C 0.90339 0.90888 0.00432 0.0
C492 C 0.90166 0.09642 -0.00294 0.0
C493 C 0.83775 0.93496 0.95195 0.0
C494 C 0.77812 0.90019 0.9561 0.0
C495 C 0.87879 0.97154 0.96619 0.0
C496 C 0.85954 0.97318 0.98498 0.0
C497 C 0.79894 0.94076 0.989 0.0
C498 C 0.75897 0.9045 0.97452 0.0
C499 C 0.94309 0.00557 0.96138 0.0
C500 C 0.77665 0.94125 0.00885 0.0
H501 H 0.97998 0.9755 0.03254 0.0
H502 H 0.97947 0.13405 0.02644 0.0
H503 H 0.85504 0.88188 0.00576 0.0
H504 H 0.91338 0.9045 0.98915 0.0
H505 H 0.92445 0.89107 0.01296 0.0
H506 H 0.92219 0.14208 0.00322 0.0
H507 H 0.91123 0.09692 0.98167 0.0
H508 H 0.85326 0.07528 -0.00165 0.0
H509 H 0.85257 0.93203 0.93769 0.0
H510 H 0.71308 0.87696 0.97792 0.0
H511 H 0.96667 0.98674 0.96808 0.0
H512 H 0.96316 0.05152 0.96713 0.0
H513 H 0.95008 0.00481 0.9458 0.0
H514 H 0.79055 0.9182 0.01803 0.0
H515 H 0.72795 0.91952 0.00911 0.0
H516 H 0.79574 0.98655 0.01514 0.0
C517 C 0.01712 0.87675 0.39708 0.0
C518 C 0.04845 0.92828 0.38769 0.0
C519 C 0.0041 0.8229 0.38805 0.0
C520 C 0.02337 0.82089 0.36931 0.0
C521 C 0.05457 0.87271 0.35973 0.0
C522 C 0.06652 0.92567 0.36901 0.0
C523 C 0.97003 0.76831 0.39854 0.0
C524 C 0.07596 0.87235 0.3397 0.0
C525 C 0.05037 0.70393 0.34737 0.0
C526 C 0.00466 0.67628 0.33376 0.0
C527 C 0.05461 0.74843 0.36021 0.0
C528 C 0.01178 0.7651 0.35947 0.0
C529 C 0.96256 0.73353 0.34702 0.0
C530 C 0.95975 0.68966 0.33422 0.0
C531 C 0.10767 0.78096 0.37334 0.0
C532 C 0.9156 0.74954 0.34596 0.0
H533 H 0.00284 0.87845 0.4115 0.0
H534 H 0.09084 0.96527 0.36167 0.0
H535 H 0.93002 0.73614 0.39021 0.0
H536 H -0.00293 0.74795 0.4002 0.0
H537 H 0.95668 0.77708 0.41284 0.0
H538 H 0.09967 0.91651 0.33429 0.0
H539 H 0.10591 0.85464 0.3392 0.0
H540 H 0.03825 0.84361 0.32995 0.0
H541 H 0.08463 0.69301 0.34729 0.0
H542 H 0.92451 0.66895 0.32365 0.0
H543 H 0.09462 0.78815 0.38785 0.0
H544 H 0.1379 0.82439 0.36805 0.0
H545 H 0.13206 0.75747 0.3742 0.0
H546 H 0.90325 0.75839 0.36039 0.0
H547 H 0.87551 0.71462 0.33826 0.0
H548 H 0.93281 0.78984 0.33834 0.0
C549 C 0.2766 0.09984 0.69191 0.0
C550 C 0.24412 0.06611 0.7068 0.0
C551 C 0.32105 0.09302 0.68332 0.0
C552 C 0.33376 0.05173 0.68988 0.0
C553 C 0.30119 0.01738 0.70489 0.0
C554 C 0.25644 0.02482 0.71315 0.0
C555 C 0.35446 0.13017 0.6672 0.0
C556 C 0.31384 0.97313 0.71223 0.0
C557 C 0.41383 0.01253 0.65248 0.0
C558 C 0.47246 0.05378 0.65739 0.0
C559 C 0.36783 0.00765 0.66392 0.0
C560 C 0.38097 0.04488 0.68064 0.0
C561 C 0.44023 0.08276 0.68655 0.0
C562 C 0.48541 0.08697 0.67477 0.0
C563 C 0.30527 0.96689 0.65706 0.0
C564 C 0.45596 0.12265 0.70441 0.0
H565 H 0.2672 0.13167 0.68687 0.0
H566 H 0.23157 -0.00123 0.72471 0.0
H567 H 0.40176 0.15761 0.67115 0.0
H568 H 0.35101 0.10206 0.65437 0.0
H569 H 0.33798 0.15908 0.66347 0.0
H570 H 0.28453 0.94991 0.72401 0.0
H571 H 0.30839 0.94062 0.70056 0.0
H572 H 0.36013 0.99495 0.71737 0.0
H573 H 0.40354 0.9873 0.63893 0.0
H574 H 0.53079 0.11855 0.67864 0.0
H575 H 0.28744 0.99253 0.65134 0.0
H576 H 0.27699 0.94324 0.66893 0.0
H577 H 0.30227 0.9346 0.64565 0.0
H578 H 0.4484 0.15887 0.70193 0.0
H579 H 0.50276 0.14162 0.70872 0.0
H580 H 0.42774 0.09907 0.71631 0.0
C581 C 0.2899 0.19136 0.03109 0.0
C582 C 0.25455 0.19973 0.0445 0.0
C583 C 0.32735 0.23596 0.01954 0.0
C584 C 0.3288 0.28973 0.02136 0.0
C585 C 0.29539 0.29933 0.03549 0.0
C586 C 0.25895 0.25433 0.04697 0.0
C587 C 0.36322 0.22464 0.00481 0.0
C588 C 0.29554 0.356 0.0378 0.0
C589 C 0.447 0.42371 -0.00135 0.0
C590 C 0.41781 0.42263 0.98209 0.0
C591 C 0.41925 0.37977 0.01135 0.0
C592 C 0.36084 0.33411 0.00745 0.0
C593 C 0.33148 0.33235 0.99064 0.0
C594 C 0.36044 0.37649 0.97813 0.0
C595 C 0.45193 0.38277 0.0291 0.0
C596 C 0.26904 0.2844 0.98604 0.0
H597 H 0.28708 0.14944 0.02922 0.0
H598 H 0.232 0.26134 0.05735 0.0
H599 H 0.34554 0.22195 0.99041 0.0
H600 H 0.40951 0.26106 0.00546 0.0
H601 H 0.36251 0.18342 0.00671 0.0
H602 H 0.27062 0.3581 0.0504 0.0
H603 H 0.34122 0.3934 0.0392 0.0
H604 H 0.2755 0.36111 0.02495 0.0
H605 H 0.49121 0.45951 0.00186 0.0
H606 H 0.33812 0.37474 0.96516 0.0
H607 H 0.45075 0.34105 0.03027 0.0
H608 H 0.43018 0.38952 0.04182 0.0
H609 H 0.49853 0.41868 0.02933 0.0
H610 H 0.26578 0.24133 0.98569 0.0
H611 H 0.25302 0.28869 0.97215 0.0
H612 H 0.23941 0.28503 -0.0027 0.0
C613 C 0.08995 0.22192 0.35494 0.0
C614 C 0.04599 0.1854 0.36711 0.0
C615 C 0.0803 0.25582 0.34288 0.0
C616 C 0.02561 0.25355 0.34317 0.0
C617 C 0.98097 0.21661 0.35536 0.0
C618 C 0.9916 0.18271 0.36713 0.0
C619 C 0.12875 0.29438 0.32992 0.0
C620 C 0.92233 0.21353 0.35615 0.0
C621 C 0.02608 0.38454 0.32577 0.0
C622 C 0.00339 0.36436 0.30724 0.0
C623 C 0.03217 0.34836 0.3378 0.0
C624 C 0.01577 0.29093 0.331 0.0
C625 C 0.99177 0.26997 0.31241 0.0
C626 C 0.98557 0.30695 0.30076 0.0
C627 C 0.05718 0.37194 0.35763 0.0
C628 C 0.97431 0.20914 0.30464 0.0
H629 H 0.13197 0.22396 0.3548 0.0
H630 H 0.95748 0.1547 0.37654 0.0
H631 H 0.11256 0.28375 0.31495 0.0
H632 H 0.14234 0.34062 0.33354 0.0
H633 H 0.16798 0.28969 0.33097 0.0
H634 H 0.89197 0.18195 0.36622 0.0
H635 H 0.92889 0.25711 0.36059 0.0
H636 H 0.90109 0.20076 0.34184 0.0
H637 H 0.03935 0.42884 0.33082 0.0
H638 H 0.96857 0.2916 0.28634 0.0
H639 H 0.09941 0.37304 0.35919 0.0
H640 H 0.02677 0.34293 0.36824 0.0
H641 H 0.06505 0.41657 0.36103 0.0
H642 H 0.01352 0.2042 0.30411 0.0
H643 H 0.95439 0.19887 0.29014 0.0
H644 H 0.9424 0.17669 0.31416 0.0
loop_
_geom_bond_atom_site_label_1
_geom_bond_atom_site_label_2
_geom_bond_distance
_geom_bond_site_symmetry_2
_ccdc_geom_bond_type
C0 O1 1.160 . S
C0 O7 1.185 . S
O1 C0 1.160 . S
O2 Zn3 1.899 . S
O2 C10 1.284 . S
Zn3 O2 1.899 . S
Zn3 O4 2.032 . S
Zn3 O7 2.086 . S
Zn3 O12 1.977 . S
O4 Zn3 2.032 . S
O4 C8 1.278 . S
C5 O6 1.203 . S
C5 O12 1.267 . S
O6 C5 1.203 . S
O7 C0 1.185 . S
O7 Zn3 2.086 . S
C8 O4 1.278 . S
C8 O9 1.211 . S
O9 C8 1.211 . S
C10 O2 1.284 . S
C10 O11 1.273 . S
O11 C10 1.273 . S
O12 Zn3 1.977 . S
O12 C5 1.267 . S
C13 O14 1.160 . S
C13 O20 1.185 . S
O14 C13 1.160 . S
O15 Zn16 1.899 . S
O15 C23 1.284 1_545 S
Zn16 O15 1.899 . S
Zn16 O17 2.032 . S
Zn16 O20 2.086 . S
Zn16 O25 1.977 . S
O17 Zn16 2.032 . S
O17 C21 1.278 . S
C18 O19 1.203 . S
C18 O25 1.267 . S
O19 C18 1.203 . S
O20 C13 1.185 . S
O20 Zn16 2.086 . S
C21 O17 1.278 . S
C21 O22 1.211 . S
O22 C21 1.211 . S
C23 O15 1.284 1_565 S
C23 O24 1.273 . S
O24 C23 1.273 . S
O25 Zn16 1.977 . S
O25 C18 1.267 . S
C26 O27 1.160 . S
C26 O33 1.185 . S
O27 C26 1.160 . S
O28 Zn29 1.899 . S
O28 C36 1.284 . S
Zn29 O28 1.899 . S
Zn29 O30 2.032 . S
Zn29 O33 2.086 . S
Zn29 O38 1.977 . S
O30 Zn29 2.032 . S
O30 C34 1.278 . S
C31 O32 1.203 . S
C31 O38 1.267 . S
O32 C31 1.203 . S
O33 C26 1.185 . S
O33 Zn29 2.086 . S
C34 O30 1.278 . S
C34 O35 1.211 . S
O35 C34 1.211 . S
C36 O28 1.284 . S
C36 O37 1.273 . S
O37 C36 1.273 . S
O38 Zn29 1.977 . S
O38 C31 1.267 . S
H39 O65 0.856 . S
H40 O68 0.854 . S
H41 C76 0.930 1_655 S
H42 C77 0.930 . S
H43 C79 0.930 . S
H44 C80 0.930 . S
H45 C82 0.931 1_655 S
H46 C83 0.930 1_655 S
H47 C85 0.930 . S
H48 C86 0.929 . S
H49 C88 0.930 1_655 S
H50 C89 0.947 . S
H51 C91 0.930 . S
H52 C92 0.929 . S
H53 C94 0.931 1_655 S
H54 C95 0.930 1_655 S
H55 C97 0.930 . S
H56 C98 0.932 . S
H57 C100 0.930 1_655 S
H58 C101 0.929 . S
H59 C103 0.931 . S
H60 C104 0.930 . S
H61 C106 0.929 1_655 S
H62 C107 0.931 1_655 S
H63 C109 0.930 . S
H64 C110 0.929 . S
O65 H39 0.856 . S
O65 C111 1.300 . S
O66 C111 1.209 . S
O67 C112 1.199 . S
O68 H40 0.854 . S
O68 C112 1.297 . S
C69 C70 1.404 . S
C69 C74 1.397 . S
C69 C75 1.492 . S
C70 C69 1.404 . S
C70 C71 1.396 . S
C70 C81 1.492 . S
C71 C70 1.396 . S
C71 C72 1.397 . S
C71 C87 1.509 . S
C72 C71 1.397 . S
C72 C73 1.412 . S
C72 C93 1.485 . S
C73 C72 1.412 . S
C73 C74 1.388 . S
C73 C99 1.490 . S
C74 C69 1.397 . S
C74 C73 1.388 . S
C74 C105 1.519 . S
C75 C69 1.492 . S
C75 C76 1.363 . S
C75 C80 1.390 . S
C76 H41 0.930 1_455 S
C76 C75 1.363 . S
C76 C77 1.372 1_455 S
C77 H42 0.930 . S
C77 C76 1.372 1_655 S
C77 C78 1.383 1_655 S
C78 C77 1.383 1_455 S
C78 C79 1.395 . S
C79 H43 0.930 . S
C79 C78 1.395 . S
C79 C80 1.362 . S
C80 H44 0.930 . S
C80 C75 1.390 . S
C80 C79 1.362 . S
C81 C70 1.492 . S
C81 C82 1.377 . S
C81 C86 1.397 . S
C82 H45 0.931 1_455 S
C82 C81 1.377 . S
C82 C83 1.376 . S
C83 H46 0.930 1_455 S
C83 C82 1.376 . S
C83 C84 1.376 . S
C84 C83 1.376 . S
C84 C85 1.378 . S
C84 C111 1.486 . S
C85 H47 0.930 . S
C85 C84 1.378 . S
C85 C86 1.376 . S
C86 H48 0.929 . S
C86 C81 1.397 . S
C86 C85 1.376 . S
C87 C71 1.509 . S
C87 C88 1.391 . S
C87 C92 1.386 . S
C88 H49 0.930 1_455 S
C88 C87 1.391 . S
C88 C89 1.375 . S
C89 H50 0.947 . S
C89 C88 1.375 . S
C89 C90 1.375 . S
C90 C89 1.375 . S
C90 C91 1.361 . S
C91 H51 0.930 . S
C91 C90 1.361 . S
C91 C92 1.399 . S
C92 H52 0.929 . S
C92 C87 1.386 . S
C92 C91 1.399 . S
C93 C72 1.485 . S
C93 C94 1.394 . S
C93 C98 1.360 . S
C94 H53 0.931 1_455 S
C94 C93 1.394 . S
C94 C95 1.372 . S
C95 H54 0.930 1_455 S
C95 C94 1.372 . S
C95 C96 1.397 . S
C96 C95 1.397 . S
C96 C97 1.390 . S
C96 C112 1.476 . S
C97 H55 0.930 . S
C97 C96 1.390 . S
C97 C98 1.366 . S
C98 H56 0.932 . S
C98 C93 1.360 . S
C98 C97 1.366 . S
C99 C73 1.490 . S
C99 C100 1.380 . S
C99 C104 1.386 . S
C100 H57 0.930 1_455 S
C100 C99 1.380 . S
C100 C101 1.381 1_455 S
C101 H58 0.929 . S
C101 C100 1.381 1_655 S
C101 C102 1.371 1_655 S
C102 C101 1.371 1_455 S
C102 C103 1.380 . S
C103 H59 0.931 . S
C103 C102 1.380 . S
C103 C104 1.387 . S
C104 H60 0.930 . S
C104 C99 1.386 . S
C104 C103 1.387 . S
C105 C74 1.519 . S
C105 C106 1.377 . S
C105 C110 1.361 . S
C106 H61 0.929 1_455 S
C106 C105 1.377 . S
C106 C107 1.386 . S
C107 H62 0.931 1_455 S
C107 C106 1.386 . S
C107 C108 1.363 . S
C108 C107 1.363 . S
C108 C109 1.385 . S
C109 H63 0.930 . S
C109 C108 1.385 . S
C109 C110 1.396 . S
C110 H64 0.929 . S
C110 C105 1.361 . S
C110 C109 1.396 . S
C111 O65 1.300 . S
C111 O66 1.209 . S
C111 C84 1.486 . S
C112 O67 1.199 . S
C112 O68 1.297 . S
C112 C96 1.476 . S
H113 O139 0.856 . S
H114 O142 0.854 . S
H115 C150 0.930 . S
H116 C151 0.930 1_565 S
H117 C153 0.930 . S
H118 C154 0.930 . S
H119 C156 0.931 . S
H120 C157 0.930 . S
H121 C159 0.930 . S
H122 C160 0.929 . S
H123 C162 0.930 . S
H124 C163 0.931 . S
H125 C165 0.930 . S
H126 C166 0.929 . S
H127 C168 0.931 . S
H128 C169 0.930 . S
H129 C171 0.930 . S
H130 C172 0.932 . S
H131 C174 0.930 . S
H132 C175 0.935 . S
H133 C177 0.931 . S
H134 C178 0.930 . S
H135 C180 0.929 . S
H136 C181 0.931 . S
H137 C183 0.930 . S
H138 C184 0.929 . S
O139 H113 0.856 . S
O139 C185 1.300 . S
O140 C185 1.209 . S
O141 C186 1.199 . S
O142 H114 0.854 . S
O142 C186 1.297 . S
C143 C144 1.404 . S
C143 C148 1.397 . S
C143 C149 1.492 . S
C144 C143 1.404 . S
C144 C145 1.396 . S
C144 C155 1.492 . S
C145 C144 1.396 . S
C145 C146 1.397 . S
C145 C161 1.509 . S
C146 C145 1.397 . S
C146 C147 1.412 . S
C146 C167 1.485 . S
C147 C146 1.412 . S
C147 C148 1.388 . S
C147 C173 1.490 . S
C148 C143 1.397 . S
C148 C147 1.388 . S
C148 C179 1.519 . S
C149 C143 1.492 . S
C149 C150 1.363 . S
C149 C154 1.390 . S
C150 H115 0.930 . S
C150 C149 1.363 . S
C150 C151 1.372 . S
C151 H116 0.930 1_545 S
C151 C150 1.372 . S
C151 C152 1.383 . S
C152 C151 1.383 . S
C152 C153 1.395 . S
C153 H117 0.930 . S
C153 C152 1.395 . S
C153 C154 1.362 . S
C154 H118 0.930 . S
C154 C149 1.390 . S
C154 C153 1.362 . S
C155 C144 1.492 . S
C155 C156 1.377 . S
C155 C160 1.397 . S
C156 H119 0.931 . S
C156 C155 1.377 . S
C156 C157 1.376 . S
C157 H120 0.930 . S
C157 C156 1.376 . S
C157 C158 1.376 . S
C158 C157 1.376 . S
C158 C159 1.378 . S
C158 C185 1.486 . S
C159 H121 0.930 . S
C159 C158 1.378 . S
C159 C160 1.376 . S
C160 H122 0.929 . S
C160 C155 1.397 . S
C160 C159 1.376 . S
C161 C145 1.509 . S
C161 C162 1.391 . S
C161 C166 1.386 . S
C162 H123 0.930 . S
C162 C161 1.391 . S
C162 C163 1.375 . S
C163 H124 0.931 . S
C163 C162 1.375 . S
C163 C164 1.375 . S
C164 C163 1.375 . S
C164 C165 1.361 . S
C165 H125 0.930 . S
C165 C164 1.361 . S
C165 C166 1.399 . S
C166 H126 0.929 . S
C166 C161 1.386 . S
C166 C165 1.399 . S
C167 C146 1.485 . S
C167 C168 1.394 . S
C167 C172 1.360 . S
C168 H127 0.931 . S
C168 C167 1.394 . S
C168 C169 1.372 . S
C169 H128 0.930 . S
C169 C168 1.372 . S
C169 C170 1.397 . S
C170 C169 1.397 . S
C170 C171 1.390 . S
C170 C186 1.476 . S
C171 H129 0.930 . S
C171 C170 1.390 . S
C171 C172 1.366 . S
C172 H130 0.932 . S
C172 C167 1.360 . S
C172 C171 1.366 . S
C173 C147 1.490 . S
C173 C174 1.380 . S
C173 C178 1.386 . S
C174 H131 0.930 . S
C174 C173 1.380 . S
C174 C175 1.381 . S
C175 H132 0.935 . S
C175 C174 1.381 . S
C175 C176 1.371 . S
C176 C175 1.371 . S
C176 C177 1.380 . S
C177 H133 0.931 . S
C177 C176 1.380 . S
C177 C178 1.387 . S
C178 H134 0.930 . S
C178 C173 1.386 . S
C178 C177 1.387 . S
C179 C148 1.519 . S
C179 C180 1.377 . S
C179 C184 1.361 . S
C180 H135 0.929 . S
C180 C179 1.377 . S
C180 C181 1.386 . S
C181 H136 0.931 . S
C181 C180 1.386 . S
C181 C182 1.363 . S
C182 C181 1.363 . S
C182 C183 1.385 . S
C183 H137 0.930 . S
C183 C182 1.385 . S
C183 C184 1.396 . S
C184 H138 0.929 . S
C184 C179 1.361 . S
C184 C183 1.396 . S
C185 O139 1.300 . S
C185 O140 1.209 . S
C185 C158 1.486 . S
C186 O141 1.199 . S
C186 O142 1.297 . S
C186 C170 1.476 . S
H187 O213 0.856 . S
H188 O216 0.854 . S
H189 C224 0.930 . S
H190 C225 0.930 . S
H191 C227 0.930 . S
H192 C228 0.930 . S
H193 C230 0.931 . S
H194 C231 0.930 1_554 S
H195 C233 0.930 . S
H196 C234 0.929 . S
H197 C236 0.930 . S
H198 C237 0.931 . S
H199 C239 0.930 . S
H200 C240 0.929 . S
H201 C242 0.931 . S
H202 C243 0.930 . S
H203 C245 0.930 . S
H204 C246 0.932 . S
H205 C248 0.930 . S
H206 C249 0.929 . S
H207 C251 0.931 . S
H208 C252 0.930 . S
H209 C254 0.929 . S
H210 C255 0.931 . S
H211 C257 0.930 . S
H212 C258 0.929 . S
O213 H187 0.856 . S
O213 C259 1.300 . S
O214 C259 1.209 . S
O215 C260 1.199 . S
O216 H188 0.854 . S
O216 C260 1.297 . S
C217 C218 1.404 . S
C217 C222 1.397 . S
C217 C223 1.492 . S
C218 C217 1.404 . S
C218 C219 1.396 . S
C218 C229 1.492 . S
C219 C218 1.396 . S
C219 C220 1.397 . S
C219 C235 1.509 . S
C220 C219 1.397 . S
C220 C221 1.412 . S
C220 C241 1.485 . S
C221 C220 1.412 . S
C221 C222 1.388 . S
C221 C247 1.490 . S
C222 C217 1.397 . S
C222 C221 1.388 . S
C222 C253 1.519 . S
C223 C217 1.492 . S
C223 C224 1.363 . S
C223 C228 1.390 . S
C224 H189 0.930 . S
C224 C223 1.363 . S
C224 C225 1.372 . S
C225 H190 0.930 . S
C225 C224 1.372 . S
C225 C226 1.383 . S
C226 C225 1.383 . S
C226 C227 1.395 . S
C227 H191 0.930 . S
C227 C226 1.395 . S
C227 C228 1.362 . S
C228 H192 0.930 . S
C228 C223 1.390 . S
C228 C227 1.362 . S
C229 C218 1.492 . S
C229 C230 1.377 . S
C229 C234 1.397 . S
C230 H193 0.931 . S
C230 C229 1.377 . S
C230 C231 1.376 . S
C231 H194 0.930 1_556 S
C231 C230 1.376 . S
C231 C232 1.376 1_556 S
C232 C231 1.376 1_554 S
C232 C233 1.378 1_554 S
C232 C259 1.486 . S
C233 H195 0.930 . S
C233 C232 1.378 1_556 S
C233 C234 1.376 . S
C234 H196 0.929 . S
C234 C229 1.397 . S
C234 C233 1.376 . S
C235 C219 1.509 . S
C235 C236 1.391 . S
C235 C240 1.386 . S
C236 H197 0.930 . S
C236 C235 1.391 . S
C236 C237 1.375 . S
C237 H198 0.931 . S
C237 C236 1.375 . S
C237 C238 1.375 . S
C238 C237 1.375 . S
C238 C239 1.361 . S
C239 H199 0.930 . S
C239 C238 1.361 . S
C239 C240 1.399 . S
C240 H200 0.929 . S
C240 C235 1.386 . S
C240 C239 1.399 . S
C241 C220 1.485 . S
C241 C242 1.394 . S
C241 C246 1.360 . S
C242 H201 0.931 . S
C242 C241 1.394 . S
C242 C243 1.372 . S
C243 H202 0.930 . S
C243 C242 1.372 . S
C243 C244 1.397 . S
C244 C243 1.397 . S
C244 C245 1.390 . S
C244 C260 1.476 . S
C245 H203 0.930 . S
C245 C244 1.390 . S
C245 C246 1.366 . S
C246 H204 0.932 . S
C246 C241 1.360 . S
C246 C245 1.366 . S
C247 C221 1.490 . S
C247 C248 1.380 . S
C247 C252 1.386 . S
C248 H205 0.930 . S
C248 C247 1.380 . S
C248 C249 1.381 . S
C249 H206 0.929 . S
C249 C248 1.381 . S
C249 C250 1.371 . S
C250 C249 1.371 . S
C250 C251 1.380 . S
C251 H207 0.931 . S
C251 C250 1.380 . S
C251 C252 1.387 . S
C252 H208 0.930 . S
C252 C247 1.386 . S
C252 C251 1.387 . S
C253 C222 1.519 . S
C253 C254 1.377 . S
C253 C258 1.361 . S
C254 H209 0.929 . S
C254 C253 1.377 . S
C254 C255 1.386 . S
C255 H210 0.931 . S
C255 C254 1.386 . S
C255 C256 1.363 . S
C256 C255 1.363 . S
C256 C257 1.385 . S
C257 H211 0.930 . S
C257 C256 1.385 . S
C257 C258 1.396 . S
C258 H212 0.929 . S
C258 C253 1.361 . S
C258 C257 1.396 . S
C259 O213 1.300 . S
C259 O214 1.209 . S
C259 C232 1.486 . S
C260 O215 1.199 . S
C260 O216 1.297 . S
C260 C244 1.476 . S
C261 C262 1.391 . S
C261 C263 1.394 . S
C261 H277 0.931 . S
C262 C261 1.391 . S
C262 C266 1.376 . S
C263 C261 1.394 . S
C263 C264 1.369 . S
C263 C267 1.531 . S
C264 C263 1.369 . S
C264 C265 1.410 1_455 S
C264 C272 1.503 . S
C265 C264 1.410 1_655 S
C265 C266 1.392 1_655 S
C265 C268 1.511 . S
C266 C262 1.376 . S
C266 C265 1.392 1_455 S
C266 H278 0.929 1_455 S
C267 C263 1.531 . S
C267 H279 0.960 . S
C267 H280 0.962 . S
C267 H281 0.960 . S
C268 C265 1.511 . S
C268 H282 0.961 . S
C268 H283 0.961 . S
C268 H284 0.961 . S
C269 C270 1.370 . S
C269 C271 1.363 . S
C269 H285 0.931 . S
C270 C269 1.370 . S
C270 C274 1.408 . S
C271 C269 1.363 . S
C271 C272 1.370 . S
C271 C275 1.524 . S
C272 C264 1.503 . S
C272 C271 1.370 . S
C272 C273 1.403 . S
C273 C272 1.403 . S
C273 C274 1.404 . S
C273 C276 1.539 . S
C274 C270 1.408 . S
C274 C273 1.404 . S
C274 H286 0.930 . S
C275 C271 1.524 . S
C275 H287 0.956 . S
C275 H288 0.961 . S
C275 H289 0.961 . S
C276 C273 1.539 . S
C276 H290 0.958 . S
C276 H291 0.961 1_455 S
C276 H292 0.960 1_455 S
H277 C261 0.931 . S
H278 C266 0.929 1_655 S
H279 C267 0.960 . S
H280 C267 0.962 . S
H281 C267 0.960 . S
H282 C268 0.961 . S
H283 C268 0.961 . S
H284 C268 0.961 . S
H285 C269 0.931 . S
H286 C274 0.930 . S
H287 C275 0.956 . S
H288 C275 0.961 . S
H289 C275 0.961 . S
H290 C276 0.958 . S
H291 C276 0.961 1_655 S
H292 C276 0.960 1_655 S
C293 C294 1.391 1_455 S
C293 C295 1.394 1_455 S
C293 H309 0.931 . S
C294 C293 1.391 1_655 S
C294 C298 1.376 . S
C295 C293 1.394 1_655 S
C295 C296 1.369 . S
C295 C299 1.531 1_655 S
C296 C295 1.369 . S
C296 C297 1.410 . S
C296 C304 1.503 . S
C297 C296 1.410 . S
C297 C298 1.392 . S
C297 C300 1.511 . S
C298 C294 1.376 . S
C298 C297 1.392 . S
C298 H310 0.929 . S
C299 C295 1.531 1_455 S
C299 H311 0.960 1_455 S
C299 H312 0.962 . S
C299 H313 0.960 . S
C300 C297 1.511 . S
C300 H314 0.961 1_545 S
C300 H315 0.961 . S
C300 H316 0.961 . S
C301 C302 1.370 . S
C301 C303 1.363 . S
C301 H317 0.921 1_545 S
C302 C301 1.370 . S
C302 C306 1.408 . S
C303 C301 1.363 . S
C303 C304 1.370 . S
C303 C307 1.524 1_545 S
C304 C296 1.503 . S
C304 C303 1.370 . S
C304 C305 1.403 . S
C305 C304 1.403 . S
C305 C306 1.404 . S
C305 C308 1.539 . S
C306 C302 1.408 . S
C306 C305 1.404 . S
C306 H318 0.930 . S
C307 C303 1.524 1_565 S
C307 H319 0.956 . S
C307 H320 0.961 . S
C307 H321 0.961 . S
C308 C305 1.539 . S
C308 H322 0.958 . S
C308 H323 0.961 . S
C308 H324 0.960 . S
H309 C293 0.931 . S
H310 C298 0.929 . S
H311 C299 0.960 1_655 S
H312 C299 0.962 . S
H313 C299 0.960 . S
H314 C300 0.961 1_565 S
H315 C300 0.961 . S
H316 C300 0.961 . S
H317 C301 0.921 1_565 S
H318 C306 0.930 . S
H319 C307 0.956 . S
H320 C307 0.961 . S
H321 C307 0.961 . S
H322 C308 0.958 . S
H323 C308 0.961 . S
H324 C308 0.960 . S
C325 C326 1.391 . S
C325 C327 1.394 . S
C325 H341 0.931 . S
C326 C325 1.391 . S
C326 C330 1.376 . S
C327 C325 1.394 . S
C327 C328 1.369 . S
C327 C331 1.531 . S
C328 C327 1.369 . S
C328 C329 1.410 . S
C328 C336 1.503 . S
C329 C328 1.410 . S
C329 C330 1.392 . S
C329 C332 1.511 . S
C330 C326 1.376 . S
C330 C329 1.392 . S
C330 H342 0.929 1_655 S
C331 C327 1.531 . S
C331 H343 0.960 . S
C331 H344 0.962 . S
C331 H345 0.960 . S
C332 C329 1.511 . S
C332 H346 0.961 1_655 S
C332 H347 0.961 . S
C332 H348 0.961 . S
C333 C334 1.370 . S
C333 C335 1.363 . S
C333 H349 0.931 . S
C334 C333 1.370 . S
C334 C338 1.408 . S
C335 C333 1.363 . S
C335 C336 1.370 . S
C335 C339 1.524 . S
C336 C328 1.503 . S
C336 C335 1.370 . S
C336 C337 1.403 . S
C337 C336 1.403 . S
C337 C338 1.404 . S
C337 C340 1.539 . S
C338 C334 1.408 . S
C338 C337 1.404 . S
C338 H350 0.930 . S
C339 C335 1.524 . S
C339 H351 0.956 . S
C339 H352 0.961 . S
C339 H353 0.961 . S
C340 C337 1.539 . S
C340 H354 0.958 . S
C340 H355 0.961 . S
C340 H356 0.960 . S
H341 C325 0.931 . S
H342 C330 0.929 1_455 S
H343 C331 0.960 . S
H344 C331 0.962 . S
H345 C331 0.960 . S
H346 C332 0.961 1_455 S
H347 C332 0.961 . S
H348 C332 0.961 . S
H349 C333 0.931 . S
H350 C338 0.930 . S
H351 C339 0.956 . S
H352 C339 0.961 . S
H353 C339 0.961 . S
H354 C340 0.958 . S
H355 C340 0.961 . S
H356 C340 0.960 . S
C357 C358 1.391 . S
C357 C359 1.394 . S
C357 H373 0.931 . S
C358 C357 1.391 . S
C358 C362 1.376 . S
C359 C357 1.394 . S
C359 C360 1.369 . S
C359 C363 1.531 1_455 S
C360 C359 1.369 . S
C360 C361 1.410 . S
C360 C368 1.503 . S
C361 C360 1.410 . S
C361 C362 1.392 . S
C361 C364 1.511 . S
C362 C358 1.376 . S
C362 C361 1.392 . S
C362 H374 0.929 1_565 S
C363 C359 1.531 1_655 S
C363 H375 0.960 . S
C363 H376 0.962 . S
C363 H377 0.960 . S
C364 C361 1.511 . S
C364 H378 0.961 . S
C364 H379 0.961 . S
C364 H380 0.961 . S
C365 C366 1.370 . S
C365 C367 1.363 . S
C365 H381 0.931 . S
C366 C365 1.370 . S
C366 C370 1.408 . S
C367 C365 1.363 . S
C367 C368 1.370 . S
C367 C371 1.524 . S
C368 C360 1.503 . S
C368 C367 1.370 . S
C368 C369 1.403 . S
C369 C368 1.403 . S
C369 C370 1.404 . S
C369 C372 1.539 . S
C370 C366 1.408 . S
C370 C369 1.404 . S
C370 H382 0.930 . S
C371 C367 1.524 . S
C371 H383 0.956 . S
C371 H384 0.961 . S
C371 H385 0.961 . S
C372 C369 1.539 . S
C372 H386 0.958 . S
C372 H387 0.961 . S
C372 H388 0.960 . S
H373 C357 0.931 . S
H374 C362 0.929 1_545 S
H375 C363 0.960 . S
H376 C363 0.962 . S
H377 C363 0.960 . S
H378 C364 0.961 . S
H379 C364 0.961 . S
H380 C364 0.961 . S
H381 C365 0.931 . S
H382 C370 0.930 . S
H383 C371 0.956 . S
H384 C371 0.961 . S
H385 C371 0.961 . S
H386 C372 0.958 . S
H387 C372 0.961 . S
H388 C372 0.960 . S
C389 C390 1.391 . S
C389 C391 1.394 . S
C389 H405 0.931 . S
C390 C389 1.391 . S
C390 C394 1.376 . S
C391 C389 1.394 . S
C391 C392 1.369 . S
C391 C395 1.531 . S
C392 C391 1.369 . S
C392 C393 1.410 . S
C392 C400 1.503 . S
C393 C392 1.410 . S
C393 C394 1.392 . S
C393 C396 1.511 . S
C394 C390 1.376 . S
C394 C393 1.392 . S
C394 H406 0.929 . S
C395 C391 1.531 . S
C395 H407 0.960 . S
C395 H408 0.962 . S
C395 H409 0.960 . S
C396 C393 1.511 . S
C396 H410 0.961 1_545 S
C396 H411 0.961 . S
C396 H412 0.961 . S
C397 C398 1.370 . S
C397 C399 1.363 . S
C397 H413 0.931 . S
C398 C397 1.370 . S
C398 C402 1.408 . S
C399 C397 1.363 . S
C399 C400 1.370 . S
C399 C403 1.524 . S
C400 C392 1.503 . S
C400 C399 1.370 . S
C400 C401 1.403 . S
C401 C400 1.403 . S
C401 C402 1.404 . S
C401 C404 1.539 . S
C402 C398 1.408 . S
C402 C401 1.404 . S
C402 H414 0.930 . S
C403 C399 1.524 . S
C403 H415 0.956 . S
C403 H416 0.961 . S
C403 H417 0.961 . S
C404 C401 1.539 . S
C404 H418 0.958 . S
C404 H419 0.961 . S
C404 H420 0.960 . S
H405 C389 0.931 . S
H406 C394 0.929 . S
H407 C395 0.960 . S
H408 C395 0.962 . S
H409 C395 0.960 . S
H410 C396 0.961 1_565 S
H411 C396 0.961 . S
H412 C396 0.961 . S
H413 C397 0.931 . S
H414 C402 0.930 . S
H415 C403 0.956 . S
H416 C403 0.961 . S
H417 C403 0.961 . S
H418 C404 0.958 . S
H419 C404 0.961 . S
H420 C404 0.960 . S
C421 C422 1.391 . S
C421 C423 1.394 . S
C421 H437 0.931 . S
C422 C421 1.391 . S
C422 C426 1.376 . S
C423 C421 1.394 . S
C423 C424 1.369 . S
C423 C427 1.531 . S
C424 C423 1.369 . S
C424 C425 1.410 . S
C424 C432 1.503 . S
C425 C424 1.410 . S
C425 C426 1.392 . S
C425 C428 1.511 . S
C426 C422 1.376 . S
C426 C425 1.392 . S
C426 H438 0.929 . S
C427 C423 1.531 . S
C427 H439 0.960 . S
C427 H440 0.962 . S
C427 H441 0.960 . S
C428 C425 1.511 . S
C428 H442 0.961 . S
C428 H443 0.961 . S
C428 H444 0.961 . S
C429 C430 1.370 . S
C429 C431 1.363 . S
C429 H445 0.931 . S
C430 C429 1.370 . S
C430 C434 1.408 . S
C431 C429 1.363 . S
C431 C432 1.370 . S
C431 C435 1.524 . S
C432 C424 1.503 . S
C432 C431 1.370 . S
C432 C433 1.403 . S
C433 C432 1.403 . S
C433 C434 1.404 . S
C433 C436 1.539 . S
C434 C430 1.408 . S
C434 C433 1.404 . S
C434 H446 0.930 . S
C435 C431 1.524 . S
C435 H447 0.956 . S
C435 H448 0.961 . S
C435 H449 0.961 . S
C436 C433 1.539 . S
C436 H450 0.958 . S
C436 H451 0.961 . S
C436 H452 0.960 . S
H437 C421 0.931 . S
H438 C426 0.929 . S
H439 C427 0.960 . S
H440 C427 0.962 . S
H441 C427 0.960 . S
H442 C428 0.961 . S
H443 C428 0.961 . S
H444 C428 0.961 . S
H445 C429 0.931 . S
H446 C434 0.930 . S
H447 C435 0.956 . S
H448 C435 0.961 . S
H449 C435 0.961 . S
H450 C436 0.958 . S
H451 C436 0.961 . S
H452 C436 0.960 . S
C453 C454 1.393 1_655 S
C453 C455 1.394 . S
C453 H469 0.931 1_655 S
C454 C453 1.393 1_455 S
C454 C458 1.362 1_455 S
C455 C453 1.394 . S
C455 C456 1.369 . S
C455 C459 1.531 . S
C456 C455 1.369 . S
C456 C457 1.410 . S
C456 C464 1.503 . S
C457 C456 1.410 . S
C457 C458 1.392 . S
C457 C460 1.511 . S
C458 C454 1.362 1_655 S
C458 C457 1.392 . S
C458 H470 0.929 . S
C459 C455 1.531 . S
C459 H471 0.960 . S
C459 H472 0.962 . S
C459 H473 0.960 . S
C460 C457 1.511 . S
C460 H474 0.961 . S
C460 H475 0.961 . S
C460 H476 0.961 . S
C461 C462 1.370 . S
C461 C463 1.363 . S
C461 H477 0.931 . S
C462 C461 1.370 . S
C462 C466 1.408 . S
C463 C461 1.363 . S
C463 C464 1.370 . S
C463 C467 1.524 . S
C464 C456 1.503 . S
C464 C463 1.370 . S
C464 C465 1.403 . S
C465 C464 1.403 . S
C465 C466 1.404 . S
C465 C468 1.539 . S
C466 C462 1.408 . S
C466 C465 1.404 . S
C466 H478 0.930 . S
C467 C463 1.524 . S
C467 H479 0.956 . S
C467 H480 0.961 . S
C467 H481 0.961 . S
C468 C465 1.539 . S
C468 H482 0.958 1_545 S
C468 H483 0.961 . S
C468 H484 0.960 . S
H469 C453 0.931 1_455 S
H470 C458 0.929 . S
H471 C459 0.960 . S
H472 C459 0.962 . S
H473 C459 0.960 . S
H474 C460 0.961 . S
H475 C460 0.961 . S
H476 C460 0.961 . S
H477 C461 0.931 . S
H478 C466 0.930 . S
H479 C467 0.956 . S
H480 C467 0.961 . S
H481 C467 0.961 . S
H482 C468 0.958 1_565 S
H483 C468 0.961 . S
H484 C468 0.960 . S
C485 C486 1.391 . S
C485 C487 1.394 . S
C485 H501 0.931 . S
C486 C485 1.391 . S
C486 C490 1.376 1_565 S
C487 C485 1.394 . S
C487 C488 1.369 . S
C487 C491 1.531 . S
C488 C487 1.369 . S
C488 C489 1.410 1_565 S
C488 C496 1.503 1_554 S
C489 C488 1.410 1_545 S
C489 C490 1.392 . S
C489 C492 1.511 1_554 S
C490 C486 1.376 1_545 S
C490 C489 1.392 . S
C490 H502 0.929 . S
C491 C487 1.531 . S
C491 H503 0.960 . S
C491 H504 0.962 . S
C491 H505 0.960 . S
C492 C489 1.511 1_556 S
C492 H506 0.961 . S
C492 H507 0.961 . S
C492 H508 0.959 1_556 S
C493 C494 1.370 . S
C493 C495 1.363 . S
C493 H509 0.931 . S
C494 C493 1.370 . S
C494 C498 1.408 . S
C495 C493 1.363 . S
C495 C496 1.370 . S
C495 C499 1.524 . S
C496 C488 1.503 1_556 S
C496 C495 1.370 . S
C496 C497 1.403 . S
C497 C496 1.403 . S
C497 C498 1.404 . S
C497 C500 1.539 1_556 S
C498 C494 1.408 . S
C498 C497 1.404 . S
C498 H510 0.930 . S
C499 C495 1.524 . S
C499 H511 0.956 . S
C499 H512 0.961 . S
C499 H513 0.961 . S
C500 C497 1.539 1_554 S
C500 H514 0.958 . S
C500 H515 0.961 . S
C500 H516 0.960 . S
H501 C485 0.931 . S
H502 C490 0.929 . S
H503 C491 0.960 . S
H504 C491 0.962 . S
H505 C491 0.960 . S
H506 C492 0.961 . S
H507 C492 0.961 . S
H508 C492 0.959 1_554 S
H509 C493 0.931 . S
H510 C498 0.930 . S
H511 C499 0.956 . S
H512 C499 0.961 . S
H513 C499 0.961 . S
H514 C500 0.958 . S
H515 C500 0.961 . S
H516 C500 0.960 . S
C517 C518 1.391 . S
C517 C519 1.394 . S
C517 H533 0.931 . S
C518 C517 1.391 . S
C518 C522 1.376 . S
C519 C517 1.394 . S
C519 C520 1.369 . S
C519 C523 1.531 . S
C520 C519 1.369 . S
C520 C521 1.410 . S
C520 C528 1.503 . S
C521 C520 1.410 . S
C521 C522 1.392 . S
C521 C524 1.511 . S
C522 C518 1.376 . S
C522 C521 1.392 . S
C522 H534 0.929 . S
C523 C519 1.531 . S
C523 H535 0.960 . S
C523 H536 0.962 . S
C523 H537 0.960 . S
C524 C521 1.511 . S
C524 H538 0.961 . S
C524 H539 0.961 . S
C524 H540 0.961 . S
C525 C526 1.370 . S
C525 C527 1.363 . S
C525 H541 0.931 . S
C526 C525 1.370 . S
C526 C530 1.408 1_455 S
C527 C525 1.363 . S
C527 C528 1.370 . S
C527 C531 1.524 . S
C528 C520 1.503 . S
C528 C527 1.370 . S
C528 C529 1.403 1_455 S
C529 C528 1.403 1_655 S
C529 C530 1.404 . S
C529 C532 1.539 . S
C530 C526 1.408 1_655 S
C530 C529 1.404 . S
C530 H542 0.930 . S
C531 C527 1.524 . S
C531 H543 0.956 . S
C531 H544 0.961 . S
C531 H545 0.961 . S
C532 C529 1.539 . S
C532 H546 0.958 . S
C532 H547 0.961 . S
C532 H548 0.960 . S
H533 C517 0.931 . S
H534 C522 0.929 . S
H535 C523 0.960 . S
H536 C523 0.962 . S
H537 C523 0.960 . S
H538 C524 0.961 . S
H539 C524 0.961 . S
H540 C524 0.961 . S
H541 C525 0.931 . S
H542 C530 0.930 . S
H543 C531 0.956 . S
H544 C531 0.961 . S
H545 C531 0.961 . S
H546 C532 0.958 . S
H547 C532 0.961 . S
H548 C532 0.960 . S
C549 C550 1.391 . S
C549 C551 1.394 . S
C549 H565 0.931 . S
C550 C549 1.391 . S
C550 C554 1.376 . S
C551 C549 1.394 . S
C551 C552 1.369 . S
C551 C555 1.531 . S
C552 C551 1.369 . S
C552 C553 1.410 . S
C552 C560 1.503 . S
C553 C552 1.410 . S
C553 C554 1.392 . S
C553 C556 1.511 . S
C554 C550 1.376 . S
C554 C553 1.392 . S
C554 H566 0.929 . S
C555 C551 1.531 . S
C555 H567 0.960 . S
C555 H568 0.962 . S
C555 H569 0.960 . S
C556 C553 1.511 . S
C556 H570 0.961 1_545 S
C556 H571 0.967 . S
C556 H572 0.961 . S
C557 C558 1.370 . S
C557 C559 1.363 . S
C557 H573 0.931 . S
C558 C557 1.370 . S
C558 C562 1.408 . S
C559 C557 1.363 . S
C559 C560 1.370 . S
C559 C563 1.524 1_545 S
C560 C552 1.503 . S
C560 C559 1.370 . S
C560 C561 1.403 . S
C561 C560 1.403 . S
C561 C562 1.404 . S
C561 C564 1.539 . S
C562 C558 1.408 . S
C562 C561 1.404 . S
C562 H574 0.930 . S
C563 C559 1.524 1_565 S
C563 H575 0.956 1_565 S
C563 H576 0.961 . S
C563 H577 0.961 . S
C564 C561 1.539 . S
C564 H578 0.958 . S
C564 H579 0.961 . S
C564 H580 0.960 . S
H565 C549 0.931 . S
H566 C554 0.929 . S
H567 C555 0.960 . S
H568 C555 0.962 . S
H569 C555 0.960 . S
H570 C556 0.961 1_565 S
H571 C556 0.967 . S
H572 C556 0.961 . S
H573 C557 0.931 . S
H574 C562 0.930 . S
H575 C563 0.956 1_545 S
H576 C563 0.961 . S
H577 C563 0.961 . S
H578 C564 0.958 . S
H579 C564 0.961 . S
H580 C564 0.960 . S
C581 C582 1.391 . S
C581 C583 1.394 . S
C581 H597 0.931 . S
C582 C581 1.391 . S
C582 C586 1.376 . S
C583 C581 1.394 . S
C583 C584 1.369 . S
C583 C587 1.531 . S
C584 C583 1.369 . S
C584 C585 1.410 . S
C584 C592 1.503 . S
C585 C584 1.410 . S
C585 C586 1.392 . S
C585 C588 1.511 . S
C586 C582 1.376 . S
C586 C585 1.392 . S
C586 H598 0.929 . S
C587 C583 1.531 . S
C587 H599 0.960 . S
C587 H600 0.962 . S
C587 H601 0.960 . S
C588 C585 1.511 . S
C588 H602 0.961 . S
C588 H603 0.961 . S
C588 H604 0.961 . S
C589 C590 1.370 1_554 S
C589 C591 1.363 . S
C589 H605 0.931 . S
C590 C589 1.370 1_556 S
C590 C594 1.408 . S
C591 C589 1.363 . S
C591 C592 1.370 . S
C591 C595 1.524 . S
C592 C584 1.503 . S
C592 C591 1.370 . S
C592 C593 1.403 1_554 S
C593 C592 1.403 1_556 S
C593 C594 1.404 . S
C593 C596 1.539 . S
C594 C590 1.408 . S
C594 C593 1.404 . S
C594 H606 0.930 . S
C595 C591 1.524 . S
C595 H607 0.956 . S
C595 H608 0.961 . S
C595 H609 0.961 . S
C596 C593 1.539 . S
C596 H610 0.958 . S
C596 H611 0.961 . S
C596 H612 0.960 . S
H597 C581 0.931 . S
H598 C586 0.929 . S
H599 C587 0.960 . S
H600 C587 0.962 . S
H601 C587 0.960 . S
H602 C588 0.961 . S
H603 C588 0.961 . S
H604 C588 0.961 . S
H605 C589 0.931 . S
H606 C594 0.930 . S
H607 C595 0.956 . S
H608 C595 0.961 . S
H609 C595 0.961 . S
H610 C596 0.958 . S
H611 C596 0.961 . S
H612 C596 0.960 . S
C613 C614 1.391 . S
C613 C615 1.394 . S
C613 H629 0.931 . S
C614 C613 1.391 . S
C614 C618 1.376 . S
C615 C613 1.394 . S
C615 C616 1.369 . S
C615 C619 1.531 . S
C616 C615 1.369 . S
C616 C617 1.410 . S
C616 C624 1.503 . S
C617 C616 1.410 . S
C617 C618 1.392 . S
C617 C620 1.511 1_455 S
C618 C614 1.376 . S
C618 C617 1.392 . S
C618 H630 0.929 . S
C619 C615 1.531 . S
C619 H631 0.960 . S
C619 H632 0.962 . S
C619 H633 0.960 . S
C620 C617 1.511 1_655 S
C620 H634 0.961 . S
C620 H635 0.961 . S
C620 H636 0.961 . S
C621 C622 1.370 . S
C621 C623 1.363 . S
C621 H637 0.931 . S
C622 C621 1.370 . S
C622 C626 1.408 . S
C623 C621 1.363 . S
C623 C624 1.370 . S
C623 C627 1.524 . S
C624 C616 1.503 . S
C624 C623 1.370 . S
C624 C625 1.403 . S
C625 C624 1.403 . S
C625 C626 1.404 . S
C625 C628 1.539 . S
C626 C622 1.408 . S
C626 C625 1.404 . S
C626 H638 0.930 . S
C627 C623 1.524 . S
C627 H639 0.956 . S
C627 H640 0.961 . S
C627 H641 0.961 . S
C628 C625 1.539 . S
C628 H642 0.958 . S
C628 H643 0.961 . S
C628 H644 0.960 . S
H629 C613 0.931 . S
H630 C618 0.929 . S
H631 C619 0.960 . S
H632 C619 0.962 . S
H633 C619 0.960 . S
H634 C620 0.961 . S
H635 C620 0.961 . S
H636 C620 0.961 . S
H637 C621 0.931 . S
H638 C626 0.930 . S
H639 C627 0.956 . S
H640 C627 0.961 . S
H641 C627 0.961 . S
H642 C628 0.958 . S
H643 C628 0.961 . S
H644 C628 0.960 . S
C270 C78 1.324 . S
C262 C10 1.424 . S
C294 C21 1.361 1_655 S
C302 C152 1.337 . S
C326 C31 1.993 1_665 S
C334 C256 2.070 . S
C358 C0 0.791 1_565 S
C366 C90 0.749 . S
C398 C164 0.724 . S
C390 C18 0.748 . S
C422 C34 1.517 . S
C430 C250 1.405 . S
C462 C182 2.069 . S
C454 C36 2.083 . S
C486 C8 1.394 1_665 S
C494 C226 1.358 . S
C526 C102 1.409 . S
C518 C23 1.508 . S
C558 C176 1.317 . S
C550 C26 1.382 . S
C590 C238 0.755 . S
C582 C5 0.761 . S
C614 C13 1.987 . S
C622 C108 2.080 . S
