# Generated by pormake.
# Topology nom, (4,4)-cn, num edge types: 1
# Building blocks:
#     Node 0, Type 0, BuildingBlock: NAWXER_clean_linker_0, # of connection points: 4
#     Node 1, Type 0, BuildingBlock: NAWXER_clean_linker_0, # of connection points: 4
#     Node 2, Type 0, BuildingBlock: NAWXER_clean_linker_0, # of connection points: 4
#     Node 3, Type 0, BuildingBlock: NAWXER_clean_linker_0, # of connection points: 4
#     Node 4, Type 0, BuildingBlock: NAWXER_clean_linker_0, # of connection points: 4
#     Node 5, Type 0, BuildingBlock: NAWXER_clean_linker_0, # of connection points: 4
#     Node 6, Type 1, BuildingBlock: QUQFOY_clean_sbu_3, # of connection points: 4
#     Node 7, Type 1, BuildingBlock: QUQFOY_clean_sbu_3, # of connection points: 4
#     Node 8, Type 1, BuildingBlock: QUQFOY_clean_sbu_3, # of connection points: 4
#     Node 9, Type 1, BuildingBlock: QUQFOY_clean_sbu_3, # of connection points: 4
#     Node 10, Type 1, BuildingBlock: QUQFOY_clean_sbu_3, # of connection points: 4
#     Node 11, Type 1, BuildingBlock: QUQFOY_clean_sbu_3, # of connection points: 4
#     Edge 12, Type (0, 1), BuildingBlock: UVAHIK_clean_linker_0, # of connection points: 2
#     Edge 13, Type (0, 1), BuildingBlock: UVAHIK_clean_linker_0, # of connection points: 2
#     Edge 14, Type (0, 1), BuildingBlock: UVAHIK_clean_linker_0, # of connection points: 2
#     Edge 15, Type (0, 1), BuildingBlock: UVAHIK_clean_linker_0, # of connection points: 2
#     Edge 16, Type (0, 1), BuildingBlock: UVAHIK_clean_linker_0, # of connection points: 2
#     Edge 17, Type (0, 1), BuildingBlock: UVAHIK_clean_linker_0, # of connection points: 2
#     Edge 18, Type (0, 1), BuildingBlock: UVAHIK_clean_linker_0, # of connection points: 2
#     Edge 19, Type (0, 1), BuildingBlock: UVAHIK_clean_linker_0, # of connection points: 2
#     Edge 20, Type (0, 1), BuildingBlock: UVAHIK_clean_linker_0, # of connection points: 2
#     Edge 21, Type (0, 1), BuildingBlock: UVAHIK_clean_linker_0, # of connection points: 2
#     Edge 22, Type (0, 1), BuildingBlock: UVAHIK_clean_linker_0, # of connection points: 2
#     Edge 23, Type (0, 1), BuildingBlock: UVAHIK_clean_linker_0, # of connection points: 2
#     Edge 24, Type (0, 1), BuildingBlock: UVAHIK_clean_linker_0, # of connection points: 2
#     Edge 25, Type (0, 1), BuildingBlock: UVAHIK_clean_linker_0, # of connection points: 2
#     Edge 26, Type (0, 1), BuildingBlock: UVAHIK_clean_linker_0, # of connection points: 2
#     Edge 27, Type (0, 1), BuildingBlock: UVAHIK_clean_linker_0, # of connection points: 2
#     Edge 28, Type (0, 1), BuildingBlock: UVAHIK_clean_linker_0, # of connection points: 2
#     Edge 29, Type (0, 1), BuildingBlock: UVAHIK_clean_linker_0, # of connection points: 2
#     Edge 30, Type (0, 1), BuildingBlock: UVAHIK_clean_linker_0, # of connection points: 2
#     Edge 31, Type (0, 1), BuildingBlock: UVAHIK_clean_linker_0, # of connection points: 2
#     Edge 32, Type (0, 1), BuildingBlock: UVAHIK_clean_linker_0, # of connection points: 2
#     Edge 33, Type (0, 1), BuildingBlock: UVAHIK_clean_linker_0, # of connection points: 2
#     Edge 34, Type (0, 1), BuildingBlock: UVAHIK_clean_linker_0, # of connection points: 2
#     Edge 35, Type (0, 1), BuildingBlock: UVAHIK_clean_linker_0, # of connection points: 2
# Relax obj value: 0.007
# Max RMSD: 0.109
# Mean RMSD: 0.075
data_MOF--net-nom--node1-QUQFOY_clean_sbu_3--node2-NAWXER_clean_linker_0--edge1-UVAHIK_clean_linker_0
_symmetry_space_group_name_H-M    P1
_symmetry_Int_Tables_number       1
_symmetry_cell_setting            triclinic
loop_
_symmetry_equiv_pos_as_xyz
'x, y, z'
_cell_length_a     65.640829
_cell_length_b     67.199362
_cell_length_c     73.025932
_cell_angle_alpha  89.823711
_cell_angle_beta   90.128227
_cell_angle_gamma 119.96026
loop_
_atom_site_label
_atom_site_type_symbol
_atom_site_fract_x
_atom_site_fract_y
_atom_site_fract_z
_atom_type_partial_charge
C0 C 0.91512 0.48711 0.31982 0.0
C1 C 0.90525 0.47112 0.33417 0.0
C2 C 0.93806 0.49467 0.31402 0.0
C3 C 0.95158 0.48628 0.32234 0.0
C4 C 0.91866 0.46245 0.34234 0.0
C5 C 0.94175 0.47016 0.33659 0.0
C6 C 0.97657 0.49596 0.31728 0.0
C7 C 0.93569 0.45511 0.26838 0.0
C8 C 0.93791 0.46846 0.25283 0.0
C9 C 0.95053 0.4649 0.28346 0.0
C10 C 0.96786 0.48824 0.2833 0.0
C11 C 0.95528 0.49186 0.25279 0.0
C12 C 0.97021 0.50157 0.2678 0.0
C13 C 0.98417 0.49867 0.29892 0.0
C14 C 0.08989 0.54599 0.30434 0.0
C15 C 0.09592 0.56498 0.29279 0.0
C16 C 0.06647 0.53141 0.30951 0.0
C17 C 0.04873 0.53556 0.30318 0.0
C18 C 0.0779 0.56877 0.28638 0.0
C19 C 0.05458 0.55408 0.29135 0.0
C20 C 0.02398 0.52104 0.30879 0.0
C21 C 0.06504 0.56071 0.35821 0.0
C22 C 0.06205 0.54722 0.37377 0.0
C23 C 0.05017 0.5513 0.34311 0.0
C24 C 0.03263 0.52798 0.34303 0.0
C25 C 0.04402 0.52416 0.37399 0.0
C26 C 0.02949 0.51462 0.35872 0.0
C27 C 0.01646 0.51763 0.32725 0.0
H28 H 0.90515 0.49398 0.3132 0.0
H29 H 0.94545 0.5076 0.30336 0.0
H30 H 0.91155 0.45028 0.35355 0.0
H31 H 0.95201 0.46373 0.34337 0.0
H32 H 0.92282 0.43696 0.26877 0.0
H33 H 0.94873 0.45414 0.29512 0.0
H34 H 0.95726 0.50277 0.2412 0.0
H35 H 0.98347 0.51961 0.26738 0.0
H36 H 0.10321 0.54231 0.30933 0.0
H37 H 0.06222 0.51698 0.31848 0.0
H38 H 0.08179 0.58344 0.27783 0.0
H39 H 0.04112 0.5576 0.28636 0.0
H40 H 0.07858 0.57865 0.3579 0.0
H41 H 0.05224 0.5624 0.33165 0.0
H42 H 0.04139 0.51347 0.38588 0.0
H43 H 0.01584 0.49672 0.35915 0.0
N44 N -0.007 0.50522 0.33075 0.0
N45 N 0.00755 0.51139 0.29537 0.0
C46 C 0.43877 0.9157 0.49238 0.0
C47 C 0.44663 0.90989 0.50834 0.0
C48 C 0.45093 0.93803 0.48541 0.0
C49 C 0.47165 0.95483 0.49393 0.0
C50 C 0.46709 0.92671 0.51704 0.0
C51 C 0.47952 0.94895 0.50986 0.0
C52 C 0.48393 0.979 0.48747 0.0
C53 C 0.48636 0.93909 0.43841 0.0
C54 C 0.47372 0.94011 0.42318 0.0
C55 C 0.49065 0.9535 0.45348 0.0
C56 C 0.4823 0.96909 0.4536 0.0
C57 C 0.46517 0.95558 0.42353 0.0
C58 C 0.4696 0.97004 0.43849 0.0
C59 C 0.48777 0.98546 0.46882 0.0
C60 C 0.54354 0.08929 0.47173 0.0
C61 C 0.53234 0.09407 0.4573 0.0
C62 C 0.5346 0.06681 0.47814 0.0
C63 C 0.51396 0.04875 0.47055 0.0
C64 C 0.51224 0.07575 0.44928 0.0
C65 C 0.50317 0.05339 0.45584 0.0
C66 C 0.50371 0.02482 0.47723 0.0
C67 C 0.50372 0.06673 0.52532 0.0
C68 C 0.51469 0.06458 0.54111 0.0
C69 C 0.49866 0.05166 0.51063 0.0
C70 C 0.50537 0.03478 0.51122 0.0
C71 C 0.52065 0.04725 0.54198 0.0
C72 C 0.51611 0.03255 0.52715 0.0
C73 C 0.50011 0.01842 0.49594 0.0
H74 H 0.42275 0.90313 0.48565 0.0
H75 H 0.4437 0.94224 0.47368 0.0
H76 H 0.47347 0.92262 0.52937 0.0
H77 H 0.49522 0.96165 0.51687 0.0
H78 H 0.49346 0.92761 0.4385 0.0
H79 H 0.50091 0.95281 0.46485 0.0
H80 H 0.45498 0.95654 0.41222 0.0
H81 H 0.463 0.98195 0.43829 0.0
H82 H 0.55901 0.10295 0.47828 0.0
H83 H 0.54372 0.06359 0.4891 0.0
H84 H 0.50349 0.07862 0.43784 0.0
H85 H 0.48748 0.03969 0.44952 0.0
H86 H 0.49865 0.07978 0.52451 0.0
H87 H 0.48938 0.05314 0.4989 0.0
H88 H 0.52913 0.04529 0.55405 0.0
H89 H 0.52112 0.01946 0.52809 0.0
N90 N 0.49047 -0.00421 0.50025 0.0
N91 N 0.4973 0.00804 0.46449 0.0
C92 C 0.53719 0.47285 0.60652 0.0
C93 C 0.52042 0.45775 0.59392 0.0
C94 C 0.53037 0.48153 0.62115 0.0
C95 C 0.5067 0.47543 0.62331 0.0
C96 C 0.49671 0.45142 0.59623 0.0
C97 C 0.48995 0.46043 0.61069 0.0
C98 C 0.49959 0.48553 0.63819 0.0
C99 C 0.51194 0.4333 0.66635 0.0
C100 C 0.53145 0.4424 0.67814 0.0
C101 C 0.50401 0.4474 0.659 0.0
C102 C 0.51544 0.4709 0.66327 0.0
C103 C 0.5431 0.46597 0.68225 0.0
C104 C 0.53496 0.48007 0.67504 0.0
C105 C 0.50571 0.48526 0.65666 0.0
C106 C 0.45197 0.52167 0.69748 0.0
C107 C 0.46919 0.53546 0.71034 0.0
C108 C 0.45782 0.51249 0.68258 0.0
C109 C 0.48117 0.51761 0.67995 0.0
C110 C 0.49242 0.54028 0.70787 0.0
C111 C 0.49835 0.53146 0.6928 0.0
C112 C 0.48766 0.50725 0.6648 0.0
C113 C 0.45578 0.54655 0.63903 0.0
C114 C 0.43611 0.53278 0.62797 0.0
C115 C 0.47075 0.53852 0.64481 0.0
C116 C 0.46603 0.5164 0.63992 0.0
C117 C 0.43218 0.51112 0.62243 0.0
C118 C 0.44693 0.50304 0.62836 0.0
C119 C 0.48075 0.50677 0.64634 0.0
H120 H 0.55557 0.47792 0.60503 0.0
H121 H 0.54364 0.49337 0.63057 0.0
H122 H 0.48351 0.43995 0.58659 0.0
H123 H 0.47162 0.45564 0.61207 0.0
H124 H 0.50272 0.41522 0.66288 0.0
H125 H 0.48855 0.4398 0.65032 0.0
H126 H 0.55808 0.47336 0.69142 0.0
H127 H 0.54382 0.49809 0.67869 0.0
H128 H 0.43385 0.51737 0.6993 0.0
H129 H 0.44402 0.50108 0.67333 0.0
H130 H 0.50599 0.55085 0.71762 0.0
H131 H 0.51639 0.53537 0.69122 0.0
H132 H 0.45936 0.56334 0.64352 0.0
H133 H 0.48583 0.54949 0.65323 0.0
H134 H 0.41766 0.50031 0.61348 0.0
H135 H 0.44313 0.48608 0.62412 0.0
N136 N 0.48712 0.496 0.63378 0.0
N137 N 0.49983 0.4964 0.66921 0.0
C138 C 0.91313 0.43227 0.80385 0.0
C139 C 0.90431 0.43924 0.78919 0.0
C140 C 0.93598 0.44652 0.81019 0.0
C141 C 0.95014 0.46843 0.80247 0.0
C142 C 0.91861 0.46077 0.78104 0.0
C143 C 0.94133 0.4753 0.78768 0.0
C144 C 0.97468 0.48344 0.80882 0.0
C145 C 0.92904 0.4724 0.85769 0.0
C146 C 0.9325 0.46087 0.87243 0.0
C147 C 0.94497 0.4808 0.84314 0.0
C148 C 0.96445 0.47744 0.84285 0.0
C149 C 0.95239 0.45813 0.87232 0.0
C150 C 0.96819 0.46636 0.8577 0.0
C151 C 0.98141 0.48602 0.82746 0.0
C152 C 0.0864 0.54894 0.82709 0.0
C153 C 0.09308 0.53523 0.83722 0.0
C154 C 0.06321 0.53985 0.82094 0.0
C155 C 0.04639 0.51695 0.82483 0.0
C156 C 0.07602 0.51232 0.84104 0.0
C157 C 0.05293 0.50339 0.83508 0.0
C158 C 0.02178 0.5067 0.81865 0.0
C159 C 0.06631 0.52008 0.76808 0.0
C160 C 0.06239 0.53241 0.7543 0.0
C161 C 0.05107 0.51127 0.78304 0.0
C162 C 0.03207 0.51526 0.78477 0.0
C163 C 0.04321 0.53608 0.75587 0.0
C164 C 0.02822 0.52761 0.77097 0.0
C165 C 0.0151 0.50541 0.8001 0.0
H166 H 0.90256 0.4155 0.81005 0.0
H167 H 0.94263 0.44019 0.82095 0.0
H168 H 0.91216 0.46638 0.76961 0.0
H169 H 0.95203 0.4919 0.78125 0.0
H170 H 0.91387 0.47473 0.85727 0.0
H171 H 0.94202 0.48988 0.83212 0.0
H172 H 0.95591 0.4498 0.88362 0.0
H173 H 0.98327 0.46386 0.85793 0.0
H174 H 0.09899 0.56672 0.82409 0.0
H175 H 0.05838 0.55069 0.81325 0.0
H176 H 0.08055 0.50105 0.84841 0.0
H177 H 0.04019 0.48565 0.83818 0.0
H178 H 0.08072 0.51664 0.76698 0.0
H179 H 0.05388 0.50092 0.793 0.0
H180 H 0.03982 0.54553 0.74541 0.0
H181 H 0.01353 0.53066 0.77186 0.0
N182 N -0.00822 0.49369 0.79593 0.0
N183 N 0.00469 0.49712 0.83158 0.0
C184 C 0.47894 0.91752 0.968 0.0
C185 C 0.46312 0.91001 0.95324 0.0
C186 C 0.4881 0.93977 0.97481 0.0
C187 C 0.48093 0.95465 0.96742 0.0
C188 C 0.45653 0.92507 0.94543 0.0
C189 C 0.4653 0.94718 0.9525 0.0
C190 C 0.49089 0.97851 0.97422 0.0
C191 C 0.45537 0.93291 0.02283 0.0
C192 C 0.47047 0.93606 0.03763 0.0
C193 C 0.46293 0.94861 0.00831 0.0
C194 C 0.48588 0.96754 0.00813 0.0
C195 C 0.49324 0.95535 0.03757 0.0
C196 C 0.50082 0.9709 0.023 0.0
C197 C 0.49432 0.9845 -0.00703 0.0
C198 C 0.53573 0.0879 -0.0081 0.0
C199 C 0.55305 0.09346 0.00546 0.0
C200 C 0.52265 0.06542 0.98528 0.0
C201 C 0.52706 0.04821 -0.00826 0.0
C202 C 0.55661 0.0759 0.01242 0.0
C203 C 0.54383 0.05361 0.00562 0.0
C204 C 0.514 0.0243 0.98485 0.0
C205 C 0.54935 0.06839 0.93502 0.0
C206 C 0.53404 0.06497 0.92037 0.0
C207 C 0.54168 0.05338 0.95001 0.0
C208 C 0.51832 0.03516 0.95087 0.0
C209 C 0.51084 0.04658 0.92111 0.0
C210 C 0.50306 0.03186 0.93622 0.0
C211 C 0.50996 0.01831 0.9661 0.0
H212 H 0.48462 0.90633 0.974 0.0
H213 H 0.50101 0.94537 0.98569 0.0
H214 H 0.44439 0.91962 0.934 0.0
H215 H 0.45983 0.95845 0.94634 0.0
H216 H 0.43776 0.91822 0.02237 0.0
H217 H 0.45081 0.94596 -0.00274 0.0
H218 H 0.50516 0.95864 0.04891 0.0
H219 H 0.51849 0.98555 0.02332 0.0
H220 H 0.5325 0.10095 0.98619 0.0
H221 H 0.50923 0.06157 0.97505 0.0
H222 H 0.56925 0.07929 0.02323 0.0
H223 H 0.54727 0.04057 0.01111 0.0
H224 H 0.56745 0.08224 0.9346 0.0
H225 H 0.55412 0.0558 0.96074 0.0
H226 H 0.4987 0.04361 0.90999 0.0
H227 H 0.48507 0.01776 0.93643 0.0
N228 N 0.49854 -0.00434 0.9616 0.0
N229 N 0.50596 0.00712 -0.00254 0.0
C230 C 0.48302 0.57009 0.1634 0.0
C231 C 0.46355 0.56125 0.17523 0.0
C232 C 0.49193 0.55626 0.1574 0.0
C233 C 0.48143 0.5332 0.16295 0.0
C234 C 0.45334 0.53826 0.18107 0.0
C235 C 0.4623 0.5244 0.17505 0.0
C236 C 0.49119 0.51869 0.15685 0.0
C237 C 0.4609 0.53339 0.10708 0.0
C238 C 0.47697 0.54505 0.09284 0.0
C239 C 0.46716 0.52424 0.12182 0.0
C240 C 0.48981 0.52704 0.12291 0.0
C241 C 0.49946 0.54737 0.09378 0.0
C242 C 0.50579 0.53845 0.10864 0.0
C243 C 0.49672 0.5173 0.13838 0.0
C244 C 0.54061 0.45638 0.14209 0.0
C245 C 0.56053 0.47002 0.13124 0.0
C246 C 0.52545 0.46445 0.14715 0.0
C247 C 0.53021 0.48644 0.14168 0.0
C248 C 0.56448 0.49151 0.12508 0.0
C249 C 0.54951 0.49959 0.13024 0.0
C250 C 0.5155 0.49626 0.14755 0.0
C251 C 0.54482 0.48274 0.19909 0.0
C252 C 0.52762 0.46905 0.21201 0.0
C253 C 0.53898 0.49193 0.18412 0.0
C254 C 0.51566 0.48692 0.18148 0.0
C255 C 0.50447 0.46454 0.20962 0.0
C256 C 0.49855 0.47337 0.19448 0.0
C257 C 0.50907 0.49679 0.16595 0.0
H258 H 0.49166 0.58787 0.159 0.0
H259 H 0.50722 0.56367 0.14856 0.0
H260 H 0.43825 0.53089 0.1901 0.0
H261 H 0.45413 0.50673 0.17967 0.0
H262 H 0.44349 0.53139 0.10692 0.0
H263 H 0.45417 0.51485 0.13229 0.0
H264 H 0.51213 0.55579 0.08291 0.0
H265 H 0.52326 0.54055 0.109 0.0
H266 H 0.53702 0.43972 0.14701 0.0
H267 H 0.51026 0.45368 0.15554 0.0
H268 H 0.57924 0.50219 0.11627 0.0
H269 H 0.55334 0.51644 0.12559 0.0
H270 H 0.56289 0.4868 0.20083 0.0
H271 H 0.55274 0.50312 0.17473 0.0
H272 H 0.49091 0.45404 0.21941 0.0
H273 H 0.48054 0.46956 0.1929 0.0
N274 N 0.49719 0.50802 0.16985 0.0
N275 N 0.50895 0.50644 0.13454 0.0
C276 C 0.67497 0.41504 0.39733 0.0
O277 O 0.6722 0.43123 0.40337 0.0
Cd278 Cd 0.63503 0.42517 0.4141 0.0
O279 O 0.65771 0.39456 0.39683 0.0
Cd280 Cd 0.61539 0.37337 0.4049 0.0
C281 C 0.60282 0.4039 0.37482 0.0
O282 O 0.61921 0.39244 0.43408 0.0
O283 O 0.58382 0.37207 0.42388 0.0
O284 O 0.62342 0.34309 0.41393 0.0
C285 C 0.59735 0.38366 0.43688 0.0
O286 O 0.61109 0.4197 0.38685 0.0
C287 C 0.60508 0.32677 0.40675 0.0
O288 O 0.60382 0.38561 0.37707 0.0
O289 O 0.5915 0.33212 0.39836 0.0
C290 C 0.26409 0.59082 0.56549 0.0
O291 O 0.24491 0.57469 0.55916 0.0
Cd292 Cd 0.21304 0.58026 0.54975 0.0
O293 O 0.26726 0.61105 0.56693 0.0
Cd294 Cd 0.24571 0.63181 0.56053 0.0
C295 C 0.20261 0.59905 0.59038 0.0
O296 O 0.22872 0.61417 0.53118 0.0
O297 O 0.21395 0.6332 0.54372 0.0
O298 O 0.28213 0.66271 0.54843 0.0
C299 C 0.21524 0.62255 0.52986 0.0
O300 O 0.19513 0.58387 0.57785 0.0
C301 C 0.28296 0.67842 0.55852 0.0
O302 O 0.22194 0.61786 0.58849 0.0
O303 O 0.26636 0.67251 0.56999 0.0
C304 C 0.6755 0.26402 0.72993 0.0
O305 O 0.67359 0.24652 0.72175 0.0
Cd306 Cd 0.63585 0.21436 0.7144 0.0
O307 O 0.65736 0.26564 0.73333 0.0
Cd308 Cd 0.61441 0.24427 0.72732 0.0
C309 C 0.60844 0.20294 0.75649 0.0
O310 O 0.61524 0.22917 0.69714 0.0
O311 O 0.58144 0.21318 0.71048 0.0
O312 O 0.61993 0.28158 0.71872 0.0
C313 C 0.5933 0.21539 0.69617 0.0
O314 O 0.61666 0.1964 0.74351 0.0
C315 C 0.60242 0.27971 0.72753 0.0
O316 O 0.60704 0.22109 0.75491 0.0
O317 O 0.59042 0.26129 0.73661 0.0
C318 C 0.3246 0.59096 0.89644 0.0
O319 O 0.32672 0.57484 0.90361 0.0
Cd320 Cd 0.36365 0.57939 0.91365 0.0
O321 O 0.3423 0.61111 0.895 0.0
Cd322 Cd 0.38447 0.63243 0.90345 0.0
C323 C 0.39619 0.60053 0.87415 0.0
O324 O 0.38082 0.61291 0.93229 0.0
O325 O 0.41642 0.63511 0.92317 0.0
O326 O 0.378 0.66262 0.91481 0.0
C327 C 0.40263 0.62195 0.93549 0.0
O328 O 0.38681 0.58459 0.88607 0.0
C329 C 0.39382 0.67868 0.90527 0.0
O330 O 0.3965 0.61949 0.87632 0.0
O331 O 0.40539 0.67328 0.89441 0.0
C332 C 0.73402 0.41338 0.07111 0.0
O333 O 0.75351 0.42992 0.06558 0.0
Cd334 Cd 0.78487 0.4253 0.05346 0.0
O335 O 0.73011 0.39281 0.0706 0.0
Cd336 Cd 0.75053 0.37186 0.06131 0.0
C337 C 0.79549 0.40128 0.09113 0.0
O338 O 0.76661 0.39339 0.03299 0.0
O339 O 0.77822 0.36949 0.04012 0.0
O340 O 0.71115 0.34189 0.05267 0.0
C341 C 0.77829 0.38375 0.02869 0.0
O342 O 0.80301 0.41792 0.07981 0.0
C343 C 0.71301 0.32541 0.05934 0.0
O344 O 0.7759 0.38297 0.08851 0.0
O345 O 0.73226 0.33056 0.06729 0.0
C346 C 0.32556 0.74509 0.24007 0.0
O347 O 0.32718 0.76347 0.23378 0.0
Cd348 Cd 0.36331 0.79504 0.22264 0.0
O349 O 0.34328 0.74213 0.24003 0.0
Cd350 Cd 0.38476 0.76212 0.22954 0.0
C351 C 0.39916 0.80494 0.26009 0.0
O352 O 0.37792 0.77796 0.20166 0.0
O353 O 0.41426 0.78976 0.20806 0.0
O354 O 0.3758 0.724 0.21989 0.0
C355 C 0.39931 0.78969 0.197 0.0
O356 O 0.38877 0.81201 0.24935 0.0
C357 C 0.39425 0.72515 0.22651 0.0
O358 O 0.39922 0.78637 0.25679 0.0
O359 O 0.40836 0.74355 0.23484 0.0
C360 C 0.12632 0.59186 0.27039 0.0
C361 C 0.12083 0.58123 0.28774 0.0
C362 C 0.14923 0.60889 0.26623 0.0
C363 C 0.21013 0.63095 0.27335 0.0
H364 H 0.21827 0.69169 0.26593 0.0
C365 C 0.30164 0.70984 0.25905 0.0
C366 C 0.3027 0.72662 0.24695 0.0
C367 C 0.27995 0.69211 0.26524 0.0
C368 C 0.21634 0.67482 0.26765 0.0
H369 H 0.13563 0.57968 0.314 0.0
H370 H 0.17598 0.60887 0.30625 0.0
H371 H 0.17961 0.65969 0.27372 0.0
H372 H 0.28194 0.73784 0.23162 0.0
H373 H 0.2442 0.70651 0.24165 0.0
H374 H 0.24645 0.64558 0.2664 0.0
C375 C 0.16224 0.60405 0.29611 0.0
C376 C 0.19422 0.65659 0.27228 0.0
C377 C 0.13917 0.58727 0.30045 0.0
C378 C 0.28168 0.7253 0.24111 0.0
C379 C 0.26001 0.70736 0.247 0.0
C380 C 0.23222 0.64912 0.26834 0.0
C381 C 0.16726 0.61529 0.27913 0.0
C382 C 0.19095 0.63454 0.27506 0.0
C383 C 0.25881 0.69052 0.25919 0.0
C384 C 0.23558 0.67129 0.26529 0.0
H385 H 0.11286 0.58726 0.26005 0.0
H386 H 0.15287 0.61725 0.25297 0.0
H387 H 0.20785 0.61398 0.27537 0.0
H388 H 0.31759 0.71051 0.26388 0.0
H389 H 0.27983 0.67977 0.27487 0.0
C390 C 0.5255 0.12532 0.44527 0.0
C391 C 0.5413 0.11801 0.45071 0.0
C392 C 0.53374 0.14766 0.43892 0.0
C393 C 0.58345 0.20582 0.44201 0.0
H394 H 0.55703 0.21679 0.39816 0.0
C395 C 0.61642 0.29761 0.41544 0.0
C396 C 0.59936 0.30266 0.4089 0.0
C397 C 0.61064 0.27492 0.41881 0.0
C398 C 0.56443 0.21406 0.41054 0.0
H399 H 0.57828 0.12864 0.45359 0.0
H400 H 0.59261 0.16794 0.44298 0.0
H401 H 0.54432 0.17747 0.40771 0.0
H402 H 0.56302 0.28791 0.40038 0.0
H403 H 0.55268 0.24837 0.40679 0.0
H404 H 0.6029 0.24225 0.44534 0.0
C405 C 0.57383 0.15621 0.44363 0.0
C406 C 0.5572 0.19154 0.41595 0.0
C407 C 0.56559 0.13374 0.44979 0.0
C408 C 0.57656 0.28453 0.40535 0.0
C409 C 0.57069 0.26183 0.40894 0.0
C410 C 0.59048 0.22834 0.43674 0.0
C411 C 0.55797 0.16334 0.43807 0.0
C412 C 0.56653 0.18721 0.4318 0.0
C413 C 0.58759 0.25675 0.41595 0.0
C414 C 0.58094 0.23277 0.42099 0.0
H415 H 0.50668 0.11389 0.44617 0.0
H416 H 0.52112 0.15283 0.43502 0.0
H417 H 0.59072 0.20296 0.45442 0.0
H418 H 0.63422 0.31123 0.41813 0.0
H419 H 0.62425 0.27165 0.42381 0.0
C420 C 0.39521 0.52477 0.62131 0.0
C421 C 0.41946 0.5406 0.62226 0.0
C422 C 0.37954 0.53152 0.61495 0.0
C423 C 0.37044 0.58031 0.60899 0.0
H424 H 0.32599 0.54234 0.57161 0.0
C425 C 0.30562 0.60416 0.57518 0.0
C426 C 0.28282 0.58605 0.57141 0.0
C427 C 0.32325 0.59962 0.58087 0.0
C428 C 0.33805 0.55298 0.58221 0.0
H429 H 0.4461 0.57622 0.61774 0.0
H430 H 0.41842 0.58814 0.60705 0.0
H431 H 0.35491 0.53274 0.58304 0.0
H432 H 0.26059 0.54899 0.57089 0.0
H433 H 0.29104 0.54107 0.58128 0.0
H434 H 0.35317 0.60017 0.60861 0.0
C435 C 0.41174 0.57044 0.61114 0.0
C436 C 0.35468 0.54753 0.58868 0.0
C437 C 0.42753 0.56361 0.61731 0.0
C438 C 0.27801 0.56333 0.57352 0.0
C439 C 0.29556 0.5588 0.57938 0.0
C440 C 0.35359 0.58564 0.60267 0.0
C441 C 0.38765 0.55434 0.60963 0.0
C442 C 0.37089 0.561 0.60224 0.0
C443 C 0.31843 0.57687 0.58308 0.0
C444 C 0.33703 0.5719 0.58931 0.0
H445 H 0.38826 0.50706 0.62548 0.0
H446 H 0.36099 0.51887 0.61426 0.0
H447 H 0.38267 0.59088 0.61954 0.0
H448 H 0.30993 0.62187 0.57359 0.0
H449 H 0.34072 0.61396 0.58333 0.0
C450 C 0.87732 0.41641 0.76374 0.0
C451 C 0.8805 0.42356 0.78208 0.0
C452 C 0.85506 0.40009 0.75739 0.0
C453 C 0.7926 0.37582 0.76431 0.0
H454 H 0.78587 0.31906 0.7452 0.0
C455 C 0.70128 0.29745 0.74989 0.0
C456 C 0.69895 0.28277 0.73541 0.0
C457 C 0.72346 0.3151 0.75519 0.0
C458 C 0.7874 0.33493 0.75013 0.0
H459 H 0.86311 0.42003 0.80803 0.0
H460 H 0.82386 0.39195 0.79672 0.0
H461 H 0.82452 0.34989 0.75444 0.0
H462 H 0.71791 0.2753 0.71484 0.0
H463 H 0.75647 0.30669 0.72343 0.0
H464 H 0.75579 0.36145 0.7595 0.0
C465 C 0.83864 0.39878 0.78738 0.0
C466 C 0.80956 0.35251 0.75552 0.0
C467 C 0.86099 0.41471 0.79383 0.0
C468 C 0.71921 0.28622 0.72618 0.0
C469 C 0.74135 0.30417 0.73122 0.0
C470 C 0.77049 0.35844 0.75855 0.0
C471 C 0.83559 0.39108 0.76919 0.0
C472 C 0.81229 0.37299 0.76278 0.0
C473 C 0.74383 0.31879 0.74588 0.0
C474 C 0.76752 0.33764 0.75153 0.0
H475 H 0.89219 0.42293 0.75449 0.0
H476 H 0.85304 0.39439 0.7433 0.0
H477 H 0.79438 0.39158 0.76978 0.0
H478 H 0.68597 0.29506 0.75735 0.0
H479 H 0.72458 0.32559 0.76679 0.0
C480 C 0.45617 0.88306 0.92731 0.0
C481 C 0.45376 0.88655 0.94596 0.0
C482 C 0.44828 0.86089 0.92066 0.0
C483 C 0.40676 0.80054 0.92927 0.0
H484 H 0.45187 0.7877 0.90578 0.0
C485 C 0.38968 0.70854 0.92233 0.0
C486 C 0.3989 0.70261 0.90733 0.0
C487 C 0.39513 0.73121 0.92497 0.0
C488 C 0.43885 0.79099 0.91193 0.0
H489 H 0.44079 0.86985 0.97217 0.0
H490 H 0.4264 0.83096 0.96043 0.0
H491 H 0.46331 0.82713 0.91392 0.0
H492 H 0.42056 0.71565 0.88303 0.0
H493 H 0.42948 0.75526 0.88726 0.0
H494 H 0.38214 0.76466 0.92714 0.0
C495 C 0.43457 0.84536 0.95103 0.0
C496 C 0.44549 0.81358 0.91666 0.0
C497 C 0.44288 0.86753 0.95775 0.0
C498 C 0.41331 0.71977 0.89478 0.0
C499 C 0.41852 0.74248 0.89728 0.0
C500 C 0.39998 0.77804 0.92426 0.0
C501 C 0.43741 0.84188 0.93248 0.0
C502 C 0.42966 0.81844 0.92574 0.0
C503 C 0.40965 0.74854 0.91252 0.0
C504 C 0.41611 0.77285 0.91595 0.0
H505 H 0.46463 0.89752 0.918 0.0
H506 H 0.45062 0.85857 0.9063 0.0
H507 H 0.39417 0.80395 0.93606 0.0
H508 H 0.37867 0.69574 0.93233 0.0
H509 H 0.38839 0.73519 0.93709 0.0
C510 C 0.60175 0.47824 0.12625 0.0
C511 C 0.5775 0.46232 0.12645 0.0
C512 C 0.61781 0.47167 0.12065 0.0
C513 C 0.62719 0.42286 0.11489 0.0
H514 H 0.67383 0.46253 0.07938 0.0
C515 C 0.69257 0.39991 0.08102 0.0
C516 C 0.7156 0.41801 0.07798 0.0
C517 C 0.67505 0.40439 0.08703 0.0
C518 C 0.66115 0.45142 0.08948 0.0
H519 H 0.55122 0.42674 0.12148 0.0
H520 H 0.57953 0.41514 0.11197 0.0
H521 H 0.64446 0.47178 0.09007 0.0
H522 H 0.73842 0.45497 0.07932 0.0
H523 H 0.70811 0.46273 0.09021 0.0
H524 H 0.64419 0.40274 0.1146 0.0
C525 C 0.58594 0.43276 0.1161 0.0
C526 C 0.64427 0.45668 0.09554 0.0
C527 C 0.56978 0.43939 0.12158 0.0
C528 C 0.72081 0.44064 0.08136 0.0
C529 C 0.70337 0.4451 0.0875 0.0
C530 C 0.64425 0.41768 0.10894 0.0
C531 C 0.61007 0.44896 0.11528 0.0
C532 C 0.62725 0.44259 0.10842 0.0
C533 C 0.68021 0.42706 0.09025 0.0
C534 C 0.66157 0.43203 0.09627 0.0
H535 H 0.60838 0.49589 0.13039 0.0
H536 H 0.63636 0.4844 0.12051 0.0
H537 H 0.61433 0.4118 0.12492 0.0
H538 H 0.68794 0.38227 0.07848 0.0
H539 H 0.65736 0.39011 0.0888 0.0
C540 C 0.42606 0.8672 0.50503 0.0
C541 C 0.43296 0.88653 0.51616 0.0
C542 C 0.41223 0.84512 0.51218 0.0
C543 C 0.36764 0.81346 0.54626 0.0
H544 H 0.38244 0.76521 0.53746 0.0
C545 C 0.30487 0.71954 0.56891 0.0
C546 C 0.30209 0.70248 0.55644 0.0
C547 C 0.3227 0.74236 0.56638 0.0
C548 C 0.3779 0.77841 0.53989 0.0
H549 H 0.43095 0.89809 0.54341 0.0
H550 H 0.40623 0.85931 0.55585 0.0
H551 H 0.41027 0.80454 0.52825 0.0
H552 H 0.3158 0.69593 0.53158 0.0
H553 H 0.34616 0.73551 0.52686 0.0
H554 H 0.33479 0.78732 0.55704 0.0
C555 C 0.41176 0.86132 0.54168 0.0
C556 C 0.39393 0.80094 0.5347 0.0
C557 C 0.42596 0.88341 0.53461 0.0
C558 C 0.31756 0.70863 0.54152 0.0
C559 C 0.33515 0.73138 0.5389 0.0
C560 C 0.35142 0.79086 0.55122 0.0
C561 C 0.40472 0.84199 0.53049 0.0
C562 C 0.38878 0.81859 0.53757 0.0
C563 C 0.33796 0.74859 0.55125 0.0
C564 C 0.35616 0.77296 0.54778 0.0
H565 H 0.43131 0.86919 0.49078 0.0
H566 H 0.40686 0.83049 0.50324 0.0
H567 H 0.3632 0.82678 0.54849 0.0
H568 H 0.29327 0.71528 0.58059 0.0
H569 H 0.32451 0.75509 0.5763 0.0
C570 C 0.56289 0.43293 0.68593 0.0
C571 C 0.53916 0.42707 0.68637 0.0
C572 C 0.56981 0.41774 0.69279 0.0
C573 C 0.54532 0.35602 0.70372 0.0
H574 H 0.60591 0.37751 0.72699 0.0
C575 C 0.57367 0.29344 0.73244 0.0
C576 C 0.59584 0.29776 0.72646 0.0
C577 C 0.56678 0.30988 0.72985 0.0
C578 C 0.58894 0.37129 0.7205 0.0
H579 H 0.50423 0.40134 0.69509 0.0
H580 H 0.51629 0.3751 0.70748 0.0
H581 H 0.59371 0.40513 0.71823 0.0
H582 H 0.62856 0.32301 0.71379 0.0
H583 H 0.61661 0.35172 0.70944 0.0
H584 H 0.54058 0.3222 0.70602 0.0
C585 C 0.52952 0.39104 0.70134 0.0
C586 C 0.58199 0.3871 0.71539 0.0
C587 C 0.5226 0.4061 0.6943 0.0
C588 C 0.61132 0.31915 0.71849 0.0
C589 C 0.60455 0.33565 0.7161 0.0
C590 C 0.55218 0.34023 0.70898 0.0
C591 C 0.55315 0.39648 0.70042 0.0
C592 C 0.56018 0.37968 0.70675 0.0
C593 C 0.58206 0.33103 0.72145 0.0
C594 C 0.57416 0.34772 0.71723 0.0
H595 H 0.57598 0.44894 0.67977 0.0
H596 H 0.5881 0.42239 0.69161 0.0
H597 H 0.52861 0.34967 0.69679 0.0
H598 H 0.56137 0.27712 0.73864 0.0
H599 H 0.54941 0.30596 0.73424 0.0
C600 C 0.12213 0.53727 0.86061 0.0
C601 C 0.11769 0.54439 0.84366 0.0
C602 C 0.14503 0.54382 0.86594 0.0
C603 C 0.20647 0.58604 0.86105 0.0
H604 H 0.21747 0.53559 0.87171 0.0
C605 C 0.2995 0.60098 0.87702 0.0
C606 C 0.30134 0.58638 0.88989 0.0
C607 C 0.27746 0.59652 0.87077 0.0
C608 C 0.21471 0.54994 0.8691 0.0
H609 H 0.13418 0.56497 0.81941 0.0
H610 H 0.17443 0.5771 0.82916 0.0
H611 H 0.17841 0.52756 0.86258 0.0
H612 H 0.28159 0.55597 0.90663 0.0
H613 H 0.24323 0.54872 0.89641 0.0
H614 H 0.24246 0.60851 0.86824 0.0
C615 C 0.15994 0.56616 0.83812 0.0
C616 C 0.19235 0.54528 0.86374 0.0
C617 C 0.13691 0.55929 0.83261 0.0
C618 C 0.28074 0.56739 0.89655 0.0
C619 C 0.25872 0.56316 0.89056 0.0
C620 C 0.22881 0.59075 0.86675 0.0
C621 C 0.16408 0.55801 0.85462 0.0
C622 C 0.18802 0.56327 0.85976 0.0
C623 C 0.25675 0.57756 0.87749 0.0
C624 C 0.23319 0.57273 0.87095 0.0
H625 H 0.10785 0.52635 0.86973 0.0
H626 H 0.14788 0.53763 0.87887 0.0
H627 H 0.20345 0.60017 0.85811 0.0
H628 H 0.3151 0.61569 0.87155 0.0
H629 H 0.27673 0.60779 0.86049 0.0
C630 C 0.59142 0.12602 0.01676 0.0
C631 C 0.5676 0.11742 0.01226 0.0
C632 C 0.60507 0.14822 0.02359 0.0
C633 C 0.61135 0.20493 0.02333 0.0
H634 H 0.64998 0.21518 0.06643 0.0
C635 C 0.67169 0.29624 0.05104 0.0
C636 C 0.69411 0.30132 0.05706 0.0
C637 C 0.65433 0.27357 0.04751 0.0
C638 C 0.6395 0.21268 0.05427 0.0
H639 H 0.53963 0.12575 0.01139 0.0
H640 H 0.56389 0.16496 0.02275 0.0
H641 H 0.62346 0.17606 0.05607 0.0
H642 H 0.71583 0.28664 0.06447 0.0
H643 H 0.68592 0.24724 0.05777 0.0
H644 H 0.62802 0.24143 0.02092 0.0
C645 C 0.57176 0.15424 0.02107 0.0
C646 C 0.62424 0.19026 0.04841 0.0
C647 C 0.55795 0.13185 0.01447 0.0
C648 C 0.69866 0.28324 0.05993 0.0
C649 C 0.68142 0.2606 0.05618 0.0
C650 C 0.62685 0.22738 0.02902 0.0
C651 C 0.59539 0.16254 0.02582 0.0
C652 C 0.61023 0.1862 0.03277 0.0
C653 C 0.6591 0.25549 0.0497 0.0
C654 C 0.64135 0.23157 0.04445 0.0
H655 H 0.59968 0.1157 0.01481 0.0
H656 H 0.62338 0.15437 0.02683 0.0
H657 H 0.60087 0.20224 0.01112 0.0
H658 H 0.6676 0.30983 0.04885 0.0
H659 H 0.63722 0.27027 0.04292 0.0
C660 C 0.44715 0.57543 0.1998 0.0
C661 C 0.45415 0.57611 0.18152 0.0
C662 C 0.43905 0.59001 0.20577 0.0
C663 C 0.41529 0.62635 0.18867 0.0
H664 H 0.43634 0.65683 0.23559 0.0
C665 C 0.38245 0.68546 0.21601 0.0
C666 C 0.39938 0.70628 0.22391 0.0
C667 C 0.38773 0.66816 0.21233 0.0
C668 C 0.43039 0.64853 0.22241 0.0
H669 H 0.45755 0.59226 0.15507 0.0
H670 H 0.44401 0.61801 0.16553 0.0
H671 H 0.44834 0.62951 0.22583 0.0
H672 H 0.43493 0.72507 0.23458 0.0
H673 H 0.44433 0.69502 0.22782 0.0
H674 H 0.39809 0.64593 0.1849 0.0
C675 C 0.44453 0.60606 0.17525 0.0
C676 C 0.43703 0.63266 0.21692 0.0
C677 C 0.45258 0.59149 0.16929 0.0
C678 C 0.4215 0.70919 0.22851 0.0
C679 C 0.42683 0.69191 0.22472 0.0
C680 C 0.40871 0.64223 0.19414 0.0
C681 C 0.43775 0.60558 0.19357 0.0
C682 C 0.42974 0.62155 0.19989 0.0
C683 C 0.41011 0.67131 0.21634 0.0
C684 C 0.41631 0.65365 0.21102 0.0
H685 H 0.44833 0.56392 0.20961 0.0
H686 H 0.43375 0.58905 0.21992 0.0
H687 H 0.40911 0.61788 0.17558 0.0
H688 H 0.36517 0.68261 0.21246 0.0
H689 H 0.37428 0.65234 0.2062 0.0
C690 C 0.86483 0.44121 0.34442 0.0
C691 C 0.88141 0.46434 0.34099 0.0
C692 C 0.84217 0.43501 0.35039 0.0
C693 C 0.8004 0.45696 0.352 0.0
H694 H 0.76877 0.40966 0.38885 0.0
C695 C 0.71679 0.4428 0.38893 0.0
C696 C 0.69839 0.42 0.39082 0.0
C697 C 0.73883 0.4475 0.38263 0.0
C698 C 0.77732 0.42275 0.37842 0.0
H699 H 0.88764 0.49919 0.34179 0.0
H700 H 0.84839 0.4885 0.35246 0.0
H701 H 0.80794 0.41915 0.37839 0.0
H702 H 0.68882 0.38425 0.38773 0.0
H703 H 0.72742 0.39253 0.37681 0.0
H704 H 0.76996 0.46082 0.35226 0.0
C705 C 0.85255 0.47502 0.35005 0.0
C706 C 0.79972 0.42816 0.3724 0.0
C707 C 0.87507 0.48117 0.34398 0.0
C708 C 0.7026 0.40201 0.38641 0.0
C709 C 0.72472 0.40672 0.38025 0.0
C710 C 0.77812 0.45167 0.3581 0.0
C711 C 0.83573 0.45185 0.35317 0.0
C712 C 0.8116 0.44546 0.3592 0.0
C713 C 0.74302 0.42952 0.37822 0.0
C714 C 0.76641 0.43463 0.37145 0.0
H715 H 0.86922 0.42788 0.34211 0.0
H716 H 0.82958 0.41699 0.35248 0.0
H717 H 0.8088 0.47002 0.34153 0.0
H718 H 0.71416 0.45706 0.39222 0.0
H719 H 0.75269 0.46524 0.38139 0.0
C720 C 0.06818 0.55615 0.40718 0.0
C721 C 0.07765 0.55718 0.38978 0.0
C722 C 0.08294 0.56535 0.42237 0.0
C723 C 0.14611 0.6032 0.4354 0.0
H724 H 0.12448 0.57226 0.48219 0.0
C725 C 0.2061 0.61226 0.49689 0.0
C726 C 0.19998 0.61791 0.51372 0.0
C727 C 0.19129 0.607 0.48172 0.0
C728 C 0.13062 0.58116 0.46922 0.0
H729 H 0.10974 0.56832 0.37446 0.0
H730 H 0.13555 0.58337 0.40102 0.0
H731 H 0.09838 0.55841 0.45575 0.0
H732 H 0.17369 0.62257 0.52792 0.0
H733 H 0.14734 0.61253 0.50143 0.0
H734 H 0.17887 0.62512 0.44892 0.0
C735 C 0.11685 0.5763 0.40301 0.0
C736 C 0.11565 0.57335 0.45405 0.0
C737 C 0.10209 0.56753 0.38777 0.0
C738 C 0.17885 0.61835 0.51508 0.0
C739 C 0.16378 0.61255 0.50001 0.0
C740 C 0.16122 0.61068 0.45049 0.0
C741 C 0.10749 0.57534 0.42055 0.0
C742 C 0.1232 0.58419 0.43688 0.0
C743 C 0.16989 0.60679 0.48323 0.0
C744 C 0.1536 0.59968 0.46749 0.0
H745 H 0.04935 0.54844 0.40898 0.0
H746 H 0.07504 0.5647 0.43552 0.0
H747 H 0.15244 0.61236 0.42257 0.0
H748 H 0.22232 0.61187 0.49545 0.0
H749 H 0.19626 0.60247 0.46892 0.0
C750 C 0.53392 0.10412 0.55432 0.0
C751 C 0.51994 0.08031 0.55675 0.0
C752 C 0.54008 0.11889 0.56933 0.0
C753 C 0.54307 0.11845 0.62035 0.0
H754 H 0.55414 0.18052 0.61499 0.0
C755 C 0.56132 0.1799 0.68141 0.0
C756 C 0.58269 0.20071 0.67995 0.0
C757 C 0.5521 0.16535 0.66629 0.0
C758 C 0.55107 0.16321 0.61663 0.0
H759 H 0.50061 0.05318 0.57641 0.0
H760 H 0.51026 0.07889 0.60252 0.0
H761 H 0.54011 0.15452 0.58881 0.0
H762 H 0.61074 0.223 0.66147 0.0
H763 H 0.59419 0.19779 0.63488 0.0
H764 H 0.55348 0.12716 0.64836 0.0
C765 C 0.51735 0.08628 0.58925 0.0
C766 C 0.54321 0.14833 0.60162 0.0
C767 C 0.51163 0.07151 0.57429 0.0
C768 C 0.59428 0.20702 0.66298 0.0
C769 C 0.58479 0.1927 0.64777 0.0
C770 C 0.55046 0.13319 0.63541 0.0
C771 C 0.53199 0.11017 0.58705 0.0
C772 C 0.53933 0.12579 0.60321 0.0
C773 C 0.56381 0.1716 0.64938 0.0
C774 C 0.55475 0.15574 0.63363 0.0
H775 H 0.54067 0.11123 0.54089 0.0
H776 H 0.55171 0.13708 0.56706 0.0
H777 H 0.54084 0.10148 0.62211 0.0
H778 H 0.55204 0.17458 0.69434 0.0
H779 H 0.53585 0.14916 0.6678 0.0
C780 C 0.46894 0.53986 0.74425 0.0
C781 C 0.46275 0.54389 0.72678 0.0
C782 C 0.46225 0.54706 0.75988 0.0
C783 C 0.44733 0.58853 0.77742 0.0
H784 H 0.41282 0.54279 0.81474 0.0
C785 C 0.40718 0.60788 0.84094 0.0
C786 C 0.40603 0.59641 0.85735 0.0
C787 C 0.4147 0.60243 0.82476 0.0
C788 C 0.42282 0.55593 0.80466 0.0
H789 H 0.44522 0.55895 0.71183 0.0
H790 H 0.43395 0.57211 0.73935 0.0
H791 H 0.42514 0.53174 0.78703 0.0
H792 H 0.41299 0.57117 0.86995 0.0
H793 H 0.42713 0.56246 0.8421 0.0
H794 H 0.44578 0.61296 0.79523 0.0
C795 C 0.44379 0.56321 0.74085 0.0
C796 C 0.4297 0.5495 0.78872 0.0
C797 C 0.4501 0.5556 0.72519 0.0
C798 C 0.41338 0.58007 0.85744 0.0
C799 C 0.42131 0.57494 0.8414 0.0
C800 C 0.4408 0.5951 0.79354 0.0
C801 C 0.44961 0.55876 0.75833 0.0
C802 C 0.44204 0.56573 0.77499 0.0
C803 C 0.4216 0.58567 0.82473 0.0
C804 C 0.42852 0.57888 0.80743 0.0
H805 H 0.47855 0.53073 0.74582 0.0
H806 H 0.46701 0.54353 0.77323 0.0
H807 H 0.45697 0.60136 0.76702 0.0
H808 H 0.40149 0.62048 0.84046 0.0
H809 H 0.41442 0.61089 0.8122 0.0
C810 C 0.90526 0.46438 0.89467 0.0
C811 C 0.91557 0.45186 0.88793 0.0
C812 C 0.88953 0.45599 0.90934 0.0
C813 C 0.87327 0.41783 0.94913 0.0
H814 H 0.81515 0.41962 0.94757 0.0
C815 C 0.80396 0.378 0.00655 0.0
C816 C 0.79278 0.39022 0.01191 0.0
C817 C 0.81812 0.38452 -0.00908 0.0
C818 C 0.83143 0.41924 0.94833 0.0
H819 H 0.91694 0.42043 0.89116 0.0
H820 H 0.88984 0.40607 0.91701 0.0
H821 H 0.84161 0.43319 0.9213 0.0
H822 H 0.7876 0.41883 0.00512 0.0
H823 H 0.81269 0.43054 0.97814 0.0
H824 H 0.86346 0.40439 0.97627 0.0
C825 C 0.89411 0.42245 0.91097 0.0
C826 C 0.84654 0.42696 0.93326 0.0
C827 C 0.90969 0.43073 0.89621 0.0
C828 C 0.79589 0.40899 0.00128 0.0
C829 C 0.81018 0.41562 0.98574 0.0
C830 C 0.85826 0.41028 0.96427 0.0
C831 C 0.8839 0.435 0.91769 0.0
C832 C 0.86763 0.42639 0.93353 0.0
C833 C 0.82153 0.40351 0.98039 0.0
C834 C 0.83719 0.41096 0.96408 0.0
H835 H 0.90967 0.48088 0.88884 0.0
H836 H 0.88214 0.46617 0.9144 0.0
H837 H 0.88956 0.41745 0.9498 0.0
H838 H 0.80177 0.36337 0.01442 0.0
H839 H 0.82628 0.37458 0.98704 0.0
C840 C 0.43944 0.90991 0.06002 0.0
C841 C 0.4625 0.91958 0.05323 0.0
C842 C 0.43224 0.89502 0.07505 0.0
C843 C 0.4483 0.85841 0.10283 0.0
H844 H 0.40812 0.86357 0.13909 0.0
C845 C 0.42993 0.81493 0.17419 0.0
C846 C 0.40643 0.80377 0.18013 0.0
C847 C 0.43659 0.82844 0.15833 0.0
C848 C 0.41918 0.8618 0.12899 0.0
H849 H 0.49584 0.92058 0.0567 0.0
H850 H 0.48357 0.89533 0.08326 0.0
H851 H 0.42 0.8882 0.11208 0.0
H852 H 0.37149 0.79796 0.1741 0.0
H853 H 0.38319 0.82168 0.14652 0.0
H854 H 0.44779 0.83228 0.12005 0.0
C855 C 0.47091 0.89897 0.07682 0.0
C856 C 0.42593 0.87585 0.11347 0.0
C857 C 0.47806 0.91374 0.06172 0.0
C858 C 0.38974 0.80635 0.16988 0.0
C859 C 0.39645 0.82002 0.15415 0.0
C860 C 0.4417 0.84449 0.11844 0.0
C861 C 0.44795 0.88951 0.08374 0.0
C862 C 0.44056 0.87432 0.10017 0.0
C863 C 0.41994 0.83124 0.14822 0.0
C864 C 0.42704 0.84602 0.13166 0.0
H865 H 0.42704 0.91418 0.05395 0.0
H866 H 0.41432 0.8878 0.07983 0.0
H867 H 0.45927 0.8565 0.09274 0.0
H868 H 0.44318 0.81324 0.18179 0.0
H869 H 0.45486 0.83705 0.15415 0.0
C870 C 0.54636 0.44817 0.22627 0.0
C871 C 0.53392 0.46001 0.22823 0.0
C872 C 0.55221 0.43961 0.24166 0.0
C873 C 0.53818 0.42689 0.29139 0.0
H874 H 0.59819 0.42876 0.29264 0.0
C875 C 0.58418 0.42288 0.35761 0.0
C876 C 0.59254 0.40728 0.35788 0.0
C877 C 0.57532 0.42687 0.34148 0.0
C878 C 0.58127 0.42792 0.29237 0.0
H879 H 0.51824 0.47263 0.24769 0.0
H880 H 0.5292 0.45861 0.27459 0.0
H881 H 0.58641 0.44095 0.26503 0.0
H882 H 0.5981 0.38355 0.34148 0.0
H883 H 0.58313 0.39107 0.31305 0.0
H884 H 0.53374 0.41491 0.31914 0.0
C885 C 0.53376 0.4551 0.26121 0.0
C886 C 0.57443 0.43481 0.27654 0.0
C887 C 0.52758 0.4633 0.24582 0.0
C888 C 0.5917 0.39561 0.34169 0.0
C889 C 0.58325 0.39996 0.32544 0.0
C890 C 0.54522 0.4204 0.30731 0.0
C891 C 0.54609 0.44306 0.25937 0.0
C892 C 0.55288 0.4346 0.27588 0.0
C893 C 0.57504 0.41566 0.32521 0.0
C894 C 0.56689 0.42103 0.30798 0.0
H895 H 0.55125 0.44525 0.21281 0.0
H896 H 0.56135 0.43012 0.23963 0.0
H897 H 0.52122 0.42592 0.29131 0.0
H898 H 0.58453 0.43207 0.36988 0.0
H899 H 0.56923 0.43917 0.3416 0.0
C900 C 0.47099 0.93449 0.38913 0.0
C901 C 0.46979 0.92554 0.40677 0.0
C902 C 0.46636 0.92074 0.37367 0.0
C903 C 0.43612 0.85994 0.35926 0.0
H904 H 0.46798 0.88661 0.31341 0.0
C905 C 0.41578 0.80808 0.29164 0.0
C906 C 0.41071 0.81828 0.27679 0.0
C907 C 0.42549 0.82045 0.30778 0.0
C908 C 0.45898 0.87894 0.32613 0.0
H909 H 0.46326 0.89508 0.4219 0.0
H910 H 0.45589 0.8712 0.39482 0.0
H911 H 0.48096 0.90942 0.34135 0.0
H912 H 0.41252 0.84965 0.26703 0.0
H913 H 0.42979 0.87128 0.29503 0.0
H914 H 0.41415 0.82944 0.34387 0.0
C915 C 0.45997 0.88881 0.393 0.0
C916 C 0.46631 0.89201 0.34213 0.0
C917 C 0.46446 0.90258 0.40852 0.0
C918 C 0.41613 0.84127 0.27823 0.0
C919 C 0.42616 0.85371 0.29422 0.0
C920 C 0.42897 0.84678 0.34326 0.0
C921 C 0.46066 0.89768 0.37538 0.0
C922 C 0.4546 0.88289 0.35882 0.0
C923 C 0.4307 0.84336 0.30921 0.0
C924 C 0.43999 0.85634 0.32648 0.0
H925 H 0.47545 0.95221 0.38722 0.0
H926 H 0.46674 0.92812 0.36039 0.0
H927 H 0.42651 0.8524 0.37179 0.0
H928 H 0.41175 0.79038 0.29096 0.0
H929 H 0.42891 0.81212 0.31913 0.0
C930 C 0.54615 0.46457 0.56676 0.0
C931 C 0.5278 0.44914 0.57812 0.0
C932 C 0.55308 0.4566 0.55172 0.0
C933 C 0.53349 0.40548 0.5217 0.0
H934 H 0.59931 0.43745 0.50803 0.0
C935 C 0.56593 0.38658 0.45394 0.0
C936 C 0.58841 0.38894 0.45361 0.0
C937 C 0.55811 0.39291 0.46948 0.0
C938 C 0.5809 0.42804 0.51176 0.0
H939 H 0.50239 0.41333 0.58292 0.0
H940 H 0.51503 0.39917 0.55707 0.0
H941 H 0.58682 0.44995 0.53465 0.0
H942 H 0.61998 0.39882 0.46946 0.0
H943 H 0.60604 0.40888 0.49682 0.0
H944 H 0.52779 0.38291 0.49927 0.0
C945 C 0.52369 0.41751 0.55937 0.0
C946 C 0.57364 0.43552 0.52691 0.0
C947 C 0.5165 0.42556 0.57425 0.0
C948 C 0.60265 0.39707 0.46927 0.0
C949 C 0.5947 0.403 0.48491 0.0
C950 C 0.54082 0.39778 0.50669 0.0
C951 C 0.54207 0.43294 0.54789 0.0
C952 C 0.54981 0.42448 0.532 0.0
C953 C 0.57247 0.40137 0.48514 0.0
C954 C 0.56462 0.40905 0.50144 0.0
H955 H 0.5549 0.48288 0.56934 0.0
H956 H 0.56689 0.46907 0.54299 0.0
H957 H 0.51495 0.39668 0.52503 0.0
H958 H 0.55462 0.38046 0.44201 0.0
H959 H 0.54105 0.39171 0.46899 0.0
C960 C 0.06762 0.53557 0.72034 0.0
C961 C 0.07766 0.54058 0.73791 0.0
C962 C 0.08189 0.54267 0.7048 0.0
C963 C 0.13924 0.58521 0.68746 0.0
H964 H 0.12809 0.5396 0.65046 0.0
C965 C 0.19942 0.60554 0.62384 0.0
C966 C 0.18878 0.59428 0.60742 0.0
C967 C 0.18646 0.59972 0.64013 0.0
C968 C 0.13124 0.55269 0.66047 0.0
H969 H 0.11039 0.55727 0.75309 0.0
H970 H 0.13549 0.57017 0.72575 0.0
H971 H 0.10427 0.52826 0.67812 0.0
H972 H 0.156 0.56888 0.59498 0.0
H973 H 0.13324 0.55943 0.62303 0.0
H974 H 0.16571 0.60985 0.66961 0.0
C975 C 0.11656 0.56059 0.72409 0.0
C976 C 0.11766 0.54611 0.67637 0.0
C977 C 0.10226 0.55312 0.73967 0.0
C978 C 0.16479 0.57765 0.60747 0.0
C979 C 0.15177 0.5721 0.62363 0.0
C980 C 0.15264 0.59191 0.67138 0.0
C981 C 0.10648 0.55523 0.70652 0.0
C982 C 0.12145 0.5623 0.68996 0.0
C983 C 0.16249 0.58274 0.64026 0.0
C984 C 0.14871 0.57574 0.65761 0.0
H985 H 0.0487 0.52579 0.71862 0.0
H986 H 0.07371 0.53844 0.6914 0.0
H987 H 0.14238 0.59804 0.69772 0.0
H988 H 0.21793 0.61837 0.62423 0.0
H989 H 0.1954 0.60812 0.65267 0.0
C990 C 0.55383 0.10401 0.90579 0.0
C991 C 0.54239 0.08001 0.90402 0.0
C992 C 0.56133 0.11807 0.89022 0.0
C993 C 0.57977 0.11997 0.84302 0.0
H994 H 0.56054 0.16528 0.83498 0.0
C995 C 0.59544 0.16636 0.77379 0.0
C996 C 0.60073 0.18935 0.77362 0.0
C997 C 0.58847 0.15354 0.78997 0.0
C998 C 0.56645 0.15301 0.83712 0.0
H999 H 0.53021 0.05185 0.88478 0.0
H1000 H 0.5438 0.07646 0.85759 0.0
H1001 H 0.5489 0.14243 0.86306 0.0
H1002 H 0.60299 0.217 0.79033 0.0
H1003 H 0.59171 0.19494 0.81873 0.0
H1004 H 0.59786 0.13076 0.81748 0.0
C1005 C 0.54673 0.08436 0.87097 0.0
C1006 C 0.55967 0.13988 0.85318 0.0
C1007 C 0.53885 0.07031 0.88648 0.0
C1008 C 0.59887 0.19926 0.79 0.0
C1009 C 0.59227 0.18653 0.80627 0.0
C1010 C 0.58689 0.13334 0.82712 0.0
C1011 C 0.55795 0.10834 0.87269 0.0
C1012 C 0.56605 0.12307 0.85616 0.0
C1013 C 0.587 0.16349 0.80649 0.0
C1014 C 0.58009 0.14986 0.82381 0.0
H1015 H 0.55666 0.11185 0.91919 0.0
H1016 H 0.57003 0.13654 0.89188 0.0
H1017 H 0.58516 0.10729 0.84512 0.0
H1018 H 0.59646 0.15816 0.76135 0.0
H1019 H 0.58402 0.13572 0.78943 0.0
C1020 C 0.44723 0.54247 0.0698 0.0
C1021 C 0.47017 0.55445 0.07697 0.0
C1022 C 0.4408 0.55129 0.05495 0.0
C1023 C 0.46441 0.58907 0.01521 0.0
H1024 H 0.40582 0.58991 0.01703 0.0
C1025 C 0.43531 0.62768 0.9566 0.0
C1026 C 0.41131 0.61589 0.95207 0.0
C1027 C 0.44333 0.62165 0.97227 0.0
C1028 C 0.4221 0.58956 0.01618 0.0
H1029 H 0.50427 0.58532 0.07414 0.0
H1030 H 0.49311 0.60036 0.04787 0.0
H1031 H 0.41814 0.57626 0.04344 0.0
H1032 H 0.37691 0.58843 0.96029 0.0
H1033 H 0.39084 0.5775 0.98721 0.0
H1034 H 0.46811 0.60171 0.98778 0.0
C1035 C 0.48018 0.58411 0.05381 0.0
C1036 C 0.42917 0.58181 0.03135 0.0
C1037 C 0.48656 0.57542 0.06881 0.0
C1038 C 0.39549 0.59796 0.96348 0.0
C1039 C 0.4035 0.59181 0.97901 0.0
C1040 C 0.45722 0.5966 -6e-05 0.0
C1041 C 0.45721 0.57217 0.0468 0.0
C1042 C 0.45029 0.58131 0.03096 0.0
C1043 C 0.4275 0.60359 0.98365 0.0
C1044 C 0.43585 0.59674 0.00018 0.0
H1045 H 0.43427 0.52605 0.07545 0.0
H1046 H 0.42305 0.54157 0.04964 0.0
H1047 H 0.48069 0.58868 0.01451 0.0
H1048 H 0.44792 0.64167 0.94808 0.0
H1049 H 0.46189 0.63129 0.97554 0.0
C1050 C 0.93152 0.46472 0.2188 0.0
C1051 C 0.92246 0.45804 0.23659 0.0
C1052 C 0.91702 0.45539 0.20352 0.0
C1053 C 0.85446 0.42579 0.18953 0.0
H1054 H 0.87969 0.41633 0.14452 0.0
C1055 C 0.79908 0.38999 0.12327 0.0
C1056 C 0.80951 0.40377 0.10774 0.0
C1057 C 0.81213 0.39363 0.13935 0.0
C1058 C 0.87242 0.41887 0.15701 0.0
H1059 H 0.89092 0.43609 0.25218 0.0
H1060 H 0.86578 0.41922 0.22549 0.0
H1061 H 0.90373 0.42789 0.17219 0.0
H1062 H 0.84197 0.4316 0.09667 0.0
H1063 H 0.86474 0.43764 0.12457 0.0
H1064 H 0.82312 0.41669 0.17421 0.0
C1065 C 0.88406 0.43201 0.22337 0.0
C1066 C 0.88621 0.42562 0.17285 0.0
C1067 C 0.89856 0.44149 0.23869 0.0
C1068 C 0.83339 0.42075 0.10842 0.0
C1069 C 0.84649 0.42412 0.12435 0.0
C1070 C 0.84058 0.41878 0.17373 0.0
C1071 C 0.89309 0.43895 0.20558 0.0
C1072 C 0.8776 0.42967 0.18921 0.0
C1073 C 0.83592 0.41082 0.14004 0.0
C1074 C 0.84961 0.41572 0.15723 0.0
H1075 H 0.94991 0.47714 0.21662 0.0
H1076 H 0.92456 0.46144 0.19008 0.0
H1077 H 0.84733 0.429 0.2018 0.0
H1078 H 0.78069 0.37682 0.12318 0.0
H1079 H 0.80362 0.38308 0.15125 0.0
loop_
_geom_bond_atom_site_label_1
_geom_bond_atom_site_label_2
_geom_bond_distance
_geom_bond_site_symmetry_2
_ccdc_geom_bond_type
C0 C1 1.384 . S
C0 C2 1.384 . S
C0 H28 0.931 . S
C1 C0 1.384 . S
C1 C4 1.382 . S
C2 C0 1.384 . S
C2 C3 1.381 . S
C2 H29 0.930 . S
C3 C2 1.381 . S
C3 C5 1.381 . S
C3 C6 1.487 . S
C4 C1 1.382 . S
C4 C5 1.387 . S
C4 H30 0.930 . S
C5 C3 1.381 . S
C5 C4 1.387 . S
C5 H31 0.931 . S
C6 C3 1.487 . S
C6 C13 1.399 . S
C6 N44 1.343 1_655 S
C7 C8 1.384 . S
C7 C9 1.384 . S
C7 H32 0.931 . S
C8 C7 1.384 . S
C8 C11 1.382 . S
C9 C7 1.384 . S
C9 C10 1.381 . S
C9 H33 0.930 . S
C10 C9 1.381 . S
C10 C12 1.381 . S
C10 C13 1.487 . S
C11 C8 1.382 . S
C11 C12 1.387 . S
C11 H34 0.930 . S
C12 C10 1.381 . S
C12 C11 1.387 . S
C12 H35 0.931 . S
C13 C6 1.399 . S
C13 C10 1.487 . S
C13 N45 1.343 1_655 S
C14 C15 1.384 . S
C14 C16 1.384 . S
C14 H36 0.931 . S
C15 C14 1.384 . S
C15 C18 1.382 . S
C16 C14 1.384 . S
C16 C17 1.381 . S
C16 H37 0.930 . S
C17 C16 1.381 . S
C17 C19 1.381 . S
C17 C20 1.487 . S
C18 C15 1.382 . S
C18 C19 1.387 . S
C18 H38 0.930 . S
C19 C17 1.381 . S
C19 C18 1.387 . S
C19 H39 0.931 . S
C20 C17 1.487 . S
C20 C27 1.399 . S
C20 N45 1.343 . S
C21 C22 1.384 . S
C21 C23 1.384 . S
C21 H40 0.931 . S
C22 C21 1.384 . S
C22 C25 1.382 . S
C23 C21 1.384 . S
C23 C24 1.381 . S
C23 H41 0.930 . S
C24 C23 1.381 . S
C24 C26 1.381 . S
C24 C27 1.487 . S
C25 C22 1.382 . S
C25 C26 1.387 . S
C25 H42 0.930 . S
C26 C24 1.381 . S
C26 C25 1.387 . S
C26 H43 0.931 . S
C27 C20 1.399 . S
C27 C24 1.487 . S
C27 N44 1.343 . S
H28 C0 0.931 . S
H29 C2 0.930 . S
H30 C4 0.930 . S
H31 C5 0.931 . S
H32 C7 0.931 . S
H33 C9 0.930 . S
H34 C11 0.930 . S
H35 C12 0.931 . S
H36 C14 0.931 . S
H37 C16 0.930 . S
H38 C18 0.930 . S
H39 C19 0.931 . S
H40 C21 0.931 . S
H41 C23 0.930 . S
H42 C25 0.930 . S
H43 C26 0.931 . S
N44 C6 1.343 1_455 S
N44 C27 1.343 . S
N45 C13 1.343 1_455 S
N45 C20 1.343 . S
C46 C47 1.384 . S
C46 C48 1.384 . S
C46 H74 0.931 . S
C47 C46 1.384 . S
C47 C50 1.382 . S
C48 C46 1.384 . S
C48 C49 1.381 . S
C48 H75 0.930 . S
C49 C48 1.381 . S
C49 C51 1.381 . S
C49 C52 1.487 . S
C50 C47 1.382 . S
C50 C51 1.387 . S
C50 H76 0.930 . S
C51 C49 1.381 . S
C51 C50 1.387 . S
C51 H77 0.931 . S
C52 C49 1.487 . S
C52 C59 1.399 . S
C52 N90 1.343 1_565 S
C53 C54 1.384 . S
C53 C55 1.384 . S
C53 H78 0.931 . S
C54 C53 1.384 . S
C54 C57 1.382 . S
C55 C53 1.384 . S
C55 C56 1.381 . S
C55 H79 0.930 . S
C56 C55 1.381 . S
C56 C58 1.381 . S
C56 C59 1.487 . S
C57 C54 1.382 . S
C57 C58 1.387 . S
C57 H80 0.930 . S
C58 C56 1.381 . S
C58 C57 1.387 . S
C58 H81 0.931 . S
C59 C52 1.399 . S
C59 C56 1.487 . S
C59 N91 1.343 1_565 S
C60 C61 1.384 . S
C60 C62 1.384 . S
C60 H82 0.931 . S
C61 C60 1.384 . S
C61 C64 1.382 . S
C62 C60 1.384 . S
C62 C63 1.381 . S
C62 H83 0.930 . S
C63 C62 1.381 . S
C63 C65 1.381 . S
C63 C66 1.487 . S
C64 C61 1.382 . S
C64 C65 1.387 . S
C64 H84 0.930 . S
C65 C63 1.381 . S
C65 C64 1.387 . S
C65 H85 0.931 . S
C66 C63 1.487 . S
C66 C73 1.399 . S
C66 N91 1.343 . S
C67 C68 1.384 . S
C67 C69 1.384 . S
C67 H86 0.931 . S
C68 C67 1.384 . S
C68 C71 1.382 . S
C69 C67 1.384 . S
C69 C70 1.381 . S
C69 H87 0.930 . S
C70 C69 1.381 . S
C70 C72 1.381 . S
C70 C73 1.487 . S
C71 C68 1.382 . S
C71 C72 1.387 . S
C71 H88 0.930 . S
C72 C70 1.381 . S
C72 C71 1.387 . S
C72 H89 0.931 . S
C73 C66 1.399 . S
C73 C70 1.487 . S
C73 N90 1.343 . S
H74 C46 0.931 . S
H75 C48 0.930 . S
H76 C50 0.930 . S
H77 C51 0.931 . S
H78 C53 0.931 . S
H79 C55 0.930 . S
H80 C57 0.930 . S
H81 C58 0.931 . S
H82 C60 0.931 . S
H83 C62 0.930 . S
H84 C64 0.930 . S
H85 C65 0.931 . S
H86 C67 0.931 . S
H87 C69 0.930 . S
H88 C71 0.930 . S
H89 C72 0.931 . S
N90 C52 1.343 1_545 S
N90 C73 1.343 . S
N91 C59 1.343 1_545 S
N91 C66 1.343 . S
C92 C93 1.384 . S
C92 C94 1.384 . S
C92 H120 0.931 . S
C93 C92 1.384 . S
C93 C96 1.382 . S
C94 C92 1.384 . S
C94 C95 1.381 . S
C94 H121 0.930 . S
C95 C94 1.381 . S
C95 C97 1.381 . S
C95 C98 1.487 . S
C96 C93 1.382 . S
C96 C97 1.387 . S
C96 H122 0.930 . S
C97 C95 1.381 . S
C97 C96 1.387 . S
C97 H123 0.931 . S
C98 C95 1.487 . S
C98 C105 1.399 . S
C98 N136 1.343 . S
C99 C100 1.384 . S
C99 C101 1.384 . S
C99 H124 0.931 . S
C100 C99 1.384 . S
C100 C103 1.382 . S
C101 C99 1.384 . S
C101 C102 1.381 . S
C101 H125 0.930 . S
C102 C101 1.381 . S
C102 C104 1.381 . S
C102 C105 1.487 . S
C103 C100 1.382 . S
C103 C104 1.387 . S
C103 H126 0.930 . S
C104 C102 1.381 . S
C104 C103 1.387 . S
C104 H127 0.931 . S
C105 C98 1.399 . S
C105 C102 1.487 . S
C105 N137 1.343 . S
C106 C107 1.384 . S
C106 C108 1.384 . S
C106 H128 0.931 . S
C107 C106 1.384 . S
C107 C110 1.382 . S
C108 C106 1.384 . S
C108 C109 1.381 . S
C108 H129 0.930 . S
C109 C108 1.381 . S
C109 C111 1.381 . S
C109 C112 1.487 . S
C110 C107 1.382 . S
C110 C111 1.387 . S
C110 H130 0.930 . S
C111 C109 1.381 . S
C111 C110 1.387 . S
C111 H131 0.931 . S
C112 C109 1.487 . S
C112 C119 1.399 . S
C112 N137 1.343 . S
C113 C114 1.384 . S
C113 C115 1.384 . S
C113 H132 0.931 . S
C114 C113 1.384 . S
C114 C117 1.382 . S
C115 C113 1.384 . S
C115 C116 1.381 . S
C115 H133 0.930 . S
C116 C115 1.381 . S
C116 C118 1.381 . S
C116 C119 1.487 . S
C117 C114 1.382 . S
C117 C118 1.387 . S
C117 H134 0.930 . S
C118 C116 1.381 . S
C118 C117 1.387 . S
C118 H135 0.931 . S
C119 C112 1.399 . S
C119 C116 1.487 . S
C119 N136 1.343 . S
H120 C92 0.931 . S
H121 C94 0.930 . S
H122 C96 0.930 . S
H123 C97 0.931 . S
H124 C99 0.931 . S
H125 C101 0.930 . S
H126 C103 0.930 . S
H127 C104 0.931 . S
H128 C106 0.931 . S
H129 C108 0.930 . S
H130 C110 0.930 . S
H131 C111 0.931 . S
H132 C113 0.931 . S
H133 C115 0.930 . S
H134 C117 0.930 . S
H135 C118 0.931 . S
N136 C98 1.343 . S
N136 C119 1.343 . S
N137 C105 1.343 . S
N137 C112 1.343 . S
C138 C139 1.384 . S
C138 C140 1.384 . S
C138 H166 0.931 . S
C139 C138 1.384 . S
C139 C142 1.382 . S
C140 C138 1.384 . S
C140 C141 1.381 . S
C140 H167 0.930 . S
C141 C140 1.381 . S
C141 C143 1.381 . S
C141 C144 1.487 . S
C142 C139 1.382 . S
C142 C143 1.387 . S
C142 H168 0.930 . S
C143 C141 1.381 . S
C143 C142 1.387 . S
C143 H169 0.931 . S
C144 C141 1.487 . S
C144 C151 1.399 . S
C144 N182 1.343 1_655 S
C145 C146 1.384 . S
C145 C147 1.384 . S
C145 H170 0.931 . S
C146 C145 1.384 . S
C146 C149 1.382 . S
C147 C145 1.384 . S
C147 C148 1.381 . S
C147 H171 0.930 . S
C148 C147 1.381 . S
C148 C150 1.381 . S
C148 C151 1.487 . S
C149 C146 1.382 . S
C149 C150 1.387 . S
C149 H172 0.930 . S
C150 C148 1.381 . S
C150 C149 1.387 . S
C150 H173 0.931 . S
C151 C144 1.399 . S
C151 C148 1.487 . S
C151 N183 1.343 1_655 S
C152 C153 1.384 . S
C152 C154 1.384 . S
C152 H174 0.931 . S
C153 C152 1.384 . S
C153 C156 1.382 . S
C154 C152 1.384 . S
C154 C155 1.381 . S
C154 H175 0.930 . S
C155 C154 1.381 . S
C155 C157 1.381 . S
C155 C158 1.487 . S
C156 C153 1.382 . S
C156 C157 1.387 . S
C156 H176 0.930 . S
C157 C155 1.381 . S
C157 C156 1.387 . S
C157 H177 0.931 . S
C158 C155 1.487 . S
C158 C165 1.399 . S
C158 N183 1.343 . S
C159 C160 1.384 . S
C159 C161 1.384 . S
C159 H178 0.931 . S
C160 C159 1.384 . S
C160 C163 1.382 . S
C161 C159 1.384 . S
C161 C162 1.381 . S
C161 H179 0.930 . S
C162 C161 1.381 . S
C162 C164 1.381 . S
C162 C165 1.487 . S
C163 C160 1.382 . S
C163 C164 1.387 . S
C163 H180 0.930 . S
C164 C162 1.381 . S
C164 C163 1.387 . S
C164 H181 0.931 . S
C165 C158 1.399 . S
C165 C162 1.487 . S
C165 N182 1.343 . S
H166 C138 0.931 . S
H167 C140 0.930 . S
H168 C142 0.930 . S
H169 C143 0.931 . S
H170 C145 0.931 . S
H171 C147 0.930 . S
H172 C149 0.930 . S
H173 C150 0.931 . S
H174 C152 0.931 . S
H175 C154 0.930 . S
H176 C156 0.930 . S
H177 C157 0.931 . S
H178 C159 0.931 . S
H179 C161 0.930 . S
H180 C163 0.930 . S
H181 C164 0.931 . S
N182 C144 1.343 1_455 S
N182 C165 1.343 . S
N183 C151 1.343 1_455 S
N183 C158 1.343 . S
C184 C185 1.384 . S
C184 C186 1.384 . S
C184 H212 0.931 . S
C185 C184 1.384 . S
C185 C188 1.382 . S
C186 C184 1.384 . S
C186 C187 1.381 . S
C186 H213 0.930 . S
C187 C186 1.381 . S
C187 C189 1.381 . S
C187 C190 1.487 . S
C188 C185 1.382 . S
C188 C189 1.387 . S
C188 H214 0.930 . S
C189 C187 1.381 . S
C189 C188 1.387 . S
C189 H215 0.931 . S
C190 C187 1.487 . S
C190 C197 1.399 1_556 S
C190 N228 1.316 1_565 S
C191 C192 1.384 . S
C191 C193 1.384 . S
C191 H216 0.931 . S
C192 C191 1.384 . S
C192 C195 1.382 . S
C193 C191 1.384 . S
C193 C194 1.381 . S
C193 H217 0.930 . S
C194 C193 1.381 . S
C194 C196 1.381 . S
C194 C197 1.487 . S
C195 C192 1.382 . S
C195 C196 1.387 . S
C195 H218 0.930 . S
C196 C194 1.381 . S
C196 C195 1.387 . S
C196 H219 0.931 . S
C197 C190 1.399 1_554 S
C197 C194 1.487 . S
C197 N229 1.343 1_565 S
C198 C199 1.384 . S
C198 C200 1.384 1_554 S
C198 H220 0.931 1_554 S
C199 C198 1.384 . S
C199 C202 1.382 . S
C200 C198 1.384 1_556 S
C200 C201 1.381 1_556 S
C200 H221 0.930 . S
C201 C200 1.381 1_554 S
C201 C203 1.381 . S
C201 C204 1.487 1_554 S
C202 C199 1.382 . S
C202 C203 1.387 . S
C202 H222 0.930 . S
C203 C201 1.381 . S
C203 C202 1.387 . S
C203 H223 0.931 . S
C204 C201 1.487 1_556 S
C204 C211 1.399 . S
C204 N229 1.343 1_556 S
C205 C206 1.384 . S
C205 C207 1.384 . S
C205 H224 0.931 . S
C206 C205 1.384 . S
C206 C209 1.382 . S
C207 C205 1.384 . S
C207 C208 1.381 . S
C207 H225 0.930 . S
C208 C207 1.381 . S
C208 C210 1.381 . S
C208 C211 1.487 . S
C209 C206 1.382 . S
C209 C210 1.387 . S
C209 H226 0.930 . S
C210 C208 1.381 . S
C210 C209 1.387 . S
C210 H227 0.931 . S
C211 C204 1.399 . S
C211 C208 1.487 . S
C211 N228 1.380 . S
H212 C184 0.931 . S
H213 C186 0.930 . S
H214 C188 0.930 . S
H215 C189 0.931 . S
H216 C191 0.931 . S
H217 C193 0.930 . S
H218 C195 0.930 . S
H219 C196 0.931 . S
H220 C198 0.931 1_556 S
H221 C200 0.930 . S
H222 C202 0.930 . S
H223 C203 0.931 . S
H224 C205 0.931 . S
H225 C207 0.930 . S
H226 C209 0.930 . S
H227 C210 0.931 . S
N228 C190 1.316 1_545 S
N228 C211 1.380 . S
N229 C197 1.343 1_545 S
N229 C204 1.343 1_554 S
C230 C231 1.384 . S
C230 C232 1.384 . S
C230 H258 0.931 . S
C231 C230 1.384 . S
C231 C234 1.382 . S
C232 C230 1.384 . S
C232 C233 1.381 . S
C232 H259 0.930 . S
C233 C232 1.381 . S
C233 C235 1.381 . S
C233 C236 1.487 . S
C234 C231 1.382 . S
C234 C235 1.387 . S
C234 H260 0.930 . S
C235 C233 1.381 . S
C235 C234 1.387 . S
C235 H261 0.931 . S
C236 C233 1.487 . S
C236 C243 1.399 . S
C236 N274 1.343 . S
C237 C238 1.384 . S
C237 C239 1.384 . S
C237 H262 0.931 . S
C238 C237 1.384 . S
C238 C241 1.382 . S
C239 C237 1.384 . S
C239 C240 1.381 . S
C239 H263 0.930 . S
C240 C239 1.381 . S
C240 C242 1.381 . S
C240 C243 1.487 . S
C241 C238 1.382 . S
C241 C242 1.387 . S
C241 H264 0.930 . S
C242 C240 1.381 . S
C242 C241 1.387 . S
C242 H265 0.931 . S
C243 C236 1.399 . S
C243 C240 1.487 . S
C243 N275 1.343 . S
C244 C245 1.384 . S
C244 C246 1.384 . S
C244 H266 0.931 . S
C245 C244 1.384 . S
C245 C248 1.382 . S
C246 C244 1.384 . S
C246 C247 1.381 . S
C246 H267 0.930 . S
C247 C246 1.381 . S
C247 C249 1.381 . S
C247 C250 1.487 . S
C248 C245 1.382 . S
C248 C249 1.387 . S
C248 H268 0.930 . S
C249 C247 1.381 . S
C249 C248 1.387 . S
C249 H269 0.931 . S
C250 C247 1.487 . S
C250 C257 1.399 . S
C250 N275 1.343 . S
C251 C252 1.384 . S
C251 C253 1.384 . S
C251 H270 0.931 . S
C252 C251 1.384 . S
C252 C255 1.382 . S
C253 C251 1.384 . S
C253 C254 1.381 . S
C253 H271 0.930 . S
C254 C253 1.381 . S
C254 C256 1.381 . S
C254 C257 1.487 . S
C255 C252 1.382 . S
C255 C256 1.387 . S
C255 H272 0.930 . S
C256 C254 1.381 . S
C256 C255 1.387 . S
C256 H273 0.931 . S
C257 C250 1.399 . S
C257 C254 1.487 . S
C257 N274 1.343 . S
H258 C230 0.931 . S
H259 C232 0.930 . S
H260 C234 0.930 . S
H261 C235 0.931 . S
H262 C237 0.931 . S
H263 C239 0.930 . S
H264 C241 0.930 . S
H265 C242 0.931 . S
H266 C244 0.931 . S
H267 C246 0.930 . S
H268 C248 0.930 . S
H269 C249 0.931 . S
H270 C251 0.931 . S
H271 C253 0.930 . S
H272 C255 0.930 . S
H273 C256 0.931 . S
N274 C236 1.343 . S
N274 C257 1.343 . S
N275 C243 1.343 . S
N275 C250 1.343 . S
C276 O277 1.306 . S
C276 O279 1.160 . S
O277 C276 1.306 . S
O277 Cd278 2.228 . S
Cd278 O277 2.228 . S
Cd278 O282 2.273 . S
Cd278 O286 2.277 . S
O279 C276 1.160 . S
O279 Cd280 2.203 . S
Cd280 O279 2.203 . S
Cd280 O282 2.411 . S
Cd280 O283 2.333 . S
Cd280 O284 2.352 . S
Cd280 O288 2.277 . S
Cd280 O289 2.356 . S
C281 O286 1.209 . S
C281 O288 1.226 . S
O282 Cd278 2.273 . S
O282 Cd280 2.411 . S
O282 C285 1.320 . S
O283 Cd280 2.333 . S
O283 C285 1.214 . S
O284 Cd280 2.352 . S
O284 C287 1.258 . S
C285 O282 1.320 . S
C285 O283 1.214 . S
O286 Cd278 2.277 . S
O286 C281 1.209 . S
C287 O284 1.258 . S
C287 O289 1.282 . S
O288 Cd280 2.277 . S
O288 C281 1.226 . S
O289 Cd280 2.356 . S
O289 C287 1.282 . S
C290 O291 1.306 . S
C290 O293 1.160 . S
O291 C290 1.306 . S
O291 Cd292 2.228 . S
Cd292 O291 2.228 . S
Cd292 O296 2.273 . S
Cd292 O300 2.277 . S
O293 C290 1.160 . S
O293 Cd294 2.203 . S
Cd294 O293 2.203 . S
Cd294 O296 2.411 . S
Cd294 O297 2.333 . S
Cd294 O298 2.352 . S
Cd294 O302 2.277 . S
Cd294 O303 2.356 . S
C295 O300 1.209 . S
C295 O302 1.226 . S
O296 Cd292 2.273 . S
O296 Cd294 2.411 . S
O296 C299 1.320 . S
O297 Cd294 2.333 . S
O297 C299 1.214 . S
O298 Cd294 2.352 . S
O298 C301 1.258 . S
C299 O296 1.320 . S
C299 O297 1.214 . S
O300 Cd292 2.277 . S
O300 C295 1.209 . S
C301 O298 1.258 . S
C301 O303 1.282 . S
O302 Cd294 2.277 . S
O302 C295 1.226 . S
O303 Cd294 2.356 . S
O303 C301 1.282 . S
C304 O305 1.306 . S
C304 O307 1.160 . S
O305 C304 1.306 . S
O305 Cd306 2.228 . S
Cd306 O305 2.228 . S
Cd306 O310 2.273 . S
Cd306 O314 2.277 . S
O307 C304 1.160 . S
O307 Cd308 2.203 . S
Cd308 O307 2.203 . S
Cd308 O310 2.411 . S
Cd308 O311 2.333 . S
Cd308 O312 2.352 . S
Cd308 O316 2.277 . S
Cd308 O317 2.356 . S
C309 O314 1.209 . S
C309 O316 1.226 . S
O310 Cd306 2.273 . S
O310 Cd308 2.411 . S
O310 C313 1.320 . S
O311 Cd308 2.333 . S
O311 C313 1.214 . S
O312 Cd308 2.352 . S
O312 C315 1.258 . S
C313 O310 1.320 . S
C313 O311 1.214 . S
O314 Cd306 2.277 . S
O314 C309 1.209 . S
C315 O312 1.258 . S
C315 O317 1.282 . S
O316 Cd308 2.277 . S
O316 C309 1.226 . S
O317 Cd308 2.356 . S
O317 C315 1.282 . S
C318 O319 1.306 . S
C318 O321 1.160 . S
O319 C318 1.306 . S
O319 Cd320 2.228 . S
Cd320 O319 2.228 . S
Cd320 O324 2.273 . S
Cd320 O328 2.277 . S
O321 C318 1.160 . S
O321 Cd322 2.203 . S
Cd322 O321 2.203 . S
Cd322 O324 2.411 . S
Cd322 O325 2.333 . S
Cd322 O326 2.352 . S
Cd322 O330 2.277 . S
Cd322 O331 2.356 . S
C323 O328 1.209 . S
C323 O330 1.226 . S
O324 Cd320 2.273 . S
O324 Cd322 2.411 . S
O324 C327 1.320 . S
O325 Cd322 2.333 . S
O325 C327 1.214 . S
O326 Cd322 2.352 . S
O326 C329 1.258 . S
C327 O324 1.320 . S
C327 O325 1.214 . S
O328 Cd320 2.277 . S
O328 C323 1.209 . S
C329 O326 1.258 . S
C329 O331 1.282 . S
O330 Cd322 2.277 . S
O330 C323 1.226 . S
O331 Cd322 2.356 . S
O331 C329 1.282 . S
C332 O333 1.306 . S
C332 O335 1.160 . S
O333 C332 1.306 . S
O333 Cd334 2.228 . S
Cd334 O333 2.228 . S
Cd334 O338 2.273 . S
Cd334 O342 2.277 . S
O335 C332 1.160 . S
O335 Cd336 2.203 . S
Cd336 O335 2.203 . S
Cd336 O338 2.411 . S
Cd336 O339 2.333 . S
Cd336 O340 2.352 . S
Cd336 O344 2.277 . S
Cd336 O345 2.356 . S
C337 O342 1.209 . S
C337 O344 1.226 . S
O338 Cd334 2.273 . S
O338 Cd336 2.411 . S
O338 C341 1.320 . S
O339 Cd336 2.333 . S
O339 C341 1.214 . S
O340 Cd336 2.352 . S
O340 C343 1.258 . S
C341 O338 1.320 . S
C341 O339 1.214 . S
O342 Cd334 2.277 . S
O342 C337 1.209 . S
C343 O340 1.258 . S
C343 O345 1.282 . S
O344 Cd336 2.277 . S
O344 C337 1.226 . S
O345 Cd336 2.356 . S
O345 C343 1.282 . S
C346 O347 1.306 . S
C346 O349 1.160 . S
O347 C346 1.306 . S
O347 Cd348 2.228 . S
Cd348 O347 2.228 . S
Cd348 O352 2.273 . S
Cd348 O356 2.277 . S
O349 C346 1.160 . S
O349 Cd350 2.203 . S
Cd350 O349 2.203 . S
Cd350 O352 2.411 . S
Cd350 O353 2.333 . S
Cd350 O354 2.352 . S
Cd350 O358 2.277 . S
Cd350 O359 2.356 . S
C351 O356 1.209 . S
C351 O358 1.226 . S
O352 Cd348 2.273 . S
O352 Cd350 2.411 . S
O352 C355 1.320 . S
O353 Cd350 2.333 . S
O353 C355 1.214 . S
O354 Cd350 2.352 . S
O354 C357 1.258 . S
C355 O352 1.320 . S
C355 O353 1.214 . S
O356 Cd348 2.277 . S
O356 C351 1.209 . S
C357 O354 1.258 . S
C357 O359 1.282 . S
O358 Cd350 2.277 . S
O358 C351 1.226 . S
O359 Cd350 2.356 . S
O359 C357 1.282 . S
C360 C361 1.349 . S
C360 C362 1.327 . S
C360 H385 0.950 . S
C361 C360 1.349 . S
C361 C377 1.349 . S
C362 C360 1.327 . S
C362 C381 1.429 . S
C362 H386 0.950 . S
C363 C380 1.574 . S
C363 C382 1.368 . S
C363 H387 0.949 . S
H364 C368 0.949 . S
C365 C366 1.349 . S
C365 C367 1.327 . S
C365 H388 0.950 . S
C366 C365 1.349 . S
C366 C378 1.349 . S
C367 C365 1.327 . S
C367 C383 1.429 . S
C367 H389 0.950 . S
C368 H364 0.949 . S
C368 C376 1.574 . S
C368 C384 1.368 . S
H369 C377 0.950 . S
H370 C375 0.950 . S
H371 C376 0.949 . S
H372 C378 0.950 . S
H373 C379 0.950 . S
H374 C380 0.949 . S
C375 H370 0.950 . S
C375 C377 1.327 . S
C375 C381 1.429 . S
C376 C368 1.574 . S
C376 H371 0.949 . S
C376 C382 1.368 . S
C377 C361 1.349 . S
C377 H369 0.950 . S
C377 C375 1.327 . S
C378 C366 1.349 . S
C378 H372 0.950 . S
C378 C379 1.327 . S
C379 H373 0.950 . S
C379 C378 1.327 . S
C379 C383 1.429 . S
C380 C363 1.574 . S
C380 H374 0.949 . S
C380 C384 1.368 . S
C381 C362 1.429 . S
C381 C375 1.429 . S
C381 C382 1.523 . S
C382 C363 1.368 . S
C382 C376 1.368 . S
C382 C381 1.523 . S
C383 C367 1.429 . S
C383 C379 1.429 . S
C383 C384 1.523 . S
C384 C368 1.368 . S
C384 C380 1.368 . S
C384 C383 1.523 . S
H385 C360 0.950 . S
H386 C362 0.950 . S
H387 C363 0.949 . S
H388 C365 0.950 . S
H389 C367 0.950 . S
C390 C391 1.349 . S
C390 C392 1.327 . S
C390 H415 0.950 . S
C391 C390 1.349 . S
C391 C407 1.349 . S
C392 C390 1.327 . S
C392 C411 1.429 . S
C392 H416 0.950 . S
C393 C410 1.574 . S
C393 C412 1.368 . S
C393 H417 0.949 . S
H394 C398 0.949 . S
C395 C396 1.349 . S
C395 C397 1.327 . S
C395 H418 0.950 . S
C396 C395 1.349 . S
C396 C408 1.349 . S
C397 C395 1.327 . S
C397 C413 1.429 . S
C397 H419 0.950 . S
C398 H394 0.949 . S
C398 C406 1.574 . S
C398 C414 1.368 . S
H399 C407 0.950 . S
H400 C405 0.950 . S
H401 C406 0.949 . S
H402 C408 0.950 . S
H403 C409 0.950 . S
H404 C410 0.949 . S
C405 H400 0.950 . S
C405 C407 1.327 . S
C405 C411 1.429 . S
C406 C398 1.574 . S
C406 H401 0.949 . S
C406 C412 1.368 . S
C407 C391 1.349 . S
C407 H399 0.950 . S
C407 C405 1.327 . S
C408 C396 1.349 . S
C408 H402 0.950 . S
C408 C409 1.327 . S
C409 H403 0.950 . S
C409 C408 1.327 . S
C409 C413 1.429 . S
C410 C393 1.574 . S
C410 H404 0.949 . S
C410 C414 1.368 . S
C411 C392 1.429 . S
C411 C405 1.429 . S
C411 C412 1.523 . S
C412 C393 1.368 . S
C412 C406 1.368 . S
C412 C411 1.523 . S
C413 C397 1.429 . S
C413 C409 1.429 . S
C413 C414 1.523 . S
C414 C398 1.368 . S
C414 C410 1.368 . S
C414 C413 1.523 . S
H415 C390 0.950 . S
H416 C392 0.950 . S
H417 C393 0.949 . S
H418 C395 0.950 . S
H419 C397 0.950 . S
C420 C421 1.349 . S
C420 C422 1.327 . S
C420 H445 0.950 . S
C421 C420 1.349 . S
C421 C437 1.349 . S
C422 C420 1.327 . S
C422 C441 1.429 . S
C422 H446 0.950 . S
C423 C440 1.574 . S
C423 C442 1.368 . S
C423 H447 0.949 . S
H424 C428 0.949 . S
C425 C426 1.349 . S
C425 C427 1.327 . S
C425 H448 0.950 . S
C426 C425 1.349 . S
C426 C438 1.349 . S
C427 C425 1.327 . S
C427 C443 1.429 . S
C427 H449 0.950 . S
C428 H424 0.949 . S
C428 C436 1.574 . S
C428 C444 1.368 . S
H429 C437 0.950 . S
H430 C435 0.950 . S
H431 C436 0.949 . S
H432 C438 0.950 . S
H433 C439 0.950 . S
H434 C440 0.949 . S
C435 H430 0.950 . S
C435 C437 1.327 . S
C435 C441 1.429 . S
C436 C428 1.574 . S
C436 H431 0.949 . S
C436 C442 1.368 . S
C437 C421 1.349 . S
C437 H429 0.950 . S
C437 C435 1.327 . S
C438 C426 1.349 . S
C438 H432 0.950 . S
C438 C439 1.327 . S
C439 H433 0.950 . S
C439 C438 1.327 . S
C439 C443 1.429 . S
C440 C423 1.574 . S
C440 H434 0.949 . S
C440 C444 1.368 . S
C441 C422 1.429 . S
C441 C435 1.429 . S
C441 C442 1.523 . S
C442 C423 1.368 . S
C442 C436 1.368 . S
C442 C441 1.523 . S
C443 C427 1.429 . S
C443 C439 1.429 . S
C443 C444 1.523 . S
C444 C428 1.368 . S
C444 C440 1.368 . S
C444 C443 1.523 . S
H445 C420 0.950 . S
H446 C422 0.950 . S
H447 C423 0.949 . S
H448 C425 0.950 . S
H449 C427 0.950 . S
C450 C451 1.349 . S
C450 C452 1.327 . S
C450 H475 0.950 . S
C451 C450 1.349 . S
C451 C467 1.349 . S
C452 C450 1.327 . S
C452 C471 1.429 . S
C452 H476 0.950 . S
C453 C470 1.574 . S
C453 C472 1.368 . S
C453 H477 0.949 . S
H454 C458 0.949 . S
C455 C456 1.349 . S
C455 C457 1.327 . S
C455 H478 0.950 . S
C456 C455 1.349 . S
C456 C468 1.349 . S
C457 C455 1.327 . S
C457 C473 1.429 . S
C457 H479 0.950 . S
C458 H454 0.949 . S
C458 C466 1.574 . S
C458 C474 1.368 . S
H459 C467 0.950 . S
H460 C465 0.950 . S
H461 C466 0.949 . S
H462 C468 0.950 . S
H463 C469 0.950 . S
H464 C470 0.949 . S
C465 H460 0.950 . S
C465 C467 1.327 . S
C465 C471 1.429 . S
C466 C458 1.574 . S
C466 H461 0.949 . S
C466 C472 1.368 . S
C467 C451 1.349 . S
C467 H459 0.950 . S
C467 C465 1.327 . S
C468 C456 1.349 . S
C468 H462 0.950 . S
C468 C469 1.327 . S
C469 H463 0.950 . S
C469 C468 1.327 . S
C469 C473 1.429 . S
C470 C453 1.574 . S
C470 H464 0.949 . S
C470 C474 1.368 . S
C471 C452 1.429 . S
C471 C465 1.429 . S
C471 C472 1.523 . S
C472 C453 1.368 . S
C472 C466 1.368 . S
C472 C471 1.523 . S
C473 C457 1.429 . S
C473 C469 1.429 . S
C473 C474 1.523 . S
C474 C458 1.368 . S
C474 C470 1.368 . S
C474 C473 1.523 . S
H475 C450 0.950 . S
H476 C452 0.950 . S
H477 C453 0.949 . S
H478 C455 0.950 . S
H479 C457 0.950 . S
C480 C481 1.349 . S
C480 C482 1.327 . S
C480 H505 0.950 . S
C481 C480 1.349 . S
C481 C497 1.349 . S
C482 C480 1.327 . S
C482 C501 1.429 . S
C482 H506 0.950 . S
C483 C500 1.574 . S
C483 C502 1.368 . S
C483 H507 0.949 . S
H484 C488 0.949 . S
C485 C486 1.349 . S
C485 C487 1.327 . S
C485 H508 0.950 . S
C486 C485 1.349 . S
C486 C498 1.349 . S
C487 C485 1.327 . S
C487 C503 1.429 . S
C487 H509 0.950 . S
C488 H484 0.949 . S
C488 C496 1.574 . S
C488 C504 1.368 . S
H489 C497 0.950 . S
H490 C495 0.950 . S
H491 C496 0.949 . S
H492 C498 0.950 . S
H493 C499 0.950 . S
H494 C500 0.949 . S
C495 H490 0.950 . S
C495 C497 1.327 . S
C495 C501 1.429 . S
C496 C488 1.574 . S
C496 H491 0.949 . S
C496 C502 1.368 . S
C497 C481 1.349 . S
C497 H489 0.950 . S
C497 C495 1.327 . S
C498 C486 1.349 . S
C498 H492 0.950 . S
C498 C499 1.327 . S
C499 H493 0.950 . S
C499 C498 1.327 . S
C499 C503 1.429 . S
C500 C483 1.574 . S
C500 H494 0.949 . S
C500 C504 1.368 . S
C501 C482 1.429 . S
C501 C495 1.429 . S
C501 C502 1.523 . S
C502 C483 1.368 . S
C502 C496 1.368 . S
C502 C501 1.523 . S
C503 C487 1.429 . S
C503 C499 1.429 . S
C503 C504 1.523 . S
C504 C488 1.368 . S
C504 C500 1.368 . S
C504 C503 1.523 . S
H505 C480 0.950 . S
H506 C482 0.950 . S
H507 C483 0.949 . S
H508 C485 0.950 . S
H509 C487 0.950 . S
C510 C511 1.349 . S
C510 C512 1.327 . S
C510 H535 0.950 . S
C511 C510 1.349 . S
C511 C527 1.349 . S
C512 C510 1.327 . S
C512 C531 1.429 . S
C512 H536 0.950 . S
C513 C530 1.574 . S
C513 C532 1.368 . S
C513 H537 0.949 . S
H514 C518 0.949 . S
C515 C516 1.349 . S
C515 C517 1.327 . S
C515 H538 0.950 . S
C516 C515 1.349 . S
C516 C528 1.349 . S
C517 C515 1.327 . S
C517 C533 1.429 . S
C517 H539 0.950 . S
C518 H514 0.949 . S
C518 C526 1.574 . S
C518 C534 1.368 . S
H519 C527 0.950 . S
H520 C525 0.950 . S
H521 C526 0.949 . S
H522 C528 0.950 . S
H523 C529 0.950 . S
H524 C530 0.949 . S
C525 H520 0.950 . S
C525 C527 1.327 . S
C525 C531 1.429 . S
C526 C518 1.574 . S
C526 H521 0.949 . S
C526 C532 1.368 . S
C527 C511 1.349 . S
C527 H519 0.950 . S
C527 C525 1.327 . S
C528 C516 1.349 . S
C528 H522 0.950 . S
C528 C529 1.327 . S
C529 H523 0.950 . S
C529 C528 1.327 . S
C529 C533 1.429 . S
C530 C513 1.574 . S
C530 H524 0.949 . S
C530 C534 1.368 . S
C531 C512 1.429 . S
C531 C525 1.429 . S
C531 C532 1.523 . S
C532 C513 1.368 . S
C532 C526 1.368 . S
C532 C531 1.523 . S
C533 C517 1.429 . S
C533 C529 1.429 . S
C533 C534 1.523 . S
C534 C518 1.368 . S
C534 C530 1.368 . S
C534 C533 1.523 . S
H535 C510 0.950 . S
H536 C512 0.950 . S
H537 C513 0.949 . S
H538 C515 0.950 . S
H539 C517 0.950 . S
C540 C541 1.349 . S
C540 C542 1.327 . S
C540 H565 0.950 . S
C541 C540 1.349 . S
C541 C557 1.349 . S
C542 C540 1.327 . S
C542 C561 1.429 . S
C542 H566 0.950 . S
C543 C560 1.574 . S
C543 C562 1.368 . S
C543 H567 0.949 . S
H544 C548 0.949 . S
C545 C546 1.349 . S
C545 C547 1.327 . S
C545 H568 0.950 . S
C546 C545 1.349 . S
C546 C558 1.349 . S
C547 C545 1.327 . S
C547 C563 1.429 . S
C547 H569 0.950 . S
C548 H544 0.949 . S
C548 C556 1.574 . S
C548 C564 1.368 . S
H549 C557 0.950 . S
H550 C555 0.950 . S
H551 C556 0.949 . S
H552 C558 0.950 . S
H553 C559 0.950 . S
H554 C560 0.949 . S
C555 H550 0.950 . S
C555 C557 1.327 . S
C555 C561 1.429 . S
C556 C548 1.574 . S
C556 H551 0.949 . S
C556 C562 1.368 . S
C557 C541 1.349 . S
C557 H549 0.950 . S
C557 C555 1.327 . S
C558 C546 1.349 . S
C558 H552 0.950 . S
C558 C559 1.327 . S
C559 H553 0.950 . S
C559 C558 1.327 . S
C559 C563 1.429 . S
C560 C543 1.574 . S
C560 H554 0.949 . S
C560 C564 1.368 . S
C561 C542 1.429 . S
C561 C555 1.429 . S
C561 C562 1.523 . S
C562 C543 1.368 . S
C562 C556 1.368 . S
C562 C561 1.523 . S
C563 C547 1.429 . S
C563 C559 1.429 . S
C563 C564 1.523 . S
C564 C548 1.368 . S
C564 C560 1.368 . S
C564 C563 1.523 . S
H565 C540 0.950 . S
H566 C542 0.950 . S
H567 C543 0.949 . S
H568 C545 0.950 . S
H569 C547 0.950 . S
C570 C571 1.349 . S
C570 C572 1.327 . S
C570 H595 0.950 . S
C571 C570 1.349 . S
C571 C587 1.349 . S
C572 C570 1.327 . S
C572 C591 1.429 . S
C572 H596 0.950 . S
C573 C590 1.574 . S
C573 C592 1.368 . S
C573 H597 0.949 . S
H574 C578 0.949 . S
C575 C576 1.349 . S
C575 C577 1.327 . S
C575 H598 0.950 . S
C576 C575 1.349 . S
C576 C588 1.349 . S
C577 C575 1.327 . S
C577 C593 1.429 . S
C577 H599 0.950 . S
C578 H574 0.949 . S
C578 C586 1.574 . S
C578 C594 1.368 . S
H579 C587 0.950 . S
H580 C585 0.950 . S
H581 C586 0.949 . S
H582 C588 0.950 . S
H583 C589 0.950 . S
H584 C590 0.949 . S
C585 H580 0.950 . S
C585 C587 1.327 . S
C585 C591 1.429 . S
C586 C578 1.574 . S
C586 H581 0.949 . S
C586 C592 1.368 . S
C587 C571 1.349 . S
C587 H579 0.950 . S
C587 C585 1.327 . S
C588 C576 1.349 . S
C588 H582 0.950 . S
C588 C589 1.327 . S
C589 H583 0.950 . S
C589 C588 1.327 . S
C589 C593 1.429 . S
C590 C573 1.574 . S
C590 H584 0.949 . S
C590 C594 1.368 . S
C591 C572 1.429 . S
C591 C585 1.429 . S
C591 C592 1.523 . S
C592 C573 1.368 . S
C592 C586 1.368 . S
C592 C591 1.523 . S
C593 C577 1.429 . S
C593 C589 1.429 . S
C593 C594 1.523 . S
C594 C578 1.368 . S
C594 C590 1.368 . S
C594 C593 1.523 . S
H595 C570 0.950 . S
H596 C572 0.950 . S
H597 C573 0.949 . S
H598 C575 0.950 . S
H599 C577 0.950 . S
C600 C601 1.349 . S
C600 C602 1.327 . S
C600 H625 0.950 . S
C601 C600 1.349 . S
C601 C617 1.349 . S
C602 C600 1.327 . S
C602 C621 1.429 . S
C602 H626 0.950 . S
C603 C620 1.574 . S
C603 C622 1.368 . S
C603 H627 0.949 . S
H604 C608 0.949 . S
C605 C606 1.349 . S
C605 C607 1.327 . S
C605 H628 0.950 . S
C606 C605 1.349 . S
C606 C618 1.349 . S
C607 C605 1.327 . S
C607 C623 1.429 . S
C607 H629 0.950 . S
C608 H604 0.949 . S
C608 C616 1.574 . S
C608 C624 1.368 . S
H609 C617 0.950 . S
H610 C615 0.950 . S
H611 C616 0.949 . S
H612 C618 0.950 . S
H613 C619 0.950 . S
H614 C620 0.949 . S
C615 H610 0.950 . S
C615 C617 1.327 . S
C615 C621 1.429 . S
C616 C608 1.574 . S
C616 H611 0.949 . S
C616 C622 1.368 . S
C617 C601 1.349 . S
C617 H609 0.950 . S
C617 C615 1.327 . S
C618 C606 1.349 . S
C618 H612 0.950 . S
C618 C619 1.327 . S
C619 H613 0.950 . S
C619 C618 1.327 . S
C619 C623 1.429 . S
C620 C603 1.574 . S
C620 H614 0.949 . S
C620 C624 1.368 . S
C621 C602 1.429 . S
C621 C615 1.429 . S
C621 C622 1.523 . S
C622 C603 1.368 . S
C622 C616 1.368 . S
C622 C621 1.523 . S
C623 C607 1.429 . S
C623 C619 1.429 . S
C623 C624 1.523 . S
C624 C608 1.368 . S
C624 C620 1.368 . S
C624 C623 1.523 . S
H625 C600 0.950 . S
H626 C602 0.950 . S
H627 C603 0.949 . S
H628 C605 0.950 . S
H629 C607 0.950 . S
C630 C631 1.349 . S
C630 C632 1.327 . S
C630 H655 0.950 . S
C631 C630 1.349 . S
C631 C647 1.349 . S
C632 C630 1.327 . S
C632 C651 1.429 . S
C632 H656 0.950 . S
C633 C650 1.574 . S
C633 C652 1.368 . S
C633 H657 0.949 . S
H634 C638 0.949 . S
C635 C636 1.349 . S
C635 C637 1.327 . S
C635 H658 0.950 . S
C636 C635 1.349 . S
C636 C648 1.349 . S
C637 C635 1.327 . S
C637 C653 1.429 . S
C637 H659 0.950 . S
C638 H634 0.949 . S
C638 C646 1.574 . S
C638 C654 1.368 . S
H639 C647 0.950 . S
H640 C645 0.950 . S
H641 C646 0.949 . S
H642 C648 0.950 . S
H643 C649 0.950 . S
H644 C650 0.949 . S
C645 H640 0.950 . S
C645 C647 1.327 . S
C645 C651 1.429 . S
C646 C638 1.574 . S
C646 H641 0.949 . S
C646 C652 1.368 . S
C647 C631 1.349 . S
C647 H639 0.950 . S
C647 C645 1.327 . S
C648 C636 1.349 . S
C648 H642 0.950 . S
C648 C649 1.327 . S
C649 H643 0.950 . S
C649 C648 1.327 . S
C649 C653 1.429 . S
C650 C633 1.574 . S
C650 H644 0.949 . S
C650 C654 1.368 . S
C651 C632 1.429 . S
C651 C645 1.429 . S
C651 C652 1.523 . S
C652 C633 1.368 . S
C652 C646 1.368 . S
C652 C651 1.523 . S
C653 C637 1.429 . S
C653 C649 1.429 . S
C653 C654 1.523 . S
C654 C638 1.368 . S
C654 C650 1.368 . S
C654 C653 1.523 . S
H655 C630 0.950 . S
H656 C632 0.950 . S
H657 C633 0.949 . S
H658 C635 0.950 . S
H659 C637 0.950 . S
C660 C661 1.349 . S
C660 C662 1.327 . S
C660 H685 0.950 . S
C661 C660 1.349 . S
C661 C677 1.349 . S
C662 C660 1.327 . S
C662 C681 1.429 . S
C662 H686 0.950 . S
C663 C680 1.574 . S
C663 C682 1.368 . S
C663 H687 0.949 . S
H664 C668 0.949 . S
C665 C666 1.349 . S
C665 C667 1.327 . S
C665 H688 0.950 . S
C666 C665 1.349 . S
C666 C678 1.349 . S
C667 C665 1.327 . S
C667 C683 1.429 . S
C667 H689 0.950 . S
C668 H664 0.949 . S
C668 C676 1.574 . S
C668 C684 1.368 . S
H669 C677 0.950 . S
H670 C675 0.950 . S
H671 C676 0.949 . S
H672 C678 0.950 . S
H673 C679 0.950 . S
H674 C680 0.949 . S
C675 H670 0.950 . S
C675 C677 1.327 . S
C675 C681 1.429 . S
C676 C668 1.574 . S
C676 H671 0.949 . S
C676 C682 1.368 . S
C677 C661 1.349 . S
C677 H669 0.950 . S
C677 C675 1.327 . S
C678 C666 1.349 . S
C678 H672 0.950 . S
C678 C679 1.327 . S
C679 H673 0.950 . S
C679 C678 1.327 . S
C679 C683 1.429 . S
C680 C663 1.574 . S
C680 H674 0.949 . S
C680 C684 1.368 . S
C681 C662 1.429 . S
C681 C675 1.429 . S
C681 C682 1.523 . S
C682 C663 1.368 . S
C682 C676 1.368 . S
C682 C681 1.523 . S
C683 C667 1.429 . S
C683 C679 1.429 . S
C683 C684 1.523 . S
C684 C668 1.368 . S
C684 C680 1.368 . S
C684 C683 1.523 . S
H685 C660 0.950 . S
H686 C662 0.950 . S
H687 C663 0.949 . S
H688 C665 0.950 . S
H689 C667 0.950 . S
C690 C691 1.349 . S
C690 C692 1.327 . S
C690 H715 0.950 . S
C691 C690 1.349 . S
C691 C707 1.349 . S
C692 C690 1.327 . S
C692 C711 1.429 . S
C692 H716 0.950 . S
C693 C710 1.574 . S
C693 C712 1.368 . S
C693 H717 0.949 . S
H694 C698 0.949 . S
C695 C696 1.349 . S
C695 C697 1.327 . S
C695 H718 0.950 . S
C696 C695 1.349 . S
C696 C708 1.349 . S
C697 C695 1.327 . S
C697 C713 1.429 . S
C697 H719 0.950 . S
C698 H694 0.949 . S
C698 C706 1.574 . S
C698 C714 1.368 . S
H699 C707 0.950 . S
H700 C705 0.950 . S
H701 C706 0.949 . S
H702 C708 0.950 . S
H703 C709 0.950 . S
H704 C710 0.949 . S
C705 H700 0.950 . S
C705 C707 1.327 . S
C705 C711 1.429 . S
C706 C698 1.574 . S
C706 H701 0.949 . S
C706 C712 1.368 . S
C707 C691 1.349 . S
C707 H699 0.950 . S
C707 C705 1.327 . S
C708 C696 1.349 . S
C708 H702 0.950 . S
C708 C709 1.327 . S
C709 H703 0.950 . S
C709 C708 1.327 . S
C709 C713 1.429 . S
C710 C693 1.574 . S
C710 H704 0.949 . S
C710 C714 1.368 . S
C711 C692 1.429 . S
C711 C705 1.429 . S
C711 C712 1.523 . S
C712 C693 1.368 . S
C712 C706 1.368 . S
C712 C711 1.523 . S
C713 C697 1.429 . S
C713 C709 1.429 . S
C713 C714 1.523 . S
C714 C698 1.368 . S
C714 C710 1.368 . S
C714 C713 1.523 . S
H715 C690 0.950 . S
H716 C692 0.950 . S
H717 C693 0.949 . S
H718 C695 0.950 . S
H719 C697 0.950 . S
C720 C721 1.349 . S
C720 C722 1.327 . S
C720 H745 0.950 . S
C721 C720 1.349 . S
C721 C737 1.349 . S
C722 C720 1.327 . S
C722 C741 1.429 . S
C722 H746 0.950 . S
C723 C740 1.574 . S
C723 C742 1.368 . S
C723 H747 0.949 . S
H724 C728 0.949 . S
C725 C726 1.349 . S
C725 C727 1.327 . S
C725 H748 0.950 . S
C726 C725 1.349 . S
C726 C738 1.349 . S
C727 C725 1.327 . S
C727 C743 1.429 . S
C727 H749 0.950 . S
C728 H724 0.949 . S
C728 C736 1.574 . S
C728 C744 1.368 . S
H729 C737 0.950 . S
H730 C735 0.950 . S
H731 C736 0.949 . S
H732 C738 0.950 . S
H733 C739 0.950 . S
H734 C740 0.949 . S
C735 H730 0.950 . S
C735 C737 1.327 . S
C735 C741 1.429 . S
C736 C728 1.574 . S
C736 H731 0.949 . S
C736 C742 1.368 . S
C737 C721 1.349 . S
C737 H729 0.950 . S
C737 C735 1.327 . S
C738 C726 1.349 . S
C738 H732 0.950 . S
C738 C739 1.327 . S
C739 H733 0.950 . S
C739 C738 1.327 . S
C739 C743 1.429 . S
C740 C723 1.574 . S
C740 H734 0.949 . S
C740 C744 1.368 . S
C741 C722 1.429 . S
C741 C735 1.429 . S
C741 C742 1.523 . S
C742 C723 1.368 . S
C742 C736 1.368 . S
C742 C741 1.523 . S
C743 C727 1.429 . S
C743 C739 1.429 . S
C743 C744 1.523 . S
C744 C728 1.368 . S
C744 C740 1.368 . S
C744 C743 1.523 . S
H745 C720 0.950 . S
H746 C722 0.950 . S
H747 C723 0.949 . S
H748 C725 0.950 . S
H749 C727 0.950 . S
C750 C751 1.349 . S
C750 C752 1.327 . S
C750 H775 0.950 . S
C751 C750 1.349 . S
C751 C767 1.349 . S
C752 C750 1.327 . S
C752 C771 1.429 . S
C752 H776 0.950 . S
C753 C770 1.574 . S
C753 C772 1.368 . S
C753 H777 0.949 . S
H754 C758 0.949 . S
C755 C756 1.349 . S
C755 C757 1.327 . S
C755 H778 0.950 . S
C756 C755 1.349 . S
C756 C768 1.349 . S
C757 C755 1.327 . S
C757 C773 1.429 . S
C757 H779 0.950 . S
C758 H754 0.949 . S
C758 C766 1.574 . S
C758 C774 1.368 . S
H759 C767 0.950 . S
H760 C765 0.950 . S
H761 C766 0.949 . S
H762 C768 0.950 . S
H763 C769 0.950 . S
H764 C770 0.949 . S
C765 H760 0.950 . S
C765 C767 1.327 . S
C765 C771 1.429 . S
C766 C758 1.574 . S
C766 H761 0.949 . S
C766 C772 1.368 . S
C767 C751 1.349 . S
C767 H759 0.950 . S
C767 C765 1.327 . S
C768 C756 1.349 . S
C768 H762 0.950 . S
C768 C769 1.327 . S
C769 H763 0.950 . S
C769 C768 1.327 . S
C769 C773 1.429 . S
C770 C753 1.574 . S
C770 H764 0.949 . S
C770 C774 1.368 . S
C771 C752 1.429 . S
C771 C765 1.429 . S
C771 C772 1.523 . S
C772 C753 1.368 . S
C772 C766 1.368 . S
C772 C771 1.523 . S
C773 C757 1.429 . S
C773 C769 1.429 . S
C773 C774 1.523 . S
C774 C758 1.368 . S
C774 C770 1.368 . S
C774 C773 1.523 . S
H775 C750 0.950 . S
H776 C752 0.950 . S
H777 C753 0.949 . S
H778 C755 0.950 . S
H779 C757 0.950 . S
C780 C781 1.349 . S
C780 C782 1.327 . S
C780 H805 0.950 . S
C781 C780 1.349 . S
C781 C797 1.349 . S
C782 C780 1.327 . S
C782 C801 1.429 . S
C782 H806 0.950 . S
C783 C800 1.574 . S
C783 C802 1.368 . S
C783 H807 0.949 . S
H784 C788 0.949 . S
C785 C786 1.349 . S
C785 C787 1.327 . S
C785 H808 0.950 . S
C786 C785 1.349 . S
C786 C798 1.349 . S
C787 C785 1.327 . S
C787 C803 1.429 . S
C787 H809 0.950 . S
C788 H784 0.949 . S
C788 C796 1.574 . S
C788 C804 1.368 . S
H789 C797 0.950 . S
H790 C795 0.950 . S
H791 C796 0.949 . S
H792 C798 0.950 . S
H793 C799 0.950 . S
H794 C800 0.949 . S
C795 H790 0.950 . S
C795 C797 1.327 . S
C795 C801 1.429 . S
C796 C788 1.574 . S
C796 H791 0.949 . S
C796 C802 1.368 . S
C797 C781 1.349 . S
C797 H789 0.950 . S
C797 C795 1.327 . S
C798 C786 1.349 . S
C798 H792 0.950 . S
C798 C799 1.327 . S
C799 H793 0.950 . S
C799 C798 1.327 . S
C799 C803 1.429 . S
C800 C783 1.574 . S
C800 H794 0.949 . S
C800 C804 1.368 . S
C801 C782 1.429 . S
C801 C795 1.429 . S
C801 C802 1.523 . S
C802 C783 1.368 . S
C802 C796 1.368 . S
C802 C801 1.523 . S
C803 C787 1.429 . S
C803 C799 1.429 . S
C803 C804 1.523 . S
C804 C788 1.368 . S
C804 C800 1.368 . S
C804 C803 1.523 . S
H805 C780 0.950 . S
H806 C782 0.950 . S
H807 C783 0.949 . S
H808 C785 0.950 . S
H809 C787 0.950 . S
C810 C811 1.349 . S
C810 C812 1.327 . S
C810 H835 0.950 . S
C811 C810 1.349 . S
C811 C827 1.349 . S
C812 C810 1.327 . S
C812 C831 1.429 . S
C812 H836 0.950 . S
C813 C830 1.574 . S
C813 C832 1.368 . S
C813 H837 0.949 . S
H814 C818 0.949 . S
C815 C816 1.349 . S
C815 C817 1.327 . S
C815 H838 0.950 . S
C816 C815 1.349 . S
C816 C828 1.349 . S
C817 C815 1.327 . S
C817 C833 1.429 . S
C817 H839 0.950 . S
C818 H814 0.949 . S
C818 C826 1.574 . S
C818 C834 1.368 . S
H819 C827 0.950 . S
H820 C825 0.950 . S
H821 C826 0.949 . S
H822 C828 0.950 . S
H823 C829 0.950 . S
H824 C830 0.949 . S
C825 H820 0.950 . S
C825 C827 1.327 . S
C825 C831 1.429 . S
C826 C818 1.574 . S
C826 H821 0.949 . S
C826 C832 1.368 . S
C827 C811 1.349 . S
C827 H819 0.950 . S
C827 C825 1.327 . S
C828 C816 1.349 . S
C828 H822 0.950 . S
C828 C829 1.327 . S
C829 H823 0.950 . S
C829 C828 1.327 . S
C829 C833 1.429 . S
C830 C813 1.574 . S
C830 H824 0.949 . S
C830 C834 1.368 . S
C831 C812 1.429 . S
C831 C825 1.429 . S
C831 C832 1.523 . S
C832 C813 1.368 . S
C832 C826 1.368 . S
C832 C831 1.523 . S
C833 C817 1.429 . S
C833 C829 1.429 . S
C833 C834 1.523 1_554 S
C834 C818 1.368 . S
C834 C830 1.368 . S
C834 C833 1.523 1_556 S
H835 C810 0.950 . S
H836 C812 0.950 . S
H837 C813 0.949 . S
H838 C815 0.950 . S
H839 C817 0.950 . S
C840 C841 1.349 . S
C840 C842 1.327 . S
C840 H865 0.950 . S
C841 C840 1.349 . S
C841 C857 1.349 . S
C842 C840 1.327 . S
C842 C861 1.429 . S
C842 H866 0.950 . S
C843 C860 1.574 . S
C843 C862 1.368 . S
C843 H867 0.949 . S
H844 C848 0.949 . S
C845 C846 1.349 . S
C845 C847 1.327 . S
C845 H868 0.950 . S
C846 C845 1.349 . S
C846 C858 1.349 . S
C847 C845 1.327 . S
C847 C863 1.429 . S
C847 H869 0.950 . S
C848 H844 0.949 . S
C848 C856 1.574 . S
C848 C864 1.368 . S
H849 C857 0.950 . S
H850 C855 0.950 . S
H851 C856 0.949 . S
H852 C858 0.950 . S
H853 C859 0.950 . S
H854 C860 0.949 . S
C855 H850 0.950 . S
C855 C857 1.327 . S
C855 C861 1.429 . S
C856 C848 1.574 . S
C856 H851 0.949 . S
C856 C862 1.368 . S
C857 C841 1.349 . S
C857 H849 0.950 . S
C857 C855 1.327 . S
C858 C846 1.349 . S
C858 H852 0.950 . S
C858 C859 1.327 . S
C859 H853 0.950 . S
C859 C858 1.327 . S
C859 C863 1.429 . S
C860 C843 1.574 . S
C860 H854 0.949 . S
C860 C864 1.368 . S
C861 C842 1.429 . S
C861 C855 1.429 . S
C861 C862 1.523 . S
C862 C843 1.368 . S
C862 C856 1.368 . S
C862 C861 1.523 . S
C863 C847 1.429 . S
C863 C859 1.429 . S
C863 C864 1.523 . S
C864 C848 1.368 . S
C864 C860 1.368 . S
C864 C863 1.523 . S
H865 C840 0.950 . S
H866 C842 0.950 . S
H867 C843 0.949 . S
H868 C845 0.950 . S
H869 C847 0.950 . S
C870 C871 1.349 . S
C870 C872 1.327 . S
C870 H895 0.950 . S
C871 C870 1.349 . S
C871 C887 1.349 . S
C872 C870 1.327 . S
C872 C891 1.429 . S
C872 H896 0.950 . S
C873 C890 1.574 . S
C873 C892 1.368 . S
C873 H897 0.949 . S
H874 C878 0.949 . S
C875 C876 1.349 . S
C875 C877 1.327 . S
C875 H898 0.950 . S
C876 C875 1.349 . S
C876 C888 1.349 . S
C877 C875 1.327 . S
C877 C893 1.429 . S
C877 H899 0.950 . S
C878 H874 0.949 . S
C878 C886 1.574 . S
C878 C894 1.368 . S
H879 C887 0.950 . S
H880 C885 0.950 . S
H881 C886 0.949 . S
H882 C888 0.950 . S
H883 C889 0.950 . S
H884 C890 0.949 . S
C885 H880 0.950 . S
C885 C887 1.327 . S
C885 C891 1.429 . S
C886 C878 1.574 . S
C886 H881 0.949 . S
C886 C892 1.368 . S
C887 C871 1.349 . S
C887 H879 0.950 . S
C887 C885 1.327 . S
C888 C876 1.349 . S
C888 H882 0.950 . S
C888 C889 1.327 . S
C889 H883 0.950 . S
C889 C888 1.327 . S
C889 C893 1.429 . S
C890 C873 1.574 . S
C890 H884 0.949 . S
C890 C894 1.368 . S
C891 C872 1.429 . S
C891 C885 1.429 . S
C891 C892 1.523 . S
C892 C873 1.368 . S
C892 C886 1.368 . S
C892 C891 1.523 . S
C893 C877 1.429 . S
C893 C889 1.429 . S
C893 C894 1.523 . S
C894 C878 1.368 . S
C894 C890 1.368 . S
C894 C893 1.523 . S
H895 C870 0.950 . S
H896 C872 0.950 . S
H897 C873 0.949 . S
H898 C875 0.950 . S
H899 C877 0.950 . S
C900 C901 1.349 . S
C900 C902 1.327 . S
C900 H925 0.950 . S
C901 C900 1.349 . S
C901 C917 1.349 . S
C902 C900 1.327 . S
C902 C921 1.429 . S
C902 H926 0.950 . S
C903 C920 1.574 . S
C903 C922 1.368 . S
C903 H927 0.949 . S
H904 C908 0.949 . S
C905 C906 1.349 . S
C905 C907 1.327 . S
C905 H928 0.950 . S
C906 C905 1.349 . S
C906 C918 1.349 . S
C907 C905 1.327 . S
C907 C923 1.429 . S
C907 H929 0.950 . S
C908 H904 0.949 . S
C908 C916 1.574 . S
C908 C924 1.368 . S
H909 C917 0.950 . S
H910 C915 0.950 . S
H911 C916 0.949 . S
H912 C918 0.950 . S
H913 C919 0.950 . S
H914 C920 0.949 . S
C915 H910 0.950 . S
C915 C917 1.327 . S
C915 C921 1.429 . S
C916 C908 1.574 . S
C916 H911 0.949 . S
C916 C922 1.368 . S
C917 C901 1.349 . S
C917 H909 0.950 . S
C917 C915 1.327 . S
C918 C906 1.349 . S
C918 H912 0.950 . S
C918 C919 1.327 . S
C919 H913 0.950 . S
C919 C918 1.327 . S
C919 C923 1.429 . S
C920 C903 1.574 . S
C920 H914 0.949 . S
C920 C924 1.368 . S
C921 C902 1.429 . S
C921 C915 1.429 . S
C921 C922 1.523 . S
C922 C903 1.368 . S
C922 C916 1.368 . S
C922 C921 1.523 . S
C923 C907 1.429 . S
C923 C919 1.429 . S
C923 C924 1.523 . S
C924 C908 1.368 . S
C924 C920 1.368 . S
C924 C923 1.523 . S
H925 C900 0.950 . S
H926 C902 0.950 . S
H927 C903 0.949 . S
H928 C905 0.950 . S
H929 C907 0.950 . S
C930 C931 1.349 . S
C930 C932 1.327 . S
C930 H955 0.950 . S
C931 C930 1.349 . S
C931 C947 1.349 . S
C932 C930 1.327 . S
C932 C951 1.429 . S
C932 H956 0.950 . S
C933 C950 1.574 . S
C933 C952 1.368 . S
C933 H957 0.949 . S
H934 C938 0.949 . S
C935 C936 1.349 . S
C935 C937 1.327 . S
C935 H958 0.950 . S
C936 C935 1.349 . S
C936 C948 1.349 . S
C937 C935 1.327 . S
C937 C953 1.429 . S
C937 H959 0.950 . S
C938 H934 0.949 . S
C938 C946 1.574 . S
C938 C954 1.368 . S
H939 C947 0.950 . S
H940 C945 0.950 . S
H941 C946 0.949 . S
H942 C948 0.950 . S
H943 C949 0.950 . S
H944 C950 0.949 . S
C945 H940 0.950 . S
C945 C947 1.327 . S
C945 C951 1.429 . S
C946 C938 1.574 . S
C946 H941 0.949 . S
C946 C952 1.368 . S
C947 C931 1.349 . S
C947 H939 0.950 . S
C947 C945 1.327 . S
C948 C936 1.349 . S
C948 H942 0.950 . S
C948 C949 1.327 . S
C949 H943 0.950 . S
C949 C948 1.327 . S
C949 C953 1.429 . S
C950 C933 1.574 . S
C950 H944 0.949 . S
C950 C954 1.368 . S
C951 C932 1.429 . S
C951 C945 1.429 . S
C951 C952 1.523 . S
C952 C933 1.368 . S
C952 C946 1.368 . S
C952 C951 1.523 . S
C953 C937 1.429 . S
C953 C949 1.429 . S
C953 C954 1.523 . S
C954 C938 1.368 . S
C954 C950 1.368 . S
C954 C953 1.523 . S
H955 C930 0.950 . S
H956 C932 0.950 . S
H957 C933 0.949 . S
H958 C935 0.950 . S
H959 C937 0.950 . S
C960 C961 1.349 . S
C960 C962 1.327 . S
C960 H985 0.950 . S
C961 C960 1.349 . S
C961 C977 1.349 . S
C962 C960 1.327 . S
C962 C981 1.429 . S
C962 H986 0.950 . S
C963 C980 1.574 . S
C963 C982 1.368 . S
C963 H987 0.949 . S
H964 C968 0.949 . S
C965 C966 1.349 . S
C965 C967 1.327 . S
C965 H988 0.950 . S
C966 C965 1.349 . S
C966 C978 1.349 . S
C967 C965 1.327 . S
C967 C983 1.429 . S
C967 H989 0.950 . S
C968 H964 0.949 . S
C968 C976 1.574 . S
C968 C984 1.368 . S
H969 C977 0.950 . S
H970 C975 0.950 . S
H971 C976 0.949 . S
H972 C978 0.950 . S
H973 C979 0.950 . S
H974 C980 0.949 . S
C975 H970 0.950 . S
C975 C977 1.327 . S
C975 C981 1.429 . S
C976 C968 1.574 . S
C976 H971 0.949 . S
C976 C982 1.368 . S
C977 C961 1.349 . S
C977 H969 0.950 . S
C977 C975 1.327 . S
C978 C966 1.349 . S
C978 H972 0.950 . S
C978 C979 1.327 . S
C979 H973 0.950 . S
C979 C978 1.327 . S
C979 C983 1.429 . S
C980 C963 1.574 . S
C980 H974 0.949 . S
C980 C984 1.368 . S
C981 C962 1.429 . S
C981 C975 1.429 . S
C981 C982 1.523 . S
C982 C963 1.368 . S
C982 C976 1.368 . S
C982 C981 1.523 . S
C983 C967 1.429 . S
C983 C979 1.429 . S
C983 C984 1.523 . S
C984 C968 1.368 . S
C984 C980 1.368 . S
C984 C983 1.523 . S
H985 C960 0.950 . S
H986 C962 0.950 . S
H987 C963 0.949 . S
H988 C965 0.950 . S
H989 C967 0.950 . S
C990 C991 1.349 . S
C990 C992 1.327 . S
C990 H1015 0.950 . S
C991 C990 1.349 . S
C991 C1007 1.349 . S
C992 C990 1.327 . S
C992 C1011 1.429 . S
C992 H1016 0.950 . S
C993 C1010 1.574 . S
C993 C1012 1.368 . S
C993 H1017 0.949 . S
H994 C998 0.949 . S
C995 C996 1.349 . S
C995 C997 1.327 . S
C995 H1018 0.950 . S
C996 C995 1.349 . S
C996 C1008 1.349 . S
C997 C995 1.327 . S
C997 C1013 1.429 . S
C997 H1019 0.950 . S
C998 H994 0.949 . S
C998 C1006 1.574 . S
C998 C1014 1.368 . S
H999 C1007 0.950 . S
H1000 C1005 0.950 . S
H1001 C1006 0.949 . S
H1002 C1008 0.950 . S
H1003 C1009 0.950 . S
H1004 C1010 0.949 . S
C1005 H1000 0.950 . S
C1005 C1007 1.327 . S
C1005 C1011 1.429 . S
C1006 C998 1.574 . S
C1006 H1001 0.949 . S
C1006 C1012 1.368 . S
C1007 C991 1.349 . S
C1007 H999 0.950 . S
C1007 C1005 1.327 . S
C1008 C996 1.349 . S
C1008 H1002 0.950 . S
C1008 C1009 1.327 . S
C1009 H1003 0.950 . S
C1009 C1008 1.327 . S
C1009 C1013 1.429 . S
C1010 C993 1.574 . S
C1010 H1004 0.949 . S
C1010 C1014 1.368 . S
C1011 C992 1.429 . S
C1011 C1005 1.429 . S
C1011 C1012 1.523 . S
C1012 C993 1.368 . S
C1012 C1006 1.368 . S
C1012 C1011 1.523 . S
C1013 C997 1.429 . S
C1013 C1009 1.429 . S
C1013 C1014 1.523 . S
C1014 C998 1.368 . S
C1014 C1010 1.368 . S
C1014 C1013 1.523 . S
H1015 C990 0.950 . S
H1016 C992 0.950 . S
H1017 C993 0.949 . S
H1018 C995 0.950 . S
H1019 C997 0.950 . S
C1020 C1021 1.349 . S
C1020 C1022 1.327 . S
C1020 H1045 0.950 . S
C1021 C1020 1.349 . S
C1021 C1037 1.349 . S
C1022 C1020 1.327 . S
C1022 C1041 1.429 . S
C1022 H1046 0.950 . S
C1023 C1040 1.574 . S
C1023 C1042 1.368 . S
C1023 H1047 0.949 . S
H1024 C1028 0.949 . S
C1025 C1026 1.349 . S
C1025 C1027 1.327 . S
C1025 H1048 0.950 . S
C1026 C1025 1.349 . S
C1026 C1038 1.349 . S
C1027 C1025 1.327 . S
C1027 C1043 1.429 . S
C1027 H1049 0.950 . S
C1028 H1024 0.949 . S
C1028 C1036 1.574 . S
C1028 C1044 1.368 1_554 S
H1029 C1037 0.950 . S
H1030 C1035 0.950 . S
H1031 C1036 0.949 . S
H1032 C1038 0.950 . S
H1033 C1039 0.950 . S
H1034 C1040 0.949 1_556 S
C1035 H1030 0.950 . S
C1035 C1037 1.327 . S
C1035 C1041 1.429 . S
C1036 C1028 1.574 . S
C1036 H1031 0.949 . S
C1036 C1042 1.368 . S
C1037 C1021 1.349 . S
C1037 H1029 0.950 . S
C1037 C1035 1.327 . S
C1038 C1026 1.349 . S
C1038 H1032 0.950 . S
C1038 C1039 1.327 . S
C1039 H1033 0.950 . S
C1039 C1038 1.327 . S
C1039 C1043 1.429 . S
C1040 C1023 1.574 . S
C1040 H1034 0.949 1_554 S
C1040 C1044 1.368 1_554 S
C1041 C1022 1.429 . S
C1041 C1035 1.429 . S
C1041 C1042 1.523 . S
C1042 C1023 1.368 . S
C1042 C1036 1.368 . S
C1042 C1041 1.523 . S
C1043 C1027 1.429 . S
C1043 C1039 1.429 . S
C1043 C1044 1.523 . S
C1044 C1028 1.368 1_556 S
C1044 C1040 1.368 1_556 S
C1044 C1043 1.523 . S
H1045 C1020 0.950 . S
H1046 C1022 0.950 . S
H1047 C1023 0.949 . S
H1048 C1025 0.950 . S
H1049 C1027 0.950 . S
C1050 C1051 1.349 . S
C1050 C1052 1.327 . S
C1050 H1075 0.950 . S
C1051 C1050 1.349 . S
C1051 C1067 1.349 . S
C1052 C1050 1.327 . S
C1052 C1071 1.429 . S
C1052 H1076 0.950 . S
C1053 C1070 1.574 . S
C1053 C1072 1.368 . S
C1053 H1077 0.949 . S
H1054 C1058 0.949 . S
C1055 C1056 1.349 . S
C1055 C1057 1.327 . S
C1055 H1078 0.950 . S
C1056 C1055 1.349 . S
C1056 C1068 1.349 . S
C1057 C1055 1.327 . S
C1057 C1073 1.429 . S
C1057 H1079 0.950 . S
C1058 H1054 0.949 . S
C1058 C1066 1.574 . S
C1058 C1074 1.368 . S
H1059 C1067 0.950 . S
H1060 C1065 0.950 . S
H1061 C1066 0.949 . S
H1062 C1068 0.950 . S
H1063 C1069 0.950 . S
H1064 C1070 0.949 . S
C1065 H1060 0.950 . S
C1065 C1067 1.327 . S
C1065 C1071 1.429 . S
C1066 C1058 1.574 . S
C1066 H1061 0.949 . S
C1066 C1072 1.368 . S
C1067 C1051 1.349 . S
C1067 H1059 0.950 . S
C1067 C1065 1.327 . S
C1068 C1056 1.349 . S
C1068 H1062 0.950 . S
C1068 C1069 1.327 . S
C1069 H1063 0.950 . S
C1069 C1068 1.327 . S
C1069 C1073 1.429 . S
C1070 C1053 1.574 . S
C1070 H1064 0.949 . S
C1070 C1074 1.368 . S
C1071 C1052 1.429 . S
C1071 C1065 1.429 . S
C1071 C1072 1.523 . S
C1072 C1053 1.368 . S
C1072 C1066 1.368 . S
C1072 C1071 1.523 . S
C1073 C1057 1.429 . S
C1073 C1069 1.429 . S
C1073 C1074 1.523 . S
C1074 C1058 1.368 . S
C1074 C1070 1.368 . S
C1074 C1073 1.523 . S
H1075 C1050 0.950 . S
H1076 C1052 0.950 . S
H1077 C1053 0.949 . S
H1078 C1055 0.950 . S
H1079 C1057 0.950 . S
C366 C346 1.603 . S
C361 C15 1.586 . S
C391 C61 1.588 . S
C396 C287 1.610 . S
C421 C114 1.565 . S
C426 C290 1.585 . S
C451 C139 1.595 . S
C456 C304 1.603 . S
C486 C329 1.610 . S
C481 C185 1.598 . S
C511 C245 1.565 . S
C516 C332 1.585 . S
C541 C47 1.556 . S
C546 C301 1.568 . S
C571 C100 1.575 . S
C576 C315 1.585 . S
C601 C153 1.543 . S
C606 C318 1.560 . S
C636 C343 1.568 . S
C631 C199 1.545 . S
C666 C357 1.585 . S
C661 C231 1.576 . S
C696 C276 1.560 . S
C691 C1 1.552 . S
C721 C22 1.457 . S
C726 C299 1.454 . S
C751 C68 1.479 . S
C756 C313 1.477 . S
C786 C323 1.482 . S
C781 C107 1.480 . S
C811 C146 1.460 . S
C816 C341 1.454 . S
C846 C355 1.477 . S
C841 C192 1.481 . S
C876 C281 1.483 . S
C871 C252 1.480 . S
C906 C351 1.515 . S
C901 C54 1.513 . S
C931 C93 1.488 . S
C936 C285 1.484 . S
C966 C295 1.493 . S
C961 C160 1.489 . S
C991 C206 1.513 . S
C996 C309 1.515 . S
C1021 C238 1.488 . S
C1026 C327 1.484 . S
C1051 C8 1.491 . S
C1056 C337 1.493 . S
