# Generated by pormake.
# Topology zzz, (3,6)-cn, num edge types: 1
# Building blocks:
#     Node 0, Type 0, BuildingBlock: VETTIZ_charged_linker_0, # of connection points: 3
#     Node 1, Type 0, BuildingBlock: VETTIZ_charged_linker_0, # of connection points: 3
#     Node 2, Type 0, BuildingBlock: VETTIZ_charged_linker_0, # of connection points: 3
#     Node 3, Type 0, BuildingBlock: VETTIZ_charged_linker_0, # of connection points: 3
#     Node 4, Type 0, BuildingBlock: VETTIZ_charged_linker_0, # of connection points: 3
#     Node 5, Type 0, BuildingBlock: VETTIZ_charged_linker_0, # of connection points: 3
#     Node 6, Type 0, BuildingBlock: VETTIZ_charged_linker_0, # of connection points: 3
#     Node 7, Type 0, BuildingBlock: VETTIZ_charged_linker_0, # of connection points: 3
#     Node 8, Type 1, BuildingBlock: CUKXOW_clean_sbu_0, # of connection points: 6
#     Node 9, Type 1, BuildingBlock: CUKXOW_clean_sbu_0, # of connection points: 6
#     Node 10, Type 1, BuildingBlock: CUKXOW_clean_sbu_0, # of connection points: 6
#     Node 11, Type 1, BuildingBlock: CUKXOW_clean_sbu_0, # of connection points: 6
#     Edge 12, Type (0, 1), BuildingBlock: ZUJKAS_clean_linker_0, # of connection points: 2
#     Edge 13, Type (0, 1), BuildingBlock: ZUJKAS_clean_linker_0, # of connection points: 2
#     Edge 14, Type (0, 1), BuildingBlock: ZUJKAS_clean_linker_0, # of connection points: 2
#     Edge 15, Type (0, 1), BuildingBlock: ZUJKAS_clean_linker_0, # of connection points: 2
#     Edge 16, Type (0, 1), BuildingBlock: ZUJKAS_clean_linker_0, # of connection points: 2
#     Edge 17, Type (0, 1), BuildingBlock: ZUJKAS_clean_linker_0, # of connection points: 2
#     Edge 18, Type (0, 1), BuildingBlock: ZUJKAS_clean_linker_0, # of connection points: 2
#     Edge 19, Type (0, 1), BuildingBlock: ZUJKAS_clean_linker_0, # of connection points: 2
#     Edge 20, Type (0, 1), BuildingBlock: ZUJKAS_clean_linker_0, # of connection points: 2
#     Edge 21, Type (0, 1), BuildingBlock: ZUJKAS_clean_linker_0, # of connection points: 2
#     Edge 22, Type (0, 1), BuildingBlock: ZUJKAS_clean_linker_0, # of connection points: 2
#     Edge 23, Type (0, 1), BuildingBlock: ZUJKAS_clean_linker_0, # of connection points: 2
#     Edge 24, Type (0, 1), BuildingBlock: ZUJKAS_clean_linker_0, # of connection points: 2
#     Edge 25, Type (0, 1), BuildingBlock: ZUJKAS_clean_linker_0, # of connection points: 2
#     Edge 26, Type (0, 1), BuildingBlock: ZUJKAS_clean_linker_0, # of connection points: 2
#     Edge 27, Type (0, 1), BuildingBlock: ZUJKAS_clean_linker_0, # of connection points: 2
#     Edge 28, Type (0, 1), BuildingBlock: ZUJKAS_clean_linker_0, # of connection points: 2
#     Edge 29, Type (0, 1), BuildingBlock: ZUJKAS_clean_linker_0, # of connection points: 2
#     Edge 30, Type (0, 1), BuildingBlock: ZUJKAS_clean_linker_0, # of connection points: 2
#     Edge 31, Type (0, 1), BuildingBlock: ZUJKAS_clean_linker_0, # of connection points: 2
#     Edge 32, Type (0, 1), BuildingBlock: ZUJKAS_clean_linker_0, # of connection points: 2
#     Edge 33, Type (0, 1), BuildingBlock: ZUJKAS_clean_linker_0, # of connection points: 2
#     Edge 34, Type (0, 1), BuildingBlock: ZUJKAS_clean_linker_0, # of connection points: 2
#     Edge 35, Type (0, 1), BuildingBlock: ZUJKAS_clean_linker_0, # of connection points: 2
# Relax obj value: 0.223
# Max RMSD: 0.236
# Mean RMSD: 0.191
data_MOF--net-zzz--node1-CUKXOW_clean_sbu_0--node2-VETTIZ_charged_linker_0--edge1-ZUJKAS_clean_linker_0
_symmetry_space_group_name_H-M    P1
_symmetry_Int_Tables_number       1
_symmetry_cell_setting            triclinic
loop_
_symmetry_equiv_pos_as_xyz
'x, y, z'
_cell_length_a     72.210055
_cell_length_b     70.222763
_cell_length_c     25.287555
_cell_angle_alpha  92.326018
_cell_angle_beta   88.446407
_cell_angle_gamma 95.345389
loop_
_atom_site_label
_atom_site_type_symbol
_atom_site_fract_x
_atom_site_fract_y
_atom_site_fract_z
_atom_type_partial_charge
C0 C 0.78848 0.46508 0.24638 0.0
C1 C 0.80433 0.45723 0.26448 0.0
C2 C 0.81268 0.44342 0.23242 0.0
C3 C 0.79096 0.44681 0.1632 0.0
C4 C 0.78179 0.45932 0.19579 0.0
C5 C 0.76463 0.46515 0.16988 0.0
H6 H 0.71444 0.46504 0.94527 0.0
C7 C 0.78186 0.44497 0.1116 0.0
C8 C 0.76612 0.45534 0.11515 0.0
H9 H 0.6999 0.48858 0.0997 0.0
H10 H 0.72798 0.47796 0.13548 0.0
H11 H 0.75632 0.47982 0.94697 0.0
H12 H 0.72738 0.42568 0.98488 0.0
H13 H 0.7473 0.42101 0.94657 0.0
H14 H 0.72995 0.43429 0.91893 0.0
H15 H 0.74948 0.46208 0.89654 0.0
H16 H 0.77164 0.46267 0.9283 0.0
C17 C 0.76627 0.48718 0.16701 0.0
C18 C 0.74731 0.45687 0.20161 0.0
C19 C 0.8164 0.41628 0.95514 0.0
C20 C 0.81371 0.41609 0.90031 0.0
C21 C 0.79689 0.42165 0.88162 0.0
C22 C 0.78336 0.42818 0.917 0.0
C23 C 0.78683 0.4295 0.9716 0.0
C24 C 0.80298 0.42324 0.98983 0.0
C25 C 0.80497 0.42679 0.04849 0.0
C26 C 0.78751 0.43663 0.06239 0.0
C27 C 0.77696 0.43812 0.01733 0.0
C28 C 0.82296 0.44032 0.05744 0.0
C29 C 0.80477 0.40715 0.07467 0.0
C30 C 0.71732 0.46808 0.98674 0.0
C31 C 0.70504 0.47782 0.01955 0.0
C32 C 0.70916 0.48107 0.07361 0.0
C33 C 0.72542 0.47488 0.09427 0.0
C34 C 0.73756 0.46515 0.06063 0.0
C35 C 0.73327 0.46185 0.00789 0.0
C36 C 0.74741 0.45116 0.97757 0.0
C37 C 0.76065 0.44793 0.021 0.0
C38 C 0.75508 0.45637 0.06963 0.0
C39 C 0.75668 0.46444 0.93482 0.0
C40 C 0.7376 0.43205 0.95535 0.0
H41 H 0.81334 0.4279 0.15934 0.0
H42 H 0.78157 0.47541 0.27089 0.0
H43 H 0.74971 0.44291 0.21834 0.0
H44 H 0.73499 0.45368 0.17671 0.0
H45 H 0.74385 0.46674 0.23512 0.0
H46 H 0.78022 0.49247 0.151 0.0
H47 H 0.76445 0.49403 0.20695 0.0
H48 H 0.75601 0.49228 0.14069 0.0
H49 H 0.82933 0.41245 0.97064 0.0
H50 H 0.79451 0.42156 0.83949 0.0
H51 H 0.77103 0.4326 0.90028 0.0
H52 H 0.8241 0.45194 0.02858 0.0
H53 H 0.83553 0.43238 0.05212 0.0
H54 H 0.82347 0.4477 0.09666 0.0
H55 H 0.79789 0.39534 0.04946 0.0
H56 H 0.79663 0.40671 0.11247 0.0
H57 H 0.8191 0.40349 0.08183 0.0
H58 H 0.82484 0.43717 0.24561 0.0
C59 C 0.80607 0.43816 0.18213 0.0
C60 C 0.91112 0.80406 0.92909 0.0
C61 C 0.9045 0.82222 0.93764 0.0
C62 C 0.89426 0.82584 0.98476 0.0
C63 C 0.90167 0.79581 0.01855 0.0
C64 C 0.90937 0.79105 0.96985 0.0
C65 C 0.91654 0.7716 0.96878 0.0
H66 H 0.94086 0.69631 0.10102 0.0
C67 C 0.90521 0.78091 0.05551 0.0
C68 C 0.91342 0.76639 0.02635 0.0
H69 H 0.94167 0.70408 0.93217 0.0
H70 H 0.92867 0.73417 0.94607 0.0
H71 H 0.95634 0.73909 0.12981 0.0
H72 H 0.89969 0.71351 0.12927 0.0
H73 H 0.90389 0.72701 0.18906 0.0
H74 H 0.91697 0.70686 0.17313 0.0
H75 H 0.94677 0.72494 0.1832 0.0
H76 H 0.94429 0.75026 0.18162 0.0
C77 C 0.93751 0.77384 0.95301 0.0
C78 C 0.90433 0.75812 0.93084 0.0
C79 C 0.90234 0.79741 0.25179 0.0
C80 C 0.90923 0.78918 0.29604 0.0
C81 C 0.91557 0.77078 0.28997 0.0
C82 C 0.91571 0.76116 0.24006 0.0
C83 C 0.90986 0.77022 0.19559 0.0
C84 C 0.90303 0.78792 0.20224 0.0
C85 C 0.89879 0.79627 0.15068 0.0
C86 C 0.9044 0.78075 0.11163 0.0
C87 C 0.91087 0.76547 0.13798 0.0
C88 C 0.9114 0.81528 0.14551 0.0
C89 C 0.87765 0.79853 0.14964 0.0
C90 C 0.93807 0.70452 0.06726 0.0
C91 C 0.94239 0.69793 0.01543 0.0
C92 C 0.93871 0.70901 0.97241 0.0
C93 C 0.93101 0.72642 0.98051 0.0
C94 C 0.92708 0.73306 0.03225 0.0
C95 C 0.93051 0.72221 0.07474 0.0
C96 C 0.92585 0.73214 0.12685 0.0
C97 C 0.91813 0.75011 0.10813 0.0
C98 C 0.91921 0.75058 0.05267 0.0
C99 C 0.94415 0.7368 0.15743 0.0
C100 C 0.91086 0.71923 0.15659 0.0
H101 H 0.88568 0.81667 0.06119 0.0
H102 H 0.91873 0.80051 0.89315 0.0
H103 H 0.89065 0.76362 0.9243 0.0
H104 H 0.90078 0.74379 0.94717 0.0
H105 H 0.91128 0.75643 0.89142 0.0
H106 H 0.94469 0.78649 0.97432 0.0
H107 H 0.93952 0.77592 0.90986 0.0
H108 H 0.94496 0.76154 0.96333 0.0
H109 H 0.89773 0.81166 0.25478 0.0
H110 H 0.92086 0.76408 0.32357 0.0
H111 H 0.92093 0.74732 0.23764 0.0
H112 H 0.9259 0.81336 0.15654 0.0
H113 H 0.90631 0.82676 0.17206 0.0
H114 H 0.91249 0.82061 0.10519 0.0
H115 H 0.86957 0.78844 0.17636 0.0
H116 H 0.87181 0.79503 0.10999 0.0
H117 H 0.87461 0.81325 0.1625 0.0
H118 H 0.88819 0.83928 0.99158 0.0
C119 C 0.8928 0.81271 0.02521 0.0
C120 C 0.80037 0.99599 0.10888 0.0
C121 C 0.80721 0.99652 0.05608 0.0
C122 C 0.7948 0.99224 0.01445 0.0
C123 C 0.76926 0.98643 0.07712 0.0
C124 C 0.78122 0.99105 0.1185 0.0
C125 C 0.77084 0.99047 0.17142 0.0
H126 H 0.68926 0.96408 0.30388 0.0
C127 C 0.75062 0.98069 0.09929 0.0
C128 C 0.75138 0.98254 0.1548 0.0
H129 H 0.73691 0.99776 0.36867 0.0
H130 H 0.75371 0.99473 0.28381 0.0
H131 H 0.68514 0.98534 0.22132 0.0
H132 H 0.71212 0.93421 0.22175 0.0
H133 H 0.69905 0.93313 0.16366 0.0
H134 H 0.68754 0.93623 0.22732 0.0
H135 H 0.67321 0.96316 0.19925 0.0
H136 H 0.68575 0.97909 0.15379 0.0
C137 C 0.77108 0.01121 0.19474 0.0
C138 C 0.77969 0.97682 0.20756 0.0
C139 C 0.69528 0.96688 0.97978 0.0
C140 C 0.6765 0.96084 0.99127 0.0
C141 C 0.67179 0.9525 0.04016 0.0
C142 C 0.68501 0.95242 0.0794 0.0
C143 C 0.70311 0.96078 0.06971 0.0
C144 C 0.70839 0.96659 0.01962 0.0
C145 C 0.72873 0.97369 0.01637 0.0
C146 C 0.73395 0.97335 0.0743 0.0
C147 C 0.71875 0.96613 0.10516 0.0
C148 C 0.73058 0.99432 0.99614 0.0
C149 C 0.73892 0.95919 0.98087 0.0
C150 C 0.70351 0.97037 0.30037 0.0
C151 C 0.71192 0.98081 0.34299 0.0
C152 C 0.73021 0.98952 0.33623 0.0
C153 C 0.7398 0.98793 0.28697 0.0
C154 C 0.73068 0.97819 0.24378 0.0
C155 C 0.71275 0.96975 0.25131 0.0
C156 C 0.7039 0.96237 0.2008 0.0
C157 C 0.7193 0.96794 0.16109 0.0
C158 C 0.73528 0.97664 0.18613 0.0
C159 C 0.68608 0.97285 0.1932 0.0
C160 C 0.70029 0.94032 0.20329 0.0
H161 H 0.7673 0.984 0.99113 0.0
H162 H 0.80965 0.9995 0.1415 0.0
H163 H 0.78084 0.96271 0.18671 0.0
H164 H 0.77137 0.97411 0.24419 0.0
H165 H 0.79388 0.98279 0.21893 0.0
H166 H 0.77094 0.02165 0.16283 0.0
H167 H 0.78374 0.01518 0.21821 0.0
H168 H 0.75861 0.01349 0.21959 0.0
H169 H 0.69943 0.973 0.94218 0.0
H170 H 0.65758 0.94702 0.04918 0.0
H171 H 0.6804 0.94673 0.11664 0.0
H172 H 0.7203 0.00301 0.01697 0.0
H173 H 0.728 0.99428 0.95303 0.0
H174 H 0.74436 0.00203 0.00337 0.0
H175 H 0.73042 0.94524 0.97524 0.0
H176 H 0.75193 0.95555 0.99876 0.0
H177 H 0.74224 0.96474 0.94087 0.0
H178 H 0.79981 0.99255 0.97366 0.0
C179 C 0.77596 0.98711 0.02465 0.0
C180 C 0.59687 0.72177 0.28631 0.0
C181 C 0.60075 0.7031 0.29812 0.0
C182 C 0.60869 0.69159 0.25831 0.0
C183 C 0.60663 0.71606 0.19485 0.0
C184 C 0.60025 0.72807 0.23449 0.0
C185 C 0.59735 0.74747 0.21405 0.0
H186 H 0.59465 0.80368 0.00187 0.0
C187 C 0.60687 0.72586 0.14442 0.0
C188 C 0.60196 0.74453 0.15525 0.0
H189 H 0.5852 0.8198 0.16638 0.0
H190 H 0.59132 0.78806 0.1918 0.0
H191 H 0.63055 0.77832 0.01728 0.0
H192 H 0.57146 0.76632 0.00472 0.0
H193 H 0.58068 0.74548 0.97979 0.0
H194 H 0.58638 0.7677 0.94701 0.0
H195 H 0.61771 0.78117 0.95869 0.0
H196 H 0.62607 0.75856 0.97254 0.0
C197 C 0.61138 0.76252 0.24123 0.0
C198 C 0.57675 0.75117 0.22401 0.0
C199 C 0.60936 0.68611 0.97342 0.0
C200 C 0.60597 0.69007 0.92067 0.0
C201 C 0.60544 0.70928 0.90704 0.0
C202 C 0.607 0.72411 0.94602 0.0
C203 C 0.60881 0.71967 0.9993 0.0
C204 C 0.61051 0.70099 0.01195 0.0
C205 C 0.61144 0.69866 0.07062 0.0
C206 C 0.60913 0.71894 0.09134 0.0
C207 C 0.60763 0.73115 0.04948 0.0
C208 C 0.63085 0.69234 0.08289 0.0
C209 C 0.59484 0.68435 0.08739 0.0
C210 C 0.59433 0.80055 0.04351 0.0
C211 C 0.58976 0.81434 0.08224 0.0
C212 C 0.58877 0.80942 0.13584 0.0
C213 C 0.59238 0.79102 0.15049 0.0
C214 C 0.59681 0.77735 0.11104 0.0
C215 C 0.59769 0.78229 0.05859 0.0
C216 C 0.60147 0.7658 0.02146 0.0
C217 C 0.60364 0.75034 0.06028 0.0
C218 C 0.6008 0.75706 0.1128 0.0
C219 C 0.61986 0.77116 0.99042 0.0
C220 C 0.58425 0.76105 0.98607 0.0
H221 H 0.6173 0.68833 0.17826 0.0
H222 H 0.59111 0.73108 0.31643 0.0
H223 H 0.56744 0.73813 0.21335 0.0
H224 H 0.57234 0.76257 0.19979 0.0
H225 H 0.57404 0.755 0.26639 0.0
H226 H 0.62478 0.75643 0.24781 0.0
H227 H 0.60589 0.76745 0.28038 0.0
H228 H 0.61516 0.77504 0.21682 0.0
H229 H 0.6096 0.67152 0.98547 0.0
H230 H 0.60308 0.71273 0.86656 0.0
H231 H 0.60599 0.73838 0.93347 0.0
H232 H 0.64124 0.69587 0.05062 0.0
H233 H 0.63023 0.67666 0.08797 0.0
H234 H 0.63685 0.69991 0.1187 0.0
H235 H 0.58186 0.68765 0.06833 0.0
H236 H 0.59168 0.68478 0.13019 0.0
H237 H 0.59744 0.66943 0.07532 0.0
H238 H 0.61175 0.67717 0.26617 0.0
C239 C 0.61173 0.698 0.20701 0.0
C240 C 0.30098 0.53506 0.31598 0.0
C241 C 0.3095 0.54121 0.36401 0.0
C242 C 0.30051 0.55359 0.39923 0.0
C243 C 0.27493 0.55357 0.33958 0.0
C244 C 0.28379 0.5417 0.30419 0.0
C245 C 0.27287 0.53761 0.25415 0.0
H246 H 0.19693 0.55415 0.11405 0.0
C247 C 0.25755 0.55822 0.31608 0.0
C248 C 0.25638 0.54937 0.26522 0.0
H249 H 0.23821 0.51555 0.06863 0.0
H250 H 0.25501 0.5247 0.14941 0.0
H251 H 0.19055 0.54061 0.21824 0.0
H252 H 0.22502 0.58952 0.16743 0.0
H253 H 0.21293 0.59666 0.22527 0.0
H254 H 0.20004 0.58716 0.16842 0.0
H255 H 0.18156 0.56343 0.21548 0.0
H256 H 0.19154 0.55579 0.27484 0.0
C257 C 0.26679 0.5159 0.24997 0.0
C258 C 0.28504 0.54504 0.2068 0.0
C259 C 0.20937 0.59015 0.42967 0.0
C260 C 0.19126 0.59458 0.41879 0.0
C261 C 0.18593 0.59472 0.36555 0.0
C262 C 0.19766 0.58879 0.32448 0.0
C263 C 0.21484 0.5824 0.33655 0.0
C264 C 0.22089 0.58404 0.38798 0.0
C265 C 0.23981 0.57694 0.39266 0.0
C266 C 0.24313 0.56907 0.3365 0.0
C267 C 0.22839 0.57223 0.30417 0.0
C268 C 0.23834 0.56094 0.4334 0.0
C269 C 0.25387 0.59432 0.40735 0.0
C270 C 0.20987 0.54803 0.12067 0.0
C271 C 0.21649 0.53446 0.08453 0.0
C272 C 0.23294 0.52618 0.09584 0.0
C273 C 0.24261 0.53147 0.14273 0.0
C274 C 0.23548 0.54485 0.1791 0.0
C275 C 0.21929 0.55274 0.16752 0.0
C276 C 0.2124 0.56509 0.21212 0.0
C277 C 0.22733 0.5638 0.25232 0.0
C278 C 0.24104 0.55215 0.23293 0.0
C279 C 0.19301 0.55595 0.2312 0.0
C280 C 0.21242 0.58572 0.19255 0.0
H281 H 0.27721 0.56905 0.416 0.0
H282 H 0.30769 0.52567 0.28804 0.0
H283 H 0.29188 0.55958 0.21646 0.0
H284 H 0.27695 0.54646 0.17106 0.0
H285 H 0.29614 0.53545 0.19681 0.0
H286 H 0.26282 0.51032 0.28965 0.0
H287 H 0.27826 0.50781 0.23341 0.0
H288 H 0.25435 0.51246 0.22576 0.0
H289 H 0.21403 0.59035 0.47004 0.0
H290 H 0.17211 0.59799 0.35564 0.0
H291 H 0.19245 0.58844 0.28516 0.0
H292 H 0.22594 0.55066 0.42571 0.0
H293 H 0.23692 0.56703 0.47438 0.0
H294 H 0.25039 0.55237 0.4318 0.0
H295 H 0.24837 0.6082 0.39949 0.0
H296 H 0.26694 0.59432 0.38327 0.0
H297 H 0.25729 0.59468 0.44997 0.0
H298 H 0.30675 0.55837 0.43654 0.0
C299 C 0.28334 0.55977 0.38731 0.0
C300 C 0.10254 0.2035 0.44597 0.0
C301 C 0.10305 0.18355 0.43951 0.0
C302 C 0.10887 0.17584 0.3901 0.0
C303 C 0.10936 0.20696 0.35226 0.0
C304 C 0.10561 0.21491 0.40179 0.0
C305 C 0.10321 0.23594 0.39991 0.0
H306 H 0.08177 0.30969 0.25816 0.0
C307 C 0.10784 0.22166 0.31294 0.0
C308 C 0.1044 0.23874 0.34045 0.0
H309 H 0.09313 0.3092 0.4252 0.0
H310 H 0.10213 0.27714 0.41433 0.0
H311 H 0.11936 0.28777 0.22025 0.0
H312 H 0.06185 0.26676 0.24664 0.0
H313 H 0.07019 0.25551 0.18859 0.0
H314 H 0.06923 0.28109 0.19135 0.0
H315 H 0.10116 0.2935 0.17824 0.0
H316 H 0.11227 0.27167 0.16786 0.0
C317 C 0.11959 0.24729 0.42926 0.0
C318 C 0.08373 0.23939 0.42368 0.0
C319 C 0.10364 0.20027 0.11985 0.0
C320 C 0.09749 0.20865 0.07487 0.0
C321 C 0.09331 0.22789 0.07873 0.0
C322 C 0.09498 0.23847 0.1271 0.0
C323 C 0.10049 0.22959 0.1723 0.0
C324 C 0.10479 0.2108 0.16789 0.0
C325 C 0.10877 0.20293 0.22023 0.0
C326 C 0.10653 0.22019 0.25701 0.0
C327 C 0.10181 0.23585 0.22889 0.0
C328 C 0.12912 0.19762 0.21838 0.0
C329 C 0.09397 0.18589 0.23138 0.0
C330 C 0.08618 0.30259 0.29228 0.0
C331 C 0.08662 0.31194 0.34268 0.0
C332 C 0.09278 0.30239 0.38597 0.0
C333 C 0.09786 0.28371 0.37975 0.0
C334 C 0.09666 0.2743 0.32987 0.0
C335 C 0.09153 0.28387 0.2867 0.0
C336 C 0.09229 0.2717 0.23626 0.0
C337 C 0.09863 0.25332 0.2567 0.0
C338 C 0.10058 0.25486 0.31188 0.0
C339 C 0.10693 0.28163 0.19821 0.0
C340 C 0.07243 0.26861 0.214 0.0
H341 H 0.11568 0.18062 0.30955 0.0
H342 H 0.09857 0.20988 0.48381 0.0
H343 H 0.07294 0.22869 0.40674 0.0
H344 H 0.07931 0.25353 0.41538 0.0
H345 H 0.08336 0.23806 0.46732 0.0
H346 H 0.13142 0.23848 0.43409 0.0
H347 H 0.1152 0.25232 0.46948 0.0
H348 H 0.12559 0.25976 0.40693 0.0
H349 H 0.10639 0.18535 0.11863 0.0
H350 H 0.08849 0.23462 0.04452 0.0
H351 H 0.09142 0.25299 0.12781 0.0
H352 H 0.13845 0.20882 0.19852 0.0
H353 H 0.13031 0.18384 0.19593 0.0
H354 H 0.13484 0.19667 0.2582 0.0
H355 H 0.08173 0.18569 0.2055 0.0
H356 H 0.08794 0.18666 0.27201 0.0
H357 H 0.09987 0.17191 0.2247 0.0
H358 H 0.10945 0.16056 0.38373 0.0
C359 C 0.11216 0.18747 0.34661 0.0
C360 C 0.29087 0.01962 0.0442 0.0
C361 C 0.30894 0.02707 0.0281 0.0
C362 C 0.31976 0.03904 0.06363 0.0
C363 C 0.29661 0.03306 0.13275 0.0
C364 C 0.28476 0.02339 0.09683 0.0
C365 C 0.26573 0.01839 0.12224 0.0
H366 H 0.21437 0.01166 0.35327 0.0
C367 C 0.28782 0.03218 0.18563 0.0
C368 C 0.26936 0.02423 0.18027 0.0
H369 H 0.19356 0.00272 0.19466 0.0
H370 H 0.22495 0.00964 0.15841 0.0
H371 H 0.24831 0.98869 0.33322 0.0
H372 H 0.24238 0.04888 0.33433 0.0
H373 H 0.26217 0.04524 0.3709 0.0
H374 H 0.23974 0.03437 0.39145 0.0
H375 H 0.25031 0.00313 0.39313 0.0
H376 H 0.27027 0.99956 0.3505 0.0
C377 C 0.26035 0.99669 0.11459 0.0
C378 C 0.25185 0.03084 0.09781 0.0
C379 C 0.33056 0.03682 0.34136 0.0
C380 C 0.32784 0.03117 0.39378 0.0
C381 C 0.30955 0.02781 0.41434 0.0
C382 C 0.29426 0.02853 0.38156 0.0
C383 C 0.29734 0.03235 0.32763 0.0
C384 C 0.31526 0.03687 0.30878 0.0
C385 C 0.31623 0.03939 0.25008 0.0
C386 C 0.29587 0.03477 0.23625 0.0
C387 C 0.28493 0.03075 0.28172 0.0
C388 C 0.32882 0.0245 0.22519 0.0
C389 C 0.32334 0.0605 0.23971 0.0
C390 C 0.21644 0.01103 0.31068 0.0
C391 C 0.20138 0.00661 0.27697 0.0
C392 C 0.20486 0.00629 0.22165 0.0
C393 C 0.22304 0.01038 0.20066 0.0
C394 C 0.23786 0.01505 0.23528 0.0
C395 C 0.23433 0.01517 0.28932 0.0
C396 C 0.25155 0.02001 0.32079 0.0
C397 C 0.26583 0.02431 0.27698 0.0
C398 C 0.25795 0.02109 0.22666 0.0
C399 C 0.25535 0.00206 0.35132 0.0
C400 C 0.2489 0.03802 0.35663 0.0
H401 H 0.32264 0.05104 0.14114 0.0
H402 H 0.28199 0.01102 0.01688 0.0
H403 H 0.25873 0.04515 0.08806 0.0
H404 H 0.24029 0.03389 0.12539 0.0
H405 H 0.24609 0.02397 0.06067 0.0
H406 H 0.27178 0.9885 0.12753 0.0
H407 H 0.25771 0.99275 0.07229 0.0
H408 H 0.24779 0.99184 0.138 0.0
H409 H 0.34448 0.03995 0.32504 0.0
H410 H 0.3071 0.02353 0.45478 0.0
H411 H 0.28067 0.02531 0.39893 0.0
H412 H 0.32418 0.00994 0.23893 0.0
H413 H 0.34352 0.02801 0.2366 0.0
H414 H 0.32877 0.02351 0.18173 0.0
H415 H 0.32352 0.06979 0.27644 0.0
H416 H 0.31419 0.06712 0.21253 0.0
H417 H 0.33776 0.06162 0.22288 0.0
H418 H 0.33353 0.04518 0.05197 0.0
C419 C 0.3136 0.04221 0.11557 0.0
C420 C 0.41955 0.28359 0.08806 0.0
C421 C 0.41635 0.30263 0.07831 0.0
C422 C 0.40653 0.31313 0.11644 0.0
C423 C 0.40667 0.28753 0.17712 0.0
C424 C 0.41443 0.27626 0.13801 0.0
C425 C 0.41726 0.25671 0.15772 0.0
H426 H 0.42277 0.20104 0.36958 0.0
C427 C 0.40569 0.27731 0.22689 0.0
C428 C 0.41137 0.25894 0.21593 0.0
H429 H 0.43137 0.1847 0.20488 0.0
H430 H 0.42263 0.21557 0.17909 0.0
H431 H 0.44284 0.23991 0.36633 0.0
H432 H 0.3846 0.22246 0.35354 0.0
H433 H 0.38694 0.24295 0.39633 0.0
H434 H 0.39744 0.22175 0.41315 0.0
H435 H 0.42805 0.23674 0.4239 0.0
H436 H 0.43182 0.25946 0.39258 0.0
C437 C 0.43809 0.25347 0.15087 0.0
C438 C 0.4041 0.24167 0.12741 0.0
C439 C 0.40194 0.31645 0.39855 0.0
C440 C 0.40546 0.3124 0.45114 0.0
C441 C 0.4057 0.29312 0.46454 0.0
C442 C 0.40417 0.27837 0.42531 0.0
C443 C 0.40266 0.28297 0.37204 0.0
C444 C 0.40082 0.30165 0.35975 0.0
C445 C 0.40025 0.30417 0.30109 0.0
C446 C 0.40285 0.28398 0.27999 0.0
C447 C 0.40439 0.27171 0.32167 0.0
C448 C 0.41687 0.31871 0.28571 0.0
C449 C 0.38087 0.31039 0.28796 0.0
C450 C 0.42274 0.20407 0.3279 0.0
C451 C 0.42797 0.19057 0.28924 0.0
C452 C 0.42742 0.19493 0.23537 0.0
C453 C 0.4224 0.21284 0.22055 0.0
C454 C 0.41783 0.22645 0.26004 0.0
C455 C 0.41772 0.22172 0.3126 0.0
C456 C 0.41264 0.23774 0.34961 0.0
C457 C 0.40932 0.25284 0.31074 0.0
C458 C 0.41261 0.24634 0.2582 0.0
C459 C 0.42956 0.2438 0.3853 0.0
C460 C 0.39452 0.23096 0.38024 0.0
H461 H 0.39461 0.31455 0.19344 0.0
H462 H 0.4267 0.27508 0.05879 0.0
H463 H 0.39095 0.24768 0.1176 0.0
H464 H 0.39966 0.22911 0.15116 0.0
H465 H 0.4107 0.2368 0.08966 0.0
H466 H 0.44692 0.26623 0.16613 0.0
H467 H 0.44189 0.25099 0.10845 0.0
H468 H 0.44198 0.24127 0.17285 0.0
H469 H 0.40182 0.33106 0.38663 0.0
H470 H 0.40804 0.28954 0.50493 0.0
H471 H 0.40524 0.26409 0.43761 0.0
H472 H 0.42975 0.3154 0.30528 0.0
H473 H 0.41409 0.33354 0.2982 0.0
H474 H 0.42035 0.31862 0.24313 0.0
H475 H 0.37039 0.30714 0.32018 0.0
H476 H 0.37498 0.30256 0.25239 0.0
H477 H 0.38152 0.32602 0.28189 0.0
H478 H 0.40346 0.32759 0.10906 0.0
C479 C 0.40148 0.3056 0.16545 0.0
Tb480 Tb 0.99379 0.985 0.63821 0.0
C481 C 0.0347 0.99925 0.60286 0.0
Tb482 Tb 0.01606 0.01575 0.70988 0.0
O483 O 0.993 0.00544 0.57526 0.0
O484 O 0.99458 0.01466 0.65448 0.0
O485 O 0.02075 0.98561 0.59735 0.0
C486 C 0.03418 0.04785 0.74978 0.0
O487 O 0.03502 0.0129 0.64114 0.0
C488 C 0.014 0.98031 0.74074 0.0
C489 C 0.97525 0.0018 0.7449 0.0
O490 O 0.03841 0.03061 0.75746 0.0
O491 O 0.01978 0.04693 0.72005 0.0
O492 O 0.01598 0.99524 0.77299 0.0
O493 O 0.01502 0.98599 0.69411 0.0
O494 O 0.98871 0.01606 0.74813 0.0
O495 O 0.97557 0.9874 0.7089 0.0
C496 C 0.97586 0.95256 0.60005 0.0
O497 O 0.96899 0.96903 0.60431 0.0
O498 O 0.9928 0.9545 0.61648 0.0
C499 C 0.9951 0.02026 0.60783 0.0
Tb500 Tb 0.50375 0.01725 0.64362 0.0
C501 C 0.54138 0.99869 0.62738 0.0
Tb502 Tb 0.51163 0.98451 0.71704 0.0
O503 O 0.52678 0.03604 0.67709 0.0
O504 O 0.51286 0.01474 0.72134 0.0
O505 O 0.52881 0.00802 0.60408 0.0
C506 C 0.52586 0.96179 0.78456 0.0
O507 O 0.53808 0.99037 0.67348 0.0
C508 C 0.48848 0.97473 0.64008 0.0
C509 C 0.47407 0.00315 0.73366 0.0
O510 O 0.51929 0.97799 0.79729 0.0
O511 O 0.52419 0.95831 0.73403 0.0
O512 O 0.48868 0.96563 0.68377 0.0
O513 O 0.50235 0.98702 0.63952 0.0
O514 O 0.48664 0.99376 0.75677 0.0
O515 O 0.47735 0.01153 0.68761 0.0
C516 C 0.4894 0.0397 0.5756 0.0
O517 O 0.49592 0.02345 0.5633 0.0
O518 O 0.49121 0.04342 0.626 0.0
C519 C 0.52672 0.02702 0.72099 0.0
Tb520 Tb 0.51643 0.51764 0.64701 0.0
C521 C 0.47417 0.50504 0.63008 0.0
Tb522 Tb 0.49751 0.48467 0.71393 0.0
O523 O 0.51247 0.49928 0.57516 0.0
O524 O 0.51597 0.48762 0.64808 0.0
O525 O 0.48763 0.51921 0.62629 0.0
C526 C 0.48105 0.45146 0.74721 0.0
O527 O 0.47576 0.48959 0.65798 0.0
C528 C 0.50152 0.51878 0.76087 0.0
C529 C 0.53968 0.49758 0.73182 0.0
O530 O 0.47694 0.46833 0.76395 0.0
O531 O 0.49443 0.45335 0.71209 0.0
O532 O 0.50122 0.50295 0.78599 0.0
O533 O 0.49808 0.51468 0.71307 0.0
O534 O 0.52627 0.48335 0.73573 0.0
O535 O 0.53809 0.51288 0.70328 0.0
C536 C 0.53302 0.55062 0.61253 0.0
O537 O 0.53698 0.53365 0.59621 0.0
O538 O 0.51973 0.54896 0.64799 0.0
C539 C 0.51247 0.4835 0.60035 0.0
Tb540 Tb 0.98989 0.50218 0.65214 0.0
C541 C 0.01751 0.47078 0.61525 0.0
Tb542 Tb 0.02312 0.49523 0.72176 0.0
O543 O 0.00443 0.52907 0.62514 0.0
O544 O 0.01917 0.50673 0.6477 0.0
O545 O 1.00085 0.47722 0.61092 0.0
C546 C 0.05551 0.49898 0.77199 0.0
O547 O 0.02958 0.4779 0.65143 0.0
C548 C 0.99214 0.47359 0.7385 0.0
C549 C 0.9958 0.52702 0.75776 0.0
O550 O 0.04349 0.48404 0.77238 0.0
O551 O 0.0492 0.51188 0.7438 0.0
O552 O 0.00842 0.46831 0.74839 0.0
O553 O 0.99388 0.49079 0.72624 0.0
O554 O 0.01243 0.52049 0.76217 0.0
O555 O 0.98359 0.51981 0.72204 0.0
C556 C 0.95744 0.49743 0.60222 0.0
O557 O 0.96932 0.51248 0.60025 0.0
O558 O 0.96393 0.48507 0.63184 0.0
C559 C 0.02076 0.52395 0.63535 0.0
H560 H 0.16856 0.01858 0.243 0.0
H561 H 0.13811 0.01573 0.28878 0.0
H562 H 0.16075 0.98441 0.41125 0.0
H563 H 0.19075 0.98624 0.36447 0.0
H564 H 0.12669 0.96964 0.38999 0.0
H565 H 0.12648 0.04846 0.41717 0.0
H566 H 0.12749 0.04013 0.34922 0.0
H567 H 0.14655 0.03731 0.39173 0.0
C568 C 0.16695 0.01075 0.2791 0.0
C569 C 0.18224 0.00294 0.30047 0.0
C570 C 0.14958 0.00938 0.3057 0.0
C571 C 0.14723 0.00036 0.35442 0.0
C572 C 0.16221 0.99166 0.37415 0.0
H573 H 0.06906 0.01914 0.61122 0.0
H574 H 0.09541 0.01885 0.54858 0.0
C575 C 0.17944 0.99286 0.34747 0.0
C576 C 0.1295 0.00034 0.38611 0.0
H577 H 0.10017 0.02972 0.44981 0.0
C578 C 0.12084 0.98278 0.40287 0.0
C579 C 0.122 0.0175 0.40371 0.0
C580 C 0.13117 0.03693 0.39003 0.0
C581 C 0.10515 0.98189 0.43717 0.0
C582 C 0.09746 0.99903 0.45404 0.0
C583 C 0.10595 0.01657 0.43667 0.0
C584 C 0.08118 0.9992 0.49162 0.0
C585 C 0.09749 0.96263 0.45667 0.0
C586 C 0.06425 0.98846 0.4804 0.0
C587 C 0.04921 0.98837 0.51662 0.0
C588 C 0.05066 0.99932 0.56444 0.0
C589 C 0.06746 0.01048 0.57492 0.0
C590 C 0.08255 0.01036 0.53902 0.0
H591 H 0.10792 0.95196 0.45244 0.0
H592 H 0.09293 0.96369 0.49889 0.0
H593 H 0.0853 0.95716 0.43288 0.0
H594 H 0.0626 0.98019 0.44349 0.0
H595 H 0.0364 0.97986 0.50681 0.0
H596 H 0.41739 0.15383 0.25301 0.0
H597 H 0.42654 0.12395 0.28818 0.0
H598 H 0.46231 0.15678 0.39896 0.0
H599 H 0.45339 0.18644 0.36402 0.0
H600 H 0.47817 0.12454 0.34359 0.0
H601 H 0.40887 0.10582 0.43996 0.0
H602 H 0.40965 0.11109 0.37079 0.0
H603 H 0.41607 0.12974 0.41919 0.0
C604 C 0.42738 0.15459 0.28437 0.0
C605 C 0.43455 0.17242 0.30617 0.0
C606 C 0.43249 0.13757 0.30463 0.0
C607 C 0.44493 0.13821 0.34656 0.0
C608 C 0.45263 0.15599 0.36678 0.0
H609 H 0.47417 0.07306 0.599 0.0
H610 H 0.46207 0.09455 0.53718 0.0
C611 C 0.44746 0.17291 0.34694 0.0
C612 C 0.44969 0.12057 0.37124 0.0
H613 H 0.43285 0.08682 0.45824 0.0
C614 C 0.46821 0.11603 0.36788 0.0
C615 C 0.43666 0.10968 0.40329 0.0
C616 C 0.41669 0.11427 0.40903 0.0
C617 C 0.47422 0.10129 0.39717 0.0
C618 C 0.46132 0.09078 0.43044 0.0
C619 C 0.44265 0.09487 0.43244 0.0
C620 C 0.46739 0.07686 0.46736 0.0
C621 C 0.49451 0.0977 0.39452 0.0
C622 C 0.47407 0.05964 0.44859 0.0
C623 C 0.48098 0.04732 0.4839 0.0
C624 C 0.48135 0.05212 0.53839 0.0
C625 C 0.47417 0.0691 0.55715 0.0
C626 C 0.4672 0.08133 0.52194 0.0
H627 H 0.50313 0.1088 0.37239 0.0
H628 H 0.50001 0.09732 0.43501 0.0
H629 H 0.49603 0.08358 0.37437 0.0
H630 H 0.47414 0.05586 0.40664 0.0
H631 H 0.48628 0.03422 0.46852 0.0
H632 H 0.31939 0.50467 0.3711 0.0
H633 H 0.34739 0.49511 0.41272 0.0
H634 H 0.36827 0.55448 0.43231 0.0
H635 H 0.34034 0.56401 0.39193 0.0
H636 H 0.38653 0.502 0.39426 0.0
H637 H 0.36443 0.53608 0.58412 0.0
H638 H 0.34909 0.53164 0.5289 0.0
H639 H 0.36597 0.55219 0.53058 0.0
C640 C 0.33019 0.51559 0.38333 0.0
C641 C 0.32768 0.53507 0.3789 0.0
C642 C 0.3461 0.51014 0.40726 0.0
C643 C 0.35967 0.52412 0.42685 0.0
C644 C 0.35776 0.54348 0.41874 0.0
H645 H 0.46268 0.53666 0.586 0.0
H646 H 0.43448 0.53902 0.53645 0.0
C647 C 0.34187 0.54891 0.39539 0.0
C648 C 0.37532 0.5188 0.45846 0.0
H649 H 0.39577 0.52776 0.57831 0.0
C650 C 0.38845 0.5074 0.43472 0.0
C651 C 0.37768 0.52568 0.51152 0.0
C652 C 0.36345 0.53691 0.54051 0.0
C653 C 0.40438 0.50354 0.46185 0.0
C654 C 0.40712 0.51121 0.51392 0.0
C655 C 0.39368 0.52202 0.53821 0.0
C656 C 0.42436 0.50923 0.54291 0.0
C657 C 0.41857 0.49192 0.43421 0.0
C658 C 0.42791 0.49169 0.56342 0.0
C659 C 0.44399 0.4903 0.59232 0.0
C660 C 0.45682 0.50643 0.60092 0.0
C661 C 0.45315 0.52394 0.58012 0.0
C662 C 0.43704 0.52534 0.55173 0.0
H663 H 0.41535 0.48866 0.39191 0.0
H664 H 0.43264 0.49972 0.43665 0.0
H665 H 0.41895 0.47821 0.45434 0.0
H666 H 0.41818 0.47914 0.55745 0.0
H667 H 0.44645 0.47657 0.60746 0.0
H668 H 0.05443 0.32455 0.30882 0.0
H669 H 0.04108 0.35435 0.33691 0.0
H670 H 0.08999 0.37184 0.42729 0.0
H671 H 0.10345 0.3424 0.39869 0.0
H672 H 0.03325 0.36351 0.44193 0.0
H673 H 0.081 0.42109 0.35697 0.0
H674 H 0.08032 0.39649 0.33265 0.0
H675 H 0.09324 0.4043 0.39074 0.0
C676 C 0.06254 0.33505 0.33334 0.0
C677 C 0.07994 0.33116 0.35174 0.0
C678 C 0.05487 0.35199 0.34958 0.0
C679 C 0.06461 0.3654 0.38379 0.0
C680 C 0.08237 0.36191 0.40009 0.0
H681 H 0.05094 0.45541 0.60855 0.0
H682 H 0.06051 0.43057 0.54632 0.0
C683 C 0.08998 0.345 0.38411 0.0
C684 C 0.05555 0.3819 0.4077 0.0
H685 H 0.0627 0.43005 0.43381 0.0
C686 C 0.03943 0.37813 0.43928 0.0
C687 C 0.06367 0.40093 0.40426 0.0
C688 C 0.08041 0.40598 0.36887 0.0
C689 C 0.03188 0.39273 0.4701 0.0
C690 C 0.04054 0.41162 0.46857 0.0
C691 C 0.05614 0.41554 0.4351 0.0
C692 C 0.03457 0.42717 0.50465 0.0
C693 C 0.01535 0.38765 0.50629 0.0
C694 C 0.01684 0.43365 0.50152 0.0
C695 C 0.01125 0.44788 0.53729 0.0
C696 C 0.02335 0.45591 0.57664 0.0
C697 C 0.04121 0.44955 0.57896 0.0
C698 C 0.04675 0.43537 0.54327 0.0
H699 H 0.01245 0.37193 0.50989 0.0
H700 H 0.01764 0.39431 0.54644 0.0
H701 H 0.00283 0.3932 0.4903 0.0
H702 H 0.00732 0.42769 0.4715 0.0
H703 H 0.99744 0.4525 0.53418 0.0
H704 H 0.83612 0.97584 0.07724 0.0
H705 H 0.86701 0.97846 0.03363 0.0
H706 H 0.85369 0.02924 0.95776 0.0
H707 H 0.82273 0.02627 1.00012 0.0
H708 H 0.86419 0.00292 0.88715 0.0
H709 H 0.91561 0.01182 0.04713 0.0
H710 H 0.8987 0.99164 0.05478 0.0
H711 H 0.89137 0.01545 0.05851 0.0
C712 C 0.84012 0.98794 0.05282 0.0
C713 C 0.82717 0.00095 0.04229 0.0
C714 C 0.85776 0.98944 0.02783 0.0
C715 C 0.86277 0.00412 0.99248 0.0
C716 C 0.85019 0.01781 0.9848 0.0
H717 H 0.9684 0.02901 0.82236 0.0
H718 H 0.94152 0.02924 0.88339 0.0
C719 C 0.83256 0.01619 0.00927 0.0
C720 C 0.87995 0.00396 0.95851 0.0
H721 H 0.9273 0.00394 0.96045 0.0
C722 C 0.87799 0.00326 0.90331 0.0
C723 C 0.89799 0.00448 0.9794 0.0
C724 C 0.90112 0.00607 0.0382 0.0
C725 C 0.89345 0.00293 0.86852 0.0
C726 C 0.91144 0.00285 0.88931 0.0
C727 C 0.91349 0.00379 0.94451 0.0
C728 C 0.92824 0.00212 0.85412 0.0
C729 C 0.89037 0.00302 0.80971 0.0
C730 C 0.9299 0.98663 0.81793 0.0
C731 C 0.94516 0.98652 0.78264 0.0
C732 C 0.95923 0.0018 0.78314 0.0
C733 C 0.95779 0.01703 0.82054 0.0
C734 C 0.94247 0.01717 0.85568 0.0
H735 H 0.87675 0.00821 0.80096 0.0
H736 H 0.90156 0.01219 0.7896 0.0
H737 H 0.89048 0.98822 0.79265 0.0
H738 H 0.91929 0.97466 0.81666 0.0
H739 H 0.94585 0.9745 0.75479 0.0
H740 H 0.56006 0.83378 0.11471 0.0
H741 H 0.54982 0.86243 0.07608 0.0
H742 H 0.59831 0.86596 0.9724 0.0
H743 H 0.60872 0.83754 0.01118 0.0
H744 H 0.58708 0.90284 0.01724 0.0
H745 H 0.53026 0.85584 0.92093 0.0
H746 H 0.53177 0.85467 0.99159 0.0
H747 H 0.54999 0.84641 0.94941 0.0
C748 C 0.56876 0.84096 0.08465 0.0
C749 C 0.58509 0.83332 0.06555 0.0
C750 C 0.56285 0.85724 0.06241 0.0
C751 C 0.57321 0.86613 0.02097 0.0
C752 C 0.5901 0.85926 0.00425 0.0
H753 H 0.54037 0.92814 0.76036 0.0
H754 H 0.55238 0.90637 0.82134 0.0
C755 C 0.59597 0.84297 0.02622 0.0
C756 C 0.56569 0.88136 0.99133 0.0
H757 H 0.53251 0.88845 0.90243 0.0
C758 C 0.57506 0.8998 0.99243 0.0
C759 C 0.55014 0.87722 0.95859 0.0
C760 C 0.53997 0.85746 0.9545 0.0
C761 C 0.56936 0.91422 0.96116 0.0
C762 C 0.55386 0.91002 0.92819 0.0
C763 C 0.54438 0.89163 0.92776 0.0
C764 C 0.54768 0.92405 0.89165 0.0
C765 C 0.58027 0.93362 0.9627 0.0
C766 C 0.54118 0.94132 0.91088 0.0
C767 C 0.53434 0.95383 0.87596 0.0
C768 C 0.53378 0.94915 0.82144 0.0
C769 C 0.54056 0.93204 0.80224 0.0
C770 C 0.54742 0.9196 0.83703 0.0
H771 H 0.59457 0.93291 0.97716 0.0
H772 H 0.5812 0.9399 0.92307 0.0
H773 H 0.57307 0.94341 0.99011 0.0
H774 H 0.54103 0.94493 0.95293 0.0
H775 H 0.52923 0.96698 0.89169 0.0
H776 H 0.70209 0.49562 0.92674 0.0
H777 H 0.67367 0.50147 0.8822 0.0
H778 H 0.64075 0.47947 0.01488 0.0
H779 H 0.66927 0.47355 0.05982 0.0
H780 H 0.64648 0.47247 0.85401 0.0
H781 H 0.6166 0.5285 0.98251 0.0
H782 H 0.64062 0.52344 0.9857 0.0
H783 H 0.62258 0.50796 0.01626 0.0
C784 C 0.68881 0.49224 0.94676 0.0
C785 C 0.68791 0.484 0.99665 0.0
C786 C 0.67258 0.49563 0.92129 0.0
C787 C 0.65509 0.49097 0.94521 0.0
C788 C 0.65412 0.48347 0.99601 0.0
H789 H 0.5507 0.46694 0.78241 0.0
H790 H 0.57854 0.4657 0.83453 0.0
C791 C 0.67041 0.48009 0.02167 0.0
C792 C 0.63799 0.49244 0.91478 0.0
H793 H 0.59761 0.51422 0.91364 0.0
C794 C 0.63582 0.48163 0.86703 0.0
C795 C 0.62416 0.5045 0.93161 0.0
C796 C 0.62609 0.51691 0.98159 0.0
C797 C 0.62012 0.4824 0.83591 0.0
C798 C 0.6061 0.49413 0.85324 0.0
C799 C 0.60834 0.50514 0.90065 0.0
C800 C 0.58904 0.4951 0.82245 0.0
C801 C 0.61877 0.47083 0.78432 0.0
C802 C 0.58558 0.51213 0.79893 0.0
C803 C 0.56969 0.51289 0.76882 0.0
C804 C 0.55686 0.49666 0.76215 0.0
C805 C 0.5603 0.47969 0.78641 0.0
C806 C 0.57623 0.47892 0.81618 0.0
H807 H 0.63242 0.46601 0.77102 0.0
H808 H 0.60887 0.45795 0.78956 0.0
H809 H 0.61347 0.47928 0.75273 0.0
H810 H 0.59527 0.5248 0.80349 0.0
H811 H 0.56738 0.52627 0.7513 0.0
H812 H 0.97312 0.69184 0.95519 0.0
H813 H 0.98316 0.66104 0.92313 0.0
H814 H 0.93972 0.63162 0.01755 0.0
H815 H 0.92969 0.66258 0.05034 0.0
H816 H 0.97517 0.61414 0.01144 0.0
H817 H 0.94863 0.62998 0.81545 0.0
H818 H 0.9652 0.64825 0.8423 0.0
H819 H 0.94302 0.64328 0.87538 0.0
C820 C 0.96593 0.6788 0.96986 0.0
C821 C 0.95049 0.67952 0.00468 0.0
C822 C 0.97166 0.66124 0.9515 0.0
C823 C 0.96194 0.6441 0.96717 0.0
C824 C 0.94734 0.64473 0.00486 0.0
H825 H 0.96125 0.53937 0.77385 0.0
H826 H 0.95262 0.56631 0.83017 0.0
C827 C 0.94166 0.66237 0.02363 0.0
C828 C 0.96597 0.62577 0.94027 0.0
H829 H 0.96577 0.60292 0.81863 0.0
C830 C 0.97305 0.61159 0.96936 0.0
C831 C 0.96288 0.62239 0.88555 0.0
C832 C 0.95435 0.63668 0.85283 0.0
C833 C 0.9776 0.59425 0.94468 0.0
C834 C 0.97521 0.59123 0.88949 0.0
C835 C 0.96773 0.60529 0.86084 0.0
C836 C 0.98027 0.57367 0.86007 0.0
C837 C 0.9847 0.57927 0.97798 0.0
C838 C 0.99869 0.56874 0.85839 0.0
C839 C 0.00368 0.55323 0.8263 0.0
C840 C 0.99038 0.54254 0.79478 0.0
C841 C 0.97189 0.54734 0.79734 0.0
C842 C 0.9669 0.56272 0.82965 0.0
H843 H 0.98077 0.58139 0.02045 0.0
H844 H 0.97925 0.56465 0.96425 0.0
H845 H 1.00011 0.58028 0.97466 0.0
H846 H 0.00934 0.57725 0.88051 0.0
H847 H 0.01807 0.55 0.82499 0.0
H848 H 0.0712 0.18773 0.4973 0.0
H849 H 0.0523 0.16289 0.54384 0.0
H850 H 0.09504 0.12445 0.51607 0.0
H851 H 0.1144 0.14949 0.47067 0.0
H852 H 0.04172 0.12967 0.48172 0.0
H853 H 0.07503 0.11131 0.66631 0.0
H854 H 0.07901 0.13472 0.63852 0.0
H855 H 0.09038 0.11497 0.60978 0.0
C856 C 0.07703 0.17433 0.50317 0.0
C857 C 0.09428 0.17054 0.47978 0.0
C858 C 0.06611 0.16009 0.52955 0.0
C859 C 0.07226 0.14187 0.53336 0.0
C860 C 0.09013 0.13852 0.51416 0.0
H861 H 0.01714 0.02922 0.52198 0.0
H862 H 0.03425 0.06028 0.50498 0.0
C863 C 0.1011 0.15278 0.48777 0.0
C864 C 0.05887 0.12563 0.54809 0.0
H865 H 0.05114 0.0889 0.6326 0.0
C866 C 0.04364 0.12091 0.51515 0.0
C867 C 0.06145 0.11426 0.59162 0.0
C868 C 0.07726 0.11909 0.62897 0.0
C869 C 0.03126 0.1047 0.52353 0.0
C870 C 0.03424 0.09294 0.56579 0.0
C871 C 0.04903 0.09799 0.6 0.0
C872 C 0.02265 0.07482 0.57348 0.0
C873 C 0.01523 0.10002 0.48674 0.0
C874 C 0.0102 0.07299 0.61683 0.0
C875 C 1.0003 0.05536 0.6262 0.0
C876 C 0.003 0.03935 0.59288 0.0
C877 C 0.01481 0.04142 0.5481 0.0
C878 C 0.02464 0.05907 0.53858 0.0
H879 H 0.01284 0.11232 0.46228 0.0
H880 H 0.01826 0.08778 0.45977 0.0
H881 H 0.00225 0.09574 0.50957 0.0
H882 H 0.00843 0.08509 0.64385 0.0
H883 H 0.99103 0.05406 0.66054 0.0
H884 H 0.33614 0.03982 0.4983 0.0
H885 H 0.36282 0.03017 0.54625 0.0
H886 H 0.38212 0.00147 0.40408 0.0
H887 H 0.3557 0.0107 0.35656 0.0
H888 H 0.37841 0.97944 0.50175 0.0
H889 H 0.42027 0.05016 0.51998 0.0
H890 H 0.39587 0.0489 0.53813 0.0
H891 H 0.40282 0.04505 0.47026 0.0
C892 C 0.34615 0.03152 0.47745 0.0
C893 C 0.344 0.02624 0.42357 0.0
C894 C 0.36136 0.02612 0.50468 0.0
C895 C 0.37443 0.01529 0.47835 0.0
C896 C 0.37222 0.00996 0.42484 0.0
H897 H 0.48502 0.98822 0.54197 0.0
H898 H 0.45644 0.99764 0.50396 0.0
C899 C 0.35719 0.01538 0.39771 0.0
C900 C 0.39021 0.00874 0.50619 0.0
H901 H 0.43335 0.02354 0.55208 0.0
C902 C 0.39037 0.98906 0.51337 0.0
C903 C 0.4058 0.02138 0.52032 0.0
C904 C 0.40639 0.04257 0.51171 0.0
C905 C 0.40592 0.98157 0.53362 0.0
C906 C 0.42156 0.99419 0.54765 0.0
C907 C 0.42129 0.01394 0.5412 0.0
C908 C 0.43848 0.9872 0.56851 0.0
C909 C 0.40571 0.96018 0.53806 0.0
C910 C 0.4377 0.97787 0.61661 0.0
C911 C 0.45394 0.97249 0.63805 0.0
C912 C 0.47121 0.97676 0.61224 0.0
C913 C 0.47187 0.98525 0.56298 0.0
C914 C 0.45561 0.99057 0.54136 0.0
H915 H 0.39478 0.95231 0.51338 0.0
H916 H 0.41939 0.95519 0.52591 0.0
H917 H 0.40277 0.95645 0.57986 0.0
H918 H 0.42467 0.97542 0.63856 0.0
H919 H 0.45307 0.96605 0.67635 0.0
H920 H 0.39293 0.34811 0.465 0.0
H921 H 0.41074 0.37662 0.50216 0.0
H922 H 0.45127 0.34145 0.55887 0.0
H923 H 0.43415 0.31304 0.51969 0.0
H924 H 0.42672 0.39051 0.5993 0.0
H925 H 0.47999 0.37354 0.44584 0.0
H926 H 0.45688 0.36136 0.44737 0.0
H927 H 0.47409 0.35504 0.49197 0.0
C928 C 0.40544 0.34639 0.48631 0.0
C929 C 0.41235 0.32834 0.48809 0.0
C930 C 0.41554 0.36269 0.50776 0.0
C931 C 0.43259 0.36114 0.53174 0.0
C932 C 0.43833 0.34294 0.53938 0.0
H933 H 0.52017 0.44821 0.6269 0.0
H934 H 0.50089 0.41795 0.61047 0.0
C935 C 0.42836 0.32666 0.51748 0.0
C936 C 0.44541 0.3785 0.54206 0.0
H937 H 0.48712 0.40087 0.50131 0.0
C938 C 0.43995 0.39276 0.57811 0.0
C939 C 0.46258 0.38147 0.51369 0.0
C940 C 0.46872 0.36715 0.47219 0.0
C941 C 0.45132 0.40988 0.58684 0.0
C942 C 0.46841 0.41275 0.55846 0.0
C943 C 0.47397 0.39848 0.5229 0.0
C944 C 0.48067 0.43064 0.56483 0.0
C945 C 0.44506 0.42485 0.62613 0.0
C946 C 0.47597 0.44747 0.54261 0.0
C947 C 0.48713 0.46462 0.55103 0.0
C948 C 0.50287 0.46511 0.58261 0.0
C949 C 0.50802 0.44808 0.60261 0.0
C950 C 0.49701 0.4309 0.59356 0.0
H951 H 0.43315 0.41916 0.65139 0.0
H952 H 0.45669 0.43044 0.65194 0.0
H953 H 0.44073 0.43705 0.60439 0.0
H954 H 0.46348 0.44741 0.51979 0.0
H955 H 0.4829 0.47762 0.53529 0.0
H956 H 0.18657 0.57244 0.50516 0.0
H957 H 0.15818 0.56681 0.55857 0.0
H958 H 0.13407 0.61181 0.48119 0.0
H959 H 0.16275 0.61805 0.42828 0.0
H960 H 0.12458 0.60156 0.6077 0.0
H961 H 0.11403 0.54552 0.44596 0.0
H962 H 0.13644 0.54871 0.4763 0.0
H963 H 0.12904 0.56727 0.43741 0.0
C964 C 0.17567 0.58185 0.50117 0.0
C965 C 0.17683 0.59549 0.46165 0.0
C966 C 0.15939 0.57853 0.53173 0.0
C967 C 0.14406 0.58877 0.52329 0.0
C968 C 0.14583 0.60379 0.48816 0.0
H969 H 0.02664 0.56153 0.60995 0.0
H970 H 0.05658 0.5793 0.58737 0.0
C971 C 0.16216 0.6072 0.45768 0.0
C972 C 0.12546 0.5811 0.5422 0.0
H973 H 0.09169 0.54507 0.51512 0.0
C974 C 0.11727 0.5893 0.5875 0.0
C975 C 0.11605 0.56517 0.51536 0.0
C976 C 0.1242 0.55613 0.46586 0.0
C977 C 0.09994 0.5815 0.60753 0.0
C978 C 0.09073 0.56533 0.58112 0.0
C979 C 0.09885 0.55744 0.53531 0.0
C980 C 0.07293 0.55572 0.60076 0.0
C981 C 0.09184 0.59019 0.65746 0.0
C982 C 0.07227 0.53662 0.61541 0.0
C983 C 0.0553 0.52646 0.62761 0.0
C984 C 0.03865 0.53522 0.62546 0.0
C985 C 0.03931 0.55449 0.61198 0.0
C986 C 0.05637 0.56468 0.59958 0.0
H987 H 0.10213 0.60047 0.67806 0.0
H988 H 0.07978 0.59794 0.64738 0.0
H989 H 0.08676 0.57883 0.68503 0.0
H990 H 0.0849 0.52941 0.61605 0.0
H991 H 0.05519 0.51157 0.63735 0.0
H992 H 0.91039 0.82072 0.82895 0.0
H993 H 0.92707 0.84562 0.7759 0.0
H994 H 0.9294 0.88444 0.91243 0.0
H995 H 0.9137 0.85976 0.96612 0.0
H996 H 0.92022 0.89927 0.80202 0.0
H997 H 0.98466 0.86184 0.81692 0.0
H998 H 0.96321 0.84862 0.79697 0.0
H999 H 0.96555 0.85779 0.86385 0.0
C1000 C 0.91429 0.8346 0.84762 0.0
C1001 C 0.91078 0.83808 0.90212 0.0
C1002 C 0.92371 0.84882 0.81713 0.0
C1003 C 0.92951 0.86673 0.84057 0.0
C1004 C 0.92492 0.87068 0.89373 0.0
H1005 H 0.99072 0.97373 0.82556 0.0
H1006 H 0.97004 0.94481 0.84102 0.0
C1007 C 0.91575 0.85651 0.92428 0.0
C1008 C 0.942 0.88091 0.81229 0.0
H1009 H 0.98821 0.89352 0.78946 0.0
C1010 C 0.93504 0.89791 0.79808 0.0
C1011 C 0.96127 0.87896 0.80709 0.0
C1012 C 0.96928 0.86087 0.82197 0.0
C1013 C 0.94705 0.91343 0.78116 0.0
C1014 C 0.96649 0.91203 0.78015 0.0
C1015 C 0.97332 0.89459 0.79094 0.0
C1016 C 0.97991 0.92896 0.77229 0.0
C1017 C 0.93887 0.93135 0.76576 0.0
C1018 C 0.9931 0.92916 0.7305 0.0
C1019 C 0.00515 0.94559 0.7222 0.0
C1020 C 0.00407 0.96197 0.75535 0.0
C1021 C 0.99174 0.96129 0.79921 0.0
C1022 C 0.97973 0.94491 0.80756 0.0
H1023 H 0.92434 0.92816 0.75239 0.0
H1024 H 0.93861 0.94141 0.80071 0.0
H1025 H 0.94728 0.93854 0.73363 0.0
H1026 H 0.9937 0.91684 0.7035 0.0
H1027 H 0.01494 0.94571 0.68897 0.0
H1028 H 0.64425 0.97527 0.02251 0.0
H1029 H 0.62078 0.98659 0.96752 0.0
H1030 H 0.65156 0.97045 0.82691 0.0
H1031 H 0.6753 0.95864 0.88213 0.0
H1032 H 0.63144 0.01644 0.88465 0.0
H1033 H 0.59292 0.94762 0.81785 0.0
H1034 H 0.60936 0.94907 0.87083 0.0
H1035 H 0.6176 0.95065 0.80365 0.0
C1036 C 0.64589 0.97363 0.97992 0.0
C1037 C 0.66157 0.96585 0.95667 0.0
C1038 C 0.63254 0.98031 0.94861 0.0
C1039 C 0.63453 0.97936 0.89344 0.0
C1040 C 0.64987 0.97124 0.86962 0.0
H1041 H 0.56262 0.03578 0.68789 0.0
H1042 H 0.59043 0.02541 0.72748 0.0
C1043 C 0.66338 0.96456 0.90111 0.0
C1044 C 0.62073 0.98773 0.86182 0.0
H1045 H 0.58106 0.97617 0.79293 0.0
C1046 C 0.62056 0.00771 0.86382 0.0
C1047 C 0.6066 0.97617 0.83525 0.0
C1048 C 0.60643 0.95466 0.83179 0.0
C1049 C 0.60621 0.01646 0.84107 0.0
C1050 C 0.59175 0.00488 0.81601 0.0
C1051 C 0.5922 0.98493 0.8126 0.0
C1052 C 0.57554 0.01312 0.79518 0.0
C1053 C 0.60613 0.03794 0.84565 0.0
C1054 C 0.5582 0.01015 0.82128 0.0
C1055 C 0.54239 0.01625 0.79913 0.0
C1056 C 0.5437 0.025 0.75019 0.0
C1057 C 0.56127 0.02908 0.72582 0.0
C1058 C 0.57711 0.02306 0.7481 0.0
H1059 H 0.61739 0.04471 0.87114 0.0
H1060 H 0.60801 0.04391 0.80568 0.0
H1061 H 0.59253 0.04185 0.86219 0.0
H1062 H 0.55683 0.00265 0.85799 0.0
H1063 H 0.52902 0.01345 0.81911 0.0
H1064 H 0.62069 0.65555 0.90627 0.0
H1065 H 0.60499 0.62633 0.86615 0.0
H1066 H 0.56196 0.65868 0.811 0.0
H1067 H 0.57721 0.68785 0.85209 0.0
H1068 H 0.56575 0.61845 0.90847 0.0
H1069 H 0.57185 0.61674 0.68828 0.0
H1070 H 0.58955 0.62907 0.72973 0.0
H1071 H 0.56793 0.63917 0.72194 0.0
C1072 C 0.60816 0.65655 0.88431 0.0
C1073 C 0.60004 0.67397 0.88313 0.0
C1074 C 0.59929 0.63987 0.86118 0.0
C1075 C 0.58235 0.64042 0.83575 0.0
C1076 C 0.57516 0.65805 0.82991 0.0
H1077 H 0.49534 0.55445 0.73286 0.0
H1078 H 0.51477 0.58432 0.75273 0.0
C1079 C 0.58396 0.67474 0.85336 0.0
C1080 C 0.57048 0.62247 0.8251 0.0
H1081 H 0.55096 0.59305 0.72716 0.0
C1082 C 0.56259 0.61277 0.86884 0.0
C1083 C 0.56617 0.61546 0.7734 0.0
C1084 C 0.57434 0.62552 0.72541 0.0
C1085 C 0.55026 0.59628 0.86239 0.0
C1086 C 0.5462 0.58894 0.81066 0.0
C1087 C 0.55411 0.59868 0.76678 0.0
C1088 C 0.53386 0.57113 0.8013 0.0
C1089 C 0.5413 0.58727 0.9111 0.0
C1090 C 0.53797 0.5539 0.82272 0.0
C1091 C 0.52667 0.537 0.81235 0.0
C1092 C 0.51145 0.53697 0.77903 0.0
C1093 C 0.50707 0.55422 0.75856 0.0
C1094 C 0.51821 0.57119 0.76958 0.0
H1095 H 0.54122 0.59774 0.94524 0.0
H1096 H 0.52676 0.58136 0.90378 0.0
H1097 H 0.54936 0.57543 0.92245 0.0
H1098 H 0.5502 0.55341 0.8463 0.0
H1099 H 0.53041 0.52381 0.82816 0.0
H1100 H 0.82657 0.43845 0.81975 0.0
H1101 H 0.8569 0.43877 0.77545 0.0
H1102 H 0.86765 0.38777 0.85467 0.0
H1103 H 0.83729 0.38771 0.90039 0.0
H1104 H 0.89353 0.41514 0.8746 0.0
H1105 H 0.88406 0.4127 0.65913 0.0
H1106 H 0.87078 0.43066 0.68946 0.0
H1107 H 0.86517 0.40588 0.70484 0.0
C1108 C 0.83505 0.42684 0.82609 0.0
C1109 C 0.82961 0.41309 0.86364 0.0
C1110 C 0.85242 0.42699 0.80049 0.0
C1111 C 0.86456 0.41318 0.81121 0.0
C1112 C 0.85851 0.39853 0.84562 0.0
H1113 H 0.98621 0.43526 0.75502 0.0
H1114 H 0.95604 0.41644 0.76777 0.0
C1115 C 0.84119 0.39851 0.87172 0.0
C1116 C 0.88443 0.41622 0.79434 0.0
H1117 H 0.91272 0.43083 0.69048 0.0
C1118 C 0.89781 0.41797 0.83401 0.0
C1119 C 0.89007 0.41994 0.74143 0.0
C1120 C 0.87673 0.41698 0.69633 0.0
C1121 C 0.91632 0.42477 0.82297 0.0
C1122 C 0.92157 0.42987 0.77088 0.0
C1123 C 0.90855 0.42699 0.7305 0.0
C1124 C 0.93977 0.44046 0.75935 0.0
C1125 C 0.92984 0.42776 0.8677 0.0
C1126 C 0.94048 0.46005 0.75015 0.0
C1127 C 0.95755 0.47078 0.74351 0.0
C1128 C 0.97422 0.46202 0.74517 0.0
C1129 C 0.97353 0.44232 0.75363 0.0
C1130 C 0.95637 0.43158 0.7607 0.0
H1131 H 0.92308 0.42461 0.90677 0.0
H1132 H 0.94117 0.41825 0.86077 0.0
H1133 H 0.93626 0.44276 0.86916 0.0
H1134 H 0.9278 0.46716 0.74947 0.0
H1135 H 0.9577 0.48599 0.73775 0.0
H1136 H 0.06598 0.20519 0.01668 0.0
H1137 H 0.05709 0.18007 0.94943 0.0
H1138 H 0.111 0.15888 0.95829 0.0
H1139 H 0.12001 0.18395 0.02544 0.0
H1140 H 0.09014 0.16122 0.84551 0.0
H1141 H 0.05413 0.12151 0.01123 0.0
H1142 H 0.05129 0.14662 0.00643 0.0
H1143 H 0.07351 0.13927 0.02239 0.0
C1144 C 0.07615 0.19558 0.00299 0.0
C1145 C 0.09366 0.19645 0.02642 0.0
C1146 C 0.07102 0.18121 0.96482 0.0
C1147 C 0.08338 0.16764 0.94927 0.0
C1148 C 0.10131 0.16928 0.96981 0.0
H1149 H 0.06104 0.05145 0.82419 0.0
H1150 H 0.07442 0.08109 0.86855 0.0
C1151 C 0.10641 0.18354 0.00819 0.0
C1152 C 0.0769 0.15044 0.91688 0.0
H1153 H 0.05259 0.10662 0.92643 0.0
C1154 C 0.08188 0.14928 0.86294 0.0
C1155 C 0.06634 0.13488 0.94017 0.0
C1156 C 0.06099 0.13543 0.99828 0.0
C1157 C 0.07639 0.13285 0.83144 0.0
C1158 C 0.06565 0.11734 0.85468 0.0
C1159 C 0.06083 0.11853 0.90875 0.0
C1160 C 0.05903 0.09972 0.82386 0.0
C1161 C 0.08233 0.13207 0.77385 0.0
C1162 C 0.04604 0.10041 0.78385 0.0
C1163 C 0.03831 0.08352 0.75881 0.0
C1164 C 0.04345 0.06567 0.77336 0.0
C1165 C 0.05685 0.06503 0.81227 0.0
C1166 C 0.06449 0.08192 0.83756 0.0
H1167 H 0.09391 0.14312 0.76501 0.0
H1168 H 0.08678 0.11775 0.76209 0.0
H1169 H 0.07037 0.13464 0.7493 0.0
H1170 H 0.04142 0.11396 0.77324 0.0
H1171 H 0.02801 0.0844 0.72887 0.0
H1172 H 0.31683 0.99134 0.99496 0.0
H1173 H 0.34212 0.98421 0.93241 0.0
H1174 H 0.34831 0.04312 0.88815 0.0
H1175 H 0.32316 0.05028 0.95061 0.0
H1176 H 0.35366 0.99393 0.81426 0.0
H1177 H 0.39609 0.03067 0.9753 0.0
H1178 H 0.37228 0.02103 0.986 0.0
H1179 H 0.37726 0.04305 0.9526 0.0
C1180 C 0.32293 0.0025 0.9698 0.0
C1181 C 0.31804 0.02135 0.97745 0.0
C1182 C 0.33748 0.99846 0.93443 0.0
C1183 C 0.34723 0.01321 0.90626 0.0
C1184 C 0.341 0.03156 0.90967 0.0
H1185 H 0.44372 0.01779 0.69365 0.0
H1186 H 0.41273 0.01863 0.73403 0.0
C1187 C 0.32654 0.03561 0.94503 0.0
C1188 C 0.36556 0.01035 0.88068 0.0
H1189 H 0.41213 0.02172 0.89718 0.0
C1190 C 0.36647 0.99994 0.83228 0.0
C1191 C 0.38224 0.01796 0.9048 0.0
C1192 C 0.38207 0.0287 0.95774 0.0
C1193 C 0.3837 0.99734 0.80675 0.0
C1194 C 0.40037 0.00551 0.83014 0.0
C1195 C 0.39939 0.01553 0.87913 0.0
C1196 C 0.41902 0.00417 0.80441 0.0
C1197 C 0.38392 0.98569 0.75532 0.0
C1198 C 0.43309 0.99614 0.83097 0.0
C1199 C 0.45096 0.99579 0.80819 0.0
C1200 C 0.4552 0.00364 0.75852 0.0
C1201 C 0.44105 0.01168 0.73206 0.0
C1202 C 0.4232 0.01198 0.75482 0.0
H1203 H 0.3709 0.97608 0.75054 0.0
H1204 H 0.38515 0.9955 0.72182 0.0
H1205 H 0.39595 0.9769 0.75279 0.0
H1206 H 0.43023 0.99015 0.86948 0.0
H1207 H 0.46146 0.98944 0.82967 0.0
H1208 H 0.43941 0.33501 0.08068 0.0
H1209 H 0.45028 0.35472 0.00692 0.0
H1210 H 0.42313 0.31315 0.89734 0.0
H1211 H 0.41197 0.29323 0.97212 0.0
H1212 H 0.47187 0.34696 0.91495 0.0
H1213 H 0.40027 0.36407 0.86978 0.0
H1214 H 0.40542 0.3534 0.93081 0.0
H1215 H 0.40466 0.33926 0.87011 0.0
C1216 C 0.4359 0.32996 0.0408 0.0
C1217 C 0.42471 0.31273 0.03197 0.0
C1218 C 0.44216 0.34121 0.9987 0.0
C1219 C 0.43731 0.33554 0.94674 0.0
C1220 C 0.42681 0.31789 0.93729 0.0
H1221 H 0.48746 0.41556 0.71068 0.0
H1222 H 0.47584 0.38507 0.74898 0.0
C1223 C 0.42058 0.30648 0.97978 0.0
C1224 C 0.4427 0.34893 0.90388 0.0
H1225 H 0.42516 0.38183 0.82789 0.0
C1226 C 0.4617 0.35433 0.89492 0.0
C1227 C 0.42935 0.35864 0.87843 0.0
C1228 C 0.40876 0.35372 0.88771 0.0
C1229 C 0.46771 0.36982 0.86337 0.0
C1230 C 0.45434 0.37997 0.83935 0.0
C1231 C 0.43536 0.37398 0.84623 0.0
C1232 C 0.45975 0.39801 0.81187 0.0
C1233 C 0.48828 0.37593 0.85885 0.0
C1234 C 0.45391 0.41533 0.83308 0.0
C1235 C 0.46039 0.43271 0.81101 0.0
C1236 C 0.47284 0.43306 0.76742 0.0
C1237 C 0.47805 0.41568 0.74474 0.0
C1238 C 0.47147 0.39828 0.76664 0.0
H1239 H 0.49641 0.36886 0.88782 0.0
H1240 H 0.49348 0.37206 0.81851 0.0
H1241 H 0.49097 0.39168 0.86517 0.0
H1242 H 0.44483 0.41545 0.86788 0.0
H1243 H 0.4561 0.44589 0.82906 0.0
H1244 H 0.20226 0.55692 0.01336 0.0
H1245 H 0.17751 0.54738 0.95082 0.0
H1246 H 0.17934 0.48837 0.98957 0.0
H1247 H 0.2041 0.49789 0.05274 0.0
H1248 H 0.17295 0.51965 0.86154 0.0
H1249 H 0.12593 0.5022 0.03449 0.0
H1250 H 0.14816 0.51599 0.04141 0.0
H1251 H 0.14709 0.49054 0.0295 0.0
C1252 C 0.19769 0.54186 0.00759 0.0
C1253 C 0.205 0.52815 0.03812 0.0
C1254 C 0.18356 0.53643 0.97187 0.0
C1255 C 0.17638 0.51723 0.96626 0.0
C1256 C 0.18456 0.50331 0.99383 0.0
H1257 H 0.07086 0.47203 0.82703 0.0
H1258 H 0.10102 0.47508 0.87029 0.0
C1259 C 0.19881 0.50873 0.02946 0.0
C1260 C 0.15927 0.51224 0.93551 0.0
H1261 H 0.11275 0.49901 0.95048 0.0
C1262 C 0.1598 0.51497 0.88081 0.0
C1263 C 0.14213 0.50622 0.96083 0.0
C1264 C 0.14062 0.50366 0.01983 0.0
C1265 C 0.14362 0.51187 0.85071 0.0
C1266 C 0.12637 0.50635 0.87631 0.0
C1267 C 0.12595 0.50324 0.93085 0.0
C1268 C 0.10847 0.50428 0.84786 0.0
C1269 C 0.14522 0.51438 0.79175 0.0
C1270 C 0.1025 0.51972 0.8213 0.0
C1271 C 0.08531 0.51797 0.7964 0.0
C1272 C 0.07367 0.50082 0.7982 0.0
C1273 C 0.07956 0.48542 0.82506 0.0
C1274 C 0.09679 0.48714 0.84971 0.0
H1275 H 0.15954 0.51258 0.77638 0.0
H1276 H 0.13531 0.504 0.77017 0.0
H1277 H 0.14201 0.52906 0.78302 0.0
H1278 H 0.11099 0.53326 0.82052 0.0
H1279 H 0.08107 0.53009 0.77614 0.0
H1280 H 0.94002 0.79369 0.3574 0.0
H1281 H 0.94742 0.81906 0.4246 0.0
H1282 H 0.89258 0.8378 0.4121 0.0
H1283 H 0.88498 0.8123 0.34525 0.0
H1284 H 0.92209 0.86561 0.3892 0.0
H1285 H 0.93261 0.83225 0.57994 0.0
H1286 H 0.94428 0.82178 0.52384 0.0
H1287 H 0.91929 0.82 0.52717 0.0
C1288 C 0.92926 0.80269 0.3705 0.0
C1289 C 0.91196 0.80107 0.34569 0.0
C1290 C 0.93353 0.81723 0.40891 0.0
C1291 C 0.92054 0.8303 0.4234 0.0
C1292 C 0.9028 0.82785 0.4015 0.0
H1293 H 0.93975 0.94588 0.5696 0.0
H1294 H 0.92442 0.91596 0.53166 0.0
C1295 C 0.8985 0.81331 0.36325 0.0
C1296 C 0.92638 0.84804 0.45476 0.0
H1297 H 0.94452 0.86497 0.5727 0.0
C1298 C 0.92674 0.86553 0.42962 0.0
C1299 C 0.93262 0.84783 0.50718 0.0
C1300 C 0.93207 0.82949 0.53641 0.0
C1301 C 0.93381 0.88276 0.45472 0.0
C1302 C 0.94024 0.88258 0.50708 0.0
C1303 C 0.93952 0.86511 0.53267 0.0
C1304 C 0.94876 0.90021 0.53456 0.0
C1305 C 0.93512 0.90083 0.4239 0.0
C1306 C 0.96724 0.90106 0.55092 0.0
C1307 C 0.97591 0.91803 0.57311 0.0
C1308 C 0.96626 0.93447 0.5792 0.0
C1309 C 0.94756 0.93347 0.5646 0.0
C1310 C 0.93884 0.91642 0.54278 0.0
H1311 H 0.93405 0.8977 0.38061 0.0
H1312 H 0.92352 0.90942 0.43653 0.0
H1313 H 0.94843 0.90966 0.43131 0.0
H1314 H 0.97514 0.88873 0.54522 0.0
H1315 H 0.99029 0.91837 0.58454 0.0
H1316 H 0.70256 0.01495 0.38599 0.0
H1317 H 0.67572 0.01959 0.44513 0.0
H1318 H 0.66698 0.95864 0.46413 0.0
H1319 H 0.69357 0.95399 0.40451 0.0
H1320 H 0.63662 0.97357 0.42554 0.0
H1321 H 0.66178 0.01647 0.60281 0.0
H1322 H 0.66979 0.0262 0.54075 0.0
H1323 H 0.67706 0.00368 0.55947 0.0
C1324 C 0.69541 0.00266 0.40476 0.0
C1325 C 0.7002 0.98413 0.391 0.0
C1326 C 0.68001 0.00531 0.43839 0.0
C1327 C 0.66929 0.98946 0.45914 0.0
C1328 C 0.675 0.97108 0.44862 0.0
H1329 H 0.57191 0.98489 0.66886 0.0
H1330 H 0.60284 0.98359 0.62829 0.0
C1331 C 0.69028 0.96844 0.41491 0.0
C1332 C 0.65085 0.99161 0.48542 0.0
H1333 H 0.62901 0.01285 0.59075 0.0
C1334 C 0.63499 0.98211 0.46179 0.0
C1335 C 0.64869 0.00273 0.53272 0.0
C1336 C 0.66523 0.01274 0.5608 0.0
C1337 C 0.61709 0.98344 0.48393 0.0
C1338 C 0.61487 0.99486 0.53064 0.0
C1339 C 0.63071 0.00426 0.55464 0.0
C1340 C 0.59622 0.99661 0.55594 0.0
C1341 C 0.60074 0.97227 0.45765 0.0
C1342 C 0.58222 0.00464 0.52911 0.0
C1343 C 0.56441 0.00536 0.55213 0.0
C1344 C 0.56025 0.99807 0.60253 0.0
C1345 C 0.57446 0.99041 0.6297 0.0
C1346 C 0.59225 0.98976 0.60673 0.0
H1347 H 0.60521 0.9608 0.42991 0.0
H1348 H 0.59089 0.96566 0.48759 0.0
H1349 H 0.59321 0.98211 0.43469 0.0
H1350 H 0.58505 0.0103 0.49022 0.0
H1351 H 0.5539 0.01153 0.53027 0.0
H1352 H 0.5671 0.70337 0.34972 0.0
H1353 H 0.55529 0.68247 0.42076 0.0
H1354 H 0.60932 0.66154 0.4307 0.0
H1355 H 0.62123 0.68259 0.36052 0.0
H1356 H 0.55474 0.64361 0.40347 0.0
H1357 H 0.59302 0.66515 0.58629 0.0
H1358 H 0.59184 0.68102 0.5322 0.0
H1359 H 0.60811 0.66308 0.52918 0.0
C1360 C 0.57663 0.6949 0.36859 0.0
C1361 C 0.59505 0.69453 0.34943 0.0
C1362 C 0.56985 0.68287 0.40894 0.0
C1363 C 0.58143 0.67048 0.43123 0.0
C1364 C 0.60019 0.67118 0.41484 0.0
H1365 H 0.5576 0.55562 0.5296 0.0
H1366 H 0.56921 0.58589 0.49011 0.0
C1367 C 0.60695 0.68312 0.37443 0.0
C1368 C 0.57336 0.65476 0.46477 0.0
H1369 H 0.57858 0.63276 0.58094 0.0
C1370 C 0.55976 0.64143 0.44263 0.0
C1371 C 0.57989 0.6519 0.51586 0.0
C1372 C 0.59389 0.66615 0.54254 0.0
C1373 C 0.55307 0.62495 0.46917 0.0
C1374 C 0.56028 0.6216 0.51899 0.0
C1375 C 0.57328 0.63528 0.54236 0.0
C1376 C 0.55471 0.60362 0.54625 0.0
C1377 C 0.53852 0.61104 0.44337 0.0
C1378 C 0.54312 0.60367 0.59164 0.0
C1379 C 0.53636 0.5864 0.61399 0.0
C1380 C 0.54129 0.56887 0.59158 0.0
C1381 C 0.55354 0.56893 0.54751 0.0
C1382 C 0.56016 0.58617 0.52494 0.0
H1383 H 0.53161 0.61757 0.41076 0.0
H1384 H 0.54523 0.59847 0.42658 0.0
H1385 H 0.52775 0.60583 0.47289 0.0
H1386 H 0.53883 0.61701 0.6087 0.0
H1387 H 0.527 0.58674 0.64815 0.0
H1388 H 0.81165 0.4357 0.34694 0.0
H1389 H 0.83411 0.44453 0.41651 0.0
H1390 H 0.84164 0.5021 0.36106 0.0
H1391 H 0.81878 0.49334 0.29224 0.0
H1392 H 0.86973 0.45492 0.38973 0.0
H1393 H 0.84321 0.5123 0.51968 0.0
H1394 H 0.82836 0.49714 0.47595 0.0
H1395 H 0.8429 0.51705 0.45052 0.0
C1396 C 0.81756 0.45042 0.35107 0.0
C1397 C 0.81344 0.46388 0.31453 0.0
C1398 C 0.83046 0.45545 0.39058 0.0
C1399 C 0.83959 0.47399 0.3942 0.0
C1400 C 0.83455 0.48782 0.35989 0.0
H1401 H 0.94283 0.52182 0.53658 0.0
H1402 H 0.91359 0.51638 0.48855 0.0
C1403 C 0.82146 0.48282 0.32056 0.0
C1404 C 0.85611 0.47792 0.42828 0.0
H1405 H 0.8755 0.50779 0.52608 0.0
C1406 C 0.87086 0.46636 0.41995 0.0
C1407 C 0.85773 0.49299 0.46726 0.0
C1408 C 0.84214 0.50548 0.47931 0.0
C1409 C 0.88724 0.46956 0.44887 0.0
C1410 C 0.88888 0.4846 0.48784 0.0
C1411 C 0.87419 0.49624 0.49624 0.0
C1412 C 0.90589 0.48843 0.51972 0.0
C1413 C 0.90286 0.45708 0.43653 0.0
C1414 C 0.91108 0.47468 0.55387 0.0
C1415 C 0.92776 0.47772 0.58111 0.0
C1416 C 0.93952 0.49462 0.57485 0.0
C1417 C 0.93407 0.50863 0.54187 0.0
C1418 C 0.91736 0.50557 0.51461 0.0
H1419 H 0.90117 0.44927 0.39762 0.0
H1420 H 0.91654 0.46575 0.43634 0.0
H1421 H 0.90301 0.44634 0.46747 0.0
H1422 H 0.9023 0.46148 0.559 0.0
H1423 H 0.93154 0.46676 0.6067 0.0
loop_
_geom_bond_atom_site_label_1
_geom_bond_atom_site_label_2
_geom_bond_distance
_geom_bond_site_symmetry_2
_ccdc_geom_bond_type
C0 C1 1.391 . S
C0 C4 1.391 . S
C0 H42 0.948 . S
C1 C0 1.391 . S
C1 C2 1.391 . S
C2 C1 1.391 . S
C2 H58 0.947 . S
C2 C59 1.392 . S
C3 C4 1.391 . S
C3 C7 1.397 . S
C3 C59 1.419 . S
C4 C0 1.391 . S
C4 C3 1.391 . S
C4 C5 1.399 . S
C5 C4 1.399 . S
C5 C8 1.396 . S
C5 C17 1.453 . S
C5 C18 1.684 . S
H6 C30 0.948 . S
C7 C3 1.397 . S
C7 C8 1.394 . S
C7 C26 1.723 . S
C8 C5 1.396 . S
C8 C7 1.394 . S
C8 C38 1.723 . S
H9 C32 0.947 . S
H10 C33 0.948 . S
H11 C39 0.982 . S
H12 C40 0.979 . S
H13 C40 0.980 . S
H14 C40 0.983 . S
H15 C39 0.979 . S
H16 C39 0.977 . S
C17 C5 1.453 . S
C17 H46 0.982 . S
C17 H47 0.979 . S
C17 H48 0.977 . S
C18 C5 1.684 . S
C18 H43 0.979 . S
C18 H44 0.980 . S
C18 H45 0.983 . S
C19 C20 1.391 . S
C19 C24 1.391 . S
C19 H49 0.948 . S
C20 C19 1.391 . S
C20 C21 1.391 . S
C21 C20 1.391 . S
C21 C22 1.392 . S
C21 H50 0.947 . S
C22 C21 1.392 . S
C22 C23 1.419 . S
C22 H51 0.948 . S
C23 C22 1.419 . S
C23 C24 1.391 . S
C23 C27 1.397 1_556 S
C24 C19 1.391 . S
C24 C23 1.391 . S
C24 C25 1.399 1_556 S
C25 C24 1.399 1_554 S
C25 C26 1.396 . S
C25 C28 1.453 . S
C25 C29 1.684 . S
C26 C7 1.723 . S
C26 C25 1.396 . S
C26 C27 1.394 . S
C27 C23 1.397 1_554 S
C27 C26 1.394 . S
C27 C37 1.723 . S
C28 C25 1.453 . S
C28 H52 0.982 . S
C28 H53 0.979 . S
C28 H54 0.977 . S
C29 C25 1.684 . S
C29 H55 0.979 . S
C29 H56 0.980 . S
C29 H57 0.983 . S
C30 H6 0.948 . S
C30 C31 1.391 1_556 S
C30 C35 1.391 1_556 S
C31 C30 1.391 1_554 S
C31 C32 1.391 . S
C32 H9 0.947 . S
C32 C31 1.391 . S
C32 C33 1.392 . S
C33 H10 0.948 . S
C33 C32 1.392 . S
C33 C34 1.419 . S
C34 C33 1.419 . S
C34 C35 1.391 . S
C34 C38 1.397 . S
C35 C30 1.391 1_554 S
C35 C34 1.391 . S
C35 C36 1.399 1_554 S
C36 C35 1.399 1_556 S
C36 C37 1.396 1_556 S
C36 C39 1.453 . S
C36 C40 1.684 . S
C37 C27 1.723 . S
C37 C36 1.396 1_554 S
C37 C38 1.394 . S
C38 C8 1.723 . S
C38 C34 1.397 . S
C38 C37 1.394 . S
C39 H11 0.982 . S
C39 H15 0.979 . S
C39 H16 0.977 . S
C39 C36 1.453 . S
C40 H12 0.979 . S
C40 H13 0.980 . S
C40 H14 0.983 . S
C40 C36 1.684 . S
H41 C59 0.948 . S
H42 C0 0.948 . S
H43 C18 0.979 . S
H44 C18 0.980 . S
H45 C18 0.983 . S
H46 C17 0.982 . S
H47 C17 0.979 . S
H48 C17 0.977 . S
H49 C19 0.948 . S
H50 C21 0.947 . S
H51 C22 0.948 . S
H52 C28 0.982 . S
H53 C28 0.979 . S
H54 C28 0.977 . S
H55 C29 0.979 . S
H56 C29 0.980 . S
H57 C29 0.983 . S
H58 C2 0.947 . S
C59 C2 1.392 . S
C59 C3 1.419 . S
C59 H41 0.948 . S
C60 C61 1.391 . S
C60 C64 1.391 . S
C60 H102 0.948 . S
C61 C60 1.391 . S
C61 C62 1.391 . S
C62 C61 1.391 . S
C62 H118 0.947 . S
C62 C119 1.392 . S
C63 C64 1.391 . S
C63 C67 1.397 . S
C63 C119 1.419 . S
C64 C60 1.391 . S
C64 C63 1.391 . S
C64 C65 1.399 . S
C65 C64 1.399 . S
C65 C68 1.396 . S
C65 C77 1.453 . S
C65 C78 1.684 . S
H66 C90 0.948 . S
C67 C63 1.397 . S
C67 C68 1.394 . S
C67 C86 1.723 1_556 S
C68 C65 1.396 . S
C68 C67 1.394 . S
C68 C98 1.723 1_556 S
H69 C92 0.947 . S
H70 C93 0.948 . S
H71 C99 0.982 . S
H72 C100 0.979 . S
H73 C100 0.980 . S
H74 C100 0.983 . S
H75 C99 0.979 . S
H76 C99 0.977 . S
C77 C65 1.453 . S
C77 H106 0.982 . S
C77 H107 0.979 . S
C77 H108 0.977 . S
C78 C65 1.684 . S
C78 H103 0.979 . S
C78 H104 0.980 . S
C78 H105 0.983 . S
C79 C80 1.391 . S
C79 C84 1.391 . S
C79 H109 0.948 . S
C80 C79 1.391 . S
C80 C81 1.391 . S
C81 C80 1.391 . S
C81 C82 1.392 . S
C81 H110 0.947 . S
C82 C81 1.392 . S
C82 C83 1.419 . S
C82 H111 0.948 . S
C83 C82 1.419 . S
C83 C84 1.391 . S
C83 C87 1.397 . S
C84 C79 1.391 . S
C84 C83 1.391 . S
C84 C85 1.399 . S
C85 C84 1.399 . S
C85 C86 1.396 . S
C85 C88 1.453 . S
C85 C89 1.684 . S
C86 C67 1.723 1_554 S
C86 C85 1.396 . S
C86 C87 1.394 . S
C87 C83 1.397 . S
C87 C86 1.394 . S
C87 C97 1.723 . S
C88 C85 1.453 . S
C88 H112 0.982 . S
C88 H113 0.979 . S
C88 H114 0.977 . S
C89 C85 1.684 . S
C89 H115 0.979 . S
C89 H116 0.980 . S
C89 H117 0.983 . S
C90 H66 0.948 . S
C90 C91 1.391 1_554 S
C90 C95 1.391 . S
C91 C90 1.391 1_556 S
C91 C92 1.391 . S
C92 H69 0.947 . S
C92 C91 1.391 . S
C92 C93 1.392 . S
C93 H70 0.948 . S
C93 C92 1.392 . S
C93 C94 1.419 . S
C94 C93 1.419 . S
C94 C95 1.391 1_556 S
C94 C98 1.397 1_556 S
C95 C90 1.391 . S
C95 C94 1.391 1_554 S
C95 C96 1.399 . S
C96 C95 1.399 . S
C96 C97 1.396 . S
C96 C99 1.453 . S
C96 C100 1.684 . S
C97 C87 1.723 . S
C97 C96 1.396 . S
C97 C98 1.394 . S
C98 C68 1.723 1_554 S
C98 C94 1.397 1_554 S
C98 C97 1.394 . S
C99 H71 0.982 . S
C99 H75 0.979 . S
C99 H76 0.977 . S
C99 C96 1.453 . S
C100 H72 0.979 . S
C100 H73 0.980 . S
C100 H74 0.983 . S
C100 C96 1.684 . S
H101 C119 0.948 1_554 S
H102 C60 0.948 . S
H103 C78 0.979 . S
H104 C78 0.980 . S
H105 C78 0.983 . S
H106 C77 0.982 . S
H107 C77 0.979 . S
H108 C77 0.977 . S
H109 C79 0.948 . S
H110 C81 0.947 . S
H111 C82 0.948 . S
H112 C88 0.982 . S
H113 C88 0.979 . S
H114 C88 0.977 . S
H115 C89 0.979 . S
H116 C89 0.980 . S
H117 C89 0.983 . S
H118 C62 0.947 . S
C119 C62 1.392 . S
C119 C63 1.419 . S
C119 H101 0.948 1_556 S
C120 C121 1.391 . S
C120 C124 1.391 . S
C120 H162 0.948 . S
C121 C120 1.391 . S
C121 C122 1.391 1_554 S
C122 C121 1.391 1_556 S
C122 H178 0.947 . S
C122 C179 1.392 1_556 S
C123 C124 1.391 . S
C123 C127 1.398 1_565 S
C123 C179 1.419 . S
C124 C120 1.391 . S
C124 C123 1.391 . S
C124 C125 1.399 . S
C125 C124 1.399 . S
C125 C128 1.383 1_565 S
C125 C137 1.453 1_565 S
C125 C138 1.684 . S
H126 C150 0.948 . S
C127 C123 1.398 1_545 S
C127 C128 1.396 . S
C127 C146 1.716 . S
C128 C125 1.383 1_545 S
C128 C127 1.396 . S
C128 C158 1.726 . S
H129 C152 0.947 . S
H130 C153 0.948 . S
H131 C159 0.982 . S
H132 C160 0.979 . S
H133 C160 0.980 . S
H134 C160 0.983 . S
H135 C159 0.979 . S
H136 C159 0.977 . S
C137 C125 1.453 1_545 S
C137 H166 0.982 . S
C137 H167 0.979 . S
C137 H168 0.977 . S
C138 C125 1.684 . S
C138 H163 0.979 . S
C138 H164 0.980 . S
C138 H165 0.983 . S
C139 C140 1.391 . S
C139 C144 1.391 . S
C139 H169 0.948 . S
C140 C139 1.391 . S
C140 C141 1.391 . S
C141 C140 1.391 . S
C141 C142 1.392 1_556 S
C141 H170 0.945 1_556 S
C142 C141 1.392 1_554 S
C142 C143 1.419 . S
C142 H171 0.948 . S
C143 C142 1.419 . S
C143 C144 1.391 1_554 S
C143 C147 1.397 1_565 S
C144 C139 1.391 . S
C144 C143 1.391 1_556 S
C144 C145 1.399 . S
C145 C144 1.399 . S
C145 C146 1.392 1_566 S
C145 C148 1.453 1_565 S
C145 C149 1.684 . S
C146 C127 1.716 . S
C146 C145 1.392 1_544 S
C146 C147 1.396 . S
C147 C143 1.397 1_545 S
C147 C146 1.396 . S
C147 C157 1.723 . S
C148 C145 1.453 1_545 S
C148 H172 0.982 . S
C148 H173 0.979 . S
C148 H174 0.977 . S
C149 C145 1.684 . S
C149 H175 0.979 . S
C149 H176 0.980 . S
C149 H177 0.983 . S
C150 H126 0.948 . S
C150 C151 1.391 . S
C150 C155 1.391 . S
C151 C150 1.391 . S
C151 C152 1.391 . S
C152 H129 0.947 . S
C152 C151 1.391 . S
C152 C153 1.392 . S
C153 H130 0.948 . S
C153 C152 1.392 . S
C153 C154 1.419 . S
C154 C153 1.419 . S
C154 C155 1.391 . S
C154 C158 1.397 1_565 S
C155 C150 1.391 . S
C155 C154 1.391 . S
C155 C156 1.399 . S
C156 C155 1.399 . S
C156 C157 1.390 1_565 S
C156 C159 1.453 1_565 S
C156 C160 1.684 . S
C157 C147 1.723 . S
C157 C156 1.390 1_545 S
C157 C158 1.387 . S
C158 C128 1.726 . S
C158 C154 1.397 1_545 S
C158 C157 1.387 . S
C159 H131 0.982 . S
C159 H135 0.979 . S
C159 H136 0.977 . S
C159 C156 1.453 1_545 S
C160 H132 0.979 . S
C160 H133 0.980 . S
C160 H134 0.983 . S
C160 C156 1.684 . S
H161 C179 0.948 1_556 S
H162 C120 0.948 . S
H163 C138 0.979 . S
H164 C138 0.980 . S
H165 C138 0.983 . S
H166 C137 0.982 . S
H167 C137 0.979 . S
H168 C137 0.977 . S
H169 C139 0.948 . S
H170 C141 0.945 1_554 S
H171 C142 0.948 . S
H172 C148 0.982 . S
H173 C148 0.979 . S
H174 C148 0.977 . S
H175 C149 0.979 . S
H176 C149 0.980 . S
H177 C149 0.983 . S
H178 C122 0.947 . S
C179 C122 1.392 1_554 S
C179 C123 1.419 . S
C179 H161 0.948 1_554 S
C180 C181 1.391 . S
C180 C184 1.391 . S
C180 H222 0.948 . S
C181 C180 1.391 . S
C181 C182 1.391 . S
C182 C181 1.391 . S
C182 H238 0.947 . S
C182 C239 1.392 . S
C183 C184 1.391 . S
C183 C187 1.397 . S
C183 C239 1.419 . S
C184 C180 1.391 . S
C184 C183 1.391 . S
C184 C185 1.399 . S
C185 C184 1.399 . S
C185 C188 1.396 . S
C185 C197 1.453 . S
C185 C198 1.684 . S
H186 C210 0.948 1_556 S
C187 C183 1.397 . S
C187 C188 1.394 . S
C187 C206 1.723 . S
C188 C185 1.396 . S
C188 C187 1.394 . S
C188 C218 1.723 . S
H189 C212 0.947 . S
H190 C213 0.948 . S
H191 C219 0.982 . S
H192 C220 0.979 . S
H193 C220 0.980 . S
H194 C220 0.983 . S
H195 C219 0.979 . S
H196 C219 0.977 . S
C197 C185 1.453 . S
C197 H226 0.982 . S
C197 H227 0.979 . S
C197 H228 0.977 . S
C198 C185 1.684 . S
C198 H223 0.979 . S
C198 H224 0.980 . S
C198 H225 0.983 . S
C199 C200 1.391 . S
C199 C204 1.391 1_556 S
C199 H229 0.948 . S
C200 C199 1.391 . S
C200 C201 1.391 . S
C201 C200 1.391 . S
C201 C202 1.392 . S
C201 H230 0.947 . S
C202 C201 1.392 . S
C202 C203 1.419 . S
C202 H231 0.948 . S
C203 C202 1.419 . S
C203 C204 1.391 1_556 S
C203 C207 1.397 1_556 S
C204 C199 1.391 1_554 S
C204 C203 1.391 1_554 S
C204 C205 1.399 . S
C205 C204 1.399 . S
C205 C206 1.396 . S
C205 C208 1.453 . S
C205 C209 1.684 . S
C206 C187 1.723 . S
C206 C205 1.396 . S
C206 C207 1.394 . S
C207 C203 1.397 1_554 S
C207 C206 1.394 . S
C207 C217 1.723 . S
C208 C205 1.453 . S
C208 H232 0.982 . S
C208 H233 0.979 . S
C208 H234 0.977 . S
C209 C205 1.684 . S
C209 H235 0.979 . S
C209 H236 0.980 . S
C209 H237 0.983 . S
C210 H186 0.948 1_554 S
C210 C211 1.391 . S
C210 C215 1.391 . S
C211 C210 1.391 . S
C211 C212 1.391 . S
C212 H189 0.947 . S
C212 C211 1.391 . S
C212 C213 1.392 . S
C213 H190 0.948 . S
C213 C212 1.392 . S
C213 C214 1.419 . S
C214 C213 1.419 . S
C214 C215 1.391 . S
C214 C218 1.397 . S
C215 C210 1.391 . S
C215 C214 1.391 . S
C215 C216 1.399 1_554 S
C216 C215 1.399 1_556 S
C216 C217 1.396 1_556 S
C216 C219 1.453 . S
C216 C220 1.684 . S
C217 C207 1.723 . S
C217 C216 1.396 1_554 S
C217 C218 1.394 . S
C218 C188 1.723 . S
C218 C214 1.397 . S
C218 C217 1.394 . S
C219 H191 0.982 . S
C219 H195 0.979 . S
C219 H196 0.977 . S
C219 C216 1.453 . S
C220 H192 0.979 . S
C220 H193 0.980 . S
C220 H194 0.983 . S
C220 C216 1.684 . S
H221 C239 0.948 . S
H222 C180 0.948 . S
H223 C198 0.979 . S
H224 C198 0.980 . S
H225 C198 0.983 . S
H226 C197 0.982 . S
H227 C197 0.979 . S
H228 C197 0.977 . S
H229 C199 0.948 . S
H230 C201 0.947 . S
H231 C202 0.948 . S
H232 C208 0.982 . S
H233 C208 0.979 . S
H234 C208 0.977 . S
H235 C209 0.979 . S
H236 C209 0.980 . S
H237 C209 0.983 . S
H238 C182 0.947 . S
C239 C182 1.392 . S
C239 C183 1.419 . S
C239 H221 0.948 . S
C240 C241 1.391 . S
C240 C244 1.391 . S
C240 H282 0.948 . S
C241 C240 1.391 . S
C241 C242 1.391 . S
C242 C241 1.391 . S
C242 H298 0.947 . S
C242 C299 1.392 . S
C243 C244 1.391 . S
C243 C247 1.397 . S
C243 C299 1.419 . S
C244 C240 1.391 . S
C244 C243 1.391 . S
C244 C245 1.399 . S
C245 C244 1.399 . S
C245 C248 1.396 . S
C245 C257 1.453 . S
C245 C258 1.684 . S
H246 C270 0.948 . S
C247 C243 1.397 . S
C247 C248 1.394 . S
C247 C266 1.723 . S
C248 C245 1.396 . S
C248 C247 1.394 . S
C248 C278 1.723 . S
H249 C272 0.947 . S
H250 C273 0.948 . S
H251 C279 0.982 . S
H252 C280 0.979 . S
H253 C280 0.980 . S
H254 C280 0.983 . S
H255 C279 0.979 . S
H256 C279 0.977 . S
C257 C245 1.453 . S
C257 H286 0.982 . S
C257 H287 0.979 . S
C257 H288 0.977 . S
C258 C245 1.684 . S
C258 H283 0.979 . S
C258 H284 0.980 . S
C258 H285 0.983 . S
C259 C260 1.391 . S
C259 C264 1.391 . S
C259 H289 0.948 . S
C260 C259 1.391 . S
C260 C261 1.391 . S
C261 C260 1.391 . S
C261 C262 1.392 . S
C261 H290 0.947 . S
C262 C261 1.392 . S
C262 C263 1.419 . S
C262 H291 0.948 . S
C263 C262 1.419 . S
C263 C264 1.391 . S
C263 C267 1.397 . S
C264 C259 1.391 . S
C264 C263 1.391 . S
C264 C265 1.399 . S
C265 C264 1.399 . S
C265 C266 1.396 . S
C265 C268 1.453 . S
C265 C269 1.684 . S
C266 C247 1.723 . S
C266 C265 1.396 . S
C266 C267 1.394 . S
C267 C263 1.397 . S
C267 C266 1.394 . S
C267 C277 1.723 . S
C268 C265 1.453 . S
C268 H292 0.982 . S
C268 H293 0.979 . S
C268 H294 0.977 . S
C269 C265 1.684 . S
C269 H295 0.979 . S
C269 H296 0.980 . S
C269 H297 0.983 . S
C270 H246 0.948 . S
C270 C271 1.391 . S
C270 C275 1.391 . S
C271 C270 1.391 . S
C271 C272 1.391 . S
C272 H249 0.947 . S
C272 C271 1.391 . S
C272 C273 1.392 . S
C273 H250 0.948 . S
C273 C272 1.392 . S
C273 C274 1.419 . S
C274 C273 1.419 . S
C274 C275 1.391 . S
C274 C278 1.397 . S
C275 C270 1.391 . S
C275 C274 1.391 . S
C275 C276 1.399 . S
C276 C275 1.399 . S
C276 C277 1.396 . S
C276 C279 1.453 . S
C276 C280 1.684 . S
C277 C267 1.723 . S
C277 C276 1.396 . S
C277 C278 1.394 . S
C278 C248 1.723 . S
C278 C274 1.397 . S
C278 C277 1.394 . S
C279 H251 0.982 . S
C279 H255 0.979 . S
C279 H256 0.977 . S
C279 C276 1.453 . S
C280 H252 0.979 . S
C280 H253 0.980 . S
C280 H254 0.983 . S
C280 C276 1.684 . S
H281 C299 0.948 . S
H282 C240 0.948 . S
H283 C258 0.979 . S
H284 C258 0.980 . S
H285 C258 0.983 . S
H286 C257 0.982 . S
H287 C257 0.979 . S
H288 C257 0.977 . S
H289 C259 0.948 . S
H290 C261 0.947 . S
H291 C262 0.948 . S
H292 C268 0.982 . S
H293 C268 0.979 . S
H294 C268 0.977 . S
H295 C269 0.979 . S
H296 C269 0.980 . S
H297 C269 0.983 . S
H298 C242 0.947 . S
C299 C242 1.392 . S
C299 C243 1.419 . S
C299 H281 0.948 . S
C300 C301 1.391 . S
C300 C304 1.391 . S
C300 H342 0.948 . S
C301 C300 1.391 . S
C301 C302 1.391 . S
C302 C301 1.391 . S
C302 H358 0.947 . S
C302 C359 1.392 . S
C303 C304 1.391 . S
C303 C307 1.397 . S
C303 C359 1.419 . S
C304 C300 1.391 . S
C304 C303 1.391 . S
C304 C305 1.399 . S
C305 C304 1.399 . S
C305 C308 1.396 . S
C305 C317 1.453 . S
C305 C318 1.684 . S
H306 C330 0.948 . S
C307 C303 1.397 . S
C307 C308 1.394 . S
C307 C326 1.723 . S
C308 C305 1.396 . S
C308 C307 1.394 . S
C308 C338 1.723 . S
H309 C332 0.947 . S
H310 C333 0.948 . S
H311 C339 0.982 . S
H312 C340 0.979 . S
H313 C340 0.980 . S
H314 C340 0.983 . S
H315 C339 0.979 . S
H316 C339 0.977 . S
C317 C305 1.453 . S
C317 H346 0.982 . S
C317 H347 0.979 . S
C317 H348 0.977 . S
C318 C305 1.684 . S
C318 H343 0.979 . S
C318 H344 0.980 . S
C318 H345 0.983 . S
C319 C320 1.391 . S
C319 C324 1.391 . S
C319 H349 0.948 . S
C320 C319 1.391 . S
C320 C321 1.391 . S
C321 C320 1.391 . S
C321 C322 1.392 . S
C321 H350 0.947 . S
C322 C321 1.392 . S
C322 C323 1.419 . S
C322 H351 0.948 . S
C323 C322 1.419 . S
C323 C324 1.391 . S
C323 C327 1.397 . S
C324 C319 1.391 . S
C324 C323 1.391 . S
C324 C325 1.399 . S
C325 C324 1.399 . S
C325 C326 1.396 . S
C325 C328 1.453 . S
C325 C329 1.684 . S
C326 C307 1.723 . S
C326 C325 1.396 . S
C326 C327 1.394 . S
C327 C323 1.397 . S
C327 C326 1.394 . S
C327 C337 1.723 . S
C328 C325 1.453 . S
C328 H352 0.982 . S
C328 H353 0.979 . S
C328 H354 0.977 . S
C329 C325 1.684 . S
C329 H355 0.979 . S
C329 H356 0.980 . S
C329 H357 0.983 . S
C330 H306 0.948 . S
C330 C331 1.391 . S
C330 C335 1.391 . S
C331 C330 1.391 . S
C331 C332 1.391 . S
C332 H309 0.947 . S
C332 C331 1.391 . S
C332 C333 1.392 . S
C333 H310 0.948 . S
C333 C332 1.392 . S
C333 C334 1.419 . S
C334 C333 1.419 . S
C334 C335 1.391 . S
C334 C338 1.397 . S
C335 C330 1.391 . S
C335 C334 1.391 . S
C335 C336 1.399 . S
C336 C335 1.399 . S
C336 C337 1.396 . S
C336 C339 1.453 . S
C336 C340 1.684 . S
C337 C327 1.723 . S
C337 C336 1.396 . S
C337 C338 1.394 . S
C338 C308 1.723 . S
C338 C334 1.397 . S
C338 C337 1.394 . S
C339 H311 0.982 . S
C339 H315 0.979 . S
C339 H316 0.977 . S
C339 C336 1.453 . S
C340 H312 0.979 . S
C340 H313 0.980 . S
C340 H314 0.983 . S
C340 C336 1.684 . S
H341 C359 0.948 . S
H342 C300 0.948 . S
H343 C318 0.979 . S
H344 C318 0.980 . S
H345 C318 0.983 . S
H346 C317 0.982 . S
H347 C317 0.979 . S
H348 C317 0.977 . S
H349 C319 0.948 . S
H350 C321 0.947 . S
H351 C322 0.948 . S
H352 C328 0.982 . S
H353 C328 0.979 . S
H354 C328 0.977 . S
H355 C329 0.979 . S
H356 C329 0.980 . S
H357 C329 0.983 . S
H358 C302 0.947 . S
C359 C302 1.392 . S
C359 C303 1.419 . S
C359 H341 0.948 . S
C360 C361 1.391 . S
C360 C364 1.391 . S
C360 H402 0.948 . S
C361 C360 1.391 . S
C361 C362 1.391 . S
C362 C361 1.391 . S
C362 H418 0.947 . S
C362 C419 1.392 . S
C363 C364 1.391 . S
C363 C367 1.397 . S
C363 C419 1.419 . S
C364 C360 1.391 . S
C364 C363 1.391 . S
C364 C365 1.399 . S
C365 C364 1.399 . S
C365 C368 1.396 . S
C365 C377 1.453 1_545 S
C365 C378 1.684 . S
H366 C390 0.948 . S
C367 C363 1.397 . S
C367 C368 1.394 . S
C367 C386 1.723 . S
C368 C365 1.396 . S
C368 C367 1.394 . S
C368 C398 1.723 . S
H369 C392 0.947 . S
H370 C393 0.948 . S
H371 C399 0.982 . S
H372 C400 0.979 . S
H373 C400 0.980 . S
H374 C400 0.983 . S
H375 C399 0.979 . S
H376 C399 0.977 . S
C377 C365 1.453 1_565 S
C377 H406 0.982 . S
C377 H407 0.979 . S
C377 H408 0.977 . S
C378 C365 1.684 . S
C378 H403 0.979 . S
C378 H404 0.980 . S
C378 H405 0.983 . S
C379 C380 1.391 . S
C379 C384 1.391 . S
C379 H409 0.948 . S
C380 C379 1.391 . S
C380 C381 1.391 . S
C381 C380 1.391 . S
C381 C382 1.392 . S
C381 H410 0.947 . S
C382 C381 1.392 . S
C382 C383 1.419 . S
C382 H411 0.948 . S
C383 C382 1.419 . S
C383 C384 1.391 . S
C383 C387 1.397 . S
C384 C379 1.391 . S
C384 C383 1.391 . S
C384 C385 1.399 . S
C385 C384 1.399 . S
C385 C386 1.396 . S
C385 C388 1.453 1_545 S
C385 C389 1.684 . S
C386 C367 1.723 . S
C386 C385 1.396 . S
C386 C387 1.394 . S
C387 C383 1.397 . S
C387 C386 1.394 . S
C387 C397 1.723 . S
C388 C385 1.453 1_565 S
C388 H412 0.982 . S
C388 H413 0.979 . S
C388 H414 0.977 . S
C389 C385 1.684 . S
C389 H415 0.979 . S
C389 H416 0.980 . S
C389 H417 0.983 . S
C390 H366 0.948 . S
C390 C391 1.391 . S
C390 C395 1.391 . S
C391 C390 1.391 . S
C391 C392 1.391 . S
C392 H369 0.947 . S
C392 C391 1.391 . S
C392 C393 1.392 . S
C393 H370 0.948 . S
C393 C392 1.392 . S
C393 C394 1.419 . S
C394 C393 1.419 . S
C394 C395 1.391 . S
C394 C398 1.397 . S
C395 C390 1.391 . S
C395 C394 1.391 . S
C395 C396 1.399 . S
C396 C395 1.399 . S
C396 C397 1.396 . S
C396 C399 1.453 1_545 S
C396 C400 1.684 . S
C397 C387 1.723 . S
C397 C396 1.396 . S
C397 C398 1.394 . S
C398 C368 1.723 . S
C398 C394 1.397 . S
C398 C397 1.394 . S
C399 H371 0.982 . S
C399 H375 0.979 . S
C399 H376 0.977 . S
C399 C396 1.453 1_565 S
C400 H372 0.979 . S
C400 H373 0.980 . S
C400 H374 0.983 . S
C400 C396 1.684 . S
H401 C419 0.948 . S
H402 C360 0.948 . S
H403 C378 0.979 . S
H404 C378 0.980 . S
H405 C378 0.983 . S
H406 C377 0.982 . S
H407 C377 0.979 . S
H408 C377 0.977 . S
H409 C379 0.948 . S
H410 C381 0.947 . S
H411 C382 0.948 . S
H412 C388 0.982 . S
H413 C388 0.979 . S
H414 C388 0.977 . S
H415 C389 0.979 . S
H416 C389 0.980 . S
H417 C389 0.983 . S
H418 C362 0.947 . S
C419 C362 1.392 . S
C419 C363 1.419 . S
C419 H401 0.948 . S
C420 C421 1.391 . S
C420 C424 1.391 . S
C420 H462 0.948 . S
C421 C420 1.391 . S
C421 C422 1.391 . S
C422 C421 1.391 . S
C422 H478 0.947 . S
C422 C479 1.392 . S
C423 C424 1.391 . S
C423 C427 1.397 . S
C423 C479 1.419 . S
C424 C420 1.391 . S
C424 C423 1.391 . S
C424 C425 1.399 . S
C425 C424 1.399 . S
C425 C428 1.396 . S
C425 C437 1.453 . S
C425 C438 1.684 . S
H426 C450 0.948 . S
C427 C423 1.397 . S
C427 C428 1.394 . S
C427 C446 1.723 . S
C428 C425 1.396 . S
C428 C427 1.394 . S
C428 C458 1.723 . S
H429 C452 0.947 . S
H430 C453 0.948 . S
H431 C459 0.982 . S
H432 C460 0.979 . S
H433 C460 0.980 . S
H434 C460 0.983 . S
H435 C459 0.979 . S
H436 C459 0.977 . S
C437 C425 1.453 . S
C437 H466 0.982 . S
C437 H467 0.979 . S
C437 H468 0.977 . S
C438 C425 1.684 . S
C438 H463 0.979 . S
C438 H464 0.980 . S
C438 H465 0.983 . S
C439 C440 1.391 . S
C439 C444 1.391 . S
C439 H469 0.948 . S
C440 C439 1.391 . S
C440 C441 1.391 . S
C441 C440 1.391 . S
C441 C442 1.392 . S
C441 H470 0.947 . S
C442 C441 1.392 . S
C442 C443 1.419 . S
C442 H471 0.948 . S
C443 C442 1.419 . S
C443 C444 1.391 . S
C443 C447 1.397 . S
C444 C439 1.391 . S
C444 C443 1.391 . S
C444 C445 1.399 . S
C445 C444 1.399 . S
C445 C446 1.396 . S
C445 C448 1.453 . S
C445 C449 1.684 . S
C446 C427 1.723 . S
C446 C445 1.396 . S
C446 C447 1.394 . S
C447 C443 1.397 . S
C447 C446 1.394 . S
C447 C457 1.723 . S
C448 C445 1.453 . S
C448 H472 0.982 . S
C448 H473 0.979 . S
C448 H474 0.977 . S
C449 C445 1.684 . S
C449 H475 0.979 . S
C449 H476 0.980 . S
C449 H477 0.983 . S
C450 H426 0.948 . S
C450 C451 1.391 . S
C450 C455 1.391 . S
C451 C450 1.391 . S
C451 C452 1.391 . S
C452 H429 0.947 . S
C452 C451 1.391 . S
C452 C453 1.392 . S
C453 H430 0.948 . S
C453 C452 1.392 . S
C453 C454 1.419 . S
C454 C453 1.419 . S
C454 C455 1.391 . S
C454 C458 1.397 . S
C455 C450 1.391 . S
C455 C454 1.391 . S
C455 C456 1.399 . S
C456 C455 1.399 . S
C456 C457 1.396 . S
C456 C459 1.453 . S
C456 C460 1.684 . S
C457 C447 1.723 . S
C457 C456 1.396 . S
C457 C458 1.394 . S
C458 C428 1.723 . S
C458 C454 1.397 . S
C458 C457 1.394 . S
C459 H431 0.982 . S
C459 H435 0.979 . S
C459 H436 0.977 . S
C459 C456 1.453 . S
C460 H432 0.979 . S
C460 H433 0.980 . S
C460 H434 0.983 . S
C460 C456 1.684 . S
H461 C479 0.948 . S
H462 C420 0.948 . S
H463 C438 0.979 . S
H464 C438 0.980 . S
H465 C438 0.983 . S
H466 C437 0.982 . S
H467 C437 0.979 . S
H468 C437 0.977 . S
H469 C439 0.948 . S
H470 C441 0.947 . S
H471 C442 0.948 . S
H472 C448 0.982 . S
H473 C448 0.979 . S
H474 C448 0.977 . S
H475 C449 0.979 . S
H476 C449 0.980 . S
H477 C449 0.983 . S
H478 C422 0.947 . S
C479 C422 1.392 . S
C479 C423 1.419 . S
C479 H461 0.948 . S
Tb480 O483 2.453 1_665 S
Tb480 O484 2.596 1_665 S
Tb480 O485 2.374 1_655 S
Tb480 O493 2.343 . S
Tb480 O495 2.353 1_565 S
Tb480 O497 2.427 . S
Tb480 O498 2.513 . S
C481 O485 1.251 . S
C481 O487 1.263 . S
Tb482 O484 2.343 . S
Tb482 O487 2.353 1_545 S
Tb482 O490 2.427 . S
Tb482 O491 2.513 . S
Tb482 O492 2.453 1_545 S
Tb482 O493 2.596 1_445 S
Tb482 O494 2.374 1_455 S
O483 Tb480 2.453 1_445 S
O483 C499 1.245 . S
O484 Tb480 2.596 1_445 S
O484 Tb482 2.343 . S
O484 C499 1.259 . S
O485 Tb480 2.374 1_455 S
O485 C481 1.251 . S
C486 O490 1.275 . S
C486 O491 1.246 . S
O487 C481 1.263 . S
O487 Tb482 2.353 1_565 S
C488 O492 1.245 1_655 S
C488 O493 1.259 . S
C489 O494 1.250 . S
C489 O495 1.263 . S
O490 Tb482 2.427 . S
O490 C486 1.275 . S
O491 Tb482 2.513 . S
O491 C486 1.246 . S
O492 Tb482 2.453 1_565 S
O492 C488 1.245 1_455 S
O493 Tb480 2.343 . S
O493 Tb482 2.596 1_665 S
O493 C488 1.259 . S
O494 Tb482 2.374 1_655 S
O494 C489 1.250 . S
O495 Tb480 2.353 1_545 S
O495 C489 1.263 . S
C496 O497 1.275 . S
C496 O498 1.246 . S
O497 Tb480 2.427 . S
O497 C496 1.275 . S
O498 Tb480 2.513 . S
O498 C496 1.246 . S
C499 O483 1.245 . S
C499 O484 1.259 . S
Tb500 O503 2.453 . S
Tb500 O504 2.596 1_545 S
Tb500 O505 2.374 . S
Tb500 O513 2.343 . S
Tb500 O515 2.353 . S
Tb500 O517 2.427 . S
Tb500 O518 2.513 . S
C501 O505 1.262 . S
C501 O507 1.252 1_545 S
Tb502 O504 2.343 . S
Tb502 O507 2.353 . S
Tb502 O510 2.427 . S
Tb502 O511 2.513 . S
Tb502 O512 2.453 . S
Tb502 O513 2.596 1_565 S
Tb502 O514 2.374 . S
O503 Tb500 2.453 . S
O503 C519 1.245 . S
O504 Tb500 2.596 1_565 S
O504 Tb502 2.343 . S
O504 C519 1.259 1_565 S
O505 Tb500 2.374 . S
O505 C501 1.262 . S
C506 O510 1.275 . S
C506 O511 1.246 . S
O507 C501 1.252 1_565 S
O507 Tb502 2.353 . S
C508 O512 1.245 . S
C508 O513 1.259 1_565 S
C509 O514 1.250 1_545 S
C509 O515 1.263 . S
O510 Tb502 2.427 . S
O510 C506 1.275 . S
O511 Tb502 2.513 . S
O511 C506 1.246 . S
O512 Tb502 2.453 . S
O512 C508 1.245 . S
O513 Tb500 2.343 . S
O513 Tb502 2.596 1_545 S
O513 C508 1.259 1_545 S
O514 Tb502 2.374 . S
O514 C509 1.250 1_565 S
O515 Tb500 2.353 . S
O515 C509 1.263 . S
C516 O517 1.275 . S
C516 O518 1.246 . S
O517 Tb500 2.427 . S
O517 C516 1.275 . S
O518 Tb500 2.513 . S
O518 C516 1.246 . S
C519 O503 1.245 . S
C519 O504 1.259 1_545 S
Tb520 O523 2.453 . S
Tb520 O524 2.596 . S
Tb520 O525 2.374 . S
Tb520 O533 2.343 . S
Tb520 O535 2.353 . S
Tb520 O537 2.427 . S
Tb520 O538 2.513 . S
C521 O525 1.251 . S
C521 O527 1.263 . S
Tb522 O524 2.343 . S
Tb522 O527 2.353 . S
Tb522 O530 2.427 . S
Tb522 O531 2.513 . S
Tb522 O532 2.453 . S
Tb522 O533 2.596 . S
Tb522 O534 2.374 . S
O523 Tb520 2.453 . S
O523 C539 1.245 . S
O524 Tb520 2.596 . S
O524 Tb522 2.343 . S
O524 C539 1.259 . S
O525 Tb520 2.374 . S
O525 C521 1.251 . S
C526 O530 1.275 . S
C526 O531 1.246 . S
O527 C521 1.263 . S
O527 Tb522 2.353 . S
C528 O532 1.245 . S
C528 O533 1.259 . S
C529 O534 1.250 . S
C529 O535 1.263 . S
O530 Tb522 2.427 . S
O530 C526 1.275 . S
O531 Tb522 2.513 . S
O531 C526 1.246 . S
O532 Tb522 2.453 . S
O532 C528 1.245 . S
O533 Tb520 2.343 . S
O533 Tb522 2.596 . S
O533 C528 1.259 . S
O534 Tb522 2.374 . S
O534 C529 1.250 . S
O535 Tb520 2.353 . S
O535 C529 1.263 . S
C536 O537 1.275 . S
C536 O538 1.246 . S
O537 Tb520 2.427 . S
O537 C536 1.275 . S
O538 Tb520 2.513 . S
O538 C536 1.246 . S
C539 O523 1.245 . S
C539 O524 1.259 . S
Tb540 O543 2.453 1_655 S
Tb540 O544 2.596 1_655 S
Tb540 O545 2.374 1_655 S
Tb540 O553 2.343 . S
Tb540 O555 2.353 . S
Tb540 O557 2.427 . S
Tb540 O558 2.513 . S
C541 O545 1.251 . S
C541 O547 1.263 . S
Tb542 O544 2.343 . S
Tb542 O547 2.353 . S
Tb542 O550 2.427 . S
Tb542 O551 2.513 . S
Tb542 O552 2.453 1_455 S
Tb542 O553 2.596 1_455 S
Tb542 O554 2.374 . S
O543 Tb540 2.453 1_455 S
O543 C559 1.245 . S
O544 Tb540 2.596 1_455 S
O544 Tb542 2.343 . S
O544 C559 1.259 . S
O545 Tb540 2.374 1_455 S
O545 C541 1.251 . S
C546 O550 1.275 . S
C546 O551 1.246 . S
O547 C541 1.263 . S
O547 Tb542 2.353 . S
C548 O552 1.245 . S
C548 O553 1.259 . S
C549 O554 1.250 1_655 S
C549 O555 1.263 . S
O550 Tb542 2.427 . S
O550 C546 1.275 . S
O551 Tb542 2.513 . S
O551 C546 1.246 . S
O552 Tb542 2.453 1_655 S
O552 C548 1.245 . S
O553 Tb540 2.343 . S
O553 Tb542 2.596 1_655 S
O553 C548 1.259 . S
O554 Tb542 2.374 . S
O554 C549 1.250 1_455 S
O555 Tb540 2.353 . S
O555 C549 1.263 . S
C556 O557 1.275 . S
C556 O558 1.246 . S
O557 Tb540 2.427 . S
O557 C556 1.275 . S
O558 Tb540 2.513 . S
O558 C556 1.246 . S
C559 O543 1.245 . S
C559 O544 1.259 . S
H560 C568 0.929 . S
H561 C570 0.930 . S
H562 C572 0.930 . S
H563 C575 0.929 . S
H564 C578 0.930 . S
H565 C580 0.960 . S
H566 C580 0.960 . S
H567 C580 0.960 . S
C568 H560 0.929 . S
C568 C569 1.377 . S
C568 C570 1.384 . S
C569 C568 1.377 . S
C569 C575 1.390 1_545 S
C570 H561 0.930 . S
C570 C568 1.384 . S
C570 C571 1.372 . S
C571 C570 1.372 . S
C571 C572 1.400 1_545 S
C571 C576 1.490 . S
C572 H562 0.930 . S
C572 C571 1.400 1_565 S
C572 C575 1.386 . S
H573 C589 0.930 . S
H574 C590 0.931 . S
C575 H563 0.929 . S
C575 C569 1.390 1_565 S
C575 C572 1.386 . S
C576 C571 1.490 . S
C576 C578 1.384 1_545 S
C576 C579 1.414 . S
H577 C583 0.930 . S
C578 H564 0.930 . S
C578 C576 1.384 1_565 S
C578 C581 1.403 . S
C579 C576 1.414 . S
C579 C580 1.524 . S
C579 C583 1.400 . S
C580 H565 0.960 . S
C580 H566 0.960 . S
C580 H567 0.960 . S
C580 C579 1.524 . S
C581 C578 1.403 . S
C581 C582 1.392 . S
C581 C585 1.495 . S
C582 C581 1.392 . S
C582 C583 1.385 1_565 S
C582 C584 1.478 . S
C583 H577 0.930 . S
C583 C579 1.400 . S
C583 C582 1.385 1_545 S
C584 C582 1.478 . S
C584 C586 1.381 1_565 S
C584 C590 1.383 . S
C585 C581 1.495 . S
C585 H591 0.959 . S
C585 H592 0.961 . S
C585 H593 0.960 . S
C586 C584 1.381 1_545 S
C586 C587 1.394 . S
C586 H594 0.930 . S
C587 C586 1.394 . S
C587 C588 1.383 1_545 S
C587 H595 0.929 . S
C588 C587 1.383 1_565 S
C588 C589 1.377 . S
C589 H573 0.930 . S
C589 C588 1.377 . S
C589 C590 1.379 . S
C590 H574 0.931 . S
C590 C584 1.383 . S
C590 C589 1.379 . S
H591 C585 0.959 . S
H592 C585 0.961 . S
H593 C585 0.960 . S
H594 C586 0.930 . S
H595 C587 0.929 . S
H596 C604 0.929 . S
H597 C606 0.930 . S
H598 C608 0.930 . S
H599 C611 0.929 . S
H600 C614 0.930 . S
H601 C616 0.960 . S
H602 C616 0.960 . S
H603 C616 0.960 . S
C604 H596 0.929 . S
C604 C605 1.377 . S
C604 C606 1.384 . S
C605 C604 1.377 . S
C605 C611 1.390 . S
C606 H597 0.930 . S
C606 C604 1.384 . S
C606 C607 1.372 . S
C607 C606 1.372 . S
C607 C608 1.400 . S
C607 C612 1.490 . S
C608 H598 0.930 . S
C608 C607 1.400 . S
C608 C611 1.386 . S
H609 C625 0.930 . S
H610 C626 0.931 . S
C611 H599 0.929 . S
C611 C605 1.390 . S
C611 C608 1.386 . S
C612 C607 1.490 . S
C612 C614 1.395 . S
C612 C615 1.403 . S
H613 C619 0.930 . S
C614 H600 0.930 . S
C614 C612 1.395 . S
C614 C617 1.403 . S
C615 C612 1.403 . S
C615 C616 1.524 . S
C615 C619 1.400 . S
C616 H601 0.960 . S
C616 H602 0.960 . S
C616 H603 0.960 . S
C616 C615 1.524 . S
C617 C614 1.403 . S
C617 C618 1.392 . S
C617 C621 1.495 . S
C618 C617 1.392 . S
C618 C619 1.385 . S
C618 C620 1.478 . S
C619 H613 0.930 . S
C619 C615 1.400 . S
C619 C618 1.385 . S
C620 C618 1.478 . S
C620 C622 1.381 . S
C620 C626 1.383 . S
C621 C617 1.495 . S
C621 H627 0.959 . S
C621 H628 0.961 . S
C621 H629 0.960 . S
C622 C620 1.381 . S
C622 C623 1.394 . S
C622 H630 0.930 . S
C623 C622 1.394 . S
C623 C624 1.383 . S
C623 H631 0.929 . S
C624 C623 1.383 . S
C624 C625 1.377 . S
C625 H609 0.930 . S
C625 C624 1.377 . S
C625 C626 1.379 . S
C626 H610 0.931 . S
C626 C620 1.383 . S
C626 C625 1.379 . S
H627 C621 0.959 . S
H628 C621 0.961 . S
H629 C621 0.960 . S
H630 C622 0.930 . S
H631 C623 0.929 . S
H632 C640 0.929 . S
H633 C642 0.930 . S
H634 C644 0.930 . S
H635 C647 0.929 . S
H636 C650 0.930 . S
H637 C652 0.960 . S
H638 C652 0.960 . S
H639 C652 0.960 . S
C640 H632 0.929 . S
C640 C641 1.377 . S
C640 C642 1.384 . S
C641 C640 1.377 . S
C641 C647 1.390 . S
C642 H633 0.930 . S
C642 C640 1.384 . S
C642 C643 1.372 . S
C643 C642 1.372 . S
C643 C644 1.400 . S
C643 C648 1.490 . S
C644 H634 0.930 . S
C644 C643 1.400 . S
C644 C647 1.386 . S
H645 C661 0.930 . S
H646 C662 0.931 . S
C647 H635 0.929 . S
C647 C641 1.390 . S
C647 C644 1.386 . S
C648 C643 1.490 . S
C648 C650 1.395 . S
C648 C651 1.403 . S
H649 C655 0.930 . S
C650 H636 0.930 . S
C650 C648 1.395 . S
C650 C653 1.403 . S
C651 C648 1.403 . S
C651 C652 1.524 . S
C651 C655 1.400 . S
C652 H637 0.960 . S
C652 H638 0.960 . S
C652 H639 0.960 . S
C652 C651 1.524 . S
C653 C650 1.403 . S
C653 C654 1.392 . S
C653 C657 1.495 . S
C654 C653 1.392 . S
C654 C655 1.385 . S
C654 C656 1.478 . S
C655 H649 0.930 . S
C655 C651 1.400 . S
C655 C654 1.385 . S
C656 C654 1.478 . S
C656 C658 1.381 . S
C656 C662 1.383 . S
C657 C653 1.495 . S
C657 H663 0.959 . S
C657 H664 0.961 . S
C657 H665 0.960 . S
C658 C656 1.381 . S
C658 C659 1.394 . S
C658 H666 0.930 . S
C659 C658 1.394 . S
C659 C660 1.383 . S
C659 H667 0.929 . S
C660 C659 1.383 . S
C660 C661 1.377 . S
C661 H645 0.930 . S
C661 C660 1.377 . S
C661 C662 1.379 . S
C662 H646 0.931 . S
C662 C656 1.383 . S
C662 C661 1.379 . S
H663 C657 0.959 . S
H664 C657 0.961 . S
H665 C657 0.960 . S
H666 C658 0.930 . S
H667 C659 0.929 . S
H668 C676 0.929 . S
H669 C678 0.930 . S
H670 C680 0.930 . S
H671 C683 0.929 . S
H672 C686 0.930 . S
H673 C688 0.960 . S
H674 C688 0.960 . S
H675 C688 0.960 . S
C676 H668 0.929 . S
C676 C677 1.377 . S
C676 C678 1.384 . S
C677 C676 1.377 . S
C677 C683 1.390 . S
C678 H669 0.930 . S
C678 C676 1.384 . S
C678 C679 1.372 . S
C679 C678 1.372 . S
C679 C680 1.400 . S
C679 C684 1.490 . S
C680 H670 0.930 . S
C680 C679 1.400 . S
C680 C683 1.386 . S
H681 C697 0.930 . S
H682 C698 0.931 . S
C683 H671 0.929 . S
C683 C677 1.390 . S
C683 C680 1.386 . S
C684 C679 1.490 . S
C684 C686 1.395 . S
C684 C687 1.403 . S
H685 C691 0.930 . S
C686 H672 0.930 . S
C686 C684 1.395 . S
C686 C689 1.403 . S
C687 C684 1.403 . S
C687 C688 1.524 . S
C687 C691 1.400 . S
C688 H673 0.960 . S
C688 H674 0.960 . S
C688 H675 0.960 . S
C688 C687 1.524 . S
C689 C686 1.403 . S
C689 C690 1.392 . S
C689 C693 1.495 . S
C690 C689 1.392 . S
C690 C691 1.385 . S
C690 C692 1.478 . S
C691 H685 0.930 . S
C691 C687 1.400 . S
C691 C690 1.385 . S
C692 C690 1.478 . S
C692 C694 1.381 . S
C692 C698 1.383 . S
C693 C689 1.495 . S
C693 H699 0.959 . S
C693 H700 0.961 . S
C693 H701 0.960 . S
C694 C692 1.381 . S
C694 C695 1.394 . S
C694 H702 0.930 . S
C695 C694 1.394 . S
C695 C696 1.383 . S
C695 H703 0.929 . S
C696 C695 1.383 . S
C696 C697 1.377 . S
C697 H681 0.930 . S
C697 C696 1.377 . S
C697 C698 1.379 . S
C698 H682 0.931 . S
C698 C692 1.383 . S
C698 C697 1.379 . S
H699 C693 0.959 . S
H700 C693 0.961 . S
H701 C693 0.960 . S
H702 C694 0.930 . S
H703 C695 0.929 . S
H704 C712 0.929 . S
H705 C714 0.930 . S
H706 C716 0.930 . S
H707 C719 0.929 . S
H708 C722 0.932 1_565 S
H709 C724 0.960 . S
H710 C724 0.909 1_564 S
H711 C724 1.009 1_554 S
C712 H704 0.929 . S
C712 C713 1.382 1_566 S
C712 C714 1.384 . S
C713 C712 1.382 1_544 S
C713 C719 1.386 . S
C714 H705 0.930 . S
C714 C712 1.384 . S
C714 C715 1.359 1_565 S
C715 C714 1.359 1_545 S
C715 C716 1.414 . S
C715 C720 1.491 . S
C716 H706 0.930 . S
C716 C715 1.414 . S
C716 C719 1.386 1_556 S
H717 C733 0.930 . S
H718 C734 0.931 . S
C719 H707 0.929 . S
C719 C713 1.386 . S
C719 C716 1.386 1_554 S
C720 C715 1.491 . S
C720 C722 1.396 . S
C720 C723 1.400 . S
H721 C727 0.930 . S
C722 H708 0.932 1_545 S
C722 C720 1.396 . S
C722 C725 1.404 . S
C723 C720 1.400 . S
C723 C724 1.530 . S
C723 C727 1.400 . S
C724 H709 0.960 . S
C724 H710 0.909 1_546 S
C724 H711 1.009 1_556 S
C724 C723 1.530 . S
C725 C722 1.404 . S
C725 C726 1.392 . S
C725 C729 1.495 . S
C726 C725 1.392 . S
C726 C727 1.385 . S
C726 C728 1.478 . S
C727 H721 0.930 . S
C727 C723 1.400 . S
C727 C726 1.385 . S
C728 C726 1.478 . S
C728 C730 1.381 1_545 S
C728 C734 1.383 . S
C729 C725 1.495 . S
C729 H735 0.958 . S
C729 H736 0.961 . S
C729 H737 0.960 1_545 S
C730 C728 1.381 1_565 S
C730 C731 1.394 . S
C730 H738 0.930 . S
C731 C730 1.394 . S
C731 C732 1.383 1_565 S
C731 H739 0.929 . S
C732 C731 1.383 1_545 S
C732 C733 1.377 . S
C733 H717 0.930 . S
C733 C732 1.377 . S
C733 C734 1.379 . S
C734 H718 0.931 . S
C734 C728 1.383 . S
C734 C733 1.379 . S
H735 C729 0.958 . S
H736 C729 0.961 . S
H737 C729 0.960 1_565 S
H738 C730 0.930 . S
H739 C731 0.929 . S
H740 C748 0.929 1_554 S
H741 C750 0.930 . S
H742 C752 0.930 . S
H743 C755 0.929 . S
H744 C758 0.930 . S
H745 C760 0.960 . S
H746 C760 0.960 . S
H747 C760 0.960 . S
C748 H740 0.929 1_556 S
C748 C749 1.377 1_556 S
C748 C750 1.384 . S
C749 C748 1.377 1_554 S
C749 C755 1.390 1_554 S
C750 H741 0.930 . S
C750 C748 1.384 . S
C750 C751 1.372 . S
C751 C750 1.372 . S
C751 C752 1.400 . S
C751 C756 1.490 . S
C752 H742 0.930 . S
C752 C751 1.400 . S
C752 C755 1.386 . S
H753 C769 0.930 . S
H754 C770 0.931 . S
C755 H743 0.929 . S
C755 C749 1.390 1_556 S
C755 C752 1.386 . S
C756 C751 1.490 . S
C756 C758 1.395 . S
C756 C759 1.403 . S
H757 C763 0.930 . S
C758 H744 0.930 . S
C758 C756 1.395 . S
C758 C761 1.403 . S
C759 C756 1.403 . S
C759 C760 1.524 . S
C759 C763 1.400 . S
C760 H745 0.960 . S
C760 H746 0.960 . S
C760 H747 0.960 . S
C760 C759 1.524 . S
C761 C758 1.403 . S
C761 C762 1.392 . S
C761 C765 1.495 . S
C762 C761 1.392 . S
C762 C763 1.385 . S
C762 C764 1.478 . S
C763 H757 0.930 . S
C763 C759 1.400 . S
C763 C762 1.385 . S
C764 C762 1.478 . S
C764 C766 1.381 . S
C764 C770 1.383 . S
C765 C761 1.495 . S
C765 H771 0.959 . S
C765 H772 0.961 . S
C765 H773 0.960 . S
C766 C764 1.381 . S
C766 C767 1.394 . S
C766 H774 0.930 . S
C767 C766 1.394 . S
C767 C768 1.383 . S
C767 H775 0.929 . S
C768 C767 1.383 . S
C768 C769 1.377 . S
C769 H753 0.930 . S
C769 C768 1.377 . S
C769 C770 1.379 . S
C770 H754 0.931 . S
C770 C764 1.383 . S
C770 C769 1.379 . S
H771 C765 0.959 . S
H772 C765 0.961 . S
H773 C765 0.960 . S
H774 C766 0.930 . S
H775 C767 0.929 . S
H776 C784 0.929 . S
H777 C786 0.930 . S
H778 C788 0.930 . S
H779 C791 0.930 1_554 S
H780 C794 0.930 . S
H781 C796 0.960 . S
H782 C796 0.960 . S
H783 C796 0.960 . S
C784 H776 0.929 . S
C784 C785 1.377 . S
C784 C786 1.384 . S
C785 C784 1.377 . S
C785 C791 1.390 . S
C786 H777 0.930 . S
C786 C784 1.384 . S
C786 C787 1.372 . S
C787 C786 1.372 . S
C787 C788 1.400 . S
C787 C792 1.490 . S
C788 H778 0.930 . S
C788 C787 1.400 . S
C788 C791 1.385 . S
H789 C805 0.930 . S
H790 C806 0.931 . S
C791 H779 0.930 1_556 S
C791 C785 1.390 . S
C791 C788 1.385 . S
C792 C787 1.490 . S
C792 C794 1.395 . S
C792 C795 1.403 . S
H793 C799 0.930 . S
C794 H780 0.930 . S
C794 C792 1.395 . S
C794 C797 1.403 . S
C795 C792 1.403 . S
C795 C796 1.524 . S
C795 C799 1.400 . S
C796 H781 0.960 . S
C796 H782 0.960 . S
C796 H783 0.960 . S
C796 C795 1.524 . S
C797 C794 1.403 . S
C797 C798 1.392 . S
C797 C801 1.495 . S
C798 C797 1.392 . S
C798 C799 1.385 . S
C798 C800 1.478 . S
C799 H793 0.930 . S
C799 C795 1.400 . S
C799 C798 1.385 . S
C800 C798 1.478 . S
C800 C802 1.381 . S
C800 C806 1.383 . S
C801 C797 1.495 . S
C801 H807 0.959 . S
C801 H808 0.961 . S
C801 H809 0.960 . S
C802 C800 1.381 . S
C802 C803 1.394 . S
C802 H810 0.930 . S
C803 C802 1.394 . S
C803 C804 1.383 . S
C803 H811 0.929 . S
C804 C803 1.383 . S
C804 C805 1.377 . S
C805 H789 0.930 . S
C805 C804 1.377 . S
C805 C806 1.379 . S
C806 H790 0.931 . S
C806 C800 1.383 . S
C806 C805 1.379 . S
H807 C801 0.959 . S
H808 C801 0.961 . S
H809 C801 0.960 . S
H810 C802 0.930 . S
H811 C803 0.929 . S
H812 C820 0.929 . S
H813 C822 0.930 . S
H814 C824 0.930 . S
H815 C827 0.929 . S
H816 C830 0.930 . S
H817 C832 0.960 . S
H818 C832 0.960 . S
H819 C832 0.960 . S
C820 H812 0.929 . S
C820 C821 1.377 . S
C820 C822 1.384 . S
C821 C820 1.377 . S
C821 C827 1.390 . S
C822 H813 0.930 . S
C822 C820 1.384 . S
C822 C823 1.372 . S
C823 C822 1.372 . S
C823 C824 1.400 . S
C823 C828 1.490 . S
C824 H814 0.930 . S
C824 C823 1.400 . S
C824 C827 1.386 . S
H825 C841 0.930 . S
H826 C842 0.931 . S
C827 H815 0.929 . S
C827 C821 1.390 . S
C827 C824 1.386 . S
C828 C823 1.490 . S
C828 C830 1.395 . S
C828 C831 1.403 . S
H829 C835 0.930 . S
C830 H816 0.930 . S
C830 C828 1.395 . S
C830 C833 1.403 . S
C831 C828 1.403 . S
C831 C832 1.524 . S
C831 C835 1.400 . S
C832 H817 0.960 . S
C832 H818 0.960 . S
C832 H819 0.960 . S
C832 C831 1.524 . S
C833 C830 1.403 . S
C833 C834 1.392 . S
C833 C837 1.495 . S
C834 C833 1.392 . S
C834 C835 1.385 . S
C834 C836 1.478 . S
C835 H829 0.930 . S
C835 C831 1.400 . S
C835 C834 1.385 . S
C836 C834 1.478 . S
C836 C838 1.381 . S
C836 C842 1.383 . S
C837 C833 1.495 . S
C837 H843 0.959 . S
C837 H844 0.961 . S
C837 H845 0.960 . S
C838 C836 1.381 . S
C838 C839 1.394 . S
C838 H846 0.930 . S
C839 C838 1.394 . S
C839 C840 1.383 . S
C839 H847 0.929 . S
C840 C839 1.383 . S
C840 C841 1.377 . S
C841 H825 0.930 . S
C841 C840 1.377 . S
C841 C842 1.379 . S
C842 H826 0.931 . S
C842 C836 1.383 . S
C842 C841 1.379 . S
H843 C837 0.959 . S
H844 C837 0.961 . S
H845 C837 0.960 . S
H846 C838 0.930 . S
H847 C839 0.929 . S
H848 C856 0.929 . S
H849 C858 0.930 . S
H850 C860 0.930 . S
H851 C863 0.929 . S
H852 C866 0.930 . S
H853 C868 0.960 . S
H854 C868 0.960 . S
H855 C868 0.960 . S
C856 H848 0.929 . S
C856 C857 1.377 . S
C856 C858 1.384 . S
C857 C856 1.377 . S
C857 C863 1.390 . S
C858 H849 0.930 . S
C858 C856 1.384 . S
C858 C859 1.372 . S
C859 C858 1.372 . S
C859 C860 1.400 . S
C859 C864 1.490 . S
C860 H850 0.930 . S
C860 C859 1.400 . S
C860 C863 1.386 . S
H861 C877 0.930 . S
H862 C878 0.931 . S
C863 H851 0.929 . S
C863 C857 1.390 . S
C863 C860 1.386 . S
C864 C859 1.490 . S
C864 C866 1.395 . S
C864 C867 1.403 . S
H865 C871 0.930 . S
C866 H852 0.930 . S
C866 C864 1.395 . S
C866 C869 1.403 . S
C867 C864 1.403 . S
C867 C868 1.524 . S
C867 C871 1.400 . S
C868 H853 0.960 . S
C868 H854 0.960 . S
C868 H855 0.960 . S
C868 C867 1.524 . S
C869 C866 1.403 . S
C869 C870 1.392 . S
C869 C873 1.495 . S
C870 C869 1.392 . S
C870 C871 1.385 . S
C870 C872 1.478 . S
C871 H865 0.930 . S
C871 C867 1.400 . S
C871 C870 1.385 . S
C872 C870 1.478 . S
C872 C874 1.381 . S
C872 C878 1.383 . S
C873 C869 1.495 . S
C873 H879 0.959 . S
C873 H880 0.961 . S
C873 H881 0.960 . S
C874 C872 1.381 . S
C874 C875 1.394 . S
C874 H882 0.930 . S
C875 C874 1.394 . S
C875 C876 1.383 . S
C875 H883 0.929 . S
C876 C875 1.383 . S
C876 C877 1.377 . S
C877 H861 0.930 . S
C877 C876 1.377 . S
C877 C878 1.379 . S
C878 H862 0.931 . S
C878 C872 1.383 . S
C878 C877 1.379 . S
H879 C873 0.959 . S
H880 C873 0.961 . S
H881 C873 0.960 . S
H882 C874 0.930 . S
H883 C875 0.929 . S
H884 C892 0.929 . S
H885 C894 0.930 . S
H886 C896 0.930 . S
H887 C899 0.929 . S
H888 C902 0.930 . S
H889 C904 0.960 . S
H890 C904 0.960 . S
H891 C904 0.960 . S
C892 H884 0.929 . S
C892 C893 1.377 . S
C892 C894 1.384 . S
C893 C892 1.377 . S
C893 C899 1.390 1_545 S
C894 H885 0.930 . S
C894 C892 1.384 . S
C894 C895 1.372 . S
C895 C894 1.372 . S
C895 C896 1.400 1_545 S
C895 C900 1.490 . S
C896 H886 0.930 . S
C896 C895 1.400 1_565 S
C896 C899 1.386 . S
H897 C913 0.930 . S
H898 C914 0.931 . S
C899 H887 0.929 . S
C899 C893 1.390 1_565 S
C899 C896 1.386 . S
C900 C895 1.490 . S
C900 C902 1.395 1_545 S
C900 C903 1.403 . S
H901 C907 0.930 . S
C902 H888 0.930 . S
C902 C900 1.395 1_565 S
C902 C905 1.403 . S
C903 C900 1.403 . S
C903 C904 1.524 . S
C903 C907 1.400 . S
C904 H889 0.960 . S
C904 H890 0.960 . S
C904 H891 0.960 . S
C904 C903 1.524 . S
C905 C902 1.403 . S
C905 C906 1.392 . S
C905 C909 1.495 . S
C906 C905 1.392 . S
C906 C907 1.385 1_565 S
C906 C908 1.478 . S
C907 H901 0.930 . S
C907 C903 1.400 . S
C907 C906 1.385 1_545 S
C908 C906 1.478 . S
C908 C910 1.381 1_565 S
C908 C914 1.383 . S
C909 C905 1.495 . S
C909 H915 0.959 . S
C909 H916 0.961 . S
C909 H917 0.960 . S
C910 C908 1.381 1_545 S
C910 C911 1.394 . S
C910 H918 0.930 . S
C911 C910 1.394 . S
C911 C912 1.383 1_545 S
C911 H919 0.929 . S
C912 C911 1.383 1_565 S
C912 C913 1.377 . S
C913 H897 0.930 . S
C913 C912 1.377 . S
C913 C914 1.379 . S
C914 H898 0.931 . S
C914 C908 1.383 . S
C914 C913 1.379 . S
H915 C909 0.959 . S
H916 C909 0.961 . S
H917 C909 0.960 . S
H918 C910 0.930 . S
H919 C911 0.929 . S
H920 C928 0.929 . S
H921 C930 0.930 . S
H922 C932 0.930 . S
H923 C935 0.929 . S
H924 C938 0.930 . S
H925 C940 0.960 . S
H926 C940 0.960 . S
H927 C940 0.960 . S
C928 H920 0.929 . S
C928 C929 1.377 . S
C928 C930 1.384 . S
C929 C928 1.377 . S
C929 C935 1.390 . S
C930 H921 0.930 . S
C930 C928 1.384 . S
C930 C931 1.372 . S
C931 C930 1.372 . S
C931 C932 1.400 . S
C931 C936 1.490 . S
C932 H922 0.930 . S
C932 C931 1.400 . S
C932 C935 1.386 . S
H933 C949 0.930 . S
H934 C950 0.931 . S
C935 H923 0.929 . S
C935 C929 1.390 . S
C935 C932 1.386 . S
C936 C931 1.490 . S
C936 C938 1.395 . S
C936 C939 1.403 . S
H937 C943 0.930 . S
C938 H924 0.930 . S
C938 C936 1.395 . S
C938 C941 1.403 . S
C939 C936 1.403 . S
C939 C940 1.524 . S
C939 C943 1.400 . S
C940 H925 0.960 . S
C940 H926 0.960 . S
C940 H927 0.960 . S
C940 C939 1.524 . S
C941 C938 1.403 . S
C941 C942 1.392 . S
C941 C945 1.495 . S
C942 C941 1.392 . S
C942 C943 1.385 . S
C942 C944 1.478 . S
C943 H937 0.930 . S
C943 C939 1.400 . S
C943 C942 1.385 . S
C944 C942 1.478 . S
C944 C946 1.381 . S
C944 C950 1.383 . S
C945 C941 1.495 . S
C945 H951 0.959 . S
C945 H952 0.961 . S
C945 H953 0.960 . S
C946 C944 1.381 . S
C946 C947 1.394 . S
C946 H954 0.930 . S
C947 C946 1.394 . S
C947 C948 1.383 . S
C947 H955 0.929 . S
C948 C947 1.383 . S
C948 C949 1.377 . S
C949 H933 0.930 . S
C949 C948 1.377 . S
C949 C950 1.379 . S
C950 H934 0.931 . S
C950 C944 1.383 . S
C950 C949 1.379 . S
H951 C945 0.959 . S
H952 C945 0.961 . S
H953 C945 0.960 . S
H954 C946 0.930 . S
H955 C947 0.929 . S
H956 C964 0.929 . S
H957 C966 0.930 . S
H958 C968 0.930 . S
H959 C971 0.929 . S
H960 C974 0.930 . S
H961 C976 0.960 . S
H962 C976 0.960 . S
H963 C976 0.960 . S
C964 H956 0.929 . S
C964 C965 1.377 . S
C964 C966 1.384 . S
C965 C964 1.377 . S
C965 C971 1.390 . S
C966 H957 0.930 . S
C966 C964 1.384 . S
C966 C967 1.372 . S
C967 C966 1.372 . S
C967 C968 1.400 . S
C967 C972 1.490 . S
C968 H958 0.930 . S
C968 C967 1.400 . S
C968 C971 1.386 . S
H969 C985 0.930 . S
H970 C986 0.931 . S
C971 H959 0.929 . S
C971 C965 1.390 . S
C971 C968 1.386 . S
C972 C967 1.490 . S
C972 C974 1.395 . S
C972 C975 1.403 . S
H973 C979 0.930 . S
C974 H960 0.930 . S
C974 C972 1.395 . S
C974 C977 1.403 . S
C975 C972 1.403 . S
C975 C976 1.524 . S
C975 C979 1.400 . S
C976 H961 0.960 . S
C976 H962 0.960 . S
C976 H963 0.960 . S
C976 C975 1.524 . S
C977 C974 1.403 . S
C977 C978 1.392 . S
C977 C981 1.495 . S
C978 C977 1.392 . S
C978 C979 1.385 . S
C978 C980 1.478 . S
C979 H973 0.930 . S
C979 C975 1.400 . S
C979 C978 1.385 . S
C980 C978 1.478 . S
C980 C982 1.381 . S
C980 C986 1.383 . S
C981 C977 1.495 . S
C981 H987 0.959 . S
C981 H988 0.961 . S
C981 H989 0.960 . S
C982 C980 1.381 . S
C982 C983 1.394 . S
C982 H990 0.930 . S
C983 C982 1.394 . S
C983 C984 1.383 . S
C983 H991 0.929 . S
C984 C983 1.383 . S
C984 C985 1.377 . S
C985 H969 0.930 . S
C985 C984 1.377 . S
C985 C986 1.379 . S
C986 H970 0.931 . S
C986 C980 1.383 . S
C986 C985 1.379 . S
H987 C981 0.959 . S
H988 C981 0.961 . S
H989 C981 0.960 . S
H990 C982 0.930 . S
H991 C983 0.929 . S
H992 C1000 0.929 . S
H993 C1002 0.930 . S
H994 C1004 0.930 . S
H995 C1007 0.929 . S
H996 C1010 0.930 . S
H997 C1012 0.960 . S
H998 C1012 0.960 . S
H999 C1012 0.960 . S
C1000 H992 0.929 . S
C1000 C1001 1.377 . S
C1000 C1002 1.384 . S
C1001 C1000 1.377 . S
C1001 C1007 1.390 . S
C1002 H993 0.930 . S
C1002 C1000 1.384 . S
C1002 C1003 1.372 . S
C1003 C1002 1.372 . S
C1003 C1004 1.400 . S
C1003 C1008 1.490 . S
C1004 H994 0.930 . S
C1004 C1003 1.400 . S
C1004 C1007 1.386 . S
H1005 C1021 0.930 . S
H1006 C1022 0.931 . S
C1007 H995 0.929 . S
C1007 C1001 1.390 . S
C1007 C1004 1.386 . S
C1008 C1003 1.490 . S
C1008 C1010 1.395 . S
C1008 C1011 1.403 . S
H1009 C1015 0.930 . S
C1010 H996 0.930 . S
C1010 C1008 1.395 . S
C1010 C1013 1.403 . S
C1011 C1008 1.403 . S
C1011 C1012 1.524 . S
C1011 C1015 1.400 . S
C1012 H997 0.960 . S
C1012 H998 0.960 . S
C1012 H999 0.960 . S
C1012 C1011 1.524 . S
C1013 C1010 1.403 . S
C1013 C1014 1.392 . S
C1013 C1017 1.495 . S
C1014 C1013 1.392 . S
C1014 C1015 1.385 . S
C1014 C1016 1.478 . S
C1015 H1009 0.930 . S
C1015 C1011 1.400 . S
C1015 C1014 1.385 . S
C1016 C1014 1.478 . S
C1016 C1018 1.381 . S
C1016 C1022 1.383 . S
C1017 C1013 1.495 . S
C1017 H1023 0.959 . S
C1017 H1024 0.961 . S
C1017 H1025 0.960 . S
C1018 C1016 1.381 . S
C1018 C1019 1.394 . S
C1018 H1026 0.930 . S
C1019 C1018 1.394 . S
C1019 C1020 1.383 . S
C1019 H1027 0.929 . S
C1020 C1019 1.383 . S
C1020 C1021 1.377 . S
C1021 H1005 0.930 . S
C1021 C1020 1.377 . S
C1021 C1022 1.379 . S
C1022 H1006 0.931 . S
C1022 C1016 1.383 . S
C1022 C1021 1.379 . S
H1023 C1017 0.959 . S
H1024 C1017 0.961 . S
H1025 C1017 0.960 . S
H1026 C1018 0.930 . S
H1027 C1019 0.929 . S
H1028 C1036 0.929 . S
H1029 C1038 0.930 . S
H1030 C1040 0.930 . S
H1031 C1043 0.929 . S
H1032 C1046 0.930 . S
H1033 C1048 0.960 . S
H1034 C1048 0.960 . S
H1035 C1048 0.960 . S
C1036 H1028 0.929 . S
C1036 C1037 1.377 1_545 S
C1036 C1038 1.384 . S
C1037 C1036 1.377 1_565 S
C1037 C1043 1.390 . S
C1038 H1029 0.930 . S
C1038 C1036 1.384 . S
C1038 C1039 1.372 . S
C1039 C1038 1.372 . S
C1039 C1040 1.400 1_545 S
C1039 C1044 1.490 . S
C1040 H1030 0.930 . S
C1040 C1039 1.400 1_565 S
C1040 C1043 1.386 . S
H1041 C1057 0.930 . S
H1042 C1058 0.931 . S
C1043 H1031 0.929 . S
C1043 C1037 1.390 . S
C1043 C1040 1.386 . S
C1044 C1039 1.490 . S
C1044 C1046 1.395 . S
C1044 C1047 1.403 1_545 S
H1045 C1051 0.930 . S
C1046 H1032 0.930 . S
C1046 C1044 1.395 . S
C1046 C1049 1.403 . S
C1047 C1044 1.403 1_565 S
C1047 C1048 1.524 . S
C1047 C1051 1.400 . S
C1048 H1033 0.960 . S
C1048 H1034 0.960 . S
C1048 H1035 0.960 . S
C1048 C1047 1.524 . S
C1049 C1046 1.403 . S
C1049 C1050 1.392 . S
C1049 C1053 1.495 . S
C1050 C1049 1.392 . S
C1050 C1051 1.385 1_545 S
C1050 C1052 1.478 . S
C1051 H1045 0.930 . S
C1051 C1047 1.400 . S
C1051 C1050 1.385 1_565 S
C1052 C1050 1.478 . S
C1052 C1054 1.381 . S
C1052 C1058 1.383 1_545 S
C1053 C1049 1.495 . S
C1053 H1059 0.959 . S
C1053 H1060 0.961 . S
C1053 H1061 0.960 . S
C1054 C1052 1.381 . S
C1054 C1055 1.394 . S
C1054 H1062 0.930 . S
C1055 C1054 1.394 . S
C1055 C1056 1.383 . S
C1055 H1063 0.929 . S
C1056 C1055 1.383 . S
C1056 C1057 1.377 1_545 S
C1057 H1041 0.930 . S
C1057 C1056 1.377 1_565 S
C1057 C1058 1.379 . S
C1058 H1042 0.931 . S
C1058 C1052 1.383 1_565 S
C1058 C1057 1.379 . S
H1059 C1053 0.959 . S
H1060 C1053 0.961 . S
H1061 C1053 0.960 . S
H1062 C1054 0.930 . S
H1063 C1055 0.929 . S
H1064 C1072 0.929 . S
H1065 C1074 0.930 . S
H1066 C1076 0.930 . S
H1067 C1079 0.929 . S
H1068 C1082 0.930 . S
H1069 C1084 0.960 . S
H1070 C1084 0.960 . S
H1071 C1084 0.960 . S
C1072 H1064 0.929 . S
C1072 C1073 1.377 . S
C1072 C1074 1.384 . S
C1073 C1072 1.377 . S
C1073 C1079 1.390 . S
C1074 H1065 0.930 . S
C1074 C1072 1.384 . S
C1074 C1075 1.372 . S
C1075 C1074 1.372 . S
C1075 C1076 1.400 . S
C1075 C1080 1.490 . S
C1076 H1066 0.930 . S
C1076 C1075 1.400 . S
C1076 C1079 1.386 . S
H1077 C1093 0.930 . S
H1078 C1094 0.931 . S
C1079 H1067 0.929 . S
C1079 C1073 1.390 . S
C1079 C1076 1.386 . S
C1080 C1075 1.490 . S
C1080 C1082 1.395 . S
C1080 C1083 1.403 . S
H1081 C1087 0.930 . S
C1082 H1068 0.930 . S
C1082 C1080 1.395 . S
C1082 C1085 1.403 . S
C1083 C1080 1.403 . S
C1083 C1084 1.524 . S
C1083 C1087 1.400 . S
C1084 H1069 0.960 . S
C1084 H1070 0.960 . S
C1084 H1071 0.960 . S
C1084 C1083 1.524 . S
C1085 C1082 1.403 . S
C1085 C1086 1.392 . S
C1085 C1089 1.495 . S
C1086 C1085 1.392 . S
C1086 C1087 1.385 . S
C1086 C1088 1.478 . S
C1087 H1081 0.930 . S
C1087 C1083 1.400 . S
C1087 C1086 1.385 . S
C1088 C1086 1.478 . S
C1088 C1090 1.381 . S
C1088 C1094 1.383 . S
C1089 C1085 1.495 . S
C1089 H1095 0.959 . S
C1089 H1096 0.961 . S
C1089 H1097 0.960 . S
C1090 C1088 1.381 . S
C1090 C1091 1.394 . S
C1090 H1098 0.930 . S
C1091 C1090 1.394 . S
C1091 C1092 1.383 . S
C1091 H1099 0.929 . S
C1092 C1091 1.383 . S
C1092 C1093 1.377 . S
C1093 H1077 0.930 . S
C1093 C1092 1.377 . S
C1093 C1094 1.379 . S
C1094 H1078 0.931 . S
C1094 C1088 1.383 . S
C1094 C1093 1.379 . S
H1095 C1089 0.959 . S
H1096 C1089 0.961 . S
H1097 C1089 0.960 . S
H1098 C1090 0.930 . S
H1099 C1091 0.929 . S
H1100 C1108 0.929 . S
H1101 C1110 0.930 . S
H1102 C1112 0.930 . S
H1103 C1115 0.929 . S
H1104 C1118 0.930 . S
H1105 C1120 0.960 . S
H1106 C1120 0.960 . S
H1107 C1120 0.960 . S
C1108 H1100 0.929 . S
C1108 C1109 1.377 . S
C1108 C1110 1.384 . S
C1109 C1108 1.377 . S
C1109 C1115 1.390 . S
C1110 H1101 0.930 . S
C1110 C1108 1.384 . S
C1110 C1111 1.372 . S
C1111 C1110 1.372 . S
C1111 C1112 1.400 . S
C1111 C1116 1.490 . S
C1112 H1102 0.930 . S
C1112 C1111 1.400 . S
C1112 C1115 1.386 . S
H1113 C1129 0.930 . S
H1114 C1130 0.931 . S
C1115 H1103 0.929 . S
C1115 C1109 1.390 . S
C1115 C1112 1.386 . S
C1116 C1111 1.490 . S
C1116 C1118 1.395 . S
C1116 C1119 1.403 . S
H1117 C1123 0.930 . S
C1118 H1104 0.930 . S
C1118 C1116 1.395 . S
C1118 C1121 1.403 . S
C1119 C1116 1.403 . S
C1119 C1120 1.524 . S
C1119 C1123 1.400 . S
C1120 H1105 0.960 . S
C1120 H1106 0.960 . S
C1120 H1107 0.960 . S
C1120 C1119 1.524 . S
C1121 C1118 1.403 . S
C1121 C1122 1.392 . S
C1121 C1125 1.495 . S
C1122 C1121 1.392 . S
C1122 C1123 1.385 . S
C1122 C1124 1.478 . S
C1123 H1117 0.930 . S
C1123 C1119 1.400 . S
C1123 C1122 1.385 . S
C1124 C1122 1.478 . S
C1124 C1126 1.381 . S
C1124 C1130 1.383 . S
C1125 C1121 1.495 . S
C1125 H1131 0.959 . S
C1125 H1132 0.961 . S
C1125 H1133 0.960 . S
C1126 C1124 1.381 . S
C1126 C1127 1.394 . S
C1126 H1134 0.930 . S
C1127 C1126 1.394 . S
C1127 C1128 1.383 . S
C1127 H1135 0.929 . S
C1128 C1127 1.383 . S
C1128 C1129 1.377 . S
C1129 H1113 0.930 . S
C1129 C1128 1.377 . S
C1129 C1130 1.379 . S
C1130 H1114 0.931 . S
C1130 C1124 1.383 . S
C1130 C1129 1.379 . S
H1131 C1125 0.959 . S
H1132 C1125 0.961 . S
H1133 C1125 0.960 . S
H1134 C1126 0.930 . S
H1135 C1127 0.929 . S
H1136 C1144 0.929 . S
H1137 C1146 0.930 . S
H1138 C1148 0.930 . S
H1139 C1151 0.929 . S
H1140 C1154 0.930 . S
H1141 C1156 0.960 . S
H1142 C1156 0.960 . S
H1143 C1156 0.960 . S
C1144 H1136 0.929 . S
C1144 C1145 1.377 . S
C1144 C1146 1.384 1_554 S
C1145 C1144 1.377 . S
C1145 C1151 1.390 . S
C1146 H1137 0.930 . S
C1146 C1144 1.384 1_556 S
C1146 C1147 1.371 1_556 S
C1147 C1146 1.371 1_554 S
C1147 C1148 1.403 . S
C1147 C1152 1.488 1_554 S
C1148 H1138 0.930 . S
C1148 C1147 1.403 . S
C1148 C1151 1.386 . S
H1149 C1165 0.930 . S
H1150 C1166 0.931 . S
C1151 H1139 0.929 . S
C1151 C1145 1.390 . S
C1151 C1148 1.386 . S
C1152 C1147 1.488 1_556 S
C1152 C1154 1.395 . S
C1152 C1155 1.403 . S
H1153 C1159 0.930 . S
C1154 H1140 0.930 . S
C1154 C1152 1.395 . S
C1154 C1157 1.403 . S
C1155 C1152 1.403 . S
C1155 C1156 1.524 1_556 S
C1155 C1159 1.400 . S
C1156 H1141 0.960 . S
C1156 H1142 0.960 . S
C1156 H1143 0.960 . S
C1156 C1155 1.524 1_554 S
C1157 C1154 1.403 . S
C1157 C1158 1.392 . S
C1157 C1161 1.495 . S
C1158 C1157 1.392 . S
C1158 C1159 1.385 . S
C1158 C1160 1.478 . S
C1159 H1153 0.930 . S
C1159 C1155 1.400 . S
C1159 C1158 1.385 . S
C1160 C1158 1.478 . S
C1160 C1162 1.381 . S
C1160 C1166 1.383 . S
C1161 C1157 1.495 . S
C1161 H1167 0.959 . S
C1161 H1168 0.961 . S
C1161 H1169 0.960 . S
C1162 C1160 1.381 . S
C1162 C1163 1.394 . S
C1162 H1170 0.930 . S
C1163 C1162 1.394 . S
C1163 C1164 1.383 . S
C1163 H1171 0.929 . S
C1164 C1163 1.383 . S
C1164 C1165 1.377 . S
C1165 H1149 0.930 . S
C1165 C1164 1.377 . S
C1165 C1166 1.379 . S
C1166 H1150 0.931 . S
C1166 C1160 1.383 . S
C1166 C1165 1.379 . S
H1167 C1161 0.959 . S
H1168 C1161 0.961 . S
H1169 C1161 0.960 . S
H1170 C1162 0.930 . S
H1171 C1163 0.929 . S
H1172 C1180 0.929 . S
H1173 C1182 0.930 . S
H1174 C1184 0.930 . S
H1175 C1187 0.929 . S
H1176 C1190 0.930 . S
H1177 C1192 0.960 . S
H1178 C1192 0.960 . S
H1179 C1192 0.960 1_545 S
C1180 H1172 0.929 . S
C1180 C1181 1.377 1_566 S
C1180 C1182 1.384 . S
C1181 C1180 1.377 1_544 S
C1181 C1187 1.390 . S
C1182 H1173 0.930 . S
C1182 C1180 1.384 . S
C1182 C1183 1.372 1_565 S
C1183 C1182 1.372 1_545 S
C1183 C1184 1.400 . S
C1183 C1188 1.490 . S
C1184 H1174 0.930 . S
C1184 C1183 1.400 . S
C1184 C1187 1.386 1_556 S
H1185 C1201 0.930 . S
H1186 C1202 0.931 . S
C1187 H1175 0.929 . S
C1187 C1181 1.390 . S
C1187 C1184 1.386 1_554 S
C1188 C1183 1.490 . S
C1188 C1190 1.395 . S
C1188 C1191 1.407 . S
H1189 C1195 0.938 . S
C1190 H1176 0.930 . S
C1190 C1188 1.395 . S
C1190 C1193 1.403 . S
C1191 C1188 1.407 . S
C1191 C1192 1.520 1_546 S
C1191 C1195 1.399 . S
C1192 H1177 0.960 . S
C1192 H1178 0.960 . S
C1192 H1179 0.960 1_565 S
C1192 C1191 1.520 1_564 S
C1193 C1190 1.403 . S
C1193 C1194 1.392 . S
C1193 C1197 1.495 . S
C1194 C1193 1.392 . S
C1194 C1195 1.385 . S
C1194 C1196 1.478 . S
C1195 H1189 0.938 . S
C1195 C1191 1.399 . S
C1195 C1194 1.385 . S
C1196 C1194 1.478 . S
C1196 C1198 1.381 1_545 S
C1196 C1202 1.383 . S
C1197 C1193 1.495 . S
C1197 H1203 0.959 . S
C1197 H1204 0.961 . S
C1197 H1205 0.960 1_545 S
C1198 C1196 1.381 1_565 S
C1198 C1199 1.394 . S
C1198 H1206 0.930 . S
C1199 C1198 1.394 . S
C1199 C1200 1.383 1_565 S
C1199 H1207 0.929 . S
C1200 C1199 1.383 1_545 S
C1200 C1201 1.377 . S
C1201 H1185 0.930 . S
C1201 C1200 1.377 . S
C1201 C1202 1.379 . S
C1202 H1186 0.931 . S
C1202 C1196 1.383 . S
C1202 C1201 1.379 . S
H1203 C1197 0.959 . S
H1204 C1197 0.961 . S
H1205 C1197 0.960 1_565 S
H1206 C1198 0.930 . S
H1207 C1199 0.929 . S
H1208 C1216 0.929 . S
H1209 C1218 0.930 . S
H1210 C1220 0.930 . S
H1211 C1223 0.929 . S
H1212 C1226 0.930 . S
H1213 C1228 0.960 . S
H1214 C1228 0.960 . S
H1215 C1228 0.960 . S
C1216 H1208 0.929 . S
C1216 C1217 1.377 . S
C1216 C1218 1.384 . S
C1217 C1216 1.377 . S
C1217 C1223 1.390 1_554 S
C1218 H1209 0.930 . S
C1218 C1216 1.384 . S
C1218 C1219 1.372 1_554 S
C1219 C1218 1.372 1_556 S
C1219 C1220 1.400 . S
C1219 C1224 1.490 . S
C1220 H1210 0.930 . S
C1220 C1219 1.400 . S
C1220 C1223 1.386 . S
H1221 C1237 0.930 . S
H1222 C1238 0.931 . S
C1223 H1211 0.929 . S
C1223 C1217 1.390 1_556 S
C1223 C1220 1.386 . S
C1224 C1219 1.490 . S
C1224 C1226 1.395 . S
C1224 C1227 1.403 . S
H1225 C1231 0.930 . S
C1226 H1212 0.930 . S
C1226 C1224 1.395 . S
C1226 C1229 1.403 . S
C1227 C1224 1.403 . S
C1227 C1228 1.524 . S
C1227 C1231 1.400 . S
C1228 H1213 0.960 . S
C1228 H1214 0.960 . S
C1228 H1215 0.960 . S
C1228 C1227 1.524 . S
C1229 C1226 1.403 . S
C1229 C1230 1.392 . S
C1229 C1233 1.495 . S
C1230 C1229 1.392 . S
C1230 C1231 1.385 . S
C1230 C1232 1.478 . S
C1231 H1225 0.930 . S
C1231 C1227 1.400 . S
C1231 C1230 1.385 . S
C1232 C1230 1.478 . S
C1232 C1234 1.381 . S
C1232 C1238 1.383 . S
C1233 C1229 1.495 . S
C1233 H1239 0.959 . S
C1233 H1240 0.961 . S
C1233 H1241 0.960 . S
C1234 C1232 1.381 . S
C1234 C1235 1.394 . S
C1234 H1242 0.930 . S
C1235 C1234 1.394 . S
C1235 C1236 1.383 . S
C1235 H1243 0.929 . S
C1236 C1235 1.383 . S
C1236 C1237 1.377 . S
C1237 H1221 0.930 . S
C1237 C1236 1.377 . S
C1237 C1238 1.379 . S
C1238 H1222 0.931 . S
C1238 C1232 1.383 . S
C1238 C1237 1.379 . S
H1239 C1233 0.959 . S
H1240 C1233 0.961 . S
H1241 C1233 0.960 . S
H1242 C1234 0.930 . S
H1243 C1235 0.929 . S
H1244 C1252 0.929 . S
H1245 C1254 0.930 . S
H1246 C1256 0.930 . S
H1247 C1259 0.929 . S
H1248 C1262 0.930 . S
H1249 C1264 0.960 . S
H1250 C1264 0.960 . S
H1251 C1264 0.960 . S
C1252 H1244 0.929 . S
C1252 C1253 1.377 . S
C1252 C1254 1.384 1_554 S
C1253 C1252 1.377 . S
C1253 C1259 1.390 . S
C1254 H1245 0.930 . S
C1254 C1252 1.384 1_556 S
C1254 C1255 1.372 . S
C1255 C1254 1.372 . S
C1255 C1256 1.400 1_556 S
C1255 C1260 1.490 . S
C1256 H1246 0.930 . S
C1256 C1255 1.400 1_554 S
C1256 C1259 1.386 . S
H1257 C1273 0.930 . S
H1258 C1274 0.931 . S
C1259 H1247 0.929 . S
C1259 C1253 1.390 . S
C1259 C1256 1.386 . S
C1260 C1255 1.490 . S
C1260 C1262 1.395 . S
C1260 C1263 1.403 . S
H1261 C1267 0.930 . S
C1262 H1248 0.930 . S
C1262 C1260 1.395 . S
C1262 C1265 1.403 . S
C1263 C1260 1.403 . S
C1263 C1264 1.524 1_556 S
C1263 C1267 1.400 . S
C1264 H1249 0.960 . S
C1264 H1250 0.960 . S
C1264 H1251 0.960 . S
C1264 C1263 1.524 1_554 S
C1265 C1262 1.403 . S
C1265 C1266 1.392 . S
C1265 C1269 1.495 . S
C1266 C1265 1.392 . S
C1266 C1267 1.385 . S
C1266 C1268 1.478 . S
C1267 H1261 0.930 . S
C1267 C1263 1.400 . S
C1267 C1266 1.385 . S
C1268 C1266 1.478 . S
C1268 C1270 1.381 . S
C1268 C1274 1.383 . S
C1269 C1265 1.495 . S
C1269 H1275 0.959 . S
C1269 H1276 0.961 . S
C1269 H1277 0.960 . S
C1270 C1268 1.381 . S
C1270 C1271 1.394 . S
C1270 H1278 0.930 . S
C1271 C1270 1.394 . S
C1271 C1272 1.383 . S
C1271 H1279 0.929 . S
C1272 C1271 1.383 . S
C1272 C1273 1.377 . S
C1273 H1257 0.930 . S
C1273 C1272 1.377 . S
C1273 C1274 1.379 . S
C1274 H1258 0.931 . S
C1274 C1268 1.383 . S
C1274 C1273 1.379 . S
H1275 C1269 0.959 . S
H1276 C1269 0.961 . S
H1277 C1269 0.960 . S
H1278 C1270 0.930 . S
H1279 C1271 0.929 . S
H1280 C1288 0.929 . S
H1281 C1290 0.930 . S
H1282 C1292 0.930 . S
H1283 C1295 0.929 . S
H1284 C1298 0.930 . S
H1285 C1300 0.960 . S
H1286 C1300 0.960 . S
H1287 C1300 0.960 . S
C1288 H1280 0.929 . S
C1288 C1289 1.377 . S
C1288 C1290 1.384 . S
C1289 C1288 1.377 . S
C1289 C1295 1.390 . S
C1290 H1281 0.930 . S
C1290 C1288 1.384 . S
C1290 C1291 1.372 . S
C1291 C1290 1.372 . S
C1291 C1292 1.400 . S
C1291 C1296 1.490 . S
C1292 H1282 0.930 . S
C1292 C1291 1.400 . S
C1292 C1295 1.386 . S
H1293 C1309 0.930 . S
H1294 C1310 0.931 . S
C1295 H1283 0.929 . S
C1295 C1289 1.390 . S
C1295 C1292 1.386 . S
C1296 C1291 1.490 . S
C1296 C1298 1.395 . S
C1296 C1299 1.403 . S
H1297 C1303 0.930 . S
C1298 H1284 0.930 . S
C1298 C1296 1.395 . S
C1298 C1301 1.403 . S
C1299 C1296 1.403 . S
C1299 C1300 1.524 . S
C1299 C1303 1.400 . S
C1300 H1285 0.960 . S
C1300 H1286 0.960 . S
C1300 H1287 0.960 . S
C1300 C1299 1.524 . S
C1301 C1298 1.403 . S
C1301 C1302 1.392 . S
C1301 C1305 1.495 . S
C1302 C1301 1.392 . S
C1302 C1303 1.385 . S
C1302 C1304 1.478 . S
C1303 H1297 0.930 . S
C1303 C1299 1.400 . S
C1303 C1302 1.385 . S
C1304 C1302 1.478 . S
C1304 C1306 1.381 . S
C1304 C1310 1.383 . S
C1305 C1301 1.495 . S
C1305 H1311 0.959 . S
C1305 H1312 0.961 . S
C1305 H1313 0.960 . S
C1306 C1304 1.381 . S
C1306 C1307 1.394 . S
C1306 H1314 0.930 . S
C1307 C1306 1.394 . S
C1307 C1308 1.383 . S
C1307 H1315 0.929 . S
C1308 C1307 1.383 . S
C1308 C1309 1.377 . S
C1309 H1293 0.930 . S
C1309 C1308 1.377 . S
C1309 C1310 1.379 . S
C1310 H1294 0.931 . S
C1310 C1304 1.383 . S
C1310 C1309 1.379 . S
H1311 C1305 0.959 . S
H1312 C1305 0.961 . S
H1313 C1305 0.960 . S
H1314 C1306 0.930 . S
H1315 C1307 0.929 . S
H1316 C1324 0.929 . S
H1317 C1326 0.930 . S
H1318 C1328 0.930 . S
H1319 C1331 0.929 . S
H1320 C1334 0.930 . S
H1321 C1336 0.960 . S
H1322 C1336 0.960 . S
H1323 C1336 0.960 . S
C1324 H1316 0.929 . S
C1324 C1325 1.385 . S
C1324 C1326 1.384 . S
C1325 C1324 1.385 . S
C1325 C1331 1.384 1_545 S
C1326 H1317 0.930 . S
C1326 C1324 1.384 . S
C1326 C1327 1.392 . S
C1327 C1326 1.392 . S
C1327 C1328 1.378 1_545 S
C1327 C1332 1.491 . S
C1328 H1318 0.930 . S
C1328 C1327 1.378 1_565 S
C1328 C1331 1.386 . S
H1329 C1345 0.930 . S
H1330 C1346 0.931 . S
C1331 H1319 0.929 . S
C1331 C1325 1.384 1_565 S
C1331 C1328 1.386 . S
C1332 C1327 1.491 . S
C1332 C1334 1.390 1_545 S
C1332 C1335 1.408 . S
H1333 C1339 0.930 . S
C1334 H1320 0.930 . S
C1334 C1332 1.390 1_565 S
C1334 C1337 1.403 . S
C1335 C1332 1.408 . S
C1335 C1336 1.524 . S
C1335 C1339 1.400 . S
C1336 H1321 0.960 . S
C1336 H1322 0.960 . S
C1336 H1323 0.960 . S
C1336 C1335 1.524 . S
C1337 C1334 1.403 . S
C1337 C1338 1.392 . S
C1337 C1341 1.495 . S
C1338 C1337 1.392 . S
C1338 C1339 1.385 1_565 S
C1338 C1340 1.478 . S
C1339 H1333 0.930 . S
C1339 C1335 1.400 . S
C1339 C1338 1.385 1_545 S
C1340 C1338 1.478 . S
C1340 C1342 1.381 1_565 S
C1340 C1346 1.383 . S
C1341 C1337 1.495 . S
C1341 H1347 0.959 . S
C1341 H1348 0.961 . S
C1341 H1349 0.960 . S
C1342 C1340 1.381 1_545 S
C1342 C1343 1.394 . S
C1342 H1350 0.930 . S
C1343 C1342 1.394 . S
C1343 C1344 1.383 1_545 S
C1343 H1351 0.929 . S
C1344 C1343 1.383 1_565 S
C1344 C1345 1.377 . S
C1345 H1329 0.930 . S
C1345 C1344 1.377 . S
C1345 C1346 1.379 . S
C1346 H1330 0.931 . S
C1346 C1340 1.383 . S
C1346 C1345 1.379 . S
H1347 C1341 0.959 . S
H1348 C1341 0.961 . S
H1349 C1341 0.960 . S
H1350 C1342 0.930 . S
H1351 C1343 0.929 . S
H1352 C1360 0.929 . S
H1353 C1362 0.930 . S
H1354 C1364 0.930 . S
H1355 C1367 0.929 . S
H1356 C1370 0.930 . S
H1357 C1372 0.960 . S
H1358 C1372 0.960 . S
H1359 C1372 0.960 . S
C1360 H1352 0.929 . S
C1360 C1361 1.377 . S
C1360 C1362 1.384 . S
C1361 C1360 1.377 . S
C1361 C1367 1.390 . S
C1362 H1353 0.930 . S
C1362 C1360 1.384 . S
C1362 C1363 1.372 . S
C1363 C1362 1.372 . S
C1363 C1364 1.400 . S
C1363 C1368 1.490 . S
C1364 H1354 0.930 . S
C1364 C1363 1.400 . S
C1364 C1367 1.386 . S
H1365 C1381 0.930 . S
H1366 C1382 0.931 . S
C1367 H1355 0.929 . S
C1367 C1361 1.390 . S
C1367 C1364 1.386 . S
C1368 C1363 1.490 . S
C1368 C1370 1.395 . S
C1368 C1371 1.403 . S
H1369 C1375 0.930 . S
C1370 H1356 0.930 . S
C1370 C1368 1.395 . S
C1370 C1373 1.403 . S
C1371 C1368 1.403 . S
C1371 C1372 1.524 . S
C1371 C1375 1.400 . S
C1372 H1357 0.960 . S
C1372 H1358 0.960 . S
C1372 H1359 0.960 . S
C1372 C1371 1.524 . S
C1373 C1370 1.403 . S
C1373 C1374 1.392 . S
C1373 C1377 1.495 . S
C1374 C1373 1.392 . S
C1374 C1375 1.385 . S
C1374 C1376 1.478 . S
C1375 H1369 0.930 . S
C1375 C1371 1.400 . S
C1375 C1374 1.385 . S
C1376 C1374 1.478 . S
C1376 C1378 1.381 . S
C1376 C1382 1.383 . S
C1377 C1373 1.495 . S
C1377 H1383 0.959 . S
C1377 H1384 0.961 . S
C1377 H1385 0.960 . S
C1378 C1376 1.381 . S
C1378 C1379 1.394 . S
C1378 H1386 0.930 . S
C1379 C1378 1.394 . S
C1379 C1380 1.383 . S
C1379 H1387 0.929 . S
C1380 C1379 1.383 . S
C1380 C1381 1.377 . S
C1381 H1365 0.930 . S
C1381 C1380 1.377 . S
C1381 C1382 1.379 . S
C1382 H1366 0.931 . S
C1382 C1376 1.383 . S
C1382 C1381 1.379 . S
H1383 C1377 0.959 . S
H1384 C1377 0.961 . S
H1385 C1377 0.960 . S
H1386 C1378 0.930 . S
H1387 C1379 0.929 . S
H1388 C1396 0.929 . S
H1389 C1398 0.930 . S
H1390 C1400 0.930 . S
H1391 C1403 0.929 . S
H1392 C1406 0.930 . S
H1393 C1408 0.960 . S
H1394 C1408 0.960 . S
H1395 C1408 0.960 . S
C1396 H1388 0.929 . S
C1396 C1397 1.377 . S
C1396 C1398 1.384 . S
C1397 C1396 1.377 . S
C1397 C1403 1.390 . S
C1398 H1389 0.930 . S
C1398 C1396 1.384 . S
C1398 C1399 1.372 . S
C1399 C1398 1.372 . S
C1399 C1400 1.400 . S
C1399 C1404 1.490 . S
C1400 H1390 0.930 . S
C1400 C1399 1.400 . S
C1400 C1403 1.386 . S
H1401 C1417 0.930 . S
H1402 C1418 0.931 . S
C1403 H1391 0.929 . S
C1403 C1397 1.390 . S
C1403 C1400 1.386 . S
C1404 C1399 1.490 . S
C1404 C1406 1.395 . S
C1404 C1407 1.403 . S
H1405 C1411 0.930 . S
C1406 H1392 0.930 . S
C1406 C1404 1.395 . S
C1406 C1409 1.403 . S
C1407 C1404 1.403 . S
C1407 C1408 1.524 . S
C1407 C1411 1.400 . S
C1408 H1393 0.960 . S
C1408 H1394 0.960 . S
C1408 H1395 0.960 . S
C1408 C1407 1.524 . S
C1409 C1406 1.403 . S
C1409 C1410 1.392 . S
C1409 C1413 1.495 . S
C1410 C1409 1.392 . S
C1410 C1411 1.385 . S
C1410 C1412 1.478 . S
C1411 H1405 0.930 . S
C1411 C1407 1.400 . S
C1411 C1410 1.385 . S
C1412 C1410 1.478 . S
C1412 C1414 1.381 . S
C1412 C1418 1.383 . S
C1413 C1409 1.495 . S
C1413 H1419 0.959 . S
C1413 H1420 0.961 . S
C1413 H1421 0.960 . S
C1414 C1412 1.381 . S
C1414 C1415 1.394 . S
C1414 H1422 0.930 . S
C1415 C1414 1.394 . S
C1415 C1416 1.383 . S
C1415 H1423 0.929 . S
C1416 C1415 1.383 . S
C1416 C1417 1.377 . S
C1417 H1401 0.930 . S
C1417 C1416 1.377 . S
C1417 C1418 1.379 . S
C1418 H1402 0.931 . S
C1418 C1412 1.383 . S
C1418 C1417 1.379 . S
H1419 C1413 0.959 . S
H1420 C1413 0.961 . S
H1421 C1413 0.960 . S
H1422 C1414 0.930 . S
H1423 C1415 0.929 . S
C569 C391 1.482 . S
C588 C481 1.458 . S
C624 C516 2.228 . S
C605 C451 2.195 . S
C660 C521 1.338 . S
C641 C241 1.276 . S
C696 C541 1.859 . S
C677 C331 1.674 . S
C732 C489 1.484 . S
C713 C121 1.392 1_545 S
C749 C211 2.088 . S
C768 C506 2.227 . S
C785 C31 1.366 1_556 S
C804 C529 1.346 . S
C821 C91 1.757 . S
C840 C549 1.857 . S
C876 C499 1.140 . S
C857 C301 1.024 . S
C912 C508 0.394 . S
C893 C380 0.367 . S
C948 C539 1.368 . S
C929 C440 1.336 . S
C965 C260 0.685 . S
C984 C559 0.665 . S
C1001 C61 1.084 . S
C1020 C488 1.172 . S
C1056 C519 0.374 . S
C1037 C140 0.507 . S
C1092 C528 1.338 . S
C1073 C200 1.259 . S
C1109 C20 0.650 . S
C1128 C548 0.629 . S
C1145 C320 2.100 . S
C1164 C486 2.214 . S
C1181 C361 1.481 . S
C1200 C509 1.731 . S
C1236 C526 2.326 . S
C1217 C421 2.091 . S
C1272 C546 2.036 . S
C1253 C271 2.007 . S
C1289 C80 2.186 . S
C1308 C496 2.198 . S
C1344 C501 1.729 1_565 S
C1325 C151 1.681 1_545 S
C1380 C536 2.326 . S
C1361 C181 1.998 . S
C1397 C1 1.814 . S
C1416 C556 2.018 . S
