# Generated by pormake.
# Topology nom, (4,4)-cn, num edge types: 1
# Building blocks:
#     Node 0, Type 0, BuildingBlock: AZAVOO_clean_linker_0, # of connection points: 4
#     Node 1, Type 0, BuildingBlock: AZAVOO_clean_linker_0, # of connection points: 4
#     Node 2, Type 0, BuildingBlock: AZAVOO_clean_linker_0, # of connection points: 4
#     Node 3, Type 0, BuildingBlock: AZAVOO_clean_linker_0, # of connection points: 4
#     Node 4, Type 0, BuildingBlock: AZAVOO_clean_linker_0, # of connection points: 4
#     Node 5, Type 0, BuildingBlock: AZAVOO_clean_linker_0, # of connection points: 4
#     Node 6, Type 1, BuildingBlock: GALJAG_clean_sbu_0, # of connection points: 4
#     Node 7, Type 1, BuildingBlock: GALJAG_clean_sbu_0, # of connection points: 4
#     Node 8, Type 1, BuildingBlock: GALJAG_clean_sbu_0, # of connection points: 4
#     Node 9, Type 1, BuildingBlock: GALJAG_clean_sbu_0, # of connection points: 4
#     Node 10, Type 1, BuildingBlock: GALJAG_clean_sbu_0, # of connection points: 4
#     Node 11, Type 1, BuildingBlock: GALJAG_clean_sbu_0, # of connection points: 4
#     Edge 12, Type (0, 1), BuildingBlock: UVAHIK_clean_linker_0, # of connection points: 2
#     Edge 13, Type (0, 1), BuildingBlock: UVAHIK_clean_linker_0, # of connection points: 2
#     Edge 14, Type (0, 1), BuildingBlock: UVAHIK_clean_linker_0, # of connection points: 2
#     Edge 15, Type (0, 1), BuildingBlock: UVAHIK_clean_linker_0, # of connection points: 2
#     Edge 16, Type (0, 1), BuildingBlock: UVAHIK_clean_linker_0, # of connection points: 2
#     Edge 17, Type (0, 1), BuildingBlock: UVAHIK_clean_linker_0, # of connection points: 2
#     Edge 18, Type (0, 1), BuildingBlock: UVAHIK_clean_linker_0, # of connection points: 2
#     Edge 19, Type (0, 1), BuildingBlock: UVAHIK_clean_linker_0, # of connection points: 2
#     Edge 20, Type (0, 1), BuildingBlock: UVAHIK_clean_linker_0, # of connection points: 2
#     Edge 21, Type (0, 1), BuildingBlock: UVAHIK_clean_linker_0, # of connection points: 2
#     Edge 22, Type (0, 1), BuildingBlock: UVAHIK_clean_linker_0, # of connection points: 2
#     Edge 23, Type (0, 1), BuildingBlock: UVAHIK_clean_linker_0, # of connection points: 2
#     Edge 24, Type (0, 1), BuildingBlock: UVAHIK_clean_linker_0, # of connection points: 2
#     Edge 25, Type (0, 1), BuildingBlock: UVAHIK_clean_linker_0, # of connection points: 2
#     Edge 26, Type (0, 1), BuildingBlock: UVAHIK_clean_linker_0, # of connection points: 2
#     Edge 27, Type (0, 1), BuildingBlock: UVAHIK_clean_linker_0, # of connection points: 2
#     Edge 28, Type (0, 1), BuildingBlock: UVAHIK_clean_linker_0, # of connection points: 2
#     Edge 29, Type (0, 1), BuildingBlock: UVAHIK_clean_linker_0, # of connection points: 2
#     Edge 30, Type (0, 1), BuildingBlock: UVAHIK_clean_linker_0, # of connection points: 2
#     Edge 31, Type (0, 1), BuildingBlock: UVAHIK_clean_linker_0, # of connection points: 2
#     Edge 32, Type (0, 1), BuildingBlock: UVAHIK_clean_linker_0, # of connection points: 2
#     Edge 33, Type (0, 1), BuildingBlock: UVAHIK_clean_linker_0, # of connection points: 2
#     Edge 34, Type (0, 1), BuildingBlock: UVAHIK_clean_linker_0, # of connection points: 2
#     Edge 35, Type (0, 1), BuildingBlock: UVAHIK_clean_linker_0, # of connection points: 2
# Relax obj value: 0.106
# Max RMSD: 0.222
# Mean RMSD: 0.142
data_MOF--net-nom--node1-GALJAG_clean_sbu_0--node2-AZAVOO_clean_linker_0--edge1-UVAHIK_clean_linker_0
_symmetry_space_group_name_H-M    P1
_symmetry_Int_Tables_number       1
_symmetry_cell_setting            triclinic
loop_
_symmetry_equiv_pos_as_xyz
'x, y, z'
_cell_length_a     59.524342
_cell_length_b     60.993321
_cell_length_c     76.773139
_cell_angle_alpha  90.126994
_cell_angle_beta   89.895028
_cell_angle_gamma 121.45782
loop_
_atom_site_label
_atom_site_type_symbol
_atom_site_fract_x
_atom_site_fract_y
_atom_site_fract_z
_atom_type_partial_charge
H0 H 0.07705 0.56759 0.20242 0.0
H1 H 0.18978 0.6809 0.38224 0.0
H2 H 0.00537 0.52821 0.29311 0.0
H3 H 0.97588 0.5068 0.26848 0.0
H4 H 0.97245 0.57486 0.25914 0.0
H5 H 0.00228 0.59621 0.28378 0.0
H6 H 0.06744 0.55915 0.27834 0.0
H7 H 0.07343 0.55719 0.24692 0.0
H8 H 0.05645 0.61727 0.23891 0.0
H9 H 0.05079 0.61917 0.27035 0.0
H10 H 0.11297 0.58809 0.30925 0.0
H11 H 0.15859 0.61247 0.29873 0.0
H12 H 0.14516 0.67072 0.27842 0.0
H13 H 0.09975 0.64626 0.28895 0.0
H14 H 0.08799 0.57617 0.34662 0.0
H15 H 0.12488 0.59556 0.36711 0.0
H16 H 0.14376 0.67119 0.35086 0.0
H17 H 0.10656 0.65152 0.33061 0.0
H18 H 0.02957 0.54734 0.35224 0.0
H19 H 0.03259 0.54666 0.38393 0.0
H20 H 0.05909 0.62748 0.38574 0.0
H21 H 0.0549 0.62763 0.35403 0.0
H22 H 0.9879 0.53373 0.33654 0.0
H23 H 0.94463 0.52278 0.34801 0.0
H24 H 0.95797 0.59541 0.32935 0.0
H25 H 0.00125 0.60643 0.31839 0.0
O26 O 0.07482 0.56883 0.21481 0.0
O27 O 0.06579 0.59964 0.2114 0.0
O28 O 0.16435 0.6334 0.38226 0.0
O29 O 0.17506 0.67272 0.37423 0.0
C30 C 0.02838 0.57809 0.30221 0.0
C31 C 0.05426 0.58979 0.29554 0.0
C32 C 0.07597 0.60157 0.30695 0.0
C33 C 0.07178 0.60062 0.3251 0.0
C34 C 0.04585 0.58899 0.33176 0.0
C35 C 0.0242 0.5785 0.32025 0.0
C36 C 0.00588 0.56369 0.29019 0.0
C37 C -0.00245 0.53817 0.28607 0.0
C38 C 0.98071 0.52599 0.272 0.0
C39 C 0.97203 0.53924 0.26176 0.0
C40 C 0.97909 0.5643 0.26665 0.0
C41 C 0.99587 0.57642 0.2808 0.0
C42 C 0.05857 0.5892 0.27655 0.0
C43 C 0.06514 0.57192 0.26975 0.0
C44 C 0.06849 0.57082 0.25182 0.0
C45 C 0.06533 0.58702 0.24039 0.0
C46 C 0.05896 0.60448 0.24732 0.0
C47 C 0.05568 0.60559 0.26526 0.0
C48 C 0.10313 0.61544 0.29984 0.0
C49 C 0.11993 0.60606 0.30245 0.0
C50 C 0.14593 0.62002 0.29649 0.0
C51 C 0.15544 0.64349 0.28773 0.0
C52 C 0.13832 0.65253 0.28488 0.0
C53 C 0.11242 0.63864 0.29092 0.0
C54 C 0.09462 0.61245 0.33718 0.0
C55 C 0.1001 0.59691 0.34754 0.0
C56 C 0.1212 0.60804 0.35921 0.0
C57 C 0.13728 0.63494 0.36063 0.0
C58 C 0.13179 0.65043 0.3501 0.0
C59 C 0.11061 0.63926 0.33849 0.0
C60 C 0.04181 0.58747 0.35088 0.0
C61 C 0.03493 0.5646 0.35955 0.0
C62 C 0.03706 0.56437 0.37763 0.0
C63 C 0.04646 0.58711 0.38733 0.0
C64 C 0.05158 0.60959 0.37869 0.0
C65 C 0.04924 0.60974 0.36058 0.0
C66 C -0.00228 0.57095 0.32678 0.0
C67 C 0.98152 0.54731 0.33509 0.0
C68 C 0.95689 0.5411 0.34159 0.0
C69 C 0.94802 0.55827 0.33953 0.0
C70 C 0.96423 0.58175 0.33098 0.0
C71 C 0.98891 0.58807 0.32475 0.0
C72 C 0.06865 0.58563 0.22133 0.0
C73 C 0.15968 0.64687 0.37304 0.0
H74 H 0.48768 0.11052 0.37553 0.0
H75 H 0.45866 0.20135 0.55555 0.0
H76 H 0.4718 0.04349 0.46933 0.0
H77 H 0.47277 0.01581 0.44671 0.0
H78 H 0.39409 0.99407 0.43098 0.0
H79 H 0.39327 0.02183 0.45393 0.0
H80 H 0.4887 0.09768 0.451 0.0
H81 H 0.49616 0.10569 0.41966 0.0
H82 H 0.41373 0.07931 0.41269 0.0
H83 H 0.40664 0.07146 0.44406 0.0
H84 H 0.49962 0.13712 0.4823 0.0
H85 H 0.52056 0.18092 0.47107 0.0
H86 H 0.44536 0.16482 0.45147 0.0
H87 H 0.4246 0.12074 0.46267 0.0
H88 H 0.48876 0.12047 0.519 0.0
H89 H 0.49959 0.15554 0.53937 0.0
H90 H 0.42827 0.15318 0.5246 0.0
H91 H 0.41755 0.11789 0.50442 0.0
H92 H 0.47333 0.06631 0.52261 0.0
H93 H 0.48033 0.06955 0.5539 0.0
H94 H 0.40758 0.06843 0.5612 0.0
H95 H 0.40174 0.06671 0.52956 0.0
H96 H 0.45455 0.02263 0.49905 0.0
H97 H 0.43471 0.97911 0.51104 0.0
H98 H 0.36011 0.97474 0.51578 0.0
H99 H 0.38008 0.0181 0.50368 0.0
O100 O 0.48431 0.10724 0.38789 0.0
O101 O 0.44179 0.0935 0.38501 0.0
O102 O 0.4912 0.18781 0.55478 0.0
O103 O 0.45486 0.18749 0.54758 0.0
C104 C 0.43403 0.05427 0.47527 0.0
C105 C 0.4427 0.07904 0.46866 0.0
C106 C 0.44845 0.09937 0.48016 0.0
C107 C 0.44547 0.09494 0.49827 0.0
C108 C 0.43658 0.0701 0.50486 0.0
C109 C 0.43032 0.04966 0.49334 0.0
C110 C 0.43235 0.03436 0.46337 0.0
C111 C 0.45447 0.03213 0.46134 0.0
C112 C 0.45498 0.01633 0.44842 0.0
C113 C 0.43349 0.00274 0.43709 0.0
C114 C 0.41097 0.0044 0.4395 0.0
C115 C 0.41038 0.02007 0.45261 0.0
C116 C 0.44716 0.084 0.44971 0.0
C117 C 0.47233 0.09369 0.44265 0.0
C118 C 0.47651 0.09822 0.42476 0.0
C119 C 0.45553 0.09313 0.41366 0.0
C120 C 0.43031 0.08343 0.42086 0.0
C121 C 0.42618 0.07892 0.43875 0.0
C122 C 0.46062 0.12591 0.47339 0.0
C123 C 0.48767 0.14313 0.47566 0.0
C124 C 0.49955 0.16813 0.46929 0.0
C125 C 0.48457 0.17639 0.46048 0.0
C126 C 0.45743 0.15896 0.45809 0.0
C127 C 0.44554 0.13388 0.46452 0.0
C128 C 0.45227 0.11653 0.51039 0.0
C129 C 0.47545 0.12747 0.52027 0.0
C130 C 0.48161 0.14754 0.53185 0.0
C131 C 0.46474 0.15713 0.53365 0.0
C132 C 0.44165 0.14623 0.52357 0.0
C133 C 0.43549 0.12611 0.51202 0.0
C134 C 0.43715 0.06644 0.52388 0.0
C135 C 0.45861 0.06616 0.53103 0.0
C136 C 0.46247 0.06788 0.549 0.0
C137 C 0.44467 0.06952 0.56023 0.0
C138 C 0.42205 0.06782 0.55299 0.0
C139 C 0.41846 0.06655 0.53493 0.0
C140 C 0.4186 0.02327 0.50026 0.0
C141 C 0.43386 0.0121 0.50247 0.0
C142 C 0.42253 0.98733 0.50935 0.0
C143 C 0.39586 0.97355 0.51434 0.0
C144 C 0.38076 0.98498 0.51222 0.0
C145 C 0.39205 0.00962 0.50522 0.0
C146 C 0.46002 0.09793 0.39466 0.0
C147 C 0.47115 0.1784 0.54598 0.0
H148 H 0.52192 0.51031 0.7601 0.0
H149 H 0.55802 0.44334 0.57342 0.0
H150 H 0.51305 0.56811 0.67457 0.0
H151 H 0.50119 0.58108 0.70137 0.0
H152 H 0.42273 0.51384 0.69835 0.0
H153 H 0.43498 0.50098 0.67133 0.0
H154 H 0.5384 0.53475 0.68576 0.0
H155 H 0.53945 0.5297 0.71733 0.0
H156 H 0.45725 0.46928 0.71627 0.0
H157 H 0.45661 0.47435 0.68469 0.0
H158 H 0.56033 0.51643 0.65302 0.0
H159 H 0.58004 0.4924 0.66385 0.0
H160 H 0.50239 0.42823 0.6761 0.0
H161 H 0.48295 0.45235 0.66525 0.0
H162 H 0.55451 0.53666 0.61657 0.0
H163 H 0.57632 0.52337 0.59572 0.0
H164 H 0.51456 0.44398 0.60312 0.0
H165 H 0.49278 0.45758 0.62376 0.0
H166 H 0.52561 0.56755 0.61473 0.0
H167 H 0.53532 0.57915 0.58394 0.0
H168 H 0.48303 0.49952 0.56966 0.0
H169 H 0.47309 0.48824 0.60043 0.0
H170 H 0.49682 0.57734 0.64303 0.0
H171 H 0.47096 0.59557 0.6328 0.0
H172 H 0.41237 0.52128 0.6122 0.0
H173 H 0.43798 0.50319 0.62286 0.0
O174 O 0.52122 0.51165 0.74757 0.0
O175 O 0.47891 0.48081 0.74632 0.0
O176 O 0.58086 0.49027 0.57808 0.0
O177 O 0.54975 0.44914 0.58156 0.0
C178 C 0.48469 0.52277 0.65813 0.0
C179 C 0.4965 0.50921 0.66405 0.0
C180 C 0.50823 0.50064 0.65206 0.0
C181 C 0.50878 0.50624 0.63417 0.0
C182 C 0.49677 0.5197 0.62829 0.0
C183 C 0.48417 0.52743 0.64023 0.0
C184 C 0.47486 0.53367 0.67111 0.0
C185 C 0.49299 0.55676 0.67932 0.0
C186 C 0.48614 0.5641 0.69464 0.0
C187 C 0.46107 0.54834 0.70203 0.0
C188 C 0.44225 0.5262 0.693 0.0
C189 C 0.4491 0.51896 0.67754 0.0
C190 C 0.49744 0.50495 0.683 0.0
C191 C 0.52074 0.52028 0.69238 0.0
C192 C 0.52123 0.51742 0.7104 0.0
C193 C 0.49839 0.49916 0.71934 0.0
C194 C 0.47516 0.48356 0.70981 0.0
C195 C 0.47474 0.4864 0.69178 0.0
C196 C 0.52024 0.48609 0.65836 0.0
C197 C 0.54764 0.49713 0.65797 0.0
C198 C 0.55882 0.4834 0.66413 0.0
C199 C 0.54275 0.45848 0.67088 0.0
C200 C 0.5153 0.44753 0.67121 0.0
C201 C 0.50416 0.4612 0.66497 0.0
C202 C 0.52204 0.49808 0.62161 0.0
C203 C 0.54568 0.51642 0.6136 0.0
C204 C 0.55811 0.50877 0.60174 0.0
C205 C 0.54717 0.48259 0.59775 0.0
C206 C 0.52351 0.46428 0.60588 0.0
C207 C 0.51105 0.47198 0.6177 0.0
C208 C 0.49885 0.52705 0.60973 0.0
C209 C 0.51572 0.55277 0.60489 0.0
C210 C 0.52134 0.55933 0.58735 0.0
C211 C 0.51008 0.54022 0.57442 0.0
C212 C 0.49179 0.51471 0.57931 0.0
C213 C 0.48622 0.50818 0.59685 0.0
C214 C 0.46909 0.53891 0.63384 0.0
C215 C 0.47831 0.56504 0.6364 0.0
C216 C 0.46365 0.57544 0.63041 0.0
C217 C 0.43953 0.55983 0.62176 0.0
C218 C 0.43062 0.53372 0.61906 0.0
C219 C 0.44527 0.52338 0.62504 0.0
C220 C 0.49882 0.49656 0.73854 0.0
C221 C 0.56035 0.47434 0.5852 0.0
H222 H 0.05621 0.46683 0.93237 0.0
H223 H 0.18516 0.5039 0.75179 0.0
H224 H 0.00301 0.47075 0.84154 0.0
H225 H 0.97326 0.46041 0.86614 0.0
H226 H 0.95389 0.38154 0.86421 0.0
H227 H 0.98417 0.39235 0.8395 0.0
H228 H 0.05807 0.48862 0.85803 0.0
H229 H 0.06002 0.48714 0.88983 0.0
H230 H 0.0347 0.40662 0.88689 0.0
H231 H 0.03304 0.40848 0.85508 0.0
H232 H 0.10274 0.50978 0.83187 0.0
H233 H 0.14529 0.52663 0.84624 0.0
H234 H 0.13018 0.44936 0.85065 0.0
H235 H 0.08726 0.43271 0.83667 0.0
H236 H 0.09055 0.511 0.79339 0.0
H237 H 0.12981 0.53097 0.77487 0.0
H238 H 0.13259 0.4616 0.77774 0.0
H239 H 0.09312 0.44179 0.79609 0.0
H240 H 0.03502 0.49162 0.78515 0.0
H241 H 0.04527 0.50789 0.75547 0.0
H242 H 0.05271 0.44343 0.74065 0.0
H243 H 0.04395 0.42828 0.77079 0.0
H244 H 0.98133 0.45774 0.80939 0.0
H245 H 0.93707 0.43542 0.7966 0.0
H246 H 0.95008 0.37672 0.77644 0.0
H247 H 0.99411 0.39905 0.78931 0.0
O248 O 0.05556 0.46706 0.91977 0.0
O249 O 0.04234 0.42567 0.91756 0.0
O250 O 0.16719 0.5316 0.75797 0.0
O251 O 0.16967 0.4965 0.75916 0.0
C252 C 0.01865 0.44062 0.82726 0.0
C253 C 0.04339 0.44948 0.83511 0.0
C254 C 0.06627 0.46011 0.82479 0.0
C255 C 0.06464 0.46258 0.80668 0.0
C256 C 0.0399 0.45362 0.79878 0.0
C257 C 0.01679 0.44201 0.80901 0.0
C258 C 0.99551 0.43225 0.83867 0.0
C259 C 0.99157 0.45103 0.846 0.0
C260 C 0.97457 0.44505 0.8601 0.0
C261 C 0.96129 0.42015 0.86722 0.0
C262 C 0.96404 0.40094 0.85912 0.0
C263 C 0.98103 0.40696 0.8449 0.0
C264 C 0.04543 0.44866 0.85433 0.0
C265 C 0.05312 0.47074 0.8643 0.0
C266 C 0.05414 0.46981 0.88245 0.0
C267 C 0.04746 0.44674 0.89091 0.0
C268 C 0.03994 0.42469 0.88079 0.0
C269 C 0.039 0.42568 0.86265 0.0
C270 C 0.09217 0.47012 0.83318 0.0
C271 C 0.10873 0.49657 0.83593 0.0
C272 C 0.13301 0.50611 0.84407 0.0
C273 C 0.14118 0.48933 0.84952 0.0
C274 C 0.12435 0.46275 0.8468 0.0
C275 C 0.09997 0.45322 0.83871 0.0
C276 C 0.08898 0.47493 0.79596 0.0
C277 C 0.09966 0.50016 0.78996 0.0
C278 C 0.12209 0.51151 0.77942 0.0
C279 C 0.13431 0.49785 0.77478 0.0
C280 C 0.12366 0.47264 0.78102 0.0
C281 C 0.10117 0.46129 0.79153 0.0
C282 C 0.03889 0.4589 0.78008 0.0
C283 C 0.03813 0.48065 0.77535 0.0
C284 C 0.04397 0.48988 0.7583 0.0
C285 C 0.05029 0.47725 0.7456 0.0
C286 C 0.04867 0.45408 0.75014 0.0
C287 C 0.04329 0.44514 0.76729 0.0
C288 C 0.99071 0.42978 0.80046 0.0
C289 C 0.97456 0.44006 0.80222 0.0
C290 C 0.94937 0.42734 0.79489 0.0
C291 C 0.94009 0.40428 0.78557 0.0
C292 C 0.95676 0.39457 0.78337 0.0
C293 C 0.98183 0.4072 0.79079 0.0
C294 C 0.04828 0.44575 0.9102 0.0
C295 C 0.15804 0.50975 0.76347 0.0
H296 H 0.47704 0.98367 0.87367 0.0
H297 H 0.49377 0.87745 0.0481 0.0
H298 H 0.49412 0.04192 0.95873 0.0
H299 H 0.50205 0.07077 0.93427 0.0
H300 H 0.58588 0.1052 0.94076 0.0
H301 H 0.57785 0.07567 0.96498 0.0
H302 H 0.47338 0.9843 0.94982 0.0
H303 H 0.46689 0.97952 0.91825 0.0
H304 H 0.55129 0.02407 0.91074 0.0
H305 H 0.55749 0.02835 0.94233 0.0
H306 H 0.46483 0.94516 0.9791 0.0
H307 H 0.45167 0.90356 0.96571 0.0
H308 H 0.53083 0.93544 0.94598 0.0
H309 H 0.54359 0.97678 0.9592 0.0
H310 H 0.47554 0.9702 0.01916 0.0
H311 H 0.46215 0.93317 0.03814 0.0
H312 H 0.52606 0.92628 0.0179 0.0
H313 H 0.53943 0.96351 -0.00084 0.0
H314 H 0.50469 0.03457 0.02577 0.0
H315 H 0.50682 0.03659 0.05753 0.0
H316 H 0.55931 0.00745 0.05668 0.0
H317 H 0.55848 0.0073 0.02492 0.0
H318 H 0.52079 0.07421 0.9965 0.0
H319 H 0.54737 0.11775 0.00867 0.0
H320 H 0.61107 0.10465 0.01793 0.0
H321 H 0.58443 0.06141 0.00597 0.0
O322 O 0.48006 0.98558 0.88612 0.0
O323 O 0.52358 0.0089 0.88297 0.0
O324 O 0.46615 0.89658 0.05076 0.0
O325 O 0.49863 0.89215 0.04072 0.0
C326 C 0.5301 0.03489 0.97498 0.0
C327 C 0.51973 0.01024 0.96752 0.0
C328 C 0.51349 0.98903 0.9782 0.0
C329 C 0.51659 0.99216 0.99644 0.0
C330 C 0.52771 0.01697 0.00385 0.0
C331 C 0.53523 0.03845 0.99302 0.0
C332 C 0.5354 0.05663 0.96354 0.0
C333 C 0.51421 0.05617 0.9552 0.0
C334 C 0.51873 0.07251 0.94123 0.0
C335 C 0.54453 0.08993 0.93565 0.0
C336 C 0.56583 0.09195 0.94495 0.0
C337 C 0.56129 0.07523 0.95878 0.0
C338 C 0.51588 0.00673 0.94834 0.0
C339 C 0.49042 0.99285 0.94133 0.0
C340 C 0.48678 0.99023 0.9233 0.0
C341 C 0.50857 0.00149 0.91197 0.0
C342 C 0.53408 0.01521 0.91909 0.0
C343 C 0.53769 0.01772 0.93712 0.0
C344 C 0.50513 0.96387 0.97009 0.0
C345 C 0.47922 0.94306 0.97184 0.0
C346 C 0.47179 0.91938 0.96423 0.0
C347 C 0.4902 0.91628 0.95472 0.0
C348 C 0.51608 0.93733 0.95293 0.0
C349 C 0.52346 0.96089 0.96056 0.0
C350 C 0.50837 0.96946 0.00775 0.0
C351 C 0.48661 0.96066 0.01886 0.0
C352 C 0.47901 0.9395 0.02967 0.0
C353 C 0.49302 0.92673 0.02952 0.0
C354 C 0.51481 0.93563 0.01833 0.0
C355 C 0.52244 0.95683 0.00756 0.0
C356 C 0.53108 0.02038 0.02304 0.0
C357 C 0.51708 0.02916 0.03246 0.0
C358 C 0.51814 0.03006 0.05063 0.0
C359 C 0.53291 0.0218 0.05974 0.0
C360 C 0.54791 0.01418 0.05017 0.0
C361 C 0.54718 0.01372 0.03199 0.0
C362 C 0.55072 0.06472 0.00039 0.0
C363 C 0.54048 0.08084 0.00118 0.0
C364 C 0.55567 0.10564 0.00811 0.0
C365 C 0.58124 0.11455 0.01437 0.0
C366 C 0.59128 0.09821 0.01355 0.0
C367 C 0.57617 0.07357 0.00662 0.0
C368 C 0.50464 -0.00107 0.89282 0.0
C369 C 0.48505 0.90427 0.04099 0.0
H370 H 0.65388 0.62652 0.03468 0.0
H371 H 0.72303 0.5795 0.21478 0.0
H372 H 0.60535 0.64436 0.12627 0.0
H373 H 0.58484 0.65578 0.10359 0.0
H374 H 0.65653 0.72991 0.09809 0.0
H375 H 0.67696 0.71822 0.12128 0.0
H376 H 0.63416 0.61666 0.10976 0.0
H377 H 0.63621 0.61338 0.07809 0.0
H378 H 0.70389 0.69087 0.07653 0.0
H379 H 0.70172 0.69376 0.10826 0.0
H380 H 0.64694 0.59203 0.13932 0.0
H381 H 0.66248 0.56523 0.12709 0.0
H382 H 0.73738 0.63353 0.11503 0.0
H383 H 0.72135 0.66018 0.12703 0.0
H384 H 0.63483 0.60011 0.17688 0.0
H385 H 0.64469 0.57412 0.19595 0.0
H386 H 0.72796 0.62663 0.18718 0.0
H387 H 0.71781 0.65263 0.16831 0.0
H388 H 0.60957 0.63537 0.17993 0.0
H389 H 0.59611 0.62443 0.21019 0.0
H390 H 0.67791 0.66126 0.22542 0.0
H391 H 0.69118 0.67381 0.19517 0.0
H392 H 0.60166 0.66151 0.15637 0.0
H393 H 0.58566 0.68794 0.16853 0.0
H394 H 0.66514 0.74538 0.18359 0.0
H395 H 0.68089 0.71858 0.17149 0.0
O396 O 0.65354 0.62817 0.04722 0.0
O397 O 0.68819 0.66812 0.0471 0.0
O398 O 0.67555 0.56325 0.21158 0.0
O399 O 0.71857 0.5895 0.20735 0.0
C400 C 0.65521 0.67133 0.13736 0.0
C401 C 0.66612 0.65746 0.13041 0.0
C402 C 0.6735 0.64401 0.14162 0.0
C403 C 0.66957 0.64408 0.15976 0.0
C404 C 0.65885 0.65821 0.1667 0.0
C405 C 0.65232 0.67237 0.1555 0.0
C406 C 0.64248 0.68055 0.12544 0.0
C407 C 0.61636 0.66337 0.12055 0.0
C408 C 0.60466 0.67 0.10765 0.0
C409 C 0.61902 0.69386 0.09918 0.0
C410 C 0.64502 0.71146 0.10449 0.0
C411 C 0.65666 0.70488 0.11767 0.0
C412 C 0.66785 0.6554 0.11125 0.0
C413 C 0.6495 0.63282 0.10255 0.0
C414 C 0.65068 0.63104 0.08446 0.0
C415 C 0.67021 0.65187 0.07477 0.0
C416 C 0.6886 0.67447 0.0836 0.0
C417 C 0.68743 0.67619 0.1017 0.0
C418 C 0.68314 0.62797 0.13417 0.0
C419 C 0.66672 0.60114 0.13407 0.0
C420 C 0.67567 0.5859 0.12713 0.0
C421 C 0.70122 0.59724 0.12016 0.0
C422 C 0.7175 0.62422 0.12012 0.0
C423 C 0.70849 0.63945 0.12705 0.0
C424 C 0.67562 0.62834 0.17134 0.0
C425 C 0.65518 0.60604 0.17919 0.0
C426 C 0.66088 0.5912 0.19003 0.0
C427 C 0.68714 0.59832 0.19311 0.0
C428 C 0.70754 0.62062 0.18511 0.0
C429 C 0.70182 0.63549 0.17432 0.0
C430 C 0.65136 0.65545 0.18536 0.0
C431 C 0.6246 0.64199 0.18989 0.0
C432 C 0.61694 0.6354 0.20718 0.0
C433 C 0.63589 0.64158 0.22022 0.0
C434 C 0.66277 0.6564 0.21576 0.0
C435 C 0.67043 0.66342 0.19846 0.0
C436 C 0.64248 0.68833 0.16283 0.0
C437 C 0.61563 0.67992 0.16212 0.0
C438 C 0.60655 0.69504 0.16909 0.0
C439 C 0.62416 0.71885 0.17694 0.0
C440 C 0.65104 0.72706 0.17778 0.0
C441 C 0.6601 0.71189 0.17078 0.0
C442 C 0.67128 0.64998 0.05554 0.0
C443 C 0.69329 0.58257 0.20458 0.0
In444 In 0.64306 0.4912 0.39989 0.0
O445 O 0.6857 0.50707 0.40861 0.0
O446 O 0.67566 0.4956 0.38219 0.0
C447 C 0.62262 0.50707 0.4246 0.0
C448 C 0.63347 0.51395 0.37356 0.0
C449 C 0.62003 0.44044 0.40611 0.0
O450 O 0.64708 0.5158 0.42367 0.0
O451 O 0.60885 0.49014 0.41344 0.0
O452 O 0.6165 0.44902 0.3921 0.0
O453 O 0.63529 0.45743 0.41681 0.0
C454 C 0.6933 0.5047 0.39373 0.0
O455 O 0.62174 0.48978 0.37499 0.0
O456 O 0.65035 0.5265 0.38522 0.0
In457 In 0.22714 0.65701 0.57065 0.0
O458 O 0.2514 0.64002 0.56152 0.0
O459 O 0.26214 0.66093 0.5854 0.0
C460 C 0.19093 0.64076 0.54497 0.0
C461 C 0.19644 0.62957 0.59774 0.0
C462 C 0.25606 0.70825 0.56549 0.0
O463 O 0.20813 0.63461 0.5456 0.0
O464 O 0.19206 0.65508 0.55723 0.0
O465 O 0.24221 0.69853 0.57901 0.0
O466 O 0.25518 0.69216 0.55474 0.0
C467 C 0.2667 0.64816 0.57451 0.0
O468 O 0.20381 0.65291 0.59555 0.0
O469 O 0.20448 0.62035 0.58636 0.0
In470 In 0.61371 0.23679 0.73793 0.0
O471 O 0.65435 0.2453 0.7286 0.0
O472 O 0.6514 0.25959 0.75321 0.0
C473 C 0.58165 0.20145 0.71434 0.0
C474 C 0.59601 0.21214 0.76857 0.0
C475 C 0.61035 0.27752 0.7285 0.0
O476 O 0.60468 0.20615 0.71716 0.0
O477 O 0.575 0.21436 0.72347 0.0
O478 O 0.59767 0.26319 0.74116 0.0
O479 O 0.6248 0.27132 0.72054 0.0
C480 C 0.66606 0.25792 0.74214 0.0
O481 O 0.60007 0.23432 0.76591 0.0
O482 O 0.60037 0.20207 0.75564 0.0
In483 In 0.46061 0.63083 0.909 0.0
O484 O 0.41924 0.59616 0.91424 0.0
O485 O 0.42404 0.62357 0.89517 0.0
C486 C 0.4872 0.63089 0.93728 0.0
C487 C 0.47645 0.61628 0.88083 0.0
C488 C 0.46576 0.67699 0.91339 0.0
O489 O 0.46241 0.61774 0.93638 0.0
O490 O 0.4986 0.64277 0.92352 0.0
O491 O 0.47659 0.67243 0.9009 0.0
O492 O 0.45279 0.65843 0.92366 0.0
C493 C 0.40848 0.60312 0.90318 0.0
O494 O 0.48375 0.63939 0.88392 0.0
O495 O 0.46228 0.60056 0.89252 0.0
In496 In 0.83127 0.41525 0.06572 0.0
O497 O 0.8414 0.40791 0.09293 0.0
O498 O 0.86743 0.4441 0.08133 0.0
C499 C 0.78899 0.36811 0.05965 0.0
C500 C 0.8091 0.44348 0.07127 0.0
C501 C 0.85988 0.41984 0.03709 0.0
O502 O 0.8069 0.37179 0.0702 0.0
O503 O 0.79258 0.38809 0.05221 0.0
O504 O 0.84861 0.43231 0.03926 0.0
O505 O 0.85751 0.40549 0.04967 0.0
C506 C 0.86177 0.42994 0.09456 0.0
O507 O 0.82669 0.44939 0.05989 0.0
O508 O 0.80277 0.42341 0.07979 0.0
In509 In 0.47489 0.87449 0.25207 0.0
O510 O 0.50986 0.86873 0.25514 0.0
O511 O 0.48296 0.84966 0.23437 0.0
C512 C 0.47853 0.89983 0.28183 0.0
C513 C 0.48837 0.91083 0.22757 0.0
C514 C 0.42574 0.83282 0.25456 0.0
O515 O 0.48759 0.88522 0.28063 0.0
O516 O 0.46842 0.90197 0.26805 0.0
O517 O 0.43322 0.8481 0.24185 0.0
O518 O 0.44309 0.83845 0.26602 0.0
C519 C 0.50352 0.85395 0.24211 0.0
O520 O 0.4648 0.89438 0.23139 0.0
O521 O 0.50544 0.90917 0.23626 0.0
C522 C 0.20362 0.66271 0.29345 0.0
C523 C 0.18338 0.65914 0.28219 0.0
C524 C 0.22999 0.67915 0.28885 0.0
C525 C 0.27148 0.73521 0.26122 0.0
H526 H 0.3261 0.72105 0.27271 0.0
C527 C 0.37999 0.80545 0.24305 0.0
C528 C 0.39859 0.8106 0.25613 0.0
C529 C 0.35395 0.7852 0.2449 0.0
C530 C 0.31107 0.72533 0.26952 0.0
H531 H 0.17489 0.66899 0.25694 0.0
H532 H 0.22096 0.69763 0.24886 0.0
H533 H 0.28 0.6884 0.27816 0.0
H534 H 0.40472 0.7983 0.28122 0.0
H535 H 0.35916 0.76307 0.28454 0.0
H536 H 0.30246 0.77223 0.25284 0.0
C537 C 0.21643 0.6881 0.26139 0.0
C538 C 0.28468 0.70664 0.27263 0.0
C539 C 0.19007 0.6717 0.266 0.0
C540 C 0.3908 0.79477 0.27092 0.0
C541 C 0.36475 0.7745 0.27277 0.0
C542 C 0.29782 0.75386 0.25811 0.0
C543 C 0.23669 0.69235 0.27288 0.0
C544 C 0.26461 0.71146 0.26865 0.0
C545 C 0.34596 0.76967 0.25987 0.0
C546 C 0.31793 0.74923 0.26236 0.0
H547 H 0.19908 0.65356 0.30611 0.0
H548 H 0.24511 0.68225 0.29809 0.0
H549 H 0.25655 0.73972 0.25828 0.0
H550 H 0.38546 0.81726 0.23146 0.0
H551 H 0.34003 0.78175 0.23462 0.0
C552 C 0.49143 0.20839 0.43729 0.0
C553 C 0.49743 0.20315 0.4539 0.0
C554 C 0.50453 0.23355 0.43089 0.0
C555 C 0.56577 0.29632 0.43688 0.0
H556 H 0.52814 0.32392 0.4135 0.0
C557 C 0.61164 0.40454 0.42588 0.0
C558 C 0.6068 0.41273 0.41001 0.0
C559 C 0.5986 0.37844 0.42996 0.0
C560 C 0.53899 0.31637 0.41977 0.0
H561 H 0.52106 0.22031 0.47707 0.0
H562 H 0.54387 0.26407 0.46593 0.0
H563 H 0.50425 0.27917 0.42312 0.0
H564 H 0.58472 0.40008 0.38588 0.0
H565 H 0.56197 0.3543 0.39298 0.0
H566 H 0.60044 0.33346 0.4337 0.0
C567 C 0.52947 0.24871 0.4577 0.0
C568 C 0.5253 0.29076 0.4253 0.0
C569 C 0.51638 0.22364 0.46409 0.0
C570 C 0.58881 0.39429 0.39822 0.0
C571 C 0.5757 0.36812 0.40232 0.0
C572 C 0.57943 0.32185 0.43135 0.0
C573 C 0.5239 0.25393 0.44097 0.0
C574 C 0.5385 0.2806 0.43415 0.0
C575 C 0.58041 0.35994 0.41827 0.0
C576 C 0.56614 0.33228 0.42297 0.0
H577 H 0.47709 0.19297 0.42907 0.0
H578 H 0.49994 0.23697 0.41791 0.0
H579 H 0.5766 0.28888 0.44333 0.0
H580 H 0.62533 0.41831 0.43526 0.0
H581 H 0.60239 0.37281 0.44246 0.0
C582 C 0.39598 0.55634 0.61788 0.0
C583 C 0.42347 0.57052 0.61575 0.0
C584 C 0.38069 0.56606 0.61204 0.0
C585 C 0.38398 0.62627 0.60057 0.0
H586 H 0.3166 0.57988 0.5788 0.0
C587 C 0.30305 0.65066 0.59236 0.0
C588 C 0.2875 0.64217 0.57724 0.0
C589 C 0.32155 0.64363 0.59556 0.0
C590 C 0.3355 0.59319 0.58465 0.0
H591 H 0.45646 0.60607 0.60576 0.0
H592 H 0.42968 0.62313 0.59557 0.0
H593 H 0.3452 0.56414 0.58702 0.0
H594 H 0.2797 0.62037 0.55333 0.0
H595 H 0.3122 0.60826 0.55885 0.0
H596 H 0.37427 0.65535 0.59811 0.0
C597 C 0.42002 0.60455 0.60192 0.0
C598 C 0.35174 0.58408 0.58957 0.0
C599 C 0.43535 0.5948 0.60776 0.0
C600 C 0.29131 0.62709 0.56515 0.0
C601 C 0.30983 0.62005 0.56835 0.0
C602 C 0.36769 0.63539 0.59566 0.0
C603 C 0.39249 0.59023 0.60393 0.0
C604 C 0.37601 0.60041 0.59779 0.0
C605 C 0.32491 0.62795 0.58371 0.0
C606 C 0.34312 0.61887 0.58782 0.0
H607 H 0.38626 0.5378 0.62427 0.0
H608 H 0.3596 0.55477 0.61413 0.0
H609 H 0.40249 0.63932 0.60696 0.0
H610 H 0.30054 0.66229 0.60193 0.0
H611 H 0.3326 0.64979 0.60761 0.0
C612 C 0.89184 0.38574 0.7899 0.0
C613 C 0.91261 0.38947 0.7791 0.0
C614 C 0.86577 0.37009 0.78451 0.0
C615 C 0.82306 0.34164 0.74635 0.0
H616 H 0.77398 0.29386 0.78056 0.0
C617 C 0.71159 0.27082 0.73203 0.0
C618 C 0.69468 0.27028 0.74504 0.0
C619 C 0.73879 0.28343 0.73502 0.0
C620 C 0.78742 0.30716 0.77087 0.0
H621 H 0.92242 0.3805 0.75392 0.0
H622 H 0.87663 0.35303 0.74447 0.0
H623 H 0.8205 0.32055 0.78785 0.0
H624 H 0.69287 0.28229 0.77138 0.0
H625 H 0.73989 0.30417 0.77651 0.0
H626 H 0.7897 0.32855 0.72952 0.0
C627 C 0.88062 0.36222 0.75712 0.0
C628 C 0.81403 0.32246 0.77506 0.0
C629 C 0.90677 0.37778 0.76257 0.0
C630 C 0.70535 0.28229 0.76109 0.0
C631 C 0.73233 0.2947 0.76409 0.0
C632 C 0.7963 0.32632 0.74216 0.0
C633 C 0.85986 0.35788 0.76817 0.0
C634 C 0.83204 0.34028 0.76301 0.0
C635 C 0.74939 0.29545 0.75112 0.0
C636 C 0.77813 0.30937 0.75455 0.0
H637 H 0.89568 0.39429 0.80276 0.0
H638 H 0.85017 0.3674 0.7932 0.0
H639 H 0.83653 0.35524 0.73682 0.0
H640 H 0.70386 0.26174 0.71953 0.0
H641 H 0.75148 0.28363 0.72482 0.0
C642 C 0.49239 0.88935 0.93085 0.0
C643 C 0.48298 0.89098 0.94732 0.0
C644 C 0.48795 0.86587 0.92467 0.0
C645 C 0.44788 0.79564 0.93145 0.0
H646 H 0.50995 0.79685 0.91447 0.0
C647 C 0.45476 0.70539 0.92983 0.0
C648 C 0.46714 0.70166 0.91554 0.0
C649 C 0.45525 0.72836 0.93175 0.0
C650 C 0.49232 0.79621 0.91889 0.0
H651 H 0.46082 0.86914 0.96996 0.0
H652 H 0.45295 0.82814 0.95913 0.0
H653 H 0.51231 0.83715 0.92088 0.0
H654 H 0.48974 0.71894 0.89202 0.0
H655 H 0.49051 0.75921 0.89534 0.0
H656 H 0.42802 0.75467 0.92976 0.0
C657 C 0.46356 0.84497 0.95093 0.0
C658 C 0.49367 0.81928 0.92255 0.0
C659 C 0.46806 0.86846 0.95714 0.0
C660 C 0.48014 0.72137 0.90321 0.0
C661 C 0.48061 0.74441 0.90513 0.0
C662 C 0.44652 0.77257 0.92775 0.0
C663 C 0.47392 0.84355 0.9348 0.0
C664 C 0.4716 0.81921 0.92918 0.0
C665 C 0.46809 0.74809 0.9194 0.0
C666 C 0.46887 0.77259 0.92176 0.0
H667 H 0.50355 0.90632 0.92285 0.0
H668 H 0.49581 0.86525 0.91206 0.0
H669 H 0.43047 0.79504 0.93629 0.0
H670 H 0.44465 0.69055 0.93957 0.0
H671 H 0.44586 0.73079 0.94307 0.0
C672 C 0.72638 0.58792 0.09806 0.0
C673 C 0.71098 0.58095 0.11328 0.0
C674 C 0.73591 0.57274 0.09183 0.0
C675 C 0.725 0.50749 0.0944 0.0
H676 H 0.79854 0.54083 0.08112 0.0
C677 C 0.77842 0.452 0.08793 0.0
C678 C 0.79687 0.45883 0.07446 0.0
C679 C 0.76703 0.46663 0.09119 0.0
C680 C 0.77786 0.53123 0.08451 0.0
H681 H 0.69375 0.55267 0.13397 0.0
H682 H 0.71021 0.52615 0.12304 0.0
H683 H 0.78007 0.56689 0.08932 0.0
H684 H 0.81769 0.48607 0.05367 0.0
H685 H 0.79755 0.51153 0.05923 0.0
H686 H 0.72278 0.47183 0.08973 0.0
C687 C 0.7146 0.54315 0.11579 0.0
C688 C 0.7673 0.54616 0.08922 0.0
C689 C 0.70516 0.55836 0.12204 0.0
C690 C 0.80359 0.48044 0.0642 0.0
C691 C 0.79215 0.49507 0.06743 0.0
C692 C 0.73552 0.49256 0.08963 0.0
C693 C 0.73015 0.55022 0.10066 0.0
C694 C 0.74086 0.53444 0.09446 0.0
C695 C 0.7738 0.48836 0.08101 0.0
C696 C 0.76217 0.50425 0.08488 0.0
H697 H 0.73087 0.605 0.09087 0.0
H698 H 0.74762 0.5785 0.08003 0.0
H699 H 0.70443 0.49793 0.0981 0.0
H700 H 0.77292 0.43548 0.0961 0.0
H701 H 0.7533 0.46118 0.10193 0.0
C702 C 0.38813 0.92902 0.5138 0.0
C703 C 0.38366 0.94724 0.52162 0.0
C704 C 0.3757 0.9039 0.52019 0.0
C705 C 0.3181 0.85731 0.54632 0.0
H706 H 0.35364 0.81913 0.546 0.0
C707 C 0.27004 0.75362 0.57322 0.0
C708 C 0.27202 0.73621 0.56228 0.0
C709 C 0.28472 0.78001 0.56971 0.0
C710 C 0.34344 0.82954 0.54611 0.0
H711 H 0.36342 0.95375 0.54262 0.0
H712 H 0.34198 0.91003 0.55394 0.0
H713 H 0.37763 0.86423 0.53736 0.0
H714 H 0.29118 0.73274 0.53928 0.0
H715 H 0.31681 0.77868 0.53324 0.0
H716 H 0.2839 0.82252 0.55505 0.0
C717 C 0.35461 0.91493 0.54262 0.0
C718 C 0.35715 0.85535 0.54111 0.0
C719 C 0.36692 0.93999 0.53617 0.0
C720 C 0.28922 0.74569 0.54795 0.0
C721 C 0.30404 0.77202 0.54455 0.0
C722 C 0.30445 0.83153 0.55143 0.0
C723 C 0.35864 0.89649 0.53461 0.0
C724 C 0.34455 0.86947 0.54093 0.0
C725 C 0.30185 0.78946 0.55532 0.0
C726 C 0.31688 0.81729 0.55115 0.0
H727 H 0.40069 0.93398 0.50245 0.0
H728 H 0.37893 0.89013 0.51351 0.0
H729 H 0.30765 0.86745 0.54611 0.0
H730 H 0.25695 0.74685 0.58436 0.0
H731 H 0.28278 0.79304 0.5783 0.0
C732 C 0.54513 0.42974 0.69307 0.0
C733 C 0.55444 0.44381 0.67753 0.0
C734 C 0.55518 0.41491 0.69897 0.0
C735 C 0.58695 0.38097 0.68307 0.0
H736 H 0.59826 0.37575 0.73224 0.0
C737 C 0.62161 0.31436 0.70862 0.0
C738 C 0.60792 0.29944 0.7232 0.0
C739 C 0.61847 0.33452 0.7033 0.0
C740 C 0.59507 0.37692 0.71847 0.0
H741 H 0.58187 0.45373 0.65611 0.0
H742 H 0.59963 0.42793 0.6665 0.0
H743 H 0.58689 0.40681 0.7225 0.0
H744 H 0.58058 0.2941 0.74383 0.0
H745 H 0.57491 0.32904 0.73449 0.0
H746 H 0.59455 0.35069 0.67907 0.0
C747 C 0.58441 0.42825 0.67405 0.0
C748 C 0.58857 0.3947 0.7129 0.0
C749 C 0.57442 0.44319 0.66819 0.0
C750 C 0.59141 0.3053 0.73254 0.0
C751 C 0.58831 0.32544 0.72726 0.0
C752 C 0.59343 0.36316 0.68865 0.0
C753 C 0.57473 0.41378 0.68943 0.0
C754 C 0.584 0.39662 0.69517 0.0
C755 C 0.60165 0.34017 0.71251 0.0
C756 C 0.59711 0.36063 0.70644 0.0
H757 H 0.52996 0.43009 0.70066 0.0
H758 H 0.5471 0.40378 0.71077 0.0
H759 H 0.58325 0.38176 0.66935 0.0
H760 H 0.63454 0.31032 0.70121 0.0
H761 H 0.62922 0.34569 0.69199 0.0
C762 C 0.18929 0.52237 0.85132 0.0
C763 C 0.16739 0.49967 0.85769 0.0
C764 C 0.21395 0.53236 0.85897 0.0
C765 C 0.25421 0.51492 0.88403 0.0
H766 H 0.29741 0.58857 0.89133 0.0
C767 C 0.36234 0.56711 0.90954 0.0
C768 C 0.37987 0.58924 0.90004 0.0
C769 C 0.33515 0.55492 0.90675 0.0
C770 C 0.28559 0.56797 0.88935 0.0
H771 H 0.15424 0.46964 0.87716 0.0
H772 H 0.19771 0.487 0.89037 0.0
H773 H 0.25179 0.56954 0.88213 0.0
H774 H 0.38287 0.61568 0.87999 0.0
H775 H 0.33582 0.59443 0.87507 0.0
H776 H 0.28842 0.51356 0.89074 0.0
C777 C 0.19561 0.49696 0.87942 0.0
C778 C 0.25951 0.5571 0.88409 0.0
C779 C 0.1708 0.48702 0.87182 0.0
C780 C 0.36985 0.59875 0.8876 0.0
C781 C 0.34287 0.58669 0.88487 0.0
C782 C 0.28043 0.52585 0.88926 0.0
C783 C 0.21736 0.51982 0.87312 0.0
C784 C 0.24379 0.53059 0.8809 0.0
C785 C 0.32519 0.56483 0.89452 0.0
C786 C 0.29656 0.55258 0.89145 0.0
H787 H 0.18748 0.53228 0.84022 0.0
H788 H 0.2305 0.54973 0.85361 0.0
H789 H 0.2425 0.49442 0.88161 0.0
H790 H 0.36958 0.5594 0.91922 0.0
H791 H 0.32192 0.53807 0.91436 0.0
C792 C 0.59934 0.16197 0.01254 0.0
C793 C 0.59798 0.14105 0.02122 0.0
C794 C 0.61729 0.18712 0.0179 0.0
C795 C 0.66206 0.22601 0.05405 0.0
H796 H 0.70209 0.27371 0.01693 0.0
C797 C 0.76145 0.32077 0.06526 0.0
C798 C 0.76557 0.34254 0.0562 0.0
C799 C 0.73927 0.29661 0.06179 0.0
C800 C 0.69087 0.26073 0.02745 0.0
H801 H 0.61318 0.13003 0.04297 0.0
H802 H 0.64489 0.17384 0.05205 0.0
H803 H 0.66554 0.23093 0.00974 0.0
H804 H 0.74963 0.35622 0.03656 0.0
H805 H 0.71099 0.3141 0.03051 0.0
H806 H 0.68794 0.25578 0.07173 0.0
C807 C 0.63203 0.17089 0.04118 0.0
C808 C 0.66985 0.23623 0.02333 0.0
C809 C 0.61407 0.14578 0.03585 0.0
C810 C 0.74704 0.33976 0.04371 0.0
C811 C 0.72496 0.31564 0.04019 0.0
C812 C 0.68318 0.25052 0.05816 0.0
C813 C 0.63424 0.19188 0.03205 0.0
C814 C 0.65532 0.21851 0.03657 0.0
C815 C 0.72089 0.29379 0.04913 0.0
C816 C 0.69792 0.26806 0.04489 0.0
H817 H 0.58728 0.15896 0.00118 0.0
H818 H 0.61823 0.20287 0.01076 0.0
H819 H 0.65104 0.21292 0.06456 0.0
H820 H 0.77542 0.32237 0.07497 0.0
H821 H 0.73679 0.28006 0.06876 0.0
C822 C 0.59554 0.73766 0.17498 0.0
C823 C 0.61449 0.73509 0.18409 0.0
C824 C 0.58621 0.75272 0.18169 0.0
C825 C 0.57923 0.78034 0.22263 0.0
H826 H 0.56495 0.82127 0.19117 0.0
C827 C 0.54009 0.84524 0.24583 0.0
C828 C 0.51884 0.8426 0.23609 0.0
C829 C 0.55418 0.83409 0.23995 0.0
C830 C 0.56876 0.80987 0.20011 0.0
H831 H 0.63843 0.74627 0.20746 0.0
H832 H 0.62245 0.773 0.21905 0.0
H833 H 0.58528 0.79826 0.18 0.0
H834 H 0.49577 0.8264 0.21258 0.0
H835 H 0.52028 0.8071 0.20236 0.0
H836 H 0.56243 0.79188 0.24272 0.0
C837 C 0.61465 0.76315 0.20678 0.0
C838 C 0.58034 0.79663 0.19371 0.0
C839 C 0.624 0.74806 0.20005 0.0
C840 C 0.51207 0.8288 0.22036 0.0
C841 C 0.52622 0.81788 0.21444 0.0
C842 C 0.56771 0.79369 0.22906 0.0
C843 C 0.59564 0.76565 0.19767 0.0
C844 C 0.58526 0.78131 0.20482 0.0
C845 C 0.54741 0.82037 0.22415 0.0
C846 C 0.5619 0.80819 0.21779 0.0
H847 H 0.58802 0.72816 0.16256 0.0
H848 H 0.5713 0.75393 0.17445 0.0
H849 H 0.58254 0.76853 0.23151 0.0
H850 H 0.54573 0.85578 0.258 0.0
H851 H 0.57051 0.83639 0.24765 0.0
C852 C 0.91445 0.54367 0.36344 0.0
C853 C 0.92197 0.55195 0.3462 0.0
C854 C 0.89052 0.53942 0.36997 0.0
C855 C 0.83923 0.55527 0.36065 0.0
H856 H 0.79655 0.49908 0.39234 0.0
C857 C 0.72928 0.51538 0.37254 0.0
C858 C 0.72061 0.51191 0.38989 0.0
C859 C 0.75487 0.52175 0.36862 0.0
C860 C 0.80846 0.51503 0.38366 0.0
H861 H 0.91006 0.56123 0.32205 0.0
H862 H 0.86804 0.55303 0.33316 0.0
H863 H 0.83904 0.50648 0.38246 0.0
H864 H 0.7318 0.51225 0.41679 0.0
H865 H 0.77669 0.52283 0.40983 0.0
H866 H 0.80809 0.56309 0.36134 0.0
C867 C 0.88088 0.55068 0.34191 0.0
C868 C 0.83281 0.51932 0.37801 0.0
C869 C 0.90487 0.55521 0.33548 0.0
C870 C 0.73805 0.5149 0.4033 0.0
C871 C 0.7636 0.52082 0.39933 0.0
C872 C 0.81479 0.55075 0.36611 0.0
C873 C 0.87354 0.54311 0.35932 0.0
C874 C 0.84833 0.53928 0.36622 0.0
C875 C 0.77222 0.52437 0.38195 0.0
C876 C 0.79905 0.5304 0.37747 0.0
H877 H 0.92742 0.54123 0.372 0.0
H878 H 0.88567 0.53385 0.38348 0.0
H879 H 0.85091 0.57126 0.35197 0.0
H880 H 0.71627 0.51324 0.36195 0.0
H881 H 0.76098 0.52417 0.3551 0.0
C882 C 0.06751 0.57604 0.41108 0.0
C883 C 0.05397 0.58813 0.40589 0.0
C884 C 0.07722 0.57902 0.42799 0.0
C885 C 0.0997 0.6244 0.46449 0.0
H886 H 0.10366 0.57038 0.48813 0.0
C887 C 0.15396 0.64144 0.53008 0.0
C888 C 0.17127 0.6323 0.53086 0.0
C889 C 0.13595 0.63417 0.51641 0.0
C890 C 0.10275 0.58566 0.48166 0.0
H891 H 0.03913 0.61206 0.41461 0.0
H892 H 0.05611 0.61725 0.4443 0.0
H893 H 0.07748 0.56043 0.46163 0.0
H894 H 0.18296 0.608 0.51817 0.0
H895 H 0.15157 0.59535 0.49426 0.0
H896 H 0.12538 0.64972 0.48436 0.0
C897 C 0.05943 0.60568 0.43516 0.0
C898 C 0.08776 0.57998 0.4665 0.0
C899 C 0.04969 0.60269 0.41818 0.0
C900 C 0.16988 0.61536 0.5179 0.0
C901 C 0.15177 0.60798 0.50429 0.0
C902 C 0.1146 0.63006 0.47971 0.0
C903 C 0.07369 0.5942 0.44016 0.0
C904 C 0.08657 0.59941 0.4575 0.0
C905 C 0.13478 0.61748 0.50331 0.0
C906 C 0.11677 0.61087 0.48823 0.0
H907 H 0.0717 0.56517 0.40185 0.0
H908 H 0.08855 0.57032 0.43126 0.0
H909 H 0.0995 0.6399 0.45779 0.0
H910 H 0.15452 0.65447 0.53993 0.0
H911 H 0.12295 0.64162 0.51609 0.0
C912 C 0.44559 0.09286 0.5875 0.0
C913 C 0.45141 0.07595 0.57899 0.0
C914 C 0.45562 0.10238 0.60406 0.0
C915 C 0.49254 0.09684 0.64161 0.0
H916 H 0.5165 0.16907 0.64684 0.0
C917 C 0.57074 0.16736 0.69183 0.0
C918 C 0.56406 0.18321 0.7009 0.0
C919 C 0.55454 0.1513 0.67842 0.0
C920 C 0.50971 0.14883 0.64563 0.0
H921 H 0.47057 0.05412 0.5821 0.0
H922 H 0.48938 0.07194 0.61044 0.0
H923 H 0.49194 0.14611 0.62105 0.0
H924 H 0.53488 0.19416 0.70341 0.0
H925 H 0.507 0.16656 0.67986 0.0
H926 H 0.51172 0.10035 0.66605 0.0
C927 C 0.47671 0.07759 0.60444 0.0
C928 C 0.4954 0.13554 0.6309 0.0
C929 C 0.46622 0.06763 0.588 0.0
C930 C 0.54062 0.18225 0.69662 0.0
C931 C 0.52467 0.1665 0.68313 0.0
C932 C 0.50729 0.11034 0.65629 0.0
C933 C 0.47225 0.09575 0.61244 0.0
C934 C 0.48652 0.10932 0.62867 0.0
C935 C 0.53164 0.15115 0.67375 0.0
C936 C 0.51591 0.13644 0.65842 0.0
H937 H 0.43444 0.09993 0.58106 0.0
H938 H 0.45103 0.11569 0.61001 0.0
H939 H 0.48583 0.07663 0.64047 0.0
H940 H 0.58865 0.16767 0.69491 0.0
H941 H 0.56039 0.13972 0.6713 0.0
C942 C 0.46575 0.57851 0.72585 0.0
C943 C 0.45626 0.55329 0.72013 0.0
C944 C 0.46602 0.58379 0.74356 0.0
C945 C 0.46826 0.55731 0.78611 0.0
H946 H 0.45941 0.61193 0.80377 0.0
C947 C 0.46707 0.58169 0.85933 0.0
C948 C 0.47995 0.60795 0.86352 0.0
C949 C 0.4653 0.5739 0.84199 0.0
C950 C 0.46219 0.59679 0.79897 0.0
H951 H 0.4383 0.51359 0.72836 0.0
H952 H 0.43789 0.52269 0.75924 0.0
H953 H 0.45022 0.5995 0.77324 0.0
H954 H 0.50303 0.64663 0.85316 0.0
H955 H 0.50001 0.633 0.82296 0.0
H956 H 0.47993 0.55451 0.81203 0.0
C957 C 0.44567 0.53847 0.75008 0.0
C958 C 0.45687 0.58963 0.7815 0.0
C959 C 0.44549 0.53321 0.73236 0.0
C960 C 0.49279 0.62625 0.8503 0.0
C961 C 0.4909 0.61847 0.83301 0.0
C962 C 0.47335 0.56433 0.80365 0.0
C963 C 0.45669 0.56392 0.75592 0.0
C964 C 0.46016 0.57003 0.7748 0.0
C965 C 0.47629 0.59228 0.82863 0.0
C966 C 0.47072 0.58439 0.81016 0.0
H967 H 0.474 0.59433 0.71669 0.0
H968 H 0.4748 0.60364 0.74759 0.0
H969 H 0.4714 0.5424 0.78131 0.0
H970 H 0.45701 0.56717 0.86927 0.0
H971 H 0.45399 0.55357 0.83894 0.0
C972 C 0.93225 0.42674 0.88755 0.0
C973 C 0.94708 0.41533 0.88404 0.0
C974 C 0.92244 0.42571 0.90425 0.0
C975 C 0.90648 0.39252 0.94648 0.0
H976 H 0.92131 0.45824 0.96447 0.0
C977 C 0.88406 0.4054 0.018 0.0
C978 C 0.8729 0.42057 0.0205 0.0
C979 C 0.89439 0.4047 0.00175 0.0
C980 C 0.91674 0.43967 0.95962 0.0
H981 H 0.96227 0.39294 0.8952 0.0
H982 H 0.94459 0.39071 0.9243 0.0
H983 H 0.93459 0.45546 0.93495 0.0
H984 H 0.86416 0.44717 0.00807 0.0
H985 H 0.88169 0.44566 0.97982 0.0
H986 H 0.88816 0.37661 0.97105 0.0
C987 C 0.94062 0.40045 0.91409 0.0
C988 C 0.92435 0.43809 0.94269 0.0
C989 C 0.95061 0.40163 0.89739 0.0
C990 C 0.87276 0.43539 0.00659 0.0
C991 C 0.88295 0.43462 0.99038 0.0
C992 C 0.89863 0.39404 0.96341 0.0
C993 C 0.92707 0.4131 0.91779 0.0
C994 C 0.9191 0.41448 0.93588 0.0
C995 C 0.89371 0.41911 0.98769 0.0
C996 C 0.90345 0.41761 0.97012 0.0
H997 H 0.92883 0.43707 0.87748 0.0
H998 H 0.91162 0.4352 0.90667 0.0
H999 H 0.90214 0.37406 0.94153 0.0
H1000 H 0.88444 0.39378 0.02851 0.0
H1001 H 0.90285 0.39282 0.0002 0.0
C1002 C 0.55221 0.02277 0.08917 0.0
C1003 C 0.53071 0.01875 0.07901 0.0
C1004 C 0.54891 0.01627 0.10684 0.0
C1005 C 0.49627 0.97145 0.13629 0.0
H1006 H 0.54831 0.00636 0.17264 0.0
C1007 C 0.47525 0.93179 0.20541 0.0
C1008 C 0.49512 0.92938 0.21328 0.0
C1009 C 0.48066 0.94697 0.19061 0.0
C1010 C 0.53366 0.99641 0.16259 0.0
H1011 H 0.48915 0.00601 0.07988 0.0
H1012 H 0.48376 0.99582 0.11066 0.0
H1013 H 0.55589 0.02583 0.14368 0.0
H1014 H 0.53656 0.94203 0.21246 0.0
H1015 H 0.54598 0.9683 0.1863 0.0
H1016 H 0.47427 0.94187 0.15487 0.0
C1017 C 0.50304 0.00337 0.10488 0.0
C1018 C 0.53799 0.00753 0.14602 0.0
C1019 C 0.50626 0.0096 0.08723 0.0
C1020 C 0.52086 0.94351 0.20661 0.0
C1021 C 0.52627 0.95865 0.19169 0.0
C1022 C 0.49195 0.96044 0.15275 0.0
C1023 C 0.52406 0.00576 0.11475 0.0
C1024 C 0.51933 0.99509 0.13268 0.0
C1025 C 0.50603 0.95993 0.18327 0.0
C1026 C 0.51057 0.97271 0.16609 0.0
H1027 H 0.57145 0.03024 0.08335 0.0
H1028 H 0.56552 0.01834 0.11407 0.0
H1029 H 0.48181 0.96097 0.12622 0.0
H1030 H 0.45529 0.92139 0.2104 0.0
H1031 H 0.46478 0.94802 0.18463 0.0
C1032 C 0.60703 0.60419 0.23949 0.0
C1033 C 0.62772 0.62992 0.2378 0.0
C1034 C 0.60173 0.5917 0.25549 0.0
C1035 C 0.61687 0.60061 0.30276 0.0
H1036 H 0.61153 0.53471 0.29806 0.0
C1037 C 0.64261 0.55358 0.35789 0.0
C1038 C 0.62792 0.52668 0.35938 0.0
C1039 C 0.63798 0.56568 0.34417 0.0
C1040 C 0.61245 0.55281 0.29966 0.0
H1041 H 0.65776 0.66321 0.25192 0.0
H1042 H 0.64904 0.64108 0.27981 0.0
H1043 H 0.61096 0.55717 0.27222 0.0
H1044 H 0.5962 0.49138 0.34815 0.0
H1045 H 0.58794 0.51253 0.32422 0.0
H1046 H 0.61916 0.59643 0.33029 0.0
C1047 C 0.63675 0.63069 0.26876 0.0
C1048 C 0.61211 0.56572 0.28482 0.0
C1049 C 0.64197 0.64328 0.25273 0.0
C1050 C 0.60801 0.51213 0.3472 0.0
C1051 C 0.60331 0.52424 0.3335 0.0
C1052 C 0.61719 0.58764 0.31766 0.0
C1053 C 0.61714 0.60452 0.27014 0.0
C1054 C 0.61472 0.58993 0.28617 0.0
C1055 C 0.6185 0.55112 0.3317 0.0
C1056 C 0.61543 0.5638 0.31622 0.0
H1057 H 0.59579 0.59315 0.22827 0.0
H1058 H 0.5862 0.57165 0.25622 0.0
H1059 H 0.61863 0.61912 0.3042 0.0
H1060 H 0.65805 0.56528 0.36714 0.0
H1061 H 0.65026 0.58637 0.34302 0.0
C1062 C 0.42874 0.99263 0.40524 0.0
C1063 C 0.43578 0.98892 0.42194 0.0
C1064 C 0.43401 0.9824 0.39061 0.0
C1065 C 0.44944 0.93419 0.37586 0.0
H1066 H 0.481 0.98041 0.33661 0.0
C1067 C 0.48527 0.9063 0.31414 0.0
C1068 C 0.47786 0.91211 0.29826 0.0
C1069 C 0.4822 0.91632 0.32979 0.0
C1070 C 0.47204 0.9672 0.3474 0.0
H1071 H 0.45269 0.97059 0.43651 0.0
H1072 H 0.4619 0.95266 0.41089 0.0
H1073 H 0.46968 0.99519 0.3628 0.0
H1074 H 0.46215 0.93346 0.28622 0.0
H1075 H 0.45669 0.95072 0.31334 0.0
H1076 H 0.45146 0.90606 0.36031 0.0
C1077 C 0.45234 0.96351 0.40913 0.0
C1078 C 0.4655 0.97565 0.36239 0.0
C1079 C 0.44721 0.97388 0.42377 0.0
C1080 C 0.46808 0.92866 0.29825 0.0
C1081 C 0.46508 0.93868 0.31381 0.0
C1082 C 0.4559 0.92568 0.3608 0.0
C1083 C 0.44634 0.96816 0.39237 0.0
C1084 C 0.45382 0.95915 0.37669 0.0
C1085 C 0.4718 0.93241 0.32979 0.0
C1086 C 0.46696 0.942 0.34632 0.0
H1087 H 0.42015 0.00434 0.4034 0.0
H1088 H 0.4288 0.98598 0.37787 0.0
H1089 H 0.44037 0.92102 0.38666 0.0
H1090 H 0.49285 0.89357 0.31453 0.0
H1091 H 0.48782 0.91136 0.34188 0.0
C1092 C 0.54713 0.56027 0.55309 0.0
C1093 C 0.51988 0.54601 0.55627 0.0
C1094 C 0.55689 0.56163 0.53634 0.0
C1095 C 0.53767 0.52136 0.4976 0.0
H1096 H 0.60375 0.57701 0.47924 0.0
C1097 C 0.58375 0.50726 0.43638 0.0
C1098 C 0.6107 0.51597 0.43748 0.0
C1099 C 0.57192 0.51479 0.44874 0.0
C1100 C 0.58529 0.56131 0.48424 0.0
H1101 H 0.48142 0.52399 0.54423 0.0
H1102 H 0.49846 0.52658 0.51484 0.0
H1103 H 0.58347 0.5847 0.5044 0.0
H1104 H 0.64661 0.54003 0.45201 0.0
H1105 H 0.62574 0.55279 0.47396 0.0
H1106 H 0.5398 0.49773 0.47794 0.0
C1107 C 0.51229 0.53624 0.52538 0.0
C1108 C 0.57365 0.56572 0.49859 0.0
C1109 C 0.50252 0.53478 0.54217 0.0
C1110 C 0.62577 0.53295 0.45091 0.0
C1111 C 0.61386 0.54042 0.46337 0.0
C1112 C 0.54925 0.51699 0.48329 0.0
C1113 C 0.53959 0.54879 0.52242 0.0
C1114 C 0.54999 0.54562 0.50564 0.0
C1115 C 0.58671 0.53109 0.46254 0.0
C1116 C 0.57344 0.53675 0.47666 0.0
H1117 H 0.56102 0.56888 0.56373 0.0
H1118 H 0.57801 0.57122 0.53458 0.0
H1119 H 0.51974 0.5053 0.50289 0.0
H1120 H 0.57169 0.49441 0.42603 0.0
H1121 H 0.55106 0.50762 0.44758 0.0
C1122 C 0.08193 0.48813 0.72077 0.0
C1123 C 0.06137 0.48974 0.72846 0.0
C1124 C 0.09469 0.50228 0.70588 0.0
C1125 C 0.09119 0.54237 0.67046 0.0
H1126 H 0.16636 0.56956 0.66844 0.0
C1127 C 0.16512 0.62158 0.62225 0.0
C1128 C 0.18005 0.61408 0.61255 0.0
C1129 C 0.14942 0.6064 0.63613 0.0
C1130 C 0.14537 0.56204 0.66885 0.0
H1131 H 0.03728 0.50668 0.72575 0.0
H1132 H 0.06047 0.53243 0.70037 0.0
H1133 H 0.14086 0.54268 0.69287 0.0
H1134 H 0.19052 0.5851 0.60978 0.0
H1135 H 0.16379 0.55914 0.63431 0.0
H1136 H 0.09633 0.56278 0.64658 0.0
C1137 C 0.06644 0.51982 0.70567 0.0
C1138 C 0.13064 0.54641 0.68275 0.0
C1139 C 0.05333 0.50526 0.72042 0.0
C1140 C 0.17918 0.59133 0.61702 0.0
C1141 C 0.16397 0.57651 0.63105 0.0
C1142 C 0.1061 0.55845 0.65669 0.0
C1143 C 0.08768 0.51894 0.69842 0.0
C1144 C 0.10326 0.53602 0.68365 0.0
C1145 C 0.14893 0.58387 0.6407 0.0
C1146 C 0.13324 0.56814 0.6557 0.0
H1147 H 0.08904 0.47674 0.72662 0.0
H1148 H 0.11045 0.5005 0.70043 0.0
H1149 H 0.07016 0.53456 0.67058 0.0
H1150 H 0.16539 0.63899 0.61902 0.0
H1151 H 0.13803 0.61247 0.64347 0.0
C1152 C 0.5648 0.13038 0.91803 0.0
C1153 C 0.54892 0.10354 0.91899 0.0
C1154 C 0.56886 0.14286 0.90203 0.0
C1155 C 0.54234 0.13163 0.85666 0.0
H1156 H 0.61026 0.19234 0.84654 0.0
C1157 C 0.57869 0.17334 0.78754 0.0
C1158 C 0.5884 0.19972 0.78579 0.0
C1159 C 0.57264 0.16193 0.80401 0.0
C1160 C 0.59115 0.17548 0.84928 0.0
H1161 H 0.52556 0.0685 0.90419 0.0
H1162 H 0.53342 0.08996 0.87622 0.0
H1163 H 0.60251 0.17185 0.87498 0.0
H1164 H 0.59942 0.23488 0.79976 0.0
H1165 H 0.58945 0.21497 0.8286 0.0
H1166 H 0.53156 0.13483 0.83057 0.0
C1167 C 0.54191 0.10167 0.88776 0.0
C1168 C 0.58661 0.16381 0.8656 0.0
C1169 C 0.5375 0.08931 0.90376 0.0
C1170 C 0.59185 0.21447 0.80074 0.0
C1171 C 0.5863 0.20316 0.81722 0.0
C1172 C 0.54708 0.14304 0.84025 0.0
C1173 C 0.55752 0.12863 0.88666 0.0
C1174 C 0.56215 0.14165 0.86949 0.0
C1175 C 0.57672 0.17683 0.81898 0.0
C1176 C 0.57152 0.16502 0.83643 0.0
H1177 H 0.57377 0.14167 0.92968 0.0
H1178 H 0.58068 0.16364 0.90176 0.0
H1179 H 0.52306 0.11498 0.85926 0.0
H1180 H 0.57587 0.16156 0.7762 0.0
H1181 H 0.56538 0.14159 0.80509 0.0
C1182 C 0.62209 0.70569 0.0678 0.0
C1183 C 0.60767 0.69828 0.08343 0.0
C1184 C 0.60933 0.70274 0.05195 0.0
C1185 C 0.54589 0.65765 0.03378 0.0
H1186 H 0.57002 0.70092 0.99274 0.0
C1187 C 0.48732 0.62779 0.96961 0.0
C1188 C 0.5014 0.63564 0.95388 0.0
C1189 C 0.50048 0.63623 0.98549 0.0
C1190 C 0.56326 0.68847 0.00403 0.0
H1191 H 0.56945 0.68503 0.09502 0.0
H1192 H 0.54711 0.67972 0.06728 0.0
H1193 H 0.59272 0.71789 0.0205 0.0
H1194 H 0.54035 0.65718 0.94239 0.0
H1195 H 0.5635 0.67111 0.97017 0.0
H1196 H 0.51714 0.62792 0.01742 0.0
C1197 C 0.56814 0.68737 0.06728 0.0
C1198 C 0.5761 0.69831 0.01992 0.0
C1199 C 0.5809 0.69046 0.08311 0.0
C1200 C 0.529 0.6509 0.95434 0.0
C1201 C 0.54221 0.65914 0.97024 0.0
C1202 C 0.53327 0.64773 0.01791 0.0
C1203 C 0.58198 0.69225 0.05154 0.0
C1204 C 0.56749 0.68297 0.03492 0.0
C1205 C 0.52805 0.65246 0.98599 0.0
C1206 C 0.5418 0.66298 0.00282 0.0
H1207 H 0.64271 0.71162 0.06766 0.0
H1208 H 0.62044 0.70662 0.03998 0.0
H1209 H 0.53923 0.64521 0.04508 0.0
H1210 H 0.466 0.61618 0.96965 0.0
H1211 H 0.4889 0.63087 -0.00267 0.0
C1212 C 0.96577 0.54288 0.22989 0.0
C1213 C 0.95807 0.52789 0.2451 0.0
C1214 C 0.95477 0.53177 0.2138 0.0
C1215 C 0.92159 0.46923 0.19112 0.0
H1216 H 0.90627 0.50591 0.15658 0.0
C1217 C 0.86715 0.42381 0.12617 0.0
C1218 C 0.87579 0.43955 0.11131 0.0
C1219 C 0.87797 0.43396 0.14252 0.0
C1220 C 0.91076 0.49555 0.16601 0.0
H1221 H 0.93206 0.48967 0.25545 0.0
H1222 H 0.9126 0.47027 0.22733 0.0
H1223 H 0.92185 0.52479 0.18531 0.0
H1224 H 0.90338 0.47791 0.10177 0.0
H1225 H 0.92244 0.49555 0.13025 0.0
H1226 H 0.91035 0.43993 0.17177 0.0
C1227 C 0.92752 0.49054 0.22782 0.0
C1228 C 0.91964 0.50636 0.18249 0.0
C1229 C 0.93857 0.50166 0.24393 0.0
C1230 C 0.89626 0.46532 0.11299 0.0
C1231 C 0.90701 0.47548 0.12932 0.0
C1232 C 0.91264 0.45839 0.17462 0.0
C1233 C 0.93576 0.5054 0.21253 0.0
C1234 C 0.92529 0.4934 0.19523 0.0
C1235 C 0.89757 0.46007 0.14433 0.0
C1236 C 0.90727 0.47151 0.16185 0.0
H1237 H 0.98113 0.56302 0.23029 0.0
H1238 H 0.96186 0.54371 0.20227 0.0
H1239 H 0.92615 0.45891 0.20053 0.0
H1240 H 0.85137 0.40388 0.12529 0.0
H1241 H 0.87019 0.42162 0.15383 0.0
loop_
_geom_bond_atom_site_label_1
_geom_bond_atom_site_label_2
_geom_bond_distance
_geom_bond_site_symmetry_2
_ccdc_geom_bond_type
H0 O26 0.856 . S
H1 O29 0.854 . S
H2 C37 0.930 . S
H3 C38 0.930 . S
H4 C40 0.930 . S
H5 C41 0.916 . S
H6 C43 0.931 . S
H7 C44 0.930 . S
H8 C46 0.930 . S
H9 C47 0.929 . S
H10 C49 0.930 . S
H11 C50 0.931 . S
H12 C52 0.930 . S
H13 C53 0.929 . S
H14 C55 0.931 . S
H15 C56 0.930 . S
H16 C58 0.930 . S
H17 C59 0.932 . S
H18 C61 0.930 . S
H19 C62 0.929 . S
H20 C64 0.931 . S
H21 C65 0.930 . S
H22 C67 0.929 . S
H23 C68 0.931 . S
H24 C70 0.930 . S
H25 C71 0.929 . S
O26 H0 0.856 . S
O26 C72 1.300 . S
O27 C72 1.209 . S
O28 C73 1.199 . S
O29 H1 0.854 . S
O29 C73 1.297 . S
C30 C31 1.404 . S
C30 C35 1.397 . S
C30 C36 1.492 . S
C31 C30 1.404 . S
C31 C32 1.396 . S
C31 C42 1.492 . S
C32 C31 1.396 . S
C32 C33 1.397 . S
C32 C48 1.509 . S
C33 C32 1.397 . S
C33 C34 1.412 . S
C33 C54 1.485 . S
C34 C33 1.412 . S
C34 C35 1.388 . S
C34 C60 1.490 . S
C35 C30 1.397 . S
C35 C34 1.388 . S
C35 C66 1.519 . S
C36 C30 1.492 . S
C36 C37 1.363 . S
C36 C41 1.430 . S
C37 H2 0.930 . S
C37 C36 1.363 . S
C37 C38 1.372 1_455 S
C38 H3 0.930 . S
C38 C37 1.372 1_655 S
C38 C39 1.383 . S
C39 C38 1.383 . S
C39 C40 1.395 . S
C40 H4 0.930 . S
C40 C39 1.395 . S
C40 C41 1.337 1_655 S
C41 H5 0.916 . S
C41 C36 1.430 . S
C41 C40 1.337 1_455 S
C42 C31 1.492 . S
C42 C43 1.377 . S
C42 C47 1.397 . S
C43 H6 0.931 . S
C43 C42 1.377 . S
C43 C44 1.376 . S
C44 H7 0.930 . S
C44 C43 1.376 . S
C44 C45 1.376 . S
C45 C44 1.376 . S
C45 C46 1.378 . S
C45 C72 1.486 . S
C46 H8 0.930 . S
C46 C45 1.378 . S
C46 C47 1.376 . S
C47 H9 0.929 . S
C47 C42 1.397 . S
C47 C46 1.376 . S
C48 C32 1.509 . S
C48 C49 1.391 . S
C48 C53 1.386 . S
C49 H10 0.930 . S
C49 C48 1.391 . S
C49 C50 1.375 . S
C50 H11 0.931 . S
C50 C49 1.375 . S
C50 C51 1.375 . S
C51 C50 1.375 . S
C51 C52 1.361 . S
C52 H12 0.930 . S
C52 C51 1.361 . S
C52 C53 1.399 . S
C53 H13 0.929 . S
C53 C48 1.386 . S
C53 C52 1.399 . S
C54 C33 1.485 . S
C54 C55 1.394 . S
C54 C59 1.360 . S
C55 H14 0.931 . S
C55 C54 1.394 . S
C55 C56 1.372 . S
C56 H15 0.930 . S
C56 C55 1.372 . S
C56 C57 1.397 . S
C57 C56 1.397 . S
C57 C58 1.390 . S
C57 C73 1.476 . S
C58 H16 0.930 . S
C58 C57 1.390 . S
C58 C59 1.366 . S
C59 H17 0.932 . S
C59 C54 1.360 . S
C59 C58 1.366 . S
C60 C34 1.490 . S
C60 C61 1.380 . S
C60 C65 1.386 . S
C61 H18 0.930 . S
C61 C60 1.380 . S
C61 C62 1.381 . S
C62 H19 0.929 . S
C62 C61 1.381 . S
C62 C63 1.371 . S
C63 C62 1.371 . S
C63 C64 1.380 . S
C64 H20 0.931 . S
C64 C63 1.380 . S
C64 C65 1.387 . S
C65 H21 0.930 . S
C65 C60 1.386 . S
C65 C64 1.387 . S
C66 C35 1.519 . S
C66 C67 1.377 1_455 S
C66 C71 1.361 . S
C67 H22 0.929 . S
C67 C66 1.377 1_655 S
C67 C68 1.386 . S
C68 H23 0.931 . S
C68 C67 1.386 . S
C68 C69 1.363 . S
C69 C68 1.363 . S
C69 C70 1.385 . S
C70 H24 0.930 . S
C70 C69 1.385 . S
C70 C71 1.396 1_655 S
C71 H25 0.929 . S
C71 C66 1.361 . S
C71 C70 1.396 1_455 S
C72 O26 1.300 . S
C72 O27 1.209 . S
C72 C45 1.486 . S
C73 O28 1.199 . S
C73 O29 1.297 . S
C73 C57 1.476 . S
H74 O100 0.856 . S
H75 O103 0.854 . S
H76 C111 0.930 . S
H77 C112 0.930 . S
H78 C114 0.930 1_565 S
H79 C115 0.930 . S
H80 C117 0.931 . S
H81 C118 0.930 . S
H82 C120 0.930 . S
H83 C121 0.929 . S
H84 C123 0.930 . S
H85 C124 0.931 . S
H86 C126 0.930 . S
H87 C127 0.929 . S
H88 C129 0.931 . S
H89 C130 0.930 . S
H90 C132 0.930 . S
H91 C133 0.932 . S
H92 C135 0.930 . S
H93 C136 0.929 . S
H94 C138 0.931 . S
H95 C139 0.930 . S
H96 C141 0.929 . S
H97 C142 0.931 1_565 S
H98 C144 0.931 . S
H99 C145 0.929 . S
O100 H74 0.856 . S
O100 C146 1.300 . S
O101 C146 1.209 . S
O102 C147 1.199 . S
O103 H75 0.854 . S
O103 C147 1.297 . S
C104 C105 1.404 . S
C104 C109 1.397 . S
C104 C110 1.492 . S
C105 C104 1.404 . S
C105 C106 1.396 . S
C105 C116 1.492 . S
C106 C105 1.396 . S
C106 C107 1.397 . S
C106 C122 1.509 . S
C107 C106 1.397 . S
C107 C108 1.412 . S
C107 C128 1.485 . S
C108 C107 1.412 . S
C108 C109 1.388 . S
C108 C134 1.490 . S
C109 C104 1.397 . S
C109 C108 1.388 . S
C109 C140 1.519 . S
C110 C104 1.492 . S
C110 C111 1.363 . S
C110 C115 1.390 . S
C111 H76 0.930 . S
C111 C110 1.363 . S
C111 C112 1.372 . S
C112 H77 0.930 . S
C112 C111 1.372 . S
C112 C113 1.383 . S
C113 C112 1.383 . S
C113 C114 1.395 . S
C114 H78 0.930 1_545 S
C114 C113 1.395 . S
C114 C115 1.362 . S
C115 H79 0.930 . S
C115 C110 1.390 . S
C115 C114 1.362 . S
C116 C105 1.492 . S
C116 C117 1.377 . S
C116 C121 1.397 . S
C117 H80 0.931 . S
C117 C116 1.377 . S
C117 C118 1.376 . S
C118 H81 0.930 . S
C118 C117 1.376 . S
C118 C119 1.376 . S
C119 C118 1.376 . S
C119 C120 1.378 . S
C119 C146 1.486 . S
C120 H82 0.930 . S
C120 C119 1.378 . S
C120 C121 1.376 . S
C121 H83 0.929 . S
C121 C116 1.397 . S
C121 C120 1.376 . S
C122 C106 1.509 . S
C122 C123 1.391 . S
C122 C127 1.386 . S
C123 H84 0.930 . S
C123 C122 1.391 . S
C123 C124 1.375 . S
C124 H85 0.931 . S
C124 C123 1.375 . S
C124 C125 1.375 . S
C125 C124 1.375 . S
C125 C126 1.361 . S
C126 H86 0.930 . S
C126 C125 1.361 . S
C126 C127 1.399 . S
C127 H87 0.929 . S
C127 C122 1.386 . S
C127 C126 1.399 . S
C128 C107 1.485 . S
C128 C129 1.394 . S
C128 C133 1.360 . S
C129 H88 0.931 . S
C129 C128 1.394 . S
C129 C130 1.372 . S
C130 H89 0.930 . S
C130 C129 1.372 . S
C130 C131 1.397 . S
C131 C130 1.397 . S
C131 C132 1.390 . S
C131 C147 1.476 . S
C132 H90 0.930 . S
C132 C131 1.390 . S
C132 C133 1.366 . S
C133 H91 0.932 . S
C133 C128 1.360 . S
C133 C132 1.366 . S
C134 C108 1.490 . S
C134 C135 1.380 . S
C134 C139 1.386 . S
C135 H92 0.930 . S
C135 C134 1.380 . S
C135 C136 1.381 . S
C136 H93 0.929 . S
C136 C135 1.381 . S
C136 C137 1.371 . S
C137 C136 1.371 . S
C137 C138 1.380 . S
C138 H94 0.931 . S
C138 C137 1.380 . S
C138 C139 1.387 . S
C139 H95 0.930 . S
C139 C134 1.386 . S
C139 C138 1.387 . S
C140 C109 1.519 . S
C140 C141 1.377 . S
C140 C145 1.361 . S
C141 H96 0.929 . S
C141 C140 1.377 . S
C141 C142 1.386 . S
C142 H97 0.931 1_545 S
C142 C141 1.386 . S
C142 C143 1.363 1_545 S
C143 C142 1.363 1_565 S
C143 C144 1.385 1_565 S
C144 H98 0.931 . S
C144 C143 1.385 1_545 S
C144 C145 1.396 . S
C145 H99 0.929 . S
C145 C140 1.361 . S
C145 C144 1.396 . S
C146 O100 1.300 . S
C146 O101 1.209 . S
C146 C119 1.486 . S
C147 O102 1.199 . S
C147 O103 1.297 . S
C147 C131 1.476 . S
H148 O174 0.856 . S
H149 O177 0.854 . S
H150 C185 0.930 . S
H151 C186 0.930 . S
H152 C188 0.930 . S
H153 C189 0.930 . S
H154 C191 0.931 . S
H155 C192 0.930 . S
H156 C194 0.930 . S
H157 C195 0.929 . S
H158 C197 0.930 . S
H159 C198 0.931 . S
H160 C200 0.930 . S
H161 C201 0.929 . S
H162 C203 0.931 . S
H163 C204 0.930 . S
H164 C206 0.930 . S
H165 C207 0.932 . S
H166 C209 0.930 . S
H167 C210 0.929 . S
H168 C212 0.931 . S
H169 C213 0.930 . S
H170 C215 0.929 . S
H171 C216 0.931 . S
H172 C218 0.930 . S
H173 C219 0.929 . S
O174 H148 0.856 . S
O174 C220 1.300 . S
O175 C220 1.209 . S
O176 C221 1.199 . S
O177 H149 0.854 . S
O177 C221 1.297 . S
C178 C179 1.404 . S
C178 C183 1.397 . S
C178 C184 1.492 . S
C179 C178 1.404 . S
C179 C180 1.396 . S
C179 C190 1.492 . S
C180 C179 1.396 . S
C180 C181 1.397 . S
C180 C196 1.509 . S
C181 C180 1.397 . S
C181 C182 1.412 . S
C181 C202 1.485 . S
C182 C181 1.412 . S
C182 C183 1.388 . S
C182 C208 1.490 . S
C183 C178 1.397 . S
C183 C182 1.388 . S
C183 C214 1.519 . S
C184 C178 1.492 . S
C184 C185 1.363 . S
C184 C189 1.390 . S
C185 H150 0.930 . S
C185 C184 1.363 . S
C185 C186 1.372 . S
C186 H151 0.930 . S
C186 C185 1.372 . S
C186 C187 1.383 . S
C187 C186 1.383 . S
C187 C188 1.395 . S
C188 H152 0.930 . S
C188 C187 1.395 . S
C188 C189 1.362 . S
C189 H153 0.930 . S
C189 C184 1.390 . S
C189 C188 1.362 . S
C190 C179 1.492 . S
C190 C191 1.377 . S
C190 C195 1.397 . S
C191 H154 0.931 . S
C191 C190 1.377 . S
C191 C192 1.376 . S
C192 H155 0.930 . S
C192 C191 1.376 . S
C192 C193 1.376 . S
C193 C192 1.376 . S
C193 C194 1.378 . S
C193 C220 1.486 . S
C194 H156 0.930 . S
C194 C193 1.378 . S
C194 C195 1.376 . S
C195 H157 0.929 . S
C195 C190 1.397 . S
C195 C194 1.376 . S
C196 C180 1.509 . S
C196 C197 1.391 . S
C196 C201 1.386 . S
C197 H158 0.930 . S
C197 C196 1.391 . S
C197 C198 1.375 . S
C198 H159 0.931 . S
C198 C197 1.375 . S
C198 C199 1.375 . S
C199 C198 1.375 . S
C199 C200 1.361 . S
C200 H160 0.930 . S
C200 C199 1.361 . S
C200 C201 1.399 . S
C201 H161 0.929 . S
C201 C196 1.386 . S
C201 C200 1.399 . S
C202 C181 1.485 . S
C202 C203 1.394 . S
C202 C207 1.360 . S
C203 H162 0.931 . S
C203 C202 1.394 . S
C203 C204 1.372 . S
C204 H163 0.930 . S
C204 C203 1.372 . S
C204 C205 1.397 . S
C205 C204 1.397 . S
C205 C206 1.390 . S
C205 C221 1.476 . S
C206 H164 0.930 . S
C206 C205 1.390 . S
C206 C207 1.366 . S
C207 H165 0.932 . S
C207 C202 1.360 . S
C207 C206 1.366 . S
C208 C182 1.490 . S
C208 C209 1.380 . S
C208 C213 1.386 . S
C209 H166 0.930 . S
C209 C208 1.380 . S
C209 C210 1.381 . S
C210 H167 0.929 . S
C210 C209 1.381 . S
C210 C211 1.371 . S
C211 C210 1.371 . S
C211 C212 1.380 . S
C212 H168 0.931 . S
C212 C211 1.380 . S
C212 C213 1.387 . S
C213 H169 0.930 . S
C213 C208 1.386 . S
C213 C212 1.387 . S
C214 C183 1.519 . S
C214 C215 1.377 . S
C214 C219 1.361 . S
C215 H170 0.929 . S
C215 C214 1.377 . S
C215 C216 1.386 . S
C216 H171 0.931 . S
C216 C215 1.386 . S
C216 C217 1.363 . S
C217 C216 1.363 . S
C217 C218 1.385 . S
C218 H172 0.930 . S
C218 C217 1.385 . S
C218 C219 1.396 . S
C219 H173 0.929 . S
C219 C214 1.361 . S
C219 C218 1.396 . S
C220 O174 1.300 . S
C220 O175 1.209 . S
C220 C193 1.486 . S
C221 O176 1.199 . S
C221 O177 1.297 . S
C221 C205 1.476 . S
H222 O248 0.856 . S
H223 O251 0.854 . S
H224 C259 0.930 . S
H225 C260 0.930 . S
H226 C262 0.930 . S
H227 C263 0.930 . S
H228 C265 0.931 . S
H229 C266 0.930 . S
H230 C268 0.930 . S
H231 C269 0.929 . S
H232 C271 0.930 . S
H233 C272 0.931 . S
H234 C274 0.930 . S
H235 C275 0.929 . S
H236 C277 0.931 . S
H237 C278 0.930 . S
H238 C280 0.930 . S
H239 C281 0.932 . S
H240 C283 0.930 . S
H241 C284 0.929 . S
H242 C286 0.931 . S
H243 C287 0.930 . S
H244 C289 0.929 . S
H245 C290 0.931 . S
H246 C292 0.930 . S
H247 C293 0.929 1_455 S
O248 H222 0.856 . S
O248 C294 1.300 . S
O249 C294 1.209 . S
O250 C295 1.199 . S
O251 H223 0.854 . S
O251 C295 1.297 . S
C252 C253 1.404 . S
C252 C257 1.397 . S
C252 C258 1.492 . S
C253 C252 1.404 . S
C253 C254 1.396 . S
C253 C264 1.492 . S
C254 C253 1.396 . S
C254 C255 1.397 . S
C254 C270 1.509 . S
C255 C254 1.397 . S
C255 C256 1.412 . S
C255 C276 1.485 . S
C256 C255 1.412 . S
C256 C257 1.388 . S
C256 C282 1.490 . S
C257 C252 1.397 . S
C257 C256 1.388 . S
C257 C288 1.519 . S
C258 C252 1.492 . S
C258 C259 1.363 . S
C258 C263 1.390 1_455 S
C259 H224 0.930 . S
C259 C258 1.363 . S
C259 C260 1.372 1_455 S
C260 H225 0.930 . S
C260 C259 1.372 1_655 S
C260 C261 1.383 . S
C261 C260 1.383 . S
C261 C262 1.395 . S
C262 H226 0.930 . S
C262 C261 1.395 . S
C262 C263 1.362 . S
C263 H227 0.930 . S
C263 C258 1.390 1_655 S
C263 C262 1.362 . S
C264 C253 1.492 . S
C264 C265 1.377 . S
C264 C269 1.397 . S
C265 H228 0.931 . S
C265 C264 1.377 . S
C265 C266 1.376 . S
C266 H229 0.930 . S
C266 C265 1.376 . S
C266 C267 1.376 . S
C267 C266 1.376 . S
C267 C268 1.378 . S
C267 C294 1.486 . S
C268 H230 0.930 . S
C268 C267 1.378 . S
C268 C269 1.376 . S
C269 H231 0.929 . S
C269 C264 1.397 . S
C269 C268 1.376 . S
C270 C254 1.509 . S
C270 C271 1.391 . S
C270 C275 1.386 . S
C271 H232 0.930 . S
C271 C270 1.391 . S
C271 C272 1.375 . S
C272 H233 0.931 . S
C272 C271 1.375 . S
C272 C273 1.375 . S
C273 C272 1.375 . S
C273 C274 1.361 . S
C274 H234 0.930 . S
C274 C273 1.361 . S
C274 C275 1.399 . S
C275 H235 0.929 . S
C275 C270 1.386 . S
C275 C274 1.399 . S
C276 C255 1.485 . S
C276 C277 1.394 . S
C276 C281 1.360 . S
C277 H236 0.931 . S
C277 C276 1.394 . S
C277 C278 1.372 . S
C278 H237 0.930 . S
C278 C277 1.372 . S
C278 C279 1.397 . S
C279 C278 1.397 . S
C279 C280 1.390 . S
C279 C295 1.476 . S
C280 H238 0.930 . S
C280 C279 1.390 . S
C280 C281 1.366 . S
C281 H239 0.932 . S
C281 C276 1.360 . S
C281 C280 1.366 . S
C282 C256 1.490 . S
C282 C283 1.380 . S
C282 C287 1.386 . S
C283 H240 0.930 . S
C283 C282 1.380 . S
C283 C284 1.381 . S
C284 H241 0.929 . S
C284 C283 1.381 . S
C284 C285 1.371 . S
C285 C284 1.371 . S
C285 C286 1.380 . S
C286 H242 0.931 . S
C286 C285 1.380 . S
C286 C287 1.387 . S
C287 H243 0.930 . S
C287 C282 1.386 . S
C287 C286 1.387 . S
C288 C257 1.519 . S
C288 C289 1.377 1_455 S
C288 C293 1.361 1_455 S
C289 H244 0.929 . S
C289 C288 1.377 1_655 S
C289 C290 1.386 . S
C290 H245 0.931 . S
C290 C289 1.386 . S
C290 C291 1.363 . S
C291 C290 1.363 . S
C291 C292 1.385 . S
C292 H246 0.930 . S
C292 C291 1.385 . S
C292 C293 1.396 . S
C293 H247 0.929 1_655 S
C293 C288 1.361 1_655 S
C293 C292 1.396 . S
C294 O248 1.300 . S
C294 O249 1.209 . S
C294 C267 1.486 . S
C295 O250 1.199 . S
C295 O251 1.297 . S
C295 C279 1.476 . S
H296 O322 0.856 . S
H297 O325 0.854 . S
H298 C333 0.930 . S
H299 C334 0.930 . S
H300 C336 0.930 . S
H301 C337 0.930 . S
H302 C339 0.931 . S
H303 C340 0.930 . S
H304 C342 0.930 . S
H305 C343 0.929 . S
H306 C345 0.930 . S
H307 C346 0.931 . S
H308 C348 0.930 . S
H309 C349 0.929 . S
H310 C351 0.931 . S
H311 C352 0.930 . S
H312 C354 0.930 . S
H313 C355 0.932 . S
H314 C357 0.930 . S
H315 C358 0.929 . S
H316 C360 0.931 . S
H317 C361 0.930 . S
H318 C363 0.929 . S
H319 C364 0.931 . S
H320 C366 0.930 . S
H321 C367 0.929 . S
O322 H296 0.856 . S
O322 C368 1.300 . S
O323 C368 1.209 1_545 S
O324 C369 1.199 . S
O325 H297 0.854 . S
O325 C369 1.297 . S
C326 C327 1.404 . S
C326 C331 1.397 . S
C326 C332 1.492 . S
C327 C326 1.404 . S
C327 C328 1.396 1_545 S
C327 C338 1.492 . S
C328 C327 1.396 1_565 S
C328 C329 1.397 . S
C328 C344 1.509 . S
C329 C328 1.397 . S
C329 C330 1.412 1_566 S
C329 C350 1.485 1_556 S
C330 C329 1.412 1_544 S
C330 C331 1.388 1_554 S
C330 C356 1.490 . S
C331 C326 1.397 . S
C331 C330 1.388 1_556 S
C331 C362 1.519 . S
C332 C326 1.492 . S
C332 C333 1.363 . S
C332 C337 1.390 . S
C333 H298 0.930 . S
C333 C332 1.363 . S
C333 C334 1.372 . S
C334 H299 0.930 . S
C334 C333 1.372 . S
C334 C335 1.383 . S
C335 C334 1.383 . S
C335 C336 1.395 . S
C336 H300 0.930 . S
C336 C335 1.395 . S
C336 C337 1.362 . S
C337 H301 0.930 . S
C337 C332 1.390 . S
C337 C336 1.362 . S
C338 C327 1.492 . S
C338 C339 1.377 1_545 S
C338 C343 1.397 . S
C339 H302 0.931 . S
C339 C338 1.377 1_565 S
C339 C340 1.376 . S
C340 H303 0.930 . S
C340 C339 1.376 . S
C340 C341 1.376 . S
C341 C340 1.376 . S
C341 C342 1.378 1_565 S
C341 C368 1.486 . S
C342 H304 0.930 . S
C342 C341 1.378 1_545 S
C342 C343 1.376 . S
C343 H305 0.929 . S
C343 C338 1.397 . S
C343 C342 1.376 . S
C344 C328 1.509 . S
C344 C345 1.391 . S
C344 C349 1.386 . S
C345 H306 0.930 . S
C345 C344 1.391 . S
C345 C346 1.375 . S
C346 H307 0.931 . S
C346 C345 1.375 . S
C346 C347 1.375 . S
C347 C346 1.375 . S
C347 C348 1.361 . S
C348 H308 0.930 . S
C348 C347 1.361 . S
C348 C349 1.399 . S
C349 H309 0.929 . S
C349 C344 1.386 . S
C349 C348 1.399 . S
C350 C329 1.485 1_554 S
C350 C351 1.394 . S
C350 C355 1.360 . S
C351 H310 0.931 . S
C351 C350 1.394 . S
C351 C352 1.372 . S
C352 H311 0.930 . S
C352 C351 1.372 . S
C352 C353 1.397 . S
C353 C352 1.397 . S
C353 C354 1.390 . S
C353 C369 1.476 . S
C354 H312 0.930 . S
C354 C353 1.390 . S
C354 C355 1.366 . S
C355 H313 0.932 . S
C355 C350 1.360 . S
C355 C354 1.366 . S
C356 C330 1.490 . S
C356 C357 1.380 . S
C356 C361 1.386 . S
C357 H314 0.930 . S
C357 C356 1.380 . S
C357 C358 1.381 . S
C358 H315 0.929 . S
C358 C357 1.381 . S
C358 C359 1.371 . S
C359 C358 1.371 . S
C359 C360 1.380 . S
C360 H316 0.931 . S
C360 C359 1.380 . S
C360 C361 1.387 . S
C361 H317 0.930 . S
C361 C356 1.386 . S
C361 C360 1.387 . S
C362 C331 1.519 . S
C362 C363 1.377 . S
C362 C367 1.361 1_556 S
C363 H318 0.929 . S
C363 C362 1.377 . S
C363 C364 1.386 1_556 S
C364 H319 0.931 . S
C364 C363 1.386 1_554 S
C364 C365 1.363 . S
C365 C364 1.363 . S
C365 C366 1.385 . S
C366 H320 0.930 . S
C366 C365 1.385 . S
C366 C367 1.396 . S
C367 H321 0.929 . S
C367 C362 1.361 1_554 S
C367 C366 1.396 . S
C368 O322 1.300 . S
C368 O323 1.209 1_565 S
C368 C341 1.486 . S
C369 O324 1.199 . S
C369 O325 1.297 . S
C369 C353 1.476 . S
H370 O396 0.856 . S
H371 O399 0.854 . S
H372 C407 0.930 . S
H373 C408 0.930 . S
H374 C410 0.930 . S
H375 C411 0.930 . S
H376 C413 0.931 . S
H377 C414 0.930 . S
H378 C416 0.930 . S
H379 C417 0.929 . S
H380 C419 0.930 . S
H381 C420 0.931 . S
H382 C422 0.930 . S
H383 C423 0.929 . S
H384 C425 0.931 . S
H385 C426 0.930 . S
H386 C428 0.930 . S
H387 C429 0.932 . S
H388 C431 0.930 . S
H389 C432 0.929 . S
H390 C434 0.931 . S
H391 C435 0.930 . S
H392 C437 0.929 . S
H393 C438 0.931 . S
H394 C440 0.930 . S
H395 C441 0.929 . S
O396 H370 0.856 . S
O396 C442 1.300 . S
O397 C442 1.209 . S
O398 C443 1.199 . S
O399 H371 0.854 . S
O399 C443 1.297 . S
C400 C401 1.404 . S
C400 C405 1.397 . S
C400 C406 1.492 . S
C401 C400 1.404 . S
C401 C402 1.396 . S
C401 C412 1.492 . S
C402 C401 1.396 . S
C402 C403 1.397 . S
C402 C418 1.509 . S
C403 C402 1.397 . S
C403 C404 1.412 . S
C403 C424 1.485 . S
C404 C403 1.412 . S
C404 C405 1.388 . S
C404 C430 1.490 . S
C405 C400 1.397 . S
C405 C404 1.388 . S
C405 C436 1.519 . S
C406 C400 1.492 . S
C406 C407 1.363 . S
C406 C411 1.390 . S
C407 H372 0.930 . S
C407 C406 1.363 . S
C407 C408 1.372 . S
C408 H373 0.930 . S
C408 C407 1.372 . S
C408 C409 1.383 . S
C409 C408 1.383 . S
C409 C410 1.395 . S
C410 H374 0.930 . S
C410 C409 1.395 . S
C410 C411 1.362 . S
C411 H375 0.930 . S
C411 C406 1.390 . S
C411 C410 1.362 . S
C412 C401 1.492 . S
C412 C413 1.377 . S
C412 C417 1.397 . S
C413 H376 0.931 . S
C413 C412 1.377 . S
C413 C414 1.376 . S
C414 H377 0.930 . S
C414 C413 1.376 . S
C414 C415 1.376 . S
C415 C414 1.376 . S
C415 C416 1.378 . S
C415 C442 1.486 . S
C416 H378 0.930 . S
C416 C415 1.378 . S
C416 C417 1.376 . S
C417 H379 0.929 . S
C417 C412 1.397 . S
C417 C416 1.376 . S
C418 C402 1.509 . S
C418 C419 1.391 . S
C418 C423 1.386 . S
C419 H380 0.930 . S
C419 C418 1.391 . S
C419 C420 1.375 . S
C420 H381 0.931 . S
C420 C419 1.375 . S
C420 C421 1.375 . S
C421 C420 1.375 . S
C421 C422 1.361 . S
C422 H382 0.930 . S
C422 C421 1.361 . S
C422 C423 1.399 . S
C423 H383 0.929 . S
C423 C418 1.386 . S
C423 C422 1.399 . S
C424 C403 1.485 . S
C424 C425 1.394 . S
C424 C429 1.360 . S
C425 H384 0.931 . S
C425 C424 1.394 . S
C425 C426 1.372 . S
C426 H385 0.930 . S
C426 C425 1.372 . S
C426 C427 1.397 . S
C427 C426 1.397 . S
C427 C428 1.390 . S
C427 C443 1.476 . S
C428 H386 0.930 . S
C428 C427 1.390 . S
C428 C429 1.366 . S
C429 H387 0.932 . S
C429 C424 1.360 . S
C429 C428 1.366 . S
C430 C404 1.490 . S
C430 C431 1.380 . S
C430 C435 1.386 . S
C431 H388 0.930 . S
C431 C430 1.380 . S
C431 C432 1.381 . S
C432 H389 0.929 . S
C432 C431 1.381 . S
C432 C433 1.371 . S
C433 C432 1.371 . S
C433 C434 1.380 . S
C434 H390 0.931 . S
C434 C433 1.380 . S
C434 C435 1.387 . S
C435 H391 0.930 . S
C435 C430 1.386 . S
C435 C434 1.387 . S
C436 C405 1.519 . S
C436 C437 1.377 . S
C436 C441 1.361 . S
C437 H392 0.929 . S
C437 C436 1.377 . S
C437 C438 1.386 . S
C438 H393 0.931 . S
C438 C437 1.386 . S
C438 C439 1.363 . S
C439 C438 1.363 . S
C439 C440 1.385 . S
C440 H394 0.930 . S
C440 C439 1.385 . S
C440 C441 1.396 . S
C441 H395 0.929 . S
C441 C436 1.361 . S
C441 C440 1.396 . S
C442 O396 1.300 . S
C442 O397 1.209 . S
C442 C415 1.486 . S
C443 O398 1.199 . S
C443 O399 1.297 . S
C443 C427 1.476 . S
In444 O445 2.294 . S
In444 O446 2.326 . S
In444 O450 2.266 . S
In444 O451 2.326 . S
In444 O452 2.266 . S
In444 O453 2.326 . S
In444 O455 2.294 . S
In444 O456 2.326 . S
O445 In444 2.294 . S
O445 C454 1.240 . S
O446 In444 2.326 . S
O446 C454 1.252 . S
C447 O450 1.252 . S
C447 O451 1.260 . S
C448 O455 1.240 . S
C448 O456 1.252 . S
C449 O452 1.252 . S
C449 O453 1.260 . S
O450 In444 2.266 . S
O450 C447 1.252 . S
O451 In444 2.326 . S
O451 C447 1.260 . S
O452 In444 2.266 . S
O452 C449 1.252 . S
O453 In444 2.326 . S
O453 C449 1.260 . S
C454 O445 1.240 . S
C454 O446 1.252 . S
O455 In444 2.294 . S
O455 C448 1.240 . S
O456 In444 2.326 . S
O456 C448 1.252 . S
In457 O458 2.294 . S
In457 O459 2.326 . S
In457 O463 2.266 . S
In457 O464 2.326 . S
In457 O465 2.266 . S
In457 O466 2.326 . S
In457 O468 2.294 . S
In457 O469 2.326 . S
O458 In457 2.294 . S
O458 C467 1.240 . S
O459 In457 2.326 . S
O459 C467 1.252 . S
C460 O463 1.252 . S
C460 O464 1.260 . S
C461 O468 1.240 . S
C461 O469 1.252 . S
C462 O465 1.252 . S
C462 O466 1.260 . S
O463 In457 2.266 . S
O463 C460 1.252 . S
O464 In457 2.326 . S
O464 C460 1.260 . S
O465 In457 2.266 . S
O465 C462 1.252 . S
O466 In457 2.326 . S
O466 C462 1.260 . S
C467 O458 1.240 . S
C467 O459 1.252 . S
O468 In457 2.294 . S
O468 C461 1.240 . S
O469 In457 2.326 . S
O469 C461 1.252 . S
In470 O471 2.294 . S
In470 O472 2.326 . S
In470 O476 2.266 . S
In470 O477 2.326 . S
In470 O478 2.266 . S
In470 O479 2.326 . S
In470 O481 2.294 . S
In470 O482 2.326 . S
O471 In470 2.294 . S
O471 C480 1.240 . S
O472 In470 2.326 . S
O472 C480 1.252 . S
C473 O476 1.252 . S
C473 O477 1.260 . S
C474 O481 1.240 . S
C474 O482 1.252 . S
C475 O478 1.252 . S
C475 O479 1.260 . S
O476 In470 2.266 . S
O476 C473 1.252 . S
O477 In470 2.326 . S
O477 C473 1.260 . S
O478 In470 2.266 . S
O478 C475 1.252 . S
O479 In470 2.326 . S
O479 C475 1.260 . S
C480 O471 1.240 . S
C480 O472 1.252 . S
O481 In470 2.294 . S
O481 C474 1.240 . S
O482 In470 2.326 . S
O482 C474 1.252 . S
In483 O484 2.294 . S
In483 O485 2.326 . S
In483 O489 2.266 . S
In483 O490 2.326 . S
In483 O491 2.266 . S
In483 O492 2.326 . S
In483 O494 2.294 . S
In483 O495 2.326 . S
O484 In483 2.294 . S
O484 C493 1.240 . S
O485 In483 2.326 . S
O485 C493 1.252 . S
C486 O489 1.252 . S
C486 O490 1.260 . S
C487 O494 1.240 . S
C487 O495 1.252 . S
C488 O491 1.252 . S
C488 O492 1.260 . S
O489 In483 2.266 . S
O489 C486 1.252 . S
O490 In483 2.326 . S
O490 C486 1.260 . S
O491 In483 2.266 . S
O491 C488 1.252 . S
O492 In483 2.326 . S
O492 C488 1.260 . S
C493 O484 1.240 . S
C493 O485 1.252 . S
O494 In483 2.294 . S
O494 C487 1.240 . S
O495 In483 2.326 . S
O495 C487 1.252 . S
In496 O497 2.294 . S
In496 O498 2.326 . S
In496 O502 2.266 . S
In496 O503 2.326 . S
In496 O504 2.266 . S
In496 O505 2.326 . S
In496 O507 2.294 . S
In496 O508 2.326 . S
O497 In496 2.294 . S
O497 C506 1.240 . S
O498 In496 2.326 . S
O498 C506 1.252 . S
C499 O502 1.252 . S
C499 O503 1.260 . S
C500 O507 1.240 . S
C500 O508 1.252 . S
C501 O504 1.252 . S
C501 O505 1.260 . S
O502 In496 2.266 . S
O502 C499 1.252 . S
O503 In496 2.326 . S
O503 C499 1.260 . S
O504 In496 2.266 . S
O504 C501 1.252 . S
O505 In496 2.326 . S
O505 C501 1.260 . S
C506 O497 1.240 . S
C506 O498 1.252 . S
O507 In496 2.294 . S
O507 C500 1.240 . S
O508 In496 2.326 . S
O508 C500 1.252 . S
In509 O510 2.294 . S
In509 O511 2.326 . S
In509 O515 2.266 . S
In509 O516 2.326 . S
In509 O517 2.266 . S
In509 O518 2.326 . S
In509 O520 2.294 . S
In509 O521 2.326 . S
O510 In509 2.294 . S
O510 C519 1.240 . S
O511 In509 2.326 . S
O511 C519 1.252 . S
C512 O515 1.252 . S
C512 O516 1.260 . S
C513 O520 1.240 . S
C513 O521 1.252 . S
C514 O517 1.252 . S
C514 O518 1.260 . S
O515 In509 2.266 . S
O515 C512 1.252 . S
O516 In509 2.326 . S
O516 C512 1.260 . S
O517 In509 2.266 . S
O517 C514 1.252 . S
O518 In509 2.326 . S
O518 C514 1.260 . S
C519 O510 1.240 . S
C519 O511 1.252 . S
O520 In509 2.294 . S
O520 C513 1.240 . S
O521 In509 2.326 . S
O521 C513 1.252 . S
C522 C523 1.349 . S
C522 C524 1.327 . S
C522 H547 0.950 . S
C523 C522 1.349 . S
C523 C539 1.349 . S
C524 C522 1.327 . S
C524 C543 1.429 . S
C524 H548 0.950 . S
C525 C542 1.574 . S
C525 C544 1.368 . S
C525 H549 0.949 . S
H526 C530 0.949 . S
C527 C528 1.349 . S
C527 C529 1.327 . S
C527 H550 0.950 . S
C528 C527 1.349 . S
C528 C540 1.349 . S
C529 C527 1.327 . S
C529 C545 1.429 . S
C529 H551 0.950 . S
C530 H526 0.949 . S
C530 C538 1.574 . S
C530 C546 1.368 . S
H531 C539 0.950 . S
H532 C537 0.950 . S
H533 C538 0.949 . S
H534 C540 0.950 . S
H535 C541 0.950 . S
H536 C542 0.949 . S
C537 H532 0.950 . S
C537 C539 1.327 . S
C537 C543 1.429 . S
C538 C530 1.574 . S
C538 H533 0.949 . S
C538 C544 1.368 . S
C539 C523 1.349 . S
C539 H531 0.950 . S
C539 C537 1.327 . S
C540 C528 1.349 . S
C540 H534 0.950 . S
C540 C541 1.327 . S
C541 H535 0.950 . S
C541 C540 1.327 . S
C541 C545 1.429 . S
C542 C525 1.574 . S
C542 H536 0.949 . S
C542 C546 1.368 . S
C543 C524 1.429 . S
C543 C537 1.429 . S
C543 C544 1.523 . S
C544 C525 1.368 . S
C544 C538 1.368 . S
C544 C543 1.523 . S
C545 C529 1.429 . S
C545 C541 1.429 . S
C545 C546 1.523 . S
C546 C530 1.368 . S
C546 C542 1.368 . S
C546 C545 1.523 . S
H547 C522 0.950 . S
H548 C524 0.950 . S
H549 C525 0.949 . S
H550 C527 0.950 . S
H551 C529 0.950 . S
C552 C553 1.349 . S
C552 C554 1.327 . S
C552 H577 0.950 . S
C553 C552 1.349 . S
C553 C569 1.349 . S
C554 C552 1.327 . S
C554 C573 1.429 . S
C554 H578 0.950 . S
C555 C572 1.574 . S
C555 C574 1.368 . S
C555 H579 0.949 . S
H556 C560 0.949 . S
C557 C558 1.349 . S
C557 C559 1.327 . S
C557 H580 0.950 . S
C558 C557 1.349 . S
C558 C570 1.349 . S
C559 C557 1.327 . S
C559 C575 1.429 . S
C559 H581 0.950 . S
C560 H556 0.949 . S
C560 C568 1.574 . S
C560 C576 1.368 . S
H561 C569 0.950 . S
H562 C567 0.950 . S
H563 C568 0.949 . S
H564 C570 0.950 . S
H565 C571 0.950 . S
H566 C572 0.949 . S
C567 H562 0.950 . S
C567 C569 1.327 . S
C567 C573 1.429 . S
C568 C560 1.574 . S
C568 H563 0.949 . S
C568 C574 1.368 . S
C569 C553 1.349 . S
C569 H561 0.950 . S
C569 C567 1.327 . S
C570 C558 1.349 . S
C570 H564 0.950 . S
C570 C571 1.327 . S
C571 H565 0.950 . S
C571 C570 1.327 . S
C571 C575 1.429 . S
C572 C555 1.574 . S
C572 H566 0.949 . S
C572 C576 1.368 . S
C573 C554 1.429 . S
C573 C567 1.429 . S
C573 C574 1.523 . S
C574 C555 1.368 . S
C574 C568 1.368 . S
C574 C573 1.523 . S
C575 C559 1.429 . S
C575 C571 1.429 . S
C575 C576 1.523 . S
C576 C560 1.368 . S
C576 C572 1.368 . S
C576 C575 1.523 . S
H577 C552 0.950 . S
H578 C554 0.950 . S
H579 C555 0.949 . S
H580 C557 0.950 . S
H581 C559 0.950 . S
C582 C583 1.349 . S
C582 C584 1.327 . S
C582 H607 0.950 . S
C583 C582 1.349 . S
C583 C599 1.349 . S
C584 C582 1.327 . S
C584 C603 1.429 . S
C584 H608 0.950 . S
C585 C602 1.574 . S
C585 C604 1.368 . S
C585 H609 0.949 . S
H586 C590 0.949 . S
C587 C588 1.349 . S
C587 C589 1.327 . S
C587 H610 0.950 . S
C588 C587 1.349 . S
C588 C600 1.349 . S
C589 C587 1.327 . S
C589 C605 1.429 . S
C589 H611 0.950 . S
C590 H586 0.949 . S
C590 C598 1.574 . S
C590 C606 1.368 . S
H591 C599 0.950 . S
H592 C597 0.950 . S
H593 C598 0.949 . S
H594 C600 0.950 . S
H595 C601 0.950 . S
H596 C602 0.949 . S
C597 H592 0.950 . S
C597 C599 1.327 . S
C597 C603 1.429 . S
C598 C590 1.574 . S
C598 H593 0.949 . S
C598 C604 1.368 . S
C599 C583 1.349 . S
C599 H591 0.950 . S
C599 C597 1.327 . S
C600 C588 1.349 . S
C600 H594 0.950 . S
C600 C601 1.327 . S
C601 H595 0.950 . S
C601 C600 1.327 . S
C601 C605 1.429 . S
C602 C585 1.574 . S
C602 H596 0.949 . S
C602 C606 1.368 . S
C603 C584 1.429 . S
C603 C597 1.429 . S
C603 C604 1.523 . S
C604 C585 1.368 . S
C604 C598 1.368 . S
C604 C603 1.523 . S
C605 C589 1.429 . S
C605 C601 1.429 . S
C605 C606 1.523 . S
C606 C590 1.368 . S
C606 C602 1.368 . S
C606 C605 1.523 . S
H607 C582 0.950 . S
H608 C584 0.950 . S
H609 C585 0.949 . S
H610 C587 0.950 . S
H611 C589 0.950 . S
C612 C613 1.349 . S
C612 C614 1.327 . S
C612 H637 0.950 . S
C613 C612 1.349 . S
C613 C629 1.349 . S
C614 C612 1.327 . S
C614 C633 1.429 . S
C614 H638 0.950 . S
C615 C632 1.574 . S
C615 C634 1.368 . S
C615 H639 0.949 . S
H616 C620 0.949 . S
C617 C618 1.349 . S
C617 C619 1.327 . S
C617 H640 0.950 . S
C618 C617 1.349 . S
C618 C630 1.349 . S
C619 C617 1.327 . S
C619 C635 1.429 . S
C619 H641 0.950 . S
C620 H616 0.949 . S
C620 C628 1.574 . S
C620 C636 1.368 . S
H621 C629 0.950 . S
H622 C627 0.950 . S
H623 C628 0.949 . S
H624 C630 0.950 . S
H625 C631 0.950 . S
H626 C632 0.949 . S
C627 H622 0.950 . S
C627 C629 1.327 . S
C627 C633 1.429 . S
C628 C620 1.574 . S
C628 H623 0.949 . S
C628 C634 1.368 . S
C629 C613 1.349 . S
C629 H621 0.950 . S
C629 C627 1.327 . S
C630 C618 1.349 . S
C630 H624 0.950 . S
C630 C631 1.327 . S
C631 H625 0.950 . S
C631 C630 1.327 . S
C631 C635 1.429 . S
C632 C615 1.574 . S
C632 H626 0.949 . S
C632 C636 1.368 . S
C633 C614 1.429 . S
C633 C627 1.429 . S
C633 C634 1.523 . S
C634 C615 1.368 . S
C634 C628 1.368 . S
C634 C633 1.523 . S
C635 C619 1.429 . S
C635 C631 1.429 . S
C635 C636 1.523 . S
C636 C620 1.368 . S
C636 C632 1.368 . S
C636 C635 1.523 . S
H637 C612 0.950 . S
H638 C614 0.950 . S
H639 C615 0.949 . S
H640 C617 0.950 . S
H641 C619 0.950 . S
C642 C643 1.349 . S
C642 C644 1.327 . S
C642 H667 0.950 . S
C643 C642 1.349 . S
C643 C659 1.349 . S
C644 C642 1.327 . S
C644 C663 1.429 . S
C644 H668 0.950 . S
C645 C662 1.574 . S
C645 C664 1.368 . S
C645 H669 0.949 . S
H646 C650 0.949 . S
C647 C648 1.349 . S
C647 C649 1.327 . S
C647 H670 0.950 . S
C648 C647 1.349 . S
C648 C660 1.349 . S
C649 C647 1.327 . S
C649 C665 1.429 . S
C649 H671 0.950 . S
C650 H646 0.949 . S
C650 C658 1.574 . S
C650 C666 1.368 . S
H651 C659 0.950 . S
H652 C657 0.950 . S
H653 C658 0.949 . S
H654 C660 0.950 . S
H655 C661 0.950 . S
H656 C662 0.949 . S
C657 H652 0.950 . S
C657 C659 1.327 . S
C657 C663 1.429 . S
C658 C650 1.574 . S
C658 H653 0.949 . S
C658 C664 1.368 . S
C659 C643 1.349 . S
C659 H651 0.950 . S
C659 C657 1.327 . S
C660 C648 1.349 . S
C660 H654 0.950 . S
C660 C661 1.327 . S
C661 H655 0.950 . S
C661 C660 1.327 . S
C661 C665 1.429 . S
C662 C645 1.574 . S
C662 H656 0.949 . S
C662 C666 1.368 . S
C663 C644 1.429 . S
C663 C657 1.429 . S
C663 C664 1.523 . S
C664 C645 1.368 . S
C664 C658 1.368 . S
C664 C663 1.523 . S
C665 C649 1.429 . S
C665 C661 1.429 . S
C665 C666 1.523 . S
C666 C650 1.368 . S
C666 C662 1.368 . S
C666 C665 1.523 . S
H667 C642 0.950 . S
H668 C644 0.950 . S
H669 C645 0.949 . S
H670 C647 0.950 . S
H671 C649 0.950 . S
C672 C673 1.349 . S
C672 C674 1.327 . S
C672 H697 0.950 . S
C673 C672 1.349 . S
C673 C689 1.349 . S
C674 C672 1.327 . S
C674 C693 1.429 . S
C674 H698 0.950 . S
C675 C692 1.574 . S
C675 C694 1.368 . S
C675 H699 0.949 . S
H676 C680 0.949 . S
C677 C678 1.349 . S
C677 C679 1.327 . S
C677 H700 0.950 . S
C678 C677 1.349 . S
C678 C690 1.349 . S
C679 C677 1.327 . S
C679 C695 1.429 . S
C679 H701 0.950 . S
C680 H676 0.949 . S
C680 C688 1.574 . S
C680 C696 1.368 . S
H681 C689 0.950 . S
H682 C687 0.950 . S
H683 C688 0.949 . S
H684 C690 0.950 . S
H685 C691 0.950 . S
H686 C692 0.949 . S
C687 H682 0.950 . S
C687 C689 1.327 . S
C687 C693 1.429 . S
C688 C680 1.574 . S
C688 H683 0.949 . S
C688 C694 1.368 . S
C689 C673 1.349 . S
C689 H681 0.950 . S
C689 C687 1.327 . S
C690 C678 1.349 . S
C690 H684 0.950 . S
C690 C691 1.327 . S
C691 H685 0.950 . S
C691 C690 1.327 . S
C691 C695 1.429 . S
C692 C675 1.574 . S
C692 H686 0.949 . S
C692 C696 1.368 . S
C693 C674 1.429 . S
C693 C687 1.429 . S
C693 C694 1.523 . S
C694 C675 1.368 . S
C694 C688 1.368 . S
C694 C693 1.523 . S
C695 C679 1.429 . S
C695 C691 1.429 . S
C695 C696 1.523 . S
C696 C680 1.368 . S
C696 C692 1.368 . S
C696 C695 1.523 . S
H697 C672 0.950 . S
H698 C674 0.950 . S
H699 C675 0.949 . S
H700 C677 0.950 . S
H701 C679 0.950 . S
C702 C703 1.349 . S
C702 C704 1.327 . S
C702 H727 0.950 . S
C703 C702 1.349 . S
C703 C719 1.349 . S
C704 C702 1.327 . S
C704 C723 1.429 . S
C704 H728 0.950 . S
C705 C722 1.574 . S
C705 C724 1.368 . S
C705 H729 0.949 . S
H706 C710 0.949 . S
C707 C708 1.349 . S
C707 C709 1.327 . S
C707 H730 0.950 . S
C708 C707 1.349 . S
C708 C720 1.349 . S
C709 C707 1.327 . S
C709 C725 1.429 . S
C709 H731 0.950 . S
C710 H706 0.949 . S
C710 C718 1.574 . S
C710 C726 1.368 . S
H711 C719 0.950 . S
H712 C717 0.950 . S
H713 C718 0.949 . S
H714 C720 0.950 . S
H715 C721 0.950 . S
H716 C722 0.949 . S
C717 H712 0.950 . S
C717 C719 1.327 . S
C717 C723 1.429 . S
C718 C710 1.574 . S
C718 H713 0.949 . S
C718 C724 1.368 . S
C719 C703 1.349 . S
C719 H711 0.950 . S
C719 C717 1.327 . S
C720 C708 1.349 . S
C720 H714 0.950 . S
C720 C721 1.327 . S
C721 H715 0.950 . S
C721 C720 1.327 . S
C721 C725 1.429 . S
C722 C705 1.574 . S
C722 H716 0.949 . S
C722 C726 1.368 . S
C723 C704 1.429 . S
C723 C717 1.429 . S
C723 C724 1.523 . S
C724 C705 1.368 . S
C724 C718 1.368 . S
C724 C723 1.523 . S
C725 C709 1.429 . S
C725 C721 1.429 . S
C725 C726 1.523 . S
C726 C710 1.368 . S
C726 C722 1.368 . S
C726 C725 1.523 . S
H727 C702 0.950 . S
H728 C704 0.950 . S
H729 C705 0.949 . S
H730 C707 0.950 . S
H731 C709 0.950 . S
C732 C733 1.349 . S
C732 C734 1.327 . S
C732 H757 0.950 . S
C733 C732 1.349 . S
C733 C749 1.349 . S
C734 C732 1.327 . S
C734 C753 1.429 . S
C734 H758 0.950 . S
C735 C752 1.574 . S
C735 C754 1.368 . S
C735 H759 0.949 . S
H736 C740 0.949 . S
C737 C738 1.349 . S
C737 C739 1.327 . S
C737 H760 0.950 . S
C738 C737 1.349 . S
C738 C750 1.349 . S
C739 C737 1.327 . S
C739 C755 1.429 . S
C739 H761 0.950 . S
C740 H736 0.949 . S
C740 C748 1.574 . S
C740 C756 1.368 . S
H741 C749 0.950 . S
H742 C747 0.950 . S
H743 C748 0.949 . S
H744 C750 0.950 . S
H745 C751 0.950 . S
H746 C752 0.949 . S
C747 H742 0.950 . S
C747 C749 1.327 . S
C747 C753 1.429 . S
C748 C740 1.574 . S
C748 H743 0.949 . S
C748 C754 1.368 . S
C749 C733 1.349 . S
C749 H741 0.950 . S
C749 C747 1.327 . S
C750 C738 1.349 . S
C750 H744 0.950 . S
C750 C751 1.327 . S
C751 H745 0.950 . S
C751 C750 1.327 . S
C751 C755 1.429 . S
C752 C735 1.574 . S
C752 H746 0.949 . S
C752 C756 1.368 . S
C753 C734 1.429 . S
C753 C747 1.429 . S
C753 C754 1.523 . S
C754 C735 1.368 . S
C754 C748 1.368 . S
C754 C753 1.523 . S
C755 C739 1.429 . S
C755 C751 1.429 . S
C755 C756 1.523 . S
C756 C740 1.368 . S
C756 C752 1.368 . S
C756 C755 1.523 . S
H757 C732 0.950 . S
H758 C734 0.950 . S
H759 C735 0.949 . S
H760 C737 0.950 . S
H761 C739 0.950 . S
C762 C763 1.349 . S
C762 C764 1.327 . S
C762 H787 0.950 . S
C763 C762 1.349 . S
C763 C779 1.349 . S
C764 C762 1.327 . S
C764 C783 1.429 . S
C764 H788 0.950 . S
C765 C782 1.574 . S
C765 C784 1.368 . S
C765 H789 0.949 . S
H766 C770 0.949 . S
C767 C768 1.349 . S
C767 C769 1.327 . S
C767 H790 0.950 . S
C768 C767 1.349 . S
C768 C780 1.349 . S
C769 C767 1.327 . S
C769 C785 1.429 . S
C769 H791 0.950 . S
C770 H766 0.949 . S
C770 C778 1.574 . S
C770 C786 1.368 . S
H771 C779 0.950 . S
H772 C777 0.950 . S
H773 C778 0.949 . S
H774 C780 0.950 . S
H775 C781 0.950 . S
H776 C782 0.949 . S
C777 H772 0.950 . S
C777 C779 1.327 . S
C777 C783 1.429 . S
C778 C770 1.574 . S
C778 H773 0.949 . S
C778 C784 1.368 . S
C779 C763 1.349 . S
C779 H771 0.950 . S
C779 C777 1.327 . S
C780 C768 1.349 . S
C780 H774 0.950 . S
C780 C781 1.327 . S
C781 H775 0.950 . S
C781 C780 1.327 . S
C781 C785 1.429 . S
C782 C765 1.574 . S
C782 H776 0.949 . S
C782 C786 1.368 . S
C783 C764 1.429 . S
C783 C777 1.429 . S
C783 C784 1.523 . S
C784 C765 1.368 . S
C784 C778 1.368 . S
C784 C783 1.523 . S
C785 C769 1.429 . S
C785 C781 1.429 . S
C785 C786 1.523 . S
C786 C770 1.368 . S
C786 C782 1.368 . S
C786 C785 1.523 . S
H787 C762 0.950 . S
H788 C764 0.950 . S
H789 C765 0.949 . S
H790 C767 0.950 . S
H791 C769 0.950 . S
C792 C793 1.349 . S
C792 C794 1.327 . S
C792 H817 0.950 1_554 S
C793 C792 1.349 . S
C793 C809 1.349 . S
C794 C792 1.327 . S
C794 C813 1.429 . S
C794 H818 0.902 1_554 S
C795 C812 1.574 . S
C795 C814 1.368 . S
C795 H819 0.949 . S
H796 C800 0.949 . S
C797 C798 1.349 . S
C797 C799 1.327 . S
C797 H820 0.950 . S
C798 C797 1.349 . S
C798 C810 1.349 . S
C799 C797 1.327 . S
C799 C815 1.429 . S
C799 H821 0.950 . S
C800 H796 0.949 . S
C800 C808 1.574 . S
C800 C816 1.368 . S
H801 C809 0.950 . S
H802 C807 0.950 . S
H803 C808 0.949 . S
H804 C810 0.950 . S
H805 C811 0.950 . S
H806 C812 0.949 . S
C807 H802 0.950 . S
C807 C809 1.327 . S
C807 C813 1.429 . S
C808 C800 1.574 . S
C808 H803 0.949 . S
C808 C814 1.368 . S
C809 C793 1.349 . S
C809 H801 0.950 . S
C809 C807 1.327 . S
C810 C798 1.349 . S
C810 H804 0.950 . S
C810 C811 1.327 . S
C811 H805 0.950 . S
C811 C810 1.327 . S
C811 C815 1.429 . S
C812 C795 1.574 . S
C812 H806 0.949 . S
C812 C816 1.368 . S
C813 C794 1.429 . S
C813 C807 1.429 . S
C813 C814 1.523 . S
C814 C795 1.368 . S
C814 C808 1.368 . S
C814 C813 1.523 . S
C815 C799 1.429 . S
C815 C811 1.429 . S
C815 C816 1.523 . S
C816 C800 1.368 . S
C816 C812 1.368 . S
C816 C815 1.523 . S
H817 C792 0.950 1_556 S
H818 C794 0.902 1_556 S
H819 C795 0.949 . S
H820 C797 0.950 . S
H821 C799 0.950 . S
C822 C823 1.349 . S
C822 C824 1.327 . S
C822 H847 0.950 . S
C823 C822 1.349 . S
C823 C839 1.349 . S
C824 C822 1.327 . S
C824 C843 1.429 . S
C824 H848 0.950 . S
C825 C842 1.574 . S
C825 C844 1.368 . S
C825 H849 0.949 . S
H826 C830 0.949 . S
C827 C828 1.349 . S
C827 C829 1.327 . S
C827 H850 0.950 . S
C828 C827 1.349 . S
C828 C840 1.349 . S
C829 C827 1.327 . S
C829 C845 1.429 . S
C829 H851 0.950 . S
C830 H826 0.949 . S
C830 C838 1.574 . S
C830 C846 1.368 . S
H831 C839 0.950 . S
H832 C837 0.950 . S
H833 C838 0.949 . S
H834 C840 0.950 . S
H835 C841 0.950 . S
H836 C842 0.949 . S
C837 H832 0.950 . S
C837 C839 1.327 . S
C837 C843 1.429 . S
C838 C830 1.574 . S
C838 H833 0.949 . S
C838 C844 1.368 . S
C839 C823 1.349 . S
C839 H831 0.950 . S
C839 C837 1.327 . S
C840 C828 1.349 . S
C840 H834 0.950 . S
C840 C841 1.327 . S
C841 H835 0.950 . S
C841 C840 1.327 . S
C841 C845 1.429 . S
C842 C825 1.574 . S
C842 H836 0.949 . S
C842 C846 1.368 . S
C843 C824 1.429 . S
C843 C837 1.429 . S
C843 C844 1.523 . S
C844 C825 1.368 . S
C844 C838 1.368 . S
C844 C843 1.523 . S
C845 C829 1.429 . S
C845 C841 1.429 . S
C845 C846 1.523 . S
C846 C830 1.368 . S
C846 C842 1.368 . S
C846 C845 1.523 . S
H847 C822 0.950 . S
H848 C824 0.950 . S
H849 C825 0.949 . S
H850 C827 0.950 . S
H851 C829 0.950 . S
C852 C853 1.349 . S
C852 C854 1.327 . S
C852 H877 0.950 . S
C853 C852 1.349 . S
C853 C869 1.349 . S
C854 C852 1.327 . S
C854 C873 1.429 . S
C854 H878 0.950 . S
C855 C872 1.574 . S
C855 C874 1.368 . S
C855 H879 0.949 . S
H856 C860 0.949 . S
C857 C858 1.349 . S
C857 C859 1.327 . S
C857 H880 0.950 . S
C858 C857 1.349 . S
C858 C870 1.349 . S
C859 C857 1.327 . S
C859 C875 1.429 . S
C859 H881 0.950 . S
C860 H856 0.949 . S
C860 C868 1.574 . S
C860 C876 1.368 . S
H861 C869 0.950 . S
H862 C867 0.950 . S
H863 C868 0.949 . S
H864 C870 0.950 . S
H865 C871 0.950 . S
H866 C872 0.949 . S
C867 H862 0.950 . S
C867 C869 1.327 . S
C867 C873 1.429 . S
C868 C860 1.574 . S
C868 H863 0.949 . S
C868 C874 1.368 . S
C869 C853 1.349 . S
C869 H861 0.950 . S
C869 C867 1.327 . S
C870 C858 1.349 . S
C870 H864 0.950 . S
C870 C871 1.327 . S
C871 H865 0.950 . S
C871 C870 1.327 . S
C871 C875 1.429 . S
C872 C855 1.574 . S
C872 H866 0.949 . S
C872 C876 1.368 . S
C873 C854 1.429 . S
C873 C867 1.429 . S
C873 C874 1.523 . S
C874 C855 1.368 . S
C874 C868 1.368 . S
C874 C873 1.523 . S
C875 C859 1.429 . S
C875 C871 1.429 . S
C875 C876 1.523 . S
C876 C860 1.368 . S
C876 C872 1.368 . S
C876 C875 1.523 . S
H877 C852 0.950 . S
H878 C854 0.950 . S
H879 C855 0.949 . S
H880 C857 0.950 . S
H881 C859 0.950 . S
C882 C883 1.349 . S
C882 C884 1.327 . S
C882 H907 0.950 . S
C883 C882 1.349 . S
C883 C899 1.349 . S
C884 C882 1.327 . S
C884 C903 1.429 . S
C884 H908 0.950 . S
C885 C902 1.574 . S
C885 C904 1.368 . S
C885 H909 0.949 . S
H886 C890 0.949 . S
C887 C888 1.349 . S
C887 C889 1.327 . S
C887 H910 0.950 . S
C888 C887 1.349 . S
C888 C900 1.349 . S
C889 C887 1.327 . S
C889 C905 1.429 . S
C889 H911 0.950 . S
C890 H886 0.949 . S
C890 C898 1.574 . S
C890 C906 1.368 . S
H891 C899 0.950 . S
H892 C897 0.950 . S
H893 C898 0.949 . S
H894 C900 0.950 . S
H895 C901 0.950 . S
H896 C902 0.949 . S
C897 H892 0.950 . S
C897 C899 1.327 . S
C897 C903 1.429 . S
C898 C890 1.574 . S
C898 H893 0.949 . S
C898 C904 1.368 . S
C899 C883 1.349 . S
C899 H891 0.950 . S
C899 C897 1.327 . S
C900 C888 1.349 . S
C900 H894 0.950 . S
C900 C901 1.327 . S
C901 H895 0.950 . S
C901 C900 1.327 . S
C901 C905 1.429 . S
C902 C885 1.574 . S
C902 H896 0.949 . S
C902 C906 1.368 . S
C903 C884 1.429 . S
C903 C897 1.429 . S
C903 C904 1.523 . S
C904 C885 1.368 . S
C904 C898 1.368 . S
C904 C903 1.523 . S
C905 C889 1.429 . S
C905 C901 1.429 . S
C905 C906 1.523 . S
C906 C890 1.368 . S
C906 C902 1.368 . S
C906 C905 1.523 . S
H907 C882 0.950 . S
H908 C884 0.950 . S
H909 C885 0.949 . S
H910 C887 0.950 . S
H911 C889 0.950 . S
C912 C913 1.349 . S
C912 C914 1.327 . S
C912 H937 0.950 . S
C913 C912 1.349 . S
C913 C929 1.349 . S
C914 C912 1.327 . S
C914 C933 1.429 . S
C914 H938 0.950 . S
C915 C932 1.574 . S
C915 C934 1.368 . S
C915 H939 0.949 . S
H916 C920 0.949 . S
C917 C918 1.349 . S
C917 C919 1.327 . S
C917 H940 0.950 . S
C918 C917 1.349 . S
C918 C930 1.349 . S
C919 C917 1.327 . S
C919 C935 1.429 . S
C919 H941 0.950 . S
C920 H916 0.949 . S
C920 C928 1.574 . S
C920 C936 1.368 . S
H921 C929 0.950 . S
H922 C927 0.950 . S
H923 C928 0.949 . S
H924 C930 0.950 . S
H925 C931 0.950 . S
H926 C932 0.949 . S
C927 H922 0.950 . S
C927 C929 1.327 . S
C927 C933 1.429 . S
C928 C920 1.574 . S
C928 H923 0.949 . S
C928 C934 1.368 . S
C929 C913 1.349 . S
C929 H921 0.950 . S
C929 C927 1.327 . S
C930 C918 1.349 . S
C930 H924 0.950 . S
C930 C931 1.327 . S
C931 H925 0.950 . S
C931 C930 1.327 . S
C931 C935 1.429 . S
C932 C915 1.574 . S
C932 H926 0.949 . S
C932 C936 1.368 . S
C933 C914 1.429 . S
C933 C927 1.429 . S
C933 C934 1.523 . S
C934 C915 1.368 . S
C934 C928 1.368 . S
C934 C933 1.523 . S
C935 C919 1.429 . S
C935 C931 1.429 . S
C935 C936 1.523 . S
C936 C920 1.368 . S
C936 C932 1.368 . S
C936 C935 1.523 . S
H937 C912 0.950 . S
H938 C914 0.950 . S
H939 C915 0.949 . S
H940 C917 0.950 . S
H941 C919 0.950 . S
C942 C943 1.349 . S
C942 C944 1.327 . S
C942 H967 0.950 . S
C943 C942 1.349 . S
C943 C959 1.349 . S
C944 C942 1.327 . S
C944 C963 1.429 . S
C944 H968 0.950 . S
C945 C962 1.574 . S
C945 C964 1.368 . S
C945 H969 0.949 . S
H946 C950 0.949 . S
C947 C948 1.349 . S
C947 C949 1.327 . S
C947 H970 0.950 . S
C948 C947 1.349 . S
C948 C960 1.349 . S
C949 C947 1.327 . S
C949 C965 1.429 . S
C949 H971 0.950 . S
C950 H946 0.949 . S
C950 C958 1.574 . S
C950 C966 1.368 . S
H951 C959 0.950 . S
H952 C957 0.950 . S
H953 C958 0.949 . S
H954 C960 0.950 . S
H955 C961 0.950 . S
H956 C962 0.949 . S
C957 H952 0.950 . S
C957 C959 1.327 . S
C957 C963 1.429 . S
C958 C950 1.574 . S
C958 H953 0.949 . S
C958 C964 1.368 . S
C959 C943 1.349 . S
C959 H951 0.950 . S
C959 C957 1.327 . S
C960 C948 1.349 . S
C960 H954 0.950 . S
C960 C961 1.327 . S
C961 H955 0.950 . S
C961 C960 1.327 . S
C961 C965 1.429 . S
C962 C945 1.574 . S
C962 H956 0.949 . S
C962 C966 1.368 . S
C963 C944 1.429 . S
C963 C957 1.429 . S
C963 C964 1.523 . S
C964 C945 1.368 . S
C964 C958 1.368 . S
C964 C963 1.523 . S
C965 C949 1.429 . S
C965 C961 1.429 . S
C965 C966 1.523 . S
C966 C950 1.368 . S
C966 C962 1.368 . S
C966 C965 1.523 . S
H967 C942 0.950 . S
H968 C944 0.950 . S
H969 C945 0.949 . S
H970 C947 0.950 . S
H971 C949 0.950 . S
C972 C973 1.349 . S
C972 C974 1.327 . S
C972 H997 0.950 . S
C973 C972 1.349 . S
C973 C989 1.349 . S
C974 C972 1.327 . S
C974 C993 1.429 . S
C974 H998 0.950 . S
C975 C992 1.574 . S
C975 C994 1.368 . S
C975 H999 0.949 . S
H976 C980 0.949 . S
C977 C978 1.349 . S
C977 C979 1.327 . S
C977 H1000 0.950 . S
C978 C977 1.349 . S
C978 C990 1.349 . S
C979 C977 1.327 . S
C979 C995 1.429 1_554 S
C979 H1001 0.950 . S
C980 H976 0.949 . S
C980 C988 1.574 . S
C980 C996 1.368 . S
H981 C989 0.950 . S
H982 C987 0.950 . S
H983 C988 0.949 . S
H984 C990 0.950 . S
H985 C991 0.950 . S
H986 C992 0.949 . S
C987 H982 0.950 . S
C987 C989 1.327 . S
C987 C993 1.429 . S
C988 C980 1.574 . S
C988 H983 0.949 . S
C988 C994 1.368 . S
C989 C973 1.349 . S
C989 H981 0.950 . S
C989 C987 1.327 . S
C990 C978 1.349 . S
C990 H984 0.950 . S
C990 C991 1.327 1_554 S
C991 H985 0.950 . S
C991 C990 1.327 1_556 S
C991 C995 1.429 . S
C992 C975 1.574 . S
C992 H986 0.949 . S
C992 C996 1.368 . S
C993 C974 1.429 . S
C993 C987 1.429 . S
C993 C994 1.523 . S
C994 C975 1.368 . S
C994 C988 1.368 . S
C994 C993 1.523 . S
C995 C979 1.429 1_556 S
C995 C991 1.429 . S
C995 C996 1.523 . S
C996 C980 1.368 . S
C996 C992 1.368 . S
C996 C995 1.523 . S
H997 C972 0.950 . S
H998 C974 0.950 . S
H999 C975 0.949 . S
H1000 C977 0.950 . S
H1001 C979 0.950 . S
C1002 C1003 1.349 . S
C1002 C1004 1.327 . S
C1002 H1027 0.950 . S
C1003 C1002 1.349 . S
C1003 C1019 1.353 1_545 S
C1004 C1002 1.327 . S
C1004 C1023 1.387 1_545 S
C1004 H1028 0.950 . S
C1005 C1022 1.574 . S
C1005 C1024 1.368 . S
C1005 H1029 0.949 . S
H1006 C1010 0.949 . S
C1007 C1008 1.349 . S
C1007 C1009 1.327 . S
C1007 H1030 0.950 . S
C1008 C1007 1.349 . S
C1008 C1020 1.349 . S
C1009 C1007 1.327 . S
C1009 C1025 1.429 . S
C1009 H1031 0.950 . S
C1010 H1006 0.949 . S
C1010 C1018 1.568 1_565 S
C1010 C1026 1.368 . S
H1011 C1019 0.947 . S
H1012 C1017 0.950 . S
H1013 C1018 0.962 . S
H1014 C1020 0.950 . S
H1015 C1021 0.950 . S
H1016 C1022 0.949 . S
C1017 H1012 0.950 . S
C1017 C1019 1.325 . S
C1017 C1023 1.450 . S
C1018 C1010 1.568 1_545 S
C1018 H1013 0.962 . S
C1018 C1024 1.360 1_545 S
C1019 C1003 1.353 1_565 S
C1019 H1011 0.947 . S
C1019 C1017 1.325 . S
C1020 C1008 1.349 . S
C1020 H1014 0.950 . S
C1020 C1021 1.327 . S
C1021 H1015 0.950 . S
C1021 C1020 1.327 . S
C1021 C1025 1.429 . S
C1022 C1005 1.574 . S
C1022 H1016 0.949 . S
C1022 C1026 1.368 . S
C1023 C1004 1.387 1_565 S
C1023 C1017 1.450 . S
C1023 C1024 1.543 . S
C1024 C1005 1.368 . S
C1024 C1018 1.360 1_565 S
C1024 C1023 1.543 . S
C1025 C1009 1.429 . S
C1025 C1021 1.429 . S
C1025 C1026 1.523 . S
C1026 C1010 1.368 . S
C1026 C1022 1.368 . S
C1026 C1025 1.523 . S
H1027 C1002 0.950 . S
H1028 C1004 0.950 . S
H1029 C1005 0.949 . S
H1030 C1007 0.950 . S
H1031 C1009 0.950 . S
C1032 C1033 1.349 . S
C1032 C1034 1.327 . S
C1032 H1057 0.950 . S
C1033 C1032 1.349 . S
C1033 C1049 1.349 . S
C1034 C1032 1.327 . S
C1034 C1053 1.429 . S
C1034 H1058 0.950 . S
C1035 C1052 1.574 . S
C1035 C1054 1.368 . S
C1035 H1059 0.949 . S
H1036 C1040 0.949 . S
C1037 C1038 1.349 . S
C1037 C1039 1.327 . S
C1037 H1060 0.950 . S
C1038 C1037 1.349 . S
C1038 C1050 1.349 . S
C1039 C1037 1.327 . S
C1039 C1055 1.429 . S
C1039 H1061 0.950 . S
C1040 H1036 0.949 . S
C1040 C1048 1.574 . S
C1040 C1056 1.368 . S
H1041 C1049 0.950 . S
H1042 C1047 0.950 . S
H1043 C1048 0.949 . S
H1044 C1050 0.950 . S
H1045 C1051 0.950 . S
H1046 C1052 0.949 . S
C1047 H1042 0.950 . S
C1047 C1049 1.327 . S
C1047 C1053 1.429 . S
C1048 C1040 1.574 . S
C1048 H1043 0.949 . S
C1048 C1054 1.368 . S
C1049 C1033 1.349 . S
C1049 H1041 0.950 . S
C1049 C1047 1.327 . S
C1050 C1038 1.349 . S
C1050 H1044 0.950 . S
C1050 C1051 1.327 . S
C1051 H1045 0.950 . S
C1051 C1050 1.327 . S
C1051 C1055 1.429 . S
C1052 C1035 1.574 . S
C1052 H1046 0.949 . S
C1052 C1056 1.368 . S
C1053 C1034 1.429 . S
C1053 C1047 1.429 . S
C1053 C1054 1.523 . S
C1054 C1035 1.368 . S
C1054 C1048 1.368 . S
C1054 C1053 1.523 . S
C1055 C1039 1.429 . S
C1055 C1051 1.429 . S
C1055 C1056 1.523 . S
C1056 C1040 1.368 . S
C1056 C1052 1.368 . S
C1056 C1055 1.523 . S
H1057 C1032 0.950 . S
H1058 C1034 0.950 . S
H1059 C1035 0.949 . S
H1060 C1037 0.950 . S
H1061 C1039 0.950 . S
C1062 C1063 1.349 1_545 S
C1062 C1064 1.327 . S
C1062 H1087 0.950 . S
C1063 C1062 1.349 1_565 S
C1063 C1079 1.349 . S
C1064 C1062 1.327 . S
C1064 C1083 1.429 1_545 S
C1064 H1088 0.950 . S
C1065 C1082 1.574 . S
C1065 C1084 1.368 . S
C1065 H1089 0.949 . S
H1066 C1070 0.949 . S
C1067 C1068 1.349 . S
C1067 C1069 1.327 . S
C1067 H1090 0.950 . S
C1068 C1067 1.349 . S
C1068 C1080 1.349 . S
C1069 C1067 1.327 . S
C1069 C1085 1.429 . S
C1069 H1091 0.950 . S
C1070 H1066 0.949 . S
C1070 C1078 1.574 . S
C1070 C1086 1.368 . S
H1071 C1079 0.950 . S
H1072 C1077 0.950 . S
H1073 C1078 0.949 1_545 S
H1074 C1080 0.950 . S
H1075 C1081 0.950 . S
H1076 C1082 0.949 . S
C1077 H1072 0.950 . S
C1077 C1079 1.327 . S
C1077 C1083 1.429 . S
C1078 C1070 1.574 . S
C1078 H1073 0.949 1_565 S
C1078 C1084 1.368 . S
C1079 C1063 1.349 . S
C1079 H1071 0.950 . S
C1079 C1077 1.327 . S
C1080 C1068 1.349 . S
C1080 H1074 0.950 . S
C1080 C1081 1.327 . S
C1081 H1075 0.950 . S
C1081 C1080 1.327 . S
C1081 C1085 1.429 . S
C1082 C1065 1.574 . S
C1082 H1076 0.949 . S
C1082 C1086 1.368 . S
C1083 C1064 1.429 1_565 S
C1083 C1077 1.429 . S
C1083 C1084 1.523 . S
C1084 C1065 1.368 . S
C1084 C1078 1.368 . S
C1084 C1083 1.523 . S
C1085 C1069 1.429 . S
C1085 C1081 1.429 . S
C1085 C1086 1.523 . S
C1086 C1070 1.368 . S
C1086 C1082 1.368 . S
C1086 C1085 1.523 . S
H1087 C1062 0.950 . S
H1088 C1064 0.950 . S
H1089 C1065 0.949 . S
H1090 C1067 0.950 . S
H1091 C1069 0.950 . S
C1092 C1093 1.349 . S
C1092 C1094 1.327 . S
C1092 H1117 0.950 . S
C1093 C1092 1.349 . S
C1093 C1109 1.349 . S
C1094 C1092 1.327 . S
C1094 C1113 1.429 . S
C1094 H1118 0.950 . S
C1095 C1112 1.574 . S
C1095 C1114 1.368 . S
C1095 H1119 0.949 . S
H1096 C1100 0.949 . S
C1097 C1098 1.349 . S
C1097 C1099 1.327 . S
C1097 H1120 0.950 . S
C1098 C1097 1.349 . S
C1098 C1110 1.349 . S
C1099 C1097 1.327 . S
C1099 C1115 1.429 . S
C1099 H1121 0.950 . S
C1100 H1096 0.949 . S
C1100 C1108 1.574 . S
C1100 C1116 1.368 . S
H1101 C1109 0.950 . S
H1102 C1107 0.950 . S
H1103 C1108 0.949 . S
H1104 C1110 0.950 . S
H1105 C1111 0.950 . S
H1106 C1112 0.949 . S
C1107 H1102 0.950 . S
C1107 C1109 1.327 . S
C1107 C1113 1.429 . S
C1108 C1100 1.574 . S
C1108 H1103 0.949 . S
C1108 C1114 1.368 . S
C1109 C1093 1.349 . S
C1109 H1101 0.950 . S
C1109 C1107 1.327 . S
C1110 C1098 1.349 . S
C1110 H1104 0.950 . S
C1110 C1111 1.327 . S
C1111 H1105 0.950 . S
C1111 C1110 1.327 . S
C1111 C1115 1.429 . S
C1112 C1095 1.574 . S
C1112 H1106 0.949 . S
C1112 C1116 1.368 . S
C1113 C1094 1.429 . S
C1113 C1107 1.429 . S
C1113 C1114 1.523 . S
C1114 C1095 1.368 . S
C1114 C1108 1.368 . S
C1114 C1113 1.523 . S
C1115 C1099 1.429 . S
C1115 C1111 1.429 . S
C1115 C1116 1.523 . S
C1116 C1100 1.368 . S
C1116 C1112 1.368 . S
C1116 C1115 1.523 . S
H1117 C1092 0.950 . S
H1118 C1094 0.950 . S
H1119 C1095 0.949 . S
H1120 C1097 0.950 . S
H1121 C1099 0.950 . S
C1122 C1123 1.349 . S
C1122 C1124 1.327 . S
C1122 H1147 0.950 . S
C1123 C1122 1.349 . S
C1123 C1139 1.349 . S
C1124 C1122 1.327 . S
C1124 C1143 1.429 . S
C1124 H1148 0.950 . S
C1125 C1142 1.574 . S
C1125 C1144 1.368 . S
C1125 H1149 0.949 . S
H1126 C1130 0.949 . S
C1127 C1128 1.349 . S
C1127 C1129 1.327 . S
C1127 H1150 0.950 . S
C1128 C1127 1.349 . S
C1128 C1140 1.349 . S
C1129 C1127 1.327 . S
C1129 C1145 1.429 . S
C1129 H1151 0.950 . S
C1130 H1126 0.949 . S
C1130 C1138 1.574 . S
C1130 C1146 1.368 . S
H1131 C1139 0.950 . S
H1132 C1137 0.950 . S
H1133 C1138 0.949 . S
H1134 C1140 0.950 . S
H1135 C1141 0.950 . S
H1136 C1142 0.949 . S
C1137 H1132 0.950 . S
C1137 C1139 1.327 . S
C1137 C1143 1.429 . S
C1138 C1130 1.574 . S
C1138 H1133 0.949 . S
C1138 C1144 1.368 . S
C1139 C1123 1.349 . S
C1139 H1131 0.950 . S
C1139 C1137 1.327 . S
C1140 C1128 1.349 . S
C1140 H1134 0.950 . S
C1140 C1141 1.327 . S
C1141 H1135 0.950 . S
C1141 C1140 1.327 . S
C1141 C1145 1.429 . S
C1142 C1125 1.574 . S
C1142 H1136 0.949 . S
C1142 C1146 1.368 . S
C1143 C1124 1.429 . S
C1143 C1137 1.429 . S
C1143 C1144 1.523 . S
C1144 C1125 1.368 . S
C1144 C1138 1.368 . S
C1144 C1143 1.523 . S
C1145 C1129 1.429 . S
C1145 C1141 1.429 . S
C1145 C1146 1.523 . S
C1146 C1130 1.368 . S
C1146 C1142 1.368 . S
C1146 C1145 1.523 . S
H1147 C1122 0.950 . S
H1148 C1124 0.950 . S
H1149 C1125 0.949 . S
H1150 C1127 0.950 . S
H1151 C1129 0.950 . S
C1152 C1153 1.349 . S
C1152 C1154 1.327 . S
C1152 H1177 0.950 . S
C1153 C1152 1.349 . S
C1153 C1169 1.349 . S
C1154 C1152 1.327 . S
C1154 C1173 1.429 . S
C1154 H1178 0.950 . S
C1155 C1172 1.574 . S
C1155 C1174 1.368 . S
C1155 H1179 0.949 . S
H1156 C1160 0.949 . S
C1157 C1158 1.349 . S
C1157 C1159 1.327 . S
C1157 H1180 0.950 . S
C1158 C1157 1.349 . S
C1158 C1170 1.349 . S
C1159 C1157 1.327 . S
C1159 C1175 1.429 . S
C1159 H1181 0.950 . S
C1160 H1156 0.949 . S
C1160 C1168 1.574 . S
C1160 C1176 1.368 . S
H1161 C1169 0.950 . S
H1162 C1167 0.950 . S
H1163 C1168 0.949 . S
H1164 C1170 0.950 . S
H1165 C1171 0.950 . S
H1166 C1172 0.949 . S
C1167 H1162 0.950 . S
C1167 C1169 1.327 . S
C1167 C1173 1.429 . S
C1168 C1160 1.574 . S
C1168 H1163 0.949 . S
C1168 C1174 1.368 . S
C1169 C1153 1.349 . S
C1169 H1161 0.950 . S
C1169 C1167 1.327 . S
C1170 C1158 1.349 . S
C1170 H1164 0.950 . S
C1170 C1171 1.327 . S
C1171 H1165 0.950 . S
C1171 C1170 1.327 . S
C1171 C1175 1.429 . S
C1172 C1155 1.574 . S
C1172 H1166 0.949 . S
C1172 C1176 1.368 . S
C1173 C1154 1.429 . S
C1173 C1167 1.429 . S
C1173 C1174 1.523 . S
C1174 C1155 1.368 . S
C1174 C1168 1.368 . S
C1174 C1173 1.523 . S
C1175 C1159 1.429 . S
C1175 C1171 1.429 . S
C1175 C1176 1.523 . S
C1176 C1160 1.368 . S
C1176 C1172 1.368 . S
C1176 C1175 1.523 . S
H1177 C1152 0.950 . S
H1178 C1154 0.950 . S
H1179 C1155 0.949 . S
H1180 C1157 0.950 . S
H1181 C1159 0.950 . S
C1182 C1183 1.349 . S
C1182 C1184 1.327 . S
C1182 H1207 0.950 . S
C1183 C1182 1.349 . S
C1183 C1199 1.349 . S
C1184 C1182 1.327 . S
C1184 C1203 1.429 . S
C1184 H1208 0.950 . S
C1185 C1202 1.574 . S
C1185 C1204 1.368 . S
C1185 H1209 0.949 . S
H1186 C1190 0.949 1_556 S
C1187 C1188 1.349 . S
C1187 C1189 1.327 . S
C1187 H1210 0.950 . S
C1188 C1187 1.349 . S
C1188 C1200 1.349 . S
C1189 C1187 1.327 . S
C1189 C1205 1.429 . S
C1189 H1211 0.950 . S
C1190 H1186 0.949 1_554 S
C1190 C1198 1.574 . S
C1190 C1206 1.368 . S
H1191 C1199 0.950 . S
H1192 C1197 0.950 . S
H1193 C1198 0.949 . S
H1194 C1200 0.950 . S
H1195 C1201 0.950 . S
H1196 C1202 0.949 . S
C1197 H1192 0.950 . S
C1197 C1199 1.327 . S
C1197 C1203 1.429 . S
C1198 C1190 1.574 . S
C1198 H1193 0.949 . S
C1198 C1204 1.368 . S
C1199 C1183 1.349 . S
C1199 H1191 0.950 . S
C1199 C1197 1.327 . S
C1200 C1188 1.349 . S
C1200 H1194 0.950 . S
C1200 C1201 1.327 . S
C1201 H1195 0.950 . S
C1201 C1200 1.327 . S
C1201 C1205 1.429 . S
C1202 C1185 1.574 . S
C1202 H1196 0.949 . S
C1202 C1206 1.368 . S
C1203 C1184 1.429 . S
C1203 C1197 1.429 . S
C1203 C1204 1.523 . S
C1204 C1185 1.368 . S
C1204 C1198 1.368 . S
C1204 C1203 1.523 . S
C1205 C1189 1.429 . S
C1205 C1201 1.429 . S
C1205 C1206 1.523 1_556 S
C1206 C1190 1.368 . S
C1206 C1202 1.368 . S
C1206 C1205 1.523 1_554 S
H1207 C1182 0.950 . S
H1208 C1184 0.950 . S
H1209 C1185 0.949 . S
H1210 C1187 0.950 . S
H1211 C1189 0.950 . S
C1212 C1213 1.349 . S
C1212 C1214 1.327 . S
C1212 H1237 0.950 . S
C1213 C1212 1.349 . S
C1213 C1229 1.349 . S
C1214 C1212 1.327 . S
C1214 C1233 1.429 . S
C1214 H1238 0.950 . S
C1215 C1232 1.574 . S
C1215 C1234 1.368 . S
C1215 H1239 0.949 . S
H1216 C1220 0.949 . S
C1217 C1218 1.349 . S
C1217 C1219 1.327 . S
C1217 H1240 0.950 . S
C1218 C1217 1.349 . S
C1218 C1230 1.349 . S
C1219 C1217 1.327 . S
C1219 C1235 1.429 . S
C1219 H1241 0.950 . S
C1220 H1216 0.949 . S
C1220 C1228 1.574 . S
C1220 C1236 1.368 . S
H1221 C1229 0.950 . S
H1222 C1227 0.950 . S
H1223 C1228 0.949 . S
H1224 C1230 0.950 . S
H1225 C1231 0.950 . S
H1226 C1232 0.949 . S
C1227 H1222 0.950 . S
C1227 C1229 1.327 . S
C1227 C1233 1.429 . S
C1228 C1220 1.574 . S
C1228 H1223 0.949 . S
C1228 C1234 1.368 . S
C1229 C1213 1.349 . S
C1229 H1221 0.950 . S
C1229 C1227 1.327 . S
C1230 C1218 1.349 . S
C1230 H1224 0.950 . S
C1230 C1231 1.327 . S
C1231 H1225 0.950 . S
C1231 C1230 1.327 . S
C1231 C1235 1.429 . S
C1232 C1215 1.574 . S
C1232 H1226 0.949 . S
C1232 C1236 1.368 . S
C1233 C1214 1.429 . S
C1233 C1227 1.429 . S
C1233 C1234 1.523 . S
C1234 C1215 1.368 . S
C1234 C1228 1.368 . S
C1234 C1233 1.523 . S
C1235 C1219 1.429 . S
C1235 C1231 1.429 . S
C1235 C1236 1.523 . S
C1236 C1220 1.368 . S
C1236 C1232 1.368 . S
C1236 C1235 1.523 . S
H1237 C1212 0.950 . S
H1238 C1214 0.950 . S
H1239 C1215 0.949 . S
H1240 C1217 0.950 . S
H1241 C1219 0.950 . S
C528 C514 1.200 . S
C523 C51 1.190 . S
C553 C125 1.517 . S
C558 C449 1.519 . S
C583 C217 2.644 . S
C588 C467 2.657 . S
C613 C291 1.651 . S
C618 C480 1.652 . S
C648 C488 0.574 . S
C643 C347 0.579 . S
C673 C421 0.878 . S
C678 C500 0.880 . S
C703 C143 2.489 . S
C708 C462 2.487 . S
C733 C199 1.367 . S
C738 C475 1.371 . S
C763 C273 0.476 . S
C768 C493 0.466 . S
C798 C499 1.527 . S
C793 C365 1.519 . S
C828 C519 1.911 . S
C823 C439 1.912 . S
C858 C454 2.459 . S
C853 C69 2.444 . S
C883 C63 1.361 . S
C888 C460 1.426 . S
C913 C137 1.611 . S
C918 C473 1.676 . S
C948 C487 1.348 . S
C943 C187 1.319 . S
C973 C261 1.614 . S
C978 C501 1.653 . S
C1008 C513 1.243 . S
C1003 C359 1.190 . S
C1038 C448 1.161 . S
C1033 C433 1.126 . S
C1068 C512 1.792 . S
C1063 C113 1.758 1_565 S
C1093 C211 1.240 . S
C1098 C447 1.282 . S
C1128 C461 1.598 . S
C1123 C285 1.529 . S
C1153 C335 1.212 . S
C1158 C474 1.240 . S
C1183 C409 1.466 . S
C1188 C486 1.506 . S
C1213 C39 1.680 . S
C1218 C506 1.710 . S
