# Generated by pormake.
# Topology pyr, (3,6)-cn, num edge types: 1
# Building blocks:
#     Node 0, Type 0, BuildingBlock: ESEHIV_clean_linker_0, # of connection points: 3
#     Node 1, Type 0, BuildingBlock: ESEHIV_clean_linker_0, # of connection points: 3
#     Node 2, Type 0, BuildingBlock: ESEHIV_clean_linker_0, # of connection points: 3
#     Node 3, Type 0, BuildingBlock: ESEHIV_clean_linker_0, # of connection points: 3
#     Node 4, Type 0, BuildingBlock: ESEHIV_clean_linker_0, # of connection points: 3
#     Node 5, Type 0, BuildingBlock: ESEHIV_clean_linker_0, # of connection points: 3
#     Node 6, Type 0, BuildingBlock: ESEHIV_clean_linker_0, # of connection points: 3
#     Node 7, Type 0, BuildingBlock: ESEHIV_clean_linker_0, # of connection points: 3
#     Node 8, Type 1, BuildingBlock: BETGAK_clean_sbu_0, # of connection points: 6
#     Node 9, Type 1, BuildingBlock: BETGAK_clean_sbu_0, # of connection points: 6
#     Node 10, Type 1, BuildingBlock: BETGAK_clean_sbu_0, # of connection points: 6
#     Node 11, Type 1, BuildingBlock: BETGAK_clean_sbu_0, # of connection points: 6
#     Edge 12, Type (0, 1), BuildingBlock: XUDNAN_clean_linker_2, # of connection points: 2
#     Edge 13, Type (0, 1), BuildingBlock: XUDNAN_clean_linker_2, # of connection points: 2
#     Edge 14, Type (0, 1), BuildingBlock: XUDNAN_clean_linker_2, # of connection points: 2
#     Edge 15, Type (0, 1), BuildingBlock: XUDNAN_clean_linker_2, # of connection points: 2
#     Edge 16, Type (0, 1), BuildingBlock: XUDNAN_clean_linker_2, # of connection points: 2
#     Edge 17, Type (0, 1), BuildingBlock: XUDNAN_clean_linker_2, # of connection points: 2
#     Edge 18, Type (0, 1), BuildingBlock: XUDNAN_clean_linker_2, # of connection points: 2
#     Edge 19, Type (0, 1), BuildingBlock: XUDNAN_clean_linker_2, # of connection points: 2
#     Edge 20, Type (0, 1), BuildingBlock: XUDNAN_clean_linker_2, # of connection points: 2
#     Edge 21, Type (0, 1), BuildingBlock: XUDNAN_clean_linker_2, # of connection points: 2
#     Edge 22, Type (0, 1), BuildingBlock: XUDNAN_clean_linker_2, # of connection points: 2
#     Edge 23, Type (0, 1), BuildingBlock: XUDNAN_clean_linker_2, # of connection points: 2
#     Edge 24, Type (0, 1), BuildingBlock: XUDNAN_clean_linker_2, # of connection points: 2
#     Edge 25, Type (0, 1), BuildingBlock: XUDNAN_clean_linker_2, # of connection points: 2
#     Edge 26, Type (0, 1), BuildingBlock: XUDNAN_clean_linker_2, # of connection points: 2
#     Edge 27, Type (0, 1), BuildingBlock: XUDNAN_clean_linker_2, # of connection points: 2
#     Edge 28, Type (0, 1), BuildingBlock: XUDNAN_clean_linker_2, # of connection points: 2
#     Edge 29, Type (0, 1), BuildingBlock: XUDNAN_clean_linker_2, # of connection points: 2
#     Edge 30, Type (0, 1), BuildingBlock: XUDNAN_clean_linker_2, # of connection points: 2
#     Edge 31, Type (0, 1), BuildingBlock: XUDNAN_clean_linker_2, # of connection points: 2
#     Edge 32, Type (0, 1), BuildingBlock: XUDNAN_clean_linker_2, # of connection points: 2
#     Edge 33, Type (0, 1), BuildingBlock: XUDNAN_clean_linker_2, # of connection points: 2
#     Edge 34, Type (0, 1), BuildingBlock: XUDNAN_clean_linker_2, # of connection points: 2
#     Edge 35, Type (0, 1), BuildingBlock: XUDNAN_clean_linker_2, # of connection points: 2
# Relax obj value: 0.138
# Max RMSD: 0.131
# Mean RMSD: 0.063
data_MOF--net-pyr--node1-BETGAK_clean_sbu_0--node2-ESEHIV_clean_linker_0--edge1-XUDNAN_clean_linker_2
_symmetry_space_group_name_H-M    P1
_symmetry_Int_Tables_number       1
_symmetry_cell_setting            triclinic
loop_
_symmetry_equiv_pos_as_xyz
'x, y, z'
_cell_length_a     36.179944
_cell_length_b     37.691817
_cell_length_c     34.058486
_cell_angle_alpha  90.979915
_cell_angle_beta   88.386
_cell_angle_gamma 103.01785
loop_
_atom_site_label
_atom_site_type_symbol
_atom_site_fract_x
_atom_site_fract_y
_atom_site_fract_z
_atom_type_partial_charge
H0 H 0.33966 0.38398 0.24991 0.0
H1 H 0.36259 0.27931 0.27368 0.0
H2 H 0.38339 0.32413 0.15824 0.0
C3 C 0.35072 0.36061 0.24088 0.0
C4 C 0.36193 0.35754 0.20143 0.0
C5 C 0.34913 0.33197 0.26716 0.0
C6 C 0.36384 0.30207 0.25439 0.0
C7 C 0.3776 0.2996 0.21565 0.0
C8 C 0.37598 0.32723 0.18898 0.0
H9 H 0.14671 0.83635 0.77357 0.0
H10 H 0.22088 0.7644 0.74664 0.0
H11 H 0.16675 0.80793 0.65408 0.0
C12 C 0.15862 0.81963 0.75274 0.0
C13 C 0.15442 0.82459 0.71268 0.0
C14 C 0.18405 0.79933 0.76546 0.0
C15 C 0.19963 0.77854 0.73761 0.0
C16 C 0.19254 0.78037 0.69727 0.0
C17 C 0.16958 0.80347 0.6851 0.0
H18 H 0.69118 0.36571 0.93797 0.0
H19 H 0.70501 0.45976 0.86308 0.0
H20 H 0.61569 0.36404 0.84314 0.0
C21 C 0.68165 0.38007 0.91441 0.0
C22 C 0.65015 0.36112 0.89332 0.0
C23 C 0.70209 0.41585 0.9047 0.0
C24 C 0.68986 0.43271 0.87153 0.0
C25 C 0.65848 0.41433 0.84866 0.0
C26 C 0.63936 0.3785 0.86018 0.0
H27 H 0.84234 0.75062 0.43194 0.0
H28 H 0.93383 0.74543 0.34865 0.0
H29 H 0.83544 0.65697 0.35654 0.0
C30 C 0.85505 0.73614 0.40951 0.0
C31 C 0.83438 0.70164 0.39657 0.0
C32 C 0.89088 0.75301 0.39232 0.0
C33 C 0.9062 0.73368 0.36157 0.0
C34 C 0.88678 0.69852 0.34852 0.0
C35 C 0.85087 0.68351 0.36633 0.0
H36 H 0.66825 0.83395 0.83691 0.0
H37 H 0.71746 0.74784 0.87467 0.0
H38 H 0.656 0.80183 0.95785 0.0
C39 C 0.67147 0.81504 0.85953 0.0
C40 C 0.65835 0.82001 0.89798 0.0
C41 C 0.69289 0.78909 0.8512 0.0
C42 C 0.69903 0.76631 0.88117 0.0
C43 C 0.68607 0.77046 0.91998 0.0
C44 C 0.66484 0.79703 0.92795 0.0
H45 H 0.80404 0.3031 0.40987 0.0
H46 H 0.87888 0.23158 0.42478 0.0
H47 H 0.88938 0.32678 0.49833 0.0
C48 C 0.82897 0.29768 0.42331 0.0
C49 C 0.8466 0.32037 0.4539 0.0
C50 C 0.84056 0.26576 0.41266 0.0
C51 C 0.87082 0.257 0.43197 0.0
C52 C 0.88806 0.27861 0.46321 0.0
C53 C 0.87644 0.31063 0.47362 0.0
H54 H 0.35097 0.76644 0.18758 0.0
H55 H 0.33047 0.67527 0.26501 0.0
H56 H 0.43052 0.76159 0.27852 0.0
C57 C 0.35927 0.75339 0.21282 0.0
C58 C 0.3934 0.76987 0.2317 0.0
C59 C 0.33562 0.71983 0.22486 0.0
C60 C 0.34827 0.70096 0.25565 0.0
C61 C 0.383 0.71528 0.27526 0.0
C62 C 0.40461 0.75021 0.26336 0.0
H63 H 0.12596 0.37461 0.78311 0.0
H64 H 0.21001 0.3689 0.69183 0.0
H65 H 0.22072 0.46588 0.76166 0.0
C66 C 0.15211 0.38665 0.76747 0.0
C67 C 0.17104 0.42326 0.77687 0.0
C68 C 0.16571 0.36627 0.73652 0.0
C69 C 0.19898 0.38354 0.71538 0.0
C70 C 0.2189 0.41939 0.72405 0.0
C71 C 0.20518 0.43842 0.75525 0.0
La72 La 0.06208 0.07189 0.53777 0.0
La73 La 1.00948 1.03845 0.60298 0.0
C74 C 0.09362 0.10017 0.4756 0.0
C75 C 0.11941 0.13494 0.46533 0.0
C76 C 0.14994 0.13451 0.43931 0.0
C77 C 0.17574 0.16678 0.4298 0.0
C78 C 0.17139 0.20018 0.44603 0.0
C79 C 0.14073 0.20066 0.47217 0.0
C80 C 0.11504 0.16817 0.48204 0.0
C81 C 0.08958 1.03294 0.5874 0.0
C82 C 0.06652 0.11806 0.616 0.0
C83 C 0.97928 1.00731 0.66418 0.0
C84 C 0.94884 0.97432 0.67061 0.0
C85 C 0.91079 0.97474 0.66387 0.0
C86 C 0.88212 0.94367 0.67005 0.0
C87 C 0.8907 0.91133 0.68305 0.0
C88 C 0.92885 0.91068 0.68912 0.0
C89 C 0.95761 0.94193 0.68311 0.0
C90 C 0.98067 0.07821 0.5546 0.0
C91 C 1.00248 0.99366 0.52354 0.0
O92 O 0.10808 0.07896 0.49766 0.0
O93 O 0.05885 0.10114 0.48661 0.0
O94 O 0.10945 0.06273 0.57222 0.0
O95 O 0.057 1.02585 0.57372 0.0
O96 O 0.07352 0.11953 0.57752 0.0
O97 O 0.04619 0.08738 0.6321 0.0
O98 O 0.96912 1.03512 0.64873 0.0
O99 O 1.01132 1.00222 0.6488 0.0
O100 O 0.96136 1.04912 0.57178 0.0
O101 O 1.01399 0.08439 0.56663 0.0
O102 O 0.99332 0.99252 0.56155 0.0
O103 O 0.02606 1.02301 0.50837 0.0
H104 H 0.15382 0.10912 0.4263 0.0
H105 H 0.19865 0.16567 0.40897 0.0
H106 H 0.13675 0.22606 0.48502 0.0
H107 H 0.0919 0.16904 0.50266 0.0
H108 H 0.90291 0.99922 0.65428 0.0
H109 H 0.85303 0.9455 0.66599 0.0
H110 H 0.93643 0.88615 0.69901 0.0
H111 H 0.98669 0.94085 0.68851 0.0
La112 La 0.55734 0.07198 0.0781 0.0
La113 La 0.48842 0.05437 1.03847 0.0
C114 C 0.6244 0.09383 0.10077 0.0
C115 C 0.6446 0.10506 0.13706 0.0
C116 C 0.6285 0.09343 0.17389 0.0
C117 C 0.64821 0.1056 0.20806 0.0
C118 C 0.68398 0.12978 0.20566 0.0
C119 C 0.69992 0.14111 0.16862 0.0
C120 C 0.68035 0.12879 0.1346 0.0
C121 C 0.50748 1.01574 0.11305 0.0
C122 C 0.49079 0.10266 0.11159 0.0
C123 C 0.42767 1.02793 1.00403 0.0
C124 C 0.40762 0.99313 0.98648 0.0
C125 C 0.40199 0.99147 0.94591 0.0
C126 C 0.37882 0.9609 0.92894 0.0
C127 C 0.36042 0.93144 0.95225 0.0
C128 C 0.36781 0.93195 0.99251 0.0
C129 C 0.39122 0.9627 1.00961 0.0
C130 C 0.53111 0.12175 1.02044 0.0
C131 C 0.55336 1.01964 1.00605 0.0
O132 O 0.60741 0.05946 0.09739 0.0
O133 O 0.60352 0.11546 0.08878 0.0
O134 O 0.53057 1.0422 0.13047 0.0
O135 O 0.51345 1.02143 0.07655 0.0
O136 O 0.52768 0.11137 0.10455 0.0
O137 O 0.46984 0.07419 0.09398 0.0
O138 O 0.45885 1.0449 0.98588 0.0
O139 O 0.43049 1.02961 1.0423 0.0
O140 O 0.4948 0.11318 1.02607 0.0
O141 O 0.54182 0.09225 1.02379 0.0
O142 O 0.51631 1.0151 1.00932 0.0
O143 O 0.57582 1.04463 1.02703 0.0
H144 H 0.60069 0.07528 0.17621 0.0
H145 H 0.63524 0.0967 0.23631 0.0
H146 H 0.72765 0.15936 0.16594 0.0
H147 H 0.69306 0.138 0.10631 0.0
H148 H 0.41433 1.01448 0.92745 0.0
H149 H 0.37396 0.9609 0.89768 0.0
H150 H 0.35389 0.90954 1.01103 0.0
H151 H 0.39521 0.96314 1.04103 0.0
La152 La 0.52323 0.53246 0.53405 0.0
La153 La 0.52457 0.5942 0.58333 0.0
C154 C 0.54472 0.48359 0.49429 0.0
C155 C 0.5802 0.47129 0.49611 0.0
C156 C 0.58461 0.43978 0.47598 0.0
C157 C 0.61904 0.42894 0.47727 0.0
C158 C 0.64911 0.44931 0.49916 0.0
C159 C 0.64449 0.48072 0.51943 0.0
C160 C 0.61044 0.49186 0.51752 0.0
C161 C 0.45587 0.52864 0.5694 0.0
C162 C 0.55988 0.53396 0.62035 0.0
C163 C 0.50557 0.64487 0.62252 0.0
C164 C 0.47438 0.66369 0.61927 0.0
C165 C 0.4531 0.6685 0.6531 0.0
C166 C 0.42028 0.68173 0.65029 0.0
C167 C 0.40803 0.69027 0.61351 0.0
C168 C 0.43017 0.68674 0.57973 0.0
C169 C 0.46309 0.6735 0.58258 0.0
C170 C 0.59039 0.59785 0.54355 0.0
C171 C 0.48827 0.59202 0.49611 0.0
O172 O 0.52215 0.47683 0.52523 0.0
O173 O 0.54895 0.5171 0.48268 0.0
O174 O 0.46161 0.51773 0.53395 0.0
O175 O 0.48804 0.54004 0.58499 0.0
O176 O 0.55729 0.521 0.58381 0.0
O177 O 0.54643 0.56317 0.62889 0.0
O178 O 0.53172 0.65032 0.59467 0.0
O179 O 0.49485 0.61051 0.63158 0.0
O180 O 0.58753 0.6092 0.57946 0.0
O181 O 0.55705 0.58645 0.53156 0.0
O182 O 0.49121 0.60694 0.53207 0.0
O183 O 0.50154 0.56256 0.48919 0.0
H184 H 0.56161 0.42378 0.45915 0.0
H185 H 0.62212 0.40451 0.46153 0.0
H186 H 0.66747 0.49701 0.53606 0.0
H187 H 0.60796 0.51685 0.53237 0.0
H188 H 0.46132 0.66106 0.68163 0.0
H189 H 0.40429 0.685 0.67696 0.0
H190 H 0.42145 0.69312 0.55101 0.0
H191 H 0.47908 0.67013 0.556 0.0
La192 La 0.02745 0.53211 0.07523 0.0
La193 La 0.0202 0.59592 1.03862 0.0
C194 C 0.05338 0.47838 0.09486 0.0
C195 C 0.09229 0.47294 0.09957 0.0
C196 C 0.11635 0.49206 0.12833 0.0
C197 C 0.15326 0.48698 0.13166 0.0
C198 C 0.16707 0.46283 0.1062 0.0
C199 C 0.14305 0.44416 0.07711 0.0
C200 C 0.10609 0.44905 0.07397 0.0
C201 C 0.98503 0.56786 0.12016 0.0
C202 C 0.09383 0.60403 0.08719 0.0
C203 C 0.99758 0.65077 1.01569 0.0
C204 C 0.9605 0.66062 1.01385 0.0
C205 C 0.95847 0.69687 1.02071 0.0
C206 C 0.92343 0.70666 1.02183 0.0
C207 C 0.88953 0.68025 1.0165 0.0
C208 C 0.89175 0.64389 1.00931 0.0
C209 C 0.92688 0.6342 1.00784 0.0
C210 C 0.06339 0.55951 0.99501 0.0
C211 C 0.95108 0.52591 1.03175 0.0
O212 O 0.04114 0.4999 0.12007 0.0
O213 O 0.04452 0.48412 1.059 0.0
O214 O 0.97927 0.53282 0.11521 0.0
O215 O 1.01478 0.58194 0.10007 0.0
O216 O 0.08403 0.56799 0.08845 0.0
O217 O 0.07113 0.62182 0.07031 0.0
O218 O 1.00357 0.62472 0.99229 0.0
O219 O 1.00915 0.64736 1.05103 0.0
O220 O 0.06954 0.59452 1.00005 0.0
O221 O 0.03287 0.54607 1.01403 0.0
O222 O 0.96263 0.56166 1.02934 0.0
O223 O 0.97317 0.5069 1.04789 0.0
H224 H 0.10674 0.51091 0.14837 0.0
H225 H 0.17065 0.50146 0.15478 0.0
H226 H 0.15283 0.42581 1.05657 0.0
H227 H 0.08827 0.43425 1.05129 0.0
H228 H 0.98406 0.71766 1.02546 0.0
H229 H 0.92304 0.73506 1.02646 0.0
H230 H 0.86632 0.62275 1.00529 0.0
H231 H 0.92758 0.60605 1.00232 0.0
H232 H 0.35714 0.29649 0.33601 0.0
H233 H 0.28621 0.36052 0.28264 0.0
H234 H 0.24027 0.34565 0.33677 0.0
H235 H 0.28622 0.22509 0.34991 0.0
H236 H 0.30114 0.20991 0.39553 0.0
H237 H 0.33564 0.23613 0.36237 0.0
H238 H 0.35822 0.2837 0.41749 0.0
H239 H 0.3237 0.25736 0.45109 0.0
H240 H 0.32433 0.30467 0.44324 0.0
H241 H 0.19448 0.31265 0.38529 0.0
H242 H 0.15264 0.26208 0.42104 0.0
H243 H 0.24871 0.21403 0.43985 0.0
C244 C 0.33247 0.30822 0.33603 0.0
C245 C 0.32603 0.32998 0.30459 0.0
C246 C 0.29317 0.34478 0.30646 0.0
C247 C 0.26641 0.33627 0.33729 0.0
C248 C 0.27237 0.31261 0.36612 0.0
C249 C 0.30471 0.29882 0.36585 0.0
C250 C 0.30073 0.2681 0.3949 0.0
C251 C 0.30623 0.23275 0.37444 0.0
C252 C 0.32839 0.27913 0.42869 0.0
C253 C 0.26009 0.26491 0.40909 0.0
C254 C 0.24476 0.29185 0.39344 0.0
C255 C 0.2064 0.29201 0.39861 0.0
C256 C 0.18281 0.2632 0.41898 0.0
C257 C 0.19757 0.23431 0.43318 0.0
C258 C 0.2369 0.23602 0.42948 0.0
H259 H 0.20046 0.86572 0.80174 0.0
H260 H 0.2123 0.75452 0.81536 0.0
H261 H 0.25438 0.77473 0.87152 0.0
H262 H 0.29051 0.9067 0.81501 0.0
H263 H 0.28164 0.94604 0.84115 0.0
H264 H 0.24738 0.92178 0.8075 0.0
H265 H 0.19505 0.9119 0.86234 0.0
H266 H 0.22893 0.93698 0.89622 0.0
H267 H 0.20295 0.89159 0.908 0.0
H268 H 0.30301 0.81032 0.92027 0.0
H269 H 0.35076 0.85667 0.95592 0.0
H270 H 0.30278 0.94205 0.90911 0.0
C271 C 0.20988 0.84484 0.81749 0.0
C272 C 0.20226 0.80826 0.80423 0.0
C273 C 0.21752 0.78271 0.82493 0.0
C274 C 0.24132 0.79392 0.85699 0.0
C275 C 0.24909 0.83061 0.86824 0.0
C276 C 0.23316 0.85543 0.84928 0.0
C277 C 0.24846 0.89388 0.8635 0.0
C278 C 0.26816 0.91849 0.82979 0.0
C279 C 0.21697 0.90949 0.88374 0.0
C280 C 0.27662 0.88725 0.89259 0.0
C281 C 0.27657 0.85068 0.89554 0.0
C282 C 0.30271 0.83891 0.91865 0.0
C283 C 0.3297 0.86529 0.93872 0.0
C284 C 0.33044 0.90277 0.93485 0.0
C285 C 0.30296 0.91354 0.9123 0.0
H286 H 0.63505 0.4806 0.8345 0.0
H287 H 0.65471 0.38346 0.77554 0.0
H288 H 0.63403 0.40431 0.71328 0.0
H289 H 0.54936 0.48347 0.78156 0.0
H290 H 0.55898 0.53238 0.77829 0.0
H291 H 0.57724 0.51143 0.81841 0.0
H292 H 0.64517 0.54699 0.80047 0.0
H293 H 0.62711 0.56807 0.76031 0.0
H294 H 0.66391 0.54349 0.7513 0.0
H295 H 0.61112 0.43507 0.65615 0.0
H296 H 0.58499 0.47122 0.6095 0.0
H297 H 0.57525 0.54939 0.7022 0.0
C298 C 0.63542 0.46393 0.80837 0.0
C299 C 0.64716 0.43008 0.81057 0.0
C300 C 0.64622 0.40924 0.77533 0.0
C301 C 0.63444 0.42099 0.73951 0.0
C302 C 0.62283 0.45393 0.73837 0.0
C303 C 0.62292 0.47515 0.77188 0.0
C304 C 0.60739 0.50878 0.76214 0.0
C305 C 0.57109 0.50903 0.78656 0.0
C306 C 0.6377 0.54393 0.76897 0.0
C307 C 0.59868 0.50311 0.71815 0.0
C308 C 0.60826 0.47129 0.7053 0.0
C309 C 0.60346 0.45992 0.66616 0.0
C310 C 0.58842 0.48101 0.63955 0.0
C311 C 0.5775 0.51372 0.65119 0.0
C312 C 0.58301 0.52477 0.6916 0.0
H313 H 0.92787 0.71825 0.27599 0.0
H314 H 0.8846 0.62565 0.35149 0.0
H315 H 0.90447 0.58513 0.30225 0.0
H316 H 0.90212 0.67144 0.18328 0.0
H317 H 0.9446 0.69309 0.15638 0.0
H318 H 0.92771 0.7164 0.19741 0.0
H319 H 0.99261 0.72438 0.23028 0.0
H320 H 1.00975 0.70126 0.18923 0.0
H321 H 1.0117 0.68495 0.23841 0.0
H322 H 0.92474 0.55269 0.24423 0.0
H323 H 0.94958 0.53069 0.18311 0.0
H324 H 0.98567 0.64186 0.14198 0.0
C325 C 0.92295 0.68951 0.28236 0.0
C326 C 0.90355 0.67555 0.31812 0.0
C327 C 0.89811 0.63752 0.32453 0.0
C328 C 0.90961 0.61401 0.29657 0.0
C329 C 0.92741 0.62827 0.26162 0.0
C330 C 0.93469 0.66517 0.25436 0.0
C331 C 0.95484 0.67259 0.2139 0.0
C332 C 0.93089 0.68939 0.1861 0.0
C333 C 0.99459 0.69727 0.21821 0.0
C334 C 0.95734 0.63417 0.19977 0.0
C335 C 0.94091 0.60926 0.22805 0.0
C336 C 0.93803 0.57206 0.22213 0.0
C337 C 0.95233 0.55975 0.18687 0.0
C338 C 0.9702 0.58412 0.15709 0.0
C339 C 0.9727 0.62221 0.16396 0.0
H340 H 0.44306 0.293 0.17541 0.0
H341 H 0.33787 0.22994 0.22628 0.0
H342 H 0.35757 0.1731 0.20874 0.0
H343 H 0.44891 0.23169 0.09357 0.0
H344 H 0.49971 0.23786 0.09497 0.0
H345 H 0.47767 0.274 0.11144 0.0
H346 H 0.50984 0.27564 0.17859 0.0
H347 H 0.53192 0.23941 0.1624 0.0
H348 H 0.50299 0.23453 0.2068 0.0
H349 H 0.38728 0.12332 0.18494 0.0
H350 H 0.42484 0.08289 0.1538 0.0
H351 H 0.51222 0.17707 0.1197 0.0
C352 C 0.42419 0.26716 0.18255 0.0
C353 C 0.38909 0.26581 0.2025 0.0
C354 C 0.36511 0.23156 0.21151 0.0
C355 C 0.37602 0.19914 0.20164 0.0
C356 C 0.41107 0.20134 0.18279 0.0
C357 C 0.43481 0.23436 0.17311 0.0
C358 C 0.47086 0.22872 0.15252 0.0
C359 C 0.47448 0.24397 0.11064 0.0
C360 C 0.50598 0.24558 0.17653 0.0
C361 C 0.46345 0.18743 0.15201 0.0
C362 C 0.42875 0.1723 0.16967 0.0
C363 C 0.41465 0.13479 0.17131 0.0
C364 C 0.43619 0.11205 0.15365 0.0
C365 C 0.47158 0.12686 0.13493 0.0
C366 C 0.48568 0.16503 0.13472 0.0
H367 H 0.09702 0.83717 0.66665 0.0
H368 H 0.19704 0.89063 0.72996 0.0
H369 H 0.19045 0.95029 0.70648 0.0
H370 H 0.11383 0.89329 0.58268 0.0
H371 H 0.06491 0.8949 0.57652 0.0
H372 H 0.07635 0.8562 0.59951 0.0
H373 H 0.03523 0.86571 0.66066 0.0
H374 H 0.02368 0.90445 0.63777 0.0
H375 H 0.04455 0.90927 0.68557 0.0
H376 H 0.17673 1.00325 0.67197 0.0
H377 H 0.15262 1.04742 0.63236 0.0
H378 H 0.05932 0.9607 0.59505 0.0
C379 C 0.11703 0.86158 0.67587 0.0
C380 C 0.14719 0.85963 0.7004 0.0
C381 C 0.17334 0.89189 0.71168 0.0
C382 C 0.16997 0.92581 0.69839 0.0
C383 C 0.14006 0.92703 0.67415 0.0
C384 C 0.11369 0.89594 0.66338 0.0
C385 C 0.08439 0.90516 0.63686 0.0
C386 C 0.08493 0.88627 0.5965 0.0
C387 C 0.04461 0.89558 0.65639 0.0
C388 C 0.09903 0.94598 0.63387 0.0
C389 C 0.13128 0.95803 0.65541 0.0
C390 C 0.15114 0.99435 0.65541 0.0
C391 C 0.13745 1.01915 0.63283 0.0
C392 C 0.10412 1.00736 0.6112 0.0
C393 C 0.08464 0.97042 0.61189 0.0
H394 H 0.77134 0.4671 0.88498 0.0
H395 H 0.7105 0.40767 0.98417 0.0
H396 H 0.76644 0.42724 1.02436 0.0
H397 H 0.86414 0.45401 0.90367 0.0
H398 H 0.88947 0.49978 0.89258 0.0
H399 H 0.84484 0.48092 0.86982 0.0
H400 H 0.81803 0.53502 0.89622 0.0
H401 H 0.86271 0.55419 0.9188 0.0
H402 H 0.81942 0.54548 0.94808 0.0
H403 H 0.83155 0.44762 1.05342 0.0
H404 H 0.89695 0.47706 0.07241 0.0
H405 H 0.91561 0.53233 0.96065 0.0
C406 C 0.76945 0.45847 0.91524 0.0
C407 C 0.73596 0.43392 0.93006 0.0
C408 C 0.7356 0.42444 0.97046 0.0
C409 C 0.76749 0.43587 0.99412 0.0
C410 C 0.80017 0.45839 0.97825 0.0
C411 C 0.80114 0.47072 0.94016 0.0
C412 C 0.83974 0.49658 0.93163 0.0
C413 C 0.86079 0.48194 0.89738 0.0
C414 C 0.83467 0.53511 0.92317 0.0
C415 C 0.86028 0.49592 0.97038 0.0
C416 C 0.83687 0.47316 0.99658 0.0
C417 C 0.84982 0.46604 1.03334 0.0
C418 C 0.88725 0.48279 1.0439 0.0
C419 C 0.91169 0.50739 1.0185 0.0
C420 C 0.89766 0.51407 0.98114 0.0
H421 H 0.80507 0.70061 0.47451 0.0
H422 H 0.77282 0.66378 0.35625 0.0
H423 H 0.70965 0.6328 0.3813 0.0
H424 H 0.75385 0.61928 0.52456 0.0
H425 H 0.7388 0.64329 0.56607 0.0
H426 H 0.78216 0.6629 0.53945 0.0
H427 H 0.75779 0.72119 0.52765 0.0
H428 H 0.71445 0.70182 0.55441 0.0
H429 H 0.71264 0.71749 0.50494 0.0
H430 H 0.64922 0.60469 0.41856 0.0
H431 H 0.59542 0.58406 0.46498 0.0
H432 H 0.66348 0.63869 0.56045 0.0
C433 C 0.78468 0.68626 0.45378 0.0
C434 C 0.79491 0.68449 0.41309 0.0
C435 C 0.76679 0.66512 0.38748 0.0
C436 C 0.73042 0.64747 0.40147 0.0
C437 C 0.7216 0.64919 0.44149 0.0
C438 C 0.74777 0.66827 0.46737 0.0
C439 C 0.7304 0.66582 0.50903 0.0
C440 C 0.75264 0.64669 0.5364 0.0
C441 C 0.72872 0.70384 0.52495 0.0
C442 C 0.69053 0.64251 0.50239 0.0
C443 C 0.68631 0.6332 0.46309 0.0
C444 C 0.65231 0.61191 0.44937 0.0
C445 C 0.62175 0.60015 0.47614 0.0
C446 C 0.62476 0.60945 0.51662 0.0
C447 C 0.66 0.63087 0.52981 0.0
H448 H 0.30781 0.33641 0.14805 0.0
H449 H 0.38384 0.43169 0.19568 0.0
H450 H 0.34682 0.47115 0.16503 0.0
H451 H 0.27984 0.37997 1.05551 0.0
H452 H 0.2316 0.35431 0.06148 0.0
H453 H 0.27031 0.33503 0.07623 0.0
H454 H 0.23933 0.32434 0.14576 0.0
H455 H 0.20111 0.34422 0.13172 0.0
H456 H 0.22916 0.3624 0.17341 0.0
H457 H 0.29449 0.49863 0.14162 0.0
H458 H 0.23274 0.51192 0.12639 0.0
H459 H 0.18859 0.39768 0.09856 0.0
C460 C 0.31797 0.3657 0.14977 0.0
C461 C 0.34931 0.38122 0.17297 0.0
C462 C 0.36059 0.41952 0.17689 0.0
C463 C 0.33958 0.44204 0.15976 0.0
C464 C 0.3073 0.42575 0.139 0.0
C465 C 0.2968 0.38838 0.13356 0.0
C466 C 0.25771 0.37703 0.11628 0.0
C467 C 0.26002 0.36062 0.07491 0.0
C468 C 0.23025 0.35046 0.14342 0.0
C469 C 0.24702 0.41352 0.11469 0.0
C470 C 0.27626 0.44142 0.12702 0.0
C471 C 0.27169 0.47706 0.13121 0.0
C472 C 0.23631 0.48428 0.12292 0.0
C473 C 0.20565 0.45589 0.11115 0.0
C474 C 0.21157 0.42022 0.10645 0.0
H475 H 0.62757 0.33318 0.96836 0.0
H476 H 0.62774 0.30025 0.84581 0.0
H477 H 0.59952 0.23657 0.86475 0.0
H478 H 0.64978 0.25288 1.00917 0.0
H479 H 0.61849 0.25126 1.05155 0.0
H480 H 0.63888 0.29422 1.02864 0.0
H481 H 0.57179 0.30583 1.01985 0.0
H482 H 0.55142 0.26309 1.04317 0.0
H483 H 0.53657 0.27211 0.99498 0.0
H484 H 0.57378 0.17424 0.89813 0.0
H485 H 0.5469 0.12185 0.94128 0.0
H486 H 0.55848 0.19457 1.04219 0.0
C487 C 0.62161 0.31263 0.94539 0.0
C488 C 0.63025 0.32239 0.90523 0.0
C489 C 0.62138 0.29418 0.87655 0.0
C490 C 0.60548 0.25762 0.88718 0.0
C491 C 0.59772 0.24899 0.92685 0.0
C492 C 0.60495 0.2759 0.9555 0.0
C493 C 0.5928 0.25952 0.99597 0.0
C494 C 0.62703 0.26479 1.02293 0.0
C495 C 0.56126 0.27613 1.01458 0.0
C496 C 0.57787 0.21922 0.98578 0.0
C497 C 0.58146 0.21367 0.94573 0.0
C498 C 0.5707 0.17859 0.92943 0.0
C499 C 0.55555 0.14878 0.95426 0.0
C500 C 0.55056 0.15367 0.99527 0.0
C501 C 0.56195 0.18965 1.01103 0.0
H502 H 0.89388 0.78565 0.46777 0.0
H503 H 0.9346 0.80847 0.34768 0.0
H504 H 0.96651 0.87072 0.36785 0.0
H505 H 0.87528 0.87451 0.48984 0.0
H506 H 0.89097 0.87604 0.53974 0.0
H507 H 0.87176 0.83283 0.51635 0.0
H508 H 0.93286 0.81128 0.53124 0.0
H509 H 0.95219 0.85442 0.55472 0.0
H510 H 0.97825 0.83823 0.51504 0.0
H511 H 0.99376 0.93235 0.40101 0.0
H512 H 1.01493 0.98607 0.44397 0.0
H513 H 0.95702 0.9251 0.54337 0.0
C514 C 0.90932 0.80364 0.44549 0.0
C515 C 0.91143 0.79118 0.40572 0.0
C516 C 0.93266 0.81627 0.37826 0.0
C517 C 0.9508 0.85213 0.38948 0.0
C518 C 0.94797 0.86336 0.42858 0.0
C519 C 0.92786 0.83976 0.45627 0.0
C520 C 0.9295 0.85878 0.4965 0.0
C521 C 0.88949 0.86065 0.51149 0.0
C522 C 0.94938 0.83953 0.52613 0.0
C523 C 0.95336 0.89677 0.48708 0.0
C524 C 0.96369 0.89874 0.44766 0.0
C525 C 0.98574 0.93088 0.43189 0.0
C526 C 0.99769 0.96152 0.45673 0.0
C527 C 0.98786 0.96055 0.49744 0.0
C528 C 0.96514 0.92733 0.51252 0.0
H529 H 0.21141 0.71411 0.69958 0.0
H530 H 0.22939 0.81287 0.6312 0.0
H531 H 0.27964 0.79333 0.59242 0.0
H532 H 0.30269 0.71784 0.71335 0.0
H533 H 0.30116 0.66973 0.71048 0.0
H534 H 0.25928 0.68512 0.72496 0.0
H535 H 0.22199 0.64711 0.66877 0.0
H536 H 0.26376 0.63103 0.65437 0.0
H537 H 0.2404 0.65287 0.61899 0.0
H538 H 0.33663 0.77077 0.57148 0.0
H539 H 0.39438 0.74607 0.5695 0.0
H540 H 0.34087 0.66265 0.65218 0.0
C541 C 0.22497 0.73091 0.67545 0.0
C542 C 0.21604 0.76475 0.66821 0.0
C543 C 0.23484 0.78634 0.63676 0.0
C544 C 0.26369 0.77554 0.61459 0.0
C545 C 0.27329 0.74301 0.624 0.0
C546 C 0.25411 0.72071 0.65336 0.0
C547 C 0.27352 0.69016 0.66185 0.0
C548 C 0.28483 0.6908 0.7052 0.0
C549 C 0.24842 0.65309 0.65029 0.0
C550 C 0.30794 0.70025 0.63467 0.0
C551 C 0.30684 0.73021 0.6123 0.0
C552 C 0.33737 0.7467 0.58803 0.0
C553 C 0.37007 0.73254 0.58712 0.0
C554 C 0.37208 0.70254 0.61077 0.0
C555 C 0.34017 0.68572 0.63392 0.0
H556 H 0.76863 0.7948 0.84603 0.0
H557 H 0.67099 0.79411 0.77506 0.0
H558 H 0.71372 0.81295 0.7174 0.0
H559 H 0.81947 0.87311 0.81463 0.0
H560 H 0.8655 0.86226 0.81529 0.0
H561 H 0.82794 0.83847 0.84686 0.0
H562 H 0.83573 0.7767 0.81725 0.0
H563 H 0.8738 0.8004 0.78559 0.0
H564 H 0.83359 0.76932 0.76485 0.0
H565 H 0.76662 0.84317 0.6722 0.0
H566 H 0.82376 0.88497 0.64501 0.0
H567 H 0.88617 0.86837 0.74741 0.0
C568 C 0.7561 0.79663 0.81784 0.0
C569 C 0.71652 0.79219 0.81466 0.0
C570 C 0.70126 0.79685 0.77782 0.0
C571 C 0.72532 0.80733 0.74496 0.0
C572 C 0.76447 0.81297 0.74953 0.0
C573 C 0.7797 0.80752 0.78513 0.0
C574 C 0.8223 0.82161 0.78477 0.0
C575 C 0.83446 0.85058 0.81727 0.0
C576 C 0.84255 0.79012 0.78831 0.0
C577 C 0.82848 0.83804 0.74431 0.0
C578 C 0.79506 0.83174 0.72389 0.0
C579 C 0.79305 0.84767 0.68762 0.0
C580 C 0.82558 0.87163 0.67257 0.0
C581 C 0.85943 0.88004 0.69417 0.0
C582 C 0.8611 0.86184 0.72971 0.0
H583 H 0.81283 0.27912 0.34168 0.0
H584 H 0.81569 0.19247 0.42307 0.0
H585 H 0.77503 0.1482 0.37948 0.0
H586 H 0.71535 0.24712 0.31559 0.0
H587 H 0.72367 0.26014 0.26487 0.0
H588 H 0.75353 0.28497 0.30224 0.0
H589 H 0.8131 0.27277 0.26514 0.0
H590 H 0.78344 0.24803 0.22759 0.0
H591 H 0.8155 0.22659 0.25298 0.0
H592 H 0.73306 0.11361 0.32778 0.0
H593 H 0.69538 0.09063 0.26939 0.0
H594 H 0.71955 0.19999 0.22248 0.0
C595 C 0.80492 0.25082 0.35022 0.0
C596 C 0.8177 0.23912 0.38545 0.0
C597 C 0.80683 0.20186 0.39575 0.0
C598 C 0.78348 0.17658 0.37141 0.0
C599 C 0.77122 0.18904 0.33696 0.0
C600 C 0.78169 0.22521 0.32626 0.0
C601 C 0.76479 0.23147 0.28761 0.0
C602 C 0.73772 0.25746 0.29291 0.0
C603 C 0.79607 0.24553 0.25649 0.0
C604 C 0.74337 0.19313 0.27817 0.0
C605 C 0.74719 0.16908 0.30712 0.0
C606 C 0.72985 0.13215 0.30487 0.0
C607 C 0.70839 0.1194 0.2718 0.0
C608 C 0.70478 0.14354 0.24151 0.0
C609 C 0.72225 0.18088 0.24504 0.0
H610 H 0.42037 0.73597 0.34817 0.0
H611 H 0.37833 0.64161 0.27382 0.0
H612 H 0.39853 0.60242 0.32188 0.0
H613 H 0.50343 0.70622 0.3828 0.0
H614 H 0.50008 0.72287 0.4324 0.0
H615 H 0.48237 0.74461 0.39251 0.0
H616 H 0.41678 0.73453 0.42785 0.0
H617 H 0.43427 0.71261 0.46777 0.0
H618 H 0.39273 0.68919 0.44217 0.0
H619 H 0.42429 0.57208 0.37685 0.0
H620 H 0.45306 0.5527 0.43483 0.0
H621 H 0.47902 0.66406 0.47887 0.0
C622 C 0.41545 0.70708 0.34188 0.0
C623 C 0.39694 0.69238 0.30643 0.0
C624 C 0.39141 0.65414 0.30035 0.0
C625 C 0.40313 0.63139 0.32768 0.0
C626 C 0.42064 0.64649 0.36205 0.0
C627 C 0.4268 0.68346 0.36952 0.0
C628 C 0.44626 0.69202 0.40939 0.0
C629 C 0.48536 0.71798 0.40395 0.0
C630 C 0.42101 0.70805 0.43852 0.0
C631 C 0.45026 0.65425 0.42277 0.0
C632 C 0.43521 0.62861 0.3946 0.0
C633 C 0.43598 0.59204 0.39903 0.0
C634 C 0.45262 0.58122 0.43247 0.0
C635 C 0.46857 0.60633 0.46239 0.0
C636 C 0.46688 0.64367 0.45729 0.0
H637 H 0.12903 0.40595 0.84956 0.0
H638 H 0.17374 0.49648 0.77161 0.0
H639 H 0.15231 0.53804 0.81822 0.0
H640 H 0.04384 0.43887 0.88096 0.0
H641 H 0.04384 0.4243 0.9311 0.0
H642 H 0.06322 0.40027 0.89229 0.0
H643 H 0.1266 0.41052 0.92854 0.0
H644 H 0.10744 0.4347 0.96737 0.0
H645 H 0.15082 0.45617 0.94187 0.0
H646 H 0.12904 0.57193 0.8736 0.0
H647 H 0.10083 0.59522 0.93214 0.0
H648 H 0.06473 0.48524 0.97659 0.0
C649 C 0.13422 0.43447 0.84213 0.0
C650 C 0.15463 0.4474 0.80647 0.0
C651 C 0.15997 0.48523 0.79868 0.0
C652 C 0.1474 0.50941 0.8251 0.0
C653 C 0.12849 0.4961 0.85988 0.0
C654 C 0.12134 0.45948 0.86851 0.0
C655 C 0.09945 0.45303 0.90818 0.0
C656 C 0.06025 0.42759 0.90281 0.0
C657 C 0.12245 0.43768 0.93827 0.0
C658 C 0.09569 0.49165 0.92018 0.0
C659 C 0.11312 0.51585 0.89168 0.0
C660 C 0.11502 0.55309 0.89587 0.0
C661 C 0.09878 0.56617 0.92963 0.0
C662 C 0.0799 0.5425 0.95954 0.0
C663 C 0.07838 0.50436 0.95442 0.0
H664 H 0.59351 0.82757 0.93931 0.0
H665 H 0.69486 0.88874 0.8796 0.0
H666 H 0.67606 0.94606 0.89639 0.0
H667 H 0.53092 0.88691 0.91034 0.0
H668 H 0.5053 0.88288 0.95682 0.0
H669 H 0.52551 0.84601 0.93868 0.0
H670 H 0.56249 0.84778 1.00301 0.0
H671 H 0.54227 0.88448 1.02136 0.0
H672 H 0.59307 0.88997 1.01872 0.0
H673 H 0.65018 0.99662 0.92411 0.0
H674 H 0.61673 1.03813 0.95992 0.0
H675 H 0.52959 0.94566 0.99861 0.0
C676 C 0.61142 0.85308 0.92957 0.0
C677 C 0.64536 0.85377 0.90773 0.0
C678 C 0.66837 0.88761 0.8957 0.0
C679 C 0.65801 0.92032 0.90518 0.0
C680 C 0.62435 0.91882 0.92646 0.0
C681 C 0.60118 0.88619 0.93836 0.0
C682 C 0.56697 0.89269 0.96181 0.0
C683 C 0.52998 0.87614 0.94064 0.0
C684 C 0.56618 0.87786 1.00371 0.0
C685 C 0.57514 0.934 0.96189 0.0
C686 C 0.60845 0.94841 0.94132 0.0
C687 C 0.62366 0.98577 0.93968 0.0
C688 C 0.60456 1.0091 0.96006 0.0
C689 C 0.57037 0.99501 0.98118 0.0
C690 C 0.55514 0.95705 0.98162 0.0
H691 H 0.95005 0.25145 0.44412 0.0
H692 H 0.87417 0.266 0.54068 0.0
H693 H 0.89425 0.21834 0.57767 0.0
H694 H 0.93017 0.1626 0.44262 0.0
H695 H 0.97672 0.1543 0.43274 0.0
H696 H 0.96613 0.19633 0.41781 0.0
H697 H 0.02199 0.23399 0.45747 0.0
H698 H 0.0341 0.19202 0.47084 0.0
H699 H 0.02611 0.22383 0.50849 0.0
H700 H 0.9082 0.1594 0.59528 0.0
H701 H 0.92814 0.10112 0.60049 0.0
H702 H 0.99674 0.1254 0.49383 0.0
C703 C 0.93955 0.24602 0.47401 0.0
C704 C 0.91091 0.2624 0.48981 0.0
C705 C 0.89671 0.25419 0.52849 0.0
C706 C 0.90767 0.22688 0.54954 0.0
C707 C 0.93348 0.2089 0.53172 0.0
C708 C 0.95051 0.21905 0.4955 0.0
C709 C 0.97429 0.19287 0.48117 0.0
C710 C 0.961 0.17551 0.44124 0.0
C711 C 1.01664 0.21181 0.47941 0.0
C712 C 0.96577 0.16516 0.51361 0.0
C713 C 0.94229 0.17497 0.54253 0.0
C714 C 0.92749 0.15193 0.57346 0.0
C715 C 0.9383 0.11865 0.57575 0.0
C716 C 0.96363 0.109 0.54731 0.0
C717 C 0.97738 0.13239 0.51586 0.0
H718 H 0.29584 0.64805 0.20315 0.0
H719 H 0.28633 0.76091 0.20312 0.0
H720 H 0.22661 0.74313 0.16817 0.0
H721 H 0.25645 0.62361 0.10701 0.0
H722 H 0.22939 0.57899 0.12013 0.0
H723 H 0.27203 0.59902 0.14591 0.0
H724 H 0.23488 0.59108 0.21211 0.0
H725 H 0.19219 0.57036 0.18675 0.0
H726 H 0.19308 0.60932 0.21847 0.0
H727 H 0.16887 0.71504 0.13103 0.0
H728 H 0.11406 0.67762 0.09785 0.0
H729 H 0.15481 0.5804 0.12191 0.0
C730 C 0.28107 0.669 0.19609 0.0
C731 C 0.29711 0.70638 0.20565 0.0
C732 C 0.2761 0.73243 0.19557 0.0
C733 C 0.24165 0.72252 0.17574 0.0
C734 C 0.22728 0.68605 0.16601 0.0
C735 C 0.24591 0.65943 0.17611 0.0
C736 C 0.22319 0.6221 0.16196 0.0
C737 C 0.24668 0.60491 0.13198 0.0
C738 C 0.21006 0.59671 0.19691 0.0
C739 C 0.18923 0.63216 0.14242 0.0
C740 C 0.19267 0.66936 0.14512 0.0
C741 C 0.16584 0.68585 0.12897 0.0
C742 C 0.13457 0.66411 0.10988 0.0
C743 C 0.12934 0.62567 0.10679 0.0
C744 C 0.15747 0.60957 0.12351 0.0
H745 H 0.29499 0.45336 0.74081 0.0
H746 H 0.21629 0.42711 0.64532 0.0
H747 H 0.26703 0.45522 0.59832 0.0
H748 H 0.35024 0.54071 0.70164 0.0
H749 H 0.39543 0.53377 0.71672 0.0
H750 H 0.35273 0.51357 0.74415 0.0
H751 H 0.36774 0.45 0.73489 0.0
H752 H 0.4105 0.47004 0.70754 0.0
H753 H 0.37564 0.43363 0.68602 0.0
H754 H 0.32527 0.48498 0.56082 0.0
H755 H 0.38893 0.51109 0.53364 0.0
H756 H 0.43486 0.5178 0.6506 0.0
C757 C 0.28847 0.45389 0.71004 0.0
C758 C 0.25117 0.43794 0.69693 0.0
C759 C 0.24427 0.43889 0.65625 0.0
C760 C 0.27302 0.45499 0.62925 0.0
C761 C 0.30928 0.4701 0.64283 0.0
C762 C 0.31742 0.46957 0.68217 0.0
C763 C 0.35971 0.48639 0.68798 0.0
C764 C 0.36482 0.52065 0.71419 0.0
C765 C 0.37957 0.45834 0.70513 0.0
C766 C 0.37387 0.49618 0.64582 0.0
C767 C 0.34385 0.48673 0.6206 0.0
C768 C 0.34894 0.4924 0.58033 0.0
C769 C 0.38549 0.50737 0.56511 0.0
C770 C 0.41741 0.51667 0.58958 0.0
C771 C 0.41126 0.51137 0.63088 0.0
H772 H 0.70098 0.70208 0.91956 0.0
H773 H 0.71064 0.7995 0.9919 0.0
H774 H 0.75482 0.77829 1.03421 0.0
H775 H 0.72316 0.63824 0.99736 0.0
H776 H 0.7516 0.61932 0.962 0.0
H777 H 0.7106 0.63456 0.94637 0.0
H778 H 0.75284 0.67636 0.89523 0.0
H779 H 0.79391 0.66184 0.91099 0.0
H780 H 0.79368 0.70963 0.9115 0.0
H781 H 0.80868 0.75489 1.05901 0.0
H782 H 0.86665 0.73145 0.0641 0.0
H783 H 0.82825 0.65397 0.96994 0.0
C784 C 0.71133 0.71838 0.94512 0.0
C785 C 0.70216 0.75255 0.95212 0.0
C786 C 0.71633 0.77291 0.98603 0.0
C787 C 0.74184 0.76115 1.01024 0.0
C788 C 0.753 0.72901 1.00025 0.0
C789 C 0.73788 0.70768 0.96862 0.0
C790 C 0.75972 0.67853 0.9592 0.0
C791 C 0.73478 0.6404 0.9667 0.0
C792 C 0.776 0.68183 0.91675 0.0
C793 C 0.79084 0.68819 0.9889 0.0
C794 C 0.78576 0.71657 1.01315 0.0
C795 C 0.8126 0.73227 1.04061 0.0
C796 C 0.84574 0.71907 1.04289 0.0
C797 C 0.85229 0.69097 1.01724 0.0
C798 C 0.8239 0.6749 0.99057 0.0
H799 H 0.37089 0.82602 0.18978 0.0
H800 H 0.47111 0.80005 0.23912 0.0
H801 H 0.50927 0.85837 0.21503 0.0
H802 H 0.41896 0.8661 0.10011 0.0
H803 H 0.39148 0.90034 0.09748 0.0
H804 H 0.37117 0.85725 0.12019 0.0
H805 H 0.35679 0.89074 0.18372 0.0
H806 H 0.37705 0.93391 0.16121 0.0
H807 H 0.39473 0.92256 0.20721 0.0
H808 H 0.53769 0.92161 0.18581 0.0
H809 H 0.55327 0.98125 0.15281 0.0
H810 H 0.43692 0.96502 0.11612 0.0
C811 C 0.40092 0.83174 0.19531 0.0
C812 C 0.41713 0.80692 0.21713 0.0
C813 C 0.45681 0.81769 0.22369 0.0
C814 C 0.47917 0.85108 0.20958 0.0
C815 C 0.46222 0.87421 0.18808 0.0
C816 C 0.42396 0.8648 0.18067 0.0
C817 C 0.41285 0.89425 0.15595 0.0
C818 C 0.39771 0.87854 0.11607 0.0
C819 C 0.38362 0.91137 0.17836 0.0
C820 C 0.45076 0.92183 0.15073 0.0
C821 C 0.47879 0.90974 0.16987 0.0
C822 C 0.51586 0.93093 0.17056 0.0
C823 C 0.52452 0.965 0.1516 0.0
C824 C 0.49669 0.97816 0.13127 0.0
C825 C 0.45918 0.95583 0.13078 0.0
H826 H 0.15847 0.33162 0.6623 0.0
H827 H 0.12771 0.31059 0.78518 0.0
H828 H 0.09946 0.24628 0.76828 0.0
H829 H 0.0749 0.27137 0.62164 0.0
H830 H 0.10071 0.25682 0.58071 0.0
H831 H 0.11727 0.30136 0.60228 0.0
H832 H 0.18262 0.28668 0.61359 0.0
H833 H 0.16616 0.24208 0.59214 0.0
H834 H 0.18503 0.24672 0.64086 0.0
H835 H 0.07578 0.18187 0.73741 0.0
H836 H 0.05749 0.12627 0.69628 0.0
H837 H 0.10429 0.18836 0.59328 0.0
C838 C 0.14606 0.31368 0.68596 0.0
C839 C 0.14587 0.3271 0.72553 0.0
C840 C 0.12823 0.30194 0.75474 0.0
C841 C 0.11223 0.26497 0.74536 0.0
C842 C 0.1136 0.25276 0.70636 0.0
C843 C 0.12991 0.27657 0.67707 0.0
C844 C 0.1278 0.25664 0.6374 0.0
C845 C 0.10374 0.2725 0.60882 0.0
C846 C 0.16778 0.25813 0.61997 0.0
C847 C 0.10811 0.21782 0.64882 0.0
C848 C 0.1001 0.21615 0.68878 0.0
C849 C 0.082 0.18317 0.70613 0.0
C850 C 0.07171 0.15146 0.68236 0.0
C851 C 0.07933 0.15219 0.64118 0.0
C852 C 0.098 0.18625 0.62453 0.0
H853 H 0.815 0.36608 0.41075 0.0
H854 H 0.83724 0.34128 0.53068 0.0
H855 H 0.79677 0.38153 0.55518 0.0
H856 H 0.79911 0.46082 0.42846 0.0
H857 H 0.76043 0.45243 0.39483 0.0
H858 H 0.79981 0.43096 0.38665 0.0
H859 H 0.75293 0.36787 0.38492 0.0
H860 H 0.71357 0.38893 0.39373 0.0
H861 H 0.72098 0.35409 0.42626 0.0
H862 H 0.74524 0.41482 0.56691 0.0
H863 H 0.68643 0.43784 0.56447 0.0
H864 H 0.69282 0.43509 0.43724 0.0
C865 C 0.81221 0.36985 0.44219 0.0
C866 C 0.82956 0.35057 0.46866 0.0
C867 C 0.82513 0.35632 0.50962 0.0
C868 C 0.80192 0.37904 0.52391 0.0
C869 C 0.78328 0.39571 0.49694 0.0
C870 C 0.78833 0.39153 0.45687 0.0
C871 C 0.76048 0.40711 0.43411 0.0
C872 C 0.7812 0.43978 0.40957 0.0
C873 C 0.73552 0.37774 0.40827 0.0
C874 C 0.73772 0.41903 0.46765 0.0
C875 C 0.75199 0.41325 0.50364 0.0
C876 C 0.73422 0.42009 0.53891 0.0
C877 C 0.70087 0.43297 0.53729 0.0
C878 C 0.68539 0.438 0.50067 0.0
C879 C 0.70427 0.43135 0.46553 0.0
loop_
_geom_bond_atom_site_label_1
_geom_bond_atom_site_label_2
_geom_bond_distance
_geom_bond_site_symmetry_2
_ccdc_geom_bond_type
H0 C3 0.931 . S
H1 C6 0.928 . S
H2 C8 0.930 . S
C3 H0 0.931 . S
C3 C4 1.413 . S
C3 C5 1.360 . S
C4 C3 1.413 . S
C4 C8 1.429 . S
C5 C3 1.360 . S
C5 C6 1.372 . S
C6 H1 0.928 . S
C6 C5 1.372 . S
C6 C7 1.404 . S
C7 C6 1.404 . S
C7 C8 1.391 . S
C8 H2 0.930 . S
C8 C4 1.429 . S
C8 C7 1.391 . S
H9 C12 0.931 . S
H10 C15 0.928 . S
H11 C17 0.930 . S
C12 H9 0.931 . S
C12 C13 1.413 . S
C12 C14 1.360 . S
C13 C12 1.413 . S
C13 C17 1.429 . S
C14 C12 1.360 . S
C14 C15 1.372 . S
C15 H10 0.928 . S
C15 C14 1.372 . S
C15 C16 1.404 . S
C16 C15 1.404 . S
C16 C17 1.391 . S
C17 H11 0.930 . S
C17 C13 1.429 . S
C17 C16 1.391 . S
H18 C21 0.931 . S
H19 C24 0.928 . S
H20 C26 0.930 . S
C21 H18 0.931 . S
C21 C22 1.413 . S
C21 C23 1.360 . S
C22 C21 1.413 . S
C22 C26 1.429 . S
C23 C21 1.360 . S
C23 C24 1.372 . S
C24 H19 0.928 . S
C24 C23 1.372 . S
C24 C25 1.404 . S
C25 C24 1.404 . S
C25 C26 1.391 . S
C26 H20 0.930 . S
C26 C22 1.429 . S
C26 C25 1.391 . S
H27 C30 0.931 . S
H28 C33 0.928 . S
H29 C35 0.930 . S
C30 H27 0.931 . S
C30 C31 1.413 . S
C30 C32 1.360 . S
C31 C30 1.413 . S
C31 C35 1.429 . S
C32 C30 1.360 . S
C32 C33 1.372 . S
C33 H28 0.928 . S
C33 C32 1.372 . S
C33 C34 1.404 . S
C34 C33 1.404 . S
C34 C35 1.391 . S
C35 H29 0.930 . S
C35 C31 1.429 . S
C35 C34 1.391 . S
H36 C39 0.931 . S
H37 C42 0.928 . S
H38 C44 0.930 . S
C39 H36 0.931 . S
C39 C40 1.413 . S
C39 C41 1.360 . S
C40 C39 1.413 . S
C40 C44 1.429 . S
C41 C39 1.360 . S
C41 C42 1.372 . S
C42 H37 0.928 . S
C42 C41 1.372 . S
C42 C43 1.404 . S
C43 C42 1.404 . S
C43 C44 1.391 . S
C44 H38 0.930 . S
C44 C40 1.429 . S
C44 C43 1.391 . S
H45 C48 0.931 . S
H46 C51 0.928 . S
H47 C53 0.930 . S
C48 H45 0.931 . S
C48 C49 1.413 . S
C48 C50 1.360 . S
C49 C48 1.413 . S
C49 C53 1.429 . S
C50 C48 1.360 . S
C50 C51 1.372 . S
C51 H46 0.928 . S
C51 C50 1.372 . S
C51 C52 1.404 . S
C52 C51 1.404 . S
C52 C53 1.391 . S
C53 H47 0.930 . S
C53 C49 1.429 . S
C53 C52 1.391 . S
H54 C57 0.931 . S
H55 C60 0.928 . S
H56 C62 0.930 . S
C57 H54 0.931 . S
C57 C58 1.413 . S
C57 C59 1.360 . S
C58 C57 1.413 . S
C58 C62 1.429 . S
C59 C57 1.360 . S
C59 C60 1.372 . S
C60 H55 0.928 . S
C60 C59 1.372 . S
C60 C61 1.404 . S
C61 C60 1.404 . S
C61 C62 1.391 . S
C62 H56 0.930 . S
C62 C58 1.429 . S
C62 C61 1.391 . S
H63 C66 0.931 . S
H64 C69 0.928 . S
H65 C71 0.930 . S
C66 H63 0.931 . S
C66 C67 1.413 . S
C66 C68 1.360 . S
C67 C66 1.413 . S
C67 C71 1.429 . S
C68 C66 1.360 . S
C68 C69 1.372 . S
C69 H64 0.928 . S
C69 C68 1.372 . S
C69 C70 1.404 . S
C70 C69 1.404 . S
C70 C71 1.391 . S
C71 H65 0.930 . S
C71 C67 1.429 . S
C71 C70 1.391 . S
La72 C74 2.928 . S
La72 O92 2.521 . S
La72 O93 2.628 . S
La72 O94 2.554 1_545 S
La72 O95 2.757 1_545 S
La72 O96 2.470 . S
La72 O101 2.482 1_455 S
La72 O103 2.503 1_445 S
La73 C83 2.913 1_545 S
La73 O95 2.472 1_645 S
La73 O97 2.520 1_655 S
La73 O98 2.513 1_545 S
La73 O99 2.608 1_545 S
La73 O100 2.566 . S
La73 O101 2.767 . S
La73 O102 2.457 1_545 S
C74 La72 2.928 . S
C74 C75 1.503 . S
C74 O92 1.261 . S
C74 O93 1.243 . S
C75 C74 1.503 . S
C75 C76 1.394 . S
C75 C80 1.373 . S
C76 C75 1.394 . S
C76 C77 1.380 . S
C76 H104 0.930 . S
C77 C76 1.380 . S
C77 C78 1.376 . S
C77 H105 0.930 . S
C78 C77 1.376 . S
C78 C79 1.370 . S
C79 C78 1.370 . S
C79 C80 1.396 . S
C79 H106 0.929 . S
C80 C75 1.373 . S
C80 C79 1.396 . S
C80 H107 0.929 . S
C81 O94 1.240 . S
C81 O95 1.289 . S
C82 O96 1.258 . S
C82 O97 1.256 . S
C83 La73 2.913 1_565 S
C83 C84 1.503 . S
C83 O98 1.261 . S
C83 O99 1.243 . S
C84 C83 1.503 . S
C84 C85 1.394 . S
C84 C89 1.373 . S
C85 C84 1.394 . S
C85 C86 1.380 . S
C85 H108 0.930 . S
C86 C85 1.380 . S
C86 C87 1.376 . S
C86 H109 0.930 . S
C87 C86 1.376 . S
C87 C88 1.370 . S
C88 C87 1.370 . S
C88 C89 1.396 . S
C88 H110 0.929 . S
C89 C84 1.373 . S
C89 C88 1.396 . S
C89 H111 0.929 . S
C90 O100 1.240 . S
C90 O101 1.289 . S
C91 O102 1.258 . S
C91 O103 1.256 . S
O92 La72 2.521 . S
O92 C74 1.261 . S
O93 La72 2.628 . S
O93 C74 1.243 . S
O94 La72 2.554 1_565 S
O94 C81 1.240 . S
O95 La72 2.757 1_565 S
O95 La73 2.472 1_465 S
O95 C81 1.289 . S
O96 La72 2.470 . S
O96 C82 1.258 . S
O97 La73 2.520 1_455 S
O97 C82 1.256 . S
O98 La73 2.513 1_565 S
O98 C83 1.261 . S
O99 La73 2.608 1_565 S
O99 C83 1.243 . S
O100 La73 2.566 . S
O100 C90 1.240 . S
O101 La72 2.482 1_655 S
O101 La73 2.767 . S
O101 C90 1.289 . S
O102 La73 2.457 1_565 S
O102 C91 1.258 . S
O103 La72 2.503 1_665 S
O103 C91 1.256 . S
H104 C76 0.930 . S
H105 C77 0.930 . S
H106 C79 0.929 . S
H107 C80 0.929 . S
H108 C85 0.930 . S
H109 C86 0.930 . S
H110 C88 0.929 . S
H111 C89 0.929 . S
La112 C114 2.928 . S
La112 O132 2.521 . S
La112 O133 2.628 . S
La112 O134 2.554 1_545 S
La112 O135 2.757 1_545 S
La112 O136 2.470 . S
La112 O141 2.482 1_554 S
La112 O143 2.503 1_544 S
La113 C123 2.928 1_545 S
La113 O135 2.482 1_546 S
La113 O137 2.503 1_556 S
La113 O138 2.519 1_545 S
La113 O139 2.628 1_545 S
La113 O140 2.554 . S
La113 O141 2.757 . S
La113 O142 2.470 1_545 S
C114 La112 2.928 . S
C114 C115 1.503 . S
C114 O132 1.261 . S
C114 O133 1.243 . S
C115 C114 1.503 . S
C115 C116 1.394 . S
C115 C120 1.373 . S
C116 C115 1.394 . S
C116 C117 1.380 . S
C116 H144 0.930 . S
C117 C116 1.380 . S
C117 C118 1.376 . S
C117 H145 0.930 . S
C118 C117 1.376 . S
C118 C119 1.370 . S
C119 C118 1.370 . S
C119 C120 1.396 . S
C119 H146 0.929 . S
C120 C115 1.373 . S
C120 C119 1.396 . S
C120 H147 0.929 . S
C121 O134 1.240 . S
C121 O135 1.289 . S
C122 O136 1.258 . S
C122 O137 1.256 . S
C123 La113 2.928 1_565 S
C123 C124 1.503 . S
C123 O138 1.296 . S
C123 O139 1.243 . S
C124 C123 1.503 . S
C124 C125 1.394 . S
C124 C129 1.373 . S
C125 C124 1.394 . S
C125 C126 1.380 . S
C125 H148 0.930 . S
C126 C125 1.380 . S
C126 C127 1.376 . S
C126 H149 0.930 . S
C127 C126 1.376 . S
C127 C128 1.370 . S
C128 C127 1.370 . S
C128 C129 1.396 . S
C128 H150 0.929 . S
C129 C124 1.373 . S
C129 C128 1.396 . S
C129 H151 0.929 . S
C130 O140 1.240 . S
C130 O141 1.289 . S
C131 O142 1.258 . S
C131 O143 1.256 . S
O132 La112 2.521 . S
O132 C114 1.261 . S
O133 La112 2.628 . S
O133 C114 1.243 . S
O134 La112 2.554 1_565 S
O134 C121 1.240 . S
O135 La112 2.757 1_565 S
O135 La113 2.482 1_564 S
O135 C121 1.289 . S
O136 La112 2.470 . S
O136 C122 1.258 . S
O137 La113 2.503 1_554 S
O137 C122 1.256 . S
O138 La113 2.519 1_565 S
O138 C123 1.296 . S
O139 La113 2.628 1_565 S
O139 C123 1.243 . S
O140 La113 2.554 . S
O140 C130 1.240 . S
O141 La112 2.482 1_556 S
O141 La113 2.757 . S
O141 C130 1.289 . S
O142 La113 2.470 1_565 S
O142 C131 1.258 . S
O143 La112 2.503 1_566 S
O143 C131 1.256 . S
H144 C116 0.930 . S
H145 C117 0.930 . S
H146 C119 0.929 . S
H147 C120 0.929 . S
H148 C125 0.930 . S
H149 C126 0.930 . S
H150 C128 0.929 . S
H151 C129 0.929 . S
La152 C154 2.928 . S
La152 O172 2.521 . S
La152 O173 2.628 . S
La152 O174 2.554 . S
La152 O175 2.757 . S
La152 O176 2.470 . S
La152 O181 2.482 . S
La152 O183 2.503 . S
La153 C163 2.928 . S
La153 O175 2.482 . S
La153 O177 2.503 . S
La153 O178 2.521 . S
La153 O179 2.628 . S
La153 O180 2.554 . S
La153 O181 2.757 . S
La153 O182 2.470 . S
C154 La152 2.928 . S
C154 C155 1.503 . S
C154 O172 1.261 . S
C154 O173 1.243 . S
C155 C154 1.503 . S
C155 C156 1.394 . S
C155 C160 1.373 . S
C156 C155 1.394 . S
C156 C157 1.380 . S
C156 H184 0.930 . S
C157 C156 1.380 . S
C157 C158 1.376 . S
C157 H185 0.930 . S
C158 C157 1.376 . S
C158 C159 1.370 . S
C159 C158 1.370 . S
C159 C160 1.396 . S
C159 H186 0.929 . S
C160 C155 1.373 . S
C160 C159 1.396 . S
C160 H187 0.929 . S
C161 O174 1.240 . S
C161 O175 1.289 . S
C162 O176 1.258 . S
C162 O177 1.256 . S
C163 La153 2.928 . S
C163 C164 1.503 . S
C163 O178 1.261 . S
C163 O179 1.243 . S
C164 C163 1.503 . S
C164 C165 1.394 . S
C164 C169 1.373 . S
C165 C164 1.394 . S
C165 C166 1.380 . S
C165 H188 0.930 . S
C166 C165 1.380 . S
C166 C167 1.376 . S
C166 H189 0.930 . S
C167 C166 1.376 . S
C167 C168 1.370 . S
C168 C167 1.370 . S
C168 C169 1.396 . S
C168 H190 0.929 . S
C169 C164 1.373 . S
C169 C168 1.396 . S
C169 H191 0.929 . S
C170 O180 1.240 . S
C170 O181 1.289 . S
C171 O182 1.258 . S
C171 O183 1.256 . S
O172 La152 2.521 . S
O172 C154 1.261 . S
O173 La152 2.628 . S
O173 C154 1.243 . S
O174 La152 2.554 . S
O174 C161 1.240 . S
O175 La152 2.757 . S
O175 La153 2.482 . S
O175 C161 1.289 . S
O176 La152 2.470 . S
O176 C162 1.258 . S
O177 La153 2.503 . S
O177 C162 1.256 . S
O178 La153 2.521 . S
O178 C163 1.261 . S
O179 La153 2.628 . S
O179 C163 1.243 . S
O180 La153 2.554 . S
O180 C170 1.240 . S
O181 La152 2.482 . S
O181 La153 2.757 . S
O181 C170 1.289 . S
O182 La153 2.470 . S
O182 C171 1.258 . S
O183 La152 2.503 . S
O183 C171 1.256 . S
H184 C156 0.930 . S
H185 C157 0.930 . S
H186 C159 0.929 . S
H187 C160 0.929 . S
H188 C165 0.930 . S
H189 C166 0.930 . S
H190 C168 0.929 . S
H191 C169 0.929 . S
La192 C194 2.928 . S
La192 O212 2.521 . S
La192 O213 2.628 . S
La192 O214 2.554 1_455 S
La192 O215 2.757 1_455 S
La192 O216 2.470 . S
La192 O221 2.482 1_554 S
La192 O223 2.503 1_454 S
La193 C203 2.912 1_455 S
La193 O215 2.477 1_456 S
La193 O217 2.519 1_556 S
La193 O218 2.511 1_455 S
La193 O219 2.609 1_455 S
La193 O220 2.563 . S
La193 O221 2.768 . S
La193 O222 2.459 1_455 S
C194 La192 2.928 . S
C194 C195 1.503 . S
C194 O212 1.261 . S
C194 O213 1.243 . S
C195 C194 1.503 . S
C195 C196 1.394 . S
C195 C200 1.373 . S
C196 C195 1.394 . S
C196 C197 1.380 . S
C196 H224 0.930 . S
C197 C196 1.380 . S
C197 C198 1.376 . S
C197 H225 0.930 . S
C198 C197 1.376 . S
C198 C199 1.370 . S
C199 C198 1.370 . S
C199 C200 1.396 . S
C199 H226 0.929 . S
C200 C195 1.373 . S
C200 C199 1.396 . S
C200 H227 0.929 . S
C201 O214 1.240 . S
C201 O215 1.289 . S
C202 O216 1.258 . S
C202 O217 1.256 . S
C203 La193 2.912 1_655 S
C203 C204 1.503 . S
C203 O218 1.261 . S
C203 O219 1.243 . S
C204 C203 1.503 . S
C204 C205 1.394 . S
C204 C209 1.373 . S
C205 C204 1.394 . S
C205 C206 1.380 . S
C205 H228 0.930 . S
C206 C205 1.380 . S
C206 C207 1.376 . S
C206 H229 0.930 . S
C207 C206 1.376 . S
C207 C208 1.370 . S
C208 C207 1.370 . S
C208 C209 1.396 . S
C208 H230 0.929 . S
C209 C204 1.373 . S
C209 C208 1.396 . S
C209 H231 0.929 . S
C210 O220 1.240 . S
C210 O221 1.289 . S
C211 O222 1.258 . S
C211 O223 1.256 . S
O212 La192 2.521 . S
O212 C194 1.261 . S
O213 La192 2.628 . S
O213 C194 1.243 . S
O214 La192 2.554 1_655 S
O214 C201 1.240 . S
O215 La192 2.757 1_655 S
O215 La193 2.477 1_654 S
O215 C201 1.289 . S
O216 La192 2.470 . S
O216 C202 1.258 . S
O217 La193 2.519 1_554 S
O217 C202 1.256 . S
O218 La193 2.511 1_655 S
O218 C203 1.261 . S
O219 La193 2.609 1_655 S
O219 C203 1.243 . S
O220 La193 2.563 . S
O220 C210 1.240 . S
O221 La192 2.482 1_556 S
O221 La193 2.768 . S
O221 C210 1.289 . S
O222 La193 2.459 1_655 S
O222 C211 1.258 . S
O223 La192 2.503 1_656 S
O223 C211 1.256 . S
H224 C196 0.930 . S
H225 C197 0.930 . S
H226 C199 0.929 . S
H227 C200 0.929 . S
H228 C205 0.930 . S
H229 C206 0.930 . S
H230 C208 0.929 . S
H231 C209 0.929 . S
H232 C244 0.930 . S
H233 C246 0.930 . S
H234 C247 0.930 . S
H235 C251 0.959 . S
H236 C251 0.959 . S
H237 C251 0.961 . S
H238 C252 0.960 . S
H239 C252 0.961 . S
H240 C252 0.959 . S
H241 C255 0.929 . S
H242 C256 0.931 . S
H243 C258 0.930 . S
C244 H232 0.930 . S
C244 C245 1.399 . S
C244 C249 1.399 . S
C245 C244 1.399 . S
C245 C246 1.376 . S
C246 H233 0.930 . S
C246 C245 1.376 . S
C246 C247 1.388 . S
C247 H234 0.930 . S
C247 C246 1.388 . S
C247 C248 1.390 . S
C248 C247 1.390 . S
C248 C249 1.394 . S
C248 C254 1.465 . S
C249 C244 1.399 . S
C249 C248 1.394 . S
C249 C250 1.516 . S
C250 C249 1.516 . S
C250 C251 1.502 . S
C250 C252 1.561 . S
C250 C253 1.526 . S
C251 H235 0.959 . S
C251 H236 0.959 . S
C251 H237 0.961 . S
C251 C250 1.502 . S
C252 H238 0.960 . S
C252 H239 0.961 . S
C252 H240 0.959 . S
C252 C250 1.561 . S
C253 C250 1.526 . S
C253 C254 1.396 . S
C253 C258 1.390 . S
C254 C248 1.465 . S
C254 C253 1.396 . S
C254 C255 1.399 . S
C255 H241 0.929 . S
C255 C254 1.399 . S
C255 C256 1.385 . S
C256 H242 0.931 . S
C256 C255 1.385 . S
C256 C257 1.389 . S
C257 C256 1.389 . S
C257 C258 1.387 . S
C258 H243 0.930 . S
C258 C253 1.390 . S
C258 C257 1.387 . S
H259 C271 0.930 . S
H260 C273 0.930 . S
H261 C274 0.930 . S
H262 C278 0.959 . S
H263 C278 0.959 . S
H264 C278 0.961 . S
H265 C279 0.960 . S
H266 C279 0.961 . S
H267 C279 0.959 . S
H268 C282 0.929 . S
H269 C283 0.931 . S
H270 C285 0.930 . S
C271 H259 0.930 . S
C271 C272 1.399 . S
C271 C276 1.399 . S
C272 C271 1.399 . S
C272 C273 1.376 . S
C273 H260 0.930 . S
C273 C272 1.376 . S
C273 C274 1.388 . S
C274 H261 0.930 . S
C274 C273 1.388 . S
C274 C275 1.390 . S
C275 C274 1.390 . S
C275 C276 1.394 . S
C275 C281 1.465 . S
C276 C271 1.399 . S
C276 C275 1.394 . S
C276 C277 1.516 . S
C277 C276 1.516 . S
C277 C278 1.502 . S
C277 C279 1.561 . S
C277 C280 1.526 . S
C278 H262 0.959 . S
C278 H263 0.959 . S
C278 H264 0.961 . S
C278 C277 1.502 . S
C279 H265 0.960 . S
C279 H266 0.961 . S
C279 H267 0.959 . S
C279 C277 1.561 . S
C280 C277 1.526 . S
C280 C281 1.396 . S
C280 C285 1.390 . S
C281 C275 1.465 . S
C281 C280 1.396 . S
C281 C282 1.399 . S
C282 H268 0.929 . S
C282 C281 1.399 . S
C282 C283 1.385 . S
C283 H269 0.931 . S
C283 C282 1.385 . S
C283 C284 1.389 . S
C284 C283 1.389 . S
C284 C285 1.387 . S
C285 H270 0.930 . S
C285 C280 1.390 . S
C285 C284 1.387 . S
H286 C298 0.930 . S
H287 C300 0.930 . S
H288 C301 0.930 . S
H289 C305 0.959 . S
H290 C305 0.959 . S
H291 C305 0.961 . S
H292 C306 0.960 . S
H293 C306 0.961 . S
H294 C306 0.959 . S
H295 C309 0.929 . S
H296 C310 0.931 . S
H297 C312 0.930 . S
C298 H286 0.930 . S
C298 C299 1.399 . S
C298 C303 1.399 . S
C299 C298 1.399 . S
C299 C300 1.376 . S
C300 H287 0.930 . S
C300 C299 1.376 . S
C300 C301 1.388 . S
C301 H288 0.930 . S
C301 C300 1.388 . S
C301 C302 1.390 . S
C302 C301 1.390 . S
C302 C303 1.394 . S
C302 C308 1.465 . S
C303 C298 1.399 . S
C303 C302 1.394 . S
C303 C304 1.516 . S
C304 C303 1.516 . S
C304 C305 1.502 . S
C304 C306 1.561 . S
C304 C307 1.526 . S
C305 H289 0.959 . S
C305 H290 0.959 . S
C305 H291 0.961 . S
C305 C304 1.502 . S
C306 H292 0.960 . S
C306 H293 0.961 . S
C306 H294 0.959 . S
C306 C304 1.561 . S
C307 C304 1.526 . S
C307 C308 1.396 . S
C307 C312 1.390 . S
C308 C302 1.465 . S
C308 C307 1.396 . S
C308 C309 1.399 . S
C309 H295 0.929 . S
C309 C308 1.399 . S
C309 C310 1.385 . S
C310 H296 0.931 . S
C310 C309 1.385 . S
C310 C311 1.389 . S
C311 C310 1.389 . S
C311 C312 1.387 . S
C312 H297 0.930 . S
C312 C307 1.390 . S
C312 C311 1.387 . S
H313 C325 0.930 . S
H314 C327 0.930 . S
H315 C328 0.930 . S
H316 C332 0.959 . S
H317 C332 0.959 . S
H318 C332 0.961 . S
H319 C333 0.960 . S
H320 C333 0.961 . S
H321 C333 0.959 . S
H322 C336 0.929 . S
H323 C337 0.931 . S
H324 C339 0.930 . S
C325 H313 0.930 . S
C325 C326 1.399 . S
C325 C330 1.399 . S
C326 C325 1.399 . S
C326 C327 1.376 . S
C327 H314 0.930 . S
C327 C326 1.376 . S
C327 C328 1.388 . S
C328 H315 0.930 . S
C328 C327 1.388 . S
C328 C329 1.390 . S
C329 C328 1.390 . S
C329 C330 1.394 . S
C329 C335 1.465 . S
C330 C325 1.399 . S
C330 C329 1.394 . S
C330 C331 1.516 . S
C331 C330 1.516 . S
C331 C332 1.502 . S
C331 C333 1.561 . S
C331 C334 1.526 . S
C332 H316 0.959 . S
C332 H317 0.959 . S
C332 H318 0.961 . S
C332 C331 1.502 . S
C333 H319 0.960 . S
C333 H320 0.961 . S
C333 H321 0.959 . S
C333 C331 1.561 . S
C334 C331 1.526 . S
C334 C335 1.396 . S
C334 C339 1.390 . S
C335 C329 1.465 . S
C335 C334 1.396 . S
C335 C336 1.399 . S
C336 H322 0.929 . S
C336 C335 1.399 . S
C336 C337 1.385 . S
C337 H323 0.931 . S
C337 C336 1.385 . S
C337 C338 1.389 . S
C338 C337 1.389 . S
C338 C339 1.387 . S
C339 H324 0.930 . S
C339 C334 1.390 . S
C339 C338 1.387 . S
H340 C352 0.930 . S
H341 C354 0.930 . S
H342 C355 0.930 . S
H343 C359 0.959 . S
H344 C359 0.959 . S
H345 C359 0.961 . S
H346 C360 0.960 . S
H347 C360 0.961 . S
H348 C360 0.959 . S
H349 C363 0.929 . S
H350 C364 0.931 . S
H351 C366 0.930 . S
C352 H340 0.930 . S
C352 C353 1.399 . S
C352 C357 1.399 . S
C353 C352 1.399 . S
C353 C354 1.376 . S
C354 H341 0.930 . S
C354 C353 1.376 . S
C354 C355 1.388 . S
C355 H342 0.930 . S
C355 C354 1.388 . S
C355 C356 1.390 . S
C356 C355 1.390 . S
C356 C357 1.394 . S
C356 C362 1.465 . S
C357 C352 1.399 . S
C357 C356 1.394 . S
C357 C358 1.516 . S
C358 C357 1.516 . S
C358 C359 1.502 . S
C358 C360 1.561 . S
C358 C361 1.526 . S
C359 H343 0.959 . S
C359 H344 0.959 . S
C359 H345 0.961 . S
C359 C358 1.502 . S
C360 H346 0.960 . S
C360 H347 0.961 . S
C360 H348 0.959 . S
C360 C358 1.561 . S
C361 C358 1.526 . S
C361 C362 1.396 . S
C361 C366 1.390 . S
C362 C356 1.465 . S
C362 C361 1.396 . S
C362 C363 1.399 . S
C363 H349 0.929 . S
C363 C362 1.399 . S
C363 C364 1.385 . S
C364 H350 0.931 . S
C364 C363 1.385 . S
C364 C365 1.389 . S
C365 C364 1.389 . S
C365 C366 1.387 . S
C366 H351 0.930 . S
C366 C361 1.390 . S
C366 C365 1.387 . S
H367 C379 0.930 . S
H368 C381 0.930 . S
H369 C382 0.930 . S
H370 C386 0.959 . S
H371 C386 0.959 . S
H372 C386 0.961 . S
H373 C387 0.960 . S
H374 C387 0.961 . S
H375 C387 0.959 . S
H376 C390 0.929 . S
H377 C391 0.931 . S
H378 C393 0.930 . S
C379 H367 0.930 . S
C379 C380 1.399 . S
C379 C384 1.399 . S
C380 C379 1.399 . S
C380 C381 1.376 . S
C381 H368 0.930 . S
C381 C380 1.376 . S
C381 C382 1.388 . S
C382 H369 0.930 . S
C382 C381 1.388 . S
C382 C383 1.390 . S
C383 C382 1.390 . S
C383 C384 1.394 . S
C383 C389 1.465 . S
C384 C379 1.399 . S
C384 C383 1.394 . S
C384 C385 1.516 . S
C385 C384 1.516 . S
C385 C386 1.502 . S
C385 C387 1.561 . S
C385 C388 1.526 . S
C386 H370 0.959 . S
C386 H371 0.959 . S
C386 H372 0.961 . S
C386 C385 1.502 . S
C387 H373 0.960 . S
C387 H374 0.961 . S
C387 H375 0.959 . S
C387 C385 1.561 . S
C388 C385 1.526 . S
C388 C389 1.396 . S
C388 C393 1.390 . S
C389 C383 1.465 . S
C389 C388 1.396 . S
C389 C390 1.399 . S
C390 H376 0.929 . S
C390 C389 1.399 . S
C390 C391 1.385 . S
C391 H377 0.931 . S
C391 C390 1.385 . S
C391 C392 1.389 . S
C392 C391 1.389 . S
C392 C393 1.387 . S
C393 H378 0.930 . S
C393 C388 1.390 . S
C393 C392 1.387 . S
H394 C406 0.930 . S
H395 C408 0.930 . S
H396 C409 0.930 . S
H397 C413 0.959 . S
H398 C413 0.959 . S
H399 C413 0.961 . S
H400 C414 0.960 . S
H401 C414 0.961 . S
H402 C414 0.959 . S
H403 C417 0.929 . S
H404 C418 0.931 . S
H405 C420 0.930 . S
C406 H394 0.930 . S
C406 C407 1.399 . S
C406 C411 1.399 . S
C407 C406 1.399 . S
C407 C408 1.376 . S
C408 H395 0.930 . S
C408 C407 1.376 . S
C408 C409 1.388 . S
C409 H396 0.930 . S
C409 C408 1.388 . S
C409 C410 1.390 . S
C410 C409 1.390 . S
C410 C411 1.394 . S
C410 C416 1.465 . S
C411 C406 1.399 . S
C411 C410 1.394 . S
C411 C412 1.516 . S
C412 C411 1.516 . S
C412 C413 1.502 . S
C412 C414 1.561 . S
C412 C415 1.526 . S
C413 H397 0.959 . S
C413 H398 0.959 . S
C413 H399 0.961 . S
C413 C412 1.502 . S
C414 H400 0.960 . S
C414 H401 0.961 . S
C414 H402 0.959 . S
C414 C412 1.561 . S
C415 C412 1.526 . S
C415 C416 1.396 . S
C415 C420 1.390 . S
C416 C410 1.465 . S
C416 C415 1.396 . S
C416 C417 1.399 . S
C417 H403 0.929 . S
C417 C416 1.399 . S
C417 C418 1.385 . S
C418 H404 0.931 . S
C418 C417 1.385 . S
C418 C419 1.389 . S
C419 C418 1.389 . S
C419 C420 1.387 . S
C420 H405 0.930 . S
C420 C415 1.390 . S
C420 C419 1.387 . S
H421 C433 0.930 . S
H422 C435 0.930 . S
H423 C436 0.930 . S
H424 C440 0.959 . S
H425 C440 0.959 . S
H426 C440 0.961 . S
H427 C441 0.960 . S
H428 C441 0.961 . S
H429 C441 0.959 . S
H430 C444 0.929 . S
H431 C445 0.931 . S
H432 C447 0.930 . S
C433 H421 0.930 . S
C433 C434 1.399 . S
C433 C438 1.399 . S
C434 C433 1.399 . S
C434 C435 1.376 . S
C435 H422 0.930 . S
C435 C434 1.376 . S
C435 C436 1.388 . S
C436 H423 0.930 . S
C436 C435 1.388 . S
C436 C437 1.390 . S
C437 C436 1.390 . S
C437 C438 1.394 . S
C437 C443 1.465 . S
C438 C433 1.399 . S
C438 C437 1.394 . S
C438 C439 1.516 . S
C439 C438 1.516 . S
C439 C440 1.502 . S
C439 C441 1.561 . S
C439 C442 1.526 . S
C440 H424 0.959 . S
C440 H425 0.959 . S
C440 H426 0.961 . S
C440 C439 1.502 . S
C441 H427 0.960 . S
C441 H428 0.961 . S
C441 H429 0.959 . S
C441 C439 1.561 . S
C442 C439 1.526 . S
C442 C443 1.396 . S
C442 C447 1.390 . S
C443 C437 1.465 . S
C443 C442 1.396 . S
C443 C444 1.399 . S
C444 H430 0.929 . S
C444 C443 1.399 . S
C444 C445 1.385 . S
C445 H431 0.931 . S
C445 C444 1.385 . S
C445 C446 1.389 . S
C446 C445 1.389 . S
C446 C447 1.387 . S
C447 H432 0.930 . S
C447 C442 1.390 . S
C447 C446 1.387 . S
H448 C460 0.930 . S
H449 C462 0.930 . S
H450 C463 0.930 . S
H451 C467 0.959 . S
H452 C467 0.959 . S
H453 C467 0.961 . S
H454 C468 0.960 . S
H455 C468 0.961 . S
H456 C468 0.959 . S
H457 C471 0.929 . S
H458 C472 0.931 . S
H459 C474 0.930 . S
C460 H448 0.930 . S
C460 C461 1.399 . S
C460 C465 1.399 . S
C461 C460 1.399 . S
C461 C462 1.376 . S
C462 H449 0.930 . S
C462 C461 1.376 . S
C462 C463 1.388 . S
C463 H450 0.930 . S
C463 C462 1.388 . S
C463 C464 1.390 . S
C464 C463 1.390 . S
C464 C465 1.394 . S
C464 C470 1.465 . S
C465 C460 1.399 . S
C465 C464 1.394 . S
C465 C466 1.516 . S
C466 C465 1.516 . S
C466 C467 1.502 . S
C466 C468 1.561 . S
C466 C469 1.526 . S
C467 H451 0.959 . S
C467 H452 0.959 . S
C467 H453 0.961 . S
C467 C466 1.502 . S
C468 H454 0.960 . S
C468 H455 0.961 . S
C468 H456 0.959 . S
C468 C466 1.561 . S
C469 C466 1.526 . S
C469 C470 1.396 . S
C469 C474 1.390 . S
C470 C464 1.465 . S
C470 C469 1.396 . S
C470 C471 1.399 . S
C471 H457 0.929 . S
C471 C470 1.399 . S
C471 C472 1.385 . S
C472 H458 0.931 . S
C472 C471 1.385 . S
C472 C473 1.389 . S
C473 C472 1.389 . S
C473 C474 1.387 . S
C474 H459 0.930 . S
C474 C469 1.390 . S
C474 C473 1.387 . S
H475 C487 0.930 . S
H476 C489 0.930 . S
H477 C490 0.930 . S
H478 C494 0.959 . S
H479 C494 0.959 . S
H480 C494 0.961 . S
H481 C495 0.960 . S
H482 C495 0.961 . S
H483 C495 0.959 . S
H484 C498 0.929 . S
H485 C499 0.931 . S
H486 C501 0.930 . S
C487 H475 0.930 . S
C487 C488 1.399 . S
C487 C492 1.399 . S
C488 C487 1.399 . S
C488 C489 1.376 . S
C489 H476 0.930 . S
C489 C488 1.376 . S
C489 C490 1.388 . S
C490 H477 0.930 . S
C490 C489 1.388 . S
C490 C491 1.390 . S
C491 C490 1.390 . S
C491 C492 1.394 . S
C491 C497 1.465 . S
C492 C487 1.399 . S
C492 C491 1.394 . S
C492 C493 1.516 . S
C493 C492 1.516 . S
C493 C494 1.502 . S
C493 C495 1.561 . S
C493 C496 1.526 . S
C494 H478 0.959 . S
C494 H479 0.959 . S
C494 H480 0.961 . S
C494 C493 1.502 . S
C495 H481 0.960 . S
C495 H482 0.961 . S
C495 H483 0.959 . S
C495 C493 1.561 . S
C496 C493 1.526 . S
C496 C497 1.396 . S
C496 C501 1.390 . S
C497 C491 1.465 . S
C497 C496 1.396 . S
C497 C498 1.399 . S
C498 H484 0.929 . S
C498 C497 1.399 . S
C498 C499 1.385 . S
C499 H485 0.931 . S
C499 C498 1.385 . S
C499 C500 1.389 . S
C500 C499 1.389 . S
C500 C501 1.387 . S
C501 H486 0.930 . S
C501 C496 1.390 . S
C501 C500 1.387 . S
H502 C514 0.930 . S
H503 C516 0.930 . S
H504 C517 0.930 . S
H505 C521 0.959 . S
H506 C521 0.959 . S
H507 C521 0.961 . S
H508 C522 0.960 . S
H509 C522 0.961 . S
H510 C522 0.959 . S
H511 C525 0.929 . S
H512 C526 0.931 . S
H513 C528 0.930 . S
C514 H502 0.930 . S
C514 C515 1.399 . S
C514 C519 1.399 . S
C515 C514 1.399 . S
C515 C516 1.376 . S
C516 H503 0.930 . S
C516 C515 1.376 . S
C516 C517 1.388 . S
C517 H504 0.930 . S
C517 C516 1.388 . S
C517 C518 1.390 . S
C518 C517 1.390 . S
C518 C519 1.394 . S
C518 C524 1.465 . S
C519 C514 1.399 . S
C519 C518 1.394 . S
C519 C520 1.516 . S
C520 C519 1.516 . S
C520 C521 1.502 . S
C520 C522 1.561 . S
C520 C523 1.526 . S
C521 H505 0.959 . S
C521 H506 0.959 . S
C521 H507 0.961 . S
C521 C520 1.502 . S
C522 H508 0.960 . S
C522 H509 0.961 . S
C522 H510 0.959 . S
C522 C520 1.561 . S
C523 C520 1.526 . S
C523 C524 1.396 . S
C523 C528 1.390 . S
C524 C518 1.465 . S
C524 C523 1.396 . S
C524 C525 1.399 . S
C525 H511 0.929 . S
C525 C524 1.399 . S
C525 C526 1.385 . S
C526 H512 0.931 . S
C526 C525 1.385 . S
C526 C527 1.389 . S
C527 C526 1.389 . S
C527 C528 1.387 . S
C528 H513 0.930 . S
C528 C523 1.390 . S
C528 C527 1.387 . S
H529 C541 0.930 . S
H530 C543 0.930 . S
H531 C544 0.930 . S
H532 C548 0.959 . S
H533 C548 0.959 . S
H534 C548 0.961 . S
H535 C549 0.960 . S
H536 C549 0.961 . S
H537 C549 0.959 . S
H538 C552 0.929 . S
H539 C553 0.931 . S
H540 C555 0.930 . S
C541 H529 0.930 . S
C541 C542 1.399 . S
C541 C546 1.399 . S
C542 C541 1.399 . S
C542 C543 1.376 . S
C543 H530 0.930 . S
C543 C542 1.376 . S
C543 C544 1.388 . S
C544 H531 0.930 . S
C544 C543 1.388 . S
C544 C545 1.390 . S
C545 C544 1.390 . S
C545 C546 1.394 . S
C545 C551 1.465 . S
C546 C541 1.399 . S
C546 C545 1.394 . S
C546 C547 1.516 . S
C547 C546 1.516 . S
C547 C548 1.502 . S
C547 C549 1.561 . S
C547 C550 1.526 . S
C548 H532 0.959 . S
C548 H533 0.959 . S
C548 H534 0.961 . S
C548 C547 1.502 . S
C549 H535 0.960 . S
C549 H536 0.961 . S
C549 H537 0.959 . S
C549 C547 1.561 . S
C550 C547 1.526 . S
C550 C551 1.396 . S
C550 C555 1.390 . S
C551 C545 1.465 . S
C551 C550 1.396 . S
C551 C552 1.399 . S
C552 H538 0.929 . S
C552 C551 1.399 . S
C552 C553 1.385 . S
C553 H539 0.931 . S
C553 C552 1.385 . S
C553 C554 1.389 . S
C554 C553 1.389 . S
C554 C555 1.387 . S
C555 H540 0.930 . S
C555 C550 1.390 . S
C555 C554 1.387 . S
H556 C568 0.930 . S
H557 C570 0.930 . S
H558 C571 0.930 . S
H559 C575 0.959 . S
H560 C575 0.959 . S
H561 C575 0.961 . S
H562 C576 0.960 . S
H563 C576 0.961 . S
H564 C576 0.959 . S
H565 C579 0.929 . S
H566 C580 0.931 . S
H567 C582 0.930 . S
C568 H556 0.930 . S
C568 C569 1.399 . S
C568 C573 1.399 . S
C569 C568 1.399 . S
C569 C570 1.376 . S
C570 H557 0.930 . S
C570 C569 1.376 . S
C570 C571 1.388 . S
C571 H558 0.930 . S
C571 C570 1.388 . S
C571 C572 1.390 . S
C572 C571 1.390 . S
C572 C573 1.394 . S
C572 C578 1.465 . S
C573 C568 1.399 . S
C573 C572 1.394 . S
C573 C574 1.516 . S
C574 C573 1.516 . S
C574 C575 1.502 . S
C574 C576 1.561 . S
C574 C577 1.526 . S
C575 H559 0.959 . S
C575 H560 0.959 . S
C575 H561 0.961 . S
C575 C574 1.502 . S
C576 H562 0.960 . S
C576 H563 0.961 . S
C576 H564 0.959 . S
C576 C574 1.561 . S
C577 C574 1.526 . S
C577 C578 1.396 . S
C577 C582 1.390 . S
C578 C572 1.465 . S
C578 C577 1.396 . S
C578 C579 1.399 . S
C579 H565 0.929 . S
C579 C578 1.399 . S
C579 C580 1.385 . S
C580 H566 0.931 . S
C580 C579 1.385 . S
C580 C581 1.389 . S
C581 C580 1.389 . S
C581 C582 1.387 . S
C582 H567 0.930 . S
C582 C577 1.390 . S
C582 C581 1.387 . S
H583 C595 0.930 . S
H584 C597 0.930 . S
H585 C598 0.930 . S
H586 C602 0.959 . S
H587 C602 0.959 . S
H588 C602 0.961 . S
H589 C603 0.960 . S
H590 C603 0.961 . S
H591 C603 0.959 . S
H592 C606 0.929 . S
H593 C607 0.931 . S
H594 C609 0.930 . S
C595 H583 0.930 . S
C595 C596 1.399 . S
C595 C600 1.399 . S
C596 C595 1.399 . S
C596 C597 1.376 . S
C597 H584 0.930 . S
C597 C596 1.376 . S
C597 C598 1.388 . S
C598 H585 0.930 . S
C598 C597 1.388 . S
C598 C599 1.390 . S
C599 C598 1.390 . S
C599 C600 1.394 . S
C599 C605 1.465 . S
C600 C595 1.399 . S
C600 C599 1.394 . S
C600 C601 1.516 . S
C601 C600 1.516 . S
C601 C602 1.502 . S
C601 C603 1.561 . S
C601 C604 1.526 . S
C602 H586 0.959 . S
C602 H587 0.959 . S
C602 H588 0.961 . S
C602 C601 1.502 . S
C603 H589 0.960 . S
C603 H590 0.961 . S
C603 H591 0.959 . S
C603 C601 1.561 . S
C604 C601 1.526 . S
C604 C605 1.396 . S
C604 C609 1.390 . S
C605 C599 1.465 . S
C605 C604 1.396 . S
C605 C606 1.399 . S
C606 H592 0.929 . S
C606 C605 1.399 . S
C606 C607 1.385 . S
C607 H593 0.931 . S
C607 C606 1.385 . S
C607 C608 1.389 . S
C608 C607 1.389 . S
C608 C609 1.387 . S
C609 H594 0.930 . S
C609 C604 1.390 . S
C609 C608 1.387 . S
H610 C622 0.930 . S
H611 C624 0.930 . S
H612 C625 0.930 . S
H613 C629 0.959 . S
H614 C629 0.959 . S
H615 C629 0.961 . S
H616 C630 0.960 . S
H617 C630 0.961 . S
H618 C630 0.959 . S
H619 C633 0.929 . S
H620 C634 0.931 . S
H621 C636 0.930 . S
C622 H610 0.930 . S
C622 C623 1.399 . S
C622 C627 1.399 . S
C623 C622 1.399 . S
C623 C624 1.376 . S
C624 H611 0.930 . S
C624 C623 1.376 . S
C624 C625 1.388 . S
C625 H612 0.930 . S
C625 C624 1.388 . S
C625 C626 1.390 . S
C626 C625 1.390 . S
C626 C627 1.394 . S
C626 C632 1.465 . S
C627 C622 1.399 . S
C627 C626 1.394 . S
C627 C628 1.516 . S
C628 C627 1.516 . S
C628 C629 1.502 . S
C628 C630 1.561 . S
C628 C631 1.526 . S
C629 H613 0.959 . S
C629 H614 0.959 . S
C629 H615 0.961 . S
C629 C628 1.502 . S
C630 H616 0.960 . S
C630 H617 0.961 . S
C630 H618 0.959 . S
C630 C628 1.561 . S
C631 C628 1.526 . S
C631 C632 1.396 . S
C631 C636 1.390 . S
C632 C626 1.465 . S
C632 C631 1.396 . S
C632 C633 1.399 . S
C633 H619 0.929 . S
C633 C632 1.399 . S
C633 C634 1.385 . S
C634 H620 0.931 . S
C634 C633 1.385 . S
C634 C635 1.389 . S
C635 C634 1.389 . S
C635 C636 1.387 . S
C636 H621 0.930 . S
C636 C631 1.390 . S
C636 C635 1.387 . S
H637 C649 0.930 . S
H638 C651 0.930 . S
H639 C652 0.930 . S
H640 C656 0.959 . S
H641 C656 0.959 . S
H642 C656 0.961 . S
H643 C657 0.960 . S
H644 C657 0.961 . S
H645 C657 0.959 . S
H646 C660 0.929 . S
H647 C661 0.931 . S
H648 C663 0.930 . S
C649 H637 0.930 . S
C649 C650 1.399 . S
C649 C654 1.399 . S
C650 C649 1.399 . S
C650 C651 1.376 . S
C651 H638 0.930 . S
C651 C650 1.376 . S
C651 C652 1.388 . S
C652 H639 0.930 . S
C652 C651 1.388 . S
C652 C653 1.390 . S
C653 C652 1.390 . S
C653 C654 1.394 . S
C653 C659 1.465 . S
C654 C649 1.399 . S
C654 C653 1.394 . S
C654 C655 1.516 . S
C655 C654 1.516 . S
C655 C656 1.502 . S
C655 C657 1.561 . S
C655 C658 1.526 . S
C656 H640 0.959 . S
C656 H641 0.959 . S
C656 H642 0.961 . S
C656 C655 1.502 . S
C657 H643 0.960 . S
C657 H644 0.961 . S
C657 H645 0.959 . S
C657 C655 1.561 . S
C658 C655 1.526 . S
C658 C659 1.396 . S
C658 C663 1.390 . S
C659 C653 1.465 . S
C659 C658 1.396 . S
C659 C660 1.399 . S
C660 H646 0.929 . S
C660 C659 1.399 . S
C660 C661 1.385 . S
C661 H647 0.931 . S
C661 C660 1.385 . S
C661 C662 1.389 . S
C662 C661 1.389 . S
C662 C663 1.387 . S
C663 H648 0.930 . S
C663 C658 1.390 . S
C663 C662 1.387 . S
H664 C676 0.930 . S
H665 C678 0.930 . S
H666 C679 0.930 . S
H667 C683 0.959 . S
H668 C683 0.959 . S
H669 C683 0.961 . S
H670 C684 0.960 . S
H671 C684 0.961 . S
H672 C684 0.959 . S
H673 C687 0.929 . S
H674 C688 0.931 . S
H675 C690 0.930 . S
C676 H664 0.930 . S
C676 C677 1.399 . S
C676 C681 1.399 . S
C677 C676 1.399 . S
C677 C678 1.376 . S
C678 H665 0.930 . S
C678 C677 1.376 . S
C678 C679 1.388 . S
C679 H666 0.930 . S
C679 C678 1.388 . S
C679 C680 1.390 . S
C680 C679 1.390 . S
C680 C681 1.394 . S
C680 C686 1.465 . S
C681 C676 1.399 . S
C681 C680 1.394 . S
C681 C682 1.516 . S
C682 C681 1.516 . S
C682 C683 1.502 . S
C682 C684 1.561 . S
C682 C685 1.526 . S
C683 H667 0.959 . S
C683 H668 0.959 . S
C683 H669 0.961 . S
C683 C682 1.502 . S
C684 H670 0.960 . S
C684 H671 0.961 . S
C684 H672 0.959 . S
C684 C682 1.561 . S
C685 C682 1.526 . S
C685 C686 1.396 . S
C685 C690 1.390 . S
C686 C680 1.465 . S
C686 C685 1.396 . S
C686 C687 1.399 . S
C687 H673 0.929 . S
C687 C686 1.399 . S
C687 C688 1.385 . S
C688 H674 0.931 . S
C688 C687 1.385 . S
C688 C689 1.389 . S
C689 C688 1.389 . S
C689 C690 1.387 . S
C690 H675 0.930 . S
C690 C685 1.390 . S
C690 C689 1.387 . S
H691 C703 0.930 . S
H692 C705 0.930 . S
H693 C706 0.930 . S
H694 C710 0.959 . S
H695 C710 0.959 . S
H696 C710 0.961 . S
H697 C711 0.960 . S
H698 C711 0.961 . S
H699 C711 0.959 . S
H700 C714 0.929 . S
H701 C715 0.931 . S
H702 C717 0.930 . S
C703 H691 0.930 . S
C703 C704 1.399 . S
C703 C708 1.399 . S
C704 C703 1.399 . S
C704 C705 1.376 . S
C705 H692 0.930 . S
C705 C704 1.376 . S
C705 C706 1.388 . S
C706 H693 0.930 . S
C706 C705 1.388 . S
C706 C707 1.390 . S
C707 C706 1.390 . S
C707 C708 1.394 . S
C707 C713 1.465 . S
C708 C703 1.399 . S
C708 C707 1.394 . S
C708 C709 1.516 . S
C709 C708 1.516 . S
C709 C710 1.502 . S
C709 C711 1.561 . S
C709 C712 1.526 . S
C710 H694 0.959 . S
C710 H695 0.959 . S
C710 H696 0.961 . S
C710 C709 1.502 . S
C711 H697 0.960 . S
C711 H698 0.961 . S
C711 H699 0.959 . S
C711 C709 1.561 . S
C712 C709 1.526 . S
C712 C713 1.396 . S
C712 C717 1.390 . S
C713 C707 1.465 . S
C713 C712 1.396 . S
C713 C714 1.399 . S
C714 H700 0.929 . S
C714 C713 1.399 . S
C714 C715 1.385 . S
C715 H701 0.931 . S
C715 C714 1.385 . S
C715 C716 1.389 . S
C716 C715 1.389 . S
C716 C717 1.387 . S
C717 H702 0.930 . S
C717 C712 1.390 . S
C717 C716 1.387 . S
H718 C730 0.930 . S
H719 C732 0.930 . S
H720 C733 0.930 . S
H721 C737 0.959 . S
H722 C737 0.959 . S
H723 C737 0.961 . S
H724 C738 0.960 . S
H725 C738 0.961 . S
H726 C738 0.959 . S
H727 C741 0.929 . S
H728 C742 0.931 . S
H729 C744 0.930 . S
C730 H718 0.930 . S
C730 C731 1.399 . S
C730 C735 1.399 . S
C731 C730 1.399 . S
C731 C732 1.376 . S
C732 H719 0.930 . S
C732 C731 1.376 . S
C732 C733 1.388 . S
C733 H720 0.930 . S
C733 C732 1.388 . S
C733 C734 1.390 . S
C734 C733 1.390 . S
C734 C735 1.394 . S
C734 C740 1.465 . S
C735 C730 1.399 . S
C735 C734 1.394 . S
C735 C736 1.516 . S
C736 C735 1.516 . S
C736 C737 1.502 . S
C736 C738 1.561 . S
C736 C739 1.526 . S
C737 H721 0.959 . S
C737 H722 0.959 . S
C737 H723 0.961 . S
C737 C736 1.502 . S
C738 H724 0.960 . S
C738 H725 0.961 . S
C738 H726 0.959 . S
C738 C736 1.561 . S
C739 C736 1.526 . S
C739 C740 1.396 . S
C739 C744 1.390 . S
C740 C734 1.465 . S
C740 C739 1.396 . S
C740 C741 1.399 . S
C741 H727 0.929 . S
C741 C740 1.399 . S
C741 C742 1.385 . S
C742 H728 0.931 . S
C742 C741 1.385 . S
C742 C743 1.389 . S
C743 C742 1.389 . S
C743 C744 1.387 . S
C744 H729 0.930 . S
C744 C739 1.390 . S
C744 C743 1.387 . S
H745 C757 0.930 . S
H746 C759 0.930 . S
H747 C760 0.930 . S
H748 C764 0.959 . S
H749 C764 0.959 . S
H750 C764 0.961 . S
H751 C765 0.960 . S
H752 C765 0.961 . S
H753 C765 0.959 . S
H754 C768 0.929 . S
H755 C769 0.931 . S
H756 C771 0.930 . S
C757 H745 0.930 . S
C757 C758 1.399 . S
C757 C762 1.399 . S
C758 C757 1.399 . S
C758 C759 1.376 . S
C759 H746 0.930 . S
C759 C758 1.376 . S
C759 C760 1.388 . S
C760 H747 0.930 . S
C760 C759 1.388 . S
C760 C761 1.390 . S
C761 C760 1.390 . S
C761 C762 1.394 . S
C761 C767 1.465 . S
C762 C757 1.399 . S
C762 C761 1.394 . S
C762 C763 1.516 . S
C763 C762 1.516 . S
C763 C764 1.502 . S
C763 C765 1.561 . S
C763 C766 1.526 . S
C764 H748 0.959 . S
C764 H749 0.959 . S
C764 H750 0.961 . S
C764 C763 1.502 . S
C765 H751 0.960 . S
C765 H752 0.961 . S
C765 H753 0.959 . S
C765 C763 1.561 . S
C766 C763 1.526 . S
C766 C767 1.396 . S
C766 C771 1.390 . S
C767 C761 1.465 . S
C767 C766 1.396 . S
C767 C768 1.399 . S
C768 H754 0.929 . S
C768 C767 1.399 . S
C768 C769 1.385 . S
C769 H755 0.931 . S
C769 C768 1.385 . S
C769 C770 1.389 . S
C770 C769 1.389 . S
C770 C771 1.387 . S
C771 H756 0.930 . S
C771 C766 1.390 . S
C771 C770 1.387 . S
H772 C784 0.930 . S
H773 C786 0.930 . S
H774 C787 0.930 . S
H775 C791 0.959 . S
H776 C791 0.959 . S
H777 C791 0.961 . S
H778 C792 0.960 . S
H779 C792 0.961 . S
H780 C792 0.959 . S
H781 C795 0.929 . S
H782 C796 0.931 . S
H783 C798 0.930 . S
C784 H772 0.930 . S
C784 C785 1.399 . S
C784 C789 1.399 . S
C785 C784 1.399 . S
C785 C786 1.376 . S
C786 H773 0.930 . S
C786 C785 1.376 . S
C786 C787 1.388 . S
C787 H774 0.930 . S
C787 C786 1.388 . S
C787 C788 1.390 . S
C788 C787 1.390 . S
C788 C789 1.394 . S
C788 C794 1.465 . S
C789 C784 1.399 . S
C789 C788 1.394 . S
C789 C790 1.516 . S
C790 C789 1.516 . S
C790 C791 1.502 . S
C790 C792 1.561 . S
C790 C793 1.526 . S
C791 H775 0.959 . S
C791 H776 0.959 . S
C791 H777 0.961 . S
C791 C790 1.502 . S
C792 H778 0.960 . S
C792 H779 0.961 . S
C792 H780 0.959 . S
C792 C790 1.561 . S
C793 C790 1.526 . S
C793 C794 1.396 . S
C793 C798 1.390 . S
C794 C788 1.465 . S
C794 C793 1.396 . S
C794 C795 1.399 . S
C795 H781 0.929 . S
C795 C794 1.399 . S
C795 C796 1.385 . S
C796 H782 0.931 . S
C796 C795 1.385 . S
C796 C797 1.389 . S
C797 C796 1.389 . S
C797 C798 1.387 . S
C798 H783 0.930 . S
C798 C793 1.390 . S
C798 C797 1.387 . S
H799 C811 0.930 . S
H800 C813 0.930 . S
H801 C814 0.930 . S
H802 C818 0.959 . S
H803 C818 0.959 . S
H804 C818 0.961 . S
H805 C819 0.960 . S
H806 C819 0.961 . S
H807 C819 0.959 . S
H808 C822 0.929 . S
H809 C823 0.931 . S
H810 C825 0.930 . S
C811 H799 0.930 . S
C811 C812 1.399 . S
C811 C816 1.399 . S
C812 C811 1.399 . S
C812 C813 1.376 . S
C813 H800 0.930 . S
C813 C812 1.376 . S
C813 C814 1.388 . S
C814 H801 0.930 . S
C814 C813 1.388 . S
C814 C815 1.390 . S
C815 C814 1.390 . S
C815 C816 1.394 . S
C815 C821 1.465 . S
C816 C811 1.399 . S
C816 C815 1.394 . S
C816 C817 1.516 . S
C817 C816 1.516 . S
C817 C818 1.502 . S
C817 C819 1.561 . S
C817 C820 1.526 . S
C818 H802 0.959 . S
C818 H803 0.959 . S
C818 H804 0.961 . S
C818 C817 1.502 . S
C819 H805 0.960 . S
C819 H806 0.961 . S
C819 H807 0.959 . S
C819 C817 1.561 . S
C820 C817 1.526 . S
C820 C821 1.396 . S
C820 C825 1.390 . S
C821 C815 1.465 . S
C821 C820 1.396 . S
C821 C822 1.399 . S
C822 H808 0.929 . S
C822 C821 1.399 . S
C822 C823 1.385 . S
C823 H809 0.931 . S
C823 C822 1.385 . S
C823 C824 1.389 . S
C824 C823 1.389 . S
C824 C825 1.387 . S
C825 H810 0.930 . S
C825 C820 1.390 . S
C825 C824 1.387 . S
H826 C838 0.930 . S
H827 C840 0.930 . S
H828 C841 0.930 . S
H829 C845 0.959 . S
H830 C845 0.959 . S
H831 C845 0.961 . S
H832 C846 0.960 . S
H833 C846 0.961 . S
H834 C846 0.959 . S
H835 C849 0.929 . S
H836 C850 0.931 . S
H837 C852 0.930 . S
C838 H826 0.930 . S
C838 C839 1.399 . S
C838 C843 1.399 . S
C839 C838 1.399 . S
C839 C840 1.376 . S
C840 H827 0.930 . S
C840 C839 1.376 . S
C840 C841 1.388 . S
C841 H828 0.930 . S
C841 C840 1.388 . S
C841 C842 1.390 . S
C842 C841 1.390 . S
C842 C843 1.394 . S
C842 C848 1.465 . S
C843 C838 1.399 . S
C843 C842 1.394 . S
C843 C844 1.516 . S
C844 C843 1.516 . S
C844 C845 1.502 . S
C844 C846 1.561 . S
C844 C847 1.526 . S
C845 H829 0.959 . S
C845 H830 0.959 . S
C845 H831 0.961 . S
C845 C844 1.502 . S
C846 H832 0.960 . S
C846 H833 0.961 . S
C846 H834 0.959 . S
C846 C844 1.561 . S
C847 C844 1.526 . S
C847 C848 1.396 . S
C847 C852 1.390 . S
C848 C842 1.465 . S
C848 C847 1.396 . S
C848 C849 1.399 . S
C849 H835 0.929 . S
C849 C848 1.399 . S
C849 C850 1.385 . S
C850 H836 0.931 . S
C850 C849 1.385 . S
C850 C851 1.389 . S
C851 C850 1.389 . S
C851 C852 1.387 . S
C852 H837 0.930 . S
C852 C847 1.390 . S
C852 C851 1.387 . S
H853 C865 0.930 . S
H854 C867 0.930 . S
H855 C868 0.930 . S
H856 C872 0.959 . S
H857 C872 0.959 . S
H858 C872 0.961 . S
H859 C873 0.960 . S
H860 C873 0.961 . S
H861 C873 0.959 . S
H862 C876 0.929 . S
H863 C877 0.931 . S
H864 C879 0.930 . S
C865 H853 0.930 . S
C865 C866 1.399 . S
C865 C870 1.399 . S
C866 C865 1.399 . S
C866 C867 1.376 . S
C867 H854 0.930 . S
C867 C866 1.376 . S
C867 C868 1.388 . S
C868 H855 0.930 . S
C868 C867 1.388 . S
C868 C869 1.390 . S
C869 C868 1.390 . S
C869 C870 1.394 . S
C869 C875 1.465 . S
C870 C865 1.399 . S
C870 C869 1.394 . S
C870 C871 1.516 . S
C871 C870 1.516 . S
C871 C872 1.502 . S
C871 C873 1.561 . S
C871 C874 1.526 . S
C872 H856 0.959 . S
C872 H857 0.959 . S
C872 H858 0.961 . S
C872 C871 1.502 . S
C873 H859 0.960 . S
C873 H860 0.961 . S
C873 H861 0.959 . S
C873 C871 1.561 . S
C874 C871 1.526 . S
C874 C875 1.396 . S
C874 C879 1.390 . S
C875 C869 1.465 . S
C875 C874 1.396 . S
C875 C876 1.399 . S
C876 H862 0.929 . S
C876 C875 1.399 . S
C876 C877 1.385 . S
C877 H863 0.931 . S
C877 C876 1.385 . S
C877 C878 1.389 . S
C878 C877 1.389 . S
C878 C879 1.387 . S
C879 H864 0.930 . S
C879 C874 1.390 . S
C879 C878 1.387 . S
C245 C5 0.948 . S
C257 C78 1.016 . S
C272 C14 0.871 . S
C284 C127 0.935 . S
C311 C162 2.502 . S
C299 C25 2.551 . S
C326 C34 2.464 . S
C338 C201 2.394 . S
C365 C122 1.995 . S
C353 C7 1.900 . S
C392 C81 0.643 . S
C380 C13 0.745 . S
C419 C211 1.909 . S
C407 C23 1.956 . S
C446 C170 1.702 . S
C434 C31 1.722 . S
C461 C4 1.360 . S
C473 C198 1.430 . S
C500 C130 2.302 . S
C488 C22 2.421 . S
C515 C32 2.362 . S
C527 C91 2.330 . S
C542 C16 0.890 . S
C554 C167 0.843 . S
C581 C87 0.981 . S
C569 C41 1.017 . S
C596 C50 0.942 . S
C608 C118 0.870 . S
C623 C61 2.539 . S
C635 C171 2.496 . S
C650 C67 2.469 . S
C662 C210 2.412 . S
C677 C40 1.916 . S
C689 C131 2.015 . S
C716 C90 0.646 . S
C704 C52 0.738 . S
C743 C202 1.897 . S
C731 C59 1.972 . S
C770 C161 1.684 . S
C758 C70 1.716 . S
C785 C43 1.353 . S
C797 C207 1.423 . S
C824 C121 2.314 . S
C812 C58 2.433 . S
C851 C82 2.310 . S
C839 C68 2.337 . S
C866 C49 0.831 . S
C878 C158 0.877 . S
