# Generated by pormake.
# Topology pth, (4,4)-cn, num edge types: 1
# Building blocks:
#     Node 0, Type 0, BuildingBlock: AZAVOO_clean_sbu_0, # of connection points: 4
#     Node 1, Type 0, BuildingBlock: AZAVOO_clean_sbu_0, # of connection points: 4
#     Node 2, Type 0, BuildingBlock: AZAVOO_clean_sbu_0, # of connection points: 4
#     Node 3, Type 1, BuildingBlock: MUDLON_clean_linker_0, # of connection points: 4
#     Node 4, Type 1, BuildingBlock: MUDLON_clean_linker_0, # of connection points: 4
#     Node 5, Type 1, BuildingBlock: MUDLON_clean_linker_0, # of connection points: 4
#     Edge 6, Type (0, 1), BuildingBlock: MIFKUJ_clean_linker_0, # of connection points: 2
#     Edge 7, Type (0, 1), BuildingBlock: MIFKUJ_clean_linker_0, # of connection points: 2
#     Edge 8, Type (0, 1), BuildingBlock: MIFKUJ_clean_linker_0, # of connection points: 2
#     Edge 9, Type (0, 1), BuildingBlock: MIFKUJ_clean_linker_0, # of connection points: 2
#     Edge 10, Type (0, 1), BuildingBlock: MIFKUJ_clean_linker_0, # of connection points: 2
#     Edge 11, Type (0, 1), BuildingBlock: MIFKUJ_clean_linker_0, # of connection points: 2
#     Edge 12, Type (0, 1), BuildingBlock: MIFKUJ_clean_linker_0, # of connection points: 2
#     Edge 13, Type (0, 1), BuildingBlock: MIFKUJ_clean_linker_0, # of connection points: 2
#     Edge 14, Type (0, 1), BuildingBlock: MIFKUJ_clean_linker_0, # of connection points: 2
#     Edge 15, Type (0, 1), BuildingBlock: MIFKUJ_clean_linker_0, # of connection points: 2
#     Edge 16, Type (0, 1), BuildingBlock: MIFKUJ_clean_linker_0, # of connection points: 2
#     Edge 17, Type (0, 1), BuildingBlock: MIFKUJ_clean_linker_0, # of connection points: 2
# Relax obj value: 0.076
# Max RMSD: 0.214
# Mean RMSD: 0.136
data_MOF--net-pth--node1-AZAVOO_clean_sbu_0--node2-MUDLON_clean_linker_0--edge1-MIFKUJ_clean_linker_0
_symmetry_space_group_name_H-M    P1
_symmetry_Int_Tables_number       1
_symmetry_cell_setting            triclinic
loop_
_symmetry_equiv_pos_as_xyz
'x, y, z'
_cell_length_a     40.810193
_cell_length_b     41.515416
_cell_length_c     81.421296
_cell_angle_alpha  90.795589
_cell_angle_beta   92.286168
_cell_angle_gamma 121.6107
loop_
_atom_site_label
_atom_site_type_symbol
_atom_site_fract_x
_atom_site_fract_y
_atom_site_fract_z
_atom_type_partial_charge
Mg0 Mg 0.09402 0.05428 0.03297 0.0
O1 O 0.04302 0.01522 0.015 0.0
O2 O 0.03792 0.05098 0.99602 0.0
Mg3 Mg 0.08663 0.11236 0.00129 0.0
C4 C 0.02618 0.01886 0.00223 0.0
C5 C 0.09948 0.9987 0.05518 0.0
O6 O 0.13423 0.01905 0.04974 0.0
O7 O 0.05817 0.07542 0.04428 0.0
O8 O 0.05791 0.11298 0.02493 0.0
O9 O 0.13481 0.04831 0.0177 0.0
O10 O 0.12022 0.0922 0.01441 0.0
C11 C 0.0489 0.09861 0.03904 0.0
C12 C 0.13831 0.07636 0.00954 0.0
O13 O 0.07433 0.00662 0.05084 0.0
Mg14 Mg 0.9619 0.00301 0.3592 0.0
O15 O 0.01537 0.01582 0.37499 0.0
O16 O 0.03213 0.06497 0.39221 0.0
Mg17 Mg 0.98875 0.08321 0.38767 0.0
C18 C 0.03756 0.03951 0.38642 0.0
C19 C 0.94835 0.93021 0.34098 0.0
O20 O 0.91703 0.91562 0.34928 0.0
O21 O 0.99796 0.05485 0.34415 0.0
O22 O 0.01124 0.10215 0.36202 0.0
O23 O 0.92329 0.96474 0.37809 0.0
O24 O 0.94535 0.02594 0.3776 0.0
C25 C 0.01323 0.09007 0.3478 0.0
C26 C 0.92565 0.99442 0.38478 0.0
O27 O 0.97229 0.96571 0.34219 0.0
Mg28 Mg 0.98171 0.98148 0.69439 0.0
O29 O 0.02857 0.03171 0.71028 0.0
O30 O 0.00087 0.04671 0.72955 0.0
Mg31 Mg 0.93588 0.00517 0.7262 0.0
C32 C 0.03077 0.05233 0.72255 0.0
C33 C 0.05528 0.99068 0.68057 0.0
O34 O 0.05853 0.98323 0.69597 0.0
O35 O 0.96552 0.02026 0.68176 0.0
O36 O 0.93568 0.03131 0.70152 0.0
O37 O 0.98339 0.94065 0.71142 0.0
O38 O 0.94541 0.96332 0.71391 0.0
C39 C 0.94721 0.03533 0.6869 0.0
C40 C 0.95798 0.94275 0.71961 0.0
O41 O 0.02619 0.99234 0.67575 0.0
H42 H 0.98095 0.63036 0.20803 0.0
N43 N 0.05143 0.64203 0.20113 0.0
H44 H 0.96828 0.66308 0.22965 0.0
H45 H 0.09996 0.68643 0.22565 0.0
H46 H 0.08732 0.71842 0.24778 0.0
H47 H 0.1108 0.70469 0.19023 0.0
H48 H 0.11007 0.74313 0.16792 0.0
H49 H 0.98994 0.62355 0.17972 0.0
H50 H 0.98902 0.6613 0.15713 0.0
H51 H 0.00908 0.58667 0.22324 0.0
H52 H 0.05524 0.60359 0.17499 0.0
H53 H 0.98376 0.51965 0.21986 0.0
H54 H 0.02877 0.53602 0.17157 0.0
H55 H 0.91068 0.30166 0.20839 0.0
H56 H 0.93102 0.27578 0.23055 0.0
H57 H 0.04515 0.3763 0.23208 0.0
H58 H 0.02504 0.40124 0.20965 0.0
H59 H 0.01844 0.3666 0.18233 0.0
H60 H 0.02135 0.33166 0.1589 0.0
H61 H 0.90105 0.28745 0.14602 0.0
H62 H 0.8983 0.32298 0.16978 0.0
H63 H 0.91549 0.39486 0.20357 0.0
H64 H 0.93561 0.46184 0.20479 0.0
H65 H 0.04159 0.49026 0.18266 0.0
N66 N 0.95418 0.36453 0.19263 0.0
H67 H 0.02112 0.42396 0.18114 0.0
C68 C 0.04161 0.65626 0.21519 0.0
C69 C 0.00423 0.64931 0.21672 0.0
C70 C 0.99696 0.66779 0.22921 0.0
C71 C 0.02687 0.69359 0.24038 0.0
C72 C 0.0638 0.69918 0.23922 0.0
C73 C 0.07103 0.68072 0.22671 0.0
C74 C 0.05063 0.66139 0.18664 0.0
C75 C 0.08431 0.69489 0.18287 0.0
C76 C 0.0838 0.71668 0.17009 0.0
C77 C 0.04943 0.70533 0.16075 0.0
C78 C 0.01582 0.67112 0.16424 0.0
C79 C 0.01634 0.64941 0.17709 0.0
C80 C 0.0327 0.60106 0.19897 0.0
C81 C 0.01283 0.57634 0.21164 0.0
C82 C 0.99824 0.53754 0.20976 0.0
C83 C 0.00375 0.52232 0.19537 0.0
C84 C 0.02397 0.54678 0.18283 0.0
C85 C 0.03868 0.58555 0.18471 0.0
C86 C 0.96598 0.35335 0.20735 0.0
C87 C 0.93986 0.31834 0.21374 0.0
C88 C 0.95158 0.30368 0.22642 0.0
C89 C 0.98983 0.32391 0.23304 0.0
C90 C 0.01566 0.35973 0.22708 0.0
C91 C 0.00396 0.37427 0.21433 0.0
C92 C 0.95805 0.34774 0.17776 0.0
C93 C 0.99282 0.35021 0.17433 0.0
C94 C 0.99449 0.33014 0.16087 0.0
C95 C 0.96145 0.30686 0.15059 0.0
C96 C 0.92691 0.30502 0.15379 0.0
C97 C 0.92535 0.32544 0.16724 0.0
C98 C 0.96641 0.40405 0.19222 0.0
C99 C 0.94285 0.41561 0.19883 0.0
C100 C 0.95452 0.45386 0.19961 0.0
C101 C 0.99023 0.48143 0.19381 0.0
C102 C 0.01362 0.46975 0.18698 0.0
C103 C 0.00189 0.43155 0.18616 0.0
H104 H 0.73064 0.1506 0.53578 0.0
N105 N 0.65836 0.09552 0.52848 0.0
H106 H 0.77136 0.15609 0.55979 0.0
H107 H 0.63229 0.05728 0.55731 0.0
H108 H 0.67222 0.06361 0.58138 0.0
H109 H 0.6609 0.03145 0.533 0.0
H110 H 0.68775 0.00544 0.51467 0.0
H111 H 0.68164 0.11699 0.49837 0.0
H112 H 0.70822 0.09062 0.47972 0.0
H113 H 0.62576 0.13605 0.52426 0.0
H114 H 0.59865 0.0222 0.5317 0.0
H115 H 0.55696 0.11351 0.52252 0.0
H116 H 0.53053 -0.00018 0.53087 0.0
H117 H 0.37006 0.05914 0.53135 0.0
H118 H 0.33592 0.06465 0.55401 0.0
H119 H 0.30857 0.95492 0.57007 0.0
H120 H 0.34321 0.94965 0.54726 0.0
H121 H 0.31306 0.94356 0.50638 0.0
H122 H 0.28012 0.95051 0.48217 0.0
H123 H 0.36958 0.06877 0.48131 0.0
H124 H 0.40199 0.06162 0.50561 0.0
H125 H 0.43341 0.06704 0.53629 0.0
H126 H 0.50188 0.09027 0.53793 0.0
H127 H 0.47882 0.98736 0.5128 0.0
N128 N 0.37524 0.99755 0.52327 0.0
H129 H 0.40988 0.9634 0.51211 0.0
C130 C 0.67845 0.10341 0.54446 0.0
C131 C 0.71755 0.13219 0.54591 0.0
C132 C 0.74077 0.1353 0.55966 0.0
C133 C 0.72517 0.10977 0.57237 0.0
C134 C 0.68533 0.08307 0.57159 0.0
C135 C 0.66224 0.07967 0.55776 0.0
C136 C 0.6694 0.07643 0.51704 0.0
C137 C 0.6704 0.04416 0.52127 0.0
C138 C 0.68571 0.02918 0.51074 0.0
C139 C 0.70036 0.04613 0.49581 0.0
C140 C 0.69766 0.07728 0.49127 0.0
C141 C 0.6823 0.09223 0.50181 0.0
C142 C 0.61755 0.08109 0.52815 0.0
C143 C 0.60497 0.1063 0.5257 0.0
C144 C 0.56565 0.09334 0.52482 0.0
C145 C 0.53802 0.05475 0.52654 0.0
C146 C 0.5508 0.02957 0.52915 0.0
C147 C 0.59002 0.04247 0.52977 0.0
C148 C 0.35893 0.00365 0.53752 0.0
C149 C 0.3571 0.03635 0.53978 0.0
C150 C 0.33742 0.03946 0.55273 0.0
C151 C 0.31926 0.01007 0.56373 0.0
C152 C 0.3225 0.97815 0.56187 0.0
C153 C 0.34213 0.97501 0.54885 0.0
C154 C 0.35976 0.0019 0.50781 0.0
C155 C 0.32583 0.97076 0.50074 0.0
C156 C 0.30721 0.97479 0.48689 0.0
C157 C 0.3222 0.01025 0.47987 0.0
C158 C 0.35713 0.04119 0.48656 0.0
C159 C 0.3758 0.03708 0.5004 0.0
C160 C 0.41623 0.01291 0.52432 0.0
C161 C 0.44284 0.04917 0.5313 0.0
C162 C 0.48228 0.06272 0.53206 0.0
C163 C 0.49607 0.04067 0.52559 0.0
C164 C 0.46934 0.00482 0.51828 0.0
C165 C 0.42993 0.99112 0.51775 0.0
H166 H 0.63755 0.7032 0.88906 0.0
N167 N 0.63455 0.64305 0.87593 0.0
H168 H 0.67647 0.74088 0.91338 0.0
H169 H 0.66564 0.61878 0.89992 0.0
H170 H 0.7039 0.65583 0.92433 0.0
H171 H 0.70646 0.65289 0.87534 0.0
H172 H 0.75508 0.68927 0.85583 0.0
H173 H 0.62662 0.67496 0.84926 0.0
H174 H 0.67519 0.71108 0.82937 0.0
H175 H 0.5585 0.60552 0.87197 0.0
H176 H 0.65469 0.58946 0.87384 0.0
H177 H 0.51464 0.53802 0.86532 0.0
H178 H 0.61121 0.52199 0.86812 0.0
H179 H 0.38868 0.35243 0.85898 0.0
H180 H 0.35074 0.30883 0.87964 0.0
H181 H 0.4357 0.27708 0.88632 0.0
H182 H 0.47494 0.32299 0.86609 0.0
H183 H 0.44797 0.31473 0.82585 0.0
H184 H 0.40209 0.2902 0.80203 0.0
H185 H 0.37245 0.3741 0.81208 0.0
H186 H 0.4177 0.39781 0.83608 0.0
H187 H 0.4422 0.41106 0.86801 0.0
H188 H 0.48586 0.47712 0.87578 0.0
H189 H 0.57257 0.47878 0.84634 0.0
N190 N 0.45769 0.36608 0.84838 0.0
H191 H 0.52898 0.4114 0.8393 0.0
C192 C 0.64884 0.65841 0.89246 0.0
C193 C 0.65089 0.69211 0.89703 0.0
C194 C 0.67312 0.71356 0.91097 0.0
C195 C 0.69376 0.70159 0.92066 0.0
C196 C 0.68887 0.6661 0.91693 0.0
C197 C 0.66667 0.64469 0.90295 0.0
C198 C 0.66275 0.66129 0.86376 0.0
C199 C 0.69908 0.665 0.86526 0.0
C200 C 0.72693 0.68578 0.85403 0.0
C201 C 0.71906 0.70323 0.84111 0.0
C202 C 0.68231 0.69844 0.83935 0.0
C203 C 0.65447 0.67764 0.85059 0.0
C204 C 0.60971 0.6026 0.87358 0.0
C205 C 0.57 0.58725 0.87129 0.0
C206 C 0.54503 0.54863 0.86755 0.0
C207 C 0.55933 0.52441 0.86617 0.0
C208 C 0.59919 0.53981 0.86881 0.0
C209 C 0.62417 0.57852 0.87233 0.0
C210 C 0.43512 0.34139 0.8611 0.0
C211 C 0.39959 0.3366 0.865 0.0
C212 C 0.37751 0.31109 0.87672 0.0
C213 C 0.38985 0.289 0.88457 0.0
C214 C 0.42547 0.29391 0.88069 0.0
C215 C 0.44789 0.31999 0.8691 0.0
C216 C 0.43625 0.35788 0.83279 0.0
C217 C 0.43228 0.32841 0.82263 0.0
C218 C 0.40615 0.31457 0.80899 0.0
C219 C 0.3834 0.33005 0.80522 0.0
C220 C 0.38919 0.36126 0.81479 0.0
C221 C 0.41532 0.37504 0.82847 0.0
C222 C 0.48246 0.40571 0.85318 0.0
C223 C 0.4706 0.4251 0.86332 0.0
C224 C 0.49565 0.46338 0.86765 0.0
C225 C 0.53288 0.48345 0.86175 0.0
C226 C 0.54444 0.46414 0.85142 0.0
C227 C 0.5195 0.4257 0.84726 0.0
H228 H 0.0208 0.14387 0.0314 0.0
H229 H 0.99677 0.17203 0.05016 0.0
H230 H 0.00792 0.11053 0.09004 0.0
H231 H 0.03262 0.08245 0.07138 0.0
H232 H 0.93775 0.14815 0.07058 0.0
H233 H 0.04582 0.1716 0.12367 0.0
H234 H 0.10831 0.17617 0.12828 0.0
H235 H 0.13933 0.21719 0.07975 0.0
H236 H 0.07726 0.2133 0.07495 0.0
H237 H 0.90942 0.23207 0.1427 0.0
H238 H 0.91615 0.1912 0.12291 0.0
H239 H 0.02385 0.28685 0.10891 0.0
H240 H 0.01726 0.32777 0.12861 0.0
H241 H 0.03134 0.22838 0.11612 0.0
H242 H 0.94303 0.2484 0.08339 0.0
H243 H 0.883 0.24785 0.07747 0.0
H244 H 0.81658 0.12761 0.08295 0.0
H245 H 0.87623 0.12753 0.08913 0.0
C246 C 0.01775 0.13588 0.04411 0.0
C247 C 0.02929 0.11136 0.04994 0.0
C248 C 0.00371 0.15185 0.05479 0.0
C249 C 0.00105 0.14375 0.07151 0.0
C250 C 0.01021 0.11747 0.07719 0.0
C251 C 0.02429 0.10144 0.06651 0.0
C252 C 0.9924 0.16573 0.08314 0.0
C253 C 0.958 0.16544 0.08064 0.0
C254 C 0.01912 0.18874 0.09608 0.0
C255 C 0.05675 0.19172 0.0989 0.0
C256 C 0.06605 0.18168 0.11401 0.0
C257 C 0.10138 0.18415 0.11665 0.0
C258 C 0.12771 0.19683 0.10429 0.0
C259 C 0.11885 0.20724 0.08929 0.0
C260 C 0.08359 0.20487 0.0866 0.0
C261 C 0.9341 0.24451 0.13514 0.0
C262 C 0.96293 0.28308 0.13725 0.0
C263 C 0.93796 0.22111 0.12389 0.0
C264 C 0.97056 0.23599 0.11448 0.0
C265 C 0.99863 0.27475 0.11615 0.0
C266 C 0.99484 0.29808 0.1274 0.0
C267 C 0.97676 0.21106 0.10355 0.0
C268 C 0.01075 0.21072 0.10622 0.0
C269 C 0.94992 0.18802 0.09064 0.0
C270 C 0.91406 0.18803 0.0869 0.0
C271 C 0.9156 0.22189 0.08347 0.0
C272 C 0.88165 0.22169 0.08004 0.0
C273 C 0.84599 0.18774 0.07988 0.0
C274 C 0.84422 0.1539 0.08311 0.0
C275 C 0.87809 0.15396 0.08656 0.0
H276 H 0.81974 0.18763 0.07722 0.0
H277 H 0.15502 0.19868 0.10636 0.0
H278 H 0.87326 0.93097 0.40037 0.0
H279 H 0.83377 0.92796 0.42297 0.0
H280 H 0.89228 0.04981 0.42523 0.0
H281 H 0.93111 0.05305 0.40278 0.0
H282 H 0.87938 0.01966 0.45613 0.0
H283 H 0.80947 0.99894 0.40293 0.0
H284 H 0.77955 0.96404 0.37645 0.0
H285 H 0.70668 0.86288 0.40198 0.0
H286 H 0.73658 0.89715 0.42861 0.0
H287 H 0.76784 0.09012 0.48107 0.0
H288 H 0.80412 0.0697 0.46558 0.0
H289 H 0.71748 0.95292 0.47266 0.0
H290 H 0.68025 0.97323 0.48791 0.0
H291 H 0.74056 0.96487 0.44104 0.0
H292 H 0.80077 0.99081 0.49455 0.0
H293 H 0.82995 0.02679 0.52084 0.0
H294 H 0.92081 0.11752 0.49535 0.0
H295 H 0.89186 0.08237 0.46886 0.0
C296 C 0.87813 0.95712 0.4059 0.0
C297 C 0.90533 0.99228 0.39975 0.0
C298 C 0.85552 0.95532 0.41877 0.0
C299 C 0.86004 0.98868 0.42569 0.0
C300 C 0.88849 0.02375 0.42011 0.0
C301 C 0.9107 0.02554 0.40722 0.0
C302 C 0.83341 0.98775 0.43774 0.0
C303 C 0.84899 0.00755 0.45291 0.0
C304 C 0.79355 0.97092 0.4337 0.0
C305 C 0.77558 0.95043 0.41772 0.0
C306 C 0.78729 0.96918 0.40287 0.0
C307 C 0.7703 0.94953 0.38785 0.0
C308 C 0.74133 0.91123 0.38753 0.0
C309 C 0.7292 0.89252 0.40224 0.0
C310 C 0.74615 0.91204 0.4173 0.0
C311 C 0.75616 0.06007 0.47915 0.0
C312 C 0.72112 0.03328 0.48568 0.0
C313 C 0.77719 0.04845 0.47048 0.0
C314 C 0.76382 0.00982 0.46825 0.0
C315 C 0.72843 0.98287 0.4744 0.0
C316 C 0.70732 0.99452 0.48314 0.0
C317 C 0.78688 0.99814 0.45917 0.0
C318 C 0.77066 0.97599 0.44456 0.0
C319 C 0.82616 0.01276 0.46376 0.0
C320 C 0.844 0.03396 0.47969 0.0
C321 C 0.82685 0.01853 0.49453 0.0
C322 C 0.84336 0.03878 0.50948 0.0
C323 C 0.87719 0.07444 0.50977 0.0
C324 C 0.89461 0.08989 0.49511 0.0
C325 C 0.87819 0.06978 0.48012 0.0
H326 H 0.88992 0.09008 0.52135 0.0
H327 H 0.7282 0.89607 0.37589 0.0
H328 H 0.97331 0.89156 0.73296 0.0
H329 H 0.94291 0.85163 0.75627 0.0
H330 H 0.8787 0.90597 0.76357 0.0
H331 H 0.90829 0.94539 0.7403 0.0
H332 H 0.9078 0.89314 0.79321 0.0
H333 H 0.83757 0.82614 0.74178 0.0
H334 H 0.83215 0.79855 0.71404 0.0
H335 H 0.87042 0.72774 0.73392 0.0
H336 H 0.87655 0.75533 0.76177 0.0
H337 H 0.73606 0.7718 0.83013 0.0
H338 H 0.7864 0.81258 0.81195 0.0
H339 H 0.8227 0.73205 0.80923 0.0
H340 H 0.77135 0.69034 0.82707 0.0
H341 H 0.8183 0.75623 0.77943 0.0
H342 H 0.87823 0.81436 0.83131 0.0
H343 H 0.88387 0.84078 0.8593 0.0
H344 H 0.86742 0.92702 0.8396 0.0
H345 H 0.86129 0.90089 0.81147 0.0
C346 C 0.95314 0.89538 0.73968 0.0
C347 C 0.94318 0.92165 0.73474 0.0
C348 C 0.93582 0.87254 0.75297 0.0
C349 C 0.90849 0.87582 0.76156 0.0
C350 C 0.89988 0.90318 0.75713 0.0
C351 C 0.91683 0.92569 0.74379 0.0
C352 C 0.88637 0.84895 0.7743 0.0
C353 C 0.8882 0.8632 0.79025 0.0
C354 C 0.86178 0.80974 0.77051 0.0
C355 C 0.858 0.79313 0.7538 0.0
C356 C 0.84515 0.80493 0.74021 0.0
C357 C 0.84189 0.78925 0.72448 0.0
C358 C 0.85106 0.76151 0.72221 0.0
C359 C 0.86341 0.7493 0.73569 0.0
C360 C 0.86678 0.76494 0.75144 0.0
C361 C 0.7545 0.76256 0.82555 0.0
C362 C 0.74963 0.72777 0.82998 0.0
C363 C 0.78362 0.78614 0.81535 0.0
C364 C 0.8087 0.77563 0.80947 0.0
C365 C 0.80382 0.74081 0.81375 0.0
C366 C 0.77462 0.71713 0.82399 0.0
C367 C 0.83886 0.80053 0.79829 0.0
C368 C 0.83852 0.78596 0.7826 0.0
C369 C 0.86509 0.83937 0.80239 0.0
C370 C 0.86906 0.8555 0.81927 0.0
C371 C 0.87557 0.83882 0.83294 0.0
C372 C 0.87889 0.85377 0.84884 0.0
C373 C 0.87589 0.88549 0.85124 0.0
C374 C 0.86972 0.90243 0.83773 0.0
C375 C 0.86641 0.88762 0.8218 0.0
H376 H 0.87841 0.89698 0.86356 0.0
H377 H 0.8485 0.74938 0.71003 0.0
H378 H 0.03165 0.95222 0.06985 0.0
H379 H 0.01602 0.89774 0.08655 0.0
H380 H 0.12949 0.91725 0.08049 0.0
H381 H 0.14529 0.97141 0.06384 0.0
H382 H 0.07259 0.84232 0.07537 0.0
H383 H 0.10947 0.94434 0.11565 0.0
H384 H 0.10468 0.99535 0.12895 0.0
H385 H 0.98723 0.91546 0.13941 0.0
H386 H 0.99118 0.86403 0.12596 0.0
H387 H 0.10389 0.7461 0.13864 0.0
H388 H 0.10487 0.7911 0.11942 0.0
H389 H 0.99342 0.7649 0.13426 0.0
H390 H 0.99305 0.7211 0.15411 0.0
H391 H 0.04028 0.83847 0.13368 0.0
H392 H 0.00473 0.73505 0.09615 0.0
H393 H 0.00861 0.68353 0.08285 0.0
H394 H 0.12092 0.76417 0.06681 0.0
H395 H 0.11797 0.81617 0.08022 0.0
C396 C 0.05327 0.94493 0.07211 0.0
C397 C 0.08975 0.96621 0.06556 0.0
C398 C 0.04431 0.91385 0.08165 0.0
C399 C 0.07167 0.90358 0.08477 0.0
C400 C 0.10795 0.92465 0.07817 0.0
C401 C 0.11697 0.95573 0.06873 0.0
C402 C 0.06298 0.87112 0.09503 0.0
C403 C 0.06575 0.84151 0.08815 0.0
C404 C 0.05283 0.86957 0.11153 0.0
C405 C 0.05048 0.90045 0.11963 0.0
C406 C 0.08252 0.93772 0.12066 0.0
C407 C 0.07998 0.96669 0.12825 0.0
C408 C 0.04563 0.95867 0.13497 0.0
C409 C 0.01379 0.92164 0.13416 0.0
C410 C 0.01617 0.89257 0.12657 0.0
C411 C 0.07957 0.7499 0.13784 0.0
C412 C 0.04844 0.73004 0.14795 0.0
C413 C 0.07996 0.77532 0.12669 0.0
C414 C 0.049 0.78107 0.12525 0.0
C415 C 0.01754 0.7608 0.13511 0.0
C416 C 0.01723 0.73549 0.14634 0.0
C417 C 0.05064 0.80986 0.11414 0.0
C418 C 0.04654 0.83884 0.12084 0.0
C419 C 0.05934 0.81069 0.09743 0.0
C420 C 0.06123 0.7795 0.0893 0.0
C421 C 0.03038 0.74179 0.08989 0.0
C422 C 0.03239 0.7125 0.08231 0.0
C423 C 0.06502 0.72056 0.07402 0.0
C424 C 0.09567 0.75796 0.07325 0.0
C425 C 0.09382 0.78736 0.08082 0.0
H426 H 0.06652 0.69784 0.06816 0.0
H427 H 0.04372 0.98114 0.14085 0.0
H428 H 0.05719 0.98763 0.37836 0.0
H429 H 0.11031 0.98297 0.39042 0.0
H430 H 0.14526 0.08112 0.42208 0.0
H431 H 0.0926 0.08632 0.41002 0.0
H432 H 0.20698 0.08296 0.409 0.0
H433 H 0.09238 0.9933 0.43645 0.0
H434 H 0.02577 0.93886 0.43734 0.0
H435 H 0.05813 0.86713 0.41384 0.0
H436 H 0.12488 0.92131 0.41263 0.0
H437 H 0.30915 0.06803 0.47721 0.0
H438 H 0.26632 0.07323 0.4572 0.0
H439 H 0.24052 0.96913 0.43259 0.0
H440 H 0.28344 0.96368 0.45272 0.0
H441 H 0.17647 0.96725 0.43833 0.0
H442 H 0.29324 0.05482 0.41424 0.0
H443 H 0.35994 0.109 0.41332 0.0
H444 H 0.32463 0.18432 0.4299 0.0
H445 H 0.25779 0.13052 0.43116 0.0
C446 C 0.07625 0.00836 0.38784 0.0
C447 C 0.07041 0.0372 0.3933 0.0
C448 C 0.10657 0.0056 0.39472 0.0
C449 C 0.13149 0.03151 0.40723 0.0
C450 C 0.12636 0.06086 0.41242 0.0
C451 C 0.09608 0.06364 0.40557 0.0
C452 C 0.16207 0.02738 0.41544 0.0
C453 C 0.20039 0.05778 0.4155 0.0
C454 C 0.15351 0.99403 0.42345 0.0
C455 C 0.11348 0.96142 0.42428 0.0
C456 C 0.08521 0.96598 0.43136 0.0
C457 C 0.04746 0.93516 0.43195 0.0
C458 C 0.0377 0.89958 0.42561 0.0
C459 C 0.06572 0.89472 0.41872 0.0
C460 C 0.10352 0.92546 0.41809 0.0
C461 C 0.29514 0.04672 0.46731 0.0
C462 C 0.29972 0.01546 0.46654 0.0
C463 C 0.27062 0.04972 0.45586 0.0
C464 C 0.25046 0.02176 0.44329 0.0
C465 C 0.2558 0.99104 0.44219 0.0
C466 C 0.28024 0.98793 0.4537 0.0
C467 C 0.22151 0.02317 0.43221 0.0
C468 C 0.18337 0.99224 0.43161 0.0
C469 C 0.23033 0.05601 0.42367 0.0
C470 C 0.27051 0.08854 0.4229 0.0
C471 C 0.29973 0.08289 0.41781 0.0
C472 C 0.33757 0.11355 0.41721 0.0
C473 C 0.34653 0.15007 0.42157 0.0
C474 C 0.31765 0.15601 0.42652 0.0
C475 C 0.27977 0.12544 0.42716 0.0
H476 H 0.37584 0.17377 0.4211 0.0
H477 H 0.00845 0.87576 0.42607 0.0
H478 H 0.04716 0.10502 0.74718 0.0
H479 H 0.11035 0.15747 0.75716 0.0
H480 H 0.16454 0.12469 0.72175 0.0
H481 H 0.1014 0.07178 0.71175 0.0
H482 H 0.20008 0.13885 0.75195 0.0
H483 H 0.15916 0.20212 0.71591 0.0
H484 H 0.1148 0.22029 0.70414 0.0
H485 H 0.11683 0.27131 0.7507 0.0
H486 H 0.16077 0.25296 0.76283 0.0
H487 H 0.38231 0.29959 0.77489 0.0
H488 H 0.32556 0.25825 0.75668 0.0
H489 H 0.25422 0.27502 0.78907 0.0
H490 H 0.31046 0.31591 0.80735 0.0
H491 H 0.23109 0.27141 0.75667 0.0
H492 H 0.26422 0.20065 0.79331 0.0
H493 H 0.30768 0.18188 0.80558 0.0
H494 H 0.31919 0.14428 0.75796 0.0
H495 H 0.27622 0.16339 0.74536 0.0
C496 C 0.07245 0.10891 0.74147 0.0
C497 C 0.06914 0.08414 0.72865 0.0
C498 C 0.10856 0.1391 0.74712 0.0
C499 C 0.14208 0.14528 0.74003 0.0
C500 C 0.13898 0.12052 0.72732 0.0
C501 C 0.10285 0.09031 0.72163 0.0
C502 C 0.18039 0.17674 0.7464 0.0
C503 C 0.20719 0.16796 0.75265 0.0
C504 C 0.18934 0.21461 0.74757 0.0
C505 C 0.16306 0.22591 0.74031 0.0
C506 C 0.14993 0.21697 0.72367 0.0
C507 C 0.12489 0.22734 0.71693 0.0
C508 C 0.11295 0.24688 0.72667 0.0
C509 C 0.12609 0.25616 0.74317 0.0
C510 C 0.15111 0.24582 0.74998 0.0
C511 C 0.3546 0.29485 0.77801 0.0
C512 C 0.35086 0.31075 0.79265 0.0
C513 C 0.32226 0.27133 0.76758 0.0
C514 C 0.28565 0.26316 0.77167 0.0
C515 C 0.28223 0.28101 0.78568 0.0
C516 C 0.3145 0.30451 0.7961 0.0
C517 C 0.25042 0.23334 0.76238 0.0
C518 C 0.22419 0.2424 0.75566 0.0
C519 C 0.24187 0.19566 0.7608 0.0
C520 C 0.26741 0.18386 0.76837 0.0
C521 C 0.27626 0.18865 0.78544 0.0
C522 C 0.30077 0.17792 0.79246 0.0
C523 C 0.31629 0.162 0.78255 0.0
C524 C 0.30722 0.15668 0.76561 0.0
C525 C 0.28279 0.16746 0.75852 0.0
H526 H 0.33525 0.15371 0.788 0.0
H527 H 0.09356 0.25488 0.72143 0.0
H528 H 0.92145 0.08237 0.69429 0.0
H529 H 0.89172 0.10588 0.67528 0.0
H530 H 0.91586 0.05598 0.6343 0.0
H531 H 0.94644 0.03297 0.65322 0.0
H532 H 0.92114 0.12183 0.62603 0.0
H533 H 0.83084 0.00642 0.65164 0.0
H534 H 0.80067 0.96593 0.67506 0.0
H535 H 0.76925 0.04323 0.69314 0.0
H536 H 0.79973 0.08445 0.66992 0.0
H537 H 0.71967 0.04678 0.58496 0.0
H538 H 0.76325 0.04322 0.60505 0.0
H539 H 0.83347 0.16512 0.60896 0.0
H540 H 0.78931 0.16904 0.58891 0.0
H541 H 0.78322 0.06789 0.63649 0.0
H542 H 0.92904 0.18785 0.61498 0.0
H543 H 0.95721 0.22163 0.58973 0.0
H544 H 0.87341 0.12409 0.56016 0.0
H545 H 0.84509 0.08962 0.58522 0.0
C546 C 0.92113 0.07699 0.68121 0.0
C547 C 0.93567 0.05519 0.67528 0.0
C548 C 0.90415 0.0905 0.67037 0.0
C549 C 0.90088 0.08197 0.65343 0.0
C550 C 0.91799 0.06275 0.64735 0.0
C551 C 0.93535 0.04952 0.65819 0.0
C552 C 0.87586 0.08911 0.64235 0.0
C553 C 0.89109 0.11039 0.62838 0.0
C554 C 0.83645 0.07353 0.64526 0.0
C555 C 0.81792 0.0487 0.65916 0.0
C556 C 0.81774 0.0149 0.66068 0.0
C557 C 0.80055 0.99181 0.6739 0.0
C558 C 0.78316 0.00206 0.6856 0.0
C559 C 0.78281 0.03537 0.68408 0.0
C560 C 0.80002 0.0586 0.67089 0.0
C561 C 0.74387 0.07293 0.59031 0.0
C562 C 0.75077 0.10823 0.58542 0.0
C563 C 0.76894 0.07081 0.60173 0.0
C564 C 0.80166 0.10387 0.60843 0.0
C565 C 0.80855 0.13925 0.60378 0.0
C566 C 0.78332 0.14143 0.59234 0.0
C567 C 0.82843 0.10072 0.62016 0.0
C568 C 0.81347 0.08005 0.63428 0.0
C569 C 0.86773 0.11604 0.61713 0.0
C570 C 0.88467 0.13638 0.60197 0.0
C571 C 0.91668 0.17362 0.60308 0.0
C572 C 0.93267 0.19288 0.58881 0.0
C573 C 0.917 0.17507 0.57335 0.0
C574 C 0.8854 0.13792 0.57214 0.0
C575 C 0.86934 0.11854 0.58638 0.0
H576 H 0.92942 0.19003 0.56232 0.0
H577 H 0.76986 0.98414 0.69583 0.0
H578 H 0.97831 0.01619 0.97704 0.0
H579 H 0.91942 0.96081 0.96525 0.0
H580 H 0.93594 0.88937 -0.00182 0.0
H581 H 0.99455 0.94477 0.01033 0.0
H582 H 0.90667 0.90026 0.94908 0.0
H583 H 0.84852 0.81524 0.00799 0.0
H584 H 0.85014 0.82737 0.03786 0.0
H585 H 0.86783 0.93704 0.02917 0.0
H586 H 0.86578 0.92537 -0.00074 0.0
H587 H 0.76628 0.71474 0.92543 0.0
H588 H 0.82022 0.76622 0.94175 0.0
H589 H 0.7457 0.8024 0.95917 0.0
H590 H 0.691 0.75013 0.9431 0.0
H591 H 0.80087 0.81075 0.98332 0.0
H592 H 0.79423 0.84379 0.92787 0.0
H593 H 0.78884 0.83492 0.89767 0.0
H594 H 0.89512 0.83683 0.89886 0.0
H595 H 0.90081 0.84505 0.92914 0.0
C596 C 0.96951 0.98873 0.9818 0.0
C597 C 0.99117 0.985 0.99468 0.0
C598 C 0.93581 0.95707 0.97502 0.0
C599 C 0.92302 0.921 0.98095 0.0
C600 C 0.94487 0.91703 0.99361 0.0
C601 C 0.97851 0.94873 0.00048 0.0
C602 C 0.8871 0.88756 0.97369 0.0
C603 C 0.88362 0.88071 0.95659 0.0
C604 C 0.8566 0.86242 0.98344 0.0
C605 C 0.85739 0.86954 0.0014 0.0
C606 C 0.85261 0.84188 0.01246 0.0
C607 C 0.85362 0.84868 0.02939 0.0
C608 C 0.85921 0.883 0.03541 0.0
C609 C 0.86365 0.91053 0.0245 0.0
C610 C 0.86262 0.90385 0.00755 0.0
C611 C 0.76094 0.7328 0.93314 0.0
C612 C 0.72433 0.72843 0.9329 0.0
C613 C 0.79194 0.76244 0.94234 0.0
C614 C 0.78701 0.78838 0.95143 0.0
C615 C 0.75005 0.7827 0.95216 0.0
C616 C 0.71894 0.75301 0.94291 0.0
C617 C 0.82106 0.82323 0.95884 0.0
C618 C 0.8241 0.83032 0.97588 0.0
C619 C 0.85078 0.8492 0.94902 0.0
C620 C 0.84773 0.84464 0.93079 0.0
C621 C 0.8163 0.84201 0.92171 0.0
C622 C 0.81321 0.83714 0.90458 0.0
C623 C 0.84156 0.8352 0.89636 0.0
C624 C 0.87314 0.83827 0.90525 0.0
C625 C 0.87632 0.84304 0.9224 0.0
H626 H 0.83906 0.83137 0.8831 0.0
H627 H 0.86002 0.88823 0.04852 0.0
H628 H 0.90271 0.85359 0.33536 0.0
H629 H 0.91658 0.81273 0.31903 0.0
H630 H 0.02597 0.90975 0.30755 0.0
H631 H 0.01208 0.95091 0.32364 0.0
H632 H 0.98986 0.86508 0.28075 0.0
H633 H 0.02064 0.84804 0.33619 0.0
H634 H 0.00863 0.83351 0.36539 0.0
H635 H 0.91439 0.72164 0.35139 0.0
H636 H 0.92551 0.73569 0.32208 0.0
H637 H 0.07423 0.76879 0.24883 0.0
H638 H 0.0614 0.80768 0.267 0.0
H639 H 0.95096 0.70997 0.27674 0.0
H640 H 0.96418 0.67043 0.25899 0.0
H641 H 0.98712 0.7543 0.30452 0.0
H642 H 0.95673 0.77186 0.24899 0.0
H643 H 0.96954 0.78664 0.21985 0.0
H644 H 0.06396 0.89816 0.23422 0.0
H645 H 0.05205 0.88385 0.26346 0.0
C646 C 0.92971 0.86627 0.32935 0.0
C647 C 0.95633 0.90551 0.33083 0.0
C648 C 0.93767 0.84283 0.32008 0.0
C649 C 0.97253 0.85813 0.31225 0.0
C650 C -0.00107 0.89734 0.31352 0.0
C651 C 0.99095 0.92082 0.32275 0.0
C652 C 0.98133 0.83334 0.30255 0.0
C653 C 0.98977 0.84117 0.28602 0.0
C654 C 0.98034 0.80163 0.30932 0.0
C655 C 0.97367 0.79306 0.32694 0.0
C656 C 0.99716 0.82044 0.33933 0.0
C657 C 0.99055 0.81228 0.35591 0.0
C658 C 0.9607 0.77671 0.36024 0.0
C659 C 0.93746 0.7492 0.34801 0.0
C660 C 0.94393 0.75723 0.33142 0.0
C661 C 0.04753 0.75534 0.25509 0.0
C662 C 0.02015 0.71648 0.25241 0.0
C663 C 0.04007 0.77772 0.26533 0.0
C664 C 0.00497 0.76182 0.27299 0.0
C665 C 0.97815 0.72282 0.27086 0.0
C666 C 0.98561 0.70035 0.26062 0.0
C667 C 0.99579 0.78619 0.28277 0.0
C668 C 0.98721 0.77824 0.29928 0.0
C669 C 0.99672 0.81787 0.276 0.0
C670 C 0.00371 0.82665 0.25842 0.0
C671 C 0.98039 0.79945 0.24594 0.0
C672 C 0.98747 0.80775 0.2294 0.0
C673 C 0.0176 0.84329 0.22518 0.0
C674 C 0.04065 0.87063 0.2375 0.0
C675 C 0.03374 0.86245 0.25406 0.0
H676 H 0.02304 0.84966 0.21238 0.0
H677 H 0.95562 0.77043 0.37308 0.0
H678 H 0.06071 0.01191 0.64863 0.0
H679 H 0.10786 0.01821 0.6293 0.0
H680 H 0.16233 0.98646 0.66674 0.0
H681 H 0.11592 0.98101 0.68626 0.0
H682 H 0.21527 0.04284 0.65016 0.0
H683 H 0.10081 0.92279 0.63616 0.0
H684 H 0.03178 0.87881 0.62868 0.0
H685 H 0.04225 0.93874 0.58472 0.0
H686 H 0.11127 0.98341 0.59205 0.0
H687 H 0.31628 0.99141 0.59603 0.0
H688 H 0.27355 0.99122 0.61642 0.0
H689 H 0.22497 0.03212 0.58043 0.0
H690 H 0.26702 0.03181 0.55997 0.0
H691 H 0.16975 0.97146 0.59639 0.0
H692 H 0.28585 0.09082 0.61064 0.0
H693 H 0.35504 0.13301 0.61836 0.0
H694 H 0.3416 0.07179 0.66218 0.0
H695 H 0.27239 0.02887 0.6546 0.0
C696 C 0.08279 0.00638 0.65277 0.0
C697 C 0.08441 0.99571 0.66895 0.0
C698 C 0.10964 0.00986 0.64169 0.0
C699 C 0.13827 0.00222 0.6465 0.0
C700 C 0.14046 0.99241 0.66275 0.0
C701 C 0.11381 0.9892 0.67387 0.0
C702 C 0.16556 0.00389 0.63454 0.0
C703 C 0.20531 0.02688 0.63848 0.0
C704 C 0.1526 0.98351 0.6192 0.0
C705 C 0.11111 0.95667 0.61474 0.0
C706 C 0.08832 0.92676 0.62496 0.0
C707 C 0.04921 0.90168 0.62074 0.0
C708 C 0.03262 0.90604 0.60625 0.0
C709 C 0.05513 0.93543 0.59594 0.0
C710 C 0.09425 0.96062 0.60012 0.0
C711 C 0.29651 0.0004 0.5925 0.0
C712 C 0.29507 0.01174 0.57643 0.0
C713 C 0.27234 0.00053 0.60417 0.0
C714 C 0.2463 0.0119 0.59994 0.0
C715 C 0.24495 0.02337 0.58394 0.0
C716 C 0.26921 0.02345 0.57232 0.0
C717 C 0.21937 0.01053 0.61198 0.0
C718 C 0.17968 0.98748 0.60805 0.0
C719 C 0.23242 0.03058 0.62737 0.0
C720 C 0.27401 0.05639 0.63196 0.0
C721 C 0.29771 0.08614 0.62185 0.0
C722 C 0.33692 0.11023 0.62622 0.0
C723 C 0.35273 0.10502 0.64073 0.0
C724 C 0.32933 0.07576 0.65093 0.0
C725 C 0.2901 0.05156 0.64661 0.0
H726 H 0.38309 0.1237 0.64409 0.0
H727 H 0.00233 0.88658 0.603 0.0
H728 H 0.12913 0.10888 0.98219 0.0
H729 H 0.17377 0.13716 0.96015 0.0
H730 H 0.24863 0.10491 0.98332 0.0
H731 H 0.20354 0.07563 0.00524 0.0
H732 H 0.27884 0.19 0.97476 0.0
H733 H 0.21639 0.06063 0.95324 0.0
H734 H 0.15973 0.99831 0.94465 0.0
H735 H 0.12429 0.05046 0.90877 0.0
H736 H 0.18046 0.11321 0.91733 0.0
H737 H 0.41295 0.26989 0.91309 0.0
H738 H 0.3722 0.22606 0.93345 0.0
H739 H 0.27074 0.20278 0.90441 0.0
H740 H 0.31109 0.24407 0.88344 0.0
H741 H 0.25686 0.14115 0.91688 0.0
H742 H 0.31001 0.26805 0.93855 0.0
H743 H 0.36127 0.33321 0.94715 0.0
H744 H 0.40816 0.29022 0.98256 0.0
H745 H 0.35742 0.22474 0.974 0.0
C746 C 0.1549 0.10755 0.98253 0.0
C747 C 0.16306 0.09035 0.99546 0.0
C748 C 0.18022 0.1235 0.96991 0.0
C749 C 0.21432 0.12302 0.9702 0.0
C750 C 0.2223 0.10535 0.98293 0.0
C751 C 0.19653 0.0886 0.99536 0.0
C752 C 0.24265 0.14326 0.95774 0.0
C753 C 0.27465 0.17911 0.96216 0.0
C754 C 0.23609 0.12935 0.94127 0.0
C755 C 0.20242 0.09165 0.93605 0.0
C756 C 0.1963 0.05886 0.94364 0.0
C757 C 0.16433 0.02344 0.93874 0.0
C758 C 0.13837 0.02044 0.9262 0.0
C759 C 0.1444 0.05284 0.9185 0.0
C760 C 0.17632 0.08833 0.92335 0.0
C761 C 0.38198 0.25486 0.91085 0.0
C762 C 0.36538 0.26103 0.89669 0.0
C763 C 0.35868 0.23014 0.92262 0.0
C764 C 0.31837 0.21174 0.92066 0.0
C765 C 0.30176 0.2168 0.90628 0.0
C766 C 0.32496 0.24093 0.89439 0.0
C767 C 0.29333 0.18837 0.93379 0.0
C768 C 0.26169 0.15197 0.92951 0.0
C769 C 0.29966 0.20221 0.95035 0.0
C770 C 0.33023 0.24152 0.95549 0.0
C771 C 0.33144 0.2725 0.94808 0.0
C772 C 0.36036 0.30948 0.95296 0.0
C773 C 0.38803 0.31585 0.96535 0.0
C774 C 0.38677 0.28524 0.97293 0.0
C775 C 0.35793 0.24819 0.96807 0.0
H776 H 0.41039 0.3445 0.96912 0.0
H777 H 0.11363 0.99299 0.92243 0.0
H778 H 0.99289 0.07768 0.31499 0.0
H779 H 0.00677 0.12574 0.29498 0.0
H780 H 0.08366 0.21316 0.33099 0.0
H781 H 0.06829 0.16512 0.3513 0.0
H782 H 0.03652 0.22979 0.32005 0.0
H783 H 0.11507 0.19555 0.29356 0.0
H784 H 0.13469 0.15394 0.28137 0.0
H785 H 0.04187 0.11249 0.24452 0.0
H786 H 0.0213 0.15343 0.25661 0.0
H787 H 0.05845 0.32663 0.23515 0.0
H788 H 0.07895 0.29606 0.25496 0.0
H789 H 0.97078 0.24977 0.27815 0.0
H790 H 0.95096 0.28178 0.25899 0.0
H791 H 0.0515 0.22482 0.2601 0.0
H792 H 0.97978 0.24021 0.31794 0.0
H793 H 0.96769 0.2871 0.33058 0.0
H794 H 0.06196 0.37611 0.30584 0.0
H795 H 0.07499 0.32986 0.29324 0.0
C796 C 0.01366 0.10705 0.31848 0.0
C797 C 0.02919 0.11772 0.33474 0.0
C798 C 0.02175 0.1346 0.30699 0.0
C799 C 0.0463 0.17324 0.31143 0.0
C800 C 0.06438 0.18361 0.32729 0.0
C801 C 0.05569 0.15614 0.33888 0.0
C802 C 0.04847 0.20253 0.30045 0.0
C803 C 0.04032 0.22893 0.30698 0.0
C804 C 0.05431 0.20222 0.28344 0.0
C805 C 0.06653 0.17748 0.27606 0.0
C806 C 0.09866 0.17738 0.28292 0.0
C807 C 0.10999 0.15393 0.27602 0.0
C808 C 0.08952 0.13056 0.26219 0.0
C809 C 0.05771 0.13063 0.25522 0.0
C810 C 0.04625 0.15401 0.26208 0.0
C811 C 0.03937 0.31066 0.2447 0.0
C812 C 0.00309 0.30681 0.24553 0.0
C813 C 0.05099 0.29286 0.2559 0.0
C814 C 0.0266 0.27093 0.26814 0.0
C815 C 0.99042 0.26711 0.26901 0.0
C816 C 0.97891 0.28508 0.25791 0.0
C817 C 0.03803 0.25072 0.27968 0.0
C818 C 0.04858 0.22607 0.27324 0.0
C819 C 0.0356 0.2534 0.29687 0.0
C820 C 0.02819 0.28148 0.30456 0.0
C821 C 0.99808 0.26981 0.31527 0.0
C822 C 0.99103 0.29627 0.32241 0.0
C823 C 0.01399 0.33454 0.31898 0.0
C824 C 0.04412 0.34644 0.30844 0.0
C825 C 0.05132 0.3201 0.30128 0.0
H826 H 0.00847 0.35498 0.32451 0.0
H827 H 0.09833 0.11242 0.25687 0.0
loop_
_geom_bond_atom_site_label_1
_geom_bond_atom_site_label_2
_geom_bond_distance
_geom_bond_site_symmetry_2
_ccdc_geom_bond_type
Mg0 O1 2.028 1_545 S
Mg0 O7 1.986 . S
Mg0 O9 2.114 . S
Mg0 O10 2.251 . S
Mg0 O13 2.010 . S
O1 Mg0 2.028 1_565 S
O1 C4 1.250 1_455 S
O2 Mg3 2.028 1_655 S
O2 C4 1.245 1_545 S
Mg3 O2 2.028 1_455 S
Mg3 O8 2.032 . S
Mg3 O10 2.079 . S
C4 O1 1.250 1_655 S
C4 O2 1.245 1_565 S
C5 O6 1.264 . S
C5 O13 1.249 1_565 S
O6 C5 1.264 . S
O7 Mg0 1.986 . S
O7 C11 1.246 . S
O8 Mg3 2.032 . S
O8 C11 1.259 . S
O9 Mg0 2.114 . S
O9 C12 1.252 . S
O10 Mg0 2.251 . S
O10 Mg3 2.079 . S
O10 C12 1.273 . S
C11 O7 1.246 . S
C11 O8 1.259 . S
C12 O9 1.252 . S
C12 O10 1.273 . S
O13 Mg0 2.010 . S
O13 C5 1.249 1_545 S
Mg14 O15 2.016 1_655 S
Mg14 O21 2.009 1_655 S
Mg14 O23 2.104 1_545 S
Mg14 O24 2.275 . S
Mg14 O27 1.983 1_545 S
O15 Mg14 2.016 1_455 S
O15 C18 1.250 . S
O16 Mg17 2.028 . S
O16 C18 1.248 . S
Mg17 O16 2.028 . S
Mg17 O22 2.032 . S
Mg17 O24 2.079 1_455 S
C18 O15 1.250 . S
C18 O16 1.248 . S
C19 O20 1.264 . S
C19 O27 1.249 . S
O20 C19 1.264 . S
O21 Mg14 2.009 1_455 S
O21 C25 1.246 . S
O22 Mg17 2.032 . S
O22 C25 1.259 . S
O23 Mg14 2.104 1_565 S
O23 C26 1.252 . S
O24 Mg14 2.275 . S
O24 Mg17 2.079 1_655 S
O24 C26 1.273 1_545 S
C25 O21 1.246 . S
C25 O22 1.259 . S
C26 O23 1.252 . S
C26 O24 1.273 1_565 S
O27 Mg14 1.983 1_565 S
O27 C19 1.249 . S
Mg28 O29 2.028 1_565 S
Mg28 O35 1.986 1_465 S
Mg28 O37 2.114 . S
Mg28 O38 2.251 1_455 S
Mg28 O41 2.010 . S
O29 Mg28 2.028 1_545 S
O29 C32 1.250 . S
O30 Mg31 2.028 1_455 S
O30 C32 1.248 . S
Mg31 O30 2.028 1_655 S
Mg31 O36 2.032 . S
Mg31 O38 2.079 1_545 S
C32 O29 1.250 . S
C32 O30 1.248 . S
C33 O34 1.264 . S
C33 O41 1.249 . S
O34 C33 1.264 . S
O35 Mg28 1.986 1_645 S
O35 C39 1.246 . S
O36 Mg31 2.032 . S
O36 C39 1.259 . S
O37 Mg28 2.114 . S
O37 C40 1.252 1_455 S
O38 Mg28 2.251 1_655 S
O38 Mg31 2.079 1_565 S
O38 C40 1.273 . S
C39 O35 1.246 . S
C39 O36 1.259 . S
C40 O37 1.252 1_655 S
C40 O38 1.273 . S
O41 Mg28 2.010 . S
O41 C33 1.249 . S
H42 C69 0.929 . S
N43 C68 1.433 . S
N43 C74 1.435 . S
N43 C80 1.423 . S
H44 C70 0.953 . S
H45 C73 0.931 . S
H46 C72 0.929 . S
H47 C75 0.930 . S
H48 C76 0.932 . S
H49 C79 0.929 . S
H50 C78 0.931 1_655 S
H51 C81 0.929 . S
H52 C85 0.932 . S
H53 C82 0.931 . S
H54 C84 0.929 . S
H55 C87 0.929 . S
H56 C88 0.928 . S
H57 C90 0.929 . S
H58 C91 0.931 . S
H59 C93 0.930 . S
H60 C94 0.932 . S
H61 C96 0.931 1_655 S
H62 C97 0.929 . S
H63 C99 0.929 . S
H64 C100 0.931 . S
H65 C102 0.929 . S
N66 C86 1.433 . S
N66 C92 1.435 . S
N66 C98 1.423 . S
H67 C103 0.932 . S
C68 N43 1.433 . S
C68 C69 1.363 1_455 S
C68 C73 1.370 . S
C69 H42 0.929 . S
C69 C68 1.363 1_655 S
C69 C70 1.381 . S
C70 H44 0.953 . S
C70 C69 1.381 . S
C70 C71 1.339 1_655 S
C71 C70 1.339 1_455 S
C71 C72 1.406 . S
C72 H46 0.929 . S
C72 C71 1.406 . S
C72 C73 1.391 . S
C73 H45 0.931 . S
C73 C68 1.370 . S
C73 C72 1.391 . S
C74 N43 1.435 . S
C74 C75 1.358 . S
C74 C79 1.371 1_455 S
C75 H47 0.930 . S
C75 C74 1.358 . S
C75 C76 1.405 . S
C76 H48 0.932 . S
C76 C75 1.405 . S
C76 C77 1.383 . S
C77 C76 1.383 . S
C77 C78 1.393 . S
C78 H50 0.931 1_455 S
C78 C77 1.393 . S
C78 C79 1.382 1_455 S
C79 H49 0.929 . S
C79 C74 1.371 1_655 S
C79 C78 1.382 1_655 S
C80 N43 1.423 . S
C80 C81 1.362 1_455 S
C80 C85 1.388 . S
C81 H51 0.929 . S
C81 C80 1.362 1_655 S
C81 C82 1.376 . S
C82 H53 0.931 . S
C82 C81 1.376 . S
C82 C83 1.397 1_655 S
C83 C82 1.397 1_455 S
C83 C84 1.347 . S
C83 C101 1.472 . S
C84 H54 0.929 . S
C84 C83 1.347 . S
C84 C85 1.443 . S
C85 H52 0.932 . S
C85 C80 1.388 . S
C85 C84 1.443 . S
C86 N66 1.433 . S
C86 C87 1.363 1_455 S
C86 C91 1.370 . S
C87 H55 0.929 . S
C87 C86 1.363 1_655 S
C87 C88 1.391 . S
C88 H56 0.928 . S
C88 C87 1.391 . S
C88 C89 1.354 1_655 S
C89 C88 1.354 1_455 S
C89 C90 1.406 . S
C90 H57 0.929 . S
C90 C89 1.406 . S
C90 C91 1.391 . S
C91 H58 0.931 . S
C91 C86 1.370 . S
C91 C90 1.391 . S
C92 N66 1.435 . S
C92 C93 1.358 . S
C92 C97 1.371 1_455 S
C93 H59 0.930 . S
C93 C92 1.358 . S
C93 C94 1.405 . S
C94 H60 0.932 . S
C94 C93 1.405 . S
C94 C95 1.383 . S
C95 C94 1.383 . S
C95 C96 1.393 . S
C96 H61 0.931 1_455 S
C96 C95 1.393 . S
C96 C97 1.382 1_455 S
C97 H62 0.929 . S
C97 C92 1.371 1_655 S
C97 C96 1.382 1_655 S
C98 N66 1.423 . S
C98 C99 1.362 1_455 S
C98 C103 1.388 . S
C99 H63 0.929 . S
C99 C98 1.362 1_655 S
C99 C100 1.376 . S
C100 H64 0.931 . S
C100 C99 1.376 . S
C100 C101 1.396 1_655 S
C101 C83 1.472 . S
C101 C100 1.396 1_455 S
C101 C102 1.346 . S
C102 H65 0.929 . S
C102 C101 1.346 . S
C102 C103 1.443 . S
C103 H67 0.932 . S
C103 C98 1.388 . S
C103 C102 1.443 . S
H104 C131 0.929 . S
N105 C130 1.433 . S
N105 C136 1.435 . S
N105 C142 1.423 . S
H106 C132 0.930 . S
H107 C135 0.931 . S
H108 C134 0.929 . S
H109 C137 0.930 . S
H110 C138 0.932 . S
H111 C141 0.929 . S
H112 C140 0.931 . S
H113 C143 0.929 . S
H114 C147 0.932 . S
H115 C144 0.931 . S
H116 C146 0.929 . S
H117 C149 0.929 . S
H118 C150 0.930 . S
H119 C152 0.929 . S
H120 C153 0.931 . S
H121 C155 0.930 . S
H122 C156 0.932 . S
H123 C158 0.931 . S
H124 C159 0.929 . S
H125 C161 0.929 . S
H126 C162 0.931 . S
H127 C164 0.929 . S
N128 C148 1.433 . S
N128 C154 1.435 . S
N128 C160 1.423 . S
H129 C165 0.932 . S
C130 N105 1.433 . S
C130 C131 1.363 . S
C130 C135 1.370 . S
C131 H104 0.929 . S
C131 C130 1.363 . S
C131 C132 1.385 . S
C132 H106 0.930 . S
C132 C131 1.385 . S
C132 C133 1.357 . S
C133 C132 1.357 . S
C133 C134 1.406 . S
C134 H108 0.929 . S
C134 C133 1.406 . S
C134 C135 1.391 . S
C135 H107 0.931 . S
C135 C130 1.370 . S
C135 C134 1.391 . S
C136 N105 1.435 . S
C136 C137 1.358 . S
C136 C141 1.371 . S
C137 H109 0.930 . S
C137 C136 1.358 . S
C137 C138 1.405 . S
C138 H110 0.932 . S
C138 C137 1.405 . S
C138 C139 1.383 . S
C139 C138 1.383 . S
C139 C140 1.393 . S
C140 H112 0.931 . S
C140 C139 1.393 . S
C140 C141 1.382 . S
C141 H111 0.929 . S
C141 C136 1.371 . S
C141 C140 1.382 . S
C142 N105 1.423 . S
C142 C143 1.362 . S
C142 C147 1.388 . S
C143 H113 0.929 . S
C143 C142 1.362 . S
C143 C144 1.376 . S
C144 H115 0.931 . S
C144 C143 1.376 . S
C144 C145 1.396 . S
C145 C144 1.396 . S
C145 C146 1.348 . S
C145 C163 1.472 . S
C146 H116 0.929 . S
C146 C145 1.348 . S
C146 C147 1.443 . S
C147 H114 0.932 . S
C147 C142 1.388 . S
C147 C146 1.443 . S
C148 N128 1.433 . S
C148 C149 1.363 . S
C148 C153 1.370 . S
C149 H117 0.929 . S
C149 C148 1.363 . S
C149 C150 1.385 . S
C150 H118 0.930 . S
C150 C149 1.385 . S
C150 C151 1.357 . S
C151 C150 1.357 . S
C151 C152 1.406 . S
C152 H119 0.929 . S
C152 C151 1.406 . S
C152 C153 1.391 . S
C153 H120 0.931 . S
C153 C148 1.370 . S
C153 C152 1.391 . S
C154 N128 1.435 . S
C154 C155 1.358 . S
C154 C159 1.371 . S
C155 H121 0.930 . S
C155 C154 1.358 . S
C155 C156 1.405 . S
C156 H122 0.932 . S
C156 C155 1.405 . S
C156 C157 1.383 . S
C157 C156 1.383 . S
C157 C158 1.393 . S
C158 H123 0.931 . S
C158 C157 1.393 . S
C158 C159 1.382 . S
C159 H124 0.929 . S
C159 C154 1.371 . S
C159 C158 1.382 . S
C160 N128 1.423 . S
C160 C161 1.362 . S
C160 C165 1.388 . S
C161 H125 0.929 . S
C161 C160 1.362 . S
C161 C162 1.376 . S
C162 H126 0.931 . S
C162 C161 1.376 . S
C162 C163 1.396 . S
C163 C145 1.472 . S
C163 C162 1.396 . S
C163 C164 1.348 . S
C164 H127 0.929 . S
C164 C163 1.348 . S
C164 C165 1.443 . S
C165 H129 0.932 . S
C165 C160 1.388 . S
C165 C164 1.443 . S
H166 C193 0.929 . S
N167 C192 1.433 . S
N167 C198 1.435 . S
N167 C204 1.423 . S
H168 C194 0.930 . S
H169 C197 0.931 . S
H170 C196 0.929 . S
H171 C199 0.930 . S
H172 C200 0.932 . S
H173 C203 0.929 . S
H174 C202 0.931 . S
H175 C205 0.929 . S
H176 C209 0.932 . S
H177 C206 0.931 . S
H178 C208 0.929 . S
H179 C211 0.929 . S
H180 C212 0.930 . S
H181 C214 0.929 . S
H182 C215 0.931 . S
H183 C217 0.930 . S
H184 C218 0.932 . S
H185 C220 0.931 . S
H186 C221 0.929 . S
H187 C223 0.929 . S
H188 C224 0.931 . S
H189 C226 0.929 . S
N190 C210 1.433 . S
N190 C216 1.435 . S
N190 C222 1.423 . S
H191 C227 0.932 . S
C192 N167 1.433 . S
C192 C193 1.363 . S
C192 C197 1.370 . S
C193 H166 0.929 . S
C193 C192 1.363 . S
C193 C194 1.385 . S
C194 H168 0.930 . S
C194 C193 1.385 . S
C194 C195 1.357 . S
C195 C194 1.357 . S
C195 C196 1.406 . S
C196 H170 0.929 . S
C196 C195 1.406 . S
C196 C197 1.391 . S
C197 H169 0.931 . S
C197 C192 1.370 . S
C197 C196 1.391 . S
C198 N167 1.435 . S
C198 C199 1.358 . S
C198 C203 1.371 . S
C199 H171 0.930 . S
C199 C198 1.358 . S
C199 C200 1.405 . S
C200 H172 0.932 . S
C200 C199 1.405 . S
C200 C201 1.383 . S
C201 C200 1.383 . S
C201 C202 1.393 . S
C202 H174 0.931 . S
C202 C201 1.393 . S
C202 C203 1.382 . S
C203 H173 0.929 . S
C203 C198 1.371 . S
C203 C202 1.382 . S
C204 N167 1.423 . S
C204 C205 1.362 . S
C204 C209 1.388 . S
C205 H175 0.929 . S
C205 C204 1.362 . S
C205 C206 1.376 . S
C206 H177 0.931 . S
C206 C205 1.376 . S
C206 C207 1.396 . S
C207 C206 1.396 . S
C207 C208 1.348 . S
C207 C225 1.472 . S
C208 H178 0.929 . S
C208 C207 1.348 . S
C208 C209 1.443 . S
C209 H176 0.932 . S
C209 C204 1.388 . S
C209 C208 1.443 . S
C210 N190 1.433 . S
C210 C211 1.363 . S
C210 C215 1.370 . S
C211 H179 0.929 . S
C211 C210 1.363 . S
C211 C212 1.385 . S
C212 H180 0.930 . S
C212 C211 1.385 . S
C212 C213 1.357 . S
C213 C212 1.357 . S
C213 C214 1.406 . S
C214 H181 0.929 . S
C214 C213 1.406 . S
C214 C215 1.391 . S
C215 H182 0.931 . S
C215 C210 1.370 . S
C215 C214 1.391 . S
C216 N190 1.435 . S
C216 C217 1.358 . S
C216 C221 1.371 . S
C217 H183 0.930 . S
C217 C216 1.358 . S
C217 C218 1.405 . S
C218 H184 0.932 . S
C218 C217 1.405 . S
C218 C219 1.383 . S
C219 C218 1.383 . S
C219 C220 1.393 . S
C220 H185 0.931 . S
C220 C219 1.393 . S
C220 C221 1.382 . S
C221 H186 0.929 . S
C221 C216 1.371 . S
C221 C220 1.382 . S
C222 N190 1.423 . S
C222 C223 1.362 . S
C222 C227 1.388 . S
C223 H187 0.929 . S
C223 C222 1.362 . S
C223 C224 1.376 . S
C224 H188 0.931 . S
C224 C223 1.376 . S
C224 C225 1.396 . S
C225 C207 1.472 . S
C225 C224 1.396 . S
C225 C226 1.348 . S
C226 H189 0.929 . S
C226 C225 1.348 . S
C226 C227 1.443 . S
C227 H191 0.932 . S
C227 C222 1.388 . S
C227 C226 1.443 . S
H228 C246 0.951 . S
H229 C248 0.951 . S
H230 C250 0.950 . S
H231 C251 0.950 . S
H232 C253 0.941 1_655 S
H233 C256 0.950 . S
H234 C257 0.950 . S
H235 C259 0.950 . S
H236 C260 0.950 . S
H237 C261 0.927 1_655 S
H238 C263 0.956 . S
H239 C265 0.950 . S
H240 C266 0.950 . S
H241 C268 0.950 . S
H242 C271 0.950 1_455 S
H243 C272 0.950 . S
H244 C274 0.950 . S
H245 C275 0.950 . S
C246 H228 0.951 . S
C246 C247 1.366 . S
C246 C248 1.388 . S
C247 C246 1.366 . S
C247 C251 1.385 1_455 S
C248 H229 0.951 . S
C248 C246 1.388 . S
C248 C249 1.366 . S
C249 C248 1.366 . S
C249 C250 1.414 1_455 S
C249 C252 1.499 . S
C250 H230 0.950 . S
C250 C249 1.414 1_655 S
C250 C251 1.374 . S
C251 H231 0.950 . S
C251 C247 1.385 1_655 S
C251 C250 1.374 . S
C252 C249 1.499 . S
C252 C253 1.390 . S
C252 C254 1.389 . S
C253 H232 0.941 1_455 S
C253 C252 1.390 . S
C253 C269 1.369 . S
C254 C252 1.389 . S
C254 C255 1.524 . S
C254 C268 1.377 . S
C255 C254 1.524 . S
C255 C256 1.397 . S
C255 C260 1.363 . S
C256 H233 0.950 . S
C256 C255 1.397 . S
C256 C257 1.334 . S
C257 H234 0.950 . S
C257 C256 1.334 . S
C257 C258 1.287 . S
C258 C257 1.287 . S
C258 C259 1.524 . S
C258 H277 0.913 . S
C259 H235 0.950 . S
C259 C258 1.524 . S
C259 C260 1.415 . S
C260 H236 0.950 . S
C260 C255 1.363 . S
C260 C259 1.415 . S
C261 H237 0.927 1_455 S
C261 C262 1.378 . S
C261 C263 1.404 1_455 S
C262 C261 1.378 . S
C262 C266 1.385 . S
C263 H238 0.956 . S
C263 C261 1.404 1_655 S
C263 C264 1.356 1_655 S
C264 C263 1.356 1_455 S
C264 C265 1.414 . S
C264 C267 1.499 . S
C265 H239 0.950 . S
C265 C264 1.414 . S
C265 C266 1.374 . S
C266 H240 0.950 . S
C266 C262 1.385 . S
C266 C265 1.374 . S
C267 C264 1.499 . S
C267 C268 1.373 . S
C267 C269 1.389 . S
C268 H241 0.950 . S
C268 C254 1.377 . S
C268 C267 1.373 . S
C269 C253 1.369 . S
C269 C267 1.389 . S
C269 C270 1.524 1_455 S
C270 C269 1.524 1_655 S
C270 C271 1.397 . S
C270 C275 1.363 . S
C271 H242 0.950 1_655 S
C271 C270 1.397 . S
C271 C272 1.334 . S
C272 H243 0.950 . S
C272 C271 1.334 . S
C272 C273 1.287 . S
C273 C272 1.287 . S
C273 C274 1.524 . S
C273 H276 0.999 . S
C274 H244 0.950 . S
C274 C273 1.524 . S
C274 C275 1.415 . S
C275 H245 0.950 . S
C275 C270 1.363 . S
C275 C274 1.415 . S
H276 C273 0.999 . S
H277 C258 0.913 . S
H278 C296 0.951 . S
H279 C298 0.951 . S
H280 C300 0.950 . S
H281 C301 0.950 . S
H282 C303 0.950 . S
H283 C306 0.950 . S
H284 C307 0.950 . S
H285 C309 0.950 . S
H286 C310 0.950 . S
H287 C311 0.951 . S
H288 C313 0.951 . S
H289 C315 0.950 . S
H290 C316 0.950 1_565 S
H291 C318 0.950 . S
H292 C321 0.950 1_565 S
H293 C322 0.950 1_565 S
H294 C324 0.950 . S
H295 C325 0.950 . S
C296 H278 0.951 . S
C296 C297 1.366 . S
C296 C298 1.388 . S
C297 C296 1.366 . S
C297 C301 1.385 1_565 S
C298 H279 0.951 . S
C298 C296 1.388 . S
C298 C299 1.366 1_565 S
C299 C298 1.366 1_545 S
C299 C300 1.414 . S
C299 C302 1.499 . S
C300 H280 0.950 . S
C300 C299 1.414 . S
C300 C301 1.374 . S
C301 H281 0.950 . S
C301 C297 1.385 1_545 S
C301 C300 1.374 . S
C302 C299 1.499 . S
C302 C303 1.373 . S
C302 C304 1.389 . S
C303 H282 0.950 . S
C303 C302 1.373 . S
C303 C319 1.377 . S
C304 C302 1.389 . S
C304 C305 1.524 1_545 S
C304 C318 1.377 . S
C305 C304 1.524 1_565 S
C305 C306 1.397 1_565 S
C305 C310 1.363 . S
C306 H283 0.950 . S
C306 C305 1.397 1_545 S
C306 C307 1.334 . S
C307 H284 0.950 . S
C307 C306 1.334 . S
C307 C308 1.287 1_545 S
C308 C307 1.287 1_565 S
C308 C309 1.524 . S
C308 H327 0.913 . S
C309 H285 0.950 . S
C309 C308 1.524 . S
C309 C310 1.415 . S
C310 H286 0.950 . S
C310 C305 1.363 . S
C310 C309 1.415 . S
C311 H287 0.951 . S
C311 C312 1.366 . S
C311 C313 1.388 . S
C312 C311 1.366 . S
C312 C316 1.385 . S
C313 H288 0.951 . S
C313 C311 1.388 . S
C313 C314 1.366 . S
C314 C313 1.366 . S
C314 C315 1.414 1_545 S
C314 C317 1.499 . S
C315 H289 0.950 . S
C315 C314 1.414 1_565 S
C315 C316 1.374 1_565 S
C316 H290 0.950 1_545 S
C316 C312 1.385 . S
C316 C315 1.374 1_545 S
C317 C314 1.499 . S
C317 C318 1.373 . S
C317 C319 1.389 . S
C318 H291 0.950 . S
C318 C304 1.377 . S
C318 C317 1.373 . S
C319 C303 1.377 . S
C319 C317 1.389 . S
C319 C320 1.524 . S
C320 C319 1.524 . S
C320 C321 1.397 . S
C320 C325 1.363 . S
C321 H292 0.950 1_545 S
C321 C320 1.397 . S
C321 C322 1.334 . S
C322 H293 0.950 1_545 S
C322 C321 1.334 . S
C322 C323 1.287 . S
C323 C322 1.287 . S
C323 C324 1.524 . S
C323 H326 0.999 . S
C324 H294 0.950 . S
C324 C323 1.524 . S
C324 C325 1.415 . S
C325 H295 0.950 . S
C325 C320 1.363 . S
C325 C324 1.415 . S
H326 C323 0.999 . S
H327 C308 0.913 . S
H328 C346 0.951 . S
H329 C348 0.951 . S
H330 C350 0.950 . S
H331 C351 0.950 . S
H332 C353 0.950 . S
H333 C356 0.950 . S
H334 C357 0.950 . S
H335 C359 0.950 . S
H336 C360 0.950 . S
H337 C361 0.951 . S
H338 C363 0.951 . S
H339 C365 0.950 . S
H340 C366 0.950 . S
H341 C368 0.950 . S
H342 C371 0.950 . S
H343 C372 0.950 . S
H344 C374 0.950 . S
H345 C375 0.950 . S
C346 H328 0.951 . S
C346 C347 1.366 . S
C346 C348 1.388 . S
C347 C346 1.366 . S
C347 C351 1.385 . S
C348 H329 0.951 . S
C348 C346 1.388 . S
C348 C349 1.366 . S
C349 C348 1.366 . S
C349 C350 1.414 . S
C349 C352 1.499 . S
C350 H330 0.950 . S
C350 C349 1.414 . S
C350 C351 1.374 . S
C351 H331 0.950 . S
C351 C347 1.385 . S
C351 C350 1.374 . S
C352 C349 1.499 . S
C352 C353 1.373 . S
C352 C354 1.389 . S
C353 H332 0.950 . S
C353 C352 1.373 . S
C353 C369 1.377 . S
C354 C352 1.389 . S
C354 C355 1.524 . S
C354 C368 1.377 . S
C355 C354 1.524 . S
C355 C356 1.397 . S
C355 C360 1.363 . S
C356 H333 0.950 . S
C356 C355 1.397 . S
C356 C357 1.334 . S
C357 H334 0.950 . S
C357 C356 1.334 . S
C357 C358 1.287 . S
C358 C357 1.287 . S
C358 C359 1.524 . S
C358 H377 0.913 . S
C359 H335 0.950 . S
C359 C358 1.524 . S
C359 C360 1.415 . S
C360 H336 0.950 . S
C360 C355 1.363 . S
C360 C359 1.415 . S
C361 H337 0.951 . S
C361 C362 1.366 . S
C361 C363 1.388 . S
C362 C361 1.366 . S
C362 C366 1.385 . S
C363 H338 0.951 . S
C363 C361 1.388 . S
C363 C364 1.366 . S
C364 C363 1.366 . S
C364 C365 1.414 . S
C364 C367 1.499 . S
C365 H339 0.950 . S
C365 C364 1.414 . S
C365 C366 1.374 . S
C366 H340 0.950 . S
C366 C362 1.385 . S
C366 C365 1.374 . S
C367 C364 1.499 . S
C367 C368 1.373 . S
C367 C369 1.389 . S
C368 H341 0.950 . S
C368 C354 1.377 . S
C368 C367 1.373 . S
C369 C353 1.377 . S
C369 C367 1.389 . S
C369 C370 1.524 . S
C370 C369 1.524 . S
C370 C371 1.397 . S
C370 C375 1.363 . S
C371 H342 0.950 . S
C371 C370 1.397 . S
C371 C372 1.334 . S
C372 H343 0.950 . S
C372 C371 1.334 . S
C372 C373 1.287 . S
C373 C372 1.287 . S
C373 C374 1.524 . S
C373 H376 0.999 . S
C374 H344 0.950 . S
C374 C373 1.524 . S
C374 C375 1.415 . S
C375 H345 0.950 . S
C375 C370 1.363 . S
C375 C374 1.415 . S
H376 C373 0.999 . S
H377 C358 0.913 . S
H378 C396 0.951 . S
H379 C398 0.951 . S
H380 C400 0.950 . S
H381 C401 0.950 . S
H382 C403 0.950 . S
H383 C406 0.950 . S
H384 C407 0.950 . S
H385 C409 0.975 . S
H386 C410 0.950 1_655 S
H387 C411 0.951 . S
H388 C413 0.951 . S
H389 C415 0.950 1_655 S
H390 C416 0.950 1_655 S
H391 C418 0.950 . S
H392 C421 0.950 . S
H393 C422 0.950 . S
H394 C424 0.950 . S
H395 C425 0.950 . S
C396 H378 0.951 . S
C396 C397 1.366 . S
C396 C398 1.388 . S
C397 C396 1.366 . S
C397 C401 1.385 . S
C398 H379 0.951 . S
C398 C396 1.388 . S
C398 C399 1.366 . S
C399 C398 1.366 . S
C399 C400 1.414 . S
C399 C402 1.499 . S
C400 H380 0.950 . S
C400 C399 1.414 . S
C400 C401 1.374 . S
C401 H381 0.950 . S
C401 C397 1.385 . S
C401 C400 1.374 . S
C402 C399 1.499 . S
C402 C403 1.373 . S
C402 C404 1.389 . S
C403 H382 0.950 . S
C403 C402 1.373 . S
C403 C419 1.377 . S
C404 C402 1.389 . S
C404 C405 1.524 . S
C404 C418 1.377 . S
C405 C404 1.524 . S
C405 C406 1.397 . S
C405 C410 1.363 . S
C406 H383 0.950 . S
C406 C405 1.397 . S
C406 C407 1.334 . S
C407 H384 0.950 . S
C407 C406 1.334 . S
C407 C408 1.287 . S
C408 C407 1.287 . S
C408 C409 1.512 1_455 S
C408 H427 0.913 . S
C409 H385 0.975 . S
C409 C408 1.512 1_655 S
C409 C410 1.398 1_655 S
C410 H386 0.950 1_455 S
C410 C405 1.363 . S
C410 C409 1.398 1_455 S
C411 H387 0.951 . S
C411 C412 1.366 . S
C411 C413 1.388 . S
C412 C411 1.366 . S
C412 C416 1.385 . S
C413 H388 0.951 . S
C413 C411 1.388 . S
C413 C414 1.366 . S
C414 C413 1.366 . S
C414 C415 1.414 . S
C414 C417 1.499 . S
C415 H389 0.950 1_455 S
C415 C414 1.414 . S
C415 C416 1.374 . S
C416 H390 0.950 1_455 S
C416 C412 1.385 . S
C416 C415 1.374 . S
C417 C414 1.499 . S
C417 C418 1.373 . S
C417 C419 1.389 . S
C418 H391 0.950 . S
C418 C404 1.377 . S
C418 C417 1.373 . S
C419 C403 1.377 . S
C419 C417 1.389 . S
C419 C420 1.524 . S
C420 C419 1.524 . S
C420 C421 1.397 . S
C420 C425 1.363 . S
C421 H392 0.950 . S
C421 C420 1.397 . S
C421 C422 1.334 . S
C422 H393 0.950 . S
C422 C421 1.334 . S
C422 C423 1.287 . S
C423 C422 1.287 . S
C423 C424 1.524 . S
C423 H426 0.999 . S
C424 H394 0.950 . S
C424 C423 1.524 . S
C424 C425 1.415 . S
C425 H395 0.950 . S
C425 C420 1.363 . S
C425 C424 1.415 . S
H426 C423 0.999 . S
H427 C408 0.913 . S
H428 C446 0.947 1_565 S
H429 C448 0.951 1_565 S
H430 C450 0.950 . S
H431 C451 0.950 . S
H432 C453 0.950 . S
H433 C456 0.950 . S
H434 C457 0.950 . S
H435 C459 0.950 . S
H436 C460 0.950 . S
H437 C461 0.951 . S
H438 C463 0.951 . S
H439 C465 0.950 1_565 S
H440 C466 0.950 1_565 S
H441 C468 0.950 . S
H442 C471 0.949 1_565 S
H443 C472 0.950 . S
H444 C474 0.950 . S
H445 C475 0.950 . S
C446 H428 0.947 1_545 S
C446 C447 1.373 . S
C446 C448 1.384 . S
C447 C446 1.373 . S
C447 C451 1.385 . S
C448 H429 0.951 1_545 S
C448 C446 1.384 . S
C448 C449 1.366 . S
C449 C448 1.366 . S
C449 C450 1.414 . S
C449 C452 1.499 . S
C450 H430 0.950 . S
C450 C449 1.414 . S
C450 C451 1.374 . S
C451 H431 0.950 . S
C451 C447 1.385 . S
C451 C450 1.374 . S
C452 C449 1.499 . S
C452 C453 1.373 . S
C452 C454 1.389 . S
C453 H432 0.950 . S
C453 C452 1.373 . S
C453 C469 1.377 . S
C454 C452 1.389 . S
C454 C455 1.524 . S
C454 C468 1.377 . S
C455 C454 1.524 . S
C455 C456 1.397 . S
C455 C460 1.363 1_545 S
C456 H433 0.950 . S
C456 C455 1.397 . S
C456 C457 1.334 . S
C457 H434 0.950 . S
C457 C456 1.334 . S
C457 C458 1.287 . S
C458 C457 1.287 . S
C458 C459 1.524 1_545 S
C458 H477 0.913 . S
C459 H435 0.950 . S
C459 C458 1.524 1_565 S
C459 C460 1.415 . S
C460 H436 0.950 . S
C460 C455 1.363 1_565 S
C460 C459 1.415 . S
C461 H437 0.951 . S
C461 C462 1.366 . S
C461 C463 1.388 . S
C462 C461 1.366 . S
C462 C466 1.385 . S
C463 H438 0.951 . S
C463 C461 1.388 . S
C463 C464 1.366 . S
C464 C463 1.366 . S
C464 C465 1.414 . S
C464 C467 1.499 . S
C465 H439 0.950 1_545 S
C465 C464 1.414 . S
C465 C466 1.374 . S
C466 H440 0.950 1_545 S
C466 C462 1.385 . S
C466 C465 1.374 . S
C467 C464 1.499 . S
C467 C468 1.373 . S
C467 C469 1.389 . S
C468 H441 0.950 . S
C468 C454 1.377 . S
C468 C467 1.373 . S
C469 C453 1.377 . S
C469 C467 1.389 . S
C469 C470 1.524 . S
C470 C469 1.524 . S
C470 C471 1.397 . S
C470 C475 1.363 . S
C471 H442 0.949 1_545 S
C471 C470 1.397 . S
C471 C472 1.334 . S
C472 H443 0.950 . S
C472 C471 1.334 . S
C472 C473 1.287 . S
C473 C472 1.287 . S
C473 C474 1.524 . S
C473 H476 0.999 . S
C474 H444 0.950 . S
C474 C473 1.524 . S
C474 C475 1.415 . S
C475 H445 0.950 . S
C475 C470 1.363 . S
C475 C474 1.415 . S
H476 C473 0.999 . S
H477 C458 0.913 . S
H478 C496 0.951 . S
H479 C498 0.951 . S
H480 C500 0.950 . S
H481 C501 0.950 . S
H482 C503 0.950 . S
H483 C506 0.950 . S
H484 C507 0.950 . S
H485 C509 0.950 . S
H486 C510 0.950 . S
H487 C511 0.951 . S
H488 C513 0.951 . S
H489 C515 0.950 . S
H490 C516 0.950 . S
H491 C518 0.950 . S
H492 C521 0.950 . S
H493 C522 0.950 . S
H494 C524 0.950 . S
H495 C525 0.950 . S
C496 H478 0.951 . S
C496 C497 1.366 . S
C496 C498 1.388 . S
C497 C496 1.366 . S
C497 C501 1.385 . S
C498 H479 0.951 . S
C498 C496 1.388 . S
C498 C499 1.366 . S
C499 C498 1.366 . S
C499 C500 1.414 . S
C499 C502 1.499 . S
C500 H480 0.950 . S
C500 C499 1.414 . S
C500 C501 1.374 . S
C501 H481 0.950 . S
C501 C497 1.385 . S
C501 C500 1.374 . S
C502 C499 1.499 . S
C502 C503 1.373 . S
C502 C504 1.389 . S
C503 H482 0.950 . S
C503 C502 1.373 . S
C503 C519 1.377 . S
C504 C502 1.389 . S
C504 C505 1.524 . S
C504 C518 1.377 . S
C505 C504 1.524 . S
C505 C506 1.397 . S
C505 C510 1.363 . S
C506 H483 0.950 . S
C506 C505 1.397 . S
C506 C507 1.334 . S
C507 H484 0.950 . S
C507 C506 1.334 . S
C507 C508 1.287 . S
C508 C507 1.287 . S
C508 C509 1.524 . S
C508 H527 0.913 . S
C509 H485 0.950 . S
C509 C508 1.524 . S
C509 C510 1.415 . S
C510 H486 0.950 . S
C510 C505 1.363 . S
C510 C509 1.415 . S
C511 H487 0.951 . S
C511 C512 1.366 . S
C511 C513 1.388 . S
C512 C511 1.366 . S
C512 C516 1.385 . S
C513 H488 0.951 . S
C513 C511 1.388 . S
C513 C514 1.366 . S
C514 C513 1.366 . S
C514 C515 1.414 . S
C514 C517 1.499 . S
C515 H489 0.950 . S
C515 C514 1.414 . S
C515 C516 1.374 . S
C516 H490 0.950 . S
C516 C512 1.385 . S
C516 C515 1.374 . S
C517 C514 1.499 . S
C517 C518 1.373 . S
C517 C519 1.389 . S
C518 H491 0.950 . S
C518 C504 1.377 . S
C518 C517 1.373 . S
C519 C503 1.377 . S
C519 C517 1.389 . S
C519 C520 1.524 . S
C520 C519 1.524 . S
C520 C521 1.397 . S
C520 C525 1.363 . S
C521 H492 0.950 . S
C521 C520 1.397 . S
C521 C522 1.334 . S
C522 H493 0.950 . S
C522 C521 1.334 . S
C522 C523 1.287 . S
C523 C522 1.287 . S
C523 C524 1.524 . S
C523 H526 0.999 . S
C524 H494 0.950 . S
C524 C523 1.524 . S
C524 C525 1.415 . S
C525 H495 0.950 . S
C525 C520 1.363 . S
C525 C524 1.415 . S
H526 C523 0.999 . S
H527 C508 0.913 . S
H528 C546 0.951 . S
H529 C548 0.951 . S
H530 C550 0.950 . S
H531 C551 0.950 . S
H532 C553 0.950 . S
H533 C556 0.950 . S
H534 C557 0.950 . S
H535 C559 0.950 . S
H536 C560 0.950 . S
H537 C561 0.951 . S
H538 C563 0.951 . S
H539 C565 0.950 . S
H540 C566 0.950 . S
H541 C568 0.950 1_565 S
H542 C571 0.950 . S
H543 C572 0.950 . S
H544 C574 0.950 . S
H545 C575 0.950 . S
C546 H528 0.951 . S
C546 C547 1.366 . S
C546 C548 1.388 . S
C547 C546 1.366 . S
C547 C551 1.385 . S
C548 H529 0.951 . S
C548 C546 1.388 . S
C548 C549 1.366 . S
C549 C548 1.366 . S
C549 C550 1.414 . S
C549 C552 1.499 . S
C550 H530 0.950 . S
C550 C549 1.414 . S
C550 C551 1.374 . S
C551 H531 0.950 . S
C551 C547 1.385 . S
C551 C550 1.374 . S
C552 C549 1.499 . S
C552 C553 1.373 . S
C552 C554 1.389 . S
C553 H532 0.950 . S
C553 C552 1.373 . S
C553 C569 1.377 . S
C554 C552 1.389 . S
C554 C555 1.524 1_545 S
C554 C568 1.377 . S
C555 C554 1.524 1_565 S
C555 C556 1.397 . S
C555 C560 1.363 . S
C556 H533 0.950 . S
C556 C555 1.397 . S
C556 C557 1.334 . S
C557 H534 0.950 . S
C557 C556 1.334 . S
C557 C558 1.287 . S
C558 C557 1.287 . S
C558 C559 1.524 . S
C558 H577 0.913 . S
C559 H535 0.950 . S
C559 C558 1.524 . S
C559 C560 1.415 . S
C560 H536 0.950 . S
C560 C555 1.363 . S
C560 C559 1.415 . S
C561 H537 0.951 . S
C561 C562 1.366 . S
C561 C563 1.388 . S
C562 C561 1.366 . S
C562 C566 1.385 . S
C563 H538 0.951 . S
C563 C561 1.388 . S
C563 C564 1.366 . S
C564 C563 1.366 . S
C564 C565 1.414 . S
C564 C567 1.499 . S
C565 H539 0.950 . S
C565 C564 1.414 . S
C565 C566 1.374 . S
C566 H540 0.950 . S
C566 C562 1.385 . S
C566 C565 1.374 . S
C567 C564 1.499 . S
C567 C568 1.373 . S
C567 C569 1.389 . S
C568 H541 0.950 1_545 S
C568 C554 1.377 . S
C568 C567 1.373 . S
C569 C553 1.377 . S
C569 C567 1.389 . S
C569 C570 1.524 . S
C570 C569 1.524 . S
C570 C571 1.397 . S
C570 C575 1.363 . S
C571 H542 0.950 . S
C571 C570 1.397 . S
C571 C572 1.334 . S
C572 H543 0.950 . S
C572 C571 1.334 . S
C572 C573 1.287 . S
C573 C572 1.287 . S
C573 C574 1.524 . S
C573 H576 0.999 . S
C574 H544 0.950 . S
C574 C573 1.524 . S
C574 C575 1.415 . S
C575 H545 0.950 . S
C575 C570 1.363 . S
C575 C574 1.415 . S
H576 C573 0.999 . S
H577 C558 0.913 . S
H578 C596 0.951 . S
H579 C598 0.938 1_554 S
H580 C600 0.950 . S
H581 C601 0.950 . S
H582 C603 0.950 . S
H583 C606 0.950 . S
H584 C607 0.950 . S
H585 C609 0.950 . S
H586 C610 0.950 . S
H587 C611 0.951 . S
H588 C613 0.951 . S
H589 C615 0.950 . S
H590 C616 0.950 . S
H591 C618 0.950 . S
H592 C621 0.950 . S
H593 C622 0.950 . S
H594 C624 0.950 . S
H595 C625 0.950 . S
C596 H578 0.951 . S
C596 C597 1.366 . S
C596 C598 1.388 1_554 S
C597 C596 1.366 . S
C597 C601 1.385 1_554 S
C598 H579 0.938 1_556 S
C598 C596 1.388 1_556 S
C598 C599 1.366 . S
C599 C598 1.366 . S
C599 C600 1.414 . S
C599 C602 1.499 . S
C600 H580 0.950 . S
C600 C599 1.414 . S
C600 C601 1.374 . S
C601 H581 0.950 . S
C601 C597 1.385 1_556 S
C601 C600 1.374 . S
C602 C599 1.499 . S
C602 C603 1.373 . S
C602 C604 1.389 . S
C603 H582 0.950 . S
C603 C602 1.373 . S
C603 C619 1.377 . S
C604 C602 1.389 . S
C604 C605 1.524 1_556 S
C604 C618 1.377 . S
C605 C604 1.524 1_554 S
C605 C606 1.397 . S
C605 C610 1.363 . S
C606 H583 0.950 . S
C606 C605 1.397 . S
C606 C607 1.334 . S
C607 H584 0.950 . S
C607 C606 1.334 . S
C607 C608 1.287 . S
C608 C607 1.287 . S
C608 C609 1.524 . S
C608 H627 0.913 . S
C609 H585 0.950 . S
C609 C608 1.524 . S
C609 C610 1.415 . S
C610 H586 0.950 . S
C610 C605 1.363 . S
C610 C609 1.415 . S
C611 H587 0.951 . S
C611 C612 1.366 . S
C611 C613 1.388 . S
C612 C611 1.366 . S
C612 C616 1.385 . S
C613 H588 0.951 . S
C613 C611 1.388 . S
C613 C614 1.366 . S
C614 C613 1.366 . S
C614 C615 1.414 . S
C614 C617 1.499 . S
C615 H589 0.950 . S
C615 C614 1.414 . S
C615 C616 1.374 . S
C616 H590 0.950 . S
C616 C612 1.385 . S
C616 C615 1.374 . S
C617 C614 1.499 . S
C617 C618 1.373 . S
C617 C619 1.389 . S
C618 H591 0.950 . S
C618 C604 1.377 . S
C618 C617 1.373 . S
C619 C603 1.377 . S
C619 C617 1.389 . S
C619 C620 1.524 . S
C620 C619 1.524 . S
C620 C621 1.397 . S
C620 C625 1.363 . S
C621 H592 0.950 . S
C621 C620 1.397 . S
C621 C622 1.334 . S
C622 H593 0.950 . S
C622 C621 1.334 . S
C622 C623 1.287 . S
C623 C622 1.287 . S
C623 C624 1.524 . S
C623 H626 0.999 . S
C624 H594 0.950 . S
C624 C623 1.524 . S
C624 C625 1.415 . S
C625 H595 0.950 . S
C625 C620 1.363 . S
C625 C624 1.415 . S
H626 C623 0.999 . S
H627 C608 0.913 . S
H628 C646 0.951 . S
H629 C648 0.951 . S
H630 C650 0.950 . S
H631 C651 0.950 . S
H632 C653 0.950 . S
H633 C656 0.950 . S
H634 C657 0.950 . S
H635 C659 0.950 . S
H636 C660 0.950 . S
H637 C661 0.951 . S
H638 C663 0.951 . S
H639 C665 0.950 . S
H640 C666 0.950 . S
H641 C668 0.950 . S
H642 C671 0.950 . S
H643 C672 0.950 . S
H644 C674 0.950 . S
H645 C675 0.950 . S
C646 H628 0.951 . S
C646 C647 1.366 . S
C646 C648 1.388 . S
C647 C646 1.366 . S
C647 C651 1.385 1_655 S
C648 H629 0.951 . S
C648 C646 1.388 . S
C648 C649 1.366 . S
C649 C648 1.366 . S
C649 C650 1.414 1_655 S
C649 C652 1.499 . S
C650 H630 0.950 . S
C650 C649 1.414 1_455 S
C650 C651 1.374 . S
C651 H631 0.950 . S
C651 C647 1.385 1_455 S
C651 C650 1.374 . S
C652 C649 1.499 . S
C652 C653 1.372 1_655 S
C652 C654 1.390 . S
C653 H632 0.950 . S
C653 C652 1.372 1_455 S
C653 C669 1.377 . S
C654 C652 1.390 . S
C654 C655 1.524 . S
C654 C668 1.377 . S
C655 C654 1.524 . S
C655 C656 1.397 . S
C655 C660 1.363 . S
C656 H633 0.950 . S
C656 C655 1.397 . S
C656 C657 1.334 . S
C657 H634 0.950 . S
C657 C656 1.334 . S
C657 C658 1.287 . S
C658 C657 1.287 . S
C658 C659 1.524 . S
C658 H677 0.913 . S
C659 H635 0.950 . S
C659 C658 1.524 . S
C659 C660 1.415 . S
C660 H636 0.950 . S
C660 C655 1.363 . S
C660 C659 1.415 . S
C661 H637 0.951 . S
C661 C662 1.366 . S
C661 C663 1.388 . S
C662 C661 1.366 . S
C662 C666 1.385 1_455 S
C663 H638 0.951 . S
C663 C661 1.388 . S
C663 C664 1.366 . S
C664 C663 1.366 . S
C664 C665 1.414 1_455 S
C664 C667 1.499 . S
C665 H639 0.950 . S
C665 C664 1.414 1_655 S
C665 C666 1.374 . S
C666 H640 0.950 . S
C666 C662 1.385 1_655 S
C666 C665 1.374 . S
C667 C664 1.499 . S
C667 C668 1.373 1_455 S
C667 C669 1.389 . S
C668 H641 0.950 . S
C668 C654 1.377 . S
C668 C667 1.373 1_655 S
C669 C653 1.377 . S
C669 C667 1.389 . S
C669 C670 1.524 . S
C670 C669 1.524 . S
C670 C671 1.397 . S
C670 C675 1.363 . S
C671 H642 0.950 . S
C671 C670 1.397 . S
C671 C672 1.334 . S
C672 H643 0.950 . S
C672 C671 1.334 . S
C672 C673 1.287 . S
C673 C672 1.287 . S
C673 C674 1.524 . S
C673 H676 0.999 . S
C674 H644 0.950 . S
C674 C673 1.524 . S
C674 C675 1.415 . S
C675 H645 0.950 . S
C675 C670 1.363 . S
C675 C674 1.415 . S
H676 C673 0.999 . S
H677 C658 0.913 . S
H678 C696 0.951 . S
H679 C698 0.951 . S
H680 C700 0.950 . S
H681 C701 0.950 . S
H682 C703 0.950 . S
H683 C706 0.950 . S
H684 C707 0.950 . S
H685 C709 0.950 . S
H686 C710 0.950 1_545 S
H687 C711 0.951 . S
H688 C713 0.951 . S
H689 C715 0.950 . S
H690 C716 0.950 . S
H691 C718 0.950 1_565 S
H692 C721 0.950 . S
H693 C722 0.950 . S
H694 C724 0.950 . S
H695 C725 0.950 . S
C696 H678 0.951 . S
C696 C697 1.366 1_545 S
C696 C698 1.388 . S
C697 C696 1.366 1_565 S
C697 C701 1.385 . S
C698 H679 0.951 . S
C698 C696 1.388 . S
C698 C699 1.366 . S
C699 C698 1.366 . S
C699 C700 1.414 1_545 S
C699 C702 1.499 . S
C700 H680 0.950 . S
C700 C699 1.414 1_565 S
C700 C701 1.374 . S
C701 H681 0.950 . S
C701 C697 1.385 . S
C701 C700 1.374 . S
C702 C699 1.499 . S
C702 C703 1.373 . S
C702 C704 1.389 1_545 S
C703 H682 0.950 . S
C703 C702 1.373 . S
C703 C719 1.377 . S
C704 C702 1.389 1_565 S
C704 C705 1.524 . S
C704 C718 1.377 1_565 S
C705 C704 1.524 . S
C705 C706 1.397 . S
C705 C710 1.363 . S
C706 H683 0.950 . S
C706 C705 1.397 . S
C706 C707 1.334 . S
C707 H684 0.950 . S
C707 C706 1.334 . S
C707 C708 1.287 . S
C708 C707 1.287 . S
C708 C709 1.524 . S
C708 H727 0.913 . S
C709 H685 0.950 . S
C709 C708 1.524 . S
C709 C710 1.415 . S
C710 H686 0.950 1_565 S
C710 C705 1.363 . S
C710 C709 1.415 . S
C711 H687 0.951 . S
C711 C712 1.366 . S
C711 C713 1.388 . S
C712 C711 1.366 . S
C712 C716 1.385 . S
C713 H688 0.951 . S
C713 C711 1.388 . S
C713 C714 1.366 . S
C714 C713 1.366 . S
C714 C715 1.414 . S
C714 C717 1.499 . S
C715 H689 0.950 . S
C715 C714 1.414 . S
C715 C716 1.374 . S
C716 H690 0.950 . S
C716 C712 1.385 . S
C716 C715 1.374 . S
C717 C714 1.499 . S
C717 C718 1.373 . S
C717 C719 1.389 . S
C718 H691 0.950 1_545 S
C718 C704 1.377 1_545 S
C718 C717 1.373 . S
C719 C703 1.377 . S
C719 C717 1.389 . S
C719 C720 1.524 . S
C720 C719 1.524 . S
C720 C721 1.397 . S
C720 C725 1.363 . S
C721 H692 0.950 . S
C721 C720 1.397 . S
C721 C722 1.334 . S
C722 H693 0.950 . S
C722 C721 1.334 . S
C722 C723 1.287 . S
C723 C722 1.287 . S
C723 C724 1.524 . S
C723 H726 0.999 . S
C724 H694 0.950 . S
C724 C723 1.524 . S
C724 C725 1.415 . S
C725 H695 0.950 . S
C725 C720 1.363 . S
C725 C724 1.415 . S
H726 C723 0.999 . S
H727 C708 0.913 . S
H728 C746 0.951 . S
H729 C748 0.951 . S
H730 C750 0.978 . S
H731 C751 0.950 . S
H732 C753 0.950 . S
H733 C756 0.950 . S
H734 C757 0.950 . S
H735 C759 0.950 . S
H736 C760 0.950 . S
H737 C761 0.951 . S
H738 C763 0.951 . S
H739 C765 0.950 . S
H740 C766 0.950 . S
H741 C768 0.950 . S
H742 C771 0.950 . S
H743 C772 0.950 . S
H744 C774 0.950 1_554 S
H745 C775 0.950 . S
C746 H728 0.951 . S
C746 C747 1.366 1_556 S
C746 C748 1.388 . S
C747 C746 1.366 1_554 S
C747 C751 1.385 . S
C748 H729 0.951 . S
C748 C746 1.388 . S
C748 C749 1.366 . S
C749 C748 1.366 . S
C749 C750 1.354 1_556 S
C749 C752 1.499 . S
C750 H730 0.978 . S
C750 C749 1.354 1_554 S
C750 C751 1.409 . S
C751 H731 0.950 . S
C751 C747 1.385 . S
C751 C750 1.409 . S
C752 C749 1.499 . S
C752 C753 1.373 . S
C752 C754 1.389 . S
C753 H732 0.950 . S
C753 C752 1.373 . S
C753 C769 1.377 . S
C754 C752 1.389 . S
C754 C755 1.524 . S
C754 C768 1.377 . S
C755 C754 1.524 . S
C755 C756 1.397 . S
C755 C760 1.363 . S
C756 H733 0.950 . S
C756 C755 1.397 . S
C756 C757 1.334 . S
C757 H734 0.950 . S
C757 C756 1.334 . S
C757 C758 1.287 . S
C758 C757 1.287 . S
C758 C759 1.524 . S
C758 H777 0.913 . S
C759 H735 0.950 . S
C759 C758 1.524 . S
C759 C760 1.415 . S
C760 H736 0.950 . S
C760 C755 1.363 . S
C760 C759 1.415 . S
C761 H737 0.951 . S
C761 C762 1.366 . S
C761 C763 1.388 . S
C762 C761 1.366 . S
C762 C766 1.385 . S
C763 H738 0.951 . S
C763 C761 1.388 . S
C763 C764 1.366 . S
C764 C763 1.366 . S
C764 C765 1.414 . S
C764 C767 1.499 . S
C765 H739 0.950 . S
C765 C764 1.414 . S
C765 C766 1.374 . S
C766 H740 0.950 . S
C766 C762 1.385 . S
C766 C765 1.374 . S
C767 C764 1.499 . S
C767 C768 1.373 . S
C767 C769 1.389 . S
C768 H741 0.950 . S
C768 C754 1.377 . S
C768 C767 1.373 . S
C769 C753 1.377 . S
C769 C767 1.389 . S
C769 C770 1.524 . S
C770 C769 1.524 . S
C770 C771 1.397 . S
C770 C775 1.363 . S
C771 H742 0.950 . S
C771 C770 1.397 . S
C771 C772 1.334 . S
C772 H743 0.950 . S
C772 C771 1.334 . S
C772 C773 1.287 . S
C773 C772 1.287 . S
C773 C774 1.524 . S
C773 H776 0.999 . S
C774 H744 0.950 1_556 S
C774 C773 1.524 . S
C774 C775 1.415 . S
C775 H745 0.950 . S
C775 C770 1.363 . S
C775 C774 1.415 . S
H776 C773 0.999 . S
H777 C758 0.913 . S
H778 C796 0.951 1_655 S
H779 C798 0.951 1_655 S
H780 C800 0.950 . S
H781 C801 0.950 . S
H782 C803 0.950 . S
H783 C806 0.950 . S
H784 C807 0.950 . S
H785 C809 0.950 1_655 S
H786 C810 0.950 . S
H787 C811 0.951 . S
H788 C813 0.951 . S
H789 C815 0.950 . S
H790 C816 0.950 . S
H791 C818 0.950 . S
H792 C821 0.950 . S
H793 C822 0.950 . S
H794 C824 0.950 . S
H795 C825 0.950 . S
C796 H778 0.951 1_455 S
C796 C797 1.366 . S
C796 C798 1.388 . S
C797 C796 1.366 . S
C797 C801 1.385 . S
C798 H779 0.951 1_455 S
C798 C796 1.388 . S
C798 C799 1.366 . S
C799 C798 1.366 . S
C799 C800 1.414 . S
C799 C802 1.499 . S
C800 H780 0.950 . S
C800 C799 1.414 . S
C800 C801 1.374 . S
C801 H781 0.950 . S
C801 C797 1.385 . S
C801 C800 1.374 . S
C802 C799 1.499 . S
C802 C803 1.373 . S
C802 C804 1.389 . S
C803 H782 0.950 . S
C803 C802 1.373 . S
C803 C819 1.377 . S
C804 C802 1.389 . S
C804 C805 1.524 . S
C804 C818 1.377 . S
C805 C804 1.524 . S
C805 C806 1.397 . S
C805 C810 1.363 1_455 S
C806 H783 0.950 . S
C806 C805 1.397 . S
C806 C807 1.334 . S
C807 H784 0.950 . S
C807 C806 1.334 . S
C807 C808 1.287 . S
C808 C807 1.287 . S
C808 C809 1.524 . S
C808 H827 0.913 . S
C809 H785 0.950 1_455 S
C809 C808 1.524 . S
C809 C810 1.415 1_455 S
C810 H786 0.950 . S
C810 C805 1.363 1_655 S
C810 C809 1.415 1_655 S
C811 H787 0.951 . S
C811 C812 1.366 . S
C811 C813 1.388 . S
C812 C811 1.366 . S
C812 C816 1.385 1_455 S
C813 H788 0.951 . S
C813 C811 1.388 . S
C813 C814 1.366 . S
C814 C813 1.366 . S
C814 C815 1.414 1_455 S
C814 C817 1.499 . S
C815 H789 0.950 . S
C815 C814 1.414 1_655 S
C815 C816 1.374 . S
C816 H790 0.950 . S
C816 C812 1.385 1_655 S
C816 C815 1.374 . S
C817 C814 1.499 . S
C817 C818 1.373 . S
C817 C819 1.389 . S
C818 H791 0.950 . S
C818 C804 1.377 . S
C818 C817 1.373 . S
C819 C803 1.377 . S
C819 C817 1.389 . S
C819 C820 1.524 . S
C820 C819 1.524 . S
C820 C821 1.397 1_455 S
C820 C825 1.363 . S
C821 H792 0.950 . S
C821 C820 1.397 1_655 S
C821 C822 1.334 . S
C822 H793 0.950 . S
C822 C821 1.334 . S
C822 C823 1.287 1_655 S
C823 C822 1.287 1_455 S
C823 C824 1.524 . S
C823 H826 0.999 . S
C824 H794 0.950 . S
C824 C823 1.524 . S
C824 C825 1.415 . S
C825 H795 0.950 . S
C825 C820 1.363 . S
C825 C824 1.415 . S
H826 C823 0.999 . S
H827 C808 0.913 . S
C262 C95 1.174 . S
C247 C11 1.172 . S
C297 C26 1.393 . S
C312 C139 1.392 . S
C347 C40 1.268 . S
C362 C201 1.266 . S
C397 C5 1.065 . S
C412 C77 1.185 . S
C462 C157 1.370 . S
C447 C18 1.367 . S
C497 C32 1.232 . S
C512 C219 1.238 . S
C562 C133 1.343 . S
C547 C39 1.404 . S
C597 C4 1.592 . S
C612 C195 1.506 . S
C662 C71 1.476 . S
C647 C19 1.421 . S
C712 C151 1.378 . S
C697 C33 1.310 . S
C762 C213 1.533 . S
C747 C12 1.613 . S
C797 C25 1.536 . S
C812 C89 1.473 . S
