# Generated by pormake.
# Topology pto, (3,4)-cn, num edge types: 1
# Building blocks:
#     Node 0, Type 0, BuildingBlock: BETDAH_clean_linker_0, # of connection points: 3
#     Node 1, Type 0, BuildingBlock: BETDAH_clean_linker_0, # of connection points: 3
#     Node 2, Type 0, BuildingBlock: BETDAH_clean_linker_0, # of connection points: 3
#     Node 3, Type 0, BuildingBlock: BETDAH_clean_linker_0, # of connection points: 3
#     Node 4, Type 0, BuildingBlock: BETDAH_clean_linker_0, # of connection points: 3
#     Node 5, Type 0, BuildingBlock: BETDAH_clean_linker_0, # of connection points: 3
#     Node 6, Type 0, BuildingBlock: BETDAH_clean_linker_0, # of connection points: 3
#     Node 7, Type 0, BuildingBlock: BETDAH_clean_linker_0, # of connection points: 3
#     Node 8, Type 1, BuildingBlock: KOZSID_clean_sbu_0, # of connection points: 4
#     Node 9, Type 1, BuildingBlock: KOZSID_clean_sbu_0, # of connection points: 4
#     Node 10, Type 1, BuildingBlock: KOZSID_clean_sbu_0, # of connection points: 4
#     Node 11, Type 1, BuildingBlock: KOZSID_clean_sbu_0, # of connection points: 4
#     Node 12, Type 1, BuildingBlock: KOZSID_clean_sbu_0, # of connection points: 4
#     Node 13, Type 1, BuildingBlock: KOZSID_clean_sbu_0, # of connection points: 4
#     Edge 14, Type (0, 1), None
#     Edge 15, Type (0, 1), None
#     Edge 16, Type (0, 1), None
#     Edge 17, Type (0, 1), None
#     Edge 18, Type (0, 1), None
#     Edge 19, Type (0, 1), None
#     Edge 20, Type (0, 1), None
#     Edge 21, Type (0, 1), None
#     Edge 22, Type (0, 1), None
#     Edge 23, Type (0, 1), None
#     Edge 24, Type (0, 1), None
#     Edge 25, Type (0, 1), None
#     Edge 26, Type (0, 1), None
#     Edge 27, Type (0, 1), None
#     Edge 28, Type (0, 1), None
#     Edge 29, Type (0, 1), None
#     Edge 30, Type (0, 1), None
#     Edge 31, Type (0, 1), None
#     Edge 32, Type (0, 1), None
#     Edge 33, Type (0, 1), None
#     Edge 34, Type (0, 1), None
#     Edge 35, Type (0, 1), None
#     Edge 36, Type (0, 1), None
#     Edge 37, Type (0, 1), None
# Relax obj value: 0.013
# Max RMSD: 0.130
# Mean RMSD: 0.064
data_MOF--net-pto--node1-KOZSID_clean_sbu_0--node2-BETDAH_clean_linker_0--edge1-none
_symmetry_space_group_name_H-M    P1
_symmetry_Int_Tables_number       1
_symmetry_cell_setting            triclinic
loop_
_symmetry_equiv_pos_as_xyz
'x, y, z'
_cell_length_a     18.924039
_cell_length_b     24.097747
_cell_length_c     21.711477
_cell_angle_alpha  101.77288
_cell_angle_beta   90.290631
_cell_angle_gamma 108.5048
loop_
_atom_site_label
_atom_site_type_symbol
_atom_site_fract_x
_atom_site_fract_y
_atom_site_fract_z
_atom_type_partial_charge
H0 H 0.41065 0.19942 0.39825 0.0
H1 H 0.30071 0.32659 0.37558 0.0
H2 H 0.28218 0.25826 0.54453 0.0
C3 C 0.37777 0.22773 0.4167 0.0
C4 C 0.34668 0.22298 0.47489 0.0
C5 C 0.36295 0.26636 0.38079 0.0
C6 C 0.31644 0.29992 0.40429 0.0
C7 C 0.29025 0.29908 0.46459 0.0
C8 C 0.30595 0.261 0.49946 0.0
N9 N 0.24517 0.33375 0.49091 0.0
C10 C 0.23009 0.37786 0.46577 0.0
H11 H 0.29201 0.70387 0.85856 0.0
H12 H 0.37623 0.85243 0.76843 0.0
H13 H 0.15116 0.72981 0.71929 0.0
C14 C 0.28335 0.7293 0.82492 0.0
C15 C 0.21392 0.71248 0.79234 0.0
C16 C 0.34035 0.78059 0.81849 0.0
C17 C 0.3311 0.81326 0.77414 0.0
C18 C 0.26309 0.79394 0.73676 0.0
C19 C 0.20434 0.74377 0.74658 0.0
N20 N 0.25215 0.82207 0.68767 0.0
C21 C 0.28859 0.88136 0.68379 0.0
H22 H 0.91075 0.78567 0.47817 0.0
H23 H 0.85325 0.8697 0.33706 0.0
H24 H 0.92586 0.71712 0.28086 0.0
C25 C 0.90263 0.78661 0.42899 0.0
C26 C 0.91752 0.74328 0.38112 0.0
C27 C 0.87878 0.83221 0.41344 0.0
C28 C 0.86911 0.83377 0.34965 0.0
C29 C 0.88625 0.79182 0.30236 0.0
C30 C 0.91018 0.74736 0.31823 0.0
N31 N 0.88833 0.79731 0.23898 0.0
C32 C 0.82603 0.79535 0.20412 0.0
H33 H 0.91141 0.31929 0.81832 0.0
H34 H 0.78841 0.18407 0.91342 0.0
H35 H 0.80371 0.36682 0.98703 0.0
C36 C 0.87778 0.3073 0.85681 0.0
C37 C 0.86288 0.35213 0.90271 0.0
C38 C 0.84584 0.24655 0.85778 0.0
C39 C 0.80839 0.23068 0.90987 0.0
C40 C 0.79649 0.27411 0.95782 0.0
C41 C 0.81908 0.33443 0.95236 0.0
N42 N 0.76978 0.25606 0.01365 0.0
C43 C 0.71298 0.2704 0.04609 0.0
H44 H 0.80284 0.71541 0.92207 0.0
H45 H 0.92099 0.7465 0.75699 0.0
H46 H 0.76586 0.83896 0.81853 0.0
C47 C 0.81652 0.73892 0.88397 0.0
C48 C 0.77961 0.77963 0.87708 0.0
C49 C 0.86409 0.72373 0.839 0.0
C50 C 0.88167 0.75542 0.79056 0.0
C51 C 0.84988 0.79945 0.78517 0.0
C52 C 0.7961 0.80956 0.8267 0.0
N53 N 0.87157 0.83054 0.73572 0.0
C54 C 0.86231 0.88494 0.73264 0.0
H55 H 0.80044 0.39378 0.39487 0.0
H56 H 0.94765 0.38086 0.53835 0.0
H57 H 0.74756 0.23273 0.46665 0.0
C58 C 0.81336 0.369 0.42741 0.0
C59 C 0.76671 0.31033 0.42554 0.0
C60 C 0.88091 0.39339 0.46493 0.0
C61 C 0.89615 0.36201 0.50819 0.0
C62 C 0.84796 0.30451 0.50997 0.0
C63 C 0.78365 0.27788 0.46739 0.0
N64 N 0.86649 0.27546 0.55535 0.0
C65 C 0.85546 0.21435 0.54638 0.0
H66 H 0.36904 0.19691 0.91024 0.0
H67 H 0.35745 0.37169 0.99688 0.0
H68 H 0.29227 0.29986 0.801 0.0
C69 C 0.35398 0.23627 0.90818 0.0
C70 C 0.32581 0.24135 0.84963 0.0
C71 C 0.36541 0.2828 0.9629 0.0
C72 C 0.34911 0.33461 0.95686 0.0
C73 C 0.32304 0.34057 0.89908 0.0
C74 C 0.30962 0.29361 0.84606 0.0
N75 N 0.32324 0.39781 0.89291 0.0
C76 C 0.25967 0.4103 0.87736 0.0
H77 H 0.24434 0.79087 0.43119 0.0
H78 H 0.42972 0.88215 0.33408 0.0
H79 H 0.37033 0.69255 0.32018 0.0
C80 C 0.28868 0.7901 0.39997 0.0
C81 C 0.29977 0.73521 0.3756 0.0
C82 C 0.33621 0.84389 0.38688 0.0
C83 C 0.39267 0.84144 0.34518 0.0
C84 C 0.40424 0.78674 0.32033 0.0
C85 C 0.35954 0.73434 0.33759 0.0
N86 N 0.46651 0.78505 0.28476 0.0
C87 C 0.47231 0.79427 0.22339 0.0
C88 C 0.23168 0.67324 0.45399 0.0
C89 C 0.27555 0.71243 0.50635 0.0
C90 C 0.23816 0.69965 0.55816 0.0
C91 C 0.17415 0.65322 0.53487 0.0
N92 N 0.16958 0.63465 0.47143 0.0
Co93 Co 0.08811 0.5658 0.41926 0.0
N94 N 0.03237 0.54835 0.49464 0.0
C95 C 0.04416 0.58544 0.55201 0.0
C96 C 0.99118 0.56541 0.59248 0.0
C97 C 0.94484 0.5111 0.55956 0.0
C98 C 0.9718 0.50148 0.50039 0.0
N99 N 0.01043 0.49345 0.3676 0.0
C100 C 0.96202 0.44636 0.38674 0.0
C101 C 0.93315 0.39772 0.33626 0.0
C102 C 0.96056 0.41582 0.28332 0.0
C103 C 0.0069 0.47336 0.30444 0.0
N104 N 0.14075 0.58542 0.34264 0.0
C105 C 0.11525 0.55879 0.28209 0.0
C106 C 0.15595 0.58644 0.23861 0.0
C107 C 0.21046 0.63443 0.27328 0.0
C108 C 0.20052 0.6328 0.33647 0.0
N109 N 0.14596 0.5128 0.43086 0.0
C110 C 0.20764 0.42626 0.45215 0.0
C111 C 0.19122 0.43002 0.39065 0.0
C112 C 0.16107 0.47415 0.38099 0.0
C113 C 0.19669 0.46803 0.50236 0.0
C114 C 0.16621 0.51075 0.49078 0.0
N115 N 0.02918 0.61954 0.40949 0.0
C116 C 0.93131 0.64069 0.35606 0.0
C117 C 0.94947 0.69797 0.39532 0.0
C118 C 0.00569 0.71409 0.44329 0.0
C119 C 0.04433 0.67485 0.44946 0.0
C120 C 0.9716 0.60256 0.36373 0.0
H121 H 0.08727 0.69198 0.48657 0.0
H122 H 0.95564 0.56007 0.33134 0.0
H123 H 0.14803 0.47532 0.33324 0.0
H124 H 0.15683 0.54043 0.53115 0.0
C125 C 0.11225 0.632 0.56914 0.0
C126 C 0.2469 0.67863 0.3888 0.0
C127 C 0.93982 0.44683 0.45149 0.0
C128 C 0.05416 0.50686 0.26725 0.0
H129 H 0.32746 0.74837 0.50681 0.0
H130 H 0.25425 0.72303 0.60668 0.0
H131 H 0.98919 0.58595 0.64138 0.0
H132 H 0.89778 0.48136 0.57753 0.0
H133 H 0.89768 0.35299 0.33717 0.0
H134 H 0.9513 0.38903 0.23566 0.0
H135 H 0.14636 0.57373 0.18771 0.0
H136 H 0.25135 0.66736 0.25349 0.0
H137 H 0.19964 0.39832 0.35056 0.0
H138 H 0.20913 0.46651 0.55068 0.0
H139 H 0.8873 0.62579 0.31843 0.0
H140 H 0.0227 0.75814 0.47437 0.0
C141 C 0.13714 0.66528 0.87601 0.0
C142 C 0.16709 0.71618 0.92382 0.0
C143 C 0.148 0.69957 0.97955 0.0
C144 C 0.106 0.64016 0.9628 0.0
N145 N 0.09793 0.61773 0.89993 0.0
Co146 Co 0.02562 0.53931 0.85492 0.0
N147 N 0.98655 0.51775 0.93553 0.0
C148 C 0.01716 0.54768 0.99409 0.0
C149 C 0.98978 0.51738 0.04024 0.0
C150 C 0.93981 0.46418 0.00925 0.0
C151 C 0.93807 0.46538 0.94544 0.0
N152 N 0.94735 0.46537 0.80882 0.0
C153 C 0.88948 0.42732 0.83122 0.0
C154 C 0.83928 0.38838 0.78211 0.0
C155 C 0.87009 0.39945 0.72712 0.0
C156 C 0.93564 0.44576 0.74569 0.0
N157 N 0.06891 0.55707 0.77488 0.0
C158 C 0.05648 0.5174 0.71916 0.0
C159 C 0.10458 0.53713 0.67538 0.0
C160 C 0.14783 0.594 0.70413 0.0
C161 C 0.12373 0.60539 0.76425 0.0
N162 N 0.09783 0.49575 0.86182 0.0
C163 C 0.20297 0.43732 0.87169 0.0
C164 C 0.13775 0.40826 0.8324 0.0
C165 C 0.08582 0.43815 0.8282 0.0
C166 C 0.21482 0.49505 0.90623 0.0
C167 C 0.1622 0.52326 0.90078 0.0
N168 N 0.95603 0.58391 0.84862 0.0
C169 C 0.90335 0.63569 0.78689 0.0
C170 C 0.89337 0.67374 0.84192 0.0
C171 C 0.90994 0.66247 0.90004 0.0
C172 C 0.93915 0.61672 0.90222 0.0
C173 C 0.93448 0.59107 0.79128 0.0
H174 H 0.95168 0.61092 0.94803 0.0
H175 H 0.94348 0.56417 0.74804 0.0
H176 H 0.03681 0.41366 0.79719 0.0
H177 H 0.17598 0.56756 0.92881 0.0
C178 C 0.07066 0.60459 0.00414 0.0
C179 C 0.15237 0.66285 0.8092 0.0
C180 C 0.89138 0.4161 0.89516 0.0
C181 C 0.99119 0.46789 0.70645 0.0
H182 H 0.19992 0.76072 0.91908 0.0
H183 H 0.16157 0.72782 0.0265 0.0
H184 H 0.00556 0.53165 0.09041 0.0
H185 H 0.91033 0.42881 0.03214 0.0
H186 H 0.78961 0.35175 0.7858 0.0
H187 H 0.84916 0.37468 0.6796 0.0
H188 H 0.10494 0.51429 0.6271 0.0
H189 H 0.19088 0.62406 0.68274 0.0
H190 H 0.12706 0.36312 0.80494 0.0
H191 H 0.26506 0.51875 0.93732 0.0
H192 H 0.88825 0.64067 0.74063 0.0
H193 H 0.90316 0.69005 0.94416 0.0
C194 C 0.37757 0.97991 0.66312 0.0
C195 C 0.44224 0.97174 0.68377 0.0
C196 C 0.50081 0.01661 0.66947 0.0
C197 C 0.4687 0.04923 0.64049 0.0
N198 N 0.39316 0.02877 0.63681 0.0
Co199 Co 0.32432 0.06007 0.59358 0.0
N200 N 0.40989 0.12337 0.56785 0.0
C201 C 0.48323 0.13577 0.58414 0.0
C202 C 0.52908 0.18275 0.56148 0.0
C203 C 0.48219 0.20192 0.52937 0.0
C204 C 0.4101 0.16509 0.53371 0.0
N205 N 0.25512 0.08836 0.54719 0.0
C206 C 0.26998 0.12882 0.50981 0.0
C207 C 0.20514 0.12747 0.47817 0.0
C208 C 0.14729 0.08632 0.49776 0.0
C209 C 0.17981 0.06453 0.53949 0.0
N210 N 0.23838 0.9989 0.62116 0.0
C211 C 0.16496 0.99102 0.61112 0.0
C212 C 0.11852 0.94547 0.63508 0.0
C213 C 0.16498 0.9231 0.66275 0.0
C214 C 0.23747 0.95574 0.65285 0.0
N215 N 0.3235 0.11849 0.67338 0.0
C216 C 0.32259 0.19638 0.79024 0.0
C217 C 0.25984 0.17324 0.74672 0.0
C218 C 0.2612 0.13417 0.68922 0.0
C219 C 0.38567 0.1805 0.77375 0.0
C220 C 0.38528 0.14268 0.7156 0.0
N221 N 0.32612 1.0013 0.5153 0.0
C222 C 0.26335 0.9091 0.44005 0.0
C223 C 0.33189 0.90221 0.4231 0.0
C224 C 0.39705 0.94909 0.44828 0.0
C225 C 0.39283 0.9981 0.49337 0.0
C226 C 0.26175 0.95872 0.48582 0.0
H227 H 0.44472 0.03124 0.51218 0.0
H228 H 0.20797 0.96031 0.49864 0.0
H229 H 0.21142 0.11723 0.65822 0.0
H230 H 0.43625 0.13419 0.70612 0.0
C231 C 0.5073 0.09957 0.6167 0.0
C232 C 0.30252 0.94028 0.66925 0.0
C233 C 0.34351 0.17143 0.50488 0.0
C234 C 0.14117 0.02135 0.57177 0.0
H235 H 0.44643 0.9369 0.70671 0.0
H236 H 0.55974 0.02442 0.67892 0.0
H237 H 0.58952 0.20041 0.56688 0.0
H238 H 0.49916 0.23857 0.50515 0.0
H239 H 0.19993 0.1537 0.4445 0.0
H240 H 0.08852 0.07359 0.48314 0.0
H241 H 0.05802 0.92891 0.63064 0.0
H242 H 0.1473 0.88539 0.68541 0.0
H243 H 0.20983 0.18503 0.75709 0.0
H244 H 0.43635 0.19873 0.80489 0.0
H245 H 0.21107 0.87507 0.42023 0.0
H246 H 0.45163 0.94644 0.43664 0.0
C247 C 0.51818 0.85143 0.13638 0.0
C248 C 0.51607 0.90692 0.1677 0.0
C249 C 0.55072 0.9468 0.13134 0.0
C250 C 0.57162 0.91331 0.07987 0.0
N251 N 0.55228 0.85507 0.08181 0.0
Co252 Co 0.57612 0.79108 0.02056 0.0
N253 N 0.65486 0.85025 0.98541 0.0
C254 C 0.66374 0.90923 0.99421 0.0
C255 C 0.72472 0.93997 0.96685 0.0
C256 C 0.75524 0.89775 0.93814 0.0
C257 C 0.70997 0.84279 0.94814 0.0
N258 N 0.60071 0.72594 0.96179 0.0
C259 C 0.659 0.72856 0.92507 0.0
C260 C 0.64958 0.67241 0.88652 0.0
C261 C 0.58458 0.63374 0.90055 0.0
C262 C 0.55662 0.66808 0.94553 0.0
N263 N 0.49541 0.73221 0.05456 0.0
C264 C 0.46131 0.67421 0.02708 0.0
C265 C 0.40891 0.64456 0.06308 0.0
C266 C 0.41045 0.68658 0.11674 0.0
C267 C 0.46398 0.73941 0.11019 0.0
N268 N 0.50464 0.79297 0.95559 0.0
C269 C 0.40625 0.79897 0.86271 0.0
C270 C 0.4656 0.77821 0.84575 0.0
C271 C 0.51555 0.77761 0.89272 0.0
C272 C 0.39825 0.81875 0.9266 0.0
C273 C 0.44627 0.81342 0.97224 0.0
N274 N 0.64886 0.79098 0.08422 0.0
C275 C 0.70853 0.73895 0.13919 0.0
C276 C 0.76161 0.79357 0.16805 0.0
C277 C 0.75587 0.84672 0.15684 0.0
C278 C 0.69904 0.84448 0.11478 0.0
C279 C 0.65204 0.73862 0.09722 0.0
H280 H 0.69717 0.88624 0.10595 0.0
H281 H 0.61231 0.69616 0.07409 0.0
H282 H 0.56198 0.76366 0.87702 0.0
H283 H 0.43435 0.82442 0.02077 0.0
C284 C 0.62209 0.93571 0.03692 0.0
C285 C 0.48448 0.7955 0.15742 0.0
C286 C 0.71807 0.78433 0.91905 0.0
C287 C 0.49141 0.64694 0.97567 0.0
H288 H 0.49254 0.91733 0.21223 0.0
H289 H 0.56298 0.99488 0.14306 0.0
H290 H 0.74658 0.98783 0.96989 0.0
H291 H 0.80566 0.9072 0.91347 0.0
H292 H 0.68377 0.6605 0.84976 0.0
H293 H 0.56016 0.5864 0.87972 0.0
H294 H 0.37697 0.59726 0.05343 0.0
H295 H 0.37739 0.67907 0.15665 0.0
H296 H 0.4713 0.75987 0.79681 0.0
H297 H 0.35102 0.83318 0.94112 0.0
H298 H 0.71207 0.69699 0.14736 0.0
H299 H 0.79649 0.8896 0.17865 0.0
C300 C 0.92874 0.98829 0.7157 0.0
C301 C 0.99702 0.99327 0.74396 0.0
C302 C 0.04966 0.0384 0.72402 0.0
C303 C 0.01071 0.05792 0.68444 0.0
N304 N 0.93615 0.02923 0.67956 0.0
Co305 Co 0.85821 0.04444 0.62885 0.0
N306 N 0.93576 0.10519 0.59286 0.0
C307 C 0.01088 0.12049 0.60221 0.0
C308 C 0.04919 0.16732 0.57558 0.0
C309 C 0.99538 0.18339 0.54854 0.0
C310 C 0.92711 0.14566 0.56078 0.0
N311 N 0.77995 0.0612 0.57969 0.0
C312 C 0.7867 0.10676 0.54996 0.0
C313 C 0.71806 0.10575 0.52621 0.0
C314 C 0.66556 0.05862 0.54298 0.0
C315 C 0.70516 0.03394 0.57606 0.0
N316 N 0.78031 0.98296 0.66384 0.0
C317 C 0.70539 0.96547 0.65153 0.0
C318 C 0.66643 0.92096 0.68083 0.0
C319 C 0.71978 0.90797 0.71229 0.0
C320 C 0.7883 0.94565 0.70039 0.0
N321 N 0.85389 0.10883 0.70067 0.0
C322 C 0.84902 0.1993 0.80366 0.0
C323 C 0.78366 0.15406 0.77576 0.0
C324 C 0.78722 0.10984 0.72426 0.0
C325 C 0.91656 0.19925 0.77883 0.0
C326 C 0.91776 0.15376 0.72801 0.0
N327 N 0.86368 0.97953 0.55722 0.0
C328 C 0.80399 0.89067 0.47566 0.0
C329 C 0.8726 0.88215 0.46349 0.0
C330 C 0.93667 0.92358 0.49782 0.0
C331 C 0.93109 0.97182 0.54348 0.0
C332 C 0.80071 0.93909 0.52277 0.0
H333 H 0.98216 1.00196 0.56749 0.0
H334 H 0.74663 0.94254 0.53081 0.0
H335 H 0.73547 0.07711 0.70409 0.0
H336 H 0.97125 0.15625 0.71182 0.0
C337 C 0.0427 0.09849 0.64635 0.0
C338 C 0.85933 0.9413 0.7206 0.0
C339 C 0.85613 0.15443 0.5479 0.0
C340 C 0.67364 0.99011 0.61033 0.0
H341 H 0.00773 0.96576 0.77415 0.0
H342 H 0.10954 0.05314 0.73464 0.0
H343 H 0.10895 0.18996 0.57936 0.0
H344 H 0.00504 0.22085 0.52574 0.0
H345 H 0.70709 0.13723 0.50154 0.0
H346 H 0.60548 0.04585 0.53491 0.0
H347 H 0.60652 0.89933 0.67812 0.0
H348 H 0.70965 0.87354 0.73936 0.0
H349 H 0.72982 0.15331 0.79307 0.0
H350 H 0.96843 0.23367 0.79909 0.0
H351 H 0.75304 0.85969 0.44952 0.0
H352 H 0.99117 0.91918 0.48895 0.0
C353 C 0.44649 0.32765 0.30835 0.0
C354 C 0.45252 0.38303 0.34691 0.0
C355 C 0.51467 0.42384 0.33208 0.0
C356 C 0.5437 0.39169 0.2859 0.0
N357 N 0.50281 0.33302 0.26879 0.0
Co358 Co 0.53209 0.27049 0.20847 0.0
N359 N 0.61719 0.3325 0.18148 0.0
C360 C 0.64595 0.39075 0.21036 0.0
C361 C 0.70372 0.42287 0.18072 0.0
C362 C 0.71239 0.38233 0.1298 0.0
C363 C 0.65906 0.32771 0.13146 0.0
N364 N 0.5615 0.20849 0.14863 0.0
C365 C 0.6077 0.21458 0.10114 0.0
C366 C 0.61051 0.15923 0.06912 0.0
C367 C 0.56453 0.11715 0.09753 0.0
C368 C 0.53639 0.1489 0.14519 0.0
N369 N 0.44722 0.20854 0.23541 0.0
C370 C 0.43226 0.14866 0.21912 0.0
C371 C 0.36817 0.11682 0.24203 0.0
C372 C 0.34193 0.15914 0.27667 0.0
C373 C 0.39259 0.2146 0.27389 0.0
N374 N 0.46661 0.27444 0.13935 0.0
C375 C 0.39822 0.27968 0.02518 0.0
C376 C 0.38736 0.22485 0.04288 0.0
C377 C 0.42196 0.22321 0.09959 0.0
C378 C 0.4415 0.33197 0.06814 0.0
C379 C 0.47353 0.32842 0.12489 0.0
N380 N 0.59932 0.26659 0.27616 0.0
C381 C 0.63166 0.27677 0.38684 0.0
C382 C 0.70584 0.28335 0.37452 0.0
C383 C 0.72414 0.27594 0.31168 0.0
C384 C 0.67033 0.26749 0.26341 0.0
C385 C 0.57915 0.26779 0.33689 0.0
H386 H 0.68769 0.26496 0.21611 0.0
H387 H 0.52349 0.26481 0.34851 0.0
H388 H 0.4144 0.18 0.10974 0.0
H389 H 0.50699 0.3696 0.15558 0.0
C390 C 0.61004 0.41524 0.25882 0.0
C391 C 0.3945 0.27024 0.31778 0.0
C392 C 0.65378 0.27173 0.08769 0.0
C393 C 0.47702 0.1238 0.17934 0.0
H394 H 0.41888 0.39355 0.38457 0.0
H395 H 0.53756 0.47102 0.3541 0.0
H396 H 0.73408 0.47045 0.19329 0.0
H397 H 0.75336 0.39177 0.09547 0.0
H398 H 0.64218 0.15017 0.02914 0.0
H399 H 0.55051 0.069 0.08308 0.0
H400 H 0.34381 0.06862 0.23493 0.0
H401 H 0.29358 0.15032 0.30415 0.0
H402 H 0.35307 0.18308 0.01293 0.0
H403 H 0.45349 0.37586 0.05762 0.0
H404 H 0.61536 0.28232 0.43488 0.0
H405 H 0.78092 0.28024 0.30013 0.0
loop_
_geom_bond_atom_site_label_1
_geom_bond_atom_site_label_2
_geom_bond_distance
_geom_bond_site_symmetry_2
_ccdc_geom_bond_type
H0 C3 0.929 . S
H1 C6 0.929 . S
H2 C8 0.930 . S
C3 H0 0.929 . S
C3 C4 1.398 . S
C3 C5 1.396 . S
C4 C3 1.398 . S
C4 C8 1.407 . S
C5 C3 1.396 . S
C5 C6 1.394 . S
C6 H1 0.929 . S
C6 C5 1.394 . S
C6 C7 1.382 . S
C7 C6 1.382 . S
C7 C8 1.392 . S
C7 N9 1.420 . S
C8 H2 0.930 . S
C8 C4 1.407 . S
C8 C7 1.392 . S
N9 C7 1.420 . S
N9 C10 1.244 . S
C10 N9 1.244 . S
H11 C14 0.929 . S
H12 C17 0.929 . S
H13 C19 0.930 . S
C14 H11 0.929 . S
C14 C15 1.398 . S
C14 C16 1.396 . S
C15 C14 1.398 . S
C15 C19 1.407 . S
C16 C14 1.396 . S
C16 C17 1.394 . S
C17 H12 0.929 . S
C17 C16 1.394 . S
C17 C18 1.382 . S
C18 C17 1.382 . S
C18 C19 1.392 . S
C18 N20 1.420 . S
C19 H13 0.930 . S
C19 C15 1.407 . S
C19 C18 1.392 . S
N20 C18 1.420 . S
N20 C21 1.244 . S
C21 N20 1.244 . S
H22 C25 0.929 . S
H23 C28 0.929 . S
H24 C30 0.930 . S
C25 H22 0.929 . S
C25 C26 1.398 . S
C25 C27 1.396 . S
C26 C25 1.398 . S
C26 C30 1.407 . S
C27 C25 1.396 . S
C27 C28 1.394 . S
C28 H23 0.929 . S
C28 C27 1.394 . S
C28 C29 1.382 . S
C29 C28 1.382 . S
C29 C30 1.392 . S
C29 N31 1.420 . S
C30 H24 0.930 . S
C30 C26 1.407 . S
C30 C29 1.392 . S
N31 C29 1.420 . S
N31 C32 1.244 . S
C32 N31 1.244 . S
H33 C36 0.929 . S
H34 C39 0.929 . S
H35 C41 0.930 . S
C36 H33 0.929 . S
C36 C37 1.398 . S
C36 C38 1.396 . S
C37 C36 1.398 . S
C37 C41 1.407 . S
C38 C36 1.396 . S
C38 C39 1.394 . S
C39 H34 0.929 . S
C39 C38 1.394 . S
C39 C40 1.382 . S
C40 C39 1.382 . S
C40 C41 1.392 . S
C40 N42 1.420 1_556 S
C41 H35 0.930 . S
C41 C37 1.407 . S
C41 C40 1.392 . S
N42 C40 1.420 1_554 S
N42 C43 1.242 . S
C43 N42 1.242 . S
H44 C47 0.929 . S
H45 C50 0.929 . S
H46 C52 0.930 . S
C47 H44 0.929 . S
C47 C48 1.398 . S
C47 C49 1.396 . S
C48 C47 1.398 . S
C48 C52 1.407 . S
C49 C47 1.396 . S
C49 C50 1.394 . S
C50 H45 0.929 . S
C50 C49 1.394 . S
C50 C51 1.382 . S
C51 C50 1.382 . S
C51 C52 1.392 . S
C51 N53 1.420 . S
C52 H46 0.930 . S
C52 C48 1.407 . S
C52 C51 1.392 . S
N53 C51 1.420 . S
N53 C54 1.244 . S
C54 N53 1.244 . S
H55 C58 0.929 . S
H56 C61 0.929 . S
H57 C63 0.930 . S
C58 H55 0.929 . S
C58 C59 1.398 . S
C58 C60 1.396 . S
C59 C58 1.398 . S
C59 C63 1.407 . S
C60 C58 1.396 . S
C60 C61 1.394 . S
C61 H56 0.929 . S
C61 C60 1.394 . S
C61 C62 1.382 . S
C62 C61 1.382 . S
C62 C63 1.392 . S
C62 N64 1.420 . S
C63 H57 0.930 . S
C63 C59 1.407 . S
C63 C62 1.392 . S
N64 C62 1.420 . S
N64 C65 1.244 . S
C65 N64 1.244 . S
H66 C69 0.929 . S
H67 C72 0.929 . S
H68 C74 0.930 . S
C69 H66 0.929 . S
C69 C70 1.398 . S
C69 C71 1.396 . S
C70 C69 1.398 . S
C70 C74 1.407 . S
C71 C69 1.396 . S
C71 C72 1.394 . S
C72 H67 0.929 . S
C72 C71 1.394 . S
C72 C73 1.382 . S
C73 C72 1.382 . S
C73 C74 1.392 . S
C73 N75 1.420 . S
C74 H68 0.930 . S
C74 C70 1.407 . S
C74 C73 1.392 . S
N75 C73 1.420 . S
N75 C76 1.244 . S
C76 N75 1.244 . S
H77 C80 0.929 . S
H78 C83 0.929 . S
H79 C85 0.930 . S
C80 H77 0.929 . S
C80 C81 1.398 . S
C80 C82 1.396 . S
C81 C80 1.398 . S
C81 C85 1.407 . S
C82 C80 1.396 . S
C82 C83 1.394 . S
C83 H78 0.929 . S
C83 C82 1.394 . S
C83 C84 1.382 . S
C84 C83 1.382 . S
C84 C85 1.392 . S
C84 N86 1.420 . S
C85 H79 0.930 . S
C85 C81 1.407 . S
C85 C84 1.392 . S
N86 C84 1.420 . S
N86 C87 1.244 . S
C87 N86 1.244 . S
C88 C89 1.443 . S
C88 N92 1.376 . S
C88 C126 1.389 . S
C89 C88 1.443 . S
C89 C90 1.340 . S
C89 H129 0.951 . S
C90 C89 1.340 . S
C90 C91 1.439 . S
C90 H130 0.950 . S
C91 C90 1.439 . S
C91 N92 1.374 . S
C91 C125 1.395 . S
N92 C88 1.376 . S
N92 C91 1.374 . S
N92 Co93 2.008 . S
Co93 N92 2.008 . S
Co93 N94 1.995 . S
Co93 N99 2.008 . S
Co93 N104 1.995 . S
Co93 N109 2.282 . S
Co93 N115 2.282 . S
N94 Co93 1.995 . S
N94 C95 1.376 . S
N94 C98 1.383 . S
C95 N94 1.376 . S
C95 C96 1.446 . S
C95 C125 1.391 . S
C96 C95 1.446 . S
C96 C97 1.339 1_455 S
C96 H131 0.949 . S
C97 C96 1.339 1_655 S
C97 C98 1.439 1_655 S
C97 H132 0.950 . S
C98 N94 1.383 . S
C98 C97 1.439 1_455 S
C98 C127 1.392 1_455 S
N99 Co93 2.008 . S
N99 C100 1.376 1_455 S
N99 C103 1.374 . S
C100 N99 1.376 1_655 S
C100 C101 1.443 . S
C100 C127 1.389 . S
C101 C100 1.443 . S
C101 C102 1.340 . S
C101 H133 0.951 . S
C102 C101 1.340 . S
C102 C103 1.439 1_655 S
C102 H134 0.950 . S
C103 N99 1.374 . S
C103 C102 1.439 1_455 S
C103 C128 1.395 . S
N104 Co93 1.995 . S
N104 C105 1.376 . S
N104 C108 1.383 . S
C105 N104 1.376 . S
C105 C106 1.446 . S
C105 C128 1.391 . S
C106 C105 1.446 . S
C106 C107 1.339 . S
C106 H135 0.949 . S
C107 C106 1.339 . S
C107 C108 1.439 . S
C107 H136 0.950 . S
C108 N104 1.383 . S
C108 C107 1.439 . S
C108 C126 1.392 . S
N109 Co93 2.282 . S
N109 C112 1.332 . S
N109 C114 1.332 . S
C110 C111 1.386 . S
C110 C113 1.388 . S
C111 C110 1.386 . S
C111 C112 1.382 . S
C111 H137 0.950 . S
C112 N109 1.332 . S
C112 C111 1.382 . S
C112 H123 0.952 . S
C113 C110 1.388 . S
C113 C114 1.382 . S
C113 H138 0.950 . S
C114 N109 1.332 . S
C114 C113 1.382 . S
C114 H124 0.948 . S
N115 Co93 2.282 . S
N115 C119 1.332 1_455 S
N115 C120 1.332 1_455 S
C116 C117 1.388 . S
C116 C120 1.382 . S
C116 H139 0.950 . S
C117 C116 1.388 . S
C117 C118 1.386 . S
C118 C117 1.386 . S
C118 C119 1.382 . S
C118 H140 0.950 . S
C119 N115 1.332 1_655 S
C119 C118 1.382 . S
C119 H121 0.952 1_655 S
C120 N115 1.332 1_655 S
C120 C116 1.382 . S
C120 H122 0.948 . S
H121 C119 0.952 1_455 S
H122 C120 0.948 . S
H123 C112 0.952 . S
H124 C114 0.948 . S
C125 C91 1.395 . S
C125 C95 1.391 . S
C126 C88 1.389 . S
C126 C108 1.392 . S
C127 C98 1.392 1_655 S
C127 C100 1.389 . S
C128 C103 1.395 . S
C128 C105 1.391 . S
H129 C89 0.951 . S
H130 C90 0.950 . S
H131 C96 0.949 . S
H132 C97 0.950 . S
H133 C101 0.951 . S
H134 C102 0.950 . S
H135 C106 0.949 . S
H136 C107 0.950 . S
H137 C111 0.950 . S
H138 C113 0.950 . S
H139 C116 0.950 . S
H140 C118 0.950 . S
C141 C142 1.443 . S
C141 N145 1.376 . S
C141 C179 1.389 . S
C142 C141 1.443 . S
C142 C143 1.340 . S
C142 H182 0.951 . S
C143 C142 1.340 . S
C143 C144 1.439 . S
C143 H183 0.950 1_556 S
C144 C143 1.439 . S
C144 N145 1.374 . S
C144 C178 1.410 . S
N145 C141 1.376 . S
N145 C144 1.374 . S
N145 Co146 2.008 . S
Co146 N145 2.008 . S
Co146 N147 1.995 1_455 S
Co146 N152 2.008 1_455 S
Co146 N157 1.995 . S
Co146 N162 2.282 . S
Co146 N168 2.282 1_455 S
N147 Co146 1.995 1_655 S
N147 C148 1.376 1_655 S
N147 C151 1.383 . S
C148 N147 1.376 1_455 S
C148 C149 1.446 1_456 S
C148 C178 1.391 . S
C149 C148 1.446 1_654 S
C149 C150 1.339 . S
C149 H184 0.949 . S
C150 C149 1.339 . S
C150 C151 1.439 1_554 S
C150 H185 0.950 . S
C151 N147 1.383 . S
C151 C150 1.439 1_556 S
C151 C180 1.392 . S
N152 Co146 2.008 1_655 S
N152 C153 1.376 . S
N152 C156 1.374 . S
C153 N152 1.376 . S
C153 C154 1.443 . S
C153 C180 1.389 . S
C154 C153 1.443 . S
C154 C155 1.340 . S
C154 H186 0.951 . S
C155 C154 1.340 . S
C155 C156 1.439 . S
C155 H187 0.950 . S
C156 N152 1.374 . S
C156 C155 1.439 . S
C156 C181 1.395 . S
N157 Co146 1.995 . S
N157 C158 1.376 . S
N157 C161 1.383 . S
C158 N157 1.376 . S
C158 C159 1.446 . S
C158 C181 1.391 1_455 S
C159 C158 1.446 . S
C159 C160 1.339 . S
C159 H188 0.949 . S
C160 C159 1.339 . S
C160 C161 1.439 . S
C160 H189 0.950 . S
C161 N157 1.383 . S
C161 C160 1.439 . S
C161 C179 1.392 . S
N162 Co146 2.282 . S
N162 C165 1.332 . S
N162 C167 1.332 . S
C163 C164 1.386 . S
C163 C166 1.388 . S
C164 C163 1.386 . S
C164 C165 1.382 . S
C164 H190 0.950 . S
C165 N162 1.332 . S
C165 C164 1.382 . S
C165 H176 0.952 . S
C166 C163 1.388 . S
C166 C167 1.382 . S
C166 H191 0.950 . S
C167 N162 1.332 . S
C167 C166 1.382 . S
C167 H177 0.948 . S
N168 Co146 2.282 1_655 S
N168 C172 1.332 . S
N168 C173 1.332 . S
C169 C170 1.388 . S
C169 C173 1.382 . S
C169 H192 0.950 . S
C170 C169 1.388 . S
C170 C171 1.386 . S
C171 C170 1.386 . S
C171 C172 1.382 . S
C171 H193 0.950 . S
C172 N168 1.332 . S
C172 C171 1.382 . S
C172 H174 0.952 . S
C173 N168 1.332 . S
C173 C169 1.382 . S
C173 H175 0.948 . S
H174 C172 0.952 . S
H175 C173 0.948 . S
H176 C165 0.952 . S
H177 C167 0.948 . S
C178 C144 1.410 . S
C178 C148 1.391 . S
C179 C141 1.389 . S
C179 C161 1.392 . S
C180 C151 1.392 . S
C180 C153 1.389 . S
C181 C156 1.395 . S
C181 C158 1.391 1_655 S
H182 C142 0.951 . S
H183 C143 0.950 1_554 S
H184 C149 0.949 . S
H185 C150 0.950 . S
H186 C154 0.951 . S
H187 C155 0.950 . S
H188 C159 0.949 . S
H189 C160 0.950 . S
H190 C164 0.950 . S
H191 C166 0.950 . S
H192 C169 0.950 . S
H193 C171 0.950 . S
C194 C195 1.443 . S
C194 N198 1.376 1_565 S
C194 C232 1.389 . S
C195 C194 1.443 . S
C195 C196 1.340 1_565 S
C195 H235 0.951 . S
C196 C195 1.340 1_545 S
C196 C197 1.439 . S
C196 H236 0.950 . S
C197 C196 1.439 . S
C197 N198 1.374 . S
C197 C231 1.395 . S
N198 C194 1.376 1_545 S
N198 C197 1.374 . S
N198 Co199 2.008 . S
Co199 N198 2.008 . S
Co199 N200 1.995 . S
Co199 N205 2.008 . S
Co199 N210 1.995 1_545 S
Co199 N215 2.282 . S
Co199 N221 2.282 1_545 S
N200 Co199 1.995 . S
N200 C201 1.376 . S
N200 C204 1.383 . S
C201 N200 1.376 . S
C201 C202 1.446 . S
C201 C231 1.391 . S
C202 C201 1.446 . S
C202 C203 1.339 . S
C202 H237 0.949 . S
C203 C202 1.339 . S
C203 C204 1.439 . S
C203 H238 0.950 . S
C204 N200 1.383 . S
C204 C203 1.439 . S
C204 C233 1.392 . S
N205 Co199 2.008 . S
N205 C206 1.376 . S
N205 C209 1.374 . S
C206 N205 1.376 . S
C206 C207 1.443 . S
C206 C233 1.389 . S
C207 C206 1.443 . S
C207 C208 1.340 . S
C207 H239 0.951 . S
C208 C207 1.340 . S
C208 C209 1.439 . S
C208 H240 0.950 . S
C209 N205 1.374 . S
C209 C208 1.439 . S
C209 C234 1.395 . S
N210 Co199 1.995 1_565 S
N210 C211 1.376 . S
N210 C214 1.383 . S
C211 N210 1.376 . S
C211 C212 1.446 . S
C211 C234 1.391 1_565 S
C212 C211 1.446 . S
C212 C213 1.339 . S
C212 H241 0.949 . S
C213 C212 1.339 . S
C213 C214 1.439 . S
C213 H242 0.950 . S
C214 N210 1.383 . S
C214 C213 1.439 . S
C214 C232 1.392 . S
N215 Co199 2.282 . S
N215 C218 1.332 . S
N215 C220 1.332 . S
C216 C217 1.386 . S
C216 C219 1.388 . S
C217 C216 1.386 . S
C217 C218 1.382 . S
C217 H243 0.950 . S
C218 N215 1.332 . S
C218 C217 1.382 . S
C218 H229 0.952 . S
C219 C216 1.388 . S
C219 C220 1.382 . S
C219 H244 0.950 . S
C220 N215 1.332 . S
C220 C219 1.382 . S
C220 H230 0.948 . S
N221 Co199 2.282 1_565 S
N221 C225 1.332 . S
N221 C226 1.332 . S
C222 C223 1.388 . S
C222 C226 1.382 . S
C222 H245 0.950 . S
C223 C222 1.388 . S
C223 C224 1.386 . S
C224 C223 1.386 . S
C224 C225 1.382 . S
C224 H246 0.950 . S
C225 N221 1.332 . S
C225 C224 1.382 . S
C225 H227 0.952 1_565 S
C226 N221 1.332 . S
C226 C222 1.382 . S
C226 H228 0.948 . S
H227 C225 0.952 1_545 S
H228 C226 0.948 . S
H229 C218 0.952 . S
H230 C220 0.948 . S
C231 C197 1.395 . S
C231 C201 1.391 . S
C232 C194 1.389 . S
C232 C214 1.392 . S
C233 C204 1.392 . S
C233 C206 1.389 . S
C234 C209 1.395 . S
C234 C211 1.391 1_545 S
H235 C195 0.951 . S
H236 C196 0.950 . S
H237 C202 0.949 . S
H238 C203 0.950 . S
H239 C207 0.951 . S
H240 C208 0.950 . S
H241 C212 0.949 . S
H242 C213 0.950 . S
H243 C217 0.950 . S
H244 C219 0.950 . S
H245 C222 0.950 . S
H246 C224 0.950 . S
C247 C248 1.443 . S
C247 N251 1.376 . S
C247 C285 1.389 . S
C248 C247 1.443 . S
C248 C249 1.340 . S
C248 H288 0.951 . S
C249 C248 1.340 . S
C249 C250 1.439 . S
C249 H289 0.950 . S
C250 C249 1.439 . S
C250 N251 1.374 . S
C250 C284 1.395 . S
N251 C247 1.376 . S
N251 C250 1.374 . S
N251 Co252 2.010 . S
Co252 N251 2.010 . S
Co252 N253 1.993 1_554 S
Co252 N258 2.007 1_554 S
Co252 N263 1.996 . S
Co252 N268 2.280 1_554 S
Co252 N274 2.285 . S
N253 Co252 1.993 1_556 S
N253 C254 1.376 . S
N253 C257 1.383 . S
C254 N253 1.376 . S
C254 C255 1.446 . S
C254 C284 1.391 1_556 S
C255 C254 1.446 . S
C255 C256 1.339 . S
C255 H290 0.949 . S
C256 C255 1.339 . S
C256 C257 1.439 . S
C256 H291 0.950 . S
C257 N253 1.383 . S
C257 C256 1.439 . S
C257 C286 1.392 . S
N258 Co252 2.007 1_556 S
N258 C259 1.376 . S
N258 C262 1.374 . S
C259 N258 1.376 . S
C259 C260 1.443 . S
C259 C286 1.389 . S
C260 C259 1.443 . S
C260 C261 1.340 . S
C260 H292 0.951 . S
C261 C260 1.340 . S
C261 C262 1.439 . S
C261 H293 0.950 . S
C262 N258 1.374 . S
C262 C261 1.439 . S
C262 C287 1.395 . S
N263 Co252 1.996 . S
N263 C264 1.376 . S
N263 C267 1.383 . S
C264 N263 1.376 . S
C264 C265 1.446 . S
C264 C287 1.391 1_554 S
C265 C264 1.446 . S
C265 C266 1.339 . S
C265 H294 0.949 . S
C266 C265 1.339 . S
C266 C267 1.439 . S
C266 H295 0.950 . S
C267 N263 1.383 . S
C267 C266 1.439 . S
C267 C285 1.392 . S
N268 Co252 2.280 1_556 S
N268 C271 1.332 . S
N268 C273 1.332 . S
C269 C270 1.386 . S
C269 C272 1.388 . S
C270 C269 1.386 . S
C270 C271 1.382 . S
C270 H296 0.950 . S
C271 N268 1.332 . S
C271 C270 1.382 . S
C271 H282 0.952 . S
C272 C269 1.388 . S
C272 C273 1.382 . S
C272 H297 0.950 . S
C273 N268 1.332 . S
C273 C272 1.382 . S
C273 H283 0.948 . S
N274 Co252 2.285 . S
N274 C278 1.332 . S
N274 C279 1.332 . S
C275 C276 1.388 . S
C275 C279 1.382 . S
C275 H298 0.950 . S
C276 C275 1.388 . S
C276 C277 1.386 . S
C277 C276 1.386 . S
C277 C278 1.382 . S
C277 H299 0.950 . S
C278 N274 1.332 . S
C278 C277 1.382 . S
C278 H280 0.952 . S
C279 N274 1.332 . S
C279 C275 1.382 . S
C279 H281 0.948 . S
H280 C278 0.952 . S
H281 C279 0.948 . S
H282 C271 0.952 . S
H283 C273 0.948 . S
C284 C250 1.395 . S
C284 C254 1.391 1_554 S
C285 C247 1.389 . S
C285 C267 1.392 . S
C286 C257 1.392 . S
C286 C259 1.389 . S
C287 C262 1.395 . S
C287 C264 1.391 1_556 S
H288 C248 0.951 . S
H289 C249 0.950 . S
H290 C255 0.949 . S
H291 C256 0.950 . S
H292 C260 0.951 . S
H293 C261 0.950 . S
H294 C265 0.949 . S
H295 C266 0.950 . S
H296 C270 0.950 . S
H297 C272 0.950 . S
H298 C275 0.950 . S
H299 C277 0.950 . S
C300 C301 1.443 1_655 S
C300 N304 1.376 1_565 S
C300 C338 1.389 . S
C301 C300 1.443 1_455 S
C301 C302 1.340 1_565 S
C301 H341 0.951 . S
C302 C301 1.340 1_545 S
C302 C303 1.439 . S
C302 H342 0.950 . S
C303 C302 1.439 . S
C303 N304 1.374 1_455 S
C303 C337 1.395 . S
N304 C300 1.376 1_545 S
N304 C303 1.374 1_655 S
N304 Co305 2.008 . S
Co305 N304 2.008 . S
Co305 N306 1.995 1_655 S
Co305 N311 2.008 . S
Co305 N316 1.995 . S
Co305 N321 2.282 . S
Co305 N327 2.282 . S
N306 Co305 1.995 1_455 S
N306 C307 1.376 . S
N306 C310 1.383 . S
C307 N306 1.376 . S
C307 C308 1.446 . S
C307 C337 1.391 . S
C308 C307 1.446 . S
C308 C309 1.339 . S
C308 H343 0.949 . S
C309 C308 1.339 . S
C309 C310 1.439 . S
C309 H344 0.950 . S
C310 N306 1.383 . S
C310 C309 1.439 . S
C310 C339 1.392 1_455 S
N311 Co305 2.008 . S
N311 C312 1.376 . S
N311 C315 1.374 . S
C312 N311 1.376 . S
C312 C313 1.443 . S
C312 C339 1.389 . S
C313 C312 1.443 . S
C313 C314 1.340 . S
C313 H345 0.951 . S
C314 C313 1.340 . S
C314 C315 1.439 . S
C314 H346 0.950 . S
C315 N311 1.374 . S
C315 C314 1.439 . S
C315 C340 1.395 . S
N316 Co305 1.995 . S
N316 C317 1.376 . S
N316 C320 1.383 1_545 S
C317 N316 1.376 . S
C317 C318 1.446 1_545 S
C317 C340 1.391 . S
C318 C317 1.446 1_565 S
C318 C319 1.339 . S
C318 H347 0.949 . S
C319 C318 1.339 . S
C319 C320 1.439 . S
C319 H348 0.950 . S
C320 N316 1.383 1_565 S
C320 C319 1.439 . S
C320 C338 1.392 . S
N321 Co305 2.282 . S
N321 C324 1.332 . S
N321 C326 1.332 . S
C322 C323 1.386 . S
C322 C325 1.388 . S
C323 C322 1.386 . S
C323 C324 1.382 . S
C323 H349 0.950 . S
C324 N321 1.332 . S
C324 C323 1.382 . S
C324 H335 0.952 . S
C325 C322 1.388 . S
C325 C326 1.382 . S
C325 H350 0.950 1_655 S
C326 N321 1.332 . S
C326 C325 1.382 . S
C326 H336 0.948 1_655 S
N327 Co305 2.282 . S
N327 C331 1.332 . S
N327 C332 1.332 1_545 S
C328 C329 1.388 . S
C328 C332 1.382 . S
C328 H351 0.950 . S
C329 C328 1.388 . S
C329 C330 1.385 1_655 S
C330 C329 1.385 1_455 S
C330 C331 1.382 1_465 S
C330 H352 0.950 . S
C331 N327 1.332 . S
C331 C330 1.382 1_645 S
C331 H333 0.952 1_655 S
C332 N327 1.332 1_565 S
C332 C328 1.382 . S
C332 H334 0.948 . S
H333 C331 0.952 1_455 S
H334 C332 0.948 . S
H335 C324 0.952 . S
H336 C326 0.948 1_455 S
C337 C303 1.395 . S
C337 C307 1.391 . S
C338 C300 1.389 . S
C338 C320 1.392 . S
C339 C310 1.392 1_655 S
C339 C312 1.389 . S
C340 C315 1.395 . S
C340 C317 1.391 . S
H341 C301 0.951 . S
H342 C302 0.950 . S
H343 C308 0.949 . S
H344 C309 0.950 . S
H345 C313 0.951 . S
H346 C314 0.950 . S
H347 C318 0.949 . S
H348 C319 0.950 . S
H349 C323 0.950 . S
H350 C325 0.950 1_455 S
H351 C328 0.950 . S
H352 C330 0.950 . S
C353 C354 1.443 . S
C353 N357 1.376 . S
C353 C391 1.389 . S
C354 C353 1.443 . S
C354 C355 1.340 . S
C354 H394 0.951 . S
C355 C354 1.340 . S
C355 C356 1.439 . S
C355 H395 0.950 . S
C356 C355 1.439 . S
C356 N357 1.374 . S
C356 C390 1.395 . S
N357 C353 1.376 . S
N357 C356 1.374 . S
N357 Co358 2.008 . S
Co358 N357 2.008 . S
Co358 N359 1.995 . S
Co358 N364 2.008 . S
Co358 N369 1.995 . S
Co358 N374 2.282 . S
Co358 N380 2.282 . S
N359 Co358 1.995 . S
N359 C360 1.376 . S
N359 C363 1.383 . S
C360 N359 1.376 . S
C360 C361 1.446 . S
C360 C390 1.391 . S
C361 C360 1.446 . S
C361 C362 1.339 . S
C361 H396 0.949 . S
C362 C361 1.339 . S
C362 C363 1.439 . S
C362 H397 0.950 . S
C363 N359 1.383 . S
C363 C362 1.439 . S
C363 C392 1.392 . S
N364 Co358 2.008 . S
N364 C365 1.376 . S
N364 C368 1.374 . S
C365 N364 1.376 . S
C365 C366 1.443 . S
C365 C392 1.389 . S
C366 C365 1.443 . S
C366 C367 1.340 . S
C366 H398 0.951 1_554 S
C367 C366 1.340 . S
C367 C368 1.439 . S
C367 H399 0.950 . S
C368 N364 1.374 . S
C368 C367 1.439 . S
C368 C393 1.395 . S
N369 Co358 1.995 . S
N369 C370 1.376 . S
N369 C373 1.383 . S
C370 N369 1.376 . S
C370 C371 1.446 . S
C370 C393 1.391 . S
C371 C370 1.446 . S
C371 C372 1.339 . S
C371 H400 0.949 . S
C372 C371 1.339 . S
C372 C373 1.439 . S
C372 H401 0.950 . S
C373 N369 1.383 . S
C373 C372 1.439 . S
C373 C391 1.392 . S
N374 Co358 2.282 . S
N374 C377 1.332 . S
N374 C379 1.332 . S
C375 C376 1.386 1_556 S
C375 C378 1.388 1_556 S
C376 C375 1.386 1_554 S
C376 C377 1.382 . S
C376 H402 0.950 1_554 S
C377 N374 1.332 . S
C377 C376 1.382 . S
C377 H388 0.952 . S
C378 C375 1.388 1_554 S
C378 C379 1.382 . S
C378 H403 0.950 . S
C379 N374 1.332 . S
C379 C378 1.382 . S
C379 H389 0.948 . S
N380 Co358 2.282 . S
N380 C384 1.332 . S
N380 C385 1.332 . S
C381 C382 1.388 . S
C381 C385 1.382 . S
C381 H404 0.950 . S
C382 C381 1.388 . S
C382 C383 1.386 . S
C383 C382 1.386 . S
C383 C384 1.382 . S
C383 H405 0.950 . S
C384 N380 1.332 . S
C384 C383 1.382 . S
C384 H386 0.952 . S
C385 N380 1.332 . S
C385 C381 1.382 . S
C385 H387 0.948 . S
H386 C384 0.952 . S
H387 C385 0.948 . S
H388 C377 0.952 . S
H389 C379 0.948 . S
C390 C356 1.395 . S
C390 C360 1.391 . S
C391 C353 1.389 . S
C391 C373 1.392 . S
C392 C363 1.392 . S
C392 C365 1.389 . S
C393 C368 1.395 . S
C393 C370 1.391 . S
H394 C354 0.951 . S
H395 C355 0.950 . S
H396 C361 0.949 . S
H397 C362 0.950 . S
H398 C366 0.951 1_556 S
H399 C367 0.950 . S
H400 C371 0.949 . S
H401 C372 0.950 . S
H402 C376 0.950 1_556 S
H403 C378 0.950 . S
H404 C381 0.950 . S
H405 C383 0.950 . S
C110 C10 1.843 . S
C179 C15 1.716 . S
C117 C26 1.848 . S
C180 C37 1.628 . S
C233 C4 1.912 . S
C269 C16 1.561 . S
C27 C329 2.107 . S
C392 C43 1.494 . S
C232 C21 1.677 . S
C32 C276 1.619 . S
C322 C38 2.206 . S
C391 C5 1.829 . S
C49 C170 1.664 . S
C127 C60 2.074 . S
C76 C163 1.479 . S
C81 C126 1.978 . S
C338 C54 1.955 . S
C382 C59 2.055 . S
C216 C70 1.867 . S
C87 C285 1.816 . S
C339 C65 1.978 . S
C375 C71 1.846 . S
C223 C82 1.999 . S
C48 C286 1.659 . S
