# Generated by pormake.
# Topology zzz, (3,6)-cn, num edge types: 1
# Building blocks:
#     Node 0, Type 0, BuildingBlock: CUQRIR_clean_linker_1, # of connection points: 3
#     Node 1, Type 0, BuildingBlock: CUQRIR_clean_linker_1, # of connection points: 3
#     Node 2, Type 0, BuildingBlock: CUQRIR_clean_linker_1, # of connection points: 3
#     Node 3, Type 0, BuildingBlock: CUQRIR_clean_linker_1, # of connection points: 3
#     Node 4, Type 0, BuildingBlock: CUQRIR_clean_linker_1, # of connection points: 3
#     Node 5, Type 0, BuildingBlock: CUQRIR_clean_linker_1, # of connection points: 3
#     Node 6, Type 0, BuildingBlock: CUQRIR_clean_linker_1, # of connection points: 3
#     Node 7, Type 0, BuildingBlock: CUQRIR_clean_linker_1, # of connection points: 3
#     Node 8, Type 1, BuildingBlock: PAMTUU_clean_sbu_0, # of connection points: 6
#     Node 9, Type 1, BuildingBlock: PAMTUU_clean_sbu_0, # of connection points: 6
#     Node 10, Type 1, BuildingBlock: PAMTUU_clean_sbu_0, # of connection points: 6
#     Node 11, Type 1, BuildingBlock: PAMTUU_clean_sbu_0, # of connection points: 6
#     Edge 12, Type (0, 1), BuildingBlock: OJICUG_clean_linker_0, # of connection points: 2
#     Edge 13, Type (0, 1), BuildingBlock: OJICUG_clean_linker_0, # of connection points: 2
#     Edge 14, Type (0, 1), BuildingBlock: OJICUG_clean_linker_0, # of connection points: 2
#     Edge 15, Type (0, 1), BuildingBlock: OJICUG_clean_linker_0, # of connection points: 2
#     Edge 16, Type (0, 1), BuildingBlock: OJICUG_clean_linker_0, # of connection points: 2
#     Edge 17, Type (0, 1), BuildingBlock: OJICUG_clean_linker_0, # of connection points: 2
#     Edge 18, Type (0, 1), BuildingBlock: OJICUG_clean_linker_0, # of connection points: 2
#     Edge 19, Type (0, 1), BuildingBlock: OJICUG_clean_linker_0, # of connection points: 2
#     Edge 20, Type (0, 1), BuildingBlock: OJICUG_clean_linker_0, # of connection points: 2
#     Edge 21, Type (0, 1), BuildingBlock: OJICUG_clean_linker_0, # of connection points: 2
#     Edge 22, Type (0, 1), BuildingBlock: OJICUG_clean_linker_0, # of connection points: 2
#     Edge 23, Type (0, 1), BuildingBlock: OJICUG_clean_linker_0, # of connection points: 2
#     Edge 24, Type (0, 1), BuildingBlock: OJICUG_clean_linker_0, # of connection points: 2
#     Edge 25, Type (0, 1), BuildingBlock: OJICUG_clean_linker_0, # of connection points: 2
#     Edge 26, Type (0, 1), BuildingBlock: OJICUG_clean_linker_0, # of connection points: 2
#     Edge 27, Type (0, 1), BuildingBlock: OJICUG_clean_linker_0, # of connection points: 2
#     Edge 28, Type (0, 1), BuildingBlock: OJICUG_clean_linker_0, # of connection points: 2
#     Edge 29, Type (0, 1), BuildingBlock: OJICUG_clean_linker_0, # of connection points: 2
#     Edge 30, Type (0, 1), BuildingBlock: OJICUG_clean_linker_0, # of connection points: 2
#     Edge 31, Type (0, 1), BuildingBlock: OJICUG_clean_linker_0, # of connection points: 2
#     Edge 32, Type (0, 1), BuildingBlock: OJICUG_clean_linker_0, # of connection points: 2
#     Edge 33, Type (0, 1), BuildingBlock: OJICUG_clean_linker_0, # of connection points: 2
#     Edge 34, Type (0, 1), BuildingBlock: OJICUG_clean_linker_0, # of connection points: 2
#     Edge 35, Type (0, 1), BuildingBlock: OJICUG_clean_linker_0, # of connection points: 2
# Relax obj value: 0.341
# Max RMSD: 0.262
# Mean RMSD: 0.116
data_MOF--net-zzz--node1-PAMTUU_clean_sbu_0--node2-CUQRIR_clean_linker_1--edge1-OJICUG_clean_linker_0
_symmetry_space_group_name_H-M    P1
_symmetry_Int_Tables_number       1
_symmetry_cell_setting            triclinic
loop_
_symmetry_equiv_pos_as_xyz
'x, y, z'
_cell_length_a     31.942768
_cell_length_b     36.379177
_cell_length_c     10.647411
_cell_angle_alpha  105.92675
_cell_angle_beta   89.690358
_cell_angle_gamma 89.216392
loop_
_atom_site_label
_atom_site_type_symbol
_atom_site_fract_x
_atom_site_fract_y
_atom_site_fract_z
_atom_type_partial_charge
C0 C 0.78451 0.50926 0.46183 0.0
N1 N 0.8135 0.48787 0.50556 0.0
N2 N 0.75366 0.48693 0.39336 0.0
C3 C 0.78682 0.55164 0.48339 0.0
C4 C 0.76531 0.45123 0.39751 0.0
N5 N 0.80186 0.45154 0.46273 0.0
C6 C 0.74214 0.41549 0.32984 0.0
H7 H 0.80157 0.56524 0.57866 0.0
H8 H 0.75516 0.56424 0.47965 0.0
H9 H 0.80651 0.55749 0.40507 0.0
H10 H 0.73831 0.41399 0.22501 0.0
H11 H 0.71049 0.41639 0.3737 0.0
H12 H 0.75818 0.3892 0.33949 0.0
C13 C 1.03542 0.74256 0.53457 0.0
N14 N 0.05679 0.77512 0.54066 0.0
N15 N 1.05494 0.71155 0.45213 0.0
C16 C 0.9942 0.74141 0.60096 0.0
C17 C 0.0886 0.72666 0.40801 0.0
N18 N 0.08955 0.76498 0.46041 0.0
C19 C 0.11847 0.70423 0.30408 0.0
H20 H 0.99311 0.76303 0.69751 0.0
H21 H 0.98875 0.71249 0.61297 0.0
H22 H 0.96887 0.74841 0.54006 0.0
H23 H 0.1013 0.69305 0.21137 0.0
H24 H 0.13142 0.67936 0.33307 0.0
H25 H 0.14494 0.72182 0.28766 0.0
C26 C 0.82565 0.01201 0.46424 0.0
N27 N 0.79834 0.03688 0.546 0.0
N28 N 0.8555 0.03106 0.41552 0.0
C29 C 0.82124 0.96945 0.42402 0.0
C30 C 0.84529 0.0682 0.47134 0.0
N31 N 0.81042 0.07202 0.54767 0.0
C32 C 0.86813 0.10119 0.44413 0.0
H33 H 0.80767 0.95959 0.5051 0.0
H34 H 0.85197 0.95508 0.39371 0.0
H35 H 0.79972 0.96139 0.33976 0.0
H36 H 0.85523 0.10766 0.35604 0.0
H37 H 0.90156 0.09359 0.42308 0.0
H38 H 0.86489 0.12713 0.52798 0.0
C39 C 0.57285 0.79101 0.21707 0.0
N40 N 0.56643 0.75401 0.21456 0.0
N41 N 0.55664 0.79894 0.10864 0.0
C42 C 0.59433 0.81922 0.32661 0.0
C43 C 0.53985 0.76496 0.0414 0.0
N44 N 0.54552 0.73803 0.10649 0.0
C45 C 0.51888 0.75776 0.91043 0.0
H46 H 0.58283 0.84877 0.33591 0.0
H47 H 0.62854 0.81767 0.30682 0.0
H48 H 0.58905 0.81223 0.42046 0.0
H49 H 0.53507 0.77318 0.84812 0.0
H50 H 0.48594 0.76814 0.92561 0.0
H51 H 0.5178 0.72709 0.85735 0.0
C52 C 0.31887 0.49792 0.30102 0.0
N53 N 0.28636 0.5218 0.28995 0.0
N54 N 0.34518 0.51534 0.39989 0.0
C55 C 0.32503 0.45785 0.21659 0.0
C56 C 0.32732 0.55027 0.44909 0.0
N57 N 0.2922 0.55443 0.38255 0.0
C58 C 0.34165 0.57865 0.57284 0.0
H59 H 0.30812 0.43812 0.26142 0.0
H60 H 0.35875 0.44966 0.20938 0.0
H61 H 0.31219 0.45487 0.11771 0.0
H62 H 0.35686 0.60292 0.54744 0.0
H63 H 0.36451 0.56598 0.62755 0.0
H64 H 0.31459 0.58995 0.63849 0.0
C65 C 0.09262 0.28778 0.25078 0.0
N66 N 0.06877 0.25611 0.23654 0.0
N67 N 0.07542 0.31838 0.34156 0.0
C68 C 0.13432 0.2879 0.18615 0.0
C69 C 1.04075 0.30383 0.38236 0.0
N70 N 1.03685 0.26633 0.32001 0.0
C71 C 1.01257 0.32561 0.4924 0.0
H72 H 0.1586 0.27771 0.24339 0.0
H73 H 0.14221 0.31722 0.18258 0.0
H74 H 0.13433 0.26815 0.08604 0.0
H75 H 1.01181 0.35651 0.49826 0.0
H76 H 1.02486 0.32265 0.5864 0.0
H77 H 0.98035 0.31419 0.47959 0.0
C78 C 0.28888 0.01476 0.28685 0.0
N79 N 0.31565 0.98887 0.20671 0.0
N80 N 0.25821 0.99689 0.33711 0.0
C81 C 0.29534 0.05706 0.32674 0.0
C82 C 0.26757 0.9594 0.28413 0.0
N83 N 0.30271 0.95433 0.20877 0.0
C84 C 0.24364 0.92729 0.31354 0.0
H85 H 0.31778 0.06416 0.40879 0.0
H86 H 0.26543 0.07266 0.35979 0.0
H87 H 0.3089 0.06632 0.2444 0.0
H88 H 0.21057 0.93597 0.33504 0.0
H89 H 0.2559 0.92081 0.4023 0.0
H90 H 0.24615 0.90103 0.23071 0.0
C91 C 0.52643 0.22779 0.58889 0.0
N92 N 0.539 0.26237 0.57883 0.0
N93 N 0.5534 0.21374 0.66401 0.0
C94 C 0.48596 0.20963 0.53549 0.0
C95 C 0.58298 0.24119 0.69719 0.0
N96 N 0.57418 0.27066 0.64621 0.0
C97 C 0.62182 0.23861 0.77371 0.0
H98 H 0.46296 0.2314 0.5225 0.0
H99 H 0.47236 0.19384 0.60114 0.0
H100 H 0.49212 0.18912 0.43861 0.0
H101 H 0.6322 0.20841 0.75722 0.0
H102 H 0.61517 0.25102 0.87934 0.0
H103 H 0.64748 0.2551 0.74543 0.0
Tb104 Tb 1.02705 0.02366 0.77307 0.0
Tb105 Tb 0.09005 1.00777 0.98765 0.0
C106 C 0.9912 1.00989 0.03863 0.0
C107 C 0.97584 0.07379 0.56055 0.0
C108 C 0.97716 0.14089 0.47882 0.0
C109 C 0.95825 0.14117 0.59816 0.0
C110 C 0.95706 0.10776 0.63799 0.0
C111 C 0.99441 0.07366 0.44057 0.0
C112 C 0.99449 0.10678 0.39901 0.0
C113 C 0.97893 0.03956 0.60886 0.0
O114 O 1.03868 0.08108 0.90081 0.0
O115 O 0.09442 0.06981 0.0216 0.0
O116 O 0.1277 1.0019 0.80991 0.0
O117 O 0.0887 0.03754 0.70694 0.0
O118 O 0.10821 0.01301 0.18133 0.0
O119 O 0.14752 0.98364 0.0189 0.0
O120 O 0.06247 0.9519 0.90039 0.0
O121 O 1.03932 0.96161 0.70873 0.0
O122 O 0.98489 1.00926 0.91589 0.0
O123 O 1.02912 0.01279 0.08786 0.0
C124 C 0.06883 0.09357 0.98514 0.0
O125 O 1.01283 0.01861 0.57657 0.0
O126 O 0.96886 0.04439 0.73107 0.0
C127 C 0.12436 0.02076 0.72124 0.0
C128 C 0.14119 0.95538 0.19178 0.0
C129 C 0.13905 0.88897 0.27741 0.0
C130 C 0.15699 0.88774 0.15587 0.0
C131 C 0.15855 0.92077 0.11406 0.0
C132 C 0.12276 0.95633 0.31269 0.0
C133 C 0.12215 0.92351 0.35594 0.0
C134 C 0.13987 0.98955 0.143 0.0
C135 C 1.0488 0.93841 0.78049 0.0
H136 H 0.94506 0.16738 0.66142 0.0
H137 H 0.94253 0.10895 0.73117 0.0
H138 H 1.01039 0.04841 0.38113 0.0
H139 H 1.01025 0.10628 0.30811 0.0
H140 H 0.17002 0.86129 0.09369 0.0
H141 H 0.17286 0.91895 0.02007 0.0
H142 H 0.10787 0.98214 0.37249 0.0
H143 H 0.10711 0.92481 0.4486 0.0
Tb144 Tb 0.54694 0.98266 0.73442 0.0
Tb145 Tb 0.57454 0.02653 0.02872 0.0
C146 C 0.5649 0.93724 0.93744 0.0
C147 C 0.51251 0.92146 0.39811 0.0
C148 C 0.44937 0.8841 0.23301 0.0
C149 C 0.46537 0.86828 0.33017 0.0
C150 C 0.49636 0.8874 0.41453 0.0
C151 C 0.50177 0.93329 0.28808 0.0
C152 C 0.47025 0.91495 0.20659 0.0
C153 C 0.53765 0.94743 0.49706 0.0
O154 O 0.48505 0.99412 0.83654 0.0
O155 O 0.51017 1.00844 0.0457 0.0
O156 O 0.55838 0.07421 0.94798 0.0
O157 O 0.55001 0.04198 0.73141 0.0
O158 O 0.61277 0.0306 0.19158 0.0
O159 O 0.55583 0.06461 0.20692 0.0
O160 O 0.62979 0.03488 0.91428 0.0
O161 O 0.6157 0.98601 0.73289 0.0
O162 O 0.53958 0.94103 0.84528 0.0
O163 O 0.58938 0.96542 0.99613 0.0
C164 C 0.47857 1.00131 0.96442 0.0
O165 O 0.52055 0.98069 0.5535 0.0
O166 O 0.55892 0.93369 0.57858 0.0
C167 C 0.5521 0.07391 0.82544 0.0
C168 C 0.60703 0.08597 0.36916 0.0
C169 C 0.66086 0.13489 0.54093 0.0
C170 C 0.64202 0.14669 0.43861 0.0
C171 C 0.61586 0.12177 0.35072 0.0
C172 C 0.61942 0.07756 0.48396 0.0
C173 C 0.64519 0.10238 0.57151 0.0
C174 C 0.58766 0.05551 0.26875 0.0
C175 C 0.64094 0.01273 0.79808 0.0
H176 H 0.45014 0.84425 0.35167 0.0
H177 H 0.50526 0.87724 0.49732 0.0
H178 H 0.51504 0.95889 0.27175 0.0
H179 H 0.45918 0.92787 0.1324 0.0
H180 H 0.65259 0.17219 0.415 0.0
H181 H 0.60538 0.12913 0.26397 0.0
H182 H 0.61149 0.05052 0.50172 0.0
H183 H 0.65783 0.0927 0.65133 0.0
Tb184 Tb 0.52019 0.49256 0.99147 0.0
Tb185 Tb 0.58467 0.51392 0.77427 0.0
C186 C 0.48784 0.49538 0.70783 0.0
C187 C 0.48022 0.43886 0.21697 0.0
C188 C 0.48967 0.37834 0.33672 0.0
C189 C 0.46161 0.37529 0.23331 0.0
C190 C 0.45654 0.40538 0.17537 0.0
C191 C 0.50867 0.44162 0.31973 0.0
C192 C 0.51287 0.41198 0.37998 0.0
C193 C 0.47528 0.47016 0.15174 0.0
O194 O 0.54794 0.43928 0.87518 0.0
O195 O 0.60049 0.45391 0.74574 0.0
O196 O 0.62122 0.51996 0.95576 0.0
O197 O 0.58238 0.48539 0.06427 0.0
O198 O 0.60823 0.51405 0.58832 0.0
O199 O 0.62958 0.55438 0.76384 0.0
O200 O 0.53745 0.55753 0.84175 0.0
O201 O 0.52702 0.55506 0.0495 0.0
O202 O 0.47918 0.49904 0.8325 0.0
O203 O 0.5268 0.49543 0.6646 0.0
C204 C 0.58017 0.42966 0.7946 0.0
O205 O 0.50064 0.49899 0.18577 0.0
O206 O 0.46993 0.45959 0.02567 0.0
C207 C 0.61707 0.50282 0.04979 0.0
C208 C 0.62223 0.57826 0.57921 0.0
C209 C 0.60996 0.6414 0.47437 0.0
C210 C 0.62791 0.64658 0.59776 0.0
C211 C 0.63462 0.61532 0.64854 0.0
C212 C 0.60372 0.57329 0.45614 0.0
C213 C 0.59817 0.60442 0.4036 0.0
C214 C 0.62885 0.54553 0.63671 0.0
C215 C 0.53068 0.57496 0.96411 0.0
H216 H 0.44329 0.34973 0.1981 0.0
H217 H 0.43428 0.4023 0.09688 0.0
H218 H 0.52776 0.4667 0.35399 0.0
H219 H 0.53501 0.41501 0.4588 0.0
H220 H 0.63738 0.67475 0.65399 0.0
H221 H 0.6492 0.62032 0.74324 0.0
H222 H 0.59325 0.54545 0.40065 0.0
H223 H 0.58402 0.59972 0.30831 0.0
Tb224 Tb 0.05978 0.54729 0.85259 0.0
Tb225 Tb 1.03302 0.47918 0.97527 0.0
C226 C 1.02179 0.5625 0.12417 0.0
C227 C 0.10888 0.63556 0.80281 0.0
C228 C 0.18073 0.65858 0.70163 0.0
C229 C 0.18381 0.64309 0.80872 0.0
C230 C 0.14778 0.6297 0.85494 0.0
C231 C 0.10554 0.66107 0.72584 0.0
C232 C 0.14184 0.67315 0.67611 0.0
C233 C 0.07352 0.61116 0.81025 0.0
O234 O 0.11591 0.53896 0.9631 0.0
O235 O 0.1001 0.48436 0.02297 0.0
O236 O 1.04812 0.45231 0.77235 0.0
O237 O 0.09035 0.49658 0.71832 0.0
O238 O 1.04383 0.42466 1.00489 0.0
O239 O 0.98585 0.45652 0.06563 0.0
O240 O 0.97592 0.49624 0.88442 0.0
O241 O 1.00416 0.52547 0.73897 0.0
O242 O 1.01234 0.56339 1.00621 0.0
O243 O 1.03835 0.53079 0.13734 0.0
C244 C 0.12666 0.51134 0.0164 0.0
O245 O 0.07145 0.57896 0.71805 0.0
O246 O 0.06596 0.6065 0.92504 0.0
C247 C 0.07694 0.46117 0.69801 0.0
C248 C 1.00211 0.40864 0.16884 0.0
C249 C 0.95354 0.38286 0.3443 0.0
C250 C 0.96842 0.35667 0.22927 0.0
C251 C 0.99232 0.36977 0.14063 0.0
C252 C 0.99549 0.43228 0.29568 0.0
C253 C 0.9725 0.4188 0.38518 0.0
C254 C 1.00705 0.42509 0.05876 0.0
C255 C 0.97214 0.50971 0.78123 0.0
H256 H 0.21388 0.63309 0.83412 0.0
H257 H 0.15081 0.61133 0.9192 0.0
H258 H 0.07525 0.66779 0.69169 0.0
H259 H 0.13907 0.68728 0.59919 0.0
H260 H 0.9553 0.32835 0.19738 0.0
H261 H 0.99794 0.35088 0.04372 0.0
H262 H 1.00366 0.46221 0.32044 0.0
H263 H 0.96317 0.43895 0.4763 0.0
C264 C 0.23269 0.9989 0.55924 0.0
C265 C 0.22893 0.01149 0.44591 0.0
H266 H 0.20342 0.99127 0.73162 0.0
C267 C 0.19207 0.0316 0.43182 0.0
H268 H 0.26071 0.98353 0.57376 0.0
C269 C 0.15883 0.03656 0.5241 0.0
C270 C 0.16131 0.02084 0.63158 0.0
H271 H 0.18803 0.04159 0.34578 0.0
H272 H 0.13033 0.05084 0.50707 0.0
C273 C 0.1995 1.00317 0.64961 0.0
C274 C 0.55754 0.17988 0.8382 0.0
C275 C 0.55015 0.17922 0.70712 0.0
H276 H 0.56446 0.14764 0.97866 0.0
C277 C 0.54038 0.14411 0.61865 0.0
H278 H 0.56368 0.2066 0.91022 0.0
C279 C 0.53931 0.11049 0.65884 0.0
C280 C 0.54906 0.1107 0.78813 0.0
H281 H 0.53471 0.14241 0.51716 0.0
H282 H 0.53208 0.08401 0.58672 0.0
C283 C 0.55742 0.14607 0.87796 0.0
C284 C 0.42184 0.51563 0.43317 0.0
C285 C 0.38229 0.50146 0.45291 0.0
H286 H 0.48567 0.52477 0.49594 0.0
C287 C 0.37844 0.48298 0.55255 0.0
H288 H 0.42544 0.53142 0.36123 0.0
C289 C 0.41278 0.47993 0.63267 0.0
C290 C 0.45217 0.495 0.61485 0.0
H291 H 0.34808 0.47313 0.57389 0.0
H292 H 0.40814 0.46671 0.71116 0.0
C293 C 0.45626 0.51219 0.51186 0.0
C294 C 0.08462 0.3877 0.36981 0.0
C295 C 0.09333 0.35469 0.41029 0.0
H296 H 0.07389 0.44883 0.42977 0.0
C297 C 0.10755 0.35944 0.53814 0.0
H298 H 0.0739 0.38471 0.27155 0.0
C299 C 0.10754 0.39569 0.62808 0.0
C300 C 0.09373 0.4283 0.59236 0.0
H301 H 0.11388 0.33454 0.57252 0.0
H302 H 0.11424 0.39767 0.72939 0.0
C303 C 0.08478 0.42433 0.46019 0.0
C304 C 0.92355 0.99942 0.32745 0.0
C305 C 0.88578 0.0175 0.309 0.0
H306 H 0.98635 0.98261 0.25743 0.0
C307 C 0.88162 0.02892 0.19337 0.0
H308 H 0.92783 0.99035 0.41524 0.0
C309 C 0.915 0.02474 0.10324 0.0
C310 C 0.95397 1.00926 0.12612 0.0
H311 H 0.85302 0.04306 0.17629 0.0
H312 H 0.91091 0.03554 0.01883 0.0
C313 C 0.95719 0.99535 0.2373 0.0
C314 C 0.52474 0.84687 1.00791 0.0
C315 C 0.55898 0.83413 0.06826 0.0
H316 H 0.50033 0.88782 0.91513 0.0
C317 C 0.59587 0.85578 0.08375 0.0
H318 H 0.49523 0.8323 0.99857 0.0
C319 C 0.59792 0.88943 0.04298 0.0
C320 C 0.5638 0.90142 0.98019 0.0
H321 H 0.62342 0.84652 0.12584 0.0
H322 H 0.62654 0.90563 0.05822 0.0
C323 C 0.52751 0.87924 0.96123 0.0
C324 C 0.67818 0.4849 0.3372 0.0
C325 C 0.71899 0.49641 0.31814 0.0
H326 H 0.61518 0.47708 0.269 0.0
C327 C 0.72578 0.5125 0.21344 0.0
H328 H 0.67158 0.47299 0.41766 0.0
C329 C 0.69288 0.51563 0.12787 0.0
C330 C 0.65236 0.50234 0.1438 0.0
H331 H 0.75692 0.52126 0.19476 0.0
H332 H 0.69954 0.5274 0.04704 0.0
C333 C 0.6457 0.48733 0.25117 0.0
C334 C 0.06384 0.64134 0.40262 0.0
C335 C 1.03975 0.67328 0.39483 0.0
H336 H 0.07629 0.58122 0.32737 0.0
C337 C 1.00608 0.66737 0.30769 0.0
H338 H 0.09111 0.64504 0.46328 0.0
C339 C 0.99846 0.63076 0.22475 0.0
C340 C 1.02385 0.59914 0.22923 0.0
H341 H 0.98773 0.69155 0.29691 0.0
H342 H 0.97396 0.62751 0.15276 0.0
C343 C 1.05557 0.60465 0.3229 0.0
C344 C 0.98835 0.21248 0.28425 0.0
C345 C 1.01353 0.23958 0.36833 0.0
H346 H 0.95709 0.1589 0.2534 0.0
C347 C 1.02168 0.23645 0.49425 0.0
H348 H 0.98169 0.21467 0.18701 0.0
C349 C 1.00677 0.20562 0.53347 0.0
C350 C 0.9844 0.17692 0.44596 0.0
H351 H 1.04213 0.25641 0.55891 0.0
H352 H 1.01548 0.20272 0.62858 0.0
C353 C 0.97431 0.1809 0.32216 0.0
C354 C 0.34125 0.91047 0.30533 0.0
C355 C 0.33074 0.92204 0.19398 0.0
H356 H 0.3859 0.88411 0.39906 0.0
C357 C 0.3535 0.90673 0.07791 0.0
H358 H 0.32541 0.92255 0.39763 0.0
C359 C 0.39062 0.88602 0.08062 0.0
C360 C 0.40453 0.88038 0.19948 0.0
H361 H 0.34504 0.91407 0.9895 0.0
H362 H 0.41116 0.8794 0.9958 0.0
C363 C 0.37669 0.88825 0.30605 0.0
C364 C 0.58702 0.32914 0.81889 0.0
C365 C 0.59118 0.30856 0.68736 0.0
H366 H 0.58078 0.38415 0.9557 0.0
C367 C 0.60162 0.3282 0.59474 0.0
H368 H 0.5786 0.31473 0.89165 0.0
C369 C 0.60221 0.36833 0.63082 0.0
C370 C 0.59257 0.38888 0.75998 0.0
H371 H 0.60494 0.31271 0.4926 0.0
H372 H 0.60615 0.38306 0.55598 0.0
C373 C 0.58763 0.36892 0.85486 0.0
C374 C 0.27162 0.62265 0.47322 0.0
C375 C 0.26072 0.5838 0.42984 0.0
H376 H 0.25485 0.67795 0.60119 0.0
C377 C 0.22018 0.57314 0.454 0.0
H378 H 0.30246 0.63164 0.45285 0.0
C379 C 0.1922 0.59992 0.5275 0.0
C380 C 0.20521 0.6373 0.58727 0.0
H381 H 0.2111 0.54353 0.42664 0.0
H382 H 0.16196 0.5902 0.5511 0.0
C383 C 0.24441 0.64919 0.55593 0.0
C384 C 0.1333 0.82165 0.48948 0.0
C385 C 0.11162 0.79133 0.407 0.0
H386 H 0.15896 0.87723 0.51252 0.0
C387 C 0.10444 0.79102 0.27696 0.0
H388 H 0.13884 0.82222 0.59021 0.0
C389 C 0.11615 0.82187 0.23222 0.0
C390 C 0.13462 0.85371 0.31775 0.0
H391 H 0.08689 0.76821 0.21306 0.0
H392 H 0.10792 0.82204 0.13377 0.0
C393 C 0.14444 0.85295 0.44544 0.0
C394 C 0.76889 0.11531 0.45648 0.0
C395 C 0.78167 0.10399 0.56624 0.0
H396 H 0.72131 0.1402 0.36849 0.0
C397 C 0.76077 0.11957 0.68563 0.0
H398 H 0.78411 0.10384 0.36268 0.0
C399 C 0.7225 0.13904 0.68766 0.0
C400 C 0.70565 0.14307 0.56999 0.0
H401 H 0.77168 0.11351 0.77382 0.0
H402 H 0.70337 0.14538 0.77555 0.0
C403 C 0.73227 0.13646 0.46035 0.0
C404 C 0.5143 0.68013 0.14594 0.0
C405 C 0.53616 0.6978 0.06339 0.0
H406 H 0.49606 0.62708 0.18216 0.0
C407 C 0.55501 0.67489 0.94943 0.0
H408 H 0.50028 0.69738 0.23603 0.0
C409 C 0.55174 0.63531 0.91734 0.0
C410 C 0.53093 0.6173 1.00084 0.0
H411 H 0.57375 0.68757 0.88771 0.0
H412 H 0.56705 0.61869 0.82865 0.0
C413 C 0.51214 0.64009 0.11584 0.0
C414 C 0.84218 0.40093 0.30914 0.0
C415 C 0.83137 0.41989 0.43873 0.0
H416 H 0.88904 0.3707 0.17825 0.0
C417 C 0.85615 0.41349 0.53964 0.0
H418 H 0.82387 0.40523 0.22894 0.0
C419 C 0.89547 0.39548 0.5106 0.0
C420 C 0.90888 0.3818 0.37993 0.0
H421 H 0.84717 0.42579 0.64056 0.0
H422 H 0.91698 0.39607 0.58942 0.0
C423 C 0.87993 0.381 0.28023 0.0
C424 C 0.09692 0.19083 0.21846 0.0
C425 C 0.07719 0.21684 0.16062 0.0
H426 H 0.11007 0.13198 0.20933 0.0
C427 C 0.057 0.20208 0.04067 0.0
H428 H 0.11151 0.20127 0.31287 0.0
C429 C 1.05502 0.16235 0.9827 0.0
C430 C 0.07361 0.13608 0.04236 0.0
H431 H 1.04049 0.22134 0.99588 0.0
H432 H 1.03797 0.15221 0.89241 0.0
C433 C 0.09554 0.15105 0.15963 0.0
C434 C 0.39159 1.00481 0.22143 0.0
C435 C 0.35512 0.99607 0.14695 0.0
H436 H 0.45782 0.01333 0.22428 0.0
C437 C 0.35905 0.99001 1.01041 0.0
H438 H 0.38997 1.00895 0.32601 0.0
C439 C 0.39844 0.99189 0.95003 0.0
C440 C 0.4353 1.00006 0.02449 0.0
H441 H 0.33163 0.98268 0.94985 0.0
H442 H 0.40005 0.98642 0.8449 0.0
C443 C 0.43075 1.00695 0.16174 0.0
C444 C 0.50268 0.32384 0.59238 0.0
C445 C 0.51763 0.28801 0.51675 0.0
H446 H 0.48331 0.38085 0.59507 0.0
C447 C 0.51865 0.28067 0.38027 0.0
H448 H 0.50166 0.33012 0.69781 0.0
C449 C 0.50749 0.30945 0.32102 0.0
C450 C 0.49578 0.34628 0.39756 0.0
H451 H 0.5305 0.25344 0.32034 0.0
H452 H 0.51032 0.30358 0.21591 0.0
C453 C 0.49254 0.35287 0.5337 0.0
C454 C 0.23777 0.54241 0.13823 0.0
C455 C 0.25032 0.51476 0.20159 0.0
H456 H 0.19021 0.56333 0.03217 0.0
C457 C 0.2228 0.48432 0.19557 0.0
H458 H 0.25779 0.56643 0.14164 0.0
C459 C 0.18338 0.4827 0.13364 0.0
C460 C 0.17009 0.51133 0.07484 0.0
H461 H 0.23067 0.46298 0.24548 0.0
H462 H 0.16278 0.45944 0.13528 0.0
C463 C 0.19859 0.54075 0.07611 0.0
C464 C 1.03185 0.83995 0.53812 0.0
C465 C 1.04577 0.81461 0.60863 0.0
H466 H 1.02214 0.89828 0.53509 0.0
C467 C 0.0578 0.83019 0.73899 0.0
H468 H 1.02337 0.82885 0.43656 0.0
C469 C 0.05751 0.87009 0.79584 0.0
C470 C 1.04538 0.8957 0.72359 0.0
H471 H 0.06971 0.81151 0.79452 0.0
H472 H 0.06833 0.88085 0.89522 0.0
C473 C 1.03167 0.87984 0.59452 0.0
C474 C 0.72568 0.01077 0.53567 0.0
C475 C 0.76015 0.02811 0.60915 0.0
H476 H 0.66201 0.99222 0.53635 0.0
C477 C 0.75564 0.03903 0.74652 0.0
H478 H 0.72774 1.0022 0.43008 0.0
C479 C 0.71737 0.0345 0.80827 0.0
C480 C 0.68261 0.01751 0.73486 0.0
H481 H 0.78172 0.05187 0.8064 0.0
H482 H 0.71515 0.0441 0.91379 0.0
C483 C 0.68781 1.00526 0.59733 0.0
C484 C 0.61384 0.70274 0.23893 0.0
C485 C 0.5851 0.73231 0.29569 0.0
H486 H 0.64315 0.65021 0.24909 0.0
C487 C 0.56792 0.73407 0.41894 0.0
H488 H 0.62701 0.70062 0.14322 0.0
C489 C 0.57759 0.7055 0.48071 0.0
C490 C 0.60381 0.67431 0.41848 0.0
H491 H 0.54498 0.75608 0.46304 0.0
H492 H 0.56272 0.70657 0.57337 0.0
C493 C 0.62262 0.67374 0.29857 0.0
C494 C 0.85395 0.50081 0.71176 0.0
C495 C 0.8517 0.50032 0.57924 0.0
H496 H 0.89306 0.50264 0.87734 0.0
C497 C 0.889 0.50579 0.51624 0.0
H498 H 0.82586 0.4963 0.76257 0.0
C499 C 0.92761 0.51037 0.58292 0.0
C500 C 0.93039 0.50814 0.71319 0.0
H501 H 0.88849 0.50502 0.41388 0.0
H502 H 0.9557 0.51381 0.53008 0.0
C503 C 0.89267 0.50397 0.77699 0.0
loop_
_geom_bond_atom_site_label_1
_geom_bond_atom_site_label_2
_geom_bond_distance
_geom_bond_site_symmetry_2
_ccdc_geom_bond_type
C0 N1 1.317 . S
C0 N2 1.348 . S
C0 C3 1.485 . S
N1 C0 1.317 . S
N1 N5 1.370 . S
N2 C0 1.348 . S
N2 C4 1.346 . S
C3 C0 1.485 . S
C3 H7 0.960 . S
C3 H8 0.961 . S
C3 H9 0.960 . S
C4 N2 1.346 . S
C4 N5 1.307 . S
C4 C6 1.486 . S
N5 N1 1.370 . S
N5 C4 1.307 . S
C6 C4 1.486 . S
C6 H10 0.960 . S
C6 H11 0.960 . S
C6 H12 0.959 . S
H7 C3 0.960 . S
H8 C3 0.961 . S
H9 C3 0.960 . S
H10 C6 0.960 . S
H11 C6 0.960 . S
H12 C6 0.959 . S
C13 N14 1.317 . S
C13 N15 1.348 . S
C13 C16 1.485 . S
N14 C13 1.317 . S
N14 N18 1.371 . S
N15 C13 1.348 . S
N15 C17 1.346 1_655 S
C16 C13 1.485 . S
C16 H20 0.960 1_655 S
C16 H21 0.961 . S
C16 H22 0.960 . S
C17 N15 1.346 1_455 S
C17 N18 1.307 1_455 S
C17 C19 1.486 . S
N18 N14 1.371 . S
N18 C17 1.307 1_655 S
C19 C17 1.486 . S
C19 H23 0.960 1_455 S
C19 H24 0.960 . S
C19 H25 0.959 . S
H20 C16 0.960 1_455 S
H21 C16 0.961 . S
H22 C16 0.960 . S
H23 C19 0.960 1_655 S
H24 C19 0.960 . S
H25 C19 0.959 . S
C26 N27 1.317 . S
C26 N28 1.348 . S
C26 C29 1.485 . S
N27 C26 1.317 . S
N27 N31 1.375 . S
N28 C26 1.348 . S
N28 C30 1.345 1_565 S
C29 C26 1.485 . S
C29 H33 0.960 1_565 S
C29 H34 0.961 . S
C29 H35 0.960 . S
C30 N28 1.345 1_545 S
C30 N31 1.304 1_545 S
C30 C32 1.487 . S
N31 N27 1.375 . S
N31 C30 1.304 1_565 S
C32 C30 1.487 . S
C32 H36 0.960 1_545 S
C32 H37 0.960 . S
C32 H38 0.959 . S
H33 C29 0.960 1_545 S
H34 C29 0.961 . S
H35 C29 0.960 . S
H36 C32 0.960 1_565 S
H37 C32 0.960 . S
H38 C32 0.959 . S
C39 N40 1.317 . S
C39 N41 1.348 1_554 S
C39 C42 1.485 . S
N40 C39 1.317 . S
N40 N44 1.370 1_554 S
N41 C39 1.348 1_556 S
N41 C43 1.346 . S
C42 C39 1.485 . S
C42 H46 0.960 . S
C42 H47 0.961 . S
C42 H48 0.960 . S
C43 N41 1.346 . S
C43 N44 1.307 . S
C43 C45 1.486 . S
N44 N40 1.370 1_556 S
N44 C43 1.307 . S
C45 C43 1.486 . S
C45 H49 0.960 . S
C45 H50 0.960 . S
C45 H51 0.959 . S
H46 C42 0.960 . S
H47 C42 0.961 . S
H48 C42 0.960 . S
H49 C45 0.960 . S
H50 C45 0.960 . S
H51 C45 0.959 . S
C52 N53 1.317 . S
C52 N54 1.348 . S
C52 C55 1.485 1_554 S
N53 C52 1.317 . S
N53 N57 1.370 . S
N54 C52 1.348 . S
N54 C56 1.346 . S
C55 C52 1.485 1_556 S
C55 H59 0.960 . S
C55 H60 0.961 . S
C55 H61 0.960 . S
C56 N54 1.346 . S
C56 N57 1.307 . S
C56 C58 1.486 . S
N57 N53 1.370 . S
N57 C56 1.307 . S
C58 C56 1.486 . S
C58 H62 0.960 . S
C58 H63 0.960 . S
C58 H64 0.959 . S
H59 C55 0.960 . S
H60 C55 0.961 . S
H61 C55 0.960 . S
H62 C58 0.960 . S
H63 C58 0.960 . S
H64 C58 0.959 . S
C65 N66 1.317 . S
C65 N67 1.348 . S
C65 C68 1.485 . S
N66 C65 1.317 . S
N66 N70 1.371 . S
N67 C65 1.348 . S
N67 C69 1.346 1_655 S
C68 C65 1.485 . S
C68 H72 0.960 1_655 S
C68 H73 0.961 . S
C68 H74 0.960 1_554 S
C69 N67 1.346 1_455 S
C69 N70 1.307 1_455 S
C69 C71 1.486 . S
N70 N66 1.371 . S
N70 C69 1.307 1_655 S
C71 C69 1.486 . S
C71 H75 0.960 1_455 S
C71 H76 0.960 . S
C71 H77 0.959 . S
H72 C68 0.960 1_455 S
H73 C68 0.961 . S
H74 C68 0.960 1_556 S
H75 C71 0.960 1_655 S
H76 C71 0.960 . S
H77 C71 0.959 . S
C78 N79 1.317 . S
C78 N80 1.348 . S
C78 C81 1.485 1_554 S
N79 C78 1.317 . S
N79 N83 1.369 . S
N80 C78 1.348 . S
N80 C82 1.348 1_565 S
C81 C78 1.485 1_556 S
C81 H85 0.960 1_565 S
C81 H86 0.961 . S
C81 H87 0.960 . S
C82 N80 1.348 1_545 S
C82 N83 1.309 1_545 S
C82 C84 1.483 . S
N83 N79 1.369 . S
N83 C82 1.309 1_565 S
C84 C82 1.483 . S
C84 H88 0.960 1_545 S
C84 H89 0.960 . S
C84 H90 0.959 . S
H85 C81 0.960 1_545 S
H86 C81 0.961 . S
H87 C81 0.960 . S
H88 C84 0.960 1_565 S
H89 C84 0.960 . S
H90 C84 0.959 . S
C91 N92 1.317 . S
C91 N93 1.348 . S
C91 C94 1.485 . S
N92 C91 1.317 . S
N92 N96 1.370 . S
N93 C91 1.348 . S
N93 C95 1.346 . S
C94 C91 1.485 . S
C94 H98 0.960 . S
C94 H99 0.961 . S
C94 H100 0.960 . S
C95 N93 1.346 . S
C95 N96 1.307 . S
C95 C97 1.486 1_556 S
N96 N92 1.370 . S
N96 C95 1.307 . S
C97 C95 1.486 1_554 S
C97 H101 0.960 . S
C97 H102 0.960 . S
C97 H103 0.959 . S
H98 C94 0.960 . S
H99 C94 0.961 . S
H100 C94 0.960 . S
H101 C97 0.960 . S
H102 C97 0.960 . S
H103 C97 0.959 . S
Tb104 C113 2.764 . S
Tb104 O114 2.325 . S
Tb104 O117 2.303 1_655 S
Tb104 O121 2.322 1_545 S
Tb104 O122 2.349 . S
Tb104 O125 2.415 . S
Tb104 O126 2.399 . S
Tb105 O115 2.322 1_565 S
Tb105 O116 2.349 1_554 S
Tb105 O118 2.415 . S
Tb105 O119 2.399 . S
Tb105 O120 2.325 1_554 S
Tb105 O123 2.303 1_454 S
Tb105 C134 2.764 . S
C106 O122 1.261 . S
C106 O123 1.257 1_545 S
C107 C110 1.358 . S
C107 C111 1.332 . S
C107 C113 1.504 . S
C108 C109 1.373 . S
C108 C112 1.308 . S
C109 C108 1.373 . S
C109 C110 1.429 . S
C109 H136 0.932 . S
C110 C107 1.358 . S
C110 C109 1.429 . S
C110 H137 0.930 . S
C111 C107 1.332 . S
C111 C112 1.394 . S
C111 H138 0.932 . S
C112 C108 1.308 . S
C112 C111 1.394 . S
C112 H139 0.929 . S
C113 Tb104 2.764 . S
C113 C107 1.504 . S
C113 O125 1.239 . S
C113 O126 1.263 . S
O114 Tb104 2.325 . S
O114 C124 1.236 1_655 S
O115 Tb105 2.322 1_545 S
O115 C124 1.257 1_554 S
O116 Tb105 2.349 1_556 S
O116 C127 1.261 . S
O117 Tb104 2.303 1_455 S
O117 C127 1.257 1_545 S
O118 Tb105 2.415 . S
O118 C134 1.239 . S
O119 Tb105 2.399 . S
O119 C134 1.263 . S
O120 Tb105 2.325 1_556 S
O120 C135 1.236 1_455 S
O121 Tb104 2.322 1_565 S
O121 C135 1.257 . S
O122 Tb104 2.349 . S
O122 C106 1.261 . S
O123 Tb105 2.303 1_656 S
O123 C106 1.257 1_565 S
C124 O114 1.236 1_455 S
C124 O115 1.257 1_556 S
O125 Tb104 2.415 . S
O125 C113 1.239 . S
O126 Tb104 2.399 . S
O126 C113 1.263 . S
C127 O116 1.261 . S
C127 O117 1.257 1_565 S
C128 C131 1.358 . S
C128 C132 1.332 . S
C128 C134 1.504 . S
C129 C130 1.373 . S
C129 C133 1.308 . S
C130 C129 1.373 . S
C130 C131 1.429 . S
C130 H140 0.932 . S
C131 C128 1.358 . S
C131 C130 1.429 . S
C131 H141 0.930 . S
C132 C128 1.332 . S
C132 C133 1.394 . S
C132 H142 0.932 . S
C133 C129 1.308 . S
C133 C132 1.394 . S
C133 H143 0.929 . S
C134 Tb105 2.764 . S
C134 O118 1.239 . S
C134 O119 1.263 . S
C134 C128 1.504 . S
C135 O120 1.236 1_655 S
C135 O121 1.257 . S
H136 C109 0.932 . S
H137 C110 0.930 . S
H138 C111 0.932 . S
H139 C112 0.929 . S
H140 C130 0.932 . S
H141 C131 0.930 . S
H142 C132 0.932 . S
H143 C133 0.929 . S
Tb144 C153 2.764 . S
Tb144 O154 2.325 . S
Tb144 O157 2.303 1_565 S
Tb144 O161 2.322 . S
Tb144 O162 2.349 . S
Tb144 O165 2.415 1_565 S
Tb144 O166 2.399 . S
Tb145 O155 2.322 . S
Tb145 O156 2.349 . S
Tb145 O158 2.415 1_545 S
Tb145 O159 2.399 . S
Tb145 O160 2.325 1_554 S
Tb145 O163 2.303 1_544 S
Tb145 C174 2.764 . S
C146 O162 1.261 . S
C146 O163 1.257 . S
C147 C150 1.358 . S
C147 C151 1.332 1_565 S
C147 C153 1.504 . S
C148 C149 1.373 . S
C148 C152 1.315 . S
C149 C148 1.373 . S
C149 C150 1.429 . S
C149 H176 0.932 . S
C150 C147 1.358 . S
C150 C149 1.429 . S
C150 H177 0.930 . S
C151 C147 1.332 1_545 S
C151 C152 1.395 1_545 S
C151 H178 0.932 . S
C152 C148 1.315 . S
C152 C151 1.395 1_565 S
C152 H179 0.920 1_565 S
C153 Tb144 2.764 . S
C153 C147 1.504 . S
C153 O165 1.239 1_565 S
C153 O166 1.263 . S
O154 Tb144 2.325 . S
O154 C164 1.236 1_565 S
O155 Tb145 2.322 . S
O155 C164 1.257 1_554 S
O156 Tb145 2.349 . S
O156 C167 1.261 1_554 S
O157 Tb144 2.303 1_545 S
O157 C167 1.257 . S
O158 Tb145 2.415 1_565 S
O158 C174 1.239 1_565 S
O159 Tb145 2.399 . S
O159 C174 1.263 . S
O160 Tb145 2.325 1_556 S
O160 C175 1.236 1_545 S
O161 Tb144 2.322 . S
O161 C175 1.257 . S
O162 Tb144 2.349 . S
O162 C146 1.261 . S
O163 Tb145 2.303 1_566 S
O163 C146 1.257 . S
C164 O154 1.236 1_545 S
C164 O155 1.257 1_556 S
O165 Tb144 2.415 1_545 S
O165 C153 1.239 1_545 S
O166 Tb144 2.399 . S
O166 C153 1.263 . S
C167 O156 1.261 1_556 S
C167 O157 1.257 . S
C168 C171 1.358 . S
C168 C172 1.332 1_545 S
C168 C174 1.504 . S
C169 C170 1.373 . S
C169 C173 1.320 . S
C170 C169 1.373 . S
C170 C171 1.429 . S
C170 H180 0.932 . S
C171 C168 1.358 . S
C171 C170 1.429 . S
C171 H181 0.930 . S
C172 C168 1.332 1_565 S
C172 C173 1.396 1_565 S
C172 H182 0.932 . S
C173 C169 1.320 . S
C173 C172 1.396 1_545 S
C173 H183 0.914 1_545 S
C174 Tb145 2.764 . S
C174 O158 1.239 1_545 S
C174 O159 1.263 . S
C174 C168 1.504 . S
C175 O160 1.236 1_565 S
C175 O161 1.257 . S
H176 C149 0.932 . S
H177 C150 0.930 . S
H178 C151 0.932 . S
H179 C152 0.920 1_545 S
H180 C170 0.932 . S
H181 C171 0.930 . S
H182 C172 0.932 . S
H183 C173 0.914 1_565 S
Tb184 C193 2.764 . S
Tb184 O194 2.325 1_554 S
Tb184 O197 2.303 1_554 S
Tb184 O201 2.322 1_554 S
Tb184 O202 2.349 1_554 S
Tb184 O205 2.415 . S
Tb184 O206 2.399 . S
Tb185 O195 2.322 . S
Tb185 O196 2.349 . S
Tb185 O198 2.415 . S
Tb185 O199 2.399 . S
Tb185 O200 2.325 . S
Tb185 O203 2.303 . S
Tb185 C214 2.764 . S
C186 O202 1.261 . S
C186 O203 1.257 . S
C187 C190 1.358 . S
C187 C191 1.332 . S
C187 C193 1.504 . S
C188 C189 1.373 . S
C188 C192 1.308 . S
C189 C188 1.373 . S
C189 C190 1.429 . S
C189 H216 0.932 . S
C190 C187 1.358 . S
C190 C189 1.429 . S
C190 H217 0.930 . S
C191 C187 1.332 . S
C191 C192 1.394 . S
C191 H218 0.932 . S
C192 C188 1.308 . S
C192 C191 1.394 . S
C192 H219 0.929 . S
C193 Tb184 2.764 . S
C193 C187 1.504 . S
C193 O205 1.239 . S
C193 O206 1.263 . S
O194 Tb184 2.325 1_556 S
O194 C204 1.236 . S
O195 Tb185 2.322 . S
O195 C204 1.257 . S
O196 Tb185 2.349 . S
O196 C207 1.261 . S
O197 Tb184 2.303 1_556 S
O197 C207 1.257 . S
O198 Tb185 2.415 . S
O198 C214 1.239 . S
O199 Tb185 2.399 . S
O199 C214 1.263 . S
O200 Tb185 2.325 . S
O200 C215 1.236 . S
O201 Tb184 2.322 1_556 S
O201 C215 1.257 . S
O202 Tb184 2.349 1_556 S
O202 C186 1.261 . S
O203 Tb185 2.303 . S
O203 C186 1.257 . S
C204 O194 1.236 . S
C204 O195 1.257 . S
O205 Tb184 2.415 . S
O205 C193 1.239 . S
O206 Tb184 2.399 . S
O206 C193 1.263 . S
C207 O196 1.261 . S
C207 O197 1.257 . S
C208 C211 1.358 . S
C208 C212 1.332 . S
C208 C214 1.504 . S
C209 C210 1.373 . S
C209 C213 1.308 . S
C210 C209 1.373 . S
C210 C211 1.429 . S
C210 H220 0.932 . S
C211 C208 1.358 . S
C211 C210 1.429 . S
C211 H221 0.930 . S
C212 C208 1.332 . S
C212 C213 1.394 . S
C212 H222 0.932 . S
C213 C209 1.308 . S
C213 C212 1.394 . S
C213 H223 0.929 . S
C214 Tb185 2.764 . S
C214 O198 1.239 . S
C214 O199 1.263 . S
C214 C208 1.504 . S
C215 O200 1.236 . S
C215 O201 1.257 . S
H216 C189 0.932 . S
H217 C190 0.930 . S
H218 C191 0.932 . S
H219 C192 0.929 . S
H220 C210 0.932 . S
H221 C211 0.930 . S
H222 C212 0.932 . S
H223 C213 0.929 . S
Tb224 C233 2.764 . S
Tb224 O234 2.325 . S
Tb224 O237 2.303 . S
Tb224 O241 2.322 1_455 S
Tb224 O242 2.349 . S
Tb224 O245 2.415 . S
Tb224 O246 2.399 . S
Tb225 O235 2.322 1_654 S
Tb225 O236 2.349 1_554 S
Tb225 O238 2.415 . S
Tb225 O239 2.399 . S
Tb225 O240 2.325 1_554 S
Tb225 O243 2.303 . S
Tb225 C254 2.764 . S
C226 O242 1.261 1_554 S
C226 O243 1.257 1_455 S
C227 C230 1.358 . S
C227 C231 1.332 . S
C227 C233 1.504 . S
C228 C229 1.373 . S
C228 C232 1.308 . S
C229 C228 1.373 . S
C229 C230 1.429 . S
C229 H256 0.932 . S
C230 C227 1.358 . S
C230 C229 1.429 . S
C230 H257 0.930 . S
C231 C227 1.332 . S
C231 C232 1.394 . S
C231 H258 0.932 . S
C232 C228 1.308 . S
C232 C231 1.394 . S
C232 H259 0.929 . S
C233 Tb224 2.764 . S
C233 C227 1.504 . S
C233 O245 1.239 . S
C233 O246 1.263 . S
O234 Tb224 2.325 . S
O234 C244 1.236 . S
O235 Tb225 2.322 1_456 S
O235 C244 1.257 . S
O236 Tb225 2.349 1_556 S
O236 C247 1.261 . S
O237 Tb224 2.303 . S
O237 C247 1.257 1_455 S
O238 Tb225 2.415 . S
O238 C254 1.239 . S
O239 Tb225 2.399 . S
O239 C254 1.263 . S
O240 Tb225 2.325 1_556 S
O240 C255 1.236 . S
O241 Tb224 2.322 1_655 S
O241 C255 1.257 . S
O242 Tb224 2.349 . S
O242 C226 1.261 1_556 S
O243 Tb225 2.303 . S
O243 C226 1.257 1_655 S
C244 O234 1.236 . S
C244 O235 1.257 . S
O245 Tb224 2.415 . S
O245 C233 1.239 . S
O246 Tb224 2.399 . S
O246 C233 1.263 . S
C247 O236 1.261 . S
C247 O237 1.257 1_655 S
C248 C251 1.358 . S
C248 C252 1.332 . S
C248 C254 1.504 . S
C249 C250 1.373 . S
C249 C253 1.308 . S
C250 C249 1.373 . S
C250 C251 1.429 . S
C250 H260 0.932 . S
C251 C248 1.358 . S
C251 C250 1.429 . S
C251 H261 0.930 . S
C252 C248 1.332 . S
C252 C253 1.394 . S
C252 H262 0.932 . S
C253 C249 1.308 . S
C253 C252 1.394 . S
C253 H263 0.929 . S
C254 Tb225 2.764 . S
C254 O238 1.239 . S
C254 O239 1.263 . S
C254 C248 1.504 . S
C255 O240 1.236 . S
C255 O241 1.257 . S
H256 C229 0.932 . S
H257 C230 0.930 . S
H258 C231 0.932 . S
H259 C232 0.929 . S
H260 C250 0.932 . S
H261 C251 0.930 . S
H262 C252 0.932 . S
H263 C253 0.929 . S
C264 C265 1.396 . S
C264 H268 0.950 . S
C264 C273 1.390 . S
C265 C264 1.396 . S
C265 C267 1.375 1_545 S
H266 C273 0.950 . S
C267 C265 1.375 1_565 S
C267 C269 1.390 . S
C267 H271 0.950 . S
H268 C264 0.950 . S
C269 C267 1.390 . S
C269 C270 1.387 1_565 S
C269 H272 0.950 . S
C270 C269 1.387 1_545 S
C270 C273 1.387 . S
H271 C267 0.950 . S
H272 C269 0.950 . S
C273 C264 1.390 . S
C273 H266 0.950 . S
C273 C270 1.387 . S
C274 C275 1.387 . S
C274 H278 0.950 . S
C274 C283 1.390 . S
C275 C274 1.387 . S
C275 C277 1.387 . S
H276 C283 0.950 1_554 S
C277 C275 1.387 . S
C277 C279 1.390 . S
C277 H281 0.950 . S
H278 C274 0.950 . S
C279 C277 1.390 . S
C279 C280 1.387 . S
C279 H282 0.950 . S
C280 C279 1.387 . S
C280 C283 1.387 . S
H281 C277 0.950 . S
H282 C279 0.950 . S
C283 C274 1.390 . S
C283 H276 0.950 1_556 S
C283 C280 1.387 . S
C284 C285 1.387 . S
C284 H288 0.950 . S
C284 C293 1.390 . S
C285 C284 1.387 . S
C285 C287 1.387 . S
H286 C293 0.950 . S
C287 C285 1.387 . S
C287 C289 1.390 . S
C287 H291 0.950 . S
H288 C284 0.950 . S
C289 C287 1.390 . S
C289 C290 1.387 . S
C289 H292 0.950 . S
C290 C289 1.387 . S
C290 C293 1.387 . S
H291 C287 0.950 . S
H292 C289 0.950 . S
C293 C284 1.390 . S
C293 H286 0.950 . S
C293 C290 1.387 . S
C294 C295 1.382 1_655 S
C294 H298 0.950 . S
C294 C303 1.390 . S
C295 C294 1.382 1_455 S
C295 C297 1.393 . S
H296 C303 0.950 . S
C297 C295 1.393 . S
C297 C299 1.390 . S
C297 H301 0.950 . S
H298 C294 0.950 . S
C299 C297 1.390 . S
C299 C300 1.413 . S
C299 H302 0.950 . S
C300 C299 1.413 . S
C300 C303 1.361 1_455 S
H301 C297 0.950 . S
H302 C299 0.950 . S
C303 C294 1.390 . S
C303 H296 0.950 . S
C303 C300 1.361 1_655 S
C304 C305 1.380 1_545 S
C304 H308 0.950 . S
C304 C313 1.390 . S
C305 C304 1.380 1_565 S
C305 C307 1.392 . S
H306 C313 0.950 . S
C307 C305 1.392 . S
C307 C309 1.390 . S
C307 H311 0.950 . S
H308 C304 0.950 . S
C309 C307 1.390 . S
C309 C310 1.404 . S
C309 H312 0.950 . S
C310 C309 1.404 . S
C310 C313 1.377 1_565 S
H311 C307 0.950 . S
H312 C309 0.950 . S
C313 C304 1.390 . S
C313 H306 0.950 . S
C313 C310 1.377 1_545 S
C314 C315 1.387 . S
C314 H318 0.950 . S
C314 C323 1.390 . S
C315 C314 1.387 . S
C315 C317 1.387 . S
H316 C323 0.950 . S
C317 C315 1.387 . S
C317 C319 1.390 . S
C317 H321 0.950 . S
H318 C314 0.950 . S
C319 C317 1.390 . S
C319 C320 1.387 . S
C319 H322 0.950 . S
C320 C319 1.387 . S
C320 C323 1.387 . S
H321 C317 0.950 . S
H322 C319 0.950 . S
C323 C314 1.390 . S
C323 H316 0.950 . S
C323 C320 1.387 . S
C324 C325 1.387 . S
C324 H328 0.950 . S
C324 C333 1.390 . S
C325 C324 1.387 . S
C325 C327 1.387 . S
H326 C333 0.950 . S
C327 C325 1.387 . S
C327 C329 1.390 . S
C327 H331 0.950 . S
H328 C324 0.950 . S
C329 C327 1.390 . S
C329 C330 1.387 . S
C329 H332 0.950 . S
C330 C329 1.387 . S
C330 C333 1.387 . S
H331 C327 0.950 . S
H332 C329 0.950 . S
C333 C324 1.390 . S
C333 H326 0.950 . S
C333 C330 1.387 . S
C334 C335 1.381 1_455 S
C334 H338 0.950 . S
C334 C343 1.390 . S
C335 C334 1.381 1_655 S
C335 C337 1.394 . S
H336 C343 0.950 . S
C337 C335 1.394 . S
C337 C339 1.390 . S
C337 H341 0.950 . S
H338 C334 0.950 . S
C339 C337 1.390 . S
C339 C340 1.413 . S
C339 H342 0.950 . S
C340 C339 1.413 . S
C340 C343 1.362 1_655 S
H341 C337 0.950 . S
H342 C339 0.950 . S
C343 C334 1.390 . S
C343 H336 0.950 . S
C343 C340 1.362 1_455 S
C344 C345 1.387 . S
C344 H348 0.950 . S
C344 C353 1.390 . S
C345 C344 1.387 . S
C345 C347 1.387 . S
H346 C353 0.950 . S
C347 C345 1.387 . S
C347 C349 1.390 . S
C347 H351 0.950 . S
H348 C344 0.950 . S
C349 C347 1.390 . S
C349 C350 1.387 . S
C349 H352 0.950 . S
C350 C349 1.387 . S
C350 C353 1.387 . S
H351 C347 0.950 . S
H352 C349 0.950 . S
C353 C344 1.390 . S
C353 H346 0.950 . S
C353 C350 1.387 . S
C354 C355 1.387 . S
C354 H358 0.950 . S
C354 C363 1.390 1_545 S
C355 C354 1.387 . S
C355 C357 1.387 1_545 S
H356 C363 0.950 . S
C357 C355 1.387 1_565 S
C357 C359 1.390 . S
C357 H361 0.950 . S
H358 C354 0.950 . S
C359 C357 1.390 . S
C359 C360 1.387 . S
C359 H362 0.950 . S
C360 C359 1.387 . S
C360 C363 1.387 . S
H361 C357 0.950 . S
H362 C359 0.950 . S
C363 C354 1.390 1_565 S
C363 H356 0.950 . S
C363 C360 1.387 . S
C364 C365 1.387 . S
C364 H368 0.950 1_556 S
C364 C373 1.390 . S
C365 C364 1.387 . S
C365 C367 1.387 . S
H366 C373 0.950 1_554 S
C367 C365 1.387 . S
C367 C369 1.390 . S
C367 H371 0.950 . S
H368 C364 0.950 1_554 S
C369 C367 1.390 . S
C369 C370 1.387 . S
C369 H372 0.950 . S
C370 C369 1.387 . S
C370 C373 1.387 . S
H371 C367 0.950 . S
H372 C369 0.950 . S
C373 C364 1.390 . S
C373 H366 0.950 1_556 S
C373 C370 1.387 . S
C374 C375 1.387 . S
C374 H378 0.950 . S
C374 C383 1.390 . S
C375 C374 1.387 . S
C375 C377 1.387 . S
H376 C383 0.950 . S
C377 C375 1.387 . S
C377 C379 1.390 . S
C377 H381 0.950 . S
H378 C374 0.950 . S
C379 C377 1.390 . S
C379 C380 1.387 . S
C379 H382 0.950 . S
C380 C379 1.387 . S
C380 C383 1.387 . S
H381 C377 0.950 . S
H382 C379 0.950 . S
C383 C374 1.390 . S
C383 H376 0.950 . S
C383 C380 1.387 . S
C384 C385 1.387 . S
C384 H388 0.950 . S
C384 C393 1.390 . S
C385 C384 1.387 . S
C385 C387 1.387 . S
H386 C393 0.950 . S
C387 C385 1.387 . S
C387 C389 1.390 . S
C387 H391 0.950 1_455 S
H388 C384 0.950 . S
C389 C387 1.390 . S
C389 C390 1.387 . S
C389 H392 0.950 . S
C390 C389 1.387 . S
C390 C393 1.387 . S
H391 C387 0.950 1_655 S
H392 C389 0.950 . S
C393 C384 1.390 . S
C393 H386 0.950 . S
C393 C390 1.387 . S
C394 C395 1.387 . S
C394 H398 0.950 . S
C394 C403 1.390 1_565 S
C395 C394 1.387 . S
C395 C397 1.387 1_565 S
H396 C403 0.950 . S
C397 C395 1.387 1_545 S
C397 C399 1.390 . S
C397 H401 0.950 . S
H398 C394 0.950 . S
C399 C397 1.390 . S
C399 C400 1.387 . S
C399 H402 0.950 . S
C400 C399 1.387 . S
C400 C403 1.387 . S
H401 C397 0.950 . S
H402 C399 0.950 . S
C403 C394 1.390 1_545 S
C403 H396 0.950 . S
C403 C400 1.387 . S
C404 C405 1.387 1_554 S
C404 H408 0.950 . S
C404 C413 1.390 . S
C405 C404 1.387 1_556 S
C405 C407 1.387 . S
H406 C413 0.950 . S
C407 C405 1.387 . S
C407 C409 1.390 . S
C407 H411 0.950 . S
H408 C404 0.950 . S
C409 C407 1.390 . S
C409 C410 1.387 . S
C409 H412 0.950 . S
C410 C409 1.387 . S
C410 C413 1.387 1_556 S
H411 C407 0.950 . S
H412 C409 0.950 . S
C413 C404 1.390 . S
C413 H406 0.950 . S
C413 C410 1.387 1_554 S
C414 C415 1.387 . S
C414 H418 0.950 . S
C414 C423 1.390 . S
C415 C414 1.387 . S
C415 C417 1.387 . S
H416 C423 0.950 . S
C417 C415 1.387 . S
C417 C419 1.390 . S
C417 H421 0.950 . S
H418 C414 0.950 . S
C419 C417 1.390 . S
C419 C420 1.387 . S
C419 H422 0.950 . S
C420 C419 1.387 . S
C420 C423 1.387 . S
H421 C417 0.950 . S
H422 C419 0.950 . S
C423 C414 1.390 . S
C423 H416 0.950 . S
C423 C420 1.387 . S
C424 C425 1.387 1_655 S
C424 H428 0.950 . S
C424 C433 1.390 . S
C425 C424 1.387 1_455 S
C425 C427 1.387 1_554 S
H426 C433 0.950 . S
C427 C425 1.387 1_556 S
C427 C429 1.390 . S
C427 H431 0.950 . S
H428 C424 0.950 . S
C429 C427 1.390 . S
C429 C430 1.387 1_556 S
C429 H432 0.950 . S
C430 C429 1.387 1_554 S
C430 C433 1.387 1_455 S
H431 C427 0.950 . S
H432 C429 0.950 . S
C433 C424 1.390 . S
C433 H426 0.950 . S
C433 C430 1.387 1_655 S
C434 C435 1.387 . S
C434 H438 0.950 . S
C434 C443 1.390 . S
C435 C434 1.387 . S
C435 C437 1.387 1_544 S
H436 C443 0.950 . S
C437 C435 1.387 1_566 S
C437 C439 1.390 . S
C437 H441 0.950 . S
H438 C434 0.950 . S
C439 C437 1.390 . S
C439 C440 1.387 1_566 S
C439 H442 0.950 . S
C440 C439 1.387 1_544 S
C440 C443 1.387 . S
H441 C437 0.950 . S
H442 C439 0.950 . S
C443 C434 1.390 . S
C443 H436 0.950 . S
C443 C440 1.387 . S
C444 C445 1.387 . S
C444 H448 0.950 . S
C444 C453 1.390 . S
C445 C444 1.387 . S
C445 C447 1.387 . S
H446 C453 0.950 . S
C447 C445 1.387 . S
C447 C449 1.390 . S
C447 H451 0.950 . S
H448 C444 0.950 . S
C449 C447 1.390 . S
C449 C450 1.387 . S
C449 H452 0.950 . S
C450 C449 1.387 . S
C450 C453 1.387 . S
H451 C447 0.950 . S
H452 C449 0.950 . S
C453 C444 1.390 . S
C453 H446 0.950 . S
C453 C450 1.387 . S
C454 C455 1.387 . S
C454 H458 0.950 . S
C454 C463 1.390 . S
C455 C454 1.387 . S
C455 C457 1.387 1_554 S
H456 C463 0.950 . S
C457 C455 1.387 1_556 S
C457 C459 1.390 . S
C457 H461 0.950 . S
H458 C454 0.950 . S
C459 C457 1.390 . S
C459 C460 1.387 . S
C459 H462 0.950 . S
C460 C459 1.387 . S
C460 C463 1.387 1_556 S
H461 C457 0.950 . S
H462 C459 0.950 . S
C463 C454 1.390 . S
C463 H456 0.950 . S
C463 C460 1.387 1_554 S
C464 C465 1.387 . S
C464 H468 0.950 . S
C464 C473 1.390 . S
C465 C464 1.387 . S
C465 C467 1.387 . S
H466 C473 0.950 . S
C467 C465 1.387 . S
C467 C469 1.390 . S
C467 H471 0.950 1_655 S
H468 C464 0.950 . S
C469 C467 1.390 . S
C469 C470 1.387 . S
C469 H472 0.950 . S
C470 C469 1.387 . S
C470 C473 1.387 . S
H471 C467 0.950 1_455 S
H472 C469 0.950 . S
C473 C464 1.390 . S
C473 H466 0.950 . S
C473 C470 1.387 . S
C474 C475 1.387 . S
C474 H478 0.950 . S
C474 C483 1.390 . S
C475 C474 1.387 . S
C475 C477 1.387 1_565 S
H476 C483 0.950 . S
C477 C475 1.387 1_545 S
C477 C479 1.390 . S
C477 H481 0.950 . S
H478 C474 0.950 . S
C479 C477 1.390 . S
C479 C480 1.387 1_545 S
C479 H482 0.950 . S
C480 C479 1.387 1_565 S
C480 C483 1.387 . S
H481 C477 0.950 . S
H482 C479 0.950 . S
C483 C474 1.390 . S
C483 H476 0.950 . S
C483 C480 1.387 . S
C484 C485 1.387 . S
C484 H488 0.950 . S
C484 C493 1.390 . S
C485 C484 1.387 . S
C485 C487 1.387 . S
H486 C493 0.950 . S
C487 C485 1.387 . S
C487 C489 1.390 . S
C487 H491 0.950 . S
H488 C484 0.950 . S
C489 C487 1.390 . S
C489 C490 1.387 . S
C489 H492 0.950 . S
C490 C489 1.387 . S
C490 C493 1.387 . S
H491 C487 0.950 . S
H492 C489 0.950 . S
C493 C484 1.390 . S
C493 H486 0.950 . S
C493 C490 1.387 . S
C494 C495 1.387 . S
C494 H498 0.950 . S
C494 C503 1.390 . S
C495 C494 1.387 . S
C495 C497 1.387 . S
H496 C503 0.950 . S
C497 C495 1.387 . S
C497 C499 1.390 . S
C497 H501 0.950 . S
H498 C494 0.950 . S
C499 C497 1.390 . S
C499 C500 1.387 . S
C499 H502 0.950 . S
C500 C499 1.387 . S
C500 C503 1.387 . S
H501 C497 0.950 . S
H502 C499 0.950 . S
C503 C494 1.390 . S
C503 H496 0.950 . S
C503 C500 1.387 . S
C265 N80 2.067 1_545 S
C270 C127 2.246 1_545 S
C280 C167 1.836 . S
C275 N93 1.830 . S
C290 C186 2.257 . S
C285 N54 2.078 . S
C300 C247 1.525 1_455 S
C295 N67 1.422 1_455 S
C310 C106 2.240 1_564 S
C305 N28 2.071 . S
C315 N41 1.843 . S
C320 C146 1.839 . S
C325 N2 2.087 . S
C330 C207 2.256 1_554 S
C335 N15 1.418 . S
C340 C226 1.524 1_655 S
C350 C108 1.164 . S
C345 N70 1.252 . S
C360 C148 0.610 . S
C355 N83 0.571 1_545 S
C370 C204 1.310 . S
C365 N96 1.287 . S
C375 N57 0.679 . S
C380 C228 0.685 . S
C385 N18 1.262 1_455 S
C390 C129 1.173 . S
C400 C169 0.604 . S
C395 N31 0.559 . S
C410 C215 1.310 . S
C405 N44 1.292 . S
C415 N5 0.678 . S
C420 C249 0.692 . S
C425 N66 1.768 1_455 S
C430 C124 1.830 1_554 S
C435 N79 2.479 1_545 S
C440 C164 2.577 1_554 S
C450 C188 1.687 . S
C445 N92 1.825 . S
C460 C244 2.564 . S
C455 N53 2.460 . S
C465 N14 1.756 . S
C470 C135 1.840 . S
C480 C175 2.577 . S
C475 N27 2.470 . S
C490 C209 1.688 . S
C485 N40 1.789 . S
C495 N1 2.471 . S
C500 C255 2.567 . S
