# Generated by pormake.
# Topology pyr, (3,6)-cn, num edge types: 1
# Building blocks:
#     Node 0, Type 0, BuildingBlock: BETDIP_clean_linker_0, # of connection points: 3
#     Node 1, Type 0, BuildingBlock: BETDIP_clean_linker_0, # of connection points: 3
#     Node 2, Type 0, BuildingBlock: BETDIP_clean_linker_0, # of connection points: 3
#     Node 3, Type 0, BuildingBlock: BETDIP_clean_linker_0, # of connection points: 3
#     Node 4, Type 0, BuildingBlock: BETDIP_clean_linker_0, # of connection points: 3
#     Node 5, Type 0, BuildingBlock: BETDIP_clean_linker_0, # of connection points: 3
#     Node 6, Type 0, BuildingBlock: BETDIP_clean_linker_0, # of connection points: 3
#     Node 7, Type 0, BuildingBlock: BETDIP_clean_linker_0, # of connection points: 3
#     Node 8, Type 1, BuildingBlock: FUNLAD_clean_sbu_0, # of connection points: 6
#     Node 9, Type 1, BuildingBlock: FUNLAD_clean_sbu_0, # of connection points: 6
#     Node 10, Type 1, BuildingBlock: FUNLAD_clean_sbu_0, # of connection points: 6
#     Node 11, Type 1, BuildingBlock: FUNLAD_clean_sbu_0, # of connection points: 6
#     Edge 12, Type (0, 1), BuildingBlock: CIFDUS_clean_linker_0, # of connection points: 2
#     Edge 13, Type (0, 1), BuildingBlock: CIFDUS_clean_linker_0, # of connection points: 2
#     Edge 14, Type (0, 1), BuildingBlock: CIFDUS_clean_linker_0, # of connection points: 2
#     Edge 15, Type (0, 1), BuildingBlock: CIFDUS_clean_linker_0, # of connection points: 2
#     Edge 16, Type (0, 1), BuildingBlock: CIFDUS_clean_linker_0, # of connection points: 2
#     Edge 17, Type (0, 1), BuildingBlock: CIFDUS_clean_linker_0, # of connection points: 2
#     Edge 18, Type (0, 1), BuildingBlock: CIFDUS_clean_linker_0, # of connection points: 2
#     Edge 19, Type (0, 1), BuildingBlock: CIFDUS_clean_linker_0, # of connection points: 2
#     Edge 20, Type (0, 1), BuildingBlock: CIFDUS_clean_linker_0, # of connection points: 2
#     Edge 21, Type (0, 1), BuildingBlock: CIFDUS_clean_linker_0, # of connection points: 2
#     Edge 22, Type (0, 1), BuildingBlock: CIFDUS_clean_linker_0, # of connection points: 2
#     Edge 23, Type (0, 1), BuildingBlock: CIFDUS_clean_linker_0, # of connection points: 2
#     Edge 24, Type (0, 1), BuildingBlock: CIFDUS_clean_linker_0, # of connection points: 2
#     Edge 25, Type (0, 1), BuildingBlock: CIFDUS_clean_linker_0, # of connection points: 2
#     Edge 26, Type (0, 1), BuildingBlock: CIFDUS_clean_linker_0, # of connection points: 2
#     Edge 27, Type (0, 1), BuildingBlock: CIFDUS_clean_linker_0, # of connection points: 2
#     Edge 28, Type (0, 1), BuildingBlock: CIFDUS_clean_linker_0, # of connection points: 2
#     Edge 29, Type (0, 1), BuildingBlock: CIFDUS_clean_linker_0, # of connection points: 2
#     Edge 30, Type (0, 1), BuildingBlock: CIFDUS_clean_linker_0, # of connection points: 2
#     Edge 31, Type (0, 1), BuildingBlock: CIFDUS_clean_linker_0, # of connection points: 2
#     Edge 32, Type (0, 1), BuildingBlock: CIFDUS_clean_linker_0, # of connection points: 2
#     Edge 33, Type (0, 1), BuildingBlock: CIFDUS_clean_linker_0, # of connection points: 2
#     Edge 34, Type (0, 1), BuildingBlock: CIFDUS_clean_linker_0, # of connection points: 2
#     Edge 35, Type (0, 1), BuildingBlock: CIFDUS_clean_linker_0, # of connection points: 2
# Relax obj value: 0.229
# Max RMSD: 0.201
# Mean RMSD: 0.135
data_MOF--net-pry--node1-FUNLAD_clean_sbu_0--node2-BETDIP_clean_linker_0--edge1-CIFDUS_clean_linker_0
_symmetry_space_group_name_H-M    P1
_symmetry_Int_Tables_number       1
_symmetry_cell_setting            triclinic
loop_
_symmetry_equiv_pos_as_xyz
'x, y, z'
_cell_length_a     30.236714
_cell_length_b     32.16259
_cell_length_c     33.376157
_cell_angle_alpha  94.474508
_cell_angle_beta   85.069
_cell_angle_gamma 87.831888
loop_
_atom_site_label
_atom_site_type_symbol
_atom_site_fract_x
_atom_site_fract_y
_atom_site_fract_z
_atom_type_partial_charge
H0 H 0.10015 0.21144 0.28051 0.0
H1 H 0.18969 0.20021 0.17347 0.0
H2 H 0.20163 0.11201 0.26322 0.0
H3 H 0.12273 0.21668 0.14665 0.0
C4 C 0.11349 0.24444 0.16679 0.0
C5 C 0.12801 0.19516 0.26256 0.0
C6 C 0.14976 0.16041 0.27721 0.0
C7 C 0.14096 0.20832 0.22427 0.0
C8 C 0.17769 0.18781 0.20139 0.0
C9 C 0.19981 0.15258 0.21438 0.0
C10 C 0.18522 0.13895 0.25249 0.0
N11 N 0.11721 0.24227 0.20902 0.0
H12 H 0.36614 0.93452 0.78013 0.0
H13 H 0.37444 0.8444 0.67785 0.0
H14 H 0.46115 0.8299 0.77185 0.0
H15 H 0.3078 0.86815 0.66964 0.0
C16 C 0.30446 0.90067 0.68122 0.0
C17 C 0.38185 0.90649 0.76409 0.0
C18 C 0.41593 0.88441 0.78102 0.0
C19 C 0.36622 0.8922 0.72731 0.0
C20 C 0.38589 0.85548 0.70633 0.0
C21 C 0.42005 0.83233 0.72194 0.0
C22 C 0.43462 0.84705 0.75962 0.0
N23 N 0.33086 0.91565 0.71231 0.0
H24 H 0.66701 0.53672 0.96645 0.0
H25 H 0.55966 0.45397 0.98353 0.0
H26 H 0.68578 0.42463 1.0264 0.0
H27 H 0.52233 0.49349 0.94893 0.0
C28 C 0.54419 0.51434 0.93371 0.0
C29 C 0.65379 0.50892 0.97846 0.0
C30 C 0.68113 0.48244 0.99822 0.0
C31 C 0.60993 0.49909 0.97274 0.0
C32 C 0.5933 0.46239 0.98745 0.0
C33 C 0.62038 0.43526 1.00672 0.0
C34 C 0.66411 0.4459 1.01264 0.0
N35 N 0.58532 0.52459 0.94876 0.0
H36 H 0.88146 0.51844 0.50843 0.0
H37 H 0.97759 0.60828 0.47769 0.0
H38 H 0.84032 0.6477 0.50691 0.0
H39 H 0.03156 0.51111 0.45458 0.0
C40 C 0.99907 0.52552 0.45169 0.0
C41 C 0.88946 0.55058 0.50484 0.0
C42 C 0.85554 0.58202 0.50836 0.0
C43 C 0.93331 0.55997 0.49322 0.0
C44 C 0.94365 0.60133 0.48702 0.0
C45 C 0.9103 0.63332 0.49172 0.0
C46 C 0.8664 0.6233 0.50268 0.0
N47 N 0.96637 0.52715 0.48519 0.0
H48 H 0.84117 0.90108 0.94721 0.0
H49 H 0.93786 0.87605 0.84571 0.0
H50 H 0.83239 0.96987 0.84242 0.0
H51 H 0.9523 0.81463 0.87691 0.0
C52 C 0.93917 0.81899 0.90833 0.0
C53 C 0.85338 0.90748 0.91692 0.0
C54 C 0.83108 0.93763 0.89686 0.0
C55 C 0.89084 0.88441 0.89878 0.0
C56 C 0.90824 0.89302 0.85974 0.0
C57 C 0.88806 0.92499 0.83942 0.0
C58 C 0.84925 0.94678 0.85834 0.0
N59 N 0.90926 0.85348 0.92187 0.0
H60 H 0.66951 0.13581 0.33936 0.0
H61 H 0.6607 0.2281 0.44 0.0
H62 H 0.57025 0.23695 0.3481 0.0
H63 H 0.72763 0.20499 0.44924 0.0
C64 C 0.7323 0.17275 0.43696 0.0
C65 C 0.65333 0.16374 0.35521 0.0
C66 C 0.61775 0.18415 0.33882 0.0
C67 C 0.66957 0.17944 0.39126 0.0
C68 C 0.649 0.21595 0.41195 0.0
C69 C 0.61308 0.23724 0.39683 0.0
C70 C 0.59808 0.22124 0.35986 0.0
N71 N 0.70608 0.15726 0.40591 0.0
H72 H 0.38756 0.51059 0.08778 0.0
H73 H 0.48176 0.6 0.12321 0.0
H74 H 0.35181 0.64194 0.09649 0.0
H75 H 0.53809 0.50213 0.11448 0.0
C76 C 0.50872 0.51984 0.12845 0.0
C77 C 0.39585 0.5428 0.09402 0.0
C78 C 0.36405 0.57526 0.09143 0.0
C79 C 0.43812 0.55147 0.10587 0.0
C80 C 0.44903 0.59314 0.11444 0.0
C81 C 0.41775 0.62602 0.11193 0.0
C82 C 0.37556 0.61671 0.10004 0.0
N83 N 0.46934 0.51769 0.10799 0.0
H84 H 0.03415 0.48031 0.63306 0.0
H85 H 0.14273 0.55934 0.60811 0.0
H86 H 0.16719 0.42675 0.60756 0.0
H87 H 0.99437 0.5817 0.66318 0.0
C88 C 0.02575 0.56452 0.66441 0.0
C89 C 0.06927 0.48365 0.62515 0.0
C90 C 0.09854 0.44837 0.62036 0.0
C91 C 0.08519 0.52361 0.62065 0.0
C92 C 0.13052 0.52832 0.61066 0.0
C93 C 0.16039 0.49349 0.60742 0.0
C94 C 0.14413 0.45369 0.61168 0.0
N95 N 0.05619 0.55949 0.62924 0.0
C96 C 0.06262 0.05884 0.48225 0.0
N97 N 0.045 0.12506 0.59688 0.0
C98 C 0.08703 0.13832 0.59068 0.0
C99 C 0.09685 0.17869 0.60434 0.0
C100 C 0.06292 0.20572 0.62403 0.0
C101 C 0.02018 0.19086 0.63119 0.0
C102 C 0.01196 0.15004 0.6175 0.0
Zn103 Zn 0.03066 0.06835 0.57141 0.0
C104 C 0.94201 0.07398 0.53472 0.0
N105 N 0.99848 0.95122 0.51709 0.0
C106 C 0.03232 0.92721 0.49652 0.0
C107 C 0.95784 0.93572 0.52567 0.0
C108 C 0.95079 0.89375 0.51549 0.0
C109 C 0.9861 0.86763 0.49679 0.0
C110 C 0.02689 0.88498 0.48622 0.0
Zn111 Zn 0.0119 1.00839 0.54215 0.0
O112 O 0.06295 0.0836 0.51394 0.0
C113 C 0.1003 1.00267 0.57891 0.0
O114 O 0.04407 1.02414 0.4852 0.0
H115 H 0.93159 0.95536 0.54234 0.0
H116 H 0.11265 0.11803 0.57393 0.0
H117 H 0.06433 0.94025 0.48996 0.0
O118 O 0.09177 0.0413 0.58877 0.0
O119 O 0.07308 0.98247 0.55885 0.0
H120 H 0.97885 0.13872 0.62225 0.0
O121 O 0.98027 0.99286 0.60001 0.0
O122 O 0.99796 0.05308 0.62802 0.0
O123 O 0.95031 0.03516 0.52539 0.0
O124 O 0.96959 0.09448 0.55418 0.0
C125 C 0.98008 1.01814 0.63139 0.0
H126 H 0.13009 0.18931 0.59782 0.0
H127 H 0.99327 0.2109 0.6464 0.0
H128 H 0.91896 0.88133 0.52445 0.0
H129 H 0.05472 0.86577 0.47151 0.0
C130 C 0.59915 1.00699 1.02617 0.0
N131 N 0.52503 0.12111 1.035 0.0
C132 C 0.56452 0.13798 1.04187 0.0
C133 C 0.57178 0.17931 1.03486 0.0
C134 C 0.53809 0.20384 1.02067 0.0
C135 C 0.49791 0.18551 1.01282 0.0
C136 C 0.49196 0.14377 1.02041 0.0
Zn137 Zn 0.51758 0.06193 0.05148 0.0
C138 C 0.48069 1.00443 0.98932 0.0
N139 N 0.50675 0.93977 0.09062 0.0
C140 C 0.52138 0.90929 0.06142 0.0
C141 C 0.48976 0.93026 0.12772 0.0
C142 C 0.48654 0.88847 0.1363 0.0
C143 C 0.50134 0.85651 0.10644 0.0
C144 C 0.51905 0.86748 0.06871 0.0
Zn145 Zn 0.51133 0.9995 0.07457 0.0
O146 O 0.58398 0.04389 1.02293 0.0
C147 C 0.54814 0.05744 0.13636 0.0
O148 O 0.57575 0.9832 0.047 0.0
H149 H 0.47834 0.95502 0.15049 0.0
H150 H 0.59035 0.11953 0.05357 0.0
H151 H 0.53444 0.9173 1.03199 0.0
O152 O 0.54341 0.0813 0.10823 0.0
O153 O 0.53848 1.01932 0.13056 0.0
H154 H 0.46075 0.12974 1.01539 0.0
O155 O 0.44693 1.01665 0.10324 0.0
O156 O 0.45117 0.07857 0.0799 0.0
O157 O 0.48424 0.98036 1.01757 0.0
O158 O 0.49132 0.04226 0.99534 0.0
C159 C 0.42993 0.05305 0.10086 0.0
H160 H 0.60357 0.19194 1.04053 0.0
H161 H 0.47107 0.20347 1.00192 0.0
H162 H 0.47264 0.88123 0.1658 0.0
H163 H 0.52988 0.84393 1.04451 0.0
C164 C 0.52079 0.46562 0.49372 0.0
N165 N 0.51914 0.51436 0.61573 0.0
C166 C 0.49256 0.48613 0.63278 0.0
C167 C 0.49389 0.47933 0.67351 0.0
C168 C 0.52357 0.50111 0.69677 0.0
C169 C 0.55257 0.52796 0.67747 0.0
C170 C 0.54924 0.5347 0.63711 0.0
Zn171 Zn 0.50923 0.5331 0.55991 0.0
C172 C 0.59331 0.56003 0.51712 0.0
N173 N 0.48764 0.5778 0.44546 0.0
C174 C 0.45777 0.55461 0.42635 0.0
C175 C 0.51226 0.60565 0.42551 0.0
C176 C 0.50827 0.60968 0.38437 0.0
C177 C 0.47823 0.58527 0.36404 0.0
C178 C 0.45219 0.55821 0.38588 0.0
Zn179 Zn 0.49882 0.56072 0.50208 0.0
O180 O 0.52164 0.47024 0.53192 0.0
C181 C 0.41436 0.53478 0.54453 0.0
O182 O 0.51142 0.4975 0.47516 0.0
H183 H 0.53636 0.62333 0.44092 0.0
H184 H 0.46887 0.47017 0.61534 0.0
H185 H 0.43976 0.53131 0.44175 0.0
O186 O 0.4402 0.52305 0.56991 0.0
O187 O 0.43053 0.55123 0.51358 0.0
H188 H 0.56968 0.55751 0.6234 0.0
O189 O 0.48715 0.62347 0.53035 0.0
O190 O 0.49692 0.5963 0.58741 0.0
O191 O 0.56691 0.57083 0.49181 0.0
O192 O 0.57805 0.54351 0.54852 0.0
C193 C 0.48831 0.62823 0.56862 0.0
H194 H 0.47054 0.45854 0.68683 0.0
H195 H 0.57704 0.54452 0.69349 0.0
H196 H 0.52915 0.63077 0.36842 0.0
H197 H 0.42952 0.53799 0.37123 0.0
C198 C 1.00287 0.61594 1.02252 0.0
N199 N 0.99221 0.58139 0.1441 0.0
C200 C 0.01521 0.61266 0.16125 0.0
C201 C 0.01516 0.61836 0.2033 0.0
C202 C 0.99123 0.59161 0.22767 0.0
C203 C 0.96489 0.56211 0.20903 0.0
C204 C 0.96592 0.5575 0.1672 0.0
Zn205 Zn 1.00713 0.55786 0.08548 0.0
C206 C 0.92954 0.52236 0.04971 0.0
N207 N 0.04307 0.49858 0.96836 0.0
C208 C 0.07056 0.52148 0.94534 0.0
C209 C 0.01818 0.46886 0.95117 0.0
C210 C 0.01692 0.46442 0.90925 0.0
C211 C 0.04144 0.4909 0.88506 0.0
C212 C 0.07024 0.51817 0.90355 0.0
Zn213 Zn 0.02791 0.5221 1.02682 0.0
O214 O 0.99332 0.6174 0.06063 0.0
C215 C 0.10511 0.55794 0.06409 0.0
O216 O 0.01766 0.58149 1.00411 0.0
H217 H 0.99642 0.45105 0.97001 0.0
H218 H 0.03623 0.63111 0.14241 0.0
H219 H 0.08942 0.54553 0.95945 0.0
O220 O 0.07364 0.57272 0.08939 0.0
O221 O 0.09622 0.53439 1.03368 0.0
H222 H 0.9488 0.53206 0.15329 0.0
O223 O 0.03834 0.46289 0.05006 0.0
O224 O 0.02195 0.498 0.10872 0.0
O225 O 0.95918 0.51035 1.02141 0.0
O226 O 0.94063 0.54263 0.08112 0.0
C227 C 0.03404 0.46365 0.0884 0.0
H228 H 0.03552 0.64188 0.21642 0.0
H229 H 0.94654 0.54018 0.2262 0.0
H230 H 0.99487 0.44241 0.89621 0.0
H231 H 0.08935 0.53968 0.88648 0.0
H232 H 0.13488 0.08125 0.30036 0.0
H233 H 0.13232 0.21009 0.34749 0.0
H234 H 0.10731 0.19033 0.41467 0.0
H235 H 0.0843 0.13666 0.46038 0.0
H236 H 0.08356 1.00812 0.41285 0.0
H237 H 0.11181 0.02739 0.34627 0.0
C238 C 0.12919 0.10497 0.32539 0.0
C239 C 0.13553 0.14724 0.31853 0.0
C240 C 0.11408 0.09339 0.36419 0.0
C241 C 0.12737 0.17745 0.3515 0.0
C242 C 0.11318 0.16612 0.39011 0.0
C243 C 0.09061 0.11276 0.43556 0.0
C244 C 0.08184 0.07084 0.44201 0.0
C245 C 0.10613 0.12422 0.39687 0.0
C246 C 0.08988 0.04057 0.40909 0.0
C247 C 0.10607 0.05161 0.37083 0.0
H248 H 0.42599 0.96565 0.81069 0.0
H249 H 0.43869 0.83888 0.84347 0.0
H250 H 0.45878 0.86427 0.91018 0.0
H251 H 0.47178 0.92277 0.96026 0.0
H252 H 0.4589 0.04932 0.92689 0.0
H253 H 0.43908 1.02374 0.86025 0.0
C254 C 0.43279 0.9434 0.8324 0.0
C255 C 0.43055 0.90014 0.8215 0.0
C256 C 0.44403 0.95829 0.8711 0.0
C257 C 0.44054 0.8722 0.85029 0.0
C258 C 0.45172 0.88678 0.88879 0.0
C259 C 0.46434 0.94483 0.93855 0.0
C260 C 0.46665 0.98815 0.94911 0.0
C261 C 0.45336 0.9298 0.89971 0.0
C262 C 0.45736 1.01595 0.92005 0.0
C263 C 0.44606 1.00129 0.88172 0.0
H264 H 0.51572 0.45809 0.87921 0.0
H265 H 0.5605 0.58349 0.8938 0.0
H266 H 0.55534 0.59124 0.82183 0.0
H267 H 0.54009 0.56153 0.75512 0.0
H268 H 0.50552 0.43244 0.73885 0.0
H269 H 0.5037 0.42721 0.81137 0.0
C270 C 0.52381 0.4872 0.86651 0.0
C271 C 0.53796 0.52038 0.89137 0.0
C272 C 0.52269 0.49065 0.82497 0.0
C273 C 0.54933 0.55772 0.87492 0.0
C274 C 0.5465 0.56205 0.8339 0.0
C275 C 0.53301 0.53187 0.76704 0.0
C276 C 0.52313 0.49741 0.74107 0.0
C277 C 0.53382 0.52848 0.80858 0.0
C278 C 0.51261 0.45979 0.75783 0.0
C279 C 0.51187 0.4566 0.79938 0.0
H280 H 0.05697 0.55634 0.39655 0.0
H281 H 0.91938 0.52706 0.41814 0.0
H282 H 0.90363 0.55191 0.35361 0.0
H283 H 0.92966 0.57744 0.2891 0.0
H284 H 0.06865 0.60045 0.26401 0.0
H285 H 0.08273 0.58422 0.33207 0.0
C286 C 0.02357 0.55567 0.38705 0.0
C287 C 0.98928 0.5408 0.41244 0.0
C288 C 0.01487 0.56923 0.34934 0.0
C289 C 0.94614 0.53963 0.3998 0.0
C290 C 0.93713 0.55354 0.3627 0.0
C291 C 0.96304 0.57909 0.29851 0.0
C292 C 0.99801 0.58984 0.27119 0.0
C293 C 0.97132 0.56794 0.33704 0.0
C294 C 0.04086 0.59276 0.28437 0.0
C295 C 0.04914 0.58287 0.32318 0.0
H296 H 0.27583 0.11228 0.23609 0.0
H297 H 0.21062 0.14323 0.13135 0.0
H298 H 0.27583 0.1178 0.08763 0.0
H299 H 0.35321 0.08853 0.07833 0.0
H300 H 0.41473 0.04875 0.18139 0.0
H301 H 0.34943 0.07502 0.22602 0.0
C302 C 0.27532 0.11288 0.20372 0.0
C303 C 0.23824 0.13128 0.18768 0.0
C304 C 0.31271 0.09658 0.1781 0.0
C305 C 0.23895 0.13121 0.14529 0.0
C306 C 0.27629 0.1162 0.11991 0.0
C307 C 0.35207 0.0855 0.11054 0.0
C308 C 0.38879 0.06709 0.12663 0.0
C309 C 0.31371 0.09943 0.13593 0.0
C310 C 0.38676 0.06281 0.16834 0.0
C311 C 0.34945 0.0779 0.19388 0.0
H312 H 0.25181 0.87789 0.62324 0.0
H313 H 0.2785 0.98315 0.70421 0.0
H314 H 0.21912 1.02481 0.67846 0.0
H315 H 0.15768 0.03046 0.63394 0.0
H316 H 0.13181 0.92379 0.55387 0.0
H317 H 0.19272 0.88394 0.57798 0.0
C318 C 0.2447 0.91002 0.63519 0.0
C319 C 0.26943 0.92728 0.66568 0.0
C320 C 0.21055 0.93365 0.6203 0.0
C321 C 0.25994 0.969 0.68079 0.0
C322 C 0.22594 0.99285 0.66604 0.0
C323 C 0.16565 0.99864 0.62152 0.0
C324 C 0.13993 0.98028 0.59208 0.0
C325 C 0.20079 0.97543 0.6359 0.0
C326 C 0.15074 0.93885 0.57656 0.0
C327 C 0.18564 0.91589 0.59038 0.0
H328 H 0.725 0.48783 0.06569 0.0
H329 H 0.74299 0.49604 0.93712 0.0
H330 H 0.82223 0.50715 0.94118 0.0
H331 H 0.88649 0.51441 0.98156 0.0
H332 H 0.86706 0.5111 0.11079 0.0
H333 H 0.78849 0.49789 0.10633 0.0
C334 C 0.74641 0.49213 1.03867 0.0
C335 C 0.72847 0.49115 1.0012 0.0
C336 C 0.79164 0.49915 1.04136 0.0
C337 C 0.75621 0.49705 0.96632 0.0
C338 C 0.80146 0.50317 0.96861 0.0
C339 C 0.86501 0.51055 1.00864 0.0
C340 C 0.88245 0.51339 0.04638 0.0
C341 C 0.81958 0.50417 1.00597 0.0
C342 C 0.85426 0.50902 0.08138 0.0
C343 C 0.80939 0.50148 0.07887 0.0
H344 H 0.78916 0.60672 0.46568 0.0
H345 H 0.81638 0.5343 0.56485 0.0
H346 H 0.73716 0.52071 0.57635 0.0
H347 H 0.66009 0.53134 0.55899 0.0
H348 H 0.63429 0.60366 0.45905 0.0
H349 H 0.71321 0.61578 0.44733 0.0
C350 C 0.77767 0.58816 0.48998 0.0
C351 C 0.80826 0.57194 0.51475 0.0
C352 C 0.73245 0.58065 0.49632 0.0
C353 C 0.79328 0.54708 0.54547 0.0
C354 C 0.74807 0.53951 0.55211 0.0
C355 C 0.67175 0.54976 0.53467 0.0
C356 C 0.6413 0.56674 0.51006 0.0
C357 C 0.71732 0.55644 0.52788 0.0
C358 C 0.65697 0.59026 0.47846 0.0
C359 C 0.7021 0.59724 0.47172 0.0
H360 H 0.08306 0.32241 0.20302 0.0
H361 H 0.10896 0.25151 0.08773 0.0
H362 H 0.08604 0.31172 0.05327 0.0
H363 H 0.06007 0.3851 0.0551 0.0
H364 H 0.03309 0.45686 0.16988 0.0
H365 H 0.05457 0.39627 0.20487 0.0
C366 C 0.08354 0.3202 0.17042 0.0
C367 C 0.09787 0.28238 0.14802 0.0
C368 C 0.07005 0.35527 0.15048 0.0
C369 C 0.09814 0.28016 0.10574 0.0
C370 C 0.08503 0.31465 0.08591 0.0
C371 C 0.05864 0.38753 0.08778 0.0
C372 C 0.04497 0.42576 0.1096 0.0
C373 C 0.0711 0.35246 0.10786 0.0
C374 C 0.04341 0.42798 0.15206 0.0
C375 C 0.05582 0.39325 0.17222 0.0
H376 H 0.57331 0.3819 0.96174 0.0
H377 H 0.63166 0.39609 0.07533 0.0
H378 H 0.6091 0.32639 0.09054 0.0
H379 H 0.57535 0.26068 0.07031 0.0
H380 H 0.51754 0.24647 0.95652 0.0
H381 H 0.53592 0.31781 0.94328 0.0
C382 C 0.58037 0.37012 0.9902 0.0
C383 C 0.60417 0.39417 1.01738 0.0
C384 C 0.56727 0.33018 0.99873 0.0
C385 C 0.61383 0.37802 0.05372 0.0
C386 C 0.60078 0.33829 0.0625 0.0
C387 C 0.56682 0.27321 1.04258 0.0
C388 C 0.54552 0.24822 1.01422 0.0
C389 C 0.57801 0.31393 1.03497 0.0
C390 C 0.53375 0.26514 0.97888 0.0
C391 C 0.54453 0.30579 0.97118 0.0
H392 H 0.98318 0.67448 0.5123 0.0
H393 H 0.86137 0.69066 0.45542 0.0
H394 H 0.87506 0.76431 0.45019 0.0
H395 H 0.91951 0.82512 0.46538 0.0
H396 H 0.04256 0.80813 0.51974 0.0
H397 H 0.03125 0.73345 0.52103 0.0
C398 C 0.96002 0.69382 0.49802 0.0
C399 C 0.9209 0.67711 0.485 0.0
C400 C 0.96839 0.73602 0.49449 0.0
C401 C 0.89114 0.70291 0.46682 0.0
C402 C 0.89908 0.745 0.46349 0.0
C403 C 0.94396 0.80488 0.47711 0.0
C404 C 0.98165 0.82194 0.49255 0.0
C405 C 0.93717 0.76205 0.47791 0.0
C406 C 0.01344 0.79553 0.50735 0.0
C407 C 1.00684 0.75293 0.5084 0.0
H408 H 0.43687 0.81471 0.63966 0.0
H409 H 0.44513 0.75848 0.75222 0.0
H410 H 0.46868 0.69162 0.71518 0.0
H411 H 0.48284 0.64765 0.6507 0.0
H412 H 0.47131 0.70361 0.53844 0.0
H413 H 0.45236 0.77138 0.5755 0.0
C414 C 0.44348 0.78789 0.65632 0.0
C415 C 0.43866 0.79214 0.69908 0.0
C416 C 0.45612 0.74907 0.63474 0.0
C417 C 0.44878 0.7568 0.71957 0.0
C418 C 0.46191 0.71825 0.6983 0.0
C419 C 0.47639 0.67466 0.63422 0.0
C420 C 0.47847 0.6701 0.59154 0.0
C421 C 0.4651 0.7138 0.65586 0.0
C422 C 0.46994 0.70578 0.57107 0.0
C423 C 0.45907 0.74471 0.59233 0.0
H424 H 0.90024 1.00231 0.81198 0.0
H425 H 0.91777 0.87113 0.77378 0.0
H426 H 0.94588 0.88786 0.70617 0.0
H427 H 0.96566 0.94008 0.65727 0.0
H428 H 0.95129 0.07112 0.69708 0.0
H429 H 0.92153 0.05419 0.76394 0.0
C430 C 0.91003 0.97732 0.78884 0.0
C431 C 0.90664 0.9354 0.79825 0.0
C432 C 0.92666 0.98721 0.74997 0.0
C433 C 0.92024 0.90361 0.76779 0.0
C434 C 0.93614 0.9132 0.72892 0.0
C435 C 0.95574 0.96494 0.68049 0.0
C436 C 0.96052 1.00695 0.67176 0.0
C437 C 0.93946 0.95492 0.71953 0.0
C438 C 0.94804 0.03859 0.70265 0.0
C439 C 0.93099 0.02891 0.74105 0.0
H440 H 0.60781 0.10202 0.31236 0.0
H441 H 0.59284 0.22714 0.27574 0.0
H442 H 0.57093 0.19934 0.21045 0.0
H443 H 0.55704 0.13941 0.16287 0.0
H444 H 0.57132 1.01433 0.19978 0.0
H445 H 0.59312 0.04216 0.26515 0.0
C446 C 0.60003 0.12332 0.29009 0.0
C447 C 0.60221 0.16686 0.29938 0.0
C448 C 0.58757 0.10704 0.25229 0.0
C449 C 0.59107 0.19367 0.27002 0.0
C450 C 0.57883 0.17771 0.23239 0.0
C451 C 0.56511 0.11812 0.18509 0.0
C452 C 0.56273 0.0746 0.17597 0.0
C453 C 0.57715 0.13444 0.22305 0.0
C454 C 0.57293 0.04782 0.2056 0.0
C455 C 0.58536 0.06378 0.24315 0.0
H456 H 0.43826 0.54333 0.1848 0.0
H457 H 0.58146 0.5355 0.16759 0.0
H458 H 0.5854 0.56025 0.23835 0.0
H459 H 0.54784 0.5784 0.30629 0.0
H460 H 0.40465 0.5874 0.32234 0.0
H461 H 0.40102 0.56958 0.25026 0.0
C462 C 0.47039 0.5482 0.19596 0.0
C463 C 0.50961 0.53807 0.1707 0.0
C464 C 0.47237 0.56278 0.23651 0.0
C465 C 0.55082 0.54321 0.18646 0.0
C466 C 0.5531 0.55743 0.22686 0.0
C467 C 0.51592 0.57764 0.29379 0.0
C468 C 0.47658 0.5839 0.31964 0.0
C469 C 0.51406 0.5667 0.25235 0.0
C470 C 0.43539 0.58229 0.30307 0.0
C471 C 0.43329 0.57193 0.26191 0.0
H472 H 0.9686 0.53565 0.72146 0.0
H473 H 0.10712 0.55839 0.69413 0.0
H474 H 0.12499 0.53112 0.75711 0.0
H475 H 0.10087 0.50487 0.82182 0.0
H476 H 0.96145 0.48767 0.85238 0.0
H477 H 0.94464 0.50711 0.78603 0.0
C478 C 1.00264 0.53441 0.7294 0.0
C479 C 0.03655 0.54812 0.70288 0.0
C480 C 0.01263 0.51931 0.76614 0.0
C481 C 0.08056 0.54677 0.71343 0.0
C482 C 0.0908 0.53146 0.74963 0.0
C483 C 0.0668 0.50518 0.81397 0.0
C484 C 0.03257 0.49502 0.84232 0.0
C485 C 0.05705 0.51803 0.77639 0.0
C486 C 0.9887 0.49476 0.83115 0.0
C487 C 0.97889 0.5065 0.79333 0.0
H488 H 0.76564 0.9012 0.94084 0.0
H489 H 0.79907 1.01963 0.89677 0.0
H490 H 0.73043 0.05207 0.93238 0.0
H491 H 0.66126 0.04681 0.97825 0.0
H492 H 0.6331 0.92762 1.024 0.0
H493 H 0.69985 0.89622 0.98668 0.0
C494 C 0.75857 0.93432 0.93937 0.0
C495 C 0.7882 0.95788 0.91644 0.0
C496 C 0.71989 0.9529 0.96072 0.0
C497 C 0.77705 1.00047 0.91395 0.0
C498 C 0.73788 1.01916 0.93464 0.0
C499 C 0.66992 1.01406 0.98019 0.0
C500 C 0.64186 0.98985 1.00423 0.0
C501 C 0.70912 0.99574 0.95852 0.0
C502 C 0.65376 0.94733 1.00611 0.0
C503 C 0.69203 0.9291 0.98457 0.0
H504 H 0.78697 0.19689 0.49311 0.0
H505 H 0.75957 0.09069 0.4136 0.0
H506 H 0.82069 0.05011 0.43786 0.0
H507 H 0.88354 0.04543 0.48093 0.0
H508 H 0.91041 0.15298 0.5594 0.0
H509 H 0.84808 0.19199 0.53655 0.0
C510 C 0.79433 0.1648 0.48113 0.0
C511 C 0.76877 0.14697 0.45151 0.0
C512 C 0.82957 0.14176 0.49514 0.0
C513 C 0.77869 0.10532 0.43635 0.0
C514 C 0.8137 0.08206 0.45026 0.0
C515 C 0.87554 0.07728 0.49325 0.0
C516 C 0.90191 0.09609 0.52194 0.0
C517 C 0.83956 0.1 0.47958 0.0
C518 C 0.89101 0.13756 0.53729 0.0
C519 C 0.85527 0.16003 0.5242 0.0
H520 H 0.28671 0.61222 0.12596 0.0
H521 H 0.33886 0.51818 1.03293 0.0
H522 H 0.26339 0.50507 1.01516 0.0
H523 H 0.18223 0.52064 1.02637 0.0
H524 H 0.13193 0.61562 0.11953 0.0
H525 H 0.20713 0.6287 0.13611 0.0
C526 C 0.28171 0.58918 0.10143 0.0
C527 C 0.31842 0.56641 0.08068 0.0
C528 C 0.23851 0.58216 0.09119 0.0
C529 C 0.31115 0.53594 0.04964 0.0
C530 C 0.26804 0.52864 1.03928 0.0
C531 C 0.18782 0.54441 0.05005 0.0
C532 C 0.15142 0.56708 0.07163 0.0
C533 C 0.23141 0.55163 0.05984 0.0
C534 C 0.15923 0.5976 0.10244 0.0
C535 C 0.20227 0.60512 0.11206 0.0
H536 H 0.20514 0.53534 0.55041 0.0
H537 H 0.2238 0.46229 0.65108 0.0
H538 H 0.30421 0.46858 0.64076 0.0
H539 H 0.36919 0.49446 0.6028 0.0
H540 H 0.35056 0.566 0.50082 0.0
H541 H 0.27032 0.56068 0.51195 0.0
C542 C 0.22692 0.52109 0.57015 0.0
C543 C 0.20883 0.49841 0.60136 0.0
C544 C 0.27309 0.52441 0.56375 0.0
C545 C 0.23722 0.47964 0.62661 0.0
C546 C 0.2831 0.48329 0.6208 0.0
C547 C 0.34758 0.50887 0.58302 0.0
C548 C 0.36586 0.53059 0.5511 0.0
C549 C 0.30142 0.50546 0.58936 0.0
C550 C 0.33739 0.54898 0.52562 0.0
C551 C 0.29145 0.54606 0.53197 0.0
H552 H 0.98888 0.74676 0.89074 0.0
H553 H 0.91105 0.81736 0.9891 0.0
H554 H 0.92489 0.76234 1.03364 0.0
H555 H 0.95757 0.69224 1.04449 0.0
H556 H 0.03458 0.62233 0.94479 0.0
H557 H 0.02279 0.67843 0.90179 0.0
C558 C 0.97513 0.75019 0.92199 0.0
C559 C 0.94891 0.78622 0.93629 0.0
C560 C 0.98304 0.71822 0.94754 0.0
C561 C 0.93132 0.79004 0.97698 0.0
C562 C 0.93922 0.75846 1.00262 0.0
C563 C 0.97204 0.68946 1.01348 0.0
C564 C 0.99687 0.6527 0.99822 0.0
C565 C 0.96484 0.72214 0.98824 0.0
C566 C 0.01513 0.64987 0.9577 0.0
C567 C 1.00843 0.68209 0.93282 0.0
H568 H 0.49626 0.66135 0.09186 0.0
H569 H 0.36494 0.69022 0.15132 0.0
H570 H 0.38071 0.76413 0.1584 0.0
H571 H 0.42939 0.82108 0.14199 0.0
H572 H 0.56142 0.79159 0.08462 0.0
H573 H 0.5481 0.71718 0.0835 0.0
C574 C 0.47138 0.68356 0.10724 0.0
C575 C 0.42922 0.67021 0.1204 0.0
C576 C 0.48075 0.72596 0.11154 0.0
C577 C 0.3973 0.69972 0.1399 0.0
C578 C 0.40637 0.74199 0.14425 0.0
C579 C 0.45562 0.79834 0.13019 0.0
C580 C 0.49606 0.81182 0.11288 0.0
C581 C 0.44763 0.75558 0.12934 0.0
C582 C 0.52966 0.78197 0.09744 0.0
C583 C 0.5221 0.73943 0.09679 0.0
H584 H 0.13605 0.38436 0.65631 0.0
H585 H 0.02329 0.41697 0.59214 0.0
H586 H 0.99941 0.34538 0.59224 0.0
H587 H 0.0148 0.27219 0.60425 0.0
H588 H 0.13065 0.2384 0.66344 0.0
H589 H 0.14957 0.31177 0.67109 0.0
C590 C 0.10632 0.3758 0.64221 0.0
C591 C 0.0818 0.40591 0.62384 0.0
C592 C 0.09357 0.33433 0.64123 0.0
C593 C 0.04267 0.39453 0.60672 0.0
C594 C 0.02916 0.35351 0.60647 0.0
C595 C 0.04367 0.28109 0.61955 0.0
C596 C 0.07133 0.2502 0.63333 0.0
C597 C 0.05489 0.32301 0.62284 0.0
C598 C 0.10907 0.26182 0.65249 0.0
C599 C 0.11986 0.30365 0.65681 0.0
H600 H 0.58325 0.31076 0.36844 0.0
H601 H 0.5943 0.25118 0.47881 0.0
H602 H 0.56652 0.31523 0.51821 0.0
H603 H 0.54161 0.38965 0.5221 0.0
H604 H 0.52851 0.44876 0.41175 0.0
H605 H 0.55366 0.3839 0.37226 0.0
C606 C 0.57902 0.31151 0.40107 0.0
C607 C 0.59176 0.27591 0.42032 0.0
C608 C 0.5626 0.34875 0.4239 0.0
C609 C 0.586 0.27806 0.46284 0.0
C610 C 0.56978 0.31479 0.48558 0.0
C611 C 0.54392 0.38833 0.48942 0.0
C612 C 0.5332 0.4245 0.47022 0.0
C613 C 0.55852 0.3506 0.46655 0.0
C614 C 0.53645 0.42175 0.42768 0.0
C615 C 0.55098 0.3845 0.40489 0.0
loop_
_geom_bond_atom_site_label_1
_geom_bond_atom_site_label_2
_geom_bond_distance
_geom_bond_site_symmetry_2
_ccdc_geom_bond_type
H0 C5 0.930 . S
H1 C8 0.930 . S
H2 C10 0.930 . S
H3 C4 1.016 . S
C4 H3 1.016 . S
C4 N11 1.286 . S
C5 H0 0.930 . S
C5 C6 1.397 . S
C5 C7 1.361 . S
C6 C5 1.397 . S
C6 C10 1.390 . S
C7 C5 1.361 . S
C7 C8 1.393 . S
C7 N11 1.413 . S
C8 H1 0.930 . S
C8 C7 1.393 . S
C8 C9 1.399 . S
C9 C8 1.399 . S
C9 C10 1.381 . S
C10 H2 0.930 . S
C10 C6 1.390 . S
C10 C9 1.381 . S
N11 C4 1.286 . S
N11 C7 1.413 . S
H12 C17 0.930 . S
H13 C20 0.930 . S
H14 C22 0.930 . S
H15 C16 1.016 . S
C16 H15 1.016 . S
C16 N23 1.286 . S
C17 H12 0.930 . S
C17 C18 1.397 . S
C17 C19 1.361 . S
C18 C17 1.397 . S
C18 C22 1.390 . S
C19 C17 1.361 . S
C19 C20 1.393 . S
C19 N23 1.413 . S
C20 H13 0.930 . S
C20 C19 1.393 . S
C20 C21 1.399 . S
C21 C20 1.399 . S
C21 C22 1.381 . S
C22 H14 0.930 . S
C22 C18 1.390 . S
C22 C21 1.381 . S
N23 C16 1.286 . S
N23 C19 1.413 . S
H24 C29 0.930 . S
H25 C32 0.930 . S
H26 C34 0.930 . S
H27 C28 1.016 . S
C28 H27 1.016 . S
C28 N35 1.286 . S
C29 H24 0.930 . S
C29 C30 1.397 . S
C29 C31 1.361 . S
C30 C29 1.397 . S
C30 C34 1.390 . S
C31 C29 1.361 . S
C31 C32 1.393 . S
C31 N35 1.413 . S
C32 H25 0.930 . S
C32 C31 1.393 . S
C32 C33 1.399 . S
C33 C32 1.399 . S
C33 C34 1.381 . S
C34 H26 0.930 . S
C34 C30 1.390 . S
C34 C33 1.381 . S
N35 C28 1.286 . S
N35 C31 1.413 . S
H36 C41 0.930 . S
H37 C44 0.930 . S
H38 C46 0.930 . S
H39 C40 1.016 . S
C40 H39 1.016 . S
C40 N47 1.286 . S
C41 H36 0.930 . S
C41 C42 1.397 . S
C41 C43 1.361 . S
C42 C41 1.397 . S
C42 C46 1.390 . S
C43 C41 1.361 . S
C43 C44 1.393 . S
C43 N47 1.413 . S
C44 H37 0.930 . S
C44 C43 1.393 . S
C44 C45 1.399 . S
C45 C44 1.399 . S
C45 C46 1.381 . S
C46 H38 0.930 . S
C46 C42 1.390 . S
C46 C45 1.381 . S
N47 C40 1.286 . S
N47 C43 1.413 . S
H48 C53 0.930 . S
H49 C56 0.930 . S
H50 C58 0.930 . S
H51 C52 1.016 . S
C52 H51 1.016 . S
C52 N59 1.286 . S
C53 H48 0.930 . S
C53 C54 1.397 . S
C53 C55 1.361 . S
C54 C53 1.397 . S
C54 C58 1.390 . S
C55 C53 1.361 . S
C55 C56 1.393 . S
C55 N59 1.413 . S
C56 H49 0.930 . S
C56 C55 1.393 . S
C56 C57 1.399 . S
C57 C56 1.399 . S
C57 C58 1.381 . S
C58 H50 0.930 . S
C58 C54 1.390 . S
C58 C57 1.381 . S
N59 C52 1.286 . S
N59 C55 1.413 . S
H60 C65 0.930 . S
H61 C68 0.930 . S
H62 C70 0.930 . S
H63 C64 1.016 . S
C64 H63 1.016 . S
C64 N71 1.286 . S
C65 H60 0.930 . S
C65 C66 1.397 . S
C65 C67 1.361 . S
C66 C65 1.397 . S
C66 C70 1.390 . S
C67 C65 1.361 . S
C67 C68 1.393 . S
C67 N71 1.413 . S
C68 H61 0.930 . S
C68 C67 1.393 . S
C68 C69 1.399 . S
C69 C68 1.399 . S
C69 C70 1.381 . S
C70 H62 0.930 . S
C70 C66 1.390 . S
C70 C69 1.381 . S
N71 C64 1.286 . S
N71 C67 1.413 . S
H72 C77 0.930 . S
H73 C80 0.930 . S
H74 C82 0.930 . S
H75 C76 1.016 . S
C76 H75 1.016 . S
C76 N83 1.286 . S
C77 H72 0.930 . S
C77 C78 1.397 . S
C77 C79 1.361 . S
C78 C77 1.397 . S
C78 C82 1.390 . S
C79 C77 1.361 . S
C79 C80 1.393 . S
C79 N83 1.413 . S
C80 H73 0.930 . S
C80 C79 1.393 . S
C80 C81 1.399 . S
C81 C80 1.399 . S
C81 C82 1.381 . S
C82 H74 0.930 . S
C82 C78 1.390 . S
C82 C81 1.381 . S
N83 C76 1.286 . S
N83 C79 1.413 . S
H84 C89 0.930 . S
H85 C92 0.930 . S
H86 C94 0.930 . S
H87 C88 1.016 . S
C88 H87 1.016 . S
C88 N95 1.286 . S
C89 H84 0.930 . S
C89 C90 1.397 . S
C89 C91 1.361 . S
C90 C89 1.397 . S
C90 C94 1.390 . S
C91 C89 1.361 . S
C91 C92 1.393 . S
C91 N95 1.413 . S
C92 H85 0.930 . S
C92 C91 1.393 . S
C92 C93 1.399 . S
C93 C92 1.399 . S
C93 C94 1.381 . S
C94 H86 0.930 . S
C94 C90 1.390 . S
C94 C93 1.381 . S
N95 C88 1.286 . S
N95 C91 1.413 . S
C96 O112 1.251 . S
C96 O114 1.254 1_545 S
N97 C98 1.333 . S
N97 C102 1.307 . S
N97 Zn103 2.020 . S
C98 N97 1.333 . S
C98 C99 1.379 . S
C98 H116 0.952 . S
C99 C98 1.379 . S
C99 C100 1.390 . S
C99 H126 0.949 . S
C100 C99 1.390 . S
C100 C101 1.357 . S
C101 C100 1.357 . S
C101 C102 1.370 . S
C101 H127 0.950 . S
C102 N97 1.307 . S
C102 C101 1.370 . S
C102 H120 0.948 1_455 S
Zn103 N97 2.020 . S
Zn103 O112 2.039 . S
Zn103 O118 2.034 . S
Zn103 O122 2.025 1_455 S
Zn103 O124 2.024 1_455 S
C104 O123 1.246 1_545 S
C104 O124 1.249 . S
N105 C106 1.307 . S
N105 C107 1.333 . S
N105 Zn111 2.020 . S
C106 N105 1.307 . S
C106 C110 1.370 . S
C106 H117 0.948 1_655 S
C107 N105 1.333 . S
C107 C108 1.379 . S
C107 H115 0.952 . S
C108 C107 1.379 . S
C108 C109 1.390 . S
C108 H128 0.949 . S
C109 C108 1.390 . S
C109 C110 1.357 . S
C110 C106 1.370 . S
C110 C109 1.357 . S
C110 H129 0.950 . S
Zn111 N105 2.020 . S
Zn111 O114 2.025 1_655 S
Zn111 O119 2.024 1_655 S
Zn111 O121 2.039 . S
Zn111 O123 2.034 . S
O112 C96 1.251 . S
O112 Zn103 2.039 . S
C113 O118 1.246 1_565 S
C113 O119 1.249 . S
O114 C96 1.254 1_565 S
O114 Zn111 2.025 1_455 S
H115 C107 0.952 . S
H116 C98 0.952 . S
H117 C106 0.948 1_455 S
O118 Zn103 2.034 . S
O118 C113 1.246 1_545 S
O119 Zn111 2.024 1_455 S
O119 C113 1.249 . S
H120 C102 0.948 1_655 S
O121 Zn111 2.039 . S
O121 C125 1.251 . S
O122 Zn103 2.025 1_655 S
O122 C125 1.254 1_545 S
O123 C104 1.246 1_565 S
O123 Zn111 2.034 . S
O124 Zn103 2.024 1_655 S
O124 C104 1.249 . S
C125 O121 1.251 . S
C125 O122 1.254 1_565 S
H126 C99 0.949 . S
H127 C101 0.950 . S
H128 C108 0.949 . S
H129 C110 0.950 . S
C130 O146 1.251 1_565 S
C130 O148 1.254 . S
N131 C132 1.333 . S
N131 C136 1.307 . S
N131 Zn137 2.020 . S
C132 N131 1.333 . S
C132 C133 1.379 . S
C132 H150 0.952 . S
C133 C132 1.379 . S
C133 C134 1.390 . S
C133 H160 0.949 . S
C134 C133 1.390 . S
C134 C135 1.357 . S
C135 C134 1.357 . S
C135 C136 1.370 . S
C135 H161 0.950 . S
C136 N131 1.307 . S
C136 C135 1.370 . S
C136 H154 0.948 . S
Zn137 N131 2.020 . S
Zn137 O146 2.039 . S
Zn137 O152 2.034 1_556 S
Zn137 O156 2.025 1_556 S
Zn137 O158 2.024 . S
C138 O157 1.246 . S
C138 O158 1.249 1_565 S
N139 C140 1.307 . S
N139 C141 1.333 . S
N139 Zn145 2.020 . S
C140 N139 1.307 . S
C140 C144 1.370 . S
C140 H151 0.948 . S
C141 N139 1.333 . S
C141 C142 1.379 . S
C141 H149 0.952 . S
C142 C141 1.379 . S
C142 C143 1.390 . S
C142 H162 0.949 . S
C143 C142 1.390 . S
C143 C144 1.357 . S
C144 C140 1.370 . S
C144 C143 1.357 . S
C144 H163 0.950 . S
Zn145 N139 2.020 . S
Zn145 O148 2.025 1_554 S
Zn145 O153 2.024 . S
Zn145 O155 2.034 1_565 S
Zn145 O157 2.034 1_554 S
O146 C130 1.251 1_545 S
O146 Zn137 2.039 . S
C147 O152 1.246 . S
C147 O153 1.249 1_545 S
O148 C130 1.254 . S
O148 Zn145 2.025 1_556 S
H149 C141 0.952 . S
H150 C132 0.952 . S
H151 C140 0.948 . S
O152 Zn137 2.034 1_554 S
O152 C147 1.246 . S
O153 Zn145 2.024 . S
O153 C147 1.249 1_565 S
H154 C136 0.948 . S
O155 Zn145 2.034 1_545 S
O155 C159 1.262 . S
O156 Zn137 2.025 1_554 S
O156 C159 1.254 . S
O157 C138 1.246 . S
O157 Zn145 2.034 1_556 S
O158 Zn137 2.024 . S
O158 C138 1.249 1_545 S
C159 O155 1.262 . S
C159 O156 1.254 . S
H160 C133 0.949 . S
H161 C135 0.950 . S
H162 C142 0.949 . S
H163 C144 0.950 . S
C164 O180 1.251 . S
C164 O182 1.254 . S
N165 C166 1.333 . S
N165 C170 1.307 . S
N165 Zn171 2.020 . S
C166 N165 1.333 . S
C166 C167 1.379 . S
C166 H184 0.952 . S
C167 C166 1.379 . S
C167 C168 1.390 . S
C167 H194 0.949 . S
C168 C167 1.390 . S
C168 C169 1.357 . S
C169 C168 1.357 . S
C169 C170 1.370 . S
C169 H195 0.950 . S
C170 N165 1.307 . S
C170 C169 1.370 . S
C170 H188 0.948 . S
Zn171 N165 2.020 . S
Zn171 O180 2.039 . S
Zn171 O186 2.034 . S
Zn171 O190 2.025 . S
Zn171 O192 2.024 . S
C172 O191 1.246 . S
C172 O192 1.249 . S
N173 C174 1.307 . S
N173 C175 1.333 . S
N173 Zn179 2.020 . S
C174 N173 1.307 . S
C174 C178 1.370 . S
C174 H185 0.948 . S
C175 N173 1.333 . S
C175 C176 1.379 . S
C175 H183 0.952 . S
C176 C175 1.379 . S
C176 C177 1.390 . S
C176 H196 0.949 . S
C177 C176 1.390 . S
C177 C178 1.357 . S
C178 C174 1.370 . S
C178 C177 1.357 . S
C178 H197 0.950 . S
Zn179 N173 2.020 . S
Zn179 O182 2.025 . S
Zn179 O187 2.024 . S
Zn179 O189 2.039 . S
Zn179 O191 2.034 . S
O180 C164 1.251 . S
O180 Zn171 2.039 . S
C181 O186 1.246 . S
C181 O187 1.249 . S
O182 C164 1.254 . S
O182 Zn179 2.025 . S
H183 C175 0.952 . S
H184 C166 0.952 . S
H185 C174 0.948 . S
O186 Zn171 2.034 . S
O186 C181 1.246 . S
O187 Zn179 2.024 . S
O187 C181 1.249 . S
H188 C170 0.948 . S
O189 Zn179 2.039 . S
O189 C193 1.251 . S
O190 Zn171 2.025 . S
O190 C193 1.254 . S
O191 C172 1.246 . S
O191 Zn179 2.034 . S
O192 Zn171 2.024 . S
O192 C172 1.249 . S
C193 O189 1.251 . S
C193 O190 1.254 . S
H194 C167 0.949 . S
H195 C169 0.950 . S
H196 C176 0.949 . S
H197 C178 0.950 . S
C198 O214 1.251 1_556 S
C198 O216 1.254 1_655 S
N199 C200 1.333 . S
N199 C204 1.307 . S
N199 Zn205 2.020 . S
C200 N199 1.333 . S
C200 C201 1.379 . S
C200 H218 0.952 . S
C201 C200 1.379 . S
C201 C202 1.390 . S
C201 H228 0.949 . S
C202 C201 1.390 . S
C202 C203 1.357 . S
C203 C202 1.357 . S
C203 C204 1.370 . S
C203 H229 0.950 . S
C204 N199 1.307 . S
C204 C203 1.370 . S
C204 H222 0.948 . S
Zn205 N199 2.020 . S
Zn205 O214 2.039 . S
Zn205 O220 2.034 1_655 S
Zn205 O224 2.025 1_655 S
Zn205 O226 2.024 . S
C206 O225 1.246 . S
C206 O226 1.249 1_556 S
N207 C208 1.307 . S
N207 C209 1.333 . S
N207 Zn213 2.020 . S
C208 N207 1.307 . S
C208 C212 1.370 . S
C208 H219 0.948 . S
C209 N207 1.333 . S
C209 C210 1.379 . S
C209 H217 0.952 . S
C210 C209 1.379 . S
C210 C211 1.390 . S
C210 H230 0.949 . S
C211 C210 1.390 . S
C211 C212 1.357 . S
C212 C208 1.370 . S
C212 C211 1.357 . S
C212 H231 0.950 . S
Zn213 N207 2.020 . S
Zn213 O216 2.025 . S
Zn213 O221 2.024 . S
Zn213 O223 2.039 . S
Zn213 O225 2.034 1_455 S
O214 C198 1.251 1_554 S
O214 Zn205 2.039 . S
C215 O220 1.246 . S
C215 O221 1.249 1_554 S
O216 C198 1.254 1_455 S
O216 Zn213 2.025 . S
H217 C209 0.952 . S
H218 C200 0.952 . S
H219 C208 0.948 . S
O220 Zn205 2.034 1_455 S
O220 C215 1.246 . S
O221 Zn213 2.024 . S
O221 C215 1.249 1_556 S
H222 C204 0.948 . S
O223 Zn213 2.039 . S
O223 C227 1.251 1_556 S
O224 Zn205 2.025 1_455 S
O224 C227 1.254 . S
O225 C206 1.246 . S
O225 Zn213 2.034 1_655 S
O226 Zn205 2.024 . S
O226 C206 1.249 1_554 S
C227 O223 1.251 1_554 S
C227 O224 1.254 . S
H228 C201 0.949 . S
H229 C203 0.950 . S
H230 C210 0.949 . S
H231 C212 0.950 . S
H232 C238 0.930 . S
H233 C241 0.930 . S
H234 C242 0.930 . S
H235 C243 0.930 . S
H236 C246 0.930 1_655 S
H237 C247 0.930 1_655 S
C238 H232 0.930 . S
C238 C239 1.355 . S
C238 C240 1.415 . S
C239 C238 1.355 . S
C239 C241 1.419 . S
C240 C238 1.415 . S
C240 C245 1.425 . S
C240 C247 1.409 . S
C241 H233 0.930 . S
C241 C239 1.419 . S
C241 C242 1.362 . S
C242 H234 0.930 . S
C242 C241 1.362 . S
C242 C245 1.409 . S
C243 H235 0.930 . S
C243 C244 1.355 . S
C243 C245 1.415 . S
C244 C243 1.355 . S
C244 C246 1.419 . S
C245 C240 1.425 . S
C245 C242 1.409 . S
C245 C243 1.415 . S
C246 H236 0.930 1_455 S
C246 C244 1.419 . S
C246 C247 1.362 . S
C247 H237 0.930 1_455 S
C247 C240 1.409 . S
C247 C246 1.362 . S
H248 C254 0.930 . S
H249 C257 0.930 . S
H250 C258 0.930 . S
H251 C259 0.930 . S
H252 C262 0.930 1_545 S
H253 C263 0.930 . S
C254 H248 0.930 . S
C254 C255 1.355 . S
C254 C256 1.415 . S
C255 C254 1.355 . S
C255 C257 1.419 . S
C256 C254 1.415 . S
C256 C261 1.425 . S
C256 C263 1.409 . S
C257 H249 0.930 . S
C257 C255 1.419 . S
C257 C258 1.362 . S
C258 H250 0.930 . S
C258 C257 1.362 . S
C258 C261 1.409 . S
C259 H251 0.930 . S
C259 C260 1.355 . S
C259 C261 1.415 . S
C260 C259 1.355 . S
C260 C262 1.419 . S
C261 C256 1.425 . S
C261 C258 1.409 . S
C261 C259 1.415 . S
C262 H252 0.930 1_565 S
C262 C260 1.419 . S
C262 C263 1.362 . S
C263 H253 0.930 . S
C263 C256 1.409 . S
C263 C262 1.362 . S
H264 C270 0.930 . S
H265 C273 0.930 . S
H266 C274 0.930 . S
H267 C275 0.930 . S
H268 C278 0.930 . S
H269 C279 0.930 . S
C270 H264 0.930 . S
C270 C271 1.355 . S
C270 C272 1.415 . S
C271 C270 1.355 . S
C271 C273 1.419 . S
C272 C270 1.415 . S
C272 C277 1.425 . S
C272 C279 1.409 . S
C273 H265 0.930 . S
C273 C271 1.419 . S
C273 C274 1.362 . S
C274 H266 0.930 . S
C274 C273 1.362 . S
C274 C277 1.409 . S
C275 H267 0.930 . S
C275 C276 1.355 . S
C275 C277 1.415 . S
C276 C275 1.355 . S
C276 C278 1.419 . S
C277 C272 1.425 . S
C277 C274 1.409 . S
C277 C275 1.415 . S
C278 H268 0.930 . S
C278 C276 1.419 . S
C278 C279 1.362 . S
C279 H269 0.930 . S
C279 C272 1.409 . S
C279 C278 1.362 . S
H280 C286 0.930 . S
H281 C289 0.930 . S
H282 C290 0.930 . S
H283 C291 0.930 . S
H284 C294 0.930 . S
H285 C295 0.930 . S
C286 H280 0.930 . S
C286 C287 1.355 . S
C286 C288 1.415 . S
C287 C286 1.355 . S
C287 C289 1.419 . S
C288 C286 1.415 . S
C288 C293 1.425 . S
C288 C295 1.409 . S
C289 H281 0.930 . S
C289 C287 1.419 . S
C289 C290 1.362 . S
C290 H282 0.930 . S
C290 C289 1.362 . S
C290 C293 1.409 . S
C291 H283 0.930 . S
C291 C292 1.355 . S
C291 C293 1.415 . S
C292 C291 1.355 . S
C292 C294 1.419 . S
C293 C288 1.425 . S
C293 C290 1.409 . S
C293 C291 1.415 . S
C294 H284 0.930 . S
C294 C292 1.419 . S
C294 C295 1.362 . S
C295 H285 0.930 . S
C295 C288 1.409 . S
C295 C294 1.362 . S
H296 C302 0.930 . S
H297 C305 0.930 . S
H298 C306 0.930 . S
H299 C307 0.930 . S
H300 C310 0.930 . S
H301 C311 0.930 . S
C302 H296 0.930 . S
C302 C303 1.355 . S
C302 C304 1.415 . S
C303 C302 1.355 . S
C303 C305 1.419 . S
C304 C302 1.415 . S
C304 C309 1.425 . S
C304 C311 1.409 . S
C305 H297 0.930 . S
C305 C303 1.419 . S
C305 C306 1.362 . S
C306 H298 0.930 . S
C306 C305 1.362 . S
C306 C309 1.409 . S
C307 H299 0.930 . S
C307 C308 1.355 . S
C307 C309 1.415 . S
C308 C307 1.355 . S
C308 C310 1.419 . S
C309 C304 1.425 . S
C309 C306 1.409 . S
C309 C307 1.415 . S
C310 H300 0.930 . S
C310 C308 1.419 . S
C310 C311 1.362 . S
C311 H301 0.930 . S
C311 C304 1.409 . S
C311 C310 1.362 . S
H312 C318 0.930 . S
H313 C321 0.930 . S
H314 C322 0.930 1_545 S
H315 C323 0.930 1_545 S
H316 C326 0.930 . S
H317 C327 0.930 . S
C318 H312 0.930 . S
C318 C319 1.355 . S
C318 C320 1.415 . S
C319 C318 1.355 . S
C319 C321 1.419 . S
C320 C318 1.415 . S
C320 C325 1.425 . S
C320 C327 1.409 . S
C321 H313 0.930 . S
C321 C319 1.419 . S
C321 C322 1.362 . S
C322 H314 0.930 1_565 S
C322 C321 1.362 . S
C322 C325 1.409 . S
C323 H315 0.930 1_565 S
C323 C324 1.355 . S
C323 C325 1.415 . S
C324 C323 1.355 . S
C324 C326 1.419 . S
C325 C320 1.425 . S
C325 C322 1.409 . S
C325 C323 1.415 . S
C326 H316 0.930 . S
C326 C324 1.419 . S
C326 C327 1.362 . S
C327 H317 0.930 . S
C327 C320 1.409 . S
C327 C326 1.362 . S
H328 C334 0.930 . S
H329 C337 0.930 . S
H330 C338 0.930 . S
H331 C339 0.930 . S
H332 C342 0.930 . S
H333 C343 0.930 . S
C334 H328 0.930 . S
C334 C335 1.355 . S
C334 C336 1.415 . S
C335 C334 1.355 . S
C335 C337 1.419 . S
C336 C334 1.415 . S
C336 C341 1.425 . S
C336 C343 1.409 1_556 S
C337 H329 0.930 . S
C337 C335 1.419 . S
C337 C338 1.362 . S
C338 H330 0.930 . S
C338 C337 1.362 . S
C338 C341 1.409 . S
C339 H331 0.930 . S
C339 C340 1.355 . S
C339 C341 1.415 . S
C340 C339 1.355 . S
C340 C342 1.419 1_556 S
C341 C336 1.425 . S
C341 C338 1.409 . S
C341 C339 1.415 . S
C342 H332 0.930 . S
C342 C340 1.419 1_554 S
C342 C343 1.362 . S
C343 H333 0.930 . S
C343 C336 1.409 1_554 S
C343 C342 1.362 . S
H344 C350 0.930 . S
H345 C353 0.930 . S
H346 C354 0.930 . S
H347 C355 0.930 . S
H348 C358 0.930 . S
H349 C359 0.930 . S
C350 H344 0.930 . S
C350 C351 1.355 . S
C350 C352 1.415 . S
C351 C350 1.355 . S
C351 C353 1.419 . S
C352 C350 1.415 . S
C352 C357 1.425 . S
C352 C359 1.409 . S
C353 H345 0.930 . S
C353 C351 1.419 . S
C353 C354 1.362 . S
C354 H346 0.930 . S
C354 C353 1.362 . S
C354 C357 1.409 . S
C355 H347 0.930 . S
C355 C356 1.355 . S
C355 C357 1.415 . S
C356 C355 1.355 . S
C356 C358 1.419 . S
C357 C352 1.425 . S
C357 C354 1.409 . S
C357 C355 1.415 . S
C358 H348 0.930 . S
C358 C356 1.419 . S
C358 C359 1.362 . S
C359 H349 0.930 . S
C359 C352 1.409 . S
C359 C358 1.362 . S
H360 C366 0.930 . S
H361 C369 0.930 . S
H362 C370 0.930 . S
H363 C371 0.930 . S
H364 C374 0.930 . S
H365 C375 0.930 . S
C366 H360 0.930 . S
C366 C367 1.355 . S
C366 C368 1.415 . S
C367 C366 1.355 . S
C367 C369 1.419 . S
C368 C366 1.415 . S
C368 C373 1.425 . S
C368 C375 1.409 . S
C369 H361 0.930 . S
C369 C367 1.419 . S
C369 C370 1.362 . S
C370 H362 0.930 . S
C370 C369 1.362 . S
C370 C373 1.409 . S
C371 H363 0.930 . S
C371 C372 1.355 . S
C371 C373 1.415 . S
C372 C371 1.355 . S
C372 C374 1.419 . S
C373 C368 1.425 . S
C373 C370 1.409 . S
C373 C371 1.415 . S
C374 H364 0.930 . S
C374 C372 1.419 . S
C374 C375 1.362 . S
C375 H365 0.930 . S
C375 C368 1.409 . S
C375 C374 1.362 . S
H376 C382 0.930 . S
H377 C385 0.912 1_554 S
H378 C386 0.930 1_554 S
H379 C387 0.931 . S
H380 C390 0.930 . S
H381 C391 0.930 . S
C382 H376 0.930 . S
C382 C383 1.355 . S
C382 C384 1.415 . S
C383 C382 1.355 . S
C383 C385 1.419 . S
C384 C382 1.415 . S
C384 C389 1.425 . S
C384 C391 1.409 . S
C385 H377 0.912 1_556 S
C385 C383 1.419 . S
C385 C386 1.362 . S
C386 H378 0.930 1_556 S
C386 C385 1.362 . S
C386 C389 1.409 . S
C387 H379 0.931 . S
C387 C388 1.355 . S
C387 C389 1.415 . S
C388 C387 1.355 . S
C388 C390 1.419 . S
C389 C384 1.425 . S
C389 C386 1.409 . S
C389 C387 1.415 . S
C390 H380 0.930 . S
C390 C388 1.419 . S
C390 C391 1.362 . S
C391 H381 0.930 . S
C391 C384 1.409 . S
C391 C390 1.362 . S
H392 C398 0.930 . S
H393 C401 0.930 . S
H394 C402 0.930 . S
H395 C403 0.930 . S
H396 C406 0.930 . S
H397 C407 0.930 . S
C398 H392 0.930 . S
C398 C399 1.355 . S
C398 C400 1.415 . S
C399 C398 1.355 . S
C399 C401 1.419 . S
C400 C398 1.415 . S
C400 C405 1.425 . S
C400 C407 1.409 . S
C401 H393 0.930 . S
C401 C399 1.419 . S
C401 C402 1.362 . S
C402 H394 0.930 . S
C402 C401 1.362 . S
C402 C405 1.409 . S
C403 H395 0.930 . S
C403 C404 1.355 . S
C403 C405 1.415 . S
C404 C403 1.355 . S
C404 C406 1.419 . S
C405 C400 1.425 . S
C405 C402 1.409 . S
C405 C403 1.415 . S
C406 H396 0.930 . S
C406 C404 1.419 . S
C406 C407 1.362 . S
C407 H397 0.930 . S
C407 C400 1.409 . S
C407 C406 1.362 . S
H408 C414 0.930 . S
H409 C417 0.930 . S
H410 C418 0.930 . S
H411 C419 0.930 . S
H412 C422 0.930 . S
H413 C423 0.930 . S
C414 H408 0.930 . S
C414 C415 1.355 . S
C414 C416 1.415 . S
C415 C414 1.355 . S
C415 C417 1.419 . S
C416 C414 1.415 . S
C416 C421 1.425 . S
C416 C423 1.409 . S
C417 H409 0.930 . S
C417 C415 1.419 . S
C417 C418 1.362 . S
C418 H410 0.930 . S
C418 C417 1.362 . S
C418 C421 1.409 . S
C419 H411 0.930 . S
C419 C420 1.355 . S
C419 C421 1.415 . S
C420 C419 1.355 . S
C420 C422 1.419 . S
C421 C416 1.425 . S
C421 C418 1.409 . S
C421 C419 1.415 . S
C422 H412 0.930 . S
C422 C420 1.419 . S
C422 C423 1.362 . S
C423 H413 0.930 . S
C423 C416 1.409 . S
C423 C422 1.362 . S
H424 C430 0.930 . S
H425 C433 0.930 . S
H426 C434 0.930 . S
H427 C435 0.930 . S
H428 C438 0.930 1_455 S
H429 C439 0.930 1_455 S
C430 H424 0.930 . S
C430 C431 1.355 . S
C430 C432 1.415 . S
C431 C430 1.355 . S
C431 C433 1.419 . S
C432 C430 1.415 . S
C432 C437 1.425 . S
C432 C439 1.409 . S
C433 H425 0.930 . S
C433 C431 1.419 . S
C433 C434 1.362 . S
C434 H426 0.930 . S
C434 C433 1.362 . S
C434 C437 1.409 . S
C435 H427 0.930 . S
C435 C436 1.355 . S
C435 C437 1.415 . S
C436 C435 1.355 . S
C436 C438 1.419 . S
C437 C432 1.425 . S
C437 C434 1.409 . S
C437 C435 1.415 . S
C438 H428 0.930 1_655 S
C438 C436 1.419 . S
C438 C439 1.362 . S
C439 H429 0.930 1_655 S
C439 C432 1.409 . S
C439 C438 1.362 . S
H440 C446 0.930 . S
H441 C449 0.930 . S
H442 C450 0.930 . S
H443 C451 0.930 . S
H444 C454 0.930 . S
H445 C455 0.930 . S
C446 H440 0.930 . S
C446 C447 1.355 . S
C446 C448 1.415 . S
C447 C446 1.355 . S
C447 C449 1.419 . S
C448 C446 1.415 . S
C448 C453 1.425 . S
C448 C455 1.409 . S
C449 H441 0.930 . S
C449 C447 1.419 . S
C449 C450 1.362 . S
C450 H442 0.930 . S
C450 C449 1.362 . S
C450 C453 1.409 . S
C451 H443 0.930 . S
C451 C452 1.355 . S
C451 C453 1.415 . S
C452 C451 1.355 . S
C452 C454 1.419 . S
C453 C448 1.425 . S
C453 C450 1.409 . S
C453 C451 1.415 . S
C454 H444 0.930 . S
C454 C452 1.419 . S
C454 C455 1.362 . S
C455 H445 0.930 . S
C455 C448 1.409 . S
C455 C454 1.362 . S
H456 C462 0.930 . S
H457 C465 0.930 . S
H458 C466 0.930 . S
H459 C467 0.930 . S
H460 C470 0.930 . S
H461 C471 0.930 . S
C462 H456 0.930 . S
C462 C463 1.355 . S
C462 C464 1.415 . S
C463 C462 1.355 . S
C463 C465 1.419 . S
C464 C462 1.415 . S
C464 C469 1.425 . S
C464 C471 1.409 . S
C465 H457 0.930 . S
C465 C463 1.419 . S
C465 C466 1.362 . S
C466 H458 0.930 . S
C466 C465 1.362 . S
C466 C469 1.409 . S
C467 H459 0.930 . S
C467 C468 1.355 . S
C467 C469 1.415 . S
C468 C467 1.355 . S
C468 C470 1.419 . S
C469 C464 1.425 . S
C469 C466 1.409 . S
C469 C467 1.415 . S
C470 H460 0.930 . S
C470 C468 1.419 . S
C470 C471 1.362 . S
C471 H461 0.930 . S
C471 C464 1.409 . S
C471 C470 1.362 . S
H472 C478 0.930 . S
H473 C481 0.930 . S
H474 C482 0.930 . S
H475 C483 0.930 . S
H476 C486 0.930 . S
H477 C487 0.930 . S
C478 H472 0.930 . S
C478 C479 1.355 . S
C478 C480 1.415 . S
C479 C478 1.355 . S
C479 C481 1.419 . S
C480 C478 1.415 . S
C480 C485 1.425 . S
C480 C487 1.409 . S
C481 H473 0.930 . S
C481 C479 1.419 . S
C481 C482 1.362 . S
C482 H474 0.930 . S
C482 C481 1.362 . S
C482 C485 1.409 . S
C483 H475 0.930 . S
C483 C484 1.355 . S
C483 C485 1.415 . S
C484 C483 1.355 . S
C484 C486 1.419 . S
C485 C480 1.425 . S
C485 C482 1.409 . S
C485 C483 1.415 . S
C486 H476 0.930 . S
C486 C484 1.419 . S
C486 C487 1.362 . S
C487 H477 0.930 . S
C487 C480 1.409 . S
C487 C486 1.362 . S
H488 C494 0.930 . S
H489 C497 0.930 . S
H490 C498 0.930 . S
H491 C499 0.930 . S
H492 C502 0.930 1_544 S
H493 C503 0.930 . S
C494 H488 0.930 . S
C494 C495 1.355 . S
C494 C496 1.415 . S
C495 C494 1.355 . S
C495 C497 1.419 . S
C496 C494 1.415 . S
C496 C501 1.425 . S
C496 C503 1.409 . S
C497 H489 0.930 . S
C497 C495 1.419 . S
C497 C498 1.362 . S
C498 H490 0.930 . S
C498 C497 1.362 . S
C498 C501 1.409 . S
C499 H491 0.930 . S
C499 C500 1.355 . S
C499 C501 1.415 . S
C500 C499 1.355 . S
C500 C502 1.419 . S
C501 C496 1.425 . S
C501 C498 1.409 . S
C501 C499 1.415 . S
C502 H492 0.930 1_566 S
C502 C500 1.419 . S
C502 C503 1.362 . S
C503 H493 0.930 . S
C503 C496 1.409 . S
C503 C502 1.362 . S
H504 C510 0.930 . S
H505 C513 0.930 . S
H506 C514 0.930 . S
H507 C515 0.930 . S
H508 C518 0.930 . S
H509 C519 0.930 . S
C510 H504 0.930 . S
C510 C511 1.355 . S
C510 C512 1.415 . S
C511 C510 1.355 . S
C511 C513 1.419 . S
C512 C510 1.415 . S
C512 C517 1.425 . S
C512 C519 1.409 . S
C513 H505 0.930 . S
C513 C511 1.419 . S
C513 C514 1.362 . S
C514 H506 0.930 . S
C514 C513 1.362 . S
C514 C517 1.409 . S
C515 H507 0.930 . S
C515 C516 1.355 . S
C515 C517 1.415 . S
C516 C515 1.355 . S
C516 C518 1.419 . S
C517 C512 1.425 . S
C517 C514 1.409 . S
C517 C515 1.415 . S
C518 H508 0.930 . S
C518 C516 1.419 . S
C518 C519 1.362 . S
C519 H509 0.930 . S
C519 C512 1.409 . S
C519 C518 1.362 . S
H520 C526 0.930 . S
H521 C529 0.930 . S
H522 C530 0.930 1_556 S
H523 C531 0.930 1_556 S
H524 C534 0.930 . S
H525 C535 0.930 . S
C526 H520 0.930 . S
C526 C527 1.355 . S
C526 C528 1.415 . S
C527 C526 1.355 . S
C527 C529 1.419 . S
C528 C526 1.415 . S
C528 C533 1.425 . S
C528 C535 1.409 . S
C529 H521 0.930 . S
C529 C527 1.419 . S
C529 C530 1.362 . S
C530 H522 0.930 1_554 S
C530 C529 1.362 . S
C530 C533 1.409 . S
C531 H523 0.930 1_554 S
C531 C532 1.355 . S
C531 C533 1.415 . S
C532 C531 1.355 . S
C532 C534 1.419 . S
C533 C528 1.425 . S
C533 C530 1.409 . S
C533 C531 1.415 . S
C534 H524 0.930 . S
C534 C532 1.419 . S
C534 C535 1.362 . S
C535 H525 0.930 . S
C535 C528 1.409 . S
C535 C534 1.362 . S
H536 C542 0.930 . S
H537 C545 0.930 . S
H538 C546 0.930 . S
H539 C547 0.930 . S
H540 C550 0.930 . S
H541 C551 0.930 . S
C542 H536 0.930 . S
C542 C543 1.355 . S
C542 C544 1.415 . S
C543 C542 1.355 . S
C543 C545 1.419 . S
C544 C542 1.415 . S
C544 C549 1.425 . S
C544 C551 1.409 . S
C545 H537 0.930 . S
C545 C543 1.419 . S
C545 C546 1.362 . S
C546 H538 0.930 . S
C546 C545 1.362 . S
C546 C549 1.409 . S
C547 H539 0.930 . S
C547 C548 1.355 . S
C547 C549 1.415 . S
C548 C547 1.355 . S
C548 C550 1.419 . S
C549 C544 1.425 . S
C549 C546 1.409 . S
C549 C547 1.415 . S
C550 H540 0.930 . S
C550 C548 1.419 . S
C550 C551 1.362 . S
C551 H541 0.930 . S
C551 C544 1.409 . S
C551 C550 1.362 . S
H552 C558 0.930 1_455 S
H553 C561 0.930 . S
H554 C562 0.930 . S
H555 C563 0.930 . S
H556 C566 0.930 . S
H557 C567 0.930 . S
C558 H552 0.930 1_655 S
C558 C559 1.355 . S
C558 C560 1.415 . S
C559 C558 1.355 . S
C559 C561 1.419 . S
C560 C558 1.415 . S
C560 C565 1.425 . S
C560 C567 1.409 1_655 S
C561 H553 0.930 . S
C561 C559 1.419 . S
C561 C562 1.362 . S
C562 H554 0.930 . S
C562 C561 1.362 . S
C562 C565 1.409 . S
C563 H555 0.930 . S
C563 C564 1.355 . S
C563 C565 1.415 . S
C564 C563 1.355 . S
C564 C566 1.419 1_655 S
C565 C560 1.425 . S
C565 C562 1.409 . S
C565 C563 1.415 . S
C566 H556 0.930 . S
C566 C564 1.419 1_455 S
C566 C567 1.362 . S
C567 H557 0.930 . S
C567 C560 1.409 1_455 S
C567 C566 1.362 . S
H568 C574 0.930 . S
H569 C577 0.930 . S
H570 C578 0.930 . S
H571 C579 0.930 . S
H572 C582 0.930 . S
H573 C583 0.930 . S
C574 H568 0.930 . S
C574 C575 1.355 . S
C574 C576 1.415 . S
C575 C574 1.355 . S
C575 C577 1.419 . S
C576 C574 1.415 . S
C576 C581 1.425 . S
C576 C583 1.409 . S
C577 H569 0.930 . S
C577 C575 1.419 . S
C577 C578 1.362 . S
C578 H570 0.930 . S
C578 C577 1.362 . S
C578 C581 1.409 . S
C579 H571 0.930 . S
C579 C580 1.355 . S
C579 C581 1.415 . S
C580 C579 1.355 . S
C580 C582 1.419 . S
C581 C576 1.425 . S
C581 C578 1.409 . S
C581 C579 1.415 . S
C582 H572 0.930 . S
C582 C580 1.419 . S
C582 C583 1.362 . S
C583 H573 0.930 . S
C583 C576 1.409 . S
C583 C582 1.362 . S
H584 C590 0.930 . S
H585 C593 0.930 . S
H586 C594 0.930 . S
H587 C595 0.930 . S
H588 C598 0.930 . S
H589 C599 0.930 . S
C590 H584 0.930 . S
C590 C591 1.355 . S
C590 C592 1.415 . S
C591 C590 1.355 . S
C591 C593 1.419 . S
C592 C590 1.415 . S
C592 C597 1.425 . S
C592 C599 1.409 . S
C593 H585 0.930 . S
C593 C591 1.419 . S
C593 C594 1.362 . S
C594 H586 0.930 . S
C594 C593 1.362 . S
C594 C597 1.409 . S
C595 H587 0.930 . S
C595 C596 1.355 . S
C595 C597 1.415 . S
C596 C595 1.355 . S
C596 C598 1.419 . S
C597 C592 1.425 . S
C597 C594 1.409 . S
C597 C595 1.415 . S
C598 H588 0.930 . S
C598 C596 1.419 . S
C598 C599 1.362 . S
C599 H589 0.930 . S
C599 C592 1.409 . S
C599 C598 1.362 . S
H600 C606 0.930 . S
H601 C609 0.930 . S
H602 C610 0.930 . S
H603 C611 0.930 . S
H604 C614 0.930 . S
H605 C615 0.930 . S
C606 H600 0.930 . S
C606 C607 1.355 . S
C606 C608 1.415 . S
C607 C606 1.355 . S
C607 C609 1.419 . S
C608 C606 1.415 . S
C608 C613 1.425 . S
C608 C615 1.409 . S
C609 H601 0.930 . S
C609 C607 1.419 . S
C609 C610 1.362 . S
C610 H602 0.930 . S
C610 C609 1.362 . S
C610 C613 1.409 . S
C611 H603 0.930 . S
C611 C612 1.355 . S
C611 C613 1.415 . S
C612 C611 1.355 . S
C612 C614 1.419 . S
C613 C608 1.425 . S
C613 C610 1.409 . S
C613 C611 1.415 . S
C614 H604 0.930 . S
C614 C612 1.419 . S
C614 C615 1.362 . S
C615 H605 0.930 . S
C615 C608 1.409 . S
C615 C614 1.362 . S
C239 C6 2.472 . S
C244 C96 2.480 . S
C255 C18 2.548 . S
C260 C138 2.566 . S
C276 C168 0.993 . S
C271 C28 1.001 . S
C287 C40 0.693 . S
C292 C202 0.693 . S
C308 C159 2.078 . S
C303 C9 2.078 . S
C324 C113 1.835 . S
C319 C16 1.825 . S
C340 C206 1.284 . S
C335 C30 1.267 . S
C356 C172 1.021 . S
C351 C42 1.002 . S
C367 C4 2.116 . S
C372 C227 2.141 . S
C388 C134 1.172 . S
C383 C33 1.171 . S
C399 C45 1.015 . S
C404 C109 1.020 . S
C415 C21 2.401 . S
C420 C193 2.411 . S
C436 C125 2.538 . S
C431 C57 2.524 . S
C447 C66 2.544 . S
C452 C147 2.549 . S
C463 C76 0.968 . S
C468 C177 0.993 . S
C479 C88 0.632 . S
C484 C211 0.646 . S
C495 C54 2.036 . S
C500 C130 2.051 . S
C516 C104 1.864 . S
C511 C64 1.855 . S
C532 C215 1.178 . S
C527 C78 1.169 . S
C548 C181 1.013 . S
C543 C93 0.972 . S
C559 C52 2.087 . S
C564 C198 2.104 . S
C580 C143 1.128 . S
C575 C81 1.110 . S
C596 C100 1.025 . S
C591 C90 1.020 . S
C607 C69 2.425 . S
C612 C164 2.430 . S
