# Generated by pormake.
# Topology sqc, (4,8)-cn, num edge types: 1
# Building blocks:
#     Node 0, Type 0, BuildingBlock: AZAVOO_clean_linker_0, # of connection points: 4
#     Node 1, Type 0, BuildingBlock: AZAVOO_clean_linker_0, # of connection points: 4
#     Node 2, Type 0, BuildingBlock: AZAVOO_clean_linker_0, # of connection points: 4
#     Node 3, Type 0, BuildingBlock: AZAVOO_clean_linker_0, # of connection points: 4
#     Node 4, Type 0, BuildingBlock: AZAVOO_clean_linker_0, # of connection points: 4
#     Node 5, Type 0, BuildingBlock: AZAVOO_clean_linker_0, # of connection points: 4
#     Node 6, Type 0, BuildingBlock: AZAVOO_clean_linker_0, # of connection points: 4
#     Node 7, Type 0, BuildingBlock: AZAVOO_clean_linker_0, # of connection points: 4
#     Node 8, Type 1, BuildingBlock: TAGTUT_clean_sbu_3, # of connection points: 8
#     Node 9, Type 1, BuildingBlock: TAGTUT_clean_sbu_3, # of connection points: 8
#     Node 10, Type 1, BuildingBlock: TAGTUT_clean_sbu_3, # of connection points: 8
#     Node 11, Type 1, BuildingBlock: TAGTUT_clean_sbu_3, # of connection points: 8
#     Edge 12, Type (0, 1), BuildingBlock: XUDNAN_clean_linker_2, # of connection points: 2
#     Edge 13, Type (0, 1), BuildingBlock: XUDNAN_clean_linker_2, # of connection points: 2
#     Edge 14, Type (0, 1), BuildingBlock: XUDNAN_clean_linker_2, # of connection points: 2
#     Edge 15, Type (0, 1), BuildingBlock: XUDNAN_clean_linker_2, # of connection points: 2
#     Edge 16, Type (0, 1), BuildingBlock: XUDNAN_clean_linker_2, # of connection points: 2
#     Edge 17, Type (0, 1), BuildingBlock: XUDNAN_clean_linker_2, # of connection points: 2
#     Edge 18, Type (0, 1), BuildingBlock: XUDNAN_clean_linker_2, # of connection points: 2
#     Edge 19, Type (0, 1), BuildingBlock: XUDNAN_clean_linker_2, # of connection points: 2
#     Edge 20, Type (0, 1), BuildingBlock: XUDNAN_clean_linker_2, # of connection points: 2
#     Edge 21, Type (0, 1), BuildingBlock: XUDNAN_clean_linker_2, # of connection points: 2
#     Edge 22, Type (0, 1), BuildingBlock: XUDNAN_clean_linker_2, # of connection points: 2
#     Edge 23, Type (0, 1), BuildingBlock: XUDNAN_clean_linker_2, # of connection points: 2
#     Edge 24, Type (0, 1), BuildingBlock: XUDNAN_clean_linker_2, # of connection points: 2
#     Edge 25, Type (0, 1), BuildingBlock: XUDNAN_clean_linker_2, # of connection points: 2
#     Edge 26, Type (0, 1), BuildingBlock: XUDNAN_clean_linker_2, # of connection points: 2
#     Edge 27, Type (0, 1), BuildingBlock: XUDNAN_clean_linker_2, # of connection points: 2
#     Edge 28, Type (0, 1), BuildingBlock: XUDNAN_clean_linker_2, # of connection points: 2
#     Edge 29, Type (0, 1), BuildingBlock: XUDNAN_clean_linker_2, # of connection points: 2
#     Edge 30, Type (0, 1), BuildingBlock: XUDNAN_clean_linker_2, # of connection points: 2
#     Edge 31, Type (0, 1), BuildingBlock: XUDNAN_clean_linker_2, # of connection points: 2
#     Edge 32, Type (0, 1), BuildingBlock: XUDNAN_clean_linker_2, # of connection points: 2
#     Edge 33, Type (0, 1), BuildingBlock: XUDNAN_clean_linker_2, # of connection points: 2
#     Edge 34, Type (0, 1), BuildingBlock: XUDNAN_clean_linker_2, # of connection points: 2
#     Edge 35, Type (0, 1), BuildingBlock: XUDNAN_clean_linker_2, # of connection points: 2
#     Edge 36, Type (0, 1), BuildingBlock: XUDNAN_clean_linker_2, # of connection points: 2
#     Edge 37, Type (0, 1), BuildingBlock: XUDNAN_clean_linker_2, # of connection points: 2
#     Edge 38, Type (0, 1), BuildingBlock: XUDNAN_clean_linker_2, # of connection points: 2
#     Edge 39, Type (0, 1), BuildingBlock: XUDNAN_clean_linker_2, # of connection points: 2
#     Edge 40, Type (0, 1), BuildingBlock: XUDNAN_clean_linker_2, # of connection points: 2
#     Edge 41, Type (0, 1), BuildingBlock: XUDNAN_clean_linker_2, # of connection points: 2
#     Edge 42, Type (0, 1), BuildingBlock: XUDNAN_clean_linker_2, # of connection points: 2
#     Edge 43, Type (0, 1), BuildingBlock: XUDNAN_clean_linker_2, # of connection points: 2
# Relax obj value: 0.172
# Max RMSD: 0.268
# Mean RMSD: 0.229
data_MOF--net-sqc--node1-TAGTUT_clean_sbu_3--node2-AZAVOO_clean_linker_0--edge1-XUDNAN_clean_linker_2
_symmetry_space_group_name_H-M    P1
_symmetry_Int_Tables_number       1
_symmetry_cell_setting            triclinic
loop_
_symmetry_equiv_pos_as_xyz
'x, y, z'
_cell_length_a     26.175246
_cell_length_b     26.175852
_cell_length_c     91.498156
_cell_angle_alpha  91.545301
_cell_angle_beta   89.810975
_cell_angle_gamma 90.799978
loop_
_atom_site_label
_atom_site_type_symbol
_atom_site_fract_x
_atom_site_fract_y
_atom_site_fract_z
_atom_type_partial_charge
H0 H 0.18363 0.09583 0.61045 0.0
H1 H 0.70108 0.9376 0.52248 0.0
H2 H 0.12746 0.122 0.52375 0.0
H3 H 0.21138 0.15058 0.53272 0.0
H4 H 0.25207 0.99393 0.5397 0.0
H5 H 0.16748 0.96552 0.53087 0.0
H6 H 0.08962 0.11176 0.55284 0.0
H7 H 0.13287 0.12064 0.57648 0.0
H8 H 0.12773 0.95639 0.5805 0.0
H9 H 0.08482 0.9481 0.55679 0.0
H10 H 0.9852 0.0907 0.55759 0.0
H11 H 0.92185 0.09037 0.57723 0.0
H12 H 0.88958 0.93052 0.56803 0.0
H13 H 0.95546 0.93033 0.54879 0.0
H14 H 0.91019 0.08593 0.52774 0.0
H15 H 0.81686 0.0773 0.52745 0.0
H16 H 0.8305 0.91405 0.52029 0.0
H17 H 0.92363 0.92327 0.52071 0.0
H18 H 0.97747 0.09733 0.4973 0.0
H19 H 0.90526 0.09996 0.48028 0.0
H20 H 0.89864 0.9351 0.47872 0.0
H21 H 0.97122 0.93269 0.49546 0.0
H22 H 0.12422 0.08308 0.49599 0.0
H23 H 0.17863 0.0578 0.4751 0.0
H24 H 0.12173 0.90258 0.47786 0.0
H25 H 0.06869 0.9277 0.49867 0.0
O26 O 0.16712 0.09142 0.60105 0.0
O27 O 0.17233 0.00673 0.6013 0.0
O28 O 0.73271 0.02675 0.52519 0.0
O29 O 0.73782 0.94226 0.5225 0.0
C30 C 0.08665 0.02737 0.52564 0.0
C31 C 0.05827 0.02387 0.53876 0.0
C32 C 0.00532 0.01374 0.53822 0.0
C33 C 0.98008 0.0106 0.52465 0.0
C34 C 0.00827 0.0139 0.51154 0.0
C35 C 0.06198 0.01958 0.51201 0.0
C36 C 0.14157 0.0417 0.52656 0.0
C37 C 0.15524 0.09368 0.52663 0.0
C38 C 0.20292 0.10998 0.53187 0.0
C39 C 0.2379 0.07444 0.53697 0.0
C40 C 0.22588 0.022 0.53571 0.0
C41 C 0.17778 0.00572 0.53062 0.0
C42 C 0.08428 0.02929 0.55313 0.0
C43 C 0.09808 0.07777 0.55883 0.0
C44 C 0.1226 0.08273 0.57235 0.0
C45 C 0.13363 0.03922 0.5804 0.0
C46 C 0.11983 0.99066 0.57458 0.0
C47 C 0.09524 0.9858 0.56107 0.0
C48 C 0.97486 0.01058 0.55182 0.0
C49 C 0.96607 0.05512 0.56019 0.0
C50 C 0.92976 0.05488 0.57133 0.0
C51 C 0.90106 0.01036 0.57403 0.0
C52 C 0.91141 0.96515 0.56608 0.0
C53 C 0.94884 0.96507 0.55517 0.0
C54 C 0.92349 0.00526 0.52419 0.0
C55 C 0.89285 0.04841 0.52609 0.0
C56 C 0.83963 0.04334 0.52591 0.0
C57 C 0.81623 0.99493 0.52387 0.0
C58 C 0.84724 0.95184 0.52191 0.0
C59 C 0.9004 0.95698 0.5221 0.0
C60 C 0.97975 0.01481 0.49756 0.0
C61 C 0.96212 0.06181 0.49268 0.0
C62 C 0.92059 0.0633 0.48311 0.0
C63 C 0.89599 0.01776 0.47846 0.0
C64 C 0.91673 0.97074 0.4823 0.0
C65 C 0.9586 0.96928 0.49169 0.0
C66 C 0.09237 0.00723 0.49878 0.0
C67 C 0.12356 0.04373 0.49203 0.0
C68 C 0.15453 0.02926 0.48015 0.0
C69 C 0.15407 0.97831 0.47483 0.0
C70 C 0.1222 0.94226 0.48155 0.0
C71 C 0.09187 0.95656 0.49343 0.0
C72 C 0.15895 0.0446 0.59486 0.0
C73 C 0.75976 0.98917 0.52389 0.0
H74 H 0.49965 0.66783 0.6925 0.0
H75 H 0.33782 0.0632 0.80512 0.0
H76 H 0.28002 0.63851 0.75713 0.0
H77 H 0.29179 0.57174 0.73831 0.0
H78 H 0.44283 0.54402 0.75475 0.0
H79 H 0.43089 0.61137 0.77366 0.0
H80 H 0.3446 0.70868 0.73745 0.0
H81 H 0.39743 0.69247 0.71571 0.0
H82 H 0.53238 0.69335 0.74288 0.0
H83 H 0.47903 0.7092 0.76451 0.0
H84 H 0.29786 0.8172 0.75251 0.0
H85 H 0.31437 0.87376 0.73211 0.0
H86 H 0.47561 0.87287 0.74169 0.0
H87 H 0.45886 0.81684 0.76244 0.0
H88 H 0.25173 0.83895 0.77814 0.0
H89 H 0.23665 0.92879 0.78459 0.0
H90 H 0.39074 0.94313 0.80127 0.0
H91 H 0.40499 0.85291 0.79496 0.0
H92 H 0.21514 0.74854 0.79148 0.0
H93 H 0.16611 0.80918 0.80615 0.0
H94 H 0.29857 0.83986 0.83334 0.0
H95 H 0.34793 0.781 0.81793 0.0
H96 H 0.24002 0.634 0.78286 0.0
H97 H 0.21522 0.55866 0.79675 0.0
H98 H 0.34739 0.58262 0.82443 0.0
H99 H 0.3715 0.65788 0.81054 0.0
O100 O 0.47935 0.67347 0.70124 0.0
O101 O 0.54786 0.68655 0.71522 0.0
O102 O 0.26258 0.01711 0.79483 0.0
O103 O 0.34248 0.02735 0.80269 0.0
C104 C 0.35417 0.68182 0.77371 0.0
C105 C 0.37645 0.72171 0.76566 0.0
C106 C 0.36671 0.77295 0.76961 0.0
C107 C 0.33846 0.78482 0.7823 0.0
C108 C 0.31833 0.74524 0.79097 0.0
C109 C 0.32575 0.69348 0.78656 0.0
C110 C 0.35432 0.62955 0.76691 0.0
C111 C 0.31454 0.61616 0.75724 0.0
C112 C 0.32154 0.57846 0.74636 0.0
C113 C 0.3683 0.55311 0.74505 0.0
C114 C 0.40624 0.56272 0.75565 0.0
C115 C 0.39934 0.60089 0.76651 0.0
C116 C 0.40807 0.70998 0.75251 0.0
C117 C 0.38553 0.70501 0.73867 0.0
C118 C 0.41579 0.6958 0.72629 0.0
C119 C 0.46913 0.69184 0.72756 0.0
C120 C 0.49145 0.69638 0.74151 0.0
C121 C 0.46111 0.70532 0.75388 0.0
C122 C 0.37722 0.81306 0.7589 0.0
C123 C 0.3366 0.83037 0.75048 0.0
C124 C 0.34597 0.86242 0.73886 0.0
C125 C 0.39616 0.87685 0.7354 0.0
C126 C 0.43671 0.86144 0.74418 0.0
C127 C 0.42723 0.82982 0.75598 0.0
C128 C 0.32921 0.83937 0.78626 0.0
C129 C 0.28198 0.86145 0.78332 0.0
C130 C 0.27355 0.9128 0.78696 0.0
C131 C 0.31253 0.94316 0.79344 0.0
C132 C 0.35992 0.92085 0.7963 0.0
C133 C 0.3682 0.86939 0.79271 0.0
C134 C 0.28522 0.7603 0.80356 0.0
C135 C 0.23287 0.76639 0.80105 0.0
C136 C 0.20493 0.80183 0.80944 0.0
C137 C 0.22858 0.83115 0.82075 0.0
C138 C 0.27938 0.81972 0.8244 0.0
C139 C 0.30746 0.78483 0.81585 0.0
C140 C 0.30741 0.65137 0.79575 0.0
C141 C 0.2633 0.62307 0.79199 0.0
C142 C 0.24952 0.57983 0.79985 0.0
C143 C 0.27957 0.56441 0.81163 0.0
C144 C 0.32322 0.59365 0.8155 0.0
C145 C 0.33701 0.63668 0.80761 0.0
C146 C 0.50131 0.68378 0.71435 0.0
C147 C 0.30414 0.99802 0.79703 0.0
H148 H 0.52951 0.95953 0.12074 0.0
H149 H 0.91134 0.21531 0.00913 0.0
H150 H 0.50547 0.01927 0.04447 0.0
H151 H 0.44054 0.99341 0.0619 0.0
H152 H 0.41217 0.1522 0.07288 0.0
H153 H 0.47886 0.17761 0.0556 0.0
H154 H 0.59734 0.00512 0.06147 0.0
H155 H 0.57394 0.97148 0.08531 0.0
H156 H 0.53641 0.1241 0.1007 0.0
H157 H 0.5607 0.15731 0.07688 0.0
H158 H 0.68913 0.02379 0.03802 0.0
H159 H 0.75442 0.9763 0.05076 0.0
H160 H 0.74762 0.08494 0.08704 0.0
H161 H 0.68359 0.1341 0.0739 0.0
H162 H 0.70064 0.07004 0.01327 0.0
H163 H 0.78485 0.08621 0.00258 0.0
H164 H 0.80376 0.2191 0.03126 0.0
H165 H 0.71925 0.20253 0.04184 0.0
H166 H 0.59375 0.08318 -0.00055 0.0
H167 H 0.64332 0.09052 0.97704 0.0
H168 H 0.70607 0.23497 0.99304 0.0
H169 H 0.65305 0.22918 0.01491 0.0
H170 H 0.50025 0.05081 0.01923 0.0
H171 H 0.44176 0.04865 -0.00148 0.0
H172 H 0.46743 0.21017 0.99296 0.0
H173 H 0.52395 0.213 0.01437 0.0
O174 O 0.54002 0.97384 0.11154 0.0
O175 O 0.52035 0.05292 0.11881 0.0
O176 O 0.86659 0.13878 -0.00111 0.0
O177 O 0.87884 0.20687 0.01359 0.0
C178 C 0.54901 0.11338 0.04339 0.0
C179 C 0.59066 0.10347 0.05263 0.0
C180 C 0.64094 0.1085 0.04734 0.0
C181 C 0.65018 0.12908 0.03351 0.0
C182 C 0.60872 0.1407 0.02432 0.0
C183 C 0.55797 0.1308 0.02909 0.0
C184 C 0.49692 0.10035 0.04874 0.0
C185 C 0.48338 0.04859 0.05005 0.0
C186 C 0.44638 0.03383 0.06017 0.0
C187 C 0.42192 0.07068 0.06907 0.0
C188 C 0.43127 0.1228 0.06645 0.0
C189 C 0.46862 0.13752 0.05636 0.0
C190 C 0.58097 0.08367 0.06749 0.0
C191 C 0.58489 0.0313 0.07009 0.0
C192 C 0.57115 0.01217 0.08368 0.0
C193 C 0.55309 0.04508 0.0949 0.0
C194 C 0.55013 0.0977 0.09231 0.0
C195 C 0.56412 0.1168 0.07874 0.0
C196 C 0.68261 0.08288 0.05494 0.0
C197 C 0.70259 0.03807 0.04856 0.0
C198 C 0.73921 0.01072 0.05587 0.0
C199 C 0.75528 0.02714 0.0698 0.0
C200 C 0.73511 0.0717 0.0763 0.0
C201 C 0.69914 0.09982 0.06882 0.0
C202 C 0.70371 0.13538 0.02824 0.0
C203 C 0.72322 0.10235 0.01732 0.0
C204 C 0.77127 0.11177 0.0112 0.0
C205 C 0.8008 0.15431 0.01595 0.0
C206 C 0.78187 0.18621 0.02729 0.0
C207 C 0.73377 0.1767 0.03341 0.0
C208 C 0.6205 0.15513 0.009 0.0
C209 C 0.61568 0.11792 0.99776 0.0
C210 C 0.64497 0.12175 0.98504 0.0
C211 C 0.68053 0.16218 0.98353 0.0
C212 C 0.67956 0.20305 0.99384 0.0
C213 C 0.64915 0.19981 0.0064 0.0
C214 C 0.51567 0.13224 0.01848 0.0
C215 C 0.49132 0.08629 0.01407 0.0
C216 C 0.45845 0.08491 0.00215 0.0
C217 C 0.45065 0.12917 0.99426 0.0
C218 C 0.47321 0.17566 -0.00102 0.0
C219 C 0.50516 0.17731 0.01116 0.0
C220 C 0.53686 0.02441 0.10916 0.0
C221 C 0.85073 0.16592 0.00896 0.0
H222 H 0.15644 0.33916 0.19916 0.0
H223 H 0.54106 0.66261 0.2823 0.0
H224 H 0.28053 0.27822 0.26622 0.0
H225 H 0.23743 0.19883 0.25809 0.0
H226 H 0.38229 0.13758 0.24398 0.0
H227 H 0.42507 0.21794 0.25168 0.0
H228 H 0.26823 0.37841 0.2536 0.0
H229 H 0.20967 0.36912 0.23291 0.0
H230 H 0.32758 0.29289 0.20769 0.0
H231 H 0.3861 0.30326 0.22843 0.0
H232 H 0.31419 0.4615 0.26836 0.0
H233 H 0.27897 0.53296 0.25501 0.0
H234 H 0.38651 0.50485 0.21994 0.0
H235 H 0.42091 0.43234 0.23321 0.0
H236 H 0.38843 0.46154 0.29418 0.0
H237 H 0.41711 0.54858 0.30087 0.0
H238 H 0.52311 0.54521 0.26451 0.0
H239 H 0.49407 0.45832 0.25796 0.0
H240 H 0.40041 0.34727 0.30681 0.0
H241 H 0.44034 0.38174 0.3291 0.0
H242 H 0.57355 0.42585 0.30425 0.0
H243 H 0.5339 0.38968 0.28195 0.0
H244 H 0.36035 0.25971 0.29534 0.0
H245 H 0.38707 0.1851 0.30897 0.0
H246 H 0.53044 0.18406 0.28549 0.0
H247 H 0.50413 0.25969 0.27219 0.0
O248 O 0.18034 0.34268 0.20717 0.0
O249 O 0.24183 0.30258 0.19479 0.0
O250 O 0.46455 0.63306 0.29569 0.0
O251 O 0.52979 0.62786 0.28012 0.0
C252 C 0.38053 0.30434 0.263 0.0
C253 C 0.36702 0.3476 0.25505 0.0
C254 C 0.38702 0.39618 0.25916 0.0
C255 C 0.42035 0.4019 0.27115 0.0
C256 C 0.4342 0.35872 0.27908 0.0
C257 C 0.41489 0.30995 0.27483 0.0
C258 C 0.35589 0.25401 0.25945 0.0
C259 C 0.30301 0.2476 0.26143 0.0
C260 C 0.27848 0.20235 0.25681 0.0
C261 C 0.30658 0.16226 0.2504 0.0
C262 C 0.35987 0.16782 0.249 0.0
C263 C 0.3843 0.21357 0.25339 0.0
C264 C 0.33156 0.34205 0.24244 0.0
C265 C 0.28151 0.36026 0.24354 0.0
C266 C 0.24805 0.35463 0.23173 0.0
C267 C 0.26396 0.33034 0.21863 0.0
C268 C 0.31414 0.31187 0.21761 0.0
C269 C 0.34762 0.31772 0.22942 0.0
C270 C 0.36965 0.44187 0.25164 0.0
C271 C 0.33051 0.47123 0.25788 0.0
C272 C 0.31064 0.51184 0.25032 0.0
C273 C 0.33047 0.52405 0.23658 0.0
C274 C 0.37124 0.49612 0.23062 0.0
C275 C 0.39056 0.45482 0.23809 0.0
C276 C 0.43925 0.45376 0.27561 0.0
C277 C 0.41804 0.47962 0.28774 0.0
C278 C 0.43434 0.52933 0.2915 0.0
C279 C 0.47221 0.55391 0.28316 0.0
C280 C 0.49391 0.52741 0.27115 0.0
C281 C 0.47738 0.47784 0.26737 0.0
C282 C 0.46416 0.36614 0.29274 0.0
C283 C 0.43924 0.36196 0.30627 0.0
C284 C 0.46207 0.38175 0.319 0.0
C285 C 0.50981 0.40672 0.31834 0.0
C286 C 0.53664 0.40683 0.305 0.0
C287 C 0.5141 0.38623 0.2923 0.0
C288 C 0.43049 0.26482 0.28288 0.0
C289 C 0.39755 0.24342 0.29321 0.0
C290 C 0.41281 0.20116 0.30095 0.0
C291 C 0.46069 0.17937 0.2982 0.0
C292 C 0.49332 0.20042 0.2877 0.0
C293 C 0.47847 0.24337 0.28018 0.0
C294 C 0.22822 0.32426 0.20612 0.0
C295 C 0.48854 0.60726 0.28678 0.0
H296 H 0.90725 0.1345 0.20664 0.0
H297 H 0.77141 0.57325 0.32635 0.0
H298 H 0.80518 0.12856 0.28952 0.0
H299 H 0.81928 0.05606 0.27275 0.0
H300 H 0.97908 0.09825 0.26976 0.0
H301 H 0.96504 0.16921 0.2871 0.0
H302 H 0.81166 0.19845 0.26187 0.0
H303 H 0.83679 0.16862 0.23733 0.0
H304 H 0.98936 0.22905 0.24482 0.0
H305 H 0.96341 0.25934 0.26927 0.0
H306 H 0.77736 0.30965 0.26694 0.0
H307 H 0.77534 0.36864 0.24663 0.0
H308 H 0.92649 0.42423 0.25832 0.0
H309 H 0.92835 0.36417 0.27842 0.0
H310 H 0.73936 0.33237 0.30207 0.0
H311 H 0.70266 0.41397 0.31007 0.0
H312 H 0.85484 0.47892 0.31454 0.0
H313 H 0.89099 0.39692 0.3065 0.0
H314 H 0.75367 0.26765 0.32763 0.0
H315 H 0.73603 0.32004 0.34951 0.0
H316 H 0.8933 0.37393 0.34946 0.0
H317 H 0.91089 0.31826 0.32857 0.0
H318 H 0.76759 0.17853 0.31782 0.0
H319 H 0.75684 0.10629 0.33396 0.0
H320 H 0.92079 0.09633 0.33799 0.0
H321 H 0.93112 0.16957 0.32191 0.0
O322 O 0.89753 0.14874 0.2161 0.0
O323 O 0.97496 0.18194 0.22027 0.0
O324 O 0.70755 0.5072 0.319 0.0
O325 O 0.78494 0.5411 0.32272 0.0
C326 C 0.87144 0.20778 0.29353 0.0
C327 C 0.87149 0.24511 0.28258 0.0
C328 C 0.85497 0.29501 0.2859 0.0
C329 C 0.83927 0.3079 0.30024 0.0
C330 C 0.84138 0.27124 0.31133 0.0
C331 C 0.85563 0.22053 0.30791 0.0
C332 C 0.88391 0.15456 0.28923 0.0
C333 C 0.84378 0.12028 0.28596 0.0
C334 C 0.85182 0.07926 0.27625 0.0
C335 C 0.89987 0.0728 0.26958 0.0
C336 C 0.9416 0.10245 0.27467 0.0
C337 C 0.93365 0.14306 0.28457 0.0
C338 C 0.88581 0.23081 0.26731 0.0
C339 C 0.85033 0.20561 0.25811 0.0
C340 C 0.86487 0.18843 0.24414 0.0
C341 C 0.91526 0.19588 0.23918 0.0
C342 C 0.95033 0.22242 0.24833 0.0
C343 C 0.93561 0.23991 0.26226 0.0
C344 C 0.85278 0.33305 0.27419 0.0
C345 C 0.80982 0.33486 0.26514 0.0
C346 C 0.80878 0.36864 0.25357 0.0
C347 C 0.85078 0.40126 0.25083 0.0
C348 C 0.89378 0.39925 0.25999 0.0
C349 C 0.89474 0.36541 0.27157 0.0
C350 C 0.81773 0.35898 0.30364 0.0
C351 C 0.76464 0.36452 0.3046 0.0
C352 C 0.74381 0.41107 0.30923 0.0
C353 C 0.77584 0.45295 0.313 0.0
C354 C 0.82911 0.44743 0.31175 0.0
C355 C 0.84987 0.40081 0.30707 0.0
C356 C 0.83366 0.28886 0.32663 0.0
C357 C 0.78477 0.28869 0.33289 0.0
C358 C 0.77459 0.31973 0.3452 0.0
C359 C 0.81284 0.35252 0.35115 0.0
C360 C 0.86277 0.34909 0.34546 0.0
C361 C 0.8731 0.31713 0.33343 0.0
C362 C 0.85008 0.17989 0.31887 0.0
C363 C 0.80118 0.16144 0.32242 0.0
C364 C 0.79516 0.11962 0.33147 0.0
C365 C 0.838 0.09519 0.33717 0.0
C366 C 0.88705 0.11445 0.33385 0.0
C367 C 0.89303 0.15626 0.32469 0.0
C368 C 0.9312 0.17531 0.22462 0.0
C369 C 0.75387 0.50196 0.31839 0.0
H370 H 0.56029 0.85559 0.70337 0.0
H371 H 0.82996 0.49615 0.819 0.0
H372 H 0.81058 0.90663 0.76452 0.0
H373 H 0.79564 0.98506 0.75131 0.0
H374 H 0.63711 0.98043 0.76436 0.0
H375 H 0.65267 0.90316 0.77817 0.0
H376 H 0.73138 0.83954 0.74406 0.0
H377 H 0.67131 0.84978 0.72397 0.0
H378 H 0.54813 0.79612 0.75142 0.0
H379 H 0.60821 0.78776 0.77163 0.0
H380 H 0.72455 0.71887 0.74807 0.0
H381 H 0.68163 0.64319 0.73758 0.0
H382 H 0.61095 0.61401 0.77933 0.0
H383 H 0.65286 0.69149 0.78971 0.0
H384 H 0.81646 0.67986 0.77006 0.0
H385 H 0.8467 0.59566 0.77686 0.0
H386 H 0.76328 0.60914 0.81763 0.0
H387 H 0.73275 0.69293 0.81058 0.0
H388 H 0.8853 0.76549 0.78622 0.0
H389 H 0.94234 0.71669 0.80147 0.0
H390 H 0.8352 0.73062 0.83733 0.0
H391 H 0.7792 0.78076 0.8221 0.0
H392 H 0.87309 0.87579 0.78561 0.0
H393 H 0.91665 0.93539 0.80292 0.0
H394 H 0.77713 0.94901 0.82792 0.0
H395 H 0.73363 0.89064 0.81052 0.0
O396 O 0.58326 0.85247 0.71158 0.0
O397 O 0.52668 0.80746 0.72428 0.0
O398 O 0.85511 0.52091 0.7941 0.0
O399 O 0.81669 0.52818 0.81575 0.0
C400 C 0.73965 0.84635 0.77762 0.0
C401 C 0.71137 0.80478 0.77132 0.0
C402 C 0.72013 0.75461 0.77603 0.0
C403 C 0.75873 0.74553 0.78627 0.0
C404 C 0.78676 0.78683 0.79252 0.0
C405 C 0.77641 0.83708 0.78846 0.0
C406 C 0.73267 0.89891 0.77226 0.0
C407 C 0.77312 0.92363 0.76506 0.0
C408 C 0.76455 0.96831 0.75748 0.0
C409 C 0.71522 0.98839 0.7568 0.0
C410 C 0.67545 0.96547 0.76474 0.0
C411 C 0.68429 0.92143 0.77258 0.0
C412 C 0.67422 0.81307 0.75935 0.0
C413 C 0.69129 0.83075 0.7458 0.0
C414 C 0.65695 0.83635 0.73432 0.0
C415 C 0.60504 0.8234 0.73608 0.0
C416 C 0.58795 0.80605 0.74969 0.0
C417 C 0.62217 0.80128 0.76125 0.0
C418 C 0.69143 0.71067 0.76958 0.0
C419 C 0.6989 0.69689 0.75486 0.0
C420 C 0.67438 0.65381 0.74892 0.0
C421 C 0.64277 0.62338 0.75769 0.0
C422 C 0.63501 0.63724 0.77242 0.0
C423 C 0.65888 0.68111 0.7783 0.0
C424 C 0.77253 0.69238 0.78984 0.0
C425 C 0.80418 0.66416 0.78035 0.0
C426 C 0.82156 0.61623 0.7843 0.0
C427 C 0.80761 0.59578 0.79783 0.0
C428 C 0.77486 0.62379 0.80715 0.0
C429 C 0.75728 0.67158 0.80315 0.0
C430 C 0.82795 0.77594 0.80303 0.0
C431 C 0.87548 0.76027 0.7976 0.0
C432 C 0.90773 0.732 0.80628 0.0
C433 C 0.89254 0.71865 0.82046 0.0
C434 C 0.84801 0.74026 0.82647 0.0
C435 C 0.81591 0.76894 0.81779 0.0
C436 C 0.8003 0.87959 0.79684 0.0
C437 C 0.85175 0.89294 0.7946 0.0
C438 C 0.87648 0.92649 0.80445 0.0
C439 C 0.85001 0.94582 0.81669 0.0
C440 C 0.79805 0.93399 0.81855 0.0
C441 C 0.77322 0.90123 0.80861 0.0
C442 C 0.56914 0.82731 0.72367 0.0
C443 C 0.82782 0.54597 0.80237 0.0
H444 H 0.48393 0.33856 0.95326 0.0
H445 H 0.82751 0.61373 0.06836 0.0
H446 H 0.43094 0.56882 -0.00012 0.0
H447 H 0.35873 0.53162 0.98661 0.0
H448 H 0.31735 0.44487 0.02459 0.0
H449 H 0.39235 0.48026 0.03745 0.0
H450 H 0.52016 0.52364 0.98924 0.0
H451 H 0.50818 0.45532 0.97072 0.0
H452 H 0.47317 0.34899 0.00484 0.0
H453 H 0.48576 0.41762 0.02324 0.0
H454 H 0.60278 0.56932 -0.00103 0.0
H455 H 0.67906 0.54017 0.98589 0.0
H456 H 0.69731 0.42058 0.01703 0.0
H457 H 0.62035 0.45013 0.03008 0.0
H458 H 0.62987 0.63918 0.02337 0.0
H459 H 0.71671 0.6639 0.03085 0.0
H460 H 0.71157 0.54971 0.06413 0.0
H461 H 0.62515 0.52476 0.05633 0.0
H462 H 0.54142 0.6897 0.03949 0.0
H463 H 0.60049 0.74063 0.05482 0.0
H464 H 0.59989 0.62103 0.08641 0.0
H465 H 0.54216 0.57035 0.07098 0.0
H466 H 0.39488 0.62831 0.02719 0.0
H467 H 0.31595 0.64947 0.03966 0.0
H468 H 0.37881 0.59312 0.07989 0.0
H469 H 0.45278 0.56397 0.06657 0.0
O470 O 0.48857 0.36501 0.96075 0.0
O471 O 0.47058 0.31199 0.97871 0.0
O472 O 0.79735 0.65679 0.04635 0.0
O473 O 0.79386 0.60361 0.06489 0.0
C474 C 0.46849 0.53946 0.02572 0.0
C475 C 0.51137 0.51665 0.01887 0.0
C476 C 0.56097 0.53086 0.02332 0.0
C477 C 0.56827 0.56613 0.03496 0.0
C478 C 0.52576 0.58782 0.04231 0.0
C479 C 0.47533 0.57438 0.03776 0.0
C480 C 0.41721 0.52684 0.01956 0.0
C481 C 0.40557 0.54262 0.00544 0.0
C482 C 0.36386 0.52142 0.99789 0.0
C483 C 0.33223 0.48447 0.00439 0.0
C484 C 0.34153 0.47218 0.01907 0.0
C485 C 0.38395 0.49288 0.02655 0.0
C486 C 0.50426 0.47539 0.00756 0.0
C487 C 0.51034 0.48547 0.99268 0.0
C488 C 0.50324 0.44642 0.98214 0.0
C489 C 0.48981 0.39664 0.9863 0.0
C490 C 0.48357 0.38685 0.00125 0.0
C491 C 0.49075 0.42592 0.01178 0.0
C492 C 0.60581 0.51114 0.01525 0.0
C493 C 0.62296 0.53649 0.00285 0.0
C494 C 0.66648 0.51994 0.99546 0.0
C495 C 0.6938 0.47805 0.00045 0.0
C496 C 0.67698 0.45314 0.01304 0.0
C497 C 0.63302 0.46955 0.02039 0.0
C498 C 0.62125 0.58055 0.0394 0.0
C499 C 0.64774 0.61944 0.03222 0.0
C500 C 0.69729 0.63341 0.03651 0.0
C501 C 0.72102 0.60885 0.04812 0.0
C502 C 0.69439 0.56949 0.05518 0.0
C503 C 0.64505 0.5552 0.05077 0.0
C504 C 0.53686 0.62636 0.05414 0.0
C505 C 0.55147 0.67593 0.05015 0.0
C506 C 0.58603 0.7046 0.0588 0.0
C507 C 0.60564 0.68444 0.07169 0.0
C508 C 0.58533 0.63792 0.07661 0.0
C509 C 0.55144 0.60903 0.06787 0.0
C510 C 0.4301 0.59443 0.04589 0.0
C511 C 0.39109 0.61981 0.03866 0.0
C512 C 0.34591 0.63278 0.04599 0.0
C513 C 0.33949 0.62312 0.061 0.0
C514 C 0.3802 0.59995 0.06831 0.0
C515 C 0.42404 0.58459 0.06077 0.0
C516 C 0.48235 0.35522 0.97508 0.0
C517 C 0.77309 0.62454 0.05299 0.0
H518 H 0.21262 0.29561 0.59947 0.0
H519 H 0.4439 0.61203 0.48965 0.0
H520 H 0.06075 0.41682 0.54579 0.0
H521 H 0.00612 0.4 0.56672 0.0
H522 H 0.99839 0.5626 0.57626 0.0
H523 H 0.05698 0.57834 0.55604 0.0
H524 H 0.16783 0.38387 0.54301 0.0
H525 H 0.18602 0.33321 0.56441 0.0
H526 H 0.17743 0.46976 0.59195 0.0
H527 H 0.16007 0.52012 0.57038 0.0
H528 H 0.24323 0.40766 0.52536 0.0
H529 H 0.32818 0.38 0.53318 0.0
H530 H 0.34944 0.52377 0.55689 0.0
H531 H 0.2648 0.55043 0.54928 0.0
H532 H 0.23233 0.47108 0.49883 0.0
H533 H 0.3141 0.48494 0.48634 0.0
H534 H 0.33536 0.62701 0.51094 0.0
H535 H 0.25384 0.61239 0.5234 0.0
H536 H 0.12804 0.52205 0.4893 0.0
H537 H 0.15938 0.56965 0.46838 0.0
H538 H 0.1908 0.7002 0.49704 0.0
H539 H 0.15822 0.65278 0.51768 0.0
H540 H 0.01939 0.48239 0.51769 0.0
H541 H 0.93494 0.51209 0.51086 0.0
H542 H 0.98276 0.6679 0.52078 0.0
H543 H 0.06742 0.63764 0.52762 0.0
O544 O 0.20448 0.31629 0.59121 0.0
O545 O 0.19715 0.38706 0.60502 0.0
O546 O 0.40069 0.53007 0.48315 0.0
O547 O 0.41038 0.6068 0.4939 0.0
C548 C 0.10648 0.50759 0.53903 0.0
C549 C 0.15473 0.48656 0.542 0.0
C550 C 0.19667 0.49723 0.53288 0.0
C551 C 0.19128 0.52895 0.52087 0.0
C552 C 0.14345 0.5502 0.51776 0.0
C553 C 0.10074 0.53921 0.52677 0.0
C554 C 0.06355 0.49875 0.54946 0.0
C555 C 0.04684 0.44883 0.55233 0.0
C556 C 0.01516 0.43935 0.56431 0.0
C557 C 0.99817 0.47981 0.57349 0.0
C558 C 0.01185 0.53019 0.56982 0.0
C559 C 0.04459 0.53948 0.55803 0.0
C560 C 0.16278 0.45561 0.55516 0.0
C561 C 0.16992 0.40273 0.55368 0.0
C562 C 0.18024 0.3739 0.56592 0.0
C563 C 0.18335 0.39745 0.57989 0.0
C564 C 0.17538 0.45044 0.58135 0.0
C565 C 0.1653 0.47927 0.56907 0.0
C566 C 0.24813 0.48063 0.53697 0.0
C567 C 0.26656 0.433 0.5322 0.0
C568 C 0.31488 0.41752 0.53656 0.0
C569 C 0.34533 0.45008 0.54546 0.0
C570 C 0.32712 0.49841 0.54978 0.0
C571 C 0.27873 0.51345 0.54561 0.0
C572 C 0.23713 0.54093 0.51191 0.0
C573 C 0.25438 0.50553 0.50131 0.0
C574 C 0.30119 0.51341 0.49427 0.0
C575 C 0.33151 0.55684 0.49777 0.0
C576 C 0.31308 0.5931 0.50803 0.0
C577 C 0.2664 0.58504 0.5151 0.0
C578 C 0.14048 0.584 0.50502 0.0
C579 C 0.13894 0.56189 0.49089 0.0
C580 C 0.1578 0.58892 0.47899 0.0
C581 C 0.17883 0.63841 0.48105 0.0
C582 C 0.17473 0.66238 0.49496 0.0
C583 C 0.15566 0.63538 0.50683 0.0
C584 C 0.04963 0.55794 0.52295 0.0
C585 C 0.0115 0.5229 0.51846 0.0
C586 C 0.96319 0.53991 0.5147 0.0
C587 C 0.95219 0.59234 0.51534 0.0
C588 C 0.99032 0.62733 0.52007 0.0
C589 C 0.03867 0.6102 0.5239 0.0
C590 C 0.19531 0.36681 0.59283 0.0
C591 C 0.38284 0.56361 0.49112 0.0
C592 C 0.10273 0.7152 0.1749 0.0
C593 C 0.91448 0.65317 0.17526 0.0
C594 C 0.90236 0.73835 0.13487 0.0
Mg595 Mg 0.15757 0.8149 0.16188 0.0
Mg596 Mg 0.09434 0.91982 0.15571 0.0
O597 O 0.0991 0.84931 0.15232 0.0
Mg598 Mg 0.04217 0.80306 0.15868 0.0
O599 O 0.98975 0.75228 0.16501 0.0
Mg600 Mg 0.00811 0.69273 0.15205 0.0
Mg601 Mg 0.92063 0.76677 0.16689 0.0
C602 C 0.99 0.89322 0.13973 0.0
O603 O 0.01354 0.85753 0.17724 0.0
O604 O 0.21084 0.87068 0.14892 0.0
O605 O 0.92897 0.83878 0.17849 0.0
O606 O 0.15873 0.87259 0.18183 0.0
O607 O 0.16446 0.9411 0.14515 0.0
O608 O 0.10361 0.93559 0.17861 0.0
O609 O 0.06542 0.74737 0.1402 0.0
O610 O 0.15036 0.75842 0.14238 0.0
C611 C 0.11132 0.73679 0.13625 0.0
C612 C 0.20561 0.91558 0.14377 0.0
O613 O 0.99033 0.84641 0.14351 0.0
O614 O 0.952 0.64388 0.16648 0.0
O615 O 0.02318 0.92691 0.14404 0.0
O616 O 0.94159 0.70936 0.13524 0.0
O617 O 0.89663 0.69812 0.17729 0.0
O618 O 0.8893 0.76652 0.14575 0.0
O619 O 0.09808 0.76315 0.17299 0.0
O620 O 0.07261 0.68219 0.16868 0.0
C621 C 0.13608 0.91306 0.18646 0.0
C622 C 0.96813 0.86638 0.18199 0.0
C623 C 0.62622 0.87323 0.4315 0.0
C624 C 0.6847 0.69698 0.4505 0.0
C625 C 0.6781 0.65028 0.40533 0.0
Mg626 Mg 0.55669 0.89894 0.40327 0.0
Mg627 Mg 0.4879 0.81305 0.38417 0.0
O628 O 0.54875 0.8293 0.39383 0.0
Mg629 Mg 0.57841 0.78786 0.40945 0.0
O630 O 0.61204 0.75048 0.42525 0.0
Mg631 Mg 0.68454 0.76976 0.42062 0.0
Mg632 Mg 0.59705 0.68098 0.42789 0.0
C633 C 0.53628 0.70312 0.38408 0.0
O634 O 0.50091 0.76498 0.41997 0.0
O635 O 0.53128 0.93145 0.38107 0.0
O636 O 0.51379 0.68693 0.42908 0.0
O637 O 0.47198 0.89793 0.41145 0.0
O638 O 0.4944 0.86816 0.36751 0.0
O639 O 0.42971 0.83532 0.39923 0.0
O640 O 0.65708 0.80928 0.39955 0.0
O641 O 0.63815 0.8913 0.39531 0.0
C642 C 0.66976 0.8543 0.39522 0.0
C643 C 0.51162 0.91393 0.36907 0.0
O644 O 0.56761 0.71599 0.39436 0.0
O645 O 0.70453 0.73076 0.44218 0.0
O646 O 0.50258 0.73331 0.37918 0.0
O647 O 0.70037 0.69307 0.40837 0.0
O648 O 0.64267 0.67342 0.44736 0.0
O649 O 0.63408 0.6389 0.41043 0.0
O650 O 0.58667 0.86055 0.42385 0.0
O651 O 0.6649 0.84402 0.4323 0.0
C652 C 0.43113 0.87158 0.40883 0.0
C653 C 0.48451 0.72444 0.42623 0.0
C654 C 0.61802 0.17802 0.67082 0.0
C655 C 0.45044 0.10665 0.65557 0.0
C656 C 0.46993 0.18546 0.61507 0.0
Mg657 Mg 0.68535 0.27686 0.6626 0.0
Mg658 Mg 0.63704 0.37994 0.64889 0.0
O659 O 0.64252 0.30915 0.64741 0.0
Mg660 Mg 0.58087 0.2636 0.6484 0.0
O661 O 0.52424 0.21213 0.64965 0.0
Mg662 Mg 0.55791 0.15159 0.64015 0.0
Mg663 Mg 0.45404 0.22027 0.64751 0.0
C664 C 0.55762 0.3521 0.62396 0.0
O665 O 0.53156 0.31825 0.66295 0.0
O666 O 0.75197 0.32992 0.65435 0.0
O667 O 0.44905 0.29268 0.65993 0.0
O668 O 0.66051 0.33538 0.68077 0.0
O669 O 0.71567 0.39969 0.64528 0.0
O670 O 0.61407 0.39589 0.67065 0.0
O671 O 0.62434 0.20611 0.63417 0.0
O672 O 0.70128 0.21774 0.64454 0.0
C673 C 0.67161 0.19445 0.63532 0.0
C674 C 0.75497 0.37337 0.64815 0.0
O675 O 0.55102 0.30587 0.62817 0.0
O676 O 0.49283 0.10136 0.64871 0.0
O677 O 0.58475 0.38547 0.63106 0.0
O678 O 0.51124 0.16315 0.61874 0.0
O679 O 0.42928 0.15017 0.65747 0.0
O680 O 0.44347 0.21168 0.62428 0.0
O681 O 0.61587 0.2258 0.66819 0.0
O682 O 0.59895 0.14424 0.66195 0.0
C683 C 0.63149 0.37431 0.68186 0.0
C684 C 0.48338 0.32314 0.66538 0.0
C685 C 0.14879 0.32641 0.92207 0.0
C686 C 0.20906 0.141 0.91604 0.0
C687 C 0.12209 0.13514 0.87626 0.0
Mg688 Mg 0.05319 0.38588 0.90759 0.0
Mg689 Mg 0.94741 0.32681 0.89508 0.0
O690 O 0.01824 0.32767 0.89685 0.0
Mg691 Mg 0.06129 0.27052 0.90294 0.0
O692 O 0.11063 0.21735 0.90859 0.0
Mg693 Mg 0.16973 0.23823 0.89586 0.0
Mg694 Mg 0.09473 0.14788 0.90875 0.0
C695 C 0.97292 0.21625 0.88224 0.0
O696 O 0.00301 0.2375 0.92007 0.0
O697 O 0.00653 0.44078 0.89294 0.0
O698 O 0.02336 0.15401 0.92048 0.0
O699 O 0.98977 0.3865 0.92535 0.0
O700 O 0.94404 0.3934 0.88212 0.0
O701 O 0.92057 0.34436 0.9167 0.0
O702 O 0.11871 0.29728 0.88541 0.0
O703 O 0.11362 0.38131 0.89001 0.0
C704 C 0.13329 0.34336 0.88308 0.0
C705 C 0.97015 0.43494 0.8836 0.0
O706 O 0.01906 0.21878 0.88679 0.0
O707 O 0.21653 0.17977 0.908 0.0
O708 O 0.93945 0.25066 0.88497 0.0
O709 O 0.15275 0.17381 0.87765 0.0
O710 O 0.16439 0.12265 0.91863 0.0
O711 O 0.09256 0.12167 0.8866 0.0
O712 O 0.10048 0.3245 0.91961 0.0
O713 O 0.1802 0.29829 0.91472 0.0
C714 C 0.94396 0.36956 0.92685 0.0
C715 C 0.99443 0.19139 0.92422 0.0
H716 H 0.25603 0.0001 0.47108 0.0
H717 H 0.1277 0.9179 0.45124 0.0
H718 H 0.1848 0.88277 0.43207 0.0
H719 H 0.32113 0.03184 0.43705 0.0
H720 H 0.38392 0.02261 0.44449 0.0
H721 H 0.33252 0.04314 0.4563 0.0
H722 H 0.34826 0.96616 0.4729 0.0
H723 H 0.39946 0.9453 0.46108 0.0
H724 H 0.3471 0.9023 0.46499 0.0
H725 H 0.25549 0.85323 0.416 0.0
H726 H 0.33543 0.83379 0.40297 0.0
H727 H 0.41872 0.93606 0.43289 0.0
C728 C 0.23986 0.97555 0.46252 0.0
C729 C 0.18751 0.9617 0.46259 0.0
C730 C 0.16781 0.92865 0.4514 0.0
C731 C 0.19986 0.90863 0.44047 0.0
C732 C 0.25144 0.92218 0.44088 0.0
C733 C 0.27138 0.9551 0.45152 0.0
C734 C 0.32856 0.96219 0.44963 0.0
C735 C 0.34233 0.01828 0.44669 0.0
C736 C 0.35753 0.94283 0.46295 0.0
C737 C 0.33751 0.92821 0.43623 0.0
C738 C 0.29248 0.90538 0.43144 0.0
C739 C 0.29097 0.87123 0.41954 0.0
C740 C 0.33671 0.86037 0.41224 0.0
C741 C 0.38342 0.8837 0.41683 0.0
C742 C 0.38364 0.91804 0.42902 0.0
H743 H 0.37034 0.97415 0.72891 0.0
H744 H 0.442 0.83764 0.7112 0.0
H745 H 0.45328 0.87892 0.68737 0.0
H746 H 0.30327 0.00866 0.69592 0.0
H747 H 0.31461 0.07629 0.69873 0.0
H748 H 0.30976 0.03529 0.7142 0.0
H749 H 0.39879 0.0667 0.72333 0.0
H750 H 0.40333 0.10851 0.70808 0.0
H751 H 0.45281 0.06285 0.71111 0.0
H752 H 0.4582 0.9349 0.66597 0.0
H753 H 0.46826 0.0063 0.64917 0.0
H754 H 0.39378 0.10737 0.68075 0.0
C755 C 0.38845 0.95329 0.71996 0.0
C756 C 0.406 0.90325 0.72174 0.0
C757 C 0.42945 0.87652 0.70997 0.0
C758 C 0.43524 0.89933 0.6964 0.0
C759 C 0.41711 0.94868 0.69489 0.0
C760 C 0.39486 0.97567 0.70638 0.0
C761 C 0.38189 0.0294 0.70211 0.0
C762 C 0.32393 0.03788 0.70278 0.0
C763 C 0.41096 0.0692 0.71172 0.0
C764 C 0.40115 0.02867 0.68649 0.0
C765 C 0.4204 0.98139 0.68248 0.0
C766 C 0.44297 0.97201 0.66891 0.0
C767 C 0.44832 0.01275 0.65943 0.0
C768 C 0.43158 0.06225 0.66365 0.0
C769 C 0.4059 0.06973 0.67711 0.0
H770 H 0.35169 0.09934 0.98987 0.0
H771 H 0.4886 0.15059 0.96755 0.0
H772 H 0.44386 0.14218 0.94382 0.0
H773 H 0.30318 0.00962 0.96084 0.0
H774 H 0.23773 0.0278 0.96386 0.0
H775 H 0.28241 0.03021 0.97883 0.0
H776 H 0.26192 0.1258 0.98392 0.0
H777 H 0.21667 0.12322 0.96918 0.0
H778 H 0.26768 0.17021 0.96926 0.0
H779 H 0.38353 0.13622 0.92326 0.0
H780 H 0.30844 0.14482 0.90742 0.0
H781 H 0.20934 0.09895 0.94297 0.0
C782 C 0.37215 0.10801 0.9799 0.0
C783 C 0.42327 0.12539 0.98033 0.0
C784 C 0.44917 0.13742 0.96727 0.0
C785 C 0.42435 0.1321 0.9538 0.0
C786 C 0.37377 0.11482 0.95368 0.0
C787 C 0.34768 0.10359 0.96639 0.0
C788 C 0.2918 0.09223 0.96343 0.0
C789 C 0.27799 0.03664 0.96695 0.0
C790 C 0.25753 0.13013 0.97194 0.0
C791 C 0.29019 0.1006 0.94714 0.0
C792 C 0.3382 0.11227 0.9417 0.0
C793 C 0.34586 0.12637 0.9273 0.0
C794 C 0.30303 0.13115 0.9184 0.0
C795 C 0.25333 0.12228 0.924 0.0
C796 C 0.24704 0.10467 0.93833 0.0
H797 H 0.22613 0.15918 0.23162 0.0
H798 H 0.32835 0.0619 0.25509 0.0
H799 H 0.28607 0.98531 0.2438 0.0
H800 H 0.11267 0.07767 0.23259 0.0
H801 H 0.09379 0.09087 0.21411 0.0
H802 H 0.12834 0.13841 0.22487 0.0
H803 H 0.19886 0.14469 0.20533 0.0
H804 H 0.16435 0.09896 0.19401 0.0
H805 H 0.2299 0.08746 0.19875 0.0
H806 H 0.23833 0.92035 0.22812 0.0
H807 H 0.19355 0.87261 0.20823 0.0
H808 H 0.122 0.01278 0.19517 0.0
C809 C 0.23872 0.12167 0.23465 0.0
C810 C 0.2799 0.11618 0.24437 0.0
C811 C 0.29662 0.06668 0.24771 0.0
C812 C 0.27263 0.0231 0.24143 0.0
C813 C 0.2322 0.02982 0.23179 0.0
C814 C 0.21568 0.07794 0.22834 0.0
C815 C 0.17515 0.07521 0.21659 0.0
C816 C 0.12443 0.09674 0.22238 0.0
C817 C 0.19317 0.10321 0.20287 0.0
C818 C 0.17177 0.01794 0.21379 0.0
C819 C 0.20466 0.99237 0.22276 0.0
C820 C 0.21186 0.93982 0.2212 0.0
C821 C 0.18625 0.913 0.20986 0.0
C822 C 0.15397 0.93879 0.20019 0.0
C823 C 0.14551 0.99164 0.20255 0.0
H824 H 0.238 0.13912 0.56057 0.0
H825 H 0.33843 0.04781 0.53307 0.0
H826 H 0.41211 0.07459 0.54866 0.0
H827 H 0.32564 0.2442 0.56966 0.0
H828 H 0.30363 0.24906 0.58838 0.0
H829 H 0.2608 0.22697 0.57415 0.0
H830 H 0.24223 0.14516 0.5882 0.0
H831 H 0.28483 0.16634 0.60257 0.0
H832 H 0.29412 0.10512 0.59352 0.0
H833 H 0.47325 0.107 0.56849 0.0
H834 H 0.5153 0.13713 0.59137 0.0
H835 H 0.37312 0.2059 0.6058 0.0
C836 C 0.2758 0.12591 0.55761 0.0
C837 C 0.28302 0.09241 0.54546 0.0
C838 C 0.33249 0.07405 0.54225 0.0
C839 C 0.37441 0.08922 0.551 0.0
C840 C 0.36593 0.1223 0.56297 0.0
C841 C 0.31766 0.14004 0.56631 0.0
C842 C 0.31734 0.17089 0.58052 0.0
C843 C 0.30098 0.2261 0.57802 0.0
C844 C 0.28263 0.1453 0.59188 0.0
C845 C 0.3731 0.16807 0.5847 0.0
C846 C 0.40066 0.14011 0.57444 0.0
C847 C 0.45217 0.12944 0.57651 0.0
C848 C 0.47576 0.14674 0.58955 0.0
C849 C 0.44781 0.17432 0.60038 0.0
C850 C 0.39603 0.18578 0.59769 0.0
H851 H 0.27126 0.92275 0.831 0.0
H852 H 0.12537 0.84258 0.8264 0.0
H853 H 0.08162 0.91857 0.83638 0.0
H854 H 0.24108 0.97918 0.86597 0.0
H855 H 0.27652 0.03734 0.86273 0.0
H856 H 0.29538 0.97848 0.8538 0.0
H857 H 0.28906 0.02179 0.82893 0.0
H858 H 0.26823 0.08051 0.83759 0.0
H859 H 0.2297 0.04991 0.82351 0.0
H860 H 0.05355 0.00162 0.84804 0.0
H861 H 0.04498 0.07971 0.86352 0.0
H862 H 0.2088 0.10477 0.86174 0.0
C863 C 0.23015 0.92058 0.83219 0.0
C864 C 0.20204 0.87612 0.82771 0.0
C865 C 0.14809 0.8761 0.82936 0.0
C866 C 0.12273 0.91923 0.83507 0.0
C867 C 0.15166 0.96228 0.83923 0.0
C868 C 0.20426 0.96296 0.8381 0.0
C869 C 0.22675 0.01225 0.84461 0.0
C870 C 0.26199 0.00114 0.85755 0.0
C871 C 0.25509 0.04294 0.83295 0.0
C872 C 0.1786 0.03911 0.84967 0.0
C873 C 0.13561 0.00988 0.84626 0.0
C874 C 0.08693 0.02493 0.85065 0.0
C875 C 0.08234 0.06959 0.85935 0.0
C876 C 0.12605 0.0988 0.86362 0.0
C877 C 0.17457 0.08423 0.85826 0.0
H878 H 0.35617 0.98781 0.07159 0.0
H879 H 0.42265 0.11586 0.09641 0.0
H880 H 0.37876 0.08673 0.11859 0.0
H881 H 0.2348 0.98549 0.08953 0.0
H882 H 0.22956 0.91674 0.08929 0.0
H883 H 0.2659 0.94817 0.07534 0.0
H884 H 0.34486 0.8946 0.08176 0.0
H885 H 0.30886 0.86342 0.09587 0.0
H886 H 0.36822 0.89592 0.10028 0.0
H887 H 0.32523 0.04585 0.13788 0.0
H888 H 0.26432 0.99604 0.15284 0.0
H889 H 0.23753 0.89125 0.11615 0.0
C890 C 0.3616 0.00973 0.08168 0.0
C891 C 0.39234 0.05466 0.08214 0.0
C892 C 0.3982 0.08221 0.09561 0.0
C893 C 0.37397 0.06557 0.10835 0.0
C894 C 0.34439 0.02098 0.10752 0.0
C895 C 0.3381 0.99339 0.09455 0.0
C896 C 0.30395 0.94688 0.09663 0.0
C897 C 0.25569 0.94951 0.08714 0.0
C898 C 0.33324 0.89727 0.09345 0.0
C899 C 0.29137 0.95311 0.11275 0.0
C900 C 0.31524 0.99608 0.11883 0.0
C901 C 0.30702 0.01166 0.13332 0.0
C902 C 0.27268 0.98316 0.14174 0.0
C903 C 0.24774 0.93935 0.13569 0.0
C904 C 0.25764 0.92373 0.1211 0.0
H905 H 0.46829 0.17235 0.32765 0.0
H906 H 0.48746 0.0863 0.28692 0.0
H907 H 0.5075 0.00898 0.30075 0.0
H908 H 0.57178 0.10946 0.34739 0.0
H909 H 0.53724 0.11157 0.36446 0.0
H910 H 0.52773 0.16043 0.35127 0.0
H911 H 0.43034 0.14084 0.35144 0.0
H912 H 0.43956 0.09178 0.36453 0.0
H913 H 0.40785 0.07654 0.34748 0.0
H914 H 0.51593 0.94003 0.31896 0.0
H915 H 0.51954 0.88478 0.34039 0.0
H916 H 0.50016 0.01741 0.36924 0.0
C917 C 0.47731 0.13725 0.32171 0.0
C918 C 0.47634 0.13464 0.30632 0.0
C919 C 0.48838 0.08857 0.29875 0.0
C920 C 0.49969 0.0447 0.3065 0.0
C921 C 0.49962 0.04824 0.32172 0.0
C922 C 0.48954 0.09351 0.32925 0.0
C923 C 0.49095 0.08691 0.3456 0.0
C924 C 0.53453 0.119 0.35259 0.0
C925 C 0.43909 0.09976 0.35267 0.0
C926 C 0.50171 0.03044 0.34611 0.0
C927 C 0.50655 0.00884 0.33223 0.0
C928 C 0.51306 0.95657 0.32989 0.0
C929 C 0.5147 0.92554 0.34209 0.0
C930 C 0.51034 0.94709 0.35639 0.0
C931 C 0.50433 0.00021 0.35841 0.0
H932 H 0.90211 0.04365 0.60223 0.0
H933 H 0.80151 0.98889 0.56763 0.0
H934 H 0.72661 0.01778 0.58203 0.0
H935 H 0.80995 0.02049 0.63418 0.0
H936 H 0.83244 0.07848 0.64325 0.0
H937 H 0.8756 0.04085 0.63212 0.0
H938 H 0.89716 0.12084 0.61705 0.0
H939 H 0.85356 0.15837 0.62784 0.0
H940 H 0.84624 0.15398 0.60826 0.0
H941 H 0.66611 0.07065 0.59742 0.0
H942 H 0.62537 0.13697 0.61318 0.0
H943 H 0.76673 0.15571 0.63756 0.0
C944 C 0.86406 0.0356 0.59808 0.0
C945 C 0.85709 0.01371 0.58402 0.0
C946 C 0.80718 0.00473 0.57857 0.0
C947 C 0.76455 0.02117 0.58665 0.0
C948 C 0.7728 0.04556 0.6002 0.0
C949 C 0.8214 0.05164 0.60601 0.0
C950 C 0.82125 0.08513 0.61968 0.0
C951 C 0.83564 0.05439 0.6331 0.0
C952 C 0.8566 0.13234 0.61809 0.0
C953 C 0.76573 0.09974 0.62014 0.0
C954 C 0.73795 0.07597 0.60903 0.0
C955 C 0.68712 0.08838 0.60641 0.0
C956 C 0.6644 0.12629 0.61535 0.0
C957 C 0.69287 0.15155 0.62658 0.0
C958 C 0.74369 0.13701 0.62913 0.0
H959 H 0.772 0.01419 0.33268 0.0
H960 H 0.88717 0.07375 0.36277 0.0
H961 H 0.86907 0.00223 0.37925 0.0
H962 H 0.68273 0.98348 0.35862 0.0
H963 H 0.65902 0.92665 0.34921 0.0
H964 H 0.68785 0.97709 0.33901 0.0
H965 H 0.75193 0.91227 0.32766 0.0
H966 H 0.72368 0.86179 0.33816 0.0
H967 H 0.79123 0.8754 0.33948 0.0
H968 H 0.82673 0.93425 0.39445 0.0
H969 H 0.76283 0.87954 0.40681 0.0
H970 H 0.67924 0.861 0.36634 0.0
C971 C 0.79405 0.01173 0.34262 0.0
C972 C 0.83102 0.0496 0.34643 0.0
C973 C 0.85909 0.04489 0.35953 0.0
C974 C 0.84909 0.00431 0.36895 0.0
C975 C 0.81154 0.96816 0.365 0.0
C976 C 0.78476 0.9714 0.35206 0.0
C977 C 0.74272 0.9312 0.35097 0.0
C978 C 0.69002 0.95609 0.34937 0.0
C979 C 0.75304 0.89289 0.33832 0.0
C980 C 0.74829 0.9063 0.36562 0.0
C981 C 0.78869 0.9275 0.37352 0.0
C982 C 0.79628 0.91596 0.38818 0.0
C983 C 0.76026 0.88423 0.39511 0.0
C984 C 0.71761 0.86428 0.38732 0.0
C985 C 0.71316 0.87352 0.37227 0.0
H986 H 0.74733 0.98143 0.09614 0.0
H987 H 0.85113 0.00982 0.06016 0.0
H988 H 0.92042 0.96788 0.07337 0.0
H989 H 0.82899 0.00711 0.12427 0.0
H990 H 0.80868 0.95641 0.13601 0.0
H991 H 0.76494 0.98115 0.12294 0.0
H992 H 0.75069 0.89007 0.11169 0.0
H993 H 0.79435 0.86477 0.12479 0.0
H994 H 0.80487 0.85357 0.10551 0.0
H995 H 0.97998 0.9382 0.09156 0.0
H996 H 0.02756 0.91489 0.11353 0.0
H997 H 0.88554 0.89896 0.1376 0.0
C998 C 0.78452 0.97771 0.09103 0.0
C999 C 0.79462 0.99864 0.07727 0.0
C1000 C 0.84323 0.99361 0.07072 0.0
C1001 C 0.8825 0.96974 0.07809 0.0
C1002 C 0.87181 0.95022 0.09178 0.0
C1003 C 0.82388 0.95289 0.09812 0.0
C1004 C 0.82379 0.93155 0.11335 0.0
C1005 C 0.80555 0.97146 0.12481 0.0
C1006 C 0.79152 0.88207 0.11386 0.0
C1007 C 0.88003 0.92053 0.115 0.0
C1008 C 0.90666 0.93079 0.10229 0.0
C1009 C 0.95959 0.92875 0.10145 0.0
C1010 C 0.9862 0.91608 0.11397 0.0
C1011 C 0.95975 0.90549 0.12704 0.0
C1012 C 0.90608 0.9066 0.12758 0.0
H1013 H 0.8947 0.03949 0.81401 0.0
H1014 H 0.86256 0.92039 0.84485 0.0
H1015 H 0.89769 0.97526 0.86492 0.0
H1016 H 0.01326 0.09154 0.83223 0.0
H1017 H 0.99737 0.15646 0.82826 0.0
H1018 H 0.97782 0.10494 0.81596 0.0
H1019 H 0.88387 0.13407 0.81821 0.0
H1020 H 0.90276 0.18529 0.83063 0.0
H1021 H 0.85465 0.13958 0.83605 0.0
H1022 H 0.92799 0.04476 0.88173 0.0
H1023 H 0.95226 0.12611 0.8945 0.0
H1024 H 0.96045 0.20167 0.85299 0.0
C1025 C 0.8966 0.02475 0.82494 0.0
C1026 C 0.87665 0.97606 0.82805 0.0
C1027 C 0.87814 0.95781 0.84243 0.0
C1028 C 0.89809 0.9885 0.85382 0.0
C1029 C 0.91611 0.03714 0.85054 0.0
C1030 C 0.91587 0.05518 0.83647 0.0
C1031 C 0.93291 0.11058 0.83616 0.0
C1032 C 0.98334 0.1162 0.82765 0.0
C1033 C 0.89104 0.14434 0.8299 0.0
C1034 C 0.94062 0.12137 0.85231 0.0
C1035 C 0.9317 0.07818 0.86037 0.0
C1036 C 0.93534 0.07879 0.87556 0.0
C1037 C 0.94872 0.12491 0.88269 0.0
C1038 C 0.95718 0.16938 0.8746 0.0
C1039 C 0.95338 0.16781 0.85928 0.0
H1040 H 0.80829 0.97189 0.48723 0.0
H1041 H 0.87126 0.06533 0.45308 0.0
H1042 H 0.78913 0.05813 0.43967 0.0
H1043 H 0.75073 0.8841 0.46598 0.0
H1044 H 0.69506 0.87453 0.47729 0.0
H1045 H 0.75316 0.89824 0.48537 0.0
H1046 H 0.70482 0.97745 0.49582 0.0
H1047 H 0.64656 0.95326 0.48757 0.0
H1048 H 0.66953 0.01674 0.48368 0.0
H1049 H 0.70922 0.02432 0.42769 0.0
H1050 H 0.64617 0.96195 0.41772 0.0
H1051 H 0.63203 0.89433 0.46007 0.0
C1052 C 0.80415 0.99183 0.47709 0.0
C1053 C 0.84581 0.01883 0.47107 0.0
C1054 C 0.83949 0.04458 0.45784 0.0
C1055 C 0.79289 0.04099 0.45024 0.0
C1056 C 0.7527 0.01269 0.45626 0.0
C1057 C 0.75787 0.98904 0.46951 0.0
C1058 C 0.71224 0.95508 0.47274 0.0
C1059 C 0.7288 0.89977 0.47548 0.0
C1060 C 0.68144 0.97695 0.48572 0.0
C1061 C 0.68273 0.95927 0.45862 0.0
C1062 C 0.70553 0.99423 0.44946 0.0
C1063 C 0.68998 0.99827 0.43494 0.0
C1064 C 0.65341 0.96313 0.42937 0.0
C1065 C 0.63363 0.92417 0.43826 0.0
C1066 C 0.64521 0.92518 0.45329 0.0
H1067 H 0.97532 0.00705 0.25986 0.0
H1068 H 0.83365 0.07748 0.24701 0.0
H1069 H 0.84283 0.04043 0.22225 0.0
H1070 H 0.04239 0.01982 0.22483 0.0
H1071 H 0.07233 0.95853 0.22607 0.0
H1072 H 0.05631 0.99442 0.24249 0.0
H1073 H 0.00341 0.91562 0.25126 0.0
H1074 H 0.01926 0.88106 0.23462 0.0
H1075 H 0.95326 0.88946 0.23972 0.0
H1076 H 0.86456 0.99541 0.19943 0.0
H1077 H 0.89285 0.93465 0.18012 0.0
H1078 H 0.02093 0.89212 0.20695 0.0
C1079 C 0.94629 0.01442 0.25181 0.0
C1080 C 0.90362 0.04486 0.25538 0.0
C1081 C 0.86622 0.05359 0.24461 0.0
C1082 C 0.87141 0.03332 0.23044 0.0
C1083 C 0.91413 0.00419 0.22721 0.0
C1084 C 0.95057 0.9939 0.23757 0.0
C1085 C 0.99077 0.95823 0.23133 0.0
C1086 C 0.04364 0.98433 0.23119 0.0
C1087 C 0.9917 0.90812 0.23973 0.0
C1088 C 0.97063 0.94974 0.21593 0.0
C1089 C 0.92679 0.97741 0.2138 0.0
C1090 C 0.8991 0.97389 0.20086 0.0
C1091 C 0.91547 0.93951 0.18998 0.0
C1092 C 0.95913 0.90947 0.19211 0.0
C1093 C 0.98809 0.91572 0.20502 0.0
H1094 H 0.73062 0.23739 0.96773 0.0
H1095 H 0.73199 0.07503 0.97651 0.0
H1096 H 0.81016 0.06576 0.96195 0.0
H1097 H 0.78622 0.22701 0.92961 0.0
H1098 H 0.81979 0.2868 0.93289 0.0
H1099 H 0.75978 0.27408 0.94196 0.0
H1100 H 0.81049 0.29717 0.96628 0.0
H1101 H 0.87099 0.30044 0.95688 0.0
H1102 H 0.86206 0.25652 0.97143 0.0
H1103 H 0.89032 0.07383 0.94801 0.0
H1104 H 0.96693 0.09786 0.93428 0.0
H1105 H 0.91752 0.25585 0.93448 0.0
C1106 C 0.74686 0.19973 0.96639 0.0
C1107 C 0.72416 0.1568 0.9731 0.0
C1108 C 0.74724 0.10833 0.97115 0.0
C1109 C 0.79217 0.10266 0.96301 0.0
C1110 C 0.81386 0.14571 0.95678 0.0
C1111 C 0.79189 0.19321 0.95819 0.0
C1112 C 0.82471 0.23339 0.95084 0.0
C1113 C 0.79598 0.25681 0.93808 0.0
C1114 C 0.84304 0.27436 0.96203 0.0
C1115 C 0.8688 0.20114 0.94528 0.0
C1116 C 0.86136 0.15063 0.94883 0.0
C1117 C 0.89646 0.11321 0.94507 0.0
C1118 C 0.94009 0.1275 0.93726 0.0
C1119 C 0.94864 0.17894 0.9332 0.0
C1120 C 0.91237 0.2163 0.93738 0.0
H1121 H 0.64659 0.98173 0.73479 0.0
H1122 H 0.76087 0.08295 0.75446 0.0
H1123 H 0.74619 0.14578 0.73509 0.0
H1124 H 0.68394 0.00248 0.69855 0.0
H1125 H 0.62017 0.99822 0.69119 0.0
H1126 H 0.63561 0.96455 0.70745 0.0
H1127 H 0.56207 0.00981 0.72148 0.0
H1128 H 0.54614 0.04295 0.70515 0.0
H1129 H 0.55941 0.07863 0.72187 0.0
H1130 H 0.71907 0.19663 0.71294 0.0
H1131 H 0.68613 0.22797 0.68944 0.0
H1132 H 0.5949 0.08907 0.68404 0.0
C1133 C 0.66753 0.01775 0.73521 0.0
C1134 C 0.70399 0.02832 0.74622 0.0
C1135 C 0.73226 0.07478 0.74617 0.0
C1136 C 0.72413 0.11052 0.73524 0.0
C1137 C 0.68816 0.09866 0.7244 0.0
C1138 C 0.66056 0.05317 0.7243 0.0
C1139 C 0.62726 0.0473 0.71089 0.0
C1140 C 0.64271 0.00037 0.70147 0.0
C1141 C 0.57036 0.04455 0.71511 0.0
C1142 C 0.64037 0.09657 0.70342 0.0
C1143 C 0.675 0.12615 0.7114 0.0
C1144 C 0.69208 0.17365 0.70658 0.0
C1145 C 0.67326 0.19115 0.69325 0.0
C1146 C 0.63857 0.16068 0.68483 0.0
C1147 C 0.62206 0.11295 0.69008 0.0
H1148 H 0.69983 0.46031 0.97117 0.0
H1149 H 0.78841 0.45425 0.01103 0.0
H1150 H 0.86376 0.42584 0.99658 0.0
H1151 H 0.7471 0.3513 0.9547 0.0
H1152 H 0.75108 0.37331 0.93618 0.0
H1153 H 0.70398 0.39899 0.94862 0.0
H1154 H 0.73489 0.4912 0.946 0.0
H1155 H 0.77985 0.4693 0.93235 0.0
H1156 H 0.80183 0.5069 0.94795 0.0
H1157 H 0.93064 0.40309 0.97716 0.0
H1158 H 0.98012 0.37838 0.95492 0.0
H1159 H 0.84399 0.39379 0.92862 0.0
C1160 C 0.73523 0.45345 0.97685 0.0
C1161 C 0.7387 0.45979 0.99214 0.0
C1162 C 0.7852 0.44939 -0.00073 0.0
C1163 C 0.82812 0.43363 0.99116 0.0
C1164 C 0.82347 0.42824 0.97601 0.0
C1165 C 0.77801 0.43754 0.96898 0.0
C1166 C 0.78192 0.42731 0.95272 0.0
C1167 C 0.74384 0.38517 0.94774 0.0
C1168 C 0.77418 0.47661 0.94426 0.0
C1169 C 0.83655 0.40986 0.95166 0.0
C1170 C 0.86047 0.4119 0.96512 0.0
C1171 C 0.91215 0.40075 0.9666 0.0
C1172 C 0.93991 0.38689 0.95396 0.0
C1173 C 0.91542 0.3833 0.9402 0.0
C1174 C 0.86322 0.39496 0.93909 0.0
H1175 H 0.92829 0.42685 0.23169 0.0
H1176 H 0.77007 0.45902 0.24247 0.0
H1177 H 0.76727 0.52069 0.22261 0.0
H1178 H 0.96529 0.55472 0.22435 0.0
H1179 H 0.00746 0.53783 0.20943 0.0
H1180 H 0.99601 0.49348 0.2238 0.0
H1181 H 0.96712 0.42462 0.20457 0.0
H1182 H 0.97818 0.46908 0.19015 0.0
H1183 H 0.91643 0.43859 0.19206 0.0
H1184 H 0.783 0.58338 0.20305 0.0
H1185 H 0.81673 0.64403 0.1851 0.0
H1186 H 0.96449 0.57128 0.18648 0.0
C1187 C 0.89302 0.44681 0.22986 0.0
C1188 C 0.84925 0.43774 0.23862 0.0
C1189 C 0.80381 0.46452 0.23578 0.0
C1190 C 0.80188 0.4998 0.22454 0.0
C1191 C 0.84562 0.50783 0.21616 0.0
C1192 C 0.89037 0.48214 0.21864 0.0
C1193 C 0.93251 0.49952 0.20839 0.0
C1194 C 0.97798 0.52278 0.21701 0.0
C1195 C 0.94955 0.45531 0.19819 0.0
C1196 C 0.90471 0.53984 0.2 0.0
C1197 C 0.85453 0.5437 0.20462 0.0
C1198 C 0.822 0.58028 0.1992 0.0
C1199 C 0.8415 0.61456 0.18901 0.0
C1200 C 0.89297 0.61193 0.18427 0.0
C1201 C 0.92464 0.57336 0.18963 0.0
H1202 H 0.93478 0.67235 0.49758 0.0
H1203 H 0.85726 0.55138 0.52081 0.0
H1204 H 0.77605 0.57325 0.50898 0.0
H1205 H 0.82385 0.76332 0.49755 0.0
H1206 H 0.84012 0.78387 0.47946 0.0
H1207 H 0.8897 0.76485 0.49173 0.0
H1208 H 0.9212 0.69868 0.47226 0.0
H1209 H 0.87166 0.71705 0.46 0.0
H1210 H 0.87698 0.65116 0.46496 0.0
H1211 H 0.70721 0.59933 0.49195 0.0
H1212 H 0.65569 0.62847 0.47132 0.0
H1213 H 0.77819 0.73339 0.45957 0.0
C1214 C 0.90033 0.65177 0.50061 0.0
C1215 C 0.9022 0.61031 0.51013 0.0
C1216 C 0.85664 0.58314 0.51347 0.0
C1217 C 0.8103 0.59554 0.5069 0.0
C1218 C 0.81012 0.63557 0.49716 0.0
C1219 C 0.85385 0.66371 0.49417 0.0
C1220 C 0.84476 0.70121 0.48218 0.0
C1221 C 0.8499 0.75659 0.48809 0.0
C1222 C 0.88077 0.69139 0.46908 0.0
C1223 C 0.78991 0.6879 0.47839 0.0
C1224 C 0.77026 0.65065 0.48732 0.0
C1225 C 0.72177 0.62925 0.48508 0.0
C1226 C 0.69288 0.6459 0.47328 0.0
C1227 C 0.71281 0.68328 0.46381 0.0
C1228 C 0.76154 0.70514 0.46666 0.0
H1229 H 0.58802 0.61234 0.73291 0.0
H1230 H 0.65436 0.52729 0.76784 0.0
H1231 H 0.64218 0.44697 0.75331 0.0
H1232 H 0.49865 0.50951 0.71863 0.0
H1233 H 0.51068 0.52527 0.69981 0.0
H1234 H 0.51162 0.57449 0.71398 0.0
H1235 H 0.60311 0.60232 0.70707 0.0
H1236 H 0.6032 0.55526 0.69248 0.0
H1237 H 0.65279 0.55539 0.70612 0.0
H1238 H 0.64386 0.38172 0.7328 0.0
H1239 H 0.65319 0.3364 0.7089 0.0
H1240 H 0.58482 0.46475 0.68756 0.0
C1241 C 0.59763 0.57638 0.73772 0.0
C1242 C 0.62167 0.57543 0.75141 0.0
C1243 C 0.63498 0.52826 0.75741 0.0
C1244 C 0.62842 0.48262 0.74921 0.0
C1245 C 0.608 0.48525 0.73519 0.0
C1246 C 0.59191 0.53096 0.72962 0.0
C1247 C 0.57864 0.52555 0.71363 0.0
C1248 C 0.52146 0.53418 0.71134 0.0
C1249 C 0.6114 0.56174 0.70429 0.0
C1250 C 0.59246 0.47041 0.71081 0.0
C1251 C 0.60885 0.44748 0.72336 0.0
C1252 C 0.62987 0.39879 0.72297 0.0
C1253 C 0.6353 0.37347 0.70934 0.0
C1254 C 0.61986 0.39713 0.69638 0.0
C1255 C 0.59653 0.44535 0.69727 0.0
H1256 H 0.62616 0.69794 0.10098 0.0
H1257 H 0.69231 0.71857 0.05801 0.0
H1258 H 0.77628 0.7377 0.06926 0.0
H1259 H 0.70406 0.79968 0.11977 0.0
H1260 H 0.70848 0.7635 0.13619 0.0
H1261 H 0.65287 0.75666 0.12471 0.0
H1262 H 0.66671 0.65887 0.12279 0.0
H1263 H 0.7227 0.66525 0.13407 0.0
H1264 H 0.72705 0.63498 0.11619 0.0
H1265 H 0.85645 0.74142 0.08534 0.0
H1266 H 0.92157 0.74318 0.10517 0.0
H1267 H 0.80084 0.72519 0.1372 0.0
C1268 C 0.65805 0.70759 0.09396 0.0
C1269 C 0.65266 0.70645 0.07862 0.0
C1270 C 0.69535 0.71947 0.06981 0.0
C1271 C 0.74336 0.73008 0.07609 0.0
C1272 C 0.74789 0.72853 0.09124 0.0
C1273 C 0.70596 0.71901 0.10006 0.0
C1274 C 0.72085 0.7185 0.116 0.0
C1275 C 0.69504 0.76219 0.12468 0.0
C1276 C 0.7086 0.6663 0.12264 0.0
C1277 C 0.77784 0.72757 0.11474 0.0
C1278 C 0.7931 0.733 0.1004 0.0
C1279 C 0.84476 0.73819 0.09664 0.0
C1280 C 0.88149 0.73868 0.10789 0.0
C1281 C 0.86596 0.73464 0.12262 0.0
C1282 C 0.81358 0.72905 0.126 0.0
H1283 H 0.72249 0.40521 0.35372 0.0
H1284 H 0.87375 0.39572 0.37296 0.0
H1285 H 0.85688 0.47355 0.38777 0.0
H1286 H 0.71312 0.53601 0.35195 0.0
H1287 H 0.64802 0.54131 0.35808 0.0
H1288 H 0.66852 0.48376 0.34872 0.0
H1289 H 0.63996 0.42812 0.36989 0.0
H1290 H 0.61646 0.48364 0.37965 0.0
H1291 H 0.66175 0.44311 0.3882 0.0
H1292 H 0.82645 0.55688 0.39872 0.0
H1293 H 0.77855 0.63046 0.40885 0.0
H1294 H 0.6438 0.57885 0.385 0.0
C1295 C 0.75184 0.41824 0.36129 0.0
C1296 C 0.79993 0.39427 0.36189 0.0
C1297 C 0.83714 0.41391 0.37189 0.0
C1298 C 0.82787 0.45807 0.38043 0.0
C1299 C 0.78072 0.48142 0.37918 0.0
C1300 C 0.7428 0.46131 0.37021 0.0
C1301 C 0.69453 0.49227 0.37143 0.0
C1302 C 0.68025 0.51459 0.35665 0.0
C1303 C 0.65058 0.45984 0.37766 0.0
C1304 C 0.71164 0.53381 0.38223 0.0
C1305 C 0.76179 0.52723 0.38638 0.0
C1306 C 0.78693 0.56203 0.39572 0.0
C1307 C 0.7596 0.60391 0.40129 0.0
C1308 C 0.7075 0.61003 0.39771 0.0
C1309 C 0.6834 0.5747 0.38798 0.0
H1310 H 0.92874 0.40124 0.57844 0.0
H1311 H 0.0005 0.53399 0.5998 0.0
H1312 H 0.95132 0.51722 0.62216 0.0
H1313 H 0.80689 0.41324 0.594 0.0
H1314 H 0.79664 0.34562 0.59616 0.0
H1315 H 0.83821 0.36791 0.58193 0.0
H1316 H 0.91144 0.31318 0.59193 0.0
H1317 H 0.8701 0.29105 0.60629 0.0
H1318 H 0.93048 0.32142 0.61077 0.0
H1319 H 0.88826 0.49012 0.64162 0.0
H1320 H 0.81801 0.45302 0.65644 0.0
H1321 H 0.79573 0.3331 0.62351 0.0
C1322 C 0.93508 0.42644 0.58784 0.0
C1323 C 0.96847 0.46936 0.58713 0.0
C1324 C 0.97433 0.50162 0.59977 0.0
C1325 C 0.94703 0.49203 0.61266 0.0
C1326 C 0.91469 0.44938 0.61294 0.0
C1327 C 0.90901 0.41684 0.60089 0.0
C1328 C 0.8712 0.37407 0.60392 0.0
C1329 C 0.82554 0.37532 0.59338 0.0
C1330 C 0.89738 0.32184 0.60319 0.0
C1331 C 0.85554 0.38834 0.61943 0.0
C1332 C 0.88099 0.43195 0.62447 0.0
C1333 C 0.86912 0.45518 0.63796 0.0
C1334 C 0.82951 0.43384 0.64635 0.0
C1335 C 0.80324 0.38929 0.64131 0.0
C1336 C 0.81702 0.3659 0.62784 0.0
H1337 H 0.91683 0.70776 0.84966 0.0
H1338 H 0.91869 0.62866 0.80732 0.0
H1339 H 0.94428 0.54979 0.81899 0.0
H1340 H 0.02731 0.63734 0.86524 0.0
H1341 H 0.99868 0.63599 0.88317 0.0
H1342 H 0.98631 0.68843 0.87136 0.0
H1343 H 0.88907 0.67129 0.87398 0.0
H1344 H 0.90106 0.61842 0.8856 0.0
H1345 H 0.86335 0.60875 0.86928 0.0
H1346 H 0.95627 0.47747 0.83499 0.0
H1347 H 0.96512 0.41589 0.85467 0.0
H1348 H 0.96142 0.53987 0.88708 0.0
C1349 C 0.92394 0.67412 0.84285 0.0
C1350 C 0.9164 0.67464 0.82754 0.0
C1351 C 0.92542 0.62969 0.819 0.0
C1352 C 0.93962 0.58447 0.82554 0.0
C1353 C 0.94541 0.58484 0.84064 0.0
C1354 C 0.93896 0.62854 0.84921 0.0
C1355 C 0.94567 0.61737 0.8653 0.0
C1356 C 0.99228 0.64652 0.87164 0.0
C1357 C 0.89688 0.62969 0.87405 0.0
C1358 C 0.95492 0.56025 0.86439 0.0
C1359 C 0.95443 0.54255 0.85001 0.0
C1360 C 0.95785 0.49088 0.84628 0.0
C1361 C 0.96237 0.45622 0.85752 0.0
C1362 C 0.96407 0.47334 0.87231 0.0
C1363 C 0.96083 0.52607 0.87582 0.0
H1364 H 0.30022 0.58327 0.08674 0.0
H1365 H 0.26791 0.6965 0.0541 0.0
H1366 H 0.19134 0.72104 0.06777 0.0
H1367 H 0.16887 0.55446 0.09899 0.0
H1368 H 0.18768 0.55403 0.11792 0.0
H1369 H 0.23222 0.53479 0.1038 0.0
H1370 H 0.29815 0.60242 0.11346 0.0
H1371 H 0.25425 0.62096 0.12769 0.0
H1372 H 0.2793 0.66823 0.1155 0.0
H1373 H 0.12304 0.74073 0.08618 0.0
H1374 H 0.08158 0.76592 0.10955 0.0
H1375 H 0.16735 0.65132 0.13178 0.0
C1376 C 0.27769 0.61332 0.08227 0.0
C1377 C 0.29111 0.63705 0.069 0.0
C1378 C 0.25867 0.67576 0.06383 0.0
C1379 C 0.21467 0.69035 0.0716 0.0
C1380 C 0.20363 0.66682 0.08473 0.0
C1381 C 0.23494 0.6299 0.09017 0.0
C1382 C 0.22056 0.61737 0.10573 0.0
C1383 C 0.20118 0.56186 0.10666 0.0
C1384 C 0.26572 0.62792 0.1162 0.0
C1385 C 0.17764 0.65465 0.10842 0.0
C1386 C 0.16683 0.68113 0.09594 0.0
C1387 C 0.13067 0.71977 0.09595 0.0
C1388 C 0.10695 0.73354 0.10923 0.0
C1389 C 0.12077 0.70974 0.12229 0.0
C1390 C 0.15525 0.66886 0.1218 0.0
H1391 H 0.28076 0.55473 0.84128 0.0
H1392 H 0.24444 0.47098 0.80103 0.0
H1393 H 0.21643 0.39665 0.81534 0.0
H1394 H 0.3248 0.44391 0.86228 0.0
H1395 H 0.29623 0.46855 0.87894 0.0
H1396 H 0.31996 0.51195 0.86545 0.0
H1397 H 0.2312 0.55463 0.86438 0.0
H1398 H 0.20763 0.51192 0.87795 0.0
H1399 H 0.17532 0.51543 0.86064 0.0
H1400 H 0.18388 0.33482 0.83436 0.0
H1401 H 0.14256 0.29644 0.85598 0.0
H1402 H 0.20224 0.42083 0.88336 0.0
C1403 C 0.26829 0.52027 0.83544 0.0
C1404 C 0.26514 0.51856 0.82004 0.0
C1405 C 0.24695 0.47326 0.81285 0.0
C1406 C 0.23153 0.43065 0.82087 0.0
C1407 C 0.23484 0.43378 0.83608 0.0
C1408 C 0.25275 0.47763 0.84326 0.0
C1409 C 0.24758 0.47379 0.85965 0.0
C1410 C 0.30029 0.47459 0.86701 0.0
C1411 C 0.21338 0.51643 0.86601 0.0
C1412 C 0.22213 0.42178 0.86059 0.0
C1413 C 0.21602 0.39857 0.84695 0.0
C1414 C 0.18931 0.35221 0.84512 0.0
C1415 C 0.16632 0.3304 0.85746 0.0
C1416 C 0.16967 0.35557 0.8713 0.0
C1417 C 0.19976 0.40049 0.87291 0.0
H1418 H 0.35955 0.36134 0.55938 0.0
H1419 H 0.43704 0.50067 0.54666 0.0
H1420 H 0.50858 0.48177 0.56305 0.0
H1421 H 0.38204 0.37162 0.59529 0.0
H1422 H 0.39142 0.30447 0.59809 0.0
H1423 H 0.35403 0.3248 0.58292 0.0
H1424 H 0.41448 0.2701 0.56606 0.0
H1425 H 0.45549 0.25496 0.58109 0.0
H1426 H 0.48162 0.28595 0.56546 0.0
H1427 H 0.55848 0.46029 0.58452 0.0
H1428 H 0.59015 0.43287 0.60817 0.0
H1429 H 0.48173 0.30558 0.60726 0.0
C1430 C 0.39287 0.38636 0.55951 0.0
C1431 C 0.39326 0.43223 0.55178 0.0
C1432 C 0.43644 0.46523 0.55251 0.0
C1433 C 0.47719 0.45471 0.56174 0.0
C1434 C 0.4742 0.41077 0.56997 0.0
C1435 C 0.43371 0.37649 0.56873 0.0
C1436 C 0.43672 0.33571 0.5801 0.0
C1437 C 0.3882 0.33402 0.58966 0.0
C1438 C 0.44761 0.28357 0.57273 0.0
C1439 C 0.48236 0.3551 0.58878 0.0
C1440 C 0.50407 0.39775 0.5825 0.0
C1441 C 0.54282 0.42611 0.58932 0.0
C1442 C 0.55996 0.41055 0.60289 0.0
C1443 C 0.5382 0.36708 0.60961 0.0
C1444 C 0.49943 0.33856 0.60232 0.0
H1445 H 0.5335 0.50708 0.31684 0.0
H1446 H 0.51777 0.38446 0.34747 0.0
H1447 H 0.52963 0.44692 0.36811 0.0
H1448 H 0.626 0.58863 0.33674 0.0
H1449 H 0.59404 0.64622 0.33192 0.0
H1450 H 0.59158 0.59091 0.31978 0.0
H1451 H 0.49241 0.59171 0.32018 0.0
H1452 H 0.49519 0.64814 0.33184 0.0
H1453 H 0.45928 0.59267 0.33744 0.0
H1454 H 0.53521 0.52509 0.38536 0.0
H1455 H 0.53594 0.6111 0.39749 0.0
H1456 H 0.54252 0.6809 0.35513 0.0
C1457 C 0.5347 0.49308 0.32787 0.0
C1458 C 0.52603 0.44095 0.33062 0.0
C1459 C 0.5252 0.42428 0.3452 0.0
C1460 C 0.53181 0.45945 0.35695 0.0
C1461 C 0.53876 0.51101 0.35385 0.0
C1462 C 0.54039 0.52761 0.33964 0.0
C1463 C 0.5425 0.58522 0.33912 0.0
C1464 C 0.59146 0.6038 0.33145 0.0
C1465 C 0.49449 0.60567 0.33172 0.0
C1466 C 0.54283 0.59871 0.35526 0.0
C1467 C 0.54054 0.55555 0.36364 0.0
C1468 C 0.53791 0.559 0.37888 0.0
C1469 C 0.53831 0.6078 0.38568 0.0
C1470 C 0.53979 0.65207 0.37717 0.0
C1471 C 0.54193 0.64738 0.36183 0.0
H1472 H 0.27302 0.51795 0.98152 0.0
H1473 H 0.30707 0.38274 0.00608 0.0
H1474 H 0.25403 0.33072 0.98919 0.0
H1475 H 0.14129 0.47916 0.96992 0.0
H1476 H 0.14988 0.50494 0.95199 0.0
H1477 H 0.18286 0.53377 0.96747 0.0
H1478 H 0.26924 0.52215 0.95397 0.0
H1479 H 0.23666 0.49307 0.93852 0.0
H1480 H 0.28705 0.45935 0.94735 0.0
H1481 H 0.20822 0.29101 0.96819 0.0
H1482 H 0.17088 0.26621 0.94426 0.0
H1483 H 0.16788 0.42521 0.9323 0.0
C1484 C 0.26877 0.47755 0.98352 0.0
C1485 C 0.29407 0.45486 0.99535 0.0
C1486 C 0.28719 0.40171 0.99745 0.0
C1487 C 0.25732 0.37157 0.98781 0.0
C1488 C 0.2344 0.3949 0.97607 0.0
C1489 C 0.23946 0.4467 0.97389 0.0
C1490 C 0.21484 0.46122 0.95959 0.0
C1491 C 0.16952 0.49689 0.96242 0.0
C1492 C 0.25431 0.48536 0.94925 0.0
C1493 C 0.19683 0.40915 0.95384 0.0
C1494 C 0.20797 0.37164 0.96368 0.0
C1495 C 0.19843 0.32009 0.96053 0.0
C1496 C 0.1774 0.30637 0.94693 0.0
C1497 C 0.16617 0.34394 0.93664 0.0
C1498 C 0.17533 0.39605 0.94016 0.0
H1499 H 0.39967 0.45304 0.74174 0.0
H1500 H 0.36535 0.58859 0.71761 0.0
H1501 H 0.38993 0.54415 0.69457 0.0
H1502 H 0.50718 0.41535 0.72201 0.0
H1503 H 0.49433 0.34765 0.72163 0.0
H1504 H 0.47002 0.38744 0.73638 0.0
H1505 H 0.37767 0.35672 0.73106 0.0
H1506 H 0.40128 0.31522 0.7166 0.0
H1507 H 0.35242 0.36085 0.71283 0.0
H1508 H 0.42379 0.4877 0.67442 0.0
H1509 H 0.4585 0.41939 0.65805 0.0
H1510 H 0.46917 0.31935 0.69483 0.0
C1511 C 0.3967 0.47286 0.73155 0.0
C1512 C 0.38027 0.52402 0.73137 0.0
C1513 C 0.37717 0.54913 0.7179 0.0
C1514 C 0.39101 0.52422 0.70477 0.0
C1515 C 0.40723 0.47386 0.70525 0.0
C1516 C 0.40942 0.44807 0.71824 0.0
C1517 C 0.42916 0.39432 0.71566 0.0
C1518 C 0.47808 0.38566 0.72445 0.0
C1519 C 0.38765 0.35442 0.71925 0.0
C1520 C 0.4399 0.39492 0.69936 0.0
C1521 C 0.42673 0.44112 0.69357 0.0
C1522 C 0.43374 0.45114 0.67878 0.0
C1523 C 0.45364 0.41245 0.6696 0.0
C1524 C 0.46635 0.36467 0.67527 0.0
C1525 C 0.45975 0.35587 0.69032 0.0
H1526 H 0.24729 0.58926 0.46316 0.0
H1527 H 0.18823 0.7399 0.47371 0.0
H1528 H 0.25483 0.77837 0.45806 0.0
H1529 H 0.37319 0.62026 0.46488 0.0
H1530 H 0.39319 0.57888 0.44995 0.0
H1531 H 0.33611 0.56369 0.45998 0.0
H1532 H 0.28448 0.56185 0.43578 0.0
H1533 H 0.34177 0.57757 0.42577 0.0
H1534 H 0.28614 0.61693 0.42436 0.0
H1535 H 0.33614 0.80072 0.44446 0.0
H1536 H 0.42269 0.80441 0.43362 0.0
H1537 H 0.42612 0.63901 0.43126 0.0
C1538 C 0.24674 0.63015 0.46171 0.0
C1539 C 0.21204 0.66142 0.46961 0.0
C1540 C 0.21436 0.71506 0.46782 0.0
C1541 C 0.25191 0.73725 0.45887 0.0
C1542 C 0.28651 0.70528 0.45163 0.0
C1543 C 0.28367 0.65278 0.45279 0.0
C1544 C 0.32793 0.62704 0.445 0.0
C1545 C 0.35944 0.59559 0.45559 0.0
C1546 C 0.30893 0.5939 0.43195 0.0
C1547 C 0.3577 0.67328 0.43994 0.0
C1548 C 0.3328 0.71811 0.44362 0.0
C1549 C 0.35516 0.7658 0.44115 0.0
C1550 C 0.40424 0.76759 0.4349 0.0
C1551 C 0.43064 0.72209 0.43127 0.0
C1552 C 0.40661 0.67445 0.43371 0.0
H1553 H 0.23393 0.51768 0.22661 0.0
H1554 H 0.36977 0.6141 0.22666 0.0
H1555 H 0.32487 0.67681 0.21153 0.0
H1556 H 0.20136 0.53643 0.18954 0.0
H1557 H 0.13341 0.53513 0.19282 0.0
H1558 H 0.1753 0.50053 0.20443 0.0
H1559 H 0.13872 0.54885 0.22716 0.0
H1560 H 0.09687 0.58383 0.21561 0.0
H1561 H 0.14003 0.61776 0.22785 0.0
H1562 H 0.26378 0.72875 0.19667 0.0
H1563 H 0.19474 0.76217 0.18137 0.0
H1564 H 0.10222 0.62734 0.18993 0.0
C1565 C 0.25385 0.55237 0.22354 0.0
C1566 C 0.30469 0.56198 0.22784 0.0
C1567 C 0.3305 0.6068 0.22345 0.0
C1568 C 0.30532 0.64243 0.21494 0.0
C1569 C 0.25488 0.63185 0.21085 0.0
C1570 C 0.22969 0.58761 0.21489 0.0
C1571 C 0.17678 0.58353 0.20842 0.0
C1572 C 0.17144 0.53611 0.19819 0.0
C1573 C 0.13569 0.58351 0.22048 0.0
C1574 C 0.17611 0.6323 0.20001 0.0
C1575 C 0.22106 0.66013 0.20171 0.0
C1576 C 0.22856 0.70712 0.19517 0.0
C1577 C 0.18918 0.72581 0.18653 0.0
C1578 C 0.14357 0.69694 0.18434 0.0
C1579 C 0.13705 0.64982 0.19124 0.0
loop_
_geom_bond_atom_site_label_1
_geom_bond_atom_site_label_2
_geom_bond_distance
_geom_bond_site_symmetry_2
_ccdc_geom_bond_type
H0 O26 0.856 . S
H1 O29 0.854 . S
H2 C37 0.930 . S
H3 C38 0.930 . S
H4 C40 0.930 1_565 S
H5 C41 0.930 1_565 S
H6 C43 0.931 . S
H7 C44 0.930 1_655 S
H8 C46 0.930 . S
H9 C47 0.929 . S
H10 C49 0.930 . S
H11 C50 0.931 . S
H12 C52 0.930 . S
H13 C53 0.929 1_565 S
H14 C55 0.931 . S
H15 C56 0.930 . S
H16 C58 0.930 . S
H17 C59 0.932 . S
H18 C61 0.930 1_545 S
H19 C62 0.929 . S
H20 C64 0.931 . S
H21 C65 0.930 . S
H22 C67 0.929 . S
H23 C68 0.931 1_545 S
H24 C70 0.930 . S
H25 C71 0.929 . S
O26 H0 0.856 . S
O26 C72 1.300 . S
O27 C72 1.209 . S
O28 C73 1.199 . S
O29 H1 0.854 . S
O29 C73 1.297 . S
C30 C31 1.404 1_455 S
C30 C35 1.397 . S
C30 C36 1.492 . S
C31 C30 1.404 1_655 S
C31 C32 1.396 . S
C31 C42 1.491 1_655 S
C32 C31 1.396 . S
C32 C33 1.397 . S
C32 C48 1.509 . S
C33 C32 1.397 . S
C33 C34 1.412 1_545 S
C33 C54 1.485 1_545 S
C34 C33 1.412 1_565 S
C34 C35 1.388 1_665 S
C34 C60 1.490 . S
C35 C30 1.397 . S
C35 C34 1.388 1_445 S
C35 C66 1.519 1_545 S
C36 C30 1.492 . S
C36 C37 1.363 . S
C36 C41 1.390 . S
C37 H2 0.930 . S
C37 C36 1.363 . S
C37 C38 1.372 . S
C38 H3 0.930 . S
C38 C37 1.372 . S
C38 C39 1.383 . S
C39 C38 1.383 . S
C39 C40 1.395 . S
C40 H4 0.930 1_545 S
C40 C39 1.395 . S
C40 C41 1.362 . S
C41 H5 0.930 1_545 S
C41 C36 1.390 . S
C41 C40 1.362 . S
C42 C31 1.491 1_455 S
C42 C43 1.376 1_455 S
C42 C47 1.401 . S
C43 H6 0.931 . S
C43 C42 1.376 1_655 S
C43 C44 1.376 1_655 S
C44 H7 0.930 1_455 S
C44 C43 1.376 1_455 S
C44 C45 1.376 . S
C45 C44 1.376 . S
C45 C46 1.378 . S
C45 C72 1.486 . S
C46 H8 0.930 . S
C46 C45 1.378 . S
C46 C47 1.376 . S
C47 H9 0.929 . S
C47 C42 1.401 . S
C47 C46 1.376 . S
C48 C32 1.509 . S
C48 C49 1.391 . S
C48 C53 1.386 . S
C49 H10 0.930 . S
C49 C48 1.391 . S
C49 C50 1.375 . S
C50 H11 0.931 . S
C50 C49 1.375 . S
C50 C51 1.375 . S
C51 C50 1.375 . S
C51 C52 1.361 . S
C52 H12 0.930 . S
C52 C51 1.361 . S
C52 C53 1.399 . S
C53 H13 0.929 1_545 S
C53 C48 1.386 . S
C53 C52 1.399 . S
C54 C33 1.485 1_565 S
C54 C55 1.393 1_565 S
C54 C59 1.361 . S
C55 H14 0.931 . S
C55 C54 1.393 1_545 S
C55 C56 1.372 . S
C56 H15 0.930 . S
C56 C55 1.372 . S
C56 C57 1.397 1_545 S
C57 C56 1.397 1_565 S
C57 C58 1.390 . S
C57 C73 1.476 . S
C58 H16 0.930 . S
C58 C57 1.390 . S
C58 C59 1.366 . S
C59 H17 0.932 . S
C59 C54 1.361 . S
C59 C58 1.366 . S
C60 C34 1.490 . S
C60 C61 1.380 . S
C60 C65 1.386 . S
C61 H18 0.930 1_565 S
C61 C60 1.380 . S
C61 C62 1.381 . S
C62 H19 0.929 . S
C62 C61 1.381 . S
C62 C63 1.371 . S
C63 C62 1.371 . S
C63 C64 1.380 . S
C64 H20 0.931 . S
C64 C63 1.380 . S
C64 C65 1.387 . S
C65 H21 0.930 . S
C65 C60 1.386 . S
C65 C64 1.387 . S
C66 C35 1.519 1_565 S
C66 C67 1.377 1_565 S
C66 C71 1.361 . S
C67 H22 0.929 . S
C67 C66 1.377 1_545 S
C67 C68 1.386 1_545 S
C68 H23 0.931 1_565 S
C68 C67 1.386 1_565 S
C68 C69 1.363 . S
C69 C68 1.363 . S
C69 C70 1.385 . S
C70 H24 0.930 . S
C70 C69 1.385 . S
C70 C71 1.396 . S
C71 H25 0.929 . S
C71 C66 1.361 . S
C71 C70 1.396 . S
C72 O26 1.300 . S
C72 O27 1.209 . S
C72 C45 1.486 . S
C73 O28 1.199 . S
C73 O29 1.297 . S
C73 C57 1.476 . S
H74 O100 0.856 . S
H75 O103 0.854 . S
H76 C111 0.930 . S
H77 C112 0.930 . S
H78 C114 0.930 . S
H79 C115 0.930 . S
H80 C117 0.931 . S
H81 C118 0.930 . S
H82 C120 0.930 . S
H83 C121 0.929 . S
H84 C123 0.930 . S
H85 C124 0.931 . S
H86 C126 0.930 . S
H87 C127 0.929 . S
H88 C129 0.931 . S
H89 C130 0.930 . S
H90 C132 0.930 . S
H91 C133 0.932 . S
H92 C135 0.930 . S
H93 C136 0.929 . S
H94 C138 0.931 . S
H95 C139 0.930 . S
H96 C141 0.929 . S
H97 C142 0.931 . S
H98 C144 0.930 . S
H99 C145 0.929 . S
O100 H74 0.856 . S
O100 C146 1.300 . S
O101 C146 1.209 . S
O102 C147 1.199 . S
O103 H75 0.854 . S
O103 C147 1.297 . S
C104 C105 1.404 . S
C104 C109 1.397 . S
C104 C110 1.492 . S
C105 C104 1.404 . S
C105 C106 1.396 . S
C105 C116 1.492 . S
C106 C105 1.396 . S
C106 C107 1.397 . S
C106 C122 1.509 . S
C107 C106 1.397 . S
C107 C108 1.412 . S
C107 C128 1.485 . S
C108 C107 1.412 . S
C108 C109 1.388 . S
C108 C134 1.490 . S
C109 C104 1.397 . S
C109 C108 1.388 . S
C109 C140 1.519 . S
C110 C104 1.492 . S
C110 C111 1.363 . S
C110 C115 1.390 . S
C111 H76 0.930 . S
C111 C110 1.363 . S
C111 C112 1.372 . S
C112 H77 0.930 . S
C112 C111 1.372 . S
C112 C113 1.383 . S
C113 C112 1.383 . S
C113 C114 1.395 . S
C114 H78 0.930 . S
C114 C113 1.395 . S
C114 C115 1.362 . S
C115 H79 0.930 . S
C115 C110 1.390 . S
C115 C114 1.362 . S
C116 C105 1.492 . S
C116 C117 1.377 . S
C116 C121 1.397 . S
C117 H80 0.931 . S
C117 C116 1.377 . S
C117 C118 1.376 . S
C118 H81 0.930 . S
C118 C117 1.376 . S
C118 C119 1.376 . S
C119 C118 1.376 . S
C119 C120 1.378 . S
C119 C146 1.486 . S
C120 H82 0.930 . S
C120 C119 1.378 . S
C120 C121 1.376 . S
C121 H83 0.929 . S
C121 C116 1.397 . S
C121 C120 1.376 . S
C122 C106 1.509 . S
C122 C123 1.391 . S
C122 C127 1.386 . S
C123 H84 0.930 . S
C123 C122 1.391 . S
C123 C124 1.375 . S
C124 H85 0.931 . S
C124 C123 1.375 . S
C124 C125 1.375 . S
C125 C124 1.375 . S
C125 C126 1.361 . S
C126 H86 0.930 . S
C126 C125 1.361 . S
C126 C127 1.399 . S
C127 H87 0.929 . S
C127 C122 1.386 . S
C127 C126 1.399 . S
C128 C107 1.485 . S
C128 C129 1.394 . S
C128 C133 1.360 . S
C129 H88 0.931 . S
C129 C128 1.394 . S
C129 C130 1.372 . S
C130 H89 0.930 . S
C130 C129 1.372 . S
C130 C131 1.397 . S
C131 C130 1.397 . S
C131 C132 1.390 . S
C131 C147 1.476 1_565 S
C132 H90 0.930 . S
C132 C131 1.390 . S
C132 C133 1.366 . S
C133 H91 0.932 . S
C133 C128 1.360 . S
C133 C132 1.366 . S
C134 C108 1.490 . S
C134 C135 1.380 . S
C134 C139 1.386 . S
C135 H92 0.930 . S
C135 C134 1.380 . S
C135 C136 1.381 . S
C136 H93 0.929 . S
C136 C135 1.381 . S
C136 C137 1.371 . S
C137 C136 1.371 . S
C137 C138 1.380 . S
C138 H94 0.931 . S
C138 C137 1.380 . S
C138 C139 1.387 . S
C139 H95 0.930 . S
C139 C134 1.386 . S
C139 C138 1.387 . S
C140 C109 1.519 . S
C140 C141 1.377 . S
C140 C145 1.361 . S
C141 H96 0.929 . S
C141 C140 1.377 . S
C141 C142 1.386 . S
C142 H97 0.931 . S
C142 C141 1.386 . S
C142 C143 1.363 . S
C143 C142 1.363 . S
C143 C144 1.385 . S
C144 H98 0.930 . S
C144 C143 1.385 . S
C144 C145 1.396 . S
C145 H99 0.929 . S
C145 C140 1.361 . S
C145 C144 1.396 . S
C146 O100 1.300 . S
C146 O101 1.209 . S
C146 C119 1.486 . S
C147 O102 1.199 . S
C147 O103 1.297 . S
C147 C131 1.476 1_545 S
H148 O174 0.856 . S
H149 O177 0.839 1_455 S
H150 C185 0.930 . S
H151 C186 0.930 . S
H152 C188 0.930 . S
H153 C189 0.930 . S
H154 C191 0.931 . S
H155 C192 0.930 . S
H156 C194 0.930 . S
H157 C195 0.929 . S
H158 C197 0.930 . S
H159 C198 0.931 . S
H160 C200 0.930 . S
H161 C201 0.929 . S
H162 C203 0.931 . S
H163 C204 0.930 . S
H164 C206 0.930 . S
H165 C207 0.932 . S
H166 C209 0.930 . S
H167 C210 0.929 . S
H168 C212 0.929 . S
H169 C213 0.930 . S
H170 C215 0.929 . S
H171 C216 0.974 . S
H172 C218 0.930 . S
H173 C219 0.929 . S
O174 H148 0.856 . S
O174 C220 1.300 . S
O175 C220 1.209 . S
O176 C221 1.199 . S
O177 H149 0.839 1_655 S
O177 C221 1.297 . S
C178 C179 1.404 . S
C178 C183 1.397 . S
C178 C184 1.492 . S
C179 C178 1.404 . S
C179 C180 1.396 . S
C179 C190 1.492 . S
C180 C179 1.396 . S
C180 C181 1.397 . S
C180 C196 1.509 . S
C181 C180 1.397 . S
C181 C182 1.412 . S
C181 C202 1.485 . S
C182 C181 1.412 . S
C182 C183 1.388 . S
C182 C208 1.490 . S
C183 C178 1.397 . S
C183 C182 1.388 . S
C183 C214 1.519 . S
C184 C178 1.492 . S
C184 C185 1.363 1_545 S
C184 C189 1.390 . S
C185 H150 0.930 . S
C185 C184 1.363 1_565 S
C185 C186 1.372 . S
C186 H151 0.930 . S
C186 C185 1.372 . S
C186 C187 1.383 1_565 S
C187 C186 1.383 1_545 S
C187 C188 1.395 . S
C188 H152 0.930 . S
C188 C187 1.395 . S
C188 C189 1.362 . S
C189 H153 0.930 . S
C189 C184 1.390 . S
C189 C188 1.362 . S
C190 C179 1.492 . S
C190 C191 1.377 1_545 S
C190 C195 1.397 . S
C191 H154 0.931 . S
C191 C190 1.377 1_565 S
C191 C192 1.376 . S
C192 H155 0.930 . S
C192 C191 1.376 . S
C192 C193 1.376 . S
C193 C192 1.376 . S
C193 C194 1.378 1_565 S
C193 C220 1.486 . S
C194 H156 0.930 . S
C194 C193 1.378 1_545 S
C194 C195 1.376 . S
C195 H157 0.929 . S
C195 C190 1.397 . S
C195 C194 1.376 . S
C196 C180 1.509 . S
C196 C197 1.391 1_545 S
C196 C201 1.386 . S
C197 H158 0.930 . S
C197 C196 1.391 1_565 S
C197 C198 1.375 . S
C198 H159 0.931 . S
C198 C197 1.375 . S
C198 C199 1.375 . S
C199 C198 1.375 . S
C199 C200 1.361 1_565 S
C200 H160 0.930 . S
C200 C199 1.361 1_545 S
C200 C201 1.399 . S
C201 H161 0.929 . S
C201 C196 1.386 . S
C201 C200 1.399 . S
C202 C181 1.485 . S
C202 C203 1.394 . S
C202 C207 1.360 . S
C203 H162 0.931 . S
C203 C202 1.394 . S
C203 C204 1.372 . S
C204 H163 0.930 . S
C204 C203 1.372 . S
C204 C205 1.397 . S
C205 C204 1.397 . S
C205 C206 1.390 . S
C205 C221 1.476 . S
C206 H164 0.930 . S
C206 C205 1.390 . S
C206 C207 1.366 . S
C207 H165 0.932 . S
C207 C202 1.360 . S
C207 C206 1.366 . S
C208 C182 1.490 . S
C208 C209 1.380 . S
C208 C213 1.386 . S
C209 H166 0.930 . S
C209 C208 1.380 . S
C209 C210 1.381 1_554 S
C210 H167 0.929 . S
C210 C209 1.381 1_556 S
C210 C211 1.371 . S
C211 C210 1.371 . S
C211 C212 1.333 1_556 S
C212 H168 0.929 . S
C212 C211 1.333 1_554 S
C212 C213 1.438 . S
C213 H169 0.930 . S
C213 C208 1.386 . S
C213 C212 1.438 . S
C214 C183 1.519 . S
C214 C215 1.377 . S
C214 C219 1.361 . S
C215 H170 0.929 . S
C215 C214 1.377 . S
C215 C216 1.386 . S
C216 H171 0.974 . S
C216 C215 1.386 . S
C216 C217 1.363 . S
C217 C216 1.363 . S
C217 C218 1.385 . S
C218 H172 0.930 . S
C218 C217 1.385 . S
C218 C219 1.396 . S
C219 H173 0.929 . S
C219 C214 1.361 . S
C219 C218 1.396 . S
C220 O174 1.300 . S
C220 O175 1.209 . S
C220 C193 1.486 . S
C221 O176 1.199 . S
C221 O177 1.297 . S
C221 C205 1.476 . S
H222 O248 0.856 . S
H223 O251 0.854 . S
H224 C259 0.930 . S
H225 C260 0.930 . S
H226 C262 0.930 . S
H227 C263 0.930 . S
H228 C265 0.931 . S
H229 C266 0.930 . S
H230 C268 0.930 . S
H231 C269 0.929 . S
H232 C271 0.930 . S
H233 C272 0.931 . S
H234 C274 0.930 . S
H235 C275 0.929 . S
H236 C277 0.931 . S
H237 C278 0.930 . S
H238 C280 0.930 . S
H239 C281 0.932 . S
H240 C283 0.930 . S
H241 C284 0.929 . S
H242 C286 0.931 . S
H243 C287 0.930 . S
H244 C289 0.929 . S
H245 C290 0.931 . S
H246 C292 0.930 . S
H247 C293 0.929 . S
O248 H222 0.856 . S
O248 C294 1.300 . S
O249 C294 1.209 . S
O250 C295 1.199 . S
O251 H223 0.854 . S
O251 C295 1.297 . S
C252 C253 1.404 . S
C252 C257 1.397 . S
C252 C258 1.492 . S
C253 C252 1.404 . S
C253 C254 1.396 . S
C253 C264 1.492 . S
C254 C253 1.396 . S
C254 C255 1.397 . S
C254 C270 1.509 . S
C255 C254 1.397 . S
C255 C256 1.412 . S
C255 C276 1.485 . S
C256 C255 1.412 . S
C256 C257 1.388 . S
C256 C282 1.490 . S
C257 C252 1.397 . S
C257 C256 1.388 . S
C257 C288 1.519 . S
C258 C252 1.492 . S
C258 C259 1.363 . S
C258 C263 1.390 . S
C259 H224 0.930 . S
C259 C258 1.363 . S
C259 C260 1.372 . S
C260 H225 0.930 . S
C260 C259 1.372 . S
C260 C261 1.383 . S
C261 C260 1.383 . S
C261 C262 1.395 . S
C262 H226 0.930 . S
C262 C261 1.395 . S
C262 C263 1.362 . S
C263 H227 0.930 . S
C263 C258 1.390 . S
C263 C262 1.362 . S
C264 C253 1.492 . S
C264 C265 1.377 . S
C264 C269 1.397 . S
C265 H228 0.931 . S
C265 C264 1.377 . S
C265 C266 1.376 . S
C266 H229 0.930 . S
C266 C265 1.376 . S
C266 C267 1.376 . S
C267 C266 1.376 . S
C267 C268 1.378 . S
C267 C294 1.486 . S
C268 H230 0.930 . S
C268 C267 1.378 . S
C268 C269 1.376 . S
C269 H231 0.929 . S
C269 C264 1.397 . S
C269 C268 1.376 . S
C270 C254 1.509 . S
C270 C271 1.391 . S
C270 C275 1.386 . S
C271 H232 0.930 . S
C271 C270 1.391 . S
C271 C272 1.375 . S
C272 H233 0.931 . S
C272 C271 1.375 . S
C272 C273 1.375 . S
C273 C272 1.375 . S
C273 C274 1.361 . S
C274 H234 0.930 . S
C274 C273 1.361 . S
C274 C275 1.399 . S
C275 H235 0.929 . S
C275 C270 1.386 . S
C275 C274 1.399 . S
C276 C255 1.485 . S
C276 C277 1.394 . S
C276 C281 1.360 . S
C277 H236 0.931 . S
C277 C276 1.394 . S
C277 C278 1.372 . S
C278 H237 0.930 . S
C278 C277 1.372 . S
C278 C279 1.397 . S
C279 C278 1.397 . S
C279 C280 1.390 . S
C279 C295 1.476 . S
C280 H238 0.930 . S
C280 C279 1.390 . S
C280 C281 1.366 . S
C281 H239 0.932 . S
C281 C276 1.360 . S
C281 C280 1.366 . S
C282 C256 1.490 . S
C282 C283 1.380 . S
C282 C287 1.386 . S
C283 H240 0.930 . S
C283 C282 1.380 . S
C283 C284 1.381 . S
C284 H241 0.929 . S
C284 C283 1.381 . S
C284 C285 1.371 . S
C285 C284 1.371 . S
C285 C286 1.380 . S
C286 H242 0.931 . S
C286 C285 1.380 . S
C286 C287 1.387 . S
C287 H243 0.930 . S
C287 C282 1.386 . S
C287 C286 1.387 . S
C288 C257 1.519 . S
C288 C289 1.377 . S
C288 C293 1.361 . S
C289 H244 0.929 . S
C289 C288 1.377 . S
C289 C290 1.386 . S
C290 H245 0.931 . S
C290 C289 1.386 . S
C290 C291 1.363 . S
C291 C290 1.363 . S
C291 C292 1.385 . S
C292 H246 0.930 . S
C292 C291 1.385 . S
C292 C293 1.396 . S
C293 H247 0.929 . S
C293 C288 1.361 . S
C293 C292 1.396 . S
C294 O248 1.300 . S
C294 O249 1.209 . S
C294 C267 1.486 . S
C295 O250 1.199 . S
C295 O251 1.297 . S
C295 C279 1.476 . S
H296 O322 0.856 . S
H297 O325 0.854 . S
H298 C333 0.930 . S
H299 C334 0.930 . S
H300 C336 0.930 . S
H301 C337 0.930 . S
H302 C339 0.931 . S
H303 C340 0.930 . S
H304 C342 0.930 . S
H305 C343 0.929 . S
H306 C345 0.930 . S
H307 C346 0.931 . S
H308 C348 0.930 . S
H309 C349 0.929 . S
H310 C351 0.931 . S
H311 C352 0.930 . S
H312 C354 0.930 . S
H313 C355 0.932 . S
H314 C357 0.930 . S
H315 C358 0.929 . S
H316 C360 0.931 . S
H317 C361 0.930 . S
H318 C363 0.929 . S
H319 C364 0.931 . S
H320 C366 0.930 . S
H321 C367 0.929 . S
O322 H296 0.856 . S
O322 C368 1.300 . S
O323 C368 1.209 1_455 S
O324 C369 1.199 . S
O325 H297 0.854 . S
O325 C369 1.297 . S
C326 C327 1.404 . S
C326 C331 1.397 . S
C326 C332 1.492 . S
C327 C326 1.404 . S
C327 C328 1.396 . S
C327 C338 1.492 . S
C328 C327 1.396 . S
C328 C329 1.397 . S
C328 C344 1.509 . S
C329 C328 1.397 . S
C329 C330 1.412 . S
C329 C350 1.485 . S
C330 C329 1.412 . S
C330 C331 1.388 . S
C330 C356 1.490 . S
C331 C326 1.397 . S
C331 C330 1.388 . S
C331 C362 1.519 . S
C332 C326 1.492 . S
C332 C333 1.363 . S
C332 C337 1.390 . S
C333 H298 0.930 . S
C333 C332 1.363 . S
C333 C334 1.372 . S
C334 H299 0.930 . S
C334 C333 1.372 . S
C334 C335 1.383 . S
C335 C334 1.383 . S
C335 C336 1.395 . S
C336 H300 0.930 . S
C336 C335 1.395 . S
C336 C337 1.362 . S
C337 H301 0.930 . S
C337 C332 1.390 . S
C337 C336 1.362 . S
C338 C327 1.492 . S
C338 C339 1.377 . S
C338 C343 1.397 . S
C339 H302 0.931 . S
C339 C338 1.377 . S
C339 C340 1.376 . S
C340 H303 0.930 . S
C340 C339 1.376 . S
C340 C341 1.376 . S
C341 C340 1.376 . S
C341 C342 1.378 . S
C341 C368 1.486 . S
C342 H304 0.930 . S
C342 C341 1.378 . S
C342 C343 1.376 . S
C343 H305 0.929 . S
C343 C338 1.397 . S
C343 C342 1.376 . S
C344 C328 1.509 . S
C344 C345 1.391 . S
C344 C349 1.386 . S
C345 H306 0.930 . S
C345 C344 1.391 . S
C345 C346 1.375 . S
C346 H307 0.931 . S
C346 C345 1.375 . S
C346 C347 1.375 . S
C347 C346 1.375 . S
C347 C348 1.361 . S
C348 H308 0.930 . S
C348 C347 1.361 . S
C348 C349 1.399 . S
C349 H309 0.929 . S
C349 C344 1.386 . S
C349 C348 1.399 . S
C350 C329 1.485 . S
C350 C351 1.394 . S
C350 C355 1.360 . S
C351 H310 0.931 . S
C351 C350 1.394 . S
C351 C352 1.372 . S
C352 H311 0.930 . S
C352 C351 1.372 . S
C352 C353 1.397 . S
C353 C352 1.397 . S
C353 C354 1.390 . S
C353 C369 1.476 . S
C354 H312 0.930 . S
C354 C353 1.390 . S
C354 C355 1.366 . S
C355 H313 0.932 . S
C355 C350 1.360 . S
C355 C354 1.366 . S
C356 C330 1.490 . S
C356 C357 1.380 . S
C356 C361 1.386 . S
C357 H314 0.930 . S
C357 C356 1.380 . S
C357 C358 1.381 . S
C358 H315 0.929 . S
C358 C357 1.381 . S
C358 C359 1.371 . S
C359 C358 1.371 . S
C359 C360 1.380 . S
C360 H316 0.931 . S
C360 C359 1.380 . S
C360 C361 1.387 . S
C361 H317 0.930 . S
C361 C356 1.386 . S
C361 C360 1.387 . S
C362 C331 1.519 . S
C362 C363 1.377 . S
C362 C367 1.361 . S
C363 H318 0.929 . S
C363 C362 1.377 . S
C363 C364 1.386 . S
C364 H319 0.931 . S
C364 C363 1.386 . S
C364 C365 1.363 . S
C365 C364 1.363 . S
C365 C366 1.385 . S
C366 H320 0.930 . S
C366 C365 1.385 . S
C366 C367 1.396 . S
C367 H321 0.929 . S
C367 C362 1.361 . S
C367 C366 1.396 . S
C368 O322 1.300 . S
C368 O323 1.209 1_655 S
C368 C341 1.486 . S
C369 O324 1.199 . S
C369 O325 1.297 . S
C369 C353 1.476 . S
H370 O396 0.856 . S
H371 O399 0.854 . S
H372 C407 0.930 . S
H373 C408 0.930 1_545 S
H374 C410 0.930 . S
H375 C411 0.930 . S
H376 C413 0.931 . S
H377 C414 0.930 . S
H378 C416 0.930 . S
H379 C417 0.929 . S
H380 C419 0.930 . S
H381 C420 0.931 . S
H382 C422 0.930 . S
H383 C423 0.929 . S
H384 C425 0.931 . S
H385 C426 0.930 . S
H386 C428 0.930 . S
H387 C429 0.932 . S
H388 C431 0.930 . S
H389 C432 0.929 . S
H390 C434 0.931 . S
H391 C435 0.930 . S
H392 C437 0.929 . S
H393 C438 0.931 . S
H394 C440 0.930 . S
H395 C441 0.929 . S
O396 H370 0.856 . S
O396 C442 1.300 . S
O397 C442 1.209 . S
O398 C443 1.199 . S
O399 H371 0.854 . S
O399 C443 1.297 . S
C400 C401 1.404 . S
C400 C405 1.397 . S
C400 C406 1.492 . S
C401 C400 1.404 . S
C401 C402 1.396 . S
C401 C412 1.492 . S
C402 C401 1.396 . S
C402 C403 1.397 . S
C402 C418 1.509 . S
C403 C402 1.397 . S
C403 C404 1.412 . S
C403 C424 1.485 . S
C404 C403 1.412 . S
C404 C405 1.388 . S
C404 C430 1.490 . S
C405 C400 1.397 . S
C405 C404 1.388 . S
C405 C436 1.519 . S
C406 C400 1.492 . S
C406 C407 1.363 . S
C406 C411 1.390 . S
C407 H372 0.930 . S
C407 C406 1.363 . S
C407 C408 1.372 . S
C408 H373 0.930 1_565 S
C408 C407 1.372 . S
C408 C409 1.383 1_565 S
C409 C408 1.383 1_545 S
C409 C410 1.395 . S
C410 H374 0.930 . S
C410 C409 1.395 . S
C410 C411 1.362 1_545 S
C411 H375 0.930 . S
C411 C406 1.390 . S
C411 C410 1.362 1_565 S
C412 C401 1.492 . S
C412 C413 1.377 . S
C412 C417 1.397 . S
C413 H376 0.931 . S
C413 C412 1.377 . S
C413 C414 1.376 . S
C414 H377 0.930 . S
C414 C413 1.376 . S
C414 C415 1.376 . S
C415 C414 1.376 . S
C415 C416 1.378 . S
C415 C442 1.486 . S
C416 H378 0.930 . S
C416 C415 1.378 . S
C416 C417 1.376 . S
C417 H379 0.929 . S
C417 C412 1.397 . S
C417 C416 1.376 . S
C418 C402 1.509 . S
C418 C419 1.391 . S
C418 C423 1.386 . S
C419 H380 0.930 . S
C419 C418 1.391 . S
C419 C420 1.375 . S
C420 H381 0.931 . S
C420 C419 1.375 . S
C420 C421 1.375 . S
C421 C420 1.375 . S
C421 C422 1.361 . S
C422 H382 0.930 . S
C422 C421 1.361 . S
C422 C423 1.399 . S
C423 H383 0.929 . S
C423 C418 1.386 . S
C423 C422 1.399 . S
C424 C403 1.485 . S
C424 C425 1.394 . S
C424 C429 1.360 . S
C425 H384 0.931 . S
C425 C424 1.394 . S
C425 C426 1.372 . S
C426 H385 0.930 . S
C426 C425 1.372 . S
C426 C427 1.397 . S
C427 C426 1.397 . S
C427 C428 1.390 . S
C427 C443 1.476 . S
C428 H386 0.930 . S
C428 C427 1.390 . S
C428 C429 1.366 . S
C429 H387 0.932 . S
C429 C424 1.360 . S
C429 C428 1.366 . S
C430 C404 1.490 . S
C430 C431 1.380 . S
C430 C435 1.386 . S
C431 H388 0.930 . S
C431 C430 1.380 . S
C431 C432 1.381 . S
C432 H389 0.929 . S
C432 C431 1.381 . S
C432 C433 1.371 . S
C433 C432 1.371 . S
C433 C434 1.380 . S
C434 H390 0.931 . S
C434 C433 1.380 . S
C434 C435 1.387 . S
C435 H391 0.930 . S
C435 C430 1.386 . S
C435 C434 1.387 . S
C436 C405 1.519 . S
C436 C437 1.377 . S
C436 C441 1.361 . S
C437 H392 0.929 . S
C437 C436 1.377 . S
C437 C438 1.386 . S
C438 H393 0.931 . S
C438 C437 1.386 . S
C438 C439 1.363 . S
C439 C438 1.363 . S
C439 C440 1.385 . S
C440 H394 0.930 . S
C440 C439 1.385 . S
C440 C441 1.396 . S
C441 H395 0.929 . S
C441 C436 1.361 . S
C441 C440 1.396 . S
C442 O396 1.300 . S
C442 O397 1.209 . S
C442 C415 1.486 . S
C443 O398 1.199 . S
C443 O399 1.297 . S
C443 C427 1.476 . S
H444 O470 0.856 . S
H445 O473 0.854 . S
H446 C481 0.934 . S
H447 C482 0.878 1_556 S
H448 C484 0.930 . S
H449 C485 0.930 . S
H450 C487 0.931 . S
H451 C488 0.930 . S
H452 C490 0.930 . S
H453 C491 0.889 1_554 S
H454 C493 0.930 . S
H455 C494 0.931 . S
H456 C496 0.930 . S
H457 C497 0.929 . S
H458 C499 0.931 . S
H459 C500 0.930 . S
H460 C502 0.930 . S
H461 C503 0.932 . S
H462 C505 0.930 . S
H463 C506 0.929 . S
H464 C508 0.931 . S
H465 C509 0.930 . S
H466 C511 0.929 . S
H467 C512 0.931 . S
H468 C514 0.930 . S
H469 C515 0.929 . S
O470 H444 0.856 . S
O470 C516 1.300 . S
O471 C516 1.209 . S
O472 C517 1.199 . S
O473 H445 0.854 . S
O473 C517 1.297 . S
C474 C475 1.404 . S
C474 C479 1.397 . S
C474 C480 1.492 . S
C475 C474 1.404 . S
C475 C476 1.396 . S
C475 C486 1.492 1_554 S
C476 C475 1.396 . S
C476 C477 1.397 . S
C476 C492 1.509 . S
C477 C476 1.397 . S
C477 C478 1.412 . S
C477 C498 1.485 . S
C478 C477 1.412 . S
C478 C479 1.388 . S
C478 C504 1.490 . S
C479 C474 1.397 . S
C479 C478 1.388 . S
C479 C510 1.519 . S
C480 C474 1.492 . S
C480 C481 1.363 . S
C480 C485 1.390 . S
C481 H446 0.934 . S
C481 C480 1.363 . S
C481 C482 1.394 . S
C482 H447 0.878 1_554 S
C482 C481 1.394 . S
C482 C483 1.417 . S
C483 C482 1.417 . S
C483 C484 1.395 . S
C484 H448 0.930 . S
C484 C483 1.395 . S
C484 C485 1.362 . S
C485 H449 0.930 . S
C485 C480 1.390 . S
C485 C484 1.362 . S
C486 C475 1.492 1_556 S
C486 C487 1.377 . S
C486 C491 1.402 . S
C487 H450 0.931 . S
C487 C486 1.377 . S
C487 C488 1.376 . S
C488 H451 0.930 . S
C488 C487 1.376 . S
C488 C489 1.376 . S
C489 C488 1.376 . S
C489 C490 1.378 . S
C489 C516 1.486 . S
C490 H452 0.930 . S
C490 C489 1.378 . S
C490 C491 1.411 . S
C491 H453 0.889 1_556 S
C491 C486 1.402 . S
C491 C490 1.411 . S
C492 C476 1.509 . S
C492 C493 1.391 1_554 S
C492 C497 1.386 . S
C493 H454 0.930 . S
C493 C492 1.391 1_556 S
C493 C494 1.375 . S
C494 H455 0.931 . S
C494 C493 1.375 . S
C494 C495 1.375 . S
C495 C494 1.375 . S
C495 C496 1.361 . S
C496 H456 0.930 . S
C496 C495 1.361 . S
C496 C497 1.399 1_556 S
C497 H457 0.929 . S
C497 C492 1.386 . S
C497 C496 1.399 1_554 S
C498 C477 1.485 . S
C498 C499 1.394 . S
C498 C503 1.360 . S
C499 H458 0.931 . S
C499 C498 1.394 . S
C499 C500 1.372 . S
C500 H459 0.930 . S
C500 C499 1.372 . S
C500 C501 1.397 . S
C501 C500 1.397 . S
C501 C502 1.390 . S
C501 C517 1.476 . S
C502 H460 0.930 . S
C502 C501 1.390 . S
C502 C503 1.366 . S
C503 H461 0.932 . S
C503 C498 1.360 . S
C503 C502 1.366 . S
C504 C478 1.490 . S
C504 C505 1.380 . S
C504 C509 1.386 . S
C505 H462 0.930 . S
C505 C504 1.380 . S
C505 C506 1.381 . S
C506 H463 0.929 . S
C506 C505 1.381 . S
C506 C507 1.371 . S
C507 C506 1.371 . S
C507 C508 1.380 . S
C508 H464 0.931 . S
C508 C507 1.380 . S
C508 C509 1.387 . S
C509 H465 0.930 . S
C509 C504 1.386 . S
C509 C508 1.387 . S
C510 C479 1.519 . S
C510 C511 1.377 . S
C510 C515 1.361 . S
C511 H466 0.929 . S
C511 C510 1.377 . S
C511 C512 1.386 . S
C512 H467 0.931 . S
C512 C511 1.386 . S
C512 C513 1.363 . S
C513 C512 1.363 . S
C513 C514 1.385 . S
C514 H468 0.930 . S
C514 C513 1.385 . S
C514 C515 1.396 . S
C515 H469 0.929 . S
C515 C510 1.361 . S
C515 C514 1.396 . S
C516 O470 1.300 . S
C516 O471 1.209 . S
C516 C489 1.486 . S
C517 O472 1.199 . S
C517 O473 1.297 . S
C517 C501 1.476 . S
H518 O544 0.856 . S
H519 O547 0.854 . S
H520 C555 0.930 . S
H521 C556 0.930 1_655 S
H522 C558 0.930 . S
H523 C559 0.930 . S
H524 C561 0.931 . S
H525 C562 0.930 . S
H526 C564 0.930 . S
H527 C565 0.929 . S
H528 C567 0.930 . S
H529 C568 0.931 . S
H530 C570 0.930 . S
H531 C571 0.929 . S
H532 C573 0.931 . S
H533 C574 0.930 . S
H534 C576 0.930 . S
H535 C577 0.932 . S
H536 C579 0.930 . S
H537 C580 0.929 . S
H538 C582 0.931 . S
H539 C583 0.930 . S
H540 C585 0.929 . S
H541 C586 0.931 . S
H542 C588 0.930 . S
H543 C589 0.929 . S
O544 H518 0.856 . S
O544 C590 1.300 . S
O545 C590 1.209 . S
O546 C591 1.199 . S
O547 H519 0.854 . S
O547 C591 1.297 . S
C548 C549 1.404 . S
C548 C553 1.397 . S
C548 C554 1.492 . S
C549 C548 1.404 . S
C549 C550 1.396 . S
C549 C560 1.492 . S
C550 C549 1.396 . S
C550 C551 1.397 . S
C550 C566 1.509 . S
C551 C550 1.397 . S
C551 C552 1.412 . S
C551 C572 1.485 . S
C552 C551 1.412 . S
C552 C553 1.388 . S
C552 C578 1.490 . S
C553 C548 1.397 . S
C553 C552 1.388 . S
C553 C584 1.519 . S
C554 C548 1.492 . S
C554 C555 1.363 . S
C554 C559 1.390 . S
C555 H520 0.930 . S
C555 C554 1.363 . S
C555 C556 1.372 . S
C556 H521 0.930 1_455 S
C556 C555 1.372 . S
C556 C557 1.383 1_455 S
C557 C556 1.383 1_655 S
C557 C558 1.395 . S
C558 H522 0.930 . S
C558 C557 1.395 . S
C558 C559 1.362 1_655 S
C559 H523 0.930 . S
C559 C554 1.390 . S
C559 C558 1.362 1_455 S
C560 C549 1.492 . S
C560 C561 1.377 . S
C560 C565 1.397 . S
C561 H524 0.931 . S
C561 C560 1.377 . S
C561 C562 1.376 . S
C562 H525 0.930 . S
C562 C561 1.376 . S
C562 C563 1.376 . S
C563 C562 1.376 . S
C563 C564 1.378 . S
C563 C590 1.486 . S
C564 H526 0.930 . S
C564 C563 1.378 . S
C564 C565 1.376 . S
C565 H527 0.929 . S
C565 C560 1.397 . S
C565 C564 1.376 . S
C566 C550 1.509 . S
C566 C567 1.391 . S
C566 C571 1.386 . S
C567 H528 0.930 . S
C567 C566 1.391 . S
C567 C568 1.375 . S
C568 H529 0.931 . S
C568 C567 1.375 . S
C568 C569 1.375 . S
C569 C568 1.375 . S
C569 C570 1.361 . S
C570 H530 0.930 . S
C570 C569 1.361 . S
C570 C571 1.399 . S
C571 H531 0.929 . S
C571 C566 1.386 . S
C571 C570 1.399 . S
C572 C551 1.485 . S
C572 C573 1.394 . S
C572 C577 1.360 . S
C573 H532 0.931 . S
C573 C572 1.394 . S
C573 C574 1.372 . S
C574 H533 0.930 . S
C574 C573 1.372 . S
C574 C575 1.397 . S
C575 C574 1.397 . S
C575 C576 1.390 . S
C575 C591 1.476 . S
C576 H534 0.930 . S
C576 C575 1.390 . S
C576 C577 1.366 . S
C577 H535 0.932 . S
C577 C572 1.360 . S
C577 C576 1.366 . S
C578 C552 1.490 . S
C578 C579 1.380 . S
C578 C583 1.386 . S
C579 H536 0.930 . S
C579 C578 1.380 . S
C579 C580 1.381 . S
C580 H537 0.929 . S
C580 C579 1.381 . S
C580 C581 1.371 . S
C581 C580 1.371 . S
C581 C582 1.380 . S
C582 H538 0.931 . S
C582 C581 1.380 . S
C582 C583 1.387 . S
C583 H539 0.930 . S
C583 C578 1.386 . S
C583 C582 1.387 . S
C584 C553 1.519 . S
C584 C585 1.377 . S
C584 C589 1.361 . S
C585 H540 0.929 . S
C585 C584 1.377 . S
C585 C586 1.386 . S
C586 H541 0.931 . S
C586 C585 1.386 . S
C586 C587 1.363 . S
C587 C586 1.363 . S
C587 C588 1.385 . S
C588 H542 0.930 . S
C588 C587 1.385 . S
C588 C589 1.396 . S
C589 H543 0.929 . S
C589 C584 1.361 . S
C589 C588 1.396 . S
C590 O544 1.300 . S
C590 O545 1.209 . S
C590 C563 1.486 . S
C591 O546 1.199 . S
C591 O547 1.297 . S
C591 C575 1.476 . S
C592 O619 1.312 . S
C592 O620 1.208 . S
C593 O614 1.331 . S
C593 O617 1.244 . S
C594 O616 1.264 . S
C594 O618 1.273 . S
Mg595 O597 1.936 . S
Mg595 O604 2.081 . S
Mg595 O606 2.023 . S
Mg595 O610 2.031 . S
Mg595 O619 2.291 . S
Mg596 O597 1.963 . S
Mg596 O607 1.942 . S
Mg596 O608 1.955 . S
Mg596 O615 1.986 . S
O597 Mg595 1.936 . S
O597 Mg596 1.963 . S
O597 Mg598 1.915 . S
Mg598 O597 1.915 . S
Mg598 O599 1.915 . S
Mg598 O603 2.013 . S
Mg598 O609 2.114 . S
Mg598 O613 2.013 . S
Mg598 O619 2.114 . S
O599 Mg598 1.915 . S
O599 Mg600 1.936 . S
O599 Mg601 1.963 1_455 S
Mg600 O599 1.936 . S
Mg600 O609 2.291 . S
Mg600 O614 2.081 1_455 S
Mg600 O616 2.023 1_455 S
Mg600 O620 2.031 . S
Mg601 O599 1.963 1_655 S
Mg601 O605 1.986 . S
Mg601 O617 1.942 . S
Mg601 O618 1.955 . S
C602 O613 1.191 . S
C602 O615 1.307 . S
O603 Mg598 2.013 . S
O603 C622 1.197 . S
O604 Mg595 2.081 . S
O604 C612 1.331 . S
O605 Mg601 1.986 . S
O605 C622 1.301 1_655 S
O606 Mg595 2.023 . S
O606 C621 1.264 . S
O607 Mg596 1.942 . S
O607 C612 1.244 . S
O608 Mg596 1.955 . S
O608 C621 1.273 . S
O609 Mg598 2.114 . S
O609 Mg600 2.291 . S
O609 C611 1.312 . S
O610 Mg595 2.031 . S
O610 C611 1.208 . S
C611 O609 1.312 . S
C611 O610 1.208 . S
C612 O604 1.331 . S
C612 O607 1.244 . S
O613 Mg598 2.013 . S
O613 C602 1.191 . S
O614 C593 1.331 . S
O614 Mg600 2.081 1_655 S
O615 Mg596 1.986 . S
O615 C602 1.307 . S
O616 C594 1.264 . S
O616 Mg600 2.023 1_655 S
O617 C593 1.244 . S
O617 Mg601 1.942 . S
O618 C594 1.273 . S
O618 Mg601 1.955 . S
O619 C592 1.312 . S
O619 Mg595 2.291 . S
O619 Mg598 2.114 . S
O620 C592 1.208 . S
O620 Mg600 2.031 . S
C621 O606 1.264 . S
C621 O608 1.273 . S
C622 O603 1.197 . S
C622 O605 1.301 1_455 S
C623 O650 1.312 . S
C623 O651 1.208 . S
C624 O645 1.331 . S
C624 O648 1.244 . S
C625 O647 1.264 . S
C625 O649 1.273 . S
Mg626 O628 1.936 . S
Mg626 O635 2.081 . S
Mg626 O637 2.023 . S
Mg626 O641 2.031 . S
Mg626 O650 2.291 . S
Mg627 O628 1.963 . S
Mg627 O638 1.942 . S
Mg627 O639 1.955 . S
Mg627 O646 1.986 . S
O628 Mg626 1.936 . S
O628 Mg627 1.963 . S
O628 Mg629 1.915 . S
Mg629 O628 1.915 . S
Mg629 O630 1.915 . S
Mg629 O634 2.013 . S
Mg629 O640 2.114 . S
Mg629 O644 2.013 . S
Mg629 O650 2.114 . S
O630 Mg629 1.915 . S
O630 Mg631 1.936 . S
O630 Mg632 1.963 . S
Mg631 O630 1.936 . S
Mg631 O640 2.291 . S
Mg631 O645 2.081 . S
Mg631 O647 2.023 . S
Mg631 O651 2.031 . S
Mg632 O630 1.963 . S
Mg632 O636 1.986 . S
Mg632 O648 1.942 . S
Mg632 O649 1.955 . S
C633 O644 1.191 . S
C633 O646 1.307 . S
O634 Mg629 2.013 . S
O634 C653 1.191 . S
O635 Mg626 2.081 . S
O635 C643 1.331 . S
O636 Mg632 1.986 . S
O636 C653 1.307 . S
O637 Mg626 2.023 . S
O637 C652 1.264 . S
O638 Mg627 1.942 . S
O638 C643 1.244 . S
O639 Mg627 1.955 . S
O639 C652 1.273 . S
O640 Mg629 2.114 . S
O640 Mg631 2.291 . S
O640 C642 1.312 . S
O641 Mg626 2.031 . S
O641 C642 1.208 . S
C642 O640 1.312 . S
C642 O641 1.208 . S
C643 O635 1.331 . S
C643 O638 1.244 . S
O644 Mg629 2.013 . S
O644 C633 1.191 . S
O645 C624 1.331 . S
O645 Mg631 2.081 . S
O646 Mg627 1.986 . S
O646 C633 1.307 . S
O647 C625 1.264 . S
O647 Mg631 2.023 . S
O648 C624 1.244 . S
O648 Mg632 1.942 . S
O649 C625 1.273 . S
O649 Mg632 1.955 . S
O650 C623 1.312 . S
O650 Mg626 2.291 . S
O650 Mg629 2.114 . S
O651 C623 1.208 . S
O651 Mg631 2.031 . S
C652 O637 1.264 . S
C652 O639 1.273 . S
C653 O634 1.191 . S
C653 O636 1.307 . S
C654 O681 1.312 . S
C654 O682 1.208 . S
C655 O676 1.331 . S
C655 O679 1.244 . S
C656 O678 1.264 . S
C656 O680 1.273 . S
Mg657 O659 1.936 . S
Mg657 O666 2.081 . S
Mg657 O668 2.023 . S
Mg657 O672 2.031 . S
Mg657 O681 2.291 . S
Mg658 O659 1.963 . S
Mg658 O669 1.942 . S
Mg658 O670 1.955 . S
Mg658 O677 1.986 . S
O659 Mg657 1.936 . S
O659 Mg658 1.963 . S
O659 Mg660 1.915 . S
Mg660 O659 1.915 . S
Mg660 O661 1.915 . S
Mg660 O665 2.013 . S
Mg660 O671 2.114 . S
Mg660 O675 2.013 . S
Mg660 O681 2.114 . S
O661 Mg660 1.915 . S
O661 Mg662 1.936 . S
O661 Mg663 1.963 . S
Mg662 O661 1.936 . S
Mg662 O671 2.291 . S
Mg662 O676 2.081 . S
Mg662 O678 2.023 . S
Mg662 O682 2.031 . S
Mg663 O661 1.963 . S
Mg663 O667 1.986 . S
Mg663 O679 1.942 . S
Mg663 O680 1.955 . S
C664 O675 1.191 . S
C664 O677 1.307 . S
O665 Mg660 2.013 . S
O665 C684 1.191 . S
O666 Mg657 2.081 . S
O666 C674 1.331 . S
O667 Mg663 1.986 . S
O667 C684 1.307 . S
O668 Mg657 2.023 . S
O668 C683 1.264 . S
O669 Mg658 1.942 . S
O669 C674 1.244 . S
O670 Mg658 1.955 . S
O670 C683 1.273 . S
O671 Mg660 2.114 . S
O671 Mg662 2.291 . S
O671 C673 1.312 . S
O672 Mg657 2.031 . S
O672 C673 1.208 . S
C673 O671 1.312 . S
C673 O672 1.208 . S
C674 O666 1.331 . S
C674 O669 1.244 . S
O675 Mg660 2.013 . S
O675 C664 1.191 . S
O676 C655 1.331 . S
O676 Mg662 2.081 . S
O677 Mg658 1.986 . S
O677 C664 1.307 . S
O678 C656 1.264 . S
O678 Mg662 2.023 . S
O679 C655 1.244 . S
O679 Mg663 1.942 . S
O680 C656 1.273 . S
O680 Mg663 1.955 . S
O681 C654 1.312 . S
O681 Mg657 2.291 . S
O681 Mg660 2.114 . S
O682 C654 1.208 . S
O682 Mg662 2.031 . S
C683 O668 1.264 . S
C683 O670 1.273 . S
C684 O665 1.191 . S
C684 O667 1.307 . S
C685 O712 1.312 . S
C685 O713 1.208 . S
C686 O707 1.331 . S
C686 O710 1.244 . S
C687 O709 1.264 . S
C687 O711 1.273 . S
Mg688 O690 1.936 . S
Mg688 O697 2.081 1_455 S
Mg688 O699 2.023 1_455 S
Mg688 O703 2.031 . S
Mg688 O712 2.291 . S
Mg689 O690 1.963 1_655 S
Mg689 O700 1.942 . S
Mg689 O701 1.955 . S
Mg689 O708 1.986 . S
O690 Mg688 1.936 . S
O690 Mg689 1.963 1_455 S
O690 Mg691 1.915 . S
Mg691 O690 1.915 . S
Mg691 O692 1.915 . S
Mg691 O696 2.013 . S
Mg691 O702 2.114 . S
Mg691 O706 2.013 . S
Mg691 O712 2.114 . S
O692 Mg691 1.915 . S
O692 Mg693 1.936 . S
O692 Mg694 1.963 . S
Mg693 O692 1.936 . S
Mg693 O702 2.291 . S
Mg693 O707 2.081 . S
Mg693 O709 2.023 . S
Mg693 O713 2.031 . S
Mg694 O692 1.963 . S
Mg694 O698 1.986 . S
Mg694 O710 1.942 . S
Mg694 O711 1.955 . S
C695 O706 1.191 1_655 S
C695 O708 1.307 . S
O696 Mg691 2.013 . S
O696 C715 1.191 . S
O697 Mg688 2.081 1_655 S
O697 C705 1.331 . S
O698 Mg694 1.986 . S
O698 C715 1.307 . S
O699 Mg688 2.023 1_655 S
O699 C714 1.264 . S
O700 Mg689 1.942 . S
O700 C705 1.244 . S
O701 Mg689 1.955 . S
O701 C714 1.273 . S
O702 Mg691 2.114 . S
O702 Mg693 2.291 . S
O702 C704 1.312 . S
O703 Mg688 2.031 . S
O703 C704 1.208 . S
C704 O702 1.312 . S
C704 O703 1.208 . S
C705 O697 1.331 . S
C705 O700 1.244 . S
O706 Mg691 2.013 . S
O706 C695 1.191 1_455 S
O707 C686 1.331 . S
O707 Mg693 2.081 . S
O708 Mg689 1.986 . S
O708 C695 1.307 . S
O709 C687 1.264 . S
O709 Mg693 2.023 . S
O710 C686 1.244 . S
O710 Mg694 1.942 . S
O711 C687 1.273 . S
O711 Mg694 1.955 . S
O712 C685 1.312 . S
O712 Mg688 2.291 . S
O712 Mg691 2.114 . S
O713 C685 1.208 . S
O713 Mg693 2.031 . S
C714 O699 1.264 . S
C714 O701 1.273 . S
C715 O696 1.191 . S
C715 O698 1.307 . S
H716 C728 0.930 . S
H717 C730 0.930 . S
H718 C731 0.930 . S
H719 C735 0.959 1_565 S
H720 C735 0.959 . S
H721 C735 0.961 . S
H722 C736 0.960 . S
H723 C736 0.961 . S
H724 C736 0.959 . S
H725 C739 0.929 . S
H726 C740 0.931 . S
H727 C742 0.930 . S
C728 H716 0.930 . S
C728 C729 1.399 . S
C728 C733 1.399 . S
C729 C728 1.399 . S
C729 C730 1.376 . S
C730 H717 0.930 . S
C730 C729 1.376 . S
C730 C731 1.388 . S
C731 H718 0.930 . S
C731 C730 1.388 . S
C731 C732 1.390 . S
C732 C731 1.390 . S
C732 C733 1.394 . S
C732 C738 1.465 . S
C733 C728 1.399 . S
C733 C732 1.394 . S
C733 C734 1.516 . S
C734 C733 1.516 . S
C734 C735 1.502 1_565 S
C734 C736 1.561 . S
C734 C737 1.526 . S
C735 H719 0.959 1_545 S
C735 H720 0.959 . S
C735 H721 0.961 . S
C735 C734 1.502 1_545 S
C736 H722 0.960 . S
C736 H723 0.961 . S
C736 H724 0.959 . S
C736 C734 1.561 . S
C737 C734 1.526 . S
C737 C738 1.396 . S
C737 C742 1.390 . S
C738 C732 1.465 . S
C738 C737 1.396 . S
C738 C739 1.399 . S
C739 H725 0.929 . S
C739 C738 1.399 . S
C739 C740 1.385 . S
C740 H726 0.931 . S
C740 C739 1.385 . S
C740 C741 1.389 . S
C741 C740 1.389 . S
C741 C742 1.387 . S
C742 H727 0.930 . S
C742 C737 1.390 . S
C742 C741 1.387 . S
H743 C755 0.930 . S
H744 C757 0.930 . S
H745 C758 0.930 . S
H746 C762 0.959 1_565 S
H747 C762 0.959 . S
H748 C762 0.961 1_565 S
H749 C763 0.960 . S
H750 C763 0.961 . S
H751 C763 0.959 . S
H752 C766 0.929 . S
H753 C767 0.931 . S
H754 C769 0.930 . S
C755 H743 0.930 . S
C755 C756 1.399 . S
C755 C760 1.399 . S
C756 C755 1.399 . S
C756 C757 1.376 . S
C757 H744 0.930 . S
C757 C756 1.376 . S
C757 C758 1.388 . S
C758 H745 0.930 . S
C758 C757 1.388 . S
C758 C759 1.390 1_565 S
C759 C758 1.390 1_545 S
C759 C760 1.394 1_545 S
C759 C765 1.465 . S
C760 C755 1.399 . S
C760 C759 1.394 1_565 S
C760 C761 1.516 1_565 S
C761 C760 1.516 1_545 S
C761 C762 1.502 . S
C761 C763 1.561 . S
C761 C764 1.526 . S
C762 H746 0.959 1_545 S
C762 H747 0.959 . S
C762 H748 0.961 1_545 S
C762 C761 1.502 . S
C763 H749 0.960 . S
C763 H750 0.961 . S
C763 H751 0.959 . S
C763 C761 1.561 . S
C764 C761 1.526 . S
C764 C765 1.396 . S
C764 C769 1.390 . S
C765 C759 1.465 . S
C765 C764 1.396 . S
C765 C766 1.399 . S
C766 H752 0.929 . S
C766 C765 1.399 . S
C766 C767 1.385 . S
C767 H753 0.931 . S
C767 C766 1.385 . S
C767 C768 1.389 . S
C768 C767 1.389 . S
C768 C769 1.387 . S
C769 H754 0.930 . S
C769 C764 1.390 . S
C769 C768 1.387 . S
H770 C782 0.930 . S
H771 C784 0.930 . S
H772 C785 0.930 . S
H773 C789 0.959 . S
H774 C789 0.959 . S
H775 C789 0.961 . S
H776 C790 0.960 . S
H777 C790 0.961 . S
H778 C790 0.959 . S
H779 C793 0.929 . S
H780 C794 0.931 . S
H781 C796 0.930 . S
C782 H770 0.930 . S
C782 C783 1.399 . S
C782 C787 1.399 . S
C783 C782 1.399 . S
C783 C784 1.376 . S
C784 H771 0.930 . S
C784 C783 1.376 . S
C784 C785 1.388 . S
C785 H772 0.930 . S
C785 C784 1.388 . S
C785 C786 1.390 . S
C786 C785 1.390 . S
C786 C787 1.394 . S
C786 C792 1.465 . S
C787 C782 1.399 . S
C787 C786 1.394 . S
C787 C788 1.516 . S
C788 C787 1.516 . S
C788 C789 1.502 . S
C788 C790 1.561 . S
C788 C791 1.526 . S
C789 H773 0.959 . S
C789 H774 0.959 . S
C789 H775 0.961 . S
C789 C788 1.502 . S
C790 H776 0.960 . S
C790 H777 0.961 . S
C790 H778 0.959 . S
C790 C788 1.561 . S
C791 C788 1.526 . S
C791 C792 1.396 . S
C791 C796 1.390 . S
C792 C786 1.465 . S
C792 C791 1.396 . S
C792 C793 1.399 . S
C793 H779 0.929 . S
C793 C792 1.399 . S
C793 C794 1.385 . S
C794 H780 0.931 . S
C794 C793 1.385 . S
C794 C795 1.389 . S
C795 C794 1.389 . S
C795 C796 1.387 . S
C796 H781 0.930 . S
C796 C791 1.390 . S
C796 C795 1.387 . S
H797 C809 0.930 . S
H798 C811 0.930 . S
H799 C812 0.930 1_565 S
H800 C816 0.959 . S
H801 C816 0.959 . S
H802 C816 0.961 . S
H803 C817 0.960 . S
H804 C817 0.961 . S
H805 C817 0.959 . S
H806 C820 0.929 . S
H807 C821 0.931 . S
H808 C823 0.930 1_545 S
C809 H797 0.930 . S
C809 C810 1.399 . S
C809 C814 1.399 . S
C810 C809 1.399 . S
C810 C811 1.376 . S
C811 H798 0.930 . S
C811 C810 1.376 . S
C811 C812 1.388 . S
C812 H799 0.930 1_545 S
C812 C811 1.388 . S
C812 C813 1.390 . S
C813 C812 1.390 . S
C813 C814 1.394 . S
C813 C819 1.465 1_545 S
C814 C809 1.399 . S
C814 C813 1.394 . S
C814 C815 1.516 . S
C815 C814 1.516 . S
C815 C816 1.502 . S
C815 C817 1.561 . S
C815 C818 1.526 . S
C816 H800 0.959 . S
C816 H801 0.959 . S
C816 H802 0.961 . S
C816 C815 1.502 . S
C817 H803 0.960 . S
C817 H804 0.961 . S
C817 H805 0.959 . S
C817 C815 1.561 . S
C818 C815 1.526 . S
C818 C819 1.396 1_545 S
C818 C823 1.390 1_545 S
C819 C813 1.465 1_565 S
C819 C818 1.396 1_565 S
C819 C820 1.399 . S
C820 H806 0.929 . S
C820 C819 1.399 . S
C820 C821 1.385 . S
C821 H807 0.931 . S
C821 C820 1.385 . S
C821 C822 1.389 . S
C822 C821 1.389 . S
C822 C823 1.387 . S
C823 H808 0.930 1_565 S
C823 C818 1.390 1_565 S
C823 C822 1.387 . S
H824 C836 0.930 . S
H825 C838 0.930 . S
H826 C839 0.930 . S
H827 C843 0.959 . S
H828 C843 0.959 . S
H829 C843 0.961 . S
H830 C844 0.960 . S
H831 C844 0.961 . S
H832 C844 0.959 . S
H833 C847 0.929 . S
H834 C848 0.931 . S
H835 C850 0.930 . S
C836 H824 0.930 . S
C836 C837 1.399 . S
C836 C841 1.399 . S
C837 C836 1.399 . S
C837 C838 1.376 . S
C838 H825 0.930 . S
C838 C837 1.376 . S
C838 C839 1.388 . S
C839 H826 0.930 . S
C839 C838 1.388 . S
C839 C840 1.390 . S
C840 C839 1.390 . S
C840 C841 1.394 . S
C840 C846 1.465 . S
C841 C836 1.399 . S
C841 C840 1.394 . S
C841 C842 1.516 . S
C842 C841 1.516 . S
C842 C843 1.502 . S
C842 C844 1.561 . S
C842 C845 1.526 . S
C843 H827 0.959 . S
C843 H828 0.959 . S
C843 H829 0.961 . S
C843 C842 1.502 . S
C844 H830 0.960 . S
C844 H831 0.961 . S
C844 H832 0.959 . S
C844 C842 1.561 . S
C845 C842 1.526 . S
C845 C846 1.396 . S
C845 C850 1.390 . S
C846 C840 1.465 . S
C846 C845 1.396 . S
C846 C847 1.399 . S
C847 H833 0.929 . S
C847 C846 1.399 . S
C847 C848 1.385 . S
C848 H834 0.931 . S
C848 C847 1.385 . S
C848 C849 1.389 . S
C849 C848 1.389 . S
C849 C850 1.387 . S
C850 H835 0.930 . S
C850 C845 1.390 . S
C850 C849 1.387 . S
H851 C863 0.930 . S
H852 C865 0.930 . S
H853 C866 0.930 . S
H854 C870 0.959 . S
H855 C870 0.959 . S
H856 C870 0.961 . S
H857 C871 0.960 . S
H858 C871 0.961 . S
H859 C871 0.959 . S
H860 C874 0.929 1_565 S
H861 C875 0.931 . S
H862 C877 0.930 . S
C863 H851 0.930 . S
C863 C864 1.399 . S
C863 C868 1.399 . S
C864 C863 1.399 . S
C864 C865 1.376 . S
C865 H852 0.930 . S
C865 C864 1.376 . S
C865 C866 1.388 . S
C866 H853 0.930 . S
C866 C865 1.388 . S
C866 C867 1.390 . S
C867 C866 1.390 . S
C867 C868 1.394 . S
C867 C873 1.465 1_565 S
C868 C863 1.399 . S
C868 C867 1.394 . S
C868 C869 1.516 1_565 S
C869 C868 1.516 1_545 S
C869 C870 1.502 . S
C869 C871 1.561 . S
C869 C872 1.526 . S
C870 H854 0.959 . S
C870 H855 0.959 . S
C870 H856 0.961 . S
C870 C869 1.502 . S
C871 H857 0.960 . S
C871 H858 0.961 . S
C871 H859 0.959 . S
C871 C869 1.561 . S
C872 C869 1.526 . S
C872 C873 1.396 . S
C872 C877 1.390 . S
C873 C867 1.465 1_545 S
C873 C872 1.396 . S
C873 C874 1.399 . S
C874 H860 0.929 1_545 S
C874 C873 1.399 . S
C874 C875 1.385 . S
C875 H861 0.931 . S
C875 C874 1.385 . S
C875 C876 1.389 . S
C876 C875 1.389 . S
C876 C877 1.387 . S
C877 H862 0.930 . S
C877 C872 1.390 . S
C877 C876 1.387 . S
H878 C890 0.930 . S
H879 C892 0.930 . S
H880 C893 0.930 . S
H881 C897 0.959 . S
H882 C897 0.959 . S
H883 C897 0.961 . S
H884 C898 0.960 . S
H885 C898 0.961 . S
H886 C898 0.959 . S
H887 C901 0.929 . S
H888 C902 0.931 1_545 S
H889 C904 0.930 . S
C890 H878 0.930 . S
C890 C891 1.399 . S
C890 C895 1.399 . S
C891 C890 1.399 . S
C891 C892 1.376 1_565 S
C892 H879 0.930 . S
C892 C891 1.376 1_545 S
C892 C893 1.388 . S
C893 H880 0.930 . S
C893 C892 1.388 . S
C893 C894 1.390 1_545 S
C894 C893 1.390 1_565 S
C894 C895 1.394 . S
C894 C900 1.465 . S
C895 C890 1.399 . S
C895 C894 1.394 . S
C895 C896 1.516 . S
C896 C895 1.516 . S
C896 C897 1.502 . S
C896 C898 1.561 . S
C896 C899 1.526 . S
C897 H881 0.959 . S
C897 H882 0.959 . S
C897 H883 0.961 . S
C897 C896 1.502 . S
C898 H884 0.960 . S
C898 H885 0.961 . S
C898 H886 0.959 . S
C898 C896 1.561 . S
C899 C896 1.526 . S
C899 C900 1.396 . S
C899 C904 1.390 . S
C900 C894 1.465 . S
C900 C899 1.396 . S
C900 C901 1.399 1_565 S
C901 H887 0.929 . S
C901 C900 1.399 1_545 S
C901 C902 1.385 1_545 S
C902 H888 0.931 1_565 S
C902 C901 1.385 1_565 S
C902 C903 1.389 . S
C903 C902 1.389 . S
C903 C904 1.387 . S
C904 H889 0.930 . S
C904 C899 1.390 . S
C904 C903 1.387 . S
H905 C917 0.930 . S
H906 C919 0.930 . S
H907 C920 0.930 . S
H908 C924 0.959 . S
H909 C924 0.959 . S
H910 C924 0.961 . S
H911 C925 0.960 . S
H912 C925 0.961 . S
H913 C925 0.959 . S
H914 C928 0.929 . S
H915 C929 0.931 . S
H916 C931 0.930 1_545 S
C917 H905 0.930 . S
C917 C918 1.399 . S
C917 C922 1.399 . S
C918 C917 1.399 . S
C918 C919 1.376 . S
C919 H906 0.930 . S
C919 C918 1.376 . S
C919 C920 1.388 . S
C920 H907 0.930 . S
C920 C919 1.388 . S
C920 C921 1.390 . S
C921 C920 1.390 . S
C921 C922 1.394 . S
C921 C927 1.465 . S
C922 C917 1.399 . S
C922 C921 1.394 . S
C922 C923 1.516 . S
C923 C922 1.516 . S
C923 C924 1.502 . S
C923 C925 1.561 . S
C923 C926 1.526 . S
C924 H908 0.959 . S
C924 H909 0.959 . S
C924 H910 0.961 . S
C924 C923 1.502 . S
C925 H911 0.960 . S
C925 H912 0.961 . S
C925 H913 0.959 . S
C925 C923 1.561 . S
C926 C923 1.526 . S
C926 C927 1.396 . S
C926 C931 1.390 1_545 S
C927 C921 1.465 . S
C927 C926 1.396 . S
C927 C928 1.399 1_545 S
C928 H914 0.929 . S
C928 C927 1.399 1_565 S
C928 C929 1.385 . S
C929 H915 0.931 . S
C929 C928 1.385 . S
C929 C930 1.389 . S
C930 C929 1.389 . S
C930 C931 1.387 . S
C931 H916 0.930 1_565 S
C931 C926 1.390 1_565 S
C931 C930 1.387 . S
H932 C944 0.930 . S
H933 C946 0.930 . S
H934 C947 0.930 . S
H935 C951 0.959 . S
H936 C951 0.959 . S
H937 C951 0.961 . S
H938 C952 0.960 . S
H939 C952 0.961 . S
H940 C952 0.959 . S
H941 C955 0.929 . S
H942 C956 0.931 . S
H943 C958 0.930 . S
C944 H932 0.930 . S
C944 C945 1.399 . S
C944 C949 1.399 . S
C945 C944 1.399 . S
C945 C946 1.376 . S
C946 H933 0.930 . S
C946 C945 1.376 . S
C946 C947 1.388 . S
C947 H934 0.930 . S
C947 C946 1.388 . S
C947 C948 1.390 . S
C948 C947 1.390 . S
C948 C949 1.394 . S
C948 C954 1.465 . S
C949 C944 1.399 . S
C949 C948 1.394 . S
C949 C950 1.516 . S
C950 C949 1.516 . S
C950 C951 1.502 . S
C950 C952 1.561 . S
C950 C953 1.526 . S
C951 H935 0.959 . S
C951 H936 0.959 . S
C951 H937 0.961 . S
C951 C950 1.502 . S
C952 H938 0.960 . S
C952 H939 0.961 . S
C952 H940 0.959 . S
C952 C950 1.561 . S
C953 C950 1.526 . S
C953 C954 1.396 . S
C953 C958 1.390 . S
C954 C948 1.465 . S
C954 C953 1.396 . S
C954 C955 1.399 . S
C955 H941 0.929 . S
C955 C954 1.399 . S
C955 C956 1.385 . S
C956 H942 0.931 . S
C956 C955 1.385 . S
C956 C957 1.389 . S
C957 C956 1.389 . S
C957 C958 1.387 . S
C958 H943 0.930 . S
C958 C953 1.390 . S
C958 C957 1.387 . S
H959 C971 0.930 . S
H960 C973 0.930 . S
H961 C974 0.930 . S
H962 C978 0.959 . S
H963 C978 0.959 . S
H964 C978 0.961 . S
H965 C979 0.960 . S
H966 C979 0.961 . S
H967 C979 0.959 . S
H968 C982 0.929 . S
H969 C983 0.931 . S
H970 C985 0.930 . S
C971 H959 0.930 . S
C971 C972 1.399 1_565 S
C971 C976 1.399 . S
C972 C971 1.399 1_545 S
C972 C973 1.376 . S
C973 H960 0.930 . S
C973 C972 1.376 . S
C973 C974 1.388 . S
C974 H961 0.930 . S
C974 C973 1.388 . S
C974 C975 1.390 1_545 S
C975 C974 1.390 1_565 S
C975 C976 1.394 . S
C975 C981 1.465 . S
C976 C971 1.399 . S
C976 C975 1.394 . S
C976 C977 1.516 . S
C977 C976 1.516 . S
C977 C978 1.502 . S
C977 C979 1.561 . S
C977 C980 1.526 . S
C978 H962 0.959 . S
C978 H963 0.959 . S
C978 H964 0.961 . S
C978 C977 1.502 . S
C979 H965 0.960 . S
C979 H966 0.961 . S
C979 H967 0.959 . S
C979 C977 1.561 . S
C980 C977 1.526 . S
C980 C981 1.396 . S
C980 C985 1.390 . S
C981 C975 1.465 . S
C981 C980 1.396 . S
C981 C982 1.399 . S
C982 H968 0.929 . S
C982 C981 1.399 . S
C982 C983 1.385 . S
C983 H969 0.931 . S
C983 C982 1.385 . S
C983 C984 1.389 . S
C984 C983 1.389 . S
C984 C985 1.387 . S
C985 H970 0.930 . S
C985 C980 1.390 . S
C985 C984 1.387 . S
H986 C998 0.930 . S
H987 C1000 0.930 . S
H988 C1001 0.930 . S
H989 C1005 0.959 . S
H990 C1005 0.959 . S
H991 C1005 0.961 . S
H992 C1006 0.960 . S
H993 C1006 0.961 . S
H994 C1006 0.959 . S
H995 C1009 0.929 . S
H996 C1010 0.931 . S
H997 C1012 0.930 . S
C998 H986 0.930 . S
C998 C999 1.399 . S
C998 C1003 1.399 . S
C999 C998 1.399 . S
C999 C1000 1.376 1_565 S
C1000 H987 0.930 . S
C1000 C999 1.376 1_545 S
C1000 C1001 1.388 1_545 S
C1001 H988 0.930 . S
C1001 C1000 1.388 1_565 S
C1001 C1002 1.390 . S
C1002 C1001 1.390 . S
C1002 C1003 1.394 . S
C1002 C1008 1.465 . S
C1003 C998 1.399 . S
C1003 C1002 1.394 . S
C1003 C1004 1.516 . S
C1004 C1003 1.516 . S
C1004 C1005 1.502 . S
C1004 C1006 1.561 . S
C1004 C1007 1.526 . S
C1005 H989 0.959 . S
C1005 H990 0.959 . S
C1005 H991 0.961 . S
C1005 C1004 1.502 . S
C1006 H992 0.960 . S
C1006 H993 0.961 . S
C1006 H994 0.959 . S
C1006 C1004 1.561 . S
C1007 C1004 1.526 . S
C1007 C1008 1.396 . S
C1007 C1012 1.390 . S
C1008 C1002 1.465 . S
C1008 C1007 1.396 . S
C1008 C1009 1.399 1_655 S
C1009 H995 0.929 . S
C1009 C1008 1.399 1_455 S
C1009 C1010 1.385 . S
C1010 H996 0.931 . S
C1010 C1009 1.385 . S
C1010 C1011 1.389 . S
C1011 C1010 1.389 . S
C1011 C1012 1.387 1_455 S
C1012 H997 0.930 . S
C1012 C1007 1.390 . S
C1012 C1011 1.387 1_655 S
H1013 C1025 0.930 . S
H1014 C1027 0.930 . S
H1015 C1028 0.930 . S
H1016 C1032 0.959 1_455 S
H1017 C1032 0.959 . S
H1018 C1032 0.961 . S
H1019 C1033 0.960 . S
H1020 C1033 0.961 . S
H1021 C1033 0.959 . S
H1022 C1036 0.929 . S
H1023 C1037 0.931 . S
H1024 C1039 0.930 . S
C1025 H1013 0.930 . S
C1025 C1026 1.399 . S
C1025 C1030 1.399 . S
C1026 C1025 1.399 . S
C1026 C1027 1.376 1_545 S
C1027 H1014 0.930 . S
C1027 C1026 1.376 1_565 S
C1027 C1028 1.388 1_565 S
C1028 H1015 0.930 . S
C1028 C1027 1.388 1_545 S
C1028 C1029 1.390 . S
C1029 C1028 1.390 . S
C1029 C1030 1.394 . S
C1029 C1035 1.465 . S
C1030 C1025 1.399 . S
C1030 C1029 1.394 . S
C1030 C1031 1.516 . S
C1031 C1030 1.516 . S
C1031 C1032 1.502 . S
C1031 C1033 1.561 . S
C1031 C1034 1.526 . S
C1032 H1016 0.959 1_655 S
C1032 H1017 0.959 . S
C1032 H1018 0.961 . S
C1032 C1031 1.502 . S
C1033 H1019 0.960 . S
C1033 H1020 0.961 . S
C1033 H1021 0.959 . S
C1033 C1031 1.561 . S
C1034 C1031 1.526 . S
C1034 C1035 1.396 . S
C1034 C1039 1.390 . S
C1035 C1029 1.465 . S
C1035 C1034 1.396 . S
C1035 C1036 1.399 . S
C1036 H1022 0.929 . S
C1036 C1035 1.399 . S
C1036 C1037 1.385 . S
C1037 H1023 0.931 . S
C1037 C1036 1.385 . S
C1037 C1038 1.389 . S
C1038 C1037 1.389 . S
C1038 C1039 1.387 . S
C1039 H1024 0.930 . S
C1039 C1034 1.390 . S
C1039 C1038 1.387 . S
H1040 C1052 0.930 . S
H1041 C1054 0.930 . S
H1042 C1055 0.930 . S
H1043 C1059 0.959 . S
H1044 C1059 0.959 . S
H1045 C1059 0.961 . S
H1046 C1060 0.960 . S
H1047 C1060 0.961 . S
H1048 C1060 0.959 . S
H1049 C1063 0.929 . S
H1050 C1064 0.931 . S
H1051 C1066 0.930 . S
C1052 H1040 0.930 . S
C1052 C1053 1.399 . S
C1052 C1057 1.399 . S
C1053 C1052 1.399 . S
C1053 C1054 1.376 . S
C1054 H1041 0.930 . S
C1054 C1053 1.376 . S
C1054 C1055 1.388 . S
C1055 H1042 0.930 . S
C1055 C1054 1.388 . S
C1055 C1056 1.390 . S
C1056 C1055 1.390 . S
C1056 C1057 1.394 . S
C1056 C1062 1.465 . S
C1057 C1052 1.399 . S
C1057 C1056 1.394 . S
C1057 C1058 1.516 . S
C1058 C1057 1.516 . S
C1058 C1059 1.502 . S
C1058 C1060 1.561 . S
C1058 C1061 1.526 . S
C1059 H1043 0.959 . S
C1059 H1044 0.959 . S
C1059 H1045 0.961 . S
C1059 C1058 1.502 . S
C1060 H1046 0.960 . S
C1060 H1047 0.961 . S
C1060 H1048 0.959 . S
C1060 C1058 1.561 . S
C1061 C1058 1.526 . S
C1061 C1062 1.396 . S
C1061 C1066 1.390 . S
C1062 C1056 1.465 . S
C1062 C1061 1.396 . S
C1062 C1063 1.399 . S
C1063 H1049 0.929 . S
C1063 C1062 1.399 . S
C1063 C1064 1.385 . S
C1064 H1050 0.931 . S
C1064 C1063 1.385 . S
C1064 C1065 1.389 . S
C1065 C1064 1.389 . S
C1065 C1066 1.387 . S
C1066 H1051 0.930 . S
C1066 C1061 1.390 . S
C1066 C1065 1.387 . S
H1067 C1079 0.930 . S
H1068 C1081 0.930 . S
H1069 C1082 0.930 1_545 S
H1070 C1086 0.959 1_455 S
H1071 C1086 0.959 1_455 S
H1072 C1086 0.961 . S
H1073 C1087 0.960 . S
H1074 C1087 0.961 . S
H1075 C1087 0.959 . S
H1076 C1090 0.929 . S
H1077 C1091 0.931 . S
H1078 C1093 0.934 . S
C1079 H1067 0.930 . S
C1079 C1080 1.399 . S
C1079 C1084 1.399 . S
C1080 C1079 1.399 . S
C1080 C1081 1.376 1_565 S
C1081 H1068 0.930 . S
C1081 C1080 1.376 1_545 S
C1081 C1082 1.389 1_545 S
C1082 H1069 0.930 1_565 S
C1082 C1081 1.389 1_565 S
C1082 C1083 1.389 . S
C1083 C1082 1.389 . S
C1083 C1084 1.394 . S
C1083 C1089 1.465 . S
C1084 C1079 1.399 . S
C1084 C1083 1.394 . S
C1084 C1085 1.516 . S
C1085 C1084 1.516 . S
C1085 C1086 1.502 . S
C1085 C1087 1.561 . S
C1085 C1088 1.526 . S
C1086 H1070 0.959 1_655 S
C1086 H1071 0.959 1_655 S
C1086 H1072 0.961 . S
C1086 C1085 1.502 . S
C1087 H1073 0.960 . S
C1087 H1074 0.961 . S
C1087 H1075 0.959 . S
C1087 C1085 1.561 . S
C1088 C1085 1.526 . S
C1088 C1089 1.396 . S
C1088 C1093 1.390 . S
C1089 C1083 1.465 . S
C1089 C1088 1.396 . S
C1089 C1090 1.399 . S
C1090 H1076 0.929 . S
C1090 C1089 1.399 . S
C1090 C1091 1.385 . S
C1091 H1077 0.931 . S
C1091 C1090 1.385 . S
C1091 C1092 1.389 . S
C1092 C1091 1.389 . S
C1092 C1093 1.387 . S
C1093 H1078 0.934 . S
C1093 C1088 1.390 . S
C1093 C1092 1.387 . S
H1094 C1106 0.930 . S
H1095 C1108 0.930 . S
H1096 C1109 0.930 . S
H1097 C1113 0.959 . S
H1098 C1113 0.959 . S
H1099 C1113 0.961 . S
H1100 C1114 0.960 . S
H1101 C1114 0.961 . S
H1102 C1114 0.959 . S
H1103 C1117 0.929 . S
H1104 C1118 0.931 1_455 S
H1105 C1120 0.930 . S
C1106 H1094 0.930 . S
C1106 C1107 1.399 . S
C1106 C1111 1.399 . S
C1107 C1106 1.399 . S
C1107 C1108 1.376 . S
C1108 H1095 0.930 . S
C1108 C1107 1.376 . S
C1108 C1109 1.388 . S
C1109 H1096 0.930 . S
C1109 C1108 1.388 . S
C1109 C1110 1.390 . S
C1110 C1109 1.390 . S
C1110 C1111 1.394 . S
C1110 C1116 1.465 . S
C1111 C1106 1.399 . S
C1111 C1110 1.394 . S
C1111 C1112 1.516 . S
C1112 C1111 1.516 . S
C1112 C1113 1.502 . S
C1112 C1114 1.561 . S
C1112 C1115 1.526 . S
C1113 H1097 0.959 . S
C1113 H1098 0.959 . S
C1113 H1099 0.961 . S
C1113 C1112 1.502 . S
C1114 H1100 0.960 . S
C1114 H1101 0.961 . S
C1114 H1102 0.959 . S
C1114 C1112 1.561 . S
C1115 C1112 1.526 . S
C1115 C1116 1.396 . S
C1115 C1120 1.390 . S
C1116 C1110 1.465 . S
C1116 C1115 1.396 . S
C1116 C1117 1.399 . S
C1117 H1103 0.929 . S
C1117 C1116 1.399 . S
C1117 C1118 1.385 . S
C1118 H1104 0.931 1_655 S
C1118 C1117 1.385 . S
C1118 C1119 1.389 . S
C1119 C1118 1.389 . S
C1119 C1120 1.387 . S
C1120 H1105 0.930 . S
C1120 C1115 1.390 . S
C1120 C1119 1.387 . S
H1121 C1133 0.930 . S
H1122 C1135 0.930 . S
H1123 C1136 0.930 . S
H1124 C1140 0.959 . S
H1125 C1140 0.959 . S
H1126 C1140 0.961 . S
H1127 C1141 0.960 . S
H1128 C1141 0.961 . S
H1129 C1141 0.959 . S
H1130 C1144 0.929 . S
H1131 C1145 0.931 . S
H1132 C1147 0.930 . S
C1133 H1121 0.930 . S
C1133 C1134 1.399 . S
C1133 C1138 1.399 . S
C1134 C1133 1.399 . S
C1134 C1135 1.376 . S
C1135 H1122 0.930 . S
C1135 C1134 1.376 . S
C1135 C1136 1.388 . S
C1136 H1123 0.930 . S
C1136 C1135 1.388 . S
C1136 C1137 1.390 . S
C1137 C1136 1.390 . S
C1137 C1138 1.394 . S
C1137 C1143 1.465 . S
C1138 C1133 1.399 . S
C1138 C1137 1.394 . S
C1138 C1139 1.516 . S
C1139 C1138 1.516 . S
C1139 C1140 1.502 . S
C1139 C1141 1.561 . S
C1139 C1142 1.526 . S
C1140 H1124 0.959 . S
C1140 H1125 0.959 . S
C1140 H1126 0.961 . S
C1140 C1139 1.502 . S
C1141 H1127 0.960 . S
C1141 H1128 0.961 . S
C1141 H1129 0.959 . S
C1141 C1139 1.561 . S
C1142 C1139 1.526 . S
C1142 C1143 1.396 . S
C1142 C1147 1.390 . S
C1143 C1137 1.465 . S
C1143 C1142 1.396 . S
C1143 C1144 1.399 . S
C1144 H1130 0.929 . S
C1144 C1143 1.399 . S
C1144 C1145 1.385 . S
C1145 H1131 0.931 . S
C1145 C1144 1.385 . S
C1145 C1146 1.389 . S
C1146 C1145 1.389 . S
C1146 C1147 1.387 . S
C1147 H1132 0.930 . S
C1147 C1142 1.390 . S
C1147 C1146 1.387 . S
H1148 C1160 0.930 . S
H1149 C1162 0.930 1_554 S
H1150 C1163 0.930 . S
H1151 C1167 0.959 . S
H1152 C1167 0.959 . S
H1153 C1167 0.961 . S
H1154 C1168 0.960 . S
H1155 C1168 0.961 . S
H1156 C1168 0.959 . S
H1157 C1171 0.929 . S
H1158 C1172 0.931 . S
H1159 C1174 0.930 . S
C1160 H1148 0.930 . S
C1160 C1161 1.399 . S
C1160 C1165 1.399 . S
C1161 C1160 1.399 . S
C1161 C1162 1.376 . S
C1162 H1149 0.930 1_556 S
C1162 C1161 1.376 . S
C1162 C1163 1.388 . S
C1163 H1150 0.930 . S
C1163 C1162 1.388 . S
C1163 C1164 1.390 . S
C1164 C1163 1.390 . S
C1164 C1165 1.394 . S
C1164 C1170 1.465 . S
C1165 C1160 1.399 . S
C1165 C1164 1.394 . S
C1165 C1166 1.516 . S
C1166 C1165 1.516 . S
C1166 C1167 1.502 . S
C1166 C1168 1.561 . S
C1166 C1169 1.526 . S
C1167 H1151 0.959 . S
C1167 H1152 0.959 . S
C1167 H1153 0.961 . S
C1167 C1166 1.502 . S
C1168 H1154 0.960 . S
C1168 H1155 0.961 . S
C1168 H1156 0.959 . S
C1168 C1166 1.561 . S
C1169 C1166 1.526 . S
C1169 C1170 1.396 . S
C1169 C1174 1.390 . S
C1170 C1164 1.465 . S
C1170 C1169 1.396 . S
C1170 C1171 1.399 . S
C1171 H1157 0.929 . S
C1171 C1170 1.399 . S
C1171 C1172 1.385 . S
C1172 H1158 0.931 . S
C1172 C1171 1.385 . S
C1172 C1173 1.389 . S
C1173 C1172 1.389 . S
C1173 C1174 1.387 . S
C1174 H1159 0.930 . S
C1174 C1169 1.390 . S
C1174 C1173 1.387 . S
H1175 C1187 0.930 . S
H1176 C1189 0.930 . S
H1177 C1190 0.930 . S
H1178 C1194 0.959 . S
H1179 C1194 0.959 . S
H1180 C1194 0.961 . S
H1181 C1195 0.960 . S
H1182 C1195 0.961 . S
H1183 C1195 0.959 . S
H1184 C1198 0.929 . S
H1185 C1199 0.931 . S
H1186 C1201 0.930 . S
C1187 H1175 0.930 . S
C1187 C1188 1.399 . S
C1187 C1192 1.399 . S
C1188 C1187 1.399 . S
C1188 C1189 1.376 . S
C1189 H1176 0.930 . S
C1189 C1188 1.376 . S
C1189 C1190 1.388 . S
C1190 H1177 0.930 . S
C1190 C1189 1.388 . S
C1190 C1191 1.390 . S
C1191 C1190 1.390 . S
C1191 C1192 1.394 . S
C1191 C1197 1.465 . S
C1192 C1187 1.399 . S
C1192 C1191 1.394 . S
C1192 C1193 1.516 . S
C1193 C1192 1.516 . S
C1193 C1194 1.502 1_655 S
C1193 C1195 1.561 . S
C1193 C1196 1.526 . S
C1194 H1178 0.959 . S
C1194 H1179 0.959 . S
C1194 H1180 0.961 . S
C1194 C1193 1.502 1_455 S
C1195 H1181 0.960 . S
C1195 H1182 0.961 . S
C1195 H1183 0.959 . S
C1195 C1193 1.561 . S
C1196 C1193 1.526 . S
C1196 C1197 1.396 . S
C1196 C1201 1.390 . S
C1197 C1191 1.465 . S
C1197 C1196 1.396 . S
C1197 C1198 1.399 . S
C1198 H1184 0.929 . S
C1198 C1197 1.399 . S
C1198 C1199 1.385 . S
C1199 H1185 0.931 . S
C1199 C1198 1.385 . S
C1199 C1200 1.389 . S
C1200 C1199 1.389 . S
C1200 C1201 1.387 . S
C1201 H1186 0.930 . S
C1201 C1196 1.390 . S
C1201 C1200 1.387 . S
H1202 C1214 0.930 . S
H1203 C1216 0.930 . S
H1204 C1217 0.930 . S
H1205 C1221 0.959 . S
H1206 C1221 0.959 . S
H1207 C1221 0.961 . S
H1208 C1222 0.960 . S
H1209 C1222 0.961 . S
H1210 C1222 0.959 . S
H1211 C1225 0.929 . S
H1212 C1226 0.931 . S
H1213 C1228 0.930 . S
C1214 H1202 0.930 . S
C1214 C1215 1.399 . S
C1214 C1219 1.399 . S
C1215 C1214 1.399 . S
C1215 C1216 1.376 . S
C1216 H1203 0.930 . S
C1216 C1215 1.376 . S
C1216 C1217 1.388 . S
C1217 H1204 0.930 . S
C1217 C1216 1.388 . S
C1217 C1218 1.390 . S
C1218 C1217 1.390 . S
C1218 C1219 1.394 . S
C1218 C1224 1.465 . S
C1219 C1214 1.399 . S
C1219 C1218 1.394 . S
C1219 C1220 1.516 . S
C1220 C1219 1.516 . S
C1220 C1221 1.502 . S
C1220 C1222 1.561 . S
C1220 C1223 1.526 . S
C1221 H1205 0.959 . S
C1221 H1206 0.959 . S
C1221 H1207 0.961 . S
C1221 C1220 1.502 . S
C1222 H1208 0.960 . S
C1222 H1209 0.961 . S
C1222 H1210 0.959 . S
C1222 C1220 1.561 . S
C1223 C1220 1.526 . S
C1223 C1224 1.396 . S
C1223 C1228 1.390 . S
C1224 C1218 1.465 . S
C1224 C1223 1.396 . S
C1224 C1225 1.399 . S
C1225 H1211 0.929 . S
C1225 C1224 1.399 . S
C1225 C1226 1.385 . S
C1226 H1212 0.931 . S
C1226 C1225 1.385 . S
C1226 C1227 1.389 . S
C1227 C1226 1.389 . S
C1227 C1228 1.387 . S
C1228 H1213 0.930 . S
C1228 C1223 1.390 . S
C1228 C1227 1.387 . S
H1229 C1241 0.930 . S
H1230 C1243 0.930 . S
H1231 C1244 0.930 . S
H1232 C1248 0.959 . S
H1233 C1248 0.959 . S
H1234 C1248 0.961 . S
H1235 C1249 0.960 . S
H1236 C1249 0.961 . S
H1237 C1249 0.959 . S
H1238 C1252 0.929 . S
H1239 C1253 0.931 . S
H1240 C1255 0.930 . S
C1241 H1229 0.930 . S
C1241 C1242 1.399 . S
C1241 C1246 1.399 . S
C1242 C1241 1.399 . S
C1242 C1243 1.376 . S
C1243 H1230 0.930 . S
C1243 C1242 1.376 . S
C1243 C1244 1.388 . S
C1244 H1231 0.930 . S
C1244 C1243 1.388 . S
C1244 C1245 1.390 . S
C1245 C1244 1.390 . S
C1245 C1246 1.394 . S
C1245 C1251 1.465 . S
C1246 C1241 1.399 . S
C1246 C1245 1.394 . S
C1246 C1247 1.516 . S
C1247 C1246 1.516 . S
C1247 C1248 1.502 . S
C1247 C1249 1.561 . S
C1247 C1250 1.526 . S
C1248 H1232 0.959 . S
C1248 H1233 0.959 . S
C1248 H1234 0.961 . S
C1248 C1247 1.502 . S
C1249 H1235 0.960 . S
C1249 H1236 0.961 . S
C1249 H1237 0.959 . S
C1249 C1247 1.561 . S
C1250 C1247 1.526 . S
C1250 C1251 1.396 . S
C1250 C1255 1.390 . S
C1251 C1245 1.465 . S
C1251 C1250 1.396 . S
C1251 C1252 1.399 . S
C1252 H1238 0.929 . S
C1252 C1251 1.399 . S
C1252 C1253 1.385 . S
C1253 H1239 0.931 . S
C1253 C1252 1.385 . S
C1253 C1254 1.389 . S
C1254 C1253 1.389 . S
C1254 C1255 1.387 . S
C1255 H1240 0.930 . S
C1255 C1250 1.390 . S
C1255 C1254 1.387 . S
H1256 C1268 0.930 . S
H1257 C1270 0.930 . S
H1258 C1271 0.930 . S
H1259 C1275 0.959 . S
H1260 C1275 0.959 . S
H1261 C1275 0.961 . S
H1262 C1276 0.960 . S
H1263 C1276 0.961 . S
H1264 C1276 0.959 . S
H1265 C1279 0.929 . S
H1266 C1280 0.931 . S
H1267 C1282 0.930 . S
C1268 H1256 0.930 . S
C1268 C1269 1.399 . S
C1268 C1273 1.399 . S
C1269 C1268 1.399 . S
C1269 C1270 1.376 . S
C1270 H1257 0.930 . S
C1270 C1269 1.376 . S
C1270 C1271 1.388 . S
C1271 H1258 0.930 . S
C1271 C1270 1.388 . S
C1271 C1272 1.390 . S
C1272 C1271 1.390 . S
C1272 C1273 1.394 . S
C1272 C1278 1.465 . S
C1273 C1268 1.399 . S
C1273 C1272 1.394 . S
C1273 C1274 1.516 . S
C1274 C1273 1.516 . S
C1274 C1275 1.502 . S
C1274 C1276 1.561 . S
C1274 C1277 1.526 . S
C1275 H1259 0.959 . S
C1275 H1260 0.959 . S
C1275 H1261 0.961 . S
C1275 C1274 1.502 . S
C1276 H1262 0.960 . S
C1276 H1263 0.961 . S
C1276 H1264 0.959 . S
C1276 C1274 1.561 . S
C1277 C1274 1.526 . S
C1277 C1278 1.396 . S
C1277 C1282 1.390 . S
C1278 C1272 1.465 . S
C1278 C1277 1.396 . S
C1278 C1279 1.399 . S
C1279 H1265 0.929 . S
C1279 C1278 1.399 . S
C1279 C1280 1.385 . S
C1280 H1266 0.931 . S
C1280 C1279 1.385 . S
C1280 C1281 1.389 . S
C1281 C1280 1.389 . S
C1281 C1282 1.387 . S
C1282 H1267 0.930 . S
C1282 C1277 1.390 . S
C1282 C1281 1.387 . S
H1283 C1295 0.930 . S
H1284 C1297 0.930 . S
H1285 C1298 0.930 . S
H1286 C1302 0.959 . S
H1287 C1302 0.959 . S
H1288 C1302 0.961 . S
H1289 C1303 0.960 . S
H1290 C1303 0.961 . S
H1291 C1303 0.959 . S
H1292 C1306 0.929 . S
H1293 C1307 0.931 . S
H1294 C1309 0.930 . S
C1295 H1283 0.930 . S
C1295 C1296 1.399 . S
C1295 C1300 1.399 . S
C1296 C1295 1.399 . S
C1296 C1297 1.376 . S
C1297 H1284 0.930 . S
C1297 C1296 1.376 . S
C1297 C1298 1.388 . S
C1298 H1285 0.930 . S
C1298 C1297 1.388 . S
C1298 C1299 1.390 . S
C1299 C1298 1.390 . S
C1299 C1300 1.394 . S
C1299 C1305 1.465 . S
C1300 C1295 1.399 . S
C1300 C1299 1.394 . S
C1300 C1301 1.516 . S
C1301 C1300 1.516 . S
C1301 C1302 1.502 . S
C1301 C1303 1.561 . S
C1301 C1304 1.526 . S
C1302 H1286 0.959 . S
C1302 H1287 0.959 . S
C1302 H1288 0.961 . S
C1302 C1301 1.502 . S
C1303 H1289 0.960 . S
C1303 H1290 0.961 . S
C1303 H1291 0.959 . S
C1303 C1301 1.561 . S
C1304 C1301 1.526 . S
C1304 C1305 1.396 . S
C1304 C1309 1.390 . S
C1305 C1299 1.465 . S
C1305 C1304 1.396 . S
C1305 C1306 1.399 . S
C1306 H1292 0.929 . S
C1306 C1305 1.399 . S
C1306 C1307 1.385 . S
C1307 H1293 0.931 . S
C1307 C1306 1.385 . S
C1307 C1308 1.389 . S
C1308 C1307 1.389 . S
C1308 C1309 1.387 . S
C1309 H1294 0.930 . S
C1309 C1304 1.390 . S
C1309 C1308 1.387 . S
H1310 C1322 0.930 . S
H1311 C1324 0.930 . S
H1312 C1325 0.930 . S
H1313 C1329 0.959 . S
H1314 C1329 0.959 . S
H1315 C1329 0.961 . S
H1316 C1330 0.960 . S
H1317 C1330 0.961 . S
H1318 C1330 0.959 . S
H1319 C1333 0.929 . S
H1320 C1334 0.931 . S
H1321 C1336 0.930 . S
C1322 H1310 0.930 . S
C1322 C1323 1.399 . S
C1322 C1327 1.399 . S
C1323 C1322 1.399 . S
C1323 C1324 1.376 . S
C1324 H1311 0.930 . S
C1324 C1323 1.376 . S
C1324 C1325 1.388 . S
C1325 H1312 0.930 . S
C1325 C1324 1.388 . S
C1325 C1326 1.390 . S
C1326 C1325 1.390 . S
C1326 C1327 1.394 . S
C1326 C1332 1.465 . S
C1327 C1322 1.399 . S
C1327 C1326 1.394 . S
C1327 C1328 1.516 . S
C1328 C1327 1.516 . S
C1328 C1329 1.502 . S
C1328 C1330 1.561 . S
C1328 C1331 1.526 . S
C1329 H1313 0.959 . S
C1329 H1314 0.959 . S
C1329 H1315 0.961 . S
C1329 C1328 1.502 . S
C1330 H1316 0.960 . S
C1330 H1317 0.961 . S
C1330 H1318 0.959 . S
C1330 C1328 1.561 . S
C1331 C1328 1.526 . S
C1331 C1332 1.396 . S
C1331 C1336 1.390 . S
C1332 C1326 1.465 . S
C1332 C1331 1.396 . S
C1332 C1333 1.399 . S
C1333 H1319 0.929 . S
C1333 C1332 1.399 . S
C1333 C1334 1.385 . S
C1334 H1320 0.931 . S
C1334 C1333 1.385 . S
C1334 C1335 1.389 . S
C1335 C1334 1.389 . S
C1335 C1336 1.387 . S
C1336 H1321 0.930 . S
C1336 C1331 1.390 . S
C1336 C1335 1.387 . S
H1337 C1349 0.930 . S
H1338 C1351 0.930 . S
H1339 C1352 0.930 . S
H1340 C1356 0.959 1_455 S
H1341 C1356 0.959 . S
H1342 C1356 0.961 . S
H1343 C1357 0.960 . S
H1344 C1357 0.961 . S
H1345 C1357 0.959 . S
H1346 C1360 0.929 . S
H1347 C1361 0.931 . S
H1348 C1363 0.930 . S
C1349 H1337 0.930 . S
C1349 C1350 1.399 . S
C1349 C1354 1.399 . S
C1350 C1349 1.399 . S
C1350 C1351 1.376 . S
C1351 H1338 0.930 . S
C1351 C1350 1.376 . S
C1351 C1352 1.388 . S
C1352 H1339 0.930 . S
C1352 C1351 1.388 . S
C1352 C1353 1.390 . S
C1353 C1352 1.390 . S
C1353 C1354 1.394 . S
C1353 C1359 1.465 . S
C1354 C1349 1.399 . S
C1354 C1353 1.394 . S
C1354 C1355 1.516 . S
C1355 C1354 1.516 . S
C1355 C1356 1.502 . S
C1355 C1357 1.561 . S
C1355 C1358 1.526 . S
C1356 H1340 0.959 1_655 S
C1356 H1341 0.959 . S
C1356 H1342 0.961 . S
C1356 C1355 1.502 . S
C1357 H1343 0.960 . S
C1357 H1344 0.961 . S
C1357 H1345 0.959 . S
C1357 C1355 1.561 . S
C1358 C1355 1.526 . S
C1358 C1359 1.396 . S
C1358 C1363 1.390 . S
C1359 C1353 1.465 . S
C1359 C1358 1.396 . S
C1359 C1360 1.399 . S
C1360 H1346 0.929 . S
C1360 C1359 1.399 . S
C1360 C1361 1.385 . S
C1361 H1347 0.931 . S
C1361 C1360 1.385 . S
C1361 C1362 1.389 . S
C1362 C1361 1.389 . S
C1362 C1363 1.387 . S
C1363 H1348 0.930 . S
C1363 C1358 1.390 . S
C1363 C1362 1.387 . S
H1364 C1376 0.930 . S
H1365 C1378 0.930 . S
H1366 C1379 0.930 . S
H1367 C1383 0.959 . S
H1368 C1383 0.959 . S
H1369 C1383 0.961 . S
H1370 C1384 0.960 . S
H1371 C1384 0.961 . S
H1372 C1384 0.959 . S
H1373 C1387 0.929 . S
H1374 C1388 0.931 . S
H1375 C1390 0.930 . S
C1376 H1364 0.930 . S
C1376 C1377 1.399 . S
C1376 C1381 1.399 . S
C1377 C1376 1.399 . S
C1377 C1378 1.376 . S
C1378 H1365 0.930 . S
C1378 C1377 1.376 . S
C1378 C1379 1.388 . S
C1379 H1366 0.930 . S
C1379 C1378 1.388 . S
C1379 C1380 1.390 . S
C1380 C1379 1.390 . S
C1380 C1381 1.394 . S
C1380 C1386 1.465 . S
C1381 C1376 1.399 . S
C1381 C1380 1.394 . S
C1381 C1382 1.516 . S
C1382 C1381 1.516 . S
C1382 C1383 1.502 . S
C1382 C1384 1.561 . S
C1382 C1385 1.526 . S
C1383 H1367 0.959 . S
C1383 H1368 0.959 . S
C1383 H1369 0.961 . S
C1383 C1382 1.502 . S
C1384 H1370 0.960 . S
C1384 H1371 0.961 . S
C1384 H1372 0.959 . S
C1384 C1382 1.561 . S
C1385 C1382 1.526 . S
C1385 C1386 1.396 . S
C1385 C1390 1.390 . S
C1386 C1380 1.465 . S
C1386 C1385 1.396 . S
C1386 C1387 1.399 . S
C1387 H1373 0.929 . S
C1387 C1386 1.399 . S
C1387 C1388 1.385 . S
C1388 H1374 0.931 . S
C1388 C1387 1.385 . S
C1388 C1389 1.389 . S
C1389 C1388 1.389 . S
C1389 C1390 1.387 . S
C1390 H1375 0.930 . S
C1390 C1385 1.390 . S
C1390 C1389 1.387 . S
H1391 C1403 0.930 . S
H1392 C1405 0.930 . S
H1393 C1406 0.930 . S
H1394 C1410 0.959 . S
H1395 C1410 0.959 . S
H1396 C1410 0.961 . S
H1397 C1411 0.960 . S
H1398 C1411 0.961 . S
H1399 C1411 0.959 . S
H1400 C1414 0.929 . S
H1401 C1415 0.931 . S
H1402 C1417 0.930 . S
C1403 H1391 0.930 . S
C1403 C1404 1.399 . S
C1403 C1408 1.399 . S
C1404 C1403 1.399 . S
C1404 C1405 1.376 . S
C1405 H1392 0.930 . S
C1405 C1404 1.376 . S
C1405 C1406 1.388 . S
C1406 H1393 0.930 . S
C1406 C1405 1.388 . S
C1406 C1407 1.390 . S
C1407 C1406 1.390 . S
C1407 C1408 1.394 . S
C1407 C1413 1.465 . S
C1408 C1403 1.399 . S
C1408 C1407 1.394 . S
C1408 C1409 1.516 . S
C1409 C1408 1.516 . S
C1409 C1410 1.502 . S
C1409 C1411 1.561 . S
C1409 C1412 1.526 . S
C1410 H1394 0.959 . S
C1410 H1395 0.959 . S
C1410 H1396 0.961 . S
C1410 C1409 1.502 . S
C1411 H1397 0.960 . S
C1411 H1398 0.961 . S
C1411 H1399 0.959 . S
C1411 C1409 1.561 . S
C1412 C1409 1.526 . S
C1412 C1413 1.396 . S
C1412 C1417 1.390 . S
C1413 C1407 1.465 . S
C1413 C1412 1.396 . S
C1413 C1414 1.399 . S
C1414 H1400 0.929 . S
C1414 C1413 1.399 . S
C1414 C1415 1.385 . S
C1415 H1401 0.931 . S
C1415 C1414 1.385 . S
C1415 C1416 1.389 . S
C1416 C1415 1.389 . S
C1416 C1417 1.387 . S
C1417 H1402 0.930 . S
C1417 C1412 1.390 . S
C1417 C1416 1.387 . S
H1418 C1430 0.930 . S
H1419 C1432 0.930 . S
H1420 C1433 0.930 . S
H1421 C1437 0.959 . S
H1422 C1437 0.959 . S
H1423 C1437 0.961 . S
H1424 C1438 0.960 . S
H1425 C1438 0.961 . S
H1426 C1438 0.959 . S
H1427 C1441 0.929 . S
H1428 C1442 0.931 . S
H1429 C1444 0.930 . S
C1430 H1418 0.930 . S
C1430 C1431 1.399 . S
C1430 C1435 1.399 . S
C1431 C1430 1.399 . S
C1431 C1432 1.376 . S
C1432 H1419 0.930 . S
C1432 C1431 1.376 . S
C1432 C1433 1.388 . S
C1433 H1420 0.930 . S
C1433 C1432 1.388 . S
C1433 C1434 1.390 . S
C1434 C1433 1.390 . S
C1434 C1435 1.394 . S
C1434 C1440 1.465 . S
C1435 C1430 1.399 . S
C1435 C1434 1.394 . S
C1435 C1436 1.516 . S
C1436 C1435 1.516 . S
C1436 C1437 1.502 . S
C1436 C1438 1.561 . S
C1436 C1439 1.526 . S
C1437 H1421 0.959 . S
C1437 H1422 0.959 . S
C1437 H1423 0.961 . S
C1437 C1436 1.502 . S
C1438 H1424 0.960 . S
C1438 H1425 0.961 . S
C1438 H1426 0.959 . S
C1438 C1436 1.561 . S
C1439 C1436 1.526 . S
C1439 C1440 1.396 . S
C1439 C1444 1.390 . S
C1440 C1434 1.465 . S
C1440 C1439 1.396 . S
C1440 C1441 1.399 . S
C1441 H1427 0.929 . S
C1441 C1440 1.399 . S
C1441 C1442 1.385 . S
C1442 H1428 0.931 . S
C1442 C1441 1.385 . S
C1442 C1443 1.389 . S
C1443 C1442 1.389 . S
C1443 C1444 1.387 . S
C1444 H1429 0.930 . S
C1444 C1439 1.390 . S
C1444 C1443 1.387 . S
H1445 C1457 0.930 . S
H1446 C1459 0.930 . S
H1447 C1460 0.930 . S
H1448 C1464 0.959 . S
H1449 C1464 0.959 . S
H1450 C1464 0.961 . S
H1451 C1465 0.960 . S
H1452 C1465 0.961 . S
H1453 C1465 0.959 . S
H1454 C1468 0.929 . S
H1455 C1469 0.931 . S
H1456 C1471 0.930 . S
C1457 H1445 0.930 . S
C1457 C1458 1.399 . S
C1457 C1462 1.399 . S
C1458 C1457 1.399 . S
C1458 C1459 1.376 . S
C1459 H1446 0.930 . S
C1459 C1458 1.376 . S
C1459 C1460 1.388 . S
C1460 H1447 0.930 . S
C1460 C1459 1.388 . S
C1460 C1461 1.390 . S
C1461 C1460 1.390 . S
C1461 C1462 1.394 . S
C1461 C1467 1.465 . S
C1462 C1457 1.399 . S
C1462 C1461 1.394 . S
C1462 C1463 1.516 . S
C1463 C1462 1.516 . S
C1463 C1464 1.502 . S
C1463 C1465 1.561 . S
C1463 C1466 1.526 . S
C1464 H1448 0.959 . S
C1464 H1449 0.959 . S
C1464 H1450 0.961 . S
C1464 C1463 1.502 . S
C1465 H1451 0.960 . S
C1465 H1452 0.961 . S
C1465 H1453 0.959 . S
C1465 C1463 1.561 . S
C1466 C1463 1.526 . S
C1466 C1467 1.396 . S
C1466 C1471 1.390 . S
C1467 C1461 1.465 . S
C1467 C1466 1.396 . S
C1467 C1468 1.399 . S
C1468 H1454 0.929 . S
C1468 C1467 1.399 . S
C1468 C1469 1.385 . S
C1469 H1455 0.931 . S
C1469 C1468 1.385 . S
C1469 C1470 1.389 . S
C1470 C1469 1.389 . S
C1470 C1471 1.387 . S
C1471 H1456 0.930 . S
C1471 C1466 1.390 . S
C1471 C1470 1.387 . S
H1472 C1484 0.930 . S
H1473 C1486 0.930 . S
H1474 C1487 0.930 . S
H1475 C1491 0.959 . S
H1476 C1491 0.959 . S
H1477 C1491 0.961 . S
H1478 C1492 0.960 . S
H1479 C1492 0.961 . S
H1480 C1492 0.959 . S
H1481 C1495 0.929 . S
H1482 C1496 0.931 . S
H1483 C1498 0.930 . S
C1484 H1472 0.930 . S
C1484 C1485 1.399 . S
C1484 C1489 1.399 . S
C1485 C1484 1.399 . S
C1485 C1486 1.376 . S
C1486 H1473 0.930 . S
C1486 C1485 1.376 . S
C1486 C1487 1.388 . S
C1487 H1474 0.930 . S
C1487 C1486 1.388 . S
C1487 C1488 1.390 . S
C1488 C1487 1.390 . S
C1488 C1489 1.394 . S
C1488 C1494 1.465 . S
C1489 C1484 1.399 . S
C1489 C1488 1.394 . S
C1489 C1490 1.516 . S
C1490 C1489 1.516 . S
C1490 C1491 1.502 . S
C1490 C1492 1.561 . S
C1490 C1493 1.526 . S
C1491 H1475 0.959 . S
C1491 H1476 0.959 . S
C1491 H1477 0.961 . S
C1491 C1490 1.502 . S
C1492 H1478 0.960 . S
C1492 H1479 0.961 . S
C1492 H1480 0.959 . S
C1492 C1490 1.561 . S
C1493 C1490 1.526 . S
C1493 C1494 1.396 . S
C1493 C1498 1.390 . S
C1494 C1488 1.465 . S
C1494 C1493 1.396 . S
C1494 C1495 1.399 . S
C1495 H1481 0.929 . S
C1495 C1494 1.399 . S
C1495 C1496 1.385 . S
C1496 H1482 0.931 . S
C1496 C1495 1.385 . S
C1496 C1497 1.389 . S
C1497 C1496 1.389 . S
C1497 C1498 1.387 . S
C1498 H1483 0.930 . S
C1498 C1493 1.390 . S
C1498 C1497 1.387 . S
H1499 C1511 0.930 . S
H1500 C1513 0.930 . S
H1501 C1514 0.930 . S
H1502 C1518 0.959 . S
H1503 C1518 0.959 . S
H1504 C1518 0.961 . S
H1505 C1519 0.960 . S
H1506 C1519 0.961 . S
H1507 C1519 0.959 . S
H1508 C1522 0.929 . S
H1509 C1523 0.931 . S
H1510 C1525 0.930 . S
C1511 H1499 0.930 . S
C1511 C1512 1.399 . S
C1511 C1516 1.399 . S
C1512 C1511 1.399 . S
C1512 C1513 1.376 . S
C1513 H1500 0.930 . S
C1513 C1512 1.376 . S
C1513 C1514 1.388 . S
C1514 H1501 0.930 . S
C1514 C1513 1.388 . S
C1514 C1515 1.390 . S
C1515 C1514 1.390 . S
C1515 C1516 1.394 . S
C1515 C1521 1.465 . S
C1516 C1511 1.399 . S
C1516 C1515 1.394 . S
C1516 C1517 1.516 . S
C1517 C1516 1.516 . S
C1517 C1518 1.502 . S
C1517 C1519 1.561 . S
C1517 C1520 1.526 . S
C1518 H1502 0.959 . S
C1518 H1503 0.959 . S
C1518 H1504 0.961 . S
C1518 C1517 1.502 . S
C1519 H1505 0.960 . S
C1519 H1506 0.961 . S
C1519 H1507 0.959 . S
C1519 C1517 1.561 . S
C1520 C1517 1.526 . S
C1520 C1521 1.396 . S
C1520 C1525 1.390 . S
C1521 C1515 1.465 . S
C1521 C1520 1.396 . S
C1521 C1522 1.399 . S
C1522 H1508 0.929 . S
C1522 C1521 1.399 . S
C1522 C1523 1.385 . S
C1523 H1509 0.931 . S
C1523 C1522 1.385 . S
C1523 C1524 1.389 . S
C1524 C1523 1.389 . S
C1524 C1525 1.387 . S
C1525 H1510 0.930 . S
C1525 C1520 1.390 . S
C1525 C1524 1.387 . S
H1526 C1538 0.930 . S
H1527 C1540 0.930 . S
H1528 C1541 0.930 . S
H1529 C1545 0.959 . S
H1530 C1545 0.959 . S
H1531 C1545 0.961 . S
H1532 C1546 0.960 . S
H1533 C1546 0.961 . S
H1534 C1546 0.959 . S
H1535 C1549 0.929 . S
H1536 C1550 0.931 . S
H1537 C1552 0.930 . S
C1538 H1526 0.930 . S
C1538 C1539 1.399 . S
C1538 C1543 1.399 . S
C1539 C1538 1.399 . S
C1539 C1540 1.376 . S
C1540 H1527 0.930 . S
C1540 C1539 1.376 . S
C1540 C1541 1.388 . S
C1541 H1528 0.930 . S
C1541 C1540 1.388 . S
C1541 C1542 1.390 . S
C1542 C1541 1.390 . S
C1542 C1543 1.394 . S
C1542 C1548 1.465 . S
C1543 C1538 1.399 . S
C1543 C1542 1.394 . S
C1543 C1544 1.516 . S
C1544 C1543 1.516 . S
C1544 C1545 1.502 . S
C1544 C1546 1.561 . S
C1544 C1547 1.526 . S
C1545 H1529 0.959 . S
C1545 H1530 0.959 . S
C1545 H1531 0.961 . S
C1545 C1544 1.502 . S
C1546 H1532 0.960 . S
C1546 H1533 0.961 . S
C1546 H1534 0.959 . S
C1546 C1544 1.561 . S
C1547 C1544 1.526 . S
C1547 C1548 1.396 . S
C1547 C1552 1.390 . S
C1548 C1542 1.465 . S
C1548 C1547 1.396 . S
C1548 C1549 1.399 . S
C1549 H1535 0.929 . S
C1549 C1548 1.399 . S
C1549 C1550 1.385 . S
C1550 H1536 0.931 . S
C1550 C1549 1.385 . S
C1550 C1551 1.389 . S
C1551 C1550 1.389 . S
C1551 C1552 1.387 . S
C1552 H1537 0.930 . S
C1552 C1547 1.390 . S
C1552 C1551 1.387 . S
H1553 C1565 0.930 . S
H1554 C1567 0.930 . S
H1555 C1568 0.930 . S
H1556 C1572 0.959 . S
H1557 C1572 0.959 . S
H1558 C1572 0.961 . S
H1559 C1573 0.960 . S
H1560 C1573 0.961 . S
H1561 C1573 0.959 . S
H1562 C1576 0.929 . S
H1563 C1577 0.931 . S
H1564 C1579 0.930 . S
C1565 H1553 0.930 . S
C1565 C1566 1.399 . S
C1565 C1570 1.399 . S
C1566 C1565 1.399 . S
C1566 C1567 1.376 . S
C1567 H1554 0.930 . S
C1567 C1566 1.376 . S
C1567 C1568 1.388 . S
C1568 H1555 0.930 . S
C1568 C1567 1.388 . S
C1568 C1569 1.390 . S
C1569 C1568 1.390 . S
C1569 C1570 1.394 . S
C1569 C1575 1.465 . S
C1570 C1565 1.399 . S
C1570 C1569 1.394 . S
C1570 C1571 1.516 . S
C1571 C1570 1.516 . S
C1571 C1572 1.502 . S
C1571 C1573 1.561 . S
C1571 C1574 1.526 . S
C1572 H1556 0.959 . S
C1572 H1557 0.959 . S
C1572 H1558 0.961 . S
C1572 C1571 1.502 . S
C1573 H1559 0.960 . S
C1573 H1560 0.961 . S
C1573 H1561 0.959 . S
C1573 C1571 1.561 . S
C1574 C1571 1.526 . S
C1574 C1575 1.396 . S
C1574 C1579 1.390 . S
C1575 C1569 1.465 . S
C1575 C1574 1.396 . S
C1575 C1576 1.399 . S
C1576 H1562 0.929 . S
C1576 C1575 1.399 . S
C1576 C1577 1.385 . S
C1577 H1563 0.931 . S
C1577 C1576 1.385 . S
C1577 C1578 1.389 . S
C1578 C1577 1.389 . S
C1578 C1579 1.387 . S
C1579 H1564 0.930 . S
C1579 C1574 1.390 . S
C1579 C1578 1.387 . S
C741 C652 2.225 . S
C729 C69 2.292 . S
C756 C125 1.076 . S
C768 C655 1.025 . S
C783 C217 2.186 1_556 S
C795 C686 2.137 . S
C822 C621 1.818 . S
C810 C261 1.754 . S
C849 C656 2.100 . S
C837 C39 1.998 . S
C876 C687 2.224 . S
C864 C137 2.214 . S
C903 C612 2.011 . S
C891 C187 1.892 1_565 S
C930 C643 2.386 . S
C918 C291 2.394 . S
C945 C51 0.483 . S
C957 C673 0.692 . S
C972 C365 1.798 . S
C984 C642 1.642 . S
C999 C199 0.484 . S
C1011 C602 0.497 . S
C1038 C695 1.453 . S
C1026 C439 1.474 1_545 S
C1065 C623 1.240 . S
C1053 C63 1.412 . S
C1080 C335 1.276 1_565 S
C1092 C622 1.365 1_655 S
C1107 C211 1.196 . S
C1119 C715 1.293 1_655 S
C1146 C654 1.673 . S
C1134 C409 1.614 . S
C1161 C495 1.096 . S
C1173 C714 1.132 . S
C1188 C347 1.188 . S
C1200 C593 1.255 . S
C1215 C587 2.156 1_655 S
C1227 C624 2.173 . S
C1242 C421 1.031 . S
C1254 C683 1.105 . S
C1281 C594 2.225 . S
C1269 C507 2.144 . S
C1296 C359 1.953 . S
C1308 C625 1.972 . S
C1323 C557 1.882 . S
C1335 C674 1.999 . S
C1362 C705 2.208 . S
C1350 C433 2.037 . S
C1377 C513 1.626 . S
C1389 C611 1.489 . S
C1404 C143 1.587 . S
C1416 C704 1.524 . S
C1431 C569 0.518 . S
C1443 C664 0.417 . S
C1470 C633 1.069 . S
C1458 C285 1.118 . S
C1497 C685 1.496 . S
C1485 C483 1.396 1_556 S
C1524 C684 1.637 . S
C1512 C113 1.488 . S
C1551 C653 1.245 . S
C1539 C581 1.256 . S
C1578 C592 0.759 . S
C1566 C273 0.773 . S
