# Generated by pormake.
# Topology anh, (6,3)-cn, num edge types: 1
# Building blocks:
#     Node 0, Type 0, BuildingBlock: HISSIN_clean_sbu_0, # of connection points: 6
#     Node 1, Type 0, BuildingBlock: HISSIN_clean_sbu_0, # of connection points: 6
#     Node 2, Type 0, BuildingBlock: HISSIN_clean_sbu_0, # of connection points: 6
#     Node 3, Type 1, BuildingBlock: CUQRIR_clean_linker_1, # of connection points: 3
#     Node 4, Type 1, BuildingBlock: CUQRIR_clean_linker_1, # of connection points: 3
#     Node 5, Type 1, BuildingBlock: CUQRIR_clean_linker_1, # of connection points: 3
#     Node 6, Type 1, BuildingBlock: CUQRIR_clean_linker_1, # of connection points: 3
#     Node 7, Type 1, BuildingBlock: CUQRIR_clean_linker_1, # of connection points: 3
#     Node 8, Type 1, BuildingBlock: CUQRIR_clean_linker_1, # of connection points: 3
#     Edge 9, Type (0, 1), BuildingBlock: OJICUG_clean_linker_0, # of connection points: 2
#     Edge 10, Type (0, 1), BuildingBlock: OJICUG_clean_linker_0, # of connection points: 2
#     Edge 11, Type (0, 1), BuildingBlock: OJICUG_clean_linker_0, # of connection points: 2
#     Edge 12, Type (0, 1), BuildingBlock: OJICUG_clean_linker_0, # of connection points: 2
#     Edge 13, Type (0, 1), BuildingBlock: OJICUG_clean_linker_0, # of connection points: 2
#     Edge 14, Type (0, 1), BuildingBlock: OJICUG_clean_linker_0, # of connection points: 2
#     Edge 15, Type (0, 1), BuildingBlock: OJICUG_clean_linker_0, # of connection points: 2
#     Edge 16, Type (0, 1), BuildingBlock: OJICUG_clean_linker_0, # of connection points: 2
#     Edge 17, Type (0, 1), BuildingBlock: OJICUG_clean_linker_0, # of connection points: 2
#     Edge 18, Type (0, 1), BuildingBlock: OJICUG_clean_linker_0, # of connection points: 2
#     Edge 19, Type (0, 1), BuildingBlock: OJICUG_clean_linker_0, # of connection points: 2
#     Edge 20, Type (0, 1), BuildingBlock: OJICUG_clean_linker_0, # of connection points: 2
#     Edge 21, Type (0, 1), BuildingBlock: OJICUG_clean_linker_0, # of connection points: 2
#     Edge 22, Type (0, 1), BuildingBlock: OJICUG_clean_linker_0, # of connection points: 2
#     Edge 23, Type (0, 1), BuildingBlock: OJICUG_clean_linker_0, # of connection points: 2
#     Edge 24, Type (0, 1), BuildingBlock: OJICUG_clean_linker_0, # of connection points: 2
#     Edge 25, Type (0, 1), BuildingBlock: OJICUG_clean_linker_0, # of connection points: 2
#     Edge 26, Type (0, 1), BuildingBlock: OJICUG_clean_linker_0, # of connection points: 2
# Relax obj value: 0.456
# Max RMSD: 0.209
# Mean RMSD: 0.168
data_MOF--net-anh--node1-HISSIN_clean_sbu_0--node2-CUQRIR_clean_linker_1--edge1-OJICUG_clean_linker_0
_symmetry_space_group_name_H-M    P1
_symmetry_Int_Tables_number       1
_symmetry_cell_setting            triclinic
loop_
_symmetry_equiv_pos_as_xyz
'x, y, z'
_cell_length_a     19.658598
_cell_length_b     19.50194
_cell_length_c     33.343649
_cell_angle_alpha  88.936055
_cell_angle_beta   90.582723
_cell_angle_gamma 120.47406
loop_
_atom_site_label
_atom_site_type_symbol
_atom_site_fract_x
_atom_site_fract_y
_atom_site_fract_z
_atom_type_partial_charge
Eu0 Eu 1.08529 0.53445 0.13668 0.0
Eu1 Eu 1.16503 0.71389 0.17111 0.0
C2 C 1.09153 0.56701 0.23433 0.0
C3 C 1.0392 0.32521 0.12892 0.0
C4 C 1.09618 0.34265 0.159 0.0
C5 C 0.95331 0.20003 0.16215 0.0
C6 C 1.07595 0.29302 0.19298 0.0
C7 C 0.97268 0.24883 0.12799 0.0
C8 C 0.99663 0.2326 0.19773 0.0
C9 C 1.03301 0.39074 0.11062 0.0
O10 O 0.27375 0.69517 0.16859 0.0
O11 O 1.21434 0.56896 0.14316 0.0
C12 C 0.27851 0.63369 0.15513 0.0
O13 O 1.12428 0.61563 0.08174 0.0
O14 O 0.23523 0.81379 0.21066 0.0
O15 O 1.16986 0.82648 0.16085 0.0
O16 O 0.22189 0.72562 0.11235 0.0
C17 C 1.19085 0.68388 0.0803 0.0
O18 O 0.98027 0.55551 0.13071 0.0
O19 O 1.04108 0.68536 0.15032 0.0
O20 O 1.10895 0.64026 0.22666 0.0
O21 O 0.99033 0.4114 0.13128 0.0
O22 O 1.09864 0.45225 0.09835 0.0
O23 O 1.08902 0.52009 0.20545 0.0
C24 C 0.29137 0.93828 0.1756 0.0
C25 C 0.28057 1.0 0.1608 0.0
C26 C 0.43132 1.01979 0.16263 0.0
C27 C 0.34504 1.07176 0.14733 0.0
C28 C 0.36698 0.94811 0.17558 0.0
C29 C 0.42158 1.08315 0.14874 0.0
C30 C 0.2226 0.86271 0.1887 0.0
C31 C 0.9778 0.62098 0.13696 0.0
H32 H 1.14996 0.40015 0.15965 0.0
H33 H 0.89496 1.14762 0.16309 0.0
H34 H 1.11442 0.3149 0.2189 0.0
H35 H 0.92941 0.23245 0.10421 0.0
H36 H 0.22218 0.99281 0.15989 0.0
H37 H 0.4892 1.02629 0.16543 0.0
H38 H 0.33511 1.11877 0.13672 0.0
H39 H 0.3768 0.90097 0.18619 0.0
Eu40 Eu 0.71701 1.03636 0.48441 0.0
Eu41 Eu 0.61941 1.12132 0.50896 0.0
C42 C 0.69354 1.06552 0.57779 0.0
C43 C 0.88587 1.00343 0.49035 0.0
C44 C 0.90584 1.04289 0.52719 0.0
C45 C 0.99915 0.98676 0.49606 0.0
C46 C 0.9678 1.04746 0.55003 0.0
C47 C 0.93605 0.98061 0.47358 0.0
C48 C 1.01003 1.01236 0.53612 0.0
C49 C 0.80971 0.98055 0.47155 0.0
O50 O 0.74949 0.22757 0.503 0.0
O51 O 0.8061 0.16595 0.47091 0.0
C52 C 0.80986 0.23144 0.48308 0.0
O53 O 0.6653 1.0496 0.42612 0.0
O54 O 0.59784 0.20147 0.54431 0.0
O55 O 0.51736 1.13399 0.49633 0.0
O56 O 0.65795 0.15697 0.44594 0.0
C57 C 0.66197 1.11374 0.4178 0.0
O58 O 0.59044 0.93011 0.48385 0.0
O59 O 0.52157 0.99483 0.49302 0.0
O60 O 0.63023 1.06732 0.56713 0.0
O61 O 0.74882 0.94584 0.49554 0.0
O62 O 0.80868 1.03487 0.44872 0.0
O63 O 0.74342 1.0705 0.55034 0.0
C64 C 0.55717 0.26939 0.50083 0.0
C65 C 0.57957 0.28434 0.46018 0.0
C66 C 0.6147 0.41058 0.51059 0.0
C67 C 0.62469 0.36233 0.44579 0.0
C68 C 0.56944 0.33257 0.52494 0.0
C69 C 0.64867 0.42604 0.47201 0.0
C70 C 0.54193 0.19453 0.52009 0.0
C71 C 0.52277 0.92903 0.48585 0.0
H72 H 0.8693 1.06365 0.53995 0.0
H73 H 1.0319 0.96086 0.48407 0.0
H74 H 0.97545 1.06831 0.58056 0.0
H75 H 0.92291 0.95239 0.4446 0.0
H76 H 0.57002 0.23651 0.44062 0.0
H77 H 0.6316 0.45807 0.53174 0.0
H78 H 0.64865 0.37244 0.41571 0.0
H79 H 0.55232 0.32229 0.55625 0.0
Eu80 Eu 0.70943 0.61532 0.81031 0.0
Eu81 Eu 0.89205 0.72474 0.83606 0.0
C82 C 0.75906 0.65365 0.9055 0.0
C83 C 0.49331 0.49102 0.82449 0.0
C84 C 0.50496 0.47226 0.86396 0.0
C85 C 0.39046 0.51322 0.84801 0.0
C86 C 0.46423 0.48112 0.89559 0.0
C87 C 0.43035 0.50333 0.81638 0.0
C88 C 0.41394 0.51132 0.88792 0.0
C89 C 0.559 0.52317 0.79588 0.0
O90 O 0.8795 0.60268 0.8209 0.0
O91 O 0.74591 0.52535 0.82815 0.0
C92 C 0.81497 0.53116 0.8233 0.0
O93 O 0.77459 0.6235 0.7533 0.0
O94 O 1.0023 0.75063 0.86521 0.0
O95 O 0.99412 0.84451 0.83367 0.0
O96 O 0.89938 0.7239 0.76934 0.0
C97 C 0.84854 0.67382 0.74367 0.0
O98 O 0.73887 0.74196 0.79179 0.0
O99 O 0.84222 0.80911 0.83438 0.0
O100 O 0.83358 0.68255 0.89646 0.0
O101 O 0.59602 0.60036 0.79187 0.0
O102 O 0.60786 0.49696 0.79944 0.0
O103 O 0.70456 0.63344 0.87746 0.0
C104 C 1.1169 0.85179 0.83151 0.0
C105 C 1.16576 0.93307 0.8224 0.0
C106 C 1.21979 0.82806 0.80935 0.0
C107 C 0.24252 0.96223 0.80829 0.0
C108 C 1.14312 0.7991 0.82291 0.0
C109 C 0.27246 0.91075 0.804 0.0
C110 C 1.04045 0.82379 0.85129 0.0
C111 C 0.7895 0.80892 0.80949 0.0
H112 H 0.55246 0.46111 0.871 0.0
H113 H 0.3507 0.53478 0.84073 0.0
H114 H 0.48073 0.4759 0.92609 0.0
H115 H 0.4198 0.51693 0.78609 0.0
H116 H 1.14578 0.97463 0.82788 0.0
H117 H 0.23885 0.78518 0.80668 0.0
H118 H 0.27982 1.02572 0.80341 0.0
H119 H 1.10602 0.73579 0.82868 0.0
C120 C 0.75917 0.32507 0.20966 0.0
N121 N 0.77552 0.30009 0.24467 0.0
N122 N 0.68306 0.3083 0.2086 0.0
C123 C 0.81512 0.35779 0.17467 0.0
C124 C 0.65518 0.27484 0.24543 0.0
N125 N 0.71067 0.2688 0.26658 0.0
C126 C 0.57076 0.23899 0.25908 0.0
H127 H 0.87223 0.40869 0.18466 0.0
H128 H 0.79104 0.37815 0.14995 0.0
H129 H 0.82699 0.31152 0.1636 0.0
H130 H 0.53227 0.18532 0.24125 0.0
H131 H 0.55071 0.2824 0.25454 0.0
H132 H 0.56357 0.22197 0.29132 0.0
C133 C 0.98573 0.72804 0.52428 0.0
N134 N 0.99988 0.74675 0.56375 0.0
N135 N 0.93799 0.64896 0.51962 0.0
C136 C 1.00251 0.78739 0.49071 0.0
C137 C 0.92679 0.61978 0.55765 0.0
N138 N 0.96053 0.67889 0.58466 0.0
C139 C 0.87319 0.53315 0.56822 0.0
H140 H 0.97026 0.81924 0.49636 0.0
H141 H 0.98391 0.75784 0.46124 0.0
H142 H 1.06652 0.83148 0.48916 0.0
H143 H 0.88405 0.49625 0.54735 0.0
H144 H 0.81066 0.517 0.56444 0.0
H145 H 0.88302 0.51964 0.59949 0.0
C146 C 0.48861 0.8443 0.90276 0.0
N147 N 0.44756 0.79471 0.93369 0.0
N148 N 0.46637 0.89904 0.89578 0.0
C149 C 0.54544 0.83457 0.87684 0.0
C150 C 0.41199 0.88218 0.92513 0.0
N151 N 0.40021 0.81864 0.94742 0.0
C152 C 0.36467 0.92289 0.92978 0.0
H153 H 0.59133 0.8334 0.89596 0.0
H154 H 0.57502 0.88406 0.85462 0.0
H155 H 0.5136 0.77696 0.86107 0.0
H156 H 0.32421 0.90892 0.9038 0.0
H157 H 0.40461 0.98819 0.93084 0.0
H158 H 0.32944 0.90443 0.95774 0.0
C159 C 1.15946 0.58228 0.46452 0.0
N160 N 1.10293 0.52982 0.43833 0.0
N161 N 0.22456 0.64062 0.44482 0.0
C162 C 1.15459 0.57408 0.50941 0.0
C163 C 1.20596 0.62191 0.4058 0.0
N164 N 1.13363 0.55547 0.40156 0.0
C165 C 0.25791 0.67083 0.37124 0.0
H166 H 1.12205 0.60238 0.52088 0.0
H167 H 1.21441 0.60455 0.52299 0.0
H168 H 1.12307 0.51049 0.51884 0.0
H169 H 0.3022 0.73199 0.38044 0.0
H170 H 0.22222 0.6748 0.34631 0.0
H171 H 0.28936 0.64141 0.35975 0.0
C172 C 0.80589 0.16969 0.80368 0.0
N173 N 0.7898 1.10971 0.77719 0.0
N174 N 0.80413 0.23247 0.7854 0.0
C175 C 0.81881 0.16556 0.84786 0.0
C176 C 0.78539 0.20805 0.74707 0.0
N177 N 0.77637 1.13481 0.74197 0.0
C178 C 0.77242 0.2548 0.71446 0.0
H179 H 0.78544 1.10314 0.85912 0.0
H180 H 0.80058 0.20229 0.86458 0.0
H181 H 0.88259 0.18944 0.85348 0.0
H182 H 0.79459 0.24769 0.68528 0.0
H183 H 0.80189 0.31897 0.72145 0.0
H184 H 0.70813 0.23154 0.71136 0.0
C185 C 0.63728 0.64009 0.13264 0.0
N186 N 0.68711 0.63567 0.10531 0.0
N187 N 0.57511 0.6418 0.11436 0.0
C188 C 0.64711 0.63892 0.17723 0.0
C189 C 0.58934 0.63822 0.07492 0.0
N190 N 0.65574 0.63376 0.06924 0.0
C191 C 0.54037 0.64461 0.04162 0.0
H192 H 0.67096 0.59986 0.18571 0.0
H193 H 0.59017 0.61839 0.19279 0.0
H194 H 0.68983 0.70011 0.18713 0.0
H195 H 0.57795 0.67777 0.01551 0.0
H196 H 0.50919 0.67531 0.05171 0.0
H197 H 0.49543 0.58401 0.03194 0.0
C198 C 0.43289 0.70507 0.15535 0.0
C199 C 0.35771 0.63623 0.14969 0.0
H200 H 0.56024 0.76093 0.14941 0.0
C201 C 0.35826 0.56846 0.13534 0.0
H202 H 0.43657 0.7591 0.16577 0.0
C203 C 0.42908 0.56972 0.126 0.0
C204 C 0.50381 0.63837 0.13091 0.0
H205 H 0.3031 0.51387 0.13008 0.0
H206 H 0.42535 0.51698 0.11362 0.0
C207 C 0.50443 0.70609 0.14612 0.0
C208 C 0.93269 0.31352 0.43958 0.0
C209 C 0.88349 0.31038 0.47125 0.0
H210 H 1.03815 0.38286 0.40442 0.0
C211 C 0.90728 0.38251 0.49089 0.0
H212 H 0.91739 0.26014 0.4232 0.0
C213 C 0.97809 0.45376 0.48008 0.0
C214 C 1.02729 0.45677 0.4484 0.0
H215 H 0.87192 0.38346 0.51527 0.0
H216 H 0.99401 0.50694 0.49665 0.0
C217 C 1.00238 0.38486 0.42828 0.0
C218 C 0.84874 0.96018 0.8157 0.0
C219 C 0.78826 0.88613 0.80125 0.0
H220 H 0.89799 1.08708 0.81885 0.0
C221 C 0.72799 0.88796 0.77843 0.0
H222 H 0.89686 0.9629 0.83307 0.0
C223 C 0.7282 0.96017 0.77063 0.0
C224 C 0.78895 1.03415 0.78505 0.0
H225 H 0.67993 0.83318 0.76667 0.0
H226 H 0.6797 0.95756 0.75376 0.0
C227 C 0.84923 1.03223 0.80766 0.0
C228 C 0.89217 0.686 0.14343 0.0
C229 C 0.90174 0.62355 0.12885 0.0
H230 H 0.81854 0.73851 0.14803 0.0
C231 C 0.83775 0.56479 0.10634 0.0
H232 H 0.93885 0.73275 0.16088 0.0
C233 C 0.76851 0.56902 0.0984 0.0
C234 C 0.75912 0.63122 0.11333 0.0
H235 H 0.84139 0.51553 0.09435 0.0
H236 H 0.72158 0.5228 0.08084 0.0
C237 C 0.82243 0.68932 0.13618 0.0
C238 C 0.37105 0.84458 0.48633 0.0
C239 C 0.44511 0.8517 0.47853 0.0
H240 H 0.24372 0.77211 0.48283 0.0
C241 C 0.44361 0.7845 0.4623 0.0
H242 H 0.36863 0.89418 0.49877 0.0
C243 C 0.37159 0.71459 0.453 0.0
C244 C 0.29793 0.70819 0.46018 0.0
H245 H 0.4984 0.78658 0.45557 0.0
H246 H 0.37336 0.66576 0.43913 0.0
C247 C 0.29892 0.77406 0.47751 0.0
C248 C 0.74752 0.37891 0.82426 0.0
C249 C 0.81684 0.45406 0.81841 0.0
H250 H 0.68961 0.25103 0.81928 0.0
C251 C 0.88438 0.45296 0.80509 0.0
H252 H 0.69371 0.3757 0.83422 0.0
C253 C 0.88161 0.38024 0.79666 0.0
C254 C 0.81165 0.30567 0.80172 0.0
H255 H 0.93881 0.50851 0.79967 0.0
H256 H 0.9336 0.38238 0.78462 0.0
C257 C 0.74499 0.30658 0.81603 0.0
C258 C 0.97571 0.9142 0.59005 0.0
C259 C 1.03548 0.97164 0.56516 0.0
H260 H 0.91309 0.79222 0.60633 0.0
C261 C 1.10041 0.96303 0.55626 0.0
H262 H 0.92547 0.91965 0.59827 0.0
C263 C 1.09576 0.88997 0.56383 0.0
C264 C 1.02493 0.82517 0.57833 0.0
H265 H 1.14816 1.00719 0.53781 0.0
H266 H 1.14096 0.88012 0.55172 0.0
C267 C 0.96868 0.84005 0.59516 0.0
C268 C 0.38648 0.88951 0.79622 0.0
C269 C 0.35942 0.94198 0.80466 0.0
H270 H 0.43954 0.82835 0.82272 0.0
C271 C 0.4076 1.00716 0.82933 0.0
H272 H 0.35659 0.84338 0.7742 0.0
C273 C 0.46225 1.00309 0.85495 0.0
C274 C 0.4646 0.93245 0.85702 0.0
H275 H 0.39412 1.05356 0.83456 0.0
H276 H 0.49005 1.04712 0.87808 0.0
C277 C 0.43595 0.88176 0.82383 0.0
C278 C 0.49491 0.23059 0.1589 0.0
C279 C 0.49256 0.16329 0.14262 0.0
H280 H 0.56564 0.33901 0.19053 0.0
C281 C 0.56424 0.16931 0.13172 0.0
H282 H 0.44125 0.23023 0.16627 0.0
C283 C 0.63449 0.22913 0.14796 0.0
C284 C 0.63349 0.28524 0.17345 0.0
H285 H 0.5649 1.121 0.11654 0.0
H286 H 0.68581 0.22263 0.14613 0.0
C287 C 0.56638 0.29308 0.17312 0.0
C288 C 0.73648 0.57182 0.48209 0.0
C289 C 0.72437 0.50112 0.46514 0.0
H290 H 0.81805 0.67654 0.51365 0.0
C291 C 0.79074 0.49634 0.45374 0.0
H292 H 0.68675 0.57816 0.49022 0.0
C293 C 0.86591 0.55356 0.46659 0.0
C294 C 0.87494 0.61503 0.49091 0.0
H295 H 0.78411 0.44339 0.43998 0.0
H296 H 0.91515 0.54507 0.46147 0.0
C297 C 0.81155 0.6283 0.4953 0.0
C298 C 0.48101 0.62423 0.93489 0.0
C299 C 0.41014 0.56616 0.91684 0.0
H300 H 0.54836 0.74475 0.95485 0.0
C301 C 0.34543 0.57798 0.91599 0.0
H302 H 0.53228 0.61737 0.93638 0.0
C303 C 0.356 0.65202 0.92552 0.0
C304 C 0.43052 0.71401 0.93732 0.0
H305 H 0.28976 0.53392 0.90301 0.0
H306 H 0.30843 0.66337 0.91932 0.0
C307 C 0.49104 0.69789 0.94499 0.0
C308 C 0.97246 0.31932 0.24236 0.0
C309 C 0.95093 0.24136 0.23077 0.0
H310 H 0.931 0.3997 0.25442 0.0
C311 C 0.87282 0.18011 0.23791 0.0
H312 H 1.03214 0.36841 0.23882 0.0
C313 C 0.8149 0.19915 0.2461 0.0
C314 C 0.8353 0.27901 0.24943 0.0
H315 H 0.85443 1.11912 0.23084 0.0
H316 H 0.75354 0.15246 0.24539 0.0
C317 C 0.91462 0.33814 0.25085 0.0
C318 C 1.2111 0.71135 0.00608 0.0
C319 C 0.24076 0.71017 0.04434 0.0
H320 H 0.24054 0.74909 0.94443 0.0
C321 C 0.32224 0.74091 0.04947 0.0
H322 H 1.14853 0.68786 0.00154 0.0
C323 C 0.37375 0.77488 0.01733 0.0
C324 C 0.34513 0.78022 0.97966 0.0
H325 H 0.34646 0.73979 0.07865 0.0
H326 H 0.43642 0.79909 0.02197 0.0
C327 C 0.26338 0.74683 0.9738 0.0
C328 C 0.63725 1.10547 0.34397 0.0
C329 C 0.67907 1.14896 0.37755 0.0
H330 H 0.61397 1.11171 0.28125 0.0
C331 C 0.7338 0.2308 0.37363 0.0
H332 H 0.59467 1.04244 0.34662 0.0
C333 C 0.74503 0.26943 0.33685 0.0
C334 C 0.70047 0.22723 0.30381 0.0
H335 H 0.76694 0.26533 0.39927 0.0
H336 H 0.78676 0.3327 0.33427 0.0
C337 C 0.64754 1.14485 0.3071 0.0
C338 C 0.82397 0.63563 0.67149 0.0
C339 C 0.87733 0.67311 0.70294 0.0
H340 H 0.80907 0.61087 0.60894 0.0
C341 C 0.95899 0.70998 0.69519 0.0
H342 H 0.76095 0.60758 0.6763 0.0
C343 C 0.98652 0.70963 0.65669 0.0
C344 C 0.93304 0.67268 0.62529 0.0
H345 H 1.00179 0.73918 0.71888 0.0
H346 H 1.04941 0.73917 0.65118 0.0
C347 C 0.85155 0.63625 0.63304 0.0
C348 C 0.789 1.08933 0.63499 0.0
C349 C 0.71217 1.06633 0.62154 0.0
H350 H 0.86965 1.12784 0.68507 0.0
C351 C 0.65428 1.05069 0.65056 0.0
H352 H 0.83519 1.10185 0.61364 0.0
C353 C 0.67392 1.06375 0.69135 0.0
C354 C 0.75187 1.09297 0.7044 0.0
H355 H 0.59437 1.03226 0.64159 0.0
H356 H 0.62959 1.0575 0.71249 0.0
C357 C 0.8087 1.10309 0.67598 0.0
C358 C 0.78796 0.6959 0.97818 0.0
C359 C 0.73586 0.64423 0.94881 0.0
H360 H 0.80314 0.7334 0.03973 0.0
C361 C 0.66084 0.58353 0.96124 0.0
H362 H 0.84651 0.74307 0.96976 0.0
C363 C 0.63718 0.5766 0.0014 0.0
C364 C 0.68711 0.6313 0.03027 0.0
H365 H 0.62019 0.54148 0.93976 0.0
H366 H 0.57834 0.53001 0.00972 0.0
C367 C 0.76359 0.68996 0.01838 0.0
C368 C 1.1179 0.50075 0.29391 0.0
C369 C 1.08152 0.54135 0.27772 0.0
H370 H 1.16131 0.47149 0.34722 0.0
C371 C 1.0463 0.56913 0.30467 0.0
H372 H 1.14683 0.47975 0.2743 0.0
C373 C 1.0528 0.56232 0.34648 0.0
C374 C 1.09596 0.5289 0.36268 0.0
H375 H 1.01794 0.60089 0.29338 0.0
H376 H 1.03157 0.59103 0.36612 0.0
C377 C 1.12548 0.49518 0.33582 0.0
loop_
_geom_bond_atom_site_label_1
_geom_bond_atom_site_label_2
_geom_bond_distance
_geom_bond_site_symmetry_2
_ccdc_geom_bond_type
Eu0 C9 2.828 . S
Eu0 O11 2.392 1_655 S
Eu0 O13 2.418 . S
Eu0 O18 2.373 . S
Eu0 O21 2.488 . S
Eu0 O22 2.471 . S
Eu0 O23 2.349 . S
Eu1 O10 2.373 . S
Eu1 O14 2.488 . S
Eu1 O15 2.471 . S
Eu1 O16 2.349 . S
Eu1 O19 2.392 1_455 S
Eu1 O20 2.418 . S
Eu1 C30 2.828 . S
C2 O20 1.244 . S
C2 O23 1.265 1_455 S
C3 C4 1.379 . S
C3 C7 1.373 . S
C3 C9 1.505 . S
C4 C3 1.379 . S
C4 C6 1.369 . S
C4 H32 0.930 . S
C5 C7 1.383 . S
C5 C8 1.382 . S
C5 H33 0.930 . S
C6 C4 1.369 . S
C6 C8 1.392 . S
C6 H34 0.930 . S
C7 C3 1.373 . S
C7 C5 1.383 . S
C7 H35 0.931 . S
C8 C5 1.382 . S
C8 C6 1.392 . S
C9 Eu0 2.828 . S
C9 C3 1.505 . S
C9 O21 1.249 . S
C9 O22 1.244 . S
O10 Eu1 2.373 . S
O10 C12 1.258 . S
O11 Eu0 2.392 1_455 S
O11 C12 1.242 . S
C12 O10 1.258 . S
C12 O11 1.242 . S
O13 Eu0 2.418 . S
O13 C17 1.244 . S
O14 Eu1 2.488 . S
O14 C30 1.249 . S
O15 Eu1 2.471 . S
O15 C30 1.244 . S
O16 Eu1 2.349 . S
O16 C17 1.265 1_455 S
C17 O13 1.244 . S
C17 O16 1.265 1_655 S
O18 Eu0 2.373 . S
O18 C31 1.258 . S
O19 Eu1 2.392 1_655 S
O19 C31 1.242 . S
O20 Eu1 2.418 . S
O20 C2 1.244 . S
O21 Eu0 2.488 . S
O21 C9 1.249 . S
O22 Eu0 2.471 . S
O22 C9 1.244 . S
O23 Eu0 2.349 . S
O23 C2 1.265 1_655 S
C24 C25 1.379 . S
C24 C28 1.373 . S
C24 C30 1.505 . S
C25 C24 1.379 . S
C25 C27 1.369 . S
C25 H36 0.930 . S
C26 C28 1.383 . S
C26 C29 1.382 . S
C26 H37 0.930 . S
C27 C25 1.369 . S
C27 C29 1.392 . S
C27 H38 0.930 . S
C28 C24 1.373 . S
C28 C26 1.383 . S
C28 H39 0.931 . S
C29 C26 1.382 . S
C29 C27 1.392 . S
C30 Eu1 2.828 . S
C30 O14 1.249 . S
C30 O15 1.244 . S
C30 C24 1.505 . S
C31 O18 1.258 . S
C31 O19 1.242 . S
H32 C4 0.930 . S
H33 C5 0.930 . S
H34 C6 0.930 . S
H35 C7 0.931 . S
H36 C25 0.930 . S
H37 C26 0.930 . S
H38 C27 0.930 . S
H39 C28 0.931 . S
Eu40 C49 2.828 . S
Eu40 O51 2.392 1_565 S
Eu40 O53 2.418 . S
Eu40 O58 2.373 . S
Eu40 O61 2.488 . S
Eu40 O62 2.471 . S
Eu40 O63 2.349 1_565 S
Eu41 O50 2.373 . S
Eu41 O54 2.488 . S
Eu41 O55 2.471 . S
Eu41 O56 2.349 . S
Eu41 O59 2.392 1_545 S
Eu41 O60 2.418 . S
Eu41 C70 2.828 . S
C42 O60 1.244 . S
C42 O63 1.265 . S
C43 C44 1.379 . S
C43 C47 1.373 . S
C43 C49 1.505 . S
C44 C43 1.379 . S
C44 C46 1.369 . S
C44 H72 0.930 . S
C45 C47 1.383 . S
C45 C48 1.382 . S
C45 H73 0.930 . S
C46 C44 1.369 . S
C46 C48 1.392 . S
C46 H74 0.930 . S
C47 C43 1.373 . S
C47 C45 1.383 . S
C47 H75 0.931 . S
C48 C45 1.382 . S
C48 C46 1.392 . S
C49 Eu40 2.828 . S
C49 C43 1.505 . S
C49 O61 1.249 . S
C49 O62 1.244 . S
O50 Eu41 2.373 . S
O50 C52 1.258 . S
O51 Eu40 2.392 1_545 S
O51 C52 1.242 . S
C52 O50 1.258 . S
C52 O51 1.242 . S
O53 Eu40 2.418 . S
O53 C57 1.244 1_565 S
O54 Eu41 2.488 . S
O54 C70 1.249 . S
O55 Eu41 2.471 . S
O55 C70 1.244 . S
O56 Eu41 2.349 . S
O56 C57 1.265 . S
C57 O53 1.244 1_545 S
C57 O56 1.265 . S
O58 Eu40 2.373 . S
O58 C71 1.258 . S
O59 Eu41 2.392 1_565 S
O59 C71 1.242 . S
O60 Eu41 2.418 . S
O60 C42 1.244 . S
O61 Eu40 2.488 . S
O61 C49 1.249 . S
O62 Eu40 2.471 . S
O62 C49 1.244 . S
O63 Eu40 2.349 1_545 S
O63 C42 1.265 . S
C64 C65 1.379 . S
C64 C68 1.373 . S
C64 C70 1.505 . S
C65 C64 1.379 . S
C65 C67 1.369 . S
C65 H76 0.930 . S
C66 C68 1.383 . S
C66 C69 1.382 . S
C66 H77 0.930 . S
C67 C65 1.369 . S
C67 C69 1.392 . S
C67 H78 0.930 . S
C68 C64 1.373 . S
C68 C66 1.383 . S
C68 H79 0.931 . S
C69 C66 1.382 . S
C69 C67 1.392 . S
C70 Eu41 2.828 . S
C70 O54 1.249 . S
C70 O55 1.244 . S
C70 C64 1.505 . S
C71 O58 1.258 . S
C71 O59 1.242 . S
H72 C44 0.930 . S
H73 C45 0.930 . S
H74 C46 0.930 . S
H75 C47 0.931 . S
H76 C65 0.930 . S
H77 C66 0.930 . S
H78 C67 0.930 . S
H79 C68 0.931 . S
Eu80 C89 2.828 . S
Eu80 O91 2.392 . S
Eu80 O93 2.418 . S
Eu80 O98 2.373 . S
Eu80 O101 2.488 . S
Eu80 O102 2.471 . S
Eu80 O103 2.349 . S
Eu81 O90 2.373 . S
Eu81 O94 2.488 . S
Eu81 O95 2.471 . S
Eu81 O96 2.349 . S
Eu81 O99 2.392 . S
Eu81 O100 2.418 . S
Eu81 C110 2.828 . S
C82 O100 1.244 . S
C82 O103 1.265 . S
C83 C84 1.379 . S
C83 C87 1.373 . S
C83 C89 1.505 . S
C84 C83 1.379 . S
C84 C86 1.369 . S
C84 H112 0.930 . S
C85 C87 1.383 . S
C85 C88 1.382 . S
C85 H113 0.930 . S
C86 C84 1.369 . S
C86 C88 1.392 . S
C86 H114 0.930 . S
C87 C83 1.373 . S
C87 C85 1.383 . S
C87 H115 0.931 . S
C88 C85 1.382 . S
C88 C86 1.392 . S
C89 Eu80 2.828 . S
C89 C83 1.505 . S
C89 O101 1.249 . S
C89 O102 1.244 . S
O90 Eu81 2.373 . S
O90 C92 1.258 . S
O91 Eu80 2.392 . S
O91 C92 1.242 . S
C92 O90 1.258 . S
C92 O91 1.242 . S
O93 Eu80 2.418 . S
O93 C97 1.244 . S
O94 Eu81 2.488 . S
O94 C110 1.249 . S
O95 Eu81 2.471 . S
O95 C110 1.244 . S
O96 Eu81 2.349 . S
O96 C97 1.265 . S
C97 O93 1.244 . S
C97 O96 1.265 . S
O98 Eu80 2.373 . S
O98 C111 1.258 . S
O99 Eu81 2.392 . S
O99 C111 1.242 . S
O100 Eu81 2.418 . S
O100 C82 1.244 . S
O101 Eu80 2.488 . S
O101 C89 1.249 . S
O102 Eu80 2.471 . S
O102 C89 1.244 . S
O103 Eu80 2.349 . S
O103 C82 1.265 . S
C104 C105 1.379 . S
C104 C108 1.373 . S
C104 C110 1.505 . S
C105 C104 1.379 . S
C105 C107 1.369 . S
C105 H116 0.930 . S
C106 C108 1.383 . S
C106 C109 1.382 . S
C106 H117 0.930 . S
C107 C105 1.369 . S
C107 C109 1.392 . S
C107 H118 0.930 . S
C108 C104 1.373 . S
C108 C106 1.383 . S
C108 H119 0.931 . S
C109 C106 1.382 . S
C109 C107 1.392 . S
C110 Eu81 2.828 . S
C110 O94 1.249 . S
C110 O95 1.244 . S
C110 C104 1.505 . S
C111 O98 1.258 . S
C111 O99 1.242 . S
H112 C84 0.930 . S
H113 C85 0.930 . S
H114 C86 0.930 . S
H115 C87 0.931 . S
H116 C105 0.930 . S
H117 C106 0.930 . S
H118 C107 0.930 . S
H119 C108 0.931 . S
C120 N121 1.317 . S
C120 N122 1.348 1_545 S
C120 C123 1.485 . S
N121 C120 1.317 . S
N121 N125 1.370 . S
N122 C120 1.348 1_565 S
N122 C124 1.346 . S
C123 C120 1.485 . S
C123 H127 0.960 . S
C123 H128 0.961 1_545 S
C123 H129 0.960 . S
C124 N122 1.346 . S
C124 N125 1.307 1_565 S
C124 C126 1.486 . S
N125 N121 1.370 . S
N125 C124 1.307 1_545 S
C126 C124 1.486 . S
C126 H130 0.960 . S
C126 H131 0.960 . S
C126 H132 0.959 . S
H127 C123 0.960 . S
H128 C123 0.961 1_565 S
H129 C123 0.960 . S
H130 C126 0.960 . S
H131 C126 0.960 . S
H132 C126 0.959 . S
C133 N134 1.317 . S
C133 N135 1.348 . S
C133 C136 1.485 . S
N134 C133 1.317 . S
N134 N138 1.370 . S
N135 C133 1.348 . S
N135 C137 1.346 . S
C136 C133 1.485 . S
C136 H140 0.960 . S
C136 H141 0.961 . S
C136 H142 0.960 . S
C137 N135 1.346 . S
C137 N138 1.307 . S
C137 C139 1.486 . S
N138 N134 1.370 . S
N138 C137 1.307 . S
C139 C137 1.486 . S
C139 H143 0.960 . S
C139 H144 0.960 . S
C139 H145 0.959 . S
H140 C136 0.960 . S
H141 C136 0.961 . S
H142 C136 0.960 . S
H143 C139 0.960 . S
H144 C139 0.960 . S
H145 C139 0.959 . S
C146 N147 1.317 . S
C146 N148 1.348 1_455 S
C146 C149 1.485 . S
N147 C146 1.317 . S
N147 N151 1.370 . S
N148 C146 1.348 1_655 S
N148 C150 1.346 . S
C149 C146 1.485 . S
C149 H153 0.960 . S
C149 H154 0.961 . S
C149 H155 0.960 . S
C150 N148 1.346 . S
C150 N151 1.307 1_655 S
C150 C152 1.486 . S
N151 N147 1.370 . S
N151 C150 1.307 1_455 S
C152 C150 1.486 . S
C152 H156 0.960 . S
C152 H157 0.960 . S
C152 H158 0.959 . S
H153 C149 0.960 . S
H154 C149 0.961 . S
H155 C149 0.960 . S
H156 C152 0.960 . S
H157 C152 0.960 . S
H158 C152 0.959 . S
C159 N160 1.317 . S
C159 N161 1.348 . S
C159 C162 1.485 . S
N160 C159 1.317 . S
N160 N164 1.370 . S
N161 C159 1.348 . S
N161 C163 1.346 . S
C162 C159 1.485 . S
C162 H166 0.960 . S
C162 H167 0.961 . S
C162 H168 0.960 . S
C163 N161 1.346 . S
C163 N164 1.307 . S
C163 C165 1.486 . S
N164 N160 1.370 . S
N164 C163 1.307 . S
C165 C163 1.486 . S
C165 H169 0.960 . S
C165 H170 0.960 . S
C165 H171 0.959 . S
H166 C162 0.960 . S
H167 C162 0.961 . S
H168 C162 0.960 . S
H169 C165 0.960 . S
H170 C165 0.960 . S
H171 C165 0.959 . S
C172 N173 1.317 . S
C172 N174 1.348 . S
C172 C175 1.485 . S
N173 C172 1.317 . S
N173 N177 1.370 . S
N174 C172 1.348 . S
N174 C176 1.346 . S
C175 C172 1.485 . S
C175 H179 0.960 . S
C175 H180 0.961 . S
C175 H181 0.960 . S
C176 N174 1.346 . S
C176 N177 1.307 . S
C176 C178 1.486 . S
N177 N173 1.370 . S
N177 C176 1.307 . S
C178 C176 1.486 . S
C178 H182 0.960 . S
C178 H183 0.960 . S
C178 H184 0.959 . S
H179 C175 0.960 . S
H180 C175 0.961 . S
H181 C175 0.960 . S
H182 C178 0.960 . S
H183 C178 0.960 . S
H184 C178 0.959 . S
C185 N186 1.317 . S
C185 N187 1.348 . S
C185 C188 1.485 . S
N186 C185 1.317 . S
N186 N190 1.370 . S
N187 C185 1.348 . S
N187 C189 1.346 . S
C188 C185 1.485 . S
C188 H192 0.960 . S
C188 H193 0.961 . S
C188 H194 0.960 . S
C189 N187 1.346 . S
C189 N190 1.307 . S
C189 C191 1.486 . S
N190 N186 1.370 . S
N190 C189 1.307 . S
C191 C189 1.486 . S
C191 H195 0.960 . S
C191 H196 0.960 . S
C191 H197 0.959 . S
H192 C188 0.960 . S
H193 C188 0.961 . S
H194 C188 0.960 . S
H195 C191 0.960 . S
H196 C191 0.960 . S
H197 C191 0.959 . S
C198 C199 1.387 . S
C198 H202 0.950 . S
C198 C207 1.390 . S
C199 C198 1.387 . S
C199 C201 1.387 . S
H200 C207 0.950 . S
C201 C199 1.387 . S
C201 C203 1.390 . S
C201 H205 0.950 . S
H202 C198 0.950 . S
C203 C201 1.390 . S
C203 C204 1.387 . S
C203 H206 0.950 . S
C204 C203 1.387 . S
C204 C207 1.387 . S
H205 C201 0.950 . S
H206 C203 0.950 . S
C207 C198 1.390 . S
C207 H200 0.950 . S
C207 C204 1.387 . S
C208 C209 1.387 . S
C208 H212 0.950 . S
C208 C217 1.390 . S
C209 C208 1.387 . S
C209 C211 1.387 . S
H210 C217 0.950 . S
C211 C209 1.387 . S
C211 C213 1.390 . S
C211 H215 0.950 . S
H212 C208 0.950 . S
C213 C211 1.390 . S
C213 C214 1.387 . S
C213 H216 0.950 . S
C214 C213 1.387 . S
C214 C217 1.387 . S
H215 C211 0.950 . S
H216 C213 0.950 . S
C217 C208 1.390 . S
C217 H210 0.950 . S
C217 C214 1.387 . S
C218 C219 1.387 . S
C218 H222 0.950 . S
C218 C227 1.390 . S
C219 C218 1.387 . S
C219 C221 1.387 . S
H220 C227 0.950 . S
C221 C219 1.387 . S
C221 C223 1.390 . S
C221 H225 0.950 . S
H222 C218 0.950 . S
C223 C221 1.390 . S
C223 C224 1.387 . S
C223 H226 0.950 . S
C224 C223 1.387 . S
C224 C227 1.387 . S
H225 C221 0.950 . S
H226 C223 0.950 . S
C227 C218 1.390 . S
C227 H220 0.950 . S
C227 C224 1.387 . S
C228 C229 1.387 . S
C228 H232 0.950 . S
C228 C237 1.390 . S
C229 C228 1.387 . S
C229 C231 1.387 . S
H230 C237 0.950 . S
C231 C229 1.387 . S
C231 C233 1.390 . S
C231 H235 0.950 . S
H232 C228 0.950 . S
C233 C231 1.390 . S
C233 C234 1.387 . S
C233 H236 0.950 . S
C234 C233 1.387 . S
C234 C237 1.387 . S
H235 C231 0.950 . S
H236 C233 0.950 . S
C237 C228 1.390 . S
C237 H230 0.950 . S
C237 C234 1.387 . S
C238 C239 1.387 . S
C238 H242 0.950 . S
C238 C247 1.390 . S
C239 C238 1.387 . S
C239 C241 1.387 . S
H240 C247 0.950 . S
C241 C239 1.387 . S
C241 C243 1.390 . S
C241 H245 0.950 . S
H242 C238 0.950 . S
C243 C241 1.390 . S
C243 C244 1.387 . S
C243 H246 0.950 . S
C244 C243 1.387 . S
C244 C247 1.387 . S
H245 C241 0.950 . S
H246 C243 0.950 . S
C247 C238 1.390 . S
C247 H240 0.950 . S
C247 C244 1.387 . S
C248 C249 1.387 . S
C248 H252 0.950 . S
C248 C257 1.390 . S
C249 C248 1.387 . S
C249 C251 1.387 . S
H250 C257 0.950 . S
C251 C249 1.387 . S
C251 C253 1.390 . S
C251 H255 0.950 . S
H252 C248 0.950 . S
C253 C251 1.390 . S
C253 C254 1.387 . S
C253 H256 0.950 . S
C254 C253 1.387 . S
C254 C257 1.387 . S
H255 C251 0.950 . S
H256 C253 0.950 . S
C257 C248 1.390 . S
C257 H250 0.950 . S
C257 C254 1.387 . S
C258 C259 1.387 . S
C258 H262 0.950 . S
C258 C267 1.390 . S
C259 C258 1.387 . S
C259 C261 1.387 . S
H260 C267 0.950 . S
C261 C259 1.387 . S
C261 C263 1.390 . S
C261 H265 0.950 . S
H262 C258 0.950 . S
C263 C261 1.390 . S
C263 C264 1.387 . S
C263 H266 0.950 . S
C264 C263 1.387 . S
C264 C267 1.387 . S
H265 C261 0.950 . S
H266 C263 0.950 . S
C267 C258 1.390 . S
C267 H260 0.950 . S
C267 C264 1.387 . S
C268 C269 1.387 . S
C268 H272 0.950 . S
C268 C277 1.390 . S
C269 C268 1.387 . S
C269 C271 1.387 . S
H270 C277 0.950 . S
C271 C269 1.387 . S
C271 C273 1.390 . S
C271 H275 0.950 . S
H272 C268 0.950 . S
C273 C271 1.390 . S
C273 C274 1.387 . S
C273 H276 0.950 . S
C274 C273 1.387 . S
C274 C277 1.387 . S
H275 C271 0.950 . S
H276 C273 0.950 . S
C277 C268 1.390 . S
C277 H270 0.950 . S
C277 C274 1.387 . S
C278 C279 1.387 . S
C278 H282 0.950 . S
C278 C287 1.390 . S
C279 C278 1.387 . S
C279 C281 1.387 . S
H280 C287 0.950 . S
C281 C279 1.387 . S
C281 C283 1.390 . S
C281 H285 0.950 . S
H282 C278 0.950 . S
C283 C281 1.390 . S
C283 C284 1.387 . S
C283 H286 0.950 . S
C284 C283 1.387 . S
C284 C287 1.387 . S
H285 C281 0.950 . S
H286 C283 0.950 . S
C287 C278 1.390 . S
C287 H280 0.950 . S
C287 C284 1.387 . S
C288 C289 1.387 . S
C288 H292 0.950 . S
C288 C297 1.390 . S
C289 C288 1.387 . S
C289 C291 1.387 . S
H290 C297 0.950 . S
C291 C289 1.387 . S
C291 C293 1.390 . S
C291 H295 0.950 . S
H292 C288 0.950 . S
C293 C291 1.390 . S
C293 C294 1.387 . S
C293 H296 0.950 . S
C294 C293 1.387 . S
C294 C297 1.387 . S
H295 C291 0.950 . S
H296 C293 0.950 . S
C297 C288 1.390 . S
C297 H290 0.950 . S
C297 C294 1.387 . S
C298 C299 1.387 . S
C298 H302 0.950 . S
C298 C307 1.390 . S
C299 C298 1.387 . S
C299 C301 1.387 . S
H300 C307 0.950 . S
C301 C299 1.387 . S
C301 C303 1.390 . S
C301 H305 0.950 . S
H302 C298 0.950 . S
C303 C301 1.390 . S
C303 C304 1.387 . S
C303 H306 0.950 . S
C304 C303 1.387 . S
C304 C307 1.387 . S
H305 C301 0.950 . S
H306 C303 0.950 . S
C307 C298 1.390 . S
C307 H300 0.950 . S
C307 C304 1.387 . S
C308 C309 1.387 . S
C308 H312 0.950 . S
C308 C317 1.390 . S
C309 C308 1.387 . S
C309 C311 1.387 . S
H310 C317 0.950 . S
C311 C309 1.387 . S
C311 C313 1.390 . S
C311 H315 0.950 . S
H312 C308 0.950 . S
C313 C311 1.390 . S
C313 C314 1.387 . S
C313 H316 0.950 1_545 S
C314 C313 1.387 . S
C314 C317 1.387 . S
H315 C311 0.950 . S
H316 C313 0.950 1_565 S
C317 C308 1.390 . S
C317 H310 0.950 . S
C317 C314 1.387 . S
C318 C319 1.387 . S
C318 H322 0.950 1_455 S
C318 C327 1.390 1_554 S
C319 C318 1.387 . S
C319 C321 1.387 . S
H320 C327 0.950 . S
C321 C319 1.387 . S
C321 C323 1.390 1_554 S
C321 H325 0.950 . S
H322 C318 0.950 1_655 S
C323 C321 1.390 1_556 S
C323 C324 1.387 . S
C323 H326 0.950 . S
C324 C323 1.387 . S
C324 C327 1.387 . S
H325 C321 0.950 . S
H326 C323 0.950 . S
C327 C318 1.390 1_556 S
C327 H320 0.950 . S
C327 C324 1.387 . S
C328 C329 1.387 1_565 S
C328 H332 0.950 . S
C328 C337 1.390 . S
C329 C328 1.387 1_545 S
C329 C331 1.387 . S
H330 C337 0.950 . S
C331 C329 1.387 . S
C331 C333 1.390 . S
C331 H335 0.950 . S
H332 C328 0.950 . S
C333 C331 1.390 . S
C333 C334 1.387 . S
C333 H336 0.950 . S
C334 C333 1.387 . S
C334 C337 1.387 1_545 S
H335 C331 0.950 . S
H336 C333 0.950 . S
C337 C328 1.390 . S
C337 H330 0.950 . S
C337 C334 1.387 1_565 S
C338 C339 1.387 . S
C338 H342 0.950 . S
C338 C347 1.390 . S
C339 C338 1.387 . S
C339 C341 1.387 . S
H340 C347 0.950 . S
C341 C339 1.387 . S
C341 C343 1.390 . S
C341 H345 0.950 . S
H342 C338 0.950 . S
C343 C341 1.390 . S
C343 C344 1.387 . S
C343 H346 0.950 . S
C344 C343 1.387 . S
C344 C347 1.387 . S
H345 C341 0.950 . S
H346 C343 0.950 . S
C347 C338 1.390 . S
C347 H340 0.950 . S
C347 C344 1.387 . S
C348 C349 1.387 . S
C348 H352 0.950 . S
C348 C357 1.390 . S
C349 C348 1.387 . S
C349 C351 1.387 1_545 S
H350 C357 0.950 . S
C351 C349 1.387 1_565 S
C351 C353 1.390 . S
C351 H355 0.950 . S
H352 C348 0.950 . S
C353 C351 1.390 . S
C353 C354 1.387 1_565 S
C353 H356 0.950 . S
C354 C353 1.387 1_545 S
C354 C357 1.387 . S
H355 C351 0.950 . S
H356 C353 0.950 . S
C357 C348 1.390 . S
C357 H350 0.950 . S
C357 C354 1.387 . S
C358 C359 1.387 . S
C358 H362 0.950 . S
C358 C367 1.390 1_556 S
C359 C358 1.387 . S
C359 C361 1.387 . S
H360 C367 0.950 . S
C361 C359 1.387 . S
C361 C363 1.390 1_556 S
C361 H365 0.950 . S
H362 C358 0.950 . S
C363 C361 1.390 1_554 S
C363 C364 1.387 . S
C363 H366 0.950 . S
C364 C363 1.387 . S
C364 C367 1.387 . S
H365 C361 0.950 . S
H366 C363 0.950 . S
C367 C358 1.390 1_554 S
C367 H360 0.950 . S
C367 C364 1.387 . S
C368 C369 1.387 . S
C368 H372 0.950 . S
C368 C377 1.390 . S
C369 C368 1.387 . S
C369 C371 1.387 . S
H370 C377 0.950 . S
C371 C369 1.387 . S
C371 C373 1.390 . S
C371 H375 0.950 . S
H372 C368 0.950 . S
C373 C371 1.390 . S
C373 C374 1.387 . S
C373 H376 0.950 . S
C374 C373 1.387 . S
C374 C377 1.387 . S
H375 C371 0.950 . S
H376 C373 0.950 . S
C377 C368 1.390 . S
C377 H370 0.950 . S
C377 C374 1.387 . S
C199 C12 2.830 . S
C204 N187 2.777 . S
C209 C52 2.954 . S
C214 N160 2.957 1_655 S
C219 C111 2.980 . S
C224 N173 2.984 1_565 S
C229 C31 3.314 . S
C234 N186 3.328 . S
C244 N161 3.117 . S
C239 C71 3.153 . S
C254 N174 3.096 . S
C249 C92 3.128 . S
C259 C48 0.619 . S
C264 N134 0.597 . S
C269 C109 0.721 . S
C274 N148 0.684 . S
C279 C29 0.917 . S
C284 N122 1.040 . S
C294 N135 0.897 . S
C289 C69 0.826 . S
C304 N147 0.788 . S
C299 C88 0.786 . S
C309 C8 0.665 . S
C314 N121 0.677 . S
C324 N151 1.091 . S
C319 C17 1.124 1_455 S
C329 C57 1.194 . S
C334 N125 1.168 . S
C339 C97 1.067 . S
C344 N138 1.087 . S
C354 N177 1.861 . S
C349 C42 1.748 . S
C364 N190 1.777 . S
C359 C82 1.756 . S
C369 C2 1.731 . S
C374 N164 1.814 . S
