# Generated by pormake.
# Topology pyr, (3,6)-cn, num edge types: 1
# Building blocks:
#     Node 0, Type 0, BuildingBlock: PAMTOO_clean_linker_0, # of connection points: 3
#     Node 1, Type 0, BuildingBlock: PAMTOO_clean_linker_0, # of connection points: 3
#     Node 2, Type 0, BuildingBlock: PAMTOO_clean_linker_0, # of connection points: 3
#     Node 3, Type 0, BuildingBlock: PAMTOO_clean_linker_0, # of connection points: 3
#     Node 4, Type 0, BuildingBlock: PAMTOO_clean_linker_0, # of connection points: 3
#     Node 5, Type 0, BuildingBlock: PAMTOO_clean_linker_0, # of connection points: 3
#     Node 6, Type 0, BuildingBlock: PAMTOO_clean_linker_0, # of connection points: 3
#     Node 7, Type 0, BuildingBlock: PAMTOO_clean_linker_0, # of connection points: 3
#     Node 8, Type 1, BuildingBlock: BETFEN_clean_sbu_0, # of connection points: 6
#     Node 9, Type 1, BuildingBlock: BETFEN_clean_sbu_0, # of connection points: 6
#     Node 10, Type 1, BuildingBlock: BETFEN_clean_sbu_0, # of connection points: 6
#     Node 11, Type 1, BuildingBlock: BETFEN_clean_sbu_0, # of connection points: 6
#     Edge 12, Type (0, 1), BuildingBlock: ZUJKAS_clean_linker_0, # of connection points: 2
#     Edge 13, Type (0, 1), BuildingBlock: ZUJKAS_clean_linker_0, # of connection points: 2
#     Edge 14, Type (0, 1), BuildingBlock: ZUJKAS_clean_linker_0, # of connection points: 2
#     Edge 15, Type (0, 1), BuildingBlock: ZUJKAS_clean_linker_0, # of connection points: 2
#     Edge 16, Type (0, 1), BuildingBlock: ZUJKAS_clean_linker_0, # of connection points: 2
#     Edge 17, Type (0, 1), BuildingBlock: ZUJKAS_clean_linker_0, # of connection points: 2
#     Edge 18, Type (0, 1), BuildingBlock: ZUJKAS_clean_linker_0, # of connection points: 2
#     Edge 19, Type (0, 1), BuildingBlock: ZUJKAS_clean_linker_0, # of connection points: 2
#     Edge 20, Type (0, 1), BuildingBlock: ZUJKAS_clean_linker_0, # of connection points: 2
#     Edge 21, Type (0, 1), BuildingBlock: ZUJKAS_clean_linker_0, # of connection points: 2
#     Edge 22, Type (0, 1), BuildingBlock: ZUJKAS_clean_linker_0, # of connection points: 2
#     Edge 23, Type (0, 1), BuildingBlock: ZUJKAS_clean_linker_0, # of connection points: 2
#     Edge 24, Type (0, 1), BuildingBlock: ZUJKAS_clean_linker_0, # of connection points: 2
#     Edge 25, Type (0, 1), BuildingBlock: ZUJKAS_clean_linker_0, # of connection points: 2
#     Edge 26, Type (0, 1), BuildingBlock: ZUJKAS_clean_linker_0, # of connection points: 2
#     Edge 27, Type (0, 1), BuildingBlock: ZUJKAS_clean_linker_0, # of connection points: 2
#     Edge 28, Type (0, 1), BuildingBlock: ZUJKAS_clean_linker_0, # of connection points: 2
#     Edge 29, Type (0, 1), BuildingBlock: ZUJKAS_clean_linker_0, # of connection points: 2
#     Edge 30, Type (0, 1), BuildingBlock: ZUJKAS_clean_linker_0, # of connection points: 2
#     Edge 31, Type (0, 1), BuildingBlock: ZUJKAS_clean_linker_0, # of connection points: 2
#     Edge 32, Type (0, 1), BuildingBlock: ZUJKAS_clean_linker_0, # of connection points: 2
#     Edge 33, Type (0, 1), BuildingBlock: ZUJKAS_clean_linker_0, # of connection points: 2
#     Edge 34, Type (0, 1), BuildingBlock: ZUJKAS_clean_linker_0, # of connection points: 2
#     Edge 35, Type (0, 1), BuildingBlock: ZUJKAS_clean_linker_0, # of connection points: 2
# Relax obj value: 0.146
# Max RMSD: 0.272
# Mean RMSD: 0.146
data_MOF--net-pyr--node1-BETFEN_clean_sbu_0--node2-PAMTOO_clean_linker_0--edge1-ZUJKAS_clean_linker_0
_symmetry_space_group_name_H-M    P1
_symmetry_Int_Tables_number       1
_symmetry_cell_setting            triclinic
loop_
_symmetry_equiv_pos_as_xyz
'x, y, z'
_cell_length_a     46.864542
_cell_length_b     51.515934
_cell_length_c     48.202145
_cell_angle_alpha  91.728044
_cell_angle_beta   100.00117
_cell_angle_gamma 110.68931
loop_
_atom_site_label
_atom_site_type_symbol
_atom_site_fract_x
_atom_site_fract_y
_atom_site_fract_z
_atom_type_partial_charge
H0 H 0.33979 0.31964 0.30218 0.0
H1 H 0.4259 0.32314 0.35374 0.0
H2 H 0.42313 0.34221 0.2675 0.0
H3 H 0.4597 0.30295 0.33358 0.0
C4 C 0.47126 0.31737 0.31874 0.0
O5 O 0.45858 0.33773 0.31409 0.0
H6 H 0.4959 0.32775 0.32974 0.0
C7 C 0.36435 0.32326 0.30453 0.0
C8 C 0.37937 0.33177 0.28171 0.0
C9 C 0.38072 0.31962 0.33047 0.0
C10 C 0.4127 0.32515 0.33365 0.0
C11 C 0.42776 0.33264 0.31079 0.0
C12 C 0.41112 0.3359 0.28486 0.0
H13 H 0.29274 0.86786 0.74103 0.0
H14 H 0.26402 0.81222 0.66452 0.0
H15 H 0.34443 0.81631 0.72506 0.0
H16 H 0.33827 0.82339 0.65651 0.0
C17 C 0.32532 0.80042 0.65478 0.0
O18 O 0.30894 0.79299 0.67632 0.0
H19 H 0.30859 0.79484 0.63419 0.0
C20 C 0.29591 0.85211 0.7278 0.0
C21 C 0.32098 0.84332 0.7366 0.0
C22 C 0.27532 0.8413 0.70174 0.0
C23 C 0.27962 0.82093 0.68467 0.0
C24 C 0.30442 0.81195 0.69326 0.0
C25 C 0.32497 0.82307 0.7191 0.0
H26 H 0.72068 0.30976 0.87774 0.0
H27 H 0.65225 0.28237 0.80027 0.0
H28 H 0.71618 0.36721 0.81563 0.0
H29 H 0.64022 0.34562 0.80005 0.0
C30 C 0.6417 0.33698 0.77907 0.0
O31 O 0.66846 0.33111 0.78074 0.0
H32 H 0.62115 0.31733 0.77275 0.0
C33 C 0.71027 0.31398 0.85732 0.0
C34 C 0.72179 0.34092 0.84871 0.0
C35 C 0.68521 0.2926 0.84011 0.0
C36 C 0.67173 0.29845 0.81386 0.0
C37 C 0.68281 0.32534 0.80524 0.0
C38 C 0.70795 0.34646 0.82247 0.0
H39 H 0.89075 0.70015 0.40537 0.0
H40 H 0.88105 0.63071 0.34777 0.0
H41 H 0.95276 0.71052 0.34683 0.0
H42 H 0.91718 0.67837 0.28992 0.0
C43 C 0.91542 0.65709 0.29538 0.0
O44 O 0.92782 0.65847 0.3239 0.0
H45 H 0.89041 0.64343 0.29108 0.0
C46 C 0.89866 0.69146 0.3888 0.0
C47 C 0.92393 0.70881 0.37787 0.0
C48 C 0.88294 0.6633 0.3783 0.0
C49 C 0.8926 0.65244 0.35598 0.0
C50 C 0.9177 0.66947 0.34452 0.0
C51 C 0.93316 0.69764 0.35542 0.0
H52 H 0.71052 0.7661 0.78485 0.0
H53 H 0.68352 0.70806 0.84661 0.0
H54 H 0.74984 0.70257 0.79799 0.0
H55 H 0.70058 0.65018 0.80746 0.0
C56 C 0.70654 0.65457 0.83095 0.0
O57 O 0.7212 0.68276 0.83896 0.0
H58 H 0.68456 0.64666 0.83912 0.0
C59 C 0.71107 0.74764 0.79479 0.0
C60 C 0.73117 0.73478 0.78787 0.0
C61 C 0.69391 0.73849 0.81616 0.0
C62 C 0.69627 0.71544 0.82992 0.0
C63 C 0.71636 0.70262 0.82329 0.0
C64 C 0.73385 0.71231 0.80244 0.0
H65 H 0.83161 0.18401 0.34795 0.0
H66 H 0.78564 0.24219 0.35586 0.0
H67 H 0.85667 0.24 0.42391 0.0
H68 H 0.8102 0.25369 0.44737 0.0
C69 C 0.79619 0.25488 0.42665 0.0
O70 O 0.81555 0.26258 0.40735 0.0
H71 H 0.77786 0.23383 0.41991 0.0
C72 C 0.82901 0.20089 0.35995 0.0
C73 C 0.84713 0.21063 0.38728 0.0
C74 C 0.80693 0.21226 0.34827 0.0
C75 C 0.8031 0.23366 0.36418 0.0
C76 C 0.82089 0.24338 0.39143 0.0
C77 C 0.8431 0.2322 0.40277 0.0
H78 H 0.40242 0.7572 0.20702 0.0
H79 H 0.41229 0.70657 0.27466 0.0
H80 H 0.48297 0.78683 0.27477 0.0
H81 H 0.51156 0.74821 0.3053 0.0
C82 C 0.48841 0.73103 0.30136 0.0
O83 O 0.4658 0.74236 0.3017 0.0
H84 H 0.48537 0.71973 0.28032 0.0
C85 C 0.41543 0.75441 0.22687 0.0
C86 C 0.44409 0.77525 0.23924 0.0
C87 C 0.40385 0.72954 0.23939 0.0
C88 C 0.42085 0.72573 0.26485 0.0
C89 C 0.4491 0.74656 0.27765 0.0
C90 C 0.46059 0.7713 0.26501 0.0
H91 H 0.16792 0.3384 0.77856 0.0
H92 H 0.23777 0.42089 0.78341 0.0
H93 H 0.23073 0.35796 0.71998 0.0
H94 H 0.29326 0.39272 0.75597 0.0
C95 C 0.29131 0.41292 0.75031 0.0
O96 O 0.26054 0.40953 0.74058 0.0
H97 H 0.30058 0.4276 0.76992 0.0
C98 C 0.18708 0.35317 0.77085 0.0
C99 C 0.19715 0.34466 0.74736 0.0
C100 C 0.20157 0.38069 0.78434 0.0
C101 C 0.22652 0.39954 0.7739 0.0
C102 C 0.23684 0.39122 0.75076 0.0
C103 C 0.22217 0.36401 0.73765 0.0
Pr104 Pr 0.03176 1.0159 0.5715 0.0
Pr105 Pr 0.08556 0.04036 0.54555 0.0
C106 C 0.97606 0.99005 0.58569 0.0
C107 C 0.95978 0.96597 0.60005 0.0
C108 C 0.94355 0.96997 0.6206 0.0
C109 C 0.9282 0.94779 0.635 0.0
C110 C 0.92864 0.92108 0.62902 0.0
C111 C 0.94472 0.91699 0.60824 0.0
C112 C 0.96035 0.93932 0.59395 0.0
C113 C 0.07328 0.06688 0.60065 0.0
C114 C 0.08957 0.99776 0.59535 0.0
C115 C 0.14178 0.06624 0.53236 0.0
C116 C 0.15927 0.09135 0.52021 0.0
C117 C 0.18346 0.09086 0.50706 0.0
C118 C 0.19978 0.11397 0.4943 0.0
C119 C 0.19218 0.13804 0.49449 0.0
C120 C 0.16816 0.13865 0.50812 0.0
C121 C 0.15168 0.11537 0.52079 0.0
C122 C 0.04432 0.98923 0.51656 0.0
C123 C 0.02753 0.05796 0.52132 0.0
O124 O 0.98206 0.98516 0.56096 0.0
O125 O 0.99861 1.0105 0.60171 0.0
O126 O 0.06462 0.06227 0.57407 0.0
O127 O 0.06106 0.04466 0.61292 0.0
O128 O 0.10526 0.01974 0.58357 0.0
O129 O 0.05904 0.9888 0.59096 0.0
O130 O 0.13582 0.06963 0.55744 0.0
O131 O 0.11856 0.04759 0.515 0.0
O132 O 0.05289 0.99403 0.54314 0.0
O133 O 0.05671 1.01132 0.50417 0.0
O134 O 1.01193 0.03588 0.53301 0.0
O135 O 0.0581 0.06732 0.5261 0.0
H136 H 0.94277 0.99034 0.62555 0.0
H137 H 0.91561 0.95149 0.65059 0.0
H138 H 0.94556 0.89664 0.60333 0.0
H139 H 0.97292 0.93576 0.57828 0.0
H140 H 0.18959 0.07247 0.50645 0.0
H141 H 0.21845 0.11303 0.48433 0.0
H142 H 0.16168 0.15684 0.50841 0.0
H143 H 0.13287 0.116 0.53074 0.0
Pr144 Pr 0.53554 0.03776 0.04739 0.0
Pr145 Pr 0.59226 0.03167 0.03086 0.0
C146 C 0.49206 0.0438 0.07426 0.0
C147 C 0.4889 0.06678 0.0906 0.0
C148 C 0.46331 0.06187 0.10369 0.0
C149 C 0.46006 0.08377 0.11906 0.0
C150 C 0.48236 0.11099 0.12152 0.0
C151 C 0.50806 0.11571 0.10833 0.0
C152 C 0.51132 0.09378 0.09305 0.0
C153 C 0.55937 0.07291 1.00735 0.0
C154 C 0.60649 0.07556 0.08473 0.0
C155 C 0.6341 0.02486 1.00249 0.0
C156 C 0.63342 1.00108 0.9845 0.0
C157 C 0.61124 0.97448 0.98525 0.0
C158 C 0.6102 0.95176 0.96805 0.0
C159 C 0.63115 0.9553 0.9496 0.0
C160 C 0.65301 0.9821 0.94855 0.0
C161 C 0.65416 1.00484 0.96595 0.0
C162 C 0.56908 0.99704 0.07142 0.0
C163 C 0.52157 0.99271 0.9942 0.0
O164 O 0.51348 0.03458 0.08601 0.0
O165 O 0.49147 0.04637 0.0473 0.0
O166 O 0.57539 0.06814 0.02894 0.0
O167 O 0.52983 0.06061 1.00656 0.0
O168 O 0.61821 0.07093 0.06298 0.0
O169 O 0.57666 0.06282 0.08511 0.0
O170 O 0.61447 0.03662 0.99227 0.0
O171 O 0.63502 0.02136 0.02936 0.0
O172 O 0.55262 1.00124 0.04969 0.0
O173 O 0.59857 1.00982 0.07209 0.0
O174 O 0.50956 0.9983 1.01535 0.0
O175 O 0.55138 1.00522 0.99388 0.0
H176 H 0.44587 0.04109 0.10206 0.0
H177 H 0.44027 0.07929 0.12931 0.0
H178 H 0.52548 0.13642 0.1095 0.0
H179 H 0.53124 0.09789 0.083 0.0
H180 H 0.59471 0.97131 0.99918 0.0
H181 H 0.59285 0.93145 0.96902 0.0
H182 H 0.66957 0.98538 0.93467 0.0
H183 H 0.67124 0.0253 0.96498 0.0
Pr184 Pr 0.57475 0.56686 0.55331 0.0
Pr185 Pr 0.55378 0.50317 0.52218 0.0
C186 C 0.57454 0.61839 0.56339 0.0
C187 C 0.56177 0.63286 0.58173 0.0
C188 C 0.56996 0.66179 0.58211 0.0
C189 C 0.55439 0.67529 0.5959 0.0
C190 C 0.53021 0.65997 0.60934 0.0
C191 C 0.52307 0.6311 0.60997 0.0
C192 C 0.53878 0.61767 0.59632 0.0
C193 C 0.59727 0.53318 0.58848 0.0
C194 C 0.51249 0.51449 0.56711 0.0
C195 C 0.54988 0.45307 0.50033 0.0
C196 C 0.57144 0.44017 0.49345 0.0
C197 C 0.55976 0.41452 0.47685 0.0
C198 C 0.58007 0.40231 0.46953 0.0
C199 C 0.61245 0.4156 0.4787 0.0
C200 C 0.62403 0.44137 0.49544 0.0
C201 C 0.60367 0.45357 0.50272 0.0
C202 C 0.52761 0.53894 0.49557 0.0
C203 C 0.62142 0.55339 0.51528 0.0
O204 O 0.55371 0.59941 0.54427 0.0
O205 O 0.59745 0.6109 0.57533 0.0
O206 O 0.58141 0.52698 0.56382 0.0
O207 O 0.60262 0.55913 0.59654 0.0
O208 O 0.52021 0.49555 0.55424 0.0
O209 O 0.52694 0.54174 0.56652 0.0
O210 O 0.55132 0.459 0.52729 0.0
O211 O 0.54693 0.47267 0.48471 0.0
O212 O 0.55534 0.54531 0.50824 0.0
O213 O 0.51198 0.51234 0.49507 0.0
O214 O 0.61371 0.57304 0.52685 0.0
O215 O 0.60464 0.52636 0.51419 0.0
H216 H 0.58748 0.67379 0.57075 0.0
H217 H 0.56022 0.69748 0.59477 0.0
H218 H 0.50481 0.6188 0.62042 0.0
H219 H 0.53216 0.59527 0.59619 0.0
H220 H 0.53492 0.40395 0.46951 0.0
H221 H 0.57038 0.38228 0.45698 0.0
H222 H 0.64883 0.45227 0.50258 0.0
H223 H 0.61306 0.47351 0.51545 0.0
Pr224 Pr 0.06363 0.53445 0.03112 0.0
Pr225 Pr 0.06795 0.49029 0.06943 0.0
C226 C 0.04705 0.5699 0.99779 0.0
C227 C 1.01857 0.57527 0.98738 0.0
C228 C 0.02016 0.59827 0.97218 0.0
C229 C 0.99299 0.60262 0.9605 0.0
C230 C 0.96374 0.58394 0.96377 0.0
C231 C 0.96236 0.56117 0.97961 0.0
C232 C 0.9896 0.55688 0.99134 0.0
C233 C 0.12305 0.54679 0.06378 0.0
C234 C 0.03904 0.53369 0.09239 0.0
C235 C 0.08354 0.45396 0.10212 0.0
C236 C 0.10771 0.44176 0.10745 0.0
C237 C 0.10108 0.41616 0.11897 0.0
C238 C 0.12435 0.40515 0.12622 0.0
C239 C 0.15478 0.41965 0.12219 0.0
C240 C 0.16103 0.44488 0.10963 0.0
C241 C 0.13766 0.45584 0.10228 0.0
C242 C 1.00853 0.47914 0.0373 0.0
C243 C 0.09072 0.49 1.00753 0.0
O244 O 0.04725 0.54602 0.98815 0.0
O245 O 0.05894 0.57632 1.0248 0.0
O246 O 0.09797 0.53672 0.07251 0.0
O247 O 0.1181 0.55214 0.03765 0.0
O248 O 0.05475 0.51759 0.10074 0.0
O249 O 0.03493 0.53933 0.06568 0.0
O250 O 0.09226 0.48055 0.11012 0.0
O251 O 0.06416 0.4462 0.07776 0.0
O252 O 0.03353 0.48844 0.02838 0.0
O253 O 1.01336 0.47363 0.06342 0.0
O254 O 0.07472 0.5059 0.99957 0.0
O255 O 0.09565 0.48466 0.03426 0.0
H256 H 0.04238 0.61267 0.96902 0.0
H257 H 0.99488 0.62063 0.94887 0.0
H258 H 0.94022 0.54633 0.98235 0.0
H259 H 0.98805 0.53896 1.00306 0.0
H260 H 0.07801 0.40493 0.12289 0.0
H261 H 0.11861 0.38544 0.13537 0.0
H262 H 0.18424 0.45668 0.10644 0.0
H263 H 0.14315 0.47561 0.09324 0.0
H264 H 0.3364 0.3351 0.34905 0.0
H265 H 0.30437 0.31291 0.38305 0.0
H266 H 0.35458 0.25713 0.39748 0.0
H267 H 0.38656 0.27913 0.36362 0.0
H268 H 0.26587 0.25889 0.37665 0.0
H269 H 0.35052 0.27954 0.47754 0.0
H270 H 0.35934 0.2988 0.44745 0.0
H271 H 0.36292 0.2652 0.44958 0.0
C272 C 0.34083 0.31832 0.35975 0.0
C273 C 0.36395 0.3088 0.35361 0.0
C274 C 0.32264 0.30577 0.37925 0.0
C275 C 0.32735 0.28362 0.39308 0.0
C276 C 0.35106 0.27467 0.38764 0.0
H277 H 0.20698 0.13665 0.44244 0.0
H278 H 0.23754 0.17558 0.41949 0.0
C279 C 0.36929 0.28723 0.36822 0.0
C280 C 0.30546 0.26775 0.41073 0.0
H281 H 0.30274 0.23953 0.47382 0.0
C282 C 0.27384 0.25511 0.3981 0.0
C283 C 0.31572 0.26316 0.43888 0.0
C284 C 0.34894 0.27765 0.45425 0.0
C285 C 0.25263 0.23654 0.41219 0.0
C286 C 0.26345 0.23014 0.43939 0.0
C287 C 0.29459 0.2442 0.45279 0.0
C288 C 0.2436 0.20707 0.45304 0.0
C289 C 0.21896 0.22342 0.39753 0.0
C290 C 0.23725 0.21183 0.47974 0.0
C291 C 0.21988 0.1895 0.49304 0.0
C292 C 0.20905 0.16207 0.47999 0.0
C293 C 0.21527 0.15751 0.45315 0.0
C294 C 0.23243 0.17976 0.43986 0.0
H295 H 0.2126 0.23669 0.3817 0.0
H296 H 0.21508 0.20304 0.38615 0.0
H297 H 0.20324 0.21976 0.41297 0.0
H298 H 0.24592 0.23276 0.49034 0.0
H299 H 0.21566 0.19359 0.51383 0.0
H300 H 0.3445 0.89807 0.75825 0.0
H301 H 0.38001 0.91883 0.80304 0.0
H302 H 0.38528 0.83882 0.82036 0.0
H303 H 0.3483 0.81745 0.77604 0.0
H304 H 0.37814 0.86555 0.86645 0.0
H305 H 0.47267 0.93757 0.82059 0.0
H306 H 0.43647 0.9421 0.8086 0.0
H307 H 0.44034 0.90952 0.79936 0.0
C308 C 0.35291 0.88476 0.77166 0.0
C309 C 0.34343 0.85604 0.76356 0.0
C310 C 0.37362 0.89678 0.7971 0.0
C311 C 0.38578 0.88049 0.81478 0.0
C312 C 0.37636 0.85181 0.80689 0.0
H313 H 0.53985 0.96598 0.95505 0.0
H314 H 0.5073 0.93504 0.91317 0.0
C315 C 0.35542 0.83968 0.78147 0.0
C316 C 0.40758 0.89345 0.84187 0.0
H317 H 0.47456 0.94791 0.8699 0.0
C318 C 0.39944 0.88335 0.86724 0.0
C319 C 0.43566 0.91631 0.84286 0.0
C320 C 0.44698 0.92681 0.81637 0.0
C321 C 0.41799 0.89627 0.89363 0.0
C322 C 0.44494 0.92034 0.89462 0.0
C323 C 0.45369 0.92969 0.8692 0.0
C324 C 0.46406 0.93672 0.92161 0.0
C325 C 0.40857 0.88388 0.9201 0.0
C326 C 0.45059 0.94779 0.94048 0.0
C327 C 0.46912 0.96524 0.96468 0.0
C328 C 0.50154 0.97239 0.97008 0.0
C329 C 0.51494 0.96099 0.95138 0.0
C330 C 0.49637 0.94326 0.92745 0.0
H331 H 0.39448 0.86122 0.91574 0.0
H332 H 0.42919 0.88684 0.93695 0.0
H333 H 0.39406 0.89423 0.92812 0.0
H334 H 0.42585 0.9437 0.93606 0.0
H335 H 0.45818 0.97391 0.97856 0.0
H336 H 0.65876 0.39358 0.78852 0.0
H337 H 0.65485 0.42653 0.75368 0.0
H338 H 0.62082 0.35932 0.6866 0.0
H339 H 0.62413 0.32625 0.72155 0.0
H340 H 0.68151 0.44038 0.70607 0.0
H341 H 0.55258 0.39235 0.67639 0.0
H342 H 0.57449 0.38421 0.70726 0.0
H343 H 0.57245 0.36873 0.67269 0.0
C344 C 0.65038 0.38593 0.76633 0.0
C345 C 0.64093 0.35739 0.75764 0.0
C346 C 0.64828 0.40471 0.74648 0.0
C347 C 0.6369 0.39523 0.71766 0.0
C348 C 0.62891 0.36691 0.70882 0.0
H349 H 0.59163 0.48019 0.57261 0.0
H350 H 0.60378 0.44666 0.60293 0.0
C351 C 0.63089 0.34811 0.72869 0.0
C352 C 0.63272 0.41494 0.69703 0.0
H353 H 0.57749 0.42906 0.65061 0.0
C354 C 0.65879 0.43792 0.69389 0.0
C355 C 0.60302 0.41165 0.68124 0.0
C356 C 0.57396 0.38806 0.68466 0.0
C357 C 0.65597 0.45768 0.67524 0.0
C358 C 0.62625 0.45449 0.65967 0.0
C359 C 0.60026 0.43134 0.66254 0.0
C360 C 0.62124 0.47539 0.64098 0.0
C361 C 0.6848 0.48167 0.67216 0.0
C362 C 0.62709 0.5026 0.65234 0.0
C363 C 0.61996 0.52165 0.63507 0.0
C364 C 0.60667 0.51369 0.60625 0.0
C365 C 0.60145 0.48666 0.59481 0.0
C366 C 0.60852 0.46759 0.61207 0.0
H367 H 0.70626 0.47721 0.67959 0.0
H368 H 0.68385 0.48645 0.64978 0.0
H369 H 0.68643 0.5005 0.6851 0.0
H370 H 0.63636 0.50885 0.67472 0.0
H371 H 0.62415 0.54238 0.64442 0.0
H372 H 0.92726 0.6717 0.24331 0.0
H373 H 0.9486 0.65018 0.21031 0.0
H374 H 0.96095 0.59357 0.27129 0.0
H375 H 0.93864 0.61461 0.30408 0.0
H376 H 1.00382 0.64535 0.21251 0.0
H377 H 0.91393 0.53929 0.20302 0.0
H378 H 0.91025 0.56912 0.22039 0.0
H379 H 0.93429 0.55194 0.2387 0.0
C380 C 0.93484 0.65485 0.24982 0.0
C381 C 0.93184 0.64529 0.2766 0.0
C382 C 0.94697 0.64247 0.23087 0.0
C383 C 0.9561 0.6199 0.23797 0.0
C384 C 0.95353 0.61053 0.26491 0.0
H385 H 0.03772 0.52255 0.14764 0.0
H386 H 1.01797 0.54342 0.18264 0.0
C387 C 0.94118 0.62284 0.28386 0.0
C388 C 0.96825 0.60645 0.21708 0.0
H389 H 0.9566 0.5442 0.18067 0.0
C390 C 0.99337 0.62324 0.20553 0.0
C391 C 0.95472 0.57755 0.20774 0.0
C392 C 0.92662 0.55845 0.21786 0.0
C393 C 1.00544 0.61201 0.18536 0.0
C394 C 0.99193 0.58316 0.17609 0.0
C395 C 0.96701 0.5663 0.18774 0.0
C396 C 1.00339 0.57014 0.15437 0.0
C397 C 0.03294 0.63107 0.17443 0.0
C398 C 1.00137 0.57779 0.12653 0.0
C399 C 1.0125 0.56574 0.10633 0.0
C400 C 0.02602 0.54577 0.11348 0.0
C401 C 0.0276 0.5379 0.14129 0.0
C402 C 1.01627 0.54981 0.1614 0.0
H403 H 0.04505 0.651 0.18822 0.0
H404 H 0.04991 0.62081 0.17283 0.0
H405 H 0.02477 0.63602 0.15295 0.0
H406 H 0.99109 0.59308 0.12039 0.0
H407 H 1.01077 0.57231 0.08517 0.0
H408 H 0.51869 0.31795 0.29226 0.0
H409 H 0.51662 0.28566 0.25313 0.0
H410 H 0.41712 0.24702 0.24517 0.0
H411 H 0.41941 0.27856 0.28527 0.0
H412 H 0.44318 0.20931 0.24875 0.0
H413 H 0.49047 0.27841 0.16908 0.0
H414 H 0.5164 0.28835 0.20284 0.0
H415 H 0.47844 0.29066 0.19889 0.0
C416 C 0.49631 0.30295 0.28174 0.0
C417 C 0.46918 0.30079 0.29166 0.0
C418 C 0.4951 0.28463 0.25921 0.0
C419 C 0.46664 0.26415 0.24584 0.0
C420 C 0.43931 0.26276 0.25501 0.0
H421 H 0.42902 0.12115 0.12326 0.0
H422 H 0.42336 0.15851 0.1518 0.0
C423 C 0.44058 0.28088 0.27778 0.0
C424 C 0.46599 0.24229 0.22465 0.0
H425 H 0.49167 0.23203 0.16457 0.0
C426 C 0.4533 0.21428 0.23008 0.0
C427 C 0.47929 0.24874 0.20032 0.0
C428 C 0.49161 0.27817 0.19229 0.0
C429 C 0.45457 0.1927 0.21248 0.0
C430 C 0.46882 0.19928 0.18878 0.0
C431 C 0.48091 0.22714 0.1829 0.0
C432 C 0.47231 0.17746 0.1705 0.0
C433 C 0.44165 0.16307 0.21985 0.0
C434 C 0.50178 0.17607 0.17135 0.0
C435 C 0.50509 0.15462 0.15533 0.0
C436 C 0.47897 0.13426 0.13798 0.0
C437 C 0.44953 0.13615 0.13678 0.0
C438 C 0.44626 0.15756 0.15291 0.0
H439 H 0.43566 0.16195 0.24121 0.0
H440 H 0.42024 0.15118 0.20409 0.0
H441 H 0.45868 0.15271 0.21906 0.0
H442 H 0.52214 0.19124 0.18491 0.0
H443 H 0.52802 0.15363 0.15705 0.0
H444 H 0.2364 0.85296 0.7323 0.0
H445 H 0.19971 0.87621 0.71716 0.0
H446 H 0.22237 0.87915 0.63405 0.0
H447 H 0.2591 0.85603 0.64902 0.0
H448 H 0.21454 0.92848 0.699 0.0
H449 H 0.12766 0.85017 0.61581 0.0
H450 H 0.15545 0.84181 0.64128 0.0
H451 H 0.16682 0.8586 0.61065 0.0
C452 C 0.23337 0.85836 0.71072 0.0
C453 C 0.25066 0.85265 0.69184 0.0
C454 C 0.21234 0.87155 0.70209 0.0
C455 C 0.20804 0.87911 0.67439 0.0
C456 C 0.22477 0.87291 0.65532 0.0
H457 H 0.15229 1.00953 0.60743 0.0
H458 H 0.17942 0.98048 0.62945 0.0
C459 C 0.24576 0.85969 0.66392 0.0
C460 C 0.1879 0.89533 0.66601 0.0
H461 H 0.12727 0.89658 0.61599 0.0
C462 C 0.19522 0.92136 0.68105 0.0
C463 C 0.16247 0.88588 0.64284 0.0
C464 C 0.1524 0.85746 0.62688 0.0
C465 C 0.17854 0.93868 0.67285 0.0
C466 C 0.15425 0.9299 0.6487 0.0
C467 C 0.14611 0.9034 0.63435 0.0
C468 C 0.13788 0.94833 0.6372 0.0
C469 C 0.18716 0.96625 0.69006 0.0
C470 C 0.10545 0.93979 0.63402 0.0
C471 C 0.0898 0.95632 0.62128 0.0
C472 C 0.10631 0.98158 0.6113 0.0
C473 C 0.13886 0.99028 0.615 0.0
C474 C 0.15446 0.97376 0.62773 0.0
H475 H 0.19924 0.96614 0.71202 0.0
H476 H 0.20322 0.98294 0.68007 0.0
H477 H 0.16627 0.97147 0.691 0.0
H478 H 0.09222 0.92016 0.64106 0.0
H479 H 0.06471 0.94894 0.61867 0.0
H480 H 0.7749 0.37673 0.83455 0.0
H481 H 0.82204 0.40745 0.86722 0.0
H482 H 0.77559 0.38502 0.93755 0.0
H483 H 0.72858 0.35438 0.90515 0.0
H484 H 0.83486 0.45324 0.91334 0.0
H485 H 0.85029 0.35686 0.95021 0.0
H486 H 0.82448 0.35665 0.91765 0.0
H487 H 0.81299 0.35899 0.95102 0.0
C488 C 0.77457 0.3789 0.8569 0.0
C489 C 0.74833 0.36287 0.86742 0.0
C490 C 0.80145 0.3964 0.87549 0.0
C491 C 0.80231 0.39811 0.90475 0.0
C492 C 0.77542 0.38366 0.91504 0.0
H493 H 0.952 0.45452 0.05171 0.0
H494 H 0.90086 0.43857 1.02011 0.0
C495 C 0.74868 0.36612 0.89656 0.0
C496 C 0.83204 0.41246 0.92481 0.0
H497 H 0.88565 0.3996 0.97427 0.0
C498 C 0.84606 0.44162 0.92669 0.0
C499 C 0.8465 0.39712 0.94207 0.0
C500 C 0.83302 0.36566 0.94009 0.0
C501 C 0.87411 0.45591 0.94589 0.0
C502 C 0.8885 0.44049 0.96317 0.0
C503 C 0.8744 0.41137 0.96117 0.0
C504 C 0.9188 0.45373 0.98285 0.0
C505 C 0.88782 0.48734 0.94793 0.0
C506 C 0.94573 0.46777 0.97241 0.0
C507 C 0.97491 0.47678 0.99037 0.0
C508 C 0.97759 0.4717 1.01902 0.0
C509 C 0.95056 0.45854 0.02968 0.0
C510 C 0.92139 0.44952 1.01169 0.0
H511 H 0.87019 0.49625 0.939 0.0
H512 H 0.89777 0.49627 0.97027 0.0
H513 H 0.90684 0.49389 0.93579 0.0
H514 H 0.94434 0.47073 0.95013 0.0
H515 H 0.99541 0.48701 0.98165 0.0
H516 H 0.88055 0.66101 0.43443 0.0
H517 H 0.83565 0.63747 0.45556 0.0
H518 H 0.7804 0.6024 0.37269 0.0
H519 H 0.82535 0.62663 0.35122 0.0
H520 H 0.75127 0.62699 0.40384 0.0
H521 H 0.79402 0.55663 0.46878 0.0
H522 H 0.82058 0.59216 0.47545 0.0
H523 H 0.81268 0.57367 0.44102 0.0
C524 C 0.85892 0.6481 0.42065 0.0
C525 C 0.85653 0.64584 0.39108 0.0
C526 C 0.8333 0.63439 0.43283 0.0
C527 C 0.80464 0.61784 0.41582 0.0
C528 C 0.80231 0.61492 0.3863 0.0
H529 H 0.64442 0.51987 0.48782 0.0
H530 H 0.68779 0.53426 0.46273 0.0
C531 C 0.82806 0.62862 0.37405 0.0
C532 C 0.77677 0.60541 0.42885 0.0
H533 H 0.75032 0.56517 0.4809 0.0
C534 C 0.75095 0.61322 0.42047 0.0
C535 C 0.77608 0.58719 0.45037 0.0
C536 C 0.8022 0.57668 0.45925 0.0
C537 C 0.72506 0.60418 0.43367 0.0
C538 C 0.72512 0.58721 0.45626 0.0
C539 C 0.7504 0.57852 0.46391 0.0
C540 C 0.69928 0.57849 0.47229 0.0
C541 C 0.69779 0.61281 0.42317 0.0
C542 C 0.69168 0.59851 0.48668 0.0
C543 C 0.66686 0.59038 0.50107 0.0
C544 C 0.64913 0.56198 0.50161 0.0
C545 C 0.6574 0.54193 0.48785 0.0
C546 C 0.68224 0.55012 0.47345 0.0
H547 H 0.69738 0.61865 0.40114 0.0
H548 H 0.67541 0.59582 0.42388 0.0
H549 H 0.69969 0.63126 0.43689 0.0
H550 H 0.70492 0.62052 0.48672 0.0
H551 H 0.6614 0.60645 0.51151 0.0
H552 H 0.39888 0.37681 0.25159 0.0
H553 H 0.36653 0.39196 0.21506 0.0
H554 H 0.28795 0.31708 0.2175 0.0
H555 H 0.32037 0.30131 0.25312 0.0
H556 H 0.28893 0.33496 0.16298 0.0
H557 H 0.30501 0.42068 0.2443 0.0
H558 H 0.33997 0.41956 0.23476 0.0
H559 H 0.31727 0.39189 0.25265 0.0
C560 C 0.37499 0.36315 0.24368 0.0
C561 C 0.36199 0.33812 0.25563 0.0
C562 C 0.35646 0.37196 0.223 0.0
C563 C 0.32467 0.35596 0.21414 0.0
C564 C 0.31237 0.32986 0.22424 0.0
H565 H 0.16459 0.39734 0.17191 0.0
H566 H 0.20718 0.38208 0.19054 0.0
C567 C 0.33086 0.32099 0.24476 0.0
C568 C 0.30329 0.36754 0.19715 0.0
H569 H 0.27073 0.41688 0.20151 0.0
C570 C 0.2852 0.3531 0.17114 0.0
C571 C 0.29822 0.391 0.20813 0.0
C572 C 0.3159 0.40662 0.23657 0.0
C573 C 0.26162 0.36113 0.15614 0.0
C574 C 0.2563 0.38429 0.16741 0.0
C575 C 0.27502 0.3992 0.19293 0.0
C576 C 0.22968 0.39201 0.15462 0.0
C577 C 0.24161 0.34406 0.1291 0.0
C578 C 0.22815 0.40255 0.12812 0.0
C579 C 0.20358 0.41115 0.11724 0.0
C580 C 0.1802 0.40936 0.13274 0.0
C581 C 0.18182 0.39854 0.15916 0.0
C582 C 0.20629 0.39 0.16996 0.0
H583 H 0.24561 0.32431 0.12558 0.0
H584 H 0.2166 0.33902 0.12942 0.0
H585 H 0.24702 0.35636 0.11091 0.0
H586 H 0.24622 0.4046 0.11612 0.0
H587 H 0.20291 0.41926 0.09677 0.0
H588 H 0.71709 0.26241 0.86761 0.0
H589 H 0.6959 0.22057 0.89144 0.0
H590 H 0.60296 0.21837 0.86055 0.0
H591 H 0.62394 0.26048 0.83705 0.0
H592 H 0.65978 0.22087 0.93365 0.0
H593 H 0.5959 0.13587 0.84696 0.0
H594 H 0.62631 0.1677 0.84198 0.0
H595 H 0.5882 0.16754 0.84329 0.0
C596 C 0.6921 0.25284 0.86562 0.0
C597 C 0.6722 0.26489 0.85066 0.0
C598 C 0.68006 0.22887 0.87909 0.0
C599 C 0.6479 0.21634 0.87758 0.0
C600 C 0.62782 0.22748 0.86154 0.0
H601 H 0.52814 0.09166 0.96441 0.0
H602 H 0.55054 0.12569 0.93226 0.0
C603 C 0.63986 0.25154 0.84812 0.0
C604 C 0.63572 0.19372 0.89542 0.0
H605 H 0.58758 0.12587 0.89336 0.0
C606 C 0.64422 0.2 0.92489 0.0
C607 C 0.6152 0.16671 0.88382 0.0
C608 C 0.60597 0.15885 0.85228 0.0
C609 C 0.6322 0.18013 0.94319 0.0
C610 C 0.61174 0.153 0.93166 0.0
C611 C 0.60336 0.14666 0.90213 0.0
C612 C 0.59826 0.13122 0.94999 0.0
C613 C 0.64073 0.1887 0.97466 0.0
C614 C 0.61765 0.12264 0.97019 0.0
C615 C 0.60495 0.10351 0.98875 0.0
C616 C 0.57263 0.09234 0.98712 0.0
C617 C 0.55316 0.10012 0.96622 0.0
C618 C 0.5659 0.11945 0.9478 0.0
H619 H 0.64955 0.21173 0.97942 0.0
H620 H 0.62043 0.17939 0.9849 0.0
H621 H 0.65939 0.1813 0.9843 0.0
H622 H 0.64264 0.13098 0.97178 0.0
H623 H 0.62045 0.09757 1.00445 0.0
H624 H 0.94137 0.72817 0.43394 0.0
H625 H 0.96262 0.77646 0.45499 0.0
H626 H 0.96571 0.80502 0.37201 0.0
H627 H 0.9435 0.75643 0.35061 0.0
H628 H 1.01727 0.81984 0.45381 0.0
H629 H 0.91582 0.84566 0.40376 0.0
H630 H 0.91476 0.8103 0.40374 0.0
H631 H 0.93397 0.8328 0.37949 0.0
C632 C 0.94647 0.74469 0.42008 0.0
C633 C 0.94027 0.73837 0.39051 0.0
C634 C 0.95878 0.77235 0.4322 0.0
C635 C 0.9652 0.79447 0.41512 0.0
C636 C 0.9603 0.78833 0.38563 0.0
H637 H 0.03175 0.97476 0.45952 0.0
H638 H 1.01282 0.92784 0.4347 0.0
C639 C 0.94796 0.76054 0.37343 0.0
C640 C 0.97669 0.82377 0.42846 0.0
H641 H 0.95799 0.88212 0.43201 0.0
C642 C 1.00432 0.83346 0.449 0.0
C643 C 0.95979 0.8416 0.42226 0.0
C644 C 0.9293 0.83209 0.4013 0.0
C645 C 1.01556 0.86039 0.46336 0.0
C646 C 0.99845 0.87808 0.45746 0.0
C647 C 0.97106 0.86857 0.43663 0.0
C648 C 1.00868 0.90651 0.47262 0.0
C649 C 0.04597 0.86982 0.48444 0.0
C650 C 1.01188 0.91022 0.50218 0.0
C651 C 0.02269 0.93705 0.51644 0.0
C652 C 0.03039 0.96074 0.5014 0.0
C653 C 0.02616 0.95696 0.47174 0.0
C654 C 1.01534 0.93013 0.4575 0.0
H655 H 0.06009 0.85708 0.48103 0.0
H656 H 0.05992 0.89206 0.48316 0.0
H657 H 0.04112 0.86758 0.50615 0.0
H658 H 1.0062 0.89233 0.51428 0.0
H659 H 0.02548 0.93926 0.53928 0.0
H660 H 0.31284 0.74708 0.63305 0.0
H661 H 0.34956 0.72308 0.63186 0.0
H662 H 0.42428 0.79567 0.67715 0.0
H663 H 0.38754 0.8197 0.67831 0.0
H664 H 0.43603 0.77497 0.62668 0.0
H665 H 0.39404 0.69093 0.69565 0.0
H666 H 0.3642 0.6938 0.66834 0.0
H667 H 0.38418 0.72181 0.69598 0.0
C668 C 0.33708 0.75775 0.64289 0.0
C669 C 0.34759 0.78532 0.65532 0.0
C670 C 0.35796 0.74401 0.64241 0.0
C671 C 0.38959 0.75755 0.65462 0.0
C672 C 0.39996 0.78487 0.66767 0.0
H673 H 0.54965 0.71051 0.64093 0.0
H674 H 0.51711 0.73477 0.65505 0.0
C675 C 0.37905 0.79857 0.66825 0.0
C676 C 0.41213 0.74388 0.65195 0.0
H677 H 0.42962 0.68638 0.66771 0.0
C678 C 0.43492 0.75578 0.63591 0.0
C679 C 0.41045 0.7188 0.66394 0.0
C680 C 0.38709 0.70566 0.68216 0.0
C681 C 0.45541 0.74273 0.63062 0.0
C682 C 0.45351 0.71741 0.6423 0.0
C683 C 0.43108 0.7058 0.65883 0.0
C684 C 0.47346 0.70193 0.63626 0.0
C685 C 0.47797 0.75557 0.61156 0.0
C686 C 0.45974 0.67495 0.62215 0.0
C687 C 0.47824 0.66097 0.61431 0.0
C688 C 0.51087 0.67371 0.62044 0.0
C689 C 0.52458 0.70033 0.63555 0.0
C690 C 0.50603 0.71423 0.64356 0.0
H691 H 0.47131 0.77096 0.59894 0.0
H692 H 0.50148 0.7666 0.6247 0.0
H693 H 0.47939 0.73931 0.59679 0.0
H694 H 0.43465 0.66504 0.61635 0.0
H695 H 0.46693 0.64062 0.60244 0.0
H696 H 0.79372 0.74671 0.79405 0.0
H697 H 0.82823 0.77342 0.76382 0.0
H698 H 0.74902 0.77715 0.70567 0.0
H699 H 0.7144 0.75063 0.73591 0.0
H700 H 0.83212 0.76764 0.70569 0.0
H701 H 0.80233 0.85923 0.73312 0.0
H702 H 0.79219 0.82836 0.75168 0.0
H703 H 0.76947 0.82866 0.71764 0.0
C704 C 0.7836 0.75266 0.77449 0.0
C705 C 0.75142 0.74687 0.76746 0.0
C706 C 0.80334 0.76797 0.75729 0.0
C707 C 0.79119 0.77767 0.73282 0.0
C708 C 0.75888 0.7703 0.72477 0.0
H709 H 0.88979 0.86828 0.60696 0.0
H710 H 0.85803 0.83158 0.63195 0.0
C711 C 0.73916 0.75516 0.74202 0.0
C712 C 0.81241 0.79742 0.71711 0.0
H713 H 0.83459 0.86435 0.69956 0.0
C714 C 0.83271 0.78879 0.70427 0.0
C715 C 0.81344 0.82512 0.71577 0.0
C716 C 0.79343 0.83606 0.73048 0.0
C717 C 0.85382 0.80714 0.6898 0.0
C718 C 0.85427 0.83463 0.68792 0.0
C719 C 0.83409 0.84322 0.70092 0.0
C720 C 0.87582 0.85528 0.67313 0.0
C721 C 0.87589 0.79719 0.67722 0.0
C722 C 0.89633 0.88073 0.68798 0.0
C723 C 0.91422 0.90172 0.67376 0.0
C724 C 0.91194 0.8977 0.64437 0.0
C725 C 0.89223 0.87184 0.62966 0.0
C726 C 0.87415 0.85084 0.64391 0.0
H727 H 0.87802 0.77833 0.68654 0.0
H728 H 0.86702 0.79177 0.6541 0.0
H729 H 0.89938 0.81376 0.68047 0.0
H730 H 0.89797 0.88458 0.71053 0.0
H731 H 0.9295 0.92131 0.6857 0.0
H732 H 0.79349 0.24105 0.30424 0.0
H733 H 0.76064 0.22175 0.25749 0.0
H734 H 0.74188 0.13848 0.28234 0.0
H735 H 0.77516 0.15763 0.32872 0.0
H736 H 0.75586 0.14228 0.2308 0.0
H737 H 0.66696 0.18922 0.23706 0.0
H738 H 0.7059 0.21425 0.24183 0.0
H739 H 0.69571 0.18957 0.26742 0.0
C740 C 0.78217 0.21864 0.2997 0.0
C741 C 0.78688 0.20082 0.32005 0.0
C742 C 0.76332 0.20765 0.27307 0.0
C743 C 0.74841 0.17868 0.26656 0.0
C744 C 0.75315 0.1609 0.28689 0.0
H745 H 0.59278 0.08285 0.13651 0.0
H746 H 0.62835 0.10993 0.17921 0.0
C747 C 0.77222 0.17184 0.31334 0.0
C748 C 0.7284 0.1666 0.23841 0.0
H749 H 0.66267 0.16462 0.1933 0.0
C750 C 0.73551 0.1472 0.22256 0.0
C751 C 0.7017 0.17286 0.22783 0.0
C752 C 0.69187 0.1924 0.2445 0.0
C753 C 0.71647 0.13359 0.19663 0.0
C754 C 0.69006 0.14019 0.18581 0.0
C755 C 0.68312 0.15982 0.20149 0.0
C756 C 0.66824 0.12559 0.15918 0.0
C757 C 0.72421 0.11149 0.18169 0.0
C758 C 0.67861 0.126 0.13351 0.0
C759 C 0.65839 0.11023 0.10907 0.0
C760 C 0.62729 0.09416 0.1098 0.0
C761 C 0.61661 0.09491 0.13522 0.0
C762 C 0.63691 0.11042 0.15967 0.0
H763 H 0.74015 0.10397 0.19618 0.0
H764 H 0.70283 0.09333 0.17253 0.0
H765 H 0.73598 0.12038 0.1642 0.0
H766 H 0.70248 0.13815 0.13247 0.0
H767 H 0.66725 0.11037 0.08975 0.0
H768 H 0.5312 0.73536 0.34973 0.0
H769 H 0.52923 0.70103 0.38416 0.0
H770 H 0.43917 0.64733 0.33737 0.0
H771 H 0.44159 0.68131 0.30241 0.0
H772 H 0.48753 0.67809 0.41884 0.0
H773 H 0.48866 0.59643 0.34129 0.0
H774 H 0.4969 0.6321 0.3336 0.0
H775 H 0.45743 0.60899 0.33188 0.0
C776 C 0.51102 0.71622 0.34686 0.0
C777 C 0.48664 0.71077 0.32337 0.0
C778 C 0.50984 0.69669 0.36653 0.0
C779 C 0.48427 0.67145 0.36307 0.0
C780 C 0.4594 0.66641 0.34012 0.0
H781 H 0.47013 0.52841 0.46261 0.0
H782 H 0.45419 0.56009 0.43178 0.0
C783 C 0.46068 0.68585 0.32031 0.0
C784 C 0.48424 0.65024 0.38316 0.0
H785 H 0.48645 0.58495 0.38791 0.0
C786 C 0.48704 0.65764 0.41206 0.0
C787 C 0.48347 0.62352 0.37423 0.0
C788 C 0.48171 0.61477 0.34362 0.0
C789 C 0.48986 0.63927 0.43235 0.0
C790 C 0.49012 0.61298 0.42349 0.0
C791 C 0.48604 0.60511 0.39454 0.0
C792 C 0.49814 0.59464 0.44396 0.0
C793 C 0.49309 0.6483 0.46316 0.0
C794 C 0.52807 0.60363 0.4608 0.0
C795 C 0.53725 0.58563 0.47805 0.0
C796 C 0.51661 0.5583 0.47891 0.0
C797 C 0.4864 0.54943 0.46246 0.0
C798 C 0.47729 0.56746 0.44492 0.0
H799 H 0.48359 0.66497 0.46574 0.0
H800 H 0.48099 0.63043 0.47445 0.0
H801 H 0.51811 0.65668 0.47334 0.0
H802 H 0.54474 0.6243 0.45985 0.0
H803 H 0.56086 0.59291 0.49013 0.0
H804 H 0.23685 0.41453 0.83262 0.0
H805 H 0.21906 0.43137 0.87182 0.0
H806 H 0.12379 0.38532 0.83136 0.0
H807 H 0.14141 0.36838 0.79202 0.0
H808 H 0.18419 0.46325 0.87186 0.0
H809 H 0.12349 0.36227 0.91082 0.0
H810 H 0.14915 0.36567 0.88609 0.0
H811 H 0.10974 0.36344 0.8739 0.0
C812 C 0.21208 0.40794 0.83198 0.0
C813 C 0.19062 0.39 0.809 0.0
C814 C 0.20192 0.41753 0.85455 0.0
C815 C 0.17004 0.40939 0.85493 0.0
C816 C 0.14853 0.39142 0.83207 0.0
H817 H 0.0845 0.49671 0.9509 0.0
H818 H 0.10437 0.47723 0.91519 0.0
C819 C 0.15868 0.38174 0.80949 0.0
C820 C 0.15941 0.42069 0.87858 0.0
H821 H 0.11486 0.4018 0.9292 0.0
C822 C 0.16915 0.44976 0.88445 0.0
C823 C 0.14013 0.40324 0.89544 0.0
C824 C 0.13025 0.37193 0.89149 0.0
C825 C 0.15963 0.46176 0.90608 0.0
C826 C 0.13929 0.44432 0.92214 0.0
C827 C 0.13017 0.41525 0.91678 0.0
C828 C 0.12689 0.45588 0.9442 0.0
C829 C 0.17185 0.49312 0.91175 0.0
C830 C 0.13207 0.44985 0.97251 0.0
C831 C 0.12053 0.46093 0.99315 0.0
C832 C 0.1033 0.47813 0.98591 0.0
C833 C 0.09784 0.48377 0.95745 0.0
C834 C 0.10937 0.47273 0.93691 0.0
H835 H 0.19371 0.50295 0.90378 0.0
H836 H 0.15432 0.50113 0.90068 0.0
H837 H 0.17634 0.49971 0.93473 0.0
H838 H 0.14534 0.43678 0.97871 0.0
H839 H 0.12511 0.45599 1.01476 0.0
H840 H 0.65845 0.76374 0.78446 0.0
H841 H 0.63874 0.79803 0.80191 0.0
H842 H 0.67112 0.78549 0.88788 0.0
H843 H 0.69176 0.75199 0.87087 0.0
H844 H 0.60317 0.7908 0.86686 0.0
H845 H 0.71095 0.87478 0.8497 0.0
H846 H 0.69034 0.84577 0.82303 0.0
H847 H 0.71046 0.84029 0.85614 0.0
C848 C 0.66108 0.76805 0.80709 0.0
C849 C 0.67692 0.75525 0.82626 0.0
C850 C 0.64964 0.78748 0.81696 0.0
C851 C 0.65364 0.79422 0.84611 0.0
C852 C 0.66772 0.78035 0.86528 0.0
H853 H 0.62766 0.90441 0.96635 0.0
H854 H 0.62907 0.86483 0.93822 0.0
C855 C 0.67934 0.76108 0.85548 0.0
C856 C 0.6462 0.81771 0.85681 0.0
H857 H 0.67752 0.88824 0.87269 0.0
C858 C 0.61915 0.81218 0.8679 0.0
C859 C 0.66706 0.84545 0.85784 0.0
C860 C 0.69643 0.8522 0.84613 0.0
C861 C 0.61272 0.83384 0.88062 0.0
C862 C 0.63443 0.86153 0.883 0.0
C863 C 0.66093 0.86704 0.87094 0.0
C864 C 0.63132 0.88489 0.89939 0.0
C865 C 0.58275 0.8268 0.89136 0.0
C866 C 0.63298 0.90967 0.88717 0.0
C867 C 0.63267 0.93251 0.90337 0.0
C868 C 0.63064 0.93094 0.93206 0.0
C869 C 0.62871 0.90605 0.94417 0.0
C870 C 0.62932 0.88334 0.92806 0.0
H871 H 0.56454 0.8076 0.87947 0.0
H872 H 0.58692 0.82287 0.91394 0.0
H873 H 0.57383 0.84412 0.88964 0.0
H874 H 0.63479 0.9114 0.86515 0.0
H875 H 0.63397 0.95138 0.89346 0.0
H876 H 0.88759 0.19479 0.36243 0.0
H877 H 0.92089 0.16997 0.383 0.0
H878 H 0.88889 0.17101 0.46152 0.0
H879 H 0.85551 0.19568 0.44115 0.0
H880 H 0.95321 0.18507 0.46881 0.0
H881 H 0.8887 0.08741 0.39741 0.0
H882 H 0.90245 0.11837 0.37977 0.0
H883 H 0.87333 0.11467 0.40075 0.0
C884 C 0.88759 0.18965 0.38405 0.0
C885 C 0.86882 0.19711 0.40012 0.0
C886 C 0.90659 0.17546 0.39575 0.0
C887 C 0.90697 0.16829 0.42363 0.0
C888 C 0.88889 0.17632 0.43994 0.0
H889 H 0.96471 0.04567 0.50892 0.0
H890 H 0.93701 0.07305 0.48407 0.0
C891 C 0.86995 0.19054 0.42831 0.0
C892 C 0.92593 0.15217 0.43586 0.0
H893 H 0.93398 0.08905 0.42914 0.0
C894 C 0.94913 0.16412 0.4601 0.0
C895 C 0.92024 0.12472 0.4246 0.0
C896 C 0.89467 0.11035 0.39935 0.0
C897 C 0.96679 0.14933 0.47348 0.0
C898 C 0.96139 0.12202 0.46199 0.0
C899 C 0.93824 0.11009 0.43771 0.0
C900 C 0.9784 0.10495 0.47576 0.0
C901 C 0.99038 0.16273 0.50027 0.0
C902 C 1.01081 0.1135 0.47877 0.0
C903 C 0.02678 0.09791 0.49304 0.0
C904 C 1.01055 0.07341 0.5044 0.0
C905 C 0.97796 0.06447 0.50052 0.0
C906 C 0.96206 0.08008 0.4863 0.0
H907 H 0.98666 0.18092 0.50974 0.0
H908 H 0.98944 0.14749 0.51623 0.0
H909 H 1.01406 0.17015 0.49535 0.0
H910 H 0.02379 0.13235 0.4703 0.0
H911 H 0.05186 0.10531 0.49551 0.0
H912 H 0.39523 0.67523 0.22572 0.0
H913 H 0.3491 0.63954 0.19647 0.0
H914 H 0.30114 0.6975 0.19174 0.0
H915 H 0.34756 0.73345 0.22003 0.0
H916 H 0.28977 0.61381 0.20078 0.0
H917 H 0.29434 0.67652 0.10941 0.0
H918 H 0.32536 0.68613 0.14012 0.0
H919 H 0.29142 0.69491 0.14031 0.0
C920 C 0.37468 0.68017 0.21861 0.0
C921 C 0.37492 0.70708 0.22478 0.0
C922 C 0.34841 0.65984 0.20189 0.0
C923 C 0.32198 0.6661 0.1913 0.0
C924 C 0.32163 0.69251 0.1989 0.0
H925 H 0.13508 0.55621 0.12125 0.0
H926 H 0.18518 0.58203 0.1521 0.0
C927 C 0.34802 0.71294 0.2152 0.0
C928 C 0.29506 0.64537 0.1717 0.0
H929 H 0.24718 0.6376 0.10763 0.0
C930 C 0.28059 0.61887 0.18028 0.0
C931 C 0.28364 0.65168 0.14461 0.0
C932 C 0.29972 0.67874 0.13294 0.0
C933 C 0.25423 0.59891 0.16294 0.0
C934 C 0.24147 0.60602 0.13675 0.0
C935 C 0.25668 0.63216 0.1278 0.0
C936 C 0.21171 0.58742 0.11868 0.0
C937 C 0.24062 0.5704 0.17282 0.0
C938 C 0.20972 0.58205 0.0895 0.0
C939 C 0.18092 0.568 0.0717 0.0
C940 C 0.15369 0.55881 0.08283 0.0
C941 C 0.15579 0.56297 0.11215 0.0
C942 C 0.1845 0.57751 0.12987 0.0
H943 H 0.25873 0.56504 0.1869 0.0
H944 H 0.22272 0.57033 0.1852 0.0
H945 H 0.2296 0.55399 0.15472 0.0
H946 H 0.23037 0.58951 0.08035 0.0
H947 H 0.17988 0.56489 0.04916 0.0
H948 H 0.32063 0.46749 0.74112 0.0
H949 H 0.3549 0.48565 0.70738 0.0
H950 H 0.33977 0.40152 0.67624 0.0
H951 H 0.30509 0.38342 0.70956 0.0
H952 H 0.4094 0.47856 0.70504 0.0
H953 H 0.32715 0.43582 0.60298 0.0
H954 H 0.31426 0.43652 0.63608 0.0
H955 H 0.32793 0.40961 0.62647 0.0
C956 C 0.32439 0.45294 0.7268 0.0
C957 C 0.31051 0.42408 0.72811 0.0
C958 C 0.34399 0.4633 0.70757 0.0
C959 C 0.3498 0.445 0.68902 0.0
C960 C 0.33527 0.41611 0.68988 0.0
H961 H 0.47697 0.46064 0.57385 0.0
H962 H 0.4374 0.4449 0.60298 0.0
C963 C 0.31563 0.40576 0.70906 0.0
C964 C 0.37246 0.45611 0.67004 0.0
H965 H 0.38114 0.45407 0.60106 0.0
C966 C 0.40311 0.47341 0.68228 0.0
C967 C 0.36438 0.44936 0.6403 0.0
C968 C 0.33157 0.43203 0.62562 0.0
C969 C 0.42601 0.48351 0.66578 0.0
C970 C 0.41801 0.47652 0.63609 0.0
C971 C 0.38731 0.4594 0.6238 0.0
C972 C 0.44134 0.48636 0.61756 0.0
C973 C 0.45883 0.5009 0.68041 0.0
C974 C 0.45639 0.51495 0.61555 0.0
C975 C 0.47908 0.52408 0.59886 0.0
C976 C 0.48719 0.50481 0.58368 0.0
C977 C 0.4715 0.47615 0.58524 0.0
C978 C 0.44878 0.46706 0.6019 0.0
H979 H 0.4628 0.49875 0.70349 0.0
H980 H 0.476 0.49495 0.67112 0.0
H981 H 0.46321 0.52319 0.67763 0.0
H982 H 0.45064 0.53025 0.62698 0.0
H983 H 0.49045 0.54628 0.59812 0.0
H984 H 0.75389 0.64874 0.80889 0.0
H985 H 0.7945 0.63227 0.83165 0.0
H986 H 0.75036 0.61467 0.90393 0.0
H987 H 0.70962 0.63102 0.88109 0.0
H988 H 0.83338 0.65743 0.88493 0.0
H989 H 0.7699 0.54383 0.88704 0.0
H990 H 0.75512 0.56455 0.86314 0.0
H991 H 0.75251 0.56667 0.8998 0.0
C992 C 0.75246 0.64059 0.82927 0.0
C993 C 0.72835 0.64047 0.84301 0.0
C994 C 0.77566 0.63135 0.84229 0.0
C995 C 0.77514 0.6219 0.86927 0.0
C996 C 0.75076 0.62129 0.88283 0.0
H997 H 0.91182 0.57779 0.98589 0.0
H998 H 0.8652 0.58638 0.96364 0.0
C999 C 0.72757 0.63061 0.86983 0.0
C1000 C 0.80166 0.61521 0.88419 0.0
H1001 H 0.82234 0.56255 0.91151 0.0
C1002 C 0.83101 0.63667 0.89067 0.0
C1003 C 0.79832 0.5882 0.89195 0.0
C1004 C 0.76734 0.56436 0.885 0.0
C1005 C 0.85721 0.63187 0.90469 0.0
C1006 C 0.85407 0.60471 0.91186 0.0
C1007 C 0.82462 0.58331 0.90586 0.0
C1008 C 0.88139 0.5981 0.92482 0.0
C1009 C 0.88798 0.65599 0.912 0.0
C1010 C 0.90548 0.60121 0.91005 0.0
C1011 C 0.932 0.5963 0.92262 0.0
C1012 C 0.93489 0.58804 0.95018 0.0
C1013 C 0.91025 0.58406 0.96461 0.0
C1014 C 0.88367 0.58902 0.95199 0.0
H1015 H 0.88483 0.67638 0.91214 0.0
H1016 H 0.90124 0.65471 0.93304 0.0
H1017 H 0.9021 0.65539 0.89591 0.0
H1018 H 0.90382 0.60759 0.8888 0.0
H1019 H 0.95022 0.59889 0.91068 0.0
H1020 H 0.44475 0.77689 0.18283 0.0
H1021 H 0.46727 0.81743 0.15795 0.0
H1022 H 0.49749 0.87034 0.23661 0.0
H1023 H 0.47407 0.8298 0.26171 0.0
H1024 H 0.46911 0.89196 0.19076 0.0
H1025 H 0.56093 0.858 0.16202 0.0
H1026 H 0.5225 0.83206 0.15183 0.0
H1027 H 0.53923 0.84276 0.18874 0.0
C1028 C 0.45584 0.79717 0.19485 0.0
C1029 C 0.45755 0.80014 0.22426 0.0
C1030 C 0.46902 0.82027 0.18063 0.0
C1031 C 0.48443 0.84677 0.19552 0.0
C1032 C 0.48585 0.84998 0.2248 0.0
H1033 H 0.60172 0.98522 0.11847 0.0
H1034 H 0.58159 0.95095 0.15112 0.0
C1035 C 0.47264 0.82682 0.23911 0.0
C1036 C 0.49885 0.87102 0.18028 0.0
H1037 H 0.55197 0.895 0.13793 0.0
C1038 C 0.48743 0.89282 0.17941 0.0
C1039 C 0.52304 0.87221 0.16585 0.0
C1040 C 0.53739 0.85015 0.16733 0.0
C1041 C 0.49885 0.91537 0.1636 0.0
C1042 C 0.52192 0.91582 0.14799 0.0
C1043 C 0.53406 0.89448 0.14969 0.0
C1044 C 0.53358 0.93792 0.12936 0.0
C1045 C 0.48622 0.93854 0.16386 0.0
C1046 C 0.51324 0.94194 0.1063 0.0
C1047 C 0.52467 0.96155 0.08766 0.0
C1048 C 0.55668 0.9772 0.09165 0.0
C1049 C 0.57695 0.97336 0.11487 0.0
C1050 C 0.56549 0.95383 0.13353 0.0
H1051 H 0.47589 0.93925 0.18281 0.0
H1052 H 0.50471 0.95912 0.16345 0.0
H1053 H 0.46767 0.93493 0.14482 0.0
H1054 H 0.48862 0.92944 0.10232 0.0
H1055 H 0.50857 0.96408 0.06987 0.0
H1056 H 0.17811 0.2949 0.77116 0.0
H1057 H 0.15718 0.24752 0.74685 0.0
H1058 H 0.16114 0.28149 0.66637 0.0
H1059 H 0.18183 0.32869 0.69036 0.0
H1060 H 0.10392 0.21972 0.70506 0.0
H1061 H 0.21072 0.23053 0.66423 0.0
H1062 H 0.21 0.25493 0.69152 0.0
H1063 H 0.19536 0.25716 0.65498 0.0
C1064 C 0.17422 0.29228 0.74827 0.0
C1065 C 0.18206 0.31569 0.73278 0.0
C1066 C 0.1624 0.26517 0.7344 0.0
C1067 C 0.15827 0.26089 0.70479 0.0
C1068 C 0.16494 0.28419 0.68925 0.0
H1069 H 0.09276 0.11716 0.57848 0.0
H1070 H 0.11332 0.16392 0.60413 0.0
C1071 C 0.17675 0.31122 0.70305 0.0
C1072 C 0.14698 0.23217 0.69004 0.0
H1073 H 0.16607 0.19016 0.64612 0.0
C1074 C 0.1176 0.21319 0.69234 0.0
C1075 C 0.16477 0.22361 0.67334 0.0
C1076 C 0.19709 0.2425 0.67102 0.0
C1077 C 0.10524 0.18621 0.6779 0.0
C1078 C 0.12298 0.17771 0.66109 0.0
C1079 C 0.15242 0.19665 0.65891 0.0
C1080 C 0.1114 0.14927 0.64563 0.0
C1081 C 0.07291 0.16733 0.68017 0.0
C1082 C 0.10422 0.12541 0.6604 0.0
C1083 C 0.0925 0.09871 0.6458 0.0
C1084 C 0.08785 0.09524 0.61609 0.0
C1085 C 0.09595 0.11913 0.60136 0.0
C1086 C 0.10769 0.14587 0.616 0.0
H1087 H 0.05942 0.17924 0.68736 0.0
H1088 H 0.05988 0.15524 0.65953 0.0
H1089 H 0.07459 0.15235 0.69585 0.0
H1090 H 0.10759 0.12744 0.68327 0.0
H1091 H 0.08671 0.08075 0.65779 0.0
H1092 H 0.80289 0.29044 0.47296 0.0
H1093 H 0.77352 0.32073 0.47831 0.0
H1094 H 0.72492 0.29594 0.39158 0.0
H1095 H 0.75396 0.26522 0.38634 0.0
H1096 H 0.76701 0.36535 0.44849 0.0
H1097 H 0.65463 0.27601 0.43662 0.0
H1098 H 0.69165 0.27157 0.44252 0.0
H1099 H 0.67488 0.27746 0.40796 0.0
C1100 C 0.78607 0.29164 0.45502 0.0
C1101 C 0.78038 0.2754 0.42931 0.0
C1102 C 0.76938 0.30894 0.45807 0.0
C1103 C 0.7467 0.3102 0.43549 0.0
C1104 C 0.7419 0.29484 0.40942 0.0
H1105 H 0.60927 0.38908 0.42755 0.0
H1106 H 0.64317 0.36538 0.41565 0.0
C1107 C 0.75855 0.27748 0.40638 0.0
C1108 C 0.7274 0.32684 0.43965 0.0
H1109 H 0.6529 0.32108 0.44139 0.0
C1110 C 0.74205 0.35573 0.44689 0.0
C1111 C 0.69485 0.31418 0.43757 0.0
C1112 C 0.67801 0.28308 0.43099 0.0
C1113 C 0.72497 0.37233 0.45198 0.0
C1114 C 0.69249 0.35959 0.45024 0.0
C1115 C 0.6778 0.33078 0.44264 0.0
C1116 C 0.67329 0.37551 0.45702 0.0
C1117 C 0.74176 0.40338 0.45887 0.0
C1118 C 0.67893 0.38897 0.48426 0.0
C1119 C 0.65953 0.40242 0.49117 0.0
C1120 C 0.63394 0.40244 0.47101 0.0
C1121 C 0.62855 0.38914 0.44366 0.0
C1122 C 0.64798 0.37574 0.43677 0.0
H1123 H 0.76431 0.41072 0.45165 0.0
H1124 H 0.72733 0.41499 0.44897 0.0
H1125 H 0.74667 0.40851 0.48215 0.0
H1126 H 0.69788 0.38847 0.50042 0.0
H1127 H 0.66403 0.41208 0.51254 0.0
loop_
_geom_bond_atom_site_label_1
_geom_bond_atom_site_label_2
_geom_bond_distance
_geom_bond_site_symmetry_2
_ccdc_geom_bond_type
H0 C7 0.929 . S
H1 C10 0.930 . S
H2 C12 0.929 . S
H3 C4 0.969 . S
C4 H3 0.969 . S
C4 O5 1.550 . S
C4 H6 0.973 . S
O5 C4 1.550 . S
O5 C11 1.412 . S
H6 C4 0.973 . S
C7 H0 0.929 . S
C7 C8 1.400 . S
C7 C9 1.364 . S
C8 C7 1.400 . S
C8 C12 1.377 . S
C9 C7 1.364 . S
C9 C10 1.374 . S
C10 H1 0.930 . S
C10 C9 1.374 . S
C10 C11 1.383 . S
C11 O5 1.412 . S
C11 C10 1.383 . S
C11 C12 1.394 . S
C12 H2 0.929 . S
C12 C8 1.377 . S
C12 C11 1.394 . S
H13 C20 0.929 . S
H14 C23 0.930 . S
H15 C25 0.929 . S
H16 C17 0.969 . S
C17 H16 0.969 . S
C17 O18 1.550 . S
C17 H19 0.973 . S
O18 C17 1.550 . S
O18 C24 1.412 . S
H19 C17 0.973 . S
C20 H13 0.929 . S
C20 C21 1.400 . S
C20 C22 1.364 . S
C21 C20 1.400 . S
C21 C25 1.377 . S
C22 C20 1.364 . S
C22 C23 1.374 . S
C23 H14 0.930 . S
C23 C22 1.374 . S
C23 C24 1.383 . S
C24 O18 1.412 . S
C24 C23 1.383 . S
C24 C25 1.394 . S
C25 H15 0.929 . S
C25 C21 1.377 . S
C25 C24 1.394 . S
H26 C33 0.929 . S
H27 C36 0.930 . S
H28 C38 0.929 . S
H29 C30 0.969 . S
C30 H29 0.969 . S
C30 O31 1.550 . S
C30 H32 0.973 . S
O31 C30 1.550 . S
O31 C37 1.412 . S
H32 C30 0.973 . S
C33 H26 0.929 . S
C33 C34 1.400 . S
C33 C35 1.364 . S
C34 C33 1.400 . S
C34 C38 1.377 . S
C35 C33 1.364 . S
C35 C36 1.374 . S
C36 H27 0.930 . S
C36 C35 1.374 . S
C36 C37 1.383 . S
C37 O31 1.412 . S
C37 C36 1.383 . S
C37 C38 1.394 . S
C38 H28 0.929 . S
C38 C34 1.377 . S
C38 C37 1.394 . S
H39 C46 0.929 . S
H40 C49 0.930 . S
H41 C51 0.929 . S
H42 C43 0.969 . S
C43 H42 0.969 . S
C43 O44 1.550 . S
C43 H45 0.973 . S
O44 C43 1.550 . S
O44 C50 1.412 . S
H45 C43 0.973 . S
C46 H39 0.929 . S
C46 C47 1.400 . S
C46 C48 1.364 . S
C47 C46 1.400 . S
C47 C51 1.377 . S
C48 C46 1.364 . S
C48 C49 1.374 . S
C49 H40 0.930 . S
C49 C48 1.374 . S
C49 C50 1.383 . S
C50 O44 1.412 . S
C50 C49 1.383 . S
C50 C51 1.394 . S
C51 H41 0.929 . S
C51 C47 1.377 . S
C51 C50 1.394 . S
H52 C59 0.929 . S
H53 C62 0.930 . S
H54 C64 0.929 . S
H55 C56 0.969 . S
C56 H55 0.969 . S
C56 O57 1.550 . S
C56 H58 0.973 . S
O57 C56 1.550 . S
O57 C63 1.412 . S
H58 C56 0.973 . S
C59 H52 0.929 . S
C59 C60 1.400 . S
C59 C61 1.364 . S
C60 C59 1.400 . S
C60 C64 1.377 . S
C61 C59 1.364 . S
C61 C62 1.374 . S
C62 H53 0.930 . S
C62 C61 1.374 . S
C62 C63 1.383 . S
C63 O57 1.412 . S
C63 C62 1.383 . S
C63 C64 1.394 . S
C64 H54 0.929 . S
C64 C60 1.377 . S
C64 C63 1.394 . S
H65 C72 0.929 . S
H66 C75 0.930 . S
H67 C77 0.929 . S
H68 C69 0.969 . S
C69 H68 0.969 . S
C69 O70 1.550 . S
C69 H71 0.973 . S
O70 C69 1.550 . S
O70 C76 1.412 . S
H71 C69 0.973 . S
C72 H65 0.929 . S
C72 C73 1.400 . S
C72 C74 1.364 . S
C73 C72 1.400 . S
C73 C77 1.377 . S
C74 C72 1.364 . S
C74 C75 1.374 . S
C75 H66 0.930 . S
C75 C74 1.374 . S
C75 C76 1.383 . S
C76 O70 1.412 . S
C76 C75 1.383 . S
C76 C77 1.394 . S
C77 H67 0.929 . S
C77 C73 1.377 . S
C77 C76 1.394 . S
H78 C85 0.929 . S
H79 C88 0.930 . S
H80 C90 0.929 . S
H81 C82 0.969 . S
C82 H81 0.969 . S
C82 O83 1.550 . S
C82 H84 0.973 . S
O83 C82 1.550 . S
O83 C89 1.412 . S
H84 C82 0.973 . S
C85 H78 0.929 . S
C85 C86 1.400 . S
C85 C87 1.364 . S
C86 C85 1.400 . S
C86 C90 1.377 . S
C87 C85 1.364 . S
C87 C88 1.374 . S
C88 H79 0.930 . S
C88 C87 1.374 . S
C88 C89 1.383 . S
C89 O83 1.412 . S
C89 C88 1.383 . S
C89 C90 1.394 . S
C90 H80 0.929 . S
C90 C86 1.377 . S
C90 C89 1.394 . S
H91 C98 0.929 . S
H92 C101 0.930 . S
H93 C103 0.929 . S
H94 C95 0.969 . S
C95 H94 0.969 . S
C95 O96 1.550 . S
C95 H97 0.973 . S
O96 C95 1.550 . S
O96 C102 1.412 . S
H97 C95 0.973 . S
C98 H91 0.929 . S
C98 C99 1.400 . S
C98 C100 1.364 . S
C99 C98 1.400 . S
C99 C103 1.377 . S
C100 C98 1.364 . S
C100 C101 1.374 . S
C101 H92 0.930 . S
C101 C100 1.374 . S
C101 C102 1.383 . S
C102 O96 1.412 . S
C102 C101 1.383 . S
C102 C103 1.394 . S
C103 H93 0.929 . S
C103 C99 1.377 . S
C103 C102 1.394 . S
Pr104 C106 2.880 1_545 S
Pr104 O124 2.562 1_545 S
Pr104 O125 2.490 1_545 S
Pr104 O126 2.695 1_655 S
Pr104 O127 2.512 1_655 S
Pr104 O129 2.437 1_645 S
Pr104 O132 2.448 1_545 S
Pr104 O134 2.438 . S
Pr105 C115 2.880 . S
Pr105 O126 2.436 . S
Pr105 O128 2.458 . S
Pr105 O130 2.562 . S
Pr105 O131 2.490 . S
Pr105 O132 2.682 1_445 S
Pr105 O133 2.512 1_545 S
Pr105 O135 2.437 . S
C106 Pr104 2.880 1_565 S
C106 C107 1.491 . S
C106 O124 1.254 . S
C106 O125 1.225 . S
C107 C106 1.491 . S
C107 C108 1.392 . S
C107 C112 1.356 . S
C108 C107 1.392 . S
C108 C109 1.368 . S
C108 H136 0.929 . S
C109 C108 1.368 . S
C109 C110 1.386 . S
C109 H137 0.929 . S
C110 C109 1.386 . S
C110 C111 1.373 . S
C111 C110 1.373 . S
C111 C112 1.409 . S
C111 H138 0.931 . S
C112 C107 1.356 . S
C112 C111 1.409 . S
C112 H139 0.930 . S
C113 O126 1.270 . S
C113 O127 1.248 . S
C114 O128 1.261 1_565 S
C114 O129 1.278 . S
C115 Pr105 2.880 . S
C115 C116 1.491 . S
C115 O130 1.254 . S
C115 O131 1.225 . S
C116 C115 1.491 . S
C116 C117 1.392 . S
C116 C121 1.356 . S
C117 C116 1.392 . S
C117 C118 1.368 . S
C117 H140 0.929 . S
C118 C117 1.368 . S
C118 C119 1.386 . S
C118 H141 0.929 . S
C119 C118 1.386 . S
C119 C120 1.373 . S
C120 C119 1.373 . S
C120 C121 1.409 . S
C120 H142 0.931 . S
C121 C116 1.356 . S
C121 C120 1.409 . S
C121 H143 0.930 . S
C122 O132 1.265 . S
C122 O133 1.248 1_655 S
C123 O134 1.267 . S
C123 O135 1.278 1_655 S
O124 Pr104 2.562 1_565 S
O124 C106 1.254 . S
O125 Pr104 2.490 1_565 S
O125 C106 1.225 . S
O126 Pr104 2.695 1_455 S
O126 Pr105 2.436 . S
O126 C113 1.270 . S
O127 Pr104 2.512 1_455 S
O127 C113 1.248 . S
O128 Pr105 2.458 . S
O128 C114 1.261 1_545 S
O129 Pr104 2.437 1_465 S
O129 C114 1.278 . S
O130 Pr105 2.562 . S
O130 C115 1.254 . S
O131 Pr105 2.490 . S
O131 C115 1.225 . S
O132 Pr104 2.448 1_565 S
O132 Pr105 2.682 1_665 S
O132 C122 1.265 . S
O133 Pr105 2.512 1_565 S
O133 C122 1.248 1_455 S
O134 Pr104 2.438 . S
O134 C123 1.267 . S
O135 Pr105 2.437 . S
O135 C123 1.278 1_455 S
H136 C108 0.929 . S
H137 C109 0.929 . S
H138 C111 0.931 . S
H139 C112 0.930 . S
H140 C117 0.929 . S
H141 C118 0.929 . S
H142 C120 0.931 . S
H143 C121 0.930 . S
Pr144 C146 2.880 . S
Pr144 O164 2.562 . S
Pr144 O165 2.490 . S
Pr144 O166 2.695 1_554 S
Pr144 O167 2.512 1_554 S
Pr144 O169 2.437 . S
Pr144 O172 2.436 1_545 S
Pr144 O174 2.438 1_544 S
Pr145 C155 2.880 1_544 S
Pr145 O166 2.436 1_554 S
Pr145 O168 2.438 . S
Pr145 O170 2.562 1_544 S
Pr145 O171 2.490 1_544 S
Pr145 O172 2.695 1_545 S
Pr145 O173 2.512 1_545 S
Pr145 O175 2.437 1_544 S
C146 Pr144 2.880 . S
C146 C147 1.491 . S
C146 O164 1.254 . S
C146 O165 1.225 . S
C147 C146 1.491 . S
C147 C148 1.392 . S
C147 C152 1.356 . S
C148 C147 1.392 . S
C148 C149 1.368 . S
C148 H176 0.929 . S
C149 C148 1.368 . S
C149 C150 1.386 . S
C149 H177 0.929 . S
C150 C149 1.386 . S
C150 C151 1.373 . S
C151 C150 1.373 . S
C151 C152 1.409 . S
C151 H178 0.931 . S
C152 C147 1.356 . S
C152 C151 1.409 . S
C152 H179 0.930 . S
C153 O166 1.270 . S
C153 O167 1.248 . S
C154 O168 1.267 . S
C154 O169 1.278 . S
C155 Pr145 2.880 1_566 S
C155 C156 1.491 . S
C155 O170 1.254 . S
C155 O171 1.225 . S
C156 C155 1.491 . S
C156 C157 1.392 . S
C156 C161 1.356 . S
C157 C156 1.392 . S
C157 C158 1.368 . S
C157 H180 0.929 . S
C158 C157 1.368 . S
C158 C159 1.386 . S
C158 H181 0.929 . S
C159 C158 1.386 . S
C159 C160 1.373 . S
C160 C159 1.373 . S
C160 C161 1.409 . S
C160 H182 0.931 . S
C161 C156 1.356 . S
C161 C160 1.409 . S
C161 H183 0.930 . S
C162 O172 1.270 . S
C162 O173 1.248 . S
C163 O174 1.267 . S
C163 O175 1.278 . S
O164 Pr144 2.562 . S
O164 C146 1.254 . S
O165 Pr144 2.490 . S
O165 C146 1.225 . S
O166 Pr144 2.695 1_556 S
O166 Pr145 2.436 1_556 S
O166 C153 1.270 . S
O167 Pr144 2.512 1_556 S
O167 C153 1.248 . S
O168 Pr145 2.438 . S
O168 C154 1.267 . S
O169 Pr144 2.437 . S
O169 C154 1.278 . S
O170 Pr145 2.562 1_566 S
O170 C155 1.254 . S
O171 Pr145 2.490 1_566 S
O171 C155 1.225 . S
O172 Pr144 2.436 1_565 S
O172 Pr145 2.695 1_565 S
O172 C162 1.270 . S
O173 Pr145 2.512 1_565 S
O173 C162 1.248 . S
O174 Pr144 2.438 1_566 S
O174 C163 1.267 . S
O175 Pr145 2.437 1_566 S
O175 C163 1.278 . S
H176 C148 0.929 . S
H177 C149 0.929 . S
H178 C151 0.931 . S
H179 C152 0.930 . S
H180 C157 0.929 . S
H181 C158 0.929 . S
H182 C160 0.931 . S
H183 C161 0.930 . S
Pr184 C186 2.880 . S
Pr184 O204 2.562 . S
Pr184 O205 2.490 . S
Pr184 O206 2.695 . S
Pr184 O207 2.512 . S
Pr184 O209 2.437 . S
Pr184 O212 2.436 . S
Pr184 O214 2.438 . S
Pr185 C195 2.880 . S
Pr185 O206 2.436 . S
Pr185 O208 2.438 . S
Pr185 O210 2.562 . S
Pr185 O211 2.490 . S
Pr185 O212 2.695 . S
Pr185 O213 2.512 . S
Pr185 O215 2.437 . S
C186 Pr184 2.880 . S
C186 C187 1.491 . S
C186 O204 1.254 . S
C186 O205 1.225 . S
C187 C186 1.491 . S
C187 C188 1.392 . S
C187 C192 1.356 . S
C188 C187 1.392 . S
C188 C189 1.368 . S
C188 H216 0.929 . S
C189 C188 1.368 . S
C189 C190 1.386 . S
C189 H217 0.929 . S
C190 C189 1.386 . S
C190 C191 1.373 . S
C191 C190 1.373 . S
C191 C192 1.409 . S
C191 H218 0.931 . S
C192 C187 1.356 . S
C192 C191 1.409 . S
C192 H219 0.930 . S
C193 O206 1.270 . S
C193 O207 1.248 . S
C194 O208 1.267 . S
C194 O209 1.278 . S
C195 Pr185 2.880 . S
C195 C196 1.491 . S
C195 O210 1.254 . S
C195 O211 1.225 . S
C196 C195 1.491 . S
C196 C197 1.392 . S
C196 C201 1.356 . S
C197 C196 1.392 . S
C197 C198 1.368 . S
C197 H220 0.929 . S
C198 C197 1.368 . S
C198 C199 1.386 . S
C198 H221 0.929 . S
C199 C198 1.386 . S
C199 C200 1.373 . S
C200 C199 1.373 . S
C200 C201 1.409 . S
C200 H222 0.931 . S
C201 C196 1.356 . S
C201 C200 1.409 . S
C201 H223 0.930 . S
C202 O212 1.270 . S
C202 O213 1.248 . S
C203 O214 1.267 . S
C203 O215 1.278 . S
O204 Pr184 2.562 . S
O204 C186 1.254 . S
O205 Pr184 2.490 . S
O205 C186 1.225 . S
O206 Pr184 2.695 . S
O206 Pr185 2.436 . S
O206 C193 1.270 . S
O207 Pr184 2.512 . S
O207 C193 1.248 . S
O208 Pr185 2.438 . S
O208 C194 1.267 . S
O209 Pr184 2.437 . S
O209 C194 1.278 . S
O210 Pr185 2.562 . S
O210 C195 1.254 . S
O211 Pr185 2.490 . S
O211 C195 1.225 . S
O212 Pr184 2.436 . S
O212 Pr185 2.695 . S
O212 C202 1.270 . S
O213 Pr185 2.512 . S
O213 C202 1.248 . S
O214 Pr184 2.438 . S
O214 C203 1.267 . S
O215 Pr185 2.437 . S
O215 C203 1.278 . S
H216 C188 0.929 . S
H217 C189 0.929 . S
H218 C191 0.931 . S
H219 C192 0.930 . S
H220 C197 0.929 . S
H221 C198 0.929 . S
H222 C200 0.931 . S
H223 C201 0.930 . S
Pr224 C226 2.880 1_455 S
Pr224 O244 2.560 1_454 S
Pr224 O245 2.490 . S
Pr224 O246 2.695 . S
Pr224 O247 2.512 . S
Pr224 O249 2.437 . S
Pr224 O252 2.436 1_455 S
Pr224 O254 2.435 1_554 S
Pr225 C235 2.880 . S
Pr225 O246 2.436 . S
Pr225 O248 2.438 1_455 S
Pr225 O250 2.562 . S
Pr225 O251 2.490 . S
Pr225 O252 2.695 1_455 S
Pr225 O253 2.512 1_455 S
Pr225 O255 2.437 . S
C226 Pr224 2.880 1_655 S
C226 C227 1.491 1_554 S
C226 O244 1.255 1_554 S
C226 O245 1.225 1_655 S
C227 C226 1.491 1_556 S
C227 C228 1.392 . S
C227 C232 1.356 . S
C228 C227 1.392 . S
C228 C229 1.368 . S
C228 H256 0.929 1_656 S
C229 C228 1.368 . S
C229 C230 1.386 . S
C229 H257 0.929 . S
C230 C229 1.386 . S
C230 C231 1.373 . S
C231 C230 1.373 . S
C231 C232 1.409 . S
C231 H258 0.931 . S
C232 C227 1.356 . S
C232 C231 1.409 . S
C232 H259 0.930 . S
C233 O246 1.270 . S
C233 O247 1.248 . S
C234 O248 1.267 . S
C234 O249 1.278 1_655 S
C235 Pr225 2.880 . S
C235 C236 1.491 . S
C235 O250 1.254 . S
C235 O251 1.225 . S
C236 C235 1.491 . S
C236 C237 1.392 . S
C236 C241 1.356 . S
C237 C236 1.392 . S
C237 C238 1.368 . S
C237 H260 0.929 . S
C238 C237 1.368 . S
C238 C239 1.386 . S
C238 H261 0.929 . S
C239 C238 1.386 . S
C239 C240 1.373 . S
C240 C239 1.373 . S
C240 C241 1.409 . S
C240 H262 0.931 . S
C241 C236 1.356 . S
C241 C240 1.409 . S
C241 H263 0.930 . S
C242 O252 1.270 . S
C242 O253 1.248 . S
C243 O254 1.264 1_554 S
C243 O255 1.278 . S
O244 Pr224 2.560 1_656 S
O244 C226 1.255 1_556 S
O245 Pr224 2.490 . S
O245 C226 1.225 1_455 S
O246 Pr224 2.695 . S
O246 Pr225 2.436 . S
O246 C233 1.270 . S
O247 Pr224 2.512 . S
O247 C233 1.248 . S
O248 Pr225 2.438 1_655 S
O248 C234 1.267 . S
O249 Pr224 2.437 . S
O249 C234 1.278 1_455 S
O250 Pr225 2.562 . S
O250 C235 1.254 . S
O251 Pr225 2.490 . S
O251 C235 1.225 . S
O252 Pr224 2.436 1_655 S
O252 Pr225 2.695 1_655 S
O252 C242 1.270 . S
O253 Pr225 2.512 1_655 S
O253 C242 1.248 . S
O254 Pr224 2.435 1_556 S
O254 C243 1.264 1_556 S
O255 Pr225 2.437 . S
O255 C243 1.278 . S
H256 C228 0.929 1_454 S
H257 C229 0.929 . S
H258 C231 0.931 . S
H259 C232 0.930 . S
H260 C237 0.929 . S
H261 C238 0.929 . S
H262 C240 0.931 . S
H263 C241 0.930 . S
H264 C272 0.929 . S
H265 C274 0.930 . S
H266 C276 0.930 . S
H267 C279 0.929 . S
H268 C282 0.930 . S
H269 C284 0.960 . S
H270 C284 0.960 . S
H271 C284 0.960 . S
C272 H264 0.929 . S
C272 C273 1.377 . S
C272 C274 1.384 . S
C273 C272 1.377 . S
C273 C279 1.390 . S
C274 H265 0.930 . S
C274 C272 1.384 . S
C274 C275 1.372 . S
C275 C274 1.372 . S
C275 C276 1.400 . S
C275 C280 1.490 . S
C276 H266 0.930 . S
C276 C275 1.400 . S
C276 C279 1.386 . S
H277 C293 0.930 . S
H278 C294 0.931 . S
C279 H267 0.929 . S
C279 C273 1.390 . S
C279 C276 1.386 . S
C280 C275 1.490 . S
C280 C282 1.395 . S
C280 C283 1.403 . S
H281 C287 0.930 . S
C282 H268 0.930 . S
C282 C280 1.395 . S
C282 C285 1.403 . S
C283 C280 1.403 . S
C283 C284 1.524 . S
C283 C287 1.400 . S
C284 H269 0.960 . S
C284 H270 0.960 . S
C284 H271 0.960 . S
C284 C283 1.524 . S
C285 C282 1.403 . S
C285 C286 1.392 . S
C285 C289 1.495 . S
C286 C285 1.392 . S
C286 C287 1.385 . S
C286 C288 1.478 . S
C287 H281 0.930 . S
C287 C283 1.400 . S
C287 C286 1.385 . S
C288 C286 1.478 . S
C288 C290 1.381 . S
C288 C294 1.383 . S
C289 C285 1.495 . S
C289 H295 0.959 . S
C289 H296 0.961 . S
C289 H297 0.960 . S
C290 C288 1.381 . S
C290 C291 1.394 . S
C290 H298 0.930 . S
C291 C290 1.394 . S
C291 C292 1.383 . S
C291 H299 0.929 . S
C292 C291 1.383 . S
C292 C293 1.377 . S
C293 H277 0.930 . S
C293 C292 1.377 . S
C293 C294 1.379 . S
C294 H278 0.931 . S
C294 C288 1.383 . S
C294 C293 1.379 . S
H295 C289 0.959 . S
H296 C289 0.961 . S
H297 C289 0.960 . S
H298 C290 0.930 . S
H299 C291 0.929 . S
H300 C308 0.929 . S
H301 C310 0.930 . S
H302 C312 0.930 . S
H303 C315 0.929 . S
H304 C318 0.930 . S
H305 C320 0.960 . S
H306 C320 0.960 . S
H307 C320 0.960 . S
C308 H300 0.929 . S
C308 C309 1.377 . S
C308 C310 1.384 . S
C309 C308 1.377 . S
C309 C315 1.390 . S
C310 H301 0.930 . S
C310 C308 1.384 . S
C310 C311 1.372 . S
C311 C310 1.372 . S
C311 C312 1.400 . S
C311 C316 1.490 . S
C312 H302 0.930 . S
C312 C311 1.400 . S
C312 C315 1.386 . S
H313 C329 0.930 . S
H314 C330 0.931 . S
C315 H303 0.929 . S
C315 C309 1.390 . S
C315 C312 1.386 . S
C316 C311 1.490 . S
C316 C318 1.395 . S
C316 C319 1.403 . S
H317 C323 0.930 . S
C318 H304 0.930 . S
C318 C316 1.395 . S
C318 C321 1.403 . S
C319 C316 1.403 . S
C319 C320 1.524 . S
C319 C323 1.400 . S
C320 H305 0.960 . S
C320 H306 0.960 . S
C320 H307 0.960 . S
C320 C319 1.524 . S
C321 C318 1.403 . S
C321 C322 1.392 . S
C321 C325 1.495 . S
C322 C321 1.392 . S
C322 C323 1.385 . S
C322 C324 1.478 . S
C323 H317 0.930 . S
C323 C319 1.400 . S
C323 C322 1.385 . S
C324 C322 1.478 . S
C324 C326 1.381 . S
C324 C330 1.383 . S
C325 C321 1.495 . S
C325 H331 0.959 . S
C325 H332 0.961 . S
C325 H333 0.960 . S
C326 C324 1.381 . S
C326 C327 1.394 . S
C326 H334 0.930 . S
C327 C326 1.394 . S
C327 C328 1.383 . S
C327 H335 0.929 . S
C328 C327 1.383 . S
C328 C329 1.377 . S
C329 H313 0.930 . S
C329 C328 1.377 . S
C329 C330 1.379 . S
C330 H314 0.931 . S
C330 C324 1.383 . S
C330 C329 1.379 . S
H331 C325 0.959 . S
H332 C325 0.961 . S
H333 C325 0.960 . S
H334 C326 0.930 . S
H335 C327 0.929 . S
H336 C344 0.929 . S
H337 C346 0.930 . S
H338 C348 0.930 . S
H339 C351 0.929 . S
H340 C354 0.930 . S
H341 C356 0.960 . S
H342 C356 0.960 . S
H343 C356 0.960 . S
C344 H336 0.929 . S
C344 C345 1.377 . S
C344 C346 1.384 . S
C345 C344 1.377 . S
C345 C351 1.390 . S
C346 H337 0.930 . S
C346 C344 1.384 . S
C346 C347 1.372 . S
C347 C346 1.372 . S
C347 C348 1.400 . S
C347 C352 1.490 . S
C348 H338 0.930 . S
C348 C347 1.400 . S
C348 C351 1.386 . S
H349 C365 0.930 . S
H350 C366 0.931 . S
C351 H339 0.929 . S
C351 C345 1.390 . S
C351 C348 1.386 . S
C352 C347 1.490 . S
C352 C354 1.395 . S
C352 C355 1.403 . S
H353 C359 0.930 . S
C354 H340 0.930 . S
C354 C352 1.395 . S
C354 C357 1.403 . S
C355 C352 1.403 . S
C355 C356 1.524 . S
C355 C359 1.400 . S
C356 H341 0.960 . S
C356 H342 0.960 . S
C356 H343 0.960 . S
C356 C355 1.524 . S
C357 C354 1.403 . S
C357 C358 1.392 . S
C357 C361 1.495 . S
C358 C357 1.392 . S
C358 C359 1.385 . S
C358 C360 1.478 . S
C359 H353 0.930 . S
C359 C355 1.400 . S
C359 C358 1.385 . S
C360 C358 1.478 . S
C360 C362 1.381 . S
C360 C366 1.383 . S
C361 C357 1.495 . S
C361 H367 0.959 . S
C361 H368 0.961 . S
C361 H369 0.960 . S
C362 C360 1.381 . S
C362 C363 1.394 . S
C362 H370 0.930 . S
C363 C362 1.394 . S
C363 C364 1.383 . S
C363 H371 0.929 . S
C364 C363 1.383 . S
C364 C365 1.377 . S
C365 H349 0.930 . S
C365 C364 1.377 . S
C365 C366 1.379 . S
C366 H350 0.931 . S
C366 C360 1.383 . S
C366 C365 1.379 . S
H367 C361 0.959 . S
H368 C361 0.961 . S
H369 C361 0.960 . S
H370 C362 0.930 . S
H371 C363 0.929 . S
H372 C380 0.929 . S
H373 C382 0.930 . S
H374 C384 0.930 . S
H375 C387 0.929 . S
H376 C390 0.930 . S
H377 C392 0.960 . S
H378 C392 0.960 . S
H379 C392 0.960 . S
C380 H372 0.929 . S
C380 C381 1.377 . S
C380 C382 1.384 . S
C381 C380 1.377 . S
C381 C387 1.390 . S
C382 H373 0.930 . S
C382 C380 1.384 . S
C382 C383 1.372 . S
C383 C382 1.372 . S
C383 C384 1.400 . S
C383 C388 1.490 . S
C384 H374 0.930 . S
C384 C383 1.400 . S
C384 C387 1.386 . S
H385 C401 0.930 1_455 S
H386 C402 0.931 . S
C387 H375 0.929 . S
C387 C381 1.390 . S
C387 C384 1.386 . S
C388 C383 1.490 . S
C388 C390 1.395 . S
C388 C391 1.403 . S
H389 C395 0.930 . S
C390 H376 0.930 . S
C390 C388 1.395 . S
C390 C393 1.403 . S
C391 C388 1.403 . S
C391 C392 1.524 . S
C391 C395 1.400 . S
C392 H377 0.960 . S
C392 H378 0.960 . S
C392 H379 0.960 . S
C392 C391 1.524 . S
C393 C390 1.403 . S
C393 C394 1.392 . S
C393 C397 1.495 . S
C394 C393 1.392 . S
C394 C395 1.385 . S
C394 C396 1.478 . S
C395 H389 0.930 . S
C395 C391 1.400 . S
C395 C394 1.385 . S
C396 C394 1.478 . S
C396 C398 1.381 . S
C396 C402 1.383 . S
C397 C393 1.495 . S
C397 H403 0.959 . S
C397 H404 0.961 . S
C397 H405 0.960 . S
C398 C396 1.381 . S
C398 C399 1.394 . S
C398 H406 0.930 . S
C399 C398 1.394 . S
C399 C400 1.383 . S
C399 H407 0.929 . S
C400 C399 1.383 . S
C400 C401 1.377 . S
C401 H385 0.930 1_655 S
C401 C400 1.377 . S
C401 C402 1.379 . S
C402 H386 0.931 . S
C402 C396 1.383 . S
C402 C401 1.379 . S
H403 C397 0.959 . S
H404 C397 0.961 . S
H405 C397 0.960 . S
H406 C398 0.930 . S
H407 C399 0.929 . S
H408 C416 0.929 . S
H409 C418 0.930 . S
H410 C420 0.930 . S
H411 C423 0.929 . S
H412 C426 0.930 . S
H413 C428 0.960 . S
H414 C428 0.960 . S
H415 C428 0.960 . S
C416 H408 0.929 . S
C416 C417 1.377 . S
C416 C418 1.384 . S
C417 C416 1.377 . S
C417 C423 1.390 . S
C418 H409 0.930 . S
C418 C416 1.384 . S
C418 C419 1.372 . S
C419 C418 1.372 . S
C419 C420 1.400 . S
C419 C424 1.490 . S
C420 H410 0.930 . S
C420 C419 1.400 . S
C420 C423 1.386 . S
H421 C437 0.930 . S
H422 C438 0.931 . S
C423 H411 0.929 . S
C423 C417 1.390 . S
C423 C420 1.386 . S
C424 C419 1.490 . S
C424 C426 1.395 . S
C424 C427 1.403 . S
H425 C431 0.930 . S
C426 H412 0.930 . S
C426 C424 1.395 . S
C426 C429 1.403 . S
C427 C424 1.403 . S
C427 C428 1.524 . S
C427 C431 1.400 . S
C428 H413 0.960 . S
C428 H414 0.960 . S
C428 H415 0.960 . S
C428 C427 1.524 . S
C429 C426 1.403 . S
C429 C430 1.392 . S
C429 C433 1.495 . S
C430 C429 1.392 . S
C430 C431 1.385 . S
C430 C432 1.478 . S
C431 H425 0.930 . S
C431 C427 1.400 . S
C431 C430 1.385 . S
C432 C430 1.478 . S
C432 C434 1.381 . S
C432 C438 1.383 . S
C433 C429 1.495 . S
C433 H439 0.959 . S
C433 H440 0.961 . S
C433 H441 0.960 . S
C434 C432 1.381 . S
C434 C435 1.394 . S
C434 H442 0.930 . S
C435 C434 1.394 . S
C435 C436 1.383 . S
C435 H443 0.929 . S
C436 C435 1.383 . S
C436 C437 1.377 . S
C437 H421 0.930 . S
C437 C436 1.377 . S
C437 C438 1.379 . S
C438 H422 0.931 . S
C438 C432 1.383 . S
C438 C437 1.379 . S
H439 C433 0.959 . S
H440 C433 0.961 . S
H441 C433 0.960 . S
H442 C434 0.930 . S
H443 C435 0.929 . S
H444 C452 0.929 . S
H445 C454 0.930 . S
H446 C456 0.930 . S
H447 C459 0.929 . S
H448 C462 0.930 . S
H449 C464 0.960 . S
H450 C464 0.960 . S
H451 C464 0.960 . S
C452 H444 0.929 . S
C452 C453 1.377 . S
C452 C454 1.384 . S
C453 C452 1.377 . S
C453 C459 1.390 . S
C454 H445 0.930 . S
C454 C452 1.384 . S
C454 C455 1.372 . S
C455 C454 1.372 . S
C455 C456 1.400 . S
C455 C460 1.490 . S
C456 H446 0.930 . S
C456 C455 1.400 . S
C456 C459 1.386 . S
H457 C473 0.930 . S
H458 C474 0.931 . S
C459 H447 0.929 . S
C459 C453 1.390 . S
C459 C456 1.386 . S
C460 C455 1.490 . S
C460 C462 1.395 . S
C460 C463 1.403 . S
H461 C467 0.930 . S
C462 H448 0.930 . S
C462 C460 1.395 . S
C462 C465 1.403 . S
C463 C460 1.403 . S
C463 C464 1.524 . S
C463 C467 1.400 . S
C464 H449 0.960 . S
C464 H450 0.960 . S
C464 H451 0.960 . S
C464 C463 1.524 . S
C465 C462 1.403 . S
C465 C466 1.392 . S
C465 C469 1.495 . S
C466 C465 1.392 . S
C466 C467 1.385 . S
C466 C468 1.478 . S
C467 H461 0.930 . S
C467 C463 1.400 . S
C467 C466 1.385 . S
C468 C466 1.478 . S
C468 C470 1.381 . S
C468 C474 1.383 . S
C469 C465 1.495 . S
C469 H475 0.959 . S
C469 H476 0.961 . S
C469 H477 0.960 . S
C470 C468 1.381 . S
C470 C471 1.394 . S
C470 H478 0.930 . S
C471 C470 1.394 . S
C471 C472 1.383 . S
C471 H479 0.929 . S
C472 C471 1.383 . S
C472 C473 1.377 . S
C473 H457 0.930 . S
C473 C472 1.377 . S
C473 C474 1.379 . S
C474 H458 0.931 . S
C474 C468 1.383 . S
C474 C473 1.379 . S
H475 C469 0.959 . S
H476 C469 0.961 . S
H477 C469 0.960 . S
H478 C470 0.930 . S
H479 C471 0.929 . S
H480 C488 0.929 . S
H481 C490 0.930 . S
H482 C492 0.930 . S
H483 C495 0.929 . S
H484 C498 0.930 . S
H485 C500 0.960 . S
H486 C500 0.960 . S
H487 C500 0.960 . S
C488 H480 0.929 . S
C488 C489 1.377 . S
C488 C490 1.384 . S
C489 C488 1.377 . S
C489 C495 1.390 . S
C490 H481 0.930 . S
C490 C488 1.384 . S
C490 C491 1.372 . S
C491 C490 1.372 . S
C491 C492 1.400 . S
C491 C496 1.490 . S
C492 H482 0.930 . S
C492 C491 1.400 . S
C492 C495 1.386 . S
H493 C509 0.930 . S
H494 C510 0.931 . S
C495 H483 0.929 . S
C495 C489 1.390 . S
C495 C492 1.386 . S
C496 C491 1.490 . S
C496 C498 1.395 . S
C496 C499 1.403 . S
H497 C503 0.930 . S
C498 H484 0.930 . S
C498 C496 1.395 . S
C498 C501 1.403 . S
C499 C496 1.403 . S
C499 C500 1.524 . S
C499 C503 1.400 . S
C500 H485 0.960 . S
C500 H486 0.960 . S
C500 H487 0.960 . S
C500 C499 1.524 . S
C501 C498 1.403 . S
C501 C502 1.392 . S
C501 C505 1.495 . S
C502 C501 1.392 . S
C502 C503 1.385 . S
C502 C504 1.478 . S
C503 H497 0.930 . S
C503 C499 1.400 . S
C503 C502 1.385 . S
C504 C502 1.478 . S
C504 C506 1.381 . S
C504 C510 1.383 . S
C505 C501 1.495 . S
C505 H511 0.959 . S
C505 H512 0.961 . S
C505 H513 0.960 . S
C506 C504 1.381 . S
C506 C507 1.394 . S
C506 H514 0.930 . S
C507 C506 1.394 . S
C507 C508 1.383 1_556 S
C507 H515 0.929 . S
C508 C507 1.383 1_554 S
C508 C509 1.377 . S
C509 H493 0.930 . S
C509 C508 1.377 . S
C509 C510 1.379 1_554 S
C510 H494 0.931 . S
C510 C504 1.383 . S
C510 C509 1.379 1_556 S
H511 C505 0.959 . S
H512 C505 0.961 . S
H513 C505 0.960 . S
H514 C506 0.930 . S
H515 C507 0.929 . S
H516 C524 0.929 . S
H517 C526 0.930 . S
H518 C528 0.930 . S
H519 C531 0.929 . S
H520 C534 0.930 . S
H521 C536 0.960 . S
H522 C536 0.960 . S
H523 C536 0.960 . S
C524 H516 0.929 . S
C524 C525 1.377 . S
C524 C526 1.384 . S
C525 C524 1.377 . S
C525 C531 1.390 . S
C526 H517 0.930 . S
C526 C524 1.384 . S
C526 C527 1.372 . S
C527 C526 1.372 . S
C527 C528 1.400 . S
C527 C532 1.490 . S
C528 H518 0.930 . S
C528 C527 1.400 . S
C528 C531 1.386 . S
H529 C545 0.930 . S
H530 C546 0.931 . S
C531 H519 0.929 . S
C531 C525 1.390 . S
C531 C528 1.386 . S
C532 C527 1.490 . S
C532 C534 1.395 . S
C532 C535 1.403 . S
H533 C539 0.930 . S
C534 H520 0.930 . S
C534 C532 1.395 . S
C534 C537 1.403 . S
C535 C532 1.403 . S
C535 C536 1.524 . S
C535 C539 1.400 . S
C536 H521 0.960 . S
C536 H522 0.960 . S
C536 H523 0.960 . S
C536 C535 1.524 . S
C537 C534 1.403 . S
C537 C538 1.392 . S
C537 C541 1.495 . S
C538 C537 1.392 . S
C538 C539 1.385 . S
C538 C540 1.478 . S
C539 H533 0.930 . S
C539 C535 1.400 . S
C539 C538 1.385 . S
C540 C538 1.478 . S
C540 C542 1.381 . S
C540 C546 1.383 . S
C541 C537 1.495 . S
C541 H547 0.959 . S
C541 H548 0.961 . S
C541 H549 0.960 . S
C542 C540 1.381 . S
C542 C543 1.394 . S
C542 H550 0.930 . S
C543 C542 1.394 . S
C543 C544 1.383 . S
C543 H551 0.929 . S
C544 C543 1.383 . S
C544 C545 1.377 . S
C545 H529 0.930 . S
C545 C544 1.377 . S
C545 C546 1.379 . S
C546 H530 0.931 . S
C546 C540 1.383 . S
C546 C545 1.379 . S
H547 C541 0.959 . S
H548 C541 0.961 . S
H549 C541 0.960 . S
H550 C542 0.930 . S
H551 C543 0.929 . S
H552 C560 0.929 . S
H553 C562 0.930 . S
H554 C564 0.930 . S
H555 C567 0.929 . S
H556 C570 0.930 . S
H557 C572 0.960 . S
H558 C572 0.960 . S
H559 C572 0.960 . S
C560 H552 0.929 . S
C560 C561 1.377 . S
C560 C562 1.384 . S
C561 C560 1.377 . S
C561 C567 1.390 . S
C562 H553 0.930 . S
C562 C560 1.384 . S
C562 C563 1.372 . S
C563 C562 1.372 . S
C563 C564 1.400 . S
C563 C568 1.490 . S
C564 H554 0.930 . S
C564 C563 1.400 . S
C564 C567 1.386 . S
H565 C581 0.930 . S
H566 C582 0.931 . S
C567 H555 0.929 . S
C567 C561 1.390 . S
C567 C564 1.386 . S
C568 C563 1.490 . S
C568 C570 1.395 . S
C568 C571 1.403 . S
H569 C575 0.930 . S
C570 H556 0.930 . S
C570 C568 1.395 . S
C570 C573 1.403 . S
C571 C568 1.403 . S
C571 C572 1.524 . S
C571 C575 1.400 . S
C572 H557 0.960 . S
C572 H558 0.960 . S
C572 H559 0.960 . S
C572 C571 1.524 . S
C573 C570 1.403 . S
C573 C574 1.392 . S
C573 C577 1.495 . S
C574 C573 1.392 . S
C574 C575 1.385 . S
C574 C576 1.478 . S
C575 H569 0.930 . S
C575 C571 1.400 . S
C575 C574 1.385 . S
C576 C574 1.478 . S
C576 C578 1.381 . S
C576 C582 1.383 . S
C577 C573 1.495 . S
C577 H583 0.959 . S
C577 H584 0.961 . S
C577 H585 0.960 . S
C578 C576 1.381 . S
C578 C579 1.394 . S
C578 H586 0.930 . S
C579 C578 1.394 . S
C579 C580 1.383 . S
C579 H587 0.929 . S
C580 C579 1.383 . S
C580 C581 1.377 . S
C581 H565 0.930 . S
C581 C580 1.377 . S
C581 C582 1.379 . S
C582 H566 0.931 . S
C582 C576 1.383 . S
C582 C581 1.379 . S
H583 C577 0.959 . S
H584 C577 0.961 . S
H585 C577 0.960 . S
H586 C578 0.930 . S
H587 C579 0.929 . S
H588 C596 0.929 . S
H589 C598 0.930 . S
H590 C600 0.930 . S
H591 C603 0.929 . S
H592 C606 0.930 . S
H593 C608 0.960 . S
H594 C608 0.960 . S
H595 C608 0.960 . S
C596 H588 0.929 . S
C596 C597 1.377 . S
C596 C598 1.384 . S
C597 C596 1.377 . S
C597 C603 1.390 . S
C598 H589 0.930 . S
C598 C596 1.384 . S
C598 C599 1.372 . S
C599 C598 1.372 . S
C599 C600 1.400 . S
C599 C604 1.490 . S
C600 H590 0.930 . S
C600 C599 1.400 . S
C600 C603 1.386 . S
H601 C617 0.930 . S
H602 C618 0.931 . S
C603 H591 0.929 . S
C603 C597 1.390 . S
C603 C600 1.386 . S
C604 C599 1.490 . S
C604 C606 1.395 . S
C604 C607 1.403 . S
H605 C611 0.930 . S
C606 H592 0.930 . S
C606 C604 1.395 . S
C606 C609 1.403 . S
C607 C604 1.403 . S
C607 C608 1.524 . S
C607 C611 1.400 . S
C608 H593 0.960 . S
C608 H594 0.960 . S
C608 H595 0.960 . S
C608 C607 1.524 . S
C609 C606 1.403 . S
C609 C610 1.392 . S
C609 C613 1.495 . S
C610 C609 1.392 . S
C610 C611 1.385 . S
C610 C612 1.478 . S
C611 H605 0.930 . S
C611 C607 1.400 . S
C611 C610 1.385 . S
C612 C610 1.478 . S
C612 C614 1.381 . S
C612 C618 1.383 . S
C613 C609 1.495 . S
C613 H619 0.959 . S
C613 H620 0.961 . S
C613 H621 0.960 . S
C614 C612 1.381 . S
C614 C615 1.394 . S
C614 H622 0.930 . S
C615 C614 1.394 . S
C615 C616 1.383 . S
C615 H623 0.929 . S
C616 C615 1.383 . S
C616 C617 1.377 . S
C617 H601 0.930 . S
C617 C616 1.377 . S
C617 C618 1.379 . S
C618 H602 0.931 . S
C618 C612 1.383 . S
C618 C617 1.379 . S
H619 C613 0.959 . S
H620 C613 0.961 . S
H621 C613 0.960 . S
H622 C614 0.930 . S
H623 C615 0.929 . S
H624 C632 0.929 . S
H625 C634 0.930 . S
H626 C636 0.930 . S
H627 C639 0.929 . S
H628 C642 0.930 . S
H629 C644 0.960 . S
H630 C644 0.960 . S
H631 C644 0.960 . S
C632 H624 0.929 . S
C632 C633 1.377 . S
C632 C634 1.384 . S
C633 C632 1.377 . S
C633 C639 1.390 . S
C634 H625 0.930 . S
C634 C632 1.384 . S
C634 C635 1.372 . S
C635 C634 1.372 . S
C635 C636 1.400 . S
C635 C640 1.490 . S
C636 H626 0.930 . S
C636 C635 1.400 . S
C636 C639 1.386 . S
H637 C653 0.930 . S
H638 C654 0.931 . S
C639 H627 0.929 . S
C639 C633 1.390 . S
C639 C636 1.386 . S
C640 C635 1.490 . S
C640 C642 1.395 . S
C640 C643 1.403 . S
H641 C647 0.930 . S
C642 H628 0.930 . S
C642 C640 1.395 . S
C642 C645 1.403 . S
C643 C640 1.403 . S
C643 C644 1.524 . S
C643 C647 1.400 . S
C644 H629 0.960 . S
C644 H630 0.960 . S
C644 H631 0.960 . S
C644 C643 1.524 . S
C645 C642 1.403 . S
C645 C646 1.392 . S
C645 C649 1.495 . S
C646 C645 1.392 . S
C646 C647 1.385 . S
C646 C648 1.478 . S
C647 H641 0.930 . S
C647 C643 1.400 . S
C647 C646 1.385 . S
C648 C646 1.478 . S
C648 C650 1.381 . S
C648 C654 1.383 . S
C649 C645 1.495 . S
C649 H655 0.959 . S
C649 H656 0.953 1_655 S
C649 H657 0.960 . S
C650 C648 1.381 . S
C650 C651 1.394 . S
C650 H658 0.930 . S
C651 C650 1.394 . S
C651 C652 1.383 . S
C651 H659 0.929 . S
C652 C651 1.383 . S
C652 C653 1.377 . S
C653 H637 0.930 . S
C653 C652 1.377 . S
C653 C654 1.379 . S
C654 H638 0.931 . S
C654 C648 1.383 . S
C654 C653 1.379 . S
H655 C649 0.959 . S
H656 C649 0.953 1_455 S
H657 C649 0.960 . S
H658 C650 0.930 . S
H659 C651 0.929 . S
H660 C668 0.929 . S
H661 C670 0.930 . S
H662 C672 0.930 . S
H663 C675 0.929 . S
H664 C678 0.930 . S
H665 C680 0.960 . S
H666 C680 0.960 . S
H667 C680 0.960 . S
C668 H660 0.929 . S
C668 C669 1.377 . S
C668 C670 1.384 . S
C669 C668 1.377 . S
C669 C675 1.390 . S
C670 H661 0.930 . S
C670 C668 1.384 . S
C670 C671 1.372 . S
C671 C670 1.372 . S
C671 C672 1.400 . S
C671 C676 1.490 . S
C672 H662 0.930 . S
C672 C671 1.400 . S
C672 C675 1.386 . S
H673 C689 0.930 . S
H674 C690 0.931 . S
C675 H663 0.929 . S
C675 C669 1.390 . S
C675 C672 1.386 . S
C676 C671 1.490 . S
C676 C678 1.395 . S
C676 C679 1.403 . S
H677 C683 0.930 . S
C678 H664 0.930 . S
C678 C676 1.395 . S
C678 C681 1.403 . S
C679 C676 1.403 . S
C679 C680 1.524 . S
C679 C683 1.400 . S
C680 H665 0.960 . S
C680 H666 0.960 . S
C680 H667 0.960 . S
C680 C679 1.524 . S
C681 C678 1.403 . S
C681 C682 1.392 . S
C681 C685 1.495 . S
C682 C681 1.392 . S
C682 C683 1.385 . S
C682 C684 1.478 . S
C683 H677 0.930 . S
C683 C679 1.400 . S
C683 C682 1.385 . S
C684 C682 1.478 . S
C684 C686 1.381 . S
C684 C690 1.383 . S
C685 C681 1.495 . S
C685 H691 0.959 . S
C685 H692 0.961 . S
C685 H693 0.960 . S
C686 C684 1.381 . S
C686 C687 1.394 . S
C686 H694 0.930 . S
C687 C686 1.394 . S
C687 C688 1.383 . S
C687 H695 0.929 . S
C688 C687 1.383 . S
C688 C689 1.377 . S
C689 H673 0.930 . S
C689 C688 1.377 . S
C689 C690 1.379 . S
C690 H674 0.931 . S
C690 C684 1.383 . S
C690 C689 1.379 . S
H691 C685 0.959 . S
H692 C685 0.961 . S
H693 C685 0.960 . S
H694 C686 0.930 . S
H695 C687 0.929 . S
H696 C704 0.929 . S
H697 C706 0.930 . S
H698 C708 0.930 . S
H699 C711 0.929 . S
H700 C714 0.930 . S
H701 C716 0.960 . S
H702 C716 0.960 . S
H703 C716 0.960 . S
C704 H696 0.929 . S
C704 C705 1.377 . S
C704 C706 1.384 . S
C705 C704 1.377 . S
C705 C711 1.390 . S
C706 H697 0.930 . S
C706 C704 1.384 . S
C706 C707 1.372 . S
C707 C706 1.372 . S
C707 C708 1.400 . S
C707 C712 1.490 . S
C708 H698 0.930 . S
C708 C707 1.400 . S
C708 C711 1.386 . S
H709 C725 0.930 . S
H710 C726 0.931 . S
C711 H699 0.929 . S
C711 C705 1.390 . S
C711 C708 1.386 . S
C712 C707 1.490 . S
C712 C714 1.395 . S
C712 C715 1.403 . S
H713 C719 0.930 . S
C714 H700 0.930 . S
C714 C712 1.395 . S
C714 C717 1.403 . S
C715 C712 1.403 . S
C715 C716 1.524 . S
C715 C719 1.400 . S
C716 H701 0.960 . S
C716 H702 0.960 . S
C716 H703 0.960 . S
C716 C715 1.524 . S
C717 C714 1.403 . S
C717 C718 1.392 . S
C717 C721 1.495 . S
C718 C717 1.392 . S
C718 C719 1.385 . S
C718 C720 1.478 . S
C719 H713 0.930 . S
C719 C715 1.400 . S
C719 C718 1.385 . S
C720 C718 1.478 . S
C720 C722 1.381 . S
C720 C726 1.383 . S
C721 C717 1.495 . S
C721 H727 0.959 . S
C721 H728 0.961 . S
C721 H729 0.960 . S
C722 C720 1.381 . S
C722 C723 1.394 . S
C722 H730 0.930 . S
C723 C722 1.394 . S
C723 C724 1.383 . S
C723 H731 0.929 . S
C724 C723 1.383 . S
C724 C725 1.377 . S
C725 H709 0.930 . S
C725 C724 1.377 . S
C725 C726 1.379 . S
C726 H710 0.931 . S
C726 C720 1.383 . S
C726 C725 1.379 . S
H727 C721 0.959 . S
H728 C721 0.961 . S
H729 C721 0.960 . S
H730 C722 0.930 . S
H731 C723 0.929 . S
H732 C740 0.929 . S
H733 C742 0.930 . S
H734 C744 0.930 . S
H735 C747 0.929 . S
H736 C750 0.930 . S
H737 C752 0.960 . S
H738 C752 0.960 . S
H739 C752 0.960 . S
C740 H732 0.929 . S
C740 C741 1.377 . S
C740 C742 1.384 . S
C741 C740 1.377 . S
C741 C747 1.390 . S
C742 H733 0.930 . S
C742 C740 1.384 . S
C742 C743 1.372 . S
C743 C742 1.372 . S
C743 C744 1.400 . S
C743 C748 1.490 . S
C744 H734 0.930 . S
C744 C743 1.400 . S
C744 C747 1.386 . S
H745 C761 0.930 . S
H746 C762 0.931 . S
C747 H735 0.929 . S
C747 C741 1.390 . S
C747 C744 1.386 . S
C748 C743 1.490 . S
C748 C750 1.395 . S
C748 C751 1.403 . S
H749 C755 0.930 . S
C750 H736 0.930 . S
C750 C748 1.395 . S
C750 C753 1.403 . S
C751 C748 1.403 . S
C751 C752 1.524 . S
C751 C755 1.400 . S
C752 H737 0.960 . S
C752 H738 0.960 . S
C752 H739 0.960 . S
C752 C751 1.524 . S
C753 C750 1.403 . S
C753 C754 1.392 . S
C753 C757 1.495 . S
C754 C753 1.392 . S
C754 C755 1.385 . S
C754 C756 1.478 . S
C755 H749 0.930 . S
C755 C751 1.400 . S
C755 C754 1.385 . S
C756 C754 1.478 . S
C756 C758 1.381 . S
C756 C762 1.383 . S
C757 C753 1.495 . S
C757 H763 0.959 . S
C757 H764 0.961 . S
C757 H765 0.960 . S
C758 C756 1.381 . S
C758 C759 1.394 . S
C758 H766 0.930 . S
C759 C758 1.394 . S
C759 C760 1.383 . S
C759 H767 0.929 . S
C760 C759 1.383 . S
C760 C761 1.377 . S
C761 H745 0.930 . S
C761 C760 1.377 . S
C761 C762 1.379 . S
C762 H746 0.931 . S
C762 C756 1.383 . S
C762 C761 1.379 . S
H763 C757 0.959 . S
H764 C757 0.961 . S
H765 C757 0.960 . S
H766 C758 0.930 . S
H767 C759 0.929 . S
H768 C776 0.929 . S
H769 C778 0.930 . S
H770 C780 0.930 . S
H771 C783 0.929 . S
H772 C786 0.930 . S
H773 C788 0.960 . S
H774 C788 0.960 . S
H775 C788 0.960 . S
C776 H768 0.929 . S
C776 C777 1.377 . S
C776 C778 1.384 . S
C777 C776 1.377 . S
C777 C783 1.390 . S
C778 H769 0.930 . S
C778 C776 1.384 . S
C778 C779 1.372 . S
C779 C778 1.372 . S
C779 C780 1.400 . S
C779 C784 1.490 . S
C780 H770 0.930 . S
C780 C779 1.400 . S
C780 C783 1.386 . S
H781 C797 0.930 . S
H782 C798 0.931 . S
C783 H771 0.929 . S
C783 C777 1.390 . S
C783 C780 1.386 . S
C784 C779 1.490 . S
C784 C786 1.395 . S
C784 C787 1.403 . S
H785 C791 0.930 . S
C786 H772 0.930 . S
C786 C784 1.395 . S
C786 C789 1.403 . S
C787 C784 1.403 . S
C787 C788 1.524 . S
C787 C791 1.400 . S
C788 H773 0.960 . S
C788 H774 0.960 . S
C788 H775 0.960 . S
C788 C787 1.524 . S
C789 C786 1.403 . S
C789 C790 1.392 . S
C789 C793 1.495 . S
C790 C789 1.392 . S
C790 C791 1.385 . S
C790 C792 1.478 . S
C791 H785 0.930 . S
C791 C787 1.400 . S
C791 C790 1.385 . S
C792 C790 1.478 . S
C792 C794 1.381 . S
C792 C798 1.383 . S
C793 C789 1.495 . S
C793 H799 0.959 . S
C793 H800 0.961 . S
C793 H801 0.960 . S
C794 C792 1.381 . S
C794 C795 1.394 . S
C794 H802 0.930 . S
C795 C794 1.394 . S
C795 C796 1.383 . S
C795 H803 0.929 . S
C796 C795 1.383 . S
C796 C797 1.377 . S
C797 H781 0.930 . S
C797 C796 1.377 . S
C797 C798 1.379 . S
C798 H782 0.931 . S
C798 C792 1.383 . S
C798 C797 1.379 . S
H799 C793 0.959 . S
H800 C793 0.961 . S
H801 C793 0.960 . S
H802 C794 0.930 . S
H803 C795 0.929 . S
H804 C812 0.929 . S
H805 C814 0.930 . S
H806 C816 0.930 . S
H807 C819 0.929 . S
H808 C822 0.930 . S
H809 C824 0.960 . S
H810 C824 0.960 . S
H811 C824 0.960 . S
C812 H804 0.929 . S
C812 C813 1.377 . S
C812 C814 1.384 . S
C813 C812 1.377 . S
C813 C819 1.390 . S
C814 H805 0.930 . S
C814 C812 1.384 . S
C814 C815 1.372 . S
C815 C814 1.372 . S
C815 C816 1.400 . S
C815 C820 1.490 . S
C816 H806 0.930 . S
C816 C815 1.400 . S
C816 C819 1.386 . S
H817 C833 0.930 . S
H818 C834 0.931 . S
C819 H807 0.929 . S
C819 C813 1.390 . S
C819 C816 1.386 . S
C820 C815 1.490 . S
C820 C822 1.395 . S
C820 C823 1.403 . S
H821 C827 0.930 . S
C822 H808 0.930 . S
C822 C820 1.395 . S
C822 C825 1.403 . S
C823 C820 1.403 . S
C823 C824 1.524 . S
C823 C827 1.400 . S
C824 H809 0.960 . S
C824 H810 0.960 . S
C824 H811 0.960 . S
C824 C823 1.524 . S
C825 C822 1.403 . S
C825 C826 1.392 . S
C825 C829 1.495 . S
C826 C825 1.392 . S
C826 C827 1.385 . S
C826 C828 1.478 . S
C827 H821 0.930 . S
C827 C823 1.400 . S
C827 C826 1.385 . S
C828 C826 1.478 . S
C828 C830 1.381 . S
C828 C834 1.383 . S
C829 C825 1.495 . S
C829 H835 0.959 . S
C829 H836 0.961 . S
C829 H837 0.960 . S
C830 C828 1.381 . S
C830 C831 1.394 . S
C830 H838 0.930 . S
C831 C830 1.394 . S
C831 C832 1.383 . S
C831 H839 0.929 1_556 S
C832 C831 1.383 . S
C832 C833 1.377 . S
C833 H817 0.930 . S
C833 C832 1.377 . S
C833 C834 1.379 . S
C834 H818 0.931 . S
C834 C828 1.383 . S
C834 C833 1.379 . S
H835 C829 0.959 . S
H836 C829 0.961 . S
H837 C829 0.960 . S
H838 C830 0.930 . S
H839 C831 0.929 1_554 S
H840 C848 0.929 . S
H841 C850 0.930 . S
H842 C852 0.930 . S
H843 C855 0.929 . S
H844 C858 0.930 . S
H845 C860 0.960 . S
H846 C860 0.960 . S
H847 C860 0.960 . S
C848 H840 0.929 . S
C848 C849 1.377 . S
C848 C850 1.384 . S
C849 C848 1.377 . S
C849 C855 1.390 . S
C850 H841 0.930 . S
C850 C848 1.384 . S
C850 C851 1.372 . S
C851 C850 1.372 . S
C851 C852 1.400 . S
C851 C856 1.490 . S
C852 H842 0.930 . S
C852 C851 1.400 . S
C852 C855 1.386 . S
H853 C869 0.930 . S
H854 C870 0.931 . S
C855 H843 0.929 . S
C855 C849 1.390 . S
C855 C852 1.386 . S
C856 C851 1.490 . S
C856 C858 1.395 . S
C856 C859 1.403 . S
H857 C863 0.930 . S
C858 H844 0.930 . S
C858 C856 1.395 . S
C858 C861 1.403 . S
C859 C856 1.403 . S
C859 C860 1.524 . S
C859 C863 1.400 . S
C860 H845 0.960 . S
C860 H846 0.960 . S
C860 H847 0.960 . S
C860 C859 1.524 . S
C861 C858 1.403 . S
C861 C862 1.392 . S
C861 C865 1.495 . S
C862 C861 1.392 . S
C862 C863 1.385 . S
C862 C864 1.478 . S
C863 H857 0.930 . S
C863 C859 1.400 . S
C863 C862 1.385 . S
C864 C862 1.478 . S
C864 C866 1.381 . S
C864 C870 1.383 . S
C865 C861 1.495 . S
C865 H871 0.959 . S
C865 H872 0.961 . S
C865 H873 0.960 . S
C866 C864 1.381 . S
C866 C867 1.394 . S
C866 H874 0.930 . S
C867 C866 1.394 . S
C867 C868 1.383 . S
C867 H875 0.929 . S
C868 C867 1.383 . S
C868 C869 1.377 . S
C869 H853 0.930 . S
C869 C868 1.377 . S
C869 C870 1.379 . S
C870 H854 0.931 . S
C870 C864 1.383 . S
C870 C869 1.379 . S
H871 C865 0.959 . S
H872 C865 0.961 . S
H873 C865 0.960 . S
H874 C866 0.930 . S
H875 C867 0.929 . S
H876 C884 0.929 . S
H877 C886 0.930 . S
H878 C888 0.930 . S
H879 C891 0.929 . S
H880 C894 0.930 . S
H881 C896 0.960 . S
H882 C896 0.960 . S
H883 C896 0.960 . S
C884 H876 0.929 . S
C884 C885 1.377 . S
C884 C886 1.384 . S
C885 C884 1.377 . S
C885 C891 1.390 . S
C886 H877 0.930 . S
C886 C884 1.384 . S
C886 C887 1.372 . S
C887 C886 1.372 . S
C887 C888 1.400 . S
C887 C892 1.490 . S
C888 H878 0.930 . S
C888 C887 1.400 . S
C888 C891 1.386 . S
H889 C905 0.930 . S
H890 C906 0.931 . S
C891 H879 0.929 . S
C891 C885 1.390 . S
C891 C888 1.386 . S
C892 C887 1.490 . S
C892 C894 1.395 . S
C892 C895 1.403 . S
H893 C899 0.930 . S
C894 H880 0.930 . S
C894 C892 1.395 . S
C894 C897 1.403 . S
C895 C892 1.403 . S
C895 C896 1.524 . S
C895 C899 1.400 . S
C896 H881 0.960 . S
C896 H882 0.960 . S
C896 H883 0.960 . S
C896 C895 1.524 . S
C897 C894 1.403 . S
C897 C898 1.392 . S
C897 C901 1.495 . S
C898 C897 1.392 . S
C898 C899 1.385 . S
C898 C900 1.478 . S
C899 H893 0.930 . S
C899 C895 1.400 . S
C899 C898 1.385 . S
C900 C898 1.478 . S
C900 C902 1.381 . S
C900 C906 1.383 . S
C901 C897 1.495 . S
C901 H907 0.959 . S
C901 H908 0.961 . S
C901 H909 0.960 . S
C902 C900 1.381 . S
C902 C903 1.394 . S
C902 H910 0.930 . S
C903 C902 1.394 . S
C903 C904 1.383 . S
C903 H911 0.929 . S
C904 C903 1.383 . S
C904 C905 1.377 . S
C905 H889 0.930 . S
C905 C904 1.377 . S
C905 C906 1.379 . S
C906 H890 0.931 . S
C906 C900 1.383 . S
C906 C905 1.379 . S
H907 C901 0.959 . S
H908 C901 0.961 . S
H909 C901 0.960 . S
H910 C902 0.930 . S
H911 C903 0.929 . S
H912 C920 0.929 . S
H913 C922 0.930 . S
H914 C924 0.930 . S
H915 C927 0.929 . S
H916 C930 0.930 . S
H917 C932 0.960 . S
H918 C932 0.960 . S
H919 C932 0.960 . S
C920 H912 0.929 . S
C920 C921 1.377 . S
C920 C922 1.384 . S
C921 C920 1.377 . S
C921 C927 1.390 . S
C922 H913 0.930 . S
C922 C920 1.384 . S
C922 C923 1.372 . S
C923 C922 1.372 . S
C923 C924 1.400 . S
C923 C928 1.490 . S
C924 H914 0.930 . S
C924 C923 1.400 . S
C924 C927 1.386 . S
H925 C941 0.930 . S
H926 C942 0.931 . S
C927 H915 0.929 . S
C927 C921 1.390 . S
C927 C924 1.386 . S
C928 C923 1.490 . S
C928 C930 1.395 . S
C928 C931 1.403 . S
H929 C935 0.930 . S
C930 H916 0.930 . S
C930 C928 1.395 . S
C930 C933 1.403 . S
C931 C928 1.403 . S
C931 C932 1.524 . S
C931 C935 1.400 . S
C932 H917 0.960 . S
C932 H918 0.960 . S
C932 H919 0.960 . S
C932 C931 1.524 . S
C933 C930 1.403 . S
C933 C934 1.392 . S
C933 C937 1.495 . S
C934 C933 1.392 . S
C934 C935 1.385 . S
C934 C936 1.478 . S
C935 H929 0.930 . S
C935 C931 1.400 . S
C935 C934 1.385 . S
C936 C934 1.478 . S
C936 C938 1.381 . S
C936 C942 1.383 . S
C937 C933 1.495 . S
C937 H943 0.959 . S
C937 H944 0.961 . S
C937 H945 0.960 . S
C938 C936 1.381 . S
C938 C939 1.394 . S
C938 H946 0.930 . S
C939 C938 1.394 . S
C939 C940 1.383 . S
C939 H947 0.929 . S
C940 C939 1.383 . S
C940 C941 1.377 . S
C941 H925 0.930 . S
C941 C940 1.377 . S
C941 C942 1.379 . S
C942 H926 0.931 . S
C942 C936 1.383 . S
C942 C941 1.379 . S
H943 C937 0.959 . S
H944 C937 0.961 . S
H945 C937 0.960 . S
H946 C938 0.930 . S
H947 C939 0.929 . S
H948 C956 0.929 . S
H949 C958 0.930 . S
H950 C960 0.930 . S
H951 C963 0.929 . S
H952 C966 0.930 . S
H953 C968 0.960 . S
H954 C968 0.960 . S
H955 C968 0.960 . S
C956 H948 0.929 . S
C956 C957 1.377 . S
C956 C958 1.384 . S
C957 C956 1.377 . S
C957 C963 1.390 . S
C958 H949 0.930 . S
C958 C956 1.384 . S
C958 C959 1.372 . S
C959 C958 1.372 . S
C959 C960 1.400 . S
C959 C964 1.490 . S
C960 H950 0.930 . S
C960 C959 1.400 . S
C960 C963 1.386 . S
H961 C977 0.930 . S
H962 C978 0.931 . S
C963 H951 0.929 . S
C963 C957 1.390 . S
C963 C960 1.386 . S
C964 C959 1.490 . S
C964 C966 1.395 . S
C964 C967 1.403 . S
H965 C971 0.930 . S
C966 H952 0.930 . S
C966 C964 1.395 . S
C966 C969 1.403 . S
C967 C964 1.403 . S
C967 C968 1.524 . S
C967 C971 1.400 . S
C968 H953 0.960 . S
C968 H954 0.960 . S
C968 H955 0.960 . S
C968 C967 1.524 . S
C969 C966 1.403 . S
C969 C970 1.392 . S
C969 C973 1.495 . S
C970 C969 1.392 . S
C970 C971 1.385 . S
C970 C972 1.478 . S
C971 H965 0.930 . S
C971 C967 1.400 . S
C971 C970 1.385 . S
C972 C970 1.478 . S
C972 C974 1.381 . S
C972 C978 1.383 . S
C973 C969 1.495 . S
C973 H979 0.959 . S
C973 H980 0.961 . S
C973 H981 0.960 . S
C974 C972 1.381 . S
C974 C975 1.394 . S
C974 H982 0.930 . S
C975 C974 1.394 . S
C975 C976 1.383 . S
C975 H983 0.929 . S
C976 C975 1.383 . S
C976 C977 1.377 . S
C977 H961 0.930 . S
C977 C976 1.377 . S
C977 C978 1.379 . S
C978 H962 0.931 . S
C978 C972 1.383 . S
C978 C977 1.379 . S
H979 C973 0.959 . S
H980 C973 0.961 . S
H981 C973 0.960 . S
H982 C974 0.930 . S
H983 C975 0.929 . S
H984 C992 0.929 . S
H985 C994 0.930 . S
H986 C996 0.930 . S
H987 C999 0.929 . S
H988 C1002 0.930 . S
H989 C1004 0.960 . S
H990 C1004 0.960 . S
H991 C1004 0.960 . S
C992 H984 0.929 . S
C992 C993 1.377 . S
C992 C994 1.384 . S
C993 C992 1.377 . S
C993 C999 1.390 . S
C994 H985 0.930 . S
C994 C992 1.384 . S
C994 C995 1.372 . S
C995 C994 1.372 . S
C995 C996 1.400 . S
C995 C1000 1.490 . S
C996 H986 0.930 . S
C996 C995 1.400 . S
C996 C999 1.386 . S
H997 C1013 0.930 1_554 S
H998 C1014 0.931 . S
C999 H987 0.929 . S
C999 C993 1.390 . S
C999 C996 1.386 . S
C1000 C995 1.490 . S
C1000 C1002 1.395 . S
C1000 C1003 1.403 . S
H1001 C1007 0.930 . S
C1002 H988 0.930 . S
C1002 C1000 1.395 . S
C1002 C1005 1.403 . S
C1003 C1000 1.403 . S
C1003 C1004 1.524 . S
C1003 C1007 1.400 . S
C1004 H989 0.960 . S
C1004 H990 0.960 . S
C1004 H991 0.960 . S
C1004 C1003 1.524 . S
C1005 C1002 1.403 . S
C1005 C1006 1.392 . S
C1005 C1009 1.495 . S
C1006 C1005 1.392 . S
C1006 C1007 1.385 . S
C1006 C1008 1.478 . S
C1007 H1001 0.930 . S
C1007 C1003 1.400 . S
C1007 C1006 1.385 . S
C1008 C1006 1.478 . S
C1008 C1010 1.381 . S
C1008 C1014 1.383 . S
C1009 C1005 1.495 . S
C1009 H1015 0.959 . S
C1009 H1016 0.961 . S
C1009 H1017 0.960 . S
C1010 C1008 1.381 . S
C1010 C1011 1.394 . S
C1010 H1018 0.930 . S
C1011 C1010 1.394 . S
C1011 C1012 1.383 . S
C1011 H1019 0.929 . S
C1012 C1011 1.383 . S
C1012 C1013 1.377 . S
C1013 H997 0.930 1_556 S
C1013 C1012 1.377 . S
C1013 C1014 1.379 . S
C1014 H998 0.931 . S
C1014 C1008 1.383 . S
C1014 C1013 1.379 . S
H1015 C1009 0.959 . S
H1016 C1009 0.961 . S
H1017 C1009 0.960 . S
H1018 C1010 0.930 . S
H1019 C1011 0.929 . S
H1020 C1028 0.929 . S
H1021 C1030 0.930 . S
H1022 C1032 0.930 . S
H1023 C1035 0.929 . S
H1024 C1038 0.930 . S
H1025 C1040 0.960 . S
H1026 C1040 0.960 . S
H1027 C1040 0.960 . S
C1028 H1020 0.929 . S
C1028 C1029 1.377 . S
C1028 C1030 1.384 . S
C1029 C1028 1.377 . S
C1029 C1035 1.390 . S
C1030 H1021 0.930 . S
C1030 C1028 1.384 . S
C1030 C1031 1.372 . S
C1031 C1030 1.372 . S
C1031 C1032 1.400 . S
C1031 C1036 1.490 . S
C1032 H1022 0.930 . S
C1032 C1031 1.400 . S
C1032 C1035 1.386 . S
H1033 C1049 0.930 . S
H1034 C1050 0.931 . S
C1035 H1023 0.929 . S
C1035 C1029 1.390 . S
C1035 C1032 1.386 . S
C1036 C1031 1.490 . S
C1036 C1038 1.395 . S
C1036 C1039 1.403 . S
H1037 C1043 0.930 . S
C1038 H1024 0.930 . S
C1038 C1036 1.395 . S
C1038 C1041 1.403 . S
C1039 C1036 1.403 . S
C1039 C1040 1.524 . S
C1039 C1043 1.400 . S
C1040 H1025 0.960 . S
C1040 H1026 0.960 . S
C1040 H1027 0.960 . S
C1040 C1039 1.524 . S
C1041 C1038 1.403 . S
C1041 C1042 1.392 . S
C1041 C1045 1.495 . S
C1042 C1041 1.392 . S
C1042 C1043 1.385 . S
C1042 C1044 1.478 . S
C1043 H1037 0.930 . S
C1043 C1039 1.400 . S
C1043 C1042 1.385 . S
C1044 C1042 1.478 . S
C1044 C1046 1.381 . S
C1044 C1050 1.383 . S
C1045 C1041 1.495 . S
C1045 H1051 0.959 . S
C1045 H1052 0.961 . S
C1045 H1053 0.960 . S
C1046 C1044 1.381 . S
C1046 C1047 1.394 . S
C1046 H1054 0.930 . S
C1047 C1046 1.394 . S
C1047 C1048 1.383 . S
C1047 H1055 0.929 . S
C1048 C1047 1.383 . S
C1048 C1049 1.377 . S
C1049 H1033 0.930 . S
C1049 C1048 1.377 . S
C1049 C1050 1.379 . S
C1050 H1034 0.931 . S
C1050 C1044 1.383 . S
C1050 C1049 1.379 . S
H1051 C1045 0.959 . S
H1052 C1045 0.961 . S
H1053 C1045 0.960 . S
H1054 C1046 0.930 . S
H1055 C1047 0.929 . S
H1056 C1064 0.929 . S
H1057 C1066 0.930 . S
H1058 C1068 0.930 . S
H1059 C1071 0.929 . S
H1060 C1074 0.930 . S
H1061 C1076 0.960 . S
H1062 C1076 0.960 . S
H1063 C1076 0.960 . S
C1064 H1056 0.929 . S
C1064 C1065 1.377 . S
C1064 C1066 1.384 . S
C1065 C1064 1.377 . S
C1065 C1071 1.390 . S
C1066 H1057 0.930 . S
C1066 C1064 1.384 . S
C1066 C1067 1.372 . S
C1067 C1066 1.372 . S
C1067 C1068 1.400 . S
C1067 C1072 1.490 . S
C1068 H1058 0.930 . S
C1068 C1067 1.400 . S
C1068 C1071 1.386 . S
H1069 C1085 0.930 . S
H1070 C1086 0.931 . S
C1071 H1059 0.929 . S
C1071 C1065 1.390 . S
C1071 C1068 1.386 . S
C1072 C1067 1.490 . S
C1072 C1074 1.395 . S
C1072 C1075 1.403 . S
H1073 C1079 0.930 . S
C1074 H1060 0.930 . S
C1074 C1072 1.395 . S
C1074 C1077 1.403 . S
C1075 C1072 1.403 . S
C1075 C1076 1.524 . S
C1075 C1079 1.400 . S
C1076 H1061 0.960 . S
C1076 H1062 0.960 . S
C1076 H1063 0.960 . S
C1076 C1075 1.524 . S
C1077 C1074 1.403 . S
C1077 C1078 1.392 . S
C1077 C1081 1.495 . S
C1078 C1077 1.392 . S
C1078 C1079 1.385 . S
C1078 C1080 1.478 . S
C1079 H1073 0.930 . S
C1079 C1075 1.400 . S
C1079 C1078 1.385 . S
C1080 C1078 1.478 . S
C1080 C1082 1.381 . S
C1080 C1086 1.383 . S
C1081 C1077 1.495 . S
C1081 H1087 0.959 . S
C1081 H1088 0.961 . S
C1081 H1089 0.960 . S
C1082 C1080 1.381 . S
C1082 C1083 1.394 . S
C1082 H1090 0.930 . S
C1083 C1082 1.394 . S
C1083 C1084 1.383 . S
C1083 H1091 0.929 . S
C1084 C1083 1.383 . S
C1084 C1085 1.377 . S
C1085 H1069 0.930 . S
C1085 C1084 1.377 . S
C1085 C1086 1.379 . S
C1086 H1070 0.931 . S
C1086 C1080 1.383 . S
C1086 C1085 1.379 . S
H1087 C1081 0.959 . S
H1088 C1081 0.961 . S
H1089 C1081 0.960 . S
H1090 C1082 0.930 . S
H1091 C1083 0.929 . S
H1092 C1100 0.929 . S
H1093 C1102 0.930 . S
H1094 C1104 0.930 . S
H1095 C1107 0.929 . S
H1096 C1110 0.930 . S
H1097 C1112 0.960 . S
H1098 C1112 0.960 . S
H1099 C1112 0.960 . S
C1100 H1092 0.929 . S
C1100 C1101 1.377 . S
C1100 C1102 1.384 . S
C1101 C1100 1.377 . S
C1101 C1107 1.390 . S
C1102 H1093 0.930 . S
C1102 C1100 1.384 . S
C1102 C1103 1.372 . S
C1103 C1102 1.372 . S
C1103 C1104 1.400 . S
C1103 C1108 1.490 . S
C1104 H1094 0.930 . S
C1104 C1103 1.400 . S
C1104 C1107 1.386 . S
H1105 C1121 0.930 . S
H1106 C1122 0.931 . S
C1107 H1095 0.929 . S
C1107 C1101 1.390 . S
C1107 C1104 1.386 . S
C1108 C1103 1.490 . S
C1108 C1110 1.395 . S
C1108 C1111 1.403 . S
H1109 C1115 0.930 . S
C1110 H1096 0.930 . S
C1110 C1108 1.395 . S
C1110 C1113 1.403 . S
C1111 C1108 1.403 . S
C1111 C1112 1.524 . S
C1111 C1115 1.400 . S
C1112 H1097 0.960 . S
C1112 H1098 0.960 . S
C1112 H1099 0.960 . S
C1112 C1111 1.524 . S
C1113 C1110 1.403 . S
C1113 C1114 1.392 . S
C1113 C1117 1.495 . S
C1114 C1113 1.392 . S
C1114 C1115 1.385 . S
C1114 C1116 1.478 . S
C1115 H1109 0.930 . S
C1115 C1111 1.400 . S
C1115 C1114 1.385 . S
C1116 C1114 1.478 . S
C1116 C1118 1.381 . S
C1116 C1122 1.383 . S
C1117 C1113 1.495 . S
C1117 H1123 0.959 . S
C1117 H1124 0.961 . S
C1117 H1125 0.960 . S
C1118 C1116 1.381 . S
C1118 C1119 1.394 . S
C1118 H1126 0.930 . S
C1119 C1118 1.394 . S
C1119 C1120 1.383 . S
C1119 H1127 0.929 . S
C1120 C1119 1.383 . S
C1120 C1121 1.377 . S
C1121 H1105 0.930 . S
C1121 C1120 1.377 . S
C1121 C1122 1.379 . S
C1122 H1106 0.931 . S
C1122 C1116 1.383 . S
C1122 C1121 1.379 . S
H1123 C1117 0.959 . S
H1124 C1117 0.961 . S
H1125 C1117 0.960 . S
H1126 C1118 0.930 . S
H1127 C1119 0.929 . S
C273 C9 1.429 . S
C292 C119 1.457 . S
C309 C21 1.366 . S
C328 C163 1.341 . S
C364 C193 1.789 . S
C345 C30 1.750 . S
C381 C43 2.465 . S
C400 C234 2.480 . S
C436 C150 0.591 . S
C417 C4 0.638 . S
C472 C114 3.162 . S
C453 C22 3.151 . S
C508 C242 0.770 . S
C489 C34 0.757 . S
C544 C203 1.816 . S
C525 C48 1.865 . S
C561 C8 0.860 . S
C580 C239 0.892 . S
C616 C153 1.757 . S
C597 C35 1.794 . S
C633 C47 2.247 . S
C652 C122 2.157 . S
C669 C17 1.863 . S
C688 C190 1.882 . S
C724 C110 0.850 . S
C705 C60 0.828 . S
C741 C74 1.588 . S
C760 C154 1.586 . S
C777 C82 1.314 . S
C796 C202 1.424 . S
C813 C100 3.059 . S
C832 C243 3.020 1_556 S
C849 C61 1.097 . S
C868 C159 1.107 . S
C904 C123 2.476 . S
C885 C73 2.454 . S
C940 C233 1.368 . S
C921 C87 1.380 . S
C976 C194 1.832 . S
C957 C95 1.914 . S
C993 C56 0.676 . S
C1012 C230 0.701 . S
C1048 C162 2.125 . S
C1029 C86 2.163 . S
C1084 C113 2.006 . S
C1065 C99 2.067 . S
C1101 C69 1.649 . S
C1120 C199 1.760 . S
