# Generated by pormake.
# Topology pyr, (3,6)-cn, num edge types: 1
# Building blocks:
#     Node 0, Type 0, BuildingBlock: CUQRIR_clean_linker_1, # of connection points: 3
#     Node 1, Type 0, BuildingBlock: CUQRIR_clean_linker_1, # of connection points: 3
#     Node 2, Type 0, BuildingBlock: CUQRIR_clean_linker_1, # of connection points: 3
#     Node 3, Type 0, BuildingBlock: CUQRIR_clean_linker_1, # of connection points: 3
#     Node 4, Type 0, BuildingBlock: CUQRIR_clean_linker_1, # of connection points: 3
#     Node 5, Type 0, BuildingBlock: CUQRIR_clean_linker_1, # of connection points: 3
#     Node 6, Type 0, BuildingBlock: CUQRIR_clean_linker_1, # of connection points: 3
#     Node 7, Type 0, BuildingBlock: CUQRIR_clean_linker_1, # of connection points: 3
#     Node 8, Type 1, BuildingBlock: GEDQOX_clean_sbu_0, # of connection points: 6
#     Node 9, Type 1, BuildingBlock: GEDQOX_clean_sbu_0, # of connection points: 6
#     Node 10, Type 1, BuildingBlock: GEDQOX_clean_sbu_0, # of connection points: 6
#     Node 11, Type 1, BuildingBlock: GEDQOX_clean_sbu_0, # of connection points: 6
#     Edge 12, Type (0, 1), BuildingBlock: XIVTED_clean_linker_0, # of connection points: 2
#     Edge 13, Type (0, 1), BuildingBlock: XIVTED_clean_linker_0, # of connection points: 2
#     Edge 14, Type (0, 1), BuildingBlock: XIVTED_clean_linker_0, # of connection points: 2
#     Edge 15, Type (0, 1), BuildingBlock: XIVTED_clean_linker_0, # of connection points: 2
#     Edge 16, Type (0, 1), BuildingBlock: XIVTED_clean_linker_0, # of connection points: 2
#     Edge 17, Type (0, 1), BuildingBlock: XIVTED_clean_linker_0, # of connection points: 2
#     Edge 18, Type (0, 1), BuildingBlock: XIVTED_clean_linker_0, # of connection points: 2
#     Edge 19, Type (0, 1), BuildingBlock: XIVTED_clean_linker_0, # of connection points: 2
#     Edge 20, Type (0, 1), BuildingBlock: XIVTED_clean_linker_0, # of connection points: 2
#     Edge 21, Type (0, 1), BuildingBlock: XIVTED_clean_linker_0, # of connection points: 2
#     Edge 22, Type (0, 1), BuildingBlock: XIVTED_clean_linker_0, # of connection points: 2
#     Edge 23, Type (0, 1), BuildingBlock: XIVTED_clean_linker_0, # of connection points: 2
#     Edge 24, Type (0, 1), BuildingBlock: XIVTED_clean_linker_0, # of connection points: 2
#     Edge 25, Type (0, 1), BuildingBlock: XIVTED_clean_linker_0, # of connection points: 2
#     Edge 26, Type (0, 1), BuildingBlock: XIVTED_clean_linker_0, # of connection points: 2
#     Edge 27, Type (0, 1), BuildingBlock: XIVTED_clean_linker_0, # of connection points: 2
#     Edge 28, Type (0, 1), BuildingBlock: XIVTED_clean_linker_0, # of connection points: 2
#     Edge 29, Type (0, 1), BuildingBlock: XIVTED_clean_linker_0, # of connection points: 2
#     Edge 30, Type (0, 1), BuildingBlock: XIVTED_clean_linker_0, # of connection points: 2
#     Edge 31, Type (0, 1), BuildingBlock: XIVTED_clean_linker_0, # of connection points: 2
#     Edge 32, Type (0, 1), BuildingBlock: XIVTED_clean_linker_0, # of connection points: 2
#     Edge 33, Type (0, 1), BuildingBlock: XIVTED_clean_linker_0, # of connection points: 2
#     Edge 34, Type (0, 1), BuildingBlock: XIVTED_clean_linker_0, # of connection points: 2
#     Edge 35, Type (0, 1), BuildingBlock: XIVTED_clean_linker_0, # of connection points: 2
# Relax obj value: 0.191
# Max RMSD: 0.235
# Mean RMSD: 0.165
data_MOF--net-pyr--node1-GEDQOX_clean_sbu_0--node2-CUQRIR_clean_linker_1--edge1-XIVTED_clean_linker_0
_symmetry_space_group_name_H-M    P1
_symmetry_Int_Tables_number       1
_symmetry_cell_setting            triclinic
loop_
_symmetry_equiv_pos_as_xyz
'x, y, z'
_cell_length_a     37.574595
_cell_length_b     37.189938
_cell_length_c     32.511464
_cell_angle_alpha  86.689699
_cell_angle_beta   92.924678
_cell_angle_gamma 90.155948
loop_
_atom_site_label
_atom_site_type_symbol
_atom_site_fract_x
_atom_site_fract_y
_atom_site_fract_z
_atom_type_partial_charge
C0 C 0.20187 0.21492 0.17926 0.0
N1 N 0.22366 0.18517 0.18764 0.0
N2 N 0.21123 0.23618 0.14551 0.0
C3 C 0.17103 0.2237 0.20492 0.0
C4 C 0.24048 0.21767 0.13371 0.0
N5 N 0.24861 0.18683 0.15851 0.0
C6 C 0.26117 0.22965 0.09691 0.0
H7 H 0.14651 0.21112 0.19179 0.0
H8 H 0.16697 0.25321 0.20492 0.0
H9 H 0.17484 0.21336 0.23738 0.0
H10 H 0.28239 0.24855 0.10685 0.0
H11 H 0.24353 0.24369 0.07276 0.0
H12 H 0.27409 0.20678 0.08323 0.0
C13 C 0.388 0.75463 0.75924 0.0
N14 N 0.38563 0.78381 0.78186 0.0
N15 N 0.42061 0.73952 0.76547 0.0
C16 C 0.36086 0.74456 0.72585 0.0
C17 C 0.43835 0.76119 0.79159 0.0
N18 N 0.41705 0.78823 0.8014 0.0
C19 C 0.47661 0.75656 0.80662 0.0
H20 H 0.34238 0.72418 0.73905 0.0
H21 H 0.3738 0.73289 0.69976 0.0
H22 H 0.345 0.76817 0.7133 0.0
H23 H 0.49347 0.77453 0.78731 0.0
H24 H 0.48548 0.72831 0.80455 0.0
H25 H 0.48026 0.76442 0.83897 0.0
C26 C 0.70759 0.41713 0.85339 0.0
N27 N 0.7356 0.41177 0.88086 0.0
N28 N 0.71694 0.43862 0.82079 0.0
C29 C 0.67229 0.39801 0.85613 0.0
C30 C 0.75161 0.44627 0.82921 0.0
N31 N 0.76302 0.42954 0.86552 0.0
C32 C 0.77484 0.46779 0.80058 0.0
H33 H 0.67596 0.36913 0.8505 0.0
H34 H 0.65196 0.40981 0.83337 0.0
H35 H 0.66227 0.39961 0.88745 0.0
H36 H 0.75906 0.48818 0.78134 0.0
H37 H 0.78709 0.4493 0.77973 0.0
H38 H 0.79647 0.48147 0.8182 0.0
C39 C 0.82151 0.82451 0.25476 0.0
N40 N 0.85359 0.84104 0.25411 0.0
N41 N 0.80003 0.84033 0.28066 0.0
C42 C 0.81462 0.78754 0.23896 0.0
C43 C 0.8198 0.86843 0.29364 0.0
N44 N 0.85261 0.86823 0.2786 0.0
C45 C 0.80859 0.89306 0.32573 0.0
H46 H 0.7867 0.78542 0.22663 0.0
H47 H 0.81889 0.76689 0.26479 0.0
H48 H 0.83259 0.78158 0.21421 0.0
H49 H 0.81966 0.88331 0.35662 0.0
H50 H 0.7791 0.89389 0.32649 0.0
H51 H 0.81914 0.92057 0.31907 0.0
C52 C 0.8538 0.86325 0.88538 0.0
N53 N 0.88313 0.85699 0.8623 0.0
N54 N 0.83543 0.89453 0.87297 0.0
C55 C 0.84172 0.83766 0.91957 0.0
C56 C 0.85531 0.90682 0.84033 0.0
N57 N 0.8838 0.88462 0.8331 0.0
C58 C 0.84706 0.94165 0.81568 0.0
H59 H 0.81952 0.82109 0.90717 0.0
H60 H 0.83207 0.85287 0.94517 0.0
H61 H 0.86247 0.81867 0.9323 0.0
H62 H 0.85893 0.9642 0.83256 0.0
H63 H 0.81785 0.94579 0.81163 0.0
H64 H 0.85821 0.94314 0.7849 0.0
C65 C 0.71339 0.30129 0.30067 0.0
N66 N 0.71929 0.27091 0.28145 0.0
N67 N 0.68464 0.31863 0.28279 0.0
C68 C 0.73261 0.31157 0.34022 0.0
C69 C 0.67325 0.29764 0.25211 0.0
N70 N 0.69469 0.26863 0.25103 0.0
C71 C 0.63898 0.30318 0.2266 0.0
H72 H 0.71505 0.30594 0.36626 0.0
H73 H 0.73873 0.34076 0.33879 0.0
H74 H 0.75792 0.29652 0.34656 0.0
H75 H 0.64416 0.30264 0.19339 0.0
H76 H 0.62622 0.32923 0.23202 0.0
H77 H 0.62043 0.28078 0.2342 0.0
C78 C 0.34331 0.6226 0.18772 0.0
N79 N 0.37735 0.63162 0.19733 0.0
N80 N 0.33343 0.63605 0.14937 0.0
C81 C 0.32013 0.60001 0.21533 0.0
C82 C 0.36261 0.65358 0.13601 0.0
N83 N 0.38958 0.6506 0.16522 0.0
C84 C 0.36327 0.67697 0.09667 0.0
H85 H 0.29964 0.58542 0.19698 0.0
H86 H 0.30645 0.61786 0.2357 0.0
H87 H 0.33643 0.58035 0.23513 0.0
H88 H 0.33601 0.68519 0.08527 0.0
H89 H 0.37542 0.66159 0.07272 0.0
H90 H 0.37949 0.70151 0.10132 0.0
C91 C 0.21837 0.19555 0.79679 0.0
N92 N 0.23355 0.20188 0.76029 0.0
N93 N 0.22647 0.22182 0.82293 0.0
C94 C 0.19301 0.1651 0.80573 0.0
C95 C 0.24853 0.24383 0.8012 0.0
N96 N 0.25292 0.2315 0.76348 0.0
C97 C 0.25881 0.28136 0.81322 0.0
H98 H 0.16663 0.17114 0.79005 0.0
H99 H 0.18973 0.16091 0.8394 0.0
H100 H 0.20309 0.14005 0.79341 0.0
H101 H 0.27492 0.27958 0.84282 0.0
H102 H 0.23446 0.29715 0.81785 0.0
H103 H 0.27417 0.29659 0.78985 0.0
Nd104 Nd 0.08867 0.99404 0.51214 0.0
Nd105 Nd 0.04287 0.04871 0.50682 0.0
C106 C 0.12367 0.93265 0.51989 0.0
C107 C 0.14667 0.9176 0.55429 0.0
C108 C 0.13427 0.91335 0.59439 0.0
C109 C 0.15783 0.90386 0.62766 0.0
C110 C 0.19407 0.8989 0.62133 0.0
C111 C 0.2063 0.90261 0.58122 0.0
C112 C 0.18272 0.91177 0.54793 0.0
C113 C 0.1182 0.05171 0.55159 0.0
C114 C 1.02868 0.98836 0.58489 0.0
C115 C 1.00012 0.1037 0.51343 0.0
C116 C 0.97696 0.12461 0.48423 0.0
C117 C 0.95418 0.15 0.49878 0.0
C118 C 0.92713 0.16511 0.47264 0.0
C119 C 0.92257 0.15459 0.4319 0.0
C120 C 0.94674 0.1306 0.41675 0.0
C121 C 0.9739 0.11567 0.44288 0.0
C122 C 1.02688 1.00324 0.44402 0.0
C123 C 0.10427 0.05476 0.43751 0.0
O124 O 0.0898 0.93506 0.5262 0.0
O125 O 0.13603 0.96153 0.50104 0.0
O126 O 0.13503 0.03243 0.52721 0.0
O127 O 0.08693 0.04024 0.55536 0.0
O128 O 0.06029 0.97665 0.57458 0.0
O129 O 1.0146 1.01551 0.56118 0.0
O130 O 0.03435 0.10746 0.50928 0.0
O131 O 0.99031 0.07021 0.51913 0.0
O132 O 1.02798 0.03787 0.439 0.0
O133 O 0.03399 0.99346 0.48117 0.0
O134 O 0.08656 0.0743 0.4628 0.0
O135 O 0.10344 0.0193 0.44587 0.0
H136 H 0.10665 0.91826 0.60032 0.0
H137 H 0.14792 0.90128 0.65841 0.0
H138 H 0.23411 0.8984 0.57558 0.0
H139 H 0.19282 0.91536 0.51733 0.0
H140 H 0.95629 0.15686 0.53076 0.0
H141 H 0.909 0.18404 0.48465 0.0
H142 H 0.94352 0.12196 0.38551 0.0
H143 H 0.99131 0.09586 0.43141 0.0
Nd144 Nd 0.54056 1.01858 0.0559 0.0
Nd145 Nd 0.54442 0.05475 0.99686 0.0
C146 C 0.5312 0.96797 0.1148 0.0
C147 C 0.53724 0.92976 0.12337 0.0
C148 C 0.55091 0.90842 0.09374 0.0
C149 C 0.55208 0.87108 0.10081 0.0
C150 C 0.53927 0.85489 0.13738 0.0
C151 C 0.52717 0.87693 0.16757 0.0
C152 C 0.5263 0.91409 0.16059 0.0
C153 C 0.48378 0.06937 0.06238 0.0
C154 C 0.50718 0.98493 0.97498 0.0
C155 C 0.5458 0.11315 0.94712 0.0
C156 C 0.57367 0.1405 0.94388 0.0
C157 C 0.56393 0.17674 0.93781 0.0
C158 C 0.5896 0.20358 0.94193 0.0
C159 C 0.62537 0.19447 0.95216 0.0
C160 C 0.63527 0.15808 0.95726 0.0
C161 C 0.6095 0.13123 0.95351 0.0
C162 C 0.60258 1.0069 0.98589 0.0
C163 C 0.59128 0.08079 0.07679 0.0
O164 O 0.55937 0.98827 0.1135 0.0
O165 O 0.50745 0.97639 0.08535 0.0
O166 O 0.51127 0.06464 0.08769 0.0
O167 O 0.49038 0.05167 0.03069 0.0
O168 O 0.52742 0.97619 1.00796 0.0
O169 O 0.5034 0.01916 0.96495 0.0
O170 O 0.53048 0.11189 0.98219 0.0
O171 O 0.55344 0.08128 0.93536 0.0
O172 O 0.57922 0.01913 0.95789 0.0
O173 O 0.59402 0.0188 0.02084 0.0
O174 O 0.57726 0.09106 0.04039 0.0
O175 O 0.58335 0.04882 0.09164 0.0
H176 H 0.55944 0.92051 0.06475 0.0
H177 H 0.56181 0.85488 0.07713 0.0
H178 H 0.51627 0.86554 0.19562 0.0
H179 H 0.51551 0.93049 0.1835 0.0
H180 H 0.5363 0.18428 0.93127 0.0
H181 H 0.58144 0.2315 0.93732 0.0
H182 H 0.66265 0.15048 0.96541 0.0
H183 H 0.61737 0.10333 0.95954 0.0
Nd184 Nd 0.50247 0.50069 0.51383 0.0
Nd185 Nd 0.56808 0.54707 0.51834 0.0
C186 C 0.43921 0.47156 0.50361 0.0
C187 C 0.41678 0.4513 0.53152 0.0
C188 C 0.38057 0.44706 0.52116 0.0
C189 C 0.35957 0.42598 0.54711 0.0
C190 C 0.37485 0.4086 0.58334 0.0
C191 C 0.41119 0.41371 0.59384 0.0
C192 C 0.43192 0.43523 0.56829 0.0
C193 C 0.55249 0.47939 0.57523 0.0
C194 C 0.5053 0.56912 0.57092 0.0
C195 C 0.63187 0.57536 0.52619 0.0
C196 C 0.65217 0.59599 0.49644 0.0
C197 C 0.68689 0.60675 0.50684 0.0
C198 C 0.70439 0.63047 0.48005 0.0
C199 C 0.68692 0.64404 0.44306 0.0
C200 C 0.65272 0.63149 0.43192 0.0
C201 C 0.63553 0.60739 0.45839 0.0
C202 C 0.51847 0.56918 0.45695 0.0
C203 C 0.56625 0.47848 0.46268 0.0
O204 O 0.4437 0.50552 0.51097 0.0
O205 O 0.46874 0.4552 0.49612 0.0
O206 O 0.53281 0.45637 0.55608 0.0
O207 O 0.54284 0.51059 0.56452 0.0
O208 O 0.4842 0.55103 0.54577 0.0
O209 O 0.53985 0.56409 0.57293 0.0
O210 O 0.62667 0.5416 0.5184 0.0
O211 O 0.60307 0.59162 0.53635 0.0
O212 O 0.53788 0.59151 0.47743 0.0
O213 O 0.52767 0.53754 0.4669 0.0
O214 O 0.58637 0.49623 0.48891 0.0
O215 O 0.53159 0.48278 0.45986 0.0
H216 H 0.36871 0.45966 0.49286 0.0
H217 H 0.33153 0.423 0.5386 0.0
H218 H 0.42399 0.40021 0.62105 0.0
H219 H 0.45999 0.43854 0.57665 0.0
H220 H 0.69992 0.59781 0.53614 0.0
H221 H 0.73108 0.63916 0.48894 0.0
H222 H 0.6384 0.64172 0.40394 0.0
H223 H 0.60859 0.59899 0.4501 0.0
Nd224 Nd 1.0324 0.54963 0.03701 0.0
Nd225 Nd 0.06609 0.54441 0.95797 0.0
C226 C 1.0017 0.54528 0.10761 0.0
C227 C 0.99691 0.57412 0.13525 0.0
C228 C 0.96534 0.57657 0.15586 0.0
C229 C 0.95833 0.60751 0.17631 0.0
C230 C 0.98275 0.63621 0.17576 0.0
C231 C 1.01491 0.63304 0.15646 0.0
C232 C 1.02202 0.60214 0.13649 0.0
C233 C 0.09247 0.59129 0.03016 0.0
C234 C 1.01256 0.61684 0.96654 0.0
C235 C 0.11017 0.54586 0.89836 0.0
C236 C 0.11955 0.51326 0.87803 0.0
C237 C 0.15412 0.49941 0.88506 0.0
C238 C 0.16009 0.46254 0.8837 0.0
C239 C 0.13152 0.4391 0.87536 0.0
C240 C 0.09782 0.45364 0.86374 0.0
C241 C 0.09205 0.49046 0.86437 0.0
C242 C 1.00422 0.50482 0.95086 0.0
C243 C 0.08421 0.47555 0.02723 0.0
O244 O 0.98348 0.54922 0.0722 0.0
O245 O 0.03481 0.5358 0.10394 0.0
O246 O 0.06377 0.60219 0.04584 0.0
O247 O 0.08847 0.55962 0.01937 0.0
O248 O 1.00256 0.59953 1.00125 0.0
O249 O 0.03882 0.60243 0.9467 0.0
O250 O 0.12114 0.54528 0.93721 0.0
O251 O 0.07717 0.55692 0.89229 0.0
O252 O 1.02766 0.50735 0.92322 0.0
O253 O 1.01443 0.52108 0.98214 0.0
O254 O 0.09189 0.49101 0.99066 0.0
O255 O 0.06038 0.49183 0.04907 0.0
H256 H 0.94557 0.55534 0.15461 0.0
H257 H 0.93312 0.60978 0.19071 0.0
H258 H 0.0341 0.65486 0.1559 0.0
H259 H 0.04663 0.60081 0.12077 0.0
H260 H 0.17571 0.51648 0.8957 0.0
H261 H 0.18669 0.45223 0.89129 0.0
H262 H 0.0752 0.43648 0.85697 0.0
H263 H 0.06511 0.50031 0.85816 0.0
H264 H 0.18536 0.12153 0.18668 0.0
H265 H 0.13235 0.1248 0.42515 0.0
H266 H 0.24024 0.18995 0.27075 0.0
H267 H 0.12346 0.02622 0.36256 0.0
H268 H 0.16491 0.15201 0.36689 0.0
H269 H 0.15801 0.08906 0.24592 0.0
C270 C 0.19309 0.12896 0.21757 0.0
C271 C 0.21718 0.1581 0.22255 0.0
C272 C 0.15594 0.12439 0.36562 0.0
C273 C 0.1825 0.12185 0.29261 0.0
C274 C 0.13693 0.10859 0.39932 0.0
C275 C 0.12454 0.07244 0.40026 0.0
C276 C 0.16249 0.10489 0.33054 0.0
C277 C 0.13215 0.05385 0.36457 0.0
C278 C 0.17665 0.11063 0.25182 0.0
C279 C 0.22351 0.167 0.26438 0.0
N280 N 0.14981 0.0701 0.33181 0.0
N281 N 0.20623 0.14979 0.29676 0.0
H282 H 0.39929 0.79782 0.87889 0.0
H283 H 0.48815 0.99139 0.89244 0.0
H284 H 0.45759 0.84519 0.77907 0.0
H285 H 0.49032 0.91519 0.99773 0.0
H286 H 0.46405 0.94414 0.84907 0.0
H287 H 0.41952 0.84715 0.92209 0.0
C288 C 0.41611 0.81895 0.86622 0.0
C289 C 0.427 0.81789 0.82586 0.0
C290 C 0.46969 0.93793 0.88171 0.0
C291 C 0.4496 0.87409 0.87405 0.0
C292 C 0.48326 0.96483 0.90649 0.0
C293 C 0.49131 0.95714 0.94873 0.0
C294 C 0.46325 0.90341 0.89953 0.0
C295 C 0.48464 0.92219 0.96527 0.0
C296 C 0.4277 0.84682 0.89066 0.0
C297 C 0.44884 0.84547 0.81026 0.0
N298 N 0.47073 0.89667 0.9407 0.0
N299 N 0.45929 0.87272 0.83432 0.0
H300 H 0.69672 0.38759 0.76934 0.0
H301 H 0.5931 0.52866 0.61323 0.0
H302 H 0.69246 0.50146 0.7856 0.0
H303 H 0.57526 0.41402 0.61144 0.0
H304 H 0.63613 0.51866 0.67066 0.0
H305 H 0.65855 0.3963 0.70593 0.0
C306 C 0.68785 0.41445 0.75903 0.0
C307 C 0.69735 0.44397 0.7821 0.0
C308 C 0.62293 0.4956 0.6578 0.0
C309 C 0.65431 0.45419 0.71041 0.0
C310 C 0.59826 0.50124 0.62496 0.0
C311 C 0.58015 0.47205 0.60808 0.0
C312 C 0.62988 0.46045 0.67381 0.0
C313 C 0.58845 0.43717 0.62399 0.0
C314 C 0.66615 0.41941 0.72318 0.0
C315 C 0.68562 0.47828 0.76814 0.0
N316 N 0.61276 0.43228 0.6563 0.0
N317 N 0.66456 0.48251 0.73309 0.0
H318 H 0.88447 0.83818 0.18179 0.0
H319 H 0.95767 0.64745 0.25098 0.0
H320 H 0.89178 0.79908 0.30899 0.0
H321 H 0.98631 0.70252 0.13693 0.0
H322 H 0.93703 0.70464 0.27464 0.0
H323 H 0.92696 0.79171 0.16561 0.0
C324 C 0.89642 0.82065 0.20643 0.0
C325 C 0.8854 0.82218 0.24659 0.0
C326 C 0.94853 0.70436 0.2448 0.0
C327 C 0.93232 0.76876 0.22877 0.0
C328 C 0.95994 0.67176 0.23127 0.0
C329 C 0.97343 0.67059 0.1921 0.0
C330 C 0.95008 0.73561 0.2185 0.0
C331 C 0.97617 0.70259 0.16752 0.0
C332 C 0.92032 0.79408 0.19737 0.0
C333 C 0.90044 0.79864 0.27778 0.0
N334 N 0.96406 0.73386 0.18092 0.0
N335 N 0.92272 0.77226 0.2681 0.0
H336 H 0.25382 0.13402 0.10232 0.0
H337 H 0.47115 0.10815 0.13112 0.0
H338 H 0.31812 0.18763 0.19281 0.0
H339 H 0.41126 0.06889 0.02683 0.0
H340 H 0.41598 0.1329 0.15591 0.0
H341 H 0.3083 0.10623 0.07818 0.0
C342 C 0.27906 0.13902 0.11853 0.0
C343 C 0.27972 0.16252 0.15168 0.0
C344 C 0.41447 0.11901 0.12752 0.0
C345 C 0.34512 0.13074 0.12184 0.0
C346 C 0.44658 0.10459 0.11291 0.0
C347 C 0.44755 0.08592 0.07594 0.0
C348 C 0.38106 0.11512 0.10599 0.0
C349 C 0.41335 0.08289 0.05511 0.0
C350 C 0.31079 0.12339 0.10395 0.0
C351 C 0.31478 0.16887 0.16869 0.0
N352 N 0.38238 0.09688 0.07022 0.0
N353 N 0.34507 0.15333 0.15407 0.0
H354 H 0.39054 0.85146 0.74963 0.0
H355 H 0.18566 0.84775 0.68349 0.0
H356 H 0.31722 0.77308 0.79864 0.0
H357 H 0.25942 0.92798 0.63815 0.0
H358 H 0.2306 0.82719 0.73646 0.0
H359 H 0.34043 0.88793 0.72094 0.0
C360 C 0.36373 0.84294 0.756 0.0
C361 C 0.35761 0.80977 0.77682 0.0
C362 C 0.23678 0.84971 0.7154 0.0
C363 C 0.30034 0.84985 0.74237 0.0
C364 C 0.21114 0.86144 0.68527 0.0
C365 C 0.21921 0.88918 0.65626 0.0
C366 C 0.27062 0.86585 0.71628 0.0
C367 C 0.25255 0.90597 0.65955 0.0
C368 C 0.3351 0.86333 0.73906 0.0
C369 C 0.32255 0.79888 0.78303 0.0
N370 N 0.27725 0.89374 0.68878 0.0
N371 N 0.29507 0.81853 0.76505 0.0
H372 H 0.82305 0.4071 0.8331 0.0
H373 H 0.94705 0.504 1.00032 0.0
H374 H 0.78272 0.45291 0.9399 0.0
H375 H 0.98392 0.46235 0.88891 0.0
H376 H 0.88841 0.47695 0.98548 0.0
H377 H 0.88401 0.41762 0.86007 0.0
C378 C 0.82734 0.41905 0.86254 0.0
C379 C 0.7984 0.42995 0.88412 0.0
C380 C 0.9095 0.47338 0.96459 0.0
C381 C 0.86746 0.44241 0.9151 0.0
C382 C 0.94289 0.48877 0.97307 0.0
C383 C 0.97009 0.4857 0.9455 0.0
C384 C 0.90351 0.45484 0.92838 0.0
C385 C 0.9635 0.46567 0.91072 0.0
C386 C 0.86195 0.42508 0.87798 0.0
C387 C 0.80475 0.44459 0.92247 0.0
N388 N 0.93083 0.45126 0.90299 0.0
N389 N 0.83873 0.45101 0.93656 0.0
H390 H 0.81592 0.81875 0.35935 0.0
H391 H 0.68483 0.65535 0.35871 0.0
H392 H 0.736 0.81066 0.26044 0.0
H393 H 0.72352 0.70144 0.4716 0.0
H394 H 0.70743 0.70811 0.31961 0.0
H395 H 0.78547 0.77252 0.39975 0.0
C396 C 0.79099 0.80827 0.3469 0.0
C397 C 0.77767 0.81925 0.30711 0.0
C398 C 0.71072 0.70651 0.35296 0.0
C399 C 0.74405 0.76465 0.35203 0.0
C400 C 0.69805 0.67649 0.37523 0.0
C401 C 0.70259 0.67392 0.41844 0.0
C402 C 0.72833 0.73365 0.37415 0.0
C403 C 0.72021 0.70183 0.43832 0.0
C404 C 0.77399 0.78143 0.36965 0.0
C405 C 0.74653 0.80316 0.29132 0.0
N406 N 0.73263 0.73048 0.41595 0.0
N407 N 0.7309 0.77604 0.31368 0.0
H408 H 0.24196 0.29971 0.11241 0.0
H409 H 0.06362 0.42373 0.08862 0.0
H410 H 0.13873 0.25412 0.13434 0.0
H411 H 0.14879 0.44316 1.00669 0.0
H412 H 0.09333 0.36721 0.11528 0.0
H413 H 0.2124 0.35523 0.08286 0.0
C414 C 0.21318 0.3007 0.11117 0.0
C415 C 0.1937 0.27049 0.12694 0.0
C416 C 0.10571 0.3837 0.09147 0.0
C417 C 0.15855 0.33737 0.09373 0.0
C418 C 0.08856 0.41652 0.07599 0.0
C419 C 0.10287 0.43949 0.04447 0.0
C420 C 0.13875 0.37292 0.07689 0.0
C421 C 0.13584 0.42722 0.03049 0.0
C422 C 0.19609 0.33319 0.09435 0.0
C423 C 0.15599 0.27583 0.1244 0.0
N424 N 0.15238 0.39576 0.04678 0.0
N425 N 0.14024 0.30793 0.10908 0.0
H426 H 0.77049 0.35044 0.87189 0.0
H427 H 0.62077 0.25423 0.99627 0.0
H428 H 0.7044 0.40382 0.95352 0.0
H429 H 0.69062 0.19974 0.91897 0.0
H430 H 0.66104 0.30584 0.99525 0.0
H431 H 0.75401 0.29227 0.9044 0.0
C432 C 0.75388 0.34978 0.89819 0.0
C433 C 0.7383 0.38145 0.90999 0.0
C434 C 0.66801 0.28237 0.97914 0.0
C435 C 0.71808 0.31557 0.94607 0.0
C436 C 0.64489 0.25307 0.97949 0.0
C437 C 0.65213 0.22318 0.95694 0.0
C438 C 0.6983 0.28193 0.95558 0.0
C439 C 0.68402 0.22249 0.93649 0.0
C440 C 0.74402 0.31666 0.91637 0.0
C441 C 0.71658 0.37965 0.94366 0.0
N442 N 0.70565 0.25179 0.93562 0.0
N443 N 0.70624 0.34708 0.95989 0.0
H444 H 0.89763 0.9148 0.24182 0.0
H445 H 1.0055 0.02185 0.3643 0.0
H446 H 0.87957 0.85566 0.35638 0.0
H447 H 1.0085 0.93209 0.45451 0.0
H448 H 0.96941 0.98623 0.31748 0.0
H449 H 0.94904 0.94447 0.2752 0.0
C450 C 0.9045 0.90855 0.27419 0.0
C451 C 0.88374 0.88444 0.29716 0.0
C452 C 0.97866 0.97376 0.34693 0.0
C453 C 0.94169 0.91799 0.33581 0.0
C454 C 0.99905 0.99433 0.37391 0.0
C455 C 1.00946 0.98008 0.41355 0.0
C456 C 0.96853 0.93862 0.35977 0.0
C457 C 1.00062 0.94424 0.42437 0.0
C458 C 0.93359 0.92549 0.29337 0.0
C459 C 0.89418 0.87558 0.33844 0.0
N460 N 0.98015 0.92493 0.39788 0.0
N461 N 0.92226 0.89263 0.35662 0.0
H462 H 0.39352 0.67344 0.75558 0.0
H463 H 0.54149 0.62389 0.60324 0.0
H464 H 0.47803 0.74524 0.71965 0.0
H465 H 0.43874 0.57139 0.60173 0.0
H466 H 0.52167 0.66387 0.65348 0.0
H467 H 0.41291 0.63055 0.70649 0.0
C468 C 0.41662 0.67961 0.73788 0.0
C469 C 0.43478 0.71226 0.74184 0.0
C470 C 0.50329 0.64383 0.64203 0.0
C471 C 0.45671 0.66426 0.68628 0.0
C472 C 0.51456 0.62093 0.61345 0.0
C473 C 0.49153 0.59445 0.59854 0.0
C474 C 0.46881 0.64013 0.65595 0.0
C475 C 0.457 0.5918 0.61247 0.0
C476 C 0.42738 0.65552 0.70981 0.0
C477 C 0.46412 0.71981 0.71812 0.0
N478 N 0.44659 0.61443 0.64087 0.0
N479 N 0.47426 0.69589 0.69124 0.0
H480 H 0.86695 0.88433 0.74974 0.0
H481 H 0.05552 0.95081 0.65843 0.0
H482 H 0.95604 0.90425 0.83334 0.0
H483 H 0.95512 0.98534 0.60028 0.0
H484 H 1.02346 0.92427 0.71768 0.0
H485 H 0.90109 0.90955 0.6919 0.0
C486 C 0.89415 0.89287 0.75614 0.0
C487 C 0.90798 0.89109 0.79776 0.0
C488 C 1.00823 0.93754 0.69204 0.0
C489 C 0.94886 0.92104 0.72901 0.0
C490 C 1.02676 0.95289 0.65757 0.0
C491 C 1.0088 0.97108 0.62285 0.0
C492 C 0.97052 0.93864 0.6926 0.0
C493 C 0.97103 0.97212 0.62538 0.0
C494 C 0.9137 0.90797 0.72264 0.0
C495 C 0.94363 0.90396 0.80261 0.0
N496 N 0.95369 0.95611 0.65852 0.0
N497 N 0.96241 0.91782 0.76932 0.0
H498 H 0.67948 0.2006 0.27828 0.0
H499 H 0.61793 0.14645 0.05143 0.0
H500 H 0.69452 0.26797 0.16854 0.0
H501 H 0.61429 0.07249 0.15841 0.0
H502 H 0.64974 0.18958 0.09358 0.0
H503 H 0.66017 0.15124 0.23523 0.0
C504 C 0.67936 0.20458 0.24502 0.0
C505 C 0.68834 0.23811 0.22658 0.0
C506 C 0.64229 0.1638 0.10785 0.0
C507 C 0.66557 0.18261 0.17727 0.0
C508 C 0.62406 0.13914 0.08374 0.0
C509 C 0.61322 0.10584 0.10141 0.0
C510 C 0.64948 0.15538 0.15016 0.0
C511 C 0.62206 0.09786 0.14349 0.0
C512 C 0.66812 0.17663 0.22046 0.0
C513 C 0.68736 0.24244 0.18356 0.0
N514 N 0.63935 0.12259 0.16652 0.0
N515 N 0.67579 0.21515 0.16031 0.0
H516 H 0.36365 0.65441 0.27175 0.0
H517 H 0.50371 0.52667 0.39343 0.0
H518 H 0.43551 0.58986 0.20814 0.0
H519 H 0.48431 0.63273 0.43489 0.0
H520 H 0.46912 0.54257 0.32943 0.0
H521 H 0.39873 0.64027 0.33677 0.0
C522 C 0.38672 0.63701 0.2719 0.0
C523 C 0.39699 0.62291 0.23536 0.0
C524 C 0.47254 0.56232 0.35255 0.0
C525 C 0.43638 0.6065 0.30833 0.0
C526 C 0.49203 0.5533 0.38908 0.0
C527 C 0.49696 0.57867 0.41913 0.0
C528 C 0.45719 0.59658 0.34661 0.0
C529 C 0.48127 0.61269 0.4121 0.0
C530 C 0.40672 0.62924 0.30854 0.0
C531 C 0.4271 0.60092 0.23615 0.0
N532 N 0.4617 0.62068 0.37646 0.0
N533 N 0.44571 0.59297 0.27235 0.0
H534 H 0.24304 0.24616 0.89861 0.0
H535 H 0.10028 0.38757 0.82883 0.0
H536 H 0.15568 0.23027 0.81057 0.0
H537 H 0.17281 0.40053 0.93443 0.0
H538 H 0.11075 0.32339 0.83527 0.0
H539 H 0.20882 0.2938 0.92756 0.0
C540 C 0.21593 0.25135 0.88694 0.0
C541 C 0.2025 0.23508 0.85155 0.0
C542 C 0.12412 0.34006 0.85751 0.0
C543 C 0.16365 0.28929 0.88355 0.0
C544 C 0.11812 0.37691 0.85376 0.0
C545 C 0.1364 0.39967 0.88042 0.0
C546 C 0.14948 0.32583 0.8873 0.0
C547 C 0.15929 0.38412 0.91207 0.0
C548 C 0.19649 0.27869 0.90316 0.0
C549 C 0.16718 0.24223 0.83769 0.0
N550 N 0.16583 0.34817 0.91407 0.0
N551 N 0.14934 0.26951 0.853 0.0
H552 H 0.81754 0.96743 0.88166 0.0
H553 H 0.64204 0.9444 0.01724 0.0
H554 H 0.77425 0.86153 0.90686 0.0
H555 H 0.64833 0.0306 0.92407 0.0
H556 H 0.69623 0.91726 0.99091 0.0
H557 H 0.76353 0.99344 0.90716 0.0
C558 C 0.7972 0.949 0.89192 0.0
C559 C 0.80257 0.91108 0.89051 0.0
C560 C 0.68611 0.94233 0.9763 0.0
C561 C 0.73863 0.94263 0.92455 0.0
C562 C 0.65484 0.95831 0.99183 0.0
C563 C 0.63945 0.99086 0.97389 0.0
C564 C 0.70406 0.95887 0.94264 0.0
C565 C 0.6583 1.00601 0.93998 0.0
C566 C 0.76586 0.96441 0.90753 0.0
C567 C 0.77384 0.89046 0.90735 0.0
N568 N 0.68895 0.99057 0.92633 0.0
N569 N 0.74435 0.90613 0.92361 0.0
H570 H 0.78096 0.25866 0.24754 0.0
H571 H 0.85431 0.15515 0.45488 0.0
H572 H 0.71571 0.22546 0.34769 0.0
H573 H 0.91928 0.17977 0.35119 0.0
H574 H 0.80201 0.17624 0.4134 0.0
H575 H 0.83089 0.22398 0.28128 0.0
C576 C 0.77709 0.2428 0.27596 0.0
C577 C 0.74474 0.24403 0.29497 0.0
C578 C 0.82761 0.17684 0.39953 0.0
C579 C 0.80092 0.20572 0.33415 0.0
C580 C 0.85746 0.16518 0.42332 0.0
C581 C 0.89102 0.16645 0.40646 0.0
C582 C 0.83145 0.18988 0.35864 0.0
C583 C 0.89374 0.17862 0.3652 0.0
C584 C 0.8054 0.22344 0.29541 0.0
C585 C 0.74049 0.22429 0.33223 0.0
N586 N 0.86425 0.19025 0.34266 0.0
N587 N 0.76852 0.20617 0.35101 0.0
H588 H 0.31896 0.60876 0.07588 0.0
H589 H 0.10952 0.64444 0.08255 0.0
H590 H 0.27106 0.65898 0.17541 0.0
H591 H 0.15589 0.57055 1.00282 0.0
H592 H 0.16953 0.66036 0.10854 0.0
H593 H 0.25994 0.60411 0.04062 0.0
C594 C 0.29579 0.61888 0.08999 0.0
C595 C 0.29923 0.63389 0.12839 0.0
C596 C 0.16649 0.64104 0.08492 0.0
C597 C 0.23227 0.62902 0.08884 0.0
C598 C 0.13234 0.63216 0.0699 0.0
C599 C 0.12788 0.60602 0.04068 0.0
C600 C 0.19615 0.62381 0.07028 0.0
C601 C 0.15823 0.59077 0.0254 0.0
C602 C 0.26229 0.61629 0.07009 0.0
C603 C 0.26892 0.64684 0.14593 0.0
N604 N 0.19112 0.59971 0.0406 0.0
N605 N 0.2365 0.64403 0.12602 0.0
H606 H 0.222 0.26246 0.69332 0.0
H607 H 0.37855 0.39815 0.66745 0.0
H608 H 0.32224 0.24649 0.76206 0.0
H609 H 0.32318 0.36171 0.55757 0.0
H610 H 0.34869 0.35114 0.70826 0.0
H611 H 0.25083 0.30616 0.646 0.0
C612 C 0.25032 0.26729 0.69743 0.0
C613 C 0.27023 0.25068 0.73079 0.0
C614 C 0.34314 0.35371 0.67518 0.0
C615 C 0.30229 0.30146 0.67925 0.0
C616 C 0.36012 0.38037 0.65189 0.0
C617 C 0.35374 0.3835 0.60895 0.0
C618 C 0.31914 0.33065 0.65549 0.0
C619 C 0.32867 0.36047 0.59062 0.0
C620 C 0.26653 0.29242 0.671 0.0
C621 C 0.30649 0.25863 0.73612 0.0
N622 N 0.31214 0.33488 0.6141 0.0
N623 N 0.32135 0.28412 0.71103 0.0
H624 H 0.89709 0.7984 0.81514 0.0
H625 H 0.97952 0.67103 1.00873 0.0
H626 H 0.92568 0.84071 0.93246 0.0
H627 H 1.00355 0.64818 0.88503 0.0
H628 H 0.9525 0.72882 0.98189 0.0
H629 H 0.92888 0.74161 0.83836 0.0
C630 C 0.91058 0.79643 0.84541 0.0
C631 C 0.90846 0.82582 0.87121 0.0
C632 C 0.96353 0.71128 0.96035 0.0
C633 C 0.94421 0.75808 0.89975 0.0
C634 C 0.9791 0.67768 0.97585 0.0
C635 C 0.99456 0.65335 0.94976 0.0
C636 C 0.96171 0.72157 0.91757 0.0
C637 C 0.99254 0.66515 0.90715 0.0
C638 C 0.92858 0.76337 0.85906 0.0
C639 C 0.92641 0.8198 0.91071 0.0
N640 N 0.97643 0.69742 0.89277 0.0
N641 N 0.94241 0.78726 0.92362 0.0
H642 H 0.43773 0.65193 0.10626 0.0
H643 H 0.54637 0.81083 0.20803 0.0
H644 H 0.41589 0.69406 0.22307 0.0
H645 H 0.51815 0.80929 0.07757 0.0
H646 H 0.51986 0.7511 0.21803 0.0
H647 H 0.48825 0.69387 0.10061 0.0
C648 C 0.44423 0.66936 0.13111 0.0
C649 C 0.42273 0.66988 0.16501 0.0
C650 C 0.52058 0.76355 0.18712 0.0
C651 C 0.48039 0.71647 0.1595 0.0
C652 C 0.53544 0.79764 0.18136 0.0
C653 C 0.53356 0.81555 0.14208 0.0
C654 C 0.50454 0.74707 0.15325 0.0
C655 C 0.52015 0.79669 0.10844 0.0
C656 C 0.47296 0.69295 0.12802 0.0
C657 C 0.43218 0.69247 0.19679 0.0
N658 N 0.50558 0.7636 0.11491 0.0
N659 N 0.46023 0.71517 0.19313 0.0
H660 H 0.2683 0.15899 0.71129 0.0
H661 H 0.08654 0.09952 0.59938 0.0
H662 H 0.16886 0.21333 0.72335 0.0
H663 H 0.18909 0.06696 0.56062 0.0
H664 H 0.11639 0.143 0.64336 0.0
H665 H 0.24098 0.12715 0.65319 0.0
C666 C 0.24088 0.16448 0.70106 0.0
C667 C 0.22035 0.18786 0.7222 0.0
C668 C 0.13237 0.12654 0.62499 0.0
C669 C 0.18883 0.15175 0.65692 0.0
C670 C 0.11533 0.1016 0.60011 0.0
C671 C 0.13544 0.0793 0.57685 0.0
C672 C 0.1698 0.12876 0.62708 0.0
C673 C 0.17263 0.08342 0.57841 0.0
C674 C 0.22523 0.14642 0.66815 0.0
C675 C 0.18505 0.1947 0.70801 0.0
N676 N 0.18866 0.10731 0.60352 0.0
N677 N 0.17016 0.1763 0.67665 0.0
H678 H 0.70488 0.38633 0.29595 0.0
H679 H 0.53393 0.42601 0.42018 0.0
H680 H 0.62069 0.30924 0.31445 0.0
H681 H 0.6347 0.48032 0.43963 0.0
H682 H 0.56098 0.38891 0.37083 0.0
H683 H 0.67461 0.4279 0.33856 0.0
C684 C 0.67959 0.37872 0.30844 0.0
C685 C 0.66472 0.34501 0.30173 0.0
C686 C 0.5771 0.40895 0.38597 0.0
C687 C 0.63036 0.39143 0.34975 0.0
C688 C 0.56177 0.43006 0.41398 0.0
C689 C 0.58241 0.45584 0.43397 0.0
C690 C 0.61304 0.41415 0.37779 0.0
C691 C 0.61819 0.46028 0.42507 0.0
C692 C 0.66253 0.40209 0.33272 0.0
C693 C 0.63228 0.33555 0.31855 0.0
N694 N 0.63249 0.43954 0.39737 0.0
N695 N 0.61602 0.35876 0.34201 0.0
loop_
_geom_bond_atom_site_label_1
_geom_bond_atom_site_label_2
_geom_bond_distance
_geom_bond_site_symmetry_2
_ccdc_geom_bond_type
C0 N1 1.317 . S
C0 N2 1.348 . S
C0 C3 1.485 . S
N1 C0 1.317 . S
N1 N5 1.370 . S
N2 C0 1.348 . S
N2 C4 1.346 . S
C3 C0 1.485 . S
C3 H7 0.960 . S
C3 H8 0.961 . S
C3 H9 0.960 . S
C4 N2 1.346 . S
C4 N5 1.307 . S
C4 C6 1.486 . S
N5 N1 1.370 . S
N5 C4 1.307 . S
C6 C4 1.486 . S
C6 H10 0.960 . S
C6 H11 0.960 . S
C6 H12 0.959 . S
H7 C3 0.960 . S
H8 C3 0.961 . S
H9 C3 0.960 . S
H10 C6 0.960 . S
H11 C6 0.960 . S
H12 C6 0.959 . S
C13 N14 1.317 . S
C13 N15 1.348 . S
C13 C16 1.485 . S
N14 C13 1.317 . S
N14 N18 1.370 . S
N15 C13 1.348 . S
N15 C17 1.346 . S
C16 C13 1.485 . S
C16 H20 0.960 . S
C16 H21 0.961 . S
C16 H22 0.960 . S
C17 N15 1.346 . S
C17 N18 1.307 . S
C17 C19 1.486 . S
N18 N14 1.370 . S
N18 C17 1.307 . S
C19 C17 1.486 . S
C19 H23 0.960 . S
C19 H24 0.960 . S
C19 H25 0.959 . S
H20 C16 0.960 . S
H21 C16 0.961 . S
H22 C16 0.960 . S
H23 C19 0.960 . S
H24 C19 0.960 . S
H25 C19 0.959 . S
C26 N27 1.317 . S
C26 N28 1.348 . S
C26 C29 1.485 . S
N27 C26 1.317 . S
N27 N31 1.370 . S
N28 C26 1.348 . S
N28 C30 1.346 . S
C29 C26 1.485 . S
C29 H33 0.960 . S
C29 H34 0.961 . S
C29 H35 0.960 . S
C30 N28 1.346 . S
C30 N31 1.307 . S
C30 C32 1.486 . S
N31 N27 1.370 . S
N31 C30 1.307 . S
C32 C30 1.486 . S
C32 H36 0.960 . S
C32 H37 0.960 . S
C32 H38 0.959 . S
H33 C29 0.960 . S
H34 C29 0.961 . S
H35 C29 0.960 . S
H36 C32 0.960 . S
H37 C32 0.960 . S
H38 C32 0.959 . S
C39 N40 1.317 . S
C39 N41 1.348 . S
C39 C42 1.485 . S
N40 C39 1.317 . S
N40 N44 1.370 . S
N41 C39 1.348 . S
N41 C43 1.346 . S
C42 C39 1.485 . S
C42 H46 0.960 . S
C42 H47 0.961 . S
C42 H48 0.960 . S
C43 N41 1.346 . S
C43 N44 1.307 . S
C43 C45 1.486 . S
N44 N40 1.370 . S
N44 C43 1.307 . S
C45 C43 1.486 . S
C45 H49 0.960 . S
C45 H50 0.960 . S
C45 H51 0.959 . S
H46 C42 0.960 . S
H47 C42 0.961 . S
H48 C42 0.960 . S
H49 C45 0.960 . S
H50 C45 0.960 . S
H51 C45 0.959 . S
C52 N53 1.317 . S
C52 N54 1.348 . S
C52 C55 1.485 . S
N53 C52 1.317 . S
N53 N57 1.370 . S
N54 C52 1.348 . S
N54 C56 1.346 . S
C55 C52 1.485 . S
C55 H59 0.960 . S
C55 H60 0.961 . S
C55 H61 0.960 . S
C56 N54 1.346 . S
C56 N57 1.307 . S
C56 C58 1.486 . S
N57 N53 1.370 . S
N57 C56 1.307 . S
C58 C56 1.486 . S
C58 H62 0.960 . S
C58 H63 0.960 . S
C58 H64 0.959 . S
H59 C55 0.960 . S
H60 C55 0.961 . S
H61 C55 0.960 . S
H62 C58 0.960 . S
H63 C58 0.960 . S
H64 C58 0.959 . S
C65 N66 1.317 . S
C65 N67 1.348 . S
C65 C68 1.485 . S
N66 C65 1.317 . S
N66 N70 1.370 . S
N67 C65 1.348 . S
N67 C69 1.346 . S
C68 C65 1.485 . S
C68 H72 0.960 . S
C68 H73 0.961 . S
C68 H74 0.960 . S
C69 N67 1.346 . S
C69 N70 1.307 . S
C69 C71 1.486 . S
N70 N66 1.370 . S
N70 C69 1.307 . S
C71 C69 1.486 . S
C71 H75 0.960 . S
C71 H76 0.960 . S
C71 H77 0.959 . S
H72 C68 0.960 . S
H73 C68 0.961 . S
H74 C68 0.960 . S
H75 C71 0.960 . S
H76 C71 0.960 . S
H77 C71 0.959 . S
C78 N79 1.317 . S
C78 N80 1.348 . S
C78 C81 1.485 . S
N79 C78 1.317 . S
N79 N83 1.370 . S
N80 C78 1.348 . S
N80 C82 1.346 . S
C81 C78 1.485 . S
C81 H85 0.960 . S
C81 H86 0.961 . S
C81 H87 0.960 . S
C82 N80 1.346 . S
C82 N83 1.307 . S
C82 C84 1.486 . S
N83 N79 1.370 . S
N83 C82 1.307 . S
C84 C82 1.486 . S
C84 H88 0.960 . S
C84 H89 0.960 . S
C84 H90 0.959 . S
H85 C81 0.960 . S
H86 C81 0.961 . S
H87 C81 0.960 . S
H88 C84 0.960 . S
H89 C84 0.960 . S
H90 C84 0.959 . S
C91 N92 1.317 . S
C91 N93 1.348 . S
C91 C94 1.485 . S
N92 C91 1.317 . S
N92 N96 1.370 . S
N93 C91 1.348 . S
N93 C95 1.346 . S
C94 C91 1.485 . S
C94 H98 0.960 . S
C94 H99 0.961 . S
C94 H100 0.960 . S
C95 N93 1.346 . S
C95 N96 1.307 . S
C95 C97 1.486 . S
N96 N92 1.370 . S
N96 C95 1.307 . S
C97 C95 1.486 . S
C97 H101 0.960 . S
C97 H102 0.960 . S
C97 H103 0.959 . S
H98 C94 0.960 . S
H99 C94 0.961 . S
H100 C94 0.960 . S
H101 C97 0.960 . S
H102 C97 0.960 . S
H103 C97 0.959 . S
Nd104 C106 2.836 . S
Nd104 O124 2.500 . S
Nd104 O125 2.492 . S
Nd104 O126 2.487 1_565 S
Nd104 O127 2.682 1_565 S
Nd104 O128 2.410 . S
Nd104 O133 2.414 . S
Nd104 O135 2.424 1_565 S
Nd105 C115 2.840 . S
Nd105 O127 2.405 1_655 S
Nd105 O129 2.425 1_645 S
Nd105 O130 2.501 . S
Nd105 O131 2.498 . S
Nd105 O132 2.489 1_545 S
Nd105 O133 2.676 1_645 S
Nd105 O134 2.403 1_655 S
C106 Nd104 2.836 . S
C106 C107 1.498 . S
C106 O124 1.258 . S
C106 O125 1.239 . S
C107 C106 1.498 . S
C107 C108 1.366 . S
C107 C112 1.407 . S
C108 C107 1.366 . S
C108 C109 1.392 . S
C108 H136 0.930 . S
C109 C108 1.392 . S
C109 C110 1.398 . S
C109 H137 0.929 . S
C110 C109 1.398 . S
C110 C111 1.352 . S
C111 C110 1.352 . S
C111 C112 1.384 . S
C111 H138 0.930 . S
C112 C107 1.407 . S
C112 C111 1.384 . S
C112 H139 0.929 . S
C113 O126 1.241 . S
C113 O127 1.273 . S
C114 O128 1.251 . S
C114 O129 1.268 . S
C115 Nd105 2.840 . S
C115 C116 1.498 . S
C115 O130 1.258 . S
C115 O131 1.239 . S
C116 C115 1.498 . S
C116 C117 1.366 . S
C116 C121 1.407 . S
C117 C116 1.366 . S
C117 C118 1.392 . S
C117 H140 0.930 . S
C118 C117 1.392 . S
C118 C119 1.398 . S
C118 H141 0.929 . S
C119 C118 1.398 . S
C119 C120 1.352 . S
C120 C119 1.352 . S
C120 C121 1.384 . S
C120 H142 0.930 . S
C121 C116 1.407 . S
C121 C120 1.384 . S
C121 H143 0.929 . S
C122 O132 1.241 1_455 S
C122 O133 1.273 . S
C123 O134 1.251 . S
C123 O135 1.268 . S
O124 Nd104 2.500 . S
O124 C106 1.258 . S
O125 Nd104 2.492 . S
O125 C106 1.239 . S
O126 Nd104 2.487 1_545 S
O126 C113 1.241 . S
O127 Nd104 2.682 1_545 S
O127 Nd105 2.405 1_455 S
O127 C113 1.273 . S
O128 Nd104 2.410 . S
O128 C114 1.251 . S
O129 Nd105 2.425 1_465 S
O129 C114 1.268 . S
O130 Nd105 2.501 . S
O130 C115 1.258 . S
O131 Nd105 2.498 . S
O131 C115 1.239 . S
O132 Nd105 2.489 1_565 S
O132 C122 1.241 1_655 S
O133 Nd104 2.414 . S
O133 Nd105 2.676 1_465 S
O133 C122 1.273 . S
O134 Nd105 2.403 1_455 S
O134 C123 1.251 . S
O135 Nd104 2.424 1_545 S
O135 C123 1.268 . S
H136 C108 0.930 . S
H137 C109 0.929 . S
H138 C111 0.930 . S
H139 C112 0.929 . S
H140 C117 0.930 . S
H141 C118 0.929 . S
H142 C120 0.930 . S
H143 C121 0.929 . S
Nd144 C146 2.836 . S
Nd144 O164 2.500 . S
Nd144 O165 2.492 . S
Nd144 O166 2.487 1_565 S
Nd144 O167 2.682 1_565 S
Nd144 O168 2.410 . S
Nd144 O173 2.414 . S
Nd144 O175 2.424 1_565 S
Nd145 C155 2.836 . S
Nd145 O167 2.414 1_556 S
Nd145 O169 2.424 1_545 S
Nd145 O170 2.500 . S
Nd145 O171 2.492 . S
Nd145 O172 2.487 . S
Nd145 O173 2.682 1_546 S
Nd145 O174 2.410 1_556 S
C146 Nd144 2.836 . S
C146 C147 1.498 . S
C146 O164 1.258 . S
C146 O165 1.239 . S
C147 C146 1.498 . S
C147 C148 1.366 . S
C147 C152 1.407 . S
C148 C147 1.366 . S
C148 C149 1.392 . S
C148 H176 0.930 . S
C149 C148 1.392 . S
C149 C150 1.398 . S
C149 H177 0.929 . S
C150 C149 1.398 . S
C150 C151 1.352 . S
C151 C150 1.352 . S
C151 C152 1.384 . S
C151 H178 0.930 . S
C152 C147 1.407 . S
C152 C151 1.384 . S
C152 H179 0.929 . S
C153 O166 1.241 . S
C153 O167 1.273 . S
C154 O168 1.251 1_556 S
C154 O169 1.268 . S
C155 Nd145 2.836 . S
C155 C156 1.498 . S
C155 O170 1.258 . S
C155 O171 1.239 . S
C156 C155 1.498 . S
C156 C157 1.366 . S
C156 C161 1.407 . S
C157 C156 1.366 . S
C157 C158 1.392 . S
C157 H180 0.927 1_556 S
C158 C157 1.392 . S
C158 C159 1.398 . S
C158 H181 0.929 . S
C159 C158 1.398 . S
C159 C160 1.352 . S
C160 C159 1.352 . S
C160 C161 1.384 . S
C160 H182 0.930 . S
C161 C156 1.407 . S
C161 C160 1.384 . S
C161 H183 0.929 . S
C162 O172 1.241 1_564 S
C162 O173 1.273 . S
C163 O174 1.251 . S
C163 O175 1.268 . S
O164 Nd144 2.500 . S
O164 C146 1.258 . S
O165 Nd144 2.492 . S
O165 C146 1.239 . S
O166 Nd144 2.487 1_545 S
O166 C153 1.241 . S
O167 Nd144 2.682 1_545 S
O167 Nd145 2.414 1_554 S
O167 C153 1.273 . S
O168 Nd144 2.410 . S
O168 C154 1.251 1_554 S
O169 Nd145 2.424 1_565 S
O169 C154 1.268 . S
O170 Nd145 2.500 . S
O170 C155 1.258 . S
O171 Nd145 2.492 . S
O171 C155 1.239 . S
O172 Nd145 2.487 . S
O172 C162 1.241 1_546 S
O173 Nd144 2.414 . S
O173 Nd145 2.682 1_564 S
O173 C162 1.273 . S
O174 Nd145 2.410 1_554 S
O174 C163 1.251 . S
O175 Nd144 2.424 1_545 S
O175 C163 1.268 . S
H176 C148 0.930 . S
H177 C149 0.929 . S
H178 C151 0.930 . S
H179 C152 0.929 . S
H180 C157 0.927 1_554 S
H181 C158 0.929 . S
H182 C160 0.930 . S
H183 C161 0.929 . S
Nd184 C186 2.836 . S
Nd184 O204 2.500 . S
Nd184 O205 2.492 . S
Nd184 O206 2.487 . S
Nd184 O207 2.682 . S
Nd184 O208 2.410 . S
Nd184 O213 2.414 . S
Nd184 O215 2.424 . S
Nd185 C195 2.836 . S
Nd185 O207 2.414 . S
Nd185 O209 2.424 . S
Nd185 O210 2.500 . S
Nd185 O211 2.492 . S
Nd185 O212 2.487 . S
Nd185 O213 2.682 . S
Nd185 O214 2.410 . S
C186 Nd184 2.836 . S
C186 C187 1.498 . S
C186 O204 1.258 . S
C186 O205 1.239 . S
C187 C186 1.498 . S
C187 C188 1.366 . S
C187 C192 1.407 . S
C188 C187 1.366 . S
C188 C189 1.392 . S
C188 H216 0.930 . S
C189 C188 1.392 . S
C189 C190 1.398 . S
C189 H217 0.929 . S
C190 C189 1.398 . S
C190 C191 1.352 . S
C191 C190 1.352 . S
C191 C192 1.384 . S
C191 H218 0.930 . S
C192 C187 1.407 . S
C192 C191 1.384 . S
C192 H219 0.929 . S
C193 O206 1.241 . S
C193 O207 1.273 . S
C194 O208 1.251 . S
C194 O209 1.268 . S
C195 Nd185 2.836 . S
C195 C196 1.498 . S
C195 O210 1.258 . S
C195 O211 1.239 . S
C196 C195 1.498 . S
C196 C197 1.366 . S
C196 C201 1.407 . S
C197 C196 1.366 . S
C197 C198 1.392 . S
C197 H220 0.930 . S
C198 C197 1.392 . S
C198 C199 1.398 . S
C198 H221 0.929 . S
C199 C198 1.398 . S
C199 C200 1.352 . S
C200 C199 1.352 . S
C200 C201 1.384 . S
C200 H222 0.930 . S
C201 C196 1.407 . S
C201 C200 1.384 . S
C201 H223 0.929 . S
C202 O212 1.241 . S
C202 O213 1.273 . S
C203 O214 1.251 . S
C203 O215 1.268 . S
O204 Nd184 2.500 . S
O204 C186 1.258 . S
O205 Nd184 2.492 . S
O205 C186 1.239 . S
O206 Nd184 2.487 . S
O206 C193 1.241 . S
O207 Nd184 2.682 . S
O207 Nd185 2.414 . S
O207 C193 1.273 . S
O208 Nd184 2.410 . S
O208 C194 1.251 . S
O209 Nd185 2.424 . S
O209 C194 1.268 . S
O210 Nd185 2.500 . S
O210 C195 1.258 . S
O211 Nd185 2.492 . S
O211 C195 1.239 . S
O212 Nd185 2.487 . S
O212 C202 1.241 . S
O213 Nd184 2.414 . S
O213 Nd185 2.682 . S
O213 C202 1.273 . S
O214 Nd185 2.410 . S
O214 C203 1.251 . S
O215 Nd184 2.424 . S
O215 C203 1.268 . S
H216 C188 0.930 . S
H217 C189 0.929 . S
H218 C191 0.930 . S
H219 C192 0.929 . S
H220 C197 0.930 . S
H221 C198 0.929 . S
H222 C200 0.930 . S
H223 C201 0.929 . S
Nd224 C226 2.836 . S
Nd224 O244 2.500 . S
Nd224 O245 2.492 . S
Nd224 O246 2.487 1_655 S
Nd224 O247 2.682 1_655 S
Nd224 O248 2.410 . S
Nd224 O253 2.414 1_554 S
Nd224 O255 2.424 1_655 S
Nd225 C235 2.836 . S
Nd225 O247 2.414 1_556 S
Nd225 O249 2.424 1_455 S
Nd225 O250 2.500 . S
Nd225 O251 2.492 . S
Nd225 O252 2.487 1_455 S
Nd225 O253 2.682 1_455 S
Nd225 O254 2.410 . S
C226 Nd224 2.836 . S
C226 C227 1.498 . S
C226 O244 1.258 . S
C226 O245 1.239 . S
C227 C226 1.498 . S
C227 C228 1.366 . S
C227 C232 1.407 . S
C228 C227 1.366 . S
C228 C229 1.392 . S
C228 H256 0.930 . S
C229 C228 1.392 . S
C229 C230 1.398 . S
C229 H257 0.929 . S
C230 C229 1.398 . S
C230 C231 1.352 . S
C231 C230 1.352 . S
C231 C232 1.384 . S
C231 H258 0.930 . S
C232 C227 1.407 . S
C232 C231 1.384 . S
C232 H259 0.929 . S
C233 O246 1.241 . S
C233 O247 1.273 . S
C234 O248 1.251 1_556 S
C234 O249 1.268 . S
C235 Nd225 2.836 . S
C235 C236 1.498 . S
C235 O250 1.258 . S
C235 O251 1.239 . S
C236 C235 1.498 . S
C236 C237 1.366 . S
C236 C241 1.407 . S
C237 C236 1.366 . S
C237 C238 1.392 . S
C237 H260 0.930 . S
C238 C237 1.392 . S
C238 C239 1.398 . S
C238 H261 0.929 . S
C239 C238 1.398 . S
C239 C240 1.352 . S
C240 C239 1.352 . S
C240 C241 1.384 . S
C240 H262 0.930 . S
C241 C236 1.407 . S
C241 C240 1.384 . S
C241 H263 0.929 . S
C242 O252 1.241 . S
C242 O253 1.273 . S
C243 O254 1.251 1_554 S
C243 O255 1.268 . S
O244 Nd224 2.500 . S
O244 C226 1.258 . S
O245 Nd224 2.492 . S
O245 C226 1.239 . S
O246 Nd224 2.487 1_455 S
O246 C233 1.241 . S
O247 Nd224 2.682 1_455 S
O247 Nd225 2.414 1_554 S
O247 C233 1.273 . S
O248 Nd224 2.410 . S
O248 C234 1.251 1_554 S
O249 Nd225 2.424 1_655 S
O249 C234 1.268 . S
O250 Nd225 2.500 . S
O250 C235 1.258 . S
O251 Nd225 2.492 . S
O251 C235 1.239 . S
O252 Nd225 2.487 1_655 S
O252 C242 1.241 . S
O253 Nd224 2.414 1_556 S
O253 Nd225 2.682 1_655 S
O253 C242 1.273 . S
O254 Nd225 2.410 . S
O254 C243 1.251 1_556 S
O255 Nd224 2.424 1_455 S
O255 C243 1.268 . S
H256 C228 0.930 . S
H257 C229 0.929 . S
H258 C231 0.930 . S
H259 C232 0.929 . S
H260 C237 0.930 . S
H261 C238 0.929 . S
H262 C240 0.930 . S
H263 C241 0.929 . S
H264 C270 0.930 . S
H265 C274 0.930 . S
H266 C279 0.929 . S
H267 C277 0.929 . S
H268 C272 0.929 . S
H269 C278 0.929 . S
C270 H264 0.930 . S
C270 C271 1.367 . S
C270 C278 1.378 . S
C271 C270 1.367 . S
C271 C279 1.433 . S
C272 H268 0.929 . S
C272 C274 1.378 . S
C272 C276 1.350 . S
C273 C276 1.463 . S
C273 C278 1.350 . S
C273 N281 1.427 . S
C274 H265 0.930 . S
C274 C272 1.378 . S
C274 C275 1.367 . S
C275 C274 1.367 . S
C275 C277 1.433 . S
C276 C272 1.350 . S
C276 C273 1.463 . S
C276 N280 1.427 . S
C277 H267 0.929 . S
C277 C275 1.433 . S
C277 N280 1.384 . S
C278 H269 0.929 . S
C278 C270 1.378 . S
C278 C273 1.350 . S
C279 H266 0.929 . S
C279 C271 1.433 . S
C279 N281 1.384 . S
N280 C276 1.427 . S
N280 C277 1.384 . S
N281 C273 1.427 . S
N281 C279 1.384 . S
H282 C288 0.930 . S
H283 C292 0.930 . S
H284 C297 0.929 . S
H285 C295 0.929 1_554 S
H286 C290 0.929 . S
H287 C296 0.929 . S
C288 H282 0.930 . S
C288 C289 1.367 . S
C288 C296 1.378 . S
C289 C288 1.367 . S
C289 C297 1.433 . S
C290 H286 0.929 . S
C290 C292 1.378 . S
C290 C294 1.350 . S
C291 C294 1.463 . S
C291 C296 1.350 . S
C291 N299 1.427 . S
C292 H283 0.930 . S
C292 C290 1.378 . S
C292 C293 1.367 . S
C293 C292 1.367 . S
C293 C295 1.433 . S
C294 C290 1.350 . S
C294 C291 1.463 . S
C294 N298 1.427 . S
C295 H285 0.929 1_556 S
C295 C293 1.433 . S
C295 N298 1.384 . S
C296 H287 0.929 . S
C296 C288 1.378 . S
C296 C291 1.350 . S
C297 H284 0.929 . S
C297 C289 1.433 . S
C297 N299 1.384 . S
N298 C294 1.427 . S
N298 C295 1.384 . S
N299 C291 1.427 . S
N299 C297 1.384 . S
H300 C306 0.930 . S
H301 C310 0.930 . S
H302 C315 0.929 . S
H303 C313 0.929 . S
H304 C308 0.929 . S
H305 C314 0.929 . S
C306 H300 0.930 . S
C306 C307 1.367 . S
C306 C314 1.378 . S
C307 C306 1.367 . S
C307 C315 1.433 . S
C308 H304 0.929 . S
C308 C310 1.378 . S
C308 C312 1.350 . S
C309 C312 1.463 . S
C309 C314 1.350 . S
C309 N317 1.427 . S
C310 H301 0.930 . S
C310 C308 1.378 . S
C310 C311 1.367 . S
C311 C310 1.367 . S
C311 C313 1.433 . S
C312 C308 1.350 . S
C312 C309 1.463 . S
C312 N316 1.427 . S
C313 H303 0.929 . S
C313 C311 1.433 . S
C313 N316 1.384 . S
C314 H305 0.929 . S
C314 C306 1.378 . S
C314 C309 1.350 . S
C315 H302 0.929 . S
C315 C307 1.433 . S
C315 N317 1.384 . S
N316 C312 1.427 . S
N316 C313 1.384 . S
N317 C309 1.427 . S
N317 C315 1.384 . S
H318 C324 0.930 . S
H319 C328 0.930 . S
H320 C333 0.929 . S
H321 C331 0.929 . S
H322 C326 0.929 . S
H323 C332 0.929 . S
C324 H318 0.930 . S
C324 C325 1.367 . S
C324 C332 1.378 . S
C325 C324 1.367 . S
C325 C333 1.433 . S
C326 H322 0.929 . S
C326 C328 1.378 . S
C326 C330 1.350 . S
C327 C330 1.463 . S
C327 C332 1.350 . S
C327 N335 1.427 . S
C328 H319 0.930 . S
C328 C326 1.378 . S
C328 C329 1.367 . S
C329 C328 1.367 . S
C329 C331 1.433 . S
C330 C326 1.350 . S
C330 C327 1.463 . S
C330 N334 1.427 . S
C331 H321 0.929 . S
C331 C329 1.433 . S
C331 N334 1.384 . S
C332 H323 0.929 . S
C332 C324 1.378 . S
C332 C327 1.350 . S
C333 H320 0.929 . S
C333 C325 1.433 . S
C333 N335 1.384 . S
N334 C330 1.427 . S
N334 C331 1.384 . S
N335 C327 1.427 . S
N335 C333 1.384 . S
H336 C342 0.930 . S
H337 C346 0.930 . S
H338 C351 0.929 . S
H339 C349 0.929 . S
H340 C344 0.929 . S
H341 C350 0.929 . S
C342 H336 0.930 . S
C342 C343 1.367 . S
C342 C350 1.378 . S
C343 C342 1.367 . S
C343 C351 1.433 . S
C344 H340 0.929 . S
C344 C346 1.378 . S
C344 C348 1.350 . S
C345 C348 1.463 . S
C345 C350 1.350 . S
C345 N353 1.427 . S
C346 H337 0.930 . S
C346 C344 1.378 . S
C346 C347 1.367 . S
C347 C346 1.367 . S
C347 C349 1.433 . S
C348 C344 1.350 . S
C348 C345 1.463 . S
C348 N352 1.427 . S
C349 H339 0.929 . S
C349 C347 1.433 . S
C349 N352 1.384 . S
C350 H341 0.929 . S
C350 C342 1.378 . S
C350 C345 1.350 . S
C351 H338 0.929 . S
C351 C343 1.433 . S
C351 N353 1.384 . S
N352 C348 1.427 . S
N352 C349 1.384 . S
N353 C345 1.427 . S
N353 C351 1.384 . S
H354 C360 0.930 . S
H355 C364 0.930 . S
H356 C369 0.929 . S
H357 C367 0.929 . S
H358 C362 0.929 . S
H359 C368 0.929 . S
C360 H354 0.930 . S
C360 C361 1.367 . S
C360 C368 1.378 . S
C361 C360 1.367 . S
C361 C369 1.433 . S
C362 H358 0.929 . S
C362 C364 1.378 . S
C362 C366 1.350 . S
C363 C366 1.463 . S
C363 C368 1.350 . S
C363 N371 1.427 . S
C364 H355 0.930 . S
C364 C362 1.378 . S
C364 C365 1.367 . S
C365 C364 1.367 . S
C365 C367 1.433 . S
C366 C362 1.350 . S
C366 C363 1.463 . S
C366 N370 1.427 . S
C367 H357 0.929 . S
C367 C365 1.433 . S
C367 N370 1.384 . S
C368 H359 0.929 . S
C368 C360 1.378 . S
C368 C363 1.350 . S
C369 H356 0.929 . S
C369 C361 1.433 . S
C369 N371 1.384 . S
N370 C366 1.427 . S
N370 C367 1.384 . S
N371 C363 1.427 . S
N371 C369 1.384 . S
H372 C378 0.930 . S
H373 C382 0.930 . S
H374 C387 0.929 . S
H375 C385 0.929 . S
H376 C380 0.929 . S
H377 C386 0.929 . S
C378 H372 0.930 . S
C378 C379 1.367 . S
C378 C386 1.378 . S
C379 C378 1.367 . S
C379 C387 1.433 . S
C380 H376 0.929 . S
C380 C382 1.378 . S
C380 C384 1.350 . S
C381 C384 1.463 . S
C381 C386 1.350 . S
C381 N389 1.427 . S
C382 H373 0.930 . S
C382 C380 1.378 . S
C382 C383 1.367 . S
C383 C382 1.367 . S
C383 C385 1.433 . S
C384 C380 1.350 . S
C384 C381 1.463 . S
C384 N388 1.427 . S
C385 H375 0.929 . S
C385 C383 1.433 . S
C385 N388 1.384 . S
C386 H377 0.929 . S
C386 C378 1.378 . S
C386 C381 1.350 . S
C387 H374 0.929 . S
C387 C379 1.433 . S
C387 N389 1.384 . S
N388 C384 1.427 . S
N388 C385 1.384 . S
N389 C381 1.427 . S
N389 C387 1.384 . S
H390 C396 0.930 . S
H391 C400 0.930 . S
H392 C405 0.929 . S
H393 C403 0.929 . S
H394 C398 0.929 . S
H395 C404 0.929 . S
C396 H390 0.930 . S
C396 C397 1.367 . S
C396 C404 1.378 . S
C397 C396 1.367 . S
C397 C405 1.433 . S
C398 H394 0.929 . S
C398 C400 1.378 . S
C398 C402 1.350 . S
C399 C402 1.463 . S
C399 C404 1.350 . S
C399 N407 1.427 . S
C400 H391 0.930 . S
C400 C398 1.378 . S
C400 C401 1.367 . S
C401 C400 1.367 . S
C401 C403 1.433 . S
C402 C398 1.350 . S
C402 C399 1.463 . S
C402 N406 1.427 . S
C403 H393 0.929 . S
C403 C401 1.433 . S
C403 N406 1.384 . S
C404 H395 0.929 . S
C404 C396 1.378 . S
C404 C399 1.350 . S
C405 H392 0.929 . S
C405 C397 1.433 . S
C405 N407 1.384 . S
N406 C402 1.427 . S
N406 C403 1.384 . S
N407 C399 1.427 . S
N407 C405 1.384 . S
H408 C414 0.930 . S
H409 C418 0.930 . S
H410 C423 0.929 . S
H411 C421 0.929 . S
H412 C416 0.929 . S
H413 C422 0.929 . S
C414 H408 0.930 . S
C414 C415 1.367 . S
C414 C422 1.378 . S
C415 C414 1.367 . S
C415 C423 1.433 . S
C416 H412 0.929 . S
C416 C418 1.378 . S
C416 C420 1.350 . S
C417 C420 1.463 . S
C417 C422 1.350 . S
C417 N425 1.427 . S
C418 H409 0.930 . S
C418 C416 1.378 . S
C418 C419 1.367 . S
C419 C418 1.367 . S
C419 C421 1.433 . S
C420 C416 1.350 . S
C420 C417 1.463 . S
C420 N424 1.427 . S
C421 H411 0.929 . S
C421 C419 1.433 . S
C421 N424 1.384 . S
C422 H413 0.929 . S
C422 C414 1.378 . S
C422 C417 1.350 . S
C423 H410 0.929 . S
C423 C415 1.433 . S
C423 N425 1.384 . S
N424 C420 1.427 . S
N424 C421 1.384 . S
N425 C417 1.427 . S
N425 C423 1.384 . S
H426 C432 0.930 . S
H427 C436 0.930 . S
H428 C441 0.929 . S
H429 C439 0.929 . S
H430 C434 0.929 . S
H431 C440 0.929 . S
C432 H426 0.930 . S
C432 C433 1.367 . S
C432 C440 1.378 . S
C433 C432 1.367 . S
C433 C441 1.433 . S
C434 H430 0.929 . S
C434 C436 1.378 . S
C434 C438 1.350 . S
C435 C438 1.463 . S
C435 C440 1.350 . S
C435 N443 1.427 . S
C436 H427 0.930 . S
C436 C434 1.378 . S
C436 C437 1.367 . S
C437 C436 1.367 . S
C437 C439 1.433 . S
C438 C434 1.350 . S
C438 C435 1.463 . S
C438 N442 1.427 . S
C439 H429 0.929 . S
C439 C437 1.433 . S
C439 N442 1.384 . S
C440 H431 0.929 . S
C440 C432 1.378 . S
C440 C435 1.350 . S
C441 H428 0.929 . S
C441 C433 1.433 . S
C441 N443 1.384 . S
N442 C438 1.427 . S
N442 C439 1.384 . S
N443 C435 1.427 . S
N443 C441 1.384 . S
H444 C450 0.930 . S
H445 C454 0.930 . S
H446 C459 0.929 . S
H447 C457 0.929 . S
H448 C452 0.929 . S
H449 C458 0.929 . S
C450 H444 0.930 . S
C450 C451 1.367 . S
C450 C458 1.378 . S
C451 C450 1.367 . S
C451 C459 1.433 . S
C452 H448 0.929 . S
C452 C454 1.378 1_655 S
C452 C456 1.350 . S
C453 C456 1.463 . S
C453 C458 1.350 . S
C453 N461 1.427 . S
C454 H445 0.930 . S
C454 C452 1.378 1_455 S
C454 C455 1.367 . S
C455 C454 1.367 . S
C455 C457 1.433 1_455 S
C456 C452 1.350 . S
C456 C453 1.463 . S
C456 N460 1.427 . S
C457 H447 0.929 . S
C457 C455 1.433 1_655 S
C457 N460 1.384 . S
C458 H449 0.929 . S
C458 C450 1.378 . S
C458 C453 1.350 . S
C459 H446 0.929 . S
C459 C451 1.433 . S
C459 N461 1.384 . S
N460 C456 1.427 . S
N460 C457 1.384 . S
N461 C453 1.427 . S
N461 C459 1.384 . S
H462 C468 0.930 . S
H463 C472 0.930 . S
H464 C477 0.929 . S
H465 C475 0.929 . S
H466 C470 0.929 . S
H467 C476 0.929 . S
C468 H462 0.930 . S
C468 C469 1.367 . S
C468 C476 1.378 . S
C469 C468 1.367 . S
C469 C477 1.433 . S
C470 H466 0.929 . S
C470 C472 1.378 . S
C470 C474 1.350 . S
C471 C474 1.463 . S
C471 C476 1.350 . S
C471 N479 1.427 . S
C472 H463 0.930 . S
C472 C470 1.378 . S
C472 C473 1.367 . S
C473 C472 1.367 . S
C473 C475 1.433 . S
C474 C470 1.350 . S
C474 C471 1.463 . S
C474 N478 1.427 . S
C475 H465 0.929 . S
C475 C473 1.433 . S
C475 N478 1.384 . S
C476 H467 0.929 . S
C476 C468 1.378 . S
C476 C471 1.350 . S
C477 H464 0.929 . S
C477 C469 1.433 . S
C477 N479 1.384 . S
N478 C474 1.427 . S
N478 C475 1.384 . S
N479 C471 1.427 . S
N479 C477 1.384 . S
H480 C486 0.930 . S
H481 C490 0.930 . S
H482 C495 0.929 . S
H483 C493 0.929 . S
H484 C488 0.929 . S
H485 C494 0.929 . S
C486 H480 0.930 . S
C486 C487 1.367 . S
C486 C494 1.378 . S
C487 C486 1.367 . S
C487 C495 1.433 . S
C488 H484 0.929 . S
C488 C490 1.378 1_655 S
C488 C492 1.350 . S
C489 C492 1.463 . S
C489 C494 1.350 . S
C489 N497 1.427 . S
C490 H481 0.930 . S
C490 C488 1.378 1_455 S
C490 C491 1.367 1_455 S
C491 C490 1.367 1_655 S
C491 C493 1.433 . S
C492 C488 1.350 . S
C492 C489 1.463 . S
C492 N496 1.427 . S
C493 H483 0.929 . S
C493 C491 1.433 . S
C493 N496 1.384 . S
C494 H485 0.929 . S
C494 C486 1.378 . S
C494 C489 1.350 . S
C495 H482 0.929 . S
C495 C487 1.433 . S
C495 N497 1.384 . S
N496 C492 1.427 . S
N496 C493 1.384 . S
N497 C489 1.427 . S
N497 C495 1.384 . S
H498 C504 0.930 . S
H499 C508 0.930 . S
H500 C513 0.929 . S
H501 C511 0.929 . S
H502 C506 0.929 . S
H503 C512 0.929 . S
C504 H498 0.930 . S
C504 C505 1.367 . S
C504 C512 1.378 . S
C505 C504 1.367 . S
C505 C513 1.433 . S
C506 H502 0.929 . S
C506 C508 1.378 . S
C506 C510 1.350 . S
C507 C510 1.463 . S
C507 C512 1.350 . S
C507 N515 1.427 . S
C508 H499 0.930 . S
C508 C506 1.378 . S
C508 C509 1.367 . S
C509 C508 1.367 . S
C509 C511 1.433 . S
C510 C506 1.350 . S
C510 C507 1.463 . S
C510 N514 1.427 . S
C511 H501 0.929 . S
C511 C509 1.433 . S
C511 N514 1.384 . S
C512 H503 0.929 . S
C512 C504 1.378 . S
C512 C507 1.350 . S
C513 H500 0.929 . S
C513 C505 1.433 . S
C513 N515 1.384 . S
N514 C510 1.427 . S
N514 C511 1.384 . S
N515 C507 1.427 . S
N515 C513 1.384 . S
H516 C522 0.930 . S
H517 C526 0.930 . S
H518 C531 0.929 . S
H519 C529 0.929 . S
H520 C524 0.929 . S
H521 C530 0.929 . S
C522 H516 0.930 . S
C522 C523 1.367 . S
C522 C530 1.378 . S
C523 C522 1.367 . S
C523 C531 1.433 . S
C524 H520 0.929 . S
C524 C526 1.378 . S
C524 C528 1.350 . S
C525 C528 1.463 . S
C525 C530 1.350 . S
C525 N533 1.427 . S
C526 H517 0.930 . S
C526 C524 1.378 . S
C526 C527 1.367 . S
C527 C526 1.367 . S
C527 C529 1.433 . S
C528 C524 1.350 . S
C528 C525 1.463 . S
C528 N532 1.427 . S
C529 H519 0.929 . S
C529 C527 1.433 . S
C529 N532 1.384 . S
C530 H521 0.929 . S
C530 C522 1.378 . S
C530 C525 1.350 . S
C531 H518 0.929 . S
C531 C523 1.433 . S
C531 N533 1.384 . S
N532 C528 1.427 . S
N532 C529 1.384 . S
N533 C525 1.427 . S
N533 C531 1.384 . S
H534 C540 0.930 . S
H535 C544 0.930 . S
H536 C549 0.929 . S
H537 C547 0.929 . S
H538 C542 0.929 . S
H539 C548 0.929 . S
C540 H534 0.930 . S
C540 C541 1.367 . S
C540 C548 1.378 . S
C541 C540 1.367 . S
C541 C549 1.433 . S
C542 H538 0.929 . S
C542 C544 1.378 . S
C542 C546 1.350 . S
C543 C546 1.463 . S
C543 C548 1.350 . S
C543 N551 1.427 . S
C544 H535 0.930 . S
C544 C542 1.378 . S
C544 C545 1.367 . S
C545 C544 1.367 . S
C545 C547 1.433 . S
C546 C542 1.350 . S
C546 C543 1.463 . S
C546 N550 1.427 . S
C547 H537 0.929 . S
C547 C545 1.433 . S
C547 N550 1.384 . S
C548 H539 0.929 . S
C548 C540 1.378 . S
C548 C543 1.350 . S
C549 H536 0.929 . S
C549 C541 1.433 . S
C549 N551 1.384 . S
N550 C546 1.427 . S
N550 C547 1.384 . S
N551 C543 1.427 . S
N551 C549 1.384 . S
H552 C558 0.930 . S
H553 C562 0.930 . S
H554 C567 0.929 . S
H555 C565 0.901 1_545 S
H556 C560 0.929 1_554 S
H557 C566 0.929 . S
C558 H552 0.930 . S
C558 C559 1.367 . S
C558 C566 1.378 . S
C559 C558 1.367 . S
C559 C567 1.433 . S
C560 H556 0.929 1_556 S
C560 C562 1.378 1_556 S
C560 C564 1.350 . S
C561 C564 1.463 . S
C561 C566 1.350 . S
C561 N569 1.427 . S
C562 H553 0.930 . S
C562 C560 1.378 1_554 S
C562 C563 1.373 . S
C563 C562 1.373 . S
C563 C565 1.414 1_554 S
C564 C560 1.350 . S
C564 C561 1.463 . S
C564 N568 1.427 . S
C565 H555 0.901 1_565 S
C565 C563 1.414 1_556 S
C565 N568 1.384 . S
C566 H557 0.929 . S
C566 C558 1.378 . S
C566 C561 1.350 . S
C567 H554 0.929 . S
C567 C559 1.433 . S
C567 N569 1.384 . S
N568 C564 1.427 . S
N568 C565 1.384 . S
N569 C561 1.427 . S
N569 C567 1.384 . S
H570 C576 0.930 . S
H571 C580 0.930 . S
H572 C585 0.929 . S
H573 C583 0.929 . S
H574 C578 0.929 . S
H575 C584 0.929 . S
C576 H570 0.930 . S
C576 C577 1.367 . S
C576 C584 1.378 . S
C577 C576 1.367 . S
C577 C585 1.433 . S
C578 H574 0.929 . S
C578 C580 1.378 . S
C578 C582 1.350 . S
C579 C582 1.463 . S
C579 C584 1.350 . S
C579 N587 1.427 . S
C580 H571 0.930 . S
C580 C578 1.378 . S
C580 C581 1.367 . S
C581 C580 1.367 . S
C581 C583 1.433 . S
C582 C578 1.350 . S
C582 C579 1.463 . S
C582 N586 1.427 . S
C583 H573 0.929 . S
C583 C581 1.433 . S
C583 N586 1.384 . S
C584 H575 0.929 . S
C584 C576 1.378 . S
C584 C579 1.350 . S
C585 H572 0.929 . S
C585 C577 1.433 . S
C585 N587 1.384 . S
N586 C582 1.427 . S
N586 C583 1.384 . S
N587 C579 1.427 . S
N587 C585 1.384 . S
H588 C594 0.930 . S
H589 C598 0.930 . S
H590 C603 0.929 . S
H591 C601 0.929 1_556 S
H592 C596 0.929 . S
H593 C602 0.929 . S
C594 H588 0.930 . S
C594 C595 1.367 . S
C594 C602 1.378 . S
C595 C594 1.367 . S
C595 C603 1.433 . S
C596 H592 0.929 . S
C596 C598 1.378 . S
C596 C600 1.350 . S
C597 C600 1.463 . S
C597 C602 1.350 . S
C597 N605 1.427 . S
C598 H589 0.930 . S
C598 C596 1.378 . S
C598 C599 1.367 . S
C599 C598 1.367 . S
C599 C601 1.433 . S
C600 C596 1.350 . S
C600 C597 1.463 . S
C600 N604 1.427 . S
C601 H591 0.929 1_554 S
C601 C599 1.433 . S
C601 N604 1.384 . S
C602 H593 0.929 . S
C602 C594 1.378 . S
C602 C597 1.350 . S
C603 H590 0.929 . S
C603 C595 1.433 . S
C603 N605 1.384 . S
N604 C600 1.427 . S
N604 C601 1.384 . S
N605 C597 1.427 . S
N605 C603 1.384 . S
H606 C612 0.930 . S
H607 C616 0.930 . S
H608 C621 0.929 . S
H609 C619 0.929 . S
H610 C614 0.929 . S
H611 C620 0.929 . S
C612 H606 0.930 . S
C612 C613 1.367 . S
C612 C620 1.378 . S
C613 C612 1.367 . S
C613 C621 1.433 . S
C614 H610 0.929 . S
C614 C616 1.378 . S
C614 C618 1.350 . S
C615 C618 1.463 . S
C615 C620 1.350 . S
C615 N623 1.427 . S
C616 H607 0.930 . S
C616 C614 1.378 . S
C616 C617 1.367 . S
C617 C616 1.367 . S
C617 C619 1.433 . S
C618 C614 1.350 . S
C618 C615 1.463 . S
C618 N622 1.427 . S
C619 H609 0.929 . S
C619 C617 1.433 . S
C619 N622 1.384 . S
C620 H611 0.929 . S
C620 C612 1.378 . S
C620 C615 1.350 . S
C621 H608 0.929 . S
C621 C613 1.433 . S
C621 N623 1.384 . S
N622 C618 1.427 . S
N622 C619 1.384 . S
N623 C615 1.427 . S
N623 C621 1.384 . S
H624 C630 0.930 . S
H625 C634 0.911 1_554 S
H626 C639 0.929 . S
H627 C637 0.929 . S
H628 C632 0.929 1_554 S
H629 C638 0.929 . S
C630 H624 0.930 . S
C630 C631 1.367 . S
C630 C638 1.378 . S
C631 C630 1.367 . S
C631 C639 1.433 . S
C632 H628 0.929 1_556 S
C632 C634 1.383 . S
C632 C636 1.350 . S
C633 C636 1.463 . S
C633 C638 1.350 . S
C633 N641 1.427 . S
C634 H625 0.911 1_556 S
C634 C632 1.383 . S
C634 C635 1.381 . S
C635 C634 1.381 . S
C635 C637 1.433 . S
C636 C632 1.350 . S
C636 C633 1.463 . S
C636 N640 1.427 . S
C637 H627 0.929 . S
C637 C635 1.433 . S
C637 N640 1.384 . S
C638 H629 0.929 . S
C638 C630 1.378 . S
C638 C633 1.350 . S
C639 H626 0.929 . S
C639 C631 1.433 . S
C639 N641 1.384 . S
N640 C636 1.427 . S
N640 C637 1.384 . S
N641 C633 1.427 . S
N641 C639 1.384 . S
H642 C648 0.930 . S
H643 C652 0.930 . S
H644 C657 0.929 . S
H645 C655 0.929 . S
H646 C650 0.929 . S
H647 C656 0.929 . S
C648 H642 0.930 . S
C648 C649 1.367 . S
C648 C656 1.378 . S
C649 C648 1.367 . S
C649 C657 1.433 . S
C650 H646 0.929 . S
C650 C652 1.378 . S
C650 C654 1.350 . S
C651 C654 1.463 . S
C651 C656 1.350 . S
C651 N659 1.427 . S
C652 H643 0.930 . S
C652 C650 1.378 . S
C652 C653 1.367 . S
C653 C652 1.367 . S
C653 C655 1.433 . S
C654 C650 1.350 . S
C654 C651 1.463 . S
C654 N658 1.427 . S
C655 H645 0.929 . S
C655 C653 1.433 . S
C655 N658 1.384 . S
C656 H647 0.929 . S
C656 C648 1.378 . S
C656 C651 1.350 . S
C657 H644 0.929 . S
C657 C649 1.433 . S
C657 N659 1.384 . S
N658 C654 1.427 . S
N658 C655 1.384 . S
N659 C651 1.427 . S
N659 C657 1.384 . S
H660 C666 0.930 . S
H661 C670 0.930 . S
H662 C675 0.929 . S
H663 C673 0.929 . S
H664 C668 0.929 . S
H665 C674 0.929 . S
C666 H660 0.930 . S
C666 C667 1.367 . S
C666 C674 1.378 . S
C667 C666 1.367 . S
C667 C675 1.433 . S
C668 H664 0.929 . S
C668 C670 1.378 . S
C668 C672 1.350 . S
C669 C672 1.463 . S
C669 C674 1.350 . S
C669 N677 1.427 . S
C670 H661 0.930 . S
C670 C668 1.378 . S
C670 C671 1.367 . S
C671 C670 1.367 . S
C671 C673 1.433 . S
C672 C668 1.350 . S
C672 C669 1.463 . S
C672 N676 1.427 . S
C673 H663 0.929 . S
C673 C671 1.433 . S
C673 N676 1.384 . S
C674 H665 0.929 . S
C674 C666 1.378 . S
C674 C669 1.350 . S
C675 H662 0.929 . S
C675 C667 1.433 . S
C675 N677 1.384 . S
N676 C672 1.427 . S
N676 C673 1.384 . S
N677 C669 1.427 . S
N677 C675 1.384 . S
H678 C684 0.930 . S
H679 C688 0.930 . S
H680 C693 0.929 . S
H681 C691 0.929 . S
H682 C686 0.929 . S
H683 C692 0.929 . S
C684 H678 0.930 . S
C684 C685 1.367 . S
C684 C692 1.378 . S
C685 C684 1.367 . S
C685 C693 1.433 . S
C686 H682 0.929 . S
C686 C688 1.378 . S
C686 C690 1.350 . S
C687 C690 1.463 . S
C687 C692 1.350 . S
C687 N695 1.427 . S
C688 H679 0.930 . S
C688 C686 1.378 . S
C688 C689 1.367 . S
C689 C688 1.367 . S
C689 C691 1.433 . S
C690 C686 1.350 . S
C690 C687 1.463 . S
C690 N694 1.427 . S
C691 H681 0.929 . S
C691 C689 1.433 . S
C691 N694 1.384 . S
C692 H683 0.929 . S
C692 C684 1.378 . S
C692 C687 1.350 . S
C693 H680 0.929 . S
C693 C685 1.433 . S
C693 N695 1.384 . S
N694 C690 1.427 . S
N694 C691 1.384 . S
N695 C687 1.427 . S
N695 C693 1.384 . S
C271 N1 2.720 . S
C275 C123 2.762 . S
C289 N18 2.426 . S
C293 C154 2.473 . S
C311 C193 0.840 . S
C307 N28 0.832 . S
C325 N40 0.692 . S
C329 C230 0.657 . S
C347 C153 3.156 . S
C343 N5 3.219 . S
C365 C110 1.339 . S
C361 N14 1.326 . S
C383 C242 1.395 . S
C379 N31 1.457 . S
C401 C199 0.699 . S
C397 N41 0.699 . S
C415 N2 2.220 . S
C419 C243 2.236 . S
C437 C159 1.447 . S
C433 N27 1.421 . S
C451 N44 0.705 . S
C455 C122 0.735 . S
C469 N15 2.059 . S
C473 C194 2.072 . S
C491 C114 3.243 1_655 S
C487 N57 3.271 . S
C505 N70 1.912 . S
C509 C163 1.970 . S
C523 N79 1.201 . S
C527 C202 1.163 . S
C541 N93 0.369 . S
C545 C239 0.351 . S
C559 N54 2.890 . S
C563 C162 2.773 . S
C581 C119 1.729 . S
C577 N66 1.780 . S
C599 C233 0.788 . S
C595 N80 0.807 . S
C617 C190 1.081 . S
C613 N96 1.052 . S
C631 N53 2.255 . S
C635 C234 2.270 . S
C653 C150 1.392 . S
C649 N83 1.406 . S
C671 C113 0.645 . S
C667 N92 0.642 . S
C685 N67 2.162 . S
C689 C203 2.181 . S
