# Generated by pormake.
# Topology zzz, (3,6)-cn, num edge types: 1
# Building blocks:
#     Node 0, Type 0, BuildingBlock: BETDAH_clean_linker_0, # of connection points: 3
#     Node 1, Type 0, BuildingBlock: BETDAH_clean_linker_0, # of connection points: 3
#     Node 2, Type 0, BuildingBlock: BETDAH_clean_linker_0, # of connection points: 3
#     Node 3, Type 0, BuildingBlock: BETDAH_clean_linker_0, # of connection points: 3
#     Node 4, Type 0, BuildingBlock: BETDAH_clean_linker_0, # of connection points: 3
#     Node 5, Type 0, BuildingBlock: BETDAH_clean_linker_0, # of connection points: 3
#     Node 6, Type 0, BuildingBlock: BETDAH_clean_linker_0, # of connection points: 3
#     Node 7, Type 0, BuildingBlock: BETDAH_clean_linker_0, # of connection points: 3
#     Node 8, Type 1, BuildingBlock: KUMJIN_clean_sbu_0, # of connection points: 6
#     Node 9, Type 1, BuildingBlock: KUMJIN_clean_sbu_0, # of connection points: 6
#     Node 10, Type 1, BuildingBlock: KUMJIN_clean_sbu_0, # of connection points: 6
#     Node 11, Type 1, BuildingBlock: KUMJIN_clean_sbu_0, # of connection points: 6
#     Edge 12, Type (0, 1), BuildingBlock: MIFKUJ_clean_linker_0, # of connection points: 2
#     Edge 13, Type (0, 1), BuildingBlock: MIFKUJ_clean_linker_0, # of connection points: 2
#     Edge 14, Type (0, 1), BuildingBlock: MIFKUJ_clean_linker_0, # of connection points: 2
#     Edge 15, Type (0, 1), BuildingBlock: MIFKUJ_clean_linker_0, # of connection points: 2
#     Edge 16, Type (0, 1), BuildingBlock: MIFKUJ_clean_linker_0, # of connection points: 2
#     Edge 17, Type (0, 1), BuildingBlock: MIFKUJ_clean_linker_0, # of connection points: 2
#     Edge 18, Type (0, 1), BuildingBlock: MIFKUJ_clean_linker_0, # of connection points: 2
#     Edge 19, Type (0, 1), BuildingBlock: MIFKUJ_clean_linker_0, # of connection points: 2
#     Edge 20, Type (0, 1), BuildingBlock: MIFKUJ_clean_linker_0, # of connection points: 2
#     Edge 21, Type (0, 1), BuildingBlock: MIFKUJ_clean_linker_0, # of connection points: 2
#     Edge 22, Type (0, 1), BuildingBlock: MIFKUJ_clean_linker_0, # of connection points: 2
#     Edge 23, Type (0, 1), BuildingBlock: MIFKUJ_clean_linker_0, # of connection points: 2
#     Edge 24, Type (0, 1), BuildingBlock: MIFKUJ_clean_linker_0, # of connection points: 2
#     Edge 25, Type (0, 1), BuildingBlock: MIFKUJ_clean_linker_0, # of connection points: 2
#     Edge 26, Type (0, 1), BuildingBlock: MIFKUJ_clean_linker_0, # of connection points: 2
#     Edge 27, Type (0, 1), BuildingBlock: MIFKUJ_clean_linker_0, # of connection points: 2
#     Edge 28, Type (0, 1), BuildingBlock: MIFKUJ_clean_linker_0, # of connection points: 2
#     Edge 29, Type (0, 1), BuildingBlock: MIFKUJ_clean_linker_0, # of connection points: 2
#     Edge 30, Type (0, 1), BuildingBlock: MIFKUJ_clean_linker_0, # of connection points: 2
#     Edge 31, Type (0, 1), BuildingBlock: MIFKUJ_clean_linker_0, # of connection points: 2
#     Edge 32, Type (0, 1), BuildingBlock: MIFKUJ_clean_linker_0, # of connection points: 2
#     Edge 33, Type (0, 1), BuildingBlock: MIFKUJ_clean_linker_0, # of connection points: 2
#     Edge 34, Type (0, 1), BuildingBlock: MIFKUJ_clean_linker_0, # of connection points: 2
#     Edge 35, Type (0, 1), BuildingBlock: MIFKUJ_clean_linker_0, # of connection points: 2
# Relax obj value: 0.147
# Max RMSD: 0.153
# Mean RMSD: 0.113
data_MOF--net-zzz--node1-KUMJIN_clean_sbu_0--node2-BETDAH_clean_linker_0--edge1-MIFKUJ_clean_linker_0
_symmetry_space_group_name_H-M    P1
_symmetry_Int_Tables_number       1
_symmetry_cell_setting            triclinic
loop_
_symmetry_equiv_pos_as_xyz
'x, y, z'
_cell_length_a     66.133648
_cell_length_b     65.946648
_cell_length_c     19.242017
_cell_angle_alpha  90.515139
_cell_angle_beta   90.076039
_cell_angle_gamma 89.975931
loop_
_atom_site_label
_atom_site_type_symbol
_atom_site_fract_x
_atom_site_fract_y
_atom_site_fract_z
_atom_type_partial_charge
H0 H 0.80591 0.53611 0.12929 0.0
H1 H 0.74421 0.52931 0.06373 0.0
H2 H 0.75995 0.52246 0.27986 0.0
C3 C 0.79015 0.53363 0.14218 0.0
C4 C 0.78487 0.5298 0.21158 0.0
C5 C 0.77563 0.5334 0.08871 0.0
C6 C 0.75538 0.52936 0.10492 0.0
C7 C 0.74953 0.52543 0.17371 0.0
C8 C 0.7644 0.52549 0.2268 0.0
N9 N 0.7289 0.52138 0.19069 0.0
C10 C 0.71293 0.52103 0.14269 0.0
H11 H 0.99292 0.81876 0.11258 0.0
H12 H 0.99401 0.75679 0.04205 0.0
H13 H 0.00947 0.77161 0.25467 0.0
C14 C 0.99546 0.80283 0.12323 0.0
C15 C 1.0015 0.79715 0.19008 0.0
C16 C 0.99267 0.78839 0.06996 0.0
C17 C 0.99585 0.7678 0.08367 0.0
C18 C 1.00201 0.7615 0.15003 0.0
C19 C 1.00457 0.77629 0.20353 0.0
N20 N 1.00611 0.74059 0.16367 0.0
C21 C 1.00604 0.72486 0.11378 0.0
H22 H 0.71746 1.00406 0.1713 0.0
H23 H 0.77976 0.99876 0.11357 0.0
H24 H 0.7638 0.01279 0.32635 0.0
C25 C 0.73329 1.00465 0.18614 0.0
C26 C 0.73858 0.0089 0.2554 0.0
C27 C 0.74806 1.00083 0.1356 0.0
C28 C 0.76853 1.00143 0.15358 0.0
C29 C 0.77445 1.006 0.22217 0.0
C30 C 0.75935 0.00932 0.27336 0.0
N31 N 0.79535 1.00772 0.24026 0.0
C32 C 0.81125 1.00696 0.19212 0.0
H33 H 0.53959 0.73137 0.21792 0.0
H34 H 0.53304 0.79288 0.15012 0.0
H35 H 0.51953 0.7771 0.36236 0.0
C36 C 0.53637 0.74717 0.22957 0.0
C37 C 0.5298 0.75248 0.29636 0.0
C38 C 0.53729 0.7616 0.17648 0.0
C39 C 0.53241 0.78186 0.19145 0.0
C40 C 0.52631 0.78772 0.25878 0.0
C41 C 0.52478 0.77285 0.31094 0.0
N42 N 0.52112 0.80824 0.27469 0.0
C43 C 0.52151 0.82393 0.22629 0.0
H44 H 0.22431 0.48043 0.08284 0.0
H45 H 0.28272 0.49359 0.16842 0.0
H46 H 0.26722 0.51449 0.96301 0.0
C47 C 0.23932 0.48675 0.07622 0.0
C48 C 0.24396 0.49727 0.01525 0.0
C49 C 0.25318 0.48549 0.13116 0.0
C50 C 0.27228 0.49443 0.12515 0.0
C51 C 0.27767 0.50463 0.064 0.0
C52 C 0.26329 0.50629 0.0096 0.0
N53 N 0.29719 0.51359 0.05628 0.0
C54 C 0.31283 0.51259 0.10537 0.0
H55 H 0.04957 0.22386 0.07792 0.0
H56 H 0.03794 0.28297 0.16348 0.0
H57 H 0.01386 0.26653 0.96212 0.0
C58 C 0.0433 0.23894 0.07167 0.0
C59 C 0.03182 0.24335 0.01225 0.0
C60 C 0.04531 0.25308 0.12614 0.0
C61 C 0.0365 0.27232 0.12056 0.0
C62 C 0.02545 0.27754 0.06095 0.0
C63 C 0.02285 0.26281 0.00736 0.0
N64 N 0.0164 0.29715 0.05445 0.0
C65 C 0.01763 0.31295 0.10381 0.0
H66 H 0.31042 0.07431 0.07074 0.0
H67 H 0.25138 0.06514 0.1574 0.0
H68 H 0.26691 0.03838 0.95885 0.0
C69 C 0.29513 0.06855 0.06536 0.0
C70 C 0.29033 0.05663 0.00707 0.0
C71 C 0.2813 0.07156 0.11982 0.0
C72 C 0.26191 0.06301 0.11491 0.0
C73 C 0.25644 0.05123 0.05649 0.0
C74 C 0.27086 0.04785 1.00312 0.0
N75 N 0.23688 0.04213 0.05092 0.0
C76 C 0.22129 0.04399 0.09997 0.0
H77 H 0.47277 0.29909 0.01946 0.0
H78 H 0.47561 0.23887 0.10204 0.0
H79 H 0.48837 0.24921 0.88506 0.0
C80 C 0.47467 0.28289 0.01136 0.0
C81 C 0.48023 0.27579 0.94545 0.0
C82 C 0.47315 0.26972 0.068 0.0
C83 C 0.47661 0.24892 0.05797 0.0
C84 C 0.48176 0.24127 0.99172 0.0
C85 C 0.48386 0.25488 0.93573 0.0
N86 N 0.4854 0.22016 0.98039 0.0
C87 C 0.48415 0.20534 0.03183 0.0
Eu88 Eu 0.02967 0.01203 0.69181 0.0
C89 C 0.96027 0.9924 0.49374 0.0
C90 C 0.9756 0.96965 0.41005 0.0
C91 C 0.94057 0.96476 0.44345 0.0
C92 C 0.97701 0.98621 0.45692 0.0
C93 C 0.9416 0.98229 0.48528 0.0
C94 C 0.95758 0.95843 0.40583 0.0
C95 C 0.92577 0.0094 0.55038 0.0
N96 N 0.96172 0.00964 0.53204 0.0
C97 C 0.94458 0.01892 0.55637 0.0
C98 C 0.92434 0.99072 0.51607 0.0
Eu99 Eu 0.9946 0.02346 0.55061 0.0
N100 N 0.99409 0.99756 0.46202 0.0
C101 C 0.00943 0.99439 0.41542 0.0
C102 C 0.99198 0.96542 0.36654 0.0
C103 C 0.00873 0.97821 0.36792 0.0
H104 H 0.94564 0.03351 0.58219 0.0
H105 H 0.02123 0.97553 0.33278 0.0
H106 H 0.95639 0.94541 0.37131 0.0
H107 H 0.9124 0.01651 0.57197 0.0
H108 H 0.02254 1.00389 0.41456 0.0
H109 H 1.00725 0.0613 0.91116 0.0
H110 H 0.99152 0.95284 0.32995 0.0
H111 H 0.07668 0.99984 0.64041 0.0
H112 H 1.00191 0.03626 0.82066 0.0
H113 H 0.11172 0.01152 0.65894 0.0
H114 H 0.92648 0.95657 0.43732 0.0
H115 H 0.04091 0.07684 0.92857 0.0
H116 H 0.07721 0.0788 0.89487 0.0
H117 H 0.90973 0.98343 0.51082 0.0
H118 H 0.10558 0.06541 0.82615 0.0
N119 N 0.03239 0.03687 0.7826 0.0
C120 C 0.01685 0.04245 0.82578 0.0
C121 C 0.03868 0.06573 0.88749 0.0
C122 C 0.05476 0.05952 0.84547 0.0
C123 C 0.01973 0.05697 0.87803 0.0
C124 C 0.05123 0.04467 0.79342 0.0
H125 H 0.11863 0.04017 0.73921 0.0
N126 N 0.06376 0.022 0.70828 0.0
C127 C 0.09939 0.01891 0.68601 0.0
C128 C 0.0673 0.03711 0.75493 0.0
C129 C 0.07952 0.01235 0.6757 0.0
C130 C 0.1032 0.03513 0.73117 0.0
C131 C 0.08715 0.04421 0.7672 0.0
O132 O 0.0488 0.99189 0.75281 0.0
O133 O 0.01143 0.99851 0.60383 0.0
O134 O 0.97565 0.01234 0.64215 0.0
O135 O 0.99777 0.01229 0.73679 0.0
O136 O 0.04109 0.98903 0.61234 0.0
O137 O 0.01652 0.98774 0.75357 0.0
O138 O 0.97471 0.04393 0.49327 0.0
O139 O 0.01304 0.03683 0.63807 0.0
O140 O 0.04731 0.02907 0.60906 0.0
O141 O 0.02732 0.02413 0.51086 0.0
O142 O 0.98388 0.0474 0.62818 0.0
O143 O 1.00687 0.04676 0.48227 0.0
C144 C 0.02449 0.98645 0.57849 0.0
C145 C 0.03676 0.95819 0.74811 0.0
C146 C 0.02241 0.92535 0.71633 0.0
C147 C 0.01989 0.94541 0.73945 0.0
C148 C 0.04192 0.91792 0.70324 0.0
C149 C 0.05621 0.95046 0.7347 0.0
C150 C 0.05872 0.93044 0.71244 0.0
C151 C 0.97943 0.0107 0.70955 0.0
C152 C 0.03402 0.97972 0.76772 0.0
C153 C 0.09048 0.05965 0.8165 0.0
C154 C 0.07433 0.06727 0.85562 0.0
C155 C 1.00053 0.04964 0.6623 0.0
C156 C 0.98853 0.07708 0.49638 0.0
C157 C 1.00463 0.0901 0.48066 0.0
C158 C 1.00569 0.10958 0.51054 0.0
C159 C 0.9904 0.11607 0.55616 0.0
C160 C 0.97297 0.08412 0.54036 0.0
C161 C 0.97403 0.10345 0.57028 0.0
C162 C 0.04473 0.02918 0.54083 0.0
C163 C 0.98947 0.05558 0.47403 0.0
H164 H 1.0048 0.951 0.75038 0.0
H165 H 0.04416 0.9022 0.68845 0.0
H166 H 0.06951 0.95988 0.74114 0.0
H167 H 0.07376 0.92459 0.70311 0.0
H168 H 0.01669 0.08487 0.44678 0.0
H169 H 0.99088 0.13107 0.57952 0.0
H170 H 0.96032 0.0745 0.55365 0.0
H171 H 0.9622 0.1086 0.60504 0.0
Eu172 Eu 0.51894 0.0337 0.68702 0.0
C173 C 0.54043 0.96687 0.49328 0.0
C174 C 0.55632 0.98475 0.39833 0.0
C175 C 0.5673 0.95074 0.42626 0.0
C176 C 0.54199 0.98404 0.45281 0.0
C177 C 0.55284 0.94985 0.47918 0.0
C178 C 0.5692 0.96821 0.38634 0.0
C179 C 0.53308 0.93068 0.56035 0.0
N180 N 0.52547 0.96595 0.54132 0.0
C181 C 0.52079 0.94765 0.57059 0.0
C182 C 0.54946 0.9319 0.51536 0.0
Eu183 Eu 0.50482 0.99549 0.5558 0.0
N184 N 0.52867 0.99945 0.46339 0.0
C185 C 0.52834 0.01549 0.41853 0.0
C186 C 0.55662 1.00162 0.35502 0.0
C187 C 0.54237 0.01691 0.36459 0.0
H188 H 0.5073 0.94594 0.60143 0.0
H189 H 0.54213 0.02983 0.33029 0.0
H190 H 0.58006 0.96844 0.34426 0.0
H191 H 0.52955 0.91652 0.58561 0.0
H192 H 0.51744 0.02746 0.42322 0.0
H193 H 0.46894 0.01211 0.90635 0.0
H194 H 0.56738 1.00271 0.31281 0.0
H195 H 0.53115 0.08039 0.63659 0.0
H196 H 0.49284 1.00592 0.81467 0.0
H197 H 0.52017 0.11578 0.65529 0.0
H198 H 0.57637 0.93756 0.41371 0.0
H199 H 0.45567 0.04647 0.92832 0.0
H200 H 0.45537 0.08306 0.89835 0.0
H201 H 0.55871 0.91858 0.50602 0.0
H202 H 0.46877 0.11113 0.8293 0.0
N203 N 0.49492 0.03696 0.7813 0.0
C204 C 0.48833 0.02137 0.82253 0.0
C205 C 0.46674 0.04404 0.88759 0.0
C206 C 0.47364 0.06008 0.84726 0.0
C207 C 0.47423 0.02467 0.87544 0.0
C208 C 0.48804 0.05613 0.79441 0.0
H209 H 0.49287 0.12348 0.73916 0.0
N210 N 0.50963 0.06802 0.70645 0.0
C211 C 0.51295 0.10364 0.68344 0.0
C212 C 0.49543 0.072 0.75533 0.0
C213 C 0.51905 0.08357 0.67278 0.0
C214 C 0.49756 0.1079 0.73075 0.0
C215 C 0.48884 0.09209 0.76827 0.0
O216 O 0.54052 0.05275 0.74402 0.0
O217 O 0.53075 0.01259 0.60363 0.0
O218 O 0.51275 0.97853 0.65436 0.0
O219 O 0.51858 1.00314 0.74002 0.0
O220 O 0.53933 0.04286 0.59852 0.0
O221 O 0.54611 0.02073 0.73427 0.0
O222 O 0.48534 0.97029 0.52467 0.0
O223 O 0.49318 0.01771 0.63512 0.0
O224 O 0.5062 0.05134 0.59534 0.0
O225 O 0.49532 0.02667 0.51563 0.0
O226 O 0.4784 0.9902 0.62896 0.0
O227 O 0.48667 0.99719 0.46136 0.0
C228 C 0.54222 0.02499 0.57248 0.0
C229 C 0.57414 0.04225 0.71974 0.0
C230 C 0.60886 0.03086 0.69947 0.0
C231 C 0.58978 0.02825 0.7307 0.0
C232 C 0.6119 0.04755 0.65568 0.0
C233 C 0.57766 0.05896 0.67646 0.0
C234 C 0.59637 0.06145 0.6443 0.0
C235 C 0.51672 0.98406 0.71913 0.0
C236 C 0.55386 0.03836 0.74905 0.0
C237 C 0.47411 0.09586 0.8191 0.0
C238 C 0.46653 0.07989 0.85851 0.0
C239 C 0.47859 1.00765 0.65984 0.0
C240 C 0.45587 0.97872 0.46287 0.0
C241 C 0.44393 0.99634 0.46141 0.0
C242 C 0.42299 0.99502 0.44948 0.0
C243 C 0.4141 0.97574 0.44099 0.0
C244 C 0.4467 0.95969 0.45442 0.0
C245 C 0.42589 0.95823 0.44398 0.0
C246 C 0.49798 0.04584 0.53516 0.0
C247 C 0.47792 0.97975 0.47146 0.0
H248 H 0.58695 0.01516 0.76294 0.0
H249 H 0.62642 0.05023 0.63157 0.0
H250 H 0.5659 0.06996 0.66641 0.0
H251 H 0.59889 0.07427 0.6107 0.0
H252 H 0.45094 0.01104 0.46919 0.0
H253 H 0.3981 0.97416 0.4303 0.0
H254 H 0.45569 0.94595 0.45543 0.0
H255 H 0.41892 0.9435 0.43703 0.0
Eu256 Eu 0.53153 0.50946 0.57906 0.0
C257 C 0.44632 0.49478 0.70645 0.0
C258 C 0.42171 0.51139 0.6332 0.0
C259 C 0.41221 0.48122 0.69685 0.0
C260 C 0.44151 0.50993 0.66024 0.0
C261 C 0.4316 0.4805 0.72652 0.0
C262 C 0.40726 0.49667 0.65033 0.0
C263 C 0.45565 0.46714 0.80895 0.0
N264 N 0.46506 0.4947 0.73492 0.0
C265 C 0.46964 0.4817 0.78775 0.0
C266 C 0.43663 0.46634 0.77749 0.0
Eu267 Eu 0.48843 0.5192 0.69452 0.0
N268 N 0.45583 0.52394 0.64484 0.0
C269 C 0.4508 0.54064 0.60702 0.0
C270 C 0.41683 0.52797 0.59159 0.0
C271 C 0.43139 0.54276 0.57907 0.0
H272 H 0.4844 0.48218 0.8119 0.0
H273 H 0.42767 0.55585 0.54799 0.0
H274 H 0.39206 0.49741 0.62931 0.0
H275 H 0.45956 0.45653 0.8494 0.0
H276 H 0.46167 0.55235 0.59717 0.0
H277 H 0.59055 0.4717 0.73304 0.0
H278 H 0.40175 0.52976 0.57048 0.0
H279 H 0.53756 0.54543 0.45721 0.0
H280 H 0.55706 0.47554 0.68215 0.0
H281 H 0.56348 0.57001 0.42071 0.0
H282 H 0.40076 0.47026 0.71107 0.0
H283 H 0.61718 0.49695 0.70989 0.0
H284 H 0.62811 0.52821 0.64808 0.0
H285 H 0.42576 0.4551 0.79422 0.0
H286 H 0.62071 0.55508 0.56422 0.0
N287 N 0.56359 0.50349 0.63169 0.0
C288 C 0.56809 0.48696 0.67133 0.0
C289 C 0.60231 0.49883 0.68706 0.0
C290 C 0.5981 0.51509 0.64325 0.0
C291 C 0.58732 0.48457 0.70032 0.0
C292 C 0.57843 0.51693 0.61506 0.0
H293 H 0.59684 0.5706 0.47882 0.0
N294 N 0.55573 0.53284 0.53748 0.0
C295 C 0.56669 0.55953 0.46226 0.0
C296 C 0.57431 0.53213 0.56745 0.0
C297 C 0.55207 0.54557 0.48302 0.0
C298 C 0.58547 0.55985 0.49535 0.0
C299 C 0.58965 0.54578 0.54748 0.0
O300 O 0.54923 0.49909 0.48983 0.0
O301 O 0.49795 0.51056 0.58724 0.0
O302 O 0.49002 0.4856 0.66675 0.0
O303 O 0.52449 0.48194 0.64753 0.0
O304 O 0.51008 0.52188 0.49652 0.0
O305 O 0.52329 0.4818 0.5228 0.0
O306 O 0.48186 0.52537 0.80338 0.0
O307 O 0.52225 0.51968 0.68469 0.0
O308 O 0.5292 0.54358 0.59691 0.0
O309 O 0.49563 0.54766 0.63096 0.0
O310 O 0.51113 0.50879 0.77671 0.0
O311 O 0.48173 0.55006 0.72994 0.0
C312 C 0.49346 0.51808 0.52903 0.0
C313 C 0.55054 0.46333 0.4762 0.0
C314 C 0.55054 0.4275 0.4436 0.0
C315 C 0.54031 0.44598 0.45327 0.0
C316 C 0.57131 0.42654 0.45932 0.0
C317 C 0.57124 0.46214 0.49208 0.0
C318 C 0.58151 0.44376 0.48381 0.0
C319 C 0.50655 0.47427 0.66398 0.0
C320 C 0.53906 0.48233 0.48266 0.0
C321 C 0.60884 0.54458 0.57835 0.0
C322 C 0.61306 0.52926 0.62602 0.0
C323 C 0.52739 0.5132 0.74358 0.0
C324 C 0.4955 0.55669 0.84154 0.0
C325 C 0.49796 0.57762 0.83152 0.0
C326 C 0.51143 0.58879 0.87325 0.0
C327 C 0.52219 0.57893 0.92611 0.0
C328 C 0.50656 0.54707 0.89447 0.0
C329 C 0.51983 0.55818 0.93633 0.0
C330 C 0.51292 0.55494 0.60658 0.0
C331 C 0.48192 0.54497 0.79536 0.0
H332 H 0.5242 0.44697 0.44328 0.0
H333 H 0.57976 0.41264 0.45168 0.0
H334 H 0.57946 0.47532 0.51066 0.0
H335 H 0.59749 0.44289 0.49573 0.0
H336 H 0.4896 0.58516 0.79066 0.0
H337 H 0.53207 0.5874 0.96055 0.0
H338 H 0.50506 0.53097 0.90364 0.0
H339 H 0.52821 0.5507 0.97711 0.0
Eu340 Eu 0.0201 0.53932 0.5522 0.0
C341 C 0.03569 0.45608 0.68864 0.0
C342 C 0.02077 0.43064 0.61296 0.0
C343 C 0.05083 0.42254 0.68002 0.0
C344 C 0.02118 0.45056 0.6403 0.0
C345 C 0.05042 0.44201 0.71023 0.0
C346 C 0.036 0.41685 0.63153 0.0
C347 C 0.06197 0.46677 0.79476 0.0
N348 N 0.03469 0.47489 0.71743 0.0
C349 C 0.04693 0.48009 0.77215 0.0
C350 C 0.06391 0.44774 0.76302 0.0
Eu351 Eu 0.00998 0.49727 0.67204 0.0
N352 N 1.0067 0.46425 0.62348 0.0
C353 C 0.99034 0.45842 0.58481 0.0
C354 C 1.00466 0.42496 0.56983 0.0
C355 C 0.98918 0.4388 0.55681 0.0
H356 H 0.04559 0.49489 0.79632 0.0
H357 H 0.97642 0.43444 0.52473 0.0
H358 H 0.0361 0.40158 0.61024 0.0
H359 H 0.07207 0.4712 0.83653 0.0
H360 H 0.97833 0.46899 0.57383 0.0
H361 H 0.05755 0.60032 0.70016 0.0
H362 H 1.00374 0.40979 0.54793 0.0
H363 H 0.98551 0.54388 0.42617 0.0
H364 H 0.05345 0.56607 0.65312 0.0
H365 H 0.96232 0.56963 0.37892 0.0
H366 H 0.06217 0.41158 0.69535 0.0
H367 H 0.0333 0.62727 0.66905 0.0
H368 H 1.00314 0.63803 0.59934 0.0
H369 H 0.0755 0.43739 0.78088 0.0
H370 H 0.9772 0.62971 0.51183 0.0
N371 N 0.02629 0.57261 0.59743 0.0
C372 C 0.04246 0.5773 0.63906 0.0
C373 C 0.0313 0.61209 0.64817 0.0
C374 C 0.01549 0.60759 0.60228 0.0
C375 C 0.045 0.59692 0.66582 0.0
C376 C 0.01348 0.58752 0.57697 0.0
H377 H 0.96211 0.60437 0.42845 0.0
N378 N 0.99815 0.56372 0.50254 0.0
C379 C 0.97248 0.57356 0.42104 0.0
C380 C 0.9989 0.58289 0.52812 0.0
C381 C 0.9857 0.55904 0.44786 0.0
C382 C 0.97235 0.59312 0.44932 0.0
C383 C 0.98589 0.5981 0.50277 0.0
O384 O 0.02839 0.54278 0.44336 0.0
O385 O 0.0193 0.50558 0.565 0.0
O386 O 0.04359 0.49817 0.64782 0.0
O387 O 0.04677 0.53251 0.62578 0.0
O388 O 0.00795 0.51645 0.47281 0.0
O389 O 0.05183 0.54168 0.5215 0.0
O390 O 1.00216 0.49476 0.78156 0.0
O391 O 0.00926 0.5309 0.65728 0.0
O392 O 0.98609 0.53831 0.57163 0.0
O393 O 0.98173 0.50484 0.60711 0.0
O394 O 0.01903 0.52124 0.75304 0.0
O395 O 0.98039 0.48589 0.7025 0.0
C396 C 0.01187 0.50026 0.50703 0.0
C397 C 0.05697 0.5225 0.41838 0.0
C398 C 0.08314 0.49642 0.41137 0.0
C399 C 0.07514 0.514 0.44272 0.0
C400 C 0.07278 0.48736 0.35535 0.0
C401 C 0.04711 0.51338 0.36129 0.0
C402 C 0.05497 0.49591 0.3304 0.0
C403 C 0.05451 0.51492 0.6459 0.0
C404 C 0.04753 0.53979 0.45559 0.0
C405 C 0.9872 0.61787 0.53008 0.0
C406 C 1.00197 0.62261 0.57983 0.0
C407 C 0.01496 0.53701 0.71659 0.0
C408 C 0.9679 0.50235 0.804 0.0
C409 C 0.94986 0.50798 0.77019 0.0
C410 C 0.93529 0.51984 0.80484 0.0
C411 C 0.93913 0.52614 0.87379 0.0
C412 C 0.9713 0.50882 0.87275 0.0
C413 C 0.95703 0.52076 0.90714 0.0
C414 C 0.97452 0.52217 0.58223 0.0
C415 C 0.98339 0.49001 0.76822 0.0
H416 H 0.08299 0.52093 0.48636 0.0
H417 H 0.07882 0.47409 0.32911 0.0
H418 H 0.03313 0.51954 0.34103 0.0
H419 H 0.04733 0.48907 0.28649 0.0
H420 H 0.94714 0.50318 0.71704 0.0
H421 H 0.92805 0.53479 0.90297 0.0
H422 H 0.98502 0.50466 0.89993 0.0
H423 H 0.95974 0.52563 0.96021 0.0
H424 H 0.18221 0.03895 0.06367 0.0
H425 H 0.15258 0.03875 0.14012 0.0
H426 H 0.19115 0.05027 0.31715 0.0
H427 H 0.22089 0.0501 0.24024 0.0
H428 H 0.16445 0.02255 0.35051 0.0
H429 H 0.15912 0.08784 0.24704 0.0
H430 H 0.15727 0.11341 0.15451 0.0
H431 H 0.10429 0.08448 0.07097 0.0
H432 H 0.10596 0.05859 0.16255 0.0
H433 H 0.08211 0.04386 0.57993 0.0
H434 H 0.11221 0.04806 0.50792 0.0
H435 H 0.07781 0.03116 0.3261 0.0
H436 H 0.04778 0.0267 0.39783 0.0
H437 H 0.1029 0.06278 0.29939 0.0
H438 H 0.10904 0.99713 0.40386 0.0
H439 H 0.10972 0.97353 0.50251 0.0
H440 H 0.16103 1.00485 0.58838 0.0
H441 H 0.16045 0.02885 0.49071 0.0
C442 C 0.18431 0.04157 0.11889 0.0
C443 C 0.20378 0.04466 0.14606 0.0
C444 C 0.16734 0.04156 0.16267 0.0
C445 C 0.1694 0.04479 0.2348 0.0
C446 C 0.189 0.0478 0.26191 0.0
C447 C 0.20601 0.04778 0.21796 0.0
C448 C 0.1512 0.04449 0.28169 0.0
C449 C 0.15116 0.03164 0.33974 0.0
C450 C 0.13352 0.05599 0.26767 0.0
C451 C 0.13282 0.07113 0.21118 0.0
C452 C 0.14722 0.08679 0.20845 0.0
C453 C 0.14616 0.10138 0.15631 0.0
C454 C 0.13071 0.10053 0.10678 0.0
C455 C 0.11628 0.08509 0.10928 0.0
C456 C 0.11727 0.07045 0.16129 0.0
C457 C 0.08096 0.04066 0.5249 0.0
C458 C 0.06256 0.03396 0.4957 0.0
C459 C 0.09823 0.04324 0.4835 0.0
C460 C 0.09753 0.03945 0.41149 0.0
C461 C 0.07891 0.03393 0.38155 0.0
C462 C 0.06168 0.03123 0.42302 0.0
C463 C 0.1162 0.04084 0.36756 0.0
C464 C 0.11628 0.05383 0.31012 0.0
C465 C 0.13393 0.02957 0.38233 0.0
C466 C 0.1346 0.01489 0.44027 0.0
C467 C 0.12041 0.99905 0.44396 0.0
C468 C 0.12078 0.98559 0.49968 0.0
C469 C 0.13541 0.98769 0.55169 0.0
C470 C 0.14971 1.00324 0.54802 0.0
C471 C 0.14938 0.01676 0.49247 0.0
H472 H 0.13565 0.97728 0.59485 0.0
H473 H 0.12988 0.11188 0.06657 0.0
H474 H 0.51376 0.17871 0.06285 0.0
H475 H 0.51231 0.15088 0.14652 0.0
H476 H 0.45095 0.16742 0.19794 0.0
H477 H 0.45262 0.19551 0.11487 0.0
H478 H 0.47022 0.15882 0.31245 0.0
H479 H 0.46209 0.12522 0.0948 0.0
H480 H 0.46985 0.11561 0.97364 0.0
H481 H 0.52658 0.09032 0.03841 0.0
H482 H 0.51932 0.10009 0.15988 0.0
H483 H 0.47359 0.04308 0.41899 0.0
H484 H 0.46692 0.0694 0.33248 0.0
H485 H 0.50438 0.11119 0.44844 0.0
H486 H 0.51088 0.08528 0.5343 0.0
H487 H 0.49108 0.08899 0.24633 0.0
H488 H 0.4887 0.15879 0.43323 0.0
H489 H 0.47789 0.16655 0.55321 0.0
H490 H 0.43561 0.1172 0.54535 0.0
H491 H 0.44593 0.10931 0.42501 0.0
C492 C 0.5 0.17637 0.0922 0.0
C493 C 0.4833 0.18916 0.0826 0.0
C494 C 0.49911 0.16038 0.1397 0.0
C495 C 0.4814 0.15672 0.17817 0.0
C496 C 0.46477 0.16979 0.169 0.0
C497 C 0.4657 0.18582 0.1215 0.0
C498 C 0.48041 0.13953 0.22856 0.0
C499 C 0.47473 0.14356 0.29775 0.0
C500 C 0.48574 0.11937 0.20956 0.0
C501 C 0.49023 0.11356 0.13645 0.0
C502 C 0.4763 0.11777 0.08316 0.0
C503 C 0.48059 0.11226 0.01441 0.0
C504 C 0.49871 0.10239 0.9983 0.0
C505 C 0.51256 0.09798 0.05095 0.0
C506 C 0.50836 0.1035 0.11978 0.0
C507 C 0.4802 0.05796 0.42651 0.0
C508 C 0.49253 0.06207 0.48478 0.0
C509 C 0.47645 0.07299 0.37674 0.0
C510 C 0.48492 0.09248 0.38406 0.0
C511 C 0.49722 0.09652 0.4421 0.0
C512 C 0.50088 0.0816 0.49175 0.0
C513 C 0.4816 0.10849 0.33048 0.0
C514 C 0.48645 0.10423 0.26079 0.0
C515 C 0.47503 0.12831 0.34859 0.0
C516 C 0.46821 0.13339 0.42017 0.0
C517 C 0.47698 0.14969 0.45688 0.0
C518 C 0.47097 0.15408 0.52502 0.0
C519 C 0.45611 0.14234 0.55692 0.0
C520 C 0.44715 0.12624 0.52063 0.0
C521 C 0.45309 0.1218 0.45247 0.0
H522 H 0.45153 0.14572 0.60974 0.0
H523 H 0.50204 0.09813 0.94508 0.0
H524 H 0.31993 0.48724 0.21367 0.0
H525 H 0.34978 0.48693 0.29015 0.0
H526 H 0.37459 0.53767 0.17884 0.0
H527 H 0.34492 0.53773 0.10214 0.0
H528 H 0.40319 0.51074 0.19928 0.0
H529 H 0.35291 0.54204 0.34443 0.0
H530 H 0.32041 0.54489 0.40637 0.0
H531 H 0.33457 0.49162 0.52358 0.0
H532 H 0.36705 0.48827 0.46156 0.0
H533 H 0.47947 0.54388 0.43142 0.0
H534 H 0.44818 0.54145 0.36348 0.0
H535 H 0.43171 0.48734 0.47409 0.0
H536 H 0.46324 0.48969 0.54189 0.0
H537 H 0.39885 0.51329 0.45643 0.0
H538 H 0.44955 0.4829 0.31432 0.0
H539 H 0.4823 0.48036 0.25385 0.0
H540 H 0.46743 0.53258 0.13223 0.0
H541 H 0.43469 0.53563 0.1928 0.0
C542 C 0.33176 0.49835 0.20597 0.0
C543 C 0.33015 0.51256 0.15231 0.0
C544 C 0.3488 0.49824 0.24983 0.0
C545 C 0.36452 0.51241 0.24107 0.0
C546 C 0.36279 0.52656 0.18703 0.0
C547 C 0.34579 0.52665 0.1433 0.0
C548 C 0.38296 0.51235 0.28681 0.0
C549 C 0.40216 0.51161 0.25549 0.0
C550 C 0.38186 0.51282 0.36051 0.0
C551 C 0.36229 0.51474 0.39759 0.0
C552 C 0.349 0.53081 0.38288 0.0
C553 C 0.3306 0.53254 0.41812 0.0
C554 C 0.32539 0.51839 0.46867 0.0
C555 C 0.3386 0.50253 0.48425 0.0
C556 C 0.35701 0.50071 0.44907 0.0
C557 C 0.46909 0.53155 0.44159 0.0
C558 C 0.47359 0.51723 0.49296 0.0
C559 C 0.45123 0.53012 0.40256 0.0
C560 C 0.43753 0.51413 0.41312 0.0
C561 C 0.44194 0.49984 0.46491 0.0
C562 C 0.45991 0.50125 0.50392 0.0
C563 C 0.41896 0.51224 0.36878 0.0
C564 C 0.39981 0.5125 0.40028 0.0
C565 C 0.42007 0.51139 0.29525 0.0
C566 C 0.43974 0.50961 0.2586 0.0
C567 C 0.45333 0.49395 0.27511 0.0
C568 C 0.47188 0.4924 0.24075 0.0
C569 C 0.47697 0.50633 0.18935 0.0
C570 C 0.46348 0.52182 0.17213 0.0
C571 C 0.44492 0.52346 0.20643 0.0
H572 H 0.49133 0.5051 0.16277 0.0
H573 H 0.31114 0.51977 0.49592 0.0
H574 H 0.04837 0.32722 0.18546 0.0
H575 H 0.04828 0.35811 0.25832 0.0
H576 H 0.98635 0.36944 0.19959 0.0
H577 H 0.98662 0.33881 0.12629 0.0
H578 H 1.00662 0.40314 0.19071 0.0
H579 H 1.00113 0.35213 0.36551 0.0
H580 H 0.01109 0.32157 0.43003 0.0
H581 H 0.06749 0.34958 0.48583 0.0
H582 H 0.058 0.38021 0.42073 0.0
H583 H 0.98385 0.48345 0.42192 0.0
H584 H 0.98529 0.45122 0.35885 0.0
H585 H 0.04486 0.44015 0.44245 0.0
H586 H 0.04263 0.47195 0.50998 0.0
H587 H 0.02731 0.40617 0.43831 0.0
H588 H 0.03351 0.45615 0.25659 0.0
H589 H 0.02355 0.48653 0.19005 0.0
H590 H 0.96561 0.45988 0.14723 0.0
H591 H 0.97523 0.42946 0.21339 0.0
C592 C 0.03472 0.33627 0.18872 0.0
C593 C 0.01748 0.33061 0.15044 0.0
C594 C 0.03462 0.35391 0.23066 0.0
C595 C 0.01723 0.36625 0.23545 0.0
C596 C 0.99999 0.36036 0.19723 0.0
C597 C 1.00011 0.34278 0.15543 0.0
C598 C 0.01711 0.38568 0.27753 0.0
C599 C 0.01093 0.40367 0.24513 0.0
C600 C 0.02322 0.38678 0.34826 0.0
C601 C 0.02896 0.36838 0.38745 0.0
C602 C 0.01574 0.35171 0.39098 0.0
C603 C 0.02129 0.33438 0.42777 0.0
C604 C 0.03995 0.3336 0.46179 0.0
C605 C 0.05306 0.35018 0.4593 0.0
C606 C 0.0476 0.36753 0.42248 0.0
C607 C 0.99718 0.47403 0.42726 0.0
C608 C 0.01291 0.48003 0.4721 0.0
C609 C 0.99818 0.45565 0.39016 0.0
C610 C 0.01544 0.44315 0.39359 0.0
C611 C 0.03132 0.44929 0.43824 0.0
C612 C 0.03005 0.46748 0.47716 0.0
C613 C 0.01668 0.42368 0.35155 0.0
C614 C 0.02308 0.40567 0.38386 0.0
C615 C 0.01078 0.42249 0.28053 0.0
C616 C 1.00502 0.44071 0.24054 0.0
C617 C 0.01861 0.45691 0.23336 0.0
C618 C 0.01305 0.47408 0.19567 0.0
C619 C 0.99393 0.47517 0.16488 0.0
C620 C 0.98039 0.45904 0.17125 0.0
C621 C 0.98592 0.44181 0.20862 0.0
H622 H 0.98965 0.48849 0.13586 0.0
H623 H 0.04421 0.32016 0.49022 0.0
H624 H 0.81339 0.02554 0.06733 0.0
H625 H 0.84194 0.02532 0.98572 0.0
H626 H 0.8756 0.98702 0.12501 0.0
H627 H 0.84712 0.98761 0.20706 0.0
H628 H 0.89978 0.01573 0.07483 0.0
H629 H 0.85228 0.96857 0.97349 0.0
H630 H 0.81898 0.95792 0.9283 0.0
H631 H 0.82177 1.00407 0.77261 0.0
H632 H 0.85493 0.01522 0.81762 0.0
H633 H 0.97807 0.99058 0.8339 0.0
H634 H 0.94958 0.98814 0.91504 0.0
H635 H 0.91314 0.02448 0.77796 0.0
H636 H 0.94138 0.02676 0.69737 0.0
H637 H 0.89044 0.99574 0.82778 0.0
H638 H 0.93741 0.04298 0.92537 0.0
H639 H 0.97097 0.05385 0.96648 0.0
H640 H 0.96881 0.00984 0.12932 0.0
H641 H 0.93561 0.99793 0.08694 0.0
C642 C 0.82689 0.01707 0.08026 0.0
C643 C 0.82807 1.00652 0.14317 0.0
C644 C 0.84321 0.01686 0.03351 0.0
C645 C 0.861 1.00593 0.04839 0.0
C646 C 0.86214 0.99555 0.11191 0.0
C647 C 0.84584 0.99581 0.1587 0.0
C648 C 0.87836 1.00534 0.99803 0.0
C649 C 0.89776 0.01106 0.02108 0.0
C650 C 0.87582 0.99976 0.92715 0.0
C651 C 0.85601 0.99285 0.89936 0.0
C652 C 0.84573 0.97653 0.9299 0.0
C653 C 0.82688 0.9704 0.90431 0.0
C654 C 0.81823 0.98036 0.84777 0.0
C655 C 0.82846 0.9964 0.81651 0.0
C656 C 0.84729 1.00263 0.84201 0.0
C657 C 0.96392 0.99792 0.82089 0.0
C658 C 0.96196 1.00855 0.75812 0.0
C659 C 0.94761 0.99657 0.86748 0.0
C660 C 0.92906 1.00624 0.85331 0.0
C661 C 0.92709 0.01668 0.79029 0.0
C662 C 0.9433 0.01785 0.74359 0.0
C663 C 0.91189 1.00611 0.90452 0.0
C664 C 0.8925 1.00031 0.88162 0.0
C665 C 0.91442 0.01181 0.97535 0.0
C666 C 0.93408 0.01939 1.00244 0.0
C667 C 0.94413 0.03549 0.96963 0.0
C668 C 0.96311 0.04184 0.99314 0.0
C669 C 0.97199 0.03263 0.0507 0.0
C670 C 0.96192 0.01697 0.08471 0.0
C671 C 0.94305 0.01033 0.06074 0.0
H672 H 0.98668 0.03763 0.0689 0.0
H673 H 0.80362 0.97561 0.8281 0.0
H674 H 0.50382 0.82407 0.09972 0.0
H675 H 0.50384 0.85175 0.0152 0.0
H676 H 0.5399 0.8882 0.15555 0.0
H677 H 0.5395 0.86057 0.24053 0.0
H678 H 0.51097 0.9109 0.09902 0.0
H679 H 0.5607 0.86451 0.01088 0.0
H680 H 0.57385 0.8313 0.97208 0.0
H681 H 0.52927 0.82889 0.80978 0.0
H682 H 0.51566 0.86197 0.84824 0.0
H683 H 0.53661 0.9853 0.84456 0.0
H684 H 0.53857 0.95859 0.93221 0.0
H685 H 0.50158 0.91976 0.80301 0.0
H686 H 0.49936 0.94637 0.71623 0.0
H687 H 0.5326 0.89875 0.85543 0.0
H688 H 0.48242 0.94471 0.94496 0.0
H689 H 0.4693 0.978 0.98299 0.0
H690 H 0.51476 0.9813 0.14224 0.0
H691 H 0.52836 0.94815 0.10439 0.0
C692 C 0.51173 0.83802 0.11226 0.0
C693 C 0.52171 0.84027 0.1762 0.0
C694 C 0.51183 0.85381 0.06391 0.0
C695 C 0.52209 0.87208 0.07835 0.0
C696 C 0.53189 0.87432 0.14293 0.0
C697 C 0.53174 0.85852 0.19133 0.0
C698 C 0.52258 0.8888 0.02622 0.0
C699 C 0.516 0.90829 0.04605 0.0
C700 C 0.52877 0.88544 0.95653 0.0
C701 C 0.53705 0.86563 0.93286 0.0
C702 C 0.55361 0.85683 0.96721 0.0
C703 C 0.56116 0.83804 0.94524 0.0
C704 C 0.55237 0.82797 0.88862 0.0
C705 C 0.53605 0.8367 0.8537 0.0
C706 C 0.52843 0.85548 0.87551 0.0
C707 C 0.52892 0.97105 0.83479 0.0
C708 C 0.51818 0.96787 0.77243 0.0
C709 C 0.53002 0.95579 0.88506 0.0
C710 C 0.5202 0.93708 0.87448 0.0
C711 C 0.50949 0.93392 0.81227 0.0
C712 C 0.50839 0.94914 0.76217 0.0
C713 C 0.52085 0.92079 0.92807 0.0
C714 C 0.52766 0.90138 0.90849 0.0
C715 C 0.51487 0.92423 0.9979 0.0
C716 C 0.50655 0.94404 0.02135 0.0
C717 C 0.48971 0.9526 0.98776 0.0
C718 C 0.48218 0.97144 0.0093 0.0
C719 C 0.49123 0.98179 0.06485 0.0
C720 C 0.50779 0.97329 0.09913 0.0
C721 C 0.51541 0.95447 0.07767 0.0
H722 H 0.48538 0.99638 0.08143 0.0
H723 H 0.55823 0.81341 0.87171 0.0
H724 H 0.67862 0.49947 0.15962 0.0
H725 H 0.64878 0.49883 0.08379 0.0
H726 H 0.67808 0.54046 0.94457 0.0
H727 H 0.70786 0.5413 0.02144 0.0
H728 H 0.64027 0.55167 0.96191 0.0
H729 H 0.67197 0.48919 0.90287 0.0
H730 H 0.68794 0.45597 0.92315 0.0
H731 H 0.63319 0.43423 0.01618 0.0
H732 H 0.61697 0.46742 0.99735 0.0
H733 H 0.55765 0.54106 0.71939 0.0
H734 H 0.59065 0.54338 0.77681 0.0
H735 H 0.57356 0.49459 0.91308 0.0
H736 H 0.5415 0.49122 0.8513 0.0
H737 H 0.60854 0.48742 0.88297 0.0
H738 H 0.5804 0.55385 0.96347 0.0
H739 H 0.567 0.58847 0.94824 0.0
H740 H 0.61572 0.60238 0.80959 0.0
H741 H 0.62983 0.56808 0.826 0.0
C742 C 0.67869 0.50838 0.11259 0.0
C743 C 0.69553 0.52035 0.09611 0.0
C744 C 0.66166 0.50795 0.06897 0.0
C745 C 0.66112 0.51938 0.00748 0.0
C746 C 0.67803 0.53144 0.99134 0.0
C747 C 0.69508 0.53188 0.03512 0.0
C748 C 0.64272 0.51914 0.96153 0.0
C749 C 0.63345 0.53758 0.94412 0.0
C750 C 0.63362 0.50087 0.93793 0.0
C751 C 0.64331 0.48087 0.94921 0.0
C752 C 0.66338 0.47738 0.92813 0.0
C753 C 0.67247 0.45854 0.93928 0.0
C754 C 0.6616 0.44302 0.97107 0.0
C755 C 0.6416 0.44628 0.99162 0.0
C756 C 0.63244 0.4651 0.98065 0.0
C757 C 0.56117 0.53065 0.76091 0.0
C758 C 0.54734 0.51539 0.77883 0.0
C759 C 0.57993 0.53229 0.79522 0.0
C760 C 0.58497 0.51926 0.85049 0.0
C761 C 0.57054 0.50468 0.87019 0.0
C762 C 0.55207 0.50277 0.83494 0.0
C763 C 0.60527 0.51997 0.88655 0.0
C764 C 0.61515 0.50154 0.90124 0.0
C765 C 0.61497 0.53825 0.90746 0.0
C766 C 0.606 0.55842 0.89534 0.0
C767 C 0.58813 0.56427 0.92936 0.0
C768 C 0.58045 0.58383 0.92066 0.0
C769 C 0.59033 0.59753 0.87733 0.0
C770 C 0.60803 0.59175 0.84296 0.0
C771 C 0.61597 0.57232 0.85233 0.0
H772 H 0.58437 0.61269 0.87079 0.0
H773 H 0.66867 0.42845 0.97966 0.0
H774 H 0.02958 0.6916 0.1265 0.0
H775 H 0.03061 0.66155 0.05053 0.0
H776 H 0.98529 0.68826 0.91836 0.0
H777 H 0.9841 0.71827 0.99546 0.0
H778 H 0.97668 0.64961 0.93536 0.0
H779 H 0.0364 0.68482 0.86963 0.0
H780 H 0.06889 0.70254 0.88648 0.0
H781 H 0.0946 0.64889 0.97546 0.0
H782 H 0.06217 0.63092 0.96002 0.0
H783 H 0.98848 0.56819 0.6857 0.0
H784 H 0.98636 0.60173 0.74197 0.0
H785 H 0.03519 0.58526 0.87946 0.0
H786 H 0.03798 0.55243 0.82061 0.0
H787 H 0.04132 0.6214 0.84735 0.0
H788 H 0.97945 0.58734 0.9213 0.0
H789 H 0.94616 0.571 0.9056 0.0
H790 H 0.92434 0.62341 0.79797 0.0
H791 H 0.95753 0.63998 0.8125 0.0
C792 C 0.01992 0.69108 0.08099 0.0
C793 C 1.00684 0.7073 0.0667 0.0
C794 C 0.02057 0.6739 0.03722 0.0
C795 C 0.00824 0.67253 0.97754 0.0
C796 C 0.99503 0.6888 0.96363 0.0
C797 C 0.99439 0.70601 0.00758 0.0
C798 C 0.00889 0.65398 0.93101 0.0
C799 C 0.99083 0.64362 0.91542 0.0
C800 C 0.02726 0.64583 0.90487 0.0
C801 C 0.04679 0.65658 0.91422 0.0
C802 C 0.04894 0.67685 0.89328 0.0
C803 C 0.06735 0.68693 0.90249 0.0
C804 C 0.08378 0.67686 0.93217 0.0
C805 C 0.08185 0.65667 0.95255 0.0
C806 C 0.06346 0.64653 0.94351 0.0
C807 C 0.99896 0.57194 0.72713 0.0
C808 C 0.01378 0.55785 0.74731 0.0
C809 C 0.99752 0.59104 0.76039 0.0
C810 C 0.01045 0.59629 0.81624 0.0
C811 C 0.02506 0.58196 0.83654 0.0
C812 C 0.02664 0.56307 0.80288 0.0
C813 C 0.00917 0.61651 0.85379 0.0
C814 C 0.02715 0.62732 0.86731 0.0
C815 C 0.9907 0.62508 0.87781 0.0
C816 C 0.971 0.61482 0.8675 0.0
C817 C 0.9676 0.59529 0.89375 0.0
C818 C 0.94874 0.586 0.88514 0.0
C819 C 0.93316 0.59617 0.85079 0.0
C820 C 0.93642 0.61557 0.82457 0.0
C821 C 0.95524 0.62491 0.833 0.0
H822 H 0.91849 0.58913 0.84485 0.0
H823 H 0.09802 0.6847 0.93925 0.0
H824 H 0.02516 0.24925 0.24638 0.0
H825 H 0.03529 0.22932 0.34546 0.0
H826 H 0.09493 0.22175 0.25686 0.0
H827 H 0.08386 0.24044 0.15393 0.0
H828 H 0.08535 0.18848 0.28607 0.0
H829 H 0.08533 0.24254 0.43517 0.0
H830 H 0.07711 0.27524 0.49128 0.0
H831 H 0.02 0.25153 0.55821 0.0
H832 H 0.02761 0.21883 0.50155 0.0
H833 H 0.03034 0.13135 0.5971 0.0
H834 H 0.05508 0.15732 0.56428 0.0
H835 H 0.0415 0.14557 0.34785 0.0
H836 H 0.01775 0.11935 0.38087 0.0
H837 H 0.0497 0.19055 0.51224 0.0
H838 H 0.07442 0.15704 0.23639 0.0
H839 H 0.08854 0.12491 0.19182 0.0
H840 H 0.10696 0.10863 0.39785 0.0
H841 H 0.09341 0.14088 0.44379 0.0
C842 C 0.04064 0.24392 0.24932 0.0
C843 C 0.05374 0.24625 0.1929 0.0
C844 C 0.04661 0.23265 0.30666 0.0
C845 C 0.06606 0.22399 0.30988 0.0
C846 C 0.07981 0.22806 0.25592 0.0
C847 C 0.07357 0.23882 0.19729 0.0
C848 C 0.07007 0.2076 0.3611 0.0
C849 C 0.0779 0.18908 0.33612 0.0
C850 C 0.06201 0.20842 0.4293 0.0
C851 C 0.05713 0.2281 0.46404 0.0
C852 C 0.07096 0.24429 0.46155 0.0
C853 C 0.0664 0.26286 0.49349 0.0
C854 C 0.04806 0.26545 0.52833 0.0
C855 C 0.03423 0.24948 0.53131 0.0
C856 C 0.0387 0.23088 0.49943 0.0
C857 C 0.03309 0.13418 0.54271 0.0
C858 C 0.0222 0.12351 0.49151 0.0
C859 C 0.04723 0.14892 0.52389 0.0
C860 C 0.05051 0.15331 0.45345 0.0
C861 C 0.03995 0.1421 0.40247 0.0
C862 C 0.02615 0.12721 0.42128 0.0
C863 C 0.06232 0.17138 0.43206 0.0
C864 C 0.05783 0.19016 0.46342 0.0
C865 C 0.07451 0.17093 0.3717 0.0
C866 C 0.0829 0.15154 0.34367 0.0
C867 C 0.0817 0.14679 0.27227 0.0
C868 C 0.08956 0.1285 0.24673 0.0
C869 C 0.09863 0.11477 0.29199 0.0
C870 C 0.09991 0.1193 0.36288 0.0
C871 C 0.09213 0.13758 0.38871 0.0
H872 H 0.10463 0.10063 0.27216 0.0
H873 H 0.04455 0.27985 0.55296 0.0
H874 H 0.27743 0.05629 0.25 0.0
H875 H 0.30212 0.06128 0.34221 0.0
H876 H 0.32831 0.11108 0.22995 0.0
H877 H 0.3033 0.10636 0.13774 0.0
H878 H 0.35093 0.07633 0.22687 0.0
H879 H 0.32115 0.11765 0.39922 0.0
H880 H 0.29476 0.13044 0.47856 0.0
H881 H 0.29478 0.07377 0.58661 0.0
H882 H 0.32092 0.06047 0.5073 0.0
H883 H 0.43344 0.0308 0.38692 0.0
H884 H 0.41154 0.05971 0.36342 0.0
H885 H 0.36216 0.02954 0.46643 0.0
H886 H 0.38443 1.00152 0.49578 0.0
H887 H 0.3571 0.06796 0.48176 0.0
H888 H 0.37518 0.02362 0.28728 0.0
H889 H 0.39917 1.00776 0.20523 0.0
H890 H 0.41674 0.06651 0.13233 0.0
H891 H 0.39335 0.08276 0.21583 0.0
C892 C 0.28757 0.06914 0.24693 0.0
C893 C 0.28892 0.08051 0.18574 0.0
C894 C 0.30173 0.07203 0.29998 0.0
C895 C 0.31734 0.08627 0.29214 0.0
C896 C 0.31647 0.09992 0.23672 0.0
C897 C 0.30223 0.09713 0.1839 0.0
C898 C 0.33696 0.08216 0.32626 0.0
C899 C 0.35259 0.07521 0.28285 0.0
C900 C 0.33884 0.08019 0.39901 0.0
C901 C 0.32304 0.08804 0.44702 0.0
C902 C 0.31544 0.10784 0.43955 0.0
C903 C 0.30052 0.1152 0.48462 0.0
C904 C 0.29309 0.10292 0.53758 0.0
C905 C 0.30057 0.08327 0.54561 0.0
C906 C 0.31548 0.07583 0.50067 0.0
C907 C 0.4181 0.03058 0.40651 0.0
C908 C 0.41055 0.01361 0.44203 0.0
C909 C 0.40554 0.04709 0.39251 0.0
C910 C 0.38503 0.04656 0.41133 0.0
C911 C 0.37788 0.03028 0.45087 0.0
C912 C 0.39054 0.01405 0.46652 0.0
C913 C 0.37028 0.0611 0.38193 0.0
C914 C 0.35571 0.06991 0.42604 0.0
C915 C 0.36889 0.06422 0.30931 0.0
C916 C 0.38281 0.05442 0.25869 0.0
C917 C 0.38433 0.03316 0.25432 0.0
C918 C 0.39788 0.02411 0.20777 0.0
C919 C 0.40955 0.03612 0.16382 0.0
C920 C 0.40775 0.05723 0.1666 0.0
C921 C 0.39444 0.06638 0.2138 0.0
H922 H 0.41989 0.02907 0.12736 0.0
H923 H 0.28155 0.10865 0.57241 0.0
H924 H 0.49686 0.263 0.1812 0.0
H925 H 0.50189 0.28717 0.27659 0.0
H926 H 0.45043 0.32161 0.20675 0.0
H927 H 0.44517 0.29735 0.1118 0.0
H928 H 0.49035 0.3378 0.18156 0.0
H929 H 0.45012 0.311 0.36499 0.0
H930 H 0.43814 0.2852 0.44714 0.0
H931 H 0.49747 0.28151 0.53702 0.0
H932 H 0.50991 0.30705 0.45465 0.0
H933 H 0.52016 0.42696 0.34682 0.0
H934 H 0.5004 0.39824 0.3071 0.0
H935 H 0.53706 0.35818 0.43113 0.0
H936 H 0.55548 0.38737 0.4779 0.0
H937 H 0.50111 0.34505 0.43542 0.0
H938 H 0.54327 0.36589 0.2451 0.0
H939 H 0.55777 0.38929 0.15915 0.0
H940 H 0.49853 0.40075 0.07677 0.0
H941 H 0.48365 0.3776 0.16277 0.0
C942 C 0.4859 0.27504 0.18864 0.0
C943 C 0.47092 0.27865 0.13837 0.0
C944 C 0.48877 0.28883 0.24331 0.0
C945 C 0.47667 0.30626 0.24799 0.0
C946 C 0.4599 0.30821 0.20389 0.0
C947 C 0.45698 0.29442 0.14948 0.0
C948 C 0.48504 0.32461 0.28167 0.0
C949 C 0.49234 0.33963 0.2372 0.0
C950 C 0.4884 0.32635 0.35391 0.0
C951 C 0.481 0.31082 0.40306 0.0
C952 C 0.46069 0.30452 0.40169 0.0
C953 C 0.45379 0.28998 0.44847 0.0
C954 C 0.46705 0.28168 0.49715 0.0
C955 C 0.48722 0.28793 0.49923 0.0
C956 C 0.4942 0.30246 0.45254 0.0
C957 C 0.52385 0.41214 0.36698 0.0
C958 C 0.53943 0.40957 0.41603 0.0
C959 C 0.51273 0.3956 0.343 0.0
C960 C 0.51754 0.37591 0.3646 0.0
C961 C 0.53309 0.37321 0.41344 0.0
C962 C 0.54385 0.3899 0.4393 0.0
C963 C 0.50661 0.35821 0.33488 0.0
C964 C 0.49898 0.34332 0.37977 0.0
C965 C 0.50341 0.35614 0.26237 0.0
C966 C 0.51234 0.37019 0.21092 0.0
C967 C 0.53333 0.37355 0.20908 0.0
C968 C 0.54161 0.38675 0.16031 0.0
C969 C 0.52906 0.39659 0.11281 0.0
C970 C 0.50821 0.39322 0.11387 0.0
C971 C 0.49985 0.38004 0.16255 0.0
H972 H 0.53551 0.40674 0.07492 0.0
H973 H 0.46168 0.27044 0.53335 0.0
H974 H 0.24837 0.50544 0.25322 0.0
H975 H 0.22559 0.49543 0.34603 0.0
H976 H 0.21897 0.43626 0.25061 0.0
H977 H 0.24104 0.44681 0.15558 0.0
H978 H 0.18511 0.45323 0.25273 0.0
H979 H 0.23285 0.44302 0.4292 0.0
H980 H 0.26302 0.44885 0.50191 0.0
H981 H 0.23768 0.50477 0.57756 0.0
H982 H 0.20754 0.4995 0.50439 0.0
H983 H 0.09453 0.45696 0.43149 0.0
H984 H 0.1293 0.4441 0.43066 0.0
H985 H 0.15172 0.50541 0.43124 0.0
H986 H 0.11732 0.51836 0.4341 0.0
H987 H 0.17871 0.47524 0.49891 0.0
H988 H 0.13928 0.48918 0.28688 0.0
H989 H 0.10931 0.48426 0.21225 0.0
H990 H 0.12093 0.42022 0.20315 0.0
H991 H 0.15073 0.42474 0.2793 0.0
C992 C 0.2428 0.48999 0.25399 0.0
C993 C 0.24621 0.47692 0.19738 0.0
C994 C 0.22983 0.48418 0.30739 0.0
C995 C 0.22038 0.46506 0.30538 0.0
C996 C 0.22596 0.4511 0.25317 0.0
C997 C 0.23859 0.45708 0.19902 0.0
C998 C 0.20149 0.46192 0.34562 0.0
C999 C 0.18397 0.4572 0.30744 0.0
C1000 C 0.19972 0.4675 0.41668 0.0
C1001 C 0.21786 0.47084 0.46106 0.0
C1002 C 0.23374 0.45664 0.46096 0.0
C1003 C 0.25086 0.45984 0.50233 0.0
C1004 C 0.25227 0.47717 0.54432 0.0
C1005 C 0.23656 0.49133 0.54509 0.0
C1006 C 0.21942 0.48821 0.50376 0.0
C1007 C 0.10694 0.46766 0.43444 0.0
C1008 C 0.10328 0.48865 0.43153 0.0
C1009 C 0.12675 0.4603 0.43468 0.0
C1010 C 0.14305 0.47386 0.43142 0.0
C1011 C 0.1394 0.49475 0.43621 0.0
C1012 C 0.11965 0.50213 0.43677 0.0
C1013 C 0.16289 0.46702 0.40512 0.0
C1014 C 0.18032 0.47017 0.44543 0.0
C1015 C 0.16476 0.45993 0.33593 0.0
C1016 C 0.14698 0.45724 0.28971 0.0
C1017 C 0.13529 0.47402 0.26969 0.0
C1018 C 0.11835 0.47131 0.22707 0.0
C1019 C 0.11316 0.45193 0.20323 0.0
C1020 C 0.12493 0.43522 0.22189 0.0
C1021 C 0.14181 0.43783 0.26489 0.0
H1022 H 0.10008 0.44986 0.17006 0.0
H1023 H 0.26554 0.47962 0.57629 0.0
H1024 H 0.01002 0.81902 0.99883 0.0
H1025 H 0.99974 0.83283 0.88748 0.0
H1026 H 0.95364 0.78688 0.86748 0.0
H1027 H 0.96364 0.77312 0.98118 0.0
H1028 H 0.99394 0.81077 0.7454 0.0
H1029 H 0.92384 0.80915 0.83369 0.0
H1030 H 0.89974 0.80799 0.93153 0.0
H1031 H 0.92645 0.86173 0.01973 0.0
H1032 H 0.95079 0.86306 0.92268 0.0
H1033 H 0.00847 0.90378 0.60417 0.0
H1034 H 0.98427 0.87577 0.60587 0.0
H1035 H 0.9758 0.88578 0.82631 0.0
H1036 H 0.9979 0.9151 0.82198 0.0
H1037 H 0.94484 0.86659 0.78282 0.0
H1038 H 0.02207 0.85377 0.73835 0.0
H1039 H 0.04991 0.85815 0.65417 0.0
H1040 H 0.01221 0.83454 0.49057 0.0
H1041 H 0.98418 0.83009 0.57391 0.0
C1042 C 0.9977 0.81181 0.97087 0.0
C1043 C 0.9874 0.79524 0.99913 0.0
C1044 C 0.99198 0.81957 0.90694 0.0
C1045 C 0.97589 0.81091 0.86956 0.0
C1046 C 0.96602 0.7938 0.89586 0.0
C1047 C 0.97179 0.78596 0.96045 0.0
C1048 C 0.96896 0.82161 0.80681 0.0
C1049 C 0.98252 0.82249 0.75102 0.0
C1050 C 0.95388 0.83665 0.81349 0.0
C1051 C 0.93909 0.83616 0.87115 0.0
C1052 C 0.92457 0.82067 0.8741 0.0
C1053 C 0.91088 0.81999 0.92936 0.0
C1054 C 0.91157 0.83477 0.98182 0.0
C1055 C 0.92592 0.8503 0.97903 0.0
C1056 C 0.93963 0.85104 0.92387 0.0
C1057 C 1.0006 0.90051 0.6519 0.0
C1058 C 1.00507 0.91138 0.71305 0.0
C1059 C 0.98695 0.88434 0.65319 0.0
C1060 C 0.97883 0.87795 0.71678 0.0
C1061 C 0.98184 0.89017 0.77634 0.0
C1062 C 0.99467 0.90688 0.77423 0.0
C1063 C 0.9714 0.85688 0.72691 0.0
C1064 C 0.95505 0.85405 0.77235 0.0
C1065 C 0.98404 0.84007 0.71109 0.0
C1066 C 1.00115 0.84158 0.66209 0.0
C1067 C 0.01986 0.84932 0.68454 0.0
C1068 C 0.03561 0.85189 0.63698 0.0
C1069 C 0.03283 0.84659 0.5671 0.0
C1070 C 0.01434 0.83861 0.5447 0.0
C1071 C 0.99853 0.83602 0.59205 0.0
H1072 H 0.04499 0.84871 0.53028 0.0
H1073 H 0.90098 0.83421 0.02459 0.0
H1074 H 0.754 0.96682 0.05587 0.0
H1075 H 0.73942 0.95979 0.94004 0.0
H1076 H 0.71346 0.01987 0.93895 0.0
H1077 H 0.72768 0.02667 0.05373 0.0
H1078 H 0.69896 0.95923 0.91123 0.0
H1079 H 0.71356 0.03939 0.78533 0.0
H1080 H 0.74262 0.06222 0.76972 0.0
H1081 H 0.78351 0.01243 0.79843 0.0
H1082 H 0.75475 0.98915 0.81286 0.0
H1083 H 0.61764 0.01363 0.82429 0.0
H1084 H 0.64769 0.99495 0.85608 0.0
H1085 H 0.66943 0.99823 0.64505 0.0
H1086 H 0.63916 0.01717 0.61287 0.0
H1087 H 0.69706 0.01125 0.72678 0.0
H1088 H 0.66227 0.951 0.72046 0.0
H1089 H 0.63418 0.92673 0.731 0.0
H1090 H 0.63595 0.93295 0.9532 0.0
H1091 H 0.66378 0.95756 0.94421 0.0
C1092 C 0.74551 0.97856 0.02976 0.0
C1093 C 0.7418 0.99723 0.06308 0.0
C1094 C 0.73723 0.97455 0.96398 0.0
C1095 C 0.72561 0.9894 0.93056 0.0
C1096 C 0.72273 1.00834 0.96305 0.0
C1097 C 0.73069 0.01219 0.02876 0.0
C1098 C 0.71406 0.98488 0.86639 0.0
C1099 C 0.6987 0.97025 0.86977 0.0
C1100 C 0.71454 0.99843 0.80996 0.0
C1101 C 0.7319 0.01245 0.79996 0.0
C1102 C 0.72872 0.0332 0.78747 0.0
C1103 C 0.74517 0.04626 0.77904 0.0
C1104 C 0.7649 0.03878 0.78301 0.0
C1105 C 0.76823 0.01821 0.79537 0.0
C1106 C 0.75185 1.00508 0.80373 0.0
C1107 C 0.62839 0.00982 0.78383 0.0
C1108 C 0.62589 0.01696 0.71582 0.0
C1109 C 0.64564 0.99898 0.80208 0.0
C1110 C 0.66078 0.99486 0.75277 0.0
C1111 C 0.65793 1.00111 0.68395 0.0
C1112 C 0.64064 0.01204 0.66569 0.0
C1113 C 0.68065 0.9873 0.77721 0.0
C1114 C 0.69766 0.99955 0.76595 0.0
C1115 C 0.68193 0.97117 0.82504 0.0
C1116 C 0.66529 0.95612 0.83156 0.0
C1117 C 0.65666 0.94726 0.77164 0.0
C1118 C 0.64075 0.93343 0.77734 0.0
C1119 C 0.63331 0.92826 0.84274 0.0
C1120 C 0.64178 0.93691 0.90258 0.0
C1121 C 0.65769 0.95077 0.8972 0.0
H1122 H 0.62098 0.91757 0.84704 0.0
H1123 H 0.77761 0.04892 0.77657 0.0
H1124 H 0.51418 0.77037 0.06358 0.0
H1125 H 0.51142 0.74932 0.95904 0.0
H1126 H 0.56374 0.71516 0.02248 0.0
H1127 H 0.56671 0.73626 0.12699 0.0
H1128 H 0.55134 0.71623 0.8606 0.0
H1129 H 0.52882 0.69309 0.10292 0.0
H1130 H 0.51267 0.70254 0.21437 0.0
H1131 H 0.46309 0.72941 0.10403 0.0
H1132 H 0.47893 0.71991 0.99206 0.0
H1133 H 0.54653 0.61011 0.86508 0.0
H1134 H 0.55054 0.64689 0.86894 0.0
H1135 H 0.48567 0.65398 0.86054 0.0
H1136 H 0.48171 0.61711 0.86058 0.0
H1137 H 0.49932 0.67213 0.96738 0.0
H1138 H 0.51788 0.67385 0.73061 0.0
H1139 H 0.53532 0.66368 0.62264 0.0
H1140 H 0.59263 0.67828 0.71487 0.0
H1141 H 0.57565 0.68834 0.82381 0.0
C1142 C 0.5258 0.75916 0.05332 0.0
C1143 C 0.54038 0.75457 0.10403 0.0
C1144 C 0.52426 0.74721 0.99328 0.0
C1145 C 0.53725 0.73061 0.98365 0.0
C1146 C 0.55365 0.728 0.02892 0.0
C1147 C 0.55518 0.73989 0.08903 0.0
C1148 C 0.53006 0.71279 0.94405 0.0
C1149 C 0.53981 0.70658 0.88282 0.0
C1150 C 0.5148 0.70052 0.97287 0.0
C1151 C 0.50499 0.70582 0.03962 0.0
C1152 C 0.51443 0.70093 0.10271 0.0
C1153 C 0.50535 0.70629 0.16583 0.0
C1154 C 0.48688 0.7166 0.16627 0.0
C1155 C 0.47739 0.72144 0.10359 0.0
C1156 C 0.48636 0.716 0.04033 0.0
C1157 C 0.5332 0.61958 0.86329 0.0
C1158 C 0.51385 0.61086 0.86366 0.0
C1159 C 0.53547 0.6406 0.86409 0.0
C1160 C 0.51839 0.65327 0.86441 0.0
C1161 C 0.49907 0.64452 0.8601 0.0
C1162 C 0.49681 0.62348 0.86006 0.0
C1163 C 0.52062 0.67502 0.88297 0.0
C1164 C 0.51015 0.68194 0.94194 0.0
C1165 C 0.53508 0.68781 0.85117 0.0
C1166 C 0.54545 0.68181 0.78565 0.0
C1167 C 0.53421 0.67478 0.72813 0.0
C1168 C 0.54401 0.66905 0.66667 0.0
C1169 C 0.56504 0.6703 0.66191 0.0
C1170 C 0.57633 0.67733 0.7186 0.0
C1171 C 0.56662 0.68311 0.78019 0.0
H1172 H 0.57257 0.66584 0.61425 0.0
H1173 H 0.4799 0.7208 0.21513 0.0
H1174 H 0.76386 0.51169 0.97331 0.0
H1175 H 0.78003 0.51173 0.85901 0.0
H1176 H 0.81854 0.56102 0.92544 0.0
H1177 H 0.80198 0.56155 0.03851 0.0
H1178 H 0.81231 0.56117 0.78173 0.0
H1179 H 0.83112 0.51195 0.96725 0.0
H1180 H 0.82212 0.48379 0.04499 0.0
H1181 H 0.8019 0.4485 0.86951 0.0
H1182 H 0.8106 0.47662 0.79091 0.0
H1183 H 0.9133 0.55472 0.81572 0.0
H1184 H 0.87748 0.55846 0.79382 0.0
H1185 H 0.87642 0.49979 0.69235 0.0
H1186 H 0.91221 0.4954 0.719 0.0
H1187 H 0.85319 0.49828 0.79335 0.0
H1188 H 0.85715 0.54423 0.61739 0.0
H1189 H 0.8677 0.57245 0.54314 0.0
H1190 H 0.84715 0.61513 0.69737 0.0
H1191 H 0.83668 0.58714 0.77282 0.0
C1192 C 0.77522 0.52306 0.96262 0.0
C1193 C 0.78207 0.53626 0.0155 0.0
C1194 C 0.78442 0.52308 0.89717 0.0
C1195 C 0.80074 0.53612 0.88413 0.0
C1196 C 0.80601 0.55078 0.93429 0.0
C1197 C 0.79677 0.55085 0.99939 0.0
C1198 C 0.81534 0.53175 0.82751 0.0
C1199 C 0.82131 0.54744 0.78319 0.0
C1200 C 0.82625 0.51331 0.82664 0.0
C1201 C 0.82127 0.49637 0.87352 0.0
C1202 C 0.8247 0.49819 0.94542 0.0
C1203 C 0.81964 0.48226 0.98958 0.0
C1204 C 0.8114 0.46438 0.96222 0.0
C1205 C 0.80824 0.46238 0.89062 0.0
C1206 C 0.81321 0.4783 0.84626 0.0
C1207 C 0.90556 0.54277 0.78762 0.0
C1208 C 0.91545 0.52446 0.77198 0.0
C1209 C 0.88503 0.54509 0.77358 0.0
C1210 C 0.874 0.52927 0.74207 0.0
C1211 C 0.88451 0.51211 0.71751 0.0
C1212 C 0.90505 0.50965 0.73272 0.0
C1213 C 0.85171 0.52862 0.75222 0.0
C1214 C 0.84401 0.51181 0.78782 0.0
C1215 C 0.83945 0.54614 0.74506 0.0
C1216 C 0.84583 0.56338 0.7005 0.0
C1217 C 0.85483 0.55959 0.63547 0.0
C1218 C 0.86085 0.57559 0.59316 0.0
C1219 C 0.85803 0.5956 0.61539 0.0
C1220 C 0.84922 0.59961 0.68002 0.0
C1221 C 0.84315 0.58363 0.72247 0.0
H1222 H 0.86271 0.608 0.58264 0.0
H1223 H 0.80749 0.45206 0.99647 0.0
H1224 H 0.06009 0.21884 0.94999 0.0
H1225 H 0.05445 0.18774 0.88232 0.0
H1226 H 0.99012 0.19805 0.89047 0.0
H1227 H 0.99579 0.22931 0.95831 0.0
H1228 H 0.99873 0.16044 0.93021 0.0
H1229 H 0.01604 0.20032 0.73683 0.0
H1230 H 0.03538 0.22363 0.66296 0.0
H1231 H 0.08524 0.18194 0.65931 0.0
H1232 H 0.06635 0.1585 0.7344 0.0
H1233 H 0.97332 0.07392 0.72664 0.0
H1234 H 0.97815 0.10734 0.7781 0.0
H1235 H 0.04223 0.10316 0.73853 0.0
H1236 H 0.03694 0.07017 0.68073 0.0
H1237 H 0.03321 0.1386 0.71391 0.0
H1238 H 0.01704 0.10412 0.93413 0.0
H1239 H 0.99712 0.08281 0.01403 0.0
H1240 H 0.94336 0.11587 0.96159 0.0
H1241 H 0.96312 0.13752 0.88258 0.0
C1242 C 0.04475 0.21475 0.93601 0.0
C1243 C 0.0284 0.2267 0.95956 0.0
C1244 C 0.04152 0.19691 0.89702 0.0
C1245 C 0.02183 0.19034 0.88074 0.0
C1246 C 1.00549 0.20266 0.90201 0.0
C1247 C 0.00874 0.22069 0.94037 0.0
C1248 C 0.01832 0.16985 0.84749 0.0
C1249 C 1.00599 0.15586 0.88202 0.0
C1250 C 0.02811 0.16341 0.78548 0.0
C1251 C 0.03986 0.17775 0.74222 0.0
C1252 C 0.03124 0.19623 0.72121 0.0
C1253 C 0.0421 0.20945 0.67886 0.0
C1254 C 0.06156 0.20432 0.65667 0.0
C1255 C 0.0702 0.18595 0.67682 0.0
C1256 C 0.05942 0.17268 0.7193 0.0
C1257 C 0.98853 0.07996 0.72977 0.0
C1258 C 1.00483 0.06895 0.70136 0.0
C1259 C 0.99136 0.09915 0.76041 0.0
C1260 C 0.01072 0.10794 0.76548 0.0
C1261 C 0.0271 0.09693 0.73666 0.0
C1262 C 0.02415 0.07783 0.7043 0.0
C1263 C 0.01355 0.12902 0.79641 0.0
C1264 C 0.02582 0.14316 0.76163 0.0
C1265 C 1.00354 0.13575 0.85783 0.0
C1266 C 0.99144 0.12202 0.90154 0.0
C1267 C 1.00093 0.10654 0.93897 0.0
C1268 C 0.98971 0.09458 0.98454 0.0
C1269 C 0.96896 0.09788 0.99242 0.0
C1270 C 0.95941 0.11326 0.95519 0.0
C1271 C 0.97063 0.12544 0.91037 0.0
H1272 H 0.9603 0.0886 0.02767 0.0
H1273 H 0.06989 0.21453 0.62357 0.0
H1274 H 0.30384 0.01988 0.956 0.0
H1275 H 0.33542 0.01339 0.89233 0.0
H1276 H 0.34638 0.07772 0.88116 0.0
H1277 H 0.31479 0.08421 0.94347 0.0
H1278 H 0.35949 0.0602 0.76519 0.0
H1279 H 0.36758 0.04932 0.00674 0.0
H1280 H 0.35874 0.0347 0.12002 0.0
H1281 H 0.37247 0.97504 0.04214 0.0
H1282 H 0.38068 0.98925 0.92737 0.0
H1283 H 0.46421 0.04707 0.67429 0.0
H1284 H 0.43359 0.05822 0.73602 0.0
H1285 H 0.41952 0.99582 0.78191 0.0
H1286 H 0.45113 0.98519 0.72827 0.0
H1287 H 0.40849 0.01556 0.88507 0.0
H1288 H 0.40167 0.03039 0.63686 0.0
H1289 H 0.41328 0.04888 0.5342 0.0
H1290 H 0.39749 0.10551 0.63066 0.0
H1291 H 0.38773 0.08756 0.73738 0.0
C1292 C 0.31266 0.03264 0.93805 0.0
C1293 C 0.30676 0.05256 0.95505 0.0
C1294 C 0.33089 0.02892 0.90232 0.0
C1295 C 0.34365 0.04504 0.88289 0.0
C1296 C 0.337 0.06497 0.8956 0.0
C1297 C 0.31888 0.06867 0.93136 0.0
C1298 C 0.36445 0.04124 0.85393 0.0
C1299 C 0.37024 0.05047 0.79147 0.0
C1300 C 0.37875 0.02888 0.88854 0.0
C1301 C 0.37449 0.02032 0.95811 0.0
C1302 C 0.36854 0.03306 0.01351 0.0
C1303 C 0.36358 0.02484 0.07794 0.0
C1304 C 0.36497 1.00394 0.0882 0.0
C1305 C 0.37134 0.99122 0.03403 0.0
C1306 C 0.37609 0.99934 0.96917 0.0
C1307 C 0.45484 0.03588 0.69952 0.0
C1308 C 0.46045 0.01531 0.69808 0.0
C1309 C 0.43702 0.04218 0.73369 0.0
C1310 C 0.42361 0.0279 0.76281 0.0
C1311 C 0.42933 1.00734 0.76057 0.0
C1312 C 0.44744 1.0012 0.7292 0.0
C1313 C 0.40342 0.03374 0.79403 0.0
C1314 C 0.39775 0.02508 0.85786 0.0
C1315 C 0.38941 0.04701 0.7612 0.0
C1316 C 0.39416 0.0576 0.69552 0.0
C1317 C 0.40073 0.04679 0.63647 0.0
C1318 C 0.40705 0.0572 0.5775 0.0
C1319 C 0.40574 0.0783 0.57504 0.0
C1320 C 0.39844 0.08914 0.6324 0.0
C1321 C 0.39278 0.07888 0.69261 0.0
H1322 H 0.4105 0.08624 0.52887 0.0
H1323 H 0.3612 0.99761 0.13825 0.0
H1324 H 0.51619 0.28879 0.89292 0.0
H1325 H 0.5221 0.32046 0.82969 0.0
H1326 H 0.45776 0.3302 0.81602 0.0
H1327 H 0.4519 0.29872 0.87999 0.0
H1328 H 0.47936 0.34316 0.69491 0.0
H1329 H 0.48113 0.35022 0.94369 0.0
H1330 H 0.49339 0.33965 0.05848 0.0
H1331 H 0.5538 0.35709 1.00354 0.0
H1332 H 0.54197 0.36704 0.88692 0.0
H1333 H 0.47228 0.45086 0.66889 0.0
H1334 H 0.4691 0.41548 0.70416 0.0
H1335 H 0.5336 0.41213 0.73449 0.0
H1336 H 0.53685 0.4476 0.70023 0.0
H1337 H 0.51377 0.39485 0.84211 0.0
H1338 H 0.5107 0.39191 0.59582 0.0
H1339 H 0.49821 0.4005 0.47962 0.0
H1340 H 0.44064 0.37401 0.52624 0.0
H1341 H 0.45225 0.36651 0.64506 0.0
C1342 C 0.50333 0.29729 0.8739 0.0
C1343 C 0.48358 0.29114 0.89038 0.0
C1344 C 0.5067 0.31549 0.83833 0.0
C1345 C 0.49038 0.32787 0.81846 0.0
C1346 C 0.4706 0.32093 0.8304 0.0
C1347 C 0.46725 0.30289 0.8667 0.0
C1348 C 0.49382 0.34899 0.79311 0.0
C1349 C 0.48671 0.35454 0.72718 0.0
C1350 C 0.50375 0.36378 0.83477 0.0
C1351 C 0.51071 0.35908 0.90618 0.0
C1352 C 0.49705 0.35168 0.95585 0.0
C1353 C 0.50394 0.34573 0.02121 0.0
C1354 C 0.5244 0.34754 0.0382 0.0
C1355 C 0.53798 0.35554 0.99006 0.0
C1356 C 0.53119 0.3613 0.92423 0.0
C1357 C 0.48583 0.44267 0.68321 0.0
C1358 C 0.50484 0.4523 0.68203 0.0
C1359 C 0.48398 0.42232 0.70305 0.0
C1360 C 0.50111 0.41095 0.72188 0.0
C1361 C 0.52012 0.42049 0.72042 0.0
C1362 C 0.52198 0.44083 0.7003 0.0
C1363 C 0.49916 0.38923 0.74359 0.0
C1364 C 0.50651 0.38355 0.80926 0.0
C1365 C 0.48938 0.37435 0.70155 0.0
C1366 C 0.48231 0.37886 0.62998 0.0
C1367 C 0.49527 0.38817 0.5819 0.0
C1368 C 0.48835 0.39281 0.51534 0.0
C1369 C 0.46873 0.38763 0.4951 0.0
C1370 C 0.45586 0.378 0.54189 0.0
C1371 C 0.46255 0.37369 0.60914 0.0
H1372 H 0.4635 0.39111 0.44323 0.0
H1373 H 0.52971 0.34287 0.08882 0.0
H1374 H 0.23138 0.5317 0.9469 0.0
H1375 H 0.20064 0.53571 0.87616 0.0
H1376 H 0.18882 0.47166 0.89209 0.0
H1377 H 0.21933 0.4676 0.96235 0.0
H1378 H 0.18508 0.51979 0.75332 0.0
H1379 H 0.13813 0.46447 0.91784 0.0
H1380 H 0.13897 0.44987 0.03549 0.0
H1381 H 0.16907 0.50308 0.11334 0.0
H1382 H 0.16806 0.51818 0.99656 0.0
H1383 H 0.08282 0.48472 0.6324 0.0
H1384 H 0.11666 0.48319 0.68575 0.0
H1385 H 0.10654 0.54142 0.78286 0.0
H1386 H 0.07315 0.54339 0.72759 0.0
H1387 H 0.12116 0.4981 0.86521 0.0
H1388 H 0.13328 0.551 0.69362 0.0
H1389 H 0.13446 0.56479 0.57522 0.0
H1390 H 0.17603 0.51798 0.51403 0.0
H1391 H 0.17409 0.5031 0.63083 0.0
C1392 C 0.2225 0.5184 0.93386 0.0
C1393 C 0.22777 0.49936 0.96101 0.0
C1394 C 0.20483 0.52072 0.89366 0.0
C1395 C 0.19205 0.50407 0.87991 0.0
C1396 C 0.19808 0.48485 0.90306 0.0
C1397 C 0.21562 0.48254 0.94315 0.0
C1398 C 0.17193 0.50683 0.84497 0.0
C1399 C 0.17112 0.5151 0.77798 0.0
C1400 C 0.15357 0.50075 0.87684 0.0
C1401 C 0.15322 0.49234 0.94818 0.0
C1402 C 0.14476 0.47313 0.96017 0.0
C1403 C 0.1453 0.46476 0.02668 0.0
C1404 C 0.15421 0.47548 0.08166 0.0
C1405 C 0.16228 0.49475 0.07058 0.0
C1406 C 0.16172 0.50323 0.00425 0.0
C1407 C 0.08798 0.49734 0.66418 0.0
C1408 C 0.07543 0.51435 0.67475 0.0
C1409 C 0.10731 0.49645 0.69468 0.0
C1410 C 0.11432 0.51233 0.73757 0.0
C1411 C 0.10166 0.52915 0.74901 0.0
C1412 C 0.08259 0.53031 0.71706 0.0
C1413 C 0.13436 0.51093 0.77344 0.0
C1414 C 0.13513 0.5028 0.84062 0.0
C1415 C 0.15265 0.51718 0.7418 0.0
C1416 C 0.15308 0.52561 0.67065 0.0
C1417 C 0.14214 0.54323 0.6544 0.0
C1418 C 0.143 0.55129 0.58751 0.0
C1419 C 0.15512 0.54211 0.53683 0.0
C1420 C 0.16643 0.52489 0.55302 0.0
C1421 C 0.16533 0.51656 0.6194 0.0
H1422 H 0.15589 0.54843 0.48519 0.0
H1423 H 0.15489 0.46884 0.13279 0.0
H1424 H 0.98089 0.80593 0.3116 0.0
H1425 H 0.98389 0.83683 0.38419 0.0
H1426 H 0.03304 0.85734 0.25575 0.0
H1427 H 0.02998 0.82672 0.18374 0.0
H1428 H 0.04136 0.86496 0.38889 0.0
H1429 H 0.9845 0.87569 0.23756 0.0
H1430 H 0.9511 0.86809 0.18652 0.0
H1431 H 0.92372 0.87311 0.38819 0.0
H1432 H 0.95704 0.88044 0.44061 0.0
H1433 H 0.04957 0.9681 0.48645 0.0
H1434 H 0.04541 0.93585 0.42574 0.0
H1435 H 0.98793 0.92728 0.52746 0.0
H1436 H 0.99162 0.96052 0.5845 0.0
H1437 H 0.98309 0.91169 0.41494 0.0
H1438 H 0.04146 0.89359 0.56714 0.0
H1439 H 0.07573 0.8975 0.61724 0.0
H1440 H 0.10027 0.90552 0.41307 0.0
H1441 H 0.06628 0.90089 0.36196 0.0
C1442 C 0.99261 0.81684 0.30003 0.0
C1443 C 1.00538 0.81371 0.24241 0.0
C1444 C 0.99416 0.83467 0.34096 0.0
C1445 C 0.00856 0.84974 0.32531 0.0
C1446 C 0.02179 0.84613 0.26936 0.0
C1447 C 0.02011 0.82851 0.22827 0.0
C1448 C 0.00991 0.86942 0.36572 0.0
C1449 C 0.02859 0.87519 0.39424 0.0
C1450 C 0.99329 0.88282 0.37448 0.0
C1451 C 0.97329 0.87836 0.34311 0.0
C1452 C 0.97139 0.87498 0.27111 0.0
C1453 C 0.95247 0.87076 0.24192 0.0
C1454 C 0.93531 0.87005 0.28412 0.0
C1455 C 0.93703 0.87361 0.35559 0.0
C1456 C 0.95593 0.87781 0.38507 0.0
C1457 C 0.036 0.95933 0.49566 0.0
C1458 C 0.02079 0.96709 0.53937 0.0
C1459 C 0.03379 0.94048 0.46193 0.0
C1460 C 0.01676 0.92811 0.47364 0.0
C1461 C 1.00142 0.93605 0.5173 0.0
C1462 C 1.00344 0.9552 0.54996 0.0
C1463 C 0.01469 0.9074 0.4389 0.0
C1464 C 0.99584 0.9014 0.41095 0.0
C1465 C 0.03119 0.89367 0.43065 0.0
C1466 C 0.05134 0.89746 0.46126 0.0
C1467 C 0.05414 0.89656 0.53338 0.0
C1468 C 0.0735 0.89874 0.5618 0.0
C1469 C 0.09008 0.90217 0.51855 0.0
C1470 C 0.0874 0.90304 0.44661 0.0
C1471 C 0.06813 0.90046 0.41788 0.0
H1472 H 0.10503 0.90392 0.54073 0.0
H1473 H 0.92067 0.86679 0.26142 0.0
H1474 H 0.70685 0.03495 0.24139 0.0
H1475 H 0.67636 0.0373 0.31207 0.0
H1476 H 0.70137 0.99407 0.45548 0.0
H1477 H 0.73201 0.99143 0.38337 0.0
H1478 H 0.66453 0.98334 0.42485 0.0
H1479 H 0.69267 0.04459 0.50435 0.0
H1480 H 0.70942 0.07793 0.49919 0.0
H1481 H 0.65951 0.10168 0.38243 0.0
H1482 H 0.64257 0.0684 0.386 0.0
H1483 H 0.56875 0.99476 0.61022 0.0
H1484 H 0.60407 0.99128 0.57589 0.0
H1485 H 0.5967 0.04028 0.43077 0.0
H1486 H 0.56224 0.04532 0.47215 0.0
H1487 H 0.62862 0.04686 0.48651 0.0
H1488 H 0.6203 0.97322 0.36178 0.0
H1489 H 0.61182 0.93683 0.36736 0.0
H1490 H 0.62706 0.93634 0.58437 0.0
H1491 H 0.63692 0.97239 0.57851 0.0
C1492 C 0.70605 0.0262 0.28869 0.0
C1493 C 0.72192 0.01296 0.30653 0.0
C1494 C 0.68857 0.02764 0.3295 0.0
C1495 C 0.68638 0.01597 0.38981 0.0
C1496 C 0.70257 1.00329 0.40937 0.0
C1497 C 0.7202 1.00191 0.36846 0.0
C1498 C 0.66654 0.01584 0.42808 0.0
C1499 C 0.65677 0.99727 0.43899 0.0
C1500 C 0.65629 0.03387 0.44762 0.0
C1501 C 0.66642 0.05393 0.44499 0.0
C1502 C 0.68534 0.05687 0.47705 0.0
C1503 C 0.69485 0.07577 0.47452 0.0
C1504 C 0.68555 0.0919 0.44038 0.0
C1505 C 0.6667 0.08917 0.40882 0.0
C1506 C 0.65712 0.07029 0.41117 0.0
C1507 C 0.57462 1.00446 0.56984 0.0
C1508 C 0.56249 0.02001 0.54261 0.0
C1509 C 0.59495 1.00224 0.54903 0.0
C1510 C 0.60352 0.015 0.49835 0.0
C1511 C 0.59094 0.03011 0.46994 0.0
C1512 C 0.57102 0.0329 0.49302 0.0
C1513 C 0.62571 0.01431 0.47841 0.0
C1514 C 0.63617 0.03287 0.47177 0.0
C1515 C 0.63677 0.99622 0.46422 0.0
C1516 C 0.62822 0.9757 0.47064 0.0
C1517 C 0.62141 0.96542 0.41095 0.0
C1518 C 0.61679 0.94477 0.41381 0.0
C1519 C 0.61847 0.93437 0.47653 0.0
C1520 C 0.62539 0.94448 0.53608 0.0
C1521 C 0.63071 0.96496 0.53283 0.0
H1522 H 0.61464 0.91844 0.47877 0.0
H1523 H 0.69294 0.10653 0.43849 0.0
H1524 H 0.55875 0.73328 0.37223 0.0
H1525 H 0.55519 0.70145 0.43605 0.0
H1526 H 0.49123 0.70107 0.3911 0.0
H1527 H 0.49476 0.73346 0.33046 0.0
H1528 H 0.49607 0.68539 0.51186 0.0
H1529 H 0.5268 0.67346 0.29243 0.0
H1530 H 0.55158 0.67818 0.19835 0.0
H1531 H 0.59946 0.65913 0.33389 0.0
H1532 H 0.57499 0.65466 0.42927 0.0
H1533 H 0.48217 0.57849 0.55567 0.0
H1534 H 0.48419 0.61294 0.51083 0.0
H1535 H 0.54774 0.61489 0.56145 0.0
H1536 H 0.54591 0.57999 0.60348 0.0
H1537 H 0.5426 0.63016 0.43955 0.0
H1538 H 0.50618 0.63862 0.65724 0.0
H1539 H 0.47773 0.63208 0.73647 0.0
H1540 H 0.43607 0.65635 0.58807 0.0
H1541 H 0.46404 0.66219 0.50619 0.0
C1542 C 0.54385 0.7267 0.37814 0.0
C1543 C 0.52697 0.73594 0.34741 0.0
C1544 C 0.54183 0.70833 0.41369 0.0
C1545 C 0.52299 0.69842 0.41726 0.0
C1546 C 0.50595 0.70824 0.38931 0.0
C1547 C 0.50793 0.72681 0.35483 0.0
C1548 C 0.52127 0.67745 0.44647 0.0
C1549 C 0.50614 0.67328 0.49554 0.0
C1550 C 0.53433 0.66146 0.4255 0.0
C1551 C 0.54909 0.66395 0.3682 0.0
C1552 C 0.54263 0.67043 0.30232 0.0
C1553 C 0.55662 0.67305 0.24876 0.0
C1554 C 0.57709 0.66901 0.26018 0.0
C1555 C 0.5836 0.66229 0.32517 0.0
C1556 C 0.56968 0.65971 0.37901 0.0
C1557 C 0.49651 0.58632 0.55824 0.0
C1558 C 0.51382 0.57649 0.584 0.0
C1559 C 0.49767 0.60614 0.53252 0.0
C1560 C 0.51605 0.61691 0.53373 0.0
C1561 C 0.53333 0.60709 0.55989 0.0
C1562 C 0.53226 0.58712 0.58426 0.0
C1563 C 0.51752 0.63807 0.50576 0.0
C1564 C 0.53261 0.64227 0.45649 0.0
C1565 C 0.50393 0.65386 0.52489 0.0
C1566 C 0.48725 0.65073 0.57524 0.0
C1567 C 0.49096 0.64248 0.64121 0.0
C1568 C 0.47492 0.63889 0.68666 0.0
C1569 C 0.45517 0.64392 0.66765 0.0
C1570 C 0.45138 0.65247 0.60283 0.0
C1571 C 0.46731 0.65585 0.55673 0.0
H1572 H 0.44281 0.64113 0.7031 0.0
H1573 H 0.5879 0.67103 0.21864 0.0
H1574 H 0.7929 0.50195 0.31493 0.0
H1575 H 0.82279 0.50057 0.39099 0.0
H1576 H 0.84375 0.55717 0.30673 0.0
H1577 H 0.81424 0.55842 0.23074 0.0
H1578 H 0.87327 0.53262 0.3033 0.0
H1579 H 0.8257 0.55076 0.47656 0.0
H1580 H 0.79692 0.55058 0.55758 0.0
H1581 H 0.81759 0.49438 0.64326 0.0
H1582 H 0.84625 0.4939 0.56149 0.0
H1583 H 0.95272 0.55541 0.54005 0.0
H1584 H 0.919 0.55603 0.48798 0.0
H1585 H 0.91234 0.49215 0.52663 0.0
H1586 H 0.94656 0.49114 0.57574 0.0
H1587 H 0.87614 0.51828 0.55554 0.0
H1588 H 0.92416 0.50196 0.37593 0.0
H1589 H 0.95561 0.50742 0.31008 0.0
H1590 H 0.93435 0.56602 0.24736 0.0
H1591 H 0.90293 0.56107 0.31415 0.0
C1592 C 0.80368 0.51429 0.31374 0.0
C1593 C 0.80118 0.5302 0.26611 0.0
C1594 C 0.82085 0.5135 0.35732 0.0
C1595 C 0.83582 0.52872 0.35483 0.0
C1596 C 0.83273 0.54506 0.30955 0.0
C1597 C 0.81574 0.54579 0.26599 0.0
C1598 C 0.85535 0.52713 0.39491 0.0
C1599 C 0.87367 0.52976 0.3587 0.0
C1600 C 0.8563 0.52292 0.46724 0.0
C1601 C 0.83793 0.52205 0.5115 0.0
C1602 C 0.82382 0.53804 0.51117 0.0
C1603 C 0.8076 0.53814 0.55769 0.0
C1604 C 0.80535 0.52241 0.60521 0.0
C1605 C 0.81926 0.50648 0.60605 0.0
C1606 C 0.83547 0.50626 0.55948 0.0
C1607 C 0.94427 0.5414 0.53686 0.0
C1608 C 0.95282 0.52308 0.55993 0.0
C1609 C 0.92482 0.54184 0.50771 0.0
C1610 C 0.91319 0.52408 0.50236 0.0
C1611 C 0.92106 0.50603 0.52972 0.0
C1612 C 0.9407 0.50549 0.55771 0.0
C1613 C 0.89349 0.5242 0.46397 0.0
C1614 C 0.87536 0.52114 0.5002 0.0
C1615 C 0.89258 0.5284 0.39209 0.0
C1616 C 0.91126 0.53121 0.35055 0.0
C1617 C 0.92625 0.51607 0.34854 0.0
C1618 C 0.94407 0.51907 0.31101 0.0
C1619 C 0.94698 0.53707 0.27462 0.0
C1620 C 0.93206 0.55208 0.27555 0.0
C1621 C 0.91425 0.54919 0.31327 0.0
H1622 H 0.9608 0.53938 0.24567 0.0
H1623 H 0.79291 0.52264 0.64169 0.0
loop_
_geom_bond_atom_site_label_1
_geom_bond_atom_site_label_2
_geom_bond_distance
_geom_bond_site_symmetry_2
_ccdc_geom_bond_type
H0 C3 0.929 . S
H1 C6 0.929 . S
H2 C8 0.930 . S
C3 H0 0.929 . S
C3 C4 1.398 . S
C3 C5 1.396 . S
C4 C3 1.398 . S
C4 C8 1.407 . S
C5 C3 1.396 . S
C5 C6 1.394 . S
C6 H1 0.929 . S
C6 C5 1.394 . S
C6 C7 1.382 . S
C7 C6 1.382 . S
C7 C8 1.392 . S
C7 N9 1.420 . S
C8 H2 0.930 . S
C8 C4 1.407 . S
C8 C7 1.392 . S
N9 C7 1.420 . S
N9 C10 1.244 . S
C10 N9 1.244 . S
H11 C14 0.929 . S
H12 C17 0.929 . S
H13 C19 0.930 . S
C14 H11 0.929 . S
C14 C15 1.398 . S
C14 C16 1.396 . S
C15 C14 1.398 . S
C15 C19 1.407 . S
C16 C14 1.396 . S
C16 C17 1.394 . S
C17 H12 0.929 . S
C17 C16 1.394 . S
C17 C18 1.382 . S
C18 C17 1.382 . S
C18 C19 1.392 . S
C18 N20 1.420 . S
C19 H13 0.930 . S
C19 C15 1.407 . S
C19 C18 1.392 . S
N20 C18 1.420 . S
N20 C21 1.244 . S
C21 N20 1.244 . S
H22 C25 0.929 . S
H23 C28 0.929 . S
H24 C30 0.930 . S
C25 H22 0.929 . S
C25 C26 1.398 . S
C25 C27 1.396 . S
C26 C25 1.398 . S
C26 C30 1.407 . S
C27 C25 1.396 . S
C27 C28 1.394 . S
C28 H23 0.929 . S
C28 C27 1.394 . S
C28 C29 1.382 . S
C29 C28 1.382 . S
C29 C30 1.392 . S
C29 N31 1.420 . S
C30 H24 0.930 . S
C30 C26 1.407 . S
C30 C29 1.392 . S
N31 C29 1.420 . S
N31 C32 1.244 . S
C32 N31 1.244 . S
H33 C36 0.929 . S
H34 C39 0.929 . S
H35 C41 0.930 . S
C36 H33 0.929 . S
C36 C37 1.398 . S
C36 C38 1.396 . S
C37 C36 1.398 . S
C37 C41 1.407 . S
C38 C36 1.396 . S
C38 C39 1.394 . S
C39 H34 0.929 . S
C39 C38 1.394 . S
C39 C40 1.382 . S
C40 C39 1.382 . S
C40 C41 1.392 . S
C40 N42 1.420 . S
C41 H35 0.930 . S
C41 C37 1.407 . S
C41 C40 1.392 . S
N42 C40 1.420 . S
N42 C43 1.244 . S
C43 N42 1.244 . S
H44 C47 0.929 . S
H45 C50 0.929 . S
H46 C52 0.930 . S
C47 H44 0.929 . S
C47 C48 1.398 . S
C47 C49 1.396 1_556 S
C48 C47 1.398 . S
C48 C52 1.407 . S
C49 C47 1.396 1_554 S
C49 C50 1.394 . S
C50 H45 0.929 . S
C50 C49 1.394 . S
C50 C51 1.382 . S
C51 C50 1.382 . S
C51 C52 1.392 1_554 S
C51 N53 1.420 . S
C52 H46 0.930 . S
C52 C48 1.407 . S
C52 C51 1.392 1_556 S
N53 C51 1.420 . S
N53 C54 1.244 . S
C54 N53 1.244 . S
H55 C58 0.929 . S
H56 C61 0.929 . S
H57 C63 0.930 . S
C58 H55 0.929 . S
C58 C59 1.398 . S
C58 C60 1.396 1_556 S
C59 C58 1.398 . S
C59 C63 1.407 . S
C60 C58 1.396 1_554 S
C60 C61 1.394 . S
C61 H56 0.929 . S
C61 C60 1.394 . S
C61 C62 1.382 . S
C62 C61 1.382 . S
C62 C63 1.392 1_554 S
C62 N64 1.420 . S
C63 H57 0.930 . S
C63 C59 1.407 . S
C63 C62 1.392 1_556 S
N64 C62 1.420 . S
N64 C65 1.244 . S
C65 N64 1.244 . S
H66 C69 0.929 . S
H67 C72 0.929 . S
H68 C74 0.930 . S
C69 H66 0.929 . S
C69 C70 1.398 . S
C69 C71 1.396 1_556 S
C70 C69 1.398 . S
C70 C74 1.407 . S
C71 C69 1.396 1_554 S
C71 C72 1.394 . S
C72 H67 0.929 . S
C72 C71 1.394 . S
C72 C73 1.382 . S
C73 C72 1.382 . S
C73 C74 1.392 1_554 S
C73 N75 1.420 . S
C74 H68 0.930 . S
C74 C70 1.407 . S
C74 C73 1.392 1_556 S
N75 C73 1.420 . S
N75 C76 1.244 . S
C76 N75 1.244 . S
H77 C80 0.929 . S
H78 C83 0.929 . S
H79 C85 0.930 . S
C80 H77 0.929 . S
C80 C81 1.398 . S
C80 C82 1.396 1_556 S
C81 C80 1.398 . S
C81 C85 1.407 . S
C82 C80 1.396 1_554 S
C82 C83 1.394 . S
C83 H78 0.929 . S
C83 C82 1.394 . S
C83 C84 1.382 . S
C84 C83 1.382 . S
C84 C85 1.392 1_554 S
C84 N86 1.420 . S
C85 H79 0.930 . S
C85 C81 1.407 . S
C85 C84 1.392 1_556 S
N86 C84 1.420 . S
N86 C87 1.244 . S
C87 N86 1.244 . S
Eu88 N119 2.657 1_565 S
Eu88 N126 2.605 1_565 S
Eu88 O132 2.558 . S
Eu88 O133 2.612 1_455 S
Eu88 O135 2.350 1_455 S
Eu88 O136 2.563 . S
Eu88 O137 2.419 . S
Eu88 O139 2.380 1_565 S
Eu88 O140 2.432 . S
Eu88 C152 2.848 . S
C89 C92 1.409 1_545 S
C89 C93 1.411 . S
C89 N96 1.377 . S
C90 C92 1.451 . S
C90 C94 1.423 . S
C90 C102 1.392 . S
C91 C93 1.420 1_565 S
C91 C94 1.351 . S
C91 H114 0.931 . S
C92 C89 1.409 1_565 S
C92 C90 1.451 . S
C92 N100 1.353 1_565 S
C93 C89 1.411 . S
C93 C91 1.420 1_545 S
C93 C98 1.395 . S
C94 C90 1.423 . S
C94 C91 1.351 . S
C94 H106 0.930 . S
C95 C97 1.400 . S
C95 C98 1.386 . S
C95 H107 0.930 . S
N96 C89 1.377 . S
N96 C97 1.321 . S
N96 Eu99 2.609 . S
C97 C95 1.400 . S
C97 N96 1.321 . S
C97 H104 0.930 . S
C98 C93 1.395 . S
C98 C95 1.386 . S
C98 H117 0.930 . S
Eu99 N96 2.609 . S
Eu99 N100 2.657 . S
Eu99 O133 2.380 1_545 S
Eu99 O134 2.432 . S
Eu99 O138 2.558 . S
Eu99 O139 2.612 1_655 S
Eu99 O141 2.339 1_655 S
Eu99 O142 2.563 1_655 S
Eu99 O143 2.420 1_655 S
Eu99 C163 2.848 . S
N100 C92 1.353 1_545 S
N100 Eu99 2.657 . S
N100 C101 1.334 1_645 S
C101 N100 1.334 1_465 S
C101 C103 1.413 . S
C101 H108 0.929 . S
C102 C90 1.392 . S
C102 C103 1.367 1_655 S
C102 H110 0.930 . S
C103 C101 1.413 . S
C103 C102 1.367 1_455 S
C103 H105 0.930 . S
H104 C97 0.930 . S
H105 C103 0.930 . S
H106 C94 0.930 . S
H107 C95 0.930 . S
H108 C101 0.929 . S
H109 C123 0.930 1_655 S
H110 C102 0.930 . S
H111 C129 0.930 . S
H112 C120 0.929 1_655 S
H113 C127 0.930 . S
H114 C91 0.931 . S
H115 C121 0.930 . S
H116 C154 0.930 . S
H117 C98 0.930 . S
H118 C153 0.931 . S
N119 Eu88 2.657 1_545 S
N119 C120 1.334 . S
N119 C124 1.362 . S
C120 H112 0.929 1_455 S
C120 N119 1.334 . S
C120 C123 1.413 . S
C121 H115 0.930 . S
C121 C122 1.392 . S
C121 C123 1.367 . S
C122 C121 1.392 . S
C122 C124 1.420 . S
C122 C154 1.423 . S
C123 H109 0.930 1_455 S
C123 C120 1.413 . S
C123 C121 1.367 . S
C124 N119 1.362 . S
C124 C122 1.420 . S
C124 C128 1.429 . S
H125 C130 0.930 . S
N126 Eu88 2.605 1_545 S
N126 C128 1.385 . S
N126 C129 1.314 1_545 S
C127 H113 0.930 . S
C127 C129 1.400 . S
C127 C130 1.386 1_565 S
C128 C124 1.429 . S
C128 N126 1.385 . S
C128 C131 1.411 . S
C129 H111 0.930 . S
C129 N126 1.314 1_565 S
C129 C127 1.400 . S
C130 H125 0.930 . S
C130 C127 1.386 1_545 S
C130 C131 1.395 . S
C131 C128 1.411 . S
C131 C130 1.395 . S
C131 C153 1.420 . S
O132 Eu88 2.558 . S
O132 C152 1.257 . S
O133 Eu88 2.612 1_655 S
O133 Eu99 2.380 1_565 S
O133 C144 1.276 . S
O134 Eu99 2.432 . S
O134 C151 1.264 . S
O135 Eu88 2.350 1_655 S
O135 C151 1.239 1_565 S
O136 Eu88 2.563 . S
O136 C144 1.235 1_455 S
O137 Eu88 2.419 . S
O137 C152 1.249 . S
O138 Eu99 2.558 . S
O138 C163 1.257 . S
O139 Eu88 2.380 1_545 S
O139 Eu99 2.612 1_455 S
O139 C155 1.276 . S
O140 Eu88 2.432 . S
O140 C162 1.264 1_565 S
O141 Eu99 2.339 1_455 S
O141 C162 1.254 . S
O142 Eu99 2.563 1_455 S
O142 C155 1.235 . S
O143 Eu99 2.420 1_455 S
O143 C163 1.252 1_455 S
C144 O133 1.276 . S
C144 O136 1.235 1_655 S
C145 C147 1.393 . S
C145 C149 1.395 . S
C145 C152 1.492 . S
C146 C147 1.392 . S
C146 C148 1.386 . S
C147 C145 1.393 . S
C147 C146 1.392 . S
C147 H164 0.879 1_455 S
C148 C146 1.386 . S
C148 C150 1.395 . S
C148 H165 0.930 . S
C149 C145 1.395 . S
C149 C150 1.379 . S
C149 H166 0.930 . S
C150 C148 1.395 . S
C150 C149 1.379 . S
C150 H167 0.930 . S
C151 O134 1.264 . S
C151 O135 1.239 1_545 S
C152 Eu88 2.848 . S
C152 O132 1.257 . S
C152 O137 1.249 . S
C152 C145 1.492 . S
C153 H118 0.931 . S
C153 C131 1.420 . S
C153 C154 1.351 . S
C154 H116 0.930 . S
C154 C122 1.423 . S
C154 C153 1.351 . S
C155 O139 1.276 . S
C155 O142 1.235 . S
C156 C157 1.363 1_655 S
C156 C160 1.395 . S
C156 C163 1.492 . S
C157 C156 1.363 1_455 S
C157 C158 1.391 1_455 S
C157 H168 0.962 . S
C158 C157 1.391 1_655 S
C158 C159 1.401 . S
C159 C158 1.401 . S
C159 C161 1.395 . S
C159 H169 0.930 . S
C160 C156 1.395 . S
C160 C161 1.379 . S
C160 H170 0.930 . S
C161 C159 1.395 . S
C161 C160 1.379 . S
C161 H171 0.930 . S
C162 O140 1.264 1_545 S
C162 O141 1.254 . S
C163 Eu99 2.848 . S
C163 O138 1.257 . S
C163 O143 1.252 1_655 S
C163 C156 1.492 . S
H164 C147 0.879 1_655 S
H165 C148 0.930 . S
H166 C149 0.930 . S
H167 C150 0.930 . S
H168 C157 0.962 . S
H169 C159 0.930 . S
H170 C160 0.930 . S
H171 C161 0.930 . S
Eu172 N203 2.657 . S
Eu172 N210 2.609 . S
Eu172 O216 2.558 . S
Eu172 O217 2.607 1_545 S
Eu172 O219 2.339 1_545 S
Eu172 O220 2.563 . S
Eu172 O221 2.419 . S
Eu172 O223 2.380 . S
Eu172 O224 2.432 . S
Eu172 C236 2.848 . S
C173 C176 1.429 . S
C173 C177 1.411 . S
C173 N180 1.377 . S
C174 C176 1.420 . S
C174 C178 1.423 . S
C174 C186 1.392 . S
C175 C177 1.420 . S
C175 C178 1.351 . S
C175 H198 0.931 . S
C176 C173 1.429 . S
C176 C174 1.420 . S
C176 N184 1.362 . S
C177 C173 1.411 . S
C177 C175 1.420 . S
C177 C182 1.395 . S
C178 C174 1.423 . S
C178 C175 1.351 . S
C178 H190 0.930 . S
C179 C181 1.400 . S
C179 C182 1.386 . S
C179 H191 0.930 . S
N180 C173 1.377 . S
N180 C181 1.321 . S
N180 Eu183 2.609 . S
C181 C179 1.400 . S
C181 N180 1.321 . S
C181 H188 0.930 . S
C182 C177 1.395 . S
C182 C179 1.386 . S
C182 H201 0.930 . S
Eu183 N180 2.609 . S
Eu183 N184 2.657 . S
Eu183 O217 2.382 . S
Eu183 O218 2.432 . S
Eu183 O222 2.558 . S
Eu183 O223 2.612 1_565 S
Eu183 O225 2.339 1_565 S
Eu183 O226 2.563 1_565 S
Eu183 O227 2.419 1_565 S
Eu183 C247 2.848 . S
N184 C176 1.362 . S
N184 Eu183 2.657 . S
N184 C185 1.334 1_565 S
C185 N184 1.334 1_545 S
C185 C187 1.413 . S
C185 H192 0.929 . S
C186 C174 1.392 . S
C186 C187 1.367 1_565 S
C186 H194 0.930 . S
C187 C185 1.413 . S
C187 C186 1.367 1_545 S
C187 H189 0.930 . S
H188 C181 0.930 . S
H189 C187 0.930 . S
H190 C178 0.930 . S
H191 C179 0.930 . S
H192 C185 0.929 . S
H193 C207 0.930 1_565 S
H194 C186 0.930 . S
H195 C213 0.930 . S
H196 C204 0.929 1_565 S
H197 C211 0.930 . S
H198 C175 0.931 . S
H199 C205 0.930 . S
H200 C238 0.930 . S
H201 C182 0.930 . S
H202 C237 0.931 . S
N203 Eu172 2.657 . S
N203 C204 1.334 . S
N203 C208 1.362 . S
C204 H196 0.929 1_545 S
C204 N203 1.334 . S
C204 C207 1.413 . S
C205 H199 0.930 . S
C205 C206 1.392 . S
C205 C207 1.367 . S
C206 C205 1.392 . S
C206 C208 1.420 . S
C206 C238 1.423 . S
C207 H193 0.930 1_545 S
C207 C204 1.413 . S
C207 C205 1.367 . S
C208 N203 1.362 . S
C208 C206 1.420 . S
C208 C212 1.429 . S
H209 C214 0.930 . S
N210 Eu172 2.609 . S
N210 C212 1.377 . S
N210 C213 1.321 . S
C211 H197 0.930 . S
C211 C213 1.400 . S
C211 C214 1.386 . S
C212 C208 1.429 . S
C212 N210 1.377 . S
C212 C215 1.411 . S
C213 H195 0.930 . S
C213 N210 1.321 . S
C213 C211 1.400 . S
C214 H209 0.930 . S
C214 C211 1.386 . S
C214 C215 1.395 . S
C215 C212 1.411 . S
C215 C214 1.395 . S
C215 C237 1.420 . S
O216 Eu172 2.558 . S
O216 C236 1.257 . S
O217 Eu172 2.607 1_565 S
O217 Eu183 2.382 . S
O217 C228 1.275 1_565 S
O218 Eu183 2.432 . S
O218 C235 1.264 . S
O219 Eu172 2.339 1_565 S
O219 C235 1.254 . S
O220 Eu172 2.563 . S
O220 C228 1.241 . S
O221 Eu172 2.419 . S
O221 C236 1.249 . S
O222 Eu183 2.558 . S
O222 C247 1.257 . S
O223 Eu172 2.380 . S
O223 Eu183 2.612 1_545 S
O223 C239 1.276 . S
O224 Eu172 2.432 . S
O224 C246 1.264 . S
O225 Eu183 2.339 1_545 S
O225 C246 1.254 . S
O226 Eu183 2.563 1_545 S
O226 C239 1.235 . S
O227 Eu183 2.419 1_545 S
O227 C247 1.249 1_545 S
C228 O217 1.275 1_545 S
C228 O220 1.241 . S
C229 C231 1.393 . S
C229 C233 1.395 . S
C229 C236 1.492 . S
C230 C231 1.392 . S
C230 C232 1.386 . S
C231 C229 1.393 . S
C231 C230 1.392 . S
C231 H248 0.930 . S
C232 C230 1.386 . S
C232 C234 1.395 . S
C232 H249 0.930 . S
C233 C229 1.395 . S
C233 C234 1.379 . S
C233 H250 0.930 . S
C234 C232 1.395 . S
C234 C233 1.379 . S
C234 H251 0.930 . S
C235 O218 1.264 . S
C235 O219 1.254 . S
C236 Eu172 2.848 . S
C236 O216 1.257 . S
C236 O221 1.249 . S
C236 C229 1.492 . S
C237 H202 0.931 . S
C237 C215 1.420 . S
C237 C238 1.351 . S
C238 H200 0.930 . S
C238 C206 1.423 . S
C238 C237 1.351 . S
C239 O223 1.276 . S
C239 O226 1.235 . S
C240 C241 1.393 1_565 S
C240 C244 1.395 . S
C240 C247 1.492 . S
C241 C240 1.393 1_545 S
C241 C242 1.397 . S
C241 H252 0.930 . S
C242 C241 1.397 . S
C242 C243 1.337 1_545 S
C243 C242 1.337 1_565 S
C243 C245 1.395 . S
C243 H253 0.930 . S
C244 C240 1.395 . S
C244 C245 1.379 . S
C244 H254 0.930 . S
C245 C243 1.395 . S
C245 C244 1.379 . S
C245 H255 0.930 . S
C246 O224 1.264 . S
C246 O225 1.254 . S
C247 Eu183 2.848 . S
C247 O222 1.257 . S
C247 O227 1.249 1_565 S
C247 C240 1.492 . S
H248 C231 0.930 . S
H249 C232 0.930 . S
H250 C233 0.930 . S
H251 C234 0.930 . S
H252 C241 0.930 . S
H253 C243 0.930 . S
H254 C244 0.930 . S
H255 C245 0.930 . S
Eu256 N287 2.657 . S
Eu256 N294 2.609 . S
Eu256 O300 2.558 . S
Eu256 O301 2.612 . S
Eu256 O303 2.339 . S
Eu256 O304 2.563 . S
Eu256 O305 2.419 . S
Eu256 O307 2.380 . S
Eu256 O308 2.432 . S
Eu256 C320 2.848 . S
C257 C260 1.429 . S
C257 C261 1.411 . S
C257 N264 1.377 . S
C258 C260 1.420 . S
C258 C262 1.423 . S
C258 C270 1.392 . S
C259 C261 1.420 . S
C259 C262 1.351 . S
C259 H282 0.931 . S
C260 C257 1.429 . S
C260 C258 1.420 . S
C260 N268 1.362 . S
C261 C257 1.411 . S
C261 C259 1.420 . S
C261 C266 1.395 . S
C262 C258 1.423 . S
C262 C259 1.351 . S
C262 H274 0.930 . S
C263 C265 1.400 . S
C263 C266 1.386 . S
C263 H275 0.930 . S
N264 C257 1.377 . S
N264 C265 1.321 . S
N264 Eu267 2.609 . S
C265 C263 1.400 . S
C265 N264 1.321 . S
C265 H272 0.930 . S
C266 C261 1.395 . S
C266 C263 1.386 . S
C266 H285 0.930 . S
Eu267 N264 2.609 . S
Eu267 N268 2.657 . S
Eu267 O301 2.380 . S
Eu267 O302 2.432 . S
Eu267 O306 2.558 . S
Eu267 O307 2.612 . S
Eu267 O309 2.339 . S
Eu267 O310 2.563 . S
Eu267 O311 2.419 . S
Eu267 C331 2.848 . S
N268 C260 1.362 . S
N268 Eu267 2.657 . S
N268 C269 1.334 . S
C269 N268 1.334 . S
C269 C271 1.413 . S
C269 H276 0.929 . S
C270 C258 1.392 . S
C270 C271 1.367 . S
C270 H278 0.930 . S
C271 C269 1.413 . S
C271 C270 1.367 . S
C271 H273 0.930 . S
H272 C265 0.930 . S
H273 C271 0.930 . S
H274 C262 0.930 . S
H275 C263 0.930 . S
H276 C269 0.929 . S
H277 C291 0.930 . S
H278 C270 0.930 . S
H279 C297 0.930 . S
H280 C288 0.929 . S
H281 C295 0.930 . S
H282 C259 0.931 . S
H283 C289 0.930 . S
H284 C322 0.930 . S
H285 C266 0.930 . S
H286 C321 0.931 . S
N287 Eu256 2.657 . S
N287 C288 1.334 . S
N287 C292 1.362 . S
C288 H280 0.929 . S
C288 N287 1.334 . S
C288 C291 1.413 . S
C289 H283 0.930 . S
C289 C290 1.392 . S
C289 C291 1.367 . S
C290 C289 1.392 . S
C290 C292 1.420 . S
C290 C322 1.423 . S
C291 H277 0.930 . S
C291 C288 1.413 . S
C291 C289 1.367 . S
C292 N287 1.362 . S
C292 C290 1.420 . S
C292 C296 1.429 . S
H293 C298 0.930 . S
N294 Eu256 2.609 . S
N294 C296 1.377 . S
N294 C297 1.321 . S
C295 H281 0.930 . S
C295 C297 1.400 . S
C295 C298 1.386 . S
C296 C292 1.429 . S
C296 N294 1.377 . S
C296 C299 1.411 . S
C297 H279 0.930 . S
C297 N294 1.321 . S
C297 C295 1.400 . S
C298 H293 0.930 . S
C298 C295 1.386 . S
C298 C299 1.395 . S
C299 C296 1.411 . S
C299 C298 1.395 . S
C299 C321 1.420 . S
O300 Eu256 2.558 . S
O300 C320 1.257 . S
O301 Eu256 2.612 . S
O301 Eu267 2.380 . S
O301 C312 1.276 . S
O302 Eu267 2.432 . S
O302 C319 1.264 . S
O303 Eu256 2.339 . S
O303 C319 1.254 . S
O304 Eu256 2.563 . S
O304 C312 1.235 . S
O305 Eu256 2.419 . S
O305 C320 1.249 . S
O306 Eu267 2.558 . S
O306 C331 1.257 . S
O307 Eu256 2.380 . S
O307 Eu267 2.612 . S
O307 C323 1.276 . S
O308 Eu256 2.432 . S
O308 C330 1.264 . S
O309 Eu267 2.339 . S
O309 C330 1.254 . S
O310 Eu267 2.563 . S
O310 C323 1.235 . S
O311 Eu267 2.419 . S
O311 C331 1.249 . S
C312 O301 1.276 . S
C312 O304 1.235 . S
C313 C315 1.393 . S
C313 C317 1.395 . S
C313 C320 1.492 . S
C314 C315 1.392 . S
C314 C316 1.386 . S
C315 C313 1.393 . S
C315 C314 1.392 . S
C315 H332 0.930 . S
C316 C314 1.386 . S
C316 C318 1.395 . S
C316 H333 0.930 . S
C317 C313 1.395 . S
C317 C318 1.379 . S
C317 H334 0.930 . S
C318 C316 1.395 . S
C318 C317 1.379 . S
C318 H335 0.930 . S
C319 O302 1.264 . S
C319 O303 1.254 . S
C320 Eu256 2.848 . S
C320 O300 1.257 . S
C320 O305 1.249 . S
C320 C313 1.492 . S
C321 H286 0.931 . S
C321 C299 1.420 . S
C321 C322 1.351 . S
C322 H284 0.930 . S
C322 C290 1.423 . S
C322 C321 1.351 . S
C323 O307 1.276 . S
C323 O310 1.235 . S
C324 C325 1.393 . S
C324 C328 1.395 . S
C324 C331 1.492 . S
C325 C324 1.393 . S
C325 C326 1.392 . S
C325 H336 0.930 . S
C326 C325 1.392 . S
C326 C327 1.386 . S
C327 C326 1.386 . S
C327 C329 1.395 . S
C327 H337 0.930 . S
C328 C324 1.395 . S
C328 C329 1.379 . S
C328 H338 0.930 . S
C329 C327 1.395 . S
C329 C328 1.379 . S
C329 H339 0.930 1_556 S
C330 O308 1.264 . S
C330 O309 1.254 . S
C331 Eu267 2.848 . S
C331 O306 1.257 . S
C331 O311 1.249 . S
C331 C324 1.492 . S
H332 C315 0.930 . S
H333 C316 0.930 . S
H334 C317 0.930 . S
H335 C318 0.930 . S
H336 C325 0.930 . S
H337 C327 0.930 . S
H338 C328 0.930 . S
H339 C329 0.930 1_554 S
Eu340 N371 2.657 . S
Eu340 N378 2.609 . S
Eu340 O384 2.558 . S
Eu340 O385 2.612 . S
Eu340 O387 2.339 . S
Eu340 O388 2.563 . S
Eu340 O389 2.419 . S
Eu340 O391 2.380 . S
Eu340 O392 2.432 1_455 S
Eu340 C404 2.848 . S
C341 C344 1.429 . S
C341 C345 1.411 . S
C341 N348 1.377 . S
C342 C344 1.420 . S
C342 C346 1.423 . S
C342 C354 1.392 . S
C343 C345 1.420 . S
C343 C346 1.351 . S
C343 H366 0.931 . S
C344 C341 1.429 . S
C344 C342 1.420 . S
C344 N352 1.362 . S
C345 C341 1.411 . S
C345 C343 1.420 . S
C345 C350 1.395 1_655 S
C346 C342 1.423 . S
C346 C343 1.351 . S
C346 H358 0.930 . S
C347 C349 1.400 . S
C347 C350 1.386 . S
C347 H359 0.930 . S
N348 C341 1.377 . S
N348 C349 1.321 1_655 S
N348 Eu351 2.609 . S
C349 C347 1.400 . S
C349 N348 1.321 1_455 S
C349 H356 0.930 . S
C350 C345 1.395 1_455 S
C350 C347 1.386 . S
C350 H369 0.930 . S
Eu351 N348 2.609 . S
Eu351 N352 2.657 . S
Eu351 O385 2.380 1_655 S
Eu351 O386 2.432 1_655 S
Eu351 O390 2.558 . S
Eu351 O391 2.612 1_655 S
Eu351 O393 2.339 . S
Eu351 O394 2.563 . S
Eu351 O395 2.419 . S
Eu351 C415 2.848 . S
N352 C344 1.362 . S
N352 Eu351 2.657 . S
N352 C353 1.334 . S
C353 N352 1.334 . S
C353 C355 1.413 . S
C353 H360 0.929 . S
C354 C342 1.392 . S
C354 C355 1.367 . S
C354 H362 0.930 . S
C355 C353 1.413 . S
C355 C354 1.367 . S
C355 H357 0.930 . S
H356 C349 0.930 . S
H357 C355 0.930 . S
H358 C346 0.930 . S
H359 C347 0.930 . S
H360 C353 0.929 . S
H361 C375 0.930 . S
H362 C354 0.930 . S
H363 C381 0.930 1_655 S
H364 C372 0.929 . S
H365 C379 0.930 1_655 S
H366 C343 0.931 . S
H367 C373 0.930 . S
H368 C406 0.930 . S
H369 C350 0.930 . S
H370 C405 0.931 . S
N371 Eu340 2.657 . S
N371 C372 1.334 . S
N371 C376 1.362 . S
C372 H364 0.929 . S
C372 N371 1.334 . S
C372 C375 1.413 . S
C373 H367 0.930 . S
C373 C374 1.392 . S
C373 C375 1.367 . S
C374 C373 1.392 . S
C374 C376 1.420 . S
C374 C406 1.423 . S
C375 H361 0.930 . S
C375 C372 1.413 . S
C375 C373 1.367 . S
C376 N371 1.362 . S
C376 C374 1.420 . S
C376 C380 1.429 . S
H377 C382 0.930 . S
N378 Eu340 2.609 . S
N378 C380 1.377 . S
N378 C381 1.321 . S
C379 H365 0.930 1_455 S
C379 C381 1.400 . S
C379 C382 1.386 . S
C380 C376 1.429 . S
C380 N378 1.377 . S
C380 C383 1.411 . S
C381 H363 0.930 1_455 S
C381 N378 1.321 . S
C381 C379 1.400 . S
C382 H377 0.930 . S
C382 C379 1.386 . S
C382 C383 1.395 . S
C383 C380 1.411 . S
C383 C382 1.395 . S
C383 C405 1.420 . S
O384 Eu340 2.558 . S
O384 C404 1.257 . S
O385 Eu340 2.612 . S
O385 Eu351 2.380 1_455 S
O385 C396 1.276 . S
O386 Eu351 2.432 1_455 S
O386 C403 1.264 . S
O387 Eu340 2.339 . S
O387 C403 1.254 . S
O388 Eu340 2.563 . S
O388 C396 1.235 . S
O389 Eu340 2.419 . S
O389 C404 1.249 . S
O390 Eu351 2.558 . S
O390 C415 1.257 . S
O391 Eu340 2.380 . S
O391 Eu351 2.612 1_455 S
O391 C407 1.276 1_455 S
O392 Eu340 2.432 1_655 S
O392 C414 1.264 . S
O393 Eu351 2.339 . S
O393 C414 1.254 . S
O394 Eu351 2.563 . S
O394 C407 1.235 . S
O395 Eu351 2.419 . S
O395 C415 1.249 . S
C396 O385 1.276 . S
C396 O388 1.235 . S
C397 C399 1.393 . S
C397 C401 1.395 . S
C397 C404 1.492 . S
C398 C399 1.392 . S
C398 C400 1.386 . S
C399 C397 1.393 . S
C399 C398 1.392 . S
C399 H416 0.930 . S
C400 C398 1.386 . S
C400 C402 1.395 . S
C400 H417 0.930 . S
C401 C397 1.395 . S
C401 C402 1.379 . S
C401 H418 0.930 . S
C402 C400 1.395 . S
C402 C401 1.379 . S
C402 H419 0.930 . S
C403 O386 1.264 . S
C403 O387 1.254 . S
C404 Eu340 2.848 . S
C404 O384 1.257 . S
C404 O389 1.249 . S
C404 C397 1.492 . S
C405 H370 0.931 . S
C405 C383 1.420 . S
C405 C406 1.351 . S
C406 H368 0.930 . S
C406 C374 1.423 . S
C406 C405 1.351 . S
C407 O391 1.276 1_655 S
C407 O394 1.235 . S
C408 C409 1.393 . S
C408 C412 1.395 . S
C408 C415 1.492 . S
C409 C408 1.393 . S
C409 C410 1.392 . S
C409 H420 0.930 . S
C410 C409 1.392 . S
C410 C411 1.386 . S
C411 C410 1.386 . S
C411 C413 1.395 . S
C411 H421 0.930 . S
C412 C408 1.395 . S
C412 C413 1.379 . S
C412 H422 0.930 . S
C413 C411 1.395 . S
C413 C412 1.379 . S
C413 H423 0.930 1_556 S
C414 O392 1.264 . S
C414 O393 1.254 . S
C415 Eu351 2.848 . S
C415 O390 1.257 . S
C415 O395 1.249 . S
C415 C408 1.492 . S
H416 C399 0.930 . S
H417 C400 0.930 . S
H418 C401 0.930 . S
H419 C402 0.930 . S
H420 C409 0.930 . S
H421 C411 0.930 . S
H422 C412 0.930 . S
H423 C413 0.930 1_554 S
H424 C442 0.951 . S
H425 C444 0.951 . S
H426 C446 0.950 . S
H427 C447 0.950 . S
H428 C449 0.950 . S
H429 C452 0.950 . S
H430 C453 0.950 . S
H431 C455 0.950 . S
H432 C456 0.950 . S
H433 C457 0.951 . S
H434 C459 0.951 . S
H435 C461 0.950 . S
H436 C462 0.950 1_565 S
H437 C464 0.950 . S
H438 C467 0.950 . S
H439 C468 0.950 . S
H440 C470 0.950 . S
H441 C471 0.950 . S
C442 H424 0.951 . S
C442 C443 1.366 . S
C442 C444 1.388 . S
C443 C442 1.366 . S
C443 C447 1.385 . S
C444 H425 0.951 . S
C444 C442 1.388 . S
C444 C445 1.366 . S
C445 C444 1.366 . S
C445 C446 1.414 . S
C445 C448 1.499 . S
C446 H426 0.950 . S
C446 C445 1.414 . S
C446 C447 1.374 . S
C447 H427 0.950 . S
C447 C443 1.385 . S
C447 C446 1.374 . S
C448 C445 1.499 . S
C448 C449 1.373 . S
C448 C450 1.389 . S
C449 H428 0.950 . S
C449 C448 1.373 . S
C449 C465 1.377 . S
C450 C448 1.389 . S
C450 C451 1.524 . S
C450 C464 1.377 . S
C451 C450 1.524 . S
C451 C452 1.397 . S
C451 C456 1.363 . S
C452 H429 0.950 . S
C452 C451 1.397 . S
C452 C453 1.334 . S
C453 H430 0.950 . S
C453 C452 1.334 . S
C453 C454 1.287 . S
C454 C453 1.287 . S
C454 C455 1.524 . S
C454 H473 0.913 1_554 S
C455 H431 0.950 . S
C455 C454 1.524 . S
C455 C456 1.415 . S
C456 H432 0.950 . S
C456 C451 1.363 . S
C456 C455 1.415 . S
C457 H433 0.951 . S
C457 C458 1.366 . S
C457 C459 1.388 . S
C458 C457 1.366 . S
C458 C462 1.385 . S
C459 H434 0.951 . S
C459 C457 1.388 . S
C459 C460 1.366 . S
C460 C459 1.366 . S
C460 C461 1.414 . S
C460 C463 1.499 . S
C461 H435 0.950 . S
C461 C460 1.414 . S
C461 C462 1.374 . S
C462 H436 0.950 1_545 S
C462 C458 1.385 . S
C462 C461 1.374 . S
C463 C460 1.499 . S
C463 C464 1.373 . S
C463 C465 1.389 . S
C464 H437 0.950 . S
C464 C450 1.377 . S
C464 C463 1.373 . S
C465 C449 1.377 . S
C465 C463 1.389 . S
C465 C466 1.524 . S
C466 C465 1.524 . S
C466 C467 1.397 . S
C466 C471 1.363 . S
C467 H438 0.950 . S
C467 C466 1.397 . S
C467 C468 1.334 . S
C468 H439 0.950 . S
C468 C467 1.334 . S
C468 C469 1.287 . S
C469 C468 1.287 . S
C469 C470 1.524 . S
C469 H472 0.999 . S
C470 H440 0.950 . S
C470 C469 1.524 . S
C470 C471 1.415 . S
C471 H441 0.950 . S
C471 C466 1.363 . S
C471 C470 1.415 . S
H472 C469 0.999 . S
H473 C454 0.913 1_556 S
H474 C492 0.951 . S
H475 C494 0.951 . S
H476 C496 0.950 . S
H477 C497 0.950 . S
H478 C499 0.950 . S
H479 C502 0.950 . S
H480 C503 0.950 . S
H481 C505 0.950 . S
H482 C506 0.950 . S
H483 C507 0.951 . S
H484 C509 0.951 . S
H485 C511 0.950 . S
H486 C512 0.950 . S
H487 C514 0.950 . S
H488 C517 0.950 . S
H489 C518 0.950 . S
H490 C520 0.950 . S
H491 C521 0.950 . S
C492 H474 0.951 . S
C492 C493 1.366 . S
C492 C494 1.388 . S
C493 C492 1.366 . S
C493 C497 1.385 . S
C494 H475 0.951 . S
C494 C492 1.388 . S
C494 C495 1.366 . S
C495 C494 1.366 . S
C495 C496 1.414 . S
C495 C498 1.499 . S
C496 H476 0.950 . S
C496 C495 1.414 . S
C496 C497 1.374 . S
C497 H477 0.950 . S
C497 C493 1.385 . S
C497 C496 1.374 . S
C498 C495 1.499 . S
C498 C499 1.373 . S
C498 C500 1.389 . S
C499 H478 0.950 . S
C499 C498 1.373 . S
C499 C515 1.377 . S
C500 C498 1.389 . S
C500 C501 1.524 . S
C500 C514 1.377 . S
C501 C500 1.524 . S
C501 C502 1.397 . S
C501 C506 1.363 . S
C502 H479 0.950 . S
C502 C501 1.397 . S
C502 C503 1.334 . S
C503 H480 0.950 . S
C503 C502 1.334 . S
C503 C504 1.287 . S
C504 C503 1.287 . S
C504 C505 1.524 . S
C504 H523 0.913 1_554 S
C505 H481 0.950 . S
C505 C504 1.524 . S
C505 C506 1.415 . S
C506 H482 0.950 . S
C506 C501 1.363 . S
C506 C505 1.415 . S
C507 H483 0.951 . S
C507 C508 1.366 . S
C507 C509 1.388 . S
C508 C507 1.366 . S
C508 C512 1.385 . S
C509 H484 0.951 . S
C509 C507 1.388 . S
C509 C510 1.366 . S
C510 C509 1.366 . S
C510 C511 1.414 . S
C510 C513 1.499 . S
C511 H485 0.950 . S
C511 C510 1.414 . S
C511 C512 1.374 . S
C512 H486 0.950 . S
C512 C508 1.385 . S
C512 C511 1.374 . S
C513 C510 1.499 . S
C513 C514 1.373 . S
C513 C515 1.389 . S
C514 H487 0.950 . S
C514 C500 1.377 . S
C514 C513 1.373 . S
C515 C499 1.377 . S
C515 C513 1.389 . S
C515 C516 1.524 . S
C516 C515 1.524 . S
C516 C517 1.397 . S
C516 C521 1.363 . S
C517 H488 0.950 . S
C517 C516 1.397 . S
C517 C518 1.334 . S
C518 H489 0.950 . S
C518 C517 1.334 . S
C518 C519 1.287 . S
C519 C518 1.287 . S
C519 C520 1.524 . S
C519 H522 0.999 . S
C520 H490 0.950 . S
C520 C519 1.524 . S
C520 C521 1.415 . S
C521 H491 0.950 . S
C521 C516 1.363 . S
C521 C520 1.415 . S
H522 C519 0.999 . S
H523 C504 0.913 1_556 S
H524 C542 0.951 . S
H525 C544 0.951 . S
H526 C546 0.950 . S
H527 C547 0.950 . S
H528 C549 0.950 . S
H529 C552 0.950 . S
H530 C553 0.950 . S
H531 C555 0.950 . S
H532 C556 0.950 . S
H533 C557 0.951 . S
H534 C559 0.951 . S
H535 C561 0.950 . S
H536 C562 0.950 . S
H537 C564 0.950 . S
H538 C567 0.950 . S
H539 C568 0.950 . S
H540 C570 0.950 . S
H541 C571 0.950 . S
C542 H524 0.951 . S
C542 C543 1.366 . S
C542 C544 1.388 . S
C543 C542 1.366 . S
C543 C547 1.385 . S
C544 H525 0.951 . S
C544 C542 1.388 . S
C544 C545 1.366 . S
C545 C544 1.366 . S
C545 C546 1.414 . S
C545 C548 1.499 . S
C546 H526 0.950 . S
C546 C545 1.414 . S
C546 C547 1.374 . S
C547 H527 0.950 . S
C547 C543 1.385 . S
C547 C546 1.374 . S
C548 C545 1.499 . S
C548 C549 1.373 . S
C548 C550 1.389 . S
C549 H528 0.950 . S
C549 C548 1.373 . S
C549 C565 1.377 . S
C550 C548 1.389 . S
C550 C551 1.524 . S
C550 C564 1.377 . S
C551 C550 1.524 . S
C551 C552 1.397 . S
C551 C556 1.363 . S
C552 H529 0.950 . S
C552 C551 1.397 . S
C552 C553 1.334 . S
C553 H530 0.950 . S
C553 C552 1.334 . S
C553 C554 1.287 . S
C554 C553 1.287 . S
C554 C555 1.524 . S
C554 H573 0.913 . S
C555 H531 0.950 . S
C555 C554 1.524 . S
C555 C556 1.415 . S
C556 H532 0.950 . S
C556 C551 1.363 . S
C556 C555 1.415 . S
C557 H533 0.951 . S
C557 C558 1.366 . S
C557 C559 1.388 . S
C558 C557 1.366 . S
C558 C562 1.385 . S
C559 H534 0.951 . S
C559 C557 1.388 . S
C559 C560 1.366 . S
C560 C559 1.366 . S
C560 C561 1.414 . S
C560 C563 1.499 . S
C561 H535 0.950 . S
C561 C560 1.414 . S
C561 C562 1.374 . S
C562 H536 0.950 . S
C562 C558 1.385 . S
C562 C561 1.374 . S
C563 C560 1.499 . S
C563 C564 1.373 . S
C563 C565 1.389 . S
C564 H537 0.950 . S
C564 C550 1.377 . S
C564 C563 1.373 . S
C565 C549 1.377 . S
C565 C563 1.389 . S
C565 C566 1.524 . S
C566 C565 1.524 . S
C566 C567 1.397 . S
C566 C571 1.363 . S
C567 H538 0.950 . S
C567 C566 1.397 . S
C567 C568 1.334 . S
C568 H539 0.950 . S
C568 C567 1.334 . S
C568 C569 1.287 . S
C569 C568 1.287 . S
C569 C570 1.524 . S
C569 H572 0.999 . S
C570 H540 0.950 . S
C570 C569 1.524 . S
C570 C571 1.415 . S
C571 H541 0.950 . S
C571 C566 1.363 . S
C571 C570 1.415 . S
H572 C569 0.999 . S
H573 C554 0.913 . S
H574 C592 0.951 . S
H575 C594 0.951 . S
H576 C596 0.950 . S
H577 C597 0.950 . S
H578 C599 0.950 . S
H579 C602 0.950 . S
H580 C603 0.950 . S
H581 C605 0.950 . S
H582 C606 0.950 . S
H583 C607 0.951 1_655 S
H584 C609 0.951 . S
H585 C611 0.950 . S
H586 C612 0.950 . S
H587 C614 0.950 . S
H588 C617 0.950 . S
H589 C618 0.950 . S
H590 C620 0.950 . S
H591 C621 0.950 1_655 S
C592 H574 0.951 . S
C592 C593 1.366 . S
C592 C594 1.388 . S
C593 C592 1.366 . S
C593 C597 1.385 . S
C594 H575 0.951 . S
C594 C592 1.388 . S
C594 C595 1.366 . S
C595 C594 1.366 . S
C595 C596 1.414 . S
C595 C598 1.499 . S
C596 H576 0.950 . S
C596 C595 1.414 . S
C596 C597 1.374 . S
C597 H577 0.950 . S
C597 C593 1.385 . S
C597 C596 1.374 . S
C598 C595 1.499 . S
C598 C599 1.373 . S
C598 C600 1.389 . S
C599 H578 0.950 . S
C599 C598 1.373 . S
C599 C615 1.377 . S
C600 C598 1.389 . S
C600 C601 1.524 . S
C600 C614 1.377 . S
C601 C600 1.524 . S
C601 C602 1.397 . S
C601 C606 1.363 . S
C602 H579 0.950 . S
C602 C601 1.397 . S
C602 C603 1.334 . S
C603 H580 0.950 . S
C603 C602 1.334 . S
C603 C604 1.287 . S
C604 C603 1.287 . S
C604 C605 1.524 . S
C604 H623 0.913 . S
C605 H581 0.950 . S
C605 C604 1.524 . S
C605 C606 1.415 . S
C606 H582 0.950 . S
C606 C601 1.363 . S
C606 C605 1.415 . S
C607 H583 0.951 1_455 S
C607 C608 1.366 . S
C607 C609 1.388 . S
C608 C607 1.366 . S
C608 C612 1.385 . S
C609 H584 0.951 . S
C609 C607 1.388 . S
C609 C610 1.366 . S
C610 C609 1.366 . S
C610 C611 1.414 . S
C610 C613 1.499 . S
C611 H585 0.950 . S
C611 C610 1.414 . S
C611 C612 1.374 . S
C612 H586 0.950 . S
C612 C608 1.385 . S
C612 C611 1.374 . S
C613 C610 1.499 . S
C613 C614 1.373 . S
C613 C615 1.389 . S
C614 H587 0.950 . S
C614 C600 1.377 . S
C614 C613 1.373 . S
C615 C599 1.377 . S
C615 C613 1.389 . S
C615 C616 1.524 . S
C616 C615 1.524 . S
C616 C617 1.397 . S
C616 C621 1.363 . S
C617 H588 0.950 . S
C617 C616 1.397 . S
C617 C618 1.334 . S
C618 H589 0.950 . S
C618 C617 1.334 . S
C618 C619 1.287 . S
C619 C618 1.287 . S
C619 C620 1.524 1_455 S
C619 H622 0.991 1_455 S
C620 H590 0.950 . S
C620 C619 1.524 1_655 S
C620 C621 1.415 1_655 S
C621 H591 0.950 1_455 S
C621 C616 1.363 . S
C621 C620 1.415 1_455 S
H622 C619 0.991 1_655 S
H623 C604 0.913 . S
H624 C642 0.951 . S
H625 C644 0.951 . S
H626 C646 0.950 . S
H627 C647 0.950 . S
H628 C649 0.950 1_554 S
H629 C652 0.950 . S
H630 C653 0.950 . S
H631 C655 0.953 1_545 S
H632 C656 0.950 1_545 S
H633 C657 0.951 . S
H634 C659 0.951 . S
H635 C661 0.950 . S
H636 C662 0.950 . S
H637 C664 0.950 . S
H638 C667 0.950 1_545 S
H639 C668 0.935 1_545 S
H640 C670 0.950 . S
H641 C671 0.950 . S
C642 H624 0.951 . S
C642 C643 1.366 . S
C642 C644 1.388 . S
C643 C642 1.366 . S
C643 C647 1.385 . S
C644 H625 0.951 . S
C644 C642 1.388 . S
C644 C645 1.366 . S
C645 C644 1.366 . S
C645 C646 1.414 . S
C645 C648 1.499 1_554 S
C646 H626 0.950 . S
C646 C645 1.414 . S
C646 C647 1.374 . S
C647 H627 0.950 . S
C647 C643 1.385 . S
C647 C646 1.374 . S
C648 C645 1.499 1_556 S
C648 C649 1.373 . S
C648 C650 1.389 . S
C649 H628 0.950 1_556 S
C649 C648 1.373 . S
C649 C665 1.377 . S
C650 C648 1.389 . S
C650 C651 1.524 . S
C650 C664 1.377 . S
C651 C650 1.524 . S
C651 C652 1.397 . S
C651 C656 1.363 . S
C652 H629 0.950 . S
C652 C651 1.397 . S
C652 C653 1.334 . S
C653 H630 0.950 . S
C653 C652 1.334 . S
C653 C654 1.287 . S
C654 C653 1.287 . S
C654 C655 1.524 . S
C654 H673 0.913 . S
C655 H631 0.953 1_565 S
C655 C654 1.524 . S
C655 C656 1.415 . S
C656 H632 0.950 1_565 S
C656 C651 1.363 . S
C656 C655 1.415 . S
C657 H633 0.951 . S
C657 C658 1.366 . S
C657 C659 1.388 . S
C658 C657 1.366 . S
C658 C662 1.385 1_565 S
C659 H634 0.951 . S
C659 C657 1.388 . S
C659 C660 1.366 . S
C660 C659 1.366 . S
C660 C661 1.414 1_565 S
C660 C663 1.499 . S
C661 H635 0.950 . S
C661 C660 1.414 1_545 S
C661 C662 1.374 . S
C662 H636 0.950 . S
C662 C658 1.385 1_545 S
C662 C661 1.374 . S
C663 C660 1.499 . S
C663 C664 1.373 . S
C663 C665 1.389 . S
C664 H637 0.950 . S
C664 C650 1.377 . S
C664 C663 1.373 . S
C665 C649 1.377 . S
C665 C663 1.389 . S
C665 C666 1.524 . S
C666 C665 1.524 . S
C666 C667 1.397 . S
C666 C671 1.363 1_556 S
C667 H638 0.950 1_565 S
C667 C666 1.397 . S
C667 C668 1.337 . S
C668 H639 0.935 1_565 S
C668 C667 1.337 . S
C668 C669 1.300 1_556 S
C669 C668 1.300 1_554 S
C669 C670 1.524 . S
C669 H672 0.999 . S
C670 H640 0.950 . S
C670 C669 1.524 . S
C670 C671 1.415 . S
C671 H641 0.950 . S
C671 C666 1.363 1_554 S
C671 C670 1.415 . S
H672 C669 0.999 . S
H673 C654 0.913 . S
H674 C692 0.951 . S
H675 C694 0.951 1_556 S
H676 C696 0.950 . S
H677 C697 0.950 . S
H678 C699 0.950 1_554 S
H679 C702 0.950 . S
H680 C703 0.950 . S
H681 C705 0.950 . S
H682 C706 0.950 . S
H683 C707 0.951 . S
H684 C709 0.951 . S
H685 C711 0.950 . S
H686 C712 0.950 . S
H687 C714 0.950 . S
H688 C717 0.950 . S
H689 C718 0.950 . S
H690 C720 0.950 . S
H691 C721 0.950 . S
C692 H674 0.951 . S
C692 C693 1.366 . S
C692 C694 1.388 . S
C693 C692 1.366 . S
C693 C697 1.385 . S
C694 H675 0.951 1_554 S
C694 C692 1.388 . S
C694 C695 1.366 . S
C695 C694 1.366 . S
C695 C696 1.414 . S
C695 C698 1.499 1_554 S
C696 H676 0.950 . S
C696 C695 1.414 . S
C696 C697 1.374 . S
C697 H677 0.950 . S
C697 C693 1.385 . S
C697 C696 1.374 . S
C698 C695 1.499 1_556 S
C698 C699 1.373 . S
C698 C700 1.389 . S
C699 H678 0.950 1_556 S
C699 C698 1.373 . S
C699 C715 1.377 . S
C700 C698 1.389 . S
C700 C701 1.524 . S
C700 C714 1.377 . S
C701 C700 1.524 . S
C701 C702 1.397 . S
C701 C706 1.363 . S
C702 H679 0.950 . S
C702 C701 1.397 . S
C702 C703 1.334 . S
C703 H680 0.950 . S
C703 C702 1.334 . S
C703 C704 1.287 . S
C704 C703 1.287 . S
C704 C705 1.524 . S
C704 H723 0.913 . S
C705 H681 0.950 . S
C705 C704 1.524 . S
C705 C706 1.415 . S
C706 H682 0.950 . S
C706 C701 1.363 . S
C706 C705 1.415 . S
C707 H683 0.951 . S
C707 C708 1.366 . S
C707 C709 1.388 . S
C708 C707 1.366 . S
C708 C712 1.385 . S
C709 H684 0.951 . S
C709 C707 1.388 . S
C709 C710 1.366 . S
C710 C709 1.366 . S
C710 C711 1.414 . S
C710 C713 1.499 . S
C711 H685 0.950 . S
C711 C710 1.414 . S
C711 C712 1.374 . S
C712 H686 0.950 . S
C712 C708 1.385 . S
C712 C711 1.374 . S
C713 C710 1.499 . S
C713 C714 1.373 . S
C713 C715 1.389 . S
C714 H687 0.950 . S
C714 C700 1.377 . S
C714 C713 1.373 . S
C715 C699 1.377 . S
C715 C713 1.389 . S
C715 C716 1.524 . S
C716 C715 1.524 . S
C716 C717 1.397 . S
C716 C721 1.363 1_556 S
C717 H688 0.950 . S
C717 C716 1.397 . S
C717 C718 1.334 . S
C718 H689 0.950 . S
C718 C717 1.334 . S
C718 C719 1.287 1_556 S
C719 C718 1.287 1_554 S
C719 C720 1.524 . S
C719 H722 0.999 . S
C720 H690 0.950 . S
C720 C719 1.524 . S
C720 C721 1.415 . S
C721 H691 0.950 . S
C721 C716 1.363 1_554 S
C721 C720 1.415 . S
H722 C719 0.999 . S
H723 C704 0.913 . S
H724 C742 0.951 . S
H725 C744 0.951 . S
H726 C746 0.950 1_556 S
H727 C747 0.950 . S
H728 C749 0.950 . S
H729 C752 0.950 . S
H730 C753 0.950 . S
H731 C755 0.950 . S
H732 C756 0.950 . S
H733 C757 0.951 . S
H734 C759 0.951 . S
H735 C761 0.950 . S
H736 C762 0.950 . S
H737 C764 0.950 . S
H738 C767 0.950 . S
H739 C768 0.950 . S
H740 C770 0.950 . S
H741 C771 0.950 . S
C742 H724 0.951 . S
C742 C743 1.366 . S
C742 C744 1.388 . S
C743 C742 1.366 . S
C743 C747 1.385 . S
C744 H725 0.951 . S
C744 C742 1.388 . S
C744 C745 1.366 . S
C745 C744 1.366 . S
C745 C746 1.414 . S
C745 C748 1.499 1_554 S
C746 H726 0.950 1_554 S
C746 C745 1.414 . S
C746 C747 1.374 . S
C747 H727 0.950 . S
C747 C743 1.385 . S
C747 C746 1.374 . S
C748 C745 1.499 1_556 S
C748 C749 1.373 . S
C748 C750 1.389 . S
C749 H728 0.950 . S
C749 C748 1.373 . S
C749 C765 1.377 . S
C750 C748 1.389 . S
C750 C751 1.524 . S
C750 C764 1.377 . S
C751 C750 1.524 . S
C751 C752 1.397 . S
C751 C756 1.363 . S
C752 H729 0.950 . S
C752 C751 1.397 . S
C752 C753 1.334 . S
C753 H730 0.950 . S
C753 C752 1.334 . S
C753 C754 1.287 . S
C754 C753 1.287 . S
C754 C755 1.524 1_556 S
C754 H773 0.913 . S
C755 H731 0.950 . S
C755 C754 1.524 1_554 S
C755 C756 1.415 1_554 S
C756 H732 0.950 . S
C756 C751 1.363 . S
C756 C755 1.415 1_556 S
C757 H733 0.951 . S
C757 C758 1.366 . S
C757 C759 1.388 . S
C758 C757 1.366 . S
C758 C762 1.385 . S
C759 H734 0.951 . S
C759 C757 1.388 . S
C759 C760 1.366 . S
C760 C759 1.366 . S
C760 C761 1.414 . S
C760 C763 1.499 . S
C761 H735 0.950 . S
C761 C760 1.414 . S
C761 C762 1.374 . S
C762 H736 0.950 . S
C762 C758 1.385 . S
C762 C761 1.374 . S
C763 C760 1.499 . S
C763 C764 1.373 . S
C763 C765 1.389 . S
C764 H737 0.950 . S
C764 C750 1.377 . S
C764 C763 1.373 . S
C765 C749 1.377 . S
C765 C763 1.389 . S
C765 C766 1.524 . S
C766 C765 1.524 . S
C766 C767 1.397 . S
C766 C771 1.363 . S
C767 H738 0.950 . S
C767 C766 1.397 . S
C767 C768 1.334 . S
C768 H739 0.950 . S
C768 C767 1.334 . S
C768 C769 1.287 . S
C769 C768 1.287 . S
C769 C770 1.524 . S
C769 H772 0.999 . S
C770 H740 0.950 . S
C770 C769 1.524 . S
C770 C771 1.415 . S
C771 H741 0.950 . S
C771 C766 1.363 . S
C771 C770 1.415 . S
H772 C769 0.999 . S
H773 C754 0.913 . S
H774 C792 0.951 . S
H775 C794 0.951 . S
H776 C796 0.950 1_556 S
H777 C797 0.950 . S
H778 C799 0.950 . S
H779 C802 0.950 . S
H780 C803 0.950 1_455 S
H781 C805 0.950 . S
H782 C806 0.950 . S
H783 C807 0.939 1_455 S
H784 C809 0.935 1_455 S
H785 C811 0.950 . S
H786 C812 0.950 . S
H787 C814 0.950 . S
H788 C817 0.950 . S
H789 C818 0.950 . S
H790 C820 0.950 . S
H791 C821 0.950 . S
C792 H774 0.951 . S
C792 C793 1.366 . S
C792 C794 1.388 . S
C793 C792 1.366 . S
C793 C797 1.385 . S
C794 H775 0.951 . S
C794 C792 1.388 . S
C794 C795 1.366 . S
C795 C794 1.366 . S
C795 C796 1.414 . S
C795 C798 1.499 1_554 S
C796 H776 0.950 1_554 S
C796 C795 1.414 . S
C796 C797 1.374 . S
C797 H777 0.950 . S
C797 C793 1.385 . S
C797 C796 1.374 . S
C798 C795 1.499 1_556 S
C798 C799 1.373 . S
C798 C800 1.389 . S
C799 H778 0.950 . S
C799 C798 1.373 . S
C799 C815 1.377 . S
C800 C798 1.389 . S
C800 C801 1.524 1_556 S
C800 C814 1.377 . S
C801 C800 1.524 1_554 S
C801 C802 1.397 . S
C801 C806 1.363 . S
C802 H779 0.950 . S
C802 C801 1.397 . S
C802 C803 1.334 . S
C803 H780 0.950 1_655 S
C803 C802 1.334 . S
C803 C804 1.287 . S
C804 C803 1.287 . S
C804 C805 1.524 . S
C804 H823 0.913 . S
C805 H781 0.950 . S
C805 C804 1.524 . S
C805 C806 1.415 . S
C806 H782 0.950 . S
C806 C801 1.363 . S
C806 C805 1.415 . S
C807 H783 0.939 1_655 S
C807 C808 1.373 . S
C807 C809 1.392 . S
C808 C807 1.373 . S
C808 C812 1.385 . S
C809 H784 0.935 1_655 S
C809 C807 1.392 . S
C809 C810 1.366 . S
C810 C809 1.366 . S
C810 C811 1.414 . S
C810 C813 1.499 . S
C811 H785 0.950 . S
C811 C810 1.414 . S
C811 C812 1.374 . S
C812 H786 0.950 . S
C812 C808 1.385 . S
C812 C811 1.374 . S
C813 C810 1.499 . S
C813 C814 1.373 . S
C813 C815 1.389 . S
C814 H787 0.950 . S
C814 C800 1.377 . S
C814 C813 1.373 . S
C815 C799 1.377 . S
C815 C813 1.389 . S
C815 C816 1.524 . S
C816 C815 1.524 . S
C816 C817 1.397 . S
C816 C821 1.363 . S
C817 H788 0.950 . S
C817 C816 1.397 . S
C817 C818 1.334 . S
C818 H789 0.950 . S
C818 C817 1.334 . S
C818 C819 1.287 . S
C819 C818 1.287 . S
C819 C820 1.524 . S
C819 H822 0.999 . S
C820 H790 0.950 . S
C820 C819 1.524 . S
C820 C821 1.415 . S
C821 H791 0.950 . S
C821 C816 1.363 . S
C821 C820 1.415 . S
H822 C819 0.999 . S
H823 C804 0.913 . S
H824 C842 0.951 . S
H825 C844 0.951 . S
H826 C846 0.950 . S
H827 C847 0.950 . S
H828 C849 0.950 . S
H829 C852 0.950 . S
H830 C853 0.948 1_455 S
H831 C855 0.950 . S
H832 C856 0.950 . S
H833 C857 0.951 . S
H834 C859 0.951 . S
H835 C861 0.950 1_655 S
H836 C862 0.950 . S
H837 C864 0.950 . S
H838 C867 0.950 . S
H839 C868 0.950 . S
H840 C870 0.950 . S
H841 C871 0.950 . S
C842 H824 0.951 . S
C842 C843 1.366 . S
C842 C844 1.388 . S
C843 C842 1.366 . S
C843 C847 1.385 . S
C844 H825 0.951 . S
C844 C842 1.388 . S
C844 C845 1.366 . S
C845 C844 1.366 . S
C845 C846 1.414 . S
C845 C848 1.499 . S
C846 H826 0.950 . S
C846 C845 1.414 . S
C846 C847 1.374 . S
C847 H827 0.950 . S
C847 C843 1.385 . S
C847 C846 1.374 . S
C848 C845 1.499 . S
C848 C849 1.373 . S
C848 C850 1.389 . S
C849 H828 0.950 . S
C849 C848 1.373 . S
C849 C865 1.377 . S
C850 C848 1.389 . S
C850 C851 1.524 . S
C850 C864 1.377 . S
C851 C850 1.524 . S
C851 C852 1.397 . S
C851 C856 1.363 1_455 S
C852 H829 0.950 . S
C852 C851 1.397 . S
C852 C853 1.327 1_455 S
C853 H830 0.948 1_655 S
C853 C852 1.327 1_655 S
C853 C854 1.297 . S
C854 C853 1.297 . S
C854 C855 1.524 . S
C854 H873 0.913 . S
C855 H831 0.950 . S
C855 C854 1.524 . S
C855 C856 1.415 . S
C856 H832 0.950 . S
C856 C851 1.363 1_655 S
C856 C855 1.415 . S
C857 H833 0.951 . S
C857 C858 1.366 . S
C857 C859 1.388 . S
C858 C857 1.366 . S
C858 C862 1.385 1_455 S
C859 H834 0.951 . S
C859 C857 1.388 . S
C859 C860 1.366 . S
C860 C859 1.366 . S
C860 C861 1.414 . S
C860 C863 1.499 . S
C861 H835 0.950 1_455 S
C861 C860 1.414 . S
C861 C862 1.374 1_455 S
C862 H836 0.950 . S
C862 C858 1.385 1_655 S
C862 C861 1.374 1_655 S
C863 C860 1.499 . S
C863 C864 1.373 . S
C863 C865 1.389 . S
C864 H837 0.950 . S
C864 C850 1.377 . S
C864 C863 1.373 . S
C865 C849 1.377 . S
C865 C863 1.389 . S
C865 C866 1.524 . S
C866 C865 1.524 . S
C866 C867 1.397 . S
C866 C871 1.363 . S
C867 H838 0.950 . S
C867 C866 1.397 . S
C867 C868 1.334 . S
C868 H839 0.950 . S
C868 C867 1.334 . S
C868 C869 1.287 . S
C869 C868 1.287 . S
C869 C870 1.524 . S
C869 H872 0.999 . S
C870 H840 0.950 . S
C870 C869 1.524 . S
C870 C871 1.415 . S
C871 H841 0.950 . S
C871 C866 1.363 . S
C871 C870 1.415 . S
H872 C869 0.999 . S
H873 C854 0.913 . S
H874 C892 0.951 . S
H875 C894 0.951 . S
H876 C896 0.950 . S
H877 C897 0.950 . S
H878 C899 0.950 . S
H879 C902 0.950 . S
H880 C903 0.950 . S
H881 C905 0.950 . S
H882 C906 0.950 . S
H883 C907 0.951 . S
H884 C909 0.951 . S
H885 C911 0.950 . S
H886 C912 0.933 1_565 S
H887 C914 0.950 . S
H888 C917 0.950 . S
H889 C918 0.950 . S
H890 C920 0.950 . S
H891 C921 0.950 . S
C892 H874 0.951 . S
C892 C893 1.366 . S
C892 C894 1.388 . S
C893 C892 1.366 . S
C893 C897 1.385 . S
C894 H875 0.951 . S
C894 C892 1.388 . S
C894 C895 1.366 . S
C895 C894 1.366 . S
C895 C896 1.414 . S
C895 C898 1.499 . S
C896 H876 0.950 . S
C896 C895 1.414 . S
C896 C897 1.374 . S
C897 H877 0.950 . S
C897 C893 1.385 . S
C897 C896 1.374 . S
C898 C895 1.499 . S
C898 C899 1.373 . S
C898 C900 1.389 . S
C899 H878 0.950 . S
C899 C898 1.373 . S
C899 C915 1.377 . S
C900 C898 1.389 . S
C900 C901 1.524 . S
C900 C914 1.377 . S
C901 C900 1.524 . S
C901 C902 1.397 . S
C901 C906 1.363 . S
C902 H879 0.950 . S
C902 C901 1.397 . S
C902 C903 1.334 . S
C903 H880 0.950 . S
C903 C902 1.334 . S
C903 C904 1.287 . S
C904 C903 1.287 . S
C904 C905 1.524 . S
C904 H923 0.913 . S
C905 H881 0.950 . S
C905 C904 1.524 . S
C905 C906 1.415 . S
C906 H882 0.950 . S
C906 C901 1.363 . S
C906 C905 1.415 . S
C907 H883 0.951 . S
C907 C908 1.366 . S
C907 C909 1.388 . S
C908 C907 1.366 . S
C908 C912 1.385 . S
C909 H884 0.951 . S
C909 C907 1.388 . S
C909 C910 1.366 . S
C910 C909 1.366 . S
C910 C911 1.414 . S
C910 C913 1.499 . S
C911 H885 0.950 . S
C911 C910 1.414 . S
C911 C912 1.374 . S
C912 H886 0.933 1_545 S
C912 C908 1.385 . S
C912 C911 1.374 . S
C913 C910 1.499 . S
C913 C914 1.373 . S
C913 C915 1.389 . S
C914 H887 0.950 . S
C914 C900 1.377 . S
C914 C913 1.373 . S
C915 C899 1.377 . S
C915 C913 1.389 . S
C915 C916 1.524 . S
C916 C915 1.524 . S
C916 C917 1.397 1_545 S
C916 C921 1.363 . S
C917 H888 0.950 . S
C917 C916 1.397 1_565 S
C917 C918 1.334 . S
C918 H889 0.950 . S
C918 C917 1.334 . S
C918 C919 1.287 . S
C919 C918 1.287 . S
C919 C920 1.524 1_565 S
C919 H922 0.999 . S
C920 H890 0.950 . S
C920 C919 1.524 1_545 S
C920 C921 1.415 . S
C921 H891 0.950 . S
C921 C916 1.363 . S
C921 C920 1.415 . S
H922 C919 0.999 . S
H923 C904 0.913 . S
H924 C942 0.951 . S
H925 C944 0.951 . S
H926 C946 0.950 . S
H927 C947 0.950 . S
H928 C949 0.950 . S
H929 C952 0.950 . S
H930 C953 0.950 . S
H931 C955 0.950 . S
H932 C956 0.950 . S
H933 C957 0.951 . S
H934 C959 0.951 . S
H935 C961 0.950 . S
H936 C962 0.950 . S
H937 C964 0.950 . S
H938 C967 0.950 . S
H939 C968 0.950 . S
H940 C970 0.950 . S
H941 C971 0.950 . S
C942 H924 0.951 . S
C942 C943 1.366 . S
C942 C944 1.388 . S
C943 C942 1.366 . S
C943 C947 1.385 . S
C944 H925 0.951 . S
C944 C942 1.388 . S
C944 C945 1.366 . S
C945 C944 1.366 . S
C945 C946 1.414 . S
C945 C948 1.499 . S
C946 H926 0.950 . S
C946 C945 1.414 . S
C946 C947 1.374 . S
C947 H927 0.950 . S
C947 C943 1.385 . S
C947 C946 1.374 . S
C948 C945 1.499 . S
C948 C949 1.373 . S
C948 C950 1.389 . S
C949 H928 0.950 . S
C949 C948 1.373 . S
C949 C965 1.377 . S
C950 C948 1.389 . S
C950 C951 1.524 . S
C950 C964 1.377 . S
C951 C950 1.524 . S
C951 C952 1.397 . S
C951 C956 1.363 . S
C952 H929 0.950 . S
C952 C951 1.397 . S
C952 C953 1.334 . S
C953 H930 0.950 . S
C953 C952 1.334 . S
C953 C954 1.287 . S
C954 C953 1.287 . S
C954 C955 1.524 . S
C954 H973 0.913 . S
C955 H931 0.950 . S
C955 C954 1.524 . S
C955 C956 1.415 . S
C956 H932 0.950 . S
C956 C951 1.363 . S
C956 C955 1.415 . S
C957 H933 0.951 . S
C957 C958 1.366 . S
C957 C959 1.388 . S
C958 C957 1.366 . S
C958 C962 1.385 . S
C959 H934 0.951 . S
C959 C957 1.388 . S
C959 C960 1.366 . S
C960 C959 1.366 . S
C960 C961 1.414 . S
C960 C963 1.499 . S
C961 H935 0.950 . S
C961 C960 1.414 . S
C961 C962 1.374 . S
C962 H936 0.950 . S
C962 C958 1.385 . S
C962 C961 1.374 . S
C963 C960 1.499 . S
C963 C964 1.373 . S
C963 C965 1.389 . S
C964 H937 0.950 . S
C964 C950 1.377 . S
C964 C963 1.373 . S
C965 C949 1.377 . S
C965 C963 1.389 . S
C965 C966 1.524 . S
C966 C965 1.524 . S
C966 C967 1.397 . S
C966 C971 1.363 . S
C967 H938 0.950 . S
C967 C966 1.397 . S
C967 C968 1.334 . S
C968 H939 0.950 . S
C968 C967 1.334 . S
C968 C969 1.287 . S
C969 C968 1.287 . S
C969 C970 1.524 . S
C969 H972 0.999 . S
C970 H940 0.950 . S
C970 C969 1.524 . S
C970 C971 1.415 . S
C971 H941 0.950 . S
C971 C966 1.363 . S
C971 C970 1.415 . S
H972 C969 0.999 . S
H973 C954 0.913 . S
H974 C992 0.951 . S
H975 C994 0.951 . S
H976 C996 0.950 . S
H977 C997 0.950 . S
H978 C999 0.950 . S
H979 C1002 0.950 . S
H980 C1003 0.950 . S
H981 C1005 0.950 . S
H982 C1006 0.950 . S
H983 C1007 0.951 . S
H984 C1009 0.951 . S
H985 C1011 0.950 . S
H986 C1012 0.950 . S
H987 C1014 0.950 . S
H988 C1017 0.950 . S
H989 C1018 0.950 . S
H990 C1020 0.950 . S
H991 C1021 0.950 . S
C992 H974 0.951 . S
C992 C993 1.366 . S
C992 C994 1.388 . S
C993 C992 1.366 . S
C993 C997 1.385 . S
C994 H975 0.951 . S
C994 C992 1.388 . S
C994 C995 1.366 . S
C995 C994 1.366 . S
C995 C996 1.414 . S
C995 C998 1.499 . S
C996 H976 0.950 . S
C996 C995 1.414 . S
C996 C997 1.374 . S
C997 H977 0.950 . S
C997 C993 1.385 . S
C997 C996 1.374 . S
C998 C995 1.499 . S
C998 C999 1.373 . S
C998 C1000 1.389 . S
C999 H978 0.950 . S
C999 C998 1.373 . S
C999 C1015 1.377 . S
C1000 C998 1.389 . S
C1000 C1001 1.524 . S
C1000 C1014 1.377 . S
C1001 C1000 1.524 . S
C1001 C1002 1.397 . S
C1001 C1006 1.363 . S
C1002 H979 0.950 . S
C1002 C1001 1.397 . S
C1002 C1003 1.334 . S
C1003 H980 0.950 . S
C1003 C1002 1.334 . S
C1003 C1004 1.287 . S
C1004 C1003 1.287 . S
C1004 C1005 1.524 . S
C1004 H1023 0.913 . S
C1005 H981 0.950 . S
C1005 C1004 1.524 . S
C1005 C1006 1.415 . S
C1006 H982 0.950 . S
C1006 C1001 1.363 . S
C1006 C1005 1.415 . S
C1007 H983 0.951 . S
C1007 C1008 1.366 . S
C1007 C1009 1.388 . S
C1008 C1007 1.366 . S
C1008 C1012 1.385 . S
C1009 H984 0.951 . S
C1009 C1007 1.388 . S
C1009 C1010 1.366 . S
C1010 C1009 1.366 . S
C1010 C1011 1.414 . S
C1010 C1013 1.499 . S
C1011 H985 0.950 . S
C1011 C1010 1.414 . S
C1011 C1012 1.374 . S
C1012 H986 0.950 . S
C1012 C1008 1.385 . S
C1012 C1011 1.374 . S
C1013 C1010 1.499 . S
C1013 C1014 1.373 . S
C1013 C1015 1.389 . S
C1014 H987 0.950 . S
C1014 C1000 1.377 . S
C1014 C1013 1.373 . S
C1015 C999 1.377 . S
C1015 C1013 1.389 . S
C1015 C1016 1.524 . S
C1016 C1015 1.524 . S
C1016 C1017 1.397 . S
C1016 C1021 1.363 . S
C1017 H988 0.950 . S
C1017 C1016 1.397 . S
C1017 C1018 1.334 . S
C1018 H989 0.950 . S
C1018 C1017 1.334 . S
C1018 C1019 1.287 . S
C1019 C1018 1.287 . S
C1019 C1020 1.524 . S
C1019 H1022 0.999 . S
C1020 H990 0.950 . S
C1020 C1019 1.524 . S
C1020 C1021 1.415 . S
C1021 H991 0.950 . S
C1021 C1016 1.363 . S
C1021 C1020 1.415 . S
H1022 C1019 0.999 . S
H1023 C1004 0.913 . S
H1024 C1042 0.951 . S
H1025 C1044 0.951 . S
H1026 C1046 0.950 1_556 S
H1027 C1047 0.950 . S
H1028 C1049 0.950 . S
H1029 C1052 0.950 . S
H1030 C1053 0.950 . S
H1031 C1055 0.950 . S
H1032 C1056 0.950 . S
H1033 C1057 0.951 . S
H1034 C1059 0.951 . S
H1035 C1061 0.950 1_554 S
H1036 C1062 0.950 . S
H1037 C1064 0.950 . S
H1038 C1067 0.950 . S
H1039 C1068 0.950 . S
H1040 C1070 0.950 . S
H1041 C1071 0.950 . S
C1042 H1024 0.951 . S
C1042 C1043 1.366 . S
C1042 C1044 1.388 . S
C1043 C1042 1.366 . S
C1043 C1047 1.385 . S
C1044 H1025 0.951 . S
C1044 C1042 1.388 . S
C1044 C1045 1.366 . S
C1045 C1044 1.366 . S
C1045 C1046 1.414 . S
C1045 C1048 1.499 . S
C1046 H1026 0.950 1_554 S
C1046 C1045 1.414 . S
C1046 C1047 1.374 . S
C1047 H1027 0.950 . S
C1047 C1043 1.385 . S
C1047 C1046 1.374 . S
C1048 C1045 1.499 . S
C1048 C1049 1.373 1_554 S
C1048 C1050 1.389 . S
C1049 H1028 0.950 . S
C1049 C1048 1.373 1_556 S
C1049 C1065 1.377 . S
C1050 C1048 1.389 . S
C1050 C1051 1.524 . S
C1050 C1064 1.377 . S
C1051 C1050 1.524 . S
C1051 C1052 1.397 . S
C1051 C1056 1.363 . S
C1052 H1029 0.950 . S
C1052 C1051 1.397 . S
C1052 C1053 1.334 . S
C1053 H1030 0.950 . S
C1053 C1052 1.334 . S
C1053 C1054 1.287 . S
C1054 C1053 1.287 . S
C1054 C1055 1.524 . S
C1054 H1073 0.913 . S
C1055 H1031 0.950 . S
C1055 C1054 1.524 . S
C1055 C1056 1.415 . S
C1056 H1032 0.950 . S
C1056 C1051 1.363 . S
C1056 C1055 1.415 . S
C1057 H1033 0.951 . S
C1057 C1058 1.366 . S
C1057 C1059 1.388 1_455 S
C1058 C1057 1.366 . S
C1058 C1062 1.385 . S
C1059 H1034 0.951 . S
C1059 C1057 1.388 1_655 S
C1059 C1060 1.366 . S
C1060 C1059 1.366 . S
C1060 C1061 1.414 . S
C1060 C1063 1.499 . S
C1061 H1035 0.950 1_556 S
C1061 C1060 1.414 . S
C1061 C1062 1.374 1_655 S
C1062 H1036 0.950 . S
C1062 C1058 1.385 . S
C1062 C1061 1.374 1_455 S
C1063 C1060 1.499 . S
C1063 C1064 1.373 1_556 S
C1063 C1065 1.389 . S
C1064 H1037 0.950 . S
C1064 C1050 1.377 . S
C1064 C1063 1.373 1_554 S
C1065 C1049 1.377 . S
C1065 C1063 1.389 . S
C1065 C1066 1.524 1_655 S
C1066 C1065 1.524 1_455 S
C1066 C1067 1.397 . S
C1066 C1071 1.363 . S
C1067 H1038 0.950 . S
C1067 C1066 1.397 . S
C1067 C1068 1.334 . S
C1068 H1039 0.950 . S
C1068 C1067 1.334 . S
C1068 C1069 1.287 . S
C1069 C1068 1.287 . S
C1069 C1070 1.524 . S
C1069 H1072 0.999 . S
C1070 H1040 0.950 . S
C1070 C1069 1.524 . S
C1070 C1071 1.415 . S
C1071 H1041 0.950 . S
C1071 C1066 1.363 . S
C1071 C1070 1.415 . S
H1072 C1069 0.999 . S
H1073 C1054 0.913 . S
H1074 C1092 0.951 . S
H1075 C1094 0.951 1_556 S
H1076 C1096 0.950 . S
H1077 C1097 0.950 . S
H1078 C1099 0.950 . S
H1079 C1102 0.950 . S
H1080 C1103 0.950 . S
H1081 C1105 0.950 . S
H1082 C1106 0.950 . S
H1083 C1107 0.951 . S
H1084 C1109 0.951 1_554 S
H1085 C1111 0.954 . S
H1086 C1112 0.950 . S
H1087 C1114 0.950 1_545 S
H1088 C1117 0.950 . S
H1089 C1118 0.950 . S
H1090 C1120 0.950 . S
H1091 C1121 0.950 . S
C1092 H1074 0.951 . S
C1092 C1093 1.366 . S
C1092 C1094 1.388 . S
C1093 C1092 1.366 . S
C1093 C1097 1.385 . S
C1094 H1075 0.951 1_554 S
C1094 C1092 1.388 . S
C1094 C1095 1.366 . S
C1095 C1094 1.366 . S
C1095 C1096 1.414 . S
C1095 C1098 1.499 . S
C1096 H1076 0.950 . S
C1096 C1095 1.414 . S
C1096 C1097 1.374 . S
C1097 H1077 0.950 . S
C1097 C1093 1.385 . S
C1097 C1096 1.374 . S
C1098 C1095 1.499 . S
C1098 C1099 1.373 . S
C1098 C1100 1.389 1_554 S
C1099 H1078 0.950 . S
C1099 C1098 1.373 . S
C1099 C1115 1.377 . S
C1100 C1098 1.389 1_556 S
C1100 C1101 1.524 1_565 S
C1100 C1114 1.377 . S
C1101 C1100 1.524 1_545 S
C1101 C1102 1.397 1_556 S
C1101 C1106 1.363 . S
C1102 H1079 0.950 . S
C1102 C1101 1.397 1_554 S
C1102 C1103 1.334 . S
C1103 H1080 0.950 . S
C1103 C1102 1.334 . S
C1103 C1104 1.287 . S
C1104 C1103 1.287 . S
C1104 C1105 1.524 1_554 S
C1104 H1123 0.913 . S
C1105 H1081 0.950 . S
C1105 C1104 1.524 1_556 S
C1105 C1106 1.415 . S
C1106 H1082 0.950 . S
C1106 C1101 1.363 . S
C1106 C1105 1.415 . S
C1107 H1083 0.951 . S
C1107 C1108 1.366 . S
C1107 C1109 1.388 1_545 S
C1108 C1107 1.366 . S
C1108 C1112 1.385 . S
C1109 H1084 0.951 1_556 S
C1109 C1107 1.388 1_565 S
C1109 C1110 1.366 . S
C1110 C1109 1.366 . S
C1110 C1111 1.423 . S
C1110 C1113 1.499 . S
C1111 H1085 0.954 . S
C1111 C1110 1.423 . S
C1111 C1112 1.362 1_565 S
C1112 H1086 0.950 . S
C1112 C1108 1.385 . S
C1112 C1111 1.362 1_545 S
C1113 C1110 1.499 . S
C1113 C1114 1.373 . S
C1113 C1115 1.389 1_556 S
C1114 H1087 0.950 1_565 S
C1114 C1100 1.377 . S
C1114 C1113 1.373 . S
C1115 C1099 1.377 . S
C1115 C1113 1.389 1_554 S
C1115 C1116 1.524 . S
C1116 C1115 1.524 . S
C1116 C1117 1.397 1_554 S
C1116 C1121 1.363 . S
C1117 H1088 0.950 . S
C1117 C1116 1.397 1_556 S
C1117 C1118 1.334 . S
C1118 H1089 0.950 . S
C1118 C1117 1.334 . S
C1118 C1119 1.287 1_556 S
C1119 C1118 1.287 1_554 S
C1119 C1120 1.524 . S
C1119 H1122 0.999 . S
C1120 H1090 0.950 . S
C1120 C1119 1.524 . S
C1120 C1121 1.415 . S
C1121 H1091 0.950 . S
C1121 C1116 1.363 . S
C1121 C1120 1.415 . S
H1122 C1119 0.999 . S
H1123 C1104 0.913 . S
H1124 C1142 0.951 . S
H1125 C1144 0.951 . S
H1126 C1146 0.950 . S
H1127 C1147 0.950 . S
H1128 C1149 0.950 . S
H1129 C1152 0.950 . S
H1130 C1153 0.950 . S
H1131 C1155 0.950 . S
H1132 C1156 0.950 . S
H1133 C1157 0.951 . S
H1134 C1159 0.951 . S
H1135 C1161 0.950 . S
H1136 C1162 0.950 . S
H1137 C1164 0.950 . S
H1138 C1167 0.950 . S
H1139 C1168 0.950 . S
H1140 C1170 0.950 . S
H1141 C1171 0.950 . S
C1142 H1124 0.951 . S
C1142 C1143 1.366 . S
C1142 C1144 1.388 . S
C1143 C1142 1.366 . S
C1143 C1147 1.385 . S
C1144 H1125 0.951 . S
C1144 C1142 1.388 . S
C1144 C1145 1.366 . S
C1145 C1144 1.366 . S
C1145 C1146 1.414 . S
C1145 C1148 1.499 . S
C1146 H1126 0.950 . S
C1146 C1145 1.414 . S
C1146 C1147 1.374 . S
C1147 H1127 0.950 . S
C1147 C1143 1.385 . S
C1147 C1146 1.374 . S
C1148 C1145 1.499 . S
C1148 C1149 1.373 1_554 S
C1148 C1150 1.389 . S
C1149 H1128 0.950 . S
C1149 C1148 1.373 1_556 S
C1149 C1165 1.377 . S
C1150 C1148 1.389 . S
C1150 C1151 1.524 . S
C1150 C1164 1.377 . S
C1151 C1150 1.524 . S
C1151 C1152 1.397 . S
C1151 C1156 1.363 . S
C1152 H1129 0.950 . S
C1152 C1151 1.397 . S
C1152 C1153 1.334 . S
C1153 H1130 0.950 . S
C1153 C1152 1.334 . S
C1153 C1154 1.287 . S
C1154 C1153 1.287 . S
C1154 C1155 1.524 . S
C1154 H1173 0.913 . S
C1155 H1131 0.950 . S
C1155 C1154 1.524 . S
C1155 C1156 1.415 . S
C1156 H1132 0.950 . S
C1156 C1151 1.363 . S
C1156 C1155 1.415 . S
C1157 H1133 0.951 . S
C1157 C1158 1.366 . S
C1157 C1159 1.388 . S
C1158 C1157 1.366 . S
C1158 C1162 1.385 . S
C1159 H1134 0.951 . S
C1159 C1157 1.388 . S
C1159 C1160 1.366 . S
C1160 C1159 1.366 . S
C1160 C1161 1.414 . S
C1160 C1163 1.499 . S
C1161 H1135 0.950 . S
C1161 C1160 1.414 . S
C1161 C1162 1.374 . S
C1162 H1136 0.950 . S
C1162 C1158 1.385 . S
C1162 C1161 1.374 . S
C1163 C1160 1.499 . S
C1163 C1164 1.373 1_556 S
C1163 C1165 1.389 . S
C1164 H1137 0.950 . S
C1164 C1150 1.377 . S
C1164 C1163 1.373 1_554 S
C1165 C1149 1.377 . S
C1165 C1163 1.389 . S
C1165 C1166 1.524 . S
C1166 C1165 1.524 . S
C1166 C1167 1.397 . S
C1166 C1171 1.363 . S
C1167 H1138 0.950 . S
C1167 C1166 1.397 . S
C1167 C1168 1.334 . S
C1168 H1139 0.950 . S
C1168 C1167 1.334 . S
C1168 C1169 1.287 . S
C1169 C1168 1.287 . S
C1169 C1170 1.524 . S
C1169 H1172 0.999 . S
C1170 H1140 0.950 . S
C1170 C1169 1.524 . S
C1170 C1171 1.415 . S
C1171 H1141 0.950 . S
C1171 C1166 1.363 . S
C1171 C1170 1.415 . S
H1172 C1169 0.999 . S
H1173 C1154 0.913 . S
H1174 C1192 0.951 . S
H1175 C1194 0.951 . S
H1176 C1196 0.950 . S
H1177 C1197 0.950 . S
H1178 C1199 0.950 1_556 S
H1179 C1202 0.950 . S
H1180 C1203 0.950 . S
H1181 C1205 0.950 . S
H1182 C1206 0.950 . S
H1183 C1207 0.951 . S
H1184 C1209 0.951 . S
H1185 C1211 0.950 . S
H1186 C1212 0.950 . S
H1187 C1214 0.950 . S
H1188 C1217 0.950 . S
H1189 C1218 0.950 . S
H1190 C1220 0.950 . S
H1191 C1221 0.950 . S
C1192 H1174 0.951 . S
C1192 C1193 1.366 . S
C1192 C1194 1.388 . S
C1193 C1192 1.366 . S
C1193 C1197 1.385 . S
C1194 H1175 0.951 . S
C1194 C1192 1.388 . S
C1194 C1195 1.366 . S
C1195 C1194 1.366 . S
C1195 C1196 1.414 . S
C1195 C1198 1.499 . S
C1196 H1176 0.950 . S
C1196 C1195 1.414 . S
C1196 C1197 1.374 . S
C1197 H1177 0.950 . S
C1197 C1193 1.385 . S
C1197 C1196 1.374 . S
C1198 C1195 1.499 . S
C1198 C1199 1.373 . S
C1198 C1200 1.389 . S
C1199 H1178 0.950 1_554 S
C1199 C1198 1.373 . S
C1199 C1215 1.377 1_554 S
C1200 C1198 1.389 . S
C1200 C1201 1.524 . S
C1200 C1214 1.377 . S
C1201 C1200 1.524 . S
C1201 C1202 1.397 . S
C1201 C1206 1.363 . S
C1202 H1179 0.950 . S
C1202 C1201 1.397 . S
C1202 C1203 1.334 . S
C1203 H1180 0.950 . S
C1203 C1202 1.334 . S
C1203 C1204 1.287 . S
C1204 C1203 1.287 . S
C1204 C1205 1.524 . S
C1204 H1223 0.913 . S
C1205 H1181 0.950 . S
C1205 C1204 1.524 . S
C1205 C1206 1.415 . S
C1206 H1182 0.950 . S
C1206 C1201 1.363 . S
C1206 C1205 1.415 . S
C1207 H1183 0.951 . S
C1207 C1208 1.366 . S
C1207 C1209 1.388 . S
C1208 C1207 1.366 . S
C1208 C1212 1.385 . S
C1209 H1184 0.951 . S
C1209 C1207 1.388 . S
C1209 C1210 1.366 . S
C1210 C1209 1.366 . S
C1210 C1211 1.414 . S
C1210 C1213 1.499 . S
C1211 H1185 0.950 . S
C1211 C1210 1.414 . S
C1211 C1212 1.374 . S
C1212 H1186 0.950 . S
C1212 C1208 1.385 . S
C1212 C1211 1.374 . S
C1213 C1210 1.499 . S
C1213 C1214 1.373 1_556 S
C1213 C1215 1.389 . S
C1214 H1187 0.950 . S
C1214 C1200 1.377 . S
C1214 C1213 1.373 1_554 S
C1215 C1199 1.377 1_556 S
C1215 C1213 1.389 . S
C1215 C1216 1.524 . S
C1216 C1215 1.524 . S
C1216 C1217 1.397 . S
C1216 C1221 1.363 . S
C1217 H1188 0.950 . S
C1217 C1216 1.397 . S
C1217 C1218 1.334 . S
C1218 H1189 0.950 . S
C1218 C1217 1.334 . S
C1218 C1219 1.287 . S
C1219 C1218 1.287 . S
C1219 C1220 1.524 . S
C1219 H1222 0.999 . S
C1220 H1190 0.950 . S
C1220 C1219 1.524 . S
C1220 C1221 1.415 . S
C1221 H1191 0.950 . S
C1221 C1216 1.363 . S
C1221 C1220 1.415 . S
H1222 C1219 0.999 . S
H1223 C1204 0.913 . S
H1224 C1242 0.951 . S
H1225 C1244 0.951 . S
H1226 C1246 0.950 . S
H1227 C1247 0.950 . S
H1228 C1249 0.950 . S
H1229 C1252 0.950 . S
H1230 C1253 0.950 . S
H1231 C1255 0.950 . S
H1232 C1256 0.950 . S
H1233 C1257 0.951 1_655 S
H1234 C1259 0.951 . S
H1235 C1261 0.950 . S
H1236 C1262 0.950 . S
H1237 C1264 0.950 . S
H1238 C1267 0.950 . S
H1239 C1268 0.950 . S
H1240 C1270 0.950 . S
H1241 C1271 0.950 1_655 S
C1242 H1224 0.951 . S
C1242 C1243 1.366 . S
C1242 C1244 1.388 . S
C1243 C1242 1.366 . S
C1243 C1247 1.385 . S
C1244 H1225 0.951 . S
C1244 C1242 1.388 . S
C1244 C1245 1.366 . S
C1245 C1244 1.366 . S
C1245 C1246 1.414 . S
C1245 C1248 1.499 . S
C1246 H1226 0.950 . S
C1246 C1245 1.414 . S
C1246 C1247 1.374 . S
C1247 H1227 0.950 . S
C1247 C1243 1.385 . S
C1247 C1246 1.374 . S
C1248 C1245 1.499 . S
C1248 C1249 1.373 . S
C1248 C1250 1.389 . S
C1249 H1228 0.950 . S
C1249 C1248 1.373 . S
C1249 C1265 1.377 . S
C1250 C1248 1.389 . S
C1250 C1251 1.524 . S
C1250 C1264 1.377 . S
C1251 C1250 1.524 . S
C1251 C1252 1.397 . S
C1251 C1256 1.363 . S
C1252 H1229 0.950 . S
C1252 C1251 1.397 . S
C1252 C1253 1.334 . S
C1253 H1230 0.950 . S
C1253 C1252 1.334 . S
C1253 C1254 1.287 . S
C1254 C1253 1.287 . S
C1254 C1255 1.524 . S
C1254 H1273 0.913 . S
C1255 H1231 0.950 . S
C1255 C1254 1.524 . S
C1255 C1256 1.415 . S
C1256 H1232 0.950 . S
C1256 C1251 1.363 . S
C1256 C1255 1.415 . S
C1257 H1233 0.951 1_455 S
C1257 C1258 1.366 . S
C1257 C1259 1.388 . S
C1258 C1257 1.366 . S
C1258 C1262 1.385 . S
C1259 H1234 0.951 . S
C1259 C1257 1.388 . S
C1259 C1260 1.366 . S
C1260 C1259 1.366 . S
C1260 C1261 1.414 . S
C1260 C1263 1.499 . S
C1261 H1235 0.950 . S
C1261 C1260 1.414 . S
C1261 C1262 1.374 . S
C1262 H1236 0.950 . S
C1262 C1258 1.385 . S
C1262 C1261 1.374 . S
C1263 C1260 1.499 . S
C1263 C1264 1.373 . S
C1263 C1265 1.389 . S
C1264 H1237 0.950 . S
C1264 C1250 1.377 . S
C1264 C1263 1.373 . S
C1265 C1249 1.377 . S
C1265 C1263 1.389 . S
C1265 C1266 1.524 . S
C1266 C1265 1.524 . S
C1266 C1267 1.397 . S
C1266 C1271 1.363 . S
C1267 H1238 0.950 . S
C1267 C1266 1.397 . S
C1267 C1268 1.334 . S
C1268 H1239 0.950 . S
C1268 C1267 1.334 . S
C1268 C1269 1.287 . S
C1269 C1268 1.287 . S
C1269 C1270 1.524 1_455 S
C1269 H1272 0.999 1_456 S
C1270 H1240 0.950 . S
C1270 C1269 1.524 1_655 S
C1270 C1271 1.415 1_655 S
C1271 H1241 0.950 1_455 S
C1271 C1266 1.363 . S
C1271 C1270 1.415 1_455 S
H1272 C1269 0.999 1_654 S
H1273 C1254 0.913 . S
H1274 C1292 0.951 . S
H1275 C1294 0.951 . S
H1276 C1296 0.950 . S
H1277 C1297 0.950 . S
H1278 C1299 0.950 . S
H1279 C1302 0.950 . S
H1280 C1303 0.950 1_554 S
H1281 C1305 0.950 . S
H1282 C1306 0.950 . S
H1283 C1307 0.951 . S
H1284 C1309 0.951 . S
H1285 C1311 0.950 . S
H1286 C1312 0.949 1_565 S
H1287 C1314 0.950 . S
H1288 C1317 0.950 . S
H1289 C1318 0.950 . S
H1290 C1320 0.950 . S
H1291 C1321 0.950 . S
C1292 H1274 0.951 . S
C1292 C1293 1.366 . S
C1292 C1294 1.388 . S
C1293 C1292 1.366 . S
C1293 C1297 1.385 . S
C1294 H1275 0.951 . S
C1294 C1292 1.388 . S
C1294 C1295 1.366 . S
C1295 C1294 1.366 . S
C1295 C1296 1.414 . S
C1295 C1298 1.499 . S
C1296 H1276 0.950 . S
C1296 C1295 1.414 . S
C1296 C1297 1.374 . S
C1297 H1277 0.950 . S
C1297 C1293 1.385 . S
C1297 C1296 1.374 . S
C1298 C1295 1.499 . S
C1298 C1299 1.373 . S
C1298 C1300 1.389 . S
C1299 H1278 0.950 . S
C1299 C1298 1.373 . S
C1299 C1315 1.377 . S
C1300 C1298 1.389 . S
C1300 C1301 1.524 . S
C1300 C1314 1.377 . S
C1301 C1300 1.524 . S
C1301 C1302 1.397 . S
C1301 C1306 1.363 1_545 S
C1302 H1279 0.950 . S
C1302 C1301 1.397 . S
C1302 C1303 1.334 . S
C1303 H1280 0.950 1_556 S
C1303 C1302 1.334 . S
C1303 C1304 1.287 1_545 S
C1304 C1303 1.287 1_565 S
C1304 C1305 1.524 . S
C1304 H1323 0.913 1_556 S
C1305 H1281 0.950 . S
C1305 C1304 1.524 . S
C1305 C1306 1.415 . S
C1306 H1282 0.950 . S
C1306 C1301 1.363 1_565 S
C1306 C1305 1.415 . S
C1307 H1283 0.951 . S
C1307 C1308 1.366 . S
C1307 C1309 1.388 . S
C1308 C1307 1.366 . S
C1308 C1312 1.385 . S
C1309 H1284 0.951 . S
C1309 C1307 1.388 . S
C1309 C1310 1.366 . S
C1310 C1309 1.366 . S
C1310 C1311 1.414 . S
C1310 C1313 1.499 . S
C1311 H1285 0.950 . S
C1311 C1310 1.414 . S
C1311 C1312 1.374 . S
C1312 H1286 0.949 1_545 S
C1312 C1308 1.385 . S
C1312 C1311 1.374 . S
C1313 C1310 1.499 . S
C1313 C1314 1.373 . S
C1313 C1315 1.389 . S
C1314 H1287 0.950 . S
C1314 C1300 1.377 . S
C1314 C1313 1.373 . S
C1315 C1299 1.377 . S
C1315 C1313 1.389 . S
C1315 C1316 1.524 . S
C1316 C1315 1.524 . S
C1316 C1317 1.397 . S
C1316 C1321 1.363 . S
C1317 H1288 0.950 . S
C1317 C1316 1.397 . S
C1317 C1318 1.334 . S
C1318 H1289 0.950 . S
C1318 C1317 1.334 . S
C1318 C1319 1.287 . S
C1319 C1318 1.287 . S
C1319 C1320 1.524 . S
C1319 H1322 0.999 . S
C1320 H1290 0.950 . S
C1320 C1319 1.524 . S
C1320 C1321 1.415 . S
C1321 H1291 0.950 . S
C1321 C1316 1.363 . S
C1321 C1320 1.415 . S
H1322 C1319 0.999 . S
H1323 C1304 0.913 1_554 S
H1324 C1342 0.951 . S
H1325 C1344 0.951 . S
H1326 C1346 0.950 . S
H1327 C1347 0.950 . S
H1328 C1349 0.950 . S
H1329 C1352 0.950 . S
H1330 C1353 0.950 . S
H1331 C1355 0.950 . S
H1332 C1356 0.950 . S
H1333 C1357 0.951 . S
H1334 C1359 0.951 . S
H1335 C1361 0.950 . S
H1336 C1362 0.950 . S
H1337 C1364 0.950 . S
H1338 C1367 0.950 . S
H1339 C1368 0.950 . S
H1340 C1370 0.950 . S
H1341 C1371 0.950 . S
C1342 H1324 0.951 . S
C1342 C1343 1.366 . S
C1342 C1344 1.388 . S
C1343 C1342 1.366 . S
C1343 C1347 1.385 . S
C1344 H1325 0.951 . S
C1344 C1342 1.388 . S
C1344 C1345 1.366 . S
C1345 C1344 1.366 . S
C1345 C1346 1.414 . S
C1345 C1348 1.499 . S
C1346 H1326 0.950 . S
C1346 C1345 1.414 . S
C1346 C1347 1.374 . S
C1347 H1327 0.950 . S
C1347 C1343 1.385 . S
C1347 C1346 1.374 . S
C1348 C1345 1.499 . S
C1348 C1349 1.373 . S
C1348 C1350 1.389 . S
C1349 H1328 0.950 . S
C1349 C1348 1.373 . S
C1349 C1365 1.377 . S
C1350 C1348 1.389 . S
C1350 C1351 1.524 . S
C1350 C1364 1.377 . S
C1351 C1350 1.524 . S
C1351 C1352 1.397 . S
C1351 C1356 1.363 . S
C1352 H1329 0.950 . S
C1352 C1351 1.397 . S
C1352 C1353 1.334 1_556 S
C1353 H1330 0.950 . S
C1353 C1352 1.334 1_554 S
C1353 C1354 1.287 . S
C1354 C1353 1.287 . S
C1354 C1355 1.524 1_554 S
C1354 H1373 0.913 . S
C1355 H1331 0.950 . S
C1355 C1354 1.524 1_556 S
C1355 C1356 1.415 . S
C1356 H1332 0.950 . S
C1356 C1351 1.363 . S
C1356 C1355 1.415 . S
C1357 H1333 0.951 . S
C1357 C1358 1.366 . S
C1357 C1359 1.388 . S
C1358 C1357 1.366 . S
C1358 C1362 1.385 . S
C1359 H1334 0.951 . S
C1359 C1357 1.388 . S
C1359 C1360 1.366 . S
C1360 C1359 1.366 . S
C1360 C1361 1.414 . S
C1360 C1363 1.499 . S
C1361 H1335 0.950 . S
C1361 C1360 1.414 . S
C1361 C1362 1.374 . S
C1362 H1336 0.950 . S
C1362 C1358 1.385 . S
C1362 C1361 1.374 . S
C1363 C1360 1.499 . S
C1363 C1364 1.373 . S
C1363 C1365 1.389 . S
C1364 H1337 0.950 . S
C1364 C1350 1.377 . S
C1364 C1363 1.373 . S
C1365 C1349 1.377 . S
C1365 C1363 1.389 . S
C1365 C1366 1.524 . S
C1366 C1365 1.524 . S
C1366 C1367 1.397 . S
C1366 C1371 1.363 . S
C1367 H1338 0.950 . S
C1367 C1366 1.397 . S
C1367 C1368 1.334 . S
C1368 H1339 0.950 . S
C1368 C1367 1.334 . S
C1368 C1369 1.287 . S
C1369 C1368 1.287 . S
C1369 C1370 1.524 . S
C1369 H1372 0.999 . S
C1370 H1340 0.950 . S
C1370 C1369 1.524 . S
C1370 C1371 1.415 . S
C1371 H1341 0.950 . S
C1371 C1366 1.363 . S
C1371 C1370 1.415 . S
H1372 C1369 0.999 . S
H1373 C1354 0.913 . S
H1374 C1392 0.951 . S
H1375 C1394 0.951 . S
H1376 C1396 0.950 . S
H1377 C1397 0.950 . S
H1378 C1399 0.950 . S
H1379 C1402 0.950 . S
H1380 C1403 0.950 . S
H1381 C1405 0.950 . S
H1382 C1406 0.950 . S
H1383 C1407 0.951 . S
H1384 C1409 0.951 . S
H1385 C1411 0.950 . S
H1386 C1412 0.950 . S
H1387 C1414 0.950 . S
H1388 C1417 0.950 . S
H1389 C1418 0.950 . S
H1390 C1420 0.950 . S
H1391 C1421 0.950 . S
C1392 H1374 0.951 . S
C1392 C1393 1.366 . S
C1392 C1394 1.388 . S
C1393 C1392 1.366 . S
C1393 C1397 1.385 . S
C1394 H1375 0.951 . S
C1394 C1392 1.388 . S
C1394 C1395 1.366 . S
C1395 C1394 1.366 . S
C1395 C1396 1.414 . S
C1395 C1398 1.499 . S
C1396 H1376 0.950 . S
C1396 C1395 1.414 . S
C1396 C1397 1.374 . S
C1397 H1377 0.950 . S
C1397 C1393 1.385 . S
C1397 C1396 1.374 . S
C1398 C1395 1.499 . S
C1398 C1399 1.373 . S
C1398 C1400 1.389 . S
C1399 H1378 0.950 . S
C1399 C1398 1.373 . S
C1399 C1415 1.377 . S
C1400 C1398 1.389 . S
C1400 C1401 1.524 . S
C1400 C1414 1.377 . S
C1401 C1400 1.524 . S
C1401 C1402 1.397 . S
C1401 C1406 1.363 . S
C1402 H1379 0.950 . S
C1402 C1401 1.397 . S
C1402 C1403 1.334 1_556 S
C1403 H1380 0.950 . S
C1403 C1402 1.334 1_554 S
C1403 C1404 1.287 . S
C1404 C1403 1.287 . S
C1404 C1405 1.524 . S
C1404 H1423 0.913 . S
C1405 H1381 0.950 . S
C1405 C1404 1.524 . S
C1405 C1406 1.415 1_554 S
C1406 H1382 0.950 . S
C1406 C1401 1.363 . S
C1406 C1405 1.415 1_556 S
C1407 H1383 0.951 . S
C1407 C1408 1.366 . S
C1407 C1409 1.388 . S
C1408 C1407 1.366 . S
C1408 C1412 1.385 . S
C1409 H1384 0.951 . S
C1409 C1407 1.388 . S
C1409 C1410 1.366 . S
C1410 C1409 1.366 . S
C1410 C1411 1.414 . S
C1410 C1413 1.499 . S
C1411 H1385 0.950 . S
C1411 C1410 1.414 . S
C1411 C1412 1.374 . S
C1412 H1386 0.950 . S
C1412 C1408 1.385 . S
C1412 C1411 1.374 . S
C1413 C1410 1.499 . S
C1413 C1414 1.373 . S
C1413 C1415 1.389 . S
C1414 H1387 0.950 . S
C1414 C1400 1.377 . S
C1414 C1413 1.373 . S
C1415 C1399 1.377 . S
C1415 C1413 1.389 . S
C1415 C1416 1.524 . S
C1416 C1415 1.524 . S
C1416 C1417 1.397 . S
C1416 C1421 1.363 . S
C1417 H1388 0.950 . S
C1417 C1416 1.397 . S
C1417 C1418 1.334 . S
C1418 H1389 0.950 . S
C1418 C1417 1.334 . S
C1418 C1419 1.287 . S
C1419 C1418 1.287 . S
C1419 C1420 1.524 . S
C1419 H1422 0.999 . S
C1420 H1390 0.950 . S
C1420 C1419 1.524 . S
C1420 C1421 1.415 . S
C1421 H1391 0.950 . S
C1421 C1416 1.363 . S
C1421 C1420 1.415 . S
H1422 C1419 0.999 . S
H1423 C1404 0.913 . S
H1424 C1442 0.951 . S
H1425 C1444 0.951 . S
H1426 C1446 0.950 . S
H1427 C1447 0.950 . S
H1428 C1449 0.950 . S
H1429 C1452 0.950 . S
H1430 C1453 0.950 . S
H1431 C1455 0.950 . S
H1432 C1456 0.950 . S
H1433 C1457 0.951 1_455 S
H1434 C1459 0.951 1_455 S
H1435 C1461 0.950 . S
H1436 C1462 0.950 . S
H1437 C1464 0.950 . S
H1438 C1467 0.950 1_655 S
H1439 C1468 0.950 . S
H1440 C1470 0.950 . S
H1441 C1471 0.950 . S
C1442 H1424 0.951 . S
C1442 C1443 1.366 . S
C1442 C1444 1.388 . S
C1443 C1442 1.366 . S
C1443 C1447 1.385 . S
C1444 H1425 0.951 . S
C1444 C1442 1.388 . S
C1444 C1445 1.366 . S
C1445 C1444 1.366 . S
C1445 C1446 1.414 . S
C1445 C1448 1.499 . S
C1446 H1426 0.950 . S
C1446 C1445 1.414 . S
C1446 C1447 1.374 . S
C1447 H1427 0.950 . S
C1447 C1443 1.385 . S
C1447 C1446 1.374 . S
C1448 C1445 1.499 . S
C1448 C1449 1.373 . S
C1448 C1450 1.389 . S
C1449 H1428 0.950 . S
C1449 C1448 1.373 . S
C1449 C1465 1.377 . S
C1450 C1448 1.389 . S
C1450 C1451 1.524 . S
C1450 C1464 1.377 . S
C1451 C1450 1.524 . S
C1451 C1452 1.397 . S
C1451 C1456 1.363 . S
C1452 H1429 0.950 . S
C1452 C1451 1.397 . S
C1452 C1453 1.334 . S
C1453 H1430 0.950 . S
C1453 C1452 1.334 . S
C1453 C1454 1.287 . S
C1454 C1453 1.287 . S
C1454 C1455 1.524 . S
C1454 H1473 0.913 . S
C1455 H1431 0.950 . S
C1455 C1454 1.524 . S
C1455 C1456 1.415 . S
C1456 H1432 0.950 . S
C1456 C1451 1.363 . S
C1456 C1455 1.415 . S
C1457 H1433 0.951 1_655 S
C1457 C1458 1.366 . S
C1457 C1459 1.388 . S
C1458 C1457 1.366 . S
C1458 C1462 1.385 . S
C1459 H1434 0.951 1_655 S
C1459 C1457 1.388 . S
C1459 C1460 1.366 . S
C1460 C1459 1.366 . S
C1460 C1461 1.414 . S
C1460 C1463 1.499 . S
C1461 H1435 0.950 . S
C1461 C1460 1.414 . S
C1461 C1462 1.374 . S
C1462 H1436 0.950 . S
C1462 C1458 1.385 . S
C1462 C1461 1.374 . S
C1463 C1460 1.499 . S
C1463 C1464 1.373 . S
C1463 C1465 1.389 . S
C1464 H1437 0.950 . S
C1464 C1450 1.377 . S
C1464 C1463 1.373 . S
C1465 C1449 1.377 . S
C1465 C1463 1.389 . S
C1465 C1466 1.524 1_655 S
C1466 C1465 1.524 1_455 S
C1466 C1467 1.397 . S
C1466 C1471 1.363 . S
C1467 H1438 0.950 1_455 S
C1467 C1466 1.397 . S
C1467 C1468 1.334 . S
C1468 H1439 0.950 . S
C1468 C1467 1.334 . S
C1468 C1469 1.287 . S
C1469 C1468 1.287 . S
C1469 C1470 1.524 . S
C1469 H1472 0.999 . S
C1470 H1440 0.950 . S
C1470 C1469 1.524 . S
C1470 C1471 1.415 . S
C1471 H1441 0.950 . S
C1471 C1466 1.363 . S
C1471 C1470 1.415 . S
H1472 C1469 0.999 . S
H1473 C1454 0.913 . S
H1474 C1492 0.951 . S
H1475 C1494 0.951 . S
H1476 C1496 0.950 . S
H1477 C1497 0.950 . S
H1478 C1499 0.950 . S
H1479 C1502 0.950 . S
H1480 C1503 0.950 . S
H1481 C1505 0.950 . S
H1482 C1506 0.950 . S
H1483 C1507 0.951 . S
H1484 C1509 0.951 . S
H1485 C1511 0.950 . S
H1486 C1512 0.950 . S
H1487 C1514 0.950 . S
H1488 C1517 0.950 . S
H1489 C1518 0.950 . S
H1490 C1520 0.950 . S
H1491 C1521 0.950 . S
C1492 H1474 0.951 . S
C1492 C1493 1.366 . S
C1492 C1494 1.388 . S
C1493 C1492 1.366 . S
C1493 C1497 1.385 . S
C1494 H1475 0.951 . S
C1494 C1492 1.388 . S
C1494 C1495 1.366 . S
C1495 C1494 1.366 . S
C1495 C1496 1.414 . S
C1495 C1498 1.499 . S
C1496 H1476 0.950 . S
C1496 C1495 1.414 . S
C1496 C1497 1.374 . S
C1497 H1477 0.950 . S
C1497 C1493 1.385 . S
C1497 C1496 1.374 . S
C1498 C1495 1.499 . S
C1498 C1499 1.373 . S
C1498 C1500 1.389 . S
C1499 H1478 0.950 . S
C1499 C1498 1.373 . S
C1499 C1515 1.377 . S
C1500 C1498 1.389 . S
C1500 C1501 1.524 . S
C1500 C1514 1.377 . S
C1501 C1500 1.524 . S
C1501 C1502 1.397 . S
C1501 C1506 1.363 1_565 S
C1502 H1479 0.950 . S
C1502 C1501 1.397 . S
C1502 C1503 1.334 . S
C1503 H1480 0.950 . S
C1503 C1502 1.334 . S
C1503 C1504 1.287 1_565 S
C1504 C1503 1.287 1_545 S
C1504 C1505 1.524 . S
C1504 H1523 0.913 . S
C1505 H1481 0.950 . S
C1505 C1504 1.524 . S
C1505 C1506 1.415 . S
C1506 H1482 0.950 . S
C1506 C1501 1.363 1_545 S
C1506 C1505 1.415 . S
C1507 H1483 0.951 . S
C1507 C1508 1.366 . S
C1507 C1509 1.388 . S
C1508 C1507 1.366 . S
C1508 C1512 1.385 1_565 S
C1509 H1484 0.951 . S
C1509 C1507 1.388 . S
C1509 C1510 1.366 . S
C1510 C1509 1.366 . S
C1510 C1511 1.414 1_565 S
C1510 C1513 1.499 . S
C1511 H1485 0.950 . S
C1511 C1510 1.414 1_545 S
C1511 C1512 1.374 . S
C1512 H1486 0.950 . S
C1512 C1508 1.385 1_545 S
C1512 C1511 1.374 . S
C1513 C1510 1.499 . S
C1513 C1514 1.373 . S
C1513 C1515 1.389 . S
C1514 H1487 0.950 . S
C1514 C1500 1.377 . S
C1514 C1513 1.373 . S
C1515 C1499 1.377 . S
C1515 C1513 1.389 . S
C1515 C1516 1.524 . S
C1516 C1515 1.524 . S
C1516 C1517 1.397 . S
C1516 C1521 1.363 . S
C1517 H1488 0.950 . S
C1517 C1516 1.397 . S
C1517 C1518 1.334 . S
C1518 H1489 0.950 . S
C1518 C1517 1.334 . S
C1518 C1519 1.287 . S
C1519 C1518 1.287 . S
C1519 C1520 1.524 . S
C1519 H1522 0.999 . S
C1520 H1490 0.950 . S
C1520 C1519 1.524 . S
C1520 C1521 1.415 . S
C1521 H1491 0.950 . S
C1521 C1516 1.363 . S
C1521 C1520 1.415 . S
H1522 C1519 0.999 . S
H1523 C1504 0.913 . S
H1524 C1542 0.951 . S
H1525 C1544 0.951 . S
H1526 C1546 0.950 . S
H1527 C1547 0.950 . S
H1528 C1549 0.950 . S
H1529 C1552 0.950 . S
H1530 C1553 0.950 . S
H1531 C1555 0.950 . S
H1532 C1556 0.950 . S
H1533 C1557 0.951 . S
H1534 C1559 0.951 . S
H1535 C1561 0.950 . S
H1536 C1562 0.950 . S
H1537 C1564 0.950 . S
H1538 C1567 0.950 . S
H1539 C1568 0.950 . S
H1540 C1570 0.950 . S
H1541 C1571 0.950 . S
C1542 H1524 0.951 . S
C1542 C1543 1.366 . S
C1542 C1544 1.388 . S
C1543 C1542 1.366 . S
C1543 C1547 1.385 . S
C1544 H1525 0.951 . S
C1544 C1542 1.388 . S
C1544 C1545 1.366 . S
C1545 C1544 1.366 . S
C1545 C1546 1.414 . S
C1545 C1548 1.499 . S
C1546 H1526 0.950 . S
C1546 C1545 1.414 . S
C1546 C1547 1.374 . S
C1547 H1527 0.950 . S
C1547 C1543 1.385 . S
C1547 C1546 1.374 . S
C1548 C1545 1.499 . S
C1548 C1549 1.373 . S
C1548 C1550 1.389 . S
C1549 H1528 0.950 . S
C1549 C1548 1.373 . S
C1549 C1565 1.377 . S
C1550 C1548 1.389 . S
C1550 C1551 1.524 . S
C1550 C1564 1.377 . S
C1551 C1550 1.524 . S
C1551 C1552 1.397 . S
C1551 C1556 1.363 . S
C1552 H1529 0.950 . S
C1552 C1551 1.397 . S
C1552 C1553 1.334 . S
C1553 H1530 0.950 . S
C1553 C1552 1.334 . S
C1553 C1554 1.287 . S
C1554 C1553 1.287 . S
C1554 C1555 1.524 . S
C1554 H1573 0.913 . S
C1555 H1531 0.950 . S
C1555 C1554 1.524 . S
C1555 C1556 1.415 . S
C1556 H1532 0.950 . S
C1556 C1551 1.363 . S
C1556 C1555 1.415 . S
C1557 H1533 0.951 . S
C1557 C1558 1.366 . S
C1557 C1559 1.388 . S
C1558 C1557 1.366 . S
C1558 C1562 1.385 . S
C1559 H1534 0.951 . S
C1559 C1557 1.388 . S
C1559 C1560 1.366 . S
C1560 C1559 1.366 . S
C1560 C1561 1.414 . S
C1560 C1563 1.499 . S
C1561 H1535 0.950 . S
C1561 C1560 1.414 . S
C1561 C1562 1.374 . S
C1562 H1536 0.950 . S
C1562 C1558 1.385 . S
C1562 C1561 1.374 . S
C1563 C1560 1.499 . S
C1563 C1564 1.373 . S
C1563 C1565 1.389 . S
C1564 H1537 0.950 . S
C1564 C1550 1.377 . S
C1564 C1563 1.373 . S
C1565 C1549 1.377 . S
C1565 C1563 1.389 . S
C1565 C1566 1.524 . S
C1566 C1565 1.524 . S
C1566 C1567 1.397 . S
C1566 C1571 1.363 . S
C1567 H1538 0.950 . S
C1567 C1566 1.397 . S
C1567 C1568 1.334 . S
C1568 H1539 0.950 . S
C1568 C1567 1.334 . S
C1568 C1569 1.287 . S
C1569 C1568 1.287 . S
C1569 C1570 1.524 . S
C1569 H1572 0.999 . S
C1570 H1540 0.950 . S
C1570 C1569 1.524 . S
C1570 C1571 1.415 . S
C1571 H1541 0.950 . S
C1571 C1566 1.363 . S
C1571 C1570 1.415 . S
H1572 C1569 0.999 . S
H1573 C1554 0.913 . S
H1574 C1592 0.951 . S
H1575 C1594 0.951 . S
H1576 C1596 0.950 . S
H1577 C1597 0.950 . S
H1578 C1599 0.950 . S
H1579 C1602 0.950 . S
H1580 C1603 0.950 . S
H1581 C1605 0.950 . S
H1582 C1606 0.950 . S
H1583 C1607 0.951 . S
H1584 C1609 0.951 . S
H1585 C1611 0.950 . S
H1586 C1612 0.950 . S
H1587 C1614 0.950 . S
H1588 C1617 0.950 . S
H1589 C1618 0.950 . S
H1590 C1620 0.950 . S
H1591 C1621 0.950 . S
C1592 H1574 0.951 . S
C1592 C1593 1.366 . S
C1592 C1594 1.388 . S
C1593 C1592 1.366 . S
C1593 C1597 1.385 . S
C1594 H1575 0.951 . S
C1594 C1592 1.388 . S
C1594 C1595 1.366 . S
C1595 C1594 1.366 . S
C1595 C1596 1.414 . S
C1595 C1598 1.499 . S
C1596 H1576 0.950 . S
C1596 C1595 1.414 . S
C1596 C1597 1.374 . S
C1597 H1577 0.950 . S
C1597 C1593 1.385 . S
C1597 C1596 1.374 . S
C1598 C1595 1.499 . S
C1598 C1599 1.373 . S
C1598 C1600 1.389 . S
C1599 H1578 0.950 . S
C1599 C1598 1.373 . S
C1599 C1615 1.377 . S
C1600 C1598 1.389 . S
C1600 C1601 1.524 . S
C1600 C1614 1.377 . S
C1601 C1600 1.524 . S
C1601 C1602 1.397 . S
C1601 C1606 1.363 . S
C1602 H1579 0.950 . S
C1602 C1601 1.397 . S
C1602 C1603 1.334 . S
C1603 H1580 0.950 . S
C1603 C1602 1.334 . S
C1603 C1604 1.287 . S
C1604 C1603 1.287 . S
C1604 C1605 1.524 . S
C1604 H1623 0.913 . S
C1605 H1581 0.950 . S
C1605 C1604 1.524 . S
C1605 C1606 1.415 . S
C1606 H1582 0.950 . S
C1606 C1601 1.363 . S
C1606 C1605 1.415 . S
C1607 H1583 0.951 . S
C1607 C1608 1.366 . S
C1607 C1609 1.388 . S
C1608 C1607 1.366 . S
C1608 C1612 1.385 . S
C1609 H1584 0.951 . S
C1609 C1607 1.388 . S
C1609 C1610 1.366 . S
C1610 C1609 1.366 . S
C1610 C1611 1.414 . S
C1610 C1613 1.499 . S
C1611 H1585 0.950 . S
C1611 C1610 1.414 . S
C1611 C1612 1.374 . S
C1612 H1586 0.950 . S
C1612 C1608 1.385 . S
C1612 C1611 1.374 . S
C1613 C1610 1.499 . S
C1613 C1614 1.373 . S
C1613 C1615 1.389 . S
C1614 H1587 0.950 . S
C1614 C1600 1.377 . S
C1614 C1613 1.373 . S
C1615 C1599 1.377 . S
C1615 C1613 1.389 . S
C1615 C1616 1.524 . S
C1616 C1615 1.524 . S
C1616 C1617 1.397 . S
C1616 C1621 1.363 . S
C1617 H1588 0.950 . S
C1617 C1616 1.397 . S
C1617 C1618 1.334 . S
C1618 H1589 0.950 . S
C1618 C1617 1.334 . S
C1618 C1619 1.287 . S
C1619 C1618 1.287 . S
C1619 C1620 1.524 . S
C1619 H1622 0.999 . S
C1620 H1590 0.950 . S
C1620 C1619 1.524 . S
C1620 C1621 1.415 . S
C1621 H1591 0.950 . S
C1621 C1616 1.363 . S
C1621 C1620 1.415 . S
H1622 C1619 0.999 . S
H1623 C1604 0.913 . S
C443 C76 1.799 . S
C458 C162 1.847 . S
C508 C246 1.879 . S
C493 C87 1.829 . S
C558 C312 1.903 . S
C543 C54 1.947 . S
C608 C396 1.875 . S
C593 C65 1.920 . S
C658 C151 1.848 1_565 S
C643 C32 1.807 . S
C693 C43 1.839 . S
C708 C235 1.880 . S
C743 C10 1.957 . S
C758 C323 1.903 . S
C793 C21 1.928 . S
C808 C407 1.874 . S
C858 C158 0.509 1_455 S
C843 C60 0.489 . S
C908 C242 0.566 . S
C893 C71 0.457 . S
C958 C314 0.504 . S
C943 C82 0.437 . S
C993 C49 0.464 . S
C1008 C398 0.515 . S
C1043 C16 0.499 . S
C1058 C146 0.528 . S
C1108 C230 0.509 . S
C1093 C27 0.473 . S
C1158 C326 0.500 . S
C1143 C38 0.456 . S
C1193 C5 0.481 . S
C1208 C410 0.511 . S
C1243 C59 1.954 . S
C1258 C155 2.001 . S
C1293 C70 1.916 . S
C1308 C239 1.962 . S
C1358 C319 1.940 . S
C1343 C81 1.810 . S
C1408 C403 1.975 . S
C1393 C48 1.843 . S
C1443 C15 1.942 . S
C1458 C144 2.001 . S
C1508 C228 1.958 1_565 S
C1493 C26 1.904 . S
C1558 C330 1.939 . S
C1543 C37 1.798 . S
C1593 C4 1.830 . S
C1608 C414 1.976 . S
