# Generated by pormake.
# Topology rtl, (3,6)-cn, num edge types: 1
# Building blocks:
#     Node 0, Type 0, BuildingBlock: BETDAH_clean_linker_0, # of connection points: 3
#     Node 1, Type 0, BuildingBlock: BETDAH_clean_linker_0, # of connection points: 3
#     Node 2, Type 0, BuildingBlock: BETDAH_clean_linker_0, # of connection points: 3
#     Node 3, Type 0, BuildingBlock: BETDAH_clean_linker_0, # of connection points: 3
#     Node 4, Type 1, BuildingBlock: KUMJIN_clean_sbu_1, # of connection points: 6
#     Node 5, Type 1, BuildingBlock: KUMJIN_clean_sbu_1, # of connection points: 6
#     Edge 6, Type (0, 1), BuildingBlock: CIFDUS_clean_linker_0, # of connection points: 2
#     Edge 7, Type (0, 1), BuildingBlock: CIFDUS_clean_linker_0, # of connection points: 2
#     Edge 8, Type (0, 1), BuildingBlock: CIFDUS_clean_linker_0, # of connection points: 2
#     Edge 9, Type (0, 1), BuildingBlock: CIFDUS_clean_linker_0, # of connection points: 2
#     Edge 10, Type (0, 1), BuildingBlock: CIFDUS_clean_linker_0, # of connection points: 2
#     Edge 11, Type (0, 1), BuildingBlock: CIFDUS_clean_linker_0, # of connection points: 2
#     Edge 12, Type (0, 1), BuildingBlock: CIFDUS_clean_linker_0, # of connection points: 2
#     Edge 13, Type (0, 1), BuildingBlock: CIFDUS_clean_linker_0, # of connection points: 2
#     Edge 14, Type (0, 1), BuildingBlock: CIFDUS_clean_linker_0, # of connection points: 2
#     Edge 15, Type (0, 1), BuildingBlock: CIFDUS_clean_linker_0, # of connection points: 2
#     Edge 16, Type (0, 1), BuildingBlock: CIFDUS_clean_linker_0, # of connection points: 2
#     Edge 17, Type (0, 1), BuildingBlock: CIFDUS_clean_linker_0, # of connection points: 2
# Relax obj value: 0.049
# Max RMSD: 0.226
# Mean RMSD: 0.161
data_MOF--net-rtl--node1-KUMJIN_clean_sbu_1--node2-BETDAH_clean_linker_0--edge1-CIFDUS_clean_linker_0
_symmetry_space_group_name_H-M    P1
_symmetry_Int_Tables_number       1
_symmetry_cell_setting            triclinic
loop_
_symmetry_equiv_pos_as_xyz
'x, y, z'
_cell_length_a     31.046878
_cell_length_b     31.269431
_cell_length_c     24.133838
_cell_angle_alpha  76.878036
_cell_angle_beta   100.56402
_cell_angle_gamma 90.917518
loop_
_atom_site_label
_atom_site_type_symbol
_atom_site_fract_x
_atom_site_fract_y
_atom_site_fract_z
_atom_type_partial_charge
H0 H 0.12193 0.88372 0.9789 0.0
H1 H 0.22375 0.82784 0.12254 0.0
H2 H 0.22341 0.80191 0.95434 0.0
C3 C 0.15149 0.86348 0.9967 0.0
C4 C 0.17028 0.84326 0.96039 0.0
C5 C 0.17056 0.85869 0.05504 0.0
C6 C 0.20848 0.83188 0.07746 0.0
C7 C 0.2276 0.81084 0.04184 0.0
C8 C 0.20861 0.81703 0.98272 0.0
N9 N 0.26632 0.78475 0.06718 0.0
C10 C 0.28685 0.75745 0.04108 0.0
H11 H 0.6515 0.63395 0.66124 0.0
H12 H 0.73735 0.73675 0.60137 0.0
H13 H 0.68019 0.73861 0.75029 0.0
C14 C 0.66828 0.664 0.66565 0.0
C15 C 0.66307 0.68372 0.71095 0.0
C16 C 0.69496 0.68318 0.62586 0.0
C17 C 0.71702 0.7219 0.63222 0.0
C18 C 0.71151 0.74217 0.67691 0.0
C19 C 0.68428 0.72306 0.71567 0.0
N20 N 0.73221 0.78197 0.68394 0.0
C21 C 0.76358 0.80247 0.65314 0.0
H22 H 0.88563 0.11986 0.12229 0.0
H23 H 0.81007 0.21729 0.16625 0.0
H24 H 0.83235 0.23403 0.99228 0.0
C25 C 0.86543 0.14969 0.10885 0.0
C26 C 0.86062 0.17439 0.05158 0.0
C27 C 0.84739 0.16481 0.15041 0.0
C28 C 0.82298 0.20475 0.13409 0.0
C29 C 0.81737 0.22944 0.07661 0.0
C30 C 0.83647 0.21429 0.03615 0.0
N31 N 0.79686 0.27179 0.05907 0.0
C32 C 0.75899 0.28391 0.07542 0.0
H33 H 0.38139 0.39548 0.4488 0.0
H34 H 0.3144 0.27791 0.51526 0.0
H35 H 0.33838 0.30468 0.3417 0.0
C36 C 0.3657 0.36514 0.4433 0.0
C37 C 0.36135 0.35366 0.38951 0.0
C38 C 0.34854 0.33827 0.48923 0.0
C39 C 0.3269 0.29955 0.4803 0.0
C40 C 0.32338 0.28762 0.42697 0.0
C41 C 0.34084 0.31453 0.38244 0.0
N42 N 0.30479 0.24775 0.41677 0.0
C43 C 0.27304 0.22432 0.44392 0.0
Eu44 Eu 0.04001 0.97929 0.51912 0.0
C45 C 0.91799 0.12739 0.52458 0.0
N46 N 0.96144 0.12489 0.54725 0.0
C47 C 0.96915 0.20021 0.50106 0.0
C48 C 0.89864 0.16618 0.48672 0.0
C49 C 0.98694 0.16081 0.53791 0.0
C50 C 0.92495 0.20272 0.47462 0.0
C51 C 0.84711 0.09354 0.5199 0.0
C52 C 0.8927 0.09144 0.54093 0.0
C53 C 0.82799 0.13122 0.47965 0.0
C54 C 0.8537 0.16751 0.46317 0.0
Eu55 Eu 0.9897 0.05709 0.60672 0.0
N56 N 0.91212 0.05576 0.58059 0.0
C57 C 0.82184 0.05846 0.54177 0.0
C58 C 0.88696 0.02376 0.60624 0.0
C59 C 0.84175 0.02388 0.58608 0.0
H60 H 0.02117 0.15863 0.55806 0.0
H61 H 0.8222 0.99766 0.60539 0.0
H62 H 0.96927 0.89549 0.51356 0.0
H63 H 0.21653 0.96327 0.59815 0.0
H64 H 0.90143 0.99821 0.64278 0.0
H65 H 0.78673 0.05876 0.52671 0.0
H66 H 0.14717 0.99876 0.53843 0.0
H67 H 0.98957 0.22847 0.49274 0.0
H68 H 0.79312 0.13318 0.46248 0.0
H69 H 0.83832 0.1968 0.43334 0.0
H70 H 0.96231 0.81972 0.56859 0.0
H71 H 0.91131 0.23317 0.44581 0.0
H72 H 0.21528 0.89004 0.66392 0.0
N73 N 0.03193 0.90405 0.56251 0.0
C74 C 0.06741 0.88348 0.60024 0.0
C75 C 0.99184 0.83749 0.57863 0.0
C76 C 0.06552 0.83972 0.63148 0.0
C77 C 0.99565 0.88071 0.54816 0.0
C78 C 0.02655 0.81724 0.62156 0.0
N79 N 0.10781 0.94631 0.57121 0.0
C80 C 0.14674 0.96658 0.56669 0.0
C81 C 0.14523 0.88364 0.639 0.0
C82 C 0.10678 0.90498 0.60391 0.0
C83 C 0.18499 0.90532 0.63758 0.0
C84 C 0.18584 0.94665 0.60047 0.0
H85 H 0.0237 0.78362 0.64471 0.0
H86 H 0.10204 0.7859 0.69459 0.0
H87 H 0.1719 0.82448 0.70129 0.0
O88 O 0.061 0.00684 0.43713 0.0
O89 O 0.07636 0.99139 0.60463 0.0
O90 O 0.02241 0.99201 0.65664 0.0
O91 O 0.0491 0.93756 0.46037 0.0
O92 O 0.07006 0.04706 0.5121 0.0
O93 O 0.05731 0.07769 0.58794 0.0
O94 O 0.95918 0.07759 0.67164 0.0
O95 O 0.98957 0.0782 0.51006 0.0
O96 O 0.97507 0.01519 0.47838 0.0
O97 O 0.02848 0.08571 0.6737 0.0
O98 O 0.97262 0.98507 0.6217 0.0
O99 O 0.96919 0.96846 0.53293 0.0
C100 C 0.06187 0.98002 0.65326 0.0
C101 C 0.04133 0.97036 0.36078 0.0
C102 C 0.04845 0.94939 0.27142 0.0
C103 C 1.00936 0.97316 0.24359 0.0
C104 C 1.00222 0.9936 0.33266 0.0
C105 C 0.98633 0.99493 0.27422 0.0
C106 C 0.06409 0.9481 0.33024 0.0
C107 C 0.07844 0.07561 0.54559 0.0
C108 C 0.05999 0.96968 0.42138 0.0
C109 C 0.10306 0.81925 0.6695 0.0
C110 C 0.14288 0.84115 0.67319 0.0
C111 C 0.97028 0.05787 0.47064 0.0
C112 C 1.00425 0.06611 0.76344 0.0
C113 C 0.98487 0.05922 0.85869 0.0
C114 C 0.01491 0.02357 0.88095 0.0
C115 C 0.03411 0.03045 0.78659 0.0
C116 C 0.97989 0.08047 0.79973 0.0
C117 C 0.03942 0.00944 0.84506 0.0
C118 C 0.95684 0.96211 0.5835 0.0
C119 C 0.99617 0.0868 0.70104 0.0
H120 H 0.99641 0.97455 0.19835 0.0
H121 H 0.9843 0.01086 0.35573 0.0
H122 H 0.95619 0.01301 0.25255 0.0
H123 H 0.09458 0.93057 0.35205 0.0
H124 H 0.01974 0.00687 0.92625 0.0
H125 H 0.05307 0.01858 0.75948 0.0
H126 H 0.95627 0.10746 0.78167 0.0
H127 H 0.06246 0.98196 0.86257 0.0
Eu128 Eu 0.47855 0.49036 1.00272 0.0
C129 C 0.63125 0.60899 0.03814 0.0
N130 N 0.62966 0.56824 0.0723 0.0
C131 C 0.70158 0.55039 0.06028 0.0
C132 C 0.6678 0.62149 0.01167 0.0
C133 C 0.66442 0.5393 0.08506 0.0
C134 C 0.70311 0.5915 0.02295 0.0
C135 C 0.59669 0.68056 0.99398 0.0
C136 C 0.59589 0.63793 0.02914 0.0
C137 C 0.63243 0.69275 0.96605 0.0
C138 C 0.6679 0.66329 0.97488 0.0
Eu139 Eu 0.5651 0.55079 0.10987 0.0
N140 N 0.56151 0.62499 0.05629 0.0
C141 C 0.56204 0.71005 0.98901 0.0
C142 C 0.52966 0.65492 0.05547 0.0
C143 C 0.52885 0.69742 0.02082 0.0
H144 H 0.6629 0.50745 0.11354 0.0
H145 H 0.50292 0.72062 0.01934 0.0
H146 H 0.39414 0.56277 0.94367 0.0
H147 H 0.47587 0.31885 0.11924 0.0
H148 H 0.50513 0.64676 0.08222 0.0
H149 H 0.56145 0.74309 0.96247 0.0
H150 H 0.5087 0.3857 0.06892 0.0
H151 H 0.72888 0.52716 0.06969 0.0
H152 H 0.63332 0.72517 0.93834 0.0
H153 H 0.69545 0.67334 0.95358 0.0
H154 H 0.31581 0.56975 0.94745 0.0
H155 H 0.73179 0.59988 1.00341 0.0
H156 H 0.39801 0.32044 0.12904 0.0
N157 N 0.4028 0.4996 1.00104 0.0
C158 C 0.38279 0.46455 0.02932 0.0
C159 C 0.33434 0.54014 0.97116 0.0
C160 C 0.33769 0.46655 0.03103 0.0
C161 C 0.37893 0.53634 0.96992 0.0
C162 C 0.31371 0.50529 1.00241 0.0
N163 N 0.45048 0.42502 0.05288 0.0
C164 C 0.47486 0.38674 0.0737 0.0
C165 C 0.38698 0.38853 0.08316 0.0
C166 C 0.40709 0.42597 0.05516 0.0
C167 C 0.4123 0.34986 0.10717 0.0
C168 C 0.4563 0.34885 0.10188 0.0
H169 H 0.27905 0.50818 1.00288 0.0
H170 H 0.28325 0.43073 0.06216 0.0
H171 H 0.32638 0.36243 0.10769 0.0
O172 O 0.50102 0.45545 0.94336 0.0
O173 O 0.48274 0.46526 0.10055 0.0
O174 O 0.50701 0.52096 0.14709 0.0
O175 O 0.43786 0.48816 0.91923 0.0
O176 O 0.5472 0.45901 0.03543 0.0
O177 O 0.5759 0.47704 0.12354 0.0
O178 O 0.57911 0.59089 0.17367 0.0
O179 O 0.57894 0.53735 0.02603 0.0
O180 O 0.51268 0.55246 0.96678 0.0
O181 O 0.61025 0.52674 0.19234 0.0
O182 O 0.49297 0.56997 0.09332 0.0
O183 O 0.46833 0.56286 1.00012 0.0
C184 C 0.48774 0.48348 0.14541 0.0
C185 C 0.44498 0.42501 0.88357 0.0
C186 C 0.4175 0.38991 0.80327 0.0
C187 C 0.40333 0.35472 0.84289 0.0
C188 C 0.42991 0.38965 0.92161 0.0
C189 C 0.40952 0.35469 0.90151 0.0
C190 C 0.43885 0.42498 0.82415 0.0
C191 C 0.57456 0.45194 0.08592 0.0
C192 C 0.46478 0.46285 0.90522 0.0
C193 C 0.31778 0.42968 0.06013 0.0
C194 C 0.34232 0.39074 0.08597 0.0
C195 C 0.55548 0.55365 0.97484 0.0
C196 C 0.64466 0.57957 0.24227 0.0
C197 C 0.67701 0.60876 0.32617 0.0
C198 C 0.71432 0.61984 0.3008 0.0
C199 C 0.68195 0.59099 0.21778 0.0
C200 C 0.64262 0.58785 0.29655 0.0
C201 C 0.71678 0.61068 0.24731 0.0
C202 C 0.46327 0.57735 0.04558 0.0
C203 C 0.60582 0.56214 0.21085 0.0
H204 H 0.38767 0.32689 0.82861 0.0
H205 H 0.43343 0.38907 0.9668 0.0
H206 H 0.39824 0.32754 0.93151 0.0
H207 H 0.44971 0.45254 0.79425 0.0
H208 H 0.74118 0.63668 0.32133 0.0
H209 H 0.68387 0.58538 0.17569 0.0
H210 H 0.61371 0.57838 0.31518 0.0
H211 H 0.74546 0.61976 0.2281 0.0
H212 H 0.226 0.21907 0.53016 0.0
H213 H 0.24336 0.16293 0.3881 0.0
H214 H 0.18458 0.11183 0.40665 0.0
H215 H 0.1283 0.08336 0.46238 0.0
H216 H 0.10946 0.13853 0.60509 0.0
H217 H 0.16854 0.18954 0.5873 0.0
C218 C 0.21679 0.19545 0.50366 0.0
C219 C 0.23875 0.19433 0.45803 0.0
C220 C 0.18272 0.16608 0.51458 0.0
C221 C 0.22678 0.16399 0.4236 0.0
C222 C 0.19319 0.13486 0.43412 0.0
C223 C 0.13695 0.10645 0.48978 0.0
C224 C 0.11423 0.10692 0.53501 0.0
C225 C 0.1709 0.13564 0.47939 0.0
C226 C 0.1262 0.1373 0.56984 0.0
C227 C 0.16008 0.16655 0.55975 0.0
H228 H 0.3095 0.67704 0.10365 0.0
H229 H 0.32521 0.76835 0.94636 0.0
H230 H 0.37882 0.71779 0.92953 0.0
H231 H 0.42638 0.65007 0.96537 0.0
H232 H 0.41252 0.56205 0.12636 0.0
H233 H 0.35276 0.60811 0.13579 0.0
C234 C 0.32413 0.68535 0.06516 0.0
C235 C 0.31355 0.72589 0.02605 0.0
C236 C 0.35543 0.65668 0.05675 0.0
C237 C 0.33287 0.73695 0.9767 0.0
C238 C 0.36359 0.70816 0.96731 0.0
C239 C 0.40955 0.6408 1.00176 0.0
C240 C 0.42363 0.60289 0.0452 0.0
C241 C 0.37587 0.66828 0.00775 0.0
C242 C 0.40222 0.59128 0.09267 0.0
C243 C 0.36812 0.61758 0.0981 0.0
H244 H 0.84081 0.81965 0.71076 0.0
H245 H 0.76159 0.84223 0.54023 0.0
H246 H 0.81681 0.89157 0.5011 0.0
H247 H 0.88564 0.93271 0.51785 0.0
H248 H 0.9616 0.91128 0.69075 0.0
H249 H 0.91038 0.8569 0.72641 0.0
C250 C 0.83609 0.83495 0.66488 0.0
C251 C 0.79768 0.82751 0.62819 0.0
C252 C 0.86744 0.86364 0.64326 0.0
C253 C 0.79131 0.84756 0.569 0.0
C254 C 0.82276 0.87582 0.54679 0.0
C255 C 0.89113 0.91554 0.56304 0.0
C256 C 0.92732 0.92603 0.60165 0.0
C257 C 0.86069 0.88476 0.58375 0.0
C258 C 0.93393 0.90393 0.66026 0.0
C259 C 0.9046 0.87282 0.68076 0.0
H260 H 0.74542 0.32982 0.15313 0.0
H261 H 0.68279 0.28578 1.0022 0.0
H262 H 0.6179 0.33191 0.99407 0.0
H263 H 0.58228 0.39008 0.02424 0.0
H264 H 0.64468 0.43407 0.17599 0.0
H265 H 0.7059 0.3826 0.18968 0.0
C266 C 0.71702 0.32965 0.11946 0.0
C267 C 0.71838 0.30441 0.07855 0.0
C268 C 0.68005 0.35671 0.1147 0.0
C269 C 0.68197 0.30471 0.03448 0.0
C270 C 0.64507 0.33131 0.02959 0.0
C271 C 0.60898 0.38818 0.06072 0.0
C272 C 0.60899 0.41669 0.09831 0.0
C273 C 0.64421 0.35833 0.06855 0.0
C274 C 0.64378 0.41307 0.14579 0.0
C275 C 0.67898 0.38357 0.15375 0.0
H276 H 0.15481 0.82734 0.16462 0.0
H277 H 0.14132 0.94393 0.02629 0.0
H278 H 0.10201 0.9819 0.08041 0.0
H279 H 0.06967 0.98166 0.16587 0.0
H280 H 0.08368 0.86594 0.30528 0.0
H281 H 0.12492 0.82822 0.25241 0.0
C282 C 0.14379 0.86123 0.14677 0.0
C283 C 0.15061 0.88255 0.09124 0.0
C284 C 0.12109 0.88302 0.17821 0.0
C285 C 0.13586 0.92646 0.06853 0.0
C286 C 0.11345 0.94829 0.09949 0.0
C287 C 0.08153 0.94809 0.18446 0.0
C288 C 0.07339 0.92653 0.23917 0.0
C289 C 0.10535 0.92673 0.15399 0.0
C290 C 0.08967 0.8833 0.26326 0.0
C291 C 0.11317 0.86169 0.23302 0.0
H292 H 0.68062 0.60804 0.7928 0.0
H293 H 0.58582 0.71478 0.7264 0.0
H294 H 0.54227 0.68276 0.80014 0.0
H295 H 0.53233 0.62498 0.88563 0.0
H296 H 0.63069 0.52166 0.95614 0.0
H297 H 0.67166 0.55145 0.87926 0.0
C298 C 0.65019 0.62391 0.79435 0.0
C299 C 0.63598 0.66327 0.75403 0.0
C300 C 0.62606 0.6059 0.83775 0.0
C301 C 0.59704 0.68422 0.7569 0.0
C302 C 0.57225 0.66596 0.79903 0.0
C303 C 0.5624 0.60877 0.88344 0.0
C304 C 0.57821 0.57088 0.92588 0.0
C305 C 0.58648 0.62684 0.83987 0.0
C306 C 0.61778 0.55073 0.92367 0.0
C307 C 0.64125 0.56777 0.87977 0.0
H308 H 0.89473 0.19491 0.23827 0.0
H309 H 0.82939 0.08031 0.19789 0.0
H310 H 0.86013 0.03693 0.29497 0.0
H311 H 0.90971 0.03073 0.38922 0.0
H312 H 0.98079 0.1442 0.42417 0.0
H313 H 0.94345 0.18895 0.3323 0.0
C314 C 0.88642 0.16072 0.25145 0.0
C315 C 0.85931 0.1409 0.21172 0.0
C316 C 0.90559 0.13571 0.30631 0.0
C317 C 0.84973 0.09626 0.22834 0.0
C318 C 0.86757 0.07145 0.28357 0.0
C319 C 0.91694 0.06526 0.37665 0.0
C320 C 0.94747 0.08424 0.4141 0.0
C321 C 0.89631 0.09061 0.32254 0.0
C322 C 0.95661 0.12898 0.39703 0.0
C323 C 0.93551 0.15459 0.34415 0.0
H324 H 0.41988 0.37282 0.54757 0.0
H325 H 0.28808 0.33095 0.56002 0.0
H326 H 0.29702 0.34593 0.65625 0.0
H327 H 0.34301 0.36778 0.73859 0.0
H328 H 0.47482 0.40953 0.72752 0.0
H329 H 0.46453 0.39931 0.62826 0.0
C330 C 0.39285 0.36757 0.57091 0.0
C331 C 0.35348 0.35024 0.54655 0.0
C332 C 0.39813 0.37645 0.62643 0.0
C333 C 0.31905 0.34333 0.57795 0.0
C334 C 0.32401 0.35218 0.63293 0.0
C335 C 0.36952 0.37471 0.71445 0.0
C336 C 0.40982 0.38894 0.74074 0.0
C337 C 0.36358 0.36812 0.6579 0.0
C338 C 0.44344 0.39872 0.70833 0.0
C339 C 0.43767 0.39253 0.65171 0.0
H340 H 0.62928 0.67043 0.54117 0.0
H341 H 0.76906 0.65472 0.59841 0.0
H342 H 0.7758 0.62787 0.5124 0.0
H343 H 0.74199 0.61105 0.41963 0.0
H344 H 0.60274 0.63448 0.35817 0.0
H345 H 0.5957 0.655 0.44739 0.0
C346 C 0.66108 0.6606 0.53493 0.0
C347 C 0.69859 0.6641 0.576 0.0
C348 C 0.66479 0.64652 0.48462 0.0
C349 C 0.73978 0.65209 0.56725 0.0
C350 C 0.7436 0.63685 0.51811 0.0
C351 C 0.7101 0.62102 0.42526 0.0
C352 C 0.67299 0.62071 0.38175 0.0
C353 C 0.70636 0.63443 0.4761 0.0
C354 C 0.6319 0.63316 0.39096 0.0
C355 C 0.62779 0.64544 0.44195 0.0
H356 H 0.87083 0.09089 0.03812 0.0
H357 H 0.90208 0.22541 0.97001 0.0
H358 H 0.94124 0.2019 0.9029 0.0
H359 H 0.96949 0.14294 0.86609 0.0
H360 H 0.94121 0.00823 0.93702 0.0
H361 H 0.89908 0.03194 1.00141 0.0
C362 C 0.88643 0.11509 0.0089 0.0
C363 C 0.88321 0.15992 0.00921 0.0
C364 C 0.90987 0.10128 0.97121 0.0
C365 C 0.90316 0.19078 0.97023 0.0
C366 C 0.926 0.17734 0.93208 0.0
C367 C 0.95376 0.11884 0.89529 0.0
C368 C 0.95854 0.07391 0.89685 0.0
C369 C 0.92982 0.13267 0.93245 0.0
C370 C 0.93844 0.04299 0.93546 0.0
C371 C 0.91418 0.05653 0.97209 0.0
H372 H 0.44261 0.3881 0.38747 0.0
H373 H 0.3165 0.38202 0.27972 0.0
H374 H 0.34411 0.42231 0.19481 0.0
H375 H 0.40467 0.45761 0.1506 0.0
H376 H 0.53135 0.46262 0.25642 0.0
H377 H 0.50306 0.42531 0.34289 0.0
C378 C 0.42116 0.39611 0.34547 0.0
C379 C 0.37766 0.38198 0.33979 0.0
C380 C 0.4375 0.41871 0.29646 0.0
C381 C 0.35023 0.39225 0.28503 0.0
C382 C 0.36599 0.41519 0.23644 0.0
C383 C 0.42626 0.44936 0.19226 0.0
C384 C 0.47027 0.46124 0.19703 0.0
C385 C 0.40974 0.42791 0.24144 0.0
C386 C 0.49741 0.45306 0.25187 0.0
C387 C 0.48125 0.43179 0.30119 0.0
H388 H 0.20241 0.89369 0.87155 0.0
H389 H 0.09106 0.81768 0.91329 0.0
H390 H 0.04743 0.85239 0.81898 0.0
H391 H 0.0384 0.9115 0.73085 0.0
H392 H 0.14895 0.98889 0.68931 0.0
H393 H 0.1957 0.94683 0.77725 0.0
C394 C 0.16914 0.88366 0.85883 0.0
C395 C 0.1499 0.85303 0.89859 0.0
C396 C 0.14388 0.90494 0.80545 0.0
C397 C 0.10648 0.84083 0.88267 0.0
C398 C 0.08143 0.86109 0.82924 0.0
C399 C 0.07273 0.91895 0.74121 0.0
C400 C 0.09023 0.95349 0.70468 0.0
C401 C 0.09926 0.89448 0.79141 0.0
C402 C 0.13491 0.9625 0.71741 0.0
C403 C 0.16157 0.93845 0.7675 0.0
loop_
_geom_bond_atom_site_label_1
_geom_bond_atom_site_label_2
_geom_bond_distance
_geom_bond_site_symmetry_2
_ccdc_geom_bond_type
H0 C3 0.929 . S
H1 C6 0.929 . S
H2 C8 0.930 . S
C3 H0 0.929 . S
C3 C4 1.398 1_554 S
C3 C5 1.396 . S
C4 C3 1.398 1_556 S
C4 C8 1.407 . S
C5 C3 1.396 . S
C5 C6 1.394 . S
C6 H1 0.929 . S
C6 C5 1.394 . S
C6 C7 1.382 . S
C7 C6 1.382 . S
C7 C8 1.392 1_554 S
C7 N9 1.420 . S
C8 H2 0.930 . S
C8 C4 1.407 . S
C8 C7 1.392 1_556 S
N9 C7 1.420 . S
N9 C10 1.244 . S
C10 N9 1.244 . S
H11 C14 0.929 . S
H12 C17 0.929 . S
H13 C19 0.930 . S
C14 H11 0.929 . S
C14 C15 1.398 . S
C14 C16 1.396 . S
C15 C14 1.398 . S
C15 C19 1.407 . S
C16 C14 1.396 . S
C16 C17 1.394 . S
C17 H12 0.929 . S
C17 C16 1.394 . S
C17 C18 1.382 . S
C18 C17 1.382 . S
C18 C19 1.392 . S
C18 N20 1.420 . S
C19 H13 0.930 . S
C19 C15 1.407 . S
C19 C18 1.392 . S
N20 C18 1.420 . S
N20 C21 1.244 . S
C21 N20 1.244 . S
H22 C25 0.929 . S
H23 C28 0.929 . S
H24 C30 0.930 1_556 S
C25 H22 0.929 . S
C25 C26 1.398 . S
C25 C27 1.396 . S
C26 C25 1.398 . S
C26 C30 1.407 . S
C27 C25 1.396 . S
C27 C28 1.394 . S
C28 H23 0.929 . S
C28 C27 1.394 . S
C28 C29 1.382 . S
C29 C28 1.382 . S
C29 C30 1.392 . S
C29 N31 1.420 . S
C30 H24 0.930 1_554 S
C30 C26 1.407 . S
C30 C29 1.392 . S
N31 C29 1.420 . S
N31 C32 1.244 . S
C32 N31 1.244 . S
H33 C36 0.929 . S
H34 C39 0.929 . S
H35 C41 0.930 . S
C36 H33 0.929 . S
C36 C37 1.398 . S
C36 C38 1.396 . S
C37 C36 1.398 . S
C37 C41 1.407 . S
C38 C36 1.396 . S
C38 C39 1.394 . S
C39 H34 0.929 . S
C39 C38 1.394 . S
C39 C40 1.382 . S
C40 C39 1.382 . S
C40 C41 1.392 . S
C40 N42 1.420 . S
C41 H35 0.930 . S
C41 C37 1.407 . S
C41 C40 1.392 . S
N42 C40 1.420 . S
N42 C43 1.244 . S
C43 N42 1.244 . S
Eu44 N73 2.600 . S
Eu44 N79 2.562 . S
Eu44 O88 2.462 . S
Eu44 O89 2.373 . S
Eu44 O91 2.432 . S
Eu44 O92 2.291 1_565 S
Eu44 O96 2.335 1_465 S
Eu44 O99 2.372 1_455 S
Eu44 C108 2.787 . S
C45 N46 1.365 . S
C45 C48 1.405 . S
C45 C52 1.448 . S
N46 C45 1.365 . S
N46 C49 1.319 1_655 S
N46 Eu55 2.600 . S
C47 C49 1.397 . S
C47 C50 1.367 1_455 S
C47 H67 0.931 . S
C48 C45 1.405 . S
C48 C50 1.403 . S
C48 C54 1.439 . S
C49 N46 1.319 1_455 S
C49 C47 1.397 . S
C49 H60 0.930 . S
C50 C47 1.367 1_655 S
C50 C48 1.403 . S
C50 H71 0.929 . S
C51 C52 1.430 . S
C51 C53 1.387 . S
C51 C57 1.404 . S
C52 C45 1.448 . S
C52 C51 1.430 . S
C52 N56 1.351 . S
C53 C51 1.387 . S
C53 C54 1.374 . S
C53 H68 0.931 . S
C54 C48 1.439 . S
C54 C53 1.374 . S
C54 H69 0.931 . S
Eu55 N46 2.600 . S
Eu55 N56 2.562 . S
Eu55 O90 2.335 1_655 S
Eu55 O93 2.372 1_655 S
Eu55 O94 2.462 . S
Eu55 O95 2.373 . S
Eu55 O97 2.432 . S
Eu55 O98 2.291 1_545 S
Eu55 C119 2.787 . S
N56 C52 1.351 . S
N56 Eu55 2.562 . S
N56 C58 1.325 . S
C57 C51 1.404 . S
C57 C59 1.366 . S
C57 H65 0.930 . S
C58 N56 1.325 . S
C58 C59 1.416 . S
C58 H64 0.929 . S
C59 C57 1.366 . S
C59 C58 1.416 . S
C59 H61 0.930 . S
H60 C49 0.930 . S
H61 C59 0.930 . S
H62 C77 0.930 1_655 S
H63 C84 0.930 . S
H64 C58 0.929 . S
H65 C57 0.930 . S
H66 C80 0.929 . S
H67 C47 0.931 . S
H68 C53 0.931 . S
H69 C54 0.931 . S
H70 C75 0.931 1_655 S
H71 C50 0.929 . S
H72 C83 0.930 . S
N73 Eu44 2.600 . S
N73 C74 1.365 . S
N73 C77 1.319 . S
C74 N73 1.365 . S
C74 C76 1.405 . S
C74 C82 1.448 . S
C75 H70 0.931 1_455 S
C75 C77 1.397 . S
C75 C78 1.367 . S
C76 C74 1.405 . S
C76 C78 1.403 . S
C76 C109 1.439 . S
C77 H62 0.930 1_455 S
C77 N73 1.319 . S
C77 C75 1.397 . S
C78 C75 1.367 . S
C78 C76 1.403 . S
C78 H85 0.929 . S
N79 Eu44 2.562 . S
N79 C80 1.325 . S
N79 C82 1.351 . S
C80 H66 0.929 . S
C80 N79 1.325 . S
C80 C84 1.416 . S
C81 C82 1.430 . S
C81 C83 1.404 . S
C81 C110 1.387 . S
C82 C74 1.448 . S
C82 N79 1.351 . S
C82 C81 1.430 . S
C83 H72 0.930 . S
C83 C81 1.404 . S
C83 C84 1.366 . S
C84 H63 0.930 . S
C84 C80 1.416 . S
C84 C83 1.366 . S
H85 C78 0.929 . S
H86 C109 0.931 . S
H87 C110 0.931 . S
O88 Eu44 2.462 . S
O88 C108 1.252 . S
O89 Eu44 2.373 . S
O89 C100 1.249 . S
O90 Eu55 2.335 1_455 S
O90 C100 1.264 1_545 S
O91 Eu44 2.432 . S
O91 C108 1.268 . S
O92 Eu44 2.291 1_545 S
O92 C107 1.255 . S
O93 Eu55 2.372 1_455 S
O93 C107 1.257 . S
O94 Eu55 2.462 . S
O94 C119 1.252 . S
O95 Eu55 2.373 . S
O95 C111 1.249 . S
O96 Eu44 2.335 1_645 S
O96 C111 1.264 . S
O97 Eu55 2.432 . S
O97 C119 1.268 . S
O98 Eu55 2.291 1_565 S
O98 C118 1.255 . S
O99 Eu44 2.372 1_655 S
O99 C118 1.257 . S
C100 O89 1.249 . S
C100 O90 1.264 1_565 S
C101 C104 1.382 . S
C101 C106 1.390 . S
C101 C108 1.506 . S
C102 C103 1.398 . S
C102 C106 1.392 . S
C103 C102 1.398 . S
C103 C105 1.372 . S
C103 H120 0.931 . S
C104 C101 1.382 . S
C104 C105 1.390 . S
C104 H121 0.931 . S
C105 C103 1.372 . S
C105 C104 1.390 . S
C105 H122 0.929 . S
C106 C101 1.390 . S
C106 C102 1.392 . S
C106 H123 0.930 . S
C107 O92 1.255 . S
C107 O93 1.257 . S
C108 Eu44 2.787 . S
C108 O88 1.252 . S
C108 O91 1.268 . S
C108 C101 1.506 . S
C109 C76 1.439 . S
C109 H86 0.931 . S
C109 C110 1.374 . S
C110 C81 1.387 . S
C110 H87 0.931 . S
C110 C109 1.374 . S
C111 O95 1.249 . S
C111 O96 1.264 . S
C112 C115 1.382 . S
C112 C116 1.390 . S
C112 C119 1.506 . S
C113 C114 1.398 . S
C113 C116 1.392 . S
C114 C113 1.398 . S
C114 C117 1.372 . S
C114 H124 0.931 . S
C115 C112 1.382 . S
C115 C117 1.390 . S
C115 H125 0.931 . S
C116 C112 1.390 . S
C116 C113 1.392 . S
C116 H126 0.930 . S
C117 C114 1.372 . S
C117 C115 1.390 . S
C117 H127 0.929 . S
C118 O98 1.255 . S
C118 O99 1.257 . S
C119 Eu55 2.787 . S
C119 O94 1.252 . S
C119 O97 1.268 . S
C119 C112 1.506 . S
H120 C103 0.931 . S
H121 C104 0.931 . S
H122 C105 0.929 . S
H123 C106 0.930 . S
H124 C114 0.931 . S
H125 C115 0.931 . S
H126 C116 0.930 . S
H127 C117 0.929 . S
Eu128 N157 2.600 . S
Eu128 N163 2.562 . S
Eu128 O172 2.462 1_554 S
Eu128 O173 2.373 . S
Eu128 O175 2.432 1_554 S
Eu128 O176 2.291 . S
Eu128 O180 2.335 1_554 S
Eu128 O183 2.372 . S
Eu128 C192 2.787 1_554 S
C129 N130 1.365 . S
C129 C132 1.405 . S
C129 C136 1.448 . S
N130 C129 1.365 . S
N130 C133 1.319 . S
N130 Eu139 2.600 . S
C131 C133 1.397 . S
C131 C134 1.367 . S
C131 H151 0.931 . S
C132 C129 1.405 . S
C132 C134 1.403 . S
C132 C138 1.439 . S
C133 N130 1.319 . S
C133 C131 1.397 . S
C133 H144 0.930 . S
C134 C131 1.367 . S
C134 C132 1.403 . S
C134 H155 0.929 . S
C135 C136 1.430 . S
C135 C137 1.387 . S
C135 C141 1.404 . S
C136 C129 1.448 . S
C136 C135 1.430 . S
C136 N140 1.351 . S
C137 C135 1.387 . S
C137 C138 1.374 . S
C137 H152 0.931 . S
C138 C132 1.439 . S
C138 C137 1.374 . S
C138 H153 0.931 . S
Eu139 N130 2.600 . S
Eu139 N140 2.562 . S
Eu139 O174 2.335 . S
Eu139 O177 2.372 . S
Eu139 O178 2.462 . S
Eu139 O179 2.373 . S
Eu139 O181 2.432 . S
Eu139 O182 2.291 . S
Eu139 C203 2.787 . S
N140 C136 1.351 . S
N140 Eu139 2.562 . S
N140 C142 1.325 . S
C141 C135 1.404 . S
C141 C143 1.366 . S
C141 H149 0.930 . S
C142 N140 1.325 . S
C142 C143 1.416 . S
C142 H148 0.929 . S
C143 C141 1.366 . S
C143 C142 1.416 . S
C143 H145 0.930 . S
H144 C133 0.930 . S
H145 C143 0.930 . S
H146 C161 0.930 . S
H147 C168 0.930 . S
H148 C142 0.929 . S
H149 C141 0.930 . S
H150 C164 0.929 . S
H151 C131 0.931 . S
H152 C137 0.931 . S
H153 C138 0.931 . S
H154 C159 0.931 . S
H155 C134 0.929 . S
H156 C167 0.930 . S
N157 Eu128 2.600 . S
N157 C158 1.365 . S
N157 C161 1.319 1_554 S
C158 N157 1.365 . S
C158 C160 1.405 . S
C158 C166 1.448 . S
C159 H154 0.931 . S
C159 C161 1.397 . S
C159 C162 1.367 1_556 S
C160 C158 1.405 . S
C160 C162 1.403 . S
C160 C193 1.439 . S
C161 H146 0.930 . S
C161 N157 1.319 1_556 S
C161 C159 1.397 . S
C162 C159 1.367 1_554 S
C162 C160 1.403 . S
C162 H169 0.929 . S
N163 Eu128 2.562 . S
N163 C164 1.325 . S
N163 C166 1.351 . S
C164 H150 0.929 . S
C164 N163 1.325 . S
C164 C168 1.416 . S
C165 C166 1.430 . S
C165 C167 1.404 . S
C165 C194 1.387 . S
C166 C158 1.448 . S
C166 N163 1.351 . S
C166 C165 1.430 . S
C167 H156 0.930 . S
C167 C165 1.404 . S
C167 C168 1.366 . S
C168 H147 0.930 . S
C168 C164 1.416 . S
C168 C167 1.366 . S
H169 C162 0.929 . S
H170 C193 0.931 . S
H171 C194 0.931 . S
O172 Eu128 2.462 1_556 S
O172 C192 1.252 . S
O173 Eu128 2.373 . S
O173 C184 1.249 . S
O174 Eu139 2.335 . S
O174 C184 1.264 . S
O175 Eu128 2.432 1_556 S
O175 C192 1.268 . S
O176 Eu128 2.291 . S
O176 C191 1.255 . S
O177 Eu139 2.372 . S
O177 C191 1.257 . S
O178 Eu139 2.462 . S
O178 C203 1.252 . S
O179 Eu139 2.373 . S
O179 C195 1.249 1_554 S
O180 Eu128 2.335 1_556 S
O180 C195 1.264 . S
O181 Eu139 2.432 . S
O181 C203 1.268 . S
O182 Eu139 2.291 . S
O182 C202 1.255 . S
O183 Eu128 2.372 . S
O183 C202 1.257 . S
C184 O173 1.249 . S
C184 O174 1.264 . S
C185 C188 1.382 . S
C185 C190 1.390 . S
C185 C192 1.506 . S
C186 C187 1.398 . S
C186 C190 1.392 . S
C187 C186 1.398 . S
C187 C189 1.372 . S
C187 H204 0.931 . S
C188 C185 1.382 . S
C188 C189 1.390 . S
C188 H205 0.931 . S
C189 C187 1.372 . S
C189 C188 1.390 . S
C189 H206 0.929 . S
C190 C185 1.390 . S
C190 C186 1.392 . S
C190 H207 0.930 . S
C191 O176 1.255 . S
C191 O177 1.257 . S
C192 Eu128 2.787 1_556 S
C192 O172 1.252 . S
C192 O175 1.268 . S
C192 C185 1.506 . S
C193 C160 1.439 . S
C193 H170 0.931 . S
C193 C194 1.374 . S
C194 C165 1.387 . S
C194 H171 0.931 . S
C194 C193 1.374 . S
C195 O179 1.249 1_556 S
C195 O180 1.264 . S
C196 C199 1.382 . S
C196 C200 1.390 . S
C196 C203 1.506 . S
C197 C198 1.398 . S
C197 C200 1.392 . S
C198 C197 1.398 . S
C198 C201 1.372 . S
C198 H208 0.931 . S
C199 C196 1.382 . S
C199 C201 1.390 . S
C199 H209 0.931 . S
C200 C196 1.390 . S
C200 C197 1.392 . S
C200 H210 0.930 . S
C201 C198 1.372 . S
C201 C199 1.390 . S
C201 H211 0.929 . S
C202 O182 1.255 . S
C202 O183 1.257 . S
C203 Eu139 2.787 . S
C203 O178 1.252 . S
C203 O181 1.268 . S
C203 C196 1.506 . S
H204 C187 0.931 . S
H205 C188 0.931 . S
H206 C189 0.929 . S
H207 C190 0.930 . S
H208 C198 0.931 . S
H209 C199 0.931 . S
H210 C200 0.930 . S
H211 C201 0.929 . S
H212 C218 0.930 . S
H213 C221 0.930 . S
H214 C222 0.930 . S
H215 C223 0.930 . S
H216 C226 0.930 . S
H217 C227 0.930 . S
C218 H212 0.930 . S
C218 C219 1.355 . S
C218 C220 1.415 . S
C219 C218 1.355 . S
C219 C221 1.419 . S
C220 C218 1.415 . S
C220 C225 1.425 . S
C220 C227 1.409 . S
C221 H213 0.930 . S
C221 C219 1.419 . S
C221 C222 1.362 . S
C222 H214 0.930 . S
C222 C221 1.362 . S
C222 C225 1.409 . S
C223 H215 0.930 . S
C223 C224 1.355 . S
C223 C225 1.415 . S
C224 C223 1.355 . S
C224 C226 1.419 . S
C225 C220 1.425 . S
C225 C222 1.409 . S
C225 C223 1.415 . S
C226 H216 0.930 . S
C226 C224 1.419 . S
C226 C227 1.362 . S
C227 H217 0.930 . S
C227 C220 1.409 . S
C227 C226 1.362 . S
H228 C234 0.930 . S
H229 C237 0.930 . S
H230 C238 0.930 . S
H231 C239 0.930 . S
H232 C242 0.930 . S
H233 C243 0.930 . S
C234 H228 0.930 . S
C234 C235 1.355 . S
C234 C236 1.415 . S
C235 C234 1.355 . S
C235 C237 1.419 . S
C236 C234 1.415 . S
C236 C241 1.425 . S
C236 C243 1.409 . S
C237 H229 0.930 . S
C237 C235 1.419 . S
C237 C238 1.362 . S
C238 H230 0.930 . S
C238 C237 1.362 . S
C238 C241 1.409 . S
C239 H231 0.930 . S
C239 C240 1.355 . S
C239 C241 1.415 . S
C240 C239 1.355 . S
C240 C242 1.419 . S
C241 C236 1.425 . S
C241 C238 1.409 . S
C241 C239 1.415 . S
C242 H232 0.930 . S
C242 C240 1.419 . S
C242 C243 1.362 . S
C243 H233 0.930 . S
C243 C236 1.409 . S
C243 C242 1.362 . S
H244 C250 0.930 . S
H245 C253 0.930 . S
H246 C254 0.930 . S
H247 C255 0.930 . S
H248 C258 0.930 . S
H249 C259 0.930 . S
C250 H244 0.930 . S
C250 C251 1.355 . S
C250 C252 1.415 . S
C251 C250 1.355 . S
C251 C253 1.419 . S
C252 C250 1.415 . S
C252 C257 1.425 . S
C252 C259 1.409 . S
C253 H245 0.930 . S
C253 C251 1.419 . S
C253 C254 1.362 . S
C254 H246 0.930 . S
C254 C253 1.362 . S
C254 C257 1.409 . S
C255 H247 0.930 . S
C255 C256 1.355 . S
C255 C257 1.415 . S
C256 C255 1.355 . S
C256 C258 1.419 . S
C257 C252 1.425 . S
C257 C254 1.409 . S
C257 C255 1.415 . S
C258 H248 0.930 . S
C258 C256 1.419 . S
C258 C259 1.362 . S
C259 H249 0.930 . S
C259 C252 1.409 . S
C259 C258 1.362 . S
H260 C266 0.930 . S
H261 C269 0.930 1_556 S
H262 C270 0.930 1_556 S
H263 C271 0.930 1_556 S
H264 C274 0.930 . S
H265 C275 0.930 . S
C266 H260 0.930 . S
C266 C267 1.355 . S
C266 C268 1.415 . S
C267 C266 1.355 . S
C267 C269 1.419 . S
C268 C266 1.415 . S
C268 C273 1.425 . S
C268 C275 1.409 . S
C269 H261 0.930 1_554 S
C269 C267 1.419 . S
C269 C270 1.362 . S
C270 H262 0.930 1_554 S
C270 C269 1.362 . S
C270 C273 1.409 . S
C271 H263 0.930 1_554 S
C271 C272 1.355 . S
C271 C273 1.415 . S
C272 C271 1.355 . S
C272 C274 1.419 . S
C273 C268 1.425 . S
C273 C270 1.409 . S
C273 C271 1.415 . S
C274 H264 0.930 . S
C274 C272 1.419 . S
C274 C275 1.362 . S
C275 H265 0.930 . S
C275 C268 1.409 . S
C275 C274 1.362 . S
H276 C282 0.930 . S
H277 C285 0.930 . S
H278 C286 0.930 . S
H279 C287 0.930 . S
H280 C290 0.930 . S
H281 C291 0.930 . S
C282 H276 0.930 . S
C282 C283 1.355 . S
C282 C284 1.415 . S
C283 C282 1.355 . S
C283 C285 1.419 . S
C284 C282 1.415 . S
C284 C289 1.425 . S
C284 C291 1.409 . S
C285 H277 0.930 . S
C285 C283 1.419 . S
C285 C286 1.362 . S
C286 H278 0.930 . S
C286 C285 1.362 . S
C286 C289 1.409 . S
C287 H279 0.930 . S
C287 C288 1.355 . S
C287 C289 1.415 . S
C288 C287 1.355 . S
C288 C290 1.419 . S
C289 C284 1.425 . S
C289 C286 1.409 . S
C289 C287 1.415 . S
C290 H280 0.930 . S
C290 C288 1.419 . S
C290 C291 1.362 . S
C291 H281 0.930 . S
C291 C284 1.409 . S
C291 C290 1.362 . S
H292 C298 0.930 . S
H293 C301 0.930 . S
H294 C302 0.930 . S
H295 C303 0.930 . S
H296 C306 0.930 . S
H297 C307 0.930 . S
C298 H292 0.930 . S
C298 C299 1.355 . S
C298 C300 1.415 . S
C299 C298 1.355 . S
C299 C301 1.419 . S
C300 C298 1.415 . S
C300 C305 1.425 . S
C300 C307 1.409 . S
C301 H293 0.930 . S
C301 C299 1.419 . S
C301 C302 1.362 . S
C302 H294 0.930 . S
C302 C301 1.362 . S
C302 C305 1.409 . S
C303 H295 0.930 . S
C303 C304 1.355 . S
C303 C305 1.415 . S
C304 C303 1.355 . S
C304 C306 1.419 . S
C305 C300 1.425 . S
C305 C302 1.409 . S
C305 C303 1.415 . S
C306 H296 0.930 . S
C306 C304 1.419 . S
C306 C307 1.362 . S
C307 H297 0.930 . S
C307 C300 1.409 . S
C307 C306 1.362 . S
H308 C314 0.930 . S
H309 C317 0.930 . S
H310 C318 0.930 . S
H311 C319 0.930 . S
H312 C322 0.930 . S
H313 C323 0.930 . S
C314 H308 0.930 . S
C314 C315 1.355 . S
C314 C316 1.415 . S
C315 C314 1.355 . S
C315 C317 1.419 . S
C316 C314 1.415 . S
C316 C321 1.425 . S
C316 C323 1.409 . S
C317 H309 0.930 . S
C317 C315 1.419 . S
C317 C318 1.362 . S
C318 H310 0.930 . S
C318 C317 1.362 . S
C318 C321 1.409 . S
C319 H311 0.930 . S
C319 C320 1.355 . S
C319 C321 1.415 . S
C320 C319 1.355 . S
C320 C322 1.419 . S
C321 C316 1.425 . S
C321 C318 1.409 . S
C321 C319 1.415 . S
C322 H312 0.930 . S
C322 C320 1.419 . S
C322 C323 1.362 . S
C323 H313 0.930 . S
C323 C316 1.409 . S
C323 C322 1.362 . S
H324 C330 0.930 . S
H325 C333 0.930 . S
H326 C334 0.930 . S
H327 C335 0.930 . S
H328 C338 0.930 . S
H329 C339 0.930 . S
C330 H324 0.930 . S
C330 C331 1.355 . S
C330 C332 1.415 . S
C331 C330 1.355 . S
C331 C333 1.419 . S
C332 C330 1.415 . S
C332 C337 1.425 . S
C332 C339 1.409 . S
C333 H325 0.930 . S
C333 C331 1.419 . S
C333 C334 1.362 . S
C334 H326 0.930 . S
C334 C333 1.362 . S
C334 C337 1.409 . S
C335 H327 0.930 . S
C335 C336 1.355 . S
C335 C337 1.415 . S
C336 C335 1.355 . S
C336 C338 1.419 . S
C337 C332 1.425 . S
C337 C334 1.409 . S
C337 C335 1.415 . S
C338 H328 0.930 . S
C338 C336 1.419 . S
C338 C339 1.362 . S
C339 H329 0.930 . S
C339 C332 1.409 . S
C339 C338 1.362 . S
H340 C346 0.930 . S
H341 C349 0.930 . S
H342 C350 0.930 . S
H343 C351 0.930 . S
H344 C354 0.930 . S
H345 C355 0.930 . S
C346 H340 0.930 . S
C346 C347 1.355 . S
C346 C348 1.415 . S
C347 C346 1.355 . S
C347 C349 1.419 . S
C348 C346 1.415 . S
C348 C353 1.425 . S
C348 C355 1.409 . S
C349 H341 0.930 . S
C349 C347 1.419 . S
C349 C350 1.362 . S
C350 H342 0.930 . S
C350 C349 1.362 . S
C350 C353 1.409 . S
C351 H343 0.930 . S
C351 C352 1.355 . S
C351 C353 1.415 . S
C352 C351 1.355 . S
C352 C354 1.419 . S
C353 C348 1.425 . S
C353 C350 1.409 . S
C353 C351 1.415 . S
C354 H344 0.930 . S
C354 C352 1.419 . S
C354 C355 1.362 . S
C355 H345 0.930 . S
C355 C348 1.409 . S
C355 C354 1.362 . S
H356 C362 0.930 1_554 S
H357 C365 0.930 . S
H358 C366 0.930 . S
H359 C367 0.930 . S
H360 C370 0.930 1_565 S
H361 C371 0.930 . S
C362 H356 0.930 1_556 S
C362 C363 1.355 . S
C362 C364 1.415 . S
C363 C362 1.355 . S
C363 C365 1.419 . S
C364 C362 1.415 . S
C364 C369 1.425 . S
C364 C371 1.409 . S
C365 H357 0.930 . S
C365 C363 1.419 . S
C365 C366 1.362 . S
C366 H358 0.930 . S
C366 C365 1.362 . S
C366 C369 1.409 . S
C367 H359 0.930 . S
C367 C368 1.355 . S
C367 C369 1.415 . S
C368 C367 1.355 . S
C368 C370 1.419 . S
C369 C364 1.425 . S
C369 C366 1.409 . S
C369 C367 1.415 . S
C370 H360 0.930 1_545 S
C370 C368 1.419 . S
C370 C371 1.362 . S
C371 H361 0.930 . S
C371 C364 1.409 . S
C371 C370 1.362 . S
H372 C378 0.930 . S
H373 C381 0.930 . S
H374 C382 0.930 . S
H375 C383 0.930 . S
H376 C386 0.930 . S
H377 C387 0.930 . S
C378 H372 0.930 . S
C378 C379 1.355 . S
C378 C380 1.415 . S
C379 C378 1.355 . S
C379 C381 1.419 . S
C380 C378 1.415 . S
C380 C385 1.425 . S
C380 C387 1.409 . S
C381 H373 0.930 . S
C381 C379 1.419 . S
C381 C382 1.362 . S
C382 H374 0.930 . S
C382 C381 1.362 . S
C382 C385 1.409 . S
C383 H375 0.930 . S
C383 C384 1.355 . S
C383 C385 1.415 . S
C384 C383 1.355 . S
C384 C386 1.419 . S
C385 C380 1.425 . S
C385 C382 1.409 . S
C385 C383 1.415 . S
C386 H376 0.930 . S
C386 C384 1.419 . S
C386 C387 1.362 . S
C387 H377 0.930 . S
C387 C380 1.409 . S
C387 C386 1.362 . S
H388 C394 0.930 . S
H389 C397 0.930 . S
H390 C398 0.930 . S
H391 C399 0.930 . S
H392 C402 0.930 . S
H393 C403 0.930 . S
C394 H388 0.930 . S
C394 C395 1.355 . S
C394 C396 1.415 . S
C395 C394 1.355 . S
C395 C397 1.419 . S
C396 C394 1.415 . S
C396 C401 1.425 . S
C396 C403 1.409 . S
C397 H389 0.930 . S
C397 C395 1.419 . S
C397 C398 1.362 . S
C398 H390 0.930 . S
C398 C397 1.362 . S
C398 C401 1.409 . S
C399 H391 0.930 . S
C399 C400 1.355 . S
C399 C401 1.415 . S
C400 C399 1.355 . S
C400 C402 1.419 . S
C401 C396 1.425 . S
C401 C398 1.409 . S
C401 C399 1.415 . S
C402 H392 0.930 . S
C402 C400 1.419 . S
C402 C403 1.362 . S
C403 H393 0.930 . S
C403 C396 1.409 . S
C403 C402 1.362 . S
C224 C107 1.617 . S
C219 C43 1.650 . S
C235 C10 1.654 . S
C240 C202 1.622 . S
C251 C21 1.667 . S
C256 C118 1.635 . S
C267 C32 1.628 . S
C272 C191 1.599 . S
C288 C102 1.380 . S
C283 C5 1.575 . S
C304 C195 1.685 . S
C299 C15 1.680 . S
C315 C27 1.622 . S
C320 C111 1.639 . S
C331 C38 1.577 . S
C336 C186 1.460 . S
C352 C197 1.384 . S
C347 C16 1.538 . S
C368 C113 1.428 . S
C363 C26 1.538 1_556 S
C384 C184 1.625 . S
C379 C37 1.600 . S
C395 C4 1.564 . S
C400 C100 1.579 . S
