# Generated by pormake.
# Topology pto, (3,4)-cn, num edge types: 1
# Building blocks:
#     Node 0, Type 0, BuildingBlock: KAKCAD_clean_linker_0, # of connection points: 3
#     Node 1, Type 0, BuildingBlock: KAKCAD_clean_linker_0, # of connection points: 3
#     Node 2, Type 0, BuildingBlock: KAKCAD_clean_linker_0, # of connection points: 3
#     Node 3, Type 0, BuildingBlock: KAKCAD_clean_linker_0, # of connection points: 3
#     Node 4, Type 0, BuildingBlock: KAKCAD_clean_linker_0, # of connection points: 3
#     Node 5, Type 0, BuildingBlock: KAKCAD_clean_linker_0, # of connection points: 3
#     Node 6, Type 0, BuildingBlock: KAKCAD_clean_linker_0, # of connection points: 3
#     Node 7, Type 0, BuildingBlock: KAKCAD_clean_linker_0, # of connection points: 3
#     Node 8, Type 1, BuildingBlock: KOZSID_clean_sbu_0, # of connection points: 4
#     Node 9, Type 1, BuildingBlock: KOZSID_clean_sbu_0, # of connection points: 4
#     Node 10, Type 1, BuildingBlock: KOZSID_clean_sbu_0, # of connection points: 4
#     Node 11, Type 1, BuildingBlock: KOZSID_clean_sbu_0, # of connection points: 4
#     Node 12, Type 1, BuildingBlock: KOZSID_clean_sbu_0, # of connection points: 4
#     Node 13, Type 1, BuildingBlock: KOZSID_clean_sbu_0, # of connection points: 4
#     Edge 14, Type (0, 1), BuildingBlock: MIFKUJ_clean_linker_0, # of connection points: 2
#     Edge 15, Type (0, 1), BuildingBlock: MIFKUJ_clean_linker_0, # of connection points: 2
#     Edge 16, Type (0, 1), BuildingBlock: MIFKUJ_clean_linker_0, # of connection points: 2
#     Edge 17, Type (0, 1), BuildingBlock: MIFKUJ_clean_linker_0, # of connection points: 2
#     Edge 18, Type (0, 1), BuildingBlock: MIFKUJ_clean_linker_0, # of connection points: 2
#     Edge 19, Type (0, 1), BuildingBlock: MIFKUJ_clean_linker_0, # of connection points: 2
#     Edge 20, Type (0, 1), BuildingBlock: MIFKUJ_clean_linker_0, # of connection points: 2
#     Edge 21, Type (0, 1), BuildingBlock: MIFKUJ_clean_linker_0, # of connection points: 2
#     Edge 22, Type (0, 1), BuildingBlock: MIFKUJ_clean_linker_0, # of connection points: 2
#     Edge 23, Type (0, 1), BuildingBlock: MIFKUJ_clean_linker_0, # of connection points: 2
#     Edge 24, Type (0, 1), BuildingBlock: MIFKUJ_clean_linker_0, # of connection points: 2
#     Edge 25, Type (0, 1), BuildingBlock: MIFKUJ_clean_linker_0, # of connection points: 2
#     Edge 26, Type (0, 1), BuildingBlock: MIFKUJ_clean_linker_0, # of connection points: 2
#     Edge 27, Type (0, 1), BuildingBlock: MIFKUJ_clean_linker_0, # of connection points: 2
#     Edge 28, Type (0, 1), BuildingBlock: MIFKUJ_clean_linker_0, # of connection points: 2
#     Edge 29, Type (0, 1), BuildingBlock: MIFKUJ_clean_linker_0, # of connection points: 2
#     Edge 30, Type (0, 1), BuildingBlock: MIFKUJ_clean_linker_0, # of connection points: 2
#     Edge 31, Type (0, 1), BuildingBlock: MIFKUJ_clean_linker_0, # of connection points: 2
#     Edge 32, Type (0, 1), BuildingBlock: MIFKUJ_clean_linker_0, # of connection points: 2
#     Edge 33, Type (0, 1), BuildingBlock: MIFKUJ_clean_linker_0, # of connection points: 2
#     Edge 34, Type (0, 1), BuildingBlock: MIFKUJ_clean_linker_0, # of connection points: 2
#     Edge 35, Type (0, 1), BuildingBlock: MIFKUJ_clean_linker_0, # of connection points: 2
#     Edge 36, Type (0, 1), BuildingBlock: MIFKUJ_clean_linker_0, # of connection points: 2
#     Edge 37, Type (0, 1), BuildingBlock: MIFKUJ_clean_linker_0, # of connection points: 2
# Relax obj value: 0.000
# Max RMSD: 0.020
# Mean RMSD: 0.008
data_MOF--net-pto--node1-KOZSID_clean_sbu_0--node2-KAKCAD_clean_linker_0--edge1-MIFKUJ_clean_linker_0
_symmetry_space_group_name_H-M    P1
_symmetry_Int_Tables_number       1
_symmetry_cell_setting            triclinic
loop_
_symmetry_equiv_pos_as_xyz
'x, y, z'
_cell_length_a     57.522257
_cell_length_b     77.763709
_cell_length_c     67.710042
_cell_angle_alpha  88.445052
_cell_angle_beta   88.607478
_cell_angle_gamma 92.461695
loop_
_atom_site_label
_atom_site_type_symbol
_atom_site_fract_x
_atom_site_fract_y
_atom_site_fract_z
_atom_type_partial_charge
C0 C 0.27721 0.20117 0.34874 0.0
C1 C 0.25473 0.19434 0.35363 0.0
C2 C 0.2803 0.21598 0.33663 0.0
C3 C 0.26096 0.22437 0.32941 0.0
C4 C 0.23847 0.21759 0.33439 0.0
C5 C 0.23539 0.20265 0.34628 0.0
C6 C 0.26422 0.24017 0.31674 0.0
C7 C 0.28001 0.24071 0.30058 0.0
C8 C 0.28308 0.25558 0.28833 0.0
C9 C 0.27025 0.27007 0.29267 0.0
C10 C 0.25425 0.26971 0.30873 0.0
C11 C 0.25135 0.25468 0.32066 0.0
C12 C 0.24022 0.28489 0.31278 0.0
C13 C 0.25045 0.30165 0.31155 0.0
C14 C 0.21636 0.28273 0.31765 0.0
C15 C 0.20298 0.29698 0.321 0.0
C16 C 0.21314 0.31375 0.31957 0.0
C17 C 0.29911 0.25576 0.27069 0.0
C18 C 0.32036 0.24748 0.27138 0.0
C19 C 0.29306 0.26394 0.25288 0.0
C20 C 0.3078 0.26379 0.23619 0.0
C21 C 0.3289 0.25532 0.23678 0.0
C22 C 0.33502 0.24721 0.25462 0.0
C23 C 0.23706 0.31592 0.31494 0.0
H24 H 0.29241 0.19495 0.35411 0.0
H25 H 0.29781 0.221 0.33311 0.0
H26 H 0.22327 0.22374 0.3289 0.0
H27 H 0.21787 0.19772 0.34993 0.0
H28 H 0.28933 0.2293 0.29718 0.0
H29 H 0.23938 0.25436 0.33329 0.0
H30 H 0.2725 0.28163 0.2834 0.0
H31 H 0.26884 0.30374 0.30803 0.0
H32 H 0.20791 0.27 0.31855 0.0
H33 H 0.18465 0.29486 0.32476 0.0
H34 H 0.32574 0.24123 0.28489 0.0
H35 H 0.27671 0.27024 0.25168 0.0
H36 H 0.24537 0.32868 0.31356 0.0
H37 H 0.35099 0.24039 0.2556 0.0
H38 H 0.30265 0.27041 0.22282 0.0
C39 C 0.29995 0.7826 0.7873 0.0
C40 C 0.3131 0.76853 0.79295 0.0
C41 C 0.28563 0.78168 0.77095 0.0
C42 C 0.28415 0.76669 0.75981 0.0
C43 C 0.29733 0.75263 0.76544 0.0
C44 C 0.31161 0.75354 0.78181 0.0
C45 C 0.2689 0.7657 0.7424 0.0
C46 C 0.26748 0.77992 0.7293 0.0
C47 C 0.25306 0.77913 0.71287 0.0
C48 C 0.24008 0.76383 0.70949 0.0
C49 C 0.24114 0.74948 0.72246 0.0
C50 C 0.25559 0.75056 0.73888 0.0
C51 C 0.2268 0.73348 0.71916 0.0
C52 C 0.20367 0.73435 0.71308 0.0
C53 C 0.23599 0.7172 0.72241 0.0
C54 C 0.2223 0.70217 0.71988 0.0
C55 C 0.1991 0.70305 0.71399 0.0
C56 C 0.25139 0.79439 0.6994 0.0
C57 C 0.24912 0.81084 0.70711 0.0
C58 C 0.25196 0.79265 0.67879 0.0
C59 C 0.25045 0.80707 0.66617 0.0
C60 C 0.24822 0.82355 0.67388 0.0
C61 C 0.24749 0.82524 0.69452 0.0
C62 C 0.19001 0.71932 0.71049 0.0
H63 H 0.30087 0.79441 0.79542 0.0
H64 H 0.27553 0.79268 0.76716 0.0
H65 H 0.29678 0.74096 0.75707 0.0
H66 H 0.32128 0.74239 0.78588 0.0
H67 H 0.278 0.79155 0.73165 0.0
H68 H 0.25596 0.73974 0.74928 0.0
H69 H 0.22898 0.76315 0.6968 0.0
H70 H 0.19595 0.74666 0.71064 0.0
H71 H 0.25382 0.71606 0.7269 0.0
H72 H 0.2298 0.68987 0.7229 0.0
H73 H 0.24826 0.81255 0.72294 0.0
H74 H 0.25396 0.78016 0.67241 0.0
H75 H 0.17229 0.72047 0.70572 0.0
H76 H 0.24533 0.83767 0.70099 0.0
H77 H 0.2514 0.80533 0.65036 0.0
C78 C 0.71178 0.74712 0.25163 0.0
C79 C 0.71004 0.76264 0.2407 0.0
C80 C 0.72607 0.74629 0.26802 0.0
C81 C 0.73908 0.76094 0.27382 0.0
C82 C 0.7374 0.77643 0.26284 0.0
C83 C 0.723 0.77729 0.24656 0.0
C84 C 0.75445 0.76011 0.29118 0.0
C85 C 0.76763 0.7456 0.29484 0.0
C86 C 0.78266 0.74499 0.31088 0.0
C87 C 0.7845 0.75913 0.32332 0.0
C88 C 0.77142 0.77372 0.31997 0.0
C89 C 0.75632 0.77402 0.30397 0.0
C90 C 0.7737 0.78877 0.33298 0.0
C91 C 0.77517 0.78645 0.35358 0.0
C92 C 0.77449 0.80562 0.32483 0.0
C93 C 0.77655 0.8198 0.33698 0.0
C94 C 0.77794 0.81749 0.35757 0.0
C95 C 0.79678 0.72972 0.3144 0.0
C96 C 0.78664 0.713 0.31347 0.0
C97 C 0.82052 0.73176 0.3186 0.0
C98 C 0.8339 0.71739 0.32164 0.0
C99 C 0.82378 0.70067 0.32069 0.0
C100 C 0.79998 0.69862 0.31667 0.0
C101 C 0.7773 0.80065 0.36573 0.0
H102 H 0.70228 0.73552 0.24742 0.0
H103 H 0.72674 0.73419 0.27623 0.0
H104 H 0.7474 0.78792 0.26668 0.0
H105 H 0.72188 0.78952 0.23869 0.0
H106 H 0.7668 0.73496 0.28484 0.0
H107 H 0.74569 0.78503 0.30167 0.0
H108 H 0.79626 0.75879 0.33558 0.0
H109 H 0.7743 0.77365 0.36034 0.0
H110 H 0.77384 0.80786 0.309 0.0
H111 H 0.7774 0.8326 0.33021 0.0
H112 H 0.76833 0.71104 0.3104 0.0
H113 H 0.82886 0.74449 0.31925 0.0
H114 H 0.77804 0.79846 0.38157 0.0
H115 H 0.79175 0.68589 0.31568 0.0
H116 H 0.85216 0.71937 0.32487 0.0
C117 C 0.79795 0.21616 0.69889 0.0
C118 C 0.77827 0.20604 0.69378 0.0
C119 C 0.79562 0.23045 0.71074 0.0
C120 C 0.77357 0.23493 0.71778 0.0
C121 C 0.75389 0.22487 0.71263 0.0
C122 C 0.7562 0.2106 0.70074 0.0
C123 C 0.77112 0.24998 0.73061 0.0
C124 C 0.78372 0.26552 0.72619 0.0
C125 C 0.78171 0.27977 0.73836 0.0
C126 C 0.76657 0.27835 0.75501 0.0
C127 C 0.75378 0.26288 0.75971 0.0
C128 C 0.75629 0.24876 0.74742 0.0
C129 C 0.73805 0.26134 0.77756 0.0
C130 C 0.74424 0.2693 0.79521 0.0
C131 C 0.71679 0.25174 0.77716 0.0
C132 C 0.70224 0.24997 0.79398 0.0
C133 C 0.7084 0.25794 0.81163 0.0
C134 C 0.79573 0.29601 0.73384 0.0
C135 C 0.819 0.29546 0.72708 0.0
C136 C 0.78615 0.31215 0.73651 0.0
C137 C 0.7996 0.32735 0.73275 0.0
C138 C 0.82292 0.32679 0.72615 0.0
C139 C 0.83238 0.31065 0.72322 0.0
C140 C 0.72956 0.2677 0.81197 0.0
H141 H 0.81523 0.21285 0.69404 0.0
H142 H 0.81115 0.23782 0.71468 0.0
H143 H 0.73663 0.22814 0.7176 0.0
H144 H 0.74064 0.20327 0.69681 0.0
H145 H 0.7948 0.26662 0.713 0.0
H146 H 0.74718 0.23659 0.75121 0.0
H147 H 0.76487 0.28929 0.76442 0.0
H148 H 0.7606 0.27661 0.7962 0.0
H149 H 0.71125 0.24562 0.76378 0.0
H150 H 0.68627 0.24216 0.79318 0.0
H151 H 0.82704 0.28328 0.72507 0.0
H152 H 0.76822 0.31306 0.74145 0.0
H153 H 0.73477 0.27425 0.82516 0.0
H154 H 0.85017 0.30971 0.7179 0.0
H155 H 0.7918 0.33953 0.73537 0.0
C156 C 0.76915 0.80993 0.67913 0.0
C157 C 0.77337 0.82624 0.68717 0.0
C158 C 0.76625 0.79521 0.69142 0.0
C159 C 0.76728 0.79648 0.71203 0.0
C160 C 0.7716 0.81272 0.7201 0.0
C161 C 0.77473 0.82741 0.70782 0.0
C162 C 0.76356 0.78095 0.72513 0.0
C163 C 0.77498 0.76579 0.72105 0.0
C164 C 0.77171 0.75108 0.73353 0.0
C165 C 0.75644 0.75164 0.75003 0.0
C166 C 0.74496 0.76672 0.75435 0.0
C167 C 0.74869 0.78133 0.74185 0.0
C168 C 0.72927 0.76728 0.77205 0.0
C169 C 0.71309 0.75363 0.77671 0.0
C170 C 0.7305 0.78144 0.7845 0.0
C171 C 0.71598 0.78189 0.80131 0.0
C172 C 0.69979 0.76824 0.80602 0.0
C173 C 0.78473 0.73532 0.7297 0.0
C174 C 0.78826 0.72967 0.71033 0.0
C175 C 0.79405 0.72592 0.74545 0.0
C176 C 0.80651 0.71124 0.74195 0.0
C177 C 0.81009 0.70563 0.72261 0.0
C178 C 0.80085 0.71501 0.70682 0.0
C179 C 0.69848 0.75412 0.79347 0.0
H180 H 0.76762 0.80855 0.66334 0.0
H181 H 0.7627 0.78287 0.68481 0.0
H182 H 0.77282 0.81404 0.73593 0.0
H183 H 0.77843 0.83967 0.71454 0.0
H184 H 0.78703 0.76566 0.70851 0.0
H185 H 0.73957 0.79292 0.74489 0.0
H186 H 0.75365 0.74036 0.75968 0.0
H187 H 0.71153 0.74266 0.76724 0.0
H188 H 0.74302 0.79204 0.78145 0.0
H189 H 0.71777 0.79282 0.81082 0.0
H190 H 0.78107 0.73647 0.69788 0.0
H191 H 0.79211 0.73008 0.76051 0.0
H192 H 0.68596 0.74352 0.79645 0.0
H193 H 0.80313 0.7109 0.69177 0.0
H194 H 0.81376 0.70446 0.7544 0.0
C195 C 0.71112 0.24329 0.26352 0.0
C196 C 0.71758 0.2525 0.24592 0.0
C197 C 0.72495 0.2444 0.28017 0.0
C198 C 0.74583 0.25453 0.27961 0.0
C199 C 0.75243 0.26358 0.26194 0.0
C200 C 0.73842 0.26269 0.2454 0.0
C201 C 0.76058 0.25572 0.2974 0.0
C202 C 0.76266 0.24135 0.31021 0.0
C203 C 0.77614 0.24241 0.32724 0.0
C204 C 0.78811 0.25806 0.33113 0.0
C205 C 0.78678 0.27242 0.31825 0.0
C206 C 0.77273 0.27122 0.30162 0.0
C207 C 0.8006 0.28857 0.32177 0.0
C208 C 0.8016 0.29545 0.34073 0.0
C209 C 0.81328 0.29706 0.30611 0.0
C210 C 0.82681 0.31201 0.30934 0.0
C211 C 0.82789 0.31887 0.3283 0.0
C212 C 0.77793 0.22708 0.34073 0.0
C213 C 0.75847 0.21581 0.34468 0.0
C214 C 0.79912 0.22348 0.34962 0.0
C215 C 0.80079 0.20897 0.36208 0.0
C216 C 0.7814 0.19764 0.36576 0.0
C217 C 0.76023 0.20121 0.35695 0.0
C218 C 0.81502 0.31051 0.34394 0.0
H219 H 0.69543 0.23509 0.26446 0.0
H220 H 0.71906 0.23743 0.29355 0.0
H221 H 0.76855 0.2713 0.26078 0.0
H222 H 0.74388 0.27019 0.23227 0.0
H223 H 0.75421 0.22915 0.30666 0.0
H224 H 0.77102 0.28252 0.29215 0.0
H225 H 0.79869 0.25905 0.3441 0.0
H226 H 0.79189 0.28925 0.35305 0.0
H227 H 0.81302 0.29198 0.29137 0.0
H228 H 0.83633 0.31827 0.29695 0.0
H229 H 0.74177 0.21833 0.33842 0.0
H230 H 0.81457 0.23167 0.34667 0.0
H231 H 0.81561 0.31546 0.35873 0.0
H232 H 0.74493 0.1928 0.35974 0.0
H233 H 0.81739 0.20641 0.36851 0.0
C234 C 0.2921 0.26362 0.80427 0.0
C235 C 0.31486 0.25786 0.80241 0.0
C236 C 0.27806 0.26475 0.78775 0.0
C237 C 0.2864 0.25994 0.76911 0.0
C238 C 0.30906 0.25401 0.7673 0.0
C239 C 0.32319 0.25307 0.78376 0.0
C240 C 0.27161 0.26125 0.75152 0.0
C241 C 0.25942 0.27619 0.74773 0.0
C242 C 0.24577 0.27769 0.7309 0.0
C243 C 0.24454 0.26404 0.71772 0.0
C244 C 0.25632 0.24881 0.72139 0.0
C245 C 0.2698 0.2476 0.73841 0.0
C246 C 0.25429 0.2341 0.70769 0.0
C247 C 0.23344 0.23043 0.69788 0.0
C248 C 0.27311 0.22346 0.70447 0.0
C249 C 0.27102 0.20941 0.6921 0.0
C250 C 0.25021 0.20578 0.6822 0.0
C251 C 0.23248 0.29342 0.72728 0.0
C252 C 0.22047 0.30095 0.74293 0.0
C253 C 0.23139 0.30086 0.70818 0.0
C254 C 0.21841 0.31541 0.70479 0.0
C255 C 0.2062 0.32283 0.72042 0.0
C256 C 0.2075 0.31548 0.73954 0.0
C257 C 0.23151 0.21661 0.68517 0.0
H258 H 0.28529 0.2675 0.81844 0.0
H259 H 0.2606 0.26926 0.78959 0.0
H260 H 0.31599 0.25033 0.75308 0.0
H261 H 0.34059 0.24845 0.78194 0.0
H262 H 0.26101 0.28683 0.75769 0.0
H263 H 0.2785 0.23584 0.74185 0.0
H264 H 0.23421 0.26527 0.70464 0.0
H265 H 0.21838 0.23809 0.70017 0.0
H266 H 0.28961 0.22597 0.71143 0.0
H267 H 0.28573 0.20129 0.69055 0.0
H268 H 0.22077 0.29545 0.75778 0.0
H269 H 0.24064 0.29549 0.69584 0.0
H270 H 0.21532 0.21452 0.6776 0.0
H271 H 0.19855 0.32099 0.75196 0.0
H272 H 0.21762 0.32067 0.68986 0.0
C273 C 0.25035 0.81624 0.32963 0.0
C274 C 0.24899 0.81355 0.35025 0.0
C275 C 0.25307 0.80242 0.31714 0.0
C276 C 0.25438 0.78557 0.32497 0.0
C277 C 0.25318 0.78288 0.34559 0.0
C278 C 0.25059 0.79673 0.3581 0.0
C279 C 0.25635 0.77083 0.3116 0.0
C280 C 0.27153 0.77206 0.29498 0.0
C281 C 0.27272 0.75849 0.2817 0.0
C282 C 0.2584 0.74355 0.28535 0.0
C283 C 0.24347 0.74198 0.30208 0.0
C284 C 0.24258 0.75566 0.31514 0.0
C285 C 0.22863 0.72607 0.30581 0.0
C286 C 0.21611 0.7186 0.29042 0.0
C287 C 0.22703 0.71818 0.32474 0.0
C288 C 0.21336 0.70304 0.32817 0.0
C289 C 0.20084 0.69558 0.31277 0.0
C290 C 0.28877 0.75988 0.26402 0.0
C291 C 0.29288 0.77572 0.25366 0.0
C292 C 0.29996 0.74533 0.2572 0.0
C293 C 0.31446 0.74651 0.24032 0.0
C294 C 0.31847 0.76232 0.23006 0.0
C295 C 0.30772 0.77694 0.23697 0.0
C296 C 0.2023 0.70355 0.29388 0.0
H297 H 0.24943 0.82907 0.32314 0.0
H298 H 0.25372 0.80489 0.30131 0.0
H299 H 0.25432 0.77007 0.35207 0.0
H300 H 0.24945 0.79423 0.37392 0.0
H301 H 0.28274 0.78353 0.29263 0.0
H302 H 0.23054 0.7547 0.32773 0.0
H303 H 0.25882 0.73307 0.27516 0.0
H304 H 0.21686 0.72448 0.27571 0.0
H305 H 0.23661 0.72359 0.33685 0.0
H306 H 0.21242 0.69725 0.34291 0.0
H307 H 0.28431 0.78715 0.2582 0.0
H308 H 0.2977 0.73301 0.26499 0.0
H309 H 0.19301 0.69802 0.28169 0.0
H310 H 0.31039 0.78925 0.22919 0.0
H311 H 0.32279 0.73509 0.23541 0.0
C312 C 0.05253 0.53127 0.35532 0.0
C313 C 0.06024 0.53762 0.3731 0.0
C314 C 0.04802 0.5286 0.38776 0.0
C315 C 0.03345 0.51742 0.37817 0.0
N316 N 0.03584 0.51853 0.35825 0.0
Co317 Co 0.01636 0.5059 0.33863 0.0
N318 N 0.99749 0.4933 0.36024 0.0
C319 C 0.00053 0.49439 0.37992 0.0
C320 C 0.98619 0.48328 0.39112 0.0
C321 C 0.97341 0.47434 0.37782 0.0
C322 C 0.98058 0.48067 0.35917 0.0
N323 N 0.99634 0.49383 0.31899 0.0
C324 C 0.97873 0.48183 0.32187 0.0
C325 C 0.96889 0.47718 0.30415 0.0
C326 C 0.98112 0.48624 0.28951 0.0
C327 C 0.9975 0.49599 0.29908 0.0
N328 N 0.03576 0.51794 0.317 0.0
C329 C 0.03409 0.5157 0.29732 0.0
C330 C 0.05008 0.52552 0.28614 0.0
C331 C 0.06257 0.53472 0.29943 0.0
C332 C 0.05327 0.53007 0.31802 0.0
N333 N 0.03807 0.4867 0.33854 0.0
C334 C 0.06761 0.4587 0.33838 0.0
C335 C 0.05725 0.46435 0.32109 0.0
C336 C 0.04277 0.47827 0.32148 0.0
C337 C 0.06322 0.46745 0.35573 0.0
C338 C 0.04843 0.48127 0.3555 0.0
N339 N 0.99469 0.5251 0.33869 0.0
C340 C 0.97528 0.54757 0.32107 0.0
C341 C 0.96581 0.55348 0.33866 0.0
C342 C 0.97063 0.54472 0.35628 0.0
C343 C 0.98506 0.5307 0.35597 0.0
C344 C 0.98944 0.53347 0.3214 0.0
H345 H 0.98837 0.52472 0.3699 0.0
H346 H 0.99607 0.52967 0.30746 0.0
H347 H 0.03552 0.48189 0.30776 0.0
H348 H 0.04551 0.48724 0.36925 0.0
C349 C 0.01713 0.5059 0.38742 0.0
C350 C 0.06084 0.53821 0.33606 0.0
C351 C 0.97152 0.47382 0.34089 0.0
C352 C 0.01569 0.50582 0.28975 0.0
H353 H 0.07305 0.54793 0.37533 0.0
H354 H 0.04926 0.53024 0.40353 0.0
H355 H 0.98542 0.48166 0.40706 0.0
H356 H 0.96057 0.46411 0.38149 0.0
H357 H 0.95474 0.46785 0.30201 0.0
H358 H 0.97887 0.48538 0.27374 0.0
H359 H 0.05188 0.52637 0.27018 0.0
H360 H 0.07651 0.54416 0.29582 0.0
H361 H 0.06045 0.45815 0.30721 0.0
H362 H 0.07078 0.46345 0.36952 0.0
H363 H 0.97166 0.55374 0.307 0.0
H364 H 0.96373 0.54889 0.3703 0.0
C365 C 0.04584 0.5402 0.72169 0.0
C366 C 0.05446 0.54498 0.73982 0.0
C367 C 0.04207 0.5354 0.75392 0.0
C368 C 0.02678 0.52527 0.74366 0.0
N369 N 0.02878 0.52767 0.72381 0.0
Co370 Co 0.01018 0.5155 0.70329 0.0
N371 N 0.9908 0.50235 0.72414 0.0
C372 C 0.99206 0.5038 0.74397 0.0
C373 C 0.9764 0.49316 0.7545 0.0
C374 C 0.96457 0.48422 0.7406 0.0
C375 C 0.97386 0.48988 0.72232 0.0
N376 N 0.9918 0.50307 0.6828 0.0
C377 C 0.97516 0.4902 0.68494 0.0
C378 C 0.96773 0.48451 0.66679 0.0
C379 C 0.98015 0.49407 0.65267 0.0
C380 C 0.99447 0.50494 0.66294 0.0
N381 N 0.02933 0.52891 0.68246 0.0
C382 C 0.02736 0.52799 0.66264 0.0
C383 C 0.04206 0.53936 0.6521 0.0
C384 C 0.05399 0.54823 0.666 0.0
C385 C 0.04593 0.54165 0.68431 0.0
N386 N 0.03279 0.49688 0.70312 0.0
C387 C 0.06291 0.46921 0.70291 0.0
C388 C 0.05721 0.47763 0.68532 0.0
C389 C 0.04219 0.4913 0.68576 0.0
C390 C 0.0537 0.47512 0.72062 0.0
C391 C 0.03891 0.48888 0.72039 0.0
N392 N 0.98753 0.5341 0.70347 0.0
C393 C 0.96351 0.55403 0.68609 0.0
C394 C 0.95606 0.56093 0.70387 0.0
C395 C 0.96458 0.55414 0.72142 0.0
C396 C 0.98018 0.54089 0.72089 0.0
C397 C 0.97906 0.54069 0.68623 0.0
H398 H 0.98616 0.53647 0.73478 0.0
H399 H 0.98399 0.53597 0.6722 0.0
H400 H 0.03824 0.49698 0.67184 0.0
H401 H 0.03252 0.49269 0.73439 0.0
C402 C 0.00927 0.51433 0.75228 0.0
C403 C 0.05385 0.54841 0.70299 0.0
C404 C 0.96667 0.4825 0.70377 0.0
C405 C 0.01108 0.51666 0.65437 0.0
H406 H 0.06801 0.55465 0.74257 0.0
H407 H 0.04363 0.53604 0.76979 0.0
H408 H 0.97428 0.49174 0.77039 0.0
H409 H 0.95096 0.47438 0.74358 0.0
H410 H 0.95498 0.47428 0.664 0.0
H411 H 0.9792 0.49298 0.6368 0.0
H412 H 0.04358 0.54121 0.63622 0.0
H413 H 0.06685 0.55859 0.66297 0.0
H414 H 0.06383 0.47345 0.67121 0.0
H415 H 0.05795 0.46919 0.73466 0.0
H416 H 0.9572 0.55877 0.6721 0.0
H417 H 0.95959 0.55922 0.73557 0.0
C418 C 0.2577 0.98628 0.54456 0.0
C419 C 0.27972 0.98193 0.55045 0.0
C420 C 0.29536 0.99199 0.53938 0.0
C421 C 0.28215 0.00182 0.52731 0.0
N422 N 0.25895 0.99876 0.53013 0.0
Co423 Co 0.2335 0.00963 0.51507 0.0
N424 N 0.25663 0.02232 0.49673 0.0
C425 C 0.28004 0.02119 0.49647 0.0
C426 C 0.2913 0.03124 0.48198 0.0
C427 C 0.27409 0.03945 0.47254 0.0
C428 C 0.25326 0.03402 0.48202 0.0
N429 N 0.20808 0.02097 0.50044 0.0
C430 C 0.2094 0.03343 0.48598 0.0
C431 C 0.18751 0.03875 0.48102 0.0
C432 C 0.1718 0.02939 0.49278 0.0
C433 C 0.18492 0.01902 0.50431 0.0
N434 N 0.21035 0.99639 0.5329 0.0
C435 C 0.18688 0.99686 0.53255 0.0
C436 C 0.17555 0.98594 0.54616 0.0
C437 C 0.19279 0.97769 0.55551 0.0
C438 C 0.21372 0.98404 0.54692 0.0
N439 N 0.23451 0.02918 0.53343 0.0
C440 C 0.23588 0.05763 0.55861 0.0
C441 C 0.21536 0.04761 0.55643 0.0
C442 C 0.21502 0.0337 0.54377 0.0
C443 C 0.25571 0.05301 0.548 0.0
C444 C 0.25472 0.0388 0.53585 0.0
N445 N 0.23255 0.99009 0.49681 0.0
C446 C 0.21089 0.96857 0.47872 0.0
C447 C 0.23143 0.96084 0.47309 0.0
C448 C 0.25252 0.96829 0.4791 0.0
C449 C 0.25268 0.98276 0.49079 0.0
C450 C 0.21184 0.98309 0.49049 0.0
H451 H 0.26934 0.98767 0.49494 0.0
H452 H 0.19561 0.98828 0.49454 0.0
H453 H 0.19871 0.02687 0.54258 0.0
H454 H 0.27056 0.03598 0.52844 0.0
C455 C 0.291 0.01198 0.5113 0.0
C456 C 0.23621 0.97747 0.55209 0.0
C457 C 0.23098 0.04118 0.47732 0.0
C458 C 0.17603 0.00766 0.51918 0.0
H459 H 0.28418 0.97206 0.56107 0.0
H460 H 0.31414 0.99151 0.53936 0.0
H461 H 0.30987 0.03287 0.47908 0.0
H462 H 0.27663 0.04879 0.46044 0.0
H463 H 0.18327 0.04864 0.47033 0.0
H464 H 0.15307 0.03031 0.4932 0.0
H465 H 0.15697 0.98403 0.54879 0.0
H466 H 0.19025 0.9679 0.56711 0.0
H467 H 0.19954 0.05034 0.56452 0.0
H468 H 0.27201 0.06042 0.54875 0.0
H469 H 0.19411 0.96324 0.47447 0.0
H470 H 0.26894 0.96301 0.47476 0.0
C471 C 0.47461 0.78734 0.04639 0.0
C472 C 0.46658 0.80303 0.05232 0.0
C473 C 0.47941 0.81552 0.04196 0.0
C474 C 0.49436 0.80681 0.03024 0.0
N475 N 0.49162 0.78947 0.03221 0.0
Co476 Co 0.50989 0.7719 0.01808 0.0
N477 N 0.52946 0.79035 0.00348 0.0
C478 C 0.52786 0.80758 0.00487 0.0
C479 C 0.54318 0.817 0.99263 0.0
C480 C 0.55513 0.80508 0.98259 0.0
C481 C 0.5463 0.78903 0.98931 0.0
N482 N 0.52846 0.75434 0.0042 0.0
C483 C 0.5456 0.75647 0.99013 0.0
C484 C 0.55345 0.74078 0.98401 0.0
C485 C 0.54078 0.72829 0.99453 0.0
C486 C 0.52595 0.737 0.00637 0.0
N487 N 0.49003 0.75346 0.03245 0.0
C488 C 0.4913 0.73623 0.03064 0.0
C489 C 0.47628 0.72676 0.04307 0.0
C490 C 0.46479 0.7386 0.05359 0.0
C491 C 0.47337 0.75474 0.04682 0.0
N492 N 0.48759 0.77194 0.9961 0.0
C493 C 0.45807 0.77208 0.96349 0.0
C494 C 0.4663 0.75671 0.9711 0.0
C495 C 0.48073 0.75691 0.98737 0.0
C496 C 0.46442 0.78736 0.9727 0.0
C497 C 0.47918 0.78701 0.98878 0.0
N498 N 0.53218 0.77185 0.04003 0.0
C499 C 0.55294 0.75627 0.06493 0.0
C500 C 0.56196 0.77161 0.07249 0.0
C501 C 0.55622 0.78709 0.06327 0.0
C502 C 0.54137 0.78692 0.04723 0.0
C503 C 0.53833 0.75668 0.0488 0.0
H504 H 0.53737 0.79914 0.04104 0.0
H505 H 0.53212 0.74453 0.04381 0.0
H506 H 0.48624 0.74475 0.9925 0.0
H507 H 0.48376 0.79912 0.99486 0.0
C508 C 0.51136 0.81454 0.01744 0.0
C509 C 0.466 0.77084 0.05512 0.0
C510 C 0.55412 0.77297 0.98142 0.0
C511 C 0.50833 0.72929 0.01857 0.0
H512 H 0.45304 0.80524 0.06322 0.0
H513 H 0.47819 0.82932 0.04302 0.0
H514 H 0.54518 0.83087 0.99098 0.0
H515 H 0.56862 0.80788 0.97139 0.0
H516 H 0.56658 0.73856 0.97276 0.0
H517 H 0.54176 0.71449 0.99325 0.0
H518 H 0.47454 0.71288 0.04484 0.0
H519 H 0.45205 0.73558 0.06531 0.0
H520 H 0.46151 0.74453 0.96459 0.0
H521 H 0.45851 0.7996 0.96722 0.0
H522 H 0.55725 0.74394 0.07136 0.0
H523 H 0.56273 0.79933 0.06868 0.0
C524 C 0.81554 0.98727 0.55525 0.0
C525 C 0.83685 0.98249 0.56231 0.0
C526 C 0.85354 0.99222 0.55198 0.0
C527 C 0.84153 0.00241 0.53934 0.0
N528 N 0.81813 0.99991 0.54108 0.0
Co529 Co 0.79408 0.01207 0.52563 0.0
N530 N 0.81872 0.0255 0.50949 0.0
C531 C 0.84205 0.02423 0.51056 0.0
C532 C 0.85455 0.0351 0.49761 0.0
C533 C 0.83826 0.04398 0.48777 0.0
C534 C 0.81669 0.03805 0.49543 0.0
N535 N 0.77002 0.02445 0.51038 0.0
C536 C 0.77263 0.03736 0.49652 0.0
C537 C 0.75127 0.04301 0.49048 0.0
C538 C 0.73459 0.03333 0.50086 0.0
C539 C 0.74661 0.02246 0.51269 0.0
N540 N 0.76943 0.99841 0.54157 0.0
C541 C 0.74608 0.99916 0.53991 0.0
C542 C 0.73357 0.98762 0.55205 0.0
C543 C 0.74985 0.97881 0.56196 0.0
C544 C 0.77148 0.98562 0.55536 0.0
N545 N 0.79407 0.03053 0.54534 0.0
C546 C 0.79385 0.05799 0.57169 0.0
C547 C 0.77311 0.0496 0.5663 0.0
C548 C 0.77362 0.03602 0.55325 0.0
C549 C 0.81474 0.05217 0.56397 0.0
C550 C 0.81445 0.03852 0.55098 0.0
N551 N 0.79407 0.9936 0.50594 0.0
C552 C 0.77309 0.97335 0.4857 0.0
C553 C 0.79377 0.966 0.47976 0.0
C554 C 0.81465 0.97296 0.48682 0.0
C555 C 0.81441 0.98667 0.49973 0.0
C556 C 0.77364 0.98702 0.49863 0.0
H557 H 0.8309 0.99132 0.50461 0.0
H558 H 0.75726 0.99188 0.5027 0.0
H559 H 0.7572 0.03032 0.54961 0.0
H560 H 0.83095 0.03476 0.5456 0.0
C561 C 0.85173 0.01358 0.52481 0.0
C562 C 0.79342 0.97907 0.56208 0.0
C563 C 0.79487 0.0451 0.48923 0.0
C564 C 0.73643 0.01055 0.52644 0.0
H565 H 0.84002 0.97277 0.57356 0.0
H566 H 0.87222 0.99165 0.55321 0.0
H567 H 0.87328 0.03667 0.49586 0.0
H568 H 0.84186 0.05392 0.47647 0.0
H569 H 0.74801 0.05327 0.47993 0.0
H570 H 0.71591 0.03434 0.50015 0.0
H571 H 0.71485 0.98562 0.55326 0.0
H572 H 0.74613 0.96835 0.57258 0.0
H573 H 0.75644 0.05372 0.57173 0.0
H574 H 0.8313 0.05808 0.56796 0.0
H575 H 0.75642 0.96832 0.48078 0.0
H576 H 0.83118 0.9679 0.48238 0.0
C577 C 0.48486 0.26797 0.05195 0.0
C578 C 0.4793 0.28422 0.05804 0.0
C579 C 0.49303 0.29576 0.04701 0.0
C580 C 0.50612 0.28593 0.0349 0.0
N581 N 0.50138 0.2688 0.0373 0.0
Co582 Co 0.51711 0.24981 0.02345 0.0
N583 N 0.53814 0.26679 0.00792 0.0
C584 C 0.53841 0.28418 0.0087 0.0
C585 C 0.5542 0.29241 0.99582 0.0
C586 C 0.56447 0.27955 0.98602 0.0
C587 C 0.55432 0.26415 0.99358 0.0
N588 N 0.53313 0.23083 0.00986 0.0
C589 C 0.54998 0.23163 0.99547 0.0
C590 C 0.55624 0.21535 0.99001 0.0
C591 C 0.54266 0.20383 0.0012 0.0
C592 C 0.52899 0.21368 0.01283 0.0
N593 N 0.49577 0.23285 0.03869 0.0
C594 C 0.49497 0.2155 0.03743 0.0
C595 C 0.47871 0.20729 0.04992 0.0
C596 C 0.46864 0.22015 0.05991 0.0
C597 C 0.47942 0.23551 0.0529 0.0
N598 N 0.49426 0.2507 0.00194 0.0
C599 C 0.46348 0.25187 0.97023 0.0
C600 C 0.46904 0.23618 0.979 0.0
C601 C 0.48446 0.23589 0.99461 0.0
C602 C 0.47325 0.26698 0.97777 0.0
C603 C 0.48829 0.26611 0.99362 0.0
N604 N 0.53997 0.24892 0.04498 0.0
C605 C 0.55862 0.2331 0.07101 0.0
C606 C 0.57069 0.24801 0.07669 0.0
C607 C 0.56749 0.26332 0.06613 0.0
C608 C 0.552 0.26353 0.05058 0.0
C609 C 0.54371 0.23379 0.05505 0.0
H610 H 0.54987 0.27571 0.0435 0.0
H611 H 0.5353 0.22193 0.05126 0.0
H612 H 0.48838 0.2235 1.00034 0.0
H613 H 0.49497 0.27809 0.9988 0.0
C614 C 0.52335 0.29239 0.02149 0.0
C615 C 0.47442 0.25216 0.06094 0.0
C616 C 0.56004 0.24741 0.98613 0.0
C617 C 0.51097 0.20725 0.02552 0.0
H618 H 0.46682 0.28738 0.06946 0.0
H619 H 0.49367 0.30965 0.04795 0.0
H620 H 0.55758 0.30614 0.99362 0.0
H621 H 0.57769 0.28131 0.97441 0.0
H622 H 0.56903 0.21217 0.97885 0.0
H623 H 0.54235 0.18993 0.00056 0.0
H624 H 0.47511 0.19357 0.05196 0.0
H625 H 0.45527 0.21839 0.07141 0.0
H626 H 0.46197 0.22413 0.97352 0.0
H627 H 0.46916 0.27944 0.97156 0.0
H628 H 0.56083 0.22092 0.07874 0.0
H629 H 0.57647 0.2752 0.07019 0.0
H630 H 0.22404 0.34299 0.33979 0.0
H631 H 0.20029 0.36808 0.34403 0.0
H632 H 0.14579 0.34375 0.31057 0.0
H633 H 0.16964 0.31888 0.30581 0.0
H634 H 0.15406 0.37689 0.29884 0.0
H635 H 0.14153 0.34534 0.36077 0.0
H636 H 0.15357 0.3309 0.3915 0.0
H637 H 0.18624 0.37824 0.4101 0.0
H638 H 0.17466 0.39291 0.37933 0.0
H639 H 0.05969 0.4281 0.32044 0.0
H640 H 0.08543 0.404 0.31852 0.0
H641 H 0.13557 0.4313 0.3538 0.0
H642 H 0.10969 0.45547 0.35593 0.0
H643 H 0.13163 0.39786 0.3649 0.0
H644 H 0.14341 0.42975 0.30387 0.0
H645 H 0.13175 0.44449 0.27321 0.0
H646 H 0.1015 0.39697 0.25278 0.0
H647 H 0.11269 0.38198 0.28346 0.0
C648 C 0.20705 0.34304 0.33324 0.0
C649 C 0.1987 0.32891 0.32251 0.0
C650 C 0.19342 0.35731 0.33583 0.0
C651 C 0.17118 0.35771 0.32778 0.0
C652 C 0.16287 0.34369 0.31697 0.0
C653 C 0.17645 0.32942 0.3144 0.0
C654 C 0.15661 0.37282 0.33028 0.0
C655 C 0.14893 0.38135 0.31328 0.0
C656 C 0.15054 0.37897 0.34913 0.0
C657 C 0.15744 0.37018 0.36765 0.0
C658 C 0.15145 0.35264 0.37134 0.0
C659 C 0.15816 0.34442 0.38878 0.0
C660 C 0.17072 0.35364 0.40272 0.0
C661 C 0.17654 0.37111 0.39927 0.0
C662 C 0.16989 0.37939 0.38184 0.0
C663 C 0.07623 0.42899 0.32774 0.0
C664 C 0.08279 0.44375 0.33816 0.0
C665 C 0.09092 0.41522 0.32664 0.0
C666 C 0.11262 0.41598 0.33571 0.0
C667 C 0.11893 0.43047 0.34664 0.0
C668 C 0.10414 0.44424 0.34786 0.0
C669 C 0.12878 0.40175 0.33344 0.0
C670 C 0.13683 0.39343 0.35045 0.0
C671 C 0.13532 0.39583 0.31459 0.0
C672 C 0.12872 0.40477 0.29604 0.0
C673 C 0.13413 0.42246 0.2929 0.0
C674 C 0.12762 0.43086 0.27551 0.0
C675 C 0.11585 0.42168 0.26107 0.0
C676 C 0.11061 0.40407 0.26398 0.0
C677 C 0.11704 0.39561 0.28136 0.0
H678 H 0.11082 0.42821 0.24762 0.0
H679 H 0.1759 0.34725 0.41621 0.0
H680 H 0.15326 0.6974 0.72511 0.0
H681 H 0.12912 0.67105 0.72223 0.0
H682 H 0.18731 0.64592 0.69613 0.0
H683 H 0.21137 0.6725 0.6982 0.0
H684 H 0.14823 0.63808 0.67708 0.0
H685 H 0.17117 0.63828 0.74455 0.0
H686 H 0.17632 0.65023 0.7776 0.0
H687 H 0.1024 0.65443 0.78449 0.0
H688 H 0.09682 0.64272 0.75134 0.0
H689 H 0.09969 0.55231 0.69192 0.0
H690 H 0.1249 0.57859 0.69304 0.0
H691 H 0.06712 0.60622 0.71604 0.0
H692 H 0.042 0.57994 0.71489 0.0
H693 H 0.10685 0.61228 0.73661 0.0
H694 H 0.08434 0.61181 0.66871 0.0
H695 H 0.07973 0.5991 0.636 0.0
H696 H 0.15373 0.59469 0.63023 0.0
H697 H 0.15875 0.6071 0.66309 0.0
C698 C 0.16088 0.68636 0.7185 0.0
C699 C 0.1843 0.68706 0.71193 0.0
C700 C 0.1471 0.67123 0.71707 0.0
C701 C 0.1565 0.65643 0.70924 0.0
C702 C 0.17973 0.65716 0.70231 0.0
C703 C 0.19351 0.67232 0.70368 0.0
C704 C 0.1421 0.64017 0.70842 0.0
C705 C 0.13945 0.6323 0.69014 0.0
C706 C 0.13032 0.63278 0.72542 0.0
C707 C 0.1336 0.63978 0.74538 0.0
C708 C 0.15603 0.64188 0.75304 0.0
C709 C 0.15902 0.64859 0.77181 0.0
C710 C 0.13971 0.65312 0.78311 0.0
C711 C 0.11735 0.65092 0.7757 0.0
C712 C 0.11426 0.64424 0.75693 0.0
C713 C 0.09248 0.56407 0.69706 0.0
C714 C 0.06902 0.5643 0.70317 0.0
C715 C 0.10679 0.57903 0.69769 0.0
C716 C 0.0978 0.59438 0.70447 0.0
C717 C 0.07437 0.59452 0.71075 0.0
C718 C 0.06006 0.57959 0.71003 0.0
C719 C 0.11287 0.61028 0.70527 0.0
C720 C 0.11567 0.61805 0.72356 0.0
C721 C 0.12486 0.61751 0.68831 0.0
C722 C 0.1219 0.61023 0.66845 0.0
C723 C 0.09962 0.608 0.66054 0.0
C724 C 0.09693 0.60087 0.64196 0.0
C725 C 0.11642 0.59605 0.63106 0.0
C726 C 0.13864 0.59841 0.63871 0.0
C727 C 0.14142 0.6055 0.6573 0.0
H728 H 0.1143 0.59053 0.61668 0.0
H729 H 0.14206 0.65831 0.79764 0.0
H730 H 0.81286 0.6713 0.34279 0.0
H731 H 0.83646 0.64603 0.34707 0.0
H732 H 0.89061 0.67039 0.30951 0.0
H733 H 0.86701 0.69557 0.30496 0.0
H734 H 0.88049 0.6368 0.29987 0.0
H735 H 0.89696 0.66865 0.35833 0.0
H736 H 0.88696 0.68358 0.38885 0.0
H737 H 0.85415 0.63692 0.41348 0.0
H738 H 0.86367 0.62176 0.38298 0.0
H739 H 0.97387 0.5838 0.31795 0.0
H740 H 0.94897 0.60842 0.31623 0.0
H741 H 0.89979 0.5824 0.3572 0.0
H742 H 0.9248 0.55769 0.35909 0.0
H743 H 0.90555 0.61591 0.36558 0.0
H744 H 0.88941 0.58373 0.30804 0.0
H745 H 0.89874 0.56841 0.27764 0.0
H746 H 0.92951 0.61507 0.25125 0.0
H747 H 0.92067 0.63063 0.28162 0.0
C748 C 0.82976 0.67122 0.33539 0.0
C749 C 0.83812 0.68542 0.32357 0.0
C750 C 0.84328 0.65685 0.33796 0.0
C751 C 0.86535 0.65641 0.32872 0.0
C752 C 0.87365 0.6705 0.31681 0.0
C753 C 0.86023 0.68491 0.31434 0.0
C754 C 0.87969 0.64114 0.33114 0.0
C755 C 0.88621 0.63235 0.31421 0.0
C756 C 0.88651 0.63504 0.34992 0.0
C757 C 0.88081 0.64412 0.36829 0.0
C758 C 0.88743 0.66161 0.37019 0.0
C759 C 0.88188 0.6701 0.3875 0.0
C760 C 0.86986 0.66122 0.40308 0.0
C761 C 0.86342 0.6438 0.40139 0.0
C762 C 0.86891 0.63524 0.3841 0.0
C763 C 0.9577 0.58328 0.32654 0.0
C764 C 0.95115 0.56873 0.33848 0.0
C765 C 0.9435 0.59737 0.32556 0.0
C766 C 0.92231 0.59712 0.33631 0.0
C767 C 0.91603 0.58284 0.34873 0.0
C768 C 0.93034 0.56875 0.34982 0.0
C769 C 0.90661 0.61169 0.33426 0.0
C770 C 0.89978 0.62032 0.35125 0.0
C771 C 0.89934 0.61759 0.31553 0.0
C772 C 0.90456 0.60831 0.29718 0.0
C773 C 0.89832 0.5907 0.29581 0.0
C774 C 0.9035 0.58198 0.27857 0.0
C775 C 0.91476 0.59075 0.26254 0.0
C776 C 0.92081 0.60829 0.26369 0.0
C777 C 0.9157 0.61707 0.2809 0.0
H778 H 0.91875 0.58398 0.24921 0.0
H779 H 0.86559 0.66781 0.41647 0.0
H780 H 0.8688 0.33265 0.73487 0.0
H781 H 0.89262 0.35913 0.72957 0.0
H782 H 0.83387 0.3843 0.70534 0.0
H783 H 0.81014 0.35754 0.70968 0.0
H784 H 0.87232 0.39295 0.68413 0.0
H785 H 0.85091 0.39118 0.75293 0.0
H786 H 0.84656 0.37849 0.78666 0.0
H787 H 0.92062 0.37437 0.78937 0.0
H788 H 0.9254 0.38682 0.75553 0.0
H789 H 0.92105 0.47863 0.69404 0.0
H790 H 0.89608 0.45216 0.69661 0.0
H791 H 0.95409 0.42407 0.71769 0.0
H792 H 0.97895 0.45054 0.71514 0.0
H793 H 0.91493 0.41752 0.7404 0.0
H794 H 0.93585 0.4196 0.67113 0.0
H795 H 0.93958 0.43302 0.63773 0.0
H796 H 0.86547 0.43737 0.6363 0.0
H797 H 0.86133 0.42422 0.66985 0.0
C798 C 0.86097 0.34372 0.72814 0.0
C799 C 0.83749 0.34294 0.72275 0.0
C800 C 0.87458 0.35893 0.72534 0.0
C801 C 0.86494 0.3738 0.71736 0.0
C802 C 0.84164 0.37302 0.71163 0.0
C803 C 0.82804 0.35775 0.71431 0.0
C804 C 0.87917 0.39016 0.71518 0.0
C805 C 0.88138 0.39845 0.6965 0.0
C806 C 0.89129 0.39722 0.73124 0.0
C807 C 0.88849 0.38979 0.75163 0.0
C808 C 0.86626 0.38745 0.76066 0.0
C809 C 0.86372 0.38032 0.77981 0.0
C810 C 0.8833 0.37559 0.79013 0.0
C811 C 0.90547 0.37802 0.78134 0.0
C812 C 0.90811 0.38513 0.76219 0.0
C813 C 0.92839 0.46672 0.69901 0.0
C814 C 0.95181 0.46642 0.70426 0.0
C815 C 0.91421 0.45165 0.70046 0.0
C816 C 0.9233 0.43613 0.7072 0.0
C817 C 0.94675 0.4359 0.71244 0.0
C818 C 0.96092 0.45093 0.71093 0.0
C819 C 0.90825 0.42019 0.70934 0.0
C820 C 0.90585 0.41201 0.72805 0.0
C821 C 0.89586 0.41333 0.69334 0.0
C822 C 0.89831 0.42108 0.67309 0.0
C823 C 0.92036 0.42354 0.66376 0.0
C824 C 0.92255 0.43108 0.64479 0.0
C825 C 0.90278 0.43608 0.63492 0.0
C826 C 0.88077 0.43351 0.64398 0.0
C827 C 0.8785 0.42601 0.66297 0.0
H828 H 0.90451 0.44192 0.62024 0.0
H829 H 0.88129 0.37007 0.80495 0.0
H830 H 0.2267 0.16588 0.34744 0.0
H831 H 0.22142 0.13988 0.3685 0.0
H832 H 0.26967 0.16151 0.40993 0.0
H833 H 0.27548 0.18732 0.38858 0.0
H834 H 0.27835 0.12955 0.40532 0.0
H835 H 0.20904 0.15959 0.41835 0.0
H836 H 0.17343 0.17459 0.41029 0.0
H837 H 0.14494 0.12891 0.38408 0.0
H838 H 0.18054 0.11369 0.39174 0.0
H839 H 0.24813 0.07286 0.48661 0.0
H840 H 0.25063 0.09906 0.46547 0.0
H841 H 0.21589 0.07168 0.41928 0.0
H842 H 0.21379 0.04533 0.44033 0.0
H843 H 0.19977 0.10607 0.42638 0.0
H844 H 0.27054 0.07631 0.41478 0.0
H845 H 0.3056 0.06187 0.42549 0.0
H846 H 0.33097 0.10843 0.45179 0.0
H847 H 0.29582 0.12308 0.44156 0.0
C848 C 0.23607 0.16509 0.3611 0.0
C849 C 0.25144 0.17862 0.36643 0.0
C850 C 0.23301 0.15026 0.37315 0.0
C851 C 0.24487 0.14882 0.39098 0.0
C852 C 0.26033 0.1623 0.39625 0.0
C853 C 0.26365 0.17704 0.38406 0.0
C854 C 0.24145 0.13317 0.40401 0.0
C855 C 0.26116 0.12459 0.4101 0.0
C856 C 0.21901 0.12645 0.41004 0.0
C857 C 0.19756 0.13556 0.40544 0.0
C858 C 0.19526 0.15278 0.41073 0.0
C859 C 0.17506 0.16132 0.40626 0.0
C860 C 0.15696 0.15272 0.39663 0.0
C861 C 0.15899 0.13556 0.39151 0.0
C862 C 0.17917 0.12696 0.39592 0.0
C863 C 0.2409 0.07255 0.47199 0.0
C864 C 0.23071 0.05724 0.465 0.0
C865 C 0.24232 0.08744 0.45997 0.0
C866 C 0.2335 0.08723 0.44083 0.0
C867 C 0.22269 0.07206 0.43404 0.0
C868 C 0.2215 0.05709 0.446 0.0
C869 C 0.23662 0.10266 0.42761 0.0
C870 C 0.2169 0.11112 0.42151 0.0
C871 C 0.25903 0.10942 0.4218 0.0
C872 C 0.28044 0.10075 0.42755 0.0
C873 C 0.28351 0.08344 0.42296 0.0
C874 C 0.30341 0.07522 0.42894 0.0
C875 C 0.32048 0.08422 0.43935 0.0
C876 C 0.31772 0.10147 0.44374 0.0
C877 C 0.29782 0.10975 0.43785 0.0
H878 H 0.33587 0.07782 0.44397 0.0
H879 H 0.14133 0.15935 0.39319 0.0
H880 H 0.35678 0.75628 0.79683 0.0
H881 H 0.38123 0.75723 0.82583 0.0
H882 H 0.32855 0.78406 0.85748 0.0
H883 H 0.30379 0.78293 0.82865 0.0
H884 H 0.37257 0.79845 0.86229 0.0
H885 H 0.33449 0.74202 0.86678 0.0
H886 H 0.32259 0.71349 0.8545 0.0
H887 H 0.39429 0.70136 0.84663 0.0
H888 H 0.40663 0.72993 0.85862 0.0
H889 H 0.41751 0.78854 0.95847 0.0
H890 H 0.3929 0.78835 0.92948 0.0
H891 H 0.44097 0.756 0.8997 0.0
H892 H 0.46521 0.75577 0.92888 0.0
H893 H 0.39893 0.74457 0.89378 0.0
H894 H 0.43769 0.80039 0.88869 0.0
H895 H 0.45059 0.82903 0.90005 0.0
H896 H 0.37943 0.84256 0.90788 0.0
H897 H 0.36609 0.8139 0.89681 0.0
C898 C 0.35027 0.76224 0.81001 0.0
C899 C 0.32824 0.76945 0.81043 0.0
C900 C 0.36432 0.76283 0.82654 0.0
C901 C 0.3566 0.77058 0.84386 0.0
C902 C 0.33483 0.77805 0.84424 0.0
C903 C 0.32075 0.77743 0.82772 0.0
C904 C 0.37118 0.77076 0.86162 0.0
C905 C 0.37812 0.78668 0.86936 0.0
C906 C 0.37887 0.75541 0.87049 0.0
C907 C 0.37148 0.73818 0.86342 0.0
C908 C 0.34772 0.73332 0.86229 0.0
C909 C 0.34089 0.71713 0.85541 0.0
C910 C 0.35767 0.70564 0.84974 0.0
C911 C 0.38131 0.71029 0.851 0.0
C912 C 0.38823 0.72647 0.85786 0.0
C913 C 0.42284 0.78147 0.94568 0.0
C914 C 0.44325 0.77218 0.94589 0.0
C915 C 0.40882 0.78141 0.9291 0.0
C916 C 0.41523 0.77236 0.91225 0.0
C917 C 0.43562 0.76306 0.9125 0.0
C918 C 0.44945 0.76292 0.92917 0.0
C919 C 0.4005 0.7723 0.89451 0.0
C920 C 0.39347 0.75638 0.88676 0.0
C921 C 0.39292 0.78767 0.88552 0.0
C922 C 0.40089 0.80494 0.8921 0.0
C923 C 0.42479 0.80943 0.89297 0.0
C924 C 0.43218 0.82567 0.89934 0.0
C925 C 0.41584 0.83759 0.90473 0.0
C926 C 0.39207 0.8333 0.90372 0.0
C927 C 0.38458 0.81707 0.89739 0.0
H928 H 0.4216 0.85016 0.90966 0.0
H929 H 0.35235 0.69311 0.84441 0.0
H930 H 0.75422 0.84714 0.35518 0.0
H931 H 0.7582 0.87229 0.37589 0.0
H932 H 0.81025 0.84723 0.40977 0.0
H933 H 0.80631 0.82198 0.38909 0.0
H934 H 0.78 0.86257 0.43352 0.0
H935 H 0.8257 0.87883 0.37539 0.0
H936 H 0.83359 0.88328 0.33962 0.0
H937 H 0.77955 0.9196 0.33654 0.0
H938 H 0.77111 0.91519 0.37226 0.0
H939 H 0.81975 0.93739 0.48252 0.0
H940 H 0.81835 0.9123 0.46154 0.0
H941 H 0.76521 0.93519 0.42688 0.0
H942 H 0.76705 0.96059 0.44739 0.0
H943 H 0.7974 0.92082 0.40365 0.0
H944 H 0.75121 0.90394 0.46173 0.0
H945 H 0.74357 0.89952 0.49755 0.0
H946 H 0.79899 0.86435 0.5007 0.0
H947 H 0.80718 0.86875 0.46493 0.0
C948 C 0.76664 0.84704 0.36695 0.0
C949 C 0.78006 0.83262 0.37042 0.0
C950 C 0.76889 0.86141 0.37878 0.0
C951 C 0.78477 0.86174 0.3942 0.0
C952 C 0.79791 0.84726 0.39793 0.0
C953 C 0.7956 0.83283 0.38614 0.0
C954 C 0.78755 0.87718 0.40647 0.0
C955 C 0.78415 0.87527 0.42702 0.0
C956 C 0.79252 0.8938 0.39795 0.0
C957 C 0.79764 0.89656 0.37648 0.0
C958 C 0.81538 0.88767 0.36706 0.0
C959 C 0.81997 0.8902 0.3468 0.0
C960 C 0.80704 0.90169 0.33581 0.0
C961 C 0.78954 0.9107 0.34507 0.0
C962 C 0.78486 0.9082 0.36533 0.0
C963 C 0.80798 0.93719 0.47027 0.0
C964 C 0.79345 0.95097 0.46667 0.0
C965 C 0.80704 0.92276 0.45842 0.0
C966 C 0.79145 0.92178 0.44282 0.0
C967 C 0.77729 0.93565 0.43891 0.0
C968 C 0.77823 0.95009 0.45074 0.0
C969 C 0.78972 0.90621 0.43067 0.0
C970 C 0.79332 0.90811 0.41014 0.0
C971 C 0.78498 0.88957 0.43922 0.0
C972 C 0.77996 0.88681 0.4607 0.0
C973 C 0.76188 0.89536 0.47009 0.0
C974 C 0.75743 0.89284 0.49038 0.0
C975 C 0.77083 0.8817 0.5014 0.0
C976 C 0.78865 0.873 0.49215 0.0
C977 C 0.7932 0.87549 0.47187 0.0
H978 H 0.76736 0.87977 0.51711 0.0
H979 H 0.81062 0.90363 0.32012 0.0
H980 H 0.66058 0.25666 0.81363 0.0
H981 H 0.63528 0.25325 0.84298 0.0
H982 H 0.69543 0.2526 0.8798 0.0
H983 H 0.7209 0.25481 0.85042 0.0
H984 H 0.66471 0.22941 0.89313 0.0
H985 H 0.66181 0.2891 0.87357 0.0
H986 H 0.6559 0.3137 0.85077 0.0
H987 H 0.58488 0.29623 0.84347 0.0
H988 H 0.59045 0.27138 0.86604 0.0
H989 H 0.60733 0.24892 0.98401 0.0
H990 H 0.63236 0.24938 0.95404 0.0
H991 H 0.57142 0.24477 0.91826 0.0
H992 H 0.54647 0.24445 0.94829 0.0
H993 H 0.60196 0.27013 0.90434 0.0
H994 H 0.60523 0.21084 0.92547 0.0
H995 H 0.61166 0.18702 0.94922 0.0
H996 H 0.68291 0.20473 0.95456 0.0
H997 H 0.6768 0.22883 0.93107 0.0
C998 C 0.6685 0.25554 0.82792 0.0
C999 C 0.69287 0.25608 0.82958 0.0
C1000 C 0.65396 0.25382 0.84475 0.0
C1001 C 0.66341 0.25298 0.86366 0.0
C1002 C 0.6877 0.25332 0.86538 0.0
C1003 C 0.70226 0.2548 0.84854 0.0
C1004 C 0.64803 0.25174 0.88166 0.0
C1005 C 0.65119 0.23846 0.89568 0.0
C1006 C 0.63004 0.26332 0.88486 0.0
C1007 C 0.62662 0.27829 0.87134 0.0
C1008 C 0.64498 0.29044 0.86699 0.0
C1009 C 0.64168 0.30444 0.85413 0.0
C1010 C 0.62004 0.3065 0.84563 0.0
C1011 C 0.60164 0.2946 0.85003 0.0
C1012 C 0.60485 0.28056 0.86288 0.0
C1013 C 0.59945 0.24783 0.9697 0.0
C1014 C 0.57518 0.24657 0.96823 0.0
C1015 C 0.61366 0.24807 0.95265 0.0
C1016 C 0.60374 0.24698 0.93393 0.0
C1017 C 0.57941 0.2456 0.93255 0.0
C1018 C 0.56522 0.24534 0.94961 0.0
C1019 C 0.61871 0.24785 0.91576 0.0
C1020 C 0.61546 0.26108 0.90173 0.0
C1021 C 0.63673 0.23632 0.91266 0.0
C1022 C 0.6405 0.22173 0.92663 0.0
C1023 C 0.62222 0.20973 0.93182 0.0
C1024 C 0.62581 0.19617 0.94522 0.0
C1025 C 0.64766 0.19439 0.95343 0.0
C1026 C 0.66598 0.20614 0.9482 0.0
C1027 C 0.66247 0.21974 0.93483 0.0
H1028 H 0.65041 0.18388 0.9638 0.0
H1029 H 0.61753 0.31735 0.83568 0.0
H1030 H 0.26846 0.85571 0.67817 0.0
H1031 H 0.26495 0.88123 0.65683 0.0
H1032 H 0.22158 0.85187 0.61776 0.0
H1033 H 0.22458 0.82629 0.63927 0.0
H1034 H 0.2552 0.87254 0.59764 0.0
H1035 H 0.19674 0.87841 0.64833 0.0
H1036 H 0.18136 0.87924 0.68258 0.0
H1037 H 0.22802 0.92228 0.69371 0.0
H1038 H 0.24393 0.92155 0.65959 0.0
H1039 H 0.22008 0.94553 0.54246 0.0
H1040 H 0.22023 0.91888 0.5626 0.0
H1041 H 0.25487 0.94648 0.60879 0.0
H1042 H 0.25319 0.97332 0.58913 0.0
H1043 H 0.22378 0.92571 0.62471 0.0
H1044 H 0.28337 0.91926 0.57423 0.0
H1045 H 0.29856 0.91849 0.5399 0.0
H1046 H 0.25028 0.87654 0.52832 0.0
H1047 H 0.23452 0.87725 0.56248 0.0
C1048 C 0.25797 0.85469 0.66516 0.0
C1049 C 0.24666 0.83896 0.66053 0.0
C1050 C 0.25607 0.86928 0.65293 0.0
C1051 C 0.24281 0.86847 0.63583 0.0
C1052 C 0.2319 0.85274 0.6309 0.0
C1053 C 0.23372 0.83813 0.64317 0.0
C1054 C 0.24026 0.88413 0.62323 0.0
C1055 C 0.24806 0.88412 0.60344 0.0
C1056 C 0.23129 0.89929 0.63094 0.0
C1057 C 0.22167 0.89982 0.65145 0.0
C1058 C 0.20385 0.88796 0.65812 0.0
C1059 C 0.19501 0.88843 0.67751 0.0
C1060 C 0.20374 0.90078 0.69033 0.0
C1061 C 0.22129 0.91271 0.68377 0.0
C1062 C 0.23021 0.91228 0.6644 0.0
C1063 C 0.22767 0.94581 0.55695 0.0
C1064 C 0.23699 0.9613 0.5642 0.0
C1065 C 0.22793 0.9306 0.56838 0.0
C1066 C 0.23809 0.93054 0.58706 0.0
C1067 C 0.24709 0.94614 0.59439 0.0
C1068 C 0.24633 0.96142 0.58314 0.0
C1069 C 0.23916 0.91432 0.5991 0.0
C1070 C 0.23096 0.91418 0.61882 0.0
C1071 C 0.24786 0.89905 0.59132 0.0
C1072 C 0.25763 0.89842 0.57087 0.0
C1073 C 0.27591 0.90993 0.56433 0.0
C1074 C 0.28461 0.90951 0.5449 0.0
C1075 C 0.27533 0.89751 0.53191 0.0
C1076 C 0.2574 0.88586 0.53836 0.0
C1077 C 0.24859 0.88626 0.55777 0.0
H1078 H 0.28207 0.89721 0.51686 0.0
H1079 H 0.19688 0.90112 0.70533 0.0
H1080 H 0.71857 0.78052 0.2056 0.0
H1081 H 0.69315 0.78255 0.17733 0.0
H1082 H 0.64195 0.7486 0.2076 0.0
H1083 H 0.66694 0.74686 0.23622 0.0
H1084 H 0.65051 0.7399 0.16848 0.0
H1085 H 0.63285 0.79006 0.20506 0.0
H1086 H 0.64211 0.81702 0.22212 0.0
H1087 H 0.67182 0.83974 0.16825 0.0
H1088 H 0.66304 0.81281 0.15092 0.0
H1089 H 0.55548 0.75216 0.10647 0.0
H1090 H 0.58077 0.75102 0.13489 0.0
H1091 H 0.62784 0.78926 0.10648 0.0
H1092 H 0.60239 0.79059 0.07803 0.0
H1093 H 0.62201 0.79588 0.1445 0.0
H1094 H 0.64007 0.74633 0.10767 0.0
H1095 H 0.63173 0.71944 0.09018 0.0
H1096 H 0.60275 0.69559 0.14372 0.0
H1097 H 0.61061 0.72244 0.16148 0.0
C1098 C 0.70179 0.77364 0.20639 0.0
C1099 C 0.69479 0.76358 0.22328 0.0
C1100 C 0.68733 0.77477 0.19017 0.0
C1101 C 0.66562 0.76583 0.19045 0.0
C1102 C 0.65869 0.75557 0.2071 0.0
C1103 C 0.67306 0.75453 0.2234 0.0
C1104 C 0.65017 0.76713 0.17333 0.0
C1105 C 0.64401 0.7521 0.16337 0.0
C1106 C 0.64227 0.78313 0.16638 0.0
C1107 C 0.6475 0.79935 0.17675 0.0
C1108 C 0.64154 0.80075 0.19689 0.0
C1109 C 0.64667 0.81604 0.2066 0.0
C1110 C 0.65761 0.83007 0.19629 0.0
C1111 C 0.66338 0.82885 0.17623 0.0
C1112 C 0.65832 0.81358 0.16645 0.0
C1113 C 0.57128 0.76026 0.10623 0.0
C1114 C 0.57706 0.77135 0.08995 0.0
C1115 C 0.58573 0.7596 0.12248 0.0
C1116 C 0.60642 0.76984 0.12268 0.0
C1117 C 0.61199 0.78121 0.10663 0.0
C1118 C 0.59743 0.78198 0.09041 0.0
C1119 C 0.62224 0.76862 0.13963 0.0
C1120 C 0.62851 0.78367 0.14956 0.0
C1121 C 0.63039 0.75264 0.14647 0.0
C1122 C 0.62573 0.73645 0.13586 0.0
C1123 C 0.63176 0.7354 0.11568 0.0
C1124 C 0.62714 0.72016 0.10573 0.0
C1125 C 0.61667 0.70583 0.11582 0.0
C1126 C 0.61084 0.70671 0.13592 0.0
C1127 C 0.61539 0.72193 0.14594 0.0
H1128 H 0.61311 0.69405 0.10809 0.0
H1129 H 0.66156 0.84189 0.20383 0.0
H1130 H 0.75508 0.1746 0.69802 0.0
H1131 H 0.75888 0.14956 0.67738 0.0
H1132 H 0.81134 0.17746 0.64118 0.0
H1133 H 0.80697 0.20282 0.6613 0.0
H1134 H 0.78117 0.16045 0.61877 0.0
H1135 H 0.82604 0.14665 0.67527 0.0
H1136 H 0.83358 0.14257 0.71074 0.0
H1137 H 0.77886 0.10324 0.71576 0.0
H1138 H 0.77078 0.10726 0.68036 0.0
H1139 H 0.82046 0.08801 0.56832 0.0
H1140 H 0.81921 0.11293 0.5895 0.0
H1141 H 0.76503 0.08698 0.62569 0.0
H1142 H 0.76669 0.06178 0.60494 0.0
H1143 H 0.79726 0.1031 0.64801 0.0
H1144 H 0.75199 0.1175 0.59153 0.0
H1145 H 0.74483 0.12153 0.55598 0.0
H1146 H 0.80089 0.15979 0.55093 0.0
H1147 H 0.80861 0.15581 0.58641 0.0
C1148 C 0.76727 0.17548 0.68556 0.0
C1149 C 0.78075 0.19073 0.68134 0.0
C1150 C 0.76961 0.16108 0.6739 0.0
C1151 C 0.78563 0.16156 0.6579 0.0
C1152 C 0.79896 0.17678 0.65352 0.0
C1153 C 0.79658 0.19121 0.66514 0.0
C1154 C 0.78822 0.14623 0.64556 0.0
C1155 C 0.78504 0.14797 0.62513 0.0
C1156 C 0.79279 0.12987 0.65391 0.0
C1157 C 0.79767 0.12737 0.67519 0.0
C1158 C 0.8155 0.13723 0.68397 0.0
C1159 C 0.81989 0.13491 0.70406 0.0
C1160 C 0.80667 0.12268 0.71551 0.0
C1161 C 0.78907 0.11272 0.70688 0.0
C1162 C 0.78459 0.115 0.68679 0.0
C1163 C 0.80849 0.08751 0.58094 0.0
C1164 C 0.79361 0.07293 0.5849 0.0
C1165 C 0.80764 0.10182 0.59292 0.0
C1166 C 0.79181 0.10189 0.60901 0.0
C1167 C 0.77731 0.08723 0.61329 0.0
C1168 C 0.77814 0.0729 0.60132 0.0
C1169 C 0.79013 0.11733 0.62127 0.0
C1170 C 0.79347 0.11561 0.64167 0.0
C1171 C 0.78575 0.13372 0.61289 0.0
C1172 C 0.78102 0.13623 0.59159 0.0
C1173 C 0.7629 0.12668 0.58281 0.0
C1174 C 0.75873 0.12897 0.56268 0.0
C1175 C 0.77244 0.14088 0.55119 0.0
C1176 C 0.79031 0.15056 0.55983 0.0
C1177 C 0.79458 0.1483 0.57996 0.0
H1178 H 0.76918 0.14263 0.5356 0.0
H1179 H 0.8101 0.1209 0.73106 0.0
H1180 H 0.37671 0.25745 0.2345 0.0
H1181 H 0.40179 0.25643 0.20501 0.0
H1182 H 0.34128 0.25196 0.16877 0.0
H1183 H 0.3161 0.25192 0.19827 0.0
H1184 H 0.37241 0.23085 0.15658 0.0
H1185 H 0.37411 0.29073 0.17306 0.0
H1186 H 0.37999 0.31548 0.19468 0.0
H1187 H 0.45149 0.30327 0.20154 0.0
H1188 H 0.44595 0.27831 0.18016 0.0
H1189 H 0.42723 0.25235 0.06366 0.0
H1190 H 0.40281 0.25304 0.0939 0.0
H1191 H 0.46451 0.25418 0.129 0.0
H1192 H 0.48883 0.25376 0.09867 0.0
H1193 H 0.43353 0.27671 0.142 0.0
H1194 H 0.43193 0.2173 0.12453 0.0
H1195 H 0.42607 0.19304 0.10223 0.0
H1196 H 0.35415 0.20464 0.09686 0.0
H1197 H 0.35967 0.22918 0.11886 0.0
C1198 C 0.3687 0.25602 0.2203 0.0
C1199 C 0.34432 0.25485 0.21882 0.0
C1200 C 0.38309 0.25566 0.2034 0.0
C1201 C 0.37344 0.25441 0.1846 0.0
C1202 C 0.34915 0.25303 0.18309 0.0
C1203 C 0.33475 0.25321 0.19999 0.0
C1204 C 0.38859 0.25448 0.1665 0.0
C1205 C 0.38556 0.241 0.15328 0.0
C1206 C 0.40616 0.2675 0.16239 0.0
C1207 C 0.40955 0.28256 0.17516 0.0
C1208 C 0.39104 0.29325 0.17929 0.0
C1209 C 0.39432 0.30733 0.19148 0.0
C1210 C 0.41608 0.31092 0.19952 0.0
C1211 C 0.43463 0.30046 0.19533 0.0
C1212 C 0.43144 0.28636 0.18316 0.0
C1213 C 0.43541 0.2528 0.07789 0.0
C1214 C 0.4597 0.25294 0.07909 0.0
C1215 C 0.42156 0.25313 0.0951 0.0
C1216 C 0.43185 0.25345 0.11372 0.0
C1217 C 0.45622 0.25391 0.11481 0.0
C1218 C 0.47006 0.25362 0.09759 0.0
C1219 C 0.4172 0.25317 0.13207 0.0
C1220 C 0.42036 0.26657 0.14533 0.0
C1221 C 0.39972 0.24011 0.13619 0.0
C1222 C 0.39627 0.22518 0.12321 0.0
C1223 C 0.4149 0.21475 0.11849 0.0
C1224 C 0.41164 0.20095 0.10591 0.0
C1225 C 0.38976 0.19732 0.0981 0.0
C1226 C 0.37109 0.20747 0.10291 0.0
C1227 C 0.37427 0.22133 0.11544 0.0
H1228 H 0.38727 0.18662 0.08836 0.0
H1229 H 0.41859 0.32182 0.20896 0.0
H1230 H 0.80706 0.67476 0.74295 0.0
H1231 H 0.83091 0.64986 0.73823 0.0
H1232 H 0.8678 0.67661 0.68953 0.0
H1233 H 0.84384 0.70155 0.6941 0.0
H1234 H 0.85873 0.6434 0.68122 0.0
H1235 H 0.89162 0.67411 0.7351 0.0
H1236 H 0.89116 0.68828 0.76724 0.0
H1237 H 0.86806 0.6406 0.79628 0.0
H1238 H 0.86806 0.62619 0.76426 0.0
H1239 H 0.95655 0.58973 0.67963 0.0
H1240 H 0.93063 0.61382 0.68126 0.0
H1241 H 0.89289 0.58856 0.7305 0.0
H1242 H 0.91876 0.56449 0.72899 0.0
H1243 H 0.90277 0.62136 0.73799 0.0
H1244 H 0.87017 0.5906 0.6838 0.0
H1245 H 0.87095 0.57661 0.65155 0.0
H1246 H 0.8941 0.62448 0.62296 0.0
H1247 H 0.89376 0.63871 0.65509 0.0
C1248 C 0.82028 0.67535 0.73126 0.0
C1249 C 0.82371 0.69017 0.71901 0.0
C1250 C 0.83388 0.66111 0.72856 0.0
C1251 C 0.85141 0.66148 0.71373 0.0
C1252 C 0.85441 0.67605 0.70108 0.0
C1253 C 0.84069 0.69028 0.70369 0.0
C1254 C 0.86693 0.64682 0.71177 0.0
C1255 C 0.8686 0.6387 0.69355 0.0
C1256 C 0.8795 0.64051 0.72796 0.0
C1257 C 0.87964 0.64912 0.74725 0.0
C1258 C 0.88628 0.66668 0.74832 0.0
C1259 C 0.88613 0.67475 0.76652 0.0
C1260 C 0.87953 0.66536 0.78378 0.0
C1261 C 0.87314 0.64786 0.78289 0.0
C1262 C 0.87323 0.63973 0.76473 0.0
C1263 C 0.94253 0.58921 0.69063 0.0
C1264 C 0.93972 0.57521 0.7042 0.0
C1265 C 0.92773 0.60299 0.69155 0.0
C1266 C 0.90969 0.60294 0.70591 0.0
C1267 C 0.90672 0.5889 0.71934 0.0
C1268 C 0.92156 0.57518 0.71849 0.0
C1269 C 0.89441 0.61779 0.70748 0.0
C1270 C 0.89288 0.62601 0.72564 0.0
C1271 C 0.88204 0.6242 0.69122 0.0
C1272 C 0.88216 0.61568 0.67188 0.0
C1273 C 0.8756 0.59811 0.67066 0.0
C1274 C 0.87593 0.59015 0.6524 0.0
C1275 C 0.88263 0.59964 0.63523 0.0
C1276 C 0.88894 0.61714 0.63628 0.0
C1277 C 0.88867 0.62516 0.6545 0.0
H1278 H 0.88287 0.59345 0.6211 0.0
H1279 H 0.87942 0.67163 0.79786 0.0
H1280 H 0.81655 0.34695 0.3495 0.0
H1281 H 0.84045 0.37335 0.35402 0.0
H1282 H 0.89595 0.35289 0.31905 0.0
H1283 H 0.87231 0.32642 0.3147 0.0
H1284 H 0.91169 0.36846 0.3528 0.0
H1285 H 0.86143 0.38125 0.29859 0.0
H1286 H 0.82355 0.3836 0.28267 0.0
H1287 H 0.80251 0.41943 0.32611 0.0
H1288 H 0.84017 0.4171 0.34246 0.0
H1289 H 0.98198 0.44258 0.32715 0.0
H1290 H 0.95682 0.41635 0.32705 0.0
H1291 H 0.90183 0.4431 0.35595 0.0
H1292 H 0.92682 0.46956 0.35525 0.0
H1293 H 0.88452 0.42454 0.32788 0.0
H1294 H 0.93506 0.4135 0.38115 0.0
H1295 H 0.97265 0.41142 0.3976 0.0
H1296 H 0.99268 0.37253 0.35751 0.0
H1297 H 0.95534 0.37455 0.34062 0.0
C1298 C 0.83393 0.34803 0.34294 0.0
C1299 C 0.84252 0.33467 0.33165 0.0
C1300 C 0.8475 0.36314 0.34543 0.0
C1301 C 0.86989 0.36512 0.33672 0.0
C1302 C 0.8787 0.35163 0.32585 0.0
C1303 C 0.86511 0.33659 0.32325 0.0
C1304 C 0.88403 0.38136 0.33852 0.0
C1305 C 0.90588 0.38071 0.34721 0.0
C1306 C 0.8761 0.3974 0.33174 0.0
C1307 C 0.85351 0.39885 0.32187 0.0
C1308 C 0.84865 0.38952 0.30485 0.0
C1309 C 0.82724 0.39087 0.29573 0.0
C1310 C 0.81061 0.40162 0.30341 0.0
C1311 C 0.81539 0.41108 0.3202 0.0
C1312 C 0.83677 0.40976 0.32939 0.0
C1313 C 0.96452 0.44276 0.33349 0.0
C1314 C 0.95629 0.4579 0.3414 0.0
C1315 C 0.95022 0.42779 0.33356 0.0
C1316 C 0.92756 0.42764 0.34185 0.0
C1317 C 0.91927 0.44288 0.34958 0.0
C1318 C 0.93352 0.45792 0.34929 0.0
C1319 C 0.9124 0.41167 0.342 0.0
C1320 C 0.89033 0.41235 0.33366 0.0
C1321 C 0.92006 0.39567 0.34927 0.0
C1322 C 0.94245 0.39428 0.35953 0.0
C1323 C 0.94753 0.40458 0.37576 0.0
C1324 C 0.96879 0.4034 0.38517 0.0
C1325 C 0.98506 0.39187 0.37858 0.0
C1326 C 0.98007 0.38146 0.36259 0.0
C1327 C 0.95884 0.3826 0.35311 0.0
H1328 H 0.00152 0.39099 0.38588 0.0
H1329 H 0.79404 0.40265 0.29632 0.0
H1330 H 0.16308 0.3287 0.73607 0.0
H1331 H 0.13974 0.35378 0.7306 0.0
H1332 H 0.19301 0.37621 0.69071 0.0
H1333 H 0.21689 0.35135 0.69664 0.0
H1334 H 0.17737 0.39974 0.71547 0.0
H1335 H 0.143 0.35854 0.6729 0.0
H1336 H 0.1256 0.33047 0.66363 0.0
H1337 H 0.06933 0.33591 0.70551 0.0
H1338 H 0.08657 0.36392 0.71525 0.0
H1339 H 0.10331 0.46542 0.68146 0.0
H1340 H 0.12831 0.44067 0.68193 0.0
H1341 H 0.08169 0.41447 0.72483 0.0
H1342 H 0.05648 0.43899 0.72418 0.0
H1343 H 0.09513 0.39326 0.69539 0.0
H1344 H 0.13146 0.43369 0.73926 0.0
H1345 H 0.14906 0.4618 0.74818 0.0
H1346 H 0.20191 0.45781 0.70285 0.0
H1347 H 0.18441 0.42976 0.69347 0.0
C1348 C 0.16995 0.33902 0.72625 0.0
C1349 C 0.19188 0.33802 0.7168 0.0
C1350 C 0.15646 0.35328 0.72297 0.0
C1351 C 0.16449 0.36678 0.71004 0.0
C1352 C 0.18643 0.3659 0.70067 0.0
C1353 C 0.19996 0.35162 0.70396 0.0
C1354 C 0.15008 0.38192 0.70666 0.0
C1355 C 0.15952 0.39835 0.71073 0.0
C1356 C 0.12667 0.3801 0.70076 0.0
C1357 C 0.11619 0.36327 0.69492 0.0
C1358 C 0.12701 0.35369 0.68025 0.0
C1359 C 0.11716 0.3378 0.67489 0.0
C1360 C 0.0964 0.33139 0.68401 0.0
C1361 C 0.08542 0.34088 0.69848 0.0
C1362 C 0.09521 0.35678 0.7039 0.0
C1363 C 0.09832 0.45433 0.69087 0.0
C1364 C 0.07801 0.45419 0.70288 0.0
C1365 C 0.11268 0.44025 0.69122 0.0
C1366 C 0.10694 0.4258 0.70355 0.0
C1367 C 0.08646 0.42551 0.71525 0.0
C1368 C 0.07219 0.43959 0.71499 0.0
C1369 C 0.12232 0.41099 0.70449 0.0
C1370 C 0.11305 0.39463 0.69994 0.0
C1371 C 0.1459 0.4129 0.70986 0.0
C1372 C 0.15647 0.42973 0.71552 0.0
C1373 C 0.14671 0.43888 0.73108 0.0
C1374 C 0.15669 0.45479 0.73624 0.0
C1375 C 0.17655 0.46161 0.72605 0.0
C1376 C 0.1865 0.45252 0.71071 0.0
C1377 C 0.17657 0.43661 0.70547 0.0
H1378 H 0.18425 0.47393 0.73007 0.0
H1379 H 0.0888 0.31908 0.67984 0.0
H1380 H 0.21239 0.66647 0.33318 0.0
H1381 H 0.18884 0.63966 0.33838 0.0
H1382 H 0.13337 0.66138 0.30547 0.0
H1383 H 0.15672 0.6883 0.30041 0.0
H1384 H 0.11772 0.64416 0.34012 0.0
H1385 H 0.16769 0.63408 0.28371 0.0
H1386 H 0.20543 0.6328 0.26585 0.0
H1387 H 0.22762 0.59539 0.30841 0.0
H1388 H 0.19011 0.59663 0.32669 0.0
H1389 H 0.04902 0.56928 0.32123 0.0
H1390 H 0.07334 0.59593 0.31823 0.0
H1391 H 0.13005 0.56993 0.34491 0.0
H1392 H 0.1059 0.54308 0.34714 0.0
H1393 H 0.14591 0.58926 0.31491 0.0
H1394 H 0.09631 0.59818 0.37095 0.0
H1395 H 0.059 0.5992 0.3895 0.0
H1396 H 0.03677 0.63853 0.34935 0.0
H1397 H 0.07382 0.63757 0.33036 0.0
C1398 C 0.1951 0.66557 0.3272 0.0
C1399 C 0.18642 0.67945 0.31633 0.0
C1400 C 0.18174 0.65023 0.33008 0.0
C1401 C 0.15945 0.64851 0.32217 0.0
C1402 C 0.15056 0.66245 0.31165 0.0
C1403 C 0.16396 0.67775 0.30865 0.0
C1404 C 0.14548 0.63209 0.32463 0.0
C1405 C 0.12373 0.63218 0.33444 0.0
C1406 C 0.15369 0.6164 0.3177 0.0
C1407 C 0.1762 0.61559 0.30668 0.0
C1408 C 0.18069 0.62569 0.28935 0.0
C1409 C 0.20203 0.62495 0.27913 0.0
C1410 C 0.21893 0.61405 0.28602 0.0
C1411 C 0.21452 0.60384 0.30311 0.0
C1412 C 0.19322 0.60455 0.31339 0.0
C1413 C 0.0667 0.56935 0.32643 0.0
C1414 C 0.07563 0.55433 0.33461 0.0
C1415 C 0.08052 0.58455 0.32484 0.0
C1416 C 0.1034 0.58504 0.3317 0.0
C1417 C 0.11243 0.5699 0.33963 0.0
C1418 C 0.09865 0.55463 0.34101 0.0
C1419 C 0.11798 0.60129 0.33033 0.0
C1420 C 0.13988 0.6012 0.32072 0.0
C1421 C 0.10999 0.61695 0.33762 0.0
C1422 C 0.08778 0.6177 0.34913 0.0
C1423 C 0.08341 0.60697 0.36599 0.0
C1424 C 0.06231 0.60755 0.3766 0.0
C1425 C 0.04551 0.6189 0.37058 0.0
C1426 C 0.0498 0.62974 0.35398 0.0
C1427 C 0.07085 0.62919 0.3433 0.0
H1428 H 0.02918 0.61932 0.37881 0.0
H1429 H 0.23544 0.6135 0.27809 0.0
H1430 H 0.79526 0.82983 0.65067 0.0
H1431 H 0.7992 0.85559 0.62925 0.0
H1432 H 0.76277 0.8843 0.67301 0.0
H1433 H 0.75754 0.85837 0.69401 0.0
H1434 H 0.74777 0.89222 0.63809 0.0
H1435 H 0.82336 0.88783 0.66583 0.0
H1436 H 0.85953 0.87367 0.67419 0.0
H1437 H 0.87527 0.86746 0.61255 0.0
H1438 H 0.83902 0.88139 0.60382 0.0
H1439 H 0.77973 0.97624 0.60084 0.0
H1440 H 0.7776 0.9501 0.62213 0.0
H1441 H 0.80495 0.92101 0.5741 0.0
H1442 H 0.80693 0.94717 0.55279 0.0
H1443 H 0.82486 0.91329 0.61057 0.0
H1444 H 0.74905 0.91855 0.58329 0.0
H1445 H 0.71367 0.93394 0.57555 0.0
H1446 H 0.69886 0.93936 0.63748 0.0
H1447 H 0.73444 0.92429 0.64559 0.0
C1448 C 0.78783 0.84156 0.65567 0.0
C1449 C 0.77614 0.84199 0.67415 0.0
C1450 C 0.79036 0.85636 0.64349 0.0
C1451 C 0.78162 0.87198 0.64964 0.0
C1452 C 0.76978 0.87242 0.66798 0.0
C1453 C 0.76703 0.8576 0.68008 0.0
C1454 C 0.78453 0.88784 0.6369 0.0
C1455 C 0.76468 0.89692 0.63231 0.0
C1456 C 0.80653 0.89383 0.62898 0.0
C1457 C 0.82836 0.8855 0.63418 0.0
C1458 C 0.83445 0.88333 0.65406 0.0
C1459 C 0.85498 0.87537 0.65887 0.0
C1460 C 0.86966 0.86963 0.64391 0.0
C1461 C 0.86387 0.87189 0.62412 0.0
C1462 C 0.84334 0.87983 0.61923 0.0
C1463 C 0.78533 0.96424 0.59496 0.0
C1464 C 0.79327 0.96352 0.57526 0.0
C1465 C 0.78412 0.94937 0.60704 0.0
C1466 C 0.79091 0.93361 0.5996 0.0
C1467 C 0.79961 0.93304 0.58009 0.0
C1468 C 0.80068 0.9479 0.56796 0.0
C1469 C 0.78817 0.91762 0.61197 0.0
C1470 C 0.80799 0.90853 0.61641 0.0
C1471 C 0.7662 0.91168 0.61988 0.0
C1472 C 0.74453 0.92043 0.61504 0.0
C1473 C 0.73834 0.92313 0.59526 0.0
C1474 C 0.71824 0.93179 0.5908 0.0
C1475 C 0.70405 0.93766 0.60601 0.0
C1476 C 0.70989 0.93483 0.62571 0.0
C1477 C 0.73002 0.92622 0.63025 0.0
H1478 H 0.6885 0.94437 0.60253 0.0
H1479 H 0.88554 0.86347 0.64766 0.0
H1480 H 0.66977 0.24986 0.24488 0.0
H1481 H 0.64546 0.24805 0.21588 0.0
H1482 H 0.70669 0.2522 0.17782 0.0
H1483 H 0.73133 0.25305 0.20668 0.0
H1484 H 0.66851 0.27549 0.16859 0.0
H1485 H 0.68356 0.21549 0.18171 0.0
H1486 H 0.68425 0.18921 0.20286 0.0
H1487 H 0.61039 0.19053 0.21305 0.0
H1488 H 0.60932 0.21698 0.19218 0.0
H1489 H 0.61633 0.2587 0.0775 0.0
H1490 H 0.64178 0.25868 0.10596 0.0
H1491 H 0.58484 0.23743 0.14299 0.0
H1492 H 0.55981 0.2366 0.11425 0.0
H1493 H 0.6213 0.22284 0.15328 0.0
H1494 H 0.60419 0.2818 0.14213 0.0
H1495 H 0.60116 0.30908 0.12313 0.0
H1496 H 0.67505 0.31148 0.11201 0.0
H1497 H 0.67849 0.28407 0.13072 0.0
C1498 C 0.67819 0.25008 0.2304 0.0
C1499 C 0.70263 0.25156 0.22824 0.0
C1500 C 0.66421 0.24918 0.21384 0.0
C1501 C 0.67433 0.24999 0.19478 0.0
C1502 C 0.6986 0.25165 0.19246 0.0
C1503 C 0.71263 0.25225 0.20901 0.0
C1504 C 0.65953 0.24918 0.17724 0.0
C1505 C 0.65839 0.26393 0.16502 0.0
C1506 C 0.64579 0.23428 0.17311 0.0
C1507 C 0.6464 0.21831 0.18555 0.0
C1508 C 0.6675 0.21027 0.1886 0.0
C1509 C 0.66796 0.19532 0.20051 0.0
C1510 C 0.64739 0.18823 0.20934 0.0
C1511 C 0.62631 0.19604 0.20622 0.0
C1512 C 0.62577 0.21101 0.19434 0.0
C1513 C 0.60936 0.254 0.09174 0.0
C1514 C 0.58617 0.24771 0.09379 0.0
C1515 C 0.62383 0.25408 0.10803 0.0
C1516 C 0.61514 0.2484 0.12679 0.0
C1517 C 0.59199 0.2419 0.12873 0.0
C1518 C 0.57768 0.24145 0.11234 0.0
C1519 C 0.63015 0.24921 0.14438 0.0
C1520 C 0.63135 0.23445 0.15671 0.0
C1521 C 0.64355 0.26428 0.14887 0.0
C1522 C 0.64156 0.28079 0.13767 0.0
C1523 C 0.61977 0.28808 0.13552 0.0
C1524 C 0.61798 0.30358 0.12481 0.0
C1525 C 0.63789 0.31198 0.11633 0.0
C1526 C 0.65964 0.30494 0.11857 0.0
C1527 C 0.66153 0.28943 0.12923 0.0
H1528 H 0.63647 0.32398 0.10805 0.0
H1529 H 0.64777 0.17665 0.21855 0.0
H1530 H 0.28416 0.1921 0.65872 0.0
H1531 H 0.28081 0.167 0.63824 0.0
H1532 H 0.20757 0.16102 0.65347 0.0
H1533 H 0.21124 0.18507 0.67559 0.0
H1534 H 0.22307 0.13145 0.65336 0.0
H1535 H 0.23047 0.17836 0.60674 0.0
H1536 H 0.24738 0.20505 0.59075 0.0
H1537 H 0.31049 0.17967 0.57748 0.0
H1538 H 0.29407 0.15287 0.59363 0.0
H1539 H 0.20108 0.07997 0.56642 0.0
H1540 H 0.20256 0.1048 0.58778 0.0
H1541 H 0.27395 0.09552 0.60069 0.0
H1542 H 0.27237 0.06999 0.58053 0.0
H1543 H 0.25759 0.13269 0.58543 0.0
H1544 H 0.24713 0.08561 0.63503 0.0
H1545 H 0.22628 0.05952 0.649 0.0
H1546 H 0.16327 0.08698 0.65366 0.0
H1547 H 0.18371 0.11317 0.63941 0.0
C1548 C 0.26738 0.18533 0.65807 0.0
C1549 C 0.24799 0.19077 0.66895 0.0
C1550 C 0.26539 0.1711 0.64597 0.0
C1551 C 0.24381 0.16226 0.64389 0.0
C1552 C 0.22441 0.16764 0.65469 0.0
C1553 C 0.2265 0.18162 0.66717 0.0
C1554 C 0.24161 0.14718 0.63085 0.0
C1555 C 0.23038 0.1319 0.63843 0.0
C1556 C 0.25115 0.14756 0.61131 0.0
C1557 C 0.26111 0.16365 0.60156 0.0
C1558 C 0.24802 0.1785 0.60054 0.0
C1559 C 0.2575 0.19365 0.59143 0.0
C1560 C 0.28001 0.19407 0.58315 0.0
C1561 C 0.29307 0.17933 0.58392 0.0
C1562 C 0.28367 0.16415 0.59303 0.0
C1563 C 0.217 0.08292 0.57407 0.0
C1564 C 0.23661 0.07283 0.57164 0.0
C1565 C 0.21784 0.09724 0.58612 0.0
C1566 C 0.23837 0.10193 0.59569 0.0
C1567 C 0.258 0.09209 0.59328 0.0
C1568 C 0.25706 0.07756 0.58159 0.0
C1569 C 0.23943 0.11722 0.60815 0.0
C1570 C 0.25032 0.13247 0.60038 0.0
C1571 C 0.22907 0.11696 0.62727 0.0
C1572 C 0.21686 0.10126 0.63593 0.0
C1573 C 0.22877 0.08602 0.63883 0.0
C1574 C 0.21705 0.07123 0.64685 0.0
C1575 C 0.19345 0.07157 0.65216 0.0
C1576 C 0.18154 0.08672 0.64951 0.0
C1577 C 0.19319 0.10154 0.64147 0.0
H1578 H 0.1844 0.06011 0.65837 0.0
H1579 H 0.28733 0.2058 0.5761 0.0
H1580 H 0.35507 0.78506 0.22184 0.0
H1581 H 0.38033 0.78682 0.19218 0.0
H1582 H 0.34072 0.74437 0.1678 0.0
H1583 H 0.31613 0.74213 0.19785 0.0
H1584 H 0.38352 0.74007 0.16018 0.0
H1585 H 0.33532 0.78813 0.15247 0.0
H1586 H 0.31656 0.81477 0.16174 0.0
H1587 H 0.38357 0.84078 0.16583 0.0
H1588 H 0.40276 0.81421 0.15684 0.0
H1589 H 0.42083 0.75865 0.05901 0.0
H1590 H 0.39587 0.75755 0.08907 0.0
H1591 H 0.45118 0.78231 0.12118 0.0
H1592 H 0.47651 0.78273 0.09137 0.0
H1593 H 0.40079 0.79576 0.12415 0.0
H1594 H 0.4478 0.74554 0.13148 0.0
H1595 H 0.46401 0.71884 0.11934 0.0
H1596 H 0.39494 0.69683 0.11296 0.0
H1597 H 0.37832 0.72356 0.12471 0.0
C1598 C 0.35178 0.77615 0.21009 0.0
C1599 C 0.33365 0.7635 0.21206 0.0
C1600 C 0.36613 0.7772 0.19311 0.0
C1601 C 0.36222 0.76593 0.17752 0.0
C1602 C 0.34414 0.75322 0.17957 0.0
C1603 C 0.33008 0.75195 0.19672 0.0
C1604 C 0.3771 0.76723 0.1592 0.0
C1605 C 0.38701 0.75225 0.15224 0.0
C1606 C 0.38194 0.78311 0.14879 0.0
C1607 C 0.37047 0.79913 0.15418 0.0
C1608 C 0.34606 0.79949 0.15549 0.0
C1609 C 0.33535 0.81459 0.16067 0.0
C1610 C 0.34887 0.82945 0.16442 0.0
C1611 C 0.37313 0.82925 0.16295 0.0
C1612 C 0.38393 0.81418 0.1578 0.0
C1613 C 0.42762 0.76373 0.07255 0.0
C1614 C 0.45058 0.77056 0.07308 0.0
C1615 C 0.4134 0.76317 0.0896 0.0
C1616 C 0.42178 0.76982 0.10725 0.0
C1617 C 0.44447 0.77714 0.10765 0.0
C1618 C 0.45887 0.77734 0.09072 0.0
C1619 C 0.40703 0.7687 0.12544 0.0
C1620 C 0.39719 0.78367 0.13225 0.0
C1621 C 0.40185 0.7528 0.13547 0.0
C1622 C 0.41182 0.73662 0.12876 0.0
C1623 C 0.43607 0.73507 0.1273 0.0
C1624 C 0.44533 0.71992 0.12052 0.0
C1625 C 0.43051 0.70616 0.11532 0.0
C1626 C 0.4064 0.70751 0.11696 0.0
C1627 C 0.39705 0.72265 0.12369 0.0
H1628 H 0.43772 0.69444 0.11008 0.0
H1629 H 0.34054 0.84112 0.16842 0.0
H1630 H 0.8009 0.19527 0.40207 0.0
H1631 H 0.80396 0.16945 0.42317 0.0
H1632 H 0.76973 0.13893 0.37921 0.0
H1633 H 0.76609 0.16481 0.35835 0.0
H1634 H 0.75297 0.12957 0.41401 0.0
H1635 H 0.83019 0.13926 0.38622 0.0
H1636 H 0.86673 0.15595 0.37802 0.0
H1637 H 0.8788 0.16247 0.43976 0.0
H1638 H 0.84215 0.146 0.44832 0.0
H1639 H 0.78269 0.04733 0.45068 0.0
H1640 H 0.78162 0.07346 0.42956 0.0
H1641 H 0.80714 0.10393 0.47743 0.0
H1642 H 0.80816 0.07775 0.49854 0.0
H1643 H 0.82856 0.11327 0.44116 0.0
H1644 H 0.7512 0.10276 0.46851 0.0
H1645 H 0.71541 0.08499 0.47612 0.0
H1646 H 0.70419 0.07927 0.41414 0.0
H1647 H 0.74019 0.09673 0.40615 0.0
C1648 C 0.79413 0.18302 0.39691 0.0
C1649 C 0.78332 0.18202 0.37856 0.0
C1650 C 0.79594 0.16827 0.40893 0.0
C1651 C 0.7874 0.15216 0.40266 0.0
C1652 C 0.77644 0.15119 0.38439 0.0
C1653 C 0.77436 0.16597 0.37248 0.0
C1654 C 0.78964 0.13635 0.41519 0.0
C1655 C 0.76958 0.12591 0.4197 0.0
C1656 C 0.81121 0.13171 0.42301 0.0
C1657 C 0.83331 0.14154 0.4179 0.0
C1658 C 0.84055 0.14435 0.39804 0.0
C1659 C 0.8613 0.15376 0.39333 0.0
C1660 C 0.87505 0.1603 0.40835 0.0
C1661 C 0.86811 0.15741 0.42813 0.0
C1662 C 0.84737 0.14803 0.43292 0.0
C1663 C 0.78813 0.05964 0.45656 0.0
C1664 C 0.7953 0.06072 0.47615 0.0
C1665 C 0.78751 0.0745 0.44457 0.0
C1666 C 0.79407 0.09063 0.45203 0.0
C1667 C 0.80198 0.09161 0.47143 0.0
C1668 C 0.80251 0.07674 0.48345 0.0
C1669 C 0.79197 0.10654 0.43978 0.0
C1670 C 0.81201 0.11698 0.43539 0.0
C1671 C 0.77043 0.11113 0.43196 0.0
C1672 C 0.74851 0.10093 0.43673 0.0
C1673 C 0.74119 0.09762 0.4565 0.0
C1674 C 0.72086 0.08761 0.46089 0.0
C1675 C 0.70756 0.08098 0.44562 0.0
C1676 C 0.71453 0.08439 0.42594 0.0
C1677 C 0.73489 0.09435 0.42148 0.0
H1678 H 0.69183 0.07323 0.44905 0.0
H1679 H 0.8911 0.16758 0.40468 0.0
H1680 H 0.36015 0.26938 0.80487 0.0
H1681 H 0.38504 0.26797 0.83357 0.0
H1682 H 0.32865 0.24266 0.8679 0.0
H1683 H 0.30352 0.24444 0.8393 0.0
H1684 H 0.34927 0.2657 0.88926 0.0
H1685 H 0.37562 0.22045 0.84932 0.0
H1686 H 0.38996 0.20696 0.8191 0.0
H1687 H 0.45111 0.24068 0.81793 0.0
H1688 H 0.43697 0.25455 0.84801 0.0
H1689 H 0.42122 0.23503 0.96655 0.0
H1690 H 0.39562 0.23592 0.93811 0.0
H1691 H 0.44515 0.27063 0.90694 0.0
H1692 H 0.47073 0.26991 0.93538 0.0
H1693 H 0.42792 0.24207 0.8845 0.0
H1694 H 0.39986 0.28717 0.9252 0.0
H1695 H 0.38501 0.29916 0.95616 0.0
H1696 H 0.32614 0.26326 0.95659 0.0
H1697 H 0.34085 0.25088 0.92577 0.0
C1698 C 0.35313 0.26342 0.81852 0.0
C1699 C 0.32994 0.25694 0.81984 0.0
C1700 C 0.36737 0.26259 0.8349 0.0
C1701 C 0.35886 0.25495 0.85284 0.0
C1702 C 0.33563 0.2486 0.85423 0.0
C1703 C 0.32128 0.24963 0.8379 0.0
C1704 C 0.37411 0.25381 0.87021 0.0
C1705 C 0.36631 0.26029 0.88825 0.0
C1706 C 0.39654 0.24698 0.8689 0.0
C1707 C 0.40512 0.23865 0.85082 0.0
C1708 C 0.39204 0.22508 0.84253 0.0
C1709 C 0.40015 0.21735 0.82544 0.0
C1710 C 0.4214 0.22299 0.81657 0.0
C1711 C 0.43463 0.23634 0.8248 0.0
C1712 C 0.42659 0.24414 0.84189 0.0
C1713 C 0.42663 0.24282 0.9536 0.0
C1714 C 0.44789 0.25245 0.95315 0.0
C1715 C 0.41199 0.24336 0.93744 0.0
C1716 C 0.4185 0.25339 0.92049 0.0
C1717 C 0.43984 0.26284 0.91991 0.0
C1718 C 0.45433 0.2625 0.93617 0.0
C1719 C 0.40304 0.25401 0.90335 0.0
C1720 C 0.41082 0.24742 0.88541 0.0
C1721 C 0.3805 0.2605 0.90482 0.0
C1722 C 0.37159 0.26798 0.9233 0.0
C1723 C 0.38387 0.28173 0.932 0.0
C1724 C 0.37545 0.28861 0.9495 0.0
C1725 C 0.35468 0.28194 0.95837 0.0
C1726 C 0.34225 0.26839 0.94972 0.0
C1727 C 0.35061 0.26145 0.93223 0.0
H1728 H 0.34819 0.28729 0.97191 0.0
H1729 H 0.42765 0.21698 0.80334 0.0
H1730 H 0.21932 0.83983 0.34579 0.0
H1731 H 0.21449 0.86431 0.36718 0.0
H1732 H 0.26638 0.84499 0.40597 0.0
H1733 H 0.27116 0.82038 0.38468 0.0
H1734 H 0.2306 0.85623 0.42693 0.0
H1735 H 0.27927 0.87838 0.37276 0.0
H1736 H 0.29036 0.88437 0.33776 0.0
H1737 H 0.22969 0.91398 0.33052 0.0
H1738 H 0.21806 0.90796 0.36543 0.0
H1739 H 0.25767 0.93262 0.4779 0.0
H1740 H 0.25859 0.9073 0.45743 0.0
H1741 H 0.20495 0.92766 0.42123 0.0
H1742 H 0.20449 0.95339 0.44131 0.0
H1743 H 0.24009 0.91585 0.399 0.0
H1744 H 0.19272 0.8944 0.45442 0.0
H1745 H 0.18335 0.88893 0.48983 0.0
H1746 H 0.24342 0.85837 0.49513 0.0
H1747 H 0.25333 0.86385 0.45981 0.0
C1748 C 0.2298 0.84085 0.35881 0.0
C1749 C 0.24575 0.82824 0.36347 0.0
C1750 C 0.227 0.85483 0.37105 0.0
C1751 C 0.2403 0.85662 0.38805 0.0
C1752 C 0.25592 0.84388 0.39294 0.0
C1753 C 0.25863 0.82982 0.38077 0.0
C1754 C 0.23812 0.87187 0.4006 0.0
C1755 C 0.23292 0.86926 0.42086 0.0
C1756 C 0.24069 0.88889 0.39263 0.0
C1757 C 0.24767 0.89257 0.37165 0.0
C1758 C 0.2682 0.88605 0.36366 0.0
C1759 C 0.2746 0.88947 0.34385 0.0
C1760 C 0.2607 0.89951 0.33191 0.0
C1761 C 0.24041 0.90619 0.33978 0.0
C1762 C 0.23391 0.90279 0.35958 0.0
C1763 C 0.24614 0.93177 0.46552 0.0
C1764 C 0.23107 0.94507 0.46118 0.0
C1765 C 0.24651 0.91719 0.45396 0.0
C1766 C 0.23167 0.9155 0.43792 0.0
C1767 C 0.2165 0.92868 0.43359 0.0
C1768 C 0.21612 0.9433 0.44516 0.0
C1769 C 0.23258 0.90021 0.42531 0.0
C1770 C 0.2376 0.90281 0.40504 0.0
C1771 C 0.23001 0.88321 0.43331 0.0
C1772 C 0.22386 0.87964 0.45449 0.0
C1773 C 0.204 0.88659 0.46316 0.0
C1774 C 0.19859 0.88348 0.48322 0.0
C1775 C 0.21281 0.87334 0.49474 0.0
C1776 C 0.23243 0.86623 0.4862 0.0
C1777 C 0.23793 0.86932 0.46615 0.0
H1778 H 0.2086 0.87097 0.51027 0.0
H1779 H 0.26569 0.90215 0.31657 0.0
H1780 H 0.67797 0.79589 0.82108 0.0
H1781 H 0.65383 0.79667 0.85122 0.0
H1782 H 0.66239 0.7424 0.86174 0.0
H1783 H 0.68694 0.74154 0.83184 0.0
H1784 H 0.61725 0.75103 0.86767 0.0
H1785 H 0.69306 0.77066 0.88761 0.0
H1786 H 0.72927 0.78885 0.88567 0.0
H1787 H 0.6901 0.8339 0.89457 0.0
H1788 H 0.6536 0.81599 0.89627 0.0
H1789 H 0.60039 0.767 0.97968 0.0
H1790 H 0.62572 0.76636 0.94995 0.0
H1791 H 0.56795 0.77952 0.9138 0.0
H1792 H 0.54264 0.77993 0.94352 0.0
H1793 H 0.63887 0.79028 0.92149 0.0
H1794 H 0.57175 0.75736 0.87098 0.0
H1795 H 0.53668 0.73798 0.87414 0.0
H1796 H 0.56119 0.71669 0.92859 0.0
H1797 H 0.59657 0.73572 0.92558 0.0
C1798 C 0.67492 0.78414 0.82988 0.0
C1799 C 0.68452 0.76866 0.82405 0.0
C1800 C 0.66103 0.7846 0.84706 0.0
C1801 C 0.65647 0.76962 0.85878 0.0
C1802 C 0.66564 0.7541 0.85286 0.0
C1803 C 0.67961 0.75362 0.83572 0.0
C1804 C 0.64232 0.77018 0.87734 0.0
C1805 C 0.62196 0.75963 0.87942 0.0
C1806 C 0.64866 0.78121 0.8928 0.0
C1807 C 0.67058 0.792 0.89188 0.0
C1808 C 0.69215 0.78446 0.889 0.0
C1809 C 0.71273 0.79472 0.88797 0.0
C1810 C 0.71198 0.81252 0.88995 0.0
C1811 C 0.69065 0.82011 0.89301 0.0
C1812 C 0.67001 0.80991 0.89403 0.0
C1813 C 0.59327 0.7698 0.96533 0.0
C1814 C 0.56971 0.77338 0.96366 0.0
C1815 C 0.60768 0.7695 0.94843 0.0
C1816 C 0.59865 0.77271 0.92966 0.0
C1817 C 0.57519 0.77678 0.92811 0.0
C1818 C 0.56079 0.77706 0.945 0.0
C1819 C 0.61361 0.77134 0.91167 0.0
C1820 C 0.63413 0.78173 0.90971 0.0
C1821 C 0.6076 0.75997 0.89645 0.0
C1822 C 0.5867 0.74809 0.89813 0.0
C1823 C 0.56972 0.74847 0.88356 0.0
C1824 C 0.54978 0.73755 0.88534 0.0
C1825 C 0.54668 0.72614 0.90158 0.0
C1826 C 0.56358 0.72556 0.91604 0.0
C1827 C 0.58357 0.73642 0.9143 0.0
H1828 H 0.5312 0.71773 0.90295 0.0
H1829 H 0.72794 0.82044 0.88915 0.0
loop_
_geom_bond_atom_site_label_1
_geom_bond_atom_site_label_2
_geom_bond_distance
_geom_bond_site_symmetry_2
_ccdc_geom_bond_type
C0 C1 1.386 . S
C0 C2 1.397 . S
C0 H24 0.931 . S
C1 C0 1.386 . S
C1 C5 1.397 . S
C2 C0 1.397 . S
C2 C3 1.384 . S
C2 H25 0.930 . S
C3 C2 1.384 . S
C3 C4 1.377 . S
C3 C6 1.481 . S
C4 C3 1.377 . S
C4 C5 1.389 . S
C4 H26 0.929 . S
C5 C1 1.397 . S
C5 C4 1.389 . S
C5 H27 0.931 . S
C6 C3 1.481 . S
C6 C7 1.387 . S
C6 C11 1.390 . S
C7 C6 1.387 . S
C7 C8 1.401 . S
C7 H28 0.930 . S
C8 C7 1.401 . S
C8 C9 1.376 . S
C8 C17 1.511 . S
C9 C8 1.376 . S
C9 C10 1.392 . S
C9 H30 0.931 . S
C10 C9 1.392 . S
C10 C11 1.361 . S
C10 C12 1.500 . S
C11 C6 1.390 . S
C11 C10 1.361 . S
C11 H29 0.931 . S
C12 C10 1.500 . S
C12 C13 1.371 . S
C12 C14 1.365 . S
C13 C12 1.371 . S
C13 C23 1.386 . S
C13 H31 0.931 . S
C14 C12 1.365 . S
C14 C15 1.409 . S
C14 H32 0.929 . S
C15 C14 1.409 . S
C15 C16 1.380 . S
C15 H33 0.930 . S
C16 C15 1.380 . S
C16 C23 1.357 . S
C17 C8 1.511 . S
C17 C18 1.341 . S
C17 C19 1.371 . S
C18 C17 1.341 . S
C18 C22 1.394 . S
C18 H34 0.930 . S
C19 C17 1.371 . S
C19 C20 1.392 . S
C19 H35 0.931 . S
C20 C19 1.392 . S
C20 C21 1.331 . S
C20 H38 0.932 . S
C21 C20 1.331 . S
C21 C22 1.336 . S
C22 C18 1.394 . S
C22 C21 1.336 . S
C22 H37 0.929 . S
C23 C13 1.386 . S
C23 C16 1.357 . S
C23 H36 0.928 . S
H24 C0 0.931 . S
H25 C2 0.930 . S
H26 C4 0.929 . S
H27 C5 0.931 . S
H28 C7 0.930 . S
H29 C11 0.931 . S
H30 C9 0.931 . S
H31 C13 0.931 . S
H32 C14 0.929 . S
H33 C15 0.930 . S
H34 C18 0.930 . S
H35 C19 0.931 . S
H36 C23 0.928 . S
H37 C22 0.929 . S
H38 C20 0.932 . S
C39 C40 1.386 . S
C39 C41 1.397 . S
C39 H63 0.931 . S
C40 C39 1.386 . S
C40 C44 1.397 . S
C41 C39 1.397 . S
C41 C42 1.384 . S
C41 H64 0.930 . S
C42 C41 1.384 . S
C42 C43 1.377 . S
C42 C45 1.481 . S
C43 C42 1.377 . S
C43 C44 1.389 . S
C43 H65 0.929 . S
C44 C40 1.397 . S
C44 C43 1.389 . S
C44 H66 0.931 . S
C45 C42 1.481 . S
C45 C46 1.387 . S
C45 C50 1.390 . S
C46 C45 1.387 . S
C46 C47 1.401 . S
C46 H67 0.930 . S
C47 C46 1.401 . S
C47 C48 1.376 . S
C47 C56 1.511 . S
C48 C47 1.376 . S
C48 C49 1.392 . S
C48 H69 0.931 . S
C49 C48 1.392 . S
C49 C50 1.361 . S
C49 C51 1.500 . S
C50 C45 1.390 . S
C50 C49 1.361 . S
C50 H68 0.931 . S
C51 C49 1.500 . S
C51 C52 1.371 . S
C51 C53 1.365 . S
C52 C51 1.371 . S
C52 C62 1.386 . S
C52 H70 0.931 . S
C53 C51 1.365 . S
C53 C54 1.409 . S
C53 H71 0.929 . S
C54 C53 1.409 . S
C54 C55 1.380 . S
C54 H72 0.930 . S
C55 C54 1.380 . S
C55 C62 1.357 . S
C56 C47 1.511 . S
C56 C57 1.341 . S
C56 C58 1.371 . S
C57 C56 1.341 . S
C57 C61 1.394 . S
C57 H73 0.930 . S
C58 C56 1.371 . S
C58 C59 1.392 . S
C58 H74 0.931 . S
C59 C58 1.392 . S
C59 C60 1.331 . S
C59 H77 0.932 . S
C60 C59 1.331 . S
C60 C61 1.336 . S
C61 C57 1.394 . S
C61 C60 1.336 . S
C61 H76 0.929 . S
C62 C52 1.386 . S
C62 C55 1.357 . S
C62 H75 0.928 . S
H63 C39 0.931 . S
H64 C41 0.930 . S
H65 C43 0.929 . S
H66 C44 0.931 . S
H67 C46 0.930 . S
H68 C50 0.931 . S
H69 C48 0.931 . S
H70 C52 0.931 . S
H71 C53 0.929 . S
H72 C54 0.930 . S
H73 C57 0.930 . S
H74 C58 0.931 . S
H75 C62 0.928 . S
H76 C61 0.929 . S
H77 C59 0.932 . S
C78 C79 1.386 . S
C78 C80 1.397 . S
C78 H102 0.931 . S
C79 C78 1.386 . S
C79 C83 1.397 . S
C80 C78 1.397 . S
C80 C81 1.384 . S
C80 H103 0.930 . S
C81 C80 1.384 . S
C81 C82 1.377 . S
C81 C84 1.481 . S
C82 C81 1.377 . S
C82 C83 1.389 . S
C82 H104 0.929 . S
C83 C79 1.397 . S
C83 C82 1.389 . S
C83 H105 0.931 . S
C84 C81 1.481 . S
C84 C85 1.387 . S
C84 C89 1.390 . S
C85 C84 1.387 . S
C85 C86 1.401 . S
C85 H106 0.930 . S
C86 C85 1.401 . S
C86 C87 1.376 . S
C86 C95 1.511 . S
C87 C86 1.376 . S
C87 C88 1.392 . S
C87 H108 0.931 . S
C88 C87 1.392 . S
C88 C89 1.361 . S
C88 C90 1.500 . S
C89 C84 1.390 . S
C89 C88 1.361 . S
C89 H107 0.931 . S
C90 C88 1.500 . S
C90 C91 1.371 . S
C90 C92 1.365 . S
C91 C90 1.371 . S
C91 C101 1.386 . S
C91 H109 0.931 . S
C92 C90 1.365 . S
C92 C93 1.409 . S
C92 H110 0.929 . S
C93 C92 1.409 . S
C93 C94 1.380 . S
C93 H111 0.930 . S
C94 C93 1.380 . S
C94 C101 1.357 . S
C95 C86 1.511 . S
C95 C96 1.341 . S
C95 C97 1.371 . S
C96 C95 1.341 . S
C96 C100 1.394 . S
C96 H112 0.930 . S
C97 C95 1.371 . S
C97 C98 1.392 . S
C97 H113 0.931 . S
C98 C97 1.392 . S
C98 C99 1.331 . S
C98 H116 0.932 . S
C99 C98 1.331 . S
C99 C100 1.336 . S
C100 C96 1.394 . S
C100 C99 1.336 . S
C100 H115 0.929 . S
C101 C91 1.386 . S
C101 C94 1.357 . S
C101 H114 0.928 . S
H102 C78 0.931 . S
H103 C80 0.930 . S
H104 C82 0.929 . S
H105 C83 0.931 . S
H106 C85 0.930 . S
H107 C89 0.931 . S
H108 C87 0.931 . S
H109 C91 0.931 . S
H110 C92 0.929 . S
H111 C93 0.930 . S
H112 C96 0.930 . S
H113 C97 0.931 . S
H114 C101 0.928 . S
H115 C100 0.929 . S
H116 C98 0.932 . S
C117 C118 1.386 . S
C117 C119 1.397 . S
C117 H141 0.931 . S
C118 C117 1.386 . S
C118 C122 1.397 . S
C119 C117 1.397 . S
C119 C120 1.384 . S
C119 H142 0.930 . S
C120 C119 1.384 . S
C120 C121 1.377 . S
C120 C123 1.481 . S
C121 C120 1.377 . S
C121 C122 1.389 . S
C121 H143 0.929 . S
C122 C118 1.397 . S
C122 C121 1.389 . S
C122 H144 0.931 . S
C123 C120 1.481 . S
C123 C124 1.387 . S
C123 C128 1.390 . S
C124 C123 1.387 . S
C124 C125 1.401 . S
C124 H145 0.930 . S
C125 C124 1.401 . S
C125 C126 1.376 . S
C125 C134 1.511 . S
C126 C125 1.376 . S
C126 C127 1.392 . S
C126 H147 0.931 . S
C127 C126 1.392 . S
C127 C128 1.361 . S
C127 C129 1.500 . S
C128 C123 1.390 . S
C128 C127 1.361 . S
C128 H146 0.931 . S
C129 C127 1.500 . S
C129 C130 1.371 . S
C129 C131 1.365 . S
C130 C129 1.371 . S
C130 C140 1.386 . S
C130 H148 0.931 . S
C131 C129 1.365 . S
C131 C132 1.409 . S
C131 H149 0.929 . S
C132 C131 1.409 . S
C132 C133 1.380 . S
C132 H150 0.930 . S
C133 C132 1.380 . S
C133 C140 1.357 . S
C134 C125 1.511 . S
C134 C135 1.341 . S
C134 C136 1.371 . S
C135 C134 1.341 . S
C135 C139 1.394 . S
C135 H151 0.930 . S
C136 C134 1.371 . S
C136 C137 1.392 . S
C136 H152 0.931 . S
C137 C136 1.392 . S
C137 C138 1.331 . S
C137 H155 0.932 . S
C138 C137 1.331 . S
C138 C139 1.336 . S
C139 C135 1.394 . S
C139 C138 1.336 . S
C139 H154 0.929 . S
C140 C130 1.386 . S
C140 C133 1.357 . S
C140 H153 0.928 . S
H141 C117 0.931 . S
H142 C119 0.930 . S
H143 C121 0.929 . S
H144 C122 0.931 . S
H145 C124 0.930 . S
H146 C128 0.931 . S
H147 C126 0.931 . S
H148 C130 0.931 . S
H149 C131 0.929 . S
H150 C132 0.930 . S
H151 C135 0.930 . S
H152 C136 0.931 . S
H153 C140 0.928 . S
H154 C139 0.929 . S
H155 C137 0.932 . S
C156 C157 1.386 . S
C156 C158 1.397 . S
C156 H180 0.931 . S
C157 C156 1.386 . S
C157 C161 1.397 . S
C158 C156 1.397 . S
C158 C159 1.384 . S
C158 H181 0.930 . S
C159 C158 1.384 . S
C159 C160 1.377 . S
C159 C162 1.481 . S
C160 C159 1.377 . S
C160 C161 1.389 . S
C160 H182 0.929 . S
C161 C157 1.397 . S
C161 C160 1.389 . S
C161 H183 0.931 . S
C162 C159 1.481 . S
C162 C163 1.387 . S
C162 C167 1.390 . S
C163 C162 1.387 . S
C163 C164 1.401 . S
C163 H184 0.930 . S
C164 C163 1.401 . S
C164 C165 1.376 . S
C164 C173 1.511 . S
C165 C164 1.376 . S
C165 C166 1.392 . S
C165 H186 0.931 . S
C166 C165 1.392 . S
C166 C167 1.361 . S
C166 C168 1.500 . S
C167 C162 1.390 . S
C167 C166 1.361 . S
C167 H185 0.931 . S
C168 C166 1.500 . S
C168 C169 1.371 . S
C168 C170 1.365 . S
C169 C168 1.371 . S
C169 C179 1.386 . S
C169 H187 0.931 . S
C170 C168 1.365 . S
C170 C171 1.409 . S
C170 H188 0.929 . S
C171 C170 1.409 . S
C171 C172 1.380 . S
C171 H189 0.930 . S
C172 C171 1.380 . S
C172 C179 1.357 . S
C173 C164 1.511 . S
C173 C174 1.341 . S
C173 C175 1.371 . S
C174 C173 1.341 . S
C174 C178 1.394 . S
C174 H190 0.930 . S
C175 C173 1.371 . S
C175 C176 1.392 . S
C175 H191 0.931 . S
C176 C175 1.392 . S
C176 C177 1.331 . S
C176 H194 0.932 . S
C177 C176 1.331 . S
C177 C178 1.336 . S
C178 C174 1.394 . S
C178 C177 1.336 . S
C178 H193 0.929 . S
C179 C169 1.386 . S
C179 C172 1.357 . S
C179 H192 0.928 . S
H180 C156 0.931 . S
H181 C158 0.930 . S
H182 C160 0.929 . S
H183 C161 0.931 . S
H184 C163 0.930 . S
H185 C167 0.931 . S
H186 C165 0.931 . S
H187 C169 0.931 . S
H188 C170 0.929 . S
H189 C171 0.930 . S
H190 C174 0.930 . S
H191 C175 0.931 . S
H192 C179 0.928 . S
H193 C178 0.929 . S
H194 C176 0.932 . S
C195 C196 1.386 . S
C195 C197 1.397 . S
C195 H219 0.931 . S
C196 C195 1.386 . S
C196 C200 1.397 . S
C197 C195 1.397 . S
C197 C198 1.384 . S
C197 H220 0.930 . S
C198 C197 1.384 . S
C198 C199 1.377 . S
C198 C201 1.481 . S
C199 C198 1.377 . S
C199 C200 1.389 . S
C199 H221 0.929 . S
C200 C196 1.397 . S
C200 C199 1.389 . S
C200 H222 0.931 . S
C201 C198 1.481 . S
C201 C202 1.387 . S
C201 C206 1.390 . S
C202 C201 1.387 . S
C202 C203 1.401 . S
C202 H223 0.930 . S
C203 C202 1.401 . S
C203 C204 1.376 . S
C203 C212 1.511 . S
C204 C203 1.376 . S
C204 C205 1.392 . S
C204 H225 0.931 . S
C205 C204 1.392 . S
C205 C206 1.361 . S
C205 C207 1.500 . S
C206 C201 1.390 . S
C206 C205 1.361 . S
C206 H224 0.931 . S
C207 C205 1.500 . S
C207 C208 1.371 . S
C207 C209 1.365 . S
C208 C207 1.371 . S
C208 C218 1.386 . S
C208 H226 0.931 . S
C209 C207 1.365 . S
C209 C210 1.409 . S
C209 H227 0.929 . S
C210 C209 1.409 . S
C210 C211 1.380 . S
C210 H228 0.930 . S
C211 C210 1.380 . S
C211 C218 1.357 . S
C212 C203 1.511 . S
C212 C213 1.341 . S
C212 C214 1.371 . S
C213 C212 1.341 . S
C213 C217 1.394 . S
C213 H229 0.930 . S
C214 C212 1.371 . S
C214 C215 1.392 . S
C214 H230 0.931 . S
C215 C214 1.392 . S
C215 C216 1.331 . S
C215 H233 0.932 . S
C216 C215 1.331 . S
C216 C217 1.336 . S
C217 C213 1.394 . S
C217 C216 1.336 . S
C217 H232 0.929 . S
C218 C208 1.386 . S
C218 C211 1.357 . S
C218 H231 0.928 . S
H219 C195 0.931 . S
H220 C197 0.930 . S
H221 C199 0.929 . S
H222 C200 0.931 . S
H223 C202 0.930 . S
H224 C206 0.931 . S
H225 C204 0.931 . S
H226 C208 0.931 . S
H227 C209 0.929 . S
H228 C210 0.930 . S
H229 C213 0.930 . S
H230 C214 0.931 . S
H231 C218 0.928 . S
H232 C217 0.929 . S
H233 C215 0.932 . S
C234 C235 1.386 . S
C234 C236 1.397 . S
C234 H258 0.931 . S
C235 C234 1.386 . S
C235 C239 1.397 . S
C236 C234 1.397 . S
C236 C237 1.384 . S
C236 H259 0.930 . S
C237 C236 1.384 . S
C237 C238 1.377 . S
C237 C240 1.481 . S
C238 C237 1.377 . S
C238 C239 1.389 . S
C238 H260 0.929 . S
C239 C235 1.397 . S
C239 C238 1.389 . S
C239 H261 0.931 . S
C240 C237 1.481 . S
C240 C241 1.387 . S
C240 C245 1.390 . S
C241 C240 1.387 . S
C241 C242 1.401 . S
C241 H262 0.930 . S
C242 C241 1.401 . S
C242 C243 1.376 . S
C242 C251 1.511 . S
C243 C242 1.376 . S
C243 C244 1.392 . S
C243 H264 0.931 . S
C244 C243 1.392 . S
C244 C245 1.361 . S
C244 C246 1.500 . S
C245 C240 1.390 . S
C245 C244 1.361 . S
C245 H263 0.931 . S
C246 C244 1.500 . S
C246 C247 1.371 . S
C246 C248 1.365 . S
C247 C246 1.371 . S
C247 C257 1.386 . S
C247 H265 0.931 . S
C248 C246 1.365 . S
C248 C249 1.409 . S
C248 H266 0.929 . S
C249 C248 1.409 . S
C249 C250 1.380 . S
C249 H267 0.930 . S
C250 C249 1.380 . S
C250 C257 1.357 . S
C251 C242 1.511 . S
C251 C252 1.341 . S
C251 C253 1.371 . S
C252 C251 1.341 . S
C252 C256 1.394 . S
C252 H268 0.930 . S
C253 C251 1.371 . S
C253 C254 1.392 . S
C253 H269 0.931 . S
C254 C253 1.392 . S
C254 C255 1.331 . S
C254 H272 0.932 . S
C255 C254 1.331 . S
C255 C256 1.336 . S
C256 C252 1.394 . S
C256 C255 1.336 . S
C256 H271 0.929 . S
C257 C247 1.386 . S
C257 C250 1.357 . S
C257 H270 0.928 . S
H258 C234 0.931 . S
H259 C236 0.930 . S
H260 C238 0.929 . S
H261 C239 0.931 . S
H262 C241 0.930 . S
H263 C245 0.931 . S
H264 C243 0.931 . S
H265 C247 0.931 . S
H266 C248 0.929 . S
H267 C249 0.930 . S
H268 C252 0.930 . S
H269 C253 0.931 . S
H270 C257 0.928 . S
H271 C256 0.929 . S
H272 C254 0.932 . S
C273 C274 1.386 . S
C273 C275 1.397 . S
C273 H297 0.931 . S
C274 C273 1.386 . S
C274 C278 1.397 . S
C275 C273 1.397 . S
C275 C276 1.384 . S
C275 H298 0.930 . S
C276 C275 1.384 . S
C276 C277 1.377 . S
C276 C279 1.481 . S
C277 C276 1.377 . S
C277 C278 1.389 . S
C277 H299 0.929 . S
C278 C274 1.397 . S
C278 C277 1.389 . S
C278 H300 0.931 . S
C279 C276 1.481 . S
C279 C280 1.387 . S
C279 C284 1.390 . S
C280 C279 1.387 . S
C280 C281 1.401 . S
C280 H301 0.930 . S
C281 C280 1.401 . S
C281 C282 1.376 . S
C281 C290 1.511 . S
C282 C281 1.376 . S
C282 C283 1.392 . S
C282 H303 0.931 . S
C283 C282 1.392 . S
C283 C284 1.361 . S
C283 C285 1.500 . S
C284 C279 1.390 . S
C284 C283 1.361 . S
C284 H302 0.931 . S
C285 C283 1.500 . S
C285 C286 1.371 . S
C285 C287 1.365 . S
C286 C285 1.371 . S
C286 C296 1.386 . S
C286 H304 0.931 . S
C287 C285 1.365 . S
C287 C288 1.409 . S
C287 H305 0.929 . S
C288 C287 1.409 . S
C288 C289 1.380 . S
C288 H306 0.930 . S
C289 C288 1.380 . S
C289 C296 1.357 . S
C290 C281 1.511 . S
C290 C291 1.341 . S
C290 C292 1.371 . S
C291 C290 1.341 . S
C291 C295 1.394 . S
C291 H307 0.930 . S
C292 C290 1.371 . S
C292 C293 1.392 . S
C292 H308 0.931 . S
C293 C292 1.392 . S
C293 C294 1.331 . S
C293 H311 0.932 . S
C294 C293 1.331 . S
C294 C295 1.336 . S
C295 C291 1.394 . S
C295 C294 1.336 . S
C295 H310 0.929 . S
C296 C286 1.386 . S
C296 C289 1.357 . S
C296 H309 0.928 . S
H297 C273 0.931 . S
H298 C275 0.930 . S
H299 C277 0.929 . S
H300 C278 0.931 . S
H301 C280 0.930 . S
H302 C284 0.931 . S
H303 C282 0.931 . S
H304 C286 0.931 . S
H305 C287 0.929 . S
H306 C288 0.930 . S
H307 C291 0.930 . S
H308 C292 0.931 . S
H309 C296 0.928 . S
H310 C295 0.929 . S
H311 C293 0.932 . S
C312 C313 1.443 . S
C312 N316 1.376 . S
C312 C350 1.389 . S
C313 C312 1.443 . S
C313 C314 1.340 . S
C313 H353 0.951 . S
C314 C313 1.340 . S
C314 C315 1.439 . S
C314 H354 0.950 . S
C315 C314 1.439 . S
C315 N316 1.374 . S
C315 C349 1.395 . S
N316 C312 1.376 . S
N316 C315 1.374 . S
N316 Co317 2.008 . S
Co317 N316 2.008 . S
Co317 N318 1.995 . S
Co317 N323 2.008 . S
Co317 N328 1.995 . S
Co317 N333 2.282 . S
Co317 N339 2.282 1_455 S
N318 Co317 1.995 . S
N318 C319 1.376 . S
N318 C322 1.383 1_455 S
C319 N318 1.376 . S
C319 C320 1.446 1_455 S
C319 C349 1.391 . S
C320 C319 1.446 1_655 S
C320 C321 1.339 . S
C320 H355 0.949 . S
C321 C320 1.339 . S
C321 C322 1.439 . S
C321 H356 0.950 . S
C322 N318 1.383 1_655 S
C322 C321 1.439 . S
C322 C351 1.392 . S
N323 Co317 2.008 . S
N323 C324 1.376 1_455 S
N323 C327 1.374 . S
C324 N323 1.376 1_655 S
C324 C325 1.443 . S
C324 C351 1.389 . S
C325 C324 1.443 . S
C325 C326 1.340 . S
C325 H357 0.951 . S
C326 C325 1.340 . S
C326 C327 1.439 1_655 S
C326 H358 0.950 . S
C327 N323 1.374 . S
C327 C326 1.439 1_455 S
C327 C352 1.395 . S
N328 Co317 1.995 . S
N328 C329 1.376 . S
N328 C332 1.383 . S
C329 N328 1.376 . S
C329 C330 1.446 . S
C329 C352 1.391 . S
C330 C329 1.446 . S
C330 C331 1.339 . S
C330 H359 0.949 . S
C331 C330 1.339 . S
C331 C332 1.439 . S
C331 H360 0.950 . S
C332 N328 1.383 . S
C332 C331 1.439 . S
C332 C350 1.392 . S
N333 Co317 2.282 . S
N333 C336 1.332 . S
N333 C338 1.332 . S
C334 C335 1.386 . S
C334 C337 1.388 . S
C335 C334 1.386 . S
C335 C336 1.382 . S
C335 H361 0.950 . S
C336 N333 1.332 . S
C336 C335 1.382 . S
C336 H347 0.952 . S
C337 C334 1.388 . S
C337 C338 1.382 . S
C337 H362 0.950 . S
C338 N333 1.332 . S
C338 C337 1.382 . S
C338 H348 0.948 . S
N339 Co317 2.282 1_655 S
N339 C343 1.332 . S
N339 C344 1.332 . S
C340 C341 1.388 . S
C340 C344 1.382 . S
C340 H363 0.950 . S
C341 C340 1.388 . S
C341 C342 1.386 . S
C342 C341 1.386 . S
C342 C343 1.382 . S
C342 H364 0.950 . S
C343 N339 1.332 . S
C343 C342 1.382 . S
C343 H345 0.952 . S
C344 N339 1.332 . S
C344 C340 1.382 . S
C344 H346 0.948 . S
H345 C343 0.952 . S
H346 C344 0.948 . S
H347 C336 0.952 . S
H348 C338 0.948 . S
C349 C315 1.395 . S
C349 C319 1.391 . S
C350 C312 1.389 . S
C350 C332 1.392 . S
C351 C322 1.392 . S
C351 C324 1.389 . S
C352 C327 1.395 . S
C352 C329 1.391 . S
H353 C313 0.951 . S
H354 C314 0.950 . S
H355 C320 0.949 . S
H356 C321 0.950 . S
H357 C325 0.951 . S
H358 C326 0.950 . S
H359 C330 0.949 . S
H360 C331 0.950 . S
H361 C335 0.950 . S
H362 C337 0.950 . S
H363 C340 0.950 . S
H364 C342 0.950 . S
C365 C366 1.443 . S
C365 N369 1.376 . S
C365 C403 1.389 . S
C366 C365 1.443 . S
C366 C367 1.340 . S
C366 H406 0.951 . S
C367 C366 1.340 . S
C367 C368 1.439 . S
C367 H407 0.950 . S
C368 C367 1.439 . S
C368 N369 1.374 . S
C368 C402 1.395 . S
N369 C365 1.376 . S
N369 C368 1.374 . S
N369 Co370 2.008 . S
Co370 N369 2.008 . S
Co370 N371 1.995 1_455 S
Co370 N376 2.008 1_455 S
Co370 N381 1.995 . S
Co370 N386 2.282 . S
Co370 N392 2.282 1_455 S
N371 Co370 1.995 1_655 S
N371 C372 1.376 . S
N371 C375 1.383 . S
C372 N371 1.376 . S
C372 C373 1.446 . S
C372 C402 1.391 1_655 S
C373 C372 1.446 . S
C373 C374 1.339 . S
C373 H408 0.949 . S
C374 C373 1.339 . S
C374 C375 1.439 . S
C374 H409 0.950 . S
C375 N371 1.383 . S
C375 C374 1.439 . S
C375 C404 1.392 . S
N376 Co370 2.008 1_655 S
N376 C377 1.376 . S
N376 C380 1.374 . S
C377 N376 1.376 . S
C377 C378 1.443 . S
C377 C404 1.389 . S
C378 C377 1.443 . S
C378 C379 1.340 . S
C378 H410 0.951 . S
C379 C378 1.340 . S
C379 C380 1.439 . S
C379 H411 0.950 . S
C380 N376 1.374 . S
C380 C379 1.439 . S
C380 C405 1.395 1_655 S
N381 Co370 1.995 . S
N381 C382 1.376 . S
N381 C385 1.383 . S
C382 N381 1.376 . S
C382 C383 1.446 . S
C382 C405 1.391 . S
C383 C382 1.446 . S
C383 C384 1.339 . S
C383 H412 0.949 . S
C384 C383 1.339 . S
C384 C385 1.439 . S
C384 H413 0.950 . S
C385 N381 1.383 . S
C385 C384 1.439 . S
C385 C403 1.392 . S
N386 Co370 2.282 . S
N386 C389 1.332 . S
N386 C391 1.332 . S
C387 C388 1.386 . S
C387 C390 1.388 . S
C388 C387 1.386 . S
C388 C389 1.382 . S
C388 H414 0.950 . S
C389 N386 1.332 . S
C389 C388 1.382 . S
C389 H400 0.952 . S
C390 C387 1.388 . S
C390 C391 1.382 . S
C390 H415 0.950 . S
C391 N386 1.332 . S
C391 C390 1.382 . S
C391 H401 0.948 . S
N392 Co370 2.282 1_655 S
N392 C396 1.332 . S
N392 C397 1.332 . S
C393 C394 1.388 . S
C393 C397 1.382 . S
C393 H416 0.950 . S
C394 C393 1.388 . S
C394 C395 1.386 . S
C395 C394 1.386 . S
C395 C396 1.382 . S
C395 H417 0.950 . S
C396 N392 1.332 . S
C396 C395 1.382 . S
C396 H398 0.952 . S
C397 N392 1.332 . S
C397 C393 1.382 . S
C397 H399 0.948 . S
H398 C396 0.952 . S
H399 C397 0.948 . S
H400 C389 0.952 . S
H401 C391 0.948 . S
C402 C368 1.395 . S
C402 C372 1.391 1_455 S
C403 C365 1.389 . S
C403 C385 1.392 . S
C404 C375 1.392 . S
C404 C377 1.389 . S
C405 C380 1.395 1_455 S
C405 C382 1.391 . S
H406 C366 0.951 . S
H407 C367 0.950 . S
H408 C373 0.949 . S
H409 C374 0.950 . S
H410 C378 0.951 . S
H411 C379 0.950 . S
H412 C383 0.949 . S
H413 C384 0.950 . S
H414 C388 0.950 . S
H415 C390 0.950 . S
H416 C393 0.950 . S
H417 C395 0.950 . S
C418 C419 1.443 . S
C418 N422 1.376 . S
C418 C456 1.389 . S
C419 C418 1.443 . S
C419 C420 1.340 . S
C419 H459 0.951 . S
C420 C419 1.340 . S
C420 C421 1.439 . S
C420 H460 0.950 . S
C421 C420 1.439 . S
C421 N422 1.374 . S
C421 C455 1.395 1_565 S
N422 C418 1.376 . S
N422 C421 1.374 . S
N422 Co423 2.008 1_565 S
Co423 N422 2.008 1_545 S
Co423 N424 1.995 . S
Co423 N429 2.008 . S
Co423 N434 1.995 1_545 S
Co423 N439 2.282 . S
Co423 N445 2.282 1_545 S
N424 Co423 1.995 . S
N424 C425 1.376 . S
N424 C428 1.383 . S
C425 N424 1.376 . S
C425 C426 1.446 . S
C425 C455 1.391 . S
C426 C425 1.446 . S
C426 C427 1.339 . S
C426 H461 0.949 . S
C427 C426 1.339 . S
C427 C428 1.439 . S
C427 H462 0.950 . S
C428 N424 1.383 . S
C428 C427 1.439 . S
C428 C457 1.392 . S
N429 Co423 2.008 . S
N429 C430 1.376 . S
N429 C433 1.374 . S
C430 N429 1.376 . S
C430 C431 1.443 . S
C430 C457 1.389 . S
C431 C430 1.443 . S
C431 C432 1.340 . S
C431 H463 0.951 . S
C432 C431 1.340 . S
C432 C433 1.439 . S
C432 H464 0.950 . S
C433 N429 1.374 . S
C433 C432 1.439 . S
C433 C458 1.395 . S
N434 Co423 1.995 1_565 S
N434 C435 1.376 . S
N434 C438 1.383 . S
C435 N434 1.376 . S
C435 C436 1.446 . S
C435 C458 1.391 1_565 S
C436 C435 1.446 . S
C436 C437 1.339 . S
C436 H465 0.949 . S
C437 C436 1.339 . S
C437 C438 1.439 . S
C437 H466 0.950 . S
C438 N434 1.383 . S
C438 C437 1.439 . S
C438 C456 1.392 . S
N439 Co423 2.282 . S
N439 C442 1.332 . S
N439 C444 1.332 . S
C440 C441 1.386 . S
C440 C443 1.388 . S
C441 C440 1.386 . S
C441 C442 1.382 . S
C441 H467 0.950 . S
C442 N439 1.332 . S
C442 C441 1.382 . S
C442 H453 0.952 . S
C443 C440 1.388 . S
C443 C444 1.382 . S
C443 H468 0.950 . S
C444 N439 1.332 . S
C444 C443 1.382 . S
C444 H454 0.948 . S
N445 Co423 2.282 1_565 S
N445 C449 1.332 . S
N445 C450 1.332 . S
C446 C447 1.388 . S
C446 C450 1.382 . S
C446 H469 0.950 . S
C447 C446 1.388 . S
C447 C448 1.386 . S
C448 C447 1.386 . S
C448 C449 1.382 . S
C448 H470 0.950 . S
C449 N445 1.332 . S
C449 C448 1.382 . S
C449 H451 0.952 . S
C450 N445 1.332 . S
C450 C446 1.382 . S
C450 H452 0.948 . S
H451 C449 0.952 . S
H452 C450 0.948 . S
H453 C442 0.952 . S
H454 C444 0.948 . S
C455 C421 1.395 1_545 S
C455 C425 1.391 . S
C456 C418 1.389 . S
C456 C438 1.392 . S
C457 C428 1.392 . S
C457 C430 1.389 . S
C458 C433 1.395 . S
C458 C435 1.391 1_545 S
H459 C419 0.951 . S
H460 C420 0.950 . S
H461 C426 0.949 . S
H462 C427 0.950 . S
H463 C431 0.951 . S
H464 C432 0.950 . S
H465 C436 0.949 . S
H466 C437 0.950 . S
H467 C441 0.950 . S
H468 C443 0.950 . S
H469 C446 0.950 . S
H470 C448 0.950 . S
C471 C472 1.443 . S
C471 N475 1.376 . S
C471 C509 1.389 . S
C472 C471 1.443 . S
C472 C473 1.340 . S
C472 H512 0.951 . S
C473 C472 1.340 . S
C473 C474 1.439 . S
C473 H513 0.950 . S
C474 C473 1.439 . S
C474 N475 1.374 . S
C474 C508 1.395 . S
N475 C471 1.376 . S
N475 C474 1.374 . S
N475 Co476 2.008 . S
Co476 N475 2.008 . S
Co476 N477 2.013 . S
Co476 N482 2.008 1_554 S
Co476 N487 1.995 . S
Co476 N492 2.282 1_554 S
Co476 N498 2.282 . S
N477 Co476 2.013 . S
N477 C478 1.383 . S
N477 C481 1.352 1_554 S
C478 N477 1.383 . S
C478 C479 1.446 1_554 S
C478 C508 1.391 . S
C479 C478 1.446 1_556 S
C479 C480 1.339 . S
C479 H514 0.949 . S
C480 C479 1.339 . S
C480 C481 1.439 . S
C480 H515 0.950 . S
C481 N477 1.352 1_556 S
C481 C480 1.439 . S
C481 C510 1.392 . S
N482 Co476 2.008 1_556 S
N482 C483 1.376 . S
N482 C486 1.374 . S
C483 N482 1.376 . S
C483 C484 1.443 . S
C483 C510 1.389 . S
C484 C483 1.443 . S
C484 C485 1.340 . S
C484 H516 0.951 . S
C485 C484 1.340 . S
C485 C486 1.461 . S
C485 H517 0.950 . S
C486 N482 1.374 . S
C486 C485 1.461 . S
C486 C511 1.377 1_556 S
N487 Co476 1.995 . S
N487 C488 1.376 . S
N487 C491 1.383 . S
C488 N487 1.376 . S
C488 C489 1.446 . S
C488 C511 1.391 . S
C489 C488 1.446 . S
C489 C490 1.339 . S
C489 H518 0.949 . S
C490 C489 1.339 . S
C490 C491 1.439 . S
C490 H519 0.950 . S
C491 N487 1.383 . S
C491 C490 1.439 . S
C491 C509 1.392 . S
N492 Co476 2.282 1_556 S
N492 C495 1.332 . S
N492 C497 1.332 . S
C493 C494 1.386 . S
C493 C496 1.388 . S
C494 C493 1.386 . S
C494 C495 1.382 . S
C494 H520 0.950 . S
C495 N492 1.332 . S
C495 C494 1.382 . S
C495 H506 0.952 . S
C496 C493 1.388 . S
C496 C497 1.382 . S
C496 H521 0.950 . S
C497 N492 1.332 . S
C497 C496 1.382 . S
C497 H507 0.948 . S
N498 Co476 2.282 . S
N498 C502 1.332 . S
N498 C503 1.332 . S
C499 C500 1.388 . S
C499 C503 1.382 . S
C499 H522 0.950 . S
C500 C499 1.388 . S
C500 C501 1.386 . S
C501 C500 1.386 . S
C501 C502 1.382 . S
C501 H523 0.950 . S
C502 N498 1.332 . S
C502 C501 1.382 . S
C502 H504 0.952 . S
C503 N498 1.332 . S
C503 C499 1.382 . S
C503 H505 0.948 . S
H504 C502 0.952 . S
H505 C503 0.948 . S
H506 C495 0.952 . S
H507 C497 0.948 . S
C508 C474 1.395 . S
C508 C478 1.391 . S
C509 C471 1.389 . S
C509 C491 1.392 . S
C510 C481 1.392 . S
C510 C483 1.389 . S
C511 C486 1.377 1_554 S
C511 C488 1.391 . S
H512 C472 0.951 . S
H513 C473 0.950 . S
H514 C479 0.949 . S
H515 C480 0.950 . S
H516 C484 0.951 . S
H517 C485 0.950 . S
H518 C489 0.949 . S
H519 C490 0.950 . S
H520 C494 0.950 . S
H521 C496 0.950 . S
H522 C499 0.950 . S
H523 C501 0.950 . S
C524 C525 1.443 . S
C524 N528 1.417 . S
C524 C562 1.389 . S
C525 C524 1.443 . S
C525 C526 1.340 . S
C525 H565 0.951 . S
C526 C525 1.340 . S
C526 C527 1.433 1_565 S
C526 H566 0.950 . S
C527 C526 1.433 1_545 S
C527 N528 1.375 1_545 S
C527 C561 1.400 . S
N528 C524 1.417 . S
N528 C527 1.375 1_565 S
N528 Co529 1.980 1_565 S
Co529 N528 1.980 1_545 S
Co529 N530 1.995 . S
Co529 N535 2.008 . S
Co529 N540 1.995 . S
Co529 N545 2.282 . S
Co529 N551 2.282 1_545 S
N530 Co529 1.995 . S
N530 C531 1.376 . S
N530 C534 1.383 . S
C531 N530 1.376 . S
C531 C532 1.446 . S
C531 C561 1.391 . S
C532 C531 1.446 . S
C532 C533 1.339 . S
C532 H567 0.949 . S
C533 C532 1.339 . S
C533 C534 1.439 . S
C533 H568 0.950 . S
C534 N530 1.383 . S
C534 C533 1.439 . S
C534 C563 1.392 . S
N535 Co529 2.008 . S
N535 C536 1.376 . S
N535 C539 1.374 . S
C536 N535 1.376 . S
C536 C537 1.443 . S
C536 C563 1.389 . S
C537 C536 1.443 . S
C537 C538 1.340 . S
C537 H569 0.951 . S
C538 C537 1.340 . S
C538 C539 1.439 . S
C538 H570 0.950 . S
C539 N535 1.374 . S
C539 C538 1.439 . S
C539 C564 1.395 . S
N540 Co529 1.995 . S
N540 C541 1.376 . S
N540 C544 1.382 1_545 S
C541 N540 1.376 . S
C541 C542 1.446 1_545 S
C541 C564 1.391 . S
C542 C541 1.446 1_565 S
C542 C543 1.339 . S
C542 H571 0.949 . S
C543 C542 1.339 . S
C543 C544 1.439 . S
C543 H572 0.950 . S
C544 N540 1.382 1_565 S
C544 C543 1.439 . S
C544 C562 1.392 . S
N545 Co529 2.282 . S
N545 C548 1.332 . S
N545 C550 1.332 . S
C546 C547 1.386 . S
C546 C549 1.388 . S
C547 C546 1.386 . S
C547 C548 1.382 . S
C547 H573 0.950 . S
C548 N545 1.332 . S
C548 C547 1.382 . S
C548 H559 0.952 . S
C549 C546 1.388 . S
C549 C550 1.382 . S
C549 H574 0.950 . S
C550 N545 1.332 . S
C550 C549 1.382 . S
C550 H560 0.948 . S
N551 Co529 2.282 1_565 S
N551 C555 1.332 . S
N551 C556 1.332 . S
C552 C553 1.388 . S
C552 C556 1.382 . S
C552 H575 0.950 . S
C553 C552 1.388 . S
C553 C554 1.386 . S
C554 C553 1.386 . S
C554 C555 1.382 . S
C554 H576 0.950 . S
C555 N551 1.332 . S
C555 C554 1.382 . S
C555 H557 0.952 . S
C556 N551 1.332 . S
C556 C552 1.382 . S
C556 H558 0.948 . S
H557 C555 0.952 . S
H558 C556 0.948 . S
H559 C548 0.952 . S
H560 C550 0.948 . S
C561 C527 1.400 . S
C561 C531 1.391 . S
C562 C524 1.389 . S
C562 C544 1.392 . S
C563 C534 1.392 . S
C563 C536 1.389 . S
C564 C539 1.395 . S
C564 C541 1.391 . S
H565 C525 0.951 . S
H566 C526 0.950 . S
H567 C532 0.949 . S
H568 C533 0.950 . S
H569 C537 0.951 . S
H570 C538 0.950 . S
H571 C542 0.949 . S
H572 C543 0.950 . S
H573 C547 0.950 . S
H574 C549 0.950 . S
H575 C552 0.950 . S
H576 C554 0.950 . S
C577 C578 1.443 . S
C577 N581 1.376 . S
C577 C615 1.389 . S
C578 C577 1.443 . S
C578 C579 1.340 . S
C578 H618 0.951 . S
C579 C578 1.340 . S
C579 C580 1.439 . S
C579 H619 0.950 . S
C580 C579 1.439 . S
C580 N581 1.374 . S
C580 C614 1.395 . S
N581 C577 1.376 . S
N581 C580 1.374 . S
N581 Co582 2.008 . S
Co582 N581 2.008 . S
Co582 N583 1.995 . S
Co582 N588 2.008 . S
Co582 N593 1.995 . S
Co582 N598 2.265 1_554 S
Co582 N604 2.282 . S
N583 Co582 1.995 . S
N583 C584 1.376 . S
N583 C587 1.383 1_554 S
C584 N583 1.376 . S
C584 C585 1.446 1_554 S
C584 C614 1.391 . S
C585 C584 1.446 1_556 S
C585 C586 1.339 . S
C585 H620 0.949 . S
C586 C585 1.339 . S
C586 C587 1.439 . S
C586 H621 0.950 . S
C587 N583 1.383 1_556 S
C587 C586 1.439 . S
C587 C616 1.392 . S
N588 Co582 2.008 . S
N588 C589 1.376 1_554 S
N588 C592 1.374 . S
C589 N588 1.376 1_556 S
C589 C590 1.443 . S
C589 C616 1.389 . S
C590 C589 1.443 . S
C590 C591 1.340 . S
C590 H622 0.951 . S
C591 C590 1.340 . S
C591 C592 1.439 1_556 S
C591 H623 0.950 . S
C592 N588 1.374 . S
C592 C591 1.439 1_554 S
C592 C617 1.395 . S
N593 Co582 1.995 . S
N593 C594 1.376 . S
N593 C597 1.383 . S
C594 N593 1.376 . S
C594 C595 1.446 . S
C594 C617 1.391 . S
C595 C594 1.446 . S
C595 C596 1.339 . S
C595 H624 0.949 . S
C596 C595 1.339 . S
C596 C597 1.439 . S
C596 H625 0.950 . S
C597 N593 1.383 . S
C597 C596 1.439 . S
C597 C615 1.392 . S
N598 Co582 2.265 1_556 S
N598 C601 1.340 . S
N598 C603 1.345 . S
C599 C600 1.386 . S
C599 C602 1.388 . S
C600 C599 1.386 . S
C600 C601 1.382 . S
C600 H626 0.950 . S
C601 N598 1.340 . S
C601 C600 1.382 . S
C601 H612 0.952 1_556 S
C602 C599 1.388 . S
C602 C603 1.382 . S
C602 H627 0.950 . S
C603 N598 1.345 . S
C603 C602 1.382 . S
C603 H613 0.948 . S
N604 Co582 2.282 . S
N604 C608 1.332 . S
N604 C609 1.332 . S
C605 C606 1.388 . S
C605 C609 1.382 . S
C605 H628 0.950 . S
C606 C605 1.388 . S
C606 C607 1.386 . S
C607 C606 1.386 . S
C607 C608 1.382 . S
C607 H629 0.950 . S
C608 N604 1.332 . S
C608 C607 1.382 . S
C608 H610 0.952 . S
C609 N604 1.332 . S
C609 C605 1.382 . S
C609 H611 0.948 . S
H610 C608 0.952 . S
H611 C609 0.948 . S
H612 C601 0.952 1_554 S
H613 C603 0.948 . S
C614 C580 1.395 . S
C614 C584 1.391 . S
C615 C577 1.389 . S
C615 C597 1.392 . S
C616 C587 1.392 . S
C616 C589 1.389 . S
C617 C592 1.395 . S
C617 C594 1.391 . S
H618 C578 0.951 . S
H619 C579 0.950 . S
H620 C585 0.949 . S
H621 C586 0.950 . S
H622 C590 0.951 . S
H623 C591 0.950 . S
H624 C595 0.949 . S
H625 C596 0.950 . S
H626 C600 0.950 . S
H627 C602 0.950 . S
H628 C605 0.950 . S
H629 C607 0.950 . S
H630 C648 0.951 . S
H631 C650 0.951 . S
H632 C652 0.950 . S
H633 C653 0.950 . S
H634 C655 0.950 . S
H635 C658 0.950 . S
H636 C659 0.950 . S
H637 C661 0.950 . S
H638 C662 0.950 . S
H639 C663 0.951 . S
H640 C665 0.951 . S
H641 C667 0.950 . S
H642 C668 0.950 . S
H643 C670 0.950 . S
H644 C673 0.950 . S
H645 C674 0.950 . S
H646 C676 0.950 . S
H647 C677 0.950 . S
C648 H630 0.951 . S
C648 C649 1.366 . S
C648 C650 1.388 . S
C649 C648 1.366 . S
C649 C653 1.385 . S
C650 H631 0.951 . S
C650 C648 1.388 . S
C650 C651 1.366 . S
C651 C650 1.366 . S
C651 C652 1.414 . S
C651 C654 1.499 . S
C652 H632 0.950 . S
C652 C651 1.414 . S
C652 C653 1.374 . S
C653 H633 0.950 . S
C653 C649 1.385 . S
C653 C652 1.374 . S
C654 C651 1.499 . S
C654 C655 1.373 . S
C654 C656 1.389 . S
C655 H634 0.950 . S
C655 C654 1.373 . S
C655 C671 1.377 . S
C656 C654 1.389 . S
C656 C657 1.524 . S
C656 C670 1.377 . S
C657 C656 1.524 . S
C657 C658 1.397 . S
C657 C662 1.363 . S
C658 H635 0.950 . S
C658 C657 1.397 . S
C658 C659 1.334 . S
C659 H636 0.950 . S
C659 C658 1.334 . S
C659 C660 1.287 . S
C660 C659 1.287 . S
C660 C661 1.524 . S
C660 H679 0.913 . S
C661 H637 0.950 . S
C661 C660 1.524 . S
C661 C662 1.415 . S
C662 H638 0.950 . S
C662 C657 1.363 . S
C662 C661 1.415 . S
C663 H639 0.951 . S
C663 C664 1.366 . S
C663 C665 1.388 . S
C664 C663 1.366 . S
C664 C668 1.385 . S
C665 H640 0.951 . S
C665 C663 1.388 . S
C665 C666 1.366 . S
C666 C665 1.366 . S
C666 C667 1.414 . S
C666 C669 1.499 . S
C667 H641 0.950 . S
C667 C666 1.414 . S
C667 C668 1.374 . S
C668 H642 0.950 . S
C668 C664 1.385 . S
C668 C667 1.374 . S
C669 C666 1.499 . S
C669 C670 1.373 . S
C669 C671 1.389 . S
C670 H643 0.950 . S
C670 C656 1.377 . S
C670 C669 1.373 . S
C671 C655 1.377 . S
C671 C669 1.389 . S
C671 C672 1.524 . S
C672 C671 1.524 . S
C672 C673 1.397 . S
C672 C677 1.363 . S
C673 H644 0.950 . S
C673 C672 1.397 . S
C673 C674 1.334 . S
C674 H645 0.950 . S
C674 C673 1.334 . S
C674 C675 1.287 . S
C675 C674 1.287 . S
C675 C676 1.524 . S
C675 H678 0.999 . S
C676 H646 0.950 . S
C676 C675 1.524 . S
C676 C677 1.415 . S
C677 H647 0.950 . S
C677 C672 1.363 . S
C677 C676 1.415 . S
H678 C675 0.999 . S
H679 C660 0.913 . S
H680 C698 0.951 . S
H681 C700 0.951 . S
H682 C702 0.950 . S
H683 C703 0.950 . S
H684 C705 0.950 . S
H685 C708 0.950 . S
H686 C709 0.950 . S
H687 C711 0.950 . S
H688 C712 0.950 . S
H689 C713 0.951 . S
H690 C715 0.951 . S
H691 C717 0.950 . S
H692 C718 0.950 . S
H693 C720 0.950 . S
H694 C723 0.950 . S
H695 C724 0.950 . S
H696 C726 0.950 . S
H697 C727 0.950 . S
C698 H680 0.951 . S
C698 C699 1.366 . S
C698 C700 1.388 . S
C699 C698 1.366 . S
C699 C703 1.385 . S
C700 H681 0.951 . S
C700 C698 1.388 . S
C700 C701 1.366 . S
C701 C700 1.366 . S
C701 C702 1.414 . S
C701 C704 1.499 . S
C702 H682 0.950 . S
C702 C701 1.414 . S
C702 C703 1.374 . S
C703 H683 0.950 . S
C703 C699 1.385 . S
C703 C702 1.374 . S
C704 C701 1.499 . S
C704 C705 1.373 . S
C704 C706 1.389 . S
C705 H684 0.950 . S
C705 C704 1.373 . S
C705 C721 1.377 . S
C706 C704 1.389 . S
C706 C707 1.524 . S
C706 C720 1.377 . S
C707 C706 1.524 . S
C707 C708 1.397 . S
C707 C712 1.363 . S
C708 H685 0.950 . S
C708 C707 1.397 . S
C708 C709 1.334 . S
C709 H686 0.950 . S
C709 C708 1.334 . S
C709 C710 1.287 . S
C710 C709 1.287 . S
C710 C711 1.524 . S
C710 H729 0.913 . S
C711 H687 0.950 . S
C711 C710 1.524 . S
C711 C712 1.415 . S
C712 H688 0.950 . S
C712 C707 1.363 . S
C712 C711 1.415 . S
C713 H689 0.951 . S
C713 C714 1.366 . S
C713 C715 1.388 . S
C714 C713 1.366 . S
C714 C718 1.385 . S
C715 H690 0.951 . S
C715 C713 1.388 . S
C715 C716 1.366 . S
C716 C715 1.366 . S
C716 C717 1.414 . S
C716 C719 1.499 . S
C717 H691 0.950 . S
C717 C716 1.414 . S
C717 C718 1.374 . S
C718 H692 0.950 . S
C718 C714 1.385 . S
C718 C717 1.374 . S
C719 C716 1.499 . S
C719 C720 1.373 . S
C719 C721 1.389 . S
C720 H693 0.950 . S
C720 C706 1.377 . S
C720 C719 1.373 . S
C721 C705 1.377 . S
C721 C719 1.389 . S
C721 C722 1.524 . S
C722 C721 1.524 . S
C722 C723 1.397 . S
C722 C727 1.363 . S
C723 H694 0.950 . S
C723 C722 1.397 . S
C723 C724 1.334 . S
C724 H695 0.950 . S
C724 C723 1.334 . S
C724 C725 1.287 . S
C725 C724 1.287 . S
C725 C726 1.524 . S
C725 H728 0.999 . S
C726 H696 0.950 . S
C726 C725 1.524 . S
C726 C727 1.415 . S
C727 H697 0.950 . S
C727 C722 1.363 . S
C727 C726 1.415 . S
H728 C725 0.999 . S
H729 C710 0.913 . S
H730 C748 0.951 . S
H731 C750 0.951 . S
H732 C752 0.950 . S
H733 C753 0.950 . S
H734 C755 0.950 . S
H735 C758 0.950 . S
H736 C759 0.950 . S
H737 C761 0.950 . S
H738 C762 0.950 . S
H739 C763 0.951 . S
H740 C765 0.951 . S
H741 C767 0.950 . S
H742 C768 0.950 . S
H743 C770 0.950 . S
H744 C773 0.950 . S
H745 C774 0.950 . S
H746 C776 0.950 . S
H747 C777 0.950 . S
C748 H730 0.951 . S
C748 C749 1.366 . S
C748 C750 1.388 . S
C749 C748 1.366 . S
C749 C753 1.385 . S
C750 H731 0.951 . S
C750 C748 1.388 . S
C750 C751 1.366 . S
C751 C750 1.366 . S
C751 C752 1.414 . S
C751 C754 1.499 . S
C752 H732 0.950 . S
C752 C751 1.414 . S
C752 C753 1.374 . S
C753 H733 0.950 . S
C753 C749 1.385 . S
C753 C752 1.374 . S
C754 C751 1.499 . S
C754 C755 1.373 . S
C754 C756 1.389 . S
C755 H734 0.950 . S
C755 C754 1.373 . S
C755 C771 1.377 . S
C756 C754 1.389 . S
C756 C757 1.524 . S
C756 C770 1.377 . S
C757 C756 1.524 . S
C757 C758 1.397 . S
C757 C762 1.363 . S
C758 H735 0.950 . S
C758 C757 1.397 . S
C758 C759 1.334 . S
C759 H736 0.950 . S
C759 C758 1.334 . S
C759 C760 1.287 . S
C760 C759 1.287 . S
C760 C761 1.524 . S
C760 H779 0.913 . S
C761 H737 0.950 . S
C761 C760 1.524 . S
C761 C762 1.415 . S
C762 H738 0.950 . S
C762 C757 1.363 . S
C762 C761 1.415 . S
C763 H739 0.951 . S
C763 C764 1.366 . S
C763 C765 1.388 . S
C764 C763 1.366 . S
C764 C768 1.385 . S
C765 H740 0.951 . S
C765 C763 1.388 . S
C765 C766 1.366 . S
C766 C765 1.366 . S
C766 C767 1.414 . S
C766 C769 1.499 . S
C767 H741 0.950 . S
C767 C766 1.414 . S
C767 C768 1.374 . S
C768 H742 0.950 . S
C768 C764 1.385 . S
C768 C767 1.374 . S
C769 C766 1.499 . S
C769 C770 1.373 . S
C769 C771 1.389 . S
C770 H743 0.950 . S
C770 C756 1.377 . S
C770 C769 1.373 . S
C771 C755 1.377 . S
C771 C769 1.389 . S
C771 C772 1.524 . S
C772 C771 1.524 . S
C772 C773 1.397 . S
C772 C777 1.363 . S
C773 H744 0.950 . S
C773 C772 1.397 . S
C773 C774 1.334 . S
C774 H745 0.950 . S
C774 C773 1.334 . S
C774 C775 1.287 . S
C775 C774 1.287 . S
C775 C776 1.524 . S
C775 H778 0.999 . S
C776 H746 0.950 . S
C776 C775 1.524 . S
C776 C777 1.415 . S
C777 H747 0.950 . S
C777 C772 1.363 . S
C777 C776 1.415 . S
H778 C775 0.999 . S
H779 C760 0.913 . S
H780 C798 0.951 . S
H781 C800 0.951 . S
H782 C802 0.950 . S
H783 C803 0.950 . S
H784 C805 0.950 . S
H785 C808 0.950 . S
H786 C809 0.950 . S
H787 C811 0.950 . S
H788 C812 0.950 . S
H789 C813 0.951 . S
H790 C815 0.951 . S
H791 C817 0.950 . S
H792 C818 0.950 . S
H793 C820 0.950 . S
H794 C823 0.950 . S
H795 C824 0.950 . S
H796 C826 0.950 . S
H797 C827 0.950 . S
C798 H780 0.951 . S
C798 C799 1.366 . S
C798 C800 1.388 . S
C799 C798 1.366 . S
C799 C803 1.385 . S
C800 H781 0.951 . S
C800 C798 1.388 . S
C800 C801 1.366 . S
C801 C800 1.366 . S
C801 C802 1.414 . S
C801 C804 1.499 . S
C802 H782 0.950 . S
C802 C801 1.414 . S
C802 C803 1.374 . S
C803 H783 0.950 . S
C803 C799 1.385 . S
C803 C802 1.374 . S
C804 C801 1.499 . S
C804 C805 1.373 . S
C804 C806 1.389 . S
C805 H784 0.950 . S
C805 C804 1.373 . S
C805 C821 1.377 . S
C806 C804 1.389 . S
C806 C807 1.524 . S
C806 C820 1.377 . S
C807 C806 1.524 . S
C807 C808 1.397 . S
C807 C812 1.363 . S
C808 H785 0.950 . S
C808 C807 1.397 . S
C808 C809 1.334 . S
C809 H786 0.950 . S
C809 C808 1.334 . S
C809 C810 1.287 . S
C810 C809 1.287 . S
C810 C811 1.524 . S
C810 H829 0.913 . S
C811 H787 0.950 . S
C811 C810 1.524 . S
C811 C812 1.415 . S
C812 H788 0.950 . S
C812 C807 1.363 . S
C812 C811 1.415 . S
C813 H789 0.951 . S
C813 C814 1.366 . S
C813 C815 1.388 . S
C814 C813 1.366 . S
C814 C818 1.385 . S
C815 H790 0.951 . S
C815 C813 1.388 . S
C815 C816 1.366 . S
C816 C815 1.366 . S
C816 C817 1.414 . S
C816 C819 1.499 . S
C817 H791 0.950 . S
C817 C816 1.414 . S
C817 C818 1.374 . S
C818 H792 0.950 . S
C818 C814 1.385 . S
C818 C817 1.374 . S
C819 C816 1.499 . S
C819 C820 1.373 . S
C819 C821 1.389 . S
C820 H793 0.950 . S
C820 C806 1.377 . S
C820 C819 1.373 . S
C821 C805 1.377 . S
C821 C819 1.389 . S
C821 C822 1.524 . S
C822 C821 1.524 . S
C822 C823 1.397 . S
C822 C827 1.363 . S
C823 H794 0.950 . S
C823 C822 1.397 . S
C823 C824 1.334 . S
C824 H795 0.950 . S
C824 C823 1.334 . S
C824 C825 1.287 . S
C825 C824 1.287 . S
C825 C826 1.524 . S
C825 H828 0.999 . S
C826 H796 0.950 . S
C826 C825 1.524 . S
C826 C827 1.415 . S
C827 H797 0.950 . S
C827 C822 1.363 . S
C827 C826 1.415 . S
H828 C825 0.999 . S
H829 C810 0.913 . S
H830 C848 0.951 . S
H831 C850 0.951 . S
H832 C852 0.950 . S
H833 C853 0.950 . S
H834 C855 0.950 . S
H835 C858 0.950 . S
H836 C859 0.950 . S
H837 C861 0.950 . S
H838 C862 0.950 . S
H839 C863 0.951 . S
H840 C865 0.951 . S
H841 C867 0.950 . S
H842 C868 0.950 . S
H843 C870 0.950 . S
H844 C873 0.950 . S
H845 C874 0.950 . S
H846 C876 0.950 . S
H847 C877 0.950 . S
C848 H830 0.951 . S
C848 C849 1.366 . S
C848 C850 1.388 . S
C849 C848 1.366 . S
C849 C853 1.385 . S
C850 H831 0.951 . S
C850 C848 1.388 . S
C850 C851 1.366 . S
C851 C850 1.366 . S
C851 C852 1.414 . S
C851 C854 1.499 . S
C852 H832 0.950 . S
C852 C851 1.414 . S
C852 C853 1.374 . S
C853 H833 0.950 . S
C853 C849 1.385 . S
C853 C852 1.374 . S
C854 C851 1.499 . S
C854 C855 1.373 . S
C854 C856 1.389 . S
C855 H834 0.950 . S
C855 C854 1.373 . S
C855 C871 1.377 . S
C856 C854 1.389 . S
C856 C857 1.524 . S
C856 C870 1.377 . S
C857 C856 1.524 . S
C857 C858 1.397 . S
C857 C862 1.363 . S
C858 H835 0.950 . S
C858 C857 1.397 . S
C858 C859 1.334 . S
C859 H836 0.950 . S
C859 C858 1.334 . S
C859 C860 1.287 . S
C860 C859 1.287 . S
C860 C861 1.524 . S
C860 H879 0.913 . S
C861 H837 0.950 . S
C861 C860 1.524 . S
C861 C862 1.415 . S
C862 H838 0.950 . S
C862 C857 1.363 . S
C862 C861 1.415 . S
C863 H839 0.951 . S
C863 C864 1.366 . S
C863 C865 1.388 . S
C864 C863 1.366 . S
C864 C868 1.385 . S
C865 H840 0.951 . S
C865 C863 1.388 . S
C865 C866 1.366 . S
C866 C865 1.366 . S
C866 C867 1.414 . S
C866 C869 1.499 . S
C867 H841 0.950 . S
C867 C866 1.414 . S
C867 C868 1.374 . S
C868 H842 0.950 . S
C868 C864 1.385 . S
C868 C867 1.374 . S
C869 C866 1.499 . S
C869 C870 1.373 . S
C869 C871 1.389 . S
C870 H843 0.950 . S
C870 C856 1.377 . S
C870 C869 1.373 . S
C871 C855 1.377 . S
C871 C869 1.389 . S
C871 C872 1.524 . S
C872 C871 1.524 . S
C872 C873 1.397 . S
C872 C877 1.363 . S
C873 H844 0.950 . S
C873 C872 1.397 . S
C873 C874 1.334 . S
C874 H845 0.950 . S
C874 C873 1.334 . S
C874 C875 1.287 . S
C875 C874 1.287 . S
C875 C876 1.524 . S
C875 H878 0.999 . S
C876 H846 0.950 . S
C876 C875 1.524 . S
C876 C877 1.415 . S
C877 H847 0.950 . S
C877 C872 1.363 . S
C877 C876 1.415 . S
H878 C875 0.999 . S
H879 C860 0.913 . S
H880 C898 0.951 . S
H881 C900 0.951 . S
H882 C902 0.950 . S
H883 C903 0.950 . S
H884 C905 0.950 . S
H885 C908 0.950 . S
H886 C909 0.950 . S
H887 C911 0.950 . S
H888 C912 0.950 . S
H889 C913 0.951 . S
H890 C915 0.951 . S
H891 C917 0.950 . S
H892 C918 0.950 . S
H893 C920 0.950 . S
H894 C923 0.950 . S
H895 C924 0.950 . S
H896 C926 0.950 . S
H897 C927 0.950 . S
C898 H880 0.951 . S
C898 C899 1.366 . S
C898 C900 1.388 . S
C899 C898 1.366 . S
C899 C903 1.385 . S
C900 H881 0.951 . S
C900 C898 1.388 . S
C900 C901 1.366 . S
C901 C900 1.366 . S
C901 C902 1.414 . S
C901 C904 1.499 . S
C902 H882 0.950 . S
C902 C901 1.414 . S
C902 C903 1.374 . S
C903 H883 0.950 . S
C903 C899 1.385 . S
C903 C902 1.374 . S
C904 C901 1.499 . S
C904 C905 1.373 . S
C904 C906 1.389 . S
C905 H884 0.950 . S
C905 C904 1.373 . S
C905 C921 1.377 . S
C906 C904 1.389 . S
C906 C907 1.524 . S
C906 C920 1.377 . S
C907 C906 1.524 . S
C907 C908 1.397 . S
C907 C912 1.363 . S
C908 H885 0.950 . S
C908 C907 1.397 . S
C908 C909 1.334 . S
C909 H886 0.950 . S
C909 C908 1.334 . S
C909 C910 1.287 . S
C910 C909 1.287 . S
C910 C911 1.524 . S
C910 H929 0.913 . S
C911 H887 0.950 . S
C911 C910 1.524 . S
C911 C912 1.415 . S
C912 H888 0.950 . S
C912 C907 1.363 . S
C912 C911 1.415 . S
C913 H889 0.951 . S
C913 C914 1.366 . S
C913 C915 1.388 . S
C914 C913 1.366 . S
C914 C918 1.385 . S
C915 H890 0.951 . S
C915 C913 1.388 . S
C915 C916 1.366 . S
C916 C915 1.366 . S
C916 C917 1.414 . S
C916 C919 1.499 . S
C917 H891 0.950 . S
C917 C916 1.414 . S
C917 C918 1.374 . S
C918 H892 0.950 . S
C918 C914 1.385 . S
C918 C917 1.374 . S
C919 C916 1.499 . S
C919 C920 1.373 . S
C919 C921 1.389 . S
C920 H893 0.950 . S
C920 C906 1.377 . S
C920 C919 1.373 . S
C921 C905 1.377 . S
C921 C919 1.389 . S
C921 C922 1.524 . S
C922 C921 1.524 . S
C922 C923 1.397 . S
C922 C927 1.363 . S
C923 H894 0.950 . S
C923 C922 1.397 . S
C923 C924 1.334 . S
C924 H895 0.950 . S
C924 C923 1.334 . S
C924 C925 1.287 . S
C925 C924 1.287 . S
C925 C926 1.524 . S
C925 H928 0.999 . S
C926 H896 0.950 . S
C926 C925 1.524 . S
C926 C927 1.415 . S
C927 H897 0.950 . S
C927 C922 1.363 . S
C927 C926 1.415 . S
H928 C925 0.999 . S
H929 C910 0.913 . S
H930 C948 0.951 . S
H931 C950 0.951 . S
H932 C952 0.950 . S
H933 C953 0.950 . S
H934 C955 0.950 . S
H935 C958 0.950 . S
H936 C959 0.950 . S
H937 C961 0.950 . S
H938 C962 0.950 . S
H939 C963 0.951 . S
H940 C965 0.951 . S
H941 C967 0.950 . S
H942 C968 0.950 . S
H943 C970 0.950 . S
H944 C973 0.950 . S
H945 C974 0.950 . S
H946 C976 0.950 . S
H947 C977 0.950 . S
C948 H930 0.951 . S
C948 C949 1.366 . S
C948 C950 1.388 . S
C949 C948 1.366 . S
C949 C953 1.385 . S
C950 H931 0.951 . S
C950 C948 1.388 . S
C950 C951 1.366 . S
C951 C950 1.366 . S
C951 C952 1.414 . S
C951 C954 1.499 . S
C952 H932 0.950 . S
C952 C951 1.414 . S
C952 C953 1.374 . S
C953 H933 0.950 . S
C953 C949 1.385 . S
C953 C952 1.374 . S
C954 C951 1.499 . S
C954 C955 1.373 . S
C954 C956 1.389 . S
C955 H934 0.950 . S
C955 C954 1.373 . S
C955 C971 1.377 . S
C956 C954 1.389 . S
C956 C957 1.524 . S
C956 C970 1.377 . S
C957 C956 1.524 . S
C957 C958 1.397 . S
C957 C962 1.363 . S
C958 H935 0.950 . S
C958 C957 1.397 . S
C958 C959 1.334 . S
C959 H936 0.950 . S
C959 C958 1.334 . S
C959 C960 1.287 . S
C960 C959 1.287 . S
C960 C961 1.524 . S
C960 H979 0.913 . S
C961 H937 0.950 . S
C961 C960 1.524 . S
C961 C962 1.415 . S
C962 H938 0.950 . S
C962 C957 1.363 . S
C962 C961 1.415 . S
C963 H939 0.951 . S
C963 C964 1.366 . S
C963 C965 1.388 . S
C964 C963 1.366 . S
C964 C968 1.385 . S
C965 H940 0.951 . S
C965 C963 1.388 . S
C965 C966 1.366 . S
C966 C965 1.366 . S
C966 C967 1.414 . S
C966 C969 1.499 . S
C967 H941 0.950 . S
C967 C966 1.414 . S
C967 C968 1.374 . S
C968 H942 0.950 . S
C968 C964 1.385 . S
C968 C967 1.374 . S
C969 C966 1.499 . S
C969 C970 1.373 . S
C969 C971 1.389 . S
C970 H943 0.950 . S
C970 C956 1.377 . S
C970 C969 1.373 . S
C971 C955 1.377 . S
C971 C969 1.389 . S
C971 C972 1.524 . S
C972 C971 1.524 . S
C972 C973 1.397 . S
C972 C977 1.363 . S
C973 H944 0.950 . S
C973 C972 1.397 . S
C973 C974 1.334 . S
C974 H945 0.950 . S
C974 C973 1.334 . S
C974 C975 1.287 . S
C975 C974 1.287 . S
C975 C976 1.524 . S
C975 H978 0.999 . S
C976 H946 0.950 . S
C976 C975 1.524 . S
C976 C977 1.415 . S
C977 H947 0.950 . S
C977 C972 1.363 . S
C977 C976 1.415 . S
H978 C975 0.999 . S
H979 C960 0.913 . S
H980 C998 0.951 . S
H981 C1000 0.951 . S
H982 C1002 0.950 . S
H983 C1003 0.950 . S
H984 C1005 0.950 . S
H985 C1008 0.950 . S
H986 C1009 0.950 . S
H987 C1011 0.950 . S
H988 C1012 0.950 . S
H989 C1013 0.951 . S
H990 C1015 0.951 . S
H991 C1017 0.950 . S
H992 C1018 0.950 . S
H993 C1020 0.950 . S
H994 C1023 0.950 . S
H995 C1024 0.950 . S
H996 C1026 0.950 . S
H997 C1027 0.950 . S
C998 H980 0.951 . S
C998 C999 1.366 . S
C998 C1000 1.388 . S
C999 C998 1.366 . S
C999 C1003 1.385 . S
C1000 H981 0.951 . S
C1000 C998 1.388 . S
C1000 C1001 1.366 . S
C1001 C1000 1.366 . S
C1001 C1002 1.414 . S
C1001 C1004 1.499 . S
C1002 H982 0.950 . S
C1002 C1001 1.414 . S
C1002 C1003 1.374 . S
C1003 H983 0.950 . S
C1003 C999 1.385 . S
C1003 C1002 1.374 . S
C1004 C1001 1.499 . S
C1004 C1005 1.373 . S
C1004 C1006 1.389 . S
C1005 H984 0.950 . S
C1005 C1004 1.373 . S
C1005 C1021 1.377 . S
C1006 C1004 1.389 . S
C1006 C1007 1.524 . S
C1006 C1020 1.377 . S
C1007 C1006 1.524 . S
C1007 C1008 1.397 . S
C1007 C1012 1.363 . S
C1008 H985 0.950 . S
C1008 C1007 1.397 . S
C1008 C1009 1.334 . S
C1009 H986 0.950 . S
C1009 C1008 1.334 . S
C1009 C1010 1.287 . S
C1010 C1009 1.287 . S
C1010 C1011 1.524 . S
C1010 H1029 0.913 . S
C1011 H987 0.950 . S
C1011 C1010 1.524 . S
C1011 C1012 1.415 . S
C1012 H988 0.950 . S
C1012 C1007 1.363 . S
C1012 C1011 1.415 . S
C1013 H989 0.951 . S
C1013 C1014 1.366 . S
C1013 C1015 1.388 . S
C1014 C1013 1.366 . S
C1014 C1018 1.385 . S
C1015 H990 0.951 . S
C1015 C1013 1.388 . S
C1015 C1016 1.366 . S
C1016 C1015 1.366 . S
C1016 C1017 1.414 . S
C1016 C1019 1.499 . S
C1017 H991 0.950 . S
C1017 C1016 1.414 . S
C1017 C1018 1.374 . S
C1018 H992 0.950 . S
C1018 C1014 1.385 . S
C1018 C1017 1.374 . S
C1019 C1016 1.499 . S
C1019 C1020 1.373 . S
C1019 C1021 1.389 . S
C1020 H993 0.950 . S
C1020 C1006 1.377 . S
C1020 C1019 1.373 . S
C1021 C1005 1.377 . S
C1021 C1019 1.389 . S
C1021 C1022 1.524 . S
C1022 C1021 1.524 . S
C1022 C1023 1.397 . S
C1022 C1027 1.363 . S
C1023 H994 0.950 . S
C1023 C1022 1.397 . S
C1023 C1024 1.334 . S
C1024 H995 0.950 . S
C1024 C1023 1.334 . S
C1024 C1025 1.287 . S
C1025 C1024 1.287 . S
C1025 C1026 1.524 . S
C1025 H1028 0.999 . S
C1026 H996 0.950 . S
C1026 C1025 1.524 . S
C1026 C1027 1.415 . S
C1027 H997 0.950 . S
C1027 C1022 1.363 . S
C1027 C1026 1.415 . S
H1028 C1025 0.999 . S
H1029 C1010 0.913 . S
H1030 C1048 0.951 . S
H1031 C1050 0.951 . S
H1032 C1052 0.950 . S
H1033 C1053 0.950 . S
H1034 C1055 0.950 . S
H1035 C1058 0.950 . S
H1036 C1059 0.950 . S
H1037 C1061 0.950 . S
H1038 C1062 0.950 . S
H1039 C1063 0.951 . S
H1040 C1065 0.951 . S
H1041 C1067 0.950 . S
H1042 C1068 0.950 . S
H1043 C1070 0.950 . S
H1044 C1073 0.950 . S
H1045 C1074 0.950 . S
H1046 C1076 0.950 . S
H1047 C1077 0.950 . S
C1048 H1030 0.951 . S
C1048 C1049 1.366 . S
C1048 C1050 1.388 . S
C1049 C1048 1.366 . S
C1049 C1053 1.385 . S
C1050 H1031 0.951 . S
C1050 C1048 1.388 . S
C1050 C1051 1.366 . S
C1051 C1050 1.366 . S
C1051 C1052 1.414 . S
C1051 C1054 1.499 . S
C1052 H1032 0.950 . S
C1052 C1051 1.414 . S
C1052 C1053 1.374 . S
C1053 H1033 0.950 . S
C1053 C1049 1.385 . S
C1053 C1052 1.374 . S
C1054 C1051 1.499 . S
C1054 C1055 1.373 . S
C1054 C1056 1.389 . S
C1055 H1034 0.950 . S
C1055 C1054 1.373 . S
C1055 C1071 1.377 . S
C1056 C1054 1.389 . S
C1056 C1057 1.524 . S
C1056 C1070 1.377 . S
C1057 C1056 1.524 . S
C1057 C1058 1.397 . S
C1057 C1062 1.363 . S
C1058 H1035 0.950 . S
C1058 C1057 1.397 . S
C1058 C1059 1.334 . S
C1059 H1036 0.950 . S
C1059 C1058 1.334 . S
C1059 C1060 1.287 . S
C1060 C1059 1.287 . S
C1060 C1061 1.524 . S
C1060 H1079 0.913 . S
C1061 H1037 0.950 . S
C1061 C1060 1.524 . S
C1061 C1062 1.415 . S
C1062 H1038 0.950 . S
C1062 C1057 1.363 . S
C1062 C1061 1.415 . S
C1063 H1039 0.951 . S
C1063 C1064 1.366 . S
C1063 C1065 1.388 . S
C1064 C1063 1.366 . S
C1064 C1068 1.385 . S
C1065 H1040 0.951 . S
C1065 C1063 1.388 . S
C1065 C1066 1.366 . S
C1066 C1065 1.366 . S
C1066 C1067 1.414 . S
C1066 C1069 1.499 . S
C1067 H1041 0.950 . S
C1067 C1066 1.414 . S
C1067 C1068 1.374 . S
C1068 H1042 0.950 . S
C1068 C1064 1.385 . S
C1068 C1067 1.374 . S
C1069 C1066 1.499 . S
C1069 C1070 1.373 . S
C1069 C1071 1.389 . S
C1070 H1043 0.950 . S
C1070 C1056 1.377 . S
C1070 C1069 1.373 . S
C1071 C1055 1.377 . S
C1071 C1069 1.389 . S
C1071 C1072 1.524 . S
C1072 C1071 1.524 . S
C1072 C1073 1.397 . S
C1072 C1077 1.363 . S
C1073 H1044 0.950 . S
C1073 C1072 1.397 . S
C1073 C1074 1.334 . S
C1074 H1045 0.950 . S
C1074 C1073 1.334 . S
C1074 C1075 1.287 . S
C1075 C1074 1.287 . S
C1075 C1076 1.524 . S
C1075 H1078 0.999 . S
C1076 H1046 0.950 . S
C1076 C1075 1.524 . S
C1076 C1077 1.415 . S
C1077 H1047 0.950 . S
C1077 C1072 1.363 . S
C1077 C1076 1.415 . S
H1078 C1075 0.999 . S
H1079 C1060 0.913 . S
H1080 C1098 0.951 . S
H1081 C1100 0.951 . S
H1082 C1102 0.950 . S
H1083 C1103 0.950 . S
H1084 C1105 0.950 . S
H1085 C1108 0.950 . S
H1086 C1109 0.950 . S
H1087 C1111 0.950 . S
H1088 C1112 0.950 . S
H1089 C1113 0.951 . S
H1090 C1115 0.951 . S
H1091 C1117 0.950 . S
H1092 C1118 0.950 . S
H1093 C1120 0.950 . S
H1094 C1123 0.950 . S
H1095 C1124 0.950 . S
H1096 C1126 0.950 . S
H1097 C1127 0.950 . S
C1098 H1080 0.951 . S
C1098 C1099 1.366 . S
C1098 C1100 1.388 . S
C1099 C1098 1.366 . S
C1099 C1103 1.385 . S
C1100 H1081 0.951 . S
C1100 C1098 1.388 . S
C1100 C1101 1.366 . S
C1101 C1100 1.366 . S
C1101 C1102 1.414 . S
C1101 C1104 1.499 . S
C1102 H1082 0.950 . S
C1102 C1101 1.414 . S
C1102 C1103 1.374 . S
C1103 H1083 0.950 . S
C1103 C1099 1.385 . S
C1103 C1102 1.374 . S
C1104 C1101 1.499 . S
C1104 C1105 1.373 . S
C1104 C1106 1.389 . S
C1105 H1084 0.950 . S
C1105 C1104 1.373 . S
C1105 C1121 1.377 . S
C1106 C1104 1.389 . S
C1106 C1107 1.524 . S
C1106 C1120 1.377 . S
C1107 C1106 1.524 . S
C1107 C1108 1.397 . S
C1107 C1112 1.363 . S
C1108 H1085 0.950 . S
C1108 C1107 1.397 . S
C1108 C1109 1.334 . S
C1109 H1086 0.950 . S
C1109 C1108 1.334 . S
C1109 C1110 1.287 . S
C1110 C1109 1.287 . S
C1110 C1111 1.524 . S
C1110 H1129 0.913 . S
C1111 H1087 0.950 . S
C1111 C1110 1.524 . S
C1111 C1112 1.415 . S
C1112 H1088 0.950 . S
C1112 C1107 1.363 . S
C1112 C1111 1.415 . S
C1113 H1089 0.951 . S
C1113 C1114 1.366 . S
C1113 C1115 1.388 . S
C1114 C1113 1.366 . S
C1114 C1118 1.385 . S
C1115 H1090 0.951 . S
C1115 C1113 1.388 . S
C1115 C1116 1.366 . S
C1116 C1115 1.366 . S
C1116 C1117 1.414 . S
C1116 C1119 1.499 . S
C1117 H1091 0.950 . S
C1117 C1116 1.414 . S
C1117 C1118 1.374 . S
C1118 H1092 0.950 . S
C1118 C1114 1.385 . S
C1118 C1117 1.374 . S
C1119 C1116 1.499 . S
C1119 C1120 1.373 . S
C1119 C1121 1.389 . S
C1120 H1093 0.950 . S
C1120 C1106 1.377 . S
C1120 C1119 1.373 . S
C1121 C1105 1.377 . S
C1121 C1119 1.389 . S
C1121 C1122 1.524 . S
C1122 C1121 1.524 . S
C1122 C1123 1.397 . S
C1122 C1127 1.363 . S
C1123 H1094 0.950 . S
C1123 C1122 1.397 . S
C1123 C1124 1.334 . S
C1124 H1095 0.950 . S
C1124 C1123 1.334 . S
C1124 C1125 1.287 . S
C1125 C1124 1.287 . S
C1125 C1126 1.524 . S
C1125 H1128 0.999 . S
C1126 H1096 0.950 . S
C1126 C1125 1.524 . S
C1126 C1127 1.415 . S
C1127 H1097 0.950 . S
C1127 C1122 1.363 . S
C1127 C1126 1.415 . S
H1128 C1125 0.999 . S
H1129 C1110 0.913 . S
H1130 C1148 0.951 . S
H1131 C1150 0.951 . S
H1132 C1152 0.950 . S
H1133 C1153 0.950 . S
H1134 C1155 0.950 . S
H1135 C1158 0.950 . S
H1136 C1159 0.950 . S
H1137 C1161 0.950 . S
H1138 C1162 0.950 . S
H1139 C1163 0.951 . S
H1140 C1165 0.951 . S
H1141 C1167 0.950 . S
H1142 C1168 0.950 . S
H1143 C1170 0.950 . S
H1144 C1173 0.950 . S
H1145 C1174 0.950 . S
H1146 C1176 0.950 . S
H1147 C1177 0.950 . S
C1148 H1130 0.951 . S
C1148 C1149 1.366 . S
C1148 C1150 1.388 . S
C1149 C1148 1.366 . S
C1149 C1153 1.385 . S
C1150 H1131 0.951 . S
C1150 C1148 1.388 . S
C1150 C1151 1.366 . S
C1151 C1150 1.366 . S
C1151 C1152 1.414 . S
C1151 C1154 1.499 . S
C1152 H1132 0.950 . S
C1152 C1151 1.414 . S
C1152 C1153 1.374 . S
C1153 H1133 0.950 . S
C1153 C1149 1.385 . S
C1153 C1152 1.374 . S
C1154 C1151 1.499 . S
C1154 C1155 1.373 . S
C1154 C1156 1.389 . S
C1155 H1134 0.950 . S
C1155 C1154 1.373 . S
C1155 C1171 1.377 . S
C1156 C1154 1.389 . S
C1156 C1157 1.524 . S
C1156 C1170 1.377 . S
C1157 C1156 1.524 . S
C1157 C1158 1.397 . S
C1157 C1162 1.363 . S
C1158 H1135 0.950 . S
C1158 C1157 1.397 . S
C1158 C1159 1.334 . S
C1159 H1136 0.950 . S
C1159 C1158 1.334 . S
C1159 C1160 1.287 . S
C1160 C1159 1.287 . S
C1160 C1161 1.524 . S
C1160 H1179 0.913 . S
C1161 H1137 0.950 . S
C1161 C1160 1.524 . S
C1161 C1162 1.415 . S
C1162 H1138 0.950 . S
C1162 C1157 1.363 . S
C1162 C1161 1.415 . S
C1163 H1139 0.951 . S
C1163 C1164 1.366 . S
C1163 C1165 1.388 . S
C1164 C1163 1.366 . S
C1164 C1168 1.385 . S
C1165 H1140 0.951 . S
C1165 C1163 1.388 . S
C1165 C1166 1.366 . S
C1166 C1165 1.366 . S
C1166 C1167 1.414 . S
C1166 C1169 1.499 . S
C1167 H1141 0.950 . S
C1167 C1166 1.414 . S
C1167 C1168 1.374 . S
C1168 H1142 0.950 . S
C1168 C1164 1.385 . S
C1168 C1167 1.374 . S
C1169 C1166 1.499 . S
C1169 C1170 1.373 . S
C1169 C1171 1.389 . S
C1170 H1143 0.950 . S
C1170 C1156 1.377 . S
C1170 C1169 1.373 . S
C1171 C1155 1.377 . S
C1171 C1169 1.389 . S
C1171 C1172 1.524 . S
C1172 C1171 1.524 . S
C1172 C1173 1.397 . S
C1172 C1177 1.363 . S
C1173 H1144 0.950 . S
C1173 C1172 1.397 . S
C1173 C1174 1.334 . S
C1174 H1145 0.950 . S
C1174 C1173 1.334 . S
C1174 C1175 1.287 . S
C1175 C1174 1.287 . S
C1175 C1176 1.524 . S
C1175 H1178 0.999 . S
C1176 H1146 0.950 . S
C1176 C1175 1.524 . S
C1176 C1177 1.415 . S
C1177 H1147 0.950 . S
C1177 C1172 1.363 . S
C1177 C1176 1.415 . S
H1178 C1175 0.999 . S
H1179 C1160 0.913 . S
H1180 C1198 0.951 . S
H1181 C1200 0.951 . S
H1182 C1202 0.950 . S
H1183 C1203 0.950 . S
H1184 C1205 0.950 . S
H1185 C1208 0.950 . S
H1186 C1209 0.950 . S
H1187 C1211 0.950 . S
H1188 C1212 0.950 . S
H1189 C1213 0.951 . S
H1190 C1215 0.951 . S
H1191 C1217 0.950 . S
H1192 C1218 0.950 . S
H1193 C1220 0.950 . S
H1194 C1223 0.950 . S
H1195 C1224 0.950 . S
H1196 C1226 0.950 . S
H1197 C1227 0.950 . S
C1198 H1180 0.951 . S
C1198 C1199 1.366 . S
C1198 C1200 1.388 . S
C1199 C1198 1.366 . S
C1199 C1203 1.385 . S
C1200 H1181 0.951 . S
C1200 C1198 1.388 . S
C1200 C1201 1.366 . S
C1201 C1200 1.366 . S
C1201 C1202 1.414 . S
C1201 C1204 1.499 . S
C1202 H1182 0.950 . S
C1202 C1201 1.414 . S
C1202 C1203 1.374 . S
C1203 H1183 0.950 . S
C1203 C1199 1.385 . S
C1203 C1202 1.374 . S
C1204 C1201 1.499 . S
C1204 C1205 1.373 . S
C1204 C1206 1.389 . S
C1205 H1184 0.950 . S
C1205 C1204 1.373 . S
C1205 C1221 1.377 . S
C1206 C1204 1.389 . S
C1206 C1207 1.524 . S
C1206 C1220 1.377 . S
C1207 C1206 1.524 . S
C1207 C1208 1.397 . S
C1207 C1212 1.363 . S
C1208 H1185 0.950 . S
C1208 C1207 1.397 . S
C1208 C1209 1.334 . S
C1209 H1186 0.950 . S
C1209 C1208 1.334 . S
C1209 C1210 1.287 . S
C1210 C1209 1.287 . S
C1210 C1211 1.524 . S
C1210 H1229 0.913 . S
C1211 H1187 0.950 . S
C1211 C1210 1.524 . S
C1211 C1212 1.415 . S
C1212 H1188 0.950 . S
C1212 C1207 1.363 . S
C1212 C1211 1.415 . S
C1213 H1189 0.951 . S
C1213 C1214 1.366 . S
C1213 C1215 1.388 . S
C1214 C1213 1.366 . S
C1214 C1218 1.385 . S
C1215 H1190 0.951 . S
C1215 C1213 1.388 . S
C1215 C1216 1.366 . S
C1216 C1215 1.366 . S
C1216 C1217 1.414 . S
C1216 C1219 1.499 . S
C1217 H1191 0.950 . S
C1217 C1216 1.414 . S
C1217 C1218 1.374 . S
C1218 H1192 0.950 . S
C1218 C1214 1.385 . S
C1218 C1217 1.374 . S
C1219 C1216 1.499 . S
C1219 C1220 1.373 . S
C1219 C1221 1.389 . S
C1220 H1193 0.950 . S
C1220 C1206 1.377 . S
C1220 C1219 1.373 . S
C1221 C1205 1.377 . S
C1221 C1219 1.389 . S
C1221 C1222 1.524 . S
C1222 C1221 1.524 . S
C1222 C1223 1.397 . S
C1222 C1227 1.363 . S
C1223 H1194 0.950 . S
C1223 C1222 1.397 . S
C1223 C1224 1.334 . S
C1224 H1195 0.950 . S
C1224 C1223 1.334 . S
C1224 C1225 1.287 . S
C1225 C1224 1.287 . S
C1225 C1226 1.524 . S
C1225 H1228 0.999 . S
C1226 H1196 0.950 . S
C1226 C1225 1.524 . S
C1226 C1227 1.415 . S
C1227 H1197 0.950 . S
C1227 C1222 1.363 . S
C1227 C1226 1.415 . S
H1228 C1225 0.999 . S
H1229 C1210 0.913 . S
H1230 C1248 0.951 . S
H1231 C1250 0.951 . S
H1232 C1252 0.950 . S
H1233 C1253 0.950 . S
H1234 C1255 0.950 . S
H1235 C1258 0.950 . S
H1236 C1259 0.950 . S
H1237 C1261 0.950 . S
H1238 C1262 0.950 . S
H1239 C1263 0.951 . S
H1240 C1265 0.951 . S
H1241 C1267 0.950 . S
H1242 C1268 0.950 . S
H1243 C1270 0.950 . S
H1244 C1273 0.950 . S
H1245 C1274 0.950 . S
H1246 C1276 0.950 . S
H1247 C1277 0.950 . S
C1248 H1230 0.951 . S
C1248 C1249 1.366 . S
C1248 C1250 1.388 . S
C1249 C1248 1.366 . S
C1249 C1253 1.385 . S
C1250 H1231 0.951 . S
C1250 C1248 1.388 . S
C1250 C1251 1.366 . S
C1251 C1250 1.366 . S
C1251 C1252 1.414 . S
C1251 C1254 1.499 . S
C1252 H1232 0.950 . S
C1252 C1251 1.414 . S
C1252 C1253 1.374 . S
C1253 H1233 0.950 . S
C1253 C1249 1.385 . S
C1253 C1252 1.374 . S
C1254 C1251 1.499 . S
C1254 C1255 1.373 . S
C1254 C1256 1.389 . S
C1255 H1234 0.950 . S
C1255 C1254 1.373 . S
C1255 C1271 1.377 . S
C1256 C1254 1.389 . S
C1256 C1257 1.524 . S
C1256 C1270 1.377 . S
C1257 C1256 1.524 . S
C1257 C1258 1.397 . S
C1257 C1262 1.363 . S
C1258 H1235 0.950 . S
C1258 C1257 1.397 . S
C1258 C1259 1.334 . S
C1259 H1236 0.950 . S
C1259 C1258 1.334 . S
C1259 C1260 1.287 . S
C1260 C1259 1.287 . S
C1260 C1261 1.524 . S
C1260 H1279 0.913 . S
C1261 H1237 0.950 . S
C1261 C1260 1.524 . S
C1261 C1262 1.415 . S
C1262 H1238 0.950 . S
C1262 C1257 1.363 . S
C1262 C1261 1.415 . S
C1263 H1239 0.951 . S
C1263 C1264 1.366 . S
C1263 C1265 1.388 . S
C1264 C1263 1.366 . S
C1264 C1268 1.385 . S
C1265 H1240 0.951 . S
C1265 C1263 1.388 . S
C1265 C1266 1.366 . S
C1266 C1265 1.366 . S
C1266 C1267 1.414 . S
C1266 C1269 1.499 . S
C1267 H1241 0.950 . S
C1267 C1266 1.414 . S
C1267 C1268 1.374 . S
C1268 H1242 0.950 . S
C1268 C1264 1.385 . S
C1268 C1267 1.374 . S
C1269 C1266 1.499 . S
C1269 C1270 1.373 . S
C1269 C1271 1.389 . S
C1270 H1243 0.950 . S
C1270 C1256 1.377 . S
C1270 C1269 1.373 . S
C1271 C1255 1.377 . S
C1271 C1269 1.389 . S
C1271 C1272 1.524 . S
C1272 C1271 1.524 . S
C1272 C1273 1.397 . S
C1272 C1277 1.363 . S
C1273 H1244 0.950 . S
C1273 C1272 1.397 . S
C1273 C1274 1.334 . S
C1274 H1245 0.950 . S
C1274 C1273 1.334 . S
C1274 C1275 1.287 . S
C1275 C1274 1.287 . S
C1275 C1276 1.524 . S
C1275 H1278 0.999 . S
C1276 H1246 0.950 . S
C1276 C1275 1.524 . S
C1276 C1277 1.415 . S
C1277 H1247 0.950 . S
C1277 C1272 1.363 . S
C1277 C1276 1.415 . S
H1278 C1275 0.999 . S
H1279 C1260 0.913 . S
H1280 C1298 0.951 . S
H1281 C1300 0.951 . S
H1282 C1302 0.950 . S
H1283 C1303 0.950 . S
H1284 C1305 0.950 . S
H1285 C1308 0.950 . S
H1286 C1309 0.950 . S
H1287 C1311 0.950 . S
H1288 C1312 0.950 . S
H1289 C1313 0.951 . S
H1290 C1315 0.951 . S
H1291 C1317 0.950 . S
H1292 C1318 0.950 . S
H1293 C1320 0.950 . S
H1294 C1323 0.950 . S
H1295 C1324 0.950 . S
H1296 C1326 0.950 . S
H1297 C1327 0.950 . S
C1298 H1280 0.951 . S
C1298 C1299 1.366 . S
C1298 C1300 1.388 . S
C1299 C1298 1.366 . S
C1299 C1303 1.385 . S
C1300 H1281 0.951 . S
C1300 C1298 1.388 . S
C1300 C1301 1.366 . S
C1301 C1300 1.366 . S
C1301 C1302 1.414 . S
C1301 C1304 1.499 . S
C1302 H1282 0.950 . S
C1302 C1301 1.414 . S
C1302 C1303 1.374 . S
C1303 H1283 0.950 . S
C1303 C1299 1.385 . S
C1303 C1302 1.374 . S
C1304 C1301 1.499 . S
C1304 C1305 1.373 . S
C1304 C1306 1.389 . S
C1305 H1284 0.950 . S
C1305 C1304 1.373 . S
C1305 C1321 1.377 . S
C1306 C1304 1.389 . S
C1306 C1307 1.524 . S
C1306 C1320 1.377 . S
C1307 C1306 1.524 . S
C1307 C1308 1.397 . S
C1307 C1312 1.363 . S
C1308 H1285 0.950 . S
C1308 C1307 1.397 . S
C1308 C1309 1.334 . S
C1309 H1286 0.950 . S
C1309 C1308 1.334 . S
C1309 C1310 1.287 . S
C1310 C1309 1.287 . S
C1310 C1311 1.524 . S
C1310 H1329 0.913 . S
C1311 H1287 0.950 . S
C1311 C1310 1.524 . S
C1311 C1312 1.415 . S
C1312 H1288 0.950 . S
C1312 C1307 1.363 . S
C1312 C1311 1.415 . S
C1313 H1289 0.951 . S
C1313 C1314 1.366 . S
C1313 C1315 1.388 . S
C1314 C1313 1.366 . S
C1314 C1318 1.385 . S
C1315 H1290 0.951 . S
C1315 C1313 1.388 . S
C1315 C1316 1.366 . S
C1316 C1315 1.366 . S
C1316 C1317 1.414 . S
C1316 C1319 1.499 . S
C1317 H1291 0.950 . S
C1317 C1316 1.414 . S
C1317 C1318 1.374 . S
C1318 H1292 0.950 . S
C1318 C1314 1.385 . S
C1318 C1317 1.374 . S
C1319 C1316 1.499 . S
C1319 C1320 1.373 . S
C1319 C1321 1.389 . S
C1320 H1293 0.950 . S
C1320 C1306 1.377 . S
C1320 C1319 1.373 . S
C1321 C1305 1.377 . S
C1321 C1319 1.389 . S
C1321 C1322 1.524 . S
C1322 C1321 1.524 . S
C1322 C1323 1.397 . S
C1322 C1327 1.363 . S
C1323 H1294 0.950 . S
C1323 C1322 1.397 . S
C1323 C1324 1.334 . S
C1324 H1295 0.950 . S
C1324 C1323 1.334 . S
C1324 C1325 1.287 . S
C1325 C1324 1.287 . S
C1325 C1326 1.524 . S
C1325 H1328 0.999 1_655 S
C1326 H1296 0.950 . S
C1326 C1325 1.524 . S
C1326 C1327 1.415 . S
C1327 H1297 0.950 . S
C1327 C1322 1.363 . S
C1327 C1326 1.415 . S
H1328 C1325 0.999 1_455 S
H1329 C1310 0.913 . S
H1330 C1348 0.951 . S
H1331 C1350 0.951 . S
H1332 C1352 0.950 . S
H1333 C1353 0.950 . S
H1334 C1355 0.950 . S
H1335 C1358 0.950 . S
H1336 C1359 0.950 . S
H1337 C1361 0.950 . S
H1338 C1362 0.950 . S
H1339 C1363 0.951 . S
H1340 C1365 0.951 . S
H1341 C1367 0.950 . S
H1342 C1368 0.950 . S
H1343 C1370 0.950 . S
H1344 C1373 0.950 . S
H1345 C1374 0.950 . S
H1346 C1376 0.950 . S
H1347 C1377 0.950 . S
C1348 H1330 0.951 . S
C1348 C1349 1.366 . S
C1348 C1350 1.388 . S
C1349 C1348 1.366 . S
C1349 C1353 1.385 . S
C1350 H1331 0.951 . S
C1350 C1348 1.388 . S
C1350 C1351 1.366 . S
C1351 C1350 1.366 . S
C1351 C1352 1.414 . S
C1351 C1354 1.499 . S
C1352 H1332 0.950 . S
C1352 C1351 1.414 . S
C1352 C1353 1.374 . S
C1353 H1333 0.950 . S
C1353 C1349 1.385 . S
C1353 C1352 1.374 . S
C1354 C1351 1.499 . S
C1354 C1355 1.373 . S
C1354 C1356 1.389 . S
C1355 H1334 0.950 . S
C1355 C1354 1.373 . S
C1355 C1371 1.377 . S
C1356 C1354 1.389 . S
C1356 C1357 1.524 . S
C1356 C1370 1.377 . S
C1357 C1356 1.524 . S
C1357 C1358 1.397 . S
C1357 C1362 1.363 . S
C1358 H1335 0.950 . S
C1358 C1357 1.397 . S
C1358 C1359 1.334 . S
C1359 H1336 0.950 . S
C1359 C1358 1.334 . S
C1359 C1360 1.287 . S
C1360 C1359 1.287 . S
C1360 C1361 1.524 . S
C1360 H1379 0.913 . S
C1361 H1337 0.950 . S
C1361 C1360 1.524 . S
C1361 C1362 1.415 . S
C1362 H1338 0.950 . S
C1362 C1357 1.363 . S
C1362 C1361 1.415 . S
C1363 H1339 0.951 . S
C1363 C1364 1.366 . S
C1363 C1365 1.388 . S
C1364 C1363 1.366 . S
C1364 C1368 1.385 . S
C1365 H1340 0.951 . S
C1365 C1363 1.388 . S
C1365 C1366 1.366 . S
C1366 C1365 1.366 . S
C1366 C1367 1.414 . S
C1366 C1369 1.499 . S
C1367 H1341 0.950 . S
C1367 C1366 1.414 . S
C1367 C1368 1.374 . S
C1368 H1342 0.950 . S
C1368 C1364 1.385 . S
C1368 C1367 1.374 . S
C1369 C1366 1.499 . S
C1369 C1370 1.373 . S
C1369 C1371 1.389 . S
C1370 H1343 0.950 . S
C1370 C1356 1.377 . S
C1370 C1369 1.373 . S
C1371 C1355 1.377 . S
C1371 C1369 1.389 . S
C1371 C1372 1.524 . S
C1372 C1371 1.524 . S
C1372 C1373 1.397 . S
C1372 C1377 1.363 . S
C1373 H1344 0.950 . S
C1373 C1372 1.397 . S
C1373 C1374 1.334 . S
C1374 H1345 0.950 . S
C1374 C1373 1.334 . S
C1374 C1375 1.287 . S
C1375 C1374 1.287 . S
C1375 C1376 1.524 . S
C1375 H1378 0.999 . S
C1376 H1346 0.950 . S
C1376 C1375 1.524 . S
C1376 C1377 1.415 . S
C1377 H1347 0.950 . S
C1377 C1372 1.363 . S
C1377 C1376 1.415 . S
H1378 C1375 0.999 . S
H1379 C1360 0.913 . S
H1380 C1398 0.951 . S
H1381 C1400 0.951 . S
H1382 C1402 0.950 . S
H1383 C1403 0.950 . S
H1384 C1405 0.950 . S
H1385 C1408 0.950 . S
H1386 C1409 0.950 . S
H1387 C1411 0.950 . S
H1388 C1412 0.950 . S
H1389 C1413 0.951 . S
H1390 C1415 0.951 . S
H1391 C1417 0.950 . S
H1392 C1418 0.950 . S
H1393 C1420 0.950 . S
H1394 C1423 0.950 . S
H1395 C1424 0.950 . S
H1396 C1426 0.950 . S
H1397 C1427 0.950 . S
C1398 H1380 0.951 . S
C1398 C1399 1.366 . S
C1398 C1400 1.388 . S
C1399 C1398 1.366 . S
C1399 C1403 1.385 . S
C1400 H1381 0.951 . S
C1400 C1398 1.388 . S
C1400 C1401 1.366 . S
C1401 C1400 1.366 . S
C1401 C1402 1.414 . S
C1401 C1404 1.499 . S
C1402 H1382 0.950 . S
C1402 C1401 1.414 . S
C1402 C1403 1.374 . S
C1403 H1383 0.950 . S
C1403 C1399 1.385 . S
C1403 C1402 1.374 . S
C1404 C1401 1.499 . S
C1404 C1405 1.373 . S
C1404 C1406 1.389 . S
C1405 H1384 0.950 . S
C1405 C1404 1.373 . S
C1405 C1421 1.377 . S
C1406 C1404 1.389 . S
C1406 C1407 1.524 . S
C1406 C1420 1.377 . S
C1407 C1406 1.524 . S
C1407 C1408 1.397 . S
C1407 C1412 1.363 . S
C1408 H1385 0.950 . S
C1408 C1407 1.397 . S
C1408 C1409 1.334 . S
C1409 H1386 0.950 . S
C1409 C1408 1.334 . S
C1409 C1410 1.287 . S
C1410 C1409 1.287 . S
C1410 C1411 1.524 . S
C1410 H1429 0.913 . S
C1411 H1387 0.950 . S
C1411 C1410 1.524 . S
C1411 C1412 1.415 . S
C1412 H1388 0.950 . S
C1412 C1407 1.363 . S
C1412 C1411 1.415 . S
C1413 H1389 0.951 . S
C1413 C1414 1.366 . S
C1413 C1415 1.388 . S
C1414 C1413 1.366 . S
C1414 C1418 1.385 . S
C1415 H1390 0.951 . S
C1415 C1413 1.388 . S
C1415 C1416 1.366 . S
C1416 C1415 1.366 . S
C1416 C1417 1.414 . S
C1416 C1419 1.499 . S
C1417 H1391 0.950 . S
C1417 C1416 1.414 . S
C1417 C1418 1.374 . S
C1418 H1392 0.950 . S
C1418 C1414 1.385 . S
C1418 C1417 1.374 . S
C1419 C1416 1.499 . S
C1419 C1420 1.373 . S
C1419 C1421 1.389 . S
C1420 H1393 0.950 . S
C1420 C1406 1.377 . S
C1420 C1419 1.373 . S
C1421 C1405 1.377 . S
C1421 C1419 1.389 . S
C1421 C1422 1.524 . S
C1422 C1421 1.524 . S
C1422 C1423 1.397 . S
C1422 C1427 1.363 . S
C1423 H1394 0.950 . S
C1423 C1422 1.397 . S
C1423 C1424 1.334 . S
C1424 H1395 0.950 . S
C1424 C1423 1.334 . S
C1424 C1425 1.287 . S
C1425 C1424 1.287 . S
C1425 C1426 1.524 . S
C1425 H1428 0.999 . S
C1426 H1396 0.950 . S
C1426 C1425 1.524 . S
C1426 C1427 1.415 . S
C1427 H1397 0.950 . S
C1427 C1422 1.363 . S
C1427 C1426 1.415 . S
H1428 C1425 0.999 . S
H1429 C1410 0.913 . S
H1430 C1448 0.951 . S
H1431 C1450 0.951 . S
H1432 C1452 0.950 . S
H1433 C1453 0.950 . S
H1434 C1455 0.950 . S
H1435 C1458 0.950 . S
H1436 C1459 0.950 . S
H1437 C1461 0.950 . S
H1438 C1462 0.950 . S
H1439 C1463 0.951 . S
H1440 C1465 0.951 . S
H1441 C1467 0.950 . S
H1442 C1468 0.950 . S
H1443 C1470 0.950 . S
H1444 C1473 0.950 . S
H1445 C1474 0.950 . S
H1446 C1476 0.950 . S
H1447 C1477 0.950 . S
C1448 H1430 0.951 . S
C1448 C1449 1.366 . S
C1448 C1450 1.388 . S
C1449 C1448 1.366 . S
C1449 C1453 1.385 . S
C1450 H1431 0.951 . S
C1450 C1448 1.388 . S
C1450 C1451 1.366 . S
C1451 C1450 1.366 . S
C1451 C1452 1.414 . S
C1451 C1454 1.499 . S
C1452 H1432 0.950 . S
C1452 C1451 1.414 . S
C1452 C1453 1.374 . S
C1453 H1433 0.950 . S
C1453 C1449 1.385 . S
C1453 C1452 1.374 . S
C1454 C1451 1.499 . S
C1454 C1455 1.373 . S
C1454 C1456 1.389 . S
C1455 H1434 0.950 . S
C1455 C1454 1.373 . S
C1455 C1471 1.377 . S
C1456 C1454 1.389 . S
C1456 C1457 1.524 . S
C1456 C1470 1.377 . S
C1457 C1456 1.524 . S
C1457 C1458 1.397 . S
C1457 C1462 1.363 . S
C1458 H1435 0.950 . S
C1458 C1457 1.397 . S
C1458 C1459 1.334 . S
C1459 H1436 0.950 . S
C1459 C1458 1.334 . S
C1459 C1460 1.287 . S
C1460 C1459 1.287 . S
C1460 C1461 1.524 . S
C1460 H1479 0.913 . S
C1461 H1437 0.950 . S
C1461 C1460 1.524 . S
C1461 C1462 1.415 . S
C1462 H1438 0.950 . S
C1462 C1457 1.363 . S
C1462 C1461 1.415 . S
C1463 H1439 0.951 . S
C1463 C1464 1.366 . S
C1463 C1465 1.388 . S
C1464 C1463 1.366 . S
C1464 C1468 1.385 . S
C1465 H1440 0.951 . S
C1465 C1463 1.388 . S
C1465 C1466 1.366 . S
C1466 C1465 1.366 . S
C1466 C1467 1.414 . S
C1466 C1469 1.499 . S
C1467 H1441 0.950 . S
C1467 C1466 1.414 . S
C1467 C1468 1.374 . S
C1468 H1442 0.950 . S
C1468 C1464 1.385 . S
C1468 C1467 1.374 . S
C1469 C1466 1.499 . S
C1469 C1470 1.373 . S
C1469 C1471 1.389 . S
C1470 H1443 0.950 . S
C1470 C1456 1.377 . S
C1470 C1469 1.373 . S
C1471 C1455 1.377 . S
C1471 C1469 1.389 . S
C1471 C1472 1.524 . S
C1472 C1471 1.524 . S
C1472 C1473 1.397 . S
C1472 C1477 1.363 . S
C1473 H1444 0.950 . S
C1473 C1472 1.397 . S
C1473 C1474 1.334 . S
C1474 H1445 0.950 . S
C1474 C1473 1.334 . S
C1474 C1475 1.287 . S
C1475 C1474 1.287 . S
C1475 C1476 1.524 . S
C1475 H1478 0.999 . S
C1476 H1446 0.950 . S
C1476 C1475 1.524 . S
C1476 C1477 1.415 . S
C1477 H1447 0.950 . S
C1477 C1472 1.363 . S
C1477 C1476 1.415 . S
H1478 C1475 0.999 . S
H1479 C1460 0.913 . S
H1480 C1498 0.951 . S
H1481 C1500 0.951 . S
H1482 C1502 0.950 . S
H1483 C1503 0.950 . S
H1484 C1505 0.950 . S
H1485 C1508 0.950 . S
H1486 C1509 0.950 . S
H1487 C1511 0.950 . S
H1488 C1512 0.950 . S
H1489 C1513 0.951 . S
H1490 C1515 0.951 . S
H1491 C1517 0.950 . S
H1492 C1518 0.950 . S
H1493 C1520 0.950 . S
H1494 C1523 0.950 . S
H1495 C1524 0.950 . S
H1496 C1526 0.950 . S
H1497 C1527 0.950 . S
C1498 H1480 0.951 . S
C1498 C1499 1.366 . S
C1498 C1500 1.388 . S
C1499 C1498 1.366 . S
C1499 C1503 1.385 . S
C1500 H1481 0.951 . S
C1500 C1498 1.388 . S
C1500 C1501 1.366 . S
C1501 C1500 1.366 . S
C1501 C1502 1.414 . S
C1501 C1504 1.499 . S
C1502 H1482 0.950 . S
C1502 C1501 1.414 . S
C1502 C1503 1.374 . S
C1503 H1483 0.950 . S
C1503 C1499 1.385 . S
C1503 C1502 1.374 . S
C1504 C1501 1.499 . S
C1504 C1505 1.373 . S
C1504 C1506 1.389 . S
C1505 H1484 0.950 . S
C1505 C1504 1.373 . S
C1505 C1521 1.377 . S
C1506 C1504 1.389 . S
C1506 C1507 1.524 . S
C1506 C1520 1.377 . S
C1507 C1506 1.524 . S
C1507 C1508 1.397 . S
C1507 C1512 1.363 . S
C1508 H1485 0.950 . S
C1508 C1507 1.397 . S
C1508 C1509 1.334 . S
C1509 H1486 0.950 . S
C1509 C1508 1.334 . S
C1509 C1510 1.287 . S
C1510 C1509 1.287 . S
C1510 C1511 1.524 . S
C1510 H1529 0.913 . S
C1511 H1487 0.950 . S
C1511 C1510 1.524 . S
C1511 C1512 1.415 . S
C1512 H1488 0.950 . S
C1512 C1507 1.363 . S
C1512 C1511 1.415 . S
C1513 H1489 0.951 . S
C1513 C1514 1.366 . S
C1513 C1515 1.388 . S
C1514 C1513 1.366 . S
C1514 C1518 1.385 . S
C1515 H1490 0.951 . S
C1515 C1513 1.388 . S
C1515 C1516 1.366 . S
C1516 C1515 1.366 . S
C1516 C1517 1.414 . S
C1516 C1519 1.499 . S
C1517 H1491 0.950 . S
C1517 C1516 1.414 . S
C1517 C1518 1.374 . S
C1518 H1492 0.950 . S
C1518 C1514 1.385 . S
C1518 C1517 1.374 . S
C1519 C1516 1.499 . S
C1519 C1520 1.373 . S
C1519 C1521 1.389 . S
C1520 H1493 0.950 . S
C1520 C1506 1.377 . S
C1520 C1519 1.373 . S
C1521 C1505 1.377 . S
C1521 C1519 1.389 . S
C1521 C1522 1.524 . S
C1522 C1521 1.524 . S
C1522 C1523 1.397 . S
C1522 C1527 1.363 . S
C1523 H1494 0.950 . S
C1523 C1522 1.397 . S
C1523 C1524 1.334 . S
C1524 H1495 0.950 . S
C1524 C1523 1.334 . S
C1524 C1525 1.287 . S
C1525 C1524 1.287 . S
C1525 C1526 1.524 . S
C1525 H1528 0.999 . S
C1526 H1496 0.950 . S
C1526 C1525 1.524 . S
C1526 C1527 1.415 . S
C1527 H1497 0.950 . S
C1527 C1522 1.363 . S
C1527 C1526 1.415 . S
H1528 C1525 0.999 . S
H1529 C1510 0.913 . S
H1530 C1548 0.951 . S
H1531 C1550 0.951 . S
H1532 C1552 0.950 . S
H1533 C1553 0.950 . S
H1534 C1555 0.950 . S
H1535 C1558 0.950 . S
H1536 C1559 0.950 . S
H1537 C1561 0.950 . S
H1538 C1562 0.950 . S
H1539 C1563 0.951 . S
H1540 C1565 0.951 . S
H1541 C1567 0.950 . S
H1542 C1568 0.950 . S
H1543 C1570 0.950 . S
H1544 C1573 0.950 . S
H1545 C1574 0.950 . S
H1546 C1576 0.950 . S
H1547 C1577 0.950 . S
C1548 H1530 0.951 . S
C1548 C1549 1.366 . S
C1548 C1550 1.388 . S
C1549 C1548 1.366 . S
C1549 C1553 1.385 . S
C1550 H1531 0.951 . S
C1550 C1548 1.388 . S
C1550 C1551 1.366 . S
C1551 C1550 1.366 . S
C1551 C1552 1.414 . S
C1551 C1554 1.499 . S
C1552 H1532 0.950 . S
C1552 C1551 1.414 . S
C1552 C1553 1.374 . S
C1553 H1533 0.950 . S
C1553 C1549 1.385 . S
C1553 C1552 1.374 . S
C1554 C1551 1.499 . S
C1554 C1555 1.373 . S
C1554 C1556 1.389 . S
C1555 H1534 0.950 . S
C1555 C1554 1.373 . S
C1555 C1571 1.377 . S
C1556 C1554 1.389 . S
C1556 C1557 1.524 . S
C1556 C1570 1.377 . S
C1557 C1556 1.524 . S
C1557 C1558 1.397 . S
C1557 C1562 1.363 . S
C1558 H1535 0.950 . S
C1558 C1557 1.397 . S
C1558 C1559 1.334 . S
C1559 H1536 0.950 . S
C1559 C1558 1.334 . S
C1559 C1560 1.287 . S
C1560 C1559 1.287 . S
C1560 C1561 1.524 . S
C1560 H1579 0.913 . S
C1561 H1537 0.950 . S
C1561 C1560 1.524 . S
C1561 C1562 1.415 . S
C1562 H1538 0.950 . S
C1562 C1557 1.363 . S
C1562 C1561 1.415 . S
C1563 H1539 0.951 . S
C1563 C1564 1.366 . S
C1563 C1565 1.388 . S
C1564 C1563 1.366 . S
C1564 C1568 1.385 . S
C1565 H1540 0.951 . S
C1565 C1563 1.388 . S
C1565 C1566 1.366 . S
C1566 C1565 1.366 . S
C1566 C1567 1.414 . S
C1566 C1569 1.499 . S
C1567 H1541 0.950 . S
C1567 C1566 1.414 . S
C1567 C1568 1.374 . S
C1568 H1542 0.950 . S
C1568 C1564 1.385 . S
C1568 C1567 1.374 . S
C1569 C1566 1.499 . S
C1569 C1570 1.373 . S
C1569 C1571 1.389 . S
C1570 H1543 0.950 . S
C1570 C1556 1.377 . S
C1570 C1569 1.373 . S
C1571 C1555 1.377 . S
C1571 C1569 1.389 . S
C1571 C1572 1.524 . S
C1572 C1571 1.524 . S
C1572 C1573 1.397 . S
C1572 C1577 1.363 . S
C1573 H1544 0.950 . S
C1573 C1572 1.397 . S
C1573 C1574 1.334 . S
C1574 H1545 0.950 . S
C1574 C1573 1.334 . S
C1574 C1575 1.287 . S
C1575 C1574 1.287 . S
C1575 C1576 1.524 . S
C1575 H1578 0.999 . S
C1576 H1546 0.950 . S
C1576 C1575 1.524 . S
C1576 C1577 1.415 . S
C1577 H1547 0.950 . S
C1577 C1572 1.363 . S
C1577 C1576 1.415 . S
H1578 C1575 0.999 . S
H1579 C1560 0.913 . S
H1580 C1598 0.951 . S
H1581 C1600 0.951 . S
H1582 C1602 0.950 . S
H1583 C1603 0.950 . S
H1584 C1605 0.950 . S
H1585 C1608 0.950 . S
H1586 C1609 0.950 . S
H1587 C1611 0.950 . S
H1588 C1612 0.950 . S
H1589 C1613 0.951 . S
H1590 C1615 0.951 . S
H1591 C1617 0.950 . S
H1592 C1618 0.950 . S
H1593 C1620 0.950 . S
H1594 C1623 0.950 . S
H1595 C1624 0.950 . S
H1596 C1626 0.950 . S
H1597 C1627 0.950 . S
C1598 H1580 0.951 . S
C1598 C1599 1.366 . S
C1598 C1600 1.388 . S
C1599 C1598 1.366 . S
C1599 C1603 1.385 . S
C1600 H1581 0.951 . S
C1600 C1598 1.388 . S
C1600 C1601 1.366 . S
C1601 C1600 1.366 . S
C1601 C1602 1.414 . S
C1601 C1604 1.499 . S
C1602 H1582 0.950 . S
C1602 C1601 1.414 . S
C1602 C1603 1.374 . S
C1603 H1583 0.950 . S
C1603 C1599 1.385 . S
C1603 C1602 1.374 . S
C1604 C1601 1.499 . S
C1604 C1605 1.373 . S
C1604 C1606 1.389 . S
C1605 H1584 0.950 . S
C1605 C1604 1.373 . S
C1605 C1621 1.377 . S
C1606 C1604 1.389 . S
C1606 C1607 1.524 . S
C1606 C1620 1.377 . S
C1607 C1606 1.524 . S
C1607 C1608 1.397 . S
C1607 C1612 1.363 . S
C1608 H1585 0.950 . S
C1608 C1607 1.397 . S
C1608 C1609 1.334 . S
C1609 H1586 0.950 . S
C1609 C1608 1.334 . S
C1609 C1610 1.287 . S
C1610 C1609 1.287 . S
C1610 C1611 1.524 . S
C1610 H1629 0.913 . S
C1611 H1587 0.950 . S
C1611 C1610 1.524 . S
C1611 C1612 1.415 . S
C1612 H1588 0.950 . S
C1612 C1607 1.363 . S
C1612 C1611 1.415 . S
C1613 H1589 0.951 . S
C1613 C1614 1.366 . S
C1613 C1615 1.388 . S
C1614 C1613 1.366 . S
C1614 C1618 1.385 . S
C1615 H1590 0.951 . S
C1615 C1613 1.388 . S
C1615 C1616 1.366 . S
C1616 C1615 1.366 . S
C1616 C1617 1.414 . S
C1616 C1619 1.499 . S
C1617 H1591 0.950 . S
C1617 C1616 1.414 . S
C1617 C1618 1.374 . S
C1618 H1592 0.950 . S
C1618 C1614 1.385 . S
C1618 C1617 1.374 . S
C1619 C1616 1.499 . S
C1619 C1620 1.373 . S
C1619 C1621 1.389 . S
C1620 H1593 0.950 . S
C1620 C1606 1.377 . S
C1620 C1619 1.373 . S
C1621 C1605 1.377 . S
C1621 C1619 1.389 . S
C1621 C1622 1.524 . S
C1622 C1621 1.524 . S
C1622 C1623 1.397 . S
C1622 C1627 1.363 . S
C1623 H1594 0.950 . S
C1623 C1622 1.397 . S
C1623 C1624 1.334 . S
C1624 H1595 0.950 . S
C1624 C1623 1.334 . S
C1624 C1625 1.287 . S
C1625 C1624 1.287 . S
C1625 C1626 1.524 . S
C1625 H1628 0.999 . S
C1626 H1596 0.950 . S
C1626 C1625 1.524 . S
C1626 C1627 1.415 . S
C1627 H1597 0.950 . S
C1627 C1622 1.363 . S
C1627 C1626 1.415 . S
H1628 C1625 0.999 . S
H1629 C1610 0.913 . S
H1630 C1648 0.951 . S
H1631 C1650 0.951 . S
H1632 C1652 0.950 . S
H1633 C1653 0.950 . S
H1634 C1655 0.950 . S
H1635 C1658 0.950 . S
H1636 C1659 0.950 . S
H1637 C1661 0.950 . S
H1638 C1662 0.950 . S
H1639 C1663 0.951 . S
H1640 C1665 0.951 . S
H1641 C1667 0.950 . S
H1642 C1668 0.950 . S
H1643 C1670 0.950 . S
H1644 C1673 0.950 . S
H1645 C1674 0.950 . S
H1646 C1676 0.950 . S
H1647 C1677 0.950 . S
C1648 H1630 0.951 . S
C1648 C1649 1.366 . S
C1648 C1650 1.388 . S
C1649 C1648 1.366 . S
C1649 C1653 1.385 . S
C1650 H1631 0.951 . S
C1650 C1648 1.388 . S
C1650 C1651 1.366 . S
C1651 C1650 1.366 . S
C1651 C1652 1.414 . S
C1651 C1654 1.499 . S
C1652 H1632 0.950 . S
C1652 C1651 1.414 . S
C1652 C1653 1.374 . S
C1653 H1633 0.950 . S
C1653 C1649 1.385 . S
C1653 C1652 1.374 . S
C1654 C1651 1.499 . S
C1654 C1655 1.373 . S
C1654 C1656 1.389 . S
C1655 H1634 0.950 . S
C1655 C1654 1.373 . S
C1655 C1671 1.377 . S
C1656 C1654 1.389 . S
C1656 C1657 1.524 . S
C1656 C1670 1.377 . S
C1657 C1656 1.524 . S
C1657 C1658 1.397 . S
C1657 C1662 1.363 . S
C1658 H1635 0.950 . S
C1658 C1657 1.397 . S
C1658 C1659 1.334 . S
C1659 H1636 0.950 . S
C1659 C1658 1.334 . S
C1659 C1660 1.287 . S
C1660 C1659 1.287 . S
C1660 C1661 1.524 . S
C1660 H1679 0.913 . S
C1661 H1637 0.950 . S
C1661 C1660 1.524 . S
C1661 C1662 1.415 . S
C1662 H1638 0.950 . S
C1662 C1657 1.363 . S
C1662 C1661 1.415 . S
C1663 H1639 0.951 . S
C1663 C1664 1.366 . S
C1663 C1665 1.388 . S
C1664 C1663 1.366 . S
C1664 C1668 1.385 . S
C1665 H1640 0.951 . S
C1665 C1663 1.388 . S
C1665 C1666 1.366 . S
C1666 C1665 1.366 . S
C1666 C1667 1.414 . S
C1666 C1669 1.499 . S
C1667 H1641 0.950 . S
C1667 C1666 1.414 . S
C1667 C1668 1.374 . S
C1668 H1642 0.950 . S
C1668 C1664 1.385 . S
C1668 C1667 1.374 . S
C1669 C1666 1.499 . S
C1669 C1670 1.373 . S
C1669 C1671 1.389 . S
C1670 H1643 0.950 . S
C1670 C1656 1.377 . S
C1670 C1669 1.373 . S
C1671 C1655 1.377 . S
C1671 C1669 1.389 . S
C1671 C1672 1.524 . S
C1672 C1671 1.524 . S
C1672 C1673 1.397 . S
C1672 C1677 1.363 . S
C1673 H1644 0.950 . S
C1673 C1672 1.397 . S
C1673 C1674 1.334 . S
C1674 H1645 0.950 . S
C1674 C1673 1.334 . S
C1674 C1675 1.287 . S
C1675 C1674 1.287 . S
C1675 C1676 1.524 . S
C1675 H1678 0.999 . S
C1676 H1646 0.950 . S
C1676 C1675 1.524 . S
C1676 C1677 1.415 . S
C1677 H1647 0.950 . S
C1677 C1672 1.363 . S
C1677 C1676 1.415 . S
H1678 C1675 0.999 . S
H1679 C1660 0.913 . S
H1680 C1698 0.951 . S
H1681 C1700 0.951 . S
H1682 C1702 0.950 . S
H1683 C1703 0.950 . S
H1684 C1705 0.950 . S
H1685 C1708 0.950 . S
H1686 C1709 0.950 . S
H1687 C1711 0.950 . S
H1688 C1712 0.950 . S
H1689 C1713 0.951 . S
H1690 C1715 0.951 . S
H1691 C1717 0.950 . S
H1692 C1718 0.950 . S
H1693 C1720 0.950 . S
H1694 C1723 0.950 . S
H1695 C1724 0.950 . S
H1696 C1726 0.950 . S
H1697 C1727 0.950 . S
C1698 H1680 0.951 . S
C1698 C1699 1.366 . S
C1698 C1700 1.388 . S
C1699 C1698 1.366 . S
C1699 C1703 1.385 . S
C1700 H1681 0.951 . S
C1700 C1698 1.388 . S
C1700 C1701 1.366 . S
C1701 C1700 1.366 . S
C1701 C1702 1.414 . S
C1701 C1704 1.499 . S
C1702 H1682 0.950 . S
C1702 C1701 1.414 . S
C1702 C1703 1.374 . S
C1703 H1683 0.950 . S
C1703 C1699 1.385 . S
C1703 C1702 1.374 . S
C1704 C1701 1.499 . S
C1704 C1705 1.373 . S
C1704 C1706 1.389 . S
C1705 H1684 0.950 . S
C1705 C1704 1.373 . S
C1705 C1721 1.377 . S
C1706 C1704 1.389 . S
C1706 C1707 1.524 . S
C1706 C1720 1.377 . S
C1707 C1706 1.524 . S
C1707 C1708 1.397 . S
C1707 C1712 1.363 . S
C1708 H1685 0.950 . S
C1708 C1707 1.397 . S
C1708 C1709 1.334 . S
C1709 H1686 0.950 . S
C1709 C1708 1.334 . S
C1709 C1710 1.287 . S
C1710 C1709 1.287 . S
C1710 C1711 1.524 . S
C1710 H1729 0.913 . S
C1711 H1687 0.950 . S
C1711 C1710 1.524 . S
C1711 C1712 1.415 . S
C1712 H1688 0.950 . S
C1712 C1707 1.363 . S
C1712 C1711 1.415 . S
C1713 H1689 0.951 . S
C1713 C1714 1.366 . S
C1713 C1715 1.388 . S
C1714 C1713 1.366 . S
C1714 C1718 1.385 . S
C1715 H1690 0.951 . S
C1715 C1713 1.388 . S
C1715 C1716 1.366 . S
C1716 C1715 1.366 . S
C1716 C1717 1.414 . S
C1716 C1719 1.499 . S
C1717 H1691 0.950 . S
C1717 C1716 1.414 . S
C1717 C1718 1.374 . S
C1718 H1692 0.950 . S
C1718 C1714 1.385 . S
C1718 C1717 1.374 . S
C1719 C1716 1.499 . S
C1719 C1720 1.373 . S
C1719 C1721 1.389 . S
C1720 H1693 0.950 . S
C1720 C1706 1.377 . S
C1720 C1719 1.373 . S
C1721 C1705 1.377 . S
C1721 C1719 1.389 . S
C1721 C1722 1.524 . S
C1722 C1721 1.524 . S
C1722 C1723 1.397 . S
C1722 C1727 1.363 . S
C1723 H1694 0.950 . S
C1723 C1722 1.397 . S
C1723 C1724 1.334 . S
C1724 H1695 0.950 . S
C1724 C1723 1.334 . S
C1724 C1725 1.287 . S
C1725 C1724 1.287 . S
C1725 C1726 1.524 . S
C1725 H1728 0.999 . S
C1726 H1696 0.950 . S
C1726 C1725 1.524 . S
C1726 C1727 1.415 . S
C1727 H1697 0.950 . S
C1727 C1722 1.363 . S
C1727 C1726 1.415 . S
H1728 C1725 0.999 . S
H1729 C1710 0.913 . S
H1730 C1748 0.951 . S
H1731 C1750 0.951 . S
H1732 C1752 0.950 . S
H1733 C1753 0.950 . S
H1734 C1755 0.950 . S
H1735 C1758 0.950 . S
H1736 C1759 0.950 . S
H1737 C1761 0.950 . S
H1738 C1762 0.950 . S
H1739 C1763 0.951 . S
H1740 C1765 0.951 . S
H1741 C1767 0.950 . S
H1742 C1768 0.950 . S
H1743 C1770 0.950 . S
H1744 C1773 0.950 . S
H1745 C1774 0.950 . S
H1746 C1776 0.950 . S
H1747 C1777 0.950 . S
C1748 H1730 0.951 . S
C1748 C1749 1.366 . S
C1748 C1750 1.388 . S
C1749 C1748 1.366 . S
C1749 C1753 1.385 . S
C1750 H1731 0.951 . S
C1750 C1748 1.388 . S
C1750 C1751 1.366 . S
C1751 C1750 1.366 . S
C1751 C1752 1.414 . S
C1751 C1754 1.499 . S
C1752 H1732 0.950 . S
C1752 C1751 1.414 . S
C1752 C1753 1.374 . S
C1753 H1733 0.950 . S
C1753 C1749 1.385 . S
C1753 C1752 1.374 . S
C1754 C1751 1.499 . S
C1754 C1755 1.373 . S
C1754 C1756 1.389 . S
C1755 H1734 0.950 . S
C1755 C1754 1.373 . S
C1755 C1771 1.377 . S
C1756 C1754 1.389 . S
C1756 C1757 1.524 . S
C1756 C1770 1.377 . S
C1757 C1756 1.524 . S
C1757 C1758 1.397 . S
C1757 C1762 1.363 . S
C1758 H1735 0.950 . S
C1758 C1757 1.397 . S
C1758 C1759 1.334 . S
C1759 H1736 0.950 . S
C1759 C1758 1.334 . S
C1759 C1760 1.287 . S
C1760 C1759 1.287 . S
C1760 C1761 1.524 . S
C1760 H1779 0.913 . S
C1761 H1737 0.950 . S
C1761 C1760 1.524 . S
C1761 C1762 1.415 . S
C1762 H1738 0.950 . S
C1762 C1757 1.363 . S
C1762 C1761 1.415 . S
C1763 H1739 0.951 . S
C1763 C1764 1.366 . S
C1763 C1765 1.388 . S
C1764 C1763 1.366 . S
C1764 C1768 1.385 . S
C1765 H1740 0.951 . S
C1765 C1763 1.388 . S
C1765 C1766 1.366 . S
C1766 C1765 1.366 . S
C1766 C1767 1.414 . S
C1766 C1769 1.499 . S
C1767 H1741 0.950 . S
C1767 C1766 1.414 . S
C1767 C1768 1.374 . S
C1768 H1742 0.950 . S
C1768 C1764 1.385 . S
C1768 C1767 1.374 . S
C1769 C1766 1.499 . S
C1769 C1770 1.373 . S
C1769 C1771 1.389 . S
C1770 H1743 0.950 . S
C1770 C1756 1.377 . S
C1770 C1769 1.373 . S
C1771 C1755 1.377 . S
C1771 C1769 1.389 . S
C1771 C1772 1.524 . S
C1772 C1771 1.524 . S
C1772 C1773 1.397 . S
C1772 C1777 1.363 . S
C1773 H1744 0.950 . S
C1773 C1772 1.397 . S
C1773 C1774 1.334 . S
C1774 H1745 0.950 . S
C1774 C1773 1.334 . S
C1774 C1775 1.287 . S
C1775 C1774 1.287 . S
C1775 C1776 1.524 . S
C1775 H1778 0.999 . S
C1776 H1746 0.950 . S
C1776 C1775 1.524 . S
C1776 C1777 1.415 . S
C1777 H1747 0.950 . S
C1777 C1772 1.363 . S
C1777 C1776 1.415 . S
H1778 C1775 0.999 . S
H1779 C1760 0.913 . S
H1780 C1798 0.951 . S
H1781 C1800 0.951 . S
H1782 C1802 0.950 . S
H1783 C1803 0.950 . S
H1784 C1805 0.950 . S
H1785 C1808 0.950 . S
H1786 C1809 0.950 . S
H1787 C1811 0.950 . S
H1788 C1812 0.950 . S
H1789 C1813 0.951 . S
H1790 C1815 0.951 . S
H1791 C1817 0.950 . S
H1792 C1818 0.950 . S
H1793 C1820 0.950 . S
H1794 C1823 0.950 . S
H1795 C1824 0.950 . S
H1796 C1826 0.950 . S
H1797 C1827 0.950 . S
C1798 H1780 0.951 . S
C1798 C1799 1.366 . S
C1798 C1800 1.388 . S
C1799 C1798 1.366 . S
C1799 C1803 1.385 . S
C1800 H1781 0.951 . S
C1800 C1798 1.388 . S
C1800 C1801 1.366 . S
C1801 C1800 1.366 . S
C1801 C1802 1.414 . S
C1801 C1804 1.499 . S
C1802 H1782 0.950 . S
C1802 C1801 1.414 . S
C1802 C1803 1.374 . S
C1803 H1783 0.950 . S
C1803 C1799 1.385 . S
C1803 C1802 1.374 . S
C1804 C1801 1.499 . S
C1804 C1805 1.373 . S
C1804 C1806 1.389 . S
C1805 H1784 0.950 . S
C1805 C1804 1.373 . S
C1805 C1821 1.377 . S
C1806 C1804 1.389 . S
C1806 C1807 1.524 . S
C1806 C1820 1.377 . S
C1807 C1806 1.524 . S
C1807 C1808 1.397 . S
C1807 C1812 1.363 . S
C1808 H1785 0.950 . S
C1808 C1807 1.397 . S
C1808 C1809 1.334 . S
C1809 H1786 0.950 . S
C1809 C1808 1.334 . S
C1809 C1810 1.287 . S
C1810 C1809 1.287 . S
C1810 C1811 1.524 . S
C1810 H1829 0.913 . S
C1811 H1787 0.950 . S
C1811 C1810 1.524 . S
C1811 C1812 1.415 . S
C1812 H1788 0.950 . S
C1812 C1807 1.363 . S
C1812 C1811 1.415 . S
C1813 H1789 0.951 . S
C1813 C1814 1.366 . S
C1813 C1815 1.388 . S
C1814 C1813 1.366 . S
C1814 C1818 1.385 . S
C1815 H1790 0.951 . S
C1815 C1813 1.388 . S
C1815 C1816 1.366 . S
C1816 C1815 1.366 . S
C1816 C1817 1.414 . S
C1816 C1819 1.499 . S
C1817 H1791 0.950 . S
C1817 C1816 1.414 . S
C1817 C1818 1.374 . S
C1818 H1792 0.950 . S
C1818 C1814 1.385 . S
C1818 C1817 1.374 . S
C1819 C1816 1.499 . S
C1819 C1820 1.373 . S
C1819 C1821 1.389 . S
C1820 H1793 0.950 . S
C1820 C1806 1.377 . S
C1820 C1819 1.373 . S
C1821 C1805 1.377 . S
C1821 C1819 1.389 . S
C1821 C1822 1.524 . S
C1822 C1821 1.524 . S
C1822 C1823 1.397 . S
C1822 C1827 1.363 . S
C1823 H1794 0.950 . S
C1823 C1822 1.397 . S
C1823 C1824 1.334 . S
C1824 H1795 0.950 . S
C1824 C1823 1.334 . S
C1824 C1825 1.287 . S
C1825 C1824 1.287 . S
C1825 C1826 1.524 . S
C1825 H1828 0.999 . S
C1826 H1796 0.950 . S
C1826 C1825 1.524 . S
C1826 C1827 1.415 . S
C1827 H1797 0.950 . S
C1827 C1822 1.363 . S
C1827 C1826 1.415 . S
H1828 C1825 0.999 . S
H1829 C1810 0.913 . S
C664 C334 1.578 . S
C649 C16 1.581 . S
C714 C403 1.543 . S
C699 C55 1.549 . S
C764 C341 1.563 . S
C749 C99 1.568 . S
C814 C404 1.539 . S
C799 C138 1.542 . S
C864 C457 1.573 . S
C849 C1 1.576 . S
C914 C493 1.526 . S
C899 C40 1.525 . S
C949 C94 1.555 . S
C964 C553 1.552 . S
C1014 C616 1.523 . S
C999 C133 1.523 . S
C1064 C456 1.546 . S
C1049 C60 1.549 . S
C1099 C79 1.534 . S
C1114 C500 1.532 . S
C1164 C546 1.539 . S
C1149 C118 1.540 . S
C1214 C615 1.533 . S
C1199 C21 1.535 . S
C1249 C177 1.551 . S
C1264 C394 1.547 . S
C1314 C351 1.559 . S
C1299 C211 1.565 . S
C1349 C255 1.551 . S
C1364 C387 1.548 . S
C1399 C289 1.575 . S
C1414 C350 1.571 . S
C1464 C562 1.541 . S
C1449 C157 1.543 . S
C1514 C606 1.531 . S
C1499 C196 1.532 . S
C1564 C440 1.558 . S
C1549 C250 1.563 . S
C1599 C294 1.526 . S
C1614 C509 1.527 . S
C1664 C563 1.545 . S
C1649 C216 1.550 . S
C1714 C599 1.530 . S
C1699 C235 1.530 . S
C1764 C447 1.571 . S
C1749 C274 1.573 . S
C1799 C172 1.529 . S
C1814 C510 1.528 . S
