# Generated by pormake.
# Topology nom, (4,4)-cn, num edge types: 1
# Building blocks:
#     Node 0, Type 0, BuildingBlock: MUDLON_clean_linker_0, # of connection points: 4
#     Node 1, Type 0, BuildingBlock: MUDLON_clean_linker_0, # of connection points: 4
#     Node 2, Type 0, BuildingBlock: MUDLON_clean_linker_0, # of connection points: 4
#     Node 3, Type 0, BuildingBlock: MUDLON_clean_linker_0, # of connection points: 4
#     Node 4, Type 0, BuildingBlock: MUDLON_clean_linker_0, # of connection points: 4
#     Node 5, Type 0, BuildingBlock: MUDLON_clean_linker_0, # of connection points: 4
#     Node 6, Type 1, BuildingBlock: GALJAG_clean_sbu_0, # of connection points: 4
#     Node 7, Type 1, BuildingBlock: GALJAG_clean_sbu_0, # of connection points: 4
#     Node 8, Type 1, BuildingBlock: GALJAG_clean_sbu_0, # of connection points: 4
#     Node 9, Type 1, BuildingBlock: GALJAG_clean_sbu_0, # of connection points: 4
#     Node 10, Type 1, BuildingBlock: GALJAG_clean_sbu_0, # of connection points: 4
#     Node 11, Type 1, BuildingBlock: GALJAG_clean_sbu_0, # of connection points: 4
#     Edge 12, Type (0, 1), BuildingBlock: TEMPAE_clean_linker_10, # of connection points: 2
#     Edge 13, Type (0, 1), BuildingBlock: TEMPAE_clean_linker_10, # of connection points: 2
#     Edge 14, Type (0, 1), BuildingBlock: TEMPAE_clean_linker_10, # of connection points: 2
#     Edge 15, Type (0, 1), BuildingBlock: TEMPAE_clean_linker_10, # of connection points: 2
#     Edge 16, Type (0, 1), BuildingBlock: TEMPAE_clean_linker_10, # of connection points: 2
#     Edge 17, Type (0, 1), BuildingBlock: TEMPAE_clean_linker_10, # of connection points: 2
#     Edge 18, Type (0, 1), BuildingBlock: TEMPAE_clean_linker_10, # of connection points: 2
#     Edge 19, Type (0, 1), BuildingBlock: TEMPAE_clean_linker_10, # of connection points: 2
#     Edge 20, Type (0, 1), BuildingBlock: TEMPAE_clean_linker_10, # of connection points: 2
#     Edge 21, Type (0, 1), BuildingBlock: TEMPAE_clean_linker_10, # of connection points: 2
#     Edge 22, Type (0, 1), BuildingBlock: TEMPAE_clean_linker_10, # of connection points: 2
#     Edge 23, Type (0, 1), BuildingBlock: TEMPAE_clean_linker_10, # of connection points: 2
#     Edge 24, Type (0, 1), BuildingBlock: TEMPAE_clean_linker_10, # of connection points: 2
#     Edge 25, Type (0, 1), BuildingBlock: TEMPAE_clean_linker_10, # of connection points: 2
#     Edge 26, Type (0, 1), BuildingBlock: TEMPAE_clean_linker_10, # of connection points: 2
#     Edge 27, Type (0, 1), BuildingBlock: TEMPAE_clean_linker_10, # of connection points: 2
#     Edge 28, Type (0, 1), BuildingBlock: TEMPAE_clean_linker_10, # of connection points: 2
#     Edge 29, Type (0, 1), BuildingBlock: TEMPAE_clean_linker_10, # of connection points: 2
#     Edge 30, Type (0, 1), BuildingBlock: TEMPAE_clean_linker_10, # of connection points: 2
#     Edge 31, Type (0, 1), BuildingBlock: TEMPAE_clean_linker_10, # of connection points: 2
#     Edge 32, Type (0, 1), BuildingBlock: TEMPAE_clean_linker_10, # of connection points: 2
#     Edge 33, Type (0, 1), BuildingBlock: TEMPAE_clean_linker_10, # of connection points: 2
#     Edge 34, Type (0, 1), BuildingBlock: TEMPAE_clean_linker_10, # of connection points: 2
#     Edge 35, Type (0, 1), BuildingBlock: TEMPAE_clean_linker_10, # of connection points: 2
# Relax obj value: 0.015
# Max RMSD: 0.120
# Mean RMSD: 0.084
data_MOF--net-nom--node1-GALJAG_clean_sbu_0--node2-MUDLON_clean_linker_0--edge1-TEMPAE_clean_linker_10
_symmetry_space_group_name_H-M    P1
_symmetry_Int_Tables_number       1
_symmetry_cell_setting            triclinic
loop_
_symmetry_equiv_pos_as_xyz
'x, y, z'
_cell_length_a     60.577319
_cell_length_b     61.525591
_cell_length_c     63.120124
_cell_angle_alpha  90.38695
_cell_angle_beta   89.819473
_cell_angle_gamma 120.60548
loop_
_atom_site_label
_atom_site_type_symbol
_atom_site_fract_x
_atom_site_fract_y
_atom_site_fract_z
_atom_type_partial_charge
H0 H 0.12671 0.59915 0.3287 0.0
N1 N 0.09816 0.61872 0.34449 0.0
H2 H 0.16276 0.61998 0.30425 0.0
H3 H 0.11388 0.66175 0.32405 0.0
H4 H 0.15059 0.68309 0.29983 0.0
H5 H 0.11821 0.65414 0.37425 0.0
H6 H 0.13815 0.6531 0.4076 0.0
H7 H 0.09996 0.57816 0.36005 0.0
H8 H 0.12021 0.57704 0.39323 0.0
H9 H 0.08335 0.57568 0.32066 0.0
H10 H 0.05509 0.61671 0.35603 0.0
H11 H 0.03974 0.54336 0.31186 0.0
H12 H 0.01104 0.58361 0.34822 0.0
H13 H 0.89743 0.43734 0.29102 0.0
H14 H 0.88094 0.42652 0.2547 0.0
H15 H 0.90768 0.50512 0.2427 0.0
H16 H 0.92402 0.51575 0.27878 0.0
H17 H 0.89051 0.50574 0.30538 0.0
H18 H 0.85308 0.49753 0.32577 0.0
H19 H 0.86379 0.44721 0.36627 0.0
H20 H 0.90071 0.45458 0.34481 0.0
H21 H 0.95831 0.47675 0.31767 0.0
H22 H 0.00219 0.50961 0.32636 0.0
H23 H 0.98014 0.56608 0.32105 0.0
N24 N 0.91843 0.48219 0.30993 0.0
H25 H 0.93622 0.53299 0.31353 0.0
C26 C 0.1173 0.62879 0.328 0.0
C27 C 0.13115 0.61705 0.322 0.0
C28 C 0.15184 0.629 0.30803 0.0
C29 C 0.15939 0.6531 0.30015 0.0
C30 C 0.14513 0.66451 0.3057 0.0
C31 C 0.12417 0.65235 0.3194 0.0
C32 C 0.1076 0.61633 0.36474 0.0
C33 C 0.11834 0.63718 0.37847 0.0
C34 C 0.12989 0.6366 0.39738 0.0
C35 C 0.13097 0.61506 0.40294 0.0
C36 C 0.11955 0.59384 0.38943 0.0
C37 C 0.10802 0.59448 0.37044 0.0
C38 C 0.07261 0.59899 0.33882 0.0
C39 C 0.06784 0.57785 0.32658 0.0
C40 C 0.04269 0.55909 0.32172 0.0
C41 C 0.02171 0.56078 0.32928 0.0
C42 C 0.02662 0.58183 0.34174 0.0
C43 C 0.05177 0.60071 0.34636 0.0
C44 C 0.91193 0.47724 0.28774 0.0
C45 C 0.90011 0.45224 0.2804 0.0
C46 C 0.89076 0.44613 0.25968 0.0
C47 C 0.89289 0.46498 0.24593 0.0
C48 C 0.90552 0.49017 0.25304 0.0
C49 C 0.91503 0.49628 0.2737 0.0
C50 C 0.89823 0.48036 0.32334 0.0
C51 C 0.885 0.49304 0.31867 0.0
C52 C 0.86361 0.4885 0.33057 0.0
C53 C 0.85517 0.47151 0.34764 0.0
C54 C 0.86936 0.45998 0.35298 0.0
C55 C 0.89058 0.4643 0.34087 0.0
C56 C 0.94404 0.50232 0.31484 0.0
C57 C 0.96305 0.49625 0.31845 0.0
C58 C 0.98815 0.51511 0.32324 0.0
C59 C 0.99487 0.54062 0.32431 0.0
C60 C 0.97569 0.54666 0.32066 0.0
C61 C 0.9505 0.52771 0.31612 0.0
H62 H 0.42498 0.90314 0.47238 0.0
N63 N 0.40265 0.93045 0.46105 0.0
H64 H 0.4068 0.86684 0.49602 0.0
H65 H 0.36125 0.91388 0.48532 0.0
H66 H 0.34285 0.87742 0.50914 0.0
H67 H 0.36504 0.90249 0.43416 0.0
H68 H 0.36769 0.88365 0.40087 0.0
H69 H 0.44696 0.9384 0.44182 0.0
H70 H 0.45013 0.92116 0.40786 0.0
H71 H 0.44613 0.94614 0.48526 0.0
H72 H 0.4034 0.97233 0.44994 0.0
H73 H 0.47814 0.98936 0.4941 0.0
H74 H 0.43627 0.01604 0.45782 0.0
H75 H 0.58395 0.12732 0.51523 0.0
H76 H 0.59454 0.14266 0.55189 0.0
H77 H 0.51518 0.11931 0.56317 0.0
H78 H 0.50473 0.10394 0.52678 0.0
H79 H 0.51475 0.13575 0.50016 0.0
H80 H 0.524 0.17304 0.48026 0.0
H81 H 0.57661 0.16308 0.44063 0.0
H82 H 0.5682 0.12633 0.46164 0.0
H83 H 0.54499 0.06952 0.48766 0.0
H84 H 0.51196 0.02616 0.47904 0.0
H85 H 0.45397 0.04707 0.48482 0.0
N86 N 0.53894 0.10841 0.49591 0.0
H87 H 0.48731 0.09054 0.49228 0.0
C88 C 0.39443 0.9113 0.47714 0.0
C89 C 0.40737 0.89806 0.4807 0.0
C90 C 0.39697 0.87731 0.49427 0.0
C91 C 0.37335 0.86923 0.50437 0.0
C92 C 0.36098 0.88309 0.50143 0.0
C93 C 0.3715 0.90397 0.48797 0.0
C94 C 0.40568 0.92206 0.4404 0.0
C95 C 0.38367 0.9068 0.42835 0.0
C96 C 0.38531 0.89618 0.40923 0.0
C97 C 0.40917 0.9009 0.40149 0.0
C98 C 0.43137 0.91674 0.41339 0.0
C99 C 0.42963 0.92697 0.43276 0.0
C100 C 0.42197 0.95585 0.46709 0.0
C101 C 0.44349 0.96111 0.47941 0.0
C102 C 0.4621 0.98604 0.48427 0.0
C103 C 0.45993 0.00634 0.47666 0.0
C104 C 0.43842 0.00097 0.46429 0.0
C105 C 0.41968 0.97601 0.45965 0.0
C106 C 0.54368 0.11458 0.51816 0.0
C107 C 0.56881 0.12515 0.52576 0.0
C108 C 0.57479 0.13384 0.54666 0.0
C109 C 0.55568 0.13229 0.56031 0.0
C110 C 0.53032 0.12096 0.55291 0.0
C111 C 0.52432 0.11206 0.53207 0.0
C112 C 0.5412 0.12843 0.48263 0.0
C113 C 0.52817 0.1414 0.48717 0.0
C114 C 0.53333 0.16272 0.47554 0.0
C115 C 0.55128 0.17134 0.45889 0.0
C116 C 0.56312 0.15739 0.45363 0.0
C117 C 0.5582 0.13626 0.46547 0.0
C118 C 0.5187 0.0832 0.49074 0.0
C119 C 0.52513 0.06466 0.48697 0.0
C120 C 0.50616 0.03985 0.48224 0.0
C121 C 0.48017 0.03294 0.4814 0.0
C122 C 0.47376 0.05168 0.48509 0.0
C123 C 0.49284 0.07659 0.48959 0.0
H124 H 0.43061 0.55048 0.66224 0.0
N125 N 0.4049 0.50498 0.68229 0.0
H126 H 0.41159 0.56823 0.63893 0.0
H127 H 0.35764 0.48148 0.66687 0.0
H128 H 0.33844 0.49892 0.64337 0.0
H129 H 0.37265 0.49208 0.7145 0.0
H130 H 0.37913 0.51472 0.74795 0.0
H131 H 0.44967 0.54653 0.6954 0.0
H132 H 0.45677 0.56891 0.72911 0.0
H133 H 0.45263 0.52728 0.66426 0.0
H134 H 0.38903 0.45637 0.6851 0.0
H135 H 0.47577 0.50608 0.6535 0.0
H136 H 0.41129 0.43466 0.67345 0.0
H137 H 0.53678 0.44371 0.62281 0.0
H138 H 0.56079 0.4523 0.58957 0.0
H139 H 0.49084 0.40049 0.55671 0.0
H140 H 0.46706 0.39124 0.59019 0.0
H141 H 0.46852 0.3595 0.62966 0.0
H142 H 0.48541 0.3376 0.65025 0.0
H143 H 0.54153 0.40866 0.67866 0.0
H144 H 0.52389 0.43022 0.65846 0.0
H145 H 0.49282 0.45377 0.61283 0.0
H146 H 0.47511 0.47812 0.62709 0.0
H147 H 0.44542 0.42815 0.68081 0.0
N148 N 0.48586 0.40873 0.62856 0.0
H149 H 0.4619 0.40274 0.666 0.0
C150 C 0.39541 0.51464 0.66629 0.0
C151 C 0.41064 0.53894 0.65785 0.0
C152 C 0.39975 0.54904 0.64449 0.0
C153 C 0.37347 0.53503 0.63947 0.0
C154 C 0.35865 0.51028 0.64718 0.0
C155 C 0.36957 0.50023 0.66046 0.0
C156 C 0.41061 0.51747 0.70256 0.0
C157 C 0.39115 0.50866 0.71778 0.0
C158 C 0.39498 0.52158 0.73692 0.0
C159 C 0.41854 0.54364 0.7413 0.0
C160 C 0.43832 0.55214 0.72617 0.0
C161 C 0.43437 0.53922 0.70692 0.0
C162 C 0.41917 0.49332 0.67568 0.0
C163 C 0.44368 0.50715 0.66659 0.0
C164 C 0.45679 0.49491 0.66025 0.0
C165 C 0.44553 0.46861 0.66269 0.0
C166 C 0.42091 0.45497 0.67176 0.0
C167 C 0.408 0.46725 0.67825 0.0
C168 C 0.50015 0.41638 0.60898 0.0
C169 C 0.52662 0.43416 0.6085 0.0
C170 C 0.54029 0.43917 0.58952 0.0
C171 C 0.52762 0.42701 0.57068 0.0
C172 C 0.50099 0.41024 0.57102 0.0
C173 C 0.48744 0.40487 0.59006 0.0
C174 C 0.49497 0.39638 0.64243 0.0
C175 C 0.48423 0.37022 0.64055 0.0
C176 C 0.49405 0.35783 0.65219 0.0
C177 C 0.51501 0.37143 0.66593 0.0
C178 C 0.52528 0.39761 0.66832 0.0
C179 C 0.51537 0.41 0.65667 0.0
C180 C 0.47957 0.42633 0.6385 0.0
C181 C 0.48308 0.44806 0.62792 0.0
C182 C 0.47288 0.46225 0.63616 0.0
C183 C 0.45873 0.45515 0.6551 0.0
C184 C 0.45587 0.43402 0.66601 0.0
C185 C 0.46575 0.41965 0.65766 0.0
H186 H 0.1219 0.53617 0.80942 0.0
N187 N 0.09832 0.48832 0.79308 0.0
H188 H 0.15744 0.55428 0.83478 0.0
H189 H 0.11674 0.46392 0.81435 0.0
H190 H 0.1524 0.4819 0.83972 0.0
H191 H 0.12983 0.48452 0.76629 0.0
H192 H 0.14905 0.50887 0.73435 0.0
H193 H 0.08763 0.52281 0.77579 0.0
H194 H 0.1052 0.54605 0.74289 0.0
H195 H 0.07646 0.51035 0.81643 0.0
H196 H 0.06019 0.44307 0.78202 0.0
H197 H 0.03183 0.49006 0.82788 0.0
H198 H 0.01517 0.42292 0.79254 0.0
H199 H 0.90465 0.43905 0.85031 0.0
H200 H 0.88946 0.44708 0.8839 0.0
H201 H 0.90044 0.39052 0.91418 0.0
H202 H 0.91555 0.38266 0.88055 0.0
H203 H 0.87911 0.35459 0.84249 0.0
H204 H 0.84066 0.33537 0.82054 0.0
H205 H 0.86876 0.40628 0.78787 0.0
H206 H 0.9064 0.42561 0.81088 0.0
H207 H 0.94435 0.45209 0.83161 0.0
H208 H 0.98812 0.47405 0.81763 0.0
H209 H 0.99081 0.40546 0.82375 0.0
N210 N 0.91654 0.40235 0.84315 0.0
H211 H 0.94676 0.38359 0.83688 0.0
C212 C 0.11671 0.49864 0.81007 0.0
C213 C 0.12801 0.52407 0.81638 0.0
C214 C 0.14828 0.53437 0.83088 0.0
C215 C 0.15773 0.5195 0.83913 0.0
C216 C 0.14562 0.49382 0.83348 0.0
C217 C 0.12525 0.48351 0.81912 0.0
C218 C 0.10708 0.50152 0.77326 0.0
C219 C 0.12425 0.49779 0.76112 0.0
C220 C 0.13506 0.51166 0.74274 0.0
C221 C 0.12856 0.52938 0.73573 0.0
C222 C 0.11096 0.53285 0.74783 0.0
C223 C 0.10056 0.51929 0.76655 0.0
C224 C 0.07174 0.47795 0.79865 0.0
C225 C 0.06325 0.49127 0.81117 0.0
C226 C 0.03758 0.47969 0.81756 0.0
C227 C 0.01989 0.45469 0.81137 0.0
C228 C 0.02833 0.44194 0.79806 0.0
C229 C 0.05399 0.45345 0.79187 0.0
C230 C 0.91126 0.41025 0.86306 0.0
C231 C 0.90438 0.42886 0.8643 0.0
C232 C 0.89567 0.4334 0.88348 0.0
C233 C 0.89353 0.41923 0.90157 0.0
C234 C 0.90157 0.40148 0.90042 0.0
C235 C 0.91037 0.39709 0.88133 0.0
C236 C 0.89567 0.39135 0.82823 0.0
C237 C 0.87703 0.36583 0.8304 0.0
C238 C 0.85515 0.35487 0.81769 0.0
C239 C 0.85154 0.36918 0.80225 0.0
C240 C 0.87068 0.39473 0.79973 0.0
C241 C 0.89243 0.40578 0.81275 0.0
C242 C 0.94231 0.41611 0.83511 0.0
C243 C 0.95432 0.44178 0.82977 0.0
C244 C 0.97945 0.45436 0.82192 0.0
C245 C 0.99302 0.44152 0.81941 0.0
C246 C 0.98085 0.41586 0.82499 0.0
C247 C 0.95576 0.40334 0.83267 0.0
H248 H 0.60013 0.13657 0.97298 0.0
N249 N 0.62172 0.10841 0.96193 0.0
H250 H 0.61972 0.17454 0.99518 0.0
H251 H 0.6643 0.12638 0.98481 0.0
H252 H 0.68409 0.16443 0.00719 0.0
H253 H 0.6575 0.13833 0.93459 0.0
H254 H 0.65188 0.15423 0.90111 0.0
H255 H 0.57545 0.09471 0.94278 0.0
H256 H 0.56949 0.10855 0.90846 0.0
H257 H 0.57838 0.09368 0.98593 0.0
H258 H 0.62316 0.06669 0.95439 0.0
H259 H 0.54762 0.05091 0.99714 0.0
H260 H 0.59184 0.02348 0.96489 0.0
H261 H 0.44561 0.91493 0.02069 0.0
H262 H 0.43215 0.89795 0.05648 0.0
H263 H 0.50934 0.91552 0.07018 0.0
H264 H 0.52266 0.93264 0.03462 0.0
H265 H 0.52032 0.90905 0.00429 0.0
H266 H 0.51325 0.8724 0.98384 0.0
H267 H 0.45001 0.87144 0.95146 0.0
H268 H 0.45778 0.9088 0.97169 0.0
H269 H 0.483 0.96824 0.99172 0.0
H270 H 0.51488 0.01172 0.98242 0.0
H271 H 0.57542 0.99584 0.99478 0.0
N272 N 0.4911 0.93151 0.00293 0.0
H273 H 0.54349 0.95241 0.00326 0.0
C274 C 0.63083 0.12863 0.9773 0.0
C275 C 0.61814 0.14216 0.9808 0.0
C276 C 0.62936 0.16386 0.99351 0.0
C277 C 0.65352 0.17254 0.00282 0.0
C278 C 0.66559 0.15834 3e-05 0.0
C279 C 0.65428 0.13656 0.98741 0.0
C280 C 0.61709 0.11516 0.9412 0.0
C281 C 0.63825 0.13168 0.92886 0.0
C282 C 0.63491 0.14057 0.90957 0.0
C283 C 0.61015 0.13263 0.90177 0.0
C284 C 0.58887 0.11552 0.91397 0.0
C285 C 0.59226 0.10721 0.93361 0.0
C286 C 0.60336 0.08348 0.96945 0.0
C287 C 0.58175 0.07862 0.98149 0.0
C288 C 0.56394 0.054 0.98773 0.0
C289 C 0.5672 0.03369 0.98192 0.0
C290 C 0.5889 0.03867 0.96995 0.0
C291 C 0.60675 0.06331 0.96383 0.0
C292 C 0.485 0.92491 0.02489 0.0
C293 C 0.45968 0.91554 0.03159 0.0
C294 C 0.45207 0.9059 0.052 0.0
C295 C 0.46968 0.90526 0.06603 0.0
C296 C 0.49531 0.91552 0.05958 0.0
C297 C 0.50296 0.92539 0.03923 0.0
C298 C 0.48953 0.91177 0.98947 0.0
C299 C 0.50533 0.90144 0.9925 0.0
C300 C 0.5011 0.88025 0.98089 0.0
C301 C 0.48094 0.86885 0.96612 0.0
C302 C 0.46589 0.8799 0.96251 0.0
C303 C 0.4702 0.90115 0.9741 0.0
C304 C 0.51071 0.95706 0.99821 0.0
C305 C 0.50318 0.97425 0.99244 0.0
C306 C 0.52145 0.99911 0.98728 0.0
C307 C 0.54777 0.00735 0.98789 0.0
C308 C 0.55532 0.99008 0.99388 0.0
C309 C 0.53699 0.96516 0.99894 0.0
H310 H 0.558 0.45511 0.13308 0.0
N311 N 0.56517 0.48403 0.16687 0.0
H312 H 0.59014 0.44929 0.11441 0.0
H313 H 0.61713 0.51184 0.17297 0.0
H314 H 0.64945 0.50675 0.1541 0.0
H315 H 0.58778 0.51675 0.20025 0.0
H316 H 0.59178 0.50521 0.23658 0.0
H317 H 0.54489 0.43796 0.18278 0.0
H318 H 0.54923 0.42635 0.21897 0.0
H319 H 0.52002 0.48058 0.17224 0.0
H320 H 0.5978 0.53287 0.15292 0.0
H321 H 0.5087 0.51282 0.16614 0.0
H322 H 0.58632 0.56429 0.14535 0.0
H323 H 0.47005 0.59352 0.12501 0.0
H324 H 0.44732 0.58918 0.09203 0.0
H325 H 0.51906 0.62179 0.05782 0.0
H326 H 0.54181 0.62711 0.09122 0.0
H327 H 0.53741 0.66527 0.13047 0.0
H328 H 0.52182 0.68697 0.15284 0.0
H329 H 0.47583 0.61807 0.18805 0.0
H330 H 0.49031 0.59618 0.16451 0.0
H331 H 0.48952 0.56506 0.13017 0.0
H332 H 0.50045 0.53358 0.13984 0.0
H333 H 0.57613 0.59305 0.1588 0.0
N334 N 0.52212 0.61659 0.13008 0.0
H335 H 0.56548 0.62449 0.14743 0.0
C336 C 0.58506 0.48381 0.15437 0.0
C337 C 0.578 0.46671 0.13745 0.0
C338 C 0.59643 0.4635 0.12678 0.0
C339 C 0.62239 0.47744 0.13285 0.0
C340 C 0.62958 0.4954 0.14925 0.0
C341 C 0.61113 0.49847 0.15998 0.0
C342 C 0.56579 0.47809 0.18886 0.0
C343 C 0.57886 0.49698 0.20432 0.0
C344 C 0.58115 0.49039 0.22503 0.0
C345 C 0.57086 0.46491 0.23048 0.0
C346 C 0.55743 0.44612 0.21512 0.0
C347 C 0.55483 0.45268 0.19455 0.0
C348 C 0.55959 0.5039 0.1629 0.0
C349 C 0.53458 0.49891 0.16649 0.0
C350 C 0.52812 0.51737 0.16281 0.0
C351 C 0.54649 0.54128 0.15505 0.0
C352 C 0.57167 0.54634 0.15164 0.0
C353 C 0.57824 0.52804 0.15575 0.0
C354 C 0.50778 0.61106 0.11058 0.0
C355 C 0.48089 0.59965 0.11042 0.0
C356 C 0.46786 0.59696 0.09147 0.0
C357 C 0.48137 0.60536 0.07225 0.0
C358 C 0.50811 0.61561 0.07238 0.0
C359 C 0.52114 0.61849 0.09137 0.0
C360 C 0.51526 0.62925 0.14583 0.0
C361 C 0.52428 0.65501 0.14325 0.0
C362 C 0.51541 0.66741 0.15621 0.0
C363 C 0.4975 0.65437 0.17241 0.0
C364 C 0.48928 0.62869 0.17557 0.0
C365 C 0.49782 0.61616 0.16227 0.0
C366 C 0.52699 0.59729 0.13758 0.0
C367 C 0.50853 0.5714 0.13624 0.0
C368 C 0.51476 0.55329 0.14209 0.0
C369 C 0.53934 0.56059 0.14995 0.0
C370 C 0.55727 0.58656 0.15225 0.0
C371 C 0.55117 0.60463 0.14598 0.0
In372 In 0.62519 0.39713 0.40313 0.0
O373 O 0.6676 0.41786 0.4129 0.0
O374 O 0.65776 0.40229 0.38185 0.0
C375 C 0.60594 0.41063 0.43594 0.0
C376 C 0.60925 0.4136 0.3703 0.0
C377 C 0.60997 0.3484 0.41112 0.0
O378 O 0.62904 0.424 0.43017 0.0
O379 O 0.59273 0.39102 0.42492 0.0
O380 O 0.60626 0.35543 0.3934 0.0
O381 O 0.62156 0.36593 0.4245 0.0
C382 C 0.67528 0.41445 0.39524 0.0
O383 O 0.59735 0.39085 0.37618 0.0
O384 O 0.62881 0.428 0.3812 0.0
In385 In 0.25736 0.64367 0.57207 0.0
O386 O 0.26594 0.61159 0.56806 0.0
O387 O 0.29282 0.64448 0.58489 0.0
C388 C 0.22702 0.63081 0.5376 0.0
C389 C 0.22787 0.62655 0.60731 0.0
C390 C 0.28643 0.69354 0.56359 0.0
O391 O 0.24412 0.62495 0.53953 0.0
O392 O 0.22511 0.64277 0.55315 0.0
O393 O 0.27004 0.6852 0.5783 0.0
O394 O 0.28841 0.67682 0.55357 0.0
C395 C 0.28672 0.62275 0.57831 0.0
O396 O 0.25115 0.64373 0.60788 0.0
O397 O 0.21934 0.61838 0.58901 0.0
In398 In 0.6211 0.25307 0.73581 0.0
O399 O 0.6637 0.26926 0.72808 0.0
O400 O 0.65405 0.27901 0.75759 0.0
C401 C 0.6085 0.22455 0.70032 0.0
C402 C 0.60821 0.22285 0.76997 0.0
C403 C 0.59922 0.28134 0.72819 0.0
O404 O 0.62978 0.24476 0.70257 0.0
O405 O 0.59367 0.21859 0.71607 0.0
O406 O 0.58707 0.25971 0.73632 0.0
O407 O 0.62239 0.28884 0.7243 0.0
C408 C 0.67152 0.28104 0.74543 0.0
O409 O 0.60999 0.24419 0.77055 0.0
O410 O 0.61222 0.21636 0.75202 0.0
In411 In 0.38587 0.64064 0.90694 0.0
O412 O 0.34514 0.60699 0.91198 0.0
O413 O 0.34995 0.63746 0.89293 0.0
C414 C 0.39624 0.62284 0.94232 0.0
C415 C 0.40206 0.62992 0.87044 0.0
C416 C 0.40826 0.6912 0.9129 0.0
O417 O 0.39817 0.6158 0.92395 0.0
O418 O 0.38833 0.63824 0.94287 0.0
O419 O 0.41982 0.68139 0.90406 0.0
O420 O 0.38562 0.67563 0.9184 0.0
C421 C 0.33467 0.61607 0.90063 0.0
O422 O 0.38162 0.63046 0.87191 0.0
O423 O 0.41499 0.63557 0.88732 0.0
In424 In 0.77115 0.40018 0.07005 0.0
O425 O 0.77747 0.39298 0.1043 0.0
O426 O 0.80587 0.42713 0.09012 0.0
C427 C 0.74408 0.35065 0.05953 0.0
C428 C 0.73992 0.41876 0.07828 0.0
C429 C 0.80232 0.41545 0.03583 0.0
O430 O 0.76017 0.35897 0.07448 0.0
O431 O 0.74158 0.36726 0.05008 0.0
O432 O 0.78232 0.41697 0.03679 0.0
O433 O 0.8068 0.40677 0.05226 0.0
C434 C 0.79857 0.41339 0.10638 0.0
O435 O 0.76225 0.4323 0.07097 0.0
O436 O 0.73341 0.39604 0.08118 0.0
In437 In 0.38861 0.77429 0.23444 0.0
O438 O 0.41661 0.76063 0.24248 0.0
O439 O 0.39571 0.74801 0.21375 0.0
C440 C 0.40069 0.80253 0.27031 0.0
C441 C 0.40391 0.80488 0.20056 0.0
C442 C 0.33735 0.74492 0.24003 0.0
O443 O 0.39057 0.77887 0.2705 0.0
O444 O 0.40531 0.81205 0.25208 0.0
O445 O 0.34739 0.76633 0.23142 0.0
O446 O 0.35303 0.73817 0.2452 0.0
C447 C 0.41207 0.74769 0.22577 0.0
O448 O 0.38164 0.7857 0.20198 0.0
O449 O 0.41827 0.8087 0.21634 0.0
C450 C 0.18852 0.65587 0.27067 0.0
C451 C 0.18352 0.66718 0.28793 0.0
C452 C 0.21238 0.66825 0.26034 0.0
C453 C 0.23182 0.69219 0.26782 0.0
C454 C 0.22657 0.70393 0.2849 0.0
C455 C 0.2024 0.69137 0.29462 0.0
C456 C 0.21706 0.65538 0.24189 0.0
C457 C 0.2469 0.72922 0.29361 0.0
C458 C 0.30154 0.71108 0.2609 0.0
C459 C 0.30983 0.72993 0.24548 0.0
C460 C 0.27606 0.6983 0.26797 0.0
C461 C 0.25827 0.70411 0.25905 0.0
C462 C 0.26625 0.72233 0.24278 0.0
C463 C 0.29207 0.73529 0.23636 0.0
C464 C 0.26846 0.67933 0.28563 0.0
C465 C 0.24768 0.72857 0.23254 0.0
H466 H 0.17384 0.63721 0.26543 0.0
H467 H 0.19865 0.69999 0.30813 0.0
H468 H 0.22538 0.66855 0.22836 0.0
H469 H 0.23113 0.6498 0.24651 0.0
H470 H 0.19919 0.63821 0.23654 0.0
H471 H 0.23937 0.73632 0.30628 0.0
H472 H 0.26294 0.72758 0.30023 0.0
H473 H 0.25492 0.74341 0.28078 0.0
H474 H 0.31524 0.70697 0.26807 0.0
H475 H 0.29841 0.74977 0.22434 0.0
H476 H 0.25196 0.66086 0.28066 0.0
H477 H 0.26226 0.68585 0.29966 0.0
H478 H 0.28443 0.67649 0.29045 0.0
H479 H 0.23025 0.71102 0.2272 0.0
H480 H 0.25628 0.74131 0.21875 0.0
H481 H 0.24148 0.73789 0.24427 0.0
C482 C 0.58465 0.21236 0.44282 0.0
C483 C 0.55888 0.19569 0.44815 0.0
C484 C 0.59263 0.23643 0.43468 0.0
C485 C 0.57453 0.24427 0.43216 0.0
C486 C 0.54836 0.22729 0.43677 0.0
C487 C 0.54082 0.20315 0.44453 0.0
C488 C 0.62067 0.25387 0.4297 0.0
C489 C 0.5285 0.23502 0.43443 0.0
C490 C 0.60018 0.31461 0.43736 0.0
C491 C 0.60088 0.32173 0.41621 0.0
C492 C 0.59132 0.28941 0.44272 0.0
C493 C 0.58335 0.27091 0.4265 0.0
C494 C 0.58414 0.27799 0.40508 0.0
C495 C 0.59271 0.30334 0.40019 0.0
C496 C 0.59043 0.2826 0.46578 0.0
C497 C 0.57619 0.25886 0.38735 0.0
H498 H 0.59889 0.20706 0.44579 0.0
H499 H 0.5208 0.19028 0.44817 0.0
H500 H 0.62293 0.26223 0.41376 0.0
H501 H 0.62912 0.26966 0.44133 0.0
H502 H 0.63175 0.24401 0.43026 0.0
H503 H 0.50872 0.21907 0.43727 0.0
H504 H 0.53256 0.25036 0.44591 0.0
H505 H 0.52939 0.24255 0.41834 0.0
H506 H 0.60632 0.32874 0.44981 0.0
H507 H 0.59329 0.30881 0.38382 0.0
H508 H 0.60304 0.27468 0.46849 0.0
H509 H 0.57065 0.26782 0.47017 0.0
H510 H 0.59664 0.29911 0.47649 0.0
H511 H 0.58827 0.25007 0.38758 0.0
H512 H 0.57792 0.26741 0.37154 0.0
H513 H 0.55603 0.2435 0.38964 0.0
C514 C 0.33803 0.54422 0.63535 0.0
C515 C 0.36105 0.54684 0.62777 0.0
C516 C 0.32662 0.55636 0.62542 0.0
C517 C 0.33841 0.57142 0.60736 0.0
C518 C 0.36134 0.5737 0.5993 0.0
C519 C 0.3725 0.56149 0.60969 0.0
C520 C 0.30232 0.55367 0.63468 0.0
C521 C 0.3743 0.58937 0.57994 0.0
C522 C 0.29501 0.58686 0.57556 0.0
C523 C 0.30175 0.61069 0.58375 0.0
C524 C 0.30769 0.57432 0.5823 0.0
C525 C 0.3273 0.58578 0.59776 0.0
C526 C 0.33479 0.61024 0.60547 0.0
C527 C 0.32202 0.62245 0.59828 0.0
C528 C 0.29942 0.5484 0.57349 0.0
C529 C 0.35545 0.62305 0.6221 0.0
H530 H 0.32932 0.53326 0.64951 0.0
H531 H 0.39019 0.56341 0.6037 0.0
H532 H 0.30587 0.57241 0.64 0.0
H533 H 0.28707 0.54656 0.62244 0.0
H534 H 0.29514 0.5406 0.64838 0.0
H535 H 0.39105 0.58787 0.57486 0.0
H536 H 0.36047 0.58335 0.56661 0.0
H537 H 0.38093 0.6095 0.58331 0.0
H538 H 0.27944 0.57775 0.56423 0.0
H539 H 0.32734 0.64089 0.60466 0.0
H540 H 0.28983 0.5341 0.5861 0.0
H541 H 0.31636 0.54741 0.56817 0.0
H542 H 0.28593 0.54331 0.55997 0.0
H543 H 0.34899 0.61222 0.63708 0.0
H544 H 0.36021 0.64273 0.62538 0.0
H545 H 0.37316 0.62338 0.61702 0.0
C546 C 0.81468 0.33212 0.78389 0.0
C547 C 0.8272 0.35771 0.78983 0.0
C548 C 0.79014 0.32017 0.77478 0.0
C549 C 0.77804 0.33429 0.77095 0.0
C550 C 0.79121 0.36047 0.77557 0.0
C551 C 0.81548 0.37181 0.78517 0.0
C552 C 0.77662 0.29214 0.77032 0.0
C553 C 0.77917 0.37629 0.7713 0.0
C554 C 0.71825 0.30388 0.73632 0.0
C555 C 0.69881 0.29519 0.75162 0.0
C556 C 0.74423 0.31718 0.7423 0.0
C557 C 0.75076 0.32119 0.76408 0.0
C558 C 0.73111 0.31226 0.77955 0.0
C559 C 0.7054 0.29967 0.77311 0.0
C560 C 0.76466 0.327 0.72537 0.0
C561 C 0.73723 0.31565 0.80295 0.0
H562 H 0.82378 0.32117 0.78686 0.0
H563 H 0.82474 0.39151 0.78982 0.0
H564 H 0.75966 0.28218 0.78084 0.0
H565 H 0.76954 0.28809 0.75376 0.0
H566 H 0.78927 0.28421 0.77291 0.0
H567 H 0.79314 0.39682 0.77308 0.0
H568 H 0.77105 0.37264 0.75505 0.0
H569 H 0.76314 0.37107 0.78253 0.0
H570 H 0.71314 0.30053 0.71968 0.0
H571 H 0.69037 0.29278 0.78497 0.0
H572 H 0.77661 0.31818 0.72698 0.0
H573 H 0.77759 0.34768 0.72732 0.0
H574 H 0.7564 0.32312 0.70914 0.0
H575 H 0.74868 0.30682 0.80712 0.0
H576 H 0.71969 0.30714 0.81293 0.0
H577 H 0.749 0.33603 0.80692 0.0
C578 C 0.47395 0.82517 0.96789 0.0
C579 C 0.47422 0.84441 0.95588 0.0
C580 C 0.46519 0.8011 0.95922 0.0
C581 C 0.45639 0.79607 0.93801 0.0
C582 C 0.45755 0.81564 0.92551 0.0
C583 C 0.46644 0.8396 0.9346 0.0
C584 C 0.46422 0.78072 0.9731 0.0
C585 C 0.44846 0.81102 0.9028 0.0
C586 C 0.44659 0.735 0.91374 0.0
C587 C 0.42041 0.7185 0.91756 0.0
C588 C 0.45852 0.76058 0.91971 0.0
C589 C 0.44386 0.76976 0.92968 0.0
C590 C 0.41725 0.75333 0.93291 0.0
C591 C 0.40587 0.72791 0.92684 0.0
C592 C 0.48693 0.77757 0.91599 0.0
C593 C 0.40091 0.76238 0.94343 0.0
H594 H 0.47956 0.82858 0.98442 0.0
H595 H 0.46691 0.85447 0.92515 0.0
H596 H 0.44394 0.76599 0.976 0.0
H597 H 0.47358 0.77144 0.96505 0.0
H598 H 0.47374 0.78822 0.98864 0.0
H599 H 0.45289 0.82874 0.89465 0.0
H600 H 0.45744 0.80194 0.89385 0.0
H601 H 0.4274 0.79787 0.90235 0.0
H602 H 0.4579 0.72781 0.90655 0.0
H603 H 0.38559 0.71527 0.92974 0.0
H604 H 0.49706 0.78353 0.93143 0.0
H605 H 0.49073 0.79494 0.90762 0.0
H606 H 0.49517 0.76808 0.90657 0.0
H607 H 0.4075 0.76833 0.95996 0.0
H608 H 0.38028 0.74755 0.94375 0.0
H609 H 0.40296 0.77908 0.93501 0.0
C610 C 0.64089 0.46681 0.10142 0.0
C611 C 0.6415 0.47197 0.12317 0.0
C612 C 0.65755 0.45964 0.09254 0.0
C613 C 0.67528 0.45761 0.10572 0.0
C614 C 0.67655 0.46356 0.12755 0.0
C615 C 0.65962 0.47058 0.13601 0.0
C616 C 0.65567 0.45349 0.06918 0.0
C617 C 0.69517 0.46163 0.14216 0.0
C618 C 0.69805 0.41228 0.09124 0.0
C619 C 0.72297 0.42873 0.08388 0.0
C620 C 0.68211 0.4214 0.09783 0.0
C621 C 0.69134 0.44765 0.09711 0.0
C622 C 0.71627 0.46432 0.08921 0.0
C623 C 0.7318 0.45464 0.08265 0.0
C624 C 0.65561 0.40299 0.10607 0.0
C625 C 0.72677 0.49241 0.08824 0.0
H626 H 0.62718 0.46816 0.09134 0.0
H627 H 0.66001 0.47412 0.15288 0.0
H628 H 0.6748 0.46444 0.06162 0.0
H629 H 0.64911 0.43318 0.06698 0.0
H630 H 0.64209 0.45761 0.06084 0.0
H631 H 0.69498 0.46857 0.15841 0.0
H632 H 0.69025 0.44165 0.14317 0.0
H633 H 0.71495 0.47264 0.13578 0.0
H634 H 0.69107 0.39221 0.09215 0.0
H635 H 0.75105 0.46743 0.07695 0.0
H636 H 0.641 0.40513 0.0973 0.0
H637 H 0.6542 0.40709 0.12301 0.0
H638 H 0.65088 0.38306 0.10462 0.0
H639 H 0.71338 0.49636 0.07944 0.0
H640 H 0.74588 0.50263 0.08049 0.0
H641 H 0.72855 0.50007 0.10451 0.0
C642 C 0.37471 0.83937 0.53054 0.0
C643 C 0.36069 0.84521 0.51638 0.0
C644 C 0.36341 0.81569 0.5404 0.0
C645 C 0.33759 0.79734 0.53578 0.0
C646 C 0.32315 0.80341 0.52198 0.0
C647 C 0.33485 0.82729 0.51252 0.0
C648 C 0.37931 0.81001 0.55523 0.0
C649 C 0.29566 0.7843 0.51647 0.0
C650 C 0.316 0.72777 0.53911 0.0
C651 C 0.30106 0.72049 0.55757 0.0
C652 C 0.32846 0.75285 0.53214 0.0
C653 C 0.32615 0.77118 0.54404 0.0
C654 C 0.31181 0.76414 0.56309 0.0
C655 C 0.29929 0.7388 0.56958 0.0
C656 C 0.34342 0.75954 0.51165 0.0
C657 C 0.30917 0.78322 0.57631 0.0
H658 H 0.39462 0.85326 0.5337 0.0
H659 H 0.32403 0.83157 0.50137 0.0
H660 H 0.36899 0.80242 0.5704 0.0
H661 H 0.3825 0.79531 0.54809 0.0
H662 H 0.39828 0.82699 0.55865 0.0
H663 H 0.28666 0.79246 0.50647 0.0
H664 H 0.29489 0.76818 0.50779 0.0
H665 H 0.28411 0.77667 0.5311 0.0
H666 H 0.31743 0.7137 0.52975 0.0
H667 H 0.28784 0.73327 0.58391 0.0
H668 H 0.36334 0.77526 0.51432 0.0
H669 H 0.3345 0.76613 0.49994 0.0
H670 H 0.34414 0.74328 0.50469 0.0
H671 H 0.32837 0.79976 0.57984 0.0
H672 H 0.29903 0.77515 0.59149 0.0
H673 H 0.29835 0.79022 0.56731 0.0
C674 C 0.53043 0.34064 0.66588 0.0
C675 C 0.52679 0.35846 0.67687 0.0
C676 C 0.54193 0.32848 0.67567 0.0
C677 C 0.55011 0.33433 0.697 0.0
C678 C 0.54642 0.35222 0.70826 0.0
C679 C 0.53481 0.3641 0.69805 0.0
C680 C 0.54561 0.30959 0.66307 0.0
C681 C 0.55487 0.3589 0.73103 0.0
C682 C 0.56054 0.28577 0.72494 0.0
C683 C 0.58699 0.296 0.72226 0.0
C684 C 0.54837 0.29852 0.71751 0.0
C685 C 0.56304 0.32203 0.7072 0.0
C686 C 0.58992 0.33288 0.70522 0.0
C687 C 0.60156 0.31972 0.71276 0.0
C688 C 0.51968 0.28635 0.71994 0.0
C689 C 0.60625 0.35795 0.69438 0.0
H690 H 0.52473 0.33651 0.6494 0.0
H691 H 0.53184 0.37768 0.7067 0.0
H692 H 0.56634 0.31611 0.66191 0.0
H693 H 0.53619 0.29112 0.67126 0.0
H694 H 0.53763 0.30674 0.6468 0.0
H695 H 0.55025 0.37288 0.73767 0.0
H696 H 0.54548 0.34165 0.74092 0.0
H697 H 0.57588 0.36681 0.73223 0.0
H698 H 0.54919 0.26746 0.73231 0.0
H699 H 0.62204 0.32777 0.71073 0.0
H700 H 0.51046 0.28111 0.7041 0.0
H701 H 0.51482 0.29987 0.72718 0.0
H702 H 0.51138 0.2691 0.72985 0.0
H703 H 0.60098 0.35615 0.67738 0.0
H704 H 0.62706 0.36469 0.69556 0.0
H705 H 0.6027 0.37246 0.70142 0.0
C706 C 0.20151 0.52693 0.84631 0.0
C707 C 0.18167 0.53132 0.85183 0.0
C708 C 0.22537 0.5399 0.85649 0.0
C709 C 0.22942 0.5575 0.87277 0.0
C710 C 0.20908 0.56117 0.87908 0.0
C711 C 0.18548 0.54819 0.86838 0.0
C712 C 0.24665 0.5357 0.84906 0.0
C713 C 0.21255 0.57946 0.89661 0.0
C714 C 0.28996 0.57946 0.90531 0.0
C715 C 0.30711 0.60209 0.89514 0.0
C716 C 0.26418 0.56522 0.89888 0.0
C717 C 0.25561 0.57365 0.88164 0.0
C718 C 0.27273 0.59683 0.87173 0.0
C719 C 0.29819 0.61085 0.87872 0.0
C720 C 0.24634 0.54084 0.91008 0.0
C721 C 0.26447 0.60634 0.85312 0.0
H722 H 0.19875 0.51416 0.83333 0.0
H723 H 0.17008 0.55145 0.87277 0.0
H724 H 0.26223 0.55331 0.8419 0.0
H725 H 0.25502 0.53105 0.86266 0.0
H726 H 0.23993 0.52025 0.83713 0.0
H727 H 0.19414 0.57801 0.90124 0.0
H728 H 0.22114 0.57604 0.91077 0.0
H729 H 0.22597 0.59906 0.89134 0.0
H730 H 0.29676 0.5727 0.9181 0.0
H731 H 0.31137 0.62832 0.87077 0.0
H732 H 0.24101 0.52466 0.89921 0.0
H733 H 0.22835 0.54029 0.91463 0.0
H734 H 0.25519 0.53827 0.92451 0.0
H735 H 0.25905 0.59287 0.83965 0.0
H736 H 0.27984 0.62523 0.84774 0.0
H737 H 0.24732 0.60752 0.85732 0.0
C738 C 0.65383 0.20434 0.02815 0.0
C739 C 0.66695 0.19736 0.01387 0.0
C740 C 0.66593 0.22858 0.03732 0.0
C741 C 0.69164 0.24629 0.03188 0.0
C742 C 0.70516 0.23913 0.01787 0.0
C743 C 0.69267 0.21474 0.00909 0.0
C744 C 0.651 0.23544 0.05239 0.0
C745 C 0.73252 0.25754 0.01151 0.0
C746 C 0.71461 0.31628 0.03481 0.0
C747 C 0.7298 0.32375 0.05314 0.0
C748 C 0.70178 0.29105 0.02793 0.0
C749 C 0.70401 0.27279 0.03976 0.0
C750 C 0.71887 0.28011 0.05854 0.0
C751 C 0.7317 0.30556 0.06497 0.0
C752 C 0.68627 0.28404 0.00772 0.0
C753 C 0.72152 0.26113 0.07166 0.0
H754 H 0.63401 0.19088 0.03202 0.0
H755 H 0.7028 0.20958 0.99782 0.0
H756 H 0.66184 0.2432 0.06736 0.0
H757 H 0.64829 0.25037 0.04529 0.0
H758 H 0.63184 0.21898 0.05618 0.0
H759 H 0.74074 0.24862 0.00131 0.0
H760 H 0.73335 0.27351 0.00275 0.0
H761 H 0.74476 0.26554 0.02578 0.0
H762 H 0.71309 0.33026 0.02559 0.0
H763 H 0.74335 0.31123 0.07919 0.0
H764 H 0.66624 0.26885 0.01083 0.0
H765 H 0.69442 0.27659 0.99593 0.0
H766 H 0.68595 0.30036 0.00066 0.0
H767 H 0.70229 0.24516 0.07593 0.0
H768 H 0.73263 0.26959 0.08643 0.0
H769 H 0.73131 0.25319 0.06226 0.0
C770 C 0.50085 0.69315 0.18932 0.0
C771 C 0.48619 0.66719 0.18472 0.0
C772 C 0.48954 0.70623 0.19799 0.0
C773 C 0.46304 0.69293 0.20282 0.0
C774 C 0.44851 0.66646 0.19969 0.0
C775 C 0.46014 0.65397 0.19043 0.0
C776 C 0.50565 0.73452 0.2008 0.0
C777 C 0.42032 0.65148 0.20511 0.0
C778 C 0.43645 0.72646 0.2359 0.0
C779 C 0.4252 0.73375 0.22024 0.0
C780 C 0.44856 0.7128 0.23057 0.0
C781 C 0.45001 0.707 0.20903 0.0
C782 C 0.43898 0.7147 0.19317 0.0
C783 C 0.42642 0.72767 0.19901 0.0
C784 C 0.45949 0.70432 0.24794 0.0
C785 C 0.4406 0.7094 0.16999 0.0
H786 H 0.52113 0.7035 0.18557 0.0
H787 H 0.44843 0.63401 0.18682 0.0
H788 H 0.49892 0.74385 0.1897 0.0
H789 H 0.50349 0.74007 0.21708 0.0
H790 H 0.52632 0.74179 0.19776 0.0
H791 H 0.41269 0.6308 0.2046 0.0
H792 H 0.41689 0.6567 0.22113 0.0
H793 H 0.40934 0.65593 0.19366 0.0
H794 H 0.43536 0.73102 0.25234 0.0
H795 H 0.4179 0.73346 0.18685 0.0
H796 H 0.48036 0.7124 0.24547 0.0
H797 H 0.45042 0.68346 0.24746 0.0
H798 H 0.45645 0.71004 0.26392 0.0
H799 H 0.46095 0.71743 0.16529 0.0
H800 H 0.43181 0.71745 0.15959 0.0
H801 H 0.43071 0.68873 0.16715 0.0
C802 C 0.81371 0.4394 0.36455 0.0
C803 C 0.83066 0.46455 0.3587 0.0
C804 C 0.78934 0.43192 0.3728 0.0
C805 C 0.78149 0.44991 0.37494 0.0
C806 C 0.79883 0.4755 0.36992 0.0
C807 C 0.82326 0.48255 0.36204 0.0
C808 C 0.77153 0.40449 0.37822 0.0
C809 C 0.79112 0.49523 0.37186 0.0
C810 C 0.71013 0.42442 0.36926 0.0
C811 C 0.70257 0.42403 0.39033 0.0
C812 C 0.73582 0.43321 0.36408 0.0
C813 C 0.75439 0.44147 0.3804 0.0
C814 C 0.74691 0.44115 0.40174 0.0
C815 C 0.72106 0.43261 0.40644 0.0
C816 C 0.74305 0.43357 0.3411 0.0
C817 C 0.76612 0.44945 0.41957 0.0
H818 H 0.81898 0.42522 0.36183 0.0
H819 H 0.83637 0.50212 0.35802 0.0
H820 H 0.76289 0.40279 0.3941 0.0
H821 H 0.7556 0.39584 0.36658 0.0
H822 H 0.78151 0.39354 0.37808 0.0
H823 H 0.80746 0.5146 0.369 0.0
H824 H 0.7758 0.49114 0.36019 0.0
H825 H 0.78316 0.49465 0.38784 0.0
H826 H 0.69592 0.41796 0.35673 0.0
H827 H 0.71525 0.43226 0.42276 0.0
H828 H 0.75098 0.42098 0.33871 0.0
H829 H 0.75822 0.45291 0.33658 0.0
H830 H 0.72644 0.42734 0.33027 0.0
H831 H 0.7748 0.43734 0.41989 0.0
H832 H 0.7573 0.44844 0.43527 0.0
H833 H 0.78193 0.46912 0.41697 0.0
C834 C 0.16848 0.63641 0.42754 0.0
C835 C 0.14466 0.6152 0.42248 0.0
C836 C 0.18145 0.63734 0.44619 0.0
C837 C 0.17035 0.61654 0.46016 0.0
C838 C 0.14652 0.59486 0.45499 0.0
C839 C 0.13397 0.59442 0.43616 0.0
C840 C 0.2069 0.66075 0.45107 0.0
C841 C 0.13407 0.57236 0.46954 0.0
C842 C 0.21544 0.61403 0.50053 0.0
C843 C 0.2112 0.62524 0.51829 0.0
C844 C 0.20172 0.61035 0.48164 0.0
C845 C 0.18334 0.61805 0.48055 0.0
C846 C 0.17845 0.62866 0.49865 0.0
C847 C 0.19246 0.63215 0.51729 0.0
C848 C 0.20745 0.59897 0.46267 0.0
C849 C 0.15897 0.63706 0.49815 0.0
H850 H 0.17706 0.65234 0.41683 0.0
H851 H 0.11549 0.57805 0.43238 0.0
H852 H 0.20542 0.66958 0.46598 0.0
H853 H 0.22185 0.65568 0.45351 0.0
H854 H 0.21329 0.67496 0.43822 0.0
H855 H 0.11609 0.55653 0.46278 0.0
H856 H 0.14749 0.56551 0.4728 0.0
H857 H 0.12956 0.57798 0.48495 0.0
H858 H 0.22989 0.60862 0.50123 0.0
H859 H 0.18903 0.64075 0.53099 0.0
H860 H 0.21589 0.61317 0.44985 0.0
H861 H 0.18948 0.58273 0.45638 0.0
H862 H 0.22103 0.59246 0.46651 0.0
H863 H 0.16522 0.65279 0.48677 0.0
H864 H 0.15633 0.64353 0.51393 0.0
H865 H 0.14017 0.62137 0.4926 0.0
C866 C 0.55378 0.15993 0.58854 0.0
C867 C 0.56247 0.14383 0.58176 0.0
C868 C 0.56111 0.17219 0.60827 0.0
C869 C 0.57733 0.16804 0.62164 0.0
C870 C 0.58572 0.15138 0.61507 0.0
C871 C 0.57834 0.1396 0.59511 0.0
C872 C 0.552 0.19005 0.61459 0.0
C873 C 0.60272 0.14622 0.62902 0.0
C874 C 0.61632 0.21913 0.6623 0.0
C875 C 0.6012 0.20947 0.68053 0.0
C876 C 0.60896 0.20565 0.6431 0.0
C877 C 0.58608 0.18181 0.64219 0.0
C878 C 0.57108 0.17167 0.66069 0.0
C879 C 0.57874 0.1857 0.67963 0.0
C880 C 0.62533 0.21722 0.62366 0.0
C881 C 0.54673 0.14618 0.66039 0.0
H882 H 0.54178 0.1635 0.57813 0.0
H883 H 0.58491 0.12701 0.58995 0.0
H884 H 0.54164 0.18418 0.62991 0.0
H885 H 0.56873 0.20936 0.61685 0.0
H886 H 0.53909 0.19083 0.60255 0.0
H887 H 0.60661 0.1319 0.622 0.0
H888 H 0.62128 0.16393 0.63168 0.0
H889 H 0.59363 0.13948 0.64476 0.0
H890 H 0.63368 0.23752 0.66292 0.0
H891 H 0.56706 0.17811 0.69372 0.0
H892 H 0.61408 0.2202 0.61138 0.0
H893 H 0.63112 0.2042 0.61683 0.0
H894 H 0.6429 0.23562 0.62716 0.0
H895 H 0.53249 0.1467 0.64971 0.0
H896 H 0.53806 0.14033 0.67639 0.0
H897 H 0.55065 0.13161 0.65406 0.0
C898 C 0.41073 0.54577 0.78011 0.0
C899 C 0.4217 0.55831 0.76105 0.0
C900 C 0.4106 0.55909 0.79818 0.0
C901 C 0.42203 0.58566 0.79729 0.0
C902 C 0.4345 0.59861 0.77853 0.0
C903 C 0.43406 0.58478 0.76058 0.0
C904 C 0.39705 0.54455 0.81788 0.0
C905 C 0.44717 0.62696 0.77705 0.0
C906 C 0.39216 0.61294 0.83359 0.0
C907 C 0.4089 0.62116 0.85098 0.0
C908 C 0.39667 0.60202 0.81579 0.0
C909 C 0.41858 0.59942 0.81527 0.0
C910 C 0.43614 0.60863 0.83239 0.0
C911 C 0.43103 0.61932 0.85013 0.0
C912 C 0.37742 0.59238 0.79789 0.0
C913 C 0.45986 0.60645 0.83226 0.0
H914 H 0.40165 0.52539 0.78076 0.0
H915 H 0.44242 0.59466 0.74591 0.0
H916 H 0.40979 0.55257 0.83187 0.0
H917 H 0.37991 0.54623 0.82087 0.0
H918 H 0.39076 0.52419 0.81651 0.0
H919 H 0.45886 0.63443 0.76243 0.0
H920 H 0.43227 0.63237 0.77704 0.0
H921 H 0.45967 0.63619 0.791 0.0
H922 H 0.37504 0.61433 0.83414 0.0
H923 H 0.44405 0.62569 0.86352 0.0
H924 H 0.36851 0.5716 0.7964 0.0
H925 H 0.38714 0.60075 0.78266 0.0
H926 H 0.36196 0.59682 0.80036 0.0
H927 H 0.45424 0.58627 0.83301 0.0
H928 H 0.47275 0.61659 0.84584 0.0
H929 H 0.47069 0.61414 0.81731 0.0
C930 C 0.86215 0.39958 0.93112 0.0
C931 C 0.88124 0.42147 0.92119 0.0
C932 C 0.85014 0.40098 0.94965 0.0
C933 C 0.85751 0.42489 0.95861 0.0
C934 C 0.87667 0.44712 0.94861 0.0
C935 C 0.88822 0.44515 0.92989 0.0
C936 C 0.82957 0.37682 0.95966 0.0
C937 C 0.88517 0.4729 0.95783 0.0
C938 C 0.80907 0.42468 0.99706 0.0
C939 C 0.81809 0.42129 0.01646 0.0
C940 C 0.82234 0.42705 0.97813 0.0
C941 C 0.8453 0.42627 0.97869 0.0
C942 C 0.85521 0.42425 0.99839 0.0
C943 C 0.8414 0.42163 0.01703 0.0
C944 C 0.81105 0.42898 0.95743 0.0
C945 C 0.87978 0.42365 0.99968 0.0
H946 H 0.85638 0.38126 0.92421 0.0
H947 H 0.90303 0.4621 0.92226 0.0
H948 H 0.83547 0.37509 0.97588 0.0
H949 H 0.81149 0.37718 0.96112 0.0
H950 H 0.82561 0.35981 0.95037 0.0
H951 H 0.89997 0.48834 0.94793 0.0
H952 H 0.86851 0.47564 0.95946 0.0
H953 H 0.89312 0.47442 0.97394 0.0
H954 H 0.79105 0.42442 0.99655 0.0
H955 H 0.84856 0.41919 0.03201 0.0
H956 H 0.80446 0.4114 0.94806 0.0
H957 H 0.82578 0.44484 0.94788 0.0
H958 H 0.7945 0.4318 0.95985 0.0
H959 H 0.87683 0.40587 0.99247 0.0
H960 H 0.88632 0.42477 0.01629 0.0
H961 H 0.89523 0.43953 0.99062 0.0
C962 C 0.46758 0.87464 0.0929 0.0
C963 C 0.46093 0.89243 0.08676 0.0
C964 C 0.45823 0.8611 0.1118 0.0
C965 C 0.44207 0.86568 0.12501 0.0
C966 C 0.43571 0.88399 0.11912 0.0
C967 C 0.44507 0.89703 0.09996 0.0
C968 C 0.46522 0.84152 0.11741 0.0
C969 C 0.41884 0.88963 0.13295 0.0
C970 C 0.39861 0.81329 0.1628 0.0
C971 C 0.41289 0.82113 0.18161 0.0
C972 C 0.40771 0.82781 0.14432 0.0
C973 C 0.43148 0.85087 0.14478 0.0
C974 C 0.44561 0.85921 0.1639 0.0
C975 C 0.43623 0.84414 0.18206 0.0
C976 C 0.39223 0.81814 0.12417 0.0
C977 C 0.47086 0.88384 0.16508 0.0
H978 H 0.47953 0.87078 0.08257 0.0
H979 H 0.44005 0.9109 0.0953 0.0
H980 H 0.47474 0.8459 0.13312 0.0
H981 H 0.44757 0.82267 0.11855 0.0
H982 H 0.47821 0.84045 0.10553 0.0
H983 H 0.41649 0.90509 0.1265 0.0
H984 H 0.3996 0.87246 0.1345 0.0
H985 H 0.42709 0.89503 0.14912 0.0
H986 H 0.38059 0.79548 0.16237 0.0
H987 H 0.44726 0.85033 0.19661 0.0
H988 H 0.40349 0.81491 0.11196 0.0
H989 H 0.38805 0.83243 0.1178 0.0
H990 H 0.3738 0.80021 0.12661 0.0
H991 H 0.48511 0.8829 0.15463 0.0
H992 H 0.47871 0.88836 0.18144 0.0
H993 H 0.46849 0.89953 0.15933 0.0
C994 C 0.5696 0.46702 0.2701 0.0
C995 C 0.57532 0.45789 0.25175 0.0
C996 C 0.57378 0.46028 0.29029 0.0
C997 C 0.58442 0.44451 0.29206 0.0
C998 C 0.59042 0.43547 0.27353 0.0
C999 C 0.58559 0.4421 0.25361 0.0
C1000 C 0.56675 0.46993 0.30969 0.0
C1001 C 0.60225 0.41903 0.27473 0.0
C1002 C 0.61954 0.44555 0.34208 0.0
C1003 C 0.60192 0.42242 0.35133 0.0
C1004 C 0.61384 0.45327 0.32303 0.0
C1005 C 0.58976 0.4377 0.31323 0.0
C1006 C 0.57148 0.41483 0.32298 0.0
C1007 C 0.57789 0.40732 0.34183 0.0
C1008 C 0.63401 0.47759 0.31296 0.0
C1009 C 0.54542 0.39796 0.3132 0.0
H1010 H 0.56153 0.47913 0.26863 0.0
H1011 H 0.5903 0.4353 0.23939 0.0
H1012 H 0.55302 0.45381 0.31961 0.0
H1013 H 0.58407 0.48164 0.31948 0.0
H1014 H 0.55799 0.48143 0.30559 0.0
H1015 H 0.60605 0.41382 0.25881 0.0
H1016 H 0.62061 0.42903 0.2836 0.0
H1017 H 0.58935 0.40145 0.28347 0.0
H1018 H 0.63819 0.45724 0.34935 0.0
H1019 H 0.56417 0.3895 0.34902 0.0
H1020 H 0.62608 0.48997 0.30969 0.0
H1021 H 0.63994 0.47339 0.29754 0.0
H1022 H 0.6513 0.48811 0.32311 0.0
H1023 H 0.53605 0.40902 0.30964 0.0
H1024 H 0.53262 0.382 0.32369 0.0
H1025 H 0.54758 0.39012 0.29797 0.0
C1026 C 0.39372 0.8842 0.36468 0.0
C1027 C 0.41063 0.88855 0.38152 0.0
C1028 C 0.39345 0.87082 0.3465 0.0
C1029 C 0.411 0.86215 0.34478 0.0
C1030 C 0.42882 0.86732 0.36126 0.0
C1031 C 0.42822 0.88016 0.37952 0.0
C1032 C 0.37393 0.86542 0.32937 0.0
C1033 C 0.44816 0.8588 0.3598 0.0
C1034 C 0.39228 0.80588 0.30854 0.0
C1035 C 0.40503 0.81767 0.28976 0.0
C1036 C 0.39432 0.82014 0.32665 0.0
C1037 C 0.40993 0.84679 0.32607 0.0
C1038 C 0.4236 0.85873 0.30737 0.0
C1039 C 0.42075 0.84402 0.28934 0.0
C1040 C 0.37908 0.80673 0.34616 0.0
C1041 C 0.44087 0.88704 0.3063 0.0
H1042 H 0.38046 0.89106 0.36575 0.0
H1043 H 0.44114 0.88302 0.39247 0.0
H1044 H 0.38372 0.8732 0.31405 0.0
H1045 H 0.36138 0.84471 0.32722 0.0
H1046 H 0.36168 0.87358 0.33309 0.0
H1047 H 0.46209 0.86616 0.37312 0.0
H1048 H 0.43811 0.83787 0.35992 0.0
H1049 H 0.4589 0.86516 0.34466 0.0
H1050 H 0.37998 0.78551 0.30887 0.0
H1051 H 0.43072 0.85318 0.27485 0.0
H1052 H 0.36526 0.81302 0.34985 0.0
H1053 H 0.39202 0.81165 0.36002 0.0
H1054 H 0.36827 0.78587 0.34417 0.0
H1055 H 0.42929 0.89627 0.30802 0.0
H1056 H 0.4516 0.89321 0.29112 0.0
H1057 H 0.45484 0.89384 0.31957 0.0
C1058 C 0.53484 0.43601 0.53189 0.0
C1059 C 0.54225 0.43013 0.551 0.0
C1060 C 0.54683 0.43622 0.51275 0.0
C1061 C 0.56617 0.42974 0.51274 0.0
C1062 C 0.5743 0.42465 0.53215 0.0
C1063 C 0.56239 0.42515 0.55109 0.0
C1064 C 0.53805 0.44232 0.49246 0.0
C1065 C 0.59448 0.41718 0.53279 0.0
C1066 C 0.57243 0.39731 0.46377 0.0
C1067 C 0.59538 0.41633 0.45489 0.0
C1068 C 0.56269 0.40156 0.4825 0.0
C1069 C 0.57594 0.42561 0.49237 0.0
C1070 C 0.59875 0.44516 0.48315 0.0
C1071 C 0.60839 0.44019 0.4646 0.0
C1072 C 0.53855 0.38006 0.492 0.0
C1073 C 0.61305 0.47119 0.49299 0.0
H1074 H 0.51936 0.44001 0.53189 0.0
H1075 H 0.56792 0.42037 0.56587 0.0
H1076 H 0.5548 0.45615 0.48304 0.0
H1077 H 0.5274 0.42494 0.4827 0.0
H1078 H 0.52532 0.45011 0.49547 0.0
H1079 H 0.59996 0.41564 0.54925 0.0
H1080 H 0.5871 0.39865 0.52474 0.0
H1081 H 0.61192 0.43111 0.52414 0.0
H1082 H 0.56238 0.37878 0.45638 0.0
H1083 H 0.62609 0.45497 0.4577 0.0
H1084 H 0.52368 0.38542 0.49354 0.0
H1085 H 0.54261 0.37598 0.50816 0.0
H1086 H 0.53058 0.36251 0.48233 0.0
H1087 H 0.59991 0.4786 0.49531 0.0
H1088 H 0.62953 0.48473 0.48313 0.0
H1089 H 0.62034 0.47021 0.50885 0.0
C1090 C 0.14706 0.56984 0.71491 0.0
C1091 C 0.14078 0.54452 0.71626 0.0
C1092 C 0.15991 0.58459 0.69714 0.0
C1093 C 0.16734 0.57403 0.68058 0.0
C1094 C 0.16077 0.54846 0.68165 0.0
C1095 C 0.1472 0.53395 0.69924 0.0
C1096 C 0.16598 0.6116 0.69629 0.0
C1097 C 0.16866 0.53657 0.66446 0.0
C1098 C 0.18552 0.6022 0.62548 0.0
C1099 C 0.21236 0.61541 0.62657 0.0
C1100 C 0.17055 0.58971 0.64329 0.0
C1101 C 0.18278 0.58981 0.66241 0.0
C1102 C 0.20991 0.60361 0.66368 0.0
C1103 C 0.22438 0.61654 0.64581 0.0
C1104 C 0.14169 0.57586 0.64148 0.0
C1105 C 0.22369 0.6037 0.68361 0.0
H1106 H 0.14254 0.57843 0.72797 0.0
H1107 H 0.14186 0.51427 0.6997 0.0
H1108 H 0.18702 0.6246 0.69724 0.0
H1109 H 0.15947 0.61521 0.681 0.0
H1110 H 0.1568 0.61624 0.70943 0.0
H1111 H 0.16231 0.51652 0.66782 0.0
H1112 H 0.16046 0.53746 0.64903 0.0
H1113 H 0.18984 0.54723 0.66276 0.0
H1114 H 0.17621 0.60145 0.61062 0.0
H1115 H 0.24514 0.62661 0.64663 0.0
H1116 H 0.13336 0.58117 0.65481 0.0
H1117 H 0.13389 0.55522 0.64246 0.0
H1118 H 0.13524 0.5799 0.62632 0.0
H1119 H 0.21694 0.61009 0.69733 0.0
H1120 H 0.24483 0.61612 0.68227 0.0
H1121 H 0.21928 0.58421 0.68703 0.0
C1122 C 0.62474 0.14959 0.86496 0.0
C1123 C 0.60676 0.14291 0.88141 0.0
C1124 C 0.62325 0.1615 0.8466 0.0
C1125 C 0.60267 0.16594 0.84412 0.0
C1126 C 0.58366 0.15803 0.86004 0.0
C1127 C 0.58617 0.14706 0.87863 0.0
C1128 C 0.64423 0.17012 0.83018 0.0
C1129 C 0.56099 0.16173 0.85767 0.0
C1130 C 0.61412 0.22025 0.80861 0.0
C1131 C 0.60449 0.2079 0.7892 0.0
C1132 C 0.61341 0.20675 0.82667 0.0
C1133 C 0.60196 0.18016 0.82542 0.0
C1134 C 0.59109 0.16748 0.80604 0.0
C1135 C 0.59296 0.18159 0.78801 0.0
C1136 C 0.62592 0.22108 0.84684 0.0
C1137 C 0.57789 0.13909 0.80428 0.0
H1138 H 0.6403 0.14585 0.86648 0.0
H1139 H 0.57228 0.1424 0.8912 0.0
H1140 H 0.63597 0.16136 0.8146 0.0
H1141 H 0.65379 0.19089 0.82821 0.0
H1142 H 0.65898 0.1653 0.83453 0.0
H1143 H 0.54636 0.15183 0.8702 0.0
H1144 H 0.56755 0.18215 0.85854 0.0
H1145 H 0.55181 0.15472 0.84197 0.0
H1146 H 0.6233 0.24065 0.80945 0.0
H1147 H 0.58541 0.17206 0.77297 0.0
H1148 H 0.64175 0.2179 0.85132 0.0
H1149 H 0.61188 0.21405 0.86002 0.0
H1150 H 0.63382 0.24172 0.84521 0.0
H1151 H 0.5921 0.13298 0.80625 0.0
H1152 H 0.56817 0.13198 0.78875 0.0
H1153 H 0.56346 0.13013 0.81709 0.0
C1154 C 0.44317 0.58454 0.04786 0.0
C1155 C 0.46783 0.60484 0.05243 0.0
C1156 C 0.42966 0.5848 0.0299 0.0
C1157 C 0.44115 0.60575 0.0161 0.0
C1158 C 0.46624 0.626 0.02033 0.0
C1159 C 0.47919 0.62536 0.03847 0.0
C1160 C 0.40291 0.5629 0.02591 0.0
C1161 C 0.47922 0.64866 0.00595 0.0
C1162 C 0.41794 0.60231 0.95969 0.0
C1163 C 0.40485 0.61558 0.9615 0.0
C1164 C 0.42903 0.59805 0.97751 0.0
C1165 C 0.42679 0.60714 0.99759 0.0
C1166 C 0.41248 0.61944 0.99965 0.0
C1167 C 0.40176 0.62359 0.98156 0.0
C1168 C 0.4442 0.58493 0.97466 0.0
C1169 C 0.40943 0.62918 0.02082 0.0
H1170 H 0.43436 0.56846 0.05838 0.0
H1171 H 0.49801 0.64135 0.04202 0.0
H1172 H 0.38901 0.56958 0.02644 0.0
H1173 H 0.40169 0.55489 0.00987 0.0
H1174 H 0.39704 0.54764 0.03775 0.0
H1175 H 0.49924 0.66225 0.01092 0.0
H1176 H 0.47951 0.64252 0.98944 0.0
H1177 H 0.46827 0.65863 0.00591 0.0
H1178 H 0.42038 0.59606 0.94422 0.0
H1179 H 0.39155 0.63375 0.98305 0.0
H1180 H 0.43796 0.56946 0.98629 0.0
H1181 H 0.46481 0.59857 0.97764 0.0
H1182 H 0.44215 0.57698 0.95845 0.0
H1183 H 0.40246 0.61406 0.03288 0.0
H1184 H 0.39588 0.63629 0.02007 0.0
H1185 H 0.42833 0.64481 0.02629 0.0
C1186 C 0.88341 0.4413 0.21147 0.0
C1187 C 0.88067 0.45819 0.22469 0.0
C1188 C 0.87104 0.43405 0.19171 0.0
C1189 C 0.85535 0.44369 0.18518 0.0
C1190 C 0.85268 0.46088 0.19842 0.0
C1191 C 0.86545 0.46799 0.21797 0.0
C1192 C 0.87458 0.41591 0.17791 0.0
C1193 C 0.8359 0.47138 0.19212 0.0
C1194 C 0.83816 0.44201 0.1271 0.0
C1195 C 0.81339 0.42074 0.12635 0.0
C1196 C 0.85226 0.44943 0.14605 0.0
C1197 C 0.84119 0.4354 0.16473 0.0
C1198 C 0.81624 0.41381 0.16403 0.0
C1199 C 0.8027 0.40666 0.14481 0.0
C1200 C 0.8789 0.47241 0.14614 0.0
C1201 C 0.80369 0.3985 0.18365 0.0
H1202 H 0.89532 0.43384 0.21656 0.0
H1203 H 0.86299 0.48077 0.22828 0.0
H1204 H 0.85584 0.39835 0.17541 0.0
H1205 H 0.88187 0.42434 0.1621 0.0
H1206 H 0.88813 0.41084 0.18496 0.0
H1207 H 0.83621 0.48488 0.20406 0.0
H1208 H 0.84229 0.48116 0.17668 0.0
H1209 H 0.81581 0.45572 0.19009 0.0
H1210 H 0.84655 0.45289 0.11284 0.0
H1211 H 0.78354 0.39023 0.14432 0.0
H1212 H 0.89286 0.4674 0.1523 0.0
H1213 H 0.87951 0.48707 0.15687 0.0
H1214 H 0.88514 0.48066 0.1301 0.0
H1215 H 0.81581 0.39157 0.19051 0.0
H1216 H 0.78434 0.38201 0.18037 0.0
H1217 H 0.80186 0.41057 0.19583 0.0
loop_
_geom_bond_atom_site_label_1
_geom_bond_atom_site_label_2
_geom_bond_distance
_geom_bond_site_symmetry_2
_ccdc_geom_bond_type
H0 C27 0.929 . S
N1 C26 1.433 . S
N1 C32 1.435 . S
N1 C38 1.423 . S
H2 C28 0.930 . S
H3 C31 0.931 . S
H4 C30 0.929 . S
H5 C33 0.930 . S
H6 C34 0.932 . S
H7 C37 0.929 . S
H8 C36 0.931 . S
H9 C39 0.929 . S
H10 C43 0.932 . S
H11 C40 0.931 . S
H12 C42 0.929 . S
H13 C45 0.929 . S
H14 C46 0.930 . S
H15 C48 0.929 . S
H16 C49 0.931 . S
H17 C51 0.930 . S
H18 C52 0.932 . S
H19 C54 0.931 . S
H20 C55 0.929 . S
H21 C57 0.929 . S
H22 C58 0.931 . S
H23 C60 0.929 . S
N24 C44 1.433 . S
N24 C50 1.435 . S
N24 C56 1.423 . S
H25 C61 0.932 . S
C26 N1 1.433 . S
C26 C27 1.363 . S
C26 C31 1.370 . S
C27 H0 0.929 . S
C27 C26 1.363 . S
C27 C28 1.385 . S
C28 H2 0.930 . S
C28 C27 1.385 . S
C28 C29 1.357 . S
C29 C28 1.357 . S
C29 C30 1.406 . S
C30 H4 0.929 . S
C30 C29 1.406 . S
C30 C31 1.391 . S
C31 H3 0.931 . S
C31 C26 1.370 . S
C31 C30 1.391 . S
C32 N1 1.435 . S
C32 C33 1.358 . S
C32 C37 1.371 . S
C33 H5 0.930 . S
C33 C32 1.358 . S
C33 C34 1.405 . S
C34 H6 0.932 . S
C34 C33 1.405 . S
C34 C35 1.383 . S
C35 C34 1.383 . S
C35 C36 1.393 . S
C36 H8 0.931 . S
C36 C35 1.393 . S
C36 C37 1.382 . S
C37 H7 0.929 . S
C37 C32 1.371 . S
C37 C36 1.382 . S
C38 N1 1.423 . S
C38 C39 1.362 . S
C38 C43 1.388 . S
C39 H9 0.929 . S
C39 C38 1.362 . S
C39 C40 1.376 . S
C40 H11 0.931 . S
C40 C39 1.376 . S
C40 C41 1.396 . S
C41 C40 1.396 . S
C41 C42 1.348 . S
C41 C59 1.472 1_455 S
C42 H12 0.929 . S
C42 C41 1.348 . S
C42 C43 1.443 . S
C43 H10 0.932 . S
C43 C38 1.388 . S
C43 C42 1.443 . S
C44 N24 1.433 . S
C44 C45 1.363 . S
C44 C49 1.370 . S
C45 H13 0.929 . S
C45 C44 1.363 . S
C45 C46 1.385 . S
C46 H14 0.930 . S
C46 C45 1.385 . S
C46 C47 1.357 . S
C47 C46 1.357 . S
C47 C48 1.406 . S
C48 H15 0.929 . S
C48 C47 1.406 . S
C48 C49 1.391 . S
C49 H16 0.931 . S
C49 C44 1.370 . S
C49 C48 1.391 . S
C50 N24 1.435 . S
C50 C51 1.358 . S
C50 C55 1.371 . S
C51 H17 0.930 . S
C51 C50 1.358 . S
C51 C52 1.405 . S
C52 H18 0.932 . S
C52 C51 1.405 . S
C52 C53 1.383 . S
C53 C52 1.383 . S
C53 C54 1.393 . S
C54 H19 0.931 . S
C54 C53 1.393 . S
C54 C55 1.382 . S
C55 H20 0.929 . S
C55 C50 1.371 . S
C55 C54 1.382 . S
C56 N24 1.423 . S
C56 C57 1.362 . S
C56 C61 1.388 . S
C57 H21 0.929 . S
C57 C56 1.362 . S
C57 C58 1.376 . S
C58 H22 0.931 . S
C58 C57 1.376 . S
C58 C59 1.396 . S
C59 C41 1.472 1_655 S
C59 C58 1.396 . S
C59 C60 1.348 . S
C60 H23 0.929 . S
C60 C59 1.348 . S
C60 C61 1.443 . S
C61 H25 0.932 . S
C61 C56 1.388 . S
C61 C60 1.443 . S
H62 C89 0.929 . S
N63 C88 1.433 . S
N63 C94 1.435 . S
N63 C100 1.423 . S
H64 C90 0.930 . S
H65 C93 0.931 . S
H66 C92 0.929 . S
H67 C95 0.930 . S
H68 C96 0.932 . S
H69 C99 0.929 . S
H70 C98 0.931 . S
H71 C101 0.929 . S
H72 C105 0.932 . S
H73 C102 0.931 . S
H74 C104 0.929 1_545 S
H75 C107 0.929 . S
H76 C108 0.930 . S
H77 C110 0.929 . S
H78 C111 0.931 . S
H79 C113 0.930 . S
H80 C114 0.932 . S
H81 C116 0.931 . S
H82 C117 0.929 . S
H83 C119 0.929 . S
H84 C120 0.931 . S
H85 C122 0.929 . S
N86 C106 1.433 . S
N86 C112 1.435 . S
N86 C118 1.423 . S
H87 C123 0.932 . S
C88 N63 1.433 . S
C88 C89 1.363 . S
C88 C93 1.370 . S
C89 H62 0.929 . S
C89 C88 1.363 . S
C89 C90 1.385 . S
C90 H64 0.930 . S
C90 C89 1.385 . S
C90 C91 1.357 . S
C91 C90 1.357 . S
C91 C92 1.406 . S
C92 H66 0.929 . S
C92 C91 1.406 . S
C92 C93 1.391 . S
C93 H65 0.931 . S
C93 C88 1.370 . S
C93 C92 1.391 . S
C94 N63 1.435 . S
C94 C95 1.358 . S
C94 C99 1.371 . S
C95 H67 0.930 . S
C95 C94 1.358 . S
C95 C96 1.405 . S
C96 H68 0.932 . S
C96 C95 1.405 . S
C96 C97 1.383 . S
C97 C96 1.383 . S
C97 C98 1.393 . S
C98 H70 0.931 . S
C98 C97 1.393 . S
C98 C99 1.382 . S
C99 H69 0.929 . S
C99 C94 1.371 . S
C99 C98 1.382 . S
C100 N63 1.423 . S
C100 C101 1.362 . S
C100 C105 1.388 . S
C101 H71 0.929 . S
C101 C100 1.362 . S
C101 C102 1.376 . S
C102 H73 0.931 . S
C102 C101 1.376 . S
C102 C103 1.396 1_565 S
C103 C102 1.396 1_545 S
C103 C104 1.348 1_545 S
C103 C121 1.472 . S
C104 H74 0.929 1_565 S
C104 C103 1.348 1_565 S
C104 C105 1.443 . S
C105 H72 0.932 . S
C105 C100 1.388 . S
C105 C104 1.443 . S
C106 N86 1.433 . S
C106 C107 1.363 . S
C106 C111 1.370 . S
C107 H75 0.929 . S
C107 C106 1.363 . S
C107 C108 1.385 . S
C108 H76 0.930 . S
C108 C107 1.385 . S
C108 C109 1.357 . S
C109 C108 1.357 . S
C109 C110 1.406 . S
C110 H77 0.929 . S
C110 C109 1.406 . S
C110 C111 1.391 . S
C111 H78 0.931 . S
C111 C106 1.370 . S
C111 C110 1.391 . S
C112 N86 1.435 . S
C112 C113 1.358 . S
C112 C117 1.371 . S
C113 H79 0.930 . S
C113 C112 1.358 . S
C113 C114 1.405 . S
C114 H80 0.932 . S
C114 C113 1.405 . S
C114 C115 1.383 . S
C115 C114 1.383 . S
C115 C116 1.393 . S
C116 H81 0.931 . S
C116 C115 1.393 . S
C116 C117 1.382 . S
C117 H82 0.929 . S
C117 C112 1.371 . S
C117 C116 1.382 . S
C118 N86 1.423 . S
C118 C119 1.362 . S
C118 C123 1.388 . S
C119 H83 0.929 . S
C119 C118 1.362 . S
C119 C120 1.376 . S
C120 H84 0.931 . S
C120 C119 1.376 . S
C120 C121 1.396 . S
C121 C103 1.472 . S
C121 C120 1.396 . S
C121 C122 1.348 . S
C122 H85 0.929 . S
C122 C121 1.348 . S
C122 C123 1.443 . S
C123 H87 0.932 . S
C123 C118 1.388 . S
C123 C122 1.443 . S
H124 C151 0.929 . S
N125 C150 1.433 . S
N125 C156 1.435 . S
N125 C162 1.423 . S
H126 C152 0.930 . S
H127 C155 0.931 . S
H128 C154 0.929 . S
H129 C157 0.930 . S
H130 C158 0.932 . S
H131 C161 0.929 . S
H132 C160 0.931 . S
H133 C163 0.929 . S
H134 C167 0.932 . S
H135 C164 0.931 . S
H136 C166 0.929 . S
H137 C169 0.929 . S
H138 C170 0.930 . S
H139 C172 0.929 . S
H140 C173 0.931 . S
H141 C175 0.930 . S
H142 C176 0.932 . S
H143 C178 0.931 . S
H144 C179 0.929 . S
H145 C181 0.929 . S
H146 C182 0.931 . S
H147 C184 0.929 . S
N148 C168 1.433 . S
N148 C174 1.435 . S
N148 C180 1.423 . S
H149 C185 0.932 . S
C150 N125 1.433 . S
C150 C151 1.363 . S
C150 C155 1.370 . S
C151 H124 0.929 . S
C151 C150 1.363 . S
C151 C152 1.385 . S
C152 H126 0.930 . S
C152 C151 1.385 . S
C152 C153 1.357 . S
C153 C152 1.357 . S
C153 C154 1.406 . S
C154 H128 0.929 . S
C154 C153 1.406 . S
C154 C155 1.391 . S
C155 H127 0.931 . S
C155 C150 1.370 . S
C155 C154 1.391 . S
C156 N125 1.435 . S
C156 C157 1.358 . S
C156 C161 1.371 . S
C157 H129 0.930 . S
C157 C156 1.358 . S
C157 C158 1.405 . S
C158 H130 0.932 . S
C158 C157 1.405 . S
C158 C159 1.383 . S
C159 C158 1.383 . S
C159 C160 1.393 . S
C160 H132 0.931 . S
C160 C159 1.393 . S
C160 C161 1.382 . S
C161 H131 0.929 . S
C161 C156 1.371 . S
C161 C160 1.382 . S
C162 N125 1.423 . S
C162 C163 1.362 . S
C162 C167 1.388 . S
C163 H133 0.929 . S
C163 C162 1.362 . S
C163 C164 1.376 . S
C164 H135 0.931 . S
C164 C163 1.376 . S
C164 C165 1.396 . S
C165 C164 1.396 . S
C165 C166 1.348 . S
C165 C183 1.472 . S
C166 H136 0.929 . S
C166 C165 1.348 . S
C166 C167 1.443 . S
C167 H134 0.932 . S
C167 C162 1.388 . S
C167 C166 1.443 . S
C168 N148 1.433 . S
C168 C169 1.363 . S
C168 C173 1.370 . S
C169 H137 0.929 . S
C169 C168 1.363 . S
C169 C170 1.385 . S
C170 H138 0.930 . S
C170 C169 1.385 . S
C170 C171 1.357 . S
C171 C170 1.357 . S
C171 C172 1.406 . S
C172 H139 0.929 . S
C172 C171 1.406 . S
C172 C173 1.391 . S
C173 H140 0.931 . S
C173 C168 1.370 . S
C173 C172 1.391 . S
C174 N148 1.435 . S
C174 C175 1.358 . S
C174 C179 1.371 . S
C175 H141 0.930 . S
C175 C174 1.358 . S
C175 C176 1.405 . S
C176 H142 0.932 . S
C176 C175 1.405 . S
C176 C177 1.383 . S
C177 C176 1.383 . S
C177 C178 1.393 . S
C178 H143 0.931 . S
C178 C177 1.393 . S
C178 C179 1.382 . S
C179 H144 0.929 . S
C179 C174 1.371 . S
C179 C178 1.382 . S
C180 N148 1.423 . S
C180 C181 1.362 . S
C180 C185 1.388 . S
C181 H145 0.929 . S
C181 C180 1.362 . S
C181 C182 1.376 . S
C182 H146 0.931 . S
C182 C181 1.376 . S
C182 C183 1.396 . S
C183 C165 1.472 . S
C183 C182 1.396 . S
C183 C184 1.348 . S
C184 H147 0.929 . S
C184 C183 1.348 . S
C184 C185 1.443 . S
C185 H149 0.932 . S
C185 C180 1.388 . S
C185 C184 1.443 . S
H186 C213 0.929 . S
N187 C212 1.433 . S
N187 C218 1.435 . S
N187 C224 1.423 . S
H188 C214 0.930 . S
H189 C217 0.931 . S
H190 C216 0.929 . S
H191 C219 0.930 . S
H192 C220 0.932 . S
H193 C223 0.929 . S
H194 C222 0.931 . S
H195 C225 0.929 . S
H196 C229 0.932 . S
H197 C226 0.931 . S
H198 C228 0.929 . S
H199 C231 0.929 . S
H200 C232 0.930 . S
H201 C234 0.929 . S
H202 C235 0.931 . S
H203 C237 0.930 . S
H204 C238 0.932 . S
H205 C240 0.931 . S
H206 C241 0.929 . S
H207 C243 0.929 . S
H208 C244 0.931 . S
H209 C246 0.929 . S
N210 C230 1.433 . S
N210 C236 1.435 . S
N210 C242 1.423 . S
H211 C247 0.932 . S
C212 N187 1.433 . S
C212 C213 1.363 . S
C212 C217 1.370 . S
C213 H186 0.929 . S
C213 C212 1.363 . S
C213 C214 1.385 . S
C214 H188 0.930 . S
C214 C213 1.385 . S
C214 C215 1.357 . S
C215 C214 1.357 . S
C215 C216 1.406 . S
C216 H190 0.929 . S
C216 C215 1.406 . S
C216 C217 1.391 . S
C217 H189 0.931 . S
C217 C212 1.370 . S
C217 C216 1.391 . S
C218 N187 1.435 . S
C218 C219 1.358 . S
C218 C223 1.371 . S
C219 H191 0.930 . S
C219 C218 1.358 . S
C219 C220 1.405 . S
C220 H192 0.932 . S
C220 C219 1.405 . S
C220 C221 1.383 . S
C221 C220 1.383 . S
C221 C222 1.393 . S
C222 H194 0.931 . S
C222 C221 1.393 . S
C222 C223 1.382 . S
C223 H193 0.929 . S
C223 C218 1.371 . S
C223 C222 1.382 . S
C224 N187 1.423 . S
C224 C225 1.362 . S
C224 C229 1.388 . S
C225 H195 0.929 . S
C225 C224 1.362 . S
C225 C226 1.376 . S
C226 H197 0.931 . S
C226 C225 1.376 . S
C226 C227 1.396 . S
C227 C226 1.396 . S
C227 C228 1.348 . S
C227 C245 1.472 1_455 S
C228 H198 0.929 . S
C228 C227 1.348 . S
C228 C229 1.443 . S
C229 H196 0.932 . S
C229 C224 1.388 . S
C229 C228 1.443 . S
C230 N210 1.433 . S
C230 C231 1.363 . S
C230 C235 1.370 . S
C231 H199 0.929 . S
C231 C230 1.363 . S
C231 C232 1.385 . S
C232 H200 0.930 . S
C232 C231 1.385 . S
C232 C233 1.357 . S
C233 C232 1.357 . S
C233 C234 1.406 . S
C234 H201 0.929 . S
C234 C233 1.406 . S
C234 C235 1.391 . S
C235 H202 0.931 . S
C235 C230 1.370 . S
C235 C234 1.391 . S
C236 N210 1.435 . S
C236 C237 1.358 . S
C236 C241 1.371 . S
C237 H203 0.930 . S
C237 C236 1.358 . S
C237 C238 1.405 . S
C238 H204 0.932 . S
C238 C237 1.405 . S
C238 C239 1.383 . S
C239 C238 1.383 . S
C239 C240 1.393 . S
C240 H205 0.931 . S
C240 C239 1.393 . S
C240 C241 1.382 . S
C241 H206 0.929 . S
C241 C236 1.371 . S
C241 C240 1.382 . S
C242 N210 1.423 . S
C242 C243 1.362 . S
C242 C247 1.388 . S
C243 H207 0.929 . S
C243 C242 1.362 . S
C243 C244 1.376 . S
C244 H208 0.931 . S
C244 C243 1.376 . S
C244 C245 1.396 . S
C245 C227 1.472 1_655 S
C245 C244 1.396 . S
C245 C246 1.348 . S
C246 H209 0.929 . S
C246 C245 1.348 . S
C246 C247 1.443 . S
C247 H211 0.932 . S
C247 C242 1.388 . S
C247 C246 1.443 . S
H248 C275 0.929 . S
N249 C274 1.433 . S
N249 C280 1.435 . S
N249 C286 1.423 . S
H250 C276 0.930 . S
H251 C279 0.931 . S
H252 C278 0.929 . S
H253 C281 0.930 . S
H254 C282 0.932 . S
H255 C285 0.929 . S
H256 C284 0.931 . S
H257 C287 0.929 . S
H258 C291 0.932 . S
H259 C288 0.931 . S
H260 C290 0.929 . S
H261 C293 0.929 . S
H262 C294 0.930 . S
H263 C296 0.929 . S
H264 C297 0.931 . S
H265 C299 0.930 . S
H266 C300 0.932 . S
H267 C302 0.931 . S
H268 C303 0.929 . S
H269 C305 0.929 . S
H270 C306 0.931 . S
H271 C308 0.929 . S
N272 C292 1.433 . S
N272 C298 1.435 1_554 S
N272 C304 1.444 . S
H273 C309 0.932 . S
C274 N249 1.433 . S
C274 C275 1.363 . S
C274 C279 1.370 . S
C275 H248 0.929 . S
C275 C274 1.363 . S
C275 C276 1.385 . S
C276 H250 0.930 . S
C276 C275 1.385 . S
C276 C277 1.357 1_556 S
C277 C276 1.357 1_554 S
C277 C278 1.406 . S
C278 H252 0.929 . S
C278 C277 1.406 . S
C278 C279 1.391 1_554 S
C279 H251 0.931 . S
C279 C274 1.370 . S
C279 C278 1.391 1_556 S
C280 N249 1.435 . S
C280 C281 1.358 . S
C280 C285 1.371 . S
C281 H253 0.930 . S
C281 C280 1.358 . S
C281 C282 1.405 . S
C282 H254 0.932 . S
C282 C281 1.405 . S
C282 C283 1.383 . S
C283 C282 1.383 . S
C283 C284 1.393 . S
C284 H256 0.931 . S
C284 C283 1.393 . S
C284 C285 1.382 . S
C285 H255 0.929 . S
C285 C280 1.371 . S
C285 C284 1.382 . S
C286 N249 1.423 . S
C286 C287 1.362 . S
C286 C291 1.388 . S
C287 H257 0.929 . S
C287 C286 1.362 . S
C287 C288 1.376 . S
C288 H259 0.931 . S
C288 C287 1.376 . S
C288 C289 1.396 . S
C289 C288 1.396 . S
C289 C290 1.348 . S
C289 C307 1.472 1_545 S
C290 H260 0.929 . S
C290 C289 1.348 . S
C290 C291 1.443 . S
C291 H258 0.932 . S
C291 C286 1.388 . S
C291 C290 1.443 . S
C292 N272 1.433 . S
C292 C293 1.363 . S
C292 C297 1.370 . S
C293 H261 0.929 . S
C293 C292 1.363 . S
C293 C294 1.385 . S
C294 H262 0.930 . S
C294 C293 1.385 . S
C294 C295 1.357 . S
C295 C294 1.357 . S
C295 C296 1.406 . S
C296 H263 0.929 . S
C296 C295 1.406 . S
C296 C297 1.391 . S
C297 H264 0.931 . S
C297 C292 1.370 . S
C297 C296 1.391 . S
C298 N272 1.435 1_556 S
C298 C299 1.358 1_556 S
C298 C303 1.371 . S
C299 H265 0.930 . S
C299 C298 1.358 1_554 S
C299 C300 1.405 1_554 S
C300 H266 0.932 . S
C300 C299 1.405 1_556 S
C300 C301 1.383 . S
C301 C300 1.383 . S
C301 C302 1.393 . S
C302 H267 0.931 . S
C302 C301 1.393 . S
C302 C303 1.382 . S
C303 H268 0.929 . S
C303 C298 1.371 . S
C303 C302 1.382 . S
C304 N272 1.444 . S
C304 C305 1.383 . S
C304 C309 1.349 1_554 S
C305 H269 0.929 . S
C305 C304 1.383 . S
C305 C306 1.376 . S
C306 H270 0.931 . S
C306 C305 1.376 . S
C306 C307 1.396 1_554 S
C307 C289 1.472 1_565 S
C307 C306 1.396 1_556 S
C307 C308 1.348 . S
C308 H271 0.929 . S
C308 C307 1.348 . S
C308 C309 1.443 . S
C309 H273 0.932 . S
C309 C304 1.349 1_556 S
C309 C308 1.443 . S
H310 C337 0.929 . S
N311 C336 1.433 . S
N311 C342 1.435 . S
N311 C348 1.423 . S
H312 C338 0.930 . S
H313 C341 0.931 . S
H314 C340 0.929 . S
H315 C343 0.930 . S
H316 C344 0.932 . S
H317 C347 0.929 . S
H318 C346 0.931 . S
H319 C349 0.929 . S
H320 C353 0.932 . S
H321 C350 0.931 . S
H322 C352 0.929 . S
H323 C355 0.929 . S
H324 C356 0.930 . S
H325 C358 0.929 . S
H326 C359 0.931 . S
H327 C361 0.930 . S
H328 C362 0.932 . S
H329 C364 0.931 . S
H330 C365 0.929 . S
H331 C367 0.929 . S
H332 C368 0.931 . S
H333 C370 0.929 . S
N334 C354 1.433 . S
N334 C360 1.435 . S
N334 C366 1.423 . S
H335 C371 0.932 . S
C336 N311 1.433 . S
C336 C337 1.363 . S
C336 C341 1.370 . S
C337 H310 0.929 . S
C337 C336 1.363 . S
C337 C338 1.385 . S
C338 H312 0.930 . S
C338 C337 1.385 . S
C338 C339 1.357 . S
C339 C338 1.357 . S
C339 C340 1.406 . S
C340 H314 0.929 . S
C340 C339 1.406 . S
C340 C341 1.391 . S
C341 H313 0.931 . S
C341 C336 1.370 . S
C341 C340 1.391 . S
C342 N311 1.435 . S
C342 C343 1.358 . S
C342 C347 1.371 . S
C343 H315 0.930 . S
C343 C342 1.358 . S
C343 C344 1.405 . S
C344 H316 0.932 . S
C344 C343 1.405 . S
C344 C345 1.383 . S
C345 C344 1.383 . S
C345 C346 1.393 . S
C346 H318 0.931 . S
C346 C345 1.393 . S
C346 C347 1.382 . S
C347 H317 0.929 . S
C347 C342 1.371 . S
C347 C346 1.382 . S
C348 N311 1.423 . S
C348 C349 1.362 . S
C348 C353 1.388 . S
C349 H319 0.929 . S
C349 C348 1.362 . S
C349 C350 1.376 . S
C350 H321 0.931 . S
C350 C349 1.376 . S
C350 C351 1.396 . S
C351 C350 1.396 . S
C351 C352 1.348 . S
C351 C369 1.472 . S
C352 H322 0.929 . S
C352 C351 1.348 . S
C352 C353 1.443 . S
C353 H320 0.932 . S
C353 C348 1.388 . S
C353 C352 1.443 . S
C354 N334 1.433 . S
C354 C355 1.363 . S
C354 C359 1.370 . S
C355 H323 0.929 . S
C355 C354 1.363 . S
C355 C356 1.385 . S
C356 H324 0.930 . S
C356 C355 1.385 . S
C356 C357 1.357 . S
C357 C356 1.357 . S
C357 C358 1.406 . S
C358 H325 0.929 . S
C358 C357 1.406 . S
C358 C359 1.391 . S
C359 H326 0.931 . S
C359 C354 1.370 . S
C359 C358 1.391 . S
C360 N334 1.435 . S
C360 C361 1.358 . S
C360 C365 1.371 . S
C361 H327 0.930 . S
C361 C360 1.358 . S
C361 C362 1.405 . S
C362 H328 0.932 . S
C362 C361 1.405 . S
C362 C363 1.383 . S
C363 C362 1.383 . S
C363 C364 1.393 . S
C364 H329 0.931 . S
C364 C363 1.393 . S
C364 C365 1.382 . S
C365 H330 0.929 . S
C365 C360 1.371 . S
C365 C364 1.382 . S
C366 N334 1.423 . S
C366 C367 1.362 . S
C366 C371 1.388 . S
C367 H331 0.929 . S
C367 C366 1.362 . S
C367 C368 1.376 . S
C368 H332 0.931 . S
C368 C367 1.376 . S
C368 C369 1.396 . S
C369 C351 1.472 . S
C369 C368 1.396 . S
C369 C370 1.348 . S
C370 H333 0.929 . S
C370 C369 1.348 . S
C370 C371 1.443 . S
C371 H335 0.932 . S
C371 C366 1.388 . S
C371 C370 1.443 . S
In372 O373 2.294 . S
In372 O374 2.326 . S
In372 O378 2.266 . S
In372 O379 2.326 . S
In372 O380 2.266 . S
In372 O381 2.326 . S
In372 O383 2.294 . S
In372 O384 2.326 . S
O373 In372 2.294 . S
O373 C382 1.240 . S
O374 In372 2.326 . S
O374 C382 1.252 . S
C375 O378 1.252 . S
C375 O379 1.260 . S
C376 O383 1.240 . S
C376 O384 1.252 . S
C377 O380 1.252 . S
C377 O381 1.260 . S
O378 In372 2.266 . S
O378 C375 1.252 . S
O379 In372 2.326 . S
O379 C375 1.260 . S
O380 In372 2.266 . S
O380 C377 1.252 . S
O381 In372 2.326 . S
O381 C377 1.260 . S
C382 O373 1.240 . S
C382 O374 1.252 . S
O383 In372 2.294 . S
O383 C376 1.240 . S
O384 In372 2.326 . S
O384 C376 1.252 . S
In385 O386 2.294 . S
In385 O387 2.326 . S
In385 O391 2.266 . S
In385 O392 2.326 . S
In385 O393 2.266 . S
In385 O394 2.326 . S
In385 O396 2.294 . S
In385 O397 2.326 . S
O386 In385 2.294 . S
O386 C395 1.240 . S
O387 In385 2.326 . S
O387 C395 1.252 . S
C388 O391 1.252 . S
C388 O392 1.260 . S
C389 O396 1.240 . S
C389 O397 1.252 . S
C390 O393 1.252 . S
C390 O394 1.260 . S
O391 In385 2.266 . S
O391 C388 1.252 . S
O392 In385 2.326 . S
O392 C388 1.260 . S
O393 In385 2.266 . S
O393 C390 1.252 . S
O394 In385 2.326 . S
O394 C390 1.260 . S
C395 O386 1.240 . S
C395 O387 1.252 . S
O396 In385 2.294 . S
O396 C389 1.240 . S
O397 In385 2.326 . S
O397 C389 1.252 . S
In398 O399 2.294 . S
In398 O400 2.326 . S
In398 O404 2.266 . S
In398 O405 2.326 . S
In398 O406 2.266 . S
In398 O407 2.326 . S
In398 O409 2.294 . S
In398 O410 2.326 . S
O399 In398 2.294 . S
O399 C408 1.240 . S
O400 In398 2.326 . S
O400 C408 1.252 . S
C401 O404 1.252 . S
C401 O405 1.260 . S
C402 O409 1.240 . S
C402 O410 1.252 . S
C403 O406 1.252 . S
C403 O407 1.260 . S
O404 In398 2.266 . S
O404 C401 1.252 . S
O405 In398 2.326 . S
O405 C401 1.260 . S
O406 In398 2.266 . S
O406 C403 1.252 . S
O407 In398 2.326 . S
O407 C403 1.260 . S
C408 O399 1.240 . S
C408 O400 1.252 . S
O409 In398 2.294 . S
O409 C402 1.240 . S
O410 In398 2.326 . S
O410 C402 1.252 . S
In411 O412 2.294 . S
In411 O413 2.326 . S
In411 O417 2.266 . S
In411 O418 2.326 . S
In411 O419 2.266 . S
In411 O420 2.326 . S
In411 O422 2.294 . S
In411 O423 2.326 . S
O412 In411 2.294 . S
O412 C421 1.240 . S
O413 In411 2.326 . S
O413 C421 1.252 . S
C414 O417 1.252 . S
C414 O418 1.260 . S
C415 O422 1.240 . S
C415 O423 1.252 . S
C416 O419 1.252 . S
C416 O420 1.260 . S
O417 In411 2.266 . S
O417 C414 1.252 . S
O418 In411 2.326 . S
O418 C414 1.260 . S
O419 In411 2.266 . S
O419 C416 1.252 . S
O420 In411 2.326 . S
O420 C416 1.260 . S
C421 O412 1.240 . S
C421 O413 1.252 . S
O422 In411 2.294 . S
O422 C415 1.240 . S
O423 In411 2.326 . S
O423 C415 1.252 . S
In424 O425 2.294 . S
In424 O426 2.326 . S
In424 O430 2.266 . S
In424 O431 2.326 . S
In424 O432 2.266 . S
In424 O433 2.326 . S
In424 O435 2.294 . S
In424 O436 2.326 . S
O425 In424 2.294 . S
O425 C434 1.240 . S
O426 In424 2.326 . S
O426 C434 1.252 . S
C427 O430 1.252 . S
C427 O431 1.260 . S
C428 O435 1.240 . S
C428 O436 1.252 . S
C429 O432 1.252 . S
C429 O433 1.260 . S
O430 In424 2.266 . S
O430 C427 1.252 . S
O431 In424 2.326 . S
O431 C427 1.260 . S
O432 In424 2.266 . S
O432 C429 1.252 . S
O433 In424 2.326 . S
O433 C429 1.260 . S
C434 O425 1.240 . S
C434 O426 1.252 . S
O435 In424 2.294 . S
O435 C428 1.240 . S
O436 In424 2.326 . S
O436 C428 1.252 . S
In437 O438 2.294 . S
In437 O439 2.326 . S
In437 O443 2.266 . S
In437 O444 2.326 . S
In437 O445 2.266 . S
In437 O446 2.326 . S
In437 O448 2.294 . S
In437 O449 2.326 . S
O438 In437 2.294 . S
O438 C447 1.240 . S
O439 In437 2.326 . S
O439 C447 1.252 . S
C440 O443 1.252 . S
C440 O444 1.260 . S
C441 O448 1.240 . S
C441 O449 1.252 . S
C442 O445 1.252 . S
C442 O446 1.260 . S
O443 In437 2.266 . S
O443 C440 1.252 . S
O444 In437 2.326 . S
O444 C440 1.260 . S
O445 In437 2.266 . S
O445 C442 1.252 . S
O446 In437 2.326 . S
O446 C442 1.260 . S
C447 O438 1.240 . S
C447 O439 1.252 . S
O448 In437 2.294 . S
O448 C441 1.240 . S
O449 In437 2.326 . S
O449 C441 1.252 . S
C450 C451 1.391 . S
C450 C452 1.394 . S
C450 H466 0.931 . S
C451 C450 1.391 . S
C451 C455 1.376 . S
C452 C450 1.394 . S
C452 C453 1.369 . S
C452 C456 1.531 . S
C453 C452 1.369 . S
C453 C454 1.410 . S
C453 C461 1.503 . S
C454 C453 1.410 . S
C454 C455 1.392 . S
C454 C457 1.511 . S
C455 C451 1.376 . S
C455 C454 1.392 . S
C455 H467 0.929 . S
C456 C452 1.531 . S
C456 H468 0.960 . S
C456 H469 0.962 . S
C456 H470 0.960 . S
C457 C454 1.511 . S
C457 H471 0.961 . S
C457 H472 0.961 . S
C457 H473 0.961 . S
C458 C459 1.370 . S
C458 C460 1.363 . S
C458 H474 0.931 . S
C459 C458 1.370 . S
C459 C463 1.408 . S
C460 C458 1.363 . S
C460 C461 1.370 . S
C460 C464 1.524 . S
C461 C453 1.503 . S
C461 C460 1.370 . S
C461 C462 1.403 . S
C462 C461 1.403 . S
C462 C463 1.404 . S
C462 C465 1.539 . S
C463 C459 1.408 . S
C463 C462 1.404 . S
C463 H475 0.930 . S
C464 C460 1.524 . S
C464 H476 0.956 . S
C464 H477 0.961 . S
C464 H478 0.961 . S
C465 C462 1.539 . S
C465 H479 0.958 . S
C465 H480 0.961 . S
C465 H481 0.960 . S
H466 C450 0.931 . S
H467 C455 0.929 . S
H468 C456 0.960 . S
H469 C456 0.962 . S
H470 C456 0.960 . S
H471 C457 0.961 . S
H472 C457 0.961 . S
H473 C457 0.961 . S
H474 C458 0.931 . S
H475 C463 0.930 . S
H476 C464 0.956 . S
H477 C464 0.961 . S
H478 C464 0.961 . S
H479 C465 0.958 . S
H480 C465 0.961 . S
H481 C465 0.960 . S
C482 C483 1.391 . S
C482 C484 1.394 . S
C482 H498 0.931 . S
C483 C482 1.391 . S
C483 C487 1.376 . S
C484 C482 1.394 . S
C484 C485 1.369 . S
C484 C488 1.531 . S
C485 C484 1.369 . S
C485 C486 1.410 . S
C485 C493 1.503 . S
C486 C485 1.410 . S
C486 C487 1.392 . S
C486 C489 1.511 . S
C487 C483 1.376 . S
C487 C486 1.392 . S
C487 H499 0.929 . S
C488 C484 1.531 . S
C488 H500 0.960 . S
C488 H501 0.962 . S
C488 H502 0.960 . S
C489 C486 1.511 . S
C489 H503 0.961 . S
C489 H504 0.961 . S
C489 H505 0.961 . S
C490 C491 1.370 . S
C490 C492 1.363 . S
C490 H506 0.931 . S
C491 C490 1.370 . S
C491 C495 1.408 . S
C492 C490 1.363 . S
C492 C493 1.370 . S
C492 C496 1.524 . S
C493 C485 1.503 . S
C493 C492 1.370 . S
C493 C494 1.403 . S
C494 C493 1.403 . S
C494 C495 1.404 . S
C494 C497 1.539 . S
C495 C491 1.408 . S
C495 C494 1.404 . S
C495 H507 0.930 . S
C496 C492 1.524 . S
C496 H508 0.956 . S
C496 H509 0.961 . S
C496 H510 0.961 . S
C497 C494 1.539 . S
C497 H511 0.958 . S
C497 H512 0.961 . S
C497 H513 0.960 . S
H498 C482 0.931 . S
H499 C487 0.929 . S
H500 C488 0.960 . S
H501 C488 0.962 . S
H502 C488 0.960 . S
H503 C489 0.961 . S
H504 C489 0.961 . S
H505 C489 0.961 . S
H506 C490 0.931 . S
H507 C495 0.930 . S
H508 C496 0.956 . S
H509 C496 0.961 . S
H510 C496 0.961 . S
H511 C497 0.958 . S
H512 C497 0.961 . S
H513 C497 0.960 . S
C514 C515 1.391 . S
C514 C516 1.394 . S
C514 H530 0.931 . S
C515 C514 1.391 . S
C515 C519 1.376 . S
C516 C514 1.394 . S
C516 C517 1.369 . S
C516 C520 1.531 . S
C517 C516 1.369 . S
C517 C518 1.410 . S
C517 C525 1.503 . S
C518 C517 1.410 . S
C518 C519 1.392 . S
C518 C521 1.511 . S
C519 C515 1.376 . S
C519 C518 1.392 . S
C519 H531 0.929 . S
C520 C516 1.531 . S
C520 H532 0.960 . S
C520 H533 0.962 . S
C520 H534 0.960 . S
C521 C518 1.511 . S
C521 H535 0.961 . S
C521 H536 0.961 . S
C521 H537 0.961 . S
C522 C523 1.370 . S
C522 C524 1.363 . S
C522 H538 0.931 . S
C523 C522 1.370 . S
C523 C527 1.408 . S
C524 C522 1.363 . S
C524 C525 1.370 . S
C524 C528 1.524 . S
C525 C517 1.503 . S
C525 C524 1.370 . S
C525 C526 1.403 . S
C526 C525 1.403 . S
C526 C527 1.404 . S
C526 C529 1.539 . S
C527 C523 1.408 . S
C527 C526 1.404 . S
C527 H539 0.930 . S
C528 C524 1.524 . S
C528 H540 0.956 . S
C528 H541 0.961 . S
C528 H542 0.961 . S
C529 C526 1.539 . S
C529 H543 0.958 . S
C529 H544 0.961 . S
C529 H545 0.960 . S
H530 C514 0.931 . S
H531 C519 0.929 . S
H532 C520 0.960 . S
H533 C520 0.962 . S
H534 C520 0.960 . S
H535 C521 0.961 . S
H536 C521 0.961 . S
H537 C521 0.961 . S
H538 C522 0.931 . S
H539 C527 0.930 . S
H540 C528 0.956 . S
H541 C528 0.961 . S
H542 C528 0.961 . S
H543 C529 0.958 . S
H544 C529 0.961 . S
H545 C529 0.960 . S
C546 C547 1.391 . S
C546 C548 1.394 . S
C546 H562 0.931 . S
C547 C546 1.391 . S
C547 C551 1.376 . S
C548 C546 1.394 . S
C548 C549 1.369 . S
C548 C552 1.531 . S
C549 C548 1.369 . S
C549 C550 1.410 . S
C549 C557 1.503 . S
C550 C549 1.410 . S
C550 C551 1.392 . S
C550 C553 1.511 . S
C551 C547 1.376 . S
C551 C550 1.392 . S
C551 H563 0.929 . S
C552 C548 1.531 . S
C552 H564 0.960 . S
C552 H565 0.962 . S
C552 H566 0.960 . S
C553 C550 1.511 . S
C553 H567 0.961 . S
C553 H568 0.961 . S
C553 H569 0.961 . S
C554 C555 1.370 . S
C554 C556 1.363 . S
C554 H570 0.931 . S
C555 C554 1.370 . S
C555 C559 1.408 . S
C556 C554 1.363 . S
C556 C557 1.370 . S
C556 C560 1.524 . S
C557 C549 1.503 . S
C557 C556 1.370 . S
C557 C558 1.403 . S
C558 C557 1.403 . S
C558 C559 1.404 . S
C558 C561 1.539 . S
C559 C555 1.408 . S
C559 C558 1.404 . S
C559 H571 0.930 . S
C560 C556 1.524 . S
C560 H572 0.956 . S
C560 H573 0.961 . S
C560 H574 0.961 . S
C561 C558 1.539 . S
C561 H575 0.958 . S
C561 H576 0.961 . S
C561 H577 0.960 . S
H562 C546 0.931 . S
H563 C551 0.929 . S
H564 C552 0.960 . S
H565 C552 0.962 . S
H566 C552 0.960 . S
H567 C553 0.961 . S
H568 C553 0.961 . S
H569 C553 0.961 . S
H570 C554 0.931 . S
H571 C559 0.930 . S
H572 C560 0.956 . S
H573 C560 0.961 . S
H574 C560 0.961 . S
H575 C561 0.958 . S
H576 C561 0.961 . S
H577 C561 0.960 . S
C578 C579 1.391 . S
C578 C580 1.394 . S
C578 H594 0.931 . S
C579 C578 1.391 . S
C579 C583 1.376 . S
C580 C578 1.394 . S
C580 C581 1.369 . S
C580 C584 1.531 . S
C581 C580 1.369 . S
C581 C582 1.410 . S
C581 C589 1.503 . S
C582 C581 1.410 . S
C582 C583 1.392 . S
C582 C585 1.511 . S
C583 C579 1.376 . S
C583 C582 1.392 . S
C583 H595 0.929 . S
C584 C580 1.531 . S
C584 H596 0.960 . S
C584 H597 0.962 . S
C584 H598 0.960 1_556 S
C585 C582 1.511 . S
C585 H599 0.961 . S
C585 H600 0.961 . S
C585 H601 0.961 . S
C586 C587 1.370 . S
C586 C588 1.363 . S
C586 H602 0.931 . S
C587 C586 1.370 . S
C587 C591 1.408 . S
C588 C586 1.363 . S
C588 C589 1.370 . S
C588 C592 1.524 . S
C589 C581 1.503 . S
C589 C588 1.370 . S
C589 C590 1.403 . S
C590 C589 1.403 . S
C590 C591 1.404 . S
C590 C593 1.539 . S
C591 C587 1.408 . S
C591 C590 1.404 . S
C591 H603 0.930 . S
C592 C588 1.524 . S
C592 H604 0.956 . S
C592 H605 0.961 . S
C592 H606 0.961 . S
C593 C590 1.539 . S
C593 H607 0.958 . S
C593 H608 0.961 . S
C593 H609 0.960 . S
H594 C578 0.931 . S
H595 C583 0.929 . S
H596 C584 0.960 . S
H597 C584 0.962 . S
H598 C584 0.960 1_554 S
H599 C585 0.961 . S
H600 C585 0.961 . S
H601 C585 0.961 . S
H602 C586 0.931 . S
H603 C591 0.930 . S
H604 C592 0.956 . S
H605 C592 0.961 . S
H606 C592 0.961 . S
H607 C593 0.958 . S
H608 C593 0.961 . S
H609 C593 0.960 . S
C610 C611 1.391 . S
C610 C612 1.394 . S
C610 H626 0.931 . S
C611 C610 1.391 . S
C611 C615 1.376 . S
C612 C610 1.394 . S
C612 C613 1.369 . S
C612 C616 1.531 . S
C613 C612 1.369 . S
C613 C614 1.410 . S
C613 C621 1.503 . S
C614 C613 1.410 . S
C614 C615 1.392 . S
C614 C617 1.511 . S
C615 C611 1.376 . S
C615 C614 1.392 . S
C615 H627 0.929 . S
C616 C612 1.531 . S
C616 H628 0.960 . S
C616 H629 0.962 . S
C616 H630 0.960 . S
C617 C614 1.511 . S
C617 H631 0.961 . S
C617 H632 0.961 . S
C617 H633 0.961 . S
C618 C619 1.370 . S
C618 C620 1.363 . S
C618 H634 0.931 . S
C619 C618 1.370 . S
C619 C623 1.408 . S
C620 C618 1.363 . S
C620 C621 1.370 . S
C620 C624 1.524 . S
C621 C613 1.503 . S
C621 C620 1.370 . S
C621 C622 1.403 . S
C622 C621 1.403 . S
C622 C623 1.404 . S
C622 C625 1.539 . S
C623 C619 1.408 . S
C623 C622 1.404 . S
C623 H635 0.930 . S
C624 C620 1.524 . S
C624 H636 0.956 . S
C624 H637 0.961 . S
C624 H638 0.961 . S
C625 C622 1.539 . S
C625 H639 0.958 . S
C625 H640 0.961 . S
C625 H641 0.960 . S
H626 C610 0.931 . S
H627 C615 0.929 . S
H628 C616 0.960 . S
H629 C616 0.962 . S
H630 C616 0.960 . S
H631 C617 0.961 . S
H632 C617 0.961 . S
H633 C617 0.961 . S
H634 C618 0.931 . S
H635 C623 0.930 . S
H636 C624 0.956 . S
H637 C624 0.961 . S
H638 C624 0.961 . S
H639 C625 0.958 . S
H640 C625 0.961 . S
H641 C625 0.960 . S
C642 C643 1.391 . S
C642 C644 1.394 . S
C642 H658 0.931 . S
C643 C642 1.391 . S
C643 C647 1.376 . S
C644 C642 1.394 . S
C644 C645 1.369 . S
C644 C648 1.531 . S
C645 C644 1.369 . S
C645 C646 1.410 . S
C645 C653 1.503 . S
C646 C645 1.410 . S
C646 C647 1.392 . S
C646 C649 1.511 . S
C647 C643 1.376 . S
C647 C646 1.392 . S
C647 H659 0.929 . S
C648 C644 1.531 . S
C648 H660 0.960 . S
C648 H661 0.962 . S
C648 H662 0.960 . S
C649 C646 1.511 . S
C649 H663 0.961 . S
C649 H664 0.961 . S
C649 H665 0.961 . S
C650 C651 1.370 . S
C650 C652 1.363 . S
C650 H666 0.931 . S
C651 C650 1.370 . S
C651 C655 1.408 . S
C652 C650 1.363 . S
C652 C653 1.370 . S
C652 C656 1.524 . S
C653 C645 1.503 . S
C653 C652 1.370 . S
C653 C654 1.403 . S
C654 C653 1.403 . S
C654 C655 1.404 . S
C654 C657 1.539 . S
C655 C651 1.408 . S
C655 C654 1.404 . S
C655 H667 0.930 . S
C656 C652 1.524 . S
C656 H668 0.956 . S
C656 H669 0.961 . S
C656 H670 0.961 . S
C657 C654 1.539 . S
C657 H671 0.958 . S
C657 H672 0.961 . S
C657 H673 0.960 . S
H658 C642 0.931 . S
H659 C647 0.929 . S
H660 C648 0.960 . S
H661 C648 0.962 . S
H662 C648 0.960 . S
H663 C649 0.961 . S
H664 C649 0.961 . S
H665 C649 0.961 . S
H666 C650 0.931 . S
H667 C655 0.930 . S
H668 C656 0.956 . S
H669 C656 0.961 . S
H670 C656 0.961 . S
H671 C657 0.958 . S
H672 C657 0.961 . S
H673 C657 0.960 . S
C674 C675 1.391 . S
C674 C676 1.394 . S
C674 H690 0.931 . S
C675 C674 1.391 . S
C675 C679 1.376 . S
C676 C674 1.394 . S
C676 C677 1.369 . S
C676 C680 1.531 . S
C677 C676 1.369 . S
C677 C678 1.410 . S
C677 C685 1.503 . S
C678 C677 1.410 . S
C678 C679 1.392 . S
C678 C681 1.511 . S
C679 C675 1.376 . S
C679 C678 1.392 . S
C679 H691 0.929 . S
C680 C676 1.531 . S
C680 H692 0.960 . S
C680 H693 0.962 . S
C680 H694 0.960 . S
C681 C678 1.511 . S
C681 H695 0.961 . S
C681 H696 0.961 . S
C681 H697 0.961 . S
C682 C683 1.370 . S
C682 C684 1.363 . S
C682 H698 0.931 . S
C683 C682 1.370 . S
C683 C687 1.408 . S
C684 C682 1.363 . S
C684 C685 1.370 . S
C684 C688 1.524 . S
C685 C677 1.503 . S
C685 C684 1.370 . S
C685 C686 1.403 . S
C686 C685 1.403 . S
C686 C687 1.404 . S
C686 C689 1.539 . S
C687 C683 1.408 . S
C687 C686 1.404 . S
C687 H699 0.930 . S
C688 C684 1.524 . S
C688 H700 0.956 . S
C688 H701 0.961 . S
C688 H702 0.961 . S
C689 C686 1.539 . S
C689 H703 0.958 . S
C689 H704 0.961 . S
C689 H705 0.960 . S
H690 C674 0.931 . S
H691 C679 0.929 . S
H692 C680 0.960 . S
H693 C680 0.962 . S
H694 C680 0.960 . S
H695 C681 0.961 . S
H696 C681 0.961 . S
H697 C681 0.961 . S
H698 C682 0.931 . S
H699 C687 0.930 . S
H700 C688 0.956 . S
H701 C688 0.961 . S
H702 C688 0.961 . S
H703 C689 0.958 . S
H704 C689 0.961 . S
H705 C689 0.960 . S
C706 C707 1.391 . S
C706 C708 1.394 . S
C706 H722 0.931 . S
C707 C706 1.391 . S
C707 C711 1.376 . S
C708 C706 1.394 . S
C708 C709 1.369 . S
C708 C712 1.531 . S
C709 C708 1.369 . S
C709 C710 1.410 . S
C709 C717 1.503 . S
C710 C709 1.410 . S
C710 C711 1.392 . S
C710 C713 1.511 . S
C711 C707 1.376 . S
C711 C710 1.392 . S
C711 H723 0.929 . S
C712 C708 1.531 . S
C712 H724 0.960 . S
C712 H725 0.962 . S
C712 H726 0.960 . S
C713 C710 1.511 . S
C713 H727 0.961 . S
C713 H728 0.961 . S
C713 H729 0.961 . S
C714 C715 1.370 . S
C714 C716 1.363 . S
C714 H730 0.931 . S
C715 C714 1.370 . S
C715 C719 1.408 . S
C716 C714 1.363 . S
C716 C717 1.370 . S
C716 C720 1.524 . S
C717 C709 1.503 . S
C717 C716 1.370 . S
C717 C718 1.403 . S
C718 C717 1.403 . S
C718 C719 1.404 . S
C718 C721 1.539 . S
C719 C715 1.408 . S
C719 C718 1.404 . S
C719 H731 0.930 . S
C720 C716 1.524 . S
C720 H732 0.956 . S
C720 H733 0.961 . S
C720 H734 0.961 . S
C721 C718 1.539 . S
C721 H735 0.958 . S
C721 H736 0.961 . S
C721 H737 0.960 . S
H722 C706 0.931 . S
H723 C711 0.929 . S
H724 C712 0.960 . S
H725 C712 0.962 . S
H726 C712 0.960 . S
H727 C713 0.961 . S
H728 C713 0.961 . S
H729 C713 0.961 . S
H730 C714 0.931 . S
H731 C719 0.930 . S
H732 C720 0.956 . S
H733 C720 0.961 . S
H734 C720 0.961 . S
H735 C721 0.958 . S
H736 C721 0.961 . S
H737 C721 0.960 . S
C738 C739 1.391 . S
C738 C740 1.394 . S
C738 H754 0.931 . S
C739 C738 1.391 . S
C739 C743 1.376 . S
C740 C738 1.394 . S
C740 C741 1.369 . S
C740 C744 1.531 . S
C741 C740 1.369 . S
C741 C742 1.410 . S
C741 C749 1.503 . S
C742 C741 1.410 . S
C742 C743 1.392 . S
C742 C745 1.511 . S
C743 C739 1.376 . S
C743 C742 1.392 . S
C743 H755 0.960 . S
C744 C740 1.531 . S
C744 H756 0.960 . S
C744 H757 0.962 . S
C744 H758 0.960 . S
C745 C742 1.511 . S
C745 H759 0.961 1_554 S
C745 H760 0.961 . S
C745 H761 0.961 . S
C746 C747 1.370 . S
C746 C748 1.363 . S
C746 H762 0.931 . S
C747 C746 1.370 . S
C747 C751 1.408 . S
C748 C746 1.363 . S
C748 C749 1.370 . S
C748 C752 1.524 . S
C749 C741 1.503 . S
C749 C748 1.370 . S
C749 C750 1.403 . S
C750 C749 1.403 . S
C750 C751 1.404 . S
C750 C753 1.539 . S
C751 C747 1.408 . S
C751 C750 1.404 . S
C751 H763 0.930 . S
C752 C748 1.524 . S
C752 H764 0.956 . S
C752 H765 0.961 . S
C752 H766 0.961 . S
C753 C750 1.539 . S
C753 H767 0.958 . S
C753 H768 0.961 . S
C753 H769 0.960 . S
H754 C738 0.931 . S
H755 C743 0.960 . S
H756 C744 0.960 . S
H757 C744 0.962 . S
H758 C744 0.960 . S
H759 C745 0.961 1_556 S
H760 C745 0.961 . S
H761 C745 0.961 . S
H762 C746 0.931 . S
H763 C751 0.930 . S
H764 C752 0.956 . S
H765 C752 0.961 . S
H766 C752 0.961 . S
H767 C753 0.958 . S
H768 C753 0.961 . S
H769 C753 0.960 . S
C770 C771 1.391 . S
C770 C772 1.394 . S
C770 H786 0.931 . S
C771 C770 1.391 . S
C771 C775 1.376 . S
C772 C770 1.394 . S
C772 C773 1.369 . S
C772 C776 1.531 . S
C773 C772 1.369 . S
C773 C774 1.410 . S
C773 C781 1.503 . S
C774 C773 1.410 . S
C774 C775 1.392 . S
C774 C777 1.511 . S
C775 C771 1.376 . S
C775 C774 1.392 . S
C775 H787 0.929 . S
C776 C772 1.531 . S
C776 H788 0.960 . S
C776 H789 0.962 . S
C776 H790 0.960 . S
C777 C774 1.511 . S
C777 H791 0.961 . S
C777 H792 0.961 . S
C777 H793 0.961 . S
C778 C779 1.370 . S
C778 C780 1.363 . S
C778 H794 0.931 . S
C779 C778 1.370 . S
C779 C783 1.408 . S
C780 C778 1.363 . S
C780 C781 1.370 . S
C780 C784 1.524 . S
C781 C773 1.503 . S
C781 C780 1.370 . S
C781 C782 1.403 . S
C782 C781 1.403 . S
C782 C783 1.404 . S
C782 C785 1.539 . S
C783 C779 1.408 . S
C783 C782 1.404 . S
C783 H795 0.930 . S
C784 C780 1.524 . S
C784 H796 0.956 . S
C784 H797 0.961 . S
C784 H798 0.961 . S
C785 C782 1.539 . S
C785 H799 0.958 . S
C785 H800 0.961 . S
C785 H801 0.960 . S
H786 C770 0.931 . S
H787 C775 0.929 . S
H788 C776 0.960 . S
H789 C776 0.962 . S
H790 C776 0.960 . S
H791 C777 0.961 . S
H792 C777 0.961 . S
H793 C777 0.961 . S
H794 C778 0.931 . S
H795 C783 0.930 . S
H796 C784 0.956 . S
H797 C784 0.961 . S
H798 C784 0.961 . S
H799 C785 0.958 . S
H800 C785 0.961 . S
H801 C785 0.960 . S
C802 C803 1.391 . S
C802 C804 1.394 . S
C802 H818 0.931 . S
C803 C802 1.391 . S
C803 C807 1.376 . S
C804 C802 1.394 . S
C804 C805 1.369 . S
C804 C808 1.531 . S
C805 C804 1.369 . S
C805 C806 1.410 . S
C805 C813 1.503 . S
C806 C805 1.410 . S
C806 C807 1.392 . S
C806 C809 1.511 . S
C807 C803 1.376 . S
C807 C806 1.392 . S
C807 H819 0.929 . S
C808 C804 1.531 . S
C808 H820 0.960 . S
C808 H821 0.962 . S
C808 H822 0.960 . S
C809 C806 1.511 . S
C809 H823 0.961 . S
C809 H824 0.961 . S
C809 H825 0.961 . S
C810 C811 1.370 . S
C810 C812 1.363 . S
C810 H826 0.931 . S
C811 C810 1.370 . S
C811 C815 1.408 . S
C812 C810 1.363 . S
C812 C813 1.370 . S
C812 C816 1.524 . S
C813 C805 1.503 . S
C813 C812 1.370 . S
C813 C814 1.403 . S
C814 C813 1.403 . S
C814 C815 1.404 . S
C814 C817 1.539 . S
C815 C811 1.408 . S
C815 C814 1.404 . S
C815 H827 0.930 . S
C816 C812 1.524 . S
C816 H828 0.956 . S
C816 H829 0.961 . S
C816 H830 0.961 . S
C817 C814 1.539 . S
C817 H831 0.958 . S
C817 H832 0.961 . S
C817 H833 0.960 . S
H818 C802 0.931 . S
H819 C807 0.929 . S
H820 C808 0.960 . S
H821 C808 0.962 . S
H822 C808 0.960 . S
H823 C809 0.961 . S
H824 C809 0.961 . S
H825 C809 0.961 . S
H826 C810 0.931 . S
H827 C815 0.930 . S
H828 C816 0.956 . S
H829 C816 0.961 . S
H830 C816 0.961 . S
H831 C817 0.958 . S
H832 C817 0.961 . S
H833 C817 0.960 . S
C834 C835 1.391 . S
C834 C836 1.394 . S
C834 H850 0.931 . S
C835 C834 1.391 . S
C835 C839 1.376 . S
C836 C834 1.394 . S
C836 C837 1.369 . S
C836 C840 1.531 . S
C837 C836 1.369 . S
C837 C838 1.410 . S
C837 C845 1.503 . S
C838 C837 1.410 . S
C838 C839 1.392 . S
C838 C841 1.511 . S
C839 C835 1.376 . S
C839 C838 1.392 . S
C839 H851 0.929 . S
C840 C836 1.531 . S
C840 H852 0.960 . S
C840 H853 0.962 . S
C840 H854 0.960 . S
C841 C838 1.511 . S
C841 H855 0.961 . S
C841 H856 0.961 . S
C841 H857 0.961 . S
C842 C843 1.370 . S
C842 C844 1.363 . S
C842 H858 0.931 . S
C843 C842 1.370 . S
C843 C847 1.408 . S
C844 C842 1.363 . S
C844 C845 1.370 . S
C844 C848 1.524 . S
C845 C837 1.503 . S
C845 C844 1.370 . S
C845 C846 1.403 . S
C846 C845 1.403 . S
C846 C847 1.404 . S
C846 C849 1.539 . S
C847 C843 1.408 . S
C847 C846 1.404 . S
C847 H859 0.930 . S
C848 C844 1.524 . S
C848 H860 0.956 . S
C848 H861 0.961 . S
C848 H862 0.961 . S
C849 C846 1.539 . S
C849 H863 0.958 . S
C849 H864 0.961 . S
C849 H865 0.960 . S
H850 C834 0.931 . S
H851 C839 0.929 . S
H852 C840 0.960 . S
H853 C840 0.962 . S
H854 C840 0.960 . S
H855 C841 0.961 . S
H856 C841 0.961 . S
H857 C841 0.961 . S
H858 C842 0.931 . S
H859 C847 0.930 . S
H860 C848 0.956 . S
H861 C848 0.961 . S
H862 C848 0.961 . S
H863 C849 0.958 . S
H864 C849 0.961 . S
H865 C849 0.960 . S
C866 C867 1.391 . S
C866 C868 1.394 . S
C866 H882 0.931 . S
C867 C866 1.391 . S
C867 C871 1.376 . S
C868 C866 1.394 . S
C868 C869 1.369 . S
C868 C872 1.531 . S
C869 C868 1.369 . S
C869 C870 1.410 . S
C869 C877 1.503 . S
C870 C869 1.410 . S
C870 C871 1.392 . S
C870 C873 1.511 . S
C871 C867 1.376 . S
C871 C870 1.392 . S
C871 H883 0.929 . S
C872 C868 1.531 . S
C872 H884 0.960 . S
C872 H885 0.962 . S
C872 H886 0.960 . S
C873 C870 1.511 . S
C873 H887 0.961 . S
C873 H888 0.961 . S
C873 H889 0.961 . S
C874 C875 1.370 . S
C874 C876 1.363 . S
C874 H890 0.931 . S
C875 C874 1.370 . S
C875 C879 1.408 . S
C876 C874 1.363 . S
C876 C877 1.370 . S
C876 C880 1.524 . S
C877 C869 1.503 . S
C877 C876 1.370 . S
C877 C878 1.403 . S
C878 C877 1.403 . S
C878 C879 1.404 . S
C878 C881 1.539 . S
C879 C875 1.408 . S
C879 C878 1.404 . S
C879 H891 0.930 . S
C880 C876 1.524 . S
C880 H892 0.956 . S
C880 H893 0.961 . S
C880 H894 0.961 . S
C881 C878 1.539 . S
C881 H895 0.958 . S
C881 H896 0.961 . S
C881 H897 0.960 . S
H882 C866 0.931 . S
H883 C871 0.929 . S
H884 C872 0.960 . S
H885 C872 0.962 . S
H886 C872 0.960 . S
H887 C873 0.961 . S
H888 C873 0.961 . S
H889 C873 0.961 . S
H890 C874 0.931 . S
H891 C879 0.930 . S
H892 C880 0.956 . S
H893 C880 0.961 . S
H894 C880 0.961 . S
H895 C881 0.958 . S
H896 C881 0.961 . S
H897 C881 0.960 . S
C898 C899 1.391 . S
C898 C900 1.394 . S
C898 H914 0.931 . S
C899 C898 1.391 . S
C899 C903 1.376 . S
C900 C898 1.394 . S
C900 C901 1.369 . S
C900 C904 1.531 . S
C901 C900 1.369 . S
C901 C902 1.410 . S
C901 C909 1.503 . S
C902 C901 1.410 . S
C902 C903 1.392 . S
C902 C905 1.511 . S
C903 C899 1.376 . S
C903 C902 1.392 . S
C903 H915 0.929 . S
C904 C900 1.531 . S
C904 H916 0.960 . S
C904 H917 0.962 . S
C904 H918 0.960 . S
C905 C902 1.511 . S
C905 H919 0.961 . S
C905 H920 0.961 . S
C905 H921 0.961 . S
C906 C907 1.370 . S
C906 C908 1.363 . S
C906 H922 0.931 . S
C907 C906 1.370 . S
C907 C911 1.408 . S
C908 C906 1.363 . S
C908 C909 1.370 . S
C908 C912 1.524 . S
C909 C901 1.503 . S
C909 C908 1.370 . S
C909 C910 1.403 . S
C910 C909 1.403 . S
C910 C911 1.404 . S
C910 C913 1.539 . S
C911 C907 1.408 . S
C911 C910 1.404 . S
C911 H923 0.930 . S
C912 C908 1.524 . S
C912 H924 0.956 . S
C912 H925 0.961 . S
C912 H926 0.961 . S
C913 C910 1.539 . S
C913 H927 0.958 . S
C913 H928 0.961 . S
C913 H929 0.960 . S
H914 C898 0.931 . S
H915 C903 0.929 . S
H916 C904 0.960 . S
H917 C904 0.962 . S
H918 C904 0.960 . S
H919 C905 0.961 . S
H920 C905 0.961 . S
H921 C905 0.961 . S
H922 C906 0.931 . S
H923 C911 0.930 . S
H924 C912 0.956 . S
H925 C912 0.961 . S
H926 C912 0.961 . S
H927 C913 0.958 . S
H928 C913 0.961 . S
H929 C913 0.960 . S
C930 C931 1.391 . S
C930 C932 1.394 . S
C930 H946 0.931 . S
C931 C930 1.391 . S
C931 C935 1.376 . S
C932 C930 1.394 . S
C932 C933 1.369 . S
C932 C936 1.531 . S
C933 C932 1.369 . S
C933 C934 1.410 . S
C933 C941 1.503 . S
C934 C933 1.410 . S
C934 C935 1.392 . S
C934 C937 1.511 . S
C935 C931 1.376 . S
C935 C934 1.392 . S
C935 H947 0.929 . S
C936 C932 1.531 . S
C936 H948 0.938 1_556 S
C936 H949 0.962 . S
C936 H950 0.960 . S
C937 C934 1.511 . S
C937 H951 0.961 . S
C937 H952 0.961 . S
C937 H953 0.961 . S
C938 C939 1.370 1_556 S
C938 C940 1.363 . S
C938 H954 0.931 . S
C939 C938 1.370 1_554 S
C939 C943 1.408 . S
C940 C938 1.363 . S
C940 C941 1.370 . S
C940 C944 1.524 . S
C941 C933 1.503 . S
C941 C940 1.370 . S
C941 C942 1.419 . S
C942 C941 1.419 . S
C942 C943 1.387 1_556 S
C942 C945 1.539 . S
C943 C939 1.408 . S
C943 C942 1.387 1_554 S
C943 H955 0.930 . S
C944 C940 1.524 . S
C944 H956 0.956 . S
C944 H957 0.961 . S
C944 H958 0.961 . S
C945 C942 1.539 . S
C945 H959 0.951 1_556 S
C945 H960 0.956 1_556 S
C945 H961 0.972 . S
H946 C930 0.931 . S
H947 C935 0.929 . S
H948 C936 0.938 1_554 S
H949 C936 0.962 . S
H950 C936 0.960 . S
H951 C937 0.961 . S
H952 C937 0.961 . S
H953 C937 0.961 . S
H954 C938 0.931 . S
H955 C943 0.930 . S
H956 C944 0.956 . S
H957 C944 0.961 . S
H958 C944 0.961 . S
H959 C945 0.951 1_554 S
H960 C945 0.956 1_554 S
H961 C945 0.972 . S
C962 C963 1.391 . S
C962 C964 1.394 . S
C962 H978 0.931 . S
C963 C962 1.391 . S
C963 C967 1.376 . S
C964 C962 1.394 . S
C964 C965 1.369 . S
C964 C968 1.531 . S
C965 C964 1.369 . S
C965 C966 1.410 . S
C965 C973 1.503 . S
C966 C965 1.410 . S
C966 C967 1.392 . S
C966 C969 1.511 . S
C967 C963 1.376 . S
C967 C966 1.392 . S
C967 H979 0.929 . S
C968 C964 1.531 . S
C968 H980 0.960 . S
C968 H981 0.962 . S
C968 H982 0.960 . S
C969 C966 1.511 . S
C969 H983 0.961 . S
C969 H984 0.961 . S
C969 H985 0.961 . S
C970 C971 1.370 . S
C970 C972 1.363 . S
C970 H986 0.931 . S
C971 C970 1.370 . S
C971 C975 1.408 . S
C972 C970 1.363 . S
C972 C973 1.370 . S
C972 C976 1.524 . S
C973 C965 1.503 . S
C973 C972 1.370 . S
C973 C974 1.403 . S
C974 C973 1.403 . S
C974 C975 1.404 . S
C974 C977 1.539 . S
C975 C971 1.408 . S
C975 C974 1.404 . S
C975 H987 0.930 . S
C976 C972 1.524 . S
C976 H988 0.956 . S
C976 H989 0.961 . S
C976 H990 0.961 . S
C977 C974 1.539 . S
C977 H991 0.958 . S
C977 H992 0.961 . S
C977 H993 0.960 . S
H978 C962 0.931 . S
H979 C967 0.929 . S
H980 C968 0.960 . S
H981 C968 0.962 . S
H982 C968 0.960 . S
H983 C969 0.961 . S
H984 C969 0.961 . S
H985 C969 0.961 . S
H986 C970 0.931 . S
H987 C975 0.930 . S
H988 C976 0.956 . S
H989 C976 0.961 . S
H990 C976 0.961 . S
H991 C977 0.958 . S
H992 C977 0.961 . S
H993 C977 0.960 . S
C994 C995 1.391 . S
C994 C996 1.394 . S
C994 H1010 0.931 . S
C995 C994 1.391 . S
C995 C999 1.376 . S
C996 C994 1.394 . S
C996 C997 1.369 . S
C996 C1000 1.531 . S
C997 C996 1.369 . S
C997 C998 1.410 . S
C997 C1005 1.503 . S
C998 C997 1.410 . S
C998 C999 1.392 . S
C998 C1001 1.511 . S
C999 C995 1.376 . S
C999 C998 1.392 . S
C999 H1011 0.929 . S
C1000 C996 1.531 . S
C1000 H1012 0.960 . S
C1000 H1013 0.962 . S
C1000 H1014 0.960 . S
C1001 C998 1.511 . S
C1001 H1015 0.961 . S
C1001 H1016 0.961 . S
C1001 H1017 0.961 . S
C1002 C1003 1.370 . S
C1002 C1004 1.363 . S
C1002 H1018 0.931 . S
C1003 C1002 1.370 . S
C1003 C1007 1.408 . S
C1004 C1002 1.363 . S
C1004 C1005 1.370 . S
C1004 C1008 1.524 . S
C1005 C997 1.503 . S
C1005 C1004 1.370 . S
C1005 C1006 1.403 . S
C1006 C1005 1.403 . S
C1006 C1007 1.404 . S
C1006 C1009 1.539 . S
C1007 C1003 1.408 . S
C1007 C1006 1.404 . S
C1007 H1019 0.930 . S
C1008 C1004 1.524 . S
C1008 H1020 0.956 . S
C1008 H1021 0.961 . S
C1008 H1022 0.961 . S
C1009 C1006 1.539 . S
C1009 H1023 0.958 . S
C1009 H1024 0.961 . S
C1009 H1025 0.960 . S
H1010 C994 0.931 . S
H1011 C999 0.929 . S
H1012 C1000 0.960 . S
H1013 C1000 0.962 . S
H1014 C1000 0.960 . S
H1015 C1001 0.961 . S
H1016 C1001 0.961 . S
H1017 C1001 0.961 . S
H1018 C1002 0.931 . S
H1019 C1007 0.930 . S
H1020 C1008 0.956 . S
H1021 C1008 0.961 . S
H1022 C1008 0.961 . S
H1023 C1009 0.958 . S
H1024 C1009 0.961 . S
H1025 C1009 0.960 . S
C1026 C1027 1.391 . S
C1026 C1028 1.394 . S
C1026 H1042 0.931 . S
C1027 C1026 1.391 . S
C1027 C1031 1.376 . S
C1028 C1026 1.394 . S
C1028 C1029 1.369 . S
C1028 C1032 1.531 . S
C1029 C1028 1.369 . S
C1029 C1030 1.410 . S
C1029 C1037 1.503 . S
C1030 C1029 1.410 . S
C1030 C1031 1.392 . S
C1030 C1033 1.511 . S
C1031 C1027 1.376 . S
C1031 C1030 1.392 . S
C1031 H1043 0.929 . S
C1032 C1028 1.531 . S
C1032 H1044 0.960 . S
C1032 H1045 0.962 . S
C1032 H1046 0.960 . S
C1033 C1030 1.511 . S
C1033 H1047 0.961 . S
C1033 H1048 0.961 . S
C1033 H1049 0.961 . S
C1034 C1035 1.370 . S
C1034 C1036 1.363 . S
C1034 H1050 0.931 . S
C1035 C1034 1.370 . S
C1035 C1039 1.408 . S
C1036 C1034 1.363 . S
C1036 C1037 1.370 . S
C1036 C1040 1.524 . S
C1037 C1029 1.503 . S
C1037 C1036 1.370 . S
C1037 C1038 1.403 . S
C1038 C1037 1.403 . S
C1038 C1039 1.404 . S
C1038 C1041 1.539 . S
C1039 C1035 1.408 . S
C1039 C1038 1.404 . S
C1039 H1051 0.930 . S
C1040 C1036 1.524 . S
C1040 H1052 0.956 . S
C1040 H1053 0.961 . S
C1040 H1054 0.961 . S
C1041 C1038 1.539 . S
C1041 H1055 0.958 . S
C1041 H1056 0.961 . S
C1041 H1057 0.960 . S
H1042 C1026 0.931 . S
H1043 C1031 0.929 . S
H1044 C1032 0.960 . S
H1045 C1032 0.962 . S
H1046 C1032 0.960 . S
H1047 C1033 0.961 . S
H1048 C1033 0.961 . S
H1049 C1033 0.961 . S
H1050 C1034 0.931 . S
H1051 C1039 0.930 . S
H1052 C1040 0.956 . S
H1053 C1040 0.961 . S
H1054 C1040 0.961 . S
H1055 C1041 0.958 . S
H1056 C1041 0.961 . S
H1057 C1041 0.960 . S
C1058 C1059 1.391 . S
C1058 C1060 1.394 . S
C1058 H1074 0.931 . S
C1059 C1058 1.391 . S
C1059 C1063 1.376 . S
C1060 C1058 1.394 . S
C1060 C1061 1.369 . S
C1060 C1064 1.531 . S
C1061 C1060 1.369 . S
C1061 C1062 1.410 . S
C1061 C1069 1.503 . S
C1062 C1061 1.410 . S
C1062 C1063 1.392 . S
C1062 C1065 1.511 . S
C1063 C1059 1.376 . S
C1063 C1062 1.392 . S
C1063 H1075 0.929 . S
C1064 C1060 1.531 . S
C1064 H1076 0.960 . S
C1064 H1077 0.962 . S
C1064 H1078 0.960 . S
C1065 C1062 1.511 . S
C1065 H1079 0.961 . S
C1065 H1080 0.961 . S
C1065 H1081 0.961 . S
C1066 C1067 1.370 . S
C1066 C1068 1.363 . S
C1066 H1082 0.931 . S
C1067 C1066 1.370 . S
C1067 C1071 1.408 . S
C1068 C1066 1.363 . S
C1068 C1069 1.370 . S
C1068 C1072 1.524 . S
C1069 C1061 1.503 . S
C1069 C1068 1.370 . S
C1069 C1070 1.403 . S
C1070 C1069 1.403 . S
C1070 C1071 1.404 . S
C1070 C1073 1.539 . S
C1071 C1067 1.408 . S
C1071 C1070 1.404 . S
C1071 H1083 0.930 . S
C1072 C1068 1.524 . S
C1072 H1084 0.956 . S
C1072 H1085 0.961 . S
C1072 H1086 0.961 . S
C1073 C1070 1.539 . S
C1073 H1087 0.958 . S
C1073 H1088 0.961 . S
C1073 H1089 0.960 . S
H1074 C1058 0.931 . S
H1075 C1063 0.929 . S
H1076 C1064 0.960 . S
H1077 C1064 0.962 . S
H1078 C1064 0.960 . S
H1079 C1065 0.961 . S
H1080 C1065 0.961 . S
H1081 C1065 0.961 . S
H1082 C1066 0.931 . S
H1083 C1071 0.930 . S
H1084 C1072 0.956 . S
H1085 C1072 0.961 . S
H1086 C1072 0.961 . S
H1087 C1073 0.958 . S
H1088 C1073 0.961 . S
H1089 C1073 0.960 . S
C1090 C1091 1.391 . S
C1090 C1092 1.394 . S
C1090 H1106 0.931 . S
C1091 C1090 1.391 . S
C1091 C1095 1.376 . S
C1092 C1090 1.394 . S
C1092 C1093 1.369 . S
C1092 C1096 1.531 . S
C1093 C1092 1.369 . S
C1093 C1094 1.410 . S
C1093 C1101 1.503 . S
C1094 C1093 1.410 . S
C1094 C1095 1.392 . S
C1094 C1097 1.511 . S
C1095 C1091 1.376 . S
C1095 C1094 1.392 . S
C1095 H1107 0.929 . S
C1096 C1092 1.531 . S
C1096 H1108 0.960 . S
C1096 H1109 0.962 . S
C1096 H1110 0.960 . S
C1097 C1094 1.511 . S
C1097 H1111 0.961 . S
C1097 H1112 0.961 . S
C1097 H1113 0.961 . S
C1098 C1099 1.370 . S
C1098 C1100 1.363 . S
C1098 H1114 0.931 . S
C1099 C1098 1.370 . S
C1099 C1103 1.408 . S
C1100 C1098 1.363 . S
C1100 C1101 1.370 . S
C1100 C1104 1.524 . S
C1101 C1093 1.503 . S
C1101 C1100 1.370 . S
C1101 C1102 1.403 . S
C1102 C1101 1.403 . S
C1102 C1103 1.404 . S
C1102 C1105 1.539 . S
C1103 C1099 1.408 . S
C1103 C1102 1.404 . S
C1103 H1115 0.930 . S
C1104 C1100 1.524 . S
C1104 H1116 0.956 . S
C1104 H1117 0.961 . S
C1104 H1118 0.961 . S
C1105 C1102 1.539 . S
C1105 H1119 0.958 . S
C1105 H1120 0.961 . S
C1105 H1121 0.960 . S
H1106 C1090 0.931 . S
H1107 C1095 0.929 . S
H1108 C1096 0.960 . S
H1109 C1096 0.962 . S
H1110 C1096 0.960 . S
H1111 C1097 0.961 . S
H1112 C1097 0.961 . S
H1113 C1097 0.961 . S
H1114 C1098 0.931 . S
H1115 C1103 0.930 . S
H1116 C1104 0.956 . S
H1117 C1104 0.961 . S
H1118 C1104 0.961 . S
H1119 C1105 0.958 . S
H1120 C1105 0.961 . S
H1121 C1105 0.960 . S
C1122 C1123 1.391 . S
C1122 C1124 1.394 . S
C1122 H1138 0.931 . S
C1123 C1122 1.391 . S
C1123 C1127 1.376 . S
C1124 C1122 1.394 . S
C1124 C1125 1.369 . S
C1124 C1128 1.531 . S
C1125 C1124 1.369 . S
C1125 C1126 1.410 . S
C1125 C1133 1.503 . S
C1126 C1125 1.410 . S
C1126 C1127 1.392 . S
C1126 C1129 1.511 . S
C1127 C1123 1.376 . S
C1127 C1126 1.392 . S
C1127 H1139 0.929 . S
C1128 C1124 1.531 . S
C1128 H1140 0.960 . S
C1128 H1141 0.962 . S
C1128 H1142 0.960 . S
C1129 C1126 1.511 . S
C1129 H1143 0.961 . S
C1129 H1144 0.961 . S
C1129 H1145 0.961 . S
C1130 C1131 1.370 . S
C1130 C1132 1.363 . S
C1130 H1146 0.931 . S
C1131 C1130 1.370 . S
C1131 C1135 1.408 . S
C1132 C1130 1.363 . S
C1132 C1133 1.370 . S
C1132 C1136 1.524 . S
C1133 C1125 1.503 . S
C1133 C1132 1.370 . S
C1133 C1134 1.403 . S
C1134 C1133 1.403 . S
C1134 C1135 1.404 . S
C1134 C1137 1.539 . S
C1135 C1131 1.408 . S
C1135 C1134 1.404 . S
C1135 H1147 0.930 . S
C1136 C1132 1.524 . S
C1136 H1148 0.956 . S
C1136 H1149 0.961 . S
C1136 H1150 0.961 . S
C1137 C1134 1.539 . S
C1137 H1151 0.958 . S
C1137 H1152 0.961 . S
C1137 H1153 0.960 . S
H1138 C1122 0.931 . S
H1139 C1127 0.929 . S
H1140 C1128 0.960 . S
H1141 C1128 0.962 . S
H1142 C1128 0.960 . S
H1143 C1129 0.961 . S
H1144 C1129 0.961 . S
H1145 C1129 0.961 . S
H1146 C1130 0.931 . S
H1147 C1135 0.930 . S
H1148 C1136 0.956 . S
H1149 C1136 0.961 . S
H1150 C1136 0.961 . S
H1151 C1137 0.958 . S
H1152 C1137 0.961 . S
H1153 C1137 0.960 . S
C1154 C1155 1.391 . S
C1154 C1156 1.394 . S
C1154 H1170 0.931 . S
C1155 C1154 1.391 . S
C1155 C1159 1.376 . S
C1156 C1154 1.394 . S
C1156 C1157 1.369 . S
C1156 C1160 1.531 . S
C1157 C1156 1.369 . S
C1157 C1158 1.410 . S
C1157 C1165 1.503 1_554 S
C1158 C1157 1.410 . S
C1158 C1159 1.392 . S
C1158 C1161 1.511 1_554 S
C1159 C1155 1.376 . S
C1159 C1158 1.392 . S
C1159 H1171 0.929 . S
C1160 C1156 1.531 . S
C1160 H1172 0.960 . S
C1160 H1173 0.962 . S
C1160 H1174 0.960 . S
C1161 C1158 1.511 1_556 S
C1161 H1175 0.961 . S
C1161 H1176 0.961 . S
C1161 H1177 0.961 . S
C1162 C1163 1.370 . S
C1162 C1164 1.363 . S
C1162 H1178 0.931 . S
C1163 C1162 1.370 . S
C1163 C1167 1.408 . S
C1164 C1162 1.363 . S
C1164 C1165 1.370 . S
C1164 C1168 1.524 . S
C1165 C1157 1.503 1_556 S
C1165 C1164 1.370 . S
C1165 C1166 1.403 . S
C1166 C1165 1.403 . S
C1166 C1167 1.404 . S
C1166 C1169 1.539 1_556 S
C1167 C1163 1.408 . S
C1167 C1166 1.404 . S
C1167 H1179 0.930 . S
C1168 C1164 1.524 . S
C1168 H1180 0.956 . S
C1168 H1181 0.961 . S
C1168 H1182 0.961 . S
C1169 C1166 1.539 1_554 S
C1169 H1183 0.958 . S
C1169 H1184 0.961 1_554 S
C1169 H1185 0.960 . S
H1170 C1154 0.931 . S
H1171 C1159 0.929 . S
H1172 C1160 0.960 . S
H1173 C1160 0.962 . S
H1174 C1160 0.960 . S
H1175 C1161 0.961 . S
H1176 C1161 0.961 . S
H1177 C1161 0.961 . S
H1178 C1162 0.931 . S
H1179 C1167 0.930 . S
H1180 C1168 0.956 . S
H1181 C1168 0.961 . S
H1182 C1168 0.961 . S
H1183 C1169 0.958 . S
H1184 C1169 0.961 1_556 S
H1185 C1169 0.960 . S
C1186 C1187 1.391 . S
C1186 C1188 1.394 . S
C1186 H1202 0.931 . S
C1187 C1186 1.391 . S
C1187 C1191 1.376 . S
C1188 C1186 1.394 . S
C1188 C1189 1.369 . S
C1188 C1192 1.531 . S
C1189 C1188 1.369 . S
C1189 C1190 1.410 . S
C1189 C1197 1.503 . S
C1190 C1189 1.410 . S
C1190 C1191 1.392 . S
C1190 C1193 1.511 . S
C1191 C1187 1.376 . S
C1191 C1190 1.392 . S
C1191 H1203 0.929 . S
C1192 C1188 1.531 . S
C1192 H1204 0.960 . S
C1192 H1205 0.962 . S
C1192 H1206 0.960 . S
C1193 C1190 1.511 . S
C1193 H1207 0.961 . S
C1193 H1208 0.961 . S
C1193 H1209 0.961 . S
C1194 C1195 1.370 . S
C1194 C1196 1.363 . S
C1194 H1210 0.931 . S
C1195 C1194 1.370 . S
C1195 C1199 1.408 . S
C1196 C1194 1.363 . S
C1196 C1197 1.370 . S
C1196 C1200 1.524 . S
C1197 C1189 1.503 . S
C1197 C1196 1.370 . S
C1197 C1198 1.403 . S
C1198 C1197 1.403 . S
C1198 C1199 1.404 . S
C1198 C1201 1.539 . S
C1199 C1195 1.408 . S
C1199 C1198 1.404 . S
C1199 H1211 0.930 . S
C1200 C1196 1.524 . S
C1200 H1212 0.956 . S
C1200 H1213 0.961 . S
C1200 H1214 0.961 . S
C1201 C1198 1.539 . S
C1201 H1215 0.958 . S
C1201 H1216 0.961 . S
C1201 H1217 0.960 . S
H1202 C1186 0.931 . S
H1203 C1191 0.929 . S
H1204 C1192 0.960 . S
H1205 C1192 0.962 . S
H1206 C1192 0.960 . S
H1207 C1193 0.961 . S
H1208 C1193 0.961 . S
H1209 C1193 0.961 . S
H1210 C1194 0.931 . S
H1211 C1199 0.930 . S
H1212 C1200 0.956 . S
H1213 C1200 0.961 . S
H1214 C1200 0.961 . S
H1215 C1201 0.958 . S
H1216 C1201 0.961 . S
H1217 C1201 0.960 . S
C459 C442 1.643 . S
C451 C29 1.570 . S
C483 C115 1.553 . S
C491 C377 1.558 . S
C515 C153 1.547 . S
C523 C395 1.670 . S
C547 C239 1.510 . S
C555 C408 1.538 . S
C587 C416 1.599 . S
C579 C301 1.571 . S
C611 C339 1.796 . S
C619 C428 1.894 . S
C643 C91 1.598 . S
C651 C390 1.672 . S
C675 C177 1.521 . S
C683 C403 1.553 . S
C707 C215 1.509 . S
C715 C421 1.638 . S
C747 C427 1.902 . S
C739 C277 1.803 . S
C779 C447 1.583 . S
C771 C363 1.546 . S
C811 C382 1.550 . S
C803 C53 1.545 . S
C835 C35 1.701 . S
C843 C388 1.725 . S
C867 C109 1.552 . S
C875 C401 1.652 . S
C907 C415 1.592 . S
C899 C159 1.570 . S
C931 C233 1.724 . S
C939 C429 1.857 . S
C971 C441 1.687 . S
C963 C295 1.552 . S
C1003 C376 1.579 . S
C995 C345 1.536 . S
C1035 C440 1.599 . S
C1027 C97 1.568 . S
C1059 C171 1.496 . S
C1067 C375 1.650 . S
C1099 C389 1.724 . S
C1091 C221 1.654 . S
C1123 C283 1.551 . S
C1131 C402 1.576 . S
C1155 C357 1.525 . S
C1163 C414 1.696 . S
C1187 C47 1.679 . S
C1195 C434 1.850 . S
