# Generated by pormake.
# Topology pts, (4,4)-cn, num edge types: 1
# Building blocks:
#     Node 0, Type 0, BuildingBlock: MIFKUJ_clean_linker_1, # of connection points: 4
#     Node 1, Type 0, BuildingBlock: MIFKUJ_clean_linker_1, # of connection points: 4
#     Node 2, Type 1, BuildingBlock: UXUYUI_clean_sbu_0, # of connection points: 4
#     Node 3, Type 1, BuildingBlock: UXUYUI_clean_sbu_0, # of connection points: 4
#     Edge 4, Type (0, 1), BuildingBlock: OJICUG_clean_linker_0, # of connection points: 2
#     Edge 5, Type (0, 1), BuildingBlock: OJICUG_clean_linker_0, # of connection points: 2
#     Edge 6, Type (0, 1), BuildingBlock: OJICUG_clean_linker_0, # of connection points: 2
#     Edge 7, Type (0, 1), BuildingBlock: OJICUG_clean_linker_0, # of connection points: 2
#     Edge 8, Type (0, 1), BuildingBlock: OJICUG_clean_linker_0, # of connection points: 2
#     Edge 9, Type (0, 1), BuildingBlock: OJICUG_clean_linker_0, # of connection points: 2
#     Edge 10, Type (0, 1), BuildingBlock: OJICUG_clean_linker_0, # of connection points: 2
#     Edge 11, Type (0, 1), BuildingBlock: OJICUG_clean_linker_0, # of connection points: 2
# Relax obj value: 0.001
# Max RMSD: 0.016
# Mean RMSD: 0.014
data_MOF--net-pts--node1-UXUYUI_clean_sbu_0--node2-MIFKUJ_clean_linker_1--edge1-OJICUG_clean_linker_0
_symmetry_space_group_name_H-M    P1
_symmetry_Int_Tables_number       1
_symmetry_cell_setting            triclinic
loop_
_symmetry_equiv_pos_as_xyz
'x, y, z'
_cell_length_a     29.330153
_cell_length_b     29.330215
_cell_length_c     39.813487
_cell_angle_alpha  90.004644
_cell_angle_beta   90.002313
_cell_angle_gamma 89.991731
loop_
_atom_site_label
_atom_site_type_symbol
_atom_site_fract_x
_atom_site_fract_y
_atom_site_fract_z
_atom_type_partial_charge
H0 H 0.58354 0.94314 0.06861 0.0
H1 H 0.65348 0.94321 0.10228 0.0
H2 H 0.68861 0.0755 0.06224 0.0
H3 H 0.61848 0.07538 0.02885 0.0
H4 H 0.51185 0.0055 0.07118 0.0
H5 H 0.61486 0.9452 0.98563 0.0
H6 H 0.68464 0.94454 0.95161 0.0
H7 H 0.65617 0.0819 0.91872 0.0
H8 H 0.58606 0.08214 0.9524 0.0
H9 H 0.44383 0.07378 0.94302 0.0
H10 H 0.37512 0.07289 0.90863 0.0
H11 H 0.32863 0.95249 0.96115 0.0
H12 H 0.3989 0.95193 0.9939 0.0
H13 H 0.51115 0.01781 0.94696 0.0
H14 H 0.39751 0.06936 0.02391 0.0
H15 H 0.32758 0.06805 0.05683 0.0
H16 H 0.37785 0.95101 0.11166 0.0
H17 H 0.44586 0.95028 0.07666 0.0
C18 C 0.59601 0.0091 0.04609 0.0
C19 C 0.60642 0.97206 0.06703 0.0
C20 C 0.64646 0.97204 0.08608 0.0
C21 C 0.67649 0.00937 0.08487 0.0
C22 C 0.66595 0.04644 0.06387 0.0
C23 C 0.62611 0.04625 0.0446 0.0
C24 C 0.55296 0.00956 0.0266 0.0
C25 C 0.51141 0.00749 0.04397 0.0
C26 C 0.55273 0.01366 0.99129 0.0
C27 C 0.59548 0.01376 0.97153 0.0
C28 C 0.62377 0.97518 0.97115 0.0
C29 C 0.6634 0.97476 0.95165 0.0
C30 C 0.67568 0.01318 0.9326 0.0
C31 C 0.64759 0.05199 0.93337 0.0
C32 C 0.60755 0.0521 0.95242 0.0
C33 C 0.42646 0.01322 0.97135 0.0
C34 C 0.41895 0.04703 0.94701 0.0
C35 C 0.37928 0.04676 0.92758 0.0
C36 C 0.34598 0.01277 0.93215 0.0
C37 C 0.35364 0.97891 0.95659 0.0
C38 C 0.39362 0.97889 0.97572 0.0
C39 C 0.46926 0.01334 0.99141 0.0
C40 C 0.51102 0.01573 0.97416 0.0
C41 C 0.46943 0.00965 0.02698 0.0
C42 C 0.42679 0.00942 0.04728 0.0
C43 C 0.39307 0.04282 0.04254 0.0
C44 C 0.35328 0.04246 0.06187 0.0
C45 C 0.34673 0.00941 0.08709 0.0
C46 C 0.38098 0.97646 0.0921 0.0
C47 C 0.42033 0.97633 0.07233 0.0
H48 H 0.07785 0.43762 0.45027 0.0
H49 H 0.07778 0.36768 0.4166 0.0
H50 H 0.94556 0.33247 0.45675 0.0
H51 H 0.94568 0.40262 0.49013 0.0
H52 H 0.01552 0.50927 0.44775 0.0
H53 H 0.07586 0.40627 0.53328 0.0
H54 H 0.07653 0.33649 0.5673 0.0
H55 H 0.93919 0.36498 0.60024 0.0
H56 H 0.93894 0.43509 0.56656 0.0
H57 H 0.94731 0.57731 0.57592 0.0
H58 H 0.94822 0.64603 0.61032 0.0
H59 H 0.06863 0.69249 0.55778 0.0
H60 H 0.06917 0.62221 0.52502 0.0
H61 H 1.00328 0.50998 0.57198 0.0
H62 H 0.95175 0.62367 0.49505 0.0
H63 H 0.95308 0.6936 0.46214 0.0
H64 H 0.07002 0.64323 0.40724 0.0
H65 H 0.07073 0.57523 0.44223 0.0
C66 C 0.01193 0.42512 0.47283 0.0
C67 C 0.04895 0.41472 0.45187 0.0
C68 C 0.04897 0.37468 0.43282 0.0
C69 C 0.01166 0.34463 0.43407 0.0
C70 C 0.97461 0.35516 0.4551 0.0
C71 C 0.9748 0.395 0.47436 0.0
C72 C 0.01148 0.46817 0.49233 0.0
C73 C 0.01355 0.50971 0.47496 0.0
C74 C 0.0074 0.4684 0.52764 0.0
C75 C 0.0073 0.42565 0.54741 0.0
C76 C 0.04589 0.39736 0.54777 0.0
C77 C 0.04631 0.35773 0.56727 0.0
C78 C 0.0079 0.34546 0.58634 0.0
C79 C 0.9691 0.37356 0.58558 0.0
C80 C 0.96898 0.41359 0.56652 0.0
C81 C 0.00787 0.59467 0.54758 0.0
C82 C 0.97407 0.60219 0.57193 0.0
C83 C 0.97435 0.64185 0.59136 0.0
C84 C 0.00835 0.67515 0.58679 0.0
C85 C 0.04221 0.66748 0.56235 0.0
C86 C 0.04221 0.6275 0.54321 0.0
C87 C 0.00774 0.55187 0.52752 0.0
C88 C 0.00534 0.51011 0.54477 0.0
C89 C 0.01141 0.5517 0.49195 0.0
C90 C 0.01164 0.59435 0.47165 0.0
C91 C 0.97827 0.62808 0.47641 0.0
C92 C 0.97864 0.66788 0.45708 0.0
C93 C 0.01168 0.6744 0.43184 0.0
C94 C 0.04459 0.64012 0.42681 0.0
C95 C 0.04471 0.60077 0.44658 0.0
Li96 Li 0.01127 0.0531 0.28195 0.0
Li97 Li 0.00898 0.96845 0.28199 0.0
Li98 Li 0.05266 0.01216 0.23693 0.0
Li99 Li 0.96801 0.00981 0.23698 0.0
C100 C 0.09805 0.02295 0.30612 0.0
N101 N 0.16946 0.05079 0.3464 0.0
C102 C 0.10384 0.00392 0.33801 0.0
C103 C 0.1289 0.05562 0.29449 0.0
C104 C 0.14006 0.01861 0.35807 0.0
C105 C 0.1647 0.06938 0.31529 0.0
C106 C 0.92118 0.99923 0.30524 0.0
C107 C 0.85541 0.95139 0.31389 0.0
N108 N 0.84777 0.9723 0.34387 0.0
C109 C 0.91255 0.0205 0.336 0.0
C110 C 0.8923 0.96459 0.29396 0.0
C111 C 0.87531 0.0063 0.35522 0.0
C112 C 0.99305 0.14518 0.29799 0.0
N113 N 0.01073 0.10563 0.31013 0.0
C114 C 0.02745 0.14117 0.36275 0.0
C115 C 0.02704 0.10277 0.34202 0.0
C116 C 0.01007 0.18269 0.35073 0.0
C117 C 0.99237 0.18435 0.31796 0.0
H118 H 0.97947 0.14633 0.27275 0.0
H119 H 0.03938 0.07061 0.35153 0.0
C120 C 0.03309 0.87834 0.29896 0.0
N121 N 0.00961 0.91552 0.30981 0.0
C122 C 0.03452 0.83876 0.31849 0.0
C123 C 0.98745 0.8764 0.3599 0.0
C124 C 0.98767 0.91549 0.3399 0.0
C125 C 0.01109 0.83744 0.34922 0.0
H126 H 0.05068 0.87949 0.27509 0.0
H127 H 0.97054 0.94581 0.34858 0.0
C128 C 0.02172 0.09996 0.21369 0.0
N129 N 0.04838 0.17347 0.17506 0.0
C130 C 1.00041 0.10852 0.18293 0.0
C131 C 0.05626 0.12897 0.22497 0.0
C132 C 0.01449 0.14581 0.16371 0.0
C133 C 0.06933 0.16591 0.20503 0.0
C134 C 0.99829 0.92315 0.21269 0.0
C135 C 0.01737 0.91758 0.18079 0.0
C136 C 0.96565 0.89218 0.2242 0.0
C137 C 1.00277 0.88144 0.16062 0.0
C138 C 0.95198 0.85648 0.20327 0.0
N139 N 0.97062 0.85193 0.17217 0.0
C140 C 0.14271 0.98793 0.21991 0.0
C141 C 0.1057 0.03363 0.17908 0.0
C142 C 0.1823 0.98649 0.20038 0.0
N143 N 0.10559 0.01155 0.20912 0.0
C144 C 0.14479 0.03384 0.15909 0.0
C145 C 0.18369 0.01005 0.16971 0.0
H146 H 0.14151 0.97022 0.24373 0.0
H147 H 0.07543 0.05088 0.17044 0.0
C148 C 0.87589 0.02789 0.22098 0.0
N149 N 0.91548 0.01032 0.20881 0.0
C150 C 0.83672 0.02856 0.20101 0.0
C151 C 0.87995 0.99369 0.15616 0.0
C152 C 0.91836 0.99411 0.17689 0.0
C153 C 0.83841 0.01096 0.16821 0.0
H154 H 0.87473 0.0414 0.24624 0.0
H155 H 0.95054 0.98186 0.16736 0.0
O156 O 0.06284 0.00886 0.28618 0.0
O157 O 0.95757 0.01269 0.28622 0.0
O158 O 0.00838 0.06354 0.23272 0.0
O159 O 0.01229 0.95827 0.23275 0.0
H160 H 0.08039 0.9783 0.34723 0.0
H161 H 0.12546 0.06994 0.26961 0.0
H162 H 0.14482 0.00441 0.3829 0.0
H163 H 0.18879 0.09473 0.30667 0.0
H164 H 0.83278 0.92458 0.3055 0.0
H165 H 0.93454 0.04751 0.34499 0.0
H166 H 0.89811 0.94832 0.26998 0.0
H167 H 0.86831 0.02229 0.37915 0.0
H168 H 0.04057 0.13825 0.38809 0.0
H169 H 0.97873 0.21572 0.30773 0.0
H170 H 0.05311 0.80929 0.30947 0.0
H171 H 0.96961 0.87684 0.38373 0.0
H172 H 0.97347 0.08644 0.17395 0.0
H173 H 0.07256 0.12323 0.24894 0.0
H174 H 0.99846 0.15276 0.13978 0.0
H175 H 0.09606 0.18863 0.21342 0.0
H176 H 0.04296 0.94112 0.17167 0.0
H177 H 0.95129 0.89546 0.24908 0.0
H178 H 0.01701 0.87685 0.13578 0.0
H179 H 0.92665 0.8323 0.21181 0.0
H180 H 0.21172 0.96778 0.20936 0.0
H181 H 0.14441 0.05179 0.13531 0.0
H182 H 0.80532 0.04212 0.21127 0.0
H183 H 0.8829 0.98064 0.1308 0.0
Li184 Li 0.96748 0.01263 0.78128 0.0
Li185 Li 0.05164 0.01008 0.78247 0.0
Li186 Li 0.0085 0.05367 0.73764 0.0
Li187 Li 0.01108 0.9695 0.73646 0.0
C188 C 0.99443 0.09147 0.81168 0.0
N189 N 0.95971 0.14579 0.86225 0.0
C190 C 0.01469 0.09137 0.84346 0.0
C191 C 0.95688 0.11957 0.80549 0.0
C192 C 0.99654 0.119 0.86873 0.0
C193 C 0.93971 0.14666 0.83143 0.0
C194 C 0.01915 0.91923 0.80178 0.0
C195 C 0.06282 0.84968 0.80472 0.0
N196 N 0.04203 0.83921 0.83427 0.0
C197 C 0.99796 0.90764 0.83204 0.0
C198 C 0.05164 0.88993 0.78787 0.0
C199 C 0.01011 0.8671 0.84814 0.0
C200 C 0.87303 0.00529 0.79476 0.0
N201 N 0.91458 0.01176 0.80914 0.0
C202 C 0.88061 0.01769 0.86356 0.0
C203 C 0.91908 0.01709 0.84291 0.0
C204 C 0.83727 0.01144 0.84937 0.0
C205 C 0.83369 0.00474 0.81456 0.0
H206 H 0.87044 1.00045 0.76791 0.0
H207 H 0.95258 0.02072 0.85385 0.0
C208 C 0.13898 0.03885 0.80239 0.0
N209 N 0.10438 0.01004 0.8105 0.0
C210 C 0.17849 0.04025 0.822 0.0
C211 C 0.14601 0.98232 0.85792 0.0
C212 C 0.10696 0.98244 0.83788 0.0
C213 C 0.18242 0.01148 0.85005 0.0
H214 H 0.13587 0.06065 0.7806 0.0
H215 H 0.07868 0.9607 0.84441 0.0
C216 C 0.92967 0.02668 0.70724 0.0
N217 N 0.87533 0.06135 0.65667 0.0
C218 C 0.92978 0.0064 0.67547 0.0
C219 C 0.90157 0.06422 0.71343 0.0
C220 C 0.90214 0.02453 0.6502 0.0
C221 C 0.87447 0.08137 0.68749 0.0
C222 C 0.10191 1.00204 0.71713 0.0
C223 C 0.11344 0.02322 0.68686 0.0
C224 C 0.13126 0.96959 0.73103 0.0
C225 C 0.15398 0.01111 0.67073 0.0
C226 C 0.1715 0.95844 0.71416 0.0
N227 N 0.18191 0.97922 0.68459 0.0
C228 C 0.01585 0.14811 0.72417 0.0
C229 C 0.00401 0.10206 0.67602 0.0
C230 C 0.01639 0.18745 0.70437 0.0
N231 N 0.00936 0.10656 0.70979 0.0
C232 C 0.0034 0.14054 0.65537 0.0
C233 C 0.00967 0.18387 0.66956 0.0
H234 H 0.02071 0.1507 0.75101 0.0
H235 H 1.00037 0.06857 0.66507 0.0
C236 C 0.98231 0.88216 0.71654 0.0
N237 N 0.01113 0.91675 0.70843 0.0
C238 C 0.9809 0.84265 0.69694 0.0
C239 C 0.03885 0.87511 0.66102 0.0
C240 C 0.03874 0.91417 0.68106 0.0
C241 C 0.00968 0.83871 0.66889 0.0
H242 H 0.9605 0.88528 0.73833 0.0
H243 H 0.06048 0.94244 0.67454 0.0
O244 O 0.01163 0.06454 0.7867 0.0
O245 O 0.00759 0.95881 0.78577 0.0
O246 O 0.95661 0.0095 0.73223 0.0
O247 O 0.06233 0.01357 0.73317 0.0
H248 H 0.04392 0.06994 0.84859 0.0
H249 H 0.94114 0.12036 0.78094 0.0
H250 H 0.0117 0.11911 0.89349 0.0
H251 H 0.91052 0.16841 0.82704 0.0
H252 H 0.08793 0.82671 0.79425 0.0
H253 H 0.97255 0.92984 0.84304 0.0
H254 H 0.06779 0.89794 0.76421 0.0
H255 H 0.99414 0.85779 0.87165 0.0
H256 H 0.88472 0.02226 0.89039 0.0
H257 H 0.80079 0.99981 0.80275 0.0
H258 H 0.20592 0.06308 0.81502 0.0
H259 H 0.14745 0.96016 0.87966 0.0
H260 H 0.95121 0.97717 0.67034 0.0
H261 H 0.90077 0.07998 0.73797 0.0
H262 H 0.90203 0.00935 0.62544 0.0
H263 H 0.85271 0.11056 0.69186 0.0
H264 H 0.0912 0.04859 0.67586 0.0
H265 H 0.1233 0.95344 0.7547 0.0
H266 H 0.16324 0.02707 0.64721 0.0
H267 H 0.19452 0.93336 0.72461 0.0
H268 H 0.02133 0.22035 0.71617 0.0
H269 H 0.99882 0.13643 0.62854 0.0
H270 H 0.95806 0.81523 0.70391 0.0
H271 H 0.06102 0.87366 0.63929 0.0
C272 C 0.2834 0.05082 0.11726 0.0
C273 C 0.3047 0.00953 0.10828 0.0
H274 H 0.22841 0.0832 0.14356 0.0
C275 C 0.2856 0.96838 0.11994 0.0
H276 H 0.29744 0.08327 0.10949 0.0
C277 C 0.24667 0.96858 0.14022 0.0
C278 C 0.22541 0.00982 0.14878 0.0
H279 H 0.30028 0.93582 0.11308 0.0
H280 H 0.23265 0.9364 0.1487 0.0
C281 C 0.24398 0.0509 0.137 0.0
C282 C 0.9729 0.27195 0.60541 0.0
C283 C 0.00855 0.30383 0.60739 0.0
H284 H 0.94567 0.20861 0.62337 0.0
C285 C 0.04464 0.29595 0.62986 0.0
H286 H 0.9448 0.27719 0.58817 0.0
C287 C 0.04482 0.25715 0.65026 0.0
C288 C 0.00935 0.22512 0.6481 0.0
H289 H 0.07237 0.32017 0.63198 0.0
H290 H 0.07295 0.2519 0.66747 0.0
C291 C 0.97352 0.23272 0.62536 0.0
C292 C 0.74648 0.97129 0.10786 0.0
C293 C 0.71829 0.00994 0.10588 0.0
H294 H 0.80659 0.94138 0.12908 0.0
C295 C 0.72999 0.04902 0.12441 0.0
H296 H 0.73846 0.94081 0.09369 0.0
C297 C 0.76887 0.04931 0.14472 0.0
C298 C 0.79713 0.0107 0.14665 0.0
H299 H 0.7087 0.07917 0.12359 0.0
H300 H 0.77708 0.07993 0.15868 0.0
C301 C 0.78563 0.97175 0.12789 0.0
C302 C 0.05009 0.73676 0.61842 0.0
C303 C 0.00868 0.71738 0.60766 0.0
H304 H 0.08279 0.7901 0.64622 0.0
C305 C 0.96758 0.73849 0.61729 0.0
H306 H 0.08239 0.72108 0.61212 0.0
C307 C 0.96789 0.77763 0.63733 0.0
C308 C 0.00929 0.79695 0.64788 0.0
H309 H 0.93505 0.72516 0.609 0.0
H310 H 0.93572 0.79326 0.64413 0.0
C311 C 0.05038 0.77622 0.63812 0.0
C312 C 0.28436 0.97105 0.90051 0.0
C313 C 0.30375 0.01245 0.91127 0.0
H314 H 0.23101 0.93836 0.87272 0.0
C315 C 0.28265 0.05355 0.90165 0.0
H316 H 0.30003 0.93874 0.90681 0.0
C317 C 0.24351 0.05325 0.8816 0.0
C318 C 0.22418 0.01186 0.87106 0.0
H319 H 0.29599 0.08608 0.90993 0.0
H320 H 0.22789 0.08543 0.87481 0.0
C321 C 0.2449 0.97077 0.88082 0.0
C322 C 0.04976 0.27467 0.41103 0.0
C323 C 0.01108 0.30282 0.41306 0.0
H324 H 0.07969 0.21459 0.38978 0.0
C325 C 0.97198 0.29107 0.39458 0.0
H326 H 0.08027 0.28273 0.42517 0.0
C327 C 0.97169 0.25218 0.37427 0.0
C328 C 0.01033 0.22397 0.3723 0.0
H329 H 0.9418 0.31233 0.39543 0.0
H330 H 0.94104 0.24393 0.36035 0.0
C331 C 0.0493 0.23552 0.391 0.0
C332 C 0.72519 0.97646 0.88906 0.0
C333 C 0.71731 0.01254 0.91154 0.0
H334 H 0.76923 0.94817 0.85144 0.0
C335 C 0.74919 0.04818 0.91354 0.0
H336 H 0.70096 0.94873 0.88693 0.0
C337 C 0.78843 0.04757 0.89359 0.0
C338 C 0.79602 0.01176 0.87083 0.0
H339 H 0.74396 0.07627 0.93078 0.0
H340 H 0.81254 0.07541 0.89559 0.0
C341 C 0.76398 0.97629 0.86866 0.0
C342 C 0.05272 0.73548 0.39895 0.0
C343 C 0.01157 0.71643 0.41066 0.0
H344 H 0.08471 0.78838 0.37015 0.0
C345 C 0.97029 0.7378 0.40172 0.0
H346 H 0.08527 0.72076 0.40577 0.0
C347 C 0.97022 0.77721 0.38198 0.0
C348 C 0.01131 0.79573 0.37016 0.0
H349 H 0.93784 0.7238 0.40953 0.0
H350 H 0.93794 0.79284 0.37546 0.0
C351 C 0.05254 0.77441 0.37867 0.0
loop_
_geom_bond_atom_site_label_1
_geom_bond_atom_site_label_2
_geom_bond_distance
_geom_bond_site_symmetry_2
_ccdc_geom_bond_type
H0 C19 0.949 . S
H1 C20 0.950 . S
H2 C22 0.950 . S
H3 C23 0.950 . S
H4 C25 0.951 1_565 S
H5 C28 0.950 . S
H6 C29 0.950 . S
H7 C31 0.951 . S
H8 C32 0.949 . S
H9 C34 0.949 . S
H10 C35 0.950 . S
H11 C37 0.950 . S
H12 C38 0.950 . S
H13 C40 0.950 . S
H14 C43 0.950 . S
H15 C44 0.950 . S
H16 C46 0.951 . S
H17 C47 0.949 . S
C18 C19 1.376 1_545 S
C18 C23 1.386 . S
C18 C24 1.483 . S
C19 H0 0.949 . S
C19 C18 1.376 1_565 S
C19 C20 1.397 . S
C20 H1 0.950 . S
C20 C19 1.397 . S
C20 C21 1.391 1_565 S
C21 C20 1.391 1_545 S
C21 C22 1.405 . S
C22 H2 0.950 . S
C22 C21 1.405 . S
C22 C23 1.367 . S
C23 H3 0.950 . S
C23 C18 1.386 . S
C23 C22 1.367 . S
C24 C18 1.483 . S
C24 C25 1.381 . S
C24 C26 1.403 1_554 S
C25 H4 0.951 1_545 S
C25 C24 1.381 . S
C25 C41 1.411 . S
C26 C24 1.403 1_556 S
C26 C27 1.489 . S
C26 C40 1.411 . S
C27 C26 1.489 . S
C27 C28 1.383 1_545 S
C27 C32 1.382 . S
C28 H5 0.950 . S
C28 C27 1.383 1_565 S
C28 C29 1.395 . S
C29 H6 0.950 . S
C29 C28 1.395 . S
C29 C30 1.288 1_565 S
C30 C29 1.288 1_545 S
C30 C31 1.392 . S
C31 H7 0.951 . S
C31 C30 1.392 . S
C31 C32 1.392 . S
C32 H8 0.949 . S
C32 C27 1.382 . S
C32 C31 1.392 . S
C33 C34 1.376 . S
C33 C38 1.386 1_545 S
C33 C39 1.483 . S
C34 H9 0.949 . S
C34 C33 1.376 . S
C34 C35 1.397 . S
C35 H10 0.950 . S
C35 C34 1.397 . S
C35 C36 1.391 . S
C36 C35 1.391 . S
C36 C37 1.405 1_545 S
C37 H11 0.950 . S
C37 C36 1.405 1_565 S
C37 C38 1.367 . S
C38 H12 0.950 . S
C38 C33 1.386 1_565 S
C38 C37 1.367 . S
C39 C33 1.483 . S
C39 C40 1.382 . S
C39 C41 1.403 1_556 S
C40 H13 0.950 . S
C40 C26 1.411 . S
C40 C39 1.382 . S
C41 C25 1.411 . S
C41 C39 1.403 1_554 S
C41 C42 1.489 . S
C42 C41 1.489 . S
C42 C43 1.383 . S
C42 C47 1.382 1_545 S
C43 H14 0.950 . S
C43 C42 1.383 . S
C43 C44 1.395 . S
C44 H15 0.950 . S
C44 C43 1.395 . S
C44 C45 1.288 . S
C45 C44 1.288 . S
C45 C46 1.392 1_545 S
C46 H16 0.951 . S
C46 C45 1.392 1_565 S
C46 C47 1.392 . S
C47 H17 0.949 . S
C47 C42 1.382 1_565 S
C47 C46 1.392 . S
H48 C67 0.949 . S
H49 C68 0.950 . S
H50 C70 0.950 . S
H51 C71 0.950 . S
H52 C73 0.950 . S
H53 C76 0.950 . S
H54 C77 0.950 . S
H55 C79 0.951 . S
H56 C80 0.949 . S
H57 C82 0.949 . S
H58 C83 0.950 . S
H59 C85 0.950 . S
H60 C86 0.950 . S
H61 C88 0.950 . S
H62 C91 0.950 . S
H63 C92 0.950 . S
H64 C94 0.951 . S
H65 C95 0.949 . S
C66 C67 1.376 . S
C66 C71 1.386 1_455 S
C66 C72 1.483 . S
C67 H48 0.949 . S
C67 C66 1.376 . S
C67 C68 1.397 . S
C68 H49 0.950 . S
C68 C67 1.397 . S
C68 C69 1.391 . S
C69 C68 1.391 . S
C69 C70 1.405 1_455 S
C70 H50 0.950 . S
C70 C69 1.405 1_655 S
C70 C71 1.367 . S
C71 H51 0.950 . S
C71 C66 1.386 1_655 S
C71 C70 1.367 . S
C72 C66 1.483 . S
C72 C73 1.382 . S
C72 C74 1.403 . S
C73 H52 0.950 . S
C73 C72 1.382 . S
C73 C89 1.411 . S
C74 C72 1.403 . S
C74 C75 1.489 . S
C74 C88 1.411 1_455 S
C75 C74 1.489 . S
C75 C76 1.383 . S
C75 C80 1.382 1_455 S
C76 H53 0.950 . S
C76 C75 1.383 . S
C76 C77 1.395 . S
C77 H54 0.950 . S
C77 C76 1.395 . S
C77 C78 1.288 . S
C78 C77 1.288 . S
C78 C79 1.392 1_455 S
C79 H55 0.951 . S
C79 C78 1.392 1_655 S
C79 C80 1.392 . S
C80 H56 0.949 . S
C80 C75 1.382 1_655 S
C80 C79 1.392 . S
C81 C82 1.376 1_455 S
C81 C86 1.386 . S
C81 C87 1.483 . S
C82 H57 0.949 . S
C82 C81 1.376 1_655 S
C82 C83 1.397 . S
C83 H58 0.950 . S
C83 C82 1.397 . S
C83 C84 1.391 1_655 S
C84 C83 1.391 1_455 S
C84 C85 1.405 . S
C85 H59 0.950 . S
C85 C84 1.405 . S
C85 C86 1.367 . S
C86 H60 0.950 . S
C86 C81 1.386 . S
C86 C85 1.367 . S
C87 C81 1.483 . S
C87 C88 1.382 1_455 S
C87 C89 1.403 . S
C88 H61 0.950 . S
C88 C74 1.411 1_655 S
C88 C87 1.382 1_655 S
C89 C73 1.411 . S
C89 C87 1.403 . S
C89 C90 1.489 . S
C90 C89 1.489 . S
C90 C91 1.383 1_455 S
C90 C95 1.382 . S
C91 H62 0.950 . S
C91 C90 1.383 1_655 S
C91 C92 1.395 . S
C92 H63 0.950 . S
C92 C91 1.395 . S
C92 C93 1.288 1_655 S
C93 C92 1.288 1_455 S
C93 C94 1.392 . S
C94 H64 0.951 . S
C94 C93 1.392 . S
C94 C95 1.392 . S
C95 H65 0.949 . S
C95 C90 1.382 . S
C95 C94 1.392 . S
Li96 N113 1.990 . S
Li96 O156 1.956 . S
Li96 O157 1.970 1_455 S
Li96 O158 1.961 . S
Li97 N121 1.990 . S
Li97 O156 1.970 1_565 S
Li97 O157 1.956 1_465 S
Li97 O159 1.961 . S
Li98 N143 1.990 . S
Li98 O156 1.961 . S
Li98 O158 1.956 . S
Li98 O159 1.970 1_545 S
Li99 N149 1.990 . S
Li99 O157 1.961 . S
Li99 O158 1.970 1_655 S
Li99 O159 1.956 1_645 S
C100 C102 1.348 1_545 S
C100 C103 1.356 . S
C100 O156 1.325 . S
N101 C104 1.314 1_545 S
N101 C105 1.279 . S
C102 C100 1.348 1_565 S
C102 C104 1.353 . S
C102 H160 0.929 . S
C103 C100 1.356 . S
C103 C105 1.358 . S
C103 H161 0.930 . S
C104 N101 1.314 1_565 S
C104 C102 1.353 . S
C104 H162 0.930 . S
C105 N101 1.279 . S
C105 C103 1.358 . S
C105 H163 0.930 . S
C106 C109 1.348 . S
C106 C110 1.356 1_545 S
C106 O157 1.325 . S
C107 N108 1.279 1_565 S
C107 C110 1.358 . S
C107 H164 0.930 . S
N108 C107 1.279 1_545 S
N108 C111 1.314 . S
C109 C106 1.348 . S
C109 C111 1.353 . S
C109 H165 0.929 . S
C110 C106 1.356 1_565 S
C110 C107 1.358 . S
C110 H166 0.930 . S
C111 N108 1.314 . S
C111 C109 1.353 . S
C111 H167 0.930 . S
C112 N113 1.314 1_655 S
C112 C117 1.353 . S
C112 H118 0.930 . S
N113 Li96 1.990 . S
N113 C112 1.314 1_455 S
N113 C115 1.279 . S
C114 C115 1.358 . S
C114 C116 1.356 . S
C114 H168 0.930 . S
C115 N113 1.279 . S
C115 C114 1.358 . S
C115 H119 0.930 . S
C116 C114 1.356 . S
C116 C117 1.348 1_455 S
C117 C112 1.353 . S
C117 C116 1.348 1_655 S
C117 H169 0.929 . S
H118 C112 0.930 . S
H119 C115 0.930 . S
C120 N121 1.314 . S
C120 C122 1.353 . S
C120 H126 0.930 . S
N121 Li97 1.990 . S
N121 C120 1.314 . S
N121 C124 1.279 1_455 S
C122 C120 1.353 . S
C122 C125 1.348 . S
C122 H170 0.929 . S
C123 C124 1.358 . S
C123 C125 1.356 1_655 S
C123 H171 0.930 . S
C124 N121 1.279 1_655 S
C124 C123 1.358 . S
C124 H127 0.930 . S
C125 C122 1.348 . S
C125 C123 1.356 1_455 S
H126 C120 0.930 . S
H127 C124 0.930 . S
C128 C130 1.348 1_455 S
C128 C131 1.356 . S
C128 O158 1.325 . S
N129 C132 1.314 1_455 S
N129 C133 1.279 . S
C130 C128 1.348 1_655 S
C130 C132 1.353 . S
C130 H172 0.929 . S
C131 C128 1.356 . S
C131 C133 1.358 . S
C131 H173 0.930 . S
C132 N129 1.314 1_655 S
C132 C130 1.353 . S
C132 H174 0.930 . S
C133 N129 1.279 . S
C133 C131 1.358 . S
C133 H175 0.930 . S
C134 C135 1.348 . S
C134 C136 1.356 1_455 S
C134 O159 1.325 . S
C135 C134 1.348 . S
C135 C137 1.353 . S
C135 H176 0.929 . S
C136 C134 1.356 1_655 S
C136 C138 1.358 . S
C136 H177 0.930 . S
C137 C135 1.353 . S
C137 N139 1.314 . S
C137 H178 0.930 . S
C138 C136 1.358 . S
C138 N139 1.279 1_655 S
C138 H179 0.930 . S
N139 C137 1.314 . S
N139 C138 1.279 1_455 S
C140 C142 1.353 . S
C140 N143 1.314 1_565 S
C140 H146 0.930 . S
C141 N143 1.279 . S
C141 C144 1.358 . S
C141 H147 0.930 . S
C142 C140 1.353 . S
C142 C145 1.348 1_565 S
C142 H180 0.929 . S
N143 Li98 1.990 . S
N143 C140 1.314 1_545 S
N143 C141 1.279 . S
C144 C141 1.358 . S
C144 C145 1.356 . S
C144 H181 0.930 . S
C145 C142 1.348 1_545 S
C145 C144 1.356 . S
H146 C140 0.930 . S
H147 C141 0.930 . S
C148 N149 1.314 . S
C148 C150 1.353 . S
C148 H154 0.930 . S
N149 Li99 1.990 . S
N149 C148 1.314 . S
N149 C152 1.279 1_545 S
C150 C148 1.353 . S
C150 C153 1.348 . S
C150 H182 0.929 . S
C151 C152 1.358 . S
C151 C153 1.356 1_565 S
C151 H183 0.930 . S
C152 N149 1.279 1_565 S
C152 C151 1.358 . S
C152 H155 0.930 . S
C153 C150 1.348 . S
C153 C151 1.356 1_545 S
H154 C148 0.930 . S
H155 C152 0.930 . S
O156 Li96 1.956 . S
O156 Li97 1.970 1_545 S
O156 Li98 1.961 . S
O156 C100 1.325 . S
O157 Li96 1.970 1_655 S
O157 Li97 1.956 1_645 S
O157 Li99 1.961 . S
O157 C106 1.325 . S
O158 Li96 1.961 . S
O158 Li98 1.956 . S
O158 Li99 1.970 1_455 S
O158 C128 1.325 . S
O159 Li97 1.961 . S
O159 Li98 1.970 1_565 S
O159 Li99 1.956 1_465 S
O159 C134 1.325 . S
H160 C102 0.929 . S
H161 C103 0.930 . S
H162 C104 0.930 . S
H163 C105 0.930 . S
H164 C107 0.930 . S
H165 C109 0.929 . S
H166 C110 0.930 . S
H167 C111 0.930 . S
H168 C114 0.930 . S
H169 C117 0.929 . S
H170 C122 0.929 . S
H171 C123 0.930 . S
H172 C130 0.929 . S
H173 C131 0.930 . S
H174 C132 0.930 . S
H175 C133 0.930 . S
H176 C135 0.929 . S
H177 C136 0.930 . S
H178 C137 0.930 . S
H179 C138 0.930 . S
H180 C142 0.929 . S
H181 C144 0.930 . S
H182 C150 0.929 . S
H183 C151 0.930 . S
Li184 N201 1.990 . S
Li184 O244 1.956 1_655 S
Li184 O245 1.970 1_645 S
Li184 O246 1.961 . S
Li185 N209 1.990 . S
Li185 O244 1.970 . S
Li185 O245 1.956 1_545 S
Li185 O247 1.961 . S
Li186 N231 1.990 . S
Li186 O244 1.961 . S
Li186 O246 1.956 1_455 S
Li186 O247 1.970 . S
Li187 N237 1.990 . S
Li187 O245 1.961 . S
Li187 O246 1.970 1_465 S
Li187 O247 1.956 1_565 S
C188 C190 1.348 . S
C188 C191 1.356 1_455 S
C188 O244 1.325 . S
N189 C192 1.314 . S
N189 C193 1.279 1_455 S
C190 C188 1.348 . S
C190 C192 1.353 . S
C190 H248 0.929 . S
C191 C188 1.356 1_655 S
C191 C193 1.358 . S
C191 H249 0.930 . S
C192 N189 1.314 . S
C192 C190 1.353 . S
C192 H250 0.930 . S
C193 N189 1.279 1_655 S
C193 C191 1.358 . S
C193 H251 0.930 . S
C194 C197 1.348 1_455 S
C194 C198 1.356 . S
C194 O245 1.325 . S
C195 N196 1.279 . S
C195 C198 1.358 . S
C195 H252 0.930 . S
N196 C195 1.279 . S
N196 C199 1.314 1_455 S
C197 C194 1.348 1_655 S
C197 C199 1.353 . S
C197 H253 0.929 . S
C198 C194 1.356 . S
C198 C195 1.358 . S
C198 H254 0.930 . S
C199 N196 1.314 1_655 S
C199 C197 1.353 . S
C199 H255 0.930 . S
C200 N201 1.314 1_565 S
C200 C205 1.353 . S
C200 H206 0.930 . S
N201 Li184 1.990 . S
N201 C200 1.314 1_545 S
N201 C203 1.279 . S
C202 C203 1.358 . S
C202 C204 1.356 . S
C202 H256 0.930 . S
C203 N201 1.279 . S
C203 C202 1.358 . S
C203 H207 0.930 . S
C204 C202 1.356 . S
C204 C205 1.348 1_545 S
C205 C200 1.353 . S
C205 C204 1.348 1_565 S
C205 H257 0.929 . S
H206 C200 0.930 . S
H207 C203 0.930 . S
C208 N209 1.314 . S
C208 C210 1.353 . S
C208 H214 0.930 . S
N209 Li185 1.990 . S
N209 C208 1.314 . S
N209 C212 1.279 1_545 S
C210 C208 1.353 . S
C210 C213 1.348 . S
C210 H258 0.929 . S
C211 C212 1.358 . S
C211 C213 1.356 1_565 S
C211 H259 0.930 . S
C212 N209 1.279 1_565 S
C212 C211 1.358 . S
C212 H215 0.930 . S
C213 C210 1.348 . S
C213 C211 1.356 1_545 S
H214 C208 0.930 . S
H215 C212 0.930 . S
C216 C218 1.348 1_545 S
C216 C219 1.356 . S
C216 O246 1.325 . S
N217 C220 1.314 1_545 S
N217 C221 1.279 . S
C218 C216 1.348 1_565 S
C218 C220 1.353 . S
C218 H260 0.929 . S
C219 C216 1.356 . S
C219 C221 1.358 . S
C219 H261 0.930 . S
C220 N217 1.314 1_565 S
C220 C218 1.353 . S
C220 H262 0.930 . S
C221 N217 1.279 . S
C221 C219 1.358 . S
C221 H263 0.930 . S
C222 C223 1.348 . S
C222 C224 1.356 1_545 S
C222 O247 1.325 . S
C223 C222 1.348 . S
C223 C225 1.353 . S
C223 H264 0.929 . S
C224 C222 1.356 1_565 S
C224 C226 1.358 . S
C224 H265 0.930 . S
C225 C223 1.353 . S
C225 N227 1.314 . S
C225 H266 0.930 . S
C226 C224 1.358 . S
C226 N227 1.279 1_565 S
C226 H267 0.930 . S
N227 C225 1.314 . S
N227 C226 1.279 1_545 S
C228 C230 1.353 . S
C228 N231 1.314 . S
C228 H234 0.930 . S
C229 N231 1.279 1_655 S
C229 C232 1.358 . S
C229 H235 0.930 . S
C230 C228 1.353 . S
C230 C233 1.348 . S
C230 H268 0.929 . S
N231 Li186 1.990 . S
N231 C228 1.314 . S
N231 C229 1.279 1_455 S
C232 C229 1.358 . S
C232 C233 1.356 1_655 S
C232 H269 0.930 . S
C233 C230 1.348 . S
C233 C232 1.356 1_455 S
H234 C228 0.930 . S
H235 C229 0.930 . S
C236 N237 1.314 1_655 S
C236 C238 1.353 . S
C236 H242 0.930 . S
N237 Li187 1.990 . S
N237 C236 1.314 1_455 S
N237 C240 1.279 . S
C238 C236 1.353 . S
C238 C241 1.348 1_655 S
C238 H270 0.929 . S
C239 C240 1.358 . S
C239 C241 1.356 . S
C239 H271 0.930 . S
C240 N237 1.279 . S
C240 C239 1.358 . S
C240 H243 0.930 . S
C241 C238 1.348 1_455 S
C241 C239 1.356 . S
H242 C236 0.930 . S
H243 C240 0.930 . S
O244 Li184 1.956 1_455 S
O244 Li185 1.970 . S
O244 Li186 1.961 . S
O244 C188 1.325 . S
O245 Li184 1.970 1_465 S
O245 Li185 1.956 1_565 S
O245 Li187 1.961 . S
O245 C194 1.325 . S
O246 Li184 1.961 . S
O246 Li186 1.956 1_655 S
O246 Li187 1.970 1_645 S
O246 C216 1.325 . S
O247 Li185 1.961 . S
O247 Li186 1.970 . S
O247 Li187 1.956 1_545 S
O247 C222 1.325 . S
H248 C190 0.929 . S
H249 C191 0.930 . S
H250 C192 0.930 . S
H251 C193 0.930 . S
H252 C195 0.930 . S
H253 C197 0.929 . S
H254 C198 0.930 . S
H255 C199 0.930 . S
H256 C202 0.930 . S
H257 C205 0.929 . S
H258 C210 0.929 . S
H259 C211 0.930 . S
H260 C218 0.929 . S
H261 C219 0.930 . S
H262 C220 0.930 . S
H263 C221 0.930 . S
H264 C223 0.929 . S
H265 C224 0.930 . S
H266 C225 0.930 . S
H267 C226 0.930 . S
H268 C230 0.929 . S
H269 C232 0.930 . S
H270 C238 0.929 . S
H271 C239 0.930 . S
C272 C273 1.387 . S
C272 H276 0.950 . S
C272 C281 1.390 . S
C273 C272 1.387 . S
C273 C275 1.387 1_545 S
H274 C281 0.950 . S
C275 C273 1.387 1_565 S
C275 C277 1.390 . S
C275 H279 0.950 . S
H276 C272 0.950 . S
C277 C275 1.390 . S
C277 C278 1.387 1_565 S
C277 H280 0.950 . S
C278 C277 1.387 1_545 S
C278 C281 1.387 . S
H279 C275 0.950 . S
H280 C277 0.950 . S
C281 C272 1.390 . S
C281 H274 0.950 . S
C281 C278 1.387 . S
C282 C283 1.387 1_655 S
C282 H286 0.950 . S
C282 C291 1.390 . S
C283 C282 1.387 1_455 S
C283 C285 1.387 . S
H284 C291 0.950 . S
C285 C283 1.387 . S
C285 C287 1.390 . S
C285 H289 0.950 . S
H286 C282 0.950 . S
C287 C285 1.390 . S
C287 C288 1.387 . S
C287 H290 0.950 . S
C288 C287 1.387 . S
C288 C291 1.387 1_455 S
H289 C285 0.950 . S
H290 C287 0.950 . S
C291 C282 1.390 . S
C291 H284 0.950 . S
C291 C288 1.387 1_655 S
C292 C293 1.387 1_565 S
C292 H296 0.950 . S
C292 C301 1.390 . S
C293 C292 1.387 1_545 S
C293 C295 1.387 . S
H294 C301 0.950 . S
C295 C293 1.387 . S
C295 C297 1.390 . S
C295 H299 0.950 . S
H296 C292 0.950 . S
C297 C295 1.390 . S
C297 C298 1.387 . S
C297 H300 0.950 . S
C298 C297 1.387 . S
C298 C301 1.387 1_545 S
H299 C295 0.950 . S
H300 C297 0.950 . S
C301 C292 1.390 . S
C301 H294 0.950 . S
C301 C298 1.387 1_565 S
C302 C303 1.387 . S
C302 H306 0.950 . S
C302 C311 1.390 . S
C303 C302 1.387 . S
C303 C305 1.387 1_455 S
H304 C311 0.950 . S
C305 C303 1.387 1_655 S
C305 C307 1.390 . S
C305 H309 0.950 . S
H306 C302 0.950 . S
C307 C305 1.390 . S
C307 C308 1.387 1_655 S
C307 H310 0.950 . S
C308 C307 1.387 1_455 S
C308 C311 1.387 . S
H309 C305 0.950 . S
H310 C307 0.950 . S
C311 C302 1.390 . S
C311 H304 0.950 . S
C311 C308 1.387 . S
C312 C313 1.387 1_565 S
C312 H316 0.950 . S
C312 C321 1.390 . S
C313 C312 1.387 1_545 S
C313 C315 1.387 . S
H314 C321 0.950 . S
C315 C313 1.387 . S
C315 C317 1.390 . S
C315 H319 0.950 . S
H316 C312 0.950 . S
C317 C315 1.390 . S
C317 C318 1.387 . S
C317 H320 0.950 . S
C318 C317 1.387 . S
C318 C321 1.387 1_545 S
H319 C315 0.950 . S
H320 C317 0.950 . S
C321 C312 1.390 . S
C321 H314 0.950 . S
C321 C318 1.387 1_565 S
C322 C323 1.387 . S
C322 H326 0.950 . S
C322 C331 1.390 . S
C323 C322 1.387 . S
C323 C325 1.387 1_455 S
H324 C331 0.950 . S
C325 C323 1.387 1_655 S
C325 C327 1.390 . S
C325 H329 0.950 . S
H326 C322 0.950 . S
C327 C325 1.390 . S
C327 C328 1.387 1_655 S
C327 H330 0.950 . S
C328 C327 1.387 1_455 S
C328 C331 1.387 . S
H329 C325 0.950 . S
H330 C327 0.950 . S
C331 C322 1.390 . S
C331 H324 0.950 . S
C331 C328 1.387 . S
C332 C333 1.387 1_565 S
C332 H336 0.950 . S
C332 C341 1.390 . S
C333 C332 1.387 1_545 S
C333 C335 1.387 . S
H334 C341 0.950 . S
C335 C333 1.387 . S
C335 C337 1.390 . S
C335 H339 0.950 . S
H336 C332 0.950 . S
C337 C335 1.390 . S
C337 C338 1.387 . S
C337 H340 0.950 . S
C338 C337 1.387 . S
C338 C341 1.387 1_545 S
H339 C335 0.950 . S
H340 C337 0.950 . S
C341 C332 1.390 . S
C341 H334 0.950 . S
C341 C338 1.387 1_565 S
C342 C343 1.387 . S
C342 H346 0.950 . S
C342 C351 1.390 . S
C343 C342 1.387 . S
C343 C345 1.387 1_455 S
H344 C351 0.950 . S
C345 C343 1.387 1_655 S
C345 C347 1.390 . S
C345 H349 0.950 . S
H346 C342 0.950 . S
C347 C345 1.390 . S
C347 C348 1.387 1_655 S
C347 H350 0.950 . S
C348 C347 1.387 1_455 S
C348 C351 1.387 . S
H349 C345 0.950 . S
H350 C347 0.950 . S
C351 C342 1.390 . S
C351 H344 0.950 . S
C351 C348 1.387 . S
C278 C145 1.512 . S
C273 C45 1.507 . S
C288 C233 1.512 . S
C283 C78 1.508 . S
C298 C153 1.512 . S
C293 C21 1.511 . S
C308 C241 1.512 . S
C303 C84 1.511 . S
C318 C213 1.512 . S
C313 C36 1.511 . S
C328 C116 1.512 . S
C323 C69 1.511 . S
C338 C204 1.512 . S
C333 C30 1.508 . S
C343 C93 1.507 . S
C348 C125 1.512 . S
