# Generated by pormake.
# Topology zzz, (3,6)-cn, num edge types: 1
# Building blocks:
#     Node 0, Type 0, BuildingBlock: QEWDON_clean_linker_0, # of connection points: 3
#     Node 1, Type 0, BuildingBlock: QEWDON_clean_linker_0, # of connection points: 3
#     Node 2, Type 0, BuildingBlock: QEWDON_clean_linker_0, # of connection points: 3
#     Node 3, Type 0, BuildingBlock: QEWDON_clean_linker_0, # of connection points: 3
#     Node 4, Type 0, BuildingBlock: QEWDON_clean_linker_0, # of connection points: 3
#     Node 5, Type 0, BuildingBlock: QEWDON_clean_linker_0, # of connection points: 3
#     Node 6, Type 0, BuildingBlock: QEWDON_clean_linker_0, # of connection points: 3
#     Node 7, Type 0, BuildingBlock: QEWDON_clean_linker_0, # of connection points: 3
#     Node 8, Type 1, BuildingBlock: KUMJIN_clean_sbu_0, # of connection points: 6
#     Node 9, Type 1, BuildingBlock: KUMJIN_clean_sbu_0, # of connection points: 6
#     Node 10, Type 1, BuildingBlock: KUMJIN_clean_sbu_0, # of connection points: 6
#     Node 11, Type 1, BuildingBlock: KUMJIN_clean_sbu_0, # of connection points: 6
#     Edge 12, Type (0, 1), BuildingBlock: ZUJKAS_clean_linker_0, # of connection points: 2
#     Edge 13, Type (0, 1), BuildingBlock: ZUJKAS_clean_linker_0, # of connection points: 2
#     Edge 14, Type (0, 1), BuildingBlock: ZUJKAS_clean_linker_0, # of connection points: 2
#     Edge 15, Type (0, 1), BuildingBlock: ZUJKAS_clean_linker_0, # of connection points: 2
#     Edge 16, Type (0, 1), BuildingBlock: ZUJKAS_clean_linker_0, # of connection points: 2
#     Edge 17, Type (0, 1), BuildingBlock: ZUJKAS_clean_linker_0, # of connection points: 2
#     Edge 18, Type (0, 1), BuildingBlock: ZUJKAS_clean_linker_0, # of connection points: 2
#     Edge 19, Type (0, 1), BuildingBlock: ZUJKAS_clean_linker_0, # of connection points: 2
#     Edge 20, Type (0, 1), BuildingBlock: ZUJKAS_clean_linker_0, # of connection points: 2
#     Edge 21, Type (0, 1), BuildingBlock: ZUJKAS_clean_linker_0, # of connection points: 2
#     Edge 22, Type (0, 1), BuildingBlock: ZUJKAS_clean_linker_0, # of connection points: 2
#     Edge 23, Type (0, 1), BuildingBlock: ZUJKAS_clean_linker_0, # of connection points: 2
#     Edge 24, Type (0, 1), BuildingBlock: ZUJKAS_clean_linker_0, # of connection points: 2
#     Edge 25, Type (0, 1), BuildingBlock: ZUJKAS_clean_linker_0, # of connection points: 2
#     Edge 26, Type (0, 1), BuildingBlock: ZUJKAS_clean_linker_0, # of connection points: 2
#     Edge 27, Type (0, 1), BuildingBlock: ZUJKAS_clean_linker_0, # of connection points: 2
#     Edge 28, Type (0, 1), BuildingBlock: ZUJKAS_clean_linker_0, # of connection points: 2
#     Edge 29, Type (0, 1), BuildingBlock: ZUJKAS_clean_linker_0, # of connection points: 2
#     Edge 30, Type (0, 1), BuildingBlock: ZUJKAS_clean_linker_0, # of connection points: 2
#     Edge 31, Type (0, 1), BuildingBlock: ZUJKAS_clean_linker_0, # of connection points: 2
#     Edge 32, Type (0, 1), BuildingBlock: ZUJKAS_clean_linker_0, # of connection points: 2
#     Edge 33, Type (0, 1), BuildingBlock: ZUJKAS_clean_linker_0, # of connection points: 2
#     Edge 34, Type (0, 1), BuildingBlock: ZUJKAS_clean_linker_0, # of connection points: 2
#     Edge 35, Type (0, 1), BuildingBlock: ZUJKAS_clean_linker_0, # of connection points: 2
# Relax obj value: 0.092
# Max RMSD: 0.141
# Mean RMSD: 0.071
data_MOF--net-zzz--node1-KUMJIN_clean_sbu_0--node2-QEWDON_clean_linker_0--edge1-ZUJKAS_clean_linker_0
_symmetry_space_group_name_H-M    P1
_symmetry_Int_Tables_number       1
_symmetry_cell_setting            triclinic
loop_
_symmetry_equiv_pos_as_xyz
'x, y, z'
_cell_length_a     70.146388
_cell_length_b     70.11568
_cell_length_c     18.454964
_cell_angle_alpha  90.675106
_cell_angle_beta   90.019196
_cell_angle_gamma 90.021595
loop_
_atom_site_label
_atom_site_type_symbol
_atom_site_fract_x
_atom_site_fract_y
_atom_site_fract_z
_atom_type_partial_charge
H0 H 0.7618 0.53494 0.03653 0.0
C1 C 0.7718 0.5325 0.08005 0.0
C2 C 0.79127 0.53211 0.06341 0.0
C3 C 0.76534 0.52998 0.1517 0.0
H4 H 0.81964 0.53114 0.10627 0.0
C5 C 0.80461 0.53012 0.11932 0.0
C6 C 0.79905 0.52737 0.19143 0.0
C7 C 0.77927 0.52718 0.20717 0.0
C8 C 0.74421 0.53087 0.16805 0.0
H9 H 0.77489 0.52452 0.2623 0.0
C10 C 0.73003 0.52673 0.11452 0.0
C11 C 0.71034 0.52845 0.1304 0.0
C12 C 0.73796 0.53674 0.23736 0.0
H13 H 0.74796 0.54078 0.2794 0.0
C14 C 0.71858 0.53807 0.25348 0.0
H15 H 0.73405 0.52187 0.06086 0.0
C16 C 0.70491 0.53398 0.20077 0.0
H17 H 0.68999 0.53558 0.21473 0.0
H18 H 0.71412 0.54263 0.30708 0.0
H19 H 0.98599 0.76996 0.06077 0.0
C20 C 0.98986 0.78018 0.10257 0.0
C21 C 0.98433 0.79915 0.09329 0.0
C22 C 0.99978 0.77451 0.16522 0.0
H23 H 0.98376 0.82748 0.13866 0.0
C24 C 0.98812 0.81282 0.14705 0.0
C25 C 0.99809 0.8081 0.20995 0.0
C26 C 1.0043 0.78897 0.21825 0.0
C27 C 1.00407 0.75348 0.17644 0.0
H28 H 0.01238 0.78553 0.26625 0.0
C29 C 1.00498 0.73983 0.11792 0.0
C30 C 1.00654 0.71997 0.13127 0.0
C31 C 1.00573 0.74653 0.2475 0.0
H32 H 1.00462 0.75591 0.29419 0.0
C33 C 1.00806 0.72712 0.26041 0.0
H34 H 1.00405 0.74437 0.06226 0.0
C35 C 1.00827 0.71399 0.20325 0.0
H36 H 1.00971 0.69897 0.21546 0.0
H37 H 1.00924 0.72215 0.31556 0.0
H38 H 0.76638 0.98823 0.09264 0.0
C39 C 0.75598 0.99228 0.13311 0.0
C40 C 0.73752 0.98487 0.12549 0.0
C41 C 0.7608 1.00454 0.19159 0.0
H42 H 0.70937 0.98337 0.1711 0.0
C43 C 0.72371 0.98891 0.17815 0.0
C44 C 0.72759 1.00119 0.23655 0.0
C45 C 0.74599 1.00939 0.24203 0.0
C46 C 0.78116 0.0117 0.20055 0.0
H47 H 0.74852 0.01943 0.28585 0.0
C48 C 0.79482 0.01142 0.14276 0.0
C49 C 0.81412 0.01682 0.15443 0.0
C50 C 0.7875 0.01804 0.26923 0.0
H51 H 0.77831 0.01793 0.31614 0.0
C52 C 0.80615 0.02427 0.27997 0.0
H53 H 0.79078 1.00676 0.08896 0.0
C54 C 0.81929 0.0237 0.22355 0.0
H55 H 0.83364 0.02865 0.23447 0.0
H56 H 0.81057 0.02927 0.33309 0.0
H57 H 0.5393 0.77499 0.08005 0.0
C58 C 0.53696 0.7651 0.12374 0.0
C59 C 0.535 0.74567 0.10657 0.0
C60 C 0.53628 0.77167 0.19626 0.0
H61 H 0.53235 0.71732 0.14972 0.0
C62 C 0.53312 0.73244 0.16257 0.0
C63 C 0.53268 0.73838 0.23517 0.0
C64 C 0.53377 0.75801 0.25186 0.0
C65 C 0.53935 0.7925 0.21337 0.0
H66 H 0.53299 0.76244 0.30815 0.0
C67 C 0.53452 0.80698 0.16328 0.0
C68 C 0.53871 0.82638 0.17796 0.0
C69 C 0.54818 0.79804 0.27887 0.0
H70 H 0.55276 0.7876 0.3179 0.0
C71 C 0.55193 0.81718 0.2943 0.0
H72 H 0.52735 0.80333 0.11309 0.0
C73 C 0.54734 0.83122 0.24442 0.0
H74 H 0.55105 0.84587 0.25725 0.0
H75 H 0.55884 0.82114 0.34474 0.0
H76 H 0.27074 0.50682 0.19162 0.0
C77 C 0.26097 0.50777 0.14659 0.0
C78 C 0.24139 0.50878 0.16175 0.0
C79 C 0.2678 0.50737 0.07461 0.0
H80 H 0.21316 0.5085 0.11528 0.0
C81 C 0.22833 0.50874 0.10415 0.0
C82 C 0.23436 0.5085 0.03204 0.0
C83 C 0.25413 0.50834 0.01725 0.0
C84 C 0.28885 0.50419 0.06048 0.0
H85 H 0.25861 0.50845 0.96121 0.0
C86 C 0.30318 0.50853 0.11332 0.0
C87 C 0.32238 0.50287 0.10288 0.0
C88 C 0.29471 0.49506 0.99574 0.0
H89 H 0.28458 0.49084 0.95444 0.0
C90 C 0.31377 0.49034 0.98395 0.0
H91 H 0.29955 0.51579 0.16345 0.0
C92 C 0.32742 0.494 0.03707 0.0
H93 H 0.34203 0.48973 0.02684 0.0
H94 H 0.3179 0.48329 0.93388 0.0
H95 H 0.03988 0.26985 0.1896 0.0
C96 C 0.03558 0.26004 0.14709 0.0
C97 C 0.04088 0.24087 0.15377 0.0
C98 C 0.02511 0.26626 0.08621 0.0
H99 H 0.04115 0.213 0.10435 0.0
C100 C 0.03665 0.22772 0.09868 0.0
C101 C 0.02645 0.23299 0.03731 0.0
C102 C 0.02015 0.25214 0.03212 0.0
C103 C 0.02023 0.28736 0.07794 0.0
H104 H 0.01163 0.25576 0.98552 0.0
C105 C 0.02079 0.30097 0.13689 0.0
C106 C 0.01749 0.32078 0.12543 0.0
C107 C 0.01586 0.29439 0.00857 0.0
H108 H 0.01595 0.28532 0.96093 0.0
C109 C 0.01171 0.31356 0.99796 0.0
H110 H 0.02405 0.29649 0.19128 0.0
C111 C 0.01248 0.32656 0.05531 0.0
H112 H 1.00921 0.34134 0.04433 0.0
H113 H 1.00819 0.31848 0.9442 0.0
H114 H 0.261 0.05403 0.12137 0.0
C115 C 0.27092 0.05043 0.07863 0.0
C116 C 0.29 0.05563 0.0886 0.0
C117 C 0.26495 0.04093 0.01447 0.0
H118 H 0.31821 0.05569 0.04315 0.0
C119 C 0.30337 0.05194 0.03411 0.0
C120 C 0.2984 0.04217 0.97077 0.0
C121 C 0.27924 0.03627 0.9615 0.0
C122 C 0.24394 0.03666 1.00231 0.0
H123 H 0.27572 0.02817 0.91314 0.0
C124 C 0.23032 0.03621 0.06011 0.0
C125 C 0.21051 0.03408 0.04621 0.0
C126 C 0.23701 0.0342 0.93108 0.0
H127 H 0.24631 0.03506 0.88459 0.0
C128 C 0.2177 0.03117 0.91759 0.0
H129 H 0.23482 0.03785 0.11579 0.0
C130 C 0.2046 0.03116 0.97418 0.0
H131 H 0.1897 0.0289 0.96126 0.0
H132 H 0.21278 0.02919 0.8624 0.0
H133 H 0.51258 0.26778 0.16709 0.0
C134 C 0.50999 0.27715 0.12194 0.0
C135 C 0.50734 0.29661 0.13652 0.0
C136 C 0.51024 0.27003 0.05011 0.0
H137 H 0.5029 0.32432 0.09042 0.0
C138 C 0.50488 0.30924 0.07897 0.0
C139 C 0.50531 0.30282 0.0069 0.0
C140 C 0.50791 0.28319 0.99262 0.0
C141 C 0.51373 0.24911 0.0359 0.0
H142 H 0.50781 0.27831 0.93679 0.0
C143 C 0.50875 0.23502 0.08738 0.0
C144 C 0.51297 0.21554 0.07506 0.0
C145 C 0.52284 0.24307 0.97159 0.0
H146 H 0.52755 0.2532 0.93162 0.0
C147 C 0.52661 0.22381 0.95849 0.0
H148 H 0.5014 0.239 0.13681 0.0
C149 C 0.52177 0.21016 0.00961 0.0
H150 H 0.52541 0.19539 0.99865 0.0
H151 H 0.53368 0.21946 0.90885 0.0
Eu152 Eu 0.02689 0.01863 0.67719 0.0
C153 C 0.96014 1.01026 0.45967 0.0
C154 C 0.96912 0.98283 0.38602 0.0
C155 C 0.93564 0.98994 0.40606 0.0
C156 C 0.97419 0.99844 0.43108 0.0
C157 C 0.94073 1.00646 0.44528 0.0
C158 C 0.94981 0.97817 0.37632 0.0
C159 C 0.93297 0.03701 0.49945 0.0
N160 N 0.9655 0.02643 0.4956 0.0
C161 C 0.95237 0.04022 0.51225 0.0
C162 C 0.92708 0.01987 0.46735 0.0
Eu163 Eu 0.99856 0.02974 0.51862 0.0
N164 N 0.99275 1.00345 0.4403 0.0
C165 C 1.00656 0.99527 0.39807 0.0
C166 C 0.98352 0.97319 0.34803 0.0
C167 C 1.00222 0.97988 0.35224 0.0
H168 H 0.9567 0.05356 0.53676 0.0
H169 H 0.01333 0.97332 0.31996 0.0
H170 H 0.94568 0.96604 0.34296 0.0
H171 H 0.92257 0.04775 0.51448 0.0
H172 H 0.02106 1.00026 0.40025 0.0
H173 H 0.99991 0.0661 0.89433 0.0
H174 H 0.98021 0.96125 0.31239 0.0
H175 H 0.0724 1.00758 0.64094 0.0
H176 H 0.99781 0.04088 0.80338 0.0
H177 H 0.10472 0.01977 0.66788 0.0
H178 H 0.9208 0.98666 0.39541 0.0
H179 H 0.03057 0.08225 0.91845 0.0
H180 H 0.06554 0.08462 0.89408 0.0
H181 H 0.91205 0.01748 0.45716 0.0
H182 H 0.09406 0.07207 0.8326 0.0
N183 N 0.02713 0.04235 0.77169 0.0
C184 C 0.01145 0.04742 0.8118 0.0
C185 C 0.02982 0.07101 0.87773 0.0
C186 C 0.04607 0.06513 0.83989 0.0
C187 C 0.01252 0.06191 0.86435 0.0
C188 C 0.04431 0.05045 0.78712 0.0
H189 H 0.10884 0.04774 0.74931 0.0
N190 N 0.05837 0.02874 0.70502 0.0
C191 C 0.09238 0.02664 0.69181 0.0
C192 C 0.06038 0.04348 0.75249 0.0
C193 C 0.07408 0.01976 0.67685 0.0
C194 C 0.09463 0.04246 0.73759 0.0
C195 C 0.07858 0.05088 0.76957 0.0
O196 O 0.04325 0.99814 0.74017 0.0
O197 O 0.01125 1.00554 0.58202 0.0
O198 O 0.97679 0.02018 0.60229 0.0
O199 O 0.99514 0.02002 0.70813 0.0
O200 O 0.03838 0.99545 0.60214 0.0
O201 O 0.01259 0.99796 0.74664 0.0
O202 O 0.99441 0.03786 0.40565 0.0
O203 O 0.0141 0.04216 0.614 0.0
O204 O 0.04592 0.03246 0.59121 0.0
O205 O 0.02952 0.02433 0.48661 0.0
O206 O 0.98813 0.05448 0.5891 0.0
O207 O 1.00797 0.05755 0.4794 0.0
C208 C 0.02334 0.9929 0.56322 0.0
C209 C 0.02785 0.96807 0.73536 0.0
C210 C 1.00989 0.9386 0.71762 0.0
C211 C 0.01155 0.95696 0.74827 0.0
C212 C 0.02464 0.93134 0.67402 0.0
C213 C 0.04286 0.96017 0.69405 0.0
C214 C 0.04113 0.942 0.66315 0.0
C215 C 0.9785 0.01879 0.67367 0.0
C216 C 0.02821 0.9884 0.75802 0.0
C217 C 0.08024 0.06607 0.81942 0.0
C218 C 0.06401 0.07319 0.85446 0.0
C219 C 1.00248 0.05519 0.63307 0.0
C220 C 0.02077 0.05553 0.36144 0.0
C221 C 0.033 0.07129 0.36919 0.0
C222 C 0.04872 0.07352 0.32297 0.0
C223 C 0.05232 0.05972 0.26903 0.0
C224 C 0.0246 0.04183 0.30699 0.0
C225 C 0.04034 0.04393 0.26139 0.0
C226 C 0.04528 0.0299 0.51999 0.0
C227 C 1.00457 0.05329 0.41199 0.0
H228 H 1.00001 0.9627 0.78098 0.0
H229 H 0.02367 0.91715 0.65038 0.0
H230 H 0.05572 0.96822 0.68346 0.0
H231 H 0.05258 0.93622 0.63032 0.0
H232 H 0.03001 0.0821 0.41015 0.0
H233 H 0.06432 0.06126 0.2326 0.0
H234 H 0.01555 0.02944 0.2998 0.0
H235 H 0.04322 0.03329 0.21983 0.0
Eu236 Eu 0.52041 0.03752 0.71137 0.0
C237 C 0.535 0.96876 0.49644 0.0
C238 C 0.56064 0.97869 0.41773 0.0
C239 C 0.55617 0.94504 0.44268 0.0
C240 C 0.5451 0.98312 0.46347 0.0
C241 C 0.54014 0.9495 0.48522 0.0
C242 C 0.56641 0.95962 0.40899 0.0
C243 C 0.5123 0.94044 0.55366 0.0
N244 N 0.5195 0.97356 0.5364 0.0
C245 C 0.50778 0.95973 0.5631 0.0
C246 C 0.5287 0.93529 0.51534 0.0
Eu247 Eu 0.51296 1.00652 0.55285 0.0
N248 N 0.539 1.00134 0.47256 0.0
C249 C 0.5468 0.0156 0.43236 0.0
C250 C 0.5695 0.99348 0.38023 0.0
C251 C 0.56233 0.01197 0.38666 0.0
H252 H 0.49515 0.96355 0.59329 0.0
H253 H 0.5688 0.02347 0.35676 0.0
H254 H 0.57843 0.95596 0.37469 0.0
H255 H 0.50317 0.92956 0.5762 0.0
H256 H 0.54154 0.02999 0.43678 0.0
H257 H 0.46804 0.01195 0.91129 0.0
H258 H 0.58152 0.9907 0.34479 0.0
H259 H 0.53227 0.08275 0.67543 0.0
H260 H 0.49515 1.00911 0.83021 0.0
H261 H 0.51965 0.11525 0.69624 0.0
H262 H 0.56045 0.93034 0.43395 0.0
H263 H 0.45167 0.04284 0.92755 0.0
H264 H 0.45015 0.07763 0.90079 0.0
H265 H 0.53216 0.92033 0.50796 0.0
H266 H 0.46407 0.1057 0.84239 0.0
N267 N 0.49479 0.03825 0.79707 0.0
C268 C 0.48866 0.02287 0.8358 0.0
C269 C 0.46382 0.04178 0.89146 0.0
C270 C 0.47066 0.05775 0.85515 0.0
C271 C 0.47304 0.02435 0.88252 0.0
C272 C 0.48647 0.05559 0.8082 0.0
H273 H 0.49008 0.11989 0.76724 0.0
N274 N 0.50981 0.06915 0.73262 0.0
C275 C 0.51228 0.10307 0.71835 0.0
C276 C 0.49417 0.07144 0.77489 0.0
C277 C 0.5194 0.08468 0.70682 0.0
C278 C 0.49557 0.10561 0.75826 0.0
C279 C 0.48647 0.08976 0.78813 0.0
O280 O 0.53698 0.05434 0.78949 0.0
O281 O 0.53474 0.02144 0.62139 0.0
O282 O 0.52675 0.98858 0.64014 0.0
O283 O 0.51811 1.00607 0.74341 0.0
O284 O 0.54442 0.04886 0.64064 0.0
O285 O 0.54295 0.02442 0.77614 0.0
O286 O 0.48649 0.99629 0.50445 0.0
O287 O 0.49865 0.02377 0.64071 0.0
O288 O 0.50817 0.05562 0.6206 0.0
O289 O 0.51573 0.0376 0.51811 0.0
O290 O 0.48731 0.99722 0.61929 0.0
O291 O 0.50367 0.01733 0.44828 0.0
C292 C 0.5473 0.03346 0.60341 0.0
C293 C 0.5694 0.04515 0.78099 0.0
C294 C 0.60178 0.03375 0.75767 0.0
C295 C 0.5833 0.03077 0.78508 0.0
C296 C 0.60614 0.05133 0.72566 0.0
C297 C 0.57435 0.06284 0.75098 0.0
C298 C 0.59256 0.0658 0.72311 0.0
C299 C 0.52402 0.99006 0.7111 0.0
C300 C 0.54934 0.0408 0.79944 0.0
C301 C 0.4703 0.09178 0.83229 0.0
C302 C 0.4624 0.0758 0.86561 0.0
C303 C 0.48537 0.01248 0.65794 0.0
C304 C 0.48153 0.99948 0.37849 0.0
C305 C 0.46633 1.00896 0.34637 0.0
C306 C 0.45781 1.00178 0.28327 0.0
C307 C 0.46492 0.98495 0.25136 0.0
C308 C 0.48888 0.98285 0.34632 0.0
C309 C 0.4806 0.97568 0.28241 0.0
C310 C 0.51047 0.05382 0.54968 0.0
C311 C 0.4882 1.00706 0.44782 0.0
H312 H 0.57964 0.01726 0.8094 0.0
H313 H 0.62007 0.05392 0.70245 0.0
H314 H 0.564 0.07422 0.74661 0.0
H315 H 0.59609 0.0793 0.69861 0.0
H316 H 0.46051 0.02161 0.37269 0.0
H317 H 0.45834 0.979 0.20303 0.0
H318 H 0.50067 0.97535 0.37102 0.0
H319 H 0.48611 0.96274 0.25767 0.0
Eu320 Eu 0.53428 0.51401 0.54287 0.0
C321 C 0.45874 0.50651 0.72841 0.0
C322 C 0.43397 0.52148 0.65776 0.0
C323 C 0.42584 0.49603 0.74052 0.0
C324 C 0.45334 0.51957 0.67706 0.0
C325 C 0.44502 0.49484 0.76191 0.0
C326 C 0.42032 0.50934 0.6885 0.0
C327 C 0.46996 0.48281 0.8392 0.0
N328 N 0.47731 0.5059 0.74825 0.0
C329 C 0.48301 0.4947 0.80444 0.0
C330 C 0.45091 0.4827 0.81724 0.0
Eu331 Eu 0.49897 0.52551 0.68441 0.0
N332 N 0.46689 0.53111 0.64884 0.0
C333 C 0.46176 0.54588 0.60528 0.0
C334 C 0.42882 0.5359 0.60985 0.0
C335 C 0.44276 0.54832 0.58431 0.0
H336 H 0.49774 0.49454 0.82132 0.0
H337 H 0.4389 0.55974 0.5482 0.0
H338 H 0.40541 0.51046 0.67377 0.0
H339 H 0.47463 0.47369 0.88264 0.0
H340 H 0.47229 0.55557 0.5846 0.0
H341 H 0.59206 0.47559 0.67787 0.0
H342 H 0.41411 0.53785 0.59369 0.0
H343 H 0.53765 0.54728 0.41516 0.0
H344 H 0.5592 0.48137 0.63869 0.0
H345 H 0.56196 0.56856 0.36246 0.0
H346 H 0.41512 0.48707 0.76513 0.0
H347 H 0.61785 0.49748 0.64118 0.0
H348 H 0.62804 0.52599 0.56989 0.0
H349 H 0.44082 0.4735 0.84431 0.0
H350 H 0.61987 0.55132 0.48401 0.0
N351 N 0.56581 0.50673 0.5813 0.0
C352 C 0.57013 0.4911 0.6217 0.0
C353 C 0.60336 0.50014 0.6237 0.0
C354 C 0.59906 0.51553 0.57904 0.0
C355 C 0.58885 0.48773 0.6443 0.0
C356 C 0.57994 0.51836 0.55786 0.0
H357 H 0.59535 0.56709 0.40544 0.0
N358 N 0.55704 0.5342 0.48793 0.0
C359 C 0.56594 0.55856 0.40403 0.0
C360 C 0.57539 0.53258 0.50979 0.0
C361 C 0.55224 0.54645 0.43377 0.0
C362 C 0.58474 0.55773 0.42862 0.0
C363 C 0.58975 0.54442 0.4813 0.0
O364 O 0.53398 0.50739 0.4273 0.0
O365 O 0.50329 0.51576 0.57036 0.0
O366 O 0.4969 0.49362 0.66266 0.0
O367 O 0.5269 0.48792 0.61214 0.0
O368 O 0.511 0.52611 0.47049 0.0
O369 O 0.53755 0.48461 0.5043 0.0
O370 O 0.50316 0.53503 0.79637 0.0
O371 O 0.52994 0.52345 0.65665 0.0
O372 O 0.53609 0.54584 0.56827 0.0
O373 O 0.50538 0.55098 0.6114 0.0
O374 O 0.52216 0.51334 0.75677 0.0
O375 O 0.49313 0.555 0.71645 0.0
C376 C 0.49677 0.52265 0.51241 0.0
C377 C 0.51644 0.4791 0.40613 0.0
C378 C 0.49445 0.45201 0.40521 0.0
C379 C 0.51132 0.46082 0.42992 0.0
C380 C 0.48268 0.46185 0.35643 0.0
C381 C 0.50472 0.48834 0.35565 0.0
C382 C 0.48798 0.47976 0.33125 0.0
C383 C 0.51098 0.48194 0.64385 0.0
C384 C 0.53311 0.48905 0.43787 0.0
C385 C 0.60867 0.54224 0.50471 0.0
C386 C 0.61332 0.52782 0.55355 0.0
C387 C 0.53638 0.51633 0.7143 0.0
C388 C 0.51794 0.56542 0.79369 0.0
C389 C 0.51874 0.58371 0.76334 0.0
C390 C 0.53545 0.59476 0.76823 0.0
C391 C 0.55142 0.58727 0.80413 0.0
C392 C 0.53401 0.55843 0.83059 0.0
C393 C 0.55062 0.56928 0.83529 0.0
C394 C 0.52164 0.55734 0.58398 0.0
C395 C 0.50129 0.55295 0.77943 0.0
H396 H 0.52063 0.45339 0.46699 0.0
H397 H 0.46948 0.45564 0.33699 0.0
H398 H 0.50827 0.50237 0.33577 0.0
H399 H 0.47914 0.48705 0.29245 0.0
H400 H 0.50647 0.58922 0.73467 0.0
H401 H 0.56437 0.59555 0.81025 0.0
H402 H 0.53396 0.5444 0.85448 0.0
H403 H 0.56296 0.56372 0.86318 0.0
Eu404 Eu 0.02195 0.53475 0.54929 0.0
C405 C 0.02299 0.46542 0.76007 0.0
C406 C 1.00575 0.44049 0.69633 0.0
C407 C 0.03071 0.43214 0.78154 0.0
C408 C 1.0093 0.46001 0.71027 0.0
C409 C 0.03359 0.45156 0.79753 0.0
C410 C 0.01682 0.42661 0.73095 0.0
C411 C 0.04799 0.47704 0.86778 0.0
N412 N 0.02531 0.48425 0.77452 0.0
C413 C 0.03713 0.49022 0.82925 0.0
C414 C 0.0464 0.45762 0.85121 0.0
Eu415 Eu 1.00763 0.50602 0.70375 0.0
N416 N 0.99882 0.47381 0.67809 0.0
C417 C 0.98356 0.46891 0.63563 0.0
C418 C 0.99085 0.43548 0.6495 0.0
C419 C 0.97953 0.44976 0.61992 0.0
H420 H 0.03861 0.50524 0.84163 0.0
H421 H 0.96773 0.44605 0.58467 0.0
H422 H 0.01442 0.41157 0.72033 0.0
H423 H 0.05766 0.48188 0.90985 0.0
H424 H 0.97465 0.47959 0.61157 0.0
H425 H 0.06182 0.59458 0.66953 0.0
H426 H 0.98769 0.42067 0.63721 0.0
H427 H 0.99255 0.53574 0.40693 0.0
H428 H 0.05441 0.56111 0.64401 0.0
H429 H 0.97458 0.55916 0.33495 0.0
H430 H 0.03884 0.42128 0.8092 0.0
H431 H 0.04261 0.62008 0.61415 0.0
H432 H 0.01607 0.62932 0.53043 0.0
H433 H 0.05482 0.44743 0.88114 0.0
H434 H 0.99227 0.61969 0.43902 0.0
N435 N 0.03056 0.56699 0.57612 0.0
C436 C 0.04575 0.57182 0.6191 0.0
C437 C 0.03908 0.60528 0.6032 0.0
C438 C 0.02418 0.60036 0.55629 0.0
C439 C 0.05004 0.59094 0.63409 0.0
C440 C 0.02039 0.58085 0.543 0.0
H441 H 0.97706 0.59359 0.36445 0.0
N442 N 1.00492 0.55667 0.47684 0.0
C443 C 0.98362 0.56396 0.37906 0.0
C444 C 1.00711 0.57549 0.49166 0.0
C445 C 0.99388 0.55075 0.41977 0.0
C446 C 0.98499 0.58337 0.3961 0.0
C447 C 0.99709 0.58939 0.45218 0.0
O448 O 0.02981 0.52864 0.43704 0.0
O449 O 0.01815 0.50496 0.5901 0.0
O450 O 0.03949 0.50128 0.68756 0.0
O451 O 0.04732 0.52881 0.62525 0.0
O452 O 1.00777 0.51028 0.48787 0.0
O453 O 0.05184 0.53473 0.51576 0.0
O454 O 1.00023 0.51196 0.81657 0.0
O455 O 0.01122 0.53585 0.66283 0.0
O456 O 0.98979 0.53867 0.56132 0.0
O457 O 0.98216 0.51188 0.62891 0.0
O458 O 0.02199 0.53048 0.76448 0.0
O459 O 0.97788 0.50595 0.73896 0.0
C460 C 1.01041 0.49719 0.53514 0.0
C461 C 0.05718 0.50892 0.43475 0.0
C462 C 0.08457 0.48773 0.44564 0.0
C463 C 0.07593 0.50555 0.45783 0.0
C464 C 0.07418 0.4731 0.41112 0.0
C465 C 0.0471 0.49415 0.39924 0.0
C466 C 0.05552 0.47632 0.38827 0.0
C467 C 0.05217 0.51392 0.66514 0.0
C468 C 0.04787 0.52733 0.45235 0.0
C469 C 0.99998 0.60881 0.46816 0.0
C470 C 0.01353 0.61429 0.52018 0.0
C471 C 0.01912 0.5436 0.71751 0.0
C472 C 0.97293 0.5318 0.82043 0.0
C473 C 0.95457 0.53591 0.79428 0.0
C474 C 0.94633 0.55395 0.80643 0.0
C475 C 0.95674 0.56799 0.84432 0.0
C476 C 0.98293 0.546 0.85945 0.0
C477 C 0.97491 0.56399 0.87072 0.0
C478 C 0.97721 0.52628 0.58672 0.0
C479 C 0.9821 0.51333 0.8022 0.0
H480 H 0.08396 0.51692 0.48404 0.0
H481 H 0.0806 0.45927 0.40112 0.0
H482 H 0.0326 0.49621 0.38076 0.0
H483 H 0.04758 0.46499 0.36168 0.0
H484 H 0.94658 0.52498 0.7654 0.0
H485 H 0.95075 0.58203 0.85405 0.0
H486 H 0.99712 0.5434 0.88021 0.0
H487 H 0.98283 0.57489 0.89992 0.0
H488 H 0.2108 0.01888 0.18467 0.0
H489 H 0.18488 0.01936 0.27442 0.0
H490 H 0.1503 0.05239 0.1292 0.0
H491 H 0.17618 0.05259 0.04126 0.0
H492 H 0.146 0.06543 0.26441 0.0
H493 H 0.13754 0.98674 0.26412 0.0
H494 H 0.16089 0.99483 0.28981 0.0
H495 H 0.15237 0.99879 0.1993 0.0
C496 C 0.19777 0.02644 0.17224 0.0
C497 C 0.19559 0.03542 0.10482 0.0
C498 C 0.18281 0.02651 0.22336 0.0
C499 C 0.16529 0.03553 0.20832 0.0
C500 C 0.16347 0.04515 0.14237 0.0
H501 H 0.05244 0.01558 0.38391 0.0
H502 H 0.08164 0.0178 0.3126 0.0
C503 C 0.17833 0.04511 0.09161 0.0
C504 C 0.14864 0.03484 0.25975 0.0
H505 H 0.11777 1.00432 0.34385 0.0
C506 C 0.13995 0.05204 0.28212 0.0
C507 C 0.14035 0.01742 0.28221 0.0
C508 C 0.14811 0.99838 0.2572 0.0
C509 C 0.12336 0.05229 0.32556 0.0
C510 C 0.11529 0.03488 0.34888 0.0
C511 C 0.124 0.0177 0.32682 0.0
C512 C 0.09732 0.0341 0.39302 0.0
C513 C 0.11414 0.07119 0.34364 0.0
C514 C 0.09617 0.04252 0.46254 0.0
C515 C 0.07932 0.04134 0.50367 0.0
C516 C 0.06319 0.03165 0.4764 0.0
C517 C 0.06442 0.02329 0.40678 0.0
C518 C 0.08123 0.02444 0.36587 0.0
H519 H 0.11948 0.08281 0.30859 0.0
H520 H 0.09842 0.07024 0.33758 0.0
H521 H 0.11732 0.07512 0.40078 0.0
H522 H 0.1084 0.04982 0.48551 0.0
H523 H 0.07892 0.04806 0.55677 0.0
H524 H 0.49734 0.18003 0.05499 0.0
H525 H 0.49461 0.15438 0.14318 0.0
H526 H 0.51743 0.19153 0.30952 0.0
H527 H 0.52035 0.21729 0.22114 0.0
H528 H 0.53595 0.15546 0.29778 0.0
H529 H 0.45746 0.14698 0.3144 0.0
H530 H 0.4667 0.14711 0.2236 0.0
H531 H 0.46863 0.1682 0.27943 0.0
C532 C 0.50159 0.18283 0.11053 0.0
C533 C 0.50908 0.20075 0.13091 0.0
C534 C 0.49989 0.16817 0.16107 0.0
C535 C 0.50565 0.17103 0.23327 0.0
C536 C 0.51277 0.18901 0.25426 0.0
H537 H 0.49291 0.08785 0.5836 0.0
H538 H 0.49164 0.11683 0.51049 0.0
C539 C 0.51432 0.20377 0.20379 0.0
C540 C 0.50545 0.15485 0.28514 0.0
H541 H 0.47625 0.12197 0.36432 0.0
C542 C 0.52287 0.14825 0.31278 0.0
C543 C 0.48839 0.14548 0.30527 0.0
C544 C 0.46919 0.15237 0.27975 0.0
C545 C 0.52375 0.13223 0.35792 0.0
C546 C 0.50678 0.12241 0.37574 0.0
C547 C 0.48928 0.12937 0.35014 0.0
C548 C 0.50705 0.10467 0.41958 0.0
C549 C 0.54288 0.12588 0.38624 0.0
C550 C 0.5158 0.08807 0.39238 0.0
C551 C 0.51655 0.0715 0.43398 0.0
C552 C 0.50864 0.07115 0.50409 0.0
C553 C 0.49947 0.08769 0.53052 0.0
C554 C 0.49862 0.10425 0.48859 0.0
H555 H 0.55379 0.1373 0.38192 0.0
H556 H 0.54179 0.12153 0.44376 0.0
H557 H 0.54785 0.11337 0.35406 0.0
H558 H 0.52214 0.08794 0.33886 0.0
H559 H 0.52363 0.05907 0.41146 0.0
H560 H 0.34595 0.47541 0.1547 0.0
H561 H 0.37294 0.47894 0.23729 0.0
H562 H 0.36051 0.5389 0.26203 0.0
H563 H 0.33299 0.53521 0.18029 0.0
H564 H 0.40387 0.49845 0.21572 0.0
H565 H 0.37144 0.52611 0.46947 0.0
H566 H 0.35734 0.51627 0.39621 0.0
H567 H 0.36598 0.5404 0.39215 0.0
C568 C 0.34877 0.48931 0.17858 0.0
C569 C 0.33731 0.50504 0.1606 0.0
C570 C 0.36427 0.49133 0.22594 0.0
C571 C 0.36891 0.50917 0.2568 0.0
C572 C 0.35714 0.52486 0.2406 0.0
H573 H 0.4806 0.54469 0.41012 0.0
H574 H 0.44924 0.54123 0.35288 0.0
C575 C 0.3414 0.52279 0.19353 0.0
C576 C 0.38693 0.51133 0.30041 0.0
H577 H 0.40547 0.52717 0.46248 0.0
C578 C 0.4041 0.50469 0.26976 0.0
C579 C 0.38745 0.51925 0.37157 0.0
C580 C 0.36955 0.52575 0.40968 0.0
C581 C 0.42155 0.50598 0.30719 0.0
C582 C 0.42216 0.51435 0.37723 0.0
C583 C 0.40506 0.52081 0.40867 0.0
C584 C 0.44066 0.51703 0.41659 0.0
C585 C 0.43927 0.49793 0.27242 0.0
C586 C 0.44634 0.50465 0.47209 0.0
C587 C 0.46438 0.50661 0.50505 0.0
C588 C 0.47696 0.52116 0.48371 0.0
C589 C 0.47115 0.53352 0.42846 0.0
C590 C 0.45321 0.53157 0.3957 0.0
H591 H 0.43638 0.49127 0.21862 0.0
H592 H 0.45002 0.50939 0.26559 0.0
H593 H 0.44545 0.48699 0.30847 0.0
H594 H 0.43699 0.49322 0.48881 0.0
H595 H 0.46862 0.49656 0.54616 0.0
H596 H 0.03415 0.35593 0.11356 0.0
H597 H 0.0339 0.38254 0.19888 0.0
H598 H 1.00601 0.3475 0.35723 0.0
H599 H 1.00535 0.32073 0.26946 0.0
H600 H 0.98938 0.38103 0.35649 0.0
H601 H 0.06633 0.396 0.3664 0.0
H602 H 0.05829 0.39651 0.27438 0.0
H603 H 0.05701 0.37459 0.32445 0.0
C604 C 0.02797 0.35371 0.16656 0.0
C605 C 0.0196 0.33601 0.18376 0.0
C606 C 0.0281 0.36903 0.21615 0.0
C607 C 0.02027 0.36724 0.28584 0.0
C608 C 0.01229 0.34943 0.30422 0.0
H609 H 0.03454 0.46818 0.58066 0.0
H610 H 0.03665 0.43545 0.53087 0.0
C611 C 0.01206 0.33399 0.25407 0.0
C612 C 0.01944 0.38435 0.33664 0.0
H613 H 0.04572 0.42234 0.40044 0.0
C614 C 1.00181 0.38985 0.36677 0.0
C615 C 0.0356 0.39595 0.35234 0.0
C616 C 0.05539 0.39032 0.32832 0.0
C617 C 0.99973 0.40684 0.40817 0.0
C618 C 0.01557 0.41923 0.41863 0.0
C619 C 0.0334 0.41323 0.39187 0.0
C620 C 0.01372 0.43879 0.45329 0.0
C621 C 0.98047 0.41124 0.44055 0.0
C622 C 1.0003 0.45188 0.42678 0.0
C623 C 0.99894 0.4704 0.45587 0.0
C624 C 0.011 0.47662 0.51232 0.0
C625 C 0.02463 0.46371 0.53877 0.0
C626 C 0.02595 0.44501 0.50967 0.0
H627 H 0.97237 0.39795 0.45131 0.0
H628 H 0.98177 0.41949 0.49201 0.0
H629 H 0.97204 0.41974 0.40159 0.0
H630 H 0.99111 0.44796 0.38189 0.0
H631 H 0.98857 0.48008 0.433 0.0
H632 H 0.85122 1.0053 0.17118 0.0
H633 H 0.87697 1.00507 0.0831 0.0
H634 H 0.83771 0.0224 0.91664 0.0
H635 H 0.81185 0.02375 0.0063 0.0
H636 H 0.88421 0.9855 0.96599 0.0
H637 H 0.87834 0.06126 0.88576 0.0
H638 H 0.86528 0.05175 0.96129 0.0
H639 H 0.85698 0.04776 0.87005 0.0
C640 C 0.84798 1.00939 0.11615 0.0
C641 C 0.82934 0.01499 0.09686 0.0
C642 C 0.86281 1.00905 0.06531 0.0
C643 C 0.85962 0.01416 0.99293 0.0
C644 C 0.84086 0.01895 0.97238 0.0
H645 H 0.94099 0.01734 0.62813 0.0
H646 H 0.91207 0.016 0.70193 0.0
C647 C 0.82593 0.01944 0.02368 0.0
C648 C 0.87606 0.01426 0.94024 0.0
H649 H 0.90105 0.04245 0.82272 0.0
C650 C 0.88781 0.99801 0.93479 0.0
C651 C 0.88102 0.03052 0.89902 0.0
C652 C 0.86988 0.04888 0.90465 0.0
C653 C 0.90417 0.99758 0.89025 0.0
C654 C 0.90915 0.01384 0.84967 0.0
C655 C 0.89727 0.02996 0.85367 0.0
C656 C 0.92691 0.01454 0.80436 0.0
C657 C 0.91602 0.97965 0.88668 0.0
C658 C 0.94504 0.01418 0.83681 0.0
C659 C 0.96169 0.01527 0.79458 0.0
C660 C 0.96071 0.01677 0.71849 0.0
C661 C 0.94248 0.0167 0.68622 0.0
C662 C 0.92583 0.01582 0.72855 0.0
H663 H 0.90824 0.96716 0.90839 0.0
H664 H 0.92039 0.97644 0.83 0.0
H665 H 0.92916 0.98176 0.91936 0.0
H666 H 0.94634 0.01329 0.89516 0.0
H667 H 0.97533 0.015 0.82195 0.0
H668 H 0.52445 0.86229 0.20262 0.0
H669 H 0.52208 0.88859 0.1174 0.0
H670 H 0.54244 0.85182 0.94535 0.0
H671 H 0.54493 0.82537 0.03064 0.0
H672 H 0.55199 0.90442 0.04123 0.0
H673 H 0.49663 0.87749 0.85066 0.0
H674 H 0.50054 0.86708 0.93844 0.0
H675 H 0.51637 0.86163 0.8645 0.0
C676 C 0.52831 0.85971 0.14654 0.0
C677 C 0.53497 0.84167 0.12374 0.0
C678 C 0.5269 0.87479 0.09776 0.0
C679 C 0.53197 0.87225 0.02468 0.0
C680 C 0.53811 0.85411 1.00107 0.0
H681 H 0.53754 0.95467 0.66936 0.0
H682 H 0.54018 0.92594 0.7428 0.0
C683 C 0.53951 0.83896 0.04998 0.0
C684 C 0.53189 0.88892 0.97492 0.0
H685 H 0.51192 0.90641 0.82 0.0
C686 C 0.5432 0.90483 0.99291 0.0
C687 C 0.52057 0.88946 0.91138 0.0
C688 C 0.5077 0.87309 0.89014 0.0
C689 C 0.5435 0.92121 0.94954 0.0
C690 C 0.53186 0.92194 0.88691 0.0
C691 C 0.52082 0.90589 0.86801 0.0
C692 C 0.53045 0.93948 0.84199 0.0
C693 C 0.55649 0.93749 0.97082 0.0
C694 C 0.52406 0.95672 0.8729 0.0
C695 C 0.5224 0.97315 0.83091 0.0
C696 C 0.52683 0.97275 0.75647 0.0
C697 C 0.53352 0.9555 0.72588 0.0
C698 C 0.53514 0.93903 0.76797 0.0
H699 H 0.56836 0.93263 0.00597 0.0
H700 H 0.56264 0.94443 0.92234 0.0
H701 H 0.5482 0.94832 1.00173 0.0
H702 H 0.52011 0.95745 0.92959 0.0
H703 H 0.51751 0.98611 0.85713 0.0
H704 H 0.67831 0.5065 0.1422 0.0
H705 H 0.65115 0.50451 0.05951 0.0
H706 H 0.67989 0.54199 0.9115 0.0
H707 H 0.70743 0.5435 0.99361 0.0
H708 H 0.62807 0.53189 0.02303 0.0
H709 H 0.65998 0.50372 0.76875 0.0
H710 H 0.67264 0.50361 0.85388 0.0
H711 H 0.67127 0.52509 0.80165 0.0
C712 C 0.67901 0.51403 0.09135 0.0
C713 C 0.69512 0.52511 0.07454 0.0
C714 C 0.6634 0.51294 0.04401 0.0
C715 C 0.6633 0.52298 0.97844 0.0
C716 C 0.67961 0.53369 0.96056 0.0
H717 H 0.56506 0.54212 0.68327 0.0
H718 H 0.59654 0.54464 0.74242 0.0
C719 C 0.6954 0.5346 0.00772 0.0
C720 C 0.64555 0.5232 0.93252 0.0
H721 H 0.62785 0.5143 0.76198 0.0
C722 C 0.62814 0.52799 0.96598 0.0
C723 C 0.64539 0.51829 0.85761 0.0
C724 C 0.66328 0.51221 0.81841 0.0
C725 C 0.61078 0.52778 0.92758 0.0
C726 C 0.61058 0.52262 0.85321 0.0
C727 C 0.62797 0.51831 0.81889 0.0
C728 C 0.59225 0.52045 0.81233 0.0
C729 C 0.59267 0.53299 0.9672 0.0
C730 C 0.57949 0.50586 0.83077 0.0
C731 C 0.56169 0.50433 0.79679 0.0
C732 C 0.55624 0.51717 0.74266 0.0
C733 C 0.56907 0.53169 0.72333 0.0
C734 C 0.587 0.53321 0.75744 0.0
H735 H 0.59562 0.54093 0.01844 0.0
H736 H 0.58327 0.5418 0.93268 0.0
H737 H 0.58484 0.51976 0.98082 0.0
H738 H 0.58318 0.4958 0.87258 0.0
H739 H 0.55203 0.49315 0.81349 0.0
H740 H 0.9819 0.69002 0.12184 0.0
H741 H 0.98289 0.66247 0.03954 0.0
H742 H 0.03058 0.68721 0.92734 0.0
H743 H 0.02925 0.71527 0.00922 0.0
H744 H 1.00637 0.66814 0.8317 0.0
H745 H 0.02207 0.62116 0.06294 0.0
H746 H 1.0001 0.63392 0.07424 0.0
H747 H 0.02231 0.6468 0.07151 0.0
C748 C 0.99245 0.68977 0.07897 0.0
C749 C 1.00557 0.70488 0.07261 0.0
C750 C 0.99312 0.67386 0.03212 0.0
C751 C 1.00717 0.67229 0.97802 0.0
C752 C 0.01967 0.68786 0.9688 0.0
H753 H 0.0429 0.56138 0.81103 0.0
H754 H 0.04016 0.59309 0.8657 0.0
C755 C 0.01887 0.70398 0.01551 0.0
C756 C 1.00922 0.65407 0.9341 0.0
H757 H 0.01494 0.6058 0.95128 0.0
C758 C 1.00835 0.65452 0.85787 0.0
C759 C 0.01201 0.63615 0.96746 0.0
C760 C 0.01438 0.63444 0.04844 0.0
C761 C 1.00996 0.63771 0.81473 0.0
C762 C 0.01224 0.61971 0.84835 0.0
C763 C 0.01315 0.61938 0.92459 0.0
C764 C 0.01472 0.60108 0.80691 0.0
C765 C 1.00967 0.63956 0.73348 0.0
C766 C 1.00167 0.59471 0.75343 0.0
C767 C 1.00353 0.57648 0.72051 0.0
C768 C 0.01832 0.56408 0.7411 0.0
C769 C 0.03143 0.57059 0.79349 0.0
C770 C 0.02978 0.58878 0.82522 0.0
H771 H 0.01362 0.65419 0.71647 0.0
H772 H 0.01959 0.62928 0.7075 0.0
H773 H 0.99507 0.63658 0.71323 0.0
H774 H 0.98957 0.60345 0.7391 0.0
H775 H 0.99292 0.57175 0.68164 0.0
H776 H 0.02403 0.22151 0.26015 0.0
H777 H 0.03956 0.19802 0.3347 0.0
H778 H 0.09464 0.21904 0.26748 0.0
H779 H 0.07868 0.24197 0.18845 0.0
H780 H 0.09444 0.18516 0.2365 0.0
H781 H 0.06626 0.18455 0.50993 0.0
H782 H 0.04541 0.1871 0.45541 0.0
H783 H 0.06359 0.20546 0.45463 0.0
C784 C 0.03945 0.22178 0.26444 0.0
C785 C 0.0502 0.2335 0.21915 0.0
C786 C 0.04844 0.20836 0.30769 0.0
C787 C 0.06843 0.20664 0.30766 0.0
C788 C 0.07923 0.21999 0.26866 0.0
H789 H 0.06713 0.08902 0.4405 0.0
H790 H 0.08151 0.12092 0.44943 0.0
C791 C 0.07015 0.23324 0.22407 0.0
C792 C 0.07706 0.18845 0.3327 0.0
H793 H 0.06514 0.15204 0.4443 0.0
C794 C 0.08863 0.17818 0.28371 0.0
C795 C 0.07059 0.17919 0.39584 0.0
C796 C 0.06099 0.18986 0.4571 0.0
C797 C 0.09111 0.15843 0.2901 0.0
C798 C 0.08101 0.14861 0.34457 0.0
C799 C 0.07218 0.15928 0.40014 0.0
C800 C 0.0763 0.12798 0.3371 0.0
C801 C 0.10366 0.14823 0.23576 0.0
C802 C 0.06898 0.12104 0.27084 0.0
C803 C 0.06124 0.10278 0.26545 0.0
C804 C 0.06006 0.09125 0.32671 0.0
C805 C 0.06788 0.09777 0.39258 0.0
C806 C 0.07609 0.11595 0.3976 0.0
H807 H 0.11669 0.15676 0.22525 0.0
H808 H 0.10798 0.13388 0.2546 0.0
H809 H 0.09596 0.14676 0.18343 0.0
H810 H 0.06812 0.13013 0.22398 0.0
H811 H 0.055 0.09818 0.21444 0.0
H812 H 0.29254 0.03447 0.20852 0.0
H813 H 0.32152 0.03505 0.27977 0.0
H814 H 0.33485 0.09091 0.19815 0.0
H815 H 0.30605 0.08987 0.12415 0.0
H816 H 0.35661 0.06491 0.13833 0.0
H817 H 0.35804 0.05217 0.43173 0.0
H818 H 0.34069 0.03673 0.39077 0.0
H819 H 0.33742 0.06224 0.38765 0.0
C820 C 0.30087 0.04749 0.21009 0.0
C821 C 0.2975 0.06186 0.15947 0.0
C822 C 0.31759 0.04783 0.251 0.0
C823 C 0.3307 0.06281 0.24272 0.0
C824 C 0.32507 0.07909 0.20453 0.0
H825 H 0.45362 0.03911 0.24942 0.0
H826 H 0.42343 0.05645 0.23859 0.0
C827 C 0.30848 0.07859 0.1627 0.0
C828 C 0.35128 0.05852 0.25083 0.0
H829 H 0.38279 0.03541 0.35982 0.0
C830 C 0.36251 0.05906 0.18764 0.0
C831 C 0.35897 0.0506 0.31452 0.0
C832 C 0.34813 0.0506 0.38505 0.0
C833 C 0.38063 0.05073 0.1851 0.0
C834 C 0.38772 0.04171 0.24735 0.0
C835 C 0.37707 0.0421 0.31177 0.0
C836 C 0.40589 0.03118 0.24584 0.0
C837 C 0.39165 0.05067 0.11485 0.0
C838 C 0.40588 0.01122 0.25083 0.0
C839 C 0.42308 1.00129 0.25607 0.0
C840 C 0.44041 0.01126 0.25718 0.0
C841 C 0.44038 0.03115 0.24807 0.0
C842 C 0.42321 0.04104 0.24243 0.0
H843 H 0.38297 0.05586 0.06874 0.0
H844 H 0.40432 0.06004 0.12071 0.0
H845 H 0.39681 0.03607 0.10179 0.0
H846 H 0.39256 1.00343 0.25311 0.0
H847 H 0.42277 0.98601 0.26426 0.0
H848 H 0.52777 0.32651 0.18903 0.0
H849 H 0.52339 0.3431 0.30379 0.0
H850 H 0.48277 0.30044 0.37016 0.0
H851 H 0.48681 0.28396 0.25287 0.0
H852 H 0.46722 0.33344 0.38147 0.0
H853 H 0.53621 0.34249 0.51211 0.0
H854 H 0.54055 0.34699 0.41841 0.0
H855 H 0.53226 0.32372 0.44574 0.0
C856 C 0.51824 0.32041 0.22875 0.0
C857 C 0.50741 0.30416 0.21179 0.0
C858 C 0.51598 0.32972 0.29518 0.0
C859 C 0.50297 0.32289 0.3467 0.0
C860 C 0.49305 0.30587 0.33177 0.0
H861 H 0.49962 0.43449 0.53707 0.0
H862 H 0.49686 0.40031 0.56214 0.0
C863 C 0.49534 0.29648 0.26484 0.0
C864 C 0.49719 0.33586 0.40699 0.0
H865 H 0.51726 0.37351 0.49636 0.0
C866 C 0.47806 0.34172 0.40954 0.0
C867 C 0.5109 0.34628 0.44745 0.0
C868 C 0.53106 0.33929 0.45633 0.0
C869 C 0.47314 0.35961 0.43857 0.0
C870 C 0.48778 0.37193 0.46317 0.0
C871 C 0.50609 0.36444 0.47435 0.0
C872 C 0.48597 0.39288 0.45579 0.0
C873 C 0.45264 0.36598 0.43522 0.0
C874 C 0.48078 0.40007 0.38787 0.0
C875 C 0.48272 0.41936 0.37298 0.0
C876 C 0.48995 0.43205 0.4256 0.0
C877 C 0.49429 0.42504 0.49498 0.0
C878 C 0.49249 0.40556 0.50975 0.0
H879 H 0.44301 0.354 0.4493 0.0
H880 H 0.44985 0.37819 0.47258 0.0
H881 H 0.44915 0.37026 0.37905 0.0
H882 H 0.47643 0.39055 0.34425 0.0
H883 H 0.47963 0.42406 0.31854 0.0
H884 H 0.25487 0.48875 0.27962 0.0
H885 H 0.23885 0.48474 0.39611 0.0
H886 H 0.19456 0.52337 0.32773 0.0
H887 H 0.21156 0.52912 0.21641 0.0
H888 H 0.19691 0.52561 0.4646 0.0
H889 H 0.19758 0.44764 0.39886 0.0
H890 H 0.21964 0.45916 0.42146 0.0
H891 H 0.2079 0.46434 0.33707 0.0
C892 C 0.24208 0.49691 0.29064 0.0
C893 C 0.23409 0.50874 0.23743 0.0
C894 C 0.23274 0.49433 0.35696 0.0
C895 C 0.21496 0.50297 0.36974 0.0
C896 C 0.20809 0.51622 0.31945 0.0
H897 H 0.11169 0.47476 0.35411 0.0
H898 H 0.14599 0.47548 0.37173 0.0
C899 C 0.21768 0.51928 0.25478 0.0
C900 C 0.20181 0.49677 0.42829 0.0
H901 H 0.17164 0.45966 0.46064 0.0
C902 C 0.1916 0.51108 0.46554 0.0
C903 C 0.19528 0.47765 0.43193 0.0
C904 C 0.20559 0.46127 0.39527 0.0
C905 C 0.17319 0.50763 0.49208 0.0
C906 C 0.16557 0.48898 0.4863 0.0
C907 C 0.17743 0.47401 0.46311 0.0
C908 C 0.1447 0.48572 0.48301 0.0
C909 C 0.16122 0.52446 0.51597 0.0
C910 C 0.13243 0.49064 0.54035 0.0
C911 C 0.11266 0.49065 0.52961 0.0
C912 C 0.10499 0.48518 0.46204 0.0
C913 C 0.11724 0.47889 0.40681 0.0
C914 C 0.13687 0.47929 0.41701 0.0
H915 H 0.16908 0.53818 0.5126 0.0
H916 H 0.14823 0.52544 0.4818 0.0
H917 H 0.15663 0.52261 0.5728 0.0
H918 H 0.13812 0.49505 0.5923 0.0
H919 H 0.10341 0.49534 0.57329 0.0
H920 H 0.94688 0.8054 0.06171 0.0
H921 H 0.93465 0.82352 0.95846 0.0
H922 H 0.99196 0.82744 0.87388 0.0
H923 H 1.00365 0.80849 0.97369 0.0
H924 H 0.94095 0.85754 0.94165 0.0
H925 H 0.96617 0.82698 0.68769 0.0
H926 H 0.9655 0.81276 0.76867 0.0
H927 H 0.98664 0.82618 0.74511 0.0
C928 C 0.95655 0.80941 0.01876 0.0
C929 C 0.97609 0.80552 0.02449 0.0
C930 C 0.94963 0.8198 0.96002 0.0
C931 C 0.96226 0.82674 0.90725 0.0
C932 C 0.98166 0.82174 0.91155 0.0
H933 H 0.99897 0.92841 0.85166 0.0
H934 H 0.97782 0.90239 0.883 0.0
C935 C 0.98846 0.81107 0.9692 0.0
C936 C 0.95652 0.84235 0.85787 0.0
H937 H 0.97332 0.86266 0.70413 0.0
C938 C 0.94736 0.85838 0.88834 0.0
C939 C 0.96375 0.84354 0.78649 0.0
C940 C 0.97081 0.82627 0.74516 0.0
C941 C 0.94834 0.87618 0.85487 0.0
C942 C 0.95945 0.87809 0.79147 0.0
C943 C 0.96555 0.86152 0.7547 0.0
C944 C 0.96856 0.89651 0.77266 0.0
C945 C 0.93862 0.89299 0.89072 0.0
C946 C 0.97055 0.90209 0.70014 0.0
C947 C 0.98308 0.91683 0.68218 0.0
C948 C 0.99373 0.92616 0.73641 0.0
C949 C 0.99071 0.92155 0.80908 0.0
C950 C 0.97842 0.90674 0.82698 0.0
H951 H 0.9243 0.88874 0.91064 0.0
H952 H 0.94702 0.8977 0.93868 0.0
H953 H 0.93697 0.90514 0.85318 0.0
H954 H 0.9632 0.89442 0.65717 0.0
H955 H 0.98505 0.92045 0.62589 0.0
H956 H 0.72012 0.95016 0.10841 0.0
H957 H 0.70042 0.94059 0.00464 0.0
H958 H 0.71964 0.99035 0.88965 0.0
H959 H 0.73999 0.99906 0.99072 0.0
H960 H 0.67226 0.96062 0.98224 0.0
H961 H 0.70752 0.95937 0.7194 0.0
H962 H 0.72106 0.95661 0.80194 0.0
H963 H 0.71681 0.98001 0.76481 0.0
C964 C 0.72087 0.95837 0.05912 0.0
C965 C 0.73139 0.97541 0.05742 0.0
C966 C 0.7096 0.95294 0.99986 0.0
C967 C 0.70833 0.96475 0.9389 0.0
C968 C 0.72055 0.98062 0.93458 0.0
H969 H 0.63928 0.03907 0.7906 0.0
H970 H 0.66343 0.01496 0.81189 0.0
C971 C 0.73215 0.98576 0.993 0.0
C972 C 0.69125 0.96392 0.8911 0.0
H973 H 0.67721 0.97968 0.72527 0.0
C974 C 0.67329 0.96384 0.92506 0.0
C975 C 0.69225 0.96778 0.81607 0.0
C976 C 0.71051 0.9657 0.77369 0.0
C977 C 0.657 0.97039 0.88929 0.0
C978 C 0.65876 0.97721 0.81795 0.0
C979 C 0.67603 0.97479 0.78065 0.0
C980 C 0.64475 0.99102 0.79014 0.0
C981 C 0.63854 0.97217 0.93088 0.0
C982 C 0.62632 0.98549 0.76931 0.0
C983 C 0.61238 0.99934 0.75652 0.0
C984 C 0.61671 0.01888 0.76492 0.0
C985 C 0.63546 0.02423 0.78283 0.0
C986 C 0.64932 1.01044 0.79491 0.0
H987 H 0.6395 0.9659 0.98577 0.0
H988 H 0.63456 0.98744 0.93672 0.0
H989 H 0.62693 0.96484 0.90067 0.0
H990 H 0.62258 0.97052 0.76537 0.0
H991 H 0.59819 0.99477 0.7411 0.0
H992 H 0.51074 0.72064 0.04123 0.0
H993 H 0.5146 0.70498 0.92346 0.0
H994 H 0.5641 0.73959 0.8808 0.0
H995 H 0.56052 0.75513 1.00005 0.0
H996 H 0.51928 0.71623 0.77139 0.0
H997 H 0.58463 0.6845 0.89423 0.0
H998 H 0.56775 0.69735 0.94989 0.0
H999 H 0.58258 0.70998 0.88737 0.0
C1000 C 0.52228 0.72512 0.00633 0.0
C1001 C 0.53555 0.73879 0.03031 0.0
C1002 C 0.52435 0.71633 0.9387 0.0
C1003 C 0.53974 0.721 0.89375 0.0
C1004 C 0.55219 0.73572 0.91496 0.0
H1005 H 0.56434 0.61334 0.69733 0.0
H1006 H 0.56786 0.64792 0.6862 0.0
C1007 C 0.55011 0.74458 0.98294 0.0
C1008 C 0.54415 0.70804 0.83219 0.0
H1009 H 0.56933 0.6672 0.80371 0.0
C1010 C 0.53062 0.70582 0.77659 0.0
C1011 C 0.55923 0.69475 0.83767 0.0
C1012 C 0.57442 0.69661 0.89537 0.0
C1013 C 0.53048 0.6894 0.73222 0.0
C1014 C 0.54377 0.67471 0.74578 0.0
C1015 C 0.55889 0.67828 0.79399 0.0
C1016 C 0.53968 0.65446 0.72727 0.0
C1017 C 0.51532 0.6874 0.67476 0.0
C1018 C 0.52234 0.64654 0.75039 0.0
C1019 C 0.52039 0.62687 0.75751 0.0
C1020 C 0.5358 0.61471 0.74217 0.0
C1021 C 0.55241 0.62244 0.71148 0.0
C1022 C 0.55437 0.64218 0.70443 0.0
H1023 H 0.5134 0.70113 0.64625 0.0
H1024 H 0.51886 0.67611 0.63427 0.0
H1025 H 0.5015 0.68388 0.70072 0.0
H1026 H 0.51092 0.65558 0.77023 0.0
H1027 H 0.50743 0.62143 0.78154 0.0
H1028 H 0.77965 0.55734 0.95873 0.0
H1029 H 0.79551 0.56352 0.84295 0.0
H1030 H 0.83518 0.5179 0.88615 0.0
H1031 H 0.81867 0.51095 0.99741 0.0
H1032 H 0.82724 0.57753 0.83034 0.0
H1033 H 0.83569 0.51185 0.6775 0.0
H1034 H 0.81756 0.51372 0.74677 0.0
H1035 H 0.84109 0.5046 0.76759 0.0
C1036 C 0.79127 0.54817 0.94169 0.0
C1037 C 0.79818 0.5339 0.98772 0.0
C1038 C 0.80038 0.55173 0.87556 0.0
C1039 C 0.81654 0.54111 0.85465 0.0
C1040 C 0.82246 0.526 0.89873 0.0
H1041 H 0.91871 0.56959 0.89002 0.0
H1042 H 0.88494 0.57134 0.86485 0.0
C1043 C 0.81324 0.52228 0.96373 0.0
C1044 C 0.82974 0.54793 0.79731 0.0
H1045 H 0.86762 0.52936 0.70566 0.0
C1046 C 0.83559 0.5671 0.80037 0.0
C1047 C 0.84024 0.53499 0.75339 0.0
C1048 C 0.83304 0.51522 0.7356 0.0
C1049 C 0.85346 0.57254 0.77363 0.0
C1050 C 0.86598 0.5583 0.74687 0.0
C1051 C 0.85855 0.54017 0.73017 0.0
C1052 C 0.88698 0.56032 0.75466 0.0
C1053 C 0.85936 0.59316 0.7804 0.0
C1054 C 0.89964 0.55316 0.70191 0.0
C1055 C 0.91917 0.55177 0.71723 0.0
C1056 C 0.92628 0.55753 0.78537 0.0
C1057 C 0.91372 0.5654 0.8366 0.0
C1058 C 0.89433 0.56659 0.82174 0.0
H1059 H 0.84741 0.60255 0.76394 0.0
H1060 H 0.86263 0.59662 0.83792 0.0
H1061 H 0.87201 0.59638 0.7465 0.0
H1062 H 0.89437 0.54802 0.65007 0.0
H1063 H 0.92863 0.54579 0.67662 0.0
H1064 H 0.99264 0.21609 0.99382 0.0
H1065 H 0.989 0.18631 0.92266 0.0
H1066 H 0.0496 0.18517 0.88459 0.0
H1067 H 0.05323 0.21452 0.95645 0.0
H1068 H 0.99711 0.1741 0.7839 0.0
H1069 H 0.0423 0.13357 0.97382 0.0
H1070 H 0.034 0.15738 0.99417 0.0
H1071 H 0.05434 0.15373 0.93619 0.0
C1072 C 1.00509 0.20973 0.96861 0.0
C1073 C 0.02321 0.21784 0.98031 0.0
C1074 C 1.00305 0.19255 0.92846 0.0
C1075 C 0.01909 0.18298 0.89952 0.0
C1076 C 0.03701 0.19175 0.90778 0.0
H1077 H 0.03651 0.07454 0.6568 0.0
H1078 H 0.04089 0.10531 0.72097 0.0
C1079 C 0.03905 0.20878 0.94799 0.0
C1080 C 0.01725 0.16377 0.86206 0.0
H1081 H 0.03359 0.11757 0.86455 0.0
C1082 C 1.00503 0.16176 0.80197 0.0
C1083 C 0.02756 0.14744 0.88488 0.0
C1084 C 0.04014 0.14802 0.9512 0.0
C1085 C 1.00313 0.14424 0.76376 0.0
C1086 C 0.01344 0.12794 0.78657 0.0
C1087 C 0.0257 0.12994 0.84647 0.0
C1088 C 0.01118 0.10865 0.75037 0.0
C1089 C 0.99035 0.1435 0.69803 0.0
C1090 C 0.9932 0.0998 0.74685 0.0
C1091 C 0.99075 0.08222 0.71077 0.0
C1092 C 1.00625 0.07266 0.67823 0.0
C1093 C 0.02436 0.08127 0.68266 0.0
C1094 C 0.02682 0.09897 0.71894 0.0
H1095 H 0.988 0.15792 0.67532 0.0
H1096 H 0.99644 0.13414 0.65497 0.0
H1097 H 0.97626 0.13767 0.71375 0.0
H1098 H 0.98093 0.10657 0.77169 0.0
H1099 H 0.97659 0.07609 0.70787 0.0
H1100 H 0.31482 1.00763 0.93647 0.0
H1101 H 0.34604 1.00256 0.87844 0.0
H1102 H 0.35002 0.06273 0.83586 0.0
H1103 H 0.31887 0.06773 0.89309 0.0
H1104 H 0.36433 0.04079 0.72163 0.0
H1105 H 0.3955 0.01724 0.98202 0.0
H1106 H 0.37533 1.00353 0.95185 0.0
H1107 H 0.37226 0.0282 0.97657 0.0
C1108 C 0.32206 0.01964 0.91233 0.0
C1109 C 0.31417 0.03803 0.91824 0.0
C1110 C 0.34011 0.01681 0.88035 0.0
C1111 C 0.35074 0.03233 0.85394 0.0
C1112 C 0.3423 0.0505 0.85589 0.0
H1113 H 0.46643 0.04715 0.66695 0.0
H1114 H 0.43428 0.05306 0.71602 0.0
C1115 C 0.32435 0.05333 0.88804 0.0
C1116 C 0.3709 0.02994 0.82726 0.0
H1117 H 0.41565 0.01604 0.8796 0.0
C1118 C 0.37554 0.03539 0.75627 0.0
C1119 C 0.38572 0.02306 0.8723 0.0
C1120 C 0.38208 0.01783 0.95015 0.0
C1121 C 0.39427 0.03365 0.72864 0.0
C1122 C 0.40908 0.02668 0.77361 0.0
C1123 C 0.40445 0.0214 0.84482 0.0
C1124 C 0.42918 0.02377 0.74694 0.0
C1125 C 0.39787 0.03875 0.65065 0.0
C1126 C 0.43754 1.00559 0.7502 0.0
C1127 C 0.45595 1.00231 0.72323 0.0
C1128 C 0.46677 0.01716 0.69328 0.0
C1129 C 0.45863 0.03548 0.69085 0.0
C1130 C 0.44009 0.03878 0.71797 0.0
H1131 H 0.38444 0.03913 0.61872 0.0
H1132 H 0.40446 0.05312 0.64854 0.0
H1133 H 0.40776 0.02841 0.62449 0.0
H1134 H 0.42961 0.99372 0.7722 0.0
H1135 H 0.46172 0.98799 0.72518 0.0
H1136 H 0.47732 0.32932 0.988 0.0
H1137 H 0.47777 0.35684 0.90749 0.0
H1138 H 0.53093 0.33738 0.81591 0.0
H1139 H 0.53042 0.30962 0.89633 0.0
H1140 H 0.53083 0.3761 0.87337 0.0
H1141 H 0.47043 0.36357 0.68478 0.0
H1142 H 0.46493 0.35998 0.7788 0.0
H1143 H 0.48177 0.34455 0.73406 0.0
C1144 C 0.48884 0.33063 0.94929 0.0
C1145 C 0.50378 0.31722 0.94818 0.0
C1146 C 0.48907 0.34637 0.90316 0.0
C1147 C 0.50431 0.34918 0.85512 0.0
C1148 C 0.51894 0.33546 0.85207 0.0
H1149 H 0.53806 0.45378 0.62861 0.0
H1150 H 0.53669 0.42103 0.67177 0.0
C1151 C 0.51858 0.31953 0.89766 0.0
C1152 C 0.50584 0.36739 0.81417 0.0
H1153 H 0.48297 0.39516 0.69004 0.0
C1154 C 0.52053 0.38016 0.83249 0.0
C1155 C 0.49229 0.37281 0.76142 0.0
C1156 C 0.47653 0.35947 0.73795 0.0
C1157 C 0.52167 0.39841 0.80164 0.0
C1158 C 0.50802 0.40396 0.74917 0.0
C1159 C 0.49349 0.391 0.72992 0.0
C1160 C 0.50821 0.42336 0.71605 0.0
C1161 C 0.53701 0.41189 0.82827 0.0
C1162 C 0.49226 0.43541 0.72228 0.0
C1163 C 0.49289 0.45415 0.69652 0.0
C1164 C 0.50956 0.46142 0.66439 0.0
C1165 C 0.52514 0.44897 0.65467 0.0
C1166 C 0.52442 0.43018 0.67979 0.0
H1167 H 0.54281 0.40752 0.88159 0.0
H1168 H 0.54896 0.41187 0.78891 0.0
H1169 H 0.5315 0.42668 0.83357 0.0
H1170 H 0.47944 0.43048 0.7489 0.0
H1171 H 0.48037 0.46302 0.70289 0.0
H1172 H 0.20941 0.47956 0.00783 0.0
H1173 H 0.18038 0.47989 0.93426 0.0
H1174 H 0.19482 0.53603 0.85864 0.0
H1175 H 0.22419 0.53548 0.93166 0.0
H1176 H 0.15099 0.50323 0.95188 0.0
H1177 H 0.17754 0.51118 0.67191 0.0
H1178 H 0.1932 0.50596 0.74647 0.0
H1179 H 0.1856 0.53009 0.73072 0.0
C1180 C 0.2067 0.49172 0.97364 0.0
C1181 C 0.21929 0.50735 0.97462 0.0
C1182 C 0.18997 0.49199 0.932 0.0
C1183 C 0.18523 0.50793 0.89012 0.0
C1184 C 0.19817 0.52335 0.88901 0.0
H1185 H 0.08126 0.54029 0.65571 0.0
H1186 H 0.1132 0.5387 0.70838 0.0
C1187 C 0.21505 0.52303 0.93063 0.0
C1188 C 0.16613 0.50885 0.85292 0.0
H1189 H 0.14406 0.51631 0.6901 0.0
C1190 C 0.14956 0.50586 0.89433 0.0
C1191 C 0.16401 0.51247 0.7779 0.0
C1192 C 0.18104 0.51493 0.72901 0.0
C1193 C 0.13116 0.50652 0.86349 0.0
C1194 C 0.12903 0.50999 0.78835 0.0
C1195 C 0.14556 0.51331 0.74716 0.0
C1196 C 0.10979 0.5104 0.75206 0.0
C1197 C 0.11414 0.50409 0.91253 0.0
C1198 C 0.09722 0.49479 0.75614 0.0
C1199 C 0.07881 0.4957 0.7262 0.0
C1200 C 0.07241 0.51222 0.69093 0.0
C1201 C 0.0854 0.52743 0.68342 0.0
C1202 C 0.1038 0.52653 0.71354 0.0
H1203 H 0.11778 0.5072 0.97006 0.0
H1204 H 0.10222 0.51356 0.89638 0.0
H1205 H 0.10912 0.4891 0.90896 0.0
H1206 H 0.10158 0.48187 0.78304 0.0
H1207 H 0.06954 0.48344 0.73116 0.0
H1208 H 0.03226 0.82404 0.25354 0.0
H1209 H 0.03688 0.85417 0.32151 0.0
H1210 H 0.97616 0.85876 0.35218 0.0
H1211 H 0.97158 0.82886 0.28443 0.0
H1212 H 0.02198 0.88968 0.28026 0.0
H1213 H 0.99586 0.87246 0.55515 0.0
H1214 H 1.00247 0.85425 0.48977 0.0
H1215 H 0.97973 0.86592 0.48351 0.0
C1216 C 0.01998 0.83115 0.27696 0.0
C1217 C 1.00158 0.82379 0.26463 0.0
C1218 C 0.02259 0.84852 0.31528 0.0
C1219 C 1.0069 0.85885 0.34315 0.0
C1220 C 0.98859 0.85107 0.33301 0.0
H1221 H 0.98978 0.97175 0.55305 0.0
H1222 H 0.9857 0.93966 0.49893 0.0
C1223 C 0.98597 0.83389 0.29418 0.0
C1224 C 1.00939 0.87842 0.37689 0.0
H1225 H 1.00056 0.90523 0.52983 0.0
C1226 C 0.01739 0.89302 0.33508 0.0
C1227 C 1.00322 0.88306 0.44818 0.0
C1228 C 0.99499 0.86809 0.49715 0.0
C1229 C 0.019 0.91197 0.36146 0.0
C1230 C 0.01295 0.91667 0.43303 0.0
C1231 C 1.00505 0.90199 0.47499 0.0
C1232 C 0.01516 0.93648 0.46561 0.0
C1233 C 0.02661 0.92688 0.31089 0.0
C1234 C 0.03304 0.94559 0.46655 0.0
C1235 C 0.03528 0.96397 0.49643 0.0
C1236 C 0.01977 0.97395 0.52697 0.0
C1237 C 1.00191 0.96475 0.52814 0.0
C1238 C 0.99964 0.94627 0.49771 0.0
H1239 H 0.02485 0.92252 0.25319 0.0
H1240 H 0.01926 0.94069 0.31951 0.0
H1241 H 0.04207 0.92894 0.32102 0.0
H1242 H 0.04547 0.93834 0.44516 0.0
H1243 H 0.04934 0.97037 0.49631 0.0
H1244 H 0.70566 0.97579 0.31017 0.0
H1245 H 0.67622 0.98191 0.37794 0.0
H1246 H 0.68326 0.04228 0.34618 0.0
H1247 H 0.7129 0.03618 0.27807 0.0
H1248 H 0.66776 1.00496 0.50443 0.0
H1249 H 0.62967 0.03015 0.25949 0.0
H1250 H 0.65187 0.01717 0.25426 0.0
H1251 H 0.65183 0.04194 0.28001 0.0
C1252 C 0.70113 0.99042 0.31868 0.0
C1253 C 0.7117 1.0055 0.28872 0.0
C1254 C 0.68423 0.99389 0.35736 0.0
C1255 C 0.67723 0.01253 0.3664 0.0
C1256 C 0.68816 0.02773 0.33918 0.0
H1257 H 0.57018 0.05871 0.53539 0.0
H1258 H 0.60166 0.05339 0.48155 0.0
C1259 C 0.70524 0.02427 0.30098 0.0
C1260 C 0.65824 0.01581 0.4021 0.0
H1261 H 0.61264 0.03103 0.36957 0.0
C1262 C 0.65572 1.01067 0.4749 0.0
C1263 C 0.6424 0.02319 0.36386 0.0
C1264 C 0.6439 0.02832 0.28491 0.0
C1265 C 0.63805 0.01309 0.51066 0.0
C1266 C 0.62214 0.02036 0.47231 0.0
C1267 C 0.62469 0.02544 0.39938 0.0
C1268 C 0.60292 0.02337 0.507 0.0
C1269 C 0.6368 1.0085 0.59006 0.0
C1270 C 0.59285 1.00832 0.53966 0.0
C1271 C 0.57471 0.01138 0.57057 0.0
C1272 C 0.5661 0.02949 0.56848 0.0
C1273 C 0.57628 0.04453 0.53677 0.0
C1274 C 0.59432 0.04148 0.50593 0.0
H1275 H 0.65109 1.00793 0.61591 0.0
H1276 H 0.62806 0.01933 0.61898 0.0
H1277 H 0.62994 0.99436 0.59658 0.0
H1278 H 0.59886 0.99411 0.54036 0.0
H1279 H 0.56742 0.99958 0.59589 0.0
H1280 H 0.50268 0.72853 0.32226 0.0
H1281 H 0.50031 0.70024 0.39984 0.0
H1282 H 0.55863 0.6859 0.34979 0.0
H1283 H 0.56091 0.71395 0.27216 0.0
H1284 H 0.50585 0.66239 0.34663 0.0
H1285 H 0.55594 0.67828 0.57167 0.0
H1286 H 0.54581 0.69665 0.51566 0.0
H1287 H 0.56557 0.68266 0.48316 0.0
C1288 C 0.51511 0.7196 0.32965 0.0
C1289 C 0.53206 0.72354 0.29216 0.0
C1290 C 0.51373 0.70339 0.37359 0.0
C1291 C 0.52937 0.69101 0.38158 0.0
C1292 C 0.5465 0.69538 0.34593 0.0
H1293 H 0.55327 0.57756 0.5406 0.0
H1294 H 0.55448 0.61036 0.49658 0.0
C1295 C 0.54779 0.7114 0.30148 0.0
C1296 C 0.52736 0.67255 0.42067 0.0
H1297 H 0.54662 0.64576 0.55606 0.0
C1298 C 0.51454 0.65887 0.39322 0.0
C1299 C 0.53881 0.66783 0.48109 0.0
C1300 C 0.5522 0.68217 0.5152 0.0
C1301 C 0.51333 0.64046 0.4227 0.0
C1302 C 0.52499 0.63562 0.48255 0.0
C1303 C 0.53762 0.64941 0.51064 0.0
C1304 C 0.52456 0.61616 0.51508 0.0
C1305 C 0.50015 0.62611 0.38725 0.0
C1306 C 0.50755 0.60859 0.54284 0.0
C1307 C 0.50675 0.58972 0.56692 0.0
C1308 C 0.52301 0.57793 0.56448 0.0
C1309 C 0.54032 0.58594 0.54104 0.0
C1310 C 0.54108 0.6048 0.51646 0.0
H1311 H 0.49614 0.63036 0.33146 0.0
H1312 H 0.50684 0.61177 0.38456 0.0
H1313 H 0.48687 0.62506 0.41958 0.0
H1314 H 0.49474 0.6172 0.54471 0.0
H1315 H 0.49324 0.5843 0.58605 0.0
H1316 H 0.80029 0.54102 0.33377 0.0
H1317 H 0.82736 0.54013 0.41814 0.0
H1318 H 0.86019 0.50872 0.25927 0.0
H1319 H 0.83294 0.50803 0.17865 0.0
H1320 H 0.86923 0.49569 0.37819 0.0
H1321 H 0.87176 0.57407 0.41914 0.0
H1322 H 0.85004 0.56363 0.4509 0.0
H1323 H 0.85563 0.56295 0.35557 0.0
C1324 C 0.81315 0.5336 0.31743 0.0
C1325 C 0.81439 0.52502 0.24812 0.0
C1326 C 0.82886 0.53343 0.36536 0.0
C1327 C 0.84636 0.525 0.34474 0.0
C1328 C 0.84715 0.5156 0.27709 0.0
H1329 H 0.96044 0.5526 0.49652 0.0
H1330 H 0.92853 0.55177 0.44401 0.0
C1331 C 0.83146 0.51541 0.23022 0.0
C1332 C 0.86398 0.52577 0.39189 0.0
H1333 H 0.89424 0.55597 0.48384 0.0
C1334 C 0.87464 0.50895 0.40106 0.0
C1335 C 0.87141 0.543 0.42192 0.0
C1336 C 0.86174 0.56196 0.41089 0.0
C1337 C 0.89249 0.50889 0.43637 0.0
C1338 C 0.89974 0.52602 0.46769 0.0
C1339 C 0.88884 0.54277 0.46051 0.0
C1340 C 0.91903 0.52711 0.50381 0.0
C1341 C 0.90376 0.49054 0.43586 0.0
C1342 C 0.92455 0.51403 0.55726 0.0
C1343 C 0.94321 0.51402 0.58513 0.0
C1344 C 0.95682 0.52746 0.56213 0.0
C1345 C 0.9508 0.54149 0.51322 0.0
C1346 C 0.9323 0.54119 0.48386 0.0
H1347 H 0.8991 0.48077 0.39144 0.0
H1348 H 0.91925 0.49328 0.42922 0.0
H1349 H 0.90147 0.48305 0.48775 0.0
H1350 H 0.9145 0.5036 0.57694 0.0
H1351 H 0.94697 0.50329 0.62436 0.0
loop_
_geom_bond_atom_site_label_1
_geom_bond_atom_site_label_2
_geom_bond_distance
_geom_bond_site_symmetry_2
_ccdc_geom_bond_type
H0 C1 0.949 . S
C1 H0 0.949 . S
C1 C2 1.395 . S
C1 C3 1.391 . S
C2 C1 1.395 . S
C2 C5 1.390 . S
C3 C1 1.391 . S
C3 C7 1.387 . S
C3 C8 1.491 . S
H4 C5 0.950 . S
C5 C2 1.390 . S
C5 H4 0.950 . S
C5 C6 1.378 . S
C6 C5 1.378 . S
C6 C7 1.409 . S
C7 C3 1.387 . S
C7 C6 1.409 . S
C7 H9 0.951 . S
C8 C3 1.491 . S
C8 C10 1.382 . S
C8 C12 1.404 . S
H9 C7 0.951 . S
C10 C8 1.382 . S
C10 C11 1.390 . S
C10 H15 0.949 . S
C11 C10 1.390 . S
C11 C16 1.399 . S
C12 C8 1.404 . S
C12 H13 0.950 . S
C12 C14 1.375 . S
H13 C12 0.950 . S
C14 C12 1.375 . S
C14 C16 1.382 . S
C14 H18 0.950 . S
H15 C10 0.949 . S
C16 C11 1.399 . S
C16 C14 1.382 . S
C16 H17 0.952 . S
H17 C16 0.952 . S
H18 C14 0.950 . S
H19 C20 0.949 . S
C20 H19 0.949 . S
C20 C21 1.395 . S
C20 C22 1.391 . S
C21 C20 1.395 . S
C21 C24 1.390 . S
C22 C20 1.391 . S
C22 C26 1.387 . S
C22 C27 1.491 . S
H23 C24 0.950 . S
C24 C21 1.390 . S
C24 H23 0.950 . S
C24 C25 1.378 . S
C25 C24 1.378 . S
C25 C26 1.409 . S
C26 C22 1.387 . S
C26 C25 1.409 . S
C26 H28 0.951 . S
C27 C22 1.491 . S
C27 C29 1.382 . S
C27 C31 1.404 . S
H28 C26 0.951 . S
C29 C27 1.382 . S
C29 C30 1.390 . S
C29 H34 0.949 . S
C30 C29 1.390 . S
C30 C35 1.399 . S
C31 C27 1.404 . S
C31 H32 0.950 . S
C31 C33 1.375 . S
H32 C31 0.950 . S
C33 C31 1.375 . S
C33 C35 1.382 . S
C33 H37 0.950 . S
H34 C29 0.949 . S
C35 C30 1.399 . S
C35 C33 1.382 . S
C35 H36 0.952 . S
H36 C35 0.952 . S
H37 C33 0.950 . S
H38 C39 0.949 . S
C39 H38 0.949 . S
C39 C40 1.395 . S
C39 C41 1.391 . S
C40 C39 1.395 . S
C40 C43 1.390 . S
C41 C39 1.391 . S
C41 C45 1.387 . S
C41 C46 1.491 . S
H42 C43 0.950 . S
C43 C40 1.390 . S
C43 H42 0.950 . S
C43 C44 1.378 . S
C44 C43 1.378 . S
C44 C45 1.409 . S
C45 C41 1.387 . S
C45 C44 1.409 . S
C45 H47 0.951 . S
C46 C41 1.491 . S
C46 C48 1.382 . S
C46 C50 1.404 . S
H47 C45 0.951 . S
C48 C46 1.382 . S
C48 C49 1.390 . S
C48 H53 0.949 . S
C49 C48 1.390 . S
C49 C54 1.399 . S
C50 C46 1.404 . S
C50 H51 0.950 . S
C50 C52 1.375 . S
H51 C50 0.950 . S
C52 C50 1.375 . S
C52 C54 1.382 . S
C52 H56 0.950 . S
H53 C48 0.949 . S
C54 C49 1.399 . S
C54 C52 1.382 . S
C54 H55 0.952 . S
H55 C54 0.952 . S
H56 C52 0.950 . S
H57 C58 0.949 . S
C58 H57 0.949 . S
C58 C59 1.395 . S
C58 C60 1.391 . S
C59 C58 1.395 . S
C59 C62 1.390 . S
C60 C58 1.391 . S
C60 C64 1.387 . S
C60 C65 1.491 . S
H61 C62 0.950 . S
C62 C59 1.390 . S
C62 H61 0.950 . S
C62 C63 1.378 . S
C63 C62 1.378 . S
C63 C64 1.409 . S
C64 C60 1.387 . S
C64 C63 1.409 . S
C64 H66 0.951 . S
C65 C60 1.491 . S
C65 C67 1.382 . S
C65 C69 1.404 . S
H66 C64 0.951 . S
C67 C65 1.382 . S
C67 C68 1.390 . S
C67 H72 0.949 . S
C68 C67 1.390 . S
C68 C73 1.399 . S
C69 C65 1.404 . S
C69 H70 0.950 . S
C69 C71 1.375 . S
H70 C69 0.950 . S
C71 C69 1.375 . S
C71 C73 1.382 . S
C71 H75 0.950 . S
H72 C67 0.949 . S
C73 C68 1.399 . S
C73 C71 1.382 . S
C73 H74 0.952 . S
H74 C73 0.952 . S
H75 C71 0.950 . S
H76 C77 0.949 . S
C77 H76 0.949 . S
C77 C78 1.395 . S
C77 C79 1.391 1_554 S
C78 C77 1.395 . S
C78 C81 1.390 1_554 S
C79 C77 1.391 1_556 S
C79 C83 1.387 . S
C79 C84 1.491 . S
H80 C81 0.950 . S
C81 C78 1.390 1_556 S
C81 H80 0.950 . S
C81 C82 1.378 . S
C82 C81 1.378 . S
C82 C83 1.409 . S
C83 C79 1.387 . S
C83 C82 1.409 . S
C83 H85 0.951 . S
C84 C79 1.491 . S
C84 C86 1.382 1_556 S
C84 C88 1.404 . S
H85 C83 0.951 . S
C86 C84 1.382 1_554 S
C86 C87 1.390 . S
C86 H91 0.949 . S
C87 C86 1.390 . S
C87 C92 1.399 1_554 S
C88 C84 1.404 . S
C88 H89 0.950 . S
C88 C90 1.375 . S
H89 C88 0.950 . S
C90 C88 1.375 . S
C90 C92 1.382 . S
C90 H94 0.950 . S
H91 C86 0.949 . S
C92 C87 1.399 1_556 S
C92 C90 1.382 . S
C92 H93 0.951 1_556 S
H93 C92 0.951 1_554 S
H94 C90 0.950 . S
H95 C96 0.949 . S
C96 H95 0.949 . S
C96 C97 1.395 . S
C96 C98 1.391 1_554 S
C97 C96 1.395 . S
C97 C100 1.390 1_554 S
C98 C96 1.391 1_556 S
C98 C102 1.387 . S
C98 C103 1.491 . S
H99 C100 0.950 . S
C100 C97 1.390 1_556 S
C100 H99 0.950 . S
C100 C101 1.378 . S
C101 C100 1.378 . S
C101 C102 1.409 . S
C102 C98 1.387 . S
C102 C101 1.409 . S
C102 H104 0.951 . S
C103 C98 1.491 . S
C103 C105 1.382 1_556 S
C103 C107 1.404 . S
H104 C102 0.951 . S
C105 C103 1.382 1_554 S
C105 C106 1.390 . S
C105 H110 0.949 . S
C106 C105 1.390 . S
C106 C111 1.399 1_554 S
C107 C103 1.404 . S
C107 H108 0.950 . S
C107 C109 1.375 . S
H108 C107 0.950 . S
C109 C107 1.375 . S
C109 C111 1.382 . S
C109 H113 0.950 . S
H110 C105 0.949 . S
C111 C106 1.399 1_556 S
C111 C109 1.382 . S
C111 H112 0.952 . S
H112 C111 0.952 . S
H113 C109 0.950 . S
H114 C115 0.949 . S
C115 H114 0.949 . S
C115 C116 1.395 . S
C115 C117 1.391 1_554 S
C116 C115 1.395 . S
C116 C119 1.390 1_554 S
C117 C115 1.391 1_556 S
C117 C121 1.387 . S
C117 C122 1.491 . S
H118 C119 0.950 . S
C119 C116 1.390 1_556 S
C119 H118 0.950 . S
C119 C120 1.378 . S
C120 C119 1.378 . S
C120 C121 1.409 . S
C121 C117 1.387 . S
C121 C120 1.409 . S
C121 H123 0.951 . S
C122 C117 1.491 . S
C122 C124 1.382 1_556 S
C122 C126 1.404 . S
H123 C121 0.951 . S
C124 C122 1.382 1_554 S
C124 C125 1.390 . S
C124 H129 0.949 . S
C125 C124 1.390 . S
C125 C130 1.399 1_554 S
C126 C122 1.404 . S
C126 H127 0.950 . S
C126 C128 1.375 . S
H127 C126 0.950 . S
C128 C126 1.375 . S
C128 C130 1.382 . S
C128 H132 0.950 . S
H129 C124 0.949 . S
C130 C125 1.399 1_556 S
C130 C128 1.382 . S
C130 H131 0.952 . S
H131 C130 0.952 . S
H132 C128 0.950 . S
H133 C134 0.949 . S
C134 H133 0.949 . S
C134 C135 1.395 . S
C134 C136 1.391 1_554 S
C135 C134 1.395 . S
C135 C138 1.390 1_554 S
C136 C134 1.391 1_556 S
C136 C140 1.387 . S
C136 C141 1.491 . S
H137 C138 0.950 . S
C138 C135 1.390 1_556 S
C138 H137 0.950 . S
C138 C139 1.378 . S
C139 C138 1.378 . S
C139 C140 1.409 . S
C140 C136 1.387 . S
C140 C139 1.409 . S
C140 H142 0.951 . S
C141 C136 1.491 . S
C141 C143 1.382 1_556 S
C141 C145 1.404 . S
H142 C140 0.951 . S
C143 C141 1.382 1_554 S
C143 C144 1.390 . S
C143 H148 0.949 . S
C144 C143 1.390 . S
C144 C149 1.397 1_554 S
C145 C141 1.404 . S
C145 H146 0.950 . S
C145 C147 1.375 . S
H146 C145 0.950 . S
C147 C145 1.375 . S
C147 C149 1.385 . S
C147 H151 0.950 . S
H148 C143 0.949 . S
C149 C144 1.397 1_556 S
C149 C147 1.385 . S
C149 H150 0.951 1_556 S
H150 C149 0.951 1_554 S
H151 C147 0.950 . S
Eu152 N183 2.657 1_565 S
Eu152 N190 2.609 1_565 S
Eu152 O196 2.558 . S
Eu152 O197 2.612 1_455 S
Eu152 O199 2.337 1_465 S
Eu152 O200 2.563 . S
Eu152 O201 2.419 . S
Eu152 O203 2.380 1_565 S
Eu152 O204 2.432 . S
Eu152 C216 2.848 . S
C153 C156 1.429 . S
C153 C157 1.411 . S
C153 N160 1.377 . S
C154 C156 1.420 1_565 S
C154 C158 1.423 . S
C154 C166 1.392 . S
C155 C157 1.420 1_565 S
C155 C158 1.351 . S
C155 H178 0.931 . S
C156 C153 1.429 . S
C156 C154 1.420 1_545 S
C156 N164 1.362 . S
C157 C153 1.411 . S
C157 C155 1.420 1_545 S
C157 C162 1.395 . S
C158 C154 1.423 . S
C158 C155 1.351 . S
C158 H170 0.930 . S
C159 C161 1.400 . S
C159 C162 1.386 . S
C159 H171 0.930 . S
N160 C153 1.377 . S
N160 C161 1.321 . S
N160 Eu163 2.609 . S
C161 C159 1.400 . S
C161 N160 1.321 . S
C161 H168 0.930 . S
C162 C157 1.395 . S
C162 C159 1.386 . S
C162 H181 0.930 . S
Eu163 N160 2.609 . S
Eu163 N164 2.657 . S
Eu163 O197 2.380 1_545 S
Eu163 O198 2.432 . S
Eu163 O202 2.558 . S
Eu163 O203 2.612 1_655 S
Eu163 O205 2.339 1_655 S
Eu163 O206 2.563 1_655 S
Eu163 O207 2.419 1_655 S
Eu163 C227 2.848 . S
N164 C156 1.362 . S
N164 Eu163 2.657 . S
N164 C165 1.334 1_645 S
C165 N164 1.334 1_465 S
C165 C167 1.413 . S
C165 H172 0.940 . S
C166 C154 1.392 . S
C166 C167 1.367 1_655 S
C166 H174 0.930 . S
C167 C165 1.413 . S
C167 C166 1.367 1_455 S
C167 H169 0.930 . S
H168 C161 0.930 . S
H169 C167 0.930 . S
H170 C158 0.930 . S
H171 C159 0.930 . S
H172 C165 0.940 . S
H173 C187 0.881 1_655 S
H174 C166 0.930 . S
H175 C193 0.930 . S
H176 C184 0.929 1_655 S
H177 C191 0.930 . S
H178 C155 0.931 . S
H179 C185 0.930 . S
H180 C218 0.930 . S
H181 C162 0.930 . S
H182 C217 0.931 . S
N183 Eu152 2.657 1_545 S
N183 C184 1.334 . S
N183 C188 1.362 . S
C184 H176 0.929 1_455 S
C184 N183 1.334 . S
C184 C187 1.416 . S
C185 H179 0.930 . S
C185 C186 1.392 . S
C185 C187 1.416 . S
C186 C185 1.392 . S
C186 C188 1.420 . S
C186 C218 1.423 . S
C187 H173 0.881 1_455 S
C187 C184 1.416 . S
C187 C185 1.416 . S
C188 N183 1.362 . S
C188 C186 1.420 . S
C188 C192 1.429 . S
H189 C194 0.930 . S
N190 Eu152 2.609 1_545 S
N190 C192 1.377 . S
N190 C193 1.321 1_545 S
C191 H177 0.930 . S
C191 C193 1.400 . S
C191 C194 1.386 1_565 S
C192 C188 1.429 . S
C192 N190 1.377 . S
C192 C195 1.411 . S
C193 H175 0.930 . S
C193 N190 1.321 1_565 S
C193 C191 1.400 . S
C194 H189 0.930 . S
C194 C191 1.386 1_545 S
C194 C195 1.395 . S
C195 C192 1.411 . S
C195 C194 1.395 . S
C195 C217 1.420 . S
O196 Eu152 2.558 . S
O196 C216 1.257 . S
O197 Eu152 2.612 1_655 S
O197 Eu163 2.380 1_565 S
O197 C208 1.276 . S
O198 Eu163 2.432 . S
O198 C215 1.264 . S
O199 Eu152 2.337 1_645 S
O199 C215 1.257 . S
O200 Eu152 2.563 . S
O200 C208 1.235 1_455 S
O201 Eu152 2.419 . S
O201 C216 1.249 . S
O202 Eu163 2.558 . S
O202 C227 1.257 . S
O203 Eu152 2.380 1_545 S
O203 Eu163 2.612 1_455 S
O203 C219 1.276 . S
O204 Eu152 2.432 . S
O204 C226 1.265 1_565 S
O205 Eu163 2.339 1_455 S
O205 C226 1.254 . S
O206 Eu163 2.563 1_455 S
O206 C219 1.235 . S
O207 Eu163 2.419 1_455 S
O207 C227 1.249 1_455 S
C208 O197 1.276 . S
C208 O200 1.235 1_655 S
C209 C211 1.393 . S
C209 C213 1.395 . S
C209 C216 1.492 . S
C210 C211 1.392 . S
C210 C212 1.386 . S
C211 C209 1.393 . S
C211 C210 1.392 . S
C211 H228 0.930 1_455 S
C212 C210 1.386 . S
C212 C214 1.395 . S
C212 H229 0.930 . S
C213 C209 1.395 . S
C213 C214 1.379 . S
C213 H230 0.930 . S
C214 C212 1.395 . S
C214 C213 1.379 . S
C214 H231 0.930 . S
C215 O198 1.264 . S
C215 O199 1.257 . S
C216 Eu152 2.848 . S
C216 O196 1.257 . S
C216 O201 1.249 . S
C216 C209 1.492 . S
C217 H182 0.931 . S
C217 C195 1.420 . S
C217 C218 1.351 . S
C218 H180 0.930 . S
C218 C186 1.423 . S
C218 C217 1.351 . S
C219 O203 1.276 . S
C219 O206 1.235 . S
C220 C221 1.393 1_655 S
C220 C224 1.395 . S
C220 C227 1.492 . S
C221 C220 1.393 1_455 S
C221 C222 1.392 . S
C221 H232 0.930 . S
C222 C221 1.392 . S
C222 C223 1.386 1_455 S
C223 C222 1.386 1_655 S
C223 C225 1.395 . S
C223 H233 0.930 . S
C224 C220 1.395 . S
C224 C225 1.379 . S
C224 H234 0.930 . S
C225 C223 1.395 . S
C225 C224 1.379 . S
C225 H235 0.930 . S
C226 O204 1.265 1_545 S
C226 O205 1.254 . S
C227 Eu163 2.848 . S
C227 O202 1.257 . S
C227 O207 1.249 1_655 S
C227 C220 1.492 . S
H228 C211 0.930 1_655 S
H229 C212 0.930 . S
H230 C213 0.930 . S
H231 C214 0.930 . S
H232 C221 0.930 . S
H233 C223 0.930 . S
H234 C224 0.930 . S
H235 C225 0.930 . S
Eu236 N267 2.657 . S
Eu236 N274 2.609 . S
Eu236 O280 2.558 . S
Eu236 O281 2.612 . S
Eu236 O283 2.339 1_545 S
Eu236 O284 2.563 . S
Eu236 O285 2.419 . S
Eu236 O287 2.380 . S
Eu236 O288 2.432 . S
Eu236 C300 2.848 . S
C237 C240 1.429 . S
C237 C241 1.411 . S
C237 N244 1.377 . S
C238 C240 1.420 . S
C238 C242 1.423 . S
C238 C250 1.442 . S
C239 C241 1.420 . S
C239 C242 1.351 . S
C239 H262 0.931 . S
C240 C237 1.429 . S
C240 C238 1.420 . S
C240 N248 1.362 . S
C241 C237 1.411 . S
C241 C239 1.420 . S
C241 C246 1.395 . S
C242 C238 1.423 . S
C242 C239 1.351 . S
C242 H254 0.930 . S
C243 C245 1.400 . S
C243 C246 1.386 . S
C243 H255 0.930 . S
N244 C237 1.377 . S
N244 C245 1.321 . S
N244 Eu247 2.609 . S
C245 C243 1.400 . S
C245 N244 1.321 . S
C245 H252 0.930 . S
C246 C241 1.395 . S
C246 C243 1.386 . S
C246 H265 0.930 . S
Eu247 N244 2.609 . S
Eu247 N248 2.657 . S
Eu247 O281 2.380 1_565 S
Eu247 O282 2.432 . S
Eu247 O286 2.558 . S
Eu247 O287 2.612 1_565 S
Eu247 O289 2.339 1_565 S
Eu247 O290 2.563 1_565 S
Eu247 O291 2.419 1_565 S
Eu247 C311 2.848 . S
N248 C240 1.362 . S
N248 Eu247 2.657 . S
N248 C249 1.334 1_565 S
C249 N248 1.334 1_545 S
C249 C251 1.413 . S
C249 H256 0.929 . S
C250 C238 1.442 . S
C250 C251 1.319 1_565 S
C250 H258 0.930 . S
C251 C249 1.413 . S
C251 C250 1.319 1_545 S
C251 H253 0.930 . S
H252 C245 0.930 . S
H253 C251 0.930 . S
H254 C242 0.930 . S
H255 C243 0.930 . S
H256 C249 0.929 . S
H257 C271 0.930 1_565 S
H258 C250 0.930 . S
H259 C277 0.930 . S
H260 C268 0.929 1_565 S
H261 C275 0.930 . S
H262 C239 0.931 . S
H263 C269 0.930 . S
H264 C302 0.930 . S
H265 C246 0.930 . S
H266 C301 0.931 . S
N267 Eu236 2.657 . S
N267 C268 1.334 . S
N267 C272 1.362 . S
C268 H260 0.929 1_545 S
C268 N267 1.334 . S
C268 C271 1.413 . S
C269 H263 0.930 . S
C269 C270 1.392 . S
C269 C271 1.367 . S
C270 C269 1.392 . S
C270 C272 1.420 . S
C270 C302 1.423 . S
C271 H257 0.930 1_545 S
C271 C268 1.413 . S
C271 C269 1.367 . S
C272 N267 1.362 . S
C272 C270 1.420 . S
C272 C276 1.429 . S
H273 C278 0.930 . S
N274 Eu236 2.609 . S
N274 C276 1.377 . S
N274 C277 1.321 . S
C275 H261 0.930 . S
C275 C277 1.400 . S
C275 C278 1.386 . S
C276 C272 1.429 . S
C276 N274 1.377 . S
C276 C279 1.411 . S
C277 H259 0.930 . S
C277 N274 1.321 . S
C277 C275 1.400 . S
C278 H273 0.930 . S
C278 C275 1.386 . S
C278 C279 1.395 . S
C279 C276 1.411 . S
C279 C278 1.395 . S
C279 C301 1.420 . S
O280 Eu236 2.558 . S
O280 C300 1.257 . S
O281 Eu236 2.612 . S
O281 Eu247 2.380 1_545 S
O281 C292 1.276 . S
O282 Eu247 2.432 . S
O282 C299 1.264 . S
O283 Eu236 2.339 1_565 S
O283 C299 1.254 . S
O284 Eu236 2.563 . S
O284 C292 1.235 . S
O285 Eu236 2.419 . S
O285 C300 1.249 . S
O286 Eu247 2.558 . S
O286 C311 1.257 . S
O287 Eu236 2.380 . S
O287 Eu247 2.612 1_545 S
O287 C303 1.276 . S
O288 Eu236 2.432 . S
O288 C310 1.264 . S
O289 Eu247 2.339 1_545 S
O289 C310 1.254 . S
O290 Eu247 2.563 1_545 S
O290 C303 1.235 . S
O291 Eu247 2.419 1_545 S
O291 C311 1.249 1_545 S
C292 O281 1.276 . S
C292 O284 1.235 . S
C293 C295 1.393 . S
C293 C297 1.395 . S
C293 C300 1.492 . S
C294 C295 1.392 . S
C294 C296 1.386 . S
C295 C293 1.393 . S
C295 C294 1.392 . S
C295 H312 0.930 . S
C296 C294 1.386 . S
C296 C298 1.395 . S
C296 H313 0.930 . S
C297 C293 1.395 . S
C297 C298 1.379 . S
C297 H314 0.930 . S
C298 C296 1.395 . S
C298 C297 1.379 . S
C298 H315 0.930 . S
C299 O282 1.264 . S
C299 O283 1.254 . S
C300 Eu236 2.848 . S
C300 O280 1.257 . S
C300 O285 1.249 . S
C300 C293 1.492 . S
C301 H266 0.931 . S
C301 C279 1.420 . S
C301 C302 1.351 . S
C302 H264 0.930 . S
C302 C270 1.423 . S
C302 C301 1.351 . S
C303 O287 1.276 . S
C303 O290 1.235 . S
C304 C305 1.393 1_565 S
C304 C308 1.395 . S
C304 C311 1.492 . S
C305 C304 1.393 1_545 S
C305 C306 1.392 . S
C305 H316 0.930 . S
C306 C305 1.392 . S
C306 C307 1.386 1_545 S
C307 C306 1.386 1_565 S
C307 C309 1.395 . S
C307 H317 0.930 . S
C308 C304 1.395 . S
C308 C309 1.379 . S
C308 H318 0.930 . S
C309 C307 1.395 . S
C309 C308 1.379 . S
C309 H319 0.930 . S
C310 O288 1.264 . S
C310 O289 1.254 . S
C311 Eu247 2.848 . S
C311 O286 1.257 . S
C311 O291 1.249 1_565 S
C311 C304 1.492 . S
H312 C295 0.930 . S
H313 C296 0.930 . S
H314 C297 0.930 . S
H315 C298 0.930 . S
H316 C305 0.930 . S
H317 C307 0.930 . S
H318 C308 0.930 . S
H319 C309 0.930 . S
Eu320 N351 2.657 . S
Eu320 N358 2.609 . S
Eu320 O364 2.558 . S
Eu320 O365 2.612 . S
Eu320 O367 2.339 . S
Eu320 O368 2.563 . S
Eu320 O369 2.419 . S
Eu320 O371 2.380 . S
Eu320 O372 2.432 . S
Eu320 C384 2.848 . S
C321 C324 1.429 . S
C321 C325 1.411 . S
C321 N328 1.377 . S
C322 C324 1.420 . S
C322 C326 1.423 . S
C322 C334 1.392 . S
C323 C325 1.420 . S
C323 C326 1.351 . S
C323 H346 0.931 . S
C324 C321 1.429 . S
C324 C322 1.420 . S
C324 N332 1.362 . S
C325 C321 1.411 . S
C325 C323 1.420 . S
C325 C330 1.395 . S
C326 C322 1.423 . S
C326 C323 1.351 . S
C326 H338 0.930 . S
C327 C329 1.400 . S
C327 C330 1.386 . S
C327 H339 0.930 . S
N328 C321 1.377 . S
N328 C329 1.321 . S
N328 Eu331 2.609 . S
C329 C327 1.400 . S
C329 N328 1.321 . S
C329 H336 0.930 . S
C330 C325 1.395 . S
C330 C327 1.386 . S
C330 H349 0.930 . S
Eu331 N328 2.609 . S
Eu331 N332 2.657 . S
Eu331 O365 2.380 . S
Eu331 O366 2.432 . S
Eu331 O370 2.558 . S
Eu331 O371 2.612 . S
Eu331 O373 2.339 . S
Eu331 O374 2.563 . S
Eu331 O375 2.419 . S
Eu331 C395 2.848 . S
N332 C324 1.362 . S
N332 Eu331 2.657 . S
N332 C333 1.334 . S
C333 N332 1.334 . S
C333 C335 1.413 . S
C333 H340 0.929 . S
C334 C322 1.392 . S
C334 C335 1.367 . S
C334 H342 0.930 . S
C335 C333 1.413 . S
C335 C334 1.367 . S
C335 H337 0.930 . S
H336 C329 0.930 . S
H337 C335 0.930 . S
H338 C326 0.930 . S
H339 C327 0.930 . S
H340 C333 0.929 . S
H341 C355 0.930 . S
H342 C334 0.930 . S
H343 C361 0.930 . S
H344 C352 0.929 . S
H345 C359 0.930 . S
H346 C323 0.931 . S
H347 C353 0.930 . S
H348 C386 0.930 . S
H349 C330 0.930 . S
H350 C385 0.931 . S
N351 Eu320 2.657 . S
N351 C352 1.334 . S
N351 C356 1.362 . S
C352 H344 0.929 . S
C352 N351 1.334 . S
C352 C355 1.413 . S
C353 H347 0.930 . S
C353 C354 1.392 . S
C353 C355 1.367 . S
C354 C353 1.392 . S
C354 C356 1.420 . S
C354 C386 1.423 . S
C355 H341 0.930 . S
C355 C352 1.413 . S
C355 C353 1.367 . S
C356 N351 1.362 . S
C356 C354 1.420 . S
C356 C360 1.429 . S
H357 C362 0.930 . S
N358 Eu320 2.609 . S
N358 C360 1.377 . S
N358 C361 1.321 . S
C359 H345 0.930 . S
C359 C361 1.400 . S
C359 C362 1.386 . S
C360 C356 1.429 . S
C360 N358 1.377 . S
C360 C363 1.411 . S
C361 H343 0.930 . S
C361 N358 1.321 . S
C361 C359 1.400 . S
C362 H357 0.930 . S
C362 C359 1.386 . S
C362 C363 1.395 . S
C363 C360 1.411 . S
C363 C362 1.395 . S
C363 C385 1.420 . S
O364 Eu320 2.558 . S
O364 C384 1.257 . S
O365 Eu320 2.612 . S
O365 Eu331 2.380 . S
O365 C376 1.276 . S
O366 Eu331 2.432 . S
O366 C383 1.264 . S
O367 Eu320 2.339 . S
O367 C383 1.254 . S
O368 Eu320 2.563 . S
O368 C376 1.235 . S
O369 Eu320 2.419 . S
O369 C384 1.249 . S
O370 Eu331 2.558 . S
O370 C395 1.257 . S
O371 Eu320 2.380 . S
O371 Eu331 2.612 . S
O371 C387 1.276 . S
O372 Eu320 2.432 . S
O372 C394 1.264 . S
O373 Eu331 2.339 . S
O373 C394 1.254 . S
O374 Eu331 2.563 . S
O374 C387 1.235 . S
O375 Eu331 2.419 . S
O375 C395 1.249 . S
C376 O365 1.276 . S
C376 O368 1.235 . S
C377 C379 1.393 . S
C377 C381 1.395 . S
C377 C384 1.492 . S
C378 C379 1.392 . S
C378 C380 1.386 . S
C379 C377 1.393 . S
C379 C378 1.392 . S
C379 H396 0.930 . S
C380 C378 1.386 . S
C380 C382 1.395 . S
C380 H397 0.930 . S
C381 C377 1.395 . S
C381 C382 1.379 . S
C381 H398 0.930 . S
C382 C380 1.395 . S
C382 C381 1.379 . S
C382 H399 0.930 . S
C383 O366 1.264 . S
C383 O367 1.254 . S
C384 Eu320 2.848 . S
C384 O364 1.257 . S
C384 O369 1.249 . S
C384 C377 1.492 . S
C385 H350 0.931 . S
C385 C363 1.420 . S
C385 C386 1.351 . S
C386 H348 0.930 . S
C386 C354 1.423 . S
C386 C385 1.351 . S
C387 O371 1.276 . S
C387 O374 1.235 . S
C388 C389 1.393 . S
C388 C392 1.395 . S
C388 C395 1.492 . S
C389 C388 1.393 . S
C389 C390 1.392 . S
C389 H400 0.930 . S
C390 C389 1.392 . S
C390 C391 1.386 . S
C391 C390 1.386 . S
C391 C393 1.395 . S
C391 H401 0.930 . S
C392 C388 1.395 . S
C392 C393 1.379 . S
C392 H402 0.930 . S
C393 C391 1.395 . S
C393 C392 1.379 . S
C393 H403 0.930 1_556 S
C394 O372 1.264 . S
C394 O373 1.254 . S
C395 Eu331 2.848 . S
C395 O370 1.257 . S
C395 O375 1.249 . S
C395 C388 1.492 . S
H396 C379 0.930 . S
H397 C380 0.930 . S
H398 C381 0.930 . S
H399 C382 0.930 . S
H400 C389 0.930 . S
H401 C391 0.930 . S
H402 C392 0.930 . S
H403 C393 0.930 1_554 S
Eu404 N435 2.657 . S
Eu404 N442 2.609 . S
Eu404 O448 2.558 . S
Eu404 O449 2.612 . S
Eu404 O451 2.339 . S
Eu404 O452 2.563 . S
Eu404 O453 2.419 . S
Eu404 O455 2.380 . S
Eu404 O456 2.432 1_455 S
Eu404 C468 2.848 . S
C405 C408 1.429 . S
C405 C409 1.411 . S
C405 N412 1.377 . S
C406 C408 1.420 . S
C406 C410 1.423 . S
C406 C418 1.392 . S
C407 C409 1.420 . S
C407 C410 1.351 . S
C407 H430 0.931 . S
C408 C405 1.429 . S
C408 C406 1.420 . S
C408 N416 1.362 . S
C409 C405 1.411 . S
C409 C407 1.420 . S
C409 C414 1.395 1_655 S
C410 C406 1.423 . S
C410 C407 1.351 . S
C410 H422 0.930 . S
C411 C413 1.400 . S
C411 C414 1.386 . S
C411 H423 0.930 . S
N412 C405 1.377 . S
N412 C413 1.321 1_655 S
N412 Eu415 2.609 . S
C413 C411 1.400 . S
C413 N412 1.321 1_455 S
C413 H420 0.930 . S
C414 C409 1.395 1_455 S
C414 C411 1.386 . S
C414 H433 0.930 . S
Eu415 N412 2.609 . S
Eu415 N416 2.657 . S
Eu415 O449 2.380 1_655 S
Eu415 O450 2.432 1_655 S
Eu415 O454 2.558 . S
Eu415 O455 2.612 1_655 S
Eu415 O457 2.339 . S
Eu415 O458 2.563 . S
Eu415 O459 2.419 . S
Eu415 C479 2.848 . S
N416 C408 1.362 . S
N416 Eu415 2.657 . S
N416 C417 1.334 . S
C417 N416 1.334 . S
C417 C419 1.413 . S
C417 H424 0.929 . S
C418 C406 1.392 . S
C418 C419 1.367 . S
C418 H426 0.930 . S
C419 C417 1.413 . S
C419 C418 1.367 . S
C419 H421 0.930 . S
H420 C413 0.930 . S
H421 C419 0.930 . S
H422 C410 0.930 . S
H423 C411 0.930 . S
H424 C417 0.929 . S
H425 C439 0.930 . S
H426 C418 0.930 . S
H427 C445 0.930 1_655 S
H428 C436 0.929 . S
H429 C443 0.930 1_655 S
H430 C407 0.931 . S
H431 C437 0.930 . S
H432 C470 0.930 . S
H433 C414 0.930 . S
H434 C469 0.931 . S
N435 Eu404 2.657 . S
N435 C436 1.334 . S
N435 C440 1.362 . S
C436 H428 0.929 . S
C436 N435 1.334 . S
C436 C439 1.413 . S
C437 H431 0.930 . S
C437 C438 1.392 . S
C437 C439 1.367 . S
C438 C437 1.392 . S
C438 C440 1.420 . S
C438 C470 1.423 . S
C439 H425 0.930 . S
C439 C436 1.413 . S
C439 C437 1.367 . S
C440 N435 1.362 . S
C440 C438 1.420 . S
C440 C444 1.429 . S
H441 C446 0.930 . S
N442 Eu404 2.609 . S
N442 C444 1.377 . S
N442 C445 1.321 . S
C443 H429 0.930 1_455 S
C443 C445 1.400 . S
C443 C446 1.386 . S
C444 C440 1.429 . S
C444 N442 1.377 . S
C444 C447 1.411 . S
C445 H427 0.930 1_455 S
C445 N442 1.321 . S
C445 C443 1.400 . S
C446 H441 0.930 . S
C446 C443 1.386 . S
C446 C447 1.395 . S
C447 C444 1.411 . S
C447 C446 1.395 . S
C447 C469 1.420 . S
O448 Eu404 2.558 . S
O448 C468 1.257 . S
O449 Eu404 2.612 . S
O449 Eu415 2.380 1_455 S
O449 C460 1.276 . S
O450 Eu415 2.432 1_455 S
O450 C467 1.264 . S
O451 Eu404 2.339 . S
O451 C467 1.254 . S
O452 Eu404 2.563 . S
O452 C460 1.235 . S
O453 Eu404 2.419 . S
O453 C468 1.249 . S
O454 Eu415 2.558 . S
O454 C479 1.257 . S
O455 Eu404 2.380 . S
O455 Eu415 2.612 1_455 S
O455 C471 1.276 1_455 S
O456 Eu404 2.432 1_655 S
O456 C478 1.264 . S
O457 Eu415 2.339 . S
O457 C478 1.254 . S
O458 Eu415 2.563 . S
O458 C471 1.235 . S
O459 Eu415 2.419 . S
O459 C479 1.249 . S
C460 O449 1.276 . S
C460 O452 1.235 . S
C461 C463 1.393 . S
C461 C465 1.395 . S
C461 C468 1.492 . S
C462 C463 1.392 . S
C462 C464 1.386 . S
C463 C461 1.393 . S
C463 C462 1.392 . S
C463 H480 0.930 . S
C464 C462 1.386 . S
C464 C466 1.395 . S
C464 H481 0.930 . S
C465 C461 1.395 . S
C465 C466 1.379 . S
C465 H482 0.930 . S
C466 C464 1.395 . S
C466 C465 1.379 . S
C466 H483 0.930 . S
C467 O450 1.264 . S
C467 O451 1.254 . S
C468 Eu404 2.848 . S
C468 O448 1.257 . S
C468 O453 1.249 . S
C468 C461 1.492 . S
C469 H434 0.931 . S
C469 C447 1.420 . S
C469 C470 1.351 . S
C470 H432 0.930 . S
C470 C438 1.423 . S
C470 C469 1.351 . S
C471 O455 1.276 1_655 S
C471 O458 1.235 . S
C472 C473 1.393 . S
C472 C476 1.395 . S
C472 C479 1.492 . S
C473 C472 1.393 . S
C473 C474 1.392 . S
C473 H484 0.930 . S
C474 C473 1.392 . S
C474 C475 1.386 . S
C475 C474 1.386 . S
C475 C477 1.395 . S
C475 H485 0.930 . S
C476 C472 1.395 . S
C476 C477 1.379 . S
C476 H486 0.930 . S
C477 C475 1.395 . S
C477 C476 1.379 . S
C477 H487 0.930 1_556 S
C478 O456 1.264 . S
C478 O457 1.254 . S
C479 Eu415 2.848 . S
C479 O454 1.257 . S
C479 O459 1.249 . S
C479 C472 1.492 . S
H480 C463 0.930 . S
H481 C464 0.930 . S
H482 C465 0.930 . S
H483 C466 0.930 . S
H484 C473 0.930 . S
H485 C475 0.930 . S
H486 C476 0.930 . S
H487 C477 0.930 1_554 S
H488 C496 0.929 . S
H489 C498 0.930 . S
H490 C500 0.930 . S
H491 C503 0.929 . S
H492 C506 0.930 . S
H493 C508 0.960 . S
H494 C508 0.960 . S
H495 C508 0.960 . S
C496 H488 0.929 . S
C496 C497 1.377 . S
C496 C498 1.384 . S
C497 C496 1.377 . S
C497 C503 1.390 . S
C498 H489 0.930 . S
C498 C496 1.384 . S
C498 C499 1.372 . S
C499 C498 1.372 . S
C499 C500 1.400 . S
C499 C504 1.490 . S
C500 H490 0.930 . S
C500 C499 1.400 . S
C500 C503 1.386 . S
H501 C517 0.930 . S
H502 C518 0.931 . S
C503 H491 0.929 . S
C503 C497 1.390 . S
C503 C500 1.386 . S
C504 C499 1.490 . S
C504 C506 1.395 . S
C504 C507 1.403 . S
H505 C511 0.930 . S
C506 H492 0.930 . S
C506 C504 1.395 . S
C506 C509 1.403 . S
C507 C504 1.403 . S
C507 C508 1.524 . S
C507 C511 1.400 . S
C508 H493 0.960 . S
C508 H494 0.960 . S
C508 H495 0.960 . S
C508 C507 1.524 . S
C509 C506 1.403 . S
C509 C510 1.392 . S
C509 C513 1.495 . S
C510 C509 1.392 . S
C510 C511 1.385 . S
C510 C512 1.478 . S
C511 H505 0.930 . S
C511 C507 1.400 . S
C511 C510 1.385 . S
C512 C510 1.478 . S
C512 C514 1.381 . S
C512 C518 1.383 . S
C513 C509 1.495 . S
C513 H519 0.959 . S
C513 H520 0.961 . S
C513 H521 0.960 . S
C514 C512 1.381 . S
C514 C515 1.394 . S
C514 H522 0.930 . S
C515 C514 1.394 . S
C515 C516 1.383 . S
C515 H523 0.929 . S
C516 C515 1.383 . S
C516 C517 1.377 . S
C517 H501 0.930 . S
C517 C516 1.377 . S
C517 C518 1.379 . S
C518 H502 0.931 . S
C518 C512 1.383 . S
C518 C517 1.379 . S
H519 C513 0.959 . S
H520 C513 0.961 . S
H521 C513 0.960 . S
H522 C514 0.930 . S
H523 C515 0.929 . S
H524 C532 0.929 . S
H525 C534 0.930 . S
H526 C536 0.930 . S
H527 C539 0.929 . S
H528 C542 0.930 . S
H529 C544 0.960 . S
H530 C544 0.960 . S
H531 C544 0.960 . S
C532 H524 0.929 . S
C532 C533 1.377 . S
C532 C534 1.384 . S
C533 C532 1.377 . S
C533 C539 1.390 . S
C534 H525 0.930 . S
C534 C532 1.384 . S
C534 C535 1.372 . S
C535 C534 1.372 . S
C535 C536 1.400 . S
C535 C540 1.490 . S
C536 H526 0.930 . S
C536 C535 1.400 . S
C536 C539 1.386 . S
H537 C553 0.930 . S
H538 C554 0.931 . S
C539 H527 0.929 . S
C539 C533 1.390 . S
C539 C536 1.386 . S
C540 C535 1.490 . S
C540 C542 1.395 . S
C540 C543 1.403 . S
H541 C547 0.930 . S
C542 H528 0.930 . S
C542 C540 1.395 . S
C542 C545 1.403 . S
C543 C540 1.403 . S
C543 C544 1.524 . S
C543 C547 1.400 . S
C544 H529 0.960 . S
C544 H530 0.960 . S
C544 H531 0.960 . S
C544 C543 1.524 . S
C545 C542 1.403 . S
C545 C546 1.392 . S
C545 C549 1.495 . S
C546 C545 1.392 . S
C546 C547 1.385 . S
C546 C548 1.478 . S
C547 H541 0.930 . S
C547 C543 1.400 . S
C547 C546 1.385 . S
C548 C546 1.478 . S
C548 C550 1.381 . S
C548 C554 1.383 . S
C549 C545 1.495 . S
C549 H555 0.959 . S
C549 H556 0.961 . S
C549 H557 0.960 . S
C550 C548 1.381 . S
C550 C551 1.394 . S
C550 H558 0.930 . S
C551 C550 1.394 . S
C551 C552 1.383 . S
C551 H559 0.929 . S
C552 C551 1.383 . S
C552 C553 1.377 . S
C553 H537 0.930 . S
C553 C552 1.377 . S
C553 C554 1.379 . S
C554 H538 0.931 . S
C554 C548 1.383 . S
C554 C553 1.379 . S
H555 C549 0.959 . S
H556 C549 0.961 . S
H557 C549 0.960 . S
H558 C550 0.930 . S
H559 C551 0.929 . S
H560 C568 0.929 . S
H561 C570 0.930 . S
H562 C572 0.930 . S
H563 C575 0.929 . S
H564 C578 0.930 . S
H565 C580 0.960 . S
H566 C580 0.960 . S
H567 C580 0.960 . S
C568 H560 0.929 . S
C568 C569 1.377 . S
C568 C570 1.384 . S
C569 C568 1.377 . S
C569 C575 1.390 . S
C570 H561 0.930 . S
C570 C568 1.384 . S
C570 C571 1.372 . S
C571 C570 1.372 . S
C571 C572 1.400 . S
C571 C576 1.490 . S
C572 H562 0.930 . S
C572 C571 1.400 . S
C572 C575 1.386 . S
H573 C589 0.930 . S
H574 C590 0.931 . S
C575 H563 0.929 . S
C575 C569 1.390 . S
C575 C572 1.386 . S
C576 C571 1.490 . S
C576 C578 1.395 . S
C576 C579 1.403 . S
H577 C583 0.930 . S
C578 H564 0.930 . S
C578 C576 1.395 . S
C578 C581 1.403 . S
C579 C576 1.403 . S
C579 C580 1.524 . S
C579 C583 1.400 . S
C580 H565 0.960 . S
C580 H566 0.960 . S
C580 H567 0.960 . S
C580 C579 1.524 . S
C581 C578 1.403 . S
C581 C582 1.392 . S
C581 C585 1.495 . S
C582 C581 1.392 . S
C582 C583 1.385 . S
C582 C584 1.478 . S
C583 H577 0.930 . S
C583 C579 1.400 . S
C583 C582 1.385 . S
C584 C582 1.478 . S
C584 C586 1.381 . S
C584 C590 1.383 . S
C585 C581 1.495 . S
C585 H591 0.959 . S
C585 H592 0.961 . S
C585 H593 0.960 . S
C586 C584 1.381 . S
C586 C587 1.394 . S
C586 H594 0.930 . S
C587 C586 1.394 . S
C587 C588 1.383 . S
C587 H595 0.929 . S
C588 C587 1.383 . S
C588 C589 1.377 . S
C589 H573 0.930 . S
C589 C588 1.377 . S
C589 C590 1.379 . S
C590 H574 0.931 . S
C590 C584 1.383 . S
C590 C589 1.379 . S
H591 C585 0.959 . S
H592 C585 0.961 . S
H593 C585 0.960 . S
H594 C586 0.930 . S
H595 C587 0.929 . S
H596 C604 0.929 . S
H597 C606 0.930 . S
H598 C608 0.930 . S
H599 C611 0.929 . S
H600 C614 0.930 . S
H601 C616 0.960 . S
H602 C616 0.960 . S
H603 C616 0.960 . S
C604 H596 0.929 . S
C604 C605 1.377 . S
C604 C606 1.384 . S
C605 C604 1.377 . S
C605 C611 1.390 . S
C606 H597 0.930 . S
C606 C604 1.384 . S
C606 C607 1.372 . S
C607 C606 1.372 . S
C607 C608 1.400 . S
C607 C612 1.490 . S
C608 H598 0.930 . S
C608 C607 1.400 . S
C608 C611 1.386 . S
H609 C625 0.930 . S
H610 C626 0.931 . S
C611 H599 0.929 . S
C611 C605 1.390 . S
C611 C608 1.386 . S
C612 C607 1.490 . S
C612 C614 1.395 . S
C612 C615 1.403 . S
H613 C619 0.930 . S
C614 H600 0.930 . S
C614 C612 1.395 . S
C614 C617 1.403 . S
C615 C612 1.403 . S
C615 C616 1.524 . S
C615 C619 1.400 . S
C616 H601 0.960 . S
C616 H602 0.960 . S
C616 H603 0.960 . S
C616 C615 1.524 . S
C617 C614 1.403 . S
C617 C618 1.392 . S
C617 C621 1.495 1_455 S
C618 C617 1.392 . S
C618 C619 1.385 . S
C618 C620 1.478 . S
C619 H613 0.930 . S
C619 C615 1.400 . S
C619 C618 1.385 . S
C620 C618 1.478 . S
C620 C622 1.381 . S
C620 C626 1.383 . S
C621 C617 1.495 1_655 S
C621 H627 0.959 . S
C621 H628 0.961 . S
C621 H629 0.962 . S
C622 C620 1.381 . S
C622 C623 1.394 . S
C622 H630 0.930 . S
C623 C622 1.394 . S
C623 C624 1.383 . S
C623 H631 0.929 . S
C624 C623 1.383 . S
C624 C625 1.377 . S
C625 H609 0.930 . S
C625 C624 1.377 . S
C625 C626 1.379 . S
C626 H610 0.931 . S
C626 C620 1.383 . S
C626 C625 1.379 . S
H627 C621 0.959 . S
H628 C621 0.961 . S
H629 C621 0.962 . S
H630 C622 0.930 . S
H631 C623 0.929 . S
H632 C640 0.929 . S
H633 C642 0.930 . S
H634 C644 0.930 1_556 S
H635 C647 0.929 . S
H636 C650 0.930 . S
H637 C652 0.960 . S
H638 C652 0.964 . S
H639 C652 0.960 . S
C640 H632 0.929 . S
C640 C641 1.377 . S
C640 C642 1.384 . S
C641 C640 1.377 . S
C641 C647 1.390 . S
C642 H633 0.930 . S
C642 C640 1.384 . S
C642 C643 1.372 . S
C643 C642 1.372 . S
C643 C644 1.400 . S
C643 C648 1.490 1_554 S
C644 H634 0.930 1_554 S
C644 C643 1.400 . S
C644 C647 1.386 . S
H645 C661 0.930 . S
H646 C662 0.915 1_545 S
C647 H635 0.929 . S
C647 C641 1.390 . S
C647 C644 1.386 . S
C648 C643 1.490 1_556 S
C648 C650 1.395 . S
C648 C651 1.403 . S
H649 C655 0.930 1_545 S
C650 H636 0.930 . S
C650 C648 1.395 . S
C650 C653 1.403 . S
C651 C648 1.403 . S
C651 C652 1.524 1_566 S
C651 C655 1.400 . S
C652 H637 0.960 . S
C652 H638 0.964 . S
C652 H639 0.960 . S
C652 C651 1.524 1_544 S
C653 C650 1.403 . S
C653 C654 1.392 . S
C653 C657 1.495 . S
C654 C653 1.392 . S
C654 C655 1.385 . S
C654 C656 1.478 . S
C655 H649 0.930 1_565 S
C655 C651 1.400 . S
C655 C654 1.385 . S
C656 C654 1.478 . S
C656 C658 1.381 . S
C656 C662 1.407 . S
C657 C653 1.495 . S
C657 H663 0.959 . S
C657 H664 0.961 . S
C657 H665 0.960 . S
C658 C656 1.381 . S
C658 C659 1.394 . S
C658 H666 0.930 . S
C659 C658 1.394 . S
C659 C660 1.383 . S
C659 H667 0.929 . S
C660 C659 1.383 . S
C660 C661 1.377 1_565 S
C661 H645 0.930 . S
C661 C660 1.377 1_545 S
C661 C662 1.371 1_545 S
C662 H646 0.915 1_565 S
C662 C656 1.407 . S
C662 C661 1.371 1_565 S
H663 C657 0.959 . S
H664 C657 0.961 . S
H665 C657 0.960 . S
H666 C658 0.930 . S
H667 C659 0.929 . S
H668 C676 0.929 . S
H669 C678 0.930 . S
H670 C680 0.930 . S
H671 C683 0.929 . S
H672 C686 0.930 1_554 S
H673 C688 0.960 . S
H674 C688 0.960 . S
H675 C688 0.960 . S
C676 H668 0.929 . S
C676 C677 1.377 . S
C676 C678 1.384 . S
C677 C676 1.377 . S
C677 C683 1.390 . S
C678 H669 0.930 . S
C678 C676 1.384 . S
C678 C679 1.372 . S
C679 C678 1.372 . S
C679 C680 1.400 1_554 S
C679 C684 1.490 1_554 S
C680 H670 0.930 . S
C680 C679 1.400 1_556 S
C680 C683 1.386 1_556 S
H681 C697 0.930 . S
H682 C698 0.931 . S
C683 H671 0.929 . S
C683 C677 1.390 . S
C683 C680 1.386 1_554 S
C684 C679 1.490 1_556 S
C684 C686 1.395 . S
C684 C687 1.403 . S
H685 C691 0.930 . S
C686 H672 0.930 1_556 S
C686 C684 1.395 . S
C686 C689 1.403 . S
C687 C684 1.403 . S
C687 C688 1.524 . S
C687 C691 1.400 . S
C688 H673 0.960 . S
C688 H674 0.960 . S
C688 H675 0.960 . S
C688 C687 1.524 . S
C689 C686 1.403 . S
C689 C690 1.392 . S
C689 C693 1.495 . S
C690 C689 1.392 . S
C690 C691 1.385 . S
C690 C692 1.478 . S
C691 H685 0.930 . S
C691 C687 1.400 . S
C691 C690 1.385 . S
C692 C690 1.478 . S
C692 C694 1.381 . S
C692 C698 1.383 . S
C693 C689 1.495 . S
C693 H699 0.959 1_556 S
C693 H700 0.961 . S
C693 H701 0.960 . S
C694 C692 1.381 . S
C694 C695 1.394 . S
C694 H702 0.930 . S
C695 C694 1.394 . S
C695 C696 1.383 . S
C695 H703 0.929 . S
C696 C695 1.383 . S
C696 C697 1.377 . S
C697 H681 0.930 . S
C697 C696 1.377 . S
C697 C698 1.379 . S
C698 H682 0.931 . S
C698 C692 1.383 . S
C698 C697 1.379 . S
H699 C693 0.959 1_554 S
H700 C693 0.961 . S
H701 C693 0.960 . S
H702 C694 0.930 . S
H703 C695 0.929 . S
H704 C712 0.929 . S
H705 C714 0.930 . S
H706 C716 0.930 1_556 S
H707 C719 0.929 . S
H708 C722 0.930 1_554 S
H709 C724 0.960 . S
H710 C724 0.960 . S
H711 C724 0.960 . S
C712 H704 0.929 . S
C712 C713 1.377 . S
C712 C714 1.384 . S
C713 C712 1.377 . S
C713 C719 1.390 . S
C714 H705 0.930 . S
C714 C712 1.384 . S
C714 C715 1.372 . S
C715 C714 1.372 . S
C715 C716 1.400 . S
C715 C720 1.490 1_554 S
C716 H706 0.930 1_554 S
C716 C715 1.400 . S
C716 C719 1.386 . S
H717 C733 0.930 . S
H718 C734 0.931 . S
C719 H707 0.929 . S
C719 C713 1.390 . S
C719 C716 1.386 . S
C720 C715 1.490 1_556 S
C720 C722 1.395 . S
C720 C723 1.403 . S
H721 C727 0.930 . S
C722 H708 0.930 1_556 S
C722 C720 1.395 . S
C722 C725 1.403 . S
C723 C720 1.403 . S
C723 C724 1.524 . S
C723 C727 1.400 . S
C724 H709 0.960 . S
C724 H710 0.960 . S
C724 H711 0.960 . S
C724 C723 1.524 . S
C725 C722 1.403 . S
C725 C726 1.392 . S
C725 C729 1.495 . S
C726 C725 1.392 . S
C726 C727 1.385 . S
C726 C728 1.478 . S
C727 H721 0.930 . S
C727 C723 1.400 . S
C727 C726 1.385 . S
C728 C726 1.478 . S
C728 C730 1.381 . S
C728 C734 1.383 . S
C729 C725 1.495 . S
C729 H735 0.959 1_556 S
C729 H736 0.961 . S
C729 H737 0.960 . S
C730 C728 1.381 . S
C730 C731 1.394 . S
C730 H738 0.930 . S
C731 C730 1.394 . S
C731 C732 1.383 . S
C731 H739 0.929 . S
C732 C731 1.383 . S
C732 C733 1.377 . S
C733 H717 0.930 . S
C733 C732 1.377 . S
C733 C734 1.379 . S
C734 H718 0.931 . S
C734 C728 1.383 . S
C734 C733 1.379 . S
H735 C729 0.959 1_554 S
H736 C729 0.961 . S
H737 C729 0.960 . S
H738 C730 0.930 . S
H739 C731 0.929 . S
H740 C748 0.929 . S
H741 C750 0.930 . S
H742 C752 0.930 . S
H743 C755 0.929 . S
H744 C758 0.930 . S
H745 C760 0.960 . S
H746 C760 0.960 . S
H747 C760 0.960 . S
C748 H740 0.929 . S
C748 C749 1.377 . S
C748 C750 1.384 . S
C749 C748 1.377 . S
C749 C755 1.390 . S
C750 H741 0.930 . S
C750 C748 1.384 . S
C750 C751 1.372 . S
C751 C750 1.372 . S
C751 C752 1.400 . S
C751 C756 1.490 1_554 S
C752 H742 0.930 . S
C752 C751 1.400 . S
C752 C755 1.386 . S
H753 C769 0.930 . S
H754 C770 0.897 1_455 S
C755 H743 0.929 . S
C755 C749 1.390 . S
C755 C752 1.386 . S
C756 C751 1.490 1_556 S
C756 C758 1.395 . S
C756 C759 1.403 . S
H757 C763 0.930 . S
C758 H744 0.930 . S
C758 C756 1.395 . S
C758 C761 1.403 . S
C759 C756 1.403 . S
C759 C760 1.524 1_556 S
C759 C763 1.400 . S
C760 H745 0.960 . S
C760 H746 0.960 . S
C760 H747 0.960 . S
C760 C759 1.524 1_554 S
C761 C758 1.403 . S
C761 C762 1.392 . S
C761 C765 1.495 . S
C762 C761 1.392 . S
C762 C763 1.385 . S
C762 C764 1.478 . S
C763 H757 0.930 . S
C763 C759 1.400 . S
C763 C762 1.385 . S
C764 C762 1.478 . S
C764 C766 1.381 . S
C764 C770 1.429 . S
C765 C761 1.495 . S
C765 H771 0.959 . S
C765 H772 0.961 . S
C765 H773 0.960 . S
C766 C764 1.381 . S
C766 C767 1.394 . S
C766 H774 0.930 . S
C767 C766 1.394 . S
C767 C768 1.383 . S
C767 H775 0.929 . S
C768 C767 1.383 . S
C768 C769 1.377 1_655 S
C769 H753 0.930 . S
C769 C768 1.377 1_455 S
C769 C770 1.367 1_455 S
C770 H754 0.897 1_655 S
C770 C764 1.429 . S
C770 C769 1.367 1_655 S
H771 C765 0.959 . S
H772 C765 0.961 . S
H773 C765 0.960 . S
H774 C766 0.930 . S
H775 C767 0.929 . S
H776 C784 0.929 . S
H777 C786 0.930 . S
H778 C788 0.930 . S
H779 C791 0.929 . S
H780 C794 0.930 . S
H781 C796 0.960 . S
H782 C796 0.960 . S
H783 C796 0.960 . S
C784 H776 0.929 . S
C784 C785 1.377 . S
C784 C786 1.384 . S
C785 C784 1.377 . S
C785 C791 1.390 . S
C786 H777 0.930 . S
C786 C784 1.384 . S
C786 C787 1.372 . S
C787 C786 1.372 . S
C787 C788 1.400 . S
C787 C792 1.490 . S
C788 H778 0.930 . S
C788 C787 1.400 . S
C788 C791 1.386 . S
H789 C805 0.930 . S
H790 C806 0.931 . S
C791 H779 0.929 . S
C791 C785 1.390 . S
C791 C788 1.386 . S
C792 C787 1.490 . S
C792 C794 1.395 . S
C792 C795 1.403 . S
H793 C799 0.930 . S
C794 H780 0.930 . S
C794 C792 1.395 . S
C794 C797 1.403 . S
C795 C792 1.403 . S
C795 C796 1.524 . S
C795 C799 1.400 . S
C796 H781 0.960 . S
C796 H782 0.960 . S
C796 H783 0.960 . S
C796 C795 1.524 . S
C797 C794 1.403 . S
C797 C798 1.392 . S
C797 C801 1.485 1_455 S
C798 C797 1.392 . S
C798 C799 1.385 . S
C798 C800 1.478 . S
C799 H793 0.930 . S
C799 C795 1.400 . S
C799 C798 1.385 . S
C800 C798 1.478 . S
C800 C802 1.381 . S
C800 C806 1.383 . S
C801 C797 1.485 1_655 S
C801 H807 0.963 . S
C801 H808 0.959 1_655 S
C801 H809 0.968 . S
C802 C800 1.381 . S
C802 C803 1.394 1_455 S
C802 H810 0.930 1_455 S
C803 C802 1.394 1_655 S
C803 C804 1.383 1_655 S
C803 H811 0.929 . S
C804 C803 1.383 1_455 S
C804 C805 1.377 . S
C805 H789 0.930 . S
C805 C804 1.377 . S
C805 C806 1.379 . S
C806 H790 0.931 . S
C806 C800 1.383 . S
C806 C805 1.379 . S
H807 C801 0.963 . S
H808 C801 0.959 1_455 S
H809 C801 0.968 . S
H810 C802 0.930 1_655 S
H811 C803 0.929 . S
H812 C820 0.929 . S
H813 C822 0.930 . S
H814 C824 0.930 . S
H815 C827 0.929 . S
H816 C830 0.930 . S
H817 C832 0.960 . S
H818 C832 0.960 . S
H819 C832 0.960 . S
C820 H812 0.929 . S
C820 C821 1.377 . S
C820 C822 1.384 . S
C821 C820 1.377 . S
C821 C827 1.390 . S
C822 H813 0.930 . S
C822 C820 1.384 . S
C822 C823 1.372 . S
C823 C822 1.372 . S
C823 C824 1.400 . S
C823 C828 1.490 . S
C824 H814 0.930 . S
C824 C823 1.400 . S
C824 C827 1.386 . S
H825 C841 0.930 . S
H826 C842 0.931 . S
C827 H815 0.929 . S
C827 C821 1.390 . S
C827 C824 1.386 . S
C828 C823 1.490 . S
C828 C830 1.395 . S
C828 C831 1.403 . S
H829 C835 0.930 . S
C830 H816 0.930 . S
C830 C828 1.395 . S
C830 C833 1.403 . S
C831 C828 1.403 . S
C831 C832 1.524 . S
C831 C835 1.400 . S
C832 H817 0.960 . S
C832 H818 0.960 . S
C832 H819 0.960 . S
C832 C831 1.524 . S
C833 C830 1.403 . S
C833 C834 1.392 . S
C833 C837 1.495 . S
C834 C833 1.392 . S
C834 C835 1.385 . S
C834 C836 1.478 . S
C835 H829 0.930 . S
C835 C831 1.400 . S
C835 C834 1.385 . S
C836 C834 1.478 . S
C836 C838 1.381 . S
C836 C842 1.383 . S
C837 C833 1.495 . S
C837 H843 0.959 . S
C837 H844 0.961 . S
C837 H845 0.960 1_545 S
C838 C836 1.381 . S
C838 C839 1.394 1_545 S
C838 H846 0.930 1_545 S
C839 C838 1.394 1_565 S
C839 C840 1.383 1_565 S
C839 H847 0.929 . S
C840 C839 1.383 1_545 S
C840 C841 1.377 . S
C841 H825 0.930 . S
C841 C840 1.377 . S
C841 C842 1.379 . S
C842 H826 0.931 . S
C842 C836 1.383 . S
C842 C841 1.379 . S
H843 C837 0.959 . S
H844 C837 0.961 . S
H845 C837 0.960 1_565 S
H846 C838 0.930 1_565 S
H847 C839 0.929 . S
H848 C856 0.929 . S
H849 C858 0.930 . S
H850 C860 0.930 . S
H851 C863 0.929 . S
H852 C866 0.930 . S
H853 C868 0.960 . S
H854 C868 0.960 . S
H855 C868 0.960 . S
C856 H848 0.929 . S
C856 C857 1.377 . S
C856 C858 1.384 . S
C857 C856 1.377 . S
C857 C863 1.390 . S
C858 H849 0.930 . S
C858 C856 1.384 . S
C858 C859 1.372 . S
C859 C858 1.372 . S
C859 C860 1.400 . S
C859 C864 1.490 . S
C860 H850 0.930 . S
C860 C859 1.400 . S
C860 C863 1.386 . S
H861 C877 0.930 . S
H862 C878 0.931 . S
C863 H851 0.929 . S
C863 C857 1.390 . S
C863 C860 1.386 . S
C864 C859 1.490 . S
C864 C866 1.395 . S
C864 C867 1.403 . S
H865 C871 0.930 . S
C866 H852 0.930 . S
C866 C864 1.395 . S
C866 C869 1.403 . S
C867 C864 1.403 . S
C867 C868 1.524 . S
C867 C871 1.400 . S
C868 H853 0.960 . S
C868 H854 0.960 . S
C868 H855 0.960 . S
C868 C867 1.524 . S
C869 C866 1.403 . S
C869 C870 1.392 . S
C869 C873 1.495 . S
C870 C869 1.392 . S
C870 C871 1.385 . S
C870 C872 1.478 . S
C871 H865 0.930 . S
C871 C867 1.400 . S
C871 C870 1.385 . S
C872 C870 1.478 . S
C872 C874 1.381 . S
C872 C878 1.383 . S
C873 C869 1.495 . S
C873 H879 0.959 . S
C873 H880 0.961 . S
C873 H881 0.960 . S
C874 C872 1.381 . S
C874 C875 1.394 . S
C874 H882 0.930 . S
C875 C874 1.394 . S
C875 C876 1.383 . S
C875 H883 0.929 . S
C876 C875 1.383 . S
C876 C877 1.377 . S
C877 H861 0.930 . S
C877 C876 1.377 . S
C877 C878 1.379 . S
C878 H862 0.931 . S
C878 C872 1.383 . S
C878 C877 1.379 . S
H879 C873 0.959 . S
H880 C873 0.961 . S
H881 C873 0.960 . S
H882 C874 0.930 . S
H883 C875 0.929 . S
H884 C892 0.929 . S
H885 C894 0.930 . S
H886 C896 0.930 . S
H887 C899 0.929 1_556 S
H888 C902 0.930 . S
H889 C904 0.960 . S
H890 C904 0.960 . S
H891 C904 0.960 . S
C892 H884 0.929 . S
C892 C893 1.377 . S
C892 C894 1.384 . S
C893 C892 1.377 . S
C893 C899 1.390 . S
C894 H885 0.930 . S
C894 C892 1.384 . S
C894 C895 1.372 . S
C895 C894 1.372 . S
C895 C896 1.400 . S
C895 C900 1.490 . S
C896 H886 0.930 . S
C896 C895 1.400 . S
C896 C899 1.386 . S
H897 C913 0.930 . S
H898 C914 0.931 . S
C899 H887 0.929 1_554 S
C899 C893 1.390 . S
C899 C896 1.386 . S
C900 C895 1.490 . S
C900 C902 1.395 . S
C900 C903 1.403 . S
H901 C907 0.930 . S
C902 H888 0.930 . S
C902 C900 1.395 . S
C902 C905 1.403 . S
C903 C900 1.403 . S
C903 C904 1.524 . S
C903 C907 1.400 . S
C904 H889 0.960 . S
C904 H890 0.960 . S
C904 H891 0.960 . S
C904 C903 1.524 . S
C905 C902 1.403 . S
C905 C906 1.392 . S
C905 C909 1.495 . S
C906 C905 1.392 . S
C906 C907 1.385 . S
C906 C908 1.478 . S
C907 H901 0.930 . S
C907 C903 1.400 . S
C907 C906 1.385 . S
C908 C906 1.478 . S
C908 C910 1.381 . S
C908 C914 1.383 . S
C909 C905 1.495 . S
C909 H915 0.959 . S
C909 H916 0.961 . S
C909 H917 0.960 . S
C910 C908 1.381 . S
C910 C911 1.394 . S
C910 H918 0.930 . S
C911 C910 1.394 . S
C911 C912 1.383 . S
C911 H919 0.929 . S
C912 C911 1.383 . S
C912 C913 1.377 . S
C913 H897 0.930 . S
C913 C912 1.377 . S
C913 C914 1.379 . S
C914 H898 0.931 . S
C914 C908 1.383 . S
C914 C913 1.379 . S
H915 C909 0.959 . S
H916 C909 0.961 . S
H917 C909 0.960 . S
H918 C910 0.930 . S
H919 C911 0.929 . S
H920 C928 0.929 . S
H921 C930 0.930 1_556 S
H922 C932 0.930 . S
H923 C935 0.929 . S
H924 C938 0.930 . S
H925 C940 0.960 . S
H926 C940 0.960 . S
H927 C940 0.960 . S
C928 H920 0.929 . S
C928 C929 1.377 . S
C928 C930 1.384 . S
C929 C928 1.377 . S
C929 C935 1.390 . S
C930 H921 0.930 1_554 S
C930 C928 1.384 . S
C930 C931 1.372 . S
C931 C930 1.372 . S
C931 C932 1.400 . S
C931 C936 1.490 . S
C932 H922 0.930 . S
C932 C931 1.400 . S
C932 C935 1.386 . S
H933 C949 0.930 . S
H934 C950 0.931 1_554 S
C935 H923 0.929 . S
C935 C929 1.390 . S
C935 C932 1.386 . S
C936 C931 1.490 . S
C936 C938 1.395 . S
C936 C939 1.403 . S
H937 C943 0.930 1_455 S
C938 H924 0.930 . S
C938 C936 1.395 . S
C938 C941 1.403 1_554 S
C939 C936 1.403 . S
C939 C940 1.524 1_655 S
C939 C943 1.400 1_554 S
C940 H925 0.960 . S
C940 H926 0.960 . S
C940 H927 0.960 . S
C940 C939 1.524 1_455 S
C941 C938 1.403 1_556 S
C941 C942 1.392 . S
C941 C945 1.495 . S
C942 C941 1.392 . S
C942 C943 1.385 . S
C942 C944 1.478 . S
C943 H937 0.930 1_655 S
C943 C939 1.400 1_556 S
C943 C942 1.385 . S
C944 C942 1.478 . S
C944 C946 1.381 . S
C944 C950 1.383 . S
C945 C941 1.495 . S
C945 H951 0.959 . S
C945 H952 0.961 . S
C945 H953 0.960 . S
C946 C944 1.381 . S
C946 C947 1.394 . S
C946 H954 0.930 . S
C947 C946 1.394 . S
C947 C948 1.370 1_655 S
C947 H955 0.929 . S
C948 C947 1.370 1_455 S
C948 C949 1.379 . S
C949 H933 0.930 . S
C949 C948 1.379 . S
C949 C950 1.379 1_455 S
C950 H934 0.931 1_556 S
C950 C944 1.383 . S
C950 C949 1.379 1_655 S
H951 C945 0.959 . S
H952 C945 0.961 . S
H953 C945 0.960 . S
H954 C946 0.930 . S
H955 C947 0.929 . S
H956 C964 0.929 . S
H957 C966 0.930 . S
H958 C968 0.930 . S
H959 C971 0.929 . S
H960 C974 0.930 . S
H961 C976 0.960 1_545 S
H962 C976 0.960 . S
H963 C976 0.942 1_545 S
C964 H956 0.929 . S
C964 C965 1.377 . S
C964 C966 1.384 . S
C965 C964 1.377 . S
C965 C971 1.390 . S
C966 H957 0.930 . S
C966 C964 1.384 . S
C966 C967 1.372 . S
C967 C966 1.372 . S
C967 C968 1.400 . S
C967 C972 1.490 . S
C968 H958 0.930 . S
C968 C967 1.400 . S
C968 C971 1.386 . S
H969 C985 0.930 . S
H970 C986 0.931 . S
C971 H959 0.929 . S
C971 C965 1.390 . S
C971 C968 1.386 . S
C972 C967 1.490 . S
C972 C974 1.395 . S
C972 C975 1.403 1_554 S
H973 C979 0.925 1_545 S
C974 H960 0.930 . S
C974 C972 1.395 . S
C974 C977 1.403 . S
C975 C972 1.403 1_556 S
C975 C976 1.524 . S
C975 C979 1.400 . S
C976 H961 0.960 1_565 S
C976 H962 0.960 . S
C976 H963 0.942 1_565 S
C976 C975 1.524 . S
C977 C974 1.403 . S
C977 C978 1.392 1_554 S
C977 C981 1.495 . S
C978 C977 1.392 1_556 S
C978 C979 1.385 . S
C978 C980 1.478 . S
C979 H973 0.925 1_565 S
C979 C975 1.400 . S
C979 C978 1.385 . S
C980 C978 1.478 . S
C980 C982 1.381 . S
C980 C986 1.383 1_565 S
C981 C977 1.495 . S
C981 H987 0.959 . S
C981 H988 0.961 . S
C981 H989 0.960 . S
C982 C980 1.381 . S
C982 C983 1.394 . S
C982 H990 0.930 . S
C983 C982 1.394 . S
C983 C984 1.383 1_565 S
C983 H991 0.929 . S
C984 C983 1.383 1_545 S
C984 C985 1.377 . S
C985 H969 0.930 . S
C985 C984 1.377 . S
C985 C986 1.379 . S
C986 H970 0.931 . S
C986 C980 1.383 1_545 S
C986 C985 1.379 . S
H987 C981 0.959 . S
H988 C981 0.961 . S
H989 C981 0.960 . S
H990 C982 0.930 . S
H991 C983 0.929 . S
H992 C1000 0.929 . S
H993 C1002 0.930 . S
H994 C1004 0.930 . S
H995 C1007 0.929 . S
H996 C1010 0.930 . S
H997 C1012 0.960 . S
H998 C1012 0.960 . S
H999 C1012 0.960 . S
C1000 H992 0.929 . S
C1000 C1001 1.377 . S
C1000 C1002 1.384 . S
C1001 C1000 1.377 . S
C1001 C1007 1.390 . S
C1002 H993 0.930 . S
C1002 C1000 1.384 . S
C1002 C1003 1.372 . S
C1003 C1002 1.372 . S
C1003 C1004 1.400 . S
C1003 C1008 1.490 . S
C1004 H994 0.930 . S
C1004 C1003 1.400 . S
C1004 C1007 1.386 . S
H1005 C1021 0.930 . S
H1006 C1022 0.931 . S
C1007 H995 0.929 . S
C1007 C1001 1.390 . S
C1007 C1004 1.386 . S
C1008 C1003 1.490 . S
C1008 C1010 1.395 1_554 S
C1008 C1011 1.403 . S
H1009 C1015 0.930 . S
C1010 H996 0.930 . S
C1010 C1008 1.395 1_556 S
C1010 C1013 1.403 . S
C1011 C1008 1.403 . S
C1011 C1012 1.524 . S
C1011 C1015 1.400 . S
C1012 H997 0.960 . S
C1012 H998 0.960 . S
C1012 H999 0.960 . S
C1012 C1011 1.524 . S
C1013 C1010 1.403 . S
C1013 C1014 1.392 . S
C1013 C1017 1.495 . S
C1014 C1013 1.392 . S
C1014 C1015 1.385 1_556 S
C1014 C1016 1.478 . S
C1015 H1009 0.930 . S
C1015 C1011 1.400 . S
C1015 C1014 1.385 1_554 S
C1016 C1014 1.478 . S
C1016 C1018 1.381 . S
C1016 C1022 1.383 . S
C1017 C1013 1.495 . S
C1017 H1023 0.959 . S
C1017 H1024 0.961 . S
C1017 H1025 0.960 . S
C1018 C1016 1.381 . S
C1018 C1019 1.394 . S
C1018 H1026 0.930 . S
C1019 C1018 1.394 . S
C1019 C1020 1.383 . S
C1019 H1027 0.929 . S
C1020 C1019 1.383 . S
C1020 C1021 1.377 . S
C1021 H1005 0.930 . S
C1021 C1020 1.377 . S
C1021 C1022 1.379 . S
C1022 H1006 0.931 . S
C1022 C1016 1.383 . S
C1022 C1021 1.379 . S
H1023 C1017 0.959 . S
H1024 C1017 0.961 . S
H1025 C1017 0.960 . S
H1026 C1018 0.930 . S
H1027 C1019 0.929 . S
H1028 C1036 0.929 . S
H1029 C1038 0.930 . S
H1030 C1040 0.930 . S
H1031 C1043 0.929 . S
H1032 C1046 0.930 . S
H1033 C1048 0.960 . S
H1034 C1048 0.960 . S
H1035 C1048 0.960 . S
C1036 H1028 0.929 . S
C1036 C1037 1.377 . S
C1036 C1038 1.384 . S
C1037 C1036 1.377 . S
C1037 C1043 1.390 . S
C1038 H1029 0.930 . S
C1038 C1036 1.384 . S
C1038 C1039 1.372 . S
C1039 C1038 1.372 . S
C1039 C1040 1.400 . S
C1039 C1044 1.490 . S
C1040 H1030 0.930 . S
C1040 C1039 1.400 . S
C1040 C1043 1.386 . S
H1041 C1057 0.930 . S
H1042 C1058 0.931 . S
C1043 H1031 0.929 . S
C1043 C1037 1.390 . S
C1043 C1040 1.386 . S
C1044 C1039 1.490 . S
C1044 C1046 1.395 . S
C1044 C1047 1.403 1_554 S
H1045 C1051 0.930 . S
C1046 H1032 0.930 . S
C1046 C1044 1.395 . S
C1046 C1049 1.403 . S
C1047 C1044 1.403 1_556 S
C1047 C1048 1.524 . S
C1047 C1051 1.400 . S
C1048 H1033 0.960 . S
C1048 H1034 0.960 . S
C1048 H1035 0.960 . S
C1048 C1047 1.524 . S
C1049 C1046 1.403 . S
C1049 C1050 1.392 1_554 S
C1049 C1053 1.495 . S
C1050 C1049 1.392 1_556 S
C1050 C1051 1.385 . S
C1050 C1052 1.478 . S
C1051 H1045 0.930 . S
C1051 C1047 1.400 . S
C1051 C1050 1.385 . S
C1052 C1050 1.478 . S
C1052 C1054 1.381 . S
C1052 C1058 1.383 . S
C1053 C1049 1.495 . S
C1053 H1059 0.959 . S
C1053 H1060 0.961 . S
C1053 H1061 0.960 . S
C1054 C1052 1.381 . S
C1054 C1055 1.394 . S
C1054 H1062 0.930 . S
C1055 C1054 1.394 . S
C1055 C1056 1.383 . S
C1055 H1063 0.929 . S
C1056 C1055 1.383 . S
C1056 C1057 1.377 . S
C1057 H1041 0.930 . S
C1057 C1056 1.377 . S
C1057 C1058 1.379 . S
C1058 H1042 0.931 . S
C1058 C1052 1.383 . S
C1058 C1057 1.379 . S
H1059 C1053 0.959 . S
H1060 C1053 0.961 . S
H1061 C1053 0.960 . S
H1062 C1054 0.930 . S
H1063 C1055 0.929 . S
H1064 C1072 0.929 . S
H1065 C1074 0.930 . S
H1066 C1076 0.930 . S
H1067 C1079 0.929 . S
H1068 C1082 0.930 . S
H1069 C1084 0.960 . S
H1070 C1084 0.960 . S
H1071 C1084 0.960 . S
C1072 H1064 0.929 . S
C1072 C1073 1.377 . S
C1072 C1074 1.384 . S
C1073 C1072 1.377 . S
C1073 C1079 1.390 . S
C1074 H1065 0.930 . S
C1074 C1072 1.384 . S
C1074 C1075 1.372 . S
C1075 C1074 1.372 . S
C1075 C1076 1.400 . S
C1075 C1080 1.490 . S
C1076 H1066 0.930 . S
C1076 C1075 1.400 . S
C1076 C1079 1.386 . S
H1077 C1093 0.930 . S
H1078 C1094 0.931 . S
C1079 H1067 0.929 . S
C1079 C1073 1.390 . S
C1079 C1076 1.386 . S
C1080 C1075 1.490 . S
C1080 C1082 1.395 . S
C1080 C1083 1.403 . S
H1081 C1087 0.930 . S
C1082 H1068 0.930 . S
C1082 C1080 1.395 . S
C1082 C1085 1.403 . S
C1083 C1080 1.403 . S
C1083 C1084 1.524 . S
C1083 C1087 1.400 . S
C1084 H1069 0.960 . S
C1084 H1070 0.960 . S
C1084 H1071 0.960 . S
C1084 C1083 1.524 . S
C1085 C1082 1.403 . S
C1085 C1086 1.392 . S
C1085 C1089 1.495 1_455 S
C1086 C1085 1.392 . S
C1086 C1087 1.385 . S
C1086 C1088 1.478 . S
C1087 H1081 0.930 . S
C1087 C1083 1.400 . S
C1087 C1086 1.385 . S
C1088 C1086 1.478 . S
C1088 C1090 1.381 . S
C1088 C1094 1.383 . S
C1089 C1085 1.495 1_655 S
C1089 H1095 0.959 . S
C1089 H1096 0.961 . S
C1089 H1097 0.960 . S
C1090 C1088 1.381 . S
C1090 C1091 1.394 . S
C1090 H1098 0.930 . S
C1091 C1090 1.394 . S
C1091 C1092 1.383 . S
C1091 H1099 0.929 . S
C1092 C1091 1.383 . S
C1092 C1093 1.377 . S
C1093 H1077 0.930 . S
C1093 C1092 1.377 . S
C1093 C1094 1.379 . S
C1094 H1078 0.931 . S
C1094 C1088 1.383 . S
C1094 C1093 1.379 . S
H1095 C1089 0.959 . S
H1096 C1089 0.961 . S
H1097 C1089 0.960 . S
H1098 C1090 0.930 . S
H1099 C1091 0.929 . S
H1100 C1108 0.929 . S
H1101 C1110 0.930 . S
H1102 C1112 0.930 . S
H1103 C1115 0.929 . S
H1104 C1118 0.930 . S
H1105 C1120 0.960 . S
H1106 C1120 0.960 . S
H1107 C1120 0.960 . S
C1108 H1100 0.929 . S
C1108 C1109 1.377 . S
C1108 C1110 1.384 . S
C1109 C1108 1.377 . S
C1109 C1115 1.390 . S
C1110 H1101 0.930 . S
C1110 C1108 1.384 . S
C1110 C1111 1.372 . S
C1111 C1110 1.372 . S
C1111 C1112 1.400 . S
C1111 C1116 1.490 . S
C1112 H1102 0.930 . S
C1112 C1111 1.400 . S
C1112 C1115 1.386 . S
H1113 C1129 0.930 . S
H1114 C1130 0.931 . S
C1115 H1103 0.929 . S
C1115 C1109 1.390 . S
C1115 C1112 1.386 . S
C1116 C1111 1.490 . S
C1116 C1118 1.395 . S
C1116 C1119 1.403 . S
H1117 C1123 0.930 . S
C1118 H1104 0.930 . S
C1118 C1116 1.395 . S
C1118 C1121 1.403 . S
C1119 C1116 1.403 . S
C1119 C1120 1.524 . S
C1119 C1123 1.400 . S
C1120 H1105 0.960 . S
C1120 H1106 0.960 . S
C1120 H1107 0.960 . S
C1120 C1119 1.524 . S
C1121 C1118 1.403 . S
C1121 C1122 1.392 . S
C1121 C1125 1.495 . S
C1122 C1121 1.392 . S
C1122 C1123 1.385 . S
C1122 C1124 1.478 . S
C1123 H1117 0.930 . S
C1123 C1119 1.400 . S
C1123 C1122 1.385 . S
C1124 C1122 1.478 . S
C1124 C1126 1.381 . S
C1124 C1130 1.383 . S
C1125 C1121 1.495 . S
C1125 H1131 0.959 . S
C1125 H1132 0.961 . S
C1125 H1133 0.960 . S
C1126 C1124 1.381 . S
C1126 C1127 1.394 . S
C1126 H1134 0.930 . S
C1127 C1126 1.394 . S
C1127 C1128 1.383 . S
C1127 H1135 0.929 . S
C1128 C1127 1.383 . S
C1128 C1129 1.377 . S
C1129 H1113 0.930 . S
C1129 C1128 1.377 . S
C1129 C1130 1.379 . S
C1130 H1114 0.931 . S
C1130 C1124 1.383 . S
C1130 C1129 1.379 . S
H1131 C1125 0.959 . S
H1132 C1125 0.961 . S
H1133 C1125 0.960 . S
H1134 C1126 0.930 . S
H1135 C1127 0.929 . S
H1136 C1144 0.929 . S
H1137 C1146 0.930 . S
H1138 C1148 0.930 . S
H1139 C1151 0.929 . S
H1140 C1154 0.930 . S
H1141 C1156 0.960 . S
H1142 C1156 0.960 . S
H1143 C1156 0.960 . S
C1144 H1136 0.929 . S
C1144 C1145 1.377 . S
C1144 C1146 1.384 . S
C1145 C1144 1.377 . S
C1145 C1151 1.390 . S
C1146 H1137 0.930 . S
C1146 C1144 1.384 . S
C1146 C1147 1.372 . S
C1147 C1146 1.372 . S
C1147 C1148 1.400 . S
C1147 C1152 1.490 . S
C1148 H1138 0.930 . S
C1148 C1147 1.400 . S
C1148 C1151 1.386 . S
H1149 C1165 0.930 . S
H1150 C1166 0.931 . S
C1151 H1139 0.929 . S
C1151 C1145 1.390 . S
C1151 C1148 1.386 . S
C1152 C1147 1.490 . S
C1152 C1154 1.395 . S
C1152 C1155 1.403 . S
H1153 C1159 0.930 . S
C1154 H1140 0.930 . S
C1154 C1152 1.395 . S
C1154 C1157 1.403 . S
C1155 C1152 1.403 . S
C1155 C1156 1.524 . S
C1155 C1159 1.400 . S
C1156 H1141 0.960 . S
C1156 H1142 0.960 . S
C1156 H1143 0.960 . S
C1156 C1155 1.524 . S
C1157 C1154 1.403 . S
C1157 C1158 1.392 . S
C1157 C1161 1.495 . S
C1158 C1157 1.392 . S
C1158 C1159 1.385 . S
C1158 C1160 1.478 . S
C1159 H1153 0.930 . S
C1159 C1155 1.400 . S
C1159 C1158 1.385 . S
C1160 C1158 1.478 . S
C1160 C1162 1.381 . S
C1160 C1166 1.383 . S
C1161 C1157 1.495 . S
C1161 H1167 0.959 . S
C1161 H1168 0.961 . S
C1161 H1169 0.960 . S
C1162 C1160 1.381 . S
C1162 C1163 1.394 . S
C1162 H1170 0.930 . S
C1163 C1162 1.394 . S
C1163 C1164 1.383 . S
C1163 H1171 0.929 . S
C1164 C1163 1.383 . S
C1164 C1165 1.377 . S
C1165 H1149 0.930 . S
C1165 C1164 1.377 . S
C1165 C1166 1.379 . S
C1166 H1150 0.931 . S
C1166 C1160 1.383 . S
C1166 C1165 1.379 . S
H1167 C1161 0.959 . S
H1168 C1161 0.961 . S
H1169 C1161 0.960 . S
H1170 C1162 0.930 . S
H1171 C1163 0.929 . S
H1172 C1180 0.929 . S
H1173 C1182 0.930 . S
H1174 C1184 0.930 . S
H1175 C1187 0.929 . S
H1176 C1190 0.930 . S
H1177 C1192 0.960 . S
H1178 C1192 0.960 . S
H1179 C1192 0.960 . S
C1180 H1172 0.929 . S
C1180 C1181 1.377 . S
C1180 C1182 1.384 . S
C1181 C1180 1.377 . S
C1181 C1187 1.390 . S
C1182 H1173 0.930 . S
C1182 C1180 1.384 . S
C1182 C1183 1.372 . S
C1183 C1182 1.372 . S
C1183 C1184 1.400 . S
C1183 C1188 1.490 . S
C1184 H1174 0.930 . S
C1184 C1183 1.400 . S
C1184 C1187 1.386 . S
H1185 C1201 0.930 . S
H1186 C1202 0.931 . S
C1187 H1175 0.929 . S
C1187 C1181 1.390 . S
C1187 C1184 1.386 . S
C1188 C1183 1.490 . S
C1188 C1190 1.395 . S
C1188 C1191 1.403 . S
H1189 C1195 0.930 . S
C1190 H1176 0.930 . S
C1190 C1188 1.395 . S
C1190 C1193 1.403 . S
C1191 C1188 1.403 . S
C1191 C1192 1.524 . S
C1191 C1195 1.400 . S
C1192 H1177 0.960 . S
C1192 H1178 0.960 . S
C1192 H1179 0.960 . S
C1192 C1191 1.524 . S
C1193 C1190 1.403 . S
C1193 C1194 1.392 . S
C1193 C1197 1.495 . S
C1194 C1193 1.392 . S
C1194 C1195 1.385 . S
C1194 C1196 1.478 . S
C1195 H1189 0.930 . S
C1195 C1191 1.400 . S
C1195 C1194 1.385 . S
C1196 C1194 1.478 . S
C1196 C1198 1.381 . S
C1196 C1202 1.383 . S
C1197 C1193 1.495 . S
C1197 H1203 0.959 . S
C1197 H1204 0.961 . S
C1197 H1205 0.960 . S
C1198 C1196 1.381 . S
C1198 C1199 1.394 . S
C1198 H1206 0.930 . S
C1199 C1198 1.394 . S
C1199 C1200 1.383 . S
C1199 H1207 0.929 . S
C1200 C1199 1.383 . S
C1200 C1201 1.377 . S
C1201 H1185 0.930 . S
C1201 C1200 1.377 . S
C1201 C1202 1.379 . S
C1202 H1186 0.931 . S
C1202 C1196 1.383 . S
C1202 C1201 1.379 . S
H1203 C1197 0.959 . S
H1204 C1197 0.961 . S
H1205 C1197 0.960 . S
H1206 C1198 0.930 . S
H1207 C1199 0.929 . S
H1208 C1216 0.929 . S
H1209 C1218 0.930 . S
H1210 C1220 0.930 . S
H1211 C1223 0.929 . S
H1212 C1226 0.930 . S
H1213 C1228 0.960 . S
H1214 C1228 0.960 . S
H1215 C1228 0.960 . S
C1216 H1208 0.929 . S
C1216 C1217 1.377 . S
C1216 C1218 1.384 . S
C1217 C1216 1.377 . S
C1217 C1223 1.390 . S
C1218 H1209 0.930 . S
C1218 C1216 1.384 . S
C1218 C1219 1.372 . S
C1219 C1218 1.372 . S
C1219 C1220 1.400 . S
C1219 C1224 1.490 . S
C1220 H1210 0.930 . S
C1220 C1219 1.400 . S
C1220 C1223 1.386 . S
H1221 C1237 0.930 . S
H1222 C1238 0.931 . S
C1223 H1211 0.929 . S
C1223 C1217 1.390 . S
C1223 C1220 1.386 . S
C1224 C1219 1.490 . S
C1224 C1226 1.395 . S
C1224 C1227 1.403 . S
H1225 C1231 0.930 . S
C1226 H1212 0.930 . S
C1226 C1224 1.395 . S
C1226 C1229 1.403 . S
C1227 C1224 1.403 . S
C1227 C1228 1.524 . S
C1227 C1231 1.400 . S
C1228 H1213 0.960 . S
C1228 H1214 0.960 . S
C1228 H1215 0.960 . S
C1228 C1227 1.524 . S
C1229 C1226 1.403 . S
C1229 C1230 1.392 . S
C1229 C1233 1.495 . S
C1230 C1229 1.392 . S
C1230 C1231 1.385 . S
C1230 C1232 1.478 . S
C1231 H1225 0.930 . S
C1231 C1227 1.400 . S
C1231 C1230 1.385 . S
C1232 C1230 1.478 . S
C1232 C1234 1.421 . S
C1232 C1238 1.383 . S
C1233 C1229 1.495 . S
C1233 H1239 0.959 . S
C1233 H1240 0.961 . S
C1233 H1241 0.960 1_655 S
C1234 C1232 1.421 . S
C1234 C1235 1.387 1_655 S
C1234 H1242 0.897 1_655 S
C1235 C1234 1.387 1_455 S
C1235 C1236 1.383 1_455 S
C1235 H1243 0.929 . S
C1236 C1235 1.383 1_655 S
C1236 C1237 1.377 . S
C1237 H1221 0.930 . S
C1237 C1236 1.377 . S
C1237 C1238 1.379 . S
C1238 H1222 0.931 . S
C1238 C1232 1.383 . S
C1238 C1237 1.379 . S
H1239 C1233 0.959 . S
H1240 C1233 0.961 . S
H1241 C1233 0.960 1_455 S
H1242 C1234 0.897 1_455 S
H1243 C1235 0.929 . S
H1244 C1252 0.929 . S
H1245 C1254 0.930 . S
H1246 C1256 0.930 . S
H1247 C1259 0.929 . S
H1248 C1262 0.930 . S
H1249 C1264 0.960 . S
H1250 C1264 0.960 . S
H1251 C1264 0.999 . S
C1252 H1244 0.929 . S
C1252 C1253 1.377 . S
C1252 C1254 1.384 . S
C1253 C1252 1.377 . S
C1253 C1259 1.390 . S
C1254 H1245 0.930 . S
C1254 C1252 1.384 . S
C1254 C1255 1.372 . S
C1255 C1254 1.372 . S
C1255 C1256 1.400 . S
C1255 C1260 1.490 . S
C1256 H1246 0.930 . S
C1256 C1255 1.400 . S
C1256 C1259 1.386 . S
H1257 C1273 0.930 . S
H1258 C1274 0.975 . S
C1259 H1247 0.929 . S
C1259 C1253 1.390 . S
C1259 C1256 1.386 . S
C1260 C1255 1.490 . S
C1260 C1262 1.395 . S
C1260 C1263 1.403 . S
H1261 C1267 0.930 . S
C1262 H1248 0.930 . S
C1262 C1260 1.395 . S
C1262 C1265 1.403 . S
C1263 C1260 1.403 . S
C1263 C1264 1.524 . S
C1263 C1267 1.400 . S
C1264 H1249 0.960 . S
C1264 H1250 0.960 . S
C1264 H1251 0.999 . S
C1264 C1263 1.524 . S
C1265 C1262 1.403 . S
C1265 C1266 1.392 . S
C1265 C1269 1.495 . S
C1266 C1265 1.392 . S
C1266 C1267 1.385 . S
C1266 C1268 1.478 . S
C1267 H1261 0.930 . S
C1267 C1263 1.400 . S
C1267 C1266 1.385 . S
C1268 C1266 1.478 . S
C1268 C1270 1.381 . S
C1268 C1274 1.327 1_565 S
C1269 C1265 1.495 . S
C1269 H1275 0.959 . S
C1269 H1276 0.961 . S
C1269 H1277 0.960 . S
C1270 C1268 1.381 . S
C1270 C1271 1.394 . S
C1270 H1278 0.930 . S
C1271 C1270 1.394 . S
C1271 C1272 1.383 . S
C1271 H1279 0.929 . S
C1272 C1271 1.383 . S
C1272 C1273 1.377 1_565 S
C1273 H1257 0.930 . S
C1273 C1272 1.377 1_545 S
C1273 C1274 1.394 . S
C1274 H1258 0.975 . S
C1274 C1268 1.327 1_545 S
C1274 C1273 1.394 . S
H1275 C1269 0.959 . S
H1276 C1269 0.961 . S
H1277 C1269 0.960 . S
H1278 C1270 0.930 . S
H1279 C1271 0.929 . S
H1280 C1288 0.929 . S
H1281 C1290 0.930 . S
H1282 C1292 0.930 . S
H1283 C1295 0.929 . S
H1284 C1298 0.930 . S
H1285 C1300 0.960 . S
H1286 C1300 0.960 . S
H1287 C1300 0.960 . S
C1288 H1280 0.929 . S
C1288 C1289 1.377 . S
C1288 C1290 1.384 . S
C1289 C1288 1.377 . S
C1289 C1295 1.390 . S
C1290 H1281 0.930 . S
C1290 C1288 1.384 . S
C1290 C1291 1.372 . S
C1291 C1290 1.372 . S
C1291 C1292 1.400 . S
C1291 C1296 1.490 . S
C1292 H1282 0.930 . S
C1292 C1291 1.400 . S
C1292 C1295 1.386 . S
H1293 C1309 0.930 . S
H1294 C1310 0.931 . S
C1295 H1283 0.929 . S
C1295 C1289 1.390 . S
C1295 C1292 1.386 . S
C1296 C1291 1.490 . S
C1296 C1298 1.395 . S
C1296 C1299 1.403 . S
H1297 C1303 0.930 . S
C1298 H1284 0.930 . S
C1298 C1296 1.395 . S
C1298 C1301 1.403 . S
C1299 C1296 1.403 . S
C1299 C1300 1.524 . S
C1299 C1303 1.400 . S
C1300 H1285 0.960 . S
C1300 H1286 0.960 . S
C1300 H1287 0.960 . S
C1300 C1299 1.524 . S
C1301 C1298 1.403 . S
C1301 C1302 1.392 . S
C1301 C1305 1.495 . S
C1302 C1301 1.392 . S
C1302 C1303 1.385 . S
C1302 C1304 1.478 . S
C1303 H1297 0.930 . S
C1303 C1299 1.400 . S
C1303 C1302 1.385 . S
C1304 C1302 1.478 . S
C1304 C1306 1.381 . S
C1304 C1310 1.383 . S
C1305 C1301 1.495 . S
C1305 H1311 0.959 . S
C1305 H1312 0.961 . S
C1305 H1313 0.960 . S
C1306 C1304 1.381 . S
C1306 C1307 1.394 . S
C1306 H1314 0.930 . S
C1307 C1306 1.394 . S
C1307 C1308 1.383 . S
C1307 H1315 0.929 . S
C1308 C1307 1.383 . S
C1308 C1309 1.377 . S
C1309 H1293 0.930 . S
C1309 C1308 1.377 . S
C1309 C1310 1.379 . S
C1310 H1294 0.931 . S
C1310 C1304 1.383 . S
C1310 C1309 1.379 . S
H1311 C1305 0.959 . S
H1312 C1305 0.961 . S
H1313 C1305 0.960 . S
H1314 C1306 0.930 . S
H1315 C1307 0.929 . S
H1316 C1324 0.929 . S
H1317 C1326 0.930 . S
H1318 C1328 0.930 . S
H1319 C1331 0.929 . S
H1320 C1334 0.930 . S
H1321 C1336 0.960 . S
H1322 C1336 0.960 . S
H1323 C1336 0.960 . S
C1324 H1316 0.929 . S
C1324 C1325 1.377 . S
C1324 C1326 1.384 . S
C1325 C1324 1.377 . S
C1325 C1331 1.390 . S
C1326 H1317 0.930 . S
C1326 C1324 1.384 . S
C1326 C1327 1.372 . S
C1327 C1326 1.372 . S
C1327 C1328 1.400 . S
C1327 C1332 1.490 . S
C1328 H1318 0.930 . S
C1328 C1327 1.400 . S
C1328 C1331 1.386 . S
H1329 C1345 0.930 . S
H1330 C1346 0.931 . S
C1331 H1319 0.929 . S
C1331 C1325 1.390 . S
C1331 C1328 1.386 . S
C1332 C1327 1.490 . S
C1332 C1334 1.395 . S
C1332 C1335 1.403 . S
H1333 C1339 0.930 . S
C1334 H1320 0.930 . S
C1334 C1332 1.395 . S
C1334 C1337 1.403 . S
C1335 C1332 1.403 . S
C1335 C1336 1.524 . S
C1335 C1339 1.400 . S
C1336 H1321 0.960 . S
C1336 H1322 0.960 . S
C1336 H1323 0.960 . S
C1336 C1335 1.524 . S
C1337 C1334 1.403 . S
C1337 C1338 1.392 . S
C1337 C1341 1.495 . S
C1338 C1337 1.392 . S
C1338 C1339 1.385 . S
C1338 C1340 1.478 . S
C1339 H1333 0.930 . S
C1339 C1335 1.400 . S
C1339 C1338 1.385 . S
C1340 C1338 1.478 . S
C1340 C1342 1.381 . S
C1340 C1346 1.383 . S
C1341 C1337 1.495 . S
C1341 H1347 0.959 . S
C1341 H1348 0.961 . S
C1341 H1349 0.960 . S
C1342 C1340 1.381 . S
C1342 C1343 1.394 . S
C1342 H1350 0.930 . S
C1343 C1342 1.394 . S
C1343 C1344 1.383 . S
C1343 H1351 0.929 . S
C1344 C1343 1.383 . S
C1344 C1345 1.377 . S
C1345 H1329 0.930 . S
C1345 C1344 1.377 . S
C1345 C1346 1.379 . S
C1346 H1330 0.931 . S
C1346 C1340 1.383 . S
C1346 C1345 1.379 . S
H1347 C1341 0.959 . S
H1348 C1341 0.961 . S
H1349 C1341 0.960 . S
H1350 C1342 0.930 . S
H1351 C1343 0.929 . S
C497 C125 1.816 . S
C516 C226 1.892 . S
C552 C310 1.894 . S
C533 C144 1.845 . S
C588 C376 1.909 . S
C569 C87 1.962 . S
C624 C460 1.905 . S
C605 C106 1.940 . S
C660 C215 1.892 1_565 S
C641 C49 1.914 . S
C677 C68 1.951 . S
C696 C299 1.896 . S
C713 C11 2.073 . S
C732 C387 1.911 . S
C749 C30 2.040 . S
C768 C471 1.929 . S
C804 C222 0.515 . S
C785 C97 0.578 . S
C840 C306 0.511 . S
C821 C116 0.545 . S
C876 C378 0.455 . S
C857 C135 0.526 . S
C893 C78 0.557 . S
C912 C462 0.598 . S
C929 C21 0.574 . S
C948 C210 0.689 . S
C984 C294 0.594 . S
C965 C40 0.552 . S
C1020 C390 0.587 . S
C1001 C59 0.503 . S
C1037 C2 0.564 . S
C1056 C474 0.537 . S
C1073 C101 1.983 . S
C1092 C219 1.992 . S
C1109 C120 1.946 . S
C1128 C303 1.958 . S
C1164 C383 1.958 . S
C1145 C139 1.848 . S
C1200 C467 2.012 . S
C1181 C82 1.887 . S
C1217 C25 1.997 . S
C1236 C208 2.023 . S
C1272 C292 1.963 1_565 S
C1253 C44 1.949 . S
C1308 C394 1.953 . S
C1289 C63 1.858 . S
C1325 C6 1.890 . S
C1344 C478 1.997 . S
