# Generated by pormake.
# Topology anh, (6,3)-cn, num edge types: 1
# Building blocks:
#     Node 0, Type 0, BuildingBlock: INOVEN_clean_sbu_0, # of connection points: 6
#     Node 1, Type 0, BuildingBlock: INOVEN_clean_sbu_0, # of connection points: 6
#     Node 2, Type 0, BuildingBlock: INOVEN_clean_sbu_0, # of connection points: 6
#     Node 3, Type 1, BuildingBlock: KAKCAD_clean_linker_0, # of connection points: 3
#     Node 4, Type 1, BuildingBlock: KAKCAD_clean_linker_0, # of connection points: 3
#     Node 5, Type 1, BuildingBlock: KAKCAD_clean_linker_0, # of connection points: 3
#     Node 6, Type 1, BuildingBlock: KAKCAD_clean_linker_0, # of connection points: 3
#     Node 7, Type 1, BuildingBlock: KAKCAD_clean_linker_0, # of connection points: 3
#     Node 8, Type 1, BuildingBlock: KAKCAD_clean_linker_0, # of connection points: 3
#     Edge 9, Type (0, 1), BuildingBlock: XUDNAN_clean_linker_2, # of connection points: 2
#     Edge 10, Type (0, 1), BuildingBlock: XUDNAN_clean_linker_2, # of connection points: 2
#     Edge 11, Type (0, 1), BuildingBlock: XUDNAN_clean_linker_2, # of connection points: 2
#     Edge 12, Type (0, 1), BuildingBlock: XUDNAN_clean_linker_2, # of connection points: 2
#     Edge 13, Type (0, 1), BuildingBlock: XUDNAN_clean_linker_2, # of connection points: 2
#     Edge 14, Type (0, 1), BuildingBlock: XUDNAN_clean_linker_2, # of connection points: 2
#     Edge 15, Type (0, 1), BuildingBlock: XUDNAN_clean_linker_2, # of connection points: 2
#     Edge 16, Type (0, 1), BuildingBlock: XUDNAN_clean_linker_2, # of connection points: 2
#     Edge 17, Type (0, 1), BuildingBlock: XUDNAN_clean_linker_2, # of connection points: 2
#     Edge 18, Type (0, 1), BuildingBlock: XUDNAN_clean_linker_2, # of connection points: 2
#     Edge 19, Type (0, 1), BuildingBlock: XUDNAN_clean_linker_2, # of connection points: 2
#     Edge 20, Type (0, 1), BuildingBlock: XUDNAN_clean_linker_2, # of connection points: 2
#     Edge 21, Type (0, 1), BuildingBlock: XUDNAN_clean_linker_2, # of connection points: 2
#     Edge 22, Type (0, 1), BuildingBlock: XUDNAN_clean_linker_2, # of connection points: 2
#     Edge 23, Type (0, 1), BuildingBlock: XUDNAN_clean_linker_2, # of connection points: 2
#     Edge 24, Type (0, 1), BuildingBlock: XUDNAN_clean_linker_2, # of connection points: 2
#     Edge 25, Type (0, 1), BuildingBlock: XUDNAN_clean_linker_2, # of connection points: 2
#     Edge 26, Type (0, 1), BuildingBlock: XUDNAN_clean_linker_2, # of connection points: 2
# Relax obj value: 0.178
# Max RMSD: 0.212
# Mean RMSD: 0.157
data_MOF--net-anh--node1-INOVEN_clean_sbu_0--node2-KAKCAD_clean_linker_0--edge1-XUDNAN_clean_linker_2
_symmetry_space_group_name_H-M    P1
_symmetry_Int_Tables_number       1
_symmetry_cell_setting            triclinic
loop_
_symmetry_equiv_pos_as_xyz
'x, y, z'
_cell_length_a     36.625091
_cell_length_b     43.266125
_cell_length_c     66.493218
_cell_angle_alpha  93.056733
_cell_angle_beta   89.475301
_cell_angle_gamma 127.97945
loop_
_atom_site_label
_atom_site_type_symbol
_atom_site_fract_x
_atom_site_fract_y
_atom_site_fract_z
_atom_type_partial_charge
Gd0 Gd 0.11237 0.52211 0.15251 0.0
Gd1 Gd 1.04503 0.53958 0.1585 0.0
C2 C 0.15049 0.61393 0.15463 0.0
C3 C 0.17478 0.5163 0.1399 0.0
C4 C 0.22451 0.53611 0.14276 0.0
C5 C 0.23825 0.51292 0.14608 0.0
C6 C 0.2583 0.57698 0.14187 0.0
C7 C 0.31921 0.57056 0.14649 0.0
C8 C 0.30545 0.59408 0.14362 0.0
C9 C 0.28499 0.52988 0.14793 0.0
C10 C 0.09602 0.52997 0.19129 0.0
C11 C 1.00706 0.44855 0.15578 0.0
C12 C 0.98008 0.54011 0.17315 0.0
C13 C 0.93191 0.50844 0.17845 0.0
C14 C 0.89986 0.47931 0.16392 0.0
C15 C 0.91821 0.50621 0.19845 0.0
C16 C 0.84049 0.44702 0.18914 0.0
C17 C 0.87299 0.47573 0.20378 0.0
C18 C 0.85468 0.44918 0.16917 0.0
C19 C 1.06254 0.53276 0.11972 0.0
O20 O 0.15914 0.58871 0.15028 0.0
O21 O 0.10905 0.60205 0.16003 0.0
O22 O 0.14922 0.49827 0.15536 0.0
O23 O 0.16252 0.53438 0.13022 0.0
O24 O 0.1033 0.50544 0.18487 0.0
O25 O 0.10104 0.55061 0.17734 0.0
O26 O 1.0007 0.47397 0.163 0.0
O27 O 1.04642 0.46077 0.14749 0.0
O28 O 0.98949 0.54337 0.15396 0.0
O29 O 1.01214 0.54431 0.18441 0.0
O30 O 1.05613 0.55785 0.12639 0.0
O31 O 1.05666 0.51133 0.13348 0.0
H32 H 0.2127 0.48136 0.14677 0.0
H33 H 0.24839 0.59552 0.13949 0.0
H34 H 0.33107 0.62547 0.14241 0.0
H35 H 0.29428 0.51072 0.1496 0.0
H36 H 0.90942 0.47987 0.1484 0.0
H37 H 0.94254 0.52807 0.20998 0.0
H38 H 0.86345 0.47483 0.21932 0.0
H39 H 0.83056 0.42831 0.15731 0.0
Gd40 Gd 0.63825 0.01795 0.48042 0.0
Gd41 Gd 0.57797 0.04185 0.47485 0.0
C42 C 0.52618 0.95126 0.47661 0.0
C43 C 0.67614 0.98664 0.49087 0.0
C44 C 0.66157 0.94674 0.49286 0.0
C45 C 0.68615 0.93574 0.48282 0.0
C46 C 0.62333 0.91932 0.50429 0.0
C47 C 0.63487 0.87058 0.49559 0.0
C48 C 0.61029 0.8816 0.50574 0.0
C49 C 0.67283 0.89798 0.48409 0.0
C50 C 0.62805 0.02924 0.44213 0.0
C51 C 0.69125 0.10912 0.4792 0.0
C52 C 0.54217 0.07476 0.46415 0.0
C53 C 0.55439 0.11414 0.46826 0.0
C54 C 0.52718 0.11855 0.4812 0.0
C55 C 0.59398 0.14772 0.46018 0.0
C56 C 0.58031 0.18957 0.47892 0.0
C57 C 0.6067 0.18497 0.4654 0.0
C58 C 0.5401 0.15579 0.48657 0.0
C59 C 0.59291 0.03526 0.51368 0.0
O60 O 0.56568 0.96203 0.48457 0.0
O61 O 0.52374 0.97691 0.46817 0.0
O62 O 0.6763 0.996 0.47249 0.0
O63 O 0.66037 0.99938 0.50386 0.0
O64 O 0.66685 0.04038 0.45009 0.0
O65 O 0.59589 0.0117 0.45452 0.0
O66 O 0.65113 0.09963 0.47276 0.0
O67 O 0.69389 0.08241 0.48598 0.0
O68 O 0.52815 0.05279 0.47957 0.0
O69 O 0.56993 0.07251 0.45278 0.0
O70 O 0.5538 0.0252 0.50674 0.0
O71 O 0.62238 0.05012 0.50016 0.0
H72 H 0.71573 0.95643 0.47394 0.0
H73 H 0.60346 0.92692 0.51205 0.0
H74 H 0.5807 0.86092 0.5146 0.0
H75 H 0.69274 0.89042 0.47633 0.0
H76 H 0.49643 0.09319 0.48761 0.0
H77 H 0.61564 0.1454 0.45005 0.0
H78 H 0.6374 0.21019 0.4589 0.0
H79 H 0.51925 0.15808 0.49724 0.0
Gd80 Gd 0.66577 0.59158 0.84703 0.0
Gd81 Gd 0.59436 0.50303 0.84981 0.0
C82 C 0.55382 0.54972 0.84895 0.0
C83 C 0.70901 0.66351 0.83772 0.0
C84 C 0.69505 0.68578 0.82927 0.0
C85 C 0.72269 0.72662 0.83305 0.0
C86 C 0.65388 0.66652 0.81767 0.0
C87 C 0.66879 0.72896 0.81323 0.0
C88 C 0.64087 0.68786 0.80974 0.0
C89 C 0.70972 0.74805 0.82512 0.0
C90 C 0.6534 0.56535 0.88412 0.0
C91 C 0.70734 0.5445 0.84782 0.0
C92 C 0.55075 0.43104 0.85917 0.0
C93 C 0.55796 0.40131 0.85544 0.0
C94 C 0.58927 0.40648 0.84103 0.0
C95 C 0.53366 0.36756 0.86644 0.0
C96 C 0.57149 0.34399 0.84851 0.0
C97 C 0.54028 0.33913 0.863 0.0
C98 C 0.59597 0.3781 0.83759 0.0
C99 C 0.60978 0.52824 0.81217 0.0
O100 O 0.5948 0.57755 0.84152 0.0
O101 O 0.54681 0.51895 0.85671 0.0
O102 O 0.69511 0.65189 0.8559 0.0
O103 O 0.70461 0.63645 0.82559 0.0
O104 O 0.69335 0.59445 0.87772 0.0
O105 O 0.62192 0.55341 0.87107 0.0
O106 O 0.6638 0.51333 0.8508 0.0
O107 O 0.71761 0.57902 0.84444 0.0
O108 O 0.53988 0.44087 0.84333 0.0
O109 O 0.58144 0.46133 0.87119 0.0
O110 O 0.56959 0.49859 0.81802 0.0
O111 O 0.63994 0.54103 0.82596 0.0
H112 H 0.7545 0.74199 0.84204 0.0
H113 H 0.63184 0.63496 0.81465 0.0
H114 H 0.60877 0.6721 0.80094 0.0
H115 H 0.73225 0.77966 0.82793 0.0
H116 H 0.60856 0.4325 0.83245 0.0
H117 H 0.50939 0.36312 0.87764 0.0
H118 H 0.52041 0.31306 0.87151 0.0
H119 H 0.62075 0.38312 0.82654 0.0
C120 C 0.5945 0.07937 0.28862 0.0
C121 C 0.58867 0.04977 0.29956 0.0
C122 C 0.59055 0.0756 0.2676 0.0
C123 C 0.58088 0.0422 0.25698 0.0
C124 C 0.57353 0.01198 0.26796 0.0
C125 C 0.57729 0.0157 0.28903 0.0
C126 C 0.58011 0.03964 0.23454 0.0
C127 C 0.61315 0.07283 0.22402 0.0
C128 C 0.61314 0.07133 0.20284 0.0
C129 C 0.57957 0.0352 0.19207 0.0
C130 C 0.54637 1.00126 0.2024 0.0
C131 C 0.54693 1.00412 0.2236 0.0
C132 C 0.5098 0.96279 0.19149 0.0
C133 C 0.48511 0.96072 0.17473 0.0
C134 C 0.49649 0.92741 0.19895 0.0
C135 C 0.45781 0.89105 0.19074 0.0
C136 C 0.43137 0.88896 0.17474 0.0
C137 C 0.64958 0.10767 0.19249 0.0
C138 C 0.66398 0.14469 0.20022 0.0
C139 C 0.67313 0.10629 0.17609 0.0
C140 C 0.7117 0.14107 0.16844 0.0
C141 C 0.72791 0.17818 0.17705 0.0
C142 C 0.70264 0.17937 0.1927 0.0
C143 C 0.4464 0.92427 0.16646 0.0
H144 H 0.60259 0.1057 0.29633 0.0
H145 H 0.59541 0.09904 0.25965 0.0
H146 H 0.56646 0.98603 0.26027 0.0
H147 H 0.57311 0.99257 0.29702 0.0
H148 H 0.63998 0.09985 0.23247 0.0
H149 H 0.52058 0.97874 0.23167 0.0
H150 H 0.57929 0.03348 0.17576 0.0
H151 H 0.49431 0.98729 0.16858 0.0
H152 H 0.5152 0.92783 0.21162 0.0
H153 H 0.44741 0.8647 0.19762 0.0
H154 H 0.64613 0.14697 0.21258 0.0
H155 H 0.66311 0.07841 0.16973 0.0
H156 H 0.42749 0.92385 0.15389 0.0
H157 H 0.71382 0.2071 0.19986 0.0
H158 H 0.72946 0.1388 0.15605 0.0
C159 C 0.59243 0.51331 0.65637 0.0
C160 C 0.62168 0.55111 0.666 0.0
C161 C 0.58711 0.50845 0.63538 0.0
C162 C 0.61079 0.54126 0.62358 0.0
C163 C 0.63957 0.57906 0.63323 0.0
C164 C 0.645 0.58393 0.6542 0.0
C165 C 0.60628 0.53614 0.60125 0.0
C166 C 0.60129 0.56009 0.59013 0.0
C167 C 0.59852 0.55633 0.56897 0.0
C168 C 0.60073 0.52811 0.55894 0.0
C169 C 0.60576 0.5039 0.56981 0.0
C170 C 0.60824 0.508 0.59097 0.0
C171 C 0.60968 0.47507 0.55907 0.0
C172 C 0.58122 0.45224 0.54205 0.0
C173 C 0.64228 0.47041 0.5657 0.0
C174 C 0.64626 0.44352 0.55561 0.0
C175 C 0.61786 0.4207 0.53858 0.0
C176 C 0.59489 0.58281 0.5574 0.0
C177 C 0.56562 0.59197 0.56365 0.0
C178 C 0.62176 0.60006 0.54036 0.0
C179 C 0.61998 0.62638 0.53 0.0
C180 C 0.59132 0.63607 0.53646 0.0
C181 C 0.56388 0.61833 0.55331 0.0
C182 C 0.58526 0.42535 0.53193 0.0
H183 H 0.57435 0.48742 0.66502 0.0
H184 H 0.56438 0.47896 0.62839 0.0
H185 H 0.65864 0.60492 0.62454 0.0
H186 H 0.66743 0.61343 0.66119 0.0
H187 H 0.6001 0.58205 0.59797 0.0
H188 H 0.61226 0.48953 0.59948 0.0
H189 H 0.59905 0.52532 0.54262 0.0
H190 H 0.55549 0.45489 0.53666 0.0
H191 H 0.66514 0.48787 0.5786 0.0
H192 H 0.67131 0.44032 0.56131 0.0
H193 H 0.54398 0.57871 0.57655 0.0
H194 H 0.6452 0.59409 0.53534 0.0
H195 H 0.56312 0.40848 0.51876 0.0
H196 H 0.54099 0.6248 0.55848 0.0
H197 H 0.64212 0.64002 0.51728 0.0
C198 C 0.14352 0.55924 0.96647 0.0
C199 C 0.10079 0.52705 0.97338 0.0
C200 C 0.15063 0.56418 0.9458 0.0
C201 C 0.11477 0.53751 0.93173 0.0
C202 C 0.07182 0.50565 0.93865 0.0
C203 C 1.06506 0.50022 0.95929 0.0
C204 C 0.12209 0.54315 0.90986 0.0
C205 C 0.15845 0.54585 0.90076 0.0
C206 C 0.16731 0.55221 0.88008 0.0
C207 C 0.13646 0.55459 0.86833 0.0
C208 C 0.09931 0.5522 0.87761 0.0
C209 C 0.09294 0.5462 0.8983 0.0
C210 C 1.06563 0.55567 0.86704 0.0
C211 C 1.03198 0.52617 0.853 0.0
C212 C 1.05964 0.58333 0.87476 0.0
C213 C 1.02018 0.58028 0.86962 0.0
C214 C 0.98474 0.5492 0.85663 0.0
C215 C 0.20912 0.55614 0.872 0.0
C216 C 0.24903 0.57323 0.8846 0.0
C217 C 0.20894 0.54025 0.85286 0.0
C218 C 0.24629 0.54014 0.84703 0.0
C219 C 0.28463 0.55525 0.86026 0.0
C220 C 0.2854 0.57215 0.87903 0.0
C221 C 0.99235 0.52305 0.84785 0.0
H222 H 0.17164 0.58018 0.97706 0.0
H223 H 0.18395 0.58908 0.94079 0.0
H224 H 1.04372 0.4847 0.92806 0.0
H225 H 1.03176 0.47526 0.96428 0.0
H226 H 0.17944 0.54206 0.91004 0.0
H227 H 1.0649 0.54405 0.9056 0.0
H228 H 0.142 0.55938 0.85242 0.0
H229 H 1.0347 0.50392 0.84698 0.0
H230 H 0.08433 0.60613 0.88587 0.0
H231 H 1.01623 0.60101 0.87689 0.0
H232 H 0.25221 0.58732 0.89914 0.0
H233 H 0.17935 0.52678 0.84261 0.0
H234 H 0.96679 0.49911 0.83743 0.0
H235 H 0.31466 0.58512 0.88942 0.0
H236 H 0.24456 0.52722 0.83232 0.0
C237 C 1.03219 0.51806 0.34762 0.0
C238 C 0.07375 0.54342 0.33767 0.0
C239 C 1.03257 0.51653 0.36857 0.0
C240 C 0.07467 0.53992 0.37988 0.0
C241 C 0.1163 0.56468 0.36963 0.0
C242 C 0.11575 0.56667 0.34877 0.0
C243 C 0.07535 0.53878 0.40224 0.0
C244 C 1.0444 0.50339 0.41163 0.0
C245 C 1.04496 0.50181 0.43274 0.0
C246 C 0.07919 0.53643 0.44442 0.0
C247 C 0.11059 0.5721 0.43517 0.0
C248 C 0.10767 0.57304 0.41424 0.0
C249 C 0.14859 0.60863 0.44671 0.0
C250 C 0.15437 0.64363 0.44503 0.0
C251 C 0.18312 0.6101 0.4568 0.0
C252 C 0.22383 0.64619 0.46414 0.0
C253 C 0.23068 0.68166 0.4618 0.0
C254 C 1.0101 0.46357 0.44207 0.0
C255 C 0.96496 0.43683 0.43353 0.0
C256 C 1.02183 0.45243 0.45881 0.0
C257 C 0.99002 0.41508 0.46622 0.0
C258 C 0.94574 0.38755 0.45694 0.0
C259 C 0.93353 0.39936 0.44068 0.0
C260 C 0.19467 0.67962 0.45264 0.0
H261 H 0.99943 0.50003 0.33922 0.0
H262 H 0.9998 0.49753 0.37591 0.0
H263 H 0.14947 0.58239 0.37768 0.0
H264 H 0.14819 0.5862 0.34124 0.0
H265 H 1.02057 0.47664 0.40236 0.0
H266 H 0.13152 0.60068 0.40727 0.0
H267 H 0.08101 0.53599 0.46064 0.0
H268 H 0.12821 0.64325 0.43726 0.0
H269 H 0.17986 0.58362 0.45797 0.0
H270 H 0.25074 0.64628 0.47081 0.0
H271 H 0.95394 0.44453 0.42097 0.0
H272 H 1.0561 0.47201 0.46585 0.0
H273 H 0.19784 0.70593 0.45096 0.0
H274 H 0.90018 0.37929 0.43292 0.0
H275 H 1.00056 0.4077 0.4791 0.0
C276 C 0.57979 1.00665 0.66982 0.0
C277 C 0.61427 0.04228 0.66133 0.0
C278 C 0.57658 1.00446 0.69076 0.0
C279 C 0.6074 0.03797 0.70361 0.0
C280 C 0.64094 0.07386 0.69509 0.0
C281 C 0.6445 0.07594 0.67418 0.0
C282 C 0.60606 0.03518 0.72581 0.0
C283 C 0.60344 1.00482 0.73415 0.0
C284 C 0.60434 1.00266 0.75511 0.0
C285 C 0.60742 0.03122 0.76789 0.0
C286 C 0.60905 0.06154 0.75979 0.0
C287 C 0.60868 0.0633 0.7387 0.0
C288 C 0.60987 0.09088 0.77309 0.0
C289 C 0.58177 0.07919 0.79 0.0
C290 C 0.637 0.13052 0.76837 0.0
C291 C 0.6351 0.15749 0.77989 0.0
C292 C 0.60618 0.14561 0.79651 0.0
C293 C 0.6029 0.97061 0.76319 0.0
C294 C 0.56829 0.93156 0.75618 0.0
C295 C 0.63841 0.97895 0.77614 0.0
C296 C 0.64076 0.94903 0.78099 0.0
C297 C 0.6074 0.91016 0.77308 0.0
C298 C 0.57029 0.90168 0.76119 0.0
C299 C 0.57996 0.10622 0.80157 0.0
H300 H 0.55617 0.98021 0.66029 0.0
H301 H 0.55016 0.97647 0.69691 0.0
H302 H 0.66533 0.1001 0.70462 0.0
H303 H 0.67112 0.10389 0.66804 0.0
H304 H 0.60223 0.9834 0.72428 0.0
H305 H 0.60924 0.08603 0.7322 0.0
H306 H 0.60834 0.02967 0.78407 0.0
H307 H 0.55996 0.04884 0.79394 0.0
H308 H 0.65971 0.14076 0.75569 0.0
H309 H 0.65643 0.18774 0.7758 0.0
H310 H 0.54026 0.9243 0.74635 0.0
H311 H 0.66568 0.00891 0.78163 0.0
H312 H 0.55693 0.09594 0.81414 0.0
H313 H 0.54322 0.87199 0.7553 0.0
H314 H 0.66994 0.95674 0.7901 0.0
C315 C 0.52319 0.38153 0.00449 0.0
C316 C 0.57088 0.40833 0.00074 0.0
C317 C 0.50799 0.37143 0.02414 0.0
C318 C 0.54021 0.38713 0.04026 0.0
C319 C 0.58765 0.4115 0.03649 0.0
C320 C 0.60289 0.42218 0.01696 0.0
C321 C 0.52539 0.38451 0.06112 0.0
C322 C 0.5245 0.35975 0.07419 0.0
C323 C 0.51724 0.36207 0.09487 0.0
C324 C 0.51013 0.38915 0.10211 0.0
C325 C 0.51162 0.41448 0.08913 0.0
C326 C 0.51881 0.41154 0.06859 0.0
C327 C 0.50937 0.44607 0.09706 0.0
C328 C 0.48696 0.45675 0.08567 0.0
C329 C 0.53121 0.46694 0.1156 0.0
C330 C 0.53037 0.49756 0.12258 0.0
C331 C 0.50845 0.50836 0.111 0.0
C332 C 0.52426 0.34112 0.10944 0.0
C333 C 0.56179 0.34024 0.10729 0.0
C334 C 0.49822 0.32711 0.12699 0.0
C335 C 0.51222 0.31614 0.14282 0.0
C336 C 0.55242 0.31886 0.14136 0.0
C337 C 0.57566 0.32923 0.12302 0.0
C338 C 0.48678 0.48769 0.0925 0.0
H339 H 0.4975 0.36959 0.99238 0.0
H340 H 0.47119 0.35283 0.02688 0.0
H341 H 0.61295 0.42442 0.04885 0.0
H342 H 0.6398 0.44336 0.01489 0.0
H343 H 0.53114 0.33982 0.06834 0.0
H344 H 0.52216 0.43194 0.05846 0.0
H345 H 0.50562 0.39183 0.11806 0.0
H346 H 0.46908 0.44095 0.07152 0.0
H347 H 0.54961 0.46009 0.1246 0.0
H348 H 0.5471 0.51299 0.13696 0.0
H349 H 0.58305 0.35124 0.09414 0.0
H350 H 0.46852 0.32668 0.12893 0.0
H351 H 0.46858 0.49479 0.08352 0.0
H352 H 0.60724 0.33241 0.12135 0.0
H353 H 0.49324 0.30781 0.15664 0.0
H354 H 0.36454 0.55371 0.17013 0.0
H355 H 0.38316 0.62106 0.11973 0.0
H356 H 0.45378 0.62901 0.11097 0.0
H357 H 0.49592 0.60071 0.17889 0.0
H358 H 0.47878 0.55306 0.1842 0.0
H359 H 0.44281 0.56679 0.19168 0.0
H360 H 0.37305 0.50426 0.17223 0.0
H361 H 0.40854 0.49067 0.16448 0.0
H362 H 0.37777 0.49608 0.14577 0.0
H363 H 0.50268 0.61061 0.1008 0.0
H364 H 0.52737 0.57026 0.09122 0.0
H365 H 0.47725 0.5128 0.14734 0.0
C366 C 0.38493 0.57174 0.15786 0.0
C367 C 0.36843 0.58663 0.14557 0.0
C368 C 0.3955 0.60985 0.12953 0.0
C369 C 0.43573 0.61444 0.12443 0.0
C370 C 0.44869 0.59608 0.13567 0.0
C371 C 0.42462 0.57588 0.15241 0.0
C372 C 0.43909 0.55198 0.1594 0.0
C373 C 0.46575 0.56918 0.17975 0.0
C374 C 0.39713 0.5082 0.16049 0.0
C375 C 0.47096 0.55827 0.14269 0.0
C376 C 0.47758 0.58507 0.1296 0.0
C377 C 0.49923 0.59074 0.11129 0.0
C378 C 0.51283 0.56751 0.10588 0.0
C379 C 0.50449 0.53884 0.11869 0.0
C380 C 0.48523 0.53545 0.13765 0.0
H381 H 0.70122 0.17454 0.46784 0.0
H382 H 0.77936 0.13699 0.48914 0.0
H383 H 0.85179 0.20417 0.48701 0.0
H384 H 0.7826 0.24001 0.43239 0.0
H385 H 0.77414 0.27657 0.4373 0.0
H386 H 0.72774 0.22576 0.4412 0.0
H387 H 0.72188 0.24356 0.47829 0.0
H388 H 0.76703 0.29461 0.47412 0.0
H389 H 0.77311 0.27199 0.49447 0.0
H390 H 0.91631 0.27419 0.48071 0.0
H391 H 0.96853 0.34288 0.4716 0.0
H392 H 0.84921 0.33717 0.45632 0.0
C393 C 0.73351 0.18048 0.4722 0.0
C394 C 0.73437 0.15028 0.47868 0.0
C395 C 0.77752 0.15945 0.48418 0.0
C396 C 0.81901 0.19761 0.48301 0.0
C397 C 0.81701 0.22656 0.47644 0.0
C398 C 0.77543 0.21861 0.47124 0.0
C399 C 0.78322 0.25517 0.46447 0.0
C400 C 0.7659 0.24899 0.44254 0.0
C401 C 0.75997 0.26709 0.47869 0.0
C402 C 0.83571 0.28468 0.46637 0.0
C403 C 0.8544 0.26747 0.47331 0.0
C404 C 0.90207 0.2882 0.47557 0.0
C405 C 0.93155 0.32753 0.4705 0.0
C406 C 0.9135 0.34619 0.46339 0.0
C407 C 0.86464 0.32417 0.46153 0.0
H408 H 0.67521 0.79196 0.83024 0.0
H409 H 0.63373 0.71802 0.77509 0.0
H410 H 0.61255 0.75551 0.75936 0.0
H411 H 0.58533 0.80307 0.82798 0.0
H412 H 0.62234 0.85366 0.83756 0.0
H413 H 0.63375 0.82071 0.84475 0.0
H414 H 0.71728 0.86791 0.83188 0.0
H415 H 0.70612 0.901 0.82465 0.0
H416 H 0.72598 0.88254 0.80631 0.0
H417 H 0.59775 0.8016 0.7492 0.0
H418 H 0.58913 0.85299 0.74524 0.0
H419 H 0.6389 0.89728 0.80704 0.0
C420 C 0.66188 0.78378 0.81482 0.0
C421 C 0.65592 0.7518 0.80395 0.0
C422 C 0.63792 0.74188 0.78386 0.0
C423 C 0.62605 0.76318 0.77474 0.0
C424 C 0.63231 0.79441 0.78586 0.0
C425 C 0.64972 0.80472 0.80546 0.0
C426 C 0.65307 0.8397 0.81397 0.0
C427 C 0.62175 0.82861 0.83214 0.0
C428 C 0.70362 0.87487 0.81953 0.0
C429 C 0.63502 0.84749 0.79604 0.0
C430 C 0.62328 0.82095 0.78002 0.0
C431 C 0.6064 0.82232 0.7617 0.0
C432 C 0.60126 0.85153 0.75967 0.0
C433 C 0.61266 0.87905 0.7759 0.0
C434 C 0.62994 0.87688 0.79431 0.0
H435 H 0.78019 0.371 0.17366 0.0
H436 H 0.78801 0.45622 0.21469 0.0
H437 H 0.70322 0.41336 0.21559 0.0
H438 H 0.7057 0.36024 0.14289 0.0
H439 H 0.67327 0.30858 0.13594 0.0
H440 H 0.73173 0.33628 0.14518 0.0
H441 H 0.70407 0.28703 0.17341 0.0
H442 H 0.6452 0.25967 0.16388 0.0
H443 H 0.65939 0.2776 0.18993 0.0
H444 H 0.62349 0.37613 0.20353 0.0
H445 H 0.56106 0.35238 0.17879 0.0
H446 H 0.59983 0.28913 0.14451 0.0
C447 C 0.76404 0.3799 0.18341 0.0
C448 C 0.79092 0.41707 0.19399 0.0
C449 C 0.7685 0.42768 0.20665 0.0
C450 C 0.72005 0.40334 0.20727 0.0
C451 C 0.69435 0.36833 0.19525 0.0
C452 C 0.7157 0.35632 0.18373 0.0
C453 C 0.6818 0.32291 0.16865 0.0
C454 C 0.69916 0.33264 0.14692 0.0
C455 C 0.67203 0.28453 0.17431 0.0
C456 C 0.63965 0.32131 0.17177 0.0
C457 C 0.64678 0.34628 0.1879 0.0
C458 C 0.61676 0.3555 0.19133 0.0
C459 C 0.58101 0.34164 0.17714 0.0
C460 C 0.57584 0.31911 0.15958 0.0
C461 C 0.60311 0.30627 0.15784 0.0
H462 H 0.44609 0.90976 0.45274 0.0
H463 H 0.51154 0.89875 0.50295 0.0
H464 H 0.44237 0.82986 0.50542 0.0
H465 H 0.32854 0.84793 0.47032 0.0
H466 H 0.30271 0.8258 0.44565 0.0
H467 H 0.35659 0.87492 0.44825 0.0
H468 H 0.39531 0.85433 0.42426 0.0
H469 H 0.3415 0.80523 0.42151 0.0
H470 H 0.39346 0.81308 0.42986 0.0
H471 H 0.36549 0.76237 0.50294 0.0
H472 H 0.289 0.69965 0.49404 0.0
H473 H 0.27553 0.75246 0.44371 0.0
C474 C 0.44568 0.8929 0.46433 0.0
C475 C 0.48418 0.90979 0.47774 0.0
C476 C 0.48256 0.88652 0.49249 0.0
C477 C 0.4433 0.84735 0.49408 0.0
C478 C 0.40597 0.83155 0.48066 0.0
C479 C 0.40696 0.8534 0.46592 0.0
C480 C 0.36299 0.82864 0.4528 0.0
C481 C 0.33612 0.84533 0.45436 0.0
C482 C 0.37398 0.82511 0.43081 0.0
C483 C 0.33716 0.7896 0.46254 0.0
C484 C 0.3624 0.79206 0.4787 0.0
C485 C 0.34559 0.75998 0.49018 0.0
C486 C 0.30209 0.72428 0.48488 0.0
C487 C 0.27583 0.72053 0.46803 0.0
C488 C 0.29393 0.75402 0.45685 0.0
H489 H 0.5813 0.31657 0.81211 0.0
H490 H 0.57698 0.30232 0.87643 0.0
H491 H 0.58622 0.25073 0.87024 0.0
H492 H 0.5179 0.21537 0.79626 0.0
H493 H 0.55214 0.2245 0.77445 0.0
H494 H 0.54592 0.26074 0.78398 0.0
H495 H 0.63524 0.31292 0.78713 0.0
H496 H 0.64174 0.27684 0.7776 0.0
H497 H 0.6683 0.30321 0.80153 0.0
H498 H 0.59475 0.19975 0.85695 0.0
H499 H 0.60239 0.15373 0.83758 0.0
H500 H 0.60167 0.20163 0.782 0.0
C501 C 0.58286 0.30298 0.82494 0.0
C502 C 0.57828 0.31355 0.84478 0.0
C503 C 0.57974 0.29444 0.86108 0.0
C504 C 0.58529 0.26525 0.85773 0.0
C505 C 0.58945 0.25545 0.83799 0.0
C506 C 0.58841 0.2738 0.82187 0.0
C507 C 0.59301 0.25746 0.80211 0.0
C508 C 0.54966 0.23838 0.7884 0.0
C509 C 0.63721 0.28952 0.79147 0.0
C510 C 0.59664 0.22695 0.80962 0.0
C511 C 0.59454 0.22626 0.83036 0.0
C512 C 0.59647 0.20007 0.8407 0.0
C513 C 0.60054 0.17388 0.82956 0.0
C514 C 0.6027 0.174 0.80826 0.0
C515 C 0.60082 0.2011 0.79827 0.0
H516 H 0.6167 0.83181 0.52995 0.0
H517 H 0.62511 0.82067 0.46518 0.0
H518 H 0.60924 0.75673 0.46833 0.0
H519 H 0.67484 0.79438 0.54258 0.0
H520 H 0.63999 0.76893 0.56388 0.0
H521 H 0.6474 0.81176 0.55633 0.0
H522 H 0.55826 0.77178 0.55309 0.0
H523 H 0.55056 0.72878 0.56069 0.0
H524 H 0.52474 0.72697 0.53727 0.0
H525 H 0.59753 0.69634 0.47877 0.0
H526 H 0.59165 0.6441 0.49579 0.0
H527 H 0.59245 0.69558 0.55378 0.0
C528 C 0.61416 0.81546 0.51641 0.0
C529 C 0.62187 0.83097 0.49731 0.0
C530 C 0.61945 0.80926 0.47996 0.0
C531 C 0.61023 0.77289 0.48158 0.0
C532 C 0.60352 0.7587 0.50068 0.0
C533 C 0.6053 0.77927 0.51778 0.0
C534 C 0.59989 0.75879 0.53662 0.0
C535 C 0.6431 0.78503 0.55067 0.0
C536 C 0.55573 0.7458 0.54756 0.0
C537 C 0.59551 0.72382 0.52747 0.0
C538 C 0.59729 0.72412 0.50671 0.0
C539 C 0.59579 0.69565 0.49501 0.0
C540 C 0.59276 0.66626 0.50481 0.0
C541 C 0.59149 0.6657 0.5261 0.0
C542 C 0.59245 0.69475 0.53748 0.0
H543 H 0.80498 0.60112 0.84984 0.0
H544 H 0.69466 0.4752 0.84663 0.0
H545 H 0.75242 0.46369 0.84758 0.0
H546 H 0.88701 0.59883 0.81918 0.0
H547 H 0.93731 0.63717 0.83428 0.0
H548 H 0.88759 0.63632 0.83277 0.0
H549 H 0.88318 0.63671 0.87161 0.0
H550 H 0.93288 0.63755 0.87324 0.0
H551 H 0.87957 0.59946 0.88464 0.0
H552 H 0.82188 0.46469 0.84909 0.0
H553 H 0.89735 0.4782 0.85232 0.0
H554 H 0.96605 0.6035 0.85504 0.0
C555 C 0.79296 0.57112 0.8492 0.0
C556 C 0.74454 0.53911 0.84803 0.0
C557 C 0.73097 0.50043 0.84749 0.0
C558 C 0.76377 0.49347 0.848 0.0
C559 C 0.81084 0.52538 0.8492 0.0
C560 C 0.82562 0.56352 0.84989 0.0
C561 C 0.8786 0.59233 0.85172 0.0
C562 C 0.89882 0.61767 0.8334 0.0
C563 C 0.89449 0.61804 0.87148 0.0
C564 C 0.89105 0.56443 0.85196 0.0
C565 C 0.85123 0.52595 0.85035 0.0
C566 C 0.85327 0.49478 0.85024 0.0
C567 C 0.89678 0.50286 0.8519 0.0
C568 C 0.93871 0.54199 0.85372 0.0
C569 C 0.93524 0.57316 0.85374 0.0
H570 H 0.24505 0.6539 0.15891 0.0
H571 H 0.14152 0.67116 0.15022 0.0
H572 H 0.20291 0.74284 0.15175 0.0
H573 H 0.31381 0.73358 0.19502 0.0
H574 H 0.3687 0.74768 0.1864 0.0
H575 H 0.31738 0.69745 0.18264 0.0
H576 H 0.33129 0.69949 0.14435 0.0
H577 H 0.38278 0.74976 0.14797 0.0
H578 H 0.33752 0.73712 0.13049 0.0
H579 H 0.27413 0.81238 0.15609 0.0
H580 H 0.35037 0.87561 0.16435 0.0
H581 H 0.40934 0.81485 0.17064 0.0
C582 C 0.23546 0.67279 0.15698 0.0
C583 C 0.1884 0.65685 0.15433 0.0
C584 C 0.17722 0.68261 0.15228 0.0
C585 C 0.21191 0.72342 0.15304 0.0
C586 C 0.25779 0.73825 0.15596 0.0
C587 C 0.26976 0.71383 0.15796 0.0
C588 C 0.32149 0.73769 0.1623 0.0
C589 C 0.33088 0.72855 0.18281 0.0
C590 C 0.34463 0.73059 0.14526 0.0
C591 C 0.33647 0.77922 0.16273 0.0
C592 C 0.29917 0.77874 0.15879 0.0
C593 C 0.30375 0.81319 0.15897 0.0
C594 C 0.34745 0.84911 0.16355 0.0
C595 C 0.38633 0.8506 0.168 0.0
C596 C 0.38052 0.81495 0.16736 0.0
H597 H 0.52596 0.21259 0.48724 0.0
H598 H 0.66925 0.25675 0.4866 0.0
H599 H 0.69462 0.32177 0.49947 0.0
H600 H 0.54572 0.30226 0.47394 0.0
H601 H 0.50302 0.29573 0.49086 0.0
H602 H 0.49625 0.25351 0.47973 0.0
H603 H 0.49081 0.22935 0.51528 0.0
H604 H 0.4975 0.27142 0.52651 0.0
H605 H 0.53663 0.26163 0.53379 0.0
H606 H 0.70432 0.38103 0.51423 0.0
H607 H 0.69749 0.43001 0.5302 0.0
H608 H 0.54768 0.34612 0.52312 0.0
C609 C 0.56271 0.23586 0.48976 0.0
C610 C 0.5956 0.22939 0.48569 0.0
C611 C 0.64337 0.26098 0.48909 0.0
C612 C 0.65816 0.29805 0.49656 0.0
C613 C 0.62478 0.30316 0.50064 0.0
C614 C 0.57805 0.27295 0.49738 0.0
C615 C 0.54913 0.28558 0.50404 0.0
C616 C 0.52193 0.28419 0.48607 0.0
C617 C 0.51661 0.26051 0.52091 0.0
C618 C 0.58691 0.32745 0.51181 0.0
C619 C 0.6303 0.33711 0.50955 0.0
C620 C 0.67052 0.37384 0.51605 0.0
C621 C 0.66625 0.40135 0.52524 0.0
C622 C 0.62205 0.39193 0.52799 0.0
C623 C 0.58199 0.3545 0.521 0.0
H624 H 0.48042 0.52414 0.87486 0.0
H625 H 0.53889 0.58252 0.81933 0.0
H626 H 0.47583 0.58773 0.81552 0.0
H627 H 0.35862 0.46997 0.86082 0.0
H628 H 0.3426 0.47776 0.88517 0.0
H629 H 0.39084 0.47658 0.88315 0.0
H630 H 0.44427 0.54518 0.90187 0.0
H631 H 0.39617 0.5465 0.90401 0.0
H632 H 0.44851 0.58554 0.89241 0.0
H633 H 0.40348 0.58441 0.81698 0.0
H634 H 0.33473 0.58028 0.82571 0.0
H635 H 0.32602 0.53001 0.88189 0.0
C636 C 0.47976 0.53778 0.86183 0.0
C637 C 0.51481 0.55254 0.84726 0.0
C638 C 0.51279 0.57088 0.8307 0.0
C639 C 0.4768 0.57385 0.82836 0.0
C640 C 0.44291 0.55909 0.84291 0.0
C641 C 0.4445 0.542 0.85953 0.0
C642 C 0.40523 0.53069 0.87356 0.0
C643 C 0.37238 0.48609 0.8758 0.0
C644 C 0.42472 0.55333 0.89419 0.0
C645 C 0.38117 0.54374 0.86219 0.0
C646 C 0.40308 0.55948 0.84437 0.0
C647 C 0.38642 0.57241 0.831 0.0
C648 C 0.34702 0.56976 0.83603 0.0
C649 C 0.32462 0.55497 0.85451 0.0
C650 C 0.34228 0.54175 0.8677 0.0
H651 H 0.91473 0.4103 0.16407 0.0
H652 H 1.01419 0.38953 0.14973 0.0
H653 H 0.9531 0.3184 0.15218 0.0
H654 H 0.85093 0.33775 0.19989 0.0
H655 H 0.79532 0.32316 0.1916 0.0
H656 H 0.84698 0.37233 0.18827 0.0
H657 H 0.82653 0.36249 0.14997 0.0
H658 H 0.77538 0.31289 0.15328 0.0
H659 H 0.81788 0.32194 0.1355 0.0
H660 H 0.88248 0.24989 0.15784 0.0
H661 H 0.80709 0.18863 0.16584 0.0
H662 H 0.75138 0.2525 0.17482 0.0
C663 C 0.92364 0.39078 0.16141 0.0
C664 C 0.96944 0.40565 0.15676 0.0
C665 C 0.97945 0.37899 0.15325 0.0
C666 C 0.94495 0.33845 0.15463 0.0
C667 C 0.9003 0.32478 0.1593 0.0
C668 C 0.8894 0.35005 0.16249 0.0
C669 C 0.83852 0.32751 0.16715 0.0
C670 C 0.8326 0.34099 0.18797 0.0
C671 C 0.81308 0.33148 0.15049 0.0
C672 C 0.82302 0.28586 0.1669 0.0
C673 C 0.85914 0.28498 0.16212 0.0
C674 C 0.85375 0.25013 0.16136 0.0
C675 C 0.81045 0.21529 0.16576 0.0
C676 C 0.77266 0.21521 0.17085 0.0
C677 C 0.77931 0.25122 0.17118 0.0
H678 H 0.08892 0.58173 0.08892 0.0
H679 H 1.04832 0.46757 0.10239 0.0
H680 H 1.05406 0.45383 0.06644 0.0
H681 H 1.02939 0.55356 0.04119 0.0
H682 H 0.07469 0.59787 0.02953 0.0
H683 H 1.0675 0.59886 0.05633 0.0
H684 H 0.153 0.62739 0.06256 0.0
H685 H 0.1605 0.62659 0.03577 0.0
H686 H 0.17342 0.60172 0.05161 0.0
H687 H 1.05972 0.45092 0.02882 0.0
H688 H 0.07159 0.46142 0.99235 0.0
H689 H 0.1135 0.579 0.00346 0.0
C690 C 0.08133 0.5539 0.08425 0.0
C691 C 1.06782 0.52554 0.09834 0.0
C692 C 1.05864 0.48963 0.09179 0.0
C693 C 1.06173 0.48155 0.07142 0.0
C694 C 0.07477 0.50995 0.05784 0.0
C695 C 0.08506 0.54563 0.06399 0.0
C696 C 0.09919 0.57136 0.04637 0.0
C697 C 1.06568 0.58096 0.04317 0.0
C698 C 0.14952 0.60899 0.04926 0.0
C699 C 0.09453 0.54434 0.02932 0.0
C700 C 0.08007 0.50895 0.03625 0.0
C701 C 0.07151 0.47866 0.02323 0.0
C702 C 0.07814 0.48478 0.00259 0.0
C703 C 0.0937 0.52103 0.99522 0.0
C704 C 0.10214 0.55119 0.00879 0.0
H705 H 0.5591 0.98554 0.41299 0.0
H706 H 0.69075 0.09972 0.42687 0.0
H707 H 0.69054 0.11951 0.39274 0.0
H708 H 0.58763 0.97384 0.36424 0.0
H709 H 0.53071 0.9489 0.35294 0.0
H710 H 0.53701 0.94552 0.37937 0.0
H711 H 0.49107 0.9717 0.38809 0.0
H712 H 0.48436 0.97496 0.36164 0.0
H713 H 0.50987 0.01764 0.37875 0.0
H714 H 0.67957 0.12533 0.35679 0.0
H715 H 0.66068 0.11596 0.32042 0.0
H716 H 0.53792 0.99669 0.32864 0.0
C717 C 0.58715 0.01498 0.40889 0.0
C718 C 0.62471 0.0414 0.42246 0.0
C719 C 0.66166 0.07927 0.41659 0.0
C720 C 0.66171 0.09078 0.39731 0.0
C721 C 0.62482 0.06384 0.38401 0.0
C722 C 0.58827 0.02664 0.38946 0.0
C723 C 0.55553 1.00212 0.37157 0.0
C724 C 0.55258 0.96544 0.36675 0.0
C725 C 0.50735 0.99095 0.37524 0.0
C726 C 0.57994 0.03108 0.35521 0.0
C727 C 0.61935 0.0667 0.36285 0.0
C728 C 0.64852 0.09774 0.35064 0.0
C729 C 0.6374 0.09217 0.33001 0.0
C730 C 0.59769 0.05571 0.3217 0.0
C731 C 0.56849 0.02489 0.33456 0.0
H732 H 0.54899 0.49826 0.77996 0.0
H733 H 0.69447 0.58444 0.79722 0.0
H734 H 0.71279 0.60265 0.76191 0.0
H735 H 0.56641 0.46461 0.7341 0.0
H736 H 0.5192 0.45755 0.72051 0.0
H737 H 0.51693 0.45373 0.74738 0.0
H738 H 0.50495 0.50682 0.75172 0.0
H739 H 0.50699 0.5107 0.72482 0.0
H740 H 0.54599 0.55384 0.74126 0.0
H741 H 0.71574 0.60886 0.72452 0.0
H742 H 0.7034 0.60204 0.6876 0.0
H743 H 0.55599 0.51126 0.69464 0.0
C744 C 0.5846 0.52129 0.77632 0.0
C745 C 0.62031 0.54028 0.79129 0.0
C746 C 0.66656 0.56993 0.78598 0.0
C747 C 0.67729 0.5804 0.76597 0.0
C748 C 0.64134 0.56084 0.7515 0.0
C749 C 0.59592 0.53192 0.75641 0.0
C750 C 0.56411 0.51408 0.73786 0.0
C751 C 0.54028 0.46988 0.73479 0.0
C752 C 0.52841 0.52184 0.73899 0.0
C753 C 0.59885 0.53701 0.72171 0.0
C754 C 0.64313 0.56408 0.72991 0.0
C755 C 0.68117 0.58802 0.71793 0.0
C756 C 0.67378 0.58405 0.69699 0.0
C757 C 0.62873 0.55621 0.68824 0.0
C758 C 0.59087 0.53262 0.70086 0.0
H759 H 0.53393 1.00737 0.54533 0.0
H760 H 0.67802 0.06844 0.53048 0.0
H761 H 0.69881 0.07579 0.56658 0.0
H762 H 0.55414 0.06516 0.59014 0.0
H763 H 0.5079 0.02464 0.60377 0.0
H764 H 0.50386 0.02279 0.5767 0.0
H765 H 0.49188 0.9571 0.57441 0.0
H766 H 0.49568 0.95865 0.60149 0.0
H767 H 0.53375 0.95446 0.58641 0.0
H768 H 0.7047 0.07974 0.60424 0.0
H769 H 0.69467 0.07673 0.64105 0.0
H770 H 0.54657 0.01183 0.63164 0.0
C771 C 0.56977 0.02202 0.54971 0.0
C772 C 0.60444 0.03747 0.53517 0.0
C773 C 0.65095 0.05642 0.54141 0.0
C774 C 0.6631 0.06076 0.56186 0.0
C775 C 0.62825 0.0457 0.57587 0.0
C776 C 0.58246 0.02639 0.57009 0.0
C777 C 0.55186 0.01322 0.58823 0.0
C778 C 0.52805 0.03262 0.5898 0.0
C779 C 0.51619 0.96818 0.58759 0.0
C780 C 0.5877 0.02863 0.60511 0.0
C781 C 0.63154 0.04734 0.59763 0.0
C782 C 0.67051 0.06498 0.61028 0.0
C783 C 0.66452 0.06335 0.63115 0.0
C784 C 0.61989 0.04408 0.63918 0.0
C785 C 0.58103 0.02641 0.62592 0.0
H786 H 0.57719 0.51758 0.90651 0.0
H787 H 0.71824 0.55948 0.89828 0.0
H788 H 0.70891 0.51718 0.92469 0.0
H789 H 0.58112 0.51804 0.95976 0.0
H790 H 0.52185 0.47472 0.96151 0.0
H791 H 0.53857 0.50538 0.94068 0.0
H792 H 0.50607 0.44499 0.91581 0.0
H793 H 0.48992 0.4142 0.93661 0.0
H794 H 0.52708 0.41693 0.9176 0.0
H795 H 0.68447 0.47101 0.95219 0.0
H796 H 0.6511 0.43172 0.98199 0.0
H797 H 0.52848 0.42478 0.97417 0.0
C798 C 0.60594 0.51763 0.91028 0.0
C799 C 0.64836 0.54158 0.90047 0.0
C800 C 0.68554 0.54141 0.9058 0.0
C801 C 0.6804 0.5172 0.92059 0.0
C802 C 0.63803 0.49374 0.93 0.0
C803 C 0.60168 0.4942 0.92527 0.0
C804 C 0.56119 0.46873 0.93877 0.0
C805 C 0.55006 0.49318 0.9509 0.0
C806 C 0.51854 0.43416 0.92646 0.0
C807 C 0.58092 0.45472 0.95218 0.0
C808 C 0.62476 0.46862 0.94652 0.0
C809 C 0.65024 0.46013 0.95685 0.0
C810 C 0.63106 0.43799 0.97387 0.0
C811 C 0.58727 0.42537 0.98072 0.0
C812 C 0.56161 0.43319 0.96931 0.0
H813 H 0.0753 0.48347 0.22252 0.0
H814 H 0.10339 0.59262 0.20778 0.0
H815 H 0.09679 0.60638 0.24362 0.0
H816 H 0.99058 0.4591 0.26115 0.0
H817 H 1.00945 0.43844 0.27691 0.0
H818 H 1.0145 0.43643 0.24997 0.0
H819 H 0.10232 0.47123 0.25459 0.0
H820 H 0.09759 0.47339 0.28151 0.0
H821 H 0.1385 0.51781 0.26887 0.0
H822 H 0.09353 0.61083 0.28121 0.0
H823 H 0.08941 0.60374 0.31808 0.0
H824 H 1.05951 0.49032 0.3083 0.0
C825 C 0.07974 0.5101 0.22687 0.0
C826 C 0.09001 0.5371 0.2125 0.0
C827 C 0.09544 0.57158 0.21863 0.0
C828 C 0.09176 0.57963 0.23891 0.0
C829 C 0.08204 0.55261 0.25278 0.0
C830 C 0.0756 0.51834 0.24703 0.0
C831 C 1.06605 0.49447 0.26499 0.0
C832 C 1.01724 0.45476 0.26314 0.0
C833 C 0.10335 0.48892 0.26764 0.0
C834 C 0.06929 0.52115 0.2818 0.0
C835 C 0.07852 0.55454 0.27442 0.0
C836 C 0.08559 0.58457 0.28715 0.0
C837 C 0.08328 0.58039 0.30798 0.0
C838 C 0.07359 0.54635 0.31574 0.0
C839 C 1.06617 0.51627 0.30254 0.0
loop_
_geom_bond_atom_site_label_1
_geom_bond_atom_site_label_2
_geom_bond_distance
_geom_bond_site_symmetry_2
_ccdc_geom_bond_type
Gd0 C3 2.818 . S
Gd0 O20 2.377 . S
Gd0 O22 2.448 . S
Gd0 O23 2.506 . S
Gd0 O24 2.435 . S
Gd0 O25 2.717 . S
Gd0 O27 2.395 1_455 S
Gd0 O31 2.327 . S
Gd1 C12 2.818 1_455 S
Gd1 O21 2.395 . S
Gd1 O25 2.327 . S
Gd1 O26 2.377 1_455 S
Gd1 O28 2.448 1_455 S
Gd1 O29 2.506 1_455 S
Gd1 O30 2.435 . S
Gd1 O31 2.717 . S
C2 O20 1.240 . S
C2 O21 1.240 . S
C3 Gd0 2.818 . S
C3 C4 1.510 . S
C3 O22 1.249 . S
C3 O23 1.252 . S
C4 C3 1.510 . S
C4 C5 1.404 . S
C4 C6 1.352 . S
C5 C4 1.404 . S
C5 C9 1.389 . S
C5 H32 0.930 . S
C6 C4 1.352 . S
C6 C8 1.374 . S
C6 H33 0.931 . S
C7 C8 1.359 . S
C7 C9 1.364 . S
C8 C6 1.374 . S
C8 C7 1.359 . S
C8 H34 0.931 . S
C9 C5 1.389 . S
C9 C7 1.364 . S
C9 H35 0.931 . S
C10 O24 1.256 . S
C10 O25 1.257 . S
C11 O26 1.240 . S
C11 O27 1.240 . S
C12 Gd1 2.818 1_655 S
C12 C13 1.510 . S
C12 O28 1.249 . S
C12 O29 1.252 . S
C13 C12 1.510 . S
C13 C14 1.404 . S
C13 C15 1.352 . S
C14 C13 1.404 . S
C14 C18 1.389 . S
C14 H36 0.930 . S
C15 C13 1.352 . S
C15 C17 1.374 . S
C15 H37 0.931 . S
C16 C17 1.359 . S
C16 C18 1.364 . S
C17 C15 1.374 . S
C17 C16 1.359 . S
C17 H38 0.931 . S
C18 C14 1.389 . S
C18 C16 1.364 . S
C18 H39 0.931 . S
C19 O30 1.256 . S
C19 O31 1.257 . S
O20 Gd0 2.377 . S
O20 C2 1.240 . S
O21 Gd1 2.395 . S
O21 C2 1.240 . S
O22 Gd0 2.448 . S
O22 C3 1.249 . S
O23 Gd0 2.506 . S
O23 C3 1.252 . S
O24 Gd0 2.435 . S
O24 C10 1.256 . S
O25 Gd0 2.717 . S
O25 Gd1 2.327 . S
O25 C10 1.257 . S
O26 Gd1 2.377 1_655 S
O26 C11 1.240 . S
O27 Gd0 2.395 1_655 S
O27 C11 1.240 . S
O28 Gd1 2.448 1_655 S
O28 C12 1.249 . S
O29 Gd1 2.506 1_655 S
O29 C12 1.252 . S
O30 Gd1 2.435 . S
O30 C19 1.256 . S
O31 Gd0 2.327 . S
O31 Gd1 2.717 . S
O31 C19 1.257 . S
H32 C5 0.930 . S
H33 C6 0.931 . S
H34 C8 0.931 . S
H35 C9 0.931 . S
H36 C14 0.930 . S
H37 C15 0.931 . S
H38 C17 0.931 . S
H39 C18 0.931 . S
Gd40 C43 2.818 . S
Gd40 O60 2.377 . S
Gd40 O62 2.448 . S
Gd40 O63 2.506 . S
Gd40 O64 2.435 . S
Gd40 O65 2.717 1_565 S
Gd40 O67 2.395 1_565 S
Gd40 O71 2.327 1_565 S
Gd41 C52 2.818 . S
Gd41 O61 2.395 1_545 S
Gd41 O65 2.327 . S
Gd41 O66 2.377 . S
Gd41 O68 2.448 . S
Gd41 O69 2.506 . S
Gd41 O70 2.435 . S
Gd41 O71 2.717 . S
C42 O60 1.240 . S
C42 O61 1.240 . S
C43 Gd40 2.818 . S
C43 C44 1.510 . S
C43 O62 1.249 . S
C43 O63 1.252 . S
C44 C43 1.510 . S
C44 C45 1.404 . S
C44 C46 1.352 . S
C45 C44 1.404 . S
C45 C49 1.389 . S
C45 H72 0.930 . S
C46 C44 1.352 . S
C46 C48 1.374 . S
C46 H73 0.931 . S
C47 C48 1.359 . S
C47 C49 1.364 . S
C48 C46 1.374 . S
C48 C47 1.359 . S
C48 H74 0.931 . S
C49 C45 1.389 . S
C49 C47 1.364 . S
C49 H75 0.931 . S
C50 O64 1.256 1_545 S
C50 O65 1.257 . S
C51 O66 1.240 . S
C51 O67 1.240 . S
C52 Gd41 2.818 . S
C52 C53 1.510 . S
C52 O68 1.249 . S
C52 O69 1.252 . S
C53 C52 1.510 . S
C53 C54 1.404 . S
C53 C55 1.352 . S
C54 C53 1.404 . S
C54 C58 1.389 . S
C54 H76 0.930 . S
C55 C53 1.352 . S
C55 C57 1.374 . S
C55 H77 0.931 . S
C56 C57 1.359 . S
C56 C58 1.364 . S
C57 C55 1.374 . S
C57 C56 1.359 . S
C57 H78 0.931 . S
C58 C54 1.389 . S
C58 C56 1.364 . S
C58 H79 0.931 . S
C59 O70 1.256 . S
C59 O71 1.257 . S
O60 Gd40 2.377 . S
O60 C42 1.240 . S
O61 Gd41 2.395 1_565 S
O61 C42 1.240 . S
O62 Gd40 2.448 . S
O62 C43 1.249 . S
O63 Gd40 2.506 . S
O63 C43 1.252 . S
O64 Gd40 2.435 . S
O64 C50 1.256 1_565 S
O65 Gd40 2.717 1_545 S
O65 Gd41 2.327 . S
O65 C50 1.257 . S
O66 Gd41 2.377 . S
O66 C51 1.240 . S
O67 Gd40 2.395 1_545 S
O67 C51 1.240 . S
O68 Gd41 2.448 . S
O68 C52 1.249 . S
O69 Gd41 2.506 . S
O69 C52 1.252 . S
O70 Gd41 2.435 . S
O70 C59 1.256 . S
O71 Gd40 2.327 1_545 S
O71 Gd41 2.717 . S
O71 C59 1.257 . S
H72 C45 0.930 . S
H73 C46 0.931 . S
H74 C48 0.931 . S
H75 C49 0.931 . S
H76 C54 0.930 . S
H77 C55 0.931 . S
H78 C57 0.931 . S
H79 C58 0.931 . S
Gd80 C83 2.818 . S
Gd80 O100 2.377 . S
Gd80 O102 2.448 . S
Gd80 O103 2.506 . S
Gd80 O104 2.435 . S
Gd80 O105 2.717 . S
Gd80 O107 2.395 . S
Gd80 O111 2.327 . S
Gd81 C92 2.818 . S
Gd81 O101 2.395 . S
Gd81 O105 2.327 . S
Gd81 O106 2.377 . S
Gd81 O108 2.448 . S
Gd81 O109 2.506 . S
Gd81 O110 2.435 . S
Gd81 O111 2.717 . S
C82 O100 1.240 . S
C82 O101 1.240 . S
C83 Gd80 2.818 . S
C83 C84 1.510 . S
C83 O102 1.249 . S
C83 O103 1.252 . S
C84 C83 1.510 . S
C84 C85 1.404 . S
C84 C86 1.352 . S
C85 C84 1.404 . S
C85 C89 1.389 . S
C85 H112 0.930 . S
C86 C84 1.352 . S
C86 C88 1.374 . S
C86 H113 0.931 . S
C87 C88 1.359 . S
C87 C89 1.364 . S
C88 C86 1.374 . S
C88 C87 1.359 . S
C88 H114 0.931 . S
C89 C85 1.389 . S
C89 C87 1.364 . S
C89 H115 0.931 . S
C90 O104 1.256 . S
C90 O105 1.257 . S
C91 O106 1.240 . S
C91 O107 1.240 . S
C92 Gd81 2.818 . S
C92 C93 1.510 . S
C92 O108 1.249 . S
C92 O109 1.252 . S
C93 C92 1.510 . S
C93 C94 1.404 . S
C93 C95 1.352 . S
C94 C93 1.404 . S
C94 C98 1.389 . S
C94 H116 0.930 . S
C95 C93 1.352 . S
C95 C97 1.374 . S
C95 H117 0.931 . S
C96 C97 1.359 . S
C96 C98 1.364 . S
C97 C95 1.374 . S
C97 C96 1.359 . S
C97 H118 0.931 . S
C98 C94 1.389 . S
C98 C96 1.364 . S
C98 H119 0.931 . S
C99 O110 1.256 . S
C99 O111 1.257 . S
O100 Gd80 2.377 . S
O100 C82 1.240 . S
O101 Gd81 2.395 . S
O101 C82 1.240 . S
O102 Gd80 2.448 . S
O102 C83 1.249 . S
O103 Gd80 2.506 . S
O103 C83 1.252 . S
O104 Gd80 2.435 . S
O104 C90 1.256 . S
O105 Gd80 2.717 . S
O105 Gd81 2.327 . S
O105 C90 1.257 . S
O106 Gd81 2.377 . S
O106 C91 1.240 . S
O107 Gd80 2.395 . S
O107 C91 1.240 . S
O108 Gd81 2.448 . S
O108 C92 1.249 . S
O109 Gd81 2.506 . S
O109 C92 1.252 . S
O110 Gd81 2.435 . S
O110 C99 1.256 . S
O111 Gd80 2.327 . S
O111 Gd81 2.717 . S
O111 C99 1.257 . S
H112 C85 0.930 . S
H113 C86 0.931 . S
H114 C88 0.931 . S
H115 C89 0.931 . S
H116 C94 0.930 . S
H117 C95 0.931 . S
H118 C97 0.931 . S
H119 C98 0.931 . S
C120 C121 1.386 . S
C120 C122 1.397 . S
C120 H144 0.931 . S
C121 C120 1.386 . S
C121 C125 1.397 1_545 S
C122 C120 1.397 . S
C122 C123 1.384 . S
C122 H145 0.930 . S
C123 C122 1.384 . S
C123 C124 1.377 1_545 S
C123 C126 1.481 . S
C124 C123 1.377 1_565 S
C124 C125 1.389 . S
C124 H146 0.929 . S
C125 C121 1.397 1_565 S
C125 C124 1.389 . S
C125 H147 0.931 . S
C126 C123 1.481 . S
C126 C127 1.387 . S
C126 C131 1.390 1_545 S
C127 C126 1.387 . S
C127 C128 1.401 . S
C127 H148 0.930 . S
C128 C127 1.401 . S
C128 C129 1.376 . S
C128 C137 1.511 . S
C129 C128 1.376 . S
C129 C130 1.392 1_545 S
C129 H150 0.931 . S
C130 C129 1.392 1_565 S
C130 C131 1.361 . S
C130 C132 1.500 . S
C131 C126 1.390 1_565 S
C131 C130 1.361 . S
C131 H149 0.931 . S
C132 C130 1.500 . S
C132 C133 1.371 . S
C132 C134 1.365 . S
C133 C132 1.371 . S
C133 C143 1.386 . S
C133 H151 0.931 . S
C134 C132 1.365 . S
C134 C135 1.409 . S
C134 H152 0.929 . S
C135 C134 1.409 . S
C135 C136 1.380 . S
C135 H153 0.930 . S
C136 C135 1.380 . S
C136 C143 1.357 . S
C137 C128 1.511 . S
C137 C138 1.341 . S
C137 C139 1.371 . S
C138 C137 1.341 . S
C138 C142 1.394 . S
C138 H154 0.930 . S
C139 C137 1.371 . S
C139 C140 1.392 . S
C139 H155 0.931 . S
C140 C139 1.392 . S
C140 C141 1.331 . S
C140 H158 0.932 . S
C141 C140 1.331 . S
C141 C142 1.336 . S
C142 C138 1.394 . S
C142 C141 1.336 . S
C142 H157 0.929 . S
C143 C133 1.386 . S
C143 C136 1.357 . S
C143 H156 0.928 . S
H144 C120 0.931 . S
H145 C122 0.930 . S
H146 C124 0.929 . S
H147 C125 0.931 . S
H148 C127 0.930 . S
H149 C131 0.931 . S
H150 C129 0.931 . S
H151 C133 0.931 . S
H152 C134 0.929 . S
H153 C135 0.930 . S
H154 C138 0.930 . S
H155 C139 0.931 . S
H156 C143 0.928 . S
H157 C142 0.929 . S
H158 C140 0.932 . S
C159 C160 1.386 . S
C159 C161 1.397 . S
C159 H183 0.931 . S
C160 C159 1.386 . S
C160 C164 1.397 . S
C161 C159 1.397 . S
C161 C162 1.384 . S
C161 H184 0.930 . S
C162 C161 1.384 . S
C162 C163 1.377 . S
C162 C165 1.481 . S
C163 C162 1.377 . S
C163 C164 1.389 . S
C163 H185 0.929 . S
C164 C160 1.397 . S
C164 C163 1.389 . S
C164 H186 0.931 . S
C165 C162 1.481 . S
C165 C166 1.387 . S
C165 C170 1.390 . S
C166 C165 1.387 . S
C166 C167 1.401 . S
C166 H187 0.930 . S
C167 C166 1.401 . S
C167 C168 1.376 . S
C167 C176 1.511 . S
C168 C167 1.376 . S
C168 C169 1.392 . S
C168 H189 0.931 . S
C169 C168 1.392 . S
C169 C170 1.361 . S
C169 C171 1.500 . S
C170 C165 1.390 . S
C170 C169 1.361 . S
C170 H188 0.931 . S
C171 C169 1.500 . S
C171 C172 1.371 . S
C171 C173 1.365 . S
C172 C171 1.371 . S
C172 C182 1.386 . S
C172 H190 0.931 . S
C173 C171 1.365 . S
C173 C174 1.409 . S
C173 H191 0.929 . S
C174 C173 1.409 . S
C174 C175 1.380 . S
C174 H192 0.930 . S
C175 C174 1.380 . S
C175 C182 1.357 . S
C176 C167 1.511 . S
C176 C177 1.341 . S
C176 C178 1.371 . S
C177 C176 1.341 . S
C177 C181 1.394 . S
C177 H193 0.930 . S
C178 C176 1.371 . S
C178 C179 1.392 . S
C178 H194 0.931 . S
C179 C178 1.392 . S
C179 C180 1.331 . S
C179 H197 0.932 . S
C180 C179 1.331 . S
C180 C181 1.336 . S
C181 C177 1.394 . S
C181 C180 1.336 . S
C181 H196 0.929 . S
C182 C172 1.386 . S
C182 C175 1.357 . S
C182 H195 0.928 . S
H183 C159 0.931 . S
H184 C161 0.930 . S
H185 C163 0.929 . S
H186 C164 0.931 . S
H187 C166 0.930 . S
H188 C170 0.931 . S
H189 C168 0.931 . S
H190 C172 0.931 . S
H191 C173 0.929 . S
H192 C174 0.930 . S
H193 C177 0.930 . S
H194 C178 0.931 . S
H195 C182 0.928 . S
H196 C181 0.929 . S
H197 C179 0.932 . S
C198 C199 1.386 . S
C198 C200 1.397 . S
C198 H222 0.931 . S
C199 C198 1.386 . S
C199 C203 1.397 . S
C200 C198 1.397 . S
C200 C201 1.384 . S
C200 H223 0.930 . S
C201 C200 1.384 . S
C201 C202 1.377 . S
C201 C204 1.481 . S
C202 C201 1.377 . S
C202 C203 1.389 . S
C202 H224 0.929 1_455 S
C203 C199 1.397 . S
C203 C202 1.389 . S
C203 H225 0.931 1_455 S
C204 C201 1.481 . S
C204 C205 1.387 . S
C204 C209 1.390 . S
C205 C204 1.387 . S
C205 C206 1.401 . S
C205 H226 0.930 . S
C206 C205 1.401 . S
C206 C207 1.376 . S
C206 C215 1.511 . S
C207 C206 1.376 . S
C207 C208 1.392 . S
C207 H228 0.931 . S
C208 C207 1.392 . S
C208 C209 1.361 . S
C208 C210 1.506 . S
C209 C204 1.390 . S
C209 C208 1.361 . S
C209 H227 0.931 . S
C210 C208 1.506 . S
C210 C211 1.371 . S
C210 C212 1.358 1_455 S
C211 C210 1.371 . S
C211 C221 1.386 1_455 S
C211 H229 0.931 . S
C212 C210 1.358 1_655 S
C212 C213 1.409 . S
C212 H230 0.929 . S
C213 C212 1.409 . S
C213 C214 1.380 . S
C213 H231 0.930 . S
C214 C213 1.380 . S
C214 C221 1.357 . S
C215 C206 1.511 . S
C215 C216 1.341 . S
C215 C217 1.371 . S
C216 C215 1.341 . S
C216 C220 1.394 . S
C216 H232 0.930 . S
C217 C215 1.371 . S
C217 C218 1.392 . S
C217 H233 0.931 . S
C218 C217 1.392 . S
C218 C219 1.331 . S
C218 H236 0.932 . S
C219 C218 1.331 . S
C219 C220 1.336 . S
C220 C216 1.394 . S
C220 C219 1.336 . S
C220 H235 0.929 . S
C221 C211 1.386 1_655 S
C221 C214 1.357 . S
C221 H234 0.928 . S
H222 C198 0.931 . S
H223 C200 0.930 . S
H224 C202 0.929 1_655 S
H225 C203 0.931 1_655 S
H226 C205 0.930 . S
H227 C209 0.931 . S
H228 C207 0.931 . S
H229 C211 0.931 . S
H230 C212 0.929 . S
H231 C213 0.930 . S
H232 C216 0.930 . S
H233 C217 0.931 . S
H234 C221 0.928 . S
H235 C220 0.929 . S
H236 C218 0.932 . S
C237 C238 1.386 . S
C237 C239 1.397 . S
C237 H261 0.931 . S
C238 C237 1.386 . S
C238 C242 1.397 1_655 S
C239 C237 1.397 . S
C239 C240 1.384 . S
C239 H262 0.930 . S
C240 C239 1.384 . S
C240 C241 1.377 1_655 S
C240 C243 1.481 . S
C241 C240 1.377 1_455 S
C241 C242 1.389 . S
C241 H263 0.929 . S
C242 C238 1.397 1_455 S
C242 C241 1.389 . S
C242 H264 0.931 . S
C243 C240 1.481 . S
C243 C244 1.387 . S
C243 C248 1.390 1_655 S
C244 C243 1.387 . S
C244 C245 1.401 . S
C244 H265 0.930 . S
C245 C244 1.401 . S
C245 C246 1.385 . S
C245 C254 1.511 . S
C246 C245 1.385 . S
C246 C247 1.382 1_655 S
C246 H267 0.931 . S
C247 C246 1.382 1_455 S
C247 C248 1.361 . S
C247 C249 1.500 . S
C248 C243 1.390 1_455 S
C248 C247 1.361 . S
C248 H266 0.931 . S
C249 C247 1.500 . S
C249 C250 1.371 . S
C249 C251 1.365 . S
C250 C249 1.371 . S
C250 C260 1.386 . S
C250 H268 0.931 . S
C251 C249 1.365 . S
C251 C252 1.409 . S
C251 H269 0.929 . S
C252 C251 1.409 . S
C252 C253 1.380 . S
C252 H270 0.930 . S
C253 C252 1.380 . S
C253 C260 1.357 . S
C254 C245 1.511 . S
C254 C255 1.341 . S
C254 C256 1.371 . S
C255 C254 1.341 . S
C255 C259 1.394 . S
C255 H271 0.930 . S
C256 C254 1.371 . S
C256 C257 1.392 . S
C256 H272 0.931 . S
C257 C256 1.392 . S
C257 C258 1.331 . S
C257 H275 0.932 . S
C258 C257 1.331 . S
C258 C259 1.336 . S
C259 C255 1.394 . S
C259 C258 1.336 . S
C259 H274 0.929 . S
C260 C250 1.386 . S
C260 C253 1.357 . S
C260 H273 0.928 . S
H261 C237 0.931 . S
H262 C239 0.930 . S
H263 C241 0.929 . S
H264 C242 0.931 . S
H265 C244 0.930 . S
H266 C248 0.931 . S
H267 C246 0.931 . S
H268 C250 0.931 . S
H269 C251 0.929 . S
H270 C252 0.930 . S
H271 C255 0.930 . S
H272 C256 0.931 . S
H273 C260 0.928 . S
H274 C259 0.929 . S
H275 C257 0.932 . S
C276 C277 1.386 . S
C276 C278 1.397 . S
C276 H300 0.931 . S
C277 C276 1.386 . S
C277 C281 1.397 1_565 S
C278 C276 1.397 . S
C278 C279 1.384 . S
C278 H301 0.930 . S
C279 C278 1.384 . S
C279 C280 1.377 1_565 S
C279 C282 1.481 1_565 S
C280 C279 1.377 1_545 S
C280 C281 1.389 . S
C280 H302 0.929 . S
C281 C277 1.397 1_545 S
C281 C280 1.389 . S
C281 H303 0.931 . S
C282 C279 1.481 1_545 S
C282 C283 1.377 1_545 S
C282 C287 1.400 . S
C283 C282 1.377 1_565 S
C283 C284 1.401 . S
C283 H304 0.930 . S
C284 C283 1.401 . S
C284 C285 1.376 1_565 S
C284 C293 1.511 . S
C285 C284 1.376 1_545 S
C285 C286 1.392 . S
C285 H306 0.931 . S
C286 C285 1.392 . S
C286 C287 1.361 . S
C286 C288 1.500 . S
C287 C282 1.400 . S
C287 C286 1.361 . S
C287 H305 0.931 . S
C288 C286 1.500 . S
C288 C289 1.371 . S
C288 C290 1.365 . S
C289 C288 1.371 . S
C289 C299 1.386 . S
C289 H307 0.931 . S
C290 C288 1.365 . S
C290 C291 1.409 . S
C290 H308 0.929 . S
C291 C290 1.409 . S
C291 C292 1.380 . S
C291 H309 0.930 . S
C292 C291 1.380 . S
C292 C299 1.357 . S
C293 C284 1.511 . S
C293 C294 1.341 . S
C293 C295 1.371 . S
C294 C293 1.341 . S
C294 C298 1.394 . S
C294 H310 0.930 . S
C295 C293 1.371 . S
C295 C296 1.392 . S
C295 H311 0.931 . S
C296 C295 1.392 . S
C296 C297 1.331 . S
C296 H314 0.932 . S
C297 C296 1.331 . S
C297 C298 1.336 . S
C298 C294 1.394 . S
C298 C297 1.336 . S
C298 H313 0.929 . S
C299 C289 1.386 . S
C299 C292 1.357 . S
C299 H312 0.928 . S
H300 C276 0.931 . S
H301 C278 0.930 . S
H302 C280 0.929 . S
H303 C281 0.931 . S
H304 C283 0.930 . S
H305 C287 0.931 . S
H306 C285 0.931 . S
H307 C289 0.931 . S
H308 C290 0.929 . S
H309 C291 0.930 . S
H310 C294 0.930 . S
H311 C295 0.931 . S
H312 C299 0.928 . S
H313 C298 0.929 . S
H314 C296 0.932 . S
C315 C316 1.386 . S
C315 C317 1.397 . S
C315 H339 0.931 . S
C316 C315 1.386 . S
C316 C320 1.397 . S
C317 C315 1.397 . S
C317 C318 1.384 . S
C317 H340 0.930 . S
C318 C317 1.384 . S
C318 C319 1.377 . S
C318 C321 1.481 . S
C319 C318 1.377 . S
C319 C320 1.389 . S
C319 H341 0.929 . S
C320 C316 1.397 . S
C320 C319 1.389 . S
C320 H342 0.931 . S
C321 C318 1.481 . S
C321 C322 1.387 . S
C321 C326 1.390 . S
C322 C321 1.387 . S
C322 C323 1.401 . S
C322 H343 0.930 . S
C323 C322 1.401 . S
C323 C324 1.376 . S
C323 C332 1.511 . S
C324 C323 1.376 . S
C324 C325 1.392 . S
C324 H345 0.931 . S
C325 C324 1.392 . S
C325 C326 1.361 . S
C325 C327 1.500 . S
C326 C321 1.390 . S
C326 C325 1.361 . S
C326 H344 0.931 . S
C327 C325 1.500 . S
C327 C328 1.371 . S
C327 C329 1.365 . S
C328 C327 1.371 . S
C328 C338 1.386 . S
C328 H346 0.931 . S
C329 C327 1.365 . S
C329 C330 1.409 . S
C329 H347 0.929 . S
C330 C329 1.409 . S
C330 C331 1.380 . S
C330 H348 0.930 . S
C331 C330 1.380 . S
C331 C338 1.357 . S
C332 C323 1.511 . S
C332 C333 1.341 . S
C332 C334 1.371 . S
C333 C332 1.341 . S
C333 C337 1.394 . S
C333 H349 0.930 . S
C334 C332 1.371 . S
C334 C335 1.392 . S
C334 H350 0.931 . S
C335 C334 1.392 . S
C335 C336 1.331 . S
C335 H353 0.932 . S
C336 C335 1.331 . S
C336 C337 1.336 . S
C337 C333 1.394 . S
C337 C336 1.336 . S
C337 H352 0.929 . S
C338 C328 1.386 . S
C338 C331 1.357 . S
C338 H351 0.928 . S
H339 C315 0.931 . S
H340 C317 0.930 . S
H341 C319 0.929 . S
H342 C320 0.931 . S
H343 C322 0.930 . S
H344 C326 0.931 . S
H345 C324 0.931 . S
H346 C328 0.931 . S
H347 C329 0.929 . S
H348 C330 0.930 . S
H349 C333 0.930 . S
H350 C334 0.931 . S
H351 C338 0.928 . S
H352 C337 0.929 . S
H353 C335 0.932 . S
H354 C366 0.930 . S
H355 C368 0.930 . S
H356 C369 0.930 . S
H357 C373 0.959 . S
H358 C373 0.959 . S
H359 C373 0.961 . S
H360 C374 0.960 . S
H361 C374 0.961 . S
H362 C374 0.959 . S
H363 C377 0.929 . S
H364 C378 0.931 . S
H365 C380 0.930 . S
C366 H354 0.930 . S
C366 C367 1.399 . S
C366 C371 1.399 . S
C367 C366 1.399 . S
C367 C368 1.376 . S
C368 H355 0.930 . S
C368 C367 1.376 . S
C368 C369 1.388 . S
C369 H356 0.930 . S
C369 C368 1.388 . S
C369 C370 1.390 . S
C370 C369 1.390 . S
C370 C371 1.394 . S
C370 C376 1.465 . S
C371 C366 1.399 . S
C371 C370 1.394 . S
C371 C372 1.516 . S
C372 C371 1.516 . S
C372 C373 1.502 . S
C372 C374 1.561 . S
C372 C375 1.526 . S
C373 H357 0.959 . S
C373 H358 0.959 . S
C373 H359 0.961 . S
C373 C372 1.502 . S
C374 H360 0.960 . S
C374 H361 0.961 . S
C374 H362 0.959 . S
C374 C372 1.561 . S
C375 C372 1.526 . S
C375 C376 1.396 . S
C375 C380 1.390 . S
C376 C370 1.465 . S
C376 C375 1.396 . S
C376 C377 1.399 . S
C377 H363 0.929 . S
C377 C376 1.399 . S
C377 C378 1.385 . S
C378 H364 0.931 . S
C378 C377 1.385 . S
C378 C379 1.389 . S
C379 C378 1.389 . S
C379 C380 1.387 . S
C380 H365 0.930 . S
C380 C375 1.390 . S
C380 C379 1.387 . S
H381 C393 0.930 . S
H382 C395 0.930 . S
H383 C396 0.930 . S
H384 C400 0.959 . S
H385 C400 0.959 . S
H386 C400 0.961 . S
H387 C401 0.960 . S
H388 C401 0.961 . S
H389 C401 0.959 . S
H390 C404 0.929 . S
H391 C405 0.931 . S
H392 C407 0.930 . S
C393 H381 0.930 . S
C393 C394 1.399 . S
C393 C398 1.399 . S
C394 C393 1.399 . S
C394 C395 1.376 . S
C395 H382 0.930 . S
C395 C394 1.376 . S
C395 C396 1.388 . S
C396 H383 0.930 . S
C396 C395 1.388 . S
C396 C397 1.390 . S
C397 C396 1.390 . S
C397 C398 1.394 . S
C397 C403 1.465 . S
C398 C393 1.399 . S
C398 C397 1.394 . S
C398 C399 1.516 . S
C399 C398 1.516 . S
C399 C400 1.502 . S
C399 C401 1.561 . S
C399 C402 1.526 . S
C400 H384 0.959 . S
C400 H385 0.959 . S
C400 H386 0.961 . S
C400 C399 1.502 . S
C401 H387 0.960 . S
C401 H388 0.961 . S
C401 H389 0.959 . S
C401 C399 1.561 . S
C402 C399 1.526 . S
C402 C403 1.396 . S
C402 C407 1.390 . S
C403 C397 1.465 . S
C403 C402 1.396 . S
C403 C404 1.399 . S
C404 H390 0.929 . S
C404 C403 1.399 . S
C404 C405 1.385 . S
C405 H391 0.931 . S
C405 C404 1.385 . S
C405 C406 1.389 . S
C406 C405 1.389 . S
C406 C407 1.387 . S
C407 H392 0.930 . S
C407 C402 1.390 . S
C407 C406 1.387 . S
H408 C420 0.930 . S
H409 C422 0.930 . S
H410 C423 0.930 . S
H411 C427 0.959 . S
H412 C427 0.959 . S
H413 C427 0.961 . S
H414 C428 0.960 . S
H415 C428 0.961 . S
H416 C428 0.959 . S
H417 C431 0.929 . S
H418 C432 0.931 . S
H419 C434 0.930 . S
C420 H408 0.930 . S
C420 C421 1.399 . S
C420 C425 1.399 . S
C421 C420 1.399 . S
C421 C422 1.376 . S
C422 H409 0.930 . S
C422 C421 1.376 . S
C422 C423 1.388 . S
C423 H410 0.930 . S
C423 C422 1.388 . S
C423 C424 1.390 . S
C424 C423 1.390 . S
C424 C425 1.394 . S
C424 C430 1.465 . S
C425 C420 1.399 . S
C425 C424 1.394 . S
C425 C426 1.516 . S
C426 C425 1.516 . S
C426 C427 1.502 . S
C426 C428 1.561 . S
C426 C429 1.526 . S
C427 H411 0.959 . S
C427 H412 0.959 . S
C427 H413 0.961 . S
C427 C426 1.502 . S
C428 H414 0.960 . S
C428 H415 0.961 . S
C428 H416 0.959 . S
C428 C426 1.561 . S
C429 C426 1.526 . S
C429 C430 1.396 . S
C429 C434 1.390 . S
C430 C424 1.465 . S
C430 C429 1.396 . S
C430 C431 1.399 . S
C431 H417 0.929 . S
C431 C430 1.399 . S
C431 C432 1.385 . S
C432 H418 0.931 . S
C432 C431 1.385 . S
C432 C433 1.389 . S
C433 C432 1.389 . S
C433 C434 1.387 . S
C434 H419 0.930 . S
C434 C429 1.390 . S
C434 C433 1.387 . S
H435 C447 0.930 . S
H436 C449 0.930 . S
H437 C450 0.930 . S
H438 C454 0.959 . S
H439 C454 0.959 . S
H440 C454 0.961 . S
H441 C455 0.960 . S
H442 C455 0.961 . S
H443 C455 0.959 . S
H444 C458 0.929 . S
H445 C459 0.931 . S
H446 C461 0.930 . S
C447 H435 0.930 . S
C447 C448 1.399 . S
C447 C452 1.399 . S
C448 C447 1.399 . S
C448 C449 1.376 . S
C449 H436 0.930 . S
C449 C448 1.376 . S
C449 C450 1.388 . S
C450 H437 0.930 . S
C450 C449 1.388 . S
C450 C451 1.390 . S
C451 C450 1.390 . S
C451 C452 1.394 . S
C451 C457 1.465 . S
C452 C447 1.399 . S
C452 C451 1.394 . S
C452 C453 1.516 . S
C453 C452 1.516 . S
C453 C454 1.502 . S
C453 C455 1.561 . S
C453 C456 1.526 . S
C454 H438 0.959 . S
C454 H439 0.959 . S
C454 H440 0.961 . S
C454 C453 1.502 . S
C455 H441 0.960 . S
C455 H442 0.961 . S
C455 H443 0.959 . S
C455 C453 1.561 . S
C456 C453 1.526 . S
C456 C457 1.396 . S
C456 C461 1.390 . S
C457 C451 1.465 . S
C457 C456 1.396 . S
C457 C458 1.399 . S
C458 H444 0.929 . S
C458 C457 1.399 . S
C458 C459 1.385 . S
C459 H445 0.931 . S
C459 C458 1.385 . S
C459 C460 1.389 . S
C460 C459 1.389 . S
C460 C461 1.387 . S
C461 H446 0.930 . S
C461 C456 1.390 . S
C461 C460 1.387 . S
H462 C474 0.930 . S
H463 C476 0.930 . S
H464 C477 0.930 . S
H465 C481 0.959 . S
H466 C481 0.959 . S
H467 C481 0.961 . S
H468 C482 0.960 . S
H469 C482 0.961 . S
H470 C482 0.959 . S
H471 C485 0.929 . S
H472 C486 0.931 . S
H473 C488 0.930 . S
C474 H462 0.930 . S
C474 C475 1.399 . S
C474 C479 1.399 . S
C475 C474 1.399 . S
C475 C476 1.376 . S
C476 H463 0.930 . S
C476 C475 1.376 . S
C476 C477 1.388 . S
C477 H464 0.930 . S
C477 C476 1.388 . S
C477 C478 1.390 . S
C478 C477 1.390 . S
C478 C479 1.394 . S
C478 C484 1.465 . S
C479 C474 1.399 . S
C479 C478 1.394 . S
C479 C480 1.516 . S
C480 C479 1.516 . S
C480 C481 1.502 . S
C480 C482 1.561 . S
C480 C483 1.526 . S
C481 H465 0.959 . S
C481 H466 0.959 . S
C481 H467 0.961 . S
C481 C480 1.502 . S
C482 H468 0.960 . S
C482 H469 0.961 . S
C482 H470 0.959 . S
C482 C480 1.561 . S
C483 C480 1.526 . S
C483 C484 1.396 . S
C483 C488 1.390 . S
C484 C478 1.465 . S
C484 C483 1.396 . S
C484 C485 1.399 . S
C485 H471 0.929 . S
C485 C484 1.399 . S
C485 C486 1.385 . S
C486 H472 0.931 . S
C486 C485 1.385 . S
C486 C487 1.389 . S
C487 C486 1.389 . S
C487 C488 1.387 . S
C488 H473 0.930 . S
C488 C483 1.390 . S
C488 C487 1.387 . S
H489 C501 0.930 . S
H490 C503 0.930 . S
H491 C504 0.930 . S
H492 C508 0.959 . S
H493 C508 0.959 . S
H494 C508 0.961 . S
H495 C509 0.960 . S
H496 C509 0.961 . S
H497 C509 0.959 . S
H498 C512 0.929 . S
H499 C513 0.931 . S
H500 C515 0.930 . S
C501 H489 0.930 . S
C501 C502 1.399 . S
C501 C506 1.399 . S
C502 C501 1.399 . S
C502 C503 1.376 . S
C503 H490 0.930 . S
C503 C502 1.376 . S
C503 C504 1.388 . S
C504 H491 0.930 . S
C504 C503 1.388 . S
C504 C505 1.390 . S
C505 C504 1.390 . S
C505 C506 1.394 . S
C505 C511 1.465 . S
C506 C501 1.399 . S
C506 C505 1.394 . S
C506 C507 1.516 . S
C507 C506 1.516 . S
C507 C508 1.502 . S
C507 C509 1.561 . S
C507 C510 1.526 . S
C508 H492 0.959 . S
C508 H493 0.959 . S
C508 H494 0.961 . S
C508 C507 1.502 . S
C509 H495 0.960 . S
C509 H496 0.961 . S
C509 H497 0.959 . S
C509 C507 1.561 . S
C510 C507 1.526 . S
C510 C511 1.396 . S
C510 C515 1.390 . S
C511 C505 1.465 . S
C511 C510 1.396 . S
C511 C512 1.399 . S
C512 H498 0.929 . S
C512 C511 1.399 . S
C512 C513 1.385 . S
C513 H499 0.931 . S
C513 C512 1.385 . S
C513 C514 1.389 . S
C514 C513 1.389 . S
C514 C515 1.387 . S
C515 H500 0.930 . S
C515 C510 1.390 . S
C515 C514 1.387 . S
H516 C528 0.930 . S
H517 C530 0.930 . S
H518 C531 0.930 . S
H519 C535 0.959 . S
H520 C535 0.959 . S
H521 C535 0.961 . S
H522 C536 0.960 . S
H523 C536 0.961 . S
H524 C536 0.959 . S
H525 C539 0.929 . S
H526 C540 0.931 . S
H527 C542 0.930 . S
C528 H516 0.930 . S
C528 C529 1.399 . S
C528 C533 1.399 . S
C529 C528 1.399 . S
C529 C530 1.376 . S
C530 H517 0.930 . S
C530 C529 1.376 . S
C530 C531 1.388 . S
C531 H518 0.930 . S
C531 C530 1.388 . S
C531 C532 1.390 . S
C532 C531 1.390 . S
C532 C533 1.394 . S
C532 C538 1.465 . S
C533 C528 1.399 . S
C533 C532 1.394 . S
C533 C534 1.516 . S
C534 C533 1.516 . S
C534 C535 1.502 . S
C534 C536 1.561 . S
C534 C537 1.526 . S
C535 H519 0.959 . S
C535 H520 0.959 . S
C535 H521 0.961 . S
C535 C534 1.502 . S
C536 H522 0.960 . S
C536 H523 0.961 . S
C536 H524 0.959 . S
C536 C534 1.561 . S
C537 C534 1.526 . S
C537 C538 1.396 . S
C537 C542 1.390 . S
C538 C532 1.465 . S
C538 C537 1.396 . S
C538 C539 1.399 . S
C539 H525 0.929 . S
C539 C538 1.399 . S
C539 C540 1.385 . S
C540 H526 0.931 . S
C540 C539 1.385 . S
C540 C541 1.389 . S
C541 C540 1.389 . S
C541 C542 1.387 . S
C542 H527 0.930 . S
C542 C537 1.390 . S
C542 C541 1.387 . S
H543 C555 0.930 . S
H544 C557 0.930 . S
H545 C558 0.930 . S
H546 C562 0.959 . S
H547 C562 0.959 . S
H548 C562 0.961 . S
H549 C563 0.960 . S
H550 C563 0.961 . S
H551 C563 0.959 . S
H552 C566 0.929 . S
H553 C567 0.931 . S
H554 C569 0.930 . S
C555 H543 0.930 . S
C555 C556 1.399 . S
C555 C560 1.399 . S
C556 C555 1.399 . S
C556 C557 1.376 . S
C557 H544 0.930 . S
C557 C556 1.376 . S
C557 C558 1.388 . S
C558 H545 0.930 . S
C558 C557 1.388 . S
C558 C559 1.390 . S
C559 C558 1.390 . S
C559 C560 1.394 . S
C559 C565 1.465 . S
C560 C555 1.399 . S
C560 C559 1.394 . S
C560 C561 1.516 . S
C561 C560 1.516 . S
C561 C562 1.502 . S
C561 C563 1.561 . S
C561 C564 1.526 . S
C562 H546 0.959 . S
C562 H547 0.959 . S
C562 H548 0.961 . S
C562 C561 1.502 . S
C563 H549 0.960 . S
C563 H550 0.961 . S
C563 H551 0.959 . S
C563 C561 1.561 . S
C564 C561 1.526 . S
C564 C565 1.396 . S
C564 C569 1.390 . S
C565 C559 1.465 . S
C565 C564 1.396 . S
C565 C566 1.399 . S
C566 H552 0.929 . S
C566 C565 1.399 . S
C566 C567 1.385 . S
C567 H553 0.931 . S
C567 C566 1.385 . S
C567 C568 1.389 . S
C568 C567 1.389 . S
C568 C569 1.387 . S
C569 H554 0.930 . S
C569 C564 1.390 . S
C569 C568 1.387 . S
H570 C582 0.930 . S
H571 C584 0.930 . S
H572 C585 0.930 . S
H573 C589 0.959 . S
H574 C589 0.959 . S
H575 C589 0.961 . S
H576 C590 0.960 . S
H577 C590 0.961 . S
H578 C590 0.959 . S
H579 C593 0.929 . S
H580 C594 0.931 . S
H581 C596 0.930 . S
C582 H570 0.930 . S
C582 C583 1.399 . S
C582 C587 1.399 . S
C583 C582 1.399 . S
C583 C584 1.376 . S
C584 H571 0.930 . S
C584 C583 1.376 . S
C584 C585 1.388 . S
C585 H572 0.930 . S
C585 C584 1.388 . S
C585 C586 1.390 . S
C586 C585 1.390 . S
C586 C587 1.394 . S
C586 C592 1.465 . S
C587 C582 1.399 . S
C587 C586 1.394 . S
C587 C588 1.516 . S
C588 C587 1.516 . S
C588 C589 1.502 . S
C588 C590 1.561 . S
C588 C591 1.526 . S
C589 H573 0.959 . S
C589 H574 0.959 . S
C589 H575 0.961 . S
C589 C588 1.502 . S
C590 H576 0.960 . S
C590 H577 0.961 . S
C590 H578 0.959 . S
C590 C588 1.561 . S
C591 C588 1.526 . S
C591 C592 1.396 . S
C591 C596 1.390 . S
C592 C586 1.465 . S
C592 C591 1.396 . S
C592 C593 1.399 . S
C593 H579 0.929 . S
C593 C592 1.399 . S
C593 C594 1.385 . S
C594 H580 0.931 . S
C594 C593 1.385 . S
C594 C595 1.389 . S
C595 C594 1.389 . S
C595 C596 1.387 . S
C596 H581 0.930 . S
C596 C591 1.390 . S
C596 C595 1.387 . S
H597 C609 0.930 . S
H598 C611 0.930 . S
H599 C612 0.930 . S
H600 C616 0.959 . S
H601 C616 0.959 . S
H602 C616 0.961 . S
H603 C617 0.960 . S
H604 C617 0.961 . S
H605 C617 0.959 . S
H606 C620 0.929 . S
H607 C621 0.931 . S
H608 C623 0.930 . S
C609 H597 0.930 . S
C609 C610 1.399 . S
C609 C614 1.399 . S
C610 C609 1.399 . S
C610 C611 1.376 . S
C611 H598 0.930 . S
C611 C610 1.376 . S
C611 C612 1.388 . S
C612 H599 0.930 . S
C612 C611 1.388 . S
C612 C613 1.390 . S
C613 C612 1.390 . S
C613 C614 1.394 . S
C613 C619 1.465 . S
C614 C609 1.399 . S
C614 C613 1.394 . S
C614 C615 1.516 . S
C615 C614 1.516 . S
C615 C616 1.502 . S
C615 C617 1.561 . S
C615 C618 1.526 . S
C616 H600 0.959 . S
C616 H601 0.959 . S
C616 H602 0.961 . S
C616 C615 1.502 . S
C617 H603 0.960 . S
C617 H604 0.961 . S
C617 H605 0.959 . S
C617 C615 1.561 . S
C618 C615 1.526 . S
C618 C619 1.396 . S
C618 C623 1.390 . S
C619 C613 1.465 . S
C619 C618 1.396 . S
C619 C620 1.399 . S
C620 H606 0.929 . S
C620 C619 1.399 . S
C620 C621 1.385 . S
C621 H607 0.931 . S
C621 C620 1.385 . S
C621 C622 1.389 . S
C622 C621 1.389 . S
C622 C623 1.387 . S
C623 H608 0.930 . S
C623 C618 1.390 . S
C623 C622 1.387 . S
H624 C636 0.930 . S
H625 C638 0.930 . S
H626 C639 0.930 . S
H627 C643 0.959 . S
H628 C643 0.959 . S
H629 C643 0.961 . S
H630 C644 0.960 . S
H631 C644 0.961 . S
H632 C644 0.959 . S
H633 C647 0.929 . S
H634 C648 0.931 . S
H635 C650 0.930 . S
C636 H624 0.930 . S
C636 C637 1.399 . S
C636 C641 1.399 . S
C637 C636 1.399 . S
C637 C638 1.376 . S
C638 H625 0.930 . S
C638 C637 1.376 . S
C638 C639 1.388 . S
C639 H626 0.930 . S
C639 C638 1.388 . S
C639 C640 1.390 . S
C640 C639 1.390 . S
C640 C641 1.394 . S
C640 C646 1.465 . S
C641 C636 1.399 . S
C641 C640 1.394 . S
C641 C642 1.516 . S
C642 C641 1.516 . S
C642 C643 1.502 . S
C642 C644 1.561 . S
C642 C645 1.526 . S
C643 H627 0.959 . S
C643 H628 0.959 . S
C643 H629 0.961 . S
C643 C642 1.502 . S
C644 H630 0.960 . S
C644 H631 0.961 . S
C644 H632 0.959 . S
C644 C642 1.561 . S
C645 C642 1.526 . S
C645 C646 1.396 . S
C645 C650 1.390 . S
C646 C640 1.465 . S
C646 C645 1.396 . S
C646 C647 1.399 . S
C647 H633 0.929 . S
C647 C646 1.399 . S
C647 C648 1.385 . S
C648 H634 0.931 . S
C648 C647 1.385 . S
C648 C649 1.389 . S
C649 C648 1.389 . S
C649 C650 1.387 . S
C650 H635 0.930 . S
C650 C645 1.390 . S
C650 C649 1.387 . S
H651 C663 0.930 . S
H652 C665 0.930 . S
H653 C666 0.930 . S
H654 C670 0.959 . S
H655 C670 0.959 . S
H656 C670 0.961 . S
H657 C671 0.960 . S
H658 C671 0.961 . S
H659 C671 0.959 . S
H660 C674 0.929 . S
H661 C675 0.931 . S
H662 C677 0.930 . S
C663 H651 0.930 . S
C663 C664 1.399 . S
C663 C668 1.399 . S
C664 C663 1.399 . S
C664 C665 1.376 . S
C665 H652 0.930 . S
C665 C664 1.376 . S
C665 C666 1.388 . S
C666 H653 0.930 . S
C666 C665 1.388 . S
C666 C667 1.390 . S
C667 C666 1.390 . S
C667 C668 1.394 . S
C667 C673 1.465 . S
C668 C663 1.399 . S
C668 C667 1.394 . S
C668 C669 1.516 . S
C669 C668 1.516 . S
C669 C670 1.502 . S
C669 C671 1.561 . S
C669 C672 1.526 . S
C670 H654 0.959 . S
C670 H655 0.959 . S
C670 H656 0.961 . S
C670 C669 1.502 . S
C671 H657 0.960 . S
C671 H658 0.961 . S
C671 H659 0.959 . S
C671 C669 1.561 . S
C672 C669 1.526 . S
C672 C673 1.396 . S
C672 C677 1.390 . S
C673 C667 1.465 . S
C673 C672 1.396 . S
C673 C674 1.399 . S
C674 H660 0.929 . S
C674 C673 1.399 . S
C674 C675 1.385 . S
C675 H661 0.931 . S
C675 C674 1.385 . S
C675 C676 1.389 . S
C676 C675 1.389 . S
C676 C677 1.387 . S
C677 H662 0.930 . S
C677 C672 1.390 . S
C677 C676 1.387 . S
H678 C690 0.930 . S
H679 C692 0.930 . S
H680 C693 0.930 . S
H681 C697 0.959 . S
H682 C697 0.959 . S
H683 C697 0.961 . S
H684 C698 0.960 . S
H685 C698 0.961 . S
H686 C698 0.959 . S
H687 C701 0.929 . S
H688 C702 0.931 1_556 S
H689 C704 0.930 . S
C690 H678 0.930 . S
C690 C691 1.399 . S
C690 C695 1.399 . S
C691 C690 1.399 . S
C691 C692 1.376 . S
C692 H679 0.930 . S
C692 C691 1.376 . S
C692 C693 1.388 . S
C693 H680 0.930 . S
C693 C692 1.388 . S
C693 C694 1.390 . S
C694 C693 1.390 . S
C694 C695 1.394 . S
C694 C700 1.465 . S
C695 C690 1.399 . S
C695 C694 1.394 . S
C695 C696 1.516 . S
C696 C695 1.516 . S
C696 C697 1.502 . S
C696 C698 1.561 . S
C696 C699 1.526 . S
C697 H681 0.959 . S
C697 H682 0.959 . S
C697 H683 0.961 . S
C697 C696 1.502 . S
C698 H684 0.960 . S
C698 H685 0.961 . S
C698 H686 0.959 . S
C698 C696 1.561 . S
C699 C696 1.526 . S
C699 C700 1.396 . S
C699 C704 1.390 . S
C700 C694 1.465 . S
C700 C699 1.396 . S
C700 C701 1.399 . S
C701 H687 0.929 . S
C701 C700 1.399 . S
C701 C702 1.385 . S
C702 H688 0.931 1_554 S
C702 C701 1.385 . S
C702 C703 1.389 . S
C703 C702 1.389 . S
C703 C704 1.387 . S
C704 H689 0.930 . S
C704 C699 1.390 . S
C704 C703 1.387 . S
H705 C717 0.930 . S
H706 C719 0.930 . S
H707 C720 0.930 . S
H708 C724 0.959 . S
H709 C724 0.959 . S
H710 C724 0.961 . S
H711 C725 0.960 . S
H712 C725 0.961 . S
H713 C725 0.959 . S
H714 C728 0.929 . S
H715 C729 0.931 . S
H716 C731 0.895 1_565 S
C717 H705 0.930 . S
C717 C718 1.399 1_565 S
C717 C722 1.399 1_565 S
C718 C717 1.399 1_545 S
C718 C719 1.376 . S
C719 H706 0.930 . S
C719 C718 1.376 . S
C719 C720 1.388 . S
C720 H707 0.930 . S
C720 C719 1.388 . S
C720 C721 1.390 . S
C721 C720 1.390 . S
C721 C722 1.394 . S
C721 C727 1.465 . S
C722 C717 1.399 1_545 S
C722 C721 1.394 . S
C722 C723 1.516 1_545 S
C723 C722 1.516 1_565 S
C723 C724 1.502 . S
C723 C725 1.561 . S
C723 C726 1.526 1_565 S
C724 H708 0.959 . S
C724 H709 0.959 . S
C724 H710 0.961 . S
C724 C723 1.502 . S
C725 H711 0.960 . S
C725 H712 0.961 . S
C725 H713 0.959 . S
C725 C723 1.561 . S
C726 C723 1.526 1_545 S
C726 C727 1.396 . S
C726 C731 1.394 . S
C727 C721 1.465 . S
C727 C726 1.396 . S
C727 C728 1.399 . S
C728 H714 0.929 . S
C728 C727 1.399 . S
C728 C729 1.385 . S
C729 H715 0.931 . S
C729 C728 1.385 . S
C729 C730 1.389 . S
C730 C729 1.389 . S
C730 C731 1.417 . S
C731 H716 0.895 1_545 S
C731 C726 1.394 . S
C731 C730 1.417 . S
H732 C744 0.930 . S
H733 C746 0.930 . S
H734 C747 0.930 . S
H735 C751 0.959 . S
H736 C751 0.959 . S
H737 C751 0.961 . S
H738 C752 0.960 . S
H739 C752 0.961 . S
H740 C752 0.959 . S
H741 C755 0.929 . S
H742 C756 0.931 . S
H743 C758 0.930 . S
C744 H732 0.930 . S
C744 C745 1.399 . S
C744 C749 1.399 . S
C745 C744 1.399 . S
C745 C746 1.376 . S
C746 H733 0.930 . S
C746 C745 1.376 . S
C746 C747 1.388 . S
C747 H734 0.930 . S
C747 C746 1.388 . S
C747 C748 1.390 . S
C748 C747 1.390 . S
C748 C749 1.394 . S
C748 C754 1.465 . S
C749 C744 1.399 . S
C749 C748 1.394 . S
C749 C750 1.516 . S
C750 C749 1.516 . S
C750 C751 1.502 . S
C750 C752 1.561 . S
C750 C753 1.526 . S
C751 H735 0.959 . S
C751 H736 0.959 . S
C751 H737 0.961 . S
C751 C750 1.502 . S
C752 H738 0.960 . S
C752 H739 0.961 . S
C752 H740 0.959 . S
C752 C750 1.561 . S
C753 C750 1.526 . S
C753 C754 1.396 . S
C753 C758 1.390 . S
C754 C748 1.465 . S
C754 C753 1.396 . S
C754 C755 1.399 . S
C755 H741 0.929 . S
C755 C754 1.399 . S
C755 C756 1.385 . S
C756 H742 0.931 . S
C756 C755 1.385 . S
C756 C757 1.389 . S
C757 C756 1.389 . S
C757 C758 1.387 . S
C758 H743 0.930 . S
C758 C753 1.390 . S
C758 C757 1.387 . S
H759 C771 0.930 . S
H760 C773 0.930 . S
H761 C774 0.930 . S
H762 C778 0.959 . S
H763 C778 0.959 . S
H764 C778 0.961 . S
H765 C779 0.960 . S
H766 C779 0.961 . S
H767 C779 0.959 . S
H768 C782 0.929 . S
H769 C783 0.931 . S
H770 C785 0.930 . S
C771 H759 0.930 . S
C771 C772 1.399 1_565 S
C771 C776 1.399 . S
C772 C771 1.399 1_545 S
C772 C773 1.376 . S
C773 H760 0.930 . S
C773 C772 1.376 . S
C773 C774 1.388 . S
C774 H761 0.930 . S
C774 C773 1.388 . S
C774 C775 1.390 . S
C775 C774 1.390 . S
C775 C776 1.394 1_545 S
C775 C781 1.465 . S
C776 C771 1.399 . S
C776 C775 1.394 1_565 S
C776 C777 1.516 . S
C777 C776 1.516 . S
C777 C778 1.502 . S
C777 C779 1.561 . S
C777 C780 1.526 . S
C778 H762 0.959 . S
C778 H763 0.959 . S
C778 H764 0.961 . S
C778 C777 1.502 . S
C779 H765 0.960 . S
C779 H766 0.961 . S
C779 H767 0.959 . S
C779 C777 1.561 . S
C780 C777 1.526 . S
C780 C781 1.396 1_565 S
C780 C785 1.390 . S
C781 C775 1.465 . S
C781 C780 1.396 1_545 S
C781 C782 1.399 . S
C782 H768 0.929 . S
C782 C781 1.399 . S
C782 C783 1.385 . S
C783 H769 0.931 . S
C783 C782 1.385 . S
C783 C784 1.379 1_545 S
C784 C783 1.379 1_565 S
C784 C785 1.394 . S
C785 H770 0.930 . S
C785 C780 1.390 . S
C785 C784 1.394 . S
H786 C798 0.930 . S
H787 C800 0.930 . S
H788 C801 0.930 . S
H789 C805 0.959 . S
H790 C805 0.959 . S
H791 C805 0.961 . S
H792 C806 0.960 . S
H793 C806 0.961 . S
H794 C806 0.959 . S
H795 C809 0.929 . S
H796 C810 0.913 1_554 S
H797 C812 0.930 . S
C798 H786 0.930 . S
C798 C799 1.399 . S
C798 C803 1.399 . S
C799 C798 1.399 . S
C799 C800 1.376 . S
C800 H787 0.930 . S
C800 C799 1.376 . S
C800 C801 1.388 . S
C801 H788 0.930 . S
C801 C800 1.388 . S
C801 C802 1.390 . S
C802 C801 1.390 . S
C802 C803 1.394 . S
C802 C808 1.465 . S
C803 C798 1.399 . S
C803 C802 1.394 . S
C803 C804 1.516 . S
C804 C803 1.516 . S
C804 C805 1.502 . S
C804 C806 1.561 . S
C804 C807 1.526 . S
C805 H789 0.959 . S
C805 H790 0.959 . S
C805 H791 0.961 . S
C805 C804 1.502 . S
C806 H792 0.960 . S
C806 H793 0.961 . S
C806 H794 0.959 . S
C806 C804 1.561 . S
C807 C804 1.526 . S
C807 C808 1.396 . S
C807 C812 1.390 . S
C808 C802 1.465 . S
C808 C807 1.396 . S
C808 C809 1.399 . S
C809 H795 0.929 . S
C809 C808 1.399 . S
C809 C810 1.385 . S
C810 H796 0.913 1_556 S
C810 C809 1.385 . S
C810 C811 1.389 . S
C811 C810 1.389 . S
C811 C812 1.387 . S
C812 H797 0.930 . S
C812 C807 1.390 . S
C812 C811 1.387 . S
H813 C825 0.930 . S
H814 C827 0.930 . S
H815 C828 0.930 . S
H816 C832 0.959 . S
H817 C832 0.959 . S
H818 C832 0.961 . S
H819 C833 0.960 . S
H820 C833 0.961 . S
H821 C833 0.959 1_455 S
H822 C836 0.929 . S
H823 C837 0.931 . S
H824 C839 0.930 . S
C825 H813 0.930 . S
C825 C826 1.399 1_655 S
C825 C830 1.399 . S
C826 C825 1.399 1_455 S
C826 C827 1.376 . S
C827 H814 0.930 . S
C827 C826 1.376 . S
C827 C828 1.388 . S
C828 H815 0.930 . S
C828 C827 1.388 . S
C828 C829 1.390 . S
C829 C828 1.390 . S
C829 C830 1.394 1_455 S
C829 C835 1.465 . S
C830 C825 1.399 . S
C830 C829 1.394 1_655 S
C830 C831 1.516 . S
C831 C830 1.516 . S
C831 C832 1.502 . S
C831 C833 1.561 . S
C831 C834 1.526 . S
C832 H816 0.959 . S
C832 H817 0.959 . S
C832 H818 0.961 . S
C832 C831 1.502 . S
C833 H819 0.960 . S
C833 H820 0.961 . S
C833 H821 0.959 1_655 S
C833 C831 1.561 . S
C834 C831 1.526 . S
C834 C835 1.396 1_655 S
C834 C839 1.390 . S
C835 C829 1.465 . S
C835 C834 1.396 1_455 S
C835 C836 1.399 . S
C836 H822 0.929 . S
C836 C835 1.399 . S
C836 C837 1.385 . S
C837 H823 0.931 . S
C837 C836 1.385 . S
C837 C838 1.389 . S
C838 C837 1.389 . S
C838 C839 1.387 1_455 S
C839 H824 0.930 . S
C839 C834 1.390 . S
C839 C838 1.387 1_655 S
C367 C7 0.576 . S
C379 C331 0.663 . S
C394 C51 1.921 . S
C406 C258 1.857 . S
C421 C87 1.195 . S
C433 C297 1.225 . S
C448 C16 0.493 . S
C460 C336 0.367 . S
C487 C253 2.000 . S
C475 C42 2.065 . S
C514 C292 1.336 . S
C502 C96 1.343 . S
C529 C47 1.231 . S
C541 C180 1.227 . S
C556 C91 3.127 . S
C568 C214 3.080 . S
C583 C2 2.070 . S
C595 C136 2.025 . S
C622 C175 1.301 . S
C610 C56 1.289 . S
C649 C219 2.956 . S
C637 C82 2.988 . S
C664 C11 1.908 . S
C676 C141 1.858 . S
C703 C199 1.765 1_554 S
C691 C19 1.732 . S
C718 C50 1.372 . S
C730 C121 1.382 . S
C745 C99 1.430 . S
C757 C160 1.505 . S
C784 C277 1.484 . S
C772 C59 1.462 . S
C811 C316 1.104 1_556 S
C799 C90 1.094 . S
C826 C10 1.319 . S
C838 C238 1.362 1_455 S
