# Generated by pormake.
# Topology nom, (4,4)-cn, num edge types: 1
# Building blocks:
#     Node 0, Type 0, BuildingBlock: NAHDIM_clean_linker_0, # of connection points: 4
#     Node 1, Type 0, BuildingBlock: NAHDIM_clean_linker_0, # of connection points: 4
#     Node 2, Type 0, BuildingBlock: NAHDIM_clean_linker_0, # of connection points: 4
#     Node 3, Type 0, BuildingBlock: NAHDIM_clean_linker_0, # of connection points: 4
#     Node 4, Type 0, BuildingBlock: NAHDIM_clean_linker_0, # of connection points: 4
#     Node 5, Type 0, BuildingBlock: NAHDIM_clean_linker_0, # of connection points: 4
#     Node 6, Type 1, BuildingBlock: KUFVIS_clean_sbu_0, # of connection points: 4
#     Node 7, Type 1, BuildingBlock: KUFVIS_clean_sbu_0, # of connection points: 4
#     Node 8, Type 1, BuildingBlock: KUFVIS_clean_sbu_0, # of connection points: 4
#     Node 9, Type 1, BuildingBlock: KUFVIS_clean_sbu_0, # of connection points: 4
#     Node 10, Type 1, BuildingBlock: KUFVIS_clean_sbu_0, # of connection points: 4
#     Node 11, Type 1, BuildingBlock: KUFVIS_clean_sbu_0, # of connection points: 4
#     Edge 12, Type (0, 1), BuildingBlock: AJUNOK_clean_linker_0, # of connection points: 2
#     Edge 13, Type (0, 1), BuildingBlock: AJUNOK_clean_linker_0, # of connection points: 2
#     Edge 14, Type (0, 1), BuildingBlock: AJUNOK_clean_linker_0, # of connection points: 2
#     Edge 15, Type (0, 1), BuildingBlock: AJUNOK_clean_linker_0, # of connection points: 2
#     Edge 16, Type (0, 1), BuildingBlock: AJUNOK_clean_linker_0, # of connection points: 2
#     Edge 17, Type (0, 1), BuildingBlock: AJUNOK_clean_linker_0, # of connection points: 2
#     Edge 18, Type (0, 1), BuildingBlock: AJUNOK_clean_linker_0, # of connection points: 2
#     Edge 19, Type (0, 1), BuildingBlock: AJUNOK_clean_linker_0, # of connection points: 2
#     Edge 20, Type (0, 1), BuildingBlock: AJUNOK_clean_linker_0, # of connection points: 2
#     Edge 21, Type (0, 1), BuildingBlock: AJUNOK_clean_linker_0, # of connection points: 2
#     Edge 22, Type (0, 1), BuildingBlock: AJUNOK_clean_linker_0, # of connection points: 2
#     Edge 23, Type (0, 1), BuildingBlock: AJUNOK_clean_linker_0, # of connection points: 2
#     Edge 24, Type (0, 1), BuildingBlock: AJUNOK_clean_linker_0, # of connection points: 2
#     Edge 25, Type (0, 1), BuildingBlock: AJUNOK_clean_linker_0, # of connection points: 2
#     Edge 26, Type (0, 1), BuildingBlock: AJUNOK_clean_linker_0, # of connection points: 2
#     Edge 27, Type (0, 1), BuildingBlock: AJUNOK_clean_linker_0, # of connection points: 2
#     Edge 28, Type (0, 1), BuildingBlock: AJUNOK_clean_linker_0, # of connection points: 2
#     Edge 29, Type (0, 1), BuildingBlock: AJUNOK_clean_linker_0, # of connection points: 2
#     Edge 30, Type (0, 1), BuildingBlock: AJUNOK_clean_linker_0, # of connection points: 2
#     Edge 31, Type (0, 1), BuildingBlock: AJUNOK_clean_linker_0, # of connection points: 2
#     Edge 32, Type (0, 1), BuildingBlock: AJUNOK_clean_linker_0, # of connection points: 2
#     Edge 33, Type (0, 1), BuildingBlock: AJUNOK_clean_linker_0, # of connection points: 2
#     Edge 34, Type (0, 1), BuildingBlock: AJUNOK_clean_linker_0, # of connection points: 2
#     Edge 35, Type (0, 1), BuildingBlock: AJUNOK_clean_linker_0, # of connection points: 2
# Relax obj value: 0.044
# Max RMSD: 0.131
# Mean RMSD: 0.094
data_MOF--net-nom--node1-KUFVIS_clean_sbu_0--node2-NAHDIM_clean_linker_0--edge1-AJUNOK_clean_linker_0
_symmetry_space_group_name_H-M    P1
_symmetry_Int_Tables_number       1
_symmetry_cell_setting            triclinic
loop_
_symmetry_equiv_pos_as_xyz
'x, y, z'
_cell_length_a     46.687701
_cell_length_b     47.30812
_cell_length_c     56.971836
_cell_angle_alpha  90.885318
_cell_angle_beta   90.906902
_cell_angle_gamma 119.96811
loop_
_atom_site_label
_atom_site_type_symbol
_atom_site_fract_x
_atom_site_fract_y
_atom_site_fract_z
_atom_type_partial_charge
C0 C 0.20078 0.58193 0.24181 0.0
C1 C 0.20723 0.60395 0.26365 0.0
C2 C 0.15139 0.59225 0.27433 0.0
C3 C 0.13961 0.56001 0.28139 0.0
C4 C 0.10676 0.54062 0.28825 0.0
C5 C 0.08558 0.55397 0.28858 0.0
C6 C 0.09785 0.58686 0.28252 0.0
C7 C 0.13055 0.60544 0.27529 0.0
C8 C 0.09438 0.50557 0.29454 0.0
C9 C 0.0762 0.60214 0.28298 0.0
C10 C 0.89564 0.46735 0.15549 0.0
C11 C 0.91487 0.48404 0.17733 0.0
C12 C 0.93417 0.47187 0.21369 0.0
C13 C 0.94394 0.50207 0.22495 0.0
C14 C 0.96263 0.51105 0.24602 0.0
C15 C 0.97226 0.48965 0.25581 0.0
C16 C 0.962 0.45898 0.24473 0.0
C17 C 0.94265 0.45031 0.22391 0.0
C18 C 0.97246 0.54363 0.25765 0.0
C19 C 0.9719 0.43564 0.25469 0.0
C20 C 0.83911 0.41354 0.37156 0.0
C21 C 0.85388 0.44763 0.37077 0.0
C22 C 0.88838 0.46749 0.37144 0.0
C23 C 0.90839 0.4529 0.37301 0.0
C24 C 0.89355 0.41879 0.37567 0.0
C25 C 0.85893 0.39952 0.37509 0.0
C26 C 0.90344 0.50391 0.36926 0.0
C27 C 0.91424 0.40259 0.37784 0.0
C28 C 0.12613 0.62307 0.45037 0.0
C29 C 0.1191 0.59054 0.46067 0.0
C30 C 0.06407 0.55422 0.4455 0.0
C31 C 0.04313 0.56516 0.43722 0.0
C32 C 0.02204 0.54991 0.41763 0.0
C33 C 0.0213 0.52245 0.40668 0.0
C34 C 0.04144 0.51041 0.41583 0.0
C35 C 0.06302 0.52679 0.43503 0.0
C36 C 0.00095 0.56348 0.40848 0.0
C37 C 0.04046 0.48053 0.40518 0.0
C38 C 0.05001 0.53291 0.29344 0.0
C39 C 0.02807 0.51968 0.27416 0.0
C40 C 0.9941 0.50012 0.27714 0.0
C41 C 0.98154 0.49265 0.29999 0.0
C42 C 0.94756 0.47253 0.30358 0.0
C43 C 0.93539 0.46561 0.32613 0.0
C44 C 0.95668 0.47897 0.34599 0.0
C45 C 0.94435 0.47275 0.36898 0.0
C46 C 0.96604 0.4865 0.38834 0.0
C47 C -1e-05 0.50693 0.3854 0.0
C48 C 0.01282 0.51354 0.36252 0.0
C49 C 0.04674 0.5344 0.35884 0.0
C50 C 0.05906 0.54062 0.33626 0.0
C51 C 0.03787 0.52658 0.31647 0.0
C52 C 0.00352 0.50604 0.31974 0.0
C53 C 0.99103 0.49935 0.34277 0.0
C54 C 0.76436 0.37 0.33808 0.0
C55 C 0.78566 0.39992 0.35403 0.0
O56 O 0.18221 0.61135 0.26601 0.0
O57 O 0.08547 0.57056 0.46356 0.0
O58 O 0.80602 0.39353 0.36826 0.0
O59 O 0.91684 0.46286 0.19296 0.0
H60 H 0.2085 0.59111 0.27946 0.0
H61 H 0.1778 0.55812 0.24352 0.0
H62 H 0.19808 0.59356 0.22577 0.0
H63 H 0.22158 0.57712 0.23957 0.0
H64 H 0.15552 0.5495 0.28115 0.0
H65 H 0.13991 0.6304 0.26999 0.0
H66 H 0.07297 0.48908 0.28287 0.0
H67 H 0.11376 0.49861 0.29296 0.0
H68 H 0.08567 0.50166 0.31285 0.0
H69 H 0.09085 0.62915 0.28197 0.0
H70 H 0.05856 0.59254 0.26774 0.0
H71 H 0.0616 0.59571 0.29921 0.0
H72 H 0.93934 0.50627 0.17455 0.0
H73 H 0.91403 0.47677 0.14102 0.0
H74 H 0.8927 0.44249 0.15543 0.0
H75 H 0.855 0.47446 0.15669 0.0
H76 H 0.93702 0.51873 0.21739 0.0
H77 H 0.93478 0.42696 0.21516 0.0
H78 H 0.96632 0.54052 0.27653 0.0
H79 H 0.99959 0.55984 0.25658 0.0
H80 H 0.96004 0.55585 0.24925 0.0
H81 H 0.96245 0.41298 0.2437 0.0
H82 H 0.99928 0.44772 0.25617 0.0
H83 H 0.96223 0.42893 0.27265 0.0
H84 H 0.80063 0.42002 0.34194 0.0
H85 H 0.83854 0.45873 0.36912 0.0
H86 H 0.84722 0.37322 0.37619 0.0
H87 H 0.91491 0.51128 0.35186 0.0
H88 H 0.88478 0.51181 0.37099 0.0
H89 H 0.92325 0.51695 0.3829 0.0
H90 H 0.89903 0.37609 0.38118 0.0
H91 H 0.92784 0.40572 0.36138 0.0
H92 H 0.93291 0.41447 0.39236 0.0
H93 H 0.12802 0.57838 0.44822 0.0
H94 H 0.15317 0.63944 0.4485 0.0
H95 H 0.11414 0.61884 0.43268 0.0
H96 H 0.11643 0.6354 0.46186 0.0
H97 H 0.04413 0.5863 0.44571 0.0
H98 H 0.0791 0.51833 0.44193 0.0
H99 H 0.00387 0.56705 0.38926 0.0
H100 H 0.97454 0.54577 0.41152 0.0
H101 H 0.00729 0.5871 0.41725 0.0
H102 H 0.05386 0.47162 0.41636 0.0
H103 H 0.01445 0.46058 0.40245 0.0
H104 H 0.05206 0.48643 0.38776 0.0
H105 H 0.03751 0.52523 0.25653 0.0
H106 H 0.92998 0.4618 0.28898 0.0
H107 H 0.909 0.44979 0.32774 0.0
H108 H 0.95629 0.48182 0.4059 0.0
H109 H 0.06421 0.54613 0.37338 0.0
H110 H 0.08538 0.55674 0.33448 0.0
H111 H 0.74957 0.34792 0.34853 0.0
H112 H 0.74734 0.37434 0.32682 0.0
H113 H 0.7805 0.36526 0.32649 0.0
C114 C 0.35695 0.85413 0.57503 0.0
C115 C 0.37497 0.83691 0.56543 0.0
C116 C 0.40949 0.87741 0.53791 0.0
C117 C 0.44282 0.88646 0.54032 0.0
C118 C 0.4677 0.91805 0.5348 0.0
C119 C 0.45875 0.94102 0.52711 0.0
C120 C 0.42488 0.93179 0.52488 0.0
C121 C 0.40063 0.89977 0.52983 0.0
C122 C 0.50346 0.92686 0.53714 0.0
C123 C 0.41421 0.95573 0.51749 0.0
C124 C 0.59539 0.07853 0.64675 0.0
C125 C 0.57787 0.0975 0.64032 0.0
C126 C 0.57116 0.09045 0.59832 0.0
C127 C 0.539 0.08247 0.59167 0.0
C128 C 0.5235 0.06294 0.57151 0.0
C129 C 0.54051 0.05078 0.55809 0.0
C130 C 0.57306 0.05878 0.56497 0.0
C131 C 0.58824 0.07913 0.58482 0.0
C132 C 0.48896 0.05524 0.56459 0.0
C133 C 0.59166 0.04557 0.55155 0.0
C134 C 0.61625 0.17664 0.43101 0.0
C135 C 0.58435 0.16621 0.43898 0.0
C136 C 0.56235 0.13301 0.44262 0.0
C137 C 0.57308 0.11007 0.43901 0.0
C138 C 0.60514 0.12061 0.43056 0.0
C139 C 0.62609 0.15379 0.4262 0.0
C140 C 0.52781 0.12261 0.45045 0.0
C141 C 0.61754 0.097 0.42651 0.0
C142 C 0.4033 0.88532 0.37047 0.0
C143 C 0.43566 0.89624 0.35767 0.0
C144 C 0.46782 0.95252 0.37071 0.0
C145 C 0.45641 0.97365 0.3772 0.0
C146 C 0.47147 0.99612 0.39602 0.0
C147 C 0.49914 0.99793 0.40803 0.0
C148 C 0.51191 0.9778 0.40053 0.0
C149 C 0.49582 0.955 0.38204 0.0
C150 C 0.45729 0.01727 0.40345 0.0
C151 C 0.54217 0.98 0.41229 0.0
C152 C 0.48467 0.97484 0.52182 0.0
C153 C 0.50086 0.9966 0.54071 0.0
C154 C 0.52411 0.02931 0.53711 0.0
C155 C 0.53121 0.04094 0.51399 0.0
C156 C 0.55369 0.0739 0.50973 0.0
C157 C 0.56052 0.08509 0.48692 0.0
C158 C 0.54478 0.06385 0.46748 0.0
C159 C 0.55089 0.07514 0.44422 0.0
C160 C 0.53562 0.05311 0.42531 0.0
C161 C 0.514 0.02001 0.42892 0.0
C162 C 0.50676 0.00843 0.45205 0.0
C163 C 0.4843 0.97544 0.45632 0.0
C164 C 0.47731 0.9643 0.47912 0.0
C165 C 0.49227 0.98575 0.49856 0.0
C166 C 0.51533 0.01902 0.49466 0.0
C167 C 0.52233 0.03043 0.47138 0.0
C168 C 0.68179 0.25514 0.44768 0.0
C169 C 0.64436 0.23327 0.44426 0.0
O170 O 0.3856 0.84685 0.54291 0.0
O171 O 0.45109 0.92941 0.35374 0.0
O172 O 0.63807 0.20865 0.42799 0.0
O173 O 0.58597 0.10909 0.61783 0.0
H174 H 0.39693 0.84344 0.57707 0.0
H175 H 0.37419 0.88085 0.57671 0.0
H176 H 0.33588 0.84953 0.56313 0.0
H177 H 0.34744 0.84526 0.59277 0.0
H178 H 0.44925 0.86868 0.54637 0.0
H179 H 0.37463 0.89222 0.5279 0.0
H180 H 0.51559 0.9448 0.55192 0.0
H181 H 0.50615 0.90522 0.54053 0.0
H182 H 0.5167 0.9385 0.52092 0.0
H183 H 0.38747 0.94627 0.52026 0.0
H184 H 0.42868 0.97926 0.52745 0.0
H185 H 0.41897 0.96073 0.49857 0.0
H186 H 0.55066 0.08048 0.64096 0.0
H187 H 0.58888 0.0689 0.66471 0.0
H188 H 0.58742 0.05741 0.63437 0.0
H189 H 0.62262 0.09449 0.64581 0.0
H190 H 0.52621 0.0917 0.60225 0.0
H191 H 0.61319 0.08563 0.59025 0.0
H192 H 0.48775 0.06031 0.54574 0.0
H193 H 0.47145 0.02889 0.56701 0.0
H194 H 0.4807 0.06959 0.57525 0.0
H195 H 0.61489 0.05066 0.5609 0.0
H196 H 0.57592 0.01878 0.54859 0.0
H197 H 0.59805 0.05689 0.5341 0.0
H198 H 0.63468 0.22257 0.46167 0.0
H199 H 0.5766 0.184 0.44215 0.0
H200 H 0.65075 0.16224 0.41984 0.0
H201 H 0.52591 0.11693 0.46937 0.0
H202 H 0.52139 0.14206 0.44795 0.0
H203 H 0.50935 0.10023 0.4406 0.0
H204 H 0.64435 0.10968 0.42278 0.0
H205 H 0.61308 0.0817 0.44212 0.0
H206 H 0.60375 0.08043 0.41135 0.0
H207 H 0.45202 0.89092 0.36896 0.0
H208 H 0.39057 0.85864 0.37343 0.0
H209 H 0.40852 0.89811 0.38786 0.0
H210 H 0.38654 0.891 0.36008 0.0
H211 H 0.43489 0.97158 0.36806 0.0
H212 H 0.50497 0.93903 0.37643 0.0
H213 H 0.45154 0.01417 0.4224 0.0
H214 H 0.47587 0.04332 0.40101 0.0
H215 H 0.43443 0.01141 0.39323 0.0
H216 H 0.55159 0.96608 0.40233 0.0
H217 H 0.56218 0.00588 0.41418 0.0
H218 H 0.53598 0.97003 0.43017 0.0
H219 H 0.49507 0.98802 0.55851 0.0
H220 H 0.56624 0.09148 0.52398 0.0
H221 H 0.57823 0.11066 0.48475 0.0
H222 H 0.5406 0.06187 0.40751 0.0
H223 H 0.47174 0.95783 0.44208 0.0
H224 H 0.45993 0.93863 0.48132 0.0
H225 H 0.68754 0.27477 0.46103 0.0
H226 H 0.69279 0.24043 0.45392 0.0
H227 H 0.69336 0.26645 0.4309 0.0
C228 C 0.54509 0.37317 0.73422 0.0
C229 C 0.57754 0.38556 0.72105 0.0
C230 C 0.56588 0.41491 0.69184 0.0
C231 C 0.58873 0.44799 0.69602 0.0
C232 C 0.58004 0.47191 0.69162 0.0
C233 C 0.54753 0.46226 0.68345 0.0
C234 C 0.52458 0.42871 0.67895 0.0
C235 C 0.5344 0.40552 0.6827 0.0
C236 C 0.60538 0.50738 0.69617 0.0
C237 C 0.48933 0.41712 0.67101 0.0
C238 C 0.5184 0.54965 0.82055 0.0
C239 C 0.4869 0.54538 0.80843 0.0
C240 C 0.49928 0.55245 0.76692 0.0
C241 C 0.47604 0.52178 0.75727 0.0
C242 C 0.48133 0.51093 0.73556 0.0
C243 C 0.51046 0.5312 0.72333 0.0
C244 C 0.53357 0.56244 0.73282 0.0
C245 C 0.52738 0.57284 0.75439 0.0
C246 C 0.45578 0.47783 0.72567 0.0
C247 C 0.56494 0.58464 0.72029 0.0
C248 C 0.42747 0.59913 0.61513 0.0
C249 C 0.41181 0.56497 0.6131 0.0
C250 C 0.43042 0.54927 0.61101 0.0
C251 C 0.46534 0.56817 0.61053 0.0
C252 C 0.48097 0.60263 0.61073 0.0
C253 C 0.46173 0.61769 0.61291 0.0
C254 C 0.41287 0.51245 0.61023 0.0
C255 C 0.51808 0.62343 0.60979 0.0
C256 C 0.52533 0.41638 0.53084 0.0
C257 C 0.55173 0.44823 0.52017 0.0
C258 C 0.53143 0.48383 0.53171 0.0
C259 C 0.49875 0.47079 0.53858 0.0
C260 C 0.49105 0.48405 0.55802 0.0
C261 C 0.51669 0.51164 0.57027 0.0
C262 C 0.54947 0.52634 0.56213 0.0
C263 C 0.55655 0.51189 0.54308 0.0
C264 C 0.45578 0.46782 0.56595 0.0
C265 C 0.57722 0.55651 0.57411 0.0
C266 C 0.53678 0.48684 0.68105 0.0
C267 C 0.5301 0.4988 0.70159 0.0
C268 C 0.51692 0.51958 0.70074 0.0
C269 C 0.50952 0.52828 0.67878 0.0
C270 C 0.49446 0.54755 0.67726 0.0
C271 C 0.48661 0.55538 0.65558 0.0
C272 C 0.49393 0.54461 0.63453 0.0
C273 C 0.48535 0.55184 0.6124 0.0
C274 C 0.49377 0.54157 0.59181 0.0
C275 C 0.50972 0.52321 0.59269 0.0
C276 C 0.51734 0.51464 0.6147 0.0
C277 C 0.53196 0.49492 0.61627 0.0
C278 C 0.53887 0.48623 0.63796 0.0
C279 C 0.53113 0.49664 0.65894 0.0
C280 C 0.51698 0.51703 0.65781 0.0
C281 C 0.50967 0.52567 0.63566 0.0
C282 C 0.39282 0.62687 0.65538 0.0
C283 C 0.38332 0.60393 0.63382 0.0
O284 O 0.57311 0.39157 0.69791 0.0
O285 O 0.53874 0.46814 0.51489 0.0
O286 O 0.41039 0.61485 0.61947 0.0
O287 O 0.49497 0.56317 0.78808 0.0
H288 H 0.59691 0.40868 0.72973 0.0
H289 H 0.52492 0.35086 0.72528 0.0
H290 H 0.53776 0.39218 0.73482 0.0
H291 H 0.54799 0.36744 0.75263 0.0
H292 H 0.6132 0.45498 0.70293 0.0
H293 H 0.517 0.37976 0.67966 0.0
H294 H 0.59903 0.5163 0.7123 0.0
H295 H 0.63073 0.51119 0.69864 0.0
H296 H 0.60524 0.52235 0.68139 0.0
H297 H 0.4734 0.39023 0.6721 0.0
H298 H 0.47852 0.429 0.68184 0.0
H299 H 0.48887 0.42386 0.65251 0.0
H300 H 0.47074 0.51891 0.80421 0.0
H301 H 0.51226 0.53574 0.83702 0.0
H302 H 0.53068 0.54024 0.80879 0.0
H303 H 0.53603 0.57581 0.82478 0.0
H304 H 0.45354 0.50649 0.76648 0.0
H305 H 0.54492 0.59666 0.76188 0.0
H306 H 0.46656 0.46158 0.72492 0.0
H307 H 0.43326 0.46614 0.73639 0.0
H308 H 0.44852 0.48012 0.70744 0.0
H309 H 0.58137 0.60729 0.73073 0.0
H310 H 0.57869 0.57163 0.71648 0.0
H311 H 0.55868 0.59153 0.70324 0.0
H312 H 0.37631 0.57964 0.64092 0.0
H313 H 0.3851 0.55049 0.61345 0.0
H314 H 0.4735 0.64408 0.61393 0.0
H315 H 0.41984 0.50376 0.62615 0.0
H316 H 0.38553 0.5013 0.60937 0.0
H317 H 0.42071 0.50376 0.59474 0.0
H318 H 0.52627 0.64975 0.60816 0.0
H319 H 0.52951 0.62025 0.62603 0.0
H320 H 0.52731 0.61543 0.5947 0.0
H321 H 0.57248 0.46118 0.5333 0.0
H322 H 0.53542 0.39991 0.5342 0.0
H323 H 0.51747 0.4216 0.54788 0.0
H324 H 0.50332 0.40365 0.51881 0.0
H325 H 0.47957 0.4492 0.52937 0.0
H326 H 0.58173 0.52196 0.53731 0.0
H327 H 0.4547 0.46244 0.58493 0.0
H328 H 0.44595 0.48466 0.56351 0.0
H329 H 0.43947 0.44473 0.55594 0.0
H330 H 0.59942 0.5684 0.56308 0.0
H331 H 0.56911 0.5744 0.57831 0.0
H332 H 0.58434 0.54974 0.59087 0.0
H333 H 0.53464 0.49134 0.71852 0.0
H334 H 0.48818 0.55649 0.69284 0.0
H335 H 0.47476 0.57005 0.65556 0.0
H336 H 0.48713 0.54726 0.57492 0.0
H337 H 0.53803 0.48569 0.60076 0.0
H338 H 0.55018 0.47107 0.63808 0.0
H339 H 0.40207 0.65248 0.65019 0.0
H340 H 0.37116 0.61913 0.66676 0.0
H341 H 0.41273 0.62607 0.66576 0.0
C342 C 0.22015 0.60622 0.89918 0.0
C343 C 0.22335 0.59193 0.87562 0.0
C344 C 0.16456 0.55219 0.86684 0.0
C345 C 0.1544 0.57498 0.86202 0.0
C346 C 0.12075 0.56485 0.85851 0.0
C347 C 0.09696 0.53128 0.85936 0.0
C348 C 0.10724 0.50824 0.86346 0.0
C349 C 0.14094 0.51906 0.86717 0.0
C350 C 0.11054 0.58999 0.85408 0.0
C351 C 0.08255 0.4722 0.86417 0.0
C352 C 0.97876 0.51682 0.99644 0.0
C353 C 0.95533 0.48603 0.98195 0.0
C354 C 0.96042 0.49604 0.94008 0.0
C355 C 0.96503 0.47049 0.93193 0.0
C356 C 0.98051 0.47271 0.91058 0.0
C357 C 0.99142 0.501 0.89712 0.0
C358 C 0.98581 0.52632 0.90496 0.0
C359 C 0.96996 0.52329 0.92627 0.0
C360 C 0.98538 0.44493 0.90245 0.0
C361 C 0.99694 0.55673 0.89096 0.0
C362 C 0.8391 0.42978 0.79098 0.0
C363 C 0.8529 0.40936 0.78991 0.0
C364 C 0.88679 0.42236 0.78624 0.0
C365 C 0.90715 0.45639 0.78354 0.0
C366 C 0.89275 0.47651 0.78252 0.0
C367 C 0.85874 0.46282 0.78611 0.0
C368 C 0.90121 0.40007 0.78666 0.0
C369 C 0.91366 0.51277 0.77918 0.0
C370 C 0.13627 0.55369 0.71217 0.0
C371 C 0.11484 0.55736 0.69313 0.0
C372 C 0.06026 0.52014 0.70796 0.0
C373 C 0.04296 0.48738 0.71411 0.0
C374 C 0.02081 0.47713 0.73269 0.0
C375 C 0.01545 0.50023 0.74497 0.0
C376 C 0.03104 0.53293 0.73764 0.0
C377 C 0.05337 0.54258 0.71926 0.0
C378 C 0.00435 0.44203 0.73993 0.0
C379 C 0.02505 0.55799 0.74984 0.0
C380 C 0.06125 0.52013 0.85629 0.0
C381 C 0.04307 0.51617 0.87645 0.0
C382 C 0.00901 0.50426 0.87497 0.0
C383 C 0.99244 0.49575 0.8528 0.0
C384 C 0.95806 0.48274 0.85075 0.0
C385 C 0.942 0.47457 0.82886 0.0
C386 C 0.95973 0.47936 0.80813 0.0
C387 C 0.94361 0.47139 0.78576 0.0
C388 C 0.9621 0.47774 0.76545 0.0
C389 C 0.99648 0.49131 0.76693 0.0
C390 C 0.01279 0.49798 0.78919 0.0
C391 C 0.04711 0.51022 0.79132 0.0
C392 C 0.063 0.51718 0.81326 0.0
C393 C 0.0453 0.5127 0.83392 0.0
C394 C 0.01072 0.50033 0.83219 0.0
C395 C 0.99439 0.49248 0.80982 0.0
C396 C 0.77204 0.40285 0.83003 0.0
C397 C 0.78912 0.39275 0.81173 0.0
O398 O 0.19659 0.56084 0.87155 0.0
O399 O 0.08385 0.52945 0.69149 0.0
O400 O 0.80737 0.41874 0.79726 0.0
O401 O 0.94667 0.49495 0.9611 0.0
H402 H 0.22452 0.60787 0.8611 0.0
H403 H 0.19793 0.60898 0.89909 0.0
H404 H 0.21816 0.59006 0.91378 0.0
H405 H 0.24207 0.63078 0.90266 0.0
H406 H 0.17242 0.60067 0.86115 0.0
H407 H 0.14904 0.50166 0.8707 0.0
H408 H 0.09272 0.58823 0.86747 0.0
H409 H 0.13195 0.61527 0.85457 0.0
H410 H 0.09778 0.58505 0.83663 0.0
H411 H 0.0947 0.45728 0.86627 0.0
H412 H 0.0658 0.4675 0.87905 0.0
H413 H 0.06707 0.4641 0.84777 0.0
H414 H 0.96918 0.47302 0.97847 0.0
H415 H 0.00165 0.53184 0.98659 0.0
H416 H 0.96699 0.53178 0.00014 0.0
H417 H 0.98579 0.51019 0.01334 0.0
H418 H 0.95635 0.44872 0.94216 0.0
H419 H 0.96579 0.54263 0.93259 0.0
H420 H 0.97506 0.4369 0.88431 0.0
H421 H 0.01223 0.45342 0.90205 0.0
H422 H 0.97344 0.42367 0.91409 0.0
H423 H 0.99184 0.57472 0.89991 0.0
H424 H 0.02389 0.56844 0.88793 0.0
H425 H 0.98405 0.55011 0.87351 0.0
H426 H 0.80577 0.38669 0.82199 0.0
H427 H 0.83747 0.38342 0.79251 0.0
H428 H 0.84768 0.47823 0.78641 0.0
H429 H 0.91596 0.40464 0.8032 0.0
H430 H 0.88175 0.3739 0.78565 0.0
H431 H 0.91813 0.40528 0.77181 0.0
H432 H 0.89842 0.52458 0.77676 0.0
H433 H 0.93038 0.52423 0.79478 0.0
H434 H 0.92941 0.51755 0.76367 0.0
H435 H 0.1123 0.57878 0.69807 0.0
H436 H 0.16132 0.5757 0.71315 0.0
H437 H 0.1249 0.55097 0.72958 0.0
H438 H 0.13867 0.53186 0.70844 0.0
H439 H 0.04805 0.47013 0.70501 0.0
H440 H 0.06542 0.56768 0.7139 0.0
H441 H 0.01256 0.44085 0.75811 0.0
H442 H 0.97712 0.43155 0.73995 0.0
H443 H 0.0102 0.42681 0.7281 0.0
H444 H 0.03559 0.58118 0.74021 0.0
H445 H 0.9981 0.54827 0.75174 0.0
H446 H 0.03657 0.5634 0.76774 0.0
H447 H 0.05556 0.52222 0.89355 0.0
H448 H 0.94314 0.47863 0.86605 0.0
H449 H 0.9155 0.46467 0.82847 0.0
H450 H 0.94968 0.47239 0.74835 0.0
H451 H 0.0621 0.51439 0.77605 0.0
H452 H 0.0894 0.52642 0.81381 0.0
H453 H 0.75697 0.38215 0.8416 0.0
H454 H 0.79097 0.42347 0.84113 0.0
H455 H 0.75579 0.41086 0.82158 0.0
C456 C 0.39775 0.80851 0.89545 0.0
C457 C 0.41713 0.80727 0.91704 0.0
C458 C 0.45859 0.86464 0.92682 0.0
C459 C 0.43638 0.8748 0.93406 0.0
C460 C 0.448 0.90708 0.942 0.0
C461 C 0.48244 0.92935 0.94318 0.0
C462 C 0.50479 0.91893 0.93642 0.0
C463 C 0.49249 0.88678 0.92814 0.0
C464 C 0.42355 0.91756 0.94889 0.0
C465 C 0.5417 0.94188 0.93768 0.0
C466 C 0.50723 0.06563 0.82396 0.0
C467 C 0.54038 0.08636 0.83714 0.0
C468 C 0.53274 0.07981 0.87908 0.0
C469 C 0.55649 0.07124 0.88544 0.0
C470 C 0.55252 0.05267 0.90534 0.0
C471 C 0.52424 0.04257 0.9191 0.0
C472 C 0.50109 0.05258 0.91334 0.0
C473 C 0.50589 0.07147 0.89348 0.0
C474 C 0.57816 0.04322 0.91134 0.0
C475 C 0.47081 0.0425 0.92778 0.0
C476 C 0.61997 0.16413 0.05181 0.0
C477 C 0.63113 0.14196 0.04873 0.0
C478 C 0.60917 0.10912 0.04278 0.0
C479 C 0.57498 0.0981 0.04017 0.0
C480 C 0.56332 0.12028 0.04347 0.0
C481 C 0.58599 0.15323 0.04901 0.0
C482 C 0.62257 0.08624 0.03917 0.0
C483 C 0.52697 0.10917 0.04097 0.0
C484 C 0.42751 0.8646 0.10248 0.0
C485 C 0.43935 0.89117 0.12189 0.0
C486 C 0.48318 0.93783 0.10139 0.0
C487 C 0.51693 0.95389 0.09681 0.0
C488 C 0.53009 0.97662 0.07888 0.0
C489 C 0.50895 0.98408 0.06561 0.0
C490 C 0.47496 0.96895 0.0708 0.0
C491 C 0.46234 0.94566 0.08837 0.0
C492 C 0.56647 0.99231 0.07397 0.0
C493 C 0.45179 0.97713 0.05767 0.0
C494 C 0.49532 0.96387 0.95068 0.0
C495 C 0.50266 0.98669 0.93318 0.0
C496 C 0.51786 0.02005 0.93869 0.0
C497 C 0.52658 0.03119 0.96228 0.0
C498 C 0.54399 0.06467 0.96828 0.0
C499 C 0.55273 0.07534 0.99156 0.0
C500 C 0.5434 0.0529 0.00977 0.0
C501 C 0.55183 0.06343 0.03351 0.0
C502 C 0.54029 0.04056 0.05128 0.0
C503 C 0.52199 0.00709 0.04593 0.0
C504 C 0.51567 0.99602 0.02219 0.0
C505 C 0.49997 0.96257 0.01607 0.0
C506 C 0.49364 0.95196 0.99265 0.0
C507 C 0.50203 0.97435 0.97451 0.0
C508 C 0.51793 0.00818 0.98029 0.0
C509 C 0.52555 0.01904 0.00411 0.0
C510 C 0.62457 0.2214 0.0852 0.0
C511 C 0.63848 0.22207 0.06087 0.0
O512 O 0.44873 0.83413 0.91811 0.0
O513 O 0.4719 0.915 0.11834 0.0
O514 O 0.64297 0.19548 0.05764 0.0
O515 O 0.535 0.09578 0.85903 0.0
H516 H 0.40374 0.80693 0.93313 0.0
H517 H 0.39473 0.83029 0.89652 0.0
H518 H 0.41076 0.80971 0.87902 0.0
H519 H 0.37271 0.78649 0.89447 0.0
H520 H 0.41003 0.85796 0.93328 0.0
H521 H 0.50941 0.87872 0.92257 0.0
H522 H 0.42742 0.93871 0.93839 0.0
H523 H 0.3975 0.89763 0.94626 0.0
H524 H 0.42771 0.9256 0.96765 0.0
H525 H 0.55579 0.9292 0.93388 0.0
H526 H 0.54841 0.96137 0.92475 0.0
H527 H 0.54938 0.95381 0.95539 0.0
H528 H 0.55172 0.07062 0.83892 0.0
H529 H 0.51125 0.05832 0.80622 0.0
H530 H 0.49163 0.04312 0.83378 0.0
H531 H 0.49362 0.07917 0.82207 0.0
H532 H 0.57803 0.07892 0.87478 0.0
H533 H 0.48802 0.07874 0.88856 0.0
H534 H 0.56746 0.01663 0.90791 0.0
H535 H 0.60071 0.05648 0.90081 0.0
H536 H 0.58532 0.0482 0.93028 0.0
H537 H 0.45497 0.05197 0.92078 0.0
H538 H 0.45593 0.01545 0.92813 0.0
H539 H 0.47842 0.05165 0.94617 0.0
H540 H 0.62112 0.22151 0.04702 0.0
H541 H 0.65736 0.15061 0.05091 0.0
H542 H 0.57691 0.1701 0.0512 0.0
H543 H 0.61489 0.07425 0.02149 0.0
H544 H 0.64999 0.09899 0.04086 0.0
H545 H 0.6121 0.06677 0.05231 0.0
H546 H 0.52156 0.1289 0.04561 0.0
H547 H 0.51834 0.10077 0.02258 0.0
H548 H 0.51256 0.08813 0.05242 0.0
H549 H 0.42341 0.90242 0.12173 0.0
H550 H 0.40153 0.84529 0.10527 0.0
H551 H 0.42846 0.87514 0.08504 0.0
H552 H 0.44346 0.85332 0.10229 0.0
H553 H 0.5329 0.94793 0.10704 0.0
H554 H 0.43621 0.93388 0.09172 0.0
H555 H 0.57021 0.99103 0.05486 0.0
H556 H 0.57896 0.01847 0.07948 0.0
H557 H 0.57852 0.98059 0.08355 0.0
H558 H 0.42783 0.96791 0.06654 0.0
H559 H 0.46326 0.00395 0.05587 0.0
H560 H 0.44667 0.9659 0.03974 0.0
H561 H 0.4969 0.97839 0.91495 0.0
H562 H 0.55141 0.08301 0.955 0.0
H563 H 0.56646 0.10141 0.99511 0.0
H564 H 0.54604 0.04891 0.0695 0.0
H565 H 0.4927 0.94421 0.0293 0.0
H566 H 0.4817 0.92595 0.98897 0.0
H567 H 0.64171 0.22195 0.09921 0.0
H568 H 0.62105 0.24278 0.08782 0.0
H569 H 0.60025 0.19899 0.08708 0.0
C570 C 0.60161 0.4055 0.05125 0.0
C571 C 0.61764 0.41449 0.07597 0.0
C572 C 0.60278 0.45396 0.0923 0.0
C573 C 0.56867 0.43214 0.09426 0.0
C574 C 0.54767 0.44307 0.10268 0.0
C575 C 0.56109 0.47626 0.10951 0.0
C576 C 0.59557 0.49787 0.10853 0.0
C577 C 0.61588 0.48642 0.09976 0.0
C578 C 0.51103 0.41942 0.10379 0.0
C579 C 0.61089 0.53327 0.11618 0.0
C580 C 0.4473 0.58169 0.99754 0.0
C581 C 0.45551 0.57903 0.02243 0.0
C582 C 0.48819 0.56036 0.04362 0.0
C583 C 0.51985 0.57566 0.05389 0.0
C584 C 0.52724 0.56219 0.07319 0.0
C585 C 0.50252 0.53198 0.08178 0.0
C586 C 0.47061 0.51583 0.07091 0.0
C587 C 0.46368 0.53037 0.05199 0.0
C588 C 0.56161 0.58018 0.08415 0.0
C589 C 0.44403 0.48314 0.07914 0.0
C590 C 0.44556 0.60077 0.20348 0.0
C591 C 0.47994 0.61381 0.20339 0.0
C592 C 0.49352 0.59328 0.20231 0.0
C593 C 0.47225 0.55902 0.20162 0.0
C594 C 0.43776 0.54587 0.20366 0.0
C595 C 0.42483 0.56703 0.20471 0.0
C596 C 0.53052 0.60819 0.20085 0.0
C597 C 0.41452 0.50948 0.20348 0.0
C598 C 0.57864 0.51495 0.31865 0.0
C599 C 0.58668 0.49203 0.30446 0.0
C600 C 0.55018 0.48075 0.26977 0.0
C601 C 0.56927 0.51133 0.25951 0.0
C602 C 0.5574 0.52007 0.23977 0.0
C603 C 0.52574 0.49792 0.23004 0.0
C604 C 0.50666 0.46694 0.24 0.0
C605 C 0.51926 0.4587 0.25967 0.0
C606 C 0.57858 0.55323 0.22947 0.0
C607 C 0.47286 0.44273 0.22996 0.0
C608 C 0.53902 0.48922 0.11567 0.0
C609 C 0.52807 0.50115 0.09741 0.0
C610 C 0.51042 0.51721 0.10188 0.0
C611 C 0.50305 0.52124 0.12524 0.0
C612 C 0.48621 0.53815 0.13042 0.0
C613 C 0.48008 0.54299 0.1535 0.0
C614 C 0.49063 0.5312 0.17233 0.0
C615 C 0.48584 0.53739 0.19588 0.0
C616 C 0.49648 0.52526 0.21421 0.0
C617 C 0.51258 0.50757 0.20967 0.0
C618 C 0.51816 0.50167 0.18621 0.0
C619 C 0.53518 0.48489 0.181 0.0
C620 C 0.54177 0.48045 0.15789 0.0
C621 C 0.53139 0.49244 0.13912 0.0
C622 C 0.51349 0.50871 0.14392 0.0
C623 C 0.50709 0.51353 0.16749 0.0
C624 C 0.41986 0.63254 0.16393 0.0
C625 C 0.44122 0.64537 0.18653 0.0
O626 O 0.62394 0.4453 0.08291 0.0
O627 O 0.56034 0.47177 0.28944 0.0
O628 O 0.43178 0.62007 0.20203 0.0
O629 O 0.48244 0.57443 0.02503 0.0
H630 H 0.60061 0.39624 0.08846 0.0
H631 H 0.57728 0.40433 0.05106 0.0
H632 H 0.61752 0.42391 0.03843 0.0
H633 H 0.59755 0.38118 0.04552 0.0
H634 H 0.55811 0.40681 0.08882 0.0
H635 H 0.64223 0.50297 0.09839 0.0
H636 H 0.49752 0.42679 0.09137 0.0
H637 H 0.50463 0.39396 0.0993 0.0
H638 H 0.50231 0.42017 0.12169 0.0
H639 H 0.63832 0.54642 0.11558 0.0
H640 H 0.60151 0.54565 0.10459 0.0
H641 H 0.60363 0.53514 0.13436 0.0
H642 H 0.43408 0.56304 0.03345 0.0
H643 H 0.45768 0.62996 0.99555 0.0
H644 H 0.45959 0.57125 0.9863 0.0
H645 H 0.4217 0.56063 0.99481 0.0
H646 H 0.53866 0.59856 0.04696 0.0
H647 H 0.43946 0.51799 0.04339 0.0
H648 H 0.5606 0.58049 0.10361 0.0
H649 H 0.5751 0.56736 0.07906 0.0
H650 H 0.57588 0.60574 0.07823 0.0
H651 H 0.42129 0.4727 0.06778 0.0
H652 H 0.45339 0.46569 0.07939 0.0
H653 H 0.43746 0.48579 0.09736 0.0
H654 H 0.46702 0.65479 0.18091 0.0
H655 H 0.4962 0.64002 0.20382 0.0
H656 H 0.39835 0.55724 0.20536 0.0
H657 H 0.53668 0.60232 0.18337 0.0
H658 H 0.5438 0.63515 0.20348 0.0
H659 H 0.53962 0.59763 0.2143 0.0
H660 H 0.38867 0.50312 0.20702 0.0
H661 H 0.41496 0.49884 0.18607 0.0
H662 H 0.42285 0.49814 0.21687 0.0
H663 H 0.60896 0.50689 0.29396 0.0
H664 H 0.59956 0.53077 0.33093 0.0
H665 H 0.57449 0.53108 0.30686 0.0
H666 H 0.55599 0.50072 0.32893 0.0
H667 H 0.59339 0.52876 0.26678 0.0
H668 H 0.50471 0.43513 0.26754 0.0
H669 H 0.58133 0.55065 0.21036 0.0
H670 H 0.5663 0.56798 0.23166 0.0
H671 H 0.60359 0.56674 0.23799 0.0
H672 H 0.46101 0.41967 0.23978 0.0
H673 H 0.45662 0.45365 0.23037 0.0
H674 H 0.47489 0.43695 0.21131 0.0
H675 H 0.53446 0.49896 0.07949 0.0
H676 H 0.47781 0.54811 0.11671 0.0
H677 H 0.46715 0.55635 0.15635 0.0
H678 H 0.49317 0.53057 0.23223 0.0
H679 H 0.54393 0.47531 0.19476 0.0
H680 H 0.55525 0.46766 0.1549 0.0
H681 H 0.39309 0.61944 0.16775 0.0
H682 H 0.42534 0.65298 0.15207 0.0
H683 H 0.42542 0.61512 0.15459 0.0
Mn684 Mn 0.61691 0.38235 0.41389 0.0
Mn685 Mn 0.66449 0.46315 0.42519 0.0
C686 C 0.59888 0.40719 0.43987 0.0
C687 C 0.60901 0.33085 0.4214 0.0
C688 C 0.62251 0.43441 0.38055 0.0
O689 O 0.66118 0.39396 0.40088 0.0
O690 O 0.69332 0.44632 0.41311 0.0
C691 C 0.70524 0.4618 0.46498 0.0
N692 N 0.68373 0.47069 0.45612 0.0
C693 C 0.68346 0.49611 0.49297 0.0
C694 C 0.70584 0.48746 0.50244 0.0
C695 C 0.71673 0.47018 0.48839 0.0
C696 C 0.67307 0.48731 0.46947 0.0
H697 H 0.71349 0.44834 0.45426 0.0
C698 C 0.68908 0.41987 0.40332 0.0
O699 O 0.59914 0.3367 0.40151 0.0
O700 O 0.62176 0.35431 0.43708 0.0
N701 N 0.64007 0.48273 0.43697 0.0
C702 C 0.61709 0.48762 0.42556 0.0
C703 C 0.60286 0.50363 0.43741 0.0
C704 C 0.61256 0.51465 0.46078 0.0
C705 C 0.63657 0.50973 0.47205 0.0
C706 C 0.65009 0.49384 0.45929 0.0
H707 H 0.60944 0.47913 0.40763 0.0
O708 O 0.57818 0.37869 0.43063 0.0
O709 O 0.62968 0.41962 0.43416 0.0
O710 O 0.60778 0.40444 0.38623 0.0
O711 O 0.64498 0.4576 0.39332 0.0
C712 C 0.64709 0.5193 0.4956 0.0
C713 C 0.6705 0.51249 0.50606 0.0
H714 H 0.71458 0.49367 0.52054 0.0
H715 H 0.73384 0.46325 0.49562 0.0
H716 H 0.5843 0.50728 0.4286 0.0
H717 H 0.60122 0.52662 0.46995 0.0
H718 H 0.63694 0.53147 0.50595 0.0
H719 H 0.67803 0.51955 0.52428 0.0
Mn720 Mn 0.23892 0.64375 0.57595 0.0
Mn721 Mn 0.20352 0.56373 0.56092 0.0
C722 C 0.19707 0.62148 0.54787 0.0
C723 C 0.28027 0.69769 0.57211 0.0
C724 C 0.18825 0.58837 0.60571 0.0
O725 O 0.27174 0.63133 0.58853 0.0
O726 O 0.24755 0.57853 0.5766 0.0
C727 C 0.25028 0.56828 0.52468 0.0
N728 N 0.21888 0.55919 0.53097 0.0
C729 C 0.19758 0.53825 0.49194 0.0
C730 C 0.22967 0.54719 0.48508 0.0
C731 C 0.25613 0.56231 0.50152 0.0
C732 C 0.19323 0.5446 0.5153 0.0
H733 H 0.2707 0.58006 0.53723 0.0
C734 C 0.27121 0.60419 0.58676 0.0
O735 O 0.26436 0.68763 0.59147 0.0
O736 O 0.27254 0.67637 0.55508 0.0
N737 N 0.16109 0.54626 0.5455 0.0
C738 C 0.13196 0.54072 0.55461 0.0
C739 C 0.1032 0.52663 0.54023 0.0
C740 C 0.10463 0.51816 0.51671 0.0
C741 C 0.13478 0.52368 0.50782 0.0
C742 C 0.16258 0.53758 0.52304 0.0
H743 H 0.13073 0.5473 0.57265 0.0
O744 O 0.20387 0.64833 0.55907 0.0
O745 O 0.21518 0.60861 0.55335 0.0
O746 O 0.20704 0.61863 0.60194 0.0
O747 O 0.18545 0.56579 0.59166 0.0
C748 C 0.13849 0.51661 0.48433 0.0
C749 C 0.16987 0.5239 0.47639 0.0
H750 H 0.23432 0.54283 0.46719 0.0
H751 H 0.28098 0.56943 0.49632 0.0
H752 H 0.08004 0.5225 0.54721 0.0
H753 H 0.08248 0.50767 0.50559 0.0
H754 H 0.11747 0.50599 0.47213 0.0
H755 H 0.17249 0.51876 0.45821 0.0
Mn756 Mn 0.62025 0.24021 0.73894 0.0
Mn757 Mn 0.67312 0.21093 0.7372 0.0
C758 C 0.61063 0.19965 0.71187 0.0
C759 C 0.60749 0.28048 0.7305 0.0
C760 C 0.61988 0.19094 0.77334 0.0
O761 O 0.66016 0.27374 0.75774 0.0
O762 O 0.69519 0.2545 0.75371 0.0
C763 C 0.7227 0.25964 0.70594 0.0
N764 N 0.70101 0.22797 0.71085 0.0
C765 C 0.71734 0.20867 0.67716 0.0
C766 C 0.74 0.24107 0.6718 0.0
C767 C 0.74253 0.26667 0.68618 0.0
C768 C 0.69795 0.20319 0.6969 0.0
H769 H 0.72492 0.27936 0.71707 0.0
C770 C 0.68829 0.27614 0.76085 0.0
O771 O 0.59603 0.26255 0.74877 0.0
O772 O 0.62548 0.27433 0.71644 0.0
N773 N 0.65623 0.1692 0.72177 0.0
C774 C 0.63305 0.13932 0.72928 0.0
C775 C 0.62742 0.1111 0.71681 0.0
C776 C 0.64602 0.11385 0.69698 0.0
C777 C 0.66978 0.14481 0.68959 0.0
C778 C 0.67441 0.17206 0.70278 0.0
H779 H 0.6189 0.13699 0.74463 0.0
O780 O 0.58706 0.20529 0.71753 0.0
O781 O 0.63979 0.21892 0.72148 0.0
O782 O 0.60762 0.20772 0.76536 0.0
O783 O 0.64501 0.19118 0.76456 0.0
C784 C 0.68928 0.1497 0.66979 0.0
C785 C 0.71295 0.18161 0.66352 0.0
H786 H 0.75542 0.24658 0.65662 0.0
H787 H 0.75987 0.29174 0.68211 0.0
H788 H 0.60899 0.08727 0.7226 0.0
H789 H 0.64201 0.09201 0.68766 0.0
H790 H 0.68619 0.12909 0.65921 0.0
H791 H 0.72758 0.18507 0.64814 0.0
Mn792 Mn 0.41723 0.63468 0.90873 0.0
Mn793 Mn 0.37491 0.55472 0.91962 0.0
C794 C 0.43413 0.61554 0.94007 0.0
C795 C 0.42169 0.68583 0.91225 0.0
C796 C 0.42164 0.58362 0.87897 0.0
O797 O 0.37402 0.61799 0.89034 0.0
O798 O 0.34456 0.56751 0.90432 0.0
C799 C 0.32676 0.55119 0.95432 0.0
N800 N 0.35153 0.54544 0.94825 0.0
C801 C 0.34568 0.516 0.98359 0.0
C802 C 0.32018 0.52171 0.99028 0.0
C803 C 0.31082 0.53953 0.97564 0.0
C804 C 0.36102 0.52869 0.96234 0.0
H805 H 0.3192 0.56448 0.94295 0.0
C806 C 0.34678 0.5916 0.89283 0.0
O807 O 0.43466 0.67839 0.89492 0.0
O808 O 0.40678 0.66373 0.92781 0.0
N809 N 0.40119 0.53931 0.9348 0.0
C810 C 0.42783 0.53807 0.92665 0.0
C811 C 0.44068 0.52156 0.93943 0.0
C812 C 0.42571 0.50605 0.96024 0.0
C813 C 0.39836 0.50771 0.9683 0.0
C814 C 0.38701 0.52502 0.95503 0.0
H815 H 0.43903 0.54929 0.91042 0.0
O816 O 0.45428 0.64319 0.93076 0.0
O817 O 0.40437 0.59998 0.93082 0.0
O818 O 0.43334 0.61341 0.88505 0.0
O819 O 0.39817 0.56034 0.88978 0.0
C820 C 0.38264 0.4939 0.98944 0.0
C821 C 0.35649 0.49827 0.99716 0.0
H822 H 0.30764 0.51254 0.00662 0.0
H823 H 0.29115 0.544 0.98068 0.0
H824 H 0.46188 0.52049 0.93312 0.0
H825 H 0.43566 0.4933 0.97003 0.0
H826 H 0.39099 0.48055 0.00015 0.0
H827 H 0.345 0.48804 0.01363 0.0
Mn828 Mn 0.79293 0.41592 0.07433 0.0
Mn829 Mn 0.83259 0.37628 0.09015 0.0
C830 C 0.83234 0.43851 0.1044 0.0
C831 C 0.74486 0.41873 0.07625 0.0
C832 C 0.84669 0.41584 0.04582 0.0
O833 O 0.76589 0.37097 0.05907 0.0
O834 O 0.78749 0.34433 0.07769 0.0
C835 C 0.79181 0.3365 0.12908 0.0
N836 N 0.82182 0.35857 0.12073 0.0
C837 C 0.84974 0.35747 0.15626 0.0
C838 C 0.81913 0.33476 0.16529 0.0
C839 C 0.79003 0.32438 0.15169 0.0
C840 C 0.8499 0.36906 0.13378 0.0
H841 H 0.76946 0.32815 0.11853 0.0
C842 C 0.76462 0.34469 0.06521 0.0
O843 O 0.76401 0.42987 0.05838 0.0
O844 O 0.75439 0.40733 0.09337 0.0
N845 N 0.87629 0.40368 0.10304 0.0
C846 C 0.90346 0.42764 0.09258 0.0
C847 C 0.93461 0.4408 0.1039 0.0
C848 C 0.93762 0.42892 0.1257 0.0
C849 C 0.90932 0.40434 0.13618 0.0
C850 C 0.87886 0.39246 0.12419 0.0
H851 H 0.90153 0.43641 0.07561 0.0
O852 O 0.82233 0.45588 0.09333 0.0
O853 O 0.81796 0.40772 0.09811 0.0
O854 O 0.82898 0.42863 0.05038 0.0
O855 O 0.84683 0.3938 0.05841 0.0
C856 C 0.90987 0.39238 0.1586 0.0
C857 C 0.88006 0.36919 0.16872 0.0
H858 H 0.81766 0.32519 0.18265 0.0
H859 H 0.76632 0.30687 0.15853 0.0
H860 H 0.95631 0.45987 0.09573 0.0
H861 H 0.96168 0.43921 0.1344 0.0
H862 H 0.93298 0.40142 0.16843 0.0
H863 H 0.88073 0.36063 0.18613 0.0
Mn864 Mn 0.38045 0.77369 0.24455 0.0
Mn865 Mn 0.46298 0.8197 0.25314 0.0
C866 C 0.40129 0.81543 0.27227 0.0
C867 C 0.33121 0.7261 0.25148 0.0
C868 C 0.42579 0.8263 0.2113 0.0
O869 O 0.39833 0.74739 0.22863 0.0
O870 O 0.45233 0.77652 0.23904 0.0
C871 C 0.47302 0.78149 0.2897 0.0
N872 N 0.47592 0.81014 0.2826 0.0
C873 C 0.50134 0.83675 0.31964 0.0
C874 C 0.49883 0.80758 0.32729 0.0
C875 C 0.48457 0.77983 0.31226 0.0
C876 C 0.48963 0.83701 0.29691 0.0
H877 H 0.46191 0.76005 0.27824 0.0
C878 C 0.42739 0.75132 0.22949 0.0
O879 O 0.33512 0.7424 0.23252 0.0
O880 O 0.35582 0.73776 0.26657 0.0
N881 N 0.47649 0.86183 0.26695 0.0
C882 C 0.47532 0.88749 0.25742 0.0
C883 C 0.48763 0.91684 0.27051 0.0
C884 C 0.50116 0.91959 0.29319 0.0
C885 C 0.50246 0.89299 0.30253 0.0
C886 C 0.49007 0.86444 0.28858 0.0
H887 H 0.46482 0.88551 0.24004 0.0
O888 O 0.37129 0.80351 0.26394 0.0
O889 O 0.41782 0.80193 0.2645 0.0
O890 O 0.39689 0.80608 0.21804 0.0
O891 O 0.45215 0.83204 0.22254 0.0
C892 C 0.51488 0.89346 0.32532 0.0
C893 C 0.51431 0.86536 0.33387 0.0
H894 H 0.50748 0.80613 0.34474 0.0
H895 H 0.48238 0.75718 0.31808 0.0
H896 H 0.48647 0.93724 0.2632 0.0
H897 H 0.51025 0.94214 0.30334 0.0
H898 H 0.52445 0.91514 0.33655 0.0
H899 H 0.52348 0.86586 0.35154 0.0
C900 C 0.24186 0.65862 0.24499 0.0
C901 C 0.23963 0.6356 0.26132 0.0
C902 C 0.27153 0.6878 0.24203 0.0
C903 C 0.30014 0.69527 0.25538 0.0
H904 H 0.22043 0.65393 0.23434 0.0
H905 H 0.27194 0.70468 0.22922 0.0
S906 S 0.30785 0.64284 0.29993 0.0
N907 N 0.26891 0.62188 0.29055 0.0
N908 N 0.32468 0.67701 0.28523 0.0
C909 C 0.29837 0.67252 0.27176 0.0
C910 C 0.26816 0.6426 0.27463 0.0
C911 C 0.61706 0.26626 0.45375 0.0
C912 C 0.62899 0.25341 0.43653 0.0
C913 C 0.6082 0.28967 0.44826 0.0
C914 C 0.61063 0.30093 0.4253 0.0
H915 H 0.61613 0.25938 0.47189 0.0
H916 H 0.60083 0.30014 0.46234 0.0
S917 S 0.63951 0.2746 0.37359 0.0
N918 N 0.64205 0.25325 0.39537 0.0
N919 N 0.62473 0.29687 0.38501 0.0
C920 C 0.62089 0.28717 0.40763 0.0
C921 C 0.63036 0.26359 0.41327 0.0
C922 C 0.35778 0.63094 0.61008 0.0
C923 C 0.35442 0.60254 0.62022 0.0
C924 C 0.33085 0.63104 0.59902 0.0
C925 C 0.29959 0.60258 0.59721 0.0
H926 H 0.38132 0.65347 0.6111 0.0
H927 H 0.33456 0.6537 0.59189 0.0
S928 S 0.27816 0.52123 0.6195 0.0
N929 N 0.31764 0.54481 0.6269 0.0
N930 N 0.26713 0.54485 0.60565 0.0
C931 C 0.29615 0.57367 0.60644 0.0
C932 C 0.32351 0.57368 0.61804 0.0
C933 C 0.76148 0.33262 0.80058 0.0
C934 C 0.76401 0.36323 0.79733 0.0
C935 C 0.73737 0.30457 0.78835 0.0
C936 C 0.71453 0.30607 0.77281 0.0
H937 H 0.77809 0.33027 0.81284 0.0
H938 H 0.73607 0.28145 0.79154 0.0
S939 S 0.71202 0.38054 0.75675 0.0
N940 N 0.74278 0.39357 0.77629 0.0
N941 N 0.69704 0.3408 0.75374 0.0
C942 C 0.71713 0.33657 0.76906 0.0
C943 C 0.74195 0.36515 0.78121 0.0
C944 C 0.40015 0.75035 0.93045 0.0
C945 C 0.41965 0.77652 0.9159 0.0
C946 C 0.40151 0.72142 0.92943 0.0
C947 C 0.42213 0.71735 0.91363 0.0
H948 H 0.38357 0.75217 0.94267 0.0
H949 H 0.3858 0.70192 0.9409 0.0
S950 S 0.47825 0.77857 0.87173 0.0
N951 N 0.46041 0.79658 0.88528 0.0
N952 N 0.46274 0.74214 0.8832 0.0
C953 C 0.44179 0.74332 0.89897 0.0
C954 C 0.44056 0.77286 0.90011 0.0
C955 C 0.67765 0.43975 0.0649 0.0
C956 C 0.65021 0.41469 0.07612 0.0
C957 C 0.7082 0.44086 0.06494 0.0
C958 C 0.71256 0.41723 0.07649 0.0
H959 H 0.67548 0.45873 0.05606 0.0
H960 H 0.72865 0.46061 0.05614 0.0
S961 S 0.64809 0.34495 0.10662 0.0
N962 N 0.62897 0.36441 0.09765 0.0
N963 N 0.68663 0.36694 0.09816 0.0
C964 C 0.68531 0.39174 0.08743 0.0
C965 C 0.65406 0.39032 0.08709 0.0
C966 C 0.34951 0.7836 0.58652 0.0
C967 C 0.35198 0.8002 0.56566 0.0
C968 C 0.32645 0.75032 0.58841 0.0
C969 C 0.30535 0.73227 0.56939 0.0
H970 H 0.36511 0.79668 0.60169 0.0
H971 H 0.32511 0.73864 0.60489 0.0
S972 S 0.30007 0.76398 0.51138 0.0
N973 N 0.32958 0.79601 0.52599 0.0
N974 N 0.28744 0.73315 0.52932 0.0
C975 C 0.30754 0.74829 0.5484 0.0
C976 C 0.33044 0.78236 0.54661 0.0
C977 C 0.58174 0.33751 0.70383 0.0
C978 C 0.58868 0.36044 0.72234 0.0
C979 C 0.58914 0.31231 0.70613 0.0
C980 C 0.6025 0.30849 0.72727 0.0
H981 H 0.56998 0.33861 0.68761 0.0
H982 H 0.58316 0.29496 0.69166 0.0
S983 S 0.62609 0.36193 0.78063 0.0
N984 N 0.61119 0.37815 0.76205 0.0
N985 N 0.62334 0.32977 0.76669 0.0
C986 C 0.60983 0.3312 0.74575 0.0
C987 C 0.60329 0.35736 0.74321 0.0
C988 C 0.25532 0.56336 0.88635 0.0
C989 C 0.25499 0.59027 0.87642 0.0
C990 C 0.28493 0.56322 0.89016 0.0
C991 C 0.31566 0.59025 0.88465 0.0
H992 H 0.2326 0.5426 0.892 0.0
H993 H 0.28368 0.54222 0.89851 0.0
S994 S 0.32813 0.66661 0.8577 0.0
N995 N 0.28773 0.64428 0.86057 0.0
N996 N 0.34357 0.64433 0.86777 0.0
C997 C 0.31557 0.61697 0.874 0.0
C998 C 0.28528 0.61696 0.87002 0.0
C999 C 0.70089 0.25458 0.06695 0.0
C1000 C 0.67152 0.25325 0.05893 0.0
C1001 C 0.73115 0.28387 0.06752 0.0
C1002 C 0.73338 0.3133 0.06051 0.0
H1003 H 0.70041 0.23297 0.07346 0.0
H1004 H 0.75273 0.28352 0.0744 0.0
S1005 S 0.66341 0.32298 0.03836 0.0
N1006 N 0.64643 0.28376 0.04381 0.0
N1007 N 0.70315 0.33898 0.04495 0.0
C1008 C 0.70423 0.31219 0.052 0.0
C1009 C 0.67339 0.28223 0.05135 0.0
C1010 C 0.40721 0.66881 0.20335 0.0
C1011 C 0.43842 0.67291 0.19823 0.0
C1012 C 0.40405 0.69428 0.21335 0.0
C1013 C 0.43199 0.72479 0.21923 0.0
H1014 H 0.38492 0.64578 0.19945 0.0
H1015 H 0.37934 0.6898 0.2166 0.0
S1016 S 0.51962 0.74677 0.21202 0.0
N1017 N 0.498 0.70895 0.20149 0.0
N1018 N 0.49217 0.75676 0.22064 0.0
C1019 C 0.46347 0.72876 0.21518 0.0
C1020 C 0.46664 0.70285 0.20472 0.0
C1021 C 0.74367 0.38598 0.3857 0.0
C1022 C 0.76413 0.40818 0.36898 0.0
C1023 C 0.72049 0.39088 0.39763 0.0
C1024 C 0.7175 0.41858 0.39376 0.0
H1025 H 0.74469 0.36398 0.38888 0.0
H1026 H 0.70411 0.37237 0.4095 0.0
S1027 S 0.76673 0.48531 0.3533 0.0
N1028 N 0.7809 0.45975 0.35005 0.0
N1029 N 0.73784 0.46934 0.37317 0.0
C1030 C 0.73897 0.44192 0.37817 0.0
C1031 C 0.76217 0.43662 0.3656 0.0
C1032 C 0.16977 0.60101 0.48419 0.0
C1033 C 0.1377 0.59675 0.48394 0.0
C1034 C 0.18862 0.60855 0.50508 0.0
C1035 C 0.17594 0.61172 0.52651 0.0
H1036 H 0.18049 0.59876 0.46803 0.0
H1037 H 0.21343 0.61219 0.50444 0.0
S1038 S 0.09508 0.60644 0.53534 0.0
N1039 N 0.09529 0.59903 0.50694 0.0
N1040 N 0.1308 0.61264 0.54626 0.0
C1041 C 0.14456 0.60876 0.52652 0.0
C1042 C 0.12534 0.60126 0.50524 0.0
C1043 C 0.56971 0.11832 0.67915 0.0
C1044 C 0.58714 0.1252 0.65811 0.0
C1045 C 0.57769 0.14257 0.69653 0.0
C1046 C 0.60402 0.17441 0.69382 0.0
H1047 H 0.54968 0.09386 0.6822 0.0
H1048 H 0.56348 0.13625 0.71238 0.0
S1049 S 0.65573 0.20641 0.64155 0.0
N1050 N 0.63143 0.16711 0.63537 0.0
N1051 N 0.64553 0.21271 0.66794 0.0
C1052 C 0.62126 0.18204 0.67281 0.0
C1053 C 0.61326 0.15737 0.65506 0.0
C1054 C 0.44172 0.53286 0.83718 0.0
C1055 C 0.46886 0.55634 0.82489 0.0
C1056 C 0.42611 0.54197 0.854 0.0
C1057 C 0.43712 0.57506 0.85949 0.0
H1058 H 0.43281 0.5071 0.83409 0.0
H1059 H 0.40568 0.52273 0.86314 0.0
S1060 S 0.50716 0.64624 0.83189 0.0
N1061 N 0.506 0.61416 0.81905 0.0
N1062 N 0.47671 0.63151 0.85061 0.0
C1063 C 0.46399 0.59889 0.84699 0.0
C1064 C 0.47988 0.58951 0.8298 0.0
C1065 C 0.90093 0.47412 0.99944 0.0
C1066 C 0.92465 0.46458 0.99569 0.0
C1067 C 0.87471 0.45709 0.01462 0.0
C1068 C 0.87114 0.42982 0.02678 0.0
H1069 H 0.90337 0.49569 0.99122 0.0
H1070 H 0.85793 0.46629 0.01753 0.0
S1071 S 0.9252 0.39321 0.0213 0.0
N1072 N 0.94183 0.42499 0.00414 0.0
N1073 N 0.89247 0.39261 0.03237 0.0
C1074 C 0.8938 0.41902 0.02218 0.0
C1075 C 0.92059 0.43653 0.0068 0.0
C1076 C 0.46257 0.8735 0.15582 0.0
C1077 C 0.43623 0.87596 0.14566 0.0
C1078 C 0.45916 0.85801 0.17724 0.0
C1079 C 0.42904 0.84366 0.1891 0.0
H1080 H 0.48597 0.88337 0.14711 0.0
H1081 H 0.48015 0.85671 0.18425 0.0
S1082 S 0.3522 0.84259 0.16946 0.0
N1083 N 0.37892 0.86229 0.14884 0.0
N1084 N 0.37229 0.83296 0.1889 0.0
C1085 C 0.40242 0.84574 0.17901 0.0
C1086 C 0.40604 0.86179 0.15734 0.0
C1087 C 0.62813 0.48385 0.32774 0.0
C1088 C 0.59481 0.47226 0.32125 0.0
C1089 C 0.63682 0.47005 0.34607 0.0
C1090 C 0.61258 0.44399 0.35868 0.0
H1091 H 0.64768 0.50478 0.31924 0.0
H1092 H 0.66276 0.48067 0.35098 0.0
S1093 S 0.52187 0.40398 0.34856 0.0
N1094 N 0.53739 0.4326 0.32871 0.0
N1095 N 0.55392 0.40636 0.36311 0.0
C1096 C 0.57923 0.43113 0.35184 0.0
C1097 C 0.57029 0.44541 0.33322 0.0
C1098 C 0.42962 0.84788 0.33423 0.0
C1099 C 0.42862 0.87713 0.33468 0.0
C1100 C 0.42132 0.82835 0.31376 0.0
C1101 C 0.41207 0.83754 0.29296 0.0
H1102 H 0.43655 0.83985 0.34993 0.0
H1103 H 0.42179 0.8057 0.31428 0.0
S1104 S 0.40233 0.90982 0.2851 0.0
N1105 N 0.41511 0.91293 0.31272 0.0
N1106 N 0.39998 0.87617 0.27416 0.0
C1107 C 0.40986 0.866 0.29323 0.0
C1108 C 0.41817 0.88591 0.31408 0.0
C1109 C 0.59231 0.43573 0.50066 0.0
C1110 C 0.56488 0.44038 0.49838 0.0
C1111 C 0.60365 0.42569 0.48143 0.0
C1112 C 0.58823 0.42034 0.4592 0.0
H1113 H 0.60478 0.43935 0.51757 0.0
H1114 H 0.62433 0.42162 0.48405 0.0
S1115 S 0.51405 0.42621 0.44399 0.0
N1116 N 0.52126 0.4366 0.47218 0.0
N1117 N 0.54319 0.41823 0.436 0.0
C1118 C 0.56036 0.42398 0.45667 0.0
C1119 C 0.54863 0.43405 0.47624 0.0
C1120 C 0.15006 0.5962 0.66215 0.0
C1121 C 0.13183 0.56391 0.66973 0.0
C1122 C 0.16789 0.60368 0.64146 0.0
C1123 C 0.16854 0.57922 0.62743 0.0
H1124 H 0.15082 0.616 0.67247 0.0
H1125 H 0.1814 0.62901 0.63654 0.0
S1126 S 0.12575 0.49068 0.64002 0.0
N1127 N 0.1161 0.50724 0.66199 0.0
N1128 N 0.14947 0.52109 0.62297 0.0
C1129 C 0.15043 0.5467 0.63485 0.0
C1130 C 0.13225 0.53913 0.65602 0.0
C1131 C 0.58984 0.11697 0.81162 0.0
C1132 C 0.56307 0.11607 0.82326 0.0
C1133 C 0.60919 0.14227 0.7966 0.0
C1134 C 0.60223 0.16749 0.79219 0.0
H1135 H 0.59538 0.09746 0.81366 0.0
H1136 H 0.62894 0.1412 0.78768 0.0
S1137 S 0.53689 0.17821 0.82037 0.0
N1138 N 0.53227 0.14398 0.83103 0.0
N1139 N 0.56825 0.19139 0.80248 0.0
C1140 C 0.57644 0.1677 0.80461 0.0
C1141 C 0.55694 0.14203 0.82014 0.0
C1142 C 0.4227 0.60669 0.01737 0.0
C1143 C 0.46474 0.61219 0.02362 0.0
C1144 C 0.41131 0.60286 0.98641 0.0
C1145 C 0.4417 0.61067 0.96418 0.0
H1146 H 0.40447 0.60007 0.0308 0.0
H1147 H 0.38678 0.59772 0.98127 0.0
S1148 S 0.54101 0.64123 0.97596 0.0
N1149 N 0.52989 0.63702 0.00429 0.0
N1150 N 0.5092 0.63247 0.95711 0.0
C1151 C 0.4844 0.62457 0.97195 0.0
C1152 C 0.49809 0.62909 0.00171 0.0
C1153 C 0.85286 0.44632 0.18165 0.0
C1154 C 0.88825 0.48933 0.18127 0.0
C1155 C 0.83691 0.42768 0.15281 0.0
C1156 C 0.85063 0.45201 0.12667 0.0
H1157 H 0.8463 0.43201 0.19733 0.0
H1158 H 0.81758 0.40244 0.15142 0.0
S1159 S 0.91615 0.5517 0.12455 0.0
N1160 N 0.91827 0.54777 0.15383 0.0
N1161 N 0.88951 0.51613 0.11056 0.0
C1162 C 0.87844 0.49563 0.12853 0.0
C1163 C 0.89542 0.51618 0.15592 0.0
loop_
_geom_bond_atom_site_label_1
_geom_bond_atom_site_label_2
_geom_bond_distance
_geom_bond_site_symmetry_2
_ccdc_geom_bond_type
C0 C1 1.560 . S
C0 H61 0.959 . S
C0 H62 0.959 . S
C0 H63 0.960 . S
C1 C0 1.560 . S
C1 O56 1.426 . S
C1 H60 0.980 . S
C2 C3 1.407 . S
C2 C7 1.418 . S
C2 O56 1.334 . S
C3 C2 1.407 . S
C3 C4 1.360 . S
C3 H64 0.929 . S
C4 C3 1.360 . S
C4 C5 1.401 . S
C4 C8 1.527 . S
C5 C4 1.401 . S
C5 C6 1.405 . S
C5 C38 1.587 . S
C6 C5 1.405 . S
C6 C7 1.332 . S
C6 C9 1.496 . S
C7 C2 1.418 . S
C7 C6 1.332 . S
C7 H65 0.929 . S
C8 C4 1.527 . S
C8 H66 0.959 . S
C8 H67 0.961 . S
C8 H68 0.961 . S
C9 C6 1.496 . S
C9 H69 0.960 . S
C9 H70 0.960 . S
C9 H71 0.961 . S
C10 C11 1.517 . S
C10 H73 0.961 . S
C10 H74 0.960 . S
C10 H75 0.959 . S
C11 C10 1.517 . S
C11 O59 1.468 . S
C11 H72 0.980 . S
C12 C13 1.349 . S
C12 C17 1.367 . S
C12 O59 1.408 . S
C13 C12 1.349 . S
C13 C14 1.407 . S
C13 H76 0.930 . S
C14 C13 1.407 . S
C14 C15 1.449 . S
C14 C18 1.535 . S
C15 C14 1.449 . S
C15 C16 1.384 . S
C15 C40 1.553 1_655 S
C16 C15 1.384 . S
C16 C17 1.364 . S
C16 C19 1.450 . S
C17 C12 1.367 . S
C17 C16 1.364 . S
C17 H77 0.931 . S
C18 C14 1.535 . S
C18 H78 0.959 1_655 S
C18 H79 0.961 . S
C18 H80 0.959 . S
C19 C16 1.450 . S
C19 H81 0.960 . S
C19 H82 0.960 1_655 S
C19 H83 0.960 . S
C20 C21 1.309 . S
C20 C25 1.304 . S
C20 O58 1.435 . S
C21 C20 1.309 . S
C21 C22 1.476 . S
C21 H85 0.930 . S
C22 C21 1.476 . S
C22 C23 1.400 . S
C22 C26 1.567 . S
C23 C22 1.400 . S
C23 C24 1.373 . S
C23 C45 1.432 . S
C24 C23 1.373 . S
C24 C25 1.339 . S
C24 C27 1.530 . S
C25 C20 1.304 . S
C25 C24 1.339 . S
C25 H86 0.930 . S
C26 C22 1.567 . S
C26 H87 0.961 . S
C26 H88 0.960 . S
C26 H89 0.958 . S
C27 C24 1.530 . S
C27 H90 0.961 . S
C27 H91 0.960 . S
C27 H92 0.960 . S
C28 C29 1.530 . S
C28 H94 0.961 . S
C28 H95 0.961 . S
C28 H96 0.959 . S
C29 C28 1.530 . S
C29 O57 1.412 . S
C29 H93 0.980 . S
C30 C31 1.288 . S
C30 C35 1.377 . S
C30 O57 1.393 . S
C31 C30 1.288 . S
C31 C32 1.369 . S
C31 H97 0.932 . S
C32 C31 1.369 . S
C32 C33 1.398 . S
C32 C36 1.527 . S
C33 C32 1.398 . S
C33 C34 1.380 . S
C33 C47 1.497 . S
C34 C33 1.380 . S
C34 C35 1.383 . S
C34 C37 1.603 . S
C35 C30 1.377 . S
C35 C34 1.383 . S
C35 H98 0.929 . S
C36 C32 1.527 . S
C36 H99 0.961 . S
C36 H100 0.959 1_455 S
C36 H101 0.959 . S
C37 C34 1.603 . S
C37 H102 0.960 . S
C37 H103 0.962 . S
C37 H104 0.961 . S
C38 C5 1.587 . S
C38 C39 1.360 . S
C38 C51 1.412 . S
C39 C38 1.360 . S
C39 C40 1.365 . S
C39 H105 0.929 . S
C40 C15 1.553 1_455 S
C40 C39 1.365 . S
C40 C41 1.404 1_455 S
C41 C40 1.404 1_655 S
C41 C42 1.395 . S
C41 C52 1.451 1_655 S
C42 C41 1.395 . S
C42 C43 1.322 . S
C42 H106 0.930 . S
C43 C42 1.322 . S
C43 C44 1.459 . S
C43 H107 0.929 . S
C44 C43 1.459 . S
C44 C45 1.445 . S
C44 C53 1.395 1_655 S
C45 C23 1.432 . S
C45 C44 1.445 . S
C45 C46 1.370 . S
C46 C45 1.370 . S
C46 C47 1.438 1_655 S
C46 H108 0.930 . S
C47 C33 1.497 . S
C47 C46 1.438 1_455 S
C47 C48 1.360 . S
C48 C47 1.360 . S
C48 C49 1.401 . S
C48 C53 1.446 . S
C49 C48 1.401 . S
C49 C50 1.347 . S
C49 H109 0.929 . S
C50 C49 1.347 . S
C50 C51 1.455 . S
C50 H110 0.930 . S
C51 C38 1.412 . S
C51 C50 1.455 . S
C51 C52 1.331 . S
C52 C41 1.451 1_455 S
C52 C51 1.331 . S
C52 C53 1.497 . S
C53 C44 1.395 1_455 S
C53 C48 1.446 . S
C53 C52 1.497 . S
C54 C55 1.582 . S
C54 H111 0.962 . S
C54 H112 0.959 . S
C54 H113 0.958 . S
C55 C54 1.582 . S
C55 O58 1.458 . S
C55 H84 0.980 . S
O56 C1 1.426 . S
O56 C2 1.334 . S
O57 C29 1.412 . S
O57 C30 1.393 . S
O58 C20 1.435 . S
O58 C55 1.458 . S
O59 C11 1.468 . S
O59 C12 1.408 . S
H60 C1 0.980 . S
H61 C0 0.959 . S
H62 C0 0.959 . S
H63 C0 0.960 . S
H64 C3 0.929 . S
H65 C7 0.929 . S
H66 C8 0.959 . S
H67 C8 0.961 . S
H68 C8 0.961 . S
H69 C9 0.960 . S
H70 C9 0.960 . S
H71 C9 0.961 . S
H72 C11 0.980 . S
H73 C10 0.961 . S
H74 C10 0.960 . S
H75 C10 0.959 . S
H76 C13 0.930 . S
H77 C17 0.931 . S
H78 C18 0.959 1_455 S
H79 C18 0.961 . S
H80 C18 0.959 . S
H81 C19 0.960 . S
H82 C19 0.960 1_455 S
H83 C19 0.960 . S
H84 C55 0.980 . S
H85 C21 0.930 . S
H86 C25 0.930 . S
H87 C26 0.961 . S
H88 C26 0.960 . S
H89 C26 0.958 . S
H90 C27 0.961 . S
H91 C27 0.960 . S
H92 C27 0.960 . S
H93 C29 0.980 . S
H94 C28 0.961 . S
H95 C28 0.961 . S
H96 C28 0.959 . S
H97 C31 0.932 . S
H98 C35 0.929 . S
H99 C36 0.961 . S
H100 C36 0.959 1_655 S
H101 C36 0.959 . S
H102 C37 0.960 . S
H103 C37 0.962 . S
H104 C37 0.961 . S
H105 C39 0.929 . S
H106 C42 0.930 . S
H107 C43 0.929 . S
H108 C46 0.930 . S
H109 C49 0.929 . S
H110 C50 0.930 . S
H111 C54 0.962 . S
H112 C54 0.959 . S
H113 C54 0.958 . S
C114 C115 1.560 . S
C114 H175 0.959 . S
C114 H176 0.959 . S
C114 H177 0.960 . S
C115 C114 1.560 . S
C115 O170 1.426 . S
C115 H174 0.980 . S
C116 C117 1.407 . S
C116 C121 1.418 . S
C116 O170 1.334 . S
C117 C116 1.407 . S
C117 C118 1.360 . S
C117 H178 0.929 . S
C118 C117 1.360 . S
C118 C119 1.401 . S
C118 C122 1.527 . S
C119 C118 1.401 . S
C119 C120 1.405 . S
C119 C152 1.587 . S
C120 C119 1.405 . S
C120 C121 1.332 . S
C120 C123 1.496 . S
C121 C116 1.418 . S
C121 C120 1.332 . S
C121 H179 0.929 . S
C122 C118 1.527 . S
C122 H180 0.959 . S
C122 H181 0.961 . S
C122 H182 0.961 . S
C123 C120 1.496 . S
C123 H183 0.960 . S
C123 H184 0.960 . S
C123 H185 0.961 . S
C124 C125 1.517 . S
C124 H187 0.961 . S
C124 H188 0.960 . S
C124 H189 0.959 . S
C125 C124 1.517 . S
C125 O173 1.468 . S
C125 H186 0.980 . S
C126 C127 1.349 . S
C126 C131 1.367 . S
C126 O173 1.408 . S
C127 C126 1.349 . S
C127 C128 1.407 . S
C127 H190 0.930 . S
C128 C127 1.407 . S
C128 C129 1.449 . S
C128 C132 1.535 . S
C129 C128 1.449 . S
C129 C130 1.384 . S
C129 C154 1.553 . S
C130 C129 1.384 . S
C130 C131 1.364 . S
C130 C133 1.450 . S
C131 C126 1.367 . S
C131 C130 1.364 . S
C131 H191 0.931 . S
C132 C128 1.535 . S
C132 H192 0.959 . S
C132 H193 0.961 . S
C132 H194 0.959 . S
C133 C130 1.450 . S
C133 H195 0.960 . S
C133 H196 0.960 . S
C133 H197 0.960 . S
C134 C135 1.309 . S
C134 C139 1.304 . S
C134 O172 1.435 . S
C135 C134 1.309 . S
C135 C136 1.476 . S
C135 H199 0.930 . S
C136 C135 1.476 . S
C136 C137 1.400 . S
C136 C140 1.567 . S
C137 C136 1.400 . S
C137 C138 1.373 . S
C137 C159 1.432 . S
C138 C137 1.373 . S
C138 C139 1.339 . S
C138 C141 1.530 . S
C139 C134 1.304 . S
C139 C138 1.339 . S
C139 H200 0.930 . S
C140 C136 1.567 . S
C140 H201 0.961 . S
C140 H202 0.960 . S
C140 H203 0.958 . S
C141 C138 1.530 . S
C141 H204 0.961 . S
C141 H205 0.960 . S
C141 H206 0.960 . S
C142 C143 1.530 . S
C142 H208 0.961 . S
C142 H209 0.961 . S
C142 H210 0.959 . S
C143 C142 1.530 . S
C143 O171 1.412 . S
C143 H207 0.980 . S
C144 C145 1.288 . S
C144 C149 1.377 . S
C144 O171 1.393 . S
C145 C144 1.288 . S
C145 C146 1.369 . S
C145 H211 0.932 . S
C146 C145 1.369 . S
C146 C147 1.398 . S
C146 C150 1.527 1_565 S
C147 C146 1.398 . S
C147 C148 1.380 . S
C147 C161 1.497 1_565 S
C148 C147 1.380 . S
C148 C149 1.383 . S
C148 C151 1.603 . S
C149 C144 1.377 . S
C149 C148 1.383 . S
C149 H212 0.929 . S
C150 C146 1.527 1_545 S
C150 H213 0.961 . S
C150 H214 0.959 . S
C150 H215 0.959 1_545 S
C151 C148 1.603 . S
C151 H216 0.960 . S
C151 H217 0.962 . S
C151 H218 0.961 . S
C152 C119 1.587 . S
C152 C153 1.360 . S
C152 C165 1.412 . S
C153 C152 1.360 . S
C153 C154 1.365 1_565 S
C153 H219 0.929 . S
C154 C129 1.553 . S
C154 C153 1.365 1_545 S
C154 C155 1.404 . S
C155 C154 1.404 . S
C155 C156 1.395 . S
C155 C166 1.451 . S
C156 C155 1.395 . S
C156 C157 1.322 . S
C156 H220 0.930 . S
C157 C156 1.322 . S
C157 C158 1.459 . S
C157 H221 0.929 . S
C158 C157 1.459 . S
C158 C159 1.445 . S
C158 C167 1.395 . S
C159 C137 1.432 . S
C159 C158 1.445 . S
C159 C160 1.370 . S
C160 C159 1.370 . S
C160 C161 1.438 . S
C160 H222 0.930 . S
C161 C147 1.497 1_545 S
C161 C160 1.438 . S
C161 C162 1.360 1_545 S
C162 C161 1.360 1_565 S
C162 C163 1.401 . S
C162 C167 1.446 1_565 S
C163 C162 1.401 . S
C163 C164 1.347 . S
C163 H223 0.929 . S
C164 C163 1.347 . S
C164 C165 1.455 . S
C164 H224 0.930 . S
C165 C152 1.412 . S
C165 C164 1.455 . S
C165 C166 1.331 1_565 S
C166 C155 1.451 . S
C166 C165 1.331 1_545 S
C166 C167 1.497 . S
C167 C158 1.395 . S
C167 C162 1.446 1_545 S
C167 C166 1.497 . S
C168 C169 1.582 . S
C168 H225 0.962 . S
C168 H226 0.959 . S
C168 H227 0.958 . S
C169 C168 1.582 . S
C169 O172 1.458 . S
C169 H198 0.980 . S
O170 C115 1.426 . S
O170 C116 1.334 . S
O171 C143 1.412 . S
O171 C144 1.393 . S
O172 C134 1.435 . S
O172 C169 1.458 . S
O173 C125 1.468 . S
O173 C126 1.408 . S
H174 C115 0.980 . S
H175 C114 0.959 . S
H176 C114 0.959 . S
H177 C114 0.960 . S
H178 C117 0.929 . S
H179 C121 0.929 . S
H180 C122 0.959 . S
H181 C122 0.961 . S
H182 C122 0.961 . S
H183 C123 0.960 . S
H184 C123 0.960 . S
H185 C123 0.961 . S
H186 C125 0.980 . S
H187 C124 0.961 . S
H188 C124 0.960 . S
H189 C124 0.959 . S
H190 C127 0.930 . S
H191 C131 0.931 . S
H192 C132 0.959 . S
H193 C132 0.961 . S
H194 C132 0.959 . S
H195 C133 0.960 . S
H196 C133 0.960 . S
H197 C133 0.960 . S
H198 C169 0.980 . S
H199 C135 0.930 . S
H200 C139 0.930 . S
H201 C140 0.961 . S
H202 C140 0.960 . S
H203 C140 0.958 . S
H204 C141 0.961 . S
H205 C141 0.960 . S
H206 C141 0.960 . S
H207 C143 0.980 . S
H208 C142 0.961 . S
H209 C142 0.961 . S
H210 C142 0.959 . S
H211 C145 0.932 . S
H212 C149 0.929 . S
H213 C150 0.961 . S
H214 C150 0.959 . S
H215 C150 0.959 1_565 S
H216 C151 0.960 . S
H217 C151 0.962 . S
H218 C151 0.961 . S
H219 C153 0.929 . S
H220 C156 0.930 . S
H221 C157 0.929 . S
H222 C160 0.930 . S
H223 C163 0.929 . S
H224 C164 0.930 . S
H225 C168 0.962 . S
H226 C168 0.959 . S
H227 C168 0.958 . S
C228 C229 1.560 . S
C228 H289 0.959 . S
C228 H290 0.959 . S
C228 H291 0.960 . S
C229 C228 1.560 . S
C229 O284 1.426 . S
C229 H288 0.980 . S
C230 C231 1.407 . S
C230 C235 1.418 . S
C230 O284 1.334 . S
C231 C230 1.407 . S
C231 C232 1.360 . S
C231 H292 0.929 . S
C232 C231 1.360 . S
C232 C233 1.401 . S
C232 C236 1.527 . S
C233 C232 1.401 . S
C233 C234 1.405 . S
C233 C266 1.587 . S
C234 C233 1.405 . S
C234 C235 1.332 . S
C234 C237 1.496 . S
C235 C230 1.418 . S
C235 C234 1.332 . S
C235 H293 0.929 . S
C236 C232 1.527 . S
C236 H294 0.959 . S
C236 H295 0.961 . S
C236 H296 0.961 . S
C237 C234 1.496 . S
C237 H297 0.960 . S
C237 H298 0.960 . S
C237 H299 0.961 . S
C238 C239 1.517 . S
C238 H301 0.961 . S
C238 H302 0.960 . S
C238 H303 0.959 . S
C239 C238 1.517 . S
C239 O287 1.468 . S
C239 H300 0.980 . S
C240 C241 1.349 . S
C240 C245 1.367 . S
C240 O287 1.408 . S
C241 C240 1.349 . S
C241 C242 1.407 . S
C241 H304 0.930 . S
C242 C241 1.407 . S
C242 C243 1.449 . S
C242 C246 1.535 . S
C243 C242 1.449 . S
C243 C244 1.384 . S
C243 C268 1.553 . S
C244 C243 1.384 . S
C244 C245 1.364 . S
C244 C247 1.450 . S
C245 C240 1.367 . S
C245 C244 1.364 . S
C245 H305 0.931 . S
C246 C242 1.535 . S
C246 H306 0.959 . S
C246 H307 0.961 . S
C246 H308 0.959 . S
C247 C244 1.450 . S
C247 H309 0.960 . S
C247 H310 0.960 . S
C247 H311 0.960 . S
C248 C249 1.309 . S
C248 C253 1.304 . S
C248 O286 1.435 . S
C249 C248 1.309 . S
C249 C250 1.476 . S
C249 H313 0.930 . S
C250 C249 1.476 . S
C250 C251 1.400 . S
C250 C254 1.567 . S
C251 C250 1.400 . S
C251 C252 1.373 . S
C251 C273 1.432 . S
C252 C251 1.373 . S
C252 C253 1.339 . S
C252 C255 1.530 . S
C253 C248 1.304 . S
C253 C252 1.339 . S
C253 H314 0.930 . S
C254 C250 1.567 . S
C254 H315 0.961 . S
C254 H316 0.960 . S
C254 H317 0.958 . S
C255 C252 1.530 . S
C255 H318 0.961 . S
C255 H319 0.960 . S
C255 H320 0.960 . S
C256 C257 1.530 . S
C256 H322 0.961 . S
C256 H323 0.961 . S
C256 H324 0.959 . S
C257 C256 1.530 . S
C257 O285 1.412 . S
C257 H321 0.980 . S
C258 C259 1.288 . S
C258 C263 1.377 . S
C258 O285 1.393 . S
C259 C258 1.288 . S
C259 C260 1.369 . S
C259 H325 0.932 . S
C260 C259 1.369 . S
C260 C261 1.398 . S
C260 C264 1.527 . S
C261 C260 1.398 . S
C261 C262 1.380 . S
C261 C275 1.497 . S
C262 C261 1.380 . S
C262 C263 1.383 . S
C262 C265 1.603 . S
C263 C258 1.377 . S
C263 C262 1.383 . S
C263 H326 0.929 . S
C264 C260 1.527 . S
C264 H327 0.961 . S
C264 H328 0.959 . S
C264 H329 0.959 . S
C265 C262 1.603 . S
C265 H330 0.960 . S
C265 H331 0.962 . S
C265 H332 0.961 . S
C266 C233 1.587 . S
C266 C267 1.360 . S
C266 C279 1.412 . S
C267 C266 1.360 . S
C267 C268 1.365 . S
C267 H333 0.929 . S
C268 C243 1.553 . S
C268 C267 1.365 . S
C268 C269 1.404 . S
C269 C268 1.404 . S
C269 C270 1.395 . S
C269 C280 1.451 . S
C270 C269 1.395 . S
C270 C271 1.322 . S
C270 H334 0.930 . S
C271 C270 1.322 . S
C271 C272 1.459 . S
C271 H335 0.929 . S
C272 C271 1.459 . S
C272 C273 1.445 . S
C272 C281 1.395 . S
C273 C251 1.432 . S
C273 C272 1.445 . S
C273 C274 1.370 . S
C274 C273 1.370 . S
C274 C275 1.438 . S
C274 H336 0.930 . S
C275 C261 1.497 . S
C275 C274 1.438 . S
C275 C276 1.360 . S
C276 C275 1.360 . S
C276 C277 1.401 . S
C276 C281 1.446 . S
C277 C276 1.401 . S
C277 C278 1.347 . S
C277 H337 0.929 . S
C278 C277 1.347 . S
C278 C279 1.455 . S
C278 H338 0.930 . S
C279 C266 1.412 . S
C279 C278 1.455 . S
C279 C280 1.331 . S
C280 C269 1.451 . S
C280 C279 1.331 . S
C280 C281 1.497 . S
C281 C272 1.395 . S
C281 C276 1.446 . S
C281 C280 1.497 . S
C282 C283 1.582 . S
C282 H339 0.962 . S
C282 H340 0.959 . S
C282 H341 0.958 . S
C283 C282 1.582 . S
C283 O286 1.458 . S
C283 H312 0.980 . S
O284 C229 1.426 . S
O284 C230 1.334 . S
O285 C257 1.412 . S
O285 C258 1.393 . S
O286 C248 1.435 . S
O286 C283 1.458 . S
O287 C239 1.468 . S
O287 C240 1.408 . S
H288 C229 0.980 . S
H289 C228 0.959 . S
H290 C228 0.959 . S
H291 C228 0.960 . S
H292 C231 0.929 . S
H293 C235 0.929 . S
H294 C236 0.959 . S
H295 C236 0.961 . S
H296 C236 0.961 . S
H297 C237 0.960 . S
H298 C237 0.960 . S
H299 C237 0.961 . S
H300 C239 0.980 . S
H301 C238 0.961 . S
H302 C238 0.960 . S
H303 C238 0.959 . S
H304 C241 0.930 . S
H305 C245 0.931 . S
H306 C246 0.959 . S
H307 C246 0.961 . S
H308 C246 0.959 . S
H309 C247 0.960 . S
H310 C247 0.960 . S
H311 C247 0.960 . S
H312 C283 0.980 . S
H313 C249 0.930 . S
H314 C253 0.930 . S
H315 C254 0.961 . S
H316 C254 0.960 . S
H317 C254 0.958 . S
H318 C255 0.961 . S
H319 C255 0.960 . S
H320 C255 0.960 . S
H321 C257 0.980 . S
H322 C256 0.961 . S
H323 C256 0.961 . S
H324 C256 0.959 . S
H325 C259 0.932 . S
H326 C263 0.929 . S
H327 C264 0.961 . S
H328 C264 0.959 . S
H329 C264 0.959 . S
H330 C265 0.960 . S
H331 C265 0.962 . S
H332 C265 0.961 . S
H333 C267 0.929 . S
H334 C270 0.930 . S
H335 C271 0.929 . S
H336 C274 0.930 . S
H337 C277 0.929 . S
H338 C278 0.930 . S
H339 C282 0.962 . S
H340 C282 0.959 . S
H341 C282 0.958 . S
C342 C343 1.560 . S
C342 H403 0.959 . S
C342 H404 0.959 . S
C342 H405 0.960 . S
C343 C342 1.560 . S
C343 O398 1.426 . S
C343 H402 0.980 . S
C344 C345 1.407 . S
C344 C349 1.418 . S
C344 O398 1.334 . S
C345 C344 1.407 . S
C345 C346 1.360 . S
C345 H406 0.929 . S
C346 C345 1.360 . S
C346 C347 1.401 . S
C346 C350 1.527 . S
C347 C346 1.401 . S
C347 C348 1.405 . S
C347 C380 1.587 . S
C348 C347 1.405 . S
C348 C349 1.332 . S
C348 C351 1.496 . S
C349 C344 1.418 . S
C349 C348 1.332 . S
C349 H407 0.929 . S
C350 C346 1.527 . S
C350 H408 0.959 . S
C350 H409 0.961 . S
C350 H410 0.961 . S
C351 C348 1.496 . S
C351 H411 0.960 . S
C351 H412 0.960 . S
C351 H413 0.961 . S
C352 C353 1.517 . S
C352 H415 0.945 1_556 S
C352 H416 0.960 . S
C352 H417 0.959 . S
C353 C352 1.517 . S
C353 O401 1.468 . S
C353 H414 0.980 . S
C354 C355 1.349 . S
C354 C359 1.367 . S
C354 O401 1.408 . S
C355 C354 1.349 . S
C355 C356 1.407 . S
C355 H418 0.930 . S
C356 C355 1.407 . S
C356 C357 1.449 . S
C356 C360 1.535 . S
C357 C356 1.449 . S
C357 C358 1.384 . S
C357 C382 1.553 1_655 S
C358 C357 1.384 . S
C358 C359 1.364 . S
C358 C361 1.450 . S
C359 C354 1.367 . S
C359 C358 1.364 . S
C359 H419 0.931 . S
C360 C356 1.535 . S
C360 H420 0.959 1_655 S
C360 H421 0.961 1_655 S
C360 H422 0.959 . S
C361 C358 1.450 . S
C361 H423 0.960 . S
C361 H424 0.960 1_655 S
C361 H425 0.960 . S
C362 C363 1.309 . S
C362 C367 1.304 . S
C362 O400 1.435 . S
C363 C362 1.309 . S
C363 C364 1.476 . S
C363 H427 0.930 . S
C364 C363 1.476 . S
C364 C365 1.400 . S
C364 C368 1.567 . S
C365 C364 1.400 . S
C365 C366 1.373 . S
C365 C387 1.432 . S
C366 C365 1.373 . S
C366 C367 1.339 . S
C366 C369 1.530 . S
C367 C362 1.304 . S
C367 C366 1.339 . S
C367 H428 0.930 . S
C368 C364 1.567 . S
C368 H429 0.961 . S
C368 H430 0.960 . S
C368 H431 0.958 . S
C369 C366 1.530 . S
C369 H432 0.961 . S
C369 H433 0.960 . S
C369 H434 0.960 . S
C370 C371 1.530 . S
C370 H436 0.961 . S
C370 H437 0.961 . S
C370 H438 0.959 . S
C371 C370 1.530 . S
C371 O399 1.412 . S
C371 H435 0.980 . S
C372 C373 1.288 . S
C372 C377 1.377 . S
C372 O399 1.393 . S
C373 C372 1.288 . S
C373 C374 1.369 . S
C373 H439 0.932 . S
C374 C373 1.369 . S
C374 C375 1.398 . S
C374 C378 1.527 . S
C375 C374 1.398 . S
C375 C376 1.380 . S
C375 C389 1.497 . S
C376 C375 1.380 . S
C376 C377 1.383 . S
C376 C379 1.603 . S
C377 C372 1.377 . S
C377 C376 1.383 . S
C377 H440 0.929 . S
C378 C374 1.527 . S
C378 H441 0.961 . S
C378 H442 0.959 1_455 S
C378 H443 0.959 . S
C379 C376 1.603 . S
C379 H444 0.960 . S
C379 H445 0.962 . S
C379 H446 0.961 . S
C380 C347 1.587 . S
C380 C381 1.360 . S
C380 C393 1.412 . S
C381 C380 1.360 . S
C381 C382 1.365 . S
C381 H447 0.929 . S
C382 C357 1.553 1_455 S
C382 C381 1.365 . S
C382 C383 1.416 . S
C383 C382 1.416 . S
C383 C384 1.368 1_455 S
C383 C394 1.472 . S
C384 C383 1.368 1_655 S
C384 C385 1.322 . S
C384 H448 0.930 . S
C385 C384 1.322 . S
C385 C386 1.459 . S
C385 H449 0.929 . S
C386 C385 1.459 . S
C386 C387 1.445 . S
C386 C395 1.395 1_655 S
C387 C365 1.432 . S
C387 C386 1.445 . S
C387 C388 1.370 . S
C388 C387 1.370 . S
C388 C389 1.438 1_655 S
C388 H450 0.930 . S
C389 C375 1.497 . S
C389 C388 1.438 1_455 S
C389 C390 1.360 . S
C390 C389 1.360 . S
C390 C391 1.401 . S
C390 C395 1.446 . S
C391 C390 1.401 . S
C391 C392 1.347 . S
C391 H451 0.929 . S
C392 C391 1.347 . S
C392 C393 1.455 . S
C392 H452 0.930 . S
C393 C380 1.412 . S
C393 C392 1.455 . S
C393 C394 1.331 . S
C394 C383 1.472 . S
C394 C393 1.331 . S
C394 C395 1.497 . S
C395 C386 1.395 1_455 S
C395 C390 1.446 . S
C395 C394 1.497 . S
C396 C397 1.582 . S
C396 H453 0.962 . S
C396 H454 0.959 . S
C396 H455 0.958 . S
C397 C396 1.582 . S
C397 O400 1.458 . S
C397 H426 0.980 . S
O398 C343 1.426 . S
O398 C344 1.334 . S
O399 C371 1.412 . S
O399 C372 1.393 . S
O400 C362 1.435 . S
O400 C397 1.458 . S
O401 C353 1.468 . S
O401 C354 1.408 . S
H402 C343 0.980 . S
H403 C342 0.959 . S
H404 C342 0.959 . S
H405 C342 0.960 . S
H406 C345 0.929 . S
H407 C349 0.929 . S
H408 C350 0.959 . S
H409 C350 0.961 . S
H410 C350 0.961 . S
H411 C351 0.960 . S
H412 C351 0.960 . S
H413 C351 0.961 . S
H414 C353 0.980 . S
H415 C352 0.945 1_554 S
H416 C352 0.960 . S
H417 C352 0.959 . S
H418 C355 0.930 . S
H419 C359 0.931 . S
H420 C360 0.959 1_455 S
H421 C360 0.961 1_455 S
H422 C360 0.959 . S
H423 C361 0.960 . S
H424 C361 0.960 1_455 S
H425 C361 0.960 . S
H426 C397 0.980 . S
H427 C363 0.930 . S
H428 C367 0.930 . S
H429 C368 0.961 . S
H430 C368 0.960 . S
H431 C368 0.958 . S
H432 C369 0.961 . S
H433 C369 0.960 . S
H434 C369 0.960 . S
H435 C371 0.980 . S
H436 C370 0.961 . S
H437 C370 0.961 . S
H438 C370 0.959 . S
H439 C373 0.932 . S
H440 C377 0.929 . S
H441 C378 0.961 . S
H442 C378 0.959 1_655 S
H443 C378 0.959 . S
H444 C379 0.960 . S
H445 C379 0.962 . S
H446 C379 0.961 . S
H447 C381 0.929 . S
H448 C384 0.930 . S
H449 C385 0.929 . S
H450 C388 0.930 . S
H451 C391 0.929 . S
H452 C392 0.930 . S
H453 C396 0.962 . S
H454 C396 0.959 . S
H455 C396 0.958 . S
C456 C457 1.560 . S
C456 H517 0.959 . S
C456 H518 0.959 . S
C456 H519 0.960 . S
C457 C456 1.560 . S
C457 O512 1.426 . S
C457 H516 0.980 . S
C458 C459 1.407 . S
C458 C463 1.418 . S
C458 O512 1.334 . S
C459 C458 1.407 . S
C459 C460 1.360 . S
C459 H520 0.929 . S
C460 C459 1.360 . S
C460 C461 1.401 . S
C460 C464 1.527 . S
C461 C460 1.401 . S
C461 C462 1.405 . S
C461 C494 1.587 . S
C462 C461 1.405 . S
C462 C463 1.332 . S
C462 C465 1.496 . S
C463 C458 1.418 . S
C463 C462 1.332 . S
C463 H521 0.929 . S
C464 C460 1.527 . S
C464 H522 0.959 . S
C464 H523 0.961 . S
C464 H524 0.961 . S
C465 C462 1.496 . S
C465 H525 0.960 . S
C465 H526 0.960 . S
C465 H527 0.961 . S
C466 C467 1.517 . S
C466 H529 0.961 . S
C466 H530 0.960 . S
C466 H531 0.959 . S
C467 C466 1.517 . S
C467 O515 1.468 . S
C467 H528 0.980 . S
C468 C469 1.349 . S
C468 C473 1.367 . S
C468 O515 1.408 . S
C469 C468 1.349 . S
C469 C470 1.407 . S
C469 H532 0.930 . S
C470 C469 1.407 . S
C470 C471 1.449 . S
C470 C474 1.535 . S
C471 C470 1.449 . S
C471 C472 1.384 . S
C471 C496 1.553 . S
C472 C471 1.384 . S
C472 C473 1.364 . S
C472 C475 1.450 . S
C473 C468 1.367 . S
C473 C472 1.364 . S
C473 H533 0.931 . S
C474 C470 1.535 . S
C474 H534 0.959 . S
C474 H535 0.961 . S
C474 H536 0.959 . S
C475 C472 1.450 . S
C475 H537 0.960 . S
C475 H538 0.960 . S
C475 H539 0.960 . S
C476 C477 1.309 . S
C476 C481 1.304 . S
C476 O514 1.435 . S
C477 C476 1.309 . S
C477 C478 1.476 . S
C477 H541 0.930 . S
C478 C477 1.476 . S
C478 C479 1.400 . S
C478 C482 1.567 . S
C479 C478 1.400 . S
C479 C480 1.373 . S
C479 C501 1.432 . S
C480 C479 1.373 . S
C480 C481 1.339 . S
C480 C483 1.530 . S
C481 C476 1.304 . S
C481 C480 1.339 . S
C481 H542 0.930 . S
C482 C478 1.567 . S
C482 H543 0.961 . S
C482 H544 0.960 . S
C482 H545 0.958 . S
C483 C480 1.530 . S
C483 H546 0.961 . S
C483 H547 0.960 . S
C483 H548 0.960 . S
C484 C485 1.530 . S
C484 H550 0.961 . S
C484 H551 0.961 . S
C484 H552 0.959 . S
C485 C484 1.530 . S
C485 O513 1.412 . S
C485 H549 0.980 . S
C486 C487 1.288 . S
C486 C491 1.377 . S
C486 O513 1.393 . S
C487 C486 1.288 . S
C487 C488 1.369 . S
C487 H553 0.932 . S
C488 C487 1.369 . S
C488 C489 1.398 . S
C488 C492 1.527 1_565 S
C489 C488 1.398 . S
C489 C490 1.380 . S
C489 C503 1.497 1_565 S
C490 C489 1.380 . S
C490 C491 1.383 . S
C490 C493 1.603 . S
C491 C486 1.377 . S
C491 C490 1.383 . S
C491 H554 0.929 . S
C492 C488 1.527 1_545 S
C492 H555 0.961 . S
C492 H556 0.959 . S
C492 H557 0.959 . S
C493 C490 1.603 . S
C493 H558 0.960 . S
C493 H559 0.976 . S
C493 H560 0.961 . S
C494 C461 1.587 . S
C494 C495 1.360 . S
C494 C507 1.412 . S
C495 C494 1.360 . S
C495 C496 1.365 1_565 S
C495 H561 0.929 . S
C496 C471 1.553 . S
C496 C495 1.365 1_545 S
C496 C497 1.404 . S
C497 C496 1.404 . S
C497 C498 1.395 . S
C497 C508 1.451 . S
C498 C497 1.395 . S
C498 C499 1.322 . S
C498 H562 0.930 . S
C499 C498 1.322 . S
C499 C500 1.459 1_556 S
C499 H563 0.929 . S
C500 C499 1.459 1_554 S
C500 C501 1.445 . S
C500 C509 1.401 . S
C501 C479 1.432 . S
C501 C500 1.445 . S
C501 C502 1.370 . S
C502 C501 1.370 . S
C502 C503 1.438 . S
C502 H564 0.930 . S
C503 C489 1.497 1_545 S
C503 C502 1.438 . S
C503 C504 1.360 . S
C504 C503 1.360 . S
C504 C505 1.401 1_545 S
C504 C509 1.481 . S
C505 C504 1.401 1_565 S
C505 C506 1.347 1_554 S
C505 H565 0.929 . S
C506 C505 1.347 1_556 S
C506 C507 1.455 . S
C506 H566 0.930 . S
C507 C494 1.412 . S
C507 C506 1.455 . S
C507 C508 1.331 1_565 S
C508 C497 1.451 . S
C508 C507 1.331 1_545 S
C508 C509 1.456 1_556 S
C509 C500 1.401 . S
C509 C504 1.481 . S
C509 C508 1.456 1_554 S
C510 C511 1.582 . S
C510 H567 0.962 . S
C510 H568 0.959 . S
C510 H569 0.958 . S
C511 C510 1.582 . S
C511 O514 1.458 . S
C511 H540 0.980 . S
O512 C457 1.426 . S
O512 C458 1.334 . S
O513 C485 1.412 . S
O513 C486 1.393 . S
O514 C476 1.435 . S
O514 C511 1.458 . S
O515 C467 1.468 . S
O515 C468 1.408 . S
H516 C457 0.980 . S
H517 C456 0.959 . S
H518 C456 0.959 . S
H519 C456 0.960 . S
H520 C459 0.929 . S
H521 C463 0.929 . S
H522 C464 0.959 . S
H523 C464 0.961 . S
H524 C464 0.961 . S
H525 C465 0.960 . S
H526 C465 0.960 . S
H527 C465 0.961 . S
H528 C467 0.980 . S
H529 C466 0.961 . S
H530 C466 0.960 . S
H531 C466 0.959 . S
H532 C469 0.930 . S
H533 C473 0.931 . S
H534 C474 0.959 . S
H535 C474 0.961 . S
H536 C474 0.959 . S
H537 C475 0.960 . S
H538 C475 0.960 . S
H539 C475 0.960 . S
H540 C511 0.980 . S
H541 C477 0.930 . S
H542 C481 0.930 . S
H543 C482 0.961 . S
H544 C482 0.960 . S
H545 C482 0.958 . S
H546 C483 0.961 . S
H547 C483 0.960 . S
H548 C483 0.960 . S
H549 C485 0.980 . S
H550 C484 0.961 . S
H551 C484 0.961 . S
H552 C484 0.959 . S
H553 C487 0.932 . S
H554 C491 0.929 . S
H555 C492 0.961 . S
H556 C492 0.959 . S
H557 C492 0.959 . S
H558 C493 0.960 . S
H559 C493 0.976 . S
H560 C493 0.961 . S
H561 C495 0.929 . S
H562 C498 0.930 . S
H563 C499 0.929 . S
H564 C502 0.930 . S
H565 C505 0.929 . S
H566 C506 0.930 . S
H567 C510 0.962 . S
H568 C510 0.959 . S
H569 C510 0.958 . S
C570 C571 1.560 . S
C570 H631 0.959 . S
C570 H632 0.959 . S
C570 H633 0.960 . S
C571 C570 1.560 . S
C571 O626 1.426 . S
C571 H630 0.980 . S
C572 C573 1.407 . S
C572 C577 1.418 . S
C572 O626 1.334 . S
C573 C572 1.407 . S
C573 C574 1.360 . S
C573 H634 0.929 . S
C574 C573 1.360 . S
C574 C575 1.401 . S
C574 C578 1.527 . S
C575 C574 1.401 . S
C575 C576 1.405 . S
C575 C608 1.587 . S
C576 C575 1.405 . S
C576 C577 1.332 . S
C576 C579 1.496 . S
C577 C572 1.418 . S
C577 C576 1.332 . S
C577 H635 0.929 . S
C578 C574 1.527 . S
C578 H636 0.959 . S
C578 H637 0.961 . S
C578 H638 0.961 . S
C579 C576 1.496 . S
C579 H639 0.960 . S
C579 H640 0.960 . S
C579 H641 0.961 . S
C580 C581 1.517 1_556 S
C580 H643 0.961 . S
C580 H644 0.960 . S
C580 H645 0.959 . S
C581 C580 1.517 1_554 S
C581 O629 1.468 . S
C581 H642 0.980 . S
C582 C583 1.349 . S
C582 C587 1.367 . S
C582 O629 1.408 . S
C583 C582 1.349 . S
C583 C584 1.407 . S
C583 H646 0.930 . S
C584 C583 1.407 . S
C584 C585 1.449 . S
C584 C588 1.535 . S
C585 C584 1.449 . S
C585 C586 1.384 . S
C585 C610 1.553 . S
C586 C585 1.384 . S
C586 C587 1.364 . S
C586 C589 1.450 . S
C587 C582 1.367 . S
C587 C586 1.364 . S
C587 H647 0.931 . S
C588 C584 1.535 . S
C588 H648 0.959 . S
C588 H649 0.961 . S
C588 H650 0.959 . S
C589 C586 1.450 . S
C589 H651 0.960 . S
C589 H652 0.960 . S
C589 H653 0.960 . S
C590 C591 1.309 . S
C590 C595 1.304 . S
C590 O628 1.435 . S
C591 C590 1.309 . S
C591 C592 1.476 . S
C591 H655 0.930 . S
C592 C591 1.476 . S
C592 C593 1.400 . S
C592 C596 1.567 . S
C593 C592 1.400 . S
C593 C594 1.373 . S
C593 C615 1.432 . S
C594 C593 1.373 . S
C594 C595 1.339 . S
C594 C597 1.530 . S
C595 C590 1.304 . S
C595 C594 1.339 . S
C595 H656 0.930 . S
C596 C592 1.567 . S
C596 H657 0.961 . S
C596 H658 0.960 . S
C596 H659 0.958 . S
C597 C594 1.530 . S
C597 H660 0.961 . S
C597 H661 0.960 . S
C597 H662 0.960 . S
C598 C599 1.530 . S
C598 H664 0.961 . S
C598 H665 0.961 . S
C598 H666 0.959 . S
C599 C598 1.530 . S
C599 O627 1.412 . S
C599 H663 0.980 . S
C600 C601 1.288 . S
C600 C605 1.377 . S
C600 O627 1.393 . S
C601 C600 1.288 . S
C601 C602 1.369 . S
C601 H667 0.932 . S
C602 C601 1.369 . S
C602 C603 1.398 . S
C602 C606 1.527 . S
C603 C602 1.398 . S
C603 C604 1.380 . S
C603 C617 1.497 . S
C604 C603 1.380 . S
C604 C605 1.383 . S
C604 C607 1.603 . S
C605 C600 1.377 . S
C605 C604 1.383 . S
C605 H668 0.929 . S
C606 C602 1.527 . S
C606 H669 0.961 . S
C606 H670 0.959 . S
C606 H671 0.959 . S
C607 C604 1.603 . S
C607 H672 0.960 . S
C607 H673 0.962 . S
C607 H674 0.961 . S
C608 C575 1.587 . S
C608 C609 1.360 . S
C608 C621 1.412 . S
C609 C608 1.360 . S
C609 C610 1.365 . S
C609 H675 0.929 . S
C610 C585 1.553 . S
C610 C609 1.365 . S
C610 C611 1.404 . S
C611 C610 1.404 . S
C611 C612 1.395 . S
C611 C622 1.451 . S
C612 C611 1.395 . S
C612 C613 1.322 . S
C612 H676 0.930 . S
C613 C612 1.322 . S
C613 C614 1.459 . S
C613 H677 0.929 . S
C614 C613 1.459 . S
C614 C615 1.445 . S
C614 C623 1.395 . S
C615 C593 1.432 . S
C615 C614 1.445 . S
C615 C616 1.370 . S
C616 C615 1.370 . S
C616 C617 1.438 . S
C616 H678 0.930 . S
C617 C603 1.497 . S
C617 C616 1.438 . S
C617 C618 1.360 . S
C618 C617 1.360 . S
C618 C619 1.401 . S
C618 C623 1.446 . S
C619 C618 1.401 . S
C619 C620 1.347 . S
C619 H679 0.929 . S
C620 C619 1.347 . S
C620 C621 1.455 . S
C620 H680 0.930 . S
C621 C608 1.412 . S
C621 C620 1.455 . S
C621 C622 1.331 . S
C622 C611 1.451 . S
C622 C621 1.331 . S
C622 C623 1.497 . S
C623 C614 1.395 . S
C623 C618 1.446 . S
C623 C622 1.497 . S
C624 C625 1.582 . S
C624 H681 0.962 . S
C624 H682 0.959 . S
C624 H683 0.958 . S
C625 C624 1.582 . S
C625 O628 1.458 . S
C625 H654 0.980 . S
O626 C571 1.426 . S
O626 C572 1.334 . S
O627 C599 1.412 . S
O627 C600 1.393 . S
O628 C590 1.435 . S
O628 C625 1.458 . S
O629 C581 1.468 . S
O629 C582 1.408 . S
H630 C571 0.980 . S
H631 C570 0.959 . S
H632 C570 0.959 . S
H633 C570 0.960 . S
H634 C573 0.929 . S
H635 C577 0.929 . S
H636 C578 0.959 . S
H637 C578 0.961 . S
H638 C578 0.961 . S
H639 C579 0.960 . S
H640 C579 0.960 . S
H641 C579 0.961 . S
H642 C581 0.980 . S
H643 C580 0.961 . S
H644 C580 0.960 . S
H645 C580 0.959 . S
H646 C583 0.930 . S
H647 C587 0.931 . S
H648 C588 0.959 . S
H649 C588 0.961 . S
H650 C588 0.959 . S
H651 C589 0.960 . S
H652 C589 0.960 . S
H653 C589 0.960 . S
H654 C625 0.980 . S
H655 C591 0.930 . S
H656 C595 0.930 . S
H657 C596 0.961 . S
H658 C596 0.960 . S
H659 C596 0.958 . S
H660 C597 0.961 . S
H661 C597 0.960 . S
H662 C597 0.960 . S
H663 C599 0.980 . S
H664 C598 0.961 . S
H665 C598 0.961 . S
H666 C598 0.959 . S
H667 C601 0.932 . S
H668 C605 0.929 . S
H669 C606 0.961 . S
H670 C606 0.959 . S
H671 C606 0.959 . S
H672 C607 0.960 . S
H673 C607 0.962 . S
H674 C607 0.961 . S
H675 C609 0.929 . S
H676 C612 0.930 . S
H677 C613 0.929 . S
H678 C616 0.930 . S
H679 C619 0.929 . S
H680 C620 0.930 . S
H681 C624 0.962 . S
H682 C624 0.959 . S
H683 C624 0.958 . S
Mn684 O689 2.095 . S
Mn684 O699 2.162 . S
Mn684 O700 2.297 . S
Mn684 O708 2.385 . S
Mn684 O709 2.209 . S
Mn684 O710 2.094 . S
Mn685 O690 2.121 . S
Mn685 N692 2.257 . S
Mn685 N701 2.282 . S
Mn685 O709 2.215 . S
Mn685 O711 2.117 . S
C686 O708 1.234 . S
C686 O709 1.283 . S
C687 O699 1.281 . S
C687 O700 1.236 . S
C688 O710 1.240 . S
C688 O711 1.264 . S
O689 Mn684 2.095 . S
O689 C698 1.250 . S
O690 Mn685 2.121 . S
O690 C698 1.258 . S
C691 N692 1.326 . S
C691 C695 1.460 . S
C691 H697 0.929 . S
N692 Mn685 2.257 . S
N692 C691 1.326 . S
N692 C696 1.362 . S
C693 C694 1.258 . S
C693 C696 1.431 . S
C693 C713 1.449 . S
C694 C693 1.258 . S
C694 C695 1.477 . S
C694 H714 0.931 . S
C695 C691 1.460 . S
C695 C694 1.477 . S
C695 H715 0.930 . S
C696 N692 1.362 . S
C696 C693 1.431 . S
C696 C706 1.476 . S
H697 C691 0.929 . S
C698 O689 1.250 . S
C698 O690 1.258 . S
O699 Mn684 2.162 . S
O699 C687 1.281 . S
O700 Mn684 2.297 . S
O700 C687 1.236 . S
N701 Mn685 2.282 . S
N701 C702 1.328 . S
N701 C706 1.318 . S
C702 N701 1.328 . S
C702 C703 1.457 . S
C702 H707 0.929 . S
C703 C702 1.457 . S
C703 C704 1.291 . S
C703 H716 0.931 . S
C704 C703 1.291 . S
C704 C705 1.373 . S
C704 H717 0.929 . S
C705 C704 1.373 . S
C705 C706 1.396 . S
C705 C712 1.403 . S
C706 C696 1.476 . S
C706 N701 1.318 . S
C706 C705 1.396 . S
H707 C702 0.929 . S
O708 Mn684 2.385 . S
O708 C686 1.234 . S
O709 Mn684 2.209 . S
O709 Mn685 2.215 . S
O709 C686 1.283 . S
O710 Mn684 2.094 . S
O710 C688 1.240 . S
O711 Mn685 2.117 . S
O711 C688 1.264 . S
C712 C705 1.403 . S
C712 C713 1.399 . S
C712 H718 0.929 . S
C713 C693 1.449 . S
C713 C712 1.399 . S
C713 H719 0.930 . S
H714 C694 0.931 . S
H715 C695 0.930 . S
H716 C703 0.931 . S
H717 C704 0.929 . S
H718 C712 0.929 . S
H719 C713 0.930 . S
Mn720 O725 2.095 . S
Mn720 O735 2.162 . S
Mn720 O736 2.297 . S
Mn720 O744 2.385 . S
Mn720 O745 2.209 . S
Mn720 O746 2.094 . S
Mn721 O726 2.121 . S
Mn721 N728 2.257 . S
Mn721 N737 2.282 . S
Mn721 O745 2.215 . S
Mn721 O747 2.117 . S
C722 O744 1.234 . S
C722 O745 1.283 . S
C723 O735 1.281 . S
C723 O736 1.236 . S
C724 O746 1.240 . S
C724 O747 1.264 . S
O725 Mn720 2.095 . S
O725 C734 1.250 . S
O726 Mn721 2.121 . S
O726 C734 1.258 . S
C727 N728 1.326 . S
C727 C731 1.460 . S
C727 H733 0.929 . S
N728 Mn721 2.257 . S
N728 C727 1.326 . S
N728 C732 1.362 . S
C729 C730 1.258 . S
C729 C732 1.431 . S
C729 C749 1.449 . S
C730 C729 1.258 . S
C730 C731 1.477 . S
C730 H750 0.931 . S
C731 C727 1.460 . S
C731 C730 1.477 . S
C731 H751 0.930 . S
C732 N728 1.362 . S
C732 C729 1.431 . S
C732 C742 1.476 . S
H733 C727 0.929 . S
C734 O725 1.250 . S
C734 O726 1.258 . S
O735 Mn720 2.162 . S
O735 C723 1.281 . S
O736 Mn720 2.297 . S
O736 C723 1.236 . S
N737 Mn721 2.282 . S
N737 C738 1.328 . S
N737 C742 1.318 . S
C738 N737 1.328 . S
C738 C739 1.457 . S
C738 H743 0.929 . S
C739 C738 1.457 . S
C739 C740 1.291 . S
C739 H752 0.931 . S
C740 C739 1.291 . S
C740 C741 1.373 . S
C740 H753 0.929 . S
C741 C740 1.373 . S
C741 C742 1.396 . S
C741 C748 1.403 . S
C742 C732 1.476 . S
C742 N737 1.318 . S
C742 C741 1.396 . S
H743 C738 0.929 . S
O744 Mn720 2.385 . S
O744 C722 1.234 . S
O745 Mn720 2.209 . S
O745 Mn721 2.215 . S
O745 C722 1.283 . S
O746 Mn720 2.094 . S
O746 C724 1.240 . S
O747 Mn721 2.117 . S
O747 C724 1.264 . S
C748 C741 1.403 . S
C748 C749 1.399 . S
C748 H754 0.929 . S
C749 C729 1.449 . S
C749 C748 1.399 . S
C749 H755 0.930 . S
H750 C730 0.931 . S
H751 C731 0.930 . S
H752 C739 0.931 . S
H753 C740 0.929 . S
H754 C748 0.929 . S
H755 C749 0.930 . S
Mn756 O761 2.095 . S
Mn756 O771 2.162 . S
Mn756 O772 2.297 . S
Mn756 O780 2.385 . S
Mn756 O781 2.209 . S
Mn756 O782 2.094 . S
Mn757 O762 2.121 . S
Mn757 N764 2.257 . S
Mn757 N773 2.282 . S
Mn757 O781 2.215 . S
Mn757 O783 2.117 . S
C758 O780 1.234 . S
C758 O781 1.283 . S
C759 O771 1.281 . S
C759 O772 1.236 . S
C760 O782 1.240 . S
C760 O783 1.264 . S
O761 Mn756 2.095 . S
O761 C770 1.250 . S
O762 Mn757 2.121 . S
O762 C770 1.258 . S
C763 N764 1.326 . S
C763 C767 1.460 . S
C763 H769 0.929 . S
N764 Mn757 2.257 . S
N764 C763 1.326 . S
N764 C768 1.362 . S
C765 C766 1.258 . S
C765 C768 1.431 . S
C765 C785 1.449 . S
C766 C765 1.258 . S
C766 C767 1.477 . S
C766 H786 0.931 . S
C767 C763 1.460 . S
C767 C766 1.477 . S
C767 H787 0.930 . S
C768 N764 1.362 . S
C768 C765 1.431 . S
C768 C778 1.476 . S
H769 C763 0.929 . S
C770 O761 1.250 . S
C770 O762 1.258 . S
O771 Mn756 2.162 . S
O771 C759 1.281 . S
O772 Mn756 2.297 . S
O772 C759 1.236 . S
N773 Mn757 2.282 . S
N773 C774 1.328 . S
N773 C778 1.318 . S
C774 N773 1.328 . S
C774 C775 1.457 . S
C774 H779 0.929 . S
C775 C774 1.457 . S
C775 C776 1.291 . S
C775 H788 0.931 . S
C776 C775 1.291 . S
C776 C777 1.373 . S
C776 H789 0.929 . S
C777 C776 1.373 . S
C777 C778 1.396 . S
C777 C784 1.403 . S
C778 C768 1.476 . S
C778 N773 1.318 . S
C778 C777 1.396 . S
H779 C774 0.929 . S
O780 Mn756 2.385 . S
O780 C758 1.234 . S
O781 Mn756 2.209 . S
O781 Mn757 2.215 . S
O781 C758 1.283 . S
O782 Mn756 2.094 . S
O782 C760 1.240 . S
O783 Mn757 2.117 . S
O783 C760 1.264 . S
C784 C777 1.403 . S
C784 C785 1.399 . S
C784 H790 0.929 . S
C785 C765 1.449 . S
C785 C784 1.399 . S
C785 H791 0.930 . S
H786 C766 0.931 . S
H787 C767 0.930 . S
H788 C775 0.931 . S
H789 C776 0.929 . S
H790 C784 0.929 . S
H791 C785 0.930 . S
Mn792 O797 2.095 . S
Mn792 O807 2.162 . S
Mn792 O808 2.297 . S
Mn792 O816 2.385 . S
Mn792 O817 2.209 . S
Mn792 O818 2.094 . S
Mn793 O798 2.121 . S
Mn793 N800 2.257 . S
Mn793 N809 2.282 . S
Mn793 O817 2.215 . S
Mn793 O819 2.117 . S
C794 O816 1.234 . S
C794 O817 1.283 . S
C795 O807 1.281 . S
C795 O808 1.236 . S
C796 O818 1.240 . S
C796 O819 1.264 . S
O797 Mn792 2.095 . S
O797 C806 1.250 . S
O798 Mn793 2.121 . S
O798 C806 1.258 . S
C799 N800 1.326 . S
C799 C803 1.460 . S
C799 H805 0.929 . S
N800 Mn793 2.257 . S
N800 C799 1.326 . S
N800 C804 1.362 . S
C801 C802 1.258 . S
C801 C804 1.431 . S
C801 C821 1.449 . S
C802 C801 1.258 . S
C802 C803 1.477 . S
C802 H822 0.931 . S
C803 C799 1.460 . S
C803 C802 1.477 . S
C803 H823 0.930 . S
C804 N800 1.362 . S
C804 C801 1.431 . S
C804 C814 1.476 . S
H805 C799 0.929 . S
C806 O797 1.250 . S
C806 O798 1.258 . S
O807 Mn792 2.162 . S
O807 C795 1.281 . S
O808 Mn792 2.297 . S
O808 C795 1.236 . S
N809 Mn793 2.282 . S
N809 C810 1.328 . S
N809 C814 1.318 . S
C810 N809 1.328 . S
C810 C811 1.457 . S
C810 H815 0.929 . S
C811 C810 1.457 . S
C811 C812 1.291 . S
C811 H824 0.931 . S
C812 C811 1.291 . S
C812 C813 1.373 . S
C812 H825 0.929 . S
C813 C812 1.373 . S
C813 C814 1.396 . S
C813 C820 1.403 . S
C814 C804 1.476 . S
C814 N809 1.318 . S
C814 C813 1.396 . S
H815 C810 0.929 . S
O816 Mn792 2.385 . S
O816 C794 1.234 . S
O817 Mn792 2.209 . S
O817 Mn793 2.215 . S
O817 C794 1.283 . S
O818 Mn792 2.094 . S
O818 C796 1.240 . S
O819 Mn793 2.117 . S
O819 C796 1.264 . S
C820 C813 1.403 . S
C820 C821 1.399 . S
C820 H826 0.929 . S
C821 C801 1.449 . S
C821 C820 1.399 . S
C821 H827 0.930 . S
H822 C802 0.931 . S
H823 C803 0.930 . S
H824 C811 0.931 . S
H825 C812 0.929 . S
H826 C820 0.929 . S
H827 C821 0.930 . S
Mn828 O833 2.095 . S
Mn828 O843 2.162 . S
Mn828 O844 2.297 . S
Mn828 O852 2.385 . S
Mn828 O853 2.209 . S
Mn828 O854 2.094 . S
Mn829 O834 2.121 . S
Mn829 N836 2.257 . S
Mn829 N845 2.282 . S
Mn829 O853 2.215 . S
Mn829 O855 2.117 . S
C830 O852 1.234 . S
C830 O853 1.283 . S
C831 O843 1.281 . S
C831 O844 1.236 . S
C832 O854 1.240 . S
C832 O855 1.264 . S
O833 Mn828 2.095 . S
O833 C842 1.250 . S
O834 Mn829 2.121 . S
O834 C842 1.258 . S
C835 N836 1.326 . S
C835 C839 1.460 . S
C835 H841 0.929 . S
N836 Mn829 2.257 . S
N836 C835 1.326 . S
N836 C840 1.362 . S
C837 C838 1.258 . S
C837 C840 1.431 . S
C837 C857 1.449 . S
C838 C837 1.258 . S
C838 C839 1.477 . S
C838 H858 0.931 . S
C839 C835 1.460 . S
C839 C838 1.477 . S
C839 H859 0.930 . S
C840 N836 1.362 . S
C840 C837 1.431 . S
C840 C850 1.476 . S
H841 C835 0.929 . S
C842 O833 1.250 . S
C842 O834 1.258 . S
O843 Mn828 2.162 . S
O843 C831 1.281 . S
O844 Mn828 2.297 . S
O844 C831 1.236 . S
N845 Mn829 2.282 . S
N845 C846 1.328 . S
N845 C850 1.318 . S
C846 N845 1.328 . S
C846 C847 1.457 . S
C846 H851 0.929 . S
C847 C846 1.457 . S
C847 C848 1.291 . S
C847 H860 0.931 . S
C848 C847 1.291 . S
C848 C849 1.373 . S
C848 H861 0.929 . S
C849 C848 1.373 . S
C849 C850 1.396 . S
C849 C856 1.403 . S
C850 C840 1.476 . S
C850 N845 1.318 . S
C850 C849 1.396 . S
H851 C846 0.929 . S
O852 Mn828 2.385 . S
O852 C830 1.234 . S
O853 Mn828 2.209 . S
O853 Mn829 2.215 . S
O853 C830 1.283 . S
O854 Mn828 2.094 . S
O854 C832 1.240 . S
O855 Mn829 2.117 . S
O855 C832 1.264 . S
C856 C849 1.403 . S
C856 C857 1.399 . S
C856 H862 0.929 . S
C857 C837 1.449 . S
C857 C856 1.399 . S
C857 H863 0.930 . S
H858 C838 0.931 . S
H859 C839 0.930 . S
H860 C847 0.931 . S
H861 C848 0.929 . S
H862 C856 0.929 . S
H863 C857 0.930 . S
Mn864 O869 2.095 . S
Mn864 O879 2.162 . S
Mn864 O880 2.297 . S
Mn864 O888 2.385 . S
Mn864 O889 2.209 . S
Mn864 O890 2.094 . S
Mn865 O870 2.121 . S
Mn865 N872 2.257 . S
Mn865 N881 2.282 . S
Mn865 O889 2.215 . S
Mn865 O891 2.117 . S
C866 O888 1.234 . S
C866 O889 1.283 . S
C867 O879 1.281 . S
C867 O880 1.236 . S
C868 O890 1.240 . S
C868 O891 1.264 . S
O869 Mn864 2.095 . S
O869 C878 1.250 . S
O870 Mn865 2.121 . S
O870 C878 1.258 . S
C871 N872 1.326 . S
C871 C875 1.460 . S
C871 H877 0.929 . S
N872 Mn865 2.257 . S
N872 C871 1.326 . S
N872 C876 1.362 . S
C873 C874 1.258 . S
C873 C876 1.431 . S
C873 C893 1.449 . S
C874 C873 1.258 . S
C874 C875 1.477 . S
C874 H894 0.931 . S
C875 C871 1.460 . S
C875 C874 1.477 . S
C875 H895 0.930 . S
C876 N872 1.362 . S
C876 C873 1.431 . S
C876 C886 1.476 . S
H877 C871 0.929 . S
C878 O869 1.250 . S
C878 O870 1.258 . S
O879 Mn864 2.162 . S
O879 C867 1.281 . S
O880 Mn864 2.297 . S
O880 C867 1.236 . S
N881 Mn865 2.282 . S
N881 C882 1.328 . S
N881 C886 1.318 . S
C882 N881 1.328 . S
C882 C883 1.457 . S
C882 H887 0.929 . S
C883 C882 1.457 . S
C883 C884 1.291 . S
C883 H896 0.931 . S
C884 C883 1.291 . S
C884 C885 1.373 . S
C884 H897 0.929 . S
C885 C884 1.373 . S
C885 C886 1.396 . S
C885 C892 1.403 . S
C886 C876 1.476 . S
C886 N881 1.318 . S
C886 C885 1.396 . S
H887 C882 0.929 . S
O888 Mn864 2.385 . S
O888 C866 1.234 . S
O889 Mn864 2.209 . S
O889 Mn865 2.215 . S
O889 C866 1.283 . S
O890 Mn864 2.094 . S
O890 C868 1.240 . S
O891 Mn865 2.117 . S
O891 C868 1.264 . S
C892 C885 1.403 . S
C892 C893 1.399 . S
C892 H898 0.929 . S
C893 C873 1.449 . S
C893 C892 1.399 . S
C893 H899 0.930 . S
H894 C874 0.931 . S
H895 C875 0.930 . S
H896 C883 0.931 . S
H897 C884 0.929 . S
H898 C892 0.929 . S
H899 C893 0.930 . S
C900 C901 1.369 . S
C900 C902 1.419 . S
C900 H904 0.930 . S
C901 C900 1.369 . S
C901 C910 1.429 . S
C902 C900 1.419 . S
C902 C903 1.363 . S
C902 H905 0.929 . S
C903 C902 1.363 . S
C903 C909 1.428 . S
H904 C900 0.930 . S
H905 C902 0.929 . S
S906 N907 1.613 . S
S906 N908 1.610 . S
N907 S906 1.613 . S
N907 C910 1.350 . S
N908 S906 1.610 . S
N908 C909 1.351 . S
C909 C903 1.428 . S
C909 N908 1.351 . S
C909 C910 1.434 . S
C910 C901 1.429 . S
C910 N907 1.350 . S
C910 C909 1.434 . S
C911 C912 1.369 . S
C911 C913 1.419 . S
C911 H915 0.930 . S
C912 C911 1.369 . S
C912 C921 1.429 . S
C913 C911 1.419 . S
C913 C914 1.363 . S
C913 H916 0.929 . S
C914 C913 1.363 . S
C914 C920 1.428 . S
H915 C911 0.930 . S
H916 C913 0.929 . S
S917 N918 1.613 . S
S917 N919 1.610 . S
N918 S917 1.613 . S
N918 C921 1.350 . S
N919 S917 1.610 . S
N919 C920 1.351 . S
C920 C914 1.428 . S
C920 N919 1.351 . S
C920 C921 1.434 . S
C921 C912 1.429 . S
C921 N918 1.350 . S
C921 C920 1.434 . S
C922 C923 1.369 . S
C922 C924 1.419 . S
C922 H926 0.930 . S
C923 C922 1.369 . S
C923 C932 1.429 . S
C924 C922 1.419 . S
C924 C925 1.363 . S
C924 H927 0.929 . S
C925 C924 1.363 . S
C925 C931 1.428 . S
H926 C922 0.930 . S
H927 C924 0.929 . S
S928 N929 1.613 . S
S928 N930 1.610 . S
N929 S928 1.613 . S
N929 C932 1.350 . S
N930 S928 1.610 . S
N930 C931 1.351 . S
C931 C925 1.428 . S
C931 N930 1.351 . S
C931 C932 1.434 . S
C932 C923 1.429 . S
C932 N929 1.350 . S
C932 C931 1.434 . S
C933 C934 1.369 . S
C933 C935 1.419 . S
C933 H937 0.930 . S
C934 C933 1.369 . S
C934 C943 1.429 . S
C935 C933 1.419 . S
C935 C936 1.363 . S
C935 H938 0.929 . S
C936 C935 1.363 . S
C936 C942 1.428 . S
H937 C933 0.930 . S
H938 C935 0.929 . S
S939 N940 1.613 . S
S939 N941 1.610 . S
N940 S939 1.613 . S
N940 C943 1.350 . S
N941 S939 1.610 . S
N941 C942 1.351 . S
C942 C936 1.428 . S
C942 N941 1.351 . S
C942 C943 1.434 . S
C943 C934 1.429 . S
C943 N940 1.350 . S
C943 C942 1.434 . S
C944 C945 1.369 . S
C944 C946 1.419 . S
C944 H948 0.930 . S
C945 C944 1.369 . S
C945 C954 1.429 . S
C946 C944 1.419 . S
C946 C947 1.363 . S
C946 H949 0.929 . S
C947 C946 1.363 . S
C947 C953 1.428 . S
H948 C944 0.930 . S
H949 C946 0.929 . S
S950 N951 1.613 . S
S950 N952 1.610 . S
N951 S950 1.613 . S
N951 C954 1.350 . S
N952 S950 1.610 . S
N952 C953 1.351 . S
C953 C947 1.428 . S
C953 N952 1.351 . S
C953 C954 1.434 . S
C954 C945 1.429 . S
C954 N951 1.350 . S
C954 C953 1.434 . S
C955 C956 1.369 . S
C955 C957 1.419 . S
C955 H959 0.930 . S
C956 C955 1.369 . S
C956 C965 1.429 . S
C957 C955 1.419 . S
C957 C958 1.363 . S
C957 H960 0.929 . S
C958 C957 1.363 . S
C958 C964 1.428 . S
H959 C955 0.930 . S
H960 C957 0.929 . S
S961 N962 1.613 . S
S961 N963 1.610 . S
N962 S961 1.613 . S
N962 C965 1.350 . S
N963 S961 1.610 . S
N963 C964 1.351 . S
C964 C958 1.428 . S
C964 N963 1.351 . S
C964 C965 1.434 . S
C965 C956 1.429 . S
C965 N962 1.350 . S
C965 C964 1.434 . S
C966 C967 1.369 . S
C966 C968 1.419 . S
C966 H970 0.930 . S
C967 C966 1.369 . S
C967 C976 1.429 . S
C968 C966 1.419 . S
C968 C969 1.363 . S
C968 H971 0.929 . S
C969 C968 1.363 . S
C969 C975 1.428 . S
H970 C966 0.930 . S
H971 C968 0.929 . S
S972 N973 1.613 . S
S972 N974 1.610 . S
N973 S972 1.613 . S
N973 C976 1.350 . S
N974 S972 1.610 . S
N974 C975 1.351 . S
C975 C969 1.428 . S
C975 N974 1.351 . S
C975 C976 1.434 . S
C976 C967 1.429 . S
C976 N973 1.350 . S
C976 C975 1.434 . S
C977 C978 1.369 . S
C977 C979 1.419 . S
C977 H981 0.930 . S
C978 C977 1.369 . S
C978 C987 1.429 . S
C979 C977 1.419 . S
C979 C980 1.363 . S
C979 H982 0.929 . S
C980 C979 1.363 . S
C980 C986 1.428 . S
H981 C977 0.930 . S
H982 C979 0.929 . S
S983 N984 1.613 . S
S983 N985 1.610 . S
N984 S983 1.613 . S
N984 C987 1.350 . S
N985 S983 1.610 . S
N985 C986 1.351 . S
C986 C980 1.428 . S
C986 N985 1.351 . S
C986 C987 1.434 . S
C987 C978 1.429 . S
C987 N984 1.350 . S
C987 C986 1.434 . S
C988 C989 1.369 . S
C988 C990 1.419 . S
C988 H992 0.930 . S
C989 C988 1.369 . S
C989 C998 1.429 . S
C990 C988 1.419 . S
C990 C991 1.363 . S
C990 H993 0.929 . S
C991 C990 1.363 . S
C991 C997 1.428 . S
H992 C988 0.930 . S
H993 C990 0.929 . S
S994 N995 1.613 . S
S994 N996 1.610 . S
N995 S994 1.613 . S
N995 C998 1.350 . S
N996 S994 1.610 . S
N996 C997 1.351 . S
C997 C991 1.428 . S
C997 N996 1.351 . S
C997 C998 1.434 . S
C998 C989 1.429 . S
C998 N995 1.350 . S
C998 C997 1.434 . S
C999 C1000 1.369 . S
C999 C1001 1.419 . S
C999 H1003 0.930 . S
C1000 C999 1.369 . S
C1000 C1009 1.429 . S
C1001 C999 1.419 . S
C1001 C1002 1.363 . S
C1001 H1004 0.929 . S
C1002 C1001 1.363 . S
C1002 C1008 1.428 . S
H1003 C999 0.930 . S
H1004 C1001 0.929 . S
S1005 N1006 1.613 . S
S1005 N1007 1.610 . S
N1006 S1005 1.613 . S
N1006 C1009 1.350 . S
N1007 S1005 1.610 . S
N1007 C1008 1.351 . S
C1008 C1002 1.428 . S
C1008 N1007 1.351 . S
C1008 C1009 1.434 . S
C1009 C1000 1.429 . S
C1009 N1006 1.350 . S
C1009 C1008 1.434 . S
C1010 C1011 1.369 . S
C1010 C1012 1.419 . S
C1010 H1014 0.930 . S
C1011 C1010 1.369 . S
C1011 C1020 1.429 . S
C1012 C1010 1.419 . S
C1012 C1013 1.363 . S
C1012 H1015 0.929 . S
C1013 C1012 1.363 . S
C1013 C1019 1.428 . S
H1014 C1010 0.930 . S
H1015 C1012 0.929 . S
S1016 N1017 1.613 . S
S1016 N1018 1.610 . S
N1017 S1016 1.613 . S
N1017 C1020 1.350 . S
N1018 S1016 1.610 . S
N1018 C1019 1.351 . S
C1019 C1013 1.428 . S
C1019 N1018 1.351 . S
C1019 C1020 1.434 . S
C1020 C1011 1.429 . S
C1020 N1017 1.350 . S
C1020 C1019 1.434 . S
C1021 C1022 1.369 . S
C1021 C1023 1.419 . S
C1021 H1025 0.930 . S
C1022 C1021 1.369 . S
C1022 C1031 1.429 . S
C1023 C1021 1.419 . S
C1023 C1024 1.363 . S
C1023 H1026 0.929 . S
C1024 C1023 1.363 . S
C1024 C1030 1.428 . S
H1025 C1021 0.930 . S
H1026 C1023 0.929 . S
S1027 N1028 1.613 . S
S1027 N1029 1.610 . S
N1028 S1027 1.613 . S
N1028 C1031 1.350 . S
N1029 S1027 1.610 . S
N1029 C1030 1.351 . S
C1030 C1024 1.428 . S
C1030 N1029 1.351 . S
C1030 C1031 1.434 . S
C1031 C1022 1.429 . S
C1031 N1028 1.350 . S
C1031 C1030 1.434 . S
C1032 C1033 1.369 . S
C1032 C1034 1.419 . S
C1032 H1036 0.930 . S
C1033 C1032 1.369 . S
C1033 C1042 1.429 . S
C1034 C1032 1.419 . S
C1034 C1035 1.363 . S
C1034 H1037 0.929 . S
C1035 C1034 1.363 . S
C1035 C1041 1.428 . S
H1036 C1032 0.930 . S
H1037 C1034 0.929 . S
S1038 N1039 1.613 . S
S1038 N1040 1.610 . S
N1039 S1038 1.613 . S
N1039 C1042 1.350 . S
N1040 S1038 1.610 . S
N1040 C1041 1.351 . S
C1041 C1035 1.428 . S
C1041 N1040 1.351 . S
C1041 C1042 1.434 . S
C1042 C1033 1.429 . S
C1042 N1039 1.350 . S
C1042 C1041 1.434 . S
C1043 C1044 1.369 . S
C1043 C1045 1.419 . S
C1043 H1047 0.930 . S
C1044 C1043 1.369 . S
C1044 C1053 1.429 . S
C1045 C1043 1.419 . S
C1045 C1046 1.363 . S
C1045 H1048 0.929 . S
C1046 C1045 1.363 . S
C1046 C1052 1.428 . S
H1047 C1043 0.930 . S
H1048 C1045 0.929 . S
S1049 N1050 1.613 . S
S1049 N1051 1.610 . S
N1050 S1049 1.613 . S
N1050 C1053 1.350 . S
N1051 S1049 1.610 . S
N1051 C1052 1.351 . S
C1052 C1046 1.428 . S
C1052 N1051 1.351 . S
C1052 C1053 1.434 . S
C1053 C1044 1.429 . S
C1053 N1050 1.350 . S
C1053 C1052 1.434 . S
C1054 C1055 1.369 . S
C1054 C1056 1.419 . S
C1054 H1058 0.930 . S
C1055 C1054 1.369 . S
C1055 C1064 1.429 . S
C1056 C1054 1.419 . S
C1056 C1057 1.363 . S
C1056 H1059 0.929 . S
C1057 C1056 1.363 . S
C1057 C1063 1.428 . S
H1058 C1054 0.930 . S
H1059 C1056 0.929 . S
S1060 N1061 1.613 . S
S1060 N1062 1.610 . S
N1061 S1060 1.613 . S
N1061 C1064 1.350 . S
N1062 S1060 1.610 . S
N1062 C1063 1.351 . S
C1063 C1057 1.428 . S
C1063 N1062 1.351 . S
C1063 C1064 1.434 . S
C1064 C1055 1.429 . S
C1064 N1061 1.350 . S
C1064 C1063 1.434 . S
C1065 C1066 1.369 . S
C1065 C1067 1.419 . S
C1065 H1069 0.930 . S
C1066 C1065 1.369 . S
C1066 C1075 1.429 . S
C1067 C1065 1.419 . S
C1067 C1068 1.363 1_556 S
C1067 H1070 0.929 1_556 S
C1068 C1067 1.363 1_554 S
C1068 C1074 1.428 . S
H1069 C1065 0.930 . S
H1070 C1067 0.929 1_554 S
S1071 N1072 1.613 1_554 S
S1071 N1073 1.610 . S
N1072 S1071 1.613 1_556 S
N1072 C1075 1.350 . S
N1073 S1071 1.610 . S
N1073 C1074 1.351 . S
C1074 C1068 1.428 . S
C1074 N1073 1.351 . S
C1074 C1075 1.434 1_554 S
C1075 C1066 1.429 . S
C1075 N1072 1.350 . S
C1075 C1074 1.434 1_556 S
C1076 C1077 1.369 . S
C1076 C1078 1.419 . S
C1076 H1080 0.930 . S
C1077 C1076 1.369 . S
C1077 C1086 1.429 . S
C1078 C1076 1.419 . S
C1078 C1079 1.363 . S
C1078 H1081 0.929 . S
C1079 C1078 1.363 . S
C1079 C1085 1.428 . S
H1080 C1076 0.930 . S
H1081 C1078 0.929 . S
S1082 N1083 1.613 . S
S1082 N1084 1.610 . S
N1083 S1082 1.613 . S
N1083 C1086 1.350 . S
N1084 S1082 1.610 . S
N1084 C1085 1.351 . S
C1085 C1079 1.428 . S
C1085 N1084 1.351 . S
C1085 C1086 1.434 . S
C1086 C1077 1.429 . S
C1086 N1083 1.350 . S
C1086 C1085 1.434 . S
C1087 C1088 1.369 . S
C1087 C1089 1.419 . S
C1087 H1091 0.930 . S
C1088 C1087 1.369 . S
C1088 C1097 1.429 . S
C1089 C1087 1.419 . S
C1089 C1090 1.363 . S
C1089 H1092 0.929 . S
C1090 C1089 1.363 . S
C1090 C1096 1.428 . S
H1091 C1087 0.930 . S
H1092 C1089 0.929 . S
S1093 N1094 1.613 . S
S1093 N1095 1.610 . S
N1094 S1093 1.613 . S
N1094 C1097 1.350 . S
N1095 S1093 1.610 . S
N1095 C1096 1.351 . S
C1096 C1090 1.428 . S
C1096 N1095 1.351 . S
C1096 C1097 1.434 . S
C1097 C1088 1.429 . S
C1097 N1094 1.350 . S
C1097 C1096 1.434 . S
C1098 C1099 1.369 . S
C1098 C1100 1.419 . S
C1098 H1102 0.930 . S
C1099 C1098 1.369 . S
C1099 C1108 1.429 . S
C1100 C1098 1.419 . S
C1100 C1101 1.363 . S
C1100 H1103 0.929 . S
C1101 C1100 1.363 . S
C1101 C1107 1.428 . S
H1102 C1098 0.930 . S
H1103 C1100 0.929 . S
S1104 N1105 1.613 . S
S1104 N1106 1.610 . S
N1105 S1104 1.613 . S
N1105 C1108 1.350 . S
N1106 S1104 1.610 . S
N1106 C1107 1.351 . S
C1107 C1101 1.428 . S
C1107 N1106 1.351 . S
C1107 C1108 1.434 . S
C1108 C1099 1.429 . S
C1108 N1105 1.350 . S
C1108 C1107 1.434 . S
C1109 C1110 1.369 . S
C1109 C1111 1.419 . S
C1109 H1113 0.930 . S
C1110 C1109 1.369 . S
C1110 C1119 1.429 . S
C1111 C1109 1.419 . S
C1111 C1112 1.363 . S
C1111 H1114 0.929 . S
C1112 C1111 1.363 . S
C1112 C1118 1.428 . S
H1113 C1109 0.930 . S
H1114 C1111 0.929 . S
S1115 N1116 1.613 . S
S1115 N1117 1.610 . S
N1116 S1115 1.613 . S
N1116 C1119 1.350 . S
N1117 S1115 1.610 . S
N1117 C1118 1.351 . S
C1118 C1112 1.428 . S
C1118 N1117 1.351 . S
C1118 C1119 1.434 . S
C1119 C1110 1.429 . S
C1119 N1116 1.350 . S
C1119 C1118 1.434 . S
C1120 C1121 1.369 . S
C1120 C1122 1.419 . S
C1120 H1124 0.930 . S
C1121 C1120 1.369 . S
C1121 C1130 1.429 . S
C1122 C1120 1.419 . S
C1122 C1123 1.363 . S
C1122 H1125 0.929 . S
C1123 C1122 1.363 . S
C1123 C1129 1.428 . S
H1124 C1120 0.930 . S
H1125 C1122 0.929 . S
S1126 N1127 1.613 . S
S1126 N1128 1.610 . S
N1127 S1126 1.613 . S
N1127 C1130 1.350 . S
N1128 S1126 1.610 . S
N1128 C1129 1.351 . S
C1129 C1123 1.428 . S
C1129 N1128 1.351 . S
C1129 C1130 1.434 . S
C1130 C1121 1.429 . S
C1130 N1127 1.350 . S
C1130 C1129 1.434 . S
C1131 C1132 1.369 . S
C1131 C1133 1.419 . S
C1131 H1135 0.930 . S
C1132 C1131 1.369 . S
C1132 C1141 1.429 . S
C1133 C1131 1.419 . S
C1133 C1134 1.363 . S
C1133 H1136 0.929 . S
C1134 C1133 1.363 . S
C1134 C1140 1.428 . S
H1135 C1131 0.930 . S
H1136 C1133 0.929 . S
S1137 N1138 1.613 . S
S1137 N1139 1.610 . S
N1138 S1137 1.613 . S
N1138 C1141 1.350 . S
N1139 S1137 1.610 . S
N1139 C1140 1.351 . S
C1140 C1134 1.428 . S
C1140 N1139 1.351 . S
C1140 C1141 1.434 . S
C1141 C1132 1.429 . S
C1141 N1138 1.350 . S
C1141 C1140 1.434 . S
C1142 C1143 1.369 . S
C1142 C1144 1.419 1_554 S
C1142 H1146 0.930 . S
C1143 C1142 1.369 . S
C1143 C1152 1.429 1_554 S
C1144 C1142 1.419 1_556 S
C1144 C1145 1.363 . S
C1144 H1147 0.929 . S
C1145 C1144 1.363 . S
C1145 C1151 1.428 . S
H1146 C1142 0.930 . S
H1147 C1144 0.929 . S
S1148 N1149 1.613 . S
S1148 N1150 1.610 . S
N1149 S1148 1.613 . S
N1149 C1152 1.350 . S
N1150 S1148 1.610 . S
N1150 C1151 1.351 . S
C1151 C1145 1.428 . S
C1151 N1150 1.351 . S
C1151 C1152 1.434 . S
C1152 C1143 1.429 1_556 S
C1152 N1149 1.350 . S
C1152 C1151 1.434 . S
C1153 C1154 1.369 . S
C1153 C1155 1.419 . S
C1153 H1157 0.930 . S
C1154 C1153 1.369 . S
C1154 C1163 1.429 . S
C1155 C1153 1.419 . S
C1155 C1156 1.363 . S
C1155 H1158 0.929 . S
C1156 C1155 1.363 . S
C1156 C1162 1.428 . S
H1157 C1153 0.930 . S
H1158 C1155 0.929 . S
S1159 N1160 1.613 . S
S1159 N1161 1.610 . S
N1160 S1159 1.613 . S
N1160 C1163 1.350 . S
N1161 S1159 1.610 . S
N1161 C1162 1.351 . S
C1162 C1156 1.428 . S
C1162 N1161 1.351 . S
C1162 C1163 1.434 . S
C1163 C1154 1.429 . S
C1163 N1160 1.350 . S
C1163 C1162 1.434 . S
C903 C867 1.757 . S
C901 C1 1.313 . S
C912 C169 1.684 . S
C914 C687 1.888 . S
C923 C283 1.653 . S
C925 C734 1.933 . S
C934 C397 1.421 . S
C936 C770 1.694 . S
C947 C795 1.614 . S
C945 C457 1.209 . S
C956 C571 1.230 . S
C958 C831 1.608 . S
C967 C115 1.342 . S
C969 C723 1.784 . S
C978 C229 1.197 . S
C980 C759 1.637 . S
C989 C343 1.211 . S
C991 C806 1.607 . S
C1002 C842 1.798 . S
C1000 C511 1.513 . S
C1013 C878 1.893 . S
C1011 C625 1.629 . S
C1024 C698 1.961 . S
C1022 C55 1.690 . S
C1033 C29 1.138 . S
C1035 C722 1.451 . S
C1044 C125 0.937 . S
C1046 C758 1.524 . S
C1057 C796 1.490 . S
C1055 C239 0.902 . S
C1066 C353 0.912 . S
C1068 C832 1.475 . S
C1079 C868 1.414 . S
C1077 C485 1.093 . S
C1090 C688 1.456 . S
C1088 C599 1.138 . S
C1101 C866 1.443 . S
C1099 C143 1.151 . S
C1110 C257 1.121 . S
C1112 C686 1.449 . S
C1123 C724 1.409 . S
C1121 C371 1.108 . S
C1132 C467 0.907 . S
C1134 C760 1.481 . S
C1143 C581 0.877 . S
C1145 C794 1.498 . S
C1154 C11 0.937 . S
C1156 C830 1.530 . S
