# Generated by pormake.
# Topology llk, (3,12)-cn, num edge types: 1
# Building blocks:
#     Node 0, Type 0, BuildingBlock: ESEHIV_clean_linker_0, # of connection points: 3
#     Node 1, Type 0, BuildingBlock: ESEHIV_clean_linker_0, # of connection points: 3
#     Node 2, Type 0, BuildingBlock: ESEHIV_clean_linker_0, # of connection points: 3
#     Node 3, Type 0, BuildingBlock: ESEHIV_clean_linker_0, # of connection points: 3
#     Node 4, Type 0, BuildingBlock: ESEHIV_clean_linker_0, # of connection points: 3
#     Node 5, Type 0, BuildingBlock: ESEHIV_clean_linker_0, # of connection points: 3
#     Node 6, Type 0, BuildingBlock: ESEHIV_clean_linker_0, # of connection points: 3
#     Node 7, Type 0, BuildingBlock: ESEHIV_clean_linker_0, # of connection points: 3
#     Node 8, Type 0, BuildingBlock: ESEHIV_clean_linker_0, # of connection points: 3
#     Node 9, Type 0, BuildingBlock: ESEHIV_clean_linker_0, # of connection points: 3
#     Node 10, Type 0, BuildingBlock: ESEHIV_clean_linker_0, # of connection points: 3
#     Node 11, Type 0, BuildingBlock: ESEHIV_clean_linker_0, # of connection points: 3
#     Node 12, Type 0, BuildingBlock: ESEHIV_clean_linker_0, # of connection points: 3
#     Node 13, Type 0, BuildingBlock: ESEHIV_clean_linker_0, # of connection points: 3
#     Node 14, Type 0, BuildingBlock: ESEHIV_clean_linker_0, # of connection points: 3
#     Node 15, Type 0, BuildingBlock: ESEHIV_clean_linker_0, # of connection points: 3
#     Node 16, Type 0, BuildingBlock: ESEHIV_clean_linker_0, # of connection points: 3
#     Node 17, Type 0, BuildingBlock: ESEHIV_clean_linker_0, # of connection points: 3
#     Node 18, Type 0, BuildingBlock: ESEHIV_clean_linker_0, # of connection points: 3
#     Node 19, Type 0, BuildingBlock: ESEHIV_clean_linker_0, # of connection points: 3
#     Node 20, Type 0, BuildingBlock: ESEHIV_clean_linker_0, # of connection points: 3
#     Node 21, Type 0, BuildingBlock: ESEHIV_clean_linker_0, # of connection points: 3
#     Node 22, Type 0, BuildingBlock: ESEHIV_clean_linker_0, # of connection points: 3
#     Node 23, Type 0, BuildingBlock: ESEHIV_clean_linker_0, # of connection points: 3
#     Node 24, Type 1, BuildingBlock: QEWDON_clean_sbu_0, # of connection points: 12
#     Node 25, Type 1, BuildingBlock: QEWDON_clean_sbu_0, # of connection points: 12
#     Node 26, Type 1, BuildingBlock: QEWDON_clean_sbu_0, # of connection points: 12
#     Node 27, Type 1, BuildingBlock: QEWDON_clean_sbu_0, # of connection points: 12
#     Node 28, Type 1, BuildingBlock: QEWDON_clean_sbu_0, # of connection points: 12
#     Node 29, Type 1, BuildingBlock: QEWDON_clean_sbu_0, # of connection points: 12
#     Edge 30, Type (0, 1), BuildingBlock: ZUJKAS_clean_linker_0, # of connection points: 2
#     Edge 31, Type (0, 1), BuildingBlock: ZUJKAS_clean_linker_0, # of connection points: 2
#     Edge 32, Type (0, 1), BuildingBlock: ZUJKAS_clean_linker_0, # of connection points: 2
#     Edge 33, Type (0, 1), BuildingBlock: ZUJKAS_clean_linker_0, # of connection points: 2
#     Edge 34, Type (0, 1), BuildingBlock: ZUJKAS_clean_linker_0, # of connection points: 2
#     Edge 35, Type (0, 1), BuildingBlock: ZUJKAS_clean_linker_0, # of connection points: 2
#     Edge 36, Type (0, 1), BuildingBlock: ZUJKAS_clean_linker_0, # of connection points: 2
#     Edge 37, Type (0, 1), BuildingBlock: ZUJKAS_clean_linker_0, # of connection points: 2
#     Edge 38, Type (0, 1), BuildingBlock: ZUJKAS_clean_linker_0, # of connection points: 2
#     Edge 39, Type (0, 1), BuildingBlock: ZUJKAS_clean_linker_0, # of connection points: 2
#     Edge 40, Type (0, 1), BuildingBlock: ZUJKAS_clean_linker_0, # of connection points: 2
#     Edge 41, Type (0, 1), BuildingBlock: ZUJKAS_clean_linker_0, # of connection points: 2
#     Edge 42, Type (0, 1), BuildingBlock: ZUJKAS_clean_linker_0, # of connection points: 2
#     Edge 43, Type (0, 1), BuildingBlock: ZUJKAS_clean_linker_0, # of connection points: 2
#     Edge 44, Type (0, 1), BuildingBlock: ZUJKAS_clean_linker_0, # of connection points: 2
#     Edge 45, Type (0, 1), BuildingBlock: ZUJKAS_clean_linker_0, # of connection points: 2
#     Edge 46, Type (0, 1), BuildingBlock: ZUJKAS_clean_linker_0, # of connection points: 2
#     Edge 47, Type (0, 1), BuildingBlock: ZUJKAS_clean_linker_0, # of connection points: 2
#     Edge 48, Type (0, 1), BuildingBlock: ZUJKAS_clean_linker_0, # of connection points: 2
#     Edge 49, Type (0, 1), BuildingBlock: ZUJKAS_clean_linker_0, # of connection points: 2
#     Edge 50, Type (0, 1), BuildingBlock: ZUJKAS_clean_linker_0, # of connection points: 2
#     Edge 51, Type (0, 1), BuildingBlock: ZUJKAS_clean_linker_0, # of connection points: 2
#     Edge 52, Type (0, 1), BuildingBlock: ZUJKAS_clean_linker_0, # of connection points: 2
#     Edge 53, Type (0, 1), BuildingBlock: ZUJKAS_clean_linker_0, # of connection points: 2
#     Edge 54, Type (0, 1), BuildingBlock: ZUJKAS_clean_linker_0, # of connection points: 2
#     Edge 55, Type (0, 1), BuildingBlock: ZUJKAS_clean_linker_0, # of connection points: 2
#     Edge 56, Type (0, 1), BuildingBlock: ZUJKAS_clean_linker_0, # of connection points: 2
#     Edge 57, Type (0, 1), BuildingBlock: ZUJKAS_clean_linker_0, # of connection points: 2
#     Edge 58, Type (0, 1), BuildingBlock: ZUJKAS_clean_linker_0, # of connection points: 2
#     Edge 59, Type (0, 1), BuildingBlock: ZUJKAS_clean_linker_0, # of connection points: 2
#     Edge 60, Type (0, 1), BuildingBlock: ZUJKAS_clean_linker_0, # of connection points: 2
#     Edge 61, Type (0, 1), BuildingBlock: ZUJKAS_clean_linker_0, # of connection points: 2
#     Edge 62, Type (0, 1), BuildingBlock: ZUJKAS_clean_linker_0, # of connection points: 2
#     Edge 63, Type (0, 1), BuildingBlock: ZUJKAS_clean_linker_0, # of connection points: 2
#     Edge 64, Type (0, 1), BuildingBlock: ZUJKAS_clean_linker_0, # of connection points: 2
#     Edge 65, Type (0, 1), BuildingBlock: ZUJKAS_clean_linker_0, # of connection points: 2
#     Edge 66, Type (0, 1), BuildingBlock: ZUJKAS_clean_linker_0, # of connection points: 2
#     Edge 67, Type (0, 1), BuildingBlock: ZUJKAS_clean_linker_0, # of connection points: 2
#     Edge 68, Type (0, 1), BuildingBlock: ZUJKAS_clean_linker_0, # of connection points: 2
#     Edge 69, Type (0, 1), BuildingBlock: ZUJKAS_clean_linker_0, # of connection points: 2
#     Edge 70, Type (0, 1), BuildingBlock: ZUJKAS_clean_linker_0, # of connection points: 2
#     Edge 71, Type (0, 1), BuildingBlock: ZUJKAS_clean_linker_0, # of connection points: 2
#     Edge 72, Type (0, 1), BuildingBlock: ZUJKAS_clean_linker_0, # of connection points: 2
#     Edge 73, Type (0, 1), BuildingBlock: ZUJKAS_clean_linker_0, # of connection points: 2
#     Edge 74, Type (0, 1), BuildingBlock: ZUJKAS_clean_linker_0, # of connection points: 2
#     Edge 75, Type (0, 1), BuildingBlock: ZUJKAS_clean_linker_0, # of connection points: 2
#     Edge 76, Type (0, 1), BuildingBlock: ZUJKAS_clean_linker_0, # of connection points: 2
#     Edge 77, Type (0, 1), BuildingBlock: ZUJKAS_clean_linker_0, # of connection points: 2
#     Edge 78, Type (0, 1), BuildingBlock: ZUJKAS_clean_linker_0, # of connection points: 2
#     Edge 79, Type (0, 1), BuildingBlock: ZUJKAS_clean_linker_0, # of connection points: 2
#     Edge 80, Type (0, 1), BuildingBlock: ZUJKAS_clean_linker_0, # of connection points: 2
#     Edge 81, Type (0, 1), BuildingBlock: ZUJKAS_clean_linker_0, # of connection points: 2
#     Edge 82, Type (0, 1), BuildingBlock: ZUJKAS_clean_linker_0, # of connection points: 2
#     Edge 83, Type (0, 1), BuildingBlock: ZUJKAS_clean_linker_0, # of connection points: 2
#     Edge 84, Type (0, 1), BuildingBlock: ZUJKAS_clean_linker_0, # of connection points: 2
#     Edge 85, Type (0, 1), BuildingBlock: ZUJKAS_clean_linker_0, # of connection points: 2
#     Edge 86, Type (0, 1), BuildingBlock: ZUJKAS_clean_linker_0, # of connection points: 2
#     Edge 87, Type (0, 1), BuildingBlock: ZUJKAS_clean_linker_0, # of connection points: 2
#     Edge 88, Type (0, 1), BuildingBlock: ZUJKAS_clean_linker_0, # of connection points: 2
#     Edge 89, Type (0, 1), BuildingBlock: ZUJKAS_clean_linker_0, # of connection points: 2
#     Edge 90, Type (0, 1), BuildingBlock: ZUJKAS_clean_linker_0, # of connection points: 2
#     Edge 91, Type (0, 1), BuildingBlock: ZUJKAS_clean_linker_0, # of connection points: 2
#     Edge 92, Type (0, 1), BuildingBlock: ZUJKAS_clean_linker_0, # of connection points: 2
#     Edge 93, Type (0, 1), BuildingBlock: ZUJKAS_clean_linker_0, # of connection points: 2
#     Edge 94, Type (0, 1), BuildingBlock: ZUJKAS_clean_linker_0, # of connection points: 2
#     Edge 95, Type (0, 1), BuildingBlock: ZUJKAS_clean_linker_0, # of connection points: 2
#     Edge 96, Type (0, 1), BuildingBlock: ZUJKAS_clean_linker_0, # of connection points: 2
#     Edge 97, Type (0, 1), BuildingBlock: ZUJKAS_clean_linker_0, # of connection points: 2
#     Edge 98, Type (0, 1), BuildingBlock: ZUJKAS_clean_linker_0, # of connection points: 2
#     Edge 99, Type (0, 1), BuildingBlock: ZUJKAS_clean_linker_0, # of connection points: 2
#     Edge 100, Type (0, 1), BuildingBlock: ZUJKAS_clean_linker_0, # of connection points: 2
#     Edge 101, Type (0, 1), BuildingBlock: ZUJKAS_clean_linker_0, # of connection points: 2
# Relax obj value: 0.129
# Max RMSD: 0.164
# Mean RMSD: 0.148
data_MOF--net-llk--node1-QEWDON_clean_sbu_0--node2-ESEHIV_clean_linker_0--edge1-ZUJKAS_clean_linker_0
_symmetry_space_group_name_H-M    P1
_symmetry_Int_Tables_number       1
_symmetry_cell_setting            triclinic
loop_
_symmetry_equiv_pos_as_xyz
'x, y, z'
_cell_length_a     56.206206
_cell_length_b     58.116949
_cell_length_c     57.167876
_cell_angle_alpha  90.0409
_cell_angle_beta   90.039952
_cell_angle_gamma 89.710266
loop_
_atom_site_label
_atom_site_type_symbol
_atom_site_fract_x
_atom_site_fract_y
_atom_site_fract_z
_atom_type_partial_charge
H0 H 0.03036 0.26638 0.30692 0.0
H1 H 0.03284 0.32271 0.25883 0.0
H2 H 0.03063 0.25296 0.23274 0.0
C3 C 0.03056 0.27261 0.28902 0.0
C4 C 0.03059 0.25693 0.27042 0.0
C5 C 0.03152 0.2962 0.28484 0.0
C6 C 0.03229 0.3043 0.26188 0.0
C7 C 0.03175 0.28895 0.24287 0.0
C8 C 0.03071 0.26504 0.24719 0.0
H9 H 0.71417 0.05412 0.24366 0.0
H10 H 0.77209 0.05541 0.29247 0.0
H11 H 0.78423 0.03376 0.22141 0.0
C12 C 0.73305 0.05269 0.24737 0.0
C13 C 0.74847 0.04545 0.22955 0.0
C14 C 0.74129 0.05562 0.27025 0.0
C15 C 0.76556 0.05314 0.27474 0.0
C16 C 0.78109 0.04497 0.25745 0.0
C17 C 0.77257 0.04093 0.23466 0.0
H18 H 0.02102 0.7671 0.30908 0.0
H19 H 0.01334 0.71688 0.25475 0.0
H20 H 0.0182 0.78886 0.23706 0.0
C21 C 0.0192 0.76299 0.29064 0.0
C22 C 0.01993 0.78067 0.27405 0.0
C23 C 0.01688 0.74007 0.28384 0.0
C24 C 0.01496 0.73472 0.26011 0.0
C25 C 0.01529 0.75213 0.24314 0.0
C26 C 0.01761 0.77533 0.25006 0.0
H27 H 0.25346 0.00263 0.28601 0.0
H28 H 0.31065 0.00447 0.23671 0.0
H29 H 0.2382 0.99885 0.21218 0.0
C30 C 0.25953 0.00233 0.26798 0.0
C31 C 0.24304 0.00036 0.24974 0.0
C32 C 0.28374 0.00383 0.26327 0.0
C33 C 0.29172 0.00341 0.24026 0.0
C34 C 0.27539 0.00171 0.22177 0.0
C35 C 0.25087 0.00016 0.2264 0.0
H36 H -0.00448 0.76917 0.70576 0.0
H37 H -0.00028 0.71726 0.75867 0.0
H38 H -0.00696 0.78866 0.7785 0.0
C39 C -0.00431 0.76448 0.72413 0.0
C40 C -0.00657 0.78169 0.74117 0.0
C41 C -0.00256 0.74132 0.73022 0.0
C42 C -0.00136 0.73528 0.75381 0.0
C43 C -0.00261 0.75217 0.77134 0.0
C44 C -0.00522 0.77559 0.76508 0.0
H45 H 0.26003 0.00599 0.72094 0.0
H46 H 0.31315 0.99443 0.77326 0.0
H47 H 0.23972 0.00276 0.7937 0.0
C48 C 0.26468 0.00349 0.7392 0.0
C49 C 0.24705 0.0046 0.75651 0.0
C50 C 0.28833 -5e-05 0.7453 0.0
C51 C 0.29455 0.99684 0.76864 0.0
C52 C 0.27719 0.99757 0.78618 0.0
C53 C 0.25321 0.00165 0.78021 0.0
H54 H 0.01218 0.31964 0.75877 0.0
H55 H 0.01327 0.26599 0.70697 0.0
H56 H 0.01812 0.24873 0.78 0.0
C57 C 0.01334 0.30156 0.75417 0.0
C58 C 0.01565 0.28517 0.77205 0.0
C59 C 0.01235 0.29489 0.73062 0.0
C60 C 0.01351 0.27144 0.72512 0.0
C61 C 0.01525 0.25472 0.74266 0.0
C62 C 0.01654 0.26154 0.76632 0.0
H63 H 0.72535 0.04463 0.77775 0.0
H64 H 0.78339 0.02999 0.73154 0.0
H65 H 0.79688 0.0399 0.80501 0.0
C66 C 0.74429 0.04221 0.77494 0.0
C67 C 0.76009 0.04313 0.79394 0.0
C68 C 0.7526 0.03701 0.75258 0.0
C69 C 0.77685 0.03347 0.74906 0.0
C70 C 0.79291 0.03464 0.76772 0.0
C71 C 0.7846 0.03931 0.79041 0.0
H72 H 0.239 0.31214 0.02533 0.0
H73 H 0.29301 0.26005 0.02051 0.0
H74 H 0.21917 0.24126 0.01507 0.0
C75 C 0.24399 0.29414 0.02368 0.0
C76 C 0.2263 0.27748 0.02084 0.0
C77 C 0.268 0.28799 0.02343 0.0
C78 C 0.27433 0.26487 0.02118 0.0
C79 C 0.25695 0.24793 0.01828 0.0
C80 C 0.2327 0.25417 0.01791 0.0
H81 H 0.28446 0.78235 0.00599 0.0
H82 H 0.23457 0.72959 0.02308 0.0
H83 H 0.21058 0.79988 0.01689 0.0
C84 C 0.26634 0.77721 0.00981 0.0
C85 C 0.24819 0.79385 0.01069 0.0
C86 C 0.26157 0.75419 0.01463 0.0
C87 C 0.23839 0.74765 0.02014 0.0
C88 C 0.21986 0.76383 0.02099 0.0
C89 C 0.22473 0.78717 0.01625 0.0
H90 H 0.74722 0.25245 0.98446 0.0
H91 H 0.79551 0.30922 0.98733 0.0
H92 H 0.8198 0.24135 0.00625 0.0
C93 C 0.76499 0.25906 0.9874 0.0
C94 C 0.78305 0.24412 0.99505 0.0
C95 C 0.76931 0.28253 0.98466 0.0
C96 C 0.79216 0.29092 0.98891 0.0
C97 C 0.81047 0.27634 -0.00331 0.0
C98 C 0.80598 0.25269 -0.00033 0.0
H99 H 0.73516 0.78444 0.00479 0.0
H100 H 0.78495 0.72841 0.00142 0.0
H101 H 0.81002 0.79836 -0.0018 0.0
C102 C 0.75337 0.77822 0.00358 0.0
C103 C 0.77192 0.79406 0.00173 0.0
C104 C 0.75783 0.75461 0.00317 0.0
C105 C 0.78132 0.74675 0.00205 0.0
C106 C 0.80021 0.76236 0.00046 0.0
C107 C 0.79558 0.78621 6e-05 0.0
H108 H 0.52706 0.7617 0.79698 0.0
H109 H 0.5279 0.81446 0.74494 0.0
H110 H 0.53002 0.74312 0.72387 0.0
C111 C 0.52711 0.76661 0.77867 0.0
C112 C 0.52811 0.74955 0.7613 0.0
C113 C 0.52739 0.78989 0.7728 0.0
C114 C 0.52792 0.79629 0.74932 0.0
C115 C 0.529 0.77977 0.73143 0.0
C116 C 0.52874 0.75611 0.73741 0.0
H117 H 0.24859 0.53948 0.73197 0.0
H118 H 0.29633 0.5342 0.79028 0.0
H119 H 0.3242 0.53728 0.7201 0.0
C120 C 0.26659 0.5386 0.73883 0.0
C121 C 0.28578 0.53865 0.72328 0.0
C122 C 0.27015 0.5366 0.76289 0.0
C123 C 0.29337 0.53584 0.7716 0.0
C124 C 0.31293 0.53643 0.75641 0.0
C125 C 0.30922 0.53751 0.732 0.0
H126 H 0.48152 0.22345 0.74666 0.0
H127 H 0.48297 0.27355 0.80204 0.0
H128 H 0.4899 0.29517 0.73042 0.0
C129 C 0.48301 0.24109 0.75263 0.0
C130 C 0.48634 0.25844 0.73595 0.0
C131 C 0.48203 0.24611 0.77661 0.0
C132 C 0.48309 0.26923 0.7836 0.0
C133 C 0.48528 0.28708 0.76719 0.0
C134 C 0.48743 0.28163 0.74319 0.0
H135 H 0.73258 0.49927 0.80258 0.0
H136 H 0.78916 0.50472 0.75276 0.0
H137 H 0.71633 0.50295 0.72894 0.0
C138 C 0.73848 0.50036 0.78453 0.0
C139 C 0.72164 0.50058 0.76648 0.0
C140 C 0.76274 0.50195 0.77969 0.0
C141 C 0.7703 0.50328 0.75653 0.0
C142 C 0.7538 0.50367 0.73815 0.0
C143 C 0.72922 0.5024 0.74303 0.0
H144 H 0.49626 0.26982 0.21374 0.0
H145 H 0.49143 0.22144 0.27022 0.0
H146 H 0.50253 0.29328 0.28499 0.0
C147 C 0.4961 0.26616 0.23234 0.0
C148 C 0.49913 0.28427 0.24832 0.0
C149 C 0.49338 0.24345 0.24005 0.0
C150 C 0.49356 0.23897 0.26408 0.0
C151 C 0.49698 0.25666 0.28039 0.0
C152 C 0.49973 0.2795 0.27253 0.0
H153 H 0.73317 0.49574 0.21764 0.0
H154 H 0.78801 0.50158 0.26903 0.0
H155 H 0.71469 0.51089 0.28934 0.0
C156 C 0.73839 0.49796 0.23578 0.0
C157 C 0.72104 0.5021 0.25298 0.0
C158 C 0.76244 0.4983 0.24158 0.0
C159 C 0.76918 0.50166 0.26475 0.0
C160 C 0.75234 0.50675 0.28208 0.0
C161 C 0.72795 0.50664 0.27627 0.0
H162 H 0.54573 0.81932 0.26657 0.0
H163 H 0.55577 0.76991 0.21204 0.0
H164 H 0.54297 0.74698 0.28281 0.0
C165 C 0.54738 0.80149 0.26111 0.0
C166 C 0.54403 0.78391 0.27753 0.0
C167 C 0.55147 0.79653 0.2376 0.0
C168 C 0.5531 0.77358 0.23045 0.0
C169 C 0.55049 0.75539 0.24648 0.0
C170 C 0.54571 0.76067 0.27027 0.0
H171 H 0.23667 0.53861 0.26591 0.0
H172 H 0.28993 0.54051 0.21242 0.0
H173 H 0.31091 0.53401 0.28468 0.0
C174 C 0.25529 0.53847 0.26085 0.0
C175 C 0.27297 0.53642 0.27803 0.0
C176 C 0.26128 0.54001 0.23727 0.0
C177 C 0.28521 0.53973 0.23081 0.0
C178 C 0.30318 0.53753 0.24766 0.0
C179 C 0.29715 0.53591 0.27153 0.0
H180 H 0.76644 0.82038 0.49836 0.0
H181 H 0.81672 0.76497 0.49935 0.0
H182 H 0.7416 0.75018 0.49589 0.0
C183 C 0.76994 0.802 0.49817 0.0
C184 C 0.75095 0.78644 0.49701 0.0
C185 C 0.79347 0.79435 0.49895 0.0
C186 C 0.79835 0.77083 0.49914 0.0
C187 C 0.77992 0.75472 0.49791 0.0
C188 C 0.75595 0.76248 0.4971 0.0
H189 H 0.81449 0.27065 0.49712 0.0
H190 H 0.7624 0.21726 0.50106 0.0
H191 H 0.73996 0.28814 0.49527 0.0
C192 C 0.79599 0.2654 0.49752 0.0
C193 C 0.77807 0.28209 0.49544 0.0
C194 C 0.79061 0.24206 0.49894 0.0
C195 C 0.76677 0.2354 0.50023 0.0
C196 C 0.74838 0.25185 0.49935 0.0
C197 C 0.754 0.27541 0.49692 0.0
H198 H 0.21507 0.76302 0.51202 0.0
H199 H 0.26018 0.82184 0.51479 0.0
H200 H 0.29105 0.7535 0.51664 0.0
C201 C 0.23286 0.77019 0.51265 0.0
C202 C 0.25265 0.7555 0.51386 0.0
C203 C 0.23563 0.79394 0.51348 0.0
C204 C 0.25842 0.80327 0.51477 0.0
C205 C 0.27876 0.78905 0.51586 0.0
C206 C 0.27576 0.76486 0.51536 0.0
H207 H 0.21493 0.27029 0.52476 0.0
H208 H 0.26601 0.21523 0.52062 0.0
H209 H 0.28906 0.28564 0.51492 0.0
C210 C 0.23316 0.26437 0.52274 0.0
C211 C 0.25125 0.28057 0.51991 0.0
C212 C 0.23819 0.24079 0.52283 0.0
C213 C 0.26188 0.23348 0.52084 0.0
C214 C 0.28034 0.24947 0.51816 0.0
C215 C 0.275 0.27318 0.51735 0.0
Zn216 Zn 0.97356 0.99713 0.46512 0.0
Zn217 Zn 0.9785 0.05138 0.46522 0.0
O218 O -0.00365 0.02287 0.45808 0.0
H219 H 0.00714 0.02121 0.44504 0.0
C220 C 0.96742 0.9676 0.51676 0.0
O221 O 0.96124 0.98819 0.50941 0.0
Zn222 Zn 0.0586 0.04663 0.54624 0.0
Zn223 Zn 0.05234 0.99164 0.55117 0.0
O224 O 0.03498 0.0222 0.55211 0.0
H225 H 0.04146 0.00681 0.5513 0.0
Zn226 Zn 0.98843 0.99557 0.55206 0.0
O227 O -0.00514 0.02314 0.53172 0.0
Zn228 Zn 0.98746 0.04969 0.5528 0.0
H229 H -0.00479 0.02226 0.51488 0.0
Zn230 Zn 0.03924 0.99357 0.46033 0.0
O231 O 0.0349 0.0218 0.48088 0.0
H232 H 0.03212 0.02164 0.49752 0.0
Zn233 Zn 0.04721 0.04693 0.46019 0.0
C234 C 0.05518 0.96177 0.49573 0.0
O235 O 0.06084 0.98136 0.50572 0.0
O236 O 0.94061 0.00777 0.45364 0.0
O237 O 0.94483 0.04591 0.45294 0.0
O238 O 0.08674 0.99708 0.5619 0.0
O239 O 0.09015 0.03523 0.55956 0.0
O240 O 0.96443 0.00243 0.57831 0.0
O241 O 0.96188 0.04047 0.5755 0.0
C242 C 0.01159 0.07677 0.43436 0.0
O243 O 0.06473 0.99851 0.43504 0.0
O244 O 0.0749 0.0349 0.44129 0.0
O245 O 0.03561 0.96341 0.56654 0.0
C246 C 0.93258 0.0278 0.44889 0.0
O247 O 0.9851 0.96619 0.45079 0.0
C248 C 0.02802 0.0772 0.57271 0.0
O249 O 0.98067 0.96581 0.53465 0.0
C250 C 0.09866 0.01546 0.56491 0.0
O251 O 0.04395 0.9622 0.47647 0.0
C252 C 0.97075 0.07443 0.51168 0.0
O253 O -0.00722 0.07732 0.44676 0.0
O254 O 0.02522 0.05921 0.43459 0.0
C255 C 0.95519 0.02152 0.58447 0.0
O256 O 0.04823 0.07581 0.5628 0.0
O257 O 0.0153 0.05918 0.57351 0.0
C258 C 0.06299 0.07134 0.50133 0.0
O259 O 0.97323 0.07505 0.53379 0.0
O260 O 0.98071 0.05856 0.49987 0.0
C261 C 0.0782 0.01563 0.4311 0.0
O262 O 0.05919 0.07312 0.47951 0.0
O263 O 0.05869 0.05244 0.51157 0.0
C264 C 0.02158 0.96713 0.58359 0.0
O265 O 0.01752 0.98847 0.5901 0.0
C266 C 0.98741 0.968 0.42877 0.0
O267 O 0.98223 0.98782 0.4189 0.0
Zn268 Zn 0.47945 0.06541 0.03434 0.0
Zn269 Zn 0.47746 0.06446 0.97871 0.0
O270 O 0.47969 0.0438 0.00641 0.0
H271 H 0.48671 0.02859 0.00654 0.0
C272 C 0.52733 0.08221 0.0589 0.0
O273 O 0.52085 0.08805 0.03762 0.0
Zn274 Zn 0.54908 0.97448 0.97264 0.0
Zn275 Zn 0.54766 0.97505 0.02871 0.0
O276 O 0.54569 0.99557 3e-05 0.0
H277 H 0.53575 0.00914 -0.00049 0.0
Zn278 Zn 0.56179 0.0589 0.03118 0.0
O279 O 0.54073 0.05501 0.00321 0.0
Zn280 Zn 0.56158 0.05636 0.97507 0.0
H281 H 0.52538 0.04777 0.0043 0.0
Zn282 Zn 0.46812 0.98105 0.03114 0.0
O283 O 0.48947 0.97988 0.00304 0.0
H284 H 0.50494 0.97264 0.00367 0.0
Zn285 Zn 0.46712 0.98214 0.97616 0.0
C286 C 0.49683 0.9522 0.05881 0.0
O287 O 0.4966 0.94177 0.03841 0.0
O288 O 0.46101 0.09501 0.0266 0.0
O289 O 0.46099 0.0943 0.98773 0.0
O290 O 0.56676 0.94583 0.02119 0.0
O291 O 0.56707 0.94544 0.98227 0.0
O292 O 0.59257 0.07545 0.02276 0.0
O293 O 0.59312 0.07225 0.98395 0.0
C294 C 0.45366 0.02793 0.95429 0.0
O295 O 0.43495 0.96766 0.02425 0.0
O296 O 0.43488 0.96932 0.98533 0.0
O297 O 0.55908 0.99043 0.05942 0.0
C298 C 0.45503 0.10376 0.00703 0.0
O299 O 0.46928 0.05098 0.06571 0.0
C300 C 0.57263 0.01129 0.94776 0.0
O301 O 0.5451 0.0689 0.06151 0.0
C302 C 0.57326 0.93678 0.00192 0.0
O303 O 0.48512 0.97076 0.06124 0.0
C304 C 0.52217 0.07702 0.95109 0.0
O305 O 0.45632 0.04961 0.95464 0.0
O306 O 0.4665 0.01566 0.96766 0.0
C307 C 0.60247 0.07914 0.00311 0.0
O308 O 0.56828 0.98986 0.94742 0.0
O309 O 0.56392 0.02323 0.96436 0.0
C310 C 0.50176 0.95904 0.94821 0.0
O311 O 0.54463 0.07462 0.94986 0.0
O312 O 0.51127 0.06784 0.96804 0.0
C313 C 0.42482 0.96406 0.00463 0.0
O314 O 0.47954 0.96252 0.95008 0.0
O315 O 0.5154 0.96966 0.96217 0.0
C316 C 0.57204 0.00815 0.05734 0.0
O317 O 0.5759 0.01642 0.03632 0.0
C318 C 0.45929 0.03149 0.0643 0.0
O319 O 0.4576 0.0216 0.04375 0.0
Zn320 Zn 0.98214 0.49729 0.96945 0.0
Zn321 Zn 0.97426 0.55269 0.97798 0.0
O322 O -0.00153 0.52689 0.98057 0.0
H323 H 0.00798 0.52616 0.9946 0.0
C324 C 0.97227 0.45867 0.0171 0.0
O325 O 0.99196 0.46387 0.006 0.0
Zn326 Zn 0.0535 0.55448 0.03869 0.0
Zn327 Zn 0.04451 0.49937 0.04827 0.0
O328 O 0.02838 0.52997 0.04041 0.0
H329 H 0.03425 0.5147 0.04382 0.0
Zn330 Zn 0.98337 0.49739 0.05124 0.0
O331 O 0.97996 0.52701 0.03367 0.0
Zn332 Zn 0.97733 0.55307 0.05712 0.0
H333 H 0.97096 0.5253 0.0194 0.0
Zn334 Zn 0.04897 0.49842 0.95745 0.0
O335 O 0.04756 0.52622 0.9789 0.0
H336 H 0.05373 0.52529 0.99464 0.0
Zn337 Zn 0.04751 0.553 0.95635 0.0
C338 C 0.06628 0.4618 0.99137 0.0
O339 O 0.06104 0.47633 0.00822 0.0
O340 O 0.9478 0.50289 0.96026 0.0
O341 O 0.9436 0.5408 0.96427 0.0
O342 O 0.08 0.50388 0.05521 0.0
O343 O 0.08483 0.5414 0.04911 0.0
O344 O 0.971 0.50212 0.08455 0.0
O345 O 0.96444 0.53993 0.08733 0.0
C346 C 0.00341 0.57782 0.94401 0.0
O347 O 0.06593 0.50659 0.92685 0.0
O348 O 0.07017 0.54455 0.93093 0.0
O349 O 0.02895 0.47532 0.07078 0.0
C350 C 0.93538 0.52115 0.9586 0.0
O351 O -0.00286 0.46693 0.95511 0.0
C352 C 0.02464 0.58252 0.06785 0.0
O353 O 0.96636 0.46988 0.03532 0.0
C354 C 0.09299 0.52177 0.05514 0.0
O355 O 0.06198 0.4673 0.97026 0.0
C356 C 0.95481 0.57877 0.02204 0.0
O357 O 0.98549 0.57816 0.95747 0.0
O358 O 0.01514 0.55912 0.94179 0.0
C359 C 0.96328 0.51958 0.09576 0.0
O360 O 0.04575 0.58048 0.06033 0.0
O361 O 0.00951 0.5679 0.06068 0.0
C362 C 0.06097 0.58325 0.99367 0.0
O363 O 0.95527 0.57724 0.0442 0.0
O364 O 0.9677 0.56482 0.01044 0.0
C365 C 0.07464 0.5257 0.92036 0.0
O366 O 0.0589 0.5821 0.9716 0.0
O367 O 0.05532 0.56565 0.00555 0.0
C368 C 0.02326 0.45539 0.06357 0.0
O369 O 0.02539 0.45063 0.04121 0.0
C370 C 0.01047 0.46544 0.93717 0.0
O371 O 0.01756 0.48431 0.92673 0.0
Zn372 Zn 0.48869 0.48282 0.98476 0.0
Zn373 Zn 0.48339 0.48096 0.04155 0.0
O374 O 0.49566 0.50066 0.0149 0.0
H375 H 0.49495 0.51722 0.0143 0.0
C376 C 0.52094 0.44724 0.94869 0.0
O377 O 0.51053 0.44023 0.96795 0.0
Zn378 Zn 0.54886 0.55717 0.04071 0.0
Zn379 Zn 0.53829 0.55502 0.9847 0.0
O380 O 0.53552 0.53682 0.01524 0.0
H381 H 0.53659 0.52027 0.01474 0.0
Zn382 Zn 0.55115 0.47282 0.98285 0.0
O383 O 0.53138 0.46908 0.01281 0.0
Zn384 Zn 0.55511 0.47274 0.03886 0.0
H385 H 0.5174 0.45952 0.01381 0.0
Zn386 Zn 0.4845 0.56721 0.98336 0.0
O387 O 0.50249 0.57067 0.01427 0.0
H388 H 0.51627 0.58044 0.0157 0.0
Zn389 Zn 0.47796 0.56628 0.03966 0.0
C390 C 0.51016 0.59679 0.94883 0.0
O391 O 0.51533 0.60863 0.96773 0.0
O392 O 0.46684 0.45536 0.98998 0.0
O393 O 0.4626 0.45635 0.02861 0.0
O394 O 0.55906 0.58378 0.98836 0.0
O395 O 0.5695 0.58069 0.02585 0.0
O396 O 0.58599 0.4634 0.98909 0.0
O397 O 0.58641 0.46013 0.02795 0.0
C398 C 0.46131 0.52144 0.06242 0.0
O399 O 0.44958 0.57625 0.98855 0.0
O400 O 0.44658 0.57776 0.02743 0.0
O401 O 0.54656 0.5381 0.95353 0.0
C402 C 0.45782 0.44766 0.00875 0.0
O403 O 0.48032 0.49829 0.95294 0.0
C404 C 0.57058 0.51745 0.06294 0.0
O405 O 0.53804 0.46144 0.95028 0.0
C406 C 0.57129 0.59021 0.00589 0.0
O407 O 0.49836 0.57827 0.95095 0.0
C408 C 0.52366 0.45373 0.07372 0.0
O409 O 0.46258 0.49965 0.06247 0.0
O410 O 0.47456 0.53271 0.04848 0.0
C411 C 0.5965 0.45803 0.0081 0.0
O412 O 0.5693 0.53923 0.06269 0.0
O413 O 0.5587 0.5061 0.04792 0.0
C414 C 0.50958 0.58493 0.07361 0.0
O415 O 0.54502 0.45469 0.06663 0.0
O416 O 0.50737 0.46387 0.06206 0.0
C417 C 0.43765 0.58036 0.00705 0.0
O418 O 0.48774 0.58442 0.06792 0.0
O419 O 0.52464 0.57424 0.06093 0.0
C420 C 0.56344 0.52345 0.95295 0.0
O421 O 0.57373 0.5174 0.97267 0.0
C422 C 0.46681 0.51573 0.95042 0.0
O423 O 0.4595 0.52704 0.96898 0.0
Zn424 Zn 0.96871 0.49519 0.48059 0.0
Zn425 Zn 0.96824 0.55051 0.47931 0.0
O426 O 0.98956 0.52308 0.48374 0.0
H427 H 0.00588 0.52255 0.4889 0.0
C428 C 0.93936 0.46492 0.51907 0.0
O429 O 0.93188 0.48626 0.51695 0.0
Zn430 Zn 0.06054 0.55106 0.53965 0.0
Zn431 Zn 0.06018 0.49691 0.53688 0.0
O432 O 0.04028 0.52492 0.52949 0.0
H433 H 0.02405 0.52505 0.52404 0.0
Zn434 Zn 0.97129 0.48929 0.5493 0.0
O435 O 0.96954 0.51939 0.53154 0.0
Zn436 Zn 0.97346 0.54423 0.55547 0.0
H437 H 0.95997 0.52069 0.5176 0.0
Zn438 Zn 0.06108 0.49578 0.46728 0.0
O439 O 0.06223 0.52365 0.48859 0.0
H440 H 0.07374 0.52348 0.50109 0.0
Zn441 Zn 0.05613 0.55082 0.4682 0.0
C442 C 0.08989 0.46593 0.49743 0.0
O443 O 0.0947 0.48595 0.50689 0.0
O444 O 0.93825 0.50291 0.46253 0.0
O445 O 0.93824 0.54133 0.46179 0.0
O446 O 0.0885 0.50364 0.55896 0.0
O447 O 0.08323 0.54106 0.5653 0.0
O448 O 0.95701 0.49462 0.58195 0.0
O449 O 0.96088 0.53245 0.58667 0.0
C450 C 0.00885 0.5735 0.45914 0.0
O451 O 0.0739 0.50509 0.43506 0.0
O452 O 0.07182 0.54335 0.43685 0.0
O453 O 0.04145 0.46803 0.54563 0.0
C454 C 0.92888 0.52201 0.45655 0.0
O455 O 0.98463 0.46474 0.47061 0.0
C456 C 0.01741 0.57261 0.55686 0.0
O457 O 0.95735 0.46087 0.53194 0.0
C458 C 0.09398 0.52213 0.56962 0.0
O459 O 0.07545 0.46511 0.48032 0.0
C460 C 0.94837 0.57497 0.52541 0.0
O461 O 0.98642 0.57458 0.46197 0.0
O462 O 0.02044 0.5563 0.46696 0.0
C463 C 0.95401 0.51282 0.59408 0.0
O464 O 0.0392 0.57608 0.55196 0.0
O465 O 0.00839 0.55287 0.55363 0.0
C466 C 0.08205 0.58011 0.50161 0.0
O467 O 0.95215 0.57139 0.54699 0.0
O468 O 0.9598 0.56239 0.5111 0.0
C469 C 0.07776 0.52484 0.42617 0.0
O470 O 0.07203 0.5793 0.48164 0.0
O471 O 0.08281 0.56191 0.51388 0.0
C472 C 0.02467 0.47092 0.56021 0.0
O473 O 0.01943 0.49191 0.56713 0.0
C474 C 0.00469 0.46505 0.46043 0.0
O475 O 0.01566 0.48478 0.4578 0.0
Zn476 Zn 0.47709 0.99463 0.4664 0.0
Zn477 Zn 0.46598 0.05038 0.47089 0.0
O478 O 0.49232 0.02635 0.46775 0.0
H479 H 0.50722 0.02827 0.45963 0.0
C480 C 0.46427 0.95583 0.5099 0.0
O481 O 0.48707 0.95097 0.50852 0.0
Zn482 Zn 0.55754 0.06065 0.5451 0.0
Zn483 Zn 0.55719 0.00361 0.5499 0.0
O484 O 0.53629 0.03233 0.54912 0.0
H485 H 0.52128 0.03161 0.55726 0.0
Zn486 Zn 0.4823 0.99777 0.53433 0.0
O487 O 0.48957 0.03016 0.52227 0.0
Zn488 Zn 0.4821 0.05309 0.54823 0.0
H489 H 0.48674 0.01425 0.52617 0.0
Zn490 Zn 0.55052 0.0001 0.48257 0.0
O491 O 0.53842 0.03207 0.49374 0.0
H492 H 0.54361 0.01656 0.49031 0.0
Zn493 Zn 0.5417 0.05498 0.46676 0.0
C494 C 0.56976 0.95895 0.50842 0.0
O495 O 0.54716 0.95367 0.51018 0.0
O496 O 0.44088 0.99799 0.46271 0.0
O497 O 0.43513 0.03597 0.46142 0.0
O498 O 0.5917 0.01361 0.55577 0.0
O499 O 0.59007 0.05202 0.55616 0.0
O500 O 0.47759 0.99825 0.56991 0.0
O501 O 0.47351 0.03573 0.57732 0.0
C502 C 0.49469 0.0836 0.44882 0.0
O503 O 0.55917 0.00084 0.44775 0.0
O504 O 0.55449 0.03796 0.43891 0.0
O505 O 0.54729 0.97437 0.56979 0.0
C506 C 0.42734 0.01543 0.45987 0.0
O507 O 0.49148 0.96872 0.44456 0.0
C508 C 0.52228 0.08849 0.56457 0.0
O509 O 0.45792 0.97521 0.51831 0.0
C510 C 0.60148 0.03315 0.55879 0.0
O511 O 0.57537 0.9784 0.49982 0.0
C512 C 0.45121 0.0749 0.51719 0.0
O513 O 0.47302 0.07814 0.45145 0.0
O514 O 0.51036 0.07008 0.45735 0.0
C515 C 0.47334 0.01478 0.58397 0.0
O516 O 0.54477 0.08811 0.56314 0.0
O517 O 0.51115 0.07178 0.55546 0.0
C518 C 0.57001 0.08223 0.4965 0.0
O519 O 0.45568 0.07444 0.53891 0.0
O520 O 0.46288 0.06121 0.50408 0.0
C521 C 0.56029 0.01744 0.4333 0.0
O522 O 0.56515 0.07953 0.47502 0.0
O523 O 0.55939 0.0693 0.51109 0.0
C524 C 0.53018 0.9605 0.56613 0.0
O525 O 0.51566 0.96433 0.54857 0.0
C526 C 0.50918 0.95576 0.44926 0.0
O527 O 0.5208 0.95893 0.4689 0.0
H528 H 0.19529 0.24292 0.5006 0.0
H529 H 0.16236 0.21597 0.50341 0.0
H530 H 0.20393 0.17292 0.54952 0.0
H531 H 0.23668 0.2005 0.54777 0.0
H532 H 0.16249 0.17144 0.49017 0.0
H533 H 0.14141 0.17798 0.58482 0.0
H534 H 0.16016 0.19846 0.57 0.0
H535 H 0.17189 0.17091 0.57863 0.0
C536 C 0.19729 0.22797 0.51174 0.0
C537 C 0.21849 0.22399 0.52422 0.0
C538 C 0.17851 0.21252 0.5132 0.0
C539 C 0.18054 0.19272 0.52706 0.0
C540 C 0.20179 0.18842 0.53923 0.0
H541 H 0.09881 0.06935 0.53297 0.0
H542 H 0.12498 0.10109 0.54379 0.0
C543 C 0.2206 0.20401 0.53793 0.0
C544 C 0.16084 0.17601 0.52751 0.0
H545 H 0.12174 0.14839 0.56345 0.0
C546 C 0.15346 0.16654 0.50616 0.0
C547 C 0.14921 0.16963 0.54846 0.0
C548 C 0.1559 0.17991 0.57177 0.0
C549 C 0.13495 0.15061 0.50517 0.0
C550 C 0.12326 0.14425 0.52608 0.0
C551 C 0.13065 0.15357 0.54749 0.0
C552 C 0.10417 0.12697 0.52574 0.0
C553 C 0.12841 0.14029 0.48177 0.0
C554 C 0.08309 0.13141 0.51337 0.0
C555 C 0.06818 0.11329 0.50717 0.0
C556 C 0.074 0.09068 0.51368 0.0
C557 C 0.09368 0.08669 0.52825 0.0
C558 C 0.10873 0.10478 0.53427 0.0
H559 H 0.14229 0.1434 0.46833 0.0
H560 H 0.12563 0.12145 0.48332 0.0
H561 H 0.11155 0.14818 0.47551 0.0
H562 H 0.07922 0.14853 0.50688 0.0
H563 H 0.05304 0.11672 0.49593 0.0
H564 H 0.82847 0.24347 0.46933 0.0
H565 H 0.86045 0.21531 0.46514 0.0
H566 H 0.82837 0.17317 0.51843 0.0
H567 H 0.79639 0.2017 0.52328 0.0
H568 H 0.89208 0.19774 0.50229 0.0
H569 H 0.83699 0.13119 0.45855 0.0
H570 H 0.82822 0.16112 0.46002 0.0
H571 H 0.82496 0.14294 0.48518 0.0
C572 C 0.82834 0.22839 0.48045 0.0
C573 C 0.80997 0.22484 0.49676 0.0
C574 C 0.84655 0.21229 0.47788 0.0
C575 C 0.84652 0.1922 0.49129 0.0
C576 C 0.82838 0.18854 0.50771 0.0
H577 H 0.92501 0.07601 0.52328 0.0
H578 H 0.89575 0.1051 0.5123 0.0
C579 C 0.81017 0.20476 0.51043 0.0
C580 C 0.86559 0.17508 0.48809 0.0
H581 H 0.87575 0.11982 0.47079 0.0
C582 C 0.88871 0.18077 0.49514 0.0
C583 C 0.86095 0.1532 0.47846 0.0
C584 C 0.83649 0.14671 0.46991 0.0
C585 C 0.90716 0.16448 0.49422 0.0
C586 C 0.9023 0.14221 0.48547 0.0
C587 C 0.87941 0.13699 0.47729 0.0
C588 C 0.91931 0.12307 0.48865 0.0
C589 C 0.93124 0.17078 0.50398 0.0
C590 C 0.94201 0.1231 0.47832 0.0
C591 C 0.95886 0.1064 0.4847 0.0
C592 C 0.95291 0.08961 0.50126 0.0
C593 C 0.92984 0.08889 0.51044 0.0
C594 C 0.91315 0.10542 0.50413 0.0
H595 H 0.93094 0.18762 0.51319 0.0
H596 H 0.93758 0.15739 0.51639 0.0
H597 H 0.94428 0.17187 0.48947 0.0
H598 H 0.94695 0.1365 0.46612 0.0
H599 H 0.97675 0.10738 0.47778 0.0
H600 H 0.79958 0.82755 0.46641 0.0
H601 H 0.83221 0.85513 0.46367 0.0
H602 H 0.8634 0.82675 0.52643 0.0
H603 H 0.83106 0.79861 0.52878 0.0
H604 H 0.84442 0.88793 0.49468 0.0
H605 H 0.91976 0.82717 0.48254 0.0
H606 H 0.8891 0.8184 0.47982 0.0
H607 H 0.9025 0.82143 0.50825 0.0
C608 C 0.81348 0.82723 0.47956 0.0
C609 C 0.81301 0.81106 0.49777 0.0
C610 C 0.83209 0.84287 0.47794 0.0
C611 C 0.85042 0.84265 0.49457 0.0
C612 C 0.84978 0.82672 0.51303 0.0
H613 H 0.96551 0.92523 0.53678 0.0
H614 H 0.93818 0.8944 0.52699 0.0
C615 C 0.8313 0.81083 0.51447 0.0
C616 C 0.86954 0.8599 0.4932 0.0
H617 H 0.92978 0.8661 0.49141 0.0
C618 C 0.8631 0.88323 0.49368 0.0
C619 C 0.89381 0.85358 0.49182 0.0
C620 C 0.90173 0.82878 0.49035 0.0
C621 C 0.88035 0.90052 0.49398 0.0
C622 C 0.90472 0.89421 0.49317 0.0
C623 C 0.9111 0.87086 0.49191 0.0
C624 C 0.92376 0.91135 0.49635 0.0
C625 C 0.87226 0.92524 0.49636 0.0
C626 C 0.92557 0.93062 0.48167 0.0
C627 C 0.94088 0.94858 0.48752 0.0
C628 C 0.95499 0.94718 0.50779 0.0
C629 C 0.95477 0.9269 0.52113 0.0
C630 C 0.93915 0.90922 0.51554 0.0
H631 H 0.85341 0.92657 0.50209 0.0
H632 H 0.88348 0.93466 0.50914 0.0
H633 H 0.87375 0.93392 0.47915 0.0
H634 H 0.91438 0.93223 0.46632 0.0
H635 H 0.94092 0.9639 0.47676 0.0
H636 H 0.2004 0.79866 0.48107 0.0
H637 H 0.16576 0.8246 0.48308 0.0
H638 H 0.18841 0.84765 0.55131 0.0
H639 H 0.22344 0.82249 0.54885 0.0
H640 H 0.12855 0.82797 0.51501 0.0
H641 H 0.18315 0.90744 0.51553 0.0
H642 H 0.19548 0.8796 0.50841 0.0
H643 H 0.19028 0.88746 0.53842 0.0
C644 C 0.1979 0.80939 0.49639 0.0
C645 C 0.21458 0.80904 0.51464 0.0
C646 C 0.17816 0.82405 0.49759 0.0
C647 C 0.1748 0.83831 0.51717 0.0
C648 C 0.19103 0.83724 0.53579 0.0
H649 H 0.07833 0.95386 0.53702 0.0
H650 H 0.10407 0.92106 0.54625 0.0
C651 C 0.21094 0.82291 0.53441 0.0
C652 C 0.1547 0.8548 0.51782 0.0
H653 H 0.14185 0.91212 0.52013 0.0
C654 C 0.13139 0.84638 0.51621 0.0
C655 C 0.15851 0.87878 0.51949 0.0
C656 C 0.18319 0.88892 0.52035 0.0
C657 C 0.11172 0.86137 0.51616 0.0
C658 C 0.11558 0.88538 0.51736 0.0
C659 C 0.13889 0.8937 0.51945 0.0
C660 C 0.09616 0.90246 0.51438 0.0
C661 C 0.08706 0.85131 0.51491 0.0
C662 C 0.08251 0.90249 0.49382 0.0
C663 C 0.06756 0.92104 0.48866 0.0
C664 C 0.06641 0.94015 0.50374 0.0
C665 C 0.07893 0.93945 0.52501 0.0
C666 C 0.09366 0.92073 0.5303 0.0
H667 H 0.08665 0.83373 0.52253 0.0
H668 H 0.07388 0.86226 0.52421 0.0
H669 H 0.08162 0.8499 0.4963 0.0
H670 H 0.08455 0.88891 0.48099 0.0
H671 H 0.05822 0.92108 0.47208 0.0
H672 H 0.46769 0.24237 0.19931 0.0
H673 H 0.46686 0.21154 0.17012 0.0
H674 H 0.5136 0.17046 0.21314 0.0
H675 H 0.51503 0.20128 0.24214 0.0
H676 H 0.50943 0.19465 0.14817 0.0
H677 H 0.45977 0.12528 0.1935 0.0
H678 H 0.45769 0.15516 0.2021 0.0
H679 H 0.4833 0.13834 0.21011 0.0
C680 C 0.47774 0.22675 0.20259 0.0
C681 C 0.49143 0.22428 0.22304 0.0
C682 C 0.47706 0.20911 0.18602 0.0
C683 C 0.48984 0.18865 0.18974 0.0
C684 C 0.50315 0.18592 0.21028 0.0
H685 H 0.53896 0.0767 0.10503 0.0
H686 H 0.52599 0.10093 0.13767 0.0
C687 C 0.50395 0.20357 0.2268 0.0
C688 C 0.49131 0.17119 0.17107 0.0
H689 H 0.47966 0.11498 0.15817 0.0
C690 C 0.50266 0.17732 0.1502 0.0
C691 C 0.48272 0.14856 0.17405 0.0
C692 C 0.47001 0.14139 0.19607 0.0
C693 C 0.50614 0.16124 0.1323 0.0
C694 C 0.4975 0.13861 0.13519 0.0
C695 C 0.48603 0.13244 0.15602 0.0
C696 C 0.50136 0.12108 0.11693 0.0
C697 C 0.51975 0.16838 0.11074 0.0
C698 C 0.49091 0.1238 0.09483 0.0
C699 C 0.4984 0.11017 0.07613 0.0
C700 C 0.51637 0.09356 0.07933 0.0
C701 C 0.5253 0.08957 0.10197 0.0
C702 C 0.51784 0.10329 0.12065 0.0
H703 H 0.5294 0.18481 0.1134 0.0
H704 H 0.53282 0.15489 0.10564 0.0
H705 H 0.50714 0.17076 0.09599 0.0
H706 H 0.47794 0.13732 0.09177 0.0
H707 H 0.49101 0.11352 0.05897 0.0
H708 H 0.79303 0.53271 0.23386 0.0
H709 H 0.82704 0.53292 0.20732 0.0
H710 H 0.80798 0.46544 0.1823 0.0
H711 H 0.77341 0.46524 0.20899 0.0
H712 H 0.86001 0.47792 0.20463 0.0
H713 H 0.82659 0.53112 0.13044 0.0
H714 H 0.81749 0.53911 0.15957 0.0
H715 H 0.80738 0.51252 0.14726 0.0
C716 C 0.79593 0.51806 0.22245 0.0
C717 C 0.78091 0.49888 0.22343 0.0
C718 C 0.81524 0.51823 0.20734 0.0
C719 C 0.81984 0.49921 0.19303 0.0
C720 C 0.80448 0.48025 0.19331 0.0
H721 H 0.94864 0.47815 0.11279 0.0
H722 H 0.91493 0.47177 0.13851 0.0
C723 C 0.78486 0.48016 0.20839 0.0
C724 C 0.84185 0.49897 0.17925 0.0
H725 H 0.8682 0.5252 0.13289 0.0
C726 C 0.86186 0.48788 0.1887 0.0
C727 C 0.84398 0.51236 0.15884 0.0
C728 C 0.82274 0.52443 0.14824 0.0
C729 C 0.88438 0.49052 0.17856 0.0
C730 C 0.88663 0.50431 0.15835 0.0
C731 C 0.8664 0.51485 0.14857 0.0
C732 C 0.90966 0.5078 0.1466 0.0
C733 C 0.90566 0.47935 0.19005 0.0
C734 C 0.91825 0.53017 0.14318 0.0
C735 C 0.93743 0.53398 0.12822 0.0
C736 C 0.94818 0.51543 0.11643 0.0
C737 C 0.94081 0.49287 0.12158 0.0
C738 C 0.92152 0.48912 0.13635 0.0
H739 H 0.90189 0.47438 0.20844 0.0
H740 H 0.91053 0.46352 0.18027 0.0
H741 H 0.92123 0.49104 0.18985 0.0
H742 H 0.9093 0.54478 0.15108 0.0
H743 H 0.94276 0.55153 0.12473 0.0
H744 H 0.52713 0.79862 0.19657 0.0
H745 H 0.52436 0.83113 0.1696 0.0
H746 H 0.57247 0.86997 0.21296 0.0
H747 H 0.57563 0.83725 0.24001 0.0
H748 H 0.50917 0.8782 0.18581 0.0
H749 H 0.59801 0.87374 0.14257 0.0
H750 H 0.58487 0.84882 0.15621 0.0
H751 H 0.59616 0.87169 0.17399 0.0
C752 C 0.53754 0.81388 0.2001 0.0
C753 C 0.55172 0.8154 0.22027 0.0
C754 C 0.53578 0.83246 0.18482 0.0
C755 C 0.54826 0.85279 0.18937 0.0
C756 C 0.56285 0.85429 0.20919 0.0
H757 H 0.50486 0.97077 0.10215 0.0
H758 H 0.52142 0.95101 0.13645 0.0
C759 C 0.56456 0.83569 0.22458 0.0
C760 C 0.54495 0.87261 0.17367 0.0
H761 H 0.57012 0.90003 0.12726 0.0
C762 C 0.5226 0.88339 0.17327 0.0
C763 C 0.56261 0.87914 0.15749 0.0
C764 C 0.5868 0.8678 0.15736 0.0
C765 C 0.51693 0.89975 0.15616 0.0
C766 C 0.53423 0.90552 0.13923 0.0
C767 C 0.55702 0.89561 0.14041 0.0
C768 C 0.52774 0.9189 0.11826 0.0
C769 C 0.492 0.90953 0.15534 0.0
C770 C 0.5268 0.90761 0.09662 0.0
C771 C 0.51755 0.9188 0.07708 0.0
C772 C 0.50895 0.94146 0.07891 0.0
C773 C 0.51104 0.95318 0.10035 0.0
C774 C 0.52048 0.94196 0.11991 0.0
H775 H 0.47997 0.90112 0.16812 0.0
H776 H 0.49252 0.9282 0.1594 0.0
H777 H 0.48434 0.90751 0.13755 0.0
H778 H 0.5323 0.88977 0.09507 0.0
H779 H 0.51631 0.90936 0.06079 0.0
H780 H 0.22337 0.51135 0.23394 0.0
H781 H 0.19577 0.50792 0.201 0.0
H782 H 0.22963 0.56539 0.16705 0.0
H783 H 0.25752 0.56869 0.19982 0.0
H784 H 0.16387 0.53789 0.17973 0.0
H785 H 0.23733 0.51315 0.1197 0.0
H786 H 0.24099 0.51437 0.15104 0.0
H787 H 0.24168 0.54034 0.13397 0.0
C788 C 0.22463 0.52348 0.21961 0.0
C789 C 0.24267 0.5401 0.21915 0.0
C790 C 0.20896 0.52145 0.20084 0.0
C791 C 0.21117 0.53603 0.18145 0.0
C792 C 0.22816 0.5536 0.18164 0.0
H793 H 0.12492 0.55665 0.06045 0.0
H794 H 0.15627 0.55832 0.08994 0.0
C795 C 0.24396 0.55552 0.20031 0.0
C796 C 0.19637 0.5322 0.16059 0.0
H797 H 0.19942 0.51966 0.10232 0.0
C798 C 0.17159 0.5338 0.16283 0.0
C799 C 0.20663 0.52658 0.1387 0.0
C800 C 0.2331 0.52327 0.13568 0.0
C801 C 0.15676 0.5305 0.14348 0.0
C802 C 0.1671 0.52552 0.12153 0.0
C803 C 0.19178 0.5236 0.11929 0.0
C804 C 0.15225 0.52291 0.10066 0.0
C805 C 0.13014 0.5326 0.14639 0.0
C806 C 0.14081 0.50202 0.0963 0.0
C807 C 0.12296 0.50091 0.07941 0.0
C808 C 0.11625 0.52081 0.06698 0.0
C809 C 0.12951 0.54109 0.06987 0.0
C810 C 0.14738 0.54213 0.08672 0.0
H811 H 0.125 0.53731 0.16455 0.0
H812 H 0.12302 0.54584 0.13423 0.0
H813 H 0.12163 0.51599 0.14185 0.0
H814 H 0.14461 0.48704 0.10696 0.0
H815 H 0.11322 0.48499 0.0775 0.0
H816 H 0.4992 0.795 0.81132 0.0
H817 H 0.50213 0.82487 0.84154 0.0
H818 H 0.56286 0.85374 0.80617 0.0
H819 H 0.55962 0.82434 0.77572 0.0
H820 H 0.53898 0.83516 0.87154 0.0
H821 H 0.51929 0.9091 0.81271 0.0
H822 H 0.51449 0.87965 0.80401 0.0
H823 H 0.54399 0.89145 0.80384 0.0
C824 C 0.51311 0.80778 0.81007 0.0
C825 C 0.52902 0.80763 0.79117 0.0
C826 C 0.51481 0.82475 0.82727 0.0
C827 C 0.53252 0.84166 0.82585 0.0
C828 C 0.54874 0.84118 0.80726 0.0
H829 H 0.54792 0.95067 0.93386 0.0
H830 H 0.56096 0.9223 0.90442 0.0
C831 C 0.54689 0.8244 0.78994 0.0
C832 C 0.53385 0.85983 0.84384 0.0
H833 H 0.52721 0.91766 0.85218 0.0
C834 C 0.53676 0.85323 0.86729 0.0
C835 C 0.53093 0.88339 0.83816 0.0
C836 C 0.5268 0.89139 0.81336 0.0
C837 C 0.53594 0.86954 0.88533 0.0
C838 C 0.53229 0.8929 0.87967 0.0
C839 C 0.53045 0.89968 0.85624 0.0
C840 C 0.52547 0.90963 0.89774 0.0
C841 C 0.53761 0.86171 0.91041 0.0
C842 C 0.50139 0.91168 0.9034 0.0
C843 C 0.49395 0.9278 0.91979 0.0
C844 C 0.51051 0.94215 0.93097 0.0
C845 C 0.5348 0.9399 0.92548 0.0
C846 C 0.54226 0.92375 0.90877 0.0
H847 H 0.54368 0.84354 0.91184 0.0
H848 H 0.55004 0.87288 0.92031 0.0
H849 H 0.51983 0.86327 0.91873 0.0
H850 H 0.48827 0.90084 0.89498 0.0
H851 H 0.47513 0.9289 0.92372 0.0
H852 H 0.2305 0.51082 0.75562 0.0
H853 H 0.19551 0.50797 0.78064 0.0
H854 H 0.22858 0.55276 0.8312 0.0
H855 H 0.2633 0.55666 0.8057 0.0
H856 H 0.19235 0.49213 0.82634 0.0
H857 H 0.16422 0.58356 0.81894 0.0
H858 H 0.18605 0.57077 0.79969 0.0
H859 H 0.19435 0.57979 0.82866 0.0
C860 C 0.2302 0.52036 0.77191 0.0
C861 C 0.24947 0.53425 0.77859 0.0
C862 C 0.21032 0.51852 0.78623 0.0
C863 C 0.20945 0.53044 0.80747 0.0
C864 C 0.22886 0.54381 0.81457 0.0
H865 H 0.11521 0.54984 0.92089 0.0
H866 H 0.14745 0.54833 0.89247 0.0
C867 C 0.24873 0.54581 0.80015 0.0
C868 C 0.18819 0.52877 0.82226 0.0
H869 H 0.14462 0.56105 0.84756 0.0
C870 C 0.18175 0.50711 0.83094 0.0
C871 C 0.17442 0.54839 0.82784 0.0
C872 C 0.17994 0.57191 0.81812 0.0
C873 C 0.16238 0.50471 0.84612 0.0
C874 C 0.14906 0.52449 0.85225 0.0
C875 C 0.15504 0.54597 0.84286 0.0
C876 C 0.12989 0.52391 0.86969 0.0
C877 C 0.15696 0.48127 0.85611 0.0
C878 C 0.10947 0.51052 0.86627 0.0
C879 C 0.0912 0.51104 0.88278 0.0
C880 C 0.09296 0.52553 0.90233 0.0
C881 C 0.11331 0.53897 0.9056 0.0
C882 C 0.13173 0.538 0.88951 0.0
H883 H 0.17203 0.46905 0.8537 0.0
H884 H 0.1528 0.48247 0.87505 0.0
H885 H 0.14122 0.47405 0.84703 0.0
H886 H 0.10756 0.49993 0.8508 0.0
H887 H 0.0756 0.50046 0.88014 0.0
H888 H 0.46108 0.24632 0.82039 0.0
H889 H 0.4638 0.21667 0.85043 0.0
H890 H 0.50117 0.17228 0.80227 0.0
H891 H 0.5012 0.20252 0.77321 0.0
H892 H 0.44855 0.17425 0.85501 0.0
H893 H 0.54697 0.17176 0.85461 0.0
H894 H 0.53039 0.19337 0.83886 0.0
H895 H 0.53521 0.16525 0.82629 0.0
C896 C 0.47037 0.23048 0.81626 0.0
C897 C 0.48126 0.2272 0.79428 0.0
C898 C 0.47158 0.21338 0.83341 0.0
C899 C 0.48327 0.19248 0.82883 0.0
C900 C 0.49277 0.18857 0.80651 0.0
H901 H 0.52477 0.07158 0.90433 0.0
H902 H 0.51039 0.09842 0.87448 0.0
C903 C 0.49227 0.20585 0.78964 0.0
C904 C 0.48612 0.17494 0.84746 0.0
H905 H 0.52764 0.14128 0.8745 0.0
C906 C 0.46585 0.16708 0.85938 0.0
C907 C 0.50874 0.16585 0.8534 0.0
C908 C 0.53155 0.17469 0.84279 0.0
C909 C 0.46752 0.14975 0.87645 0.0
C910 C 0.49005 0.14012 0.88166 0.0
C911 C 0.5103 0.14836 0.87012 0.0
C912 C 0.4936 0.12166 0.89917 0.0
C913 C 0.44516 0.14165 0.88841 0.0
C914 C 0.4881 0.12535 0.92285 0.0
C915 C 0.49586 0.10971 0.93984 0.0
C916 C 0.50963 0.09056 0.93332 0.0
C917 C 0.51412 0.08628 0.90962 0.0
C918 C 0.50593 0.10158 0.89264 0.0
H919 H 0.42899 0.14606 0.87811 0.0
H920 H 0.44563 0.12277 0.89132 0.0
H921 H 0.44362 0.15023 0.90569 0.0
H922 H 0.47917 0.14099 0.92837 0.0
H923 H 0.4927 0.11351 0.95812 0.0
H924 H 0.76031 0.53012 0.81735 0.0
H925 H 0.7887 0.53303 0.84958 0.0
H926 H 0.83237 0.48037 0.81772 0.0
H927 H 0.80405 0.4776 0.78514 0.0
H928 H 0.80211 0.49814 0.88015 0.0
H929 H 0.87945 0.53247 0.83065 0.0
H930 H 0.84973 0.53209 0.81864 0.0
H931 H 0.8672 0.50613 0.81958 0.0
C932 C 0.77594 0.51912 0.81729 0.0
C933 C 0.78003 0.50355 0.79895 0.0
C934 C 0.79212 0.52085 0.83559 0.0
C935 C 0.81261 0.50704 0.83584 0.0
C936 C 0.81681 0.49144 0.81755 0.0
H937 H 0.91032 0.48242 0.94848 0.0
H938 H 0.87764 0.47928 0.92061 0.0
C939 C 0.80066 0.48981 0.79908 0.0
C940 C 0.82911 0.50872 0.85571 0.0
H941 H 0.88551 0.52402 0.87069 0.0
C942 C 0.82035 0.5038 0.87813 0.0
C943 C 0.8528 0.51621 0.85285 0.0
C944 C 0.86287 0.52222 0.82917 0.0
C945 C 0.83476 0.50623 0.89793 0.0
C946 C 0.85837 0.51367 0.89503 0.0
C947 C 0.86721 0.51848 0.87265 0.0
C948 C 0.87464 0.51595 0.91492 0.0
C949 C 0.82467 0.50117 0.92181 0.0
C950 C 0.88304 0.53771 0.92132 0.0
C951 C 0.90169 0.53963 0.93726 0.0
C952 C 0.91231 0.51972 0.94662 0.0
C953 C 0.9026 0.49805 0.9414 0.0
C954 C 0.88391 0.49619 0.92557 0.0
H955 H 0.80504 0.49906 0.92136 0.0
H956 H 0.83274 0.48504 0.92862 0.0
H957 H 0.82915 0.51523 0.9342 0.0
H958 H 0.87595 0.5531 0.91313 0.0
H959 H 0.90876 0.55655 0.94097 0.0
H960 H 0.71786 0.75811 0.97661 0.0
H961 H 0.68405 0.73192 0.97563 0.0
H962 H 0.71906 0.68784 0.0258 0.0
H963 H 0.75275 0.71442 0.02749 0.0
H964 H 0.68423 0.68492 0.96365 0.0
H965 H 0.65295 0.70026 0.05449 0.0
H966 H 0.67371 0.71908 0.03998 0.0
H967 H 0.68378 0.69231 0.05234 0.0
C968 C 0.71822 0.743 0.98768 0.0
C969 C 0.73775 0.73839 0.00237 0.0
C970 C 0.69901 0.72802 0.98695 0.0
C971 C 0.69905 0.70825 0.00087 0.0
C972 C 0.71866 0.70331 0.01524 0.0
H973 H 0.61276 0.59359 0.0292 0.0
H974 H 0.64285 0.62328 0.02524 0.0
C975 C 0.73791 0.71833 0.01603 0.0
C976 C 0.67864 0.69261 0.0001 0.0
H977 H 0.63566 0.66887 0.03413 0.0
C978 C 0.67342 0.68146 0.97895 0.0
C979 C 0.66459 0.68851 0.0201 0.0
C980 C 0.66885 0.70082 0.04297 0.0
C981 C 0.65508 0.6653 0.97757 0.0
C982 C 0.64154 0.66067 -0.00219 0.0
C983 C 0.64623 0.67249 0.0187 0.0
C984 C 0.62376 0.64226 -0.00147 0.0
C985 C 0.651 0.65268 0.95485 0.0
C986 C 0.60324 0.64306 0.98455 0.0
C987 C 0.58611 0.62585 0.98653 0.0
C988 C 0.5892 0.60811 0.00292 0.0
C989 C 0.60983 0.60733 0.01671 0.0
C990 C 0.62703 0.62419 0.01442 0.0
H991 H 0.66599 0.65498 0.94243 0.0
H992 H 0.64853 0.634 0.95802 0.0
H993 H 0.6346 0.65942 0.94643 0.0
H994 H 0.60028 0.65716 0.97249 0.0
H995 H 0.57026 0.62672 0.97577 0.0
H996 H 0.29486 0.74832 0.9804 0.0
H997 H 0.3237 0.71668 0.97692 0.0
H998 H 0.29979 0.68917 0.04287 0.0
H999 H 0.27103 0.72069 0.0465 0.0
H1000 H 0.36059 0.70146 0.00847 0.0
H1001 H 0.28987 0.63629 0.99496 0.0
H1002 H 0.28455 0.66682 0.99196 0.0
H1003 H 0.28604 0.65396 0.0205 0.0
C1004 C 0.29603 0.73567 0.99428 0.0
C1005 C 0.28058 0.73666 0.01356 0.0
C1006 C 0.31237 0.71764 0.99222 0.0
C1007 C 0.31333 0.70046 0.00939 0.0
C1008 C 0.29879 0.70205 0.0292 0.0
H1009 H 0.40499 0.58824 0.04151 0.0
H1010 H 0.37192 0.61566 0.03976 0.0
C1011 C 0.28245 0.72 0.03125 0.0
C1012 C 0.32918 0.68051 0.00644 0.0
H1013 H 0.32918 0.62201 0.00122 0.0
C1014 C 0.35379 0.68411 0.00665 0.0
C1015 C 0.32005 0.658 0.00398 0.0
C1016 C 0.29368 0.65346 0.00261 0.0
C1017 C 0.36964 0.66554 0.00522 0.0
C1018 C 0.36048 0.64302 0.00335 0.0
C1019 C 0.33592 0.63941 0.00269 0.0
C1020 C 0.37649 0.62308 0.00299 0.0
C1021 C 0.39608 0.66992 0.00623 0.0
C1022 C 0.38891 0.61755 0.98255 0.0
C1023 C 0.4077 0.60186 0.98341 0.0
C1024 C 0.41438 0.59182 0.00484 0.0
C1025 C 0.40044 0.59594 0.02483 0.0
C1026 C 0.38155 0.61152 0.02388 0.0
H1027 H 0.40021 0.6883 0.00965 0.0
H1028 H 0.40437 0.65926 0.02017 0.0
H1029 H 0.40434 0.66486 0.98935 0.0
H1030 H 0.38503 0.6264 0.9663 0.0
H1031 H 0.41801 0.59895 0.96767 0.0
H1032 H 0.26878 0.32622 0.99625 0.0
H1033 H 0.30159 0.35324 0.9915 0.0
H1034 H 0.34194 0.31662 0.04398 0.0
H1035 H 0.30918 0.28935 0.0487 0.0
H1036 H 0.32382 0.38184 0.02303 0.0
H1037 H 0.38641 0.31646 0.98741 0.0
H1038 H 0.35494 0.31118 0.99054 0.0
H1039 H 0.37438 0.30896 0.01546 0.0
C1040 C 0.28449 0.32419 0.00706 0.0
C1041 C 0.28657 0.30575 0.02281 0.0
C1042 C 0.30322 0.33948 0.0042 0.0
C1043 C 0.32425 0.33652 0.01703 0.0
C1044 C 0.326 0.31875 0.03352 0.0
H1045 H 0.44387 0.41973 0.04413 0.0
H1046 H 0.4113 0.39209 0.04348 0.0
C1047 C 0.30731 0.30334 0.0363 0.0
C1048 C 0.34439 0.35203 0.01304 0.0
H1049 H 0.40291 0.35297 -0.00263 0.0
C1050 C 0.34105 0.3756 0.01721 0.0
C1051 C 0.36669 0.34372 0.00514 0.0
C1052 C 0.37081 0.31873 -0.00085 0.0
C1053 C 0.35981 0.39105 0.01451 0.0
C1054 C 0.38226 0.38256 0.00757 0.0
C1055 C 0.38551 0.35918 0.00274 0.0
C1056 C 0.40295 0.39763 0.00699 0.0
C1057 C 0.35585 0.41627 0.01954 0.0
C1058 C 0.40908 0.40922 0.98644 0.0
C1059 C 0.42774 0.42493 0.98667 0.0
C1060 C 0.44019 0.42921 0.00755 0.0
C1061 C 0.43442 0.41687 0.02787 0.0
C1062 C 0.41593 0.40111 0.02754 0.0
H1063 H 0.33696 0.42026 0.02365 0.0
H1064 H 0.36705 0.42155 0.03461 0.0
H1065 H 0.36138 0.42669 0.00422 0.0
H1066 H 0.39904 0.40658 0.97048 0.0
H1067 H 0.43179 0.43432 0.97081 0.0
H1068 H 0.76835 0.31986 0.95554 0.0
H1069 H 0.73958 0.35166 0.95669 0.0
H1070 H 0.69712 0.31419 0.00642 0.0
H1071 H 0.72597 0.28264 0.00587 0.0
H1072 H 0.68587 0.35379 0.95187 0.0
H1073 H 0.72188 0.37451 0.04009 0.0
H1074 H 0.73746 0.35604 0.01972 0.0
H1075 H 0.71225 0.34539 0.03556 0.0
C1076 C 0.75264 0.31825 0.96637 0.0
C1077 C 0.74953 0.29895 0.98084 0.0
C1078 C 0.73625 0.33633 0.96693 0.0
C1079 C 0.71662 0.33527 0.98196 0.0
C1080 C 0.71239 0.31527 0.99492 0.0
H1081 H 0.6117 0.4248 0.03768 0.0
H1082 H 0.64339 0.39705 0.03057 0.0
C1083 C 0.72876 0.2972 0.9944 0.0
C1084 C 0.70194 0.35588 0.98591 0.0
H1085 H 0.68915 0.39657 0.02698 0.0
C1086 C 0.68656 0.36331 0.96819 0.0
C1087 C 0.70314 0.36807 0.00726 0.0
C1088 C 0.71968 0.36077 0.02674 0.0
C1089 C 0.67141 0.38224 0.97163 0.0
C1090 C 0.67251 0.39448 0.99308 0.0
C1091 C 0.68846 0.38729 0.01052 0.0
C1092 C 0.6557 0.41331 -0.00129 0.0
C1093 C 0.65366 0.38815 0.95269 0.0
C1094 C 0.65286 0.43233 0.98382 0.0
C1095 C 0.63428 0.44794 0.98754 0.0
C1096 C 0.61896 0.44514 0.00669 0.0
C1097 C 0.62333 0.42741 0.02281 0.0
C1098 C 0.6414 0.41149 0.01872 0.0
H1099 H 0.65107 0.37363 0.94031 0.0
H1100 H 0.63611 0.39283 0.96027 0.0
H1101 H 0.66029 0.40303 0.94249 0.0
H1102 H 0.66434 0.43456 0.9688 0.0
H1103 H 0.63137 0.46166 0.97502 0.0
H1104 H 0.96772 0.74074 0.69272 0.0
H1105 H 0.96613 0.71246 0.66135 0.0
H1106 H 0.02158 0.67291 0.69498 0.0
H1107 H 0.02408 0.70188 0.72611 0.0
H1108 H 0.02938 0.67935 0.64837 0.0
H1109 H 0.93748 0.64861 0.66318 0.0
H1110 H 0.93918 0.67929 0.6601 0.0
H1111 H 0.95355 0.66542 0.68448 0.0
C1112 C 0.97973 0.72612 0.69339 0.0
C1113 C -0.00384 0.72356 0.71177 0.0
C1114 C 0.97852 0.70982 0.67563 0.0
C1115 C -0.00661 0.69045 0.67615 0.0
C1116 C 0.00979 0.68771 0.69449 0.0
H1117 H 0.99014 0.56795 0.5952 0.0
H1118 H 0.97988 0.59878 0.62237 0.0
C1119 C 0.01113 0.70415 0.71225 0.0
C1120 C 0.99258 0.67371 0.65684 0.0
H1121 H 0.95554 0.63779 0.62703 0.0
C1122 C 0.01329 0.67017 0.64371 0.0
C1123 C 0.97157 0.66169 0.65106 0.0
C1124 C 0.94925 0.66374 0.66559 0.0
C1125 C 0.01363 0.65487 0.62484 0.0
C1126 C 0.99233 0.64351 0.61841 0.0
C1127 C 0.97163 0.64698 0.63165 0.0
C1128 C 0.99209 0.62609 0.59963 0.0
C1129 C 0.03706 0.65044 0.61262 0.0
C1130 C 0.00051 0.63142 0.57718 0.0
C1131 C 0.00689 0.61376 0.56188 0.0
C1132 C 0.00391 0.59076 0.5686 0.0
C1133 C 0.99235 0.58561 0.58964 0.0
C1134 C 0.98661 0.60322 0.60521 0.0
H1135 H 0.05244 0.65604 0.62339 0.0
H1136 H 0.03937 0.63188 0.60852 0.0
H1137 H 0.03751 0.66027 0.596 0.0
H1138 H 0.00404 0.64907 0.57229 0.0
H1139 H 0.01563 0.61799 0.54556 0.0
H1140 H 0.31771 0.03551 0.73776 0.0
H1141 H 0.35166 0.03664 0.71087 0.0
H1142 H 0.33502 0.96799 0.68721 0.0
H1143 H 0.30062 0.96718 0.71371 0.0
H1144 H 0.38942 0.00656 0.71403 0.0
H1145 H 0.3473 0.00245 0.62622 0.0
H1146 H 0.33091 0.01007 0.65227 0.0
H1147 H 0.3375 0.98042 0.64594 0.0
C1148 C 0.32119 0.0209 0.72645 0.0
C1149 C 0.30695 0.00125 0.72757 0.0
C1150 C 0.34046 0.02153 0.71121 0.0
C1151 C 0.34568 0.00244 0.69708 0.0
C1152 C 0.33096 0.98301 0.69773 0.0
H1153 H 0.45833 0.97314 0.60014 0.0
H1154 H 0.43071 0.96748 0.63246 0.0
C1155 C 0.31151 0.98248 0.71285 0.0
C1156 C 0.3677 0.00215 0.68325 0.0
H1157 H 0.38911 0.99706 0.62783 0.0
C1158 C 0.38941 0.0045 0.69517 0.0
C1159 C 0.36745 -0.00049 0.65871 0.0
C1160 C 0.34455 0.99819 0.64497 0.0
C1161 C 0.41106 0.00411 0.68311 0.0
C1162 C 0.41079 0.00125 0.65865 0.0
C1163 C 0.38911 0.99881 0.64673 0.0
C1164 C 0.43249 0.0027 0.64452 0.0
C1165 C 0.43401 0.00677 0.69649 0.0
C1166 C 0.44352 0.02406 0.64165 0.0
C1167 C 0.4592 0.02744 0.62315 0.0
C1168 C 0.46377 0.00949 0.60726 0.0
C1169 C 0.45493 0.98738 0.61194 0.0
C1170 C 0.43915 0.98407 0.63038 0.0
H1171 H 0.43158 0.00347 0.71547 0.0
H1172 H 0.44786 0.99489 0.6896 0.0
H1173 H 0.44056 0.02463 0.69435 0.0
H1174 H 0.43839 0.03865 0.65237 0.0
H1175 H 0.46606 0.04457 0.62016 0.0
H1176 H 0.0335 0.33724 0.72826 0.0
H1177 H 0.03026 0.36558 0.69697 0.0
H1178 H 0.98516 0.31957 0.65791 0.0
H1179 H 0.98677 0.29187 0.68984 0.0
H1180 H 0.04445 0.36211 0.65299 0.0
H1181 H 0.947 0.3778 0.65418 0.0
H1182 H 0.96213 0.36214 0.67706 0.0
H1183 H 0.95481 0.34813 0.64992 0.0
C1184 C 0.0224 0.33334 0.7133 0.0
C1185 C 0.01028 0.31229 0.71169 0.0
C1186 C 0.02077 0.34947 0.69531 0.0
C1187 C 0.00715 0.34483 0.67527 0.0
C1188 C -0.00473 0.32376 0.67345 0.0
H1189 H 0.03015 0.42548 0.54919 0.0
H1190 H 0.0224 0.39277 0.57491 0.0
C1191 C -0.00343 0.30777 0.6916 0.0
C1192 C 0.00625 0.36174 0.65596 0.0
H1193 H 0.96857 0.39454 0.62281 0.0
C1194 C 0.02785 0.36918 0.64639 0.0
C1195 C 0.98456 0.37102 0.64749 0.0
C1196 C 0.96083 0.36454 0.65783 0.0
C1197 C 0.02842 0.38585 0.62875 0.0
C1198 C 0.00673 0.3948 0.61997 0.0
C1199 C 0.9851 0.3873 0.62938 0.0
C1200 C 0.00649 0.41334 0.60236 0.0
C1201 C 0.05227 0.39434 0.62027 0.0
C1202 C -0.00147 0.43538 0.60868 0.0
C1203 C 0.00274 0.45406 0.59397 0.0
C1204 C 0.01507 0.45091 0.57282 0.0
C1205 C 0.02097 0.42847 0.56558 0.0
C1206 C 0.01662 0.40979 0.58024 0.0
H1207 H 0.06696 0.38931 0.63226 0.0
H1208 H 0.05609 0.38683 0.60282 0.0
H1209 H 0.05218 0.41338 0.61852 0.0
H1210 H 0.9905 0.43837 0.62564 0.0
H1211 H -0.00218 0.47112 0.59996 0.0
H1212 H 0.71902 0.06784 0.73809 0.0
H1213 H 0.69521 0.06572 0.70205 0.0
H1214 H 0.72595 0.99929 0.68653 0.0
H1215 H 0.74971 0.00129 0.72236 0.0
H1216 H 0.72103 0.05681 0.65467 0.0
H1217 H 0.64998 0.99466 0.67899 0.0
H1218 H 0.66467 0.01254 0.70042 0.0
H1219 H 0.68003 0.98834 0.68803 0.0
C1220 C 0.72028 0.05265 0.72715 0.0
C1221 C 0.73618 0.03478 0.73272 0.0
C1222 C 0.70684 0.0515 0.70667 0.0
C1223 C 0.70899 0.03235 0.69189 0.0
C1224 C 0.7241 0.01411 0.69792 0.0
H1225 H 0.63181 0.9971 0.56686 0.0
H1226 H 0.66366 0.99653 0.59586 0.0
C1227 C 0.73766 0.01532 0.71823 0.0
C1228 C 0.69684 0.03204 0.66924 0.0
H1229 H 0.65129 0.00691 0.63981 0.0
C1230 C 0.70577 0.04594 0.6513 0.0
C1231 C 0.67731 0.01751 0.66509 0.0
C1232 C 0.66724 0.00244 0.68411 0.0
C1233 C 0.69546 0.04576 0.62902 0.0
C1234 C 0.67548 0.03167 0.62496 0.0
C1235 C 0.66682 0.0175 0.64292 0.0
C1236 C 0.66157 0.03302 0.6032 0.0
C1237 C 0.70613 0.06053 0.61008 0.0
C1238 C 0.65092 0.05396 0.59687 0.0
C1239 C 0.63297 0.05441 0.58013 0.0
C1240 C 0.62502 0.03381 0.56999 0.0
C1241 C 0.63736 0.01322 0.57462 0.0
C1242 C 0.65553 0.01283 0.59119 0.0
H1243 H 0.72544 0.06324 0.6131 0.0
H1244 H 0.70366 0.05276 0.5925 0.0
H1245 H 0.69734 0.07767 0.61027 0.0
H1246 H 0.65502 0.06966 0.60622 0.0
H1247 H 0.6239 0.07059 0.57686 0.0
H1248 H -0.00261 0.30319 0.31762 0.0
H1249 H -0.00143 0.33025 0.35061 0.0
H1250 H 0.06907 0.35127 0.33004 0.0
H1251 H 0.06746 0.32489 0.29653 0.0
H1252 H 0.02986 0.33291 0.38789 0.0
H1253 H 0.03409 0.41215 0.33354 0.0
H1254 H 0.02666 0.38445 0.32139 0.0
H1255 H 0.0571 0.39138 0.32788 0.0
C1256 C 0.01302 0.31374 0.32019 0.0
C1257 C 0.03223 0.31235 0.30461 0.0
C1258 C 0.01374 0.32905 0.33899 0.0
C1259 C 0.03378 0.34297 0.34253 0.0
C1260 C 0.05323 0.3411 0.32726 0.0
H1261 H 0.0475 0.45881 0.43845 0.0
H1262 H 0.05892 0.42675 0.41301 0.0
C1263 C 0.05235 0.32606 0.30824 0.0
C1264 C 0.03408 0.35959 0.3621 0.0
H1265 H 0.03568 0.41696 0.37429 0.0
C1266 C 0.03127 0.3513 0.38498 0.0
C1267 C 0.03612 0.38352 0.35821 0.0
C1268 C 0.03847 0.39349 0.33394 0.0
C1269 C 0.03009 0.36637 0.40412 0.0
C1270 C 0.0313 0.39036 0.40015 0.0
C1271 C 0.03489 0.39856 0.37734 0.0
C1272 C 0.02659 0.40746 0.41882 0.0
C1273 C 0.02751 0.35638 0.42834 0.0
C1274 C 0.00493 0.40698 0.43099 0.0
C1275 C -0.00146 0.42507 0.44577 0.0
C1276 C 0.01344 0.44427 0.44823 0.0
C1277 C 0.03562 0.44428 0.43687 0.0
C1278 C 0.04215 0.42599 0.42232 0.0
H1279 H 0.03569 0.33897 0.42939 0.0
H1280 H 0.03582 0.36755 0.44179 0.0
H1281 H 0.00832 0.35458 0.43247 0.0
H1282 H 0.99233 0.39324 0.42811 0.0
H1283 H 0.98129 0.42456 0.45419 0.0
H1284 H 0.74419 0.03123 0.31075 0.0
H1285 H 0.71242 0.02443 0.33865 0.0
H1286 H 0.66705 0.07202 0.30158 0.0
H1287 H 0.69916 0.07962 0.27361 0.0
H1288 H 0.66959 0.06907 0.35882 0.0
H1289 H 0.65045 0.98974 0.3072 0.0
H1290 H 0.6809 0.9968 0.31387 0.0
H1291 H 0.66428 0.01461 0.29412 0.0
C1292 C 0.72787 0.04106 0.30896 0.0
C1293 C 0.72415 0.05595 0.28986 0.0
C1294 C 0.70968 0.03691 0.32482 0.0
C1295 C 0.68753 0.04749 0.32179 0.0
C1296 C 0.68416 0.06366 0.30393 0.0
H1297 H 0.55467 0.04145 0.39296 0.0
H1298 H 0.58499 0.04546 0.36261 0.0
C1299 C 0.70243 0.06792 0.28801 0.0
C1300 C 0.6673 0.03986 0.33585 0.0
H1301 H 0.62676 0.99661 0.34054 0.0
C1302 C 0.66011 0.05333 0.35485 0.0
C1303 C 0.65545 0.01909 0.3306 0.0
C1304 C 0.66299 0.00414 0.31031 0.0
C1305 C 0.64101 0.04653 0.36885 0.0
C1306 C 0.6287 0.02609 0.36321 0.0
C1307 C 0.63617 0.0124 0.34446 0.0
C1308 C 0.60795 0.019 0.37688 0.0
C1309 C 0.63426 0.06105 0.38976 0.0
C1310 C 0.61027 0.00156 0.39361 0.0
C1311 C 0.59285 0.99901 0.41075 0.0
C1312 C 0.57326 0.01414 0.41133 0.0
C1313 C 0.56975 0.02976 0.39293 0.0
C1314 C 0.58702 0.0321 0.37569 0.0
H1315 H 0.64807 0.07403 0.39398 0.0
H1316 H 0.61734 0.07028 0.38607 0.0
H1317 H 0.63141 0.05002 0.40536 0.0
H1318 H 0.6264 0.99131 0.39461 0.0
H1319 H 0.596 0.98688 0.42482 0.0
H1320 H 0.04425 0.70135 0.28305 0.0
H1321 H 0.04884 0.67283 0.31434 0.0
H1322 H -0.00257 0.70959 0.35625 0.0
H1323 H 0.99249 0.73806 0.32495 0.0
H1324 H 0.04935 0.69529 0.37614 0.0
H1325 H 0.99114 0.62744 0.33787 0.0
H1326 H 0.01042 0.64365 0.31886 0.0
H1327 H 0.98571 0.65768 0.3327 0.0
C1328 C 0.03365 0.7031 0.29878 0.0
C1329 C 0.018 0.7218 0.30167 0.0
C1330 C 0.03645 0.68699 0.31663 0.0
C1331 C 0.02359 0.68939 0.33746 0.0
C1332 C 0.00761 0.70773 0.34026 0.0
H1333 H 0.00277 0.61932 0.46471 0.0
H1334 H 0.01313 0.649 0.4362 0.0
C1335 C 0.00479 0.72385 0.32244 0.0
C1336 C 0.02677 0.67262 0.35636 0.0
H1337 H 0.00968 0.61926 0.37371 0.0
C1338 C 0.04086 0.67857 0.37567 0.0
C1339 C 0.0156 0.651 0.35541 0.0
C1340 C -0.00024 0.6444 0.33519 0.0
C1341 C 0.04397 0.66324 0.39436 0.0
C1342 C 0.03252 0.6417 0.39355 0.0
C1343 C 0.01871 0.63571 0.37403 0.0
C1344 C 0.03255 0.62574 0.4135 0.0
C1345 C 0.05931 0.67012 0.41482 0.0
C1346 C 0.04066 0.60308 0.41041 0.0
C1347 C 0.03463 0.58616 0.4266 0.0
C1348 C 0.02055 0.59178 0.44599 0.0
C1349 C 0.01394 0.61476 0.44996 0.0
C1350 C 0.01998 0.6317 0.43381 0.0
H1351 H 0.07135 0.68454 0.41029 0.0
H1352 H 0.04773 0.6758 0.42947 0.0
H1353 H 0.07015 0.65531 0.42103 0.0
H1354 H 0.04999 0.59816 0.39459 0.0
H1355 H 0.03889 0.56842 0.42269 0.0
H1356 H 0.29348 0.04141 0.28929 0.0
H1357 H 0.31644 0.04243 0.32585 0.0
H1358 H 0.33249 0.97007 0.31819 0.0
H1359 H 0.31015 0.9693 0.28133 0.0
H1360 H 0.30451 0.01704 0.36443 0.0
H1361 H 0.39661 0.9965 0.33605 0.0
H1362 H 0.37378 0.0057 0.31585 0.0
H1363 H 0.375 0.9763 0.32564 0.0
C1364 C 0.30254 0.02598 0.29523 0.0
C1365 C 0.30047 0.00534 0.28275 0.0
C1366 C 0.31546 0.02651 0.31602 0.0
C1367 C 0.32622 0.00636 0.32454 0.0
C1368 C 0.32472 0.98588 0.31161 0.0
H1369 H 0.40697 0.97459 0.44749 0.0
H1370 H 0.37604 0.9703 0.41797 0.0
C1371 C 0.312 0.98542 0.29069 0.0
C1372 C 0.3372 0.00625 0.3479 0.0
H1373 H 0.3888 0.99461 0.37678 0.0
C1374 C 0.32296 0.01219 0.36719 0.0
C1375 C 0.36121 -0.00014 0.3513 0.0
C1376 C 0.37762 0.99444 0.3311 0.0
C1377 C 0.33214 0.01176 0.38996 0.0
C1378 C 0.35606 0.00522 0.39332 0.0
C1379 C 0.37026 0.99917 0.37406 0.0
C1380 C 0.36779 0.00664 0.41624 0.0
C1381 C 0.31627 0.01825 0.41019 0.0
C1382 C 0.37204 0.02832 0.42608 0.0
C1383 C 0.38974 0.03088 0.44292 0.0
C1384 C 0.40355 0.0118 0.44976 0.0
C1385 C 0.39694 0.98969 0.44224 0.0
C1386 C 0.37925 0.98717 0.42539 0.0
H1387 H 0.29714 0.01673 0.40555 0.0
H1388 H 0.32002 0.00727 0.42567 0.0
H1389 H 0.31971 0.0364 0.41515 0.0
H1390 H 0.36345 0.04356 0.41909 0.0
H1391 H 0.39414 0.0481 0.44871 0.0
H1392 H -0.00636 0.22702 0.27233 0.0
H1393 H 0.99265 0.19213 0.29658 0.0
H1394 H 0.06797 0.1982 0.3092 0.0
H1395 H 0.06899 0.23292 0.28491 0.0
H1396 H 0.02671 0.14701 0.3003 0.0
H1397 H 0.02657 0.21098 0.37304 0.0
H1398 H 0.01714 0.21846 0.3438 0.0
H1399 H 0.04812 0.21429 0.34999 0.0
C1400 C 0.01014 0.22014 0.27926 0.0
C1401 C 0.03145 0.23231 0.27652 0.0
C1402 C 0.00955 0.20039 0.29326 0.0
C1403 C 0.03022 0.19279 0.30476 0.0
C1404 C 0.05189 0.2038 0.30038 0.0
H1405 H 0.04982 0.08169 0.40537 0.0
H1406 H 0.055 0.10967 0.37391 0.0
C1407 C 0.0525 0.22345 0.28635 0.0
C1408 C 0.02849 0.17577 0.32389 0.0
H1409 H 0.02551 0.17184 0.38343 0.0
C1410 C 0.02653 0.15234 0.31848 0.0
C1411 C 0.02813 0.18294 0.34754 0.0
C1412 C 0.02998 0.20803 0.35413 0.0
C1413 C 0.02421 0.13579 0.33625 0.0
C1414 C 0.02386 0.14297 0.35991 0.0
C1415 C 0.0258 0.16643 0.36527 0.0
C1416 C 0.02101 0.12641 0.37937 0.0
C1417 C 0.02167 0.11079 0.32963 0.0
C1418 C 0.00049 0.12706 0.39333 0.0
C1419 C -0.00254 0.11114 0.41142 0.0
C1420 C 0.01497 0.09431 0.41586 0.0
C1421 C 0.03581 0.09417 0.4022 0.0
C1422 C 0.0388 0.1101 0.38416 0.0
H1423 H 0.0179 0.10856 0.31069 0.0
H1424 H 0.03847 0.10153 0.33375 0.0
H1425 H 0.00717 0.10267 0.33985 0.0
H1426 H 0.98664 0.13968 0.39 0.0
H1427 H 0.98128 0.11186 0.42168 0.0
H1428 H 0.79267 0.00249 0.2724 0.0
H1429 H 0.81978 0.99588 0.30523 0.0
H1430 H 0.84813 0.06412 0.2965 0.0
H1431 H 0.82041 0.07099 0.26416 0.0
H1432 H 0.86815 -0.00038 0.31878 0.0
H1433 H 0.81127 0.06725 0.3587 0.0
H1434 H 0.80429 0.05391 0.33104 0.0
H1435 H 0.82606 0.07645 0.33254 0.0
C1436 C 0.80575 0.01551 0.27655 0.0
C1437 C 0.80457 0.03723 0.26578 0.0
C1438 C 0.82097 0.01186 0.29556 0.0
C1439 C 0.83533 0.02981 0.30376 0.0
C1440 C 0.83674 0.05025 0.29074 0.0
H1441 H 0.91796 0.0646 0.42276 0.0
H1442 H 0.89124 0.06335 0.38921 0.0
C1443 C 0.82129 0.05401 0.27194 0.0
C1444 C 0.84589 0.02856 0.3275 0.0
H1445 H 0.84465 0.05495 0.3809 0.0
C1446 C 0.86302 0.01162 0.33242 0.0
C1447 C 0.83859 0.04385 0.34545 0.0
C1448 C 0.81886 0.06123 0.34181 0.0
C1449 C 0.87413 0.01048 0.35445 0.0
C1450 C 0.8676 0.02652 0.37207 0.0
C1451 C 0.84976 0.04282 0.36736 0.0
C1452 C 0.8805 0.02804 0.39469 0.0
C1453 C 0.8934 0.99269 0.35828 0.0
C1454 C 0.88212 0.00912 0.40985 0.0
C1455 C 0.89754 0.00973 0.42907 0.0
C1456 C 0.91134 0.02941 0.43359 0.0
C1457 C 0.90769 0.04914 0.4198 0.0
C1458 C 0.8925 0.0484 0.40047 0.0
H1459 H 0.89975 0.9851 0.34155 0.0
H1460 H 0.90884 0.00027 0.36758 0.0
H1461 H 0.88626 0.97852 0.36918 0.0
H1462 H 0.87234 0.99351 0.40623 0.0
H1463 H 0.89969 0.99432 0.43952 0.0
H1464 H 0.98875 0.8167 0.27191 0.0
H1465 H 0.98858 0.85 0.29838 0.0
H1466 H 0.05695 0.82905 0.32559 0.0
H1467 H 0.05748 0.79648 0.29865 0.0
H1468 H 0.98793 0.84393 0.34546 0.0
H1469 H 0.06617 0.89724 0.32229 0.0
H1470 H 0.05471 0.87536 0.30295 0.0
H1471 H 0.07308 0.86752 0.3275 0.0
C1472 C 0.00425 0.81998 0.28266 0.0
C1473 C 0.02324 0.80427 0.28308 0.0
C1474 C 0.00402 0.83876 0.29803 0.0
C1475 C 0.02278 0.84206 0.314 0.0
C1476 C 0.04252 0.82723 0.31319 0.0
H1477 H 0.0019 0.9248 0.44287 0.0
H1478 H 0.01329 0.89229 0.41756 0.0
C1479 C 0.04284 0.80864 0.29773 0.0
C1480 C 0.02043 0.85923 0.33313 0.0
H1481 H 0.04615 0.90666 0.35756 0.0
C1482 C 0.00067 0.85764 0.34809 0.0
C1483 C 0.03735 0.87682 0.33688 0.0
C1484 C 0.05892 0.8795 0.32145 0.0
C1485 C -0.00308 0.87362 0.36615 0.0
C1486 C 0.01343 0.89158 0.3694 0.0
C1487 C 0.03361 0.89275 0.35502 0.0
C1488 C 0.00823 0.91108 0.38524 0.0
C1489 C 0.97484 0.87183 0.38103 0.0
C1490 C 0.00206 0.93235 0.37543 0.0
C1491 C -0.00442 0.95077 0.38968 0.0
C1492 C -0.00484 0.94835 0.41414 0.0
C1493 C 0.00187 0.92712 0.42407 0.0
C1494 C 0.00838 0.90858 0.40968 0.0
H1495 H 0.96292 0.85777 0.37514 0.0
H1496 H 0.97999 0.8685 0.39947 0.0
H1497 H 0.96478 0.88832 0.38059 0.0
H1498 H 0.00178 0.93456 0.35661 0.0
H1499 H 0.99057 0.96685 0.38143 0.0
H1500 H 0.21963 0.96313 0.26555 0.0
H1501 H 0.18672 0.96507 0.29355 0.0
H1502 H 0.17907 0.0377 0.28014 0.0
H1503 H 0.21191 0.03574 0.25199 0.0
H1504 H 0.19681 0.01662 0.32958 0.0
H1505 H 0.1103 0.98634 0.2934 0.0
H1506 H 0.13762 0.97248 0.28437 0.0
H1507 H 0.13163 0.00149 0.2755 0.0
C1508 C 0.20984 0.97914 0.26745 0.0
C1509 C 0.21789 0.99923 0.25644 0.0
C1510 C 0.19128 0.98029 0.28362 0.0
C1511 C 0.18066 0.00154 0.28885 0.0
C1512 C 0.18703 0.02116 0.2761 0.0
H1513 H 0.10301 0.05025 0.40996 0.0
H1514 H 0.12985 0.04681 0.37647 0.0
C1515 C 0.20552 0.01998 0.25984 0.0
C1516 C 0.16656 0.00401 0.3104 0.0
H1517 H 0.11168 0.99496 0.33372 0.0
C1518 C 0.17814 0.01206 0.33054 0.0
C1519 C 0.14244 0.99768 0.31144 0.0
C1520 C 0.12956 0.98904 0.29008 0.0
C1521 C 0.1661 0.01386 0.35193 0.0
C1522 C 0.14185 0.00774 0.35295 0.0
C1523 C 0.13031 -0.00037 0.33278 0.0
C1524 C 0.12796 0.00967 0.37475 0.0
C1525 C 0.17946 0.02174 0.37337 0.0
C1526 C 0.11831 0.98989 0.38493 0.0
C1527 C 0.10291 0.99177 0.40396 0.0
C1528 C 0.09685 0.01351 0.41305 0.0
C1529 C 0.10739 0.03325 0.40342 0.0
C1530 C 0.12276 0.03134 0.38432 0.0
H1531 H 0.19903 0.02149 0.37062 0.0
H1532 H 0.17403 0.03961 0.37774 0.0
H1533 H 0.17516 0.01067 0.3886 0.0
H1534 H 0.12224 0.97303 0.37777 0.0
H1535 H 0.09527 0.97623 0.41112 0.0
H1536 H 0.95858 0.79499 0.71153 0.0
H1537 H 0.95967 0.82806 0.68569 0.0
H1538 H 0.01797 0.85611 0.72561 0.0
H1539 H 0.01839 0.82146 0.75026 0.0
H1540 H 0.95524 0.87006 0.68321 0.0
H1541 H 0.05044 0.85268 0.66514 0.0
H1542 H 0.03303 0.83426 0.68363 0.0
H1543 H 0.04571 0.86042 0.6951 0.0
C1544 C 0.97136 0.80845 0.71511 0.0
C1545 C 0.98881 0.80538 0.73253 0.0
C1546 C 0.972 0.82742 0.70025 0.0
C1547 C 0.98963 0.84422 0.70289 0.0
C1548 C 0.00496 0.84282 0.7224 0.0
H1549 H 0.99222 0.96966 0.62149 0.0
H1550 H 0.98219 0.93888 0.64857 0.0
C1551 C 0.00485 0.8233 0.7369 0.0
C1552 C -0.00726 0.86193 0.6842 0.0
H1553 H 0.03389 0.88597 0.64775 0.0
C1554 C 0.97249 0.87344 0.67548 0.0
C1555 C 0.01503 0.8659 0.67329 0.0
C1556 C 0.03721 0.85247 0.67957 0.0
C1557 C 0.97395 0.88886 0.6566 0.0
C1558 C -0.00354 0.89397 0.64691 0.0
C1559 C 0.01664 0.88229 0.65533 0.0
C1560 C -0.00015 0.912 0.62876 0.0
C1561 C 0.95123 0.89891 0.64678 0.0
C1562 C 0.01307 0.90727 0.60843 0.0
C1563 C 0.01921 0.92499 0.59304 0.0
C1564 C 0.0123 0.94782 0.59776 0.0
C1565 C -0.00201 0.9523 0.61742 0.0
C1566 C 0.992 0.93462 0.63285 0.0
H1567 H 0.93594 0.88723 0.64979 0.0
H1568 H 0.94725 0.91542 0.65574 0.0
H1569 H 0.95272 0.9022 0.6277 0.0
H1570 H 0.01929 0.88995 0.60484 0.0
H1571 H 0.03013 0.92093 0.57797 0.0
H1572 H 0.22914 0.04545 0.74281 0.0
H1573 H 0.20067 0.04921 0.71087 0.0
H1574 H 0.18306 0.97735 0.7176 0.0
H1575 H 0.21221 0.9735 0.7492 0.0
H1576 H 0.20382 0.98768 0.67593 0.0
H1577 H 0.13132 0.05043 0.69319 0.0
H1578 H 0.16027 0.0613 0.70019 0.0
H1579 H 0.14849 0.03743 0.71645 0.0
C1580 C 0.218 0.03088 0.73851 0.0
C1581 C 0.22269 0.00922 0.74841 0.0
C1582 C 0.20182 0.03298 0.7201 0.0
C1583 C 0.18987 0.01352 0.71172 0.0
C1584 C 0.19217 0.99257 0.7238 0.0
H1585 H 0.11734 0.97747 0.58621 0.0
H1586 H 0.14366 0.97745 0.61979 0.0
C1587 C 0.20853 0.99043 0.74209 0.0
C1588 C 0.17936 0.01385 0.68797 0.0
H1589 H 0.13874 0.04103 0.65324 0.0
C1590 C 0.1894 0.99919 0.67103 0.0
C1591 C 0.1611 0.02934 0.68143 0.0
C1592 C 0.14953 0.04538 0.69883 0.0
C1593 C 0.18161 -0.00049 0.64774 0.0
C1594 C 0.16295 0.01461 0.64131 0.0
C1595 C 0.15318 0.02955 0.65815 0.0
C1596 C 0.15164 0.01382 0.61792 0.0
C1597 C 0.19373 0.98389 0.63027 0.0
C1598 C 0.14791 0.03415 0.60514 0.0
C1599 C 0.1324 0.03433 0.58602 0.0
C1600 C 0.12036 0.01416 0.5795 0.0
C1601 C 0.12617 0.99337 0.59081 0.0
C1602 C 0.1414 0.99328 0.61003 0.0
H1603 H 0.21246 0.98034 0.63541 0.0
H1604 H 0.18431 0.96716 0.62976 0.0
H1605 H 0.19359 0.9914 0.61242 0.0
H1606 H 0.1558 0.05017 0.61086 0.0
H1607 H 0.12852 0.05058 0.57753 0.0
H1608 H 0.977 0.22831 0.73312 0.0
H1609 H 0.97659 0.19479 0.70703 0.0
H1610 H 0.0533 0.19496 0.70542 0.0
H1611 H 0.05362 0.22836 0.73163 0.0
H1612 H -0.0052 0.19779 0.66228 0.0
H1613 H 0.03883 0.12633 0.71 0.0
H1614 H 0.02682 0.15133 0.72471 0.0
H1615 H 0.05539 0.15266 0.71065 0.0
C1616 C -0.00626 0.22038 0.72816 0.0
C1617 C 0.01536 0.23045 0.7349 0.0
C1618 C -0.00649 0.20145 0.71299 0.0
C1619 C 0.01491 0.19223 0.70431 0.0
C1620 C 0.03657 0.20141 0.71223 0.0
H1621 H 0.05664 0.11408 0.58271 0.0
H1622 H 0.05151 0.14245 0.61402 0.0
C1623 C 0.03679 0.22038 0.72737 0.0
C1624 C 0.01458 0.17505 0.68495 0.0
H1625 H 0.03555 0.12214 0.66847 0.0
C1626 C 0.00347 0.18114 0.66375 0.0
C1627 C 0.02592 0.15333 0.6868 0.0
C1628 C 0.03723 0.14538 0.70933 0.0
C1629 C 0.00399 0.16637 0.64425 0.0
C1630 C 0.01587 0.14499 0.64597 0.0
C1631 C 0.02657 0.13866 0.66722 0.0
C1632 C 0.01776 0.12908 0.62576 0.0
C1633 C 0.99229 0.17375 0.62172 0.0
C1634 C 0.00021 0.11247 0.62173 0.0
C1635 C 0.00307 0.09616 0.60387 0.0
C1636 C 0.02361 0.09611 0.58977 0.0
C1637 C 0.04068 0.11345 0.5933 0.0
C1638 C 0.03782 0.12969 0.6112 0.0
H1639 H 0.98362 0.19091 0.62319 0.0
H1640 H 0.00579 0.17436 0.60755 0.0
H1641 H 0.9787 0.16091 0.61653 0.0
H1642 H 0.98457 0.1118 0.63277 0.0
H1643 H 0.98947 0.08321 0.60155 0.0
H1644 H 0.81516 0.9944 0.75898 0.0
H1645 H 0.84685 0.99044 0.73006 0.0
H1646 H 0.85736 0.06389 0.7313 0.0
H1647 H 0.82531 0.06784 0.76001 0.0
H1648 H 0.8419 0.04619 0.68821 0.0
H1649 H 0.91885 0.9957 0.72184 0.0
H1650 H 0.89017 0.98351 0.72772 0.0
H1651 H 0.89822 0.0104 0.741 0.0
C1652 C 0.82538 0.00947 0.75427 0.0
C1653 C 0.81812 0.03138 0.76186 0.0
C1654 C 0.84333 0.00723 0.73755 0.0
C1655 C 0.85437 0.02689 0.72849 0.0
C1656 C 0.84905 0.04853 0.73815 0.0
H1657 H 0.93705 0.05904 0.60713 0.0
H1658 H 0.91001 0.05938 0.64042 0.0
C1659 C 0.83105 0.05076 0.75484 0.0
C1660 C 0.86785 0.02537 0.70636 0.0
H1661 H 0.91679 0.00134 0.6808 0.0
C1662 C 0.85841 0.03657 0.68662 0.0
C1663 C 0.88893 0.01224 0.70422 0.0
C1664 C 0.89979 -0.00011 0.72484 0.0
C1665 C 0.86965 0.03516 0.6648 0.0
C1666 C 0.89115 0.02262 0.66284 0.0
C1667 C 0.9003 0.01099 0.68243 0.0
C1668 C 0.90529 0.02244 0.64109 0.0
C1669 C 0.85824 0.0468 0.64399 0.0
C1670 C 0.91163 0.00153 0.63048 0.0
C1671 C 0.92736 0.00123 0.61159 0.0
C1672 C 0.93701 0.02187 0.60308 0.0
C1673 C 0.92992 0.04285 0.61324 0.0
C1674 C 0.91431 0.0431 0.63218 0.0
H1675 H 0.83882 0.04937 0.64664 0.0
H1676 H 0.86637 0.06399 0.6415 0.0
H1677 H 0.86101 0.03664 0.62775 0.0
H1678 H 0.90483 0.98541 0.63715 0.0
H1679 H 0.93231 0.98481 0.604 0.0
H1680 H 0.28874 0.03858 0.19666 0.0
H1681 H 0.31993 0.03795 0.16678 0.0
H1682 H 0.31778 0.96381 0.16568 0.0
H1683 H 0.28654 0.96444 0.19566 0.0
H1684 H 0.36331 0.00785 0.18346 0.0
H1685 H 0.32774 0.98911 0.0944 0.0
H1686 H 0.31019 0.00478 0.11565 0.0
H1687 H 0.31569 0.97466 0.11966 0.0
C1688 C 0.29397 0.02227 0.18899 0.0
C1689 C 0.28516 0.00157 0.19803 0.0
C1690 C 0.31191 0.0219 0.17218 0.0
C1691 C 0.32108 0.00083 0.16423 0.0
C1692 C 0.31067 0.98019 0.17153 0.0
H1693 H 0.44067 0.98854 0.06897 0.0
H1694 H 0.41045 0.97654 0.09699 0.0
C1695 C 0.29272 0.98056 0.18841 0.0
C1696 C 0.34398 0.00049 0.15179 0.0
H1697 H 0.36876 0.99595 0.09776 0.0
C1698 C 0.36464 0.00508 0.16473 0.0
C1699 C 0.34551 0.99632 0.1276 0.0
C1700 C 0.32368 0.99094 0.11333 0.0
C1701 C 0.38691 0.00637 0.15385 0.0
C1702 C 0.38832 0.00366 0.12931 0.0
C1703 C 0.3677 0.99806 0.11658 0.0
C1704 C 0.41028 0.00874 0.11606 0.0
C1705 C 0.40858 0.01069 0.1688 0.0
C1706 C 0.42099 0.03043 0.11814 0.0
C1707 C 0.43863 0.03714 0.10245 0.0
C1708 C 0.44534 0.02249 0.08404 0.0
C1709 C 0.43576 0.00023 0.08292 0.0
C1710 C 0.41844 0.99337 0.09888 0.0
H1711 H 0.40626 0.00337 0.1866 0.0
H1712 H 0.4249 0.00317 0.1609 0.0
H1713 H 0.41109 0.02952 0.17082 0.0
H1714 H 0.41463 0.04282 0.13086 0.0
H1715 H 0.44563 0.05443 0.10371 0.0
H1716 H 0.00038 0.28146 0.20694 0.0
H1717 H -0.00348 0.30447 0.17099 0.0
H1718 H 0.05919 0.34267 0.19022 0.0
H1719 H 0.06338 0.31948 0.22547 0.0
H1720 H 0.9884 0.35051 0.1708 0.0
H1721 H 0.07132 0.33331 0.12191 0.0
H1722 H 0.06155 0.31503 0.14552 0.0
H1723 H 0.07764 0.34112 0.15158 0.0
C1724 C 0.01377 0.2942 0.20295 0.0
C1725 C 0.03218 0.29871 0.21892 0.0
C1726 C 0.01146 0.30747 0.18256 0.0
C1727 C 0.02768 0.32521 0.17776 0.0
C1728 C 0.04675 0.3288 0.19316 0.0
H1729 H 0.03108 0.45527 0.11082 0.0
H1730 H 0.02861 0.42233 0.13738 0.0
C1731 C 0.04906 0.31562 0.21341 0.0
C1732 C 0.02348 0.34173 0.1583 0.0
H1733 H 0.05172 0.36968 0.11375 0.0
C1734 C 0.00206 0.35436 0.15802 0.0
C1735 C 0.04127 0.34682 0.14157 0.0
C1736 C 0.06411 0.33316 0.14001 0.0
C1737 C -0.00146 0.37267 0.14231 0.0
C1738 C 0.01685 0.37846 0.12655 0.0
C1739 C 0.03779 0.36526 0.12606 0.0
C1740 C 0.01521 0.39888 0.11119 0.0
C1741 C 0.97562 0.38623 0.14296 0.0
C1742 C 0.00799 0.39662 0.08783 0.0
C1743 C 0.00942 0.41539 0.07256 0.0
C1744 C 0.01815 0.4367 0.08044 0.0
C1745 C 0.02421 0.43915 0.1042 0.0
C1746 C 0.02287 0.42035 0.1194 0.0
H1747 H 0.96251 0.37875 0.15531 0.0
H1748 H 0.97937 0.40421 0.14832 0.0
H1749 H 0.96762 0.38684 0.1252 0.0
H1750 H 0.00198 0.38016 0.08125 0.0
H1751 H 0.00441 0.41302 0.05442 0.0
H1752 H 0.74261 0.07419 0.19264 0.0
H1753 H 0.71231 0.06997 0.16192 0.0
H1754 H 0.69696 0.00156 0.18665 0.0
H1755 H 0.72732 0.00573 0.21719 0.0
H1756 H 0.70272 0.03288 0.12583 0.0
H1757 H 0.63433 0.0421 0.19549 0.0
H1758 H 0.66494 0.05053 0.19965 0.0
H1759 H 0.65696 0.02067 0.20053 0.0
C1760 C 0.73354 0.05789 0.19071 0.0
C1761 C 0.73755 0.04008 0.20681 0.0
C1762 C 0.71607 0.0556 0.17343 0.0
C1763 C 0.70221 0.03561 0.17236 0.0
C1764 C 0.70739 0.01718 0.18737 0.0
H1765 H 0.57901 0.9872 0.09965 0.0
H1766 H 0.60926 0.99688 0.12872 0.0
C1767 C 0.72495 0.01941 0.20451 0.0
C1768 C 0.6812 0.03464 0.15682 0.0
H1769 H 0.62045 0.03307 0.15744 0.0
C1770 C 0.68471 0.03308 0.13264 0.0
C1771 C 0.65779 0.03497 0.16591 0.0
C1772 C 0.65313 0.03734 0.1918 0.0
C1773 C 0.66538 0.03098 0.11724 0.0
C1774 C 0.6419 0.03111 0.12631 0.0
C1775 C 0.63842 0.03309 0.15053 0.0
C1776 C 0.62093 0.02771 0.11096 0.0
C1777 C 0.67038 0.02771 0.0915 0.0
C1778 C 0.6165 0.04257 0.09211 0.0
C1779 C 0.59944 0.03692 0.07531 0.0
C1780 C 0.58625 0.01654 0.07733 0.0
C1781 C 0.58907 0.0029 0.09746 0.0
C1782 C 0.60636 0.00841 0.1141 0.0
H1783 H 0.68909 0.02234 0.08827 0.0
H1784 H 0.65841 0.01457 0.0838 0.0
H1785 H 0.66731 0.04422 0.08221 0.0
H1786 H 0.627 0.05797 0.08978 0.0
H1787 H 0.59735 0.04799 0.06024 0.0
H1788 H 0.05188 0.73648 0.21708 0.0
H1789 H 0.04853 0.71096 0.18312 0.0
H1790 H 0.97278 0.72288 0.18127 0.0
H1791 H 0.97617 0.74841 0.2154 0.0
H1792 H 0.01725 0.67081 0.1895 0.0
H1793 H -0.00461 0.72253 0.11026 0.0
H1794 H 0.01144 0.73449 0.1348 0.0
H1795 H 0.98013 0.7293 0.13714 0.0
C1796 C 0.03473 0.73457 0.20864 0.0
C1797 C 0.01435 0.74473 0.21846 0.0
C1798 C 0.03277 0.71981 0.18944 0.0
C1799 C 0.01041 0.71502 0.17969 0.0
C1800 C 0.99023 0.72657 0.18834 0.0
H1801 H 0.98131 0.59441 0.08798 0.0
H1802 H 0.97371 0.62656 0.11535 0.0
C1803 C 0.99219 0.74129 0.20768 0.0
C1804 C 0.00794 0.69559 0.16301 0.0
H1805 H -0.00258 0.68217 0.10572 0.0
C1806 C 0.01263 0.67327 0.17124 0.0
C1807 C 0.00182 0.69885 0.13926 0.0
C1808 C -0.00302 0.72256 0.12963 0.0
C1809 C 0.01197 0.65418 0.15621 0.0
C1810 C 0.00655 0.65748 0.13232 0.0
C1811 C 0.00121 0.6797 0.12415 0.0
C1812 C 0.01007 0.63863 0.11519 0.0
C1813 C 0.01799 0.63063 0.16566 0.0
C1814 C 0.03287 0.63496 0.10615 0.0
C1815 C 0.03722 0.61686 0.09075 0.0
C1816 C 0.01884 0.60185 0.08394 0.0
C1817 C -0.00419 0.60563 0.09286 0.0
C1818 C 0.99145 0.62397 0.10842 0.0
H1819 H 0.01896 0.63046 0.18507 0.0
H1820 H 0.00449 0.61795 0.15987 0.0
H1821 H 0.03546 0.625 0.15859 0.0
H1822 H 0.04746 0.64602 0.11125 0.0
H1823 H 0.0552 0.61459 0.08431 0.0
H1824 H 0.28482 0.03258 0.81624 0.0
H1825 H 0.31339 0.03164 0.84869 0.0
H1826 H 0.31999 0.95805 0.84127 0.0
H1827 H 0.29149 0.95901 0.80874 0.0
H1828 H 0.32141 0.97748 0.89046 0.0
H1829 H 0.38409 0.0164 0.82673 0.0
H1830 H 0.35619 0.03133 0.82998 0.0
H1831 H 0.35668 0.0028 0.81791 0.0
C1832 C 0.29141 0.01611 0.82242 0.0
C1833 C 0.2857 0.99581 0.81043 0.0
C1834 C 0.30796 0.01561 0.84066 0.0
C1835 C 0.31896 0.9948 0.84708 0.0
C1836 C 0.31164 0.97423 0.83654 0.0
H1837 H 0.45531 0.99161 0.92374 0.0
H1838 H 0.4229 0.97854 0.89791 0.0
C1839 C 0.29519 0.97475 0.81821 0.0
C1840 C 0.33989 0.99493 0.86274 0.0
H1841 H 0.39699 0.01438 0.86631 0.0
C1842 C 0.33801 0.98534 0.88516 0.0
C1843 C 0.36168 0.00471 0.85549 0.0
C1844 C 0.36498 0.01423 0.83115 0.0
C1845 C 0.35706 0.98648 0.90105 0.0
C1846 C 0.37831 0.99747 0.89423 0.0
C1847 C 0.38061 0.00597 0.87142 0.0
C1848 C 0.39714 0.00302 0.9113 0.0
C1849 C 0.35425 0.9765 0.92522 0.0
C1850 C 0.39324 0.02099 0.92718 0.0
C1851 C 0.41164 0.02859 0.94152 0.0
C1852 C 0.43415 0.01809 0.94048 0.0
C1853 C 0.43793 -0.00042 0.92513 0.0
C1854 C 0.41954 0.99223 0.91037 0.0
H1855 H 0.33897 0.96449 0.92622 0.0
H1856 H 0.3707 0.96723 0.93059 0.0
H1857 H 0.3512 0.99068 0.9379 0.0
H1858 H 0.37616 0.0297 0.92788 0.0
H1859 H 0.40839 0.04293 0.95323 0.0
H1860 H 0.05578 0.29591 0.79592 0.0
H1861 H 0.05836 0.32154 0.83 0.0
H1862 H 0.98186 0.32213 0.83532 0.0
H1863 H 0.97933 0.2966 0.80119 0.0
H1864 H 0.03508 0.36605 0.82648 0.0
H1865 H 0.00508 0.31786 0.90485 0.0
H1866 H 0.01691 0.30369 0.87916 0.0
H1867 H 0.98708 0.31484 0.87902 0.0
C1868 C 0.03962 0.30067 0.80508 0.0
C1869 C 0.01739 0.29387 0.79634 0.0
C1870 C 0.04108 0.31547 0.8244 0.0
C1871 C 0.02032 0.32363 0.83537 0.0
C1872 C -0.00187 0.31571 0.82749 0.0
H1873 H 0.97956 0.4297 0.93362 0.0
H1874 H 0.98395 0.39491 0.90991 0.0
C1875 C -0.00332 0.30102 0.80807 0.0
C1876 C 0.02162 0.34289 0.85253 0.0
H1877 H 0.00837 0.35836 0.90872 0.0
C1878 C 0.02949 0.36437 0.84456 0.0
C1879 C 0.01396 0.34072 0.87596 0.0
C1880 C 0.00541 0.31802 0.88542 0.0
C1881 C 0.02912 0.38395 0.85903 0.0
C1882 C 0.02164 0.38187 0.88268 0.0
C1883 C 0.01422 0.36014 0.89074 0.0
C1884 C 0.02001 0.40219 0.89881 0.0
C1885 C 0.03553 0.4068 0.84823 0.0
C1886 C 0.03902 0.4177 0.90138 0.0
C1887 C 0.03618 0.43808 0.91428 0.0
C1888 C 0.01467 0.44282 0.92586 0.0
C1889 C -0.00365 0.42649 0.92488 0.0
C1890 C -0.00111 0.40654 0.9113 0.0
H1891 H 0.03347 0.40652 0.8289 0.0
H1892 H 0.02429 0.42096 0.85526 0.0
H1893 H 0.05446 0.41064 0.85206 0.0
H1894 H 0.05592 0.41438 0.89295 0.0
H1895 H 0.05073 0.45022 0.91506 0.0
H1896 H 0.7405 0.08198 0.81151 0.0
H1897 H 0.70988 0.08317 0.84198 0.0
H1898 H 0.72309 0.01154 0.85715 0.0
H1899 H 0.7539 0.01047 0.82688 0.0
H1900 H 0.67076 0.05279 0.83443 0.0
H1901 H 0.71103 0.04057 0.92243 0.0
H1902 H 0.72759 0.05193 0.89795 0.0
H1903 H 0.72189 0.02162 0.89993 0.0
C1904 C 0.73772 0.06691 0.8223 0.0
C1905 C 0.74966 0.04623 0.81726 0.0
C1906 C 0.72011 0.06752 0.83947 0.0
C1907 C 0.71428 0.04747 0.85178 0.0
C1908 C 0.72765 0.02731 0.84814 0.0
H1909 H 0.58948 0.98991 0.90871 0.0
H1910 H 0.62186 0.00262 0.88354 0.0
C1911 C 0.74534 0.02672 0.83099 0.0
C1912 C 0.69193 0.04654 0.86527 0.0
H1913 H 0.6692 0.0348 0.9192 0.0
C1914 C 0.67039 0.04923 0.85305 0.0
C1915 C 0.69159 0.04171 0.88946 0.0
C1916 C 0.71424 0.03894 0.90333 0.0
C1917 C 0.64844 0.0465 0.86432 0.0
C1918 C 0.64815 0.0411 0.88835 0.0
C1919 C 0.66962 0.0391 0.90074 0.0
C1920 C 0.6259 0.03555 0.90066 0.0
C1921 C 0.62573 0.04888 0.85046 0.0
C1922 C 0.61695 0.05029 0.91798 0.0
C1923 C 0.59817 0.04319 0.93221 0.0
C1924 C 0.58863 0.02104 0.92982 0.0
C1925 C 0.59667 0.00698 0.91134 0.0
C1926 C 0.61513 0.01421 0.89687 0.0
H1927 H 0.62877 0.05712 0.83319 0.0
H1928 H 0.61808 0.03156 0.84745 0.0
H1929 H 0.61242 0.05918 0.86036 0.0
H1930 H 0.62504 0.06691 0.92101 0.0
H1931 H 0.59193 0.05461 0.94568 0.0
H1932 H 0.96094 0.73233 0.79425 0.0
H1933 H 0.96463 0.70578 0.82731 0.0
H1934 H 0.03844 0.72413 0.83496 0.0
H1935 H 0.03473 0.7507 0.80169 0.0
H1936 H -0.00093 0.66858 0.82232 0.0
H1937 H 0.01212 0.71927 0.90393 0.0
H1938 H -0.0028 0.73095 0.87853 0.0
H1939 H 0.02896 0.72783 0.87862 0.0
C1940 C 0.9776 0.73156 0.80378 0.0
C1941 C -0.00257 0.74387 0.79578 0.0
C1942 C 0.97978 0.71618 0.82246 0.0
C1943 C 0.00181 0.71293 0.83359 0.0
C1944 C 0.02121 0.72657 0.82683 0.0
H1945 H 0.04374 0.59332 0.92129 0.0
H1946 H 0.04636 0.62625 0.89405 0.0
C1947 C 0.01904 0.74191 0.80798 0.0
C1948 C 0.00514 0.6932 0.84984 0.0
H1949 H 0.01547 0.6788 0.90695 0.0
C1950 C 0.00284 0.67083 0.84079 0.0
C1951 C 0.01008 0.69615 0.8739 0.0
C1952 C 0.01212 0.71981 0.88451 0.0
C1953 C 0.00507 0.65137 0.85522 0.0
C1954 C 0.00967 0.65431 0.87932 0.0
C1955 C 0.01231 0.67663 0.88837 0.0
C1956 C 0.00882 0.63454 0.8957 0.0
C1957 C 0.0018 0.62773 0.84485 0.0
C1958 C 0.98694 0.62838 0.90545 0.0
C1959 C 0.98546 0.60995 0.92097 0.0
C1960 C 0.00582 0.59699 0.92699 0.0
C1961 C 0.02778 0.60291 0.91692 0.0
C1962 C 0.02929 0.62172 0.90149 0.0
H1963 H 0.00058 0.62817 0.82546 0.0
H1964 H 0.01684 0.61635 0.84999 0.0
H1965 H 0.98523 0.62003 0.85188 0.0
H1966 H 0.97093 0.6379 0.90104 0.0
H1967 H 0.96818 0.60573 0.92814 0.0
H1968 H 0.20302 0.28963 0.9815 0.0
H1969 H 0.17029 0.31756 0.97952 0.0
H1970 H 0.16294 0.31465 0.05457 0.0
H1971 H 0.19612 0.28708 0.05652 0.0
H1972 H 0.12294 0.32092 0.99451 0.0
H1973 H 0.18166 0.38159 0.04246 0.0
H1974 H 0.19233 0.3546 0.03082 0.0
H1975 H 0.17546 0.35518 0.05751 0.0
C1976 C 0.1936 0.29412 -0.0026 0.0
C1977 C 0.20166 0.28597 0.01911 0.0
C1978 C 0.17513 0.31028 0.99632 0.0
C1979 C 0.16457 0.31856 0.01695 0.0
C1980 C 0.17116 0.3088 0.03849 0.0
H1981 H 0.07501 0.44183 0.03416 0.0
H1982 H 0.09711 0.40609 0.04191 0.0
C1983 C 0.18976 0.29274 0.03957 0.0
C1984 C 0.14836 0.33876 0.01593 0.0
H1985 H 0.1439 0.39547 0.03134 0.0
C1986 C 0.12741 0.33716 0.00272 0.0
C1987 C 0.15435 0.36002 0.02653 0.0
C1988 C 0.17725 0.36313 0.03996 0.0
C1989 C 0.11226 0.35623 -0.00024 0.0
C1990 C 0.11844 0.37758 0.00998 0.0
C1991 C 0.13913 0.37907 0.02363 0.0
C1992 C 0.10448 0.39889 0.00547 0.0
C1993 C 0.08977 0.3533 0.98567 0.0
C1994 C 0.10155 0.40683 0.98248 0.0
C1995 C 0.08874 0.42697 0.97799 0.0
C1996 C 0.07892 0.43992 -0.00356 0.0
C1997 C 0.08217 0.43216 0.01954 0.0
C1998 C 0.09484 0.41179 0.02401 0.0
H1999 H 0.08398 0.33505 0.98534 0.0
H2000 H 0.07506 0.36404 0.99278 0.0
H2001 H 0.09313 0.35866 0.96734 0.0
H2002 H 0.10945 0.39759 0.96796 0.0
H2003 H 0.08692 0.4326 0.96001 0.0
H2004 H 0.20491 0.74046 0.05921 0.0
H2005 H 0.17221 0.71291 0.0599 0.0
H2006 H 0.14805 0.73811 0.99299 0.0
H2007 H 0.18138 0.76523 0.99194 0.0
H2008 H 0.12386 0.70998 0.05626 0.0
H2009 H 0.16782 0.6725 0.9781 0.0
H2010 H 0.18101 0.69532 0.99498 0.0
H2011 H 0.15828 0.70167 0.97372 0.0
C2012 C 0.19202 0.74075 0.04511 0.0
C2013 C 0.19568 0.75487 0.02547 0.0
C2014 C 0.17342 0.72489 0.04545 0.0
C2015 C 0.15812 0.72294 0.02617 0.0
C2016 C 0.16004 0.73894 0.0078 0.0
H2017 H 0.05647 0.62629 0.9766 0.0
H2018 H 0.07856 0.66041 0.98827 0.0
C2019 C 0.17881 0.75473 0.00737 0.0
C2020 C 0.14235 0.70256 0.02409 0.0
H2021 H 0.1313 0.65585 0.9895 0.0
C2022 C 0.12546 0.69814 0.04167 0.0
C2023 C 0.14496 0.68667 0.00544 0.0
C2024 C 0.16416 0.68908 0.98713 0.0
C2025 C 0.11049 0.67879 0.0405 0.0
C2026 C 0.11246 0.66363 0.02129 0.0
C2027 C 0.1297 0.66771 0.0041 0.0
C2028 C 0.09604 0.64408 0.01762 0.0
C2029 C 0.09232 0.67485 0.05944 0.0
C2030 C 0.098 0.6237 0.03075 0.0
C2031 C 0.08523 0.60401 0.02412 0.0
C2032 C 0.0706 0.60452 0.00417 0.0
C2033 C 0.06772 0.62535 0.99199 0.0
C2034 C 0.08029 0.64489 -0.00136 0.0
H2035 H 0.09168 0.68924 0.07224 0.0
H2036 H 0.0744 0.67267 0.05159 0.0
H2037 H 0.09673 0.65873 0.06895 0.0
H2038 H 0.11032 0.62266 0.04529 0.0
H2039 H 0.08802 0.58812 0.03363 0.0
H2040 H 0.26935 0.22884 0.97698 0.0
H2041 H 0.30117 0.20015 0.97274 0.0
H2042 H 0.29924 0.18751 0.04697 0.0
H2043 H 0.2674 0.21617 0.05122 0.0
H2044 H 0.34361 0.21113 0.02077 0.0
H2045 H 0.31317 0.12561 0.98857 0.0
H2046 H 0.29901 0.15157 0.978 0.0
H2047 H 0.29491 0.14298 0.00779 0.0
C2048 C 0.27461 0.21878 0.9921 0.0
C2049 C 0.26571 0.22434 0.01437 0.0
C2050 C 0.29297 0.20263 0.98971 0.0
C2051 C 0.30252 0.19186 0.00957 0.0
C2052 C 0.29192 0.19557 0.03145 0.0
H2053 H 0.43394 0.1246 0.04465 0.0
H2054 H 0.39791 0.1482 0.04418 0.0
C2055 C 0.27353 0.21169 0.03383 0.0
C2056 C 0.3261 0.18063 0.00824 0.0
H2057 H 0.35452 0.13066 0.99371 0.0
C2058 C 0.34605 0.19353 0.01489 0.0
C2059 C 0.32907 0.15783 0.00032 0.0
C2060 C 0.30799 0.1435 0.99325 0.0
C2061 C 0.36904 0.18407 0.01397 0.0
C2062 C 0.37201 0.16114 0.00637 0.0
C2063 C 0.35209 0.14832 -0.00056 0.0
C2064 C 0.39557 0.14978 0.00646 0.0
C2065 C 0.39004 0.19862 0.02092 0.0
C2066 C 0.40653 0.14353 0.98537 0.0
C2067 C 0.42724 0.13012 0.98551 0.0
C2068 C 0.4371 0.12251 0.00681 0.0
C2069 C 0.42686 0.13013 0.02793 0.0
C2070 C 0.40621 0.14358 0.02773 0.0
H2071 H 0.38517 0.21709 0.0227 0.0
H2072 H 0.39712 0.19251 0.03795 0.0
H2073 H 0.4045 0.19692 0.00778 0.0
H2074 H 0.39857 0.14833 0.9688 0.0
H2075 H 0.43471 0.12467 0.96894 0.0
H2076 H 0.81762 0.30961 0.02877 0.0
H2077 H 0.85107 0.33605 0.03025 0.0
H2078 H 0.88866 0.29444 0.97963 0.0
H2079 H 0.85435 0.26834 0.97736 0.0
H2080 H 0.89682 0.33542 0.03992 0.0
H2081 H 0.88469 0.35463 0.94528 0.0
H2082 H 0.86415 0.33699 0.96141 0.0
H2083 H 0.89223 0.32531 0.95194 0.0
C2084 C 0.8333 0.30578 0.01843 0.0
C2085 C 0.83341 0.28713 0.00278 0.0
C2086 C 0.85239 0.32094 0.01919 0.0
C2087 C 0.87209 0.31768 0.00448 0.0
C2088 C 0.8733 0.29771 0.99057 0.0
H2089 H 0.98595 0.42102 0.99124 0.0
H2090 H 0.96305 0.38553 0.98526 0.0
C2091 C 0.85395 0.28258 0.98959 0.0
C2092 C 0.89014 0.33621 0.00283 0.0
H2093 H 0.91271 0.37684 0.96571 0.0
C2094 C 0.90053 0.34423 0.02362 0.0
C2095 C 0.89481 0.34794 0.98155 0.0
C2096 C 0.88327 0.34097 0.95879 0.0
C2097 C 0.91479 0.36395 0.02388 0.0
C2098 C 0.91891 0.37594 0.00278 0.0
C2099 C 0.90949 0.36748 0.9818 0.0
C2100 C 0.93153 0.39822 0.00284 0.0
C2101 C 0.92479 0.37225 0.04689 0.0
C2102 C 0.92096 0.41729 0.01374 0.0
C2103 C 0.93397 0.43733 0.01737 0.0
C2104 C 0.95773 0.43877 0.00991 0.0
C2105 C 0.96773 0.4203 -0.00267 0.0
C2106 C 0.9547 0.40007 0.99389 0.0
H2107 H 0.92456 0.35855 0.06043 0.0
H2108 H 0.94333 0.3784 0.04472 0.0
H2109 H 0.91385 0.38689 0.05333 0.0
H2110 H 0.90293 0.4163 0.02037 0.0
H2111 H 0.92563 0.45147 0.02669 0.0
H2112 H 0.75826 0.81664 0.96296 0.0
H2113 H 0.72684 0.84565 0.96311 0.0
H2114 H 0.73526 0.85383 0.03767 0.0
H2115 H 0.76624 0.82407 0.03753 0.0
H2116 H 0.69185 0.83885 0.02642 0.0
H2117 H 0.71271 0.91287 0.96937 0.0
H2118 H 0.71774 0.88591 0.95492 0.0
H2119 H 0.73545 0.89347 0.98002 0.0
C2120 C 0.75454 0.8258 0.97909 0.0
C2121 C 0.76481 0.81839 0.00019 0.0
C2122 C 0.73638 0.84228 0.97922 0.0
C2123 C 0.72859 0.85191 0.00042 0.0
C2124 C 0.74098 0.84662 0.0211 0.0
H2125 H 0.59814 0.92158 0.03994 0.0
H2126 H 0.63488 0.89938 0.03978 0.0
C2127 C 0.75899 0.82993 0.02099 0.0
C2128 C 0.70506 0.8636 0.00159 0.0
H2129 H 0.67134 0.9063 0.97723 0.0
C2130 C 0.68748 0.85382 0.01591 0.0
C2131 C 0.69919 0.8828 0.98752 0.0
C2132 C 0.71736 0.89449 0.97226 0.0
C2133 C 0.66412 0.86244 0.01626 0.0
C2134 C 0.65824 0.88161 0.00215 0.0
C2135 C 0.67582 0.89146 0.9879 0.0
C2136 C 0.63428 0.89243 0.00259 0.0
C2137 C 0.64587 0.8505 0.03127 0.0
C2138 C 0.62149 0.89576 0.98174 0.0
C2139 C 0.60049 0.90879 0.98168 0.0
C2140 C 0.59195 0.91873 0.0025 0.0
C2141 C 0.60405 0.91409 0.02357 0.0
C2142 C 0.62512 0.9013 0.02356 0.0
H2143 H 0.651 0.83234 0.03482 0.0
H2144 H 0.64455 0.8595 0.04835 0.0
H2145 H 0.62804 0.85072 0.0229 0.0
H2146 H 0.62823 0.88899 0.96536 0.0
H2147 H 0.59162 0.91199 0.96516 0.0
H2148 H 0.82973 0.74789 0.03485 0.0
H2149 H 0.86173 0.71943 0.03022 0.0
H2150 H 0.85447 0.72365 0.95525 0.0
H2151 H 0.82259 0.75232 0.95992 0.0
H2152 H 0.84562 0.67873 0.97753 0.0
H2153 H 0.93193 0.7173 0.00361 0.0
H2154 H 0.90694 0.72424 0.02202 0.0
H2155 H 0.9074 0.73425 0.99233 0.0
C2156 C 0.83594 0.74366 0.01742 0.0
C2157 C 0.82423 0.75259 -0.00228 0.0
C2158 C 0.85406 0.72732 0.01477 0.0
C2159 C 0.86052 0.71957 0.99237 0.0
C2160 C 0.84989 0.72962 0.97263 0.0
H2161 H 0.96431 0.60614 0.9844 0.0
H2162 H 0.94093 0.63949 0.97114 0.0
C2163 C 0.83191 0.74612 0.97529 0.0
C2164 C 0.87534 0.69861 0.98993 0.0
H2165 H 0.92993 0.67628 0.00313 0.0
C2166 C 0.86421 0.67824 0.98266 0.0
C2167 C 0.89951 0.69808 -0.00341 0.0
C2168 C 0.91231 0.71965 0.00392 0.0
C2169 C 0.87632 0.65708 0.9831 0.0
C2170 C 0.90013 0.65634 0.99104 0.0
C2171 C 0.91166 0.67691 -0.00297 0.0
C2172 C 0.91243 0.6343 0.99598 0.0
C2173 C 0.86334 0.63559 0.9758 0.0
C2174 C 0.90391 0.62017 0.01396 0.0
C2175 C 0.91715 0.60119 0.02142 0.0
C2176 C 0.93908 0.59589 0.01092 0.0
C2177 C 0.94712 0.60939 0.9922 0.0
C2178 C 0.93393 0.6286 0.98485 0.0
H2179 H 0.84821 0.63962 0.96394 0.0
H2180 H 0.87551 0.62329 0.9669 0.0
H2181 H 0.85605 0.62703 0.99158 0.0
H2182 H 0.8876 0.6245 0.02308 0.0
H2183 H 0.9107 0.59117 0.03606 0.0
H2184 H 0.26717 0.81242 0.97151 0.0
H2185 H 0.29211 0.84678 0.97011 0.0
H2186 H 0.27194 0.86336 0.04094 0.0
H2187 H 0.24716 0.8287 0.04245 0.0
H2188 H 0.28789 0.8946 0.97842 0.0
H2189 H 0.34403 0.85036 0.04485 0.0
H2190 H 0.3203 0.83603 0.02949 0.0
H2191 H 0.31365 0.85507 0.05341 0.0
C2192 C 0.26728 0.82396 0.9864 0.0
C2193 C 0.25524 0.81804 0.00706 0.0
C2194 C 0.28167 0.84347 0.98566 0.0
C2195 C 0.28431 0.85728 0.00561 0.0
C2196 C 0.27043 0.85267 0.02549 0.0
H2197 H 0.39416 0.9565 0.04095 0.0
H2198 H 0.35878 0.93218 0.04091 0.0
C2199 C 0.25599 0.83311 0.02623 0.0
C2200 C 0.30345 0.87475 0.00631 0.0
H2201 H 0.35662 0.88689 0.0324 0.0
C2202 C 0.30284 0.89306 0.99033 0.0
C2203 C 0.32315 0.87243 0.0216 0.0
C2204 C 0.32556 0.85232 0.03818 0.0
C2205 C 0.3212 0.90938 0.98949 0.0
C2206 C 0.34087 0.90707 0.00481 0.0
C2207 C 0.34143 0.88877 0.02082 0.0
C2208 C 0.36137 0.92309 0.00427 0.0
C2209 C 0.31919 0.92903 0.97235 0.0
C2210 C 0.37458 0.92612 0.98368 0.0
C2211 C 0.39457 0.94032 0.98354 0.0
C2212 C 0.40208 0.95134 0.00416 0.0
C2213 C 0.38878 0.94835 0.02475 0.0
C2214 C 0.3686 0.93439 0.02478 0.0
H2215 H 0.3004 0.9323 0.96725 0.0
H2216 H 0.3267 0.94512 0.97971 0.0
H2217 H 0.32922 0.92461 0.95623 0.0
H2218 H 0.36983 0.91703 0.96782 0.0
H2219 H 0.40464 0.94192 0.96748 0.0
H2220 H 0.76478 0.2283 0.03544 0.0
H2221 H 0.73845 0.19498 0.03889 0.0
H2222 H 0.75665 0.1744 0.96866 0.0
H2223 H 0.78277 0.20794 0.9651 0.0
H2224 H 0.70021 0.19414 0.00076 0.0
H2225 H 0.75193 0.11276 0.01113 0.0
H2226 H 0.76239 0.13999 0.0224 0.0
H2227 H 0.76327 0.13445 0.99157 0.0
C2228 C 0.76415 0.21592 0.02127 0.0
C2229 C 0.77607 0.2203 0.00018 0.0
C2230 C 0.74895 0.19707 0.02315 0.0
C2231 C 0.7457 0.18227 0.00404 0.0
C2232 C 0.75922 0.18548 0.98369 0.0
H2233 H 0.63372 0.08547 0.96667 0.0
H2234 H 0.669 0.1103 0.96627 0.0
C2235 C 0.77427 0.20447 0.98173 0.0
C2236 C 0.72538 0.16624 0.00382 0.0
H2237 H 0.71047 0.10938 0.00488 0.0
C2238 C 0.70241 0.17561 0.00173 0.0
C2239 C 0.72844 0.14216 0.00492 0.0
C2240 C 0.75279 0.13156 0.00774 0.0
C2241 C 0.68235 0.16142 0.0006 0.0
C2242 C 0.68539 0.13732 0.00176 0.0
C2243 C 0.70834 0.12791 0.0038 0.0
C2244 C 0.66471 0.12175 0.00203 0.0
C2245 C 0.658 0.1722 -0.00197 0.0
C2246 C 0.65096 0.11992 0.02233 0.0
C2247 C 0.63107 0.10569 0.02271 0.0
C2248 C 0.62442 0.09313 0.00269 0.0
C2249 C 0.63837 0.0949 0.98236 0.0
C2250 C 0.6585 0.10902 0.9821 0.0
H2251 H 0.65897 0.19084 0.99387 0.0
H2252 H 0.64781 0.16338 0.98403 0.0
H2253 H 0.648 0.17014 0.01463 0.0
H2254 H 0.65554 0.12966 0.03785 0.0
H2255 H 0.62065 0.10491 0.03862 0.0
H2256 H 0.56499 0.73054 0.78463 0.0
H2257 H 0.56342 0.69714 0.81027 0.0
H2258 H 0.49338 0.68116 0.78415 0.0
H2259 H 0.49468 0.71545 0.75899 0.0
H2260 H 0.49237 0.68377 0.82952 0.0
H2261 H 0.57009 0.62948 0.80822 0.0
H2262 H 0.57928 0.65853 0.81315 0.0
H2263 H 0.55987 0.65202 0.7889 0.0
C2264 C 0.54971 0.71928 0.78357 0.0
C2265 C 0.53011 0.72539 0.76954 0.0
C2266 C 0.54881 0.7001 0.79828 0.0
C2267 C 0.5284 0.68626 0.79911 0.0
C2268 C 0.50942 0.69142 0.7838 0.0
H2269 H 0.49512 0.58117 0.90587 0.0
H2270 H 0.49999 0.60013 0.86781 0.0
C2271 C 0.51025 0.71083 0.76917 0.0
C2272 C 0.52565 0.66888 0.81824 0.0
H2273 H 0.55495 0.62608 0.84798 0.0
C2274 C 0.50583 0.67083 0.83315 0.0
C2275 C 0.5432 0.65194 0.82329 0.0
C2276 C 0.56415 0.64773 0.80736 0.0
C2277 C 0.50367 0.65718 0.85334 0.0
C2278 C 0.52177 0.64117 0.85895 0.0
C2279 C 0.54117 0.63852 0.84373 0.0
C2280 C 0.52119 0.6281 0.88128 0.0
C2281 C 0.48242 0.66044 0.86913 0.0
C2282 C 0.5319 0.63731 0.90136 0.0
C2283 C 0.52908 0.62662 0.92313 0.0
C2284 C 0.5155 0.60643 0.92528 0.0
C2285 C 0.50567 0.59668 0.90489 0.0
C2286 C 0.50843 0.60748 0.88311 0.0
H2287 H 0.46959 0.67331 0.86214 0.0
H2288 H 0.4731 0.64379 0.8714 0.0
H2289 H 0.48846 0.66616 0.88668 0.0
H2290 H 0.54178 0.65323 0.90032 0.0
H2291 H 0.53702 0.63455 0.93839 0.0
H2292 H 0.33628 0.49846 0.77154 0.0
H2293 H 0.368 0.49772 0.80106 0.0
H2294 H 0.37288 0.57165 0.79753 0.0
H2295 H 0.34113 0.57236 0.76795 0.0
H2296 H 0.41741 0.51917 0.80387 0.0
H2297 H 0.35009 0.55401 0.86616 0.0
H2298 H 0.34182 0.54055 0.83887 0.0
H2299 H 0.35396 0.56903 0.83892 0.0
C2300 C 0.34497 0.5144 0.77628 0.0
C2301 C 0.33674 0.53542 0.76718 0.0
C2302 C 0.36286 0.51401 0.79329 0.0
C2303 C 0.37256 0.53465 0.80163 0.0
C2304 C 0.36553 0.55555 0.79136 0.0
H2305 H 0.44826 0.55637 0.93395 0.0
H2306 H 0.4276 0.56271 0.89661 0.0
C2307 C 0.34768 0.55593 0.77428 0.0
C2308 C 0.38814 0.53439 0.82257 0.0
H2309 H 0.38809 0.54589 0.88115 0.0
C2310 C 0.41114 0.52516 0.82076 0.0
C2311 C 0.37985 0.54226 0.84453 0.0
C2312 C 0.35504 0.55191 0.84746 0.0
C2313 C 0.42619 0.52365 0.84036 0.0
C2314 C 0.41768 0.53084 0.86258 0.0
C2315 C 0.39472 0.54042 0.86422 0.0
C2316 C 0.43172 0.52756 0.88449 0.0
C2317 C 0.45116 0.51464 0.83686 0.0
C2318 C 0.44092 0.50577 0.89024 0.0
C2319 C 0.45326 0.50233 0.91116 0.0
C2320 C 0.45599 0.5204 0.92728 0.0
C2321 C 0.44657 0.54218 0.92177 0.0
C2322 C 0.4347 0.54577 0.90048 0.0
H2323 H 0.45751 0.51801 0.81879 0.0
H2324 H 0.46385 0.52254 0.84937 0.0
H2325 H 0.45132 0.49571 0.83946 0.0
H2326 H 0.43805 0.49118 0.87882 0.0
H2327 H 0.45981 0.4852 0.91513 0.0
H2328 H 0.45054 0.30907 0.79122 0.0
H2329 H 0.45523 0.34268 0.81659 0.0
H2330 H 0.52668 0.3518 0.79106 0.0
H2331 H 0.52203 0.31791 0.76556 0.0
H2332 H 0.49907 0.33857 0.84992 0.0
H2333 H 0.49158 0.41979 0.79869 0.0
H2334 H 0.47521 0.3943 0.79056 0.0
H2335 H 0.50675 0.39519 0.78627 0.0
C2336 C 0.4669 0.31881 0.79031 0.0
C2337 C 0.48588 0.311 0.77633 0.0
C2338 C 0.46959 0.33796 0.80487 0.0
C2339 C 0.49126 0.34977 0.80568 0.0
C2340 C 0.50969 0.34309 0.79046 0.0
H2341 H 0.54524 0.44956 0.90703 0.0
H2342 H 0.53738 0.42753 0.87126 0.0
C2343 C 0.507 0.32383 0.77582 0.0
C2344 C 0.4957 0.36619 0.82513 0.0
H2345 H 0.49934 0.42327 0.8392 0.0
C2346 C 0.49916 0.35709 0.84759 0.0
C2347 C 0.49598 0.39029 0.82196 0.0
C2348 C 0.49215 0.40069 0.79812 0.0
C2349 C 0.50287 0.3714 0.86703 0.0
C2350 C 0.50251 0.39561 0.8641 0.0
C2351 C 0.49942 0.40475 0.84151 0.0
C2352 C 0.50547 0.41141 0.88445 0.0
C2353 C 0.50758 0.36036 0.89049 0.0
C2354 C 0.48964 0.41045 0.90343 0.0
C2355 C 0.4942 0.42281 0.92395 0.0
C2356 C 0.51455 0.43668 0.92585 0.0
C2357 C 0.5295 0.4389 0.90623 0.0
C2358 C 0.52501 0.42634 0.88573 0.0
H2359 H 0.51376 0.34226 0.88861 0.0
H2360 H 0.52117 0.37007 0.90051 0.0
H2361 H 0.49087 0.36023 0.90081 0.0
H2362 H 0.47411 0.39952 0.90265 0.0
H2363 H 0.48209 0.421 0.93855 0.0
H2364 H 0.69238 0.53709 0.77289 0.0
H2365 H 0.659 0.53799 0.80052 0.0
H2366 H 0.66277 0.46419 0.80696 0.0
H2367 H 0.69622 0.4633 0.77944 0.0
H2368 H 0.61143 0.49362 0.80788 0.0
H2369 H 0.68448 0.51336 0.87069 0.0
H2370 H 0.68436 0.5275 0.84262 0.0
H2371 H 0.68972 0.49713 0.84423 0.0
C2372 C 0.68511 0.52099 0.77912 0.0
C2373 C 0.69645 0.50008 0.77368 0.0
C2374 C 0.66626 0.52152 0.79511 0.0
C2375 C 0.65852 0.50116 0.80579 0.0
C2376 C 0.66836 0.48005 0.79872 0.0
H2377 H 0.59736 0.49038 0.94513 0.0
H2378 H 0.6186 0.48254 0.90862 0.0
C2379 C 0.68726 0.47952 0.78281 0.0
C2380 C 0.6432 0.50224 0.82684 0.0
H2381 H 0.64556 0.51288 0.88552 0.0
C2382 C 0.61879 0.49781 0.82489 0.0
C2383 C 0.65303 0.50731 0.84901 0.0
C2384 C 0.67934 0.51153 0.85201 0.0
C2385 C 0.6038 0.4987 0.84461 0.0
C2386 C 0.61351 0.5045 0.86672 0.0
C2387 C 0.63807 0.50848 0.86862 0.0
C2388 C 0.5986 0.50724 0.88807 0.0
C2389 C 0.57782 0.49306 0.84162 0.0
C2390 C 0.58001 0.52347 0.88867 0.0
C2391 C 0.56768 0.52783 0.90948 0.0
C2392 C 0.57396 0.51633 0.93025 0.0
C2393 C 0.59209 0.49957 0.92947 0.0
C2394 C 0.60429 0.4951 0.9086 0.0
H2395 H 0.57478 0.48222 0.8259 0.0
H2396 H 0.57074 0.48395 0.85718 0.0
H2397 H 0.56758 0.50928 0.83931 0.0
H2398 H 0.57564 0.53348 0.87328 0.0
H2399 H 0.55397 0.54099 0.90949 0.0
H2400 H 0.46786 0.32028 0.25123 0.0
H2401 H 0.46788 0.3551 0.22662 0.0
H2402 H 0.5357 0.33493 0.19782 0.0
H2403 H 0.5356 0.30019 0.22211 0.0
H2404 H 0.52644 0.38676 0.21061 0.0
H2405 H 0.46099 0.34405 0.15166 0.0
H2406 H 0.45622 0.34366 0.18285 0.0
H2407 H 0.48038 0.32752 0.17051 0.0
C2408 C 0.48311 0.32378 0.24024 0.0
C2409 C 0.50186 0.30778 0.23871 0.0
C2410 C 0.48301 0.3435 0.22606 0.0
C2411 C 0.50173 0.34747 0.2103 0.0
C2412 C 0.52114 0.33221 0.2099 0.0
H2413 H 0.55303 0.42388 0.09653 0.0
H2414 H 0.54467 0.40092 0.13113 0.0
C2415 C 0.52114 0.31247 0.22385 0.0
C2416 C 0.50043 0.36621 0.1927 0.0
H2417 H 0.47799 0.37852 0.13849 0.0
C2418 C 0.51555 0.3852 0.19503 0.0
C2419 C 0.48618 0.36412 0.17239 0.0
C2420 C 0.47 0.34376 0.16896 0.0
C2421 C 0.51738 0.40176 0.1772 0.0
C2422 C 0.5041 0.39901 0.15634 0.0
C2423 C 0.48812 0.38062 0.15449 0.0
C2424 C 0.50866 0.41347 0.13539 0.0
C2425 C 0.53388 0.42188 0.18057 0.0
C2426 C 0.49092 0.42779 0.12582 0.0
C2427 C 0.4956 0.44096 0.10574 0.0
C2428 C 0.51808 0.43992 0.09489 0.0
C2429 C 0.53561 0.42535 0.1045 0.0
C2430 C 0.53091 0.41224 0.12439 0.0
H2431 H 0.53797 0.4248 0.19935 0.0
H2432 H 0.55088 0.41839 0.17133 0.0
H2433 H 0.526 0.43785 0.17314 0.0
H2434 H 0.47356 0.42887 0.13395 0.0
H2435 H 0.48173 0.45202 0.09881 0.0
H2436 H 0.68902 0.46755 0.25033 0.0
H2437 H 0.65643 0.46608 0.2218 0.0
H2438 H 0.66655 0.53795 0.20642 0.0
H2439 H 0.69902 0.53945 0.23499 0.0
H2440 H 0.61341 0.51264 0.20444 0.0
H2441 H 0.68999 0.47941 0.15217 0.0
H2442 H 0.68631 0.46994 0.18197 0.0
H2443 H 0.69421 0.49919 0.17614 0.0
C2444 C 0.68327 0.48331 0.24189 0.0
C2445 C 0.69621 0.50366 0.24495 0.0
C2446 C 0.66482 0.48242 0.22548 0.0
C2447 C 0.65928 0.50186 0.21196 0.0
C2448 C 0.67047 0.52284 0.21686 0.0
H2449 H 0.61615 0.5275 0.0725 0.0
H2450 H 0.63705 0.51999 0.10913 0.0
C2451 C 0.68887 0.52373 0.23328 0.0
C2452 C 0.64586 0.49924 0.18989 0.0
H2453 H 0.65361 0.48403 0.13272 0.0
C2454 C 0.62198 0.50614 0.18877 0.0
C2455 C 0.65739 0.49113 0.1695 0.0
C2456 C 0.68341 0.48451 0.16975 0.0
C2457 C 0.60934 0.50546 0.16752 0.0
C2458 C 0.62085 0.49717 0.14706 0.0
C2459 C 0.64469 0.48999 0.14843 0.0
C2460 C 0.60947 0.49835 0.12359 0.0
C2461 C 0.58419 0.51469 0.16699 0.0
C2462 C 0.58755 0.48771 0.11894 0.0
C2463 C 0.57551 0.49211 0.0979 0.0
C2464 C 0.58553 0.50672 0.08108 0.0
C2465 C 0.60825 0.51584 0.08504 0.0
C2466 C 0.62013 0.51166 0.10605 0.0
H2467 H 0.58 0.52513 0.18277 0.0
H2468 H 0.58117 0.52551 0.15125 0.0
H2469 H 0.57158 0.50009 0.16641 0.0
H2470 H 0.57919 0.477 0.13202 0.0
H2471 H 0.55761 0.48574 0.09575 0.0
H2472 H 0.58234 0.7371 0.21554 0.0
H2473 H 0.57705 0.70303 0.19134 0.0
H2474 H 0.51557 0.68423 0.23204 0.0
H2475 H 0.51984 0.71946 0.25539 0.0
H2476 H 0.57527 0.65824 0.19423 0.0
H2477 H 0.48511 0.68954 0.16959 0.0
H2478 H 0.50504 0.70652 0.18714 0.0
H2479 H 0.4885 0.68334 0.20011 0.0
C2480 C 0.56778 0.72561 0.21953 0.0
C2481 C 0.5511 0.73141 0.23699 0.0
C2482 C 0.56483 0.70601 0.20569 0.0
C2483 C 0.54534 0.6914 0.20915 0.0
C2484 C 0.5302 0.69569 0.22833 0.0
H2485 H 0.48514 0.58933 0.11439 0.0
H2486 H 0.49558 0.61206 0.14874 0.0
C2487 C 0.5329 0.71564 0.242 0.0
C2488 C 0.54017 0.67305 0.19149 0.0
H2489 H 0.49836 0.65558 0.1519 0.0
C2490 C 0.55836 0.65755 0.1851 0.0
C2491 C 0.5182 0.67215 0.1793 0.0
C2492 C 0.49817 0.68888 0.18418 0.0
C2493 C 0.55524 0.64128 0.16704 0.0
C2494 C 0.53338 0.64064 0.15467 0.0
C2495 C 0.5151 0.65589 0.16134 0.0
C2496 C 0.5288 0.62464 0.13461 0.0
C2497 C 0.57539 0.62486 0.16168 0.0
C2498 C 0.54411 0.62362 0.11511 0.0
C2499 C 0.53845 0.60994 0.09561 0.0
C2500 C 0.51697 0.59769 0.09488 0.0
C2501 C 0.50178 0.59863 0.11437 0.0
C2502 C 0.50775 0.61169 0.13406 0.0
H2503 H 0.58714 0.62237 0.17712 0.0
H2504 H 0.56868 0.60781 0.156 0.0
H2505 H 0.58642 0.63214 0.14742 0.0
H2506 H 0.56006 0.63395 0.11457 0.0
H2507 H 0.55035 0.60976 0.08071 0.0
H2508 H 0.32491 0.50096 0.22783 0.0
H2509 H 0.35656 0.50344 0.19851 0.0
H2510 H 0.36653 0.57499 0.21555 0.0
H2511 H 0.33474 0.57253 0.24492 0.0
H2512 H 0.34646 0.55061 0.16321 0.0
H2513 H 0.43565 0.53174 0.20145 0.0
H2514 H 0.40972 0.51664 0.2119 0.0
H2515 H 0.41295 0.54668 0.21802 0.0
C2516 C 0.33486 0.51681 0.22628 0.0
C2517 C 0.32779 0.53646 0.23887 0.0
C2518 C 0.3527 0.5183 0.20936 0.0
C2519 C 0.36375 0.53941 0.2049 0.0
C2520 C 0.35827 0.55852 0.21893 0.0
H2521 H 0.46963 0.55529 0.09443 0.0
H2522 H 0.44416 0.56559 0.12767 0.0
C2523 C 0.34037 0.55705 0.23588 0.0
C2524 C 0.37777 0.54231 0.18325 0.0
H2525 H 0.43351 0.53658 0.16057 0.0
C2526 C 0.36556 0.54782 0.16258 0.0
C2527 C 0.40257 0.53886 0.18267 0.0
C2528 C 0.41621 0.53317 0.20463 0.0
C2529 C 0.3775 0.54945 0.14109 0.0
C2530 C 0.40229 0.54492 0.1402 0.0
C2531 C 0.41456 0.54016 0.16115 0.0
C2532 C 0.41546 0.54284 0.1177 0.0
C2533 C 0.36332 0.55597 0.11964 0.0
C2534 C 0.40755 0.52736 0.10054 0.0
C2535 C 0.42171 0.52229 0.08117 0.0
C2536 C 0.44426 0.53229 0.07864 0.0
C2537 C 0.45183 0.54845 0.09522 0.0
C2538 C 0.43747 0.55384 0.11452 0.0
H2539 H 0.348 0.56723 0.12432 0.0
H2540 H 0.37441 0.56499 0.10651 0.0
H2541 H 0.35597 0.54016 0.11155 0.0
H2542 H 0.39112 0.51799 0.10283 0.0
H2543 H 0.41572 0.50929 0.06893 0.0
H2544 H 0.76736 0.54285 0.71678 0.0
H2545 H 0.80007 0.54506 0.68875 0.0
H2546 H 0.79802 0.47138 0.68005 0.0
H2547 H 0.76546 0.46921 0.70842 0.0
H2548 H 0.8405 0.4875 0.69823 0.0
H2549 H 0.81584 0.53792 0.6194 0.0
H2550 H 0.80737 0.55121 0.64653 0.0
H2551 H 0.79393 0.52449 0.63797 0.0
C2552 C 0.77288 0.52734 0.70772 0.0
C2553 C 0.76369 0.5059 0.7144 0.0
C2554 C 0.79174 0.52857 0.69183 0.0
C2555 C 0.80155 0.50837 0.68232 0.0
C2556 C 0.79067 0.48718 0.68713 0.0
H2557 H 0.9334 0.47468 0.61319 0.0
H2558 H 0.89762 0.47402 0.63712 0.0
C2559 C 0.77184 0.48596 0.70306 0.0
C2560 C 0.8254 0.5089 0.67119 0.0
H2561 H 0.85724 0.53225 0.62637 0.0
C2562 C 0.84411 0.49711 0.68237 0.0
C2563 C 0.83019 0.52181 0.65081 0.0
C2564 C 0.81075 0.53444 0.63783 0.0
C2565 C 0.86749 0.49798 0.67383 0.0
C2566 C 0.87225 0.51069 0.65332 0.0
C2567 C 0.85358 0.52262 0.64219 0.0
C2568 C 0.89614 0.51089 0.6423 0.0
C2569 C 0.88695 0.48568 0.68713 0.0
C2570 C 0.90768 0.53179 0.6378 0.0
C2571 C 0.92821 0.53227 0.62399 0.0
C2572 C 0.93738 0.51184 0.61419 0.0
C2573 C 0.92686 0.49076 0.62037 0.0
C2574 C 0.90634 0.49032 0.63412 0.0
H2575 H 0.88193 0.48284 0.70569 0.0
H2576 H 0.89015 0.46859 0.67903 0.0
H2577 H 0.90383 0.4955 0.68661 0.0
H2578 H 0.90016 0.54784 0.64407 0.0
H2579 H 0.93583 0.54881 0.61966 0.0
H2580 H 0.56334 0.80816 0.71587 0.0
H2581 H 0.56123 0.83333 0.6821 0.0
H2582 H 0.49931 0.79693 0.65741 0.0
H2583 H 0.50038 0.77268 0.69273 0.0
H2584 H 0.56347 0.83283 0.63837 0.0
H2585 H 0.47032 0.85842 0.65924 0.0
H2586 H 0.48724 0.83966 0.67806 0.0
H2587 H 0.47419 0.82875 0.65151 0.0
C2588 C 0.54952 0.80518 0.703 0.0
C2589 C 0.53181 0.78867 0.70716 0.0
C2590 C 0.54826 0.81969 0.68362 0.0
C2591 C 0.52954 0.81783 0.66744 0.0
C2592 C 0.51333 0.79954 0.67011 0.0
H2593 H 0.50205 0.92276 0.55787 0.0
H2594 H 0.50052 0.88684 0.5804 0.0
C2595 C 0.51425 0.78526 0.69 0.0
C2596 C 0.52682 0.83607 0.64902 0.0
H2597 H 0.48934 0.87855 0.62917 0.0
C2598 C 0.54714 0.84265 0.63633 0.0
C2599 C 0.50552 0.84906 0.64604 0.0
C2600 C 0.48313 0.84379 0.65954 0.0
C2601 C 0.54713 0.86216 0.62181 0.0
C2602 C 0.52617 0.87555 0.61958 0.0
C2603 C 0.50544 0.86834 0.63105 0.0
C2604 C 0.52597 0.89775 0.60649 0.0
C2605 C 0.56978 0.86858 0.60929 0.0
C2606 C 0.54027 0.91609 0.61398 0.0
C2607 C 0.54127 0.93657 0.60114 0.0
C2608 C 0.52778 0.93932 0.58059 0.0
C2609 C 0.51273 0.92125 0.57359 0.0
C2610 C 0.51183 0.90068 0.58643 0.0
H2611 H 0.58215 0.85368 0.60778 0.0
H2612 H 0.56594 0.87531 0.5915 0.0
H2613 H 0.57896 0.88226 0.61934 0.0
H2614 H 0.55091 0.91447 0.62971 0.0
H2615 H 0.55279 0.9502 0.60724 0.0
H2616 H 0.28402 0.50092 0.69581 0.0
H2617 H 0.25519 0.49615 0.66407 0.0
H2618 H 0.24109 0.56916 0.66504 0.0
H2619 H 0.27008 0.57387 0.69646 0.0
H2620 H 0.20899 0.50628 0.6744 0.0
H2621 H 0.23578 0.55545 0.59595 0.0
H2622 H 0.25669 0.5475 0.61858 0.0
H2623 H 0.23766 0.57226 0.6222 0.0
C2624 C 0.27598 0.5161 0.68809 0.0
C2625 C 0.27957 0.53782 0.69824 0.0
C2626 C 0.25917 0.51333 0.67025 0.0
C2627 C 0.24589 0.53228 0.66219 0.0
C2628 C 0.25137 0.55433 0.67061 0.0
H2629 H 0.11198 0.55853 0.59422 0.0
H2630 H 0.14827 0.55936 0.61773 0.0
C2631 C 0.26816 0.55709 0.68842 0.0
C2632 C 0.22391 0.52867 0.64823 0.0
H2633 H 0.19417 0.54686 0.59949 0.0
C2634 C 0.20591 0.51484 0.65781 0.0
C2635 C 0.21975 0.54008 0.62677 0.0
C2636 C 0.23859 0.55448 0.61516 0.0
C2637 C 0.18366 0.51266 0.64684 0.0
C2638 C 0.17941 0.52443 0.62562 0.0
C2639 C 0.19748 0.53795 0.61585 0.0
C2640 C 0.15628 0.52318 0.61328 0.0
C2641 C 0.16457 0.49848 0.65841 0.0
C2642 C 0.14857 0.50245 0.60331 0.0
C2643 C 0.1278 0.50189 0.58983 0.0
C2644 C 0.11444 0.52209 0.58601 0.0
C2645 C 0.12184 0.54266 0.59672 0.0
C2646 C 0.1426 0.5432 0.61014 0.0
H2647 H 0.16901 0.4944 0.6769 0.0
H2648 H 0.1472 0.50765 0.65792 0.0
H2649 H 0.16252 0.48202 0.64878 0.0
H2650 H 0.15902 0.48687 0.60531 0.0
H2651 H 0.12266 0.48575 0.58184 0.0
H2652 H 0.45354 0.25808 0.70063 0.0
H2653 H 0.45545 0.23384 0.66538 0.0
H2654 H 0.52766 0.21486 0.68264 0.0
H2655 H 0.52591 0.23953 0.71727 0.0
H2656 H 0.5222 0.21748 0.63614 0.0
H2657 H 0.44925 0.16529 0.67404 0.0
H2658 H 0.4414 0.19469 0.66816 0.0
H2659 H 0.46344 0.18817 0.69003 0.0
C2660 C 0.47011 0.24952 0.69623 0.0
C2661 C 0.4897 0.25091 0.71141 0.0
C2662 C 0.47107 0.2353 0.67636 0.0
C2663 C 0.49148 0.22193 0.67167 0.0
C2664 C 0.51166 0.22484 0.68587 0.0
H2665 H 0.51163 0.08833 0.61082 0.0
H2666 H 0.50138 0.12184 0.63502 0.0
C2667 C 0.51075 0.23912 0.70555 0.0
C2668 C 0.49149 0.20352 0.65339 0.0
H2669 H 0.46544 0.15245 0.63841 0.0
C2670 C 0.50962 0.20339 0.63648 0.0
C2671 C 0.47538 0.18482 0.65408 0.0
C2672 C 0.4564 0.18303 0.67265 0.0
C2673 C 0.51238 0.18502 0.62062 0.0
C2674 C 0.49612 0.16644 0.62116 0.0
C2675 C 0.47772 0.16677 0.63777 0.0
C2676 C 0.49911 0.14567 0.60597 0.0
C2677 C 0.53345 0.1852 0.60426 0.0
C2678 C 0.50021 0.14755 0.58146 0.0
C2679 C 0.50614 0.12839 0.56767 0.0
C2680 C 0.5105 0.10691 0.5781 0.0
C2681 C 0.50795 0.10466 0.60239 0.0
C2682 C 0.50221 0.12384 0.6162 0.0
H2683 H 0.54733 0.1975 0.61008 0.0
H2684 H 0.54165 0.16783 0.60288 0.0
H2685 H 0.52745 0.19054 0.58657 0.0
H2686 H 0.49733 0.16402 0.57305 0.0
H2687 H 0.50834 0.13057 0.54898 0.0
H2688 H 0.78576 0.53885 0.29014 0.0
H2689 H 0.81049 0.54224 0.32452 0.0
H2690 H 0.76381 0.49629 0.36194 0.0
H2691 H 0.74034 0.49075 0.32602 0.0
H2692 H 0.81034 0.55591 0.36429 0.0
H2693 H 0.82234 0.46135 0.37178 0.0
H2694 H 0.80587 0.47422 0.34816 0.0
H2695 H 0.79216 0.47026 0.37639 0.0
C2696 C 0.78062 0.52955 0.30576 0.0
C2697 C 0.7616 0.51396 0.30521 0.0
C2698 C 0.79476 0.53159 0.32556 0.0
C2699 C 0.7897 0.51884 0.34577 0.0
C2700 C 0.76883 0.50545 0.34625 0.0
H2701 H 0.8895 0.5492 0.46046 0.0
H2702 H 0.85356 0.54782 0.43624 0.0
C2703 C 0.75507 0.50269 0.32593 0.0
C2704 C 0.80729 0.51894 0.36532 0.0
H2705 H 0.84207 0.48418 0.39946 0.0
C2706 C 0.81725 0.54014 0.37191 0.0
C2707 C 0.81679 0.49841 0.37509 0.0
C2708 C 0.80894 0.47478 0.36734 0.0
C2709 C 0.83701 0.54137 0.38682 0.0
C2710 C 0.84578 0.52099 0.39735 0.0
C2711 C 0.83522 0.49986 0.39161 0.0
C2712 C 0.86675 0.52096 0.41322 0.0
C2713 C 0.84915 0.56435 0.3897 0.0
C2714 C 0.88559 0.50544 0.40929 0.0
C2715 C 0.90556 0.50553 0.42377 0.0
C2716 C 0.90735 0.52154 0.44205 0.0
C2717 C 0.88857 0.53695 0.44619 0.0
C2718 C 0.86817 0.53629 0.43222 0.0
H2719 H 0.84543 0.57591 0.37465 0.0
H2720 H 0.84232 0.57298 0.40567 0.0
H2721 H 0.86874 0.56232 0.39128 0.0
H2722 H 0.88503 0.49343 0.3948 0.0
H2723 H 0.91992 0.49349 0.42028 0.0
H2724 H 0.50522 0.80824 0.29036 0.0
H2725 H 0.50138 0.83232 0.32497 0.0
H2726 H 0.56454 0.80097 0.35415 0.0
H2727 H 0.56924 0.77777 0.31838 0.0
H2728 H 0.49581 0.82991 0.36901 0.0
H2729 H 0.58637 0.86536 0.35457 0.0
H2730 H 0.57289 0.8456 0.3343 0.0
H2731 H 0.58574 0.83524 0.36119 0.0
C2732 C 0.51793 0.806 0.30446 0.0
C2733 C 0.53761 0.79125 0.30162 0.0
C2734 C 0.51582 0.81992 0.32426 0.0
C2735 C 0.53316 0.81924 0.34197 0.0
C2736 C 0.55144 0.8026 0.34037 0.0
H2737 H 0.5408 0.92046 0.45751 0.0
H2738 H 0.54806 0.88633 0.43319 0.0
C2739 C 0.55383 0.7889 0.32018 0.0
C2740 C 0.53246 0.83711 0.36087 0.0
H2741 H 0.56351 0.8822 0.38438 0.0
C2742 C 0.51074 0.84118 0.37243 0.0
C2743 C 0.55188 0.85201 0.36552 0.0
C2744 C 0.57547 0.84953 0.35313 0.0
C2745 C 0.50764 0.85997 0.38765 0.0
C2746 C 0.52677 0.87517 0.39166 0.0
C2747 C 0.54885 0.87056 0.38116 0.0
C2748 C 0.52369 0.89654 0.40577 0.0
C2749 C 0.4837 0.86365 0.39902 0.0
C2750 C 0.50813 0.91396 0.39812 0.0
C2751 C 0.5039 0.93344 0.41194 0.0
C2752 C 0.51527 0.93604 0.4337 0.0
C2753 C 0.53165 0.91901 0.44089 0.0
C2754 C 0.53583 0.89946 0.42703 0.0
H2755 H 0.47287 0.84771 0.39887 0.0
H2756 H 0.48576 0.86957 0.41738 0.0
H2757 H 0.47377 0.87711 0.38926 0.0
H2758 H 0.49896 0.91232 0.38153 0.0
H2759 H 0.49142 0.94631 0.40571 0.0
H2760 H 0.26211 0.57067 0.30815 0.0
H2761 H 0.23017 0.56792 0.33706 0.0
H2762 H 0.22973 0.49416 0.32874 0.0
H2763 H 0.26188 0.49695 0.30015 0.0
H2764 H 0.18803 0.55056 0.3187 0.0
H2765 H 0.21413 0.50166 0.39816 0.0
H2766 H 0.23567 0.51537 0.37938 0.0
H2767 H 0.22274 0.48834 0.37108 0.0
C2768 C 0.25631 0.5538 0.31376 0.0
C2769 C 0.2646 0.53399 0.30225 0.0
C2770 C 0.23781 0.55224 0.32997 0.0
C2771 C 0.22747 0.53085 0.33493 0.0
C2772 C 0.23765 0.5108 0.32547 0.0
H2773 H 0.09534 0.48922 0.39993 0.0
H2774 H 0.12988 0.49054 0.37416 0.0
C2775 C 0.2562 0.51236 0.30929 0.0
C2776 C 0.2037 0.52994 0.34607 0.0
H2777 H 0.17268 0.50692 0.39156 0.0
C2778 C 0.18471 0.5412 0.33477 0.0
C2779 C 0.19932 0.51728 0.36668 0.0
C2780 C 0.21906 0.50511 0.37967 0.0
C2781 C 0.16144 0.54015 0.34354 0.0
C2782 C 0.15713 0.52782 0.36436 0.0
C2783 C 0.17605 0.51632 0.37552 0.0
C2784 C 0.13346 0.52754 0.3757 0.0
C2785 C 0.14162 0.55186 0.33021 0.0
C2786 C 0.12331 0.54804 0.38415 0.0
C2787 C 0.10347 0.54739 0.39885 0.0
C2788 C 0.09365 0.52618 0.40556 0.0
C2789 C 0.10259 0.50585 0.39534 0.0
C2790 C 0.12241 0.50653 0.38066 0.0
H2791 H 0.14642 0.55451 0.31155 0.0
H2792 H 0.12496 0.5417 0.33103 0.0
H2793 H 0.1381 0.569 0.33808 0.0
H2794 H 0.13168 0.56443 0.3807 0.0
H2795 H 0.09701 0.56339 0.4063 0.0
H2796 H 0.53696 0.25556 0.30725 0.0
H2797 H 0.54299 0.23067 0.34156 0.0
H2798 H 0.46811 0.21514 0.34226 0.0
H2799 H 0.46209 0.23986 0.30805 0.0
H2800 H 0.51088 0.22332 0.39112 0.0
H2801 H 0.51458 0.15515 0.32264 0.0
H2802 H 0.52239 0.18468 0.3166 0.0
H2803 H 0.49177 0.1769 0.32006 0.0
C2804 C 0.52164 0.24779 0.31553 0.0
C2805 C 0.49901 0.24981 0.30524 0.0
C2806 C 0.52513 0.23342 0.33497 0.0
C2807 C 0.50601 0.22097 0.3443 0.0
C2808 C 0.48306 0.22467 0.33535 0.0
H2809 H 0.46421 0.11777 0.43644 0.0
H2810 H 0.47201 0.1518 0.41298 0.0
C2811 C 0.47959 0.23894 0.31596 0.0
C2812 C 0.51024 0.20158 0.36067 0.0
H2813 H 0.51236 0.1428 0.36201 0.0
C2814 C 0.51163 0.20574 0.3848 0.0
C2815 C 0.51133 0.17867 0.35231 0.0
C2816 C 0.51008 0.1734 0.32649 0.0
C2817 C 0.51294 0.18739 0.40086 0.0
C2818 C 0.51288 0.16446 0.39252 0.0
C2819 C 0.51263 0.1604 0.36835 0.0
C2820 C 0.50946 0.14461 0.40848 0.0
C2821 C 0.51359 0.19246 0.4267 0.0
C2822 C 0.52805 0.12918 0.41379 0.0
C2823 C 0.52369 0.10951 0.42746 0.0
C2824 C 0.50057 0.10486 0.4356 0.0
C2825 C 0.48221 0.12065 0.4304 0.0
C2826 C 0.48662 0.14024 0.41707 0.0
H2827 H 0.51748 0.21085 0.4303 0.0
H2828 H 0.49608 0.18824 0.43452 0.0
H2829 H 0.52724 0.18157 0.43543 0.0
H2830 H 0.5458 0.13222 0.40715 0.0
H2831 H 0.5382 0.09772 0.43117 0.0
H2832 H 0.73565 0.81814 0.46566 0.0
H2833 H 0.70173 0.84389 0.46969 0.0
H2834 H 0.67622 0.80359 0.52779 0.0
H2835 H 0.71158 0.77858 0.5248 0.0
H2836 H 0.65714 0.84444 0.46755 0.0
H2837 H 0.67954 0.86325 0.56022 0.0
H2838 H 0.69827 0.84548 0.54205 0.0
H2839 H 0.6718 0.83379 0.55515 0.0
C2840 C 0.72261 0.8145 0.47909 0.0
C2841 C 0.72656 0.79656 0.49519 0.0
C2842 C 0.70314 0.82932 0.48143 0.0
C2843 C 0.68669 0.82643 0.49967 0.0
C2844 C 0.68914 0.80694 0.51421 0.0
H2845 H 0.5646 0.91705 0.52973 0.0
H2846 H 0.59261 0.88456 0.52916 0.0
C2847 C 0.70908 0.79227 0.51218 0.0
C2848 C 0.66807 0.84461 0.50372 0.0
H2849 H 0.64637 0.88273 0.54441 0.0
C2850 C 0.65483 0.85268 0.48443 0.0
C2851 C 0.66498 0.85575 0.52568 0.0
C2852 C 0.67954 0.84931 0.5469 0.0
C2853 C 0.63912 0.87151 0.48637 0.0
C2854 C 0.63614 0.88252 0.50822 0.0
C2855 C 0.6487 0.8742 0.52768 0.0
C2856 C 0.62028 0.90296 0.51092 0.0
C2857 C 0.62594 0.87977 0.46492 0.0
C2858 C 0.62689 0.92436 0.50163 0.0
C2859 C 0.61103 0.94306 0.50212 0.0
C2860 C 0.58812 0.94066 0.51173 0.0
C2861 C 0.58203 0.91949 0.52207 0.0
C2862 C 0.598 0.90087 0.52174 0.0
H2863 H 0.62731 0.86737 0.45019 0.0
H2864 H 0.60686 0.88273 0.46901 0.0
H2865 H 0.63354 0.89642 0.45916 0.0
H2866 H 0.6441 0.9264 0.49337 0.0
H2867 H 0.61634 0.95905 0.49398 0.0
H2868 H 0.71608 0.25347 0.53501 0.0
H2869 H 0.6813 0.22816 0.53917 0.0
H2870 H 0.69185 0.20351 0.46881 0.0
H2871 H 0.72641 0.22867 0.46464 0.0
H2872 H 0.63631 0.21592 0.50172 0.0
H2873 H 0.70499 0.14998 0.52367 0.0
H2874 H 0.70971 0.18033 0.52859 0.0
H2875 H 0.71083 0.16895 0.49946 0.0
C2876 C 0.71023 0.24343 0.52012 0.0
C2877 C 0.72367 0.24317 0.49941 0.0
C2878 C 0.69051 0.22888 0.52256 0.0
C2879 C 0.68411 0.21391 0.50432 0.0
C2880 C 0.69643 0.21501 0.48303 0.0
H2881 H 0.61023 0.09185 0.47296 0.0
H2882 H 0.63715 0.12415 0.47875 0.0
C2883 C 0.71605 0.22947 0.48061 0.0
C2884 C 0.66712 0.19485 0.50837 0.0
H2885 H 0.66577 0.13682 0.51774 0.0
C2886 C 0.64261 0.19868 0.50563 0.0
C2887 C 0.67548 0.1724 0.51335 0.0
C2888 C 0.70167 0.1675 0.51659 0.0
C2889 C 0.62631 0.18035 0.50684 0.0
C2890 C 0.63478 0.15774 0.5112 0.0
C2891 C 0.65925 0.15415 0.51463 0.0
C2892 C 0.61908 0.13725 0.50942 0.0
C2893 C 0.60031 0.18506 0.50227 0.0
C2894 C 0.60034 0.13334 0.52523 0.0
C2895 C 0.58499 0.11453 0.52211 0.0
C2896 C 0.58812 0.09952 0.50305 0.0
C2897 C 0.6074 0.1031 0.48784 0.0
C2898 C 0.62278 0.1216 0.49109 0.0
H2899 H 0.59712 0.20286 0.49587 0.0
H2900 H 0.59326 0.17274 0.48914 0.0
H2901 H 0.59012 0.18266 0.5187 0.0
H2902 H 0.59731 0.14507 0.53966 0.0
H2903 H 0.57004 0.11246 0.5338 0.0
H2904 H 0.79414 0.73167 0.45914 0.0
H2905 H 0.82043 0.69781 0.4585 0.0
H2906 H 0.81198 0.69047 0.53302 0.0
H2907 H 0.78567 0.72435 0.53364 0.0
H2908 H 0.86206 0.69857 0.51171 0.0
H2909 H 0.81211 0.62507 0.47324 0.0
H2910 H 0.80802 0.65365 0.46153 0.0
H2911 H 0.79721 0.64709 0.49021 0.0
C2912 C 0.79685 0.72204 0.47515 0.0
C2913 C 0.78729 0.73023 0.49634 0.0
C2914 C 0.81211 0.70286 0.47481 0.0
C2915 C 0.81815 0.69155 0.4957 0.0
C2916 C 0.80742 0.69882 0.51667 0.0
H2917 H 0.91454 0.5946 0.55288 0.0
H2918 H 0.884 0.62257 0.54219 0.0
C2919 C 0.79212 0.71797 0.51699 0.0
C2920 C 0.83788 0.67433 0.49623 0.0
H2921 H 0.85188 0.61806 0.48468 0.0
C2922 C 0.85987 0.68101 0.50566 0.0
C2923 C 0.83515 0.65155 0.48796 0.0
C2924 C 0.81189 0.64368 0.47766 0.0
C2925 C 0.87893 0.66537 0.50765 0.0
C2926 C 0.87592 0.64232 0.50033 0.0
C2927 C 0.8542 0.63577 0.49017 0.0
C2928 C 0.89417 0.62445 0.50582 0.0
C2929 C 0.90216 0.67338 0.51799 0.0
C2930 C 0.91 0.61594 0.48878 0.0
C2931 C 0.92767 0.59971 0.49486 0.0
C2932 C 0.9298 0.59189 0.51809 0.0
C2933 C 0.91367 0.60038 0.53489 0.0
C2934 C 0.89608 0.61634 0.52881 0.0
H2935 H 0.90291 0.69242 0.51957 0.0
H2936 H 0.90444 0.6658 0.53566 0.0
H2937 H 0.91729 0.6674 0.50702 0.0
H2938 H 0.90888 0.62207 0.47093 0.0
H2939 H 0.93979 0.59355 0.48151 0.0
H2940 H 0.29068 0.82619 0.54248 0.0
H2941 H 0.32568 0.85009 0.5391 0.0
H2942 H 0.35735 0.80068 0.49193 0.0
H2943 H 0.32094 0.77751 0.49361 0.0
H2944 H 0.36924 0.8479 0.54855 0.0
H2945 H 0.36378 0.85521 0.45169 0.0
H2946 H 0.34107 0.84109 0.46854 0.0
H2947 H 0.36868 0.82652 0.46218 0.0
C2948 C 0.30497 0.8204 0.53118 0.0
C2949 C 0.30255 0.8003 0.51764 0.0
C2950 C 0.3252 0.83406 0.52942 0.0
C2951 C 0.34401 0.82779 0.51456 0.0
C2952 C 0.34272 0.80654 0.50272 0.0
H2953 H 0.47193 0.91227 0.493 0.0
H2954 H 0.44379 0.8802 0.49243 0.0
C2955 C 0.32206 0.79302 0.50405 0.0
C2956 C 0.36423 0.84418 0.51134 0.0
H2957 H 0.39383 0.87634 0.47049 0.0
C2958 C 0.37459 0.85397 0.53141 0.0
C2959 C 0.37146 0.85226 0.489 0.0
C2960 C 0.36056 0.8434 0.46662 0.0
C2961 C 0.39112 0.87195 0.52986 0.0
C2962 C 0.39783 0.88031 0.50764 0.0
C2963 C 0.38848 0.86993 0.4875 0.0
C2964 C 0.41407 0.90028 0.50524 0.0
C2965 C 0.401 0.88223 0.55206 0.0
C2966 C 0.40644 0.9224 0.51181 0.0
C2967 C 0.42242 0.94082 0.51205 0.0
C2968 C 0.44641 0.93743 0.50585 0.0
C2969 C 0.45364 0.91548 0.49804 0.0
C2970 C 0.4376 0.8971 0.49769 0.0
H2971 H 0.39767 0.87112 0.56751 0.0
H2972 H 0.42045 0.8851 0.55043 0.0
H2973 H 0.39239 0.89918 0.55522 0.0
H2974 H 0.38826 0.92526 0.51745 0.0
H2975 H 0.41617 0.95747 0.51803 0.0
H2976 H 0.24324 0.30877 0.55676 0.0
H2977 H 0.21679 0.34255 0.55639 0.0
H2978 H 0.21326 0.33913 0.48116 0.0
H2979 H 0.23967 0.30535 0.48151 0.0
H2980 H 0.21709 0.38832 0.51167 0.0
H2981 H 0.14377 0.32608 0.52823 0.0
H2982 H 0.172 0.32273 0.54294 0.0
H2983 H 0.17004 0.31766 0.5121 0.0
C2984 C 0.23778 0.31601 0.54013 0.0
C2985 C 0.24388 0.30491 0.51912 0.0
C2986 C 0.22247 0.33505 0.53995 0.0
C2987 C 0.21303 0.34312 0.51877 0.0
C2988 C 0.22051 0.33315 0.49765 0.0
H2989 H 0.09311 0.42432 0.47498 0.0
H2990 H 0.12183 0.39347 0.483 0.0
C2991 C 0.23581 0.3141 0.49783 0.0
C2992 C 0.19348 0.36021 0.51873 0.0
H2993 H 0.133 0.36491 0.52291 0.0
C2994 C 0.19872 0.38332 0.51432 0.0
C2995 C 0.16959 0.35343 0.52202 0.0
C2996 C 0.16327 0.32864 0.52657 0.0
C2997 C 0.18055 0.39992 0.51284 0.0
C2998 C 0.15659 0.39317 0.51608 0.0
C2999 C 0.15139 0.37002 0.52061 0.0
C3000 C 0.13676 0.40987 0.51363 0.0
C3001 C 0.18706 0.42444 0.50711 0.0
C3002 C 0.13488 0.4287 0.52888 0.0
C3003 C 0.11862 0.44637 0.5243 0.0
C3004 C 0.10384 0.44543 0.50445 0.0
C3005 C 0.10441 0.42565 0.49028 0.0
C3006 C 0.12079 0.40801 0.49484 0.0
H3007 H 0.20554 0.42582 0.50039 0.0
H3008 H 0.17469 0.43174 0.49386 0.0
H3009 H 0.18566 0.43509 0.52317 0.0
H3010 H 0.14668 0.43017 0.54379 0.0
H3011 H 0.1183 0.46119 0.53581 0.0
H3012 H 0.30813 0.23041 0.55168 0.0
H3013 H 0.34237 0.20487 0.54523 0.0
H3014 H 0.34009 0.22015 0.47148 0.0
H3015 H 0.30597 0.24603 0.47801 0.0
H3016 H 0.33274 0.17091 0.4878 0.0
H3017 H 0.41477 0.21182 0.52257 0.0
H3018 H 0.38792 0.21531 0.53943 0.0
H3019 H 0.39005 0.22841 0.51112 0.0
C3020 C 0.3157 0.22912 0.53429 0.0
C3021 C 0.30475 0.24037 0.51537 0.0
C3022 C 0.33516 0.21449 0.5306 0.0
C3023 C 0.3438 0.21069 0.50789 0.0
C3024 C 0.33381 0.22303 0.48915 0.0
H3025 H 0.45649 0.1074 0.48308 0.0
H3026 H 0.43012 0.14062 0.47607 0.0
C3027 C 0.31448 0.23791 0.4929 0.0
C3028 C 0.3604 0.19126 0.50346 0.0
H3029 H 0.41658 0.17163 0.51493 0.0
C3030 C 0.3512 0.17117 0.49333 0.0
C3031 C 0.38439 0.19165 0.5108 0.0
C3032 C 0.39506 0.21296 0.52148 0.0
C3033 C 0.36511 0.15113 0.49122 0.0
C3034 C 0.38886 0.1512 0.49938 0.0
C3035 C 0.39839 0.17162 0.50859 0.0
C3036 C 0.40325 0.12974 0.50075 0.0
C3037 C 0.3541 0.12982 0.48086 0.0
C3038 C 0.39665 0.11243 0.5165 0.0
C3039 C 0.4116 0.09355 0.52043 0.0
C3040 C 0.43331 0.09144 0.50846 0.0
C3041 C 0.43945 0.10819 0.49185 0.0
C3042 C 0.42458 0.12732 0.48813 0.0
H3043 H 0.33827 0.13405 0.47 0.0
H3044 H 0.36717 0.12025 0.46997 0.0
H3045 H 0.34828 0.11832 0.49523 0.0
H3046 H 0.38048 0.1141 0.52669 0.0
H3047 H 0.40671 0.08111 0.53367 0.0
H3048 H 0.77111 0.32147 0.52121 0.0
H3049 H 0.79612 0.35596 0.51913 0.0
H3050 H 0.83105 0.32821 0.45798 0.0
H3051 H 0.80485 0.29524 0.45888 0.0
H3052 H 0.84015 0.3549 0.52694 0.0
H3053 H 0.83245 0.3919 0.43842 0.0
H3054 H 0.81161 0.37087 0.449 0.0
H3055 H 0.83966 0.36196 0.43643 0.0
C3056 C 0.78314 0.32353 0.50657 0.0
C3057 C 0.78601 0.3058 0.49017 0.0
C3058 C 0.79774 0.34303 0.50556 0.0
C3059 C 0.81561 0.34487 0.48835 0.0
C3060 C 0.81712 0.32783 0.47102 0.0
H3061 H 0.94715 0.41831 0.52278 0.0
H3062 H 0.91926 0.38765 0.51245 0.0
C3063 C 0.80212 0.30883 0.47162 0.0
C3064 C 0.8347 0.36252 0.49041 0.0
H3065 H 0.8686 0.40041 0.4593 0.0
C3066 C 0.84605 0.36509 0.51217 0.0
C3067 C 0.84279 0.37573 0.47115 0.0
C3068 C 0.83078 0.37511 0.44754 0.0
C3069 C 0.86492 0.3805 0.51532 0.0
C3070 C 0.87349 0.39309 0.4959 0.0
C3071 C 0.8623 0.39048 0.4741 0.0
C3072 C 0.8924 0.41071 0.49844 0.0
C3073 C 0.87493 0.38361 0.53964 0.0
C3074 C 0.88742 0.4336 0.49231 0.0
C3075 C 0.90348 0.45102 0.49773 0.0
C3076 C 0.92479 0.44595 0.50958 0.0
C3077 C 0.93066 0.42281 0.51404 0.0
C3078 C 0.91465 0.4053 0.50833 0.0
H3079 H 0.86251 0.37728 0.55328 0.0
H3080 H 0.89175 0.37365 0.54126 0.0
H3081 H 0.87881 0.40198 0.54326 0.0
H3082 H 0.87055 0.43819 0.48437 0.0
H3083 H 0.89859 0.46862 0.49363 0.0
H3084 H 0.24585 0.72621 0.47757 0.0
H3085 H 0.22048 0.69204 0.47913 0.0
H3086 H 0.2193 0.69626 0.55439 0.0
H3087 H 0.24476 0.73037 0.55282 0.0
H3088 H 0.21883 0.64693 0.50604 0.0
H3089 H 0.14981 0.71204 0.52963 0.0
H3090 H 0.1782 0.71998 0.51737 0.0
H3091 H 0.17624 0.71124 0.54739 0.0
C3092 C 0.24132 0.71901 0.49445 0.0
C3093 C 0.24756 0.73064 0.51509 0.0
C3094 C 0.2266 0.69966 0.49534 0.0
C3095 C 0.21772 0.69188 0.51685 0.0
C3096 C 0.22588 0.70208 0.53761 0.0
H3097 H 0.11185 0.58408 0.53931 0.0
H3098 H 0.1446 0.61122 0.54449 0.0
C3099 C 0.2407 0.72134 0.53672 0.0
C3100 C 0.19741 0.67564 0.51727 0.0
H3101 H 0.13716 0.6737 0.52548 0.0
C3102 C 0.20103 0.65268 0.51051 0.0
C3103 C 0.17412 0.68333 0.52281 0.0
C3104 C 0.16916 0.70801 0.52957 0.0
C3105 C 0.1819 0.6372 0.50918 0.0
C3106 C 0.15865 0.64495 0.51458 0.0
C3107 C 0.15504 0.66785 0.52143 0.0
C3108 C 0.13778 0.62963 0.51232 0.0
C3109 C 0.18644 0.61275 0.50148 0.0
C3110 C 0.12268 0.63149 0.49285 0.0
C3111 C 0.10395 0.61598 0.48975 0.0
C3112 C 0.09996 0.59834 0.50614 0.0
C3113 C 0.11451 0.59727 0.5262 0.0
C3114 C 0.13328 0.61273 0.52921 0.0
H3115 H 0.20524 0.60984 0.49621 0.0
H3116 H 0.18213 0.60083 0.51602 0.0
H3117 H 0.17467 0.60838 0.48653 0.0
H3118 H 0.12582 0.64455 0.47972 0.0
H3119 H 0.09305 0.61744 0.47419 0.0
loop_
_geom_bond_atom_site_label_1
_geom_bond_atom_site_label_2
_geom_bond_distance
_geom_bond_site_symmetry_2
_ccdc_geom_bond_type
H0 C3 0.931 . S
H1 C6 0.928 . S
H2 C8 0.930 . S
C3 H0 0.931 . S
C3 C4 1.413 . S
C3 C5 1.360 . S
C4 C3 1.413 . S
C4 C8 1.429 . S
C5 C3 1.360 . S
C5 C6 1.372 . S
C6 H1 0.928 . S
C6 C5 1.372 . S
C6 C7 1.404 . S
C7 C6 1.404 . S
C7 C8 1.391 . S
C8 H2 0.930 . S
C8 C4 1.429 . S
C8 C7 1.391 . S
H9 C12 0.931 . S
H10 C15 0.928 . S
H11 C17 0.930 . S
C12 H9 0.931 . S
C12 C13 1.413 . S
C12 C14 1.360 . S
C13 C12 1.413 . S
C13 C17 1.429 . S
C14 C12 1.360 . S
C14 C15 1.372 . S
C15 H10 0.928 . S
C15 C14 1.372 . S
C15 C16 1.404 . S
C16 C15 1.404 . S
C16 C17 1.391 . S
C17 H11 0.930 . S
C17 C13 1.429 . S
C17 C16 1.391 . S
H18 C21 0.931 . S
H19 C24 0.928 . S
H20 C26 0.930 . S
C21 H18 0.931 . S
C21 C22 1.413 . S
C21 C23 1.360 . S
C22 C21 1.413 . S
C22 C26 1.429 . S
C23 C21 1.360 . S
C23 C24 1.372 . S
C24 H19 0.928 . S
C24 C23 1.372 . S
C24 C25 1.404 . S
C25 C24 1.404 . S
C25 C26 1.391 . S
C26 H20 0.930 . S
C26 C22 1.429 . S
C26 C25 1.391 . S
H27 C30 0.931 . S
H28 C33 0.928 . S
H29 C35 0.930 . S
C30 H27 0.931 . S
C30 C31 1.413 . S
C30 C32 1.360 . S
C31 C30 1.413 . S
C31 C35 1.429 . S
C32 C30 1.360 . S
C32 C33 1.372 . S
C33 H28 0.928 . S
C33 C32 1.372 . S
C33 C34 1.404 . S
C34 C33 1.404 . S
C34 C35 1.391 . S
C35 H29 0.930 . S
C35 C31 1.429 . S
C35 C34 1.391 . S
H36 C39 0.931 1_655 S
H37 C42 0.933 . S
H38 C44 0.930 . S
C39 H36 0.931 1_455 S
C39 C40 1.413 . S
C39 C41 1.360 1_455 S
C40 C39 1.413 . S
C40 C44 1.429 . S
C41 C39 1.360 1_655 S
C41 C42 1.371 . S
C42 H37 0.933 . S
C42 C41 1.371 . S
C42 C43 1.403 1_655 S
C43 C42 1.403 1_455 S
C43 C44 1.390 . S
C44 H38 0.930 . S
C44 C40 1.429 . S
C44 C43 1.390 . S
H45 C48 0.931 . S
H46 C51 0.928 . S
H47 C53 0.930 . S
C48 H45 0.931 . S
C48 C49 1.413 . S
C48 C50 1.360 . S
C49 C48 1.413 . S
C49 C53 1.429 . S
C50 C48 1.360 . S
C50 C51 1.372 . S
C51 H46 0.928 . S
C51 C50 1.372 . S
C51 C52 1.404 . S
C52 C51 1.404 . S
C52 C53 1.391 . S
C53 H47 0.930 . S
C53 C49 1.429 . S
C53 C52 1.391 . S
H54 C57 0.931 . S
H55 C60 0.928 . S
H56 C62 0.930 . S
C57 H54 0.931 . S
C57 C58 1.413 . S
C57 C59 1.360 . S
C58 C57 1.413 . S
C58 C62 1.429 . S
C59 C57 1.360 . S
C59 C60 1.372 . S
C60 H55 0.928 . S
C60 C59 1.372 . S
C60 C61 1.404 . S
C61 C60 1.404 . S
C61 C62 1.391 . S
C62 H56 0.930 . S
C62 C58 1.429 . S
C62 C61 1.391 . S
H63 C66 0.931 . S
H64 C69 0.928 . S
H65 C71 0.930 . S
C66 H63 0.931 . S
C66 C67 1.413 . S
C66 C68 1.360 . S
C67 C66 1.413 . S
C67 C71 1.429 . S
C68 C66 1.360 . S
C68 C69 1.372 . S
C69 H64 0.928 . S
C69 C68 1.372 . S
C69 C70 1.404 . S
C70 C69 1.404 . S
C70 C71 1.391 . S
C71 H65 0.930 . S
C71 C67 1.429 . S
C71 C70 1.391 . S
H72 C75 0.931 . S
H73 C78 0.928 . S
H74 C80 0.930 . S
C75 H72 0.931 . S
C75 C76 1.413 . S
C75 C77 1.360 . S
C76 C75 1.413 . S
C76 C80 1.429 . S
C77 C75 1.360 . S
C77 C78 1.372 . S
C78 H73 0.928 . S
C78 C77 1.372 . S
C78 C79 1.404 . S
C79 C78 1.404 . S
C79 C80 1.391 . S
C80 H74 0.930 . S
C80 C76 1.429 . S
C80 C79 1.391 . S
H81 C84 0.931 . S
H82 C87 0.928 . S
H83 C89 0.930 . S
C84 H81 0.931 . S
C84 C85 1.413 . S
C84 C86 1.360 . S
C85 C84 1.413 . S
C85 C89 1.429 . S
C86 C84 1.360 . S
C86 C87 1.372 . S
C87 H82 0.928 . S
C87 C86 1.372 . S
C87 C88 1.404 . S
C88 C87 1.404 . S
C88 C89 1.391 . S
C89 H83 0.930 . S
C89 C85 1.429 . S
C89 C88 1.391 . S
H90 C93 0.931 . S
H91 C96 0.928 . S
H92 C98 0.930 . S
C93 H90 0.931 . S
C93 C94 1.413 . S
C93 C95 1.360 . S
C94 C93 1.413 . S
C94 C98 1.429 . S
C95 C93 1.360 . S
C95 C96 1.372 . S
C96 H91 0.928 . S
C96 C95 1.372 . S
C96 C97 1.404 . S
C97 C96 1.404 . S
C97 C98 1.391 . S
C98 H92 0.930 . S
C98 C94 1.429 . S
C98 C97 1.391 . S
H99 C102 0.931 . S
H100 C105 0.928 . S
H101 C107 0.930 . S
C102 H99 0.931 . S
C102 C103 1.413 . S
C102 C104 1.360 . S
C103 C102 1.413 . S
C103 C107 1.429 . S
C104 C102 1.360 . S
C104 C105 1.372 . S
C105 H100 0.928 . S
C105 C104 1.372 . S
C105 C106 1.404 . S
C106 C105 1.404 . S
C106 C107 1.391 . S
C107 H101 0.930 . S
C107 C103 1.429 . S
C107 C106 1.391 . S
H108 C111 0.931 . S
H109 C114 0.928 . S
H110 C116 0.930 . S
C111 H108 0.931 . S
C111 C112 1.413 . S
C111 C113 1.360 . S
C112 C111 1.413 . S
C112 C116 1.429 . S
C113 C111 1.360 . S
C113 C114 1.372 . S
C114 H109 0.928 . S
C114 C113 1.372 . S
C114 C115 1.404 . S
C115 C114 1.404 . S
C115 C116 1.391 . S
C116 H110 0.930 . S
C116 C112 1.429 . S
C116 C115 1.391 . S
H117 C120 0.931 . S
H118 C123 0.928 . S
H119 C125 0.930 . S
C120 H117 0.931 . S
C120 C121 1.413 . S
C120 C122 1.360 . S
C121 C120 1.413 . S
C121 C125 1.429 . S
C122 C120 1.360 . S
C122 C123 1.372 . S
C123 H118 0.928 . S
C123 C122 1.372 . S
C123 C124 1.404 . S
C124 C123 1.404 . S
C124 C125 1.391 . S
C125 H119 0.930 . S
C125 C121 1.429 . S
C125 C124 1.391 . S
H126 C129 0.931 . S
H127 C132 0.928 . S
H128 C134 0.930 . S
C129 H126 0.931 . S
C129 C130 1.413 . S
C129 C131 1.360 . S
C130 C129 1.413 . S
C130 C134 1.429 . S
C131 C129 1.360 . S
C131 C132 1.372 . S
C132 H127 0.928 . S
C132 C131 1.372 . S
C132 C133 1.404 . S
C133 C132 1.404 . S
C133 C134 1.391 . S
C134 H128 0.930 . S
C134 C130 1.429 . S
C134 C133 1.391 . S
H135 C138 0.931 . S
H136 C141 0.928 . S
H137 C143 0.930 . S
C138 H135 0.931 . S
C138 C139 1.413 . S
C138 C140 1.360 . S
C139 C138 1.413 . S
C139 C143 1.429 . S
C140 C138 1.360 . S
C140 C141 1.372 . S
C141 H136 0.928 . S
C141 C140 1.372 . S
C141 C142 1.404 . S
C142 C141 1.404 . S
C142 C143 1.391 . S
C143 H137 0.930 . S
C143 C139 1.429 . S
C143 C142 1.391 . S
H144 C147 0.931 . S
H145 C150 0.928 . S
H146 C152 0.930 . S
C147 H144 0.931 . S
C147 C148 1.413 . S
C147 C149 1.360 . S
C148 C147 1.413 . S
C148 C152 1.429 . S
C149 C147 1.360 . S
C149 C150 1.372 . S
C150 H145 0.928 . S
C150 C149 1.372 . S
C150 C151 1.404 . S
C151 C150 1.404 . S
C151 C152 1.391 . S
C152 H146 0.930 . S
C152 C148 1.429 . S
C152 C151 1.391 . S
H153 C156 0.931 . S
H154 C159 0.928 . S
H155 C161 0.930 . S
C156 H153 0.931 . S
C156 C157 1.413 . S
C156 C158 1.360 . S
C157 C156 1.413 . S
C157 C161 1.429 . S
C158 C156 1.360 . S
C158 C159 1.372 . S
C159 H154 0.928 . S
C159 C158 1.372 . S
C159 C160 1.404 . S
C160 C159 1.404 . S
C160 C161 1.391 . S
C161 H155 0.930 . S
C161 C157 1.429 . S
C161 C160 1.391 . S
H162 C165 0.931 . S
H163 C168 0.928 . S
H164 C170 0.930 . S
C165 H162 0.931 . S
C165 C166 1.413 . S
C165 C167 1.360 . S
C166 C165 1.413 . S
C166 C170 1.429 . S
C167 C165 1.360 . S
C167 C168 1.372 . S
C168 H163 0.928 . S
C168 C167 1.372 . S
C168 C169 1.404 . S
C169 C168 1.404 . S
C169 C170 1.391 . S
C170 H164 0.930 . S
C170 C166 1.429 . S
C170 C169 1.391 . S
H171 C174 0.931 . S
H172 C177 0.928 . S
H173 C179 0.930 . S
C174 H171 0.931 . S
C174 C175 1.413 . S
C174 C176 1.360 . S
C175 C174 1.413 . S
C175 C179 1.429 . S
C176 C174 1.360 . S
C176 C177 1.372 . S
C177 H172 0.928 . S
C177 C176 1.372 . S
C177 C178 1.404 . S
C178 C177 1.404 . S
C178 C179 1.391 . S
C179 H173 0.930 . S
C179 C175 1.429 . S
C179 C178 1.391 . S
H180 C183 0.931 . S
H181 C186 0.928 . S
H182 C188 0.930 . S
C183 H180 0.931 . S
C183 C184 1.413 . S
C183 C185 1.360 . S
C184 C183 1.413 . S
C184 C188 1.429 . S
C185 C183 1.360 . S
C185 C186 1.372 . S
C186 H181 0.928 . S
C186 C185 1.372 . S
C186 C187 1.404 . S
C187 C186 1.404 . S
C187 C188 1.391 . S
C188 H182 0.930 . S
C188 C184 1.429 . S
C188 C187 1.391 . S
H189 C192 0.931 . S
H190 C195 0.928 . S
H191 C197 0.930 . S
C192 H189 0.931 . S
C192 C193 1.413 . S
C192 C194 1.360 . S
C193 C192 1.413 . S
C193 C197 1.429 . S
C194 C192 1.360 . S
C194 C195 1.372 . S
C195 H190 0.928 . S
C195 C194 1.372 . S
C195 C196 1.404 . S
C196 C195 1.404 . S
C196 C197 1.391 . S
C197 H191 0.930 . S
C197 C193 1.429 . S
C197 C196 1.391 . S
H198 C201 0.931 . S
H199 C204 0.928 . S
H200 C206 0.930 . S
C201 H198 0.931 . S
C201 C202 1.413 . S
C201 C203 1.360 . S
C202 C201 1.413 . S
C202 C206 1.429 . S
C203 C201 1.360 . S
C203 C204 1.372 . S
C204 H199 0.928 . S
C204 C203 1.372 . S
C204 C205 1.404 . S
C205 C204 1.404 . S
C205 C206 1.391 . S
C206 H200 0.930 . S
C206 C202 1.429 . S
C206 C205 1.391 . S
H207 C210 0.931 . S
H208 C213 0.928 . S
H209 C215 0.930 . S
C210 H207 0.931 . S
C210 C211 1.413 . S
C210 C212 1.360 . S
C211 C210 1.413 . S
C211 C215 1.429 . S
C212 C210 1.360 . S
C212 C213 1.372 . S
C213 H208 0.928 . S
C213 C212 1.372 . S
C213 C214 1.404 . S
C214 C213 1.404 . S
C214 C215 1.391 . S
C215 H209 0.930 . S
C215 C211 1.429 . S
C215 C214 1.391 . S
Zn216 O218 1.933 1_665 S
Zn216 O236 1.985 1_565 S
Zn216 O247 1.950 1_655 S
Zn217 O218 1.911 1_655 S
Zn217 O237 1.970 . S
Zn217 O253 1.945 1_655 S
Zn217 O260 1.981 . S
O218 Zn216 1.933 1_445 S
O218 Zn217 1.911 1_455 S
O218 H219 0.841 . S
H219 O218 0.841 . S
C220 O221 1.246 . S
C220 O249 1.276 . S
O221 C220 1.246 . S
Zn222 O224 1.911 . S
Zn222 O239 1.970 . S
Zn222 O256 1.945 . S
Zn222 O263 1.981 . S
Zn223 O224 1.933 1_565 S
Zn223 O238 1.985 . S
Zn223 O245 1.955 . S
O224 Zn222 1.911 . S
O224 Zn223 1.933 1_545 S
O224 H225 0.841 . S
H225 O224 0.841 . S
Zn226 O227 1.933 1_565 S
Zn226 O240 1.985 1_565 S
Zn226 O249 1.955 . S
O227 Zn226 1.933 1_545 S
O227 Zn228 1.911 . S
O227 H229 0.841 . S
Zn228 O227 1.911 . S
Zn228 O241 1.970 . S
Zn228 O257 1.981 1_655 S
Zn228 O259 1.945 . S
H229 O227 0.841 . S
Zn230 O231 1.933 1_565 S
Zn230 O243 1.985 . S
Zn230 O251 1.955 . S
O231 Zn230 1.933 1_545 S
O231 H232 0.841 . S
O231 Zn233 1.911 . S
H232 O231 0.841 . S
Zn233 O231 1.911 . S
Zn233 O244 1.970 . S
Zn233 O254 1.981 . S
Zn233 O262 1.945 . S
C234 O235 1.246 . S
C234 O251 1.276 . S
O235 C234 1.246 . S
O236 Zn216 1.985 1_545 S
O236 C246 1.245 . S
O237 Zn217 1.970 . S
O237 C246 1.263 . S
O238 Zn223 1.985 . S
O238 C250 1.245 1_565 S
O239 Zn222 1.970 . S
O239 C250 1.263 . S
O240 Zn226 1.985 1_545 S
O240 C255 1.245 . S
O241 Zn228 1.970 . S
O241 C255 1.263 . S
C242 O253 1.262 . S
C242 O254 1.245 . S
O243 Zn230 1.985 . S
O243 C261 1.245 1_565 S
O244 Zn233 1.970 . S
O244 C261 1.263 . S
O245 Zn223 1.955 . S
O245 C264 1.276 . S
C246 O236 1.245 . S
C246 O237 1.263 . S
O247 Zn216 1.950 1_455 S
O247 C266 1.295 . S
C248 O256 1.262 . S
C248 O257 1.245 . S
O249 C220 1.276 . S
O249 Zn226 1.955 . S
C250 O238 1.245 1_545 S
C250 O239 1.263 . S
O251 Zn230 1.955 . S
O251 C234 1.276 . S
C252 O259 1.262 . S
C252 O260 1.245 . S
O253 Zn217 1.945 1_455 S
O253 C242 1.262 . S
O254 Zn233 1.981 . S
O254 C242 1.245 . S
C255 O240 1.245 . S
C255 O241 1.263 . S
O256 Zn222 1.945 . S
O256 C248 1.262 . S
O257 Zn228 1.981 1_455 S
O257 C248 1.245 . S
C258 O262 1.262 . S
C258 O263 1.245 . S
O259 Zn228 1.945 . S
O259 C252 1.262 . S
O260 Zn217 1.981 . S
O260 C252 1.245 . S
C261 O243 1.245 1_545 S
C261 O244 1.263 . S
O262 Zn233 1.945 . S
O262 C258 1.262 . S
O263 Zn222 1.981 . S
O263 C258 1.245 . S
C264 O245 1.276 . S
C264 O265 1.246 . S
O265 C264 1.246 . S
C266 O247 1.295 . S
C266 O267 1.246 . S
O267 C266 1.246 . S
Zn268 O270 1.933 . S
Zn268 O288 1.985 . S
Zn268 O299 1.955 . S
Zn269 O270 1.911 1_556 S
Zn269 O289 1.970 . S
Zn269 O305 1.945 . S
Zn269 O312 1.981 . S
O270 Zn268 1.933 . S
O270 Zn269 1.911 1_554 S
O270 H271 0.841 . S
H271 O270 0.841 . S
C272 O273 1.246 . S
C272 O301 1.276 . S
O273 C272 1.246 . S
Zn274 O276 1.896 1_566 S
Zn274 O291 1.970 . S
Zn274 O308 1.964 . S
Zn274 O315 1.981 . S
Zn275 O276 1.923 1_565 S
Zn275 O290 1.985 . S
Zn275 O297 1.942 1_565 S
O276 Zn274 1.896 1_544 S
O276 Zn275 1.923 1_545 S
O276 H277 0.875 . S
H277 O276 0.875 . S
Zn278 O279 1.933 . S
Zn278 O292 1.985 . S
Zn278 O301 1.955 . S
O279 Zn278 1.933 . S
O279 Zn280 1.911 1_554 S
O279 H281 0.841 . S
Zn280 O279 1.911 1_556 S
Zn280 O293 1.970 . S
Zn280 O309 1.981 . S
Zn280 O311 1.945 . S
H281 O279 0.841 . S
Zn282 O283 1.933 . S
Zn282 O295 1.985 . S
Zn282 O303 1.955 . S
O283 Zn282 1.933 . S
O283 H284 0.841 . S
O283 Zn285 1.911 1_554 S
H284 O283 0.841 . S
Zn285 O283 1.911 1_556 S
Zn285 O296 1.970 . S
Zn285 O306 1.981 1_565 S
Zn285 O314 1.945 . S
C286 O287 1.246 . S
C286 O303 1.276 . S
O287 C286 1.246 . S
O288 Zn268 1.985 . S
O288 C298 1.245 . S
O289 Zn269 1.970 . S
O289 C298 1.263 1_556 S
O290 Zn275 1.985 . S
O290 C302 1.245 . S
O291 Zn274 1.970 . S
O291 C302 1.263 1_556 S
O292 Zn278 1.985 . S
O292 C307 1.245 . S
O293 Zn280 1.970 . S
O293 C307 1.263 1_556 S
C294 O305 1.262 . S
C294 O306 1.245 . S
O295 Zn282 1.985 . S
O295 C313 1.245 . S
O296 Zn285 1.970 . S
O296 C313 1.263 1_556 S
O297 Zn275 1.942 1_545 S
O297 C316 1.321 . S
C298 O288 1.245 . S
C298 O289 1.263 1_554 S
O299 Zn268 1.955 . S
O299 C318 1.276 . S
C300 O308 1.212 1_545 S
C300 O309 1.245 . S
O301 C272 1.276 . S
O301 Zn278 1.955 . S
C302 O290 1.245 . S
C302 O291 1.263 1_554 S
O303 Zn282 1.955 . S
O303 C286 1.276 . S
C304 O311 1.262 . S
C304 O312 1.245 . S
O305 Zn269 1.945 . S
O305 C294 1.262 . S
O306 Zn285 1.981 1_545 S
O306 C294 1.245 . S
C307 O292 1.245 . S
C307 O293 1.263 1_554 S
O308 Zn274 1.964 . S
O308 C300 1.212 1_565 S
O309 Zn280 1.981 . S
O309 C300 1.245 . S
C310 O314 1.262 . S
C310 O315 1.245 . S
O311 Zn280 1.945 . S
O311 C304 1.262 . S
O312 Zn269 1.981 . S
O312 C304 1.245 . S
C313 O295 1.245 . S
C313 O296 1.263 1_554 S
O314 Zn285 1.945 . S
O314 C310 1.262 . S
O315 Zn274 1.981 . S
O315 C310 1.245 . S
C316 O297 1.321 . S
C316 O317 1.246 . S
O317 C316 1.246 . S
C318 O299 1.276 . S
C318 O319 1.246 . S
O319 C318 1.246 . S
Zn320 O322 1.933 1_655 S
Zn320 O340 1.985 . S
Zn320 O351 1.955 1_655 S
Zn321 O322 1.911 1_655 S
Zn321 O341 1.970 . S
Zn321 O357 1.945 . S
Zn321 O364 1.981 . S
O322 Zn320 1.933 1_455 S
O322 Zn321 1.911 1_455 S
O322 H323 0.841 . S
H323 O322 0.841 . S
C324 O325 1.246 1_554 S
C324 O353 1.276 . S
O325 C324 1.246 1_556 S
Zn326 O328 1.911 . S
Zn326 O343 1.970 . S
Zn326 O360 1.945 . S
Zn326 O367 1.981 . S
Zn327 O328 1.933 . S
Zn327 O342 1.985 . S
Zn327 O349 1.955 . S
O328 Zn326 1.911 . S
O328 Zn327 1.933 . S
O328 H329 0.841 . S
H329 O328 0.841 . S
Zn330 O331 1.933 . S
Zn330 O344 1.985 . S
Zn330 O353 1.955 . S
O331 Zn330 1.933 . S
O331 Zn332 1.911 . S
O331 H333 0.841 . S
Zn332 O331 1.911 . S
Zn332 O345 1.970 . S
Zn332 O361 1.981 1_655 S
Zn332 O363 1.945 . S
H333 O331 0.841 . S
Zn334 O335 1.933 . S
Zn334 O347 1.985 . S
Zn334 O355 1.955 . S
O335 Zn334 1.933 . S
O335 H336 0.841 1_556 S
O335 Zn337 1.911 . S
H336 O335 0.841 1_554 S
Zn337 O335 1.911 . S
Zn337 O348 1.970 . S
Zn337 O358 1.981 . S
Zn337 O366 1.945 . S
C338 O339 1.246 . S
C338 O355 1.276 1_554 S
O339 C338 1.246 . S
O340 Zn320 1.985 . S
O340 C350 1.245 . S
O341 Zn321 1.970 . S
O341 C350 1.263 . S
O342 Zn327 1.985 . S
O342 C354 1.245 . S
O343 Zn326 1.970 . S
O343 C354 1.263 . S
O344 Zn330 1.985 . S
O344 C359 1.245 . S
O345 Zn332 1.970 . S
O345 C359 1.263 . S
C346 O357 1.262 1_455 S
C346 O358 1.245 . S
O347 Zn334 1.985 . S
O347 C365 1.245 . S
O348 Zn337 1.970 . S
O348 C365 1.263 . S
O349 Zn327 1.955 . S
O349 C368 1.276 . S
C350 O340 1.245 . S
C350 O341 1.263 . S
O351 Zn320 1.955 1_455 S
O351 C370 1.276 . S
C352 O360 1.262 . S
C352 O361 1.245 . S
O353 C324 1.276 . S
O353 Zn330 1.955 . S
C354 O342 1.245 . S
C354 O343 1.263 . S
O355 Zn334 1.955 . S
O355 C338 1.276 1_556 S
C356 O363 1.262 . S
C356 O364 1.245 1_554 S
O357 Zn321 1.945 . S
O357 C346 1.262 1_655 S
O358 Zn337 1.981 . S
O358 C346 1.245 . S
C359 O344 1.245 . S
C359 O345 1.263 . S
O360 Zn326 1.945 . S
O360 C352 1.262 . S
O361 Zn332 1.981 1_455 S
O361 C352 1.245 . S
C362 O366 1.262 1_554 S
C362 O367 1.245 . S
O363 Zn332 1.945 . S
O363 C356 1.262 . S
O364 Zn321 1.981 . S
O364 C356 1.245 1_556 S
C365 O347 1.245 . S
C365 O348 1.263 . S
O366 Zn337 1.945 . S
O366 C362 1.262 1_556 S
O367 Zn326 1.981 . S
O367 C362 1.245 . S
C368 O349 1.276 . S
C368 O369 1.246 . S
O369 C368 1.246 . S
C370 O351 1.276 . S
C370 O371 1.246 . S
O371 C370 1.246 . S
Zn372 O374 1.933 1_556 S
Zn372 O392 1.985 . S
Zn372 O403 1.955 . S
Zn373 O374 1.911 . S
Zn373 O393 1.970 . S
Zn373 O409 1.945 . S
Zn373 O416 1.981 . S
O374 Zn372 1.933 1_554 S
O374 Zn373 1.911 . S
O374 H375 0.841 . S
H375 O374 0.841 . S
C376 O377 1.246 . S
C376 O405 1.276 . S
O377 C376 1.246 . S
Zn378 O380 1.911 . S
Zn378 O395 1.970 . S
Zn378 O412 1.945 . S
Zn378 O419 1.981 . S
Zn379 O380 1.933 1_556 S
Zn379 O394 1.985 . S
Zn379 O401 1.955 . S
O380 Zn378 1.911 . S
O380 Zn379 1.933 1_554 S
O380 H381 0.841 . S
H381 O380 0.841 . S
Zn382 O383 1.933 1_556 S
Zn382 O396 1.985 . S
Zn382 O405 1.955 . S
O383 Zn382 1.933 1_554 S
O383 Zn384 1.911 . S
O383 H385 0.841 . S
Zn384 O383 1.911 . S
Zn384 O397 1.970 . S
Zn384 O413 1.981 . S
Zn384 O415 1.945 . S
H385 O383 0.841 . S
Zn386 O387 1.933 1_556 S
Zn386 O399 1.985 . S
Zn386 O407 1.955 . S
O387 Zn386 1.933 1_554 S
O387 H388 0.841 . S
O387 Zn389 1.911 . S
H388 O387 0.841 . S
Zn389 O387 1.911 . S
Zn389 O400 1.970 . S
Zn389 O410 1.981 . S
Zn389 O418 1.945 . S
C390 O391 1.246 . S
C390 O407 1.276 . S
O391 C390 1.246 . S
O392 Zn372 1.985 . S
O392 C402 1.245 1_556 S
O393 Zn373 1.970 . S
O393 C402 1.263 . S
O394 Zn379 1.985 . S
O394 C406 1.245 1_556 S
O395 Zn378 1.970 . S
O395 C406 1.263 . S
O396 Zn382 1.985 . S
O396 C411 1.245 1_556 S
O397 Zn384 1.970 . S
O397 C411 1.263 . S
C398 O409 1.262 . S
C398 O410 1.245 . S
O399 Zn386 1.985 . S
O399 C417 1.245 1_556 S
O400 Zn389 1.970 . S
O400 C417 1.263 . S
O401 Zn379 1.955 . S
O401 C420 1.276 . S
C402 O392 1.245 1_554 S
C402 O393 1.263 . S
O403 Zn372 1.955 . S
O403 C422 1.276 . S
C404 O412 1.262 . S
C404 O413 1.245 . S
O405 C376 1.276 . S
O405 Zn382 1.955 . S
C406 O394 1.245 1_554 S
C406 O395 1.263 . S
O407 Zn386 1.955 . S
O407 C390 1.276 . S
C408 O415 1.262 . S
C408 O416 1.245 . S
O409 Zn373 1.945 . S
O409 C398 1.262 . S
O410 Zn389 1.981 . S
O410 C398 1.245 . S
C411 O396 1.245 1_554 S
C411 O397 1.263 . S
O412 Zn378 1.945 . S
O412 C404 1.262 . S
O413 Zn384 1.981 . S
O413 C404 1.245 . S
C414 O418 1.262 . S
C414 O419 1.245 . S
O415 Zn384 1.945 . S
O415 C408 1.262 . S
O416 Zn373 1.981 . S
O416 C408 1.245 . S
C417 O399 1.245 1_554 S
C417 O400 1.263 . S
O418 Zn389 1.945 . S
O418 C414 1.262 . S
O419 Zn378 1.981 . S
O419 C414 1.245 . S
C420 O401 1.276 . S
C420 O421 1.246 . S
O421 C420 1.246 . S
C422 O403 1.276 . S
C422 O423 1.246 . S
O423 C422 1.246 . S
Zn424 O426 1.933 1_655 S
Zn424 O444 1.985 . S
Zn424 O455 1.955 1_655 S
Zn425 O426 1.911 1_655 S
Zn425 O445 1.970 . S
Zn425 O461 1.945 . S
Zn425 O468 1.981 . S
O426 Zn424 1.933 1_455 S
O426 Zn425 1.911 1_455 S
O426 H427 0.841 . S
H427 O426 0.841 . S
C428 O429 1.246 . S
C428 O457 1.276 . S
O429 C428 1.246 . S
Zn430 O432 1.911 . S
Zn430 O447 1.970 . S
Zn430 O464 1.945 . S
Zn430 O471 1.981 . S
Zn431 O432 1.933 . S
Zn431 O446 1.985 . S
Zn431 O453 1.955 . S
O432 Zn430 1.911 . S
O432 Zn431 1.933 . S
O432 H433 0.841 . S
H433 O432 0.841 . S
Zn434 O435 1.933 . S
Zn434 O448 1.985 . S
Zn434 O457 1.955 . S
O435 Zn434 1.933 . S
O435 Zn436 1.911 . S
O435 H437 0.841 . S
Zn436 O435 1.911 . S
Zn436 O449 1.970 . S
Zn436 O465 1.981 1_655 S
Zn436 O467 1.945 . S
H437 O435 0.841 . S
Zn438 O439 1.933 . S
Zn438 O451 1.985 . S
Zn438 O459 1.955 . S
O439 Zn438 1.933 . S
O439 H440 0.841 . S
O439 Zn441 1.911 . S
H440 O439 0.841 . S
Zn441 O439 1.911 . S
Zn441 O452 1.970 . S
Zn441 O462 1.981 . S
Zn441 O470 1.945 . S
C442 O443 1.246 . S
C442 O459 1.276 . S
O443 C442 1.246 . S
O444 Zn424 1.985 . S
O444 C454 1.245 . S
O445 Zn425 1.970 . S
O445 C454 1.263 . S
O446 Zn431 1.985 . S
O446 C458 1.245 . S
O447 Zn430 1.970 . S
O447 C458 1.263 . S
O448 Zn434 1.985 . S
O448 C463 1.245 . S
O449 Zn436 1.970 . S
O449 C463 1.263 . S
C450 O461 1.262 1_455 S
C450 O462 1.245 . S
O451 Zn438 1.985 . S
O451 C469 1.245 . S
O452 Zn441 1.970 . S
O452 C469 1.263 . S
O453 Zn431 1.955 . S
O453 C472 1.276 . S
C454 O444 1.245 . S
C454 O445 1.263 . S
O455 Zn424 1.955 1_455 S
O455 C474 1.276 . S
C456 O464 1.262 . S
C456 O465 1.245 . S
O457 C428 1.276 . S
O457 Zn434 1.955 . S
C458 O446 1.245 . S
C458 O447 1.263 . S
O459 Zn438 1.955 . S
O459 C442 1.276 . S
C460 O467 1.262 . S
C460 O468 1.245 . S
O461 Zn425 1.945 . S
O461 C450 1.262 1_655 S
O462 Zn441 1.981 . S
O462 C450 1.245 . S
C463 O448 1.245 . S
C463 O449 1.263 . S
O464 Zn430 1.945 . S
O464 C456 1.262 . S
O465 Zn436 1.981 1_455 S
O465 C456 1.245 . S
C466 O470 1.262 . S
C466 O471 1.245 . S
O467 Zn436 1.945 . S
O467 C460 1.262 . S
O468 Zn425 1.981 . S
O468 C460 1.245 . S
C469 O451 1.245 . S
C469 O452 1.263 . S
O470 Zn441 1.945 . S
O470 C466 1.262 . S
O471 Zn430 1.981 . S
O471 C466 1.245 . S
C472 O453 1.276 . S
C472 O473 1.246 . S
O473 C472 1.246 . S
C474 O455 1.276 . S
C474 O475 1.246 . S
O475 C474 1.246 . S
Zn476 O478 1.933 1_565 S
Zn476 O496 1.993 . S
Zn476 O507 1.955 . S
Zn477 O478 1.911 . S
Zn477 O497 1.970 . S
Zn477 O513 1.945 . S
Zn477 O520 1.981 . S
O478 Zn476 1.933 1_545 S
O478 Zn477 1.911 . S
O478 H479 0.841 . S
H479 O478 0.841 . S
C480 O481 1.246 . S
C480 O509 1.276 . S
O481 C480 1.246 . S
Zn482 O484 1.911 . S
Zn482 O499 1.970 . S
Zn482 O516 1.945 . S
Zn482 O523 1.981 . S
Zn483 O484 1.933 1_565 S
Zn483 O498 1.985 1_565 S
Zn483 O505 1.955 . S
O484 Zn482 1.911 . S
O484 Zn483 1.933 1_545 S
O484 H485 0.841 . S
H485 O484 0.841 . S
Zn486 O487 1.933 1_565 S
Zn486 O500 1.994 . S
Zn486 O509 1.955 . S
O487 Zn486 1.933 1_545 S
O487 Zn488 1.911 . S
O487 H489 0.841 . S
Zn488 O487 1.911 . S
Zn488 O501 1.970 . S
Zn488 O517 1.981 . S
Zn488 O519 1.945 . S
H489 O487 0.841 . S
Zn490 O491 1.933 1_565 S
Zn490 O503 1.985 1_565 S
Zn490 O511 1.955 . S
O491 Zn490 1.933 1_545 S
O491 H492 0.841 . S
O491 Zn493 1.911 . S
H492 O491 0.841 . S
Zn493 O491 1.911 . S
Zn493 O504 1.970 . S
Zn493 O514 1.981 . S
Zn493 O522 1.945 . S
C494 O495 1.246 . S
C494 O511 1.276 . S
O495 C494 1.246 . S
O496 Zn476 1.993 . S
O496 C506 1.206 1_565 S
O497 Zn477 1.970 . S
O497 C506 1.263 . S
O498 Zn483 1.985 1_545 S
O498 C510 1.245 . S
O499 Zn482 1.970 . S
O499 C510 1.263 . S
O500 Zn486 1.994 . S
O500 C515 1.204 1_565 S
O501 Zn488 1.970 . S
O501 C515 1.263 . S
C502 O513 1.262 . S
C502 O514 1.245 . S
O503 Zn490 1.985 1_545 S
O503 C521 1.245 . S
O504 Zn493 1.970 . S
O504 C521 1.263 . S
O505 Zn483 1.955 . S
O505 C524 1.276 . S
C506 O496 1.206 1_545 S
C506 O497 1.263 . S
O507 Zn476 1.955 . S
O507 C526 1.276 . S
C508 O516 1.262 . S
C508 O517 1.245 . S
O509 C480 1.276 . S
O509 Zn486 1.955 . S
C510 O498 1.245 . S
C510 O499 1.263 . S
O511 Zn490 1.955 . S
O511 C494 1.276 . S
C512 O519 1.262 . S
C512 O520 1.245 . S
O513 Zn477 1.945 . S
O513 C502 1.262 . S
O514 Zn493 1.981 . S
O514 C502 1.245 . S
C515 O500 1.204 1_545 S
C515 O501 1.263 . S
O516 Zn482 1.945 . S
O516 C508 1.262 . S
O517 Zn488 1.981 . S
O517 C508 1.245 . S
C518 O522 1.262 . S
C518 O523 1.245 . S
O519 Zn488 1.945 . S
O519 C512 1.262 . S
O520 Zn477 1.981 . S
O520 C512 1.245 . S
C521 O503 1.245 . S
C521 O504 1.263 . S
O522 Zn493 1.945 . S
O522 C518 1.262 . S
O523 Zn482 1.981 . S
O523 C518 1.245 . S
C524 O505 1.276 . S
C524 O525 1.246 . S
O525 C524 1.246 . S
C526 O507 1.276 . S
C526 O527 1.246 . S
O527 C526 1.246 . S
H528 C536 0.929 . S
H529 C538 0.930 . S
H530 C540 0.930 . S
H531 C543 0.929 . S
H532 C546 0.930 . S
H533 C548 0.960 . S
H534 C548 0.960 . S
H535 C548 0.960 . S
C536 H528 0.929 . S
C536 C537 1.377 . S
C536 C538 1.384 . S
C537 C536 1.377 . S
C537 C543 1.390 . S
C538 H529 0.930 . S
C538 C536 1.384 . S
C538 C539 1.372 . S
C539 C538 1.372 . S
C539 C540 1.400 . S
C539 C544 1.490 . S
C540 H530 0.930 . S
C540 C539 1.400 . S
C540 C543 1.386 . S
H541 C557 0.930 . S
H542 C558 0.931 . S
C543 H531 0.929 . S
C543 C537 1.390 . S
C543 C540 1.386 . S
C544 C539 1.490 . S
C544 C546 1.395 . S
C544 C547 1.403 . S
H545 C551 0.930 . S
C546 H532 0.930 . S
C546 C544 1.395 . S
C546 C549 1.403 . S
C547 C544 1.403 . S
C547 C548 1.524 . S
C547 C551 1.400 . S
C548 H533 0.960 . S
C548 H534 0.960 . S
C548 H535 0.960 . S
C548 C547 1.524 . S
C549 C546 1.403 . S
C549 C550 1.392 . S
C549 C553 1.495 . S
C550 C549 1.392 . S
C550 C551 1.385 . S
C550 C552 1.478 . S
C551 H545 0.930 . S
C551 C547 1.400 . S
C551 C550 1.385 . S
C552 C550 1.478 . S
C552 C554 1.381 . S
C552 C558 1.383 . S
C553 C549 1.495 . S
C553 H559 0.959 . S
C553 H560 0.961 . S
C553 H561 0.960 . S
C554 C552 1.381 . S
C554 C555 1.394 . S
C554 H562 0.930 . S
C555 C554 1.394 . S
C555 C556 1.383 . S
C555 H563 0.929 . S
C556 C555 1.383 . S
C556 C557 1.377 . S
C557 H541 0.930 . S
C557 C556 1.377 . S
C557 C558 1.379 . S
C558 H542 0.931 . S
C558 C552 1.383 . S
C558 C557 1.379 . S
H559 C553 0.959 . S
H560 C553 0.961 . S
H561 C553 0.960 . S
H562 C554 0.930 . S
H563 C555 0.929 . S
H564 C572 0.929 . S
H565 C574 0.930 . S
H566 C576 0.930 . S
H567 C579 0.929 . S
H568 C582 0.930 . S
H569 C584 0.960 . S
H570 C584 0.960 . S
H571 C584 0.960 . S
C572 H564 0.929 . S
C572 C573 1.377 . S
C572 C574 1.384 . S
C573 C572 1.377 . S
C573 C579 1.390 . S
C574 H565 0.930 . S
C574 C572 1.384 . S
C574 C575 1.372 . S
C575 C574 1.372 . S
C575 C576 1.400 . S
C575 C580 1.490 . S
C576 H566 0.930 . S
C576 C575 1.400 . S
C576 C579 1.386 . S
H577 C593 0.930 . S
H578 C594 0.931 . S
C579 H567 0.929 . S
C579 C573 1.390 . S
C579 C576 1.386 . S
C580 C575 1.490 . S
C580 C582 1.395 . S
C580 C583 1.403 . S
H581 C587 0.930 . S
C582 H568 0.930 . S
C582 C580 1.395 . S
C582 C585 1.403 . S
C583 C580 1.403 . S
C583 C584 1.524 . S
C583 C587 1.400 . S
C584 H569 0.960 . S
C584 H570 0.960 . S
C584 H571 0.960 . S
C584 C583 1.524 . S
C585 C582 1.403 . S
C585 C586 1.392 . S
C585 C589 1.495 . S
C586 C585 1.392 . S
C586 C587 1.385 . S
C586 C588 1.478 . S
C587 H581 0.930 . S
C587 C583 1.400 . S
C587 C586 1.385 . S
C588 C586 1.478 . S
C588 C590 1.381 . S
C588 C594 1.383 . S
C589 C585 1.495 . S
C589 H595 0.959 . S
C589 H596 0.961 . S
C589 H597 0.960 . S
C590 C588 1.381 . S
C590 C591 1.394 . S
C590 H598 0.930 . S
C591 C590 1.394 . S
C591 C592 1.383 . S
C591 H599 0.929 . S
C592 C591 1.383 . S
C592 C593 1.377 . S
C593 H577 0.930 . S
C593 C592 1.377 . S
C593 C594 1.379 . S
C594 H578 0.931 . S
C594 C588 1.383 . S
C594 C593 1.379 . S
H595 C589 0.959 . S
H596 C589 0.961 . S
H597 C589 0.960 . S
H598 C590 0.930 . S
H599 C591 0.929 . S
H600 C608 0.929 . S
H601 C610 0.930 . S
H602 C612 0.930 . S
H603 C615 0.929 . S
H604 C618 0.930 . S
H605 C620 0.960 . S
H606 C620 0.960 . S
H607 C620 0.960 . S
C608 H600 0.929 . S
C608 C609 1.377 . S
C608 C610 1.384 . S
C609 C608 1.377 . S
C609 C615 1.390 . S
C610 H601 0.930 . S
C610 C608 1.384 . S
C610 C611 1.372 . S
C611 C610 1.372 . S
C611 C612 1.400 . S
C611 C616 1.490 . S
C612 H602 0.930 . S
C612 C611 1.400 . S
C612 C615 1.386 . S
H613 C629 0.930 . S
H614 C630 0.931 . S
C615 H603 0.929 . S
C615 C609 1.390 . S
C615 C612 1.386 . S
C616 C611 1.490 . S
C616 C618 1.395 . S
C616 C619 1.403 . S
H617 C623 0.930 . S
C618 H604 0.930 . S
C618 C616 1.395 . S
C618 C621 1.403 . S
C619 C616 1.403 . S
C619 C620 1.524 . S
C619 C623 1.400 . S
C620 H605 0.960 . S
C620 H606 0.960 . S
C620 H607 0.960 . S
C620 C619 1.524 . S
C621 C618 1.403 . S
C621 C622 1.392 . S
C621 C625 1.495 . S
C622 C621 1.392 . S
C622 C623 1.385 . S
C622 C624 1.478 . S
C623 H617 0.930 . S
C623 C619 1.400 . S
C623 C622 1.385 . S
C624 C622 1.478 . S
C624 C626 1.381 . S
C624 C630 1.383 . S
C625 C621 1.495 . S
C625 H631 0.959 . S
C625 H632 0.961 . S
C625 H633 0.960 . S
C626 C624 1.381 . S
C626 C627 1.394 . S
C626 H634 0.930 . S
C627 C626 1.394 . S
C627 C628 1.383 . S
C627 H635 0.929 . S
C628 C627 1.383 . S
C628 C629 1.377 . S
C629 H613 0.930 . S
C629 C628 1.377 . S
C629 C630 1.379 . S
C630 H614 0.931 . S
C630 C624 1.383 . S
C630 C629 1.379 . S
H631 C625 0.959 . S
H632 C625 0.961 . S
H633 C625 0.960 . S
H634 C626 0.930 . S
H635 C627 0.929 . S
H636 C644 0.929 . S
H637 C646 0.930 . S
H638 C648 0.930 . S
H639 C651 0.929 . S
H640 C654 0.930 . S
H641 C656 0.960 . S
H642 C656 0.960 . S
H643 C656 0.960 . S
C644 H636 0.929 . S
C644 C645 1.377 . S
C644 C646 1.384 . S
C645 C644 1.377 . S
C645 C651 1.390 . S
C646 H637 0.930 . S
C646 C644 1.384 . S
C646 C647 1.372 . S
C647 C646 1.372 . S
C647 C648 1.400 . S
C647 C652 1.490 . S
C648 H638 0.930 . S
C648 C647 1.400 . S
C648 C651 1.386 . S
H649 C665 0.930 . S
H650 C666 0.931 . S
C651 H639 0.929 . S
C651 C645 1.390 . S
C651 C648 1.386 . S
C652 C647 1.490 . S
C652 C654 1.395 . S
C652 C655 1.403 . S
H653 C659 0.930 . S
C654 H640 0.930 . S
C654 C652 1.395 . S
C654 C657 1.403 . S
C655 C652 1.403 . S
C655 C656 1.524 . S
C655 C659 1.400 . S
C656 H641 0.960 . S
C656 H642 0.960 . S
C656 H643 0.960 . S
C656 C655 1.524 . S
C657 C654 1.403 . S
C657 C658 1.392 . S
C657 C661 1.495 . S
C658 C657 1.392 . S
C658 C659 1.385 . S
C658 C660 1.478 . S
C659 H653 0.930 . S
C659 C655 1.400 . S
C659 C658 1.385 . S
C660 C658 1.478 . S
C660 C662 1.381 . S
C660 C666 1.383 . S
C661 C657 1.495 . S
C661 H667 0.959 . S
C661 H668 0.961 . S
C661 H669 0.960 . S
C662 C660 1.381 . S
C662 C663 1.394 . S
C662 H670 0.930 . S
C663 C662 1.394 . S
C663 C664 1.383 . S
C663 H671 0.929 . S
C664 C663 1.383 . S
C664 C665 1.377 . S
C665 H649 0.930 . S
C665 C664 1.377 . S
C665 C666 1.379 . S
C666 H650 0.931 . S
C666 C660 1.383 . S
C666 C665 1.379 . S
H667 C661 0.959 . S
H668 C661 0.961 . S
H669 C661 0.960 . S
H670 C662 0.930 . S
H671 C663 0.929 . S
H672 C680 0.929 . S
H673 C682 0.930 . S
H674 C684 0.930 . S
H675 C687 0.929 . S
H676 C690 0.930 . S
H677 C692 0.960 . S
H678 C692 0.960 . S
H679 C692 0.960 . S
C680 H672 0.929 . S
C680 C681 1.377 . S
C680 C682 1.384 . S
C681 C680 1.377 . S
C681 C687 1.390 . S
C682 H673 0.930 . S
C682 C680 1.384 . S
C682 C683 1.372 . S
C683 C682 1.372 . S
C683 C684 1.400 . S
C683 C688 1.490 . S
C684 H674 0.930 . S
C684 C683 1.400 . S
C684 C687 1.386 . S
H685 C701 0.930 . S
H686 C702 0.931 . S
C687 H675 0.929 . S
C687 C681 1.390 . S
C687 C684 1.386 . S
C688 C683 1.490 . S
C688 C690 1.395 . S
C688 C691 1.403 . S
H689 C695 0.930 . S
C690 H676 0.930 . S
C690 C688 1.395 . S
C690 C693 1.403 . S
C691 C688 1.403 . S
C691 C692 1.524 . S
C691 C695 1.400 . S
C692 H677 0.960 . S
C692 H678 0.960 . S
C692 H679 0.960 . S
C692 C691 1.524 . S
C693 C690 1.403 . S
C693 C694 1.392 . S
C693 C697 1.495 . S
C694 C693 1.392 . S
C694 C695 1.385 . S
C694 C696 1.478 . S
C695 H689 0.930 . S
C695 C691 1.400 . S
C695 C694 1.385 . S
C696 C694 1.478 . S
C696 C698 1.381 . S
C696 C702 1.383 . S
C697 C693 1.495 . S
C697 H703 0.959 . S
C697 H704 0.961 . S
C697 H705 0.960 . S
C698 C696 1.381 . S
C698 C699 1.394 . S
C698 H706 0.930 . S
C699 C698 1.394 . S
C699 C700 1.383 . S
C699 H707 0.929 . S
C700 C699 1.383 . S
C700 C701 1.377 . S
C701 H685 0.930 . S
C701 C700 1.377 . S
C701 C702 1.379 . S
C702 H686 0.931 . S
C702 C696 1.383 . S
C702 C701 1.379 . S
H703 C697 0.959 . S
H704 C697 0.961 . S
H705 C697 0.960 . S
H706 C698 0.930 . S
H707 C699 0.929 . S
H708 C716 0.929 . S
H709 C718 0.930 . S
H710 C720 0.930 . S
H711 C723 0.929 . S
H712 C726 0.930 . S
H713 C728 0.960 . S
H714 C728 0.960 . S
H715 C728 0.960 . S
C716 H708 0.929 . S
C716 C717 1.377 . S
C716 C718 1.384 . S
C717 C716 1.377 . S
C717 C723 1.390 . S
C718 H709 0.930 . S
C718 C716 1.384 . S
C718 C719 1.372 . S
C719 C718 1.372 . S
C719 C720 1.400 . S
C719 C724 1.490 . S
C720 H710 0.930 . S
C720 C719 1.400 . S
C720 C723 1.386 . S
H721 C737 0.930 . S
H722 C738 0.931 . S
C723 H711 0.929 . S
C723 C717 1.390 . S
C723 C720 1.386 . S
C724 C719 1.490 . S
C724 C726 1.395 . S
C724 C727 1.403 . S
H725 C731 0.930 . S
C726 H712 0.930 . S
C726 C724 1.395 . S
C726 C729 1.403 . S
C727 C724 1.403 . S
C727 C728 1.524 . S
C727 C731 1.400 . S
C728 H713 0.960 . S
C728 H714 0.960 . S
C728 H715 0.960 . S
C728 C727 1.524 . S
C729 C726 1.403 . S
C729 C730 1.392 . S
C729 C733 1.495 . S
C730 C729 1.392 . S
C730 C731 1.385 . S
C730 C732 1.478 . S
C731 H725 0.930 . S
C731 C727 1.400 . S
C731 C730 1.385 . S
C732 C730 1.478 . S
C732 C734 1.381 . S
C732 C738 1.383 . S
C733 C729 1.495 . S
C733 H739 0.959 . S
C733 H740 0.961 . S
C733 H741 0.960 . S
C734 C732 1.381 . S
C734 C735 1.394 . S
C734 H742 0.930 . S
C735 C734 1.394 . S
C735 C736 1.383 . S
C735 H743 0.929 . S
C736 C735 1.383 . S
C736 C737 1.377 . S
C737 H721 0.930 . S
C737 C736 1.377 . S
C737 C738 1.379 . S
C738 H722 0.931 . S
C738 C732 1.383 . S
C738 C737 1.379 . S
H739 C733 0.959 . S
H740 C733 0.961 . S
H741 C733 0.960 . S
H742 C734 0.930 . S
H743 C735 0.929 . S
H744 C752 0.929 . S
H745 C754 0.930 . S
H746 C756 0.930 . S
H747 C759 0.929 . S
H748 C762 0.930 . S
H749 C764 0.960 . S
H750 C764 0.960 . S
H751 C764 0.960 . S
C752 H744 0.929 . S
C752 C753 1.377 . S
C752 C754 1.384 . S
C753 C752 1.377 . S
C753 C759 1.390 . S
C754 H745 0.930 . S
C754 C752 1.384 . S
C754 C755 1.372 . S
C755 C754 1.372 . S
C755 C756 1.400 . S
C755 C760 1.490 . S
C756 H746 0.930 . S
C756 C755 1.400 . S
C756 C759 1.386 . S
H757 C773 0.930 . S
H758 C774 0.931 . S
C759 H747 0.929 . S
C759 C753 1.390 . S
C759 C756 1.386 . S
C760 C755 1.490 . S
C760 C762 1.395 . S
C760 C763 1.403 . S
H761 C767 0.930 . S
C762 H748 0.930 . S
C762 C760 1.395 . S
C762 C765 1.403 . S
C763 C760 1.403 . S
C763 C764 1.524 . S
C763 C767 1.400 . S
C764 H749 0.960 . S
C764 H750 0.960 . S
C764 H751 0.960 . S
C764 C763 1.524 . S
C765 C762 1.403 . S
C765 C766 1.392 . S
C765 C769 1.495 . S
C766 C765 1.392 . S
C766 C767 1.385 . S
C766 C768 1.478 . S
C767 H761 0.930 . S
C767 C763 1.400 . S
C767 C766 1.385 . S
C768 C766 1.478 . S
C768 C770 1.381 . S
C768 C774 1.383 . S
C769 C765 1.495 . S
C769 H775 0.959 . S
C769 H776 0.961 . S
C769 H777 0.960 . S
C770 C768 1.381 . S
C770 C771 1.394 . S
C770 H778 0.930 . S
C771 C770 1.394 . S
C771 C772 1.383 . S
C771 H779 0.929 . S
C772 C771 1.383 . S
C772 C773 1.377 . S
C773 H757 0.930 . S
C773 C772 1.377 . S
C773 C774 1.379 . S
C774 H758 0.931 . S
C774 C768 1.383 . S
C774 C773 1.379 . S
H775 C769 0.959 . S
H776 C769 0.961 . S
H777 C769 0.960 . S
H778 C770 0.930 . S
H779 C771 0.929 . S
H780 C788 0.929 . S
H781 C790 0.930 . S
H782 C792 0.930 . S
H783 C795 0.929 . S
H784 C798 0.930 . S
H785 C800 0.960 . S
H786 C800 0.960 . S
H787 C800 0.960 . S
C788 H780 0.929 . S
C788 C789 1.377 . S
C788 C790 1.384 . S
C789 C788 1.377 . S
C789 C795 1.390 . S
C790 H781 0.930 . S
C790 C788 1.384 . S
C790 C791 1.372 . S
C791 C790 1.372 . S
C791 C792 1.400 . S
C791 C796 1.490 . S
C792 H782 0.930 . S
C792 C791 1.400 . S
C792 C795 1.386 . S
H793 C809 0.930 . S
H794 C810 0.931 . S
C795 H783 0.929 . S
C795 C789 1.390 . S
C795 C792 1.386 . S
C796 C791 1.490 . S
C796 C798 1.395 . S
C796 C799 1.403 . S
H797 C803 0.930 . S
C798 H784 0.930 . S
C798 C796 1.395 . S
C798 C801 1.403 . S
C799 C796 1.403 . S
C799 C800 1.524 . S
C799 C803 1.400 . S
C800 H785 0.960 . S
C800 H786 0.960 . S
C800 H787 0.960 . S
C800 C799 1.524 . S
C801 C798 1.403 . S
C801 C802 1.392 . S
C801 C805 1.495 . S
C802 C801 1.392 . S
C802 C803 1.385 . S
C802 C804 1.478 . S
C803 H797 0.930 . S
C803 C799 1.400 . S
C803 C802 1.385 . S
C804 C802 1.478 . S
C804 C806 1.381 . S
C804 C810 1.383 . S
C805 C801 1.495 . S
C805 H811 0.959 . S
C805 H812 0.961 . S
C805 H813 0.960 . S
C806 C804 1.381 . S
C806 C807 1.394 . S
C806 H814 0.930 . S
C807 C806 1.394 . S
C807 C808 1.383 . S
C807 H815 0.929 . S
C808 C807 1.383 . S
C808 C809 1.377 . S
C809 H793 0.930 . S
C809 C808 1.377 . S
C809 C810 1.379 . S
C810 H794 0.931 . S
C810 C804 1.383 . S
C810 C809 1.379 . S
H811 C805 0.959 . S
H812 C805 0.961 . S
H813 C805 0.960 . S
H814 C806 0.930 . S
H815 C807 0.929 . S
H816 C824 0.929 . S
H817 C826 0.930 . S
H818 C828 0.930 . S
H819 C831 0.929 . S
H820 C834 0.930 . S
H821 C836 0.960 . S
H822 C836 0.960 . S
H823 C836 0.960 . S
C824 H816 0.929 . S
C824 C825 1.377 . S
C824 C826 1.384 . S
C825 C824 1.377 . S
C825 C831 1.390 . S
C826 H817 0.930 . S
C826 C824 1.384 . S
C826 C827 1.372 . S
C827 C826 1.372 . S
C827 C828 1.400 . S
C827 C832 1.490 . S
C828 H818 0.930 . S
C828 C827 1.400 . S
C828 C831 1.386 . S
H829 C845 0.930 . S
H830 C846 0.931 . S
C831 H819 0.929 . S
C831 C825 1.390 . S
C831 C828 1.386 . S
C832 C827 1.490 . S
C832 C834 1.395 . S
C832 C835 1.403 . S
H833 C839 0.930 . S
C834 H820 0.930 . S
C834 C832 1.395 . S
C834 C837 1.403 . S
C835 C832 1.403 . S
C835 C836 1.524 . S
C835 C839 1.400 . S
C836 H821 0.960 . S
C836 H822 0.960 . S
C836 H823 0.960 . S
C836 C835 1.524 . S
C837 C834 1.403 . S
C837 C838 1.392 . S
C837 C841 1.495 . S
C838 C837 1.392 . S
C838 C839 1.385 . S
C838 C840 1.478 . S
C839 H833 0.930 . S
C839 C835 1.400 . S
C839 C838 1.385 . S
C840 C838 1.478 . S
C840 C842 1.381 . S
C840 C846 1.383 . S
C841 C837 1.495 . S
C841 H847 0.959 . S
C841 H848 0.961 . S
C841 H849 0.960 . S
C842 C840 1.381 . S
C842 C843 1.394 . S
C842 H850 0.930 . S
C843 C842 1.394 . S
C843 C844 1.383 . S
C843 H851 0.929 . S
C844 C843 1.383 . S
C844 C845 1.377 . S
C845 H829 0.930 . S
C845 C844 1.377 . S
C845 C846 1.379 . S
C846 H830 0.931 . S
C846 C840 1.383 . S
C846 C845 1.379 . S
H847 C841 0.959 . S
H848 C841 0.961 . S
H849 C841 0.960 . S
H850 C842 0.930 . S
H851 C843 0.929 . S
H852 C860 0.929 . S
H853 C862 0.930 . S
H854 C864 0.930 . S
H855 C867 0.929 . S
H856 C870 0.930 . S
H857 C872 0.960 . S
H858 C872 0.960 . S
H859 C872 0.960 . S
C860 H852 0.929 . S
C860 C861 1.377 . S
C860 C862 1.384 . S
C861 C860 1.377 . S
C861 C867 1.390 . S
C862 H853 0.930 . S
C862 C860 1.384 . S
C862 C863 1.372 . S
C863 C862 1.372 . S
C863 C864 1.400 . S
C863 C868 1.490 . S
C864 H854 0.930 . S
C864 C863 1.400 . S
C864 C867 1.386 . S
H865 C881 0.930 . S
H866 C882 0.931 . S
C867 H855 0.929 . S
C867 C861 1.390 . S
C867 C864 1.386 . S
C868 C863 1.490 . S
C868 C870 1.395 . S
C868 C871 1.403 . S
H869 C875 0.930 . S
C870 H856 0.930 . S
C870 C868 1.395 . S
C870 C873 1.403 . S
C871 C868 1.403 . S
C871 C872 1.524 . S
C871 C875 1.400 . S
C872 H857 0.960 . S
C872 H858 0.960 . S
C872 H859 0.960 . S
C872 C871 1.524 . S
C873 C870 1.403 . S
C873 C874 1.392 . S
C873 C877 1.495 . S
C874 C873 1.392 . S
C874 C875 1.385 . S
C874 C876 1.478 . S
C875 H869 0.930 . S
C875 C871 1.400 . S
C875 C874 1.385 . S
C876 C874 1.478 . S
C876 C878 1.381 . S
C876 C882 1.383 . S
C877 C873 1.495 . S
C877 H883 0.959 . S
C877 H884 0.961 . S
C877 H885 0.960 . S
C878 C876 1.381 . S
C878 C879 1.394 . S
C878 H886 0.930 . S
C879 C878 1.394 . S
C879 C880 1.383 . S
C879 H887 0.929 . S
C880 C879 1.383 . S
C880 C881 1.377 . S
C881 H865 0.930 . S
C881 C880 1.377 . S
C881 C882 1.379 . S
C882 H866 0.931 . S
C882 C876 1.383 . S
C882 C881 1.379 . S
H883 C877 0.959 . S
H884 C877 0.961 . S
H885 C877 0.960 . S
H886 C878 0.930 . S
H887 C879 0.929 . S
H888 C896 0.929 . S
H889 C898 0.930 . S
H890 C900 0.930 . S
H891 C903 0.929 . S
H892 C906 0.930 . S
H893 C908 0.960 . S
H894 C908 0.960 . S
H895 C908 0.960 . S
C896 H888 0.929 . S
C896 C897 1.377 . S
C896 C898 1.384 . S
C897 C896 1.377 . S
C897 C903 1.390 . S
C898 H889 0.930 . S
C898 C896 1.384 . S
C898 C899 1.372 . S
C899 C898 1.372 . S
C899 C900 1.400 . S
C899 C904 1.490 . S
C900 H890 0.930 . S
C900 C899 1.400 . S
C900 C903 1.386 . S
H901 C917 0.930 . S
H902 C918 0.931 . S
C903 H891 0.929 . S
C903 C897 1.390 . S
C903 C900 1.386 . S
C904 C899 1.490 . S
C904 C906 1.395 . S
C904 C907 1.403 . S
H905 C911 0.930 . S
C906 H892 0.930 . S
C906 C904 1.395 . S
C906 C909 1.403 . S
C907 C904 1.403 . S
C907 C908 1.524 . S
C907 C911 1.400 . S
C908 H893 0.960 . S
C908 H894 0.960 . S
C908 H895 0.960 . S
C908 C907 1.524 . S
C909 C906 1.403 . S
C909 C910 1.392 . S
C909 C913 1.495 . S
C910 C909 1.392 . S
C910 C911 1.385 . S
C910 C912 1.478 . S
C911 H905 0.930 . S
C911 C907 1.400 . S
C911 C910 1.385 . S
C912 C910 1.478 . S
C912 C914 1.381 . S
C912 C918 1.383 . S
C913 C909 1.495 . S
C913 H919 0.959 . S
C913 H920 0.961 . S
C913 H921 0.960 . S
C914 C912 1.381 . S
C914 C915 1.394 . S
C914 H922 0.930 . S
C915 C914 1.394 . S
C915 C916 1.383 . S
C915 H923 0.929 . S
C916 C915 1.383 . S
C916 C917 1.377 . S
C917 H901 0.930 . S
C917 C916 1.377 . S
C917 C918 1.379 . S
C918 H902 0.931 . S
C918 C912 1.383 . S
C918 C917 1.379 . S
H919 C913 0.959 . S
H920 C913 0.961 . S
H921 C913 0.960 . S
H922 C914 0.930 . S
H923 C915 0.929 . S
H924 C932 0.929 . S
H925 C934 0.930 . S
H926 C936 0.930 . S
H927 C939 0.929 . S
H928 C942 0.930 . S
H929 C944 0.960 . S
H930 C944 0.960 . S
H931 C944 0.960 . S
C932 H924 0.929 . S
C932 C933 1.377 . S
C932 C934 1.384 . S
C933 C932 1.377 . S
C933 C939 1.390 . S
C934 H925 0.930 . S
C934 C932 1.384 . S
C934 C935 1.372 . S
C935 C934 1.372 . S
C935 C936 1.400 . S
C935 C940 1.490 . S
C936 H926 0.930 . S
C936 C935 1.400 . S
C936 C939 1.386 . S
H937 C953 0.930 . S
H938 C954 0.931 . S
C939 H927 0.929 . S
C939 C933 1.390 . S
C939 C936 1.386 . S
C940 C935 1.490 . S
C940 C942 1.395 . S
C940 C943 1.403 . S
H941 C947 0.930 . S
C942 H928 0.930 . S
C942 C940 1.395 . S
C942 C945 1.403 . S
C943 C940 1.403 . S
C943 C944 1.524 . S
C943 C947 1.400 . S
C944 H929 0.960 . S
C944 H930 0.960 . S
C944 H931 0.960 . S
C944 C943 1.524 . S
C945 C942 1.403 . S
C945 C946 1.392 . S
C945 C949 1.495 . S
C946 C945 1.392 . S
C946 C947 1.385 . S
C946 C948 1.478 . S
C947 H941 0.930 . S
C947 C943 1.400 . S
C947 C946 1.385 . S
C948 C946 1.478 . S
C948 C950 1.381 . S
C948 C954 1.383 . S
C949 C945 1.495 . S
C949 H955 0.959 . S
C949 H956 0.961 . S
C949 H957 0.960 . S
C950 C948 1.381 . S
C950 C951 1.394 . S
C950 H958 0.930 . S
C951 C950 1.394 . S
C951 C952 1.383 . S
C951 H959 0.929 . S
C952 C951 1.383 . S
C952 C953 1.377 . S
C953 H937 0.930 . S
C953 C952 1.377 . S
C953 C954 1.379 . S
C954 H938 0.931 . S
C954 C948 1.383 . S
C954 C953 1.379 . S
H955 C949 0.959 . S
H956 C949 0.961 . S
H957 C949 0.960 . S
H958 C950 0.930 . S
H959 C951 0.929 . S
H960 C968 0.929 . S
H961 C970 0.930 . S
H962 C972 0.930 . S
H963 C975 0.929 . S
H964 C978 0.930 . S
H965 C980 0.960 . S
H966 C980 0.960 . S
H967 C980 0.960 . S
C968 H960 0.929 . S
C968 C969 1.377 1_556 S
C968 C970 1.384 . S
C969 C968 1.377 1_554 S
C969 C975 1.390 . S
C970 H961 0.930 . S
C970 C968 1.384 . S
C970 C971 1.372 1_556 S
C971 C970 1.372 1_554 S
C971 C972 1.400 . S
C971 C976 1.490 . S
C972 H962 0.930 . S
C972 C971 1.400 . S
C972 C975 1.386 . S
H973 C989 0.930 . S
H974 C990 0.931 . S
C975 H963 0.929 . S
C975 C969 1.390 . S
C975 C972 1.386 . S
C976 C971 1.490 . S
C976 C978 1.395 1_554 S
C976 C979 1.403 . S
H977 C983 0.930 . S
C978 H964 0.930 . S
C978 C976 1.395 1_556 S
C978 C981 1.403 . S
C979 C976 1.403 . S
C979 C980 1.524 . S
C979 C983 1.400 . S
C980 H965 0.960 . S
C980 H966 0.960 . S
C980 H967 0.960 . S
C980 C979 1.524 . S
C981 C978 1.403 . S
C981 C982 1.392 1_556 S
C981 C985 1.495 . S
C982 C981 1.392 1_554 S
C982 C983 1.385 . S
C982 C984 1.478 . S
C983 H977 0.930 . S
C983 C979 1.400 . S
C983 C982 1.385 . S
C984 C982 1.478 . S
C984 C986 1.381 1_554 S
C984 C990 1.383 . S
C985 C981 1.495 . S
C985 H991 0.959 . S
C985 H992 0.961 . S
C985 H993 0.960 . S
C986 C984 1.381 1_556 S
C986 C987 1.394 1_556 S
C986 H994 0.930 . S
C987 C986 1.394 1_554 S
C987 C988 1.385 . S
C987 H995 0.928 1_554 S
C988 C987 1.385 . S
C988 C989 1.377 . S
C989 H973 0.930 . S
C989 C988 1.377 . S
C989 C990 1.379 . S
C990 H974 0.931 . S
C990 C984 1.383 . S
C990 C989 1.379 . S
H991 C985 0.959 . S
H992 C985 0.961 . S
H993 C985 0.960 . S
H994 C986 0.930 . S
H995 C987 0.928 1_556 S
H996 C1004 0.929 . S
H997 C1006 0.930 . S
H998 C1008 0.930 . S
H999 C1011 0.929 . S
H1000 C1014 0.930 . S
H1001 C1016 0.960 . S
H1002 C1016 0.960 1_556 S
H1003 C1016 0.960 . S
C1004 H996 0.929 . S
C1004 C1005 1.377 1_556 S
C1004 C1006 1.384 . S
C1005 C1004 1.377 1_554 S
C1005 C1011 1.390 . S
C1006 H997 0.930 . S
C1006 C1004 1.384 . S
C1006 C1007 1.372 1_556 S
C1007 C1006 1.372 1_554 S
C1007 C1008 1.400 . S
C1007 C1012 1.490 . S
C1008 H998 0.930 . S
C1008 C1007 1.400 . S
C1008 C1011 1.386 . S
H1009 C1025 0.930 . S
H1010 C1026 0.931 . S
C1011 H999 0.929 . S
C1011 C1005 1.390 . S
C1011 C1008 1.386 . S
C1012 C1007 1.490 . S
C1012 C1014 1.395 . S
C1012 C1015 1.403 . S
H1013 C1019 0.930 . S
C1014 H1000 0.930 . S
C1014 C1012 1.395 . S
C1014 C1017 1.403 . S
C1015 C1012 1.403 . S
C1015 C1016 1.524 . S
C1015 C1019 1.400 . S
C1016 H1001 0.960 . S
C1016 H1002 0.960 1_554 S
C1016 H1003 0.960 . S
C1016 C1015 1.524 . S
C1017 C1014 1.403 . S
C1017 C1018 1.392 . S
C1017 C1021 1.495 . S
C1018 C1017 1.392 . S
C1018 C1019 1.385 . S
C1018 C1020 1.478 . S
C1019 H1013 0.930 . S
C1019 C1015 1.400 . S
C1019 C1018 1.385 . S
C1020 C1018 1.478 . S
C1020 C1022 1.381 1_554 S
C1020 C1026 1.383 . S
C1021 C1017 1.495 . S
C1021 H1027 0.959 . S
C1021 H1028 0.961 . S
C1021 H1029 0.994 . S
C1022 C1020 1.381 1_556 S
C1022 C1023 1.394 . S
C1022 H1030 0.930 . S
C1023 C1022 1.394 . S
C1023 C1024 1.383 1_556 S
C1023 H1031 0.929 . S
C1024 C1023 1.383 1_554 S
C1024 C1025 1.377 . S
C1025 H1009 0.930 . S
C1025 C1024 1.377 . S
C1025 C1026 1.379 . S
C1026 H1010 0.931 . S
C1026 C1020 1.383 . S
C1026 C1025 1.379 . S
H1027 C1021 0.959 . S
H1028 C1021 0.961 . S
H1029 C1021 0.994 . S
H1030 C1022 0.930 . S
H1031 C1023 0.929 . S
H1032 C1040 0.929 1_556 S
H1033 C1042 0.930 1_556 S
H1034 C1044 0.930 . S
H1035 C1047 0.929 . S
H1036 C1050 0.930 . S
H1037 C1052 0.960 . S
H1038 C1052 0.960 1_556 S
H1039 C1052 0.960 . S
C1040 H1032 0.929 1_554 S
C1040 C1041 1.377 . S
C1040 C1042 1.384 . S
C1041 C1040 1.377 . S
C1041 C1047 1.390 . S
C1042 H1033 0.930 1_554 S
C1042 C1040 1.384 . S
C1042 C1043 1.372 . S
C1043 C1042 1.372 . S
C1043 C1044 1.400 . S
C1043 C1048 1.490 . S
C1044 H1034 0.930 . S
C1044 C1043 1.400 . S
C1044 C1047 1.386 . S
H1045 C1061 0.930 . S
H1046 C1062 0.931 . S
C1047 H1035 0.929 . S
C1047 C1041 1.390 . S
C1047 C1044 1.386 . S
C1048 C1043 1.490 . S
C1048 C1050 1.395 . S
C1048 C1051 1.403 . S
H1049 C1055 0.930 . S
C1050 H1036 0.930 . S
C1050 C1048 1.395 . S
C1050 C1053 1.403 . S
C1051 C1048 1.403 . S
C1051 C1052 1.524 . S
C1051 C1055 1.400 . S
C1052 H1037 0.960 . S
C1052 H1038 0.960 1_554 S
C1052 H1039 0.960 . S
C1052 C1051 1.524 . S
C1053 C1050 1.403 . S
C1053 C1054 1.392 . S
C1053 C1057 1.495 . S
C1054 C1053 1.392 . S
C1054 C1055 1.385 . S
C1054 C1056 1.478 . S
C1055 H1049 0.930 . S
C1055 C1051 1.400 . S
C1055 C1054 1.385 . S
C1056 C1054 1.478 . S
C1056 C1058 1.381 1_554 S
C1056 C1062 1.383 . S
C1057 C1053 1.495 . S
C1057 H1063 0.959 . S
C1057 H1064 0.961 . S
C1057 H1065 0.960 . S
C1058 C1056 1.381 1_556 S
C1058 C1059 1.394 . S
C1058 H1066 0.930 . S
C1059 C1058 1.394 . S
C1059 C1060 1.383 1_556 S
C1059 H1067 0.929 . S
C1060 C1059 1.383 1_554 S
C1060 C1061 1.377 . S
C1061 H1045 0.930 . S
C1061 C1060 1.377 . S
C1061 C1062 1.379 . S
C1062 H1046 0.931 . S
C1062 C1056 1.383 . S
C1062 C1061 1.379 . S
H1063 C1057 0.959 . S
H1064 C1057 0.961 . S
H1065 C1057 0.960 . S
H1066 C1058 0.930 . S
H1067 C1059 0.929 . S
H1068 C1076 0.929 . S
H1069 C1078 0.930 . S
H1070 C1080 0.930 . S
H1071 C1083 0.929 . S
H1072 C1086 0.930 . S
H1073 C1088 0.960 . S
H1074 C1088 0.960 . S
H1075 C1088 0.960 . S
C1076 H1068 0.929 . S
C1076 C1077 1.377 1_556 S
C1076 C1078 1.384 . S
C1077 C1076 1.377 1_554 S
C1077 C1083 1.390 . S
C1078 H1069 0.930 . S
C1078 C1076 1.384 . S
C1078 C1079 1.372 1_556 S
C1079 C1078 1.372 1_554 S
C1079 C1080 1.400 . S
C1079 C1084 1.490 . S
C1080 H1070 0.930 . S
C1080 C1079 1.400 . S
C1080 C1083 1.386 . S
H1081 C1097 0.930 . S
H1082 C1098 0.931 . S
C1083 H1071 0.929 . S
C1083 C1077 1.390 . S
C1083 C1080 1.386 . S
C1084 C1079 1.490 . S
C1084 C1086 1.395 1_554 S
C1084 C1087 1.403 . S
H1085 C1091 0.930 . S
C1086 H1072 0.930 . S
C1086 C1084 1.395 1_556 S
C1086 C1089 1.403 . S
C1087 C1084 1.403 . S
C1087 C1088 1.524 . S
C1087 C1091 1.400 . S
C1088 H1073 0.960 . S
C1088 H1074 0.960 . S
C1088 H1075 0.960 . S
C1088 C1087 1.524 . S
C1089 C1086 1.403 . S
C1089 C1090 1.392 1_556 S
C1089 C1093 1.495 . S
C1090 C1089 1.392 1_554 S
C1090 C1091 1.385 . S
C1090 C1092 1.478 . S
C1091 H1085 0.930 . S
C1091 C1087 1.400 . S
C1091 C1090 1.385 . S
C1092 C1090 1.478 . S
C1092 C1094 1.381 1_554 S
C1092 C1098 1.383 . S
C1093 C1089 1.495 . S
C1093 H1099 0.959 . S
C1093 H1100 0.961 . S
C1093 H1101 0.960 . S
C1094 C1092 1.381 1_556 S
C1094 C1095 1.392 1_556 S
C1094 H1102 0.930 . S
C1095 C1094 1.392 1_554 S
C1095 C1096 1.393 . S
C1095 H1103 0.923 1_554 S
C1096 C1095 1.393 . S
C1096 C1097 1.377 . S
C1097 H1081 0.930 . S
C1097 C1096 1.377 . S
C1097 C1098 1.379 . S
C1098 H1082 0.931 . S
C1098 C1092 1.383 . S
C1098 C1097 1.379 . S
H1099 C1093 0.959 . S
H1100 C1093 0.961 . S
H1101 C1093 0.960 . S
H1102 C1094 0.930 . S
H1103 C1095 0.923 1_556 S
H1104 C1112 0.929 1_655 S
H1105 C1114 0.930 . S
H1106 C1116 0.930 . S
H1107 C1119 0.929 . S
H1108 C1122 0.930 . S
H1109 C1124 0.960 . S
H1110 C1124 0.960 . S
H1111 C1124 0.960 . S
C1112 H1104 0.929 1_455 S
C1112 C1113 1.377 . S
C1112 C1114 1.384 . S
C1113 C1112 1.377 . S
C1113 C1119 1.391 . S
C1114 H1105 0.930 . S
C1114 C1112 1.384 . S
C1114 C1115 1.372 . S
C1115 C1114 1.372 . S
C1115 C1116 1.400 . S
C1115 C1120 1.490 . S
C1116 H1106 0.930 . S
C1116 C1115 1.400 . S
C1116 C1119 1.386 . S
H1117 C1133 0.930 . S
H1118 C1134 0.931 . S
C1119 H1107 0.929 . S
C1119 C1113 1.391 . S
C1119 C1116 1.386 . S
C1120 C1115 1.490 . S
C1120 C1122 1.395 . S
C1120 C1123 1.403 1_455 S
H1121 C1127 0.930 . S
C1122 H1108 0.930 . S
C1122 C1120 1.395 . S
C1122 C1125 1.403 . S
C1123 C1120 1.403 1_655 S
C1123 C1124 1.524 . S
C1123 C1127 1.400 . S
C1124 H1109 0.960 . S
C1124 H1110 0.960 . S
C1124 H1111 0.960 . S
C1124 C1123 1.524 . S
C1125 C1122 1.403 . S
C1125 C1126 1.392 . S
C1125 C1129 1.495 . S
C1126 C1125 1.392 . S
C1126 C1127 1.385 1_455 S
C1126 C1128 1.478 . S
C1127 H1121 0.930 . S
C1127 C1123 1.400 . S
C1127 C1126 1.385 1_655 S
C1128 C1126 1.478 . S
C1128 C1130 1.381 . S
C1128 C1134 1.383 . S
C1129 C1125 1.495 . S
C1129 H1135 0.959 . S
C1129 H1136 0.961 . S
C1129 H1137 0.960 . S
C1130 C1128 1.381 . S
C1130 C1131 1.394 . S
C1130 H1138 0.930 . S
C1131 C1130 1.394 . S
C1131 C1132 1.383 . S
C1131 H1139 0.929 . S
C1132 C1131 1.383 . S
C1132 C1133 1.377 . S
C1133 H1117 0.930 . S
C1133 C1132 1.377 . S
C1133 C1134 1.379 . S
C1134 H1118 0.931 . S
C1134 C1128 1.383 . S
C1134 C1133 1.379 . S
H1135 C1129 0.959 . S
H1136 C1129 0.961 . S
H1137 C1129 0.960 . S
H1138 C1130 0.930 . S
H1139 C1131 0.929 . S
H1140 C1148 0.929 . S
H1141 C1150 0.930 . S
H1142 C1152 0.930 . S
H1143 C1155 0.929 . S
H1144 C1158 0.930 . S
H1145 C1160 0.960 . S
H1146 C1160 0.960 . S
H1147 C1160 0.960 1_565 S
C1148 H1140 0.929 . S
C1148 C1149 1.377 . S
C1148 C1150 1.384 . S
C1149 C1148 1.377 . S
C1149 C1155 1.390 1_545 S
C1150 H1141 0.930 . S
C1150 C1148 1.384 . S
C1150 C1151 1.372 . S
C1151 C1150 1.372 . S
C1151 C1152 1.400 1_545 S
C1151 C1156 1.490 . S
C1152 H1142 0.930 . S
C1152 C1151 1.400 1_565 S
C1152 C1155 1.386 . S
H1153 C1169 0.930 . S
H1154 C1170 0.931 . S
C1155 H1143 0.929 . S
C1155 C1149 1.390 1_565 S
C1155 C1152 1.386 . S
C1156 C1151 1.490 . S
C1156 C1158 1.395 . S
C1156 C1159 1.403 . S
H1157 C1163 0.930 . S
C1158 H1144 0.930 . S
C1158 C1156 1.395 . S
C1158 C1161 1.403 . S
C1159 C1156 1.403 . S
C1159 C1160 1.524 . S
C1159 C1163 1.400 . S
C1160 H1145 0.960 . S
C1160 H1146 0.960 . S
C1160 H1147 0.960 1_545 S
C1160 C1159 1.524 . S
C1161 C1158 1.403 . S
C1161 C1162 1.392 . S
C1161 C1165 1.495 . S
C1162 C1161 1.392 . S
C1162 C1163 1.385 . S
C1162 C1164 1.478 . S
C1163 H1157 0.930 . S
C1163 C1159 1.400 . S
C1163 C1162 1.385 . S
C1164 C1162 1.478 . S
C1164 C1166 1.381 . S
C1164 C1170 1.383 1_545 S
C1165 C1161 1.495 . S
C1165 H1171 0.959 . S
C1165 H1172 0.961 . S
C1165 H1173 0.960 . S
C1166 C1164 1.381 . S
C1166 C1167 1.394 . S
C1166 H1174 0.930 . S
C1167 C1166 1.394 . S
C1167 C1168 1.383 . S
C1167 H1175 0.929 . S
C1168 C1167 1.383 . S
C1168 C1169 1.377 1_545 S
C1169 H1153 0.930 . S
C1169 C1168 1.377 1_565 S
C1169 C1170 1.379 . S
C1170 H1154 0.931 . S
C1170 C1164 1.383 1_565 S
C1170 C1169 1.379 . S
H1171 C1165 0.959 . S
H1172 C1165 0.961 . S
H1173 C1165 0.960 . S
H1174 C1166 0.930 . S
H1175 C1167 0.929 . S
H1176 C1184 0.929 . S
H1177 C1186 0.930 . S
H1178 C1188 0.930 . S
H1179 C1191 0.929 . S
H1180 C1194 0.930 . S
H1181 C1196 0.960 . S
H1182 C1196 0.960 . S
H1183 C1196 0.960 . S
C1184 H1176 0.929 . S
C1184 C1185 1.377 . S
C1184 C1186 1.384 . S
C1185 C1184 1.377 . S
C1185 C1191 1.390 . S
C1186 H1177 0.930 . S
C1186 C1184 1.384 . S
C1186 C1187 1.372 . S
C1187 C1186 1.372 . S
C1187 C1188 1.400 . S
C1187 C1192 1.490 . S
C1188 H1178 0.930 . S
C1188 C1187 1.400 . S
C1188 C1191 1.386 . S
H1189 C1205 0.930 . S
H1190 C1206 0.931 . S
C1191 H1179 0.929 . S
C1191 C1185 1.390 . S
C1191 C1188 1.386 . S
C1192 C1187 1.490 . S
C1192 C1194 1.395 . S
C1192 C1195 1.411 . S
H1193 C1199 0.930 1_655 S
C1194 H1180 0.930 . S
C1194 C1192 1.395 . S
C1194 C1197 1.403 . S
C1195 C1192 1.411 . S
C1195 C1196 1.515 1_455 S
C1195 C1199 1.401 . S
C1196 H1181 0.960 . S
C1196 H1182 0.960 . S
C1196 H1183 0.960 . S
C1196 C1195 1.515 1_655 S
C1197 C1194 1.403 . S
C1197 C1198 1.392 . S
C1197 C1201 1.495 . S
C1198 C1197 1.392 . S
C1198 C1199 1.385 . S
C1198 C1200 1.478 . S
C1199 H1193 0.930 1_455 S
C1199 C1195 1.401 . S
C1199 C1198 1.385 . S
C1200 C1198 1.478 . S
C1200 C1202 1.381 . S
C1200 C1206 1.383 . S
C1201 C1197 1.495 . S
C1201 H1207 0.959 . S
C1201 H1208 0.961 . S
C1201 H1209 0.960 . S
C1202 C1200 1.381 . S
C1202 C1203 1.394 . S
C1202 H1210 0.930 . S
C1203 C1202 1.394 . S
C1203 C1204 1.383 . S
C1203 H1211 0.929 . S
C1204 C1203 1.383 . S
C1204 C1205 1.377 . S
C1205 H1189 0.930 . S
C1205 C1204 1.377 . S
C1205 C1206 1.379 . S
C1206 H1190 0.931 . S
C1206 C1200 1.383 . S
C1206 C1205 1.379 . S
H1207 C1201 0.959 . S
H1208 C1201 0.961 . S
H1209 C1201 0.960 . S
H1210 C1202 0.930 . S
H1211 C1203 0.929 . S
H1212 C1220 0.929 . S
H1213 C1222 0.930 . S
H1214 C1224 0.930 . S
H1215 C1227 0.929 . S
H1216 C1230 0.930 . S
H1217 C1232 0.970 . S
H1218 C1232 0.951 1_545 S
H1219 C1232 0.970 . S
C1220 H1212 0.929 . S
C1220 C1221 1.377 . S
C1220 C1222 1.384 . S
C1221 C1220 1.377 . S
C1221 C1227 1.390 . S
C1222 H1213 0.930 . S
C1222 C1220 1.384 . S
C1222 C1223 1.372 . S
C1223 C1222 1.372 . S
C1223 C1224 1.400 . S
C1223 C1228 1.490 . S
C1224 H1214 0.930 . S
C1224 C1223 1.400 . S
C1224 C1227 1.386 . S
H1225 C1241 0.930 1_565 S
H1226 C1242 0.912 1_565 S
C1227 H1215 0.929 . S
C1227 C1221 1.390 . S
C1227 C1224 1.386 . S
C1228 C1223 1.490 . S
C1228 C1230 1.395 . S
C1228 C1231 1.403 . S
H1229 C1235 0.930 . S
C1230 H1216 0.930 . S
C1230 C1228 1.395 . S
C1230 C1233 1.403 . S
C1231 C1228 1.403 . S
C1231 C1232 1.512 1_545 S
C1231 C1235 1.400 . S
C1232 H1217 0.970 . S
C1232 H1218 0.951 1_565 S
C1232 H1219 0.970 . S
C1232 C1231 1.512 1_565 S
C1233 C1230 1.403 . S
C1233 C1234 1.392 . S
C1233 C1237 1.495 . S
C1234 C1233 1.392 . S
C1234 C1235 1.385 . S
C1234 C1236 1.478 . S
C1235 H1229 0.930 . S
C1235 C1231 1.400 . S
C1235 C1234 1.385 . S
C1236 C1234 1.478 . S
C1236 C1238 1.381 . S
C1236 C1242 1.383 . S
C1237 C1233 1.495 . S
C1237 H1243 0.959 . S
C1237 H1244 0.961 . S
C1237 H1245 0.960 . S
C1238 C1236 1.381 . S
C1238 C1239 1.394 . S
C1238 H1246 0.930 . S
C1239 C1238 1.394 . S
C1239 C1240 1.383 . S
C1239 H1247 0.929 . S
C1240 C1239 1.383 . S
C1240 C1241 1.377 . S
C1241 H1225 0.930 1_545 S
C1241 C1240 1.377 . S
C1241 C1242 1.379 . S
C1242 H1226 0.912 1_545 S
C1242 C1236 1.383 . S
C1242 C1241 1.379 . S
H1243 C1237 0.959 . S
H1244 C1237 0.961 . S
H1245 C1237 0.960 . S
H1246 C1238 0.930 . S
H1247 C1239 0.929 . S
H1248 C1256 0.929 . S
H1249 C1258 0.930 . S
H1250 C1260 0.930 . S
H1251 C1263 0.929 . S
H1252 C1266 0.930 . S
H1253 C1268 0.960 . S
H1254 C1268 0.960 . S
H1255 C1268 0.960 . S
C1256 H1248 0.929 . S
C1256 C1257 1.377 . S
C1256 C1258 1.384 . S
C1257 C1256 1.377 . S
C1257 C1263 1.390 . S
C1258 H1249 0.930 . S
C1258 C1256 1.384 . S
C1258 C1259 1.372 . S
C1259 C1258 1.372 . S
C1259 C1260 1.400 . S
C1259 C1264 1.490 . S
C1260 H1250 0.930 . S
C1260 C1259 1.400 . S
C1260 C1263 1.386 . S
H1261 C1277 0.930 . S
H1262 C1278 0.931 . S
C1263 H1251 0.929 . S
C1263 C1257 1.390 . S
C1263 C1260 1.386 . S
C1264 C1259 1.490 . S
C1264 C1266 1.395 . S
C1264 C1267 1.403 . S
H1265 C1271 0.930 . S
C1266 H1252 0.930 . S
C1266 C1264 1.395 . S
C1266 C1269 1.403 . S
C1267 C1264 1.403 . S
C1267 C1268 1.524 . S
C1267 C1271 1.400 . S
C1268 H1253 0.960 . S
C1268 H1254 0.960 . S
C1268 H1255 0.960 . S
C1268 C1267 1.524 . S
C1269 C1266 1.403 . S
C1269 C1270 1.392 . S
C1269 C1273 1.495 . S
C1270 C1269 1.392 . S
C1270 C1271 1.385 . S
C1270 C1272 1.478 . S
C1271 H1265 0.930 . S
C1271 C1267 1.400 . S
C1271 C1270 1.385 . S
C1272 C1270 1.478 . S
C1272 C1274 1.381 . S
C1272 C1278 1.383 . S
C1273 C1269 1.495 . S
C1273 H1279 0.959 . S
C1273 H1280 0.961 . S
C1273 H1281 0.960 . S
C1274 C1272 1.381 . S
C1274 C1275 1.394 . S
C1274 H1282 0.930 1_455 S
C1275 C1274 1.394 . S
C1275 C1276 1.383 . S
C1275 H1283 0.929 1_455 S
C1276 C1275 1.383 . S
C1276 C1277 1.377 . S
C1277 H1261 0.930 . S
C1277 C1276 1.377 . S
C1277 C1278 1.379 . S
C1278 H1262 0.931 . S
C1278 C1272 1.383 . S
C1278 C1277 1.379 . S
H1279 C1273 0.959 . S
H1280 C1273 0.961 . S
H1281 C1273 0.960 . S
H1282 C1274 0.930 1_655 S
H1283 C1275 0.929 1_655 S
H1284 C1292 0.929 . S
H1285 C1294 0.930 . S
H1286 C1296 0.930 . S
H1287 C1299 0.929 . S
H1288 C1302 0.930 . S
H1289 C1304 0.960 . S
H1290 C1304 0.960 . S
H1291 C1304 0.957 1_545 S
C1292 H1284 0.929 . S
C1292 C1293 1.377 . S
C1292 C1294 1.384 . S
C1293 C1292 1.377 . S
C1293 C1299 1.390 . S
C1294 H1285 0.930 . S
C1294 C1292 1.384 . S
C1294 C1295 1.372 . S
C1295 C1294 1.372 . S
C1295 C1296 1.400 . S
C1295 C1300 1.490 . S
C1296 H1286 0.930 . S
C1296 C1295 1.400 . S
C1296 C1299 1.386 . S
H1297 C1313 0.930 . S
H1298 C1314 0.931 . S
C1299 H1287 0.929 . S
C1299 C1293 1.390 . S
C1299 C1296 1.386 . S
C1300 C1295 1.490 . S
C1300 C1302 1.395 . S
C1300 C1303 1.403 . S
H1301 C1307 0.930 . S
C1302 H1288 0.930 . S
C1302 C1300 1.395 . S
C1302 C1305 1.403 . S
C1303 C1300 1.403 . S
C1303 C1304 1.524 1_545 S
C1303 C1307 1.400 . S
C1304 H1289 0.960 . S
C1304 H1290 0.960 . S
C1304 H1291 0.957 1_565 S
C1304 C1303 1.524 1_565 S
C1305 C1302 1.403 . S
C1305 C1306 1.392 . S
C1305 C1309 1.495 . S
C1306 C1305 1.392 . S
C1306 C1307 1.385 . S
C1306 C1308 1.478 . S
C1307 H1301 0.930 . S
C1307 C1303 1.400 . S
C1307 C1306 1.385 . S
C1308 C1306 1.478 . S
C1308 C1310 1.381 . S
C1308 C1314 1.383 . S
C1309 C1305 1.495 . S
C1309 H1315 0.959 . S
C1309 H1316 0.961 . S
C1309 H1317 0.960 . S
C1310 C1308 1.381 . S
C1310 C1311 1.394 . S
C1310 H1318 0.930 . S
C1311 C1310 1.394 . S
C1311 C1312 1.383 . S
C1311 H1319 0.929 . S
C1312 C1311 1.383 . S
C1312 C1313 1.377 . S
C1313 H1297 0.930 . S
C1313 C1312 1.377 . S
C1313 C1314 1.379 . S
C1314 H1298 0.931 . S
C1314 C1308 1.383 . S
C1314 C1313 1.379 . S
H1315 C1309 0.959 . S
H1316 C1309 0.961 . S
H1317 C1309 0.960 . S
H1318 C1310 0.930 . S
H1319 C1311 0.929 . S
H1320 C1328 0.929 . S
H1321 C1330 0.930 . S
H1322 C1332 0.930 1_655 S
H1323 C1335 0.929 1_655 S
H1324 C1338 0.930 . S
H1325 C1340 0.960 . S
H1326 C1340 0.960 1_455 S
H1327 C1340 0.960 . S
C1328 H1320 0.929 . S
C1328 C1329 1.377 . S
C1328 C1330 1.384 . S
C1329 C1328 1.377 . S
C1329 C1335 1.390 . S
C1330 H1321 0.930 . S
C1330 C1328 1.384 . S
C1330 C1331 1.372 . S
C1331 C1330 1.372 . S
C1331 C1332 1.400 . S
C1331 C1336 1.490 . S
C1332 H1322 0.930 1_455 S
C1332 C1331 1.400 . S
C1332 C1335 1.386 . S
H1333 C1349 0.930 1_655 S
H1334 C1350 0.931 1_655 S
C1335 H1323 0.929 1_455 S
C1335 C1329 1.390 . S
C1335 C1332 1.386 . S
C1336 C1331 1.490 . S
C1336 C1338 1.395 . S
C1336 C1339 1.403 . S
H1337 C1343 0.930 . S
C1338 H1324 0.930 . S
C1338 C1336 1.395 . S
C1338 C1341 1.403 . S
C1339 C1336 1.403 . S
C1339 C1340 1.524 1_455 S
C1339 C1343 1.400 . S
C1340 H1325 0.960 . S
C1340 H1326 0.960 1_655 S
C1340 H1327 0.960 . S
C1340 C1339 1.524 1_655 S
C1341 C1338 1.403 . S
C1341 C1342 1.392 . S
C1341 C1345 1.495 . S
C1342 C1341 1.392 . S
C1342 C1343 1.385 . S
C1342 C1344 1.478 . S
C1343 H1337 0.930 . S
C1343 C1339 1.400 . S
C1343 C1342 1.385 . S
C1344 C1342 1.478 . S
C1344 C1346 1.381 . S
C1344 C1350 1.383 . S
C1345 C1341 1.495 . S
C1345 H1351 0.959 . S
C1345 H1352 0.961 . S
C1345 H1353 0.960 . S
C1346 C1344 1.381 . S
C1346 C1347 1.394 . S
C1346 H1354 0.930 . S
C1347 C1346 1.394 . S
C1347 C1348 1.383 . S
C1347 H1355 0.929 . S
C1348 C1347 1.383 . S
C1348 C1349 1.377 . S
C1349 H1333 0.930 1_455 S
C1349 C1348 1.377 . S
C1349 C1350 1.379 . S
C1350 H1334 0.931 1_455 S
C1350 C1344 1.383 . S
C1350 C1349 1.379 . S
H1351 C1345 0.959 . S
H1352 C1345 0.961 . S
H1353 C1345 0.960 . S
H1354 C1346 0.930 . S
H1355 C1347 0.929 . S
H1356 C1364 0.929 . S
H1357 C1366 0.930 . S
H1358 C1368 0.930 . S
H1359 C1371 0.929 . S
H1360 C1374 0.930 . S
H1361 C1376 0.960 . S
H1362 C1376 0.960 1_545 S
H1363 C1376 0.960 . S
C1364 H1356 0.929 . S
C1364 C1365 1.377 . S
C1364 C1366 1.384 . S
C1365 C1364 1.377 . S
C1365 C1371 1.390 1_545 S
C1366 H1357 0.930 . S
C1366 C1364 1.384 . S
C1366 C1367 1.372 . S
C1367 C1366 1.372 . S
C1367 C1368 1.400 1_545 S
C1367 C1372 1.490 . S
C1368 H1358 0.930 . S
C1368 C1367 1.400 1_565 S
C1368 C1371 1.386 . S
H1369 C1385 0.930 . S
H1370 C1386 0.931 . S
C1371 H1359 0.929 . S
C1371 C1365 1.390 1_565 S
C1371 C1368 1.386 . S
C1372 C1367 1.490 . S
C1372 C1374 1.395 . S
C1372 C1375 1.403 . S
H1373 C1379 0.930 . S
C1374 H1360 0.930 . S
C1374 C1372 1.395 . S
C1374 C1377 1.403 . S
C1375 C1372 1.403 . S
C1375 C1376 1.524 1_545 S
C1375 C1379 1.400 . S
C1376 H1361 0.960 . S
C1376 H1362 0.960 1_565 S
C1376 H1363 0.960 . S
C1376 C1375 1.524 1_565 S
C1377 C1374 1.403 . S
C1377 C1378 1.392 . S
C1377 C1381 1.495 . S
C1378 C1377 1.392 . S
C1378 C1379 1.385 . S
C1378 C1380 1.478 . S
C1379 H1373 0.930 . S
C1379 C1375 1.400 . S
C1379 C1378 1.385 . S
C1380 C1378 1.478 . S
C1380 C1382 1.381 . S
C1380 C1386 1.383 1_545 S
C1381 C1377 1.495 . S
C1381 H1387 0.959 . S
C1381 H1388 0.961 . S
C1381 H1389 0.960 . S
C1382 C1380 1.381 . S
C1382 C1383 1.394 . S
C1382 H1390 0.930 . S
C1383 C1382 1.394 . S
C1383 C1384 1.383 . S
C1383 H1391 0.929 . S
C1384 C1383 1.383 . S
C1384 C1385 1.377 1_545 S
C1385 H1369 0.930 . S
C1385 C1384 1.377 1_565 S
C1385 C1386 1.379 . S
C1386 H1370 0.931 . S
C1386 C1380 1.383 1_565 S
C1386 C1385 1.379 . S
H1387 C1381 0.959 . S
H1388 C1381 0.961 . S
H1389 C1381 0.960 . S
H1390 C1382 0.930 . S
H1391 C1383 0.929 . S
H1392 C1400 0.929 . S
H1393 C1402 0.930 . S
H1394 C1404 0.930 . S
H1395 C1407 0.929 . S
H1396 C1410 0.930 . S
H1397 C1412 0.960 . S
H1398 C1412 0.960 . S
H1399 C1412 0.960 . S
C1400 H1392 0.929 . S
C1400 C1401 1.377 . S
C1400 C1402 1.384 . S
C1401 C1400 1.377 . S
C1401 C1407 1.390 . S
C1402 H1393 0.930 . S
C1402 C1400 1.384 . S
C1402 C1403 1.372 . S
C1403 C1402 1.372 . S
C1403 C1404 1.400 . S
C1403 C1408 1.490 . S
C1404 H1394 0.930 . S
C1404 C1403 1.400 . S
C1404 C1407 1.386 . S
H1405 C1421 0.930 . S
H1406 C1422 0.931 . S
C1407 H1395 0.929 . S
C1407 C1401 1.390 . S
C1407 C1404 1.386 . S
C1408 C1403 1.490 . S
C1408 C1410 1.395 . S
C1408 C1411 1.403 . S
H1409 C1415 0.930 . S
C1410 H1396 0.930 . S
C1410 C1408 1.395 . S
C1410 C1413 1.403 . S
C1411 C1408 1.403 . S
C1411 C1412 1.524 . S
C1411 C1415 1.400 . S
C1412 H1397 0.960 . S
C1412 H1398 0.960 . S
C1412 H1399 0.960 . S
C1412 C1411 1.524 . S
C1413 C1410 1.403 . S
C1413 C1414 1.392 . S
C1413 C1417 1.495 . S
C1414 C1413 1.392 . S
C1414 C1415 1.385 . S
C1414 C1416 1.478 . S
C1415 H1409 0.930 . S
C1415 C1411 1.400 . S
C1415 C1414 1.385 . S
C1416 C1414 1.478 . S
C1416 C1418 1.381 . S
C1416 C1422 1.383 . S
C1417 C1413 1.495 . S
C1417 H1423 0.959 . S
C1417 H1424 0.961 . S
C1417 H1425 0.960 . S
C1418 C1416 1.381 . S
C1418 C1419 1.394 . S
C1418 H1426 0.930 1_455 S
C1419 C1418 1.394 . S
C1419 C1420 1.383 . S
C1419 H1427 0.929 1_455 S
C1420 C1419 1.383 . S
C1420 C1421 1.377 . S
C1421 H1405 0.930 . S
C1421 C1420 1.377 . S
C1421 C1422 1.379 . S
C1422 H1406 0.931 . S
C1422 C1416 1.383 . S
C1422 C1421 1.379 . S
H1423 C1417 0.959 . S
H1424 C1417 0.961 . S
H1425 C1417 0.960 . S
H1426 C1418 0.930 1_655 S
H1427 C1419 0.929 1_655 S
H1428 C1436 0.929 . S
H1429 C1438 0.930 . S
H1430 C1440 0.930 . S
H1431 C1443 0.929 . S
H1432 C1446 0.930 1_565 S
H1433 C1448 0.960 . S
H1434 C1448 0.960 . S
H1435 C1448 0.960 . S
C1436 H1428 0.929 . S
C1436 C1437 1.377 . S
C1436 C1438 1.384 . S
C1437 C1436 1.377 . S
C1437 C1443 1.390 . S
C1438 H1429 0.930 . S
C1438 C1436 1.384 . S
C1438 C1439 1.372 . S
C1439 C1438 1.372 . S
C1439 C1440 1.400 . S
C1439 C1444 1.490 . S
C1440 H1430 0.930 . S
C1440 C1439 1.400 . S
C1440 C1443 1.386 . S
H1441 C1457 0.930 . S
H1442 C1458 0.931 . S
C1443 H1431 0.929 . S
C1443 C1437 1.390 . S
C1443 C1440 1.386 . S
C1444 C1439 1.490 . S
C1444 C1446 1.395 . S
C1444 C1447 1.403 . S
H1445 C1451 0.930 . S
C1446 H1432 0.930 1_545 S
C1446 C1444 1.395 . S
C1446 C1449 1.403 . S
C1447 C1444 1.403 . S
C1447 C1448 1.524 . S
C1447 C1451 1.400 . S
C1448 H1433 0.960 . S
C1448 H1434 0.960 . S
C1448 H1435 0.960 . S
C1448 C1447 1.524 . S
C1449 C1446 1.403 . S
C1449 C1450 1.392 . S
C1449 C1453 1.495 1_545 S
C1450 C1449 1.392 . S
C1450 C1451 1.385 . S
C1450 C1452 1.478 . S
C1451 H1445 0.930 . S
C1451 C1447 1.400 . S
C1451 C1450 1.385 . S
C1452 C1450 1.478 . S
C1452 C1454 1.381 . S
C1452 C1458 1.383 . S
C1453 C1449 1.495 1_565 S
C1453 H1459 0.959 . S
C1453 H1460 0.961 . S
C1453 H1461 0.960 . S
C1454 C1452 1.381 . S
C1454 C1455 1.394 . S
C1454 H1462 0.913 1_545 S
C1455 C1454 1.394 . S
C1455 C1456 1.383 . S
C1455 H1463 0.904 1_545 S
C1456 C1455 1.383 . S
C1456 C1457 1.377 . S
C1457 H1441 0.930 . S
C1457 C1456 1.377 . S
C1457 C1458 1.379 . S
C1458 H1442 0.931 . S
C1458 C1452 1.383 . S
C1458 C1457 1.379 . S
H1459 C1453 0.959 . S
H1460 C1453 0.961 . S
H1461 C1453 0.960 . S
H1462 C1454 0.913 1_565 S
H1463 C1455 0.904 1_565 S
H1464 C1472 0.913 1_655 S
H1465 C1474 0.909 1_655 S
H1466 C1476 0.930 . S
H1467 C1479 0.929 . S
H1468 C1482 0.930 1_655 S
H1469 C1484 0.960 . S
H1470 C1484 0.960 . S
H1471 C1484 0.960 . S
C1472 H1464 0.913 1_455 S
C1472 C1473 1.377 . S
C1472 C1474 1.384 . S
C1473 C1472 1.377 . S
C1473 C1479 1.390 . S
C1474 H1465 0.909 1_455 S
C1474 C1472 1.384 . S
C1474 C1475 1.372 . S
C1475 C1474 1.372 . S
C1475 C1476 1.400 . S
C1475 C1480 1.490 . S
C1476 H1466 0.930 . S
C1476 C1475 1.400 . S
C1476 C1479 1.386 . S
H1477 C1493 0.930 . S
H1478 C1494 0.931 . S
C1479 H1467 0.929 . S
C1479 C1473 1.390 . S
C1479 C1476 1.386 . S
C1480 C1475 1.490 . S
C1480 C1482 1.395 . S
C1480 C1483 1.403 . S
H1481 C1487 0.930 . S
C1482 H1468 0.930 1_455 S
C1482 C1480 1.395 . S
C1482 C1485 1.403 . S
C1483 C1480 1.403 . S
C1483 C1484 1.524 . S
C1483 C1487 1.400 . S
C1484 H1469 0.960 . S
C1484 H1470 0.960 . S
C1484 H1471 0.960 . S
C1484 C1483 1.524 . S
C1485 C1482 1.403 . S
C1485 C1486 1.392 . S
C1485 C1489 1.495 1_455 S
C1486 C1485 1.392 . S
C1486 C1487 1.385 . S
C1486 C1488 1.478 . S
C1487 H1481 0.930 . S
C1487 C1483 1.400 . S
C1487 C1486 1.385 . S
C1488 C1486 1.478 . S
C1488 C1490 1.381 . S
C1488 C1494 1.383 . S
C1489 C1485 1.495 1_655 S
C1489 H1495 0.959 . S
C1489 H1496 0.961 . S
C1489 H1497 0.960 . S
C1490 C1488 1.381 . S
C1490 C1491 1.394 . S
C1490 H1498 0.948 . S
C1491 C1490 1.394 . S
C1491 C1492 1.383 . S
C1491 H1499 0.929 . S
C1492 C1491 1.383 . S
C1492 C1493 1.377 . S
C1493 H1477 0.930 . S
C1493 C1492 1.377 . S
C1493 C1494 1.379 . S
C1494 H1478 0.931 . S
C1494 C1488 1.383 . S
C1494 C1493 1.379 . S
H1495 C1489 0.959 . S
H1496 C1489 0.961 . S
H1497 C1489 0.960 . S
H1498 C1490 0.948 . S
H1499 C1491 0.929 . S
H1500 C1508 0.929 . S
H1501 C1510 0.930 . S
H1502 C1512 0.930 . S
H1503 C1515 0.929 . S
H1504 C1518 0.930 . S
H1505 C1520 0.960 . S
H1506 C1520 0.960 . S
H1507 C1520 0.960 1_545 S
C1508 H1500 0.929 . S
C1508 C1509 1.377 1_565 S
C1508 C1510 1.384 . S
C1509 C1508 1.377 1_545 S
C1509 C1515 1.390 . S
C1510 H1501 0.930 . S
C1510 C1508 1.384 . S
C1510 C1511 1.372 1_565 S
C1511 C1510 1.372 1_545 S
C1511 C1512 1.400 . S
C1511 C1516 1.490 . S
C1512 H1502 0.930 . S
C1512 C1511 1.400 . S
C1512 C1515 1.386 . S
H1513 C1529 0.930 . S
H1514 C1530 0.931 . S
C1515 H1503 0.929 . S
C1515 C1509 1.390 . S
C1515 C1512 1.386 . S
C1516 C1511 1.490 . S
C1516 C1518 1.395 . S
C1516 C1519 1.403 . S
H1517 C1523 0.930 . S
C1518 H1504 0.930 . S
C1518 C1516 1.395 . S
C1518 C1521 1.403 . S
C1519 C1516 1.403 . S
C1519 C1520 1.524 1_545 S
C1519 C1523 1.400 . S
C1520 H1505 0.960 . S
C1520 H1506 0.960 . S
C1520 H1507 0.960 1_565 S
C1520 C1519 1.524 1_565 S
C1521 C1518 1.403 . S
C1521 C1522 1.392 . S
C1521 C1525 1.495 . S
C1522 C1521 1.392 . S
C1522 C1523 1.385 . S
C1522 C1524 1.478 . S
C1523 H1517 0.930 . S
C1523 C1519 1.400 . S
C1523 C1522 1.385 . S
C1524 C1522 1.478 . S
C1524 C1526 1.378 . S
C1524 C1530 1.383 . S
C1525 C1521 1.495 . S
C1525 H1531 0.959 . S
C1525 H1532 0.961 . S
C1525 H1533 0.960 . S
C1526 C1524 1.378 . S
C1526 C1527 1.394 . S
C1526 H1534 0.934 1_545 S
C1527 C1526 1.394 . S
C1527 C1528 1.383 . S
C1527 H1535 0.929 1_545 S
C1528 C1527 1.383 . S
C1528 C1529 1.377 . S
C1529 H1513 0.930 . S
C1529 C1528 1.377 . S
C1529 C1530 1.379 . S
C1530 H1514 0.931 . S
C1530 C1524 1.383 . S
C1530 C1529 1.379 . S
H1531 C1525 0.959 . S
H1532 C1525 0.961 . S
H1533 C1525 0.960 . S
H1534 C1526 0.934 1_565 S
H1535 C1527 0.929 1_565 S
H1536 C1544 0.935 . S
H1537 C1546 0.930 1_655 S
H1538 C1548 0.930 . S
H1539 C1551 0.929 . S
H1540 C1554 0.930 . S
H1541 C1556 0.960 . S
H1542 C1556 0.960 . S
H1543 C1556 0.960 . S
C1544 H1536 0.935 . S
C1544 C1545 1.375 1_655 S
C1544 C1546 1.383 1_655 S
C1545 C1544 1.375 1_455 S
C1545 C1551 1.390 . S
C1546 H1537 0.930 1_455 S
C1546 C1544 1.383 1_455 S
C1546 C1547 1.372 . S
C1547 C1546 1.372 . S
C1547 C1548 1.400 . S
C1547 C1552 1.490 . S
C1548 H1538 0.930 . S
C1548 C1547 1.400 . S
C1548 C1551 1.386 . S
H1549 C1565 0.930 . S
H1550 C1566 0.931 . S
C1551 H1539 0.929 . S
C1551 C1545 1.390 . S
C1551 C1548 1.386 . S
C1552 C1547 1.490 . S
C1552 C1554 1.395 1_455 S
C1552 C1555 1.403 . S
H1553 C1559 0.930 . S
C1554 H1540 0.930 . S
C1554 C1552 1.395 1_655 S
C1554 C1557 1.403 . S
C1555 C1552 1.403 . S
C1555 C1556 1.524 . S
C1555 C1559 1.400 . S
C1556 H1541 0.960 . S
C1556 H1542 0.960 . S
C1556 H1543 0.960 . S
C1556 C1555 1.524 . S
C1557 C1554 1.403 . S
C1557 C1558 1.392 1_655 S
C1557 C1561 1.495 . S
C1558 C1557 1.392 1_455 S
C1558 C1559 1.385 . S
C1558 C1560 1.478 . S
C1559 H1553 0.930 . S
C1559 C1555 1.400 . S
C1559 C1558 1.385 . S
C1560 C1558 1.478 . S
C1560 C1562 1.381 . S
C1560 C1566 1.383 . S
C1561 C1557 1.495 . S
C1561 H1567 0.959 . S
C1561 H1568 0.961 . S
C1561 H1569 0.960 . S
C1562 C1560 1.381 . S
C1562 C1563 1.394 . S
C1562 H1570 0.930 . S
C1563 C1562 1.394 . S
C1563 C1564 1.383 . S
C1563 H1571 0.929 . S
C1564 C1563 1.383 . S
C1564 C1565 1.377 . S
C1565 H1549 0.930 . S
C1565 C1564 1.377 . S
C1565 C1566 1.379 . S
C1566 H1550 0.931 . S
C1566 C1560 1.383 . S
C1566 C1565 1.379 . S
H1567 C1561 0.959 . S
H1568 C1561 0.961 . S
H1569 C1561 0.960 . S
H1570 C1562 0.930 . S
H1571 C1563 0.929 . S
H1572 C1580 0.929 . S
H1573 C1582 0.930 . S
H1574 C1584 0.940 . S
H1575 C1587 0.929 1_565 S
H1576 C1590 0.930 . S
H1577 C1592 0.960 . S
H1578 C1592 0.960 . S
H1579 C1592 0.960 . S
C1580 H1572 0.929 . S
C1580 C1581 1.377 . S
C1580 C1582 1.384 . S
C1581 C1580 1.377 . S
C1581 C1587 1.390 . S
C1582 H1573 0.930 . S
C1582 C1580 1.384 . S
C1582 C1583 1.372 . S
C1583 C1582 1.372 . S
C1583 C1584 1.400 . S
C1583 C1588 1.490 . S
C1584 H1574 0.940 . S
C1584 C1583 1.400 . S
C1584 C1587 1.386 . S
H1585 C1601 0.930 . S
H1586 C1602 0.931 1_565 S
C1587 H1575 0.929 1_545 S
C1587 C1581 1.390 . S
C1587 C1584 1.386 . S
C1588 C1583 1.490 . S
C1588 C1590 1.395 1_545 S
C1588 C1591 1.403 . S
H1589 C1595 0.930 . S
C1590 H1576 0.930 . S
C1590 C1588 1.395 1_565 S
C1590 C1593 1.403 . S
C1591 C1588 1.403 . S
C1591 C1592 1.524 . S
C1591 C1595 1.400 . S
C1592 H1577 0.960 . S
C1592 H1578 0.960 . S
C1592 H1579 0.960 . S
C1592 C1591 1.524 . S
C1593 C1590 1.403 . S
C1593 C1594 1.392 1_565 S
C1593 C1597 1.495 . S
C1594 C1593 1.392 1_545 S
C1594 C1595 1.385 . S
C1594 C1596 1.478 . S
C1595 H1589 0.930 . S
C1595 C1591 1.400 . S
C1595 C1594 1.385 . S
C1596 C1594 1.478 . S
C1596 C1598 1.381 . S
C1596 C1602 1.383 . S
C1597 C1593 1.495 . S
C1597 H1603 0.959 . S
C1597 H1604 0.961 . S
C1597 H1605 0.960 . S
C1598 C1596 1.381 . S
C1598 C1599 1.394 . S
C1598 H1606 0.930 . S
C1599 C1598 1.394 . S
C1599 C1600 1.383 . S
C1599 H1607 0.929 . S
C1600 C1599 1.383 . S
C1600 C1601 1.377 . S
C1601 H1585 0.930 . S
C1601 C1600 1.377 . S
C1601 C1602 1.379 . S
C1602 H1586 0.931 1_545 S
C1602 C1596 1.383 . S
C1602 C1601 1.379 . S
H1603 C1597 0.959 . S
H1604 C1597 0.961 . S
H1605 C1597 0.960 . S
H1606 C1598 0.930 . S
H1607 C1599 0.929 . S
H1608 C1616 0.929 1_655 S
H1609 C1618 0.926 1_655 S
H1610 C1620 0.930 . S
H1611 C1623 0.929 . S
H1612 C1626 0.930 . S
H1613 C1628 0.960 . S
H1614 C1628 0.960 . S
H1615 C1628 0.960 . S
C1616 H1608 0.929 1_455 S
C1616 C1617 1.377 . S
C1616 C1618 1.384 . S
C1617 C1616 1.377 . S
C1617 C1623 1.390 . S
C1618 H1609 0.926 1_455 S
C1618 C1616 1.384 . S
C1618 C1619 1.376 . S
C1619 C1618 1.376 . S
C1619 C1620 1.400 . S
C1619 C1624 1.490 . S
C1620 H1610 0.930 . S
C1620 C1619 1.400 . S
C1620 C1623 1.386 . S
H1621 C1637 0.930 . S
H1622 C1638 0.931 . S
C1623 H1611 0.929 . S
C1623 C1617 1.390 . S
C1623 C1620 1.386 . S
C1624 C1619 1.490 . S
C1624 C1626 1.395 . S
C1624 C1627 1.403 . S
H1625 C1631 0.930 . S
C1626 H1612 0.930 . S
C1626 C1624 1.395 . S
C1626 C1629 1.403 . S
C1627 C1624 1.403 . S
C1627 C1628 1.524 . S
C1627 C1631 1.400 . S
C1628 H1613 0.960 . S
C1628 H1614 0.960 . S
C1628 H1615 0.960 . S
C1628 C1627 1.524 . S
C1629 C1626 1.403 . S
C1629 C1630 1.392 . S
C1629 C1633 1.495 1_455 S
C1630 C1629 1.392 . S
C1630 C1631 1.385 . S
C1630 C1632 1.478 . S
C1631 H1625 0.930 . S
C1631 C1627 1.400 . S
C1631 C1630 1.385 . S
C1632 C1630 1.478 . S
C1632 C1634 1.381 1_455 S
C1632 C1638 1.383 . S
C1633 C1629 1.495 1_655 S
C1633 H1639 0.959 . S
C1633 H1640 0.961 1_655 S
C1633 H1641 0.960 . S
C1634 C1632 1.381 1_655 S
C1634 C1635 1.394 . S
C1634 H1642 0.930 . S
C1635 C1634 1.394 . S
C1635 C1636 1.383 1_655 S
C1635 H1643 0.929 . S
C1636 C1635 1.383 1_455 S
C1636 C1637 1.377 . S
C1637 H1621 0.930 . S
C1637 C1636 1.377 . S
C1637 C1638 1.379 . S
C1638 H1622 0.931 . S
C1638 C1632 1.383 . S
C1638 C1637 1.379 . S
H1639 C1633 0.959 . S
H1640 C1633 0.961 1_455 S
H1641 C1633 0.960 . S
H1642 C1634 0.930 . S
H1643 C1635 0.929 . S
H1644 C1652 0.929 . S
H1645 C1654 0.930 . S
H1646 C1656 0.930 . S
H1647 C1659 0.929 . S
H1648 C1662 0.930 . S
H1649 C1664 0.960 . S
H1650 C1664 0.960 1_565 S
H1651 C1664 0.960 . S
C1652 H1644 0.929 . S
C1652 C1653 1.377 . S
C1652 C1654 1.384 . S
C1653 C1652 1.377 . S
C1653 C1659 1.390 . S
C1654 H1645 0.930 . S
C1654 C1652 1.384 . S
C1654 C1655 1.372 . S
C1655 C1654 1.372 . S
C1655 C1656 1.400 . S
C1655 C1660 1.490 . S
C1656 H1646 0.930 . S
C1656 C1655 1.400 . S
C1656 C1659 1.386 . S
H1657 C1673 0.930 . S
H1658 C1674 0.931 . S
C1659 H1647 0.929 . S
C1659 C1653 1.390 . S
C1659 C1656 1.386 . S
C1660 C1655 1.490 . S
C1660 C1662 1.395 . S
C1660 C1663 1.403 . S
H1661 C1667 0.930 . S
C1662 H1648 0.930 . S
C1662 C1660 1.395 . S
C1662 C1665 1.403 . S
C1663 C1660 1.403 . S
C1663 C1664 1.524 . S
C1663 C1667 1.400 . S
C1664 H1649 0.960 . S
C1664 H1650 0.960 1_545 S
C1664 H1651 0.960 . S
C1664 C1663 1.524 . S
C1665 C1662 1.403 . S
C1665 C1666 1.392 . S
C1665 C1669 1.495 . S
C1666 C1665 1.392 . S
C1666 C1667 1.385 . S
C1666 C1668 1.478 . S
C1667 H1661 0.930 . S
C1667 C1663 1.400 . S
C1667 C1666 1.385 . S
C1668 C1666 1.478 . S
C1668 C1670 1.381 . S
C1668 C1674 1.383 . S
C1669 C1665 1.495 . S
C1669 H1675 0.959 . S
C1669 H1676 0.961 . S
C1669 H1677 0.960 . S
C1670 C1668 1.381 . S
C1670 C1671 1.394 . S
C1670 H1678 0.930 . S
C1671 C1670 1.394 . S
C1671 C1672 1.383 . S
C1671 H1679 0.929 . S
C1672 C1671 1.383 . S
C1672 C1673 1.377 . S
C1673 H1657 0.930 . S
C1673 C1672 1.377 . S
C1673 C1674 1.379 . S
C1674 H1658 0.931 . S
C1674 C1668 1.383 . S
C1674 C1673 1.379 . S
H1675 C1669 0.959 . S
H1676 C1669 0.961 . S
H1677 C1669 0.960 . S
H1678 C1670 0.930 . S
H1679 C1671 0.929 . S
H1680 C1688 0.929 . S
H1681 C1690 0.930 . S
H1682 C1692 0.930 . S
H1683 C1695 0.929 . S
H1684 C1698 0.930 . S
H1685 C1700 0.960 . S
H1686 C1700 0.960 1_545 S
H1687 C1700 0.960 . S
C1688 H1680 0.929 . S
C1688 C1689 1.377 . S
C1688 C1690 1.384 . S
C1689 C1688 1.377 . S
C1689 C1695 1.390 1_545 S
C1690 H1681 0.930 . S
C1690 C1688 1.384 . S
C1690 C1691 1.372 . S
C1691 C1690 1.372 . S
C1691 C1692 1.400 1_545 S
C1691 C1696 1.490 . S
C1692 H1682 0.930 . S
C1692 C1691 1.400 1_565 S
C1692 C1695 1.386 . S
H1693 C1709 0.930 . S
H1694 C1710 0.931 . S
C1695 H1683 0.929 . S
C1695 C1689 1.390 1_565 S
C1695 C1692 1.386 . S
C1696 C1691 1.490 . S
C1696 C1698 1.395 . S
C1696 C1699 1.412 . S
H1697 C1703 0.930 1_565 S
C1698 H1684 0.930 . S
C1698 C1696 1.395 . S
C1698 C1701 1.403 . S
C1699 C1696 1.412 . S
C1699 C1700 1.515 1_545 S
C1699 C1703 1.402 . S
C1700 H1685 0.960 . S
C1700 H1686 0.960 1_565 S
C1700 H1687 0.960 . S
C1700 C1699 1.515 1_565 S
C1701 C1698 1.403 . S
C1701 C1702 1.392 . S
C1701 C1705 1.495 . S
C1702 C1701 1.392 . S
C1702 C1703 1.385 . S
C1702 C1704 1.478 . S
C1703 H1697 0.930 1_545 S
C1703 C1699 1.402 . S
C1703 C1702 1.385 . S
C1704 C1702 1.478 . S
C1704 C1706 1.381 . S
C1704 C1710 1.383 1_545 S
C1705 C1701 1.495 . S
C1705 H1711 0.959 . S
C1705 H1712 0.961 . S
C1705 H1713 0.960 . S
C1706 C1704 1.381 . S
C1706 C1707 1.394 . S
C1706 H1714 0.930 . S
C1707 C1706 1.394 . S
C1707 C1708 1.383 . S
C1707 H1715 0.929 . S
C1708 C1707 1.383 . S
C1708 C1709 1.377 1_545 S
C1709 H1693 0.930 . S
C1709 C1708 1.377 1_565 S
C1709 C1710 1.379 . S
C1710 H1694 0.931 . S
C1710 C1704 1.383 1_565 S
C1710 C1709 1.379 . S
H1711 C1705 0.959 . S
H1712 C1705 0.961 . S
H1713 C1705 0.960 . S
H1714 C1706 0.930 . S
H1715 C1707 0.929 . S
H1716 C1724 0.929 . S
H1717 C1726 0.930 . S
H1718 C1728 0.930 . S
H1719 C1731 0.929 . S
H1720 C1734 0.930 1_655 S
H1721 C1736 0.960 . S
H1722 C1736 0.960 . S
H1723 C1736 0.960 . S
C1724 H1716 0.929 . S
C1724 C1725 1.377 . S
C1724 C1726 1.384 . S
C1725 C1724 1.377 . S
C1725 C1731 1.390 . S
C1726 H1717 0.930 . S
C1726 C1724 1.384 . S
C1726 C1727 1.372 . S
C1727 C1726 1.372 . S
C1727 C1728 1.400 . S
C1727 C1732 1.490 . S
C1728 H1718 0.930 . S
C1728 C1727 1.400 . S
C1728 C1731 1.386 . S
H1729 C1745 0.930 . S
H1730 C1746 0.931 . S
C1731 H1719 0.929 . S
C1731 C1725 1.390 . S
C1731 C1728 1.386 . S
C1732 C1727 1.490 . S
C1732 C1734 1.395 . S
C1732 C1735 1.403 . S
H1733 C1739 0.930 . S
C1734 H1720 0.930 1_455 S
C1734 C1732 1.395 . S
C1734 C1737 1.403 . S
C1735 C1732 1.403 . S
C1735 C1736 1.524 . S
C1735 C1739 1.400 . S
C1736 H1721 0.960 . S
C1736 H1722 0.960 . S
C1736 H1723 0.960 . S
C1736 C1735 1.524 . S
C1737 C1734 1.403 . S
C1737 C1738 1.392 . S
C1737 C1741 1.495 1_455 S
C1738 C1737 1.392 . S
C1738 C1739 1.385 . S
C1738 C1740 1.478 . S
C1739 H1733 0.930 . S
C1739 C1735 1.400 . S
C1739 C1738 1.385 . S
C1740 C1738 1.478 . S
C1740 C1742 1.381 . S
C1740 C1746 1.383 . S
C1741 C1737 1.495 1_655 S
C1741 H1747 0.959 . S
C1741 H1748 0.961 . S
C1741 H1749 0.960 . S
C1742 C1740 1.381 . S
C1742 C1743 1.394 . S
C1742 H1750 0.930 1_455 S
C1743 C1742 1.394 . S
C1743 C1744 1.383 . S
C1743 H1751 0.929 1_455 S
C1744 C1743 1.383 . S
C1744 C1745 1.377 . S
C1745 H1729 0.930 . S
C1745 C1744 1.377 . S
C1745 C1746 1.379 . S
C1746 H1730 0.931 . S
C1746 C1740 1.383 . S
C1746 C1745 1.379 . S
H1747 C1741 0.959 . S
H1748 C1741 0.961 . S
H1749 C1741 0.960 . S
H1750 C1742 0.930 1_655 S
H1751 C1743 0.929 1_655 S
H1752 C1760 0.929 . S
H1753 C1762 0.930 . S
H1754 C1764 0.930 . S
H1755 C1767 0.929 . S
H1756 C1770 0.930 . S
H1757 C1772 0.960 . S
H1758 C1772 0.960 . S
H1759 C1772 0.960 . S
C1760 H1752 0.929 . S
C1760 C1761 1.377 . S
C1760 C1762 1.384 . S
C1761 C1760 1.377 . S
C1761 C1767 1.390 . S
C1762 H1753 0.930 . S
C1762 C1760 1.384 . S
C1762 C1763 1.372 . S
C1763 C1762 1.372 . S
C1763 C1764 1.400 . S
C1763 C1768 1.490 . S
C1764 H1754 0.930 . S
C1764 C1763 1.400 . S
C1764 C1767 1.386 . S
H1765 C1781 0.930 1_565 S
H1766 C1782 0.898 1_565 S
C1767 H1755 0.929 . S
C1767 C1761 1.390 . S
C1767 C1764 1.386 . S
C1768 C1763 1.490 . S
C1768 C1770 1.395 . S
C1768 C1771 1.403 . S
H1769 C1775 0.930 . S
C1770 H1756 0.930 . S
C1770 C1768 1.395 . S
C1770 C1773 1.403 . S
C1771 C1768 1.403 . S
C1771 C1772 1.524 . S
C1771 C1775 1.400 . S
C1772 H1757 0.960 . S
C1772 H1758 0.960 . S
C1772 H1759 0.960 . S
C1772 C1771 1.524 . S
C1773 C1770 1.403 . S
C1773 C1774 1.392 . S
C1773 C1777 1.495 . S
C1774 C1773 1.392 . S
C1774 C1775 1.385 . S
C1774 C1776 1.478 . S
C1775 H1769 0.930 . S
C1775 C1771 1.400 . S
C1775 C1774 1.385 . S
C1776 C1774 1.478 . S
C1776 C1778 1.381 . S
C1776 C1782 1.383 . S
C1777 C1773 1.495 . S
C1777 H1783 0.959 . S
C1777 H1784 0.961 . S
C1777 H1785 0.960 . S
C1778 C1776 1.381 . S
C1778 C1779 1.394 . S
C1778 H1786 0.930 . S
C1779 C1778 1.394 . S
C1779 C1780 1.383 . S
C1779 H1787 0.929 . S
C1780 C1779 1.383 . S
C1780 C1781 1.377 . S
C1781 H1765 0.930 1_545 S
C1781 C1780 1.377 . S
C1781 C1782 1.379 . S
C1782 H1766 0.898 1_545 S
C1782 C1776 1.383 . S
C1782 C1781 1.379 . S
H1783 C1777 0.959 . S
H1784 C1777 0.961 . S
H1785 C1777 0.960 . S
H1786 C1778 0.930 . S
H1787 C1779 0.929 . S
H1788 C1796 0.929 . S
H1789 C1798 0.930 . S
H1790 C1800 0.930 1_655 S
H1791 C1803 0.929 1_655 S
H1792 C1806 0.930 . S
H1793 C1808 0.960 . S
H1794 C1808 0.960 . S
H1795 C1808 0.960 . S
C1796 H1788 0.929 . S
C1796 C1797 1.377 . S
C1796 C1798 1.384 . S
C1797 C1796 1.377 . S
C1797 C1803 1.390 . S
C1798 H1789 0.930 . S
C1798 C1796 1.384 . S
C1798 C1799 1.372 . S
C1799 C1798 1.372 . S
C1799 C1800 1.400 . S
C1799 C1804 1.490 . S
C1800 H1790 0.930 1_455 S
C1800 C1799 1.400 . S
C1800 C1803 1.386 . S
H1801 C1817 0.930 . S
H1802 C1818 0.931 . S
C1803 H1791 0.929 1_455 S
C1803 C1797 1.390 . S
C1803 C1800 1.386 . S
C1804 C1799 1.490 . S
C1804 C1806 1.395 . S
C1804 C1807 1.403 . S
H1805 C1811 0.930 . S
C1806 H1792 0.930 . S
C1806 C1804 1.395 . S
C1806 C1809 1.403 . S
C1807 C1804 1.403 . S
C1807 C1808 1.524 . S
C1807 C1811 1.400 . S
C1808 H1793 0.960 . S
C1808 H1794 0.960 . S
C1808 H1795 0.960 . S
C1808 C1807 1.524 . S
C1809 C1806 1.403 . S
C1809 C1810 1.392 . S
C1809 C1813 1.495 . S
C1810 C1809 1.392 . S
C1810 C1811 1.385 . S
C1810 C1812 1.478 . S
C1811 H1805 0.930 . S
C1811 C1807 1.400 . S
C1811 C1810 1.385 . S
C1812 C1810 1.478 . S
C1812 C1814 1.381 . S
C1812 C1818 1.383 1_455 S
C1813 C1809 1.495 . S
C1813 H1819 0.959 . S
C1813 H1820 0.961 . S
C1813 H1821 0.960 . S
C1814 C1812 1.381 . S
C1814 C1815 1.394 . S
C1814 H1822 0.930 . S
C1815 C1814 1.394 . S
C1815 C1816 1.383 . S
C1815 H1823 0.929 . S
C1816 C1815 1.383 . S
C1816 C1817 1.377 1_455 S
C1817 H1801 0.930 . S
C1817 C1816 1.377 1_655 S
C1817 C1818 1.379 . S
C1818 H1802 0.931 . S
C1818 C1812 1.383 1_655 S
C1818 C1817 1.379 . S
H1819 C1813 0.959 . S
H1820 C1813 0.961 . S
H1821 C1813 0.960 . S
H1822 C1814 0.930 . S
H1823 C1815 0.929 . S
H1824 C1832 0.929 . S
H1825 C1834 0.930 . S
H1826 C1836 0.930 . S
H1827 C1839 0.929 . S
H1828 C1842 0.930 1_565 S
H1829 C1844 0.960 . S
H1830 C1844 0.960 . S
H1831 C1844 0.960 . S
C1832 H1824 0.929 . S
C1832 C1833 1.377 . S
C1832 C1834 1.384 . S
C1833 C1832 1.377 . S
C1833 C1839 1.390 1_545 S
C1834 H1825 0.930 . S
C1834 C1832 1.384 . S
C1834 C1835 1.372 . S
C1835 C1834 1.372 . S
C1835 C1836 1.400 1_545 S
C1835 C1840 1.490 . S
C1836 H1826 0.930 . S
C1836 C1835 1.400 1_565 S
C1836 C1839 1.386 . S
H1837 C1853 0.930 . S
H1838 C1854 0.931 . S
C1839 H1827 0.929 . S
C1839 C1833 1.390 1_565 S
C1839 C1836 1.386 . S
C1840 C1835 1.490 . S
C1840 C1842 1.395 . S
C1840 C1843 1.403 . S
H1841 C1847 0.930 . S
C1842 H1828 0.930 1_545 S
C1842 C1840 1.395 . S
C1842 C1845 1.403 . S
C1843 C1840 1.403 . S
C1843 C1844 1.524 . S
C1843 C1847 1.400 . S
C1844 H1829 0.960 . S
C1844 H1830 0.960 . S
C1844 H1831 0.960 . S
C1844 C1843 1.524 . S
C1845 C1842 1.403 . S
C1845 C1846 1.392 . S
C1845 C1849 1.495 1_545 S
C1846 C1845 1.392 . S
C1846 C1847 1.385 . S
C1846 C1848 1.478 . S
C1847 H1841 0.930 . S
C1847 C1843 1.400 . S
C1847 C1846 1.385 . S
C1848 C1846 1.478 . S
C1848 C1850 1.381 . S
C1848 C1854 1.383 1_545 S
C1849 C1845 1.495 1_565 S
C1849 H1855 0.959 . S
C1849 H1856 0.961 . S
C1849 H1857 0.960 1_565 S
C1850 C1848 1.381 . S
C1850 C1851 1.394 . S
C1850 H1858 0.930 . S
C1851 C1850 1.394 . S
C1851 C1852 1.383 . S
C1851 H1859 0.929 . S
C1852 C1851 1.383 . S
C1852 C1853 1.377 1_545 S
C1853 H1837 0.930 . S
C1853 C1852 1.377 1_565 S
C1853 C1854 1.379 . S
C1854 H1838 0.931 . S
C1854 C1848 1.383 1_565 S
C1854 C1853 1.379 . S
H1855 C1849 0.959 . S
H1856 C1849 0.961 . S
H1857 C1849 0.960 1_545 S
H1858 C1850 0.930 . S
H1859 C1851 0.929 . S
H1860 C1868 0.929 . S
H1861 C1870 0.930 . S
H1862 C1872 0.930 1_655 S
H1863 C1875 0.929 1_655 S
H1864 C1878 0.930 . S
H1865 C1880 0.960 . S
H1866 C1880 0.960 . S
H1867 C1880 0.960 1_655 S
C1868 H1860 0.929 . S
C1868 C1869 1.377 . S
C1868 C1870 1.384 . S
C1869 C1868 1.377 . S
C1869 C1875 1.390 . S
C1870 H1861 0.930 . S
C1870 C1868 1.384 . S
C1870 C1871 1.372 . S
C1871 C1870 1.372 . S
C1871 C1872 1.400 . S
C1871 C1876 1.490 . S
C1872 H1862 0.930 1_455 S
C1872 C1871 1.400 . S
C1872 C1875 1.386 . S
H1873 C1889 0.930 1_655 S
H1874 C1890 0.931 1_655 S
C1875 H1863 0.929 1_455 S
C1875 C1869 1.390 . S
C1875 C1872 1.386 . S
C1876 C1871 1.490 . S
C1876 C1878 1.395 . S
C1876 C1879 1.403 . S
H1877 C1883 0.930 . S
C1878 H1864 0.930 . S
C1878 C1876 1.395 . S
C1878 C1881 1.403 . S
C1879 C1876 1.403 . S
C1879 C1880 1.524 . S
C1879 C1883 1.400 . S
C1880 H1865 0.960 . S
C1880 H1866 0.960 . S
C1880 H1867 0.960 1_455 S
C1880 C1879 1.524 . S
C1881 C1878 1.403 . S
C1881 C1882 1.392 . S
C1881 C1885 1.495 . S
C1882 C1881 1.392 . S
C1882 C1883 1.385 . S
C1882 C1884 1.478 . S
C1883 H1877 0.930 . S
C1883 C1879 1.400 . S
C1883 C1882 1.385 . S
C1884 C1882 1.478 . S
C1884 C1886 1.381 . S
C1884 C1890 1.383 . S
C1885 C1881 1.495 . S
C1885 H1891 0.959 . S
C1885 H1892 0.961 . S
C1885 H1893 0.960 . S
C1886 C1884 1.381 . S
C1886 C1887 1.394 . S
C1886 H1894 0.930 . S
C1887 C1886 1.394 . S
C1887 C1888 1.383 . S
C1887 H1895 0.929 . S
C1888 C1887 1.383 . S
C1888 C1889 1.377 . S
C1889 H1873 0.930 1_455 S
C1889 C1888 1.377 . S
C1889 C1890 1.379 . S
C1890 H1874 0.931 1_455 S
C1890 C1884 1.383 . S
C1890 C1889 1.379 . S
H1891 C1885 0.959 . S
H1892 C1885 0.961 . S
H1893 C1885 0.960 . S
H1894 C1886 0.930 . S
H1895 C1887 0.929 . S
H1896 C1904 0.929 . S
H1897 C1906 0.930 . S
H1898 C1908 0.930 . S
H1899 C1911 0.929 . S
H1900 C1914 0.930 . S
H1901 C1916 0.960 . S
H1902 C1916 0.960 . S
H1903 C1916 0.960 . S
C1904 H1896 0.929 . S
C1904 C1905 1.377 . S
C1904 C1906 1.384 . S
C1905 C1904 1.377 . S
C1905 C1911 1.390 . S
C1906 H1897 0.930 . S
C1906 C1904 1.384 . S
C1906 C1907 1.372 . S
C1907 C1906 1.372 . S
C1907 C1908 1.400 . S
C1907 C1912 1.490 . S
C1908 H1898 0.930 . S
C1908 C1907 1.400 . S
C1908 C1911 1.386 . S
H1909 C1925 0.930 1_565 S
H1910 C1926 0.931 1_565 S
C1911 H1899 0.929 . S
C1911 C1905 1.390 . S
C1911 C1908 1.386 . S
C1912 C1907 1.490 . S
C1912 C1914 1.395 . S
C1912 C1915 1.403 . S
H1913 C1919 0.930 . S
C1914 H1900 0.930 . S
C1914 C1912 1.395 . S
C1914 C1917 1.403 . S
C1915 C1912 1.403 . S
C1915 C1916 1.524 . S
C1915 C1919 1.400 . S
C1916 H1901 0.960 . S
C1916 H1902 0.960 . S
C1916 H1903 0.960 . S
C1916 C1915 1.524 . S
C1917 C1914 1.403 . S
C1917 C1918 1.392 . S
C1917 C1921 1.495 . S
C1918 C1917 1.392 . S
C1918 C1919 1.385 . S
C1918 C1920 1.478 . S
C1919 H1913 0.930 . S
C1919 C1915 1.400 . S
C1919 C1918 1.385 . S
C1920 C1918 1.478 . S
C1920 C1922 1.381 . S
C1920 C1926 1.383 . S
C1921 C1917 1.495 . S
C1921 H1927 0.959 . S
C1921 H1928 0.961 . S
C1921 H1929 0.960 . S
C1922 C1920 1.381 . S
C1922 C1923 1.394 . S
C1922 H1930 0.930 . S
C1923 C1922 1.394 . S
C1923 C1924 1.383 . S
C1923 H1931 0.929 . S
C1924 C1923 1.383 . S
C1924 C1925 1.377 . S
C1925 H1909 0.930 1_545 S
C1925 C1924 1.377 . S
C1925 C1926 1.379 . S
C1926 H1910 0.931 1_545 S
C1926 C1920 1.383 . S
C1926 C1925 1.379 . S
H1927 C1921 0.959 . S
H1928 C1921 0.961 . S
H1929 C1921 0.960 . S
H1930 C1922 0.930 . S
H1931 C1923 0.929 . S
H1932 C1940 0.929 . S
H1933 C1942 0.930 . S
H1934 C1944 0.930 . S
H1935 C1947 0.929 . S
H1936 C1950 0.930 . S
H1937 C1952 0.960 . S
H1938 C1952 0.960 1_655 S
H1939 C1952 0.960 . S
C1940 H1932 0.929 . S
C1940 C1941 1.377 1_655 S
C1940 C1942 1.384 . S
C1941 C1940 1.377 1_455 S
C1941 C1947 1.390 . S
C1942 H1933 0.930 . S
C1942 C1940 1.384 . S
C1942 C1943 1.372 1_655 S
C1943 C1942 1.372 1_455 S
C1943 C1944 1.400 . S
C1943 C1948 1.490 . S
C1944 H1934 0.930 . S
C1944 C1943 1.400 . S
C1944 C1947 1.386 . S
H1945 C1961 0.930 . S
H1946 C1962 0.931 . S
C1947 H1935 0.929 . S
C1947 C1941 1.390 . S
C1947 C1944 1.386 . S
C1948 C1943 1.490 . S
C1948 C1950 1.395 . S
C1948 C1951 1.403 . S
H1949 C1955 0.930 . S
C1950 H1936 0.930 . S
C1950 C1948 1.395 . S
C1950 C1953 1.403 . S
C1951 C1948 1.403 . S
C1951 C1952 1.524 . S
C1951 C1955 1.400 . S
C1952 H1937 0.960 . S
C1952 H1938 0.960 1_455 S
C1952 H1939 0.960 . S
C1952 C1951 1.524 . S
C1953 C1950 1.403 . S
C1953 C1954 1.392 . S
C1953 C1957 1.495 . S
C1954 C1953 1.392 . S
C1954 C1955 1.385 . S
C1954 C1956 1.478 . S
C1955 H1949 0.930 . S
C1955 C1951 1.400 . S
C1955 C1954 1.385 . S
C1956 C1954 1.478 . S
C1956 C1958 1.381 1_455 S
C1956 C1962 1.383 . S
C1957 C1953 1.495 . S
C1957 H1963 0.959 . S
C1957 H1964 0.961 . S
C1957 H1965 0.960 1_455 S
C1958 C1956 1.381 1_655 S
C1958 C1959 1.392 1_655 S
C1958 H1966 0.930 . S
C1959 C1958 1.392 1_455 S
C1959 C1960 1.410 . S
C1959 H1967 0.905 1_455 S
C1960 C1959 1.410 . S
C1960 C1961 1.377 . S
C1961 H1945 0.930 . S
C1961 C1960 1.377 . S
C1961 C1962 1.379 . S
C1962 H1946 0.931 . S
C1962 C1956 1.383 . S
C1962 C1961 1.379 . S
H1963 C1957 0.959 . S
H1964 C1957 0.961 . S
H1965 C1957 0.960 1_655 S
H1966 C1958 0.930 . S
H1967 C1959 0.905 1_655 S
H1968 C1976 0.929 . S
H1969 C1978 0.930 . S
H1970 C1980 0.930 . S
H1971 C1983 0.929 . S
H1972 C1986 0.930 1_556 S
H1973 C1988 0.960 . S
H1974 C1988 0.960 . S
H1975 C1988 0.960 . S
C1976 H1968 0.929 . S
C1976 C1977 1.377 1_556 S
C1976 C1978 1.384 . S
C1977 C1976 1.377 1_554 S
C1977 C1983 1.390 . S
C1978 H1969 0.930 . S
C1978 C1976 1.384 . S
C1978 C1979 1.372 1_556 S
C1979 C1978 1.372 1_554 S
C1979 C1980 1.400 . S
C1979 C1984 1.490 . S
C1980 H1970 0.930 . S
C1980 C1979 1.400 . S
C1980 C1983 1.386 . S
H1981 C1997 0.930 . S
H1982 C1998 0.931 . S
C1983 H1971 0.929 . S
C1983 C1977 1.390 . S
C1983 C1980 1.386 . S
C1984 C1979 1.490 . S
C1984 C1986 1.395 . S
C1984 C1987 1.403 . S
H1985 C1991 0.930 . S
C1986 H1972 0.930 1_554 S
C1986 C1984 1.395 . S
C1986 C1989 1.407 . S
C1987 C1984 1.403 . S
C1987 C1988 1.524 . S
C1987 C1991 1.400 . S
C1988 H1973 0.960 . S
C1988 H1974 0.960 . S
C1988 H1975 0.960 . S
C1988 C1987 1.524 . S
C1989 C1986 1.407 . S
C1989 C1990 1.417 . S
C1989 C1993 1.470 1_554 S
C1990 C1989 1.417 . S
C1990 C1991 1.385 . S
C1990 C1992 1.478 . S
C1991 H1985 0.930 . S
C1991 C1987 1.400 . S
C1991 C1990 1.385 . S
C1992 C1990 1.478 . S
C1992 C1994 1.381 1_554 S
C1992 C1998 1.383 . S
C1993 C1989 1.470 1_556 S
C1993 H1999 0.959 . S
C1993 H2000 0.961 . S
C1993 H2001 0.960 . S
C1994 C1992 1.381 1_556 S
C1994 C1995 1.394 . S
C1994 H2002 0.930 . S
C1995 C1994 1.394 . S
C1995 C1996 1.383 1_556 S
C1995 H2003 0.929 . S
C1996 C1995 1.383 1_554 S
C1996 C1997 1.377 . S
C1997 H1981 0.930 . S
C1997 C1996 1.377 . S
C1997 C1998 1.379 . S
C1998 H1982 0.931 . S
C1998 C1992 1.383 . S
C1998 C1997 1.379 . S
H1999 C1993 0.959 . S
H2000 C1993 0.961 . S
H2001 C1993 0.960 . S
H2002 C1994 0.930 . S
H2003 C1995 0.929 . S
H2004 C2012 0.929 . S
H2005 C2014 0.930 . S
H2006 C2016 0.929 . S
H2007 C2019 0.936 . S
H2008 C2022 0.930 . S
H2009 C2024 0.960 . S
H2010 C2024 0.960 . S
H2011 C2024 0.960 . S
C2012 H2004 0.929 . S
C2012 C2013 1.377 . S
C2012 C2014 1.384 . S
C2013 C2012 1.377 . S
C2013 C2019 1.383 1_554 S
C2014 H2005 0.930 . S
C2014 C2012 1.384 . S
C2014 C2015 1.372 . S
C2015 C2014 1.372 . S
C2015 C2016 1.401 1_554 S
C2015 C2020 1.490 . S
C2016 H2006 0.929 . S
C2016 C2015 1.401 1_556 S
C2016 C2019 1.386 . S
H2017 C2033 0.930 1_556 S
H2018 C2034 0.931 1_556 S
C2019 H2007 0.936 . S
C2019 C2013 1.383 1_556 S
C2019 C2016 1.386 . S
C2020 C2015 1.490 . S
C2020 C2022 1.395 . S
C2020 C2023 1.403 1_554 S
H2021 C2027 0.956 . S
C2022 H2008 0.930 . S
C2022 C2020 1.395 . S
C2022 C2025 1.403 . S
C2023 C2020 1.403 1_556 S
C2023 C2024 1.524 . S
C2023 C2027 1.403 . S
C2024 H2009 0.960 . S
C2024 H2010 0.960 . S
C2024 H2011 0.960 . S
C2024 C2023 1.524 . S
C2025 C2022 1.403 . S
C2025 C2026 1.392 . S
C2025 C2029 1.495 . S
C2026 C2025 1.392 . S
C2026 C2027 1.358 1_554 S
C2026 C2028 1.478 . S
C2027 H2021 0.956 . S
C2027 C2023 1.403 . S
C2027 C2026 1.358 1_556 S
C2028 C2026 1.478 . S
C2028 C2030 1.381 . S
C2028 C2034 1.383 . S
C2029 C2025 1.495 . S
C2029 H2035 0.959 . S
C2029 H2036 0.961 . S
C2029 H2037 0.960 . S
C2030 C2028 1.381 . S
C2030 C2031 1.394 . S
C2030 H2038 0.930 . S
C2031 C2030 1.394 . S
C2031 C2032 1.383 . S
C2031 H2039 0.929 . S
C2032 C2031 1.383 . S
C2032 C2033 1.377 . S
C2033 H2017 0.930 1_554 S
C2033 C2032 1.377 . S
C2033 C2034 1.379 . S
C2034 H2018 0.931 1_554 S
C2034 C2028 1.383 . S
C2034 C2033 1.379 . S
H2035 C2029 0.959 . S
H2036 C2029 0.961 . S
H2037 C2029 0.960 . S
H2038 C2030 0.930 . S
H2039 C2031 0.929 . S
H2040 C2048 0.929 1_556 S
H2041 C2050 0.930 1_556 S
H2042 C2052 0.930 . S
H2043 C2055 0.929 . S
H2044 C2058 0.930 . S
H2045 C2060 0.956 1_556 S
H2046 C2060 0.941 1_556 S
H2047 C2060 0.978 . S
C2048 H2040 0.929 1_554 S
C2048 C2049 1.377 . S
C2048 C2050 1.384 . S
C2049 C2048 1.377 . S
C2049 C2055 1.390 . S
C2050 H2041 0.930 1_554 S
C2050 C2048 1.384 . S
C2050 C2051 1.372 . S
C2051 C2050 1.372 . S
C2051 C2052 1.400 . S
C2051 C2056 1.490 . S
C2052 H2042 0.930 . S
C2052 C2051 1.400 . S
C2052 C2055 1.386 . S
H2053 C2069 0.930 . S
H2054 C2070 0.931 . S
C2055 H2043 0.929 . S
C2055 C2049 1.390 . S
C2055 C2052 1.386 . S
C2056 C2051 1.490 . S
C2056 C2058 1.395 . S
C2056 C2059 1.403 . S
H2057 C2063 0.930 . S
C2058 H2044 0.930 . S
C2058 C2056 1.395 . S
C2058 C2061 1.403 . S
C2059 C2056 1.403 . S
C2059 C2060 1.530 . S
C2059 C2063 1.400 . S
C2060 H2045 0.956 1_554 S
C2060 H2046 0.941 1_554 S
C2060 H2047 0.978 . S
C2060 C2059 1.530 . S
C2061 C2058 1.403 . S
C2061 C2062 1.392 . S
C2061 C2065 1.495 . S
C2062 C2061 1.392 . S
C2062 C2063 1.385 . S
C2062 C2064 1.478 . S
C2063 H2057 0.930 . S
C2063 C2059 1.400 . S
C2063 C2062 1.385 . S
C2064 C2062 1.478 . S
C2064 C2066 1.381 1_554 S
C2064 C2070 1.383 . S
C2065 C2061 1.495 . S
C2065 H2071 0.959 . S
C2065 H2072 0.961 . S
C2065 H2073 0.960 . S
C2066 C2064 1.381 1_556 S
C2066 C2067 1.394 . S
C2066 H2074 0.930 . S
C2067 C2066 1.394 . S
C2067 C2068 1.383 1_556 S
C2067 H2075 0.929 . S
C2068 C2067 1.383 1_554 S
C2068 C2069 1.377 . S
C2069 H2053 0.930 . S
C2069 C2068 1.377 . S
C2069 C2070 1.379 . S
C2070 H2054 0.931 . S
C2070 C2064 1.383 . S
C2070 C2069 1.379 . S
H2071 C2065 0.959 . S
H2072 C2065 0.961 . S
H2073 C2065 0.960 . S
H2074 C2066 0.930 . S
H2075 C2067 0.929 . S
H2076 C2084 0.929 . S
H2077 C2086 0.930 . S
H2078 C2088 0.930 . S
H2079 C2091 0.929 . S
H2080 C2094 0.930 . S
H2081 C2096 0.960 . S
H2082 C2096 0.960 . S
H2083 C2096 0.960 . S
C2084 H2076 0.929 . S
C2084 C2085 1.377 . S
C2084 C2086 1.384 . S
C2085 C2084 1.377 . S
C2085 C2091 1.390 1_554 S
C2086 H2077 0.930 . S
C2086 C2084 1.384 . S
C2086 C2087 1.372 . S
C2087 C2086 1.372 . S
C2087 C2088 1.400 1_554 S
C2087 C2092 1.490 . S
C2088 H2078 0.930 . S
C2088 C2087 1.400 1_556 S
C2088 C2091 1.386 . S
H2089 C2105 0.936 . S
H2090 C2106 0.931 . S
C2091 H2079 0.929 . S
C2091 C2085 1.390 1_556 S
C2091 C2088 1.386 . S
C2092 C2087 1.490 . S
C2092 C2094 1.395 . S
C2092 C2095 1.403 1_554 S
H2093 C2099 0.930 . S
C2094 H2080 0.930 . S
C2094 C2092 1.395 . S
C2094 C2097 1.403 . S
C2095 C2092 1.403 1_556 S
C2095 C2096 1.524 . S
C2095 C2099 1.400 . S
C2096 H2081 0.960 . S
C2096 H2082 0.960 . S
C2096 H2083 0.960 . S
C2096 C2095 1.524 . S
C2097 C2094 1.403 . S
C2097 C2098 1.392 . S
C2097 C2101 1.495 . S
C2098 C2097 1.392 . S
C2098 C2099 1.385 1_554 S
C2098 C2100 1.478 . S
C2099 H2093 0.930 . S
C2099 C2095 1.400 . S
C2099 C2098 1.385 1_556 S
C2100 C2098 1.478 . S
C2100 C2102 1.381 . S
C2100 C2106 1.383 . S
C2101 C2097 1.495 . S
C2101 H2107 0.959 . S
C2101 H2108 0.961 . S
C2101 H2109 0.960 . S
C2102 C2100 1.381 . S
C2102 C2103 1.394 . S
C2102 H2110 0.930 . S
C2103 C2102 1.394 . S
C2103 C2104 1.383 . S
C2103 H2111 0.929 . S
C2104 C2103 1.383 . S
C2104 C2105 1.377 . S
C2105 H2089 0.936 . S
C2105 C2104 1.377 . S
C2105 C2106 1.379 . S
C2106 H2090 0.931 . S
C2106 C2100 1.383 . S
C2106 C2105 1.379 . S
H2107 C2101 0.959 . S
H2108 C2101 0.961 . S
H2109 C2101 0.960 . S
H2110 C2102 0.930 . S
H2111 C2103 0.929 . S
H2112 C2120 0.929 . S
H2113 C2122 0.930 . S
H2114 C2124 0.930 . S
H2115 C2127 0.929 . S
H2116 C2130 0.930 . S
H2117 C2132 0.960 . S
H2118 C2132 0.960 . S
H2119 C2132 0.960 . S
C2120 H2112 0.929 . S
C2120 C2121 1.377 1_556 S
C2120 C2122 1.384 . S
C2121 C2120 1.377 1_554 S
C2121 C2127 1.390 . S
C2122 H2113 0.930 . S
C2122 C2120 1.384 . S
C2122 C2123 1.372 1_556 S
C2123 C2122 1.372 1_554 S
C2123 C2124 1.400 . S
C2123 C2128 1.490 . S
C2124 H2114 0.930 . S
C2124 C2123 1.400 . S
C2124 C2127 1.386 . S
H2125 C2141 0.930 . S
H2126 C2142 0.931 . S
C2127 H2115 0.929 . S
C2127 C2121 1.390 . S
C2127 C2124 1.386 . S
C2128 C2123 1.490 . S
C2128 C2130 1.395 . S
C2128 C2131 1.403 1_554 S
H2129 C2135 0.930 . S
C2130 H2116 0.930 . S
C2130 C2128 1.395 . S
C2130 C2133 1.403 . S
C2131 C2128 1.403 1_556 S
C2131 C2132 1.524 . S
C2131 C2135 1.400 . S
C2132 H2117 0.960 . S
C2132 H2118 0.960 . S
C2132 H2119 0.960 . S
C2132 C2131 1.524 . S
C2133 C2130 1.403 . S
C2133 C2134 1.392 . S
C2133 C2137 1.495 . S
C2134 C2133 1.392 . S
C2134 C2135 1.385 1_554 S
C2134 C2136 1.478 . S
C2135 H2129 0.930 . S
C2135 C2131 1.400 . S
C2135 C2134 1.385 1_556 S
C2136 C2134 1.478 . S
C2136 C2138 1.390 . S
C2136 C2142 1.383 . S
C2137 C2133 1.495 . S
C2137 H2143 0.959 . S
C2137 H2144 0.961 . S
C2137 H2145 0.960 . S
C2138 C2136 1.390 . S
C2138 C2139 1.394 1_554 S
C2138 H2146 0.922 1_554 S
C2139 C2138 1.394 1_556 S
C2139 C2140 1.383 1_556 S
C2139 H2147 0.929 . S
C2140 C2139 1.383 1_554 S
C2140 C2141 1.377 . S
C2141 H2125 0.930 . S
C2141 C2140 1.377 . S
C2141 C2142 1.379 . S
C2142 H2126 0.931 . S
C2142 C2136 1.383 . S
C2142 C2141 1.379 . S
H2143 C2137 0.959 . S
H2144 C2137 0.961 . S
H2145 C2137 0.960 . S
H2146 C2138 0.922 1_556 S
H2147 C2139 0.929 . S
H2148 C2156 0.929 . S
H2149 C2158 0.930 . S
H2150 C2160 0.930 . S
H2151 C2163 0.929 . S
H2152 C2166 0.925 1_556 S
H2153 C2168 0.960 . S
H2154 C2168 0.960 . S
H2155 C2168 0.960 . S
C2156 H2148 0.929 . S
C2156 C2157 1.377 . S
C2156 C2158 1.384 . S
C2157 C2156 1.377 . S
C2157 C2163 1.390 1_554 S
C2158 H2149 0.930 . S
C2158 C2156 1.384 . S
C2158 C2159 1.372 . S
C2159 C2158 1.372 . S
C2159 C2160 1.400 1_554 S
C2159 C2164 1.490 . S
C2160 H2150 0.930 . S
C2160 C2159 1.400 1_556 S
C2160 C2163 1.386 . S
H2161 C2177 0.930 . S
H2162 C2178 0.931 . S
C2163 H2151 0.929 . S
C2163 C2157 1.390 1_556 S
C2163 C2160 1.386 . S
C2164 C2159 1.490 . S
C2164 C2166 1.401 . S
C2164 C2167 1.403 . S
H2165 C2171 0.930 . S
C2166 H2152 0.925 1_554 S
C2166 C2164 1.401 . S
C2166 C2169 1.403 1_554 S
C2167 C2164 1.403 . S
C2167 C2168 1.524 . S
C2167 C2171 1.400 . S
C2168 H2153 0.960 . S
C2168 H2154 0.960 . S
C2168 H2155 0.960 . S
C2168 C2167 1.524 . S
C2169 C2166 1.403 1_556 S
C2169 C2170 1.393 1_556 S
C2169 C2173 1.494 . S
C2170 C2169 1.393 1_554 S
C2170 C2171 1.385 . S
C2170 C2172 1.478 . S
C2171 H2165 0.930 . S
C2171 C2167 1.400 . S
C2171 C2170 1.385 . S
C2172 C2170 1.478 . S
C2172 C2174 1.381 . S
C2172 C2178 1.383 1_554 S
C2173 C2169 1.494 . S
C2173 H2179 0.959 . S
C2173 H2180 0.961 . S
C2173 H2181 0.960 1_556 S
C2174 C2172 1.381 . S
C2174 C2175 1.394 . S
C2174 H2182 0.930 . S
C2175 C2174 1.394 . S
C2175 C2176 1.383 . S
C2175 H2183 0.929 . S
C2176 C2175 1.383 . S
C2176 C2177 1.377 1_554 S
C2177 H2161 0.930 . S
C2177 C2176 1.377 1_556 S
C2177 C2178 1.379 . S
C2178 H2162 0.931 . S
C2178 C2172 1.383 1_556 S
C2178 C2177 1.379 . S
H2179 C2173 0.959 . S
H2180 C2173 0.961 . S
H2181 C2173 0.960 1_554 S
H2182 C2174 0.930 . S
H2183 C2175 0.929 . S
H2184 C2192 0.929 . S
H2185 C2194 0.930 . S
H2186 C2196 0.930 . S
H2187 C2199 0.929 . S
H2188 C2202 0.930 . S
H2189 C2204 0.960 . S
H2190 C2204 0.960 . S
H2191 C2204 0.960 . S
C2192 H2184 0.929 . S
C2192 C2193 1.377 1_556 S
C2192 C2194 1.384 . S
C2193 C2192 1.377 1_554 S
C2193 C2199 1.390 . S
C2194 H2185 0.930 . S
C2194 C2192 1.384 . S
C2194 C2195 1.372 1_556 S
C2195 C2194 1.372 1_554 S
C2195 C2196 1.400 . S
C2195 C2200 1.490 . S
C2196 H2186 0.930 . S
C2196 C2195 1.400 . S
C2196 C2199 1.386 . S
H2197 C2213 0.930 . S
H2198 C2214 0.931 . S
C2199 H2187 0.929 . S
C2199 C2193 1.390 . S
C2199 C2196 1.386 . S
C2200 C2195 1.490 . S
C2200 C2202 1.395 1_554 S
C2200 C2203 1.403 . S
H2201 C2207 0.930 . S
C2202 H2188 0.930 . S
C2202 C2200 1.395 1_556 S
C2202 C2205 1.403 . S
C2203 C2200 1.403 . S
C2203 C2204 1.524 . S
C2203 C2207 1.400 . S
C2204 H2189 0.960 . S
C2204 H2190 0.960 . S
C2204 H2191 0.960 . S
C2204 C2203 1.524 . S
C2205 C2202 1.403 . S
C2205 C2206 1.392 1_556 S
C2205 C2209 1.495 . S
C2206 C2205 1.392 1_554 S
C2206 C2207 1.385 . S
C2206 C2208 1.478 . S
C2207 H2201 0.930 . S
C2207 C2203 1.400 . S
C2207 C2206 1.385 . S
C2208 C2206 1.478 . S
C2208 C2210 1.381 1_554 S
C2208 C2214 1.383 . S
C2209 C2205 1.495 . S
C2209 H2215 0.959 . S
C2209 H2216 0.961 . S
C2209 H2217 0.960 . S
C2210 C2208 1.381 1_556 S
C2210 C2211 1.394 . S
C2210 H2218 0.930 . S
C2211 C2210 1.394 . S
C2211 C2212 1.383 1_556 S
C2211 H2219 0.929 . S
C2212 C2211 1.383 1_554 S
C2212 C2213 1.377 . S
C2213 H2197 0.930 . S
C2213 C2212 1.377 . S
C2213 C2214 1.379 . S
C2214 H2198 0.931 . S
C2214 C2208 1.383 . S
C2214 C2213 1.379 . S
H2215 C2209 0.959 . S
H2216 C2209 0.961 . S
H2217 C2209 0.960 . S
H2218 C2210 0.930 . S
H2219 C2211 0.929 . S
H2220 C2228 0.929 . S
H2221 C2230 0.930 . S
H2222 C2232 0.930 . S
H2223 C2235 0.929 . S
H2224 C2238 0.921 1_556 S
H2225 C2240 0.960 . S
H2226 C2240 0.960 . S
H2227 C2240 0.960 . S
C2228 H2220 0.929 . S
C2228 C2229 1.377 . S
C2228 C2230 1.384 . S
C2229 C2228 1.377 . S
C2229 C2235 1.390 1_554 S
C2230 H2221 0.930 . S
C2230 C2228 1.384 . S
C2230 C2231 1.372 . S
C2231 C2230 1.372 . S
C2231 C2232 1.400 1_554 S
C2231 C2236 1.490 . S
C2232 H2222 0.930 . S
C2232 C2231 1.400 1_556 S
C2232 C2235 1.386 . S
H2233 C2249 0.930 . S
H2234 C2250 0.931 . S
C2235 H2223 0.929 . S
C2235 C2229 1.390 1_556 S
C2235 C2232 1.386 . S
C2236 C2231 1.490 . S
C2236 C2238 1.405 . S
C2236 C2239 1.403 . S
H2237 C2243 0.930 . S
C2238 H2224 0.921 1_554 S
C2238 C2236 1.405 . S
C2238 C2241 1.403 . S
C2239 C2236 1.403 . S
C2239 C2240 1.524 . S
C2239 C2243 1.400 . S
C2240 H2225 0.960 . S
C2240 H2226 0.960 . S
C2240 H2227 0.960 . S
C2240 C2239 1.524 . S
C2241 C2238 1.403 . S
C2241 C2242 1.402 . S
C2241 C2245 1.486 1_554 S
C2242 C2241 1.402 . S
C2242 C2243 1.385 . S
C2242 C2244 1.478 . S
C2243 H2237 0.930 . S
C2243 C2239 1.400 . S
C2243 C2242 1.385 . S
C2244 C2242 1.478 . S
C2244 C2246 1.381 . S
C2244 C2250 1.383 1_554 S
C2245 C2241 1.486 1_556 S
C2245 H2251 0.959 . S
C2245 H2252 0.961 . S
C2245 H2253 0.960 1_556 S
C2246 C2244 1.381 . S
C2246 C2247 1.394 . S
C2246 H2254 0.930 . S
C2247 C2246 1.394 . S
C2247 C2248 1.383 . S
C2247 H2255 0.929 . S
C2248 C2247 1.383 . S
C2248 C2249 1.377 1_554 S
C2249 H2233 0.930 . S
C2249 C2248 1.377 1_556 S
C2249 C2250 1.379 . S
C2250 H2234 0.931 . S
C2250 C2244 1.383 1_556 S
C2250 C2249 1.379 . S
H2251 C2245 0.959 . S
H2252 C2245 0.961 . S
H2253 C2245 0.960 1_554 S
H2254 C2246 0.930 . S
H2255 C2247 0.929 . S
H2256 C2264 0.929 . S
H2257 C2266 0.930 . S
H2258 C2268 0.930 . S
H2259 C2271 0.929 . S
H2260 C2274 0.930 . S
H2261 C2276 0.960 . S
H2262 C2276 0.960 . S
H2263 C2276 0.960 . S
C2264 H2256 0.929 . S
C2264 C2265 1.377 . S
C2264 C2266 1.384 . S
C2265 C2264 1.377 . S
C2265 C2271 1.390 . S
C2266 H2257 0.930 . S
C2266 C2264 1.384 . S
C2266 C2267 1.372 . S
C2267 C2266 1.372 . S
C2267 C2268 1.400 . S
C2267 C2272 1.490 . S
C2268 H2258 0.930 . S
C2268 C2267 1.400 . S
C2268 C2271 1.386 . S
H2269 C2285 0.930 . S
H2270 C2286 0.931 . S
C2271 H2259 0.929 . S
C2271 C2265 1.390 . S
C2271 C2268 1.386 . S
C2272 C2267 1.490 . S
C2272 C2274 1.395 . S
C2272 C2275 1.403 . S
H2273 C2279 0.930 . S
C2274 H2260 0.930 . S
C2274 C2272 1.395 . S
C2274 C2277 1.403 . S
C2275 C2272 1.403 . S
C2275 C2276 1.524 . S
C2275 C2279 1.400 . S
C2276 H2261 0.960 . S
C2276 H2262 0.960 . S
C2276 H2263 0.960 . S
C2276 C2275 1.524 . S
C2277 C2274 1.403 . S
C2277 C2278 1.392 . S
C2277 C2281 1.495 . S
C2278 C2277 1.392 . S
C2278 C2279 1.385 . S
C2278 C2280 1.478 . S
C2279 H2273 0.930 . S
C2279 C2275 1.400 . S
C2279 C2278 1.385 . S
C2280 C2278 1.478 . S
C2280 C2282 1.381 . S
C2280 C2286 1.383 . S
C2281 C2277 1.495 . S
C2281 H2287 0.959 . S
C2281 H2288 0.961 . S
C2281 H2289 0.960 . S
C2282 C2280 1.381 . S
C2282 C2283 1.394 . S
C2282 H2290 0.930 . S
C2283 C2282 1.394 . S
C2283 C2284 1.383 . S
C2283 H2291 0.929 . S
C2284 C2283 1.383 . S
C2284 C2285 1.377 . S
C2285 H2269 0.930 . S
C2285 C2284 1.377 . S
C2285 C2286 1.379 . S
C2286 H2270 0.931 . S
C2286 C2280 1.383 . S
C2286 C2285 1.379 . S
H2287 C2281 0.959 . S
H2288 C2281 0.961 . S
H2289 C2281 0.960 . S
H2290 C2282 0.930 . S
H2291 C2283 0.929 . S
H2292 C2300 0.929 . S
H2293 C2302 0.930 . S
H2294 C2304 0.930 . S
H2295 C2307 0.929 . S
H2296 C2310 0.930 . S
H2297 C2312 0.960 . S
H2298 C2312 0.960 . S
H2299 C2312 0.960 . S
C2300 H2292 0.929 . S
C2300 C2301 1.377 . S
C2300 C2302 1.384 . S
C2301 C2300 1.377 . S
C2301 C2307 1.390 . S
C2302 H2293 0.930 . S
C2302 C2300 1.384 . S
C2302 C2303 1.372 . S
C2303 C2302 1.372 . S
C2303 C2304 1.400 . S
C2303 C2308 1.490 . S
C2304 H2294 0.930 . S
C2304 C2303 1.400 . S
C2304 C2307 1.386 . S
H2305 C2321 0.930 . S
H2306 C2322 0.931 . S
C2307 H2295 0.929 . S
C2307 C2301 1.390 . S
C2307 C2304 1.386 . S
C2308 C2303 1.490 . S
C2308 C2310 1.395 . S
C2308 C2311 1.403 . S
H2309 C2315 0.930 . S
C2310 H2296 0.930 . S
C2310 C2308 1.395 . S
C2310 C2313 1.403 . S
C2311 C2308 1.403 . S
C2311 C2312 1.524 . S
C2311 C2315 1.400 . S
C2312 H2297 0.960 . S
C2312 H2298 0.960 . S
C2312 H2299 0.960 . S
C2312 C2311 1.524 . S
C2313 C2310 1.403 . S
C2313 C2314 1.392 . S
C2313 C2317 1.495 . S
C2314 C2313 1.392 . S
C2314 C2315 1.385 . S
C2314 C2316 1.478 . S
C2315 H2309 0.930 . S
C2315 C2311 1.400 . S
C2315 C2314 1.385 . S
C2316 C2314 1.478 . S
C2316 C2318 1.381 . S
C2316 C2322 1.383 . S
C2317 C2313 1.495 . S
C2317 H2323 0.959 . S
C2317 H2324 0.961 . S
C2317 H2325 0.960 . S
C2318 C2316 1.381 . S
C2318 C2319 1.394 . S
C2318 H2326 0.930 . S
C2319 C2318 1.394 . S
C2319 C2320 1.383 . S
C2319 H2327 0.929 . S
C2320 C2319 1.383 . S
C2320 C2321 1.377 . S
C2321 H2305 0.930 . S
C2321 C2320 1.377 . S
C2321 C2322 1.379 . S
C2322 H2306 0.931 . S
C2322 C2316 1.383 . S
C2322 C2321 1.379 . S
H2323 C2317 0.959 . S
H2324 C2317 0.961 . S
H2325 C2317 0.960 . S
H2326 C2318 0.930 . S
H2327 C2319 0.929 . S
H2328 C2336 0.929 . S
H2329 C2338 0.930 . S
H2330 C2340 0.930 . S
H2331 C2343 0.929 . S
H2332 C2346 0.930 . S
H2333 C2348 0.960 . S
H2334 C2348 0.960 . S
H2335 C2348 0.960 . S
C2336 H2328 0.929 . S
C2336 C2337 1.377 . S
C2336 C2338 1.384 . S
C2337 C2336 1.377 . S
C2337 C2343 1.390 . S
C2338 H2329 0.930 . S
C2338 C2336 1.384 . S
C2338 C2339 1.372 . S
C2339 C2338 1.372 . S
C2339 C2340 1.400 . S
C2339 C2344 1.490 . S
C2340 H2330 0.930 . S
C2340 C2339 1.400 . S
C2340 C2343 1.386 . S
H2341 C2357 0.930 . S
H2342 C2358 0.931 . S
C2343 H2331 0.929 . S
C2343 C2337 1.390 . S
C2343 C2340 1.386 . S
C2344 C2339 1.490 . S
C2344 C2346 1.395 . S
C2344 C2347 1.403 . S
H2345 C2351 0.930 . S
C2346 H2332 0.930 . S
C2346 C2344 1.395 . S
C2346 C2349 1.403 . S
C2347 C2344 1.403 . S
C2347 C2348 1.524 . S
C2347 C2351 1.400 . S
C2348 H2333 0.960 . S
C2348 H2334 0.960 . S
C2348 H2335 0.960 . S
C2348 C2347 1.524 . S
C2349 C2346 1.403 . S
C2349 C2350 1.392 . S
C2349 C2353 1.495 . S
C2350 C2349 1.392 . S
C2350 C2351 1.385 . S
C2350 C2352 1.478 . S
C2351 H2345 0.930 . S
C2351 C2347 1.400 . S
C2351 C2350 1.385 . S
C2352 C2350 1.478 . S
C2352 C2354 1.381 . S
C2352 C2358 1.383 . S
C2353 C2349 1.495 . S
C2353 H2359 0.959 . S
C2353 H2360 0.961 . S
C2353 H2361 0.960 . S
C2354 C2352 1.381 . S
C2354 C2355 1.394 . S
C2354 H2362 0.930 . S
C2355 C2354 1.394 . S
C2355 C2356 1.383 . S
C2355 H2363 0.929 . S
C2356 C2355 1.383 . S
C2356 C2357 1.377 . S
C2357 H2341 0.930 . S
C2357 C2356 1.377 . S
C2357 C2358 1.379 . S
C2358 H2342 0.931 . S
C2358 C2352 1.383 . S
C2358 C2357 1.379 . S
H2359 C2353 0.959 . S
H2360 C2353 0.961 . S
H2361 C2353 0.960 . S
H2362 C2354 0.930 . S
H2363 C2355 0.929 . S
H2364 C2372 0.929 . S
H2365 C2374 0.930 . S
H2366 C2376 0.930 . S
H2367 C2379 0.929 . S
H2368 C2382 0.930 . S
H2369 C2384 0.960 . S
H2370 C2384 0.960 . S
H2371 C2384 0.960 . S
C2372 H2364 0.929 . S
C2372 C2373 1.377 . S
C2372 C2374 1.384 . S
C2373 C2372 1.377 . S
C2373 C2379 1.390 . S
C2374 H2365 0.930 . S
C2374 C2372 1.384 . S
C2374 C2375 1.372 . S
C2375 C2374 1.372 . S
C2375 C2376 1.400 . S
C2375 C2380 1.490 . S
C2376 H2366 0.930 . S
C2376 C2375 1.400 . S
C2376 C2379 1.386 . S
H2377 C2393 0.930 . S
H2378 C2394 0.931 . S
C2379 H2367 0.929 . S
C2379 C2373 1.390 . S
C2379 C2376 1.386 . S
C2380 C2375 1.490 . S
C2380 C2382 1.395 . S
C2380 C2383 1.403 . S
H2381 C2387 0.930 . S
C2382 H2368 0.930 . S
C2382 C2380 1.395 . S
C2382 C2385 1.403 . S
C2383 C2380 1.403 . S
C2383 C2384 1.524 . S
C2383 C2387 1.400 . S
C2384 H2369 0.960 . S
C2384 H2370 0.960 . S
C2384 H2371 0.960 . S
C2384 C2383 1.524 . S
C2385 C2382 1.403 . S
C2385 C2386 1.392 . S
C2385 C2389 1.495 . S
C2386 C2385 1.392 . S
C2386 C2387 1.385 . S
C2386 C2388 1.478 . S
C2387 H2381 0.930 . S
C2387 C2383 1.400 . S
C2387 C2386 1.385 . S
C2388 C2386 1.478 . S
C2388 C2390 1.381 . S
C2388 C2394 1.383 . S
C2389 C2385 1.495 . S
C2389 H2395 0.959 . S
C2389 H2396 0.961 . S
C2389 H2397 0.960 . S
C2390 C2388 1.381 . S
C2390 C2391 1.394 . S
C2390 H2398 0.930 . S
C2391 C2390 1.394 . S
C2391 C2392 1.383 . S
C2391 H2399 0.929 . S
C2392 C2391 1.383 . S
C2392 C2393 1.377 . S
C2393 H2377 0.930 . S
C2393 C2392 1.377 . S
C2393 C2394 1.379 . S
C2394 H2378 0.931 . S
C2394 C2388 1.383 . S
C2394 C2393 1.379 . S
H2395 C2389 0.959 . S
H2396 C2389 0.961 . S
H2397 C2389 0.960 . S
H2398 C2390 0.930 . S
H2399 C2391 0.929 . S
H2400 C2408 0.929 . S
H2401 C2410 0.930 . S
H2402 C2412 0.930 . S
H2403 C2415 0.929 . S
H2404 C2418 0.930 . S
H2405 C2420 0.960 . S
H2406 C2420 0.960 . S
H2407 C2420 0.960 . S
C2408 H2400 0.929 . S
C2408 C2409 1.377 . S
C2408 C2410 1.384 . S
C2409 C2408 1.377 . S
C2409 C2415 1.390 . S
C2410 H2401 0.930 . S
C2410 C2408 1.384 . S
C2410 C2411 1.372 . S
C2411 C2410 1.372 . S
C2411 C2412 1.400 . S
C2411 C2416 1.490 . S
C2412 H2402 0.930 . S
C2412 C2411 1.400 . S
C2412 C2415 1.386 . S
H2413 C2429 0.930 . S
H2414 C2430 0.931 . S
C2415 H2403 0.929 . S
C2415 C2409 1.390 . S
C2415 C2412 1.386 . S
C2416 C2411 1.490 . S
C2416 C2418 1.395 . S
C2416 C2419 1.403 . S
H2417 C2423 0.930 . S
C2418 H2404 0.930 . S
C2418 C2416 1.395 . S
C2418 C2421 1.403 . S
C2419 C2416 1.403 . S
C2419 C2420 1.524 . S
C2419 C2423 1.400 . S
C2420 H2405 0.960 . S
C2420 H2406 0.960 . S
C2420 H2407 0.960 . S
C2420 C2419 1.524 . S
C2421 C2418 1.403 . S
C2421 C2422 1.392 . S
C2421 C2425 1.495 . S
C2422 C2421 1.392 . S
C2422 C2423 1.385 . S
C2422 C2424 1.478 . S
C2423 H2417 0.930 . S
C2423 C2419 1.400 . S
C2423 C2422 1.385 . S
C2424 C2422 1.478 . S
C2424 C2426 1.381 . S
C2424 C2430 1.383 . S
C2425 C2421 1.495 . S
C2425 H2431 0.959 . S
C2425 H2432 0.961 . S
C2425 H2433 0.960 . S
C2426 C2424 1.381 . S
C2426 C2427 1.394 . S
C2426 H2434 0.930 . S
C2427 C2426 1.394 . S
C2427 C2428 1.383 . S
C2427 H2435 0.929 . S
C2428 C2427 1.383 . S
C2428 C2429 1.377 . S
C2429 H2413 0.930 . S
C2429 C2428 1.377 . S
C2429 C2430 1.379 . S
C2430 H2414 0.931 . S
C2430 C2424 1.383 . S
C2430 C2429 1.379 . S
H2431 C2425 0.959 . S
H2432 C2425 0.961 . S
H2433 C2425 0.960 . S
H2434 C2426 0.930 . S
H2435 C2427 0.929 . S
H2436 C2444 0.929 . S
H2437 C2446 0.930 . S
H2438 C2448 0.930 . S
H2439 C2451 0.929 . S
H2440 C2454 0.930 . S
H2441 C2456 0.960 . S
H2442 C2456 0.960 . S
H2443 C2456 0.960 . S
C2444 H2436 0.929 . S
C2444 C2445 1.377 . S
C2444 C2446 1.384 . S
C2445 C2444 1.377 . S
C2445 C2451 1.390 . S
C2446 H2437 0.930 . S
C2446 C2444 1.384 . S
C2446 C2447 1.372 . S
C2447 C2446 1.372 . S
C2447 C2448 1.400 . S
C2447 C2452 1.490 . S
C2448 H2438 0.930 . S
C2448 C2447 1.400 . S
C2448 C2451 1.386 . S
H2449 C2465 0.930 . S
H2450 C2466 0.931 . S
C2451 H2439 0.929 . S
C2451 C2445 1.390 . S
C2451 C2448 1.386 . S
C2452 C2447 1.490 . S
C2452 C2454 1.395 . S
C2452 C2455 1.403 . S
H2453 C2459 0.930 . S
C2454 H2440 0.930 . S
C2454 C2452 1.395 . S
C2454 C2457 1.403 . S
C2455 C2452 1.403 . S
C2455 C2456 1.524 . S
C2455 C2459 1.400 . S
C2456 H2441 0.960 . S
C2456 H2442 0.960 . S
C2456 H2443 0.960 . S
C2456 C2455 1.524 . S
C2457 C2454 1.403 . S
C2457 C2458 1.392 . S
C2457 C2461 1.495 . S
C2458 C2457 1.392 . S
C2458 C2459 1.385 . S
C2458 C2460 1.478 . S
C2459 H2453 0.930 . S
C2459 C2455 1.400 . S
C2459 C2458 1.385 . S
C2460 C2458 1.478 . S
C2460 C2462 1.381 . S
C2460 C2466 1.383 . S
C2461 C2457 1.495 . S
C2461 H2467 0.959 . S
C2461 H2468 0.961 . S
C2461 H2469 0.960 . S
C2462 C2460 1.381 . S
C2462 C2463 1.394 . S
C2462 H2470 0.930 . S
C2463 C2462 1.394 . S
C2463 C2464 1.383 . S
C2463 H2471 0.929 . S
C2464 C2463 1.383 . S
C2464 C2465 1.377 . S
C2465 H2449 0.930 . S
C2465 C2464 1.377 . S
C2465 C2466 1.379 . S
C2466 H2450 0.931 . S
C2466 C2460 1.383 . S
C2466 C2465 1.379 . S
H2467 C2461 0.959 . S
H2468 C2461 0.961 . S
H2469 C2461 0.960 . S
H2470 C2462 0.930 . S
H2471 C2463 0.929 . S
H2472 C2480 0.929 . S
H2473 C2482 0.930 . S
H2474 C2484 0.930 . S
H2475 C2487 0.929 . S
H2476 C2490 0.930 . S
H2477 C2492 0.960 . S
H2478 C2492 0.960 . S
H2479 C2492 0.960 . S
C2480 H2472 0.929 . S
C2480 C2481 1.377 . S
C2480 C2482 1.384 . S
C2481 C2480 1.377 . S
C2481 C2487 1.390 . S
C2482 H2473 0.930 . S
C2482 C2480 1.384 . S
C2482 C2483 1.372 . S
C2483 C2482 1.372 . S
C2483 C2484 1.400 . S
C2483 C2488 1.490 . S
C2484 H2474 0.930 . S
C2484 C2483 1.400 . S
C2484 C2487 1.386 . S
H2485 C2501 0.930 . S
H2486 C2502 0.931 . S
C2487 H2475 0.929 . S
C2487 C2481 1.390 . S
C2487 C2484 1.386 . S
C2488 C2483 1.490 . S
C2488 C2490 1.395 . S
C2488 C2491 1.403 . S
H2489 C2495 0.930 . S
C2490 H2476 0.930 . S
C2490 C2488 1.395 . S
C2490 C2493 1.403 . S
C2491 C2488 1.403 . S
C2491 C2492 1.524 . S
C2491 C2495 1.400 . S
C2492 H2477 0.960 . S
C2492 H2478 0.960 . S
C2492 H2479 0.960 . S
C2492 C2491 1.524 . S
C2493 C2490 1.403 . S
C2493 C2494 1.392 . S
C2493 C2497 1.495 . S
C2494 C2493 1.392 . S
C2494 C2495 1.385 . S
C2494 C2496 1.478 . S
C2495 H2489 0.930 . S
C2495 C2491 1.400 . S
C2495 C2494 1.385 . S
C2496 C2494 1.478 . S
C2496 C2498 1.381 . S
C2496 C2502 1.383 . S
C2497 C2493 1.495 . S
C2497 H2503 0.959 . S
C2497 H2504 0.961 . S
C2497 H2505 0.960 . S
C2498 C2496 1.381 . S
C2498 C2499 1.394 . S
C2498 H2506 0.930 . S
C2499 C2498 1.394 . S
C2499 C2500 1.383 . S
C2499 H2507 0.929 . S
C2500 C2499 1.383 . S
C2500 C2501 1.377 . S
C2501 H2485 0.930 . S
C2501 C2500 1.377 . S
C2501 C2502 1.379 . S
C2502 H2486 0.931 . S
C2502 C2496 1.383 . S
C2502 C2501 1.379 . S
H2503 C2497 0.959 . S
H2504 C2497 0.961 . S
H2505 C2497 0.960 . S
H2506 C2498 0.930 . S
H2507 C2499 0.929 . S
H2508 C2516 0.929 . S
H2509 C2518 0.930 . S
H2510 C2520 0.930 . S
H2511 C2523 0.929 . S
H2512 C2526 0.930 . S
H2513 C2528 0.960 . S
H2514 C2528 0.960 . S
H2515 C2528 0.960 . S
C2516 H2508 0.929 . S
C2516 C2517 1.377 . S
C2516 C2518 1.384 . S
C2517 C2516 1.377 . S
C2517 C2523 1.390 . S
C2518 H2509 0.930 . S
C2518 C2516 1.384 . S
C2518 C2519 1.372 . S
C2519 C2518 1.372 . S
C2519 C2520 1.400 . S
C2519 C2524 1.490 . S
C2520 H2510 0.930 . S
C2520 C2519 1.400 . S
C2520 C2523 1.386 . S
H2521 C2537 0.930 . S
H2522 C2538 0.931 . S
C2523 H2511 0.929 . S
C2523 C2517 1.390 . S
C2523 C2520 1.386 . S
C2524 C2519 1.490 . S
C2524 C2526 1.395 . S
C2524 C2527 1.403 . S
H2525 C2531 0.930 . S
C2526 H2512 0.930 . S
C2526 C2524 1.395 . S
C2526 C2529 1.403 . S
C2527 C2524 1.403 . S
C2527 C2528 1.524 . S
C2527 C2531 1.400 . S
C2528 H2513 0.960 . S
C2528 H2514 0.960 . S
C2528 H2515 0.960 . S
C2528 C2527 1.524 . S
C2529 C2526 1.403 . S
C2529 C2530 1.392 . S
C2529 C2533 1.495 . S
C2530 C2529 1.392 . S
C2530 C2531 1.385 . S
C2530 C2532 1.478 . S
C2531 H2525 0.930 . S
C2531 C2527 1.400 . S
C2531 C2530 1.385 . S
C2532 C2530 1.478 . S
C2532 C2534 1.381 . S
C2532 C2538 1.383 . S
C2533 C2529 1.495 . S
C2533 H2539 0.959 . S
C2533 H2540 0.961 . S
C2533 H2541 0.960 . S
C2534 C2532 1.381 . S
C2534 C2535 1.394 . S
C2534 H2542 0.930 . S
C2535 C2534 1.394 . S
C2535 C2536 1.383 . S
C2535 H2543 0.929 . S
C2536 C2535 1.383 . S
C2536 C2537 1.377 . S
C2537 H2521 0.930 . S
C2537 C2536 1.377 . S
C2537 C2538 1.379 . S
C2538 H2522 0.931 . S
C2538 C2532 1.383 . S
C2538 C2537 1.379 . S
H2539 C2533 0.959 . S
H2540 C2533 0.961 . S
H2541 C2533 0.960 . S
H2542 C2534 0.930 . S
H2543 C2535 0.929 . S
H2544 C2552 0.929 . S
H2545 C2554 0.930 . S
H2546 C2556 0.930 . S
H2547 C2559 0.929 . S
H2548 C2562 0.930 . S
H2549 C2564 0.960 . S
H2550 C2564 0.960 . S
H2551 C2564 0.960 . S
C2552 H2544 0.929 . S
C2552 C2553 1.377 . S
C2552 C2554 1.384 . S
C2553 C2552 1.377 . S
C2553 C2559 1.390 . S
C2554 H2545 0.930 . S
C2554 C2552 1.384 . S
C2554 C2555 1.372 . S
C2555 C2554 1.372 . S
C2555 C2556 1.400 . S
C2555 C2560 1.490 . S
C2556 H2546 0.930 . S
C2556 C2555 1.400 . S
C2556 C2559 1.386 . S
H2557 C2573 0.930 . S
H2558 C2574 0.931 . S
C2559 H2547 0.929 . S
C2559 C2553 1.390 . S
C2559 C2556 1.386 . S
C2560 C2555 1.490 . S
C2560 C2562 1.395 . S
C2560 C2563 1.403 . S
H2561 C2567 0.930 . S
C2562 H2548 0.930 . S
C2562 C2560 1.395 . S
C2562 C2565 1.403 . S
C2563 C2560 1.403 . S
C2563 C2564 1.524 . S
C2563 C2567 1.400 . S
C2564 H2549 0.960 . S
C2564 H2550 0.960 . S
C2564 H2551 0.960 . S
C2564 C2563 1.524 . S
C2565 C2562 1.403 . S
C2565 C2566 1.392 . S
C2565 C2569 1.495 . S
C2566 C2565 1.392 . S
C2566 C2567 1.385 . S
C2566 C2568 1.478 . S
C2567 H2561 0.930 . S
C2567 C2563 1.400 . S
C2567 C2566 1.385 . S
C2568 C2566 1.478 . S
C2568 C2570 1.381 . S
C2568 C2574 1.383 . S
C2569 C2565 1.495 . S
C2569 H2575 0.959 . S
C2569 H2576 0.961 . S
C2569 H2577 0.960 . S
C2570 C2568 1.381 . S
C2570 C2571 1.394 . S
C2570 H2578 0.930 . S
C2571 C2570 1.394 . S
C2571 C2572 1.383 . S
C2571 H2579 0.929 . S
C2572 C2571 1.383 . S
C2572 C2573 1.377 . S
C2573 H2557 0.930 . S
C2573 C2572 1.377 . S
C2573 C2574 1.379 . S
C2574 H2558 0.931 . S
C2574 C2568 1.383 . S
C2574 C2573 1.379 . S
H2575 C2569 0.959 . S
H2576 C2569 0.961 . S
H2577 C2569 0.960 . S
H2578 C2570 0.930 . S
H2579 C2571 0.929 . S
H2580 C2588 0.929 . S
H2581 C2590 0.930 . S
H2582 C2592 0.930 . S
H2583 C2595 0.929 . S
H2584 C2598 0.930 . S
H2585 C2600 0.960 . S
H2586 C2600 0.960 . S
H2587 C2600 0.960 . S
C2588 H2580 0.929 . S
C2588 C2589 1.377 . S
C2588 C2590 1.384 . S
C2589 C2588 1.377 . S
C2589 C2595 1.390 . S
C2590 H2581 0.930 . S
C2590 C2588 1.384 . S
C2590 C2591 1.372 . S
C2591 C2590 1.372 . S
C2591 C2592 1.400 . S
C2591 C2596 1.490 . S
C2592 H2582 0.930 . S
C2592 C2591 1.400 . S
C2592 C2595 1.386 . S
H2593 C2609 0.930 . S
H2594 C2610 0.931 . S
C2595 H2583 0.929 . S
C2595 C2589 1.390 . S
C2595 C2592 1.386 . S
C2596 C2591 1.490 . S
C2596 C2598 1.395 . S
C2596 C2599 1.403 . S
H2597 C2603 0.930 . S
C2598 H2584 0.930 . S
C2598 C2596 1.395 . S
C2598 C2601 1.403 . S
C2599 C2596 1.403 . S
C2599 C2600 1.524 . S
C2599 C2603 1.400 . S
C2600 H2585 0.960 . S
C2600 H2586 0.960 . S
C2600 H2587 0.960 . S
C2600 C2599 1.524 . S
C2601 C2598 1.403 . S
C2601 C2602 1.392 . S
C2601 C2605 1.495 . S
C2602 C2601 1.392 . S
C2602 C2603 1.385 . S
C2602 C2604 1.478 . S
C2603 H2597 0.930 . S
C2603 C2599 1.400 . S
C2603 C2602 1.385 . S
C2604 C2602 1.478 . S
C2604 C2606 1.381 . S
C2604 C2610 1.383 . S
C2605 C2601 1.495 . S
C2605 H2611 0.959 . S
C2605 H2612 0.961 . S
C2605 H2613 0.960 . S
C2606 C2604 1.381 . S
C2606 C2607 1.394 . S
C2606 H2614 0.930 . S
C2607 C2606 1.394 . S
C2607 C2608 1.383 . S
C2607 H2615 0.929 . S
C2608 C2607 1.383 . S
C2608 C2609 1.377 . S
C2609 H2593 0.930 . S
C2609 C2608 1.377 . S
C2609 C2610 1.379 . S
C2610 H2594 0.931 . S
C2610 C2604 1.383 . S
C2610 C2609 1.379 . S
H2611 C2605 0.959 . S
H2612 C2605 0.961 . S
H2613 C2605 0.960 . S
H2614 C2606 0.930 . S
H2615 C2607 0.929 . S
H2616 C2624 0.929 . S
H2617 C2626 0.930 . S
H2618 C2628 0.930 . S
H2619 C2631 0.929 . S
H2620 C2634 0.930 . S
H2621 C2636 0.960 . S
H2622 C2636 0.960 . S
H2623 C2636 0.960 . S
C2624 H2616 0.929 . S
C2624 C2625 1.377 . S
C2624 C2626 1.384 . S
C2625 C2624 1.377 . S
C2625 C2631 1.390 . S
C2626 H2617 0.930 . S
C2626 C2624 1.384 . S
C2626 C2627 1.372 . S
C2627 C2626 1.372 . S
C2627 C2628 1.400 . S
C2627 C2632 1.490 . S
C2628 H2618 0.930 . S
C2628 C2627 1.400 . S
C2628 C2631 1.386 . S
H2629 C2645 0.930 . S
H2630 C2646 0.931 . S
C2631 H2619 0.929 . S
C2631 C2625 1.390 . S
C2631 C2628 1.386 . S
C2632 C2627 1.490 . S
C2632 C2634 1.395 . S
C2632 C2635 1.403 . S
H2633 C2639 0.930 . S
C2634 H2620 0.930 . S
C2634 C2632 1.395 . S
C2634 C2637 1.403 . S
C2635 C2632 1.403 . S
C2635 C2636 1.524 . S
C2635 C2639 1.400 . S
C2636 H2621 0.960 . S
C2636 H2622 0.960 . S
C2636 H2623 0.960 . S
C2636 C2635 1.524 . S
C2637 C2634 1.403 . S
C2637 C2638 1.392 . S
C2637 C2641 1.495 . S
C2638 C2637 1.392 . S
C2638 C2639 1.385 . S
C2638 C2640 1.478 . S
C2639 H2633 0.930 . S
C2639 C2635 1.400 . S
C2639 C2638 1.385 . S
C2640 C2638 1.478 . S
C2640 C2642 1.381 . S
C2640 C2646 1.383 . S
C2641 C2637 1.495 . S
C2641 H2647 0.959 . S
C2641 H2648 0.961 . S
C2641 H2649 0.960 . S
C2642 C2640 1.381 . S
C2642 C2643 1.394 . S
C2642 H2650 0.930 . S
C2643 C2642 1.394 . S
C2643 C2644 1.383 . S
C2643 H2651 0.929 . S
C2644 C2643 1.383 . S
C2644 C2645 1.377 . S
C2645 H2629 0.930 . S
C2645 C2644 1.377 . S
C2645 C2646 1.379 . S
C2646 H2630 0.931 . S
C2646 C2640 1.383 . S
C2646 C2645 1.379 . S
H2647 C2641 0.959 . S
H2648 C2641 0.961 . S
H2649 C2641 0.960 . S
H2650 C2642 0.930 . S
H2651 C2643 0.929 . S
H2652 C2660 0.929 . S
H2653 C2662 0.930 . S
H2654 C2664 0.930 . S
H2655 C2667 0.929 . S
H2656 C2670 0.930 . S
H2657 C2672 0.960 . S
H2658 C2672 0.960 . S
H2659 C2672 0.960 . S
C2660 H2652 0.929 . S
C2660 C2661 1.377 . S
C2660 C2662 1.384 . S
C2661 C2660 1.377 . S
C2661 C2667 1.390 . S
C2662 H2653 0.930 . S
C2662 C2660 1.384 . S
C2662 C2663 1.372 . S
C2663 C2662 1.372 . S
C2663 C2664 1.400 . S
C2663 C2668 1.490 . S
C2664 H2654 0.930 . S
C2664 C2663 1.400 . S
C2664 C2667 1.386 . S
H2665 C2681 0.930 . S
H2666 C2682 0.931 . S
C2667 H2655 0.929 . S
C2667 C2661 1.390 . S
C2667 C2664 1.386 . S
C2668 C2663 1.490 . S
C2668 C2670 1.395 . S
C2668 C2671 1.403 . S
H2669 C2675 0.930 . S
C2670 H2656 0.930 . S
C2670 C2668 1.395 . S
C2670 C2673 1.403 . S
C2671 C2668 1.403 . S
C2671 C2672 1.524 . S
C2671 C2675 1.400 . S
C2672 H2657 0.960 . S
C2672 H2658 0.960 . S
C2672 H2659 0.960 . S
C2672 C2671 1.524 . S
C2673 C2670 1.403 . S
C2673 C2674 1.392 . S
C2673 C2677 1.495 . S
C2674 C2673 1.392 . S
C2674 C2675 1.385 . S
C2674 C2676 1.478 . S
C2675 H2669 0.930 . S
C2675 C2671 1.400 . S
C2675 C2674 1.385 . S
C2676 C2674 1.478 . S
C2676 C2678 1.381 . S
C2676 C2682 1.383 . S
C2677 C2673 1.495 . S
C2677 H2683 0.959 . S
C2677 H2684 0.961 . S
C2677 H2685 0.960 . S
C2678 C2676 1.381 . S
C2678 C2679 1.394 . S
C2678 H2686 0.930 . S
C2679 C2678 1.394 . S
C2679 C2680 1.383 . S
C2679 H2687 0.929 . S
C2680 C2679 1.383 . S
C2680 C2681 1.377 . S
C2681 H2665 0.930 . S
C2681 C2680 1.377 . S
C2681 C2682 1.379 . S
C2682 H2666 0.931 . S
C2682 C2676 1.383 . S
C2682 C2681 1.379 . S
H2683 C2677 0.959 . S
H2684 C2677 0.961 . S
H2685 C2677 0.960 . S
H2686 C2678 0.930 . S
H2687 C2679 0.929 . S
H2688 C2696 0.929 . S
H2689 C2698 0.930 . S
H2690 C2700 0.930 . S
H2691 C2703 0.929 . S
H2692 C2706 0.930 . S
H2693 C2708 0.960 . S
H2694 C2708 0.960 . S
H2695 C2708 0.960 . S
C2696 H2688 0.929 . S
C2696 C2697 1.377 . S
C2696 C2698 1.384 . S
C2697 C2696 1.377 . S
C2697 C2703 1.390 . S
C2698 H2689 0.930 . S
C2698 C2696 1.384 . S
C2698 C2699 1.372 . S
C2699 C2698 1.372 . S
C2699 C2700 1.400 . S
C2699 C2704 1.490 . S
C2700 H2690 0.930 . S
C2700 C2699 1.400 . S
C2700 C2703 1.386 . S
H2701 C2717 0.930 . S
H2702 C2718 0.931 . S
C2703 H2691 0.929 . S
C2703 C2697 1.390 . S
C2703 C2700 1.386 . S
C2704 C2699 1.490 . S
C2704 C2706 1.395 . S
C2704 C2707 1.403 . S
H2705 C2711 0.930 . S
C2706 H2692 0.930 . S
C2706 C2704 1.395 . S
C2706 C2709 1.403 . S
C2707 C2704 1.403 . S
C2707 C2708 1.524 . S
C2707 C2711 1.400 . S
C2708 H2693 0.960 . S
C2708 H2694 0.960 . S
C2708 H2695 0.960 . S
C2708 C2707 1.524 . S
C2709 C2706 1.403 . S
C2709 C2710 1.392 . S
C2709 C2713 1.495 . S
C2710 C2709 1.392 . S
C2710 C2711 1.385 . S
C2710 C2712 1.478 . S
C2711 H2705 0.930 . S
C2711 C2707 1.400 . S
C2711 C2710 1.385 . S
C2712 C2710 1.478 . S
C2712 C2714 1.381 . S
C2712 C2718 1.383 . S
C2713 C2709 1.495 . S
C2713 H2719 0.959 . S
C2713 H2720 0.961 . S
C2713 H2721 0.960 . S
C2714 C2712 1.381 . S
C2714 C2715 1.394 . S
C2714 H2722 0.930 . S
C2715 C2714 1.394 . S
C2715 C2716 1.383 . S
C2715 H2723 0.929 . S
C2716 C2715 1.383 . S
C2716 C2717 1.377 . S
C2717 H2701 0.930 . S
C2717 C2716 1.377 . S
C2717 C2718 1.379 . S
C2718 H2702 0.931 . S
C2718 C2712 1.383 . S
C2718 C2717 1.379 . S
H2719 C2713 0.959 . S
H2720 C2713 0.961 . S
H2721 C2713 0.960 . S
H2722 C2714 0.930 . S
H2723 C2715 0.929 . S
H2724 C2732 0.929 . S
H2725 C2734 0.930 . S
H2726 C2736 0.930 . S
H2727 C2739 0.929 . S
H2728 C2742 0.930 . S
H2729 C2744 0.960 . S
H2730 C2744 0.960 . S
H2731 C2744 0.960 . S
C2732 H2724 0.929 . S
C2732 C2733 1.377 . S
C2732 C2734 1.384 . S
C2733 C2732 1.377 . S
C2733 C2739 1.390 . S
C2734 H2725 0.930 . S
C2734 C2732 1.384 . S
C2734 C2735 1.372 . S
C2735 C2734 1.372 . S
C2735 C2736 1.400 . S
C2735 C2740 1.490 . S
C2736 H2726 0.930 . S
C2736 C2735 1.400 . S
C2736 C2739 1.386 . S
H2737 C2753 0.930 . S
H2738 C2754 0.931 . S
C2739 H2727 0.929 . S
C2739 C2733 1.390 . S
C2739 C2736 1.386 . S
C2740 C2735 1.490 . S
C2740 C2742 1.395 . S
C2740 C2743 1.403 . S
H2741 C2747 0.930 . S
C2742 H2728 0.930 . S
C2742 C2740 1.395 . S
C2742 C2745 1.403 . S
C2743 C2740 1.403 . S
C2743 C2744 1.524 . S
C2743 C2747 1.400 . S
C2744 H2729 0.960 . S
C2744 H2730 0.960 . S
C2744 H2731 0.960 . S
C2744 C2743 1.524 . S
C2745 C2742 1.403 . S
C2745 C2746 1.392 . S
C2745 C2749 1.495 . S
C2746 C2745 1.392 . S
C2746 C2747 1.385 . S
C2746 C2748 1.478 . S
C2747 H2741 0.930 . S
C2747 C2743 1.400 . S
C2747 C2746 1.385 . S
C2748 C2746 1.478 . S
C2748 C2750 1.381 . S
C2748 C2754 1.383 . S
C2749 C2745 1.495 . S
C2749 H2755 0.959 . S
C2749 H2756 0.961 . S
C2749 H2757 0.960 . S
C2750 C2748 1.381 . S
C2750 C2751 1.394 . S
C2750 H2758 0.930 . S
C2751 C2750 1.394 . S
C2751 C2752 1.383 . S
C2751 H2759 0.929 . S
C2752 C2751 1.383 . S
C2752 C2753 1.377 . S
C2753 H2737 0.930 . S
C2753 C2752 1.377 . S
C2753 C2754 1.379 . S
C2754 H2738 0.931 . S
C2754 C2748 1.383 . S
C2754 C2753 1.379 . S
H2755 C2749 0.959 . S
H2756 C2749 0.961 . S
H2757 C2749 0.960 . S
H2758 C2750 0.930 . S
H2759 C2751 0.929 . S
H2760 C2768 0.929 . S
H2761 C2770 0.930 . S
H2762 C2772 0.930 . S
H2763 C2775 0.929 . S
H2764 C2778 0.930 . S
H2765 C2780 0.960 . S
H2766 C2780 0.960 . S
H2767 C2780 0.960 . S
C2768 H2760 0.929 . S
C2768 C2769 1.377 . S
C2768 C2770 1.384 . S
C2769 C2768 1.377 . S
C2769 C2775 1.390 . S
C2770 H2761 0.930 . S
C2770 C2768 1.384 . S
C2770 C2771 1.372 . S
C2771 C2770 1.372 . S
C2771 C2772 1.400 . S
C2771 C2776 1.490 . S
C2772 H2762 0.930 . S
C2772 C2771 1.400 . S
C2772 C2775 1.386 . S
H2773 C2789 0.930 . S
H2774 C2790 0.931 . S
C2775 H2763 0.929 . S
C2775 C2769 1.390 . S
C2775 C2772 1.386 . S
C2776 C2771 1.490 . S
C2776 C2778 1.395 . S
C2776 C2779 1.403 . S
H2777 C2783 0.930 . S
C2778 H2764 0.930 . S
C2778 C2776 1.395 . S
C2778 C2781 1.403 . S
C2779 C2776 1.403 . S
C2779 C2780 1.524 . S
C2779 C2783 1.400 . S
C2780 H2765 0.960 . S
C2780 H2766 0.960 . S
C2780 H2767 0.960 . S
C2780 C2779 1.524 . S
C2781 C2778 1.403 . S
C2781 C2782 1.392 . S
C2781 C2785 1.495 . S
C2782 C2781 1.392 . S
C2782 C2783 1.385 . S
C2782 C2784 1.478 . S
C2783 H2777 0.930 . S
C2783 C2779 1.400 . S
C2783 C2782 1.385 . S
C2784 C2782 1.478 . S
C2784 C2786 1.381 . S
C2784 C2790 1.383 . S
C2785 C2781 1.495 . S
C2785 H2791 0.959 . S
C2785 H2792 0.961 . S
C2785 H2793 0.960 . S
C2786 C2784 1.381 . S
C2786 C2787 1.394 . S
C2786 H2794 0.930 . S
C2787 C2786 1.394 . S
C2787 C2788 1.383 . S
C2787 H2795 0.929 . S
C2788 C2787 1.383 . S
C2788 C2789 1.377 . S
C2789 H2773 0.930 . S
C2789 C2788 1.377 . S
C2789 C2790 1.379 . S
C2790 H2774 0.931 . S
C2790 C2784 1.383 . S
C2790 C2789 1.379 . S
H2791 C2785 0.959 . S
H2792 C2785 0.961 . S
H2793 C2785 0.960 . S
H2794 C2786 0.930 . S
H2795 C2787 0.929 . S
H2796 C2804 0.929 . S
H2797 C2806 0.930 . S
H2798 C2808 0.930 . S
H2799 C2811 0.929 . S
H2800 C2814 0.930 . S
H2801 C2816 0.960 . S
H2802 C2816 0.960 . S
H2803 C2816 0.960 . S
C2804 H2796 0.929 . S
C2804 C2805 1.377 . S
C2804 C2806 1.384 . S
C2805 C2804 1.377 . S
C2805 C2811 1.390 . S
C2806 H2797 0.930 . S
C2806 C2804 1.384 . S
C2806 C2807 1.372 . S
C2807 C2806 1.372 . S
C2807 C2808 1.400 . S
C2807 C2812 1.490 . S
C2808 H2798 0.930 . S
C2808 C2807 1.400 . S
C2808 C2811 1.386 . S
H2809 C2825 0.930 . S
H2810 C2826 0.931 . S
C2811 H2799 0.929 . S
C2811 C2805 1.390 . S
C2811 C2808 1.386 . S
C2812 C2807 1.490 . S
C2812 C2814 1.395 . S
C2812 C2815 1.403 . S
H2813 C2819 0.930 . S
C2814 H2800 0.930 . S
C2814 C2812 1.395 . S
C2814 C2817 1.403 . S
C2815 C2812 1.403 . S
C2815 C2816 1.524 . S
C2815 C2819 1.400 . S
C2816 H2801 0.960 . S
C2816 H2802 0.960 . S
C2816 H2803 0.960 . S
C2816 C2815 1.524 . S
C2817 C2814 1.403 . S
C2817 C2818 1.392 . S
C2817 C2821 1.495 . S
C2818 C2817 1.392 . S
C2818 C2819 1.385 . S
C2818 C2820 1.478 . S
C2819 H2813 0.930 . S
C2819 C2815 1.400 . S
C2819 C2818 1.385 . S
C2820 C2818 1.478 . S
C2820 C2822 1.381 . S
C2820 C2826 1.383 . S
C2821 C2817 1.495 . S
C2821 H2827 0.959 . S
C2821 H2828 0.961 . S
C2821 H2829 0.960 . S
C2822 C2820 1.381 . S
C2822 C2823 1.394 . S
C2822 H2830 0.930 . S
C2823 C2822 1.394 . S
C2823 C2824 1.383 . S
C2823 H2831 0.929 . S
C2824 C2823 1.383 . S
C2824 C2825 1.377 . S
C2825 H2809 0.930 . S
C2825 C2824 1.377 . S
C2825 C2826 1.379 . S
C2826 H2810 0.931 . S
C2826 C2820 1.383 . S
C2826 C2825 1.379 . S
H2827 C2821 0.959 . S
H2828 C2821 0.961 . S
H2829 C2821 0.960 . S
H2830 C2822 0.930 . S
H2831 C2823 0.929 . S
H2832 C2840 0.929 . S
H2833 C2842 0.930 . S
H2834 C2844 0.930 . S
H2835 C2847 0.929 . S
H2836 C2850 0.930 . S
H2837 C2852 0.960 . S
H2838 C2852 0.960 . S
H2839 C2852 0.960 . S
C2840 H2832 0.929 . S
C2840 C2841 1.377 . S
C2840 C2842 1.384 . S
C2841 C2840 1.377 . S
C2841 C2847 1.390 . S
C2842 H2833 0.930 . S
C2842 C2840 1.384 . S
C2842 C2843 1.372 . S
C2843 C2842 1.372 . S
C2843 C2844 1.400 . S
C2843 C2848 1.490 . S
C2844 H2834 0.930 . S
C2844 C2843 1.400 . S
C2844 C2847 1.386 . S
H2845 C2861 0.930 . S
H2846 C2862 0.931 . S
C2847 H2835 0.929 . S
C2847 C2841 1.390 . S
C2847 C2844 1.386 . S
C2848 C2843 1.490 . S
C2848 C2850 1.395 . S
C2848 C2851 1.403 . S
H2849 C2855 0.930 . S
C2850 H2836 0.930 . S
C2850 C2848 1.395 . S
C2850 C2853 1.403 . S
C2851 C2848 1.403 . S
C2851 C2852 1.524 . S
C2851 C2855 1.400 . S
C2852 H2837 0.960 . S
C2852 H2838 0.960 . S
C2852 H2839 0.960 . S
C2852 C2851 1.524 . S
C2853 C2850 1.403 . S
C2853 C2854 1.392 . S
C2853 C2857 1.495 . S
C2854 C2853 1.392 . S
C2854 C2855 1.385 . S
C2854 C2856 1.478 . S
C2855 H2849 0.930 . S
C2855 C2851 1.400 . S
C2855 C2854 1.385 . S
C2856 C2854 1.478 . S
C2856 C2858 1.381 . S
C2856 C2862 1.383 . S
C2857 C2853 1.495 . S
C2857 H2863 0.959 . S
C2857 H2864 0.961 . S
C2857 H2865 0.960 . S
C2858 C2856 1.381 . S
C2858 C2859 1.394 . S
C2858 H2866 0.930 . S
C2859 C2858 1.394 . S
C2859 C2860 1.383 . S
C2859 H2867 0.929 . S
C2860 C2859 1.383 . S
C2860 C2861 1.377 . S
C2861 H2845 0.930 . S
C2861 C2860 1.377 . S
C2861 C2862 1.379 . S
C2862 H2846 0.931 . S
C2862 C2856 1.383 . S
C2862 C2861 1.379 . S
H2863 C2857 0.959 . S
H2864 C2857 0.961 . S
H2865 C2857 0.960 . S
H2866 C2858 0.930 . S
H2867 C2859 0.929 . S
H2868 C2876 0.929 . S
H2869 C2878 0.930 . S
H2870 C2880 0.930 . S
H2871 C2883 0.929 . S
H2872 C2886 0.930 . S
H2873 C2888 0.960 . S
H2874 C2888 0.960 . S
H2875 C2888 0.960 . S
C2876 H2868 0.929 . S
C2876 C2877 1.377 . S
C2876 C2878 1.384 . S
C2877 C2876 1.377 . S
C2877 C2883 1.390 . S
C2878 H2869 0.930 . S
C2878 C2876 1.384 . S
C2878 C2879 1.372 . S
C2879 C2878 1.372 . S
C2879 C2880 1.400 . S
C2879 C2884 1.490 . S
C2880 H2870 0.930 . S
C2880 C2879 1.400 . S
C2880 C2883 1.386 . S
H2881 C2897 0.930 . S
H2882 C2898 0.931 . S
C2883 H2871 0.929 . S
C2883 C2877 1.390 . S
C2883 C2880 1.386 . S
C2884 C2879 1.490 . S
C2884 C2886 1.395 . S
C2884 C2887 1.403 . S
H2885 C2891 0.930 . S
C2886 H2872 0.930 . S
C2886 C2884 1.395 . S
C2886 C2889 1.403 . S
C2887 C2884 1.403 . S
C2887 C2888 1.524 . S
C2887 C2891 1.400 . S
C2888 H2873 0.960 . S
C2888 H2874 0.960 . S
C2888 H2875 0.960 . S
C2888 C2887 1.524 . S
C2889 C2886 1.403 . S
C2889 C2890 1.392 . S
C2889 C2893 1.495 . S
C2890 C2889 1.392 . S
C2890 C2891 1.385 . S
C2890 C2892 1.478 . S
C2891 H2885 0.930 . S
C2891 C2887 1.400 . S
C2891 C2890 1.385 . S
C2892 C2890 1.478 . S
C2892 C2894 1.381 . S
C2892 C2898 1.383 . S
C2893 C2889 1.495 . S
C2893 H2899 0.959 . S
C2893 H2900 0.961 . S
C2893 H2901 0.960 . S
C2894 C2892 1.381 . S
C2894 C2895 1.394 . S
C2894 H2902 0.930 . S
C2895 C2894 1.394 . S
C2895 C2896 1.383 . S
C2895 H2903 0.929 . S
C2896 C2895 1.383 . S
C2896 C2897 1.377 . S
C2897 H2881 0.930 . S
C2897 C2896 1.377 . S
C2897 C2898 1.379 . S
C2898 H2882 0.931 . S
C2898 C2892 1.383 . S
C2898 C2897 1.379 . S
H2899 C2893 0.959 . S
H2900 C2893 0.961 . S
H2901 C2893 0.960 . S
H2902 C2894 0.930 . S
H2903 C2895 0.929 . S
H2904 C2912 0.929 . S
H2905 C2914 0.930 . S
H2906 C2916 0.930 . S
H2907 C2919 0.929 . S
H2908 C2922 0.930 . S
H2909 C2924 0.960 . S
H2910 C2924 0.960 . S
H2911 C2924 0.960 . S
C2912 H2904 0.929 . S
C2912 C2913 1.377 . S
C2912 C2914 1.384 . S
C2913 C2912 1.377 . S
C2913 C2919 1.390 . S
C2914 H2905 0.930 . S
C2914 C2912 1.384 . S
C2914 C2915 1.372 . S
C2915 C2914 1.372 . S
C2915 C2916 1.400 . S
C2915 C2920 1.490 . S
C2916 H2906 0.930 . S
C2916 C2915 1.400 . S
C2916 C2919 1.386 . S
H2917 C2933 0.930 . S
H2918 C2934 0.931 . S
C2919 H2907 0.929 . S
C2919 C2913 1.390 . S
C2919 C2916 1.386 . S
C2920 C2915 1.490 . S
C2920 C2922 1.395 . S
C2920 C2923 1.403 . S
H2921 C2927 0.930 . S
C2922 H2908 0.930 . S
C2922 C2920 1.395 . S
C2922 C2925 1.403 . S
C2923 C2920 1.403 . S
C2923 C2924 1.524 . S
C2923 C2927 1.400 . S
C2924 H2909 0.960 . S
C2924 H2910 0.960 . S
C2924 H2911 0.960 . S
C2924 C2923 1.524 . S
C2925 C2922 1.403 . S
C2925 C2926 1.392 . S
C2925 C2929 1.495 . S
C2926 C2925 1.392 . S
C2926 C2927 1.385 . S
C2926 C2928 1.478 . S
C2927 H2921 0.930 . S
C2927 C2923 1.400 . S
C2927 C2926 1.385 . S
C2928 C2926 1.478 . S
C2928 C2930 1.381 . S
C2928 C2934 1.383 . S
C2929 C2925 1.495 . S
C2929 H2935 0.959 . S
C2929 H2936 0.961 . S
C2929 H2937 0.960 . S
C2930 C2928 1.381 . S
C2930 C2931 1.394 . S
C2930 H2938 0.930 . S
C2931 C2930 1.394 . S
C2931 C2932 1.383 . S
C2931 H2939 0.929 . S
C2932 C2931 1.383 . S
C2932 C2933 1.377 . S
C2933 H2917 0.930 . S
C2933 C2932 1.377 . S
C2933 C2934 1.379 . S
C2934 H2918 0.931 . S
C2934 C2928 1.383 . S
C2934 C2933 1.379 . S
H2935 C2929 0.959 . S
H2936 C2929 0.961 . S
H2937 C2929 0.960 . S
H2938 C2930 0.930 . S
H2939 C2931 0.929 . S
H2940 C2948 0.929 . S
H2941 C2950 0.930 . S
H2942 C2952 0.930 . S
H2943 C2955 0.929 . S
H2944 C2958 0.930 . S
H2945 C2960 0.960 . S
H2946 C2960 0.960 . S
H2947 C2960 0.960 . S
C2948 H2940 0.929 . S
C2948 C2949 1.377 . S
C2948 C2950 1.384 . S
C2949 C2948 1.377 . S
C2949 C2955 1.390 . S
C2950 H2941 0.930 . S
C2950 C2948 1.384 . S
C2950 C2951 1.372 . S
C2951 C2950 1.372 . S
C2951 C2952 1.400 . S
C2951 C2956 1.490 . S
C2952 H2942 0.930 . S
C2952 C2951 1.400 . S
C2952 C2955 1.386 . S
H2953 C2969 0.930 . S
H2954 C2970 0.931 . S
C2955 H2943 0.929 . S
C2955 C2949 1.390 . S
C2955 C2952 1.386 . S
C2956 C2951 1.490 . S
C2956 C2958 1.395 . S
C2956 C2959 1.403 . S
H2957 C2963 0.930 . S
C2958 H2944 0.930 . S
C2958 C2956 1.395 . S
C2958 C2961 1.403 . S
C2959 C2956 1.403 . S
C2959 C2960 1.524 . S
C2959 C2963 1.400 . S
C2960 H2945 0.960 . S
C2960 H2946 0.960 . S
C2960 H2947 0.960 . S
C2960 C2959 1.524 . S
C2961 C2958 1.403 . S
C2961 C2962 1.392 . S
C2961 C2965 1.495 . S
C2962 C2961 1.392 . S
C2962 C2963 1.385 . S
C2962 C2964 1.478 . S
C2963 H2957 0.930 . S
C2963 C2959 1.400 . S
C2963 C2962 1.385 . S
C2964 C2962 1.478 . S
C2964 C2966 1.381 . S
C2964 C2970 1.383 . S
C2965 C2961 1.495 . S
C2965 H2971 0.959 . S
C2965 H2972 0.961 . S
C2965 H2973 0.960 . S
C2966 C2964 1.381 . S
C2966 C2967 1.394 . S
C2966 H2974 0.930 . S
C2967 C2966 1.394 . S
C2967 C2968 1.383 . S
C2967 H2975 0.929 . S
C2968 C2967 1.383 . S
C2968 C2969 1.377 . S
C2969 H2953 0.930 . S
C2969 C2968 1.377 . S
C2969 C2970 1.379 . S
C2970 H2954 0.931 . S
C2970 C2964 1.383 . S
C2970 C2969 1.379 . S
H2971 C2965 0.959 . S
H2972 C2965 0.961 . S
H2973 C2965 0.960 . S
H2974 C2966 0.930 . S
H2975 C2967 0.929 . S
H2976 C2984 0.929 . S
H2977 C2986 0.930 . S
H2978 C2988 0.930 . S
H2979 C2991 0.929 . S
H2980 C2994 0.930 . S
H2981 C2996 0.960 . S
H2982 C2996 0.960 . S
H2983 C2996 0.960 . S
C2984 H2976 0.929 . S
C2984 C2985 1.377 . S
C2984 C2986 1.384 . S
C2985 C2984 1.377 . S
C2985 C2991 1.390 . S
C2986 H2977 0.930 . S
C2986 C2984 1.384 . S
C2986 C2987 1.372 . S
C2987 C2986 1.372 . S
C2987 C2988 1.400 . S
C2987 C2992 1.490 . S
C2988 H2978 0.930 . S
C2988 C2987 1.400 . S
C2988 C2991 1.386 . S
H2989 C3005 0.930 . S
H2990 C3006 0.931 . S
C2991 H2979 0.929 . S
C2991 C2985 1.390 . S
C2991 C2988 1.386 . S
C2992 C2987 1.490 . S
C2992 C2994 1.395 . S
C2992 C2995 1.403 . S
H2993 C2999 0.930 . S
C2994 H2980 0.930 . S
C2994 C2992 1.395 . S
C2994 C2997 1.403 . S
C2995 C2992 1.403 . S
C2995 C2996 1.524 . S
C2995 C2999 1.400 . S
C2996 H2981 0.960 . S
C2996 H2982 0.960 . S
C2996 H2983 0.960 . S
C2996 C2995 1.524 . S
C2997 C2994 1.403 . S
C2997 C2998 1.392 . S
C2997 C3001 1.495 . S
C2998 C2997 1.392 . S
C2998 C2999 1.385 . S
C2998 C3000 1.478 . S
C2999 H2993 0.930 . S
C2999 C2995 1.400 . S
C2999 C2998 1.385 . S
C3000 C2998 1.478 . S
C3000 C3002 1.381 . S
C3000 C3006 1.383 . S
C3001 C2997 1.495 . S
C3001 H3007 0.959 . S
C3001 H3008 0.961 . S
C3001 H3009 0.960 . S
C3002 C3000 1.381 . S
C3002 C3003 1.394 . S
C3002 H3010 0.930 . S
C3003 C3002 1.394 . S
C3003 C3004 1.383 . S
C3003 H3011 0.929 . S
C3004 C3003 1.383 . S
C3004 C3005 1.377 . S
C3005 H2989 0.930 . S
C3005 C3004 1.377 . S
C3005 C3006 1.379 . S
C3006 H2990 0.931 . S
C3006 C3000 1.383 . S
C3006 C3005 1.379 . S
H3007 C3001 0.959 . S
H3008 C3001 0.961 . S
H3009 C3001 0.960 . S
H3010 C3002 0.930 . S
H3011 C3003 0.929 . S
H3012 C3020 0.929 . S
H3013 C3022 0.930 . S
H3014 C3024 0.930 . S
H3015 C3027 0.929 . S
H3016 C3030 0.930 . S
H3017 C3032 0.960 . S
H3018 C3032 0.960 . S
H3019 C3032 0.960 . S
C3020 H3012 0.929 . S
C3020 C3021 1.377 . S
C3020 C3022 1.384 . S
C3021 C3020 1.377 . S
C3021 C3027 1.390 . S
C3022 H3013 0.930 . S
C3022 C3020 1.384 . S
C3022 C3023 1.372 . S
C3023 C3022 1.372 . S
C3023 C3024 1.400 . S
C3023 C3028 1.490 . S
C3024 H3014 0.930 . S
C3024 C3023 1.400 . S
C3024 C3027 1.386 . S
H3025 C3041 0.930 . S
H3026 C3042 0.931 . S
C3027 H3015 0.929 . S
C3027 C3021 1.390 . S
C3027 C3024 1.386 . S
C3028 C3023 1.490 . S
C3028 C3030 1.395 . S
C3028 C3031 1.403 . S
H3029 C3035 0.930 . S
C3030 H3016 0.930 . S
C3030 C3028 1.395 . S
C3030 C3033 1.403 . S
C3031 C3028 1.403 . S
C3031 C3032 1.524 . S
C3031 C3035 1.400 . S
C3032 H3017 0.960 . S
C3032 H3018 0.960 . S
C3032 H3019 0.960 . S
C3032 C3031 1.524 . S
C3033 C3030 1.403 . S
C3033 C3034 1.392 . S
C3033 C3037 1.495 . S
C3034 C3033 1.392 . S
C3034 C3035 1.385 . S
C3034 C3036 1.478 . S
C3035 H3029 0.930 . S
C3035 C3031 1.400 . S
C3035 C3034 1.385 . S
C3036 C3034 1.478 . S
C3036 C3038 1.381 . S
C3036 C3042 1.383 . S
C3037 C3033 1.495 . S
C3037 H3043 0.959 . S
C3037 H3044 0.961 . S
C3037 H3045 0.960 . S
C3038 C3036 1.381 . S
C3038 C3039 1.394 . S
C3038 H3046 0.930 . S
C3039 C3038 1.394 . S
C3039 C3040 1.383 . S
C3039 H3047 0.929 . S
C3040 C3039 1.383 . S
C3040 C3041 1.377 . S
C3041 H3025 0.930 . S
C3041 C3040 1.377 . S
C3041 C3042 1.379 . S
C3042 H3026 0.931 . S
C3042 C3036 1.383 . S
C3042 C3041 1.379 . S
H3043 C3037 0.959 . S
H3044 C3037 0.961 . S
H3045 C3037 0.960 . S
H3046 C3038 0.930 . S
H3047 C3039 0.929 . S
H3048 C3056 0.929 . S
H3049 C3058 0.930 . S
H3050 C3060 0.930 . S
H3051 C3063 0.929 . S
H3052 C3066 0.930 . S
H3053 C3068 0.960 . S
H3054 C3068 0.960 . S
H3055 C3068 0.960 . S
C3056 H3048 0.929 . S
C3056 C3057 1.377 . S
C3056 C3058 1.384 . S
C3057 C3056 1.377 . S
C3057 C3063 1.390 . S
C3058 H3049 0.930 . S
C3058 C3056 1.384 . S
C3058 C3059 1.372 . S
C3059 C3058 1.372 . S
C3059 C3060 1.400 . S
C3059 C3064 1.490 . S
C3060 H3050 0.930 . S
C3060 C3059 1.400 . S
C3060 C3063 1.386 . S
H3061 C3077 0.930 . S
H3062 C3078 0.931 . S
C3063 H3051 0.929 . S
C3063 C3057 1.390 . S
C3063 C3060 1.386 . S
C3064 C3059 1.490 . S
C3064 C3066 1.395 . S
C3064 C3067 1.403 . S
H3065 C3071 0.930 . S
C3066 H3052 0.930 . S
C3066 C3064 1.395 . S
C3066 C3069 1.403 . S
C3067 C3064 1.403 . S
C3067 C3068 1.524 . S
C3067 C3071 1.400 . S
C3068 H3053 0.960 . S
C3068 H3054 0.960 . S
C3068 H3055 0.960 . S
C3068 C3067 1.524 . S
C3069 C3066 1.403 . S
C3069 C3070 1.392 . S
C3069 C3073 1.495 . S
C3070 C3069 1.392 . S
C3070 C3071 1.385 . S
C3070 C3072 1.478 . S
C3071 H3065 0.930 . S
C3071 C3067 1.400 . S
C3071 C3070 1.385 . S
C3072 C3070 1.478 . S
C3072 C3074 1.381 . S
C3072 C3078 1.383 . S
C3073 C3069 1.495 . S
C3073 H3079 0.959 . S
C3073 H3080 0.961 . S
C3073 H3081 0.960 . S
C3074 C3072 1.381 . S
C3074 C3075 1.394 . S
C3074 H3082 0.930 . S
C3075 C3074 1.394 . S
C3075 C3076 1.383 . S
C3075 H3083 0.929 . S
C3076 C3075 1.383 . S
C3076 C3077 1.377 . S
C3077 H3061 0.930 . S
C3077 C3076 1.377 . S
C3077 C3078 1.379 . S
C3078 H3062 0.931 . S
C3078 C3072 1.383 . S
C3078 C3077 1.379 . S
H3079 C3073 0.959 . S
H3080 C3073 0.961 . S
H3081 C3073 0.960 . S
H3082 C3074 0.930 . S
H3083 C3075 0.929 . S
H3084 C3092 0.929 . S
H3085 C3094 0.930 . S
H3086 C3096 0.930 . S
H3087 C3099 0.929 . S
H3088 C3102 0.930 . S
H3089 C3104 0.960 . S
H3090 C3104 0.960 . S
H3091 C3104 0.960 . S
C3092 H3084 0.929 . S
C3092 C3093 1.377 . S
C3092 C3094 1.384 . S
C3093 C3092 1.377 . S
C3093 C3099 1.390 . S
C3094 H3085 0.930 . S
C3094 C3092 1.384 . S
C3094 C3095 1.372 . S
C3095 C3094 1.372 . S
C3095 C3096 1.400 . S
C3095 C3100 1.490 . S
C3096 H3086 0.930 . S
C3096 C3095 1.400 . S
C3096 C3099 1.386 . S
H3097 C3113 0.930 . S
H3098 C3114 0.931 . S
C3099 H3087 0.929 . S
C3099 C3093 1.390 . S
C3099 C3096 1.386 . S
C3100 C3095 1.490 . S
C3100 C3102 1.395 . S
C3100 C3103 1.403 . S
H3101 C3107 0.930 . S
C3102 H3088 0.930 . S
C3102 C3100 1.395 . S
C3102 C3105 1.403 . S
C3103 C3100 1.403 . S
C3103 C3104 1.524 . S
C3103 C3107 1.400 . S
C3104 H3089 0.960 . S
C3104 H3090 0.960 . S
C3104 H3091 0.960 . S
C3104 C3103 1.524 . S
C3105 C3102 1.403 . S
C3105 C3106 1.392 . S
C3105 C3109 1.495 . S
C3106 C3105 1.392 . S
C3106 C3107 1.385 . S
C3106 C3108 1.478 . S
C3107 H3101 0.930 . S
C3107 C3103 1.400 . S
C3107 C3106 1.385 . S
C3108 C3106 1.478 . S
C3108 C3110 1.381 . S
C3108 C3114 1.383 . S
C3109 C3105 1.495 . S
C3109 H3115 0.959 . S
C3109 H3116 0.961 . S
C3109 H3117 0.960 . S
C3110 C3108 1.381 . S
C3110 C3111 1.394 . S
C3110 H3118 0.930 . S
C3111 C3110 1.394 . S
C3111 C3112 1.383 . S
C3111 H3119 0.929 . S
C3112 C3111 1.383 . S
C3112 C3113 1.377 . S
C3113 H3097 0.930 . S
C3113 C3112 1.377 . S
C3113 C3114 1.379 . S
C3114 H3098 0.931 . S
C3114 C3108 1.383 . S
C3114 C3113 1.379 . S
H3115 C3109 0.959 . S
H3116 C3109 0.961 . S
H3117 C3109 0.960 . S
H3118 C3110 0.930 . S
H3119 C3111 0.929 . S
C556 C258 0.933 . S
C537 C212 0.994 . S
C573 C194 1.026 . S
C592 C252 1.008 . S
C628 C220 1.097 . S
C609 C185 1.179 . S
C645 C203 1.201 . S
C664 C234 1.156 . S
C700 C272 1.528 . S
C681 C149 1.657 . S
C736 C359 1.087 . S
C717 C158 1.086 . S
C753 C167 1.700 . S
C772 C286 1.605 . S
C808 C354 0.665 . S
C789 C176 0.702 . S
C825 C113 1.713 . S
C844 C310 1.606 . S
C880 C365 1.125 . S
C861 C122 1.148 . S
C897 C131 1.645 . S
C916 C304 1.574 . S
C933 C140 0.753 . S
C952 C350 0.791 . S
C988 C406 0.751 . S
C969 C104 0.758 . S
C1005 C86 1.196 . S
C1024 C417 1.151 . S
C1041 C77 0.835 . S
C1060 C402 0.799 . S
C1096 C411 1.237 . S
C1077 C95 1.265 . S
C1113 C41 1.136 1_455 S
C1132 C456 1.077 . S
C1149 C50 0.222 . S
C1168 C515 0.423 . S
C1185 C59 1.295 . S
C1204 C472 1.182 . S
C1221 C68 0.681 . S
C1240 C510 0.721 . S
C1276 C474 1.268 . S
C1257 C5 1.325 . S
C1312 C521 0.268 . S
C1293 C14 0.176 . S
C1329 C23 1.123 . S
C1348 C450 1.114 . S
C1384 C506 0.700 . S
C1365 C32 0.631 . S
C1420 C242 1.491 . S
C1401 C4 1.537 . S
C1437 C16 1.248 . S
C1456 C246 1.271 . S
C1473 C22 1.589 . S
C1492 C266 1.525 . S
C1509 C31 0.966 . S
C1528 C261 0.949 . S
C1545 C40 1.596 . S
C1564 C264 1.586 . S
C1600 C250 1.266 . S
C1581 C49 1.232 . S
C1617 C61 1.511 . S
C1636 C248 1.512 . S
C1672 C255 0.911 . S
C1653 C70 0.921 . S
C1708 C318 1.529 . S
C1689 C34 1.547 . S
C1725 C7 1.876 . S
C1744 C368 1.835 . S
C1780 C316 1.191 . S
C1761 C13 1.247 . S
C1816 C352 1.698 . S
C1797 C25 1.762 . S
C1833 C52 1.158 . S
C1852 C294 1.130 . S
C1888 C370 1.789 . S
C1869 C58 1.861 . S
C1924 C300 1.498 . S
C1905 C67 1.501 . S
C1960 C346 1.716 . S
C1941 C43 1.775 . S
C1996 C338 1.484 . S
C1977 C76 1.490 . S
C2013 C88 1.260 . S
C2032 C362 1.310 . S
C2068 C298 1.197 . S
C2049 C79 1.150 . S
C2104 C324 1.294 . S
C2085 C97 1.315 . S
C2121 C103 1.119 . S
C2140 C302 1.156 . S
C2157 C106 1.411 . S
C2176 C356 1.405 . S
C2212 C313 1.459 . S
C2193 C85 1.409 . S
C2248 C307 1.484 . S
C2229 C94 1.460 . S
C2284 C390 1.875 . S
C2265 C112 1.927 . S
C2320 C422 1.472 . S
C2301 C124 1.457 . S
C2337 C133 1.896 . S
C2356 C376 1.859 . S
C2392 C420 1.185 . S
C2373 C139 1.172 . S
C2428 C408 1.868 . S
C2409 C148 1.888 . S
C2445 C157 1.400 . S
C2464 C404 1.417 . S
C2481 C169 1.913 . S
C2500 C414 1.935 . S
C2536 C398 1.058 . S
C2517 C178 1.092 . S
C2572 C463 1.389 . S
C2553 C142 1.338 . S
C2589 C115 1.540 . S
C2608 C524 1.510 . S
C2644 C458 1.066 . S
C2625 C121 1.064 . S
C2680 C508 1.511 . S
C2661 C130 1.509 . S
C2716 C454 1.010 . S
C2697 C160 0.990 . S
C2733 C166 1.488 . S
C2752 C526 1.461 . S
C2788 C469 1.360 . S
C2769 C175 1.326 . S
C2824 C502 1.423 . S
C2805 C151 1.408 . S
C2860 C494 1.605 . S
C2841 C184 1.662 . S
C2877 C196 1.746 . S
C2896 C518 1.710 . S
C2932 C460 1.400 . S
C2913 C187 1.408 . S
C2949 C205 1.822 . S
C2968 C480 1.741 . S
C3004 C442 1.425 . S
C2985 C211 1.488 . S
C3040 C512 1.526 . S
C3021 C214 1.551 . S
C3076 C428 1.378 . S
C3057 C193 1.453 . S
C3093 C202 1.389 . S
C3112 C466 1.330 . S
